# Generated by pormake.
# Topology kag, (6)-cn, num edge types: 1
# Building blocks:
#     Node 0, Type 0, BuildingBlock: BETDIP_clean_sbu_0, # of connection points: 6
#     Node 1, Type 0, BuildingBlock: BETDIP_clean_sbu_0, # of connection points: 6
#     Node 2, Type 0, BuildingBlock: BETDIP_clean_sbu_0, # of connection points: 6
#     Edge 3, Type (0, 0), BuildingBlock: TEMPAE_clean_linker_10, # of connection points: 2
#     Edge 4, Type (0, 0), BuildingBlock: TEMPAE_clean_linker_10, # of connection points: 2
#     Edge 5, Type (0, 0), BuildingBlock: TEMPAE_clean_linker_10, # of connection points: 2
#     Edge 6, Type (0, 0), BuildingBlock: TEMPAE_clean_linker_10, # of connection points: 2
#     Edge 7, Type (0, 0), BuildingBlock: TEMPAE_clean_linker_10, # of connection points: 2
#     Edge 8, Type (0, 0), BuildingBlock: TEMPAE_clean_linker_10, # of connection points: 2
#     Edge 9, Type (0, 0), BuildingBlock: TEMPAE_clean_linker_10, # of connection points: 2
#     Edge 10, Type (0, 0), BuildingBlock: TEMPAE_clean_linker_10, # of connection points: 2
#     Edge 11, Type (0, 0), BuildingBlock: TEMPAE_clean_linker_10, # of connection points: 2
# Relax obj value: 0.013
# Max RMSD: 0.069
# Mean RMSD: 0.060
data_MOF--net-kag--node1-BETDIP_clean_sbu_0--edge1-TEMPAE_clean_linker_10
_symmetry_space_group_name_H-M    P1
_symmetry_Int_Tables_number       1
_symmetry_cell_setting            triclinic
loop_
_symmetry_equiv_pos_as_xyz
'x, y, z'
_cell_length_a     41.196153
_cell_length_b     41.184629
_cell_length_c     14.546431
_cell_angle_alpha  92.474983
_cell_angle_beta   91.668318
_cell_angle_gamma 119.95995
loop_
_atom_site_label
_atom_site_type_symbol
_atom_site_fract_x
_atom_site_fract_y
_atom_site_fract_z
_atom_type_partial_charge
Tb0 Tb 1.01441 0.48184 0.01525 0.0
Tb1 Tb 0.05594 0.56479 0.99407 0.0
C2 C 0.97242 0.41611 0.06312 0.0
C3 C 0.93241 0.38633 0.05507 0.0
C4 C 0.90386 0.39212 0.08853 0.0
C5 C 0.86655 0.36253 0.08399 0.0
C6 C 0.85707 0.32668 0.04564 0.0
C7 C 0.88569 0.32125 0.01135 0.0
C8 C 0.92287 0.35068 0.01626 0.0
C9 C 1.02976 0.50185 0.84463 0.0
C10 C 0.96873 0.52544 0.99245 0.0
C11 C 0.09747 0.62887 0.93676 0.0
C12 C 0.13735 0.65851 0.94266 0.0
C13 C 0.15212 0.68044 0.86726 0.0
C14 C 0.18909 0.71038 0.8726 0.0
C15 C 0.21208 0.71911 0.9538 0.0
C16 C 0.19743 0.69652 0.02875 0.0
C17 C 0.16044 0.66639 0.02313 0.0
C18 C 0.04052 0.54557 0.16521 0.0
C19 C 0.10161 0.52131 0.02191 0.0
O20 O 0.98179 0.44646 0.11565 0.0
O21 O 0.99018 0.42366 0.98699 0.0
O22 O 1.01947 0.51694 0.9053 0.0
O23 O 1.02935 0.4729 0.87692 0.0
O24 O 0.96916 0.4955 0.02095 0.0
O25 O 0.99938 0.55445 0.96455 0.0
O26 O 0.08886 0.5975 0.88982 0.0
O27 O 0.07953 0.62311 0.01254 0.0
O28 O 0.05014 0.52973 0.10476 0.0
O29 O 0.04442 0.57622 0.1341 0.0
O30 O 0.10131 0.55117 0.99226 0.0
O31 O 0.07074 0.49229 0.04887 0.0
H32 H 0.91033 0.41931 0.11893 0.0
H33 H 0.84511 0.36772 0.1103 0.0
H34 H 0.87952 0.29392 0.98266 0.0
H35 H 0.94439 0.34542 0.99074 0.0
H36 H 0.13476 0.67485 0.80461 0.0
H37 H 0.19932 0.7274 0.81399 0.0
H38 H 0.21456 0.70222 0.09183 0.0
H39 H 0.14972 0.64964 0.08204 0.0
Tb40 Tb 0.55436 1.00445 0.03001 0.0
Tb41 Tb 0.51252 0.04533 0.99796 0.0
C42 C 0.57665 0.96223 0.09153 0.0
C43 C 0.56722 0.9225 0.07844 0.0
C44 C 0.55633 0.89984 0.15373 0.0
C45 C 0.54999 0.86311 0.14498 0.0
C46 C 0.55467 0.84821 0.06075 0.0
C47 C 0.56482 0.87071 0.98481 0.0
C48 C 0.57099 0.90739 0.99347 0.0
C49 C 0.54985 1.01906 0.85662 0.0
C50 C 0.46501 0.95822 0.99036 0.0
C51 C 0.48748 0.08638 0.94293 0.0
C52 C 0.49763 0.12615 0.94851 0.0
C53 C 0.47405 0.13639 0.90282 0.0
C54 C 0.48177 0.17354 0.9101 0.0
C55 C 0.51339 0.20138 0.96323 0.0
C56 C 0.53729 0.19102 1.00832 0.0
C57 C 0.52945 0.15368 1.00105 0.0
C58 C 0.51749 0.02973 0.17036 0.0
C59 C 0.60183 0.09162 0.03413 0.0
O60 O 0.55215 0.96865 0.13161 0.0
O61 O 0.59137 0.98358 0.02303 0.0
O62 O 0.52452 1.0097 0.91301 0.0
O63 O 0.57661 1.01523 0.89318 0.0
O64 O 0.49541 0.95892 0.02558 0.0
O65 O 0.46659 0.98882 0.96039 0.0
O66 O 0.50849 0.07745 0.89461 0.0
O67 O 0.47892 0.06958 0.01998 0.0
O68 O 0.54293 0.04063 0.11412 0.0
O69 O 0.48867 0.0296 0.13242 0.0
O70 O 0.57138 0.09076 0.9987 0.0
O71 O 0.60024 0.06123 0.06572 0.0
H72 H 0.55325 0.91076 0.22 0.0
H73 H 0.54159 0.84645 0.20453 0.0
H74 H 0.56912 0.86041 0.91917 0.0
H75 H 0.57943 0.92409 0.93399 0.0
H76 H 0.44922 0.11545 0.86245 0.0
H77 H 0.46239 0.18025 0.87573 0.0
H78 H 0.56207 0.21176 0.04904 0.0
H79 H 0.54795 0.14623 0.03706 0.0
Tb80 Tb 0.49514 0.50521 0.03024 0.0
Tb81 Tb 0.57756 0.54595 1.00729 0.0
C82 C 0.43007 0.48303 0.08385 0.0
C83 C 0.40039 0.49305 0.07689 0.0
C84 C 0.37625 0.48527 0.14901 0.0
C85 C 0.34652 0.49247 0.14254 0.0
C86 C 0.34023 0.50754 0.06348 0.0
C87 C 0.36497 0.51599 0.99185 0.0
C88 C 0.39489 0.50895 0.99864 0.0
C89 C 0.5148 0.50914 0.85822 0.0
C90 C 0.53924 0.59453 0.01655 0.0
C91 C 0.64229 0.56778 0.95229 0.0
C92 C 0.67248 0.55834 0.96207 0.0
C93 C 0.66738 0.52327 0.92998 0.0
C94 C 0.69717 0.51602 0.93664 0.0
C95 C 0.73257 0.5436 0.97579 0.0
C96 C 0.73737 0.57843 1.00861 0.0
C97 C 0.70773 0.58572 1.00152 0.0
C98 C 0.5589 0.54156 0.1808 0.0
C99 C 0.53349 0.45668 0.02116 0.0
O100 O 0.46078 0.50667 0.13259 0.0
O101 O 0.437 0.46992 1.00804 0.0
O102 O 0.53001 0.53485 0.92136 0.0
O103 O 0.4854 0.48105 0.88808 0.0
O104 O 0.50946 0.56447 0.04438 0.0
O105 O 0.56777 0.59227 0.98418 0.0
O106 O 0.61132 0.54377 0.90454 0.0
O107 O 0.63574 0.58221 0.0264 0.0
O108 O 0.54267 0.51637 0.11657 0.0
O109 O 0.58877 0.56897 0.15041 0.0
O110 O 0.56326 0.48673 0.99329 0.0
O111 O 0.50493 0.45889 0.0537 0.0
H112 H 0.38001 0.47297 0.20991 0.0
H113 H 0.32781 0.48524 0.19848 0.0
H114 H 0.36116 0.52802 0.93054 0.0
H115 H 0.41338 0.51546 0.94237 0.0
H116 H 0.64055 0.50155 0.89909 0.0
H117 H 0.69249 0.4888 0.91138 0.0
H118 H 0.76437 0.60048 0.03786 0.0
H119 H 0.71252 0.61308 0.026 0.0
C120 C 1.02241 0.53469 0.71122 0.0
C121 C 1.03371 0.5105 0.7464 0.0
C122 C 1.02399 0.54114 0.61677 0.0
C123 C 0.03779 0.52347 0.55639 0.0
C124 C 0.05017 0.49981 0.59232 0.0
C125 C 0.04771 0.49341 0.68669 0.0
C126 C 1.01017 0.56627 0.58128 0.0
C127 C 0.06566 0.48093 0.53087 0.0
C128 C 1.00891 0.50943 0.29979 0.0
C129 C 0.04024 0.53933 0.26429 0.0
C130 C 1.00766 0.50403 0.39474 0.0
C131 C 0.03863 0.52909 0.4554 0.0
C132 C 0.07043 0.55935 0.41931 0.0
C133 C 0.0707 0.56427 0.32416 0.0
C134 C 0.97303 0.47172 0.43026 0.0
C135 C 0.10418 0.58645 0.48117 0.0
H136 H 1.01152 0.54792 0.75718 0.0
H137 H 0.05669 0.47485 0.71378 0.0
H138 H 1.03278 0.58971 0.5463 0.0
H139 H 0.98645 0.55013 0.5294 0.0
H140 H 1.00066 0.57822 0.63721 0.0
H141 H 0.07556 0.46465 0.57009 0.0
H142 H 0.04374 0.46161 0.47793 0.0
H143 H 0.08942 0.50226 0.49391 0.0
H144 H 0.98502 0.49077 0.25357 0.0
H145 H 0.09482 0.58755 0.29632 0.0
H146 H 0.96074 0.48253 0.48161 0.0
H147 H 0.9806 0.45293 0.46584 0.0
H148 H 0.95132 0.4549 0.37422 0.0
H149 H 0.09585 0.60067 0.53409 0.0
H150 H 0.12684 0.60819 0.44221 0.0
H151 H 0.11555 0.57094 0.51818 0.0
C152 C 0.55787 0.0385 0.31192 0.0
C153 C 0.52216 0.02547 0.26951 0.0
C154 C 0.56259 0.03682 0.40746 0.0
C155 C 0.53073 1.02106 0.46138 0.0
C156 C 0.49452 1.00681 0.41806 0.0
C157 C 0.49072 1.0095 0.32282 0.0
C158 C 0.60171 0.05273 0.45105 0.0
C159 C 0.45979 0.98913 0.47253 0.0
C160 C 0.54036 0.98942 0.69798 0.0
C161 C 0.54368 1.01898 0.75634 0.0
C162 C 0.5358 0.98951 0.60182 0.0
C163 C 0.53528 1.02031 0.56336 0.0
C164 C 0.53898 0.05039 0.62252 0.0
C165 C 0.54302 0.04928 0.71845 0.0
C166 C 0.53146 0.95668 0.54145 0.0
C167 C 0.53914 0.084 0.58444 0.0
H168 H 0.58224 0.05091 0.27082 0.0
H169 H 0.46303 0.99917 0.28999 0.0
H170 H 0.60778 0.07603 0.50253 0.0
H171 H 0.60389 0.0309 0.48829 0.0
H172 H 0.62346 0.06352 0.39945 0.0
H173 H 0.43359 0.97769 0.42785 0.0
H174 H 0.45883 0.96605 0.51116 0.0
H175 H 0.46063 1.01028 0.52394 0.0
H176 H 0.54117 0.96612 0.72775 0.0
H177 H 0.5467 0.07259 0.76366 0.0
H178 H 0.55446 0.96644 0.49338 0.0
H179 H 0.50467 0.94395 0.49887 0.0
H180 H 0.5318 0.93464 0.58221 0.0
H181 H 0.5624 0.09765 0.53759 0.0
H182 H 0.54246 0.10511 0.63964 0.0
H183 H 0.51257 0.07488 0.54321 0.0
C184 C 0.52002 0.54277 0.71642 0.0
C185 C 0.52215 0.51422 0.76003 0.0
C186 C 0.52493 0.54659 0.62147 0.0
C187 C 0.53376 0.52224 0.5701 0.0
C188 C 0.53688 0.49394 0.61499 0.0
C189 C 0.53018 0.48975 0.70916 0.0
C190 C 0.52002 0.57622 0.57584 0.0
C191 C 0.54777 0.46844 0.56392 0.0
C192 C 0.51728 0.50907 0.30844 0.0
C193 C 0.55227 0.53608 0.27989 0.0
C194 C 0.51055 0.50483 0.40265 0.0
C195 C 0.54017 0.5267 0.46978 0.0
C196 C 0.57599 0.55303 0.44097 0.0
C197 C 0.58135 0.55799 0.34655 0.0
C198 C 0.47159 0.4774 0.43027 0.0
C199 C 0.60879 0.57571 0.50983 0.0
H200 H 0.51343 0.56141 0.75616 0.0
H201 H 0.53191 0.46778 0.7436 0.0
H202 H 0.54669 0.59685 0.54708 0.0
H203 H 0.49861 0.56303 0.51746 0.0
H204 H 0.51124 0.59155 0.62449 0.0
H205 H 0.55093 0.44924 0.60998 0.0
H206 H 0.52623 0.45126 0.50809 0.0
H207 H 0.57466 0.48547 0.53104 0.0
H208 H 0.49497 0.49161 0.25725 0.0
H209 H 0.60865 0.57859 0.3248 0.0
H210 H 0.46164 0.49187 0.47811 0.0
H211 H 0.47206 0.45469 0.46747 0.0
H212 H 0.45111 0.46447 0.3699 0.0
H213 H 0.60312 0.59448 0.555 0.0
H214 H 0.63535 0.59317 0.47591 0.0
H215 H 0.61271 0.55669 0.55481 0.0
C216 C 0.13853 0.4896 0.05845 0.0
C217 C 0.13758 0.52107 0.02836 0.0
C218 C 0.17216 0.48866 0.06354 0.0
C219 C 0.20581 0.51994 0.03804 0.0
C220 C 0.20514 0.55187 1.00804 0.0
C221 C 0.17107 0.55205 1.00347 0.0
C222 C 0.17163 0.45405 0.09592 0.0
C223 C 0.24039 0.58581 0.98042 0.0
C224 C 0.2972 0.52802 0.13035 0.0
C225 C 0.30718 0.51308 0.05497 0.0
C226 C 0.26479 0.53121 0.12513 0.0
C227 C 0.24161 0.51903 0.04263 0.0
C228 C 0.25193 0.50465 0.96566 0.0
C229 C 0.28459 0.50192 0.97269 0.0
C230 C 0.25497 0.54698 0.20852 0.0
C231 C 0.22793 0.4912 0.87659 0.0
H232 H 0.11289 0.46549 0.07775 0.0
H233 H 0.17074 0.57653 0.98014 0.0
H234 H 0.18152 0.44192 0.04147 0.0
H235 H 0.19114 0.46167 0.1576 0.0
H236 H 0.14319 0.43214 0.11352 0.0
H237 H 0.23529 0.60864 0.95995 0.0
H238 H 0.26202 0.59692 0.03843 0.0
H239 H 0.2521 0.5777 0.92184 0.0
H240 H 0.31475 0.53716 0.19376 0.0
H241 H 0.29184 0.48994 0.91448 0.0
H242 H 0.22782 0.52523 0.23307 0.0
H243 H 0.25146 0.57094 0.18995 0.0
H244 H 0.27672 0.55668 0.26611 0.0
H245 H 0.19991 0.46711 0.88864 0.0
H246 H 0.24065 0.48227 0.8219 0.0
H247 H 0.2235 0.5138 0.85129 0.0
C248 C 0.6713 0.12873 0.07205 0.0
C249 C 0.63821 0.12758 0.04035 0.0
C250 C 0.70615 0.16214 0.07459 0.0
C251 C 0.70808 0.19536 0.04504 0.0
C252 C 0.67471 0.19458 0.01458 0.0
C253 C 0.64024 0.16073 0.01233 0.0
C254 C 0.74104 0.16171 0.10741 0.0
C255 C 0.67549 0.22939 0.98292 0.0
C256 C 0.79627 0.288 0.12075 0.0
C257 C 0.81779 0.2946 0.04337 0.0
C258 C 0.76021 0.25625 0.12168 0.0
C259 C 0.74522 0.2305 0.04327 0.0
C260 C 0.76638 0.23757 0.96408 0.0
C261 C 0.80235 0.26946 0.96513 0.0
C262 C 0.73859 0.2497 0.2075 0.0
C263 C 0.75136 0.21101 0.87879 0.0
H264 H 0.67013 0.10335 0.09377 0.0
H265 H 0.6149 0.16024 0.98779 0.0
H266 H 0.76055 0.16894 0.05087 0.0
H267 H 0.75593 0.18322 0.1652 0.0
H268 H 0.73467 0.1339 0.13076 0.0
H269 H 0.64691 0.2246 0.96572 0.0
H270 H 0.68943 0.25263 0.03731 0.0
H271 H 0.69214 0.23874 0.92104 0.0
H272 H 0.80811 0.30706 0.1818 0.0
H273 H 0.81856 0.27464 0.90459 0.0
H274 H 0.73435 0.2236 0.23724 0.0
H275 H 0.71038 0.24577 0.1902 0.0
H276 H 0.75328 0.27334 0.26081 0.0
H277 H 0.74687 0.18306 0.89531 0.0
H278 H 0.77069 0.22127 0.82173 0.0
H279 H 0.72377 0.20707 0.85448 0.0
C280 C 0.56397 0.79752 0.12506 0.0
C281 C 0.55035 0.80993 0.05304 0.0
C282 C 0.56111 0.76204 0.11814 0.0
C283 C 0.54442 0.73829 0.03696 0.0
C284 C 0.5304 0.75047 0.96415 0.0
C285 C 0.53345 0.78605 0.97313 0.0
C286 C 0.5764 0.75015 0.19741 0.0
C287 C 0.51242 0.72601 0.87646 0.0
C288 C 0.57075 0.66306 0.98761 0.0
C289 C 0.5399 0.63098 0.01853 0.0
C290 C 0.57227 0.69796 0.99178 0.0
C291 C 0.54227 0.701 0.02794 0.0
C292 C 0.5108 0.66864 0.05802 0.0
C293 C 0.50998 0.63406 0.05293 0.0
C294 C 0.60627 0.73173 0.95861 0.0
C295 C 0.47824 0.67066 0.09701 0.0
H296 H 0.57765 0.8159 0.18644 0.0
H297 H 0.52238 0.7951 0.91756 0.0
H298 H 0.55404 0.7232 0.22122 0.0
H299 H 0.59921 0.74539 0.17426 0.0
H300 H 0.58763 0.77143 0.25676 0.0
H301 H 0.50263 0.73942 0.82658 0.0
H302 H 0.53277 0.71981 0.84305 0.0
H303 H 0.48812 0.69875 0.89248 0.0
H304 H 0.59399 0.66105 0.96072 0.0
H305 H 0.48595 0.6095 0.07688 0.0
H306 H 0.62069 0.75327 0.01658 0.0
H307 H 0.59754 0.74464 0.90499 0.0
H308 H 0.62665 0.72446 0.92956 0.0
H309 H 0.48802 0.6898 0.16034 0.0
H310 H 0.45526 0.64271 0.11428 0.0
H311 H 0.46675 0.68243 0.04687 0.0
C312 C 0.93161 0.55712 0.95817 0.0
C313 C 0.93282 0.52582 0.98847 0.0
C314 C 0.89809 0.55828 0.95577 0.0
C315 C 0.86482 0.52741 0.98435 0.0
C316 C 0.86572 0.49558 0.01429 0.0
C317 C 0.89967 0.49517 0.01603 0.0
C318 C 0.89837 0.59277 0.92335 0.0
C319 C 0.8309 0.46208 0.04531 0.0
C320 C 0.78915 0.54844 0.05963 0.0
C321 C 0.76486 0.53679 0.98025 0.0
C322 C 0.8212 0.54463 0.06272 0.0
C323 C 0.82935 0.52891 0.98439 0.0
C324 C 0.80445 0.51622 0.90483 0.0
C325 C 0.77248 0.52022 0.9038 0.0
C326 C 0.84681 0.55822 0.14919 0.0
C327 C 0.81219 0.49943 0.81978 0.0
H328 H 0.95698 0.58097 0.93672 0.0
H329 H 0.9002 0.47082 0.03952 0.0
H330 H 0.87753 0.5848 0.86443 0.0
H331 H 0.89011 0.60582 0.97944 0.0
H332 H 0.92637 0.61408 0.90167 0.0
H333 H 0.83607 0.43917 0.06461 0.0
H334 H 0.82044 0.47075 0.1056 0.0
H335 H 0.8083 0.45088 0.9896 0.0
H336 H 0.78317 0.56078 0.11943 0.0
H337 H 0.75407 0.51149 0.8419 0.0
H338 H 0.87478 0.58168 0.13406 0.0
H339 H 0.851 0.53536 0.1737 0.0
H340 H 0.83558 0.56809 0.20562 0.0
H341 H 0.83855 0.52083 0.79119 0.0
H342 H 0.78912 0.48912 0.76537 0.0
H343 H 0.81623 0.47573 0.83768 0.0
C344 C 0.26337 0.77732 0.04002 0.0
C345 C 0.25064 0.75252 0.96095 0.0
C346 C 0.29876 0.81017 0.04553 0.0
C347 C 0.32214 0.81842 0.97031 0.0
C348 C 0.30979 0.7931 0.89109 0.0
C349 C 0.2742 0.76055 0.88728 0.0
C350 C 0.31078 0.83649 0.13106 0.0
C351 C 0.33398 0.80068 0.80975 0.0
C352 C 0.39601 0.92062 0.94605 0.0
C353 C 0.4287 0.92218 0.98268 0.0
C354 C 0.36128 0.88702 0.9411 0.0
C355 C 0.35905 0.85406 0.97352 0.0
C356 C 0.39196 0.85532 1.00978 0.0
C357 C 0.42635 0.88932 0.01397 0.0
C358 C 0.32685 0.88688 0.90189 0.0
C359 C 0.39081 0.82081 0.04492 0.0
H360 H 0.24517 0.77159 0.09675 0.0
H361 H 0.26476 0.7413 0.82642 0.0
H362 H 0.33811 0.84141 0.1607 0.0
H363 H 0.31479 0.86411 0.11298 0.0
H364 H 0.2899 0.82543 0.18469 0.0
H365 H 0.32083 0.77762 0.7546 0.0
H366 H 0.3392 0.82717 0.78028 0.0
H367 H 0.36167 0.80445 0.83234 0.0
H368 H 0.39743 0.94578 0.92174 0.0
H369 H 0.45136 0.89013 0.04249 0.0
H370 H 0.30568 0.8787 0.95465 0.0
H371 H 0.31387 0.86578 0.84254 0.0
H372 H 0.33336 0.91473 0.87859 0.0
H373 H 0.37197 0.81077 0.10283 0.0
H374 H 0.41902 0.82623 0.06914 0.0
H375 H 0.37916 0.7978 0.98972 0.0
C376 C 0.56484 0.41834 0.99661 0.0
C377 C 0.53279 0.42021 0.0182 0.0
C378 C 0.56419 0.38385 0.9903 0.0
C379 C 0.53058 0.3503 1.00518 0.0
C380 C 0.49827 0.35205 0.02811 0.0
C381 C 0.4998 0.38695 0.03467 0.0
C382 C 0.59934 0.38329 0.96652 0.0
C383 C 0.4618 0.31693 0.04394 0.0
C384 C 0.51413 0.25713 0.89709 0.0
C385 C 0.5205 0.24067 0.97297 0.0
C386 C 0.51795 0.29299 0.90635 0.0
C387 C 0.52867 0.31317 0.99356 0.0
C388 C 0.53623 0.29726 0.06992 0.0
C389 C 0.532 0.26121 0.05878 0.0
C390 C 0.50972 0.30893 0.82308 0.0
C391 C 0.54789 0.31793 0.16395 0.0
H392 H 0.59055 0.44386 0.98424 0.0
H393 H 0.47485 0.38803 0.05114 0.0
H394 H 0.60684 0.36932 0.01988 0.0
H395 H 0.59432 0.36676 0.9001 0.0
H396 H 0.62359 0.41196 0.96071 0.0
H397 H 0.43951 0.32314 0.06362 0.0
H398 H 0.45177 0.29794 0.98032 0.0
H399 H 0.4662 0.30153 0.09914 0.0
H400 H 0.5059 0.24182 0.83016 0.0
H401 H 0.53662 0.24865 0.11806 0.0
H402 H 0.53429 0.33664 0.81114 0.0
H403 H 0.4858 0.3135 0.83547 0.0
H404 H 0.5027 0.29014 0.75961 0.0
H405 H 0.57267 0.34631 0.15957 0.0
H406 H 0.55486 0.30271 0.21499 0.0
H407 H 0.52486 0.32179 0.18959 0.0
loop_
_geom_bond_atom_site_label_1
_geom_bond_atom_site_label_2
_geom_bond_distance
_geom_bond_site_symmetry_2
_ccdc_geom_bond_type
Tb0 C2 2.809 . S
Tb0 O20 2.484 1_556 S
Tb0 O21 2.440 . S
Tb0 O22 2.658 1_655 S
Tb0 O23 2.409 . S
Tb0 O24 2.378 . S
Tb0 O28 2.325 1_556 S
Tb0 O31 2.341 1_655 S
Tb1 C11 2.809 . S
Tb1 O22 2.325 1_554 S
Tb1 O25 2.341 1_455 S
Tb1 O26 2.484 1_554 S
Tb1 O27 2.440 . S
Tb1 O28 2.658 1_455 S
Tb1 O29 2.409 . S
Tb1 O30 2.378 . S
C2 Tb0 2.809 . S
C2 C3 1.514 1_556 S
C2 O20 1.248 1_556 S
C2 O21 1.266 . S
C3 C2 1.514 1_554 S
C3 C4 1.359 . S
C3 C8 1.348 1_554 S
C4 C3 1.359 . S
C4 C5 1.380 . S
C4 H32 0.929 . S
C5 C4 1.380 . S
C5 C6 1.347 . S
C5 H33 0.931 . S
C6 C5 1.347 . S
C6 C7 1.369 1_554 S
C7 C6 1.369 1_556 S
C7 C8 1.408 . S
C7 H34 0.930 . S
C8 C3 1.348 1_556 S
C8 C7 1.408 . S
C8 H35 0.930 . S
C9 O22 1.281 1_655 S
C9 O23 1.254 . S
C10 O24 1.236 . S
C10 O25 1.266 1_556 S
C11 Tb1 2.809 . S
C11 C12 1.514 1_554 S
C11 O26 1.248 1_554 S
C11 O27 1.266 . S
C12 C11 1.514 1_556 S
C12 C13 1.359 . S
C12 C17 1.348 1_556 S
C13 C12 1.359 . S
C13 C14 1.380 . S
C13 H36 0.929 . S
C14 C13 1.380 . S
C14 C15 1.347 . S
C14 H37 0.931 . S
C15 C14 1.347 . S
C15 C16 1.369 1_556 S
C16 C15 1.369 1_554 S
C16 C17 1.408 . S
C16 H38 0.930 . S
C17 C12 1.348 1_554 S
C17 C16 1.408 . S
C17 H39 0.930 . S
C18 O28 1.281 1_455 S
C18 O29 1.254 . S
C19 O30 1.236 . S
C19 O31 1.266 1_554 S
O20 Tb0 2.484 1_554 S
O20 C2 1.248 1_554 S
O21 Tb0 2.440 . S
O21 C2 1.266 . S
O22 Tb0 2.658 1_455 S
O22 Tb1 2.325 1_556 S
O22 C9 1.281 1_455 S
O23 Tb0 2.409 . S
O23 C9 1.254 . S
O24 Tb0 2.378 . S
O24 C10 1.236 . S
O25 Tb1 2.341 1_655 S
O25 C10 1.266 1_554 S
O26 Tb1 2.484 1_556 S
O26 C11 1.248 1_556 S
O27 Tb1 2.440 . S
O27 C11 1.266 . S
O28 Tb0 2.325 1_554 S
O28 Tb1 2.658 1_655 S
O28 C18 1.281 1_655 S
O29 Tb1 2.409 . S
O29 C18 1.254 . S
O30 Tb1 2.378 . S
O30 C19 1.236 . S
O31 Tb0 2.341 1_455 S
O31 C19 1.266 1_556 S
H32 C4 0.929 . S
H33 C5 0.931 . S
H34 C7 0.930 . S
H35 C8 0.930 . S
H36 C13 0.929 . S
H37 C14 0.931 . S
H38 C16 0.930 . S
H39 C17 0.930 . S
Tb40 C42 2.809 1_556 S
Tb40 O60 2.484 1_556 S
Tb40 O61 2.440 . S
Tb40 O62 2.658 1_565 S
Tb40 O63 2.409 . S
Tb40 O64 2.378 . S
Tb40 O68 2.325 1_556 S
Tb40 O71 2.341 1_566 S
Tb41 C51 2.809 1_554 S
Tb41 O62 2.325 1_554 S
Tb41 O65 2.341 1_544 S
Tb41 O66 2.484 1_554 S
Tb41 O67 2.440 . S
Tb41 O68 2.658 1_545 S
Tb41 O69 2.409 . S
Tb41 O70 2.378 . S
C42 Tb40 2.809 1_554 S
C42 C43 1.514 . S
C42 O60 1.248 . S
C42 O61 1.266 1_554 S
C43 C42 1.514 . S
C43 C44 1.359 . S
C43 C48 1.348 1_554 S
C44 C43 1.359 . S
C44 C45 1.380 . S
C44 H72 0.929 . S
C45 C44 1.380 . S
C45 C46 1.347 . S
C45 H73 0.931 . S
C46 C45 1.347 . S
C46 C47 1.369 1_554 S
C47 C46 1.369 1_556 S
C47 C48 1.408 . S
C47 H74 0.930 . S
C48 C43 1.348 1_556 S
C48 C47 1.408 . S
C48 H75 0.930 . S
C49 O62 1.281 1_565 S
C49 O63 1.254 . S
C50 O64 1.236 . S
C50 O65 1.266 . S
C51 Tb41 2.809 1_556 S
C51 C52 1.514 . S
C51 O66 1.248 . S
C51 O67 1.266 1_556 S
C52 C51 1.514 . S
C52 C53 1.359 . S
C52 C57 1.348 1_556 S
C53 C52 1.359 . S
C53 C54 1.380 . S
C53 H76 0.929 . S
C54 C53 1.380 . S
C54 C55 1.347 . S
C54 H77 0.931 . S
C55 C54 1.347 . S
C55 C56 1.369 1_556 S
C56 C55 1.369 1_554 S
C56 C57 1.408 . S
C56 H78 0.930 . S
C57 C52 1.348 1_554 S
C57 C56 1.408 . S
C57 H79 0.930 . S
C58 O68 1.281 1_545 S
C58 O69 1.254 . S
C59 O70 1.236 . S
C59 O71 1.266 . S
O60 Tb40 2.484 1_554 S
O60 C42 1.248 . S
O61 Tb40 2.440 . S
O61 C42 1.266 1_556 S
O62 Tb40 2.658 1_545 S
O62 Tb41 2.325 1_556 S
O62 C49 1.281 1_545 S
O63 Tb40 2.409 . S
O63 C49 1.254 . S
O64 Tb40 2.378 . S
O64 C50 1.236 . S
O65 Tb41 2.341 1_566 S
O65 C50 1.266 . S
O66 Tb41 2.484 1_556 S
O66 C51 1.248 . S
O67 Tb41 2.440 . S
O67 C51 1.266 1_554 S
O68 Tb40 2.325 1_554 S
O68 Tb41 2.658 1_565 S
O68 C58 1.281 1_565 S
O69 Tb41 2.409 . S
O69 C58 1.254 . S
O70 Tb41 2.378 . S
O70 C59 1.236 . S
O71 Tb40 2.341 1_544 S
O71 C59 1.266 . S
H72 C44 0.929 . S
H73 C45 0.931 . S
H74 C47 0.930 . S
H75 C48 0.930 . S
H76 C53 0.929 . S
H77 C54 0.931 . S
H78 C56 0.930 . S
H79 C57 0.930 . S
Tb80 C82 2.809 . S
Tb80 O100 2.484 1_556 S
Tb80 O101 2.440 . S
Tb80 O102 2.658 . S
Tb80 O103 2.409 . S
Tb80 O104 2.378 . S
Tb80 O108 2.325 1_556 S
Tb80 O111 2.341 . S
Tb81 C91 2.809 . S
Tb81 O102 2.325 1_554 S
Tb81 O105 2.341 . S
Tb81 O106 2.484 1_554 S
Tb81 O107 2.440 . S
Tb81 O108 2.658 . S
Tb81 O109 2.409 . S
Tb81 O110 2.378 . S
C82 Tb80 2.809 . S
C82 C83 1.514 1_556 S
C82 O100 1.248 1_556 S
C82 O101 1.266 . S
C83 C82 1.514 1_554 S
C83 C84 1.359 . S
C83 C88 1.348 1_554 S
C84 C83 1.359 . S
C84 C85 1.380 . S
C84 H112 0.929 . S
C85 C84 1.380 . S
C85 C86 1.347 . S
C85 H113 0.931 . S
C86 C85 1.347 . S
C86 C87 1.369 1_554 S
C87 C86 1.369 1_556 S
C87 C88 1.408 . S
C87 H114 0.930 . S
C88 C83 1.348 1_556 S
C88 C87 1.408 . S
C88 H115 0.930 . S
C89 O102 1.281 . S
C89 O103 1.254 . S
C90 O104 1.236 . S
C90 O105 1.266 1_556 S
C91 Tb81 2.809 . S
C91 C92 1.514 1_554 S
C91 O106 1.248 1_554 S
C91 O107 1.266 . S
C92 C91 1.514 1_556 S
C92 C93 1.359 . S
C92 C97 1.348 1_556 S
C93 C92 1.359 . S
C93 C94 1.380 . S
C93 H116 0.929 . S
C94 C93 1.380 . S
C94 C95 1.347 . S
C94 H117 0.931 . S
C95 C94 1.347 . S
C95 C96 1.369 1_556 S
C96 C95 1.369 1_554 S
C96 C97 1.408 . S
C96 H118 0.930 . S
C97 C92 1.348 1_554 S
C97 C96 1.408 . S
C97 H119 0.930 . S
C98 O108 1.281 . S
C98 O109 1.254 . S
C99 O110 1.236 . S
C99 O111 1.266 1_554 S
O100 Tb80 2.484 1_554 S
O100 C82 1.248 1_554 S
O101 Tb80 2.440 . S
O101 C82 1.266 . S
O102 Tb80 2.658 . S
O102 Tb81 2.325 1_556 S
O102 C89 1.281 . S
O103 Tb80 2.409 . S
O103 C89 1.254 . S
O104 Tb80 2.378 . S
O104 C90 1.236 . S
O105 Tb81 2.341 . S
O105 C90 1.266 1_554 S
O106 Tb81 2.484 1_556 S
O106 C91 1.248 1_556 S
O107 Tb81 2.440 . S
O107 C91 1.266 . S
O108 Tb80 2.325 1_554 S
O108 Tb81 2.658 . S
O108 C98 1.281 . S
O109 Tb81 2.409 . S
O109 C98 1.254 . S
O110 Tb81 2.378 . S
O110 C99 1.236 . S
O111 Tb80 2.341 . S
O111 C99 1.266 1_556 S
H112 C84 0.929 . S
H113 C85 0.931 . S
H114 C87 0.930 . S
H115 C88 0.930 . S
H116 C93 0.929 . S
H117 C94 0.931 . S
H118 C96 0.930 . S
H119 C97 0.930 . S
C120 C121 1.391 1_655 S
C120 C122 1.394 . S
C120 H136 0.931 . S
C121 C120 1.391 1_455 S
C121 C125 1.376 . S
C122 C120 1.394 . S
C122 C123 1.369 1_655 S
C122 C126 1.531 . S
C123 C122 1.369 1_455 S
C123 C124 1.410 . S
C123 C131 1.503 . S
C124 C123 1.410 . S
C124 C125 1.392 . S
C124 C127 1.511 . S
C125 C121 1.376 . S
C125 C124 1.392 . S
C125 H137 0.929 . S
C126 C122 1.531 . S
C126 H138 0.960 . S
C126 H139 0.962 . S
C126 H140 0.960 . S
C127 C124 1.511 . S
C127 H141 0.961 . S
C127 H142 0.961 . S
C127 H143 0.961 . S
C128 C129 1.370 1_655 S
C128 C130 1.363 . S
C128 H144 0.931 . S
C129 C128 1.370 1_455 S
C129 C133 1.408 . S
C130 C128 1.363 . S
C130 C131 1.370 1_655 S
C130 C134 1.524 . S
C131 C123 1.503 . S
C131 C130 1.370 1_455 S
C131 C132 1.403 . S
C132 C131 1.403 . S
C132 C133 1.404 . S
C132 C135 1.539 . S
C133 C129 1.408 . S
C133 C132 1.404 . S
C133 H145 0.930 . S
C134 C130 1.524 . S
C134 H146 0.956 . S
C134 H147 0.961 . S
C134 H148 0.961 . S
C135 C132 1.539 . S
C135 H149 0.958 . S
C135 H150 0.961 . S
C135 H151 0.960 . S
H136 C120 0.931 . S
H137 C125 0.929 . S
H138 C126 0.960 . S
H139 C126 0.962 . S
H140 C126 0.960 . S
H141 C127 0.961 . S
H142 C127 0.961 . S
H143 C127 0.961 . S
H144 C128 0.931 . S
H145 C133 0.930 . S
H146 C134 0.956 . S
H147 C134 0.961 . S
H148 C134 0.961 . S
H149 C135 0.958 . S
H150 C135 0.961 . S
H151 C135 0.960 . S
C152 C153 1.391 . S
C152 C154 1.394 . S
C152 H168 0.931 . S
C153 C152 1.391 . S
C153 C157 1.376 1_545 S
C154 C152 1.394 . S
C154 C155 1.369 . S
C154 C158 1.531 . S
C155 C154 1.369 . S
C155 C156 1.410 1_545 S
C155 C163 1.503 . S
C156 C155 1.410 1_565 S
C156 C157 1.392 . S
C156 C159 1.511 . S
C157 C153 1.376 1_565 S
C157 C156 1.392 . S
C157 H169 0.929 . S
C158 C154 1.531 . S
C158 H170 0.960 . S
C158 H171 0.962 . S
C158 H172 0.960 . S
C159 C156 1.511 . S
C159 H173 0.961 . S
C159 H174 0.961 . S
C159 H175 0.961 1_565 S
C160 C161 1.370 1_565 S
C160 C162 1.363 . S
C160 H176 0.931 . S
C161 C160 1.370 1_545 S
C161 C165 1.408 . S
C162 C160 1.363 . S
C162 C163 1.370 1_565 S
C162 C166 1.524 . S
C163 C155 1.503 . S
C163 C162 1.370 1_545 S
C163 C164 1.403 . S
C164 C163 1.403 . S
C164 C165 1.404 . S
C164 C167 1.539 . S
C165 C161 1.408 . S
C165 C164 1.404 . S
C165 H177 0.930 . S
C166 C162 1.524 . S
C166 H178 0.956 . S
C166 H179 0.961 . S
C166 H180 0.961 . S
C167 C164 1.539 . S
C167 H181 0.958 . S
C167 H182 0.961 . S
C167 H183 0.960 . S
H168 C152 0.931 . S
H169 C157 0.929 . S
H170 C158 0.960 . S
H171 C158 0.962 . S
H172 C158 0.960 . S
H173 C159 0.961 . S
H174 C159 0.961 . S
H175 C159 0.961 1_545 S
H176 C160 0.931 . S
H177 C165 0.930 . S
H178 C166 0.956 . S
H179 C166 0.961 . S
H180 C166 0.961 . S
H181 C167 0.958 . S
H182 C167 0.961 . S
H183 C167 0.960 . S
C184 C185 1.391 . S
C184 C186 1.394 . S
C184 H200 0.931 . S
C185 C184 1.391 . S
C185 C189 1.376 . S
C186 C184 1.394 . S
C186 C187 1.369 . S
C186 C190 1.531 . S
C187 C186 1.369 . S
C187 C188 1.410 . S
C187 C195 1.503 . S
C188 C187 1.410 . S
C188 C189 1.392 . S
C188 C191 1.511 . S
C189 C185 1.376 . S
C189 C188 1.392 . S
C189 H201 0.929 . S
C190 C186 1.531 . S
C190 H202 0.960 . S
C190 H203 0.962 . S
C190 H204 0.960 . S
C191 C188 1.511 . S
C191 H205 0.961 . S
C191 H206 0.961 . S
C191 H207 0.961 . S
C192 C193 1.370 . S
C192 C194 1.363 . S
C192 H208 0.931 . S
C193 C192 1.370 . S
C193 C197 1.408 . S
C194 C192 1.363 . S
C194 C195 1.370 . S
C194 C198 1.524 . S
C195 C187 1.503 . S
C195 C194 1.370 . S
C195 C196 1.403 . S
C196 C195 1.403 . S
C196 C197 1.404 . S
C196 C199 1.539 . S
C197 C193 1.408 . S
C197 C196 1.404 . S
C197 H209 0.930 . S
C198 C194 1.524 . S
C198 H210 0.956 . S
C198 H211 0.961 . S
C198 H212 0.961 . S
C199 C196 1.539 . S
C199 H213 0.958 . S
C199 H214 0.961 . S
C199 H215 0.960 . S
H200 C184 0.931 . S
H201 C189 0.929 . S
H202 C190 0.960 . S
H203 C190 0.962 . S
H204 C190 0.960 . S
H205 C191 0.961 . S
H206 C191 0.961 . S
H207 C191 0.961 . S
H208 C192 0.931 . S
H209 C197 0.930 . S
H210 C198 0.956 . S
H211 C198 0.961 . S
H212 C198 0.961 . S
H213 C199 0.958 . S
H214 C199 0.961 . S
H215 C199 0.960 . S
C216 C217 1.391 . S
C216 C218 1.394 . S
C216 H232 0.931 . S
C217 C216 1.391 . S
C217 C221 1.376 1_554 S
C218 C216 1.394 . S
C218 C219 1.369 . S
C218 C222 1.531 . S
C219 C218 1.369 . S
C219 C220 1.410 1_554 S
C219 C227 1.503 . S
C220 C219 1.410 1_556 S
C220 C221 1.392 . S
C220 C223 1.511 . S
C221 C217 1.376 1_556 S
C221 C220 1.392 . S
C221 H233 0.929 . S
C222 C218 1.531 . S
C222 H234 0.960 . S
C222 H235 0.962 . S
C222 H236 0.960 . S
C223 C220 1.511 . S
C223 H237 0.961 . S
C223 H238 0.961 . S
C223 H239 0.961 . S
C224 C225 1.370 . S
C224 C226 1.363 . S
C224 H240 0.931 . S
C225 C224 1.370 . S
C225 C229 1.408 1_554 S
C226 C224 1.363 . S
C226 C227 1.370 . S
C226 C230 1.524 . S
C227 C219 1.503 . S
C227 C226 1.370 . S
C227 C228 1.403 1_554 S
C228 C227 1.403 1_556 S
C228 C229 1.404 . S
C228 C231 1.539 . S
C229 C225 1.408 1_556 S
C229 C228 1.404 . S
C229 H241 0.930 . S
C230 C226 1.524 . S
C230 H242 0.956 . S
C230 H243 0.961 . S
C230 H244 0.961 . S
C231 C228 1.539 . S
C231 H245 0.958 1_556 S
C231 H246 0.961 . S
C231 H247 0.960 . S
H232 C216 0.931 . S
H233 C221 0.929 . S
H234 C222 0.960 . S
H235 C222 0.962 . S
H236 C222 0.960 . S
H237 C223 0.961 . S
H238 C223 0.961 . S
H239 C223 0.961 . S
H240 C224 0.931 . S
H241 C229 0.930 . S
H242 C230 0.956 . S
H243 C230 0.961 . S
H244 C230 0.961 . S
H245 C231 0.958 1_554 S
H246 C231 0.961 . S
H247 C231 0.960 . S
C248 C249 1.391 1_556 S
C248 C250 1.394 . S
C248 H264 0.931 . S
C249 C248 1.391 1_554 S
C249 C253 1.376 . S
C250 C248 1.394 . S
C250 C251 1.369 . S
C250 C254 1.531 . S
C251 C250 1.369 . S
C251 C252 1.410 1_556 S
C251 C259 1.503 1_556 S
C252 C251 1.410 1_554 S
C252 C253 1.392 . S
C252 C255 1.511 . S
C253 C249 1.376 . S
C253 C252 1.392 . S
C253 H265 0.929 . S
C254 C250 1.531 . S
C254 H266 0.960 . S
C254 H267 0.962 . S
C254 H268 0.960 . S
C255 C252 1.511 . S
C255 H269 0.961 . S
C255 H270 0.961 . S
C255 H271 0.961 . S
C256 C257 1.370 . S
C256 C258 1.363 . S
C256 H272 0.931 . S
C257 C256 1.370 . S
C257 C261 1.408 1_554 S
C258 C256 1.363 . S
C258 C259 1.370 . S
C258 C262 1.524 . S
C259 C251 1.503 1_554 S
C259 C258 1.370 . S
C259 C260 1.403 1_554 S
C260 C259 1.403 1_556 S
C260 C261 1.404 . S
C260 C263 1.539 . S
C261 C257 1.408 1_556 S
C261 C260 1.404 . S
C261 H273 0.930 . S
C262 C258 1.524 . S
C262 H274 0.956 . S
C262 H275 0.961 . S
C262 H276 0.961 . S
C263 C260 1.539 . S
C263 H277 0.958 . S
C263 H278 0.961 . S
C263 H279 0.960 . S
H264 C248 0.931 . S
H265 C253 0.929 . S
H266 C254 0.960 . S
H267 C254 0.962 . S
H268 C254 0.960 . S
H269 C255 0.961 . S
H270 C255 0.961 . S
H271 C255 0.961 . S
H272 C256 0.931 . S
H273 C261 0.930 . S
H274 C262 0.956 . S
H275 C262 0.961 . S
H276 C262 0.961 . S
H277 C263 0.958 . S
H278 C263 0.961 . S
H279 C263 0.960 . S
C280 C281 1.391 . S
C280 C282 1.394 . S
C280 H296 0.931 . S
C281 C280 1.391 . S
C281 C285 1.376 1_554 S
C282 C280 1.394 . S
C282 C283 1.369 . S
C282 C286 1.531 . S
C283 C282 1.369 . S
C283 C284 1.410 1_554 S
C283 C291 1.503 . S
C284 C283 1.410 1_556 S
C284 C285 1.392 . S
C284 C287 1.511 . S
C285 C281 1.376 1_556 S
C285 C284 1.392 . S
C285 H297 0.929 . S
C286 C282 1.531 . S
C286 H298 0.960 . S
C286 H299 0.962 . S
C286 H300 0.960 . S
C287 C284 1.511 . S
C287 H301 0.961 . S
C287 H302 0.961 . S
C287 H303 0.961 . S
C288 C289 1.370 1_556 S
C288 C290 1.363 . S
C288 H304 0.931 . S
C289 C288 1.370 1_554 S
C289 C293 1.408 . S
C290 C288 1.363 . S
C290 C291 1.370 1_556 S
C290 C294 1.524 . S
C291 C283 1.503 . S
C291 C290 1.370 1_554 S
C291 C292 1.403 . S
C292 C291 1.403 . S
C292 C293 1.404 . S
C292 C295 1.539 . S
C293 C289 1.408 . S
C293 C292 1.404 . S
C293 H305 0.930 . S
C294 C290 1.524 . S
C294 H306 0.956 . S
C294 H307 0.961 . S
C294 H308 0.961 . S
C295 C292 1.539 . S
C295 H309 0.958 . S
C295 H310 0.961 . S
C295 H311 0.960 . S
H296 C280 0.931 . S
H297 C285 0.929 . S
H298 C286 0.960 . S
H299 C286 0.962 . S
H300 C286 0.960 . S
H301 C287 0.961 . S
H302 C287 0.961 . S
H303 C287 0.961 . S
H304 C288 0.931 . S
H305 C293 0.930 . S
H306 C294 0.956 . S
H307 C294 0.961 . S
H308 C294 0.961 . S
H309 C295 0.958 . S
H310 C295 0.961 . S
H311 C295 0.960 . S
C312 C313 1.391 1_554 S
C312 C314 1.394 . S
C312 H328 0.931 . S
C313 C312 1.391 1_556 S
C313 C317 1.376 . S
C314 C312 1.394 . S
C314 C315 1.369 1_554 S
C314 C318 1.531 . S
C315 C314 1.369 1_556 S
C315 C316 1.410 . S
C315 C323 1.503 . S
C316 C315 1.410 . S
C316 C317 1.392 . S
C316 C319 1.511 . S
C317 C313 1.376 . S
C317 C316 1.392 . S
C317 H329 0.929 . S
C318 C314 1.531 . S
C318 H330 0.960 . S
C318 H331 0.962 . S
C318 H332 0.960 . S
C319 C316 1.511 . S
C319 H333 0.961 . S
C319 H334 0.961 . S
C319 H335 0.961 . S
C320 C321 1.370 1_554 S
C320 C322 1.363 . S
C320 H336 0.931 . S
C321 C320 1.370 1_556 S
C321 C325 1.408 . S
C322 C320 1.363 . S
C322 C323 1.370 1_554 S
C322 C326 1.524 . S
C323 C315 1.503 . S
C323 C322 1.370 1_556 S
C323 C324 1.403 . S
C324 C323 1.403 . S
C324 C325 1.404 . S
C324 C327 1.539 . S
C325 C321 1.408 . S
C325 C324 1.404 . S
C325 H337 0.930 . S
C326 C322 1.524 . S
C326 H338 0.956 . S
C326 H339 0.961 . S
C326 H340 0.961 . S
C327 C324 1.539 . S
C327 H341 0.958 . S
C327 H342 0.961 . S
C327 H343 0.960 . S
H328 C312 0.931 . S
H329 C317 0.929 . S
H330 C318 0.960 . S
H331 C318 0.962 . S
H332 C318 0.960 . S
H333 C319 0.961 . S
H334 C319 0.961 . S
H335 C319 0.961 . S
H336 C320 0.931 . S
H337 C325 0.930 . S
H338 C326 0.956 . S
H339 C326 0.961 . S
H340 C326 0.961 . S
H341 C327 0.958 . S
H342 C327 0.961 . S
H343 C327 0.960 . S
C344 C345 1.391 . S
C344 C346 1.394 . S
C344 H360 0.931 . S
C345 C344 1.391 . S
C345 C349 1.376 1_556 S
C346 C344 1.394 . S
C346 C347 1.369 1_556 S
C346 C350 1.531 . S
C347 C346 1.369 1_554 S
C347 C348 1.410 . S
C347 C355 1.503 . S
C348 C347 1.410 . S
C348 C349 1.392 . S
C348 C351 1.511 . S
C349 C345 1.376 1_554 S
C349 C348 1.392 . S
C349 H361 0.929 . S
C350 C346 1.531 . S
C350 H362 0.960 1_556 S
C350 H363 0.962 . S
C350 H364 0.960 1_556 S
C351 C348 1.511 . S
C351 H365 0.961 . S
C351 H366 0.961 . S
C351 H367 0.961 . S
C352 C353 1.370 . S
C352 C354 1.363 . S
C352 H368 0.931 . S
C353 C352 1.370 . S
C353 C357 1.408 1_556 S
C354 C352 1.363 . S
C354 C355 1.370 1_556 S
C354 C358 1.524 . S
C355 C347 1.503 . S
C355 C354 1.370 1_554 S
C355 C356 1.403 . S
C356 C355 1.403 . S
C356 C357 1.404 . S
C356 C359 1.539 . S
C357 C353 1.408 1_554 S
C357 C356 1.404 . S
C357 H369 0.930 . S
C358 C354 1.524 . S
C358 H370 0.956 . S
C358 H371 0.961 . S
C358 H372 0.961 . S
C359 C356 1.539 . S
C359 H373 0.958 . S
C359 H374 0.961 . S
C359 H375 0.960 . S
H360 C344 0.931 . S
H361 C349 0.929 . S
H362 C350 0.960 1_554 S
H363 C350 0.962 . S
H364 C350 0.960 1_554 S
H365 C351 0.961 . S
H366 C351 0.961 . S
H367 C351 0.961 . S
H368 C352 0.931 . S
H369 C357 0.930 . S
H370 C358 0.956 . S
H371 C358 0.961 . S
H372 C358 0.961 . S
H373 C359 0.958 . S
H374 C359 0.961 . S
H375 C359 0.960 . S
C376 C377 1.391 . S
C376 C378 1.394 . S
C376 H392 0.931 . S
C377 C376 1.391 . S
C377 C381 1.376 1_554 S
C378 C376 1.394 . S
C378 C379 1.369 . S
C378 C382 1.531 . S
C379 C378 1.369 . S
C379 C380 1.410 1_554 S
C379 C387 1.503 1_554 S
C380 C379 1.410 1_556 S
C380 C381 1.392 . S
C380 C383 1.511 . S
C381 C377 1.376 1_556 S
C381 C380 1.392 . S
C381 H393 0.929 . S
C382 C378 1.531 . S
C382 H394 0.960 . S
C382 H395 0.962 . S
C382 H396 0.960 . S
C383 C380 1.511 . S
C383 H397 0.961 . S
C383 H398 0.961 . S
C383 H399 0.961 . S
C384 C385 1.370 . S
C384 C386 1.363 . S
C384 H400 0.931 . S
C385 C384 1.370 . S
C385 C389 1.408 1_556 S
C386 C384 1.363 . S
C386 C387 1.370 . S
C386 C390 1.524 . S
C387 C379 1.503 1_556 S
C387 C386 1.370 . S
C387 C388 1.403 1_556 S
C388 C387 1.403 1_554 S
C388 C389 1.404 . S
C388 C391 1.539 . S
C389 C385 1.408 1_554 S
C389 C388 1.404 . S
C389 H401 0.930 . S
C390 C386 1.524 . S
C390 H402 0.956 . S
C390 H403 0.961 . S
C390 H404 0.961 . S
C391 C388 1.539 . S
C391 H405 0.958 . S
C391 H406 0.961 . S
C391 H407 0.960 . S
H392 C376 0.931 . S
H393 C381 0.929 . S
H394 C382 0.960 . S
H395 C382 0.962 . S
H396 C382 0.960 . S
H397 C383 0.961 . S
H398 C383 0.961 . S
H399 C383 0.961 . S
H400 C384 0.931 . S
H401 C389 0.930 . S
H402 C390 0.956 . S
H403 C390 0.961 . S
H404 C390 0.961 . S
H405 C391 0.958 . S
H406 C391 0.961 . S
H407 C391 0.960 . S
C121 C9 1.466 1_455 S
C129 C18 1.435 . S
C153 C58 1.415 . S
C161 C49 1.452 1_545 S
C185 C89 1.473 . S
C193 C98 1.431 . S
C217 C19 1.644 . S
C225 C86 1.651 . S
C249 C59 1.659 . S
C257 C6 1.656 . S
C281 C46 1.667 . S
C289 C90 1.665 1_554 S
C313 C10 1.633 . S
C321 C95 1.656 . S
C345 C15 1.648 . S
C353 C50 1.657 . S
C377 C99 1.646 . S
C385 C55 1.657 . S
