# Generated by pormake.
# Topology umq, (4)-cn, num edge types: 1
# Building blocks:
#     Node 0, Type 0, BuildingBlock: NAHDIM_clean_sbu_0, # of connection points: 4
#     Node 1, Type 0, BuildingBlock: NAHDIM_clean_sbu_0, # of connection points: 4
#     Node 2, Type 0, BuildingBlock: NAHDIM_clean_sbu_0, # of connection points: 4
#     Node 3, Type 0, BuildingBlock: NAHDIM_clean_sbu_0, # of connection points: 4
#     Node 4, Type 0, BuildingBlock: NAHDIM_clean_sbu_0, # of connection points: 4
#     Node 5, Type 0, BuildingBlock: NAHDIM_clean_sbu_0, # of connection points: 4
#     Node 6, Type 0, BuildingBlock: NAHDIM_clean_sbu_0, # of connection points: 4
#     Node 7, Type 0, BuildingBlock: NAHDIM_clean_sbu_0, # of connection points: 4
#     Node 8, Type 0, BuildingBlock: NAHDIM_clean_sbu_0, # of connection points: 4
#     Node 9, Type 0, BuildingBlock: NAHDIM_clean_sbu_0, # of connection points: 4
#     Node 10, Type 0, BuildingBlock: NAHDIM_clean_sbu_0, # of connection points: 4
#     Node 11, Type 0, BuildingBlock: NAHDIM_clean_sbu_0, # of connection points: 4
#     Node 12, Type 0, BuildingBlock: NAHDIM_clean_sbu_0, # of connection points: 4
#     Node 13, Type 0, BuildingBlock: NAHDIM_clean_sbu_0, # of connection points: 4
#     Node 14, Type 0, BuildingBlock: NAHDIM_clean_sbu_0, # of connection points: 4
#     Node 15, Type 0, BuildingBlock: NAHDIM_clean_sbu_0, # of connection points: 4
#     Node 16, Type 0, BuildingBlock: NAHDIM_clean_sbu_0, # of connection points: 4
#     Node 17, Type 0, BuildingBlock: NAHDIM_clean_sbu_0, # of connection points: 4
#     Node 18, Type 0, BuildingBlock: NAHDIM_clean_sbu_0, # of connection points: 4
#     Node 19, Type 0, BuildingBlock: NAHDIM_clean_sbu_0, # of connection points: 4
#     Node 20, Type 0, BuildingBlock: NAHDIM_clean_sbu_0, # of connection points: 4
#     Node 21, Type 0, BuildingBlock: NAHDIM_clean_sbu_0, # of connection points: 4
#     Node 22, Type 0, BuildingBlock: NAHDIM_clean_sbu_0, # of connection points: 4
#     Node 23, Type 0, BuildingBlock: NAHDIM_clean_sbu_0, # of connection points: 4
#     Node 24, Type 0, BuildingBlock: NAHDIM_clean_sbu_0, # of connection points: 4
#     Node 25, Type 0, BuildingBlock: NAHDIM_clean_sbu_0, # of connection points: 4
#     Node 26, Type 0, BuildingBlock: NAHDIM_clean_sbu_0, # of connection points: 4
#     Node 27, Type 0, BuildingBlock: NAHDIM_clean_sbu_0, # of connection points: 4
#     Node 28, Type 0, BuildingBlock: NAHDIM_clean_sbu_0, # of connection points: 4
#     Node 29, Type 0, BuildingBlock: NAHDIM_clean_sbu_0, # of connection points: 4
#     Node 30, Type 0, BuildingBlock: NAHDIM_clean_sbu_0, # of connection points: 4
#     Node 31, Type 0, BuildingBlock: NAHDIM_clean_sbu_0, # of connection points: 4
#     Edge 32, Type (0, 0), BuildingBlock: MIFKUJ_clean_linker_0, # of connection points: 2
#     Edge 33, Type (0, 0), BuildingBlock: MIFKUJ_clean_linker_0, # of connection points: 2
#     Edge 34, Type (0, 0), BuildingBlock: MIFKUJ_clean_linker_0, # of connection points: 2
#     Edge 35, Type (0, 0), BuildingBlock: MIFKUJ_clean_linker_0, # of connection points: 2
#     Edge 36, Type (0, 0), BuildingBlock: MIFKUJ_clean_linker_0, # of connection points: 2
#     Edge 37, Type (0, 0), BuildingBlock: MIFKUJ_clean_linker_0, # of connection points: 2
#     Edge 38, Type (0, 0), BuildingBlock: MIFKUJ_clean_linker_0, # of connection points: 2
#     Edge 39, Type (0, 0), BuildingBlock: MIFKUJ_clean_linker_0, # of connection points: 2
#     Edge 40, Type (0, 0), BuildingBlock: MIFKUJ_clean_linker_0, # of connection points: 2
#     Edge 41, Type (0, 0), BuildingBlock: MIFKUJ_clean_linker_0, # of connection points: 2
#     Edge 42, Type (0, 0), BuildingBlock: MIFKUJ_clean_linker_0, # of connection points: 2
#     Edge 43, Type (0, 0), BuildingBlock: MIFKUJ_clean_linker_0, # of connection points: 2
#     Edge 44, Type (0, 0), BuildingBlock: MIFKUJ_clean_linker_0, # of connection points: 2
#     Edge 45, Type (0, 0), BuildingBlock: MIFKUJ_clean_linker_0, # of connection points: 2
#     Edge 46, Type (0, 0), BuildingBlock: MIFKUJ_clean_linker_0, # of connection points: 2
#     Edge 47, Type (0, 0), BuildingBlock: MIFKUJ_clean_linker_0, # of connection points: 2
#     Edge 48, Type (0, 0), BuildingBlock: MIFKUJ_clean_linker_0, # of connection points: 2
#     Edge 49, Type (0, 0), BuildingBlock: MIFKUJ_clean_linker_0, # of connection points: 2
#     Edge 50, Type (0, 0), BuildingBlock: MIFKUJ_clean_linker_0, # of connection points: 2
#     Edge 51, Type (0, 0), BuildingBlock: MIFKUJ_clean_linker_0, # of connection points: 2
#     Edge 52, Type (0, 0), BuildingBlock: MIFKUJ_clean_linker_0, # of connection points: 2
#     Edge 53, Type (0, 0), BuildingBlock: MIFKUJ_clean_linker_0, # of connection points: 2
#     Edge 54, Type (0, 0), BuildingBlock: MIFKUJ_clean_linker_0, # of connection points: 2
#     Edge 55, Type (0, 0), BuildingBlock: MIFKUJ_clean_linker_0, # of connection points: 2
#     Edge 56, Type (0, 0), BuildingBlock: MIFKUJ_clean_linker_0, # of connection points: 2
#     Edge 57, Type (0, 0), BuildingBlock: MIFKUJ_clean_linker_0, # of connection points: 2
#     Edge 58, Type (0, 0), BuildingBlock: MIFKUJ_clean_linker_0, # of connection points: 2
#     Edge 59, Type (0, 0), BuildingBlock: MIFKUJ_clean_linker_0, # of connection points: 2
#     Edge 60, Type (0, 0), BuildingBlock: MIFKUJ_clean_linker_0, # of connection points: 2
#     Edge 61, Type (0, 0), BuildingBlock: MIFKUJ_clean_linker_0, # of connection points: 2
#     Edge 62, Type (0, 0), BuildingBlock: MIFKUJ_clean_linker_0, # of connection points: 2
#     Edge 63, Type (0, 0), BuildingBlock: MIFKUJ_clean_linker_0, # of connection points: 2
#     Edge 64, Type (0, 0), BuildingBlock: MIFKUJ_clean_linker_0, # of connection points: 2
#     Edge 65, Type (0, 0), BuildingBlock: MIFKUJ_clean_linker_0, # of connection points: 2
#     Edge 66, Type (0, 0), BuildingBlock: MIFKUJ_clean_linker_0, # of connection points: 2
#     Edge 67, Type (0, 0), BuildingBlock: MIFKUJ_clean_linker_0, # of connection points: 2
#     Edge 68, Type (0, 0), BuildingBlock: MIFKUJ_clean_linker_0, # of connection points: 2
#     Edge 69, Type (0, 0), BuildingBlock: MIFKUJ_clean_linker_0, # of connection points: 2
#     Edge 70, Type (0, 0), BuildingBlock: MIFKUJ_clean_linker_0, # of connection points: 2
#     Edge 71, Type (0, 0), BuildingBlock: MIFKUJ_clean_linker_0, # of connection points: 2
#     Edge 72, Type (0, 0), BuildingBlock: MIFKUJ_clean_linker_0, # of connection points: 2
#     Edge 73, Type (0, 0), BuildingBlock: MIFKUJ_clean_linker_0, # of connection points: 2
#     Edge 74, Type (0, 0), BuildingBlock: MIFKUJ_clean_linker_0, # of connection points: 2
#     Edge 75, Type (0, 0), BuildingBlock: MIFKUJ_clean_linker_0, # of connection points: 2
#     Edge 76, Type (0, 0), BuildingBlock: MIFKUJ_clean_linker_0, # of connection points: 2
#     Edge 77, Type (0, 0), BuildingBlock: MIFKUJ_clean_linker_0, # of connection points: 2
#     Edge 78, Type (0, 0), BuildingBlock: MIFKUJ_clean_linker_0, # of connection points: 2
#     Edge 79, Type (0, 0), BuildingBlock: MIFKUJ_clean_linker_0, # of connection points: 2
#     Edge 80, Type (0, 0), BuildingBlock: MIFKUJ_clean_linker_0, # of connection points: 2
#     Edge 81, Type (0, 0), BuildingBlock: MIFKUJ_clean_linker_0, # of connection points: 2
#     Edge 82, Type (0, 0), BuildingBlock: MIFKUJ_clean_linker_0, # of connection points: 2
#     Edge 83, Type (0, 0), BuildingBlock: MIFKUJ_clean_linker_0, # of connection points: 2
#     Edge 84, Type (0, 0), BuildingBlock: MIFKUJ_clean_linker_0, # of connection points: 2
#     Edge 85, Type (0, 0), BuildingBlock: MIFKUJ_clean_linker_0, # of connection points: 2
#     Edge 86, Type (0, 0), BuildingBlock: MIFKUJ_clean_linker_0, # of connection points: 2
#     Edge 87, Type (0, 0), BuildingBlock: MIFKUJ_clean_linker_0, # of connection points: 2
#     Edge 88, Type (0, 0), BuildingBlock: MIFKUJ_clean_linker_0, # of connection points: 2
#     Edge 89, Type (0, 0), BuildingBlock: MIFKUJ_clean_linker_0, # of connection points: 2
#     Edge 90, Type (0, 0), BuildingBlock: MIFKUJ_clean_linker_0, # of connection points: 2
#     Edge 91, Type (0, 0), BuildingBlock: MIFKUJ_clean_linker_0, # of connection points: 2
#     Edge 92, Type (0, 0), BuildingBlock: MIFKUJ_clean_linker_0, # of connection points: 2
#     Edge 93, Type (0, 0), BuildingBlock: MIFKUJ_clean_linker_0, # of connection points: 2
#     Edge 94, Type (0, 0), BuildingBlock: MIFKUJ_clean_linker_0, # of connection points: 2
#     Edge 95, Type (0, 0), BuildingBlock: MIFKUJ_clean_linker_0, # of connection points: 2
# Relax obj value: 0.091
# Max RMSD: 0.103
# Mean RMSD: 0.103
data_MOF--net-umq--node1-NAHDIM_clean_sbu_0--edge1-MIFKUJ_clean_linker_0
_symmetry_space_group_name_H-M    P1
_symmetry_Int_Tables_number       1
_symmetry_cell_setting            triclinic
loop_
_symmetry_equiv_pos_as_xyz
'x, y, z'
_cell_length_a     86.853551
_cell_length_b     86.896203
_cell_length_c     56.186215
_cell_angle_alpha  90.004333
_cell_angle_beta   89.996282
_cell_angle_gamma 89.985806
loop_
_atom_site_label
_atom_site_type_symbol
_atom_site_fract_x
_atom_site_fract_y
_atom_site_fract_z
_atom_type_partial_charge
C0 C 0.23005 0.06549 0.18167 0.0
O1 O 0.21715 0.07068 0.17243 0.0
O2 O 0.23287 0.09326 0.13304 0.0
Zn3 Zn 0.23909 0.09505 0.16739 0.0
O4 O 0.22285 0.10611 0.18612 0.0
C5 C 0.25709 0.12178 0.16497 0.0
O6 O 0.24337 0.12716 0.1597 0.0
O7 O 0.24187 0.07408 0.18139 0.0
C8 C 0.22566 0.10954 0.20766 0.0
O9 O 0.23884 0.10529 0.21708 0.0
C10 C 0.22301 0.10218 0.12359 0.0
O11 O 0.21621 0.11267 0.13674 0.0
O12 O 0.25858 0.1075 0.16926 0.0
C13 C 0.93264 0.2467 0.1861 0.0
O14 O 0.93247 0.25006 0.1633 0.0
O15 O 0.90751 0.23357 0.14236 0.0
Zn16 Zn 0.90151 0.23797 0.17619 0.0
O17 O 0.88934 0.22029 0.18966 0.0
C18 C 0.87918 0.25941 0.15932 0.0
O19 O 0.8789 0.24959 0.14156 0.0
O20 O 0.92052 0.24142 0.19578 0.0
C21 C 0.87944 0.21321 0.17709 0.0
O22 O 0.87739 0.21734 0.15483 0.0
C23 C 0.91222 0.22065 0.13466 0.0
O24 O 0.91353 0.20901 0.14943 0.0
O25 O 0.88825 0.25698 0.17667 0.0
C26 C 0.76916 0.9275 0.18356 0.0
O27 O 0.78231 0.92129 0.17715 0.0
O28 O 0.76536 0.90622 0.12547 0.0
Zn29 Zn 0.75858 0.90138 0.15885 0.0
O30 O 0.77381 0.88757 0.17525 0.0
C31 C 0.73811 0.87842 0.14373 0.0
O32 O 0.75035 0.87524 0.13087 0.0
O33 O 0.75669 0.92092 0.17755 0.0
C34 C 0.76932 0.88052 0.19381 0.0
O35 O 0.75516 0.88263 0.20138 0.0
C36 C 0.779 0.90417 0.11791 0.0
O37 O 0.78955 0.89885 0.1325 0.0
O38 O 0.73846 0.89001 0.1575 0.0
C39 C 0.07355 0.76692 0.19613 0.0
O40 O 0.08208 0.77939 0.19546 0.0
O41 O 0.0951 0.75879 0.13412 0.0
Zn42 Zn 0.0986 0.75466 0.16881 0.0
O43 O 0.11257 0.77063 0.18285 0.0
C44 C 0.10469 0.72241 0.16045 0.0
O45 O 0.09323 0.72369 0.14531 0.0
O46 O 0.07832 0.75477 0.18591 0.0
C47 C 0.12496 0.77463 0.17258 0.0
O48 O 0.12861 0.76831 0.15209 0.0
C49 C 0.09152 0.772 0.12616 0.0
O50 O 0.09012 0.78357 0.14105 0.0
O51 O 0.10876 0.73408 0.17253 0.0
C52 C 0.23029 0.92088 0.30537 0.0
O53 O 0.2173 0.91333 0.30812 0.0
O54 O 0.23662 0.89756 0.36447 0.0
Zn55 Zn 0.2419 0.8947 0.33002 0.0
O56 O 0.22633 0.88119 0.31391 0.0
C57 C 0.27304 0.88627 0.34292 0.0
O58 O 0.27088 0.8961 0.36037 0.0
O59 O 0.24265 0.91515 0.31359 0.0
C60 C 0.22899 0.87717 0.29256 0.0
O61 O 0.24163 0.88203 0.28213 0.0
C62 C 0.22301 0.89788 0.37273 0.0
O63 O 0.21128 0.89639 0.35816 0.0
O64 O 0.2624 0.88418 0.32775 0.0
C65 C 0.07298 0.24866 0.32053 0.0
O66 O 0.07279 0.24992 0.34382 0.0
O67 O 0.1009 0.23829 0.36247 0.0
Zn68 Zn 0.10534 0.24279 0.32807 0.0
O69 O 0.11715 0.22527 0.31375 0.0
C70 C 0.1157 0.27399 0.33699 0.0
O71 O 0.10386 0.27449 0.35154 0.0
O72 O 0.08561 0.24575 0.31002 0.0
C73 C 0.12957 0.22084 0.32353 0.0
O74 O 0.13429 0.22776 0.34301 0.0
C75 C 0.09835 0.22468 0.36975 0.0
O76 O 0.09874 0.21322 0.35452 0.0
O77 O 0.11834 0.26176 0.32532 0.0
C78 C 0.77109 0.06857 0.31676 0.0
O79 O 0.78439 0.07431 0.32349 0.0
O80 O 0.76745 0.09414 0.37015 0.0
Zn81 Zn 0.76115 0.09693 0.33594 0.0
O82 O 0.77729 0.10883 0.31818 0.0
C83 C 0.74113 0.12307 0.33535 0.0
O84 O 0.75438 0.13033 0.33585 0.0
O85 O 0.7589 0.07628 0.32053 0.0
C86 C 0.7758 0.11047 0.29583 0.0
O87 O 0.76382 0.10431 0.28517 0.0
C88 C 0.77194 0.1056 0.38236 0.0
O89 O 0.77295 0.11916 0.37221 0.0
O90 O 0.74099 0.10845 0.33477 0.0
C91 C 0.92615 0.76975 0.31186 0.0
O92 O 0.92147 0.78204 0.32339 0.0
O93 O 0.89985 0.76284 0.36184 0.0
Zn94 Zn 0.89685 0.75873 0.32694 0.0
O95 O 0.88379 0.77509 0.31189 0.0
C96 C 0.89026 0.72664 0.3348 0.0
O97 O 0.9019 0.72772 0.34964 0.0
O98 O 0.91739 0.75807 0.31085 0.0
C99 C 0.86968 0.77617 0.31759 0.0
O100 O 0.86405 0.76674 0.33367 0.0
C101 C 0.89838 0.77601 0.3714 0.0
O102 O 0.89458 0.78787 0.35814 0.0
O103 O 0.88619 0.73842 0.32297 0.0
C104 C 0.75775 0.91594 0.78355 0.0
O105 O 0.75998 0.90295 0.7721 0.0
O106 O 0.76802 0.90294 0.85836 0.0
Zn107 Zn 0.76139 0.89687 0.82541 0.0
O108 O 0.77749 0.88351 0.80966 0.0
C109 C 0.74177 0.87358 0.84307 0.0
O110 O 0.75432 0.87077 0.8554 0.0
O111 O 0.75779 0.91597 0.80616 0.0
C112 C 0.77333 0.87204 0.79717 0.0
O113 O 0.75858 0.86929 0.79427 0.0
C114 C 0.78157 0.90137 0.86654 0.0
O115 O 0.79242 0.89575 0.85278 0.0
O116 O 0.74172 0.88482 0.8286 0.0
C117 C 0.06823 0.74513 0.82173 0.0
O118 O 0.0684 0.74102 0.84423 0.0
O119 O 0.09428 0.75993 0.86545 0.0
Zn120 Zn 0.09933 0.75521 0.83142 0.0
O121 O 0.11091 0.77254 0.8161 0.0
C122 C 0.12601 0.73815 0.84112 0.0
O123 O 0.12939 0.75137 0.85119 0.0
O124 O 0.08015 0.75125 0.81268 0.0
C125 C 0.11637 0.76976 0.79557 0.0
O126 O 0.11384 0.75622 0.78591 0.0
C127 C 0.09031 0.77302 0.87341 0.0
O128 O 0.08918 0.78472 0.8587 0.0
O129 O 0.11302 0.73663 0.83099 0.0
C130 C 0.22481 0.07477 0.806 0.0
O131 O 0.21192 0.08062 0.81425 0.0
O132 O 0.23103 0.10066 0.85763 0.0
Zn133 Zn 0.23631 0.10326 0.82311 0.0
O134 O 0.22035 0.11622 0.8067 0.0
C135 C 0.26725 0.11274 0.8361 0.0
O136 O 0.26469 0.1045 0.8553 0.0
O137 O 0.23715 0.08254 0.80773 0.0
C138 C 0.22405 0.12375 0.78818 0.0
O139 O 0.2382 0.12275 0.78005 0.0
C140 C 0.22379 0.11085 0.86936 0.0
O141 O 0.21929 0.12348 0.85855 0.0
O142 O 0.25688 0.11363 0.8202 0.0
C143 C 0.91674 0.22978 0.81341 0.0
O144 O 0.90823 0.21743 0.81629 0.0
O145 O 0.89894 0.23885 0.877 0.0
Zn146 Zn 0.89352 0.24342 0.84307 0.0
O147 O 0.87822 0.2278 0.83112 0.0
C148 C 0.88854 0.2758 0.8539 0.0
O149 O 0.89919 0.27358 0.87015 0.0
O150 O 0.91266 0.24231 0.82323 0.0
C151 C 0.86467 0.23139 0.82463 0.0
O152 O 0.86019 0.2458 0.8261 0.0
C153 C 0.90134 0.22518 0.88414 0.0
O154 O 0.90004 0.21373 0.86901 0.0
O155 O 0.88455 0.26468 0.84056 0.0
C156 C 0.75005 0.06531 0.67749 0.0
O157 O 0.74604 0.06836 0.65545 0.0
O158 O 0.76037 0.10014 0.64601 0.0
Zn159 Zn 0.75435 0.09827 0.6804 0.0
O160 O 0.7691 0.11065 0.70017 0.0
C161 C 0.72308 0.10645 0.6683 0.0
O162 O 0.72612 0.09867 0.6488 0.0
O163 O 0.75408 0.07624 0.69117 0.0
C164 C 0.76735 0.12517 0.7002 0.0
O165 O 0.75628 0.13123 0.6873 0.0
C166 C 0.77078 0.09218 0.63596 0.0
O167 O 0.77844 0.08191 0.6484 0.0
O168 O 0.73327 0.10738 0.68446 0.0
C169 C 0.93328 0.74787 0.67568 0.0
O170 O 0.93484 0.75337 0.65404 0.0
O171 O 0.90589 0.7561 0.63136 0.0
Zn172 Zn 0.90075 0.74927 0.66464 0.0
O173 O 0.88814 0.76555 0.68124 0.0
C174 C 0.87691 0.73002 0.64764 0.0
O175 O 0.87422 0.74249 0.63507 0.0
O176 O 0.91988 0.74516 0.68371 0.0
C177 C 0.87652 0.762 0.69383 0.0
O178 O 0.87284 0.74744 0.6965 0.0
C179 C 0.9042 0.76981 0.62393 0.0
O180 O 0.89936 0.78048 0.63871 0.0
O181 O 0.88822 0.72991 0.66197 0.0
C182 C 0.22729 0.92626 0.69376 0.0
O183 O 0.21429 0.91927 0.68865 0.0
O184 O 0.23336 0.90405 0.63589 0.0
Zn185 Zn 0.23882 0.89998 0.67007 0.0
O186 O 0.22277 0.88661 0.68527 0.0
C187 C 0.26418 0.88208 0.65273 0.0
O188 O 0.25631 0.88331 0.63286 0.0
O189 O 0.23991 0.92005 0.68756 0.0
C190 C 0.2199 0.8733 0.67709 0.0
O191 O 0.22745 0.8684 0.65829 0.0
C192 C 0.21995 0.90366 0.62691 0.0
O193 O 0.20802 0.90106 0.64072 0.0
O194 O 0.25915 0.88866 0.6714 0.0
C195 C 0.05892 0.22698 0.68326 0.0
O196 O 0.06436 0.21441 0.67334 0.0
O197 O 0.08301 0.23342 0.63019 0.0
Zn198 Zn 0.08669 0.23925 0.66433 0.0
O199 O 0.10119 0.22423 0.67975 0.0
C200 C 0.10315 0.26574 0.6475 0.0
O201 O 0.1028 0.25792 0.6275 0.0
O202 O 0.06665 0.23936 0.68181 0.0
C203 C 0.11532 0.22425 0.67384 0.0
O204 O 0.12005 0.23389 0.65739 0.0
C205 C 0.0855 0.22015 0.62148 0.0
O206 O 0.09031 0.20902 0.63543 0.0
O207 O 0.0965 0.26025 0.66578 0.0
C208 C 0.72123 0.5707 0.68357 0.0
O209 O 0.70787 0.57625 0.67669 0.0
O210 O 0.72537 0.59731 0.63111 0.0
Zn211 Zn 0.73126 0.59957 0.66554 0.0
O212 O 0.71567 0.61201 0.68356 0.0
C213 C 0.75189 0.62379 0.6564 0.0
O214 O 0.73925 0.62914 0.64658 0.0
O215 O 0.73328 0.57873 0.68046 0.0
C216 C 0.71656 0.61245 0.70612 0.0
O217 O 0.72742 0.60453 0.71685 0.0
C218 C 0.71609 0.60631 0.62052 0.0
O219 O 0.70908 0.61715 0.63271 0.0
O220 O 0.75151 0.61075 0.66659 0.0
C221 C 0.43041 0.7453 0.68122 0.0
O222 O 0.43161 0.74619 0.65796 0.0
O223 O 0.40407 0.7345 0.637 0.0
Zn224 Zn 0.39833 0.73987 0.67066 0.0
O225 O 0.38536 0.72311 0.68488 0.0
C226 C 0.37894 0.7639 0.65219 0.0
O227 O 0.38019 0.75575 0.6326 0.0
O228 O 0.41733 0.74272 0.69052 0.0
C229 C 0.37313 0.71869 0.67453 0.0
O230 O 0.36927 0.72497 0.65412 0.0
C231 C 0.40627 0.72091 0.62937 0.0
O232 O 0.40503 0.70925 0.64411 0.0
O233 O 0.38592 0.75945 0.67085 0.0
C234 C 0.25969 0.42416 0.68788 0.0
O235 O 0.27251 0.41689 0.68259 0.0
O236 O 0.25185 0.39781 0.63302 0.0
Zn237 Zn 0.24746 0.39683 0.66816 0.0
O238 O 0.26337 0.38407 0.68503 0.0
C239 C 0.22664 0.37318 0.6606 0.0
O240 O 0.23872 0.36873 0.64831 0.0
O241 O 0.24689 0.41785 0.68294 0.0
C242 C 0.2753 0.37856 0.6751 0.0
O243 O 0.27784 0.38136 0.65247 0.0
C244 C 0.2562 0.40939 0.62098 0.0
O245 O 0.25864 0.42259 0.63172 0.0
O246 O 0.22728 0.38585 0.67186 0.0
C247 C 0.57344 0.26907 0.68326 0.0
O248 O 0.57835 0.28064 0.67025 0.0
O249 O 0.60053 0.26025 0.63532 0.0
Zn250 Zn 0.60267 0.25628 0.6704 0.0
O251 O 0.61686 0.27173 0.6854 0.0
C252 C 0.60998 0.22442 0.66043 0.0
O253 O 0.6019 0.22687 0.64103 0.0
O254 O 0.58199 0.25734 0.68589 0.0
C255 C 0.63132 0.26981 0.68376 0.0
O256 O 0.63662 0.25789 0.6719 0.0
C257 C 0.6042 0.27282 0.62525 0.0
O258 O 0.60969 0.28418 0.63813 0.0
O259 O 0.61155 0.23522 0.67548 0.0
C260 C 0.73235 0.42524 0.80407 0.0
O261 O 0.71996 0.41722 0.80915 0.0
O262 O 0.74135 0.4022 0.8611 0.0
Zn263 Zn 0.7467 0.39961 0.82658 0.0
O264 O 0.73196 0.3847 0.8111 0.0
C265 C 0.77883 0.39503 0.83904 0.0
O266 O 0.77602 0.40553 0.8553 0.0
O267 O 0.74546 0.41999 0.80997 0.0
C268 C 0.73654 0.37226 0.80149 0.0
O269 O 0.75128 0.36891 0.80169 0.0
C270 C 0.72801 0.3999 0.86968 0.0
O271 O 0.71672 0.39585 0.85544 0.0
O272 O 0.76821 0.3912 0.82466 0.0
C273 C 0.56539 0.74919 0.82811 0.0
O274 O 0.56476 0.75161 0.85117 0.0
O275 O 0.59109 0.73653 0.87219 0.0
Zn276 Zn 0.59694 0.74114 0.83837 0.0
O277 O 0.6088 0.72358 0.82397 0.0
C278 C 0.62177 0.76026 0.85233 0.0
O279 O 0.6236 0.74885 0.8674 0.0
O280 O 0.57799 0.74488 0.81877 0.0
C281 C 0.61723 0.71445 0.83589 0.0
O282 O 0.61809 0.716 0.85911 0.0
C283 C 0.58459 0.72415 0.87881 0.0
O284 O 0.58147 0.71347 0.86298 0.0
O285 O 0.61057 0.75982 0.83779 0.0
C286 C 0.26993 0.56795 0.81297 0.0
O287 O 0.2836 0.57347 0.81827 0.0
O288 O 0.26823 0.59283 0.86839 0.0
Zn289 Zn 0.26141 0.59599 0.83453 0.0
O290 O 0.27708 0.608 0.81603 0.0
C291 C 0.24312 0.6217 0.84457 0.0
O292 O 0.25641 0.62585 0.85371 0.0
O293 O 0.25806 0.57568 0.81854 0.0
C294 C 0.27368 0.61209 0.79497 0.0
O295 O 0.26035 0.60793 0.786 0.0
C296 C 0.27895 0.60072 0.87777 0.0
O297 O 0.28645 0.61075 0.86469 0.0
O298 O 0.24199 0.60853 0.83488 0.0
C299 C 0.42329 0.26656 0.78986 0.0
O300 O 0.41428 0.2787 0.78939 0.0
O301 O 0.3982 0.25876 0.84836 0.0
Zn302 Zn 0.39723 0.2537 0.81358 0.0
O303 O 0.38373 0.26892 0.79674 0.0
C304 C 0.38893 0.22262 0.82604 0.0
O305 O 0.39732 0.22557 0.84496 0.0
O306 O 0.41845 0.25423 0.79948 0.0
C307 C 0.37149 0.2741 0.80616 0.0
O308 O 0.36753 0.26938 0.82752 0.0
C309 C 0.40143 0.27194 0.85674 0.0
O310 O 0.40455 0.28331 0.8421 0.0
O311 O 0.38772 0.23279 0.80989 0.0
C312 C 0.26107 0.42654 0.31095 0.0
O313 O 0.25705 0.42617 0.33348 0.0
O314 O 0.26794 0.39753 0.35344 0.0
Zn315 Zn 0.26599 0.394 0.31808 0.0
O316 O 0.28375 0.38147 0.30553 0.0
C317 C 0.23369 0.38772 0.32067 0.0
O318 O 0.23384 0.40068 0.3327 0.0
O319 O 0.26537 0.4142 0.3008 0.0
C320 C 0.29136 0.37204 0.31822 0.0
O321 O 0.2878 0.37037 0.34078 0.0
C322 C 0.26256 0.38768 0.36796 0.0
O323 O 0.25636 0.37499 0.35963 0.0
O324 O 0.24622 0.38264 0.312 0.0
C325 C 0.57233 0.26336 0.30285 0.0
O326 O 0.57877 0.27666 0.30784 0.0
O327 O 0.59272 0.25975 0.36282 0.0
Zn328 Zn 0.59793 0.2531 0.32955 0.0
O329 O 0.61174 0.26864 0.31361 0.0
C330 C 0.61712 0.22959 0.34945 0.0
O331 O 0.61742 0.23932 0.36733 0.0
O332 O 0.57854 0.25109 0.31052 0.0
C333 C 0.62531 0.27125 0.32102 0.0
O334 O 0.63044 0.26376 0.3397 0.0
C335 C 0.59487 0.27317 0.37119 0.0
O336 O 0.60019 0.28408 0.35725 0.0
O337 O 0.60913 0.23278 0.33113 0.0
C338 C 0.73566 0.5703 0.31064 0.0
O339 O 0.72303 0.57596 0.32007 0.0
O340 O 0.74051 0.59985 0.35665 0.0
Zn341 Zn 0.74611 0.6003 0.32197 0.0
O342 O 0.73027 0.61174 0.30271 0.0
C343 C 0.77778 0.60803 0.33157 0.0
O344 O 0.77649 0.59707 0.34755 0.0
O345 O 0.74761 0.57871 0.30962 0.0
C346 C 0.71638 0.61379 0.30906 0.0
O347 O 0.71161 0.60824 0.32952 0.0
C348 C 0.73753 0.61214 0.36798 0.0
O349 O 0.73785 0.62537 0.35667 0.0
O350 O 0.76634 0.61116 0.31835 0.0
C351 C 0.43293 0.74318 0.32576 0.0
O352 O 0.43412 0.74284 0.34906 0.0
O353 O 0.40474 0.7349 0.36934 0.0
Zn354 Zn 0.40029 0.73971 0.33507 0.0
O355 O 0.38706 0.72314 0.3208 0.0
C356 C 0.3902 0.77056 0.3477 0.0
O357 O 0.40033 0.76928 0.36496 0.0
O358 O 0.41975 0.74188 0.31617 0.0
C359 C 0.37271 0.72349 0.32509 0.0
O360 O 0.36723 0.73428 0.33913 0.0
C361 C 0.40602 0.72126 0.37725 0.0
O362 O 0.40449 0.70961 0.36254 0.0
O363 O 0.38856 0.75956 0.33303 0.0
C364 C 0.256 0.56874 0.18076 0.0
O365 O 0.26134 0.56952 0.15892 0.0
O366 O 0.25817 0.59977 0.14093 0.0
Zn367 Zn 0.25222 0.60171 0.17536 0.0
O368 O 0.2679 0.61475 0.19257 0.0
C369 C 0.21997 0.60734 0.16493 0.0
O370 O 0.22153 0.59564 0.15032 0.0
O371 O 0.25141 0.58095 0.19099 0.0
C372 C 0.26421 0.62742 0.20236 0.0
O373 O 0.24987 0.63215 0.20124 0.0
C374 C 0.26453 0.61087 0.12999 0.0
O375 O 0.26728 0.62375 0.14148 0.0
O376 O 0.23142 0.61165 0.17732 0.0
C377 C 0.43217 0.26215 0.16769 0.0
O378 O 0.42668 0.27543 0.16042 0.0
O379 O 0.40271 0.2584 0.11874 0.0
Zn380 Zn 0.40234 0.25335 0.15358 0.0
O381 O 0.39251 0.27044 0.17215 0.0
C382 C 0.37513 0.2362 0.15422 0.0
O383 O 0.37015 0.24977 0.14732 0.0
O384 O 0.42374 0.25025 0.16607 0.0
C385 C 0.39138 0.2687 0.19453 0.0
O386 O 0.39685 0.25609 0.20429 0.0
C387 C 0.40297 0.27202 0.11048 0.0
O388 O 0.40325 0.28375 0.12521 0.0
O389 O 0.38942 0.23443 0.15822 0.0
C390 C 0.72965 0.42333 0.19441 0.0
O391 O 0.71619 0.41692 0.19048 0.0
O392 O 0.73509 0.40109 0.13445 0.0
Zn393 Zn 0.73979 0.39689 0.16882 0.0
O394 O 0.7235 0.38373 0.18396 0.0
C395 C 0.76079 0.37365 0.15626 0.0
O396 O 0.7492 0.37037 0.1421 0.0
O397 O 0.74172 0.41677 0.18664 0.0
C398 C 0.72676 0.37763 0.20388 0.0
O399 O 0.74029 0.38037 0.21345 0.0
C400 C 0.72223 0.3986 0.12438 0.0
O401 O 0.71063 0.39341 0.13705 0.0
O402 O 0.75968 0.38517 0.17009 0.0
C403 C 0.56835 0.75032 0.18039 0.0
O404 O 0.56786 0.75354 0.15756 0.0
O405 O 0.59271 0.73567 0.13591 0.0
Zn406 Zn 0.59926 0.74063 0.16929 0.0
O407 O 0.61072 0.72288 0.18386 0.0
C408 C 0.62254 0.76066 0.1514 0.0
O409 O 0.62278 0.75016 0.1346 0.0
O410 O 0.58066 0.74493 0.18929 0.0
C411 C 0.62057 0.71497 0.17248 0.0
O412 O 0.62335 0.71821 0.15005 0.0
C413 C 0.5872 0.72284 0.12922 0.0
O414 O 0.58551 0.71168 0.14478 0.0
O415 O 0.61312 0.7592 0.16857 0.0
H416 H 0.38149 0.20623 0.1661 0.0
H417 H 0.36305 0.18513 0.17113 0.0
H418 H 0.3257 0.21604 0.15448 0.0
H419 H 0.34393 0.23712 0.1496 0.0
H420 H 0.31924 0.19829 0.19297 0.0
H421 H 0.33922 0.1912 0.1133 0.0
H422 H 0.35966 0.18729 0.08343 0.0
H423 H 0.37321 0.14539 0.11812 0.0
H424 H 0.35297 0.14917 0.1484 0.0
H425 H 0.25705 0.15274 0.1577 0.0
H426 H 0.27884 0.17033 0.15931 0.0
H427 H 0.30913 0.13254 0.17629 0.0
H428 H 0.28728 0.1147 0.17443 0.0
H429 H 0.32134 0.15154 0.14234 0.0
H430 H 0.29908 0.15719 0.21935 0.0
H431 H 0.27812 0.161 0.24835 0.0
H432 H 0.26864 0.20553 0.21866 0.0
H433 H 0.2894 0.2019 0.18923 0.0
C434 C 0.36934 0.20852 0.16354 0.0
C435 C 0.36417 0.22334 0.15738 0.0
C436 C 0.35884 0.19645 0.16636 0.0
C437 C 0.34302 0.19902 0.16305 0.0
C438 C 0.33785 0.21383 0.15717 0.0
C439 C 0.34831 0.22585 0.15428 0.0
C440 C 0.33173 0.18635 0.16549 0.0
C441 C 0.31965 0.1881 0.18183 0.0
C442 C 0.33256 0.17285 0.15145 0.0
C443 C 0.34472 0.17057 0.13327 0.0
C444 C 0.34665 0.18123 0.11468 0.0
C445 C 0.35818 0.17902 0.09765 0.0
C446 C 0.36776 0.16613 0.09892 0.0
C447 C 0.36581 0.15539 0.11719 0.0
C448 C 0.35431 0.15756 0.13428 0.0
C449 C 0.26832 0.14812 0.16181 0.0
C450 C 0.27043 0.13232 0.16602 0.0
C451 C 0.28076 0.15822 0.16283 0.0
C452 C 0.29556 0.15277 0.16826 0.0
C453 C 0.29778 0.13697 0.17219 0.0
C454 C 0.28529 0.12682 0.17117 0.0
C455 C 0.30863 0.16368 0.1694 0.0
C456 C 0.32106 0.1616 0.15377 0.0
C457 C 0.30813 0.17689 0.18409 0.0
C458 C 0.29575 0.17922 0.20197 0.0
C459 C 0.29247 0.16776 0.2189 0.0
C460 C 0.28063 0.16989 0.23543 0.0
C461 C 0.27204 0.18348 0.23532 0.0
C462 C 0.2753 0.195 0.21872 0.0
C463 C 0.28712 0.19292 0.20213 0.0
H464 H 0.26287 0.18511 0.24812 0.0
H465 H 0.37668 0.16444 0.08571 0.0
H466 H 0.85676 0.26612 0.12701 0.0
H467 H 0.83898 0.28779 0.12736 0.0
H468 H 0.86016 0.30497 0.19155 0.0
H469 H 0.87787 0.28302 0.19163 0.0
H470 H 0.82975 0.30585 0.19518 0.0
H471 H 0.8663 0.3227 0.13761 0.0
H472 H 0.8829 0.32083 0.10213 0.0
H473 H 0.84307 0.31491 0.05782 0.0
H474 H 0.82623 0.31652 0.09307 0.0
H475 H 0.7853 0.37494 0.18689 0.0
H476 H 0.80762 0.35772 0.18806 0.0
H477 H 0.78981 0.33284 0.1276 0.0
H478 H 0.76756 0.34997 0.12622 0.0
H479 H 0.82091 0.33844 0.12395 0.0
H480 H 0.78491 0.31889 0.18241 0.0
H481 H 0.76837 0.32083 0.21797 0.0
H482 H 0.80773 0.33224 0.26071 0.0
H483 H 0.82448 0.33058 0.22531 0.0
C484 C 0.85773 0.27454 0.14115 0.0
C485 C 0.86876 0.27286 0.15927 0.0
C486 C 0.84759 0.28698 0.14125 0.0
C487 C 0.84839 0.29814 0.15927 0.0
C488 C 0.85939 0.29652 0.17741 0.0
C489 C 0.8695 0.284 0.17741 0.0
C490 C 0.83731 0.31112 0.15955 0.0
C491 C 0.82804 0.31319 0.17977 0.0
C492 C 0.83492 0.32054 0.13933 0.0
C493 C 0.845 0.31963 0.11803 0.0
C494 C 0.86108 0.32089 0.12032 0.0
C495 C 0.87054 0.3199 0.10024 0.0
C496 C 0.86405 0.31773 0.07774 0.0
C497 C 0.84808 0.31658 0.07526 0.0
C498 C 0.83857 0.31756 0.09528 0.0
C499 C 0.78619 0.36586 0.17377 0.0
C500 C 0.77463 0.36376 0.15653 0.0
C501 C 0.79891 0.35602 0.1745 0.0
C502 C 0.80028 0.34395 0.15802 0.0
C503 C 0.78896 0.34209 0.14046 0.0
C504 C 0.77622 0.35186 0.13978 0.0
C505 C 0.81323 0.33292 0.15936 0.0
C506 C 0.82281 0.33123 0.13944 0.0
C507 C 0.81595 0.32389 0.17988 0.0
C508 C 0.80591 0.32479 0.20117 0.0
C509 C 0.79001 0.32194 0.19936 0.0
C510 C 0.78061 0.32296 0.21949 0.0
C511 C 0.78699 0.3267 0.24157 0.0
C512 C 0.8028 0.32938 0.24358 0.0
C513 C 0.81225 0.32839 0.2235 0.0
H514 H 0.77968 0.32749 0.25713 0.0
H515 H 0.87139 0.31695 0.06222 0.0
H516 H 0.62353 0.78586 0.18073 0.0
H517 H 0.64207 0.80709 0.17965 0.0
H518 H 0.66462 0.78622 0.11935 0.0
H519 H 0.64621 0.76501 0.12026 0.0
H520 H 0.68491 0.79497 0.15449 0.0
H521 H 0.64219 0.8168 0.11124 0.0
H522 H 0.61515 0.82463 0.10555 0.0
H523 H 0.61826 0.85472 0.16599 0.0
H524 H 0.64528 0.8469 0.17224 0.0
H525 H 0.73346 0.85373 0.11472 0.0
H526 H 0.71261 0.83498 0.11657 0.0
H527 H 0.69184 0.86016 0.17444 0.0
H528 H 0.71262 0.87919 0.17248 0.0
H529 H 0.67026 0.8497 0.14321 0.0
H530 H 0.71279 0.82878 0.18623 0.0
H531 H 0.73978 0.82108 0.19284 0.0
H532 H 0.73692 0.78921 0.1346 0.0
H533 H 0.70997 0.79689 0.1274 0.0
C534 C 0.6324 0.78582 0.16719 0.0
C535 C 0.63341 0.77375 0.15058 0.0
C536 C 0.64294 0.79798 0.16655 0.0
C537 C 0.65465 0.79823 0.14935 0.0
C538 C 0.65566 0.78622 0.13276 0.0
C539 C 0.6451 0.77413 0.13328 0.0
C540 C 0.66617 0.81079 0.14891 0.0
C541 C 0.68173 0.80692 0.15175 0.0
C542 C 0.66193 0.82641 0.14613 0.0
C543 C 0.6457 0.83114 0.14237 0.0
C544 C 0.63707 0.82498 0.12345 0.0
C545 C 0.62175 0.82944 0.1201 0.0
C546 C 0.61498 0.84013 0.13544 0.0
C547 C 0.62352 0.84642 0.15414 0.0
C548 C 0.63884 0.84199 0.15759 0.0
C549 C 0.72441 0.85538 0.12773 0.0
C550 C 0.72477 0.86787 0.1436 0.0
C551 C 0.71252 0.84461 0.12881 0.0
C552 C 0.70084 0.84604 0.14593 0.0
C553 C 0.7008 0.85883 0.16117 0.0
C554 C 0.71268 0.86967 0.16004 0.0
C555 C 0.68903 0.83383 0.14835 0.0
C556 C 0.67343 0.83776 0.14602 0.0
C557 C 0.69321 0.81824 0.15179 0.0
C558 C 0.7094 0.81352 0.15615 0.0
C559 C 0.71795 0.82021 0.17472 0.0
C560 C 0.73324 0.81584 0.17858 0.0
C561 C 0.74007 0.80468 0.16411 0.0
C562 C 0.73161 0.79786 0.14578 0.0
C563 C 0.71633 0.80221 0.14181 0.0
H564 H 0.7519 0.80131 0.16714 0.0
H565 H 0.60312 0.84357 0.13282 0.0
H566 H 0.19357 0.60259 0.13916 0.0
H567 H 0.17019 0.61837 0.13938 0.0
H568 H 0.19016 0.64769 0.19311 0.0
H569 H 0.21336 0.63194 0.19328 0.0
H570 H 0.16013 0.64229 0.20211 0.0
H571 H 0.19139 0.65733 0.13421 0.0
H572 H 0.20521 0.65262 0.09654 0.0
H573 H 0.16323 0.63721 0.06393 0.0
H574 H 0.14921 0.64166 0.10153 0.0
H575 H 0.12862 0.71612 0.19034 0.0
H576 H 0.14418 0.69283 0.19195 0.0
H577 H 0.11618 0.67232 0.13703 0.0
H578 H 0.10059 0.69578 0.13506 0.0
H579 H 0.14624 0.66932 0.12734 0.0
H580 H 0.11417 0.65889 0.19389 0.0
H581 H 0.10059 0.66425 0.23153 0.0
H582 H 0.14385 0.67126 0.26689 0.0
H583 H 0.15769 0.66617 0.22939 0.0
C584 C 0.19292 0.61231 0.15118 0.0
C585 C 0.20538 0.61609 0.16605 0.0
C586 C 0.17957 0.62133 0.15124 0.0
C587 C 0.17852 0.63429 0.16608 0.0
C588 C 0.19072 0.63773 0.18153 0.0
C589 C 0.20402 0.62874 0.18151 0.0
C590 C 0.16515 0.64486 0.16479 0.0
C591 C 0.15708 0.64824 0.18579 0.0
C592 C 0.1609 0.65225 0.14333 0.0
C593 C 0.16931 0.64964 0.12074 0.0
C594 C 0.18514 0.65283 0.11905 0.0
C595 C 0.193 0.65022 0.09771 0.0
C596 C 0.18511 0.64457 0.07788 0.0
C597 C 0.16934 0.64156 0.07932 0.0
C598 C 0.16143 0.64412 0.10064 0.0
C599 C 0.12564 0.70662 0.17874 0.0
C600 C 0.11338 0.70783 0.16253 0.0
C601 C 0.1345 0.69325 0.1798 0.0
C602 C 0.13123 0.68076 0.16481 0.0
C603 C 0.11886 0.68181 0.14883 0.0
C604 C 0.10995 0.69521 0.14776 0.0
C605 C 0.14148 0.66711 0.16483 0.0
C606 C 0.14899 0.66315 0.14358 0.0
C607 C 0.14523 0.65922 0.18609 0.0
C608 C 0.13696 0.66223 0.20876 0.0
C609 C 0.12079 0.66168 0.20965 0.0
C610 C 0.11304 0.66465 0.23097 0.0
C611 C 0.12135 0.66812 0.25158 0.0
C612 C 0.13743 0.66858 0.25092 0.0
C613 C 0.14523 0.66562 0.22963 0.0
H614 H 0.11533 0.67042 0.26807 0.0
H615 H 0.19122 0.64256 0.06137 0.0
H616 H 0.28111 0.86547 0.30874 0.0
H617 H 0.30282 0.84768 0.30928 0.0
H618 H 0.31834 0.86714 0.3757 0.0
H619 H 0.29667 0.88519 0.3752 0.0
H620 H 0.34251 0.86042 0.34509 0.0
H621 H 0.2981 0.835 0.37712 0.0
H622 H 0.27104 0.82641 0.37748 0.0
H623 H 0.2787 0.80037 0.31361 0.0
H624 H 0.30576 0.80899 0.31268 0.0
H625 H 0.38857 0.79512 0.37822 0.0
H626 H 0.37033 0.81659 0.37683 0.0
H627 H 0.35076 0.79828 0.31218 0.0
H628 H 0.36872 0.77674 0.31361 0.0
H629 H 0.32892 0.80496 0.34382 0.0
H630 H 0.37348 0.83049 0.31177 0.0
H631 H 0.40047 0.83926 0.31146 0.0
H632 H 0.39269 0.86495 0.37563 0.0
H633 H 0.36569 0.85616 0.3765 0.0
C634 C 0.28921 0.86611 0.32336 0.0
C635 C 0.28706 0.87663 0.34208 0.0
C636 C 0.3016 0.85591 0.32365 0.0
C637 C 0.31202 0.85594 0.34273 0.0
C638 C 0.31037 0.86692 0.36086 0.0
C639 C 0.29797 0.87718 0.36057 0.0
C640 C 0.32404 0.8439 0.34433 0.0
C641 C 0.33958 0.84828 0.34512 0.0
C642 C 0.32015 0.8281 0.34407 0.0
C643 C 0.30392 0.82276 0.34472 0.0
C644 C 0.29399 0.82753 0.36306 0.0
C645 C 0.27865 0.82264 0.36338 0.0
C646 C 0.27315 0.81288 0.34555 0.0
C647 C 0.28298 0.80795 0.3274 0.0
C648 C 0.29832 0.81282 0.32697 0.0
C649 C 0.38048 0.79575 0.36359 0.0
C650 C 0.38005 0.78419 0.34609 0.0
C651 C 0.37011 0.80806 0.36277 0.0
C652 C 0.35923 0.80906 0.34434 0.0
C653 C 0.35903 0.79771 0.32659 0.0
C654 C 0.36933 0.78541 0.32743 0.0
C655 C 0.34747 0.82141 0.34413 0.0
C656 C 0.33191 0.81708 0.34377 0.0
C657 C 0.35138 0.83722 0.34484 0.0
C658 C 0.36761 0.84253 0.34434 0.0
C659 C 0.37756 0.8379 0.32593 0.0
C660 C 0.39285 0.8429 0.32563 0.0
C661 C 0.39831 0.85262 0.34355 0.0
C662 C 0.38846 0.8574 0.36178 0.0
C663 C 0.37315 0.85242 0.36217 0.0
H664 H 0.41015 0.85648 0.34328 0.0
H665 H 0.26127 0.80911 0.34582 0.0
H666 H 0.20639 0.39283 0.34354 0.0
H667 H 0.18397 0.37583 0.34487 0.0
H668 H 0.20662 0.34427 0.29706 0.0
H669 H 0.22907 0.3612 0.29555 0.0
H670 H 0.17565 0.3481 0.28658 0.0
H671 H 0.20783 0.33768 0.35467 0.0
H672 H 0.22222 0.34471 0.3909 0.0
H673 H 0.18039 0.36015 0.42391 0.0
H674 H 0.16578 0.35347 0.38766 0.0
H675 H 0.14083 0.27648 0.30812 0.0
H676 H 0.15836 0.29822 0.30438 0.0
H677 H 0.13178 0.32362 0.356 0.0
H678 H 0.11417 0.30175 0.36011 0.0
H679 H 0.16239 0.32538 0.36501 0.0
H680 H 0.12975 0.33317 0.2978 0.0
H681 H 0.11569 0.32598 0.26134 0.0
H682 H 0.15839 0.31528 0.22655 0.0
H683 H 0.1727 0.32219 0.26293 0.0
C684 C 0.20653 0.38237 0.33306 0.0
C685 C 0.21955 0.37829 0.31958 0.0
C686 C 0.19373 0.37267 0.3339 0.0
C687 C 0.19373 0.35874 0.32127 0.0
C688 C 0.20642 0.35497 0.30695 0.0
C689 C 0.21925 0.36463 0.30619 0.0
C690 C 0.18095 0.34763 0.32399 0.0
C691 C 0.17278 0.34305 0.30368 0.0
C692 C 0.17701 0.34137 0.34644 0.0
C693 C 0.18574 0.34524 0.36835 0.0
C694 C 0.20172 0.3427 0.36957 0.0
C695 C 0.20991 0.34661 0.39011 0.0
C696 C 0.20223 0.35291 0.40966 0.0
C697 C 0.18633 0.3553 0.40873 0.0
C698 C 0.17808 0.35145 0.38819 0.0
C699 C 0.13863 0.2867 0.31863 0.0
C700 C 0.12607 0.28739 0.33439 0.0
C701 C 0.14864 0.29916 0.31637 0.0
C702 C 0.14626 0.31261 0.32967 0.0
C703 C 0.13377 0.31335 0.3455 0.0
C704 C 0.12372 0.30086 0.34778 0.0
C705 C 0.15718 0.32564 0.32751 0.0
C706 C 0.16505 0.33058 0.34794 0.0
C707 C 0.16085 0.33221 0.30515 0.0
C708 C 0.15229 0.3281 0.28317 0.0
C709 C 0.13614 0.32918 0.28244 0.0
C710 C 0.12813 0.32517 0.26177 0.0
C711 C 0.13614 0.32015 0.24166 0.0
C712 C 0.1522 0.31916 0.24215 0.0
C713 C 0.16027 0.32315 0.26278 0.0
H714 H 0.12992 0.31705 0.22567 0.0
H715 H 0.2086 0.35589 0.42555 0.0
H716 H 0.73738 0.1524 0.35111 0.0
H717 H 0.71342 0.167 0.35421 0.0
H718 H 0.68817 0.12856 0.32542 0.0
H719 H 0.71216 0.11363 0.32275 0.0
H720 H 0.68337 0.16098 0.30418 0.0
H721 H 0.68238 0.13197 0.37756 0.0
H722 H 0.6937 0.12213 0.41481 0.0
H723 H 0.70063 0.16838 0.43948 0.0
H724 H 0.68958 0.17851 0.4022 0.0
H725 H 0.61464 0.20337 0.32274 0.0
H726 H 0.63271 0.18175 0.32138 0.0
H727 H 0.66112 0.20419 0.37407 0.0
H728 H 0.64268 0.22524 0.3765 0.0
H729 H 0.66183 0.17581 0.3827 0.0
H730 H 0.668 0.20545 0.3108 0.0
H731 H 0.65961 0.21767 0.27335 0.0
H732 H 0.64629 0.17359 0.24562 0.0
H733 H 0.65444 0.16113 0.28304 0.0
C734 C 0.72675 0.14703 0.3454 0.0
C735 C 0.72662 0.13188 0.33668 0.0
C736 C 0.71309 0.15537 0.34726 0.0
C737 C 0.6991 0.14879 0.34014 0.0
C738 C 0.6989 0.13376 0.33105 0.0
C739 C 0.71257 0.12527 0.32959 0.0
C740 C 0.68479 0.15786 0.34208 0.0
C741 C 0.67838 0.16399 0.32127 0.0
C742 C 0.67873 0.16208 0.36446 0.0
C743 C 0.68525 0.15599 0.38699 0.0
C744 C 0.68644 0.14005 0.39083 0.0
C745 C 0.69279 0.13441 0.41198 0.0
C746 C 0.6979 0.14463 0.42949 0.0
C747 C 0.69666 0.16048 0.4259 0.0
C748 C 0.69034 0.16617 0.40478 0.0
C749 C 0.62467 0.20356 0.33419 0.0
C750 C 0.62733 0.21602 0.34959 0.0
C751 C 0.63504 0.19126 0.33331 0.0
C752 C 0.6485 0.19146 0.34723 0.0
C753 C 0.65085 0.20371 0.36314 0.0
C754 C 0.64032 0.21579 0.36446 0.0
C755 C 0.66048 0.17934 0.34475 0.0
C756 C 0.66653 0.17263 0.3655 0.0
C757 C 0.66652 0.17493 0.32231 0.0
C758 C 0.66164 0.18239 0.2998 0.0
C759 C 0.66318 0.19838 0.29677 0.0
C760 C 0.65848 0.20535 0.27555 0.0
C761 C 0.65237 0.19642 0.25715 0.0
C762 C 0.65099 0.1805 0.25991 0.0
C763 C 0.65565 0.17348 0.28111 0.0
H764 H 0.64874 0.20183 0.24073 0.0
H765 H 0.70279 0.14027 0.44586 0.0
H766 H 0.78356 0.63201 0.30151 0.0
H767 H 0.80603 0.64877 0.301 0.0
H768 H 0.82667 0.62215 0.35742 0.0
H769 H 0.80402 0.6054 0.35834 0.0
H770 H 0.82796 0.65203 0.3671 0.0
H771 H 0.84131 0.62083 0.30075 0.0
H772 H 0.83745 0.60727 0.26267 0.0
H773 H 0.82926 0.65037 0.22749 0.0
H774 H 0.83285 0.66418 0.26542 0.0
H775 H 0.89444 0.69986 0.35968 0.0
H776 H 0.8786 0.67658 0.35795 0.0
H777 H 0.85019 0.69749 0.30392 0.0
H778 H 0.86599 0.72069 0.30533 0.0
H779 H 0.85615 0.66735 0.29404 0.0
H780 H 0.83909 0.6977 0.36153 0.0
H781 H 0.8426 0.71132 0.39966 0.0
H782 H 0.85779 0.66937 0.43258 0.0
H783 H 0.85456 0.65555 0.39452 0.0
C784 C 0.79293 0.62959 0.31366 0.0
C785 C 0.79197 0.61739 0.33002 0.0
C786 C 0.80584 0.63914 0.31324 0.0
C787 C 0.81812 0.63661 0.32899 0.0
C788 C 0.81734 0.62427 0.34506 0.0
C789 C 0.8044 0.6147 0.34553 0.0
C790 C 0.8312 0.64757 0.3297 0.0
C791 C 0.83438 0.65512 0.35123 0.0
C792 C 0.83939 0.65179 0.30891 0.0
C793 C 0.83726 0.64353 0.286 0.0
C794 C 0.83858 0.62741 0.28493 0.0
C795 C 0.83645 0.61968 0.26336 0.0
C796 C 0.83309 0.62795 0.24268 0.0
C797 C 0.83187 0.64398 0.24352 0.0
C798 C 0.83397 0.65176 0.26505 0.0
C799 C 0.8849 0.69945 0.34729 0.0
C800 C 0.88139 0.71217 0.33278 0.0
C801 C 0.87585 0.68616 0.34636 0.0
C802 C 0.86314 0.68539 0.33098 0.0
C803 C 0.85995 0.69785 0.3159 0.0
C804 C 0.86896 0.71113 0.31683 0.0
C805 C 0.85263 0.67197 0.33128 0.0
C806 C 0.84993 0.66401 0.30996 0.0
C807 C 0.84487 0.66735 0.35225 0.0
C808 C 0.84677 0.67564 0.37513 0.0
C809 C 0.8433 0.69141 0.37686 0.0
C810 C 0.84522 0.69916 0.39846 0.0
C811 C 0.85047 0.69123 0.41851 0.0
C812 C 0.85376 0.67551 0.41702 0.0
C813 C 0.85188 0.66772 0.39544 0.0
H814 H 0.85194 0.69724 0.43522 0.0
H815 H 0.83145 0.62194 0.226 0.0
H816 H 0.71437 0.87543 0.81906 0.0
H817 H 0.69298 0.85712 0.82029 0.0
H818 H 0.71759 0.82972 0.87179 0.0
H819 H 0.73904 0.84785 0.87055 0.0
H820 H 0.70622 0.8123 0.83597 0.0
H821 H 0.68743 0.85186 0.88855 0.0
H822 H 0.6803 0.87833 0.89987 0.0
H823 H 0.64692 0.87971 0.84353 0.0
H824 H 0.65401 0.8533 0.83166 0.0
H825 H 0.64824 0.76294 0.87807 0.0
H826 H 0.6676 0.7832 0.87552 0.0
H827 H 0.64046 0.80657 0.82235 0.0
H828 H 0.62092 0.7863 0.82482 0.0
H829 H 0.65245 0.82646 0.85637 0.0
H830 H 0.6704 0.78664 0.80471 0.0
H831 H 0.67739 0.76016 0.79325 0.0
H832 H 0.71233 0.75932 0.84729 0.0
H833 H 0.70539 0.78572 0.85934 0.0
C834 C 0.71518 0.86556 0.83077 0.0
C835 C 0.72841 0.86308 0.8447 0.0
C836 C 0.70293 0.85514 0.8315 0.0
C837 C 0.70368 0.8421 0.84621 0.0
C838 C 0.7168 0.8397 0.86028 0.0
C839 C 0.72903 0.8501 0.8596 0.0
C840 C 0.69102 0.83068 0.84649 0.0
C841 C 0.6945 0.81536 0.84071 0.0
C842 C 0.67565 0.8348 0.85193 0.0
C843 C 0.67137 0.85067 0.85905 0.0
C844 C 0.67867 0.85785 0.87844 0.0
C845 C 0.67461 0.87284 0.88499 0.0
C846 C 0.6632 0.88072 0.87239 0.0
C847 C 0.65578 0.87361 0.85325 0.0
C848 C 0.6598 0.85863 0.84662 0.0
C849 C 0.64631 0.77241 0.8659 0.0
C850 C 0.63307 0.77296 0.85154 0.0
C851 C 0.65743 0.78395 0.86442 0.0
C852 C 0.65553 0.79627 0.84854 0.0
C853 C 0.64214 0.79712 0.83466 0.0
C854 C 0.63102 0.78552 0.83605 0.0
C855 C 0.66773 0.80806 0.84626 0.0
C856 C 0.66417 0.82343 0.85155 0.0
C857 C 0.68303 0.80401 0.84031 0.0
C858 C 0.68727 0.78813 0.83307 0.0
C859 C 0.67949 0.78077 0.81429 0.0
C860 C 0.68346 0.76577 0.80766 0.0
C861 C 0.69528 0.75805 0.81957 0.0
C862 C 0.70317 0.76531 0.8381 0.0
C863 C 0.69923 0.7803 0.84482 0.0
H864 H 0.69836 0.74645 0.81439 0.0
H865 H 0.66007 0.89231 0.87749 0.0
H866 H 0.12292 0.70943 0.82155 0.0
H867 H 0.14195 0.68865 0.82132 0.0
H868 H 0.17351 0.71726 0.86076 0.0
H869 H 0.15469 0.73811 0.86083 0.0
H870 H 0.18763 0.7033 0.82408 0.0
H871 H 0.15371 0.68844 0.88792 0.0
H872 H 0.12869 0.68209 0.90618 0.0
H873 H 0.12291 0.64467 0.85707 0.0
H874 H 0.14783 0.65094 0.83829 0.0
H875 H 0.24196 0.65001 0.86528 0.0
H876 H 0.221 0.66864 0.86372 0.0
H877 H 0.19374 0.63685 0.8225 0.0
H878 H 0.21468 0.61797 0.82416 0.0
H879 H 0.17675 0.65149 0.85721 0.0
H880 H 0.2115 0.66557 0.79482 0.0
H881 H 0.23677 0.67176 0.77725 0.0
H882 H 0.24107 0.71067 0.82387 0.0
H883 H 0.21593 0.70458 0.842 0.0
C884 C 0.1339 0.71128 0.83022 0.0
C885 C 0.13729 0.72541 0.84124 0.0
C886 C 0.14473 0.69938 0.83014 0.0
C887 C 0.15909 0.70139 0.84118 0.0
C888 C 0.1625 0.71549 0.85212 0.0
C889 C 0.1517 0.72738 0.8522 0.0
C890 C 0.17071 0.68891 0.84112 0.0
C891 C 0.1853 0.69202 0.83154 0.0
C892 C 0.16751 0.67406 0.85024 0.0
C893 C 0.15255 0.67027 0.86153 0.0
C894 C 0.14705 0.67894 0.88088 0.0
C895 C 0.1329 0.67534 0.89135 0.0
C896 C 0.1242 0.66302 0.88274 0.0
C897 C 0.12965 0.65424 0.86369 0.0
C898 C 0.14379 0.6578 0.85314 0.0
C899 C 0.2315 0.64692 0.85594 0.0
C900 C 0.23003 0.63256 0.84465 0.0
C901 C 0.21955 0.6576 0.85503 0.0
C902 C 0.20594 0.6542 0.84267 0.0
C903 C 0.2042 0.6397 0.83203 0.0
C904 C 0.21618 0.62896 0.83295 0.0
C905 C 0.19371 0.66599 0.84053 0.0
C906 C 0.17903 0.66274 0.84961 0.0
C907 C 0.19682 0.68073 0.83096 0.0
C908 C 0.21187 0.68454 0.8199 0.0
C909 C 0.21788 0.67539 0.80145 0.0
C910 C 0.23218 0.67889 0.79137 0.0
C911 C 0.24053 0.69159 0.79946 0.0
C912 C 0.23459 0.70083 0.81763 0.0
C913 C 0.22031 0.69737 0.82779 0.0
H914 H 0.25159 0.69429 0.79162 0.0
H915 H 0.11324 0.66025 0.89088 0.0
H916 H 0.37174 0.21232 0.78859 0.0
H917 H 0.35334 0.19108 0.78858 0.0
H918 H 0.36578 0.18008 0.86093 0.0
H919 H 0.38446 0.20114 0.86097 0.0
H920 H 0.36022 0.15412 0.83482 0.0
H921 H 0.33507 0.20237 0.85041 0.0
H922 H 0.32827 0.22945 0.84249 0.0
H923 H 0.30776 0.21642 0.77594 0.0
H924 H 0.31464 0.18928 0.78332 0.0
H925 H 0.29028 0.11653 0.86885 0.0
H926 H 0.31309 0.13288 0.86531 0.0
H927 H 0.29966 0.14525 0.79389 0.0
H928 H 0.27673 0.1292 0.79743 0.0
H929 H 0.30628 0.17002 0.81921 0.0
H930 H 0.3305 0.12117 0.80495 0.0
H931 H 0.33726 0.0942 0.81369 0.0
H932 H 0.3592 0.10822 0.87866 0.0
H933 H 0.35238 0.13526 0.87046 0.0
C934 C 0.37074 0.20525 0.8044 0.0
C935 C 0.3794 0.20855 0.82491 0.0
C936 C 0.3602 0.19313 0.80436 0.0
C937 C 0.35799 0.18422 0.82491 0.0
C938 C 0.36728 0.18687 0.84492 0.0
C939 C 0.37791 0.19895 0.84493 0.0
C940 C 0.34518 0.173 0.82613 0.0
C941 C 0.3484 0.15758 0.83161 0.0
C942 C 0.3298 0.17753 0.82167 0.0
C943 C 0.32551 0.19382 0.81731 0.0
C944 C 0.3292 0.2053 0.83401 0.0
C945 C 0.32533 0.22065 0.82963 0.0
C946 C 0.31763 0.22466 0.80869 0.0
C947 C 0.31374 0.21331 0.79213 0.0
C948 C 0.31762 0.19794 0.79641 0.0
C949 C 0.29227 0.12261 0.85231 0.0
C950 C 0.28166 0.12163 0.83347 0.0
C951 C 0.30535 0.13189 0.85027 0.0
C952 C 0.30813 0.1402 0.82927 0.0
C953 C 0.29774 0.13894 0.81026 0.0
C954 C 0.28464 0.12975 0.81232 0.0
C955 C 0.32128 0.15102 0.82761 0.0
C956 C 0.3181 0.16646 0.82222 0.0
C957 C 0.33664 0.14648 0.83227 0.0
C958 C 0.3408 0.13023 0.83719 0.0
C959 C 0.33666 0.11849 0.82119 0.0
C960 C 0.34052 0.10319 0.82603 0.0
C961 C 0.34862 0.09949 0.84674 0.0
C962 C 0.35291 0.1111 0.86263 0.0
C963 C 0.34906 0.12642 0.85789 0.0
H964 H 0.3516 0.08764 0.85046 0.0
H965 H 0.31464 0.23655 0.80533 0.0
H966 H 0.86707 0.28421 0.82096 0.0
H967 H 0.85301 0.30841 0.81852 0.0
H968 H 0.87804 0.32575 0.87916 0.0
H969 H 0.89215 0.30139 0.88191 0.0
H970 H 0.84753 0.33026 0.88386 0.0
H971 H 0.88497 0.34065 0.82455 0.0
H972 H 0.90113 0.33561 0.78934 0.0
H973 H 0.86071 0.33203 0.74571 0.0
H974 H 0.84427 0.33683 0.78072 0.0
H975 H 0.8035 0.39871 0.86899 0.0
H976 H 0.82655 0.38255 0.87133 0.0
H977 H 0.81027 0.35569 0.81186 0.0
H978 H 0.78746 0.37189 0.80908 0.0
H979 H 0.84081 0.35994 0.80913 0.0
H980 H 0.80385 0.34473 0.87006 0.0
H981 H 0.78759 0.34927 0.90538 0.0
H982 H 0.82758 0.36178 0.94597 0.0
H983 H 0.84404 0.3575 0.91077 0.0
C984 C 0.86972 0.2932 0.83368 0.0
C985 C 0.88072 0.29086 0.85167 0.0
C986 C 0.86173 0.30708 0.83215 0.0
C987 C 0.86461 0.31896 0.84847 0.0
C988 C 0.87571 0.31675 0.86632 0.0
C989 C 0.88376 0.30284 0.86783 0.0
C990 C 0.85522 0.3332 0.84768 0.0
C991 C 0.84634 0.337 0.8677 0.0
C992 C 0.85354 0.34186 0.82651 0.0
C993 C 0.86338 0.33902 0.80533 0.0
C994 C 0.87951 0.33868 0.80749 0.0
C995 C 0.88873 0.33588 0.78755 0.0
C996 C 0.88195 0.33348 0.76531 0.0
C997 C 0.86594 0.3339 0.76295 0.0
C998 C 0.85667 0.33668 0.78283 0.0
C999 C 0.80494 0.38949 0.8562 0.0
C1000 C 0.79356 0.38648 0.83901 0.0
C1001 C 0.8181 0.38025 0.85761 0.0
C1002 C 0.82001 0.36778 0.84199 0.0
C1003 C 0.80903 0.36524 0.82411 0.0
C1004 C 0.79594 0.37448 0.82262 0.0
C1005 C 0.8328 0.35665 0.84503 0.0
C1006 C 0.84229 0.35343 0.82544 0.0
C1007 C 0.83504 0.3485 0.86658 0.0
C1008 C 0.82514 0.35098 0.88773 0.0
C1009 C 0.80915 0.34856 0.88648 0.0
C1010 C 0.7999 0.35107 0.90648 0.0
C1011 C 0.80655 0.35586 0.92789 0.0
C1012 C 0.82245 0.3581 0.92936 0.0
C1013 C 0.83174 0.35564 0.9094 0.0
H1014 H 0.79939 0.35779 0.94336 0.0
H1015 H 0.88911 0.33131 0.74989 0.0
H1016 H 0.62535 0.21482 0.70009 0.0
H1017 H 0.64173 0.19214 0.70411 0.0
H1018 H 0.63044 0.17848 0.63239 0.0
H1019 H 0.61373 0.20102 0.62835 0.0
H1020 H 0.63275 0.15359 0.66215 0.0
H1021 H 0.66268 0.19848 0.64272 0.0
H1022 H 0.67153 0.22522 0.64808 0.0
H1023 H 0.68885 0.21394 0.7175 0.0
H1024 H 0.67988 0.18717 0.7127 0.0
H1025 H 0.70032 0.10989 0.63503 0.0
H1026 H 0.67836 0.12744 0.63672 0.0
H1027 H 0.69143 0.14109 0.70772 0.0
H1028 H 0.71353 0.12377 0.70607 0.0
H1029 H 0.68748 0.16543 0.67967 0.0
H1030 H 0.65894 0.11973 0.69767 0.0
H1031 H 0.64996 0.09309 0.69174 0.0
H1032 H 0.63035 0.10568 0.62435 0.0
H1033 H 0.6394 0.13236 0.62971 0.0
C1034 C 0.62618 0.20689 0.68526 0.0
C1035 C 0.61842 0.20982 0.66377 0.0
C1036 C 0.63555 0.19395 0.68759 0.0
C1037 C 0.63751 0.18381 0.66839 0.0
C1038 C 0.62911 0.18621 0.64739 0.0
C1039 C 0.61962 0.19912 0.64509 0.0
C1040 C 0.64924 0.17147 0.66959 0.0
C1041 C 0.64475 0.15615 0.66578 0.0
C1042 C 0.66483 0.17484 0.67468 0.0
C1043 C 0.67047 0.19086 0.67744 0.0
C1044 C 0.66828 0.20173 0.65919 0.0
C1045 C 0.67333 0.21689 0.66212 0.0
C1046 C 0.6807 0.22129 0.68315 0.0
C1047 C 0.68311 0.21052 0.70124 0.0
C1048 C 0.67805 0.19535 0.69842 0.0
C1049 C 0.69839 0.11644 0.65115 0.0
C1050 C 0.70874 0.11552 0.67035 0.0
C1051 C 0.68578 0.12642 0.65213 0.0
C1052 C 0.68324 0.13554 0.67238 0.0
C1053 C 0.69321 0.13418 0.69191 0.0
C1054 C 0.70582 0.12425 0.69093 0.0
C1055 C 0.67104 0.14746 0.67243 0.0
C1056 C 0.67547 0.16278 0.67629 0.0
C1057 C 0.65545 0.14406 0.66727 0.0
C1058 C 0.64998 0.12802 0.664 0.0
C1059 C 0.65283 0.11679 0.68149 0.0
C1060 C 0.6477 0.10169 0.67825 0.0
C1061 C 0.63963 0.09769 0.65765 0.0
C1062 C 0.63663 0.10879 0.64028 0.0
C1063 C 0.64174 0.12391 0.64342 0.0
H1064 H 0.63567 0.08599 0.65518 0.0
H1065 H 0.68459 0.23303 0.68539 0.0
H1066 H 0.75687 0.65018 0.63147 0.0
H1067 H 0.78047 0.66527 0.62927 0.0
H1068 H 0.80316 0.63307 0.676 0.0
H1069 H 0.77944 0.61782 0.67842 0.0
H1070 H 0.80799 0.66348 0.68878 0.0
H1071 H 0.81254 0.63262 0.61882 0.0
H1072 H 0.80362 0.6207 0.5815 0.0
H1073 H 0.79671 0.66541 0.55077 0.0
H1074 H 0.80549 0.67762 0.58802 0.0
H1075 H 0.87889 0.70258 0.67141 0.0
H1076 H 0.85998 0.68172 0.67175 0.0
H1077 H 0.83159 0.70701 0.62235 0.0
H1078 H 0.85052 0.72774 0.62154 0.0
H1079 H 0.83198 0.67698 0.61137 0.0
H1080 H 0.82448 0.70772 0.68208 0.0
H1081 H 0.83253 0.72011 0.71955 0.0
H1082 H 0.84408 0.67598 0.74896 0.0
H1083 H 0.8363 0.66334 0.7115 0.0
C1084 C 0.76686 0.64626 0.64128 0.0
C1085 C 0.76629 0.6328 0.65512 0.0
C1086 C 0.78037 0.65486 0.63988 0.0
C1087 C 0.7936 0.65017 0.65224 0.0
C1088 C 0.79307 0.63682 0.66625 0.0
C1089 C 0.77954 0.62813 0.66757 0.0
C1090 C 0.80776 0.65959 0.65093 0.0
C1091 C 0.81347 0.66618 0.67193 0.0
C1092 C 0.81467 0.66331 0.62886 0.0
C1093 C 0.80958 0.65604 0.60628 0.0
C1094 C 0.80904 0.63992 0.60416 0.0
C1095 C 0.80402 0.63311 0.583 0.0
C1096 C 0.79955 0.64229 0.56379 0.0
C1097 C 0.80017 0.65831 0.56567 0.0
C1098 C 0.80521 0.66519 0.58678 0.0
C1099 C 0.86869 0.70363 0.66045 0.0
C1100 C 0.86614 0.71687 0.6466 0.0
C1101 C 0.85788 0.69172 0.66072 0.0
C1102 C 0.84428 0.69292 0.64733 0.0
C1103 C 0.842 0.70586 0.63283 0.0
C1104 C 0.85281 0.71773 0.63247 0.0
C1105 C 0.83205 0.68109 0.64918 0.0
C1106 C 0.82669 0.67408 0.62827 0.0
C1107 C 0.8254 0.67704 0.67132 0.0
C1108 C 0.82998 0.68461 0.6939 0.0
C1109 C 0.82884 0.70067 0.69647 0.0
C1110 C 0.83335 0.70773 0.71771 0.0
C1111 C 0.83886 0.69884 0.7366 0.0
C1112 C 0.83984 0.68286 0.7343 0.0
C1113 C 0.83538 0.67574 0.71307 0.0
H1114 H 0.84234 0.70433 0.75303 0.0
H1115 H 0.79564 0.63698 0.54744 0.0
H1116 H 0.27711 0.86622 0.61602 0.0
H1117 H 0.29812 0.84768 0.61785 0.0
H1118 H 0.30336 0.85636 0.69298 0.0
H1119 H 0.28226 0.8751 0.69135 0.0
H1120 H 0.33169 0.85323 0.66851 0.0
H1121 H 0.28413 0.82605 0.67773 0.0
H1122 H 0.2575 0.81879 0.66746 0.0
H1123 H 0.27283 0.80164 0.59981 0.0
H1124 H 0.29953 0.80902 0.60952 0.0
H1125 H 0.37306 0.78295 0.69 0.0
H1126 H 0.35505 0.80459 0.69136 0.0
H1127 H 0.344 0.79743 0.61733 0.0
H1128 H 0.36182 0.77573 0.61584 0.0
H1129 H 0.3185 0.79992 0.64423 0.0
H1130 H 0.36604 0.82765 0.63469 0.0
H1131 H 0.39262 0.83512 0.64487 0.0
H1132 H 0.37744 0.85109 0.71328 0.0
H1133 H 0.35078 0.84352 0.70363 0.0
C1134 C 0.28279 0.86434 0.63293 0.0
C1135 C 0.2779 0.87202 0.65361 0.0
C1136 C 0.29479 0.85371 0.63392 0.0
C1137 C 0.30211 0.85051 0.6556 0.0
C1138 C 0.29779 0.85866 0.6761 0.0
C1139 C 0.28572 0.86932 0.67514 0.0
C1140 C 0.31364 0.838 0.6569 0.0
C1141 C 0.3288 0.84152 0.66356 0.0
C1142 C 0.30984 0.82279 0.65011 0.0
C1143 C 0.29381 0.81822 0.64428 0.0
C1144 C 0.28181 0.82084 0.66059 0.0
C1145 C 0.2667 0.81669 0.65488 0.0
C1146 C 0.26347 0.80979 0.63298 0.0
C1147 C 0.27535 0.807 0.61676 0.0
C1148 C 0.29047 0.81115 0.62237 0.0
C1149 C 0.36689 0.78606 0.67395 0.0
C1150 C 0.36883 0.77759 0.65282 0.0
C1151 C 0.35665 0.79846 0.67475 0.0
C1152 C 0.34825 0.80265 0.65441 0.0
C1153 C 0.35036 0.79436 0.63323 0.0
C1154 C 0.36058 0.78198 0.63241 0.0
C1155 C 0.33668 0.81516 0.65539 0.0
C1156 C 0.32144 0.81161 0.64926 0.0
C1157 C 0.34043 0.83029 0.66271 0.0
C1158 C 0.35645 0.83486 0.66854 0.0
C1159 C 0.36839 0.83263 0.65199 0.0
C1160 C 0.38347 0.83691 0.65765 0.0
C1161 C 0.38673 0.84354 0.67974 0.0
C1162 C 0.3749 0.84594 0.69619 0.0
C1163 C 0.35981 0.84166 0.69063 0.0
H1164 H 0.39841 0.84685 0.68408 0.0
H1165 H 0.25177 0.80659 0.62859 0.0
H1166 H 0.12424 0.27603 0.61541 0.0
H1167 H 0.14314 0.29648 0.62102 0.0
H1168 H 0.12354 0.30709 0.68957 0.0
H1169 H 0.10462 0.28637 0.68435 0.0
H1170 H 0.13349 0.33394 0.65532 0.0
H1171 H 0.1508 0.28812 0.69649 0.0
H1172 H 0.15537 0.26016 0.6991 0.0
H1173 H 0.18632 0.26264 0.63963 0.0
H1174 H 0.18169 0.29059 0.63637 0.0
H1175 H 0.20103 0.37648 0.68878 0.0
H1176 H 0.17824 0.35986 0.6897 0.0
H1177 H 0.19787 0.33172 0.63413 0.0
H1178 H 0.22071 0.34794 0.63355 0.0
H1179 H 0.18654 0.31413 0.66733 0.0
H1180 H 0.16878 0.35843 0.62357 0.0
H1181 H 0.16347 0.386 0.61712 0.0
H1182 H 0.13335 0.3864 0.67773 0.0
H1183 H 0.13865 0.35885 0.68472 0.0
C1184 C 0.12373 0.28286 0.63153 0.0
C1185 C 0.11303 0.27949 0.64956 0.0
C1186 C 0.13454 0.29453 0.63467 0.0
C1187 C 0.13471 0.30316 0.65573 0.0
C1188 C 0.1235 0.30052 0.67319 0.0
C1189 C 0.11278 0.28866 0.67021 0.0
C1190 C 0.14759 0.31383 0.6602 0.0
C1191 C 0.14507 0.32971 0.65844 0.0
C1192 C 0.16265 0.30815 0.66375 0.0
C1193 C 0.16578 0.29142 0.66606 0.0
C1194 C 0.15849 0.28268 0.68385 0.0
C1195 C 0.1611 0.26684 0.68547 0.0
C1196 C 0.1711 0.25962 0.66951 0.0
C1197 C 0.17856 0.26825 0.65197 0.0
C1198 C 0.17595 0.28409 0.65024 0.0
C1199 C 0.20045 0.36676 0.67675 0.0
C1200 C 0.21266 0.36351 0.6611 0.0
C1201 C 0.18741 0.35731 0.67724 0.0
C1202 C 0.1863 0.3446 0.66186 0.0
C1203 C 0.19849 0.34141 0.64622 0.0
C1204 C 0.21153 0.35074 0.64588 0.0
C1205 C 0.17262 0.33441 0.66203 0.0
C1206 C 0.17497 0.31851 0.66464 0.0
C1207 C 0.15745 0.3401 0.659 0.0
C1208 C 0.15426 0.35664 0.65484 0.0
C1209 C 0.16113 0.36443 0.63564 0.0
C1210 C 0.1581 0.38005 0.63187 0.0
C1211 C 0.14812 0.38796 0.64706 0.0
C1212 C 0.14111 0.38026 0.66601 0.0
C1213 C 0.14411 0.36465 0.66988 0.0
H1214 H 0.14579 0.40004 0.6441 0.0
H1215 H 0.17309 0.24735 0.67076 0.0
H1216 H 0.23295 0.08036 0.09217 0.0
H1217 H 0.2306 0.08073 0.04888 0.0
H1218 H 0.20503 0.12323 0.05286 0.0
H1219 H 0.20703 0.12277 0.09628 0.0
H1220 H 0.19337 0.10464 0.01897 0.0
H1221 H 0.24324 0.12364 0.04078 0.0
H1222 H 0.26845 0.12301 0.06095 0.0
H1223 H 0.2805 0.08192 0.02278 0.0
H1224 H 0.25526 0.08218 0.00263 0.0
H1225 H 0.20889 0.13029 0.90006 0.0
H1226 H 0.20637 0.12758 0.94323 0.0
H1227 H 0.23052 0.08424 0.94023 0.0
H1228 H 0.2332 0.08689 0.89719 0.0
H1229 H 0.24237 0.10332 0.97359 0.0
H1230 H 0.19222 0.0852 0.95063 0.0
H1231 H 0.16706 0.08665 0.93044 0.0
H1232 H 0.15567 0.12721 0.97038 0.0
H1233 H 0.18087 0.12614 0.99059 0.0
C1234 C 0.22669 0.08971 0.08387 0.0
C1235 C 0.22033 0.10163 0.09763 0.0
C1236 C 0.22539 0.08992 0.05913 0.0
C1237 C 0.2179 0.10217 0.04765 0.0
C1238 C 0.21091 0.11371 0.06137 0.0
C1239 C 0.2121 0.11345 0.08618 0.0
C1240 C 0.21809 0.10333 0.02134 0.0
C1241 C 0.20408 0.10452 0.00903 0.0
C1242 C 0.23207 0.10298 0.0084 0.0
C1243 C 0.2473 0.10285 0.02037 0.0
C1244 C 0.25122 0.11441 0.03682 0.0
C1245 C 0.26552 0.11413 0.04823 0.0
C1246 C 0.27605 0.10241 0.04319 0.0
C1247 C 0.27232 0.09098 0.02669 0.0
C1248 C 0.25802 0.09119 0.01525 0.0
C1249 C 0.21355 0.12012 0.90856 0.0
C1250 C 0.2213 0.10884 0.89521 0.0
C1251 C 0.21203 0.11856 0.93321 0.0
C1252 C 0.21819 0.10567 0.94489 0.0
C1253 C 0.22569 0.09428 0.93154 0.0
C1254 C 0.22719 0.0958 0.90694 0.0
C1255 C 0.21765 0.10446 0.97116 0.0
C1256 C 0.23164 0.10336 0.98349 0.0
C1257 C 0.20367 0.10502 0.98406 0.0
C1258 C 0.1885 0.10567 0.97195 0.0
C1259 C 0.18441 0.09451 0.95496 0.0
C1260 C 0.17013 0.09525 0.94354 0.0
C1261 C 0.15979 0.10704 0.94907 0.0
C1262 C 0.1637 0.1181 0.96609 0.0
C1263 C 0.17797 0.11742 0.97755 0.0
H1264 H 0.14874 0.10759 0.94021 0.0
H1265 H 0.28712 0.10221 0.05204 0.0
H1266 H 0.90643 0.24645 0.91895 0.0
H1267 H 0.91252 0.24177 0.96066 0.0
H1268 H 0.9117 0.19279 0.94817 0.0
H1269 H 0.90544 0.19737 0.90623 0.0
H1270 H 0.89532 0.20066 0.98734 0.0
H1271 H 0.94563 0.21019 0.95811 0.0
H1272 H 0.96597 0.22368 0.93572 0.0
H1273 H 0.95962 0.26388 0.97906 0.0
H1274 H 0.93908 0.25072 0.0015 0.0
H1275 H 0.91653 0.19376 0.10997 0.0
H1276 H 0.91898 0.19077 0.06672 0.0
H1277 H 0.91678 0.24006 0.05824 0.0
H1278 H 0.91441 0.24316 0.10118 0.0
H1279 H 0.9384 0.22686 0.02885 0.0
H1280 H 0.88498 0.21875 0.05206 0.0
H1281 H 0.86427 0.2056 0.07417 0.0
H1282 H 0.8767 0.16264 0.04162 0.0
H1283 H 0.89764 0.17552 0.01956 0.0
C1284 C 0.90762 0.23467 0.92499 0.0
C1285 C 0.90544 0.22227 0.90927 0.0
C1286 C 0.91121 0.23202 0.94882 0.0
C1287 C 0.91277 0.21694 0.95742 0.0
C1288 C 0.91063 0.20452 0.94182 0.0
C1289 C 0.90706 0.20716 0.91789 0.0
C1290 C 0.91583 0.21433 0.98304 0.0
C1291 C 0.90496 0.20606 0.99635 0.0
C1292 C 0.92833 0.2215 0.99478 0.0
C1293 C 0.94074 0.22948 0.98142 0.0
C1294 C 0.94849 0.22194 0.96277 0.0
C1295 C 0.96007 0.22953 0.95008 0.0
C1296 C 0.96407 0.24463 0.95594 0.0
C1297 C 0.95651 0.25217 0.97454 0.0
C1298 C 0.94491 0.24465 0.98728 0.0
C1299 C 0.91677 0.20396 0.09889 0.0
C1300 C 0.91513 0.21869 0.10894 0.0
C1301 C 0.91814 0.20222 0.07422 0.0
C1302 C 0.91794 0.21519 0.05932 0.0
C1303 C 0.91699 0.22991 0.06944 0.0
C1304 C 0.91553 0.23164 0.09399 0.0
C1305 C 0.91763 0.21363 0.03311 0.0
C1306 C 0.92901 0.22113 0.01972 0.0
C1307 C 0.90561 0.20575 0.02127 0.0
C1308 C 0.89299 0.19805 0.03442 0.0
C1309 C 0.88337 0.20647 0.04977 0.0
C1310 C 0.87158 0.19908 0.06227 0.0
C1311 C 0.8692 0.18329 0.05936 0.0
C1312 C 0.87858 0.17487 0.04389 0.0
C1313 C 0.89041 0.18221 0.0314 0.0
H1314 H 0.86007 0.17758 0.06904 0.0
H1315 H 0.97304 0.25048 0.9461 0.0
H1316 H 0.80844 0.89712 0.89132 0.0
H1317 H 0.81261 0.90085 0.93406 0.0
H1318 H 0.76585 0.91685 0.9417 0.0
H1319 H 0.76165 0.91337 0.89916 0.0
H1320 H 0.78545 0.93369 0.96866 0.0
H1321 H 0.77531 0.87961 0.95316 0.0
H1322 H 0.78036 0.8545 0.93423 0.0
H1323 H 0.82568 0.8537 0.96477 0.0
H1324 H 0.82095 0.87893 0.98363 0.0
H1325 H 0.75991 0.91565 0.08369 0.0
H1326 H 0.76513 0.9184 0.04131 0.0
H1327 H 0.81139 0.90169 0.05202 0.0
H1328 H 0.80619 0.89871 0.09462 0.0
H1329 H 0.79745 0.887 0.01601 0.0
H1330 H 0.80534 0.93924 0.03766 0.0
H1331 H 0.79961 0.96404 0.05705 0.0
H1332 H 0.75832 0.96839 0.01558 0.0
H1333 H 0.76367 0.9435 0.99617 0.0
C1334 C 0.79911 0.9016 0.90207 0.0
C1335 C 0.78467 0.90481 0.89188 0.0
C1336 C 0.80151 0.9037 0.92647 0.0
C1337 C 0.78948 0.90896 0.94107 0.0
C1338 C 0.77529 0.91278 0.93076 0.0
C1339 C 0.77288 0.9107 0.90643 0.0
C1340 C 0.7912 0.9096 0.9673 0.0
C1341 C 0.78806 0.9235 0.97906 0.0
C1342 C 0.79503 0.89639 0.98079 0.0
C1343 C 0.79785 0.88122 0.96954 0.0
C1344 C 0.78639 0.87413 0.95567 0.0
C1345 C 0.78919 0.85987 0.94499 0.0
C1346 C 0.80335 0.85254 0.94823 0.0
C1347 C 0.81473 0.85942 0.96223 0.0
C1348 C 0.812 0.87369 0.97292 0.0
C1349 C 0.77126 0.9127 0.07713 0.0
C1350 C 0.78262 0.90691 0.09254 0.0
C1351 C 0.77426 0.91439 0.05289 0.0
C1352 C 0.78871 0.91042 0.04354 0.0
C1353 C 0.80018 0.90488 0.0589 0.0
C1354 C 0.79719 0.9032 0.08323 0.0
C1355 C 0.79129 0.91101 0.01747 0.0
C1356 C 0.79522 0.89732 0.0057 0.0
C1357 C 0.78813 0.92441 0.004 0.0
C1358 C 0.78488 0.93944 0.01555 0.0
C1359 C 0.79498 0.94543 0.03278 0.0
C1360 C 0.79181 0.95951 0.04376 0.0
C1361 C 0.7786 0.96777 0.03757 0.0
C1362 C 0.76855 0.96198 0.02035 0.0
C1363 C 0.77166 0.94789 0.00933 0.0
H1364 H 0.77616 0.97868 0.04609 0.0
H1365 H 0.8055 0.8415 0.93994 0.0
H1366 H 0.08322 0.79957 0.8976 0.0
H1367 H 0.07974 0.80259 0.94067 0.0
H1368 H 0.08783 0.754 0.95036 0.0
H1369 H 0.09109 0.75085 0.90763 0.0
H1370 H 0.06413 0.76374 0.97729 0.0
H1371 H 0.11631 0.7807 0.95936 0.0
H1372 H 0.13553 0.79714 0.93942 0.0
H1373 H 0.11479 0.83736 0.97019 0.0
H1374 H 0.09532 0.82114 0.99008 0.0
H1375 H 0.09263 0.75017 0.09136 0.0
H1376 H 0.08873 0.75365 0.04878 0.0
H1377 H 0.08065 0.80213 0.05967 0.0
H1378 H 0.08472 0.79878 0.10254 0.0
H1379 H 0.10017 0.7969 0.02272 0.0
H1380 H 0.05075 0.77917 0.04633 0.0
H1381 H 0.03197 0.7625 0.06675 0.0
H1382 H 0.04731 0.72375 0.02568 0.0
H1383 H 0.06635 0.74014 0.00524 0.0
C1384 C 0.08416 0.78953 0.90892 0.0
C1385 C 0.08752 0.77499 0.8992 0.0
C1386 C 0.0822 0.79128 0.9335 0.0
C1387 C 0.08364 0.77854 0.94871 0.0
C1388 C 0.08663 0.76399 0.93895 0.0
C1389 C 0.08857 0.76223 0.91449 0.0
C1390 C 0.0826 0.78019 0.97491 0.0
C1391 C 0.07202 0.77096 0.98725 0.0
C1392 C 0.09255 0.79002 0.98784 0.0
C1393 C 0.10426 0.79974 0.97594 0.0
C1394 C 0.11578 0.79306 0.96171 0.0
C1395 C 0.12673 0.80233 0.95045 0.0
C1396 C 0.12635 0.81829 0.95347 0.0
C1397 C 0.11505 0.825 0.96782 0.0
C1398 C 0.10406 0.81578 0.9791 0.0
C1399 C 0.08997 0.76158 0.08479 0.0
C1400 C 0.08895 0.7742 0.10037 0.0
C1401 C 0.08766 0.76353 0.06043 0.0
C1402 C 0.08417 0.7781 0.05111 0.0
C1403 C 0.08324 0.79077 0.06654 0.0
C1404 C 0.08555 0.78882 0.09101 0.0
C1405 C 0.08208 0.78001 0.02511 0.0
C1406 C 0.09204 0.78992 0.0128 0.0
C1407 C 0.07156 0.7708 0.01219 0.0
C1408 C 0.06005 0.76089 0.02433 0.0
C1409 C 0.0502 0.76708 0.04175 0.0
C1410 C 0.03949 0.75768 0.05332 0.0
C1411 C 0.03846 0.74207 0.04753 0.0
C1412 C 0.04812 0.73584 0.03014 0.0
C1413 C 0.05886 0.74519 0.01853 0.0
H1414 H 0.03017 0.73482 0.05651 0.0
H1415 H 0.13484 0.82545 0.94475 0.0
H1416 H 0.24491 0.90179 0.40691 0.0
H1417 H 0.24128 0.90299 0.44983 0.0
H1418 H 0.1922 0.89838 0.44064 0.0
H1419 H 0.19569 0.89734 0.39733 0.0
H1420 H 0.1998 0.92007 0.47484 0.0
H1421 H 0.21195 0.86778 0.45755 0.0
H1422 H 0.22647 0.84643 0.43935 0.0
H1423 H 0.26702 0.85994 0.47774 0.0
H1424 H 0.2528 0.88153 0.49592 0.0
H1425 H 0.19327 0.90221 0.60075 0.0
H1426 H 0.19093 0.90172 0.55724 0.0
H1427 H 0.24016 0.90667 0.55073 0.0
H1428 H 0.24263 0.90715 0.59389 0.0
H1429 H 0.22883 0.88271 0.52434 0.0
H1430 H 0.21692 0.93635 0.53876 0.0
H1431 H 0.20227 0.95772 0.55669 0.0
H1432 H 0.16079 0.94115 0.52392 0.0
H1433 H 0.17518 0.91955 0.50605 0.0
C1434 C 0.23331 0.90109 0.41392 0.0
C1435 C 0.22059 0.89933 0.39869 0.0
C1436 C 0.23127 0.90174 0.43849 0.0
C1437 C 0.2165 0.90052 0.4484 0.0
C1438 C 0.2037 0.89926 0.4333 0.0
C1439 C 0.20573 0.89863 0.4086 0.0
C1440 C 0.21468 0.90022 0.4746 0.0
C1441 C 0.2059 0.91173 0.4857 0.0
C1442 C 0.22274 0.88941 0.4887 0.0
C1443 C 0.23132 0.87634 0.47797 0.0
C1444 C 0.22399 0.86627 0.46199 0.0
C1445 C 0.23217 0.85411 0.45169 0.0
C1446 C 0.24767 0.85185 0.45735 0.0
C1447 C 0.25501 0.86171 0.47337 0.0
C1448 C 0.24689 0.8739 0.4837 0.0
C1449 C 0.20357 0.90335 0.59003 0.0
C1450 C 0.21814 0.90465 0.60078 0.0
C1451 C 0.2022 0.90309 0.5652 0.0
C1452 C 0.21538 0.90413 0.55083 0.0
C1453 C 0.22986 0.90578 0.56154 0.0
C1454 C 0.23123 0.9061 0.58623 0.0
C1455 C 0.21437 0.90285 0.52461 0.0
C1456 C 0.22257 0.89094 0.5135 0.0
C1457 C 0.20572 0.91325 0.51059 0.0
C1458 C 0.19708 0.92623 0.52131 0.0
C1459 C 0.20465 0.93718 0.53556 0.0
C1460 C 0.1964 0.94935 0.54567 0.0
C1461 C 0.1806 0.95076 0.54152 0.0
C1462 C 0.17303 0.94002 0.52717 0.0
C1463 C 0.18122 0.92782 0.51703 0.0
H1464 H 0.17423 0.9602 0.54936 0.0
H1465 H 0.25398 0.84243 0.44935 0.0
H1466 H 0.07734 0.2413 0.58796 0.0
H1467 H 0.07681 0.23804 0.54498 0.0
H1468 H 0.08975 0.19037 0.55292 0.0
H1469 H 0.09062 0.19363 0.59622 0.0
H1470 H 0.1069 0.20383 0.52005 0.0
H1471 H 0.05335 0.20014 0.5346 0.0
H1472 H 0.02812 0.20712 0.55154 0.0
H1473 H 0.02934 0.2503 0.51444 0.0
H1474 H 0.0547 0.24368 0.49754 0.0
H1475 H 0.09827 0.19709 0.39321 0.0
H1476 H 0.09358 0.19267 0.43569 0.0
H1477 H 0.08623 0.24131 0.44596 0.0
H1478 H 0.09097 0.24585 0.40368 0.0
H1479 H 0.0642 0.22246 0.46892 0.0
H1480 H 0.11973 0.22686 0.45977 0.0
H1481 H 0.14485 0.21939 0.44287 0.0
H1482 H 0.1391 0.17353 0.46992 0.0
H1483 H 0.11382 0.1807 0.48671 0.0
C1484 C 0.07992 0.23006 0.58065 0.0
C1485 C 0.08403 0.21772 0.59553 0.0
C1486 C 0.07952 0.22818 0.55603 0.0
C1487 C 0.08304 0.2139 0.54573 0.0
C1488 C 0.08693 0.20147 0.56052 0.0
C1489 C 0.08739 0.20335 0.58524 0.0
C1490 C 0.0836 0.2124 0.51946 0.0
C1491 C 0.09742 0.20755 0.50887 0.0
C1492 C 0.07129 0.21739 0.50485 0.0
C1493 C 0.05599 0.22144 0.5149 0.0
C1494 C 0.0483 0.21117 0.53018 0.0
C1495 C 0.03396 0.21506 0.53976 0.0
C1496 C 0.02714 0.22915 0.5341 0.0
C1497 C 0.03464 0.23938 0.51881 0.0
C1498 C 0.04899 0.23556 0.50919 0.0
C1499 C 0.09558 0.20683 0.40451 0.0
C1500 C 0.09507 0.22183 0.39516 0.0
C1501 C 0.09292 0.20428 0.42873 0.0
C1502 C 0.08961 0.21668 0.44389 0.0
C1503 C 0.08874 0.2316 0.43449 0.0
C1504 C 0.09154 0.23418 0.41038 0.0
C1505 C 0.08759 0.21432 0.46975 0.0
C1506 C 0.07352 0.21844 0.48018 0.0
C1507 C 0.0996 0.20853 0.4842 0.0
C1508 C 0.11481 0.20426 0.47422 0.0
C1509 C 0.12376 0.21515 0.46193 0.0
C1510 C 0.13804 0.21098 0.45241 0.0
C1511 C 0.14354 0.19598 0.45525 0.0
C1512 C 0.1348 0.18514 0.46769 0.0
C1513 C 0.12051 0.18925 0.47721 0.0
H1514 H 0.1546 0.19277 0.44787 0.0
H1515 H 0.01604 0.23214 0.54154 0.0
H1516 H 0.7856 0.07227 0.60595 0.0
H1517 H 0.78804 0.07437 0.56269 0.0
H1518 H 0.76473 0.11824 0.56462 0.0
H1519 H 0.76178 0.11594 0.60763 0.0
H1520 H 0.75284 0.1017 0.53156 0.0
H1521 H 0.80448 0.11441 0.55388 0.0
H1522 H 0.82957 0.11092 0.57369 0.0
H1523 H 0.83704 0.06919 0.5344 0.0
H1524 H 0.81188 0.07233 0.51457 0.0
H1525 H 0.77161 0.12828 0.41576 0.0
H1526 H 0.77365 0.12536 0.45895 0.0
H1527 H 0.78051 0.07653 0.45057 0.0
H1528 H 0.7781 0.07926 0.40724 0.0
H1529 H 0.80126 0.09467 0.48594 0.0
H1530 H 0.74851 0.08276 0.46439 0.0
H1531 H 0.72383 0.08785 0.44419 0.0
H1532 H 0.71923 0.13039 0.48245 0.0
H1533 H 0.74405 0.12566 0.50256 0.0
C1534 C 0.78114 0.08243 0.59715 0.0
C1535 C 0.77345 0.09391 0.61015 0.0
C1536 C 0.7826 0.08365 0.57243 0.0
C1537 C 0.77666 0.09652 0.56038 0.0
C1538 C 0.76934 0.10817 0.57348 0.0
C1539 C 0.76769 0.10685 0.59809 0.0
C1540 C 0.77728 0.09754 0.53402 0.0
C1541 C 0.76349 0.10035 0.5217 0.0
C1542 C 0.79111 0.09546 0.521 0.0
C1543 C 0.80622 0.09352 0.53293 0.0
C1544 C 0.81141 0.10442 0.54961 0.0
C1545 C 0.82565 0.10252 0.56081 0.0
C1546 C 0.83487 0.08982 0.55536 0.0
C1547 C 0.82987 0.07901 0.53864 0.0
C1548 C 0.81563 0.08085 0.5274 0.0
C1549 C 0.77374 0.11694 0.42306 0.0
C1550 C 0.77462 0.10397 0.40817 0.0
C1551 C 0.77489 0.11531 0.4477 0.0
C1552 C 0.77721 0.10074 0.45779 0.0
C1553 C 0.77877 0.08786 0.44298 0.0
C1554 C 0.77731 0.08943 0.41832 0.0
C1555 C 0.7769 0.09893 0.48388 0.0
C1556 C 0.79068 0.09598 0.49601 0.0
C1557 C 0.76314 0.10107 0.49682 0.0
C1558 C 0.74822 0.10394 0.48476 0.0
C1559 C 0.74232 0.09328 0.46829 0.0
C1560 C 0.72829 0.09608 0.4569 0.0
C1561 C 0.71998 0.10945 0.46198 0.0
C1562 C 0.72569 0.12005 0.47849 0.0
C1563 C 0.73973 0.11731 0.4899 0.0
H1564 H 0.7091 0.11156 0.4532 0.0
H1565 H 0.8459 0.08837 0.56405 0.0
H1566 H 0.9141 0.7503 0.58911 0.0
H1567 H 0.91576 0.75534 0.54655 0.0
H1568 H 0.90121 0.80222 0.55817 0.0
H1569 H 0.89928 0.7972 0.60097 0.0
H1570 H 0.88499 0.78906 0.52328 0.0
H1571 H 0.93812 0.79449 0.54134 0.0
H1572 H 0.96318 0.78764 0.55898 0.0
H1573 H 0.96446 0.74625 0.51728 0.0
H1574 H 0.93929 0.75273 0.49962 0.0
H1575 H 0.89461 0.80203 0.39834 0.0
H1576 H 0.89806 0.80464 0.44142 0.0
H1577 H 0.91101 0.7568 0.44596 0.0
H1578 H 0.90772 0.75411 0.40305 0.0
H1579 H 0.92975 0.7751 0.47283 0.0
H1580 H 0.87497 0.76811 0.45983 0.0
H1581 H 0.84972 0.77474 0.44255 0.0
H1582 H 0.85182 0.81937 0.4752 0.0
H1583 H 0.87719 0.81306 0.49242 0.0
C1584 C 0.91141 0.76175 0.58271 0.0
C1585 C 0.90651 0.77334 0.59843 0.0
C1586 C 0.91246 0.76464 0.55835 0.0
C1587 C 0.90877 0.77921 0.54921 0.0
C1588 C 0.90416 0.79091 0.56489 0.0
C1589 C 0.9031 0.78803 0.58932 0.0
C1590 C 0.9087 0.78175 0.52312 0.0
C1591 C 0.8949 0.78636 0.51228 0.0
C1592 C 0.92156 0.778 0.50876 0.0
C1593 C 0.93675 0.77407 0.51925 0.0
C1594 C 0.94369 0.78387 0.53605 0.0
C1595 C 0.95793 0.78006 0.54603 0.0
C1596 C 0.9654 0.76651 0.53928 0.0
C1597 C 0.95866 0.75675 0.52249 0.0
C1598 C 0.94441 0.7605 0.51246 0.0
C1599 C 0.89825 0.79209 0.4085 0.0
C1600 C 0.90081 0.77784 0.3973 0.0
C1601 C 0.9002 0.7936 0.4331 0.0
C1602 C 0.90469 0.78089 0.44687 0.0
C1603 C 0.90757 0.76676 0.43564 0.0
C1604 C 0.9056 0.76523 0.41112 0.0
C1605 C 0.90595 0.78202 0.47309 0.0
C1606 C 0.91997 0.77809 0.48391 0.0
C1607 C 0.89331 0.78641 0.48744 0.0
C1608 C 0.87805 0.79019 0.47715 0.0
C1609 C 0.8701 0.77938 0.46315 0.0
C1610 C 0.85576 0.78307 0.4534 0.0
C1611 C 0.84919 0.79749 0.45771 0.0
C1612 C 0.85693 0.80822 0.47183 0.0
C1613 C 0.87129 0.8046 0.4816 0.0
H1614 H 0.83808 0.80032 0.45015 0.0
H1615 H 0.97642 0.76358 0.54704 0.0
H1616 H 0.72631 0.58379 0.59062 0.0
H1617 H 0.72791 0.5848 0.54729 0.0
H1618 H 0.70587 0.62931 0.54763 0.0
H1619 H 0.70389 0.62822 0.59104 0.0
H1620 H 0.69618 0.61259 0.51051 0.0
H1621 H 0.74474 0.6266 0.54388 0.0
H1622 H 0.76755 0.62374 0.56964 0.0
H1623 H 0.77975 0.58198 0.53338 0.0
H1624 H 0.75686 0.58446 0.50764 0.0
H1625 H 0.72552 0.63501 0.39584 0.0
H1626 H 0.71997 0.63394 0.43856 0.0
H1627 H 0.73594 0.58697 0.44083 0.0
H1628 H 0.74141 0.58787 0.39818 0.0
H1629 H 0.74853 0.60616 0.47647 0.0
H1630 H 0.699 0.5931 0.44285 0.0
H1631 H 0.67639 0.59739 0.41715 0.0
H1632 H 0.66663 0.63964 0.45382 0.0
H1633 H 0.68933 0.63571 0.47953 0.0
C1634 C 0.72161 0.59371 0.58147 0.0
C1635 C 0.71513 0.60601 0.59427 0.0
C1636 C 0.72259 0.5943 0.55671 0.0
C1637 C 0.71734 0.6073 0.54429 0.0
C1638 C 0.71008 0.61921 0.55688 0.0
C1639 C 0.70897 0.61857 0.58169 0.0
C1640 C 0.72016 0.60874 0.51837 0.0
C1641 C 0.70765 0.61137 0.50309 0.0
C1642 C 0.73513 0.6071 0.50869 0.0
C1643 C 0.749 0.60564 0.52398 0.0
C1644 C 0.75223 0.61675 0.54151 0.0
C1645 C 0.76518 0.61521 0.55609 0.0
C1646 C 0.77507 0.60266 0.55318 0.0
C1647 C 0.77206 0.59168 0.53563 0.0
C1648 C 0.75911 0.59315 0.52103 0.0
C1649 C 0.72781 0.62444 0.40543 0.0
C1650 C 0.73391 0.61152 0.39366 0.0
C1651 C 0.72458 0.62384 0.42978 0.0
C1652 C 0.7275 0.61035 0.44275 0.0
C1653 C 0.73361 0.59747 0.43108 0.0
C1654 C 0.73668 0.598 0.40671 0.0
C1655 C 0.72454 0.60974 0.46865 0.0
C1656 C 0.73707 0.60736 0.48393 0.0
C1657 C 0.70965 0.61187 0.47831 0.0
C1658 C 0.69596 0.61419 0.46294 0.0
C1659 C 0.69212 0.60338 0.4453 0.0
C1660 C 0.67927 0.60572 0.43076 0.0
C1661 C 0.67011 0.6188 0.4338 0.0
C1662 C 0.67375 0.62953 0.45145 0.0
C1663 C 0.6866 0.62724 0.46602 0.0
H1664 H 0.66016 0.62059 0.42253 0.0
H1665 H 0.78506 0.60145 0.56451 0.0
H1666 H 0.41121 0.7429 0.41144 0.0
H1667 H 0.41477 0.73885 0.45398 0.0
H1668 H 0.41079 0.68979 0.44393 0.0
H1669 H 0.40704 0.69376 0.40113 0.0
H1670 H 0.39314 0.69978 0.48051 0.0
H1671 H 0.44539 0.70502 0.45722 0.0
H1672 H 0.46771 0.71654 0.4368 0.0
H1673 H 0.46209 0.75806 0.4773 0.0
H1674 H 0.43959 0.74689 0.49773 0.0
H1675 H 0.40823 0.69345 0.60545 0.0
H1676 H 0.41171 0.68968 0.56255 0.0
H1677 H 0.41463 0.73884 0.55276 0.0
H1678 H 0.41132 0.7427 0.5954 0.0
H1679 H 0.43588 0.72368 0.52599 0.0
H1680 H 0.38113 0.7198 0.54344 0.0
H1681 H 0.3585 0.70857 0.56349 0.0
H1682 H 0.36907 0.66434 0.53355 0.0
H1683 H 0.39189 0.67529 0.51356 0.0
C1684 C 0.41118 0.73123 0.41819 0.0
C1685 C 0.40883 0.71865 0.40289 0.0
C1686 C 0.41332 0.72892 0.44252 0.0
C1687 C 0.41325 0.714 0.45207 0.0
C1688 C 0.41096 0.70139 0.43688 0.0
C1689 C 0.40885 0.70369 0.41244 0.0
C1690 C 0.41477 0.71183 0.47812 0.0
C1691 C 0.40267 0.70467 0.49043 0.0
C1692 C 0.42713 0.71836 0.49105 0.0
C1693 C 0.44073 0.72513 0.47892 0.0
C1694 C 0.44884 0.71665 0.46166 0.0
C1695 C 0.46154 0.72311 0.4501 0.0
C1696 C 0.4663 0.73803 0.45573 0.0
C1697 C 0.45839 0.7465 0.47297 0.0
C1698 C 0.44567 0.7401 0.48457 0.0
C1699 C 0.40976 0.70344 0.59417 0.0
C1700 C 0.40938 0.71838 0.6038 0.0
C1701 C 0.41171 0.70126 0.56968 0.0
C1702 C 0.4133 0.71399 0.55448 0.0
C1703 C 0.41345 0.72886 0.56418 0.0
C1704 C 0.41147 0.73104 0.58857 0.0
C1705 C 0.41402 0.71209 0.52831 0.0
C1706 C 0.42654 0.71848 0.516 0.0
C1707 C 0.40206 0.70485 0.51538 0.0
C1708 C 0.38831 0.69831 0.52727 0.0
C1709 C 0.37869 0.70765 0.54129 0.0
C1710 C 0.36582 0.70135 0.55262 0.0
C1711 C 0.36238 0.68574 0.54987 0.0
C1712 C 0.37177 0.67642 0.53571 0.0
C1713 C 0.38467 0.68267 0.52438 0.0
H1714 H 0.35241 0.68088 0.55865 0.0
H1715 H 0.47614 0.74301 0.44676 0.0
H1716 H 0.25287 0.36856 0.40341 0.0
H1717 H 0.25245 0.37369 0.44608 0.0
H1718 H 0.27206 0.41862 0.43389 0.0
H1719 H 0.2728 0.41346 0.39108 0.0
H1720 H 0.28531 0.40485 0.47149 0.0
H1721 H 0.23401 0.41472 0.4452 0.0
H1722 H 0.20955 0.40923 0.42463 0.0
H1723 H 0.20198 0.37028 0.47016 0.0
H1724 H 0.22654 0.37538 0.49076 0.0
H1725 H 0.26648 0.43113 0.58933 0.0
H1726 H 0.26823 0.42873 0.54594 0.0
H1727 H 0.25124 0.38218 0.55036 0.0
H1728 H 0.24942 0.38445 0.5935 0.0
H1729 H 0.23638 0.39905 0.5162 0.0
H1730 H 0.28863 0.38863 0.54075 0.0
H1731 H 0.31317 0.39432 0.56098 0.0
H1732 H 0.31863 0.43505 0.51854 0.0
H1733 H 0.294 0.4297 0.49828 0.0
C1734 C 0.25716 0.37952 0.40977 0.0
C1735 C 0.26282 0.39063 0.39385 0.0
C1736 C 0.25684 0.38246 0.43417 0.0
C1737 C 0.262 0.39663 0.44311 0.0
C1738 C 0.26798 0.40763 0.42733 0.0
C1739 C 0.26836 0.40467 0.40289 0.0
C1740 C 0.26105 0.39994 0.46893 0.0
C1741 C 0.27456 0.40384 0.48122 0.0
C1742 C 0.24705 0.39842 0.48163 0.0
C1743 C 0.23219 0.39537 0.46941 0.0
C1744 C 0.22719 0.40492 0.45072 0.0
C1745 C 0.2133 0.40188 0.43907 0.0
C1746 C 0.20423 0.38941 0.44607 0.0
C1747 C 0.20902 0.37995 0.46477 0.0
C1748 C 0.22292 0.38291 0.47644 0.0
C1749 C 0.26317 0.42037 0.58106 0.0
C1750 C 0.25781 0.40799 0.59487 0.0
C1751 C 0.26421 0.41901 0.5563 0.0
C1752 C 0.2599 0.40526 0.545 0.0
C1753 C 0.25459 0.3929 0.55875 0.0
C1754 C 0.25361 0.39421 0.58343 0.0
C1755 C 0.26067 0.4037 0.51879 0.0
C1756 C 0.24709 0.40017 0.50643 0.0
C1757 C 0.27458 0.40564 0.50604 0.0
C1758 C 0.28939 0.40886 0.5182 0.0
C1759 C 0.29499 0.39887 0.53589 0.0
C1760 C 0.30893 0.40202 0.54733 0.0
C1761 C 0.31743 0.41506 0.54111 0.0
C1762 C 0.31202 0.42497 0.52338 0.0
C1763 C 0.29808 0.42188 0.5119 0.0
H1764 H 0.32822 0.41748 0.54998 0.0
H1765 H 0.19347 0.38708 0.43703 0.0
H1766 H 0.61226 0.2974 0.59734 0.0
H1767 H 0.60996 0.29956 0.55404 0.0
H1768 H 0.58984 0.25421 0.5511 0.0
H1769 H 0.59232 0.25184 0.59416 0.0
H1770 H 0.61177 0.25743 0.51828 0.0
H1771 H 0.5679 0.28686 0.54495 0.0
H1772 H 0.55478 0.3074 0.56745 0.0
H1773 H 0.58132 0.34158 0.53055 0.0
H1774 H 0.59475 0.32122 0.50805 0.0
H1775 H 0.58196 0.25389 0.40378 0.0
H1776 H 0.58252 0.25635 0.44699 0.0
H1777 H 0.60496 0.30043 0.44063 0.0
H1778 H 0.60426 0.29818 0.39715 0.0
H1779 H 0.5834 0.29949 0.47766 0.0
H1780 H 0.62649 0.27014 0.44983 0.0
H1781 H 0.63903 0.24965 0.42646 0.0
H1782 H 0.614 0.21536 0.46557 0.0
H1783 H 0.60108 0.23568 0.48889 0.0
C1784 C 0.6073 0.28791 0.58747 0.0
C1785 C 0.60248 0.27445 0.59919 0.0
C1786 C 0.60593 0.28919 0.56275 0.0
C1787 C 0.59962 0.27709 0.54938 0.0
C1788 C 0.59476 0.26368 0.56107 0.0
C1789 C 0.59616 0.26237 0.58571 0.0
C1790 C 0.59842 0.2781 0.52311 0.0
C1791 C 0.60543 0.26654 0.50944 0.0
C1792 C 0.59054 0.29026 0.51154 0.0
C1793 C 0.58245 0.30251 0.52501 0.0
C1794 C 0.57103 0.29875 0.54178 0.0
C1795 C 0.56351 0.31036 0.5545 0.0
C1796 C 0.56724 0.32578 0.55048 0.0
C1797 C 0.57846 0.32963 0.53367 0.0
C1798 C 0.58602 0.31806 0.52092 0.0
C1799 C 0.58682 0.26423 0.41151 0.0
C1800 C 0.59326 0.27575 0.39706 0.0
C1801 C 0.58714 0.2656 0.43621 0.0
C1802 C 0.59405 0.27842 0.44695 0.0
C1803 C 0.59964 0.29041 0.43263 0.0
C1804 C 0.59926 0.28908 0.40782 0.0
C1805 C 0.59645 0.27864 0.47301 0.0
C1806 C 0.58978 0.29044 0.48657 0.0
C1807 C 0.60467 0.26672 0.48455 0.0
C1808 C 0.61272 0.25445 0.47099 0.0
C1809 C 0.62359 0.25824 0.45336 0.0
C1810 C 0.63077 0.24665 0.44012 0.0
C1811 C 0.62729 0.23121 0.44449 0.0
C1812 C 0.61667 0.22733 0.46219 0.0
C1813 C 0.60942 0.23887 0.47544 0.0
H1814 H 0.63283 0.22226 0.43419 0.0
H1815 H 0.56141 0.33476 0.56035 0.0
H1816 H 0.74898 0.40813 0.90347 0.0
H1817 H 0.74559 0.40834 0.94651 0.0
H1818 H 0.69832 0.39411 0.93812 0.0
H1819 H 0.70156 0.39403 0.89477 0.0
H1820 H 0.70163 0.41634 0.97279 0.0
H1821 H 0.72411 0.36793 0.95328 0.0
H1822 H 0.74259 0.35021 0.93436 0.0
H1823 H 0.77967 0.37102 0.97331 0.0
H1824 H 0.76143 0.38904 0.99222 0.0
H1825 H 0.69699 0.39316 0.09621 0.0
H1826 H 0.69575 0.39408 0.05265 0.0
H1827 H 0.74319 0.40866 0.05009 0.0
H1828 H 0.74458 0.40772 0.09338 0.0
H1829 H 0.73752 0.38445 0.02066 0.0
H1830 H 0.71453 0.43374 0.03876 0.0
H1831 H 0.6956 0.45102 0.05761 0.0
H1832 H 0.65882 0.42766 0.02151 0.0
H1833 H 0.67754 0.41009 0.00269 0.0
C1834 C 0.73782 0.40513 0.9107 0.0
C1835 C 0.72557 0.40093 0.89568 0.0
C1836 C 0.73592 0.40522 0.93533 0.0
C1837 C 0.72178 0.40101 0.94549 0.0
C1838 C 0.70934 0.39734 0.93059 0.0
C1839 C 0.71123 0.39726 0.90586 0.0
C1840 C 0.72028 0.4 0.97169 0.0
C1841 C 0.7093 0.40919 0.98328 0.0
C1842 C 0.73038 0.39075 0.98532 0.0
C1843 C 0.74141 0.37992 0.97403 0.0
C1844 C 0.73622 0.36881 0.95768 0.0
C1845 C 0.74665 0.3587 0.94697 0.0
C1846 C 0.7623 0.3595 0.9526 0.0
C1847 C 0.76755 0.37042 0.96896 0.0
C1848 C 0.75716 0.38057 0.9797 0.0
C1849 C 0.70711 0.39671 0.08637 0.0
C1850 C 0.7209 0.4003 0.09826 0.0
C1851 C 0.70637 0.39726 0.0615 0.0
C1852 C 0.71939 0.40145 0.04818 0.0
C1853 C 0.73304 0.40535 0.06005 0.0
C1854 C 0.73378 0.40484 0.08482 0.0
C1855 C 0.71916 0.4011 0.02184 0.0
C1856 C 0.72978 0.39155 0.01019 0.0
C1857 C 0.70867 0.40993 0.00824 0.0
C1858 C 0.69742 0.42049 0.01953 0.0
C1859 C 0.7024 0.4322 0.03501 0.0
C1860 C 0.69171 0.44206 0.04565 0.0
C1861 C 0.67601 0.44041 0.04082 0.0
C1862 C 0.67098 0.42891 0.02528 0.0
C1863 C 0.68163 0.419 0.0146 0.0
H1864 H 0.66776 0.44806 0.04907 0.0
H1865 H 0.77033 0.35163 0.94434 0.0
H1866 H 0.58665 0.7445 0.09426 0.0
H1867 H 0.58111 0.74084 0.05221 0.0
H1868 H 0.57297 0.69251 0.06444 0.0
H1869 H 0.57864 0.69606 0.10689 0.0
H1870 H 0.59198 0.69753 0.02649 0.0
H1871 H 0.54294 0.71499 0.05124 0.0
H1872 H 0.52416 0.73135 0.07228 0.0
H1873 H 0.53869 0.77047 0.03137 0.0
H1874 H 0.55773 0.75441 0.01033 0.0
H1875 H 0.57549 0.69751 0.90092 0.0
H1876 H 0.57104 0.69361 0.94362 0.0
H1877 H 0.58129 0.74145 0.95663 0.0
H1878 H 0.58571 0.74544 0.91426 0.0
H1879 H 0.55602 0.73135 0.98205 0.0
H1880 H 0.60845 0.71465 0.96443 0.0
H1881 H 0.62768 0.69853 0.94388 0.0
H1882 H 0.60635 0.65778 0.97187 0.0
H1883 H 0.58686 0.67369 0.99233 0.0
C1884 C 0.58358 0.73309 0.08813 0.0
C1885 C 0.5831 0.72056 0.10393 0.0
C1886 C 0.58031 0.73104 0.06407 0.0
C1887 C 0.57642 0.71644 0.05526 0.0
C1888 C 0.57585 0.70388 0.07095 0.0
C1889 C 0.57907 0.70594 0.09516 0.0
C1890 C 0.57389 0.71441 0.02939 0.0
C1891 C 0.58381 0.7046 0.0168 0.0
C1892 C 0.56333 0.72374 0.01676 0.0
C1893 C 0.55182 0.73348 0.02926 0.0
C1894 C 0.54221 0.7271 0.04683 0.0
C1895 C 0.5315 0.73632 0.05874 0.0
C1896 C 0.53024 0.75194 0.05318 0.0
C1897 C 0.53967 0.75837 0.03566 0.0
C1898 C 0.55041 0.7492 0.0237 0.0
C1899 C 0.57666 0.70721 0.91288 0.0
C1900 C 0.58105 0.72176 0.90426 0.0
C1901 C 0.57414 0.70496 0.93723 0.0
C1902 C 0.5759 0.71723 0.95324 0.0
C1903 C 0.57982 0.73184 0.94455 0.0
C1904 C 0.58244 0.73407 0.92033 0.0
C1905 C 0.5745 0.71494 0.97925 0.0
C1906 C 0.56384 0.72394 0.99182 0.0
C1907 C 0.58436 0.70486 0.99185 0.0
C1908 C 0.59609 0.69533 0.97963 0.0
C1909 C 0.60779 0.70225 0.96603 0.0
C1910 C 0.61875 0.69315 0.95443 0.0
C1911 C 0.61821 0.67714 0.9565 0.0
C1912 C 0.60673 0.67019 0.97023 0.0
C1913 C 0.59573 0.67923 0.98183 0.0
H1914 H 0.6267 0.67011 0.94751 0.0
H1915 H 0.52195 0.75906 0.06243 0.0
H1916 H 0.25853 0.58663 0.10045 0.0
H1917 H 0.26431 0.58454 0.05807 0.0
H1918 H 0.28544 0.62947 0.05947 0.0
H1919 H 0.27941 0.63179 0.10183 0.0
H1920 H 0.26673 0.62698 0.02261 0.0
H1921 H 0.30729 0.59653 0.05519 0.0
H1922 H 0.31898 0.57627 0.08004 0.0
H1923 H 0.29355 0.54175 0.04205 0.0
H1924 H 0.28153 0.56182 0.01718 0.0
H1925 H 0.29538 0.62081 0.90522 0.0
H1926 H 0.29633 0.62183 0.9487 0.0
H1927 H 0.26888 0.58056 0.95264 0.0
H1928 H 0.2678 0.57947 0.90917 0.0
H1929 H 0.2931 0.58189 0.9868 0.0
H1930 H 0.25111 0.61286 0.95682 0.0
H1931 H 0.23977 0.63317 0.93168 0.0
H1932 H 0.26863 0.66695 0.96515 0.0
H1933 H 0.28034 0.64677 0.99022 0.0
C1934 C 0.26448 0.59604 0.09179 0.0
C1935 C 0.2685 0.60938 0.10451 0.0
C1936 C 0.26786 0.59479 0.06758 0.0
C1937 C 0.27549 0.60676 0.05566 0.0
C1938 C 0.27959 0.62007 0.06833 0.0
C1939 C 0.27614 0.62137 0.09254 0.0
C1940 C 0.27856 0.60566 0.02975 0.0
C1941 C 0.27277 0.61726 0.01486 0.0
C1942 C 0.28617 0.59283 0.01957 0.0
C1943 C 0.29341 0.5807 0.03445 0.0
C1944 C 0.3041 0.58463 0.05225 0.0
C1945 C 0.3108 0.57318 0.06632 0.0
C1946 C 0.30698 0.55774 0.06266 0.0
C1947 C 0.29648 0.55372 0.04488 0.0
C1948 C 0.28973 0.56513 0.03077 0.0
C1949 C 0.28977 0.6118 0.91531 0.0
C1950 C 0.28137 0.60015 0.90378 0.0
C1951 C 0.2903 0.61242 0.94013 0.0
C1952 C 0.28254 0.60136 0.95379 0.0
C1953 C 0.27493 0.5892 0.94236 0.0
C1954 C 0.27427 0.58864 0.91754 0.0
C1955 C 0.28123 0.60315 0.97987 0.0
C1956 C 0.28726 0.59167 0.99471 0.0
C1957 C 0.2739 0.61612 0.99005 0.0
C1958 C 0.26673 0.62828 0.97519 0.0
C1959 C 0.25513 0.6246 0.95868 0.0
C1960 C 0.24862 0.63609 0.94446 0.0
C1961 C 0.25351 0.65133 0.94676 0.0
C1962 C 0.26488 0.65513 0.96335 0.0
C1963 C 0.27146 0.64367 0.97757 0.0
H1964 H 0.24845 0.66021 0.93574 0.0
H1965 H 0.31219 0.54889 0.07357 0.0
H1966 H 0.4082 0.29837 0.88137 0.0
H1967 H 0.40782 0.30205 0.92464 0.0
H1968 H 0.39425 0.25468 0.934 0.0
H1969 H 0.39444 0.25095 0.89106 0.0
H1970 H 0.37718 0.27371 0.96119 0.0
H1971 H 0.4312 0.26609 0.94297 0.0
H1972 H 0.45575 0.2721 0.92299 0.0
H1973 H 0.45541 0.31734 0.95371 0.0
H1974 H 0.43073 0.31166 0.97365 0.0
H1975 H 0.39744 0.25066 0.07604 0.0
H1976 H 0.39638 0.25464 0.03313 0.0
H1977 H 0.40652 0.30282 0.04284 0.0
H1978 H 0.40756 0.29896 0.08609 0.0
H1979 H 0.42399 0.28846 0.00641 0.0
H1980 H 0.37151 0.29437 0.02916 0.0
H1981 H 0.34735 0.28769 0.04973 0.0
H1982 H 0.3449 0.24527 0.01072 0.0
H1983 H 0.36918 0.25159 0.99016 0.0
C1984 C 0.40514 0.28875 0.89267 0.0
C1985 C 0.40137 0.27436 0.88278 0.0
C1986 C 0.40496 0.29086 0.91736 0.0
C1987 C 0.40107 0.27861 0.9325 0.0
C1988 C 0.39723 0.2643 0.92263 0.0
C1989 C 0.39741 0.26218 0.89805 0.0
C1990 C 0.40098 0.28047 0.95869 0.0
C1991 C 0.38743 0.27688 0.97109 0.0
C1992 C 0.41422 0.2851 0.97153 0.0
C1993 C 0.42903 0.28852 0.95954 0.0
C1994 C 0.43629 0.27737 0.94529 0.0
C1995 C 0.45024 0.2807 0.93401 0.0
C1996 C 0.45711 0.29511 0.93701 0.0
C1997 C 0.45006 0.3062 0.95136 0.0
C1998 C 0.4361 0.30293 0.96266 0.0
C1999 C 0.39947 0.26212 0.06912 0.0
C2000 C 0.40255 0.27451 0.08447 0.0
C2001 C 0.39879 0.26438 0.04459 0.0
C2002 C 0.40122 0.27905 0.0349 0.0
C2003 C 0.40456 0.29143 0.05006 0.0
C2004 C 0.4051 0.2892 0.07471 0.0
C2005 C 0.40033 0.28121 0.00883 0.0
C2006 C 0.41367 0.28558 0.99648 0.0
C2007 C 0.3869 0.27725 0.996 0.0
C2008 C 0.37224 0.27342 0.00823 0.0
C2009 C 0.36589 0.28357 0.02509 0.0
C2010 C 0.35216 0.27985 0.03673 0.0
C2011 C 0.34461 0.26605 0.03156 0.0
C2012 C 0.35076 0.25596 0.01471 0.0
C2013 C 0.3645 0.25961 0.00303 0.0
H2014 H 0.33398 0.2632 0.04059 0.0
H2015 H 0.46792 0.29767 0.92827 0.0
H2016 H 0.25454 0.05174 0.20372 0.0
H2017 H 0.25492 0.02686 0.22402 0.0
H2018 H 0.20721 0.01976 0.20568 0.0
H2019 H 0.20666 0.04468 0.1856 0.0
H2020 H 0.21258 0.01358 0.25191 0.0
H2021 H 0.23555 0.00038 0.17679 0.0
H2022 H 0.25415 0.0028 0.14384 0.0
H2023 H 0.29147 0.99411 0.19213 0.0
H2024 H 0.2731 0.99185 0.22544 0.0
H2025 H 0.20646 0.93489 0.28225 0.0
H2026 H 0.20691 0.95932 0.26083 0.0
H2027 H 0.25495 0.96499 0.27831 0.0
H2028 H 0.25469 0.94038 0.29939 0.0
H2029 H 0.24976 0.97202 0.23277 0.0
H2030 H 0.22703 0.9852 0.30784 0.0
H2031 H 0.2086 0.9829 0.34104 0.0
H2032 H 0.17107 0.99186 0.29326 0.0
H2033 H 0.18926 0.99401 0.25971 0.0
C2034 C 0.24415 0.04485 0.20389 0.0
C2035 C 0.23056 0.05018 0.19306 0.0
C2036 C 0.24441 0.03061 0.21542 0.0
C2037 C 0.23112 0.02143 0.21619 0.0
C2038 C 0.21758 0.02669 0.20528 0.0
C2039 C 0.21731 0.04091 0.19377 0.0
C2040 C 0.23118 0.00655 0.229 0.0
C2041 C 0.22056 0.0044 0.24752 0.0
C2042 C 0.24189 0.99477 0.22367 0.0
C2043 C 0.25296 0.9961 0.20365 0.0
C2044 C 0.24773 -0.00089 0.18042 0.0
C2045 C 0.25823 0.00043 0.16167 0.0
C2046 C 0.27398 -0.00135 0.1659 0.0
C2047 C 0.27927 0.99551 0.18888 0.0
C2048 C 0.26881 0.99419 0.2077 0.0
C2049 C 0.21712 0.94134 0.28159 0.0
C2050 C 0.23053 0.93573 0.2926 0.0
C2051 C 0.21734 0.95533 0.2694 0.0
C2052 C 0.23091 0.96406 0.26824 0.0
C2053 C 0.24435 0.95844 0.27903 0.0
C2054 C 0.24416 0.9444 0.29112 0.0
C2055 C 0.2311 0.97902 0.25562 0.0
C2056 C 0.24177 0.9812 0.23717 0.0
C2057 C 0.22047 0.99086 0.26106 0.0
C2058 C 0.2095 0.98963 0.28122 0.0
C2059 C 0.21484 0.98656 0.30438 0.0
C2060 C 0.20443 0.98531 0.32327 0.0
C2061 C 0.18867 0.98719 0.31925 0.0
C2062 C 0.18328 0.99038 0.29634 0.0
C2063 C 0.19363 0.99164 0.27739 0.0
H2064 H 0.18063 0.98621 0.3339 0.0
H2065 H 0.2821 -0.00033 0.15136 0.0
H2066 H 0.96158 0.2525 0.16944 0.0
H2067 H 0.9854 0.25422 0.19248 0.0
H2068 H 0.95989 0.24671 0.25729 0.0
H2069 H 0.93598 0.24489 0.2344 0.0
H2070 H 0.98213 0.27062 0.26031 0.0
H2071 H 0.97818 0.21771 0.23525 0.0
H2072 H 0.97496 0.19682 0.20597 0.0
H2073 H 0.01559 0.21181 0.1691 0.0
H2074 H 0.01892 0.23294 0.19798 0.0
H2075 H 0.04355 0.25036 0.33752 0.0
H2076 H 0.01974 0.25157 0.31448 0.0
H2077 H 0.04604 0.25168 0.2493 0.0
H2078 H 0.06988 0.25006 0.2722 0.0
H2079 H 0.0233 0.23211 0.24594 0.0
H2080 H 0.02801 0.28454 0.27074 0.0
H2081 H 0.03138 0.30594 0.29908 0.0
H2082 H 0.98985 0.29282 0.33523 0.0
H2083 H 0.98634 0.2712 0.30729 0.0
C2084 C 0.96101 0.2513 0.18861 0.0
C2085 C 0.94692 0.24847 0.2001 0.0
C2086 C 0.97463 0.25226 0.20171 0.0
C2087 C 0.97437 0.25048 0.22652 0.0
C2088 C 0.96028 0.2481 0.23814 0.0
C2089 C 0.94667 0.247 0.22503 0.0
C2090 C 0.98888 0.25062 0.24026 0.0
C2091 C 0.99109 0.26212 0.25742 0.0
C2092 C 0.00065 0.23974 0.23595 0.0
C2093 C -0.00129 0.227 0.21863 0.0
C2094 C 0.98635 0.21663 0.22078 0.0
C2095 C 0.98452 0.20473 0.20428 0.0
C2096 C 0.99504 0.20301 0.18564 0.0
C2097 C 0.00743 0.21317 0.18352 0.0
C2098 C 0.00931 0.2251 0.19996 0.0
C2099 C 0.04428 0.25074 0.31828 0.0
C2100 C 0.0586 0.2501 0.30668 0.0
C2101 C 0.03065 0.25151 0.30514 0.0
C2102 C 0.03111 0.25189 0.28016 0.0
C2103 C 0.04541 0.2514 0.26855 0.0
C2104 C 0.05903 0.2505 0.28167 0.0
C2105 C 0.01667 0.25217 0.26609 0.0
C2106 C 0.01442 0.2407 0.24885 0.0
C2107 C 0.00493 0.26316 0.27022 0.0
C2108 C 0.00699 0.27616 0.28705 0.0
C2109 C 0.01966 0.28614 0.28485 0.0
C2110 C 0.02158 0.29833 0.30082 0.0
C2111 C 0.01086 0.30072 0.31898 0.0
C2112 C 0.99816 0.29095 0.32117 0.0
C2113 C 0.99619 0.27873 0.30526 0.0
H2114 H 0.01237 0.31016 0.33133 0.0
H2115 H 0.9936 0.19379 0.17289 0.0
H2116 H 0.79518 0.05033 0.30341 0.0
H2117 H 0.79413 0.0262 0.28121 0.0
H2118 H 0.74456 0.02898 0.27912 0.0
H2119 H 0.74547 0.05311 0.30151 0.0
H2120 H 0.75486 -0.00017 0.28983 0.0
H2121 H 0.76463 0.03871 0.2311 0.0
H2122 H 0.77827 0.06087 0.2136 0.0
H2123 H 0.81996 0.0344 0.2101 0.0
H2124 H 0.80662 0.01214 0.22791 0.0
H2125 H 0.74402 0.94365 0.19912 0.0
H2126 H 0.74386 0.96748 0.22227 0.0
H2127 H 0.79353 0.96756 0.22316 0.0
H2128 H 0.79382 0.94389 0.19975 0.0
H2129 H 0.78245 0.99551 0.21276 0.0
H2130 H 0.77303 0.95682 0.27202 0.0
H2131 H 0.75967 0.93467 0.29006 0.0
H2132 H 0.71765 0.96066 0.29296 0.0
H2133 H 0.73072 0.9829 0.27462 0.0
C2134 C 0.78404 0.0458 0.29833 0.0
C2135 C 0.77041 0.05368 0.30411 0.0
C2136 C 0.78347 0.03203 0.28557 0.0
C2137 C 0.76928 0.02592 0.2783 0.0
C2138 C 0.75562 0.03354 0.28454 0.0
C2139 C 0.75618 0.04735 0.29726 0.0
C2140 C 0.76873 0.01168 0.26389 0.0
C2141 C 0.7607 -0.00108 0.27281 0.0
C2142 C 0.77663 0.01047 0.24194 0.0
C2143 C 0.78465 0.0238 0.23105 0.0
C2144 C 0.77673 0.03765 0.22676 0.0
C2145 C 0.78441 0.05022 0.21676 0.0
C2146 C 0.79998 0.04906 0.2108 0.0
C2147 C 0.8079 0.03529 0.21476 0.0
C2148 C 0.80029 0.02269 0.22479 0.0
C2149 C 0.75491 0.94873 0.20426 0.0
C2150 C 0.76894 0.94187 0.19763 0.0
C2151 C 0.7548 0.96231 0.21756 0.0
C2152 C 0.76869 0.9692 0.22462 0.0
C2153 C 0.78269 0.96242 0.21789 0.0
C2154 C 0.78282 0.94887 0.20456 0.0
C2155 C 0.76867 0.98358 0.23877 0.0
C2156 C 0.77658 0.9964 0.22976 0.0
C2157 C 0.76069 0.98482 0.26065 0.0
C2158 C 0.75282 0.97147 0.27171 0.0
C2159 C 0.76091 0.95777 0.27632 0.0
C2160 C 0.7534 0.9452 0.28664 0.0
C2161 C 0.73781 0.94624 0.29259 0.0
C2162 C 0.72972 0.95986 0.2883 0.0
C2163 C 0.73717 0.97246 0.27796 0.0
H2164 H 0.73201 0.9365 0.30059 0.0
H2165 H 0.8059 0.05881 0.20306 0.0
H2166 H 0.06092 0.79029 0.22212 0.0
H2167 H 0.036 0.79052 0.24231 0.0
H2168 H 0.02736 0.74413 0.21846 0.0
H2169 H 0.05223 0.74382 0.19807 0.0
H2170 H 0.00259 0.76295 0.21158 0.0
H2171 H 0.03735 0.75045 0.27503 0.0
H2172 H 0.06012 0.75387 0.30069 0.0
H2173 H 0.04296 0.79775 0.32377 0.0
H2174 H 0.02017 0.79469 0.29797 0.0
H2175 H 0.93897 0.74634 0.28611 0.0
H2176 H 0.96414 0.74599 0.26675 0.0
H2177 H 0.97296 0.79211 0.29167 0.0
H2178 H 0.94784 0.79253 0.31134 0.0
H2179 H 0.99768 0.77346 0.29807 0.0
H2180 H 0.963 0.78605 0.23458 0.0
H2181 H 0.94023 0.78271 0.20889 0.0
H2182 H 0.95727 0.73878 0.1858 0.0
H2183 H 0.98005 0.74177 0.21163 0.0
C2184 C 0.05374 0.78012 0.22119 0.0
C2185 C 0.05855 0.76703 0.20853 0.0
C2186 C 0.03953 0.78026 0.23281 0.0
C2187 C 0.02992 0.76729 0.23203 0.0
C2188 C 0.03464 0.75424 0.21928 0.0
C2189 C 0.04886 0.75407 0.20772 0.0
C2190 C 0.01482 0.76744 0.2442 0.0
C2191 C 0.00151 0.76503 0.23055 0.0
C2192 C 0.01345 0.77054 0.26883 0.0
C2193 C 0.02713 0.77241 0.28437 0.0
C2194 C 0.03849 0.76089 0.28541 0.0
C2195 C 0.05139 0.76275 0.30002 0.0
C2196 C 0.05301 0.77604 0.3138 0.0
C2197 C 0.0417 0.78748 0.31305 0.0
C2198 C 0.02879 0.78568 0.29846 0.0
C2199 C 0.94625 0.75642 0.28748 0.0
C2200 C 0.94139 0.76949 0.30018 0.0
C2201 C 0.96061 0.75621 0.27633 0.0
C2202 C 0.97032 0.76908 0.27757 0.0
C2203 C 0.9656 0.78207 0.29048 0.0
C2204 C 0.95123 0.7823 0.30164 0.0
C2205 C 0.98545 0.76896 0.26545 0.0
C2206 C -0.00124 0.77138 0.2791 0.0
C2207 C 0.98683 0.76589 0.24081 0.0
C2208 C 0.97315 0.76407 0.22522 0.0
C2209 C 0.96183 0.77562 0.22418 0.0
C2210 C 0.94893 0.7738 0.20956 0.0
C2211 C 0.94728 0.76052 0.19577 0.0
C2212 C 0.95855 0.74905 0.19652 0.0
C2213 C 0.97147 0.75081 0.21113 0.0
H2214 H 0.93729 0.75914 0.18446 0.0
H2215 H 0.063 0.77746 0.3251 0.0
H2216 H 0.75209 0.94442 0.80202 0.0
H2217 H 0.74916 0.9686 0.78051 0.0
H2218 H 0.75545 0.94479 0.71383 0.0
H2219 H 0.75859 0.92045 0.7353 0.0
H2220 H 0.77245 0.97075 0.71569 0.0
H2221 H 0.72019 0.9573 0.72918 0.0
H2222 H 0.69747 0.9489 0.75202 0.0
H2223 H 0.70089 0.98903 0.79629 0.0
H2224 H 0.72379 0.99757 0.77393 0.0
H2225 H 0.74947 0.03875 0.65142 0.0
H2226 H 0.74956 0.01227 0.66652 0.0
H2227 H 0.75011 0.02938 0.73856 0.0
H2228 H 0.75024 0.05582 0.7237 0.0
H2229 H 0.728 0.00553 0.72951 0.0
H2230 H 0.78195 0.01723 0.71756 0.0
H2231 H 0.80445 0.02542 0.69398 0.0
H2232 H 0.79704 0.98804 0.64531 0.0
H2233 H 0.77434 0.97977 0.66844 0.0
C2234 C 0.75279 0.94428 0.78277 0.0
C2235 C 0.75555 0.9305 0.77036 0.0
C2236 C 0.75103 0.95811 0.77049 0.0
C2237 C 0.7519 0.95845 0.74556 0.0
C2238 C 0.75469 0.94475 0.73308 0.0
C2239 C 0.75644 0.93086 0.74537 0.0
C2240 C 0.75036 0.97327 0.73277 0.0
C2241 C 0.76258 0.97822 0.71832 0.0
C2242 C 0.73757 0.98309 0.73644 0.0
C2243 C 0.72379 0.97801 0.74998 0.0
C2244 C 0.71618 0.96428 0.74391 0.0
C2245 C 0.70325 0.9595 0.75675 0.0
C2246 C 0.69776 0.96841 0.77563 0.0
C2247 C 0.70517 0.98213 0.78167 0.0
C2248 C 0.71811 0.98696 0.7689 0.0
C2249 C 0.74958 0.03686 0.67047 0.0
C2250 C 0.74989 0.04934 0.6864 0.0
C2251 C 0.74966 0.02176 0.67904 0.0
C2252 C 0.74986 0.01894 0.70362 0.0
C2253 C 0.74993 0.03136 0.71953 0.0
C2254 C 0.75008 0.04644 0.711 0.0
C2255 C 0.75019 0.00305 0.71291 0.0
C2256 C 0.73774 0.99793 0.72666 0.0
C2257 C 0.7627 0.99304 0.70845 0.0
C2258 C 0.77633 0.998 0.69455 0.0
C2259 C 0.78502 0.01085 0.70169 0.0
C2260 C 0.79783 0.01549 0.68844 0.0
C2261 C 0.80214 0.00729 0.66811 0.0
C2262 C 0.79367 0.99441 0.66103 0.0
C2263 C 0.78083 0.98973 0.67421 0.0
H2264 H 0.81206 0.01089 0.65788 0.0
H2265 H 0.68774 0.96469 0.78554 0.0
H2266 H 0.96344 0.75317 0.66451 0.0
H2267 H 0.98586 0.75 0.69025 0.0
H2268 H 0.95656 0.73364 0.74685 0.0
H2269 H 0.93401 0.73698 0.72133 0.0
H2270 H 0.97638 0.75493 0.76264 0.0
H2271 H 0.97962 0.7088 0.71668 0.0
H2272 H 0.98021 0.69311 0.68014 0.0
H2273 H 0.02112 0.71653 0.65715 0.0
H2274 H 0.02066 0.73252 0.69342 0.0
H2275 H 0.04008 0.73427 0.83588 0.0
H2276 H 0.01667 0.73217 0.81183 0.0
H2277 H 0.04122 0.74968 0.75083 0.0
H2278 H 0.06465 0.75165 0.77456 0.0
H2279 H 0.02294 0.72555 0.73903 0.0
H2280 H 0.01833 0.77303 0.78311 0.0
H2281 H 0.01768 0.78903 0.81935 0.0
H2282 H 0.97921 0.76306 0.84562 0.0
H2283 H 0.97977 0.74677 0.80964 0.0
C2284 C 0.96176 0.74881 0.68238 0.0
C2285 C 0.94694 0.74533 0.69088 0.0
C2286 C 0.9746 0.74693 0.69703 0.0
C2287 C 0.97289 0.74143 0.72038 0.0
C2288 C 0.95813 0.73787 0.72887 0.0
C2289 C 0.94527 0.73976 0.71424 0.0
C2290 C 0.98645 0.74004 0.73621 0.0
C2291 C 0.98645 0.74826 0.7577 0.0
C2292 C -0.00032 0.73158 0.72951 0.0
C2293 C 3e-05 0.72195 0.70769 0.0
C2294 C 0.98868 0.71069 0.70375 0.0
C2295 C 0.989 0.70172 0.6831 0.0
C2296 C 0.00068 0.70384 0.66631 0.0
C2297 C 0.01208 0.71491 0.67017 0.0
C2298 C 0.0118 0.72391 0.69078 0.0
C2299 C 0.04051 0.73759 0.81731 0.0
C2300 C 0.0542 0.74321 0.80716 0.0
C2301 C 0.02712 0.73642 0.80363 0.0
C2302 C 0.0272 0.74091 0.77962 0.0
C2303 C 0.04093 0.74615 0.76932 0.0
C2304 C 0.05429 0.74733 0.78296 0.0
C2305 C 0.01291 0.74058 0.76528 0.0
C2306 C 0.01278 0.73206 0.74408 0.0
C2307 C -0.00044 0.74877 0.77222 0.0
C2308 C -0.00079 0.75857 0.79383 0.0
C2309 C 0.00982 0.77065 0.79671 0.0
C2310 C 0.00945 0.77979 0.81718 0.0
C2311 C -0.00156 0.77703 0.83481 0.0
C2312 C 0.98775 0.76516 0.83197 0.0
C2313 C 0.98808 0.75598 0.81154 0.0
H2314 H 0.99817 0.78412 0.85064 0.0
H2315 H 0.00091 0.69689 0.65033 0.0
H2316 H 0.20241 0.94163 0.71152 0.0
H2317 H 0.20209 0.96665 0.73125 0.0
H2318 H 0.25139 0.96999 0.72344 0.0
H2319 H 0.25187 0.9448 0.70405 0.0
H2320 H 0.24248 0.97897 0.76697 0.0
H2321 H 0.22731 0.98978 0.68656 0.0
H2322 H 0.21189 0.9867 0.65002 0.0
H2323 H 0.17095 -0.0009 0.68835 0.0
H2324 H 0.18611 0.00205 0.72521 0.0
H2325 H 0.24966 0.05911 0.78852 0.0
H2326 H 0.24993 0.03361 0.77026 0.0
H2327 H 0.20082 0.02996 0.7803 0.0
H2328 H 0.2004 0.05555 0.79841 0.0
H2329 H 0.20954 0.0211 0.73591 0.0
H2330 H 0.22497 0.01059 0.81632 0.0
H2331 H 0.24059 0.01379 0.85264 0.0
H2332 H 0.28129 0.00102 0.81399 0.0
H2333 H 0.26594 0.99795 0.77734 0.0
C2334 C 0.2132 0.94766 0.71401 0.0
C2335 C 0.22716 0.94127 0.70611 0.0
C2336 C 0.21298 0.96199 0.72522 0.0
C2337 C 0.22669 0.97027 0.7285 0.0
C2338 C 0.24068 0.9638 0.72102 0.0
C2339 C 0.24092 0.94943 0.7099 0.0
C2340 C 0.22641 0.9857 0.73967 0.0
C2341 C 0.23544 0.98825 0.76001 0.0
C2342 C 0.21696 0.99769 0.73086 0.0
C2343 C 0.20783 0.99599 0.70869 0.0
C2344 C 0.215 0.99174 0.68723 0.0
C2345 C 0.20631 0.99004 0.66646 0.0
C2346 C 0.19044 0.99267 0.66688 0.0
C2347 C 0.18324 0.99705 0.68806 0.0
C2348 C 0.19188 -0.00125 0.70889 0.0
C2349 C 0.23891 0.05289 0.78688 0.0
C2350 C 0.225 0.05934 0.79496 0.0
C2351 C 0.2391 0.03829 0.77653 0.0
C2352 C 0.22542 0.02985 0.77417 0.0
C2353 C 0.2115 0.03629 0.78201 0.0
C2354 C 0.2113 0.05089 0.7924 0.0
C2355 C 0.2256 0.01437 0.7632 0.0
C2356 C 0.21657 0.01181 0.74289 0.0
C2357 C 0.23508 0.0024 0.772 0.0
C2358 C 0.24433 0.00419 0.79403 0.0
C2359 C 0.23727 0.00859 0.81552 0.0
C2360 C 0.24607 0.01035 0.83617 0.0
C2361 C 0.26193 0.00765 0.83561 0.0
C2362 C 0.26901 0.00313 0.81439 0.0
C2363 C 0.26026 0.00136 0.79368 0.0
H2364 H 0.26872 0.00902 0.85161 0.0
H2365 H 0.18373 0.99134 0.65077 0.0
H2366 H 0.92868 0.20496 0.78986 0.0
H2367 H 0.95242 0.20388 0.76655 0.0
H2368 H 0.96081 0.25186 0.78141 0.0
H2369 H 0.93701 0.25311 0.80448 0.0
H2370 H 0.96588 0.24515 0.73514 0.0
H2371 H 0.98015 0.22406 0.81126 0.0
H2372 H 0.97798 0.20638 0.84542 0.0
H2373 H 0.98517 0.16771 0.79914 0.0
H2374 H 0.98717 0.18517 0.76463 0.0
H2375 H 0.04474 0.25089 0.70597 0.0
H2376 H 0.02005 0.25056 0.72672 0.0
H2377 H 0.01453 0.20247 0.70963 0.0
H2378 H 0.03936 0.20263 0.68907 0.0
H2379 H 0.00746 0.20825 0.75555 0.0
H2380 H 0.99431 0.22945 0.6796 0.0
H2381 H 0.9966 0.24719 0.64552 0.0
H2382 H 0.98735 0.28563 0.69137 0.0
H2383 H 0.98521 0.26814 0.7258 0.0
C2384 C 0.93556 0.21529 0.78816 0.0
C2385 C 0.931 0.22911 0.7991 0.0
C2386 C 0.94915 0.21463 0.7749 0.0
C2387 C 0.95844 0.22775 0.77248 0.0
C2388 C 0.9538 0.24161 0.78309 0.0
C2389 C 0.94022 0.24228 0.79632 0.0
C2390 C 0.97303 0.22707 0.75893 0.0
C2391 C 0.97505 0.2372 0.73975 0.0
C2392 C 0.9848 0.21642 0.7646 0.0
C2393 C 0.98364 0.20591 0.78534 0.0
C2394 C 0.98114 0.21178 0.80834 0.0
C2395 C 0.97997 0.2018 0.82777 0.0
C2396 C 0.98139 0.18593 0.82445 0.0
C2397 C 0.98404 0.18001 0.80169 0.0
C2398 C 0.98521 0.18994 0.78219 0.0
C2399 C 0.03828 0.24023 0.70658 0.0
C2400 C 0.04398 0.22679 0.69582 0.0
C2401 C 0.02414 0.24009 0.71836 0.0
C2402 C 0.01539 0.22654 0.71944 0.0
C2403 C 0.02111 0.21305 0.70893 0.0
C2404 C 0.03527 0.21318 0.69716 0.0
C2405 C 0.00037 0.22643 0.73188 0.0
C2406 C 0.99826 0.21614 0.75085 0.0
C2407 C 0.98852 0.23694 0.72601 0.0
C2408 C 0.98973 0.24749 0.70532 0.0
C2409 C 0.99288 0.2417 0.68245 0.0
C2410 C 0.99413 0.25171 0.66306 0.0
C2411 C 0.99216 0.26753 0.66629 0.0
C2412 C 0.98889 0.27337 0.6889 0.0
C2413 C 0.98764 0.26342 0.70835 0.0
H2414 H 0.99313 0.27526 0.65125 0.0
H2415 H 0.98048 0.17822 0.83951 0.0
H2416 H 0.74699 0.55605 0.69992 0.0
H2417 H 0.74849 0.53106 0.71965 0.0
H2418 H 0.69928 0.52582 0.71312 0.0
H2419 H 0.69764 0.55092 0.69361 0.0
H2420 H 0.70916 0.51837 0.75719 0.0
H2421 H 0.72332 0.50595 0.67697 0.0
H2422 H 0.738 0.50848 0.63961 0.0
H2423 H 0.77994 0.49826 0.67686 0.0
H2424 H 0.76553 0.49588 0.71453 0.0
H2425 H 0.70623 0.43913 0.78751 0.0
H2426 H 0.70417 0.46367 0.76655 0.0
H2427 H 0.75337 0.46967 0.77144 0.0
H2428 H 0.75558 0.44501 0.79208 0.0
H2429 H 0.74309 0.47656 0.72768 0.0
H2430 H 0.72907 0.48944 0.80796 0.0
H2431 H 0.71447 0.487 0.84541 0.0
H2432 H 0.67236 0.49642 0.80812 0.0
H2433 H 0.6867 0.49872 0.77037 0.0
C2434 C 0.73648 0.54958 0.70261 0.0
C2435 C 0.72219 0.55546 0.69515 0.0
C2436 C 0.73737 0.53526 0.71381 0.0
C2437 C 0.72402 0.52652 0.71761 0.0
C2438 C 0.70973 0.53238 0.7103 0.0
C2439 C 0.70882 0.54671 0.6991 0.0
C2440 C 0.72494 0.51138 0.72964 0.0
C2441 C 0.7164 0.50913 0.75055 0.0
C2442 C 0.73467 0.4995 0.72126 0.0
C2443 C 0.74336 0.50088 0.69861 0.0
C2444 C 0.73569 0.50436 0.67724 0.0
C2445 C 0.74396 0.50575 0.656 0.0
C2446 C 0.7599 0.50357 0.65588 0.0
C2447 C 0.76759 0.49996 0.67699 0.0
C2448 C 0.75938 0.49858 0.69828 0.0
C2449 C 0.71662 0.44567 0.78416 0.0
C2450 C 0.73107 0.44014 0.79152 0.0
C2451 C 0.71541 0.45972 0.77225 0.0
C2452 C 0.7286 0.46857 0.76768 0.0
C2453 C 0.74305 0.46302 0.77482 0.0
C2454 C 0.74428 0.44895 0.78667 0.0
C2455 C 0.72736 0.48356 0.75528 0.0
C2456 C 0.73583 0.48578 0.73429 0.0
C2457 C 0.71758 0.49543 0.76361 0.0
C2458 C 0.70894 0.4941 0.7863 0.0
C2459 C 0.71669 0.49087 0.80771 0.0
C2460 C 0.70846 0.48954 0.829 0.0
C2461 C 0.69249 0.49151 0.82913 0.0
C2462 C 0.68473 0.49487 0.80798 0.0
C2463 C 0.6929 0.49621 0.78664 0.0
H2464 H 0.68615 0.49048 0.84563 0.0
H2465 H 0.76628 0.50464 0.63941 0.0
H2466 H 0.56341 0.74818 0.77962 0.0
H2467 H 0.54013 0.74934 0.75526 0.0
H2468 H 0.51252 0.75461 0.81855 0.0
H2469 H 0.53576 0.75347 0.84311 0.0
H2470 H 0.50172 0.73196 0.78812 0.0
H2471 H 0.51773 0.78475 0.78351 0.0
H2472 H 0.53595 0.80597 0.77613 0.0
H2473 H 0.5408 0.7916 0.7034 0.0
H2474 H 0.52277 0.77014 0.71043 0.0
H2475 H 0.43142 0.74735 0.72971 0.0
H2476 H 0.4542 0.74953 0.75494 0.0
H2477 H 0.48327 0.7489 0.69266 0.0
H2478 H 0.4605 0.7471 0.66723 0.0
H2479 H 0.49315 0.76985 0.72338 0.0
H2480 H 0.47855 0.71673 0.72746 0.0
H2481 H 0.46104 0.6948 0.73401 0.0
H2482 H 0.45441 0.70881 0.80658 0.0
H2483 H 0.47173 0.73096 0.80037 0.0
C2484 C 0.5524 0.74969 0.78837 0.0
C2485 C 0.55142 0.75071 0.8133 0.0
C2486 C 0.53913 0.75041 0.77441 0.0
C2487 C 0.52464 0.75215 0.78513 0.0
C2488 C 0.52362 0.75329 0.80998 0.0
C2489 C 0.5369 0.75268 0.82396 0.0
C2490 C 0.51052 0.75209 0.77042 0.0
C2491 C 0.49969 0.74039 0.77422 0.0
C2492 C 0.50819 0.76283 0.75186 0.0
C2493 C 0.519 0.77575 0.74756 0.0
C2494 C 0.52278 0.78603 0.766 0.0
C2495 C 0.53306 0.79812 0.76187 0.0
C2496 C 0.53956 0.80011 0.73933 0.0
C2497 C 0.53577 0.79004 0.72086 0.0
C2498 C 0.52551 0.77792 0.7249 0.0
C2499 C 0.44266 0.7477 0.72136 0.0
C2500 C 0.44417 0.74696 0.69647 0.0
C2501 C 0.45567 0.7489 0.73582 0.0
C2502 C 0.47044 0.74914 0.7257 0.0
C2503 C 0.47197 0.7487 0.70084 0.0
C2504 C 0.45895 0.74763 0.68634 0.0
C2505 C 0.4843 0.74969 0.74105 0.0
C2506 C 0.49511 0.76146 0.73736 0.0
C2507 C 0.48671 0.73891 0.75958 0.0
C2508 C 0.47631 0.72559 0.76338 0.0
C2509 C 0.47326 0.71521 0.74476 0.0
C2510 C 0.46338 0.70272 0.74842 0.0
C2511 C 0.45658 0.70044 0.77068 0.0
C2512 C 0.45967 0.71061 0.78934 0.0
C2513 C 0.46952 0.72312 0.78577 0.0
H2514 H 0.44894 0.69077 0.77347 0.0
H2515 H 0.54751 0.80948 0.73617 0.0
H2516 H 0.28519 0.44052 0.70065 0.0
H2517 H 0.28616 0.46503 0.72179 0.0
H2518 H 0.23653 0.46645 0.72383 0.0
H2519 H 0.23543 0.44197 0.70236 0.0
H2520 H 0.24878 0.49426 0.71223 0.0
H2521 H 0.25642 0.45603 0.77265 0.0
H2522 H 0.26858 0.43334 0.79116 0.0
H2523 H 0.31212 0.45672 0.79232 0.0
H2524 H 0.30026 0.47948 0.7735 0.0
H2525 H 0.24346 0.55318 0.79975 0.0
H2526 H 0.24117 0.52879 0.77836 0.0
H2527 H 0.29067 0.52495 0.77582 0.0
H2528 H 0.29307 0.54919 0.7975 0.0
H2529 H 0.27765 0.49816 0.78821 0.0
H2530 H 0.27025 0.53614 0.72709 0.0
H2531 H 0.25825 0.55882 0.70833 0.0
H2532 H 0.21441 0.53598 0.70832 0.0
H2533 H 0.22612 0.51323 0.72739 0.0
C2534 C 0.27447 0.44604 0.70552 0.0
C2535 C 0.26023 0.43925 0.69996 0.0
C2536 C 0.27505 0.46003 0.71768 0.0
C2537 C 0.26142 0.46743 0.72466 0.0
C2538 C 0.24718 0.46088 0.71866 0.0
C2539 C 0.24658 0.44688 0.70645 0.0
C2540 C 0.26208 0.48195 0.73839 0.0
C2541 C 0.25489 0.49508 0.72902 0.0
C2542 C 0.27033 0.48305 0.76004 0.0
C2543 C 0.27747 0.46941 0.77147 0.0
C2544 C 0.26861 0.45629 0.77669 0.0
C2545 C 0.27544 0.44343 0.78726 0.0
C2546 C 0.29112 0.44358 0.79286 0.0
C2547 C 0.29998 0.45662 0.78795 0.0
C2548 C 0.29321 0.4695 0.77735 0.0
C2549 C 0.25386 0.54714 0.79466 0.0
C2550 C 0.26845 0.55313 0.80027 0.0
C2551 C 0.25253 0.53324 0.78235 0.0
C2552 C 0.26575 0.52516 0.77528 0.0
C2553 C 0.28032 0.53103 0.7811 0.0
C2554 C 0.28167 0.5449 0.79344 0.0
C2555 C 0.26444 0.51051 0.76197 0.0
C2556 C 0.27149 0.49734 0.77145 0.0
C2557 C 0.25608 0.50939 0.74041 0.0
C2558 C 0.24903 0.52305 0.72889 0.0
C2559 C 0.25802 0.536 0.72326 0.0
C2560 C 0.25128 0.54886 0.71254 0.0
C2561 C 0.23557 0.54886 0.7072 0.0
C2562 C 0.22658 0.53597 0.71251 0.0
C2563 C 0.23326 0.52309 0.72325 0.0
H2564 H 0.23037 0.55882 0.6989 0.0
H2565 H 0.29639 0.43361 0.80104 0.0
H2566 H 0.4359 0.29012 0.7643 0.0
H2567 H 0.46151 0.29116 0.74638 0.0
H2568 H 0.47138 0.24571 0.77321 0.0
H2569 H 0.44579 0.24456 0.79129 0.0
H2570 H 0.49515 0.26614 0.78086 0.0
H2571 H 0.46269 0.25009 0.71614 0.0
H2572 H 0.44051 0.25186 0.6889 0.0
H2573 H 0.45651 0.29574 0.66393 0.0
H2574 H 0.47869 0.29433 0.69128 0.0
H2575 H 0.56026 0.24722 0.71157 0.0
H2576 H 0.53485 0.24788 0.73004 0.0
H2577 H 0.52648 0.29261 0.69935 0.0
H2578 H 0.55189 0.29199 0.6805 0.0
H2579 H 0.50198 0.27364 0.69393 0.0
H2580 H 0.53486 0.28945 0.75764 0.0
H2581 H 0.55705 0.2878 0.78488 0.0
H2582 H 0.54031 0.24471 0.81189 0.0
H2583 H 0.51811 0.246 0.78455 0.0
C2584 C 0.44351 0.28034 0.76642 0.0
C2585 C 0.43881 0.26723 0.77916 0.0
C2586 C 0.45812 0.28094 0.7561 0.0
C2587 C 0.46826 0.26846 0.75833 0.0
C2588 C 0.46369 0.25545 0.77129 0.0
C2589 C 0.44905 0.25479 0.78153 0.0
C2590 C 0.48367 0.26899 0.74718 0.0
C2591 C 0.49666 0.26759 0.76182 0.0
C2592 C 0.48558 0.27131 0.72244 0.0
C2593 C 0.47226 0.27218 0.70595 0.0
C2594 C 0.46141 0.26018 0.70499 0.0
C2595 C 0.44885 0.26111 0.6895 0.0
C2596 C 0.44707 0.27393 0.67474 0.0
C2597 C 0.45788 0.28583 0.6754 0.0
C2598 C 0.47046 0.28497 0.69088 0.0
C2599 C 0.55305 0.25723 0.70876 0.0
C2600 C 0.5581 0.26958 0.69462 0.0
C2601 C 0.53855 0.25761 0.71943 0.0
C2602 C 0.52888 0.27037 0.71629 0.0
C2603 C 0.53382 0.28267 0.70203 0.0
C2604 C 0.54834 0.28231 0.69134 0.0
C2605 C 0.51349 0.2707 0.72759 0.0
C2606 C 0.50048 0.27226 0.71298 0.0
C2607 C 0.51157 0.26856 0.75238 0.0
C2608 C 0.52489 0.26775 0.76889 0.0
C2609 C 0.53597 0.27956 0.76925 0.0
C2610 C 0.54854 0.2787 0.78473 0.0
C2611 C 0.55011 0.26614 0.80006 0.0
C2612 C 0.53909 0.25443 0.79998 0.0
C2613 C 0.5265 0.25522 0.78451 0.0
H2614 H 0.55985 0.2655 0.81204 0.0
H2615 H 0.43734 0.27462 0.66276 0.0
H2616 H 0.26495 0.54049 0.16432 0.0
H2617 H 0.26529 0.51618 0.18623 0.0
H2618 H 0.24688 0.53911 0.24811 0.0
H2619 H 0.24665 0.56348 0.22647 0.0
H2620 H 0.27101 0.52087 0.25934 0.0
H2621 H 0.22418 0.51624 0.21447 0.0
H2622 H 0.20815 0.51634 0.17825 0.0
H2623 H 0.23507 0.47943 0.14905 0.0
H2624 H 0.2514 0.47925 0.18498 0.0
H2625 H 0.25158 0.45475 0.32676 0.0
H2626 H 0.25046 0.47877 0.30423 0.0
H2627 H 0.26815 0.45542 0.24221 0.0
H2628 H 0.26909 0.43129 0.26448 0.0
H2629 H 0.2444 0.47382 0.23085 0.0
H2630 H 0.2913 0.47845 0.27532 0.0
H2631 H 0.30753 0.4783 0.31133 0.0
H2632 H 0.28079 0.51519 0.34098 0.0
H2633 H 0.26426 0.51541 0.30527 0.0
C2634 C 0.26092 0.54036 0.18256 0.0
C2635 C 0.25577 0.55392 0.19365 0.0
C2636 C 0.26107 0.52645 0.19502 0.0
C2637 C 0.256 0.52584 0.21872 0.0
C2638 C 0.25084 0.53935 0.22982 0.0
C2639 C 0.25067 0.55325 0.21739 0.0
C2640 C 0.25643 0.5112 0.23218 0.0
C2641 C 0.26502 0.51063 0.2533 0.0
C2642 C 0.24893 0.49777 0.22392 0.0
C2643 C 0.23911 0.49784 0.20232 0.0
C2644 C 0.22676 0.50823 0.20024 0.0
C2645 C 0.2176 0.50828 0.17978 0.0
C2646 C 0.22061 0.49793 0.16133 0.0
C2647 C 0.23276 0.48746 0.16334 0.0
C2648 C 0.24196 0.48737 0.18376 0.0
C2649 C 0.25525 0.45471 0.30833 0.0
C2650 C 0.26048 0.44112 0.29743 0.0
C2651 C 0.25465 0.46846 0.29551 0.0
C2652 C 0.25938 0.4689 0.27163 0.0
C2653 C 0.26446 0.45532 0.26063 0.0
C2654 C 0.26503 0.44156 0.27342 0.0
C2655 C 0.25895 0.4835 0.25806 0.0
C2656 C 0.25038 0.48406 0.2369 0.0
C2657 C 0.2665 0.49692 0.26625 0.0
C2658 C 0.27645 0.49684 0.28772 0.0
C2659 C 0.28881 0.48644 0.2896 0.0
C2660 C 0.29807 0.48636 0.30994 0.0
C2661 C 0.29517 0.4967 0.32846 0.0
C2662 C 0.28301 0.50717 0.32664 0.0
C2663 C 0.2737 0.50729 0.30634 0.0
H2664 H 0.30236 0.49662 0.34419 0.0
H2665 H 0.21351 0.49799 0.14551 0.0
H2666 H 0.55497 0.23805 0.29191 0.0
H2667 H 0.53149 0.23717 0.26796 0.0
H2668 H 0.53434 0.28621 0.25671 0.0
H2669 H 0.55762 0.28725 0.28101 0.0
H2670 H 0.5058 0.27803 0.2677 0.0
H2671 H 0.5445 0.26042 0.21299 0.0
H2672 H 0.56589 0.24402 0.19922 0.0
H2673 H 0.53709 0.20403 0.2049 0.0
H2674 H 0.51557 0.22018 0.21902 0.0
H2675 H 0.45256 0.28562 0.17425 0.0
H2676 H 0.47683 0.28488 0.19607 0.0
H2677 H 0.47054 0.23642 0.20949 0.0
H2678 H 0.44624 0.23698 0.18741 0.0
H2679 H 0.50053 0.2436 0.19769 0.0
H2680 H 0.46171 0.26155 0.25193 0.0
H2681 H 0.4403 0.27824 0.2648 0.0
H2682 H 0.46955 0.31792 0.2594 0.0
H2683 H 0.49108 0.30149 0.24615 0.0
C2684 C 0.55061 0.24865 0.28431 0.0
C2685 C 0.55817 0.26272 0.28832 0.0
C2686 C 0.53723 0.24811 0.27054 0.0
C2687 C 0.53127 0.2616 0.26032 0.0
C2688 C 0.53875 0.27566 0.26442 0.0
C2689 C 0.55207 0.27623 0.27828 0.0
C2690 C 0.51709 0.26114 0.24569 0.0
C2691 C 0.50473 0.27064 0.25221 0.0
C2692 C 0.51557 0.25122 0.22583 0.0
C2693 C 0.52848 0.24149 0.21729 0.0
C2694 C 0.54277 0.24811 0.21148 0.0
C2695 C 0.55491 0.23886 0.20358 0.0
C2696 C 0.55287 0.22299 0.20125 0.0
C2697 C 0.53866 0.21633 0.20675 0.0
C2698 C 0.52648 0.22553 0.21468 0.0
C2699 C 0.45637 0.27476 0.18167 0.0
C2700 C 0.44741 0.26138 0.17928 0.0
C2701 C 0.47023 0.27438 0.19419 0.0
C2702 C 0.47533 0.26065 0.20468 0.0
C2703 C 0.46674 0.24713 0.20157 0.0
C2704 C 0.45286 0.2475 0.18901 0.0
C2705 C 0.48936 0.26058 0.21961 0.0
C2706 C 0.50164 0.25096 0.21319 0.0
C2707 C 0.49085 0.27042 0.23954 0.0
C2708 C 0.47797 0.2803 0.24785 0.0
C2709 C 0.46355 0.27385 0.25334 0.0
C2710 C 0.4514 0.28326 0.26072 0.0
C2711 C 0.45355 0.29913 0.26286 0.0
C2712 C 0.46789 0.30562 0.25771 0.0
C2713 C 0.48008 0.29626 0.25028 0.0
H2714 H 0.44412 0.3064 0.26856 0.0
H2715 H 0.56228 0.21585 0.19513 0.0
H2716 H 0.71136 0.5506 0.30616 0.0
H2717 H 0.71128 0.52509 0.28802 0.0
H2718 H 0.76003 0.52883 0.2744 0.0
H2719 H 0.76015 0.55454 0.29209 0.0
H2720 H 0.74538 0.51857 0.23618 0.0
H2721 H 0.746 0.50551 0.3189 0.0
H2722 H 0.73733 0.50624 0.36067 0.0
H2723 H 0.69314 0.48862 0.3399 0.0
H2724 H 0.70148 0.48798 0.29794 0.0
H2725 H 0.75551 0.44025 0.20364 0.0
H2726 H 0.75718 0.46475 0.22482 0.0
H2727 H 0.70804 0.46422 0.23595 0.0
H2728 H 0.70626 0.43964 0.21495 0.0
H2729 H 0.72382 0.47246 0.27619 0.0
H2730 H 0.72309 0.4865 0.19332 0.0
H2731 H 0.7319 0.48575 0.15161 0.0
H2732 H 0.77665 0.50149 0.17309 0.0
H2733 H 0.76817 0.50213 0.215 0.0
C2734 C 0.7221 0.54598 0.29944 0.0
C2735 C 0.73577 0.55459 0.30057 0.0
C2736 C 0.72204 0.53135 0.28917 0.0
C2737 C 0.73569 0.52498 0.28011 0.0
C2738 C 0.74938 0.53352 0.28132 0.0
C2739 C 0.74943 0.5482 0.29148 0.0
C2740 C 0.73553 0.50965 0.26856 0.0
C2741 C 0.74091 0.50843 0.24508 0.0
C2742 C 0.72937 0.4965 0.28 0.0
C2743 C 0.72433 0.49683 0.30524 0.0
C2744 C 0.7344 0.5019 0.32321 0.0
C2745 C 0.72955 0.50228 0.34693 0.0
C2746 C 0.71468 0.49751 0.35293 0.0
C2747 C 0.70465 0.49232 0.33522 0.0
C2748 C 0.70944 0.49193 0.31147 0.0
C2749 C 0.74505 0.44532 0.21061 0.0
C2750 C 0.73074 0.43804 0.20751 0.0
C2751 C 0.74603 0.45934 0.22266 0.0
C2752 C 0.73271 0.46635 0.23174 0.0
C2753 C 0.71845 0.45899 0.22904 0.0
C2754 C 0.71745 0.44498 0.21696 0.0
C2755 C 0.73362 0.48144 0.24386 0.0
C2756 C 0.72837 0.4826 0.2674 0.0
C2757 C 0.73994 0.49453 0.23252 0.0
C2758 C 0.74504 0.4942 0.20732 0.0
C2759 C 0.73485 0.48968 0.18917 0.0
C2760 C 0.73978 0.48929 0.16549 0.0
C2761 C 0.75484 0.49352 0.15971 0.0
C2762 C 0.765 0.49819 0.1776 0.0
C2763 C 0.76013 0.49857 0.20132 0.0
H2764 H 0.75863 0.49322 0.14137 0.0
H2765 H 0.71095 0.49781 0.3713 0.0
H2766 H 0.46311 0.74264 0.33964 0.0
H2767 H 0.48587 0.74571 0.31452 0.0
H2768 H 0.45675 0.75177 0.25299 0.0
H2769 H 0.43397 0.74831 0.27786 0.0
H2770 H 0.47926 0.73291 0.24285 0.0
H2771 H 0.47568 0.78243 0.27955 0.0
H2772 H 0.47354 0.80089 0.31272 0.0
H2773 H 0.51651 0.78485 0.34122 0.0
H2774 H 0.51881 0.76614 0.30838 0.0
H2775 H 0.53916 0.75772 0.16611 0.0
H2776 H 0.51589 0.75851 0.19062 0.0
H2777 H 0.54277 0.74728 0.25279 0.0
H2778 H 0.56609 0.74653 0.22851 0.0
H2779 H 0.52103 0.76995 0.26152 0.0
H2780 H 0.52359 0.71959 0.22524 0.0
H2781 H 0.52558 0.70154 0.19151 0.0
H2782 H 0.48402 0.72 0.16152 0.0
H2783 H 0.4819 0.73832 0.19493 0.0
C2784 C 0.46155 0.74467 0.32078 0.0
C2785 C 0.44674 0.74523 0.31074 0.0
C2786 C 0.47457 0.74651 0.30646 0.0
C2787 C 0.47301 0.74918 0.28192 0.0
C2788 C 0.45823 0.74974 0.27188 0.0
C2789 C 0.44522 0.74777 0.28613 0.0
C2790 C 0.48678 0.7509 0.26657 0.0
C2791 C 0.48826 0.74119 0.24674 0.0
C2792 C 0.49867 0.76152 0.27186 0.0
C2793 C 0.49734 0.77278 0.29161 0.0
C2794 C 0.48461 0.78276 0.29299 0.0
C2795 C 0.48338 0.79328 0.31171 0.0
C2796 C 0.49486 0.79402 0.3291 0.0
C2797 C 0.50762 0.78425 0.32776 0.0
C2798 C 0.5089 0.7737 0.30908 0.0
C2799 C 0.54015 0.75556 0.18503 0.0
C2800 C 0.55445 0.75194 0.19534 0.0
C2801 C 0.52684 0.75598 0.19898 0.0
C2802 C 0.52763 0.75279 0.22344 0.0
C2803 C 0.54195 0.74976 0.23393 0.0
C2804 C 0.55524 0.74927 0.22 0.0
C2805 C 0.51345 0.75194 0.23796 0.0
C2806 C 0.51193 0.76177 0.25762 0.0
C2807 C 0.50148 0.74151 0.23244 0.0
C2808 C 0.50268 0.73043 0.21244 0.0
C2809 C 0.51494 0.71988 0.21136 0.0
C2810 C 0.51608 0.70959 0.19231 0.0
C2811 C 0.50496 0.70965 0.17435 0.0
C2812 C 0.49265 0.71998 0.17543 0.0
C2813 C 0.49146 0.73031 0.19442 0.0
H2814 H 0.50586 0.70167 0.15962 0.0
H2815 H 0.49389 0.80217 0.34358 0.0
H2816 H 0.19743 0.11994 0.19348 0.0
H2817 H 0.18039 0.13755 0.21477 0.0
H2818 H 0.21229 0.1389 0.27359 0.0
H2819 H 0.22932 0.12107 0.25257 0.0
H2820 H 0.18268 0.13771 0.28899 0.0
H2821 H 0.21215 0.16751 0.23363 0.0
H2822 H 0.22287 0.17418 0.19432 0.0
H2823 H 0.17719 0.18021 0.16659 0.0
H2824 H 0.16619 0.17335 0.20567 0.0
H2825 H 0.15601 0.20787 0.34077 0.0
H2826 H 0.17154 0.18765 0.32232 0.0
H2827 H 0.13944 0.18517 0.26386 0.0
H2828 H 0.1239 0.20544 0.28206 0.0
H2829 H 0.1692 0.18675 0.24878 0.0
H2830 H 0.13995 0.15739 0.30557 0.0
H2831 H 0.12991 0.15104 0.34543 0.0
H2832 H 0.17602 0.14485 0.37127 0.0
H2833 H 0.18635 0.15137 0.33163 0.0
C2834 C 0.20078 0.12387 0.21103 0.0
C2835 C 0.2148 0.11922 0.22126 0.0
C2836 C 0.19104 0.13396 0.22314 0.0
C2837 C 0.1952 0.1397 0.24558 0.0
C2838 C 0.20889 0.13463 0.25625 0.0
C2839 C 0.21863 0.12448 0.24418 0.0
C2840 C 0.18558 0.15149 0.25744 0.0
C2841 C 0.17986 0.14851 0.28033 0.0
C2842 C 0.18177 0.16549 0.24598 0.0
C2843 C 0.18835 0.16977 0.22251 0.0
C2844 C 0.20439 0.17015 0.2191 0.0
C2845 C 0.21052 0.17398 0.19687 0.0
C2846 C 0.20072 0.17758 0.17795 0.0
C2847 C 0.18477 0.1774 0.18125 0.0
C2848 C 0.17858 0.17355 0.20344 0.0
C2849 C 0.15221 0.20298 0.32404 0.0
C2850 C 0.13873 0.20827 0.31286 0.0
C2851 C 0.16107 0.19139 0.31358 0.0
C2852 C 0.15657 0.18485 0.29183 0.0
C2853 C 0.14309 0.19007 0.28067 0.0
C2854 C 0.13422 0.20163 0.29113 0.0
C2855 C 0.16617 0.17293 0.28026 0.0
C2856 C 0.17196 0.17593 0.25742 0.0
C2857 C 0.17012 0.15903 0.29187 0.0
C2858 C 0.16393 0.15501 0.31568 0.0
C2859 C 0.14796 0.15479 0.3198 0.0
C2860 C 0.14221 0.15114 0.34235 0.0
C2861 C 0.15232 0.14758 0.36089 0.0
C2862 C 0.1682 0.14762 0.3569 0.0
C2863 C 0.17401 0.15128 0.33439 0.0
H2864 H 0.14785 0.14476 0.37833 0.0
H2865 H 0.20548 0.18054 0.16075 0.0
H2866 H 0.8568 0.19641 0.15549 0.0
H2867 H 0.83997 0.17721 0.17371 0.0
H2868 H 0.86331 0.1832 0.24084 0.0
H2869 H 0.88032 0.2023 0.22273 0.0
H2870 H 0.8575 0.15295 0.23151 0.0
H2871 H 0.82943 0.20084 0.23077 0.0
H2872 H 0.8182 0.22397 0.21219 0.0
H2873 H 0.79031 0.19554 0.16693 0.0
H2874 H 0.80155 0.17223 0.18504 0.0
H2875 H 0.80181 0.12454 0.31245 0.0
H2876 H 0.8201 0.14016 0.28996 0.0
H2877 H 0.7939 0.13249 0.22583 0.0
H2878 H 0.77543 0.11696 0.24823 0.0
H2879 H 0.80115 0.16242 0.23129 0.0
H2880 H 0.82791 0.11446 0.23381 0.0
H2881 H 0.83904 0.09131 0.25247 0.0
H2882 H 0.86927 0.11959 0.29422 0.0
H2883 H 0.85816 0.14293 0.27605 0.0
C2884 C 0.85843 0.19359 0.1741 0.0
C2885 C 0.86982 0.20097 0.18772 0.0
C2886 C 0.84877 0.18263 0.18448 0.0
C2887 C 0.85028 0.17894 0.20869 0.0
C2888 C 0.86195 0.18592 0.22213 0.0
C2889 C 0.87162 0.19687 0.21177 0.0
C2890 C 0.83936 0.16819 0.22023 0.0
C2891 C 0.84519 0.15507 0.23167 0.0
C2892 C 0.82327 0.1708 0.2199 0.0
C2893 C 0.81645 0.1848 0.20908 0.0
C2894 C 0.82099 0.19953 0.21673 0.0
C2895 C 0.81461 0.21267 0.2063 0.0
C2896 C 0.80358 0.21123 0.18834 0.0
C2897 C 0.79887 0.19664 0.18082 0.0
C2898 C 0.80524 0.18346 0.19116 0.0
C2899 C 0.79996 0.1261 0.29354 0.0
C2900 C 0.78716 0.11951 0.28212 0.0
C2901 C 0.81048 0.13497 0.28069 0.0
C2902 C 0.80843 0.13735 0.25619 0.0
C2903 C 0.79569 0.13076 0.24472 0.0
C2904 C 0.78517 0.12187 0.25755 0.0
C2905 C 0.81929 0.14722 0.24276 0.0
C2906 C 0.81345 0.1602 0.23098 0.0
C2907 C 0.83535 0.14447 0.24278 0.0
C2908 C 0.8421 0.13046 0.25371 0.0
C2909 C 0.83684 0.11575 0.24711 0.0
C2910 C 0.84317 0.10259 0.25758 0.0
C2911 C 0.85483 0.10398 0.27456 0.0
C2912 C 0.86022 0.11854 0.28108 0.0
C2913 C 0.85393 0.13173 0.27068 0.0
H2914 H 0.85971 0.09378 0.28265 0.0
H2915 H 0.79865 0.22142 0.18029 0.0
H2916 H 0.83902 0.78126 0.32529 0.0
H2917 H 0.82223 0.79938 0.30451 0.0
H2918 H 0.86062 0.81471 0.26196 0.0
H2919 H 0.87756 0.79679 0.28289 0.0
H2920 H 0.84348 0.83865 0.27681 0.0
H2921 H 0.83433 0.79001 0.23915 0.0
H2922 H 0.8279 0.7624 0.23736 0.0
H2923 H 0.78356 0.77162 0.26802 0.0
H2924 H 0.78982 0.79928 0.27031 0.0
H2925 H 0.80004 0.87575 0.18581 0.0
H2926 H 0.81726 0.85835 0.20736 0.0
H2927 H 0.77959 0.8442 0.25233 0.0
H2928 H 0.76228 0.8615 0.23088 0.0
H2929 H 0.79648 0.81974 0.23599 0.0
H2930 H 0.80584 0.86857 0.27341 0.0
H2931 H 0.81238 0.89617 0.27453 0.0
H2932 H 0.85649 0.88652 0.24342 0.0
H2933 H 0.85013 0.85886 0.2418 0.0
C2934 C 0.84392 0.78852 0.31157 0.0
C2935 C 0.85961 0.78752 0.30565 0.0
C2936 C 0.83429 0.79882 0.29965 0.0
C2937 C 0.84014 0.80823 0.28147 0.0
C2938 C 0.85587 0.80752 0.27589 0.0
C2939 C 0.86552 0.79724 0.28784 0.0
C2940 C 0.82983 0.81872 0.26812 0.0
C2941 C 0.83331 0.83449 0.26762 0.0
C2942 C 0.81641 0.81332 0.25651 0.0
C2943 C 0.81261 0.7967 0.25512 0.0
C2944 C 0.82326 0.78613 0.24569 0.0
C2945 C 0.81964 0.77048 0.24456 0.0
C2946 C 0.80535 0.76525 0.25263 0.0
C2947 C 0.79464 0.77568 0.26181 0.0
C2948 C 0.79821 0.79135 0.26301 0.0
C2949 C 0.79542 0.86894 0.2003 0.0
C2950 C 0.77981 0.87003 0.2067 0.0
C2951 C 0.80528 0.85905 0.21263 0.0
C2952 C 0.79971 0.8501 0.23155 0.0
C2953 C 0.7841 0.85104 0.2378 0.0
C2954 C 0.77425 0.86097 0.22557 0.0
C2955 C 0.81011 0.83965 0.24475 0.0
C2956 C 0.80665 0.82389 0.24519 0.0
C2957 C 0.82356 0.84505 0.25622 0.0
C2958 C 0.82744 0.86166 0.25726 0.0
C2959 C 0.81689 0.87234 0.26663 0.0
C2960 C 0.82057 0.888 0.26739 0.0
C2961 C 0.83482 0.8931 0.25899 0.0
C2962 C 0.84545 0.88255 0.24988 0.0
C2963 C 0.84181 0.86688 0.24906 0.0
H2964 H 0.83765 0.90522 0.2596 0.0
H2965 H 0.80257 0.75313 0.25173 0.0
H2966 H 0.20128 0.86619 0.3082 0.0
H2967 H 0.18356 0.84918 0.28703 0.0
H2968 H 0.21444 0.84812 0.2269 0.0
H2969 H 0.23211 0.86534 0.24778 0.0
H2970 H 0.1852 0.8515 0.21262 0.0
H2971 H 0.21265 0.81801 0.26542 0.0
H2972 H 0.22288 0.80917 0.30401 0.0
H2973 H 0.17691 0.80529 0.33146 0.0
H2974 H 0.1664 0.81432 0.29312 0.0
H2975 H 0.15225 0.78592 0.15557 0.0
H2976 H 0.16975 0.80389 0.17534 0.0
H2977 H 0.13873 0.80675 0.23514 0.0
H2978 H 0.12123 0.78872 0.21564 0.0
H2979 H 0.1683 0.80235 0.24917 0.0
H2980 H 0.141 0.83591 0.19576 0.0
H2981 H 0.1311 0.84455 0.15686 0.0
H2982 H 0.17729 0.84789 0.13009 0.0
H2983 H 0.18746 0.83906 0.16876 0.0
C2984 C 0.2043 0.86235 0.29046 0.0
C2985 C 0.21814 0.86705 0.27971 0.0
C2986 C 0.19418 0.85259 0.27842 0.0
C2987 C 0.19778 0.84723 0.25551 0.0
C2988 C 0.21146 0.8521 0.24458 0.0
C2989 C 0.22156 0.86191 0.25658 0.0
C2990 C 0.18729 0.8365 0.24297 0.0
C2991 C 0.18166 0.84066 0.22046 0.0
C2992 C 0.18247 0.82248 0.25342 0.0
C2993 C 0.18875 0.81698 0.27647 0.0
C2994 C 0.20473 0.81538 0.27974 0.0
C2995 C 0.21058 0.81032 0.30156 0.0
C2996 C 0.20055 0.80671 0.32019 0.0
C2997 C 0.18466 0.80811 0.31702 0.0
C2998 C 0.17875 0.81319 0.29524 0.0
C2999 C 0.14912 0.79042 0.17288 0.0
C3000 C 0.13536 0.78589 0.18404 0.0
C3001 C 0.15911 0.80073 0.18411 0.0
C3002 C 0.15547 0.80672 0.20663 0.0
C3003 C 0.14174 0.80224 0.21777 0.0
C3004 C 0.13174 0.79197 0.20655 0.0
C3005 C 0.16615 0.81739 0.21888 0.0
C3006 C 0.17184 0.8132 0.24133 0.0
C3007 C 0.17107 0.83133 0.20832 0.0
C3008 C 0.16498 0.83668 0.18508 0.0
C3009 C 0.14904 0.83837 0.18152 0.0
C3010 C 0.14338 0.84332 0.15952 0.0
C3011 C 0.15355 0.84672 0.14099 0.0
C3012 C 0.16942 0.84522 0.14445 0.0
C3013 C 0.17514 0.84026 0.16641 0.0
H3014 H 0.14915 0.85056 0.12398 0.0
H3015 H 0.2051 0.80279 0.33707 0.0
H3016 H 0.88386 0.79226 0.70099 0.0
H3017 H 0.86749 0.81233 0.71839 0.0
H3018 H 0.83101 0.77925 0.72787 0.0
H3019 H 0.84732 0.75909 0.71094 0.0
H3020 H 0.82248 0.80808 0.70475 0.0
H3021 H 0.84939 0.78847 0.77417 0.0
H3022 H 0.8726 0.78195 0.79733 0.0
H3023 H 0.88749 0.82902 0.79413 0.0
H3024 H 0.86445 0.83578 0.77064 0.0
H3025 H 0.76848 0.84352 0.77875 0.0
H3026 H 0.7873 0.82635 0.76063 0.0
H3027 H 0.82296 0.86017 0.77193 0.0
H3028 H 0.80418 0.87725 0.79098 0.0
H3029 H 0.83363 0.83301 0.78232 0.0
H3030 H 0.80696 0.85374 0.71587 0.0
H3031 H 0.78462 0.86131 0.69147 0.0
H3032 H 0.77051 0.81407 0.68654 0.0
H3033 H 0.79266 0.80622 0.71121 0.0
C3034 C 0.87237 0.78927 0.70686 0.0
C3035 C 0.86687 0.77411 0.70465 0.0
C3036 C 0.86307 0.80072 0.71681 0.0
C3037 C 0.84809 0.79721 0.72439 0.0
C3038 C 0.84255 0.78213 0.72209 0.0
C3039 C 0.85191 0.77064 0.71251 0.0
C3040 C 0.83804 0.80927 0.73448 0.0
C3041 C 0.8248 0.81346 0.7218 0.0
C3042 C 0.84148 0.81665 0.75624 0.0
C3043 C 0.8553 0.81259 0.7704 0.0
C3044 C 0.85769 0.7974 0.7782 0.0
C3045 C 0.8708 0.79366 0.79144 0.0
C3046 C 0.88154 0.80505 0.79713 0.0
C3047 C 0.87917 0.82021 0.78967 0.0
C3048 C 0.86609 0.824 0.7764 0.0
C3049 C 0.78032 0.84734 0.77733 0.0
C3050 C 0.78484 0.86178 0.78614 0.0
C3051 C 0.79106 0.83754 0.76685 0.0
C3052 C 0.80649 0.84209 0.76444 0.0
C3053 C 0.8111 0.85644 0.77348 0.0
C3054 C 0.80037 0.86619 0.78431 0.0
C3055 C 0.81778 0.83168 0.75284 0.0
C3056 C 0.8313 0.82779 0.76515 0.0
C3057 C 0.81474 0.82476 0.73049 0.0
C3058 C 0.80142 0.82941 0.71555 0.0
C3059 C 0.79904 0.84497 0.70972 0.0
C3060 C 0.78642 0.84931 0.69582 0.0
C3061 C 0.77614 0.83818 0.6875 0.0
C3062 C 0.77848 0.82268 0.69302 0.0
C3063 C 0.79108 0.81827 0.70693 0.0
H3064 H 0.76637 0.84157 0.67674 0.0
H3065 H 0.89168 0.80214 0.80739 0.0
H3066 H 0.21099 0.84428 0.66429 0.0
H3067 H 0.1923 0.82774 0.68434 0.0
H3068 H 0.18401 0.86325 0.73645 0.0
H3069 H 0.20279 0.87983 0.71666 0.0
H3070 H 0.18799 0.83532 0.75705 0.0
H3071 H 0.15793 0.85645 0.69334 0.0
H3072 H 0.15207 0.86302 0.65162 0.0
H3073 H 0.15271 0.81511 0.63293 0.0
H3074 H 0.15879 0.80826 0.67449 0.0
H3075 H 0.12294 0.79926 0.80945 0.0
H3076 H 0.13944 0.81787 0.78906 0.0
H3077 H 0.14812 0.7848 0.73336 0.0
H3078 H 0.13142 0.76627 0.75332 0.0
H3079 H 0.14321 0.81258 0.71497 0.0
H3080 H 0.17444 0.7914 0.77766 0.0
H3081 H 0.18076 0.78448 0.81909 0.0
H3082 H 0.17841 0.83207 0.83937 0.0
H3083 H 0.17187 0.83925 0.7981 0.0
C3084 C 0.20516 0.8486 0.67996 0.0
C3085 C 0.20836 0.86337 0.68886 0.0
C3086 C 0.19444 0.83915 0.69134 0.0
C3087 C 0.18667 0.84433 0.71174 0.0
C3088 C 0.18988 0.85905 0.72071 0.0
C3089 C 0.20058 0.86851 0.70933 0.0
C3090 C 0.17545 0.83426 0.72402 0.0
C3091 C 0.17805 0.83053 0.74797 0.0
C3092 C 0.1627 0.82777 0.71198 0.0
C3093 C 0.15895 0.83185 0.687 0.0
C3094 C 0.15693 0.84732 0.6803 0.0
C3095 C 0.15355 0.85109 0.65668 0.0
C3096 C 0.15205 0.83949 0.63962 0.0
C3097 C 0.15389 0.82408 0.64616 0.0
C3098 C 0.15729 0.82025 0.66975 0.0
C3099 C 0.12832 0.79597 0.79281 0.0
C3100 C 0.12593 0.78127 0.78305 0.0
C3101 C 0.13779 0.8066 0.78123 0.0
C3102 C 0.14516 0.80264 0.75984 0.0
C3103 C 0.14254 0.78809 0.74984 0.0
C3104 C 0.13303 0.7775 0.76133 0.0
C3105 C 0.1558 0.81355 0.74798 0.0
C3106 C 0.15309 0.81743 0.72409 0.0
C3107 C 0.1685 0.82013 0.76005 0.0
C3108 C 0.1725 0.81584 0.78485 0.0
C3109 C 0.17516 0.80037 0.79099 0.0
C3110 C 0.1788 0.79641 0.81444 0.0
C3111 C 0.17994 0.80782 0.83187 0.0
C3112 C 0.17749 0.82323 0.82586 0.0
C3113 C 0.17383 0.82726 0.80244 0.0
H3114 H 0.18276 0.80473 0.85001 0.0
H3115 H 0.14944 0.84244 0.62135 0.0
H3116 H 0.14633 0.22219 0.66637 0.0
H3117 H 0.16455 0.20483 0.68579 0.0
H3118 H 0.12757 0.18513 0.72701 0.0
H3119 H 0.10926 0.20254 0.70782 0.0
H3120 H 0.15285 0.19134 0.75422 0.0
H3121 H 0.14196 0.16588 0.68009 0.0
H3122 H 0.13967 0.16398 0.63645 0.0
H3123 H 0.1878 0.17418 0.62896 0.0
H3124 H 0.19033 0.17635 0.67257 0.0
H3125 H 0.19323 0.12625 0.79746 0.0
H3126 H 0.1746 0.14307 0.77783 0.0
H3127 H 0.21057 0.16098 0.73266 0.0
H3128 H 0.22918 0.14392 0.75177 0.0
H3129 H 0.18555 0.15559 0.70741 0.0
H3130 H 0.19671 0.18147 0.78082 0.0
H3131 H 0.19937 0.18397 0.82434 0.0
H3132 H 0.15134 0.17377 0.83316 0.0
H3133 H 0.14844 0.171 0.78968 0.0
C3134 C 0.14205 0.21413 0.67951 0.0
C3135 C 0.12633 0.21369 0.68547 0.0
C3136 C 0.15248 0.2042 0.69055 0.0
C3137 C 0.14737 0.19359 0.70765 0.0
C3138 C 0.13173 0.19323 0.71383 0.0
C3139 C 0.12128 0.20315 0.70279 0.0
C3140 C 0.15837 0.18293 0.71919 0.0
C3141 C 0.15985 0.18336 0.74404 0.0
C3142 C 0.16777 0.17283 0.70581 0.0
C3143 C 0.1663 0.17142 0.67959 0.0
C3144 C 0.15203 0.16783 0.66913 0.0
C3145 C 0.1507 0.16668 0.6444 0.0
C3146 C 0.16358 0.16899 0.62994 0.0
C3147 C 0.17783 0.17241 0.64018 0.0
C3148 C 0.17922 0.17359 0.66491 0.0
C3149 C 0.19718 0.13376 0.78333 0.0
C3150 C 0.2127 0.13379 0.77622 0.0
C3151 C 0.18653 0.14342 0.77221 0.0
C3152 C 0.19124 0.15345 0.754 0.0
C3153 C 0.20668 0.15335 0.74668 0.0
C3154 C 0.21731 0.14361 0.75767 0.0
C3155 C 0.18006 0.16399 0.7425 0.0
C3156 C 0.17854 0.16355 0.71763 0.0
C3157 C 0.1707 0.17416 0.75587 0.0
C3158 C 0.17239 0.17588 0.78201 0.0
C3159 C 0.18674 0.17965 0.79205 0.0
C3160 C 0.18829 0.18113 0.81671 0.0
C3161 C 0.17554 0.17899 0.83151 0.0
C3162 C 0.16121 0.1754 0.82168 0.0
C3163 C 0.1596 0.17389 0.79703 0.0
H3164 H 0.17676 0.18014 0.8506 0.0
H3165 H 0.16252 0.1681 0.61079 0.0
H3166 H 0.86997 0.20048 0.82057 0.0
H3167 H 0.85339 0.18122 0.80196 0.0
H3168 H 0.81968 0.21631 0.78656 0.0
H3169 H 0.83604 0.23559 0.80556 0.0
H3170 H 0.80603 0.19064 0.80198 0.0
H3171 H 0.84459 0.20346 0.74381 0.0
H3172 H 0.87105 0.20689 0.72878 0.0
H3173 H 0.88042 0.15901 0.7409 0.0
H3174 H 0.85407 0.15534 0.75633 0.0
H3175 H 0.76416 0.15593 0.70837 0.0
H3176 H 0.78078 0.17253 0.73219 0.0
H3177 H 0.80997 0.1338 0.74859 0.0
H3178 H 0.79337 0.11702 0.72471 0.0
H3179 H 0.8263 0.15971 0.73464 0.0
H3180 H 0.78663 0.14683 0.79031 0.0
H3181 H 0.75993 0.14385 0.80445 0.0
H3182 H 0.75233 0.19237 0.79597 0.0
H3183 H 0.77894 0.19561 0.78144 0.0
C3184 C 0.85899 0.20409 0.81334 0.0
C3185 C 0.85436 0.21959 0.8144 0.0
C3186 C 0.84956 0.19308 0.80263 0.0
C3187 C 0.8354 0.19738 0.79257 0.0
C3188 C 0.83057 0.21275 0.79418 0.0
C3189 C 0.83996 0.22377 0.80498 0.0
C3190 C 0.82575 0.18595 0.77989 0.0
C3191 C 0.81041 0.18398 0.78711 0.0
C3192 C 0.8316 0.17701 0.76085 0.0
C3193 C 0.84742 0.17917 0.75147 0.0
C3194 C 0.85234 0.19369 0.74344 0.0
C3195 C 0.8673 0.19567 0.73482 0.0
C3196 C 0.87742 0.18318 0.73395 0.0
C3197 C 0.87258 0.16868 0.74163 0.0
C3198 C 0.85763 0.16664 0.7503 0.0
C3199 C 0.7741 0.15091 0.71705 0.0
C3200 C 0.77744 0.13515 0.71468 0.0
C3201 C 0.78354 0.16041 0.73075 0.0
C3202 C 0.7965 0.15435 0.74232 0.0
C3203 C 0.79998 0.13866 0.73984 0.0
C3204 C 0.79047 0.12911 0.72625 0.0
C3205 C 0.80656 0.16453 0.75659 0.0
C3206 C 0.82197 0.16628 0.74964 0.0
C3207 C 0.80075 0.17333 0.77578 0.0
C3208 C 0.78475 0.17144 0.78458 0.0
C3209 C 0.77923 0.15684 0.79127 0.0
C3210 C 0.76412 0.15511 0.79939 0.0
C3211 C 0.75443 0.1679 0.80106 0.0
C3212 C 0.75985 0.18247 0.79465 0.0
C3213 C 0.77495 0.18426 0.78649 0.0
H3214 H 0.74273 0.16654 0.80735 0.0
H3215 H 0.88901 0.18474 0.72727 0.0
H3216 H 0.71427 0.61459 0.75452 0.0
H3217 H 0.69705 0.63118 0.77749 0.0
H3218 H 0.6775 0.6488 0.71239 0.0
H3219 H 0.69472 0.63231 0.68924 0.0
H3220 H 0.68494 0.67172 0.74405 0.0
H3221 H 0.65779 0.62334 0.74515 0.0
H3222 H 0.65498 0.59549 0.75235 0.0
H3223 H 0.66505 0.60222 0.82644 0.0
H3224 H 0.66813 0.6301 0.81961 0.0
H3225 H 0.6193 0.70946 0.78802 0.0
H3226 H 0.63607 0.69132 0.76735 0.0
H3227 H 0.65351 0.67506 0.83469 0.0
H3228 H 0.63664 0.69314 0.85563 0.0
H3229 H 0.64785 0.6514 0.80345 0.0
H3230 H 0.67455 0.69932 0.80347 0.0
H3231 H 0.67777 0.72722 0.7973 0.0
H3232 H 0.6696 0.7215 0.72245 0.0
H3233 H 0.66602 0.69358 0.72824 0.0
C3234 C 0.70627 0.62195 0.74507 0.0
C3235 C 0.70585 0.62213 0.72006 0.0
C3236 C 0.69641 0.63138 0.75824 0.0
C3237 C 0.68595 0.64113 0.74663 0.0
C3238 C 0.68551 0.64134 0.72167 0.0
C3239 C 0.69531 0.63188 0.70849 0.0
C3240 C 0.67565 0.65134 0.76047 0.0
C3241 C 0.67669 0.66728 0.7568 0.0
C3242 C 0.66526 0.64553 0.77767 0.0
C3243 C 0.66334 0.62878 0.78182 0.0
C3244 C 0.65953 0.61886 0.76294 0.0
C3245 C 0.65786 0.60307 0.76696 0.0
C3246 C 0.65987 0.59708 0.78982 0.0
C3247 C 0.66351 0.60687 0.80873 0.0
C3248 C 0.66521 0.62267 0.8048 0.0
C3249 C 0.62663 0.70198 0.79849 0.0
C3250 C 0.62672 0.70281 0.82348 0.0
C3251 C 0.63624 0.69165 0.78663 0.0
C3252 C 0.64617 0.68202 0.7995 0.0
C3253 C 0.64595 0.68245 0.82445 0.0
C3254 C 0.63634 0.69281 0.83637 0.0
C3255 C 0.657 0.67176 0.78676 0.0
C3256 C 0.65612 0.65584 0.7907 0.0
C3257 C 0.66763 0.67758 0.76994 0.0
C3258 C 0.66987 0.69437 0.76633 0.0
C3259 C 0.67331 0.70402 0.78572 0.0
C3260 C 0.67522 0.71984 0.78229 0.0
C3261 C 0.67387 0.72614 0.7595 0.0
C3262 C 0.67063 0.71661 0.7401 0.0
C3263 C 0.66866 0.70079 0.74344 0.0
H3264 H 0.67537 0.73839 0.75688 0.0
H3265 H 0.65858 0.58485 0.7929 0.0
H3266 H 0.30163 0.62338 0.80889 0.0
H3267 H 0.31836 0.64097 0.78699 0.0
H3268 H 0.28627 0.64123 0.7284 0.0
H3269 H 0.26951 0.62347 0.75007 0.0
H3270 H 0.31583 0.63927 0.71295 0.0
H3271 H 0.28686 0.67077 0.76626 0.0
H3272 H 0.27613 0.6787 0.80499 0.0
H3273 H 0.32179 0.68521 0.83249 0.0
H3274 H 0.33282 0.67705 0.79403 0.0
H3275 H 0.3463 0.70661 0.65719 0.0
H3276 H 0.32937 0.68792 0.67652 0.0
H3277 H 0.36033 0.68564 0.73644 0.0
H3278 H 0.37725 0.70441 0.71739 0.0
H3279 H 0.3305 0.6889 0.7503 0.0
H3280 H 0.35917 0.65682 0.69596 0.0
H3281 H 0.36921 0.64914 0.65666 0.0
H3282 H 0.32306 0.64442 0.63024 0.0
H3283 H 0.31274 0.65229 0.66932 0.0
C3284 C 0.29815 0.6271 0.7913 0.0
C3285 C 0.28419 0.6221 0.78127 0.0
C3286 C 0.30771 0.6372 0.77884 0.0
C3287 C 0.30344 0.64255 0.75621 0.0
C3288 C 0.28974 0.63725 0.74587 0.0
C3289 C 0.28017 0.62714 0.75831 0.0
C3290 C 0.31317 0.65392 0.7436 0.0
C3291 C 0.31889 0.65021 0.72096 0.0
C3292 C 0.31726 0.66811 0.75421 0.0
C3293 C 0.31067 0.67315 0.77732 0.0
C3294 C 0.29462 0.67378 0.78062 0.0
C3295 C 0.28848 0.67834 0.80251 0.0
C3296 C 0.29827 0.68244 0.8212 0.0
C3297 C 0.31422 0.68202 0.818 0.0
C3298 C 0.32043 0.67743 0.79616 0.0
C3299 C 0.34954 0.70209 0.67444 0.0
C3300 C 0.36312 0.70699 0.68576 0.0
C3301 C 0.33988 0.69137 0.68542 0.0
C3302 C 0.34366 0.68533 0.70783 0.0
C3303 C 0.35721 0.69018 0.71914 0.0
C3304 C 0.36688 0.70087 0.70818 0.0
C3305 C 0.33335 0.67417 0.71978 0.0
C3306 C 0.32745 0.67796 0.74228 0.0
C3307 C 0.32899 0.66012 0.70894 0.0
C3308 C 0.33519 0.65529 0.6855 0.0
C3309 C 0.35116 0.65426 0.68172 0.0
C3310 C 0.35691 0.64985 0.6595 0.0
C3311 C 0.34678 0.64634 0.64095 0.0
C3312 C 0.33089 0.64717 0.64462 0.0
C3313 C 0.32509 0.65159 0.6668 0.0
H3314 H 0.35125 0.64293 0.62375 0.0
H3315 H 0.2935 0.68597 0.83813 0.0
H3316 H 0.37524 0.28419 0.76051 0.0
H3317 H 0.35923 0.30251 0.73881 0.0
H3318 H 0.33014 0.30788 0.80051 0.0
H3319 H 0.34592 0.28926 0.82223 0.0
H3320 H 0.3133 0.30484 0.76135 0.0
H3321 H 0.35658 0.33558 0.78468 0.0
H3322 H 0.3841 0.3421 0.78847 0.0
H3323 H 0.38862 0.34268 0.71237 0.0
H3324 H 0.36116 0.33596 0.70812 0.0
H3325 H 0.27335 0.3709 0.72213 0.0
H3326 H 0.29022 0.35376 0.74455 0.0
H3327 H 0.31799 0.34652 0.68189 0.0
H3328 H 0.30125 0.36385 0.65929 0.0
H3329 H 0.33556 0.35076 0.72168 0.0
H3330 H 0.29224 0.31974 0.69862 0.0
H3331 H 0.26469 0.31332 0.69504 0.0
H3332 H 0.26025 0.31343 0.77115 0.0
H3333 H 0.28775 0.32007 0.77518 0.0
C3334 C 0.36545 0.28928 0.76951 0.0
C3335 C 0.36186 0.2853 0.79312 0.0
C3336 C 0.35636 0.29981 0.7571 0.0
C3337 C 0.34362 0.30673 0.76815 0.0
C3338 C 0.33995 0.3027 0.79167 0.0
C3339 C 0.34899 0.29209 0.80407 0.0
C3340 C 0.33396 0.31792 0.75499 0.0
C3341 C 0.31813 0.31501 0.75299 0.0
C3342 C 0.34034 0.33098 0.74359 0.0
C3343 C 0.35684 0.33513 0.74609 0.0
C3344 C 0.36347 0.33699 0.76875 0.0
C3345 C 0.37905 0.34074 0.77098 0.0
C3346 C 0.38811 0.34276 0.75067 0.0
C3347 C 0.38159 0.34109 0.72808 0.0
C3348 C 0.36601 0.33733 0.72576 0.0
C3349 C 0.28307 0.36572 0.71309 0.0
C3350 C 0.2859 0.36866 0.68886 0.0
C3351 C 0.29267 0.35588 0.72593 0.0
C3352 C 0.30521 0.34871 0.71478 0.0
C3353 C 0.30832 0.35192 0.69078 0.0
C3354 C 0.29873 0.36178 0.6779 0.0
C3355 C 0.31492 0.33768 0.72813 0.0
C3356 C 0.33075 0.34061 0.73012 0.0
C3357 C 0.30854 0.32465 0.73957 0.0
C3358 C 0.29202 0.32055 0.73719 0.0
C3359 C 0.28537 0.31851 0.71459 0.0
C3360 C 0.26976 0.31481 0.71248 0.0
C3361 C 0.26072 0.313 0.73285 0.0
C3362 C 0.26727 0.31485 0.75539 0.0
C3363 C 0.28287 0.31857 0.75759 0.0
H3364 H 0.24864 0.31014 0.73118 0.0
H3365 H 0.40018 0.34566 0.75243 0.0
H3366 H 0.62424 0.2964 0.70738 0.0
H3367 H 0.64198 0.31394 0.72748 0.0
H3368 H 0.68029 0.28529 0.70688 0.0
H3369 H 0.66264 0.2676 0.68689 0.0
H3370 H 0.68174 0.29365 0.75361 0.0
H3371 H 0.6737 0.31855 0.67828 0.0
H3372 H 0.65829 0.32965 0.64567 0.0
H3373 H 0.63882 0.36264 0.69398 0.0
H3374 H 0.65396 0.35158 0.72697 0.0
H3375 H 0.74267 0.34518 0.77873 0.0
H3376 H 0.7244 0.32796 0.75926 0.0
H3377 H 0.68702 0.35814 0.77877 0.0
H3378 H 0.70527 0.37559 0.79803 0.0
H3379 H 0.68467 0.34912 0.73314 0.0
H3380 H 0.6928 0.32458 0.80838 0.0
H3381 H 0.70798 0.31346 0.84124 0.0
H3382 H 0.72696 0.2798 0.79359 0.0
H3383 H 0.71206 0.29086 0.76035 0.0
C3384 C 0.63644 0.29384 0.70707 0.0
C3385 C 0.64204 0.28062 0.6955 0.0
C3386 C 0.64656 0.30391 0.71849 0.0
C3387 C 0.66245 0.30097 0.71849 0.0
C3388 C 0.66807 0.28776 0.70706 0.0
C3389 C 0.65796 0.2777 0.69558 0.0
C3390 C 0.67321 0.31158 0.73068 0.0
C3391 C 0.68254 0.30573 0.74894 0.0
C3392 C 0.67392 0.32742 0.72498 0.0
C3393 C 0.66485 0.33413 0.70515 0.0
C3394 C 0.66604 0.32809 0.682 0.0
C3395 C 0.65737 0.33439 0.66343 0.0
C3396 C 0.64755 0.34682 0.66777 0.0
C3397 C 0.64642 0.353 0.69066 0.0
C3398 C 0.65505 0.34672 0.70929 0.0
C3399 C 0.73057 0.34816 0.77894 0.0
C3400 C 0.72542 0.36174 0.78998 0.0
C3401 C 0.72013 0.33827 0.76788 0.0
C3402 C 0.70433 0.34169 0.7678 0.0
C3403 C 0.69916 0.35528 0.77867 0.0
C3404 C 0.7096 0.36521 0.78972 0.0
C3405 C 0.69326 0.33118 0.75604 0.0
C3406 C 0.68386 0.33704 0.73786 0.0
C3407 C 0.69246 0.31535 0.76186 0.0
C3408 C 0.70142 0.30865 0.78183 0.0
C3409 C 0.70031 0.31489 0.80487 0.0
C3410 C 0.70884 0.30858 0.82357 0.0
C3411 C 0.71846 0.29596 0.81949 0.0
C3412 C 0.71953 0.28959 0.79671 0.0
C3413 C 0.71103 0.29587 0.77794 0.0
H3414 H 0.72506 0.29109 0.834 0.0
H3415 H 0.64085 0.35168 0.65337 0.0
H3416 H 0.37933 0.29623 0.18009 0.0
H3417 H 0.36469 0.31462 0.20396 0.0
H3418 H 0.37051 0.28585 0.26588 0.0
H3419 H 0.38508 0.26732 0.24211 0.0
H3420 H 0.3409 0.29442 0.25998 0.0
H3421 H 0.38981 0.31918 0.26184 0.0
H3422 H 0.41376 0.33001 0.24531 0.0
H3423 H 0.38759 0.36304 0.20537 0.0
H3424 H 0.36345 0.35225 0.22138 0.0
H3425 H 0.30765 0.34871 0.339 0.0
H3426 H 0.3268 0.332 0.32031 0.0
H3427 H 0.32189 0.35698 0.25441 0.0
H3428 H 0.30277 0.3738 0.27294 0.0
H3429 H 0.35235 0.35027 0.26505 0.0
H3430 H 0.30351 0.32392 0.26108 0.0
H3431 H 0.27963 0.31288 0.27757 0.0
H3432 H 0.30616 0.28259 0.3219 0.0
H3433 H 0.33022 0.29362 0.30591 0.0
C3434 C 0.37761 0.29386 0.19883 0.0
C3435 C 0.38332 0.28029 0.2092 0.0
C3436 C 0.3693 0.30442 0.21247 0.0
C3437 C 0.36662 0.30164 0.23672 0.0
C3438 C 0.37248 0.28821 0.24719 0.0
C3439 C 0.38082 0.27765 0.23358 0.0
C3440 C 0.35697 0.31234 0.2508 0.0
C3441 C 0.34356 0.30658 0.26147 0.0
C3442 C 0.36031 0.32825 0.2523 0.0
C3443 C 0.3748 0.33481 0.24266 0.0
C3444 C 0.38915 0.32867 0.24938 0.0
C3445 C 0.40276 0.33482 0.24013 0.0
C3446 C 0.4022 0.34718 0.22426 0.0
C3447 C 0.38801 0.35345 0.21765 0.0
C3448 C 0.37435 0.34733 0.22683 0.0
C3449 C 0.31071 0.35073 0.32058 0.0
C3450 C 0.3036 0.36251 0.30739 0.0
C3451 C 0.32164 0.34116 0.30993 0.0
C3452 C 0.32563 0.34318 0.28594 0.0
C3453 C 0.31895 0.35524 0.27296 0.0
C3454 C 0.30798 0.36478 0.28355 0.0
C3455 C 0.33627 0.33233 0.27404 0.0
C3456 C 0.34982 0.33808 0.26374 0.0
C3457 C 0.3331 0.31638 0.27291 0.0
C3458 C 0.31865 0.30972 0.2825 0.0
C3459 C 0.30425 0.315 0.2745 0.0
C3460 C 0.29068 0.30873 0.28373 0.0
C3461 C 0.29138 0.29707 0.30083 0.0
C3462 C 0.30564 0.29164 0.30869 0.0
C3463 C 0.31925 0.29789 0.29954 0.0
H3464 H 0.28086 0.29223 0.30794 0.0
H3465 H 0.41275 0.35193 0.21712 0.0
H3466 H 0.65482 0.27936 0.3322 0.0
H3467 H 0.67114 0.29815 0.31202 0.0
H3468 H 0.63453 0.30785 0.26236 0.0
H3469 H 0.61815 0.28892 0.28227 0.0
H3470 H 0.66195 0.30446 0.24 0.0
H3471 H 0.64251 0.33282 0.30678 0.0
H3472 H 0.6369 0.33752 0.34918 0.0
H3473 H 0.6852 0.33594 0.36529 0.0
H3474 H 0.69109 0.33101 0.32302 0.0
H3475 H 0.69712 0.3711 0.19072 0.0
H3476 H 0.67907 0.35372 0.21055 0.0
H3477 H 0.71338 0.34332 0.26371 0.0
H3478 H 0.73137 0.36088 0.24432 0.0
H3479 H 0.68605 0.34775 0.28391 0.0
H3480 H 0.70554 0.31833 0.21791 0.0
H3481 H 0.71143 0.31321 0.17571 0.0
H3482 H 0.66339 0.31639 0.15834 0.0
H3483 H 0.65723 0.32174 0.20041 0.0
C3484 C 0.65021 0.2855 0.31701 0.0
C3485 C 0.63517 0.28268 0.30888 0.0
C3486 C 0.65954 0.29627 0.30555 0.0
C3487 C 0.65397 0.30452 0.28587 0.0
C3488 C 0.63902 0.30163 0.27756 0.0
C3489 C 0.62967 0.29084 0.289 0.0
C3490 C 0.66385 0.31601 0.27379 0.0
C3491 C 0.66703 0.31407 0.2495 0.0
C3492 C 0.67073 0.32834 0.28634 0.0
C3493 C 0.66723 0.33142 0.31176 0.0
C3494 C 0.65193 0.33337 0.31939 0.0
C3495 C 0.6487 0.33609 0.3434 0.0
C3496 C 0.66068 0.337 0.35993 0.0
C3497 C 0.67592 0.33522 0.35247 0.0
C3498 C 0.67922 0.33248 0.32848 0.0
C3499 C 0.70082 0.36512 0.20666 0.0
C3500 C 0.71569 0.36732 0.21591 0.0
C3501 C 0.6905 0.35516 0.21791 0.0
C3502 C 0.69494 0.34708 0.23845 0.0
C3503 C 0.70971 0.34943 0.24788 0.0
C3504 C 0.71999 0.35945 0.23673 0.0
C3505 C 0.68425 0.33614 0.25014 0.0
C3506 C 0.68091 0.33818 0.27437 0.0
C3507 C 0.67727 0.32388 0.23755 0.0
C3508 C 0.68094 0.3206 0.21226 0.0
C3509 C 0.69624 0.31806 0.20506 0.0
C3510 C 0.69963 0.3151 0.18117 0.0
C3511 C 0.6878 0.31452 0.16434 0.0
C3512 C 0.67255 0.31687 0.17139 0.0
C3513 C 0.6691 0.31985 0.19525 0.0
H3514 H 0.69044 0.31222 0.14586 0.0
H3515 H 0.65815 0.3391 0.37851 0.0
H3516 H 0.68786 0.62498 0.32029 0.0
H3517 H 0.67092 0.64052 0.29522 0.0
H3518 H 0.70387 0.63785 0.23786 0.0
H3519 H 0.72105 0.62271 0.26305 0.0
H3520 H 0.69438 0.66606 0.24245 0.0
H3521 H 0.66944 0.61711 0.23745 0.0
H3522 H 0.65755 0.59329 0.25263 0.0
H3523 H 0.62289 0.61983 0.28851 0.0
H3524 H 0.6347 0.64383 0.27381 0.0
H3525 H 0.64487 0.69829 0.15529 0.0
H3526 H 0.6604 0.67934 0.17675 0.0
H3527 H 0.6318 0.68517 0.23887 0.0
H3528 H 0.61617 0.70407 0.21757 0.0
H3529 H 0.639 0.65456 0.23004 0.0
H3530 H 0.66515 0.70347 0.2361 0.0
H3531 H 0.67709 0.72706 0.22016 0.0
H3532 H 0.70967 0.69984 0.18101 0.0
H3533 H 0.69778 0.67606 0.19647 0.0
C3534 C 0.69145 0.62763 0.30229 0.0
C3535 C 0.7058 0.62264 0.29366 0.0
C3536 C 0.68172 0.63644 0.28792 0.0
C3537 C 0.68604 0.6402 0.26453 0.0
C3538 C 0.7003 0.6351 0.25584 0.0
C3539 C 0.7101 0.62643 0.27026 0.0
C3540 C 0.676 0.65001 0.24947 0.0
C3541 C 0.68234 0.66338 0.23941 0.0
C3542 C 0.66021 0.6467 0.24587 0.0
C3543 C 0.65304 0.63228 0.2547 0.0
C3544 C 0.65935 0.61788 0.24873 0.0
C3545 C 0.65261 0.60434 0.25722 0.0
C3546 C 0.63949 0.60505 0.27157 0.0
C3547 C 0.63306 0.6193 0.27741 0.0
C3548 C 0.63976 0.63287 0.26898 0.0
C3549 C 0.6418 0.69546 0.17345 0.0
C3550 C 0.62937 0.70278 0.1848 0.0
C3551 C 0.6507 0.68465 0.18569 0.0
C3552 C 0.64732 0.68099 0.20945 0.0
C3553 C 0.63459 0.68786 0.22054 0.0
C3554 C 0.62573 0.6987 0.20837 0.0
C3555 C 0.65742 0.67052 0.22313 0.0
C3556 C 0.65109 0.6571 0.23296 0.0
C3557 C 0.67325 0.67371 0.22641 0.0
C3558 C 0.68047 0.68799 0.21724 0.0
C3559 C 0.67478 0.70251 0.22395 0.0
C3560 C 0.68155 0.71592 0.21503 0.0
C3561 C 0.6941 0.71495 0.19953 0.0
C3562 C 0.69993 0.70057 0.19299 0.0
C3563 C 0.69319 0.68713 0.20183 0.0
H3564 H 0.69933 0.72534 0.19264 0.0
H3565 H 0.63429 0.59456 0.27813 0.0
H3566 H 0.29506 0.62154 0.20687 0.0
H3567 H 0.31428 0.63715 0.22758 0.0
H3568 H 0.27907 0.66983 0.24705 0.0
H3569 H 0.25984 0.65447 0.22611 0.0
H3570 H 0.30412 0.68422 0.23125 0.0
H3571 H 0.2932 0.64396 0.28733 0.0
H3572 H 0.29053 0.61714 0.30106 0.0
H3573 H 0.33835 0.60894 0.28631 0.0
H3574 H 0.34125 0.63568 0.27217 0.0
H3575 H 0.34136 0.72472 0.32359 0.0
H3576 H 0.32392 0.70752 0.30227 0.0
H3577 H 0.36255 0.68035 0.27861 0.0
H3578 H 0.38017 0.69759 0.29983 0.0
H3579 H 0.33708 0.66274 0.29532 0.0
H3580 H 0.34788 0.70369 0.24058 0.0
H3581 H 0.35021 0.73074 0.22783 0.0
H3582 H 0.30204 0.73778 0.2411 0.0
H3583 H 0.29946 0.71082 0.25428 0.0
C3584 C 0.2914 0.63205 0.21558 0.0
C3585 C 0.27591 0.63675 0.21489 0.0
C3586 C 0.30239 0.64092 0.22748 0.0
C3587 C 0.29807 0.65457 0.23906 0.0
C3588 C 0.28265 0.65933 0.23824 0.0
C3589 C 0.27167 0.65051 0.22631 0.0
C3590 C 0.30961 0.66403 0.25184 0.0
C3591 C 0.3112 0.67955 0.24544 0.0
C3592 C 0.31912 0.65784 0.26995 0.0
C3593 C 0.3174 0.64177 0.27844 0.0
C3594 C 0.30312 0.6364 0.28682 0.0
C3595 C 0.30157 0.62123 0.29471 0.0
C3596 C 0.31425 0.61133 0.29449 0.0
C3597 C 0.32852 0.61661 0.28643 0.0
C3598 C 0.33013 0.63178 0.27849 0.0
C3599 C 0.34617 0.71504 0.31399 0.0
C3600 C 0.36215 0.71255 0.31329 0.0
C3601 C 0.33619 0.70526 0.30176 0.0
C3602 C 0.34199 0.69278 0.28873 0.0
C3603 C 0.35789 0.68996 0.28855 0.0
C3604 C 0.36792 0.69984 0.3006 0.0
C3605 C 0.33141 0.68291 0.27488 0.0
C3606 C 0.33003 0.66734 0.28105 0.0
C3607 C 0.32203 0.68906 0.25664 0.0
C3608 C 0.32352 0.70527 0.24864 0.0
C3609 C 0.33781 0.71104 0.24098 0.0
C3610 C 0.33917 0.72635 0.23364 0.0
C3611 C 0.32629 0.73598 0.23371 0.0
C3612 C 0.31201 0.73031 0.24108 0.0
C3613 C 0.31059 0.71501 0.24847 0.0
H3614 H 0.32736 0.74783 0.22801 0.0
H3615 H 0.31303 0.59959 0.30061 0.0
loop_
_geom_bond_atom_site_label_1
_geom_bond_atom_site_label_2
_geom_bond_distance
_geom_bond_site_symmetry_2
_ccdc_geom_bond_type
C0 O1 1.160 . S
C0 O7 1.185 . S
O1 C0 1.160 . S
O2 Zn3 1.899 . S
O2 C10 1.284 . S
Zn3 O2 1.899 . S
Zn3 O4 2.032 . S
Zn3 O7 2.086 . S
Zn3 O12 1.977 . S
O4 Zn3 2.032 . S
O4 C8 1.278 . S
C5 O6 1.203 . S
C5 O12 1.267 . S
O6 C5 1.203 . S
O7 C0 1.185 . S
O7 Zn3 2.086 . S
C8 O4 1.278 . S
C8 O9 1.211 . S
O9 C8 1.211 . S
C10 O2 1.284 . S
C10 O11 1.273 . S
O11 C10 1.273 . S
O12 Zn3 1.977 . S
O12 C5 1.267 . S
C13 O14 1.160 . S
C13 O20 1.185 . S
O14 C13 1.160 . S
O15 Zn16 1.899 . S
O15 C23 1.284 . S
Zn16 O15 1.899 . S
Zn16 O17 2.032 . S
Zn16 O20 2.086 . S
Zn16 O25 1.977 . S
O17 Zn16 2.032 . S
O17 C21 1.278 . S
C18 O19 1.203 . S
C18 O25 1.267 . S
O19 C18 1.203 . S
O20 C13 1.185 . S
O20 Zn16 2.086 . S
C21 O17 1.278 . S
C21 O22 1.211 . S
O22 C21 1.211 . S
C23 O15 1.284 . S
C23 O24 1.273 . S
O24 C23 1.273 . S
O25 Zn16 1.977 . S
O25 C18 1.267 . S
C26 O27 1.160 . S
C26 O33 1.185 . S
O27 C26 1.160 . S
O28 Zn29 1.899 . S
O28 C36 1.284 . S
Zn29 O28 1.899 . S
Zn29 O30 2.032 . S
Zn29 O33 2.086 . S
Zn29 O38 1.977 . S
O30 Zn29 2.032 . S
O30 C34 1.278 . S
C31 O32 1.203 . S
C31 O38 1.267 . S
O32 C31 1.203 . S
O33 C26 1.185 . S
O33 Zn29 2.086 . S
C34 O30 1.278 . S
C34 O35 1.211 . S
O35 C34 1.211 . S
C36 O28 1.284 . S
C36 O37 1.273 . S
O37 C36 1.273 . S
O38 Zn29 1.977 . S
O38 C31 1.267 . S
C39 O40 1.160 . S
C39 O46 1.185 . S
O40 C39 1.160 . S
O41 Zn42 1.899 . S
O41 C49 1.284 . S
Zn42 O41 1.899 . S
Zn42 O43 2.032 . S
Zn42 O46 2.086 . S
Zn42 O51 1.977 . S
O43 Zn42 2.032 . S
O43 C47 1.278 . S
C44 O45 1.203 . S
C44 O51 1.267 . S
O45 C44 1.203 . S
O46 C39 1.185 . S
O46 Zn42 2.086 . S
C47 O43 1.278 . S
C47 O48 1.211 . S
O48 C47 1.211 . S
C49 O41 1.284 . S
C49 O50 1.273 . S
O50 C49 1.273 . S
O51 Zn42 1.977 . S
O51 C44 1.267 . S
C52 O53 1.160 . S
C52 O59 1.185 . S
O53 C52 1.160 . S
O54 Zn55 1.899 . S
O54 C62 1.284 . S
Zn55 O54 1.899 . S
Zn55 O56 2.032 . S
Zn55 O59 2.086 . S
Zn55 O64 1.977 . S
O56 Zn55 2.032 . S
O56 C60 1.278 . S
C57 O58 1.203 . S
C57 O64 1.267 . S
O58 C57 1.203 . S
O59 C52 1.185 . S
O59 Zn55 2.086 . S
C60 O56 1.278 . S
C60 O61 1.211 . S
O61 C60 1.211 . S
C62 O54 1.284 . S
C62 O63 1.273 . S
O63 C62 1.273 . S
O64 Zn55 1.977 . S
O64 C57 1.267 . S
C65 O66 1.160 . S
C65 O72 1.185 . S
O66 C65 1.160 . S
O67 Zn68 1.899 . S
O67 C75 1.284 . S
Zn68 O67 1.899 . S
Zn68 O69 2.032 . S
Zn68 O72 2.086 . S
Zn68 O77 1.977 . S
O69 Zn68 2.032 . S
O69 C73 1.278 . S
C70 O71 1.203 . S
C70 O77 1.267 . S
O71 C70 1.203 . S
O72 C65 1.185 . S
O72 Zn68 2.086 . S
C73 O69 1.278 . S
C73 O74 1.211 . S
O74 C73 1.211 . S
C75 O67 1.284 . S
C75 O76 1.273 . S
O76 C75 1.273 . S
O77 Zn68 1.977 . S
O77 C70 1.267 . S
C78 O79 1.160 . S
C78 O85 1.185 . S
O79 C78 1.160 . S
O80 Zn81 1.899 . S
O80 C88 1.284 . S
Zn81 O80 1.899 . S
Zn81 O82 2.032 . S
Zn81 O85 2.086 . S
Zn81 O90 1.977 . S
O82 Zn81 2.032 . S
O82 C86 1.278 . S
C83 O84 1.203 . S
C83 O90 1.267 . S
O84 C83 1.203 . S
O85 C78 1.185 . S
O85 Zn81 2.086 . S
C86 O82 1.278 . S
C86 O87 1.211 . S
O87 C86 1.211 . S
C88 O80 1.284 . S
C88 O89 1.273 . S
O89 C88 1.273 . S
O90 Zn81 1.977 . S
O90 C83 1.267 . S
C91 O92 1.160 . S
C91 O98 1.185 . S
O92 C91 1.160 . S
O93 Zn94 1.899 . S
O93 C101 1.284 . S
Zn94 O93 1.899 . S
Zn94 O95 2.032 . S
Zn94 O98 2.086 . S
Zn94 O103 1.977 . S
O95 Zn94 2.032 . S
O95 C99 1.278 . S
C96 O97 1.203 . S
C96 O103 1.267 . S
O97 C96 1.203 . S
O98 C91 1.185 . S
O98 Zn94 2.086 . S
C99 O95 1.278 . S
C99 O100 1.211 . S
O100 C99 1.211 . S
C101 O93 1.284 . S
C101 O102 1.273 . S
O102 C101 1.273 . S
O103 Zn94 1.977 . S
O103 C96 1.267 . S
C104 O105 1.160 . S
C104 O111 1.185 . S
O105 C104 1.160 . S
O106 Zn107 1.899 . S
O106 C114 1.284 . S
Zn107 O106 1.899 . S
Zn107 O108 2.032 . S
Zn107 O111 2.086 . S
Zn107 O116 1.977 . S
O108 Zn107 2.032 . S
O108 C112 1.278 . S
C109 O110 1.203 . S
C109 O116 1.267 . S
O110 C109 1.203 . S
O111 C104 1.185 . S
O111 Zn107 2.086 . S
C112 O108 1.278 . S
C112 O113 1.211 . S
O113 C112 1.211 . S
C114 O106 1.284 . S
C114 O115 1.273 . S
O115 C114 1.273 . S
O116 Zn107 1.977 . S
O116 C109 1.267 . S
C117 O118 1.160 . S
C117 O124 1.185 . S
O118 C117 1.160 . S
O119 Zn120 1.899 . S
O119 C127 1.284 . S
Zn120 O119 1.899 . S
Zn120 O121 2.032 . S
Zn120 O124 2.086 . S
Zn120 O129 1.977 . S
O121 Zn120 2.032 . S
O121 C125 1.278 . S
C122 O123 1.203 . S
C122 O129 1.267 . S
O123 C122 1.203 . S
O124 C117 1.185 . S
O124 Zn120 2.086 . S
C125 O121 1.278 . S
C125 O126 1.211 . S
O126 C125 1.211 . S
C127 O119 1.284 . S
C127 O128 1.273 . S
O128 C127 1.273 . S
O129 Zn120 1.977 . S
O129 C122 1.267 . S
C130 O131 1.160 . S
C130 O137 1.185 . S
O131 C130 1.160 . S
O132 Zn133 1.899 . S
O132 C140 1.284 . S
Zn133 O132 1.899 . S
Zn133 O134 2.032 . S
Zn133 O137 2.086 . S
Zn133 O142 1.977 . S
O134 Zn133 2.032 . S
O134 C138 1.278 . S
C135 O136 1.203 . S
C135 O142 1.267 . S
O136 C135 1.203 . S
O137 C130 1.185 . S
O137 Zn133 2.086 . S
C138 O134 1.278 . S
C138 O139 1.211 . S
O139 C138 1.211 . S
C140 O132 1.284 . S
C140 O141 1.273 . S
O141 C140 1.273 . S
O142 Zn133 1.977 . S
O142 C135 1.267 . S
C143 O144 1.160 . S
C143 O150 1.185 . S
O144 C143 1.160 . S
O145 Zn146 1.899 . S
O145 C153 1.284 . S
Zn146 O145 1.899 . S
Zn146 O147 2.032 . S
Zn146 O150 2.086 . S
Zn146 O155 1.977 . S
O147 Zn146 2.032 . S
O147 C151 1.278 . S
C148 O149 1.203 . S
C148 O155 1.267 . S
O149 C148 1.203 . S
O150 C143 1.185 . S
O150 Zn146 2.086 . S
C151 O147 1.278 . S
C151 O152 1.211 . S
O152 C151 1.211 . S
C153 O145 1.284 . S
C153 O154 1.273 . S
O154 C153 1.273 . S
O155 Zn146 1.977 . S
O155 C148 1.267 . S
C156 O157 1.160 . S
C156 O163 1.185 . S
O157 C156 1.160 . S
O158 Zn159 1.899 . S
O158 C166 1.284 . S
Zn159 O158 1.899 . S
Zn159 O160 2.032 . S
Zn159 O163 2.086 . S
Zn159 O168 1.977 . S
O160 Zn159 2.032 . S
O160 C164 1.278 . S
C161 O162 1.203 . S
C161 O168 1.267 . S
O162 C161 1.203 . S
O163 C156 1.185 . S
O163 Zn159 2.086 . S
C164 O160 1.278 . S
C164 O165 1.211 . S
O165 C164 1.211 . S
C166 O158 1.284 . S
C166 O167 1.273 . S
O167 C166 1.273 . S
O168 Zn159 1.977 . S
O168 C161 1.267 . S
C169 O170 1.160 . S
C169 O176 1.185 . S
O170 C169 1.160 . S
O171 Zn172 1.899 . S
O171 C179 1.284 . S
Zn172 O171 1.899 . S
Zn172 O173 2.032 . S
Zn172 O176 2.086 . S
Zn172 O181 1.977 . S
O173 Zn172 2.032 . S
O173 C177 1.278 . S
C174 O175 1.203 . S
C174 O181 1.267 . S
O175 C174 1.203 . S
O176 C169 1.185 . S
O176 Zn172 2.086 . S
C177 O173 1.278 . S
C177 O178 1.211 . S
O178 C177 1.211 . S
C179 O171 1.284 . S
C179 O180 1.273 . S
O180 C179 1.273 . S
O181 Zn172 1.977 . S
O181 C174 1.267 . S
C182 O183 1.160 . S
C182 O189 1.185 . S
O183 C182 1.160 . S
O184 Zn185 1.899 . S
O184 C192 1.284 . S
Zn185 O184 1.899 . S
Zn185 O186 2.032 . S
Zn185 O189 2.086 . S
Zn185 O194 1.977 . S
O186 Zn185 2.032 . S
O186 C190 1.278 . S
C187 O188 1.203 . S
C187 O194 1.267 . S
O188 C187 1.203 . S
O189 C182 1.185 . S
O189 Zn185 2.086 . S
C190 O186 1.278 . S
C190 O191 1.211 . S
O191 C190 1.211 . S
C192 O184 1.284 . S
C192 O193 1.273 . S
O193 C192 1.273 . S
O194 Zn185 1.977 . S
O194 C187 1.267 . S
C195 O196 1.160 . S
C195 O202 1.185 . S
O196 C195 1.160 . S
O197 Zn198 1.899 . S
O197 C205 1.284 . S
Zn198 O197 1.899 . S
Zn198 O199 2.032 . S
Zn198 O202 2.086 . S
Zn198 O207 1.977 . S
O199 Zn198 2.032 . S
O199 C203 1.278 . S
C200 O201 1.203 . S
C200 O207 1.267 . S
O201 C200 1.203 . S
O202 C195 1.185 . S
O202 Zn198 2.086 . S
C203 O199 1.278 . S
C203 O204 1.211 . S
O204 C203 1.211 . S
C205 O197 1.284 . S
C205 O206 1.273 . S
O206 C205 1.273 . S
O207 Zn198 1.977 . S
O207 C200 1.267 . S
C208 O209 1.160 . S
C208 O215 1.185 . S
O209 C208 1.160 . S
O210 Zn211 1.899 . S
O210 C218 1.284 . S
Zn211 O210 1.899 . S
Zn211 O212 2.032 . S
Zn211 O215 2.086 . S
Zn211 O220 1.977 . S
O212 Zn211 2.032 . S
O212 C216 1.278 . S
C213 O214 1.203 . S
C213 O220 1.267 . S
O214 C213 1.203 . S
O215 C208 1.185 . S
O215 Zn211 2.086 . S
C216 O212 1.278 . S
C216 O217 1.211 . S
O217 C216 1.211 . S
C218 O210 1.284 . S
C218 O219 1.273 . S
O219 C218 1.273 . S
O220 Zn211 1.977 . S
O220 C213 1.267 . S
C221 O222 1.160 . S
C221 O228 1.185 . S
O222 C221 1.160 . S
O223 Zn224 1.899 . S
O223 C231 1.284 . S
Zn224 O223 1.899 . S
Zn224 O225 2.032 . S
Zn224 O228 2.086 . S
Zn224 O233 1.977 . S
O225 Zn224 2.032 . S
O225 C229 1.278 . S
C226 O227 1.203 . S
C226 O233 1.267 . S
O227 C226 1.203 . S
O228 C221 1.185 . S
O228 Zn224 2.086 . S
C229 O225 1.278 . S
C229 O230 1.211 . S
O230 C229 1.211 . S
C231 O223 1.284 . S
C231 O232 1.273 . S
O232 C231 1.273 . S
O233 Zn224 1.977 . S
O233 C226 1.267 . S
C234 O235 1.160 . S
C234 O241 1.185 . S
O235 C234 1.160 . S
O236 Zn237 1.899 . S
O236 C244 1.284 . S
Zn237 O236 1.899 . S
Zn237 O238 2.032 . S
Zn237 O241 2.086 . S
Zn237 O246 1.977 . S
O238 Zn237 2.032 . S
O238 C242 1.278 . S
C239 O240 1.203 . S
C239 O246 1.267 . S
O240 C239 1.203 . S
O241 C234 1.185 . S
O241 Zn237 2.086 . S
C242 O238 1.278 . S
C242 O243 1.211 . S
O243 C242 1.211 . S
C244 O236 1.284 . S
C244 O245 1.273 . S
O245 C244 1.273 . S
O246 Zn237 1.977 . S
O246 C239 1.267 . S
C247 O248 1.160 . S
C247 O254 1.185 . S
O248 C247 1.160 . S
O249 Zn250 1.899 . S
O249 C257 1.284 . S
Zn250 O249 1.899 . S
Zn250 O251 2.032 . S
Zn250 O254 2.086 . S
Zn250 O259 1.977 . S
O251 Zn250 2.032 . S
O251 C255 1.278 . S
C252 O253 1.203 . S
C252 O259 1.267 . S
O253 C252 1.203 . S
O254 C247 1.185 . S
O254 Zn250 2.086 . S
C255 O251 1.278 . S
C255 O256 1.211 . S
O256 C255 1.211 . S
C257 O249 1.284 . S
C257 O258 1.273 . S
O258 C257 1.273 . S
O259 Zn250 1.977 . S
O259 C252 1.267 . S
C260 O261 1.160 . S
C260 O267 1.185 . S
O261 C260 1.160 . S
O262 Zn263 1.899 . S
O262 C270 1.284 . S
Zn263 O262 1.899 . S
Zn263 O264 2.032 . S
Zn263 O267 2.086 . S
Zn263 O272 1.977 . S
O264 Zn263 2.032 . S
O264 C268 1.278 . S
C265 O266 1.203 . S
C265 O272 1.267 . S
O266 C265 1.203 . S
O267 C260 1.185 . S
O267 Zn263 2.086 . S
C268 O264 1.278 . S
C268 O269 1.211 . S
O269 C268 1.211 . S
C270 O262 1.284 . S
C270 O271 1.273 . S
O271 C270 1.273 . S
O272 Zn263 1.977 . S
O272 C265 1.267 . S
C273 O274 1.160 . S
C273 O280 1.185 . S
O274 C273 1.160 . S
O275 Zn276 1.899 . S
O275 C283 1.284 . S
Zn276 O275 1.899 . S
Zn276 O277 2.032 . S
Zn276 O280 2.086 . S
Zn276 O285 1.977 . S
O277 Zn276 2.032 . S
O277 C281 1.278 . S
C278 O279 1.203 . S
C278 O285 1.267 . S
O279 C278 1.203 . S
O280 C273 1.185 . S
O280 Zn276 2.086 . S
C281 O277 1.278 . S
C281 O282 1.211 . S
O282 C281 1.211 . S
C283 O275 1.284 . S
C283 O284 1.273 . S
O284 C283 1.273 . S
O285 Zn276 1.977 . S
O285 C278 1.267 . S
C286 O287 1.160 . S
C286 O293 1.185 . S
O287 C286 1.160 . S
O288 Zn289 1.899 . S
O288 C296 1.284 . S
Zn289 O288 1.899 . S
Zn289 O290 2.032 . S
Zn289 O293 2.086 . S
Zn289 O298 1.977 . S
O290 Zn289 2.032 . S
O290 C294 1.278 . S
C291 O292 1.203 . S
C291 O298 1.267 . S
O292 C291 1.203 . S
O293 C286 1.185 . S
O293 Zn289 2.086 . S
C294 O290 1.278 . S
C294 O295 1.211 . S
O295 C294 1.211 . S
C296 O288 1.284 . S
C296 O297 1.273 . S
O297 C296 1.273 . S
O298 Zn289 1.977 . S
O298 C291 1.267 . S
C299 O300 1.160 . S
C299 O306 1.185 . S
O300 C299 1.160 . S
O301 Zn302 1.899 . S
O301 C309 1.284 . S
Zn302 O301 1.899 . S
Zn302 O303 2.032 . S
Zn302 O306 2.086 . S
Zn302 O311 1.977 . S
O303 Zn302 2.032 . S
O303 C307 1.278 . S
C304 O305 1.203 . S
C304 O311 1.267 . S
O305 C304 1.203 . S
O306 C299 1.185 . S
O306 Zn302 2.086 . S
C307 O303 1.278 . S
C307 O308 1.211 . S
O308 C307 1.211 . S
C309 O301 1.284 . S
C309 O310 1.273 . S
O310 C309 1.273 . S
O311 Zn302 1.977 . S
O311 C304 1.267 . S
C312 O313 1.160 . S
C312 O319 1.185 . S
O313 C312 1.160 . S
O314 Zn315 1.899 . S
O314 C322 1.284 . S
Zn315 O314 1.899 . S
Zn315 O316 2.032 . S
Zn315 O319 2.086 . S
Zn315 O324 1.977 . S
O316 Zn315 2.032 . S
O316 C320 1.278 . S
C317 O318 1.203 . S
C317 O324 1.267 . S
O318 C317 1.203 . S
O319 C312 1.185 . S
O319 Zn315 2.086 . S
C320 O316 1.278 . S
C320 O321 1.211 . S
O321 C320 1.211 . S
C322 O314 1.284 . S
C322 O323 1.273 . S
O323 C322 1.273 . S
O324 Zn315 1.977 . S
O324 C317 1.267 . S
C325 O326 1.160 . S
C325 O332 1.185 . S
O326 C325 1.160 . S
O327 Zn328 1.899 . S
O327 C335 1.284 . S
Zn328 O327 1.899 . S
Zn328 O329 2.032 . S
Zn328 O332 2.086 . S
Zn328 O337 1.977 . S
O329 Zn328 2.032 . S
O329 C333 1.278 . S
C330 O331 1.203 . S
C330 O337 1.267 . S
O331 C330 1.203 . S
O332 C325 1.185 . S
O332 Zn328 2.086 . S
C333 O329 1.278 . S
C333 O334 1.211 . S
O334 C333 1.211 . S
C335 O327 1.284 . S
C335 O336 1.273 . S
O336 C335 1.273 . S
O337 Zn328 1.977 . S
O337 C330 1.267 . S
C338 O339 1.160 . S
C338 O345 1.185 . S
O339 C338 1.160 . S
O340 Zn341 1.899 . S
O340 C348 1.284 . S
Zn341 O340 1.899 . S
Zn341 O342 2.032 . S
Zn341 O345 2.086 . S
Zn341 O350 1.977 . S
O342 Zn341 2.032 . S
O342 C346 1.278 . S
C343 O344 1.203 . S
C343 O350 1.267 . S
O344 C343 1.203 . S
O345 C338 1.185 . S
O345 Zn341 2.086 . S
C346 O342 1.278 . S
C346 O347 1.211 . S
O347 C346 1.211 . S
C348 O340 1.284 . S
C348 O349 1.273 . S
O349 C348 1.273 . S
O350 Zn341 1.977 . S
O350 C343 1.267 . S
C351 O352 1.160 . S
C351 O358 1.185 . S
O352 C351 1.160 . S
O353 Zn354 1.899 . S
O353 C361 1.284 . S
Zn354 O353 1.899 . S
Zn354 O355 2.032 . S
Zn354 O358 2.086 . S
Zn354 O363 1.977 . S
O355 Zn354 2.032 . S
O355 C359 1.278 . S
C356 O357 1.203 . S
C356 O363 1.267 . S
O357 C356 1.203 . S
O358 C351 1.185 . S
O358 Zn354 2.086 . S
C359 O355 1.278 . S
C359 O360 1.211 . S
O360 C359 1.211 . S
C361 O353 1.284 . S
C361 O362 1.273 . S
O362 C361 1.273 . S
O363 Zn354 1.977 . S
O363 C356 1.267 . S
C364 O365 1.160 . S
C364 O371 1.185 . S
O365 C364 1.160 . S
O366 Zn367 1.899 . S
O366 C374 1.284 . S
Zn367 O366 1.899 . S
Zn367 O368 2.032 . S
Zn367 O371 2.086 . S
Zn367 O376 1.977 . S
O368 Zn367 2.032 . S
O368 C372 1.278 . S
C369 O370 1.203 . S
C369 O376 1.267 . S
O370 C369 1.203 . S
O371 C364 1.185 . S
O371 Zn367 2.086 . S
C372 O368 1.278 . S
C372 O373 1.211 . S
O373 C372 1.211 . S
C374 O366 1.284 . S
C374 O375 1.273 . S
O375 C374 1.273 . S
O376 Zn367 1.977 . S
O376 C369 1.267 . S
C377 O378 1.160 . S
C377 O384 1.185 . S
O378 C377 1.160 . S
O379 Zn380 1.899 . S
O379 C387 1.284 . S
Zn380 O379 1.899 . S
Zn380 O381 2.032 . S
Zn380 O384 2.086 . S
Zn380 O389 1.977 . S
O381 Zn380 2.032 . S
O381 C385 1.278 . S
C382 O383 1.203 . S
C382 O389 1.267 . S
O383 C382 1.203 . S
O384 C377 1.185 . S
O384 Zn380 2.086 . S
C385 O381 1.278 . S
C385 O386 1.211 . S
O386 C385 1.211 . S
C387 O379 1.284 . S
C387 O388 1.273 . S
O388 C387 1.273 . S
O389 Zn380 1.977 . S
O389 C382 1.267 . S
C390 O391 1.160 . S
C390 O397 1.185 . S
O391 C390 1.160 . S
O392 Zn393 1.899 . S
O392 C400 1.284 . S
Zn393 O392 1.899 . S
Zn393 O394 2.032 . S
Zn393 O397 2.086 . S
Zn393 O402 1.977 . S
O394 Zn393 2.032 . S
O394 C398 1.278 . S
C395 O396 1.203 . S
C395 O402 1.267 . S
O396 C395 1.203 . S
O397 C390 1.185 . S
O397 Zn393 2.086 . S
C398 O394 1.278 . S
C398 O399 1.211 . S
O399 C398 1.211 . S
C400 O392 1.284 . S
C400 O401 1.273 . S
O401 C400 1.273 . S
O402 Zn393 1.977 . S
O402 C395 1.267 . S
C403 O404 1.160 . S
C403 O410 1.185 . S
O404 C403 1.160 . S
O405 Zn406 1.899 . S
O405 C413 1.284 . S
Zn406 O405 1.899 . S
Zn406 O407 2.032 . S
Zn406 O410 2.086 . S
Zn406 O415 1.977 . S
O407 Zn406 2.032 . S
O407 C411 1.278 . S
C408 O409 1.203 . S
C408 O415 1.267 . S
O409 C408 1.203 . S
O410 C403 1.185 . S
O410 Zn406 2.086 . S
C411 O407 1.278 . S
C411 O412 1.211 . S
O412 C411 1.211 . S
C413 O405 1.284 . S
C413 O414 1.273 . S
O414 C413 1.273 . S
O415 Zn406 1.977 . S
O415 C408 1.267 . S
H416 C434 0.951 . S
H417 C436 0.951 . S
H418 C438 0.950 . S
H419 C439 0.950 . S
H420 C441 0.950 . S
H421 C444 0.950 . S
H422 C445 0.950 . S
H423 C447 0.950 . S
H424 C448 0.950 . S
H425 C449 0.951 . S
H426 C451 0.951 . S
H427 C453 0.950 . S
H428 C454 0.950 . S
H429 C456 0.950 . S
H430 C459 0.950 . S
H431 C460 0.950 . S
H432 C462 0.950 . S
H433 C463 0.950 . S
C434 H416 0.951 . S
C434 C435 1.366 . S
C434 C436 1.388 . S
C435 C434 1.366 . S
C435 C439 1.385 . S
C436 H417 0.951 . S
C436 C434 1.388 . S
C436 C437 1.366 . S
C437 C436 1.366 . S
C437 C438 1.414 . S
C437 C440 1.499 . S
C438 H418 0.950 . S
C438 C437 1.414 . S
C438 C439 1.374 . S
C439 H419 0.950 . S
C439 C435 1.385 . S
C439 C438 1.374 . S
C440 C437 1.499 . S
C440 C441 1.373 . S
C440 C442 1.389 . S
C441 H420 0.950 . S
C441 C440 1.373 . S
C441 C457 1.377 . S
C442 C440 1.389 . S
C442 C443 1.524 . S
C442 C456 1.377 . S
C443 C442 1.524 . S
C443 C444 1.397 . S
C443 C448 1.363 . S
C444 H421 0.950 . S
C444 C443 1.397 . S
C444 C445 1.334 . S
C445 H422 0.950 . S
C445 C444 1.334 . S
C445 C446 1.287 . S
C446 C445 1.287 . S
C446 C447 1.524 . S
C446 H465 0.913 . S
C447 H423 0.950 . S
C447 C446 1.524 . S
C447 C448 1.415 . S
C448 H424 0.950 . S
C448 C443 1.363 . S
C448 C447 1.415 . S
C449 H425 0.951 . S
C449 C450 1.366 . S
C449 C451 1.388 . S
C450 C449 1.366 . S
C450 C454 1.385 . S
C451 H426 0.951 . S
C451 C449 1.388 . S
C451 C452 1.366 . S
C452 C451 1.366 . S
C452 C453 1.414 . S
C452 C455 1.499 . S
C453 H427 0.950 . S
C453 C452 1.414 . S
C453 C454 1.374 . S
C454 H428 0.950 . S
C454 C450 1.385 . S
C454 C453 1.374 . S
C455 C452 1.499 . S
C455 C456 1.373 . S
C455 C457 1.389 . S
C456 H429 0.950 . S
C456 C442 1.377 . S
C456 C455 1.373 . S
C457 C441 1.377 . S
C457 C455 1.389 . S
C457 C458 1.524 . S
C458 C457 1.524 . S
C458 C459 1.397 . S
C458 C463 1.363 . S
C459 H430 0.950 . S
C459 C458 1.397 . S
C459 C460 1.334 . S
C460 H431 0.950 . S
C460 C459 1.334 . S
C460 C461 1.287 . S
C461 C460 1.287 . S
C461 C462 1.524 . S
C461 H464 0.999 . S
C462 H432 0.950 . S
C462 C461 1.524 . S
C462 C463 1.415 . S
C463 H433 0.950 . S
C463 C458 1.363 . S
C463 C462 1.415 . S
H464 C461 0.999 . S
H465 C446 0.913 . S
H466 C484 0.951 . S
H467 C486 0.951 . S
H468 C488 0.950 . S
H469 C489 0.950 . S
H470 C491 0.950 . S
H471 C494 0.950 . S
H472 C495 0.950 . S
H473 C497 0.950 . S
H474 C498 0.950 . S
H475 C499 0.951 . S
H476 C501 0.951 . S
H477 C503 0.950 . S
H478 C504 0.950 . S
H479 C506 0.950 . S
H480 C509 0.950 . S
H481 C510 0.950 . S
H482 C512 0.950 . S
H483 C513 0.950 . S
C484 H466 0.951 . S
C484 C485 1.366 . S
C484 C486 1.388 . S
C485 C484 1.366 . S
C485 C489 1.385 . S
C486 H467 0.951 . S
C486 C484 1.388 . S
C486 C487 1.366 . S
C487 C486 1.366 . S
C487 C488 1.414 . S
C487 C490 1.499 . S
C488 H468 0.950 . S
C488 C487 1.414 . S
C488 C489 1.374 . S
C489 H469 0.950 . S
C489 C485 1.385 . S
C489 C488 1.374 . S
C490 C487 1.499 . S
C490 C491 1.373 . S
C490 C492 1.389 . S
C491 H470 0.950 . S
C491 C490 1.373 . S
C491 C507 1.377 . S
C492 C490 1.389 . S
C492 C493 1.524 . S
C492 C506 1.377 . S
C493 C492 1.524 . S
C493 C494 1.397 . S
C493 C498 1.363 . S
C494 H471 0.950 . S
C494 C493 1.397 . S
C494 C495 1.334 . S
C495 H472 0.950 . S
C495 C494 1.334 . S
C495 C496 1.287 . S
C496 C495 1.287 . S
C496 C497 1.524 . S
C496 H515 0.913 . S
C497 H473 0.950 . S
C497 C496 1.524 . S
C497 C498 1.415 . S
C498 H474 0.950 . S
C498 C493 1.363 . S
C498 C497 1.415 . S
C499 H475 0.951 . S
C499 C500 1.366 . S
C499 C501 1.388 . S
C500 C499 1.366 . S
C500 C504 1.385 . S
C501 H476 0.951 . S
C501 C499 1.388 . S
C501 C502 1.366 . S
C502 C501 1.366 . S
C502 C503 1.414 . S
C502 C505 1.499 . S
C503 H477 0.950 . S
C503 C502 1.414 . S
C503 C504 1.374 . S
C504 H478 0.950 . S
C504 C500 1.385 . S
C504 C503 1.374 . S
C505 C502 1.499 . S
C505 C506 1.373 . S
C505 C507 1.389 . S
C506 H479 0.950 . S
C506 C492 1.377 . S
C506 C505 1.373 . S
C507 C491 1.377 . S
C507 C505 1.389 . S
C507 C508 1.524 . S
C508 C507 1.524 . S
C508 C509 1.397 . S
C508 C513 1.363 . S
C509 H480 0.950 . S
C509 C508 1.397 . S
C509 C510 1.334 . S
C510 H481 0.950 . S
C510 C509 1.334 . S
C510 C511 1.287 . S
C511 C510 1.287 . S
C511 C512 1.524 . S
C511 H514 0.999 . S
C512 H482 0.950 . S
C512 C511 1.524 . S
C512 C513 1.415 . S
C513 H483 0.950 . S
C513 C508 1.363 . S
C513 C512 1.415 . S
H514 C511 0.999 . S
H515 C496 0.913 . S
H516 C534 0.951 . S
H517 C536 0.951 . S
H518 C538 0.950 . S
H519 C539 0.950 . S
H520 C541 0.950 . S
H521 C544 0.950 . S
H522 C545 0.950 . S
H523 C547 0.950 . S
H524 C548 0.950 . S
H525 C549 0.951 . S
H526 C551 0.951 . S
H527 C553 0.950 . S
H528 C554 0.950 . S
H529 C556 0.950 . S
H530 C559 0.950 . S
H531 C560 0.950 . S
H532 C562 0.950 . S
H533 C563 0.950 . S
C534 H516 0.951 . S
C534 C535 1.366 . S
C534 C536 1.388 . S
C535 C534 1.366 . S
C535 C539 1.385 . S
C536 H517 0.951 . S
C536 C534 1.388 . S
C536 C537 1.366 . S
C537 C536 1.366 . S
C537 C538 1.414 . S
C537 C540 1.499 . S
C538 H518 0.950 . S
C538 C537 1.414 . S
C538 C539 1.374 . S
C539 H519 0.950 . S
C539 C535 1.385 . S
C539 C538 1.374 . S
C540 C537 1.499 . S
C540 C541 1.373 . S
C540 C542 1.389 . S
C541 H520 0.950 . S
C541 C540 1.373 . S
C541 C557 1.377 . S
C542 C540 1.389 . S
C542 C543 1.524 . S
C542 C556 1.377 . S
C543 C542 1.524 . S
C543 C544 1.397 . S
C543 C548 1.363 . S
C544 H521 0.950 . S
C544 C543 1.397 . S
C544 C545 1.334 . S
C545 H522 0.950 . S
C545 C544 1.334 . S
C545 C546 1.287 . S
C546 C545 1.287 . S
C546 C547 1.524 . S
C546 H565 0.913 . S
C547 H523 0.950 . S
C547 C546 1.524 . S
C547 C548 1.415 . S
C548 H524 0.950 . S
C548 C543 1.363 . S
C548 C547 1.415 . S
C549 H525 0.951 . S
C549 C550 1.366 . S
C549 C551 1.388 . S
C550 C549 1.366 . S
C550 C554 1.385 . S
C551 H526 0.951 . S
C551 C549 1.388 . S
C551 C552 1.366 . S
C552 C551 1.366 . S
C552 C553 1.414 . S
C552 C555 1.499 . S
C553 H527 0.950 . S
C553 C552 1.414 . S
C553 C554 1.374 . S
C554 H528 0.950 . S
C554 C550 1.385 . S
C554 C553 1.374 . S
C555 C552 1.499 . S
C555 C556 1.373 . S
C555 C557 1.389 . S
C556 H529 0.950 . S
C556 C542 1.377 . S
C556 C555 1.373 . S
C557 C541 1.377 . S
C557 C555 1.389 . S
C557 C558 1.524 . S
C558 C557 1.524 . S
C558 C559 1.397 . S
C558 C563 1.363 . S
C559 H530 0.950 . S
C559 C558 1.397 . S
C559 C560 1.334 . S
C560 H531 0.950 . S
C560 C559 1.334 . S
C560 C561 1.287 . S
C561 C560 1.287 . S
C561 C562 1.524 . S
C561 H564 0.999 . S
C562 H532 0.950 . S
C562 C561 1.524 . S
C562 C563 1.415 . S
C563 H533 0.950 . S
C563 C558 1.363 . S
C563 C562 1.415 . S
H564 C561 0.999 . S
H565 C546 0.913 . S
H566 C584 0.951 . S
H567 C586 0.951 . S
H568 C588 0.950 . S
H569 C589 0.950 . S
H570 C591 0.950 . S
H571 C594 0.950 . S
H572 C595 0.950 . S
H573 C597 0.950 . S
H574 C598 0.950 . S
H575 C599 0.951 . S
H576 C601 0.951 . S
H577 C603 0.950 . S
H578 C604 0.950 . S
H579 C606 0.950 . S
H580 C609 0.950 . S
H581 C610 0.950 . S
H582 C612 0.950 . S
H583 C613 0.950 . S
C584 H566 0.951 . S
C584 C585 1.366 . S
C584 C586 1.388 . S
C585 C584 1.366 . S
C585 C589 1.385 . S
C586 H567 0.951 . S
C586 C584 1.388 . S
C586 C587 1.366 . S
C587 C586 1.366 . S
C587 C588 1.414 . S
C587 C590 1.499 . S
C588 H568 0.950 . S
C588 C587 1.414 . S
C588 C589 1.374 . S
C589 H569 0.950 . S
C589 C585 1.385 . S
C589 C588 1.374 . S
C590 C587 1.499 . S
C590 C591 1.373 . S
C590 C592 1.389 . S
C591 H570 0.950 . S
C591 C590 1.373 . S
C591 C607 1.377 . S
C592 C590 1.389 . S
C592 C593 1.524 . S
C592 C606 1.377 . S
C593 C592 1.524 . S
C593 C594 1.397 . S
C593 C598 1.363 . S
C594 H571 0.950 . S
C594 C593 1.397 . S
C594 C595 1.334 . S
C595 H572 0.950 . S
C595 C594 1.334 . S
C595 C596 1.287 . S
C596 C595 1.287 . S
C596 C597 1.524 . S
C596 H615 0.913 . S
C597 H573 0.950 . S
C597 C596 1.524 . S
C597 C598 1.415 . S
C598 H574 0.950 . S
C598 C593 1.363 . S
C598 C597 1.415 . S
C599 H575 0.951 . S
C599 C600 1.366 . S
C599 C601 1.388 . S
C600 C599 1.366 . S
C600 C604 1.385 . S
C601 H576 0.951 . S
C601 C599 1.388 . S
C601 C602 1.366 . S
C602 C601 1.366 . S
C602 C603 1.414 . S
C602 C605 1.499 . S
C603 H577 0.950 . S
C603 C602 1.414 . S
C603 C604 1.374 . S
C604 H578 0.950 . S
C604 C600 1.385 . S
C604 C603 1.374 . S
C605 C602 1.499 . S
C605 C606 1.373 . S
C605 C607 1.389 . S
C606 H579 0.950 . S
C606 C592 1.377 . S
C606 C605 1.373 . S
C607 C591 1.377 . S
C607 C605 1.389 . S
C607 C608 1.524 . S
C608 C607 1.524 . S
C608 C609 1.397 . S
C608 C613 1.363 . S
C609 H580 0.950 . S
C609 C608 1.397 . S
C609 C610 1.334 . S
C610 H581 0.950 . S
C610 C609 1.334 . S
C610 C611 1.287 . S
C611 C610 1.287 . S
C611 C612 1.524 . S
C611 H614 0.999 . S
C612 H582 0.950 . S
C612 C611 1.524 . S
C612 C613 1.415 . S
C613 H583 0.950 . S
C613 C608 1.363 . S
C613 C612 1.415 . S
H614 C611 0.999 . S
H615 C596 0.913 . S
H616 C634 0.951 . S
H617 C636 0.951 . S
H618 C638 0.950 . S
H619 C639 0.950 . S
H620 C641 0.950 . S
H621 C644 0.950 . S
H622 C645 0.950 . S
H623 C647 0.950 . S
H624 C648 0.950 . S
H625 C649 0.951 . S
H626 C651 0.951 . S
H627 C653 0.950 . S
H628 C654 0.950 . S
H629 C656 0.950 . S
H630 C659 0.950 . S
H631 C660 0.950 . S
H632 C662 0.950 . S
H633 C663 0.950 . S
C634 H616 0.951 . S
C634 C635 1.366 . S
C634 C636 1.388 . S
C635 C634 1.366 . S
C635 C639 1.385 . S
C636 H617 0.951 . S
C636 C634 1.388 . S
C636 C637 1.366 . S
C637 C636 1.366 . S
C637 C638 1.414 . S
C637 C640 1.499 . S
C638 H618 0.950 . S
C638 C637 1.414 . S
C638 C639 1.374 . S
C639 H619 0.950 . S
C639 C635 1.385 . S
C639 C638 1.374 . S
C640 C637 1.499 . S
C640 C641 1.373 . S
C640 C642 1.389 . S
C641 H620 0.950 . S
C641 C640 1.373 . S
C641 C657 1.377 . S
C642 C640 1.389 . S
C642 C643 1.524 . S
C642 C656 1.377 . S
C643 C642 1.524 . S
C643 C644 1.397 . S
C643 C648 1.363 . S
C644 H621 0.950 . S
C644 C643 1.397 . S
C644 C645 1.334 . S
C645 H622 0.950 . S
C645 C644 1.334 . S
C645 C646 1.287 . S
C646 C645 1.287 . S
C646 C647 1.524 . S
C646 H665 0.913 . S
C647 H623 0.950 . S
C647 C646 1.524 . S
C647 C648 1.415 . S
C648 H624 0.950 . S
C648 C643 1.363 . S
C648 C647 1.415 . S
C649 H625 0.951 . S
C649 C650 1.366 . S
C649 C651 1.388 . S
C650 C649 1.366 . S
C650 C654 1.385 . S
C651 H626 0.951 . S
C651 C649 1.388 . S
C651 C652 1.366 . S
C652 C651 1.366 . S
C652 C653 1.414 . S
C652 C655 1.499 . S
C653 H627 0.950 . S
C653 C652 1.414 . S
C653 C654 1.374 . S
C654 H628 0.950 . S
C654 C650 1.385 . S
C654 C653 1.374 . S
C655 C652 1.499 . S
C655 C656 1.373 . S
C655 C657 1.389 . S
C656 H629 0.950 . S
C656 C642 1.377 . S
C656 C655 1.373 . S
C657 C641 1.377 . S
C657 C655 1.389 . S
C657 C658 1.524 . S
C658 C657 1.524 . S
C658 C659 1.397 . S
C658 C663 1.363 . S
C659 H630 0.950 . S
C659 C658 1.397 . S
C659 C660 1.334 . S
C660 H631 0.950 . S
C660 C659 1.334 . S
C660 C661 1.287 . S
C661 C660 1.287 . S
C661 C662 1.524 . S
C661 H664 0.999 . S
C662 H632 0.950 . S
C662 C661 1.524 . S
C662 C663 1.415 . S
C663 H633 0.950 . S
C663 C658 1.363 . S
C663 C662 1.415 . S
H664 C661 0.999 . S
H665 C646 0.913 . S
H666 C684 0.951 . S
H667 C686 0.951 . S
H668 C688 0.950 . S
H669 C689 0.950 . S
H670 C691 0.950 . S
H671 C694 0.950 . S
H672 C695 0.950 . S
H673 C697 0.950 . S
H674 C698 0.950 . S
H675 C699 0.951 . S
H676 C701 0.951 . S
H677 C703 0.950 . S
H678 C704 0.950 . S
H679 C706 0.950 . S
H680 C709 0.950 . S
H681 C710 0.950 . S
H682 C712 0.950 . S
H683 C713 0.950 . S
C684 H666 0.951 . S
C684 C685 1.366 . S
C684 C686 1.388 . S
C685 C684 1.366 . S
C685 C689 1.385 . S
C686 H667 0.951 . S
C686 C684 1.388 . S
C686 C687 1.366 . S
C687 C686 1.366 . S
C687 C688 1.414 . S
C687 C690 1.499 . S
C688 H668 0.950 . S
C688 C687 1.414 . S
C688 C689 1.374 . S
C689 H669 0.950 . S
C689 C685 1.385 . S
C689 C688 1.374 . S
C690 C687 1.499 . S
C690 C691 1.373 . S
C690 C692 1.389 . S
C691 H670 0.950 . S
C691 C690 1.373 . S
C691 C707 1.377 . S
C692 C690 1.389 . S
C692 C693 1.524 . S
C692 C706 1.377 . S
C693 C692 1.524 . S
C693 C694 1.397 . S
C693 C698 1.363 . S
C694 H671 0.950 . S
C694 C693 1.397 . S
C694 C695 1.334 . S
C695 H672 0.950 . S
C695 C694 1.334 . S
C695 C696 1.287 . S
C696 C695 1.287 . S
C696 C697 1.524 . S
C696 H715 0.913 . S
C697 H673 0.950 . S
C697 C696 1.524 . S
C697 C698 1.415 . S
C698 H674 0.950 . S
C698 C693 1.363 . S
C698 C697 1.415 . S
C699 H675 0.951 . S
C699 C700 1.366 . S
C699 C701 1.388 . S
C700 C699 1.366 . S
C700 C704 1.385 . S
C701 H676 0.951 . S
C701 C699 1.388 . S
C701 C702 1.366 . S
C702 C701 1.366 . S
C702 C703 1.414 . S
C702 C705 1.499 . S
C703 H677 0.950 . S
C703 C702 1.414 . S
C703 C704 1.374 . S
C704 H678 0.950 . S
C704 C700 1.385 . S
C704 C703 1.374 . S
C705 C702 1.499 . S
C705 C706 1.373 . S
C705 C707 1.389 . S
C706 H679 0.950 . S
C706 C692 1.377 . S
C706 C705 1.373 . S
C707 C691 1.377 . S
C707 C705 1.389 . S
C707 C708 1.524 . S
C708 C707 1.524 . S
C708 C709 1.397 . S
C708 C713 1.363 . S
C709 H680 0.950 . S
C709 C708 1.397 . S
C709 C710 1.334 . S
C710 H681 0.950 . S
C710 C709 1.334 . S
C710 C711 1.287 . S
C711 C710 1.287 . S
C711 C712 1.524 . S
C711 H714 0.999 . S
C712 H682 0.950 . S
C712 C711 1.524 . S
C712 C713 1.415 . S
C713 H683 0.950 . S
C713 C708 1.363 . S
C713 C712 1.415 . S
H714 C711 0.999 . S
H715 C696 0.913 . S
H716 C734 0.951 . S
H717 C736 0.951 . S
H718 C738 0.950 . S
H719 C739 0.950 . S
H720 C741 0.950 . S
H721 C744 0.950 . S
H722 C745 0.950 . S
H723 C747 0.950 . S
H724 C748 0.950 . S
H725 C749 0.951 . S
H726 C751 0.951 . S
H727 C753 0.950 . S
H728 C754 0.950 . S
H729 C756 0.950 . S
H730 C759 0.950 . S
H731 C760 0.950 . S
H732 C762 0.950 . S
H733 C763 0.950 . S
C734 H716 0.951 . S
C734 C735 1.366 . S
C734 C736 1.388 . S
C735 C734 1.366 . S
C735 C739 1.385 . S
C736 H717 0.951 . S
C736 C734 1.388 . S
C736 C737 1.366 . S
C737 C736 1.366 . S
C737 C738 1.414 . S
C737 C740 1.499 . S
C738 H718 0.950 . S
C738 C737 1.414 . S
C738 C739 1.374 . S
C739 H719 0.950 . S
C739 C735 1.385 . S
C739 C738 1.374 . S
C740 C737 1.499 . S
C740 C741 1.373 . S
C740 C742 1.389 . S
C741 H720 0.950 . S
C741 C740 1.373 . S
C741 C757 1.377 . S
C742 C740 1.389 . S
C742 C743 1.524 . S
C742 C756 1.377 . S
C743 C742 1.524 . S
C743 C744 1.397 . S
C743 C748 1.363 . S
C744 H721 0.950 . S
C744 C743 1.397 . S
C744 C745 1.334 . S
C745 H722 0.950 . S
C745 C744 1.334 . S
C745 C746 1.287 . S
C746 C745 1.287 . S
C746 C747 1.524 . S
C746 H765 0.913 . S
C747 H723 0.950 . S
C747 C746 1.524 . S
C747 C748 1.415 . S
C748 H724 0.950 . S
C748 C743 1.363 . S
C748 C747 1.415 . S
C749 H725 0.951 . S
C749 C750 1.366 . S
C749 C751 1.388 . S
C750 C749 1.366 . S
C750 C754 1.385 . S
C751 H726 0.951 . S
C751 C749 1.388 . S
C751 C752 1.366 . S
C752 C751 1.366 . S
C752 C753 1.414 . S
C752 C755 1.499 . S
C753 H727 0.950 . S
C753 C752 1.414 . S
C753 C754 1.374 . S
C754 H728 0.950 . S
C754 C750 1.385 . S
C754 C753 1.374 . S
C755 C752 1.499 . S
C755 C756 1.373 . S
C755 C757 1.389 . S
C756 H729 0.950 . S
C756 C742 1.377 . S
C756 C755 1.373 . S
C757 C741 1.377 . S
C757 C755 1.389 . S
C757 C758 1.524 . S
C758 C757 1.524 . S
C758 C759 1.397 . S
C758 C763 1.363 . S
C759 H730 0.950 . S
C759 C758 1.397 . S
C759 C760 1.334 . S
C760 H731 0.950 . S
C760 C759 1.334 . S
C760 C761 1.287 . S
C761 C760 1.287 . S
C761 C762 1.524 . S
C761 H764 0.999 . S
C762 H732 0.950 . S
C762 C761 1.524 . S
C762 C763 1.415 . S
C763 H733 0.950 . S
C763 C758 1.363 . S
C763 C762 1.415 . S
H764 C761 0.999 . S
H765 C746 0.913 . S
H766 C784 0.951 . S
H767 C786 0.951 . S
H768 C788 0.950 . S
H769 C789 0.950 . S
H770 C791 0.950 . S
H771 C794 0.950 . S
H772 C795 0.950 . S
H773 C797 0.950 . S
H774 C798 0.950 . S
H775 C799 0.951 . S
H776 C801 0.951 . S
H777 C803 0.950 . S
H778 C804 0.950 . S
H779 C806 0.950 . S
H780 C809 0.950 . S
H781 C810 0.950 . S
H782 C812 0.950 . S
H783 C813 0.950 . S
C784 H766 0.951 . S
C784 C785 1.366 . S
C784 C786 1.388 . S
C785 C784 1.366 . S
C785 C789 1.385 . S
C786 H767 0.951 . S
C786 C784 1.388 . S
C786 C787 1.366 . S
C787 C786 1.366 . S
C787 C788 1.414 . S
C787 C790 1.499 . S
C788 H768 0.950 . S
C788 C787 1.414 . S
C788 C789 1.374 . S
C789 H769 0.950 . S
C789 C785 1.385 . S
C789 C788 1.374 . S
C790 C787 1.499 . S
C790 C791 1.373 . S
C790 C792 1.389 . S
C791 H770 0.950 . S
C791 C790 1.373 . S
C791 C807 1.377 . S
C792 C790 1.389 . S
C792 C793 1.524 . S
C792 C806 1.377 . S
C793 C792 1.524 . S
C793 C794 1.397 . S
C793 C798 1.363 . S
C794 H771 0.950 . S
C794 C793 1.397 . S
C794 C795 1.334 . S
C795 H772 0.950 . S
C795 C794 1.334 . S
C795 C796 1.287 . S
C796 C795 1.287 . S
C796 C797 1.524 . S
C796 H815 0.913 . S
C797 H773 0.950 . S
C797 C796 1.524 . S
C797 C798 1.415 . S
C798 H774 0.950 . S
C798 C793 1.363 . S
C798 C797 1.415 . S
C799 H775 0.951 . S
C799 C800 1.366 . S
C799 C801 1.388 . S
C800 C799 1.366 . S
C800 C804 1.385 . S
C801 H776 0.951 . S
C801 C799 1.388 . S
C801 C802 1.366 . S
C802 C801 1.366 . S
C802 C803 1.414 . S
C802 C805 1.499 . S
C803 H777 0.950 . S
C803 C802 1.414 . S
C803 C804 1.374 . S
C804 H778 0.950 . S
C804 C800 1.385 . S
C804 C803 1.374 . S
C805 C802 1.499 . S
C805 C806 1.373 . S
C805 C807 1.389 . S
C806 H779 0.950 . S
C806 C792 1.377 . S
C806 C805 1.373 . S
C807 C791 1.377 . S
C807 C805 1.389 . S
C807 C808 1.524 . S
C808 C807 1.524 . S
C808 C809 1.397 . S
C808 C813 1.363 . S
C809 H780 0.950 . S
C809 C808 1.397 . S
C809 C810 1.334 . S
C810 H781 0.950 . S
C810 C809 1.334 . S
C810 C811 1.287 . S
C811 C810 1.287 . S
C811 C812 1.524 . S
C811 H814 0.999 . S
C812 H782 0.950 . S
C812 C811 1.524 . S
C812 C813 1.415 . S
C813 H783 0.950 . S
C813 C808 1.363 . S
C813 C812 1.415 . S
H814 C811 0.999 . S
H815 C796 0.913 . S
H816 C834 0.951 . S
H817 C836 0.951 . S
H818 C838 0.950 . S
H819 C839 0.950 . S
H820 C841 0.950 . S
H821 C844 0.950 . S
H822 C845 0.950 . S
H823 C847 0.950 . S
H824 C848 0.950 . S
H825 C849 0.951 . S
H826 C851 0.951 . S
H827 C853 0.950 . S
H828 C854 0.950 . S
H829 C856 0.950 . S
H830 C859 0.950 . S
H831 C860 0.950 . S
H832 C862 0.950 . S
H833 C863 0.950 . S
C834 H816 0.951 . S
C834 C835 1.366 . S
C834 C836 1.388 . S
C835 C834 1.366 . S
C835 C839 1.385 . S
C836 H817 0.951 . S
C836 C834 1.388 . S
C836 C837 1.366 . S
C837 C836 1.366 . S
C837 C838 1.414 . S
C837 C840 1.499 . S
C838 H818 0.950 . S
C838 C837 1.414 . S
C838 C839 1.374 . S
C839 H819 0.950 . S
C839 C835 1.385 . S
C839 C838 1.374 . S
C840 C837 1.499 . S
C840 C841 1.373 . S
C840 C842 1.389 . S
C841 H820 0.950 . S
C841 C840 1.373 . S
C841 C857 1.377 . S
C842 C840 1.389 . S
C842 C843 1.524 . S
C842 C856 1.377 . S
C843 C842 1.524 . S
C843 C844 1.397 . S
C843 C848 1.363 . S
C844 H821 0.950 . S
C844 C843 1.397 . S
C844 C845 1.334 . S
C845 H822 0.950 . S
C845 C844 1.334 . S
C845 C846 1.287 . S
C846 C845 1.287 . S
C846 C847 1.524 . S
C846 H865 0.913 . S
C847 H823 0.950 . S
C847 C846 1.524 . S
C847 C848 1.415 . S
C848 H824 0.950 . S
C848 C843 1.363 . S
C848 C847 1.415 . S
C849 H825 0.951 . S
C849 C850 1.366 . S
C849 C851 1.388 . S
C850 C849 1.366 . S
C850 C854 1.385 . S
C851 H826 0.951 . S
C851 C849 1.388 . S
C851 C852 1.366 . S
C852 C851 1.366 . S
C852 C853 1.414 . S
C852 C855 1.499 . S
C853 H827 0.950 . S
C853 C852 1.414 . S
C853 C854 1.374 . S
C854 H828 0.950 . S
C854 C850 1.385 . S
C854 C853 1.374 . S
C855 C852 1.499 . S
C855 C856 1.373 . S
C855 C857 1.389 . S
C856 H829 0.950 . S
C856 C842 1.377 . S
C856 C855 1.373 . S
C857 C841 1.377 . S
C857 C855 1.389 . S
C857 C858 1.524 . S
C858 C857 1.524 . S
C858 C859 1.397 . S
C858 C863 1.363 . S
C859 H830 0.950 . S
C859 C858 1.397 . S
C859 C860 1.334 . S
C860 H831 0.950 . S
C860 C859 1.334 . S
C860 C861 1.287 . S
C861 C860 1.287 . S
C861 C862 1.524 . S
C861 H864 0.999 . S
C862 H832 0.950 . S
C862 C861 1.524 . S
C862 C863 1.415 . S
C863 H833 0.950 . S
C863 C858 1.363 . S
C863 C862 1.415 . S
H864 C861 0.999 . S
H865 C846 0.913 . S
H866 C884 0.951 . S
H867 C886 0.951 . S
H868 C888 0.950 . S
H869 C889 0.950 . S
H870 C891 0.950 . S
H871 C894 0.950 . S
H872 C895 0.950 . S
H873 C897 0.950 . S
H874 C898 0.950 . S
H875 C899 0.951 . S
H876 C901 0.951 . S
H877 C903 0.950 . S
H878 C904 0.950 . S
H879 C906 0.950 . S
H880 C909 0.950 . S
H881 C910 0.950 . S
H882 C912 0.950 . S
H883 C913 0.950 . S
C884 H866 0.951 . S
C884 C885 1.366 . S
C884 C886 1.388 . S
C885 C884 1.366 . S
C885 C889 1.385 . S
C886 H867 0.951 . S
C886 C884 1.388 . S
C886 C887 1.366 . S
C887 C886 1.366 . S
C887 C888 1.414 . S
C887 C890 1.499 . S
C888 H868 0.950 . S
C888 C887 1.414 . S
C888 C889 1.374 . S
C889 H869 0.950 . S
C889 C885 1.385 . S
C889 C888 1.374 . S
C890 C887 1.499 . S
C890 C891 1.373 . S
C890 C892 1.389 . S
C891 H870 0.950 . S
C891 C890 1.373 . S
C891 C907 1.377 . S
C892 C890 1.389 . S
C892 C893 1.524 . S
C892 C906 1.377 . S
C893 C892 1.524 . S
C893 C894 1.397 . S
C893 C898 1.363 . S
C894 H871 0.950 . S
C894 C893 1.397 . S
C894 C895 1.334 . S
C895 H872 0.950 . S
C895 C894 1.334 . S
C895 C896 1.287 . S
C896 C895 1.287 . S
C896 C897 1.524 . S
C896 H915 0.913 . S
C897 H873 0.950 . S
C897 C896 1.524 . S
C897 C898 1.415 . S
C898 H874 0.950 . S
C898 C893 1.363 . S
C898 C897 1.415 . S
C899 H875 0.951 . S
C899 C900 1.366 . S
C899 C901 1.388 . S
C900 C899 1.366 . S
C900 C904 1.385 . S
C901 H876 0.951 . S
C901 C899 1.388 . S
C901 C902 1.366 . S
C902 C901 1.366 . S
C902 C903 1.414 . S
C902 C905 1.499 . S
C903 H877 0.950 . S
C903 C902 1.414 . S
C903 C904 1.374 . S
C904 H878 0.950 . S
C904 C900 1.385 . S
C904 C903 1.374 . S
C905 C902 1.499 . S
C905 C906 1.373 . S
C905 C907 1.389 . S
C906 H879 0.950 . S
C906 C892 1.377 . S
C906 C905 1.373 . S
C907 C891 1.377 . S
C907 C905 1.389 . S
C907 C908 1.524 . S
C908 C907 1.524 . S
C908 C909 1.397 . S
C908 C913 1.363 . S
C909 H880 0.950 . S
C909 C908 1.397 . S
C909 C910 1.334 . S
C910 H881 0.950 . S
C910 C909 1.334 . S
C910 C911 1.287 . S
C911 C910 1.287 . S
C911 C912 1.524 . S
C911 H914 0.999 . S
C912 H882 0.950 . S
C912 C911 1.524 . S
C912 C913 1.415 . S
C913 H883 0.950 . S
C913 C908 1.363 . S
C913 C912 1.415 . S
H914 C911 0.999 . S
H915 C896 0.913 . S
H916 C934 0.951 . S
H917 C936 0.951 . S
H918 C938 0.950 . S
H919 C939 0.950 . S
H920 C941 0.950 . S
H921 C944 0.950 . S
H922 C945 0.950 . S
H923 C947 0.950 . S
H924 C948 0.950 . S
H925 C949 0.951 . S
H926 C951 0.951 . S
H927 C953 0.950 . S
H928 C954 0.950 . S
H929 C956 0.950 . S
H930 C959 0.950 . S
H931 C960 0.950 . S
H932 C962 0.950 . S
H933 C963 0.950 . S
C934 H916 0.951 . S
C934 C935 1.366 . S
C934 C936 1.388 . S
C935 C934 1.366 . S
C935 C939 1.385 . S
C936 H917 0.951 . S
C936 C934 1.388 . S
C936 C937 1.366 . S
C937 C936 1.366 . S
C937 C938 1.414 . S
C937 C940 1.499 . S
C938 H918 0.950 . S
C938 C937 1.414 . S
C938 C939 1.374 . S
C939 H919 0.950 . S
C939 C935 1.385 . S
C939 C938 1.374 . S
C940 C937 1.499 . S
C940 C941 1.373 . S
C940 C942 1.389 . S
C941 H920 0.950 . S
C941 C940 1.373 . S
C941 C957 1.377 . S
C942 C940 1.389 . S
C942 C943 1.524 . S
C942 C956 1.377 . S
C943 C942 1.524 . S
C943 C944 1.397 . S
C943 C948 1.363 . S
C944 H921 0.950 . S
C944 C943 1.397 . S
C944 C945 1.334 . S
C945 H922 0.950 . S
C945 C944 1.334 . S
C945 C946 1.287 . S
C946 C945 1.287 . S
C946 C947 1.524 . S
C946 H965 0.913 . S
C947 H923 0.950 . S
C947 C946 1.524 . S
C947 C948 1.415 . S
C948 H924 0.950 . S
C948 C943 1.363 . S
C948 C947 1.415 . S
C949 H925 0.951 . S
C949 C950 1.366 . S
C949 C951 1.388 . S
C950 C949 1.366 . S
C950 C954 1.385 . S
C951 H926 0.951 . S
C951 C949 1.388 . S
C951 C952 1.366 . S
C952 C951 1.366 . S
C952 C953 1.414 . S
C952 C955 1.499 . S
C953 H927 0.950 . S
C953 C952 1.414 . S
C953 C954 1.374 . S
C954 H928 0.950 . S
C954 C950 1.385 . S
C954 C953 1.374 . S
C955 C952 1.499 . S
C955 C956 1.373 . S
C955 C957 1.389 . S
C956 H929 0.950 . S
C956 C942 1.377 . S
C956 C955 1.373 . S
C957 C941 1.377 . S
C957 C955 1.389 . S
C957 C958 1.524 . S
C958 C957 1.524 . S
C958 C959 1.397 . S
C958 C963 1.363 . S
C959 H930 0.950 . S
C959 C958 1.397 . S
C959 C960 1.334 . S
C960 H931 0.950 . S
C960 C959 1.334 . S
C960 C961 1.287 . S
C961 C960 1.287 . S
C961 C962 1.524 . S
C961 H964 0.999 . S
C962 H932 0.950 . S
C962 C961 1.524 . S
C962 C963 1.415 . S
C963 H933 0.950 . S
C963 C958 1.363 . S
C963 C962 1.415 . S
H964 C961 0.999 . S
H965 C946 0.913 . S
H966 C984 0.951 . S
H967 C986 0.951 . S
H968 C988 0.950 . S
H969 C989 0.950 . S
H970 C991 0.950 . S
H971 C994 0.950 . S
H972 C995 0.950 . S
H973 C997 0.950 . S
H974 C998 0.950 . S
H975 C999 0.951 . S
H976 C1001 0.951 . S
H977 C1003 0.950 . S
H978 C1004 0.950 . S
H979 C1006 0.950 . S
H980 C1009 0.950 . S
H981 C1010 0.950 . S
H982 C1012 0.950 . S
H983 C1013 0.950 . S
C984 H966 0.951 . S
C984 C985 1.366 . S
C984 C986 1.388 . S
C985 C984 1.366 . S
C985 C989 1.385 . S
C986 H967 0.951 . S
C986 C984 1.388 . S
C986 C987 1.366 . S
C987 C986 1.366 . S
C987 C988 1.414 . S
C987 C990 1.499 . S
C988 H968 0.950 . S
C988 C987 1.414 . S
C988 C989 1.374 . S
C989 H969 0.950 . S
C989 C985 1.385 . S
C989 C988 1.374 . S
C990 C987 1.499 . S
C990 C991 1.373 . S
C990 C992 1.389 . S
C991 H970 0.950 . S
C991 C990 1.373 . S
C991 C1007 1.377 . S
C992 C990 1.389 . S
C992 C993 1.524 . S
C992 C1006 1.377 . S
C993 C992 1.524 . S
C993 C994 1.397 . S
C993 C998 1.363 . S
C994 H971 0.950 . S
C994 C993 1.397 . S
C994 C995 1.334 . S
C995 H972 0.950 . S
C995 C994 1.334 . S
C995 C996 1.287 . S
C996 C995 1.287 . S
C996 C997 1.524 . S
C996 H1015 0.913 . S
C997 H973 0.950 . S
C997 C996 1.524 . S
C997 C998 1.415 . S
C998 H974 0.950 . S
C998 C993 1.363 . S
C998 C997 1.415 . S
C999 H975 0.951 . S
C999 C1000 1.366 . S
C999 C1001 1.388 . S
C1000 C999 1.366 . S
C1000 C1004 1.385 . S
C1001 H976 0.951 . S
C1001 C999 1.388 . S
C1001 C1002 1.366 . S
C1002 C1001 1.366 . S
C1002 C1003 1.414 . S
C1002 C1005 1.499 . S
C1003 H977 0.950 . S
C1003 C1002 1.414 . S
C1003 C1004 1.374 . S
C1004 H978 0.950 . S
C1004 C1000 1.385 . S
C1004 C1003 1.374 . S
C1005 C1002 1.499 . S
C1005 C1006 1.373 . S
C1005 C1007 1.389 . S
C1006 H979 0.950 . S
C1006 C992 1.377 . S
C1006 C1005 1.373 . S
C1007 C991 1.377 . S
C1007 C1005 1.389 . S
C1007 C1008 1.524 . S
C1008 C1007 1.524 . S
C1008 C1009 1.397 . S
C1008 C1013 1.363 . S
C1009 H980 0.950 . S
C1009 C1008 1.397 . S
C1009 C1010 1.334 . S
C1010 H981 0.950 . S
C1010 C1009 1.334 . S
C1010 C1011 1.287 . S
C1011 C1010 1.287 . S
C1011 C1012 1.524 . S
C1011 H1014 0.999 . S
C1012 H982 0.950 . S
C1012 C1011 1.524 . S
C1012 C1013 1.415 . S
C1013 H983 0.950 . S
C1013 C1008 1.363 . S
C1013 C1012 1.415 . S
H1014 C1011 0.999 . S
H1015 C996 0.913 . S
H1016 C1034 0.951 . S
H1017 C1036 0.951 . S
H1018 C1038 0.950 . S
H1019 C1039 0.950 . S
H1020 C1041 0.950 . S
H1021 C1044 0.950 . S
H1022 C1045 0.950 . S
H1023 C1047 0.950 . S
H1024 C1048 0.950 . S
H1025 C1049 0.951 . S
H1026 C1051 0.951 . S
H1027 C1053 0.950 . S
H1028 C1054 0.950 . S
H1029 C1056 0.950 . S
H1030 C1059 0.950 . S
H1031 C1060 0.950 . S
H1032 C1062 0.950 . S
H1033 C1063 0.950 . S
C1034 H1016 0.951 . S
C1034 C1035 1.366 . S
C1034 C1036 1.388 . S
C1035 C1034 1.366 . S
C1035 C1039 1.385 . S
C1036 H1017 0.951 . S
C1036 C1034 1.388 . S
C1036 C1037 1.366 . S
C1037 C1036 1.366 . S
C1037 C1038 1.414 . S
C1037 C1040 1.499 . S
C1038 H1018 0.950 . S
C1038 C1037 1.414 . S
C1038 C1039 1.374 . S
C1039 H1019 0.950 . S
C1039 C1035 1.385 . S
C1039 C1038 1.374 . S
C1040 C1037 1.499 . S
C1040 C1041 1.373 . S
C1040 C1042 1.389 . S
C1041 H1020 0.950 . S
C1041 C1040 1.373 . S
C1041 C1057 1.377 . S
C1042 C1040 1.389 . S
C1042 C1043 1.524 . S
C1042 C1056 1.377 . S
C1043 C1042 1.524 . S
C1043 C1044 1.397 . S
C1043 C1048 1.363 . S
C1044 H1021 0.950 . S
C1044 C1043 1.397 . S
C1044 C1045 1.334 . S
C1045 H1022 0.950 . S
C1045 C1044 1.334 . S
C1045 C1046 1.287 . S
C1046 C1045 1.287 . S
C1046 C1047 1.524 . S
C1046 H1065 0.913 . S
C1047 H1023 0.950 . S
C1047 C1046 1.524 . S
C1047 C1048 1.415 . S
C1048 H1024 0.950 . S
C1048 C1043 1.363 . S
C1048 C1047 1.415 . S
C1049 H1025 0.951 . S
C1049 C1050 1.366 . S
C1049 C1051 1.388 . S
C1050 C1049 1.366 . S
C1050 C1054 1.385 . S
C1051 H1026 0.951 . S
C1051 C1049 1.388 . S
C1051 C1052 1.366 . S
C1052 C1051 1.366 . S
C1052 C1053 1.414 . S
C1052 C1055 1.499 . S
C1053 H1027 0.950 . S
C1053 C1052 1.414 . S
C1053 C1054 1.374 . S
C1054 H1028 0.950 . S
C1054 C1050 1.385 . S
C1054 C1053 1.374 . S
C1055 C1052 1.499 . S
C1055 C1056 1.373 . S
C1055 C1057 1.389 . S
C1056 H1029 0.950 . S
C1056 C1042 1.377 . S
C1056 C1055 1.373 . S
C1057 C1041 1.377 . S
C1057 C1055 1.389 . S
C1057 C1058 1.524 . S
C1058 C1057 1.524 . S
C1058 C1059 1.397 . S
C1058 C1063 1.363 . S
C1059 H1030 0.950 . S
C1059 C1058 1.397 . S
C1059 C1060 1.334 . S
C1060 H1031 0.950 . S
C1060 C1059 1.334 . S
C1060 C1061 1.287 . S
C1061 C1060 1.287 . S
C1061 C1062 1.524 . S
C1061 H1064 0.999 . S
C1062 H1032 0.950 . S
C1062 C1061 1.524 . S
C1062 C1063 1.415 . S
C1063 H1033 0.950 . S
C1063 C1058 1.363 . S
C1063 C1062 1.415 . S
H1064 C1061 0.999 . S
H1065 C1046 0.913 . S
H1066 C1084 0.951 . S
H1067 C1086 0.951 . S
H1068 C1088 0.950 . S
H1069 C1089 0.950 . S
H1070 C1091 0.950 . S
H1071 C1094 0.950 . S
H1072 C1095 0.950 . S
H1073 C1097 0.950 . S
H1074 C1098 0.950 . S
H1075 C1099 0.951 . S
H1076 C1101 0.951 . S
H1077 C1103 0.950 . S
H1078 C1104 0.950 . S
H1079 C1106 0.950 . S
H1080 C1109 0.950 . S
H1081 C1110 0.950 . S
H1082 C1112 0.950 . S
H1083 C1113 0.950 . S
C1084 H1066 0.951 . S
C1084 C1085 1.366 . S
C1084 C1086 1.388 . S
C1085 C1084 1.366 . S
C1085 C1089 1.385 . S
C1086 H1067 0.951 . S
C1086 C1084 1.388 . S
C1086 C1087 1.366 . S
C1087 C1086 1.366 . S
C1087 C1088 1.414 . S
C1087 C1090 1.499 . S
C1088 H1068 0.950 . S
C1088 C1087 1.414 . S
C1088 C1089 1.374 . S
C1089 H1069 0.950 . S
C1089 C1085 1.385 . S
C1089 C1088 1.374 . S
C1090 C1087 1.499 . S
C1090 C1091 1.373 . S
C1090 C1092 1.389 . S
C1091 H1070 0.950 . S
C1091 C1090 1.373 . S
C1091 C1107 1.377 . S
C1092 C1090 1.389 . S
C1092 C1093 1.524 . S
C1092 C1106 1.377 . S
C1093 C1092 1.524 . S
C1093 C1094 1.397 . S
C1093 C1098 1.363 . S
C1094 H1071 0.950 . S
C1094 C1093 1.397 . S
C1094 C1095 1.334 . S
C1095 H1072 0.950 . S
C1095 C1094 1.334 . S
C1095 C1096 1.287 . S
C1096 C1095 1.287 . S
C1096 C1097 1.524 . S
C1096 H1115 0.913 . S
C1097 H1073 0.950 . S
C1097 C1096 1.524 . S
C1097 C1098 1.415 . S
C1098 H1074 0.950 . S
C1098 C1093 1.363 . S
C1098 C1097 1.415 . S
C1099 H1075 0.951 . S
C1099 C1100 1.366 . S
C1099 C1101 1.388 . S
C1100 C1099 1.366 . S
C1100 C1104 1.385 . S
C1101 H1076 0.951 . S
C1101 C1099 1.388 . S
C1101 C1102 1.366 . S
C1102 C1101 1.366 . S
C1102 C1103 1.414 . S
C1102 C1105 1.499 . S
C1103 H1077 0.950 . S
C1103 C1102 1.414 . S
C1103 C1104 1.374 . S
C1104 H1078 0.950 . S
C1104 C1100 1.385 . S
C1104 C1103 1.374 . S
C1105 C1102 1.499 . S
C1105 C1106 1.373 . S
C1105 C1107 1.389 . S
C1106 H1079 0.950 . S
C1106 C1092 1.377 . S
C1106 C1105 1.373 . S
C1107 C1091 1.377 . S
C1107 C1105 1.389 . S
C1107 C1108 1.524 . S
C1108 C1107 1.524 . S
C1108 C1109 1.397 . S
C1108 C1113 1.363 . S
C1109 H1080 0.950 . S
C1109 C1108 1.397 . S
C1109 C1110 1.334 . S
C1110 H1081 0.950 . S
C1110 C1109 1.334 . S
C1110 C1111 1.287 . S
C1111 C1110 1.287 . S
C1111 C1112 1.524 . S
C1111 H1114 0.999 . S
C1112 H1082 0.950 . S
C1112 C1111 1.524 . S
C1112 C1113 1.415 . S
C1113 H1083 0.950 . S
C1113 C1108 1.363 . S
C1113 C1112 1.415 . S
H1114 C1111 0.999 . S
H1115 C1096 0.913 . S
H1116 C1134 0.951 . S
H1117 C1136 0.951 . S
H1118 C1138 0.950 . S
H1119 C1139 0.950 . S
H1120 C1141 0.950 . S
H1121 C1144 0.950 . S
H1122 C1145 0.950 . S
H1123 C1147 0.950 . S
H1124 C1148 0.950 . S
H1125 C1149 0.951 . S
H1126 C1151 0.951 . S
H1127 C1153 0.950 . S
H1128 C1154 0.950 . S
H1129 C1156 0.950 . S
H1130 C1159 0.950 . S
H1131 C1160 0.950 . S
H1132 C1162 0.950 . S
H1133 C1163 0.950 . S
C1134 H1116 0.951 . S
C1134 C1135 1.366 . S
C1134 C1136 1.388 . S
C1135 C1134 1.366 . S
C1135 C1139 1.385 . S
C1136 H1117 0.951 . S
C1136 C1134 1.388 . S
C1136 C1137 1.366 . S
C1137 C1136 1.366 . S
C1137 C1138 1.414 . S
C1137 C1140 1.499 . S
C1138 H1118 0.950 . S
C1138 C1137 1.414 . S
C1138 C1139 1.374 . S
C1139 H1119 0.950 . S
C1139 C1135 1.385 . S
C1139 C1138 1.374 . S
C1140 C1137 1.499 . S
C1140 C1141 1.373 . S
C1140 C1142 1.389 . S
C1141 H1120 0.950 . S
C1141 C1140 1.373 . S
C1141 C1157 1.377 . S
C1142 C1140 1.389 . S
C1142 C1143 1.524 . S
C1142 C1156 1.377 . S
C1143 C1142 1.524 . S
C1143 C1144 1.397 . S
C1143 C1148 1.363 . S
C1144 H1121 0.950 . S
C1144 C1143 1.397 . S
C1144 C1145 1.334 . S
C1145 H1122 0.950 . S
C1145 C1144 1.334 . S
C1145 C1146 1.287 . S
C1146 C1145 1.287 . S
C1146 C1147 1.524 . S
C1146 H1165 0.913 . S
C1147 H1123 0.950 . S
C1147 C1146 1.524 . S
C1147 C1148 1.415 . S
C1148 H1124 0.950 . S
C1148 C1143 1.363 . S
C1148 C1147 1.415 . S
C1149 H1125 0.951 . S
C1149 C1150 1.366 . S
C1149 C1151 1.388 . S
C1150 C1149 1.366 . S
C1150 C1154 1.385 . S
C1151 H1126 0.951 . S
C1151 C1149 1.388 . S
C1151 C1152 1.366 . S
C1152 C1151 1.366 . S
C1152 C1153 1.414 . S
C1152 C1155 1.499 . S
C1153 H1127 0.950 . S
C1153 C1152 1.414 . S
C1153 C1154 1.374 . S
C1154 H1128 0.950 . S
C1154 C1150 1.385 . S
C1154 C1153 1.374 . S
C1155 C1152 1.499 . S
C1155 C1156 1.373 . S
C1155 C1157 1.389 . S
C1156 H1129 0.950 . S
C1156 C1142 1.377 . S
C1156 C1155 1.373 . S
C1157 C1141 1.377 . S
C1157 C1155 1.389 . S
C1157 C1158 1.524 . S
C1158 C1157 1.524 . S
C1158 C1159 1.397 . S
C1158 C1163 1.363 . S
C1159 H1130 0.950 . S
C1159 C1158 1.397 . S
C1159 C1160 1.334 . S
C1160 H1131 0.950 . S
C1160 C1159 1.334 . S
C1160 C1161 1.287 . S
C1161 C1160 1.287 . S
C1161 C1162 1.524 . S
C1161 H1164 0.999 . S
C1162 H1132 0.950 . S
C1162 C1161 1.524 . S
C1162 C1163 1.415 . S
C1163 H1133 0.950 . S
C1163 C1158 1.363 . S
C1163 C1162 1.415 . S
H1164 C1161 0.999 . S
H1165 C1146 0.913 . S
H1166 C1184 0.951 . S
H1167 C1186 0.951 . S
H1168 C1188 0.950 . S
H1169 C1189 0.950 . S
H1170 C1191 0.950 . S
H1171 C1194 0.950 . S
H1172 C1195 0.950 . S
H1173 C1197 0.950 . S
H1174 C1198 0.950 . S
H1175 C1199 0.951 . S
H1176 C1201 0.951 . S
H1177 C1203 0.950 . S
H1178 C1204 0.950 . S
H1179 C1206 0.950 . S
H1180 C1209 0.950 . S
H1181 C1210 0.950 . S
H1182 C1212 0.950 . S
H1183 C1213 0.950 . S
C1184 H1166 0.951 . S
C1184 C1185 1.366 . S
C1184 C1186 1.388 . S
C1185 C1184 1.366 . S
C1185 C1189 1.385 . S
C1186 H1167 0.951 . S
C1186 C1184 1.388 . S
C1186 C1187 1.366 . S
C1187 C1186 1.366 . S
C1187 C1188 1.414 . S
C1187 C1190 1.499 . S
C1188 H1168 0.950 . S
C1188 C1187 1.414 . S
C1188 C1189 1.374 . S
C1189 H1169 0.950 . S
C1189 C1185 1.385 . S
C1189 C1188 1.374 . S
C1190 C1187 1.499 . S
C1190 C1191 1.373 . S
C1190 C1192 1.389 . S
C1191 H1170 0.950 . S
C1191 C1190 1.373 . S
C1191 C1207 1.377 . S
C1192 C1190 1.389 . S
C1192 C1193 1.524 . S
C1192 C1206 1.377 . S
C1193 C1192 1.524 . S
C1193 C1194 1.397 . S
C1193 C1198 1.363 . S
C1194 H1171 0.950 . S
C1194 C1193 1.397 . S
C1194 C1195 1.334 . S
C1195 H1172 0.950 . S
C1195 C1194 1.334 . S
C1195 C1196 1.287 . S
C1196 C1195 1.287 . S
C1196 C1197 1.524 . S
C1196 H1215 0.913 . S
C1197 H1173 0.950 . S
C1197 C1196 1.524 . S
C1197 C1198 1.415 . S
C1198 H1174 0.950 . S
C1198 C1193 1.363 . S
C1198 C1197 1.415 . S
C1199 H1175 0.951 . S
C1199 C1200 1.366 . S
C1199 C1201 1.388 . S
C1200 C1199 1.366 . S
C1200 C1204 1.385 . S
C1201 H1176 0.951 . S
C1201 C1199 1.388 . S
C1201 C1202 1.366 . S
C1202 C1201 1.366 . S
C1202 C1203 1.414 . S
C1202 C1205 1.499 . S
C1203 H1177 0.950 . S
C1203 C1202 1.414 . S
C1203 C1204 1.374 . S
C1204 H1178 0.950 . S
C1204 C1200 1.385 . S
C1204 C1203 1.374 . S
C1205 C1202 1.499 . S
C1205 C1206 1.373 . S
C1205 C1207 1.389 . S
C1206 H1179 0.950 . S
C1206 C1192 1.377 . S
C1206 C1205 1.373 . S
C1207 C1191 1.377 . S
C1207 C1205 1.389 . S
C1207 C1208 1.524 . S
C1208 C1207 1.524 . S
C1208 C1209 1.397 . S
C1208 C1213 1.363 . S
C1209 H1180 0.950 . S
C1209 C1208 1.397 . S
C1209 C1210 1.334 . S
C1210 H1181 0.950 . S
C1210 C1209 1.334 . S
C1210 C1211 1.287 . S
C1211 C1210 1.287 . S
C1211 C1212 1.524 . S
C1211 H1214 0.999 . S
C1212 H1182 0.950 . S
C1212 C1211 1.524 . S
C1212 C1213 1.415 . S
C1213 H1183 0.950 . S
C1213 C1208 1.363 . S
C1213 C1212 1.415 . S
H1214 C1211 0.999 . S
H1215 C1196 0.913 . S
H1216 C1234 0.951 . S
H1217 C1236 0.951 . S
H1218 C1238 0.950 . S
H1219 C1239 0.950 . S
H1220 C1241 0.950 . S
H1221 C1244 0.950 . S
H1222 C1245 0.950 . S
H1223 C1247 0.950 . S
H1224 C1248 0.950 . S
H1225 C1249 0.951 . S
H1226 C1251 0.951 . S
H1227 C1253 0.950 . S
H1228 C1254 0.950 . S
H1229 C1256 0.950 . S
H1230 C1259 0.950 . S
H1231 C1260 0.950 . S
H1232 C1262 0.950 . S
H1233 C1263 0.950 . S
C1234 H1216 0.951 . S
C1234 C1235 1.366 . S
C1234 C1236 1.388 . S
C1235 C1234 1.366 . S
C1235 C1239 1.385 . S
C1236 H1217 0.951 . S
C1236 C1234 1.388 . S
C1236 C1237 1.366 . S
C1237 C1236 1.366 . S
C1237 C1238 1.414 . S
C1237 C1240 1.499 . S
C1238 H1218 0.950 . S
C1238 C1237 1.414 . S
C1238 C1239 1.374 . S
C1239 H1219 0.950 . S
C1239 C1235 1.385 . S
C1239 C1238 1.374 . S
C1240 C1237 1.499 . S
C1240 C1241 1.373 . S
C1240 C1242 1.389 . S
C1241 H1220 0.950 . S
C1241 C1240 1.373 . S
C1241 C1257 1.377 1_554 S
C1242 C1240 1.389 . S
C1242 C1243 1.524 . S
C1242 C1256 1.377 1_554 S
C1243 C1242 1.524 . S
C1243 C1244 1.397 . S
C1243 C1248 1.363 . S
C1244 H1221 0.950 . S
C1244 C1243 1.397 . S
C1244 C1245 1.334 . S
C1245 H1222 0.950 . S
C1245 C1244 1.334 . S
C1245 C1246 1.287 . S
C1246 C1245 1.287 . S
C1246 C1247 1.524 . S
C1246 H1265 0.913 . S
C1247 H1223 0.950 . S
C1247 C1246 1.524 . S
C1247 C1248 1.415 . S
C1248 H1224 0.950 . S
C1248 C1243 1.363 . S
C1248 C1247 1.415 . S
C1249 H1225 0.951 . S
C1249 C1250 1.366 . S
C1249 C1251 1.388 . S
C1250 C1249 1.366 . S
C1250 C1254 1.385 . S
C1251 H1226 0.951 . S
C1251 C1249 1.388 . S
C1251 C1252 1.366 . S
C1252 C1251 1.366 . S
C1252 C1253 1.414 . S
C1252 C1255 1.499 . S
C1253 H1227 0.950 . S
C1253 C1252 1.414 . S
C1253 C1254 1.374 . S
C1254 H1228 0.950 . S
C1254 C1250 1.385 . S
C1254 C1253 1.374 . S
C1255 C1252 1.499 . S
C1255 C1256 1.373 . S
C1255 C1257 1.389 . S
C1256 H1229 0.950 . S
C1256 C1242 1.377 1_556 S
C1256 C1255 1.373 . S
C1257 C1241 1.377 1_556 S
C1257 C1255 1.389 . S
C1257 C1258 1.524 . S
C1258 C1257 1.524 . S
C1258 C1259 1.397 . S
C1258 C1263 1.363 . S
C1259 H1230 0.950 . S
C1259 C1258 1.397 . S
C1259 C1260 1.334 . S
C1260 H1231 0.950 . S
C1260 C1259 1.334 . S
C1260 C1261 1.287 . S
C1261 C1260 1.287 . S
C1261 C1262 1.524 . S
C1261 H1264 0.999 . S
C1262 H1232 0.950 . S
C1262 C1261 1.524 . S
C1262 C1263 1.415 . S
C1263 H1233 0.950 . S
C1263 C1258 1.363 . S
C1263 C1262 1.415 . S
H1264 C1261 0.999 . S
H1265 C1246 0.913 . S
H1266 C1284 0.951 . S
H1267 C1286 0.951 . S
H1268 C1288 0.950 . S
H1269 C1289 0.950 . S
H1270 C1291 0.950 . S
H1271 C1294 0.950 . S
H1272 C1295 0.950 . S
H1273 C1297 0.950 . S
H1274 C1298 0.950 . S
H1275 C1299 0.951 . S
H1276 C1301 0.951 . S
H1277 C1303 0.950 . S
H1278 C1304 0.950 . S
H1279 C1306 0.950 . S
H1280 C1309 0.950 . S
H1281 C1310 0.950 . S
H1282 C1312 0.950 . S
H1283 C1313 0.950 . S
C1284 H1266 0.951 . S
C1284 C1285 1.366 . S
C1284 C1286 1.388 . S
C1285 C1284 1.366 . S
C1285 C1289 1.385 . S
C1286 H1267 0.951 . S
C1286 C1284 1.388 . S
C1286 C1287 1.366 . S
C1287 C1286 1.366 . S
C1287 C1288 1.414 . S
C1287 C1290 1.499 . S
C1288 H1268 0.950 . S
C1288 C1287 1.414 . S
C1288 C1289 1.374 . S
C1289 H1269 0.950 . S
C1289 C1285 1.385 . S
C1289 C1288 1.374 . S
C1290 C1287 1.499 . S
C1290 C1291 1.373 . S
C1290 C1292 1.389 . S
C1291 H1270 0.950 . S
C1291 C1290 1.373 . S
C1291 C1307 1.377 1_556 S
C1292 C1290 1.389 . S
C1292 C1293 1.524 . S
C1292 C1306 1.377 1_556 S
C1293 C1292 1.524 . S
C1293 C1294 1.397 . S
C1293 C1298 1.363 . S
C1294 H1271 0.950 . S
C1294 C1293 1.397 . S
C1294 C1295 1.334 . S
C1295 H1272 0.950 . S
C1295 C1294 1.334 . S
C1295 C1296 1.287 . S
C1296 C1295 1.287 . S
C1296 C1297 1.524 . S
C1296 H1315 0.913 . S
C1297 H1273 0.950 . S
C1297 C1296 1.524 . S
C1297 C1298 1.415 . S
C1298 H1274 0.950 . S
C1298 C1293 1.363 . S
C1298 C1297 1.415 . S
C1299 H1275 0.951 . S
C1299 C1300 1.366 . S
C1299 C1301 1.388 . S
C1300 C1299 1.366 . S
C1300 C1304 1.385 . S
C1301 H1276 0.951 . S
C1301 C1299 1.388 . S
C1301 C1302 1.366 . S
C1302 C1301 1.366 . S
C1302 C1303 1.414 . S
C1302 C1305 1.499 . S
C1303 H1277 0.950 . S
C1303 C1302 1.414 . S
C1303 C1304 1.374 . S
C1304 H1278 0.950 . S
C1304 C1300 1.385 . S
C1304 C1303 1.374 . S
C1305 C1302 1.499 . S
C1305 C1306 1.373 . S
C1305 C1307 1.389 . S
C1306 H1279 0.950 . S
C1306 C1292 1.377 1_554 S
C1306 C1305 1.373 . S
C1307 C1291 1.377 1_554 S
C1307 C1305 1.389 . S
C1307 C1308 1.524 . S
C1308 C1307 1.524 . S
C1308 C1309 1.397 . S
C1308 C1313 1.363 . S
C1309 H1280 0.950 . S
C1309 C1308 1.397 . S
C1309 C1310 1.334 . S
C1310 H1281 0.950 . S
C1310 C1309 1.334 . S
C1310 C1311 1.287 . S
C1311 C1310 1.287 . S
C1311 C1312 1.524 . S
C1311 H1314 0.999 . S
C1312 H1282 0.950 . S
C1312 C1311 1.524 . S
C1312 C1313 1.415 . S
C1313 H1283 0.950 . S
C1313 C1308 1.363 . S
C1313 C1312 1.415 . S
H1314 C1311 0.999 . S
H1315 C1296 0.913 . S
H1316 C1334 0.951 . S
H1317 C1336 0.951 . S
H1318 C1338 0.950 . S
H1319 C1339 0.950 . S
H1320 C1341 0.950 . S
H1321 C1344 0.950 . S
H1322 C1345 0.950 . S
H1323 C1347 0.950 . S
H1324 C1348 0.950 . S
H1325 C1349 0.951 . S
H1326 C1351 0.951 . S
H1327 C1353 0.950 . S
H1328 C1354 0.950 . S
H1329 C1356 0.950 . S
H1330 C1359 0.950 . S
H1331 C1360 0.950 . S
H1332 C1362 0.950 . S
H1333 C1363 0.950 . S
C1334 H1316 0.951 . S
C1334 C1335 1.366 . S
C1334 C1336 1.388 . S
C1335 C1334 1.366 . S
C1335 C1339 1.385 . S
C1336 H1317 0.951 . S
C1336 C1334 1.388 . S
C1336 C1337 1.366 . S
C1337 C1336 1.366 . S
C1337 C1338 1.414 . S
C1337 C1340 1.499 . S
C1338 H1318 0.950 . S
C1338 C1337 1.414 . S
C1338 C1339 1.374 . S
C1339 H1319 0.950 . S
C1339 C1335 1.385 . S
C1339 C1338 1.374 . S
C1340 C1337 1.499 . S
C1340 C1341 1.373 . S
C1340 C1342 1.389 . S
C1341 H1320 0.950 . S
C1341 C1340 1.373 . S
C1341 C1357 1.377 1_556 S
C1342 C1340 1.389 . S
C1342 C1343 1.524 . S
C1342 C1356 1.377 1_556 S
C1343 C1342 1.524 . S
C1343 C1344 1.397 . S
C1343 C1348 1.363 . S
C1344 H1321 0.950 . S
C1344 C1343 1.397 . S
C1344 C1345 1.334 . S
C1345 H1322 0.950 . S
C1345 C1344 1.334 . S
C1345 C1346 1.287 . S
C1346 C1345 1.287 . S
C1346 C1347 1.524 . S
C1346 H1365 0.913 . S
C1347 H1323 0.950 . S
C1347 C1346 1.524 . S
C1347 C1348 1.415 . S
C1348 H1324 0.950 . S
C1348 C1343 1.363 . S
C1348 C1347 1.415 . S
C1349 H1325 0.951 . S
C1349 C1350 1.366 . S
C1349 C1351 1.388 . S
C1350 C1349 1.366 . S
C1350 C1354 1.385 . S
C1351 H1326 0.951 . S
C1351 C1349 1.388 . S
C1351 C1352 1.366 . S
C1352 C1351 1.366 . S
C1352 C1353 1.414 . S
C1352 C1355 1.499 . S
C1353 H1327 0.950 . S
C1353 C1352 1.414 . S
C1353 C1354 1.374 . S
C1354 H1328 0.950 . S
C1354 C1350 1.385 . S
C1354 C1353 1.374 . S
C1355 C1352 1.499 . S
C1355 C1356 1.373 . S
C1355 C1357 1.389 . S
C1356 H1329 0.950 . S
C1356 C1342 1.377 1_554 S
C1356 C1355 1.373 . S
C1357 C1341 1.377 1_554 S
C1357 C1355 1.389 . S
C1357 C1358 1.524 . S
C1358 C1357 1.524 . S
C1358 C1359 1.397 . S
C1358 C1363 1.363 . S
C1359 H1330 0.950 . S
C1359 C1358 1.397 . S
C1359 C1360 1.334 . S
C1360 H1331 0.950 . S
C1360 C1359 1.334 . S
C1360 C1361 1.287 . S
C1361 C1360 1.287 . S
C1361 C1362 1.524 . S
C1361 H1364 0.999 . S
C1362 H1332 0.950 . S
C1362 C1361 1.524 . S
C1362 C1363 1.415 . S
C1363 H1333 0.950 . S
C1363 C1358 1.363 . S
C1363 C1362 1.415 . S
H1364 C1361 0.999 . S
H1365 C1346 0.913 . S
H1366 C1384 0.951 . S
H1367 C1386 0.951 . S
H1368 C1388 0.950 . S
H1369 C1389 0.950 . S
H1370 C1391 0.950 . S
H1371 C1394 0.950 . S
H1372 C1395 0.950 . S
H1373 C1397 0.950 . S
H1374 C1398 0.950 . S
H1375 C1399 0.951 . S
H1376 C1401 0.951 . S
H1377 C1403 0.950 . S
H1378 C1404 0.950 . S
H1379 C1406 0.950 . S
H1380 C1409 0.950 . S
H1381 C1410 0.950 . S
H1382 C1412 0.950 . S
H1383 C1413 0.950 . S
C1384 H1366 0.951 . S
C1384 C1385 1.366 . S
C1384 C1386 1.388 . S
C1385 C1384 1.366 . S
C1385 C1389 1.385 . S
C1386 H1367 0.951 . S
C1386 C1384 1.388 . S
C1386 C1387 1.366 . S
C1387 C1386 1.366 . S
C1387 C1388 1.414 . S
C1387 C1390 1.499 . S
C1388 H1368 0.950 . S
C1388 C1387 1.414 . S
C1388 C1389 1.374 . S
C1389 H1369 0.950 . S
C1389 C1385 1.385 . S
C1389 C1388 1.374 . S
C1390 C1387 1.499 . S
C1390 C1391 1.373 . S
C1390 C1392 1.389 . S
C1391 H1370 0.950 . S
C1391 C1390 1.373 . S
C1391 C1407 1.377 1_556 S
C1392 C1390 1.389 . S
C1392 C1393 1.524 . S
C1392 C1406 1.377 1_556 S
C1393 C1392 1.524 . S
C1393 C1394 1.397 . S
C1393 C1398 1.363 . S
C1394 H1371 0.950 . S
C1394 C1393 1.397 . S
C1394 C1395 1.334 . S
C1395 H1372 0.950 . S
C1395 C1394 1.334 . S
C1395 C1396 1.287 . S
C1396 C1395 1.287 . S
C1396 C1397 1.524 . S
C1396 H1415 0.913 . S
C1397 H1373 0.950 . S
C1397 C1396 1.524 . S
C1397 C1398 1.415 . S
C1398 H1374 0.950 . S
C1398 C1393 1.363 . S
C1398 C1397 1.415 . S
C1399 H1375 0.951 . S
C1399 C1400 1.366 . S
C1399 C1401 1.388 . S
C1400 C1399 1.366 . S
C1400 C1404 1.385 . S
C1401 H1376 0.951 . S
C1401 C1399 1.388 . S
C1401 C1402 1.366 . S
C1402 C1401 1.366 . S
C1402 C1403 1.414 . S
C1402 C1405 1.499 . S
C1403 H1377 0.950 . S
C1403 C1402 1.414 . S
C1403 C1404 1.374 . S
C1404 H1378 0.950 . S
C1404 C1400 1.385 . S
C1404 C1403 1.374 . S
C1405 C1402 1.499 . S
C1405 C1406 1.373 . S
C1405 C1407 1.389 . S
C1406 H1379 0.950 . S
C1406 C1392 1.377 1_554 S
C1406 C1405 1.373 . S
C1407 C1391 1.377 1_554 S
C1407 C1405 1.389 . S
C1407 C1408 1.524 . S
C1408 C1407 1.524 . S
C1408 C1409 1.397 . S
C1408 C1413 1.363 . S
C1409 H1380 0.950 . S
C1409 C1408 1.397 . S
C1409 C1410 1.334 . S
C1410 H1381 0.950 . S
C1410 C1409 1.334 . S
C1410 C1411 1.287 . S
C1411 C1410 1.287 . S
C1411 C1412 1.524 . S
C1411 H1414 0.999 . S
C1412 H1382 0.950 . S
C1412 C1411 1.524 . S
C1412 C1413 1.415 . S
C1413 H1383 0.950 . S
C1413 C1408 1.363 . S
C1413 C1412 1.415 . S
H1414 C1411 0.999 . S
H1415 C1396 0.913 . S
H1416 C1434 0.951 . S
H1417 C1436 0.951 . S
H1418 C1438 0.950 . S
H1419 C1439 0.950 . S
H1420 C1441 0.950 . S
H1421 C1444 0.950 . S
H1422 C1445 0.950 . S
H1423 C1447 0.950 . S
H1424 C1448 0.950 . S
H1425 C1449 0.951 . S
H1426 C1451 0.951 . S
H1427 C1453 0.950 . S
H1428 C1454 0.950 . S
H1429 C1456 0.950 . S
H1430 C1459 0.950 . S
H1431 C1460 0.950 . S
H1432 C1462 0.950 . S
H1433 C1463 0.950 . S
C1434 H1416 0.951 . S
C1434 C1435 1.366 . S
C1434 C1436 1.388 . S
C1435 C1434 1.366 . S
C1435 C1439 1.385 . S
C1436 H1417 0.951 . S
C1436 C1434 1.388 . S
C1436 C1437 1.366 . S
C1437 C1436 1.366 . S
C1437 C1438 1.414 . S
C1437 C1440 1.499 . S
C1438 H1418 0.950 . S
C1438 C1437 1.414 . S
C1438 C1439 1.374 . S
C1439 H1419 0.950 . S
C1439 C1435 1.385 . S
C1439 C1438 1.374 . S
C1440 C1437 1.499 . S
C1440 C1441 1.373 . S
C1440 C1442 1.389 . S
C1441 H1420 0.950 . S
C1441 C1440 1.373 . S
C1441 C1457 1.377 . S
C1442 C1440 1.389 . S
C1442 C1443 1.524 . S
C1442 C1456 1.377 . S
C1443 C1442 1.524 . S
C1443 C1444 1.397 . S
C1443 C1448 1.363 . S
C1444 H1421 0.950 . S
C1444 C1443 1.397 . S
C1444 C1445 1.334 . S
C1445 H1422 0.950 . S
C1445 C1444 1.334 . S
C1445 C1446 1.287 . S
C1446 C1445 1.287 . S
C1446 C1447 1.524 . S
C1446 H1465 0.913 . S
C1447 H1423 0.950 . S
C1447 C1446 1.524 . S
C1447 C1448 1.415 . S
C1448 H1424 0.950 . S
C1448 C1443 1.363 . S
C1448 C1447 1.415 . S
C1449 H1425 0.951 . S
C1449 C1450 1.366 . S
C1449 C1451 1.388 . S
C1450 C1449 1.366 . S
C1450 C1454 1.385 . S
C1451 H1426 0.951 . S
C1451 C1449 1.388 . S
C1451 C1452 1.366 . S
C1452 C1451 1.366 . S
C1452 C1453 1.414 . S
C1452 C1455 1.499 . S
C1453 H1427 0.950 . S
C1453 C1452 1.414 . S
C1453 C1454 1.374 . S
C1454 H1428 0.950 . S
C1454 C1450 1.385 . S
C1454 C1453 1.374 . S
C1455 C1452 1.499 . S
C1455 C1456 1.373 . S
C1455 C1457 1.389 . S
C1456 H1429 0.950 . S
C1456 C1442 1.377 . S
C1456 C1455 1.373 . S
C1457 C1441 1.377 . S
C1457 C1455 1.389 . S
C1457 C1458 1.524 . S
C1458 C1457 1.524 . S
C1458 C1459 1.397 . S
C1458 C1463 1.363 . S
C1459 H1430 0.950 . S
C1459 C1458 1.397 . S
C1459 C1460 1.334 . S
C1460 H1431 0.950 . S
C1460 C1459 1.334 . S
C1460 C1461 1.287 . S
C1461 C1460 1.287 . S
C1461 C1462 1.524 . S
C1461 H1464 0.999 . S
C1462 H1432 0.950 . S
C1462 C1461 1.524 . S
C1462 C1463 1.415 . S
C1463 H1433 0.950 . S
C1463 C1458 1.363 . S
C1463 C1462 1.415 . S
H1464 C1461 0.999 . S
H1465 C1446 0.913 . S
H1466 C1484 0.951 . S
H1467 C1486 0.951 . S
H1468 C1488 0.950 . S
H1469 C1489 0.950 . S
H1470 C1491 0.950 . S
H1471 C1494 0.950 . S
H1472 C1495 0.950 . S
H1473 C1497 0.950 . S
H1474 C1498 0.950 . S
H1475 C1499 0.951 . S
H1476 C1501 0.951 . S
H1477 C1503 0.950 . S
H1478 C1504 0.950 . S
H1479 C1506 0.950 . S
H1480 C1509 0.950 . S
H1481 C1510 0.950 . S
H1482 C1512 0.950 . S
H1483 C1513 0.950 . S
C1484 H1466 0.951 . S
C1484 C1485 1.366 . S
C1484 C1486 1.388 . S
C1485 C1484 1.366 . S
C1485 C1489 1.385 . S
C1486 H1467 0.951 . S
C1486 C1484 1.388 . S
C1486 C1487 1.366 . S
C1487 C1486 1.366 . S
C1487 C1488 1.414 . S
C1487 C1490 1.499 . S
C1488 H1468 0.950 . S
C1488 C1487 1.414 . S
C1488 C1489 1.374 . S
C1489 H1469 0.950 . S
C1489 C1485 1.385 . S
C1489 C1488 1.374 . S
C1490 C1487 1.499 . S
C1490 C1491 1.373 . S
C1490 C1492 1.389 . S
C1491 H1470 0.950 . S
C1491 C1490 1.373 . S
C1491 C1507 1.377 . S
C1492 C1490 1.389 . S
C1492 C1493 1.524 . S
C1492 C1506 1.377 . S
C1493 C1492 1.524 . S
C1493 C1494 1.397 . S
C1493 C1498 1.363 . S
C1494 H1471 0.950 . S
C1494 C1493 1.397 . S
C1494 C1495 1.334 . S
C1495 H1472 0.950 . S
C1495 C1494 1.334 . S
C1495 C1496 1.287 . S
C1496 C1495 1.287 . S
C1496 C1497 1.524 . S
C1496 H1515 0.913 . S
C1497 H1473 0.950 . S
C1497 C1496 1.524 . S
C1497 C1498 1.415 . S
C1498 H1474 0.950 . S
C1498 C1493 1.363 . S
C1498 C1497 1.415 . S
C1499 H1475 0.951 . S
C1499 C1500 1.366 . S
C1499 C1501 1.388 . S
C1500 C1499 1.366 . S
C1500 C1504 1.385 . S
C1501 H1476 0.951 . S
C1501 C1499 1.388 . S
C1501 C1502 1.366 . S
C1502 C1501 1.366 . S
C1502 C1503 1.414 . S
C1502 C1505 1.499 . S
C1503 H1477 0.950 . S
C1503 C1502 1.414 . S
C1503 C1504 1.374 . S
C1504 H1478 0.950 . S
C1504 C1500 1.385 . S
C1504 C1503 1.374 . S
C1505 C1502 1.499 . S
C1505 C1506 1.373 . S
C1505 C1507 1.389 . S
C1506 H1479 0.950 . S
C1506 C1492 1.377 . S
C1506 C1505 1.373 . S
C1507 C1491 1.377 . S
C1507 C1505 1.389 . S
C1507 C1508 1.524 . S
C1508 C1507 1.524 . S
C1508 C1509 1.397 . S
C1508 C1513 1.363 . S
C1509 H1480 0.950 . S
C1509 C1508 1.397 . S
C1509 C1510 1.334 . S
C1510 H1481 0.950 . S
C1510 C1509 1.334 . S
C1510 C1511 1.287 . S
C1511 C1510 1.287 . S
C1511 C1512 1.524 . S
C1511 H1514 0.999 . S
C1512 H1482 0.950 . S
C1512 C1511 1.524 . S
C1512 C1513 1.415 . S
C1513 H1483 0.950 . S
C1513 C1508 1.363 . S
C1513 C1512 1.415 . S
H1514 C1511 0.999 . S
H1515 C1496 0.913 . S
H1516 C1534 0.951 . S
H1517 C1536 0.951 . S
H1518 C1538 0.950 . S
H1519 C1539 0.950 . S
H1520 C1541 0.950 . S
H1521 C1544 0.950 . S
H1522 C1545 0.950 . S
H1523 C1547 0.950 . S
H1524 C1548 0.950 . S
H1525 C1549 0.951 . S
H1526 C1551 0.951 . S
H1527 C1553 0.950 . S
H1528 C1554 0.950 . S
H1529 C1556 0.950 . S
H1530 C1559 0.950 . S
H1531 C1560 0.950 . S
H1532 C1562 0.950 . S
H1533 C1563 0.950 . S
C1534 H1516 0.951 . S
C1534 C1535 1.366 . S
C1534 C1536 1.388 . S
C1535 C1534 1.366 . S
C1535 C1539 1.385 . S
C1536 H1517 0.951 . S
C1536 C1534 1.388 . S
C1536 C1537 1.366 . S
C1537 C1536 1.366 . S
C1537 C1538 1.414 . S
C1537 C1540 1.499 . S
C1538 H1518 0.950 . S
C1538 C1537 1.414 . S
C1538 C1539 1.374 . S
C1539 H1519 0.950 . S
C1539 C1535 1.385 . S
C1539 C1538 1.374 . S
C1540 C1537 1.499 . S
C1540 C1541 1.373 . S
C1540 C1542 1.389 . S
C1541 H1520 0.950 . S
C1541 C1540 1.373 . S
C1541 C1557 1.377 . S
C1542 C1540 1.389 . S
C1542 C1543 1.524 . S
C1542 C1556 1.377 . S
C1543 C1542 1.524 . S
C1543 C1544 1.397 . S
C1543 C1548 1.363 . S
C1544 H1521 0.950 . S
C1544 C1543 1.397 . S
C1544 C1545 1.334 . S
C1545 H1522 0.950 . S
C1545 C1544 1.334 . S
C1545 C1546 1.287 . S
C1546 C1545 1.287 . S
C1546 C1547 1.524 . S
C1546 H1565 0.913 . S
C1547 H1523 0.950 . S
C1547 C1546 1.524 . S
C1547 C1548 1.415 . S
C1548 H1524 0.950 . S
C1548 C1543 1.363 . S
C1548 C1547 1.415 . S
C1549 H1525 0.951 . S
C1549 C1550 1.366 . S
C1549 C1551 1.388 . S
C1550 C1549 1.366 . S
C1550 C1554 1.385 . S
C1551 H1526 0.951 . S
C1551 C1549 1.388 . S
C1551 C1552 1.366 . S
C1552 C1551 1.366 . S
C1552 C1553 1.414 . S
C1552 C1555 1.499 . S
C1553 H1527 0.950 . S
C1553 C1552 1.414 . S
C1553 C1554 1.374 . S
C1554 H1528 0.950 . S
C1554 C1550 1.385 . S
C1554 C1553 1.374 . S
C1555 C1552 1.499 . S
C1555 C1556 1.373 . S
C1555 C1557 1.389 . S
C1556 H1529 0.950 . S
C1556 C1542 1.377 . S
C1556 C1555 1.373 . S
C1557 C1541 1.377 . S
C1557 C1555 1.389 . S
C1557 C1558 1.524 . S
C1558 C1557 1.524 . S
C1558 C1559 1.397 . S
C1558 C1563 1.363 . S
C1559 H1530 0.950 . S
C1559 C1558 1.397 . S
C1559 C1560 1.334 . S
C1560 H1531 0.950 . S
C1560 C1559 1.334 . S
C1560 C1561 1.287 . S
C1561 C1560 1.287 . S
C1561 C1562 1.524 . S
C1561 H1564 0.999 . S
C1562 H1532 0.950 . S
C1562 C1561 1.524 . S
C1562 C1563 1.415 . S
C1563 H1533 0.950 . S
C1563 C1558 1.363 . S
C1563 C1562 1.415 . S
H1564 C1561 0.999 . S
H1565 C1546 0.913 . S
H1566 C1584 0.951 . S
H1567 C1586 0.951 . S
H1568 C1588 0.950 . S
H1569 C1589 0.950 . S
H1570 C1591 0.950 . S
H1571 C1594 0.950 . S
H1572 C1595 0.950 . S
H1573 C1597 0.950 . S
H1574 C1598 0.950 . S
H1575 C1599 0.951 . S
H1576 C1601 0.951 . S
H1577 C1603 0.950 . S
H1578 C1604 0.950 . S
H1579 C1606 0.950 . S
H1580 C1609 0.950 . S
H1581 C1610 0.950 . S
H1582 C1612 0.950 . S
H1583 C1613 0.950 . S
C1584 H1566 0.951 . S
C1584 C1585 1.366 . S
C1584 C1586 1.388 . S
C1585 C1584 1.366 . S
C1585 C1589 1.385 . S
C1586 H1567 0.951 . S
C1586 C1584 1.388 . S
C1586 C1587 1.366 . S
C1587 C1586 1.366 . S
C1587 C1588 1.414 . S
C1587 C1590 1.499 . S
C1588 H1568 0.950 . S
C1588 C1587 1.414 . S
C1588 C1589 1.374 . S
C1589 H1569 0.950 . S
C1589 C1585 1.385 . S
C1589 C1588 1.374 . S
C1590 C1587 1.499 . S
C1590 C1591 1.373 . S
C1590 C1592 1.389 . S
C1591 H1570 0.950 . S
C1591 C1590 1.373 . S
C1591 C1607 1.377 . S
C1592 C1590 1.389 . S
C1592 C1593 1.524 . S
C1592 C1606 1.377 . S
C1593 C1592 1.524 . S
C1593 C1594 1.397 . S
C1593 C1598 1.363 . S
C1594 H1571 0.950 . S
C1594 C1593 1.397 . S
C1594 C1595 1.334 . S
C1595 H1572 0.950 . S
C1595 C1594 1.334 . S
C1595 C1596 1.287 . S
C1596 C1595 1.287 . S
C1596 C1597 1.524 . S
C1596 H1615 0.913 . S
C1597 H1573 0.950 . S
C1597 C1596 1.524 . S
C1597 C1598 1.415 . S
C1598 H1574 0.950 . S
C1598 C1593 1.363 . S
C1598 C1597 1.415 . S
C1599 H1575 0.951 . S
C1599 C1600 1.366 . S
C1599 C1601 1.388 . S
C1600 C1599 1.366 . S
C1600 C1604 1.385 . S
C1601 H1576 0.951 . S
C1601 C1599 1.388 . S
C1601 C1602 1.366 . S
C1602 C1601 1.366 . S
C1602 C1603 1.414 . S
C1602 C1605 1.499 . S
C1603 H1577 0.950 . S
C1603 C1602 1.414 . S
C1603 C1604 1.374 . S
C1604 H1578 0.950 . S
C1604 C1600 1.385 . S
C1604 C1603 1.374 . S
C1605 C1602 1.499 . S
C1605 C1606 1.373 . S
C1605 C1607 1.389 . S
C1606 H1579 0.950 . S
C1606 C1592 1.377 . S
C1606 C1605 1.373 . S
C1607 C1591 1.377 . S
C1607 C1605 1.389 . S
C1607 C1608 1.524 . S
C1608 C1607 1.524 . S
C1608 C1609 1.397 . S
C1608 C1613 1.363 . S
C1609 H1580 0.950 . S
C1609 C1608 1.397 . S
C1609 C1610 1.334 . S
C1610 H1581 0.950 . S
C1610 C1609 1.334 . S
C1610 C1611 1.287 . S
C1611 C1610 1.287 . S
C1611 C1612 1.524 . S
C1611 H1614 0.999 . S
C1612 H1582 0.950 . S
C1612 C1611 1.524 . S
C1612 C1613 1.415 . S
C1613 H1583 0.950 . S
C1613 C1608 1.363 . S
C1613 C1612 1.415 . S
H1614 C1611 0.999 . S
H1615 C1596 0.913 . S
H1616 C1634 0.951 . S
H1617 C1636 0.951 . S
H1618 C1638 0.950 . S
H1619 C1639 0.950 . S
H1620 C1641 0.950 . S
H1621 C1644 0.950 . S
H1622 C1645 0.950 . S
H1623 C1647 0.950 . S
H1624 C1648 0.950 . S
H1625 C1649 0.951 . S
H1626 C1651 0.951 . S
H1627 C1653 0.950 . S
H1628 C1654 0.950 . S
H1629 C1656 0.950 . S
H1630 C1659 0.950 . S
H1631 C1660 0.950 . S
H1632 C1662 0.950 . S
H1633 C1663 0.950 . S
C1634 H1616 0.951 . S
C1634 C1635 1.366 . S
C1634 C1636 1.388 . S
C1635 C1634 1.366 . S
C1635 C1639 1.385 . S
C1636 H1617 0.951 . S
C1636 C1634 1.388 . S
C1636 C1637 1.366 . S
C1637 C1636 1.366 . S
C1637 C1638 1.414 . S
C1637 C1640 1.499 . S
C1638 H1618 0.950 . S
C1638 C1637 1.414 . S
C1638 C1639 1.374 . S
C1639 H1619 0.950 . S
C1639 C1635 1.385 . S
C1639 C1638 1.374 . S
C1640 C1637 1.499 . S
C1640 C1641 1.373 . S
C1640 C1642 1.389 . S
C1641 H1620 0.950 . S
C1641 C1640 1.373 . S
C1641 C1657 1.377 . S
C1642 C1640 1.389 . S
C1642 C1643 1.524 . S
C1642 C1656 1.377 . S
C1643 C1642 1.524 . S
C1643 C1644 1.397 . S
C1643 C1648 1.363 . S
C1644 H1621 0.950 . S
C1644 C1643 1.397 . S
C1644 C1645 1.334 . S
C1645 H1622 0.950 . S
C1645 C1644 1.334 . S
C1645 C1646 1.287 . S
C1646 C1645 1.287 . S
C1646 C1647 1.524 . S
C1646 H1665 0.913 . S
C1647 H1623 0.950 . S
C1647 C1646 1.524 . S
C1647 C1648 1.415 . S
C1648 H1624 0.950 . S
C1648 C1643 1.363 . S
C1648 C1647 1.415 . S
C1649 H1625 0.951 . S
C1649 C1650 1.366 . S
C1649 C1651 1.388 . S
C1650 C1649 1.366 . S
C1650 C1654 1.385 . S
C1651 H1626 0.951 . S
C1651 C1649 1.388 . S
C1651 C1652 1.366 . S
C1652 C1651 1.366 . S
C1652 C1653 1.414 . S
C1652 C1655 1.499 . S
C1653 H1627 0.950 . S
C1653 C1652 1.414 . S
C1653 C1654 1.374 . S
C1654 H1628 0.950 . S
C1654 C1650 1.385 . S
C1654 C1653 1.374 . S
C1655 C1652 1.499 . S
C1655 C1656 1.373 . S
C1655 C1657 1.389 . S
C1656 H1629 0.950 . S
C1656 C1642 1.377 . S
C1656 C1655 1.373 . S
C1657 C1641 1.377 . S
C1657 C1655 1.389 . S
C1657 C1658 1.524 . S
C1658 C1657 1.524 . S
C1658 C1659 1.397 . S
C1658 C1663 1.363 . S
C1659 H1630 0.950 . S
C1659 C1658 1.397 . S
C1659 C1660 1.334 . S
C1660 H1631 0.950 . S
C1660 C1659 1.334 . S
C1660 C1661 1.287 . S
C1661 C1660 1.287 . S
C1661 C1662 1.524 . S
C1661 H1664 0.999 . S
C1662 H1632 0.950 . S
C1662 C1661 1.524 . S
C1662 C1663 1.415 . S
C1663 H1633 0.950 . S
C1663 C1658 1.363 . S
C1663 C1662 1.415 . S
H1664 C1661 0.999 . S
H1665 C1646 0.913 . S
H1666 C1684 0.951 . S
H1667 C1686 0.951 . S
H1668 C1688 0.950 . S
H1669 C1689 0.950 . S
H1670 C1691 0.950 . S
H1671 C1694 0.950 . S
H1672 C1695 0.950 . S
H1673 C1697 0.950 . S
H1674 C1698 0.950 . S
H1675 C1699 0.951 . S
H1676 C1701 0.951 . S
H1677 C1703 0.950 . S
H1678 C1704 0.950 . S
H1679 C1706 0.950 . S
H1680 C1709 0.950 . S
H1681 C1710 0.950 . S
H1682 C1712 0.950 . S
H1683 C1713 0.950 . S
C1684 H1666 0.951 . S
C1684 C1685 1.366 . S
C1684 C1686 1.388 . S
C1685 C1684 1.366 . S
C1685 C1689 1.385 . S
C1686 H1667 0.951 . S
C1686 C1684 1.388 . S
C1686 C1687 1.366 . S
C1687 C1686 1.366 . S
C1687 C1688 1.414 . S
C1687 C1690 1.499 . S
C1688 H1668 0.950 . S
C1688 C1687 1.414 . S
C1688 C1689 1.374 . S
C1689 H1669 0.950 . S
C1689 C1685 1.385 . S
C1689 C1688 1.374 . S
C1690 C1687 1.499 . S
C1690 C1691 1.373 . S
C1690 C1692 1.389 . S
C1691 H1670 0.950 . S
C1691 C1690 1.373 . S
C1691 C1707 1.377 . S
C1692 C1690 1.389 . S
C1692 C1693 1.524 . S
C1692 C1706 1.377 . S
C1693 C1692 1.524 . S
C1693 C1694 1.397 . S
C1693 C1698 1.363 . S
C1694 H1671 0.950 . S
C1694 C1693 1.397 . S
C1694 C1695 1.334 . S
C1695 H1672 0.950 . S
C1695 C1694 1.334 . S
C1695 C1696 1.287 . S
C1696 C1695 1.287 . S
C1696 C1697 1.524 . S
C1696 H1715 0.913 . S
C1697 H1673 0.950 . S
C1697 C1696 1.524 . S
C1697 C1698 1.415 . S
C1698 H1674 0.950 . S
C1698 C1693 1.363 . S
C1698 C1697 1.415 . S
C1699 H1675 0.951 . S
C1699 C1700 1.366 . S
C1699 C1701 1.388 . S
C1700 C1699 1.366 . S
C1700 C1704 1.385 . S
C1701 H1676 0.951 . S
C1701 C1699 1.388 . S
C1701 C1702 1.366 . S
C1702 C1701 1.366 . S
C1702 C1703 1.414 . S
C1702 C1705 1.499 . S
C1703 H1677 0.950 . S
C1703 C1702 1.414 . S
C1703 C1704 1.374 . S
C1704 H1678 0.950 . S
C1704 C1700 1.385 . S
C1704 C1703 1.374 . S
C1705 C1702 1.499 . S
C1705 C1706 1.373 . S
C1705 C1707 1.389 . S
C1706 H1679 0.950 . S
C1706 C1692 1.377 . S
C1706 C1705 1.373 . S
C1707 C1691 1.377 . S
C1707 C1705 1.389 . S
C1707 C1708 1.524 . S
C1708 C1707 1.524 . S
C1708 C1709 1.397 . S
C1708 C1713 1.363 . S
C1709 H1680 0.950 . S
C1709 C1708 1.397 . S
C1709 C1710 1.334 . S
C1710 H1681 0.950 . S
C1710 C1709 1.334 . S
C1710 C1711 1.287 . S
C1711 C1710 1.287 . S
C1711 C1712 1.524 . S
C1711 H1714 0.999 . S
C1712 H1682 0.950 . S
C1712 C1711 1.524 . S
C1712 C1713 1.415 . S
C1713 H1683 0.950 . S
C1713 C1708 1.363 . S
C1713 C1712 1.415 . S
H1714 C1711 0.999 . S
H1715 C1696 0.913 . S
H1716 C1734 0.951 . S
H1717 C1736 0.951 . S
H1718 C1738 0.950 . S
H1719 C1739 0.950 . S
H1720 C1741 0.950 . S
H1721 C1744 0.950 . S
H1722 C1745 0.950 . S
H1723 C1747 0.950 . S
H1724 C1748 0.950 . S
H1725 C1749 0.951 . S
H1726 C1751 0.951 . S
H1727 C1753 0.950 . S
H1728 C1754 0.950 . S
H1729 C1756 0.950 . S
H1730 C1759 0.950 . S
H1731 C1760 0.950 . S
H1732 C1762 0.950 . S
H1733 C1763 0.950 . S
C1734 H1716 0.951 . S
C1734 C1735 1.366 . S
C1734 C1736 1.388 . S
C1735 C1734 1.366 . S
C1735 C1739 1.385 . S
C1736 H1717 0.951 . S
C1736 C1734 1.388 . S
C1736 C1737 1.366 . S
C1737 C1736 1.366 . S
C1737 C1738 1.414 . S
C1737 C1740 1.499 . S
C1738 H1718 0.950 . S
C1738 C1737 1.414 . S
C1738 C1739 1.374 . S
C1739 H1719 0.950 . S
C1739 C1735 1.385 . S
C1739 C1738 1.374 . S
C1740 C1737 1.499 . S
C1740 C1741 1.373 . S
C1740 C1742 1.389 . S
C1741 H1720 0.950 . S
C1741 C1740 1.373 . S
C1741 C1757 1.377 . S
C1742 C1740 1.389 . S
C1742 C1743 1.524 . S
C1742 C1756 1.377 . S
C1743 C1742 1.524 . S
C1743 C1744 1.397 . S
C1743 C1748 1.363 . S
C1744 H1721 0.950 . S
C1744 C1743 1.397 . S
C1744 C1745 1.334 . S
C1745 H1722 0.950 . S
C1745 C1744 1.334 . S
C1745 C1746 1.287 . S
C1746 C1745 1.287 . S
C1746 C1747 1.524 . S
C1746 H1765 0.913 . S
C1747 H1723 0.950 . S
C1747 C1746 1.524 . S
C1747 C1748 1.415 . S
C1748 H1724 0.950 . S
C1748 C1743 1.363 . S
C1748 C1747 1.415 . S
C1749 H1725 0.951 . S
C1749 C1750 1.366 . S
C1749 C1751 1.388 . S
C1750 C1749 1.366 . S
C1750 C1754 1.385 . S
C1751 H1726 0.951 . S
C1751 C1749 1.388 . S
C1751 C1752 1.366 . S
C1752 C1751 1.366 . S
C1752 C1753 1.414 . S
C1752 C1755 1.499 . S
C1753 H1727 0.950 . S
C1753 C1752 1.414 . S
C1753 C1754 1.374 . S
C1754 H1728 0.950 . S
C1754 C1750 1.385 . S
C1754 C1753 1.374 . S
C1755 C1752 1.499 . S
C1755 C1756 1.373 . S
C1755 C1757 1.389 . S
C1756 H1729 0.950 . S
C1756 C1742 1.377 . S
C1756 C1755 1.373 . S
C1757 C1741 1.377 . S
C1757 C1755 1.389 . S
C1757 C1758 1.524 . S
C1758 C1757 1.524 . S
C1758 C1759 1.397 . S
C1758 C1763 1.363 . S
C1759 H1730 0.950 . S
C1759 C1758 1.397 . S
C1759 C1760 1.334 . S
C1760 H1731 0.950 . S
C1760 C1759 1.334 . S
C1760 C1761 1.287 . S
C1761 C1760 1.287 . S
C1761 C1762 1.524 . S
C1761 H1764 0.999 . S
C1762 H1732 0.950 . S
C1762 C1761 1.524 . S
C1762 C1763 1.415 . S
C1763 H1733 0.950 . S
C1763 C1758 1.363 . S
C1763 C1762 1.415 . S
H1764 C1761 0.999 . S
H1765 C1746 0.913 . S
H1766 C1784 0.951 . S
H1767 C1786 0.951 . S
H1768 C1788 0.950 . S
H1769 C1789 0.950 . S
H1770 C1791 0.950 . S
H1771 C1794 0.950 . S
H1772 C1795 0.950 . S
H1773 C1797 0.950 . S
H1774 C1798 0.950 . S
H1775 C1799 0.951 . S
H1776 C1801 0.951 . S
H1777 C1803 0.950 . S
H1778 C1804 0.950 . S
H1779 C1806 0.950 . S
H1780 C1809 0.950 . S
H1781 C1810 0.950 . S
H1782 C1812 0.950 . S
H1783 C1813 0.950 . S
C1784 H1766 0.951 . S
C1784 C1785 1.366 . S
C1784 C1786 1.388 . S
C1785 C1784 1.366 . S
C1785 C1789 1.385 . S
C1786 H1767 0.951 . S
C1786 C1784 1.388 . S
C1786 C1787 1.366 . S
C1787 C1786 1.366 . S
C1787 C1788 1.414 . S
C1787 C1790 1.499 . S
C1788 H1768 0.950 . S
C1788 C1787 1.414 . S
C1788 C1789 1.374 . S
C1789 H1769 0.950 . S
C1789 C1785 1.385 . S
C1789 C1788 1.374 . S
C1790 C1787 1.499 . S
C1790 C1791 1.373 . S
C1790 C1792 1.389 . S
C1791 H1770 0.950 . S
C1791 C1790 1.373 . S
C1791 C1807 1.377 . S
C1792 C1790 1.389 . S
C1792 C1793 1.524 . S
C1792 C1806 1.377 . S
C1793 C1792 1.524 . S
C1793 C1794 1.397 . S
C1793 C1798 1.363 . S
C1794 H1771 0.950 . S
C1794 C1793 1.397 . S
C1794 C1795 1.334 . S
C1795 H1772 0.950 . S
C1795 C1794 1.334 . S
C1795 C1796 1.287 . S
C1796 C1795 1.287 . S
C1796 C1797 1.524 . S
C1796 H1815 0.913 . S
C1797 H1773 0.950 . S
C1797 C1796 1.524 . S
C1797 C1798 1.415 . S
C1798 H1774 0.950 . S
C1798 C1793 1.363 . S
C1798 C1797 1.415 . S
C1799 H1775 0.951 . S
C1799 C1800 1.366 . S
C1799 C1801 1.388 . S
C1800 C1799 1.366 . S
C1800 C1804 1.385 . S
C1801 H1776 0.951 . S
C1801 C1799 1.388 . S
C1801 C1802 1.366 . S
C1802 C1801 1.366 . S
C1802 C1803 1.414 . S
C1802 C1805 1.499 . S
C1803 H1777 0.950 . S
C1803 C1802 1.414 . S
C1803 C1804 1.374 . S
C1804 H1778 0.950 . S
C1804 C1800 1.385 . S
C1804 C1803 1.374 . S
C1805 C1802 1.499 . S
C1805 C1806 1.373 . S
C1805 C1807 1.389 . S
C1806 H1779 0.950 . S
C1806 C1792 1.377 . S
C1806 C1805 1.373 . S
C1807 C1791 1.377 . S
C1807 C1805 1.389 . S
C1807 C1808 1.524 . S
C1808 C1807 1.524 . S
C1808 C1809 1.397 . S
C1808 C1813 1.363 . S
C1809 H1780 0.950 . S
C1809 C1808 1.397 . S
C1809 C1810 1.334 . S
C1810 H1781 0.950 . S
C1810 C1809 1.334 . S
C1810 C1811 1.287 . S
C1811 C1810 1.287 . S
C1811 C1812 1.524 . S
C1811 H1814 0.999 . S
C1812 H1782 0.950 . S
C1812 C1811 1.524 . S
C1812 C1813 1.415 . S
C1813 H1783 0.950 . S
C1813 C1808 1.363 . S
C1813 C1812 1.415 . S
H1814 C1811 0.999 . S
H1815 C1796 0.913 . S
H1816 C1834 0.951 . S
H1817 C1836 0.951 . S
H1818 C1838 0.950 . S
H1819 C1839 0.950 . S
H1820 C1841 0.950 . S
H1821 C1844 0.950 . S
H1822 C1845 0.950 . S
H1823 C1847 0.950 . S
H1824 C1848 0.950 . S
H1825 C1849 0.951 . S
H1826 C1851 0.951 . S
H1827 C1853 0.950 . S
H1828 C1854 0.950 . S
H1829 C1856 0.950 . S
H1830 C1859 0.950 . S
H1831 C1860 0.950 . S
H1832 C1862 0.950 . S
H1833 C1863 0.950 . S
C1834 H1816 0.951 . S
C1834 C1835 1.366 . S
C1834 C1836 1.388 . S
C1835 C1834 1.366 . S
C1835 C1839 1.385 . S
C1836 H1817 0.951 . S
C1836 C1834 1.388 . S
C1836 C1837 1.366 . S
C1837 C1836 1.366 . S
C1837 C1838 1.414 . S
C1837 C1840 1.499 . S
C1838 H1818 0.950 . S
C1838 C1837 1.414 . S
C1838 C1839 1.374 . S
C1839 H1819 0.950 . S
C1839 C1835 1.385 . S
C1839 C1838 1.374 . S
C1840 C1837 1.499 . S
C1840 C1841 1.373 . S
C1840 C1842 1.389 . S
C1841 H1820 0.950 . S
C1841 C1840 1.373 . S
C1841 C1857 1.377 1_556 S
C1842 C1840 1.389 . S
C1842 C1843 1.524 . S
C1842 C1856 1.377 1_556 S
C1843 C1842 1.524 . S
C1843 C1844 1.397 . S
C1843 C1848 1.363 . S
C1844 H1821 0.950 . S
C1844 C1843 1.397 . S
C1844 C1845 1.334 . S
C1845 H1822 0.950 . S
C1845 C1844 1.334 . S
C1845 C1846 1.287 . S
C1846 C1845 1.287 . S
C1846 C1847 1.524 . S
C1846 H1865 0.913 . S
C1847 H1823 0.950 . S
C1847 C1846 1.524 . S
C1847 C1848 1.415 . S
C1848 H1824 0.950 . S
C1848 C1843 1.363 . S
C1848 C1847 1.415 . S
C1849 H1825 0.951 . S
C1849 C1850 1.366 . S
C1849 C1851 1.388 . S
C1850 C1849 1.366 . S
C1850 C1854 1.385 . S
C1851 H1826 0.951 . S
C1851 C1849 1.388 . S
C1851 C1852 1.366 . S
C1852 C1851 1.366 . S
C1852 C1853 1.414 . S
C1852 C1855 1.499 . S
C1853 H1827 0.950 . S
C1853 C1852 1.414 . S
C1853 C1854 1.374 . S
C1854 H1828 0.950 . S
C1854 C1850 1.385 . S
C1854 C1853 1.374 . S
C1855 C1852 1.499 . S
C1855 C1856 1.373 . S
C1855 C1857 1.389 . S
C1856 H1829 0.950 . S
C1856 C1842 1.377 1_554 S
C1856 C1855 1.373 . S
C1857 C1841 1.377 1_554 S
C1857 C1855 1.389 . S
C1857 C1858 1.524 . S
C1858 C1857 1.524 . S
C1858 C1859 1.397 . S
C1858 C1863 1.363 . S
C1859 H1830 0.950 . S
C1859 C1858 1.397 . S
C1859 C1860 1.334 . S
C1860 H1831 0.950 . S
C1860 C1859 1.334 . S
C1860 C1861 1.287 . S
C1861 C1860 1.287 . S
C1861 C1862 1.524 . S
C1861 H1864 0.999 . S
C1862 H1832 0.950 . S
C1862 C1861 1.524 . S
C1862 C1863 1.415 . S
C1863 H1833 0.950 . S
C1863 C1858 1.363 . S
C1863 C1862 1.415 . S
H1864 C1861 0.999 . S
H1865 C1846 0.913 . S
H1866 C1884 0.951 . S
H1867 C1886 0.951 . S
H1868 C1888 0.950 . S
H1869 C1889 0.950 . S
H1870 C1891 0.950 . S
H1871 C1894 0.950 . S
H1872 C1895 0.950 . S
H1873 C1897 0.950 . S
H1874 C1898 0.950 . S
H1875 C1899 0.951 . S
H1876 C1901 0.951 . S
H1877 C1903 0.950 . S
H1878 C1904 0.950 . S
H1879 C1906 0.950 . S
H1880 C1909 0.950 . S
H1881 C1910 0.950 . S
H1882 C1912 0.950 . S
H1883 C1913 0.950 . S
C1884 H1866 0.951 . S
C1884 C1885 1.366 . S
C1884 C1886 1.388 . S
C1885 C1884 1.366 . S
C1885 C1889 1.385 . S
C1886 H1867 0.951 . S
C1886 C1884 1.388 . S
C1886 C1887 1.366 . S
C1887 C1886 1.366 . S
C1887 C1888 1.414 . S
C1887 C1890 1.499 . S
C1888 H1868 0.950 . S
C1888 C1887 1.414 . S
C1888 C1889 1.374 . S
C1889 H1869 0.950 . S
C1889 C1885 1.385 . S
C1889 C1888 1.374 . S
C1890 C1887 1.499 . S
C1890 C1891 1.373 . S
C1890 C1892 1.389 . S
C1891 H1870 0.950 . S
C1891 C1890 1.373 . S
C1891 C1907 1.377 1_554 S
C1892 C1890 1.389 . S
C1892 C1893 1.524 . S
C1892 C1906 1.377 1_554 S
C1893 C1892 1.524 . S
C1893 C1894 1.397 . S
C1893 C1898 1.363 . S
C1894 H1871 0.950 . S
C1894 C1893 1.397 . S
C1894 C1895 1.334 . S
C1895 H1872 0.950 . S
C1895 C1894 1.334 . S
C1895 C1896 1.287 . S
C1896 C1895 1.287 . S
C1896 C1897 1.524 . S
C1896 H1915 0.913 . S
C1897 H1873 0.950 . S
C1897 C1896 1.524 . S
C1897 C1898 1.415 . S
C1898 H1874 0.950 . S
C1898 C1893 1.363 . S
C1898 C1897 1.415 . S
C1899 H1875 0.951 . S
C1899 C1900 1.366 . S
C1899 C1901 1.388 . S
C1900 C1899 1.366 . S
C1900 C1904 1.385 . S
C1901 H1876 0.951 . S
C1901 C1899 1.388 . S
C1901 C1902 1.366 . S
C1902 C1901 1.366 . S
C1902 C1903 1.414 . S
C1902 C1905 1.499 . S
C1903 H1877 0.950 . S
C1903 C1902 1.414 . S
C1903 C1904 1.374 . S
C1904 H1878 0.950 . S
C1904 C1900 1.385 . S
C1904 C1903 1.374 . S
C1905 C1902 1.499 . S
C1905 C1906 1.373 . S
C1905 C1907 1.389 . S
C1906 H1879 0.950 . S
C1906 C1892 1.377 1_556 S
C1906 C1905 1.373 . S
C1907 C1891 1.377 1_556 S
C1907 C1905 1.389 . S
C1907 C1908 1.524 . S
C1908 C1907 1.524 . S
C1908 C1909 1.397 . S
C1908 C1913 1.363 . S
C1909 H1880 0.950 . S
C1909 C1908 1.397 . S
C1909 C1910 1.334 . S
C1910 H1881 0.950 . S
C1910 C1909 1.334 . S
C1910 C1911 1.287 . S
C1911 C1910 1.287 . S
C1911 C1912 1.524 . S
C1911 H1914 0.999 . S
C1912 H1882 0.950 . S
C1912 C1911 1.524 . S
C1912 C1913 1.415 . S
C1913 H1883 0.950 . S
C1913 C1908 1.363 . S
C1913 C1912 1.415 . S
H1914 C1911 0.999 . S
H1915 C1896 0.913 . S
H1916 C1934 0.951 . S
H1917 C1936 0.951 . S
H1918 C1938 0.950 . S
H1919 C1939 0.950 . S
H1920 C1941 0.950 . S
H1921 C1944 0.950 . S
H1922 C1945 0.950 . S
H1923 C1947 0.950 . S
H1924 C1948 0.950 . S
H1925 C1949 0.951 . S
H1926 C1951 0.951 . S
H1927 C1953 0.950 . S
H1928 C1954 0.950 . S
H1929 C1956 0.950 . S
H1930 C1959 0.950 . S
H1931 C1960 0.950 . S
H1932 C1962 0.950 . S
H1933 C1963 0.950 . S
C1934 H1916 0.951 . S
C1934 C1935 1.366 . S
C1934 C1936 1.388 . S
C1935 C1934 1.366 . S
C1935 C1939 1.385 . S
C1936 H1917 0.951 . S
C1936 C1934 1.388 . S
C1936 C1937 1.366 . S
C1937 C1936 1.366 . S
C1937 C1938 1.414 . S
C1937 C1940 1.499 . S
C1938 H1918 0.950 . S
C1938 C1937 1.414 . S
C1938 C1939 1.374 . S
C1939 H1919 0.950 . S
C1939 C1935 1.385 . S
C1939 C1938 1.374 . S
C1940 C1937 1.499 . S
C1940 C1941 1.373 . S
C1940 C1942 1.389 . S
C1941 H1920 0.950 . S
C1941 C1940 1.373 . S
C1941 C1957 1.377 1_554 S
C1942 C1940 1.389 . S
C1942 C1943 1.524 . S
C1942 C1956 1.377 1_554 S
C1943 C1942 1.524 . S
C1943 C1944 1.397 . S
C1943 C1948 1.363 . S
C1944 H1921 0.950 . S
C1944 C1943 1.397 . S
C1944 C1945 1.334 . S
C1945 H1922 0.950 . S
C1945 C1944 1.334 . S
C1945 C1946 1.287 . S
C1946 C1945 1.287 . S
C1946 C1947 1.524 . S
C1946 H1965 0.913 . S
C1947 H1923 0.950 . S
C1947 C1946 1.524 . S
C1947 C1948 1.415 . S
C1948 H1924 0.950 . S
C1948 C1943 1.363 . S
C1948 C1947 1.415 . S
C1949 H1925 0.951 . S
C1949 C1950 1.366 . S
C1949 C1951 1.388 . S
C1950 C1949 1.366 . S
C1950 C1954 1.385 . S
C1951 H1926 0.951 . S
C1951 C1949 1.388 . S
C1951 C1952 1.366 . S
C1952 C1951 1.366 . S
C1952 C1953 1.414 . S
C1952 C1955 1.499 . S
C1953 H1927 0.950 . S
C1953 C1952 1.414 . S
C1953 C1954 1.374 . S
C1954 H1928 0.950 . S
C1954 C1950 1.385 . S
C1954 C1953 1.374 . S
C1955 C1952 1.499 . S
C1955 C1956 1.373 . S
C1955 C1957 1.389 . S
C1956 H1929 0.950 . S
C1956 C1942 1.377 1_556 S
C1956 C1955 1.373 . S
C1957 C1941 1.377 1_556 S
C1957 C1955 1.389 . S
C1957 C1958 1.524 . S
C1958 C1957 1.524 . S
C1958 C1959 1.397 . S
C1958 C1963 1.363 . S
C1959 H1930 0.950 . S
C1959 C1958 1.397 . S
C1959 C1960 1.334 . S
C1960 H1931 0.950 . S
C1960 C1959 1.334 . S
C1960 C1961 1.287 . S
C1961 C1960 1.287 . S
C1961 C1962 1.524 . S
C1961 H1964 0.999 . S
C1962 H1932 0.950 . S
C1962 C1961 1.524 . S
C1962 C1963 1.415 . S
C1963 H1933 0.950 . S
C1963 C1958 1.363 . S
C1963 C1962 1.415 . S
H1964 C1961 0.999 . S
H1965 C1946 0.913 . S
H1966 C1984 0.951 . S
H1967 C1986 0.951 . S
H1968 C1988 0.950 . S
H1969 C1989 0.950 . S
H1970 C1991 0.950 . S
H1971 C1994 0.950 . S
H1972 C1995 0.950 . S
H1973 C1997 0.950 . S
H1974 C1998 0.950 . S
H1975 C1999 0.951 . S
H1976 C2001 0.951 . S
H1977 C2003 0.950 . S
H1978 C2004 0.950 . S
H1979 C2006 0.950 . S
H1980 C2009 0.950 . S
H1981 C2010 0.950 . S
H1982 C2012 0.950 . S
H1983 C2013 0.950 . S
C1984 H1966 0.951 . S
C1984 C1985 1.366 . S
C1984 C1986 1.388 . S
C1985 C1984 1.366 . S
C1985 C1989 1.385 . S
C1986 H1967 0.951 . S
C1986 C1984 1.388 . S
C1986 C1987 1.366 . S
C1987 C1986 1.366 . S
C1987 C1988 1.414 . S
C1987 C1990 1.499 . S
C1988 H1968 0.950 . S
C1988 C1987 1.414 . S
C1988 C1989 1.374 . S
C1989 H1969 0.950 . S
C1989 C1985 1.385 . S
C1989 C1988 1.374 . S
C1990 C1987 1.499 . S
C1990 C1991 1.373 . S
C1990 C1992 1.389 . S
C1991 H1970 0.950 . S
C1991 C1990 1.373 . S
C1991 C2007 1.377 1_556 S
C1992 C1990 1.389 . S
C1992 C1993 1.524 . S
C1992 C2006 1.377 1_556 S
C1993 C1992 1.524 . S
C1993 C1994 1.397 . S
C1993 C1998 1.363 . S
C1994 H1971 0.950 . S
C1994 C1993 1.397 . S
C1994 C1995 1.334 . S
C1995 H1972 0.950 . S
C1995 C1994 1.334 . S
C1995 C1996 1.287 . S
C1996 C1995 1.287 . S
C1996 C1997 1.524 . S
C1996 H2015 0.913 . S
C1997 H1973 0.950 . S
C1997 C1996 1.524 . S
C1997 C1998 1.415 . S
C1998 H1974 0.950 . S
C1998 C1993 1.363 . S
C1998 C1997 1.415 . S
C1999 H1975 0.951 . S
C1999 C2000 1.366 . S
C1999 C2001 1.388 . S
C2000 C1999 1.366 . S
C2000 C2004 1.385 . S
C2001 H1976 0.951 . S
C2001 C1999 1.388 . S
C2001 C2002 1.366 . S
C2002 C2001 1.366 . S
C2002 C2003 1.414 . S
C2002 C2005 1.499 . S
C2003 H1977 0.950 . S
C2003 C2002 1.414 . S
C2003 C2004 1.374 . S
C2004 H1978 0.950 . S
C2004 C2000 1.385 . S
C2004 C2003 1.374 . S
C2005 C2002 1.499 . S
C2005 C2006 1.373 . S
C2005 C2007 1.389 . S
C2006 H1979 0.950 . S
C2006 C1992 1.377 1_554 S
C2006 C2005 1.373 . S
C2007 C1991 1.377 1_554 S
C2007 C2005 1.389 . S
C2007 C2008 1.524 . S
C2008 C2007 1.524 . S
C2008 C2009 1.397 . S
C2008 C2013 1.363 . S
C2009 H1980 0.950 . S
C2009 C2008 1.397 . S
C2009 C2010 1.334 . S
C2010 H1981 0.950 . S
C2010 C2009 1.334 . S
C2010 C2011 1.287 . S
C2011 C2010 1.287 . S
C2011 C2012 1.524 . S
C2011 H2014 0.999 . S
C2012 H1982 0.950 . S
C2012 C2011 1.524 . S
C2012 C2013 1.415 . S
C2013 H1983 0.950 . S
C2013 C2008 1.363 . S
C2013 C2012 1.415 . S
H2014 C2011 0.999 . S
H2015 C1996 0.913 . S
H2016 C2034 0.951 . S
H2017 C2036 0.951 . S
H2018 C2038 0.950 . S
H2019 C2039 0.950 . S
H2020 C2041 0.950 . S
H2021 C2044 0.950 . S
H2022 C2045 0.950 . S
H2023 C2047 0.950 . S
H2024 C2048 0.950 . S
H2025 C2049 0.951 . S
H2026 C2051 0.951 . S
H2027 C2053 0.950 . S
H2028 C2054 0.950 . S
H2029 C2056 0.950 . S
H2030 C2059 0.950 . S
H2031 C2060 0.950 . S
H2032 C2062 0.950 . S
H2033 C2063 0.950 . S
C2034 H2016 0.951 . S
C2034 C2035 1.366 . S
C2034 C2036 1.388 . S
C2035 C2034 1.366 . S
C2035 C2039 1.385 . S
C2036 H2017 0.951 . S
C2036 C2034 1.388 . S
C2036 C2037 1.366 . S
C2037 C2036 1.366 . S
C2037 C2038 1.414 . S
C2037 C2040 1.499 . S
C2038 H2018 0.950 . S
C2038 C2037 1.414 . S
C2038 C2039 1.374 . S
C2039 H2019 0.950 . S
C2039 C2035 1.385 . S
C2039 C2038 1.374 . S
C2040 C2037 1.499 . S
C2040 C2041 1.373 . S
C2040 C2042 1.389 . S
C2041 H2020 0.950 . S
C2041 C2040 1.373 . S
C2041 C2057 1.377 1_545 S
C2042 C2040 1.389 . S
C2042 C2043 1.524 . S
C2042 C2056 1.377 1_545 S
C2043 C2042 1.524 . S
C2043 C2044 1.397 . S
C2043 C2048 1.363 . S
C2044 H2021 0.950 . S
C2044 C2043 1.397 . S
C2044 C2045 1.334 . S
C2045 H2022 0.950 . S
C2045 C2044 1.334 . S
C2045 C2046 1.287 . S
C2046 C2045 1.287 . S
C2046 C2047 1.524 . S
C2046 H2065 0.913 . S
C2047 H2023 0.950 . S
C2047 C2046 1.524 . S
C2047 C2048 1.415 . S
C2048 H2024 0.950 . S
C2048 C2043 1.363 . S
C2048 C2047 1.415 . S
C2049 H2025 0.951 . S
C2049 C2050 1.366 . S
C2049 C2051 1.388 . S
C2050 C2049 1.366 . S
C2050 C2054 1.385 . S
C2051 H2026 0.951 . S
C2051 C2049 1.388 . S
C2051 C2052 1.366 . S
C2052 C2051 1.366 . S
C2052 C2053 1.414 . S
C2052 C2055 1.499 . S
C2053 H2027 0.950 . S
C2053 C2052 1.414 . S
C2053 C2054 1.374 . S
C2054 H2028 0.950 . S
C2054 C2050 1.385 . S
C2054 C2053 1.374 . S
C2055 C2052 1.499 . S
C2055 C2056 1.373 . S
C2055 C2057 1.389 . S
C2056 H2029 0.950 . S
C2056 C2042 1.377 1_565 S
C2056 C2055 1.373 . S
C2057 C2041 1.377 1_565 S
C2057 C2055 1.389 . S
C2057 C2058 1.524 . S
C2058 C2057 1.524 . S
C2058 C2059 1.397 . S
C2058 C2063 1.363 . S
C2059 H2030 0.950 . S
C2059 C2058 1.397 . S
C2059 C2060 1.334 . S
C2060 H2031 0.950 . S
C2060 C2059 1.334 . S
C2060 C2061 1.287 . S
C2061 C2060 1.287 . S
C2061 C2062 1.524 . S
C2061 H2064 0.999 . S
C2062 H2032 0.950 . S
C2062 C2061 1.524 . S
C2062 C2063 1.415 . S
C2063 H2033 0.950 . S
C2063 C2058 1.363 . S
C2063 C2062 1.415 . S
H2064 C2061 0.999 . S
H2065 C2046 0.913 . S
H2066 C2084 0.951 . S
H2067 C2086 0.951 . S
H2068 C2088 0.950 . S
H2069 C2089 0.950 . S
H2070 C2091 0.950 . S
H2071 C2094 0.950 . S
H2072 C2095 0.950 . S
H2073 C2097 0.950 1_455 S
H2074 C2098 0.950 . S
H2075 C2099 0.951 . S
H2076 C2101 0.951 . S
H2077 C2103 0.950 . S
H2078 C2104 0.950 . S
H2079 C2106 0.950 . S
H2080 C2109 0.950 . S
H2081 C2110 0.950 . S
H2082 C2112 0.950 1_655 S
H2083 C2113 0.950 . S
C2084 H2066 0.951 . S
C2084 C2085 1.366 . S
C2084 C2086 1.388 . S
C2085 C2084 1.366 . S
C2085 C2089 1.385 . S
C2086 H2067 0.951 . S
C2086 C2084 1.388 . S
C2086 C2087 1.366 . S
C2087 C2086 1.366 . S
C2087 C2088 1.414 . S
C2087 C2090 1.499 . S
C2088 H2068 0.950 . S
C2088 C2087 1.414 . S
C2088 C2089 1.374 . S
C2089 H2069 0.950 . S
C2089 C2085 1.385 . S
C2089 C2088 1.374 . S
C2090 C2087 1.499 . S
C2090 C2091 1.373 . S
C2090 C2092 1.389 . S
C2091 H2070 0.950 . S
C2091 C2090 1.373 . S
C2091 C2107 1.377 1_655 S
C2092 C2090 1.389 . S
C2092 C2093 1.524 . S
C2092 C2106 1.377 1_655 S
C2093 C2092 1.524 . S
C2093 C2094 1.397 . S
C2093 C2098 1.363 1_655 S
C2094 H2071 0.950 . S
C2094 C2093 1.397 . S
C2094 C2095 1.334 . S
C2095 H2072 0.950 . S
C2095 C2094 1.334 . S
C2095 C2096 1.287 . S
C2096 C2095 1.287 . S
C2096 C2097 1.524 . S
C2096 H2115 0.913 . S
C2097 H2073 0.950 1_655 S
C2097 C2096 1.524 . S
C2097 C2098 1.415 1_655 S
C2098 H2074 0.950 . S
C2098 C2093 1.363 1_455 S
C2098 C2097 1.415 1_455 S
C2099 H2075 0.951 . S
C2099 C2100 1.366 . S
C2099 C2101 1.388 . S
C2100 C2099 1.366 . S
C2100 C2104 1.385 . S
C2101 H2076 0.951 . S
C2101 C2099 1.388 . S
C2101 C2102 1.366 . S
C2102 C2101 1.366 . S
C2102 C2103 1.414 . S
C2102 C2105 1.499 . S
C2103 H2077 0.950 . S
C2103 C2102 1.414 . S
C2103 C2104 1.374 . S
C2104 H2078 0.950 . S
C2104 C2100 1.385 . S
C2104 C2103 1.374 . S
C2105 C2102 1.499 . S
C2105 C2106 1.373 . S
C2105 C2107 1.389 . S
C2106 H2079 0.950 . S
C2106 C2092 1.377 1_455 S
C2106 C2105 1.373 . S
C2107 C2091 1.377 1_455 S
C2107 C2105 1.389 . S
C2107 C2108 1.524 . S
C2108 C2107 1.524 . S
C2108 C2109 1.397 . S
C2108 C2113 1.363 1_455 S
C2109 H2080 0.950 . S
C2109 C2108 1.397 . S
C2109 C2110 1.334 . S
C2110 H2081 0.950 . S
C2110 C2109 1.334 . S
C2110 C2111 1.287 . S
C2111 C2110 1.287 . S
C2111 C2112 1.524 . S
C2111 H2114 0.999 . S
C2112 H2082 0.950 1_455 S
C2112 C2111 1.524 . S
C2112 C2113 1.415 1_455 S
C2113 H2083 0.950 . S
C2113 C2108 1.363 1_655 S
C2113 C2112 1.415 1_655 S
H2114 C2111 0.999 . S
H2115 C2096 0.913 . S
H2116 C2134 0.951 . S
H2117 C2136 0.951 . S
H2118 C2138 0.950 . S
H2119 C2139 0.950 . S
H2120 C2141 0.950 . S
H2121 C2144 0.950 . S
H2122 C2145 0.950 . S
H2123 C2147 0.950 . S
H2124 C2148 0.950 . S
H2125 C2149 0.951 . S
H2126 C2151 0.951 . S
H2127 C2153 0.950 . S
H2128 C2154 0.950 . S
H2129 C2156 0.950 . S
H2130 C2159 0.950 . S
H2131 C2160 0.950 . S
H2132 C2162 0.950 . S
H2133 C2163 0.950 . S
C2134 H2116 0.951 . S
C2134 C2135 1.366 . S
C2134 C2136 1.388 . S
C2135 C2134 1.366 . S
C2135 C2139 1.385 . S
C2136 H2117 0.951 . S
C2136 C2134 1.388 . S
C2136 C2137 1.366 . S
C2137 C2136 1.366 . S
C2137 C2138 1.414 . S
C2137 C2140 1.499 . S
C2138 H2118 0.950 . S
C2138 C2137 1.414 . S
C2138 C2139 1.374 . S
C2139 H2119 0.950 . S
C2139 C2135 1.385 . S
C2139 C2138 1.374 . S
C2140 C2137 1.499 . S
C2140 C2141 1.373 . S
C2140 C2142 1.389 . S
C2141 H2120 0.950 . S
C2141 C2140 1.373 . S
C2141 C2157 1.377 1_545 S
C2142 C2140 1.389 . S
C2142 C2143 1.524 . S
C2142 C2156 1.377 1_545 S
C2143 C2142 1.524 . S
C2143 C2144 1.397 . S
C2143 C2148 1.363 . S
C2144 H2121 0.950 . S
C2144 C2143 1.397 . S
C2144 C2145 1.334 . S
C2145 H2122 0.950 . S
C2145 C2144 1.334 . S
C2145 C2146 1.287 . S
C2146 C2145 1.287 . S
C2146 C2147 1.524 . S
C2146 H2165 0.913 . S
C2147 H2123 0.950 . S
C2147 C2146 1.524 . S
C2147 C2148 1.415 . S
C2148 H2124 0.950 . S
C2148 C2143 1.363 . S
C2148 C2147 1.415 . S
C2149 H2125 0.951 . S
C2149 C2150 1.366 . S
C2149 C2151 1.388 . S
C2150 C2149 1.366 . S
C2150 C2154 1.385 . S
C2151 H2126 0.951 . S
C2151 C2149 1.388 . S
C2151 C2152 1.366 . S
C2152 C2151 1.366 . S
C2152 C2153 1.414 . S
C2152 C2155 1.499 . S
C2153 H2127 0.950 . S
C2153 C2152 1.414 . S
C2153 C2154 1.374 . S
C2154 H2128 0.950 . S
C2154 C2150 1.385 . S
C2154 C2153 1.374 . S
C2155 C2152 1.499 . S
C2155 C2156 1.373 . S
C2155 C2157 1.389 . S
C2156 H2129 0.950 . S
C2156 C2142 1.377 1_565 S
C2156 C2155 1.373 . S
C2157 C2141 1.377 1_565 S
C2157 C2155 1.389 . S
C2157 C2158 1.524 . S
C2158 C2157 1.524 . S
C2158 C2159 1.397 . S
C2158 C2163 1.363 . S
C2159 H2130 0.950 . S
C2159 C2158 1.397 . S
C2159 C2160 1.334 . S
C2160 H2131 0.950 . S
C2160 C2159 1.334 . S
C2160 C2161 1.287 . S
C2161 C2160 1.287 . S
C2161 C2162 1.524 . S
C2161 H2164 0.999 . S
C2162 H2132 0.950 . S
C2162 C2161 1.524 . S
C2162 C2163 1.415 . S
C2163 H2133 0.950 . S
C2163 C2158 1.363 . S
C2163 C2162 1.415 . S
H2164 C2161 0.999 . S
H2165 C2146 0.913 . S
H2166 C2184 0.951 . S
H2167 C2186 0.951 . S
H2168 C2188 0.950 . S
H2169 C2189 0.950 . S
H2170 C2191 0.950 . S
H2171 C2194 0.950 . S
H2172 C2195 0.950 . S
H2173 C2197 0.950 . S
H2174 C2198 0.950 . S
H2175 C2199 0.951 . S
H2176 C2201 0.951 . S
H2177 C2203 0.950 . S
H2178 C2204 0.950 . S
H2179 C2206 0.950 . S
H2180 C2209 0.950 . S
H2181 C2210 0.950 . S
H2182 C2212 0.950 . S
H2183 C2213 0.950 . S
C2184 H2166 0.951 . S
C2184 C2185 1.366 . S
C2184 C2186 1.388 . S
C2185 C2184 1.366 . S
C2185 C2189 1.385 . S
C2186 H2167 0.951 . S
C2186 C2184 1.388 . S
C2186 C2187 1.366 . S
C2187 C2186 1.366 . S
C2187 C2188 1.414 . S
C2187 C2190 1.499 . S
C2188 H2168 0.950 . S
C2188 C2187 1.414 . S
C2188 C2189 1.374 . S
C2189 H2169 0.950 . S
C2189 C2185 1.385 . S
C2189 C2188 1.374 . S
C2190 C2187 1.499 . S
C2190 C2191 1.373 . S
C2190 C2192 1.389 . S
C2191 H2170 0.950 . S
C2191 C2190 1.373 . S
C2191 C2207 1.377 1_455 S
C2192 C2190 1.389 . S
C2192 C2193 1.524 . S
C2192 C2206 1.377 1_455 S
C2193 C2192 1.524 . S
C2193 C2194 1.397 . S
C2193 C2198 1.363 . S
C2194 H2171 0.950 . S
C2194 C2193 1.397 . S
C2194 C2195 1.334 . S
C2195 H2172 0.950 . S
C2195 C2194 1.334 . S
C2195 C2196 1.287 . S
C2196 C2195 1.287 . S
C2196 C2197 1.524 . S
C2196 H2215 0.913 . S
C2197 H2173 0.950 . S
C2197 C2196 1.524 . S
C2197 C2198 1.415 . S
C2198 H2174 0.950 . S
C2198 C2193 1.363 . S
C2198 C2197 1.415 . S
C2199 H2175 0.951 . S
C2199 C2200 1.366 . S
C2199 C2201 1.388 . S
C2200 C2199 1.366 . S
C2200 C2204 1.385 . S
C2201 H2176 0.951 . S
C2201 C2199 1.388 . S
C2201 C2202 1.366 . S
C2202 C2201 1.366 . S
C2202 C2203 1.414 . S
C2202 C2205 1.499 . S
C2203 H2177 0.950 . S
C2203 C2202 1.414 . S
C2203 C2204 1.374 . S
C2204 H2178 0.950 . S
C2204 C2200 1.385 . S
C2204 C2203 1.374 . S
C2205 C2202 1.499 . S
C2205 C2206 1.373 . S
C2205 C2207 1.389 . S
C2206 H2179 0.950 . S
C2206 C2192 1.377 1_655 S
C2206 C2205 1.373 . S
C2207 C2191 1.377 1_655 S
C2207 C2205 1.389 . S
C2207 C2208 1.524 . S
C2208 C2207 1.524 . S
C2208 C2209 1.397 . S
C2208 C2213 1.363 . S
C2209 H2180 0.950 . S
C2209 C2208 1.397 . S
C2209 C2210 1.334 . S
C2210 H2181 0.950 . S
C2210 C2209 1.334 . S
C2210 C2211 1.287 . S
C2211 C2210 1.287 . S
C2211 C2212 1.524 . S
C2211 H2214 0.999 . S
C2212 H2182 0.950 . S
C2212 C2211 1.524 . S
C2212 C2213 1.415 . S
C2213 H2183 0.950 . S
C2213 C2208 1.363 . S
C2213 C2212 1.415 . S
H2214 C2211 0.999 . S
H2215 C2196 0.913 . S
H2216 C2234 0.951 . S
H2217 C2236 0.951 . S
H2218 C2238 0.950 . S
H2219 C2239 0.950 . S
H2220 C2241 0.950 . S
H2221 C2244 0.950 . S
H2222 C2245 0.950 . S
H2223 C2247 0.950 . S
H2224 C2248 0.950 1_545 S
H2225 C2249 0.951 . S
H2226 C2251 0.951 . S
H2227 C2253 0.950 . S
H2228 C2254 0.950 . S
H2229 C2256 0.950 . S
H2230 C2259 0.950 . S
H2231 C2260 0.950 . S
H2232 C2262 0.950 . S
H2233 C2263 0.950 1_565 S
C2234 H2216 0.951 . S
C2234 C2235 1.366 . S
C2234 C2236 1.388 . S
C2235 C2234 1.366 . S
C2235 C2239 1.385 . S
C2236 H2217 0.951 . S
C2236 C2234 1.388 . S
C2236 C2237 1.366 . S
C2237 C2236 1.366 . S
C2237 C2238 1.414 . S
C2237 C2240 1.499 . S
C2238 H2218 0.950 . S
C2238 C2237 1.414 . S
C2238 C2239 1.374 . S
C2239 H2219 0.950 . S
C2239 C2235 1.385 . S
C2239 C2238 1.374 . S
C2240 C2237 1.499 . S
C2240 C2241 1.373 . S
C2240 C2242 1.389 . S
C2241 H2220 0.950 . S
C2241 C2240 1.373 . S
C2241 C2257 1.377 1_565 S
C2242 C2240 1.389 . S
C2242 C2243 1.524 . S
C2242 C2256 1.377 1_565 S
C2243 C2242 1.524 . S
C2243 C2244 1.397 . S
C2243 C2248 1.363 . S
C2244 H2221 0.950 . S
C2244 C2243 1.397 . S
C2244 C2245 1.334 . S
C2245 H2222 0.950 . S
C2245 C2244 1.334 . S
C2245 C2246 1.287 . S
C2246 C2245 1.287 . S
C2246 C2247 1.524 . S
C2246 H2265 0.913 . S
C2247 H2223 0.950 . S
C2247 C2246 1.524 . S
C2247 C2248 1.415 . S
C2248 H2224 0.950 1_565 S
C2248 C2243 1.363 . S
C2248 C2247 1.415 . S
C2249 H2225 0.951 . S
C2249 C2250 1.366 . S
C2249 C2251 1.388 . S
C2250 C2249 1.366 . S
C2250 C2254 1.385 . S
C2251 H2226 0.951 . S
C2251 C2249 1.388 . S
C2251 C2252 1.366 . S
C2252 C2251 1.366 . S
C2252 C2253 1.414 . S
C2252 C2255 1.499 . S
C2253 H2227 0.950 . S
C2253 C2252 1.414 . S
C2253 C2254 1.374 . S
C2254 H2228 0.950 . S
C2254 C2250 1.385 . S
C2254 C2253 1.374 . S
C2255 C2252 1.499 . S
C2255 C2256 1.373 . S
C2255 C2257 1.389 . S
C2256 H2229 0.950 . S
C2256 C2242 1.377 1_545 S
C2256 C2255 1.373 . S
C2257 C2241 1.377 1_545 S
C2257 C2255 1.389 . S
C2257 C2258 1.524 . S
C2258 C2257 1.524 . S
C2258 C2259 1.397 . S
C2258 C2263 1.363 . S
C2259 H2230 0.950 . S
C2259 C2258 1.397 . S
C2259 C2260 1.334 . S
C2260 H2231 0.950 . S
C2260 C2259 1.334 . S
C2260 C2261 1.287 . S
C2261 C2260 1.287 . S
C2261 C2262 1.524 . S
C2261 H2264 0.999 . S
C2262 H2232 0.950 . S
C2262 C2261 1.524 . S
C2262 C2263 1.415 . S
C2263 H2233 0.950 1_545 S
C2263 C2258 1.363 . S
C2263 C2262 1.415 . S
H2264 C2261 0.999 . S
H2265 C2246 0.913 . S
H2266 C2284 0.951 . S
H2267 C2286 0.951 . S
H2268 C2288 0.950 . S
H2269 C2289 0.950 . S
H2270 C2291 0.950 . S
H2271 C2294 0.950 . S
H2272 C2295 0.950 . S
H2273 C2297 0.950 . S
H2274 C2298 0.950 . S
H2275 C2299 0.951 . S
H2276 C2301 0.951 . S
H2277 C2303 0.950 . S
H2278 C2304 0.950 . S
H2279 C2306 0.950 . S
H2280 C2309 0.950 . S
H2281 C2310 0.950 . S
H2282 C2312 0.950 . S
H2283 C2313 0.950 . S
C2284 H2266 0.951 . S
C2284 C2285 1.366 . S
C2284 C2286 1.388 . S
C2285 C2284 1.366 . S
C2285 C2289 1.385 . S
C2286 H2267 0.951 . S
C2286 C2284 1.388 . S
C2286 C2287 1.366 . S
C2287 C2286 1.366 . S
C2287 C2288 1.414 . S
C2287 C2290 1.499 . S
C2288 H2268 0.950 . S
C2288 C2287 1.414 . S
C2288 C2289 1.374 . S
C2289 H2269 0.950 . S
C2289 C2285 1.385 . S
C2289 C2288 1.374 . S
C2290 C2287 1.499 . S
C2290 C2291 1.373 . S
C2290 C2292 1.389 . S
C2291 H2270 0.950 . S
C2291 C2290 1.373 . S
C2291 C2307 1.377 1_655 S
C2292 C2290 1.389 . S
C2292 C2293 1.524 . S
C2292 C2306 1.377 1_655 S
C2293 C2292 1.524 . S
C2293 C2294 1.397 . S
C2293 C2298 1.363 1_655 S
C2294 H2271 0.950 . S
C2294 C2293 1.397 . S
C2294 C2295 1.334 . S
C2295 H2272 0.950 . S
C2295 C2294 1.334 . S
C2295 C2296 1.287 . S
C2296 C2295 1.287 . S
C2296 C2297 1.524 1_655 S
C2296 H2315 0.913 . S
C2297 H2273 0.950 . S
C2297 C2296 1.524 1_455 S
C2297 C2298 1.415 . S
C2298 H2274 0.950 . S
C2298 C2293 1.363 1_455 S
C2298 C2297 1.415 . S
C2299 H2275 0.951 . S
C2299 C2300 1.366 . S
C2299 C2301 1.388 . S
C2300 C2299 1.366 . S
C2300 C2304 1.385 . S
C2301 H2276 0.951 . S
C2301 C2299 1.388 . S
C2301 C2302 1.366 . S
C2302 C2301 1.366 . S
C2302 C2303 1.414 . S
C2302 C2305 1.499 . S
C2303 H2277 0.950 . S
C2303 C2302 1.414 . S
C2303 C2304 1.374 . S
C2304 H2278 0.950 . S
C2304 C2300 1.385 . S
C2304 C2303 1.374 . S
C2305 C2302 1.499 . S
C2305 C2306 1.373 . S
C2305 C2307 1.389 . S
C2306 H2279 0.950 . S
C2306 C2292 1.377 1_455 S
C2306 C2305 1.373 . S
C2307 C2291 1.377 1_455 S
C2307 C2305 1.389 . S
C2307 C2308 1.524 . S
C2308 C2307 1.524 . S
C2308 C2309 1.397 . S
C2308 C2313 1.363 1_455 S
C2309 H2280 0.950 . S
C2309 C2308 1.397 . S
C2309 C2310 1.334 . S
C2310 H2281 0.950 . S
C2310 C2309 1.334 . S
C2310 C2311 1.287 . S
C2311 C2310 1.287 . S
C2311 C2312 1.524 1_455 S
C2311 H2314 0.999 . S
C2312 H2282 0.950 . S
C2312 C2311 1.524 1_655 S
C2312 C2313 1.415 . S
C2313 H2283 0.950 . S
C2313 C2308 1.363 1_655 S
C2313 C2312 1.415 . S
H2314 C2311 0.999 . S
H2315 C2296 0.913 . S
H2316 C2334 0.951 . S
H2317 C2336 0.951 . S
H2318 C2338 0.950 . S
H2319 C2339 0.950 . S
H2320 C2341 0.950 . S
H2321 C2344 0.950 . S
H2322 C2345 0.950 . S
H2323 C2347 0.950 . S
H2324 C2348 0.950 . S
H2325 C2349 0.951 . S
H2326 C2351 0.951 . S
H2327 C2353 0.950 . S
H2328 C2354 0.950 . S
H2329 C2356 0.950 . S
H2330 C2359 0.950 . S
H2331 C2360 0.950 . S
H2332 C2362 0.950 . S
H2333 C2363 0.950 . S
C2334 H2316 0.951 . S
C2334 C2335 1.366 . S
C2334 C2336 1.388 . S
C2335 C2334 1.366 . S
C2335 C2339 1.385 . S
C2336 H2317 0.951 . S
C2336 C2334 1.388 . S
C2336 C2337 1.366 . S
C2337 C2336 1.366 . S
C2337 C2338 1.414 . S
C2337 C2340 1.499 . S
C2338 H2318 0.950 . S
C2338 C2337 1.414 . S
C2338 C2339 1.374 . S
C2339 H2319 0.950 . S
C2339 C2335 1.385 . S
C2339 C2338 1.374 . S
C2340 C2337 1.499 . S
C2340 C2341 1.373 . S
C2340 C2342 1.389 . S
C2341 H2320 0.950 . S
C2341 C2340 1.373 . S
C2341 C2357 1.377 1_565 S
C2342 C2340 1.389 . S
C2342 C2343 1.524 . S
C2342 C2356 1.377 1_565 S
C2343 C2342 1.524 . S
C2343 C2344 1.397 . S
C2343 C2348 1.363 . S
C2344 H2321 0.950 . S
C2344 C2343 1.397 . S
C2344 C2345 1.334 . S
C2345 H2322 0.950 . S
C2345 C2344 1.334 . S
C2345 C2346 1.287 . S
C2346 C2345 1.287 . S
C2346 C2347 1.524 . S
C2346 H2365 0.913 . S
C2347 H2323 0.950 . S
C2347 C2346 1.524 . S
C2347 C2348 1.415 . S
C2348 H2324 0.950 . S
C2348 C2343 1.363 . S
C2348 C2347 1.415 . S
C2349 H2325 0.951 . S
C2349 C2350 1.366 . S
C2349 C2351 1.388 . S
C2350 C2349 1.366 . S
C2350 C2354 1.385 . S
C2351 H2326 0.951 . S
C2351 C2349 1.388 . S
C2351 C2352 1.366 . S
C2352 C2351 1.366 . S
C2352 C2353 1.414 . S
C2352 C2355 1.499 . S
C2353 H2327 0.950 . S
C2353 C2352 1.414 . S
C2353 C2354 1.374 . S
C2354 H2328 0.950 . S
C2354 C2350 1.385 . S
C2354 C2353 1.374 . S
C2355 C2352 1.499 . S
C2355 C2356 1.373 . S
C2355 C2357 1.389 . S
C2356 H2329 0.950 . S
C2356 C2342 1.377 1_545 S
C2356 C2355 1.373 . S
C2357 C2341 1.377 1_545 S
C2357 C2355 1.389 . S
C2357 C2358 1.524 . S
C2358 C2357 1.524 . S
C2358 C2359 1.397 . S
C2358 C2363 1.363 . S
C2359 H2330 0.950 . S
C2359 C2358 1.397 . S
C2359 C2360 1.334 . S
C2360 H2331 0.950 . S
C2360 C2359 1.334 . S
C2360 C2361 1.287 . S
C2361 C2360 1.287 . S
C2361 C2362 1.524 . S
C2361 H2364 0.999 . S
C2362 H2332 0.950 . S
C2362 C2361 1.524 . S
C2362 C2363 1.415 . S
C2363 H2333 0.950 . S
C2363 C2358 1.363 . S
C2363 C2362 1.415 . S
H2364 C2361 0.999 . S
H2365 C2346 0.913 . S
H2366 C2384 0.951 . S
H2367 C2386 0.951 . S
H2368 C2388 0.950 . S
H2369 C2389 0.950 . S
H2370 C2391 0.950 . S
H2371 C2394 0.950 . S
H2372 C2395 0.950 . S
H2373 C2397 0.950 . S
H2374 C2398 0.950 . S
H2375 C2399 0.951 . S
H2376 C2401 0.951 . S
H2377 C2403 0.950 . S
H2378 C2404 0.950 . S
H2379 C2406 0.950 . S
H2380 C2409 0.950 . S
H2381 C2410 0.950 . S
H2382 C2412 0.950 . S
H2383 C2413 0.950 . S
C2384 H2366 0.951 . S
C2384 C2385 1.366 . S
C2384 C2386 1.388 . S
C2385 C2384 1.366 . S
C2385 C2389 1.385 . S
C2386 H2367 0.951 . S
C2386 C2384 1.388 . S
C2386 C2387 1.366 . S
C2387 C2386 1.366 . S
C2387 C2388 1.414 . S
C2387 C2390 1.499 . S
C2388 H2368 0.950 . S
C2388 C2387 1.414 . S
C2388 C2389 1.374 . S
C2389 H2369 0.950 . S
C2389 C2385 1.385 . S
C2389 C2388 1.374 . S
C2390 C2387 1.499 . S
C2390 C2391 1.373 . S
C2390 C2392 1.389 . S
C2391 H2370 0.950 . S
C2391 C2390 1.373 . S
C2391 C2407 1.377 1_655 S
C2392 C2390 1.389 . S
C2392 C2393 1.524 . S
C2392 C2406 1.377 1_655 S
C2393 C2392 1.524 . S
C2393 C2394 1.397 . S
C2393 C2398 1.363 . S
C2394 H2371 0.950 . S
C2394 C2393 1.397 . S
C2394 C2395 1.334 . S
C2395 H2372 0.950 . S
C2395 C2394 1.334 . S
C2395 C2396 1.287 . S
C2396 C2395 1.287 . S
C2396 C2397 1.524 . S
C2396 H2415 0.913 . S
C2397 H2373 0.950 . S
C2397 C2396 1.524 . S
C2397 C2398 1.415 . S
C2398 H2374 0.950 . S
C2398 C2393 1.363 . S
C2398 C2397 1.415 . S
C2399 H2375 0.951 . S
C2399 C2400 1.366 . S
C2399 C2401 1.388 . S
C2400 C2399 1.366 . S
C2400 C2404 1.385 . S
C2401 H2376 0.951 . S
C2401 C2399 1.388 . S
C2401 C2402 1.366 . S
C2402 C2401 1.366 . S
C2402 C2403 1.414 . S
C2402 C2405 1.499 . S
C2403 H2377 0.950 . S
C2403 C2402 1.414 . S
C2403 C2404 1.374 . S
C2404 H2378 0.950 . S
C2404 C2400 1.385 . S
C2404 C2403 1.374 . S
C2405 C2402 1.499 . S
C2405 C2406 1.373 . S
C2405 C2407 1.389 . S
C2406 H2379 0.950 . S
C2406 C2392 1.377 1_455 S
C2406 C2405 1.373 . S
C2407 C2391 1.377 1_455 S
C2407 C2405 1.389 . S
C2407 C2408 1.524 . S
C2408 C2407 1.524 . S
C2408 C2409 1.397 . S
C2408 C2413 1.363 . S
C2409 H2380 0.950 . S
C2409 C2408 1.397 . S
C2409 C2410 1.334 . S
C2410 H2381 0.950 . S
C2410 C2409 1.334 . S
C2410 C2411 1.287 . S
C2411 C2410 1.287 . S
C2411 C2412 1.524 . S
C2411 H2414 0.999 . S
C2412 H2382 0.950 . S
C2412 C2411 1.524 . S
C2412 C2413 1.415 . S
C2413 H2383 0.950 . S
C2413 C2408 1.363 . S
C2413 C2412 1.415 . S
H2414 C2411 0.999 . S
H2415 C2396 0.913 . S
H2416 C2434 0.951 . S
H2417 C2436 0.951 . S
H2418 C2438 0.950 . S
H2419 C2439 0.950 . S
H2420 C2441 0.950 . S
H2421 C2444 0.950 . S
H2422 C2445 0.950 . S
H2423 C2447 0.950 . S
H2424 C2448 0.950 . S
H2425 C2449 0.951 . S
H2426 C2451 0.951 . S
H2427 C2453 0.950 . S
H2428 C2454 0.950 . S
H2429 C2456 0.950 . S
H2430 C2459 0.950 . S
H2431 C2460 0.950 . S
H2432 C2462 0.950 . S
H2433 C2463 0.950 . S
C2434 H2416 0.951 . S
C2434 C2435 1.366 . S
C2434 C2436 1.388 . S
C2435 C2434 1.366 . S
C2435 C2439 1.385 . S
C2436 H2417 0.951 . S
C2436 C2434 1.388 . S
C2436 C2437 1.366 . S
C2437 C2436 1.366 . S
C2437 C2438 1.414 . S
C2437 C2440 1.499 . S
C2438 H2418 0.950 . S
C2438 C2437 1.414 . S
C2438 C2439 1.374 . S
C2439 H2419 0.950 . S
C2439 C2435 1.385 . S
C2439 C2438 1.374 . S
C2440 C2437 1.499 . S
C2440 C2441 1.373 . S
C2440 C2442 1.389 . S
C2441 H2420 0.950 . S
C2441 C2440 1.373 . S
C2441 C2457 1.377 . S
C2442 C2440 1.389 . S
C2442 C2443 1.524 . S
C2442 C2456 1.377 . S
C2443 C2442 1.524 . S
C2443 C2444 1.397 . S
C2443 C2448 1.363 . S
C2444 H2421 0.950 . S
C2444 C2443 1.397 . S
C2444 C2445 1.334 . S
C2445 H2422 0.950 . S
C2445 C2444 1.334 . S
C2445 C2446 1.287 . S
C2446 C2445 1.287 . S
C2446 C2447 1.524 . S
C2446 H2465 0.913 . S
C2447 H2423 0.950 . S
C2447 C2446 1.524 . S
C2447 C2448 1.415 . S
C2448 H2424 0.950 . S
C2448 C2443 1.363 . S
C2448 C2447 1.415 . S
C2449 H2425 0.951 . S
C2449 C2450 1.366 . S
C2449 C2451 1.388 . S
C2450 C2449 1.366 . S
C2450 C2454 1.385 . S
C2451 H2426 0.951 . S
C2451 C2449 1.388 . S
C2451 C2452 1.366 . S
C2452 C2451 1.366 . S
C2452 C2453 1.414 . S
C2452 C2455 1.499 . S
C2453 H2427 0.950 . S
C2453 C2452 1.414 . S
C2453 C2454 1.374 . S
C2454 H2428 0.950 . S
C2454 C2450 1.385 . S
C2454 C2453 1.374 . S
C2455 C2452 1.499 . S
C2455 C2456 1.373 . S
C2455 C2457 1.389 . S
C2456 H2429 0.950 . S
C2456 C2442 1.377 . S
C2456 C2455 1.373 . S
C2457 C2441 1.377 . S
C2457 C2455 1.389 . S
C2457 C2458 1.524 . S
C2458 C2457 1.524 . S
C2458 C2459 1.397 . S
C2458 C2463 1.363 . S
C2459 H2430 0.950 . S
C2459 C2458 1.397 . S
C2459 C2460 1.334 . S
C2460 H2431 0.950 . S
C2460 C2459 1.334 . S
C2460 C2461 1.287 . S
C2461 C2460 1.287 . S
C2461 C2462 1.524 . S
C2461 H2464 0.999 . S
C2462 H2432 0.950 . S
C2462 C2461 1.524 . S
C2462 C2463 1.415 . S
C2463 H2433 0.950 . S
C2463 C2458 1.363 . S
C2463 C2462 1.415 . S
H2464 C2461 0.999 . S
H2465 C2446 0.913 . S
H2466 C2484 0.951 . S
H2467 C2486 0.951 . S
H2468 C2488 0.950 . S
H2469 C2489 0.950 . S
H2470 C2491 0.950 . S
H2471 C2494 0.950 . S
H2472 C2495 0.950 . S
H2473 C2497 0.950 . S
H2474 C2498 0.950 . S
H2475 C2499 0.951 . S
H2476 C2501 0.951 . S
H2477 C2503 0.950 . S
H2478 C2504 0.950 . S
H2479 C2506 0.950 . S
H2480 C2509 0.950 . S
H2481 C2510 0.950 . S
H2482 C2512 0.950 . S
H2483 C2513 0.950 . S
C2484 H2466 0.951 . S
C2484 C2485 1.366 . S
C2484 C2486 1.388 . S
C2485 C2484 1.366 . S
C2485 C2489 1.385 . S
C2486 H2467 0.951 . S
C2486 C2484 1.388 . S
C2486 C2487 1.366 . S
C2487 C2486 1.366 . S
C2487 C2488 1.414 . S
C2487 C2490 1.499 . S
C2488 H2468 0.950 . S
C2488 C2487 1.414 . S
C2488 C2489 1.374 . S
C2489 H2469 0.950 . S
C2489 C2485 1.385 . S
C2489 C2488 1.374 . S
C2490 C2487 1.499 . S
C2490 C2491 1.373 . S
C2490 C2492 1.389 . S
C2491 H2470 0.950 . S
C2491 C2490 1.373 . S
C2491 C2507 1.377 . S
C2492 C2490 1.389 . S
C2492 C2493 1.524 . S
C2492 C2506 1.377 . S
C2493 C2492 1.524 . S
C2493 C2494 1.397 . S
C2493 C2498 1.363 . S
C2494 H2471 0.950 . S
C2494 C2493 1.397 . S
C2494 C2495 1.334 . S
C2495 H2472 0.950 . S
C2495 C2494 1.334 . S
C2495 C2496 1.287 . S
C2496 C2495 1.287 . S
C2496 C2497 1.524 . S
C2496 H2515 0.913 . S
C2497 H2473 0.950 . S
C2497 C2496 1.524 . S
C2497 C2498 1.415 . S
C2498 H2474 0.950 . S
C2498 C2493 1.363 . S
C2498 C2497 1.415 . S
C2499 H2475 0.951 . S
C2499 C2500 1.366 . S
C2499 C2501 1.388 . S
C2500 C2499 1.366 . S
C2500 C2504 1.385 . S
C2501 H2476 0.951 . S
C2501 C2499 1.388 . S
C2501 C2502 1.366 . S
C2502 C2501 1.366 . S
C2502 C2503 1.414 . S
C2502 C2505 1.499 . S
C2503 H2477 0.950 . S
C2503 C2502 1.414 . S
C2503 C2504 1.374 . S
C2504 H2478 0.950 . S
C2504 C2500 1.385 . S
C2504 C2503 1.374 . S
C2505 C2502 1.499 . S
C2505 C2506 1.373 . S
C2505 C2507 1.389 . S
C2506 H2479 0.950 . S
C2506 C2492 1.377 . S
C2506 C2505 1.373 . S
C2507 C2491 1.377 . S
C2507 C2505 1.389 . S
C2507 C2508 1.524 . S
C2508 C2507 1.524 . S
C2508 C2509 1.397 . S
C2508 C2513 1.363 . S
C2509 H2480 0.950 . S
C2509 C2508 1.397 . S
C2509 C2510 1.334 . S
C2510 H2481 0.950 . S
C2510 C2509 1.334 . S
C2510 C2511 1.287 . S
C2511 C2510 1.287 . S
C2511 C2512 1.524 . S
C2511 H2514 0.999 . S
C2512 H2482 0.950 . S
C2512 C2511 1.524 . S
C2512 C2513 1.415 . S
C2513 H2483 0.950 . S
C2513 C2508 1.363 . S
C2513 C2512 1.415 . S
H2514 C2511 0.999 . S
H2515 C2496 0.913 . S
H2516 C2534 0.951 . S
H2517 C2536 0.951 . S
H2518 C2538 0.950 . S
H2519 C2539 0.950 . S
H2520 C2541 0.950 . S
H2521 C2544 0.950 . S
H2522 C2545 0.950 . S
H2523 C2547 0.950 . S
H2524 C2548 0.950 . S
H2525 C2549 0.951 . S
H2526 C2551 0.951 . S
H2527 C2553 0.950 . S
H2528 C2554 0.950 . S
H2529 C2556 0.950 . S
H2530 C2559 0.950 . S
H2531 C2560 0.950 . S
H2532 C2562 0.950 . S
H2533 C2563 0.950 . S
C2534 H2516 0.951 . S
C2534 C2535 1.366 . S
C2534 C2536 1.388 . S
C2535 C2534 1.366 . S
C2535 C2539 1.385 . S
C2536 H2517 0.951 . S
C2536 C2534 1.388 . S
C2536 C2537 1.366 . S
C2537 C2536 1.366 . S
C2537 C2538 1.414 . S
C2537 C2540 1.499 . S
C2538 H2518 0.950 . S
C2538 C2537 1.414 . S
C2538 C2539 1.374 . S
C2539 H2519 0.950 . S
C2539 C2535 1.385 . S
C2539 C2538 1.374 . S
C2540 C2537 1.499 . S
C2540 C2541 1.373 . S
C2540 C2542 1.389 . S
C2541 H2520 0.950 . S
C2541 C2540 1.373 . S
C2541 C2557 1.377 . S
C2542 C2540 1.389 . S
C2542 C2543 1.524 . S
C2542 C2556 1.377 . S
C2543 C2542 1.524 . S
C2543 C2544 1.397 . S
C2543 C2548 1.363 . S
C2544 H2521 0.950 . S
C2544 C2543 1.397 . S
C2544 C2545 1.334 . S
C2545 H2522 0.950 . S
C2545 C2544 1.334 . S
C2545 C2546 1.287 . S
C2546 C2545 1.287 . S
C2546 C2547 1.524 . S
C2546 H2565 0.913 . S
C2547 H2523 0.950 . S
C2547 C2546 1.524 . S
C2547 C2548 1.415 . S
C2548 H2524 0.950 . S
C2548 C2543 1.363 . S
C2548 C2547 1.415 . S
C2549 H2525 0.951 . S
C2549 C2550 1.366 . S
C2549 C2551 1.388 . S
C2550 C2549 1.366 . S
C2550 C2554 1.385 . S
C2551 H2526 0.951 . S
C2551 C2549 1.388 . S
C2551 C2552 1.366 . S
C2552 C2551 1.366 . S
C2552 C2553 1.414 . S
C2552 C2555 1.499 . S
C2553 H2527 0.950 . S
C2553 C2552 1.414 . S
C2553 C2554 1.374 . S
C2554 H2528 0.950 . S
C2554 C2550 1.385 . S
C2554 C2553 1.374 . S
C2555 C2552 1.499 . S
C2555 C2556 1.373 . S
C2555 C2557 1.389 . S
C2556 H2529 0.950 . S
C2556 C2542 1.377 . S
C2556 C2555 1.373 . S
C2557 C2541 1.377 . S
C2557 C2555 1.389 . S
C2557 C2558 1.524 . S
C2558 C2557 1.524 . S
C2558 C2559 1.397 . S
C2558 C2563 1.363 . S
C2559 H2530 0.950 . S
C2559 C2558 1.397 . S
C2559 C2560 1.334 . S
C2560 H2531 0.950 . S
C2560 C2559 1.334 . S
C2560 C2561 1.287 . S
C2561 C2560 1.287 . S
C2561 C2562 1.524 . S
C2561 H2564 0.999 . S
C2562 H2532 0.950 . S
C2562 C2561 1.524 . S
C2562 C2563 1.415 . S
C2563 H2533 0.950 . S
C2563 C2558 1.363 . S
C2563 C2562 1.415 . S
H2564 C2561 0.999 . S
H2565 C2546 0.913 . S
H2566 C2584 0.951 . S
H2567 C2586 0.951 . S
H2568 C2588 0.950 . S
H2569 C2589 0.950 . S
H2570 C2591 0.950 . S
H2571 C2594 0.950 . S
H2572 C2595 0.950 . S
H2573 C2597 0.950 . S
H2574 C2598 0.950 . S
H2575 C2599 0.951 . S
H2576 C2601 0.951 . S
H2577 C2603 0.950 . S
H2578 C2604 0.950 . S
H2579 C2606 0.950 . S
H2580 C2609 0.950 . S
H2581 C2610 0.950 . S
H2582 C2612 0.950 . S
H2583 C2613 0.950 . S
C2584 H2566 0.951 . S
C2584 C2585 1.366 . S
C2584 C2586 1.388 . S
C2585 C2584 1.366 . S
C2585 C2589 1.385 . S
C2586 H2567 0.951 . S
C2586 C2584 1.388 . S
C2586 C2587 1.366 . S
C2587 C2586 1.366 . S
C2587 C2588 1.414 . S
C2587 C2590 1.499 . S
C2588 H2568 0.950 . S
C2588 C2587 1.414 . S
C2588 C2589 1.374 . S
C2589 H2569 0.950 . S
C2589 C2585 1.385 . S
C2589 C2588 1.374 . S
C2590 C2587 1.499 . S
C2590 C2591 1.373 . S
C2590 C2592 1.389 . S
C2591 H2570 0.950 . S
C2591 C2590 1.373 . S
C2591 C2607 1.377 . S
C2592 C2590 1.389 . S
C2592 C2593 1.524 . S
C2592 C2606 1.377 . S
C2593 C2592 1.524 . S
C2593 C2594 1.397 . S
C2593 C2598 1.363 . S
C2594 H2571 0.950 . S
C2594 C2593 1.397 . S
C2594 C2595 1.334 . S
C2595 H2572 0.950 . S
C2595 C2594 1.334 . S
C2595 C2596 1.287 . S
C2596 C2595 1.287 . S
C2596 C2597 1.524 . S
C2596 H2615 0.913 . S
C2597 H2573 0.950 . S
C2597 C2596 1.524 . S
C2597 C2598 1.415 . S
C2598 H2574 0.950 . S
C2598 C2593 1.363 . S
C2598 C2597 1.415 . S
C2599 H2575 0.951 . S
C2599 C2600 1.366 . S
C2599 C2601 1.388 . S
C2600 C2599 1.366 . S
C2600 C2604 1.385 . S
C2601 H2576 0.951 . S
C2601 C2599 1.388 . S
C2601 C2602 1.366 . S
C2602 C2601 1.366 . S
C2602 C2603 1.414 . S
C2602 C2605 1.499 . S
C2603 H2577 0.950 . S
C2603 C2602 1.414 . S
C2603 C2604 1.374 . S
C2604 H2578 0.950 . S
C2604 C2600 1.385 . S
C2604 C2603 1.374 . S
C2605 C2602 1.499 . S
C2605 C2606 1.373 . S
C2605 C2607 1.389 . S
C2606 H2579 0.950 . S
C2606 C2592 1.377 . S
C2606 C2605 1.373 . S
C2607 C2591 1.377 . S
C2607 C2605 1.389 . S
C2607 C2608 1.524 . S
C2608 C2607 1.524 . S
C2608 C2609 1.397 . S
C2608 C2613 1.363 . S
C2609 H2580 0.950 . S
C2609 C2608 1.397 . S
C2609 C2610 1.334 . S
C2610 H2581 0.950 . S
C2610 C2609 1.334 . S
C2610 C2611 1.287 . S
C2611 C2610 1.287 . S
C2611 C2612 1.524 . S
C2611 H2614 0.999 . S
C2612 H2582 0.950 . S
C2612 C2611 1.524 . S
C2612 C2613 1.415 . S
C2613 H2583 0.950 . S
C2613 C2608 1.363 . S
C2613 C2612 1.415 . S
H2614 C2611 0.999 . S
H2615 C2596 0.913 . S
H2616 C2634 0.951 . S
H2617 C2636 0.951 . S
H2618 C2638 0.950 . S
H2619 C2639 0.950 . S
H2620 C2641 0.950 . S
H2621 C2644 0.950 . S
H2622 C2645 0.950 . S
H2623 C2647 0.950 . S
H2624 C2648 0.950 . S
H2625 C2649 0.951 . S
H2626 C2651 0.951 . S
H2627 C2653 0.950 . S
H2628 C2654 0.950 . S
H2629 C2656 0.950 . S
H2630 C2659 0.950 . S
H2631 C2660 0.950 . S
H2632 C2662 0.950 . S
H2633 C2663 0.950 . S
C2634 H2616 0.951 . S
C2634 C2635 1.366 . S
C2634 C2636 1.388 . S
C2635 C2634 1.366 . S
C2635 C2639 1.385 . S
C2636 H2617 0.951 . S
C2636 C2634 1.388 . S
C2636 C2637 1.366 . S
C2637 C2636 1.366 . S
C2637 C2638 1.414 . S
C2637 C2640 1.499 . S
C2638 H2618 0.950 . S
C2638 C2637 1.414 . S
C2638 C2639 1.374 . S
C2639 H2619 0.950 . S
C2639 C2635 1.385 . S
C2639 C2638 1.374 . S
C2640 C2637 1.499 . S
C2640 C2641 1.373 . S
C2640 C2642 1.389 . S
C2641 H2620 0.950 . S
C2641 C2640 1.373 . S
C2641 C2657 1.377 . S
C2642 C2640 1.389 . S
C2642 C2643 1.524 . S
C2642 C2656 1.377 . S
C2643 C2642 1.524 . S
C2643 C2644 1.397 . S
C2643 C2648 1.363 . S
C2644 H2621 0.950 . S
C2644 C2643 1.397 . S
C2644 C2645 1.334 . S
C2645 H2622 0.950 . S
C2645 C2644 1.334 . S
C2645 C2646 1.287 . S
C2646 C2645 1.287 . S
C2646 C2647 1.524 . S
C2646 H2665 0.913 . S
C2647 H2623 0.950 . S
C2647 C2646 1.524 . S
C2647 C2648 1.415 . S
C2648 H2624 0.950 . S
C2648 C2643 1.363 . S
C2648 C2647 1.415 . S
C2649 H2625 0.951 . S
C2649 C2650 1.366 . S
C2649 C2651 1.388 . S
C2650 C2649 1.366 . S
C2650 C2654 1.385 . S
C2651 H2626 0.951 . S
C2651 C2649 1.388 . S
C2651 C2652 1.366 . S
C2652 C2651 1.366 . S
C2652 C2653 1.414 . S
C2652 C2655 1.499 . S
C2653 H2627 0.950 . S
C2653 C2652 1.414 . S
C2653 C2654 1.374 . S
C2654 H2628 0.950 . S
C2654 C2650 1.385 . S
C2654 C2653 1.374 . S
C2655 C2652 1.499 . S
C2655 C2656 1.373 . S
C2655 C2657 1.389 . S
C2656 H2629 0.950 . S
C2656 C2642 1.377 . S
C2656 C2655 1.373 . S
C2657 C2641 1.377 . S
C2657 C2655 1.389 . S
C2657 C2658 1.524 . S
C2658 C2657 1.524 . S
C2658 C2659 1.397 . S
C2658 C2663 1.363 . S
C2659 H2630 0.950 . S
C2659 C2658 1.397 . S
C2659 C2660 1.334 . S
C2660 H2631 0.950 . S
C2660 C2659 1.334 . S
C2660 C2661 1.287 . S
C2661 C2660 1.287 . S
C2661 C2662 1.524 . S
C2661 H2664 0.999 . S
C2662 H2632 0.950 . S
C2662 C2661 1.524 . S
C2662 C2663 1.415 . S
C2663 H2633 0.950 . S
C2663 C2658 1.363 . S
C2663 C2662 1.415 . S
H2664 C2661 0.999 . S
H2665 C2646 0.913 . S
H2666 C2684 0.951 . S
H2667 C2686 0.951 . S
H2668 C2688 0.950 . S
H2669 C2689 0.950 . S
H2670 C2691 0.950 . S
H2671 C2694 0.950 . S
H2672 C2695 0.950 . S
H2673 C2697 0.950 . S
H2674 C2698 0.950 . S
H2675 C2699 0.951 . S
H2676 C2701 0.951 . S
H2677 C2703 0.950 . S
H2678 C2704 0.950 . S
H2679 C2706 0.950 . S
H2680 C2709 0.950 . S
H2681 C2710 0.950 . S
H2682 C2712 0.950 . S
H2683 C2713 0.950 . S
C2684 H2666 0.951 . S
C2684 C2685 1.366 . S
C2684 C2686 1.388 . S
C2685 C2684 1.366 . S
C2685 C2689 1.385 . S
C2686 H2667 0.951 . S
C2686 C2684 1.388 . S
C2686 C2687 1.366 . S
C2687 C2686 1.366 . S
C2687 C2688 1.414 . S
C2687 C2690 1.499 . S
C2688 H2668 0.950 . S
C2688 C2687 1.414 . S
C2688 C2689 1.374 . S
C2689 H2669 0.950 . S
C2689 C2685 1.385 . S
C2689 C2688 1.374 . S
C2690 C2687 1.499 . S
C2690 C2691 1.373 . S
C2690 C2692 1.389 . S
C2691 H2670 0.950 . S
C2691 C2690 1.373 . S
C2691 C2707 1.377 . S
C2692 C2690 1.389 . S
C2692 C2693 1.524 . S
C2692 C2706 1.377 . S
C2693 C2692 1.524 . S
C2693 C2694 1.397 . S
C2693 C2698 1.363 . S
C2694 H2671 0.950 . S
C2694 C2693 1.397 . S
C2694 C2695 1.334 . S
C2695 H2672 0.950 . S
C2695 C2694 1.334 . S
C2695 C2696 1.287 . S
C2696 C2695 1.287 . S
C2696 C2697 1.524 . S
C2696 H2715 0.913 . S
C2697 H2673 0.950 . S
C2697 C2696 1.524 . S
C2697 C2698 1.415 . S
C2698 H2674 0.950 . S
C2698 C2693 1.363 . S
C2698 C2697 1.415 . S
C2699 H2675 0.951 . S
C2699 C2700 1.366 . S
C2699 C2701 1.388 . S
C2700 C2699 1.366 . S
C2700 C2704 1.385 . S
C2701 H2676 0.951 . S
C2701 C2699 1.388 . S
C2701 C2702 1.366 . S
C2702 C2701 1.366 . S
C2702 C2703 1.414 . S
C2702 C2705 1.499 . S
C2703 H2677 0.950 . S
C2703 C2702 1.414 . S
C2703 C2704 1.374 . S
C2704 H2678 0.950 . S
C2704 C2700 1.385 . S
C2704 C2703 1.374 . S
C2705 C2702 1.499 . S
C2705 C2706 1.373 . S
C2705 C2707 1.389 . S
C2706 H2679 0.950 . S
C2706 C2692 1.377 . S
C2706 C2705 1.373 . S
C2707 C2691 1.377 . S
C2707 C2705 1.389 . S
C2707 C2708 1.524 . S
C2708 C2707 1.524 . S
C2708 C2709 1.397 . S
C2708 C2713 1.363 . S
C2709 H2680 0.950 . S
C2709 C2708 1.397 . S
C2709 C2710 1.334 . S
C2710 H2681 0.950 . S
C2710 C2709 1.334 . S
C2710 C2711 1.287 . S
C2711 C2710 1.287 . S
C2711 C2712 1.524 . S
C2711 H2714 0.999 . S
C2712 H2682 0.950 . S
C2712 C2711 1.524 . S
C2712 C2713 1.415 . S
C2713 H2683 0.950 . S
C2713 C2708 1.363 . S
C2713 C2712 1.415 . S
H2714 C2711 0.999 . S
H2715 C2696 0.913 . S
H2716 C2734 0.951 . S
H2717 C2736 0.951 . S
H2718 C2738 0.950 . S
H2719 C2739 0.950 . S
H2720 C2741 0.950 . S
H2721 C2744 0.950 . S
H2722 C2745 0.950 . S
H2723 C2747 0.950 . S
H2724 C2748 0.950 . S
H2725 C2749 0.951 . S
H2726 C2751 0.951 . S
H2727 C2753 0.950 . S
H2728 C2754 0.950 . S
H2729 C2756 0.950 . S
H2730 C2759 0.950 . S
H2731 C2760 0.950 . S
H2732 C2762 0.950 . S
H2733 C2763 0.950 . S
C2734 H2716 0.951 . S
C2734 C2735 1.366 . S
C2734 C2736 1.388 . S
C2735 C2734 1.366 . S
C2735 C2739 1.385 . S
C2736 H2717 0.951 . S
C2736 C2734 1.388 . S
C2736 C2737 1.366 . S
C2737 C2736 1.366 . S
C2737 C2738 1.414 . S
C2737 C2740 1.499 . S
C2738 H2718 0.950 . S
C2738 C2737 1.414 . S
C2738 C2739 1.374 . S
C2739 H2719 0.950 . S
C2739 C2735 1.385 . S
C2739 C2738 1.374 . S
C2740 C2737 1.499 . S
C2740 C2741 1.373 . S
C2740 C2742 1.389 . S
C2741 H2720 0.950 . S
C2741 C2740 1.373 . S
C2741 C2757 1.377 . S
C2742 C2740 1.389 . S
C2742 C2743 1.524 . S
C2742 C2756 1.377 . S
C2743 C2742 1.524 . S
C2743 C2744 1.397 . S
C2743 C2748 1.363 . S
C2744 H2721 0.950 . S
C2744 C2743 1.397 . S
C2744 C2745 1.334 . S
C2745 H2722 0.950 . S
C2745 C2744 1.334 . S
C2745 C2746 1.287 . S
C2746 C2745 1.287 . S
C2746 C2747 1.524 . S
C2746 H2765 0.913 . S
C2747 H2723 0.950 . S
C2747 C2746 1.524 . S
C2747 C2748 1.415 . S
C2748 H2724 0.950 . S
C2748 C2743 1.363 . S
C2748 C2747 1.415 . S
C2749 H2725 0.951 . S
C2749 C2750 1.366 . S
C2749 C2751 1.388 . S
C2750 C2749 1.366 . S
C2750 C2754 1.385 . S
C2751 H2726 0.951 . S
C2751 C2749 1.388 . S
C2751 C2752 1.366 . S
C2752 C2751 1.366 . S
C2752 C2753 1.414 . S
C2752 C2755 1.499 . S
C2753 H2727 0.950 . S
C2753 C2752 1.414 . S
C2753 C2754 1.374 . S
C2754 H2728 0.950 . S
C2754 C2750 1.385 . S
C2754 C2753 1.374 . S
C2755 C2752 1.499 . S
C2755 C2756 1.373 . S
C2755 C2757 1.389 . S
C2756 H2729 0.950 . S
C2756 C2742 1.377 . S
C2756 C2755 1.373 . S
C2757 C2741 1.377 . S
C2757 C2755 1.389 . S
C2757 C2758 1.524 . S
C2758 C2757 1.524 . S
C2758 C2759 1.397 . S
C2758 C2763 1.363 . S
C2759 H2730 0.950 . S
C2759 C2758 1.397 . S
C2759 C2760 1.334 . S
C2760 H2731 0.950 . S
C2760 C2759 1.334 . S
C2760 C2761 1.287 . S
C2761 C2760 1.287 . S
C2761 C2762 1.524 . S
C2761 H2764 0.999 . S
C2762 H2732 0.950 . S
C2762 C2761 1.524 . S
C2762 C2763 1.415 . S
C2763 H2733 0.950 . S
C2763 C2758 1.363 . S
C2763 C2762 1.415 . S
H2764 C2761 0.999 . S
H2765 C2746 0.913 . S
H2766 C2784 0.951 . S
H2767 C2786 0.951 . S
H2768 C2788 0.950 . S
H2769 C2789 0.950 . S
H2770 C2791 0.950 . S
H2771 C2794 0.950 . S
H2772 C2795 0.950 . S
H2773 C2797 0.950 . S
H2774 C2798 0.950 . S
H2775 C2799 0.951 . S
H2776 C2801 0.951 . S
H2777 C2803 0.950 . S
H2778 C2804 0.950 . S
H2779 C2806 0.950 . S
H2780 C2809 0.950 . S
H2781 C2810 0.950 . S
H2782 C2812 0.950 . S
H2783 C2813 0.950 . S
C2784 H2766 0.951 . S
C2784 C2785 1.366 . S
C2784 C2786 1.388 . S
C2785 C2784 1.366 . S
C2785 C2789 1.385 . S
C2786 H2767 0.951 . S
C2786 C2784 1.388 . S
C2786 C2787 1.366 . S
C2787 C2786 1.366 . S
C2787 C2788 1.414 . S
C2787 C2790 1.499 . S
C2788 H2768 0.950 . S
C2788 C2787 1.414 . S
C2788 C2789 1.374 . S
C2789 H2769 0.950 . S
C2789 C2785 1.385 . S
C2789 C2788 1.374 . S
C2790 C2787 1.499 . S
C2790 C2791 1.373 . S
C2790 C2792 1.389 . S
C2791 H2770 0.950 . S
C2791 C2790 1.373 . S
C2791 C2807 1.377 . S
C2792 C2790 1.389 . S
C2792 C2793 1.524 . S
C2792 C2806 1.377 . S
C2793 C2792 1.524 . S
C2793 C2794 1.397 . S
C2793 C2798 1.363 . S
C2794 H2771 0.950 . S
C2794 C2793 1.397 . S
C2794 C2795 1.334 . S
C2795 H2772 0.950 . S
C2795 C2794 1.334 . S
C2795 C2796 1.287 . S
C2796 C2795 1.287 . S
C2796 C2797 1.524 . S
C2796 H2815 0.913 . S
C2797 H2773 0.950 . S
C2797 C2796 1.524 . S
C2797 C2798 1.415 . S
C2798 H2774 0.950 . S
C2798 C2793 1.363 . S
C2798 C2797 1.415 . S
C2799 H2775 0.951 . S
C2799 C2800 1.366 . S
C2799 C2801 1.388 . S
C2800 C2799 1.366 . S
C2800 C2804 1.385 . S
C2801 H2776 0.951 . S
C2801 C2799 1.388 . S
C2801 C2802 1.366 . S
C2802 C2801 1.366 . S
C2802 C2803 1.414 . S
C2802 C2805 1.499 . S
C2803 H2777 0.950 . S
C2803 C2802 1.414 . S
C2803 C2804 1.374 . S
C2804 H2778 0.950 . S
C2804 C2800 1.385 . S
C2804 C2803 1.374 . S
C2805 C2802 1.499 . S
C2805 C2806 1.373 . S
C2805 C2807 1.389 . S
C2806 H2779 0.950 . S
C2806 C2792 1.377 . S
C2806 C2805 1.373 . S
C2807 C2791 1.377 . S
C2807 C2805 1.389 . S
C2807 C2808 1.524 . S
C2808 C2807 1.524 . S
C2808 C2809 1.397 . S
C2808 C2813 1.363 . S
C2809 H2780 0.950 . S
C2809 C2808 1.397 . S
C2809 C2810 1.334 . S
C2810 H2781 0.950 . S
C2810 C2809 1.334 . S
C2810 C2811 1.287 . S
C2811 C2810 1.287 . S
C2811 C2812 1.524 . S
C2811 H2814 0.999 . S
C2812 H2782 0.950 . S
C2812 C2811 1.524 . S
C2812 C2813 1.415 . S
C2813 H2783 0.950 . S
C2813 C2808 1.363 . S
C2813 C2812 1.415 . S
H2814 C2811 0.999 . S
H2815 C2796 0.913 . S
H2816 C2834 0.951 . S
H2817 C2836 0.951 . S
H2818 C2838 0.950 . S
H2819 C2839 0.950 . S
H2820 C2841 0.950 . S
H2821 C2844 0.950 . S
H2822 C2845 0.950 . S
H2823 C2847 0.950 . S
H2824 C2848 0.950 . S
H2825 C2849 0.951 . S
H2826 C2851 0.951 . S
H2827 C2853 0.950 . S
H2828 C2854 0.950 . S
H2829 C2856 0.950 . S
H2830 C2859 0.950 . S
H2831 C2860 0.950 . S
H2832 C2862 0.950 . S
H2833 C2863 0.950 . S
C2834 H2816 0.951 . S
C2834 C2835 1.366 . S
C2834 C2836 1.388 . S
C2835 C2834 1.366 . S
C2835 C2839 1.385 . S
C2836 H2817 0.951 . S
C2836 C2834 1.388 . S
C2836 C2837 1.366 . S
C2837 C2836 1.366 . S
C2837 C2838 1.414 . S
C2837 C2840 1.499 . S
C2838 H2818 0.950 . S
C2838 C2837 1.414 . S
C2838 C2839 1.374 . S
C2839 H2819 0.950 . S
C2839 C2835 1.385 . S
C2839 C2838 1.374 . S
C2840 C2837 1.499 . S
C2840 C2841 1.373 . S
C2840 C2842 1.389 . S
C2841 H2820 0.950 . S
C2841 C2840 1.373 . S
C2841 C2857 1.377 . S
C2842 C2840 1.389 . S
C2842 C2843 1.524 . S
C2842 C2856 1.377 . S
C2843 C2842 1.524 . S
C2843 C2844 1.397 . S
C2843 C2848 1.363 . S
C2844 H2821 0.950 . S
C2844 C2843 1.397 . S
C2844 C2845 1.334 . S
C2845 H2822 0.950 . S
C2845 C2844 1.334 . S
C2845 C2846 1.287 . S
C2846 C2845 1.287 . S
C2846 C2847 1.524 . S
C2846 H2865 0.913 . S
C2847 H2823 0.950 . S
C2847 C2846 1.524 . S
C2847 C2848 1.415 . S
C2848 H2824 0.950 . S
C2848 C2843 1.363 . S
C2848 C2847 1.415 . S
C2849 H2825 0.951 . S
C2849 C2850 1.366 . S
C2849 C2851 1.388 . S
C2850 C2849 1.366 . S
C2850 C2854 1.385 . S
C2851 H2826 0.951 . S
C2851 C2849 1.388 . S
C2851 C2852 1.366 . S
C2852 C2851 1.366 . S
C2852 C2853 1.414 . S
C2852 C2855 1.499 . S
C2853 H2827 0.950 . S
C2853 C2852 1.414 . S
C2853 C2854 1.374 . S
C2854 H2828 0.950 . S
C2854 C2850 1.385 . S
C2854 C2853 1.374 . S
C2855 C2852 1.499 . S
C2855 C2856 1.373 . S
C2855 C2857 1.389 . S
C2856 H2829 0.950 . S
C2856 C2842 1.377 . S
C2856 C2855 1.373 . S
C2857 C2841 1.377 . S
C2857 C2855 1.389 . S
C2857 C2858 1.524 . S
C2858 C2857 1.524 . S
C2858 C2859 1.397 . S
C2858 C2863 1.363 . S
C2859 H2830 0.950 . S
C2859 C2858 1.397 . S
C2859 C2860 1.334 . S
C2860 H2831 0.950 . S
C2860 C2859 1.334 . S
C2860 C2861 1.287 . S
C2861 C2860 1.287 . S
C2861 C2862 1.524 . S
C2861 H2864 0.999 . S
C2862 H2832 0.950 . S
C2862 C2861 1.524 . S
C2862 C2863 1.415 . S
C2863 H2833 0.950 . S
C2863 C2858 1.363 . S
C2863 C2862 1.415 . S
H2864 C2861 0.999 . S
H2865 C2846 0.913 . S
H2866 C2884 0.951 . S
H2867 C2886 0.951 . S
H2868 C2888 0.950 . S
H2869 C2889 0.950 . S
H2870 C2891 0.950 . S
H2871 C2894 0.950 . S
H2872 C2895 0.950 . S
H2873 C2897 0.950 . S
H2874 C2898 0.950 . S
H2875 C2899 0.951 . S
H2876 C2901 0.951 . S
H2877 C2903 0.950 . S
H2878 C2904 0.950 . S
H2879 C2906 0.950 . S
H2880 C2909 0.950 . S
H2881 C2910 0.950 . S
H2882 C2912 0.950 . S
H2883 C2913 0.950 . S
C2884 H2866 0.951 . S
C2884 C2885 1.366 . S
C2884 C2886 1.388 . S
C2885 C2884 1.366 . S
C2885 C2889 1.385 . S
C2886 H2867 0.951 . S
C2886 C2884 1.388 . S
C2886 C2887 1.366 . S
C2887 C2886 1.366 . S
C2887 C2888 1.414 . S
C2887 C2890 1.499 . S
C2888 H2868 0.950 . S
C2888 C2887 1.414 . S
C2888 C2889 1.374 . S
C2889 H2869 0.950 . S
C2889 C2885 1.385 . S
C2889 C2888 1.374 . S
C2890 C2887 1.499 . S
C2890 C2891 1.373 . S
C2890 C2892 1.389 . S
C2891 H2870 0.950 . S
C2891 C2890 1.373 . S
C2891 C2907 1.377 . S
C2892 C2890 1.389 . S
C2892 C2893 1.524 . S
C2892 C2906 1.377 . S
C2893 C2892 1.524 . S
C2893 C2894 1.397 . S
C2893 C2898 1.363 . S
C2894 H2871 0.950 . S
C2894 C2893 1.397 . S
C2894 C2895 1.334 . S
C2895 H2872 0.950 . S
C2895 C2894 1.334 . S
C2895 C2896 1.287 . S
C2896 C2895 1.287 . S
C2896 C2897 1.524 . S
C2896 H2915 0.913 . S
C2897 H2873 0.950 . S
C2897 C2896 1.524 . S
C2897 C2898 1.415 . S
C2898 H2874 0.950 . S
C2898 C2893 1.363 . S
C2898 C2897 1.415 . S
C2899 H2875 0.951 . S
C2899 C2900 1.366 . S
C2899 C2901 1.388 . S
C2900 C2899 1.366 . S
C2900 C2904 1.385 . S
C2901 H2876 0.951 . S
C2901 C2899 1.388 . S
C2901 C2902 1.366 . S
C2902 C2901 1.366 . S
C2902 C2903 1.414 . S
C2902 C2905 1.499 . S
C2903 H2877 0.950 . S
C2903 C2902 1.414 . S
C2903 C2904 1.374 . S
C2904 H2878 0.950 . S
C2904 C2900 1.385 . S
C2904 C2903 1.374 . S
C2905 C2902 1.499 . S
C2905 C2906 1.373 . S
C2905 C2907 1.389 . S
C2906 H2879 0.950 . S
C2906 C2892 1.377 . S
C2906 C2905 1.373 . S
C2907 C2891 1.377 . S
C2907 C2905 1.389 . S
C2907 C2908 1.524 . S
C2908 C2907 1.524 . S
C2908 C2909 1.397 . S
C2908 C2913 1.363 . S
C2909 H2880 0.950 . S
C2909 C2908 1.397 . S
C2909 C2910 1.334 . S
C2910 H2881 0.950 . S
C2910 C2909 1.334 . S
C2910 C2911 1.287 . S
C2911 C2910 1.287 . S
C2911 C2912 1.524 . S
C2911 H2914 0.999 . S
C2912 H2882 0.950 . S
C2912 C2911 1.524 . S
C2912 C2913 1.415 . S
C2913 H2883 0.950 . S
C2913 C2908 1.363 . S
C2913 C2912 1.415 . S
H2914 C2911 0.999 . S
H2915 C2896 0.913 . S
H2916 C2934 0.951 . S
H2917 C2936 0.951 . S
H2918 C2938 0.950 . S
H2919 C2939 0.950 . S
H2920 C2941 0.950 . S
H2921 C2944 0.950 . S
H2922 C2945 0.950 . S
H2923 C2947 0.950 . S
H2924 C2948 0.950 . S
H2925 C2949 0.951 . S
H2926 C2951 0.951 . S
H2927 C2953 0.950 . S
H2928 C2954 0.950 . S
H2929 C2956 0.950 . S
H2930 C2959 0.950 . S
H2931 C2960 0.950 . S
H2932 C2962 0.950 . S
H2933 C2963 0.950 . S
C2934 H2916 0.951 . S
C2934 C2935 1.366 . S
C2934 C2936 1.388 . S
C2935 C2934 1.366 . S
C2935 C2939 1.385 . S
C2936 H2917 0.951 . S
C2936 C2934 1.388 . S
C2936 C2937 1.366 . S
C2937 C2936 1.366 . S
C2937 C2938 1.414 . S
C2937 C2940 1.499 . S
C2938 H2918 0.950 . S
C2938 C2937 1.414 . S
C2938 C2939 1.374 . S
C2939 H2919 0.950 . S
C2939 C2935 1.385 . S
C2939 C2938 1.374 . S
C2940 C2937 1.499 . S
C2940 C2941 1.373 . S
C2940 C2942 1.389 . S
C2941 H2920 0.950 . S
C2941 C2940 1.373 . S
C2941 C2957 1.377 . S
C2942 C2940 1.389 . S
C2942 C2943 1.524 . S
C2942 C2956 1.377 . S
C2943 C2942 1.524 . S
C2943 C2944 1.397 . S
C2943 C2948 1.363 . S
C2944 H2921 0.950 . S
C2944 C2943 1.397 . S
C2944 C2945 1.334 . S
C2945 H2922 0.950 . S
C2945 C2944 1.334 . S
C2945 C2946 1.287 . S
C2946 C2945 1.287 . S
C2946 C2947 1.524 . S
C2946 H2965 0.913 . S
C2947 H2923 0.950 . S
C2947 C2946 1.524 . S
C2947 C2948 1.415 . S
C2948 H2924 0.950 . S
C2948 C2943 1.363 . S
C2948 C2947 1.415 . S
C2949 H2925 0.951 . S
C2949 C2950 1.366 . S
C2949 C2951 1.388 . S
C2950 C2949 1.366 . S
C2950 C2954 1.385 . S
C2951 H2926 0.951 . S
C2951 C2949 1.388 . S
C2951 C2952 1.366 . S
C2952 C2951 1.366 . S
C2952 C2953 1.414 . S
C2952 C2955 1.499 . S
C2953 H2927 0.950 . S
C2953 C2952 1.414 . S
C2953 C2954 1.374 . S
C2954 H2928 0.950 . S
C2954 C2950 1.385 . S
C2954 C2953 1.374 . S
C2955 C2952 1.499 . S
C2955 C2956 1.373 . S
C2955 C2957 1.389 . S
C2956 H2929 0.950 . S
C2956 C2942 1.377 . S
C2956 C2955 1.373 . S
C2957 C2941 1.377 . S
C2957 C2955 1.389 . S
C2957 C2958 1.524 . S
C2958 C2957 1.524 . S
C2958 C2959 1.397 . S
C2958 C2963 1.363 . S
C2959 H2930 0.950 . S
C2959 C2958 1.397 . S
C2959 C2960 1.334 . S
C2960 H2931 0.950 . S
C2960 C2959 1.334 . S
C2960 C2961 1.287 . S
C2961 C2960 1.287 . S
C2961 C2962 1.524 . S
C2961 H2964 0.999 . S
C2962 H2932 0.950 . S
C2962 C2961 1.524 . S
C2962 C2963 1.415 . S
C2963 H2933 0.950 . S
C2963 C2958 1.363 . S
C2963 C2962 1.415 . S
H2964 C2961 0.999 . S
H2965 C2946 0.913 . S
H2966 C2984 0.951 . S
H2967 C2986 0.951 . S
H2968 C2988 0.950 . S
H2969 C2989 0.950 . S
H2970 C2991 0.950 . S
H2971 C2994 0.950 . S
H2972 C2995 0.950 . S
H2973 C2997 0.950 . S
H2974 C2998 0.950 . S
H2975 C2999 0.951 . S
H2976 C3001 0.951 . S
H2977 C3003 0.950 . S
H2978 C3004 0.950 . S
H2979 C3006 0.950 . S
H2980 C3009 0.950 . S
H2981 C3010 0.950 . S
H2982 C3012 0.950 . S
H2983 C3013 0.950 . S
C2984 H2966 0.951 . S
C2984 C2985 1.366 . S
C2984 C2986 1.388 . S
C2985 C2984 1.366 . S
C2985 C2989 1.385 . S
C2986 H2967 0.951 . S
C2986 C2984 1.388 . S
C2986 C2987 1.366 . S
C2987 C2986 1.366 . S
C2987 C2988 1.414 . S
C2987 C2990 1.499 . S
C2988 H2968 0.950 . S
C2988 C2987 1.414 . S
C2988 C2989 1.374 . S
C2989 H2969 0.950 . S
C2989 C2985 1.385 . S
C2989 C2988 1.374 . S
C2990 C2987 1.499 . S
C2990 C2991 1.373 . S
C2990 C2992 1.389 . S
C2991 H2970 0.950 . S
C2991 C2990 1.373 . S
C2991 C3007 1.377 . S
C2992 C2990 1.389 . S
C2992 C2993 1.524 . S
C2992 C3006 1.377 . S
C2993 C2992 1.524 . S
C2993 C2994 1.397 . S
C2993 C2998 1.363 . S
C2994 H2971 0.950 . S
C2994 C2993 1.397 . S
C2994 C2995 1.334 . S
C2995 H2972 0.950 . S
C2995 C2994 1.334 . S
C2995 C2996 1.287 . S
C2996 C2995 1.287 . S
C2996 C2997 1.524 . S
C2996 H3015 0.913 . S
C2997 H2973 0.950 . S
C2997 C2996 1.524 . S
C2997 C2998 1.415 . S
C2998 H2974 0.950 . S
C2998 C2993 1.363 . S
C2998 C2997 1.415 . S
C2999 H2975 0.951 . S
C2999 C3000 1.366 . S
C2999 C3001 1.388 . S
C3000 C2999 1.366 . S
C3000 C3004 1.385 . S
C3001 H2976 0.951 . S
C3001 C2999 1.388 . S
C3001 C3002 1.366 . S
C3002 C3001 1.366 . S
C3002 C3003 1.414 . S
C3002 C3005 1.499 . S
C3003 H2977 0.950 . S
C3003 C3002 1.414 . S
C3003 C3004 1.374 . S
C3004 H2978 0.950 . S
C3004 C3000 1.385 . S
C3004 C3003 1.374 . S
C3005 C3002 1.499 . S
C3005 C3006 1.373 . S
C3005 C3007 1.389 . S
C3006 H2979 0.950 . S
C3006 C2992 1.377 . S
C3006 C3005 1.373 . S
C3007 C2991 1.377 . S
C3007 C3005 1.389 . S
C3007 C3008 1.524 . S
C3008 C3007 1.524 . S
C3008 C3009 1.397 . S
C3008 C3013 1.363 . S
C3009 H2980 0.950 . S
C3009 C3008 1.397 . S
C3009 C3010 1.334 . S
C3010 H2981 0.950 . S
C3010 C3009 1.334 . S
C3010 C3011 1.287 . S
C3011 C3010 1.287 . S
C3011 C3012 1.524 . S
C3011 H3014 0.999 . S
C3012 H2982 0.950 . S
C3012 C3011 1.524 . S
C3012 C3013 1.415 . S
C3013 H2983 0.950 . S
C3013 C3008 1.363 . S
C3013 C3012 1.415 . S
H3014 C3011 0.999 . S
H3015 C2996 0.913 . S
H3016 C3034 0.951 . S
H3017 C3036 0.951 . S
H3018 C3038 0.950 . S
H3019 C3039 0.950 . S
H3020 C3041 0.950 . S
H3021 C3044 0.950 . S
H3022 C3045 0.950 . S
H3023 C3047 0.950 . S
H3024 C3048 0.950 . S
H3025 C3049 0.951 . S
H3026 C3051 0.951 . S
H3027 C3053 0.950 . S
H3028 C3054 0.950 . S
H3029 C3056 0.950 . S
H3030 C3059 0.950 . S
H3031 C3060 0.950 . S
H3032 C3062 0.950 . S
H3033 C3063 0.950 . S
C3034 H3016 0.951 . S
C3034 C3035 1.366 . S
C3034 C3036 1.388 . S
C3035 C3034 1.366 . S
C3035 C3039 1.385 . S
C3036 H3017 0.951 . S
C3036 C3034 1.388 . S
C3036 C3037 1.366 . S
C3037 C3036 1.366 . S
C3037 C3038 1.414 . S
C3037 C3040 1.499 . S
C3038 H3018 0.950 . S
C3038 C3037 1.414 . S
C3038 C3039 1.374 . S
C3039 H3019 0.950 . S
C3039 C3035 1.385 . S
C3039 C3038 1.374 . S
C3040 C3037 1.499 . S
C3040 C3041 1.373 . S
C3040 C3042 1.389 . S
C3041 H3020 0.950 . S
C3041 C3040 1.373 . S
C3041 C3057 1.377 . S
C3042 C3040 1.389 . S
C3042 C3043 1.524 . S
C3042 C3056 1.377 . S
C3043 C3042 1.524 . S
C3043 C3044 1.397 . S
C3043 C3048 1.363 . S
C3044 H3021 0.950 . S
C3044 C3043 1.397 . S
C3044 C3045 1.334 . S
C3045 H3022 0.950 . S
C3045 C3044 1.334 . S
C3045 C3046 1.287 . S
C3046 C3045 1.287 . S
C3046 C3047 1.524 . S
C3046 H3065 0.913 . S
C3047 H3023 0.950 . S
C3047 C3046 1.524 . S
C3047 C3048 1.415 . S
C3048 H3024 0.950 . S
C3048 C3043 1.363 . S
C3048 C3047 1.415 . S
C3049 H3025 0.951 . S
C3049 C3050 1.366 . S
C3049 C3051 1.388 . S
C3050 C3049 1.366 . S
C3050 C3054 1.385 . S
C3051 H3026 0.951 . S
C3051 C3049 1.388 . S
C3051 C3052 1.366 . S
C3052 C3051 1.366 . S
C3052 C3053 1.414 . S
C3052 C3055 1.499 . S
C3053 H3027 0.950 . S
C3053 C3052 1.414 . S
C3053 C3054 1.374 . S
C3054 H3028 0.950 . S
C3054 C3050 1.385 . S
C3054 C3053 1.374 . S
C3055 C3052 1.499 . S
C3055 C3056 1.373 . S
C3055 C3057 1.389 . S
C3056 H3029 0.950 . S
C3056 C3042 1.377 . S
C3056 C3055 1.373 . S
C3057 C3041 1.377 . S
C3057 C3055 1.389 . S
C3057 C3058 1.524 . S
C3058 C3057 1.524 . S
C3058 C3059 1.397 . S
C3058 C3063 1.363 . S
C3059 H3030 0.950 . S
C3059 C3058 1.397 . S
C3059 C3060 1.334 . S
C3060 H3031 0.950 . S
C3060 C3059 1.334 . S
C3060 C3061 1.287 . S
C3061 C3060 1.287 . S
C3061 C3062 1.524 . S
C3061 H3064 0.999 . S
C3062 H3032 0.950 . S
C3062 C3061 1.524 . S
C3062 C3063 1.415 . S
C3063 H3033 0.950 . S
C3063 C3058 1.363 . S
C3063 C3062 1.415 . S
H3064 C3061 0.999 . S
H3065 C3046 0.913 . S
H3066 C3084 0.951 . S
H3067 C3086 0.951 . S
H3068 C3088 0.950 . S
H3069 C3089 0.950 . S
H3070 C3091 0.950 . S
H3071 C3094 0.950 . S
H3072 C3095 0.950 . S
H3073 C3097 0.950 . S
H3074 C3098 0.950 . S
H3075 C3099 0.951 . S
H3076 C3101 0.951 . S
H3077 C3103 0.950 . S
H3078 C3104 0.950 . S
H3079 C3106 0.950 . S
H3080 C3109 0.950 . S
H3081 C3110 0.950 . S
H3082 C3112 0.950 . S
H3083 C3113 0.950 . S
C3084 H3066 0.951 . S
C3084 C3085 1.366 . S
C3084 C3086 1.388 . S
C3085 C3084 1.366 . S
C3085 C3089 1.385 . S
C3086 H3067 0.951 . S
C3086 C3084 1.388 . S
C3086 C3087 1.366 . S
C3087 C3086 1.366 . S
C3087 C3088 1.414 . S
C3087 C3090 1.499 . S
C3088 H3068 0.950 . S
C3088 C3087 1.414 . S
C3088 C3089 1.374 . S
C3089 H3069 0.950 . S
C3089 C3085 1.385 . S
C3089 C3088 1.374 . S
C3090 C3087 1.499 . S
C3090 C3091 1.373 . S
C3090 C3092 1.389 . S
C3091 H3070 0.950 . S
C3091 C3090 1.373 . S
C3091 C3107 1.377 . S
C3092 C3090 1.389 . S
C3092 C3093 1.524 . S
C3092 C3106 1.377 . S
C3093 C3092 1.524 . S
C3093 C3094 1.397 . S
C3093 C3098 1.363 . S
C3094 H3071 0.950 . S
C3094 C3093 1.397 . S
C3094 C3095 1.334 . S
C3095 H3072 0.950 . S
C3095 C3094 1.334 . S
C3095 C3096 1.287 . S
C3096 C3095 1.287 . S
C3096 C3097 1.524 . S
C3096 H3115 0.913 . S
C3097 H3073 0.950 . S
C3097 C3096 1.524 . S
C3097 C3098 1.415 . S
C3098 H3074 0.950 . S
C3098 C3093 1.363 . S
C3098 C3097 1.415 . S
C3099 H3075 0.951 . S
C3099 C3100 1.366 . S
C3099 C3101 1.388 . S
C3100 C3099 1.366 . S
C3100 C3104 1.385 . S
C3101 H3076 0.951 . S
C3101 C3099 1.388 . S
C3101 C3102 1.366 . S
C3102 C3101 1.366 . S
C3102 C3103 1.414 . S
C3102 C3105 1.499 . S
C3103 H3077 0.950 . S
C3103 C3102 1.414 . S
C3103 C3104 1.374 . S
C3104 H3078 0.950 . S
C3104 C3100 1.385 . S
C3104 C3103 1.374 . S
C3105 C3102 1.499 . S
C3105 C3106 1.373 . S
C3105 C3107 1.389 . S
C3106 H3079 0.950 . S
C3106 C3092 1.377 . S
C3106 C3105 1.373 . S
C3107 C3091 1.377 . S
C3107 C3105 1.389 . S
C3107 C3108 1.524 . S
C3108 C3107 1.524 . S
C3108 C3109 1.397 . S
C3108 C3113 1.363 . S
C3109 H3080 0.950 . S
C3109 C3108 1.397 . S
C3109 C3110 1.334 . S
C3110 H3081 0.950 . S
C3110 C3109 1.334 . S
C3110 C3111 1.287 . S
C3111 C3110 1.287 . S
C3111 C3112 1.524 . S
C3111 H3114 0.999 . S
C3112 H3082 0.950 . S
C3112 C3111 1.524 . S
C3112 C3113 1.415 . S
C3113 H3083 0.950 . S
C3113 C3108 1.363 . S
C3113 C3112 1.415 . S
H3114 C3111 0.999 . S
H3115 C3096 0.913 . S
H3116 C3134 0.951 . S
H3117 C3136 0.951 . S
H3118 C3138 0.950 . S
H3119 C3139 0.950 . S
H3120 C3141 0.950 . S
H3121 C3144 0.950 . S
H3122 C3145 0.950 . S
H3123 C3147 0.950 . S
H3124 C3148 0.950 . S
H3125 C3149 0.951 . S
H3126 C3151 0.951 . S
H3127 C3153 0.950 . S
H3128 C3154 0.950 . S
H3129 C3156 0.950 . S
H3130 C3159 0.950 . S
H3131 C3160 0.950 . S
H3132 C3162 0.950 . S
H3133 C3163 0.950 . S
C3134 H3116 0.951 . S
C3134 C3135 1.366 . S
C3134 C3136 1.388 . S
C3135 C3134 1.366 . S
C3135 C3139 1.385 . S
C3136 H3117 0.951 . S
C3136 C3134 1.388 . S
C3136 C3137 1.366 . S
C3137 C3136 1.366 . S
C3137 C3138 1.414 . S
C3137 C3140 1.499 . S
C3138 H3118 0.950 . S
C3138 C3137 1.414 . S
C3138 C3139 1.374 . S
C3139 H3119 0.950 . S
C3139 C3135 1.385 . S
C3139 C3138 1.374 . S
C3140 C3137 1.499 . S
C3140 C3141 1.373 . S
C3140 C3142 1.389 . S
C3141 H3120 0.950 . S
C3141 C3140 1.373 . S
C3141 C3157 1.377 . S
C3142 C3140 1.389 . S
C3142 C3143 1.524 . S
C3142 C3156 1.377 . S
C3143 C3142 1.524 . S
C3143 C3144 1.397 . S
C3143 C3148 1.363 . S
C3144 H3121 0.950 . S
C3144 C3143 1.397 . S
C3144 C3145 1.334 . S
C3145 H3122 0.950 . S
C3145 C3144 1.334 . S
C3145 C3146 1.287 . S
C3146 C3145 1.287 . S
C3146 C3147 1.524 . S
C3146 H3165 0.913 . S
C3147 H3123 0.950 . S
C3147 C3146 1.524 . S
C3147 C3148 1.415 . S
C3148 H3124 0.950 . S
C3148 C3143 1.363 . S
C3148 C3147 1.415 . S
C3149 H3125 0.951 . S
C3149 C3150 1.366 . S
C3149 C3151 1.388 . S
C3150 C3149 1.366 . S
C3150 C3154 1.385 . S
C3151 H3126 0.951 . S
C3151 C3149 1.388 . S
C3151 C3152 1.366 . S
C3152 C3151 1.366 . S
C3152 C3153 1.414 . S
C3152 C3155 1.499 . S
C3153 H3127 0.950 . S
C3153 C3152 1.414 . S
C3153 C3154 1.374 . S
C3154 H3128 0.950 . S
C3154 C3150 1.385 . S
C3154 C3153 1.374 . S
C3155 C3152 1.499 . S
C3155 C3156 1.373 . S
C3155 C3157 1.389 . S
C3156 H3129 0.950 . S
C3156 C3142 1.377 . S
C3156 C3155 1.373 . S
C3157 C3141 1.377 . S
C3157 C3155 1.389 . S
C3157 C3158 1.524 . S
C3158 C3157 1.524 . S
C3158 C3159 1.397 . S
C3158 C3163 1.363 . S
C3159 H3130 0.950 . S
C3159 C3158 1.397 . S
C3159 C3160 1.334 . S
C3160 H3131 0.950 . S
C3160 C3159 1.334 . S
C3160 C3161 1.287 . S
C3161 C3160 1.287 . S
C3161 C3162 1.524 . S
C3161 H3164 0.999 . S
C3162 H3132 0.950 . S
C3162 C3161 1.524 . S
C3162 C3163 1.415 . S
C3163 H3133 0.950 . S
C3163 C3158 1.363 . S
C3163 C3162 1.415 . S
H3164 C3161 0.999 . S
H3165 C3146 0.913 . S
H3166 C3184 0.951 . S
H3167 C3186 0.951 . S
H3168 C3188 0.950 . S
H3169 C3189 0.950 . S
H3170 C3191 0.950 . S
H3171 C3194 0.950 . S
H3172 C3195 0.950 . S
H3173 C3197 0.950 . S
H3174 C3198 0.950 . S
H3175 C3199 0.951 . S
H3176 C3201 0.951 . S
H3177 C3203 0.950 . S
H3178 C3204 0.950 . S
H3179 C3206 0.950 . S
H3180 C3209 0.950 . S
H3181 C3210 0.950 . S
H3182 C3212 0.950 . S
H3183 C3213 0.950 . S
C3184 H3166 0.951 . S
C3184 C3185 1.366 . S
C3184 C3186 1.388 . S
C3185 C3184 1.366 . S
C3185 C3189 1.385 . S
C3186 H3167 0.951 . S
C3186 C3184 1.388 . S
C3186 C3187 1.366 . S
C3187 C3186 1.366 . S
C3187 C3188 1.414 . S
C3187 C3190 1.499 . S
C3188 H3168 0.950 . S
C3188 C3187 1.414 . S
C3188 C3189 1.374 . S
C3189 H3169 0.950 . S
C3189 C3185 1.385 . S
C3189 C3188 1.374 . S
C3190 C3187 1.499 . S
C3190 C3191 1.373 . S
C3190 C3192 1.389 . S
C3191 H3170 0.950 . S
C3191 C3190 1.373 . S
C3191 C3207 1.377 . S
C3192 C3190 1.389 . S
C3192 C3193 1.524 . S
C3192 C3206 1.377 . S
C3193 C3192 1.524 . S
C3193 C3194 1.397 . S
C3193 C3198 1.363 . S
C3194 H3171 0.950 . S
C3194 C3193 1.397 . S
C3194 C3195 1.334 . S
C3195 H3172 0.950 . S
C3195 C3194 1.334 . S
C3195 C3196 1.287 . S
C3196 C3195 1.287 . S
C3196 C3197 1.524 . S
C3196 H3215 0.913 . S
C3197 H3173 0.950 . S
C3197 C3196 1.524 . S
C3197 C3198 1.415 . S
C3198 H3174 0.950 . S
C3198 C3193 1.363 . S
C3198 C3197 1.415 . S
C3199 H3175 0.951 . S
C3199 C3200 1.366 . S
C3199 C3201 1.388 . S
C3200 C3199 1.366 . S
C3200 C3204 1.385 . S
C3201 H3176 0.951 . S
C3201 C3199 1.388 . S
C3201 C3202 1.366 . S
C3202 C3201 1.366 . S
C3202 C3203 1.414 . S
C3202 C3205 1.499 . S
C3203 H3177 0.950 . S
C3203 C3202 1.414 . S
C3203 C3204 1.374 . S
C3204 H3178 0.950 . S
C3204 C3200 1.385 . S
C3204 C3203 1.374 . S
C3205 C3202 1.499 . S
C3205 C3206 1.373 . S
C3205 C3207 1.389 . S
C3206 H3179 0.950 . S
C3206 C3192 1.377 . S
C3206 C3205 1.373 . S
C3207 C3191 1.377 . S
C3207 C3205 1.389 . S
C3207 C3208 1.524 . S
C3208 C3207 1.524 . S
C3208 C3209 1.397 . S
C3208 C3213 1.363 . S
C3209 H3180 0.950 . S
C3209 C3208 1.397 . S
C3209 C3210 1.334 . S
C3210 H3181 0.950 . S
C3210 C3209 1.334 . S
C3210 C3211 1.287 . S
C3211 C3210 1.287 . S
C3211 C3212 1.524 . S
C3211 H3214 0.999 . S
C3212 H3182 0.950 . S
C3212 C3211 1.524 . S
C3212 C3213 1.415 . S
C3213 H3183 0.950 . S
C3213 C3208 1.363 . S
C3213 C3212 1.415 . S
H3214 C3211 0.999 . S
H3215 C3196 0.913 . S
H3216 C3234 0.951 . S
H3217 C3236 0.951 . S
H3218 C3238 0.950 . S
H3219 C3239 0.950 . S
H3220 C3241 0.950 . S
H3221 C3244 0.950 . S
H3222 C3245 0.950 . S
H3223 C3247 0.950 . S
H3224 C3248 0.950 . S
H3225 C3249 0.951 . S
H3226 C3251 0.951 . S
H3227 C3253 0.950 . S
H3228 C3254 0.950 . S
H3229 C3256 0.950 . S
H3230 C3259 0.950 . S
H3231 C3260 0.950 . S
H3232 C3262 0.950 . S
H3233 C3263 0.950 . S
C3234 H3216 0.951 . S
C3234 C3235 1.366 . S
C3234 C3236 1.388 . S
C3235 C3234 1.366 . S
C3235 C3239 1.385 . S
C3236 H3217 0.951 . S
C3236 C3234 1.388 . S
C3236 C3237 1.366 . S
C3237 C3236 1.366 . S
C3237 C3238 1.414 . S
C3237 C3240 1.499 . S
C3238 H3218 0.950 . S
C3238 C3237 1.414 . S
C3238 C3239 1.374 . S
C3239 H3219 0.950 . S
C3239 C3235 1.385 . S
C3239 C3238 1.374 . S
C3240 C3237 1.499 . S
C3240 C3241 1.373 . S
C3240 C3242 1.389 . S
C3241 H3220 0.950 . S
C3241 C3240 1.373 . S
C3241 C3257 1.377 . S
C3242 C3240 1.389 . S
C3242 C3243 1.524 . S
C3242 C3256 1.377 . S
C3243 C3242 1.524 . S
C3243 C3244 1.397 . S
C3243 C3248 1.363 . S
C3244 H3221 0.950 . S
C3244 C3243 1.397 . S
C3244 C3245 1.334 . S
C3245 H3222 0.950 . S
C3245 C3244 1.334 . S
C3245 C3246 1.287 . S
C3246 C3245 1.287 . S
C3246 C3247 1.524 . S
C3246 H3265 0.913 . S
C3247 H3223 0.950 . S
C3247 C3246 1.524 . S
C3247 C3248 1.415 . S
C3248 H3224 0.950 . S
C3248 C3243 1.363 . S
C3248 C3247 1.415 . S
C3249 H3225 0.951 . S
C3249 C3250 1.366 . S
C3249 C3251 1.388 . S
C3250 C3249 1.366 . S
C3250 C3254 1.385 . S
C3251 H3226 0.951 . S
C3251 C3249 1.388 . S
C3251 C3252 1.366 . S
C3252 C3251 1.366 . S
C3252 C3253 1.414 . S
C3252 C3255 1.499 . S
C3253 H3227 0.950 . S
C3253 C3252 1.414 . S
C3253 C3254 1.374 . S
C3254 H3228 0.950 . S
C3254 C3250 1.385 . S
C3254 C3253 1.374 . S
C3255 C3252 1.499 . S
C3255 C3256 1.373 . S
C3255 C3257 1.389 . S
C3256 H3229 0.950 . S
C3256 C3242 1.377 . S
C3256 C3255 1.373 . S
C3257 C3241 1.377 . S
C3257 C3255 1.389 . S
C3257 C3258 1.524 . S
C3258 C3257 1.524 . S
C3258 C3259 1.397 . S
C3258 C3263 1.363 . S
C3259 H3230 0.950 . S
C3259 C3258 1.397 . S
C3259 C3260 1.334 . S
C3260 H3231 0.950 . S
C3260 C3259 1.334 . S
C3260 C3261 1.287 . S
C3261 C3260 1.287 . S
C3261 C3262 1.524 . S
C3261 H3264 0.999 . S
C3262 H3232 0.950 . S
C3262 C3261 1.524 . S
C3262 C3263 1.415 . S
C3263 H3233 0.950 . S
C3263 C3258 1.363 . S
C3263 C3262 1.415 . S
H3264 C3261 0.999 . S
H3265 C3246 0.913 . S
H3266 C3284 0.951 . S
H3267 C3286 0.951 . S
H3268 C3288 0.950 . S
H3269 C3289 0.950 . S
H3270 C3291 0.950 . S
H3271 C3294 0.950 . S
H3272 C3295 0.950 . S
H3273 C3297 0.950 . S
H3274 C3298 0.950 . S
H3275 C3299 0.951 . S
H3276 C3301 0.951 . S
H3277 C3303 0.950 . S
H3278 C3304 0.950 . S
H3279 C3306 0.950 . S
H3280 C3309 0.950 . S
H3281 C3310 0.950 . S
H3282 C3312 0.950 . S
H3283 C3313 0.950 . S
C3284 H3266 0.951 . S
C3284 C3285 1.366 . S
C3284 C3286 1.388 . S
C3285 C3284 1.366 . S
C3285 C3289 1.385 . S
C3286 H3267 0.951 . S
C3286 C3284 1.388 . S
C3286 C3287 1.366 . S
C3287 C3286 1.366 . S
C3287 C3288 1.414 . S
C3287 C3290 1.499 . S
C3288 H3268 0.950 . S
C3288 C3287 1.414 . S
C3288 C3289 1.374 . S
C3289 H3269 0.950 . S
C3289 C3285 1.385 . S
C3289 C3288 1.374 . S
C3290 C3287 1.499 . S
C3290 C3291 1.373 . S
C3290 C3292 1.389 . S
C3291 H3270 0.950 . S
C3291 C3290 1.373 . S
C3291 C3307 1.377 . S
C3292 C3290 1.389 . S
C3292 C3293 1.524 . S
C3292 C3306 1.377 . S
C3293 C3292 1.524 . S
C3293 C3294 1.397 . S
C3293 C3298 1.363 . S
C3294 H3271 0.950 . S
C3294 C3293 1.397 . S
C3294 C3295 1.334 . S
C3295 H3272 0.950 . S
C3295 C3294 1.334 . S
C3295 C3296 1.287 . S
C3296 C3295 1.287 . S
C3296 C3297 1.524 . S
C3296 H3315 0.913 . S
C3297 H3273 0.950 . S
C3297 C3296 1.524 . S
C3297 C3298 1.415 . S
C3298 H3274 0.950 . S
C3298 C3293 1.363 . S
C3298 C3297 1.415 . S
C3299 H3275 0.951 . S
C3299 C3300 1.366 . S
C3299 C3301 1.388 . S
C3300 C3299 1.366 . S
C3300 C3304 1.385 . S
C3301 H3276 0.951 . S
C3301 C3299 1.388 . S
C3301 C3302 1.366 . S
C3302 C3301 1.366 . S
C3302 C3303 1.414 . S
C3302 C3305 1.499 . S
C3303 H3277 0.950 . S
C3303 C3302 1.414 . S
C3303 C3304 1.374 . S
C3304 H3278 0.950 . S
C3304 C3300 1.385 . S
C3304 C3303 1.374 . S
C3305 C3302 1.499 . S
C3305 C3306 1.373 . S
C3305 C3307 1.389 . S
C3306 H3279 0.950 . S
C3306 C3292 1.377 . S
C3306 C3305 1.373 . S
C3307 C3291 1.377 . S
C3307 C3305 1.389 . S
C3307 C3308 1.524 . S
C3308 C3307 1.524 . S
C3308 C3309 1.397 . S
C3308 C3313 1.363 . S
C3309 H3280 0.950 . S
C3309 C3308 1.397 . S
C3309 C3310 1.334 . S
C3310 H3281 0.950 . S
C3310 C3309 1.334 . S
C3310 C3311 1.287 . S
C3311 C3310 1.287 . S
C3311 C3312 1.524 . S
C3311 H3314 0.999 . S
C3312 H3282 0.950 . S
C3312 C3311 1.524 . S
C3312 C3313 1.415 . S
C3313 H3283 0.950 . S
C3313 C3308 1.363 . S
C3313 C3312 1.415 . S
H3314 C3311 0.999 . S
H3315 C3296 0.913 . S
H3316 C3334 0.951 . S
H3317 C3336 0.951 . S
H3318 C3338 0.950 . S
H3319 C3339 0.950 . S
H3320 C3341 0.950 . S
H3321 C3344 0.950 . S
H3322 C3345 0.950 . S
H3323 C3347 0.950 . S
H3324 C3348 0.950 . S
H3325 C3349 0.951 . S
H3326 C3351 0.951 . S
H3327 C3353 0.950 . S
H3328 C3354 0.950 . S
H3329 C3356 0.950 . S
H3330 C3359 0.950 . S
H3331 C3360 0.950 . S
H3332 C3362 0.950 . S
H3333 C3363 0.950 . S
C3334 H3316 0.951 . S
C3334 C3335 1.366 . S
C3334 C3336 1.388 . S
C3335 C3334 1.366 . S
C3335 C3339 1.385 . S
C3336 H3317 0.951 . S
C3336 C3334 1.388 . S
C3336 C3337 1.366 . S
C3337 C3336 1.366 . S
C3337 C3338 1.414 . S
C3337 C3340 1.499 . S
C3338 H3318 0.950 . S
C3338 C3337 1.414 . S
C3338 C3339 1.374 . S
C3339 H3319 0.950 . S
C3339 C3335 1.385 . S
C3339 C3338 1.374 . S
C3340 C3337 1.499 . S
C3340 C3341 1.373 . S
C3340 C3342 1.389 . S
C3341 H3320 0.950 . S
C3341 C3340 1.373 . S
C3341 C3357 1.377 . S
C3342 C3340 1.389 . S
C3342 C3343 1.524 . S
C3342 C3356 1.377 . S
C3343 C3342 1.524 . S
C3343 C3344 1.397 . S
C3343 C3348 1.363 . S
C3344 H3321 0.950 . S
C3344 C3343 1.397 . S
C3344 C3345 1.334 . S
C3345 H3322 0.950 . S
C3345 C3344 1.334 . S
C3345 C3346 1.287 . S
C3346 C3345 1.287 . S
C3346 C3347 1.524 . S
C3346 H3365 0.913 . S
C3347 H3323 0.950 . S
C3347 C3346 1.524 . S
C3347 C3348 1.415 . S
C3348 H3324 0.950 . S
C3348 C3343 1.363 . S
C3348 C3347 1.415 . S
C3349 H3325 0.951 . S
C3349 C3350 1.366 . S
C3349 C3351 1.388 . S
C3350 C3349 1.366 . S
C3350 C3354 1.385 . S
C3351 H3326 0.951 . S
C3351 C3349 1.388 . S
C3351 C3352 1.366 . S
C3352 C3351 1.366 . S
C3352 C3353 1.414 . S
C3352 C3355 1.499 . S
C3353 H3327 0.950 . S
C3353 C3352 1.414 . S
C3353 C3354 1.374 . S
C3354 H3328 0.950 . S
C3354 C3350 1.385 . S
C3354 C3353 1.374 . S
C3355 C3352 1.499 . S
C3355 C3356 1.373 . S
C3355 C3357 1.389 . S
C3356 H3329 0.950 . S
C3356 C3342 1.377 . S
C3356 C3355 1.373 . S
C3357 C3341 1.377 . S
C3357 C3355 1.389 . S
C3357 C3358 1.524 . S
C3358 C3357 1.524 . S
C3358 C3359 1.397 . S
C3358 C3363 1.363 . S
C3359 H3330 0.950 . S
C3359 C3358 1.397 . S
C3359 C3360 1.334 . S
C3360 H3331 0.950 . S
C3360 C3359 1.334 . S
C3360 C3361 1.287 . S
C3361 C3360 1.287 . S
C3361 C3362 1.524 . S
C3361 H3364 0.999 . S
C3362 H3332 0.950 . S
C3362 C3361 1.524 . S
C3362 C3363 1.415 . S
C3363 H3333 0.950 . S
C3363 C3358 1.363 . S
C3363 C3362 1.415 . S
H3364 C3361 0.999 . S
H3365 C3346 0.913 . S
H3366 C3384 0.951 . S
H3367 C3386 0.951 . S
H3368 C3388 0.950 . S
H3369 C3389 0.950 . S
H3370 C3391 0.950 . S
H3371 C3394 0.950 . S
H3372 C3395 0.950 . S
H3373 C3397 0.950 . S
H3374 C3398 0.950 . S
H3375 C3399 0.951 . S
H3376 C3401 0.951 . S
H3377 C3403 0.950 . S
H3378 C3404 0.950 . S
H3379 C3406 0.950 . S
H3380 C3409 0.950 . S
H3381 C3410 0.950 . S
H3382 C3412 0.950 . S
H3383 C3413 0.950 . S
C3384 H3366 0.951 . S
C3384 C3385 1.366 . S
C3384 C3386 1.388 . S
C3385 C3384 1.366 . S
C3385 C3389 1.385 . S
C3386 H3367 0.951 . S
C3386 C3384 1.388 . S
C3386 C3387 1.366 . S
C3387 C3386 1.366 . S
C3387 C3388 1.414 . S
C3387 C3390 1.499 . S
C3388 H3368 0.950 . S
C3388 C3387 1.414 . S
C3388 C3389 1.374 . S
C3389 H3369 0.950 . S
C3389 C3385 1.385 . S
C3389 C3388 1.374 . S
C3390 C3387 1.499 . S
C3390 C3391 1.373 . S
C3390 C3392 1.389 . S
C3391 H3370 0.950 . S
C3391 C3390 1.373 . S
C3391 C3407 1.377 . S
C3392 C3390 1.389 . S
C3392 C3393 1.524 . S
C3392 C3406 1.377 . S
C3393 C3392 1.524 . S
C3393 C3394 1.397 . S
C3393 C3398 1.363 . S
C3394 H3371 0.950 . S
C3394 C3393 1.397 . S
C3394 C3395 1.334 . S
C3395 H3372 0.950 . S
C3395 C3394 1.334 . S
C3395 C3396 1.287 . S
C3396 C3395 1.287 . S
C3396 C3397 1.524 . S
C3396 H3415 0.913 . S
C3397 H3373 0.950 . S
C3397 C3396 1.524 . S
C3397 C3398 1.415 . S
C3398 H3374 0.950 . S
C3398 C3393 1.363 . S
C3398 C3397 1.415 . S
C3399 H3375 0.951 . S
C3399 C3400 1.366 . S
C3399 C3401 1.388 . S
C3400 C3399 1.366 . S
C3400 C3404 1.385 . S
C3401 H3376 0.951 . S
C3401 C3399 1.388 . S
C3401 C3402 1.366 . S
C3402 C3401 1.366 . S
C3402 C3403 1.414 . S
C3402 C3405 1.499 . S
C3403 H3377 0.950 . S
C3403 C3402 1.414 . S
C3403 C3404 1.374 . S
C3404 H3378 0.950 . S
C3404 C3400 1.385 . S
C3404 C3403 1.374 . S
C3405 C3402 1.499 . S
C3405 C3406 1.373 . S
C3405 C3407 1.389 . S
C3406 H3379 0.950 . S
C3406 C3392 1.377 . S
C3406 C3405 1.373 . S
C3407 C3391 1.377 . S
C3407 C3405 1.389 . S
C3407 C3408 1.524 . S
C3408 C3407 1.524 . S
C3408 C3409 1.397 . S
C3408 C3413 1.363 . S
C3409 H3380 0.950 . S
C3409 C3408 1.397 . S
C3409 C3410 1.334 . S
C3410 H3381 0.950 . S
C3410 C3409 1.334 . S
C3410 C3411 1.287 . S
C3411 C3410 1.287 . S
C3411 C3412 1.524 . S
C3411 H3414 0.999 . S
C3412 H3382 0.950 . S
C3412 C3411 1.524 . S
C3412 C3413 1.415 . S
C3413 H3383 0.950 . S
C3413 C3408 1.363 . S
C3413 C3412 1.415 . S
H3414 C3411 0.999 . S
H3415 C3396 0.913 . S
H3416 C3434 0.951 . S
H3417 C3436 0.951 . S
H3418 C3438 0.950 . S
H3419 C3439 0.950 . S
H3420 C3441 0.950 . S
H3421 C3444 0.950 . S
H3422 C3445 0.950 . S
H3423 C3447 0.950 . S
H3424 C3448 0.950 . S
H3425 C3449 0.951 . S
H3426 C3451 0.951 . S
H3427 C3453 0.950 . S
H3428 C3454 0.950 . S
H3429 C3456 0.950 . S
H3430 C3459 0.950 . S
H3431 C3460 0.950 . S
H3432 C3462 0.950 . S
H3433 C3463 0.950 . S
C3434 H3416 0.951 . S
C3434 C3435 1.366 . S
C3434 C3436 1.388 . S
C3435 C3434 1.366 . S
C3435 C3439 1.385 . S
C3436 H3417 0.951 . S
C3436 C3434 1.388 . S
C3436 C3437 1.366 . S
C3437 C3436 1.366 . S
C3437 C3438 1.414 . S
C3437 C3440 1.499 . S
C3438 H3418 0.950 . S
C3438 C3437 1.414 . S
C3438 C3439 1.374 . S
C3439 H3419 0.950 . S
C3439 C3435 1.385 . S
C3439 C3438 1.374 . S
C3440 C3437 1.499 . S
C3440 C3441 1.373 . S
C3440 C3442 1.389 . S
C3441 H3420 0.950 . S
C3441 C3440 1.373 . S
C3441 C3457 1.377 . S
C3442 C3440 1.389 . S
C3442 C3443 1.524 . S
C3442 C3456 1.377 . S
C3443 C3442 1.524 . S
C3443 C3444 1.397 . S
C3443 C3448 1.363 . S
C3444 H3421 0.950 . S
C3444 C3443 1.397 . S
C3444 C3445 1.334 . S
C3445 H3422 0.950 . S
C3445 C3444 1.334 . S
C3445 C3446 1.287 . S
C3446 C3445 1.287 . S
C3446 C3447 1.524 . S
C3446 H3465 0.913 . S
C3447 H3423 0.950 . S
C3447 C3446 1.524 . S
C3447 C3448 1.415 . S
C3448 H3424 0.950 . S
C3448 C3443 1.363 . S
C3448 C3447 1.415 . S
C3449 H3425 0.951 . S
C3449 C3450 1.366 . S
C3449 C3451 1.388 . S
C3450 C3449 1.366 . S
C3450 C3454 1.385 . S
C3451 H3426 0.951 . S
C3451 C3449 1.388 . S
C3451 C3452 1.366 . S
C3452 C3451 1.366 . S
C3452 C3453 1.414 . S
C3452 C3455 1.499 . S
C3453 H3427 0.950 . S
C3453 C3452 1.414 . S
C3453 C3454 1.374 . S
C3454 H3428 0.950 . S
C3454 C3450 1.385 . S
C3454 C3453 1.374 . S
C3455 C3452 1.499 . S
C3455 C3456 1.373 . S
C3455 C3457 1.389 . S
C3456 H3429 0.950 . S
C3456 C3442 1.377 . S
C3456 C3455 1.373 . S
C3457 C3441 1.377 . S
C3457 C3455 1.389 . S
C3457 C3458 1.524 . S
C3458 C3457 1.524 . S
C3458 C3459 1.397 . S
C3458 C3463 1.363 . S
C3459 H3430 0.950 . S
C3459 C3458 1.397 . S
C3459 C3460 1.334 . S
C3460 H3431 0.950 . S
C3460 C3459 1.334 . S
C3460 C3461 1.287 . S
C3461 C3460 1.287 . S
C3461 C3462 1.524 . S
C3461 H3464 0.999 . S
C3462 H3432 0.950 . S
C3462 C3461 1.524 . S
C3462 C3463 1.415 . S
C3463 H3433 0.950 . S
C3463 C3458 1.363 . S
C3463 C3462 1.415 . S
H3464 C3461 0.999 . S
H3465 C3446 0.913 . S
H3466 C3484 0.951 . S
H3467 C3486 0.951 . S
H3468 C3488 0.950 . S
H3469 C3489 0.950 . S
H3470 C3491 0.950 . S
H3471 C3494 0.950 . S
H3472 C3495 0.950 . S
H3473 C3497 0.950 . S
H3474 C3498 0.950 . S
H3475 C3499 0.951 . S
H3476 C3501 0.951 . S
H3477 C3503 0.950 . S
H3478 C3504 0.950 . S
H3479 C3506 0.950 . S
H3480 C3509 0.950 . S
H3481 C3510 0.950 . S
H3482 C3512 0.950 . S
H3483 C3513 0.950 . S
C3484 H3466 0.951 . S
C3484 C3485 1.366 . S
C3484 C3486 1.388 . S
C3485 C3484 1.366 . S
C3485 C3489 1.385 . S
C3486 H3467 0.951 . S
C3486 C3484 1.388 . S
C3486 C3487 1.366 . S
C3487 C3486 1.366 . S
C3487 C3488 1.414 . S
C3487 C3490 1.499 . S
C3488 H3468 0.950 . S
C3488 C3487 1.414 . S
C3488 C3489 1.374 . S
C3489 H3469 0.950 . S
C3489 C3485 1.385 . S
C3489 C3488 1.374 . S
C3490 C3487 1.499 . S
C3490 C3491 1.373 . S
C3490 C3492 1.389 . S
C3491 H3470 0.950 . S
C3491 C3490 1.373 . S
C3491 C3507 1.377 . S
C3492 C3490 1.389 . S
C3492 C3493 1.524 . S
C3492 C3506 1.377 . S
C3493 C3492 1.524 . S
C3493 C3494 1.397 . S
C3493 C3498 1.363 . S
C3494 H3471 0.950 . S
C3494 C3493 1.397 . S
C3494 C3495 1.334 . S
C3495 H3472 0.950 . S
C3495 C3494 1.334 . S
C3495 C3496 1.287 . S
C3496 C3495 1.287 . S
C3496 C3497 1.524 . S
C3496 H3515 0.913 . S
C3497 H3473 0.950 . S
C3497 C3496 1.524 . S
C3497 C3498 1.415 . S
C3498 H3474 0.950 . S
C3498 C3493 1.363 . S
C3498 C3497 1.415 . S
C3499 H3475 0.951 . S
C3499 C3500 1.366 . S
C3499 C3501 1.388 . S
C3500 C3499 1.366 . S
C3500 C3504 1.385 . S
C3501 H3476 0.951 . S
C3501 C3499 1.388 . S
C3501 C3502 1.366 . S
C3502 C3501 1.366 . S
C3502 C3503 1.414 . S
C3502 C3505 1.499 . S
C3503 H3477 0.950 . S
C3503 C3502 1.414 . S
C3503 C3504 1.374 . S
C3504 H3478 0.950 . S
C3504 C3500 1.385 . S
C3504 C3503 1.374 . S
C3505 C3502 1.499 . S
C3505 C3506 1.373 . S
C3505 C3507 1.389 . S
C3506 H3479 0.950 . S
C3506 C3492 1.377 . S
C3506 C3505 1.373 . S
C3507 C3491 1.377 . S
C3507 C3505 1.389 . S
C3507 C3508 1.524 . S
C3508 C3507 1.524 . S
C3508 C3509 1.397 . S
C3508 C3513 1.363 . S
C3509 H3480 0.950 . S
C3509 C3508 1.397 . S
C3509 C3510 1.334 . S
C3510 H3481 0.950 . S
C3510 C3509 1.334 . S
C3510 C3511 1.287 . S
C3511 C3510 1.287 . S
C3511 C3512 1.524 . S
C3511 H3514 0.999 . S
C3512 H3482 0.950 . S
C3512 C3511 1.524 . S
C3512 C3513 1.415 . S
C3513 H3483 0.950 . S
C3513 C3508 1.363 . S
C3513 C3512 1.415 . S
H3514 C3511 0.999 . S
H3515 C3496 0.913 . S
H3516 C3534 0.951 . S
H3517 C3536 0.951 . S
H3518 C3538 0.950 . S
H3519 C3539 0.950 . S
H3520 C3541 0.950 . S
H3521 C3544 0.950 . S
H3522 C3545 0.950 . S
H3523 C3547 0.950 . S
H3524 C3548 0.950 . S
H3525 C3549 0.951 . S
H3526 C3551 0.951 . S
H3527 C3553 0.950 . S
H3528 C3554 0.950 . S
H3529 C3556 0.950 . S
H3530 C3559 0.950 . S
H3531 C3560 0.950 . S
H3532 C3562 0.950 . S
H3533 C3563 0.950 . S
C3534 H3516 0.951 . S
C3534 C3535 1.366 . S
C3534 C3536 1.388 . S
C3535 C3534 1.366 . S
C3535 C3539 1.385 . S
C3536 H3517 0.951 . S
C3536 C3534 1.388 . S
C3536 C3537 1.366 . S
C3537 C3536 1.366 . S
C3537 C3538 1.414 . S
C3537 C3540 1.499 . S
C3538 H3518 0.950 . S
C3538 C3537 1.414 . S
C3538 C3539 1.374 . S
C3539 H3519 0.950 . S
C3539 C3535 1.385 . S
C3539 C3538 1.374 . S
C3540 C3537 1.499 . S
C3540 C3541 1.373 . S
C3540 C3542 1.389 . S
C3541 H3520 0.950 . S
C3541 C3540 1.373 . S
C3541 C3557 1.377 . S
C3542 C3540 1.389 . S
C3542 C3543 1.524 . S
C3542 C3556 1.377 . S
C3543 C3542 1.524 . S
C3543 C3544 1.397 . S
C3543 C3548 1.363 . S
C3544 H3521 0.950 . S
C3544 C3543 1.397 . S
C3544 C3545 1.334 . S
C3545 H3522 0.950 . S
C3545 C3544 1.334 . S
C3545 C3546 1.287 . S
C3546 C3545 1.287 . S
C3546 C3547 1.524 . S
C3546 H3565 0.913 . S
C3547 H3523 0.950 . S
C3547 C3546 1.524 . S
C3547 C3548 1.415 . S
C3548 H3524 0.950 . S
C3548 C3543 1.363 . S
C3548 C3547 1.415 . S
C3549 H3525 0.951 . S
C3549 C3550 1.366 . S
C3549 C3551 1.388 . S
C3550 C3549 1.366 . S
C3550 C3554 1.385 . S
C3551 H3526 0.951 . S
C3551 C3549 1.388 . S
C3551 C3552 1.366 . S
C3552 C3551 1.366 . S
C3552 C3553 1.414 . S
C3552 C3555 1.499 . S
C3553 H3527 0.950 . S
C3553 C3552 1.414 . S
C3553 C3554 1.374 . S
C3554 H3528 0.950 . S
C3554 C3550 1.385 . S
C3554 C3553 1.374 . S
C3555 C3552 1.499 . S
C3555 C3556 1.373 . S
C3555 C3557 1.389 . S
C3556 H3529 0.950 . S
C3556 C3542 1.377 . S
C3556 C3555 1.373 . S
C3557 C3541 1.377 . S
C3557 C3555 1.389 . S
C3557 C3558 1.524 . S
C3558 C3557 1.524 . S
C3558 C3559 1.397 . S
C3558 C3563 1.363 . S
C3559 H3530 0.950 . S
C3559 C3558 1.397 . S
C3559 C3560 1.334 . S
C3560 H3531 0.950 . S
C3560 C3559 1.334 . S
C3560 C3561 1.287 . S
C3561 C3560 1.287 . S
C3561 C3562 1.524 . S
C3561 H3564 0.999 . S
C3562 H3532 0.950 . S
C3562 C3561 1.524 . S
C3562 C3563 1.415 . S
C3563 H3533 0.950 . S
C3563 C3558 1.363 . S
C3563 C3562 1.415 . S
H3564 C3561 0.999 . S
H3565 C3546 0.913 . S
H3566 C3584 0.951 . S
H3567 C3586 0.951 . S
H3568 C3588 0.950 . S
H3569 C3589 0.950 . S
H3570 C3591 0.950 . S
H3571 C3594 0.950 . S
H3572 C3595 0.950 . S
H3573 C3597 0.950 . S
H3574 C3598 0.950 . S
H3575 C3599 0.951 . S
H3576 C3601 0.951 . S
H3577 C3603 0.950 . S
H3578 C3604 0.950 . S
H3579 C3606 0.950 . S
H3580 C3609 0.950 . S
H3581 C3610 0.950 . S
H3582 C3612 0.950 . S
H3583 C3613 0.950 . S
C3584 H3566 0.951 . S
C3584 C3585 1.366 . S
C3584 C3586 1.388 . S
C3585 C3584 1.366 . S
C3585 C3589 1.385 . S
C3586 H3567 0.951 . S
C3586 C3584 1.388 . S
C3586 C3587 1.366 . S
C3587 C3586 1.366 . S
C3587 C3588 1.414 . S
C3587 C3590 1.499 . S
C3588 H3568 0.950 . S
C3588 C3587 1.414 . S
C3588 C3589 1.374 . S
C3589 H3569 0.950 . S
C3589 C3585 1.385 . S
C3589 C3588 1.374 . S
C3590 C3587 1.499 . S
C3590 C3591 1.373 . S
C3590 C3592 1.389 . S
C3591 H3570 0.950 . S
C3591 C3590 1.373 . S
C3591 C3607 1.377 . S
C3592 C3590 1.389 . S
C3592 C3593 1.524 . S
C3592 C3606 1.377 . S
C3593 C3592 1.524 . S
C3593 C3594 1.397 . S
C3593 C3598 1.363 . S
C3594 H3571 0.950 . S
C3594 C3593 1.397 . S
C3594 C3595 1.334 . S
C3595 H3572 0.950 . S
C3595 C3594 1.334 . S
C3595 C3596 1.287 . S
C3596 C3595 1.287 . S
C3596 C3597 1.524 . S
C3596 H3615 0.913 . S
C3597 H3573 0.950 . S
C3597 C3596 1.524 . S
C3597 C3598 1.415 . S
C3598 H3574 0.950 . S
C3598 C3593 1.363 . S
C3598 C3597 1.415 . S
C3599 H3575 0.951 . S
C3599 C3600 1.366 . S
C3599 C3601 1.388 . S
C3600 C3599 1.366 . S
C3600 C3604 1.385 . S
C3601 H3576 0.951 . S
C3601 C3599 1.388 . S
C3601 C3602 1.366 . S
C3602 C3601 1.366 . S
C3602 C3603 1.414 . S
C3602 C3605 1.499 . S
C3603 H3577 0.950 . S
C3603 C3602 1.414 . S
C3603 C3604 1.374 . S
C3604 H3578 0.950 . S
C3604 C3600 1.385 . S
C3604 C3603 1.374 . S
C3605 C3602 1.499 . S
C3605 C3606 1.373 . S
C3605 C3607 1.389 . S
C3606 H3579 0.950 . S
C3606 C3592 1.377 . S
C3606 C3605 1.373 . S
C3607 C3591 1.377 . S
C3607 C3605 1.389 . S
C3607 C3608 1.524 . S
C3608 C3607 1.524 . S
C3608 C3609 1.397 . S
C3608 C3613 1.363 . S
C3609 H3580 0.950 . S
C3609 C3608 1.397 . S
C3609 C3610 1.334 . S
C3610 H3581 0.950 . S
C3610 C3609 1.334 . S
C3610 C3611 1.287 . S
C3611 C3610 1.287 . S
C3611 C3612 1.524 . S
C3611 H3614 0.999 . S
C3612 H3582 0.950 . S
C3612 C3611 1.524 . S
C3612 C3613 1.415 . S
C3613 H3583 0.950 . S
C3613 C3608 1.363 . S
C3613 C3612 1.415 . S
H3614 C3611 0.999 . S
H3615 C3596 0.913 . S
C435 C382 1.321 . S
C450 C5 1.320 . S
C485 C18 1.321 . S
C500 C395 1.320 . S
C535 C408 1.320 . S
C550 C31 1.321 . S
C585 C369 1.321 . S
C600 C44 1.320 . S
C635 C57 1.321 . S
C650 C356 1.320 . S
C685 C317 1.321 . S
C700 C70 1.320 . S
C735 C83 1.321 . S
C750 C330 1.320 . S
C785 C343 1.320 . S
C800 C96 1.321 . S
C835 C109 1.321 . S
C850 C278 1.320 . S
C885 C122 1.321 . S
C900 C291 1.320 . S
C935 C304 1.321 . S
C950 C135 1.320 . S
C985 C148 1.320 . S
C1000 C265 1.321 . S
C1035 C252 1.321 . S
C1050 C161 1.320 . S
C1085 C213 1.321 . S
C1100 C174 1.320 . S
C1135 C187 1.320 . S
C1150 C226 1.321 . S
C1185 C200 1.320 . S
C1200 C239 1.321 . S
C1235 C10 1.349 . S
C1250 C140 1.350 . S
C1285 C153 1.349 . S
C1300 C23 1.350 . S
C1335 C114 1.350 . S
C1350 C36 1.349 . S
C1385 C127 1.350 . S
C1400 C49 1.349 . S
C1435 C62 1.350 . S
C1450 C192 1.349 . S
C1485 C205 1.349 . S
C1500 C75 1.350 . S
C1535 C166 1.350 . S
C1550 C88 1.349 . S
C1585 C179 1.349 . S
C1600 C101 1.350 . S
C1635 C218 1.349 . S
C1650 C348 1.350 . S
C1685 C361 1.349 . S
C1700 C231 1.350 . S
C1735 C322 1.349 . S
C1750 C244 1.350 . S
C1785 C257 1.350 . S
C1800 C335 1.350 . S
C1835 C270 1.350 . S
C1850 C400 1.349 . S
C1885 C413 1.349 . S
C1900 C283 1.350 . S
C1935 C374 1.350 . S
C1950 C296 1.349 . S
C1985 C309 1.349 . S
C2000 C387 1.350 . S
C2035 C0 1.131 . S
C2050 C52 1.132 . S
C2085 C13 1.131 . S
C2100 C65 1.131 . S
C2135 C78 1.131 . S
C2150 C26 1.131 . S
C2185 C39 1.131 . S
C2200 C91 1.131 . S
C2235 C104 1.131 . S
C2250 C156 1.131 . S
C2285 C169 1.131 . S
C2300 C117 1.132 . S
C2335 C182 1.132 . S
C2350 C130 1.132 . S
C2385 C143 1.132 . S
C2400 C195 1.131 . S
C2435 C208 1.132 . S
C2450 C260 1.132 . S
C2485 C273 1.131 . S
C2500 C221 1.131 . S
C2535 C234 1.131 . S
C2550 C286 1.131 . S
C2585 C299 1.131 . S
C2600 C247 1.131 . S
C2635 C364 1.131 . S
C2650 C312 1.132 . S
C2685 C325 1.131 . S
C2700 C377 1.131 . S
C2735 C338 1.132 . S
C2750 C390 1.132 . S
C2785 C351 1.131 . S
C2800 C403 1.132 . S
C2835 C8 1.371 . S
C2850 C73 1.371 . S
C2885 C21 1.372 . S
C2900 C86 1.371 . S
C2935 C99 1.371 . S
C2950 C34 1.371 . S
C2985 C60 1.371 . S
C3000 C47 1.371 . S
C3035 C177 1.371 . S
C3050 C112 1.371 . S
C3085 C190 1.371 . S
C3100 C125 1.371 . S
C3135 C203 1.371 . S
C3150 C138 1.371 . S
C3185 C151 1.371 . S
C3200 C164 1.371 . S
C3235 C216 1.371 . S
C3250 C281 1.372 . S
C3285 C294 1.371 . S
C3300 C229 1.371 . S
C3335 C307 1.370 . S
C3350 C242 1.372 . S
C3385 C255 1.371 . S
C3400 C268 1.372 . S
C3435 C385 1.370 . S
C3450 C320 1.372 . S
C3485 C333 1.371 . S
C3500 C398 1.371 . S
C3535 C346 1.370 . S
C3550 C411 1.372 . S
C3585 C372 1.371 . S
C3600 C359 1.371 . S
