# Generated by pormake.
# Topology fca, (5)-cn, num edge types: 1
# Building blocks:
#     Node 0, Type 0, BuildingBlock: BEQFEK_clean_sbu_0, # of connection points: 5
#     Node 1, Type 0, BuildingBlock: BEQFEK_clean_sbu_0, # of connection points: 5
#     Node 2, Type 0, BuildingBlock: BEQFEK_clean_sbu_0, # of connection points: 5
#     Node 3, Type 0, BuildingBlock: BEQFEK_clean_sbu_0, # of connection points: 5
#     Node 4, Type 0, BuildingBlock: BEQFEK_clean_sbu_0, # of connection points: 5
#     Node 5, Type 0, BuildingBlock: BEQFEK_clean_sbu_0, # of connection points: 5
#     Node 6, Type 0, BuildingBlock: BEQFEK_clean_sbu_0, # of connection points: 5
#     Node 7, Type 0, BuildingBlock: BEQFEK_clean_sbu_0, # of connection points: 5
#     Node 8, Type 0, BuildingBlock: BEQFEK_clean_sbu_0, # of connection points: 5
#     Node 9, Type 0, BuildingBlock: BEQFEK_clean_sbu_0, # of connection points: 5
#     Node 10, Type 0, BuildingBlock: BEQFEK_clean_sbu_0, # of connection points: 5
#     Node 11, Type 0, BuildingBlock: BEQFEK_clean_sbu_0, # of connection points: 5
#     Node 12, Type 0, BuildingBlock: BEQFEK_clean_sbu_0, # of connection points: 5
#     Node 13, Type 0, BuildingBlock: BEQFEK_clean_sbu_0, # of connection points: 5
#     Node 14, Type 0, BuildingBlock: BEQFEK_clean_sbu_0, # of connection points: 5
#     Node 15, Type 0, BuildingBlock: BEQFEK_clean_sbu_0, # of connection points: 5
#     Node 16, Type 0, BuildingBlock: BEQFEK_clean_sbu_0, # of connection points: 5
#     Node 17, Type 0, BuildingBlock: BEQFEK_clean_sbu_0, # of connection points: 5
#     Node 18, Type 0, BuildingBlock: BEQFEK_clean_sbu_0, # of connection points: 5
#     Node 19, Type 0, BuildingBlock: BEQFEK_clean_sbu_0, # of connection points: 5
#     Node 20, Type 0, BuildingBlock: BEQFEK_clean_sbu_0, # of connection points: 5
#     Node 21, Type 0, BuildingBlock: BEQFEK_clean_sbu_0, # of connection points: 5
#     Node 22, Type 0, BuildingBlock: BEQFEK_clean_sbu_0, # of connection points: 5
#     Node 23, Type 0, BuildingBlock: BEQFEK_clean_sbu_0, # of connection points: 5
#     Edge 24, Type (0, 0), BuildingBlock: XUDNAN_clean_linker_2, # of connection points: 2
#     Edge 25, Type (0, 0), BuildingBlock: XUDNAN_clean_linker_2, # of connection points: 2
#     Edge 26, Type (0, 0), BuildingBlock: XUDNAN_clean_linker_2, # of connection points: 2
#     Edge 27, Type (0, 0), BuildingBlock: XUDNAN_clean_linker_2, # of connection points: 2
#     Edge 28, Type (0, 0), BuildingBlock: XUDNAN_clean_linker_2, # of connection points: 2
#     Edge 29, Type (0, 0), BuildingBlock: XUDNAN_clean_linker_2, # of connection points: 2
#     Edge 30, Type (0, 0), BuildingBlock: XUDNAN_clean_linker_2, # of connection points: 2
#     Edge 31, Type (0, 0), BuildingBlock: XUDNAN_clean_linker_2, # of connection points: 2
#     Edge 32, Type (0, 0), BuildingBlock: XUDNAN_clean_linker_2, # of connection points: 2
#     Edge 33, Type (0, 0), BuildingBlock: XUDNAN_clean_linker_2, # of connection points: 2
#     Edge 34, Type (0, 0), BuildingBlock: XUDNAN_clean_linker_2, # of connection points: 2
#     Edge 35, Type (0, 0), BuildingBlock: XUDNAN_clean_linker_2, # of connection points: 2
#     Edge 36, Type (0, 0), BuildingBlock: XUDNAN_clean_linker_2, # of connection points: 2
#     Edge 37, Type (0, 0), BuildingBlock: XUDNAN_clean_linker_2, # of connection points: 2
#     Edge 38, Type (0, 0), BuildingBlock: XUDNAN_clean_linker_2, # of connection points: 2
#     Edge 39, Type (0, 0), BuildingBlock: XUDNAN_clean_linker_2, # of connection points: 2
#     Edge 40, Type (0, 0), BuildingBlock: XUDNAN_clean_linker_2, # of connection points: 2
#     Edge 41, Type (0, 0), BuildingBlock: XUDNAN_clean_linker_2, # of connection points: 2
#     Edge 42, Type (0, 0), BuildingBlock: XUDNAN_clean_linker_2, # of connection points: 2
#     Edge 43, Type (0, 0), BuildingBlock: XUDNAN_clean_linker_2, # of connection points: 2
#     Edge 44, Type (0, 0), BuildingBlock: XUDNAN_clean_linker_2, # of connection points: 2
#     Edge 45, Type (0, 0), BuildingBlock: XUDNAN_clean_linker_2, # of connection points: 2
#     Edge 46, Type (0, 0), BuildingBlock: XUDNAN_clean_linker_2, # of connection points: 2
#     Edge 47, Type (0, 0), BuildingBlock: XUDNAN_clean_linker_2, # of connection points: 2
#     Edge 48, Type (0, 0), BuildingBlock: XUDNAN_clean_linker_2, # of connection points: 2
#     Edge 49, Type (0, 0), BuildingBlock: XUDNAN_clean_linker_2, # of connection points: 2
#     Edge 50, Type (0, 0), BuildingBlock: XUDNAN_clean_linker_2, # of connection points: 2
#     Edge 51, Type (0, 0), BuildingBlock: XUDNAN_clean_linker_2, # of connection points: 2
#     Edge 52, Type (0, 0), BuildingBlock: XUDNAN_clean_linker_2, # of connection points: 2
#     Edge 53, Type (0, 0), BuildingBlock: XUDNAN_clean_linker_2, # of connection points: 2
#     Edge 54, Type (0, 0), BuildingBlock: XUDNAN_clean_linker_2, # of connection points: 2
#     Edge 55, Type (0, 0), BuildingBlock: XUDNAN_clean_linker_2, # of connection points: 2
#     Edge 56, Type (0, 0), BuildingBlock: XUDNAN_clean_linker_2, # of connection points: 2
#     Edge 57, Type (0, 0), BuildingBlock: XUDNAN_clean_linker_2, # of connection points: 2
#     Edge 58, Type (0, 0), BuildingBlock: XUDNAN_clean_linker_2, # of connection points: 2
#     Edge 59, Type (0, 0), BuildingBlock: XUDNAN_clean_linker_2, # of connection points: 2
#     Edge 60, Type (0, 0), BuildingBlock: XUDNAN_clean_linker_2, # of connection points: 2
#     Edge 61, Type (0, 0), BuildingBlock: XUDNAN_clean_linker_2, # of connection points: 2
#     Edge 62, Type (0, 0), BuildingBlock: XUDNAN_clean_linker_2, # of connection points: 2
#     Edge 63, Type (0, 0), BuildingBlock: XUDNAN_clean_linker_2, # of connection points: 2
#     Edge 64, Type (0, 0), BuildingBlock: XUDNAN_clean_linker_2, # of connection points: 2
#     Edge 65, Type (0, 0), BuildingBlock: XUDNAN_clean_linker_2, # of connection points: 2
#     Edge 66, Type (0, 0), BuildingBlock: XUDNAN_clean_linker_2, # of connection points: 2
#     Edge 67, Type (0, 0), BuildingBlock: XUDNAN_clean_linker_2, # of connection points: 2
#     Edge 68, Type (0, 0), BuildingBlock: XUDNAN_clean_linker_2, # of connection points: 2
#     Edge 69, Type (0, 0), BuildingBlock: XUDNAN_clean_linker_2, # of connection points: 2
#     Edge 70, Type (0, 0), BuildingBlock: XUDNAN_clean_linker_2, # of connection points: 2
#     Edge 71, Type (0, 0), BuildingBlock: XUDNAN_clean_linker_2, # of connection points: 2
#     Edge 72, Type (0, 0), BuildingBlock: XUDNAN_clean_linker_2, # of connection points: 2
#     Edge 73, Type (0, 0), BuildingBlock: XUDNAN_clean_linker_2, # of connection points: 2
#     Edge 74, Type (0, 0), BuildingBlock: XUDNAN_clean_linker_2, # of connection points: 2
#     Edge 75, Type (0, 0), BuildingBlock: XUDNAN_clean_linker_2, # of connection points: 2
#     Edge 76, Type (0, 0), BuildingBlock: XUDNAN_clean_linker_2, # of connection points: 2
#     Edge 77, Type (0, 0), BuildingBlock: XUDNAN_clean_linker_2, # of connection points: 2
#     Edge 78, Type (0, 0), BuildingBlock: XUDNAN_clean_linker_2, # of connection points: 2
#     Edge 79, Type (0, 0), BuildingBlock: XUDNAN_clean_linker_2, # of connection points: 2
#     Edge 80, Type (0, 0), BuildingBlock: XUDNAN_clean_linker_2, # of connection points: 2
#     Edge 81, Type (0, 0), BuildingBlock: XUDNAN_clean_linker_2, # of connection points: 2
#     Edge 82, Type (0, 0), BuildingBlock: XUDNAN_clean_linker_2, # of connection points: 2
#     Edge 83, Type (0, 0), BuildingBlock: XUDNAN_clean_linker_2, # of connection points: 2
# Relax obj value: 0.501
# Max RMSD: 0.292
# Mean RMSD: 0.292
data_MOF--net-fca--node1-BEQFEK_clean_sbu_0--edge1-XUDNAN_clean_linker_2
_symmetry_space_group_name_H-M    P1
_symmetry_Int_Tables_number       1
_symmetry_cell_setting            triclinic
loop_
_symmetry_equiv_pos_as_xyz
'x, y, z'
_cell_length_a     55.277764
_cell_length_b     55.217018
_cell_length_c     55.313579
_cell_angle_alpha  90.021625
_cell_angle_beta   90.016995
_cell_angle_gamma 89.988274
loop_
_atom_site_label
_atom_site_type_symbol
_atom_site_fract_x
_atom_site_fract_y
_atom_site_fract_z
_atom_type_partial_charge
Co0 Co 0.04303 0.38165 0.29109 0.0
Co1 Co 0.06208 0.39941 0.34065 0.0
C2 C 0.0926 0.40316 0.29475 0.0
O3 O 0.07679 0.39218 0.28206 0.0
O4 O 0.08953 0.40566 0.31746 0.0
C5 C 0.03037 0.37884 0.24259 0.0
O6 O 0.04577 0.39695 0.24194 0.0
C7 C 0.09296 0.39431 0.38241 0.0
C8 C 0.07853 0.42158 0.40785 0.0
C9 C 0.09624 0.40395 0.40534 0.0
N10 N 0.07437 0.40578 0.3719 0.0
N11 N 0.06596 0.4223 0.387 0.0
C12 C 0.10554 0.37307 0.37123 0.0
H13 H 0.10826 0.35854 0.38482 0.0
H14 H 0.12351 0.37888 0.36446 0.0
H15 H 0.09495 0.36594 0.35574 0.0
C16 C 0.02139 0.34345 0.32209 0.0
N17 N 0.03813 0.361 0.31857 0.0
N18 N 0.04594 0.36853 0.33971 0.0
C19 C 0.03437 0.35595 0.35731 0.0
C20 C 0.01836 0.3394 0.34682 0.0
C21 C 1.00549 0.33385 0.30241 0.0
H22 H 0.01681 0.32784 0.28698 0.0
H23 H 0.99429 0.31846 0.30886 0.0
H24 H 0.99343 0.34855 0.29592 0.0
O25 O 0.02627 0.41265 0.29678 0.0
O26 O 0.03854 0.42482 0.33306 0.0
H27 H 0.03017 0.38228 0.38537 0.0
H28 H 0.02258 0.35167 0.39445 0.0
C29 C 0.03509 0.36289 0.38345 0.0
H30 H 0.05376 0.36056 0.39039 0.0
H31 H 0.0514 0.43368 0.38327 0.0
O32 O 0.02713 0.36782 0.26245 0.0
C33 C 0.02619 0.42806 0.31391 0.0
Co34 Co 0.98933 0.64855 0.28326 0.0
Co35 Co 0.96581 0.6351 0.33218 0.0
C36 C 0.93833 0.63123 0.28411 0.0
O37 O 0.95574 0.64036 0.27206 0.0
O38 O 0.93967 0.62962 0.30709 0.0
C39 C 1.00174 0.66946 0.23603 0.0
O40 O 0.97864 0.67335 0.23202 0.0
C41 C 0.93282 0.64393 0.37205 0.0
C42 C 0.94551 0.61803 0.39974 0.0
C43 C 0.9287 0.63618 0.39554 0.0
N44 N 0.95143 0.63127 0.363 0.0
N45 N 0.95875 0.61557 0.37947 0.0
C46 C 0.91925 0.66279 0.35809 0.0
H47 H 0.91872 0.65796 0.33865 0.0
H48 H 0.92874 0.68042 0.35969 0.0
H49 H 0.90054 0.66483 0.36507 0.0
C50 C 0.01054 0.68805 0.31315 0.0
N51 N 0.99402 0.67024 0.30996 0.0
N52 N 0.98444 0.66466 0.33095 0.0
C53 C 0.99457 0.6789 0.34825 0.0
C54 C 0.0116 0.69437 0.33762 0.0
C55 C 0.02787 0.69566 0.29376 0.0
H56 H 0.03733 0.67943 0.28667 0.0
H57 H 0.01764 0.70396 0.27862 0.0
H58 H 0.0417 0.70857 0.30038 0.0
O59 O 1.00273 0.61657 0.29131 0.0
O60 O 0.98754 0.60737 0.32733 0.0
H61 H 0.99801 0.69097 0.38545 0.0
H62 H 0.96932 0.67798 0.3775 0.0
C63 C 0.98908 0.67662 0.37464 0.0
H64 H 0.99501 0.65855 0.38112 0.0
H65 H 0.97307 0.60349 0.37703 0.0
O66 O 0.00847 0.65979 0.25573 0.0
C67 C 1.00043 0.60205 0.30902 0.0
Co68 Co 0.04762 0.64003 0.74843 0.0
Co69 Co 0.08031 0.63322 0.70357 0.0
C70 C 0.09954 0.62541 0.75448 0.0
O71 O 0.07983 0.63327 0.76339 0.0
O72 O 0.10256 0.62495 0.73163 0.0
C73 C 0.02521 0.6677 0.78731 0.0
O74 O 0.03868 0.68621 0.78095 0.0
C75 C 0.11414 0.64749 0.66498 0.0
C76 C 0.10786 0.61813 0.63854 0.0
C77 C 0.12021 0.63969 0.64188 0.0
N78 N 0.09862 0.63144 0.67456 0.0
N79 N 0.09545 0.61363 0.65891 0.0
C80 C 0.12096 0.67084 0.67691 0.0
H81 H 0.11949 0.68608 0.66391 0.0
H82 H 0.14006 0.66975 0.68299 0.0
H83 H 0.10931 0.6743 0.69289 0.0
C84 C 0.02688 0.67918 0.71771 0.0
N85 N 0.04549 0.66421 0.72342 0.0
N86 N 0.0595 0.66161 0.70434 0.0
C87 C 0.04996 0.6748 0.68592 0.0
C88 C 0.02924 0.68693 0.69386 0.0
C89 C 1.00432 0.68153 0.73256 0.0
H90 H 0.99987 0.66398 0.74119 0.0
H91 H 1.00725 0.6953 0.74683 0.0
H92 H 0.98865 0.68749 0.72152 0.0
O93 O 0.03625 0.60859 0.73506 0.0
O94 O 0.05856 0.60575 0.70175 0.0
H95 H 0.05885 0.6523 0.65557 0.0
H96 H 0.04404 0.68036 0.6475 0.0
C97 C 0.05722 0.67182 0.65999 0.0
H98 H 0.07502 0.6805 0.65709 0.0
H99 H 0.08391 0.59894 0.66166 0.0
O100 O 0.02633 0.64788 0.77571 0.0
C101 C 0.04229 0.5976 0.71571 0.0
Co102 Co 0.98399 0.38612 0.74385 0.0
Co103 Co 0.95268 0.39796 0.69908 0.0
C104 C 0.9342 0.40634 0.7506 0.0
O105 O 0.95294 0.3962 0.75935 0.0
O106 O 0.93139 0.40759 0.72772 0.0
C107 C 1.00331 0.37821 0.79149 0.0
O108 O 0.98435 0.39039 0.79905 0.0
C109 C 0.91702 0.38706 0.66128 0.0
C110 C 0.92281 0.41765 0.63617 0.0
C111 C 0.90952 0.39661 0.63927 0.0
N112 N 0.93397 0.40177 0.67058 0.0
N113 N 0.93704 0.42023 0.6557 0.0
C114 C 0.90995 0.3634 0.6724 0.0
H115 H 0.90967 0.34893 0.65847 0.0
H116 H 0.8915 0.36502 0.68013 0.0
H117 H 0.9226 0.35843 0.68716 0.0
C118 C 0.99957 0.34544 0.71341 0.0
N119 N 0.9827 0.36239 0.71869 0.0
N120 N 0.97057 0.36777 0.69898 0.0
C121 C 0.98018 0.35496 0.68032 0.0
C122 C 0.99882 0.34002 0.68883 0.0
C123 C 0.01944 0.33831 0.73035 0.0
H124 H 0.01161 0.33314 0.74806 0.0
H125 H 0.03008 0.32287 0.72312 0.0
H126 H 0.03172 0.35397 0.73312 0.0
O127 O 0.99863 0.41641 0.73085 0.0
O128 O 0.97703 0.42308 0.69757 0.0
H129 H 0.97595 0.38075 0.65167 0.0
H130 H 0.98875 0.35203 0.64217 0.0
C131 C 0.97542 0.36084 0.65433 0.0
H132 H 0.95708 0.35443 0.64939 0.0
H133 H 0.94939 0.43424 0.65852 0.0
O134 O 1.00608 0.37441 0.76906 0.0
C135 C 0.99408 0.4287 0.71188 0.0
Co136 Co 0.2883 0.05097 0.38745 0.0
Co137 Co 0.33567 0.0799 0.39468 0.0
C138 C 0.28625 0.10202 0.40595 0.0
O139 O 0.27496 0.08322 0.39875 0.0
O140 O 0.30922 0.10315 0.40393 0.0
C141 C 0.24172 0.03512 0.36795 0.0
O142 O 0.23761 0.05759 0.3613 0.0
C143 C 0.37584 0.11267 0.38226 0.0
C144 C 0.40114 0.10486 0.41223 0.0
C145 C 0.39868 0.11823 0.3912 0.0
N146 N 0.36553 0.09658 0.39724 0.0
N147 N 0.38055 0.09239 0.41536 0.0
C148 C 0.36465 0.1208 0.359 0.0
H149 H 0.3781 0.11994 0.34413 0.0
H150 H 0.35862 0.13987 0.36089 0.0
H151 H 0.34869 0.10948 0.35448 0.0
C152 C 0.31621 0.03167 0.34598 0.0
N153 N 0.31238 0.04976 0.36211 0.0
N154 N 0.3328 0.06153 0.3654 0.0
C155 C 0.35029 0.05085 0.3519 0.0
C156 C 0.3404 0.03164 0.33878 0.0
C157 C 0.2986 0.01155 0.34163 0.0
H158 H 0.29584 1.00133 0.35868 0.0
H159 H 0.28095 0.01925 0.336 0.0
H160 H 0.30513 0.99895 0.32742 0.0
O161 O 0.30237 0.03601 0.41681 0.0
O162 O 0.33688 0.05624 0.42047 0.0
H163 H 0.38092 0.05486 0.37537 0.0
H164 H 0.38804 0.04142 0.34637 0.0
C165 C 0.37678 0.05515 0.35575 0.0
H166 H 0.38164 0.07323 0.34861 0.0
H167 H 0.37707 0.0804 0.42951 0.0
O168 O 0.26128 0.02977 0.37872 0.0
C169 C 0.32235 0.03997 0.42755 0.0
Co170 Co 0.75199 0.98655 0.39209 0.0
Co171 Co 0.70505 0.9562 0.3934 0.0
C172 C 0.75383 0.93449 0.40747 0.0
O173 O 0.76496 0.95407 0.40252 0.0
O174 O 0.73118 0.93271 0.40334 0.0
C175 C 0.80024 1.0026 0.37877 0.0
O176 O 0.80474 0.98009 0.37253 0.0
C177 C 0.66845 0.92123 0.37725 0.0
C178 C 0.64016 0.9266 0.405 0.0
C179 C 0.64591 0.91308 0.38473 0.0
N180 N 0.67558 0.93882 0.39241 0.0
N181 N 0.65867 0.94181 0.40904 0.0
C182 C 0.68373 0.91166 0.35706 0.0
H183 H 0.70319 0.91449 0.36117 0.0
H184 H 0.67948 0.92165 0.34021 0.0
H185 H 0.68004 0.89214 0.35401 0.0
C186 C 0.72751 1.00732 0.34921 0.0
N187 N 0.73017 0.98869 0.36488 0.0
N188 N 0.70992 0.97621 0.36546 0.0
C189 C 0.69364 0.98684 0.35046 0.0
C190 C 0.70421 1.00703 0.33942 0.0
C191 C 0.74541 0.02751 0.34686 0.0
H192 H 0.74621 0.03775 0.36411 0.0
H193 H 0.76362 0.01988 0.34327 0.0
H194 H 0.74048 0.04004 0.33197 0.0
O195 O 0.73533 0.99925 0.42111 0.0
O196 O 0.70128 0.97795 0.42073 0.0
H197 H 0.66058 0.98216 0.37005 0.0
H198 H 0.65655 0.99419 0.33985 0.0
C199 C 0.66712 0.98135 0.3511 0.0
H200 H 0.66404 0.96272 0.34435 0.0
H201 H 0.65977 0.95422 0.42323 0.0
O202 O 0.77953 0.00826 0.38691 0.0
C203 C 0.71482 0.99393 0.43011 0.0
Co204 Co 0.28978 0.99559 0.63807 0.0
Co205 Co 0.33722 0.96553 0.63566 0.0
C206 C 0.28842 0.94289 0.62391 0.0
O207 O 0.27728 0.96255 0.62867 0.0
O208 O 0.31118 0.94128 0.62751 0.0
C209 C 0.24205 0.01158 0.65357 0.0
O210 O 0.23876 0.98954 0.66186 0.0
C211 C 0.37503 0.93092 0.65015 0.0
C212 C 0.40407 0.9404 0.62438 0.0
C213 C 0.39853 0.92491 0.6433 0.0
N214 N 0.36736 0.94911 0.63596 0.0
N215 N 0.38469 0.95448 0.62043 0.0
C216 C 0.36043 0.92101 0.67065 0.0
H217 H 0.37188 0.91892 0.687 0.0
H218 H 0.35321 0.90298 0.66553 0.0
H219 H 0.34491 0.93313 0.6747 0.0
C220 C 0.31513 0.01669 0.68064 0.0
N221 N 0.31266 0.99865 0.66424 0.0
N222 N 0.33295 0.98624 0.66325 0.0
C223 C 0.34905 0.99618 0.67889 0.0
C224 C 0.33838 0.01594 0.69058 0.0
C225 C 0.29713 0.0368 0.68331 0.0
H226 H 0.29372 0.04507 0.66536 0.0
H227 H 0.27977 0.02925 0.68997 0.0
H228 H 0.30344 0.05112 0.69585 0.0
O229 O 0.30501 1.00763 0.60824 0.0
O230 O 0.33907 0.98634 0.60731 0.0
H231 H 0.38457 0.99795 0.69552 0.0
H232 H 0.37554 0.96861 0.68469 0.0
C233 C 0.37486 0.98827 0.68087 0.0
H234 H 0.38416 0.99147 0.66338 0.0
H235 H 0.38342 0.96797 0.60732 0.0
O236 O 0.26198 0.01711 0.6436 0.0
C237 C 0.32493 1.00197 0.5982 0.0
Co238 Co 0.73825 0.03598 0.64252 0.0
Co239 Co 0.68977 0.0638 0.63733 0.0
C240 C 0.73868 0.08766 0.62622 0.0
O241 O 0.75064 0.0691 0.633 0.0
O242 O 0.71565 0.08795 0.62813 0.0
C243 C 0.78381 0.01842 0.66328 0.0
O244 O 0.78614 0.0393 0.67443 0.0
C245 C 0.65208 0.10041 0.64629 0.0
C246 C 0.62201 0.08567 0.6244 0.0
C247 C 0.62843 0.10502 0.639 0.0
N248 N 0.65914 0.07933 0.63642 0.0
N249 N 0.64111 0.07067 0.62333 0.0
C250 C 0.6682 0.11604 0.66141 0.0
H251 H 0.68744 0.11288 0.65673 0.0
H252 H 0.66577 0.11119 0.68072 0.0
H253 H 0.66367 0.13547 0.65898 0.0
C254 C 0.71234 0.01606 0.68555 0.0
N255 N 0.71469 0.03314 0.66814 0.0
N256 N 0.69414 0.04498 0.66613 0.0
C257 C 0.67808 0.03576 0.6822 0.0
C258 C 0.68899 0.01699 0.69519 0.0
C259 C 0.73059 0.99645 0.68974 0.0
H260 H 0.7355 0.98801 0.67222 0.0
H261 H 0.74716 1.00449 0.6977 0.0
H262 H 0.72374 0.98209 0.70193 0.0
O263 O 0.72428 0.02281 0.61244 0.0
O264 O 0.68876 0.0414 0.61016 0.0
H265 H 0.64243 0.03669 0.66737 0.0
H266 H 0.64326 0.03631 0.70008 0.0
C267 C 0.65217 0.04343 0.68358 0.0
H268 H 0.65105 0.06347 0.68359 0.0
H269 H 0.64189 0.05456 0.61349 0.0
O270 O 0.76574 0.01469 0.64961 0.0
C271 C 0.70419 0.02656 0.60185 0.0
Co272 Co 0.3988 0.28693 0.04719 0.0
Co273 Co 0.40436 0.3356 0.07448 0.0
C274 C 0.41742 0.28786 0.09841 0.0
O275 O 0.41076 0.27599 0.07983 0.0
O276 O 0.41437 0.31075 0.09924 0.0
C277 C 0.40529 0.24048 0.02844 0.0
O278 O 0.4253 0.24243 0.04114 0.0
C279 C 0.39238 0.37496 0.10787 0.0
C280 C 0.41751 0.40356 0.09564 0.0
C281 C 0.39928 0.39881 0.11219 0.0
N282 N 0.40575 0.36636 0.08953 0.0
N283 N 0.42103 0.38336 0.0826 0.0
C284 C 0.37225 0.36094 0.11933 0.0
H285 H 0.3558 0.37237 0.12091 0.0
H286 H 0.37782 0.35522 0.13773 0.0
H287 H 0.36809 0.34448 0.10857 0.0
C288 C 0.35606 0.31236 0.02741 0.0
N289 N 0.37299 0.31019 0.04495 0.0
N290 N 0.37498 0.33095 0.05643 0.0
C291 C 0.35926 0.34701 0.04651 0.0
C292 C 0.34661 0.33585 0.02762 0.0
C293 C 0.35287 0.29387 0.00783 0.0
H294 H 0.3708 0.28929 1.00006 0.0
H295 H 0.34517 0.27709 0.01574 0.0
H296 H 0.34102 0.3003 0.99301 0.0
O297 O 0.42753 0.3009 0.0314 0.0
O298 O 0.43052 0.336 0.05088 0.0
H299 H 0.37535 0.38219 0.04828 0.0
H300 H 0.34273 0.38262 0.04469 0.0
C301 C 0.35814 0.3732 0.05341 0.0
H302 H 0.35601 0.3748 0.07321 0.0
H303 H 0.43348 0.38139 0.06857 0.0
O304 O 0.39016 0.25774 0.02883 0.0
C305 C 0.43798 0.32112 0.03504 0.0
Co306 Co 0.3857 0.74101 0.99794 0.0
Co307 Co 0.39205 0.69672 0.96448 0.0
C308 C 0.39967 0.74853 0.94637 0.0
O309 O 0.39203 0.75715 0.96631 0.0
O310 O 0.40014 0.72565 0.94297 0.0
C311 C 0.36356 0.784 0.01774 0.0
O312 O 0.353 0.78649 0.99661 0.0
C313 C 0.37946 0.66187 0.92645 0.0
C314 C 0.40673 0.63327 0.93284 0.0
C315 C 0.38745 0.63951 0.91814 0.0
N316 N 0.39331 0.66835 0.9453 0.0
N317 N 0.40974 0.65132 0.94885 0.0
C318 C 0.35989 0.67747 0.91609 0.0
H319 H 0.36408 0.69687 0.91928 0.0
H320 H 0.34251 0.67339 0.9252 0.0
H321 H 0.35774 0.67399 0.89644 0.0
C322 C 0.34408 0.71219 0.01579 0.0
N323 N 0.36119 0.71657 0.99888 0.0
N324 N 0.36363 0.69737 0.98502 0.0
C325 C 0.34827 0.67992 0.99309 0.0
C326 C 0.3351 0.68879 0.01284 0.0
C327 C 0.33943 0.7286 0.03687 0.0
H328 H 0.33087 0.74554 0.03032 0.0
H329 H 0.32756 0.72015 0.05063 0.0
H330 H 0.35684 0.73334 0.04563 0.0
O331 O 0.41721 0.72721 0.00827 0.0
O332 O 0.41983 0.694 0.98577 0.0
H333 H 0.33437 0.64319 0.99299 0.0
H334 H 0.34362 0.65485 0.96403 0.0
C335 C 0.34794 0.65456 0.98357 0.0
H336 H 0.36619 0.64643 0.98563 0.0
H337 H 0.42289 0.65188 0.96238 0.0
O338 O 0.37782 0.76635 0.02137 0.0
C339 C 0.42824 0.70797 1.00191 0.0
Co340 Co 0.6483 0.28721 0.9851 0.0
Co341 Co 0.64531 0.33518 0.95624 0.0
C342 C 0.6342 0.28773 0.93191 0.0
O343 O 0.63873 0.27648 0.9515 0.0
O344 O 0.63788 0.3105 0.93054 0.0
C345 C 0.67477 0.24571 1.00487 0.0
O346 O 0.69422 0.25349 0.99367 0.0
C347 C 0.65559 0.37487 0.92237 0.0
C348 C 0.63315 0.40407 0.93802 0.0
C349 C 0.6489 0.39894 0.91922 0.0
N350 N 0.6443 0.36638 0.94212 0.0
N351 N 0.63071 0.38382 0.95121 0.0
C352 C 0.67374 0.36056 0.9083 0.0
H353 H 0.67951 0.34435 0.91868 0.0
H354 H 0.68971 0.37193 0.90392 0.0
H355 H 0.66539 0.35444 0.8911 0.0
C356 C 0.68896 0.31443 0.00855 0.0
N357 N 0.67365 0.31099 0.9897 0.0
N358 N 0.67327 0.33081 0.9765 0.0
C359 C 0.68882 0.34717 0.9862 0.0
C360 C 0.69944 0.33739 1.00695 0.0
C361 C 0.68951 0.29856 0.03052 0.0
H362 H 0.67205 0.28897 0.03269 0.0
H363 H 0.70427 0.2851 0.02864 0.0
H364 H 0.69302 0.30934 0.0471 0.0
O365 O 0.61833 0.30073 0.99852 0.0
O366 O 0.617 0.33493 0.97743 0.0
H367 H 0.67583 0.38339 0.98228 0.0
H368 H 0.70841 0.38102 0.98431 0.0
C369 C 0.69181 0.37244 0.97697 0.0
H370 H 0.69291 0.37222 0.95699 0.0
H371 H 0.62003 0.38204 0.96665 0.0
O372 O 0.65504 0.2574 1.00331 0.0
C373 C 0.60811 0.32063 0.99305 0.0
Co374 Co 0.63981 0.74753 0.04542 0.0
Co375 Co 0.63543 0.69929 0.07358 0.0
C376 C 0.62302 0.747 0.09748 0.0
O377 O 0.62884 0.75843 0.07837 0.0
O378 O 0.62629 0.72416 0.09875 0.0
C379 C 0.63307 0.7945 0.02873 0.0
O380 O 0.61376 0.79214 0.04238 0.0
C381 C 0.64782 0.65981 0.10683 0.0
C382 C 0.62335 0.63087 0.09397 0.0
C383 C 0.64114 0.63592 0.11088 0.0
N384 N 0.63456 0.66838 0.08839 0.0
N385 N 0.61972 0.65112 0.08102 0.0
C386 C 0.66784 0.67369 0.11861 0.0
H387 H 0.67258 0.68987 0.10769 0.0
H388 H 0.68399 0.66196 0.12093 0.0
H389 H 0.66184 0.67977 0.13676 0.0
C390 C 0.68144 0.7216 0.02412 0.0
N391 N 0.66577 0.72442 0.04269 0.0
N392 N 0.66422 0.70388 0.05462 0.0
C393 C 0.67888 0.68737 0.04384 0.0
C394 C 0.69046 0.69798 0.02403 0.0
C395 C 0.68413 0.73967 1.00416 0.0
H396 H 0.66662 0.74155 0.99452 0.0
H397 H 0.68883 0.75759 0.01194 0.0
H398 H 0.69837 0.73417 0.99111 0.0
O399 O 0.61053 0.73347 0.03046 0.0
O400 O 0.60845 0.69886 0.05088 0.0
H401 H 0.65904 0.65418 0.04549 0.0
H402 H 0.69057 0.65043 0.03753 0.0
C403 C 0.67768 0.66079 0.04893 0.0
H404 H 0.68197 0.65752 0.06822 0.0
H405 H 0.6075 0.65298 0.06677 0.0
O406 O 0.64784 0.77698 0.02722 0.0
C407 C 0.60031 0.7133 0.03498 0.0
Co408 Co 0.54337 0.88005 0.79205 0.0
Co409 Co 0.56377 0.90041 0.84013 0.0
C410 C 0.59345 0.90115 0.79381 0.0
O411 O 0.57707 0.89006 0.78193 0.0
O412 O 0.59102 0.90468 0.81646 0.0
C413 C 0.52918 0.87503 0.74423 0.0
O414 O 0.545 0.89267 0.74223 0.0
C415 C 0.59455 0.89801 0.88224 0.0
C416 C 0.57888 0.92566 0.90651 0.0
C417 C 0.5969 0.90824 0.90501 0.0
N418 N 0.57611 0.90886 0.87088 0.0
N419 N 0.56707 0.92573 0.88521 0.0
C420 C 0.60743 0.8763 0.87237 0.0
H421 H 0.6086 0.86191 0.88633 0.0
H422 H 0.62609 0.88151 0.86715 0.0
H423 H 0.59796 0.86922 0.85614 0.0
C424 C 0.52218 0.84377 0.82583 0.0
N425 N 0.53892 0.861 0.82084 0.0
N426 N 0.54728 0.86979 0.84127 0.0
C427 C 0.53598 0.85854 0.85986 0.0
C428 C 0.51957 0.84152 0.85085 0.0
C429 C 0.50556 0.83336 0.80719 0.0
H430 H 0.49369 0.84793 0.80009 0.0
H431 H 0.51635 0.82617 0.79187 0.0
H432 H 0.49416 0.81869 0.8148 0.0
O433 O 0.52682 0.91144 0.79612 0.0
O434 O 0.54047 0.92544 0.83121 0.0
H435 H 0.53239 0.88586 0.88707 0.0
H436 H 0.52662 0.85541 0.89783 0.0
C437 C 0.53796 0.86661 0.88563 0.0
H438 H 0.55705 0.8652 0.89157 0.0
H439 H 0.55229 0.93662 0.88082 0.0
O440 O 0.52657 0.86485 0.76461 0.0
C441 C 0.5275 0.92776 0.81236 0.0
Co442 Co 0.49124 0.1482 0.78036 0.0
Co443 Co 0.4689 0.13455 0.82988 0.0
C444 C 0.43945 0.13192 0.78343 0.0
O445 O 0.45699 0.14009 0.77085 0.0
O446 O 0.44115 0.13066 0.80642 0.0
C447 C 0.50254 0.16903 0.73237 0.0
O448 O 0.47936 0.17199 0.728 0.0
C449 C 0.4392 0.14085 0.87292 0.0
C450 C 0.45604 0.11501 0.89837 0.0
C451 C 0.43806 0.13243 0.89655 0.0
N452 N 0.45707 0.12906 0.86151 0.0
N453 N 0.46677 0.11329 0.87663 0.0
C454 C 0.42564 0.16158 0.86195 0.0
H455 H 0.42455 0.17691 0.87489 0.0
H456 H 0.40696 0.15566 0.8576 0.0
H457 H 0.43454 0.16763 0.845 0.0
C458 C 0.51436 0.18651 0.81039 0.0
N459 N 0.49726 0.16923 0.80739 0.0
N460 N 0.48788 0.16381 0.82851 0.0
C461 C 0.49858 0.17776 0.84568 0.0
C462 C 0.51591 0.19275 0.83486 0.0
C463 C 0.5317 0.19357 0.79081 0.0
H464 H 0.5217 0.203 0.77619 0.0
H465 H 0.54651 0.20532 0.79746 0.0
H466 H 0.5399 0.17699 0.78301 0.0
O467 O 0.50519 0.11618 0.78685 0.0
O468 O 0.48983 0.10676 0.8227 0.0
H469 H 0.49911 0.15785 0.87883 0.0
H470 H 0.50209 0.19032 0.88271 0.0
C471 C 0.49316 0.17582 0.87212 0.0
H472 H 0.47341 0.17727 0.87496 0.0
H473 H 0.4813 0.10201 0.87237 0.0
O474 O 0.50936 0.16003 0.75234 0.0
C475 C 0.50268 0.1015 0.80437 0.0
Co476 Co 0.55797 0.14577 0.24325 0.0
Co477 Co 0.58679 0.13644 0.19628 0.0
C478 C 0.60868 0.12759 0.24641 0.0
O479 O 0.59039 0.1371 0.25666 0.0
O480 O 0.60987 0.12642 0.22338 0.0
C481 C 0.53728 0.14476 0.29006 0.0
O482 O 0.55195 0.12625 0.29294 0.0
C483 C 0.62156 0.14692 0.15745 0.0
C484 C 0.60927 0.12134 0.12927 0.0
C485 C 0.62587 0.13956 0.13384 0.0
N486 N 0.60317 0.13373 0.16627 0.0
N487 N 0.59623 0.11816 0.1495 0.0
C488 C 0.6329 0.16768 0.17062 0.0
H489 H 0.62221 0.17236 0.18697 0.0
H490 H 0.6343 0.18367 0.15854 0.0
H491 H 0.65146 0.16252 0.17627 0.0
C492 C 0.53994 0.18743 0.21527 0.0
N493 N 0.55676 0.16998 0.21867 0.0
N494 N 0.56865 0.16639 0.19841 0.0
C495 C 0.55941 0.18142 0.18128 0.0
C496 C 0.54085 0.19545 0.19138 0.0
C497 C 0.52034 0.19271 0.23324 0.0
H498 H 0.52858 0.19962 0.25018 0.0
H499 H 0.50697 0.20602 0.22648 0.0
H500 H 0.51061 0.17567 0.23753 0.0
O501 O 0.54345 0.1154 0.23051 0.0
O502 O 0.56268 0.11096 0.19549 0.0
H503 H 0.5627 0.16227 0.14783 0.0
H504 H 0.55681 0.1944 0.14435 0.0
C505 C 0.5665 0.18058 0.15519 0.0
H506 H 0.58619 0.18386 0.15358 0.0
H507 H 0.58199 0.10593 0.15154 0.0
O508 O 0.5375 0.15622 0.27022 0.0
C509 C 0.54688 0.10417 0.21067 0.0
Co510 Co 0.48896 0.89485 0.24366 0.0
Co511 Co 0.4561 0.90045 0.19904 0.0
C512 C 0.43777 0.90946 0.25065 0.0
O513 O 0.45737 0.90149 0.25977 0.0
O514 O 0.43487 0.90971 0.22775 0.0
C515 C 0.51021 0.87372 0.28666 0.0
O516 O 0.48944 0.86269 0.2901 0.0
C517 C 0.41768 0.88567 0.16596 0.0
C518 C 0.42282 0.91128 0.1357 0.0
C519 C 0.40869 0.89207 0.14342 0.0
N520 N 0.43636 0.90027 0.17112 0.0
N521 N 0.43918 0.91573 0.15312 0.0
C522 C 0.40827 0.86675 0.1829 0.0
H523 H 0.41812 0.84952 0.17989 0.0
H524 H 0.38867 0.86357 0.17985 0.0
H525 H 0.41147 0.87235 0.20191 0.0
C526 C 0.50702 0.85251 0.21598 0.0
N527 N 0.49001 0.86968 0.21994 0.0
N528 N 0.47638 0.87186 0.20058 0.0
C529 C 0.48462 0.85621 0.18348 0.0
C530 C 0.50431 0.84317 0.19272 0.0
C531 C 0.52813 0.84831 0.23247 0.0
H532 H 0.53687 0.86587 0.23673 0.0
H533 H 0.52161 0.84014 0.24957 0.0
H534 H 0.54195 0.83627 0.22435 0.0
O535 O 0.4993 0.92583 0.22879 0.0
O536 O 0.47758 0.928 0.19506 0.0
H537 H 0.47765 0.87366 0.1497 0.0
H538 H 0.48487 0.84172 0.14703 0.0
C539 C 0.47538 0.85554 0.15806 0.0
H540 H 0.45581 0.85132 0.15818 0.0
H541 H 0.45246 0.92915 0.15259 0.0
O542 O 0.51282 0.88786 0.26877 0.0
C543 C 0.49354 0.93651 0.2092 0.0
Co544 Co 0.78541 0.55104 0.88502 0.0
Co545 Co 0.83134 0.58167 0.89326 0.0
C546 C 0.78103 0.60241 0.90179 0.0
O547 O 0.77132 0.58356 0.89279 0.0
O548 O 0.80399 0.60429 0.90272 0.0
C549 C 0.74514 0.52886 0.85775 0.0
O550 O 0.75096 0.54134 0.83841 0.0
C551 C 0.86959 0.61696 0.88184 0.0
C552 C 0.8966 0.60796 0.90991 0.0
C553 C 0.8925 0.62288 0.89021 0.0
N554 N 0.8607 0.59925 0.8959 0.0
N555 N 0.87673 0.59432 0.91293 0.0
C556 C 0.85725 0.62617 0.85961 0.0
H557 H 0.87015 0.62661 0.84424 0.0
H558 H 0.85088 0.64494 0.86288 0.0
H559 H 0.84145 0.61464 0.855 0.0
C560 C 0.81601 0.53021 0.84589 0.0
N561 N 0.81049 0.54883 0.86093 0.0
N562 N 0.82988 0.56233 0.86399 0.0
C563 C 0.84825 0.55258 0.85093 0.0
C564 C 0.84008 0.53202 0.83861 0.0
C565 C 0.80063 0.50801 0.8432 0.0
H566 H 0.79186 0.50353 0.86065 0.0
H567 H 0.78641 0.5115 0.82952 0.0
H568 H 0.81132 0.49215 0.83703 0.0
O569 O 0.7984 0.53801 0.91594 0.0
O570 O 0.83284 0.55846 0.91943 0.0
H571 H 0.87921 0.55798 0.87355 0.0
H572 H 0.88646 0.54799 0.84322 0.0
C573 C 0.87422 0.55954 0.85418 0.0
H574 H 0.87672 0.57864 0.84862 0.0
H575 H 0.87447 0.58106 0.92617 0.0
O576 O 0.75754 0.53062 0.87701 0.0
C577 C 0.81818 0.54248 0.9269 0.0
Co578 Co 0.2453 0.48414 0.89678 0.0
Co579 Co 0.19971 0.45196 0.8997 0.0
C580 C 0.24997 0.43168 0.91 0.0
O581 O 0.26015 0.45184 0.90526 0.0
O582 O 0.22722 0.42923 0.907 0.0
C583 C 0.28966 0.50422 0.87692 0.0
O584 O 0.29322 0.48327 0.86625 0.0
C585 C 0.16223 0.41777 0.88347 0.0
C586 C 0.1365 0.4201 0.91398 0.0
C587 C 0.14014 0.40902 0.89181 0.0
N588 N 0.17094 0.43335 0.89995 0.0
N589 N 0.15567 0.43436 0.91829 0.0
C590 C 0.17437 0.41279 0.85981 0.0
H591 H 0.16099 0.41334 0.84485 0.0
H592 H 0.18257 0.39446 0.86031 0.0
H593 H 0.18898 0.42614 0.85641 0.0
C594 C 0.21788 0.50501 0.85548 0.0
N595 N 0.22188 0.48635 0.87088 0.0
N596 N 0.20208 0.47323 0.87232 0.0
C597 C 0.18476 0.48355 0.85829 0.0
C598 C 0.19424 0.50395 0.84672 0.0
C599 C 0.23465 0.52611 0.85276 0.0
H600 H 0.25245 0.51959 0.84624 0.0
H601 H 0.22755 0.53965 0.83973 0.0
H602 H 0.23729 0.53493 0.87059 0.0
O603 O 0.23003 0.49523 0.92723 0.0
O604 O 0.19695 0.47247 0.92809 0.0
H605 H 0.14687 0.49158 0.85194 0.0
H606 H 0.15513 0.46013 0.85015 0.0
C607 C 0.15846 0.47729 0.85999 0.0
H608 H 0.15333 0.47456 0.87918 0.0
H609 H 0.15811 0.44513 0.9336 0.0
O610 O 0.27128 0.50727 0.89032 0.0
C611 C 0.21038 0.48865 0.93727 0.0
Co612 Co 0.79027 0.49199 0.138 0.0
Co613 Co 0.83826 0.4634 0.13439 0.0
C614 C 0.79096 0.4386 0.12438 0.0
O615 O 0.77981 0.45835 0.12855 0.0
O616 O 0.8137 0.43718 0.12802 0.0
C617 C 0.74821 0.51046 0.16448 0.0
O618 O 0.75583 0.49895 0.1838 0.0
C619 C 0.8779 0.43023 0.14608 0.0
C620 C 0.90647 0.44318 0.1213 0.0
C621 C 0.90168 0.42598 0.13892 0.0
N622 N 0.86933 0.44903 0.1333 0.0
N623 N 0.88636 0.4565 0.11832 0.0
C624 C 0.86385 0.41815 0.16579 0.0
H625 H 0.87544 0.41535 0.18194 0.0
H626 H 0.85742 0.40025 0.15933 0.0
H627 H 0.84783 0.42921 0.17076 0.0
C628 C 0.81723 0.51528 0.17897 0.0
N629 N 0.81416 0.49675 0.16317 0.0
N630 N 0.83429 0.48406 0.16222 0.0
C631 C 0.85061 0.49393 0.17771 0.0
C632 C 0.84035 0.5141 0.18905 0.0
C633 C 0.80056 0.53661 0.18071 0.0
H634 H 0.79084 0.53933 0.16341 0.0
H635 H 0.78723 0.53341 0.19534 0.0
H636 H 0.81067 0.5534 0.18511 0.0
O637 O 0.80328 0.50547 0.10785 0.0
O638 O 0.8373 0.48416 0.10566 0.0
H639 H 0.88609 0.48954 0.16303 0.0
H640 H 0.88559 0.49428 0.19543 0.0
C641 C 0.87622 0.48549 0.18002 0.0
H642 H 0.87651 0.46565 0.18278 0.0
H643 H 0.88439 0.47089 0.10631 0.0
O644 O 0.76028 0.50968 0.14496 0.0
C645 C 0.82279 0.49979 0.09705 0.0
Co646 Co 0.2384 0.54067 0.14844 0.0
Co647 Co 0.18961 0.5672 0.14067 0.0
C648 C 0.23776 0.59159 0.12908 0.0
O649 O 0.24964 0.57341 0.13683 0.0
O650 O 0.21474 0.59189 0.13073 0.0
C651 C 0.28696 0.52503 0.14748 0.0
O652 O 0.28822 0.54082 0.12977 0.0
C653 C 0.15133 0.60294 0.14849 0.0
C654 C 0.12181 0.58812 0.12594 0.0
C655 C 0.12774 0.60733 0.14092 0.0
N656 N 0.15878 0.58207 0.13852 0.0
N657 N 0.14114 0.57336 0.12496 0.0
C658 C 0.16707 0.61852 0.16409 0.0
H659 H 0.18638 0.61582 0.15947 0.0
H660 H 0.16464 0.61317 0.18327 0.0
H661 H 0.16221 0.63792 0.16205 0.0
C662 C 0.212 0.52206 0.19127 0.0
N663 N 0.21441 0.5388 0.17357 0.0
N664 N 0.19362 0.54993 0.17051 0.0
C665 C 0.17725 0.54048 0.18614 0.0
C666 C 0.18826 0.52234 0.19996 0.0
C667 C 0.23076 0.50314 0.19632 0.0
H668 H 0.24745 0.51205 0.20304 0.0
H669 H 0.22459 0.48956 0.2097 0.0
H670 H 0.23534 0.49363 0.17925 0.0
O671 O 0.22553 0.5246 0.11916 0.0
O672 O 0.19002 0.54308 0.11499 0.0
H673 H 0.14153 0.53959 0.20217 0.0
H674 H 0.14901 0.56697 0.18593 0.0
C675 C 0.15099 0.547 0.18611 0.0
H676 H 0.14242 0.53978 0.16945 0.0
H677 H 0.1423 0.55738 0.11496 0.0
O678 O 0.26709 0.5223 0.1586 0.0
C679 C 0.20554 0.52759 0.10809 0.0
Co680 Co 0.89573 0.78581 0.54451 0.0
Co681 Co 0.89939 0.82982 0.57902 0.0
C682 C 0.90926 0.77814 0.59631 0.0
O683 O 0.90263 0.76981 0.57592 0.0
O684 O 0.90843 0.8009 0.60042 0.0
C685 C 0.87845 0.74039 0.52552 0.0
O686 O 0.86986 0.73653 0.54732 0.0
C687 C 0.88362 0.86451 0.61626 0.0
C688 C 0.9103 0.89387 0.61111 0.0
C689 C 0.8903 0.88727 0.62464 0.0
N690 N 0.89884 0.85817 0.59843 0.0
N691 N 0.91492 0.87567 0.59567 0.0
C692 C 0.8639 0.84847 0.62561 0.0
H693 H 0.86876 0.82917 0.62279 0.0
H694 H 0.84693 0.85205 0.61556 0.0
H695 H 0.86059 0.85202 0.64509 0.0
C696 C 0.85399 0.81307 0.52573 0.0
N697 N 0.87021 0.809 0.54355 0.0
N698 N 0.87158 0.82819 0.55757 0.0
C699 C 0.85636 0.84537 0.54868 0.0
C700 C 0.84447 0.83633 0.52819 0.0
C701 C 0.8513 0.79677 0.50423 0.0
H702 H 0.844 0.77904 0.5102 0.0
H703 H 0.83928 0.80448 0.49017 0.0
H704 H 0.86933 0.79358 0.49604 0.0
O705 O 0.92629 0.80158 0.53456 0.0
O706 O 0.92737 0.83412 0.5582 0.0
H707 H 0.84169 0.88182 0.54817 0.0
H708 H 0.85058 0.87064 0.57737 0.0
C709 C 0.85531 0.87081 0.55795 0.0
H710 H 0.87342 0.8793 0.55616 0.0
H711 H 0.92887 0.87537 0.58297 0.0
O712 O 0.88957 0.75999 0.52099 0.0
C713 C 0.93634 0.82112 0.54155 0.0
Co714 Co 0.87637 0.24593 0.48992 0.0
Co715 Co 0.896 0.19788 0.46958 0.0
C716 C 0.89743 0.24601 0.44124 0.0
O717 O 0.88313 0.25651 0.45595 0.0
O718 O 0.90346 0.22396 0.44462 0.0
C719 C 0.87242 0.29376 0.50587 0.0
O720 O 0.89049 0.29625 0.49063 0.0
C721 C 0.89184 0.1579 0.43597 0.0
C722 C 0.91745 0.13098 0.45076 0.0
C723 C 0.90047 0.13451 0.43265 0.0
N724 N 0.9028 0.16743 0.45538 0.0
N725 N 0.9184 0.15146 0.46394 0.0
C726 C 0.8735 0.17129 0.42119 0.0
H727 H 0.878 0.19085 0.42068 0.0
H728 H 0.85546 0.16951 0.42977 0.0
H729 H 0.87265 0.16404 0.40249 0.0
C730 C 0.83885 0.21335 0.51029 0.0
N731 N 0.85702 0.21771 0.49452 0.0
N732 N 0.86486 0.1971 0.48565 0.0
C733 C 0.85163 0.17882 0.49543 0.0
C734 C 0.83454 0.18841 0.51153 0.0
C735 C 0.82906 0.23238 0.52695 0.0
H736 H 0.81941 0.24632 0.51619 0.0
H737 H 0.81675 0.22489 0.54085 0.0
H738 H 0.84432 0.24141 0.53635 0.0
O739 O 0.90874 0.24089 0.50453 0.0
O740 O 0.92057 0.20388 0.49408 0.0
H741 H 0.84207 0.14083 0.4983 0.0
H742 H 0.85706 0.14945 0.47082 0.0
C743 C 0.85635 0.15258 0.49057 0.0
H744 H 0.87419 0.1475 0.49826 0.0
H745 H 0.92919 0.15429 0.47917 0.0
O746 O 0.86218 0.27329 0.50764 0.0
C747 C 0.92405 0.22366 0.50534 0.0
Co748 Co 0.14621 0.79412 0.48464 0.0
Co749 Co 0.13896 0.84237 0.45699 0.0
C750 C 0.12793 0.79342 0.43349 0.0
O751 O 0.13531 0.78181 0.452 0.0
O752 O 0.12962 0.81647 0.43285 0.0
C753 C 0.14233 0.74789 0.50633 0.0
O754 O 0.12232 0.74691 0.49352 0.0
C755 C 0.14897 0.88065 0.42169 0.0
C756 C 0.12449 0.9097 0.43427 0.0
C757 C 0.14151 0.90417 0.41675 0.0
N758 N 0.13706 0.87286 0.44135 0.0
N759 N 0.12228 0.89019 0.44863 0.0
C760 C 0.16645 0.86539 0.40774 0.0
H761 H 0.16148 0.84598 0.40924 0.0
H762 H 0.18483 0.86758 0.4155 0.0
H763 H 0.16689 0.8709 0.38845 0.0
C764 C 0.18809 0.82126 0.50417 0.0
N765 N 0.17117 0.81833 0.48671 0.0
N766 N 0.16846 0.83888 0.47503 0.0
C767 C 0.18368 0.85556 0.48472 0.0
C768 C 0.19677 0.84504 0.50367 0.0
C769 C 0.19196 0.80316 0.52398 0.0
H770 H 0.19961 0.78631 0.51617 0.0
H771 H 0.2041 0.80993 0.53839 0.0
H772 H 0.17428 0.79863 0.53231 0.0
O773 O 0.11671 0.80742 0.49968 0.0
O774 O 0.11278 0.84264 0.48059 0.0
H775 H 0.16694 0.89043 0.484 0.0
H776 H 0.19968 0.89136 0.48524 0.0
C777 C 0.18385 0.88169 0.47759 0.0
H778 H 0.18441 0.88322 0.45766 0.0
H779 H 0.1108 0.8888 0.46354 0.0
O780 O 0.15592 0.76627 0.50443 0.0
C781 C 0.10569 0.82736 0.49622 0.0
Co782 Co 0.14452 0.25137 0.54776 0.0
Co783 Co 0.12835 0.20252 0.56914 0.0
C784 C 0.12509 0.25095 0.59688 0.0
O785 O 0.13886 0.26155 0.5818 0.0
O786 O 0.11995 0.22859 0.59408 0.0
C787 C 0.14312 0.29896 0.53301 0.0
O788 O 0.12515 0.29831 0.54854 0.0
C789 C 0.13839 0.16279 0.60185 0.0
C790 C 0.11212 0.13486 0.59051 0.0
C791 C 0.13122 0.1391 0.6062 0.0
N792 N 0.12455 0.17187 0.58414 0.0
N793 N 0.10859 0.15528 0.57766 0.0
C794 C 0.15792 0.17691 0.61425 0.0
H795 H 0.1529 0.19635 0.61506 0.0
H796 H 0.17492 0.1755 0.6037 0.0
H797 H 0.16117 0.16988 0.63276 0.0
C798 C 0.18309 0.22112 0.52607 0.0
N799 N 0.16525 0.22445 0.54243 0.0
N800 N 0.15869 0.20343 0.55137 0.0
C801 C 0.17232 0.18587 0.54082 0.0
C802 C 0.18842 0.19643 0.52431 0.0
C803 C 0.19162 0.24083 0.50953 0.0
H804 H 0.20072 0.2551 0.52035 0.0
H805 H 0.20409 0.23412 0.49536 0.0
H806 H 0.17577 0.24923 0.50054 0.0
O807 O 0.11191 0.24417 0.5348 0.0
O808 O 0.10223 0.20669 0.54581 0.0
H809 H 0.18193 0.14812 0.53519 0.0
H810 H 0.17105 0.15553 0.56478 0.0
C811 C 0.16877 0.15936 0.54528 0.0
H812 H 0.15006 0.15418 0.54017 0.0
H813 H 0.09578 0.15764 0.56401 0.0
O814 O 0.15578 0.28003 0.52995 0.0
C815 C 0.09734 0.22629 0.53472 0.0
H816 H 0.08422 0.39864 0.45245 0.0
H817 H 0.14326 0.38794 0.40205 0.0
H818 H 0.16585 0.36531 0.43323 0.0
H819 H 0.12291 0.40214 0.50939 0.0
H820 H 0.10023 0.38601 0.52638 0.0
H821 H 0.09135 0.40586 0.50205 0.0
H822 H 0.0679 0.37051 0.48197 0.0
H823 H 0.07678 0.3506 0.50601 0.0
H824 H 0.08364 0.34273 0.47513 0.0
H825 H 0.17783 0.33718 0.46643 0.0
H826 H 0.17851 0.30671 0.4991 0.0
H827 H 0.11235 0.33711 0.52844 0.0
C828 C 0.1023 0.39234 0.44831 0.0
C829 C 0.11187 0.39462 0.42482 0.0
C830 C 0.13538 0.38581 0.41982 0.0
C831 C 0.14847 0.37324 0.43752 0.0
C832 C 0.13796 0.37014 0.46021 0.0
C833 C 0.11554 0.37979 0.46576 0.0
C834 C 0.10679 0.37133 0.49022 0.0
C835 C 0.10524 0.39261 0.50807 0.0
C836 C 0.08236 0.358 0.48818 0.0
C837 C 0.12706 0.35424 0.49692 0.0
C838 C 0.14514 0.35415 0.47965 0.0
C839 C 0.16417 0.33758 0.48044 0.0
C840 C 0.16436 0.32028 0.499 0.0
C841 C 0.14556 0.31967 0.51636 0.0
C842 C 0.12722 0.33742 0.51571 0.0
H843 H 0.92081 0.68429 0.40266 0.0
H844 H 0.90406 0.61345 0.4318 0.0
H845 H 0.88314 0.63287 0.46637 0.0
H846 H 0.93622 0.71031 0.45532 0.0
H847 H 0.92394 0.73986 0.44894 0.0
H848 H 0.9332 0.72056 0.42452 0.0
H849 H 0.89047 0.72357 0.40542 0.0
H850 H 0.88107 0.74319 0.42973 0.0
H851 H 0.86426 0.71598 0.42326 0.0
H852 H 0.86922 0.66022 0.5002 0.0
H853 H 0.86485 0.69275 0.53068 0.0
H854 H 0.89054 0.74516 0.47818 0.0
C855 C 0.91163 0.6728 0.41554 0.0
C856 C 0.91326 0.64738 0.41415 0.0
C857 C 0.90253 0.633 0.43239 0.0
C858 C 0.89055 0.64386 0.45197 0.0
C859 C 0.88951 0.66908 0.45292 0.0
C860 C 0.89969 0.68333 0.43506 0.0
C861 C 0.89893 0.70986 0.44158 0.0
C862 C 0.92459 0.72076 0.44266 0.0
C863 C 0.88271 0.72398 0.42395 0.0
C864 C 0.88763 0.70832 0.46636 0.0
C865 C 0.8819 0.68475 0.4725 0.0
C866 C 0.87319 0.67879 0.49541 0.0
C867 C 0.8708 0.69736 0.5126 0.0
C868 C 0.8774 0.72144 0.50678 0.0
C869 C 0.88524 0.72694 0.48315 0.0
H870 H 0.10337 0.64429 0.59632 0.0
H871 H 0.16152 0.66752 0.64353 0.0
H872 H 0.17698 0.69436 0.61113 0.0
H873 H 0.13715 0.64699 0.53838 0.0
H874 H 0.11113 0.65842 0.52238 0.0
H875 H 0.10714 0.63845 0.54785 0.0
H876 H 0.07945 0.6703 0.56841 0.0
H877 H 0.08339 0.69033 0.54313 0.0
H878 H 0.09069 0.70057 0.5732 0.0
H879 H 0.18337 0.72142 0.57508 0.0
H880 H 0.17907 0.74811 0.53961 0.0
H881 H 0.11594 0.70735 0.51669 0.0
C882 C 0.11978 0.6545 0.5996 0.0
C883 C 0.13136 0.65387 0.6223 0.0
C884 C 0.15235 0.66795 0.62625 0.0
C885 C 0.16135 0.68303 0.6079 0.0
C886 C 0.14911 0.68365 0.58583 0.0
C887 C 0.12877 0.66972 0.58166 0.0
C888 C 0.11729 0.67554 0.55754 0.0
C889 C 0.11825 0.65354 0.54053 0.0
C890 C 0.09118 0.68474 0.56078 0.0
C891 C 0.13394 0.69545 0.54901 0.0
C892 C 0.15245 0.69957 0.56533 0.0
C893 C 0.16916 0.71814 0.56203 0.0
C894 C 0.16654 0.73321 0.54181 0.0
C895 C 0.14714 0.7298 0.52537 0.0
C896 C 0.13105 0.7103 0.5288 0.0
H897 H 0.91906 0.39603 0.59139 0.0
H898 H 0.86738 0.3704 0.64445 0.0
H899 H 0.84695 0.34622 0.61284 0.0
H900 H 0.87666 0.3967 0.53784 0.0
H901 H 0.90038 0.38629 0.51805 0.0
H902 H 0.9076 0.40527 0.54358 0.0
H903 H 0.93813 0.37305 0.55884 0.0
H904 H 0.93102 0.35404 0.5335 0.0
H905 H 0.92791 0.34244 0.5638 0.0
H906 H 0.83668 0.32003 0.57739 0.0
H907 H 0.83837 0.29301 0.54191 0.0
H908 H 0.89662 0.33631 0.51199 0.0
C909 C 0.90293 0.38598 0.59618 0.0
C910 C 0.89489 0.38485 0.62033 0.0
C911 C 0.87409 0.37111 0.6261 0.0
C912 C 0.86218 0.35761 0.6082 0.0
C913 C 0.87117 0.35838 0.58465 0.0
C914 C 0.891 0.37239 0.5786 0.0
C915 C 0.89918 0.3677 0.55295 0.0
C916 C 0.89574 0.39034 0.53717 0.0
C917 C 0.9256 0.35877 0.55226 0.0
C918 C 0.88167 0.34793 0.54587 0.0
C919 C 0.86527 0.34319 0.56415 0.0
C920 C 0.84905 0.32393 0.56274 0.0
C921 C 0.85018 0.30865 0.54252 0.0
C922 C 0.86762 0.3126 0.52417 0.0
C923 C 0.88286 0.33303 0.52552 0.0
H924 H 0.52727 0.11944 0.33122 0.0
H925 H 0.50334 0.18087 0.2885 0.0
H926 H 0.46719 0.18475 0.31428 0.0
H927 H 0.47268 0.09246 0.33574 0.0
H928 H 0.47608 0.0815 0.36624 0.0
H929 H 0.50238 0.08663 0.34791 0.0
H930 H 0.51991 0.11553 0.38047 0.0
H931 H 0.49365 0.11031 0.39908 0.0
H932 H 0.50206 0.14077 0.39092 0.0
H933 H 0.43053 0.17747 0.33989 0.0
H934 H 0.3972 0.16031 0.36432 0.0
H935 H 0.44533 0.10384 0.38994 0.0
C936 C 0.51486 0.13422 0.32778 0.0
C937 C 0.51812 0.14984 0.3079 0.0
C938 C 0.50124 0.1687 0.30371 0.0
C939 C 0.48067 0.17112 0.3183 0.0
C940 C 0.47746 0.15475 0.33716 0.0
C941 C 0.49427 0.13686 0.34214 0.0
C942 C 0.48537 0.11987 0.36159 0.0
C943 C 0.48404 0.09358 0.3523 0.0
C944 C 0.50119 0.12175 0.38437 0.0
C945 C 0.46047 0.13027 0.36593 0.0
C946 C 0.45631 0.15059 0.35197 0.0
C947 C 0.43372 0.16184 0.35125 0.0
C948 C 0.41482 0.15182 0.36491 0.0
C949 C 0.41871 0.13069 0.37882 0.0
C950 C 0.44197 0.12026 0.37976 0.0
H951 H 0.6374 0.90976 0.33644 0.0
H952 H 0.6147 0.88138 0.40579 0.0
H953 H 0.58008 0.86103 0.38613 0.0
H954 H 0.58333 0.92668 0.31821 0.0
H955 H 0.58649 0.91948 0.28658 0.0
H956 H 0.61285 0.92594 0.30435 0.0
H957 H 0.63165 0.8846 0.2926 0.0
H958 H 0.60544 0.87809 0.27429 0.0
H959 H 0.61471 0.85713 0.29749 0.0
H960 H 0.54407 0.85105 0.36066 0.0
H961 H 0.51007 0.85226 0.33155 0.0
H962 H 0.5567 0.88754 0.27921 0.0
C963 C 0.62604 0.89806 0.34725 0.0
C964 C 0.62903 0.89654 0.37246 0.0
C965 C 0.61284 0.88236 0.38631 0.0
C966 C 0.59322 0.87069 0.3753 0.0
C967 C 0.59014 0.87338 0.35044 0.0
C968 C 0.60632 0.88651 0.33654 0.0
C969 C 0.59706 0.89003 0.31108 0.0
C970 C 0.59479 0.91713 0.30472 0.0
C971 C 0.61317 0.87665 0.29279 0.0
C972 C 0.57258 0.8781 0.31324 0.0
C973 C 0.56907 0.86807 0.33584 0.0
C974 C 0.54681 0.8583 0.3427 0.0
C975 C 0.52759 0.85915 0.32612 0.0
C976 C 0.53077 0.87007 0.30321 0.0
C977 C 0.55373 0.87902 0.29659 0.0
H978 H 0.52494 0.90017 0.70222 0.0
H979 H 0.49097 0.8432 0.7442 0.0
H980 H 0.45522 0.84496 0.7175 0.0
H981 H 0.4764 0.93536 0.6988 0.0
H982 H 0.48121 0.94669 0.66862 0.0
H983 H 0.50649 0.93655 0.68626 0.0
H984 H 0.51853 0.90615 0.65262 0.0
H985 H 0.49341 0.9165 0.63456 0.0
H986 H 0.49652 0.88476 0.64154 0.0
H987 H 0.42041 0.85847 0.69146 0.0
H988 H 0.3904 0.8818 0.66802 0.0
H989 H 0.44701 0.93112 0.64507 0.0
C990 C 0.51045 0.88733 0.70521 0.0
C991 C 0.51076 0.87153 0.72522 0.0
C992 C 0.49118 0.85537 0.72884 0.0
C993 C 0.4708 0.85622 0.71375 0.0
C994 C 0.47044 0.87312 0.69503 0.0
C995 C 0.48996 0.88815 0.69053 0.0
C996 C 0.48392 0.90713 0.67181 0.0
C997 C 0.48719 0.93293 0.682 0.0
C998 C 0.49899 0.9034 0.64876 0.0
C999 C 0.4576 0.90132 0.66746 0.0
C1000 C 0.45021 0.88135 0.68055 0.0
C1001 C 0.42608 0.87397 0.68092 0.0
C1002 C 0.40905 0.88762 0.6679 0.0
C1003 C 0.41622 0.90868 0.65518 0.0
C1004 C 0.44093 0.91504 0.65448 0.0
H1005 H 0.5512 0.16791 0.7378 0.0
H1006 H 0.49506 0.17469 0.68347 0.0
H1007 H 0.52558 0.16832 0.65147 0.0
H1008 H 0.60429 0.19157 0.69978 0.0
H1009 H 0.62389 0.16911 0.71304 0.0
H1010 H 0.59977 0.18224 0.73067 0.0
H1011 H 0.58333 0.13925 0.73982 0.0
H1012 H 0.60711 0.12608 0.7222 0.0
H1013 H 0.57601 0.11933 0.71502 0.0
H1014 H 0.55909 0.15101 0.62695 0.0
H1015 H 0.5922 0.12492 0.61223 0.0
H1016 H 0.62547 0.12732 0.68311 0.0
C1017 C 0.54545 0.16906 0.71912 0.0
C1018 C 0.52078 0.17172 0.71308 0.0
C1019 C 0.51391 0.17286 0.68849 0.0
C1020 C 0.53116 0.1693 0.67019 0.0
C1021 C 0.55515 0.16495 0.67688 0.0
C1022 C 0.56233 0.16518 0.70083 0.0
C1023 C 0.58781 0.15566 0.70386 0.0
C1024 C 0.60495 0.17586 0.71233 0.0
C1025 C 0.58857 0.13379 0.72121 0.0
C1026 C 0.59325 0.1483 0.67814 0.0
C1027 C 0.57456 0.15452 0.66268 0.0
C1028 C 0.57415 0.14674 0.63871 0.0
C1029 C 0.59294 0.13179 0.63056 0.0
C1030 C 0.61175 0.12457 0.64638 0.0
C1031 C 0.61212 0.13346 0.67024 0.0
H1032 H 0.32866 0.52097 0.12164 0.0
H1033 H 0.29005 0.49007 0.18255 0.0
H1034 H 0.32024 0.45724 0.185 0.0
H1035 H 0.33819 0.46872 0.09272 0.0
H1036 H 0.36783 0.47568 0.08108 0.0
H1037 H 0.34713 0.49975 0.08788 0.0
H1038 H 0.37871 0.51929 0.11656 0.0
H1039 H 0.39969 0.49524 0.1097 0.0
H1040 H 0.39171 0.50156 0.14066 0.0
H1041 H 0.35003 0.4242 0.17617 0.0
H1042 H 0.37635 0.39391 0.15652 0.0
H1043 H 0.39414 0.44609 0.10068 0.0
C1044 C 0.32703 0.50781 0.13607 0.0
C1045 C 0.30709 0.50808 0.15192 0.0
C1046 C 0.30529 0.49025 0.17024 0.0
C1047 C 0.32241 0.4716 0.17186 0.0
C1048 C 0.34131 0.47123 0.1552 0.0
C1049 C 0.34383 0.48905 0.13779 0.0
C1050 C 0.36352 0.48284 0.1199 0.0
C1051 C 0.35356 0.48166 0.09388 0.0
C1052 C 0.38466 0.5008 0.12183 0.0
C1053 C 0.37068 0.4581 0.12907 0.0
C1054 C 0.35815 0.45191 0.14978 0.0
C1055 C 0.36017 0.42897 0.16013 0.0
C1056 C 0.37486 0.41174 0.14862 0.0
C1057 C 0.38684 0.41747 0.12676 0.0
C1058 C 0.38537 0.44121 0.11749 0.0
H1059 H 0.33924 0.63157 0.91278 0.0
H1060 H 0.40947 0.6079 0.88744 0.0
H1061 H 0.39028 0.57315 0.8668 0.0
H1062 H 0.32002 0.57804 0.92975 0.0
H1063 H 0.28867 0.58128 0.92138 0.0
H1064 H 0.30638 0.60766 0.92803 0.0
H1065 H 0.29628 0.62587 0.88607 0.0
H1066 H 0.278 0.59967 0.87935 0.0
H1067 H 0.30201 0.60841 0.85912 0.0
H1068 H 0.36485 0.53707 0.8565 0.0
H1069 H 0.33538 0.50331 0.8572 0.0
H1070 H 0.28218 0.55105 0.88971 0.0
C1071 C 0.3504 0.62002 0.90162 0.0
C1072 C 0.37571 0.62276 0.90107 0.0
C1073 C 0.38995 0.60626 0.88764 0.0
C1074 C 0.3792 0.58654 0.87583 0.0
C1075 C 0.35421 0.5837 0.87762 0.0
C1076 C 0.33995 0.60021 0.88995 0.0
C1077 C 0.3143 0.5912 0.8927 0.0
C1078 C 0.30695 0.58944 0.91954 0.0
C1079 C 0.29661 0.60724 0.87845 0.0
C1080 C 0.31669 0.56648 0.88129 0.0
C1081 C 0.33963 0.56261 0.87216 0.0
C1082 C 0.34665 0.5401 0.86303 0.0
C1083 C 0.32987 0.52101 0.8636 0.0
C1084 C 0.30658 0.52457 0.87359 0.0
C1085 C 0.29985 0.54777 0.88191 0.0
H1086 H 0.71262 0.52281 0.89307 0.0
H1087 H 0.73399 0.49518 0.82303 0.0
H1088 H 0.70643 0.46007 0.82851 0.0
H1089 H 0.71414 0.47018 0.92264 0.0
H1090 H 0.68852 0.47552 0.94207 0.0
H1091 H 0.70534 0.50068 0.93031 0.0
H1092 H 0.66632 0.51874 0.91153 0.0
H1093 H 0.64917 0.49377 0.92364 0.0
H1094 H 0.64799 0.50039 0.89175 0.0
H1095 H 0.68266 0.42446 0.84569 0.0
H1096 H 0.66276 0.39356 0.87131 0.0
H1097 H 0.65764 0.44576 0.92967 0.0
C1098 C 0.71072 0.50983 0.8785 0.0
C1099 C 0.72507 0.51157 0.8576 0.0
C1100 C 0.72267 0.49421 0.83898 0.0
C1101 C 0.70717 0.47423 0.84202 0.0
C1102 C 0.69403 0.47241 0.86352 0.0
C1103 C 0.69531 0.49012 0.88119 0.0
C1104 C 0.68164 0.48303 0.90369 0.0
C1105 C 0.69842 0.4823 0.92596 0.0
C1106 C 0.65999 0.49999 0.90789 0.0
C1107 C 0.67344 0.45802 0.89652 0.0
C1108 C 0.68044 0.45218 0.87324 0.0
C1109 C 0.67673 0.42904 0.86377 0.0
C1110 C 0.66575 0.4115 0.87856 0.0
C1111 C 0.65892 0.41723 0.90255 0.0
C1112 C 0.66237 0.44093 0.91128 0.0
H1113 H 0.65256 0.59029 0.09806 0.0
H1114 H 0.65698 0.64072 0.15794 0.0
H1115 H 0.6799 0.61031 0.18167 0.0
H1116 H 0.6489 0.53348 0.13384 0.0
H1117 H 0.66778 0.51754 0.11256 0.0
H1118 H 0.64829 0.54161 0.10228 0.0
H1119 H 0.68518 0.56358 0.08331 0.0
H1120 H 0.70466 0.5396 0.09338 0.0
H1121 H 0.71101 0.57044 0.102 0.0
H1122 H 0.70595 0.5756 0.19695 0.0
H1123 H 0.73576 0.54216 0.20048 0.0
H1124 H 0.7147 0.51602 0.12972 0.0
C1125 C 0.65777 0.59469 0.11643 0.0
C1126 C 0.65308 0.61773 0.12625 0.0
C1127 C 0.66069 0.62317 0.15006 0.0
C1128 C 0.67342 0.60592 0.16373 0.0
C1129 C 0.67824 0.58343 0.15326 0.0
C1130 C 0.67067 0.5779 0.13007 0.0
C1131 C 0.68062 0.55393 0.12157 0.0
C1132 C 0.66017 0.53555 0.11732 0.0
C1133 C 0.6963 0.5571 0.09874 0.0
C1134 C 0.69569 0.54711 0.14326 0.0
C1135 C 0.69366 0.56394 0.16168 0.0
C1136 C 0.70736 0.56212 0.18282 0.0
C1137 C 0.72412 0.54307 0.18475 0.0
C1138 C 0.7272 0.52662 0.16541 0.0
C1139 C 0.71236 0.5283 0.14483 0.0
H1140 H 0.01616 0.7349 0.6862 0.0
H1141 H 0.9968 0.66131 0.66725 0.0
H1142 H 0.96225 0.67659 0.64313 0.0
H1143 H 0.95493 0.75869 0.69093 0.0
H1144 H 0.96209 0.78753 0.67746 0.0
H1145 H 0.98501 0.771 0.69375 0.0
H1146 H 0.013 0.77221 0.65625 0.0
H1147 H 0.99028 0.78898 0.63997 0.0
H1148 H 1.00191 0.76108 0.62767 0.0
H1149 H 0.93003 0.69977 0.62062 0.0
H1150 H 0.90436 0.72898 0.59877 0.0
H1151 H 0.94406 0.7884 0.63137 0.0
C1152 C 1.00463 0.72209 0.67688 0.0
C1153 C 0.00921 0.69685 0.67848 0.0
C1154 C 0.9937 0.68065 0.66612 0.0
C1155 C 0.97396 0.6892 0.65249 0.0
C1156 C 0.96983 0.71412 0.65128 0.0
C1157 C 0.98482 0.7304 0.66295 0.0
C1158 C 0.97671 0.75632 0.6579 0.0
C1159 C 0.96924 0.76914 0.68141 0.0
C1160 C 0.99666 0.77048 0.64466 0.0
C1161 C 0.95489 0.75208 0.64155 0.0
C1162 C 0.95121 0.72755 0.63816 0.0
C1163 C 0.93272 0.71901 0.62326 0.0
C1164 C 0.91809 0.73582 0.61096 0.0
C1165 C 0.92178 0.76114 0.61345 0.0
C1166 C 0.94025 0.76926 0.62943 0.0
H1167 H 1.00597 0.29366 0.67031 0.0
H1168 H 0.03955 0.36427 0.67616 0.0
H1169 H 0.07625 0.34853 0.65586 0.0
H1170 H 0.05999 0.25824 0.68093 0.0
H1171 H 0.05266 0.23498 0.65926 0.0
H1172 H 0.02881 0.25161 0.67403 0.0
H1173 H 0.01127 0.26412 0.63246 0.0
H1174 H 0.03486 0.24724 0.61759 0.0
H1175 H 0.0306 0.27886 0.61073 0.0
H1176 H 0.10959 0.32512 0.63497 0.0
H1177 H 0.13585 0.29683 0.61253 0.0
H1178 H 0.08145 0.24065 0.61979 0.0
C1179 C 0.02101 0.30579 0.66705 0.0
C1180 C 0.01985 0.33031 0.67465 0.0
C1181 C 0.03998 0.34554 0.67032 0.0
C1182 C 0.06096 0.33669 0.65891 0.0
C1183 C 0.06173 0.31242 0.65185 0.0
C1184 C 0.04222 0.29718 0.65554 0.0
C1185 C 0.04777 0.27193 0.6458 0.0
C1186 C 0.04727 0.25308 0.66623 0.0
C1187 C 0.03007 0.26514 0.62544 0.0
C1188 C 0.07337 0.27536 0.63609 0.0
C1189 C 0.08106 0.29886 0.6399 0.0
C1190 C 0.10374 0.30666 0.63201 0.0
C1191 C 0.11867 0.29033 0.61934 0.0
C1192 C 0.11111 0.26624 0.61455 0.0
C1193 C 0.08819 0.25867 0.62354 0.0
H1194 H 0.94423 0.24036 0.42473 0.0
H1195 H 0.88137 0.28676 0.41761 0.0
H1196 H 0.90499 0.31463 0.39168 0.0
H1197 H 0.98656 0.28838 0.43063 0.0
H1198 H 0.01053 0.27344 0.41434 0.0
H1199 H 0.98816 0.25578 0.4301 0.0
H1200 H 0.97793 0.23285 0.39058 0.0
H1201 H 1.00042 0.25031 0.37471 0.0
H1202 H 0.96965 0.24975 0.36396 0.0
H1203 H 0.93615 0.33843 0.36738 0.0
H1204 H 0.97223 0.35651 0.34785 0.0
H1205 H 0.0159 0.29632 0.37262 0.0
C1206 C 0.93521 0.25602 0.41714 0.0
C1207 C 0.9106 0.26097 0.42279 0.0
C1208 C 0.89994 0.28227 0.41326 0.0
C1209 C 0.9133 0.29828 0.39855 0.0
C1210 C 0.93758 0.2931 0.39371 0.0
C1211 C 0.94847 0.2725 0.4028 0.0
C1212 C 0.97528 0.27201 0.3963 0.0
C1213 C 0.99106 0.27243 0.4192 0.0
C1214 C 0.98116 0.24991 0.38044 0.0
C1215 C 0.97779 0.29549 0.38207 0.0
C1216 C 0.95574 0.30728 0.38065 0.0
C1217 C 0.95343 0.32929 0.36841 0.0
C1218 C 0.97403 0.33946 0.35737 0.0
C1219 C 0.99684 0.32787 0.35869 0.0
C1220 C 0.99869 0.3056 0.37131 0.0
H1221 H 0.11075 0.74585 0.43286 0.0
H1222 H 0.11071 0.81232 0.39096 0.0
H1223 H 0.08144 0.79425 0.36259 0.0
H1224 H 0.10505 0.70417 0.38072 0.0
H1225 H 0.08553 0.68354 0.39674 0.0
H1226 H 0.10761 0.70113 0.41308 0.0
H1227 H 0.07365 0.718 0.44051 0.0
H1228 H 0.05141 0.70076 0.42405 0.0
H1229 H 0.0481 0.7331 0.42699 0.0
H1230 H 0.04936 0.77037 0.34037 0.0
H1231 H 0.0201 0.74094 0.3237 0.0
H1232 H 0.04163 0.68866 0.37806 0.0
C1233 C 0.10506 0.75644 0.41741 0.0
C1234 C 0.11341 0.78064 0.41426 0.0
C1235 C 0.10493 0.79381 0.39391 0.0
C1236 C 0.08812 0.7837 0.37766 0.0
C1237 C 0.07979 0.76019 0.38168 0.0
C1238 C 0.08823 0.74654 0.40084 0.0
C1239 C 0.07595 0.72177 0.40113 0.0
C1240 C 0.09465 0.70145 0.39771 0.0
C1241 C 0.06142 0.71821 0.42456 0.0
C1242 C 0.05921 0.72372 0.37928 0.0
C1243 C 0.06165 0.74615 0.36848 0.0
C1244 C 0.04761 0.75265 0.34853 0.0
C1245 C 0.031 0.73576 0.33914 0.0
C1246 C 0.02851 0.71235 0.34932 0.0
C1247 C 0.04284 0.70641 0.36986 0.0
H1248 H 0.59311 0.91928 0.74711 0.0
H1249 H 0.63754 0.91531 0.81162 0.0
H1250 H 0.66676 0.9437 0.79317 0.0
H1251 H 0.64291 0.92527 0.70274 0.0
H1252 H 0.62642 0.94658 0.68436 0.0
H1253 H 0.61033 0.92407 0.70162 0.0
H1254 H 0.58532 0.95797 0.72206 0.0
H1255 H 0.60156 0.98062 0.70517 0.0
H1256 H 0.60074 0.9821 0.73771 0.0
H1257 H 0.69006 0.9748 0.76873 0.0
H1258 H 0.70631 1.00473 0.73967 0.0
H1259 H 0.64673 0.98973 0.69099 0.0
C1260 C 0.60938 0.92374 0.75706 0.0
C1261 C 0.61318 0.91449 0.78076 0.0
C1262 C 0.63432 0.9217 0.79339 0.0
C1263 C 0.651 0.93798 0.78306 0.0
C1264 C 0.64636 0.94727 0.76003 0.0
C1265 C 0.62613 0.9403 0.74709 0.0
C1266 C 0.62477 0.95402 0.72321 0.0
C1267 C 0.6262 0.93643 0.70171 0.0
C1268 C 0.60173 0.9696 0.72197 0.0
C1269 C 0.64733 0.96981 0.72475 0.0
C1270 C 0.65952 0.96556 0.74616 0.0
C1271 C 0.68069 0.97811 0.75187 0.0
C1272 C 0.6898 0.99513 0.73525 0.0
C1273 C 0.67788 0.9997 0.71304 0.0
C1274 C 0.65621 0.98688 0.70788 0.0
H1275 H 0.43825 0.11201 0.73747 0.0
H1276 H 0.39481 0.12063 0.80219 0.0
H1277 H 0.36402 0.09305 0.78505 0.0
H1278 H 0.38769 0.10693 0.69382 0.0
H1279 H 0.40296 0.08421 0.67607 0.0
H1280 H 0.42027 0.10654 0.69236 0.0
H1281 H 0.44391 0.07225 0.7138 0.0
H1282 H 0.42644 0.04981 0.69787 0.0
H1283 H 0.42753 0.04947 0.73044 0.0
H1284 H 0.33904 0.06193 0.76196 0.0
H1285 H 0.32149 0.03128 0.73436 0.0
H1286 H 0.38102 0.04214 0.68459 0.0
C1287 C 0.42191 0.10875 0.74775 0.0
C1288 C 0.41888 0.11904 0.77114 0.0
C1289 C 0.39752 0.1134 0.78419 0.0
C1290 C 0.37993 0.0976 0.7746 0.0
C1291 C 0.38383 0.08725 0.75188 0.0
C1292 C 0.40423 0.09274 0.73853 0.0
C1293 C 0.40469 0.07811 0.71514 0.0
C1294 C 0.40385 0.09496 0.69304 0.0
C1295 C 0.42697 0.06143 0.71427 0.0
C1296 C 0.38145 0.06349 0.71745 0.0
C1297 C 0.36967 0.06908 0.73878 0.0
C1298 C 0.34809 0.0576 0.74516 0.0
C1299 C 0.33822 0.04017 0.72936 0.0
C1300 C 0.34981 0.03415 0.70731 0.0
C1301 C 0.37179 0.04608 0.7014 0.0
H1302 H 0.63012 0.08302 0.23841 0.0
H1303 H 0.62631 0.14157 0.29047 0.0
H1304 H 0.65123 0.11769 0.31899 0.0
H1305 H 0.62313 0.03595 0.28183 0.0
H1306 H 0.6431 0.01482 0.26704 0.0
H1307 H 0.6273 0.03733 0.24954 0.0
H1308 H 0.66795 0.05285 0.23226 0.0
H1309 H 0.68387 0.03023 0.24954 0.0
H1310 H 0.69174 0.06175 0.25272 0.0
H1311 H 0.67544 0.08677 0.34269 0.0
H1312 H 0.69629 0.05109 0.35997 0.0
H1313 H 0.68271 0.01095 0.29405 0.0
C1314 C 0.63518 0.09109 0.25553 0.0
C1315 C 0.62677 0.11458 0.26189 0.0
C1316 C 0.63289 0.12393 0.28495 0.0
C1317 C 0.64699 0.11041 0.30133 0.0
C1318 C 0.65459 0.0872 0.29472 0.0
C1319 C 0.64884 0.07754 0.27239 0.0
C1320 C 0.65784 0.05148 0.27052 0.0
C1321 C 0.63657 0.03386 0.26703 0.0
C1322 C 0.67646 0.04893 0.25004 0.0
C1323 C 0.66965 0.04803 0.29519 0.0
C1324 C 0.66766 0.06897 0.30878 0.0
C1325 C 0.67711 0.07035 0.33214 0.0
C1326 C 0.68896 0.04998 0.34183 0.0
C1327 C 0.69126 0.02826 0.32839 0.0
C1328 C 0.68128 0.0273 0.30477 0.0
H1329 H 0.35207 0.02048 0.29122 0.0
H1330 H 0.35946 0.99452 0.36471 0.0
H1331 H 0.38248 0.95895 0.34995 0.0
H1332 H 0.34525 0.96099 0.2626 0.0
H1333 H 0.36268 0.96895 0.23624 0.0
H1334 H 0.34611 0.99197 0.25237 0.0
H1335 H 0.38542 0.01692 0.25764 0.0
H1336 H 0.40204 0.99407 0.24139 0.0
H1337 H 0.41153 1.00291 0.27129 0.0
H1338 H 0.40653 0.92711 0.32739 0.0
H1339 H 0.43024 0.90195 0.29903 0.0
H1340 H 0.4068 0.94735 0.23951 0.0
C1341 C 0.35846 1.00717 0.3041 0.0
C1342 C 0.35397 0.0102 0.32916 0.0
C1343 C 0.36269 0.9925 0.34549 0.0
C1344 C 0.37574 0.97223 0.33724 0.0
C1345 C 0.37994 0.9697 0.31247 0.0
C1346 C 0.37157 0.98669 0.2961 0.0
C1347 C 0.37921 0.9799 0.2705 0.0
C1348 C 0.35699 0.97517 0.25448 0.0
C1349 C 0.39552 0.99962 0.25957 0.0
C1350 C 0.39331 0.95661 0.27505 0.0
C1351 C 0.39345 0.95107 0.29941 0.0
C1352 C 0.40628 0.93116 0.30825 0.0
C1353 C 0.41967 0.91686 0.29195 0.0
C1354 C 0.42013 0.92222 0.26688 0.0
C1355 C 0.40635 0.94224 0.2584 0.0
H1356 H 0.73655 0.67869 0.018 0.0
H1357 H 0.66776 0.68773 0.98164 0.0
H1358 H 0.68385 0.66626 0.94575 0.0
H1359 H 0.77429 0.68769 0.96467 0.0
H1360 H 0.79638 0.66527 0.97328 0.0
H1361 H 0.77954 0.68123 0.99619 0.0
H1362 H 0.76495 0.64044 0.01407 0.0
H1363 H 0.78187 0.62438 0.99133 0.0
H1364 H 0.74992 0.61889 0.99472 0.0
H1365 H 0.70689 0.64176 0.91436 0.0
H1366 H 0.73522 0.61724 0.8898 0.0
H1367 H 0.79033 0.62599 0.94486 0.0
C1368 C 0.72497 0.67616 1.00241 0.0
C1369 C 0.70086 0.68495 1.00258 0.0
C1370 C 0.68626 0.68125 0.98186 0.0
C1371 C 0.69527 0.66905 0.96139 0.0
C1372 C 0.71912 0.66071 0.96166 0.0
C1373 C 0.73384 0.66418 0.9816 0.0
C1374 C 0.75881 0.65334 0.97711 0.0
C1375 C 0.77841 0.67306 0.97786 0.0
C1376 C 0.7642 0.63306 0.99539 0.0
C1377 C 0.75582 0.64322 0.95163 0.0
C1378 C 0.7327 0.64752 0.94314 0.0
C1379 C 0.72514 0.63865 0.92071 0.0
C1380 C 0.74141 0.62478 0.90679 0.0
C1381 C 0.76527 0.62017 0.91495 0.0
C1382 C 0.77253 0.62985 0.93764 0.0
H1383 H 0.74796 0.44077 0.09866 0.0
H1384 H 0.80596 0.39149 0.118 0.0
H1385 H 0.78859 0.36053 0.09075 0.0
H1386 H 0.6998 0.39501 0.09242 0.0
H1387 H 0.68627 0.40997 0.0668 0.0
H1388 H 0.70211 0.42743 0.08932 0.0
H1389 H 0.72947 0.44548 0.05592 0.0
H1390 H 0.71396 0.42782 0.03334 0.0
H1391 H 0.74633 0.42543 0.03649 0.0
H1392 H 0.7661 0.33547 0.05939 0.0
H1393 H 0.73969 0.31798 0.02781 0.0
H1394 H 0.69613 0.38327 0.0282 0.0
C1395 C 0.7567 0.42325 0.0977 0.0
C1396 C 0.77827 0.41859 0.11096 0.0
C1397 C 0.78936 0.39556 0.10841 0.0
C1398 C 0.77964 0.37784 0.09283 0.0
C1399 C 0.75878 0.38327 0.07962 0.0
C1400 C 0.74734 0.40538 0.082 0.0
C1401 C 0.72572 0.407 0.06493 0.0
C1402 C 0.70207 0.41003 0.07923 0.0
C1403 C 0.72908 0.42766 0.04659 0.0
C1404 C 0.72682 0.38238 0.05253 0.0
C1405 C 0.74604 0.36899 0.06132 0.0
C1406 C 0.75095 0.34581 0.05253 0.0
C1407 C 0.73581 0.33599 0.03455 0.0
C1408 C 0.71585 0.34917 0.02528 0.0
C1409 C 0.71142 0.37278 0.03449 0.0
H1410 H 0.33956 0.64545 0.03866 0.0
H1411 H 0.28994 0.70445 0.02414 0.0
H1412 H 0.26087 0.68727 0.05344 0.0
H1413 H 0.29285 0.59847 0.04545 0.0
H1414 H 0.30874 0.58295 0.06931 0.0
H1415 H 0.32541 0.59963 0.04682 0.0
H1416 H 0.34614 0.62437 0.08077 0.0
H1417 H 0.32924 0.60799 0.10331 0.0
H1418 H 0.32777 0.64059 0.1023 0.0
H1419 H 0.23723 0.66417 0.08503 0.0
H1420 H 0.21957 0.63542 0.11428 0.0
H1421 H 0.28393 0.59068 0.10894 0.0
C1422 C 0.32238 0.65448 0.04136 0.0
C1423 C 0.31699 0.67633 0.0289 0.0
C1424 C 0.29447 0.68774 0.03336 0.0
C1425 C 0.27786 0.67813 0.05006 0.0
C1426 C 0.28383 0.65689 0.06235 0.0
C1427 C 0.30543 0.64501 0.05806 0.0
C1428 C 0.30719 0.62234 0.07372 0.0
C1429 C 0.30863 0.5995 0.05788 0.0
C1430 C 0.32888 0.62393 0.09105 0.0
C1431 C 0.28331 0.62344 0.08752 0.0
C1432 C 0.27017 0.64358 0.08067 0.0
C1433 C 0.24741 0.64835 0.09051 0.0
C1434 C 0.23753 0.63191 0.10728 0.0
C1435 C 0.25029 0.61075 0.11433 0.0
C1436 C 0.27374 0.6068 0.10442 0.0
H1437 H 0.29553 0.43402 0.93153 0.0
H1438 H 0.23461 0.38564 0.92048 0.0
H1439 H 0.25283 0.35631 0.9487 0.0
H1440 H 0.34216 0.38593 0.93716 0.0
H1441 H 0.35864 0.40209 0.96019 0.0
H1442 H 0.34173 0.41857 0.93771 0.0
H1443 H 0.31845 0.44077 0.97172 0.0
H1444 H 0.33497 0.42407 0.99431 0.0
H1445 H 0.30237 0.42333 0.99409 0.0
H1446 H 0.2756 0.33366 0.98125 0.0
H1447 H 0.30337 0.3176 0.01242 0.0
H1448 H 0.35099 0.379 1.0015 0.0
C1449 C 0.28631 0.41698 0.9345 0.0
C1450 C 0.26355 0.41225 0.92341 0.0
C1451 C 0.25203 0.38983 0.92842 0.0
C1452 C 0.26222 0.37301 0.9446 0.0
C1453 C 0.28416 0.37858 0.95576 0.0
C1454 C 0.29631 0.39984 0.95065 0.0
C1455 C 0.31942 0.40154 0.96565 0.0
C1456 C 0.34182 0.40206 0.9492 0.0
C1457 C 0.31875 0.42375 0.98243 0.0
C1458 C 0.31821 0.37808 0.98011 0.0
C1459 C 0.2976 0.36521 0.97419 0.0
C1460 C 0.29196 0.34345 0.98573 0.0
C1461 C 0.30786 0.33444 1.00345 0.0
C1462 C 0.32946 0.34686 0.00952 0.0
C1463 C 0.33456 0.36909 0.99759 0.0
H1464 H 0.58025 0.89972 0.95011 0.0
H1465 H 0.64432 0.89367 0.90545 0.0
H1466 H 0.66405 0.86892 0.93703 0.0
H1467 H 0.61236 0.89812 0.01131 0.0
H1468 H 0.58821 0.88023 0.02395 0.0
H1469 H 0.58177 0.90232 1.00082 0.0
H1470 H 0.56132 0.86894 0.97498 0.0
H1471 H 0.56794 0.84674 0.99772 0.0
H1472 H 0.57827 0.84215 0.96715 0.0
H1473 H 0.67307 0.83839 0.96888 0.0
H1474 H 0.67114 0.80537 0.99888 0.0
H1475 H 0.60119 0.83168 0.02297 0.0
C1476 C 0.59884 0.89411 0.94751 0.0
C1477 C 0.61081 0.89841 0.92546 0.0
C1478 C 0.63483 0.89025 0.92222 0.0
C1479 C 0.64623 0.8764 0.94014 0.0
C1480 C 0.63341 0.87125 0.96122 0.0
C1481 C 0.61034 0.88017 0.96514 0.0
C1482 C 0.59906 0.86925 0.98752 0.0
C1483 C 0.59513 0.88864 0.00706 0.0
C1484 C 0.57526 0.85598 0.98146 0.0
C1485 C 0.61876 0.85173 0.99476 0.0
C1486 C 0.63866 0.8535 0.97972 0.0
C1487 C 0.65791 0.83726 0.9812 0.0
C1488 C 0.65658 0.81849 0.9982 0.0
C1489 C 0.63604 0.81605 0.0133 0.0
C1490 C 0.61729 0.8333 0.01194 0.0
H1491 H 0.43729 0.20417 0.01885 0.0
H1492 H 0.36663 0.23181 0.9986 0.0
H1493 H 0.36442 0.20174 0.96565 0.0
H1494 H 0.45898 0.19882 0.96188 0.0
H1495 H 0.47625 0.17157 0.96681 0.0
H1496 H 0.47013 0.19158 0.99166 0.0
H1497 H 0.45053 0.15624 0.01551 0.0
H1498 H 0.45672 0.13601 0.99068 0.0
H1499 H 0.42629 0.13912 1.00197 0.0
H1500 H 0.37283 0.1735 0.93116 0.0
H1501 H 0.39123 0.14938 0.89827 0.0
H1502 H 0.45637 0.14082 0.9411 0.0
C1503 C 0.42099 0.2034 0.00801 0.0
C1504 C 0.40211 0.22024 0.01134 0.0
C1505 C 0.38129 0.21897 0.99644 0.0
C1506 C 0.37982 0.2019 0.97773 0.0
C1507 C 0.3992 0.18612 0.97436 0.0
C1508 C 0.4193 0.18658 0.98925 0.0
C1509 C 0.43891 0.16981 0.98019 0.0
C1510 C 0.46243 0.18379 0.97481 0.0
C1511 C 0.44336 0.14906 0.99816 0.0
C1512 C 0.42716 0.16066 0.95727 0.0
C1513 C 0.40411 0.16992 0.95438 0.0
C1514 C 0.3907 0.16582 0.93342 0.0
C1515 C 0.40136 0.15234 0.91474 0.0
C1516 C 0.42524 0.14346 0.91715 0.0
C1517 C 0.43791 0.14707 0.93897 0.0
H1518 H 0.6397 0.21286 0.01297 0.0
H1519 H 0.71163 0.23393 0.03584 0.0
H1520 H 0.70911 0.20503 0.0701 0.0
H1521 H 0.61414 0.21044 0.06852 0.0
H1522 H 0.59504 0.18459 0.06291 0.0
H1523 H 0.60424 0.20358 0.03822 0.0
H1524 H 0.62244 0.16648 0.01594 0.0
H1525 H 0.61296 0.14722 0.04047 0.0
H1526 H 0.64422 0.14759 0.0312 0.0
H1527 H 0.69515 0.17939 0.10575 0.0
H1528 H 0.6728 0.15617 0.137 0.0
H1529 H 0.61105 0.15124 0.08897 0.0
C1530 C 0.65523 0.21077 0.02476 0.0
C1531 C 0.67589 0.22535 0.02187 0.0
C1532 C 0.6958 0.22252 0.03767 0.0
C1533 C 0.69445 0.20627 0.05718 0.0
C1534 C 0.6733 0.19277 0.06012 0.0
C1535 C 0.65428 0.19449 0.04395 0.0
C1536 C 0.63284 0.17956 0.05184 0.0
C1537 C 0.61026 0.1955 0.0556 0.0
C1538 C 0.62783 0.15899 0.03379 0.0
C1539 C 0.6423 0.16988 0.07551 0.0
C1540 C 0.66567 0.17757 0.08008 0.0
C1541 C 0.67708 0.17279 0.10209 0.0
C1542 C 0.66423 0.15983 0.11979 0.0
C1543 C 0.64035 0.15187 0.11521 0.0
C1544 C 0.62952 0.15666 0.09268 0.0
H1545 H 0.37758 0.77979 0.06455 0.0
H1546 H 0.34262 0.82906 0.01444 0.0
H1547 H 0.34295 0.86101 0.0458 0.0
H1548 H 0.34957 0.80429 0.12188 0.0
H1549 H 0.37752 0.79988 0.1381 0.0
H1550 H 0.36932 0.77956 0.11392 0.0
H1551 H 0.41017 0.78843 0.09261 0.0
H1552 H 0.41843 0.8086 0.11663 0.0
H1553 H 0.41822 0.81934 0.08586 0.0
H1554 H 0.3548 0.88936 0.07905 0.0
H1555 H 0.37682 0.91138 0.11117 0.0
H1556 H 0.4039 0.84326 0.13898 0.0
C1557 C 0.36935 0.79709 0.06035 0.0
C1558 C 0.36014 0.80203 0.03709 0.0
C1559 C 0.34968 0.8249 0.03223 0.0
C1560 C 0.3497 0.8431 0.04996 0.0
C1561 C 0.35986 0.8379 0.07248 0.0
C1562 C 0.36925 0.81531 0.07776 0.0
C1563 C 0.38209 0.81507 0.10187 0.0
C1564 C 0.36882 0.79873 0.12002 0.0
C1565 C 0.40879 0.80744 0.09905 0.0
C1566 C 0.37976 0.84143 0.10874 0.0
C1567 C 0.36643 0.85425 0.09187 0.0
C1568 C 0.36459 0.87941 0.09278 0.0
C1569 C 0.37719 0.89177 0.111 0.0
C1570 C 0.39142 0.87893 0.12797 0.0
C1571 C 0.39216 0.85346 0.12711 0.0
H1572 H 0.01631 0.63479 0.8219 0.0
H1573 H 0.99297 0.70456 0.79488 0.0
H1574 H 0.95734 0.7032 0.82221 0.0
H1575 H 0.96141 0.60796 0.82384 0.0
H1576 H 0.96626 0.59097 0.85123 0.0
H1577 H 0.99161 0.59944 0.83277 0.0
H1578 H 0.01167 0.62098 0.86931 0.0
H1579 H 0.98648 0.61225 0.88807 0.0
H1580 H 0.99498 0.64368 0.88578 0.0
H1581 H 0.92072 0.69002 0.84692 0.0
H1582 H 0.88888 0.66841 0.8701 0.0
H1583 H 0.93826 0.60863 0.88192 0.0
C1584 C 1.00409 0.65013 0.82239 0.0
C1585 C 1.00721 0.66982 0.8066 0.0
C1586 C 0.99089 0.68951 0.80726 0.0
C1587 C 0.97063 0.68881 0.82261 0.0
C1588 C 0.96754 0.66858 0.83742 0.0
C1589 C 0.98421 0.64988 0.83782 0.0
C1590 C 0.97615 0.62937 0.85391 0.0
C1591 C 0.97371 0.60555 0.83957 0.0
C1592 C 0.99334 0.62641 0.87556 0.0
C1593 C 0.95183 0.63887 0.86175 0.0
C1594 C 0.94705 0.66151 0.85218 0.0
C1595 C 0.92452 0.67258 0.855 0.0
C1596 C 0.90651 0.66014 0.86795 0.0
C1597 C 0.91133 0.63703 0.87785 0.0
C1598 C 0.93435 0.62656 0.87499 0.0
H1599 H 0.01038 0.39596 0.83689 0.0
H1600 H 0.04184 0.34832 0.78303 0.0
H1601 H 0.0789 0.34495 0.80758 0.0
H1602 H 0.05963 0.42978 0.84521 0.0
H1603 H 0.05629 0.4347 0.87725 0.0
H1604 H 0.03015 0.4284 0.85908 0.0
H1605 H 0.01941 0.39184 0.88646 0.0
H1606 H 0.04551 0.39819 0.90497 0.0
H1607 H 0.04166 0.36857 0.89181 0.0
H1608 H 0.11484 0.35283 0.83372 0.0
H1609 H 0.14643 0.37136 0.85928 0.0
H1610 H 0.09173 0.41492 0.89496 0.0
C1611 C 0.02466 0.38402 0.83076 0.0
C1612 C 0.02324 0.37233 0.80817 0.0
C1613 C 0.04256 0.35739 0.80037 0.0
C1614 C 0.06364 0.35525 0.81426 0.0
C1615 C 0.06498 0.368 0.83594 0.0
C1616 C 0.04588 0.3819 0.84429 0.0
C1617 C 0.05305 0.39664 0.86616 0.0
C1618 C 0.04958 0.42398 0.86163 0.0
C1619 C 0.03908 0.3883 0.88869 0.0
C1620 C 0.07949 0.38998 0.86792 0.0
C1621 C 0.08595 0.37301 0.85075 0.0
C1622 C 0.10993 0.36588 0.84747 0.0
C1623 C 0.12782 0.37681 0.86179 0.0
C1624 C 0.12158 0.39496 0.87873 0.0
C1625 C 0.09704 0.40093 0.8823 0.0
H1626 H 0.02663 0.40594 0.20178 0.0
H1627 H 0.99446 0.34468 0.23886 0.0
H1628 H 0.96029 0.34534 0.21014 0.0
H1629 H 0.97615 0.43784 0.19732 0.0
H1630 H 0.98173 0.45112 0.16808 0.0
H1631 H 1.00669 0.4417 0.18653 0.0
H1632 H 0.02247 0.41409 0.15205 0.0
H1633 H 0.99763 0.42371 0.13322 0.0
H1634 H 1.00259 0.39192 0.13872 0.0
H1635 H 0.92617 0.35777 0.18296 0.0
H1636 H 0.89562 0.38065 0.15981 0.0
H1637 H 0.94963 0.43493 0.14248 0.0
C1638 C 0.01295 0.39199 0.20326 0.0
C1639 C 0.01322 0.37524 0.22247 0.0
C1640 C 0.99468 0.35762 0.22414 0.0
C1641 C 0.97522 0.3578 0.20786 0.0
C1642 C 0.97476 0.37555 0.18995 0.0
C1643 C 0.99335 0.39214 0.18738 0.0
C1644 C 0.98696 0.4117 0.16937 0.0
C1645 C 0.98793 0.43706 0.18104 0.0
C1646 C 1.00339 0.41026 0.14701 0.0
C1647 C 0.96136 0.40439 0.1633 0.0
C1648 C 0.95479 0.38319 0.17481 0.0
C1649 C 0.93123 0.37424 0.17363 0.0
C1650 C 0.91386 0.3876 0.1608 0.0
C1651 C 0.92008 0.40993 0.14987 0.0
C1652 C 0.94432 0.41785 0.15051 0.0
H1653 H 0.1244 0.62852 0.18547 0.0
H1654 H 0.09103 0.62714 0.11463 0.0
H1655 H 0.0577 0.65265 0.12996 0.0
H1656 H 0.07561 0.61939 0.21696 0.0
H1657 H 0.08246 0.63877 0.24228 0.0
H1658 H 0.10656 0.62652 0.22445 0.0
H1659 H 0.12281 0.66971 0.21601 0.0
H1660 H 0.09875 0.68222 0.23416 0.0
H1661 H 0.10294 0.69234 0.20347 0.0
H1662 H 0.02421 0.66963 0.15495 0.0
H1663 H 0.99391 0.67565 0.18727 0.0
H1664 H 0.05039 0.66797 0.24114 0.0
C1665 C 0.11102 0.63483 0.17272 0.0
C1666 C 0.1107 0.6264 0.1487 0.0
C1667 C 0.09176 0.6337 0.13307 0.0
C1668 C 0.07286 0.64834 0.14157 0.0
C1669 C 0.07333 0.65575 0.16566 0.0
C1670 C 0.09218 0.64949 0.18092 0.0
C1671 C 0.08674 0.65623 0.20682 0.0
C1672 C 0.08789 0.63391 0.22357 0.0
C1673 C 0.10382 0.67633 0.21563 0.0
C1674 C 0.0612 0.66555 0.20406 0.0
C1675 C 0.05391 0.66576 0.18014 0.0
C1676 C 0.0299 0.67027 0.17366 0.0
C1677 C 0.01279 0.67366 0.19212 0.0
C1678 C 0.01984 0.6722 0.21666 0.0
C1679 C 0.04451 0.66935 0.22251 0.0
H1680 H 0.84158 0.89404 0.6265 0.0
H1681 H 0.90927 0.9199 0.65631 0.0
H1682 H 0.88769 0.95405 0.67562 0.0
H1683 H 0.82123 0.94777 0.60886 0.0
H1684 H 0.78964 0.94297 0.61535 0.0
H1685 H 0.80889 0.91754 0.60916 0.0
H1686 H 0.79721 0.89793 0.65007 0.0
H1687 H 0.77745 0.92316 0.65628 0.0
H1688 H 0.80067 0.91497 0.67766 0.0
H1689 H 0.86005 0.98892 0.68528 0.0
H1690 H 0.82879 0.02105 0.6846 0.0
H1691 H 0.77971 0.97185 0.64799 0.0
C1692 C 0.85165 0.906 0.63827 0.0
C1693 C 0.87694 0.90397 0.64056 0.0
C1694 C 0.88976 0.92098 0.65478 0.0
C1695 C 0.87766 0.94037 0.66583 0.0
C1696 C 0.85275 0.94241 0.66245 0.0
C1697 C 0.83986 0.92548 0.64921 0.0
C1698 C 0.81403 0.93348 0.64521 0.0
C1699 C 0.80813 0.93557 0.61805 0.0
C1700 C 0.79629 0.91637 0.65808 0.0
C1701 C 0.81469 0.95802 0.65725 0.0
C1702 C 0.83698 0.96274 0.66752 0.0
C1703 C 0.84236 0.98522 0.67776 0.0
C1704 C 0.82456 1.00339 0.67722 0.0
C1705 C 0.80188 0.99896 0.66619 0.0
C1706 C 0.79686 0.9758 0.65662 0.0
H1707 H 0.8532 0.12691 0.42085 0.0
H1708 H 0.92513 0.09717 0.41153 0.0
H1709 H 0.90752 0.06159 0.39064 0.0
H1710 H 0.82564 0.07513 0.43594 0.0
H1711 H 0.79742 0.08105 0.42072 0.0
H1712 H 0.81591 0.10585 0.43066 0.0
H1713 H 0.81703 0.12311 0.3871 0.0
H1714 H 0.79819 0.09845 0.37699 0.0
H1715 H 0.82686 0.10407 0.3625 0.0
H1716 H 0.88124 0.02688 0.37619 0.0
H1717 H 0.84896 0.99636 0.37021 0.0
H1718 H 0.795 0.05057 0.38813 0.0
C1719 C 0.86546 0.11372 0.41323 0.0
C1720 C 0.89061 0.11524 0.417 0.0
C1721 C 0.90581 0.09651 0.40836 0.0
C1722 C 0.89598 0.07633 0.39641 0.0
C1723 C 0.87097 0.07531 0.39322 0.0
C1724 C 0.85597 0.09368 0.40125 0.0
C1725 C 0.82961 0.08723 0.39832 0.0
C1726 C 0.8164 0.08731 0.42286 0.0
C1727 C 0.8172 0.10423 0.38014 0.0
C1728 C 0.83201 0.06194 0.38828 0.0
C1729 C 0.85593 0.05539 0.38511 0.0
C1730 C 0.86244 0.03199 0.37813 0.0
C1731 C 0.84401 0.01477 0.37481 0.0
C1732 C 0.8195 0.0211 0.37872 0.0
C1733 C 0.81355 0.04517 0.38486 0.0
H1734 H 0.24767 0.98687 0.3749 0.0
H1735 H 0.19376 0.04062 0.35567 0.0
H1736 H 0.16191 0.00925 0.35824 0.0
H1737 H 0.21739 0.93275 0.34589 0.0
H1738 H 0.22661 0.9136 0.37061 0.0
H1739 H 0.24547 0.93859 0.36141 0.0
H1740 H 0.24474 0.95535 0.40521 0.0
H1741 H 0.22598 0.93055 0.41447 0.0
H1742 H 0.21603 0.96123 0.41953 0.0
H1743 H 0.13566 0.97463 0.37119 0.0
H1744 H 0.11748 0.94002 0.39293 0.0
H1745 H 0.18888 0.90971 0.40419 0.0
C1746 C 0.22927 0.99194 0.37049 0.0
C1747 C 0.22313 0.01616 0.36514 0.0
C1748 C 0.19885 0.02211 0.35967 0.0
C1749 C 0.18068 1.00439 0.36102 0.0
C1750 C 0.18723 0.98084 0.36747 0.0
C1751 C 0.21105 0.97457 0.37184 0.0
C1752 C 0.21321 0.94917 0.38177 0.0
C1753 C 0.22645 0.93255 0.36384 0.0
C1754 C 0.2257 0.9491 0.40671 0.0
C1755 C 0.18679 0.94254 0.38367 0.0
C1756 C 0.17205 0.96077 0.37483 0.0
C1757 C 0.14699 0.95994 0.37747 0.0
C1758 C 0.13684 0.94029 0.38991 0.0
C1759 C 0.15174 0.92184 0.39959 0.0
C1760 C 0.17692 0.9228 0.39592 0.0
H1761 H 0.17989 0.13236 0.61028 0.0
H1762 H 0.1109 0.10216 0.63201 0.0
H1763 H 0.13222 0.06769 0.65126 0.0
H1764 H 0.20584 0.07906 0.59339 0.0
H1765 H 0.23595 0.08632 0.60361 0.0
H1766 H 0.21556 0.11018 0.59509 0.0
H1767 H 0.22094 0.13034 0.63709 0.0
H1768 H 0.24161 0.10661 0.64571 0.0
H1769 H 0.21543 0.11291 0.66408 0.0
H1770 H 0.1612 0.03446 0.66409 0.0
H1771 H 0.19492 1.00524 0.66843 0.0
H1772 H 0.2443 0.05841 0.63834 0.0
C1773 C 0.16926 0.11919 0.62009 0.0
C1774 C 0.1438 0.12033 0.62043 0.0
C1775 C 0.13049 0.10177 0.63201 0.0
C1776 C 0.14244 0.08222 0.64303 0.0
C1777 C 0.16765 0.08155 0.64218 0.0
C1778 C 0.18086 0.09966 0.63107 0.0
C1779 C 0.20751 0.09366 0.63029 0.0
C1780 C 0.21673 0.09221 0.60404 0.0
C1781 C 0.22224 0.11197 0.64519 0.0
C1782 C 0.20722 0.06905 0.64216 0.0
C1783 C 0.18417 0.0624 0.64917 0.0
C1784 C 0.17938 0.03963 0.65901 0.0
C1785 C 0.19862 0.02316 0.66138 0.0
C1786 C 0.22223 0.02954 0.65374 0.0
C1787 C 0.22651 0.05298 0.6445 0.0
H1788 H 0.43808 0.24183 0.09775 0.0
H1789 H 0.43349 0.30712 0.14128 0.0
H1790 H 0.46456 0.29078 0.16879 0.0
H1791 H 0.44799 0.19951 0.14857 0.0
H1792 H 0.46883 0.18096 0.13169 0.0
H1793 H 0.44514 0.19712 0.11619 0.0
H1794 H 0.47717 0.21736 0.08874 0.0
H1795 H 0.50102 0.2016 0.10441 0.0
H1796 H 0.50162 0.23416 0.10229 0.0
H1797 H 0.49858 0.26889 0.19006 0.0
H1798 H 0.5298 0.24112 0.20604 0.0
H1799 H 0.51217 0.18894 0.1502 0.0
C1800 C 0.44314 0.25248 0.1134 0.0
C1801 C 0.43295 0.27586 0.11728 0.0
C1802 C 0.44067 0.2892 0.13782 0.0
C1803 C 0.4585 0.28009 0.15355 0.0
C1804 C 0.46864 0.25744 0.14877 0.0
C1805 C 0.461 0.2436 0.12941 0.0
C1806 C 0.47522 0.21994 0.12824 0.0
C1807 C 0.45828 0.19809 0.13136 0.0
C1808 C 0.4896 0.21817 0.10451 0.0
C1809 C 0.4921 0.2227 0.14988 0.0
C1810 C 0.48806 0.24459 0.16131 0.0
C1811 C 0.50168 0.25161 0.18137 0.0
C1812 C 0.51946 0.23572 0.1903 0.0
C1813 C 0.52355 0.21282 0.1795 0.0
C1814 C 0.50974 0.20639 0.15878 0.0
H1815 H 0.60193 0.79272 0.09598 0.0
H1816 H 0.60894 0.72924 0.14173 0.0
H1817 H 0.57918 0.74666 0.17009 0.0
H1818 H 0.59427 0.83712 0.14513 0.0
H1819 H 0.57248 0.8548 0.1285 0.0
H1820 H 0.59544 0.83801 0.11256 0.0
H1821 H 0.56217 0.8164 0.08773 0.0
H1822 H 0.53906 0.83279 0.10386 0.0
H1823 H 0.53854 0.80015 0.10326 0.0
H1824 H 0.54656 0.76975 0.19247 0.0
H1825 H 0.51636 0.79836 0.20895 0.0
H1826 H 0.53024 0.84756 0.14954 0.0
C1827 C 0.59768 0.78268 0.11224 0.0
C1828 C 0.60818 0.75953 0.11657 0.0
C1829 C 0.60151 0.74698 0.13793 0.0
C1830 C 0.58443 0.75672 0.15415 0.0
C1831 C 0.57397 0.77914 0.14896 0.0
C1832 C 0.58055 0.79214 0.12868 0.0
C1833 C 0.56615 0.81567 0.12716 0.0
C1834 C 0.5831 0.83771 0.12842 0.0
C1835 C 0.55056 0.81628 0.10413 0.0
C1836 C 0.55042 0.81386 0.14972 0.0
C1837 C 0.55519 0.79253 0.16193 0.0
C1838 C 0.54285 0.78654 0.18309 0.0
C1839 C 0.52562 0.80288 0.1923 0.0
C1840 C 0.52075 0.82518 0.18059 0.0
C1841 C 0.53325 0.83055 0.1588 0.0
H1842 H 0.43647 0.73864 0.91356 0.0
H1843 H 0.39192 0.79718 0.94101 0.0
H1844 H 0.41645 0.82662 0.9181 0.0
H1845 H 0.49193 0.76974 0.91814 0.0
H1846 H 0.50516 0.75749 0.89098 0.0
H1847 H 0.4826 0.74045 0.90717 0.0
H1848 H 0.45639 0.73769 0.86849 0.0
H1849 H 0.47899 0.75452 0.85208 0.0
H1850 H 0.44813 0.76505 0.85273 0.0
H1851 H 0.44787 0.85036 0.89503 0.0
H1852 H 0.48293 0.86637 0.87229 0.0
H1853 H 0.50806 0.79319 0.85937 0.0
C1854 C 0.43138 0.75757 0.91413 0.0
C1855 C 0.41183 0.76543 0.9289 0.0
C1856 C 0.40648 0.79055 0.9297 0.0
C1857 C 0.42043 0.80748 0.91676 0.0
C1858 C 0.43992 0.79923 0.90299 0.0
C1859 C 0.44534 0.77485 0.90141 0.0
C1860 C 0.46819 0.77104 0.8864 0.0
C1861 C 0.48815 0.75897 0.90158 0.0
C1862 C 0.46259 0.75619 0.86357 0.0
C1863 C 0.47487 0.79705 0.88001 0.0
C1864 C 0.45823 0.81299 0.88978 0.0
C1865 C 0.46086 0.838 0.88716 0.0
C1866 C 0.48089 0.84696 0.87427 0.0
C1867 C 0.49825 0.83111 0.86405 0.0
C1868 C 0.49503 0.80576 0.86686 0.0
H1869 H 0.54524 0.18615 0.87559 0.0
H1870 H 0.52674 0.23875 0.82042 0.0
H1871 H 0.55716 0.26696 0.83709 0.0
H1872 H 0.55238 0.23082 0.92381 0.0
H1873 H 0.57682 0.21473 0.93821 0.0
H1874 H 0.55431 0.19833 0.92127 0.0
H1875 H 0.58816 0.17926 0.89511 0.0
H1876 H 0.61073 0.19591 0.91175 0.0
H1877 H 0.60905 0.1987 0.87932 0.0
H1878 H 0.59015 0.28958 0.8595 0.0
H1879 H 0.61944 0.30673 0.88844 0.0
H1880 H 0.61534 0.2409 0.93116 0.0
C1881 C 0.54735 0.20372 0.86719 0.0
C1882 C 0.53356 0.21007 0.84643 0.0
C1883 C 0.53723 0.23322 0.83601 0.0
C1884 C 0.55451 0.24943 0.84541 0.0
C1885 C 0.56797 0.24253 0.86561 0.0
C1886 C 0.56432 0.22038 0.87666 0.0
C1887 C 0.58046 0.21799 0.8989 0.0
C1888 C 0.56507 0.21531 0.92191 0.0
C1889 C 0.59815 0.19669 0.8961 0.0
C1890 C 0.5938 0.24217 0.89854 0.0
C1891 C 0.58645 0.25591 0.87901 0.0
C1892 C 0.59597 0.27895 0.87487 0.0
C1893 C 0.6128 0.28852 0.89143 0.0
C1894 C 0.62007 0.27529 0.9122 0.0
C1895 C 0.61059 0.25153 0.91541 0.0
H1896 H 0.09382 0.4212 0.24797 0.0
H1897 H 0.13508 0.41944 0.31465 0.0
H1898 H 0.16393 0.44899 0.29749 0.0
H1899 H 0.14551 0.42887 0.20621 0.0
H1900 H 0.12917 0.44932 0.18676 0.0
H1901 H 0.11311 0.42635 0.20343 0.0
H1902 H 0.08575 0.4594 0.22217 0.0
H1903 H 0.10193 0.48252 0.20587 0.0
H1904 H 0.09937 0.48428 0.23831 0.0
H1905 H 0.18713 0.48096 0.27399 0.0
H1906 H 0.20366 0.51125 0.24546 0.0
H1907 H 0.14743 0.49327 0.1939 0.0
C1908 C 0.10934 0.42643 0.25871 0.0
C1909 C 0.11231 0.41746 0.28265 0.0
C1910 C 0.13248 0.42563 0.29625 0.0
C1911 C 0.14894 0.44257 0.28666 0.0
C1912 C 0.14509 0.45153 0.26336 0.0
C1913 C 0.12587 0.44362 0.24947 0.0
C1914 C 0.12521 0.45706 0.22538 0.0
C1915 C 0.12845 0.43934 0.20419 0.0
C1916 C 0.10166 0.47168 0.22279 0.0
C1917 C 0.14702 0.47377 0.2279 0.0
C1918 C 0.15822 0.47023 0.24997 0.0
C1919 C 0.17854 0.4837 0.25662 0.0
C1920 C 0.18782 0.50092 0.24029 0.0
C1921 C 0.17694 0.50476 0.21742 0.0
C1922 C 0.1561 0.49099 0.2113 0.0
H1923 H 0.93966 0.60955 0.23901 0.0
H1924 H 0.89274 0.62074 0.30083 0.0
H1925 H 0.8626 0.59296 0.28283 0.0
H1926 H 0.89186 0.60345 0.19267 0.0
H1927 H 0.90777 0.57989 0.17666 0.0
H1928 H 0.92446 0.60251 0.1932 0.0
H1929 H 0.94615 0.56864 0.2172 0.0
H1930 H 0.92929 0.54592 0.201 0.0
H1931 H 0.92841 0.5467 0.23356 0.0
H1932 H 0.83822 0.56204 0.25899 0.0
H1933 H 0.8215 0.53117 0.2312 0.0
H1934 H 0.88444 0.53862 0.1851 0.0
C1935 C 0.92271 0.60677 0.24843 0.0
C1936 C 0.91844 0.61791 0.27122 0.0
C1937 C 0.89637 0.61287 0.28326 0.0
C1938 C 0.87914 0.59697 0.27318 0.0
C1939 C 0.8842 0.58585 0.25105 0.0
C1940 C 0.90543 0.59059 0.23876 0.0
C1941 C 0.90704 0.57514 0.21595 0.0
C1942 C 0.90782 0.59121 0.19327 0.0
C1943 C 0.92903 0.5581 0.217 0.0
C1944 C 0.88344 0.56095 0.21732 0.0
C1945 C 0.87051 0.56751 0.2377 0.0
C1946 C 0.84822 0.55687 0.24299 0.0
C1947 C 0.83885 0.5393 0.22708 0.0
C1948 C 0.85165 0.53217 0.20605 0.0
C1949 C 0.87433 0.54326 0.20121 0.0
H1950 H 0.12811 0.58538 0.74475 0.0
H1951 H 0.10868 0.63517 0.80217 0.0
H1952 H 0.13158 0.61022 0.83139 0.0
H1953 H 0.12072 0.53216 0.7796 0.0
H1954 H 0.14552 0.51578 0.76618 0.0
H1955 H 0.13002 0.53879 0.74908 0.0
H1956 H 0.17051 0.56112 0.74171 0.0
H1957 H 0.18621 0.53801 0.75854 0.0
H1958 H 0.18917 0.56936 0.76716 0.0
H1959 H 0.15477 0.57849 0.85511 0.0
H1960 H 0.1769 0.54293 0.87116 0.0
H1961 H 0.18033 0.51231 0.79917 0.0
C1962 C 0.12934 0.59146 0.76332 0.0
C1963 C 0.11696 0.6127 0.77097 0.0
C1964 C 0.11826 0.61933 0.79571 0.0
C1965 C 0.13118 0.60515 0.8125 0.0
C1966 C 0.14261 0.58406 0.80451 0.0
C1967 C 0.14189 0.57723 0.78048 0.0
C1968 C 0.15445 0.55289 0.77695 0.0
C1969 C 0.13661 0.53378 0.76738 0.0
C1970 C 0.17639 0.55551 0.76009 0.0
C1971 C 0.16234 0.54708 0.80271 0.0
C1972 C 0.15537 0.5654 0.81829 0.0
C1973 C 0.16035 0.56413 0.84302 0.0
C1974 C 0.17287 0.54384 0.85202 0.0
C1975 C 0.18026 0.52485 0.83649 0.0
C1976 C 0.17484 0.52653 0.81148 0.0
H1977 H 0.84701 0.51705 0.7911 0.0
H1978 H 0.867 0.50039 0.86494 0.0
H1979 H 0.89054 0.46499 0.85066 0.0
H1980 H 0.84136 0.45509 0.76973 0.0
H1981 H 0.85451 0.46098 0.7405 0.0
H1982 H 0.83874 0.48475 0.75635 0.0
H1983 H 0.8766 0.5122 0.75356 0.0
H1984 H 0.89236 0.48862 0.73747 0.0
H1985 H 0.90521 0.50116 0.76468 0.0
H1986 H 0.91186 0.43116 0.82843 0.0
H1987 H 0.93244 0.40367 0.80003 0.0
H1988 H 0.90015 0.44214 0.73967 0.0
C1989 C 0.85646 0.50595 0.80417 0.0
C1990 C 0.85528 0.51153 0.8292 0.0
C1991 C 0.86781 0.49655 0.84575 0.0
C1992 C 0.88112 0.47632 0.83777 0.0
C1993 C 0.8819 0.47119 0.81306 0.0
C1994 C 0.87013 0.48571 0.79642 0.0
C1995 C 0.87472 0.47653 0.7708 0.0
C1996 C 0.85091 0.46889 0.75863 0.0
C1997 C 0.88801 0.49577 0.75574 0.0
C1998 C 0.89087 0.45464 0.77562 0.0
C1999 C 0.89455 0.45183 0.80017 0.0
C2000 C 0.90906 0.43324 0.80918 0.0
C2001 C 0.92065 0.41756 0.7928 0.0
C2002 C 0.91796 0.42037 0.76742 0.0
C2003 C 0.9024 0.43905 0.75887 0.0
H2004 H 0.18171 0.15724 0.4927 0.0
H2005 H 0.23544 0.209 0.51705 0.0
H2006 H 0.26461 0.19256 0.48749 0.0
H2007 H 0.22466 0.1072 0.48522 0.0
H2008 H 0.20948 0.09495 0.45909 0.0
H2009 H 0.19251 0.11131 0.48159 0.0
H2010 H 0.17662 0.14025 0.44839 0.0
H2011 H 0.19386 0.12419 0.42585 0.0
H2012 H 0.19789 0.15636 0.42964 0.0
H2013 H 0.28787 0.17137 0.45461 0.0
H2014 H 0.30553 0.14375 0.42451 0.0
H2015 H 0.23836 0.103 0.42249 0.0
C2016 C 0.19973 0.16487 0.49208 0.0
C2017 C 0.20617 0.18464 0.50728 0.0
C2018 C 0.2299 0.19415 0.5055 0.0
C2019 C 0.24664 0.1849 0.48872 0.0
C2020 C 0.23967 0.16573 0.47382 0.0
C2021 C 0.21694 0.15549 0.47559 0.0
C2022 C 0.21459 0.13427 0.45803 0.0
C2023 C 0.21004 0.11053 0.4718 0.0
C2024 C 0.19455 0.13906 0.43937 0.0
C2025 C 0.2395 0.13429 0.44611 0.0
C2026 C 0.25349 0.15284 0.45536 0.0
C2027 C 0.27708 0.15672 0.44734 0.0
C2028 C 0.28695 0.1409 0.43003 0.0
C2029 C 0.2735 0.12102 0.4208 0.0
C2030 C 0.24919 0.11806 0.42881 0.0
H2031 H 0.19093 0.88815 0.52961 0.0
H2032 H 0.24072 0.82848 0.51875 0.0
H2033 H 0.26766 0.84528 0.55024 0.0
H2034 H 0.23797 0.93401 0.53817 0.0
H2035 H 0.22093 0.95065 0.56045 0.0
H2036 H 0.20537 0.93358 0.53745 0.0
H2037 H 0.18195 0.91042 0.57073 0.0
H2038 H 0.19775 0.92717 0.59382 0.0
H2039 H 0.19853 0.89453 0.59389 0.0
H2040 H 0.2892 0.86828 0.58348 0.0
H2041 H 0.3058 0.89769 0.61265 0.0
H2042 H 0.24329 0.94396 0.60142 0.0
C2043 C 0.20766 0.87879 0.53362 0.0
C2044 C 0.21358 0.85678 0.52166 0.0
C2045 C 0.23559 0.84512 0.52776 0.0
C2046 C 0.25103 0.85456 0.54568 0.0
C2047 C 0.24452 0.87599 0.55737 0.0
C2048 C 0.22353 0.8882 0.55136 0.0
C2049 C 0.2213 0.91139 0.56618 0.0
C2050 C 0.2214 0.93373 0.54957 0.0
C2051 C 0.19852 0.91083 0.5821 0.0
C2052 C 0.24421 0.91024 0.58151 0.0
C2053 C 0.25722 0.88954 0.57622 0.0
C2054 C 0.27914 0.88455 0.58771 0.0
C2055 C 0.28839 0.90139 0.60445 0.0
C2056 C 0.27593 0.92324 0.60973 0.0
C2057 C 0.25323 0.92736 0.59826 0.0
H2058 H 0.78652 0.09047 0.60989 0.0
H2059 H 0.71825 0.12939 0.60884 0.0
H2060 H 0.73527 0.15842 0.57968 0.0
H2061 H 0.8255 0.1449 0.60472 0.0
H2062 H 0.84728 0.12988 0.58565 0.0
H2063 H 0.83022 0.11271 0.60748 0.0
H2064 H 0.8155 0.08423 0.57337 0.0
H2065 H 0.83218 0.10154 0.55136 0.0
H2066 H 0.80014 0.09684 0.54752 0.0
H2067 H 0.75813 0.18121 0.54751 0.0
H2068 H 0.78701 0.19932 0.51867 0.0
H2069 H 0.84201 0.14832 0.54179 0.0
C2070 C 0.7753 0.10542 0.604 0.0
C2071 C 0.75089 0.10747 0.61199 0.0
C2072 C 0.73692 0.12723 0.60331 0.0
C2073 C 0.74643 0.14385 0.58654 0.0
C2074 C 0.77016 0.14087 0.57852 0.0
C2075 C 0.78463 0.12244 0.58727 0.0
C2076 C 0.80956 0.12342 0.57544 0.0
C2077 C 0.82931 0.128 0.59446 0.0
C2078 C 0.81464 0.10012 0.56107 0.0
C2079 C 0.80673 0.1451 0.55857 0.0
C2080 C 0.78372 0.15468 0.56053 0.0
C2081 C 0.77632 0.17409 0.54618 0.0
C2082 C 0.79291 0.18431 0.52981 0.0
C2083 C 0.81694 0.17556 0.52795 0.0
C2084 C 0.82379 0.15546 0.54252 0.0
H2085 H 0.84999 0.88039 0.50376 0.0
H2086 H 0.80079 0.81995 0.51277 0.0
H2087 H 0.77395 0.83709 0.48139 0.0
H2088 H 0.80251 0.92618 0.49466 0.0
H2089 H 0.81981 0.94302 0.47276 0.0
H2090 H 0.8351 0.92602 0.496 0.0
H2091 H 0.85934 0.90316 0.46308 0.0
H2092 H 0.84382 0.91982 0.43976 0.0
H2093 H 0.84334 0.88718 0.43957 0.0
H2094 H 0.75275 0.8601 0.44818 0.0
H2095 H 0.73654 0.88929 0.41861 0.0
H2096 H 0.79836 0.93615 0.43115 0.0
C2097 C 0.83335 0.87101 0.49942 0.0
C2098 C 0.8275 0.84872 0.51086 0.0
C2099 C 0.80571 0.83693 0.50429 0.0
C2100 C 0.79037 0.84652 0.4864 0.0
C2101 C 0.79681 0.86819 0.47515 0.0
C2102 C 0.8176 0.88052 0.48161 0.0
C2103 C 0.8199 0.90378 0.46691 0.0
C2104 C 0.81929 0.92607 0.48357 0.0
C2105 C 0.84298 0.90346 0.45141 0.0
C2106 C 0.79729 0.90248 0.45113 0.0
C2107 C 0.78435 0.88168 0.45614 0.0
C2108 C 0.76274 0.87647 0.44418 0.0
C2109 C 0.7537 0.89319 0.42722 0.0
C2110 C 0.7661 0.91512 0.42217 0.0
C2111 C 0.78849 0.91948 0.43415 0.0
H2112 H 0.01698 0.46405 0.34686 0.0
H2113 H 0.01444 0.44732 0.27011 0.0
H2114 H 0.00932 0.49055 0.26091 0.0
H2115 H 0.97165 0.51433 0.34389 0.0
H2116 H 0.9874 0.53147 0.36675 0.0
H2117 H 0.98834 0.49886 0.36725 0.0
H2118 H 0.03519 0.50078 0.36724 0.0
H2119 H 0.03441 0.53335 0.36584 0.0
H2120 H 0.05057 0.51642 0.34312 0.0
H2121 H 0.01129 0.53531 0.25958 0.0
H2122 H 0.00892 0.57924 0.2663 0.0
H2123 H 0.00737 0.56735 0.34395 0.0
C2124 C 0.01456 0.46941 0.32818 0.0
C2125 C 0.01626 0.45234 0.30921 0.0
C2126 C 0.01309 0.46003 0.28497 0.0
C2127 C 0.01043 0.48459 0.27951 0.0
C2128 C 0.01042 0.50107 0.29853 0.0
C2129 C 0.01146 0.49383 0.3224 0.0
C2130 C 0.01107 0.51538 0.33934 0.0
C2131 C 0.98825 0.51499 0.35524 0.0
C2132 C 0.03419 0.51653 0.35479 0.0
C2133 C 0.01026 0.53584 0.32116 0.0
C2134 C 0.01031 0.52712 0.29775 0.0
C2135 C 0.01076 0.54241 0.27781 0.0
C2136 C 0.00976 0.56737 0.28186 0.0
C2137 C 0.00788 0.57669 0.30567 0.0
C2138 C 0.00877 0.56071 0.32557 0.0
H2139 H 0.02932 0.56269 0.74806 0.0
H2140 H 0.03519 0.57794 0.67133 0.0
H2141 H 0.02612 0.53515 0.66208 0.0
H2142 H 0.05862 0.5057 0.74583 0.0
H2143 H 0.03967 0.49155 0.76827 0.0
H2144 H 0.04473 0.52377 0.76916 0.0
H2145 H 0.9985 0.53174 0.76774 0.0
H2146 H 0.9933 0.49956 0.76758 0.0
H2147 H 0.98067 0.51821 0.74401 0.0
H2148 H 0.01711 0.49119 0.66114 0.0
H2149 H 1.00536 0.44869 0.66855 0.0
H2150 H 0.00804 0.4614 0.7459 0.0
C2151 C 0.02804 0.5571 0.72933 0.0
C2152 C 0.03263 0.57349 0.71036 0.0
C2153 C 0.03152 0.56553 0.68605 0.0
C2154 C 0.02656 0.54132 0.68065 0.0
C2155 C 0.02306 0.52537 0.69979 0.0
C2156 C 0.02352 0.5329 0.72362 0.0
C2157 C 0.01973 0.51191 0.74076 0.0
C2158 C 0.04202 0.50801 0.75696 0.0
C2159 C 0.99668 0.51557 0.7559 0.0
C2160 C 0.01685 0.49146 0.72279 0.0
C2161 C 0.0189 0.49965 0.69926 0.0
C2162 C 0.01564 0.48446 0.67946 0.0
C2163 C 0.00914 0.4604 0.68382 0.0
C2164 C 1.00624 0.45187 0.70776 0.0
C2165 C 0.01085 0.46737 0.72746 0.0
H2166 H 0.28977 0.02817 0.46218 0.0
H2167 H 0.36647 0.02817 0.44569 0.0
H2168 H 0.37572 0.0185 0.48831 0.0
H2169 H 0.29487 0.05893 0.51599 0.0
H2170 H 0.27144 0.04276 0.5319 0.0
H2171 H 0.27019 0.04539 0.4995 0.0
H2172 H 0.26835 0.99867 0.49495 0.0
H2173 H 0.26869 0.9959 0.52739 0.0
H2174 H 0.29099 0.98022 0.5095 0.0
H2175 H 0.37667 0.01233 0.53294 0.0
H2176 H 0.36902 1.00659 0.5766 0.0
H2177 H 0.29185 0.01393 0.56396 0.0
C2178 C 0.30842 0.02512 0.46738 0.0
C2179 C 0.32743 0.02849 0.4508 0.0
C2180 C 0.35172 0.02533 0.45827 0.0
C2181 C 0.35712 0.01998 0.48237 0.0
C2182 C 0.33801 0.0181 0.49862 0.0
C2183 C 0.31413 0.02027 0.49143 0.0
C2184 C 0.2971 0.01937 0.51276 0.0
C2185 C 0.28255 0.04302 0.51516 0.0
C2186 C 0.2803 0.99722 0.51105 0.0
C2187 C 0.31515 0.01671 0.53306 0.0
C2188 C 0.33863 0.01583 0.52453 0.0
C2189 C 0.35838 0.01295 0.53988 0.0
C2190 C 0.35389 0.00992 0.56459 0.0
C2191 C 0.32991 0.01016 0.57354 0.0
C2192 C 0.3104 0.01422 0.55765 0.0
H2193 H 0.73896 0.01597 0.56891 0.0
H2194 H 0.66114 0.01849 0.57905 0.0
H2195 H 0.65526 0.01208 0.5352 0.0
H2196 H 0.7397 0.04995 0.51592 0.0
H2197 H 0.76384 0.03333 0.50161 0.0
H2198 H 0.76223 0.03491 0.53408 0.0
H2199 H 0.76195 0.98803 0.53709 0.0
H2200 H 0.76444 0.9863 0.50468 0.0
H2201 H 0.74003 0.97099 0.51995 0.0
H2202 H 0.65804 1.00735 0.49031 0.0
H2203 H 0.66932 1.00115 0.44751 0.0
H2204 H 0.74527 1.00513 0.46693 0.0
C2205 C 0.72068 0.01433 0.56204 0.0
C2206 C 0.70047 0.01737 0.57727 0.0
C2207 C 0.67681 0.01593 0.56757 0.0
C2208 C 0.67332 0.01248 0.54274 0.0
C2209 C 0.69368 0.01078 0.52803 0.0
C2210 C 0.71688 0.01139 0.53733 0.0
C2211 C 0.73571 0.01044 0.51755 0.0
C2212 C 0.75128 0.03354 0.51729 0.0
C2213 C 0.75145 0.98758 0.51996 0.0
C2214 C 0.71945 0.00919 0.49566 0.0
C2215 C 0.69528 0.00935 0.50208 0.0
C2216 C 0.67688 1.00731 0.48502 0.0
C2217 C 0.68343 1.004 0.46081 0.0
C2218 C 0.70811 1.00306 0.45404 0.0
C2219 C 0.72628 1.00643 0.47157 0.0
H2220 H 0.47194 0.28803 0.02237 0.0
H2221 H 0.45725 0.3652 0.02443 0.0
H2222 H 0.49997 0.37361 0.01431 0.0
H2223 H 0.52699 0.29119 0.05202 0.0
H2224 H 0.54172 0.26766 0.03489 0.0
H2225 H 0.50937 0.26723 0.03858 0.0
H2226 H 0.5033 0.26641 0.9921 0.0
H2227 H 0.53565 0.26601 0.98824 0.0
H2228 H 0.51778 0.28908 0.97366 0.0
H2229 H 0.5444 0.37359 1.00686 0.0
H2230 H 0.58763 0.36502 0.99934 0.0
H2231 H 0.57344 0.28794 1.00519 0.0
C2232 C 0.47754 0.30665 0.01979 0.0
C2233 C 0.46142 0.326 0.02379 0.0
C2234 C 0.46945 0.35019 0.02114 0.0
C2235 C 0.49361 0.35512 0.01555 0.0
C2236 C 0.50936 0.33563 0.01291 0.0
C2237 C 0.50164 0.31189 0.01468 0.0
C2238 C 0.52251 0.29432 0.01271 0.0
C2239 C 0.5253 0.27922 0.03593 0.0
C2240 C 0.51964 0.278 0.99034 0.0
C2241 C 0.54319 0.31193 0.00975 0.0
C2242 C 0.53521 0.33565 0.00979 0.0
C2243 C 0.55091 0.3551 1.00677 0.0
C2244 C 0.57537 0.35009 1.00269 0.0
C2245 C 0.58374 0.32587 1.00199 0.0
C2246 C 0.56756 0.30663 1.00617 0.0
H2247 H 0.56455 0.74543 0.02478 0.0
H2248 H 0.58211 0.66886 0.02436 0.0
H2249 H 0.53919 0.659 0.01671 0.0
H2250 H 0.51148 0.7398 0.05753 0.0
H2251 H 0.49482 0.76296 0.0417 0.0
H2252 H 0.5273 0.76461 0.04342 0.0
H2253 H 0.53047 0.76624 0.99668 0.0
H2254 H 0.49795 0.76547 0.99482 0.0
H2255 H 0.5157 0.74328 0.9788 0.0
H2256 H 0.49445 0.65741 0.01201 0.0
H2257 H 0.45059 0.66436 1.00687 0.0
H2258 H 0.46206 0.74184 0.01336 0.0
C2259 C 0.55947 0.72667 0.02213 0.0
C2260 C 0.5765 0.70788 0.02475 0.0
C2261 C 0.5692 0.68346 0.0221 0.0
C2262 C 0.54492 0.6777 0.01791 0.0
C2263 C 0.52832 0.69661 0.01668 0.0
C2264 C 0.53526 0.7206 0.01839 0.0
C2265 C 0.51363 0.73736 0.01798 0.0
C2266 C 0.51171 0.75204 0.04156 0.0
C2267 C 0.51449 0.75407 0.99574 0.0
C2268 C 0.49345 0.71901 0.016 0.0
C2269 C 0.50233 0.69562 0.01516 0.0
C2270 C 0.48723 0.67561 0.01266 0.0
C2271 C 0.4624 0.67971 0.00996 0.0
C2272 C 0.45306 0.70358 0.01009 0.0
C2273 C 0.46871 0.72338 0.01381 0.0
H2274 H 0.50958 0.06731 0.83949 0.0
H2275 H 0.51127 0.0783 0.76175 0.0
H2276 H 0.51374 0.0342 0.75557 0.0
H2277 H 0.55241 0.01638 0.83965 0.0
H2278 H 0.5368 1.00133 0.86399 0.0
H2279 H 0.5362 0.03386 0.86192 0.0
H2280 H 0.4893 0.03246 0.86258 0.0
H2281 H 0.48978 0.99987 0.86376 0.0
H2282 H 0.47346 0.01507 0.83998 0.0
H2283 H 0.51199 0.98916 0.75765 0.0
H2284 H 0.51665 0.94601 0.76786 0.0
H2285 H 0.5179 0.96436 0.84423 0.0
C2286 C 0.51104 0.06045 0.8212 0.0
C2287 C 0.51018 0.07617 0.80112 0.0
C2288 C 0.51211 0.06658 0.77743 0.0
C2289 C 0.51318 0.04155 0.7737 0.0
C2290 C 0.51268 0.0265 0.79385 0.0
C2291 C 0.51248 0.03555 0.81714 0.0
C2292 C 0.51291 0.01542 0.83566 0.0
C2293 C 0.53596 0.01683 0.85121 0.0
C2294 C 0.49 0.01574 0.85142 0.0
C2295 C 0.51325 0.99365 0.81908 0.0
C2296 C 0.51259 1.00045 0.79506 0.0
C2297 C 0.51273 0.98356 0.77638 0.0
C2298 C 0.51508 0.95907 0.78239 0.0
C2299 C 0.51771 0.95189 0.80685 0.0
C2300 C 0.51586 0.96935 0.8254 0.0
H2301 H 0.50977 0.96953 0.24197 0.0
H2302 H 0.49746 0.95846 0.16524 0.0
H2303 H 0.50777 1.00129 0.15748 0.0
H2304 H 0.48297 0.02768 0.24483 0.0
H2305 H 0.50416 0.03968 0.26652 0.0
H2306 H 0.49761 1.00773 0.26608 0.0
H2307 H 0.54319 0.99784 0.26085 0.0
H2308 H 0.54993 0.02971 0.2619 0.0
H2309 H 0.55988 0.01177 0.23656 0.0
H2310 H 0.51916 0.04492 0.15815 0.0
H2311 H 0.5329 0.08656 0.16703 0.0
H2312 H 0.53487 0.06968 0.2436 0.0
C2313 C 0.50978 0.97599 0.22348 0.0
C2314 C 0.5031 0.96076 0.20414 0.0
C2315 C 0.5027 0.96993 0.18025 0.0
C2316 C 0.5084 0.99418 0.17569 0.0
C2317 C 0.51413 0.00894 0.19528 0.0
C2318 C 0.51499 1.0002 0.21867 0.0
C2319 C 0.52103 0.02001 0.23656 0.0
C2320 C 0.50019 0.024 0.25455 0.0
C2321 C 0.54493 0.0145 0.24973 0.0
C2322 C 0.52359 0.04123 0.21952 0.0
C2323 C 0.51957 0.03443 0.19579 0.0
C2324 C 0.52215 0.05056 0.17665 0.0
C2325 C 0.52984 0.07411 0.18185 0.0
C2326 C 0.53451 0.08123 0.20599 0.0
C2327 C 0.53076 0.06479 0.22507 0.0
H2328 H 0.78915 0.51357 0.06382 0.0
H2329 H 0.8664 0.50439 0.07464 0.0
H2330 H 0.87338 0.51214 0.03123 0.0
H2331 H 0.78636 0.4829 0.00803 0.0
H2332 H 0.76398 0.50257 0.99476 0.0
H2333 H 0.76491 0.49846 0.02704 0.0
H2334 H 0.76906 0.54482 0.03346 0.0
H2335 H 0.76742 0.54912 1.00124 0.0
H2336 H 0.79272 0.56108 0.01798 0.0
H2337 H 0.87189 0.5199 0.98703 0.0
H2338 H 0.86223 0.5303 0.94469 0.0
H2339 H 0.78577 0.53174 0.96229 0.0
C2340 C 0.80757 0.51384 0.05716 0.0
C2341 C 0.82729 0.50864 0.07248 0.0
C2342 C 0.8511 0.50849 0.06309 0.0
C2343 C 0.85522 0.51273 0.03851 0.0
C2344 C 0.83529 0.51682 0.02369 0.0
C2345 C 0.81197 0.51764 0.03264 0.0
C2346 C 0.79369 0.52168 0.0127 0.0
C2347 C 0.77621 0.50011 0.01052 0.0
C2348 C 0.77992 0.5456 0.01658 0.0
C2349 C 0.81043 0.5231 0.99115 0.0
C2350 C 0.83434 0.52025 0.99792 0.0
C2351 C 0.85325 0.52201 0.98143 0.0
C2352 C 0.8476 0.52777 0.95748 0.0
C2353 C 0.82328 0.5314 0.95036 0.0
C2354 C 0.80444 0.52838 0.96722 0.0
H2355 H 0.24204 0.50203 0.97254 0.0
H2356 H 0.16562 0.49234 0.95734 0.0
H2357 H 0.15622 0.49853 1.00055 0.0
H2358 H 0.24223 0.46948 0.02736 0.0
H2359 H 0.26362 0.48893 0.04247 0.0
H2360 H 0.26447 0.4859 0.01006 0.0
H2361 H 0.26006 0.5324 1.00496 0.0
H2362 H 0.26 0.53561 0.03735 0.0
H2363 H 0.23544 0.54787 0.01974 0.0
H2364 H 0.15525 0.50487 0.04507 0.0
H2365 H 0.16252 0.51457 0.08808 0.0
H2366 H 0.23977 0.51723 0.07447 0.0
C2367 C 0.22329 0.50191 0.97822 0.0
C2368 C 0.20449 0.49701 0.96172 0.0
C2369 C 0.18021 0.49627 0.96982 0.0
C2370 C 0.17473 0.49959 0.99427 0.0
C2371 C 0.19379 0.50333 0.01028 0.0
C2372 C 0.21754 0.50476 1.0026 0.0
C2373 C 0.23467 0.50832 0.02361 0.0
C2374 C 0.25228 0.48687 0.026 0.0
C2375 C 0.24834 0.53249 0.02128 0.0
C2376 C 0.21679 0.50883 0.04427 0.0
C2377 C 0.19332 0.50588 0.03618 0.0
C2378 C 0.17354 0.50701 0.05171 0.0
C2379 C 0.17784 0.51235 0.07605 0.0
C2380 C 0.2017 0.51622 0.08449 0.0
C2381 C 0.22143 0.51365 0.06857 0.0
H2382 H 0.97166 0.78991 0.52772 0.0
H2383 H 0.95568 0.86626 0.53723 0.0
H2384 H 0.99845 0.87629 0.52876 0.0
H2385 H 0.0281 0.79134 0.55777 0.0
H2386 H 0.04248 0.76966 0.53809 0.0
H2387 H 0.01027 0.76845 0.54282 0.0
H2388 H 1.00273 0.77163 0.49663 0.0
H2389 H 0.03491 0.77214 0.49173 0.0
H2390 H 0.01625 0.79614 0.47988 0.0
H2391 H 0.04265 0.87778 0.51939 0.0
H2392 H 0.08532 0.87074 0.50794 0.0
H2393 H 0.0726 0.7932 0.50815 0.0
C2394 C 0.97706 0.80876 0.5274 0.0
C2395 C 0.9605 0.82739 0.53274 0.0
C2396 C 0.96823 0.85182 0.53292 0.0
C2397 C 0.99242 0.85765 0.52828 0.0
C2398 C 0.00852 0.83876 0.52391 0.0
C2399 C 1.00117 0.81484 0.52334 0.0
C2400 C 0.0222 0.79791 0.51908 0.0
C2401 C 0.02598 0.78084 0.54074 0.0
C2402 C 0.01882 0.78363 0.49542 0.0
C2403 C 0.0425 0.81608 0.51711 0.0
C2404 C 0.03424 0.83955 0.5199 0.0
C2405 C 0.04942 0.8595 0.5174 0.0
C2406 C 0.07357 0.85535 0.51104 0.0
C2407 C 0.08215 0.83145 0.5076 0.0
C2408 C 0.0666 0.81161 0.51134 0.0
H2409 H 0.06221 0.19212 0.52699 0.0
H2410 H 0.0759 0.26959 0.52444 0.0
H2411 H 0.03227 0.27716 0.51999 0.0
H2412 H 0.01279 0.19279 0.48234 0.0
H2413 H 0.99638 0.1693 0.49792 0.0
H2414 H 0.0289 0.17022 0.49953 0.0
H2415 H 0.02603 0.17063 0.54633 0.0
H2416 H 0.99348 0.17056 0.54484 0.0
H2417 H 0.00899 0.1942 0.56114 0.0
H2418 H 0.98728 0.27665 0.52014 0.0
H2419 H 0.94394 0.26785 0.51495 0.0
H2420 H 0.95955 0.19071 0.51581 0.0
C2421 C 0.05609 0.21064 0.52493 0.0
C2422 C 0.07243 0.23024 0.52619 0.0
C2423 C 0.06374 0.25424 0.52341 0.0
C2424 C 0.03896 0.25878 0.52116 0.0
C2425 C 0.02325 0.23912 0.52134 0.0
C2426 C 0.03146 0.21551 0.52237 0.0
C2427 C 0.01073 0.19766 0.52166 0.0
C2428 C 0.01229 0.18155 0.49901 0.0
C2429 C 0.00977 0.18237 0.54488 0.0
C2430 C 0.98959 0.21499 0.52029 0.0
C2431 C 0.99722 0.2388 0.52057 0.0
C2432 C 0.98104 0.25808 0.51965 0.0
C2433 C 0.95643 0.25287 0.51699 0.0
C2434 C 0.94841 0.22858 0.51488 0.0
C2435 C 0.96515 0.20944 0.5174 0.0
loop_
_geom_bond_atom_site_label_1
_geom_bond_atom_site_label_2
_geom_bond_distance
_geom_bond_site_symmetry_2
_ccdc_geom_bond_type
Co0 O3 1.950 1_655 S
Co0 N17 1.995 . S
Co0 O25 1.961 1_655 S
Co0 O32 1.939 . S
Co1 O4 1.966 . S
Co1 N10 2.022 . S
Co1 N18 1.993 . S
Co1 O26 1.941 . S
C2 O3 1.258 . S
C2 O4 1.263 . S
O3 Co0 1.950 1_455 S
O3 C2 1.258 . S
O4 Co1 1.966 . S
O4 C2 1.263 . S
C5 O6 1.235 . S
C5 O32 1.289 . S
O6 C5 1.235 . S
C7 C9 1.400 . S
C7 N10 1.351 . S
C7 C12 1.501 . S
C8 C9 1.387 . S
C8 N11 1.341 . S
C9 C7 1.400 . S
C9 C8 1.387 . S
N10 Co1 2.022 . S
N10 C7 1.351 . S
N10 N11 1.365 . S
N11 C8 1.341 . S
N11 N10 1.365 . S
N11 H31 0.862 . S
C12 C7 1.501 . S
C12 H13 0.961 . S
C12 H14 0.961 . S
C12 H15 0.960 . S
H13 C12 0.961 . S
H14 C12 0.961 . S
H15 C12 0.960 . S
C16 N17 1.342 . S
C16 C20 1.401 . S
C16 C21 1.499 . S
N17 Co0 1.995 . S
N17 C16 1.342 . S
N17 N18 1.388 1_655 S
N18 Co1 1.993 . S
N18 N17 1.388 1_455 S
N18 C19 1.363 . S
C19 N18 1.363 . S
C19 C20 1.353 1_455 S
C19 C29 1.536 . S
C20 C16 1.401 . S
C20 C19 1.353 1_655 S
C21 C16 1.499 . S
C21 H22 0.959 . S
C21 H23 0.960 . S
C21 H24 0.961 . S
H22 C21 0.959 . S
H23 C21 0.960 . S
H24 C21 0.961 . S
O25 Co0 1.961 1_455 S
O25 C33 1.258 . S
O26 Co1 1.941 . S
O26 C33 1.266 . S
H27 C29 0.959 . S
H28 C29 0.961 . S
C29 C19 1.536 . S
C29 H27 0.959 . S
C29 H28 0.961 . S
C29 H30 0.960 . S
H30 C29 0.960 . S
H31 N11 0.862 . S
O32 Co0 1.939 . S
O32 C5 1.289 . S
C33 O25 1.258 . S
C33 O26 1.266 . S
Co34 O37 1.970 1_455 S
Co34 N51 1.989 . S
Co34 O59 1.967 . S
Co34 O66 1.920 . S
Co35 O38 1.966 . S
Co35 N44 2.022 . S
Co35 N52 1.993 1_655 S
Co35 O60 1.941 . S
C36 O37 1.258 . S
C36 O38 1.263 . S
O37 Co34 1.970 1_655 S
O37 C36 1.258 . S
O38 Co35 1.966 . S
O38 C36 1.263 . S
C39 O40 1.235 . S
C39 O66 1.289 . S
O40 C39 1.235 . S
C41 C43 1.400 . S
C41 N44 1.351 . S
C41 C46 1.501 . S
C42 C43 1.387 . S
C42 N45 1.341 . S
C43 C41 1.400 . S
C43 C42 1.387 . S
N44 Co35 2.022 . S
N44 C41 1.351 . S
N44 N45 1.365 . S
N45 C42 1.341 . S
N45 N44 1.365 . S
N45 H65 0.862 . S
C46 C41 1.501 . S
C46 H47 0.961 . S
C46 H48 0.961 . S
C46 H49 0.960 . S
H47 C46 0.961 . S
H48 C46 0.961 . S
H49 C46 0.960 . S
C50 N51 1.342 . S
C50 C54 1.401 . S
C50 C55 1.499 . S
N51 Co34 1.989 . S
N51 C50 1.342 . S
N51 N52 1.388 . S
N52 Co35 1.993 1_455 S
N52 N51 1.388 . S
N52 C53 1.346 . S
C53 N52 1.346 . S
C53 C54 1.396 . S
C53 C63 1.510 . S
C54 C50 1.401 . S
C54 C53 1.396 . S
C55 C50 1.499 . S
C55 H56 0.959 . S
C55 H57 0.960 . S
C55 H58 0.961 . S
H56 C55 0.959 . S
H57 C55 0.960 . S
H58 C55 0.961 . S
O59 Co34 1.967 . S
O59 C67 1.254 1_455 S
O60 Co35 1.941 . S
O60 C67 1.271 . S
H61 C63 0.959 . S
H62 C63 0.961 . S
C63 C53 1.510 . S
C63 H61 0.959 . S
C63 H62 0.961 . S
C63 H64 0.960 1_455 S
H64 C63 0.960 1_655 S
H65 N45 0.862 . S
O66 Co34 1.920 . S
O66 C39 1.289 . S
C67 O59 1.254 1_655 S
C67 O60 1.271 . S
Co68 O71 1.950 1_655 S
Co68 N85 1.995 . S
Co68 O93 1.961 1_655 S
Co68 O100 1.939 . S
Co69 O72 1.966 . S
Co69 N78 2.022 . S
Co69 N86 1.993 . S
Co69 O94 1.941 . S
C70 O71 1.258 . S
C70 O72 1.263 . S
O71 Co68 1.950 1_455 S
O71 C70 1.258 . S
O72 Co69 1.966 . S
O72 C70 1.263 . S
C73 O74 1.235 . S
C73 O100 1.289 . S
O74 C73 1.235 . S
C75 C77 1.400 . S
C75 N78 1.351 . S
C75 C80 1.501 . S
C76 C77 1.387 . S
C76 N79 1.341 . S
C77 C75 1.400 . S
C77 C76 1.387 . S
N78 Co69 2.022 . S
N78 C75 1.351 . S
N78 N79 1.365 . S
N79 C76 1.341 . S
N79 N78 1.365 . S
N79 H99 0.862 . S
C80 C75 1.501 . S
C80 H81 0.961 . S
C80 H82 0.961 . S
C80 H83 0.960 . S
H81 C80 0.961 . S
H82 C80 0.961 . S
H83 C80 0.960 . S
C84 N85 1.342 . S
C84 C88 1.401 . S
C84 C89 1.499 . S
N85 Co68 1.995 . S
N85 C84 1.342 . S
N85 N86 1.388 1_655 S
N86 Co69 1.993 . S
N86 N85 1.388 1_455 S
N86 C87 1.363 . S
C87 N86 1.363 . S
C87 C88 1.352 1_455 S
C87 C97 1.536 . S
C88 C84 1.401 . S
C88 C87 1.352 1_655 S
C89 C84 1.499 . S
C89 H90 0.959 . S
C89 H91 0.960 . S
C89 H92 0.961 . S
H90 C89 0.959 . S
H91 C89 0.960 . S
H92 C89 0.961 . S
O93 Co68 1.961 1_455 S
O93 C101 1.258 . S
O94 Co69 1.941 . S
O94 C101 1.266 . S
H95 C97 0.959 . S
H96 C97 0.961 . S
C97 C87 1.536 . S
C97 H95 0.959 . S
C97 H96 0.961 . S
C97 H98 0.960 . S
H98 C97 0.960 . S
H99 N79 0.862 . S
O100 Co68 1.939 . S
O100 C73 1.289 . S
C101 O93 1.258 . S
C101 O94 1.266 . S
Co102 O105 1.970 1_455 S
Co102 N119 1.989 . S
Co102 O127 1.967 . S
Co102 O134 1.920 . S
Co103 O106 1.966 . S
Co103 N112 2.022 . S
Co103 N120 1.993 1_655 S
Co103 O128 1.941 . S
C104 O105 1.258 . S
C104 O106 1.263 . S
O105 Co102 1.970 1_655 S
O105 C104 1.258 . S
O106 Co103 1.966 . S
O106 C104 1.263 . S
C107 O108 1.235 . S
C107 O134 1.289 . S
O108 C107 1.235 . S
C109 C111 1.400 . S
C109 N112 1.351 . S
C109 C114 1.501 . S
C110 C111 1.387 . S
C110 N113 1.341 . S
C111 C109 1.400 . S
C111 C110 1.387 . S
N112 Co103 2.022 . S
N112 C109 1.351 . S
N112 N113 1.365 . S
N113 C110 1.341 . S
N113 N112 1.365 . S
N113 H133 0.862 . S
C114 C109 1.501 . S
C114 H115 0.961 . S
C114 H116 0.961 . S
C114 H117 0.960 . S
H115 C114 0.961 . S
H116 C114 0.961 . S
H117 C114 0.960 . S
C118 N119 1.342 . S
C118 C122 1.401 . S
C118 C123 1.499 . S
N119 Co102 1.989 . S
N119 C118 1.342 . S
N119 N120 1.388 . S
N120 Co103 1.993 1_455 S
N120 N119 1.388 . S
N120 C121 1.346 . S
C121 N120 1.346 . S
C121 C122 1.396 . S
C121 C131 1.510 . S
C122 C118 1.401 . S
C122 C121 1.396 . S
C123 C118 1.499 . S
C123 H124 0.959 . S
C123 H125 0.960 . S
C123 H126 0.961 . S
H124 C123 0.959 . S
H125 C123 0.960 . S
H126 C123 0.961 . S
O127 Co102 1.967 . S
O127 C135 1.254 1_455 S
O128 Co103 1.941 . S
O128 C135 1.271 . S
H129 C131 0.959 . S
H130 C131 0.961 . S
C131 C121 1.510 . S
C131 H129 0.959 . S
C131 H130 0.961 . S
C131 H132 0.960 1_455 S
H132 C131 0.960 1_655 S
H133 N113 0.862 . S
O134 Co102 1.920 . S
O134 C107 1.289 . S
C135 O127 1.254 1_655 S
C135 O128 1.271 . S
Co136 O139 1.950 1_565 S
Co136 N153 1.995 . S
Co136 O161 1.961 1_565 S
Co136 O168 1.939 . S
Co137 O140 1.966 . S
Co137 N146 2.022 . S
Co137 N154 1.993 . S
Co137 O162 1.941 . S
C138 O139 1.258 . S
C138 O140 1.263 . S
O139 Co136 1.950 1_545 S
O139 C138 1.258 . S
O140 Co137 1.966 . S
O140 C138 1.263 . S
C141 O142 1.235 . S
C141 O168 1.289 . S
O142 C141 1.235 . S
C143 C145 1.400 . S
C143 N146 1.351 . S
C143 C148 1.501 . S
C144 C145 1.387 . S
C144 N147 1.341 . S
C145 C143 1.400 . S
C145 C144 1.387 . S
N146 Co137 2.022 . S
N146 C143 1.351 . S
N146 N147 1.365 . S
N147 C144 1.341 . S
N147 N146 1.365 . S
N147 H167 0.862 . S
C148 C143 1.501 . S
C148 H149 0.961 . S
C148 H150 0.961 . S
C148 H151 0.960 . S
H149 C148 0.961 . S
H150 C148 0.961 . S
H151 C148 0.960 . S
C152 N153 1.342 . S
C152 C156 1.401 . S
C152 C157 1.499 . S
N153 Co136 1.995 . S
N153 C152 1.342 . S
N153 N154 1.388 1_565 S
N154 Co137 1.993 . S
N154 N153 1.388 1_545 S
N154 C155 1.363 . S
C155 N154 1.363 . S
C155 C156 1.353 1_545 S
C155 C165 1.536 . S
C156 C152 1.401 . S
C156 C155 1.353 1_565 S
C157 C152 1.499 . S
C157 H158 0.959 . S
C157 H159 0.960 . S
C157 H160 0.961 . S
H158 C157 0.959 . S
H159 C157 0.960 . S
H160 C157 0.961 . S
O161 Co136 1.961 1_545 S
O161 C169 1.258 . S
O162 Co137 1.941 . S
O162 C169 1.266 . S
H163 C165 0.959 . S
H164 C165 0.961 . S
C165 C155 1.536 . S
C165 H163 0.959 . S
C165 H164 0.961 . S
C165 H166 0.960 . S
H166 C165 0.960 . S
H167 N147 0.862 . S
O168 Co136 1.939 . S
O168 C141 1.289 . S
C169 O161 1.258 . S
C169 O162 1.266 . S
Co170 O173 1.970 1_545 S
Co170 N187 1.989 . S
Co170 O195 1.967 . S
Co170 O202 1.920 . S
Co171 O174 1.966 . S
Co171 N180 2.022 . S
Co171 N188 1.993 1_565 S
Co171 O196 1.941 . S
C172 O173 1.258 . S
C172 O174 1.263 . S
O173 Co170 1.970 1_565 S
O173 C172 1.258 . S
O174 Co171 1.966 . S
O174 C172 1.263 . S
C175 O176 1.235 . S
C175 O202 1.289 . S
O176 C175 1.235 . S
C177 C179 1.400 . S
C177 N180 1.351 . S
C177 C182 1.501 . S
C178 C179 1.387 . S
C178 N181 1.341 . S
C179 C177 1.400 . S
C179 C178 1.387 . S
N180 Co171 2.022 . S
N180 C177 1.351 . S
N180 N181 1.365 . S
N181 C178 1.341 . S
N181 N180 1.365 . S
N181 H201 0.862 . S
C182 C177 1.501 . S
C182 H183 0.961 . S
C182 H184 0.961 . S
C182 H185 0.960 . S
H183 C182 0.961 . S
H184 C182 0.961 . S
H185 C182 0.960 . S
C186 N187 1.342 . S
C186 C190 1.401 . S
C186 C191 1.499 . S
N187 Co170 1.989 . S
N187 C186 1.342 . S
N187 N188 1.388 . S
N188 Co171 1.993 1_545 S
N188 N187 1.388 . S
N188 C189 1.346 . S
C189 N188 1.346 . S
C189 C190 1.396 . S
C189 C199 1.510 . S
C190 C186 1.401 . S
C190 C189 1.396 . S
C191 C186 1.499 . S
C191 H192 0.959 . S
C191 H193 0.960 . S
C191 H194 0.961 . S
H192 C191 0.959 . S
H193 C191 0.960 . S
H194 C191 0.961 . S
O195 Co170 1.967 . S
O195 C203 1.254 1_545 S
O196 Co171 1.941 . S
O196 C203 1.271 . S
H197 C199 0.959 . S
H198 C199 0.961 . S
C199 C189 1.510 . S
C199 H197 0.959 . S
C199 H198 0.961 . S
C199 H200 0.960 1_545 S
H200 C199 0.960 1_565 S
H201 N181 0.862 . S
O202 Co170 1.920 . S
O202 C175 1.289 . S
C203 O195 1.254 1_565 S
C203 O196 1.271 . S
Co204 O207 1.970 1_545 S
Co204 N221 1.989 . S
Co204 O229 1.967 . S
Co204 O236 1.920 . S
Co205 O208 1.966 . S
Co205 N214 2.022 . S
Co205 N222 1.993 1_565 S
Co205 O230 1.941 . S
C206 O207 1.258 . S
C206 O208 1.263 . S
O207 Co204 1.970 1_565 S
O207 C206 1.258 . S
O208 Co205 1.966 . S
O208 C206 1.263 . S
C209 O210 1.235 . S
C209 O236 1.289 . S
O210 C209 1.235 . S
C211 C213 1.400 . S
C211 N214 1.351 . S
C211 C216 1.501 . S
C212 C213 1.387 . S
C212 N215 1.341 . S
C213 C211 1.400 . S
C213 C212 1.387 . S
N214 Co205 2.022 . S
N214 C211 1.351 . S
N214 N215 1.365 . S
N215 C212 1.341 . S
N215 N214 1.365 . S
N215 H235 0.862 . S
C216 C211 1.501 . S
C216 H217 0.961 . S
C216 H218 0.961 . S
C216 H219 0.960 . S
H217 C216 0.961 . S
H218 C216 0.961 . S
H219 C216 0.960 . S
C220 N221 1.342 . S
C220 C224 1.401 . S
C220 C225 1.499 . S
N221 Co204 1.989 . S
N221 C220 1.342 . S
N221 N222 1.388 . S
N222 Co205 1.993 1_545 S
N222 N221 1.388 . S
N222 C223 1.346 . S
C223 N222 1.346 . S
C223 C224 1.396 . S
C223 C233 1.510 . S
C224 C220 1.401 . S
C224 C223 1.396 . S
C225 C220 1.499 . S
C225 H226 0.959 . S
C225 H227 0.960 . S
C225 H228 0.961 . S
H226 C225 0.959 . S
H227 C225 0.960 . S
H228 C225 0.961 . S
O229 Co204 1.967 . S
O229 C237 1.254 1_545 S
O230 Co205 1.941 . S
O230 C237 1.271 . S
H231 C233 0.959 . S
H232 C233 0.961 . S
C233 C223 1.510 . S
C233 H231 0.959 . S
C233 H232 0.961 . S
C233 H234 0.960 1_545 S
H234 C233 0.960 1_565 S
H235 N215 0.862 . S
O236 Co204 1.920 . S
O236 C209 1.289 . S
C237 O229 1.254 1_565 S
C237 O230 1.271 . S
Co238 O241 1.950 1_565 S
Co238 N255 1.995 . S
Co238 O263 1.961 1_565 S
Co238 O270 1.939 . S
Co239 O242 1.966 . S
Co239 N248 2.022 . S
Co239 N256 1.993 . S
Co239 O264 1.941 . S
C240 O241 1.258 . S
C240 O242 1.263 . S
O241 Co238 1.950 1_545 S
O241 C240 1.258 . S
O242 Co239 1.966 . S
O242 C240 1.263 . S
C243 O244 1.235 . S
C243 O270 1.289 . S
O244 C243 1.235 . S
C245 C247 1.400 . S
C245 N248 1.351 . S
C245 C250 1.501 . S
C246 C247 1.387 . S
C246 N249 1.341 . S
C247 C245 1.400 . S
C247 C246 1.387 . S
N248 Co239 2.022 . S
N248 C245 1.351 . S
N248 N249 1.365 . S
N249 C246 1.341 . S
N249 N248 1.365 . S
N249 H269 0.862 . S
C250 C245 1.501 . S
C250 H251 0.961 . S
C250 H252 0.961 . S
C250 H253 0.960 . S
H251 C250 0.961 . S
H252 C250 0.961 . S
H253 C250 0.960 . S
C254 N255 1.342 . S
C254 C258 1.401 . S
C254 C259 1.499 . S
N255 Co238 1.995 . S
N255 C254 1.342 . S
N255 N256 1.388 1_565 S
N256 Co239 1.993 . S
N256 N255 1.388 1_545 S
N256 C257 1.363 . S
C257 N256 1.363 . S
C257 C258 1.352 1_545 S
C257 C267 1.536 . S
C258 C254 1.401 . S
C258 C257 1.352 1_565 S
C259 C254 1.499 . S
C259 H260 0.959 . S
C259 H261 0.960 . S
C259 H262 0.961 . S
H260 C259 0.959 . S
H261 C259 0.960 . S
H262 C259 0.961 . S
O263 Co238 1.961 1_545 S
O263 C271 1.258 . S
O264 Co239 1.941 . S
O264 C271 1.266 . S
H265 C267 0.959 . S
H266 C267 0.961 . S
C267 C257 1.536 . S
C267 H265 0.959 . S
C267 H266 0.961 . S
C267 H268 0.960 . S
H268 C267 0.960 . S
H269 N249 0.862 . S
O270 Co238 1.939 . S
O270 C243 1.289 . S
C271 O263 1.258 . S
C271 O264 1.266 . S
Co272 O275 1.950 1_556 S
Co272 N289 1.995 . S
Co272 O297 1.961 1_556 S
Co272 O304 1.939 . S
Co273 O276 1.966 . S
Co273 N282 2.022 . S
Co273 N290 1.993 . S
Co273 O298 1.941 . S
C274 O275 1.258 . S
C274 O276 1.263 . S
O275 Co272 1.950 1_554 S
O275 C274 1.258 . S
O276 Co273 1.966 . S
O276 C274 1.263 . S
C277 O278 1.235 . S
C277 O304 1.289 . S
O278 C277 1.235 . S
C279 C281 1.400 . S
C279 N282 1.351 . S
C279 C284 1.501 . S
C280 C281 1.387 . S
C280 N283 1.341 . S
C281 C279 1.400 . S
C281 C280 1.387 . S
N282 Co273 2.022 . S
N282 C279 1.351 . S
N282 N283 1.365 . S
N283 C280 1.341 . S
N283 N282 1.365 . S
N283 H303 0.862 . S
C284 C279 1.501 . S
C284 H285 0.961 . S
C284 H286 0.961 . S
C284 H287 0.960 . S
H285 C284 0.961 . S
H286 C284 0.961 . S
H287 C284 0.960 . S
C288 N289 1.342 . S
C288 C292 1.401 . S
C288 C293 1.499 . S
N289 Co272 1.995 . S
N289 C288 1.342 . S
N289 N290 1.388 1_556 S
N290 Co273 1.993 . S
N290 N289 1.388 1_554 S
N290 C291 1.363 . S
C291 N290 1.363 . S
C291 C292 1.353 1_554 S
C291 C301 1.536 . S
C292 C288 1.401 . S
C292 C291 1.353 1_556 S
C293 C288 1.499 . S
C293 H294 0.959 . S
C293 H295 0.960 . S
C293 H296 0.961 . S
H294 C293 0.959 . S
H295 C293 0.960 . S
H296 C293 0.961 . S
O297 Co272 1.961 1_554 S
O297 C305 1.258 . S
O298 Co273 1.941 . S
O298 C305 1.266 . S
H299 C301 0.959 . S
H300 C301 0.961 . S
C301 C291 1.536 . S
C301 H299 0.959 . S
C301 H300 0.961 . S
C301 H302 0.960 . S
H302 C301 0.960 . S
H303 N283 0.862 . S
O304 Co272 1.939 . S
O304 C277 1.289 . S
C305 O297 1.258 . S
C305 O298 1.266 . S
Co306 O309 1.970 1_554 S
Co306 N323 1.989 . S
Co306 O331 1.967 . S
Co306 O338 1.920 . S
Co307 O310 1.966 . S
Co307 N316 2.022 . S
Co307 N324 1.993 1_556 S
Co307 O332 1.941 . S
C308 O309 1.258 . S
C308 O310 1.263 . S
O309 Co306 1.970 1_556 S
O309 C308 1.258 . S
O310 Co307 1.966 . S
O310 C308 1.263 . S
C311 O312 1.235 . S
C311 O338 1.289 . S
O312 C311 1.235 . S
C313 C315 1.400 . S
C313 N316 1.351 . S
C313 C318 1.501 . S
C314 C315 1.387 . S
C314 N317 1.341 . S
C315 C313 1.400 . S
C315 C314 1.387 . S
N316 Co307 2.022 . S
N316 C313 1.351 . S
N316 N317 1.365 . S
N317 C314 1.341 . S
N317 N316 1.365 . S
N317 H337 0.862 . S
C318 C313 1.501 . S
C318 H319 0.961 . S
C318 H320 0.961 . S
C318 H321 0.960 . S
H319 C318 0.961 . S
H320 C318 0.961 . S
H321 C318 0.960 . S
C322 N323 1.342 . S
C322 C326 1.401 . S
C322 C327 1.499 . S
N323 Co306 1.989 . S
N323 C322 1.342 . S
N323 N324 1.388 . S
N324 Co307 1.993 1_554 S
N324 N323 1.388 . S
N324 C325 1.346 . S
C325 N324 1.346 . S
C325 C326 1.396 . S
C325 C335 1.510 . S
C326 C322 1.401 . S
C326 C325 1.396 . S
C327 C322 1.499 . S
C327 H328 0.959 . S
C327 H329 0.960 . S
C327 H330 0.961 . S
H328 C327 0.959 . S
H329 C327 0.960 . S
H330 C327 0.961 . S
O331 Co306 1.967 . S
O331 C339 1.254 1_554 S
O332 Co307 1.941 . S
O332 C339 1.271 . S
H333 C335 0.959 . S
H334 C335 0.961 . S
C335 C325 1.510 . S
C335 H333 0.959 . S
C335 H334 0.961 . S
C335 H336 0.960 1_554 S
H336 C335 0.960 1_556 S
H337 N317 0.862 . S
O338 Co306 1.920 . S
O338 C311 1.289 . S
C339 O331 1.254 1_556 S
C339 O332 1.271 . S
Co340 O343 1.970 1_554 S
Co340 N357 1.989 . S
Co340 O365 1.967 . S
Co340 O372 1.920 . S
Co341 O344 1.966 . S
Co341 N350 2.022 . S
Co341 N358 1.993 1_556 S
Co341 O366 1.941 . S
C342 O343 1.258 . S
C342 O344 1.263 . S
O343 Co340 1.970 1_556 S
O343 C342 1.258 . S
O344 Co341 1.966 . S
O344 C342 1.263 . S
C345 O346 1.235 . S
C345 O372 1.289 . S
O346 C345 1.235 . S
C347 C349 1.400 . S
C347 N350 1.351 . S
C347 C352 1.501 . S
C348 C349 1.387 . S
C348 N351 1.341 . S
C349 C347 1.400 . S
C349 C348 1.387 . S
N350 Co341 2.022 . S
N350 C347 1.351 . S
N350 N351 1.365 . S
N351 C348 1.341 . S
N351 N350 1.365 . S
N351 H371 0.862 . S
C352 C347 1.501 . S
C352 H353 0.961 . S
C352 H354 0.961 . S
C352 H355 0.960 . S
H353 C352 0.961 . S
H354 C352 0.961 . S
H355 C352 0.960 . S
C356 N357 1.342 . S
C356 C360 1.401 . S
C356 C361 1.499 . S
N357 Co340 1.989 . S
N357 C356 1.342 . S
N357 N358 1.388 . S
N358 Co341 1.993 1_554 S
N358 N357 1.388 . S
N358 C359 1.346 . S
C359 N358 1.346 . S
C359 C360 1.396 . S
C359 C369 1.510 . S
C360 C356 1.401 . S
C360 C359 1.396 . S
C361 C356 1.499 . S
C361 H362 0.959 . S
C361 H363 0.960 . S
C361 H364 0.961 . S
H362 C361 0.959 . S
H363 C361 0.960 . S
H364 C361 0.961 . S
O365 Co340 1.967 . S
O365 C373 1.254 1_554 S
O366 Co341 1.941 . S
O366 C373 1.271 . S
H367 C369 0.959 . S
H368 C369 0.961 . S
C369 C359 1.510 . S
C369 H367 0.959 . S
C369 H368 0.961 . S
C369 H370 0.960 1_554 S
H370 C369 0.960 1_556 S
H371 N351 0.862 . S
O372 Co340 1.920 . S
O372 C345 1.289 . S
C373 O365 1.254 1_556 S
C373 O366 1.271 . S
Co374 O377 1.950 1_556 S
Co374 N391 1.995 . S
Co374 O399 1.961 1_556 S
Co374 O406 1.939 . S
Co375 O378 1.966 . S
Co375 N384 2.022 . S
Co375 N392 1.993 . S
Co375 O400 1.941 . S
C376 O377 1.258 . S
C376 O378 1.263 . S
O377 Co374 1.950 1_554 S
O377 C376 1.258 . S
O378 Co375 1.966 . S
O378 C376 1.263 . S
C379 O380 1.235 . S
C379 O406 1.289 . S
O380 C379 1.235 . S
C381 C383 1.400 . S
C381 N384 1.351 . S
C381 C386 1.501 . S
C382 C383 1.387 . S
C382 N385 1.341 . S
C383 C381 1.400 . S
C383 C382 1.387 . S
N384 Co375 2.022 . S
N384 C381 1.351 . S
N384 N385 1.365 . S
N385 C382 1.341 . S
N385 N384 1.365 . S
N385 H405 0.862 . S
C386 C381 1.501 . S
C386 H387 0.961 . S
C386 H388 0.961 . S
C386 H389 0.960 . S
H387 C386 0.961 . S
H388 C386 0.961 . S
H389 C386 0.960 . S
C390 N391 1.342 . S
C390 C394 1.401 . S
C390 C395 1.499 . S
N391 Co374 1.995 . S
N391 C390 1.342 . S
N391 N392 1.388 1_556 S
N392 Co375 1.993 . S
N392 N391 1.388 1_554 S
N392 C393 1.363 . S
C393 N392 1.363 . S
C393 C394 1.352 1_554 S
C393 C403 1.536 . S
C394 C390 1.401 . S
C394 C393 1.352 1_556 S
C395 C390 1.499 . S
C395 H396 0.959 . S
C395 H397 0.960 . S
C395 H398 0.961 . S
H396 C395 0.959 . S
H397 C395 0.960 . S
H398 C395 0.961 . S
O399 Co374 1.961 1_554 S
O399 C407 1.258 . S
O400 Co375 1.941 . S
O400 C407 1.266 . S
H401 C403 0.959 . S
H402 C403 0.961 . S
C403 C393 1.536 . S
C403 H401 0.959 . S
C403 H402 0.961 . S
C403 H404 0.960 . S
H404 C403 0.960 . S
H405 N385 0.862 . S
O406 Co374 1.939 . S
O406 C379 1.289 . S
C407 O399 1.258 . S
C407 O400 1.266 . S
Co408 O411 1.970 . S
Co408 N425 1.989 . S
Co408 O433 1.967 . S
Co408 O440 1.920 . S
Co409 O412 1.966 . S
Co409 N418 2.022 . S
Co409 N426 1.993 . S
Co409 O434 1.941 . S
C410 O411 1.258 . S
C410 O412 1.263 . S
O411 Co408 1.970 . S
O411 C410 1.258 . S
O412 Co409 1.966 . S
O412 C410 1.263 . S
C413 O414 1.235 . S
C413 O440 1.289 . S
O414 C413 1.235 . S
C415 C417 1.400 . S
C415 N418 1.351 . S
C415 C420 1.501 . S
C416 C417 1.387 . S
C416 N419 1.341 . S
C417 C415 1.400 . S
C417 C416 1.387 . S
N418 Co409 2.022 . S
N418 C415 1.351 . S
N418 N419 1.365 . S
N419 C416 1.341 . S
N419 N418 1.365 . S
N419 H439 0.862 . S
C420 C415 1.501 . S
C420 H421 0.961 . S
C420 H422 0.961 . S
C420 H423 0.960 . S
H421 C420 0.961 . S
H422 C420 0.961 . S
H423 C420 0.960 . S
C424 N425 1.342 . S
C424 C428 1.401 . S
C424 C429 1.499 . S
N425 Co408 1.989 . S
N425 C424 1.342 . S
N425 N426 1.388 . S
N426 Co409 1.993 . S
N426 N425 1.388 . S
N426 C427 1.346 . S
C427 N426 1.346 . S
C427 C428 1.396 . S
C427 C437 1.510 . S
C428 C424 1.401 . S
C428 C427 1.396 . S
C429 C424 1.499 . S
C429 H430 0.959 . S
C429 H431 0.960 . S
C429 H432 0.961 . S
H430 C429 0.959 . S
H431 C429 0.960 . S
H432 C429 0.961 . S
O433 Co408 1.967 . S
O433 C441 1.258 . S
O434 Co409 1.941 . S
O434 C441 1.266 . S
H435 C437 0.959 . S
H436 C437 0.961 . S
C437 C427 1.510 . S
C437 H435 0.959 . S
C437 H436 0.961 . S
C437 H438 0.960 . S
H438 C437 0.960 . S
H439 N419 0.862 . S
O440 Co408 1.920 . S
O440 C413 1.289 . S
C441 O433 1.258 . S
C441 O434 1.266 . S
Co442 O445 1.970 . S
Co442 N459 1.989 . S
Co442 O467 1.967 . S
Co442 O474 1.920 . S
Co443 O446 1.966 . S
Co443 N452 2.022 . S
Co443 N460 1.993 . S
Co443 O468 1.941 . S
C444 O445 1.258 . S
C444 O446 1.263 . S
O445 Co442 1.970 . S
O445 C444 1.258 . S
O446 Co443 1.966 . S
O446 C444 1.263 . S
C447 O448 1.235 . S
C447 O474 1.289 . S
O448 C447 1.235 . S
C449 C451 1.400 . S
C449 N452 1.351 . S
C449 C454 1.501 . S
C450 C451 1.387 . S
C450 N453 1.341 . S
C451 C449 1.400 . S
C451 C450 1.387 . S
N452 Co443 2.022 . S
N452 C449 1.351 . S
N452 N453 1.365 . S
N453 C450 1.341 . S
N453 N452 1.365 . S
N453 H473 0.862 . S
C454 C449 1.501 . S
C454 H455 0.961 . S
C454 H456 0.961 . S
C454 H457 0.960 . S
H455 C454 0.961 . S
H456 C454 0.961 . S
H457 C454 0.960 . S
C458 N459 1.342 . S
C458 C462 1.401 . S
C458 C463 1.499 . S
N459 Co442 1.989 . S
N459 C458 1.342 . S
N459 N460 1.388 . S
N460 Co443 1.993 . S
N460 N459 1.388 . S
N460 C461 1.346 . S
C461 N460 1.346 . S
C461 C462 1.396 . S
C461 C471 1.510 . S
C462 C458 1.401 . S
C462 C461 1.396 . S
C463 C458 1.499 . S
C463 H464 0.959 . S
C463 H465 0.960 . S
C463 H466 0.961 . S
H464 C463 0.959 . S
H465 C463 0.960 . S
H466 C463 0.961 . S
O467 Co442 1.967 . S
O467 C475 1.258 . S
O468 Co443 1.941 . S
O468 C475 1.266 . S
H469 C471 0.959 . S
H470 C471 0.961 . S
C471 C461 1.510 . S
C471 H469 0.959 . S
C471 H470 0.961 . S
C471 H472 0.960 . S
H472 C471 0.960 . S
H473 N453 0.862 . S
O474 Co442 1.920 . S
O474 C447 1.289 . S
C475 O467 1.258 . S
C475 O468 1.266 . S
Co476 O479 1.970 . S
Co476 N493 1.989 . S
Co476 O501 1.967 . S
Co476 O508 1.920 . S
Co477 O480 1.966 . S
Co477 N486 2.022 . S
Co477 N494 1.993 . S
Co477 O502 1.941 . S
C478 O479 1.258 . S
C478 O480 1.263 . S
O479 Co476 1.970 . S
O479 C478 1.258 . S
O480 Co477 1.966 . S
O480 C478 1.263 . S
C481 O482 1.235 . S
C481 O508 1.289 . S
O482 C481 1.235 . S
C483 C485 1.400 . S
C483 N486 1.351 . S
C483 C488 1.501 . S
C484 C485 1.387 . S
C484 N487 1.341 . S
C485 C483 1.400 . S
C485 C484 1.387 . S
N486 Co477 2.022 . S
N486 C483 1.351 . S
N486 N487 1.365 . S
N487 C484 1.341 . S
N487 N486 1.365 . S
N487 H507 0.862 . S
C488 C483 1.501 . S
C488 H489 0.961 . S
C488 H490 0.961 . S
C488 H491 0.960 . S
H489 C488 0.961 . S
H490 C488 0.961 . S
H491 C488 0.960 . S
C492 N493 1.342 . S
C492 C496 1.401 . S
C492 C497 1.499 . S
N493 Co476 1.989 . S
N493 C492 1.342 . S
N493 N494 1.388 . S
N494 Co477 1.993 . S
N494 N493 1.388 . S
N494 C495 1.346 . S
C495 N494 1.346 . S
C495 C496 1.396 . S
C495 C505 1.510 . S
C496 C492 1.401 . S
C496 C495 1.396 . S
C497 C492 1.499 . S
C497 H498 0.959 . S
C497 H499 0.960 . S
C497 H500 0.961 . S
H498 C497 0.959 . S
H499 C497 0.960 . S
H500 C497 0.961 . S
O501 Co476 1.967 . S
O501 C509 1.258 . S
O502 Co477 1.941 . S
O502 C509 1.266 . S
H503 C505 0.959 . S
H504 C505 0.961 . S
C505 C495 1.510 . S
C505 H503 0.959 . S
C505 H504 0.961 . S
C505 H506 0.960 . S
H506 C505 0.960 . S
H507 N487 0.862 . S
O508 Co476 1.920 . S
O508 C481 1.289 . S
C509 O501 1.258 . S
C509 O502 1.266 . S
Co510 O513 1.970 . S
Co510 N527 1.989 . S
Co510 O535 1.967 . S
Co510 O542 1.920 . S
Co511 O514 1.966 . S
Co511 N520 2.022 . S
Co511 N528 1.993 . S
Co511 O536 1.941 . S
C512 O513 1.258 . S
C512 O514 1.263 . S
O513 Co510 1.970 . S
O513 C512 1.258 . S
O514 Co511 1.966 . S
O514 C512 1.263 . S
C515 O516 1.235 . S
C515 O542 1.289 . S
O516 C515 1.235 . S
C517 C519 1.400 . S
C517 N520 1.351 . S
C517 C522 1.501 . S
C518 C519 1.387 . S
C518 N521 1.341 . S
C519 C517 1.400 . S
C519 C518 1.387 . S
N520 Co511 2.022 . S
N520 C517 1.351 . S
N520 N521 1.365 . S
N521 C518 1.341 . S
N521 N520 1.365 . S
N521 H541 0.862 . S
C522 C517 1.501 . S
C522 H523 0.961 . S
C522 H524 0.961 . S
C522 H525 0.960 . S
H523 C522 0.961 . S
H524 C522 0.961 . S
H525 C522 0.960 . S
C526 N527 1.342 . S
C526 C530 1.401 . S
C526 C531 1.499 . S
N527 Co510 1.989 . S
N527 C526 1.342 . S
N527 N528 1.388 . S
N528 Co511 1.993 . S
N528 N527 1.388 . S
N528 C529 1.346 . S
C529 N528 1.346 . S
C529 C530 1.396 . S
C529 C539 1.510 . S
C530 C526 1.401 . S
C530 C529 1.396 . S
C531 C526 1.499 . S
C531 H532 0.959 . S
C531 H533 0.960 . S
C531 H534 0.961 . S
H532 C531 0.959 . S
H533 C531 0.960 . S
H534 C531 0.961 . S
O535 Co510 1.967 . S
O535 C543 1.258 . S
O536 Co511 1.941 . S
O536 C543 1.266 . S
H537 C539 0.959 . S
H538 C539 0.961 . S
C539 C529 1.510 . S
C539 H537 0.959 . S
C539 H538 0.961 . S
C539 H540 0.960 . S
H540 C539 0.960 . S
H541 N521 0.862 . S
O542 Co510 1.920 . S
O542 C515 1.289 . S
C543 O535 1.258 . S
C543 O536 1.266 . S
Co544 O547 1.970 . S
Co544 N561 1.989 . S
Co544 O569 1.967 . S
Co544 O576 1.920 . S
Co545 O548 1.966 . S
Co545 N554 2.022 . S
Co545 N562 1.993 . S
Co545 O570 1.941 . S
C546 O547 1.258 . S
C546 O548 1.263 . S
O547 Co544 1.970 . S
O547 C546 1.258 . S
O548 Co545 1.966 . S
O548 C546 1.263 . S
C549 O550 1.235 . S
C549 O576 1.289 . S
O550 C549 1.235 . S
C551 C553 1.400 . S
C551 N554 1.351 . S
C551 C556 1.501 . S
C552 C553 1.387 . S
C552 N555 1.341 . S
C553 C551 1.400 . S
C553 C552 1.387 . S
N554 Co545 2.022 . S
N554 C551 1.351 . S
N554 N555 1.365 . S
N555 C552 1.341 . S
N555 N554 1.365 . S
N555 H575 0.862 . S
C556 C551 1.501 . S
C556 H557 0.961 . S
C556 H558 0.961 . S
C556 H559 0.960 . S
H557 C556 0.961 . S
H558 C556 0.961 . S
H559 C556 0.960 . S
C560 N561 1.342 . S
C560 C564 1.401 . S
C560 C565 1.499 . S
N561 Co544 1.989 . S
N561 C560 1.342 . S
N561 N562 1.388 . S
N562 Co545 1.993 . S
N562 N561 1.388 . S
N562 C563 1.346 . S
C563 N562 1.346 . S
C563 C564 1.396 . S
C563 C573 1.510 . S
C564 C560 1.401 . S
C564 C563 1.396 . S
C565 C560 1.499 . S
C565 H566 0.959 . S
C565 H567 0.960 . S
C565 H568 0.961 . S
H566 C565 0.959 . S
H567 C565 0.960 . S
H568 C565 0.961 . S
O569 Co544 1.967 . S
O569 C577 1.258 . S
O570 Co545 1.941 . S
O570 C577 1.266 . S
H571 C573 0.959 . S
H572 C573 0.961 . S
C573 C563 1.510 . S
C573 H571 0.959 . S
C573 H572 0.961 . S
C573 H574 0.960 . S
H574 C573 0.960 . S
H575 N555 0.862 . S
O576 Co544 1.920 . S
O576 C549 1.289 . S
C577 O569 1.258 . S
C577 O570 1.266 . S
Co578 O581 1.970 . S
Co578 N595 1.989 . S
Co578 O603 1.967 . S
Co578 O610 1.920 . S
Co579 O582 1.966 . S
Co579 N588 2.022 . S
Co579 N596 1.993 . S
Co579 O604 1.941 . S
C580 O581 1.258 . S
C580 O582 1.263 . S
O581 Co578 1.970 . S
O581 C580 1.258 . S
O582 Co579 1.966 . S
O582 C580 1.263 . S
C583 O584 1.235 . S
C583 O610 1.289 . S
O584 C583 1.235 . S
C585 C587 1.400 . S
C585 N588 1.351 . S
C585 C590 1.501 . S
C586 C587 1.387 . S
C586 N589 1.341 . S
C587 C585 1.400 . S
C587 C586 1.387 . S
N588 Co579 2.022 . S
N588 C585 1.351 . S
N588 N589 1.365 . S
N589 C586 1.341 . S
N589 N588 1.365 . S
N589 H609 0.862 . S
C590 C585 1.501 . S
C590 H591 0.961 . S
C590 H592 0.961 . S
C590 H593 0.960 . S
H591 C590 0.961 . S
H592 C590 0.961 . S
H593 C590 0.960 . S
C594 N595 1.342 . S
C594 C598 1.401 . S
C594 C599 1.499 . S
N595 Co578 1.989 . S
N595 C594 1.342 . S
N595 N596 1.388 . S
N596 Co579 1.993 . S
N596 N595 1.388 . S
N596 C597 1.346 . S
C597 N596 1.346 . S
C597 C598 1.396 . S
C597 C607 1.510 . S
C598 C594 1.401 . S
C598 C597 1.396 . S
C599 C594 1.499 . S
C599 H600 0.959 . S
C599 H601 0.960 . S
C599 H602 0.961 . S
H600 C599 0.959 . S
H601 C599 0.960 . S
H602 C599 0.961 . S
O603 Co578 1.967 . S
O603 C611 1.258 . S
O604 Co579 1.941 . S
O604 C611 1.266 . S
H605 C607 0.959 . S
H606 C607 0.961 . S
C607 C597 1.510 . S
C607 H605 0.959 . S
C607 H606 0.961 . S
C607 H608 0.960 . S
H608 C607 0.960 . S
H609 N589 0.862 . S
O610 Co578 1.920 . S
O610 C583 1.289 . S
C611 O603 1.258 . S
C611 O604 1.266 . S
Co612 O615 1.970 . S
Co612 N629 1.989 . S
Co612 O637 1.967 . S
Co612 O644 1.920 . S
Co613 O616 1.966 . S
Co613 N622 2.022 . S
Co613 N630 1.993 . S
Co613 O638 1.941 . S
C614 O615 1.258 . S
C614 O616 1.263 . S
O615 Co612 1.970 . S
O615 C614 1.258 . S
O616 Co613 1.966 . S
O616 C614 1.263 . S
C617 O618 1.235 . S
C617 O644 1.289 . S
O618 C617 1.235 . S
C619 C621 1.400 . S
C619 N622 1.351 . S
C619 C624 1.501 . S
C620 C621 1.387 . S
C620 N623 1.341 . S
C621 C619 1.400 . S
C621 C620 1.387 . S
N622 Co613 2.022 . S
N622 C619 1.351 . S
N622 N623 1.365 . S
N623 C620 1.341 . S
N623 N622 1.365 . S
N623 H643 0.862 . S
C624 C619 1.501 . S
C624 H625 0.961 . S
C624 H626 0.961 . S
C624 H627 0.960 . S
H625 C624 0.961 . S
H626 C624 0.961 . S
H627 C624 0.960 . S
C628 N629 1.342 . S
C628 C632 1.401 . S
C628 C633 1.499 . S
N629 Co612 1.989 . S
N629 C628 1.342 . S
N629 N630 1.388 . S
N630 Co613 1.993 . S
N630 N629 1.388 . S
N630 C631 1.346 . S
C631 N630 1.346 . S
C631 C632 1.396 . S
C631 C641 1.510 . S
C632 C628 1.401 . S
C632 C631 1.396 . S
C633 C628 1.499 . S
C633 H634 0.959 . S
C633 H635 0.960 . S
C633 H636 0.961 . S
H634 C633 0.959 . S
H635 C633 0.960 . S
H636 C633 0.961 . S
O637 Co612 1.967 . S
O637 C645 1.258 . S
O638 Co613 1.941 . S
O638 C645 1.266 . S
H639 C641 0.959 . S
H640 C641 0.961 . S
C641 C631 1.510 . S
C641 H639 0.959 . S
C641 H640 0.961 . S
C641 H642 0.960 . S
H642 C641 0.960 . S
H643 N623 0.862 . S
O644 Co612 1.920 . S
O644 C617 1.289 . S
C645 O637 1.258 . S
C645 O638 1.266 . S
Co646 O649 1.970 . S
Co646 N663 1.989 . S
Co646 O671 1.967 . S
Co646 O678 1.920 . S
Co647 O650 1.966 . S
Co647 N656 2.022 . S
Co647 N664 1.993 . S
Co647 O672 1.941 . S
C648 O649 1.258 . S
C648 O650 1.263 . S
O649 Co646 1.970 . S
O649 C648 1.258 . S
O650 Co647 1.966 . S
O650 C648 1.263 . S
C651 O652 1.235 . S
C651 O678 1.289 . S
O652 C651 1.235 . S
C653 C655 1.400 . S
C653 N656 1.351 . S
C653 C658 1.501 . S
C654 C655 1.387 . S
C654 N657 1.341 . S
C655 C653 1.400 . S
C655 C654 1.387 . S
N656 Co647 2.022 . S
N656 C653 1.351 . S
N656 N657 1.365 . S
N657 C654 1.341 . S
N657 N656 1.365 . S
N657 H677 0.862 . S
C658 C653 1.501 . S
C658 H659 0.961 . S
C658 H660 0.961 . S
C658 H661 0.960 . S
H659 C658 0.961 . S
H660 C658 0.961 . S
H661 C658 0.960 . S
C662 N663 1.342 . S
C662 C666 1.401 . S
C662 C667 1.499 . S
N663 Co646 1.989 . S
N663 C662 1.342 . S
N663 N664 1.388 . S
N664 Co647 1.993 . S
N664 N663 1.388 . S
N664 C665 1.346 . S
C665 N664 1.346 . S
C665 C666 1.396 . S
C665 C675 1.510 . S
C666 C662 1.401 . S
C666 C665 1.396 . S
C667 C662 1.499 . S
C667 H668 0.959 . S
C667 H669 0.960 . S
C667 H670 0.961 . S
H668 C667 0.959 . S
H669 C667 0.960 . S
H670 C667 0.961 . S
O671 Co646 1.967 . S
O671 C679 1.258 . S
O672 Co647 1.941 . S
O672 C679 1.266 . S
H673 C675 0.959 . S
H674 C675 0.961 . S
C675 C665 1.510 . S
C675 H673 0.959 . S
C675 H674 0.961 . S
C675 H676 0.960 . S
H676 C675 0.960 . S
H677 N657 0.862 . S
O678 Co646 1.920 . S
O678 C651 1.289 . S
C679 O671 1.258 . S
C679 O672 1.266 . S
Co680 O683 1.970 . S
Co680 N697 1.989 . S
Co680 O705 1.967 . S
Co680 O712 1.920 . S
Co681 O684 1.966 . S
Co681 N690 2.022 . S
Co681 N698 1.993 . S
Co681 O706 1.941 . S
C682 O683 1.258 . S
C682 O684 1.263 . S
O683 Co680 1.970 . S
O683 C682 1.258 . S
O684 Co681 1.966 . S
O684 C682 1.263 . S
C685 O686 1.235 . S
C685 O712 1.289 . S
O686 C685 1.235 . S
C687 C689 1.400 . S
C687 N690 1.351 . S
C687 C692 1.501 . S
C688 C689 1.387 . S
C688 N691 1.341 . S
C689 C687 1.400 . S
C689 C688 1.387 . S
N690 Co681 2.022 . S
N690 C687 1.351 . S
N690 N691 1.365 . S
N691 C688 1.341 . S
N691 N690 1.365 . S
N691 H711 0.862 . S
C692 C687 1.501 . S
C692 H693 0.961 . S
C692 H694 0.961 . S
C692 H695 0.960 . S
H693 C692 0.961 . S
H694 C692 0.961 . S
H695 C692 0.960 . S
C696 N697 1.342 . S
C696 C700 1.401 . S
C696 C701 1.499 . S
N697 Co680 1.989 . S
N697 C696 1.342 . S
N697 N698 1.388 . S
N698 Co681 1.993 . S
N698 N697 1.388 . S
N698 C699 1.346 . S
C699 N698 1.346 . S
C699 C700 1.396 . S
C699 C709 1.510 . S
C700 C696 1.401 . S
C700 C699 1.396 . S
C701 C696 1.499 . S
C701 H702 0.959 . S
C701 H703 0.960 . S
C701 H704 0.961 . S
H702 C701 0.959 . S
H703 C701 0.960 . S
H704 C701 0.961 . S
O705 Co680 1.967 . S
O705 C713 1.258 . S
O706 Co681 1.941 . S
O706 C713 1.266 . S
H707 C709 0.959 . S
H708 C709 0.961 . S
C709 C699 1.510 . S
C709 H707 0.959 . S
C709 H708 0.961 . S
C709 H710 0.960 . S
H710 C709 0.960 . S
H711 N691 0.862 . S
O712 Co680 1.920 . S
O712 C685 1.289 . S
C713 O705 1.258 . S
C713 O706 1.266 . S
Co714 O717 1.970 . S
Co714 N731 1.989 . S
Co714 O739 1.967 . S
Co714 O746 1.920 . S
Co715 O718 1.966 . S
Co715 N724 2.022 . S
Co715 N732 1.993 . S
Co715 O740 1.941 . S
C716 O717 1.258 . S
C716 O718 1.263 . S
O717 Co714 1.970 . S
O717 C716 1.258 . S
O718 Co715 1.966 . S
O718 C716 1.263 . S
C719 O720 1.235 . S
C719 O746 1.289 . S
O720 C719 1.235 . S
C721 C723 1.400 . S
C721 N724 1.351 . S
C721 C726 1.501 . S
C722 C723 1.387 . S
C722 N725 1.341 . S
C723 C721 1.400 . S
C723 C722 1.387 . S
N724 Co715 2.022 . S
N724 C721 1.351 . S
N724 N725 1.365 . S
N725 C722 1.341 . S
N725 N724 1.365 . S
N725 H745 0.862 . S
C726 C721 1.501 . S
C726 H727 0.961 . S
C726 H728 0.961 . S
C726 H729 0.960 . S
H727 C726 0.961 . S
H728 C726 0.961 . S
H729 C726 0.960 . S
C730 N731 1.342 . S
C730 C734 1.401 . S
C730 C735 1.499 . S
N731 Co714 1.989 . S
N731 C730 1.342 . S
N731 N732 1.388 . S
N732 Co715 1.993 . S
N732 N731 1.388 . S
N732 C733 1.346 . S
C733 N732 1.346 . S
C733 C734 1.396 . S
C733 C743 1.510 . S
C734 C730 1.401 . S
C734 C733 1.396 . S
C735 C730 1.499 . S
C735 H736 0.959 . S
C735 H737 0.960 . S
C735 H738 0.961 . S
H736 C735 0.959 . S
H737 C735 0.960 . S
H738 C735 0.961 . S
O739 Co714 1.967 . S
O739 C747 1.258 . S
O740 Co715 1.941 . S
O740 C747 1.266 . S
H741 C743 0.959 . S
H742 C743 0.961 . S
C743 C733 1.510 . S
C743 H741 0.959 . S
C743 H742 0.961 . S
C743 H744 0.960 . S
H744 C743 0.960 . S
H745 N725 0.862 . S
O746 Co714 1.920 . S
O746 C719 1.289 . S
C747 O739 1.258 . S
C747 O740 1.266 . S
Co748 O751 1.970 . S
Co748 N765 1.989 . S
Co748 O773 1.967 . S
Co748 O780 1.920 . S
Co749 O752 1.966 . S
Co749 N758 2.022 . S
Co749 N766 1.993 . S
Co749 O774 1.941 . S
C750 O751 1.258 . S
C750 O752 1.263 . S
O751 Co748 1.970 . S
O751 C750 1.258 . S
O752 Co749 1.966 . S
O752 C750 1.263 . S
C753 O754 1.235 . S
C753 O780 1.289 . S
O754 C753 1.235 . S
C755 C757 1.400 . S
C755 N758 1.351 . S
C755 C760 1.501 . S
C756 C757 1.387 . S
C756 N759 1.341 . S
C757 C755 1.400 . S
C757 C756 1.387 . S
N758 Co749 2.022 . S
N758 C755 1.351 . S
N758 N759 1.365 . S
N759 C756 1.341 . S
N759 N758 1.365 . S
N759 H779 0.862 . S
C760 C755 1.501 . S
C760 H761 0.961 . S
C760 H762 0.961 . S
C760 H763 0.960 . S
H761 C760 0.961 . S
H762 C760 0.961 . S
H763 C760 0.960 . S
C764 N765 1.342 . S
C764 C768 1.401 . S
C764 C769 1.499 . S
N765 Co748 1.989 . S
N765 C764 1.342 . S
N765 N766 1.388 . S
N766 Co749 1.993 . S
N766 N765 1.388 . S
N766 C767 1.346 . S
C767 N766 1.346 . S
C767 C768 1.396 . S
C767 C777 1.510 . S
C768 C764 1.401 . S
C768 C767 1.396 . S
C769 C764 1.499 . S
C769 H770 0.959 . S
C769 H771 0.960 . S
C769 H772 0.961 . S
H770 C769 0.959 . S
H771 C769 0.960 . S
H772 C769 0.961 . S
O773 Co748 1.967 . S
O773 C781 1.258 . S
O774 Co749 1.941 . S
O774 C781 1.266 . S
H775 C777 0.959 . S
H776 C777 0.961 . S
C777 C767 1.510 . S
C777 H775 0.959 . S
C777 H776 0.961 . S
C777 H778 0.960 . S
H778 C777 0.960 . S
H779 N759 0.862 . S
O780 Co748 1.920 . S
O780 C753 1.289 . S
C781 O773 1.258 . S
C781 O774 1.266 . S
Co782 O785 1.970 . S
Co782 N799 1.989 . S
Co782 O807 1.967 . S
Co782 O814 1.920 . S
Co783 O786 1.966 . S
Co783 N792 2.022 . S
Co783 N800 1.993 . S
Co783 O808 1.941 . S
C784 O785 1.258 . S
C784 O786 1.263 . S
O785 Co782 1.970 . S
O785 C784 1.258 . S
O786 Co783 1.966 . S
O786 C784 1.263 . S
C787 O788 1.235 . S
C787 O814 1.289 . S
O788 C787 1.235 . S
C789 C791 1.400 . S
C789 N792 1.351 . S
C789 C794 1.501 . S
C790 C791 1.387 . S
C790 N793 1.341 . S
C791 C789 1.400 . S
C791 C790 1.387 . S
N792 Co783 2.022 . S
N792 C789 1.351 . S
N792 N793 1.365 . S
N793 C790 1.341 . S
N793 N792 1.365 . S
N793 H813 0.862 . S
C794 C789 1.501 . S
C794 H795 0.961 . S
C794 H796 0.961 . S
C794 H797 0.960 . S
H795 C794 0.961 . S
H796 C794 0.961 . S
H797 C794 0.960 . S
C798 N799 1.342 . S
C798 C802 1.401 . S
C798 C803 1.499 . S
N799 Co782 1.989 . S
N799 C798 1.342 . S
N799 N800 1.388 . S
N800 Co783 1.993 . S
N800 N799 1.388 . S
N800 C801 1.346 . S
C801 N800 1.346 . S
C801 C802 1.396 . S
C801 C811 1.510 . S
C802 C798 1.401 . S
C802 C801 1.396 . S
C803 C798 1.499 . S
C803 H804 0.959 . S
C803 H805 0.960 . S
C803 H806 0.961 . S
H804 C803 0.959 . S
H805 C803 0.960 . S
H806 C803 0.961 . S
O807 Co782 1.967 . S
O807 C815 1.258 . S
O808 Co783 1.941 . S
O808 C815 1.266 . S
H809 C811 0.959 . S
H810 C811 0.961 . S
C811 C801 1.510 . S
C811 H809 0.959 . S
C811 H810 0.961 . S
C811 H812 0.960 . S
H812 C811 0.960 . S
H813 N793 0.862 . S
O814 Co782 1.920 . S
O814 C787 1.289 . S
C815 O807 1.258 . S
C815 O808 1.266 . S
H816 C828 0.930 . S
H817 C830 0.930 . S
H818 C831 0.930 . S
H819 C835 0.959 . S
H820 C835 0.959 . S
H821 C835 0.961 . S
H822 C836 0.960 . S
H823 C836 0.961 . S
H824 C836 0.959 . S
H825 C839 0.929 . S
H826 C840 0.931 . S
H827 C842 0.930 . S
C828 H816 0.930 . S
C828 C829 1.399 . S
C828 C833 1.399 . S
C829 C828 1.399 . S
C829 C830 1.376 . S
C830 H817 0.930 . S
C830 C829 1.376 . S
C830 C831 1.388 . S
C831 H818 0.930 . S
C831 C830 1.388 . S
C831 C832 1.390 . S
C832 C831 1.390 . S
C832 C833 1.394 . S
C832 C838 1.465 . S
C833 C828 1.399 . S
C833 C832 1.394 . S
C833 C834 1.516 . S
C834 C833 1.516 . S
C834 C835 1.502 . S
C834 C836 1.561 . S
C834 C837 1.526 . S
C835 H819 0.959 . S
C835 H820 0.959 . S
C835 H821 0.961 . S
C835 C834 1.502 . S
C836 H822 0.960 . S
C836 H823 0.961 . S
C836 H824 0.959 . S
C836 C834 1.561 . S
C837 C834 1.526 . S
C837 C838 1.396 . S
C837 C842 1.390 . S
C838 C832 1.465 . S
C838 C837 1.396 . S
C838 C839 1.399 . S
C839 H825 0.929 . S
C839 C838 1.399 . S
C839 C840 1.385 . S
C840 H826 0.931 . S
C840 C839 1.385 . S
C840 C841 1.389 . S
C841 C840 1.389 . S
C841 C842 1.387 . S
C842 H827 0.930 . S
C842 C837 1.390 . S
C842 C841 1.387 . S
H843 C855 0.930 . S
H844 C857 0.930 . S
H845 C858 0.930 . S
H846 C862 0.959 . S
H847 C862 0.959 . S
H848 C862 0.961 . S
H849 C863 0.960 . S
H850 C863 0.961 . S
H851 C863 0.959 . S
H852 C866 0.929 . S
H853 C867 0.931 . S
H854 C869 0.930 . S
C855 H843 0.930 . S
C855 C856 1.399 . S
C855 C860 1.399 . S
C856 C855 1.399 . S
C856 C857 1.376 . S
C857 H844 0.930 . S
C857 C856 1.376 . S
C857 C858 1.388 . S
C858 H845 0.930 . S
C858 C857 1.388 . S
C858 C859 1.390 . S
C859 C858 1.390 . S
C859 C860 1.394 . S
C859 C865 1.465 . S
C860 C855 1.399 . S
C860 C859 1.394 . S
C860 C861 1.516 . S
C861 C860 1.516 . S
C861 C862 1.502 . S
C861 C863 1.561 . S
C861 C864 1.526 . S
C862 H846 0.959 . S
C862 H847 0.959 . S
C862 H848 0.961 . S
C862 C861 1.502 . S
C863 H849 0.960 . S
C863 H850 0.961 . S
C863 H851 0.959 . S
C863 C861 1.561 . S
C864 C861 1.526 . S
C864 C865 1.396 . S
C864 C869 1.390 . S
C865 C859 1.465 . S
C865 C864 1.396 . S
C865 C866 1.399 . S
C866 H852 0.929 . S
C866 C865 1.399 . S
C866 C867 1.385 . S
C867 H853 0.931 . S
C867 C866 1.385 . S
C867 C868 1.389 . S
C868 C867 1.389 . S
C868 C869 1.387 . S
C869 H854 0.930 . S
C869 C864 1.390 . S
C869 C868 1.387 . S
H870 C882 0.930 . S
H871 C884 0.930 . S
H872 C885 0.930 . S
H873 C889 0.959 . S
H874 C889 0.959 . S
H875 C889 0.961 . S
H876 C890 0.960 . S
H877 C890 0.961 . S
H878 C890 0.959 . S
H879 C893 0.929 . S
H880 C894 0.931 . S
H881 C896 0.930 . S
C882 H870 0.930 . S
C882 C883 1.399 . S
C882 C887 1.399 . S
C883 C882 1.399 . S
C883 C884 1.376 . S
C884 H871 0.930 . S
C884 C883 1.376 . S
C884 C885 1.388 . S
C885 H872 0.930 . S
C885 C884 1.388 . S
C885 C886 1.390 . S
C886 C885 1.390 . S
C886 C887 1.394 . S
C886 C892 1.465 . S
C887 C882 1.399 . S
C887 C886 1.394 . S
C887 C888 1.516 . S
C888 C887 1.516 . S
C888 C889 1.502 . S
C888 C890 1.561 . S
C888 C891 1.526 . S
C889 H873 0.959 . S
C889 H874 0.959 . S
C889 H875 0.961 . S
C889 C888 1.502 . S
C890 H876 0.960 . S
C890 H877 0.961 . S
C890 H878 0.959 . S
C890 C888 1.561 . S
C891 C888 1.526 . S
C891 C892 1.396 . S
C891 C896 1.390 . S
C892 C886 1.465 . S
C892 C891 1.396 . S
C892 C893 1.399 . S
C893 H879 0.929 . S
C893 C892 1.399 . S
C893 C894 1.385 . S
C894 H880 0.931 . S
C894 C893 1.385 . S
C894 C895 1.389 . S
C895 C894 1.389 . S
C895 C896 1.387 . S
C896 H881 0.930 . S
C896 C891 1.390 . S
C896 C895 1.387 . S
H897 C909 0.930 . S
H898 C911 0.930 . S
H899 C912 0.930 . S
H900 C916 0.959 . S
H901 C916 0.959 . S
H902 C916 0.961 . S
H903 C917 0.960 . S
H904 C917 0.961 . S
H905 C917 0.959 . S
H906 C920 0.929 . S
H907 C921 0.931 . S
H908 C923 0.930 . S
C909 H897 0.930 . S
C909 C910 1.399 . S
C909 C914 1.399 . S
C910 C909 1.399 . S
C910 C911 1.376 . S
C911 H898 0.930 . S
C911 C910 1.376 . S
C911 C912 1.388 . S
C912 H899 0.930 . S
C912 C911 1.388 . S
C912 C913 1.390 . S
C913 C912 1.390 . S
C913 C914 1.394 . S
C913 C919 1.465 . S
C914 C909 1.399 . S
C914 C913 1.394 . S
C914 C915 1.516 . S
C915 C914 1.516 . S
C915 C916 1.502 . S
C915 C917 1.561 . S
C915 C918 1.526 . S
C916 H900 0.959 . S
C916 H901 0.959 . S
C916 H902 0.961 . S
C916 C915 1.502 . S
C917 H903 0.960 . S
C917 H904 0.961 . S
C917 H905 0.959 . S
C917 C915 1.561 . S
C918 C915 1.526 . S
C918 C919 1.396 . S
C918 C923 1.390 . S
C919 C913 1.465 . S
C919 C918 1.396 . S
C919 C920 1.399 . S
C920 H906 0.929 . S
C920 C919 1.399 . S
C920 C921 1.385 . S
C921 H907 0.931 . S
C921 C920 1.385 . S
C921 C922 1.389 . S
C922 C921 1.389 . S
C922 C923 1.387 . S
C923 H908 0.930 . S
C923 C918 1.390 . S
C923 C922 1.387 . S
H924 C936 0.930 . S
H925 C938 0.930 . S
H926 C939 0.930 . S
H927 C943 0.959 . S
H928 C943 0.959 . S
H929 C943 0.961 . S
H930 C944 0.960 . S
H931 C944 0.961 . S
H932 C944 0.959 . S
H933 C947 0.929 . S
H934 C948 0.931 . S
H935 C950 0.930 . S
C936 H924 0.930 . S
C936 C937 1.399 . S
C936 C941 1.399 . S
C937 C936 1.399 . S
C937 C938 1.376 . S
C938 H925 0.930 . S
C938 C937 1.376 . S
C938 C939 1.388 . S
C939 H926 0.930 . S
C939 C938 1.388 . S
C939 C940 1.390 . S
C940 C939 1.390 . S
C940 C941 1.394 . S
C940 C946 1.465 . S
C941 C936 1.399 . S
C941 C940 1.394 . S
C941 C942 1.516 . S
C942 C941 1.516 . S
C942 C943 1.502 . S
C942 C944 1.561 . S
C942 C945 1.526 . S
C943 H927 0.959 . S
C943 H928 0.959 . S
C943 H929 0.961 . S
C943 C942 1.502 . S
C944 H930 0.960 . S
C944 H931 0.961 . S
C944 H932 0.959 . S
C944 C942 1.561 . S
C945 C942 1.526 . S
C945 C946 1.396 . S
C945 C950 1.390 . S
C946 C940 1.465 . S
C946 C945 1.396 . S
C946 C947 1.399 . S
C947 H933 0.929 . S
C947 C946 1.399 . S
C947 C948 1.385 . S
C948 H934 0.931 . S
C948 C947 1.385 . S
C948 C949 1.389 . S
C949 C948 1.389 . S
C949 C950 1.387 . S
C950 H935 0.930 . S
C950 C945 1.390 . S
C950 C949 1.387 . S
H951 C963 0.930 . S
H952 C965 0.930 . S
H953 C966 0.930 . S
H954 C970 0.959 . S
H955 C970 0.959 . S
H956 C970 0.961 . S
H957 C971 0.960 . S
H958 C971 0.961 . S
H959 C971 0.959 . S
H960 C974 0.929 . S
H961 C975 0.931 . S
H962 C977 0.930 . S
C963 H951 0.930 . S
C963 C964 1.399 . S
C963 C968 1.399 . S
C964 C963 1.399 . S
C964 C965 1.376 . S
C965 H952 0.930 . S
C965 C964 1.376 . S
C965 C966 1.388 . S
C966 H953 0.930 . S
C966 C965 1.388 . S
C966 C967 1.390 . S
C967 C966 1.390 . S
C967 C968 1.394 . S
C967 C973 1.465 . S
C968 C963 1.399 . S
C968 C967 1.394 . S
C968 C969 1.516 . S
C969 C968 1.516 . S
C969 C970 1.502 . S
C969 C971 1.561 . S
C969 C972 1.526 . S
C970 H954 0.959 . S
C970 H955 0.959 . S
C970 H956 0.961 . S
C970 C969 1.502 . S
C971 H957 0.960 . S
C971 H958 0.961 . S
C971 H959 0.959 . S
C971 C969 1.561 . S
C972 C969 1.526 . S
C972 C973 1.396 . S
C972 C977 1.390 . S
C973 C967 1.465 . S
C973 C972 1.396 . S
C973 C974 1.399 . S
C974 H960 0.929 . S
C974 C973 1.399 . S
C974 C975 1.385 . S
C975 H961 0.931 . S
C975 C974 1.385 . S
C975 C976 1.389 . S
C976 C975 1.389 . S
C976 C977 1.387 . S
C977 H962 0.930 . S
C977 C972 1.390 . S
C977 C976 1.387 . S
H978 C990 0.930 . S
H979 C992 0.930 . S
H980 C993 0.930 . S
H981 C997 0.959 . S
H982 C997 0.959 . S
H983 C997 0.961 . S
H984 C998 0.960 . S
H985 C998 0.961 . S
H986 C998 0.959 . S
H987 C1001 0.929 . S
H988 C1002 0.931 . S
H989 C1004 0.930 . S
C990 H978 0.930 . S
C990 C991 1.399 . S
C990 C995 1.399 . S
C991 C990 1.399 . S
C991 C992 1.376 . S
C992 H979 0.930 . S
C992 C991 1.376 . S
C992 C993 1.388 . S
C993 H980 0.930 . S
C993 C992 1.388 . S
C993 C994 1.390 . S
C994 C993 1.390 . S
C994 C995 1.394 . S
C994 C1000 1.465 . S
C995 C990 1.399 . S
C995 C994 1.394 . S
C995 C996 1.516 . S
C996 C995 1.516 . S
C996 C997 1.502 . S
C996 C998 1.561 . S
C996 C999 1.526 . S
C997 H981 0.959 . S
C997 H982 0.959 . S
C997 H983 0.961 . S
C997 C996 1.502 . S
C998 H984 0.960 . S
C998 H985 0.961 . S
C998 H986 0.959 . S
C998 C996 1.561 . S
C999 C996 1.526 . S
C999 C1000 1.396 . S
C999 C1004 1.390 . S
C1000 C994 1.465 . S
C1000 C999 1.396 . S
C1000 C1001 1.399 . S
C1001 H987 0.929 . S
C1001 C1000 1.399 . S
C1001 C1002 1.385 . S
C1002 H988 0.931 . S
C1002 C1001 1.385 . S
C1002 C1003 1.389 . S
C1003 C1002 1.389 . S
C1003 C1004 1.387 . S
C1004 H989 0.930 . S
C1004 C999 1.390 . S
C1004 C1003 1.387 . S
H1005 C1017 0.930 . S
H1006 C1019 0.930 . S
H1007 C1020 0.930 . S
H1008 C1024 0.959 . S
H1009 C1024 0.959 . S
H1010 C1024 0.961 . S
H1011 C1025 0.960 . S
H1012 C1025 0.961 . S
H1013 C1025 0.959 . S
H1014 C1028 0.929 . S
H1015 C1029 0.931 . S
H1016 C1031 0.930 . S
C1017 H1005 0.930 . S
C1017 C1018 1.399 . S
C1017 C1022 1.399 . S
C1018 C1017 1.399 . S
C1018 C1019 1.376 . S
C1019 H1006 0.930 . S
C1019 C1018 1.376 . S
C1019 C1020 1.388 . S
C1020 H1007 0.930 . S
C1020 C1019 1.388 . S
C1020 C1021 1.390 . S
C1021 C1020 1.390 . S
C1021 C1022 1.394 . S
C1021 C1027 1.465 . S
C1022 C1017 1.399 . S
C1022 C1021 1.394 . S
C1022 C1023 1.516 . S
C1023 C1022 1.516 . S
C1023 C1024 1.502 . S
C1023 C1025 1.561 . S
C1023 C1026 1.526 . S
C1024 H1008 0.959 . S
C1024 H1009 0.959 . S
C1024 H1010 0.961 . S
C1024 C1023 1.502 . S
C1025 H1011 0.960 . S
C1025 H1012 0.961 . S
C1025 H1013 0.959 . S
C1025 C1023 1.561 . S
C1026 C1023 1.526 . S
C1026 C1027 1.396 . S
C1026 C1031 1.390 . S
C1027 C1021 1.465 . S
C1027 C1026 1.396 . S
C1027 C1028 1.399 . S
C1028 H1014 0.929 . S
C1028 C1027 1.399 . S
C1028 C1029 1.385 . S
C1029 H1015 0.931 . S
C1029 C1028 1.385 . S
C1029 C1030 1.389 . S
C1030 C1029 1.389 . S
C1030 C1031 1.387 . S
C1031 H1016 0.930 . S
C1031 C1026 1.390 . S
C1031 C1030 1.387 . S
H1032 C1044 0.930 . S
H1033 C1046 0.930 . S
H1034 C1047 0.930 . S
H1035 C1051 0.959 . S
H1036 C1051 0.959 . S
H1037 C1051 0.961 . S
H1038 C1052 0.960 . S
H1039 C1052 0.961 . S
H1040 C1052 0.959 . S
H1041 C1055 0.929 . S
H1042 C1056 0.931 . S
H1043 C1058 0.930 . S
C1044 H1032 0.930 . S
C1044 C1045 1.399 . S
C1044 C1049 1.399 . S
C1045 C1044 1.399 . S
C1045 C1046 1.376 . S
C1046 H1033 0.930 . S
C1046 C1045 1.376 . S
C1046 C1047 1.388 . S
C1047 H1034 0.930 . S
C1047 C1046 1.388 . S
C1047 C1048 1.390 . S
C1048 C1047 1.390 . S
C1048 C1049 1.394 . S
C1048 C1054 1.465 . S
C1049 C1044 1.399 . S
C1049 C1048 1.394 . S
C1049 C1050 1.516 . S
C1050 C1049 1.516 . S
C1050 C1051 1.502 . S
C1050 C1052 1.561 . S
C1050 C1053 1.526 . S
C1051 H1035 0.959 . S
C1051 H1036 0.959 . S
C1051 H1037 0.961 . S
C1051 C1050 1.502 . S
C1052 H1038 0.960 . S
C1052 H1039 0.961 . S
C1052 H1040 0.959 . S
C1052 C1050 1.561 . S
C1053 C1050 1.526 . S
C1053 C1054 1.396 . S
C1053 C1058 1.390 . S
C1054 C1048 1.465 . S
C1054 C1053 1.396 . S
C1054 C1055 1.399 . S
C1055 H1041 0.929 . S
C1055 C1054 1.399 . S
C1055 C1056 1.385 . S
C1056 H1042 0.931 . S
C1056 C1055 1.385 . S
C1056 C1057 1.389 . S
C1057 C1056 1.389 . S
C1057 C1058 1.387 . S
C1058 H1043 0.930 . S
C1058 C1053 1.390 . S
C1058 C1057 1.387 . S
H1059 C1071 0.930 . S
H1060 C1073 0.930 . S
H1061 C1074 0.930 . S
H1062 C1078 0.959 . S
H1063 C1078 0.959 . S
H1064 C1078 0.961 . S
H1065 C1079 0.960 . S
H1066 C1079 0.961 . S
H1067 C1079 0.959 . S
H1068 C1082 0.929 . S
H1069 C1083 0.931 . S
H1070 C1085 0.930 . S
C1071 H1059 0.930 . S
C1071 C1072 1.399 . S
C1071 C1076 1.399 . S
C1072 C1071 1.399 . S
C1072 C1073 1.376 . S
C1073 H1060 0.930 . S
C1073 C1072 1.376 . S
C1073 C1074 1.388 . S
C1074 H1061 0.930 . S
C1074 C1073 1.388 . S
C1074 C1075 1.390 . S
C1075 C1074 1.390 . S
C1075 C1076 1.394 . S
C1075 C1081 1.465 . S
C1076 C1071 1.399 . S
C1076 C1075 1.394 . S
C1076 C1077 1.516 . S
C1077 C1076 1.516 . S
C1077 C1078 1.502 . S
C1077 C1079 1.561 . S
C1077 C1080 1.526 . S
C1078 H1062 0.959 . S
C1078 H1063 0.959 . S
C1078 H1064 0.961 . S
C1078 C1077 1.502 . S
C1079 H1065 0.960 . S
C1079 H1066 0.961 . S
C1079 H1067 0.959 . S
C1079 C1077 1.561 . S
C1080 C1077 1.526 . S
C1080 C1081 1.396 . S
C1080 C1085 1.390 . S
C1081 C1075 1.465 . S
C1081 C1080 1.396 . S
C1081 C1082 1.399 . S
C1082 H1068 0.929 . S
C1082 C1081 1.399 . S
C1082 C1083 1.385 . S
C1083 H1069 0.931 . S
C1083 C1082 1.385 . S
C1083 C1084 1.389 . S
C1084 C1083 1.389 . S
C1084 C1085 1.387 . S
C1085 H1070 0.930 . S
C1085 C1080 1.390 . S
C1085 C1084 1.387 . S
H1086 C1098 0.930 . S
H1087 C1100 0.930 . S
H1088 C1101 0.930 . S
H1089 C1105 0.959 . S
H1090 C1105 0.959 . S
H1091 C1105 0.961 . S
H1092 C1106 0.960 . S
H1093 C1106 0.961 . S
H1094 C1106 0.959 . S
H1095 C1109 0.929 . S
H1096 C1110 0.931 . S
H1097 C1112 0.930 . S
C1098 H1086 0.930 . S
C1098 C1099 1.399 . S
C1098 C1103 1.399 . S
C1099 C1098 1.399 . S
C1099 C1100 1.376 . S
C1100 H1087 0.930 . S
C1100 C1099 1.376 . S
C1100 C1101 1.388 . S
C1101 H1088 0.930 . S
C1101 C1100 1.388 . S
C1101 C1102 1.390 . S
C1102 C1101 1.390 . S
C1102 C1103 1.394 . S
C1102 C1108 1.465 . S
C1103 C1098 1.399 . S
C1103 C1102 1.394 . S
C1103 C1104 1.516 . S
C1104 C1103 1.516 . S
C1104 C1105 1.502 . S
C1104 C1106 1.561 . S
C1104 C1107 1.526 . S
C1105 H1089 0.959 . S
C1105 H1090 0.959 . S
C1105 H1091 0.961 . S
C1105 C1104 1.502 . S
C1106 H1092 0.960 . S
C1106 H1093 0.961 . S
C1106 H1094 0.959 . S
C1106 C1104 1.561 . S
C1107 C1104 1.526 . S
C1107 C1108 1.396 . S
C1107 C1112 1.390 . S
C1108 C1102 1.465 . S
C1108 C1107 1.396 . S
C1108 C1109 1.399 . S
C1109 H1095 0.929 . S
C1109 C1108 1.399 . S
C1109 C1110 1.385 . S
C1110 H1096 0.931 . S
C1110 C1109 1.385 . S
C1110 C1111 1.389 . S
C1111 C1110 1.389 . S
C1111 C1112 1.387 . S
C1112 H1097 0.930 . S
C1112 C1107 1.390 . S
C1112 C1111 1.387 . S
H1113 C1125 0.930 . S
H1114 C1127 0.930 . S
H1115 C1128 0.930 . S
H1116 C1132 0.959 . S
H1117 C1132 0.959 . S
H1118 C1132 0.961 . S
H1119 C1133 0.960 . S
H1120 C1133 0.961 . S
H1121 C1133 0.959 . S
H1122 C1136 0.929 . S
H1123 C1137 0.931 . S
H1124 C1139 0.930 . S
C1125 H1113 0.930 . S
C1125 C1126 1.399 . S
C1125 C1130 1.399 . S
C1126 C1125 1.399 . S
C1126 C1127 1.376 . S
C1127 H1114 0.930 . S
C1127 C1126 1.376 . S
C1127 C1128 1.388 . S
C1128 H1115 0.930 . S
C1128 C1127 1.388 . S
C1128 C1129 1.390 . S
C1129 C1128 1.390 . S
C1129 C1130 1.394 . S
C1129 C1135 1.465 . S
C1130 C1125 1.399 . S
C1130 C1129 1.394 . S
C1130 C1131 1.516 . S
C1131 C1130 1.516 . S
C1131 C1132 1.502 . S
C1131 C1133 1.561 . S
C1131 C1134 1.526 . S
C1132 H1116 0.959 . S
C1132 H1117 0.959 . S
C1132 H1118 0.961 . S
C1132 C1131 1.502 . S
C1133 H1119 0.960 . S
C1133 H1120 0.961 . S
C1133 H1121 0.959 . S
C1133 C1131 1.561 . S
C1134 C1131 1.526 . S
C1134 C1135 1.396 . S
C1134 C1139 1.390 . S
C1135 C1129 1.465 . S
C1135 C1134 1.396 . S
C1135 C1136 1.399 . S
C1136 H1122 0.929 . S
C1136 C1135 1.399 . S
C1136 C1137 1.385 . S
C1137 H1123 0.931 . S
C1137 C1136 1.385 . S
C1137 C1138 1.389 . S
C1138 C1137 1.389 . S
C1138 C1139 1.387 . S
C1139 H1124 0.930 . S
C1139 C1134 1.390 . S
C1139 C1138 1.387 . S
H1140 C1152 0.930 . S
H1141 C1154 0.930 . S
H1142 C1155 0.930 . S
H1143 C1159 0.959 . S
H1144 C1159 0.959 . S
H1145 C1159 0.961 . S
H1146 C1160 0.960 . S
H1147 C1160 0.961 . S
H1148 C1160 0.959 . S
H1149 C1163 0.929 . S
H1150 C1164 0.931 . S
H1151 C1166 0.930 . S
C1152 H1140 0.930 . S
C1152 C1153 1.399 . S
C1152 C1157 1.399 . S
C1153 C1152 1.399 . S
C1153 C1154 1.376 . S
C1154 H1141 0.930 . S
C1154 C1153 1.376 . S
C1154 C1155 1.388 . S
C1155 H1142 0.930 . S
C1155 C1154 1.388 . S
C1155 C1156 1.390 . S
C1156 C1155 1.390 . S
C1156 C1157 1.394 . S
C1156 C1162 1.465 . S
C1157 C1152 1.399 . S
C1157 C1156 1.394 . S
C1157 C1158 1.516 . S
C1158 C1157 1.516 . S
C1158 C1159 1.502 . S
C1158 C1160 1.561 . S
C1158 C1161 1.526 . S
C1159 H1143 0.959 . S
C1159 H1144 0.959 . S
C1159 H1145 0.961 . S
C1159 C1158 1.502 . S
C1160 H1146 0.960 . S
C1160 H1147 0.961 . S
C1160 H1148 0.959 . S
C1160 C1158 1.561 . S
C1161 C1158 1.526 . S
C1161 C1162 1.396 . S
C1161 C1166 1.390 . S
C1162 C1156 1.465 . S
C1162 C1161 1.396 . S
C1162 C1163 1.399 . S
C1163 H1149 0.929 . S
C1163 C1162 1.399 . S
C1163 C1164 1.385 . S
C1164 H1150 0.931 . S
C1164 C1163 1.385 . S
C1164 C1165 1.389 . S
C1165 C1164 1.389 . S
C1165 C1166 1.387 . S
C1166 H1151 0.930 . S
C1166 C1161 1.390 . S
C1166 C1165 1.387 . S
H1167 C1179 0.930 . S
H1168 C1181 0.930 . S
H1169 C1182 0.930 . S
H1170 C1186 0.959 . S
H1171 C1186 0.959 . S
H1172 C1186 0.961 . S
H1173 C1187 0.960 . S
H1174 C1187 0.961 . S
H1175 C1187 0.959 . S
H1176 C1190 0.929 . S
H1177 C1191 0.931 . S
H1178 C1193 0.930 . S
C1179 H1167 0.930 . S
C1179 C1180 1.399 . S
C1179 C1184 1.399 . S
C1180 C1179 1.399 . S
C1180 C1181 1.376 . S
C1181 H1168 0.930 . S
C1181 C1180 1.376 . S
C1181 C1182 1.388 . S
C1182 H1169 0.930 . S
C1182 C1181 1.388 . S
C1182 C1183 1.390 . S
C1183 C1182 1.390 . S
C1183 C1184 1.394 . S
C1183 C1189 1.465 . S
C1184 C1179 1.399 . S
C1184 C1183 1.394 . S
C1184 C1185 1.516 . S
C1185 C1184 1.516 . S
C1185 C1186 1.502 . S
C1185 C1187 1.561 . S
C1185 C1188 1.526 . S
C1186 H1170 0.959 . S
C1186 H1171 0.959 . S
C1186 H1172 0.961 . S
C1186 C1185 1.502 . S
C1187 H1173 0.960 . S
C1187 H1174 0.961 . S
C1187 H1175 0.959 . S
C1187 C1185 1.561 . S
C1188 C1185 1.526 . S
C1188 C1189 1.396 . S
C1188 C1193 1.390 . S
C1189 C1183 1.465 . S
C1189 C1188 1.396 . S
C1189 C1190 1.399 . S
C1190 H1176 0.929 . S
C1190 C1189 1.399 . S
C1190 C1191 1.385 . S
C1191 H1177 0.931 . S
C1191 C1190 1.385 . S
C1191 C1192 1.389 . S
C1192 C1191 1.389 . S
C1192 C1193 1.387 . S
C1193 H1178 0.930 . S
C1193 C1188 1.390 . S
C1193 C1192 1.387 . S
H1194 C1206 0.930 . S
H1195 C1208 0.930 . S
H1196 C1209 0.930 . S
H1197 C1213 0.959 . S
H1198 C1213 0.959 . S
H1199 C1213 0.961 . S
H1200 C1214 0.960 . S
H1201 C1214 0.961 . S
H1202 C1214 0.959 . S
H1203 C1217 0.929 . S
H1204 C1218 0.931 . S
H1205 C1220 0.930 . S
C1206 H1194 0.930 . S
C1206 C1207 1.399 . S
C1206 C1211 1.399 . S
C1207 C1206 1.399 . S
C1207 C1208 1.376 . S
C1208 H1195 0.930 . S
C1208 C1207 1.376 . S
C1208 C1209 1.388 . S
C1209 H1196 0.930 . S
C1209 C1208 1.388 . S
C1209 C1210 1.390 . S
C1210 C1209 1.390 . S
C1210 C1211 1.394 . S
C1210 C1216 1.465 . S
C1211 C1206 1.399 . S
C1211 C1210 1.394 . S
C1211 C1212 1.516 . S
C1212 C1211 1.516 . S
C1212 C1213 1.502 . S
C1212 C1214 1.561 . S
C1212 C1215 1.526 . S
C1213 H1197 0.959 . S
C1213 H1198 0.959 . S
C1213 H1199 0.961 . S
C1213 C1212 1.502 . S
C1214 H1200 0.960 . S
C1214 H1201 0.961 . S
C1214 H1202 0.959 . S
C1214 C1212 1.561 . S
C1215 C1212 1.526 . S
C1215 C1216 1.396 . S
C1215 C1220 1.390 . S
C1216 C1210 1.465 . S
C1216 C1215 1.396 . S
C1216 C1217 1.399 . S
C1217 H1203 0.929 . S
C1217 C1216 1.399 . S
C1217 C1218 1.385 . S
C1218 H1204 0.931 . S
C1218 C1217 1.385 . S
C1218 C1219 1.389 . S
C1219 C1218 1.389 . S
C1219 C1220 1.387 . S
C1220 H1205 0.930 . S
C1220 C1215 1.390 . S
C1220 C1219 1.387 . S
H1221 C1233 0.930 . S
H1222 C1235 0.930 . S
H1223 C1236 0.930 . S
H1224 C1240 0.959 . S
H1225 C1240 0.959 . S
H1226 C1240 0.961 . S
H1227 C1241 0.960 . S
H1228 C1241 0.961 . S
H1229 C1241 0.959 . S
H1230 C1244 0.929 . S
H1231 C1245 0.931 . S
H1232 C1247 0.930 . S
C1233 H1221 0.930 . S
C1233 C1234 1.399 . S
C1233 C1238 1.399 . S
C1234 C1233 1.399 . S
C1234 C1235 1.376 . S
C1235 H1222 0.930 . S
C1235 C1234 1.376 . S
C1235 C1236 1.388 . S
C1236 H1223 0.930 . S
C1236 C1235 1.388 . S
C1236 C1237 1.390 . S
C1237 C1236 1.390 . S
C1237 C1238 1.394 . S
C1237 C1243 1.465 . S
C1238 C1233 1.399 . S
C1238 C1237 1.394 . S
C1238 C1239 1.516 . S
C1239 C1238 1.516 . S
C1239 C1240 1.502 . S
C1239 C1241 1.561 . S
C1239 C1242 1.526 . S
C1240 H1224 0.959 . S
C1240 H1225 0.959 . S
C1240 H1226 0.961 . S
C1240 C1239 1.502 . S
C1241 H1227 0.960 . S
C1241 H1228 0.961 . S
C1241 H1229 0.959 . S
C1241 C1239 1.561 . S
C1242 C1239 1.526 . S
C1242 C1243 1.396 . S
C1242 C1247 1.390 . S
C1243 C1237 1.465 . S
C1243 C1242 1.396 . S
C1243 C1244 1.399 . S
C1244 H1230 0.929 . S
C1244 C1243 1.399 . S
C1244 C1245 1.385 . S
C1245 H1231 0.931 . S
C1245 C1244 1.385 . S
C1245 C1246 1.389 . S
C1246 C1245 1.389 . S
C1246 C1247 1.387 . S
C1247 H1232 0.930 . S
C1247 C1242 1.390 . S
C1247 C1246 1.387 . S
H1248 C1260 0.930 . S
H1249 C1262 0.930 . S
H1250 C1263 0.930 . S
H1251 C1267 0.959 . S
H1252 C1267 0.959 . S
H1253 C1267 0.961 . S
H1254 C1268 0.960 . S
H1255 C1268 0.961 . S
H1256 C1268 0.959 . S
H1257 C1271 0.929 . S
H1258 C1272 0.931 . S
H1259 C1274 0.930 . S
C1260 H1248 0.930 . S
C1260 C1261 1.399 . S
C1260 C1265 1.399 . S
C1261 C1260 1.399 . S
C1261 C1262 1.376 . S
C1262 H1249 0.930 . S
C1262 C1261 1.376 . S
C1262 C1263 1.388 . S
C1263 H1250 0.930 . S
C1263 C1262 1.388 . S
C1263 C1264 1.390 . S
C1264 C1263 1.390 . S
C1264 C1265 1.394 . S
C1264 C1270 1.465 . S
C1265 C1260 1.399 . S
C1265 C1264 1.394 . S
C1265 C1266 1.516 . S
C1266 C1265 1.516 . S
C1266 C1267 1.502 . S
C1266 C1268 1.561 . S
C1266 C1269 1.526 . S
C1267 H1251 0.959 . S
C1267 H1252 0.959 . S
C1267 H1253 0.961 . S
C1267 C1266 1.502 . S
C1268 H1254 0.960 . S
C1268 H1255 0.961 . S
C1268 H1256 0.959 . S
C1268 C1266 1.561 . S
C1269 C1266 1.526 . S
C1269 C1270 1.396 . S
C1269 C1274 1.390 . S
C1270 C1264 1.465 . S
C1270 C1269 1.396 . S
C1270 C1271 1.399 . S
C1271 H1257 0.929 . S
C1271 C1270 1.399 . S
C1271 C1272 1.385 . S
C1272 H1258 0.931 . S
C1272 C1271 1.385 . S
C1272 C1273 1.389 . S
C1273 C1272 1.389 . S
C1273 C1274 1.387 . S
C1274 H1259 0.930 . S
C1274 C1269 1.390 . S
C1274 C1273 1.387 . S
H1275 C1287 0.930 . S
H1276 C1289 0.930 . S
H1277 C1290 0.930 . S
H1278 C1294 0.959 . S
H1279 C1294 0.959 . S
H1280 C1294 0.961 . S
H1281 C1295 0.960 . S
H1282 C1295 0.961 . S
H1283 C1295 0.959 . S
H1284 C1298 0.929 . S
H1285 C1299 0.931 . S
H1286 C1301 0.930 . S
C1287 H1275 0.930 . S
C1287 C1288 1.399 . S
C1287 C1292 1.399 . S
C1288 C1287 1.399 . S
C1288 C1289 1.376 . S
C1289 H1276 0.930 . S
C1289 C1288 1.376 . S
C1289 C1290 1.388 . S
C1290 H1277 0.930 . S
C1290 C1289 1.388 . S
C1290 C1291 1.390 . S
C1291 C1290 1.390 . S
C1291 C1292 1.394 . S
C1291 C1297 1.465 . S
C1292 C1287 1.399 . S
C1292 C1291 1.394 . S
C1292 C1293 1.516 . S
C1293 C1292 1.516 . S
C1293 C1294 1.502 . S
C1293 C1295 1.561 . S
C1293 C1296 1.526 . S
C1294 H1278 0.959 . S
C1294 H1279 0.959 . S
C1294 H1280 0.961 . S
C1294 C1293 1.502 . S
C1295 H1281 0.960 . S
C1295 H1282 0.961 . S
C1295 H1283 0.959 . S
C1295 C1293 1.561 . S
C1296 C1293 1.526 . S
C1296 C1297 1.396 . S
C1296 C1301 1.390 . S
C1297 C1291 1.465 . S
C1297 C1296 1.396 . S
C1297 C1298 1.399 . S
C1298 H1284 0.929 . S
C1298 C1297 1.399 . S
C1298 C1299 1.385 . S
C1299 H1285 0.931 . S
C1299 C1298 1.385 . S
C1299 C1300 1.389 . S
C1300 C1299 1.389 . S
C1300 C1301 1.387 . S
C1301 H1286 0.930 . S
C1301 C1296 1.390 . S
C1301 C1300 1.387 . S
H1302 C1314 0.930 . S
H1303 C1316 0.930 . S
H1304 C1317 0.930 . S
H1305 C1321 0.959 . S
H1306 C1321 0.959 . S
H1307 C1321 0.961 . S
H1308 C1322 0.960 . S
H1309 C1322 0.961 . S
H1310 C1322 0.959 . S
H1311 C1325 0.929 . S
H1312 C1326 0.931 . S
H1313 C1328 0.930 . S
C1314 H1302 0.930 . S
C1314 C1315 1.399 . S
C1314 C1319 1.399 . S
C1315 C1314 1.399 . S
C1315 C1316 1.376 . S
C1316 H1303 0.930 . S
C1316 C1315 1.376 . S
C1316 C1317 1.388 . S
C1317 H1304 0.930 . S
C1317 C1316 1.388 . S
C1317 C1318 1.390 . S
C1318 C1317 1.390 . S
C1318 C1319 1.394 . S
C1318 C1324 1.465 . S
C1319 C1314 1.399 . S
C1319 C1318 1.394 . S
C1319 C1320 1.516 . S
C1320 C1319 1.516 . S
C1320 C1321 1.502 . S
C1320 C1322 1.561 . S
C1320 C1323 1.526 . S
C1321 H1305 0.959 . S
C1321 H1306 0.959 . S
C1321 H1307 0.961 . S
C1321 C1320 1.502 . S
C1322 H1308 0.960 . S
C1322 H1309 0.961 . S
C1322 H1310 0.959 . S
C1322 C1320 1.561 . S
C1323 C1320 1.526 . S
C1323 C1324 1.396 . S
C1323 C1328 1.390 . S
C1324 C1318 1.465 . S
C1324 C1323 1.396 . S
C1324 C1325 1.399 . S
C1325 H1311 0.929 . S
C1325 C1324 1.399 . S
C1325 C1326 1.385 . S
C1326 H1312 0.931 . S
C1326 C1325 1.385 . S
C1326 C1327 1.389 . S
C1327 C1326 1.389 . S
C1327 C1328 1.387 . S
C1328 H1313 0.930 . S
C1328 C1323 1.390 . S
C1328 C1327 1.387 . S
H1329 C1341 0.930 . S
H1330 C1343 0.930 . S
H1331 C1344 0.930 . S
H1332 C1348 0.959 . S
H1333 C1348 0.959 . S
H1334 C1348 0.961 . S
H1335 C1349 0.960 . S
H1336 C1349 0.961 . S
H1337 C1349 0.959 . S
H1338 C1352 0.929 . S
H1339 C1353 0.931 . S
H1340 C1355 0.930 . S
C1341 H1329 0.930 . S
C1341 C1342 1.399 . S
C1341 C1346 1.399 . S
C1342 C1341 1.399 . S
C1342 C1343 1.376 . S
C1343 H1330 0.930 . S
C1343 C1342 1.376 . S
C1343 C1344 1.388 . S
C1344 H1331 0.930 . S
C1344 C1343 1.388 . S
C1344 C1345 1.390 . S
C1345 C1344 1.390 . S
C1345 C1346 1.394 . S
C1345 C1351 1.465 . S
C1346 C1341 1.399 . S
C1346 C1345 1.394 . S
C1346 C1347 1.516 . S
C1347 C1346 1.516 . S
C1347 C1348 1.502 . S
C1347 C1349 1.561 . S
C1347 C1350 1.526 . S
C1348 H1332 0.959 . S
C1348 H1333 0.959 . S
C1348 H1334 0.961 . S
C1348 C1347 1.502 . S
C1349 H1335 0.960 . S
C1349 H1336 0.961 . S
C1349 H1337 0.959 . S
C1349 C1347 1.561 . S
C1350 C1347 1.526 . S
C1350 C1351 1.396 . S
C1350 C1355 1.390 . S
C1351 C1345 1.465 . S
C1351 C1350 1.396 . S
C1351 C1352 1.399 . S
C1352 H1338 0.929 . S
C1352 C1351 1.399 . S
C1352 C1353 1.385 . S
C1353 H1339 0.931 . S
C1353 C1352 1.385 . S
C1353 C1354 1.389 . S
C1354 C1353 1.389 . S
C1354 C1355 1.387 . S
C1355 H1340 0.930 . S
C1355 C1350 1.390 . S
C1355 C1354 1.387 . S
H1356 C1368 0.930 . S
H1357 C1370 0.930 . S
H1358 C1371 0.930 . S
H1359 C1375 0.959 . S
H1360 C1375 0.959 . S
H1361 C1375 0.961 . S
H1362 C1376 0.960 . S
H1363 C1376 0.961 . S
H1364 C1376 0.959 . S
H1365 C1379 0.929 . S
H1366 C1380 0.931 . S
H1367 C1382 0.930 . S
C1368 H1356 0.930 . S
C1368 C1369 1.399 . S
C1368 C1373 1.399 . S
C1369 C1368 1.399 . S
C1369 C1370 1.376 . S
C1370 H1357 0.930 . S
C1370 C1369 1.376 . S
C1370 C1371 1.388 . S
C1371 H1358 0.930 . S
C1371 C1370 1.388 . S
C1371 C1372 1.390 . S
C1372 C1371 1.390 . S
C1372 C1373 1.394 . S
C1372 C1378 1.465 . S
C1373 C1368 1.399 . S
C1373 C1372 1.394 . S
C1373 C1374 1.516 . S
C1374 C1373 1.516 . S
C1374 C1375 1.502 . S
C1374 C1376 1.561 . S
C1374 C1377 1.526 . S
C1375 H1359 0.959 . S
C1375 H1360 0.959 . S
C1375 H1361 0.961 . S
C1375 C1374 1.502 . S
C1376 H1362 0.960 . S
C1376 H1363 0.961 . S
C1376 H1364 0.959 . S
C1376 C1374 1.561 . S
C1377 C1374 1.526 . S
C1377 C1378 1.396 . S
C1377 C1382 1.390 . S
C1378 C1372 1.465 . S
C1378 C1377 1.396 . S
C1378 C1379 1.399 . S
C1379 H1365 0.929 . S
C1379 C1378 1.399 . S
C1379 C1380 1.385 . S
C1380 H1366 0.931 . S
C1380 C1379 1.385 . S
C1380 C1381 1.389 . S
C1381 C1380 1.389 . S
C1381 C1382 1.387 . S
C1382 H1367 0.930 . S
C1382 C1377 1.390 . S
C1382 C1381 1.387 . S
H1383 C1395 0.930 . S
H1384 C1397 0.930 . S
H1385 C1398 0.930 . S
H1386 C1402 0.959 . S
H1387 C1402 0.959 . S
H1388 C1402 0.961 . S
H1389 C1403 0.960 . S
H1390 C1403 0.961 . S
H1391 C1403 0.959 . S
H1392 C1406 0.929 . S
H1393 C1407 0.931 . S
H1394 C1409 0.930 . S
C1395 H1383 0.930 . S
C1395 C1396 1.399 . S
C1395 C1400 1.399 . S
C1396 C1395 1.399 . S
C1396 C1397 1.376 . S
C1397 H1384 0.930 . S
C1397 C1396 1.376 . S
C1397 C1398 1.388 . S
C1398 H1385 0.930 . S
C1398 C1397 1.388 . S
C1398 C1399 1.390 . S
C1399 C1398 1.390 . S
C1399 C1400 1.394 . S
C1399 C1405 1.465 . S
C1400 C1395 1.399 . S
C1400 C1399 1.394 . S
C1400 C1401 1.516 . S
C1401 C1400 1.516 . S
C1401 C1402 1.502 . S
C1401 C1403 1.561 . S
C1401 C1404 1.526 . S
C1402 H1386 0.959 . S
C1402 H1387 0.959 . S
C1402 H1388 0.961 . S
C1402 C1401 1.502 . S
C1403 H1389 0.960 . S
C1403 H1390 0.961 . S
C1403 H1391 0.959 . S
C1403 C1401 1.561 . S
C1404 C1401 1.526 . S
C1404 C1405 1.396 . S
C1404 C1409 1.390 . S
C1405 C1399 1.465 . S
C1405 C1404 1.396 . S
C1405 C1406 1.399 . S
C1406 H1392 0.929 . S
C1406 C1405 1.399 . S
C1406 C1407 1.385 . S
C1407 H1393 0.931 . S
C1407 C1406 1.385 . S
C1407 C1408 1.389 . S
C1408 C1407 1.389 . S
C1408 C1409 1.387 . S
C1409 H1394 0.930 . S
C1409 C1404 1.390 . S
C1409 C1408 1.387 . S
H1410 C1422 0.930 . S
H1411 C1424 0.930 . S
H1412 C1425 0.930 . S
H1413 C1429 0.959 . S
H1414 C1429 0.959 . S
H1415 C1429 0.961 . S
H1416 C1430 0.960 . S
H1417 C1430 0.961 . S
H1418 C1430 0.959 . S
H1419 C1433 0.929 . S
H1420 C1434 0.931 . S
H1421 C1436 0.930 . S
C1422 H1410 0.930 . S
C1422 C1423 1.399 . S
C1422 C1427 1.399 . S
C1423 C1422 1.399 . S
C1423 C1424 1.376 . S
C1424 H1411 0.930 . S
C1424 C1423 1.376 . S
C1424 C1425 1.388 . S
C1425 H1412 0.930 . S
C1425 C1424 1.388 . S
C1425 C1426 1.390 . S
C1426 C1425 1.390 . S
C1426 C1427 1.394 . S
C1426 C1432 1.465 . S
C1427 C1422 1.399 . S
C1427 C1426 1.394 . S
C1427 C1428 1.516 . S
C1428 C1427 1.516 . S
C1428 C1429 1.502 . S
C1428 C1430 1.561 . S
C1428 C1431 1.526 . S
C1429 H1413 0.959 . S
C1429 H1414 0.959 . S
C1429 H1415 0.961 . S
C1429 C1428 1.502 . S
C1430 H1416 0.960 . S
C1430 H1417 0.961 . S
C1430 H1418 0.959 . S
C1430 C1428 1.561 . S
C1431 C1428 1.526 . S
C1431 C1432 1.396 . S
C1431 C1436 1.390 . S
C1432 C1426 1.465 . S
C1432 C1431 1.396 . S
C1432 C1433 1.399 . S
C1433 H1419 0.929 . S
C1433 C1432 1.399 . S
C1433 C1434 1.385 . S
C1434 H1420 0.931 . S
C1434 C1433 1.385 . S
C1434 C1435 1.389 . S
C1435 C1434 1.389 . S
C1435 C1436 1.387 . S
C1436 H1421 0.930 . S
C1436 C1431 1.390 . S
C1436 C1435 1.387 . S
H1437 C1449 0.930 . S
H1438 C1451 0.930 . S
H1439 C1452 0.930 . S
H1440 C1456 0.959 . S
H1441 C1456 0.959 . S
H1442 C1456 0.961 . S
H1443 C1457 0.960 . S
H1444 C1457 0.961 . S
H1445 C1457 0.959 . S
H1446 C1460 0.929 . S
H1447 C1461 0.931 . S
H1448 C1463 0.930 . S
C1449 H1437 0.930 . S
C1449 C1450 1.399 . S
C1449 C1454 1.399 . S
C1450 C1449 1.399 . S
C1450 C1451 1.376 . S
C1451 H1438 0.930 . S
C1451 C1450 1.376 . S
C1451 C1452 1.388 . S
C1452 H1439 0.930 . S
C1452 C1451 1.388 . S
C1452 C1453 1.390 . S
C1453 C1452 1.390 . S
C1453 C1454 1.394 . S
C1453 C1459 1.465 . S
C1454 C1449 1.399 . S
C1454 C1453 1.394 . S
C1454 C1455 1.516 . S
C1455 C1454 1.516 . S
C1455 C1456 1.502 . S
C1455 C1457 1.561 . S
C1455 C1458 1.526 . S
C1456 H1440 0.959 . S
C1456 H1441 0.959 . S
C1456 H1442 0.961 . S
C1456 C1455 1.502 . S
C1457 H1443 0.960 . S
C1457 H1444 0.961 . S
C1457 H1445 0.959 . S
C1457 C1455 1.561 . S
C1458 C1455 1.526 . S
C1458 C1459 1.396 . S
C1458 C1463 1.390 . S
C1459 C1453 1.465 . S
C1459 C1458 1.396 . S
C1459 C1460 1.399 . S
C1460 H1446 0.929 . S
C1460 C1459 1.399 . S
C1460 C1461 1.385 . S
C1461 H1447 0.931 . S
C1461 C1460 1.385 . S
C1461 C1462 1.389 . S
C1462 C1461 1.389 . S
C1462 C1463 1.387 . S
C1463 H1448 0.930 . S
C1463 C1458 1.390 . S
C1463 C1462 1.387 . S
H1464 C1476 0.930 . S
H1465 C1478 0.930 . S
H1466 C1479 0.930 . S
H1467 C1483 0.959 . S
H1468 C1483 0.959 . S
H1469 C1483 0.961 . S
H1470 C1484 0.960 . S
H1471 C1484 0.961 . S
H1472 C1484 0.959 . S
H1473 C1487 0.929 . S
H1474 C1488 0.931 . S
H1475 C1490 0.930 . S
C1476 H1464 0.930 . S
C1476 C1477 1.399 . S
C1476 C1481 1.399 . S
C1477 C1476 1.399 . S
C1477 C1478 1.376 . S
C1478 H1465 0.930 . S
C1478 C1477 1.376 . S
C1478 C1479 1.388 . S
C1479 H1466 0.930 . S
C1479 C1478 1.388 . S
C1479 C1480 1.390 . S
C1480 C1479 1.390 . S
C1480 C1481 1.394 . S
C1480 C1486 1.465 . S
C1481 C1476 1.399 . S
C1481 C1480 1.394 . S
C1481 C1482 1.516 . S
C1482 C1481 1.516 . S
C1482 C1483 1.502 . S
C1482 C1484 1.561 . S
C1482 C1485 1.526 . S
C1483 H1467 0.959 . S
C1483 H1468 0.959 . S
C1483 H1469 0.961 . S
C1483 C1482 1.502 . S
C1484 H1470 0.960 . S
C1484 H1471 0.961 . S
C1484 H1472 0.959 . S
C1484 C1482 1.561 . S
C1485 C1482 1.526 . S
C1485 C1486 1.396 . S
C1485 C1490 1.390 . S
C1486 C1480 1.465 . S
C1486 C1485 1.396 . S
C1486 C1487 1.399 . S
C1487 H1473 0.929 . S
C1487 C1486 1.399 . S
C1487 C1488 1.385 . S
C1488 H1474 0.931 . S
C1488 C1487 1.385 . S
C1488 C1489 1.389 . S
C1489 C1488 1.389 . S
C1489 C1490 1.387 . S
C1490 H1475 0.930 . S
C1490 C1485 1.390 . S
C1490 C1489 1.387 . S
H1491 C1503 0.930 . S
H1492 C1505 0.930 . S
H1493 C1506 0.930 . S
H1494 C1510 0.959 . S
H1495 C1510 0.959 . S
H1496 C1510 0.961 . S
H1497 C1511 0.960 . S
H1498 C1511 0.961 . S
H1499 C1511 0.959 . S
H1500 C1514 0.929 . S
H1501 C1515 0.931 . S
H1502 C1517 0.930 . S
C1503 H1491 0.930 . S
C1503 C1504 1.399 . S
C1503 C1508 1.399 . S
C1504 C1503 1.399 . S
C1504 C1505 1.376 . S
C1505 H1492 0.930 . S
C1505 C1504 1.376 . S
C1505 C1506 1.388 . S
C1506 H1493 0.930 . S
C1506 C1505 1.388 . S
C1506 C1507 1.390 . S
C1507 C1506 1.390 . S
C1507 C1508 1.394 . S
C1507 C1513 1.465 . S
C1508 C1503 1.399 . S
C1508 C1507 1.394 . S
C1508 C1509 1.516 . S
C1509 C1508 1.516 . S
C1509 C1510 1.502 . S
C1509 C1511 1.561 . S
C1509 C1512 1.526 . S
C1510 H1494 0.959 . S
C1510 H1495 0.959 . S
C1510 H1496 0.961 . S
C1510 C1509 1.502 . S
C1511 H1497 0.960 . S
C1511 H1498 0.961 . S
C1511 H1499 0.959 . S
C1511 C1509 1.561 . S
C1512 C1509 1.526 . S
C1512 C1513 1.396 . S
C1512 C1517 1.390 . S
C1513 C1507 1.465 . S
C1513 C1512 1.396 . S
C1513 C1514 1.399 . S
C1514 H1500 0.929 . S
C1514 C1513 1.399 . S
C1514 C1515 1.385 . S
C1515 H1501 0.931 . S
C1515 C1514 1.385 . S
C1515 C1516 1.389 . S
C1516 C1515 1.389 . S
C1516 C1517 1.387 . S
C1517 H1502 0.930 . S
C1517 C1512 1.390 . S
C1517 C1516 1.387 . S
H1518 C1530 0.930 . S
H1519 C1532 0.930 . S
H1520 C1533 0.930 . S
H1521 C1537 0.959 . S
H1522 C1537 0.959 . S
H1523 C1537 0.961 . S
H1524 C1538 0.960 . S
H1525 C1538 0.961 . S
H1526 C1538 0.959 . S
H1527 C1541 0.929 . S
H1528 C1542 0.931 . S
H1529 C1544 0.930 . S
C1530 H1518 0.930 . S
C1530 C1531 1.399 . S
C1530 C1535 1.399 . S
C1531 C1530 1.399 . S
C1531 C1532 1.376 . S
C1532 H1519 0.930 . S
C1532 C1531 1.376 . S
C1532 C1533 1.388 . S
C1533 H1520 0.930 . S
C1533 C1532 1.388 . S
C1533 C1534 1.390 . S
C1534 C1533 1.390 . S
C1534 C1535 1.394 . S
C1534 C1540 1.465 . S
C1535 C1530 1.399 . S
C1535 C1534 1.394 . S
C1535 C1536 1.516 . S
C1536 C1535 1.516 . S
C1536 C1537 1.502 . S
C1536 C1538 1.561 . S
C1536 C1539 1.526 . S
C1537 H1521 0.959 . S
C1537 H1522 0.959 . S
C1537 H1523 0.961 . S
C1537 C1536 1.502 . S
C1538 H1524 0.960 . S
C1538 H1525 0.961 . S
C1538 H1526 0.959 . S
C1538 C1536 1.561 . S
C1539 C1536 1.526 . S
C1539 C1540 1.396 . S
C1539 C1544 1.390 . S
C1540 C1534 1.465 . S
C1540 C1539 1.396 . S
C1540 C1541 1.399 . S
C1541 H1527 0.929 . S
C1541 C1540 1.399 . S
C1541 C1542 1.385 . S
C1542 H1528 0.931 . S
C1542 C1541 1.385 . S
C1542 C1543 1.389 . S
C1543 C1542 1.389 . S
C1543 C1544 1.387 . S
C1544 H1529 0.930 . S
C1544 C1539 1.390 . S
C1544 C1543 1.387 . S
H1545 C1557 0.930 . S
H1546 C1559 0.930 . S
H1547 C1560 0.930 . S
H1548 C1564 0.959 . S
H1549 C1564 0.959 . S
H1550 C1564 0.961 . S
H1551 C1565 0.960 . S
H1552 C1565 0.961 . S
H1553 C1565 0.959 . S
H1554 C1568 0.929 . S
H1555 C1569 0.931 . S
H1556 C1571 0.930 . S
C1557 H1545 0.930 . S
C1557 C1558 1.399 . S
C1557 C1562 1.399 . S
C1558 C1557 1.399 . S
C1558 C1559 1.376 . S
C1559 H1546 0.930 . S
C1559 C1558 1.376 . S
C1559 C1560 1.388 . S
C1560 H1547 0.930 . S
C1560 C1559 1.388 . S
C1560 C1561 1.390 . S
C1561 C1560 1.390 . S
C1561 C1562 1.394 . S
C1561 C1567 1.465 . S
C1562 C1557 1.399 . S
C1562 C1561 1.394 . S
C1562 C1563 1.516 . S
C1563 C1562 1.516 . S
C1563 C1564 1.502 . S
C1563 C1565 1.561 . S
C1563 C1566 1.526 . S
C1564 H1548 0.959 . S
C1564 H1549 0.959 . S
C1564 H1550 0.961 . S
C1564 C1563 1.502 . S
C1565 H1551 0.960 . S
C1565 H1552 0.961 . S
C1565 H1553 0.959 . S
C1565 C1563 1.561 . S
C1566 C1563 1.526 . S
C1566 C1567 1.396 . S
C1566 C1571 1.390 . S
C1567 C1561 1.465 . S
C1567 C1566 1.396 . S
C1567 C1568 1.399 . S
C1568 H1554 0.929 . S
C1568 C1567 1.399 . S
C1568 C1569 1.385 . S
C1569 H1555 0.931 . S
C1569 C1568 1.385 . S
C1569 C1570 1.389 . S
C1570 C1569 1.389 . S
C1570 C1571 1.387 . S
C1571 H1556 0.930 . S
C1571 C1566 1.390 . S
C1571 C1570 1.387 . S
H1572 C1584 0.930 . S
H1573 C1586 0.930 . S
H1574 C1587 0.930 . S
H1575 C1591 0.959 . S
H1576 C1591 0.959 . S
H1577 C1591 0.961 . S
H1578 C1592 0.960 . S
H1579 C1592 0.961 . S
H1580 C1592 0.959 . S
H1581 C1595 0.929 . S
H1582 C1596 0.931 . S
H1583 C1598 0.930 . S
C1584 H1572 0.930 . S
C1584 C1585 1.399 . S
C1584 C1589 1.399 . S
C1585 C1584 1.399 . S
C1585 C1586 1.376 . S
C1586 H1573 0.930 . S
C1586 C1585 1.376 . S
C1586 C1587 1.388 . S
C1587 H1574 0.930 . S
C1587 C1586 1.388 . S
C1587 C1588 1.390 . S
C1588 C1587 1.390 . S
C1588 C1589 1.394 . S
C1588 C1594 1.465 . S
C1589 C1584 1.399 . S
C1589 C1588 1.394 . S
C1589 C1590 1.516 . S
C1590 C1589 1.516 . S
C1590 C1591 1.502 . S
C1590 C1592 1.561 . S
C1590 C1593 1.526 . S
C1591 H1575 0.959 . S
C1591 H1576 0.959 . S
C1591 H1577 0.961 . S
C1591 C1590 1.502 . S
C1592 H1578 0.960 . S
C1592 H1579 0.961 . S
C1592 H1580 0.959 . S
C1592 C1590 1.561 . S
C1593 C1590 1.526 . S
C1593 C1594 1.396 . S
C1593 C1598 1.390 . S
C1594 C1588 1.465 . S
C1594 C1593 1.396 . S
C1594 C1595 1.399 . S
C1595 H1581 0.929 . S
C1595 C1594 1.399 . S
C1595 C1596 1.385 . S
C1596 H1582 0.931 . S
C1596 C1595 1.385 . S
C1596 C1597 1.389 . S
C1597 C1596 1.389 . S
C1597 C1598 1.387 . S
C1598 H1583 0.930 . S
C1598 C1593 1.390 . S
C1598 C1597 1.387 . S
H1599 C1611 0.930 . S
H1600 C1613 0.930 . S
H1601 C1614 0.930 . S
H1602 C1618 0.959 . S
H1603 C1618 0.959 . S
H1604 C1618 0.961 . S
H1605 C1619 0.960 . S
H1606 C1619 0.961 . S
H1607 C1619 0.959 . S
H1608 C1622 0.929 . S
H1609 C1623 0.931 . S
H1610 C1625 0.930 . S
C1611 H1599 0.930 . S
C1611 C1612 1.399 . S
C1611 C1616 1.399 . S
C1612 C1611 1.399 . S
C1612 C1613 1.376 . S
C1613 H1600 0.930 . S
C1613 C1612 1.376 . S
C1613 C1614 1.388 . S
C1614 H1601 0.930 . S
C1614 C1613 1.388 . S
C1614 C1615 1.390 . S
C1615 C1614 1.390 . S
C1615 C1616 1.394 . S
C1615 C1621 1.465 . S
C1616 C1611 1.399 . S
C1616 C1615 1.394 . S
C1616 C1617 1.516 . S
C1617 C1616 1.516 . S
C1617 C1618 1.502 . S
C1617 C1619 1.561 . S
C1617 C1620 1.526 . S
C1618 H1602 0.959 . S
C1618 H1603 0.959 . S
C1618 H1604 0.961 . S
C1618 C1617 1.502 . S
C1619 H1605 0.960 . S
C1619 H1606 0.961 . S
C1619 H1607 0.959 . S
C1619 C1617 1.561 . S
C1620 C1617 1.526 . S
C1620 C1621 1.396 . S
C1620 C1625 1.390 . S
C1621 C1615 1.465 . S
C1621 C1620 1.396 . S
C1621 C1622 1.399 . S
C1622 H1608 0.929 . S
C1622 C1621 1.399 . S
C1622 C1623 1.385 . S
C1623 H1609 0.931 . S
C1623 C1622 1.385 . S
C1623 C1624 1.389 . S
C1624 C1623 1.389 . S
C1624 C1625 1.387 . S
C1625 H1610 0.930 . S
C1625 C1620 1.390 . S
C1625 C1624 1.387 . S
H1626 C1638 0.930 . S
H1627 C1640 0.930 . S
H1628 C1641 0.930 . S
H1629 C1645 0.959 . S
H1630 C1645 0.959 . S
H1631 C1645 0.961 . S
H1632 C1646 0.960 . S
H1633 C1646 0.961 . S
H1634 C1646 0.959 . S
H1635 C1649 0.929 . S
H1636 C1650 0.931 . S
H1637 C1652 0.930 . S
C1638 H1626 0.930 . S
C1638 C1639 1.399 . S
C1638 C1643 1.399 . S
C1639 C1638 1.399 . S
C1639 C1640 1.376 . S
C1640 H1627 0.930 . S
C1640 C1639 1.376 . S
C1640 C1641 1.388 . S
C1641 H1628 0.930 . S
C1641 C1640 1.388 . S
C1641 C1642 1.390 . S
C1642 C1641 1.390 . S
C1642 C1643 1.394 . S
C1642 C1648 1.465 . S
C1643 C1638 1.399 . S
C1643 C1642 1.394 . S
C1643 C1644 1.516 . S
C1644 C1643 1.516 . S
C1644 C1645 1.502 . S
C1644 C1646 1.561 . S
C1644 C1647 1.526 . S
C1645 H1629 0.959 . S
C1645 H1630 0.959 . S
C1645 H1631 0.961 . S
C1645 C1644 1.502 . S
C1646 H1632 0.960 . S
C1646 H1633 0.961 . S
C1646 H1634 0.959 . S
C1646 C1644 1.561 . S
C1647 C1644 1.526 . S
C1647 C1648 1.396 . S
C1647 C1652 1.390 . S
C1648 C1642 1.465 . S
C1648 C1647 1.396 . S
C1648 C1649 1.399 . S
C1649 H1635 0.929 . S
C1649 C1648 1.399 . S
C1649 C1650 1.385 . S
C1650 H1636 0.931 . S
C1650 C1649 1.385 . S
C1650 C1651 1.389 . S
C1651 C1650 1.389 . S
C1651 C1652 1.387 . S
C1652 H1637 0.930 . S
C1652 C1647 1.390 . S
C1652 C1651 1.387 . S
H1653 C1665 0.930 . S
H1654 C1667 0.930 . S
H1655 C1668 0.930 . S
H1656 C1672 0.959 . S
H1657 C1672 0.959 . S
H1658 C1672 0.961 . S
H1659 C1673 0.960 . S
H1660 C1673 0.961 . S
H1661 C1673 0.959 . S
H1662 C1676 0.929 . S
H1663 C1677 0.931 . S
H1664 C1679 0.930 . S
C1665 H1653 0.930 . S
C1665 C1666 1.399 . S
C1665 C1670 1.399 . S
C1666 C1665 1.399 . S
C1666 C1667 1.376 . S
C1667 H1654 0.930 . S
C1667 C1666 1.376 . S
C1667 C1668 1.388 . S
C1668 H1655 0.930 . S
C1668 C1667 1.388 . S
C1668 C1669 1.390 . S
C1669 C1668 1.390 . S
C1669 C1670 1.394 . S
C1669 C1675 1.465 . S
C1670 C1665 1.399 . S
C1670 C1669 1.394 . S
C1670 C1671 1.516 . S
C1671 C1670 1.516 . S
C1671 C1672 1.502 . S
C1671 C1673 1.561 . S
C1671 C1674 1.526 . S
C1672 H1656 0.959 . S
C1672 H1657 0.959 . S
C1672 H1658 0.961 . S
C1672 C1671 1.502 . S
C1673 H1659 0.960 . S
C1673 H1660 0.961 . S
C1673 H1661 0.959 . S
C1673 C1671 1.561 . S
C1674 C1671 1.526 . S
C1674 C1675 1.396 . S
C1674 C1679 1.390 . S
C1675 C1669 1.465 . S
C1675 C1674 1.396 . S
C1675 C1676 1.399 . S
C1676 H1662 0.929 . S
C1676 C1675 1.399 . S
C1676 C1677 1.385 . S
C1677 H1663 0.931 . S
C1677 C1676 1.385 . S
C1677 C1678 1.389 . S
C1678 C1677 1.389 . S
C1678 C1679 1.387 . S
C1679 H1664 0.930 . S
C1679 C1674 1.390 . S
C1679 C1678 1.387 . S
H1680 C1692 0.930 . S
H1681 C1694 0.930 . S
H1682 C1695 0.930 . S
H1683 C1699 0.959 . S
H1684 C1699 0.959 . S
H1685 C1699 0.961 . S
H1686 C1700 0.960 . S
H1687 C1700 0.961 . S
H1688 C1700 0.959 . S
H1689 C1703 0.929 . S
H1690 C1704 0.931 . S
H1691 C1706 0.930 . S
C1692 H1680 0.930 . S
C1692 C1693 1.399 . S
C1692 C1697 1.399 . S
C1693 C1692 1.399 . S
C1693 C1694 1.376 . S
C1694 H1681 0.930 . S
C1694 C1693 1.376 . S
C1694 C1695 1.388 . S
C1695 H1682 0.930 . S
C1695 C1694 1.388 . S
C1695 C1696 1.390 . S
C1696 C1695 1.390 . S
C1696 C1697 1.394 . S
C1696 C1702 1.465 . S
C1697 C1692 1.399 . S
C1697 C1696 1.394 . S
C1697 C1698 1.516 . S
C1698 C1697 1.516 . S
C1698 C1699 1.502 . S
C1698 C1700 1.561 . S
C1698 C1701 1.526 . S
C1699 H1683 0.959 . S
C1699 H1684 0.959 . S
C1699 H1685 0.961 . S
C1699 C1698 1.502 . S
C1700 H1686 0.960 . S
C1700 H1687 0.961 . S
C1700 H1688 0.959 . S
C1700 C1698 1.561 . S
C1701 C1698 1.526 . S
C1701 C1702 1.396 . S
C1701 C1706 1.390 . S
C1702 C1696 1.465 . S
C1702 C1701 1.396 . S
C1702 C1703 1.399 . S
C1703 H1689 0.929 . S
C1703 C1702 1.399 . S
C1703 C1704 1.385 . S
C1704 H1690 0.931 . S
C1704 C1703 1.385 . S
C1704 C1705 1.389 . S
C1705 C1704 1.389 . S
C1705 C1706 1.387 . S
C1706 H1691 0.930 . S
C1706 C1701 1.390 . S
C1706 C1705 1.387 . S
H1707 C1719 0.930 . S
H1708 C1721 0.930 . S
H1709 C1722 0.930 . S
H1710 C1726 0.959 . S
H1711 C1726 0.959 . S
H1712 C1726 0.961 . S
H1713 C1727 0.960 . S
H1714 C1727 0.961 . S
H1715 C1727 0.959 . S
H1716 C1730 0.929 . S
H1717 C1731 0.931 . S
H1718 C1733 0.930 . S
C1719 H1707 0.930 . S
C1719 C1720 1.399 . S
C1719 C1724 1.399 . S
C1720 C1719 1.399 . S
C1720 C1721 1.376 . S
C1721 H1708 0.930 . S
C1721 C1720 1.376 . S
C1721 C1722 1.388 . S
C1722 H1709 0.930 . S
C1722 C1721 1.388 . S
C1722 C1723 1.390 . S
C1723 C1722 1.390 . S
C1723 C1724 1.394 . S
C1723 C1729 1.465 . S
C1724 C1719 1.399 . S
C1724 C1723 1.394 . S
C1724 C1725 1.516 . S
C1725 C1724 1.516 . S
C1725 C1726 1.502 . S
C1725 C1727 1.561 . S
C1725 C1728 1.526 . S
C1726 H1710 0.959 . S
C1726 H1711 0.959 . S
C1726 H1712 0.961 . S
C1726 C1725 1.502 . S
C1727 H1713 0.960 . S
C1727 H1714 0.961 . S
C1727 H1715 0.959 . S
C1727 C1725 1.561 . S
C1728 C1725 1.526 . S
C1728 C1729 1.396 . S
C1728 C1733 1.390 . S
C1729 C1723 1.465 . S
C1729 C1728 1.396 . S
C1729 C1730 1.399 . S
C1730 H1716 0.929 . S
C1730 C1729 1.399 . S
C1730 C1731 1.385 . S
C1731 H1717 0.931 . S
C1731 C1730 1.385 . S
C1731 C1732 1.389 . S
C1732 C1731 1.389 . S
C1732 C1733 1.387 . S
C1733 H1718 0.930 . S
C1733 C1728 1.390 . S
C1733 C1732 1.387 . S
H1734 C1746 0.930 . S
H1735 C1748 0.930 . S
H1736 C1749 0.930 . S
H1737 C1753 0.959 . S
H1738 C1753 0.959 . S
H1739 C1753 0.961 . S
H1740 C1754 0.960 . S
H1741 C1754 0.961 . S
H1742 C1754 0.959 . S
H1743 C1757 0.929 . S
H1744 C1758 0.931 . S
H1745 C1760 0.930 . S
C1746 H1734 0.930 . S
C1746 C1747 1.399 . S
C1746 C1751 1.399 . S
C1747 C1746 1.399 . S
C1747 C1748 1.376 . S
C1748 H1735 0.930 . S
C1748 C1747 1.376 . S
C1748 C1749 1.388 . S
C1749 H1736 0.930 . S
C1749 C1748 1.388 . S
C1749 C1750 1.390 . S
C1750 C1749 1.390 . S
C1750 C1751 1.394 . S
C1750 C1756 1.465 . S
C1751 C1746 1.399 . S
C1751 C1750 1.394 . S
C1751 C1752 1.516 . S
C1752 C1751 1.516 . S
C1752 C1753 1.502 . S
C1752 C1754 1.561 . S
C1752 C1755 1.526 . S
C1753 H1737 0.959 . S
C1753 H1738 0.959 . S
C1753 H1739 0.961 . S
C1753 C1752 1.502 . S
C1754 H1740 0.960 . S
C1754 H1741 0.961 . S
C1754 H1742 0.959 . S
C1754 C1752 1.561 . S
C1755 C1752 1.526 . S
C1755 C1756 1.396 . S
C1755 C1760 1.390 . S
C1756 C1750 1.465 . S
C1756 C1755 1.396 . S
C1756 C1757 1.399 . S
C1757 H1743 0.929 . S
C1757 C1756 1.399 . S
C1757 C1758 1.385 . S
C1758 H1744 0.931 . S
C1758 C1757 1.385 . S
C1758 C1759 1.389 . S
C1759 C1758 1.389 . S
C1759 C1760 1.387 . S
C1760 H1745 0.930 . S
C1760 C1755 1.390 . S
C1760 C1759 1.387 . S
H1761 C1773 0.930 . S
H1762 C1775 0.930 . S
H1763 C1776 0.930 . S
H1764 C1780 0.959 . S
H1765 C1780 0.959 . S
H1766 C1780 0.961 . S
H1767 C1781 0.960 . S
H1768 C1781 0.961 . S
H1769 C1781 0.959 . S
H1770 C1784 0.929 . S
H1771 C1785 0.931 . S
H1772 C1787 0.930 . S
C1773 H1761 0.930 . S
C1773 C1774 1.399 . S
C1773 C1778 1.399 . S
C1774 C1773 1.399 . S
C1774 C1775 1.376 . S
C1775 H1762 0.930 . S
C1775 C1774 1.376 . S
C1775 C1776 1.388 . S
C1776 H1763 0.930 . S
C1776 C1775 1.388 . S
C1776 C1777 1.390 . S
C1777 C1776 1.390 . S
C1777 C1778 1.394 . S
C1777 C1783 1.465 . S
C1778 C1773 1.399 . S
C1778 C1777 1.394 . S
C1778 C1779 1.516 . S
C1779 C1778 1.516 . S
C1779 C1780 1.502 . S
C1779 C1781 1.561 . S
C1779 C1782 1.526 . S
C1780 H1764 0.959 . S
C1780 H1765 0.959 . S
C1780 H1766 0.961 . S
C1780 C1779 1.502 . S
C1781 H1767 0.960 . S
C1781 H1768 0.961 . S
C1781 H1769 0.959 . S
C1781 C1779 1.561 . S
C1782 C1779 1.526 . S
C1782 C1783 1.396 . S
C1782 C1787 1.390 . S
C1783 C1777 1.465 . S
C1783 C1782 1.396 . S
C1783 C1784 1.399 . S
C1784 H1770 0.929 . S
C1784 C1783 1.399 . S
C1784 C1785 1.385 . S
C1785 H1771 0.931 . S
C1785 C1784 1.385 . S
C1785 C1786 1.389 . S
C1786 C1785 1.389 . S
C1786 C1787 1.387 . S
C1787 H1772 0.930 . S
C1787 C1782 1.390 . S
C1787 C1786 1.387 . S
H1788 C1800 0.930 . S
H1789 C1802 0.930 . S
H1790 C1803 0.930 . S
H1791 C1807 0.959 . S
H1792 C1807 0.959 . S
H1793 C1807 0.961 . S
H1794 C1808 0.960 . S
H1795 C1808 0.961 . S
H1796 C1808 0.959 . S
H1797 C1811 0.929 . S
H1798 C1812 0.931 . S
H1799 C1814 0.930 . S
C1800 H1788 0.930 . S
C1800 C1801 1.399 . S
C1800 C1805 1.399 . S
C1801 C1800 1.399 . S
C1801 C1802 1.376 . S
C1802 H1789 0.930 . S
C1802 C1801 1.376 . S
C1802 C1803 1.388 . S
C1803 H1790 0.930 . S
C1803 C1802 1.388 . S
C1803 C1804 1.390 . S
C1804 C1803 1.390 . S
C1804 C1805 1.394 . S
C1804 C1810 1.465 . S
C1805 C1800 1.399 . S
C1805 C1804 1.394 . S
C1805 C1806 1.516 . S
C1806 C1805 1.516 . S
C1806 C1807 1.502 . S
C1806 C1808 1.561 . S
C1806 C1809 1.526 . S
C1807 H1791 0.959 . S
C1807 H1792 0.959 . S
C1807 H1793 0.961 . S
C1807 C1806 1.502 . S
C1808 H1794 0.960 . S
C1808 H1795 0.961 . S
C1808 H1796 0.959 . S
C1808 C1806 1.561 . S
C1809 C1806 1.526 . S
C1809 C1810 1.396 . S
C1809 C1814 1.390 . S
C1810 C1804 1.465 . S
C1810 C1809 1.396 . S
C1810 C1811 1.399 . S
C1811 H1797 0.929 . S
C1811 C1810 1.399 . S
C1811 C1812 1.385 . S
C1812 H1798 0.931 . S
C1812 C1811 1.385 . S
C1812 C1813 1.389 . S
C1813 C1812 1.389 . S
C1813 C1814 1.387 . S
C1814 H1799 0.930 . S
C1814 C1809 1.390 . S
C1814 C1813 1.387 . S
H1815 C1827 0.930 . S
H1816 C1829 0.930 . S
H1817 C1830 0.930 . S
H1818 C1834 0.959 . S
H1819 C1834 0.959 . S
H1820 C1834 0.961 . S
H1821 C1835 0.960 . S
H1822 C1835 0.961 . S
H1823 C1835 0.959 . S
H1824 C1838 0.929 . S
H1825 C1839 0.931 . S
H1826 C1841 0.930 . S
C1827 H1815 0.930 . S
C1827 C1828 1.399 . S
C1827 C1832 1.399 . S
C1828 C1827 1.399 . S
C1828 C1829 1.376 . S
C1829 H1816 0.930 . S
C1829 C1828 1.376 . S
C1829 C1830 1.388 . S
C1830 H1817 0.930 . S
C1830 C1829 1.388 . S
C1830 C1831 1.390 . S
C1831 C1830 1.390 . S
C1831 C1832 1.394 . S
C1831 C1837 1.465 . S
C1832 C1827 1.399 . S
C1832 C1831 1.394 . S
C1832 C1833 1.516 . S
C1833 C1832 1.516 . S
C1833 C1834 1.502 . S
C1833 C1835 1.561 . S
C1833 C1836 1.526 . S
C1834 H1818 0.959 . S
C1834 H1819 0.959 . S
C1834 H1820 0.961 . S
C1834 C1833 1.502 . S
C1835 H1821 0.960 . S
C1835 H1822 0.961 . S
C1835 H1823 0.959 . S
C1835 C1833 1.561 . S
C1836 C1833 1.526 . S
C1836 C1837 1.396 . S
C1836 C1841 1.390 . S
C1837 C1831 1.465 . S
C1837 C1836 1.396 . S
C1837 C1838 1.399 . S
C1838 H1824 0.929 . S
C1838 C1837 1.399 . S
C1838 C1839 1.385 . S
C1839 H1825 0.931 . S
C1839 C1838 1.385 . S
C1839 C1840 1.389 . S
C1840 C1839 1.389 . S
C1840 C1841 1.387 . S
C1841 H1826 0.930 . S
C1841 C1836 1.390 . S
C1841 C1840 1.387 . S
H1842 C1854 0.930 . S
H1843 C1856 0.930 . S
H1844 C1857 0.930 . S
H1845 C1861 0.959 . S
H1846 C1861 0.959 . S
H1847 C1861 0.961 . S
H1848 C1862 0.960 . S
H1849 C1862 0.961 . S
H1850 C1862 0.959 . S
H1851 C1865 0.929 . S
H1852 C1866 0.931 . S
H1853 C1868 0.930 . S
C1854 H1842 0.930 . S
C1854 C1855 1.399 . S
C1854 C1859 1.399 . S
C1855 C1854 1.399 . S
C1855 C1856 1.376 . S
C1856 H1843 0.930 . S
C1856 C1855 1.376 . S
C1856 C1857 1.388 . S
C1857 H1844 0.930 . S
C1857 C1856 1.388 . S
C1857 C1858 1.390 . S
C1858 C1857 1.390 . S
C1858 C1859 1.394 . S
C1858 C1864 1.465 . S
C1859 C1854 1.399 . S
C1859 C1858 1.394 . S
C1859 C1860 1.516 . S
C1860 C1859 1.516 . S
C1860 C1861 1.502 . S
C1860 C1862 1.561 . S
C1860 C1863 1.526 . S
C1861 H1845 0.959 . S
C1861 H1846 0.959 . S
C1861 H1847 0.961 . S
C1861 C1860 1.502 . S
C1862 H1848 0.960 . S
C1862 H1849 0.961 . S
C1862 H1850 0.959 . S
C1862 C1860 1.561 . S
C1863 C1860 1.526 . S
C1863 C1864 1.396 . S
C1863 C1868 1.390 . S
C1864 C1858 1.465 . S
C1864 C1863 1.396 . S
C1864 C1865 1.399 . S
C1865 H1851 0.929 . S
C1865 C1864 1.399 . S
C1865 C1866 1.385 . S
C1866 H1852 0.931 . S
C1866 C1865 1.385 . S
C1866 C1867 1.389 . S
C1867 C1866 1.389 . S
C1867 C1868 1.387 . S
C1868 H1853 0.930 . S
C1868 C1863 1.390 . S
C1868 C1867 1.387 . S
H1869 C1881 0.930 . S
H1870 C1883 0.930 . S
H1871 C1884 0.930 . S
H1872 C1888 0.959 . S
H1873 C1888 0.959 . S
H1874 C1888 0.961 . S
H1875 C1889 0.960 . S
H1876 C1889 0.961 . S
H1877 C1889 0.959 . S
H1878 C1892 0.929 . S
H1879 C1893 0.931 . S
H1880 C1895 0.930 . S
C1881 H1869 0.930 . S
C1881 C1882 1.399 . S
C1881 C1886 1.399 . S
C1882 C1881 1.399 . S
C1882 C1883 1.376 . S
C1883 H1870 0.930 . S
C1883 C1882 1.376 . S
C1883 C1884 1.388 . S
C1884 H1871 0.930 . S
C1884 C1883 1.388 . S
C1884 C1885 1.390 . S
C1885 C1884 1.390 . S
C1885 C1886 1.394 . S
C1885 C1891 1.465 . S
C1886 C1881 1.399 . S
C1886 C1885 1.394 . S
C1886 C1887 1.516 . S
C1887 C1886 1.516 . S
C1887 C1888 1.502 . S
C1887 C1889 1.561 . S
C1887 C1890 1.526 . S
C1888 H1872 0.959 . S
C1888 H1873 0.959 . S
C1888 H1874 0.961 . S
C1888 C1887 1.502 . S
C1889 H1875 0.960 . S
C1889 H1876 0.961 . S
C1889 H1877 0.959 . S
C1889 C1887 1.561 . S
C1890 C1887 1.526 . S
C1890 C1891 1.396 . S
C1890 C1895 1.390 . S
C1891 C1885 1.465 . S
C1891 C1890 1.396 . S
C1891 C1892 1.399 . S
C1892 H1878 0.929 . S
C1892 C1891 1.399 . S
C1892 C1893 1.385 . S
C1893 H1879 0.931 . S
C1893 C1892 1.385 . S
C1893 C1894 1.389 . S
C1894 C1893 1.389 . S
C1894 C1895 1.387 . S
C1895 H1880 0.930 . S
C1895 C1890 1.390 . S
C1895 C1894 1.387 . S
H1896 C1908 0.930 . S
H1897 C1910 0.930 . S
H1898 C1911 0.930 . S
H1899 C1915 0.959 . S
H1900 C1915 0.959 . S
H1901 C1915 0.961 . S
H1902 C1916 0.960 . S
H1903 C1916 0.961 . S
H1904 C1916 0.959 . S
H1905 C1919 0.929 . S
H1906 C1920 0.931 . S
H1907 C1922 0.930 . S
C1908 H1896 0.930 . S
C1908 C1909 1.399 . S
C1908 C1913 1.399 . S
C1909 C1908 1.399 . S
C1909 C1910 1.376 . S
C1910 H1897 0.930 . S
C1910 C1909 1.376 . S
C1910 C1911 1.388 . S
C1911 H1898 0.930 . S
C1911 C1910 1.388 . S
C1911 C1912 1.390 . S
C1912 C1911 1.390 . S
C1912 C1913 1.394 . S
C1912 C1918 1.465 . S
C1913 C1908 1.399 . S
C1913 C1912 1.394 . S
C1913 C1914 1.516 . S
C1914 C1913 1.516 . S
C1914 C1915 1.502 . S
C1914 C1916 1.561 . S
C1914 C1917 1.526 . S
C1915 H1899 0.959 . S
C1915 H1900 0.959 . S
C1915 H1901 0.961 . S
C1915 C1914 1.502 . S
C1916 H1902 0.960 . S
C1916 H1903 0.961 . S
C1916 H1904 0.959 . S
C1916 C1914 1.561 . S
C1917 C1914 1.526 . S
C1917 C1918 1.396 . S
C1917 C1922 1.390 . S
C1918 C1912 1.465 . S
C1918 C1917 1.396 . S
C1918 C1919 1.399 . S
C1919 H1905 0.929 . S
C1919 C1918 1.399 . S
C1919 C1920 1.385 . S
C1920 H1906 0.931 . S
C1920 C1919 1.385 . S
C1920 C1921 1.389 . S
C1921 C1920 1.389 . S
C1921 C1922 1.387 . S
C1922 H1907 0.930 . S
C1922 C1917 1.390 . S
C1922 C1921 1.387 . S
H1923 C1935 0.930 . S
H1924 C1937 0.930 . S
H1925 C1938 0.930 . S
H1926 C1942 0.959 . S
H1927 C1942 0.959 . S
H1928 C1942 0.961 . S
H1929 C1943 0.960 . S
H1930 C1943 0.961 . S
H1931 C1943 0.959 . S
H1932 C1946 0.929 . S
H1933 C1947 0.931 . S
H1934 C1949 0.930 . S
C1935 H1923 0.930 . S
C1935 C1936 1.399 . S
C1935 C1940 1.399 . S
C1936 C1935 1.399 . S
C1936 C1937 1.376 . S
C1937 H1924 0.930 . S
C1937 C1936 1.376 . S
C1937 C1938 1.388 . S
C1938 H1925 0.930 . S
C1938 C1937 1.388 . S
C1938 C1939 1.390 . S
C1939 C1938 1.390 . S
C1939 C1940 1.394 . S
C1939 C1945 1.465 . S
C1940 C1935 1.399 . S
C1940 C1939 1.394 . S
C1940 C1941 1.516 . S
C1941 C1940 1.516 . S
C1941 C1942 1.502 . S
C1941 C1943 1.561 . S
C1941 C1944 1.526 . S
C1942 H1926 0.959 . S
C1942 H1927 0.959 . S
C1942 H1928 0.961 . S
C1942 C1941 1.502 . S
C1943 H1929 0.960 . S
C1943 H1930 0.961 . S
C1943 H1931 0.959 . S
C1943 C1941 1.561 . S
C1944 C1941 1.526 . S
C1944 C1945 1.396 . S
C1944 C1949 1.390 . S
C1945 C1939 1.465 . S
C1945 C1944 1.396 . S
C1945 C1946 1.399 . S
C1946 H1932 0.929 . S
C1946 C1945 1.399 . S
C1946 C1947 1.385 . S
C1947 H1933 0.931 . S
C1947 C1946 1.385 . S
C1947 C1948 1.389 . S
C1948 C1947 1.389 . S
C1948 C1949 1.387 . S
C1949 H1934 0.930 . S
C1949 C1944 1.390 . S
C1949 C1948 1.387 . S
H1950 C1962 0.930 . S
H1951 C1964 0.930 . S
H1952 C1965 0.930 . S
H1953 C1969 0.959 . S
H1954 C1969 0.959 . S
H1955 C1969 0.961 . S
H1956 C1970 0.960 . S
H1957 C1970 0.961 . S
H1958 C1970 0.959 . S
H1959 C1973 0.929 . S
H1960 C1974 0.931 . S
H1961 C1976 0.930 . S
C1962 H1950 0.930 . S
C1962 C1963 1.399 . S
C1962 C1967 1.399 . S
C1963 C1962 1.399 . S
C1963 C1964 1.376 . S
C1964 H1951 0.930 . S
C1964 C1963 1.376 . S
C1964 C1965 1.388 . S
C1965 H1952 0.930 . S
C1965 C1964 1.388 . S
C1965 C1966 1.390 . S
C1966 C1965 1.390 . S
C1966 C1967 1.394 . S
C1966 C1972 1.465 . S
C1967 C1962 1.399 . S
C1967 C1966 1.394 . S
C1967 C1968 1.516 . S
C1968 C1967 1.516 . S
C1968 C1969 1.502 . S
C1968 C1970 1.561 . S
C1968 C1971 1.526 . S
C1969 H1953 0.959 . S
C1969 H1954 0.959 . S
C1969 H1955 0.961 . S
C1969 C1968 1.502 . S
C1970 H1956 0.960 . S
C1970 H1957 0.961 . S
C1970 H1958 0.959 . S
C1970 C1968 1.561 . S
C1971 C1968 1.526 . S
C1971 C1972 1.396 . S
C1971 C1976 1.390 . S
C1972 C1966 1.465 . S
C1972 C1971 1.396 . S
C1972 C1973 1.399 . S
C1973 H1959 0.929 . S
C1973 C1972 1.399 . S
C1973 C1974 1.385 . S
C1974 H1960 0.931 . S
C1974 C1973 1.385 . S
C1974 C1975 1.389 . S
C1975 C1974 1.389 . S
C1975 C1976 1.387 . S
C1976 H1961 0.930 . S
C1976 C1971 1.390 . S
C1976 C1975 1.387 . S
H1977 C1989 0.930 . S
H1978 C1991 0.930 . S
H1979 C1992 0.930 . S
H1980 C1996 0.959 . S
H1981 C1996 0.959 . S
H1982 C1996 0.961 . S
H1983 C1997 0.960 . S
H1984 C1997 0.961 . S
H1985 C1997 0.959 . S
H1986 C2000 0.929 . S
H1987 C2001 0.931 . S
H1988 C2003 0.930 . S
C1989 H1977 0.930 . S
C1989 C1990 1.399 . S
C1989 C1994 1.399 . S
C1990 C1989 1.399 . S
C1990 C1991 1.376 . S
C1991 H1978 0.930 . S
C1991 C1990 1.376 . S
C1991 C1992 1.388 . S
C1992 H1979 0.930 . S
C1992 C1991 1.388 . S
C1992 C1993 1.390 . S
C1993 C1992 1.390 . S
C1993 C1994 1.394 . S
C1993 C1999 1.465 . S
C1994 C1989 1.399 . S
C1994 C1993 1.394 . S
C1994 C1995 1.516 . S
C1995 C1994 1.516 . S
C1995 C1996 1.502 . S
C1995 C1997 1.561 . S
C1995 C1998 1.526 . S
C1996 H1980 0.959 . S
C1996 H1981 0.959 . S
C1996 H1982 0.961 . S
C1996 C1995 1.502 . S
C1997 H1983 0.960 . S
C1997 H1984 0.961 . S
C1997 H1985 0.959 . S
C1997 C1995 1.561 . S
C1998 C1995 1.526 . S
C1998 C1999 1.396 . S
C1998 C2003 1.390 . S
C1999 C1993 1.465 . S
C1999 C1998 1.396 . S
C1999 C2000 1.399 . S
C2000 H1986 0.929 . S
C2000 C1999 1.399 . S
C2000 C2001 1.385 . S
C2001 H1987 0.931 . S
C2001 C2000 1.385 . S
C2001 C2002 1.389 . S
C2002 C2001 1.389 . S
C2002 C2003 1.387 . S
C2003 H1988 0.930 . S
C2003 C1998 1.390 . S
C2003 C2002 1.387 . S
H2004 C2016 0.930 . S
H2005 C2018 0.930 . S
H2006 C2019 0.930 . S
H2007 C2023 0.959 . S
H2008 C2023 0.959 . S
H2009 C2023 0.961 . S
H2010 C2024 0.960 . S
H2011 C2024 0.961 . S
H2012 C2024 0.959 . S
H2013 C2027 0.929 . S
H2014 C2028 0.931 . S
H2015 C2030 0.930 . S
C2016 H2004 0.930 . S
C2016 C2017 1.399 . S
C2016 C2021 1.399 . S
C2017 C2016 1.399 . S
C2017 C2018 1.376 . S
C2018 H2005 0.930 . S
C2018 C2017 1.376 . S
C2018 C2019 1.388 . S
C2019 H2006 0.930 . S
C2019 C2018 1.388 . S
C2019 C2020 1.390 . S
C2020 C2019 1.390 . S
C2020 C2021 1.394 . S
C2020 C2026 1.465 . S
C2021 C2016 1.399 . S
C2021 C2020 1.394 . S
C2021 C2022 1.516 . S
C2022 C2021 1.516 . S
C2022 C2023 1.502 . S
C2022 C2024 1.561 . S
C2022 C2025 1.526 . S
C2023 H2007 0.959 . S
C2023 H2008 0.959 . S
C2023 H2009 0.961 . S
C2023 C2022 1.502 . S
C2024 H2010 0.960 . S
C2024 H2011 0.961 . S
C2024 H2012 0.959 . S
C2024 C2022 1.561 . S
C2025 C2022 1.526 . S
C2025 C2026 1.396 . S
C2025 C2030 1.390 . S
C2026 C2020 1.465 . S
C2026 C2025 1.396 . S
C2026 C2027 1.399 . S
C2027 H2013 0.929 . S
C2027 C2026 1.399 . S
C2027 C2028 1.385 . S
C2028 H2014 0.931 . S
C2028 C2027 1.385 . S
C2028 C2029 1.389 . S
C2029 C2028 1.389 . S
C2029 C2030 1.387 . S
C2030 H2015 0.930 . S
C2030 C2025 1.390 . S
C2030 C2029 1.387 . S
H2031 C2043 0.930 . S
H2032 C2045 0.930 . S
H2033 C2046 0.930 . S
H2034 C2050 0.959 . S
H2035 C2050 0.959 . S
H2036 C2050 0.961 . S
H2037 C2051 0.960 . S
H2038 C2051 0.961 . S
H2039 C2051 0.959 . S
H2040 C2054 0.929 . S
H2041 C2055 0.931 . S
H2042 C2057 0.930 . S
C2043 H2031 0.930 . S
C2043 C2044 1.399 . S
C2043 C2048 1.399 . S
C2044 C2043 1.399 . S
C2044 C2045 1.376 . S
C2045 H2032 0.930 . S
C2045 C2044 1.376 . S
C2045 C2046 1.388 . S
C2046 H2033 0.930 . S
C2046 C2045 1.388 . S
C2046 C2047 1.390 . S
C2047 C2046 1.390 . S
C2047 C2048 1.394 . S
C2047 C2053 1.465 . S
C2048 C2043 1.399 . S
C2048 C2047 1.394 . S
C2048 C2049 1.516 . S
C2049 C2048 1.516 . S
C2049 C2050 1.502 . S
C2049 C2051 1.561 . S
C2049 C2052 1.526 . S
C2050 H2034 0.959 . S
C2050 H2035 0.959 . S
C2050 H2036 0.961 . S
C2050 C2049 1.502 . S
C2051 H2037 0.960 . S
C2051 H2038 0.961 . S
C2051 H2039 0.959 . S
C2051 C2049 1.561 . S
C2052 C2049 1.526 . S
C2052 C2053 1.396 . S
C2052 C2057 1.390 . S
C2053 C2047 1.465 . S
C2053 C2052 1.396 . S
C2053 C2054 1.399 . S
C2054 H2040 0.929 . S
C2054 C2053 1.399 . S
C2054 C2055 1.385 . S
C2055 H2041 0.931 . S
C2055 C2054 1.385 . S
C2055 C2056 1.389 . S
C2056 C2055 1.389 . S
C2056 C2057 1.387 . S
C2057 H2042 0.930 . S
C2057 C2052 1.390 . S
C2057 C2056 1.387 . S
H2058 C2070 0.930 . S
H2059 C2072 0.930 . S
H2060 C2073 0.930 . S
H2061 C2077 0.959 . S
H2062 C2077 0.959 . S
H2063 C2077 0.961 . S
H2064 C2078 0.960 . S
H2065 C2078 0.961 . S
H2066 C2078 0.959 . S
H2067 C2081 0.929 . S
H2068 C2082 0.931 . S
H2069 C2084 0.930 . S
C2070 H2058 0.930 . S
C2070 C2071 1.399 . S
C2070 C2075 1.399 . S
C2071 C2070 1.399 . S
C2071 C2072 1.376 . S
C2072 H2059 0.930 . S
C2072 C2071 1.376 . S
C2072 C2073 1.388 . S
C2073 H2060 0.930 . S
C2073 C2072 1.388 . S
C2073 C2074 1.390 . S
C2074 C2073 1.390 . S
C2074 C2075 1.394 . S
C2074 C2080 1.465 . S
C2075 C2070 1.399 . S
C2075 C2074 1.394 . S
C2075 C2076 1.516 . S
C2076 C2075 1.516 . S
C2076 C2077 1.502 . S
C2076 C2078 1.561 . S
C2076 C2079 1.526 . S
C2077 H2061 0.959 . S
C2077 H2062 0.959 . S
C2077 H2063 0.961 . S
C2077 C2076 1.502 . S
C2078 H2064 0.960 . S
C2078 H2065 0.961 . S
C2078 H2066 0.959 . S
C2078 C2076 1.561 . S
C2079 C2076 1.526 . S
C2079 C2080 1.396 . S
C2079 C2084 1.390 . S
C2080 C2074 1.465 . S
C2080 C2079 1.396 . S
C2080 C2081 1.399 . S
C2081 H2067 0.929 . S
C2081 C2080 1.399 . S
C2081 C2082 1.385 . S
C2082 H2068 0.931 . S
C2082 C2081 1.385 . S
C2082 C2083 1.389 . S
C2083 C2082 1.389 . S
C2083 C2084 1.387 . S
C2084 H2069 0.930 . S
C2084 C2079 1.390 . S
C2084 C2083 1.387 . S
H2085 C2097 0.930 . S
H2086 C2099 0.930 . S
H2087 C2100 0.930 . S
H2088 C2104 0.959 . S
H2089 C2104 0.959 . S
H2090 C2104 0.961 . S
H2091 C2105 0.960 . S
H2092 C2105 0.961 . S
H2093 C2105 0.959 . S
H2094 C2108 0.929 . S
H2095 C2109 0.931 . S
H2096 C2111 0.930 . S
C2097 H2085 0.930 . S
C2097 C2098 1.399 . S
C2097 C2102 1.399 . S
C2098 C2097 1.399 . S
C2098 C2099 1.376 . S
C2099 H2086 0.930 . S
C2099 C2098 1.376 . S
C2099 C2100 1.388 . S
C2100 H2087 0.930 . S
C2100 C2099 1.388 . S
C2100 C2101 1.390 . S
C2101 C2100 1.390 . S
C2101 C2102 1.394 . S
C2101 C2107 1.465 . S
C2102 C2097 1.399 . S
C2102 C2101 1.394 . S
C2102 C2103 1.516 . S
C2103 C2102 1.516 . S
C2103 C2104 1.502 . S
C2103 C2105 1.561 . S
C2103 C2106 1.526 . S
C2104 H2088 0.959 . S
C2104 H2089 0.959 . S
C2104 H2090 0.961 . S
C2104 C2103 1.502 . S
C2105 H2091 0.960 . S
C2105 H2092 0.961 . S
C2105 H2093 0.959 . S
C2105 C2103 1.561 . S
C2106 C2103 1.526 . S
C2106 C2107 1.396 . S
C2106 C2111 1.390 . S
C2107 C2101 1.465 . S
C2107 C2106 1.396 . S
C2107 C2108 1.399 . S
C2108 H2094 0.929 . S
C2108 C2107 1.399 . S
C2108 C2109 1.385 . S
C2109 H2095 0.931 . S
C2109 C2108 1.385 . S
C2109 C2110 1.389 . S
C2110 C2109 1.389 . S
C2110 C2111 1.387 . S
C2111 H2096 0.930 . S
C2111 C2106 1.390 . S
C2111 C2110 1.387 . S
H2112 C2124 0.930 . S
H2113 C2126 0.930 . S
H2114 C2127 0.930 . S
H2115 C2131 0.959 . S
H2116 C2131 0.959 . S
H2117 C2131 0.961 . S
H2118 C2132 0.960 . S
H2119 C2132 0.961 . S
H2120 C2132 0.959 . S
H2121 C2135 0.929 . S
H2122 C2136 0.931 . S
H2123 C2138 0.930 1_655 S
C2124 H2112 0.930 . S
C2124 C2125 1.399 . S
C2124 C2129 1.399 . S
C2125 C2124 1.399 . S
C2125 C2126 1.376 . S
C2126 H2113 0.930 . S
C2126 C2125 1.376 . S
C2126 C2127 1.388 . S
C2127 H2114 0.930 . S
C2127 C2126 1.388 . S
C2127 C2128 1.390 . S
C2128 C2127 1.390 . S
C2128 C2129 1.394 . S
C2128 C2134 1.465 . S
C2129 C2124 1.399 . S
C2129 C2128 1.394 . S
C2129 C2130 1.516 . S
C2130 C2129 1.516 . S
C2130 C2131 1.502 1_455 S
C2130 C2132 1.561 . S
C2130 C2133 1.526 . S
C2131 H2115 0.959 . S
C2131 H2116 0.959 . S
C2131 H2117 0.961 . S
C2131 C2130 1.502 1_655 S
C2132 H2118 0.960 . S
C2132 H2119 0.961 . S
C2132 H2120 0.959 . S
C2132 C2130 1.561 . S
C2133 C2130 1.526 . S
C2133 C2134 1.396 . S
C2133 C2138 1.390 . S
C2134 C2128 1.465 . S
C2134 C2133 1.396 . S
C2134 C2135 1.399 . S
C2135 H2121 0.929 . S
C2135 C2134 1.399 . S
C2135 C2136 1.385 . S
C2136 H2122 0.931 . S
C2136 C2135 1.385 . S
C2136 C2137 1.389 . S
C2137 C2136 1.389 . S
C2137 C2138 1.387 . S
C2138 H2123 0.930 1_455 S
C2138 C2133 1.390 . S
C2138 C2137 1.387 . S
H2139 C2151 0.930 . S
H2140 C2153 0.924 1_655 S
H2141 C2154 0.930 . S
H2142 C2158 0.959 . S
H2143 C2158 0.959 . S
H2144 C2158 0.961 . S
H2145 C2159 0.960 . S
H2146 C2159 0.961 . S
H2147 C2159 0.959 1_655 S
H2148 C2162 0.929 . S
H2149 C2163 0.931 . S
H2150 C2165 0.930 . S
C2151 H2139 0.930 . S
C2151 C2152 1.399 . S
C2151 C2156 1.399 . S
C2152 C2151 1.399 . S
C2152 C2153 1.376 . S
C2153 H2140 0.924 1_455 S
C2153 C2152 1.376 . S
C2153 C2154 1.388 1_455 S
C2154 H2141 0.930 . S
C2154 C2153 1.388 1_655 S
C2154 C2155 1.390 1_655 S
C2155 C2154 1.390 1_455 S
C2155 C2156 1.394 . S
C2155 C2161 1.465 . S
C2156 C2151 1.399 . S
C2156 C2155 1.394 . S
C2156 C2157 1.516 . S
C2157 C2156 1.516 . S
C2157 C2158 1.502 . S
C2157 C2159 1.561 . S
C2157 C2160 1.526 . S
C2158 H2142 0.959 . S
C2158 H2143 0.959 . S
C2158 H2144 0.961 . S
C2158 C2157 1.502 . S
C2159 H2145 0.960 . S
C2159 H2146 0.961 . S
C2159 H2147 0.959 1_455 S
C2159 C2157 1.561 . S
C2160 C2157 1.526 . S
C2160 C2161 1.396 . S
C2160 C2165 1.390 . S
C2161 C2155 1.465 . S
C2161 C2160 1.396 . S
C2161 C2162 1.399 1_455 S
C2162 H2148 0.929 . S
C2162 C2161 1.399 1_655 S
C2162 C2163 1.385 . S
C2163 H2149 0.931 . S
C2163 C2162 1.385 . S
C2163 C2164 1.389 1_655 S
C2164 C2163 1.389 1_455 S
C2164 C2165 1.387 . S
C2165 H2150 0.930 . S
C2165 C2160 1.390 . S
C2165 C2164 1.387 . S
H2166 C2178 0.935 . S
H2167 C2180 0.930 . S
H2168 C2181 0.930 . S
H2169 C2185 0.959 . S
H2170 C2185 0.959 . S
H2171 C2185 0.961 . S
H2172 C2186 0.960 . S
H2173 C2186 0.961 . S
H2174 C2186 0.959 . S
H2175 C2189 0.929 . S
H2176 C2190 0.931 . S
H2177 C2192 0.930 . S
C2178 H2166 0.935 . S
C2178 C2179 1.394 1_565 S
C2178 C2183 1.399 1_565 S
C2179 C2178 1.394 1_545 S
C2179 C2180 1.376 . S
C2180 H2167 0.930 . S
C2180 C2179 1.376 . S
C2180 C2181 1.388 . S
C2181 H2168 0.930 . S
C2181 C2180 1.388 . S
C2181 C2182 1.390 . S
C2182 C2181 1.390 . S
C2182 C2183 1.394 . S
C2182 C2188 1.465 . S
C2183 C2178 1.399 1_545 S
C2183 C2182 1.394 . S
C2183 C2184 1.516 1_545 S
C2184 C2183 1.516 1_565 S
C2184 C2185 1.502 . S
C2184 C2186 1.561 . S
C2184 C2187 1.526 . S
C2185 H2169 0.959 . S
C2185 H2170 0.959 . S
C2185 H2171 0.961 . S
C2185 C2184 1.502 . S
C2186 H2172 0.960 . S
C2186 H2173 0.961 . S
C2186 H2174 0.959 . S
C2186 C2184 1.561 . S
C2187 C2184 1.526 . S
C2187 C2188 1.396 1_565 S
C2187 C2192 1.390 . S
C2188 C2182 1.465 . S
C2188 C2187 1.396 1_545 S
C2188 C2189 1.399 . S
C2189 H2175 0.929 . S
C2189 C2188 1.399 . S
C2189 C2190 1.385 . S
C2190 H2176 0.931 . S
C2190 C2189 1.385 . S
C2190 C2191 1.389 . S
C2191 C2190 1.389 . S
C2191 C2192 1.387 1_545 S
C2192 H2177 0.930 . S
C2192 C2187 1.390 . S
C2192 C2191 1.387 1_565 S
H2193 C2205 0.930 . S
H2194 C2207 0.951 . S
H2195 C2208 0.930 . S
H2196 C2212 0.959 . S
H2197 C2212 0.959 . S
H2198 C2212 0.961 . S
H2199 C2213 0.960 . S
H2200 C2213 0.961 . S
H2201 C2213 0.959 1_565 S
H2202 C2216 0.929 . S
H2203 C2217 0.931 . S
H2204 C2219 0.930 . S
C2205 H2193 0.930 . S
C2205 C2206 1.399 . S
C2205 C2210 1.399 . S
C2206 C2205 1.399 . S
C2206 C2207 1.345 1_545 S
C2207 H2194 0.951 . S
C2207 C2206 1.345 1_565 S
C2207 C2208 1.402 . S
C2208 H2195 0.930 . S
C2208 C2207 1.402 . S
C2208 C2209 1.390 1_565 S
C2209 C2208 1.390 1_545 S
C2209 C2210 1.394 . S
C2209 C2215 1.461 1_545 S
C2210 C2205 1.399 . S
C2210 C2209 1.394 . S
C2210 C2211 1.516 . S
C2211 C2210 1.516 . S
C2211 C2212 1.502 . S
C2211 C2213 1.561 . S
C2211 C2214 1.526 . S
C2212 H2196 0.959 . S
C2212 H2197 0.959 . S
C2212 H2198 0.961 . S
C2212 C2211 1.502 . S
C2213 H2199 0.960 . S
C2213 H2200 0.961 . S
C2213 H2201 0.959 1_545 S
C2213 C2211 1.561 . S
C2214 C2211 1.526 . S
C2214 C2215 1.372 1_545 S
C2214 C2219 1.390 . S
C2215 C2209 1.461 1_565 S
C2215 C2214 1.372 1_565 S
C2215 C2216 1.424 . S
C2216 H2202 0.929 . S
C2216 C2215 1.424 . S
C2216 C2217 1.385 . S
C2217 H2203 0.931 . S
C2217 C2216 1.385 . S
C2217 C2218 1.375 1_565 S
C2218 C2217 1.375 1_545 S
C2218 C2219 1.401 . S
C2219 H2204 0.930 . S
C2219 C2214 1.390 . S
C2219 C2218 1.401 . S
H2220 C2232 0.930 . S
H2221 C2234 0.930 . S
H2222 C2235 0.930 1_556 S
H2223 C2239 0.959 . S
H2224 C2239 0.959 . S
H2225 C2239 0.961 . S
H2226 C2240 0.960 . S
H2227 C2240 0.961 . S
H2228 C2240 0.959 . S
H2229 C2243 0.929 . S
H2230 C2244 0.931 . S
H2231 C2246 0.930 . S
C2232 H2220 0.930 . S
C2232 C2233 1.399 . S
C2232 C2237 1.399 . S
C2233 C2232 1.399 . S
C2233 C2234 1.376 . S
C2234 H2221 0.930 . S
C2234 C2233 1.376 . S
C2234 C2235 1.388 . S
C2235 H2222 0.930 1_554 S
C2235 C2234 1.388 . S
C2235 C2236 1.390 . S
C2236 C2235 1.390 . S
C2236 C2237 1.394 . S
C2236 C2242 1.465 . S
C2237 C2232 1.399 . S
C2237 C2236 1.394 . S
C2237 C2238 1.516 . S
C2238 C2237 1.516 . S
C2238 C2239 1.502 . S
C2238 C2240 1.561 1_554 S
C2238 C2241 1.526 . S
C2239 H2223 0.959 . S
C2239 H2224 0.959 . S
C2239 H2225 0.961 . S
C2239 C2238 1.502 . S
C2240 H2226 0.960 . S
C2240 H2227 0.961 . S
C2240 H2228 0.959 . S
C2240 C2238 1.561 1_556 S
C2241 C2238 1.526 . S
C2241 C2242 1.396 . S
C2241 C2246 1.390 . S
C2242 C2236 1.465 . S
C2242 C2241 1.396 . S
C2242 C2243 1.399 1_554 S
C2243 H2229 0.929 . S
C2243 C2242 1.399 1_556 S
C2243 C2244 1.385 . S
C2244 H2230 0.931 . S
C2244 C2243 1.385 . S
C2244 C2245 1.389 1_556 S
C2245 C2244 1.389 1_554 S
C2245 C2246 1.387 . S
C2246 H2231 0.930 . S
C2246 C2241 1.390 . S
C2246 C2245 1.387 . S
H2247 C2259 0.930 . S
H2248 C2261 0.938 . S
H2249 C2262 0.950 . S
H2250 C2266 0.959 . S
H2251 C2266 0.959 . S
H2252 C2266 0.961 . S
H2253 C2267 0.957 1_554 S
H2254 C2267 0.959 1_554 S
H2255 C2267 0.977 . S
H2256 C2270 0.929 . S
H2257 C2271 0.931 . S
H2258 C2273 0.930 . S
C2259 H2247 0.930 . S
C2259 C2260 1.399 . S
C2259 C2264 1.399 . S
C2260 C2259 1.399 . S
C2260 C2261 1.376 . S
C2261 H2248 0.938 . S
C2261 C2260 1.376 . S
C2261 C2262 1.379 1_554 S
C2262 H2249 0.950 . S
C2262 C2261 1.379 1_556 S
C2262 C2263 1.381 1_556 S
C2263 C2262 1.381 1_554 S
C2263 C2264 1.394 . S
C2263 C2269 1.465 . S
C2264 C2259 1.399 . S
C2264 C2263 1.394 . S
C2264 C2265 1.516 . S
C2265 C2264 1.516 . S
C2265 C2266 1.502 . S
C2265 C2267 1.549 1_554 S
C2265 C2268 1.526 . S
C2266 H2250 0.959 . S
C2266 H2251 0.959 . S
C2266 H2252 0.961 . S
C2266 C2265 1.502 . S
C2267 H2253 0.957 1_556 S
C2267 H2254 0.959 1_556 S
C2267 H2255 0.977 . S
C2267 C2265 1.549 1_556 S
C2268 C2265 1.526 . S
C2268 C2269 1.396 . S
C2268 C2273 1.390 . S
C2269 C2263 1.465 . S
C2269 C2268 1.396 . S
C2269 C2270 1.399 1_554 S
C2270 H2256 0.929 . S
C2270 C2269 1.399 1_556 S
C2270 C2271 1.385 . S
C2271 H2257 0.931 . S
C2271 C2270 1.385 . S
C2271 C2272 1.389 1_556 S
C2272 C2271 1.389 1_554 S
C2272 C2273 1.387 . S
C2273 H2258 0.930 . S
C2273 C2268 1.390 . S
C2273 C2272 1.387 . S
H2274 C2286 0.930 . S
H2275 C2288 0.930 . S
H2276 C2289 0.930 . S
H2277 C2293 0.959 . S
H2278 C2293 0.959 1_565 S
H2279 C2293 0.961 . S
H2280 C2294 0.960 . S
H2281 C2294 0.961 1_565 S
H2282 C2294 0.959 . S
H2283 C2297 0.929 . S
H2284 C2298 0.931 . S
H2285 C2300 0.930 . S
C2286 H2274 0.930 . S
C2286 C2287 1.399 . S
C2286 C2291 1.399 . S
C2287 C2286 1.399 . S
C2287 C2288 1.376 . S
C2288 H2275 0.930 . S
C2288 C2287 1.376 . S
C2288 C2289 1.388 . S
C2289 H2276 0.930 . S
C2289 C2288 1.388 . S
C2289 C2290 1.390 . S
C2290 C2289 1.390 . S
C2290 C2291 1.394 . S
C2290 C2296 1.465 1_545 S
C2291 C2286 1.399 . S
C2291 C2290 1.394 . S
C2291 C2292 1.516 . S
C2292 C2291 1.516 . S
C2292 C2293 1.502 . S
C2292 C2294 1.561 . S
C2292 C2295 1.526 1_545 S
C2293 H2277 0.959 . S
C2293 H2278 0.959 1_545 S
C2293 H2279 0.961 . S
C2293 C2292 1.502 . S
C2294 H2280 0.960 . S
C2294 H2281 0.961 1_545 S
C2294 H2282 0.959 . S
C2294 C2292 1.561 . S
C2295 C2292 1.526 1_565 S
C2295 C2296 1.396 . S
C2295 C2300 1.390 . S
C2296 C2290 1.465 1_565 S
C2296 C2295 1.396 . S
C2296 C2297 1.399 . S
C2297 H2283 0.929 . S
C2297 C2296 1.399 . S
C2297 C2298 1.385 . S
C2298 H2284 0.931 . S
C2298 C2297 1.385 . S
C2298 C2299 1.389 . S
C2299 C2298 1.389 . S
C2299 C2300 1.387 . S
C2300 H2285 0.930 . S
C2300 C2295 1.390 . S
C2300 C2299 1.387 . S
H2301 C2313 0.930 . S
H2302 C2315 0.930 . S
H2303 C2316 0.930 . S
H2304 C2320 0.959 . S
H2305 C2320 0.959 . S
H2306 C2320 0.961 . S
H2307 C2321 0.960 1_565 S
H2308 C2321 0.961 . S
H2309 C2321 0.959 . S
H2310 C2324 0.929 . S
H2311 C2325 0.931 . S
H2312 C2327 0.930 . S
C2313 H2301 0.930 . S
C2313 C2314 1.399 . S
C2313 C2318 1.399 . S
C2314 C2313 1.399 . S
C2314 C2315 1.376 . S
C2315 H2302 0.930 . S
C2315 C2314 1.376 . S
C2315 C2316 1.388 . S
C2316 H2303 0.930 . S
C2316 C2315 1.388 . S
C2316 C2317 1.390 . S
C2317 C2316 1.390 . S
C2317 C2318 1.394 . S
C2317 C2323 1.465 1_565 S
C2318 C2313 1.399 . S
C2318 C2317 1.394 . S
C2318 C2319 1.516 1_565 S
C2319 C2318 1.516 1_545 S
C2319 C2320 1.502 . S
C2319 C2321 1.561 . S
C2319 C2322 1.526 . S
C2320 H2304 0.959 . S
C2320 H2305 0.959 . S
C2320 H2306 0.961 . S
C2320 C2319 1.502 . S
C2321 H2307 0.960 1_545 S
C2321 H2308 0.961 . S
C2321 H2309 0.959 . S
C2321 C2319 1.561 . S
C2322 C2319 1.526 . S
C2322 C2323 1.396 . S
C2322 C2327 1.390 . S
C2323 C2317 1.465 1_545 S
C2323 C2322 1.396 . S
C2323 C2324 1.399 . S
C2324 H2310 0.929 . S
C2324 C2323 1.399 . S
C2324 C2325 1.385 . S
C2325 H2311 0.931 . S
C2325 C2324 1.385 . S
C2325 C2326 1.389 . S
C2326 C2325 1.389 . S
C2326 C2327 1.387 . S
C2327 H2312 0.930 . S
C2327 C2322 1.390 . S
C2327 C2326 1.387 . S
H2328 C2340 0.930 . S
H2329 C2342 0.930 . S
H2330 C2343 0.930 . S
H2331 C2347 0.959 . S
H2332 C2347 0.959 . S
H2333 C2347 0.961 . S
H2334 C2348 0.960 . S
H2335 C2348 0.961 . S
H2336 C2348 0.959 . S
H2337 C2351 0.929 . S
H2338 C2352 0.931 . S
H2339 C2354 0.930 . S
C2340 H2328 0.930 . S
C2340 C2341 1.399 . S
C2340 C2345 1.399 . S
C2341 C2340 1.399 . S
C2341 C2342 1.376 . S
C2342 H2329 0.930 . S
C2342 C2341 1.376 . S
C2342 C2343 1.388 . S
C2343 H2330 0.930 . S
C2343 C2342 1.388 . S
C2343 C2344 1.390 . S
C2344 C2343 1.390 . S
C2344 C2345 1.394 . S
C2344 C2350 1.465 1_554 S
C2345 C2340 1.399 . S
C2345 C2344 1.394 . S
C2345 C2346 1.516 . S
C2346 C2345 1.516 . S
C2346 C2347 1.502 . S
C2346 C2348 1.561 . S
C2346 C2349 1.526 1_554 S
C2347 H2331 0.959 . S
C2347 H2332 0.959 . S
C2347 H2333 0.961 . S
C2347 C2346 1.502 . S
C2348 H2334 0.960 . S
C2348 H2335 0.961 . S
C2348 H2336 0.959 . S
C2348 C2346 1.561 . S
C2349 C2346 1.526 1_556 S
C2349 C2350 1.396 . S
C2349 C2354 1.390 . S
C2350 C2344 1.465 1_556 S
C2350 C2349 1.396 . S
C2350 C2351 1.399 . S
C2351 H2337 0.929 . S
C2351 C2350 1.399 . S
C2351 C2352 1.385 . S
C2352 H2338 0.931 . S
C2352 C2351 1.385 . S
C2352 C2353 1.389 . S
C2353 C2352 1.389 . S
C2353 C2354 1.387 . S
C2354 H2339 0.930 . S
C2354 C2349 1.390 . S
C2354 C2353 1.387 . S
H2355 C2367 0.930 . S
H2356 C2369 0.930 . S
H2357 C2370 0.930 . S
H2358 C2374 0.959 . S
H2359 C2374 0.959 . S
H2360 C2374 0.961 . S
H2361 C2375 0.960 . S
H2362 C2375 0.961 . S
H2363 C2375 0.959 . S
H2364 C2378 0.929 . S
H2365 C2379 0.931 . S
H2366 C2381 0.930 . S
C2367 H2355 0.930 . S
C2367 C2368 1.399 . S
C2367 C2372 1.399 . S
C2368 C2367 1.399 . S
C2368 C2369 1.376 . S
C2369 H2356 0.930 . S
C2369 C2368 1.376 . S
C2369 C2370 1.388 . S
C2370 H2357 0.930 . S
C2370 C2369 1.388 . S
C2370 C2371 1.390 . S
C2371 C2370 1.390 . S
C2371 C2372 1.394 . S
C2371 C2377 1.465 1_556 S
C2372 C2367 1.399 . S
C2372 C2371 1.394 . S
C2372 C2373 1.516 1_556 S
C2373 C2372 1.516 1_554 S
C2373 C2374 1.502 . S
C2373 C2375 1.561 . S
C2373 C2376 1.526 . S
C2374 H2358 0.959 . S
C2374 H2359 0.959 . S
C2374 H2360 0.961 . S
C2374 C2373 1.502 . S
C2375 H2361 0.960 . S
C2375 H2362 0.961 . S
C2375 H2363 0.959 . S
C2375 C2373 1.561 . S
C2376 C2373 1.526 . S
C2376 C2377 1.396 . S
C2376 C2381 1.390 . S
C2377 C2371 1.465 1_554 S
C2377 C2376 1.396 . S
C2377 C2378 1.399 . S
C2378 H2364 0.929 . S
C2378 C2377 1.399 . S
C2378 C2379 1.385 . S
C2379 H2365 0.931 . S
C2379 C2378 1.385 . S
C2379 C2380 1.389 . S
C2380 C2379 1.389 . S
C2380 C2381 1.387 . S
C2381 H2366 0.930 . S
C2381 C2376 1.390 . S
C2381 C2380 1.387 . S
H2382 C2394 0.930 . S
H2383 C2396 0.930 . S
H2384 C2397 0.930 . S
H2385 C2401 0.959 . S
H2386 C2401 0.959 . S
H2387 C2401 0.979 . S
H2388 C2402 0.960 1_655 S
H2389 C2402 0.961 . S
H2390 C2402 0.959 . S
H2391 C2405 0.929 . S
H2392 C2406 0.931 . S
H2393 C2408 0.930 . S
C2394 H2382 0.930 . S
C2394 C2395 1.399 . S
C2394 C2399 1.399 . S
C2395 C2394 1.399 . S
C2395 C2396 1.376 . S
C2396 H2383 0.930 . S
C2396 C2395 1.376 . S
C2396 C2397 1.388 . S
C2397 H2384 0.930 . S
C2397 C2396 1.388 . S
C2397 C2398 1.390 . S
C2398 C2397 1.390 . S
C2398 C2399 1.394 . S
C2398 C2404 1.465 1_655 S
C2399 C2394 1.399 . S
C2399 C2398 1.394 . S
C2399 C2400 1.516 1_655 S
C2400 C2399 1.516 1_455 S
C2400 C2401 1.502 . S
C2400 C2402 1.561 . S
C2400 C2403 1.526 . S
C2401 H2385 0.959 . S
C2401 H2386 0.959 . S
C2401 H2387 0.979 . S
C2401 C2400 1.502 . S
C2402 H2388 0.960 1_455 S
C2402 H2389 0.961 . S
C2402 H2390 0.959 . S
C2402 C2400 1.561 . S
C2403 C2400 1.526 . S
C2403 C2404 1.396 . S
C2403 C2408 1.390 . S
C2404 C2398 1.465 1_455 S
C2404 C2403 1.396 . S
C2404 C2405 1.399 . S
C2405 H2391 0.929 . S
C2405 C2404 1.399 . S
C2405 C2406 1.385 . S
C2406 H2392 0.931 . S
C2406 C2405 1.385 . S
C2406 C2407 1.389 . S
C2407 C2406 1.389 . S
C2407 C2408 1.387 . S
C2408 H2393 0.930 . S
C2408 C2403 1.390 . S
C2408 C2407 1.387 . S
H2409 C2421 0.930 . S
H2410 C2423 0.930 . S
H2411 C2424 0.930 . S
H2412 C2428 0.959 . S
H2413 C2428 0.975 . S
H2414 C2428 0.961 . S
H2415 C2429 0.960 . S
H2416 C2429 0.961 1_655 S
H2417 C2429 0.959 . S
H2418 C2432 0.929 . S
H2419 C2433 0.931 . S
H2420 C2435 0.930 . S
C2421 H2409 0.930 . S
C2421 C2422 1.399 . S
C2421 C2426 1.399 . S
C2422 C2421 1.399 . S
C2422 C2423 1.376 . S
C2423 H2410 0.930 . S
C2423 C2422 1.376 . S
C2423 C2424 1.388 . S
C2424 H2411 0.930 . S
C2424 C2423 1.388 . S
C2424 C2425 1.390 . S
C2425 C2424 1.390 . S
C2425 C2426 1.394 . S
C2425 C2431 1.465 1_455 S
C2426 C2421 1.399 . S
C2426 C2425 1.394 . S
C2426 C2427 1.516 . S
C2427 C2426 1.516 . S
C2427 C2428 1.502 . S
C2427 C2429 1.561 . S
C2427 C2430 1.526 1_455 S
C2428 H2412 0.959 . S
C2428 H2413 0.975 . S
C2428 H2414 0.961 . S
C2428 C2427 1.502 . S
C2429 H2415 0.960 . S
C2429 H2416 0.961 1_455 S
C2429 H2417 0.959 . S
C2429 C2427 1.561 . S
C2430 C2427 1.526 1_655 S
C2430 C2431 1.396 . S
C2430 C2435 1.390 . S
C2431 C2425 1.465 1_655 S
C2431 C2430 1.396 . S
C2431 C2432 1.399 . S
C2432 H2418 0.929 . S
C2432 C2431 1.399 . S
C2432 C2433 1.385 . S
C2433 H2419 0.931 . S
C2433 C2432 1.385 . S
C2433 C2434 1.389 . S
C2434 C2433 1.389 . S
C2434 C2435 1.387 . S
C2435 H2420 0.930 . S
C2435 C2430 1.390 . S
C2435 C2434 1.387 . S
C829 C9 0.596 . S
C841 C787 0.606 . S
C856 C43 0.660 . S
C868 C685 0.675 . S
C883 C77 0.696 . S
C895 C753 0.562 . S
C910 C111 0.707 . S
C922 C719 0.561 . S
C937 C481 0.550 . S
C949 C145 0.736 . S
C964 C179 0.797 . S
C976 C515 0.605 . S
C991 C413 0.550 . S
C1003 C213 0.740 . S
C1018 C447 0.675 . S
C1030 C247 0.555 . S
C1045 C651 0.578 . S
C1057 C281 0.652 . S
C1072 C315 0.540 . S
C1084 C583 0.665 . S
C1099 C549 0.598 . S
C1111 C349 0.801 . S
C1126 C383 0.804 . S
C1138 C617 0.561 . S
C1153 C88 2.164 . S
C1165 C682 2.136 . S
C1180 C122 2.164 . S
C1192 C784 2.135 . S
C1207 C716 2.135 . S
C1219 C20 2.165 . S
C1234 C750 2.101 . S
C1246 C54 2.177 . S
C1261 C410 2.090 . S
C1273 C258 2.194 . S
C1288 C444 2.106 . S
C1300 C224 2.174 . S
C1315 C478 2.153 . S
C1327 C190 2.176 . S
C1342 C156 2.173 . S
C1354 C512 2.110 . S
C1369 C394 2.172 . S
C1381 C546 2.112 . S
C1396 C614 2.113 . S
C1408 C360 2.202 . S
C1423 C326 2.182 . S
C1435 C648 2.097 . S
C1450 C580 2.114 . S
C1462 C292 2.204 . S
C1477 C417 0.606 . S
C1489 C379 0.601 . S
C1504 C277 0.548 . S
C1516 C451 0.778 . S
C1531 C345 0.577 . S
C1543 C485 0.807 . S
C1558 C311 0.676 . S
C1570 C519 0.557 . S
C1585 C73 0.574 . S
C1597 C553 0.807 . S
C1612 C107 0.548 . S
C1624 C587 0.776 . S
C1639 C5 0.550 . S
C1651 C621 0.787 . S
C1666 C655 0.808 . S
C1678 C39 0.581 . S
C1693 C689 0.688 . S
C1705 C243 0.667 . S
C1720 C723 0.808 . S
C1732 C175 0.564 . S
C1747 C141 0.648 . S
C1759 C757 0.738 . S
C1774 C791 0.809 . S
C1786 C209 0.568 . S
C1801 C274 2.091 . S
C1813 C496 2.197 . S
C1828 C376 2.090 . S
C1840 C530 2.194 . S
C1855 C308 2.153 . S
C1867 C428 2.175 . S
C1882 C462 2.203 . S
C1894 C342 2.118 . S
C1909 C2 2.095 . S
C1921 C666 2.184 . S
C1936 C36 2.092 . S
C1948 C632 2.192 . S
C1963 C70 2.136 . S
C1975 C598 2.195 . S
C1990 C564 2.164 . S
C2002 C104 2.145 . S
C2017 C802 2.194 . S
C2029 C138 2.091 . S
C2044 C768 2.204 . S
C2056 C206 2.115 . S
C2071 C240 2.095 . S
C2083 C734 2.184 . S
C2098 C700 2.191 . S
C2110 C172 2.095 . S
C2125 C33 1.487 . S
C2137 C67 1.481 1_455 S
C2152 C101 1.505 . S
C2164 C135 1.512 1_455 S
C2179 C169 1.511 . S
C2191 C237 1.501 1_545 S
C2206 C271 1.502 . S
C2218 C203 1.510 1_545 S
C2233 C305 1.507 . S
C2245 C373 1.512 1_554 S
C2260 C407 1.506 . S
C2272 C339 1.512 1_554 S
C2287 C475 1.486 . S
C2299 C441 1.483 . S
C2314 C543 1.504 . S
C2326 C509 1.511 . S
C2341 C645 1.511 . S
C2353 C577 1.503 . S
C2368 C611 1.485 . S
C2380 C679 1.494 . S
C2395 C713 1.505 . S
C2407 C781 1.512 . S
C2422 C815 1.490 . S
C2434 C747 1.484 . S
