# Generated by pormake.
# Topology umd, (4)-cn, num edge types: 1
# Building blocks:
#     Node 0, Type 0, BuildingBlock: QUQFOY_clean_sbu_3, # of connection points: 4
#     Node 1, Type 0, BuildingBlock: QUQFOY_clean_sbu_3, # of connection points: 4
#     Node 2, Type 0, BuildingBlock: QUQFOY_clean_sbu_3, # of connection points: 4
#     Node 3, Type 0, BuildingBlock: QUQFOY_clean_sbu_3, # of connection points: 4
#     Node 4, Type 0, BuildingBlock: QUQFOY_clean_sbu_3, # of connection points: 4
#     Node 5, Type 0, BuildingBlock: QUQFOY_clean_sbu_3, # of connection points: 4
#     Node 6, Type 0, BuildingBlock: QUQFOY_clean_sbu_3, # of connection points: 4
#     Node 7, Type 0, BuildingBlock: QUQFOY_clean_sbu_3, # of connection points: 4
#     Node 8, Type 0, BuildingBlock: QUQFOY_clean_sbu_3, # of connection points: 4
#     Node 9, Type 0, BuildingBlock: QUQFOY_clean_sbu_3, # of connection points: 4
#     Node 10, Type 0, BuildingBlock: QUQFOY_clean_sbu_3, # of connection points: 4
#     Node 11, Type 0, BuildingBlock: QUQFOY_clean_sbu_3, # of connection points: 4
#     Node 12, Type 0, BuildingBlock: QUQFOY_clean_sbu_3, # of connection points: 4
#     Node 13, Type 0, BuildingBlock: QUQFOY_clean_sbu_3, # of connection points: 4
#     Node 14, Type 0, BuildingBlock: QUQFOY_clean_sbu_3, # of connection points: 4
#     Node 15, Type 0, BuildingBlock: QUQFOY_clean_sbu_3, # of connection points: 4
#     Edge 16, Type (0, 0), BuildingBlock: EZIPEK_clean_linker_0, # of connection points: 2
#     Edge 17, Type (0, 0), BuildingBlock: EZIPEK_clean_linker_0, # of connection points: 2
#     Edge 18, Type (0, 0), BuildingBlock: EZIPEK_clean_linker_0, # of connection points: 2
#     Edge 19, Type (0, 0), BuildingBlock: EZIPEK_clean_linker_0, # of connection points: 2
#     Edge 20, Type (0, 0), BuildingBlock: EZIPEK_clean_linker_0, # of connection points: 2
#     Edge 21, Type (0, 0), BuildingBlock: EZIPEK_clean_linker_0, # of connection points: 2
#     Edge 22, Type (0, 0), BuildingBlock: EZIPEK_clean_linker_0, # of connection points: 2
#     Edge 23, Type (0, 0), BuildingBlock: EZIPEK_clean_linker_0, # of connection points: 2
#     Edge 24, Type (0, 0), BuildingBlock: EZIPEK_clean_linker_0, # of connection points: 2
#     Edge 25, Type (0, 0), BuildingBlock: EZIPEK_clean_linker_0, # of connection points: 2
#     Edge 26, Type (0, 0), BuildingBlock: EZIPEK_clean_linker_0, # of connection points: 2
#     Edge 27, Type (0, 0), BuildingBlock: EZIPEK_clean_linker_0, # of connection points: 2
#     Edge 28, Type (0, 0), BuildingBlock: EZIPEK_clean_linker_0, # of connection points: 2
#     Edge 29, Type (0, 0), BuildingBlock: EZIPEK_clean_linker_0, # of connection points: 2
#     Edge 30, Type (0, 0), BuildingBlock: EZIPEK_clean_linker_0, # of connection points: 2
#     Edge 31, Type (0, 0), BuildingBlock: EZIPEK_clean_linker_0, # of connection points: 2
#     Edge 32, Type (0, 0), BuildingBlock: EZIPEK_clean_linker_0, # of connection points: 2
#     Edge 33, Type (0, 0), BuildingBlock: EZIPEK_clean_linker_0, # of connection points: 2
#     Edge 34, Type (0, 0), BuildingBlock: EZIPEK_clean_linker_0, # of connection points: 2
#     Edge 35, Type (0, 0), BuildingBlock: EZIPEK_clean_linker_0, # of connection points: 2
#     Edge 36, Type (0, 0), BuildingBlock: EZIPEK_clean_linker_0, # of connection points: 2
#     Edge 37, Type (0, 0), BuildingBlock: EZIPEK_clean_linker_0, # of connection points: 2
#     Edge 38, Type (0, 0), BuildingBlock: EZIPEK_clean_linker_0, # of connection points: 2
#     Edge 39, Type (0, 0), BuildingBlock: EZIPEK_clean_linker_0, # of connection points: 2
#     Edge 40, Type (0, 0), BuildingBlock: EZIPEK_clean_linker_0, # of connection points: 2
#     Edge 41, Type (0, 0), BuildingBlock: EZIPEK_clean_linker_0, # of connection points: 2
#     Edge 42, Type (0, 0), BuildingBlock: EZIPEK_clean_linker_0, # of connection points: 2
#     Edge 43, Type (0, 0), BuildingBlock: EZIPEK_clean_linker_0, # of connection points: 2
#     Edge 44, Type (0, 0), BuildingBlock: EZIPEK_clean_linker_0, # of connection points: 2
#     Edge 45, Type (0, 0), BuildingBlock: EZIPEK_clean_linker_0, # of connection points: 2
#     Edge 46, Type (0, 0), BuildingBlock: EZIPEK_clean_linker_0, # of connection points: 2
#     Edge 47, Type (0, 0), BuildingBlock: EZIPEK_clean_linker_0, # of connection points: 2
# Relax obj value: 0.098
# Max RMSD: 0.236
# Mean RMSD: 0.236
data_MOF--net-umd--node1-QUQFOY_clean_sbu_3--edge1-EZIPEK_clean_linker_0
_symmetry_space_group_name_H-M    P1
_symmetry_Int_Tables_number       1
_symmetry_cell_setting            triclinic
loop_
_symmetry_equiv_pos_as_xyz
'x, y, z'
_cell_length_a     29.881305
_cell_length_b     29.680332
_cell_length_c     43.549391
_cell_angle_alpha  89.892128
_cell_angle_beta   89.736411
_cell_angle_gamma 90.188385
loop_
_atom_site_label
_atom_site_type_symbol
_atom_site_fract_x
_atom_site_fract_y
_atom_site_fract_z
_atom_type_partial_charge
C0 C 0.19932 0.51027 0.16024 0.0
O1 O 0.19789 0.54883 0.1477 0.0
Cd2 Cd 0.18039 0.5558 0.09396 0.0
O3 O 0.19607 0.47458 0.14441 0.0
Cd4 Cd 0.19089 0.45121 0.09082 0.0
C5 C 0.08552 0.49005 0.09219 0.0
O6 O 0.2299 0.51183 0.06239 0.0
O7 O 0.18496 0.46759 0.03739 0.0
O8 O 0.25522 0.40413 0.09979 0.0
C9 C 0.21426 0.49852 0.03686 0.0
O10 O 0.10314 0.52907 0.09022 0.0
C11 C 0.23728 0.36777 0.09073 0.0
O12 O 0.10941 0.45471 0.0944 0.0
O13 O 0.19669 0.36939 0.08215 0.0
C14 C 0.46907 0.20325 0.65399 0.0
O15 O 0.43004 0.20265 0.64268 0.0
Cd16 Cd 0.41994 0.18504 0.58932 0.0
O17 O 0.5034 0.19958 0.63688 0.0
Cd18 Cd 0.52138 0.19481 0.58185 0.0
C19 C 0.48293 0.08876 0.58321 0.0
O20 O 0.46022 0.23687 0.55672 0.0
O21 O 0.49958 0.19047 0.52924 0.0
O22 O 0.57087 0.2586 0.58795 0.0
C23 C 0.47084 0.22168 0.53045 0.0
O24 O 0.44429 0.10669 0.58381 0.0
C25 C 0.6055 0.23941 0.57741 0.0
O26 O 0.51834 0.11269 0.58382 0.0
O27 O 0.60187 0.19845 0.56932 0.0
C28 C 0.77527 0.46434 0.15955 0.0
O29 O 0.7741 0.42591 0.14691 0.0
Cd30 Cd 0.79499 0.4197 0.0936 0.0
O31 O 0.7815 0.49973 0.14369 0.0
Cd32 Cd 0.78873 0.522 0.08983 0.0
C33 C 0.89261 0.48096 0.09219 0.0
O34 O 0.74796 0.46389 0.06043 0.0
O35 O 0.79738 0.50521 0.0366 0.0
O36 O 0.72461 0.57011 0.09645 0.0
C37 C 0.76574 0.47678 0.03532 0.0
O38 O 0.87375 0.44252 0.09063 0.0
C39 C 0.74406 0.60636 0.08855 0.0
O40 O 0.86985 0.51707 0.09375 0.0
O41 O 0.78545 0.60423 0.08178 0.0
C42 C 0.50107 0.7769 0.65503 0.0
O43 O 0.54087 0.77892 0.64491 0.0
Cd44 Cd 0.55448 0.79861 0.59196 0.0
O45 O 0.46798 0.78116 0.63711 0.0
Cd46 Cd 0.45369 0.78816 0.58199 0.0
C47 C 0.49136 0.89444 0.58463 0.0
O48 O 0.51683 0.74865 0.55703 0.0
O49 O 0.47822 0.79641 0.53018 0.0
O50 O 0.40603 0.7224 0.58333 0.0
C51 C 0.50735 0.76552 0.53103 0.0
O52 O 0.5301 0.8768 0.58584 0.0
C53 C 0.37066 0.74234 0.57499 0.0
O54 O 0.45613 0.87018 0.58451 0.0
O55 O 0.37319 0.78444 0.56983 0.0
C56 C 0.19755 0.47946 0.29065 0.0
O57 O 0.19581 0.43955 0.301 0.0
Cd58 Cd 0.17643 0.42719 0.35397 0.0
O59 O 0.19388 0.51308 0.30845 0.0
Cd60 Cd 0.18897 0.52831 0.3637 0.0
C61 C 0.08258 0.4932 0.36074 0.0
O62 O 0.2279 0.4642 0.38812 0.0
O63 O 0.18191 0.50387 0.41572 0.0
O64 O 0.25471 0.57542 0.35941 0.0
C65 C 0.2121 0.47408 0.41438 0.0
O66 O 0.09927 0.45383 0.35937 0.0
C67 C 0.23664 0.61093 0.3697 0.0
O68 O 0.1075 0.52806 0.36144 0.0
O69 O 0.19556 0.60876 0.37727 0.0
C70 C 0.50065 0.19951 0.78461 0.0
O71 O 0.53954 0.1948 0.7957 0.0
Cd72 Cd 0.54935 0.17948 0.8498 0.0
O73 O 0.46636 0.19858 0.80188 0.0
Cd74 Cd 0.44632 0.19028 0.85582 0.0
C75 C 0.4854 0.08404 0.8536 0.0
O76 O 0.50762 0.22954 0.88275 0.0
O77 O 0.46474 0.18393 0.90876 0.0
O78 O 0.3983 0.2544 0.8483 0.0
C79 C 0.49528 0.21362 0.90858 0.0
O80 O 0.52415 0.10172 0.85557 0.0
C81 C 0.36278 0.2356 0.85798 0.0
O82 O 0.45039 0.10818 0.85117 0.0
O83 O 0.36531 0.19468 0.86649 0.0
C84 C 0.77453 0.49997 0.2895 0.0
O85 O 0.7744 0.54082 0.29797 0.0
Cd86 Cd 0.79104 0.55934 0.35054 0.0
O87 O 0.77916 0.46843 0.30893 0.0
Cd88 Cd 0.78569 0.45966 0.36463 0.0
C89 C 0.88938 0.50243 0.36001 0.0
O90 O 0.7418 0.52244 0.38684 0.0
O91 O 0.79109 0.48903 0.41541 0.0
O92 O 0.7232 0.40831 0.36281 0.0
C93 C 0.75829 0.51578 0.4133 0.0
O94 O 0.86992 0.54038 0.35781 0.0
C95 C 0.74331 0.37481 0.37432 0.0
O96 O 0.86706 0.46584 0.36124 0.0
O97 O 0.78416 0.38007 0.38159 0.0
C98 C 0.46509 0.77297 0.78485 0.0
O99 O 0.42633 0.77351 0.79683 0.0
Cd100 Cd 0.41736 0.79118 0.85059 0.0
O101 O 0.49977 0.7777 0.80121 0.0
Cd102 Cd 0.51933 0.78528 0.85526 0.0
C103 C 0.47696 0.88964 0.85351 0.0
O104 O 0.46079 0.74334 0.8837 0.0
O105 O 0.50026 0.79331 0.90812 0.0
O106 O 0.5689 0.72172 0.85071 0.0
C107 C 0.47256 0.76093 0.90902 0.0
O108 O 0.43893 0.87037 0.85552 0.0
C109 C 0.60411 0.74265 0.85844 0.0
O110 O 0.5129 0.86694 0.85105 0.0
O111 O 0.6007 0.78441 0.86442 0.0
C112 C 0.77664 0.46902 0.78743 0.0
O113 O 0.7796 0.43068 0.80017 0.0
Cd114 Cd 0.79886 0.42507 0.8537 0.0
O115 O 0.77955 0.50492 0.8031 0.0
Cd116 Cd 0.78718 0.52762 0.85684 0.0
C117 C 0.89316 0.49115 0.85557 0.0
O118 O 0.74853 0.46722 0.88588 0.0
O119 O 0.79483 0.51088 0.91021 0.0
O120 O 0.72196 0.57449 0.85112 0.0
C121 C 0.7647 0.4808 0.91117 0.0
O122 O 0.87614 0.45189 0.85773 0.0
C123 C 0.74084 0.61099 0.85892 0.0
O124 O 0.86869 0.52597 0.8529 0.0
O125 O 0.78221 0.60952 0.8655 0.0
C126 C 0.50099 0.77831 0.2853 0.0
O127 O 0.54098 0.7792 0.29485 0.0
Cd128 Cd 0.55525 0.7997 0.34736 0.0
O129 O 0.46836 0.78353 0.30369 0.0
Cd130 Cd 0.45546 0.79054 0.35902 0.0
C131 C 0.49343 0.89643 0.35479 0.0
O132 O 0.51835 0.75033 0.38348 0.0
O133 O 0.48127 0.79945 0.41033 0.0
O134 O 0.40787 0.72474 0.35855 0.0
C135 C 0.50952 0.76774 0.40943 0.0
O136 O 0.53192 0.87835 0.35284 0.0
C137 C 0.37266 0.74455 0.36751 0.0
O138 O 0.45802 0.8725 0.35606 0.0
O139 O 0.3752 0.78664 0.37257 0.0
C140 C 0.20161 0.51743 0.78946 0.0
O141 O 0.20163 0.55585 0.80216 0.0
Cd142 Cd 0.18362 0.56238 0.85608 0.0
O143 O 0.19675 0.48176 0.80522 0.0
Cd144 Cd 0.18949 0.45858 0.85874 0.0
C145 C 0.08599 0.50161 0.85742 0.0
O146 O 0.23049 0.51642 0.88813 0.0
O147 O 0.18133 0.47492 0.91202 0.0
O148 O 0.25215 0.40864 0.8517 0.0
C149 C 0.21282 0.50354 0.91329 0.0
O150 O 0.105 0.53982 0.86027 0.0
C151 C 0.2315 0.37285 0.8592 0.0
O152 O 0.1086 0.46558 0.85433 0.0
O153 O 0.19025 0.37621 0.8661 0.0
C154 C 0.48816 0.20641 0.2856 0.0
O155 O 0.44759 0.20327 0.29401 0.0
Cd156 Cd 0.42832 0.18837 0.34682 0.0
O157 O 0.51949 0.20478 0.30514 0.0
Cd158 Cd 0.52752 0.19634 0.36071 0.0
C159 C 0.48692 0.09097 0.356 0.0
O160 O 0.46392 0.23821 0.38312 0.0
O161 O 0.49785 0.18842 0.41125 0.0
O162 O 0.57698 0.2606 0.36155 0.0
C163 C 0.47071 0.221 0.40944 0.0
O164 O 0.44876 0.10969 0.35428 0.0
C165 C 0.61076 0.23993 0.37189 0.0
O166 O 0.5228 0.11424 0.35682 0.0
O167 O 0.60662 0.19795 0.37709 0.0
C168 C 0.77436 0.50348 0.65719 0.0
O169 O 0.77728 0.54401 0.64811 0.0
Cd170 Cd 0.7914 0.56056 0.59468 0.0
O171 O 0.77585 0.47122 0.63815 0.0
Cd172 Cd 0.78286 0.45919 0.58297 0.0
C173 C 0.88776 0.50025 0.58642 0.0
O174 O 0.74069 0.5225 0.56017 0.0
O175 O 0.78695 0.48507 0.53128 0.0
O176 O 0.72038 0.4084 0.58885 0.0
C177 C 0.75594 0.51388 0.53353 0.0
O178 O 0.86937 0.53884 0.58735 0.0
C179 C 0.73927 0.37453 0.57684 0.0
O180 O 0.86447 0.46422 0.5864 0.0
O181 O 0.77942 0.37925 0.56757 0.0
C182 C 0.46604 0.77423 0.15563 0.0
O183 O 0.42766 0.77499 0.14332 0.0
Cd184 Cd 0.42086 0.79219 0.08941 0.0
O185 O 0.50132 0.77807 0.13953 0.0
Cd186 Cd 0.52421 0.78385 0.08587 0.0
C187 C 0.48362 0.8891 0.0869 0.0
O188 O 0.46515 0.74255 0.05803 0.0
O189 O 0.50764 0.78897 0.03243 0.0
O190 O 0.57295 0.72086 0.09571 0.0
C191 C 0.4779 0.75846 0.03232 0.0
O192 O 0.44522 0.87072 0.08457 0.0
C193 C 0.60847 0.73976 0.0861 0.0
O194 O 0.51898 0.86562 0.08969 0.0
O195 O 0.60555 0.78019 0.07661 0.0
C196 C 0.197 0.48279 0.6596 0.0
O197 O 0.19584 0.4424 0.65025 0.0
Cd198 Cd 0.17595 0.42765 0.59771 0.0
O199 O 0.19244 0.51542 0.641 0.0
Cd200 Cd 0.18677 0.52718 0.58541 0.0
C201 C 0.08092 0.49105 0.58908 0.0
O202 O 0.22667 0.46288 0.56171 0.0
O203 O 0.17907 0.50038 0.53417 0.0
O204 O 0.25234 0.57459 0.58763 0.0
C205 C 0.21025 0.47165 0.53552 0.0
O206 O 0.09824 0.45207 0.59145 0.0
C207 C 0.23402 0.60961 0.57683 0.0
O208 O 0.1053 0.52628 0.58776 0.0
O209 O 0.1928 0.60707 0.56992 0.0
C210 C 0.52034 0.20206 0.15525 0.0
O211 O 0.55772 0.19877 0.14153 0.0
Cd212 Cd 0.56035 0.17888 0.08788 0.0
O213 O 0.48386 0.19882 0.14059 0.0
Cd214 Cd 0.45765 0.18974 0.08781 0.0
C215 C 0.49551 0.08331 0.08819 0.0
O216 O 0.51569 0.22885 0.05708 0.0
O217 O 0.47098 0.18231 0.03389 0.0
O218 O 0.4101 0.25457 0.09504 0.0
C219 C 0.50099 0.21246 0.03215 0.0
O220 O 0.53421 0.10075 0.08481 0.0
C221 C 0.37364 0.23457 0.08902 0.0
O222 O 0.46091 0.1077 0.09182 0.0
O223 O 0.37553 0.19276 0.08289 0.0
C224 C 0.01297 0.47697 0.11983 0.0
C225 C 0.03621 0.48614 0.09199 0.0
C226 C 0.9652 0.48972 0.06403 0.0
C227 C 0.94194 0.48342 0.09218 0.0
N228 N 0.94193 0.47584 0.14726 0.0
N229 N 0.03571 0.50525 0.03812 0.0
C230 C 0.96536 0.47822 0.12022 0.0
C231 C 0.01265 0.49373 0.06422 0.0
N232 N 0.0365 0.46692 0.14583 0.0
N233 N 0.94188 0.49054 0.03706 0.0
H234 H 0.07058 0.50591 0.03687 0.0
H235 H 0.02055 0.51651 0.01807 0.0
H236 H 0.90703 0.4888 0.03614 0.0
H237 H 0.95685 0.48998 0.01545 0.0
H238 H 0.0219 0.45516 0.16605 0.0
H239 H 0.07136 0.46775 0.1468 0.0
H240 H 0.95666 0.47676 0.16885 0.0
H241 H 0.90704 0.47596 0.14829 0.0
C242 C 0.50089 0.9679 0.55675 0.0
C243 C 0.48763 0.94409 0.58365 0.0
C244 C 0.4765 0.0153 0.61089 0.0
C245 C 0.48632 0.03909 0.58342 0.0
N246 N 0.50262 0.03917 0.52919 0.0
N247 N 0.45629 0.94435 0.63484 0.0
C248 C 0.49725 0.01571 0.55603 0.0
C249 C 0.47328 0.96758 0.61025 0.0
N250 N 0.51709 0.94476 0.53196 0.0
N251 N 0.47224 0.03833 0.6379 0.0
H252 H 0.45432 0.90932 0.63559 0.0
H253 H 0.44081 0.95977 0.65352 0.0
H254 H 0.47567 0.07323 0.63923 0.0
H255 H 0.46967 0.02283 0.6593 0.0
H256 H 0.53219 0.96017 0.51307 0.0
H257 H 0.51763 0.90965 0.53088 0.0
H258 H 0.50572 0.024 0.50776 0.0
H259 H 0.50097 0.07424 0.52801 0.0
C260 C 0.00858 0.48207 0.38713 0.0
C261 C 0.03329 0.49808 0.36135 0.0
C262 C 0.96352 0.51502 0.33427 0.0
C263 C 0.93887 0.50105 0.36058 0.0
N264 N 0.9371 0.47861 0.41379 0.0
N265 N 0.03528 0.53579 0.31217 0.0
C266 C 0.96116 0.4864 0.38749 0.0
C267 C 0.01103 0.51661 0.33552 0.0
N268 N 0.03049 0.46267 0.41127 0.0
N269 N 0.94151 0.52474 0.30759 0.0
H270 H 0.07012 0.53582 0.31139 0.0
H271 H 0.02108 0.55456 0.29453 0.0
H272 H 0.90675 0.52438 0.30576 0.0
H273 H 0.95751 0.52972 0.28657 0.0
H274 H 0.01438 0.4452 0.4289 0.0
H275 H 0.06529 0.462 0.41302 0.0
H276 H 0.95155 0.47265 0.43511 0.0
H277 H 0.90236 0.48165 0.41496 0.0
C278 C 0.46696 0.96342 0.88045 0.0
C279 C 0.47909 0.9394 0.85352 0.0
C280 C 0.49637 0.01026 0.82694 0.0
C281 C 0.4816 0.03438 0.85321 0.0
N282 N 0.44811 0.03521 0.9037 0.0
N283 N 0.49848 0.93907 0.79971 0.0
C284 C 0.46525 0.01131 0.87956 0.0
C285 C 0.49209 0.96256 0.82637 0.0
N286 N 0.45907 0.94043 0.90721 0.0
N287 N 0.51487 0.03297 0.8026 0.0
H288 H 0.49598 0.90408 0.79841 0.0
H289 H 0.50282 0.95424 0.77833 0.0
H290 H 0.51631 0.06803 0.80132 0.0
H291 H 0.53127 0.01719 0.78446 0.0
H292 H 0.45484 0.95592 0.92844 0.0
H293 H 0.46027 0.90538 0.90878 0.0
H294 H 0.43103 0.02051 0.92205 0.0
H295 H 0.44833 0.07033 0.90454 0.0
C296 C 0.96441 0.50928 0.88299 0.0
C297 C 0.9424 0.49592 0.85567 0.0
C298 C 0.01451 0.48964 0.82892 0.0
C299 C 0.03663 0.49941 0.85689 0.0
N300 N 0.03406 0.51336 0.91138 0.0
N301 N 0.94532 0.46979 0.80332 0.0
C302 C 0.01197 0.5081 0.88416 0.0
C303 C 0.96716 0.48502 0.82882 0.0
N304 N 0.93977 0.52331 0.90772 0.0
N305 N 0.03869 0.48661 0.80224 0.0
H306 H 0.91055 0.46866 0.8018 0.0
H307 H 0.96143 0.45599 0.78432 0.0
H308 H 0.07348 0.48947 0.80143 0.0
H309 H 0.02434 0.48466 0.78055 0.0
H310 H 0.95363 0.53813 0.92713 0.0
H311 H 0.90486 0.52297 0.90808 0.0
H312 H 0.01815 0.51495 0.93265 0.0
H313 H 0.06888 0.51275 0.91308 0.0
C314 C 0.50322 0.01774 0.38247 0.0
C315 C 0.48924 0.04123 0.3558 0.0
C316 C 0.47274 0.96972 0.33003 0.0
C317 C 0.49022 0.94616 0.35569 0.0
N318 N 0.52532 0.94676 0.40551 0.0
N319 N 0.46741 0.04061 0.30256 0.0
C320 C 0.50659 0.96993 0.38164 0.0
C321 C 0.47565 0.0175 0.32916 0.0
N322 N 0.51129 0.04103 0.40897 0.0
N323 N 0.45308 0.94649 0.30656 0.0
H324 H 0.46932 0.07563 0.30094 0.0
H325 H 0.46246 0.02513 0.28142 0.0
H326 H 0.45162 0.91145 0.30574 0.0
H327 H 0.43518 0.96184 0.28899 0.0
H328 H 0.51668 0.02573 0.43015 0.0
H329 H 0.50927 0.07605 0.4104 0.0
H330 H 0.54283 0.96212 0.42327 0.0
H331 H 0.52543 0.91167 0.40687 0.0
C332 C 0.96076 0.48199 0.56068 0.0
C333 C 0.93717 0.49763 0.58689 0.0
C334 C 0.008 0.5142 0.61288 0.0
C335 C 0.03159 0.49508 0.58774 0.0
N336 N 0.03135 0.45782 0.53851 0.0
N337 N 0.93716 0.52232 0.63963 0.0
C338 C 0.00819 0.47793 0.5619 0.0
C339 C 0.96047 0.51224 0.61342 0.0
N340 N 0.93796 0.47297 0.53421 0.0
N341 N 0.03096 0.53447 0.63621 0.0
H342 H 0.90232 0.52143 0.64097 0.0
H343 H 0.95218 0.52795 0.6608 0.0
H344 H 0.06576 0.53509 0.6374 0.0
H345 H 0.01574 0.55362 0.65329 0.0
H346 H 0.95341 0.4663 0.51325 0.0
H347 H 0.90324 0.47548 0.53252 0.0
H348 H 0.01618 0.4397 0.52094 0.0
H349 H 0.06622 0.45724 0.53735 0.0
C350 C 0.47616 0.01142 0.06128 0.0
C351 C 0.49108 0.0337 0.08817 0.0
C352 C 0.49832 0.96122 0.11482 0.0
C353 C 0.48679 0.9388 0.0872 0.0
N354 N 0.47027 0.94115 0.03309 0.0
N355 N 0.52047 0.03086 0.1396 0.0
C356 C 0.47697 0.96352 0.06014 0.0
C357 C 0.50344 0.00886 0.11467 0.0
N358 N 0.46097 0.03612 0.03693 0.0
N359 N 0.50247 0.93712 0.14147 0.0
H360 H 0.52231 0.06587 0.14096 0.0
H361 H 0.53518 0.01459 0.15816 0.0
H362 H 0.49922 0.90215 0.14248 0.0
H363 H 0.50572 0.95181 0.16303 0.0
H364 H 0.44501 0.0221 0.01801 0.0
H365 H 0.46157 0.07126 0.03646 0.0
H366 H 0.46772 0.95707 0.01187 0.0
H367 H 0.47072 0.90609 0.0314 0.0
C368 C 0.24004 0.48628 0.24115 0.0
C369 C 0.19875 0.48736 0.25726 0.0
C370 C 0.15961 0.51051 0.21058 0.0
C371 C 0.20026 0.50603 0.19393 0.0
N372 N 0.2782 0.48556 0.19181 0.0
N373 N 0.11832 0.49366 0.25728 0.0
C374 C 0.24028 0.49275 0.20879 0.0
C375 C 0.15825 0.49779 0.24199 0.0
N376 N 0.279 0.4802 0.25696 0.0
N377 N 0.12233 0.52692 0.19632 0.0
H378 H 0.11602 0.48399 0.28028 0.0
H379 H 0.08724 0.49607 0.24674 0.0
H380 H 0.12146 0.535 0.17301 0.0
H381 H 0.09308 0.53566 0.20789 0.0
H382 H 0.31066 0.48385 0.24718 0.0
H383 H 0.27979 0.47436 0.28059 0.0
H384 H 0.30703 0.47085 0.20057 0.0
H385 H 0.28007 0.49208 0.16828 0.0
C386 C 0.49734 0.24049 0.70171 0.0
C387 C 0.4751 0.20364 0.68764 0.0
C388 C 0.47 0.16435 0.7371 0.0
C389 C 0.49393 0.20039 0.75099 0.0
N390 N 0.53416 0.27069 0.74689 0.0
N391 N 0.44453 0.12836 0.69043 0.0
C392 C 0.50892 0.23781 0.73335 0.0
C393 C 0.4622 0.16515 0.70498 0.0
N394 N 0.50566 0.2787 0.68497 0.0
N395 N 0.45477 0.12915 0.7547 0.0
H396 H 0.43653 0.12802 0.66718 0.0
H397 H 0.44012 0.09701 0.70075 0.0
H398 H 0.46385 0.12431 0.77754 0.0
H399 H 0.43162 0.10541 0.74717 0.0
H400 H 0.51784 0.30856 0.69425 0.0
H401 H 0.49717 0.2818 0.66185 0.0
H402 H 0.55042 0.29628 0.73484 0.0
H403 H 0.54112 0.27116 0.77033 0.0
C404 C 0.80949 0.45526 0.21135 0.0
C405 C 0.77245 0.46866 0.19326 0.0
C406 C 0.73446 0.49812 0.23904 0.0
C407 C 0.77328 0.48871 0.25649 0.0
N408 N 0.85014 0.4641 0.25895 0.0
N409 N 0.70102 0.50559 0.18863 0.0
C410 C 0.81132 0.4684 0.24265 0.0
C411 C 0.73527 0.49089 0.20677 0.0
N412 N 0.84324 0.43041 0.19855 0.0
N413 N 0.69637 0.51238 0.25354 0.0
H414 H 0.69899 0.49827 0.16526 0.0
H415 H 0.67579 0.52695 0.19631 0.0
H416 H 0.69464 0.51791 0.27717 0.0
H417 H 0.66554 0.51535 0.24272 0.0
H418 H 0.8683 0.415 0.21131 0.0
H419 H 0.84477 0.42231 0.1753 0.0
H420 H 0.88061 0.45482 0.24921 0.0
H421 H 0.85313 0.47344 0.28191 0.0
C422 C 0.46682 0.81348 0.73485 0.0
C423 C 0.47059 0.77234 0.75122 0.0
C424 C 0.4929 0.73321 0.70407 0.0
C425 C 0.49258 0.77507 0.68836 0.0
N426 N 0.48688 0.85605 0.68926 0.0
N427 N 0.49132 0.694 0.75307 0.0
C428 C 0.48151 0.81552 0.70386 0.0
C429 C 0.48481 0.73239 0.7363 0.0
N430 N 0.44906 0.85058 0.74892 0.0
N431 N 0.49985 0.69429 0.68803 0.0
H432 H 0.48369 0.69175 0.77643 0.0
H433 H 0.50649 0.66518 0.74435 0.0
H434 H 0.50699 0.69396 0.66455 0.0
H435 H 0.49579 0.66226 0.69741 0.0
H436 H 0.44099 0.88014 0.73733 0.0
H437 H 0.43901 0.85082 0.77188 0.0
H438 H 0.48392 0.88707 0.70018 0.0
H439 H 0.49838 0.85882 0.66669 0.0
C440 C 0.81171 0.46171 0.7355 0.0
C441 C 0.77382 0.47285 0.75368 0.0
C442 C 0.7364 0.50521 0.70874 0.0
C443 C 0.7738 0.49297 0.69039 0.0
N444 N 0.84525 0.4556 0.68499 0.0
N445 N 0.69764 0.49822 0.75774 0.0
C446 C 0.81075 0.46973 0.70336 0.0
C447 C 0.73544 0.49274 0.74032 0.0
N448 N 0.84968 0.44592 0.74925 0.0
N449 N 0.70196 0.52889 0.69597 0.0
H450 H 0.69587 0.48886 0.78083 0.0
H451 H 0.66699 0.50856 0.74902 0.0
H452 H 0.70014 0.5361 0.67256 0.0
H453 H 0.67619 0.54346 0.70861 0.0
H454 H 0.88049 0.4432 0.73819 0.0
H455 H 0.85142 0.43792 0.7725 0.0
H456 H 0.86973 0.43305 0.69208 0.0
H457 H 0.84861 0.46456 0.66195 0.0
C458 C 0.47918 0.81648 0.23676 0.0
C459 C 0.49189 0.77637 0.25211 0.0
C460 C 0.48611 0.73389 0.20414 0.0
C461 C 0.47057 0.77343 0.1893 0.0
N462 N 0.44608 0.85077 0.19177 0.0
N463 N 0.50207 0.69591 0.2523 0.0
C464 C 0.46493 0.8142 0.20578 0.0
C465 C 0.49391 0.73471 0.23633 0.0
N466 N 0.48282 0.85705 0.25143 0.0
N467 N 0.49413 0.6959 0.1873 0.0
H468 H 0.50879 0.69557 0.27579 0.0
H469 H 0.49929 0.66385 0.24285 0.0
H470 H 0.48655 0.69346 0.16399 0.0
H471 H 0.5104 0.66765 0.19592 0.0
H472 H 0.47867 0.88804 0.2406 0.0
H473 H 0.49405 0.86008 0.27397 0.0
H474 H 0.43659 0.87981 0.20344 0.0
H475 H 0.43664 0.85103 0.16875 0.0
C476 C 0.16262 0.52131 0.73913 0.0
C477 C 0.20258 0.51338 0.75573 0.0
C478 C 0.24025 0.48827 0.70865 0.0
C479 C 0.19917 0.49241 0.69277 0.0
N480 N 0.11962 0.50576 0.6933 0.0
N481 N 0.27829 0.48582 0.75776 0.0
C482 C 0.15992 0.50729 0.70807 0.0
C483 C 0.24115 0.49588 0.74089 0.0
N484 N 0.12714 0.542 0.75313 0.0
N485 N 0.2785 0.47832 0.69274 0.0
H486 H 0.28093 0.49328 0.78109 0.0
H487 H 0.30554 0.46803 0.74914 0.0
H488 H 0.27878 0.47187 0.6692 0.0
H489 H 0.31035 0.4795 0.7023 0.0
H490 H 0.09899 0.55319 0.74141 0.0
H491 H 0.12703 0.55121 0.77622 0.0
H492 H 0.089 0.51146 0.70407 0.0
H493 H 0.11623 0.49473 0.6707 0.0
C494 C 0.48773 0.24468 0.23414 0.0
C495 C 0.49958 0.20707 0.25253 0.0
C496 C 0.52945 0.1679 0.20731 0.0
C497 C 0.51825 0.20581 0.18904 0.0
N498 N 0.4941 0.28279 0.18483 0.0
N499 N 0.53613 0.13487 0.25795 0.0
C500 C 0.49946 0.24498 0.20243 0.0
C501 C 0.52215 0.16947 0.23954 0.0
N502 N 0.46495 0.27987 0.24701 0.0
N503 N 0.54442 0.12929 0.19359 0.0
H504 H 0.52769 0.13195 0.28111 0.0
H505 H 0.55809 0.10984 0.25075 0.0
H506 H 0.55178 0.12709 0.17025 0.0
H507 H 0.54715 0.09844 0.2048 0.0
H508 H 0.45063 0.30587 0.23441 0.0
H509 H 0.45834 0.28213 0.27049 0.0
H510 H 0.4844 0.31393 0.19348 0.0
H511 H 0.50291 0.28403 0.16163 0.0
C512 C 0.19388 0.54747 0.95951 0.0
C513 C 0.22595 0.52179 0.94333 0.0
C514 C 0.26403 0.50367 -0.0087 0.0
C515 C 0.22605 0.51972 0.00733 0.0
N516 N 0.15874 0.5636 0.00874 0.0
N517 N 0.2955 0.48141 0.942 0.0
C518 C 0.19273 0.54489 -0.00796 0.0
C519 C 0.26316 0.5029 0.95866 0.0
N520 N 0.16392 0.57279 0.94341 0.0
N521 N 0.29963 0.48763 0.00748 0.0
H522 H 0.29592 0.48184 0.91804 0.0
H523 H 0.32127 0.46268 0.9516 0.0
H524 H 0.3002 0.488 0.03145 0.0
H525 H 0.3296 0.47733 -0.00248 0.0
H526 H 0.14056 0.59414 0.95346 0.0
H527 H 0.16496 0.57475 0.91946 0.0
H528 H 0.1306 0.57853 -0.00082 0.0
H529 H 0.1587 0.56341 0.03272 0.0
C530 C 0.41966 0.21208 0.45355 0.0
C531 C 0.4513 0.2392 0.43789 0.0
C532 C 0.47433 0.27365 0.48616 0.0
C533 C 0.45138 0.23867 0.50174 0.0
N534 N 0.39487 0.18118 0.50263 0.0
N535 N 0.50187 0.30218 0.43711 0.0
C536 C 0.42059 0.21076 0.48613 0.0
C537 C 0.47542 0.27317 0.45354 0.0
N538 N 0.39071 0.18633 0.43687 0.0
N539 N 0.4967 0.30543 0.50281 0.0
H540 H 0.50183 0.30264 0.41314 0.0
H541 H 0.52372 0.32541 0.44682 0.0
H542 H 0.49585 0.30557 0.52678 0.0
H543 H 0.51339 0.33294 0.49329 0.0
H544 H 0.36567 0.16621 0.4464 0.0
H545 H 0.39032 0.18766 0.4129 0.0
H546 H 0.37401 0.15701 0.49296 0.0
H547 H 0.39469 0.18122 0.52661 0.0
C548 C 0.77743 0.43022 -0.01095 0.0
C549 C 0.75027 0.4612 0.00513 0.0
C550 C 0.71609 0.4858 0.95713 0.0
C551 C 0.75031 0.46278 0.94112 0.0
N552 N 0.8089 0.40768 0.93981 0.0
N553 N 0.68925 0.51369 0.00636 0.0
C554 C 0.77884 0.43227 0.95648 0.0
C555 C 0.71717 0.48658 -0.01026 0.0
N556 N 0.80271 0.40026 0.00525 0.0
N557 N 0.684 0.50814 0.94091 0.0
H558 H 0.68875 0.51337 0.03033 0.0
H559 H 0.66734 0.53686 -0.00327 0.0
H560 H 0.68325 0.50773 0.91694 0.0
H561 H 0.6566 0.5241 0.95084 0.0
H562 H 0.82205 0.3751 -0.00472 0.0
H563 H 0.80152 0.39874 0.0292 0.0
H564 H 0.83391 0.38791 0.94939 0.0
H565 H 0.80892 0.40773 0.91583 0.0
C566 C 0.50935 0.71417 0.48648 0.0
C567 C 0.52862 0.75099 0.50221 0.0
C568 C 0.55789 0.78144 0.45407 0.0
C569 C 0.52913 0.75163 0.43832 0.0
N570 N 0.48364 0.68476 0.4375 0.0
N571 N 0.57852 0.81438 0.50318 0.0
C572 C 0.50795 0.7154 0.45387 0.0
C573 C 0.5564 0.78228 0.48664 0.0
N574 N 0.49064 0.67968 0.50294 0.0
N575 N 0.58467 0.80998 0.43753 0.0
H576 H 0.57857 0.81405 0.52717 0.0
H577 H 0.59626 0.84111 0.49351 0.0
H578 H 0.58556 0.80911 0.41355 0.0
H579 H 0.60784 0.83194 0.44719 0.0
H580 H 0.47748 0.65058 0.49319 0.0
H581 H 0.4915 0.67897 0.52689 0.0
H582 H 0.46326 0.66013 0.44733 0.0
H583 H 0.48351 0.68464 0.41354 0.0
C584 C 0.26294 0.4748 0.4591 0.0
C585 C 0.22787 0.45328 0.443 0.0
C586 C 0.19726 0.42273 0.49067 0.0
C587 C 0.22674 0.45137 0.50685 0.0
N588 N 0.29581 0.49263 0.50875 0.0
N589 N 0.17127 0.3961 0.44091 0.0
C590 C 0.26306 0.47265 0.49171 0.0
C591 C 0.1987 0.42284 0.45808 0.0
N592 N 0.29365 0.49984 0.44312 0.0
N593 N 0.16624 0.3982 0.50672 0.0
H594 H 0.1727 0.39633 0.41693 0.0
H595 H 0.14945 0.37212 0.44999 0.0
H596 H 0.16616 0.39725 0.53071 0.0
H597 H 0.14104 0.37904 0.49672 0.0
H598 H 0.3181 0.51988 0.45319 0.0
H599 H 0.2943 0.50046 0.41915 0.0
H600 H 0.32412 0.50812 0.49955 0.0
H601 H 0.29576 0.49103 0.5327 0.0
C602 C 0.49885 0.26384 0.95384 0.0
C603 C 0.5163 0.2264 0.9378 0.0
C604 C 0.54491 0.19466 -0.01443 0.0
C605 C 0.51828 0.22596 0.00179 0.0
N606 N 0.47592 0.29457 0.00323 0.0
N607 N 0.56277 0.16068 0.93622 0.0
C608 C 0.49818 0.26278 -0.01352 0.0
C609 C 0.54262 0.1938 0.95303 0.0
N610 N 0.48141 0.29904 0.93764 0.0
N611 N 0.57088 0.16514 0.00163 0.0
H612 H 0.56263 0.16097 0.91224 0.0
H613 H 0.57904 0.13304 0.94567 0.0
H614 H 0.57267 0.16599 0.02557 0.0
H615 H 0.59278 0.1423 -0.00844 0.0
H616 H 0.46976 0.32864 0.94757 0.0
H617 H 0.4818 0.29973 0.91368 0.0
H618 H 0.45657 0.32005 -0.00628 0.0
H619 H 0.47646 0.29485 0.02719 0.0
C620 C 0.76593 0.56709 0.45736 0.0
C621 C 0.73944 0.5353 0.44155 0.0
C622 C 0.70419 0.51149 0.48958 0.0
C623 C 0.73845 0.53467 0.50537 0.0
N624 N 0.79426 0.59268 0.50677 0.0
N625 N 0.67608 0.48552 0.44021 0.0
C626 C 0.76607 0.56623 0.48997 0.0
C627 C 0.70513 0.51113 0.45693 0.0
N628 N 0.79235 0.59599 0.44084 0.0
N629 N 0.67293 0.48793 0.50608 0.0
H630 H 0.67624 0.48601 0.41624 0.0
H631 H 0.65178 0.46443 0.44962 0.0
H632 H 0.6724 0.4885 0.53005 0.0
H633 H 0.64651 0.47004 0.49649 0.0
H634 H 0.81266 0.62068 0.45044 0.0
H635 H 0.79175 0.59643 0.41685 0.0
H636 H 0.81774 0.61474 0.4974 0.0
H637 H 0.79341 0.59253 0.53076 0.0
C638 C 0.48013 0.70951 -0.01377 0.0
C639 C 0.45857 0.74417 0.0029 0.0
C640 C 0.42772 0.77562 0.95579 0.0
C641 C 0.45521 0.7457 0.93897 0.0
N642 N 0.49606 0.67632 0.93626 0.0
N643 N 0.40167 0.80074 0.00597 0.0
C644 C 0.47695 0.70937 0.95367 0.0
C645 C 0.42828 0.77369 -0.01164 0.0
N646 N 0.50599 0.67907 0.00158 0.0
N647 N 0.40361 0.80742 0.94037 0.0
H648 H 0.40205 0.79912 0.02992 0.0
H649 H 0.37737 0.82219 -0.00276 0.0
H650 H 0.40178 0.80781 0.91642 0.0
H651 H 0.38595 0.83334 0.95088 0.0
H652 H 0.52638 0.65537 -0.00903 0.0
H653 H 0.50726 0.6781 0.02553 0.0
H654 H 0.5111 0.64765 0.94523 0.0
H655 H 0.4939 0.67623 0.91235 0.0
C656 C 0.27922 0.30797 0.11842 0.0
C657 C 0.26357 0.32568 0.09023 0.0
C658 C 0.31009 0.27191 0.06181 0.0
C659 C 0.33102 0.25971 0.08978 0.0
N660 N 0.33555 0.26406 0.14492 0.0
N661 N 0.26372 0.32595 0.03485 0.0
C662 C 0.3152 0.27679 0.11822 0.0
C663 C 0.27813 0.30737 0.0618 0.0
N664 N 0.25907 0.32071 0.14528 0.0
N665 N 0.32146 0.25021 0.03524 0.0
H666 H 0.23982 0.35142 0.03391 0.0
H667 H 0.27713 0.31811 0.01343 0.0
H668 H 0.34584 0.22521 0.03427 0.0
H669 H 0.30445 0.25431 0.01462 0.0
H670 H 0.26605 0.30635 0.16653 0.0
H671 H 0.23226 0.34316 0.14593 0.0
H672 H 0.32967 0.27934 0.16604 0.0
H673 H 0.35996 0.23902 0.14576 0.0
C674 C 0.69159 0.32124 0.54678 0.0
C675 C 0.71465 0.33155 0.57428 0.0
C676 C 0.67291 0.27316 0.60207 0.0
C677 C 0.64807 0.26455 0.57504 0.0
N678 N 0.63978 0.27154 0.52027 0.0
N679 N 0.73637 0.31105 0.6255 0.0
C680 C 0.65973 0.28549 0.54682 0.0
C681 C 0.70833 0.3052 0.6011 0.0
N682 N 0.69839 0.34731 0.52124 0.0
N683 N 0.66133 0.25191 0.62885 0.0
H684 H 0.76267 0.3343 0.62514 0.0
H685 H 0.73618 0.29063 0.64495 0.0
H686 H 0.6371 0.22653 0.62987 0.0
H687 H 0.6743 0.26037 0.65022 0.0
H688 H 0.67905 0.34528 0.50148 0.0
H689 H 0.72259 0.37271 0.52026 0.0
H690 H 0.64938 0.28254 0.49852 0.0
H691 H 0.61571 0.24601 0.51981 0.0
C692 C 0.70235 0.66741 0.11555 0.0
C693 C 0.7186 0.64893 0.08764 0.0
C694 C 0.66867 0.69772 0.05805 0.0
C695 C 0.65112 0.71474 0.08604 0.0
N696 N 0.65781 0.72515 0.14058 0.0
N697 N 0.72549 0.65272 0.03254 0.0
C698 C 0.67025 0.70259 0.11457 0.0
C699 C 0.70475 0.66655 0.05892 0.0
N700 N 0.71669 0.65019 0.14293 0.0
N701 N 0.64888 0.70906 0.03086 0.0
H702 H 0.75103 0.62888 0.03234 0.0
H703 H 0.71999 0.66723 0.01112 0.0
H704 H 0.62304 0.73247 0.02931 0.0
H705 H 0.65622 0.69369 0.00999 0.0
H706 H 0.70227 0.65795 0.16406 0.0
H707 H 0.74228 0.62645 0.14443 0.0
H708 H 0.673 0.7208 0.16182 0.0
H709 H 0.63457 0.75133 0.14032 0.0
C710 C 0.2587 0.68685 0.5923 0.0
C711 C 0.26111 0.65056 0.57127 0.0
C712 C 0.32678 0.68473 0.54655 0.0
C713 C 0.32886 0.71643 0.5708 0.0
N714 N 0.29739 0.74945 0.6165 0.0
N715 N 0.29467 0.61518 0.52711 0.0
C716 C 0.29441 0.71869 0.59326 0.0
C717 C 0.29405 0.64993 0.54771 0.0
N718 N 0.22267 0.6903 0.61159 0.0
N719 N 0.35605 0.68838 0.52242 0.0
H720 H 0.26946 0.59078 0.5262 0.0
H721 H 0.3206 0.60946 0.5116 0.0
H722 H 0.38009 0.71392 0.52101 0.0
H723 H 0.3544 0.66874 0.5027 0.0
H724 H 0.2167 0.71796 0.62565 0.0
H725 H 0.19657 0.66688 0.61177 0.0
H726 H 0.27648 0.74958 0.63567 0.0
H727 H 0.32245 0.77394 0.6174 0.0
C728 C 0.32959 0.68745 0.39739 0.0
C729 C 0.33113 0.71844 0.37261 0.0
C730 C 0.26103 0.68762 0.35235 0.0
C731 C 0.26386 0.65206 0.37402 0.0
N732 N 0.29794 0.61849 0.41851 0.0
N733 N 0.2989 0.74992 0.32678 0.0
C734 C 0.29702 0.65244 0.39724 0.0
C735 C 0.29644 0.71974 0.3505 0.0
N736 N 0.35923 0.69196 0.42105 0.0
N737 N 0.22484 0.69012 0.33334 0.0
H738 H 0.3237 0.77465 0.32529 0.0
H739 H 0.27782 0.74937 0.30784 0.0
H740 H 0.19896 0.66646 0.3338 0.0
H741 H 0.21855 0.71723 0.31883 0.0
H742 H 0.35812 0.67284 0.44108 0.0
H743 H 0.38314 0.71766 0.42172 0.0
H744 H 0.32398 0.61345 0.43391 0.0
H745 H 0.27281 0.59408 0.42018 0.0
C746 C 0.3037 0.27734 0.88735 0.0
C747 C 0.3205 0.26121 0.85891 0.0
C748 C 0.27043 0.31142 0.83073 0.0
C749 C 0.2553 0.32929 0.85911 0.0
N750 N 0.24862 0.32301 0.91411 0.0
N751 N 0.31266 0.25328 0.80427 0.0
C752 C 0.26871 0.30979 0.88735 0.0
C753 C 0.30135 0.27516 0.83079 0.0
N754 N 0.32322 0.26386 0.91418 0.0
N755 N 0.25622 0.33022 0.8038 0.0
H756 H 0.33495 0.22628 0.80389 0.0
H757 H 0.29735 0.25903 0.78322 0.0
H758 H 0.23139 0.35484 0.80297 0.0
H759 H 0.26997 0.32281 0.78241 0.0
H760 H 0.31648 0.27831 0.93545 0.0
H761 H 0.34816 0.23941 0.91505 0.0
H762 H 0.25381 0.30732 0.93518 0.0
H763 H 0.22385 0.34764 0.91492 0.0
C764 C 0.65241 0.29637 0.40277 0.0
C765 C 0.65243 0.26505 0.37826 0.0
C766 C 0.72328 0.29619 0.35903 0.0
C767 C 0.71853 0.33241 0.37993 0.0
N768 N 0.68246 0.36597 0.42376 0.0
N769 N 0.68801 0.23224 0.33397 0.0
C770 C 0.68457 0.33177 0.40279 0.0
C771 C 0.68854 0.26339 0.35706 0.0
N772 N 0.62145 0.29198 0.42582 0.0
N773 N 0.76053 0.29388 0.34079 0.0
H774 H 0.66376 0.20698 0.33255 0.0
H775 H 0.71032 0.23225 0.31556 0.0
H776 H 0.78601 0.31794 0.34155 0.0
H777 H 0.76807 0.26659 0.32675 0.0
H778 H 0.62084 0.31176 0.4455 0.0
H779 H 0.59801 0.26581 0.42632 0.0
H780 H 0.656 0.37072 0.439 0.0
H781 H 0.70726 0.39069 0.42541 0.0
C782 C 0.68594 0.65725 0.88826 0.0
C783 C 0.71415 0.65244 0.86218 0.0
C784 C 0.67635 0.71488 0.83633 0.0
C785 C 0.64659 0.71797 0.86168 0.0
N786 N 0.62864 0.70098 0.91437 0.0
N787 N 0.74402 0.68194 0.81484 0.0
C788 C 0.65342 0.69207 0.8886 0.0
C789 C 0.71207 0.68332 0.83739 0.0
N790 N 0.68925 0.62731 0.91207 0.0
N791 N 0.66896 0.74058 0.81077 0.0
H792 H 0.77017 0.65873 0.81503 0.0
H793 H 0.74681 0.70565 0.79731 0.0
H794 H 0.6441 0.76516 0.80989 0.0
H795 H 0.68602 0.73657 0.79009 0.0
H796 H 0.66643 0.62527 0.93013 0.0
H797 H 0.71432 0.60297 0.91321 0.0
H798 H 0.63417 0.68602 0.93563 0.0
H799 H 0.60452 0.72632 0.91509 0.0
loop_
_geom_bond_atom_site_label_1
_geom_bond_atom_site_label_2
_geom_bond_distance
_geom_bond_site_symmetry_2
_ccdc_geom_bond_type
C0 O1 1.306 . S
C0 O3 1.160 . S
O1 C0 1.306 . S
O1 Cd2 2.228 . S
Cd2 O1 2.228 . S
Cd2 O6 2.273 . S
Cd2 O10 2.277 . S
O3 C0 1.160 . S
O3 Cd4 2.203 . S
Cd4 O3 2.203 . S
Cd4 O6 2.411 . S
Cd4 O7 2.333 . S
Cd4 O8 2.352 . S
Cd4 O12 2.277 . S
Cd4 O13 2.356 . S
C5 O10 1.209 . S
C5 O12 1.226 . S
O6 Cd2 2.273 . S
O6 Cd4 2.411 . S
O6 C9 1.320 . S
O7 Cd4 2.333 . S
O7 C9 1.214 . S
O8 Cd4 2.352 . S
O8 C11 1.258 . S
C9 O6 1.320 . S
C9 O7 1.214 . S
O10 Cd2 2.277 . S
O10 C5 1.209 . S
C11 O8 1.258 . S
C11 O13 1.282 . S
O12 Cd4 2.277 . S
O12 C5 1.226 . S
O13 Cd4 2.356 . S
O13 C11 1.282 . S
C14 O15 1.306 . S
C14 O17 1.160 . S
O15 C14 1.306 . S
O15 Cd16 2.228 . S
Cd16 O15 2.228 . S
Cd16 O20 2.273 . S
Cd16 O24 2.277 . S
O17 C14 1.160 . S
O17 Cd18 2.203 . S
Cd18 O17 2.203 . S
Cd18 O20 2.411 . S
Cd18 O21 2.333 . S
Cd18 O22 2.352 . S
Cd18 O26 2.277 . S
Cd18 O27 2.356 . S
C19 O24 1.209 . S
C19 O26 1.226 . S
O20 Cd16 2.273 . S
O20 Cd18 2.411 . S
O20 C23 1.320 . S
O21 Cd18 2.333 . S
O21 C23 1.214 . S
O22 Cd18 2.352 . S
O22 C25 1.258 . S
C23 O20 1.320 . S
C23 O21 1.214 . S
O24 Cd16 2.277 . S
O24 C19 1.209 . S
C25 O22 1.258 . S
C25 O27 1.282 . S
O26 Cd18 2.277 . S
O26 C19 1.226 . S
O27 Cd18 2.356 . S
O27 C25 1.282 . S
C28 O29 1.306 . S
C28 O31 1.160 . S
O29 C28 1.306 . S
O29 Cd30 2.228 . S
Cd30 O29 2.228 . S
Cd30 O34 2.273 . S
Cd30 O38 2.277 . S
O31 C28 1.160 . S
O31 Cd32 2.203 . S
Cd32 O31 2.203 . S
Cd32 O34 2.411 . S
Cd32 O35 2.333 . S
Cd32 O36 2.352 . S
Cd32 O40 2.277 . S
Cd32 O41 2.356 . S
C33 O38 1.209 . S
C33 O40 1.226 . S
O34 Cd30 2.273 . S
O34 Cd32 2.411 . S
O34 C37 1.320 . S
O35 Cd32 2.333 . S
O35 C37 1.214 . S
O36 Cd32 2.352 . S
O36 C39 1.258 . S
C37 O34 1.320 . S
C37 O35 1.214 . S
O38 Cd30 2.277 . S
O38 C33 1.209 . S
C39 O36 1.258 . S
C39 O41 1.282 . S
O40 Cd32 2.277 . S
O40 C33 1.226 . S
O41 Cd32 2.356 . S
O41 C39 1.282 . S
C42 O43 1.306 . S
C42 O45 1.160 . S
O43 C42 1.306 . S
O43 Cd44 2.228 . S
Cd44 O43 2.228 . S
Cd44 O48 2.273 . S
Cd44 O52 2.277 . S
O45 C42 1.160 . S
O45 Cd46 2.203 . S
Cd46 O45 2.203 . S
Cd46 O48 2.411 . S
Cd46 O49 2.333 . S
Cd46 O50 2.352 . S
Cd46 O54 2.277 . S
Cd46 O55 2.356 . S
C47 O52 1.209 . S
C47 O54 1.226 . S
O48 Cd44 2.273 . S
O48 Cd46 2.411 . S
O48 C51 1.320 . S
O49 Cd46 2.333 . S
O49 C51 1.214 . S
O50 Cd46 2.352 . S
O50 C53 1.258 . S
C51 O48 1.320 . S
C51 O49 1.214 . S
O52 Cd44 2.277 . S
O52 C47 1.209 . S
C53 O50 1.258 . S
C53 O55 1.282 . S
O54 Cd46 2.277 . S
O54 C47 1.226 . S
O55 Cd46 2.356 . S
O55 C53 1.282 . S
C56 O57 1.306 . S
C56 O59 1.160 . S
O57 C56 1.306 . S
O57 Cd58 2.228 . S
Cd58 O57 2.228 . S
Cd58 O62 2.273 . S
Cd58 O66 2.277 . S
O59 C56 1.160 . S
O59 Cd60 2.203 . S
Cd60 O59 2.203 . S
Cd60 O62 2.411 . S
Cd60 O63 2.333 . S
Cd60 O64 2.352 . S
Cd60 O68 2.277 . S
Cd60 O69 2.356 . S
C61 O66 1.209 . S
C61 O68 1.226 . S
O62 Cd58 2.273 . S
O62 Cd60 2.411 . S
O62 C65 1.320 . S
O63 Cd60 2.333 . S
O63 C65 1.214 . S
O64 Cd60 2.352 . S
O64 C67 1.258 . S
C65 O62 1.320 . S
C65 O63 1.214 . S
O66 Cd58 2.277 . S
O66 C61 1.209 . S
C67 O64 1.258 . S
C67 O69 1.282 . S
O68 Cd60 2.277 . S
O68 C61 1.226 . S
O69 Cd60 2.356 . S
O69 C67 1.282 . S
C70 O71 1.306 . S
C70 O73 1.160 . S
O71 C70 1.306 . S
O71 Cd72 2.228 . S
Cd72 O71 2.228 . S
Cd72 O76 2.273 . S
Cd72 O80 2.277 . S
O73 C70 1.160 . S
O73 Cd74 2.203 . S
Cd74 O73 2.203 . S
Cd74 O76 2.411 . S
Cd74 O77 2.333 . S
Cd74 O78 2.352 . S
Cd74 O82 2.277 . S
Cd74 O83 2.356 . S
C75 O80 1.209 . S
C75 O82 1.226 . S
O76 Cd72 2.273 . S
O76 Cd74 2.411 . S
O76 C79 1.320 . S
O77 Cd74 2.333 . S
O77 C79 1.214 . S
O78 Cd74 2.352 . S
O78 C81 1.258 . S
C79 O76 1.320 . S
C79 O77 1.214 . S
O80 Cd72 2.277 . S
O80 C75 1.209 . S
C81 O78 1.258 . S
C81 O83 1.282 . S
O82 Cd74 2.277 . S
O82 C75 1.226 . S
O83 Cd74 2.356 . S
O83 C81 1.282 . S
C84 O85 1.306 . S
C84 O87 1.160 . S
O85 C84 1.306 . S
O85 Cd86 2.228 . S
Cd86 O85 2.228 . S
Cd86 O90 2.273 . S
Cd86 O94 2.277 . S
O87 C84 1.160 . S
O87 Cd88 2.203 . S
Cd88 O87 2.203 . S
Cd88 O90 2.411 . S
Cd88 O91 2.333 . S
Cd88 O92 2.352 . S
Cd88 O96 2.277 . S
Cd88 O97 2.356 . S
C89 O94 1.209 . S
C89 O96 1.226 . S
O90 Cd86 2.273 . S
O90 Cd88 2.411 . S
O90 C93 1.320 . S
O91 Cd88 2.333 . S
O91 C93 1.214 . S
O92 Cd88 2.352 . S
O92 C95 1.258 . S
C93 O90 1.320 . S
C93 O91 1.214 . S
O94 Cd86 2.277 . S
O94 C89 1.209 . S
C95 O92 1.258 . S
C95 O97 1.282 . S
O96 Cd88 2.277 . S
O96 C89 1.226 . S
O97 Cd88 2.356 . S
O97 C95 1.282 . S
C98 O99 1.306 . S
C98 O101 1.160 . S
O99 C98 1.306 . S
O99 Cd100 2.228 . S
Cd100 O99 2.228 . S
Cd100 O104 2.273 . S
Cd100 O108 2.277 . S
O101 C98 1.160 . S
O101 Cd102 2.203 . S
Cd102 O101 2.203 . S
Cd102 O104 2.411 . S
Cd102 O105 2.333 . S
Cd102 O106 2.352 . S
Cd102 O110 2.277 . S
Cd102 O111 2.356 . S
C103 O108 1.209 . S
C103 O110 1.226 . S
O104 Cd100 2.273 . S
O104 Cd102 2.411 . S
O104 C107 1.320 . S
O105 Cd102 2.333 . S
O105 C107 1.214 . S
O106 Cd102 2.352 . S
O106 C109 1.258 . S
C107 O104 1.320 . S
C107 O105 1.214 . S
O108 Cd100 2.277 . S
O108 C103 1.209 . S
C109 O106 1.258 . S
C109 O111 1.282 . S
O110 Cd102 2.277 . S
O110 C103 1.226 . S
O111 Cd102 2.356 . S
O111 C109 1.282 . S
C112 O113 1.306 . S
C112 O115 1.160 . S
O113 C112 1.306 . S
O113 Cd114 2.228 . S
Cd114 O113 2.228 . S
Cd114 O118 2.273 . S
Cd114 O122 2.277 . S
O115 C112 1.160 . S
O115 Cd116 2.203 . S
Cd116 O115 2.203 . S
Cd116 O118 2.411 . S
Cd116 O119 2.333 . S
Cd116 O120 2.352 . S
Cd116 O124 2.277 . S
Cd116 O125 2.356 . S
C117 O122 1.209 . S
C117 O124 1.226 . S
O118 Cd114 2.273 . S
O118 Cd116 2.411 . S
O118 C121 1.320 . S
O119 Cd116 2.333 . S
O119 C121 1.214 . S
O120 Cd116 2.352 . S
O120 C123 1.258 . S
C121 O118 1.320 . S
C121 O119 1.214 . S
O122 Cd114 2.277 . S
O122 C117 1.209 . S
C123 O120 1.258 . S
C123 O125 1.282 . S
O124 Cd116 2.277 . S
O124 C117 1.226 . S
O125 Cd116 2.356 . S
O125 C123 1.282 . S
C126 O127 1.306 . S
C126 O129 1.160 . S
O127 C126 1.306 . S
O127 Cd128 2.228 . S
Cd128 O127 2.228 . S
Cd128 O132 2.273 . S
Cd128 O136 2.277 . S
O129 C126 1.160 . S
O129 Cd130 2.203 . S
Cd130 O129 2.203 . S
Cd130 O132 2.411 . S
Cd130 O133 2.333 . S
Cd130 O134 2.352 . S
Cd130 O138 2.277 . S
Cd130 O139 2.356 . S
C131 O136 1.209 . S
C131 O138 1.226 . S
O132 Cd128 2.273 . S
O132 Cd130 2.411 . S
O132 C135 1.320 . S
O133 Cd130 2.333 . S
O133 C135 1.214 . S
O134 Cd130 2.352 . S
O134 C137 1.258 . S
C135 O132 1.320 . S
C135 O133 1.214 . S
O136 Cd128 2.277 . S
O136 C131 1.209 . S
C137 O134 1.258 . S
C137 O139 1.282 . S
O138 Cd130 2.277 . S
O138 C131 1.226 . S
O139 Cd130 2.356 . S
O139 C137 1.282 . S
C140 O141 1.306 . S
C140 O143 1.160 . S
O141 C140 1.306 . S
O141 Cd142 2.228 . S
Cd142 O141 2.228 . S
Cd142 O146 2.273 . S
Cd142 O150 2.277 . S
O143 C140 1.160 . S
O143 Cd144 2.203 . S
Cd144 O143 2.203 . S
Cd144 O146 2.411 . S
Cd144 O147 2.333 . S
Cd144 O148 2.352 . S
Cd144 O152 2.277 . S
Cd144 O153 2.356 . S
C145 O150 1.209 . S
C145 O152 1.226 . S
O146 Cd142 2.273 . S
O146 Cd144 2.411 . S
O146 C149 1.320 . S
O147 Cd144 2.333 . S
O147 C149 1.214 . S
O148 Cd144 2.352 . S
O148 C151 1.258 . S
C149 O146 1.320 . S
C149 O147 1.214 . S
O150 Cd142 2.277 . S
O150 C145 1.209 . S
C151 O148 1.258 . S
C151 O153 1.282 . S
O152 Cd144 2.277 . S
O152 C145 1.226 . S
O153 Cd144 2.356 . S
O153 C151 1.282 . S
C154 O155 1.306 . S
C154 O157 1.160 . S
O155 C154 1.306 . S
O155 Cd156 2.228 . S
Cd156 O155 2.228 . S
Cd156 O160 2.273 . S
Cd156 O164 2.277 . S
O157 C154 1.160 . S
O157 Cd158 2.203 . S
Cd158 O157 2.203 . S
Cd158 O160 2.411 . S
Cd158 O161 2.333 . S
Cd158 O162 2.352 . S
Cd158 O166 2.277 . S
Cd158 O167 2.356 . S
C159 O164 1.209 . S
C159 O166 1.226 . S
O160 Cd156 2.273 . S
O160 Cd158 2.411 . S
O160 C163 1.320 . S
O161 Cd158 2.333 . S
O161 C163 1.214 . S
O162 Cd158 2.352 . S
O162 C165 1.258 . S
C163 O160 1.320 . S
C163 O161 1.214 . S
O164 Cd156 2.277 . S
O164 C159 1.209 . S
C165 O162 1.258 . S
C165 O167 1.282 . S
O166 Cd158 2.277 . S
O166 C159 1.226 . S
O167 Cd158 2.356 . S
O167 C165 1.282 . S
C168 O169 1.306 . S
C168 O171 1.160 . S
O169 C168 1.306 . S
O169 Cd170 2.228 . S
Cd170 O169 2.228 . S
Cd170 O174 2.273 . S
Cd170 O178 2.277 . S
O171 C168 1.160 . S
O171 Cd172 2.203 . S
Cd172 O171 2.203 . S
Cd172 O174 2.411 . S
Cd172 O175 2.333 . S
Cd172 O176 2.352 . S
Cd172 O180 2.277 . S
Cd172 O181 2.356 . S
C173 O178 1.209 . S
C173 O180 1.226 . S
O174 Cd170 2.273 . S
O174 Cd172 2.411 . S
O174 C177 1.320 . S
O175 Cd172 2.333 . S
O175 C177 1.214 . S
O176 Cd172 2.352 . S
O176 C179 1.258 . S
C177 O174 1.320 . S
C177 O175 1.214 . S
O178 Cd170 2.277 . S
O178 C173 1.209 . S
C179 O176 1.258 . S
C179 O181 1.282 . S
O180 Cd172 2.277 . S
O180 C173 1.226 . S
O181 Cd172 2.356 . S
O181 C179 1.282 . S
C182 O183 1.306 . S
C182 O185 1.160 . S
O183 C182 1.306 . S
O183 Cd184 2.228 . S
Cd184 O183 2.228 . S
Cd184 O188 2.273 . S
Cd184 O192 2.277 . S
O185 C182 1.160 . S
O185 Cd186 2.203 . S
Cd186 O185 2.203 . S
Cd186 O188 2.411 . S
Cd186 O189 2.333 . S
Cd186 O190 2.352 . S
Cd186 O194 2.277 . S
Cd186 O195 2.356 . S
C187 O192 1.209 . S
C187 O194 1.226 . S
O188 Cd184 2.273 . S
O188 Cd186 2.411 . S
O188 C191 1.320 . S
O189 Cd186 2.333 . S
O189 C191 1.214 . S
O190 Cd186 2.352 . S
O190 C193 1.258 . S
C191 O188 1.320 . S
C191 O189 1.214 . S
O192 Cd184 2.277 . S
O192 C187 1.209 . S
C193 O190 1.258 . S
C193 O195 1.282 . S
O194 Cd186 2.277 . S
O194 C187 1.226 . S
O195 Cd186 2.356 . S
O195 C193 1.282 . S
C196 O197 1.306 . S
C196 O199 1.160 . S
O197 C196 1.306 . S
O197 Cd198 2.228 . S
Cd198 O197 2.228 . S
Cd198 O202 2.273 . S
Cd198 O206 2.277 . S
O199 C196 1.160 . S
O199 Cd200 2.203 . S
Cd200 O199 2.203 . S
Cd200 O202 2.411 . S
Cd200 O203 2.333 . S
Cd200 O204 2.352 . S
Cd200 O208 2.277 . S
Cd200 O209 2.356 . S
C201 O206 1.209 . S
C201 O208 1.226 . S
O202 Cd198 2.273 . S
O202 Cd200 2.411 . S
O202 C205 1.320 . S
O203 Cd200 2.333 . S
O203 C205 1.214 . S
O204 Cd200 2.352 . S
O204 C207 1.258 . S
C205 O202 1.320 . S
C205 O203 1.214 . S
O206 Cd198 2.277 . S
O206 C201 1.209 . S
C207 O204 1.258 . S
C207 O209 1.282 . S
O208 Cd200 2.277 . S
O208 C201 1.226 . S
O209 Cd200 2.356 . S
O209 C207 1.282 . S
C210 O211 1.306 . S
C210 O213 1.160 . S
O211 C210 1.306 . S
O211 Cd212 2.228 . S
Cd212 O211 2.228 . S
Cd212 O216 2.273 . S
Cd212 O220 2.277 . S
O213 C210 1.160 . S
O213 Cd214 2.203 . S
Cd214 O213 2.203 . S
Cd214 O216 2.411 . S
Cd214 O217 2.333 . S
Cd214 O218 2.352 . S
Cd214 O222 2.277 . S
Cd214 O223 2.356 . S
C215 O220 1.209 . S
C215 O222 1.226 . S
O216 Cd212 2.273 . S
O216 Cd214 2.411 . S
O216 C219 1.320 . S
O217 Cd214 2.333 . S
O217 C219 1.214 . S
O218 Cd214 2.352 . S
O218 C221 1.258 . S
C219 O216 1.320 . S
C219 O217 1.214 . S
O220 Cd212 2.277 . S
O220 C215 1.209 . S
C221 O218 1.258 . S
C221 O223 1.282 . S
O222 Cd214 2.277 . S
O222 C215 1.226 . S
O223 Cd214 2.356 . S
O223 C221 1.282 . S
C224 C225 1.363 . S
C224 C230 1.379 1_455 S
C224 N232 1.356 . S
C225 C224 1.363 . S
C225 C231 1.363 . S
C226 C227 1.363 . S
C226 C231 1.379 1_655 S
C226 N233 1.356 . S
C227 C226 1.363 . S
C227 C230 1.363 . S
N228 C230 1.356 . S
N228 H240 0.984 . S
N228 H241 0.985 . S
N229 C231 1.356 . S
N229 H234 0.984 . S
N229 H235 0.985 . S
C230 C224 1.379 1_655 S
C230 C227 1.363 . S
C230 N228 1.356 . S
C231 C225 1.363 . S
C231 C226 1.379 1_455 S
C231 N229 1.356 . S
N232 C224 1.356 . S
N232 H238 0.984 . S
N232 H239 0.984 . S
N233 C226 1.356 . S
N233 H236 0.984 . S
N233 H237 0.985 . S
H234 N229 0.984 . S
H235 N229 0.985 . S
H236 N233 0.984 . S
H237 N233 0.985 . S
H238 N232 0.984 . S
H239 N232 0.984 . S
H240 N228 0.984 . S
H241 N228 0.985 . S
C242 C243 1.363 . S
C242 C248 1.379 1_565 S
C242 N250 1.356 . S
C243 C242 1.363 . S
C243 C249 1.363 . S
C244 C245 1.363 . S
C244 C249 1.379 1_545 S
C244 N251 1.356 . S
C245 C244 1.363 . S
C245 C248 1.363 . S
N246 C248 1.356 . S
N246 H258 0.984 . S
N246 H259 0.985 . S
N247 C249 1.356 . S
N247 H252 0.984 . S
N247 H253 0.985 . S
C248 C242 1.379 1_545 S
C248 C245 1.363 . S
C248 N246 1.356 . S
C249 C243 1.363 . S
C249 C244 1.379 1_565 S
C249 N247 1.356 . S
N250 C242 1.356 . S
N250 H256 0.984 . S
N250 H257 0.984 . S
N251 C244 1.356 . S
N251 H254 0.984 . S
N251 H255 0.985 . S
H252 N247 0.984 . S
H253 N247 0.985 . S
H254 N251 0.984 . S
H255 N251 0.985 . S
H256 N250 0.984 . S
H257 N250 0.984 . S
H258 N246 0.984 . S
H259 N246 0.985 . S
C260 C261 1.363 . S
C260 C266 1.379 1_455 S
C260 N268 1.356 . S
C261 C260 1.363 . S
C261 C267 1.363 . S
C262 C263 1.363 . S
C262 C267 1.379 1_655 S
C262 N269 1.356 . S
C263 C262 1.363 . S
C263 C266 1.363 . S
N264 C266 1.356 . S
N264 H276 0.984 . S
N264 H277 0.985 . S
N265 C267 1.356 . S
N265 H270 0.984 . S
N265 H271 0.985 . S
C266 C260 1.379 1_655 S
C266 C263 1.363 . S
C266 N264 1.356 . S
C267 C261 1.363 . S
C267 C262 1.379 1_455 S
C267 N265 1.356 . S
N268 C260 1.356 . S
N268 H274 0.984 . S
N268 H275 0.984 . S
N269 C262 1.356 . S
N269 H272 0.984 . S
N269 H273 0.985 . S
H270 N265 0.984 . S
H271 N265 0.985 . S
H272 N269 0.984 . S
H273 N269 0.985 . S
H274 N268 0.984 . S
H275 N268 0.984 . S
H276 N264 0.984 . S
H277 N264 0.985 . S
C278 C279 1.363 . S
C278 C284 1.379 1_565 S
C278 N286 1.356 . S
C279 C278 1.363 . S
C279 C285 1.363 . S
C280 C281 1.363 . S
C280 C285 1.379 1_545 S
C280 N287 1.356 . S
C281 C280 1.363 . S
C281 C284 1.363 . S
N282 C284 1.356 . S
N282 H294 0.984 . S
N282 H295 0.985 . S
N283 C285 1.356 . S
N283 H288 0.984 . S
N283 H289 0.985 . S
C284 C278 1.379 1_545 S
C284 C281 1.363 . S
C284 N282 1.356 . S
C285 C279 1.363 . S
C285 C280 1.379 1_565 S
C285 N283 1.356 . S
N286 C278 1.356 . S
N286 H292 0.984 . S
N286 H293 0.984 . S
N287 C280 1.356 . S
N287 H290 0.984 . S
N287 H291 0.985 . S
H288 N283 0.984 . S
H289 N283 0.985 . S
H290 N287 0.984 . S
H291 N287 0.985 . S
H292 N286 0.984 . S
H293 N286 0.984 . S
H294 N282 0.984 . S
H295 N282 0.985 . S
C296 C297 1.363 . S
C296 C302 1.379 1_655 S
C296 N304 1.356 . S
C297 C296 1.363 . S
C297 C303 1.363 . S
C298 C299 1.363 . S
C298 C303 1.379 1_455 S
C298 N305 1.356 . S
C299 C298 1.363 . S
C299 C302 1.363 . S
N300 C302 1.356 . S
N300 H312 0.984 . S
N300 H313 0.985 . S
N301 C303 1.356 . S
N301 H306 0.984 . S
N301 H307 0.985 . S
C302 C296 1.379 1_455 S
C302 C299 1.363 . S
C302 N300 1.356 . S
C303 C297 1.363 . S
C303 C298 1.379 1_655 S
C303 N301 1.356 . S
N304 C296 1.356 . S
N304 H310 0.984 . S
N304 H311 0.984 . S
N305 C298 1.356 . S
N305 H308 0.984 . S
N305 H309 0.985 . S
H306 N301 0.984 . S
H307 N301 0.985 . S
H308 N305 0.984 . S
H309 N305 0.985 . S
H310 N304 0.984 . S
H311 N304 0.984 . S
H312 N300 0.984 . S
H313 N300 0.985 . S
C314 C315 1.363 . S
C314 C320 1.379 1_545 S
C314 N322 1.356 . S
C315 C314 1.363 . S
C315 C321 1.363 . S
C316 C317 1.363 . S
C316 C321 1.379 1_565 S
C316 N323 1.356 . S
C317 C316 1.363 . S
C317 C320 1.363 . S
N318 C320 1.356 . S
N318 H330 0.984 . S
N318 H331 0.985 . S
N319 C321 1.356 . S
N319 H324 0.984 . S
N319 H325 0.985 . S
C320 C314 1.379 1_565 S
C320 C317 1.363 . S
C320 N318 1.356 . S
C321 C315 1.363 . S
C321 C316 1.379 1_545 S
C321 N319 1.356 . S
N322 C314 1.356 . S
N322 H328 0.984 . S
N322 H329 0.984 . S
N323 C316 1.356 . S
N323 H326 0.984 . S
N323 H327 0.985 . S
H324 N319 0.984 . S
H325 N319 0.985 . S
H326 N323 0.984 . S
H327 N323 0.985 . S
H328 N322 0.984 . S
H329 N322 0.984 . S
H330 N318 0.984 . S
H331 N318 0.985 . S
C332 C333 1.363 . S
C332 C338 1.379 1_655 S
C332 N340 1.356 . S
C333 C332 1.363 . S
C333 C339 1.363 . S
C334 C335 1.363 . S
C334 C339 1.379 1_455 S
C334 N341 1.356 . S
C335 C334 1.363 . S
C335 C338 1.363 . S
N336 C338 1.356 . S
N336 H348 0.984 . S
N336 H349 0.985 . S
N337 C339 1.356 . S
N337 H342 0.984 . S
N337 H343 0.985 . S
C338 C332 1.379 1_455 S
C338 C335 1.363 . S
C338 N336 1.356 . S
C339 C333 1.363 . S
C339 C334 1.379 1_655 S
C339 N337 1.356 . S
N340 C332 1.356 . S
N340 H346 0.984 . S
N340 H347 0.984 . S
N341 C334 1.356 . S
N341 H344 0.984 . S
N341 H345 0.985 . S
H342 N337 0.984 . S
H343 N337 0.985 . S
H344 N341 0.984 . S
H345 N341 0.985 . S
H346 N340 0.984 . S
H347 N340 0.984 . S
H348 N336 0.984 . S
H349 N336 0.985 . S
C350 C351 1.363 . S
C350 C356 1.379 1_545 S
C350 N358 1.356 . S
C351 C350 1.363 . S
C351 C357 1.363 . S
C352 C353 1.363 . S
C352 C357 1.379 1_565 S
C352 N359 1.356 . S
C353 C352 1.363 . S
C353 C356 1.363 . S
N354 C356 1.356 . S
N354 H366 0.984 . S
N354 H367 0.985 . S
N355 C357 1.356 . S
N355 H360 0.984 . S
N355 H361 0.985 . S
C356 C350 1.379 1_565 S
C356 C353 1.363 . S
C356 N354 1.356 . S
C357 C351 1.363 . S
C357 C352 1.379 1_545 S
C357 N355 1.356 . S
N358 C350 1.356 . S
N358 H364 0.984 . S
N358 H365 0.984 . S
N359 C352 1.356 . S
N359 H362 0.984 . S
N359 H363 0.985 . S
H360 N355 0.984 . S
H361 N355 0.985 . S
H362 N359 0.984 . S
H363 N359 0.985 . S
H364 N358 0.984 . S
H365 N358 0.984 . S
H366 N354 0.984 . S
H367 N354 0.985 . S
C368 C369 1.363 . S
C368 C374 1.379 . S
C368 N376 1.356 . S
C369 C368 1.363 . S
C369 C375 1.363 . S
C370 C371 1.363 . S
C370 C375 1.379 . S
C370 N377 1.356 . S
C371 C370 1.363 . S
C371 C374 1.363 . S
N372 C374 1.356 . S
N372 H384 0.984 . S
N372 H385 0.985 . S
N373 C375 1.356 . S
N373 H378 0.984 . S
N373 H379 0.985 . S
C374 C368 1.379 . S
C374 C371 1.363 . S
C374 N372 1.356 . S
C375 C369 1.363 . S
C375 C370 1.379 . S
C375 N373 1.356 . S
N376 C368 1.356 . S
N376 H382 0.984 . S
N376 H383 0.984 . S
N377 C370 1.356 . S
N377 H380 0.984 . S
N377 H381 0.985 . S
H378 N373 0.984 . S
H379 N373 0.985 . S
H380 N377 0.984 . S
H381 N377 0.985 . S
H382 N376 0.984 . S
H383 N376 0.984 . S
H384 N372 0.984 . S
H385 N372 0.985 . S
C386 C387 1.363 . S
C386 C392 1.379 . S
C386 N394 1.356 . S
C387 C386 1.363 . S
C387 C393 1.363 . S
C388 C389 1.363 . S
C388 C393 1.379 . S
C388 N395 1.356 . S
C389 C388 1.363 . S
C389 C392 1.363 . S
N390 C392 1.356 . S
N390 H402 0.984 . S
N390 H403 0.985 . S
N391 C393 1.356 . S
N391 H396 0.984 . S
N391 H397 0.985 . S
C392 C386 1.379 . S
C392 C389 1.363 . S
C392 N390 1.356 . S
C393 C387 1.363 . S
C393 C388 1.379 . S
C393 N391 1.356 . S
N394 C386 1.356 . S
N394 H400 0.984 . S
N394 H401 0.984 . S
N395 C388 1.356 . S
N395 H398 0.984 . S
N395 H399 0.985 . S
H396 N391 0.984 . S
H397 N391 0.985 . S
H398 N395 0.984 . S
H399 N395 0.985 . S
H400 N394 0.984 . S
H401 N394 0.984 . S
H402 N390 0.984 . S
H403 N390 0.985 . S
C404 C405 1.363 . S
C404 C410 1.379 . S
C404 N412 1.356 . S
C405 C404 1.363 . S
C405 C411 1.363 . S
C406 C407 1.363 . S
C406 C411 1.379 . S
C406 N413 1.356 . S
C407 C406 1.363 . S
C407 C410 1.363 . S
N408 C410 1.356 . S
N408 H420 0.984 . S
N408 H421 0.985 . S
N409 C411 1.356 . S
N409 H414 0.984 . S
N409 H415 0.985 . S
C410 C404 1.379 . S
C410 C407 1.363 . S
C410 N408 1.356 . S
C411 C405 1.363 . S
C411 C406 1.379 . S
C411 N409 1.356 . S
N412 C404 1.356 . S
N412 H418 0.984 . S
N412 H419 0.984 . S
N413 C406 1.356 . S
N413 H416 0.984 . S
N413 H417 0.985 . S
H414 N409 0.984 . S
H415 N409 0.985 . S
H416 N413 0.984 . S
H417 N413 0.985 . S
H418 N412 0.984 . S
H419 N412 0.984 . S
H420 N408 0.984 . S
H421 N408 0.985 . S
C422 C423 1.363 . S
C422 C428 1.379 . S
C422 N430 1.356 . S
C423 C422 1.363 . S
C423 C429 1.363 . S
C424 C425 1.363 . S
C424 C429 1.379 . S
C424 N431 1.356 . S
C425 C424 1.363 . S
C425 C428 1.363 . S
N426 C428 1.356 . S
N426 H438 0.984 . S
N426 H439 0.985 . S
N427 C429 1.356 . S
N427 H432 0.984 . S
N427 H433 0.985 . S
C428 C422 1.379 . S
C428 C425 1.363 . S
C428 N426 1.356 . S
C429 C423 1.363 . S
C429 C424 1.379 . S
C429 N427 1.356 . S
N430 C422 1.356 . S
N430 H436 0.984 . S
N430 H437 0.984 . S
N431 C424 1.356 . S
N431 H434 0.984 . S
N431 H435 0.985 . S
H432 N427 0.984 . S
H433 N427 0.985 . S
H434 N431 0.984 . S
H435 N431 0.985 . S
H436 N430 0.984 . S
H437 N430 0.984 . S
H438 N426 0.984 . S
H439 N426 0.985 . S
C440 C441 1.363 . S
C440 C446 1.379 . S
C440 N448 1.356 . S
C441 C440 1.363 . S
C441 C447 1.363 . S
C442 C443 1.363 . S
C442 C447 1.379 . S
C442 N449 1.356 . S
C443 C442 1.363 . S
C443 C446 1.363 . S
N444 C446 1.356 . S
N444 H456 0.984 . S
N444 H457 0.985 . S
N445 C447 1.356 . S
N445 H450 0.984 . S
N445 H451 0.985 . S
C446 C440 1.379 . S
C446 C443 1.363 . S
C446 N444 1.356 . S
C447 C441 1.363 . S
C447 C442 1.379 . S
C447 N445 1.356 . S
N448 C440 1.356 . S
N448 H454 0.984 . S
N448 H455 0.984 . S
N449 C442 1.356 . S
N449 H452 0.984 . S
N449 H453 0.985 . S
H450 N445 0.984 . S
H451 N445 0.985 . S
H452 N449 0.984 . S
H453 N449 0.985 . S
H454 N448 0.984 . S
H455 N448 0.984 . S
H456 N444 0.984 . S
H457 N444 0.985 . S
C458 C459 1.363 . S
C458 C464 1.379 . S
C458 N466 1.356 . S
C459 C458 1.363 . S
C459 C465 1.363 . S
C460 C461 1.363 . S
C460 C465 1.379 . S
C460 N467 1.356 . S
C461 C460 1.363 . S
C461 C464 1.363 . S
N462 C464 1.356 . S
N462 H474 0.984 . S
N462 H475 0.985 . S
N463 C465 1.356 . S
N463 H468 0.984 . S
N463 H469 0.985 . S
C464 C458 1.379 . S
C464 C461 1.363 . S
C464 N462 1.356 . S
C465 C459 1.363 . S
C465 C460 1.379 . S
C465 N463 1.356 . S
N466 C458 1.356 . S
N466 H472 0.984 . S
N466 H473 0.984 . S
N467 C460 1.356 . S
N467 H470 0.984 . S
N467 H471 0.985 . S
H468 N463 0.984 . S
H469 N463 0.985 . S
H470 N467 0.984 . S
H471 N467 0.985 . S
H472 N466 0.984 . S
H473 N466 0.984 . S
H474 N462 0.984 . S
H475 N462 0.985 . S
C476 C477 1.363 . S
C476 C482 1.379 . S
C476 N484 1.356 . S
C477 C476 1.363 . S
C477 C483 1.363 . S
C478 C479 1.363 . S
C478 C483 1.379 . S
C478 N485 1.356 . S
C479 C478 1.363 . S
C479 C482 1.363 . S
N480 C482 1.356 . S
N480 H492 0.984 . S
N480 H493 0.985 . S
N481 C483 1.356 . S
N481 H486 0.984 . S
N481 H487 0.985 . S
C482 C476 1.379 . S
C482 C479 1.363 . S
C482 N480 1.356 . S
C483 C477 1.363 . S
C483 C478 1.379 . S
C483 N481 1.356 . S
N484 C476 1.356 . S
N484 H490 0.984 . S
N484 H491 0.984 . S
N485 C478 1.356 . S
N485 H488 0.984 . S
N485 H489 0.985 . S
H486 N481 0.984 . S
H487 N481 0.985 . S
H488 N485 0.984 . S
H489 N485 0.985 . S
H490 N484 0.984 . S
H491 N484 0.984 . S
H492 N480 0.984 . S
H493 N480 0.985 . S
C494 C495 1.363 . S
C494 C500 1.379 . S
C494 N502 1.356 . S
C495 C494 1.363 . S
C495 C501 1.363 . S
C496 C497 1.363 . S
C496 C501 1.379 . S
C496 N503 1.356 . S
C497 C496 1.363 . S
C497 C500 1.363 . S
N498 C500 1.356 . S
N498 H510 0.984 . S
N498 H511 0.985 . S
N499 C501 1.356 . S
N499 H504 0.984 . S
N499 H505 0.985 . S
C500 C494 1.379 . S
C500 C497 1.363 . S
C500 N498 1.356 . S
C501 C495 1.363 . S
C501 C496 1.379 . S
C501 N499 1.356 . S
N502 C494 1.356 . S
N502 H508 0.984 . S
N502 H509 0.984 . S
N503 C496 1.356 . S
N503 H506 0.984 . S
N503 H507 0.985 . S
H504 N499 0.984 . S
H505 N499 0.985 . S
H506 N503 0.984 . S
H507 N503 0.985 . S
H508 N502 0.984 . S
H509 N502 0.984 . S
H510 N498 0.984 . S
H511 N498 0.985 . S
C512 C513 1.363 . S
C512 C518 1.379 1_556 S
C512 N520 1.356 . S
C513 C512 1.363 . S
C513 C519 1.363 . S
C514 C515 1.363 . S
C514 C519 1.379 1_554 S
C514 N521 1.356 . S
C515 C514 1.363 . S
C515 C518 1.363 . S
N516 C518 1.356 . S
N516 H528 0.984 . S
N516 H529 0.985 . S
N517 C519 1.356 . S
N517 H522 0.984 . S
N517 H523 0.985 . S
C518 C512 1.379 1_554 S
C518 C515 1.363 . S
C518 N516 1.356 . S
C519 C513 1.363 . S
C519 C514 1.379 1_556 S
C519 N517 1.356 . S
N520 C512 1.356 . S
N520 H526 0.984 . S
N520 H527 0.984 . S
N521 C514 1.356 . S
N521 H524 0.984 . S
N521 H525 0.985 . S
H522 N517 0.984 . S
H523 N517 0.985 . S
H524 N521 0.984 . S
H525 N521 0.985 . S
H526 N520 0.984 . S
H527 N520 0.984 . S
H528 N516 0.984 . S
H529 N516 0.985 . S
C530 C531 1.363 . S
C530 C536 1.379 . S
C530 N538 1.356 . S
C531 C530 1.363 . S
C531 C537 1.363 . S
C532 C533 1.363 . S
C532 C537 1.379 . S
C532 N539 1.356 . S
C533 C532 1.363 . S
C533 C536 1.363 . S
N534 C536 1.356 . S
N534 H546 0.984 . S
N534 H547 0.985 . S
N535 C537 1.356 . S
N535 H540 0.984 . S
N535 H541 0.985 . S
C536 C530 1.379 . S
C536 C533 1.363 . S
C536 N534 1.356 . S
C537 C531 1.363 . S
C537 C532 1.379 . S
C537 N535 1.356 . S
N538 C530 1.356 . S
N538 H544 0.984 . S
N538 H545 0.984 . S
N539 C532 1.356 . S
N539 H542 0.984 . S
N539 H543 0.985 . S
H540 N535 0.984 . S
H541 N535 0.985 . S
H542 N539 0.984 . S
H543 N539 0.985 . S
H544 N538 0.984 . S
H545 N538 0.984 . S
H546 N534 0.984 . S
H547 N534 0.985 . S
C548 C549 1.363 . S
C548 C554 1.379 1_554 S
C548 N556 1.356 . S
C549 C548 1.363 . S
C549 C555 1.363 . S
C550 C551 1.363 . S
C550 C555 1.379 1_556 S
C550 N557 1.356 . S
C551 C550 1.363 . S
C551 C554 1.363 . S
N552 C554 1.356 . S
N552 H564 0.984 . S
N552 H565 0.985 . S
N553 C555 1.356 . S
N553 H558 0.984 . S
N553 H559 0.985 . S
C554 C548 1.379 1_556 S
C554 C551 1.363 . S
C554 N552 1.356 . S
C555 C549 1.363 . S
C555 C550 1.379 1_554 S
C555 N553 1.356 . S
N556 C548 1.356 . S
N556 H562 0.984 . S
N556 H563 0.984 . S
N557 C550 1.356 . S
N557 H560 0.984 . S
N557 H561 0.985 . S
H558 N553 0.984 . S
H559 N553 0.985 . S
H560 N557 0.984 . S
H561 N557 0.985 . S
H562 N556 0.984 . S
H563 N556 0.984 . S
H564 N552 0.984 . S
H565 N552 0.985 . S
C566 C567 1.363 . S
C566 C572 1.379 . S
C566 N574 1.356 . S
C567 C566 1.363 . S
C567 C573 1.363 . S
C568 C569 1.363 . S
C568 C573 1.379 . S
C568 N575 1.356 . S
C569 C568 1.363 . S
C569 C572 1.363 . S
N570 C572 1.356 . S
N570 H582 0.984 . S
N570 H583 0.985 . S
N571 C573 1.356 . S
N571 H576 0.984 . S
N571 H577 0.985 . S
C572 C566 1.379 . S
C572 C569 1.363 . S
C572 N570 1.356 . S
C573 C567 1.363 . S
C573 C568 1.379 . S
C573 N571 1.356 . S
N574 C566 1.356 . S
N574 H580 0.984 . S
N574 H581 0.984 . S
N575 C568 1.356 . S
N575 H578 0.984 . S
N575 H579 0.985 . S
H576 N571 0.984 . S
H577 N571 0.985 . S
H578 N575 0.984 . S
H579 N575 0.985 . S
H580 N574 0.984 . S
H581 N574 0.984 . S
H582 N570 0.984 . S
H583 N570 0.985 . S
C584 C585 1.363 . S
C584 C590 1.379 . S
C584 N592 1.356 . S
C585 C584 1.363 . S
C585 C591 1.363 . S
C586 C587 1.363 . S
C586 C591 1.379 . S
C586 N593 1.356 . S
C587 C586 1.363 . S
C587 C590 1.363 . S
N588 C590 1.356 . S
N588 H600 0.984 . S
N588 H601 0.985 . S
N589 C591 1.356 . S
N589 H594 0.984 . S
N589 H595 0.985 . S
C590 C584 1.379 . S
C590 C587 1.363 . S
C590 N588 1.356 . S
C591 C585 1.363 . S
C591 C586 1.379 . S
C591 N589 1.356 . S
N592 C584 1.356 . S
N592 H598 0.984 . S
N592 H599 0.984 . S
N593 C586 1.356 . S
N593 H596 0.984 . S
N593 H597 0.985 . S
H594 N589 0.984 . S
H595 N589 0.985 . S
H596 N593 0.984 . S
H597 N593 0.985 . S
H598 N592 0.984 . S
H599 N592 0.984 . S
H600 N588 0.984 . S
H601 N588 0.985 . S
C602 C603 1.363 . S
C602 C608 1.379 1_556 S
C602 N610 1.356 . S
C603 C602 1.363 . S
C603 C609 1.363 . S
C604 C605 1.363 . S
C604 C609 1.379 1_554 S
C604 N611 1.356 . S
C605 C604 1.363 . S
C605 C608 1.363 . S
N606 C608 1.356 . S
N606 H618 0.984 . S
N606 H619 0.985 . S
N607 C609 1.356 . S
N607 H612 0.984 . S
N607 H613 0.985 . S
C608 C602 1.379 1_554 S
C608 C605 1.363 . S
C608 N606 1.356 . S
C609 C603 1.363 . S
C609 C604 1.379 1_556 S
C609 N607 1.356 . S
N610 C602 1.356 . S
N610 H616 0.984 . S
N610 H617 0.984 . S
N611 C604 1.356 . S
N611 H614 0.984 . S
N611 H615 0.985 . S
H612 N607 0.984 . S
H613 N607 0.985 . S
H614 N611 0.984 . S
H615 N611 0.985 . S
H616 N610 0.984 . S
H617 N610 0.984 . S
H618 N606 0.984 . S
H619 N606 0.985 . S
C620 C621 1.363 . S
C620 C626 1.379 . S
C620 N628 1.356 . S
C621 C620 1.363 . S
C621 C627 1.363 . S
C622 C623 1.363 . S
C622 C627 1.379 . S
C622 N629 1.356 . S
C623 C622 1.363 . S
C623 C626 1.363 . S
N624 C626 1.356 . S
N624 H636 0.984 . S
N624 H637 0.985 . S
N625 C627 1.356 . S
N625 H630 0.984 . S
N625 H631 0.985 . S
C626 C620 1.379 . S
C626 C623 1.363 . S
C626 N624 1.356 . S
C627 C621 1.363 . S
C627 C622 1.379 . S
C627 N625 1.356 . S
N628 C620 1.356 . S
N628 H634 0.984 . S
N628 H635 0.984 . S
N629 C622 1.356 . S
N629 H632 0.984 . S
N629 H633 0.985 . S
H630 N625 0.984 . S
H631 N625 0.985 . S
H632 N629 0.984 . S
H633 N629 0.985 . S
H634 N628 0.984 . S
H635 N628 0.984 . S
H636 N624 0.984 . S
H637 N624 0.985 . S
C638 C639 1.363 . S
C638 C644 1.379 1_554 S
C638 N646 1.356 . S
C639 C638 1.363 . S
C639 C645 1.363 . S
C640 C641 1.363 . S
C640 C645 1.379 1_556 S
C640 N647 1.356 . S
C641 C640 1.363 . S
C641 C644 1.363 . S
N642 C644 1.356 . S
N642 H654 0.984 . S
N642 H655 0.985 . S
N643 C645 1.356 . S
N643 H648 0.984 . S
N643 H649 0.985 . S
C644 C638 1.379 1_556 S
C644 C641 1.363 . S
C644 N642 1.356 . S
C645 C639 1.363 . S
C645 C640 1.379 1_554 S
C645 N643 1.356 . S
N646 C638 1.356 . S
N646 H652 0.984 . S
N646 H653 0.984 . S
N647 C640 1.356 . S
N647 H650 0.984 . S
N647 H651 0.985 . S
H648 N643 0.984 . S
H649 N643 0.985 . S
H650 N647 0.984 . S
H651 N647 0.985 . S
H652 N646 0.984 . S
H653 N646 0.984 . S
H654 N642 0.984 . S
H655 N642 0.985 . S
C656 C657 1.363 . S
C656 C662 1.379 . S
C656 N664 1.356 . S
C657 C656 1.363 . S
C657 C663 1.363 . S
C658 C659 1.363 . S
C658 C663 1.379 . S
C658 N665 1.356 . S
C659 C658 1.363 . S
C659 C662 1.363 . S
N660 C662 1.356 . S
N660 H672 0.984 . S
N660 H673 0.985 . S
N661 C663 1.356 . S
N661 H666 0.984 . S
N661 H667 0.985 . S
C662 C656 1.379 . S
C662 C659 1.363 . S
C662 N660 1.356 . S
C663 C657 1.363 . S
C663 C658 1.379 . S
C663 N661 1.356 . S
N664 C656 1.356 . S
N664 H670 0.984 . S
N664 H671 0.984 . S
N665 C658 1.356 . S
N665 H668 0.984 . S
N665 H669 0.985 . S
H666 N661 0.984 . S
H667 N661 0.985 . S
H668 N665 0.984 . S
H669 N665 0.985 . S
H670 N664 0.984 . S
H671 N664 0.984 . S
H672 N660 0.984 . S
H673 N660 0.985 . S
C674 C675 1.363 . S
C674 C680 1.379 . S
C674 N682 1.356 . S
C675 C674 1.363 . S
C675 C681 1.363 . S
C676 C677 1.363 . S
C676 C681 1.379 . S
C676 N683 1.356 . S
C677 C676 1.363 . S
C677 C680 1.363 . S
N678 C680 1.356 . S
N678 H690 0.984 . S
N678 H691 0.985 . S
N679 C681 1.356 . S
N679 H684 0.984 . S
N679 H685 0.985 . S
C680 C674 1.379 . S
C680 C677 1.363 . S
C680 N678 1.356 . S
C681 C675 1.363 . S
C681 C676 1.379 . S
C681 N679 1.356 . S
N682 C674 1.356 . S
N682 H688 0.984 . S
N682 H689 0.984 . S
N683 C676 1.356 . S
N683 H686 0.984 . S
N683 H687 0.985 . S
H684 N679 0.984 . S
H685 N679 0.985 . S
H686 N683 0.984 . S
H687 N683 0.985 . S
H688 N682 0.984 . S
H689 N682 0.984 . S
H690 N678 0.984 . S
H691 N678 0.985 . S
C692 C693 1.363 . S
C692 C698 1.379 . S
C692 N700 1.356 . S
C693 C692 1.363 . S
C693 C699 1.363 . S
C694 C695 1.363 . S
C694 C699 1.379 . S
C694 N701 1.356 . S
C695 C694 1.363 . S
C695 C698 1.363 . S
N696 C698 1.356 . S
N696 H708 0.984 . S
N696 H709 0.985 . S
N697 C699 1.356 . S
N697 H702 0.984 . S
N697 H703 0.985 . S
C698 C692 1.379 . S
C698 C695 1.363 . S
C698 N696 1.356 . S
C699 C693 1.363 . S
C699 C694 1.379 . S
C699 N697 1.356 . S
N700 C692 1.356 . S
N700 H706 0.984 . S
N700 H707 0.984 . S
N701 C694 1.356 . S
N701 H704 0.984 . S
N701 H705 0.985 . S
H702 N697 0.984 . S
H703 N697 0.985 . S
H704 N701 0.984 . S
H705 N701 0.985 . S
H706 N700 0.984 . S
H707 N700 0.984 . S
H708 N696 0.984 . S
H709 N696 0.985 . S
C710 C711 1.363 . S
C710 C716 1.379 . S
C710 N718 1.356 . S
C711 C710 1.363 . S
C711 C717 1.363 . S
C712 C713 1.363 . S
C712 C717 1.379 . S
C712 N719 1.356 . S
C713 C712 1.363 . S
C713 C716 1.363 . S
N714 C716 1.356 . S
N714 H726 0.984 . S
N714 H727 0.985 . S
N715 C717 1.356 . S
N715 H720 0.984 . S
N715 H721 0.985 . S
C716 C710 1.379 . S
C716 C713 1.363 . S
C716 N714 1.356 . S
C717 C711 1.363 . S
C717 C712 1.379 . S
C717 N715 1.356 . S
N718 C710 1.356 . S
N718 H724 0.984 . S
N718 H725 0.984 . S
N719 C712 1.356 . S
N719 H722 0.984 . S
N719 H723 0.985 . S
H720 N715 0.984 . S
H721 N715 0.985 . S
H722 N719 0.984 . S
H723 N719 0.985 . S
H724 N718 0.984 . S
H725 N718 0.984 . S
H726 N714 0.984 . S
H727 N714 0.985 . S
C728 C729 1.363 . S
C728 C734 1.379 . S
C728 N736 1.356 . S
C729 C728 1.363 . S
C729 C735 1.363 . S
C730 C731 1.363 . S
C730 C735 1.379 . S
C730 N737 1.356 . S
C731 C730 1.363 . S
C731 C734 1.363 . S
N732 C734 1.356 . S
N732 H744 0.984 . S
N732 H745 0.985 . S
N733 C735 1.356 . S
N733 H738 0.984 . S
N733 H739 0.985 . S
C734 C728 1.379 . S
C734 C731 1.363 . S
C734 N732 1.356 . S
C735 C729 1.363 . S
C735 C730 1.379 . S
C735 N733 1.356 . S
N736 C728 1.356 . S
N736 H742 0.984 . S
N736 H743 0.984 . S
N737 C730 1.356 . S
N737 H740 0.984 . S
N737 H741 0.985 . S
H738 N733 0.984 . S
H739 N733 0.985 . S
H740 N737 0.984 . S
H741 N737 0.985 . S
H742 N736 0.984 . S
H743 N736 0.984 . S
H744 N732 0.984 . S
H745 N732 0.985 . S
C746 C747 1.363 . S
C746 C752 1.379 . S
C746 N754 1.356 . S
C747 C746 1.363 . S
C747 C753 1.363 . S
C748 C749 1.363 . S
C748 C753 1.379 . S
C748 N755 1.356 . S
C749 C748 1.363 . S
C749 C752 1.363 . S
N750 C752 1.356 . S
N750 H762 0.984 . S
N750 H763 0.985 . S
N751 C753 1.356 . S
N751 H756 0.984 . S
N751 H757 0.985 . S
C752 C746 1.379 . S
C752 C749 1.363 . S
C752 N750 1.356 . S
C753 C747 1.363 . S
C753 C748 1.379 . S
C753 N751 1.356 . S
N754 C746 1.356 . S
N754 H760 0.984 . S
N754 H761 0.984 . S
N755 C748 1.356 . S
N755 H758 0.984 . S
N755 H759 0.985 . S
H756 N751 0.984 . S
H757 N751 0.985 . S
H758 N755 0.984 . S
H759 N755 0.985 . S
H760 N754 0.984 . S
H761 N754 0.984 . S
H762 N750 0.984 . S
H763 N750 0.985 . S
C764 C765 1.363 . S
C764 C770 1.379 . S
C764 N772 1.356 . S
C765 C764 1.363 . S
C765 C771 1.363 . S
C766 C767 1.363 . S
C766 C771 1.379 . S
C766 N773 1.356 . S
C767 C766 1.363 . S
C767 C770 1.363 . S
N768 C770 1.356 . S
N768 H780 0.984 . S
N768 H781 0.985 . S
N769 C771 1.356 . S
N769 H774 0.984 . S
N769 H775 0.985 . S
C770 C764 1.379 . S
C770 C767 1.363 . S
C770 N768 1.356 . S
C771 C765 1.363 . S
C771 C766 1.379 . S
C771 N769 1.356 . S
N772 C764 1.356 . S
N772 H778 0.984 . S
N772 H779 0.984 . S
N773 C766 1.356 . S
N773 H776 0.984 . S
N773 H777 0.985 . S
H774 N769 0.984 . S
H775 N769 0.985 . S
H776 N773 0.984 . S
H777 N773 0.985 . S
H778 N772 0.984 . S
H779 N772 0.984 . S
H780 N768 0.984 . S
H781 N768 0.985 . S
C782 C783 1.363 . S
C782 C788 1.379 . S
C782 N790 1.356 . S
C783 C782 1.363 . S
C783 C789 1.363 . S
C784 C785 1.363 . S
C784 C789 1.379 . S
C784 N791 1.356 . S
C785 C784 1.363 . S
C785 C788 1.363 . S
N786 C788 1.356 . S
N786 H798 0.984 . S
N786 H799 0.985 . S
N787 C789 1.356 . S
N787 H792 0.984 . S
N787 H793 0.985 . S
C788 C782 1.379 . S
C788 C785 1.363 . S
C788 N786 1.356 . S
C789 C783 1.363 . S
C789 C784 1.379 . S
C789 N787 1.356 . S
N790 C782 1.356 . S
N790 H796 0.984 . S
N790 H797 0.984 . S
N791 C784 1.356 . S
N791 H794 0.984 . S
N791 H795 0.985 . S
H792 N787 0.984 . S
H793 N787 0.985 . S
H794 N791 0.984 . S
H795 N791 0.985 . S
H796 N790 0.984 . S
H797 N790 0.984 . S
H798 N786 0.984 . S
H799 N786 0.985 . S
C225 C5 1.413 . S
C227 C33 1.413 . S
C243 C47 1.413 . S
C245 C19 1.413 . S
C261 C61 1.413 . S
C263 C89 1.413 . S
C279 C103 1.413 . S
C281 C75 1.413 . S
C297 C117 1.413 . S
C299 C145 1.413 . S
C315 C159 1.413 . S
C317 C131 1.413 . S
C333 C173 1.413 . S
C335 C201 1.413 . S
C351 C215 1.413 . S
C353 C187 1.413 . S
C369 C56 1.538 . S
C371 C0 1.538 . S
C387 C14 1.539 . S
C389 C70 1.538 . S
C405 C28 1.539 . S
C407 C84 1.539 . S
C423 C98 1.538 . S
C425 C42 1.538 . S
C441 C112 1.538 . S
C443 C168 1.538 . S
C459 C126 1.539 . S
C461 C182 1.538 . S
C477 C140 1.538 . S
C479 C196 1.539 . S
C495 C154 1.538 . S
C497 C210 1.538 . S
C513 C149 1.338 . S
C515 C9 1.338 . S
C531 C163 1.338 . S
C533 C23 1.338 . S
C549 C37 1.338 . S
C551 C121 1.338 . S
C567 C51 1.338 . S
C569 C135 1.338 . S
C585 C65 1.338 . S
C587 C205 1.338 . S
C603 C79 1.338 . S
C605 C219 1.338 . S
C621 C93 1.338 . S
C623 C177 1.338 . S
C639 C191 1.338 . S
C641 C107 1.338 . S
C657 C11 1.413 . S
C659 C221 1.413 . S
C675 C179 1.413 . S
C677 C25 1.413 . S
C693 C39 1.413 . S
C695 C193 1.413 . S
C711 C207 1.413 . S
C713 C53 1.413 . S
C729 C137 1.413 . S
C731 C67 1.413 . S
C747 C81 1.413 . S
C749 C151 1.413 . S
C765 C165 1.413 . S
C767 C95 1.413 . S
C783 C123 1.413 . S
C785 C109 1.413 . S
