# Generated by pormake.
# Topology nfc, (4)-cn, num edge types: 1
# Building blocks:
#     Node 0, Type 0, BuildingBlock: NAWXER_clean_sbu_0, # of connection points: 4
#     Node 1, Type 0, BuildingBlock: NAWXER_clean_sbu_0, # of connection points: 4
#     Node 2, Type 0, BuildingBlock: NAWXER_clean_sbu_0, # of connection points: 4
#     Node 3, Type 0, BuildingBlock: NAWXER_clean_sbu_0, # of connection points: 4
#     Node 4, Type 0, BuildingBlock: NAWXER_clean_sbu_0, # of connection points: 4
#     Node 5, Type 0, BuildingBlock: NAWXER_clean_sbu_0, # of connection points: 4
#     Node 6, Type 0, BuildingBlock: NAWXER_clean_sbu_0, # of connection points: 4
#     Node 7, Type 0, BuildingBlock: NAWXER_clean_sbu_0, # of connection points: 4
#     Node 8, Type 0, BuildingBlock: NAWXER_clean_sbu_0, # of connection points: 4
#     Node 9, Type 0, BuildingBlock: NAWXER_clean_sbu_0, # of connection points: 4
#     Node 10, Type 0, BuildingBlock: NAWXER_clean_sbu_0, # of connection points: 4
#     Node 11, Type 0, BuildingBlock: NAWXER_clean_sbu_0, # of connection points: 4
#     Node 12, Type 0, BuildingBlock: NAWXER_clean_sbu_0, # of connection points: 4
#     Node 13, Type 0, BuildingBlock: NAWXER_clean_sbu_0, # of connection points: 4
#     Node 14, Type 0, BuildingBlock: NAWXER_clean_sbu_0, # of connection points: 4
#     Node 15, Type 0, BuildingBlock: NAWXER_clean_sbu_0, # of connection points: 4
#     Edge 16, Type (0, 0), BuildingBlock: UVAHIK_clean_linker_0, # of connection points: 2
#     Edge 17, Type (0, 0), BuildingBlock: UVAHIK_clean_linker_0, # of connection points: 2
#     Edge 18, Type (0, 0), BuildingBlock: UVAHIK_clean_linker_0, # of connection points: 2
#     Edge 19, Type (0, 0), BuildingBlock: UVAHIK_clean_linker_0, # of connection points: 2
#     Edge 20, Type (0, 0), BuildingBlock: UVAHIK_clean_linker_0, # of connection points: 2
#     Edge 21, Type (0, 0), BuildingBlock: UVAHIK_clean_linker_0, # of connection points: 2
#     Edge 22, Type (0, 0), BuildingBlock: UVAHIK_clean_linker_0, # of connection points: 2
#     Edge 23, Type (0, 0), BuildingBlock: UVAHIK_clean_linker_0, # of connection points: 2
#     Edge 24, Type (0, 0), BuildingBlock: UVAHIK_clean_linker_0, # of connection points: 2
#     Edge 25, Type (0, 0), BuildingBlock: UVAHIK_clean_linker_0, # of connection points: 2
#     Edge 26, Type (0, 0), BuildingBlock: UVAHIK_clean_linker_0, # of connection points: 2
#     Edge 27, Type (0, 0), BuildingBlock: UVAHIK_clean_linker_0, # of connection points: 2
#     Edge 28, Type (0, 0), BuildingBlock: UVAHIK_clean_linker_0, # of connection points: 2
#     Edge 29, Type (0, 0), BuildingBlock: UVAHIK_clean_linker_0, # of connection points: 2
#     Edge 30, Type (0, 0), BuildingBlock: UVAHIK_clean_linker_0, # of connection points: 2
#     Edge 31, Type (0, 0), BuildingBlock: UVAHIK_clean_linker_0, # of connection points: 2
#     Edge 32, Type (0, 0), BuildingBlock: UVAHIK_clean_linker_0, # of connection points: 2
#     Edge 33, Type (0, 0), BuildingBlock: UVAHIK_clean_linker_0, # of connection points: 2
#     Edge 34, Type (0, 0), BuildingBlock: UVAHIK_clean_linker_0, # of connection points: 2
#     Edge 35, Type (0, 0), BuildingBlock: UVAHIK_clean_linker_0, # of connection points: 2
#     Edge 36, Type (0, 0), BuildingBlock: UVAHIK_clean_linker_0, # of connection points: 2
#     Edge 37, Type (0, 0), BuildingBlock: UVAHIK_clean_linker_0, # of connection points: 2
#     Edge 38, Type (0, 0), BuildingBlock: UVAHIK_clean_linker_0, # of connection points: 2
#     Edge 39, Type (0, 0), BuildingBlock: UVAHIK_clean_linker_0, # of connection points: 2
#     Edge 40, Type (0, 0), BuildingBlock: UVAHIK_clean_linker_0, # of connection points: 2
#     Edge 41, Type (0, 0), BuildingBlock: UVAHIK_clean_linker_0, # of connection points: 2
#     Edge 42, Type (0, 0), BuildingBlock: UVAHIK_clean_linker_0, # of connection points: 2
#     Edge 43, Type (0, 0), BuildingBlock: UVAHIK_clean_linker_0, # of connection points: 2
#     Edge 44, Type (0, 0), BuildingBlock: UVAHIK_clean_linker_0, # of connection points: 2
#     Edge 45, Type (0, 0), BuildingBlock: UVAHIK_clean_linker_0, # of connection points: 2
#     Edge 46, Type (0, 0), BuildingBlock: UVAHIK_clean_linker_0, # of connection points: 2
#     Edge 47, Type (0, 0), BuildingBlock: UVAHIK_clean_linker_0, # of connection points: 2
# Relax obj value: 0.157
# Max RMSD: 0.167
# Mean RMSD: 0.167
data_MOF--net-nfc--node1-NAWXER_clean_sbu_0--edge1-UVAHIK_clean_linker_0
_symmetry_space_group_name_H-M    P1
_symmetry_Int_Tables_number       1
_symmetry_cell_setting            triclinic
loop_
_symmetry_equiv_pos_as_xyz
'x, y, z'
_cell_length_a     48.116757
_cell_length_b     48.264122
_cell_length_c     35.420572
_cell_angle_alpha  89.856602
_cell_angle_beta   90.001213
_cell_angle_gamma 90.014728
loop_
_atom_site_label
_atom_site_type_symbol
_atom_site_fract_x
_atom_site_fract_y
_atom_site_fract_z
_atom_type_partial_charge
C0 C 0.02893 0.05589 0.03762 0.0
C1 C 0.96708 0.98576 0.98418 0.0
O2 O 1.00509 0.06592 0.02876 0.0
Zn3 Zn 0.96688 0.05098 0.00478 0.0
O4 O 0.03376 0.03038 0.0319 0.0
Zn5 Zn 0.99822 0.02021 0.01102 0.0
O6 O 0.99709 0.04034 0.95737 0.0
O7 O 0.96297 0.07094 0.95782 0.0
O8 O 0.99195 0.98221 -0.00452 0.0
O9 O 0.95593 0.00983 0.98655 0.0
O10 O 0.93981 0.05717 0.044 0.0
O11 O 0.96976 0.02385 0.05721 0.0
C12 C 0.98252 0.05874 0.94038 0.0
C13 C 0.94839 0.03829 0.0662 0.0
C14 C 0.20829 0.79659 0.26694 0.0
C15 C 0.26678 0.72671 0.20613 0.0
O16 O 0.19463 0.77603 0.25346 0.0
Zn17 Zn 0.20231 0.73801 0.22373 0.0
O18 O 0.23459 0.79729 0.26333 0.0
Zn19 Zn 0.23807 0.76247 0.23632 0.0
O20 O 0.21797 0.77217 0.18413 0.0
O21 O 0.18255 0.74355 0.17693 0.0
O22 O 0.27443 0.7495 0.22075 0.0
O23 O 0.2409 0.72039 0.20577 0.0
O24 O 0.18846 0.71096 0.25928 0.0
O25 O 0.22594 0.73318 0.27883 0.0
C26 C 0.19715 0.76364 0.16482 0.0
C27 C 0.20685 0.71507 0.28443 0.0
C28 C 0.55864 0.98832 0.5578 0.0
C29 C 0.50736 0.98456 0.43988 0.0
O30 O 0.53874 0.006 0.55634 0.0
Zn31 Zn 0.50604 0.01785 0.51821 0.0
O32 O 0.56233 0.97152 0.53069 0.0
Zn33 Zn 0.53242 0.985 0.4996 0.0
O34 O 0.54601 0.02613 0.48566 0.0
O35 O 0.51554 0.05637 0.50731 0.0
O36 O 0.52718 0.96896 0.45043 0.0
O37 O 0.49788 1.00296 0.46251 0.0
O38 O 0.47212 0.00844 0.54578 0.0
O39 O 0.49662 0.97168 0.53011 0.0
C40 C 0.53806 0.0513 0.48974 0.0
C41 C 0.4753 0.98228 0.54619 0.0
C42 C 0.28661 0.19488 0.76311 0.0
C43 C 0.22796 0.26844 0.71007 0.0
O44 O 0.30051 0.21523 0.7493 0.0
Zn45 Zn 0.29265 0.25435 0.72156 0.0
O46 O 0.26019 0.19543 0.76182 0.0
Zn47 Zn 0.257 0.23102 0.73643 0.0
O48 O 0.27447 0.22152 0.68216 0.0
O49 O 0.31031 0.2494 0.67358 0.0
O50 O 0.2204 0.24555 0.7246 0.0
O51 O 0.25397 0.27396 0.70751 0.0
O52 O 0.30941 0.28009 0.75587 0.0
O53 O 0.27245 0.25887 0.77905 0.0
C54 C 0.29484 0.22995 0.66178 0.0
C55 C 0.29254 0.27615 0.78294 0.0
C56 C 0.96116 0.04714 0.5195 0.0
C57 C 0.02801 0.98314 0.46304 0.0
O58 O 0.95216 0.02224 0.51665 0.0
Zn59 Zn 0.9663 0.9825 0.49775 0.0
O60 O 0.98566 0.05298 0.50846 0.0
Zn61 Zn 0.99524 0.01583 0.49185 0.0
O62 O 0.9668 0.01021 0.44587 0.0
O63 O 0.93953 0.97456 0.45876 0.0
O64 O 0.03141 0.00874 0.46994 0.0
O65 O 1.00502 0.9714 0.47211 0.0
O66 O 0.96478 0.96164 0.54428 0.0
O67 O 0.99636 0.99486 0.54477 0.0
C68 C 0.94658 0.99422 0.43678 0.0
C69 C 0.98358 0.97508 0.56155 0.0
C70 C 0.2176 0.79597 0.78345 0.0
C71 C 0.21037 0.74789 0.66387 0.0
O72 O 0.19984 0.79992 0.75743 0.0
Zn73 Zn 0.21518 0.77367 0.72255 0.0
O74 O 0.23751 0.77865 0.77836 0.0
Zn75 Zn 0.25135 0.75039 0.7351 0.0
O76 O 0.28735 0.76489 0.72019 0.0
O77 O 0.25319 0.79326 0.70546 0.0
O78 O 0.23152 0.73981 0.68295 0.0
O79 O 0.19552 0.76767 0.67604 0.0
O80 O 0.20862 0.73542 0.75324 0.0
O81 O 0.24935 0.71526 0.76185 0.0
C82 C 0.27925 0.78774 0.70613 0.0
C83 C 0.22312 0.7153 0.7665 0.0
C84 C 0.52785 0.9338 0.00872 0.0
C85 C 0.46322 0.99491 0.94084 0.0
O86 O 0.53539 0.95929 0.00764 0.0
Zn87 Zn 0.52079 0.99833 0.98607 0.0
O88 O 0.50515 0.92658 0.99307 0.0
Zn89 Zn 0.49491 0.96333 0.97491 0.0
O90 O 0.52745 0.97105 0.9345 0.0
O91 O 0.55009 0.00883 0.95202 0.0
O92 O 0.46051 0.96904 0.94657 0.0
O93 O 0.48452 0.00751 0.95405 0.0
O94 O 0.51591 0.01938 0.03166 0.0
O95 O 0.48717 0.98391 0.02727 0.0
C96 C 0.54694 0.98881 0.92919 0.0
C97 C 0.49656 1.00471 0.04573 0.0
C98 C 0.30464 0.29229 0.26773 0.0
C99 C 0.24071 0.22931 0.20339 0.0
O100 O 0.27862 0.29529 0.26295 0.0
Zn101 Zn 0.27252 0.26155 0.23484 0.0
O102 O 0.31687 0.27094 0.25401 0.0
Zn103 Zn 0.30598 0.23447 0.22216 0.0
O104 O 0.3267 0.23898 0.17609 0.0
O105 O 0.29363 0.27023 0.18303 0.0
O106 O 0.2659 0.22061 0.20294 0.0
O107 O 0.2352 0.25242 0.21877 0.0
O108 O 0.28141 0.2303 0.2764 0.0
O109 O 0.31696 0.20537 0.25635 0.0
C110 C 0.31388 0.26021 0.16395 0.0
C111 C 0.29872 0.2104 0.28136 0.0
C112 C 0.72487 0.29155 0.8031 0.0
C113 C 0.78961 0.2267 0.74384 0.0
O114 O 0.7192 0.26862 0.78731 0.0
Zn115 Zn 0.75689 0.25789 0.77457 0.0
O116 O 0.75031 0.29928 0.80569 0.0
Zn117 Zn 0.79059 0.28403 0.79048 0.0
O118 O 0.80469 0.31215 0.75645 0.0
O119 O 0.76948 0.28814 0.73341 0.0
O120 O 0.80161 0.24749 0.75935 0.0
O121 O 0.76334 0.22414 0.74631 0.0
O122 O 0.77536 0.24805 0.8279 0.0
O123 O 0.80877 0.27836 0.8385 0.0
C124 C 0.78799 0.30706 0.7295 0.0
C125 C 0.79489 0.25731 0.849 0.0
C126 C 0.79671 0.70522 0.26343 0.0
C127 C 0.72856 0.76371 0.1993 0.0
O128 O 0.80757 0.72696 0.24862 0.0
Zn129 Zn 0.79416 0.76245 0.21609 0.0
O130 O 0.77089 0.70053 0.25905 0.0
Zn131 Zn 0.76277 0.73355 0.23027 0.0
O132 O 0.78392 0.72526 0.17818 0.0
O133 O 0.81454 0.75871 0.16965 0.0
O134 O 0.72473 0.74042 0.21521 0.0
O135 O 0.75315 0.77397 0.19806 0.0
O136 O 0.80458 0.79193 0.24978 0.0
O137 O 0.77141 0.7648 0.27208 0.0
C138 C 0.80323 0.73645 0.15839 0.0
C139 C 0.78803 0.78538 0.27631 0.0
C140 C 0.80219 0.26474 0.34835 0.0
C141 C 0.78814 0.21437 0.23075 0.0
O142 O 0.783 0.27529 0.32777 0.0
Zn143 Zn 0.76253 0.26651 0.27565 0.0
O144 O 0.81422 0.24263 0.33786 0.0
Zn145 Zn 0.79453 0.23791 0.29069 0.0
O146 O 0.80759 0.27296 0.25779 0.0
O147 O 0.77104 0.29918 0.24578 0.0
O148 O 0.8053 0.20833 0.25683 0.0
O149 O 0.77135 0.23475 0.23507 0.0
O150 O 0.72445 0.25899 0.29073 0.0
O151 O 0.75358 0.22606 0.30803 0.0
C152 C 0.79691 0.29441 0.24205 0.0
C153 C 0.72878 0.23576 0.30664 0.0
C154 C 0.75134 0.72048 0.70461 0.0
C155 C 0.81315 0.7869 0.76564 0.0
O156 O 0.7449 0.74305 0.7208 0.0
Zn157 Zn 0.78197 0.75456 0.73414 0.0
O158 O 0.77699 0.71343 0.70222 0.0
Zn159 Zn 0.81678 0.72988 0.7186 0.0
O160 O 0.83115 0.7016 0.75229 0.0
O161 O 0.79456 0.72394 0.77449 0.0
O162 O 0.82626 0.76667 0.75039 0.0
O163 O 0.78686 0.78828 0.76256 0.0
O164 O 0.79995 0.76486 0.68091 0.0
O165 O 0.83496 0.73636 0.67061 0.0
C166 C 0.81345 0.70541 0.77843 0.0
C167 C 0.81988 0.7565 0.65984 0.0
C168 C 0.47731 0.49477 0.45313 0.0
C169 C 0.54478 0.55555 0.5146 0.0
O170 O 0.47026 0.52037 0.45169 0.0
Zn171 Zn 0.48685 0.55964 0.46892 0.0
O172 O 0.50017 0.48805 0.46861 0.0
Zn173 Zn 0.51196 0.52484 0.48311 0.0
O174 O 0.48174 0.53688 0.52454 0.0
O175 O 0.45885 0.57336 0.50308 0.0
O176 O 0.54632 0.52938 0.51091 0.0
O177 O 0.52411 0.56866 0.50025 0.0
O178 O 0.49275 0.57885 0.42174 0.0
O179 O 0.52195 0.54418 0.43054 0.0
C180 C 0.46309 0.55559 0.52901 0.0
C181 C 0.51323 0.56449 0.41042 0.0
C182 C 1.00429 0.52243 0.05755 0.0
C183 C 0.96195 0.51661 0.93302 0.0
O184 O 0.98628 0.53889 0.04377 0.0
Zn185 Zn 0.98473 0.5226 -0.00622 0.0
O186 O 0.01504 0.50371 0.03658 0.0
Zn187 Zn 0.01129 0.48814 0.98069 0.0
O188 O 0.04715 0.49584 0.95723 0.0
O189 O 0.0232 0.53384 0.96833 0.0
O190 O 0.98131 0.49879 0.93852 0.0
O191 O 0.9574 0.53533 0.95747 0.0
O192 O 0.96873 0.48227 0.00714 0.0
O193 O 0.99986 0.45032 0.9925 0.0
C194 C 0.04515 0.52208 0.95561 0.0
C195 C 0.97608 0.45677 0.00567 0.0
C196 C 0.46128 0.54932 0.0137 0.0
C197 C 0.52666 0.48532 0.95384 0.0
O198 O 0.45857 0.52322 0.01015 0.0
Zn199 Zn 0.49282 0.51709 0.98256 0.0
O200 O 0.48254 0.56144 -0.00068 0.0
Zn201 Zn 0.51948 0.55061 0.96832 0.0
O202 O 0.51475 0.56982 0.92107 0.0
O203 O 0.48371 0.53676 0.92978 0.0
O204 O 0.53471 0.51063 0.95228 0.0
O205 O 0.50328 0.47963 0.96862 0.0
O206 O 0.52315 0.52846 0.02454 0.0
O207 O 0.54772 0.56363 0.0024 0.0
C208 C 0.49354 0.5566 0.90969 0.0
C209 C 0.54246 0.54655 0.02883 0.0
C210 C 0.02698 0.45903 0.55384 0.0
C211 C 0.96385 0.52704 0.49652 0.0
O212 O 0.03035 0.4851 0.55154 0.0
Zn213 Zn 0.99607 0.49426 0.52511 0.0
O214 O 1.00507 0.44808 0.53972 0.0
Zn215 Zn 0.96847 0.46094 0.51065 0.0
O216 O 0.97152 0.44389 0.46116 0.0
O217 O 1.00162 0.47771 0.47017 0.0
O218 O 0.95521 0.50193 0.49498 0.0
O219 O 0.98729 0.53241 0.51159 0.0
O220 O 0.96366 0.48587 0.56478 0.0
O221 O 0.93902 0.44994 0.545 0.0
C222 C 0.99101 0.45921 0.4487 0.0
C223 C 0.94339 0.46894 0.56908 0.0
C224 C 0.943 0.01008 0.12458 0.0
C225 C 0.93383 0.0322 0.10198 0.0
C226 C 0.93036 1.0045 0.15906 0.0
C227 C 0.89455 0.04033 0.23461 0.0
H228 H 0.89936 0.96679 0.27847 0.0
C229 C 0.93869 0.0225 0.37902 0.0
C230 C 0.93173 0.99923 0.40093 0.0
C231 C 0.92622 0.02691 0.34413 0.0
C232 C 0.89703 0.98742 0.2668 0.0
H233 H 0.90331 0.06509 0.09705 0.0
H234 H 0.88114 0.05531 0.15791 0.0
H235 H 0.89917 0.97219 0.21028 0.0
H236 H 0.90508 0.96305 0.40429 0.0
H237 H 0.88319 0.97077 0.34271 0.0
H238 H 0.89308 0.0556 0.29116 0.0
C239 C 0.89828 0.04243 0.14882 0.0
C240 C 0.89728 0.99054 0.22763 0.0
C241 C 0.91101 0.04805 0.11406 0.0
C242 C 0.91106 0.98104 0.38784 0.0
C243 C 0.89851 0.98547 0.35265 0.0
C244 C 0.89385 0.03719 0.27377 0.0
C245 C 0.90812 0.0208 0.17194 0.0
C246 C 0.89816 0.01712 0.21128 0.0
C247 C 0.90636 0.00823 0.33012 0.0
C248 C 0.8972 0.01085 0.29026 0.0
H249 H 0.9604 0.99732 0.1161 0.0
H250 H 0.939 0.9881 0.17639 0.0
H251 H 0.89489 0.06111 0.22301 0.0
H252 H 0.95436 0.03707 0.38832 0.0
H253 H 0.93331 0.04432 0.32733 0.0
C254 C 0.17985 0.69051 0.33506 0.0
C255 C 0.20503 0.70162 0.3218 0.0
C256 C 0.17687 0.68344 0.37322 0.0
C257 C 0.17078 0.69802 0.45612 0.0
H258 H 0.23348 0.67869 0.51955 0.0
C259 C 0.18782 0.74782 0.6003 0.0
C260 C 0.2036 0.73413 0.62791 0.0
C261 C 0.18333 0.73552 0.56518 0.0
C262 C 0.2154 0.68356 0.50263 0.0
H263 H 0.24757 0.71143 0.337 0.0
H264 H 0.24236 0.69968 0.40295 0.0
H265 H 0.23483 0.66792 0.45281 0.0
H266 H 0.22541 0.6961 0.6416 0.0
H267 H 0.21675 0.6742 0.58088 0.0
H268 H 0.15135 0.71371 0.50594 0.0
C269 C 0.22485 0.69616 0.38437 0.0
C270 C 0.21634 0.67765 0.46412 0.0
C271 C 0.2278 0.70321 0.34647 0.0
C272 C 0.21357 0.70734 0.62052 0.0
C273 C 0.20865 0.69482 0.58567 0.0
C274 C 0.16964 0.70355 0.49478 0.0
C275 C 0.19905 0.68727 0.39858 0.0
C276 C 0.19473 0.68618 0.44009 0.0
C277 C 0.1941 0.70904 0.55715 0.0
C278 C 0.19254 0.69771 0.51816 0.0
H279 H 0.16198 0.68892 0.3166 0.0
H280 H 0.15684 0.67625 0.38318 0.0
H281 H 0.15371 0.70489 0.43854 0.0
H282 H 0.1799 0.7685 0.60526 0.0
H283 H 0.17246 0.7474 0.54383 0.0
C284 C 0.57344 0.00953 0.87559 0.0
C285 C 0.56487 0.98606 0.89582 0.0
C286 C 0.58638 0.00657 0.84049 0.0
C287 C 0.58738 0.95556 0.76339 0.0
H288 H 0.62914 0.01375 0.71351 0.0
C289 C 0.58804 0.9616 0.60341 0.0
C290 C 0.57575 0.9867 0.59223 0.0
C291 C 0.59941 0.9589 0.63959 0.0
C292 C 0.61789 0.99708 0.7272 0.0
H293 H 0.56557 0.94122 0.89774 0.0
H294 H 0.58951 0.93594 0.83762 0.0
H295 H 0.62615 0.01305 0.78238 0.0
H296 H 0.56831 0.0294 0.60818 0.0
H297 H 0.58818 0.02475 0.67098 0.0
H298 H 0.57827 0.9402 0.70834 0.0
C299 C 0.58514 0.95666 0.84764 0.0
C300 C 0.61593 0.99679 0.7666 0.0
C301 C 0.57155 0.95964 0.88217 0.0
C302 C 0.57734 0.0097 0.61631 0.0
C303 C 0.58902 0.00712 0.65213 0.0
C304 C 0.58967 0.95564 0.7242 0.0
C305 C 0.5915 0.98004 0.82545 0.0
C306 C 0.59946 0.97681 0.78506 0.0
C307 C 0.59902 0.98139 0.66475 0.0
C308 C 0.60378 0.97715 0.70563 0.0
H309 H 0.56849 0.03013 0.88565 0.0
H310 H 0.59064 0.02511 0.82424 0.0
H311 H 0.57421 0.93998 0.77622 0.0
H312 H 0.58718 0.94358 0.58529 0.0
H313 H 0.60709 0.93886 0.64864 0.0
C314 C 0.32292 0.30155 0.8288 0.0
C315 C 0.29726 0.28919 0.82003 0.0
C316 C 0.32885 0.30954 0.86588 0.0
C317 C 0.34199 0.2983 0.94861 0.0
H318 H 0.28465 0.32141 0.01858 0.0
C319 C 0.33482 0.25716 0.09951 0.0
C320 C 0.32097 0.27267 0.12716 0.0
C321 C 0.33777 0.26763 0.06293 0.0
C322 C 0.30128 0.31554 -0.00037 0.0
H323 H 0.25694 0.27756 0.84242 0.0
H324 H 0.26727 0.29113 0.90669 0.0
H325 H 0.27744 0.32737 0.95129 0.0
H326 H 0.30169 0.31226 0.1394 0.0
H327 H 0.30757 0.33086 0.07594 0.0
H328 H 0.36564 0.28599 -0.00301 0.0
C329 C 0.28284 0.29487 0.88519 0.0
C330 C 0.29696 0.31869 0.96094 0.0
C331 C 0.27699 0.28681 0.84833 0.0
C332 C 0.312 0.29963 0.1184 0.0
C333 C 0.31532 0.31026 0.08202 0.0
C334 C 0.34644 0.29536 0.98739 0.0
C335 C 0.30913 0.3055 0.89466 0.0
C336 C 0.31666 0.30885 0.93499 0.0
C337 C 0.32727 0.29398 0.05346 0.0
C338 C 0.32557 0.30274 0.01327 0.0
H339 H 0.33893 0.30376 0.80751 0.0
H340 H 0.34918 0.31794 0.87228 0.0
H341 H 0.35761 0.29048 0.92938 0.0
H342 H 0.34196 0.23632 0.10551 0.0
H343 H 0.3468 0.25433 0.04164 0.0
C344 C 0.96304 0.97066 0.62545 0.0
C345 C 0.98679 0.97284 0.60269 0.0
C346 C 0.96413 0.97856 0.66334 0.0
C347 C 1.00612 0.02553 0.72298 0.0
H348 H 0.95611 1.00042 0.8017 0.0
C349 C 0.01041 0.05442 0.88177 0.0
C350 C 0.98488 0.06051 0.89908 0.0
C351 C 0.01135 0.04692 0.84377 0.0
C352 C 0.96995 0.00778 0.77973 0.0
H353 H 0.03091 0.98158 0.60225 0.0
H354 H 0.03334 0.9935 0.66897 0.0
H355 H 0.95819 0.97525 0.74216 0.0
H356 H 0.94065 0.06565 0.88982 0.0
H357 H 0.94229 0.05208 0.82334 0.0
H358 H 0.01851 0.05746 0.7615 0.0
C359 C 0.01352 0.98717 0.65735 0.0
C360 C 0.97122 0.99335 0.74566 0.0
C361 C 0.01228 0.97988 0.6193 0.0
C362 C 0.96064 0.06135 0.87703 0.0
C363 C 0.9615 0.05327 0.83921 0.0
C364 C 1.0052 0.03962 0.75732 0.0
C365 C 0.98914 0.98825 0.67922 0.0
C366 C 0.9892 1.00213 0.7167 0.0
C367 C 0.9867 0.04492 0.82282 0.0
C368 C 0.98693 0.031 0.78579 0.0
H369 H 0.94305 0.96562 0.61317 0.0
H370 H 0.94488 0.97912 0.67914 0.0
H371 H 0.01972 0.03342 0.7011 0.0
H372 H 0.02934 0.0535 0.89829 0.0
H373 H 0.03102 0.04057 0.83166 0.0
C374 C 0.80182 0.30574 0.39112 0.0
C375 C 0.80912 0.27796 0.38473 0.0
C376 C 0.8054 0.31762 0.42667 0.0
C377 C 0.83594 0.30544 0.52249 0.0
H378 H 0.77177 0.34766 0.55509 0.0
C379 C 0.77055 0.31762 0.66505 0.0
C380 C 0.79211 0.31924 0.69163 0.0
C381 C 0.77584 0.32206 0.62684 0.0
C382 C 0.78995 0.33608 0.54642 0.0
H383 H 0.82706 0.24119 0.41003 0.0
H384 H 0.83234 0.26149 0.47254 0.0
H385 H 0.77653 0.33529 0.48907 0.0
H386 H 0.83565 0.32921 0.69956 0.0
H387 H 0.84492 0.33729 0.63246 0.0
H388 H 0.84812 0.3044 0.58053 0.0
C389 C 0.82447 0.27442 0.44993 0.0
C390 C 0.79289 0.3292 0.50838 0.0
C391 C 0.82128 0.26266 0.41414 0.0
C392 C 0.8186 0.32784 0.67967 0.0
C393 C 0.82397 0.33217 0.64123 0.0
C394 C 0.83286 0.31214 0.56065 0.0
C395 C 0.81593 0.30187 0.45689 0.0
C396 C 0.81543 0.31298 0.4961 0.0
C397 C 0.80286 0.3282 0.61426 0.0
C398 C 0.80929 0.32665 0.57325 0.0
H399 H 0.7928 0.3182 0.36878 0.0
H400 H 0.79922 0.33899 0.43068 0.0
H401 H 0.85387 0.29345 0.51394 0.0
H402 H 0.74988 0.31115 0.67346 0.0
H403 H 0.75909 0.3186 0.60698 0.0
C404 C 0.46565 0.9926 0.09981 0.0
C405 C 0.4873 0.00892 0.08504 0.0
C406 C 0.46048 0.99206 0.13853 0.0
C407 C 0.47665 0.02564 0.22974 0.0
H408 H 0.47539 0.95024 0.26813 0.0
C409 C 0.5094 0.96637 0.37374 0.0
C410 C 0.49706 0.98383 0.40061 0.0
C411 C 0.50235 0.96876 0.33561 0.0
C412 C 0.4756 0.97139 0.25782 0.0
H413 H 0.51896 0.03924 0.09888 0.0
H414 H 0.51001 0.03819 0.16662 0.0
H415 H 0.47309 0.95847 0.20028 0.0
H416 H 0.46638 0.01628 0.40887 0.0
H417 H 0.45413 0.0203 0.34241 0.0
H418 H 0.48035 0.03847 0.28728 0.0
C419 C 0.497 0.02585 0.14822 0.0
C420 C 0.47398 0.97615 0.21902 0.0
C421 C 0.50218 0.0264 0.10941 0.0
C422 C 0.47646 1.00265 0.38886 0.0
C423 C 0.46951 1.00509 0.35078 0.0
C424 C 0.47812 0.02088 0.26859 0.0
C425 C 0.47683 0.00785 0.16326 0.0
C426 C 0.47502 1.00329 0.20454 0.0
C427 C 0.48288 0.98866 0.32368 0.0
C428 C 0.47818 0.99368 0.28293 0.0
H429 H 0.45354 0.97915 0.08171 0.0
H430 H 0.44444 0.97842 0.1493 0.0
H431 H 0.47735 0.04676 0.21937 0.0
H432 H 0.52532 0.95167 0.38189 0.0
H433 H 0.51314 0.95593 0.31528 0.0
C434 C 0.80477 0.69593 0.11464 0.0
C435 C 0.81166 0.72363 0.12235 0.0
C436 C 0.81095 0.68427 0.07958 0.0
C437 C 0.84893 0.69756 0.98893 0.0
H438 H 0.78817 0.65525 0.94617 0.0
C439 C 0.79283 0.69079 0.83949 0.0
C440 C 0.81593 0.69138 0.81532 0.0
C441 C 0.79598 0.68409 0.87749 0.0
C442 C 0.80545 0.66686 0.95772 0.0
H443 H 0.83124 0.76059 0.0999 0.0
H444 H 0.84095 0.74079 0.03826 0.0
H445 H 0.7879 0.66613 0.01297 0.0
H446 H 0.86005 0.68293 0.81105 0.0
H447 H 0.86561 0.6709 0.87786 0.0
H448 H 0.86512 0.70041 0.9329 0.0
C449 C 0.8315 0.72766 0.0595 0.0
C450 C 0.80548 0.67288 -0.00376 0.0
C451 C 0.8257 0.73917 0.09478 0.0
C452 C 0.84188 0.68268 0.82911 0.0
C453 C 0.84509 0.67604 0.8674 0.0
C454 C 0.8487 0.69184 0.95028 0.0
C455 C 0.82376 0.70019 0.05118 0.0
C456 C 0.82663 0.68931 0.01206 0.0
C457 C 0.82236 0.67784 0.89231 0.0
C458 C 0.8263 0.67748 0.93395 0.0
H459 H 0.79429 0.68329 0.13558 0.0
H460 H 0.80518 0.66291 0.07452 0.0
H461 H 0.86596 0.7096 0.00032 0.0
H462 H 0.77252 0.69719 0.82955 0.0
H463 H 0.778 0.68597 0.89569 0.0
C464 C 0.45072 0.53561 0.59146 0.0
C465 C 0.4494 0.55797 0.56612 0.0
C466 C 0.44375 0.53919 0.62927 0.0
C467 C 0.44687 0.59397 0.69936 0.0
H468 H 0.42526 0.53325 0.76483 0.0
C469 C 0.45307 0.55466 0.86569 0.0
C470 C 0.48033 0.56348 0.87327 0.0
C471 C 0.44113 0.55927 0.83031 0.0
C472 C 0.4308 0.55079 0.74727 0.0
H473 H 0.43729 0.60098 0.55963 0.0
H474 H 0.42482 0.60725 0.62606 0.0
H475 H 0.41491 0.53093 0.69791 0.0
H476 H 0.51611 0.58494 0.85034 0.0
H477 H 0.49588 0.59195 0.78811 0.0
H478 H 0.46296 0.61376 0.74869 0.0
C479 C 0.43168 0.58704 0.61667 0.0
C480 C 0.4251 0.54928 0.70871 0.0
C481 C 0.43861 0.5834 0.57861 0.0
C482 C 0.49506 0.57792 0.84528 0.0
C483 C 0.48329 0.58216 0.80968 0.0
C484 C 0.45227 0.59564 0.73804 0.0
C485 C 0.43527 0.56524 0.64269 0.0
C486 C 0.43433 0.57019 0.68405 0.0
C487 C 0.45636 0.57241 0.8015 0.0
C488 C 0.44551 0.57347 0.76218 0.0
H489 H 0.45872 0.51568 0.58259 0.0
H490 H 0.44705 0.52197 0.64841 0.0
H491 H 0.45433 0.61048 0.68124 0.0
H492 H 0.44103 0.54386 0.88698 0.0
H493 H 0.42016 0.552 0.82533 0.0
C494 C 0.81448 0.25769 0.91457 0.0
C495 C 0.80052 0.24363 0.88558 0.0
C496 C 0.81739 0.24548 0.95021 0.0
C497 C 0.82867 0.21288 0.0216 0.0
H498 H 0.76274 0.17509 0.05791 0.0
C499 C 0.81533 0.19108 0.17952 0.0
C500 C 0.78995 0.20146 0.19308 0.0
C501 C 0.81897 0.1863 0.14083 0.0
C502 C 0.7814 0.18543 0.0482 0.0
H503 H 0.78033 0.20507 0.8703 0.0
H504 H 0.78617 0.18346 0.93192 0.0
H505 H 0.76606 0.18797 0.99182 0.0
H506 H 0.7477 0.21213 0.17767 0.0
H507 H 0.75392 0.20399 0.11081 0.0
H508 H 0.84293 0.21233 0.07874 0.0
C509 C 0.79407 0.20425 0.92771 0.0
C510 C 0.78348 0.19258 0.01009 0.0
C511 C 0.7908 0.21661 0.89231 0.0
C512 C 0.76755 0.2043 0.16799 0.0
C513 C 0.77112 0.19945 0.12954 0.0
C514 C 0.82645 0.20596 0.05984 0.0
C515 C 0.80675 0.21879 0.95745 0.0
C516 C 0.80672 0.20727 -0.00347 0.0
C517 C 0.79722 0.19164 0.11523 0.0
C518 C 0.80231 0.19308 0.07384 0.0
H519 H 0.82216 0.27855 0.91021 0.0
H520 H 0.82692 0.25753 0.97247 0.0
H521 H 0.84715 0.22359 0.01202 0.0
H522 H 0.83297 0.18872 0.19824 0.0
H523 H 0.8392 0.17984 0.13075 0.0
C524 C 0.99281 0.53555 0.12436 0.0
C525 C 0.00977 0.52127 0.09862 0.0
C526 C 0.99418 0.52941 0.16298 0.0
C527 C 0.01121 0.51834 0.2458 0.0
H528 H 1.00674 0.43947 0.26716 0.0
C529 C 0.02091 0.47631 0.39626 0.0
C530 C 0.99875 0.45943 0.4083 0.0
C531 C 0.0247 0.48217 0.35809 0.0
C532 C 0.00799 0.46151 0.26155 0.0
H533 H 0.04307 0.49109 0.09359 0.0
H534 H 0.04527 0.48048 0.16064 0.0
H535 H 0.0092 0.45563 0.20168 0.0
H536 H 0.96458 0.43365 0.3894 0.0
H537 H 0.97163 0.44355 0.3222 0.0
H538 H 0.00995 0.52423 0.30566 0.0
C539 C 0.03065 0.49602 0.15094 0.0
C540 C 0.0096 0.47076 0.22422 0.0
C541 C 0.02947 0.50228 0.11256 0.0
C542 C 0.98185 0.44668 0.38103 0.0
C543 C 0.98581 0.45242 0.34261 0.0
C544 C 0.01 0.50908 0.28315 0.0
C545 C 0.0124 0.50882 0.17632 0.0
C546 C 0.0112 0.49926 0.21601 0.0
C547 C 1.00661 0.47108 0.33103 0.0
C548 C 0.00835 0.48058 0.29135 0.0
H549 H 0.97741 0.55025 0.11452 0.0
H550 H 0.97993 0.53963 0.18209 0.0
H551 H 0.01243 0.54039 0.2402 0.0
H552 H 0.03453 0.48623 0.41648 0.0
H553 H 0.04125 0.49614 0.3498 0.0
C554 C 0.83733 0.75529 0.59319 0.0
C555 C 0.82377 0.76948 0.6224 0.0
C556 C 0.83729 0.76605 0.55648 0.0
C557 C 0.84079 0.79613 0.48136 0.0
H558 H 0.76871 0.82425 0.45072 0.0
C559 C 0.81528 0.81179 0.3246 0.0
C560 C 0.79072 0.79802 0.31409 0.0
C561 C 0.82064 0.81752 0.36263 0.0
C562 C 0.78903 0.81664 0.45883 0.0
H563 H 0.80153 0.80708 0.63686 0.0
H564 H 0.80215 0.82617 0.57323 0.0
H565 H 0.77783 0.81529 0.51706 0.0
H566 H 0.75142 0.78194 0.33456 0.0
H567 H 0.7607 0.79179 0.40044 0.0
H568 H 0.85121 0.79561 0.42268 0.0
C569 C 0.81203 0.80634 0.57824 0.0
C570 C 0.79441 0.81175 0.49699 0.0
C571 C 0.81179 0.79545 0.61476 0.0
C572 C 0.77061 0.7924 0.34179 0.0
C573 C 0.77589 0.79822 0.37964 0.0
C574 C 0.83534 0.80089 0.44312 0.0
C575 C 0.82395 0.79136 0.54838 0.0
C576 C 0.82006 0.80061 0.50863 0.0
C577 C 0.80144 0.80979 0.39069 0.0
C578 C 0.80906 0.81031 0.43133 0.0
H579 H 0.84671 0.73522 0.59825 0.0
H580 H 0.84643 0.75377 0.53416 0.0
H581 H 0.86093 0.78802 0.4894 0.0
H582 H 0.83117 0.81643 0.30388 0.0
H583 H 0.84033 0.82684 0.37023 0.0
C584 C 0.56812 0.57449 0.07716 0.0
C585 C 0.5556 0.54944 0.06627 0.0
C586 C 0.57473 0.57924 0.11507 0.0
C587 C 0.5594 0.59074 0.19681 0.0
H588 H 0.5775 0.53188 0.26721 0.0
C589 C 0.51225 0.58426 0.34504 0.0
C590 C 0.52657 0.57014 0.37371 0.0
C591 C 0.52373 0.58642 0.3089 0.0
C592 C 0.57296 0.54889 0.2482 0.0
H593 H 0.5427 0.50878 0.08572 0.0
H594 H 0.55392 0.51702 0.15136 0.0
H595 H 0.58691 0.52569 0.20049 0.0
H596 H 0.56504 0.5492 0.38808 0.0
H597 H 0.58543 0.55373 0.32549 0.0
H598 H 0.54513 0.61382 0.24452 0.0
C599 C 0.55878 0.53308 0.13098 0.0
C600 C 0.57811 0.54517 0.20979 0.0
C601 C 0.5521 0.5284 0.09328 0.0
C602 C 0.55331 0.55979 0.36629 0.0
C603 C 0.56496 0.56231 0.33038 0.0
C604 C 0.55448 0.59458 0.23532 0.0
C605 C 0.56912 0.55893 0.1426 0.0
C606 C 0.57022 0.56552 0.18349 0.0
C607 C 0.54995 0.57484 0.30089 0.0
C608 C 0.5601 0.57322 0.26129 0.0
H609 H 0.57115 0.59108 0.05691 0.0
H610 H 0.58305 0.59923 0.12309 0.0
H611 H 0.55297 0.60684 0.17735 0.0
H612 H 0.4916 0.59242 0.34998 0.0
H613 H 0.51136 0.5959 0.28684 0.0
C614 C 0.2006 0.8039 0.12099 0.0
C615 C 0.19107 0.7769 0.12823 0.0
C616 C 0.19781 0.81558 0.08515 0.0
C617 C 0.16661 0.80427 0.98967 0.0
H618 H 0.23483 0.83924 0.95596 0.0
C619 C 0.23459 0.80532 0.84854 0.0
C620 C 0.21366 0.80822 0.82121 0.0
C621 C 0.2292 0.81137 0.88625 0.0
C622 C 0.21554 0.8297 0.96494 0.0
H623 H 0.16991 0.74143 0.10436 0.0
H624 H 0.16607 0.76124 0.04125 0.0
H625 H 0.22831 0.82941 0.02253 0.0
H626 H 0.17137 0.82206 0.81139 0.0
H627 H 0.162 0.83291 0.87756 0.0
H628 H 0.15497 0.80247 0.93151 0.0
C629 C 0.17506 0.7738 0.06339 0.0
C630 C 0.21161 0.82433 0.00327 0.0
C631 C 0.17743 0.76229 0.0995 0.0
C632 C 0.18789 0.81948 0.83187 0.0
C633 C 0.18245 0.8255 0.86978 0.0
C634 C 0.17068 0.80941 0.95123 0.0
C635 C 0.1859 0.80032 0.05553 0.0
C636 C 0.18755 0.81059 0.01597 0.0
C637 C 0.20274 0.82052 0.89754 0.0
C638 C 0.1957 0.82116 0.93833 0.0
H639 H 0.21077 0.81583 0.14288 0.0
H640 H 0.20577 0.83629 0.0804 0.0
H641 H 0.14756 0.79424 -0.00144 0.0
H642 H 0.25474 0.79689 0.84119 0.0
H643 H 0.24527 0.80701 0.90683 0.0
C644 C 0.93026 0.53674 0.88354 0.0
C645 C 0.94459 0.51401 0.8989 0.0
C646 C 0.91605 0.53403 0.84919 0.0
C647 C 0.89128 0.48218 0.7788 0.0
H648 H 0.9206 0.5342 0.70556 0.0
C649 C 0.92275 0.45203 0.62933 0.0
C650 C 0.92521 0.47276 0.60183 0.0
C651 C 0.91208 0.45853 0.66498 0.0
C652 C 0.91136 0.51981 0.72543 0.0
H653 H 0.95356 0.47024 0.89209 0.0
H654 H 0.9291 0.4656 0.83271 0.0
H655 H 0.92521 0.54404 0.77216 0.0
H656 H 0.91594 0.51541 0.58776 0.0
H657 H 0.89601 0.52648 0.64919 0.0
H658 H 0.87881 0.45719 0.73186 0.0
C659 C 0.92865 0.48548 0.84684 0.0
C660 C 0.91406 0.52554 0.76381 0.0
C661 C 0.94306 0.48826 0.88065 0.0
C662 C 0.91434 0.49919 0.60887 0.0
C663 C 0.90315 0.50554 0.6441 0.0
C664 C 0.88845 0.47648 0.74031 0.0
C665 C 0.91559 0.50845 0.83018 0.0
C666 C 0.90535 0.50613 0.79086 0.0
C667 C 0.90345 0.48577 0.67331 0.0
C668 C 0.89972 0.4946 0.71321 0.0
H669 H 0.93097 0.55678 0.89721 0.0
H670 H 0.90613 0.55208 0.83694 0.0
H671 H 0.88396 0.46705 0.79914 0.0
H672 H 0.93128 0.43158 0.62441 0.0
H673 H 0.91284 0.44278 0.68678 0.0
C674 C 0.32244 0.18124 0.33042 0.0
C675 C 0.29877 0.19557 0.31782 0.0
C676 C 0.32426 0.1723 0.36796 0.0
C677 C 0.28362 0.16697 0.45787 0.0
H678 H 0.35132 0.1953 0.5028 0.0
C679 C 0.31678 0.23023 0.59785 0.0
C680 C 0.30015 0.21691 0.62487 0.0
C681 C 0.32039 0.21862 0.56214 0.0
C682 C 0.33229 0.18725 0.49074 0.0
H683 H 0.25741 0.20932 0.33334 0.0
H684 H 0.26066 0.1943 0.39832 0.0
H685 H 0.34885 0.18898 0.43487 0.0
H686 H 0.27562 0.18017 0.63665 0.0
H687 H 0.28249 0.15952 0.57467 0.0
H688 H 0.26614 0.16773 0.51315 0.0
C689 C 0.27785 0.18969 0.37963 0.0
C690 C 0.33102 0.18314 0.45178 0.0
C691 C 0.27607 0.19862 0.34234 0.0
C692 C 0.2882 0.19115 0.61612 0.0
C693 C 0.29212 0.17932 0.58059 0.0
C694 C 0.28476 0.17142 0.49673 0.0
C695 C 0.30237 0.17744 0.39334 0.0
C696 C 0.3062 0.17426 0.43471 0.0
C697 C 0.30776 0.1932 0.55285 0.0
C698 C 0.30868 0.18286 0.51338 0.0
H699 H 0.3402 0.17845 0.31203 0.0
H700 H 0.34328 0.16257 0.37756 0.0
H701 H 0.26439 0.15952 0.44566 0.0
H702 H 0.32625 0.25011 0.6038 0.0
H703 H 0.33213 0.23022 0.54137 0.0
C704 C 0.04413 0.10144 0.06467 0.0
C705 C 0.05045 0.07398 0.05466 0.0
C706 C 0.06428 0.11847 0.08108 0.0
C707 C 0.13185 0.11581 0.13158 0.0
H708 H 0.13581 0.19353 0.10397 0.0
C709 C 0.22436 0.18532 0.17329 0.0
C710 C 0.21839 0.21214 0.18648 0.0
C711 C 0.20347 0.1688 0.15774 0.0
C712 C 0.13478 0.17194 0.11227 0.0
H713 H 0.08309 0.04299 0.05378 0.0
H714 H 0.11836 0.07283 0.08169 0.0
H715 H 0.10045 0.16401 0.07543 0.0
H716 H 0.1857 0.24264 0.1934 0.0
H717 H 0.14917 0.21372 0.16603 0.0
H718 H 0.16644 0.12371 0.16804 0.0
C719 C 0.09766 0.08108 0.07755 0.0
C720 C 0.11448 0.15499 0.09595 0.0
C721 C 0.07746 0.064 0.06131 0.0
C722 C 0.19101 0.22209 0.18351 0.0
C723 C 0.17011 0.20559 0.16767 0.0
C724 C 0.15222 0.13271 0.14772 0.0
C725 C 0.09132 0.10853 0.08775 0.0
C726 C 0.11279 0.12668 0.10532 0.0
C727 C 0.17609 0.1787 0.15476 0.0
C728 C 0.15398 0.16095 0.13818 0.0
H729 H 0.0235 0.10977 0.06013 0.0
H730 H 0.0585 0.13934 0.08905 0.0
H731 H 0.13086 0.09426 0.14007 0.0
H732 H 0.2452 0.17697 0.17509 0.0
H733 H 0.20884 0.14833 0.14761 0.0
C734 C 0.04318 0.94059 0.42888 0.0
C735 C 0.04968 0.96693 0.44322 0.0
C736 C 0.06284 0.92547 0.40869 0.0
C737 C 0.13676 0.91455 0.39358 0.0
H738 H 0.11172 0.88127 0.3 0.0
C739 C 0.20641 0.8428 0.3002 0.0
C740 C 0.19292 0.81901 0.28642 0.0
C741 C 0.19116 0.86381 0.31805 0.0
C742 C 0.11904 0.89028 0.32616 0.0
H743 H 0.08228 0.99775 0.44834 0.0
H744 H 0.11702 0.97084 0.41329 0.0
H745 H 0.08102 0.91242 0.33421 0.0
H746 H 0.15291 0.79849 0.28135 0.0
H747 H 0.12675 0.83455 0.31255 0.0
H748 H 0.17449 0.89148 0.3861 0.0
C749 C 0.0965 0.96216 0.41764 0.0
C750 C 0.10146 0.90818 0.34567 0.0
C751 C 0.07661 0.97755 0.43755 0.0
C752 C 0.16403 0.81659 0.29124 0.0
C753 C 0.14892 0.83743 0.30896 0.0
C754 C 0.15438 0.89637 0.37411 0.0
C755 C 0.08961 0.93614 0.40258 0.0
C756 C 0.10983 0.91994 0.38004 0.0
C757 C 0.16217 0.86142 0.32229 0.0
C758 C 0.14536 0.88345 0.3407 0.0
H759 H 0.02268 0.93173 0.43271 0.0
H760 H 0.05709 0.90529 0.39785 0.0
H761 H 0.14369 0.92335 0.42006 0.0
H762 H 0.22866 0.84526 0.29698 0.0
H763 H 0.20196 0.88208 0.32798 0.0
C764 C 0.29077 0.83506 0.68116 0.0
C765 C 0.29949 0.80813 0.69086 0.0
C766 C 0.30964 0.85442 0.66672 0.0
C767 C 0.37626 0.85967 0.61662 0.0
H768 H 0.37675 0.93543 0.65287 0.0
C769 C 0.46199 0.93582 0.57168 0.0
C770 C 0.45492 0.96365 0.56486 0.0
C771 C 0.44293 0.91758 0.58799 0.0
C772 C 0.37666 0.91448 0.64201 0.0
H773 H 0.335 0.78053 0.69301 0.0
H774 H 0.36793 0.8143 0.66741 0.0
H775 H 0.34385 0.90213 0.67944 0.0
H776 H 0.4222 0.99421 0.57035 0.0
H777 H 0.38847 0.96211 0.59811 0.0
H778 H 0.40855 0.8719 0.5787 0.0
C779 C 0.34641 0.82036 0.67097 0.0
C780 C 0.35785 0.89536 0.65737 0.0
C781 C 0.32758 0.80105 0.68579 0.0
C782 C 0.42832 0.97291 0.5753 0.0
C783 C 0.40904 0.95451 0.59138 0.0
C784 C 0.39486 0.87879 0.60104 0.0
C785 C 0.33766 0.84727 0.66127 0.0
C786 C 0.35756 0.86769 0.64499 0.0
C787 C 0.41603 0.9265 0.59763 0.0
C788 C 0.39551 0.90644 0.61369 0.0
H789 H 0.2693 0.84126 0.68477 0.0
H790 H 0.30219 0.87488 0.6592 0.0
H791 H 0.37622 0.83864 0.60598 0.0
H792 H 0.48242 0.92801 0.56446 0.0
H793 H 0.44941 0.89643 0.5932 0.0
C794 C 0.33092 0.17179 0.78217 0.0
C795 C 0.30176 0.17104 0.77987 0.0
C796 C 0.34572 0.14945 0.79703 0.0
C797 C 0.33977 0.08779 0.85822 0.0
H798 H 0.41057 0.06994 0.81192 0.0
C799 C 0.41512 1.00136 0.91361 0.0
C800 C 0.44245 0.01096 0.91893 0.0
C801 C 0.39561 0.01771 0.89421 0.0
C802 C 0.39082 0.07463 0.82512 0.0
H803 H 0.26528 0.14613 0.79186 0.0
H804 H 0.29135 0.10678 0.81776 0.0
H805 H 0.38046 0.10435 0.7826 0.0
H806 H 0.47084 0.04489 0.90736 0.0
H807 H 0.43718 0.0729 0.87332 0.0
H808 H 0.35057 0.05809 0.90106 0.0
C809 C 0.30265 0.12488 0.80817 0.0
C810 C 0.3736 0.09444 0.80844 0.0
C811 C 0.28773 0.14738 0.79323 0.0
C812 C 0.44996 0.03687 0.90388 0.0
C813 C 0.43071 0.05289 0.88413 0.0
C814 C 0.35701 0.06774 0.87484 0.0
C815 C 0.33187 0.12559 0.80993 0.0
C816 C 0.34825 0.10192 0.82536 0.0
C817 C 0.4033 0.04361 0.87919 0.0
C818 C 0.38307 0.06158 0.859 0.0
H819 H 0.34247 0.18971 0.77248 0.0
H820 H 0.36814 0.15106 0.79876 0.0
H821 H 0.32043 0.0931 0.87205 0.0
H822 H 0.40871 0.98152 0.92501 0.0
H823 H 0.37461 0.01005 0.89073 0.0
C824 C 0.96422 0.93889 0.95347 0.0
C825 C 0.9511 0.96307 0.96642 0.0
C826 C 0.94915 0.91899 0.93327 0.0
C827 C 0.88525 0.91247 0.87573 0.0
H828 H 0.89763 0.83355 0.8872 0.0
C829 C 0.8152 0.83032 0.8046 0.0
C830 C 0.82875 0.8076 0.78802 0.0
C831 C 0.83003 0.84912 0.82688 0.0
C832 C 0.89411 0.85555 0.88347 0.0
H833 H 0.9116 0.98464 0.97002 0.0
H834 H 0.8854 0.94985 0.93576 0.0
H835 H 0.92379 0.86605 0.92619 0.0
H836 H 0.86858 0.78696 0.78171 0.0
H837 H 0.89431 0.81976 0.82032 0.0
H838 H 0.85553 0.90198 0.83314 0.0
C839 C 0.90743 0.94652 0.94016 0.0
C840 C 0.90913 0.87416 0.90577 0.0
C841 C 0.92245 0.9664 0.96006 0.0
C842 C 0.85745 0.80422 0.79404 0.0
C843 C 0.8722 0.8229 0.81642 0.0
C844 C 0.87018 0.89387 0.85358 0.0
C845 C 0.92066 0.92285 0.92581 0.0
C846 C 0.90484 0.90286 0.90221 0.0
C847 C 0.85866 0.84549 0.83322 0.0
C848 C 0.87445 0.86521 0.85716 0.0
H849 H 0.98628 0.93578 0.95782 0.0
H850 H 0.96003 0.90105 0.92242 0.0
H851 H 0.88182 0.93445 0.87167 0.0
H852 H 0.79311 0.83348 0.80062 0.0
H853 H 0.81897 0.86622 0.83971 0.0
C854 C 0.83523 0.21193 0.71702 0.0
C855 C 0.80654 0.20722 0.72121 0.0
C856 C 0.85128 0.19506 0.69373 0.0
C857 C 0.85371 0.12651 0.6495 0.0
H858 H 0.90747 0.16118 0.58273 0.0
C859 C 0.91446 0.06261 0.54115 0.0
C860 C 0.94301 0.06811 0.53724 0.0
C861 C 0.89734 0.08058 0.56125 0.0
C862 C 0.89278 0.15117 0.60147 0.0
H863 H 0.77232 0.18066 0.70465 0.0
H864 H 0.80054 0.15091 0.66395 0.0
H865 H 0.87821 0.18994 0.62303 0.0
H866 H 0.97583 0.0973 0.55025 0.0
H867 H 0.94589 0.12869 0.58608 0.0
H868 H 0.86848 0.08775 0.62853 0.0
C869 C 0.81052 0.16776 0.67887 0.0
C870 C 0.87598 0.16763 0.62451 0.0
C871 C 0.79436 0.18479 0.70211 0.0
C872 C 0.9539 0.09258 0.5527 0.0
C873 C 0.93672 0.11055 0.57315 0.0
C874 C 0.87058 0.11005 0.62661 0.0
C875 C 0.8391 0.17294 0.67412 0.0
C876 C 0.85632 0.15547 0.64886 0.0
C877 C 0.90833 0.10444 0.57826 0.0
C878 C 0.89033 0.12216 0.60231 0.0
H879 H 0.84538 0.22897 0.73134 0.0
H880 H 0.87331 0.19929 0.69119 0.0
H881 H 0.83906 0.11652 0.66835 0.0
H882 H 0.90533 0.0441 0.52915 0.0
H883 H 0.87547 0.07559 0.56377 0.0
C884 C 0.6795 0.23145 0.3303 0.0
C885 C 0.70569 0.21952 0.32339 0.0
C886 C 0.65817 0.21575 0.34689 0.0
C887 C 0.63551 0.14364 0.36 0.0
H888 H 0.59656 0.16924 0.44922 0.0
C889 C 0.58136 0.06725 0.45781 0.0
C890 C 0.55502 0.07369 0.47252 0.0
C891 C 0.59698 0.08718 0.43883 0.0
C892 C 0.60691 0.16199 0.42397 0.0
H893 H 0.72988 0.18172 0.32821 0.0
H894 H 0.69283 0.15451 0.35649 0.0
H895 H 0.62861 0.2005 0.41607 0.0
H896 H 0.52482 0.10657 0.47979 0.0
H897 H 0.55235 0.14171 0.44617 0.0
H898 H 0.61433 0.10517 0.36778 0.0
C899 C 0.6887 0.17592 0.34914 0.0
C900 C 0.62525 0.17987 0.40502 0.0
C901 C 0.71 0.19161 0.33312 0.0
C902 C 0.54503 0.10096 0.46877 0.0
C903 C 0.56079 0.12106 0.44957 0.0
C904 C 0.61719 0.12592 0.37869 0.0
C905 C 0.66256 0.18776 0.35622 0.0
C906 C 0.64032 0.17055 0.37349 0.0
C907 C 0.58673 0.11417 0.43376 0.0
C908 C 0.60332 0.13454 0.41158 0.0
H909 H 0.67557 0.25294 0.32324 0.0
H910 H 0.63818 0.22536 0.35199 0.0
H911 H 0.6464 0.13608 0.33531 0.0
H912 H 0.58994 0.04659 0.46055 0.0
H913 H 0.61719 0.08134 0.42797 0.0
C914 C 0.67907 0.76643 0.17643 0.0
C915 C 0.70506 0.77912 0.18218 0.0
C916 C 0.65721 0.78117 0.15961 0.0
C917 C 0.6326 0.85228 0.14273 0.0
H918 H 0.59192 0.82169 0.05796 0.0
C919 C 0.5718 0.92217 0.0425 0.0
C920 C 0.54578 0.91356 0.0288 0.0
C921 C 0.58872 0.90405 0.06275 0.0
C922 C 0.60275 0.83035 0.08199 0.0
H923 H 0.72835 0.81728 0.17499 0.0
H924 H 0.69031 0.8429 0.14615 0.0
H925 H 0.62603 0.79301 0.09139 0.0
H926 H 0.51737 0.87879 0.02516 0.0
H927 H 0.54712 0.8469 0.06108 0.0
H928 H 0.60969 0.88958 0.13349 0.0
C929 C 0.68677 0.82161 0.15467 0.0
C930 C 0.62229 0.81395 0.10108 0.0
C931 C 0.70863 0.80685 0.17102 0.0
C932 C 0.5373 0.88607 0.03535 0.0
C933 C 0.55435 0.86781 0.05582 0.0
C934 C 0.61303 0.86855 0.1239 0.0
C935 C 0.66082 0.80898 0.14875 0.0
C936 C 0.63791 0.82502 0.13104 0.0
C937 C 0.58013 0.87676 0.07013 0.0
C938 C 0.59841 0.85808 0.09264 0.0
H939 H 0.67568 0.74507 0.18463 0.0
H940 H 0.6374 0.77095 0.15551 0.0
H941 H 0.64389 0.86118 0.16622 0.0
H942 H 0.57922 0.94308 0.03771 0.0
H943 H 0.60872 0.91147 0.07245 0.0
C944 C 0.59168 0.55906 0.54573 0.0
C945 C 0.56617 0.5712 0.53573 0.0
C946 C 0.61184 0.57447 0.56506 0.0
C947 C 0.63164 0.64732 0.58607 0.0
H948 H 0.67749 0.6138 0.66373 0.0
C949 C 0.70225 0.71212 0.68353 0.0
C950 C 0.72964 0.70253 0.68789 0.0
C951 C 0.68218 0.6955 0.66616 0.0
C952 C 0.66493 0.62338 0.64194 0.0
H953 H 0.54149 0.60875 0.53921 0.0
H954 H 0.57607 0.63516 0.57352 0.0
H955 H 0.64287 0.58571 0.63094 0.0
H956 H 0.75725 0.66768 0.67829 0.0
H957 H 0.72213 0.63868 0.64827 0.0
H958 H 0.65345 0.68505 0.59748 0.0
C959 C 0.58101 0.61408 0.56557 0.0
C960 C 0.64517 0.60728 0.62303 0.0
C961 C 0.56106 0.59883 0.54603 0.0
C962 C 0.73635 0.67574 0.67527 0.0
C963 C 0.71622 0.65904 0.65827 0.0
C964 C 0.65118 0.66343 0.60519 0.0
C965 C 0.60678 0.60225 0.57503 0.0
C966 C 0.62822 0.61907 0.59489 0.0
C967 C 0.689 0.66885 0.65316 0.0
C968 C 0.66801 0.65166 0.63335 0.0
H969 H 0.59625 0.53782 0.53814 0.0
H970 H 0.63155 0.56475 0.57154 0.0
H971 H 0.61943 0.65701 0.56401 0.0
H972 H 0.6964 0.73263 0.69298 0.0
H973 H 0.66128 0.7035 0.66293 0.0
C974 C 0.53539 0.43591 0.93413 0.0
C975 C 0.54506 0.46317 0.93917 0.0
C976 C 0.55322 0.41527 0.92037 0.0
C977 C 0.62731 0.39767 0.91361 0.0
H978 H 0.60637 0.35073 0.8296 0.0
C979 C 0.70911 0.33616 0.83164 0.0
C980 C 0.70262 0.30942 0.81875 0.0
C981 C 0.68862 0.3531 0.8472 0.0
C982 C 0.61241 0.36335 0.85347 0.0
H983 H 0.58104 0.49004 0.93374 0.0
H984 H 0.61195 0.45414 0.91031 0.0
H985 H 0.57255 0.3833 0.85589 0.0
H986 H 0.66931 0.2796 0.81185 0.0
H987 H 0.63346 0.30911 0.83974 0.0
H988 H 0.66698 0.37791 0.91162 0.0
C989 C 0.59067 0.44867 0.91699 0.0
C990 C 0.59303 0.38202 0.86846 0.0
C991 C 0.57286 0.46929 0.93022 0.0
C992 C 0.67499 0.30011 0.82148 0.0
C993 C 0.65442 0.31707 0.83732 0.0
C994 C 0.64654 0.37893 0.89891 0.0
C995 C 0.58111 0.42143 0.912 0.0
C996 C 0.60051 0.39977 0.89817 0.0
C997 C 0.66105 0.34373 0.85065 0.0
C998 C 0.63958 0.36194 0.8681 0.0
H999 H 0.51407 0.43054 0.94068 0.0
H1000 H 0.54533 0.39441 0.91689 0.0
H1001 H 0.6335 0.41072 0.93699 0.0
H1002 H 0.7301 0.34416 0.82966 0.0
H1003 H 0.69442 0.37372 0.85626 0.0
C1004 C 0.80352 0.33391 0.19633 0.0
C1005 C 0.81468 0.31191 0.21751 0.0
C1006 C 0.82028 0.34873 0.17101 0.0
C1007 C 0.88541 0.34263 0.11608 0.0
H1008 H 0.88107 0.42269 0.11078 0.0
C1009 C 0.96676 0.41156 0.0387 0.0
C1010 C 0.95691 0.43586 0.02145 0.0
C1011 C 0.94859 0.39464 0.05944 0.0
C1012 C 0.88227 0.40029 0.11142 0.0
H1013 H 0.8524 0.28868 0.22926 0.0
H1014 H 0.88142 0.3146 0.18564 0.0
H1015 H 0.8507 0.39758 0.15384 0.0
H1016 H 0.92012 0.46035 0.00963 0.0
H1017 H 0.88851 0.43062 0.04463 0.0
H1018 H 0.91714 0.3454 0.07375 0.0
C1019 C 0.85968 0.32014 0.18805 0.0
C1020 C 0.86486 0.38592 0.13619 0.0
C1021 C 0.84303 0.30544 0.21334 0.0
C1022 C 0.92838 0.44194 0.02313 0.0
C1023 C 0.91028 0.42501 0.04343 0.0
C1024 C 0.90282 0.35702 0.0912 0.0
C1025 C 0.84848 0.34176 0.1663 0.0
C1026 C 0.86632 0.35695 0.13897 0.0
C1027 C 0.92028 0.4017 0.06296 0.0
C1028 C 0.90148 0.38604 0.08863 0.0
H1029 H 0.78175 0.33933 0.19873 0.0
H1030 H 0.81101 0.36522 0.15449 0.0
H1031 H 0.88678 0.32025 0.11721 0.0
H1032 H 0.98868 0.40648 0.03798 0.0
H1033 H 0.95698 0.37685 0.07422 0.0
C1034 C 0.95816 0.57355 0.4651 0.0
C1035 C 0.94653 0.54885 0.479 0.0
C1036 C 0.94194 0.59194 0.44371 0.0
C1037 C 0.87899 0.5913 0.38399 0.0
H1038 H 0.88406 0.67132 0.38951 0.0
C1039 C 0.80277 0.6633 0.30482 0.0
C1040 C 0.81411 0.68683 0.2872 0.0
C1041 C 0.81908 0.64693 0.32878 0.0
C1042 C 0.88261 0.64898 0.38742 0.0
H1043 H 0.90844 0.52503 0.48388 0.0
H1044 H 0.88024 0.55717 0.44763 0.0
H1045 H 0.91233 0.64279 0.43176 0.0
H1046 H 0.85161 0.71145 0.28069 0.0
H1047 H 0.87998 0.68279 0.3221 0.0
H1048 H 0.84935 0.59738 0.33974 0.0
C1049 C 0.90198 0.56203 0.45201 0.0
C1050 C 0.89881 0.63266 0.41161 0.0
C1051 C 0.91814 0.54368 0.47301 0.0
C1052 C 0.84217 0.69347 0.29379 0.0
C1053 C 0.85842 0.67718 0.3178 0.0
C1054 C 0.8628 0.60757 0.35993 0.0
C1055 C 0.91383 0.58595 0.43612 0.0
C1056 C 0.89706 0.60362 0.41031 0.0
C1057 C 0.84705 0.6538 0.33571 0.0
C1058 C 0.86435 0.63659 0.3614 0.0
H1059 H 0.98001 0.578 0.46921 0.0
H1060 H 0.9517 0.61019 0.4318 0.0
H1061 H 0.87758 0.56898 0.38162 0.0
H1062 H 0.78121 0.65768 0.30049 0.0
H1063 H 0.80964 0.62917 0.34244 0.0
C1064 C 0.34869 0.30721 0.29926 0.0
C1065 C 0.32105 0.31302 0.28904 0.0
C1066 C 0.36452 0.32665 0.31896 0.0
C1067 C 0.37055 0.40114 0.33666 0.0
H1068 H 0.41722 0.37835 0.42044 0.0
C1069 C 0.43181 0.48066 0.42483 0.0
C1070 C 0.45878 0.47347 0.43659 0.0
C1071 C 0.41433 0.46094 0.4085 0.0
C1072 C 0.40458 0.38503 0.39682 0.0
H1073 H 0.28833 0.34384 0.29171 0.0
H1074 H 0.31616 0.37799 0.32595 0.0
H1075 H 0.38774 0.34434 0.38902 0.0
H1076 H 0.48846 0.43981 0.44054 0.0
H1077 H 0.45818 0.40548 0.41119 0.0
H1078 H 0.38773 0.44164 0.34372 0.0
C1079 C 0.32552 0.35832 0.31858 0.0
C1080 C 0.38761 0.36554 0.37891 0.0
C1081 C 0.30955 0.33873 0.29913 0.0
C1082 C 0.46778 0.446 0.4319 0.0
C1083 C 0.45032 0.42628 0.41526 0.0
C1084 C 0.38766 0.42059 0.35436 0.0
C1085 C 0.35318 0.35248 0.32867 0.0
C1086 C 0.37046 0.37337 0.34857 0.0
C1087 C 0.4234 0.43353 0.40318 0.0
C1088 C 0.40496 0.41279 0.38464 0.0
H1089 H 0.3582 0.28759 0.29202 0.0
H1090 H 0.38585 0.32165 0.32596 0.0
H1091 H 0.35787 0.40772 0.31301 0.0
H1092 H 0.4241 0.50158 0.42831 0.0
H1093 H 0.39358 0.4672 0.40027 0.0
C1094 C 0.44698 0.59358 0.04449 0.0
C1095 C 0.4408 0.56594 0.03516 0.0
C1096 C 0.42817 0.60955 0.06502 0.0
C1097 C 0.35434 0.61642 0.08755 0.0
H1098 H 0.38086 0.663 0.16906 0.0
C1099 C 0.27894 0.68056 0.17873 0.0
C1100 C 0.28722 0.7074 0.18926 0.0
C1101 C 0.29773 0.66235 0.16188 0.0
C1102 C 0.37313 0.65039 0.1461 0.0
H1103 H 0.40989 0.53344 0.04009 0.0
H1104 H 0.3767 0.56163 0.07578 0.0
H1105 H 0.41326 0.63265 0.13612 0.0
H1106 H 0.32188 0.73607 0.19052 0.0
H1107 H 0.35461 0.70451 0.16024 0.0
H1108 H 0.31439 0.63455 0.09674 0.0
C1109 C 0.39624 0.57081 0.0671 0.0
C1110 C 0.3917 0.6329 0.12734 0.0
C1111 C 0.41525 0.55466 0.0468 0.0
C1112 C 0.31487 0.71551 0.18287 0.0
C1113 C 0.33366 0.69733 0.16568 0.0
C1114 C 0.3358 0.63405 0.10611 0.0
C1115 C 0.40258 0.59841 0.07652 0.0
C1116 C 0.38254 0.61586 0.09771 0.0
C1117 C 0.32528 0.67055 0.15477 0.0
C1118 C 0.34497 0.65138 0.13553 0.0
H1119 H 0.46649 0.60295 0.0361 0.0
H1120 H 0.4335 0.63084 0.07142 0.0
H1121 H 0.34674 0.6038 0.0645 0.0
H1122 H 0.25786 0.67351 0.18356 0.0
H1123 H 0.29065 0.64175 0.1546 0.0
C1124 C 0.18211 0.69767 0.8023 0.0
C1125 C 0.209 0.69305 0.78813 0.0
C1126 C 0.16843 0.67725 0.82309 0.0
C1127 C 0.16252 0.60309 0.83794 0.0
H1128 H 0.1254 0.62502 0.93034 0.0
C1129 C 0.0924 0.5278 0.92536 0.0
C1130 C 0.06751 0.53942 0.93888 0.0
C1131 C 0.11306 0.54472 0.9094 0.0
C1132 C 0.13547 0.61854 0.90448 0.0
H1133 H 0.2425 0.66315 0.78438 0.0
H1134 H 0.21805 0.62692 0.82034 0.0
H1135 H 0.15533 0.65792 0.89761 0.0
H1136 H 0.04483 0.57796 0.94585 0.0
H1137 H 0.08023 0.60703 0.91776 0.0
H1138 H 0.14166 0.56404 0.84398 0.0
C1139 C 0.20784 0.6466 0.81542 0.0
C1140 C 0.15272 0.63738 0.88585 0.0
C1141 C 0.22182 0.66733 0.79502 0.0
C1142 C 0.06377 0.56823 0.93603 0.0
C1143 C 0.08426 0.58502 0.92012 0.0
C1144 C 0.14498 0.58423 0.85646 0.0
C1145 C 0.18108 0.65151 0.82991 0.0
C1146 C 0.16588 0.63011 0.85192 0.0
C1147 C 0.10924 0.57359 0.90672 0.0
C1148 C 0.13064 0.59202 0.88943 0.0
H1149 H 0.17164 0.71725 0.79765 0.0
H1150 H 0.14769 0.6815 0.83352 0.0
H1151 H 0.17236 0.597 0.81174 0.0
H1152 H 0.09594 0.50567 0.92713 0.0
H1153 H 0.1321 0.53524 0.89951 0.0
C1154 C 0.07448 0.451 0.58185 0.0
C1155 C 0.04789 0.44104 0.57256 0.0
C1156 C 0.0942 0.43342 0.5985 0.0
C1157 C 0.10102 0.3683 0.65282 0.0
H1158 H 0.17578 0.3664 0.61218 0.0
C1159 C 0.17897 0.28174 0.6929 0.0
C1160 C 0.2072 0.28881 0.69617 0.0
C1161 C 0.15967 0.30101 0.67913 0.0
C1162 C 0.15514 0.36691 0.62435 0.0
H1163 H 0.02107 0.40487 0.57415 0.0
H1164 H 0.05526 0.37447 0.60329 0.0
H1165 H 0.1422 0.39939 0.58689 0.0
H1166 H 0.23715 0.32194 0.6882 0.0
H1167 H 0.20355 0.35559 0.66522 0.0
H1168 H 0.11388 0.33604 0.6905 0.0
C1169 C 0.0609 0.39583 0.59779 0.0
C1170 C 0.13588 0.38584 0.60975 0.0
C1171 C 0.04136 0.41326 0.58083 0.0
C1172 C 0.2156 0.31568 0.68577 0.0
C1173 C 0.19631 0.33498 0.67233 0.0
C1174 C 0.12033 0.34953 0.66765 0.0
C1175 C 0.08761 0.40562 0.60665 0.0
C1176 C 0.10853 0.38658 0.62358 0.0
C1177 C 0.16808 0.3279 0.66858 0.0
C1178 C 0.14762 0.34839 0.65342 0.0
H1179 H 0.08017 0.47227 0.57585 0.0
H1180 H 0.11456 0.44161 0.60524 0.0
H1181 H 0.08019 0.36861 0.66441 0.0
H1182 H 0.17181 0.2612 0.70051 0.0
H1183 H 0.13822 0.2946 0.67615 0.0
loop_
_geom_bond_atom_site_label_1
_geom_bond_atom_site_label_2
_geom_bond_distance
_geom_bond_site_symmetry_2
_ccdc_geom_bond_type
C0 O2 1.247 . S
C0 O4 1.258 . S
C1 O8 1.247 . S
C1 O9 1.258 . S
O2 C0 1.247 . S
O2 Zn3 2.030 1_455 S
Zn3 O2 2.030 1_655 S
Zn3 O7 2.027 1_554 S
Zn3 O9 2.033 1_544 S
Zn3 O10 2.036 . S
O4 C0 1.258 . S
O4 Zn5 2.035 1_544 S
Zn5 O4 2.035 1_566 S
Zn5 O6 2.030 . S
Zn5 O8 2.028 1_455 S
Zn5 O11 2.033 1_556 S
O6 Zn5 2.030 . S
O6 C12 1.247 1_565 S
O7 Zn3 2.027 1_556 S
O7 C12 1.258 1_655 S
O8 C1 1.247 . S
O8 Zn5 2.028 1_655 S
O9 C1 1.258 . S
O9 Zn3 2.033 1_566 S
O10 Zn3 2.036 . S
O10 C13 1.247 1_545 S
O11 Zn5 2.033 1_554 S
O11 C13 1.258 1_455 S
C12 O6 1.247 1_545 S
C12 O7 1.258 1_455 S
C13 O10 1.247 1_565 S
C13 O11 1.258 1_655 S
C14 O16 1.247 . S
C14 O18 1.258 . S
C15 O22 1.247 . S
C15 O23 1.258 . S
O16 C14 1.247 . S
O16 Zn17 2.028 . S
Zn17 O16 2.028 . S
Zn17 O21 2.035 . S
Zn17 O23 2.035 . S
Zn17 O24 2.028 . S
O18 C14 1.258 . S
O18 Zn19 2.035 . S
Zn19 O18 2.035 . S
Zn19 O20 2.028 . S
Zn19 O22 2.028 . S
Zn19 O25 2.035 . S
O20 Zn19 2.028 . S
O20 C26 1.247 . S
O21 Zn17 2.035 . S
O21 C26 1.258 . S
O22 C15 1.247 . S
O22 Zn19 2.028 . S
O23 C15 1.258 . S
O23 Zn17 2.035 . S
O24 Zn17 2.028 . S
O24 C27 1.247 . S
O25 Zn19 2.035 . S
O25 C27 1.258 . S
C26 O20 1.247 . S
C26 O21 1.258 . S
C27 O24 1.247 . S
C27 O25 1.258 . S
C28 O30 1.247 . S
C28 O32 1.258 1_545 S
C29 O36 1.247 . S
C29 O37 1.258 1_565 S
O30 C28 1.247 . S
O30 Zn31 2.028 . S
Zn31 O30 2.028 . S
Zn31 O35 2.035 . S
Zn31 O37 2.035 . S
Zn31 O38 2.028 1_545 S
O32 C28 1.258 1_565 S
O32 Zn33 2.035 . S
Zn33 O32 2.035 . S
Zn33 O34 2.028 1_565 S
Zn33 O36 2.028 . S
Zn33 O39 2.035 . S
O34 Zn33 2.028 1_545 S
O34 C40 1.247 . S
O35 Zn31 2.035 . S
O35 C40 1.258 . S
O36 C29 1.247 . S
O36 Zn33 2.028 . S
O37 C29 1.258 1_545 S
O37 Zn31 2.035 . S
O38 Zn31 2.028 1_565 S
O38 C41 1.247 . S
O39 Zn33 2.035 . S
O39 C41 1.258 . S
C40 O34 1.247 . S
C40 O35 1.258 . S
C41 O38 1.247 . S
C41 O39 1.258 . S
C42 O44 1.247 . S
C42 O46 1.258 . S
C43 O50 1.247 . S
C43 O51 1.258 . S
O44 C42 1.247 . S
O44 Zn45 2.028 . S
Zn45 O44 2.028 . S
Zn45 O49 2.035 . S
Zn45 O51 2.035 . S
Zn45 O52 2.028 . S
O46 C42 1.258 . S
O46 Zn47 2.035 . S
Zn47 O46 2.035 . S
Zn47 O48 2.028 . S
Zn47 O50 2.028 . S
Zn47 O53 2.035 . S
O48 Zn47 2.028 . S
O48 C54 1.247 . S
O49 Zn45 2.035 . S
O49 C54 1.258 . S
O50 C43 1.247 . S
O50 Zn47 2.028 . S
O51 C43 1.258 . S
O51 Zn45 2.035 . S
O52 Zn45 2.028 . S
O52 C55 1.247 . S
O53 Zn47 2.035 . S
O53 C55 1.258 . S
C54 O48 1.247 . S
C54 O49 1.258 . S
C55 O52 1.247 . S
C55 O53 1.258 . S
C56 O58 1.247 . S
C56 O60 1.258 . S
C57 O64 1.247 . S
C57 O65 1.258 . S
O58 C56 1.247 . S
O58 Zn59 2.028 1_545 S
Zn59 O58 2.028 1_565 S
Zn59 O63 2.035 . S
Zn59 O65 2.035 1_655 S
Zn59 O66 2.028 . S
O60 C56 1.258 . S
O60 Zn61 2.035 1_655 S
Zn61 O60 2.035 1_455 S
Zn61 O62 2.028 . S
Zn61 O64 2.028 1_545 S
Zn61 O67 2.035 . S
O62 Zn61 2.028 . S
O62 C68 1.247 1_455 S
O63 Zn59 2.035 . S
O63 C68 1.258 1_565 S
O64 C57 1.247 . S
O64 Zn61 2.028 1_565 S
O65 C57 1.258 . S
O65 Zn59 2.035 1_455 S
O66 Zn59 2.028 . S
O66 C69 1.247 1_655 S
O67 Zn61 2.035 . S
O67 C69 1.258 1_545 S
C68 O62 1.247 1_655 S
C68 O63 1.258 1_545 S
C69 O66 1.247 1_455 S
C69 O67 1.258 1_565 S
C70 O72 1.247 . S
C70 O74 1.258 . S
C71 O78 1.247 . S
C71 O79 1.258 . S
O72 C70 1.247 . S
O72 Zn73 2.028 . S
Zn73 O72 2.028 . S
Zn73 O77 2.035 . S
Zn73 O79 2.035 . S
Zn73 O80 2.028 . S
O74 C70 1.258 . S
O74 Zn75 2.035 . S
Zn75 O74 2.035 . S
Zn75 O76 2.028 . S
Zn75 O78 2.028 . S
Zn75 O81 2.035 . S
O76 Zn75 2.028 . S
O76 C82 1.247 . S
O77 Zn73 2.035 . S
O77 C82 1.258 . S
O78 C71 1.247 . S
O78 Zn75 2.028 . S
O79 C71 1.258 . S
O79 Zn73 2.035 . S
O80 Zn73 2.028 . S
O80 C83 1.247 . S
O81 Zn75 2.035 . S
O81 C83 1.258 . S
C82 O76 1.247 . S
C82 O77 1.258 . S
C83 O80 1.247 . S
C83 O81 1.258 . S
C84 O86 1.247 . S
C84 O88 1.258 . S
C85 O92 1.247 . S
C85 O93 1.258 . S
O86 C84 1.247 . S
O86 Zn87 2.030 1_565 S
Zn87 O86 2.030 1_545 S
Zn87 O91 2.027 1_554 S
Zn87 O93 2.033 1_554 S
Zn87 O94 2.036 . S
O88 C84 1.258 . S
O88 Zn89 2.035 1_554 S
Zn89 O88 2.035 1_556 S
Zn89 O90 2.030 . S
Zn89 O92 2.028 1_565 S
Zn89 O95 2.033 1_556 S
O90 Zn89 2.030 . S
O90 C96 1.247 . S
O91 Zn87 2.027 1_556 S
O91 C96 1.258 1_545 S
O92 C85 1.247 . S
O92 Zn89 2.028 1_545 S
O93 C85 1.258 . S
O93 Zn87 2.033 1_556 S
O94 Zn87 2.036 . S
O94 C97 1.247 . S
O95 Zn89 2.033 1_554 S
O95 C97 1.258 1_565 S
C96 O90 1.247 . S
C96 O91 1.258 1_565 S
C97 O94 1.247 . S
C97 O95 1.258 1_545 S
C98 O100 1.247 . S
C98 O102 1.258 . S
C99 O106 1.247 . S
C99 O107 1.258 . S
O100 C98 1.247 . S
O100 Zn101 2.028 . S
Zn101 O100 2.028 . S
Zn101 O105 2.035 . S
Zn101 O107 2.035 . S
Zn101 O108 2.028 . S
O102 C98 1.258 . S
O102 Zn103 2.035 . S
Zn103 O102 2.035 . S
Zn103 O104 2.028 . S
Zn103 O106 2.028 . S
Zn103 O109 2.035 . S
O104 Zn103 2.028 . S
O104 C110 1.247 . S
O105 Zn101 2.035 . S
O105 C110 1.258 . S
O106 C99 1.247 . S
O106 Zn103 2.028 . S
O107 C99 1.258 . S
O107 Zn101 2.035 . S
O108 Zn101 2.028 . S
O108 C111 1.247 . S
O109 Zn103 2.035 . S
O109 C111 1.258 . S
C110 O104 1.247 . S
C110 O105 1.258 . S
C111 O108 1.247 . S
C111 O109 1.258 . S
C112 O114 1.247 . S
C112 O116 1.258 . S
C113 O120 1.247 . S
C113 O121 1.258 . S
O114 C112 1.247 . S
O114 Zn115 2.028 . S
Zn115 O114 2.028 . S
Zn115 O119 2.035 . S
Zn115 O121 2.035 . S
Zn115 O122 2.028 . S
O116 C112 1.258 . S
O116 Zn117 2.035 . S
Zn117 O116 2.035 . S
Zn117 O118 2.028 . S
Zn117 O120 2.028 . S
Zn117 O123 2.035 . S
O118 Zn117 2.028 . S
O118 C124 1.247 . S
O119 Zn115 2.035 . S
O119 C124 1.258 . S
O120 C113 1.247 . S
O120 Zn117 2.028 . S
O121 C113 1.258 . S
O121 Zn115 2.035 . S
O122 Zn115 2.028 . S
O122 C125 1.247 . S
O123 Zn117 2.035 . S
O123 C125 1.258 . S
C124 O118 1.247 . S
C124 O119 1.258 . S
C125 O122 1.247 . S
C125 O123 1.258 . S
C126 O128 1.247 . S
C126 O130 1.258 . S
C127 O134 1.247 . S
C127 O135 1.258 . S
O128 C126 1.247 . S
O128 Zn129 2.028 . S
Zn129 O128 2.028 . S
Zn129 O133 2.035 . S
Zn129 O135 2.035 . S
Zn129 O136 2.028 . S
O130 C126 1.258 . S
O130 Zn131 2.035 . S
Zn131 O130 2.035 . S
Zn131 O132 2.028 . S
Zn131 O134 2.028 . S
Zn131 O137 2.035 . S
O132 Zn131 2.028 . S
O132 C138 1.247 . S
O133 Zn129 2.035 . S
O133 C138 1.258 . S
O134 C127 1.247 . S
O134 Zn131 2.028 . S
O135 C127 1.258 . S
O135 Zn129 2.035 . S
O136 Zn129 2.028 . S
O136 C139 1.247 . S
O137 Zn131 2.035 . S
O137 C139 1.258 . S
C138 O132 1.247 . S
C138 O133 1.258 . S
C139 O136 1.247 . S
C139 O137 1.258 . S
C140 O142 1.247 . S
C140 O144 1.258 . S
C141 O148 1.247 . S
C141 O149 1.258 . S
O142 C140 1.247 . S
O142 Zn143 2.028 . S
Zn143 O142 2.028 . S
Zn143 O147 2.035 . S
Zn143 O149 2.035 . S
Zn143 O150 2.028 . S
O144 C140 1.258 . S
O144 Zn145 2.035 . S
Zn145 O144 2.035 . S
Zn145 O146 2.028 . S
Zn145 O148 2.028 . S
Zn145 O151 2.035 . S
O146 Zn145 2.028 . S
O146 C152 1.247 . S
O147 Zn143 2.035 . S
O147 C152 1.258 . S
O148 C141 1.247 . S
O148 Zn145 2.028 . S
O149 C141 1.258 . S
O149 Zn143 2.035 . S
O150 Zn143 2.028 . S
O150 C153 1.247 . S
O151 Zn145 2.035 . S
O151 C153 1.258 . S
C152 O146 1.247 . S
C152 O147 1.258 . S
C153 O150 1.247 . S
C153 O151 1.258 . S
C154 O156 1.247 . S
C154 O158 1.258 . S
C155 O162 1.247 . S
C155 O163 1.258 . S
O156 C154 1.247 . S
O156 Zn157 2.028 . S
Zn157 O156 2.028 . S
Zn157 O161 2.035 . S
Zn157 O163 2.035 . S
Zn157 O164 2.028 . S
O158 C154 1.258 . S
O158 Zn159 2.035 . S
Zn159 O158 2.035 . S
Zn159 O160 2.028 . S
Zn159 O162 2.028 . S
Zn159 O165 2.035 . S
O160 Zn159 2.028 . S
O160 C166 1.247 . S
O161 Zn157 2.035 . S
O161 C166 1.258 . S
O162 C155 1.247 . S
O162 Zn159 2.028 . S
O163 C155 1.258 . S
O163 Zn157 2.035 . S
O164 Zn157 2.028 . S
O164 C167 1.247 . S
O165 Zn159 2.035 . S
O165 C167 1.258 . S
C166 O160 1.247 . S
C166 O161 1.258 . S
C167 O164 1.247 . S
C167 O165 1.258 . S
C168 O170 1.247 . S
C168 O172 1.258 . S
C169 O176 1.247 . S
C169 O177 1.258 . S
O170 C168 1.247 . S
O170 Zn171 2.028 . S
Zn171 O170 2.028 . S
Zn171 O175 2.035 . S
Zn171 O177 2.035 . S
Zn171 O178 2.028 . S
O172 C168 1.258 . S
O172 Zn173 2.035 . S
Zn173 O172 2.035 . S
Zn173 O174 2.028 . S
Zn173 O176 2.028 . S
Zn173 O179 2.035 . S
O174 Zn173 2.028 . S
O174 C180 1.247 . S
O175 Zn171 2.035 . S
O175 C180 1.258 . S
O176 C169 1.247 . S
O176 Zn173 2.028 . S
O177 C169 1.258 . S
O177 Zn171 2.035 . S
O178 Zn171 2.028 . S
O178 C181 1.247 . S
O179 Zn173 2.035 . S
O179 C181 1.258 . S
C180 O174 1.247 . S
C180 O175 1.258 . S
C181 O178 1.247 . S
C181 O179 1.258 . S
C182 O184 1.247 1_455 S
C182 O186 1.258 . S
C183 O190 1.247 1_655 S
C183 O191 1.258 . S
O184 C182 1.247 1_655 S
O184 Zn185 2.036 . S
Zn185 O184 2.036 . S
Zn185 O189 2.033 1_654 S
Zn185 O191 2.027 1_554 S
Zn185 O192 2.030 . S
O186 C182 1.258 . S
O186 Zn187 2.033 1_554 S
Zn187 O186 2.033 1_556 S
Zn187 O188 2.028 . S
Zn187 O190 2.030 . S
Zn187 O193 2.035 1_456 S
O188 Zn187 2.028 . S
O188 C194 1.247 . S
O189 Zn185 2.033 1_456 S
O189 C194 1.258 . S
O190 C183 1.247 1_455 S
O190 Zn187 2.030 . S
O191 C183 1.258 . S
O191 Zn185 2.027 1_556 S
O192 Zn185 2.030 . S
O192 C195 1.247 . S
O193 Zn187 2.035 1_654 S
O193 C195 1.258 . S
C194 O188 1.247 . S
C194 O189 1.258 . S
C195 O192 1.247 . S
C195 O193 1.258 . S
C196 O198 1.247 . S
C196 O200 1.258 . S
C197 O204 1.247 . S
C197 O205 1.258 . S
O198 C196 1.247 . S
O198 Zn199 2.030 . S
Zn199 O198 2.030 . S
Zn199 O203 2.027 1_554 S
Zn199 O205 2.033 1_554 S
Zn199 O206 2.036 . S
O200 C196 1.258 . S
O200 Zn201 2.035 1_554 S
Zn201 O200 2.035 1_556 S
Zn201 O202 2.030 . S
Zn201 O204 2.028 . S
Zn201 O207 2.033 1_556 S
O202 Zn201 2.030 . S
O202 C208 1.247 . S
O203 Zn199 2.027 1_556 S
O203 C208 1.258 . S
O204 C197 1.247 . S
O204 Zn201 2.028 . S
O205 C197 1.258 . S
O205 Zn199 2.033 1_556 S
O206 Zn199 2.036 . S
O206 C209 1.247 . S
O207 Zn201 2.033 1_554 S
O207 C209 1.258 . S
C208 O202 1.247 . S
C208 O203 1.258 . S
C209 O206 1.247 . S
C209 O207 1.258 . S
C210 O212 1.247 . S
C210 O214 1.258 . S
C211 O218 1.247 . S
C211 O219 1.258 . S
O212 C210 1.247 . S
O212 Zn213 2.028 . S
Zn213 O212 2.028 . S
Zn213 O217 2.035 . S
Zn213 O219 2.035 1_455 S
Zn213 O220 2.028 . S
O214 C210 1.258 . S
O214 Zn215 2.035 1_455 S
Zn215 O214 2.035 1_655 S
Zn215 O216 2.028 . S
Zn215 O218 2.028 . S
Zn215 O221 2.035 . S
O216 Zn215 2.028 . S
O216 C222 1.247 1_655 S
O217 Zn213 2.035 . S
O217 C222 1.258 . S
O218 C211 1.247 . S
O218 Zn215 2.028 . S
O219 C211 1.258 . S
O219 Zn213 2.035 1_655 S
O220 Zn213 2.028 . S
O220 C223 1.247 1_455 S
O221 Zn215 2.035 . S
O221 C223 1.258 . S
C222 O216 1.247 1_455 S
C222 O217 1.258 . S
C223 O220 1.247 1_655 S
C223 O221 1.258 . S
C224 C225 1.349 1_455 S
C224 C226 1.327 . S
C224 H249 0.950 . S
C225 C224 1.349 1_655 S
C225 C241 1.349 1_565 S
C226 C224 1.327 . S
C226 C245 1.429 1_455 S
C226 H250 0.950 . S
C227 C244 1.574 . S
C227 C246 1.368 1_545 S
C227 H251 0.949 . S
H228 C232 0.949 . S
C229 C230 1.349 . S
C229 C231 1.327 . S
C229 H252 0.950 . S
C230 C229 1.349 . S
C230 C242 1.349 1_645 S
C231 C229 1.327 . S
C231 C247 1.429 . S
C231 H253 0.950 . S
C232 H228 0.949 . S
C232 C240 1.574 . S
C232 C248 1.368 1_465 S
H233 C241 0.950 . S
H234 C239 0.950 . S
H235 C240 0.949 . S
H236 C242 0.950 . S
H237 C243 0.950 . S
H238 C244 0.949 . S
C239 H234 0.950 . S
C239 C241 1.327 . S
C239 C245 1.429 1_545 S
C240 C232 1.574 . S
C240 H235 0.949 . S
C240 C246 1.368 1_455 S
C241 C225 1.349 1_545 S
C241 H233 0.950 . S
C241 C239 1.327 . S
C242 C230 1.349 1_465 S
C242 H236 0.950 . S
C242 C243 1.327 . S
C243 H237 0.950 . S
C243 C242 1.327 . S
C243 C247 1.429 1_465 S
C244 C227 1.574 . S
C244 H238 0.949 . S
C244 C248 1.368 . S
C245 C226 1.429 1_655 S
C245 C239 1.429 1_565 S
C245 C246 1.523 . S
C246 C227 1.368 1_565 S
C246 C240 1.368 1_655 S
C246 C245 1.523 . S
C247 C231 1.429 . S
C247 C243 1.429 1_645 S
C247 C248 1.523 . S
C248 C232 1.368 1_645 S
C248 C244 1.368 . S
C248 C247 1.523 . S
H249 C224 0.950 . S
H250 C226 0.950 . S
H251 C227 0.949 . S
H252 C229 0.950 . S
H253 C231 0.950 . S
C254 C255 1.349 . S
C254 C256 1.327 . S
C254 H279 0.950 . S
C255 C254 1.349 . S
C255 C271 1.349 . S
C256 C254 1.327 . S
C256 C275 1.429 . S
C256 H280 0.950 . S
C257 C274 1.574 . S
C257 C276 1.368 . S
C257 H281 0.949 . S
H258 C262 0.949 . S
C259 C260 1.349 . S
C259 C261 1.327 . S
C259 H282 0.950 . S
C260 C259 1.349 . S
C260 C272 1.349 . S
C261 C259 1.327 . S
C261 C277 1.429 . S
C261 H283 0.950 . S
C262 H258 0.949 . S
C262 C270 1.574 . S
C262 C278 1.368 . S
H263 C271 0.950 . S
H264 C269 0.950 . S
H265 C270 0.949 . S
H266 C272 0.950 . S
H267 C273 0.950 . S
H268 C274 0.949 . S
C269 H264 0.950 . S
C269 C271 1.327 . S
C269 C275 1.429 . S
C270 C262 1.574 . S
C270 H265 0.949 . S
C270 C276 1.368 . S
C271 C255 1.349 . S
C271 H263 0.950 . S
C271 C269 1.327 . S
C272 C260 1.349 . S
C272 H266 0.950 . S
C272 C273 1.327 . S
C273 H267 0.950 . S
C273 C272 1.327 . S
C273 C277 1.429 . S
C274 C257 1.574 . S
C274 H268 0.949 . S
C274 C278 1.368 . S
C275 C256 1.429 . S
C275 C269 1.429 . S
C275 C276 1.523 . S
C276 C257 1.368 . S
C276 C270 1.368 . S
C276 C275 1.523 . S
C277 C261 1.429 . S
C277 C273 1.429 . S
C277 C278 1.523 . S
C278 C262 1.368 . S
C278 C274 1.368 . S
C278 C277 1.523 . S
H279 C254 0.950 . S
H280 C256 0.950 . S
H281 C257 0.949 . S
H282 C259 0.950 . S
H283 C261 0.950 . S
C284 C285 1.349 1_545 S
C284 C286 1.327 . S
C284 H309 0.950 . S
C285 C284 1.349 1_565 S
C285 C301 1.349 . S
C286 C284 1.327 . S
C286 C305 1.429 1_545 S
C286 H310 0.950 . S
C287 C304 1.574 . S
C287 C306 1.368 . S
C287 H311 0.949 . S
H288 C292 0.949 . S
C289 C290 1.349 1_565 S
C289 C291 1.327 . S
C289 H312 0.950 . S
C290 C289 1.349 1_545 S
C290 C302 1.349 . S
C291 C289 1.327 . S
C291 C307 1.429 1_565 S
C291 H313 0.950 . S
C292 H288 0.949 . S
C292 C300 1.574 . S
C292 C308 1.368 . S
H293 C301 0.950 . S
H294 C299 0.950 . S
H295 C300 0.949 . S
H296 C302 0.950 . S
H297 C303 0.950 . S
H298 C304 0.949 . S
C299 H294 0.950 . S
C299 C301 1.327 . S
C299 C305 1.429 . S
C300 C292 1.574 . S
C300 H295 0.949 . S
C300 C306 1.368 1_545 S
C301 C285 1.349 . S
C301 H293 0.950 . S
C301 C299 1.327 . S
C302 C290 1.349 . S
C302 H296 0.950 . S
C302 C303 1.327 . S
C303 H297 0.950 . S
C303 C302 1.327 . S
C303 C307 1.429 . S
C304 C287 1.574 . S
C304 H298 0.949 . S
C304 C308 1.368 1_565 S
C305 C286 1.429 1_565 S
C305 C299 1.429 . S
C305 C306 1.523 . S
C306 C287 1.368 . S
C306 C300 1.368 1_565 S
C306 C305 1.523 . S
C307 C291 1.429 1_545 S
C307 C303 1.429 . S
C307 C308 1.523 . S
C308 C292 1.368 . S
C308 C304 1.368 1_545 S
C308 C307 1.523 . S
H309 C284 0.950 . S
H310 C286 0.950 . S
H311 C287 0.949 . S
H312 C289 0.950 . S
H313 C291 0.950 . S
C314 C315 1.349 . S
C314 C316 1.327 . S
C314 H339 0.950 . S
C315 C314 1.349 . S
C315 C331 1.349 . S
C316 C314 1.327 . S
C316 C335 1.429 . S
C316 H340 0.950 . S
C317 C334 1.574 1_556 S
C317 C336 1.368 . S
C317 H341 0.949 . S
H318 C322 0.949 . S
C319 C320 1.349 . S
C319 C321 1.327 . S
C319 H342 0.950 . S
C320 C319 1.349 . S
C320 C332 1.349 . S
C321 C319 1.327 . S
C321 C337 1.429 . S
C321 H343 0.950 . S
C322 H318 0.949 . S
C322 C330 1.574 1_554 S
C322 C338 1.368 . S
H323 C331 0.950 . S
H324 C329 0.950 . S
H325 C330 0.949 . S
H326 C332 0.950 . S
H327 C333 0.950 . S
H328 C334 0.949 . S
C329 H324 0.950 . S
C329 C331 1.327 . S
C329 C335 1.429 . S
C330 C322 1.574 1_556 S
C330 H325 0.949 . S
C330 C336 1.368 . S
C331 C315 1.349 . S
C331 H323 0.950 . S
C331 C329 1.327 . S
C332 C320 1.349 . S
C332 H326 0.950 . S
C332 C333 1.327 . S
C333 H327 0.950 . S
C333 C332 1.327 . S
C333 C337 1.429 . S
C334 C317 1.574 1_554 S
C334 H328 0.949 . S
C334 C338 1.368 . S
C335 C316 1.429 . S
C335 C329 1.429 . S
C335 C336 1.523 . S
C336 C317 1.368 . S
C336 C330 1.368 . S
C336 C335 1.523 . S
C337 C321 1.429 . S
C337 C333 1.429 . S
C337 C338 1.523 . S
C338 C322 1.368 . S
C338 C334 1.368 . S
C338 C337 1.523 . S
H339 C314 0.950 . S
H340 C316 0.950 . S
H341 C317 0.949 . S
H342 C319 0.950 . S
H343 C321 0.950 . S
C344 C345 1.349 1_645 S
C344 C346 1.327 . S
C344 H369 0.950 . S
C345 C344 1.349 1_465 S
C345 C361 1.349 . S
C346 C344 1.327 . S
C346 C365 1.429 1_645 S
C346 H370 0.950 . S
C347 C364 1.574 . S
C347 C366 1.368 . S
C347 H371 0.949 . S
H348 C352 0.949 . S
C349 C350 1.349 1_565 S
C349 C351 1.327 . S
C349 H372 0.950 . S
C350 C349 1.349 1_545 S
C350 C362 1.349 1_455 S
C351 C349 1.327 . S
C351 C367 1.429 1_565 S
C351 H373 0.950 . S
C352 H348 0.949 . S
C352 C360 1.574 . S
C352 C368 1.368 1_655 S
H353 C361 0.950 . S
H354 C359 0.950 . S
H355 C360 0.949 . S
H356 C362 0.950 . S
H357 C363 0.950 . S
H358 C364 0.949 . S
C359 H354 0.950 . S
C359 C361 1.327 . S
C359 C365 1.429 . S
C360 C352 1.574 . S
C360 H355 0.949 . S
C360 C366 1.368 1_645 S
C361 C345 1.349 . S
C361 H353 0.950 . S
C361 C359 1.327 . S
C362 C350 1.349 1_655 S
C362 H356 0.950 . S
C362 C363 1.327 . S
C363 H357 0.950 . S
C363 C362 1.327 . S
C363 C367 1.429 1_655 S
C364 C347 1.574 . S
C364 H358 0.949 . S
C364 C368 1.368 1_565 S
C365 C346 1.429 1_465 S
C365 C359 1.429 . S
C365 C366 1.523 . S
C366 C347 1.368 . S
C366 C360 1.368 1_465 S
C366 C365 1.523 . S
C367 C351 1.429 1_545 S
C367 C363 1.429 1_455 S
C367 C368 1.523 . S
C368 C352 1.368 1_455 S
C368 C364 1.368 1_545 S
C368 C367 1.523 . S
H369 C344 0.950 . S
H370 C346 0.950 . S
H371 C347 0.949 . S
H372 C349 0.950 . S
H373 C351 0.950 . S
C374 C375 1.349 . S
C374 C376 1.327 . S
C374 H399 0.950 . S
C375 C374 1.349 . S
C375 C391 1.349 . S
C376 C374 1.327 . S
C376 C395 1.429 . S
C376 H400 0.950 . S
C377 C394 1.574 . S
C377 C396 1.368 . S
C377 H401 0.949 . S
H378 C382 0.949 . S
C379 C380 1.349 . S
C379 C381 1.327 . S
C379 H402 0.950 . S
C380 C379 1.349 . S
C380 C392 1.349 . S
C381 C379 1.327 . S
C381 C397 1.429 . S
C381 H403 0.950 . S
C382 H378 0.949 . S
C382 C390 1.574 . S
C382 C398 1.368 . S
H383 C391 0.950 . S
H384 C389 0.950 . S
H385 C390 0.949 . S
H386 C392 0.950 . S
H387 C393 0.950 . S
H388 C394 0.949 . S
C389 H384 0.950 . S
C389 C391 1.327 . S
C389 C395 1.429 . S
C390 C382 1.574 . S
C390 H385 0.949 . S
C390 C396 1.368 . S
C391 C375 1.349 . S
C391 H383 0.950 . S
C391 C389 1.327 . S
C392 C380 1.349 . S
C392 H386 0.950 . S
C392 C393 1.327 . S
C393 H387 0.950 . S
C393 C392 1.327 . S
C393 C397 1.429 . S
C394 C377 1.574 . S
C394 H388 0.949 . S
C394 C398 1.368 . S
C395 C376 1.429 . S
C395 C389 1.429 . S
C395 C396 1.523 . S
C396 C377 1.368 . S
C396 C390 1.368 . S
C396 C395 1.523 . S
C397 C381 1.429 . S
C397 C393 1.429 . S
C397 C398 1.523 . S
C398 C382 1.368 . S
C398 C394 1.368 . S
C398 C397 1.523 . S
H399 C374 0.950 . S
H400 C376 0.950 . S
H401 C377 0.949 . S
H402 C379 0.950 . S
H403 C381 0.950 . S
C404 C405 1.349 . S
C404 C406 1.327 . S
C404 H429 0.950 . S
C405 C404 1.349 . S
C405 C421 1.349 1_545 S
C406 C404 1.327 . S
C406 C425 1.429 . S
C406 H430 0.950 . S
C407 C424 1.574 . S
C407 C426 1.368 1_565 S
C407 H431 0.949 . S
H408 C412 0.949 . S
C409 C410 1.349 . S
C409 C411 1.327 . S
C409 H432 0.950 . S
C410 C409 1.349 . S
C410 C422 1.349 1_565 S
C411 C409 1.327 . S
C411 C427 1.429 . S
C411 H433 0.950 . S
C412 H408 0.949 . S
C412 C420 1.574 . S
C412 C428 1.368 1_545 S
H413 C421 0.950 . S
H414 C419 0.950 . S
H415 C420 0.949 . S
H416 C422 0.950 . S
H417 C423 0.950 . S
H418 C424 0.949 . S
C419 H414 0.950 . S
C419 C421 1.327 . S
C419 C425 1.429 1_565 S
C420 C412 1.574 . S
C420 H415 0.949 . S
C420 C426 1.368 . S
C421 C405 1.349 1_565 S
C421 H413 0.950 . S
C421 C419 1.327 . S
C422 C410 1.349 1_545 S
C422 H416 0.950 . S
C422 C423 1.327 . S
C423 H417 0.950 . S
C423 C422 1.327 . S
C423 C427 1.429 1_545 S
C424 C407 1.574 . S
C424 H418 0.949 . S
C424 C428 1.368 . S
C425 C406 1.429 . S
C425 C419 1.429 1_545 S
C425 C426 1.523 . S
C426 C407 1.368 1_545 S
C426 C420 1.368 . S
C426 C425 1.523 . S
C427 C411 1.429 . S
C427 C423 1.429 1_565 S
C427 C428 1.523 . S
C428 C412 1.368 1_565 S
C428 C424 1.368 . S
C428 C427 1.523 . S
H429 C404 0.950 . S
H430 C406 0.950 . S
H431 C407 0.949 . S
H432 C409 0.950 . S
H433 C411 0.950 . S
C434 C435 1.349 . S
C434 C436 1.327 . S
C434 H459 0.950 . S
C435 C434 1.349 . S
C435 C451 1.349 . S
C436 C434 1.327 . S
C436 C455 1.429 . S
C436 H460 0.950 . S
C437 C454 1.574 1_554 S
C437 C456 1.368 . S
C437 H461 0.949 . S
H438 C442 0.949 . S
C439 C440 1.349 . S
C439 C441 1.327 . S
C439 H462 0.950 . S
C440 C439 1.349 . S
C440 C452 1.349 . S
C441 C439 1.327 . S
C441 C457 1.429 . S
C441 H463 0.950 . S
C442 H438 0.949 . S
C442 C450 1.574 1_556 S
C442 C458 1.368 . S
H443 C451 0.950 . S
H444 C449 0.950 . S
H445 C450 0.949 . S
H446 C452 0.950 . S
H447 C453 0.950 . S
H448 C454 0.949 . S
C449 H444 0.950 . S
C449 C451 1.327 . S
C449 C455 1.429 . S
C450 C442 1.574 1_554 S
C450 H445 0.949 . S
C450 C456 1.368 . S
C451 C435 1.349 . S
C451 H443 0.950 . S
C451 C449 1.327 . S
C452 C440 1.349 . S
C452 H446 0.950 . S
C452 C453 1.327 . S
C453 H447 0.950 . S
C453 C452 1.327 . S
C453 C457 1.429 . S
C454 C437 1.574 1_556 S
C454 H448 0.949 . S
C454 C458 1.368 . S
C455 C436 1.429 . S
C455 C449 1.429 . S
C455 C456 1.523 . S
C456 C437 1.368 . S
C456 C450 1.368 . S
C456 C455 1.523 . S
C457 C441 1.429 . S
C457 C453 1.429 . S
C457 C458 1.523 . S
C458 C442 1.368 . S
C458 C454 1.368 . S
C458 C457 1.523 . S
H459 C434 0.950 . S
H460 C436 0.950 . S
H461 C437 0.949 . S
H462 C439 0.950 . S
H463 C441 0.950 . S
C464 C465 1.349 . S
C464 C466 1.327 . S
C464 H489 0.950 . S
C465 C464 1.349 . S
C465 C481 1.349 . S
C466 C464 1.327 . S
C466 C485 1.429 . S
C466 H490 0.950 . S
C467 C484 1.574 . S
C467 C486 1.368 . S
C467 H491 0.949 . S
H468 C472 0.949 . S
C469 C470 1.349 . S
C469 C471 1.327 . S
C469 H492 0.950 . S
C470 C469 1.349 . S
C470 C482 1.349 . S
C471 C469 1.327 . S
C471 C487 1.429 . S
C471 H493 0.950 . S
C472 H468 0.949 . S
C472 C480 1.574 . S
C472 C488 1.368 . S
H473 C481 0.950 . S
H474 C479 0.950 . S
H475 C480 0.949 . S
H476 C482 0.950 . S
H477 C483 0.950 . S
H478 C484 0.949 . S
C479 H474 0.950 . S
C479 C481 1.327 . S
C479 C485 1.429 . S
C480 C472 1.574 . S
C480 H475 0.949 . S
C480 C486 1.368 . S
C481 C465 1.349 . S
C481 H473 0.950 . S
C481 C479 1.327 . S
C482 C470 1.349 . S
C482 H476 0.950 . S
C482 C483 1.327 . S
C483 H477 0.950 . S
C483 C482 1.327 . S
C483 C487 1.429 . S
C484 C467 1.574 . S
C484 H478 0.949 . S
C484 C488 1.368 . S
C485 C466 1.429 . S
C485 C479 1.429 . S
C485 C486 1.523 . S
C486 C467 1.368 . S
C486 C480 1.368 . S
C486 C485 1.523 . S
C487 C471 1.429 . S
C487 C483 1.429 . S
C487 C488 1.523 . S
C488 C472 1.368 . S
C488 C484 1.368 . S
C488 C487 1.523 . S
H489 C464 0.950 . S
H490 C466 0.950 . S
H491 C467 0.949 . S
H492 C469 0.950 . S
H493 C471 0.950 . S
C494 C495 1.349 . S
C494 C496 1.327 . S
C494 H519 0.950 . S
C495 C494 1.349 . S
C495 C511 1.349 . S
C496 C494 1.327 . S
C496 C515 1.429 . S
C496 H520 0.950 . S
C497 C514 1.574 1_556 S
C497 C516 1.368 . S
C497 H521 0.949 . S
H498 C502 0.949 . S
C499 C500 1.349 . S
C499 C501 1.327 . S
C499 H522 0.950 . S
C500 C499 1.349 . S
C500 C512 1.349 . S
C501 C499 1.327 . S
C501 C517 1.429 . S
C501 H523 0.950 . S
C502 H498 0.949 . S
C502 C510 1.574 1_554 S
C502 C518 1.368 . S
H503 C511 0.950 . S
H504 C509 0.950 . S
H505 C510 0.949 . S
H506 C512 0.950 . S
H507 C513 0.950 . S
H508 C514 0.949 . S
C509 H504 0.950 . S
C509 C511 1.327 . S
C509 C515 1.429 . S
C510 C502 1.574 1_556 S
C510 H505 0.949 . S
C510 C516 1.368 . S
C511 C495 1.349 . S
C511 H503 0.950 . S
C511 C509 1.327 . S
C512 C500 1.349 . S
C512 H506 0.950 . S
C512 C513 1.327 . S
C513 H507 0.950 . S
C513 C512 1.327 . S
C513 C517 1.429 . S
C514 C497 1.574 1_554 S
C514 H508 0.949 . S
C514 C518 1.368 . S
C515 C496 1.429 . S
C515 C509 1.429 . S
C515 C516 1.523 . S
C516 C497 1.368 . S
C516 C510 1.368 . S
C516 C515 1.523 . S
C517 C501 1.429 . S
C517 C513 1.429 . S
C517 C518 1.523 . S
C518 C502 1.368 . S
C518 C514 1.368 . S
C518 C517 1.523 . S
H519 C494 0.950 . S
H520 C496 0.950 . S
H521 C497 0.949 . S
H522 C499 0.950 . S
H523 C501 0.950 . S
C524 C525 1.349 1_655 S
C524 C526 1.327 . S
C524 H549 0.950 . S
C525 C524 1.349 1_455 S
C525 C541 1.349 . S
C526 C524 1.327 . S
C526 C545 1.429 1_655 S
C526 H550 0.950 . S
C527 C544 1.574 . S
C527 C546 1.368 . S
C527 H551 0.949 . S
H528 C532 0.949 . S
C529 C530 1.349 . S
C529 C531 1.327 . S
C529 H552 0.950 . S
C530 C529 1.349 . S
C530 C542 1.349 1_455 S
C531 C529 1.327 . S
C531 C547 1.429 . S
C531 H553 0.950 . S
C532 H528 0.949 . S
C532 C540 1.574 . S
C532 C548 1.368 1_655 S
H533 C541 0.950 . S
H534 C539 0.950 . S
H535 C540 0.949 . S
H536 C542 0.950 . S
H537 C543 0.950 . S
H538 C544 0.949 . S
C539 H534 0.950 . S
C539 C541 1.327 . S
C539 C545 1.429 . S
C540 C532 1.574 . S
C540 H535 0.949 . S
C540 C546 1.368 1_655 S
C541 C525 1.349 . S
C541 H533 0.950 . S
C541 C539 1.327 . S
C542 C530 1.349 1_655 S
C542 H536 0.950 . S
C542 C543 1.327 . S
C543 H537 0.950 . S
C543 C542 1.327 . S
C543 C547 1.429 1_655 S
C544 C527 1.574 . S
C544 H538 0.949 . S
C544 C548 1.368 . S
C545 C526 1.429 1_455 S
C545 C539 1.429 . S
C545 C546 1.523 . S
C546 C527 1.368 . S
C546 C540 1.368 1_455 S
C546 C545 1.523 . S
C547 C531 1.429 . S
C547 C543 1.429 1_455 S
C547 C548 1.523 . S
C548 C532 1.368 1_455 S
C548 C544 1.368 . S
C548 C547 1.523 . S
H549 C524 0.950 . S
H550 C526 0.950 . S
H551 C527 0.949 . S
H552 C529 0.950 . S
H553 C531 0.950 . S
C554 C555 1.349 . S
C554 C556 1.327 . S
C554 H579 0.950 . S
C555 C554 1.349 . S
C555 C571 1.349 . S
C556 C554 1.327 . S
C556 C575 1.429 . S
C556 H580 0.950 . S
C557 C574 1.574 . S
C557 C576 1.368 . S
C557 H581 0.949 . S
H558 C562 0.949 . S
C559 C560 1.349 . S
C559 C561 1.327 . S
C559 H582 0.950 . S
C560 C559 1.349 . S
C560 C572 1.349 . S
C561 C559 1.327 . S
C561 C577 1.429 . S
C561 H583 0.950 . S
C562 H558 0.949 . S
C562 C570 1.574 . S
C562 C578 1.368 . S
H563 C571 0.950 . S
H564 C569 0.950 . S
H565 C570 0.949 . S
H566 C572 0.950 . S
H567 C573 0.950 . S
H568 C574 0.949 . S
C569 H564 0.950 . S
C569 C571 1.327 . S
C569 C575 1.429 . S
C570 C562 1.574 . S
C570 H565 0.949 . S
C570 C576 1.368 . S
C571 C555 1.349 . S
C571 H563 0.950 . S
C571 C569 1.327 . S
C572 C560 1.349 . S
C572 H566 0.950 . S
C572 C573 1.327 . S
C573 H567 0.950 . S
C573 C572 1.327 . S
C573 C577 1.429 . S
C574 C557 1.574 . S
C574 H568 0.949 . S
C574 C578 1.368 . S
C575 C556 1.429 . S
C575 C569 1.429 . S
C575 C576 1.523 . S
C576 C557 1.368 . S
C576 C570 1.368 . S
C576 C575 1.523 . S
C577 C561 1.429 . S
C577 C573 1.429 . S
C577 C578 1.523 . S
C578 C562 1.368 . S
C578 C574 1.368 . S
C578 C577 1.523 . S
H579 C554 0.950 . S
H580 C556 0.950 . S
H581 C557 0.949 . S
H582 C559 0.950 . S
H583 C561 0.950 . S
C584 C585 1.349 . S
C584 C586 1.327 . S
C584 H609 0.950 . S
C585 C584 1.349 . S
C585 C601 1.349 . S
C586 C584 1.327 . S
C586 C605 1.429 . S
C586 H610 0.950 . S
C587 C604 1.574 . S
C587 C606 1.368 . S
C587 H611 0.949 . S
H588 C592 0.949 . S
C589 C590 1.349 . S
C589 C591 1.327 . S
C589 H612 0.950 . S
C590 C589 1.349 . S
C590 C602 1.349 . S
C591 C589 1.327 . S
C591 C607 1.429 . S
C591 H613 0.950 . S
C592 H588 0.949 . S
C592 C600 1.574 . S
C592 C608 1.368 . S
H593 C601 0.950 . S
H594 C599 0.950 . S
H595 C600 0.949 . S
H596 C602 0.950 . S
H597 C603 0.950 . S
H598 C604 0.949 . S
C599 H594 0.950 . S
C599 C601 1.327 . S
C599 C605 1.429 . S
C600 C592 1.574 . S
C600 H595 0.949 . S
C600 C606 1.368 . S
C601 C585 1.349 . S
C601 H593 0.950 . S
C601 C599 1.327 . S
C602 C590 1.349 . S
C602 H596 0.950 . S
C602 C603 1.327 . S
C603 H597 0.950 . S
C603 C602 1.327 . S
C603 C607 1.429 . S
C604 C587 1.574 . S
C604 H598 0.949 . S
C604 C608 1.368 . S
C605 C586 1.429 . S
C605 C599 1.429 . S
C605 C606 1.523 . S
C606 C587 1.368 . S
C606 C600 1.368 . S
C606 C605 1.523 . S
C607 C591 1.429 . S
C607 C603 1.429 . S
C607 C608 1.523 . S
C608 C592 1.368 . S
C608 C604 1.368 . S
C608 C607 1.523 . S
H609 C584 0.950 . S
H610 C586 0.950 . S
H611 C587 0.949 . S
H612 C589 0.950 . S
H613 C591 0.950 . S
C614 C615 1.349 . S
C614 C616 1.327 . S
C614 H639 0.950 . S
C615 C614 1.349 . S
C615 C631 1.349 . S
C616 C614 1.327 . S
C616 C635 1.429 . S
C616 H640 0.950 . S
C617 C634 1.574 1_554 S
C617 C636 1.368 . S
C617 H641 0.949 . S
H618 C622 0.949 . S
C619 C620 1.349 . S
C619 C621 1.327 . S
C619 H642 0.950 . S
C620 C619 1.349 . S
C620 C632 1.349 . S
C621 C619 1.327 . S
C621 C637 1.429 . S
C621 H643 0.950 . S
C622 H618 0.949 . S
C622 C630 1.574 1_556 S
C622 C638 1.368 . S
H623 C631 0.950 . S
H624 C629 0.950 . S
H625 C630 0.949 . S
H626 C632 0.950 . S
H627 C633 0.950 . S
H628 C634 0.949 . S
C629 H624 0.950 . S
C629 C631 1.327 . S
C629 C635 1.429 . S
C630 C622 1.574 1_554 S
C630 H625 0.949 . S
C630 C636 1.368 . S
C631 C615 1.349 . S
C631 H623 0.950 . S
C631 C629 1.327 . S
C632 C620 1.349 . S
C632 H626 0.950 . S
C632 C633 1.327 . S
C633 H627 0.950 . S
C633 C632 1.327 . S
C633 C637 1.429 . S
C634 C617 1.574 1_556 S
C634 H628 0.949 . S
C634 C638 1.368 . S
C635 C616 1.429 . S
C635 C629 1.429 . S
C635 C636 1.523 . S
C636 C617 1.368 . S
C636 C630 1.368 . S
C636 C635 1.523 . S
C637 C621 1.429 . S
C637 C633 1.429 . S
C637 C638 1.523 . S
C638 C622 1.368 . S
C638 C634 1.368 . S
C638 C637 1.523 . S
H639 C614 0.950 . S
H640 C616 0.950 . S
H641 C617 0.949 . S
H642 C619 0.950 . S
H643 C621 0.950 . S
C644 C645 1.349 1_455 S
C644 C646 1.327 . S
C644 H669 0.950 . S
C645 C644 1.349 1_655 S
C645 C661 1.349 . S
C646 C644 1.327 . S
C646 C665 1.429 1_455 S
C646 H670 0.950 . S
C647 C664 1.574 . S
C647 C666 1.368 . S
C647 H671 0.949 . S
H648 C652 0.949 . S
C649 C650 1.349 . S
C649 C651 1.327 . S
C649 H672 0.950 . S
C650 C649 1.349 . S
C650 C662 1.349 1_655 S
C651 C649 1.327 . S
C651 C667 1.429 . S
C651 H673 0.950 . S
C652 H648 0.949 . S
C652 C660 1.574 . S
C652 C668 1.368 1_455 S
H653 C661 0.950 . S
H654 C659 0.950 . S
H655 C660 0.949 . S
H656 C662 0.950 . S
H657 C663 0.950 . S
H658 C664 0.949 . S
C659 H654 0.950 . S
C659 C661 1.327 . S
C659 C665 1.429 . S
C660 C652 1.574 . S
C660 H655 0.949 . S
C660 C666 1.368 1_455 S
C661 C645 1.349 . S
C661 H653 0.950 . S
C661 C659 1.327 . S
C662 C650 1.349 1_455 S
C662 H656 0.950 . S
C662 C663 1.327 . S
C663 H657 0.950 . S
C663 C662 1.327 . S
C663 C667 1.429 1_455 S
C664 C647 1.574 . S
C664 H658 0.949 . S
C664 C668 1.368 . S
C665 C646 1.429 1_655 S
C665 C659 1.429 . S
C665 C666 1.523 . S
C666 C647 1.368 . S
C666 C660 1.368 1_655 S
C666 C665 1.523 . S
C667 C651 1.429 . S
C667 C663 1.429 1_655 S
C667 C668 1.523 . S
C668 C652 1.368 1_655 S
C668 C664 1.368 . S
C668 C667 1.523 . S
H669 C644 0.950 . S
H670 C646 0.950 . S
H671 C647 0.949 . S
H672 C649 0.950 . S
H673 C651 0.950 . S
C674 C675 1.349 . S
C674 C676 1.327 . S
C674 H699 0.950 . S
C675 C674 1.349 . S
C675 C691 1.349 . S
C676 C674 1.327 . S
C676 C695 1.429 . S
C676 H700 0.950 . S
C677 C694 1.574 . S
C677 C696 1.368 . S
C677 H701 0.949 . S
H678 C682 0.949 . S
C679 C680 1.349 . S
C679 C681 1.327 . S
C679 H702 0.950 . S
C680 C679 1.349 . S
C680 C692 1.349 . S
C681 C679 1.327 . S
C681 C697 1.429 . S
C681 H703 0.950 . S
C682 H678 0.949 . S
C682 C690 1.574 . S
C682 C698 1.368 . S
H683 C691 0.950 . S
H684 C689 0.950 . S
H685 C690 0.949 . S
H686 C692 0.950 . S
H687 C693 0.950 . S
H688 C694 0.949 . S
C689 H684 0.950 . S
C689 C691 1.327 . S
C689 C695 1.429 . S
C690 C682 1.574 . S
C690 H685 0.949 . S
C690 C696 1.368 . S
C691 C675 1.349 . S
C691 H683 0.950 . S
C691 C689 1.327 . S
C692 C680 1.349 . S
C692 H686 0.950 . S
C692 C693 1.327 . S
C693 H687 0.950 . S
C693 C692 1.327 . S
C693 C697 1.429 . S
C694 C677 1.574 . S
C694 H688 0.949 . S
C694 C698 1.368 . S
C695 C676 1.429 . S
C695 C689 1.429 . S
C695 C696 1.523 . S
C696 C677 1.368 . S
C696 C690 1.368 . S
C696 C695 1.523 . S
C697 C681 1.429 . S
C697 C693 1.429 . S
C697 C698 1.523 . S
C698 C682 1.368 . S
C698 C694 1.368 . S
C698 C697 1.523 . S
H699 C674 0.950 . S
H700 C676 0.950 . S
H701 C677 0.949 . S
H702 C679 0.950 . S
H703 C681 0.950 . S
C704 C705 1.349 . S
C704 C706 1.327 . S
C704 H729 0.950 . S
C705 C704 1.349 . S
C705 C721 1.349 . S
C706 C704 1.327 . S
C706 C725 1.429 . S
C706 H730 0.950 . S
C707 C724 1.574 . S
C707 C726 1.368 . S
C707 H731 0.949 . S
H708 C712 0.949 . S
C709 C710 1.349 . S
C709 C711 1.327 . S
C709 H732 0.950 . S
C710 C709 1.349 . S
C710 C722 1.349 . S
C711 C709 1.327 . S
C711 C727 1.429 . S
C711 H733 0.950 . S
C712 H708 0.949 . S
C712 C720 1.574 . S
C712 C728 1.368 . S
H713 C721 0.950 . S
H714 C719 0.950 . S
H715 C720 0.949 . S
H716 C722 0.950 . S
H717 C723 0.950 . S
H718 C724 0.949 . S
C719 H714 0.950 . S
C719 C721 1.327 . S
C719 C725 1.429 . S
C720 C712 1.574 . S
C720 H715 0.949 . S
C720 C726 1.368 . S
C721 C705 1.349 . S
C721 H713 0.950 . S
C721 C719 1.327 . S
C722 C710 1.349 . S
C722 H716 0.950 . S
C722 C723 1.327 . S
C723 H717 0.950 . S
C723 C722 1.327 . S
C723 C727 1.429 . S
C724 C707 1.574 . S
C724 H718 0.949 . S
C724 C728 1.368 . S
C725 C706 1.429 . S
C725 C719 1.429 . S
C725 C726 1.523 . S
C726 C707 1.368 . S
C726 C720 1.368 . S
C726 C725 1.523 . S
C727 C711 1.429 . S
C727 C723 1.429 . S
C727 C728 1.523 . S
C728 C712 1.368 . S
C728 C724 1.368 . S
C728 C727 1.523 . S
H729 C704 0.950 . S
H730 C706 0.950 . S
H731 C707 0.949 . S
H732 C709 0.950 . S
H733 C711 0.950 . S
C734 C735 1.349 . S
C734 C736 1.327 . S
C734 H759 0.950 . S
C735 C734 1.349 . S
C735 C751 1.349 . S
C736 C734 1.327 . S
C736 C755 1.429 . S
C736 H760 0.950 . S
C737 C754 1.574 . S
C737 C756 1.368 . S
C737 H761 0.949 . S
H738 C742 0.949 . S
C739 C740 1.349 . S
C739 C741 1.327 . S
C739 H762 0.950 . S
C740 C739 1.349 . S
C740 C752 1.349 . S
C741 C739 1.327 . S
C741 C757 1.429 . S
C741 H763 0.950 . S
C742 H738 0.949 . S
C742 C750 1.574 . S
C742 C758 1.368 . S
H743 C751 0.950 . S
H744 C749 0.950 . S
H745 C750 0.949 . S
H746 C752 0.950 . S
H747 C753 0.950 . S
H748 C754 0.949 . S
C749 H744 0.950 . S
C749 C751 1.327 . S
C749 C755 1.429 . S
C750 C742 1.574 . S
C750 H745 0.949 . S
C750 C756 1.368 . S
C751 C735 1.349 . S
C751 H743 0.950 . S
C751 C749 1.327 . S
C752 C740 1.349 . S
C752 H746 0.950 . S
C752 C753 1.327 . S
C753 H747 0.950 . S
C753 C752 1.327 . S
C753 C757 1.429 . S
C754 C737 1.574 . S
C754 H748 0.949 . S
C754 C758 1.368 . S
C755 C736 1.429 . S
C755 C749 1.429 . S
C755 C756 1.523 . S
C756 C737 1.368 . S
C756 C750 1.368 . S
C756 C755 1.523 . S
C757 C741 1.429 . S
C757 C753 1.429 . S
C757 C758 1.523 . S
C758 C742 1.368 . S
C758 C754 1.368 . S
C758 C757 1.523 . S
H759 C734 0.950 . S
H760 C736 0.950 . S
H761 C737 0.949 . S
H762 C739 0.950 . S
H763 C741 0.950 . S
C764 C765 1.349 . S
C764 C766 1.327 . S
C764 H789 0.950 . S
C765 C764 1.349 . S
C765 C781 1.349 . S
C766 C764 1.327 . S
C766 C785 1.429 . S
C766 H790 0.950 . S
C767 C784 1.574 . S
C767 C786 1.368 . S
C767 H791 0.949 . S
H768 C772 0.949 . S
C769 C770 1.349 . S
C769 C771 1.327 . S
C769 H792 0.950 . S
C770 C769 1.349 . S
C770 C782 1.349 . S
C771 C769 1.327 . S
C771 C787 1.429 . S
C771 H793 0.950 . S
C772 H768 0.949 . S
C772 C780 1.574 . S
C772 C788 1.368 . S
H773 C781 0.950 . S
H774 C779 0.950 . S
H775 C780 0.949 . S
H776 C782 0.950 . S
H777 C783 0.950 . S
H778 C784 0.949 . S
C779 H774 0.950 . S
C779 C781 1.327 . S
C779 C785 1.429 . S
C780 C772 1.574 . S
C780 H775 0.949 . S
C780 C786 1.368 . S
C781 C765 1.349 . S
C781 H773 0.950 . S
C781 C779 1.327 . S
C782 C770 1.349 . S
C782 H776 0.950 . S
C782 C783 1.327 . S
C783 H777 0.950 . S
C783 C782 1.327 . S
C783 C787 1.429 . S
C784 C767 1.574 . S
C784 H778 0.949 . S
C784 C788 1.368 . S
C785 C766 1.429 . S
C785 C779 1.429 . S
C785 C786 1.523 . S
C786 C767 1.368 . S
C786 C780 1.368 . S
C786 C785 1.523 . S
C787 C771 1.429 . S
C787 C783 1.429 . S
C787 C788 1.523 . S
C788 C772 1.368 . S
C788 C784 1.368 . S
C788 C787 1.523 . S
H789 C764 0.950 . S
H790 C766 0.950 . S
H791 C767 0.949 . S
H792 C769 0.950 . S
H793 C771 0.950 . S
C794 C795 1.349 . S
C794 C796 1.327 . S
C794 H819 0.950 . S
C795 C794 1.349 . S
C795 C811 1.349 . S
C796 C794 1.327 . S
C796 C815 1.429 . S
C796 H820 0.950 . S
C797 C814 1.574 . S
C797 C816 1.368 . S
C797 H821 0.949 . S
H798 C802 0.949 . S
C799 C800 1.349 . S
C799 C801 1.327 . S
C799 H822 0.950 1_556 S
C800 C799 1.349 . S
C800 C812 1.349 . S
C801 C799 1.327 . S
C801 C817 1.429 . S
C801 H823 0.950 . S
C802 H798 0.949 . S
C802 C810 1.574 . S
C802 C818 1.368 . S
H803 C811 0.950 . S
H804 C809 0.950 . S
H805 C810 0.949 . S
H806 C812 0.950 . S
H807 C813 0.950 . S
H808 C814 0.949 . S
C809 H804 0.950 . S
C809 C811 1.327 . S
C809 C815 1.429 . S
C810 C802 1.574 . S
C810 H805 0.949 . S
C810 C816 1.368 . S
C811 C795 1.349 . S
C811 H803 0.950 . S
C811 C809 1.327 . S
C812 C800 1.349 . S
C812 H806 0.950 . S
C812 C813 1.327 . S
C813 H807 0.950 . S
C813 C812 1.327 . S
C813 C817 1.429 . S
C814 C797 1.574 . S
C814 H808 0.949 . S
C814 C818 1.368 . S
C815 C796 1.429 . S
C815 C809 1.429 . S
C815 C816 1.523 . S
C816 C797 1.368 . S
C816 C810 1.368 . S
C816 C815 1.523 . S
C817 C801 1.429 . S
C817 C813 1.429 . S
C817 C818 1.523 . S
C818 C802 1.368 . S
C818 C814 1.368 . S
C818 C817 1.523 . S
H819 C794 0.950 . S
H820 C796 0.950 . S
H821 C797 0.949 . S
H822 C799 0.950 1_554 S
H823 C801 0.950 . S
C824 C825 1.349 . S
C824 C826 1.327 . S
C824 H849 0.950 . S
C825 C824 1.349 . S
C825 C841 1.349 . S
C826 C824 1.327 . S
C826 C845 1.429 . S
C826 H850 0.950 . S
C827 C844 1.574 . S
C827 C846 1.368 . S
C827 H851 0.949 . S
H828 C832 0.949 . S
C829 C830 1.349 . S
C829 C831 1.327 . S
C829 H852 0.950 . S
C830 C829 1.349 . S
C830 C842 1.349 . S
C831 C829 1.327 . S
C831 C847 1.429 . S
C831 H853 0.950 . S
C832 H828 0.949 . S
C832 C840 1.574 . S
C832 C848 1.368 . S
H833 C841 0.950 . S
H834 C839 0.950 . S
H835 C840 0.949 . S
H836 C842 0.950 . S
H837 C843 0.950 . S
H838 C844 0.949 . S
C839 H834 0.950 . S
C839 C841 1.327 . S
C839 C845 1.429 . S
C840 C832 1.574 . S
C840 H835 0.949 . S
C840 C846 1.368 . S
C841 C825 1.349 . S
C841 H833 0.950 . S
C841 C839 1.327 . S
C842 C830 1.349 . S
C842 H836 0.950 . S
C842 C843 1.327 . S
C843 H837 0.950 . S
C843 C842 1.327 . S
C843 C847 1.429 . S
C844 C827 1.574 . S
C844 H838 0.949 . S
C844 C848 1.368 . S
C845 C826 1.429 . S
C845 C839 1.429 . S
C845 C846 1.523 . S
C846 C827 1.368 . S
C846 C840 1.368 . S
C846 C845 1.523 . S
C847 C831 1.429 . S
C847 C843 1.429 . S
C847 C848 1.523 . S
C848 C832 1.368 . S
C848 C844 1.368 . S
C848 C847 1.523 . S
H849 C824 0.950 . S
H850 C826 0.950 . S
H851 C827 0.949 . S
H852 C829 0.950 . S
H853 C831 0.950 . S
C854 C855 1.349 . S
C854 C856 1.327 . S
C854 H879 0.950 . S
C855 C854 1.349 . S
C855 C871 1.349 . S
C856 C854 1.327 . S
C856 C875 1.429 . S
C856 H880 0.950 . S
C857 C874 1.574 . S
C857 C876 1.368 . S
C857 H881 0.949 . S
H858 C862 0.949 . S
C859 C860 1.349 . S
C859 C861 1.327 . S
C859 H882 0.950 . S
C860 C859 1.349 . S
C860 C872 1.349 . S
C861 C859 1.327 . S
C861 C877 1.429 . S
C861 H883 0.950 . S
C862 H858 0.949 . S
C862 C870 1.574 . S
C862 C878 1.368 . S
H863 C871 0.950 . S
H864 C869 0.950 . S
H865 C870 0.949 . S
H866 C872 0.950 . S
H867 C873 0.950 . S
H868 C874 0.949 . S
C869 H864 0.950 . S
C869 C871 1.327 . S
C869 C875 1.429 . S
C870 C862 1.574 . S
C870 H865 0.949 . S
C870 C876 1.368 . S
C871 C855 1.349 . S
C871 H863 0.950 . S
C871 C869 1.327 . S
C872 C860 1.349 . S
C872 H866 0.950 . S
C872 C873 1.327 . S
C873 H867 0.950 . S
C873 C872 1.327 . S
C873 C877 1.429 . S
C874 C857 1.574 . S
C874 H868 0.949 . S
C874 C878 1.368 . S
C875 C856 1.429 . S
C875 C869 1.429 . S
C875 C876 1.523 . S
C876 C857 1.368 . S
C876 C870 1.368 . S
C876 C875 1.523 . S
C877 C861 1.429 . S
C877 C873 1.429 . S
C877 C878 1.523 . S
C878 C862 1.368 . S
C878 C874 1.368 . S
C878 C877 1.523 . S
H879 C854 0.950 . S
H880 C856 0.950 . S
H881 C857 0.949 . S
H882 C859 0.950 . S
H883 C861 0.950 . S
C884 C885 1.349 . S
C884 C886 1.327 . S
C884 H909 0.950 . S
C885 C884 1.349 . S
C885 C901 1.349 . S
C886 C884 1.327 . S
C886 C905 1.429 . S
C886 H910 0.950 . S
C887 C904 1.574 . S
C887 C906 1.368 . S
C887 H911 0.949 . S
H888 C892 0.949 . S
C889 C890 1.349 . S
C889 C891 1.327 . S
C889 H912 0.950 . S
C890 C889 1.349 . S
C890 C902 1.349 . S
C891 C889 1.327 . S
C891 C907 1.429 . S
C891 H913 0.950 . S
C892 H888 0.949 . S
C892 C900 1.574 . S
C892 C908 1.368 . S
H893 C901 0.950 . S
H894 C899 0.950 . S
H895 C900 0.949 . S
H896 C902 0.950 . S
H897 C903 0.950 . S
H898 C904 0.949 . S
C899 H894 0.950 . S
C899 C901 1.327 . S
C899 C905 1.429 . S
C900 C892 1.574 . S
C900 H895 0.949 . S
C900 C906 1.368 . S
C901 C885 1.349 . S
C901 H893 0.950 . S
C901 C899 1.327 . S
C902 C890 1.349 . S
C902 H896 0.950 . S
C902 C903 1.327 . S
C903 H897 0.950 . S
C903 C902 1.327 . S
C903 C907 1.429 . S
C904 C887 1.574 . S
C904 H898 0.949 . S
C904 C908 1.368 . S
C905 C886 1.429 . S
C905 C899 1.429 . S
C905 C906 1.523 . S
C906 C887 1.368 . S
C906 C900 1.368 . S
C906 C905 1.523 . S
C907 C891 1.429 . S
C907 C903 1.429 . S
C907 C908 1.523 . S
C908 C892 1.368 . S
C908 C904 1.368 . S
C908 C907 1.523 . S
H909 C884 0.950 . S
H910 C886 0.950 . S
H911 C887 0.949 . S
H912 C889 0.950 . S
H913 C891 0.950 . S
C914 C915 1.349 . S
C914 C916 1.327 . S
C914 H939 0.950 . S
C915 C914 1.349 . S
C915 C931 1.349 . S
C916 C914 1.327 . S
C916 C935 1.429 . S
C916 H940 0.950 . S
C917 C934 1.574 . S
C917 C936 1.368 . S
C917 H941 0.949 . S
H918 C922 0.949 . S
C919 C920 1.349 . S
C919 C921 1.327 . S
C919 H942 0.950 . S
C920 C919 1.349 . S
C920 C932 1.349 . S
C921 C919 1.327 . S
C921 C937 1.429 . S
C921 H943 0.950 . S
C922 H918 0.949 . S
C922 C930 1.574 . S
C922 C938 1.368 . S
H923 C931 0.950 . S
H924 C929 0.950 . S
H925 C930 0.949 . S
H926 C932 0.950 . S
H927 C933 0.950 . S
H928 C934 0.949 . S
C929 H924 0.950 . S
C929 C931 1.327 . S
C929 C935 1.429 . S
C930 C922 1.574 . S
C930 H925 0.949 . S
C930 C936 1.368 . S
C931 C915 1.349 . S
C931 H923 0.950 . S
C931 C929 1.327 . S
C932 C920 1.349 . S
C932 H926 0.950 . S
C932 C933 1.327 . S
C933 H927 0.950 . S
C933 C932 1.327 . S
C933 C937 1.429 . S
C934 C917 1.574 . S
C934 H928 0.949 . S
C934 C938 1.368 . S
C935 C916 1.429 . S
C935 C929 1.429 . S
C935 C936 1.523 . S
C936 C917 1.368 . S
C936 C930 1.368 . S
C936 C935 1.523 . S
C937 C921 1.429 . S
C937 C933 1.429 . S
C937 C938 1.523 . S
C938 C922 1.368 . S
C938 C934 1.368 . S
C938 C937 1.523 . S
H939 C914 0.950 . S
H940 C916 0.950 . S
H941 C917 0.949 . S
H942 C919 0.950 . S
H943 C921 0.950 . S
C944 C945 1.349 . S
C944 C946 1.327 . S
C944 H969 0.950 . S
C945 C944 1.349 . S
C945 C961 1.349 . S
C946 C944 1.327 . S
C946 C965 1.429 . S
C946 H970 0.950 . S
C947 C964 1.574 . S
C947 C966 1.368 . S
C947 H971 0.949 . S
H948 C952 0.949 . S
C949 C950 1.349 . S
C949 C951 1.327 . S
C949 H972 0.950 . S
C950 C949 1.349 . S
C950 C962 1.349 . S
C951 C949 1.327 . S
C951 C967 1.429 . S
C951 H973 0.950 . S
C952 H948 0.949 . S
C952 C960 1.574 . S
C952 C968 1.368 . S
H953 C961 0.950 . S
H954 C959 0.950 . S
H955 C960 0.949 . S
H956 C962 0.950 . S
H957 C963 0.950 . S
H958 C964 0.949 . S
C959 H954 0.950 . S
C959 C961 1.327 . S
C959 C965 1.429 . S
C960 C952 1.574 . S
C960 H955 0.949 . S
C960 C966 1.368 . S
C961 C945 1.349 . S
C961 H953 0.950 . S
C961 C959 1.327 . S
C962 C950 1.349 . S
C962 H956 0.950 . S
C962 C963 1.327 . S
C963 H957 0.950 . S
C963 C962 1.327 . S
C963 C967 1.429 . S
C964 C947 1.574 . S
C964 H958 0.949 . S
C964 C968 1.368 . S
C965 C946 1.429 . S
C965 C959 1.429 . S
C965 C966 1.523 . S
C966 C947 1.368 . S
C966 C960 1.368 . S
C966 C965 1.523 . S
C967 C951 1.429 . S
C967 C963 1.429 . S
C967 C968 1.523 . S
C968 C952 1.368 . S
C968 C964 1.368 . S
C968 C967 1.523 . S
H969 C944 0.950 . S
H970 C946 0.950 . S
H971 C947 0.949 . S
H972 C949 0.950 . S
H973 C951 0.950 . S
C974 C975 1.349 . S
C974 C976 1.327 . S
C974 H999 0.950 . S
C975 C974 1.349 . S
C975 C991 1.349 . S
C976 C974 1.327 . S
C976 C995 1.429 . S
C976 H1000 0.950 . S
C977 C994 1.574 . S
C977 C996 1.368 . S
C977 H1001 0.949 . S
H978 C982 0.949 . S
C979 C980 1.349 . S
C979 C981 1.327 . S
C979 H1002 0.950 . S
C980 C979 1.349 . S
C980 C992 1.349 . S
C981 C979 1.327 . S
C981 C997 1.429 . S
C981 H1003 0.950 . S
C982 H978 0.949 . S
C982 C990 1.574 . S
C982 C998 1.368 . S
H983 C991 0.950 . S
H984 C989 0.950 . S
H985 C990 0.949 . S
H986 C992 0.950 . S
H987 C993 0.950 . S
H988 C994 0.949 . S
C989 H984 0.950 . S
C989 C991 1.327 . S
C989 C995 1.429 . S
C990 C982 1.574 . S
C990 H985 0.949 . S
C990 C996 1.368 . S
C991 C975 1.349 . S
C991 H983 0.950 . S
C991 C989 1.327 . S
C992 C980 1.349 . S
C992 H986 0.950 . S
C992 C993 1.327 . S
C993 H987 0.950 . S
C993 C992 1.327 . S
C993 C997 1.429 . S
C994 C977 1.574 . S
C994 H988 0.949 . S
C994 C998 1.368 . S
C995 C976 1.429 . S
C995 C989 1.429 . S
C995 C996 1.523 . S
C996 C977 1.368 . S
C996 C990 1.368 . S
C996 C995 1.523 . S
C997 C981 1.429 . S
C997 C993 1.429 . S
C997 C998 1.523 . S
C998 C982 1.368 . S
C998 C994 1.368 . S
C998 C997 1.523 . S
H999 C974 0.950 . S
H1000 C976 0.950 . S
H1001 C977 0.949 . S
H1002 C979 0.950 . S
H1003 C981 0.950 . S
C1004 C1005 1.349 . S
C1004 C1006 1.327 . S
C1004 H1029 0.950 . S
C1005 C1004 1.349 . S
C1005 C1021 1.349 . S
C1006 C1004 1.327 . S
C1006 C1025 1.429 . S
C1006 H1030 0.950 . S
C1007 C1024 1.574 . S
C1007 C1026 1.368 . S
C1007 H1031 0.949 . S
H1008 C1012 0.949 . S
C1009 C1010 1.349 . S
C1009 C1011 1.327 . S
C1009 H1032 0.950 1_554 S
C1010 C1009 1.349 . S
C1010 C1022 1.349 . S
C1011 C1009 1.327 . S
C1011 C1027 1.429 . S
C1011 H1033 0.950 . S
C1012 H1008 0.949 . S
C1012 C1020 1.574 . S
C1012 C1028 1.368 . S
H1013 C1021 0.950 . S
H1014 C1019 0.950 . S
H1015 C1020 0.949 . S
H1016 C1022 0.950 . S
H1017 C1023 0.950 . S
H1018 C1024 0.949 . S
C1019 H1014 0.950 . S
C1019 C1021 1.327 . S
C1019 C1025 1.429 . S
C1020 C1012 1.574 . S
C1020 H1015 0.949 . S
C1020 C1026 1.368 . S
C1021 C1005 1.349 . S
C1021 H1013 0.950 . S
C1021 C1019 1.327 . S
C1022 C1010 1.349 . S
C1022 H1016 0.950 . S
C1022 C1023 1.327 . S
C1023 H1017 0.950 . S
C1023 C1022 1.327 . S
C1023 C1027 1.429 . S
C1024 C1007 1.574 . S
C1024 H1018 0.949 . S
C1024 C1028 1.368 . S
C1025 C1006 1.429 . S
C1025 C1019 1.429 . S
C1025 C1026 1.523 . S
C1026 C1007 1.368 . S
C1026 C1020 1.368 . S
C1026 C1025 1.523 . S
C1027 C1011 1.429 . S
C1027 C1023 1.429 . S
C1027 C1028 1.523 . S
C1028 C1012 1.368 . S
C1028 C1024 1.368 . S
C1028 C1027 1.523 . S
H1029 C1004 0.950 . S
H1030 C1006 0.950 . S
H1031 C1007 0.949 . S
H1032 C1009 0.950 1_556 S
H1033 C1011 0.950 . S
C1034 C1035 1.349 . S
C1034 C1036 1.327 . S
C1034 H1059 0.950 . S
C1035 C1034 1.349 . S
C1035 C1051 1.349 . S
C1036 C1034 1.327 . S
C1036 C1055 1.429 . S
C1036 H1060 0.950 . S
C1037 C1054 1.574 . S
C1037 C1056 1.368 . S
C1037 H1061 0.949 . S
H1038 C1042 0.949 . S
C1039 C1040 1.349 . S
C1039 C1041 1.327 . S
C1039 H1062 0.950 . S
C1040 C1039 1.349 . S
C1040 C1052 1.349 . S
C1041 C1039 1.327 . S
C1041 C1057 1.429 . S
C1041 H1063 0.950 . S
C1042 H1038 0.949 . S
C1042 C1050 1.574 . S
C1042 C1058 1.368 . S
H1043 C1051 0.950 . S
H1044 C1049 0.950 . S
H1045 C1050 0.949 . S
H1046 C1052 0.950 . S
H1047 C1053 0.950 . S
H1048 C1054 0.949 . S
C1049 H1044 0.950 . S
C1049 C1051 1.327 . S
C1049 C1055 1.429 . S
C1050 C1042 1.574 . S
C1050 H1045 0.949 . S
C1050 C1056 1.368 . S
C1051 C1035 1.349 . S
C1051 H1043 0.950 . S
C1051 C1049 1.327 . S
C1052 C1040 1.349 . S
C1052 H1046 0.950 . S
C1052 C1053 1.327 . S
C1053 H1047 0.950 . S
C1053 C1052 1.327 . S
C1053 C1057 1.429 . S
C1054 C1037 1.574 . S
C1054 H1048 0.949 . S
C1054 C1058 1.368 . S
C1055 C1036 1.429 . S
C1055 C1049 1.429 . S
C1055 C1056 1.523 . S
C1056 C1037 1.368 . S
C1056 C1050 1.368 . S
C1056 C1055 1.523 . S
C1057 C1041 1.429 . S
C1057 C1053 1.429 . S
C1057 C1058 1.523 . S
C1058 C1042 1.368 . S
C1058 C1054 1.368 . S
C1058 C1057 1.523 . S
H1059 C1034 0.950 . S
H1060 C1036 0.950 . S
H1061 C1037 0.949 . S
H1062 C1039 0.950 . S
H1063 C1041 0.950 . S
C1064 C1065 1.349 . S
C1064 C1066 1.327 . S
C1064 H1089 0.950 . S
C1065 C1064 1.349 . S
C1065 C1081 1.349 . S
C1066 C1064 1.327 . S
C1066 C1085 1.429 . S
C1066 H1090 0.950 . S
C1067 C1084 1.574 . S
C1067 C1086 1.368 . S
C1067 H1091 0.949 . S
H1068 C1072 0.949 . S
C1069 C1070 1.349 . S
C1069 C1071 1.327 . S
C1069 H1092 0.950 . S
C1070 C1069 1.349 . S
C1070 C1082 1.349 . S
C1071 C1069 1.327 . S
C1071 C1087 1.429 . S
C1071 H1093 0.950 . S
C1072 H1068 0.949 . S
C1072 C1080 1.574 . S
C1072 C1088 1.368 . S
H1073 C1081 0.950 . S
H1074 C1079 0.950 . S
H1075 C1080 0.949 . S
H1076 C1082 0.950 . S
H1077 C1083 0.950 . S
H1078 C1084 0.949 . S
C1079 H1074 0.950 . S
C1079 C1081 1.327 . S
C1079 C1085 1.429 . S
C1080 C1072 1.574 . S
C1080 H1075 0.949 . S
C1080 C1086 1.368 . S
C1081 C1065 1.349 . S
C1081 H1073 0.950 . S
C1081 C1079 1.327 . S
C1082 C1070 1.349 . S
C1082 H1076 0.950 . S
C1082 C1083 1.327 . S
C1083 H1077 0.950 . S
C1083 C1082 1.327 . S
C1083 C1087 1.429 . S
C1084 C1067 1.574 . S
C1084 H1078 0.949 . S
C1084 C1088 1.368 . S
C1085 C1066 1.429 . S
C1085 C1079 1.429 . S
C1085 C1086 1.523 . S
C1086 C1067 1.368 . S
C1086 C1080 1.368 . S
C1086 C1085 1.523 . S
C1087 C1071 1.429 . S
C1087 C1083 1.429 . S
C1087 C1088 1.523 . S
C1088 C1072 1.368 . S
C1088 C1084 1.368 . S
C1088 C1087 1.523 . S
H1089 C1064 0.950 . S
H1090 C1066 0.950 . S
H1091 C1067 0.949 . S
H1092 C1069 0.950 . S
H1093 C1071 0.950 . S
C1094 C1095 1.349 . S
C1094 C1096 1.327 . S
C1094 H1119 0.950 . S
C1095 C1094 1.349 . S
C1095 C1111 1.349 . S
C1096 C1094 1.327 . S
C1096 C1115 1.429 . S
C1096 H1120 0.950 . S
C1097 C1114 1.574 . S
C1097 C1116 1.368 . S
C1097 H1121 0.949 . S
H1098 C1102 0.949 . S
C1099 C1100 1.349 . S
C1099 C1101 1.327 . S
C1099 H1122 0.950 . S
C1100 C1099 1.349 . S
C1100 C1112 1.349 . S
C1101 C1099 1.327 . S
C1101 C1117 1.429 . S
C1101 H1123 0.950 . S
C1102 H1098 0.949 . S
C1102 C1110 1.574 . S
C1102 C1118 1.368 . S
H1103 C1111 0.950 . S
H1104 C1109 0.950 . S
H1105 C1110 0.949 . S
H1106 C1112 0.950 . S
H1107 C1113 0.950 . S
H1108 C1114 0.949 . S
C1109 H1104 0.950 . S
C1109 C1111 1.327 . S
C1109 C1115 1.429 . S
C1110 C1102 1.574 . S
C1110 H1105 0.949 . S
C1110 C1116 1.368 . S
C1111 C1095 1.349 . S
C1111 H1103 0.950 . S
C1111 C1109 1.327 . S
C1112 C1100 1.349 . S
C1112 H1106 0.950 . S
C1112 C1113 1.327 . S
C1113 H1107 0.950 . S
C1113 C1112 1.327 . S
C1113 C1117 1.429 . S
C1114 C1097 1.574 . S
C1114 H1108 0.949 . S
C1114 C1118 1.368 . S
C1115 C1096 1.429 . S
C1115 C1109 1.429 . S
C1115 C1116 1.523 . S
C1116 C1097 1.368 . S
C1116 C1110 1.368 . S
C1116 C1115 1.523 . S
C1117 C1101 1.429 . S
C1117 C1113 1.429 . S
C1117 C1118 1.523 . S
C1118 C1102 1.368 . S
C1118 C1114 1.368 . S
C1118 C1117 1.523 . S
H1119 C1094 0.950 . S
H1120 C1096 0.950 . S
H1121 C1097 0.949 . S
H1122 C1099 0.950 . S
H1123 C1101 0.950 . S
C1124 C1125 1.349 . S
C1124 C1126 1.327 . S
C1124 H1149 0.950 . S
C1125 C1124 1.349 . S
C1125 C1141 1.349 . S
C1126 C1124 1.327 . S
C1126 C1145 1.429 . S
C1126 H1150 0.950 . S
C1127 C1144 1.574 . S
C1127 C1146 1.368 . S
C1127 H1151 0.949 . S
H1128 C1132 0.949 . S
C1129 C1130 1.349 . S
C1129 C1131 1.327 . S
C1129 H1152 0.950 . S
C1130 C1129 1.349 . S
C1130 C1142 1.349 . S
C1131 C1129 1.327 . S
C1131 C1147 1.429 . S
C1131 H1153 0.950 . S
C1132 H1128 0.949 . S
C1132 C1140 1.574 . S
C1132 C1148 1.368 . S
H1133 C1141 0.950 . S
H1134 C1139 0.950 . S
H1135 C1140 0.949 . S
H1136 C1142 0.950 . S
H1137 C1143 0.950 . S
H1138 C1144 0.949 . S
C1139 H1134 0.950 . S
C1139 C1141 1.327 . S
C1139 C1145 1.429 . S
C1140 C1132 1.574 . S
C1140 H1135 0.949 . S
C1140 C1146 1.368 . S
C1141 C1125 1.349 . S
C1141 H1133 0.950 . S
C1141 C1139 1.327 . S
C1142 C1130 1.349 . S
C1142 H1136 0.950 . S
C1142 C1143 1.327 . S
C1143 H1137 0.950 . S
C1143 C1142 1.327 . S
C1143 C1147 1.429 . S
C1144 C1127 1.574 . S
C1144 H1138 0.949 . S
C1144 C1148 1.368 . S
C1145 C1126 1.429 . S
C1145 C1139 1.429 . S
C1145 C1146 1.523 . S
C1146 C1127 1.368 . S
C1146 C1140 1.368 . S
C1146 C1145 1.523 . S
C1147 C1131 1.429 . S
C1147 C1143 1.429 . S
C1147 C1148 1.523 . S
C1148 C1132 1.368 . S
C1148 C1144 1.368 . S
C1148 C1147 1.523 . S
H1149 C1124 0.950 . S
H1150 C1126 0.950 . S
H1151 C1127 0.949 . S
H1152 C1129 0.950 . S
H1153 C1131 0.950 . S
C1154 C1155 1.349 . S
C1154 C1156 1.327 . S
C1154 H1179 0.950 . S
C1155 C1154 1.349 . S
C1155 C1171 1.349 . S
C1156 C1154 1.327 . S
C1156 C1175 1.429 . S
C1156 H1180 0.950 . S
C1157 C1174 1.574 . S
C1157 C1176 1.368 . S
C1157 H1181 0.949 . S
H1158 C1162 0.949 . S
C1159 C1160 1.349 . S
C1159 C1161 1.327 . S
C1159 H1182 0.950 . S
C1160 C1159 1.349 . S
C1160 C1172 1.349 . S
C1161 C1159 1.327 . S
C1161 C1177 1.429 . S
C1161 H1183 0.950 . S
C1162 H1158 0.949 . S
C1162 C1170 1.574 . S
C1162 C1178 1.368 . S
H1163 C1171 0.950 . S
H1164 C1169 0.950 . S
H1165 C1170 0.949 . S
H1166 C1172 0.950 . S
H1167 C1173 0.950 . S
H1168 C1174 0.949 . S
C1169 H1164 0.950 . S
C1169 C1171 1.327 . S
C1169 C1175 1.429 . S
C1170 C1162 1.574 . S
C1170 H1165 0.949 . S
C1170 C1176 1.368 . S
C1171 C1155 1.349 . S
C1171 H1163 0.950 . S
C1171 C1169 1.327 . S
C1172 C1160 1.349 . S
C1172 H1166 0.950 . S
C1172 C1173 1.327 . S
C1173 H1167 0.950 . S
C1173 C1172 1.327 . S
C1173 C1177 1.429 . S
C1174 C1157 1.574 . S
C1174 H1168 0.949 . S
C1174 C1178 1.368 . S
C1175 C1156 1.429 . S
C1175 C1169 1.429 . S
C1175 C1176 1.523 . S
C1176 C1157 1.368 . S
C1176 C1170 1.368 . S
C1176 C1175 1.523 . S
C1177 C1161 1.429 . S
C1177 C1173 1.429 . S
C1177 C1178 1.523 . S
C1178 C1162 1.368 . S
C1178 C1174 1.368 . S
C1178 C1177 1.523 . S
H1179 C1154 0.950 . S
H1180 C1156 0.950 . S
H1181 C1157 0.949 . S
H1182 C1159 0.950 . S
H1183 C1161 0.950 . S
C225 C13 0.630 . S
C230 C68 0.626 . S
C255 C27 0.630 . S
C260 C71 0.630 . S
C285 C96 0.630 . S
C290 C28 0.633 . S
C315 C55 0.630 . S
C320 C110 0.630 . S
C345 C69 0.630 . S
C350 C12 0.633 . S
C375 C140 0.630 . S
C380 C124 0.630 . S
C405 C97 0.630 . S
C410 C29 0.626 . S
C435 C138 0.630 . S
C440 C166 0.630 . S
C465 C180 0.630 . S
C470 C208 0.633 . S
C495 C125 0.630 . S
C500 C141 0.630 . S
C525 C182 0.630 . S
C530 C222 0.626 . S
C555 C167 0.630 . S
C560 C139 0.630 . S
C585 C209 0.630 . S
C590 C181 0.626 . S
C615 C26 0.630 . S
C620 C70 0.630 . S
C645 C183 0.630 . S
C650 C223 0.633 . S
C675 C111 0.630 . S
C680 C54 0.630 . S
C705 C0 1.565 . S
C710 C99 1.557 . S
C735 C57 1.565 . S
C740 C14 1.565 . S
C765 C82 1.565 . S
C770 C41 1.568 . S
C795 C42 1.565 . S
C800 C85 1.564 . S
C825 C1 1.565 . S
C830 C155 1.573 . S
C855 C113 1.565 . S
C860 C56 1.565 . S
C885 C153 1.565 . S
C890 C40 1.562 . S
C915 C127 1.565 . S
C920 C84 1.566 . S
C945 C169 1.565 . S
C950 C154 1.565 . S
C975 C197 1.565 . S
C980 C112 1.567 . S
C1005 C152 1.565 . S
C1010 C195 1.566 . S
C1035 C211 1.565 . S
C1040 C126 1.568 . S
C1065 C98 1.565 . S
C1070 C168 1.565 . S
C1095 C196 1.565 . S
C1100 C15 1.563 . S
C1125 C83 1.565 . S
C1130 C194 1.564 . S
C1155 C210 1.565 . S
C1160 C43 1.562 . S
