# Generated by pormake.
# Topology whw, (6)-cn, num edge types: 1
# Building blocks:
#     Node 0, Type 0, BuildingBlock: PAMTOO_clean_sbu_0, # of connection points: 6
#     Node 1, Type 0, BuildingBlock: PAMTOO_clean_sbu_0, # of connection points: 6
#     Node 2, Type 0, BuildingBlock: PAMTOO_clean_sbu_0, # of connection points: 6
#     Node 3, Type 0, BuildingBlock: PAMTOO_clean_sbu_0, # of connection points: 6
#     Node 4, Type 0, BuildingBlock: PAMTOO_clean_sbu_0, # of connection points: 6
#     Node 5, Type 0, BuildingBlock: PAMTOO_clean_sbu_0, # of connection points: 6
#     Node 6, Type 0, BuildingBlock: PAMTOO_clean_sbu_0, # of connection points: 6
#     Node 7, Type 0, BuildingBlock: PAMTOO_clean_sbu_0, # of connection points: 6
#     Node 8, Type 0, BuildingBlock: PAMTOO_clean_sbu_0, # of connection points: 6
#     Node 9, Type 0, BuildingBlock: PAMTOO_clean_sbu_0, # of connection points: 6
#     Node 10, Type 0, BuildingBlock: PAMTOO_clean_sbu_0, # of connection points: 6
#     Node 11, Type 0, BuildingBlock: PAMTOO_clean_sbu_0, # of connection points: 6
#     Node 12, Type 0, BuildingBlock: PAMTOO_clean_sbu_0, # of connection points: 6
#     Node 13, Type 0, BuildingBlock: PAMTOO_clean_sbu_0, # of connection points: 6
#     Node 14, Type 0, BuildingBlock: PAMTOO_clean_sbu_0, # of connection points: 6
#     Node 15, Type 0, BuildingBlock: PAMTOO_clean_sbu_0, # of connection points: 6
#     Edge 16, Type (0, 0), BuildingBlock: MIFKUJ_clean_linker_0, # of connection points: 2
#     Edge 17, Type (0, 0), BuildingBlock: MIFKUJ_clean_linker_0, # of connection points: 2
#     Edge 18, Type (0, 0), BuildingBlock: MIFKUJ_clean_linker_0, # of connection points: 2
#     Edge 19, Type (0, 0), BuildingBlock: MIFKUJ_clean_linker_0, # of connection points: 2
#     Edge 20, Type (0, 0), BuildingBlock: MIFKUJ_clean_linker_0, # of connection points: 2
#     Edge 21, Type (0, 0), BuildingBlock: MIFKUJ_clean_linker_0, # of connection points: 2
#     Edge 22, Type (0, 0), BuildingBlock: MIFKUJ_clean_linker_0, # of connection points: 2
#     Edge 23, Type (0, 0), BuildingBlock: MIFKUJ_clean_linker_0, # of connection points: 2
#     Edge 24, Type (0, 0), BuildingBlock: MIFKUJ_clean_linker_0, # of connection points: 2
#     Edge 25, Type (0, 0), BuildingBlock: MIFKUJ_clean_linker_0, # of connection points: 2
#     Edge 26, Type (0, 0), BuildingBlock: MIFKUJ_clean_linker_0, # of connection points: 2
#     Edge 27, Type (0, 0), BuildingBlock: MIFKUJ_clean_linker_0, # of connection points: 2
#     Edge 28, Type (0, 0), BuildingBlock: MIFKUJ_clean_linker_0, # of connection points: 2
#     Edge 29, Type (0, 0), BuildingBlock: MIFKUJ_clean_linker_0, # of connection points: 2
#     Edge 30, Type (0, 0), BuildingBlock: MIFKUJ_clean_linker_0, # of connection points: 2
#     Edge 31, Type (0, 0), BuildingBlock: MIFKUJ_clean_linker_0, # of connection points: 2
#     Edge 32, Type (0, 0), BuildingBlock: MIFKUJ_clean_linker_0, # of connection points: 2
#     Edge 33, Type (0, 0), BuildingBlock: MIFKUJ_clean_linker_0, # of connection points: 2
#     Edge 34, Type (0, 0), BuildingBlock: MIFKUJ_clean_linker_0, # of connection points: 2
#     Edge 35, Type (0, 0), BuildingBlock: MIFKUJ_clean_linker_0, # of connection points: 2
#     Edge 36, Type (0, 0), BuildingBlock: MIFKUJ_clean_linker_0, # of connection points: 2
#     Edge 37, Type (0, 0), BuildingBlock: MIFKUJ_clean_linker_0, # of connection points: 2
#     Edge 38, Type (0, 0), BuildingBlock: MIFKUJ_clean_linker_0, # of connection points: 2
#     Edge 39, Type (0, 0), BuildingBlock: MIFKUJ_clean_linker_0, # of connection points: 2
#     Edge 40, Type (0, 0), BuildingBlock: MIFKUJ_clean_linker_0, # of connection points: 2
#     Edge 41, Type (0, 0), BuildingBlock: MIFKUJ_clean_linker_0, # of connection points: 2
#     Edge 42, Type (0, 0), BuildingBlock: MIFKUJ_clean_linker_0, # of connection points: 2
#     Edge 43, Type (0, 0), BuildingBlock: MIFKUJ_clean_linker_0, # of connection points: 2
#     Edge 44, Type (0, 0), BuildingBlock: MIFKUJ_clean_linker_0, # of connection points: 2
#     Edge 45, Type (0, 0), BuildingBlock: MIFKUJ_clean_linker_0, # of connection points: 2
#     Edge 46, Type (0, 0), BuildingBlock: MIFKUJ_clean_linker_0, # of connection points: 2
#     Edge 47, Type (0, 0), BuildingBlock: MIFKUJ_clean_linker_0, # of connection points: 2
#     Edge 48, Type (0, 0), BuildingBlock: MIFKUJ_clean_linker_0, # of connection points: 2
#     Edge 49, Type (0, 0), BuildingBlock: MIFKUJ_clean_linker_0, # of connection points: 2
#     Edge 50, Type (0, 0), BuildingBlock: MIFKUJ_clean_linker_0, # of connection points: 2
#     Edge 51, Type (0, 0), BuildingBlock: MIFKUJ_clean_linker_0, # of connection points: 2
#     Edge 52, Type (0, 0), BuildingBlock: MIFKUJ_clean_linker_0, # of connection points: 2
#     Edge 53, Type (0, 0), BuildingBlock: MIFKUJ_clean_linker_0, # of connection points: 2
#     Edge 54, Type (0, 0), BuildingBlock: MIFKUJ_clean_linker_0, # of connection points: 2
#     Edge 55, Type (0, 0), BuildingBlock: MIFKUJ_clean_linker_0, # of connection points: 2
#     Edge 56, Type (0, 0), BuildingBlock: MIFKUJ_clean_linker_0, # of connection points: 2
#     Edge 57, Type (0, 0), BuildingBlock: MIFKUJ_clean_linker_0, # of connection points: 2
#     Edge 58, Type (0, 0), BuildingBlock: MIFKUJ_clean_linker_0, # of connection points: 2
#     Edge 59, Type (0, 0), BuildingBlock: MIFKUJ_clean_linker_0, # of connection points: 2
#     Edge 60, Type (0, 0), BuildingBlock: MIFKUJ_clean_linker_0, # of connection points: 2
#     Edge 61, Type (0, 0), BuildingBlock: MIFKUJ_clean_linker_0, # of connection points: 2
#     Edge 62, Type (0, 0), BuildingBlock: MIFKUJ_clean_linker_0, # of connection points: 2
#     Edge 63, Type (0, 0), BuildingBlock: MIFKUJ_clean_linker_0, # of connection points: 2
# Relax obj value: 0.660
# Max RMSD: 0.192
# Mean RMSD: 0.192
data_MOF--net-whw--node1-PAMTOO_clean_sbu_0--edge1-MIFKUJ_clean_linker_0
_symmetry_space_group_name_H-M    P1
_symmetry_Int_Tables_number       1
_symmetry_cell_setting            triclinic
loop_
_symmetry_equiv_pos_as_xyz
'x, y, z'
_cell_length_a     62.227515
_cell_length_b     62.431068
_cell_length_c     37.997183
_cell_angle_alpha  90.160953
_cell_angle_beta   89.771748
_cell_angle_gamma 89.880143
loop_
_atom_site_label
_atom_site_type_symbol
_atom_site_fract_x
_atom_site_fract_y
_atom_site_fract_z
_atom_type_partial_charge
Dy0 Dy 0.0081 0.13963 0.19483 0.0
Dy1 Dy 0.05533 0.14148 0.16737 0.0
C2 C 0.03591 0.18448 0.19193 0.0
O3 O 0.00361 0.15491 0.14078 0.0
O4 O 0.03747 0.15249 0.11701 0.0
O5 O 0.98105 0.14826 0.22758 0.0
O6 O 0.97684 0.1259 0.18469 0.0
O7 O 0.04252 0.11115 0.14396 0.0
O8 O 0.01786 0.10445 0.18589 0.0
O9 O 0.05775 0.14781 0.22856 0.0
O10 O 0.02407 0.14054 0.249 0.0
O11 O 0.08455 0.12426 0.17825 0.0
O12 O 0.08442 0.14979 0.13941 0.0
C13 C 0.01676 0.15767 0.11372 0.0
O14 O 0.01911 0.17373 0.20379 0.0
O15 O 0.05055 0.17584 0.17187 0.0
C16 C 0.95791 0.11931 0.23686 0.0
C17 C 0.93758 0.09311 0.28695 0.0
C18 C 0.95998 0.09616 0.28775 0.0
C19 C 0.97005 0.10903 0.26281 0.0
C20 C 0.93581 0.11546 0.2346 0.0
C21 C 0.92569 0.10236 0.25941 0.0
C22 C 0.96834 0.13437 0.21282 0.0
C23 C 0.02966 0.09755 0.15921 0.0
C24 C 0.04404 0.14651 0.25571 0.0
C25 C 0.1068 0.11938 0.12878 0.0
C26 C 0.12689 0.0897 0.08314 0.0
C27 C 0.12927 0.08783 0.11973 0.0
C28 C 0.11933 0.10257 0.14234 0.0
C29 C 0.10481 0.12153 0.09221 0.0
C30 C 0.11484 0.10694 1.0697 0.0
C31 C 0.09517 0.13382 0.15308 0.0
H32 H 0.96966 0.0897 0.30884 0.0
H33 H 0.98722 0.11164 0.26464 0.0
H34 H 0.9263 0.12306 0.21431 0.0
H35 H 0.90847 0.10013 0.2578 0.0
H36 H 0.13846 0.07477 0.1309 0.0
H37 H 0.12112 0.10063 0.1705 0.0
H38 H 0.09537 0.13435 0.08088 0.0
H39 H 0.1132 0.10927 1.0416 0.0
Dy40 Dy 0.1065 0.74002 0.45113 0.0
Dy41 Dy 0.09455 0.78786 0.42578 0.0
C42 C 0.06028 0.75726 0.46021 0.0
O43 O 0.0942 0.73482 0.39417 0.0
O44 O 0.08135 0.76818 0.37908 0.0
O45 O 0.10128 0.71248 0.48402 0.0
O46 O 0.12492 0.7111 0.4421 0.0
O47 O 0.12816 0.78131 0.40404 0.0
O48 O 0.1392 0.75428 0.43953 0.0
O49 O 0.0939 0.79092 0.48703 0.0
O50 O 0.10248 0.75705 0.50555 0.0
O51 O 0.10217 0.82079 0.43572 0.0
O52 O 0.07972 0.8127 0.39424 0.0
C53 C 0.08398 0.7475 0.37143 0.0
O54 O 0.07127 0.74242 0.4439 0.0
O55 O 0.06539 0.77729 0.45475 0.0
C56 C 0.13232 0.69213 0.49387 0.0
C57 C 0.15803 0.67287 0.54561 0.0
C58 C 0.15382 0.69503 0.54665 0.0
C59 C 0.14111 0.70458 0.52093 0.0
C60 C 0.13756 0.67036 0.49132 0.0
C61 C 0.1504 0.66079 0.51695 0.0
C62 C 0.11681 0.7015 0.46948 0.0
C63 C 0.14356 0.76858 0.41522 0.0
C64 C 0.09656 0.77708 0.51339 0.0
C65 C 0.10363 0.84174 0.38574 0.0
C66 C 0.13222 0.86881 0.34973 0.0
C67 C 0.13482 0.84647 0.34823 0.0
C68 C 0.12058 0.83306 0.36593 0.0
C69 C 0.10074 0.86401 0.38701 0.0
C70 C 0.11484 0.8775 0.36877 0.0
C71 C 0.09116 0.82779 0.40901 0.0
H72 H 0.1591 0.7048 0.56855 0.0
H73 H 0.13733 0.72149 0.52307 0.0
H74 H 0.13106 0.66062 0.47027 0.0
H75 H 0.15356 0.64375 0.51522 0.0
H76 H 0.14773 0.83932 0.33296 0.0
H77 H 0.12308 0.81591 0.36481 0.0
H78 H 0.08791 0.87095 0.40268 0.0
H79 H 0.11239 0.89467 0.36996 0.0
Dy80 Dy 0.49877 0.84402 0.70012 0.0
Dy81 Dy 0.44947 0.83422 0.67869 0.0
C82 C 0.47935 0.79903 0.71077 0.0
O83 O 0.50245 0.83241 0.64318 0.0
O84 O 0.46817 0.82132 0.6299 0.0
O85 O 0.52693 0.83757 0.73125 0.0
O86 O 0.52856 0.86007 0.68793 0.0
O87 O 0.45554 0.86803 0.6584 0.0
O88 O 0.48562 0.87714 0.68911 0.0
O89 O 0.44815 0.83525 0.74003 0.0
O90 O 0.4834 0.84041 0.75554 0.0
O91 O 0.41665 0.8439 0.6867 0.0
O92 O 0.42407 0.81696 0.65229 0.0
C93 C 0.48888 0.82315 0.62104 0.0
O94 O 0.49373 0.80913 0.69207 0.0
O95 O 0.45958 0.80595 0.70988 0.0
C96 C 0.55033 0.86708 0.73676 0.0
C97 C 0.57525 0.89307 0.78118 0.0
C98 C 0.55449 0.88656 0.79144 0.0
C99 C 0.54211 0.87375 0.76937 0.0
C100 C 0.57035 0.87465 0.72534 0.0
C101 C 0.58272 0.88763 0.74733 0.0
C102 C 0.53849 0.85186 0.71482 0.0
C103 C 0.46993 0.88244 0.66766 0.0
C104 C 0.46315 0.83644 0.76501 0.0
C105 C 0.39405 0.83899 0.63867 0.0
C106 C 0.36639 0.86139 0.59327 0.0
C107 C 0.35973 0.8563 0.6276 0.0
C108 C 0.37348 0.84518 0.65011 0.0
C109 C 0.40053 0.84348 0.60413 0.0
C110 C 0.38675 0.8544 0.58156 0.0
C111 C 0.4092 0.83 0.66417 0.0
H112 H 0.5483 0.89002 0.81752 0.0
H113 H 0.52652 0.86831 0.77844 0.0
H114 H 0.57675 0.86989 0.69992 0.0
H115 H 0.59856 0.8925 0.73859 0.0
H116 H 0.34421 0.8615 0.63743 0.0
H117 H 0.36834 0.84201 0.67687 0.0
H118 H 0.4164 0.839 0.59484 0.0
H119 H 0.39217 0.85757 0.55496 0.0
Dy120 Dy 0.39331 0.24389 0.95634 0.0
Dy121 Dy 0.4024 0.19576 0.9341 0.0
C122 C 0.43878 0.22326 0.9745 0.0
O123 O 0.41317 0.24863 0.90609 0.0
O124 O 0.41013 0.21484 0.8832 0.0
O125 O 0.39828 0.27792 0.95442 0.0
O126 O 0.37041 0.265 0.98174 0.0
O127 O 0.36613 0.19909 0.92883 0.0
O128 O 0.3662 0.23474 0.91956 0.0
O129 O 0.40589 0.19306 0.99431 0.0
O130 O 0.39414 0.22633 1.01105 0.0
O131 O 0.39807 0.16221 0.94463 0.0
O132 O 0.41535 0.17205 0.89796 0.0
C133 C 0.41588 0.23525 0.87932 0.0
O134 O 0.42541 0.23925 0.97911 0.0
O135 O 0.43442 0.20683 0.95392 0.0
C136 C 0.38508 0.29736 1.0027 0.0
C137 C 0.39277 0.32812 1.05519 0.0
C138 C 0.40576 0.3097 1.05266 0.0
C139 C 0.4019 0.29438 1.02663 0.0
C140 C 0.37197 0.31555 1.0053 0.0
C141 C 0.37574 0.33083 1.03144 0.0
C142 C 0.38153 0.28211 0.97406 0.0
C143 C 0.35638 0.21626 0.91693 0.0
C144 C 0.40151 0.2069 1.01992 0.0
C145 C 0.3943 0.14073 0.89459 0.0
C146 C 0.37027 0.11121 0.85488 0.0
C147 C 0.36067 0.13013 0.86765 0.0
C148 C 0.3726 0.1448 0.88722 0.0
C149 C 0.40382 0.12167 0.88278 0.0
C150 C 0.39191 0.107 0.86303 0.0
C151 C 0.40691 0.15609 0.91517 0.0
H152 H 0.41878 0.30706 1.071 0.0
H153 H 0.41212 0.28033 1.02496 0.0
H154 H 0.35897 0.31806 0.98686 0.0
H155 H 0.36557 0.34491 1.0327 0.0
H156 H 0.344 0.13376 0.86201 0.0
H157 H 0.36493 0.15939 0.89637 0.0
H158 H 0.42053 0.11827 0.88842 0.0
H159 H 0.39987 0.09277 0.85303 0.0
Dy160 Dy -0.00585 0.84962 0.95579 0.0
Dy161 Dy 0.04029 0.83264 0.97748 0.0
C162 C 0.00705 0.80291 0.93635 0.0
O163 O 0.9896 0.83793 1.0137 0.0
O164 O 0.02045 0.81866 1.02319 0.0
O165 O 0.96514 0.84981 0.9248 0.0
O166 O 0.96808 0.87093 0.96974 0.0
O167 O 0.03571 0.86556 1.00372 0.0
O168 O 0.01321 0.87973 0.96378 0.0
O169 O 0.04304 0.83375 0.91647 0.0
O170 O 0.0103 0.8471 0.90009 0.0
O171 O 0.07363 0.8399 0.96968 0.0
O172 O 0.0644 0.81329 1.00344 0.0
C173 C 0.00102 0.82472 1.03403 0.0
O174 O 0.9921 0.81426 0.95195 0.0
O175 O 0.02736 0.80672 0.94278 0.0
C176 C 0.95067 0.88414 0.91939 0.0
C177 C 0.94281 0.91298 0.86421 0.0
C178 C 0.96095 0.91553 0.88576 0.0
C179 C 0.96495 0.90109 0.91295 0.0
C180 C 0.93154 0.88284 0.90039 0.0
C181 C 0.92759 0.89716 0.87308 0.0
C182 C 0.95707 0.86614 0.94171 0.0
C183 C 0.02579 0.88248 0.99088 0.0
C184 C 0.02951 0.83918 0.89092 0.0
C185 C 0.09626 0.83283 1.01677 0.0
C186 C 0.12602 0.85365 1.06071 0.0
C187 C 0.13172 0.84798 1.02611 0.0
C188 C 0.11695 0.83762 1.00437 0.0
C189 C 0.09068 0.83782 1.05159 0.0
C190 C 0.10551 0.84795 1.07347 0.0
C191 C 0.08014 0.82523 0.99163 0.0
H192 H 0.97282 0.9277 0.88001 0.0
H193 H 0.97987 0.90235 0.92738 0.0
H194 H 0.92042 0.8698 0.90492 0.0
H195 H 0.91355 0.89444 0.85695 0.0
H196 H 0.14728 0.85222 1.01537 0.0
H197 H 0.12141 0.8341 0.97737 0.0
H198 H 0.07472 0.83444 1.06158 0.0
H199 H 0.10076 0.85158 0.10028 0.0
Dy200 Dy 0.39324 0.73556 0.20493 0.0
Dy201 Dy 0.40651 0.78315 0.22724 0.0
C202 C 0.43914 0.75216 0.18701 0.0
O203 O 0.40676 0.7309 0.261 0.0
O204 O 0.42109 0.76401 0.2733 0.0
O205 O 0.39533 0.70678 0.17363 0.0
O206 O 0.3735 0.70826 0.21804 0.0
O207 O 0.3736 0.77765 0.25216 0.0
O208 O 0.36142 0.75227 0.21473 0.0
O209 O 0.40442 0.78528 0.1662 0.0
O210 O 0.39646 0.75092 0.14952 0.0
O211 O 0.39866 0.81581 0.21643 0.0
O212 O 0.42308 0.80857 0.25536 0.0
C213 C 0.41801 0.74361 0.28222 0.0
O214 O 0.4289 0.73654 0.20267 0.0
O215 O 0.43402 0.77206 0.19421 0.0
C216 C 0.36155 0.69113 0.16706 0.0
C217 C 0.33223 0.67759 0.11551 0.0
C218 C 0.33828 0.69929 0.11807 0.0
C219 C 0.35272 0.70597 0.14365 0.0
C220 C 0.35412 0.67 0.16712 0.0
C221 C 0.33932 0.66331 0.14176 0.0
C222 C 0.37922 0.69776 0.18985 0.0
C223 C 0.3576 0.76601 0.24024 0.0
C224 C 0.40168 0.77088 0.14065 0.0
C225 C 0.40119 0.84005 0.26304 0.0
C226 C 0.37764 0.86956 0.30403 0.0
C227 C 0.39127 0.85453 0.32018 0.0
C228 C 0.40289 0.83979 0.29985 0.0
C229 C 0.3884 0.85583 0.24696 0.0
C230 C 0.37654 0.87029 0.26726 0.0
C231 C 0.41127 0.82346 0.2407 0.0
H232 H 0.33355 0.71092 0.09851 0.0
H233 H 0.35805 0.72249 0.14373 0.0
H234 H 0.36045 0.65849 0.1857 0.0
H235 H 0.33454 0.64665 0.14139 0.0
H236 H 0.3922 0.85356 0.3486 0.0
H237 H 0.41263 0.82787 0.31298 0.0
H238 H 0.387 0.8565 0.21856 0.0
H239 H 0.36621 0.88179 0.25429 0.0
Dy240 Dy 0.50328 0.13329 0.45831 0.0
Dy241 Dy 0.45464 0.1437 0.48003 0.0
C242 C 0.4831 0.17926 0.44118 0.0
O243 O 0.50707 0.14284 0.51624 0.0
O244 O 0.47433 0.15862 0.52593 0.0
O245 O 0.53737 0.13932 0.46152 0.0
O246 O 0.52534 0.11235 0.43116 0.0
O247 O 0.45806 0.10886 0.49679 0.0
O248 O 0.49291 0.10185 0.48223 0.0
O249 O 0.4521 0.14271 0.41908 0.0
O250 O 0.48736 0.13804 0.40324 0.0
O251 O 0.42107 0.13866 0.46971 0.0
O252 O 0.43059 0.15794 0.51434 0.0
C253 C 0.49435 0.15463 0.53654 0.0
O254 O 0.50044 0.16847 0.4497 0.0
O255 O 0.46378 0.17263 0.44955 0.0
C256 C 0.55833 0.12783 0.41324 0.0
C257 C 0.59063 0.1344 0.36248 0.0
C258 C 0.56937 0.13008 0.35214 0.0
C259 C 0.55331 0.12699 0.37731 0.0
C260 C 0.57946 0.1321 0.42366 0.0
C261 C 0.59548 0.13543 0.39852 0.0
C262 C 0.54215 0.1235 0.44041 0.0
C263 C 0.47466 0.09578 0.4964 0.0
C264 C 0.46705 0.14186 0.39392 0.0
C265 C 0.40057 0.13509 0.52036 0.0
C266 C 0.37314 0.10667 0.55613 0.0
C267 C 0.39556 0.104 0.55758 0.0
C268 C 0.40913 0.11812 0.53995 0.0
C269 C 0.37824 0.13786 0.51876 0.0
C270 C 0.36459 0.12384 0.53677 0.0
C271 C 0.4148 0.14819 0.49845 0.0
H272 H 0.56508 0.12921 0.32459 0.0
H273 H 0.53706 0.12379 0.36866 0.0
H274 H 0.58363 0.13266 0.45131 0.0
H275 H 0.61173 0.13839 0.40734 0.0
H276 H 0.40264 0.09125 0.57298 0.0
H277 H 0.42633 0.11567 0.54136 0.0
H278 H 0.37139 0.15069 0.50325 0.0
H279 H 0.34738 0.1263 0.53539 0.0
Dy280 Dy 0.10747 0.24455 0.7034 0.0
Dy281 Dy 0.09817 0.1972 0.72287 0.0
C282 C 0.06183 0.22587 0.68472 0.0
O283 O 0.08669 0.24934 0.75281 0.0
O284 O 0.09143 0.21576 0.7751 0.0
O285 O 0.10375 0.27887 0.70137 0.0
O286 O 0.1343 0.26387 0.68699 0.0
O287 O 0.13452 0.2004 0.72578 0.0
O288 O 0.13165 0.23409 0.74458 0.0
O289 O 0.09379 0.19491 0.66281 0.0
O290 O 0.10751 0.22752 0.64765 0.0
O291 O 0.10242 0.16368 0.71106 0.0
O292 O 0.08587 0.17322 0.75867 0.0
C293 C 0.08486 0.23593 0.77962 0.0
O294 O 0.07575 0.24112 0.67864 0.0
O295 O 0.06603 0.20958 0.70562 0.0
C296 C 0.12769 0.29846 0.66487 0.0
C297 C 0.13734 0.33039 0.61553 0.0
C298 C 0.11899 0.31746 0.61139 0.0
C299 C 0.11421 0.30153 0.6359 0.0
C300 C 0.14581 0.31147 0.66929 0.0
C301 C 0.15067 0.32729 0.64474 0.0
C302 C 0.12358 0.28176 0.69088 0.0
C303 C 0.14306 0.21653 0.74267 0.0
C304 C 0.09922 0.20859 0.6377 0.0
C305 C 0.10877 0.14323 0.761 0.0
C306 C 0.13677 0.11605 0.79795 0.0
C307 C 0.14087 0.13816 0.79593 0.0
C308 C 0.12699 0.15162 0.77763 0.0
C309 C 0.1049 0.12114 0.76199 0.0
C310 C 0.11882 0.1076 0.78038 0.0
C311 C 0.09459 0.15744 0.7411 0.0
H312 H 0.1087 0.31925 0.58865 0.0
H313 H 0.10023 0.29149 0.63204 0.0
H314 H 0.15634 0.30923 0.69165 0.0
H315 H 0.16487 0.33703 0.64847 0.0
H316 H 0.15467 0.14508 0.80898 0.0
H317 H 0.13039 0.16862 0.77665 0.0
H318 H 0.09103 0.11442 0.74884 0.0
H319 H 0.11513 0.09068 0.78189 0.0
Dy320 Dy 0.89179 0.23756 0.70812 0.0
Dy321 Dy 0.906 0.2859 0.72715 0.0
C322 C 0.93751 0.25201 0.69461 0.0
O323 O 0.89918 0.2355 0.76751 0.0
O324 O 0.91929 0.26611 0.77355 0.0
O325 O 0.8995 0.20385 0.71122 0.0
O326 O 0.8711 0.21432 0.68343 0.0
O327 O 0.8709 0.28376 0.74619 0.0
O328 O 0.86056 0.25013 0.72926 0.0
O329 O 0.90379 0.28805 0.6669 0.0
O330 O 0.89748 0.25294 0.65226 0.0
O331 O 0.90218 0.31955 0.71709 0.0
O332 O 0.92363 0.30908 0.75829 0.0
C333 C 0.91304 0.2472 0.78603 0.0
O334 O 0.92661 0.24085 0.71696 0.0
O335 O 0.9329 0.27246 0.69349 0.0
C336 C 0.88843 0.18288 0.66329 0.0
C337 C 0.8959 0.15252 0.60998 0.0
C338 C 0.89424 0.1744 0.60171 0.0
C339 C 0.89056 0.18951 0.62821 0.0
C340 C 0.89072 0.16117 0.67172 0.0
C341 C 0.89449 0.14607 0.64527 0.0
C342 C 0.8835 0.1982 0.69144 0.0
C343 C 0.85614 0.26853 0.74442 0.0
C344 C 0.90185 0.27305 0.64228 0.0
C345 C 0.90217 0.33978 0.76817 0.0
C346 C 0.87587 0.36796 0.80697 0.0
C347 C 0.89365 0.37582 0.7881 0.0
C348 C 0.90659 0.36179 0.76841 0.0
C349 C 0.88482 0.33191 0.78784 0.0
C350 C 0.87169 0.34587 0.80682 0.0
C351 C 0.9136 0.32529 0.74412 0.0
H352 H 0.89567 0.1798 0.57473 0.0
H353 H 0.88921 0.20628 0.62128 0.0
H354 H 0.88923 0.15586 0.69874 0.0
H355 H 0.89564 0.1293 0.65228 0.0
H356 H 0.8973 0.39277 0.7882 0.0
H357 H 0.91977 0.36814 0.75296 0.0
H358 H 0.88117 0.31497 0.788 0.0
H359 H 0.85841 0.33933 0.82182 0.0
Dy360 Dy 0.60574 0.73947 0.20709 0.0
Dy361 Dy 0.59501 0.69111 0.22925 0.0
C362 C 0.5594 0.71923 0.18894 0.0
O363 O 0.59333 0.74336 0.26386 0.0
O364 O 0.58074 0.7097 0.27659 0.0
O365 O 0.59843 0.77335 0.2085 0.0
O366 O 0.62814 0.76192 0.18501 0.0
O367 O 0.6284 0.6964 0.25188 0.0
O368 O 0.63813 0.72744 0.22514 0.0
O369 O 0.59616 0.68894 0.16822 0.0
O370 O 0.60178 0.72374 0.15179 0.0
O371 O 0.60195 0.65833 0.21643 0.0
O372 O 0.58115 0.6656 0.26072 0.0
C373 C 0.58295 0.73022 0.28543 0.0
O374 O 0.57208 0.73596 0.18947 0.0
O375 O 0.56443 0.70086 0.20356 0.0
C376 C 0.61209 0.79199 0.15976 0.0
C377 C 0.60958 0.81797 0.09989 0.0
C378 C 0.60664 0.79572 0.09709 0.0
C379 C 0.60771 0.78284 0.12685 0.0
C380 C 0.61435 0.81421 0.16296 0.0
C381 C 0.61299 0.82719 0.13317 0.0
C382 C 0.6155 0.77831 0.19034 0.0
C383 C 0.6429 0.71118 0.24545 0.0
C384 C 0.59753 0.70352 0.14282 0.0
C385 C 0.60399 0.63526 0.26411 0.0
C386 C 0.62965 0.60462 0.29826 0.0
C387 C 0.63669 0.62589 0.29507 0.0
C388 C 0.62394 0.64108 0.2782 0.0
C389 C 0.59692 0.61406 0.26701 0.0
C390 C 0.60961 0.59883 0.28415 0.0
C391 C 0.59161 0.65072 0.24347 0.0
H392 H 0.6039 0.78823 1.07179 0.0
H393 H 0.60575 0.76568 0.12402 0.0
H394 H 0.61772 0.82145 0.18829 0.0
H395 H 0.61545 0.84428 0.13595 0.0
H396 H 0.65181 0.63094 0.30642 0.0
H397 H 0.62973 0.65733 0.27591 0.0
H398 H 0.58168 0.60925 0.25579 0.0
H399 H 0.60377 0.58256 0.28642 0.0
Dy400 Dy 0.61263 0.237 0.95398 0.0
Dy401 Dy 0.59225 0.28235 0.93396 0.0
C402 C 0.56558 0.24545 0.97136 0.0
O403 O 0.60121 0.23252 0.89587 0.0
O404 O 0.57959 0.26203 0.88823 0.0
O405 O 0.61229 0.2073 0.98252 0.0
O406 O 0.63676 0.21286 0.94297 0.0
O407 O 0.62557 0.28052 0.90745 0.0
O408 O 0.64151 0.25773 0.94536 0.0
O409 O 0.59445 0.2852 0.9944 0.0
O410 O 0.60878 0.25271 1.00989 0.0
O411 O 0.59637 0.3161 0.94194 0.0
O412 O 0.57023 0.30455 0.90911 0.0
C413 C 0.58685 0.24328 0.87656 0.0
O414 O 0.57743 0.23333 0.95122 0.0
O415 O 0.5682 0.26624 0.96941 0.0
C416 C 0.64653 0.19374 0.99361 0.0
C417 C 0.67198 0.17869 1.0493 0.0
C418 C 0.6654 0.20027 1.04818 0.0
C419 C 0.65285 0.20774 1.0205 0.0
C420 C 0.6544 0.17273 0.99297 0.0
C421 C 0.66719 0.16527 1.02053 0.0
C422 C 0.63018 0.20051 0.9684 0.0
C423 C 0.6432 0.27122 0.91924 0.0
C424 C 0.60066 0.27175 1.01939 0.0
C425 C 0.58665 0.33806 0.89528 0.0
C426 C 0.60485 0.36891 0.85045 0.0
C427 C 0.5986 0.34879 0.8372 0.0
C428 C 0.5897 0.33341 0.85949 0.0
C429 C 0.59189 0.35848 0.90817 0.0
C430 C 0.60107 0.37376 0.88599 0.0
C431 C 0.58086 0.32126 0.92056 0.0
H432 H 0.66845 0.21106 1.06994 0.0
H433 H 0.64698 0.22409 1.02119 0.0
H434 H 0.6498 0.16181 0.97211 0.0
H435 H 0.6723 0.14868 1.02027 0.0
H436 H 0.60164 0.34454 0.80997 0.0
H437 H 0.58608 0.31767 0.84906 0.0
H438 H 0.58979 0.36228 0.93583 0.0
H439 H 0.60571 0.38915 0.89677 0.0
Dy440 Dy 0.88896 0.74623 0.46002 0.0
Dy441 Dy 0.90465 0.69963 0.43769 0.0
C442 C 0.93662 0.73091 0.48034 0.0
O443 O 0.90103 0.75041 0.40234 0.0
O444 O 0.91891 0.71892 0.39175 0.0
O445 O 0.88924 0.78001 0.44891 0.0
O446 O 0.86881 0.76775 0.49047 0.0
O447 O 0.87137 0.7032 0.41286 0.0
O448 O 0.85771 0.73044 0.44571 0.0
O449 O 0.90321 0.69681 0.49847 0.0
O450 O 0.89479 0.73098 0.51542 0.0
O451 O 0.90041 0.66662 0.45098 0.0
O452 O 0.92043 0.67492 0.40637 0.0
C453 C 0.91381 0.73863 0.38168 0.0
O454 O 0.92243 0.74638 0.47894 0.0
O455 O 0.93396 0.71235 0.46445 0.0
C456 C 0.88507 0.80128 0.49954 0.0
C457 C 0.90045 0.83206 0.54742 0.0
C458 C 0.91483 0.81861 0.5291 0.0
C459 C 0.9072 0.80325 0.50562 0.0
C460 C 0.87067 0.81489 0.51714 0.0
C461 C 0.87828 0.83014 0.54099 0.0
C462 C 0.8769 0.78474 0.47562 0.0
C463 C 0.85493 0.71531 0.42223 0.0
C464 C 0.9006 0.71108 0.52415 0.0
C465 C 0.9001 0.64236 0.40355 0.0
C466 C 0.87803 0.61061 0.36509 0.0
C467 C 0.89511 0.62202 0.34963 0.0
C468 C 0.90606 0.63773 0.36869 0.0
C469 C 0.88355 0.63033 0.41937 0.0
C470 C 0.87254 0.61476 0.40026 0.0
C471 C 0.91097 0.65949 0.4237 0.0
H472 H 0.93201 0.81985 0.53302 0.0
H473 H 0.91863 0.79283 0.49241 0.0
H474 H 0.85352 0.81347 0.51287 0.0
H475 H 0.86675 0.83999 0.55507 0.0
H476 H 0.89953 0.61934 0.32237 0.0
H477 H 0.91891 0.64649 0.35594 0.0
H478 H 0.87882 0.63315 0.44645 0.0
H479 H 0.85959 0.60609 0.4129 0.0
Dy480 Dy 0.5016 0.63474 0.70006 0.0
Dy481 Dy 0.55024 0.64219 0.67788 0.0
C482 C 0.52386 0.67951 0.71938 0.0
O483 O 0.49685 0.65265 0.64825 0.0
O484 O 0.53121 0.65075 0.62686 0.0
O485 O 0.46759 0.63956 0.69492 0.0
O486 O 0.47964 0.61495 0.73004 0.0
O487 O 0.54652 0.60613 0.67233 0.0
O488 O 0.51031 0.60538 0.6672 0.0
O489 O 0.55324 0.64437 0.73839 0.0
O490 O 0.51866 0.63683 0.75492 0.0
O491 O 0.58373 0.6355 0.68618 0.0
O492 O 0.57419 0.65586 0.64299 0.0
C493 C 0.51054 0.65565 0.62202 0.0
O494 O 0.50618 0.66815 0.71816 0.0
O495 O 0.54188 0.67325 0.70425 0.0
C496 C 0.4473 0.63262 0.74635 0.0
C497 C 0.41606 0.64488 0.79649 0.0
C498 C 0.42515 0.66015 0.77376 0.0
C499 C 0.44068 0.65411 0.74904 0.0
C500 C 0.43835 0.61738 0.76905 0.0
C501 C 0.42299 0.62345 0.79402 0.0
C502 C 0.46285 0.62568 0.7193 0.0
C503 C 0.52902 0.59589 0.66302 0.0
C504 C 0.53876 0.64203 0.76386 0.0
C505 C 0.60365 0.6326 0.63446 0.0
C506 C 0.63016 0.60741 0.59079 0.0
C507 C 0.61 0.59979 0.60187 0.0
C508 C 0.59682 0.61232 0.6233 0.0
C509 C 0.62393 0.64013 0.62432 0.0
C510 C 0.63713 0.62762 0.60254 0.0
C511 C 0.5899 0.6454 0.65781 0.0
H512 H 0.42006 0.67674 0.77468 0.0
H513 H 0.4473 0.66626 0.73186 0.0
H514 H 0.44323 0.60073 0.76743 0.0
H515 H 0.41671 0.61135 0.81161 0.0
H516 H 0.6043 0.58419 0.59363 0.0
H517 H 0.58128 0.60617 0.63115 0.0
H518 H 0.62946 0.65571 0.63299 0.0
H519 H 0.65247 0.63401 0.59407 0.0
Dy520 Dy 0.00236 0.34388 0.20309 0.0
Dy521 Dy 0.95494 0.32836 0.18254 0.0
C522 C 0.98772 0.29849 0.22414 0.0
O523 O 0.00667 0.33375 0.14498 0.0
O524 O 0.97553 0.31483 0.1367 0.0
O525 O 0.03609 0.33657 0.20994 0.0
O526 O 0.02415 0.36877 0.21909 0.0
O527 O 0.95552 0.36394 0.16602 0.0
O528 O 0.99108 0.37191 0.1719 0.0
O529 O 0.95236 0.32841 0.24268 0.0
O530 O 0.98409 0.34447 0.25766 0.0
O531 O 0.92111 0.33218 0.19181 0.0
O532 O 0.93224 0.30977 0.15197 0.0
C533 C -0.00504 0.32054 0.12537 0.0
O534 O 0.00171 0.30846 0.20464 0.0
O535 O 0.96732 0.3029 0.21959 0.0
C536 C 0.05637 0.35919 0.24696 0.0
C537 C 0.08621 0.36831 0.30004 0.0
C538 C 0.06563 0.36051 0.30868 0.0
C539 C 0.05075 0.35606 0.28227 0.0
C540 C 0.07696 0.36648 0.23819 0.0
C541 C 0.09181 0.371 0.26451 0.0
C542 C 0.04086 0.35616 0.21872 0.0
C543 C 0.97183 0.37727 0.16138 0.0
C544 C 0.96542 0.33561 0.26746 0.0
C545 C 0.90026 0.32975 0.1417 0.0
C546 C 0.87237 0.35596 0.10246 0.0
C547 C 0.86536 0.34663 0.13408 0.0
C548 C 0.87921 0.33361 0.15351 0.0
C549 C 0.90712 0.33848 0.10965 0.0
C550 C 0.89324 0.35129 0.09007 0.0
C551 C 0.91572 0.31979 0.16571 0.0
H552 H 0.06101 0.3579 0.33584 0.0
H553 H 0.03484 0.35055 0.2894 0.0
H554 H 0.08143 0.36904 0.21093 0.0
H555 H 0.10746 0.3771 0.25708 0.0
H556 H 0.84944 0.34992 0.14441 0.0
H557 H 0.87379 0.3273 0.17855 0.0
H558 H 0.9234 0.336 0.10027 0.0
H559 H 0.89899 0.35768 1.06531 0.0
Dy560 Dy 0.50497 0.3418 0.46171 0.0
Dy561 Dy 0.55367 0.33149 0.48572 0.0
C562 C 0.52475 0.297 0.44676 0.0
O563 O 0.49991 0.3279 0.51719 0.0
O564 O 0.53437 0.31913 0.53388 0.0
O565 O 0.47721 0.33738 0.42879 0.0
O566 O 0.47565 0.35911 0.47325 0.0
O567 O 0.54718 0.36485 0.50778 0.0
O568 O 0.51873 0.3746 0.47391 0.0
O569 O 0.55623 0.33308 0.42439 0.0
O570 O 0.52149 0.33923 0.40697 0.0
O571 O 0.58656 0.34154 0.4806 0.0
O572 O 0.57863 0.31311 0.51111 0.0
C573 C 0.51333 0.31969 0.54072 0.0
O574 O 0.50857 0.30641 0.46257 0.0
O575 O 0.54427 0.30361 0.45294 0.0
C576 C 0.4574 0.36909 0.4221 0.0
C577 C 0.43928 0.3983 0.37435 0.0
C578 C 0.46081 0.39155 0.37064 0.0
C579 C 0.46978 0.37719 0.39436 0.0
C580 C 0.43651 0.3768 0.42758 0.0
C581 C 0.42753 0.39143 0.404 0.0
C582 C 0.46621 0.35235 0.44479 0.0
C583 C 0.53344 0.37957 0.49734 0.0
C584 C 0.54184 0.33488 0.39853 0.0
C585 C 0.6098 0.33302 0.52685 0.0
C586 C 0.64034 0.34875 0.5747 0.0
C587 C 0.62022 0.34141 0.58664 0.0
C588 C 0.60502 0.33369 0.56289 0.0
C589 C 0.63 0.33993 0.51492 0.0
C590 C 0.64514 0.34786 0.53863 0.0
C591 C 0.59375 0.3263 0.50089 0.0
H592 H 0.47041 0.39604 0.34804 0.0
H593 H 0.4861 0.37166 0.39007 0.0
H594 H 0.42692 0.371 0.44941 0.0
H595 H 0.41109 0.39659 0.40813 0.0
H596 H 0.61593 0.34232 0.61426 0.0
H597 H 0.58944 0.32868 0.57264 0.0
H598 H 0.63391 0.33958 0.4871 0.0
H599 H 0.66051 0.35342 0.5288 0.0
Dy600 Dy 0.00013 0.63087 0.95805 0.0
Dy601 Dy 0.95107 0.63966 0.98202 0.0
C602 C 0.97698 0.67635 0.94125 0.0
O603 O 0.00468 0.64453 1.01348 0.0
O604 O 0.96999 0.65157 1.03086 0.0
O605 O 0.03403 0.63797 0.96148 0.0
O606 O 0.02293 0.61055 0.93122 0.0
O607 O 0.95573 0.60528 0.99912 0.0
O608 O 0.9899 0.59861 0.98007 0.0
O609 O 0.94866 0.63987 0.92088 0.0
O610 O 0.98375 0.63531 0.9036 0.0
O611 O 0.91806 0.63127 0.97248 0.0
O612 O 0.92585 0.65432 1.01323 0.0
C613 C 0.99103 0.65198 1.03738 0.0
O614 O -0.00589 0.66404 0.93901 0.0
O615 O 0.9598 0.67107 0.95925 0.0
C616 C 0.05571 0.62664 0.91381 0.0
C617 C 0.08819 0.63223 0.86303 0.0
C618 C 0.06649 0.63114 0.8529 0.0
C619 C 0.05034 0.62844 0.87812 0.0
C620 C 0.07726 0.62824 0.92406 0.0
C621 C 0.0934 0.63109 0.89889 0.0
C622 C 0.03938 0.62216 0.94071 0.0
C623 C 0.97221 0.59223 0.99595 0.0
C624 C 0.96333 0.63929 0.89524 0.0
C625 C 0.89692 0.63034 1.02319 0.0
C626 C 0.87148 0.60352 1.06584 0.0
C627 C 0.86403 0.61016 1.03273 0.0
C628 C 0.87668 0.62347 1.0116 0.0
C629 C 0.90431 0.62392 1.05631 0.0
C630 C 0.89164 0.61083 1.07752 0.0
C631 C 0.91093 0.64236 0.99918 0.0
H632 H 0.06203 0.63231 0.82544 0.0
H633 H 0.03376 0.62744 0.86971 0.0
H634 H 0.08165 0.62687 0.95153 0.0
H635 H 0.10998 0.63178 0.90738 0.0
H636 H 0.84863 0.6048 1.02293 0.0
H637 H 0.87086 0.62805 0.98584 0.0
H638 H 0.91998 0.6288 1.06569 0.0
H639 H 0.89766 0.60659 0.10329 0.0
H640 H 0.16702 0.0709 0.08717 0.0
H641 H 0.18581 0.05174 1.03989 0.0
H642 H 0.12873 0.05596 0.97577 0.0
H643 H 0.10962 0.07284 1.02368 0.0
H644 H 0.14998 0.02519 0.95148 0.0
H645 H 0.17499 0.10257 0.98587 0.0
H646 H 0.19389 0.12535 1.02907 0.0
H647 H 0.24512 0.07927 1.0346 0.0
H648 H 0.22641 0.05624 0.9915 0.0
H649 H 0.15348 0.07581 0.78516 0.0
H650 H 0.17156 0.05235 0.82775 0.0
H651 H 0.16596 0.10216 0.90652 0.0
H652 H 0.14892 0.12541 0.86432 0.0
H653 H 0.20166 0.08167 0.91724 0.0
H654 H 0.17014 0.008 0.86733 0.0
H655 H 0.14467 -0.00803 0.82505 0.0
H656 H 0.09773 0.04002 0.8514 0.0
H657 H 0.12297 0.05623 0.89385 0.0
C658 C 0.1583 0.06695 1.06342 0.0
C659 C 0.1371 0.07422 1.05849 0.0
C660 C 0.16915 0.05616 1.03622 0.0
C661 C 0.15915 0.05321 1.00344 0.0
C662 C 0.13716 0.05817 1.0004 0.0
C663 C 0.12624 0.06831 1.0277 0.0
C664 C 0.17158 0.04956 0.97032 0.0
C665 C 0.16189 0.03703 0.94401 0.0
C666 C 0.18803 0.06401 0.96022 0.0
C667 C 0.19931 0.07771 0.98586 0.0
C668 C 0.1903 0.09738 0.99636 0.0
C669 C 0.20094 0.11029 1.02081 0.0
C670 C 0.22067 0.10374 1.03462 0.0
C671 C 0.22982 0.08429 1.02394 0.0
C672 C 0.21921 0.0713 0.99954 0.0
C673 C 0.15654 0.08173 0.81148 0.0
C674 C 0.14978 0.1024 0.82151 0.0
C675 C 0.16687 0.06835 0.83575 0.0
C676 C 0.17009 0.07534 0.87053 0.0
C677 C 0.16411 0.09635 0.87979 0.0
C678 C 0.1542 0.10971 0.85562 0.0
C679 C 0.17658 0.06066 0.89936 0.0
C680 C 0.19091 0.06872 0.92452 0.0
C681 C 0.16355 0.04298 0.90856 0.0
C682 C 0.14837 0.0333 0.88344 0.0
C683 C 0.15436 0.01507 0.86405 0.0
C684 C 0.13999 0.00598 0.84009 0.0
C685 C 0.11961 0.01499 0.83551 0.0
C686 C 0.11352 0.03307 0.85495 0.0
C687 C 0.12782 0.04219 0.87897 0.0
H688 H 0.10852 0.00795 0.81692 0.0
H689 H 0.22889 0.11375 1.05356 0.0
H690 H 0.17613 0.86825 0.34782 0.0
H691 H 0.19858 0.88239 0.30033 0.0
H692 H 0.14276 0.91323 0.25581 0.0
H693 H 0.12077 0.89981 0.30355 0.0
H694 H 0.19177 0.86544 0.24257 0.0
H695 H 0.14934 0.94542 0.19421 0.0
H696 H 0.14386 0.98193 0.21713 0.0
H697 H 0.19573 0.97322 0.28985 0.0
H698 H 0.20186 0.93674 0.26702 0.0
H699 H 0.11624 0.88599 0.10637 0.0
H700 H 0.13931 0.90178 0.15051 0.0
H701 H 0.19363 0.86681 0.10849 0.0
H702 H 0.17004 0.8495 1.06569 0.0
H703 H 0.17435 0.92458 0.16086 0.0
H704 H 0.22437 0.8539 0.17245 0.0
H705 H 0.22869 0.81624 0.15361 0.0
H706 H 0.16049 0.80685 0.16186 0.0
H707 H 0.15584 0.84455 0.18053 0.0
C708 C 0.16896 0.87887 0.32863 0.0
C709 C 0.14667 0.88255 0.3287 0.0
C710 C 0.18182 0.88707 0.30165 0.0
C711 C 0.17245 0.89869 0.27403 0.0
C712 C 0.15066 0.90463 0.27682 0.0
C713 C 0.1379 0.89672 0.30406 0.0
C714 C 0.18266 0.89877 0.2386 0.0
C715 C 0.18886 0.87876 0.22491 0.0
C716 C 0.17974 0.91612 0.21521 0.0
C717 C 0.17619 0.93827 0.22864 0.0
C718 C 0.15982 0.95132 0.21474 0.0
C719 C 0.15652 0.97202 0.22785 0.0
C720 C 0.16946 0.9799 0.25488 0.0
C721 C 0.18572 0.96709 0.2689 0.0
C722 C 0.18909 0.94638 0.25591 0.0
C723 C 0.13308 0.88155 0.1065 0.0
C724 C 0.14108 0.86583 0.08341 0.0
C725 C 0.14643 0.89099 0.13133 0.0
C726 C 0.16821 0.88519 0.13342 0.0
C727 C 0.1768 0.87121 0.10794 0.0
C728 C 0.16328 0.86138 0.08337 0.0
C729 C 0.17999 0.89074 0.16607 0.0
C730 C 0.17853 0.91184 0.17891 0.0
C731 C 0.18723 0.87443 0.18895 0.0
C732 C 0.18978 0.85194 0.17752 0.0
C733 C 0.21034 0.84376 0.17018 0.0
C734 C 0.21284 0.82243 0.15958 0.0
C735 C 0.19489 0.80914 0.15659 0.0
C736 C 0.17438 0.81716 0.16416 0.0
C737 C 0.1718 0.83849 0.17472 0.0
H738 H 0.19687 0.79262 0.14843 0.0
H739 H 0.16686 -0.00407 0.265 0.0
H740 H 0.33422 0.87384 0.29856 0.0
H741 H 0.3099 0.88915 0.34292 0.0
H742 H 0.36467 0.91041 0.40294 0.0
H743 H 0.38879 0.89514 0.35892 0.0
H744 H 0.31138 0.87055 0.40506 0.0
H745 H 0.35516 0.94863 0.45569 0.0
H746 H 0.36621 0.98329 0.4309 0.0
H747 H 0.32043 0.97617 0.34749 0.0
H748 H 0.30878 0.94159 0.37204 0.0
H749 H 0.32246 0.85904 0.58459 0.0
H750 H 0.30121 0.87635 0.53859 0.0
H751 H 0.35822 0.90887 0.50177 0.0
H752 H 0.3788 0.8932 0.549 0.0
H753 H 0.32521 0.93199 0.48451 0.0
H754 H 0.27305 0.86433 0.47408 0.0
H755 H 0.2656 0.82775 0.4955 0.0
H756 H 0.33305 0.81306 0.49229 0.0
H757 H 0.34082 0.84966 0.47111 0.0
C758 C 0.34097 0.88256 0.32058 0.0
C759 C 0.36332 0.88309 0.32579 0.0
C760 C 0.32706 0.89138 0.34576 0.0
C761 C 0.33539 0.90107 0.37615 0.0
C762 C 0.35777 0.90342 0.37943 0.0
C763 C 0.37161 0.89441 0.35456 0.0
C764 C 0.32204 0.90333 0.4083 0.0
C765 C 0.31352 0.88435 0.42213 0.0
C766 C 0.3241 0.92144 0.43042 0.0
C767 C 0.33092 0.94249 0.41595 0.0
C768 C 0.34719 0.95453 0.43235 0.0
C769 C 0.35365 0.97416 0.41823 0.0
C770 C 0.344 0.98195 0.38769 0.0
C771 C 0.32789 0.97012 0.37116 0.0
C772 C 0.32136 0.95048 0.38515 0.0
C773 C 0.33024 0.87044 0.56734 0.0
C774 C 0.35251 0.87415 0.56954 0.0
C775 C 0.31809 0.88023 0.5409 0.0
C776 C 0.32817 0.89338 0.51584 0.0
C777 C 0.34992 0.8987 0.52045 0.0
C778 C 0.36188 0.88933 0.54711 0.0
C779 C 0.31825 0.89829 0.48127 0.0
C780 C 0.32172 0.91874 0.46693 0.0
C781 C 0.31195 0.88146 0.45851 0.0
C782 C 0.30747 0.85961 0.47131 0.0
C783 C 0.28624 0.85324 0.47798 0.0
C784 C 0.28197 0.83254 0.49005 0.0
C785 C 0.29883 0.81806 0.49518 0.0
C786 C 0.32001 0.82428 0.4883 0.0
C787 C 0.32436 0.84498 0.4763 0.0
H788 H 0.29549 0.80204 0.50449 0.0
H789 H 0.34904 -0.00286 0.3768 0.0
H790 H 0.36947 0.06708 0.85192 0.0
H791 H 0.35544 0.04504 0.80354 0.0
H792 H 0.33116 0.10204 0.7533 0.0
H793 H 0.34542 0.12381 0.80047 0.0
H794 H 0.30546 0.06709 0.73886 0.0
H795 H 0.38524 0.08459 0.74238 0.0
H796 H 0.42088 0.07958 0.76956 0.0
H797 H 0.41353 0.0113 0.76286 0.0
H798 H 0.37774 0.01599 0.73592 0.0
H799 H 0.34062 0.11899 0.59952 0.0
H800 H 0.32502 0.09818 0.64671 0.0
H801 H 0.35832 0.04171 0.60924 0.0
H802 H 0.37454 0.06295 0.56209 0.0
H803 H 0.37083 0.04898 0.67004 0.0
H804 H 0.30153 0.03986 0.63084 0.0
H805 H 0.26724 0.0467 0.60066 0.0
H806 H 0.25378 0.09879 0.67141 0.0
H807 H 0.2881 0.09259 0.70167 0.0
C808 C 0.3607 0.07477 0.83085 0.0
C809 C 0.35858 0.09722 0.82989 0.0
C810 C 0.35252 0.06215 0.80348 0.0
C811 C 0.34231 0.07189 0.77475 0.0
C812 C 0.33871 0.09408 0.77537 0.0
C813 C 0.34689 0.1066 0.80246 0.0
C814 C 0.33937 0.06062 0.74077 0.0
C815 C 0.31954 0.06268 0.72358 0.0
C816 C 0.35745 0.0534 0.72141 0.0
C817 C 0.37881 0.05062 0.73767 0.0
C818 C 0.39123 0.06853 0.74688 0.0
C819 C 0.41143 0.06575 0.76221 0.0
C820 C 0.41944 0.04513 0.76801 0.0
C821 C 0.40728 0.02725 0.75843 0.0
C822 C 0.38703 0.02995 0.74321 0.0
C823 C 0.3439 0.10195 0.60036 0.0
C824 C 0.35914 0.09269 0.57767 0.0
C825 C 0.33475 0.08988 0.6273 0.0
C826 C 0.34044 0.06823 0.6318 0.0
C827 C 0.35371 0.05837 0.60648 0.0
C828 C 0.36309 0.07054 0.57972 0.0
C829 C 0.33746 0.05843 0.6671 0.0
C830 C 0.35616 0.05199 0.68478 0.0
C831 C 0.31831 0.06164 0.68667 0.0
C832 C 0.29744 0.06559 0.66878 0.0
C833 C 0.29131 0.05282 0.63995 0.0
C834 C 0.27184 0.0566 0.62279 0.0
C835 C 0.25832 0.07313 0.63417 0.0
C836 C 0.26423 0.08592 0.66273 0.0
C837 C 0.28368 0.08222 0.68 0.0
H838 H 0.24326 0.07604 0.62082 0.0
H839 H 0.43509 0.043 0.77984 0.0
H840 H 0.94082 0.71968 0.3306 0.0
H841 H 0.95437 0.73381 0.27454 0.0
H842 H 0.92109 0.79311 0.29341 0.0
H843 H 0.90707 0.77884 0.34939 0.0
H844 H 0.91766 0.77844 0.2195 0.0
H845 H 0.98697 0.80747 0.28013 0.0
H846 H 0.01243 0.80189 0.32904 0.0
H847 H 0.0152 0.73469 0.30498 0.0
H848 H 0.99033 0.74008 0.25544 0.0
H849 H 0.96291 0.83589 1.07036 0.0
H850 H 0.94892 0.82377 0.12701 0.0
H851 H 0.00363 0.78215 0.13877 0.0
H852 H 0.018 0.795 0.08255 0.0
H853 H -0.00429 0.78804 0.19941 0.0
H854 H 0.93677 0.76974 0.11801 0.0
H855 H 0.90897 0.77783 1.07393 0.0
H856 H 0.8819 0.82552 0.14275 0.0
H857 H 0.9098 0.81781 0.18699 0.0
C858 C 0.93633 0.73582 0.3233 0.0
C859 C 0.92261 0.74781 0.34601 0.0
C860 C 0.94448 0.74417 0.29072 0.0
C861 C 0.93966 0.76516 0.27865 0.0
C862 C 0.92567 0.77705 0.30102 0.0
C863 C 0.91751 0.76871 0.33368 0.0
C864 C 0.94867 0.77432 0.243 0.0
C865 C 0.93478 0.78049 0.21537 0.0
C866 C 0.97099 0.77746 0.23591 0.0
C867 C 0.98675 0.77414 0.26431 0.0
C868 C -0.00681 0.79155 0.28518 0.0
C869 C 0.00754 0.78844 0.31295 0.0
C870 C 0.01543 0.76795 0.32013 0.0
C871 C 0.00913 0.75057 0.29936 0.0
C872 C -0.005 0.75367 0.27132 0.0
C873 C 0.97203 0.82396 0.08458 0.0
C874 C 0.9918 0.81655 1.07016 0.0
C875 C 0.96365 0.81653 0.11767 0.0
C876 C 0.97412 0.80069 0.13855 0.0
C877 C -0.00575 0.79382 0.12445 0.0
C878 C 0.0027 0.80134 0.09145 0.0
C879 C 0.96473 0.79166 0.1745 0.0
C880 C 0.97857 0.78573 0.20272 0.0
C881 C 0.94223 0.78872 0.18206 0.0
C882 C 0.92558 0.7934 0.15548 0.0
C883 C 0.92505 0.78206 0.12353 0.0
C884 C 0.90923 0.78656 0.09858 0.0
C885 C 0.89373 0.80225 0.10547 0.0
C886 C 0.89396 0.81342 0.13739 0.0
C887 C 0.90977 0.80898 0.16241 0.0
H888 H 0.88149 0.80572 0.08612 0.0
H889 H 0.02642 0.76553 0.34178 0.0
H890 H 0.9058 0.20817 0.82076 0.0
H891 H 0.92316 0.19328 0.87312 0.0
H892 H 0.96167 0.25018 0.88259 0.0
H893 H 0.94448 0.26496 0.82996 0.0
H894 H 0.98674 0.22081 0.90239 0.0
H895 H 0.91474 0.23398 0.94091 0.0
H896 H 0.87519 0.23167 0.93984 0.0
H897 H 0.8789 0.16322 0.94891 0.0
H898 H 0.9185 0.16511 0.94963 0.0
H899 H 0.03326 0.15835 1.04407 0.0
H900 H 0.01665 0.1721 0.99012 0.0
H901 H 0.96183 0.19352 1.05029 0.0
H902 H 0.97784 0.17867 0.10348 0.0
H903 H 0.94479 0.18449 0.99565 0.0
H904 H 0.02064 0.19184 0.91049 0.0
H905 H 0.05942 0.1984 0.91824 0.0
H906 H 0.04627 0.23583 1.01088 0.0
H907 H 0.0074 0.22939 1.00373 0.0
C908 C 0.91779 0.21777 0.834 0.0
C909 C 0.9232 0.23818 0.82029 0.0
C910 C 0.92786 0.20913 0.86465 0.0
C911 C 0.9439 0.2204 0.8837 0.0
C912 C 0.94947 0.2407 0.86967 0.0
C913 C 0.93937 0.24936 0.83908 0.0
C914 C 0.95482 0.21118 0.9175 0.0
C915 C 0.97732 0.21283 0.9225 0.0
C916 C 0.94334 0.20089 0.9454 0.0
C917 C 0.91958 0.19968 0.94496 0.0
C918 C 0.90712 0.21843 0.94245 0.0
C919 C 0.8847 0.2172 0.94194 0.0
C920 C 0.87454 0.1973 0.94421 0.0
C921 C 0.88679 0.17861 0.94709 0.0
C922 C 0.90922 0.17975 0.94758 0.0
C923 C 0.0177 0.16605 1.04605 0.0
C924 C 0.00727 0.16716 0.07925 0.0
C925 C 0.00806 0.17432 1.01464 0.0
C926 C 0.98763 0.18473 1.0146 0.0
C927 C 0.97735 0.18578 1.04795 0.0
C928 C 0.98678 0.17721 0.07909 0.0
C929 C 0.97678 0.19406 0.98067 0.0
C930 C 0.95426 0.19238 0.97554 0.0
C931 C 0.98811 0.20506 0.9533 0.0
C932 C 0.01123 0.20986 0.95685 0.0
C933 C 0.02605 0.20154 0.93241 0.0
C934 C 0.04802 0.20515 0.93679 0.0
C935 C 0.0553 0.21736 0.96521 0.0
C936 C 0.04061 0.22621 0.98908 0.0
C937 C 0.01862 0.22253 0.98494 0.0
H938 H 0.07234 0.21998 0.96863 0.0
H939 H 0.85717 0.19638 0.9438 0.0
H940 H 0.59356 0.20298 0.84374 0.0
H941 H 0.57875 0.18867 0.78841 0.0
H942 H 0.54499 0.24787 0.77162 0.0
H943 H 0.5602 0.26236 0.82635 0.0
H944 H 0.51779 0.2144 0.75381 0.0
H945 H 0.59023 0.23248 0.72164 0.0
H946 H 0.62974 0.23141 0.72625 0.0
H947 H 0.62909 0.16328 0.71053 0.0
H948 H 0.58953 0.1639 0.70629 0.0
H949 H 0.48014 0.1894 0.5783 0.0
H950 H 0.49552 0.20462 0.63196 0.0
H951 H 0.54423 0.15551 0.63172 0.0
H952 H 0.52974 0.14139 0.57648 0.0
H953 H 0.56384 0.18401 0.65954 0.0
H954 H 0.49325 0.16368 0.70141 0.0
H955 H 0.45365 0.16221 0.69819 0.0
H956 H 0.45071 0.23084 0.69616 0.0
H957 H 0.49029 0.23275 0.70038 0.0
C958 C 0.58305 0.21315 0.82844 0.0
C959 C 0.57815 0.23406 0.84102 0.0
C960 C 0.57443 0.20481 0.79618 0.0
C961 C 0.56023 0.21679 0.77449 0.0
C962 C 0.55546 0.2377 0.78699 0.0
C963 C 0.5643 0.24611 0.81894 0.0
C964 C 0.55056 0.20783 0.7393 0.0
C965 C 0.52808 0.20806 0.73322 0.0
C966 C 0.56317 0.19863 0.71155 0.0
C967 C 0.58691 0.19821 0.71401 0.0
C968 C 0.5985 0.21724 0.71944 0.0
C969 C 0.6209 0.21672 0.72194 0.0
C970 C 0.63191 0.19728 0.71878 0.0
C971 C 0.62054 0.17832 0.71302 0.0
C972 C 0.59813 0.17875 0.71055 0.0
C973 C 0.49406 0.18162 0.5896 0.0
C974 C 0.50324 0.16373 0.57198 0.0
C975 C 0.50293 0.19032 0.62137 0.0
C976 C 0.52117 0.18128 0.63852 0.0
C977 C 0.53032 0.16339 0.62064 0.0
C978 C 0.52177 0.15503 0.58843 0.0
C979 C 0.53088 0.1904 0.67388 0.0
C980 C 0.55342 0.19027 0.68005 0.0
C981 C 0.51832 0.1993 0.70209 0.0
C982 C 0.49462 0.19835 0.70115 0.0
C983 C 0.4841 0.17846 0.70058 0.0
C984 C 0.46169 0.17756 0.69871 0.0
C985 C 0.44968 0.19647 0.69724 0.0
C986 C 0.46005 0.21629 0.69784 0.0
C987 C 0.48243 0.21729 0.70021 0.0
H988 H 0.43233 0.19576 0.69552 0.0
H989 H 0.64926 0.19691 0.72072 0.0
H990 H 0.46747 0.80793 0.56044 0.0
H991 H 0.48248 0.7936 0.50537 0.0
H992 H 0.54646 0.80149 0.54601 0.0
H993 H 0.53149 0.81689 0.60014 0.0
H994 H 0.55159 0.80816 0.48176 0.0
H995 H 0.51567 0.74655 0.5333 0.0
H996 H 0.48326 0.73194 0.56205 0.0
H997 H 0.44593 0.7467 0.47042 0.0
H998 H 0.47816 0.76146 0.44123 0.0
H999 H 0.5685 0.70889 0.3467 0.0
H1000 H 0.55331 0.72377 0.40156 0.0
H1001 H 0.5592 0.78736 0.35924 0.0
H1002 H 0.57487 0.77261 0.30523 0.0
H1003 H 0.52079 0.74308 0.42722 0.0
H1004 H 0.56051 0.82698 0.42022 0.0
H1005 H 0.59409 0.84352 0.3989 0.0
H1006 H 0.62668 0.78307 0.40729 0.0
H1007 H 0.59338 0.76623 0.42907 0.0
C1008 C 0.48477 0.80665 0.55792 0.0
C1009 C 0.49793 0.81379 0.58595 0.0
C1010 C 0.49357 0.79804 0.52595 0.0
C1011 C 0.51608 0.79544 0.52032 0.0
C1012 C 0.52916 0.80286 0.54827 0.0
C1013 C 0.5204 0.81177 0.57993 0.0
C1014 C 0.52599 0.7852 0.48612 0.0
C1015 C 0.54446 0.79409 0.46983 0.0
C1016 C 0.51783 0.76629 0.46959 0.0
C1017 C 0.49925 0.75503 0.48513 0.0
C1018 C 0.50059 0.74638 0.51915 0.0
C1019 C 0.48225 0.73822 0.53559 0.0
C1020 C 0.46254 0.73849 0.51812 0.0
C1021 C 0.46121 0.74654 0.48392 0.0
C1022 C 0.47953 0.75466 0.46731 0.0
C1023 C 0.56677 0.7261 0.34896 0.0
C1024 C 0.57334 0.73925 0.32045 0.0
C1025 C 0.55787 0.73477 0.38088 0.0
C1026 C 0.55506 0.75715 0.38638 0.0
C1027 C 0.56139 0.77019 0.35758 0.0
C1028 C 0.57041 0.76156 0.32591 0.0
C1029 C 0.54564 0.76677 0.42143 0.0
C1030 C 0.52752 0.75752 0.43833 0.0
C1031 C 0.55425 0.7853 0.43864 0.0
C1032 C 0.57438 0.79532 0.4259 0.0
C1033 C 0.57486 0.81724 0.41762 0.0
C1034 C 0.59384 0.82666 0.40544 0.0
C1035 C 0.61248 0.81434 0.40163 0.0
C1036 C 0.61221 0.79258 0.41013 0.0
C1037 C 0.59328 0.78309 0.42236 0.0
H1038 H 0.62715 0.82166 0.39216 0.0
H1039 H 0.44831 0.7324 0.53109 0.0
H1040 H 0.6145 0.57858 0.34948 0.0
H1041 H 0.63529 0.56122 0.39492 0.0
H1042 H 0.69412 0.57819 0.34118 0.0
H1043 H 0.67305 0.59655 0.2959 0.0
H1044 H 0.66532 0.5331 0.41163 0.0
H1045 H 0.72812 0.59105 0.39874 0.0
H1046 H 0.7398 0.62351 0.36697 0.0
H1047 H 0.67591 0.64931 0.37414 0.0
H1048 H 0.66389 0.61694 0.40595 0.0
H1049 H 0.67392 0.60026 0.58875 0.0
H1050 H 0.69436 0.58235 0.5414 0.0
H1051 H 0.63504 0.56926 0.48704 0.0
H1052 H 0.61503 0.58775 0.5326 0.0
H1053 H 0.69349 0.59716 0.47327 0.0
H1054 H 0.63437 0.52554 0.44792 0.0
H1055 H 0.61833 0.49634 0.48252 0.0
H1056 H 0.66971 0.50053 0.55722 0.0
H1057 H 0.68629 0.52963 0.52287 0.0
C1058 C 0.63182 0.57801 0.34661 0.0
C1059 C 0.64218 0.58934 0.31969 0.0
C1060 C 0.6438 0.56792 0.37259 0.0
C1061 C 0.66639 0.56883 0.37207 0.0
C1062 C 0.67675 0.57774 0.34267 0.0
C1063 C 0.66472 0.58824 0.31688 0.0
C1064 C 0.67782 0.56498 0.40571 0.0
C1065 C 0.67209 0.54678 0.42525 0.0
C1066 C 0.6881 0.5822 0.42321 0.0
C1067 C 0.69516 0.60167 0.40449 0.0
C1068 C 0.71663 0.6037 0.39358 0.0
C1069 C 0.72329 0.62205 0.3756 0.0
C1070 C 0.70864 0.63847 0.36865 0.0
C1071 C 0.68725 0.63659 0.37962 0.0
C1072 C 0.68051 0.61828 0.39764 0.0
C1073 C 0.66534 0.59326 0.56682 0.0
C1074 C 0.64283 0.59508 0.5646 0.0
C1075 C 0.67698 0.58284 0.54013 0.0
C1076 C 0.66618 0.57385 0.51131 0.0
C1077 C 0.6437 0.57528 0.50969 0.0
C1078 C 0.63222 0.58592 0.53579 0.0
C1079 C 0.67772 0.56671 0.47927 0.0
C1080 C 0.68829 0.58265 0.46002 0.0
C1081 C 0.67154 0.54756 0.46218 0.0
C1082 C 0.6618 0.52963 0.48243 0.0
C1083 C 0.6425 0.52004 0.47138 0.0
C1084 C 0.63323 0.50355 0.49106 0.0
C1085 C 0.6431 0.49645 0.52186 0.0
C1086 C 0.66217 0.50596 0.53322 0.0
C1087 C 0.67149 0.52248 0.51368 0.0
H1088 H 0.63588 0.4837 0.53707 0.0
H1089 H 0.71386 0.65265 0.35481 0.0
H1090 H 0.64265 0.38913 0.8653 0.0
H1091 H 0.66669 0.40658 0.82298 0.0
H1092 H 0.61883 0.39832 0.74202 0.0
H1093 H 0.5949 0.38153 0.78416 0.0
H1094 H 0.68403 0.38613 0.77323 0.0
H1095 H 0.6212 0.42752 0.67657 0.0
H1096 H 0.59481 0.4568 0.68041 0.0
H1097 H 0.62522 0.48046 0.77392 0.0
H1098 H 0.65218 0.45159 0.77034 0.0
H1099 H 0.65229 0.33331 0.63839 0.0
H1100 H 0.6684 0.35344 0.68581 0.0
H1101 H 0.67928 0.40673 0.61561 0.0
H1102 H 0.66209 0.38661 0.56806 0.0
H1103 H 0.65774 0.42095 0.66463 0.0
H1104 H 0.72223 0.38831 0.67331 0.0
H1105 H 0.75136 0.36165 0.66938 0.0
H1106 H 0.72186 0.32478 0.75152 0.0
H1107 H 0.69231 0.35094 0.75564 0.0
C1108 C 0.637 0.39191 0.83876 0.0
C1109 C 0.61706 0.38377 0.82773 0.0
C1110 C 0.65076 0.40185 0.81462 0.0
C1111 C 0.64465 0.40394 0.77926 0.0
C1112 C 0.6239 0.39745 0.76921 0.0
C1113 C 0.61026 0.3875 0.7932 0.0
C1114 C 0.66081 0.40792 0.7512 0.0
C1115 C 0.67861 0.39405 0.74953 0.0
C1116 C 0.65524 0.41989 0.72104 0.0
C1117 C 0.63895 0.43738 0.723 0.0
C1118 C 0.62254 0.4391 0.6977 0.0
C1119 C 0.60738 0.45561 0.69992 0.0
C1120 C 0.60836 0.47051 0.72735 0.0
C1121 C 0.62449 0.46891 0.75267 0.0
C1122 C 0.63971 0.45245 0.75057 0.0
C1123 C 0.65867 0.34908 0.63281 0.0
C1124 C 0.65545 0.35861 0.59992 0.0
C1125 C 0.66834 0.36055 0.65986 0.0
C1126 C 0.67518 0.38179 0.65455 0.0
C1127 C 0.67414 0.39044 0.62048 0.0
C1128 C 0.66432 0.37891 0.59331 0.0
C1129 C 0.67765 0.39585 0.6859 0.0
C1130 C 0.66385 0.41364 0.6884 0.0
C1131 C 0.68735 0.38794 0.71688 0.0
C1132 C 0.70506 0.37186 0.715 0.0
C1133 C 0.72187 0.37451 0.69052 0.0
C1134 C 0.73847 0.35945 0.68824 0.0
C1135 C 0.73849 0.34159 0.71027 0.0
C1136 C 0.72188 0.33871 0.73461 0.0
C1137 C 0.70522 0.35373 0.73704 0.0
H1138 H 0.75137 0.32999 0.7084 0.0
H1139 H 0.59659 0.48327 0.72901 0.0
H1140 H 0.88343 0.39235 1.0672 0.0
H1141 H 0.86309 0.40972 1.02142 0.0
H1142 H 0.80772 0.37109 1.04728 0.0
H1143 H 0.82886 0.35223 0.0914 0.0
H1144 H 0.81689 0.36316 0.98632 0.0
H1145 H 0.80419 0.42949 1.03561 0.0
H1146 H 0.80912 0.46204 1.07143 0.0
H1147 H 0.8621 0.48096 1.00595 0.0
H1148 H 0.85781 0.4484 0.97005 0.0
H1149 H 0.83208 0.37086 0.80935 0.0
H1150 H 0.81085 0.38522 0.85846 0.0
H1151 H 0.86875 0.41013 0.9053 0.0
H1152 H 0.88979 0.39636 0.85599 0.0
H1153 H 0.83346 0.43238 0.92888 0.0
H1154 H 0.85519 0.35512 0.91397 0.0
H1155 H 0.85331 0.31996 0.8842 0.0
H1156 H 0.78438 0.32187 0.88989 0.0
H1157 H 0.78592 0.35698 0.91971 0.0
C1158 C 0.86683 0.3877 1.06348 0.0
C1159 C 0.85809 0.37024 0.08182 0.0
C1160 C 0.85489 0.39814 1.0378 0.0
C1161 C 0.83373 0.39172 1.03043 0.0
C1162 C 0.82405 0.37626 1.05216 0.0
C1163 C 0.83619 0.36544 1.07743 0.0
C1164 C 0.8248 0.39642 0.99502 0.0
C1165 C 0.81951 0.37864 0.97413 0.0
C1166 C 0.82779 0.41657 0.97865 0.0
C1167 C 0.83053 0.43644 0.99989 0.0
C1168 C 0.81694 0.44053 1.02885 0.0
C1169 C 0.81964 0.45901 1.04921 0.0
C1170 C 0.83588 0.47358 1.04092 0.0
C1171 C 0.84946 0.46971 1.01224 0.0
C1172 C 0.84684 0.45126 0.99177 0.0
C1173 C 0.84007 0.38021 0.82947 0.0
C1174 C 0.86259 0.3821 0.8295 0.0
C1175 C 0.82793 0.38848 0.85738 0.0
C1176 C 0.83829 0.39821 0.886 0.0
C1177 C 0.86039 0.40261 0.88358 0.0
C1178 C 0.87247 0.39463 0.85545 0.0
C1179 C 0.82813 0.39867 0.92132 0.0
C1180 C 0.8295 0.41741 0.94172 0.0
C1181 C 0.82164 0.37936 0.9376 0.0
C1182 C 0.82065 0.35872 0.91849 0.0
C1183 C 0.83965 0.34806 0.90858 0.0
C1184 C 0.83865 0.32813 0.89182 0.0
C1185 C 0.81875 0.31868 0.88512 0.0
C1186 C 0.79979 0.32917 0.89504 0.0
C1187 C 0.8007 0.34909 0.91185 0.0
H1188 H 0.81806 0.30317 0.87243 0.0
H1189 H 0.83796 0.48787 1.05674 0.0
H1190 H 0.83432 0.60803 0.36225 0.0
H1191 H 0.81308 0.58995 0.31704 0.0
H1192 H 0.87111 0.56256 0.27343 0.0
H1193 H 0.89221 0.58011 0.31888 0.0
H1194 H 0.82035 0.6043 0.25413 0.0
H1195 H 0.8634 0.52237 0.22096 0.0
H1196 H 0.87258 0.48907 0.252 0.0
H1197 H 0.82404 0.50221 0.32972 0.0
H1198 H 0.8142 0.53544 0.29884 0.0
H1199 H 0.88496 0.571 0.1083 0.0
H1200 H 0.86598 0.55717 0.15909 0.0
H1201 H 0.80799 0.58909 0.12545 0.0
H1202 H 0.82762 0.60472 1.07604 0.0
H1203 H 0.83409 0.53739 0.18721 0.0
H1204 H 0.7853 0.61248 0.19369 0.0
H1205 H 0.78142 0.64808 0.16612 0.0
H1206 H 0.8496 0.65068 0.14853 0.0
H1207 H 0.85382 0.6152 0.17627 0.0
C1208 C 0.84239 0.59738 0.34393 0.0
C1209 C 0.86494 0.5958 0.34353 0.0
C1210 C 0.83022 0.58701 0.31821 0.0
C1211 C 0.84043 0.57489 0.29181 0.0
C1212 C 0.86274 0.57151 0.29376 0.0
C1213 C 0.87489 0.58189 0.31938 0.0
C1214 C 0.82961 0.57109 0.25769 0.0
C1215 C 0.82248 0.58937 0.23981 0.0
C1216 C 0.83222 0.55165 0.23897 0.0
C1217 C 0.83797 0.53146 0.25741 0.0
C1218 C 0.85447 0.5181 0.24442 0.0
C1219 C 0.85986 0.49923 0.26208 0.0
C1220 C 0.8489 0.49352 0.2928 0.0
C1221 C 0.83252 0.50666 0.30593 0.0
C1222 C 0.82705 0.52553 0.28837 0.0
C1223 C 0.8681 0.57496 0.11147 0.0
C1224 C 0.85814 0.58992 0.08928 0.0
C1225 C 0.85707 0.56665 0.14025 0.0
C1226 C 0.83573 0.57282 0.14701 0.0
C1227 C 0.82467 0.58471 0.12143 0.0
C1228 C 0.83592 0.59357 0.09303 0.0
C1229 C 0.82769 0.57121 0.18377 0.0
C1230 C 0.83079 0.5519 0.20204 0.0
C1231 C 0.82217 0.5899 0.2031 0.0
C1232 C 0.81979 0.61116 0.18647 0.0
C1233 C 0.79941 0.62069 0.18388 0.0
C1234 C 0.79717 0.64083 0.16828 0.0
C1235 C 0.81525 0.65159 0.15544 0.0
C1236 C 0.83562 0.64231 0.15838 0.0
C1237 C 0.83794 0.62221 0.17407 0.0
H1238 H 0.81347 0.66716 0.14332 0.0
H1239 H 0.85312 0.47891 0.30644 0.0
H1240 H 0.47767 0.2935 0.55104 0.0
H1241 H 0.46263 0.27835 0.60481 0.0
H1242 H 0.51092 0.31087 0.66576 0.0
H1243 H 0.52739 0.32401 0.61099 0.0
H1244 H 0.50344 0.28287 0.70562 0.0
H1245 H 0.44574 0.32223 0.65412 0.0
H1246 H 0.41974 0.33353 0.60891 0.0
H1247 H 0.39488 0.26949 0.60334 0.0
H1248 H 0.42089 0.25778 0.64827 0.0
H1249 H 0.43879 0.27289 0.86598 0.0
H1250 H 0.45445 0.28647 0.81097 0.0
H1251 H 0.43066 0.23129 0.75566 0.0
H1252 H 0.41548 0.2173 0.81101 0.0
H1253 H 0.42491 0.27134 0.71538 0.0
H1254 H 0.4835 0.2353 0.77515 0.0
H1255 H 0.5037 0.23053 0.83026 0.0
H1256 H 0.52325 0.29642 0.82716 0.0
H1257 H 0.5029 0.30166 0.7722 0.0
C1258 C 0.48524 0.29749 0.57581 0.0
C1259 C 0.50398 0.31035 0.57556 0.0
C1260 C 0.47619 0.28899 0.60749 0.0
C1261 C 0.48443 0.29377 0.64156 0.0
C1262 C 0.50344 0.3065 0.64112 0.0
C1263 C 0.51304 0.31429 0.60917 0.0
C1264 C 0.47368 0.28548 0.67675 0.0
C1265 C 0.4862 0.28072 0.70707 0.0
C1266 C 0.45096 0.28218 0.68129 0.0
C1267 C 0.4354 0.2891 0.65423 0.0
C1268 C 0.4348 0.31055 0.64309 0.0
C1269 C 0.42006 0.31702 0.61754 0.0
C1270 C 0.40571 0.30222 0.60319 0.0
C1271 C 0.40603 0.28093 0.61443 0.0
C1272 C 0.42075 0.27437 0.63995 0.0
C1273 C 0.43681 0.26344 0.84229 0.0
C1274 C 0.42562 0.24366 0.84412 0.0
C1275 C 0.44594 0.27137 0.81027 0.0
C1276 C 0.44417 0.26022 0.77783 0.0
C1277 C 0.43265 0.24063 0.77944 0.0
C1278 C 0.42388 0.23246 0.81168 0.0
C1279 C 0.45472 0.26864 0.74309 0.0
C1280 C 0.44215 0.27352 0.71327 0.0
C1281 C 0.47718 0.27272 0.73943 0.0
C1282 C 0.49157 0.2689 0.76972 0.0
C1283 C 0.49222 0.24874 0.78611 0.0
C1284 C 0.50353 0.246 0.81747 0.0
C1285 C 0.51444 0.26326 0.8325 0.0
C1286 C 0.51459 0.28313 0.81566 0.0
C1287 C 0.50323 0.28597 0.78433 0.0
H1288 H 0.523 0.26117 0.857 0.0
H1289 H 0.39432 0.30726 0.58341 0.0
H1290 H 0.47365 0.67974 0.60887 0.0
H1291 H 0.45942 0.69425 0.5544 0.0
H1292 H 0.51227 0.66628 0.49682 0.0
H1293 H 0.52744 0.65311 0.55246 0.0
H1294 H 0.50413 0.69443 0.45698 0.0
H1295 H 0.4491 0.65025 0.50156 0.0
H1296 H 0.42264 0.63521 0.54315 0.0
H1297 H 0.39033 0.69596 0.54891 0.0
H1298 H 0.41669 0.71142 0.50757 0.0
H1299 H 0.4239 0.70089 0.30342 0.0
H1300 H 0.43938 0.68627 0.35792 0.0
H1301 H 0.44884 0.75017 0.39703 0.0
H1302 H 0.43417 0.76491 0.34204 0.0
H1303 H 0.42544 0.70168 0.44183 0.0
H1304 H 0.4874 0.74135 0.38635 0.0
H1305 H 0.50906 0.74501 0.33235 0.0
H1306 H 0.52501 0.67813 0.33614 0.0
H1307 H 0.50294 0.67398 0.38977 0.0
C1308 C 0.48243 0.67653 0.58477 0.0
C1309 C 0.50196 0.6648 0.58639 0.0
C1310 C 0.47389 0.68474 0.55259 0.0
C1311 C 0.48375 0.68118 0.51917 0.0
C1312 C 0.50356 0.66968 0.52089 0.0
C1313 C 0.51244 0.66189 0.5534 0.0
C1314 C 0.47371 0.68951 0.48345 0.0
C1315 C 0.48686 0.69589 0.45451 0.0
C1316 C 0.45098 0.69125 0.47708 0.0
C1317 C 0.43509 0.68208 0.50191 0.0
C1318 C 0.43644 0.66044 0.51189 0.0
C1319 C 0.42144 0.65183 0.53538 0.0
C1320 C 0.40488 0.66465 0.54879 0.0
C1321 C 0.40322 0.68607 0.5386 0.0
C1322 C 0.41818 0.69477 0.51514 0.0
C1323 C 0.42932 0.71203 0.32337 0.0
C1324 C 0.42758 0.73442 0.31704 0.0
C1325 C 0.4383 0.70349 0.35508 0.0
C1326 C 0.44585 0.71676 0.3827 0.0
C1327 C 0.44367 0.73911 0.3768 0.0
C1328 C 0.4351 0.74768 0.3448 0.0
C1329 C 0.45588 0.70747 0.41716 0.0
C1330 C 0.44269 0.70052 0.44524 0.0
C1331 C 0.47838 0.70418 0.42197 0.0
C1332 C 0.4932 0.7073 0.39181 0.0
C1333 C 0.49526 0.72736 0.37545 0.0
C1334 C 0.50761 0.72953 0.34488 0.0
C1335 C 0.5181 0.71173 0.33047 0.0
C1336 C 0.51669 0.69186 0.34713 0.0
C1337 C 0.50431 0.68962 0.37769 0.0
H1338 H 0.52755 0.7134 0.30667 0.0
H1339 H 0.39328 0.65796 0.56697 0.0
H1340 H 0.07373 0.70499 0.35489 0.0
H1341 H 0.05795 0.68957 0.30178 0.0
H1342 H 0.0572 0.75188 0.25355 0.0
H1343 H 0.07171 0.76754 0.30797 0.0
H1344 H 0.02634 0.73542 0.22435 0.0
H1345 H 0.09489 0.70263 0.23288 0.0
H1346 H 0.12503 0.68274 0.25938 0.0
H1347 H 0.08449 0.62779 0.27313 0.0
H1348 H 0.05404 0.64745 0.24706 0.0
H1349 H 0.03363 0.65469 1.06045 0.0
H1350 H 0.04862 0.66984 0.11466 0.0
H1351 H 0.98483 0.68551 0.15049 0.0
H1352 H 0.96981 0.67072 0.09588 0.0
H1353 H 0.04988 0.66392 0.1823 0.0
H1354 H 0.98168 0.72375 0.20124 0.0
H1355 H 0.95586 0.74167 0.16185 0.0
H1356 H 0.00371 0.7441 0.08019 0.0
H1357 H 0.02984 0.72652 0.11932 0.0
C1358 C 0.07037 0.71559 0.33308 0.0
C1359 C 0.07453 0.73782 0.33682 0.0
C1360 C 0.06136 0.70655 0.30179 0.0
C1361 C 0.05652 0.71894 0.27142 0.0
C1362 C 0.06056 0.74126 0.27531 0.0
C1363 C 0.06912 0.75041 0.30702 0.0
C1364 C 0.04725 0.70882 0.23657 0.0
C1365 C 0.03147 0.71961 0.21611 0.0
C1366 C 0.05394 0.68845 0.22264 0.0
C1367 C 0.07214 0.67659 0.23838 0.0
C1368 C 0.09238 0.68635 0.24176 0.0
C1369 C 0.10952 0.67511 0.25668 0.0
C1370 C 0.10666 0.65404 0.26803 0.0
C1371 C 0.08667 0.64413 0.26439 0.0
C1372 C 0.06947 0.65531 0.24953 0.0
C1373 C 0.02258 0.66137 0.07965 0.0
C1374 C 0.00016 0.66126 1.07248 0.0
C1375 C 0.03135 0.67012 0.11133 0.0
C1376 C 0.01835 0.67955 0.13793 0.0
C1377 C -0.00413 0.67912 0.13105 0.0
C1378 C 0.98706 0.67033 0.09932 0.0
C1379 C 0.0282 0.68994 0.1719 0.0
C1380 C 0.04433 0.67941 0.1916 0.0
C1381 C 0.02235 0.71072 0.18456 0.0
C1382 C 0.0077 0.72402 0.16328 0.0
C1383 C 0.98684 0.72867 0.17527 0.0
C1384 C 0.97208 0.73851 0.1528 0.0
C1385 C 0.97812 0.74383 0.11843 0.0
C1386 C -0.00097 0.73982 0.10672 0.0
C1387 C 0.01383 0.73004 0.12906 0.0
H1388 H 0.96671 0.75113 0.10077 0.0
H1389 H 0.11995 0.64536 0.27957 0.0
H1390 H 0.05622 0.26962 0.79382 0.0
H1391 H 0.04155 0.28275 0.8501 0.0
H1392 H 0.07823 0.23507 0.90511 0.0
H1393 H 0.092 0.22121 0.84872 0.0
H1394 H 0.01637 0.26972 0.9021 0.0
H1395 H 0.08891 0.25288 0.99383 0.0
H1396 H 0.12834 0.24965 0.98999 0.0
H1397 H 0.1287 0.28863 0.89707 0.0
H1398 H 0.08931 0.29229 0.90055 0.0
H1399 H 0.97882 0.28854 0.08031 0.0
H1400 H -0.00645 0.27395 1.02534 0.0
H1401 H 0.04687 0.31755 1.03216 0.0
H1402 H 0.03257 0.33147 0.08809 0.0
H1403 H 0.06366 0.2858 1.00326 0.0
H1404 H -0.00206 0.31993 0.96592 0.0
H1405 H 0.95888 0.32704 0.96733 0.0
H1406 H 0.94631 0.26035 0.94869 0.0
H1407 H 0.98532 0.25302 0.9474 0.0
C1408 C 0.06113 0.26166 0.81776 0.0
C1409 C 0.07551 0.244 0.81551 0.0
C1410 C 0.05253 0.26928 0.85055 0.0
C1411 C 0.05829 0.26024 0.88346 0.0
C1412 C 0.07291 0.24273 0.8812 0.0
C1413 C 0.08098 0.23465 0.84831 0.0
C1414 C 0.04926 0.26919 0.91931 0.0
C1415 C 0.02695 0.27304 0.92403 0.0
C1416 C 0.06233 0.27431 0.94913 0.0
C1417 C 0.08606 0.27244 0.94703 0.0
C1418 C 0.09738 0.26071 0.97251 0.0
C1419 C 0.11974 0.25884 0.97043 0.0
C1420 C 0.13101 0.26881 0.94316 0.0
C1421 C 0.11994 0.28079 0.91804 0.0
C1422 C 0.09759 0.28272 0.92002 0.0
C1423 C -0.00634 0.29524 1.0703 0.0
C1424 C 0.00408 0.31163 0.08978 0.0
C1425 C 0.00218 0.28687 1.03793 0.0
C1426 C 0.0215 0.29461 1.02234 0.0
C1427 C 0.03203 0.31083 1.04213 0.0
C1428 C 0.02363 0.31904 1.07471 0.0
C1429 C 0.0307 0.28593 0.98632 0.0
C1430 C 0.05306 0.28227 0.98145 0.0
C1431 C 0.01776 0.28131 0.95615 0.0
C1432 C -0.00556 0.28587 0.95657 0.0
C1433 C 0.98681 0.30681 0.96214 0.0
C1434 C 0.9647 0.3109 0.96293 0.0
C1435 C 0.95011 0.29416 0.95807 0.0
C1436 C 0.9576 0.27332 0.95236 0.0
C1437 C 0.97968 0.2692 0.95148 0.0
H1438 H 0.93301 0.29734 0.95874 0.0
H1439 H 0.14832 0.26733 0.94159 0.0
H1440 H 0.97701 0.26263 0.26334 0.0
H1441 H -0.00554 0.25094 0.31755 0.0
H1442 H 0.02717 0.31191 0.32401 0.0
H1443 H 0.01413 0.32075 0.26662 0.0
H1444 H 0.05739 0.29308 0.33308 0.0
H1445 H 0.03215 0.26131 0.41835 0.0
H1446 H 0.01572 0.24381 0.46976 0.0
H1447 H 0.98651 0.19692 0.40246 0.0
H1448 H 0.00319 0.21376 0.35066 0.0
H1449 H 0.01327 0.22107 0.20639 0.0
H1450 H 0.02259 0.24722 0.25209 0.0
H1451 H 0.08174 0.21343 0.27222 0.0
H1452 H 0.07374 0.18882 0.22422 0.0
H1453 H 0.03814 0.21698 0.32622 0.0
H1454 H 0.0568 0.3031 0.27033 0.0
H1455 H 0.081 0.31943 0.22678 0.0
H1456 H 0.12274 0.26477 0.23181 0.0
H1457 H 0.09901 0.24811 0.27562 0.0
C1458 C 0.98821 0.27327 0.27633 0.0
C1459 C -0.0051 0.29216 0.25982 0.0
C1460 C -0.00207 0.26687 0.30803 0.0
C1461 C 0.01388 0.27979 0.32422 0.0
C1462 C 0.01635 0.30074 0.31138 0.0
C1463 C 0.00863 0.30599 0.27826 0.0
C1464 C 0.03244 0.2699 0.344 0.0
C1465 C 0.05247 0.27653 0.33027 0.0
C1466 C 0.03131 0.2477 0.35054 0.0
C1467 C 0.01893 0.23892 0.38053 0.0
C1468 C 0.02194 0.24748 0.41439 0.0
C1469 C 0.01275 0.23752 0.44367 0.0
C1470 C 0.0 0.2193 0.43936 0.0
C1471 C -0.00359 0.21102 0.40575 0.0
C1472 C 0.0059 0.22067 0.37644 0.0
C1473 C 0.02874 0.22004 0.21927 0.0
C1474 C 0.04283 0.2032 0.21186 0.0
C1475 C 0.03408 0.23486 0.24527 0.0
C1476 C 0.05294 0.23225 0.26509 0.0
C1477 C 0.06752 0.21608 0.25646 0.0
C1478 C 0.06275 0.20197 0.22924 0.0
C1479 C 0.05403 0.24292 0.29928 0.0
C1480 C 0.04142 0.23403 0.3262 0.0
C1481 C 0.06137 0.2642 0.3028 0.0
C1482 C 0.07596 0.27423 0.2765 0.0
C1483 C 0.07119 0.29455 0.26247 0.0
C1484 C 0.08484 0.3039 0.23761 0.0
C1485 C 0.1034 0.29318 0.22657 0.0
C1486 C 0.10833 0.27305 0.24033 0.0
C1487 C 0.09471 0.2636 0.26514 0.0
H1488 H 0.11395 0.30046 0.20734 0.0
H1489 H -0.00706 0.21156 0.46203 0.0
H1490 H 0.9313 0.75139 0.54265 0.0
H1491 H 0.95479 0.75063 0.59365 0.0
H1492 H 0.00082 0.71303 0.5344 0.0
H1493 H 0.97635 0.71215 0.48422 0.0
H1494 H 0.00258 0.70121 0.60227 0.0
H1495 H -0.00558 0.77047 0.53992 0.0
H1496 H 0.97947 0.80557 0.52374 0.0
H1497 H 0.97496 0.82296 0.63278 0.0
H1498 H 0.9899 0.78793 0.64977 0.0
H1499 H 0.06007 0.71862 0.49448 0.0
H1500 H 0.05501 0.71297 0.55667 0.0
H1501 H 0.03782 0.78009 0.56846 0.0
H1502 H 0.04219 0.78505 0.50677 0.0
H1503 H 0.03041 0.7731 0.62564 0.0
H1504 H 0.06806 0.72496 0.64997 0.0
H1505 H 0.09283 0.69664 0.66844 0.0
H1506 H 0.05401 0.6494 0.61696 0.0
H1507 H 0.02872 0.67717 0.59833 0.0
C1508 C 0.94647 0.74295 0.54042 0.0
C1509 C 0.95237 0.73229 0.50903 0.0
C1510 C 0.95971 0.74231 0.56987 0.0
C1511 C 0.97961 0.73194 0.56792 0.0
C1512 C 0.98537 0.72096 0.53677 0.0
C1513 C 0.97169 0.72085 0.50775 0.0
C1514 C -0.00401 0.73497 0.59553 0.0
C1515 C 0.00896 0.71724 0.60474 0.0
C1516 C 0.00305 0.75578 0.60611 0.0
C1517 C 0.9922 0.77605 0.59625 0.0
C1518 C 0.98963 0.7815 0.56057 0.0
C1519 C 0.98142 0.80151 0.55122 0.0
C1520 C 0.97615 0.81645 0.57726 0.0
C1521 C 0.97892 0.81132 0.61271 0.0
C1522 C 0.98712 0.79131 0.62224 0.0
C1523 C 0.05478 0.73201 0.51048 0.0
C1524 C 0.05155 0.75229 0.4955 0.0
C1525 C 0.05219 0.72889 0.54666 0.0
C1526 C 0.04568 0.74587 0.569 0.0
C1527 C 0.04242 0.76615 0.55326 0.0
C1528 C 0.04463 0.7691 0.51722 0.0
C1529 C 0.03832 0.74177 0.6065 0.0
C1530 C 0.02409 0.75742 0.61917 0.0
C1531 C 0.03079 0.72085 0.61285 0.0
C1532 C 0.04599 0.70346 0.6232 0.0
C1533 C 0.06461 0.70858 0.6425 0.0
C1534 C 0.07886 0.69253 0.65302 0.0
C1535 C 0.07504 0.67123 0.64385 0.0
C1536 C 0.05687 0.66592 0.62426 0.0
C1537 C 0.04239 0.68186 0.614 0.0
H1538 H 0.08618 0.65885 0.65188 0.0
H1539 H 0.9701 0.83207 0.56994 0.0
H1540 H 0.49103 0.70352 0.74573 0.0
H1541 H 0.49074 0.72356 0.80021 0.0
H1542 H 0.55825 0.70984 0.81458 0.0
H1543 H 0.55874 0.69074 0.75868 0.0
H1544 H 0.5558 0.74494 0.8394 0.0
H1545 H 0.46036 0.73101 0.8555 0.0
H1546 H 0.4377 0.70188 0.87793 0.0
H1547 H 0.4933 0.66976 0.91843 0.0
H1548 H 0.51656 0.69878 0.89636 0.0
H1549 H 0.52019 0.78873 0.72898 0.0
H1550 H 0.533 0.77976 0.786 0.0
H1551 H 0.46746 0.77791 0.82545 0.0
H1552 H 0.45475 0.78587 0.76681 0.0
H1553 H 0.48085 0.76018 0.8728 0.0
H1554 H 0.52366 0.80916 0.87749 0.0
H1555 H 0.54581 0.84153 0.87279 0.0
H1556 H 0.59475 0.80595 0.8183 0.0
H1557 H 0.57311 0.77346 0.82187 0.0
C1558 C 0.50591 0.70513 0.76021 0.0
C1559 C 0.52492 0.69579 0.74757 0.0
C1560 C 0.50566 0.71603 0.79225 0.0
C1561 C 0.52433 0.71751 0.81314 0.0
C1562 C 0.54352 0.70871 0.79984 0.0
C1563 C 0.54387 0.69815 0.76731 0.0
C1564 C 0.52412 0.7314 0.84522 0.0
C1565 C 0.53934 0.74811 0.84651 0.0
C1566 C 0.50426 0.73519 0.86259 0.0
C1567 C 0.49031 0.71724 0.87433 0.0
C1568 C 0.46788 0.71785 0.86932 0.0
C1569 C 0.45491 0.70124 0.88174 0.0
C1570 C 0.4641 0.68387 0.89918 0.0
C1571 C 0.48629 0.6831 0.9044 0.0
C1572 C 0.4994 0.69959 0.8918 0.0
C1573 C 0.50848 0.78612 0.74971 0.0
C1574 C 0.48649 0.78832 0.74329 0.0
C1575 C 0.51585 0.78158 0.78333 0.0
C1576 C 0.50148 0.77912 0.81204 0.0
C1577 C 0.47928 0.7801 0.80484 0.0
C1578 C 0.47191 0.78437 0.77087 0.0
C1579 C 0.50952 0.77218 0.84757 0.0
C1580 C 0.49707 0.75651 0.86439 0.0
C1581 C 0.53194 0.76935 0.85091 0.0
C1582 C 0.54644 0.78845 0.85019 0.0
C1583 C 0.53914 0.80806 0.86449 0.0
C1584 C 0.55166 0.82656 0.86191 0.0
C1585 C 0.5716 0.82581 0.84504 0.0
C1586 C 0.57926 0.80648 0.83134 0.0
C1587 C 0.56687 0.78789 0.8339 0.0
H1588 H 0.5811 0.84021 0.84247 0.0
H1589 H 0.45402 0.671 0.90867 0.0
H1590 H 0.572 0.20496 0.99666 0.0
H1591 H 0.56431 0.19156 1.05477 0.0
H1592 H 0.53359 0.25199 0.08092 0.0
H1593 H 0.54201 0.26524 1.02295 0.0
H1594 H 0.54306 0.17602 0.09738 0.0
H1595 H 0.54745 0.21383 0.18026 0.0
H1596 H 0.5546 0.23752 0.23078 0.0
H1597 H 0.51751 0.28755 0.18287 0.0
H1598 H 0.51004 0.2642 0.13211 0.0
H1599 H 0.43709 0.23823 1.04125 0.0
H1600 H 0.45848 0.22676 0.0905 0.0
H1601 H 0.49997 0.1915 1.01914 0.0
H1602 H 0.47635 0.20044 0.97044 0.0
H1603 H 0.48965 0.23278 0.11833 0.0
H1604 H 0.53304 0.1563 1.04818 0.0
H1605 H 0.52058 0.12145 1.02614 0.0
H1606 H 0.45849 0.13232 1.07257 0.0
H1607 H 0.47064 0.16711 0.0955 0.0
C1608 C 0.56365 0.21542 1.01488 0.0
C1609 C 0.55759 0.23625 1.00496 0.0
C1610 C 0.55932 0.20773 1.04866 0.0
C1611 C 0.54781 0.22023 1.07338 0.0
C1612 C 0.54227 0.24139 1.0634 0.0
C1613 C 0.54685 0.24911 1.02967 0.0
C1614 C 0.538 0.20988 0.10566 0.0
C1615 C 0.53125 0.18869 0.09965 0.0
C1616 C 0.52242 0.22217 0.12369 0.0
C1617 C 0.5283 0.23723 0.1522 0.0
C1618 C 0.541 0.22996 0.18027 0.0
C1619 C 0.54492 0.24328 0.20916 0.0
C1620 C 0.53642 0.264 0.21006 0.0
C1621 C 0.52406 0.27149 0.1821 0.0
C1622 C 0.51988 0.25816 0.15334 0.0
C1623 C 0.45078 0.22795 1.036 0.0
C1624 C 0.45513 0.22026 1.00185 0.0
C1625 C 0.463 0.22125 1.06448 0.0
C1626 C 0.48076 0.20773 1.0593 0.0
C1627 C 0.48576 0.20095 1.02471 0.0
C1628 C 0.47272 0.20666 0.99644 0.0
C1629 C 0.49608 0.20361 0.08842 0.0
C1630 C 0.50124 0.2205 0.11159 0.0
C1631 C 0.51003 0.18556 0.08784 0.0
C1632 C 0.50288 0.16437 1.07415 0.0
C1633 C 0.51684 0.1512 1.05435 0.0
C1634 C 0.50978 0.13145 1.04145 0.0
C1635 C 0.48879 0.12463 1.04806 0.0
C1636 C 0.47478 0.13758 1.06752 0.0
C1637 C 0.48175 0.15733 0.08048 0.0
H1638 H 0.48336 0.10934 1.038 0.0
H1639 H 0.53937 0.27427 0.23246 0.0
H1640 H 0.0243 0.76681 0.90647 0.0
H1641 H 0.01698 0.75244 0.84811 0.0
H1642 H 0.9746 0.80589 0.82735 0.0
H1643 H 0.97999 0.81854 0.88695 0.0
H1644 H 0.95304 0.77807 0.80804 0.0
H1645 H 0.00263 0.73039 0.72344 0.0
H1646 H 0.03445 0.7325 0.68548 0.0
H1647 H 0.06674 0.77053 0.76291 0.0
H1648 H 0.03466 0.77026 0.80021 0.0
H1649 H 0.94001 0.68695 0.90782 0.0
H1650 H 0.93699 0.70404 0.85123 0.0
H1651 H 0.00514 0.71776 0.85331 0.0
H1652 H 0.00823 0.6992 0.90854 0.0
H1653 H -0.00255 0.7138 0.78893 0.0
H1654 H 0.93618 0.76411 0.86981 0.0
H1655 H 0.89821 0.762 0.88864 0.0
H1656 H 0.88475 0.71917 0.80286 0.0
H1657 H 0.92261 0.7211 0.78366 0.0
C1658 C 0.01308 0.77513 0.88958 0.0
C1659 C 0.00196 0.79317 0.90191 0.0
C1660 C 0.00922 0.76725 0.85567 0.0
C1661 C -0.00505 0.77784 0.83258 0.0
C1662 C 0.98541 0.79703 0.84424 0.0
C1663 C 0.98825 0.80412 0.87874 0.0
C1664 C 0.98556 0.76627 0.80168 0.0
C1665 C 0.96313 0.76405 0.80458 0.0
C1666 C -0.00359 0.7483 0.78729 0.0
C1667 C 0.01595 0.75015 0.76497 0.0
C1668 C 0.01638 0.73952 0.73228 0.0
C1669 C 0.03448 0.74062 0.71057 0.0
C1670 C 0.05259 0.75191 0.72146 0.0
C1671 C 0.05253 0.76222 0.75411 0.0
C1672 C 0.0342 0.76176 0.77552 0.0
C1673 C 0.95421 0.69437 0.89671 0.0
C1674 C 0.97433 0.6923 0.9132 0.0
C1675 C 0.95245 0.70417 0.86387 0.0
C1676 C 0.97059 0.71303 0.8474 0.0
C1677 C 0.99061 0.71129 0.86466 0.0
C1678 C 0.99245 0.70101 0.89693 0.0
C1679 C 0.96909 0.72632 0.81483 0.0
C1680 C 0.98776 0.72793 0.79406 0.0
C1681 C 0.95477 0.74397 0.8137 0.0
C1682 C 0.93217 0.74263 0.82545 0.0
C1683 C 0.92508 0.75428 0.855 0.0
C1684 C 0.9036 0.75309 0.86576 0.0
C1685 C 0.88908 0.74043 0.847 0.0
C1686 C 0.89601 0.72895 0.8174 0.0
C1687 C 0.91746 0.73009 0.80656 0.0
H1688 H 0.87247 0.73952 0.85537 0.0
H1689 H 0.0667 0.75256 0.70475 0.0
H1690 H 0.53354 0.7525 0.17101 0.0
H1691 H 0.51378 0.75611 0.11631 0.0
H1692 H 0.53146 0.6914 0.08752 0.0
H1693 H 0.54946 0.6872 0.1437 0.0
H1694 H 0.49752 0.69416 1.06101 0.0
H1695 H 0.50493 0.79114 1.05716 0.0
H1696 H 0.53473 0.81676 1.053 0.0
H1697 H 0.57887 0.76536 1.03186 0.0
H1698 H 0.5493 0.73933 1.03523 0.0
H1699 H 0.43824 0.71503 0.14873 0.0
H1700 H 0.44735 0.7102 0.08762 0.0
H1701 H 0.46837 0.77635 0.08257 0.0
H1702 H 0.4593 0.78079 0.1439 0.0
H1703 H 0.48249 0.76838 1.02566 0.0
H1704 H 0.4847 0.67573 1.01414 0.0
H1705 H 0.46126 0.65157 0.98134 0.0
H1706 H 0.41089 0.69853 0.98294 0.0
H1707 H 0.4335 0.72284 1.01708 0.0
C1708 C 0.53256 0.73886 0.15339 0.0
C1709 C 0.54273 0.71952 0.16177 0.0
C1710 C 0.52192 0.74111 0.12144 0.0
C1711 C 0.5219 0.72432 0.09653 0.0
C1712 C 0.53134 0.70469 0.10569 0.0
C1713 C 0.54136 0.7022 0.13822 0.0
C1714 C 0.50952 0.72681 1.06343 0.0
C1715 C 0.49493 0.71061 1.05352 0.0
C1716 C 0.50687 0.74731 1.04771 0.0
C1717 C 0.52472 0.76314 1.04627 0.0
C1718 C 0.52089 0.78519 1.05125 0.0
C1719 C 0.53781 0.79984 1.04923 0.0
C1720 C 0.55868 0.7927 1.04226 0.0
C1721 C 0.56271 0.77088 1.03741 0.0
C1722 C 0.54586 0.75615 1.03946 0.0
C1723 C 0.44537 0.72838 0.13481 0.0
C1724 C 0.44877 0.74807 0.15182 0.0
C1725 C 0.45027 0.72578 0.09915 0.0
C1726 C 0.45939 0.74262 0.07928 0.0
C1727 C 0.46203 0.7626 0.09637 0.0
C1728 C 0.45714 0.76514 0.13206 0.0
C1729 C 0.46949 0.73831 1.04355 0.0
C1730 C 0.48624 0.75242 1.0349 0.0
C1731 C 0.47543 0.71675 1.03777 0.0
C1732 C 0.46097 0.70131 1.01928 0.0
C1733 C 0.46849 0.68095 1.0086 0.0
C1734 C 0.45527 0.66711 0.98948 0.0
C1735 C 0.43454 0.67344 0.98023 0.0
C1736 C 0.42693 0.69359 0.99023 0.0
C1737 C 0.43994 0.70738 1.00974 0.0
H1738 H 0.42443 0.66277 0.96513 0.0
H1739 H 0.57168 0.80413 1.04036 0.0
H1740 H 0.51805 0.20343 0.42519 0.0
H1741 H 0.52469 0.22224 0.37071 0.0
H1742 H 0.46062 0.20692 0.33496 0.0
H1743 H 0.45335 0.1897 0.39128 0.0
H1744 H 0.46637 0.23999 0.30589 0.0
H1745 H 0.56042 0.22622 0.32976 0.0
H1746 H 0.58493 0.1952 0.32666 0.0
H1747 H 0.53761 0.15945 0.26954 0.0
H1748 H 0.51266 0.19018 0.27264 0.0
H1749 H 0.48727 0.29458 0.40982 0.0
H1750 H 0.48297 0.28558 0.3489 0.0
H1751 H 0.55093 0.27024 0.34184 0.0
H1752 H 0.55477 0.27892 0.40329 0.0
H1753 H 0.54397 0.25275 0.29088 0.0
H1754 H 0.50444 0.2949 0.25001 0.0
H1755 H 0.48224 0.3227 0.22239 0.0
H1756 H 0.42617 0.29828 0.27439 0.0
H1757 H 0.44784 0.27059 0.30305 0.0
C1758 C 0.50526 0.20443 0.406 0.0
C1759 C 0.48528 0.195 0.41254 0.0
C1760 C 0.50925 0.21455 0.37408 0.0
C1761 C 0.49365 0.21485 0.34722 0.0
C1762 C 0.47321 0.20647 0.35454 0.0
C1763 C 0.46897 0.1969 0.38709 0.0
C1764 C 0.49816 0.22682 0.3142 0.0
C1765 C 0.48345 0.24274 0.30367 0.0
C1766 C 0.5197 0.22905 0.30245 0.0
C1767 C 0.53464 0.21052 0.30134 0.0
C1768 C 0.55522 0.21178 0.31643 0.0
C1769 C 0.56914 0.1942 0.31491 0.0
C1770 C 0.5629 0.17549 0.29759 0.0
C1771 C 0.54245 0.17402 0.28277 0.0
C1772 C 0.52832 0.19142 0.28475 0.0
C1773 C 0.50117 0.28875 0.39546 0.0
C1774 C 0.52122 0.28695 0.4119 0.0
C1775 C 0.49889 0.28395 0.3598 0.0
C1776 C 0.51651 0.27666 0.33931 0.0
C1777 C 0.53669 0.27526 0.35604 0.0
C1778 C 0.5389 0.27996 0.39178 0.0
C1779 C 0.51313 0.26697 0.30327 0.0
C1780 C 0.52702 0.24986 0.29531 0.0
C1781 C 0.49157 0.26295 0.29389 0.0
C1782 C 0.47799 0.28024 0.27854 0.0
C1783 C 0.48742 0.29545 0.25594 0.0
C1784 C 0.47487 0.31122 0.23993 0.0
C1785 C 0.45279 0.31208 0.24629 0.0
C1786 C 0.44326 0.29739 0.26912 0.0
C1787 C 0.45571 0.28154 0.28519 0.0
H1788 H 0.44309 0.32424 0.2337 0.0
H1789 H 0.574 0.16222 0.29536 0.0
H1790 H 0.02239 0.20853 0.6967 0.0
H1791 H -0.00377 0.19841 0.65226 0.0
H1792 H 0.03747 0.22417 0.57083 0.0
H1793 H 0.06215 0.2367 0.61582 0.0
H1794 H 0.004 0.22905 0.54491 0.0
H1795 H 0.02754 0.16791 0.58607 0.0
H1796 H 0.04126 0.13659 0.61773 0.0
H1797 H 0.97874 0.1254 0.66199 0.0
H1798 H 0.96457 0.15691 0.63147 0.0
H1799 H 0.93683 0.20914 0.683 0.0
H1800 H 0.93991 0.19046 0.62837 0.0
H1801 H 0.95635 0.25015 0.57659 0.0
H1802 H 0.95171 0.26896 0.63181 0.0
H1803 H 0.95396 0.17224 0.57987 0.0
H1804 H 0.987 0.25486 0.51625 0.0
H1805 H 0.9751 0.27266 0.4628 0.0
H1806 H 0.92367 0.22764 0.45135 0.0
H1807 H 0.93625 0.20816 0.50347 0.0
C1808 C 0.0255 0.21247 0.6694 0.0
C1809 C 0.04416 0.22338 0.65969 0.0
C1810 C 0.01091 0.20614 0.64375 0.0
C1811 C 0.01533 0.20949 0.60772 0.0
C1812 C 0.0337 0.22108 0.59819 0.0
C1813 C 0.04775 0.22836 0.62404 0.0
C1814 C -0.00051 0.20255 0.58101 0.0
C1815 C -0.00701 0.21709 0.55466 0.0
C1816 C 0.98653 0.18413 0.58671 0.0
C1817 C -0.00518 0.16493 0.60578 0.0
C1818 C 0.01663 0.15895 0.6027 0.0
C1819 C 0.02453 0.14107 0.62051 0.0
C1820 C 0.01087 0.12895 0.64176 0.0
C1821 C 0.98928 0.13473 0.6453 0.0
C1822 C 0.98126 0.15261 0.62754 0.0
C1823 C 0.941 0.21838 0.65995 0.0
C1824 C 0.94406 0.24065 0.662 0.0
C1825 C 0.94268 0.20755 0.62809 0.0
C1826 C 0.94907 0.21826 0.5972 0.0
C1827 C 0.95181 0.2408 0.59931 0.0
C1828 C 0.94958 0.25175 0.63131 0.0
C1829 C 0.95717 0.20552 0.5659 0.0
C1830 C 0.96512 0.18516 0.57482 0.0
C1831 C 0.97135 0.21679 0.5438 0.0
C1832 C 0.96296 0.22962 0.51388 0.0
C1833 C 0.97335 0.24836 0.50238 0.0
C1834 C 0.9664 0.25886 0.47211 0.0
C1835 C 0.94858 0.2514 0.45363 0.0
C1836 C 0.93756 0.23337 0.46555 0.0
C1837 C 0.94471 0.22248 0.4954 0.0
H1838 H 0.94333 0.25958 0.43011 0.0
H1839 H 0.01702 0.11511 0.65555 0.0
H1840 H 0.00166 0.06348 0.17513 0.0
H1841 H 0.00074 0.02741 0.14866 0.0
H1842 H 0.05563 0.04323 0.08439 0.0
H1843 H 0.05625 0.07901 0.10988 0.0
H1844 H 0.03183 0.02229 1.04454 0.0
H1845 H 0.05573 0.0071 0.16136 0.0
H1846 H 0.05419 0.00705 0.22624 0.0
H1847 H -0.00534 0.97244 0.22318 0.0
H1848 H -0.00427 0.97251 0.15824 0.0
H1849 H 0.04985 0.89553 1.04905 0.0
H1850 H 0.05061 0.93077 1.07816 0.0
H1851 H 0.00465 0.95466 1.00334 0.0
H1852 H 0.00432 0.91987 0.97384 0.0
H1853 H 0.02498 0.95538 0.11344 0.0
H1854 H 0.00741 0.00795 0.99155 0.0
H1855 H 0.01421 0.00797 0.92752 0.0
H1856 H 0.06958 0.96785 0.94214 0.0
H1857 H 0.06323 0.96779 1.00627 0.0
C1858 C 0.01362 0.05927 0.15552 0.0
C1859 C 0.02902 0.07461 0.145 0.0
C1860 C 0.01316 0.03839 0.14029 0.0
C1861 C 0.02823 0.03191 0.11418 0.0
C1862 C 0.04361 0.04728 0.10402 0.0
C1863 C 0.044 0.06802 0.11899 0.0
C1864 C 0.02803 0.0096 0.09683 0.0
C1865 C 0.03019 0.00777 1.05991 0.0
C1866 C 0.0264 0.99007 0.116 0.0
C1867 C 0.02569 0.99002 0.15497 0.0
C1868 C 0.04223 -0.00038 0.17454 0.0
C1869 C 0.04146 -0.00044 0.21131 0.0
C1870 C 0.02431 0.9898 0.22882 0.0
C1871 C 0.00792 0.98003 0.20958 0.0
C1872 C 0.00861 0.98006 0.17279 0.0
C1873 C 0.04006 0.90832 1.03847 0.0
C1874 C 0.02722 0.9045 1.00847 0.0
C1875 C 0.04038 0.92864 1.05544 0.0
C1876 C 0.02793 0.94608 1.04316 0.0
C1877 C 0.01494 0.94211 1.01342 0.0
C1878 C 0.01469 0.9219 0.9964 0.0
C1879 C 0.02844 0.96817 1.06117 0.0
C1880 C 0.02641 0.96994 0.09813 0.0
C1881 C 0.03069 0.98768 1.04214 0.0
C1882 C 0.0347 0.98769 1.00365 0.0
C1883 C 0.02106 -0.00081 0.9811 0.0
C1884 C 0.02483 -0.00081 0.94479 0.0
C1885 C 0.04227 0.98786 0.93077 0.0
C1886 C 0.05602 0.97655 0.95303 0.0
C1887 C 0.05233 0.9765 0.98934 0.0
H1888 H 0.04516 0.98788 0.90266 0.0
H1889 H 0.02374 0.98978 0.25729 0.0
H1890 H 0.18019 0.74462 0.43033 0.0
H1891 H 0.21553 0.74526 0.40155 0.0
H1892 H 0.19377 0.79555 0.3329 0.0
H1893 H 0.15838 0.79478 0.36133 0.0
H1894 H 0.21653 0.77051 0.29435 0.0
H1895 H 0.2307 0.80302 0.40454 0.0
H1896 H 0.23181 0.80718 0.46902 0.0
H1897 H 0.27209 0.7515 0.47697 0.0
H1898 H 0.27084 0.74672 0.41253 0.0
H1899 H 0.34315 0.79311 0.29356 0.0
H1900 H 0.30774 0.79478 0.32197 0.0
H1901 H 0.28559 0.74368 0.25497 0.0
H1902 H 0.32081 0.74232 0.22602 0.0
H1903 H 0.28469 0.7716 0.3613 0.0
H1904 H 0.23084 0.74375 0.24522 0.0
H1905 H 0.22946 0.74638 0.18049 0.0
H1906 H 0.26854 0.80294 0.18388 0.0
H1907 H 0.26989 0.80084 0.24863 0.0
C1908 C 0.18286 0.75598 0.4093 0.0
C1909 C 0.166 0.76973 0.39868 0.0
C1910 C 0.20335 0.7564 0.39271 0.0
C1911 C 0.20799 0.77061 0.36475 0.0
C1912 C 0.19112 0.78432 0.35413 0.0
C1913 C 0.17067 0.78395 0.37075 0.0
C1914 C 0.23006 0.77099 0.34637 0.0
C1915 C 0.23136 0.7706 0.30924 0.0
C1916 C 0.24991 0.77176 0.36492 0.0
C1917 C 0.25045 0.77436 0.40372 0.0
C1918 C 0.23959 0.79151 0.42006 0.0
C1919 C 0.24026 0.794 0.4566 0.0
C1920 C 0.25195 0.77958 0.47709 0.0
C1921 C 0.26299 0.76263 0.46107 0.0
C1922 C 0.26229 0.76001 0.42453 0.0
C1923 C 0.33074 0.78231 0.2845 0.0
C1924 C 0.33524 0.76769 0.25692 0.0
C1925 C 0.31028 0.7832 0.3011 0.0
C1926 C 0.29327 0.76956 0.29089 0.0
C1927 C 0.29781 0.75487 0.26339 0.0
C1928 C 0.31825 0.75402 0.24672 0.0
C1929 C 0.27119 0.77047 0.30926 0.0
C1930 C 0.26988 0.77122 0.34639 0.0
C1931 C 0.25131 0.77062 0.29069 0.0
C1932 C 0.2507 0.77195 0.25176 0.0
C1933 C 0.23912 0.75676 0.23215 0.0
C1934 C 0.23834 0.75816 0.19546 0.0
C1935 C 0.24901 0.77474 0.17808 0.0
C1936 C 0.26041 0.79002 0.19737 0.0
C1937 C 0.26119 0.78872 0.23406 0.0
H1938 H 0.24837 0.77582 0.14968 0.0
H1939 H 0.25253 0.78159 0.50538 0.0
H1940 H 0.5076 0.06854 0.51571 0.0
H1941 H 0.50593 0.03394 0.54514 0.0
H1942 H 0.43672 0.03714 0.54516 0.0
H1943 H 0.43847 0.07261 0.51748 0.0
H1944 H 0.44524 0.01881 0.60114 0.0
H1945 H 0.4723 0.00194 0.48698 0.0
H1946 H 0.49608 0.0042 0.43505 0.0
H1947 H 0.55031 0.98701 0.49862 0.0
H1948 H 0.52688 0.9849 0.55103 0.0
H1949 H 0.43591 0.9037 0.63529 0.0
H1950 H 0.43545 0.93944 0.60807 0.0
H1951 H 0.50192 0.94807 0.63546 0.0
H1952 H 0.5023 0.91272 0.66354 0.0
H1953 H 0.49362 0.95953 0.56483 0.0
H1954 H 0.46347 0.97489 0.6789 0.0
H1955 H 0.43767 0.97186 0.72804 0.0
H1956 H 0.38614 0.99037 0.65969 0.0
H1957 H 0.41156 -0.0069 0.60992 0.0
C1958 C 0.49193 0.06193 0.52167 0.0
C1959 C 0.47318 0.07368 0.51345 0.0
C1960 C 0.49095 0.04175 0.53848 0.0
C1961 C 0.47115 0.0319 0.54701 0.0
C1962 C 0.45236 0.04377 0.5391 0.0
C1963 C 0.45335 0.06424 0.52288 0.0
C1964 C 0.47014 0.00968 0.56448 0.0
C1965 C 0.45565 0.00586 0.59253 0.0
C1966 C 0.48372 -0.00777 0.5544 0.0
C1967 C 0.49787 -0.00652 0.52299 0.0
C1968 C 0.48932 -0.00122 0.48992 0.0
C1969 C 0.50273 2e-05 0.4604 0.0
C1970 C 0.5247 -0.00419 0.46355 0.0
C1971 C 0.53329 0.9903 0.49623 0.0
C1972 C 0.51995 0.98906 0.52585 0.0
C1973 C 0.45042 0.91323 0.63593 0.0
C1974 C 0.46911 0.90498 0.65214 0.0
C1975 C 0.45013 0.93386 0.62023 0.0
C1976 C 0.46864 0.94694 0.61942 0.0
C1977 C 0.48732 0.93866 0.63543 0.0
C1978 C 0.48749 0.91828 0.65179 0.0
C1979 C 0.46882 0.96883 0.6013 0.0
C1980 C 0.48317 0.97253 0.57317 0.0
C1981 C 0.45476 0.98594 0.61076 0.0
C1982 C 0.4394 0.98388 0.64052 0.0
C1983 C 0.4466 0.97802 0.67419 0.0
C1984 C 0.43204 0.97641 0.70219 0.0
C1985 C 0.41027 0.98078 0.69692 0.0
C1986 C 0.403 0.98687 0.66368 0.0
C1987 C 0.41747 0.98844 0.63556 0.0
H1988 H 0.39904 0.97953 0.71864 0.0
H1989 H 0.53506 -0.00322 0.44066 0.0
H1990 H 0.32435 0.18524 0.92282 0.0
H1991 H 0.28877 0.18453 0.89536 0.0
H1992 H 0.30347 0.24324 0.84082 0.0
H1993 H 0.33817 0.24473 0.87037 0.0
H1994 H 0.2661 0.24733 0.85154 0.0
H1995 H 0.29998 0.18595 0.80231 0.0
H1996 H 0.31935 0.15157 0.80096 0.0
H1997 H 0.26794 0.12174 0.85837 0.0
H1998 H 0.24829 0.15612 0.86025 0.0
H1999 H 0.17857 0.19096 0.72677 0.0
H2000 H 0.21403 0.19059 0.75497 0.0
H2001 H 0.19146 0.23686 0.83117 0.0
H2002 H 0.15691 0.23852 0.80118 0.0
H2003 H 0.23335 0.18028 0.8073 0.0
H2004 H 0.22905 0.26457 0.87249 0.0
H2005 H 0.21355 0.30023 0.86068 0.0
H2006 H 0.21268 0.28636 0.74994 0.0
H2007 H 0.2284 0.25072 0.76106 0.0
C2008 C 0.32001 0.19804 0.905 0.0
C2009 C 0.33448 0.21507 0.89917 0.0
C2010 C 0.2995 0.19752 0.88873 0.0
C2011 C 0.29282 0.21361 0.86482 0.0
C2012 C 0.30748 0.23053 0.85897 0.0
C2013 C 0.32767 0.23134 0.87595 0.0
C2014 C 0.27075 0.21324 0.84648 0.0
C2015 C 0.25915 0.23252 0.84197 0.0
C2016 C 0.26109 0.19432 0.83262 0.0
C2017 C 0.2728 0.17365 0.83177 0.0
C2018 C 0.29287 0.17209 0.81485 0.0
C2019 C 0.3039 0.15258 0.81397 0.0
C2020 C 0.29494 0.13445 0.82972 0.0
C2021 C 0.27489 0.1358 0.84626 0.0
C2022 C 0.26378 0.1553 0.84721 0.0
C2023 C 0.18123 0.20121 0.74937 0.0
C2024 C 0.16469 0.21503 0.7611 0.0
C2025 C 0.2017 0.20095 0.76582 0.0
C2026 C 0.20638 0.21416 0.7952 0.0
C2027 C 0.18933 0.22715 0.80783 0.0
C2028 C 0.16918 0.22792 0.79073 0.0
C2029 C 0.22874 0.21435 0.81248 0.0
C2030 C 0.24035 0.19506 0.81687 0.0
C2031 C 0.23894 0.23343 0.82461 0.0
C2032 C 0.22968 0.2549 0.81768 0.0
C2033 C 0.22562 0.26917 0.84562 0.0
C2034 C 0.21678 0.28936 0.83905 0.0
C2035 C 0.21206 0.29553 0.8046 0.0
C2036 C 0.21626 0.28154 0.77662 0.0
C2037 C 0.22512 0.26133 0.78305 0.0
H2038 H 0.2052 0.31116 0.79957 0.0
H2039 H 0.30349 0.11935 0.82903 0.0
H2040 H 0.6827 0.25523 0.93943 0.0
H2041 H 0.7175 0.25764 0.9098 0.0
H2042 H 0.6891 0.29623 0.82843 0.0
H2043 H 0.65395 0.29364 0.85804 0.0
H2044 H 0.71529 0.27021 0.79717 0.0
H2045 H 0.72546 0.31667 0.89416 0.0
H2046 H 0.72647 0.32937 0.95562 0.0
H2047 H 0.77232 0.28036 0.98102 0.0
H2048 H 0.77137 0.26717 0.9198 0.0
H2049 H 0.83925 0.30294 0.78336 0.0
H2050 H 0.80345 0.30635 0.81068 0.0
H2051 H 0.78648 0.24393 0.77129 0.0
H2052 H 0.82175 0.24064 0.74352 0.0
H2053 H 0.78267 0.2858 0.86131 0.0
H2054 H 0.7319 0.23957 0.75808 0.0
H2055 H 0.73119 0.23347 0.69391 0.0
H2056 H 0.76617 0.29181 0.67731 0.0
H2057 H 0.76689 0.29836 0.74131 0.0
C2058 C 0.68373 0.26447 0.91542 0.0
C2059 C 0.6651 0.27435 0.90163 0.0
C2060 C 0.70393 0.26592 0.89834 0.0
C2061 C 0.70658 0.27736 0.86661 0.0
C2062 C 0.68798 0.28728 0.85273 0.0
C2063 C 0.6677 0.2859 0.86995 0.0
C2064 C 0.72843 0.27837 0.84776 0.0
C2065 C 0.72994 0.27364 0.81146 0.0
C2066 C 0.748 0.28336 0.86536 0.0
C2067 C 0.7481 0.29075 0.90248 0.0
C2068 C 0.73555 0.30842 0.91295 0.0
C2069 C 0.73617 0.31576 0.94772 0.0
C2070 C 0.7494 0.30563 0.97224 0.0
C2071 C 0.76204 0.28815 0.96202 0.0
C2072 C 0.76146 0.28074 0.92729 0.0
C2073 C 0.8279 0.28996 0.78021 0.0
C2074 C 0.83382 0.27152 0.76073 0.0
C2075 C 0.80729 0.29186 0.79622 0.0
C2076 C 0.7917 0.27547 0.79335 0.0
C2077 C 0.79765 0.25711 0.77387 0.0
C2078 C 0.81815 0.2552 0.75792 0.0
C2079 C 0.76956 0.27722 0.81106 0.0
C2080 C 0.76801 0.28242 0.8471 0.0
C2081 C 0.74992 0.27322 0.79304 0.0
C2082 C 0.74962 0.26935 0.75452 0.0
C2083 C 0.73939 0.25112 0.74073 0.0
C2084 C 0.739 0.24757 0.70438 0.0
C2085 C 0.74868 0.26221 0.68155 0.0
C2086 C 0.75875 0.28044 0.69502 0.0
C2087 C 0.75919 0.28405 0.73133 0.0
H2088 H 0.74835 0.25944 0.65343 0.0
H2089 H 0.74989 0.31137 0.99913 0.0
H2090 H 0.81623 0.73423 0.44067 0.0
H2091 H 0.78126 0.73167 0.41199 0.0
H2092 H 0.80838 0.68908 0.33407 0.0
H2093 H 0.84326 0.69097 0.36371 0.0
H2094 H 0.76443 0.74329 0.3569 0.0
H2095 H 0.77066 0.65922 0.2915 0.0
H2096 H 0.78638 0.62364 0.30334 0.0
H2097 H 0.78638 0.63724 0.41418 0.0
H2098 H 0.77047 0.67278 0.40304 0.0
H2099 H 0.67855 0.73679 0.23379 0.0
H2100 H 0.71365 0.73598 0.26247 0.0
H2101 H 0.69314 0.68262 0.32583 0.0
H2102 H 0.65815 0.68299 0.29638 0.0
H2103 H 0.73296 0.67576 0.31195 0.0
H2104 H 0.69748 0.7376 0.35741 0.0
H2105 H 0.67796 0.772 0.3555 0.0
H2106 H 0.73109 0.801 0.30132 0.0
H2107 H 0.75082 0.76669 0.30252 0.0
C2108 C 0.81482 0.72408 0.41765 0.0
C2109 C 0.83296 0.71271 0.405 0.0
C2110 C 0.79459 0.72271 0.4009 0.0
C2111 C 0.79145 0.71 0.37051 0.0
C2112 C 0.80963 0.69865 0.35775 0.0
C2113 C 0.82987 0.69983 0.37479 0.0
C2114 C 0.76951 0.70926 0.35207 0.0
C2115 C 0.75775 0.7284 0.34717 0.0
C2116 C 0.75985 0.69001 0.33951 0.0
C2117 C 0.76962 0.66876 0.34637 0.0
C2118 C 0.77402 0.65461 0.31839 0.0
C2119 C 0.78297 0.63445 0.32498 0.0
C2120 C 0.78743 0.62822 0.35948 0.0
C2121 C 0.78301 0.64214 0.38746 0.0
C2122 C 0.77406 0.66229 0.38102 0.0
C2123 C 0.68141 0.72475 0.2537 0.0
C2124 C 0.66507 0.70997 0.26242 0.0
C2125 C 0.70169 0.7244 0.27049 0.0
C2126 C 0.7065 0.70948 0.29726 0.0
C2127 C 0.69033 0.6944 0.3055 0.0
C2128 C 0.67007 0.69465 0.2885 0.0
C2129 C 0.72808 0.70977 0.3167 0.0
C2130 C 0.73974 0.6906 0.32171 0.0
C2131 C 0.73731 0.72886 0.33053 0.0
C2132 C 0.72553 0.74952 0.32973 0.0
C2133 C 0.70493 0.75128 0.34487 0.0
C2134 C 0.69384 0.77076 0.34395 0.0
C2135 C 0.70325 0.78866 0.32821 0.0
C2136 C 0.7238 0.78712 0.31345 0.0
C2137 C 0.73496 0.76766 0.31426 0.0
H2138 H 0.69464 0.80373 0.32753 0.0
H2139 H 0.79414 0.61255 0.36461 0.0
H2140 H 0.56222 0.56587 0.66521 0.0
H2141 H 0.56372 0.52989 0.63962 0.0
H2142 H 0.50073 0.5392 0.59523 0.0
H2143 H 0.49865 0.57449 0.62311 0.0
H2144 H 0.50041 0.5016 0.60942 0.0
H2145 H 0.55788 0.53755 0.54578 0.0
H2146 H 0.59168 0.55754 0.5384 0.0
H2147 H 0.62531 0.51012 0.59873 0.0
H2148 H 0.59167 0.4897 0.60605 0.0
H2149 H 0.50544 0.41374 0.48706 0.0
H2150 H 0.50535 0.44924 0.51475 0.0
H2151 H 0.56228 0.43261 0.57274 0.0
H2152 H 0.56253 0.39709 0.54485 0.0
H2153 H 0.56628 0.47278 0.55288 0.0
H2154 H 0.50937 0.43529 0.61089 0.0
H2155 H 0.47594 0.41428 0.61501 0.0
H2156 H 0.44119 0.46483 0.56394 0.0
H2157 H 0.47448 0.48603 0.55911 0.0
C2158 C 0.54862 0.5603 0.65005 0.0
C2159 C 0.53028 0.57351 0.6466 0.0
C2160 C 0.5496 0.53952 0.63471 0.0
C2161 C 0.5326 0.53121 0.61404 0.0
C2162 C 0.51428 0.54453 0.61071 0.0
C2163 C 0.51309 0.56505 0.62678 0.0
C2164 C 0.53342 0.50877 0.59674 0.0
C2165 C 0.51485 0.49571 0.59657 0.0
C2166 C 0.55218 0.49984 0.58053 0.0
C2167 C 0.57226 0.51227 0.57677 0.0
C2168 C 0.57247 0.53148 0.55763 0.0
C2169 C 0.59163 0.54284 0.55337 0.0
C2170 C 0.61065 0.53517 0.56826 0.0
C2171 C 0.61056 0.51607 0.58731 0.0
C2172 C 0.59149 0.50454 0.59135 0.0
C2173 C 0.51807 0.41754 0.50557 0.0
C2174 C 0.53401 0.40209 0.51334 0.0
C2175 C 0.5179 0.43803 0.52182 0.0
C2176 C 0.53362 0.44407 0.54672 0.0
C2177 C 0.54982 0.42881 0.55393 0.0
C2178 C 0.54994 0.40826 0.53781 0.0
C2179 C 0.53322 0.46607 0.565 0.0
C2180 C 0.55186 0.47889 0.56554 0.0
C2181 C 0.51451 0.47482 0.58134 0.0
C2182 C 0.49446 0.46216 0.58433 0.0
C2183 C 0.49463 0.44186 0.60032 0.0
C2184 C 0.4757 0.42993 0.60281 0.0
C2185 C 0.45646 0.43819 0.58966 0.0
C2186 C 0.45611 0.45844 0.57407 0.0
C2187 C 0.475 0.47043 0.57147 0.0
H2188 H 0.44183 0.42893 0.59161 0.0
H2189 H 0.62549 0.54393 0.56494 0.0
H2190 H 0.00505 0.56305 1.00807 0.0
H2191 H 0.00332 0.52765 1.03518 0.0
H2192 H 0.93463 0.53398 1.04609 0.0
H2193 H 0.93653 0.56997 1.02061 0.0
H2194 H 0.94573 0.5141 0.09995 0.0
H2195 H 0.96434 0.49913 0.98042 0.0
H2196 H 0.98499 0.50173 0.92506 0.0
H2197 H 0.04172 0.47973 0.97795 0.0
H2198 H 0.02146 0.47724 1.03374 0.0
H2199 H 0.93465 0.39999 0.14101 0.0
H2200 H 0.93245 0.43549 0.11269 0.0
H2201 H 0.00151 0.43968 0.11255 0.0
H2202 H 0.0038 0.40478 0.14052 0.0
H2203 H 0.98772 0.45334 1.05113 0.0
H2204 H 0.96746 0.46863 0.17125 0.0
H2205 H 0.94543 0.46542 0.22506 0.0
H2206 H 0.88956 0.48576 0.16811 0.0
H2207 H 0.9112 0.48875 0.11376 0.0
C2208 C 0.98949 0.55696 1.01598 0.0
C2209 C 0.97093 0.56972 1.0115 0.0
C2210 C 0.98845 0.53635 1.03146 0.0
C2211 C 0.96872 0.52721 1.04238 0.0
C2212 C 0.95018 0.54007 1.03813 0.0
C2213 C 0.95126 0.56086 1.02319 0.0
C2214 C 0.96749 0.50463 1.05845 0.0
C2215 C 0.95471 0.50084 0.08867 0.0
C2216 C 0.9792 0.48676 1.0448 0.0
C2217 C 0.99142 0.4882 1.01132 0.0
C2218 C 0.98125 0.49498 0.98029 0.0
C2219 C -0.00712 0.49641 0.94883 0.0
C2220 C 0.01466 0.49095 0.94801 0.0
C2221 C 0.02485 0.48398 0.97864 0.0
C2222 C 0.0133 0.48254 1.01017 0.0
C2223 C 0.94938 0.40846 0.13504 0.0
C2224 C 0.96941 0.39909 0.14358 0.0
C2225 C 0.94812 0.42899 0.11883 0.0
C2226 C 0.96683 0.44086 0.11029 0.0
C2227 C 0.98671 0.43131 0.11847 0.0
C2228 C 0.98796 0.41108 0.13483 0.0
C2229 C 0.96619 0.46294 0.09269 0.0
C2230 C 0.97865 0.46661 1.06218 0.0
C2231 C 0.95394 0.48055 0.10578 0.0
C2232 C 0.9409 0.47864 0.13834 0.0
C2233 C 0.95043 0.47221 0.17011 0.0
C2234 C 0.93803 0.47047 0.20072 0.0
C2235 C 0.9161 0.4753 0.19997 0.0
C2236 C 0.90654 0.48195 0.16862 0.0
C2237 C 0.91887 0.48367 0.13791 0.0
H2238 H 0.90654 0.47393 0.2237 0.0
H2239 H 0.02364 0.49208 0.92364 0.0
H2240 H 0.08488 0.15634 0.2854 0.0
H2241 H 0.09465 0.16632 0.34567 0.0
H2242 H 0.02798 0.16383 0.37604 0.0
H2243 H 0.01855 0.15256 0.31643 0.0
H2244 H 0.04267 0.15445 0.43014 0.0
H2245 H 0.12743 0.18068 0.40228 0.0
H2246 H 0.14938 0.20133 0.35997 0.0
H2247 H 0.09484 0.24081 0.33621 0.0
H2248 H 0.07243 0.21983 0.37716 0.0
H2249 H 0.08165 0.17091 0.60898 0.0
H2250 H 0.07308 0.16085 0.54871 0.0
H2251 H 0.0948 0.2224 0.51271 0.0
H2252 H 0.10425 0.23214 0.5735 0.0
H2253 H 0.10274 0.20252 0.46087 0.0
H2254 H 0.02284 0.19051 0.48992 0.0
H2255 H 0.99023 0.17335 0.51344 0.0
H2256 H 0.02556 0.1153 0.53145 0.0
H2257 H 0.0579 0.13163 0.50489 0.0
C2258 C 0.07214 0.15775 0.30476 0.0
C2259 C 0.05069 0.15306 0.29441 0.0
C2260 C 0.07781 0.16402 0.34016 0.0
C2261 C 0.06241 0.16661 0.3679 0.0
C2262 C 0.04093 0.1621 0.35716 0.0
C2263 C 0.03533 0.15553 0.32201 0.0
C2264 C 0.06821 0.17298 0.4075 0.0
C2265 C 0.05594 0.16505 0.43616 0.0
C2266 C 0.08526 0.18699 0.41833 0.0
C2267 C 0.09823 0.1985 0.39204 0.0
C2268 C 0.1201 0.19357 0.3875 0.0
C2269 C 0.13257 0.20525 0.36364 0.0
C2270 C 0.1234 0.22216 0.34487 0.0
C2271 C 0.10175 0.22737 0.3499 0.0
C2272 C 0.08912 0.21549 0.37318 0.0
C2273 C 0.08481 0.18252 0.58852 0.0
C2274 C 0.09418 0.20255 0.59797 0.0
C2275 C 0.07933 0.17673 0.55292 0.0
C2276 C 0.08246 0.19056 0.52353 0.0
C2277 C 0.09186 0.21067 0.53307 0.0
C2278 C 0.09744 0.21646 0.56879 0.0
C2279 C 0.07703 0.18406 0.48377 0.0
C2280 C 0.08946 0.19193 0.45497 0.0
C2281 C 0.05968 0.1704 0.47266 0.0
C2282 C 0.04297 0.16259 0.49693 0.0
C2283 C 0.02378 0.17431 0.49989 0.0
C2284 C 0.00522 0.16456 0.51296 0.0
C2285 C 0.00587 0.14333 0.52446 0.0
C2286 C 0.0251 0.13178 0.52273 0.0
C2287 C 0.0435 0.14121 0.50836 0.0
H2288 H 0.99148 0.13586 0.53471 0.0
H2289 H 0.1331 0.23137 0.32672 0.0
H2290 H 0.07674 0.81475 0.53948 0.0
H2291 H 0.06505 0.82472 0.59926 0.0
H2292 H 0.09027 0.7654 0.63874 0.0
H2293 H 0.10163 0.75519 0.57876 0.0
H2294 H 0.03661 0.81064 0.6504 0.0
H2295 H 0.10375 0.77074 0.72918 0.0
H2296 H 0.14171 0.75997 0.72298 0.0
H2297 H 0.15136 0.80866 0.64492 0.0
H2298 H 0.11355 0.82001 0.65121 0.0
H2299 H 0.01285 0.85484 0.82574 0.0
H2300 H 0.02319 0.84638 0.76497 0.0
H2301 H 0.07019 0.80145 0.80313 0.0
H2302 H 0.06068 0.81105 0.86349 0.0
H2303 H 0.08734 0.80893 0.7502 0.0
H2304 H 0.01783 0.84813 0.67589 0.0
H2305 H 0.9791 0.85603 0.68239 0.0
H2306 H 0.97204 0.80247 0.75204 0.0
H2307 H 0.01072 0.79452 0.74629 0.0
C2308 C 0.08017 0.80372 0.56066 0.0
C2309 C 0.09076 0.784 0.55254 0.0
C2310 C 0.07313 0.80949 0.59565 0.0
C2311 C 0.07652 0.79628 0.62561 0.0
C2312 C 0.08728 0.7766 0.61762 0.0
C2313 C 0.09401 0.77064 0.58247 0.0
C2314 C 0.06922 0.80312 0.66428 0.0
C2315 C 0.04795 0.81024 0.67197 0.0
C2316 C 0.08302 0.80265 0.69437 0.0
C2317 C 0.10576 0.79606 0.69043 0.0
C2318 C 0.11399 0.77918 0.71077 0.0
C2319 C 0.13549 0.77299 0.70725 0.0
C2320 C 0.14893 0.78358 0.68347 0.0
C2321 C 0.14091 0.80043 0.66325 0.0
C2322 C 0.11945 0.80676 0.66679 0.0
C2323 C 0.02541 0.8431 0.82148 0.0
C2324 C 0.03571 0.834 0.85131 0.0
C2325 C 0.03132 0.83778 0.78563 0.0
C2326 C 0.04753 0.82233 0.77662 0.0
C2327 C 0.05772 0.81334 0.80678 0.0
C2328 C 0.05212 0.81897 0.84245 0.0
C2329 C 0.05434 0.81587 0.73721 0.0
C2330 C 0.07572 0.80908 0.72907 0.0
C2331 C 0.04038 0.81594 0.70698 0.0
C2332 C 0.01719 0.82078 0.71083 0.0
C2333 C 0.008 0.83806 0.6926 0.0
C2334 C 0.98608 0.8426 0.69626 0.0
C2335 C 0.97311 0.82969 0.71748 0.0
C2336 C 0.9821 0.81242 0.73554 0.0
C2337 C 0.00403 0.80794 0.73221 0.0
H2338 H 0.95611 0.83307 0.71996 0.0
H2339 H 0.16557 0.77876 0.68075 0.0
H2340 H 0.40357 0.7454 0.07874 0.0
H2341 H 0.41439 0.75478 1.01876 0.0
H2342 H 0.42323 0.82028 1.05079 0.0
H2343 H 0.4132 0.81066 0.11114 0.0
H2344 H 0.45063 0.81778 1.00556 0.0
H2345 H 0.41974 0.74632 0.93041 0.0
H2346 H 0.39152 0.71862 0.93162 0.0
H2347 H 0.34934 0.76167 0.987 0.0
H2348 H 0.37728 0.78972 0.98586 0.0
H2349 H 0.4897 0.83157 0.82493 0.0
H2350 H 0.48095 0.81951 0.88451 0.0
H2351 H 0.41406 0.81619 0.85678 0.0
H2352 H 0.42308 0.82702 0.79649 0.0
H2353 H 0.41646 0.78692 0.89965 0.0
H2354 H 0.44737 0.85826 0.92113 0.0
H2355 H 0.47666 0.8848 0.91745 0.0
H2356 H 0.51957 0.8409 0.96852 0.0
H2357 H 0.49057 0.81407 0.9723 0.0
C2358 C 0.40746 0.76196 1.07328 0.0
C2359 C 0.40684 0.77709 0.10132 0.0
C2360 C 0.41375 0.76753 1.03794 0.0
C2361 C 0.4196 0.78873 1.02767 0.0
C2362 C 0.41904 0.80377 1.05594 0.0
C2363 C 0.41295 0.79818 0.09132 0.0
C2364 C 0.4265 0.79531 0.98878 0.0
C2365 C 0.44281 0.81087 0.98278 0.0
C2366 C 0.41745 0.7867 0.95697 0.0
C2367 C 0.40059 0.77006 0.95817 0.0
C2368 C 0.40441 0.74989 0.94274 0.0
C2369 C 0.38848 0.73413 0.94343 0.0
C2370 C 0.36864 0.7384 0.9593 0.0
C2371 C 0.36472 0.7584 0.97469 0.0
C2372 C 0.38059 0.77425 0.97404 0.0
C2373 C 0.47298 0.82868 0.8313 0.0
C2374 C 0.45729 0.83095 0.80439 0.0
C2375 C 0.46778 0.82174 0.86644 0.0
C2376 C 0.44637 0.81712 0.87777 0.0
C2377 C 0.43074 0.81942 0.85071 0.0
C2378 C 0.43599 0.826 0.81543 0.0
C2379 C 0.44016 0.80974 0.91655 0.0
C2380 C 0.42408 0.79397 0.92249 0.0
C2381 C 0.44967 0.81788 0.94828 0.0
C2382 C 0.46687 0.83416 0.94676 0.0
C2383 C 0.46306 0.8543 0.93155 0.0
C2384 C 0.47961 0.86936 0.92942 0.0
C2385 C 0.49998 0.86451 0.94265 0.0
C2386 C 0.5038 0.84462 0.95822 0.0
C2387 C 0.48731 0.8295 0.96043 0.0
H2388 H 0.51278 0.87617 0.94089 0.0
H2389 H 0.35629 0.72623 0.95953 0.0
H2390 H 0.49317 0.15397 0.33601 0.0
H2391 H 0.48331 0.16579 0.27693 0.0
H2392 H 0.41662 0.15492 0.30099 0.0
H2393 H 0.42649 0.14446 0.36095 0.0
H2394 H 0.4123 0.18305 0.25922 0.0
H2395 H 0.4935 0.17835 0.18966 0.0
H2396 H 0.52791 0.1587 0.19134 0.0
H2397 H 0.49609 0.10426 0.23651 0.0
H2398 H 0.46143 0.12354 0.23474 0.0
H2399 H 0.39771 0.23044 0.0842 0.0
H2400 H 0.40875 0.22081 0.14425 0.0
H2401 H 0.43015 0.15928 0.10684 0.0
H2402 H 0.4197 0.16911 1.0469 0.0
H2403 H 0.45703 0.16736 0.15441 0.0
H2404 H 0.37999 0.17301 0.16536 0.0
H2405 H 0.3448 0.19114 0.16171 0.0
H2406 H 0.36707 0.24061 0.23125 0.0
H2407 H 0.40246 0.22287 0.23501 0.0
C2408 C 0.47633 0.15369 0.32891 0.0
C2409 C 0.46093 0.14752 0.35472 0.0
C2410 C 0.4705 0.16051 0.294 0.0
C2411 C 0.44885 0.1611 0.28163 0.0
C2412 C 0.4335 0.15497 0.30771 0.0
C2413 C 0.43928 0.1486 0.34285 0.0
C2414 C 0.44205 0.16824 0.24291 0.0
C2415 C 0.42242 0.17941 0.23672 0.0
C2416 C 0.45434 0.16425 0.21135 0.0
C2417 C 0.47496 0.15246 0.21249 0.0
C2418 C 0.49385 0.16217 0.19989 0.0
C2419 C 0.51339 0.1511 0.20083 0.0
C2420 C 0.5142 0.13027 0.21414 0.0
C2421 C 0.49545 0.12042 0.22634 0.0
C2422 C 0.47585 0.1314 0.22536 0.0
C2423 C 0.40451 0.21469 0.08846 0.0
C2424 C 0.40713 0.20068 1.05911 0.0
C2425 C 0.41092 0.20898 0.12369 0.0
C2426 C 0.42034 0.18878 0.13232 0.0
C2427 C 0.42312 0.17495 0.10281 0.0
C2428 C 0.41678 0.18065 1.0677 0.0
C2429 C 0.42741 0.18207 0.17093 0.0
C2430 C 0.44702 0.17098 0.17702 0.0
C2431 C 0.41513 0.18612 0.20231 0.0
C2432 C 0.3939 0.19673 0.2002 0.0
C2433 C 0.3774 0.18781 0.17972 0.0
C2434 C 0.35742 0.19801 0.17765 0.0
C2435 C 0.35371 0.21704 0.19616 0.0
C2436 C 0.36996 0.22589 0.21688 0.0
C2437 C 0.38998 0.21576 0.21902 0.0
H2438 H 0.33824 0.22492 0.19451 0.0
H2439 H 0.52935 0.12175 0.21496 0.0
H2440 H 0.88611 0.8728 0.56247 0.0
H2441 H 0.89776 0.89606 0.61049 0.0
H2442 H 0.9457 0.84936 0.6397 0.0
H2443 H 0.9325 0.82519 0.59456 0.0
H2444 H 0.92738 0.85992 0.69363 0.0
H2445 H 0.95723 0.90116 0.60077 0.0
H2446 H 0.95835 0.92079 0.5446 0.0
H2447 H 0.91134 0.96538 0.58379 0.0
H2448 H 0.90969 0.94584 0.64007 0.0
H2449 H 0.97647 0.92008 0.81928 0.0
H2450 H 0.97365 0.91993 0.75572 0.0
H2451 H 0.90489 0.9262 0.76385 0.0
H2452 H 0.90751 0.92745 0.82785 0.0
H2453 H 0.93805 0.93868 0.68938 0.0
H2454 H 0.90188 0.87282 0.76394 0.0
H2455 H 0.90525 0.85207 0.81898 0.0
H2456 H 0.97401 0.85527 0.81128 0.0
H2457 H 0.971 0.87603 0.75626 0.0
C2458 C 0.89909 0.86748 0.57924 0.0
C2459 C 0.90854 0.84719 0.57445 0.0
C2460 C 0.90603 0.88099 0.60629 0.0
C2461 C 0.92292 0.87468 0.62843 0.0
C2462 C 0.93276 0.85469 0.62288 0.0
C2463 C 0.92541 0.84098 0.59665 0.0
C2464 C 0.92884 0.88765 0.6597 0.0
C2465 C 0.93006 0.87706 0.69218 0.0
C2466 C 0.93232 0.91011 0.65836 0.0
C2467 C 0.9332 0.92191 0.62455 0.0
C2468 C 0.947 0.91505 0.59733 0.0
C2469 C 0.94775 0.92618 0.56548 0.0
C2470 C 0.93489 0.94429 0.5606 0.0
C2471 C 0.92128 0.95134 0.5876 0.0
C2472 C 0.92045 0.94025 0.6195 0.0
C2473 C 0.96083 0.92295 0.80784 0.0
C2474 C 0.94206 0.92286 0.82872 0.0
C2475 C 0.9593 0.92291 0.77124 0.0
C2476 C 0.93906 0.92255 0.75535 0.0
C2477 C 0.92067 0.92637 0.77582 0.0
C2478 C 0.92218 0.92675 0.81244 0.0
C2479 C 0.93659 0.91071 0.72212 0.0
C2480 C 0.93574 0.92147 0.6899 0.0
C2481 C 0.93433 0.88824 0.72309 0.0
C2482 C 0.9362 0.87602 0.75628 0.0
C2483 C 0.91769 0.86908 0.77408 0.0
C2484 C 0.91955 0.85732 0.80521 0.0
C2485 C 0.93985 0.85238 0.81863 0.0
C2486 C 0.95833 0.85918 0.80094 0.0
C2487 C 0.95655 0.87096 0.76984 0.0
H2488 H 0.94126 0.84329 0.84274 0.0
H2489 H 0.9355 0.9529 0.53592 0.0
H2490 H 0.87293 0.1501 0.54955 0.0
H2491 H 0.87729 0.12452 0.50147 0.0
H2492 H 0.92788 0.09264 0.55856 0.0
H2493 H 0.92379 0.11861 0.6068 0.0
H2494 H 0.93981 0.10293 0.49287 0.0
H2495 H 0.88142 0.06573 0.5432 0.0
H2496 H 0.84597 0.06105 0.57129 0.0
H2497 H 0.81508 0.08598 0.47921 0.0
H2498 H 0.85033 0.09114 0.45073 0.0
H2499 H 0.95057 0.0587 0.3268 0.0
H2500 H 0.93998 0.05232 0.38792 0.0
H2501 H 0.88928 0.09907 0.3781 0.0
H2502 H 0.90009 0.1061 0.31791 0.0
H2503 H 0.88024 0.06734 0.42901 0.0
H2504 H 0.93736 0.11724 0.39331 0.0
H2505 H 0.97191 0.12589 0.36466 0.0
H2506 H 0.00409 0.07996 0.42995 0.0
H2507 H 0.96959 0.07077 0.45853 0.0
C2508 C 0.88493 0.13759 0.55191 0.0
C2509 C 0.89814 0.13639 0.58168 0.0
C2510 C 0.88717 0.12277 0.52471 0.0
C2511 C 0.90262 0.10641 0.52678 0.0
C2512 C 0.91566 0.10496 0.55674 0.0
C2513 C 0.91333 0.11978 0.58415 0.0
C2514 C 0.90675 0.09283 0.49555 0.0
C2515 C 0.92701 0.09439 0.47955 0.0
C2516 C 0.88993 0.08201 0.47796 0.0
C2517 C 0.86859 0.07883 0.49481 0.0
C2518 C 0.86708 0.07033 0.52898 0.0
C2519 C 0.84701 0.06758 0.54498 0.0
C2520 C 0.82829 0.07321 0.52704 0.0
C2521 C 0.82959 0.08159 0.49305 0.0
C2522 C 0.84963 0.08438 0.47693 0.0
C2523 C 0.93674 0.06715 0.33735 0.0
C2524 C 0.92666 0.08346 0.31787 0.0
C2525 C 0.9306 0.0633 0.37214 0.0
C2526 C 0.91419 0.0756 0.38761 0.0
C2527 C 0.90204 0.08946 0.3666 0.0
C2528 C 0.90829 0.09347 0.33201 0.0
C2529 C 0.91296 0.07825 0.42616 0.0
C2530 C 0.89329 0.07482 0.44332 0.0
C2531 C 0.93021 0.08765 0.44482 0.0
C2532 C 0.9509 0.09307 0.42761 0.0
C2533 C 0.95178 0.10885 0.40129 0.0
C2534 C 0.97134 0.11387 0.38511 0.0
C2535 C 0.99017 0.10343 0.3954 0.0
C2536 C 0.98947 0.08797 0.42192 0.0
C2537 C 0.96992 0.08282 0.43808 0.0
H2538 H 0.00531 0.10737 0.38289 0.0
H2539 H 0.81276 0.07108 0.53948 0.0
H2540 H 0.69945 0.19699 0.09747 0.0
H2541 H 0.70141 0.18761 0.15983 0.0
H2542 H 0.66425 0.13067 0.1397 0.0
H2543 H 0.66168 0.14009 1.07824 0.0
H2544 H 0.66326 0.18825 0.1928 0.0
H2545 H 0.66833 0.09492 0.20281 0.0
H2546 H 0.69077 0.06562 0.17923 0.0
H2547 H 0.74285 0.1095 0.16267 0.0
H2548 H 0.72086 0.13904 0.18664 0.0
H2549 H 0.59702 0.11232 0.30112 0.0
H2550 H 0.62409 0.11914 0.25584 0.0
H2551 H 0.65058 0.17008 0.31905 0.0
H2552 H 0.62287 0.16411 0.36368 0.0
H2553 H 0.66872 0.11897 0.25564 0.0
H2554 H 0.66127 0.20551 0.27823 0.0
H2555 H 0.63525 0.23351 0.2962 0.0
H2556 H 0.58543 0.20145 0.23875 0.0
H2557 H 0.611 0.17291 0.22158 0.0
C2558 C 0.69227 0.18213 0.10617 0.0
C2559 C 0.67992 0.16962 0.08297 0.0
C2560 C 0.69357 0.17672 0.14176 0.0
C2561 C 0.68286 0.15854 0.15446 0.0
C2562 C 0.6729 0.14464 0.13051 0.0
C2563 C 0.67144 0.15011 0.0951 0.0
C2564 C 0.67738 0.15666 0.19225 0.0
C2565 C 0.66524 0.17339 0.20715 0.0
C2566 C 0.67943 0.13706 0.21053 0.0
C2567 C 0.69288 0.11925 0.19655 0.0
C2568 C 0.68463 0.09832 0.19445 0.0
C2569 C 0.69726 0.08166 0.18092 0.0
C2570 C 0.71822 0.08569 0.16944 0.0
C2571 C 0.72659 0.1064 0.17151 0.0
C2572 C 0.71403 0.12312 0.18502 0.0
C2573 C 0.6085 0.12508 0.30527 0.0
C2574 C 0.60769 0.1378 0.33582 0.0
C2575 C 0.62413 0.12877 0.27962 0.0
C2576 C 0.63923 0.14518 0.28407 0.0
C2577 C 0.63891 0.15748 0.31499 0.0
C2578 C 0.62318 0.15392 0.34057 0.0
C2579 C 0.65418 0.15028 0.25504 0.0
C2580 C 0.6678 0.13416 0.24191 0.0
C2581 C 0.65335 0.1703 0.23797 0.0
C2582 C 0.63794 0.18715 0.24883 0.0
C2583 C 0.64471 0.20442 0.26971 0.0
C2584 C 0.63002 0.22026 0.27997 0.0
C2585 C 0.60868 0.2192 0.26878 0.0
C2586 C 0.60192 0.20216 0.24763 0.0
C2587 C 0.61645 0.18608 0.23787 0.0
H2588 H 0.5974 0.23164 0.2763 0.0
H2589 H 0.72796 0.07278 0.15895 0.0
H2590 H 0.56711 0.92224 0.834 0.0
H2591 H 0.58437 0.92054 0.89143 0.0
H2592 H 0.63455 0.88087 0.84761 0.0
H2593 H 0.61718 0.8818 0.79073 0.0
H2594 H 0.60002 0.8602 0.88559 0.0
H2595 H 0.65025 0.91761 0.8981 0.0
H2596 H 0.66224 0.95521 0.89775 0.0
H2597 H 0.61681 0.97044 0.97945 0.0
H2598 H 0.6043 0.93299 0.97995 0.0
H2599 H 0.6311 0.80932 1.03928 0.0
H2600 H 0.63184 0.83054 0.98555 0.0
H2601 H 0.59069 0.87789 1.03429 0.0
H2602 H 0.58995 0.85662 0.08856 0.0
H2603 H 0.62295 0.89653 0.99525 0.0
H2604 H 0.56682 0.84532 0.97429 0.0
H2605 H 0.54886 0.81014 0.97152 0.0
H2606 H 0.59943 0.78587 0.90532 0.0
H2607 H 0.61744 0.82107 0.90702 0.0
C2608 C 0.58239 0.91402 0.8362 0.0
C2609 C 0.5902 0.90127 0.80834 0.0
C2610 C 0.59241 0.91332 0.86898 0.0
C2611 C 0.61036 0.90007 0.87379 0.0
C2612 C 0.62059 0.89106 0.84432 0.0
C2613 C 0.61051 0.89158 0.81167 0.0
C2614 C 0.6128 0.88924 0.90792 0.0
C2615 C 0.60557 0.868 0.90939 0.0
C2616 C 0.61876 0.89993 0.93914 0.0
C2617 C 0.6262 0.92249 0.93884 0.0
C2618 C 0.64265 0.92901 0.91575 0.0
C2619 C 0.64958 0.9503 0.91559 0.0
C2620 C 0.64026 0.96522 0.9385 0.0
C2621 C 0.62401 0.95887 0.96169 0.0
C2622 C 0.61701 0.9376 0.96196 0.0
C2623 C 0.62211 0.82419 1.03851 0.0
C2624 C 0.61025 0.83124 1.06785 0.0
C2625 C 0.62262 0.83632 1.0079 0.0
C2626 C 0.61112 0.85562 1.00593 0.0
C2627 C 0.59968 0.86303 1.03543 0.0
C2628 C 0.59925 0.8509 1.06627 0.0
C2629 C 0.61054 0.86743 0.97242 0.0
C2630 C 0.61775 0.88875 0.9712 0.0
C2631 C 0.60389 0.85714 0.94121 0.0
C2632 C 0.59363 0.8357 0.94122 0.0
C2633 C 0.57422 0.8324 0.95944 0.0
C2634 C 0.56397 0.81251 0.95791 0.0
C2635 C 0.57312 0.79571 0.9386 0.0
C2636 C 0.59245 0.79884 0.9205 0.0
C2637 C 0.60261 0.8188 0.92153 0.0
H2638 H 0.56515 0.78033 0.93744 0.0
H2639 H 0.64565 0.98169 0.93834 0.0
H2640 H 0.57918 0.65148 0.79319 0.0
H2641 H 0.58949 0.66082 0.85317 0.0
H2642 H 0.52352 0.6557 0.88612 0.0
H2643 H 0.51329 0.6457 0.82594 0.0
H2644 H 0.54101 0.6454 0.93988 0.0
H2645 H 0.62266 0.67645 0.9132 0.0
H2646 H 0.64522 0.69531 0.86966 0.0
H2647 H 0.59047 0.73115 0.83497 0.0
H2648 H 0.56739 0.7123 0.87841 0.0
H2649 H 0.58877 0.66303 0.11314 0.0
H2650 H 0.57967 0.65258 1.05293 0.0
H2651 H 0.58401 0.7184 1.02054 0.0
H2652 H 0.59364 0.72879 0.08096 0.0
H2653 H 0.597 0.69906 0.96685 0.0
H2654 H 0.52936 0.67857 1.02808 0.0
H2655 H 0.50868 0.65849 1.07316 0.0
H2656 H 0.53831 0.59985 1.03915 0.0
H2657 H 0.55915 0.61954 0.99432 0.0
C2658 C 0.56663 0.65228 0.81296 0.0
C2659 C 0.54514 0.6474 0.80306 0.0
C2660 C 0.57263 0.65822 0.84821 0.0
C2661 C 0.55755 0.66015 0.87642 0.0
C2662 C 0.53607 0.65496 0.86646 0.0
C2663 C 0.53006 0.64895 0.83118 0.0
C2664 C 0.5638 0.6667 0.91562 0.0
C2665 C 0.55328 0.65727 0.94504 0.0
C2666 C 0.58011 0.68193 0.9253 0.0
C2667 C 0.59331 0.69279 0.89846 0.0
C2668 C 0.61541 0.68828 0.89612 0.0
C2669 C 0.62824 0.69893 0.87152 0.0
C2670 C 0.61918 0.71432 0.84945 0.0
C2671 C 0.59728 0.71909 0.85198 0.0
C2672 C 0.58431 0.70837 0.87641 0.0
C2673 C 0.58791 0.67549 0.09346 0.0
C2674 C 0.59243 0.697 0.10355 0.0
C2675 C 0.5822 0.66941 1.05815 0.0
C2676 C 0.58027 0.68439 1.03007 0.0
C2677 C 0.58501 0.70591 1.04016 0.0
C2678 C 0.59073 0.71201 1.07554 0.0
C2679 C 0.57408 0.67789 0.99089 0.0
C2680 C 0.58459 0.68734 0.96155 0.0
C2681 C 0.55823 0.66223 0.9813 0.0
C2682 C 0.54598 0.65056 1.00846 0.0
C2683 C 0.53156 0.66144 1.03065 0.0
C2684 C 0.51979 0.65014 1.05596 0.0
C2685 C 0.52227 0.62798 1.05909 0.0
C2686 C 0.53645 0.61703 1.0368 0.0
C2687 C 0.54821 0.62823 1.01144 0.0
H2688 H 0.51315 0.6193 0.0787 0.0
H2689 H 0.62914 0.72262 0.8305 0.0
H2690 H 0.58183 0.32212 0.36943 0.0
H2691 H 0.59175 0.31199 0.30897 0.0
H2692 H 0.52672 0.32351 0.276 0.0
H2693 H 0.51699 0.33405 0.33613 0.0
H2694 H 0.58799 0.28454 0.26159 0.0
H2695 H 0.51971 0.32736 0.18676 0.0
H2696 H 0.49752 0.36009 0.19037 0.0
H2697 H 0.54602 0.39075 0.25269 0.0
H2698 H 0.56856 0.35826 0.24922 0.0
H2699 H 0.56455 0.29146 1.04927 0.0
H2700 H 0.55552 0.29999 0.11032 0.0
H2701 H 0.6189 0.27984 0.14136 0.0
H2702 H 0.62622 0.26778 0.08113 0.0
H2703 H 0.55917 0.32285 0.15823 0.0
H2704 H 0.62771 0.28263 0.23223 0.0
H2705 H 0.65372 0.25324 0.22309 0.0
H2706 H 0.60759 0.21916 0.16073 0.0
H2707 H 0.58155 0.2485 0.16888 0.0
C2708 C 0.56953 0.32292 0.34941 0.0
C2709 C 0.54845 0.32966 0.35922 0.0
C2710 C 0.5753 0.31678 0.314 0.0
C2711 C 0.56049 0.31698 0.28549 0.0
C2712 C 0.5393 0.32347 0.29552 0.0
C2713 C 0.53353 0.32963 0.3309 0.0
C2714 C 0.56712 0.31044 0.24638 0.0
C2715 C 0.58164 0.29325 0.23929 0.0
C2716 C 0.55929 0.32085 0.2153 0.0
C2717 C 0.5457 0.34028 0.21804 0.0
C2718 C 0.52564 0.34108 0.20123 0.0
C2719 C 0.51302 0.35961 0.20319 0.0
C2720 C 0.52039 0.3775 0.22167 0.0
C2721 C 0.54034 0.37688 0.23838 0.0
C2722 C 0.55302 0.3584 0.23649 0.0
C2723 C 0.5764 0.28796 1.06919 0.0
C2724 C 0.59598 0.2779 1.05888 0.0
C2725 C 0.57127 0.29333 0.10505 0.0
C2726 C 0.58581 0.29023 0.13348 0.0
C2727 C 0.60607 0.28143 0.12253 0.0
C2728 C 0.61065 0.27476 0.0869 0.0
C2729 C 0.57973 0.29661 0.17305 0.0
C2730 C 0.56535 0.31387 0.18033 0.0
C2731 C 0.58775 0.28627 0.20422 0.0
C2732 C 0.60258 0.26773 0.20141 0.0
C2733 C 0.62303 0.26875 0.21692 0.0
C2734 C 0.63788 0.25223 0.21153 0.0
C2735 C 0.63236 0.23444 0.19112 0.0
C2736 C 0.61187 0.23298 0.17646 0.0
C2737 C 0.597 0.2495 0.18165 0.0
H2738 H 0.64392 0.22174 0.18683 0.0
H2739 H 0.51062 0.39184 0.22313 0.0
H2740 H 0.97891 0.35442 0.33255 0.0
H2741 H 0.96834 0.34542 0.39312 0.0
H2742 H 0.92927 0.2938 0.35393 0.0
H2743 H 0.93846 0.30396 0.29383 0.0
H2744 H 0.90953 0.30093 0.40539 0.0
H2745 H 0.98486 0.29376 0.4067 0.0
H2746 H 0.02309 0.30313 0.39994 0.0
H2747 H 0.01584 0.35346 0.47633 0.0
H2748 H 0.97744 0.34456 0.48332 0.0
H2749 H 0.91915 0.31101 0.6154 0.0
H2750 H 0.92993 0.32097 0.55556 0.0
H2751 H 0.90951 0.25937 0.51777 0.0
H2752 H 0.89886 0.24921 0.57807 0.0
H2753 H 0.9589 0.30903 0.50624 0.0
H2754 H 0.88098 0.31095 0.50258 0.0
H2755 H 0.84482 0.29528 0.50914 0.0
H2756 H 0.86129 0.24572 0.43516 0.0
H2757 H 0.89762 0.26099 0.42842 0.0
C2758 C 0.96795 0.34121 0.33659 0.0
C2759 C 0.9596 0.33033 0.30677 0.0
C2760 C 0.96197 0.33565 0.37212 0.0
C2761 C 0.94793 0.31822 0.38047 0.0
C2762 C 0.93985 0.30736 0.35038 0.0
C2763 C 0.94532 0.31329 0.31505 0.0
C2764 C 0.94141 0.31141 0.41933 0.0
C2765 C 0.92081 0.30257 0.42686 0.0
C2766 C 0.95515 0.31311 0.44951 0.0
C2767 C 0.97817 0.31868 0.44523 0.0
C2768 C 0.99136 0.30694 0.42188 0.0
C2769 C 0.01307 0.31214 0.41803 0.0
C2770 C 0.02187 0.32892 0.43759 0.0
C2771 C 0.00898 0.34049 0.46113 0.0
C2772 C 0.98723 0.33538 0.46508 0.0
C2773 C 0.91663 0.29942 0.5946 0.0
C2774 C 0.90748 0.27917 0.6031 0.0
C2775 C 0.92311 0.30523 0.55962 0.0
C2776 C 0.92063 0.29141 0.5302 0.0
C2777 C 0.91157 0.27104 0.53858 0.0
C2778 C 0.90531 0.26509 0.57381 0.0
C2779 C 0.92732 0.29842 0.49172 0.0
C2780 C 0.9478 0.30751 0.48447 0.0
C2781 C 0.91389 0.29601 0.46149 0.0
C2782 C 0.89203 0.28702 0.4652 0.0
C2783 C 0.8769 0.29666 0.48783 0.0
C2784 C 0.85638 0.28786 0.49157 0.0
C2785 C 0.85078 0.26949 0.47263 0.0
C2786 C 0.86566 0.25993 0.44983 0.0
C2787 C 0.8862 0.26867 0.44601 0.0
H2788 H 0.83489 0.26269 0.47557 0.0
H2789 H 0.03869 0.33293 0.43457 0.0
H2790 H 0.92299 0.63861 0.86116 0.0
H2791 H 0.91275 0.65028 0.80163 0.0
H2792 H 0.9781 0.66857 0.78087 0.0
H2793 H 0.98853 0.65611 0.83989 0.0
H2794 H 0.95063 0.69988 0.75321 0.0
H2795 H 0.95463 0.62354 0.74109 0.0
H2796 H 0.94571 0.58609 0.75543 0.0
H2797 H 0.87914 0.59846 0.73393 0.0
H2798 H 0.88763 0.63609 0.71992 0.0
H2799 H 0.89887 0.73492 0.58834 0.0
H2800 H 0.90836 0.72442 0.64841 0.0
H2801 H 0.92629 0.66176 0.61104 0.0
H2802 H 0.91603 0.67207 0.55132 0.0
H2803 H 0.91304 0.65249 0.6691 0.0
H2804 H 0.91301 0.73246 0.72093 0.0
H2805 H 0.92447 0.77026 0.71764 0.0
H2806 H 0.9837 0.75081 0.66904 0.0
H2807 H 0.97211 0.71308 0.67024 0.0
C2808 C 0.93543 0.64476 0.84399 0.0
C2809 C 0.95693 0.64567 0.85658 0.0
C2810 C 0.92944 0.65163 0.80923 0.0
C2811 C 0.94438 0.66048 0.78485 0.0
C2812 C 0.96579 0.66184 0.79772 0.0
C2813 C 0.9719 0.65441 0.8321 0.0
C2814 C 0.93782 0.66825 0.74678 0.0
C2815 C 0.94228 0.68933 0.73517 0.0
C2816 C 0.92687 0.65525 0.72148 0.0
C2817 C 0.92174 0.63267 0.72978 0.0
C2818 C 0.93806 0.61832 0.73969 0.0
C2819 C 0.93309 0.59706 0.74771 0.0
C2820 C 0.91186 0.58992 0.74568 0.0
C2821 C 0.89557 0.60402 0.73554 0.0
C2822 C 0.90046 0.62531 0.72753 0.0
C2823 C 0.90475 0.71881 0.59257 0.0
C2824 C 0.9062 0.70459 0.56328 0.0
C2825 C 0.91075 0.71271 0.62786 0.0
C2826 C 0.9189 0.69197 0.63663 0.0
C2827 C 0.92021 0.67783 0.60716 0.0
C2828 C 0.91419 0.68389 0.57202 0.0
C2829 C 0.92534 0.68455 0.67531 0.0
C2830 C 0.92112 0.66327 0.68707 0.0
C2831 C 0.936 0.69756 0.70123 0.0
C2832 C 0.94141 0.72013 0.69463 0.0
C2833 C 0.9282 0.73639 0.70852 0.0
C2834 C 0.93469 0.75778 0.70691 0.0
C2835 C 0.9546 0.763 0.69224 0.0
C2836 C 0.96795 0.74685 0.67898 0.0
C2837 C 0.96135 0.72547 0.67982 0.0
H2838 H 0.95978 0.77952 0.6916 0.0
H2839 H 0.90804 0.57345 0.75189 0.0
H2840 H 0.39792 0.39236 0.35161 0.0
H2841 H 0.38655 0.39583 0.29108 0.0
H2842 H 0.44496 0.42944 0.26597 0.0
H2843 H 0.45591 0.42763 0.32742 0.0
H2844 H 0.39229 0.4282 0.22007 0.0
H2845 H 0.46923 0.3853 0.23398 0.0
H2846 H 0.49158 0.36683 0.27843 0.0
H2847 H 0.43485 0.34128 0.32701 0.0
H2848 H 0.41228 0.35924 0.2826 0.0
H2849 H 0.43133 0.34503 1.07478 0.0
H2850 H 0.43827 0.36968 0.12359 0.0
H2851 H 0.37037 0.37194 0.14708 0.0
H2852 H 0.36336 0.34751 0.09817 0.0
H2853 H 0.43139 0.36112 0.18981 0.0
H2854 H 0.35689 0.41798 0.1885 0.0
H2855 H 0.33386 0.43618 0.14515 0.0
H2856 H 0.38503 0.43407 1.06909 0.0
H2857 H 0.40849 0.41615 0.1121 0.0
C2858 C 0.40779 0.40184 0.3341 0.0
C2859 C 0.42843 0.40875 0.34407 0.0
C2860 C 0.40115 0.40383 0.29926 0.0
C2861 C 0.41523 0.41232 0.27412 0.0
C2862 C 0.434 0.42263 0.28512 0.0
C2863 C 0.44039 0.42121 0.32019 0.0
C2864 C 0.41412 0.40389 0.23802 0.0
C2865 C 0.40081 0.41362 0.21312 0.0
C2866 C 0.4256 0.38506 0.22921 0.0
C2867 C 0.43913 0.37375 0.25527 0.0
C2868 C 0.4616 0.37565 0.25409 0.0
C2869 C 0.47428 0.36527 0.27919 0.0
C2870 C 0.46464 0.35292 0.30546 0.0
C2871 C 0.4423 0.35088 0.30668 0.0
C2872 C 0.42957 0.36111 0.28153 0.0
C2873 C 0.41789 0.35096 0.09021 0.0
C2874 C 0.39683 0.34428 0.08289 0.0
C2875 C 0.42185 0.36512 0.11789 0.0
C2876 C 0.40482 0.37283 0.13873 0.0
C2877 C 0.38371 0.36662 0.13085 0.0
C2878 C 0.37973 0.35257 0.10302 0.0
C2879 C 0.40929 0.38524 0.17112 0.0
C2880 C 0.42322 0.37607 0.19584 0.0
C2881 C 0.39834 0.40456 0.17945 0.0
C2882 C 0.38441 0.41557 0.15351 0.0
C2883 C 0.36328 0.4215 0.1626 0.0
C2884 C 0.35014 0.43175 0.13806 0.0
C2885 C 0.35796 0.43623 0.10436 0.0
C2886 C 0.37896 0.43053 0.09516 0.0
C2887 C 0.39218 0.42029 0.11959 0.0
H2888 H 0.34775 0.44415 0.0854 0.0
H2889 H 0.47448 0.34491 0.32484 0.0
H2890 H 0.34006 0.63887 0.08342 0.0
H2891 H 0.34088 0.63375 1.02057 0.0
H2892 H 0.30699 0.69323 1.00583 0.0
H2893 H 0.30431 0.69781 1.06951 0.0
H2894 H 0.30702 0.66019 0.94431 0.0
H2895 H 0.35458 0.706 1.01501 0.0
H2896 H 0.37535 0.71413 1.06854 0.0
H2897 H 0.40877 0.65417 1.05858 0.0
H2898 H 0.38851 0.64596 1.0044 0.0
H2899 H 0.41458 0.68178 0.83565 0.0
H2900 H 0.38925 0.69099 0.88239 0.0
H2901 H 0.35612 0.63113 0.86591 0.0
H2902 H 0.38051 0.62247 0.81768 0.0
H2903 H 0.38587 0.67238 0.94071 0.0
H2904 H 0.30543 0.63203 0.89515 0.0
H2905 H 0.28436 0.62821 0.84068 0.0
H2906 H 0.31469 0.68415 0.79791 0.0
H2907 H 0.3357 0.68851 0.8523 0.0
C2908 C 0.33139 0.65026 1.06743 0.0
C2909 C 0.32327 0.66951 0.08167 0.0
C2910 C 0.33194 0.64725 1.03114 0.0
C2911 C 0.32481 0.66357 1.00881 0.0
C2912 C 0.31295 0.68066 1.02282 0.0
C2913 C 0.31178 0.68339 1.05929 0.0
C2914 C 0.33557 0.66597 0.97447 0.0
C2915 C 0.32422 0.66287 0.94317 0.0
C2916 C 0.3578 0.67053 0.9733 0.0
C2917 C 0.37015 0.67544 1.00562 0.0
C2918 C 0.36646 0.69463 1.02411 0.0
C2919 C 0.37814 0.69926 1.05454 0.0
C2920 C 0.39334 0.68466 1.06702 0.0
C2921 C 0.39696 0.66545 1.04894 0.0
C2922 C 0.3855 0.66087 1.01822 0.0
C2923 C 0.40155 0.67084 0.84128 0.0
C2924 C 0.39973 0.65128 0.82312 0.0
C2925 C 0.38712 0.67609 0.86817 0.0
C2926 C 0.37066 0.66184 0.87759 0.0
C2927 C 0.3684 0.64261 0.85875 0.0
C2928 C 0.38265 0.63748 0.83158 0.0
C2929 C 0.35762 0.6657 0.90973 0.0
C2930 C 0.3686 0.67003 0.9411 0.0
C2931 C 0.33498 0.66296 0.91053 0.0
C2932 C 0.32227 0.6605 0.87778 0.0
C2933 C 0.30753 0.64358 0.87422 0.0
C2934 C 0.29561 0.64131 0.84332 0.0
C2935 C 0.29823 0.6559 0.81582 0.0
C2936 C 0.31273 0.67282 0.81918 0.0
C2937 C 0.32468 0.67518 0.85002 0.0
H2938 H 0.28898 0.6541 0.79192 0.0
H2939 H 0.40231 0.68825 0.09066 0.0
H2940 H 0.14447 0.63551 0.57499 0.0
H2941 H 0.1497 0.62471 0.63553 0.0
H2942 H 0.19585 0.6754 0.64984 0.0
H2943 H 0.1909 0.68629 0.58856 0.0
H2944 H 0.17921 0.6155 0.68887 0.0
H2945 H 0.178 0.70377 0.71754 0.0
H2946 H 0.17194 0.73816 0.6872 0.0
H2947 H 0.12459 0.70859 0.62114 0.0
H2948 H 0.13041 0.67404 0.65117 0.0
H2949 H 0.12299 0.65898 0.86319 0.0
H2950 H 0.15035 0.6628 0.81694 0.0
H2951 H 0.11914 0.61341 0.75624 0.0
H2952 H 0.09208 0.60935 0.80235 0.0
H2953 H 0.14194 0.6753 0.75035 0.0
H2954 H 0.15422 0.58596 0.70799 0.0
H2955 H 0.15816 0.55073 0.73637 0.0
H2956 H 0.18046 0.58111 0.83088 0.0
H2957 H 0.17699 0.61652 0.80294 0.0
C2958 C 0.15658 0.64375 0.59026 0.0
C2959 C 0.16683 0.66216 0.57723 0.0
C2960 C 0.15958 0.63749 0.62504 0.0
C2961 C 0.17275 0.64959 0.64732 0.0
C2962 C 0.18538 0.66605 0.63307 0.0
C2963 C 0.18239 0.67235 0.59817 0.0
C2964 C 0.16883 0.64831 0.68563 0.0
C2965 C 0.17137 0.62859 0.70269 0.0
C2966 C 0.15895 0.66559 0.70371 0.0
C2967 C 0.15474 0.6864 0.68642 0.0
C2968 C 0.16622 0.70469 0.69667 0.0
C2969 C 0.16285 0.72417 0.67949 0.0
C2970 C 0.14785 0.72558 0.65229 0.0
C2971 C 0.13619 0.70749 0.64221 0.0
C2972 C 0.13954 0.68795 0.65927 0.0
C2973 C 0.12223 0.64872 0.8402 0.0
C2974 C 0.10535 0.63399 0.83614 0.0
C2975 C 0.13784 0.6509 0.81389 0.0
C2976 C 0.13695 0.63817 0.78345 0.0
C2977 C 0.1204 0.62309 0.77984 0.0
C2978 C 0.10476 0.62101 0.80594 0.0
C2979 C 0.15155 0.64216 0.75337 0.0
C2980 C 0.15079 0.66241 0.73761 0.0
C2981 C 0.16286 0.62528 0.73653 0.0
C2982 C 0.16528 0.60395 0.75333 0.0
C2983 C 0.16013 0.58515 0.73473 0.0
C2984 C 0.16224 0.56513 0.75077 0.0
C2985 C 0.16953 0.56368 0.78541 0.0
C2986 C 0.17477 0.58225 0.80407 0.0
C2987 C 0.1727 0.60231 0.78815 0.0
H2988 H 0.17114 0.54817 0.79779 0.0
H2989 H 0.14526 0.74068 0.63902 0.0
H2990 H 0.07798 0.38944 0.36143 0.0
H2991 H 0.10225 0.39473 0.41063 0.0
H2992 H 0.15399 0.36598 0.35086 0.0
H2993 H 0.12938 0.35976 0.30185 0.0
H2994 H 0.14928 0.34638 0.40965 0.0
H2995 H 0.15879 0.41856 0.38234 0.0
H2996 H 0.14968 0.4551 0.36304 0.0
H2997 H 0.10865 0.46326 0.4532 0.0
H2998 H 0.1172 0.42666 0.47282 0.0
H2999 H 0.1766 0.33593 0.58478 0.0
H3000 H 0.18404 0.35529 0.53019 0.0
H3001 H 0.11876 0.37867 0.52922 0.0
H3002 H 0.11133 0.35963 0.58392 0.0
H3003 H 0.14851 0.40671 0.49493 0.0
H3004 H 0.127 0.32986 0.4982 0.0
H3005 H 0.13349 0.29266 0.51736 0.0
H3006 H 0.19643 0.2942 0.47058 0.0
H3007 H 0.19034 0.33154 0.45157 0.0
C3008 C 0.09457 0.38439 0.35864 0.0
C3009 C 0.10168 0.37383 0.32808 0.0
C3010 C 0.10859 0.38786 0.38652 0.0
C3011 C 0.13008 0.38106 0.38428 0.0
C3012 C 0.13754 0.37156 0.353 0.0
C3013 C 0.12346 0.36799 0.32508 0.0
C3014 C 0.14304 0.38013 0.41681 0.0
C3015 C 0.15001 0.35985 0.42772 0.0
C3016 C 0.14395 0.39763 0.44054 0.0
C3017 C 0.13871 0.41979 0.42911 0.0
C3018 C 0.14774 0.42809 0.398 0.0
C3019 C 0.14267 0.44884 0.387 0.0
C3020 C 0.12861 0.4615 0.4069 0.0
C3021 C 0.11959 0.45345 0.43786 0.0
C3022 C 0.12459 0.43271 0.44899 0.0
C3023 C 0.16412 0.34592 0.57366 0.0
C3024 C 0.14324 0.34593 0.58795 0.0
C3025 C 0.16843 0.35702 0.5426 0.0
C3026 C 0.15187 0.36814 0.52556 0.0
C3027 C 0.13176 0.37019 0.54204 0.0
C3028 C 0.12743 0.35906 0.57297 0.0
C3029 C 0.15332 0.37288 0.48764 0.0
C3030 C 0.14902 0.39372 0.47595 0.0
C3031 C 0.15479 0.35594 0.46296 0.0
C3032 C 0.15833 0.33346 0.47384 0.0
C3033 C 0.14224 0.32225 0.49215 0.0
C3034 C 0.14585 0.30117 0.50298 0.0
C3035 C 0.16538 0.29109 0.49526 0.0
C3036 C 0.18133 0.30205 0.47661 0.0
C3037 C 0.17782 0.32317 0.46582 0.0
H3038 H 0.16815 0.27477 0.50366 0.0
H3039 H 0.1247 0.47755 0.39832 0.0
loop_
_geom_bond_atom_site_label_1
_geom_bond_atom_site_label_2
_geom_bond_distance
_geom_bond_site_symmetry_2
_ccdc_geom_bond_type
Dy0 O3 2.307 . S
Dy0 O5 2.395 . S
Dy0 O6 2.379 . S
Dy0 O8 2.349 . S
Dy0 O10 2.298 1_655 S
Dy0 O14 2.275 1_655 S
Dy0 C22 2.738 . S
Dy1 O4 2.298 . S
Dy1 O7 2.275 . S
Dy1 O9 2.307 . S
Dy1 O11 2.395 . S
Dy1 O12 2.379 . S
Dy1 O15 2.339 . S
Dy1 C31 2.738 . S
C2 O14 1.254 . S
C2 O15 1.257 . S
O3 Dy0 2.307 . S
O3 C13 1.266 . S
O4 Dy1 2.298 . S
O4 C13 1.236 1_455 S
O5 Dy0 2.395 . S
O5 C22 1.255 . S
O6 Dy0 2.379 . S
O6 C22 1.249 . S
O7 Dy1 2.275 . S
O7 C23 1.254 . S
O8 Dy0 2.349 . S
O8 C23 1.217 1_655 S
O9 Dy1 2.307 . S
O9 C24 1.266 . S
O10 Dy0 2.298 1_455 S
O10 C24 1.236 . S
O11 Dy1 2.395 . S
O11 C31 1.255 . S
O12 Dy1 2.379 . S
O12 C31 1.249 . S
C13 O3 1.266 . S
C13 O4 1.236 1_655 S
O14 Dy0 2.275 1_455 S
O14 C2 1.254 . S
O15 Dy1 2.339 . S
O15 C2 1.257 . S
C16 C19 1.344 . S
C16 C20 1.328 . S
C16 C22 1.516 . S
C17 C18 1.304 . S
C17 C21 1.323 . S
C18 C17 1.304 . S
C18 C19 1.371 . S
C18 H32 0.930 . S
C19 C16 1.344 . S
C19 C18 1.371 . S
C19 H33 0.931 . S
C20 C16 1.328 . S
C20 C21 1.433 . S
C20 H34 0.931 . S
C21 C17 1.323 . S
C21 C20 1.433 . S
C21 H35 0.933 . S
C22 Dy0 2.738 . S
C22 O5 1.255 . S
C22 O6 1.249 . S
C22 C16 1.516 . S
C23 O7 1.254 . S
C23 O8 1.217 1_455 S
C24 O9 1.266 . S
C24 O10 1.236 . S
C25 C28 1.344 1_554 S
C25 C29 1.328 1_554 S
C25 C31 1.516 . S
C26 C27 1.304 . S
C26 C30 1.323 . S
C27 C26 1.304 . S
C27 C28 1.371 . S
C27 H36 0.930 . S
C28 C25 1.344 1_556 S
C28 C27 1.371 . S
C28 H37 0.931 . S
C29 C25 1.328 1_556 S
C29 C30 1.433 . S
C29 H38 0.931 1_556 S
C30 C26 1.323 . S
C30 C29 1.433 . S
C30 H39 0.933 . S
C31 Dy1 2.738 . S
C31 O11 1.255 . S
C31 O12 1.249 . S
C31 C25 1.516 . S
H32 C18 0.930 . S
H33 C19 0.931 . S
H34 C20 0.931 . S
H35 C21 0.933 . S
H36 C27 0.930 . S
H37 C28 0.931 . S
H38 C29 0.931 1_554 S
H39 C30 0.933 . S
Dy40 O43 2.307 . S
Dy40 O45 2.395 . S
Dy40 O46 2.379 . S
Dy40 O48 2.339 . S
Dy40 O50 2.298 . S
Dy40 O54 2.275 . S
Dy40 C62 2.738 . S
Dy41 O44 2.298 . S
Dy41 O47 2.275 . S
Dy41 O49 2.307 . S
Dy41 O51 2.395 . S
Dy41 O52 2.379 . S
Dy41 O55 2.339 . S
Dy41 C71 2.738 . S
C42 O54 1.254 . S
C42 O55 1.257 . S
O43 Dy40 2.307 . S
O43 C53 1.266 . S
O44 Dy41 2.298 . S
O44 C53 1.236 . S
O45 Dy40 2.395 . S
O45 C62 1.255 . S
O46 Dy40 2.379 . S
O46 C62 1.249 . S
O47 Dy41 2.275 . S
O47 C63 1.254 . S
O48 Dy40 2.339 . S
O48 C63 1.257 . S
O49 Dy41 2.307 . S
O49 C64 1.266 . S
O50 Dy40 2.298 . S
O50 C64 1.236 . S
O51 Dy41 2.395 . S
O51 C71 1.255 . S
O52 Dy41 2.379 . S
O52 C71 1.249 . S
C53 O43 1.266 . S
C53 O44 1.236 . S
O54 Dy40 2.275 . S
O54 C42 1.254 . S
O55 Dy41 2.339 . S
O55 C42 1.257 . S
C56 C59 1.344 . S
C56 C60 1.328 . S
C56 C62 1.516 . S
C57 C58 1.304 . S
C57 C61 1.323 . S
C58 C57 1.304 . S
C58 C59 1.371 . S
C58 H72 0.930 . S
C59 C56 1.344 . S
C59 C58 1.371 . S
C59 H73 0.931 . S
C60 C56 1.328 . S
C60 C61 1.433 . S
C60 H74 0.931 . S
C61 C57 1.323 . S
C61 C60 1.433 . S
C61 H75 0.933 . S
C62 Dy40 2.738 . S
C62 O45 1.255 . S
C62 O46 1.249 . S
C62 C56 1.516 . S
C63 O47 1.254 . S
C63 O48 1.257 . S
C64 O49 1.266 . S
C64 O50 1.236 . S
C65 C68 1.344 . S
C65 C69 1.328 . S
C65 C71 1.516 . S
C66 C67 1.304 . S
C66 C70 1.323 . S
C67 C66 1.304 . S
C67 C68 1.371 . S
C67 H76 0.930 . S
C68 C65 1.344 . S
C68 C67 1.371 . S
C68 H77 0.931 . S
C69 C65 1.328 . S
C69 C70 1.433 . S
C69 H78 0.931 . S
C70 C66 1.323 . S
C70 C69 1.433 . S
C70 H79 0.933 . S
C71 Dy41 2.738 . S
C71 O51 1.255 . S
C71 O52 1.249 . S
C71 C65 1.516 . S
H72 C58 0.930 . S
H73 C59 0.931 . S
H74 C60 0.931 . S
H75 C61 0.933 . S
H76 C67 0.930 . S
H77 C68 0.931 . S
H78 C69 0.931 . S
H79 C70 0.933 . S
Dy80 O83 2.307 . S
Dy80 O85 2.395 . S
Dy80 O86 2.379 . S
Dy80 O88 2.339 . S
Dy80 O90 2.298 . S
Dy80 O94 2.275 . S
Dy80 C102 2.738 . S
Dy81 O84 2.298 . S
Dy81 O87 2.275 . S
Dy81 O89 2.307 . S
Dy81 O91 2.395 . S
Dy81 O92 2.379 . S
Dy81 O95 2.339 . S
Dy81 C111 2.738 . S
C82 O94 1.254 . S
C82 O95 1.257 . S
O83 Dy80 2.307 . S
O83 C93 1.266 . S
O84 Dy81 2.298 . S
O84 C93 1.236 . S
O85 Dy80 2.395 . S
O85 C102 1.255 . S
O86 Dy80 2.379 . S
O86 C102 1.249 . S
O87 Dy81 2.275 . S
O87 C103 1.254 . S
O88 Dy80 2.339 . S
O88 C103 1.257 . S
O89 Dy81 2.307 . S
O89 C104 1.266 . S
O90 Dy80 2.298 . S
O90 C104 1.236 . S
O91 Dy81 2.395 . S
O91 C111 1.255 . S
O92 Dy81 2.379 . S
O92 C111 1.249 . S
C93 O83 1.266 . S
C93 O84 1.236 . S
O94 Dy80 2.275 . S
O94 C82 1.254 . S
O95 Dy81 2.339 . S
O95 C82 1.257 . S
C96 C99 1.344 . S
C96 C100 1.328 . S
C96 C102 1.516 . S
C97 C98 1.304 . S
C97 C101 1.323 . S
C98 C97 1.304 . S
C98 C99 1.371 . S
C98 H112 0.930 . S
C99 C96 1.344 . S
C99 C98 1.371 . S
C99 H113 0.931 . S
C100 C96 1.328 . S
C100 C101 1.433 . S
C100 H114 0.931 . S
C101 C97 1.323 . S
C101 C100 1.433 . S
C101 H115 0.933 . S
C102 Dy80 2.738 . S
C102 O85 1.255 . S
C102 O86 1.249 . S
C102 C96 1.516 . S
C103 O87 1.254 . S
C103 O88 1.257 . S
C104 O89 1.266 . S
C104 O90 1.236 . S
C105 C108 1.344 . S
C105 C109 1.328 . S
C105 C111 1.516 . S
C106 C107 1.304 . S
C106 C110 1.323 . S
C107 C106 1.304 . S
C107 C108 1.371 . S
C107 H116 0.930 . S
C108 C105 1.344 . S
C108 C107 1.371 . S
C108 H117 0.931 . S
C109 C105 1.328 . S
C109 C110 1.433 . S
C109 H118 0.931 . S
C110 C106 1.323 . S
C110 C109 1.433 . S
C110 H119 0.933 . S
C111 Dy81 2.738 . S
C111 O91 1.255 . S
C111 O92 1.249 . S
C111 C105 1.516 . S
H112 C98 0.930 . S
H113 C99 0.931 . S
H114 C100 0.931 . S
H115 C101 0.933 . S
H116 C107 0.930 . S
H117 C108 0.931 . S
H118 C109 0.931 . S
H119 C110 0.933 . S
Dy120 O123 2.307 . S
Dy120 O125 2.395 . S
Dy120 O126 2.379 . S
Dy120 O128 2.339 . S
Dy120 O130 2.298 . S
Dy120 O134 2.275 . S
Dy120 C142 2.738 . S
Dy121 O124 2.298 . S
Dy121 O127 2.275 . S
Dy121 O129 2.307 . S
Dy121 O131 2.395 . S
Dy121 O132 2.379 . S
Dy121 O135 2.339 . S
Dy121 C151 2.738 . S
C122 O134 1.254 . S
C122 O135 1.257 . S
O123 Dy120 2.307 . S
O123 C133 1.266 . S
O124 Dy121 2.298 . S
O124 C133 1.236 . S
O125 Dy120 2.395 . S
O125 C142 1.255 . S
O126 Dy120 2.379 . S
O126 C142 1.249 . S
O127 Dy121 2.275 . S
O127 C143 1.254 . S
O128 Dy120 2.339 . S
O128 C143 1.257 . S
O129 Dy121 2.307 . S
O129 C144 1.266 . S
O130 Dy120 2.298 . S
O130 C144 1.236 . S
O131 Dy121 2.395 . S
O131 C151 1.255 . S
O132 Dy121 2.379 . S
O132 C151 1.249 . S
C133 O123 1.266 . S
C133 O124 1.236 . S
O134 Dy120 2.275 . S
O134 C122 1.254 . S
O135 Dy121 2.339 . S
O135 C122 1.257 . S
C136 C139 1.345 . S
C136 C140 1.328 . S
C136 C142 1.516 . S
C137 C138 1.304 . S
C137 C141 1.323 . S
C138 C137 1.304 . S
C138 C139 1.369 1_554 S
C138 H152 0.930 . S
C139 C136 1.345 . S
C139 C138 1.369 1_556 S
C139 H153 0.932 . S
C140 C136 1.328 . S
C140 C141 1.433 1_556 S
C140 H154 0.931 . S
C141 C137 1.323 . S
C141 C140 1.433 1_554 S
C141 H155 0.933 . S
C142 Dy120 2.738 . S
C142 O125 1.255 . S
C142 O126 1.249 . S
C142 C136 1.516 . S
C143 O127 1.254 . S
C143 O128 1.257 . S
C144 O129 1.266 . S
C144 O130 1.236 . S
C145 C148 1.344 . S
C145 C149 1.328 . S
C145 C151 1.516 . S
C146 C147 1.304 . S
C146 C150 1.323 . S
C147 C146 1.304 . S
C147 C148 1.371 . S
C147 H156 0.930 . S
C148 C145 1.344 . S
C148 C147 1.371 . S
C148 H157 0.931 . S
C149 C145 1.328 . S
C149 C150 1.433 . S
C149 H158 0.931 . S
C150 C146 1.323 . S
C150 C149 1.433 . S
C150 H159 0.933 . S
C151 Dy121 2.738 . S
C151 O131 1.255 . S
C151 O132 1.249 . S
C151 C145 1.516 . S
H152 C138 0.930 . S
H153 C139 0.932 . S
H154 C140 0.931 . S
H155 C141 0.933 . S
H156 C147 0.930 . S
H157 C148 0.931 . S
H158 C149 0.931 . S
H159 C150 0.933 . S
Dy160 O163 2.307 . S
Dy160 O165 2.395 . S
Dy160 O166 2.379 . S
Dy160 O168 2.349 . S
Dy160 O170 2.298 1_655 S
Dy160 O174 2.275 1_655 S
Dy160 C182 2.738 . S
Dy161 O164 2.298 . S
Dy161 O167 2.275 . S
Dy161 O169 2.307 . S
Dy161 O171 2.395 . S
Dy161 O172 2.379 . S
Dy161 O175 2.339 . S
Dy161 C191 2.738 . S
C162 O174 1.254 . S
C162 O175 1.257 . S
O163 Dy160 2.307 . S
O163 C173 1.266 . S
O164 Dy161 2.298 . S
O164 C173 1.236 1_455 S
O165 Dy160 2.395 . S
O165 C182 1.255 . S
O166 Dy160 2.379 . S
O166 C182 1.249 . S
O167 Dy161 2.275 . S
O167 C183 1.254 . S
O168 Dy160 2.349 . S
O168 C183 1.217 1_655 S
O169 Dy161 2.307 . S
O169 C184 1.266 . S
O170 Dy160 2.298 1_455 S
O170 C184 1.236 . S
O171 Dy161 2.395 . S
O171 C191 1.255 . S
O172 Dy161 2.379 . S
O172 C191 1.249 . S
C173 O163 1.266 . S
C173 O164 1.236 1_655 S
O174 Dy160 2.275 1_455 S
O174 C162 1.254 . S
O175 Dy161 2.339 . S
O175 C162 1.257 . S
C176 C179 1.344 . S
C176 C180 1.328 . S
C176 C182 1.516 . S
C177 C178 1.304 . S
C177 C181 1.323 . S
C178 C177 1.304 . S
C178 C179 1.371 . S
C178 H192 0.930 . S
C179 C176 1.344 . S
C179 C178 1.371 . S
C179 H193 0.931 . S
C180 C176 1.328 . S
C180 C181 1.433 . S
C180 H194 0.931 . S
C181 C177 1.323 . S
C181 C180 1.433 . S
C181 H195 0.933 . S
C182 Dy160 2.738 . S
C182 O165 1.255 . S
C182 O166 1.249 . S
C182 C176 1.516 . S
C183 O167 1.254 . S
C183 O168 1.217 1_455 S
C184 O169 1.266 . S
C184 O170 1.236 . S
C185 C188 1.344 1_556 S
C185 C189 1.328 1_556 S
C185 C191 1.516 . S
C186 C187 1.304 . S
C186 C190 1.323 . S
C187 C186 1.304 . S
C187 C188 1.371 . S
C187 H196 0.930 . S
C188 C185 1.344 1_554 S
C188 C187 1.371 . S
C188 H197 0.931 . S
C189 C185 1.328 1_554 S
C189 C190 1.433 . S
C189 H198 0.931 1_554 S
C190 C186 1.323 . S
C190 C189 1.433 . S
C190 H199 0.933 . S
C191 Dy161 2.738 . S
C191 O171 1.255 . S
C191 O172 1.249 . S
C191 C185 1.516 . S
H192 C178 0.930 . S
H193 C179 0.931 . S
H194 C180 0.931 . S
H195 C181 0.933 . S
H196 C187 0.930 . S
H197 C188 0.931 . S
H198 C189 0.931 1_556 S
H199 C190 0.933 . S
Dy200 O203 2.307 . S
Dy200 O205 2.395 . S
Dy200 O206 2.379 . S
Dy200 O208 2.339 . S
Dy200 O210 2.298 . S
Dy200 O214 2.275 . S
Dy200 C222 2.738 . S
Dy201 O204 2.298 . S
Dy201 O207 2.275 . S
Dy201 O209 2.307 . S
Dy201 O211 2.395 . S
Dy201 O212 2.379 . S
Dy201 O215 2.339 . S
Dy201 C231 2.738 . S
C202 O214 1.254 . S
C202 O215 1.257 . S
O203 Dy200 2.307 . S
O203 C213 1.266 . S
O204 Dy201 2.298 . S
O204 C213 1.236 . S
O205 Dy200 2.395 . S
O205 C222 1.255 . S
O206 Dy200 2.379 . S
O206 C222 1.249 . S
O207 Dy201 2.275 . S
O207 C223 1.254 . S
O208 Dy200 2.339 . S
O208 C223 1.257 . S
O209 Dy201 2.307 . S
O209 C224 1.266 . S
O210 Dy200 2.298 . S
O210 C224 1.236 . S
O211 Dy201 2.395 . S
O211 C231 1.255 . S
O212 Dy201 2.379 . S
O212 C231 1.249 . S
C213 O203 1.266 . S
C213 O204 1.236 . S
O214 Dy200 2.275 . S
O214 C202 1.254 . S
O215 Dy201 2.339 . S
O215 C202 1.257 . S
C216 C219 1.345 . S
C216 C220 1.328 . S
C216 C222 1.516 . S
C217 C218 1.304 . S
C217 C221 1.323 . S
C218 C217 1.304 . S
C218 C219 1.369 1_556 S
C218 H232 0.930 . S
C219 C216 1.345 . S
C219 C218 1.369 1_554 S
C219 H233 0.932 . S
C220 C216 1.328 . S
C220 C221 1.433 1_554 S
C220 H234 0.931 . S
C221 C217 1.323 . S
C221 C220 1.433 1_556 S
C221 H235 0.933 . S
C222 Dy200 2.738 . S
C222 O205 1.255 . S
C222 O206 1.249 . S
C222 C216 1.516 . S
C223 O207 1.254 . S
C223 O208 1.257 . S
C224 O209 1.266 . S
C224 O210 1.236 . S
C225 C228 1.344 . S
C225 C229 1.328 . S
C225 C231 1.516 . S
C226 C227 1.304 . S
C226 C230 1.323 . S
C227 C226 1.304 . S
C227 C228 1.371 . S
C227 H236 0.930 . S
C228 C225 1.344 . S
C228 C227 1.371 . S
C228 H237 0.931 . S
C229 C225 1.328 . S
C229 C230 1.433 . S
C229 H238 0.931 . S
C230 C226 1.323 . S
C230 C229 1.433 . S
C230 H239 0.933 . S
C231 Dy201 2.738 . S
C231 O211 1.255 . S
C231 O212 1.249 . S
C231 C225 1.516 . S
H232 C218 0.930 . S
H233 C219 0.932 . S
H234 C220 0.931 . S
H235 C221 0.933 . S
H236 C227 0.930 . S
H237 C228 0.931 . S
H238 C229 0.931 . S
H239 C230 0.933 . S
Dy240 O243 2.307 . S
Dy240 O245 2.395 . S
Dy240 O246 2.379 . S
Dy240 O248 2.339 . S
Dy240 O250 2.298 . S
Dy240 O254 2.275 . S
Dy240 C262 2.738 . S
Dy241 O244 2.298 . S
Dy241 O247 2.275 . S
Dy241 O249 2.307 . S
Dy241 O251 2.395 . S
Dy241 O252 2.379 . S
Dy241 O255 2.339 . S
Dy241 C271 2.738 . S
C242 O254 1.254 . S
C242 O255 1.257 . S
O243 Dy240 2.307 . S
O243 C253 1.266 . S
O244 Dy241 2.298 . S
O244 C253 1.236 . S
O245 Dy240 2.395 . S
O245 C262 1.255 . S
O246 Dy240 2.379 . S
O246 C262 1.249 . S
O247 Dy241 2.275 . S
O247 C263 1.254 . S
O248 Dy240 2.339 . S
O248 C263 1.257 . S
O249 Dy241 2.307 . S
O249 C264 1.266 . S
O250 Dy240 2.298 . S
O250 C264 1.236 . S
O251 Dy241 2.395 . S
O251 C271 1.255 . S
O252 Dy241 2.379 . S
O252 C271 1.249 . S
C253 O243 1.266 . S
C253 O244 1.236 . S
O254 Dy240 2.275 . S
O254 C242 1.254 . S
O255 Dy241 2.339 . S
O255 C242 1.257 . S
C256 C259 1.344 . S
C256 C260 1.328 . S
C256 C262 1.516 . S
C257 C258 1.304 . S
C257 C261 1.323 . S
C258 C257 1.304 . S
C258 C259 1.371 . S
C258 H272 0.930 . S
C259 C256 1.344 . S
C259 C258 1.371 . S
C259 H273 0.931 . S
C260 C256 1.328 . S
C260 C261 1.433 . S
C260 H274 0.931 . S
C261 C257 1.323 . S
C261 C260 1.433 . S
C261 H275 0.933 . S
C262 Dy240 2.738 . S
C262 O245 1.255 . S
C262 O246 1.249 . S
C262 C256 1.516 . S
C263 O247 1.254 . S
C263 O248 1.257 . S
C264 O249 1.266 . S
C264 O250 1.236 . S
C265 C268 1.344 . S
C265 C269 1.328 . S
C265 C271 1.516 . S
C266 C267 1.304 . S
C266 C270 1.323 . S
C267 C266 1.304 . S
C267 C268 1.371 . S
C267 H276 0.930 . S
C268 C265 1.344 . S
C268 C267 1.371 . S
C268 H277 0.931 . S
C269 C265 1.328 . S
C269 C270 1.433 . S
C269 H278 0.931 . S
C270 C266 1.323 . S
C270 C269 1.433 . S
C270 H279 0.933 . S
C271 Dy241 2.738 . S
C271 O251 1.255 . S
C271 O252 1.249 . S
C271 C265 1.516 . S
H272 C258 0.930 . S
H273 C259 0.931 . S
H274 C260 0.931 . S
H275 C261 0.933 . S
H276 C267 0.930 . S
H277 C268 0.931 . S
H278 C269 0.931 . S
H279 C270 0.933 . S
Dy280 O283 2.307 . S
Dy280 O285 2.395 . S
Dy280 O286 2.379 . S
Dy280 O288 2.339 . S
Dy280 O290 2.298 . S
Dy280 O294 2.275 . S
Dy280 C302 2.738 . S
Dy281 O284 2.298 . S
Dy281 O287 2.275 . S
Dy281 O289 2.307 . S
Dy281 O291 2.395 . S
Dy281 O292 2.379 . S
Dy281 O295 2.339 . S
Dy281 C311 2.738 . S
C282 O294 1.254 . S
C282 O295 1.257 . S
O283 Dy280 2.307 . S
O283 C293 1.266 . S
O284 Dy281 2.298 . S
O284 C293 1.236 . S
O285 Dy280 2.395 . S
O285 C302 1.255 . S
O286 Dy280 2.379 . S
O286 C302 1.249 . S
O287 Dy281 2.275 . S
O287 C303 1.254 . S
O288 Dy280 2.339 . S
O288 C303 1.257 . S
O289 Dy281 2.307 . S
O289 C304 1.266 . S
O290 Dy280 2.298 . S
O290 C304 1.236 . S
O291 Dy281 2.395 . S
O291 C311 1.255 . S
O292 Dy281 2.379 . S
O292 C311 1.249 . S
C293 O283 1.266 . S
C293 O284 1.236 . S
O294 Dy280 2.275 . S
O294 C282 1.254 . S
O295 Dy281 2.339 . S
O295 C282 1.257 . S
C296 C299 1.344 . S
C296 C300 1.328 . S
C296 C302 1.516 . S
C297 C298 1.304 . S
C297 C301 1.323 . S
C298 C297 1.304 . S
C298 C299 1.371 . S
C298 H312 0.930 . S
C299 C296 1.344 . S
C299 C298 1.371 . S
C299 H313 0.931 . S
C300 C296 1.328 . S
C300 C301 1.433 . S
C300 H314 0.931 . S
C301 C297 1.323 . S
C301 C300 1.433 . S
C301 H315 0.933 . S
C302 Dy280 2.738 . S
C302 O285 1.255 . S
C302 O286 1.249 . S
C302 C296 1.516 . S
C303 O287 1.254 . S
C303 O288 1.257 . S
C304 O289 1.266 . S
C304 O290 1.236 . S
C305 C308 1.344 . S
C305 C309 1.328 . S
C305 C311 1.516 . S
C306 C307 1.304 . S
C306 C310 1.323 . S
C307 C306 1.304 . S
C307 C308 1.371 . S
C307 H316 0.930 . S
C308 C305 1.344 . S
C308 C307 1.371 . S
C308 H317 0.931 . S
C309 C305 1.328 . S
C309 C310 1.433 . S
C309 H318 0.931 . S
C310 C306 1.323 . S
C310 C309 1.433 . S
C310 H319 0.933 . S
C311 Dy281 2.738 . S
C311 O291 1.255 . S
C311 O292 1.249 . S
C311 C305 1.516 . S
H312 C298 0.930 . S
H313 C299 0.931 . S
H314 C300 0.931 . S
H315 C301 0.933 . S
H316 C307 0.930 . S
H317 C308 0.931 . S
H318 C309 0.931 . S
H319 C310 0.933 . S
Dy320 O323 2.307 . S
Dy320 O325 2.395 . S
Dy320 O326 2.379 . S
Dy320 O328 2.339 . S
Dy320 O330 2.298 . S
Dy320 O334 2.275 . S
Dy320 C342 2.738 . S
Dy321 O324 2.298 . S
Dy321 O327 2.275 . S
Dy321 O329 2.307 . S
Dy321 O331 2.395 . S
Dy321 O332 2.379 . S
Dy321 O335 2.339 . S
Dy321 C351 2.738 . S
C322 O334 1.254 . S
C322 O335 1.257 . S
O323 Dy320 2.307 . S
O323 C333 1.266 . S
O324 Dy321 2.298 . S
O324 C333 1.236 . S
O325 Dy320 2.395 . S
O325 C342 1.255 . S
O326 Dy320 2.379 . S
O326 C342 1.249 . S
O327 Dy321 2.275 . S
O327 C343 1.254 . S
O328 Dy320 2.339 . S
O328 C343 1.257 . S
O329 Dy321 2.307 . S
O329 C344 1.266 . S
O330 Dy320 2.298 . S
O330 C344 1.236 . S
O331 Dy321 2.395 . S
O331 C351 1.255 . S
O332 Dy321 2.379 . S
O332 C351 1.249 . S
C333 O323 1.266 . S
C333 O324 1.236 . S
O334 Dy320 2.275 . S
O334 C322 1.254 . S
O335 Dy321 2.339 . S
O335 C322 1.257 . S
C336 C339 1.344 . S
C336 C340 1.328 . S
C336 C342 1.516 . S
C337 C338 1.304 . S
C337 C341 1.323 . S
C338 C337 1.304 . S
C338 C339 1.371 . S
C338 H352 0.930 . S
C339 C336 1.344 . S
C339 C338 1.371 . S
C339 H353 0.931 . S
C340 C336 1.328 . S
C340 C341 1.433 . S
C340 H354 0.931 . S
C341 C337 1.323 . S
C341 C340 1.433 . S
C341 H355 0.933 . S
C342 Dy320 2.738 . S
C342 O325 1.255 . S
C342 O326 1.249 . S
C342 C336 1.516 . S
C343 O327 1.254 . S
C343 O328 1.257 . S
C344 O329 1.266 . S
C344 O330 1.236 . S
C345 C348 1.344 . S
C345 C349 1.328 . S
C345 C351 1.516 . S
C346 C347 1.304 . S
C346 C350 1.323 . S
C347 C346 1.304 . S
C347 C348 1.371 . S
C347 H356 0.930 . S
C348 C345 1.344 . S
C348 C347 1.371 . S
C348 H357 0.931 . S
C349 C345 1.328 . S
C349 C350 1.433 . S
C349 H358 0.931 . S
C350 C346 1.323 . S
C350 C349 1.433 . S
C350 H359 0.933 . S
C351 Dy321 2.738 . S
C351 O331 1.255 . S
C351 O332 1.249 . S
C351 C345 1.516 . S
H352 C338 0.930 . S
H353 C339 0.931 . S
H354 C340 0.931 . S
H355 C341 0.933 . S
H356 C347 0.930 . S
H357 C348 0.931 . S
H358 C349 0.931 . S
H359 C350 0.933 . S
Dy360 O363 2.307 . S
Dy360 O365 2.395 . S
Dy360 O366 2.379 . S
Dy360 O368 2.339 . S
Dy360 O370 2.298 . S
Dy360 O374 2.275 . S
Dy360 C382 2.738 . S
Dy361 O364 2.298 . S
Dy361 O367 2.275 . S
Dy361 O369 2.307 . S
Dy361 O371 2.395 . S
Dy361 O372 2.379 . S
Dy361 O375 2.339 . S
Dy361 C391 2.738 . S
C362 O374 1.254 . S
C362 O375 1.257 . S
O363 Dy360 2.307 . S
O363 C373 1.266 . S
O364 Dy361 2.298 . S
O364 C373 1.236 . S
O365 Dy360 2.395 . S
O365 C382 1.255 . S
O366 Dy360 2.379 . S
O366 C382 1.249 . S
O367 Dy361 2.275 . S
O367 C383 1.254 . S
O368 Dy360 2.339 . S
O368 C383 1.257 . S
O369 Dy361 2.307 . S
O369 C384 1.266 . S
O370 Dy360 2.298 . S
O370 C384 1.236 . S
O371 Dy361 2.395 . S
O371 C391 1.255 . S
O372 Dy361 2.379 . S
O372 C391 1.249 . S
C373 O363 1.266 . S
C373 O364 1.236 . S
O374 Dy360 2.275 . S
O374 C362 1.254 . S
O375 Dy361 2.339 . S
O375 C362 1.257 . S
C376 C379 1.345 . S
C376 C380 1.328 . S
C376 C382 1.516 . S
C377 C378 1.304 . S
C377 C381 1.323 . S
C378 C377 1.304 . S
C378 C379 1.369 1_556 S
C378 H392 0.930 . S
C379 C376 1.345 . S
C379 C378 1.369 1_554 S
C379 H393 0.932 . S
C380 C376 1.328 . S
C380 C381 1.433 1_554 S
C380 H394 0.931 . S
C381 C377 1.323 . S
C381 C380 1.433 1_556 S
C381 H395 0.933 . S
C382 Dy360 2.738 . S
C382 O365 1.255 . S
C382 O366 1.249 . S
C382 C376 1.516 . S
C383 O367 1.254 . S
C383 O368 1.257 . S
C384 O369 1.266 . S
C384 O370 1.236 . S
C385 C388 1.344 . S
C385 C389 1.328 . S
C385 C391 1.516 . S
C386 C387 1.304 . S
C386 C390 1.323 . S
C387 C386 1.304 . S
C387 C388 1.371 . S
C387 H396 0.930 . S
C388 C385 1.344 . S
C388 C387 1.371 . S
C388 H397 0.931 . S
C389 C385 1.328 . S
C389 C390 1.433 . S
C389 H398 0.931 . S
C390 C386 1.323 . S
C390 C389 1.433 . S
C390 H399 0.933 . S
C391 Dy361 2.738 . S
C391 O371 1.255 . S
C391 O372 1.249 . S
C391 C385 1.516 . S
H392 C378 0.930 . S
H393 C379 0.932 . S
H394 C380 0.931 . S
H395 C381 0.933 . S
H396 C387 0.930 . S
H397 C388 0.931 . S
H398 C389 0.931 . S
H399 C390 0.933 . S
Dy400 O403 2.307 . S
Dy400 O405 2.395 . S
Dy400 O406 2.379 . S
Dy400 O408 2.339 . S
Dy400 O410 2.298 . S
Dy400 O414 2.275 . S
Dy400 C422 2.738 . S
Dy401 O404 2.298 . S
Dy401 O407 2.275 . S
Dy401 O409 2.307 . S
Dy401 O411 2.395 . S
Dy401 O412 2.379 . S
Dy401 O415 2.339 . S
Dy401 C431 2.738 . S
C402 O414 1.254 . S
C402 O415 1.257 . S
O403 Dy400 2.307 . S
O403 C413 1.266 . S
O404 Dy401 2.298 . S
O404 C413 1.236 . S
O405 Dy400 2.395 . S
O405 C422 1.255 . S
O406 Dy400 2.379 . S
O406 C422 1.249 . S
O407 Dy401 2.275 . S
O407 C423 1.254 . S
O408 Dy400 2.339 . S
O408 C423 1.257 . S
O409 Dy401 2.307 . S
O409 C424 1.266 . S
O410 Dy400 2.298 . S
O410 C424 1.236 . S
O411 Dy401 2.395 . S
O411 C431 1.255 . S
O412 Dy401 2.379 . S
O412 C431 1.249 . S
C413 O403 1.266 . S
C413 O404 1.236 . S
O414 Dy400 2.275 . S
O414 C402 1.254 . S
O415 Dy401 2.339 . S
O415 C402 1.257 . S
C416 C419 1.345 . S
C416 C420 1.328 . S
C416 C422 1.516 . S
C417 C418 1.304 . S
C417 C421 1.323 . S
C418 C417 1.304 . S
C418 C419 1.369 1_554 S
C418 H432 0.930 . S
C419 C416 1.345 . S
C419 C418 1.369 1_556 S
C419 H433 0.932 . S
C420 C416 1.328 . S
C420 C421 1.433 1_556 S
C420 H434 0.931 . S
C421 C417 1.323 . S
C421 C420 1.433 1_554 S
C421 H435 0.933 . S
C422 Dy400 2.738 . S
C422 O405 1.255 . S
C422 O406 1.249 . S
C422 C416 1.516 . S
C423 O407 1.254 . S
C423 O408 1.257 . S
C424 O409 1.266 . S
C424 O410 1.236 . S
C425 C428 1.344 . S
C425 C429 1.328 . S
C425 C431 1.516 . S
C426 C427 1.304 . S
C426 C430 1.323 . S
C427 C426 1.304 . S
C427 C428 1.371 . S
C427 H436 0.930 . S
C428 C425 1.344 . S
C428 C427 1.371 . S
C428 H437 0.931 . S
C429 C425 1.328 . S
C429 C430 1.433 . S
C429 H438 0.931 . S
C430 C426 1.323 . S
C430 C429 1.433 . S
C430 H439 0.933 . S
C431 Dy401 2.738 . S
C431 O411 1.255 . S
C431 O412 1.249 . S
C431 C425 1.516 . S
H432 C418 0.930 . S
H433 C419 0.932 . S
H434 C420 0.931 . S
H435 C421 0.933 . S
H436 C427 0.930 . S
H437 C428 0.931 . S
H438 C429 0.931 . S
H439 C430 0.933 . S
Dy440 O443 2.307 . S
Dy440 O445 2.395 . S
Dy440 O446 2.379 . S
Dy440 O448 2.339 . S
Dy440 O450 2.298 . S
Dy440 O454 2.275 . S
Dy440 C462 2.738 . S
Dy441 O444 2.298 . S
Dy441 O447 2.275 . S
Dy441 O449 2.307 . S
Dy441 O451 2.395 . S
Dy441 O452 2.379 . S
Dy441 O455 2.339 . S
Dy441 C471 2.738 . S
C442 O454 1.254 . S
C442 O455 1.257 . S
O443 Dy440 2.307 . S
O443 C453 1.266 . S
O444 Dy441 2.298 . S
O444 C453 1.236 . S
O445 Dy440 2.395 . S
O445 C462 1.255 . S
O446 Dy440 2.379 . S
O446 C462 1.249 . S
O447 Dy441 2.275 . S
O447 C463 1.254 . S
O448 Dy440 2.339 . S
O448 C463 1.257 . S
O449 Dy441 2.307 . S
O449 C464 1.266 . S
O450 Dy440 2.298 . S
O450 C464 1.236 . S
O451 Dy441 2.395 . S
O451 C471 1.255 . S
O452 Dy441 2.379 . S
O452 C471 1.249 . S
C453 O443 1.266 . S
C453 O444 1.236 . S
O454 Dy440 2.275 . S
O454 C442 1.254 . S
O455 Dy441 2.339 . S
O455 C442 1.257 . S
C456 C459 1.344 . S
C456 C460 1.328 . S
C456 C462 1.516 . S
C457 C458 1.304 . S
C457 C461 1.323 . S
C458 C457 1.304 . S
C458 C459 1.371 . S
C458 H472 0.930 . S
C459 C456 1.344 . S
C459 C458 1.371 . S
C459 H473 0.931 . S
C460 C456 1.328 . S
C460 C461 1.433 . S
C460 H474 0.931 . S
C461 C457 1.323 . S
C461 C460 1.433 . S
C461 H475 0.933 . S
C462 Dy440 2.738 . S
C462 O445 1.255 . S
C462 O446 1.249 . S
C462 C456 1.516 . S
C463 O447 1.254 . S
C463 O448 1.257 . S
C464 O449 1.266 . S
C464 O450 1.236 . S
C465 C468 1.344 . S
C465 C469 1.328 . S
C465 C471 1.516 . S
C466 C467 1.304 . S
C466 C470 1.323 . S
C467 C466 1.304 . S
C467 C468 1.371 . S
C467 H476 0.930 . S
C468 C465 1.344 . S
C468 C467 1.371 . S
C468 H477 0.931 . S
C469 C465 1.328 . S
C469 C470 1.433 . S
C469 H478 0.931 . S
C470 C466 1.323 . S
C470 C469 1.433 . S
C470 H479 0.933 . S
C471 Dy441 2.738 . S
C471 O451 1.255 . S
C471 O452 1.249 . S
C471 C465 1.516 . S
H472 C458 0.930 . S
H473 C459 0.931 . S
H474 C460 0.931 . S
H475 C461 0.933 . S
H476 C467 0.930 . S
H477 C468 0.931 . S
H478 C469 0.931 . S
H479 C470 0.933 . S
Dy480 O483 2.307 . S
Dy480 O485 2.395 . S
Dy480 O486 2.379 . S
Dy480 O488 2.339 . S
Dy480 O490 2.298 . S
Dy480 O494 2.275 . S
Dy480 C502 2.738 . S
Dy481 O484 2.298 . S
Dy481 O487 2.275 . S
Dy481 O489 2.307 . S
Dy481 O491 2.395 . S
Dy481 O492 2.379 . S
Dy481 O495 2.339 . S
Dy481 C511 2.738 . S
C482 O494 1.254 . S
C482 O495 1.257 . S
O483 Dy480 2.307 . S
O483 C493 1.266 . S
O484 Dy481 2.298 . S
O484 C493 1.236 . S
O485 Dy480 2.395 . S
O485 C502 1.255 . S
O486 Dy480 2.379 . S
O486 C502 1.249 . S
O487 Dy481 2.275 . S
O487 C503 1.254 . S
O488 Dy480 2.339 . S
O488 C503 1.257 . S
O489 Dy481 2.307 . S
O489 C504 1.266 . S
O490 Dy480 2.298 . S
O490 C504 1.236 . S
O491 Dy481 2.395 . S
O491 C511 1.255 . S
O492 Dy481 2.379 . S
O492 C511 1.249 . S
C493 O483 1.266 . S
C493 O484 1.236 . S
O494 Dy480 2.275 . S
O494 C482 1.254 . S
O495 Dy481 2.339 . S
O495 C482 1.257 . S
C496 C499 1.344 . S
C496 C500 1.328 . S
C496 C502 1.516 . S
C497 C498 1.304 . S
C497 C501 1.323 . S
C498 C497 1.304 . S
C498 C499 1.371 . S
C498 H512 0.930 . S
C499 C496 1.344 . S
C499 C498 1.371 . S
C499 H513 0.931 . S
C500 C496 1.328 . S
C500 C501 1.433 . S
C500 H514 0.931 . S
C501 C497 1.323 . S
C501 C500 1.433 . S
C501 H515 0.933 . S
C502 Dy480 2.738 . S
C502 O485 1.255 . S
C502 O486 1.249 . S
C502 C496 1.516 . S
C503 O487 1.254 . S
C503 O488 1.257 . S
C504 O489 1.266 . S
C504 O490 1.236 . S
C505 C508 1.344 . S
C505 C509 1.328 . S
C505 C511 1.516 . S
C506 C507 1.304 . S
C506 C510 1.323 . S
C507 C506 1.304 . S
C507 C508 1.371 . S
C507 H516 0.930 . S
C508 C505 1.344 . S
C508 C507 1.371 . S
C508 H517 0.931 . S
C509 C505 1.328 . S
C509 C510 1.433 . S
C509 H518 0.931 . S
C510 C506 1.323 . S
C510 C509 1.433 . S
C510 H519 0.933 . S
C511 Dy481 2.738 . S
C511 O491 1.255 . S
C511 O492 1.249 . S
C511 C505 1.516 . S
H512 C498 0.930 . S
H513 C499 0.931 . S
H514 C500 0.931 . S
H515 C501 0.933 . S
H516 C507 0.930 . S
H517 C508 0.931 . S
H518 C509 0.931 . S
H519 C510 0.933 . S
Dy520 O523 2.307 . S
Dy520 O525 2.395 . S
Dy520 O526 2.379 . S
Dy520 O528 2.339 . S
Dy520 O530 2.298 . S
Dy520 O534 2.275 . S
Dy520 C542 2.738 . S
Dy521 O524 2.298 1_655 S
Dy521 O527 2.275 . S
Dy521 O529 2.307 . S
Dy521 O531 2.395 . S
Dy521 O532 2.379 . S
Dy521 O535 2.339 . S
Dy521 C551 2.738 . S
C522 O534 1.254 . S
C522 O535 1.257 1_455 S
O523 Dy520 2.307 . S
O523 C533 1.266 . S
O524 Dy521 2.298 1_455 S
O524 C533 1.236 . S
O525 Dy520 2.395 . S
O525 C542 1.255 . S
O526 Dy520 2.379 . S
O526 C542 1.249 . S
O527 Dy521 2.275 . S
O527 C543 1.254 1_655 S
O528 Dy520 2.339 . S
O528 C543 1.257 . S
O529 Dy521 2.307 . S
O529 C544 1.266 . S
O530 Dy520 2.298 . S
O530 C544 1.236 1_455 S
O531 Dy521 2.395 . S
O531 C551 1.255 . S
O532 Dy521 2.379 . S
O532 C551 1.249 . S
C533 O523 1.266 . S
C533 O524 1.236 . S
O534 Dy520 2.275 . S
O534 C522 1.254 . S
O535 Dy521 2.339 . S
O535 C522 1.257 1_655 S
C536 C539 1.344 . S
C536 C540 1.328 . S
C536 C542 1.516 . S
C537 C538 1.304 . S
C537 C541 1.323 . S
C538 C537 1.304 . S
C538 C539 1.371 . S
C538 H552 0.930 . S
C539 C536 1.344 . S
C539 C538 1.371 . S
C539 H553 0.931 . S
C540 C536 1.328 . S
C540 C541 1.433 . S
C540 H554 0.931 . S
C541 C537 1.323 . S
C541 C540 1.433 . S
C541 H555 0.933 . S
C542 Dy520 2.738 . S
C542 O525 1.255 . S
C542 O526 1.249 . S
C542 C536 1.516 . S
C543 O527 1.254 1_455 S
C543 O528 1.257 . S
C544 O529 1.266 . S
C544 O530 1.236 1_655 S
C545 C548 1.344 1_554 S
C545 C549 1.328 1_554 S
C545 C551 1.516 . S
C546 C547 1.304 . S
C546 C550 1.323 . S
C547 C546 1.304 . S
C547 C548 1.371 . S
C547 H556 0.930 . S
C548 C545 1.344 1_556 S
C548 C547 1.371 . S
C548 H557 0.931 . S
C549 C545 1.328 1_556 S
C549 C550 1.433 . S
C549 H558 0.931 1_556 S
C550 C546 1.323 . S
C550 C549 1.433 . S
C550 H559 0.933 . S
C551 Dy521 2.738 . S
C551 O531 1.255 . S
C551 O532 1.249 . S
C551 C545 1.516 . S
H552 C538 0.930 . S
H553 C539 0.931 . S
H554 C540 0.931 . S
H555 C541 0.933 . S
H556 C547 0.930 . S
H557 C548 0.931 . S
H558 C549 0.931 1_554 S
H559 C550 0.933 . S
Dy560 O563 2.307 . S
Dy560 O565 2.395 . S
Dy560 O566 2.379 . S
Dy560 O568 2.339 . S
Dy560 O570 2.298 . S
Dy560 O574 2.275 . S
Dy560 C582 2.738 . S
Dy561 O564 2.298 . S
Dy561 O567 2.275 . S
Dy561 O569 2.307 . S
Dy561 O571 2.395 . S
Dy561 O572 2.379 . S
Dy561 O575 2.339 . S
Dy561 C591 2.738 . S
C562 O574 1.254 . S
C562 O575 1.257 . S
O563 Dy560 2.307 . S
O563 C573 1.266 . S
O564 Dy561 2.298 . S
O564 C573 1.236 . S
O565 Dy560 2.395 . S
O565 C582 1.255 . S
O566 Dy560 2.379 . S
O566 C582 1.249 . S
O567 Dy561 2.275 . S
O567 C583 1.254 . S
O568 Dy560 2.339 . S
O568 C583 1.257 . S
O569 Dy561 2.307 . S
O569 C584 1.266 . S
O570 Dy560 2.298 . S
O570 C584 1.236 . S
O571 Dy561 2.395 . S
O571 C591 1.255 . S
O572 Dy561 2.379 . S
O572 C591 1.249 . S
C573 O563 1.266 . S
C573 O564 1.236 . S
O574 Dy560 2.275 . S
O574 C562 1.254 . S
O575 Dy561 2.339 . S
O575 C562 1.257 . S
C576 C579 1.344 . S
C576 C580 1.328 . S
C576 C582 1.516 . S
C577 C578 1.304 . S
C577 C581 1.323 . S
C578 C577 1.304 . S
C578 C579 1.371 . S
C578 H592 0.930 . S
C579 C576 1.344 . S
C579 C578 1.371 . S
C579 H593 0.931 . S
C580 C576 1.328 . S
C580 C581 1.433 . S
C580 H594 0.931 . S
C581 C577 1.323 . S
C581 C580 1.433 . S
C581 H595 0.933 . S
C582 Dy560 2.738 . S
C582 O565 1.255 . S
C582 O566 1.249 . S
C582 C576 1.516 . S
C583 O567 1.254 . S
C583 O568 1.257 . S
C584 O569 1.266 . S
C584 O570 1.236 . S
C585 C588 1.344 . S
C585 C589 1.328 . S
C585 C591 1.516 . S
C586 C587 1.304 . S
C586 C590 1.323 . S
C587 C586 1.304 . S
C587 C588 1.371 . S
C587 H596 0.930 . S
C588 C585 1.344 . S
C588 C587 1.371 . S
C588 H597 0.931 . S
C589 C585 1.328 . S
C589 C590 1.433 . S
C589 H598 0.931 . S
C590 C586 1.323 . S
C590 C589 1.433 . S
C590 H599 0.933 . S
C591 Dy561 2.738 . S
C591 O571 1.255 . S
C591 O572 1.249 . S
C591 C585 1.516 . S
H592 C578 0.930 . S
H593 C579 0.931 . S
H594 C580 0.931 . S
H595 C581 0.933 . S
H596 C587 0.930 . S
H597 C588 0.931 . S
H598 C589 0.931 . S
H599 C590 0.933 . S
Dy600 O603 2.307 . S
Dy600 O605 2.395 . S
Dy600 O606 2.379 . S
Dy600 O608 2.339 . S
Dy600 O610 2.298 . S
Dy600 O614 2.275 . S
Dy600 C622 2.738 . S
Dy601 O604 2.298 1_655 S
Dy601 O607 2.275 . S
Dy601 O609 2.307 . S
Dy601 O611 2.395 . S
Dy601 O612 2.379 . S
Dy601 O615 2.339 . S
Dy601 C631 2.738 . S
C602 O614 1.254 . S
C602 O615 1.257 1_455 S
O603 Dy600 2.307 . S
O603 C613 1.266 . S
O604 Dy601 2.298 1_455 S
O604 C613 1.236 . S
O605 Dy600 2.395 . S
O605 C622 1.255 . S
O606 Dy600 2.379 . S
O606 C622 1.249 . S
O607 Dy601 2.275 . S
O607 C623 1.254 1_655 S
O608 Dy600 2.339 . S
O608 C623 1.257 . S
O609 Dy601 2.307 . S
O609 C624 1.266 . S
O610 Dy600 2.298 . S
O610 C624 1.236 1_455 S
O611 Dy601 2.395 . S
O611 C631 1.255 . S
O612 Dy601 2.379 . S
O612 C631 1.249 . S
C613 O603 1.266 . S
C613 O604 1.236 . S
O614 Dy600 2.275 . S
O614 C602 1.254 . S
O615 Dy601 2.339 . S
O615 C602 1.257 1_655 S
C616 C619 1.344 . S
C616 C620 1.328 . S
C616 C622 1.516 . S
C617 C618 1.304 . S
C617 C621 1.323 . S
C618 C617 1.304 . S
C618 C619 1.371 . S
C618 H632 0.930 . S
C619 C616 1.344 . S
C619 C618 1.371 . S
C619 H633 0.931 . S
C620 C616 1.328 . S
C620 C621 1.433 . S
C620 H634 0.931 . S
C621 C617 1.323 . S
C621 C620 1.433 . S
C621 H635 0.933 . S
C622 Dy600 2.738 . S
C622 O605 1.255 . S
C622 O606 1.249 . S
C622 C616 1.516 . S
C623 O607 1.254 1_455 S
C623 O608 1.257 . S
C624 O609 1.266 . S
C624 O610 1.236 1_655 S
C625 C628 1.344 1_556 S
C625 C629 1.328 1_556 S
C625 C631 1.516 . S
C626 C627 1.304 . S
C626 C630 1.323 . S
C627 C626 1.304 . S
C627 C628 1.371 . S
C627 H636 0.930 . S
C628 C625 1.344 1_554 S
C628 C627 1.371 . S
C628 H637 0.931 . S
C629 C625 1.328 1_554 S
C629 C630 1.433 . S
C629 H638 0.931 1_554 S
C630 C626 1.323 . S
C630 C629 1.433 . S
C630 H639 0.933 . S
C631 Dy601 2.738 . S
C631 O611 1.255 . S
C631 O612 1.249 . S
C631 C625 1.516 . S
H632 C618 0.930 . S
H633 C619 0.931 . S
H634 C620 0.931 . S
H635 C621 0.933 . S
H636 C627 0.930 . S
H637 C628 0.931 . S
H638 C629 0.931 1_556 S
H639 C630 0.933 . S
H640 C658 0.951 . S
H641 C660 0.951 . S
H642 C662 0.950 . S
H643 C663 0.950 . S
H644 C665 0.950 . S
H645 C668 0.950 . S
H646 C669 0.950 . S
H647 C671 0.950 . S
H648 C672 0.950 . S
H649 C673 0.951 . S
H650 C675 0.951 . S
H651 C677 0.950 . S
H652 C678 0.950 . S
H653 C680 0.950 . S
H654 C683 0.950 . S
H655 C684 0.950 . S
H656 C686 0.950 . S
H657 C687 0.950 . S
C658 H640 0.951 . S
C658 C659 1.366 . S
C658 C660 1.388 . S
C659 C658 1.366 . S
C659 C663 1.385 . S
C660 H641 0.951 . S
C660 C658 1.388 . S
C660 C661 1.366 . S
C661 C660 1.366 . S
C661 C662 1.414 . S
C661 C664 1.499 . S
C662 H642 0.950 . S
C662 C661 1.414 . S
C662 C663 1.374 . S
C663 H643 0.950 . S
C663 C659 1.385 . S
C663 C662 1.374 . S
C664 C661 1.499 . S
C664 C665 1.373 . S
C664 C666 1.389 . S
C665 H644 0.950 . S
C665 C664 1.373 . S
C665 C681 1.377 . S
C666 C664 1.389 . S
C666 C667 1.524 . S
C666 C680 1.377 . S
C667 C666 1.524 . S
C667 C668 1.397 . S
C667 C672 1.363 . S
C668 H645 0.950 . S
C668 C667 1.397 . S
C668 C669 1.334 . S
C669 H646 0.950 . S
C669 C668 1.334 . S
C669 C670 1.287 . S
C670 C669 1.287 . S
C670 C671 1.524 . S
C670 H689 0.913 . S
C671 H647 0.950 . S
C671 C670 1.524 . S
C671 C672 1.415 . S
C672 H648 0.950 . S
C672 C667 1.363 . S
C672 C671 1.415 . S
C673 H649 0.951 . S
C673 C674 1.366 . S
C673 C675 1.388 . S
C674 C673 1.366 . S
C674 C678 1.385 . S
C675 H650 0.951 . S
C675 C673 1.388 . S
C675 C676 1.366 . S
C676 C675 1.366 . S
C676 C677 1.414 . S
C676 C679 1.499 . S
C677 H651 0.950 . S
C677 C676 1.414 . S
C677 C678 1.374 . S
C678 H652 0.950 . S
C678 C674 1.385 . S
C678 C677 1.374 . S
C679 C676 1.499 . S
C679 C680 1.373 . S
C679 C681 1.389 . S
C680 H653 0.950 . S
C680 C666 1.377 . S
C680 C679 1.373 . S
C681 C665 1.377 . S
C681 C679 1.389 . S
C681 C682 1.524 . S
C682 C681 1.524 . S
C682 C683 1.397 . S
C682 C687 1.363 . S
C683 H654 0.950 . S
C683 C682 1.397 . S
C683 C684 1.334 . S
C684 H655 0.950 . S
C684 C683 1.334 . S
C684 C685 1.287 . S
C685 C684 1.287 . S
C685 C686 1.524 . S
C685 H688 0.999 . S
C686 H656 0.950 . S
C686 C685 1.524 . S
C686 C687 1.415 . S
C687 H657 0.950 . S
C687 C682 1.363 . S
C687 C686 1.415 . S
H688 C685 0.999 . S
H689 C670 0.913 . S
H690 C708 0.951 . S
H691 C710 0.951 . S
H692 C712 0.950 . S
H693 C713 0.950 . S
H694 C715 0.950 . S
H695 C718 0.950 . S
H696 C719 0.950 . S
H697 C721 0.950 . S
H698 C722 0.950 . S
H699 C723 0.951 . S
H700 C725 0.951 . S
H701 C727 0.950 . S
H702 C728 0.950 . S
H703 C730 0.950 . S
H704 C733 0.950 . S
H705 C734 0.950 . S
H706 C736 0.950 . S
H707 C737 0.950 . S
C708 H690 0.951 . S
C708 C709 1.366 . S
C708 C710 1.388 . S
C709 C708 1.366 . S
C709 C713 1.385 . S
C710 H691 0.951 . S
C710 C708 1.388 . S
C710 C711 1.366 . S
C711 C710 1.366 . S
C711 C712 1.414 . S
C711 C714 1.499 . S
C712 H692 0.950 . S
C712 C711 1.414 . S
C712 C713 1.374 . S
C713 H693 0.950 . S
C713 C709 1.385 . S
C713 C712 1.374 . S
C714 C711 1.499 . S
C714 C715 1.373 . S
C714 C716 1.389 . S
C715 H694 0.950 . S
C715 C714 1.373 . S
C715 C731 1.377 . S
C716 C714 1.389 . S
C716 C717 1.524 . S
C716 C730 1.377 . S
C717 C716 1.524 . S
C717 C718 1.397 . S
C717 C722 1.363 . S
C718 H695 0.950 . S
C718 C717 1.397 . S
C718 C719 1.334 . S
C719 H696 0.950 . S
C719 C718 1.334 . S
C719 C720 1.287 . S
C720 C719 1.287 . S
C720 C721 1.524 . S
C720 H739 0.913 . S
C721 H697 0.950 . S
C721 C720 1.524 . S
C721 C722 1.415 . S
C722 H698 0.950 . S
C722 C717 1.363 . S
C722 C721 1.415 . S
C723 H699 0.951 . S
C723 C724 1.366 . S
C723 C725 1.388 . S
C724 C723 1.366 . S
C724 C728 1.385 . S
C725 H700 0.951 . S
C725 C723 1.388 . S
C725 C726 1.366 . S
C726 C725 1.366 . S
C726 C727 1.414 . S
C726 C729 1.499 . S
C727 H701 0.950 . S
C727 C726 1.414 . S
C727 C728 1.374 . S
C728 H702 0.950 . S
C728 C724 1.385 . S
C728 C727 1.374 . S
C729 C726 1.499 . S
C729 C730 1.373 . S
C729 C731 1.389 . S
C730 H703 0.950 . S
C730 C716 1.377 . S
C730 C729 1.373 . S
C731 C715 1.377 . S
C731 C729 1.389 . S
C731 C732 1.524 . S
C732 C731 1.524 . S
C732 C733 1.397 . S
C732 C737 1.363 . S
C733 H704 0.950 . S
C733 C732 1.397 . S
C733 C734 1.334 . S
C734 H705 0.950 . S
C734 C733 1.334 . S
C734 C735 1.287 . S
C735 C734 1.287 . S
C735 C736 1.524 . S
C735 H738 0.999 . S
C736 H706 0.950 . S
C736 C735 1.524 . S
C736 C737 1.415 . S
C737 H707 0.950 . S
C737 C732 1.363 . S
C737 C736 1.415 . S
H738 C735 0.999 . S
H739 C720 0.913 . S
H740 C758 0.951 . S
H741 C760 0.951 . S
H742 C762 0.950 . S
H743 C763 0.950 . S
H744 C765 0.950 . S
H745 C768 0.950 . S
H746 C769 0.950 . S
H747 C771 0.950 . S
H748 C772 0.950 . S
H749 C773 0.951 . S
H750 C775 0.951 . S
H751 C777 0.950 . S
H752 C778 0.950 . S
H753 C780 0.950 . S
H754 C783 0.950 . S
H755 C784 0.950 . S
H756 C786 0.950 . S
H757 C787 0.950 . S
C758 H740 0.951 . S
C758 C759 1.366 . S
C758 C760 1.388 . S
C759 C758 1.366 . S
C759 C763 1.385 . S
C760 H741 0.951 . S
C760 C758 1.388 . S
C760 C761 1.366 . S
C761 C760 1.366 . S
C761 C762 1.414 . S
C761 C764 1.499 . S
C762 H742 0.950 . S
C762 C761 1.414 . S
C762 C763 1.374 . S
C763 H743 0.950 . S
C763 C759 1.385 . S
C763 C762 1.374 . S
C764 C761 1.499 . S
C764 C765 1.373 . S
C764 C766 1.389 . S
C765 H744 0.950 . S
C765 C764 1.373 . S
C765 C781 1.377 . S
C766 C764 1.389 . S
C766 C767 1.524 . S
C766 C780 1.377 . S
C767 C766 1.524 . S
C767 C768 1.397 . S
C767 C772 1.363 . S
C768 H745 0.950 . S
C768 C767 1.397 . S
C768 C769 1.334 . S
C769 H746 0.950 . S
C769 C768 1.334 . S
C769 C770 1.287 . S
C770 C769 1.287 . S
C770 C771 1.524 . S
C770 H789 0.913 . S
C771 H747 0.950 . S
C771 C770 1.524 . S
C771 C772 1.415 . S
C772 H748 0.950 . S
C772 C767 1.363 . S
C772 C771 1.415 . S
C773 H749 0.951 . S
C773 C774 1.366 . S
C773 C775 1.388 . S
C774 C773 1.366 . S
C774 C778 1.385 . S
C775 H750 0.951 . S
C775 C773 1.388 . S
C775 C776 1.366 . S
C776 C775 1.366 . S
C776 C777 1.414 . S
C776 C779 1.499 . S
C777 H751 0.950 . S
C777 C776 1.414 . S
C777 C778 1.374 . S
C778 H752 0.950 . S
C778 C774 1.385 . S
C778 C777 1.374 . S
C779 C776 1.499 . S
C779 C780 1.373 . S
C779 C781 1.389 . S
C780 H753 0.950 . S
C780 C766 1.377 . S
C780 C779 1.373 . S
C781 C765 1.377 . S
C781 C779 1.389 . S
C781 C782 1.524 . S
C782 C781 1.524 . S
C782 C783 1.397 . S
C782 C787 1.363 . S
C783 H754 0.950 . S
C783 C782 1.397 . S
C783 C784 1.334 . S
C784 H755 0.950 . S
C784 C783 1.334 . S
C784 C785 1.287 . S
C785 C784 1.287 . S
C785 C786 1.524 . S
C785 H788 0.999 . S
C786 H756 0.950 . S
C786 C785 1.524 . S
C786 C787 1.415 . S
C787 H757 0.950 . S
C787 C782 1.363 . S
C787 C786 1.415 . S
H788 C785 0.999 . S
H789 C770 0.913 . S
H790 C808 0.951 . S
H791 C810 0.951 . S
H792 C812 0.950 . S
H793 C813 0.950 . S
H794 C815 0.950 . S
H795 C818 0.950 . S
H796 C819 0.950 . S
H797 C821 0.950 . S
H798 C822 0.950 . S
H799 C823 0.951 . S
H800 C825 0.951 . S
H801 C827 0.950 . S
H802 C828 0.950 . S
H803 C830 0.950 . S
H804 C833 0.950 . S
H805 C834 0.950 . S
H806 C836 0.950 . S
H807 C837 0.950 . S
C808 H790 0.951 . S
C808 C809 1.366 . S
C808 C810 1.388 . S
C809 C808 1.366 . S
C809 C813 1.385 . S
C810 H791 0.951 . S
C810 C808 1.388 . S
C810 C811 1.366 . S
C811 C810 1.366 . S
C811 C812 1.414 . S
C811 C814 1.499 . S
C812 H792 0.950 . S
C812 C811 1.414 . S
C812 C813 1.374 . S
C813 H793 0.950 . S
C813 C809 1.385 . S
C813 C812 1.374 . S
C814 C811 1.499 . S
C814 C815 1.373 . S
C814 C816 1.389 . S
C815 H794 0.950 . S
C815 C814 1.373 . S
C815 C831 1.377 . S
C816 C814 1.389 . S
C816 C817 1.524 . S
C816 C830 1.377 . S
C817 C816 1.524 . S
C817 C818 1.397 . S
C817 C822 1.363 . S
C818 H795 0.950 . S
C818 C817 1.397 . S
C818 C819 1.334 . S
C819 H796 0.950 . S
C819 C818 1.334 . S
C819 C820 1.287 . S
C820 C819 1.287 . S
C820 C821 1.524 . S
C820 H839 0.913 . S
C821 H797 0.950 . S
C821 C820 1.524 . S
C821 C822 1.415 . S
C822 H798 0.950 . S
C822 C817 1.363 . S
C822 C821 1.415 . S
C823 H799 0.951 . S
C823 C824 1.366 . S
C823 C825 1.388 . S
C824 C823 1.366 . S
C824 C828 1.385 . S
C825 H800 0.951 . S
C825 C823 1.388 . S
C825 C826 1.366 . S
C826 C825 1.366 . S
C826 C827 1.414 . S
C826 C829 1.499 . S
C827 H801 0.950 . S
C827 C826 1.414 . S
C827 C828 1.374 . S
C828 H802 0.950 . S
C828 C824 1.385 . S
C828 C827 1.374 . S
C829 C826 1.499 . S
C829 C830 1.373 . S
C829 C831 1.389 . S
C830 H803 0.950 . S
C830 C816 1.377 . S
C830 C829 1.373 . S
C831 C815 1.377 . S
C831 C829 1.389 . S
C831 C832 1.524 . S
C832 C831 1.524 . S
C832 C833 1.397 . S
C832 C837 1.363 . S
C833 H804 0.950 . S
C833 C832 1.397 . S
C833 C834 1.334 . S
C834 H805 0.950 . S
C834 C833 1.334 . S
C834 C835 1.287 . S
C835 C834 1.287 . S
C835 C836 1.524 . S
C835 H838 0.999 . S
C836 H806 0.950 . S
C836 C835 1.524 . S
C836 C837 1.415 . S
C837 H807 0.950 . S
C837 C832 1.363 . S
C837 C836 1.415 . S
H838 C835 0.999 . S
H839 C820 0.913 . S
H840 C858 0.951 . S
H841 C860 0.951 . S
H842 C862 0.950 . S
H843 C863 0.950 . S
H844 C865 0.950 . S
H845 C868 0.950 . S
H846 C869 0.950 . S
H847 C871 0.919 1_455 S
H848 C872 0.950 . S
H849 C873 0.951 . S
H850 C875 0.951 . S
H851 C877 0.950 . S
H852 C878 0.950 . S
H853 C880 0.950 . S
H854 C883 0.950 . S
H855 C884 0.950 . S
H856 C886 0.950 . S
H857 C887 0.950 . S
C858 H840 0.951 . S
C858 C859 1.366 . S
C858 C860 1.388 . S
C859 C858 1.366 . S
C859 C863 1.385 . S
C860 H841 0.951 . S
C860 C858 1.388 . S
C860 C861 1.366 . S
C861 C860 1.366 . S
C861 C862 1.414 . S
C861 C864 1.499 . S
C862 H842 0.950 . S
C862 C861 1.414 . S
C862 C863 1.374 . S
C863 H843 0.950 . S
C863 C859 1.385 . S
C863 C862 1.374 . S
C864 C861 1.499 . S
C864 C865 1.373 . S
C864 C866 1.389 . S
C865 H844 0.950 . S
C865 C864 1.373 . S
C865 C881 1.377 . S
C866 C864 1.389 . S
C866 C867 1.524 . S
C866 C880 1.377 . S
C867 C866 1.524 . S
C867 C868 1.397 . S
C867 C872 1.363 . S
C868 H845 0.950 . S
C868 C867 1.397 . S
C868 C869 1.334 . S
C869 H846 0.950 . S
C869 C868 1.334 . S
C869 C870 1.287 . S
C870 C869 1.287 . S
C870 C871 1.539 . S
C870 H889 0.913 . S
C871 H847 0.919 1_655 S
C871 C870 1.539 . S
C871 C872 1.436 . S
C872 H848 0.950 . S
C872 C867 1.363 . S
C872 C871 1.436 . S
C873 H849 0.951 . S
C873 C874 1.366 . S
C873 C875 1.388 . S
C874 C873 1.366 . S
C874 C878 1.385 . S
C875 H850 0.951 . S
C875 C873 1.388 . S
C875 C876 1.366 . S
C876 C875 1.366 . S
C876 C877 1.414 . S
C876 C879 1.499 . S
C877 H851 0.950 . S
C877 C876 1.414 . S
C877 C878 1.374 . S
C878 H852 0.950 . S
C878 C874 1.385 . S
C878 C877 1.374 . S
C879 C876 1.499 . S
C879 C880 1.373 . S
C879 C881 1.389 . S
C880 H853 0.950 . S
C880 C866 1.377 . S
C880 C879 1.373 . S
C881 C865 1.377 . S
C881 C879 1.389 . S
C881 C882 1.524 . S
C882 C881 1.524 . S
C882 C883 1.397 . S
C882 C887 1.363 . S
C883 H854 0.950 . S
C883 C882 1.397 . S
C883 C884 1.334 . S
C884 H855 0.950 . S
C884 C883 1.334 . S
C884 C885 1.287 . S
C885 C884 1.287 . S
C885 C886 1.524 . S
C885 H888 0.999 . S
C886 H856 0.950 . S
C886 C885 1.524 . S
C886 C887 1.415 . S
C887 H857 0.950 . S
C887 C882 1.363 . S
C887 C886 1.415 . S
H888 C885 0.999 . S
H889 C870 0.913 . S
H890 C908 0.951 . S
H891 C910 0.951 . S
H892 C912 0.950 . S
H893 C913 0.950 . S
H894 C915 0.950 . S
H895 C918 0.950 . S
H896 C919 0.950 . S
H897 C921 0.950 . S
H898 C922 0.950 . S
H899 C923 0.951 1_554 S
H900 C925 0.951 . S
H901 C927 0.950 . S
H902 C928 0.950 . S
H903 C930 0.950 . S
H904 C933 0.950 . S
H905 C934 0.950 . S
H906 C936 0.950 . S
H907 C937 0.950 . S
C908 H890 0.951 . S
C908 C909 1.366 . S
C908 C910 1.388 . S
C909 C908 1.366 . S
C909 C913 1.385 . S
C910 H891 0.951 . S
C910 C908 1.388 . S
C910 C911 1.366 . S
C911 C910 1.366 . S
C911 C912 1.414 . S
C911 C914 1.499 . S
C912 H892 0.950 . S
C912 C911 1.414 . S
C912 C913 1.374 . S
C913 H893 0.950 . S
C913 C909 1.385 . S
C913 C912 1.374 . S
C914 C911 1.499 . S
C914 C915 1.373 . S
C914 C916 1.389 . S
C915 H894 0.950 . S
C915 C914 1.373 . S
C915 C931 1.377 . S
C916 C914 1.389 . S
C916 C917 1.524 . S
C916 C930 1.377 . S
C917 C916 1.524 . S
C917 C918 1.397 . S
C917 C922 1.363 . S
C918 H895 0.950 . S
C918 C917 1.397 . S
C918 C919 1.334 . S
C919 H896 0.950 . S
C919 C918 1.334 . S
C919 C920 1.287 . S
C920 C919 1.287 . S
C920 C921 1.524 . S
C920 H939 0.913 . S
C921 H897 0.950 . S
C921 C920 1.524 . S
C921 C922 1.415 . S
C922 H898 0.950 . S
C922 C917 1.363 . S
C922 C921 1.415 . S
C923 H899 0.951 1_556 S
C923 C924 1.366 . S
C923 C925 1.388 . S
C924 C923 1.366 . S
C924 C928 1.385 . S
C925 H900 0.951 . S
C925 C923 1.388 . S
C925 C926 1.366 . S
C926 C925 1.366 . S
C926 C927 1.414 . S
C926 C929 1.499 . S
C927 H901 0.950 . S
C927 C926 1.414 . S
C927 C928 1.374 . S
C928 H902 0.950 . S
C928 C924 1.385 . S
C928 C927 1.374 . S
C929 C926 1.499 . S
C929 C930 1.373 . S
C929 C931 1.389 . S
C930 H903 0.950 . S
C930 C916 1.377 . S
C930 C929 1.373 . S
C931 C915 1.377 . S
C931 C929 1.389 . S
C931 C932 1.524 . S
C932 C931 1.524 . S
C932 C933 1.397 . S
C932 C937 1.363 . S
C933 H904 0.950 . S
C933 C932 1.397 . S
C933 C934 1.334 1_655 S
C934 H905 0.950 . S
C934 C933 1.334 1_455 S
C934 C935 1.287 1_455 S
C935 C934 1.287 1_655 S
C935 C936 1.524 . S
C935 H938 0.999 1_655 S
C936 H906 0.950 . S
C936 C935 1.524 . S
C936 C937 1.415 . S
C937 H907 0.950 . S
C937 C932 1.363 . S
C937 C936 1.415 . S
H938 C935 0.999 1_455 S
H939 C920 0.913 . S
H940 C958 0.951 . S
H941 C960 0.951 . S
H942 C962 0.950 . S
H943 C963 0.950 . S
H944 C965 0.950 . S
H945 C968 0.950 . S
H946 C969 0.950 . S
H947 C971 0.950 . S
H948 C972 0.950 . S
H949 C973 0.951 . S
H950 C975 0.951 . S
H951 C977 0.950 . S
H952 C978 0.950 . S
H953 C980 0.950 . S
H954 C983 0.950 . S
H955 C984 0.950 . S
H956 C986 0.950 . S
H957 C987 0.950 . S
C958 H940 0.951 . S
C958 C959 1.366 . S
C958 C960 1.388 . S
C959 C958 1.366 . S
C959 C963 1.385 . S
C960 H941 0.951 . S
C960 C958 1.388 . S
C960 C961 1.366 . S
C961 C960 1.366 . S
C961 C962 1.414 . S
C961 C964 1.499 . S
C962 H942 0.950 . S
C962 C961 1.414 . S
C962 C963 1.374 . S
C963 H943 0.950 . S
C963 C959 1.385 . S
C963 C962 1.374 . S
C964 C961 1.499 . S
C964 C965 1.373 . S
C964 C966 1.389 . S
C965 H944 0.950 . S
C965 C964 1.373 . S
C965 C981 1.377 . S
C966 C964 1.389 . S
C966 C967 1.524 . S
C966 C980 1.377 . S
C967 C966 1.524 . S
C967 C968 1.397 . S
C967 C972 1.363 . S
C968 H945 0.950 . S
C968 C967 1.397 . S
C968 C969 1.334 . S
C969 H946 0.950 . S
C969 C968 1.334 . S
C969 C970 1.287 . S
C970 C969 1.287 . S
C970 C971 1.524 . S
C970 H989 0.913 . S
C971 H947 0.950 . S
C971 C970 1.524 . S
C971 C972 1.415 . S
C972 H948 0.950 . S
C972 C967 1.363 . S
C972 C971 1.415 . S
C973 H949 0.951 . S
C973 C974 1.366 . S
C973 C975 1.388 . S
C974 C973 1.366 . S
C974 C978 1.385 . S
C975 H950 0.951 . S
C975 C973 1.388 . S
C975 C976 1.366 . S
C976 C975 1.366 . S
C976 C977 1.414 . S
C976 C979 1.499 . S
C977 H951 0.950 . S
C977 C976 1.414 . S
C977 C978 1.374 . S
C978 H952 0.950 . S
C978 C974 1.385 . S
C978 C977 1.374 . S
C979 C976 1.499 . S
C979 C980 1.373 . S
C979 C981 1.389 . S
C980 H953 0.950 . S
C980 C966 1.377 . S
C980 C979 1.373 . S
C981 C965 1.377 . S
C981 C979 1.389 . S
C981 C982 1.524 . S
C982 C981 1.524 . S
C982 C983 1.397 . S
C982 C987 1.363 . S
C983 H954 0.950 . S
C983 C982 1.397 . S
C983 C984 1.334 . S
C984 H955 0.950 . S
C984 C983 1.334 . S
C984 C985 1.287 . S
C985 C984 1.287 . S
C985 C986 1.524 . S
C985 H988 0.999 . S
C986 H956 0.950 . S
C986 C985 1.524 . S
C986 C987 1.415 . S
C987 H957 0.950 . S
C987 C982 1.363 . S
C987 C986 1.415 . S
H988 C985 0.999 . S
H989 C970 0.913 . S
H990 C1008 0.951 . S
H991 C1010 0.951 . S
H992 C1012 0.950 . S
H993 C1013 0.950 . S
H994 C1015 0.950 . S
H995 C1018 0.950 . S
H996 C1019 0.950 . S
H997 C1021 0.950 . S
H998 C1022 0.950 . S
H999 C1023 0.951 . S
H1000 C1025 0.951 . S
H1001 C1027 0.950 . S
H1002 C1028 0.950 . S
H1003 C1030 0.950 . S
H1004 C1033 0.950 . S
H1005 C1034 0.950 . S
H1006 C1036 0.950 . S
H1007 C1037 0.950 . S
C1008 H990 0.951 . S
C1008 C1009 1.366 . S
C1008 C1010 1.388 . S
C1009 C1008 1.366 . S
C1009 C1013 1.385 . S
C1010 H991 0.951 . S
C1010 C1008 1.388 . S
C1010 C1011 1.366 . S
C1011 C1010 1.366 . S
C1011 C1012 1.414 . S
C1011 C1014 1.499 . S
C1012 H992 0.950 . S
C1012 C1011 1.414 . S
C1012 C1013 1.374 . S
C1013 H993 0.950 . S
C1013 C1009 1.385 . S
C1013 C1012 1.374 . S
C1014 C1011 1.499 . S
C1014 C1015 1.373 . S
C1014 C1016 1.389 . S
C1015 H994 0.950 . S
C1015 C1014 1.373 . S
C1015 C1031 1.377 . S
C1016 C1014 1.389 . S
C1016 C1017 1.524 . S
C1016 C1030 1.377 . S
C1017 C1016 1.524 . S
C1017 C1018 1.397 . S
C1017 C1022 1.363 . S
C1018 H995 0.950 . S
C1018 C1017 1.397 . S
C1018 C1019 1.334 . S
C1019 H996 0.950 . S
C1019 C1018 1.334 . S
C1019 C1020 1.287 . S
C1020 C1019 1.287 . S
C1020 C1021 1.524 . S
C1020 H1039 0.913 . S
C1021 H997 0.950 . S
C1021 C1020 1.524 . S
C1021 C1022 1.415 . S
C1022 H998 0.950 . S
C1022 C1017 1.363 . S
C1022 C1021 1.415 . S
C1023 H999 0.951 . S
C1023 C1024 1.366 . S
C1023 C1025 1.388 . S
C1024 C1023 1.366 . S
C1024 C1028 1.385 . S
C1025 H1000 0.951 . S
C1025 C1023 1.388 . S
C1025 C1026 1.366 . S
C1026 C1025 1.366 . S
C1026 C1027 1.414 . S
C1026 C1029 1.499 . S
C1027 H1001 0.950 . S
C1027 C1026 1.414 . S
C1027 C1028 1.374 . S
C1028 H1002 0.950 . S
C1028 C1024 1.385 . S
C1028 C1027 1.374 . S
C1029 C1026 1.499 . S
C1029 C1030 1.373 . S
C1029 C1031 1.389 . S
C1030 H1003 0.950 . S
C1030 C1016 1.377 . S
C1030 C1029 1.373 . S
C1031 C1015 1.377 . S
C1031 C1029 1.389 . S
C1031 C1032 1.524 . S
C1032 C1031 1.524 . S
C1032 C1033 1.397 . S
C1032 C1037 1.363 . S
C1033 H1004 0.950 . S
C1033 C1032 1.397 . S
C1033 C1034 1.334 . S
C1034 H1005 0.950 . S
C1034 C1033 1.334 . S
C1034 C1035 1.287 . S
C1035 C1034 1.287 . S
C1035 C1036 1.524 . S
C1035 H1038 0.999 . S
C1036 H1006 0.950 . S
C1036 C1035 1.524 . S
C1036 C1037 1.415 . S
C1037 H1007 0.950 . S
C1037 C1032 1.363 . S
C1037 C1036 1.415 . S
H1038 C1035 0.999 . S
H1039 C1020 0.913 . S
H1040 C1058 0.951 . S
H1041 C1060 0.951 . S
H1042 C1062 0.950 . S
H1043 C1063 0.950 . S
H1044 C1065 0.950 . S
H1045 C1068 0.950 . S
H1046 C1069 0.950 . S
H1047 C1071 0.950 . S
H1048 C1072 0.950 . S
H1049 C1073 0.951 . S
H1050 C1075 0.951 . S
H1051 C1077 0.950 . S
H1052 C1078 0.950 . S
H1053 C1080 0.950 . S
H1054 C1083 0.950 . S
H1055 C1084 0.950 . S
H1056 C1086 0.950 . S
H1057 C1087 0.950 . S
C1058 H1040 0.951 . S
C1058 C1059 1.366 . S
C1058 C1060 1.388 . S
C1059 C1058 1.366 . S
C1059 C1063 1.385 . S
C1060 H1041 0.951 . S
C1060 C1058 1.388 . S
C1060 C1061 1.366 . S
C1061 C1060 1.366 . S
C1061 C1062 1.414 . S
C1061 C1064 1.499 . S
C1062 H1042 0.950 . S
C1062 C1061 1.414 . S
C1062 C1063 1.374 . S
C1063 H1043 0.950 . S
C1063 C1059 1.385 . S
C1063 C1062 1.374 . S
C1064 C1061 1.499 . S
C1064 C1065 1.373 . S
C1064 C1066 1.389 . S
C1065 H1044 0.950 . S
C1065 C1064 1.373 . S
C1065 C1081 1.377 . S
C1066 C1064 1.389 . S
C1066 C1067 1.524 . S
C1066 C1080 1.377 . S
C1067 C1066 1.524 . S
C1067 C1068 1.397 . S
C1067 C1072 1.363 . S
C1068 H1045 0.950 . S
C1068 C1067 1.397 . S
C1068 C1069 1.334 . S
C1069 H1046 0.950 . S
C1069 C1068 1.334 . S
C1069 C1070 1.287 . S
C1070 C1069 1.287 . S
C1070 C1071 1.524 . S
C1070 H1089 0.913 . S
C1071 H1047 0.950 . S
C1071 C1070 1.524 . S
C1071 C1072 1.415 . S
C1072 H1048 0.950 . S
C1072 C1067 1.363 . S
C1072 C1071 1.415 . S
C1073 H1049 0.951 . S
C1073 C1074 1.366 . S
C1073 C1075 1.388 . S
C1074 C1073 1.366 . S
C1074 C1078 1.385 . S
C1075 H1050 0.951 . S
C1075 C1073 1.388 . S
C1075 C1076 1.366 . S
C1076 C1075 1.366 . S
C1076 C1077 1.414 . S
C1076 C1079 1.499 . S
C1077 H1051 0.950 . S
C1077 C1076 1.414 . S
C1077 C1078 1.374 . S
C1078 H1052 0.950 . S
C1078 C1074 1.385 . S
C1078 C1077 1.374 . S
C1079 C1076 1.499 . S
C1079 C1080 1.373 . S
C1079 C1081 1.389 . S
C1080 H1053 0.950 . S
C1080 C1066 1.377 . S
C1080 C1079 1.373 . S
C1081 C1065 1.377 . S
C1081 C1079 1.389 . S
C1081 C1082 1.524 . S
C1082 C1081 1.524 . S
C1082 C1083 1.397 . S
C1082 C1087 1.363 . S
C1083 H1054 0.950 . S
C1083 C1082 1.397 . S
C1083 C1084 1.334 . S
C1084 H1055 0.950 . S
C1084 C1083 1.334 . S
C1084 C1085 1.287 . S
C1085 C1084 1.287 . S
C1085 C1086 1.524 . S
C1085 H1088 0.999 . S
C1086 H1056 0.950 . S
C1086 C1085 1.524 . S
C1086 C1087 1.415 . S
C1087 H1057 0.950 . S
C1087 C1082 1.363 . S
C1087 C1086 1.415 . S
H1088 C1085 0.999 . S
H1089 C1070 0.913 . S
H1090 C1108 0.951 . S
H1091 C1110 0.951 . S
H1092 C1112 0.950 . S
H1093 C1113 0.950 . S
H1094 C1115 0.950 . S
H1095 C1118 0.950 . S
H1096 C1119 0.950 . S
H1097 C1121 0.950 . S
H1098 C1122 0.950 . S
H1099 C1123 0.951 . S
H1100 C1125 0.951 . S
H1101 C1127 0.950 . S
H1102 C1128 0.950 . S
H1103 C1130 0.950 . S
H1104 C1133 0.950 . S
H1105 C1134 0.950 . S
H1106 C1136 0.950 . S
H1107 C1137 0.950 . S
C1108 H1090 0.951 . S
C1108 C1109 1.366 . S
C1108 C1110 1.388 . S
C1109 C1108 1.366 . S
C1109 C1113 1.385 . S
C1110 H1091 0.951 . S
C1110 C1108 1.388 . S
C1110 C1111 1.366 . S
C1111 C1110 1.366 . S
C1111 C1112 1.414 . S
C1111 C1114 1.499 . S
C1112 H1092 0.950 . S
C1112 C1111 1.414 . S
C1112 C1113 1.374 . S
C1113 H1093 0.950 . S
C1113 C1109 1.385 . S
C1113 C1112 1.374 . S
C1114 C1111 1.499 . S
C1114 C1115 1.373 . S
C1114 C1116 1.389 . S
C1115 H1094 0.950 . S
C1115 C1114 1.373 . S
C1115 C1131 1.377 . S
C1116 C1114 1.389 . S
C1116 C1117 1.524 . S
C1116 C1130 1.377 . S
C1117 C1116 1.524 . S
C1117 C1118 1.397 . S
C1117 C1122 1.363 . S
C1118 H1095 0.950 . S
C1118 C1117 1.397 . S
C1118 C1119 1.334 . S
C1119 H1096 0.950 . S
C1119 C1118 1.334 . S
C1119 C1120 1.287 . S
C1120 C1119 1.287 . S
C1120 C1121 1.524 . S
C1120 H1139 0.913 . S
C1121 H1097 0.950 . S
C1121 C1120 1.524 . S
C1121 C1122 1.415 . S
C1122 H1098 0.950 . S
C1122 C1117 1.363 . S
C1122 C1121 1.415 . S
C1123 H1099 0.951 . S
C1123 C1124 1.366 . S
C1123 C1125 1.388 . S
C1124 C1123 1.366 . S
C1124 C1128 1.385 . S
C1125 H1100 0.951 . S
C1125 C1123 1.388 . S
C1125 C1126 1.366 . S
C1126 C1125 1.366 . S
C1126 C1127 1.414 . S
C1126 C1129 1.499 . S
C1127 H1101 0.950 . S
C1127 C1126 1.414 . S
C1127 C1128 1.374 . S
C1128 H1102 0.950 . S
C1128 C1124 1.385 . S
C1128 C1127 1.374 . S
C1129 C1126 1.499 . S
C1129 C1130 1.373 . S
C1129 C1131 1.389 . S
C1130 H1103 0.950 . S
C1130 C1116 1.377 . S
C1130 C1129 1.373 . S
C1131 C1115 1.377 . S
C1131 C1129 1.389 . S
C1131 C1132 1.524 . S
C1132 C1131 1.524 . S
C1132 C1133 1.397 . S
C1132 C1137 1.363 . S
C1133 H1104 0.950 . S
C1133 C1132 1.397 . S
C1133 C1134 1.334 . S
C1134 H1105 0.950 . S
C1134 C1133 1.334 . S
C1134 C1135 1.287 . S
C1135 C1134 1.287 . S
C1135 C1136 1.524 . S
C1135 H1138 0.999 . S
C1136 H1106 0.950 . S
C1136 C1135 1.524 . S
C1136 C1137 1.415 . S
C1137 H1107 0.950 . S
C1137 C1132 1.363 . S
C1137 C1136 1.415 . S
H1138 C1135 0.999 . S
H1139 C1120 0.913 . S
H1140 C1158 0.951 . S
H1141 C1160 0.951 . S
H1142 C1162 0.950 . S
H1143 C1163 0.955 . S
H1144 C1165 0.950 . S
H1145 C1168 0.950 . S
H1146 C1169 0.950 . S
H1147 C1171 0.950 . S
H1148 C1172 0.950 . S
H1149 C1173 0.951 . S
H1150 C1175 0.951 . S
H1151 C1177 0.950 . S
H1152 C1178 0.950 . S
H1153 C1180 0.950 . S
H1154 C1183 0.950 . S
H1155 C1184 0.950 . S
H1156 C1186 0.950 . S
H1157 C1187 0.950 . S
C1158 H1140 0.951 . S
C1158 C1159 1.366 . S
C1158 C1160 1.388 . S
C1159 C1158 1.366 . S
C1159 C1163 1.385 . S
C1160 H1141 0.951 . S
C1160 C1158 1.388 . S
C1160 C1161 1.366 . S
C1161 C1160 1.366 . S
C1161 C1162 1.414 . S
C1161 C1164 1.499 . S
C1162 H1142 0.950 . S
C1162 C1161 1.414 . S
C1162 C1163 1.374 . S
C1163 H1143 0.955 . S
C1163 C1159 1.385 . S
C1163 C1162 1.374 . S
C1164 C1161 1.499 . S
C1164 C1165 1.373 . S
C1164 C1166 1.389 . S
C1165 H1144 0.950 . S
C1165 C1164 1.373 . S
C1165 C1181 1.377 . S
C1166 C1164 1.389 . S
C1166 C1167 1.524 . S
C1166 C1180 1.377 . S
C1167 C1166 1.524 . S
C1167 C1168 1.397 . S
C1167 C1172 1.363 . S
C1168 H1145 0.950 . S
C1168 C1167 1.397 . S
C1168 C1169 1.334 . S
C1169 H1146 0.950 . S
C1169 C1168 1.334 . S
C1169 C1170 1.287 . S
C1170 C1169 1.287 . S
C1170 C1171 1.524 . S
C1170 H1189 0.913 . S
C1171 H1147 0.950 . S
C1171 C1170 1.524 . S
C1171 C1172 1.415 . S
C1172 H1148 0.950 . S
C1172 C1167 1.363 . S
C1172 C1171 1.415 . S
C1173 H1149 0.951 . S
C1173 C1174 1.366 . S
C1173 C1175 1.388 . S
C1174 C1173 1.366 . S
C1174 C1178 1.385 . S
C1175 H1150 0.951 . S
C1175 C1173 1.388 . S
C1175 C1176 1.366 . S
C1176 C1175 1.366 . S
C1176 C1177 1.414 . S
C1176 C1179 1.499 . S
C1177 H1151 0.950 . S
C1177 C1176 1.414 . S
C1177 C1178 1.374 . S
C1178 H1152 0.950 . S
C1178 C1174 1.385 . S
C1178 C1177 1.374 . S
C1179 C1176 1.499 . S
C1179 C1180 1.373 . S
C1179 C1181 1.389 . S
C1180 H1153 0.950 . S
C1180 C1166 1.377 . S
C1180 C1179 1.373 . S
C1181 C1165 1.377 . S
C1181 C1179 1.389 . S
C1181 C1182 1.524 . S
C1182 C1181 1.524 . S
C1182 C1183 1.397 . S
C1182 C1187 1.363 . S
C1183 H1154 0.950 . S
C1183 C1182 1.397 . S
C1183 C1184 1.334 . S
C1184 H1155 0.950 . S
C1184 C1183 1.334 . S
C1184 C1185 1.287 . S
C1185 C1184 1.287 . S
C1185 C1186 1.524 . S
C1185 H1188 0.999 . S
C1186 H1156 0.950 . S
C1186 C1185 1.524 . S
C1186 C1187 1.415 . S
C1187 H1157 0.950 . S
C1187 C1182 1.363 . S
C1187 C1186 1.415 . S
H1188 C1185 0.999 . S
H1189 C1170 0.913 . S
H1190 C1208 0.951 . S
H1191 C1210 0.951 . S
H1192 C1212 0.950 . S
H1193 C1213 0.950 . S
H1194 C1215 0.950 . S
H1195 C1218 0.950 . S
H1196 C1219 0.950 . S
H1197 C1221 0.950 . S
H1198 C1222 0.950 . S
H1199 C1223 0.951 . S
H1200 C1225 0.951 . S
H1201 C1227 0.950 . S
H1202 C1228 0.950 . S
H1203 C1230 0.950 . S
H1204 C1233 0.950 . S
H1205 C1234 0.950 . S
H1206 C1236 0.950 . S
H1207 C1237 0.950 . S
C1208 H1190 0.951 . S
C1208 C1209 1.366 . S
C1208 C1210 1.388 . S
C1209 C1208 1.366 . S
C1209 C1213 1.385 . S
C1210 H1191 0.951 . S
C1210 C1208 1.388 . S
C1210 C1211 1.366 . S
C1211 C1210 1.366 . S
C1211 C1212 1.414 . S
C1211 C1214 1.499 . S
C1212 H1192 0.950 . S
C1212 C1211 1.414 . S
C1212 C1213 1.374 . S
C1213 H1193 0.950 . S
C1213 C1209 1.385 . S
C1213 C1212 1.374 . S
C1214 C1211 1.499 . S
C1214 C1215 1.373 . S
C1214 C1216 1.389 . S
C1215 H1194 0.950 . S
C1215 C1214 1.373 . S
C1215 C1231 1.377 . S
C1216 C1214 1.389 . S
C1216 C1217 1.524 . S
C1216 C1230 1.377 . S
C1217 C1216 1.524 . S
C1217 C1218 1.397 . S
C1217 C1222 1.363 . S
C1218 H1195 0.950 . S
C1218 C1217 1.397 . S
C1218 C1219 1.334 . S
C1219 H1196 0.950 . S
C1219 C1218 1.334 . S
C1219 C1220 1.287 . S
C1220 C1219 1.287 . S
C1220 C1221 1.524 . S
C1220 H1239 0.913 . S
C1221 H1197 0.950 . S
C1221 C1220 1.524 . S
C1221 C1222 1.415 . S
C1222 H1198 0.950 . S
C1222 C1217 1.363 . S
C1222 C1221 1.415 . S
C1223 H1199 0.951 . S
C1223 C1224 1.366 . S
C1223 C1225 1.388 . S
C1224 C1223 1.366 . S
C1224 C1228 1.385 . S
C1225 H1200 0.951 . S
C1225 C1223 1.388 . S
C1225 C1226 1.366 . S
C1226 C1225 1.366 . S
C1226 C1227 1.414 . S
C1226 C1229 1.499 . S
C1227 H1201 0.950 . S
C1227 C1226 1.414 . S
C1227 C1228 1.374 . S
C1228 H1202 0.950 . S
C1228 C1224 1.385 . S
C1228 C1227 1.374 . S
C1229 C1226 1.499 . S
C1229 C1230 1.373 . S
C1229 C1231 1.389 . S
C1230 H1203 0.950 . S
C1230 C1216 1.377 . S
C1230 C1229 1.373 . S
C1231 C1215 1.377 . S
C1231 C1229 1.389 . S
C1231 C1232 1.524 . S
C1232 C1231 1.524 . S
C1232 C1233 1.397 . S
C1232 C1237 1.363 . S
C1233 H1204 0.950 . S
C1233 C1232 1.397 . S
C1233 C1234 1.334 . S
C1234 H1205 0.950 . S
C1234 C1233 1.334 . S
C1234 C1235 1.287 . S
C1235 C1234 1.287 . S
C1235 C1236 1.524 . S
C1235 H1238 0.999 . S
C1236 H1206 0.950 . S
C1236 C1235 1.524 . S
C1236 C1237 1.415 . S
C1237 H1207 0.950 . S
C1237 C1232 1.363 . S
C1237 C1236 1.415 . S
H1238 C1235 0.999 . S
H1239 C1220 0.913 . S
H1240 C1258 0.951 . S
H1241 C1260 0.951 . S
H1242 C1262 0.950 . S
H1243 C1263 0.950 . S
H1244 C1265 0.950 . S
H1245 C1268 0.950 . S
H1246 C1269 0.950 . S
H1247 C1271 0.950 . S
H1248 C1272 0.950 . S
H1249 C1273 0.951 . S
H1250 C1275 0.951 . S
H1251 C1277 0.950 . S
H1252 C1278 0.950 . S
H1253 C1280 0.950 . S
H1254 C1283 0.950 . S
H1255 C1284 0.950 . S
H1256 C1286 0.950 . S
H1257 C1287 0.950 . S
C1258 H1240 0.951 . S
C1258 C1259 1.366 . S
C1258 C1260 1.388 . S
C1259 C1258 1.366 . S
C1259 C1263 1.385 . S
C1260 H1241 0.951 . S
C1260 C1258 1.388 . S
C1260 C1261 1.366 . S
C1261 C1260 1.366 . S
C1261 C1262 1.414 . S
C1261 C1264 1.499 . S
C1262 H1242 0.950 . S
C1262 C1261 1.414 . S
C1262 C1263 1.374 . S
C1263 H1243 0.950 . S
C1263 C1259 1.385 . S
C1263 C1262 1.374 . S
C1264 C1261 1.499 . S
C1264 C1265 1.373 . S
C1264 C1266 1.389 . S
C1265 H1244 0.950 . S
C1265 C1264 1.373 . S
C1265 C1281 1.377 . S
C1266 C1264 1.389 . S
C1266 C1267 1.524 . S
C1266 C1280 1.377 . S
C1267 C1266 1.524 . S
C1267 C1268 1.397 . S
C1267 C1272 1.363 . S
C1268 H1245 0.950 . S
C1268 C1267 1.397 . S
C1268 C1269 1.334 . S
C1269 H1246 0.950 . S
C1269 C1268 1.334 . S
C1269 C1270 1.287 . S
C1270 C1269 1.287 . S
C1270 C1271 1.524 . S
C1270 H1289 0.913 . S
C1271 H1247 0.950 . S
C1271 C1270 1.524 . S
C1271 C1272 1.415 . S
C1272 H1248 0.950 . S
C1272 C1267 1.363 . S
C1272 C1271 1.415 . S
C1273 H1249 0.951 . S
C1273 C1274 1.366 . S
C1273 C1275 1.388 . S
C1274 C1273 1.366 . S
C1274 C1278 1.385 . S
C1275 H1250 0.951 . S
C1275 C1273 1.388 . S
C1275 C1276 1.366 . S
C1276 C1275 1.366 . S
C1276 C1277 1.414 . S
C1276 C1279 1.499 . S
C1277 H1251 0.950 . S
C1277 C1276 1.414 . S
C1277 C1278 1.374 . S
C1278 H1252 0.950 . S
C1278 C1274 1.385 . S
C1278 C1277 1.374 . S
C1279 C1276 1.499 . S
C1279 C1280 1.373 . S
C1279 C1281 1.389 . S
C1280 H1253 0.950 . S
C1280 C1266 1.377 . S
C1280 C1279 1.373 . S
C1281 C1265 1.377 . S
C1281 C1279 1.389 . S
C1281 C1282 1.524 . S
C1282 C1281 1.524 . S
C1282 C1283 1.397 . S
C1282 C1287 1.363 . S
C1283 H1254 0.950 . S
C1283 C1282 1.397 . S
C1283 C1284 1.334 . S
C1284 H1255 0.950 . S
C1284 C1283 1.334 . S
C1284 C1285 1.287 . S
C1285 C1284 1.287 . S
C1285 C1286 1.524 . S
C1285 H1288 0.999 . S
C1286 H1256 0.950 . S
C1286 C1285 1.524 . S
C1286 C1287 1.415 . S
C1287 H1257 0.950 . S
C1287 C1282 1.363 . S
C1287 C1286 1.415 . S
H1288 C1285 0.999 . S
H1289 C1270 0.913 . S
H1290 C1308 0.951 . S
H1291 C1310 0.951 . S
H1292 C1312 0.950 . S
H1293 C1313 0.950 . S
H1294 C1315 0.950 . S
H1295 C1318 0.950 . S
H1296 C1319 0.950 . S
H1297 C1321 0.950 . S
H1298 C1322 0.950 . S
H1299 C1323 0.951 . S
H1300 C1325 0.951 . S
H1301 C1327 0.950 . S
H1302 C1328 0.950 . S
H1303 C1330 0.950 . S
H1304 C1333 0.950 . S
H1305 C1334 0.950 . S
H1306 C1336 0.950 . S
H1307 C1337 0.950 . S
C1308 H1290 0.951 . S
C1308 C1309 1.366 . S
C1308 C1310 1.388 . S
C1309 C1308 1.366 . S
C1309 C1313 1.385 . S
C1310 H1291 0.951 . S
C1310 C1308 1.388 . S
C1310 C1311 1.366 . S
C1311 C1310 1.366 . S
C1311 C1312 1.414 . S
C1311 C1314 1.499 . S
C1312 H1292 0.950 . S
C1312 C1311 1.414 . S
C1312 C1313 1.374 . S
C1313 H1293 0.950 . S
C1313 C1309 1.385 . S
C1313 C1312 1.374 . S
C1314 C1311 1.499 . S
C1314 C1315 1.373 . S
C1314 C1316 1.389 . S
C1315 H1294 0.950 . S
C1315 C1314 1.373 . S
C1315 C1331 1.377 . S
C1316 C1314 1.389 . S
C1316 C1317 1.524 . S
C1316 C1330 1.377 . S
C1317 C1316 1.524 . S
C1317 C1318 1.397 . S
C1317 C1322 1.363 . S
C1318 H1295 0.950 . S
C1318 C1317 1.397 . S
C1318 C1319 1.334 . S
C1319 H1296 0.950 . S
C1319 C1318 1.334 . S
C1319 C1320 1.287 . S
C1320 C1319 1.287 . S
C1320 C1321 1.524 . S
C1320 H1339 0.913 . S
C1321 H1297 0.950 . S
C1321 C1320 1.524 . S
C1321 C1322 1.415 . S
C1322 H1298 0.950 . S
C1322 C1317 1.363 . S
C1322 C1321 1.415 . S
C1323 H1299 0.951 . S
C1323 C1324 1.366 . S
C1323 C1325 1.388 . S
C1324 C1323 1.366 . S
C1324 C1328 1.385 . S
C1325 H1300 0.951 . S
C1325 C1323 1.388 . S
C1325 C1326 1.366 . S
C1326 C1325 1.366 . S
C1326 C1327 1.414 . S
C1326 C1329 1.499 . S
C1327 H1301 0.950 . S
C1327 C1326 1.414 . S
C1327 C1328 1.374 . S
C1328 H1302 0.950 . S
C1328 C1324 1.385 . S
C1328 C1327 1.374 . S
C1329 C1326 1.499 . S
C1329 C1330 1.373 . S
C1329 C1331 1.389 . S
C1330 H1303 0.950 . S
C1330 C1316 1.377 . S
C1330 C1329 1.373 . S
C1331 C1315 1.377 . S
C1331 C1329 1.389 . S
C1331 C1332 1.524 . S
C1332 C1331 1.524 . S
C1332 C1333 1.397 . S
C1332 C1337 1.363 . S
C1333 H1304 0.950 . S
C1333 C1332 1.397 . S
C1333 C1334 1.334 . S
C1334 H1305 0.950 . S
C1334 C1333 1.334 . S
C1334 C1335 1.287 . S
C1335 C1334 1.287 . S
C1335 C1336 1.524 . S
C1335 H1338 0.999 . S
C1336 H1306 0.950 . S
C1336 C1335 1.524 . S
C1336 C1337 1.415 . S
C1337 H1307 0.950 . S
C1337 C1332 1.363 . S
C1337 C1336 1.415 . S
H1338 C1335 0.999 . S
H1339 C1320 0.913 . S
H1340 C1358 0.951 . S
H1341 C1360 0.951 . S
H1342 C1362 0.950 . S
H1343 C1363 0.950 . S
H1344 C1365 0.950 . S
H1345 C1368 0.950 . S
H1346 C1369 0.950 . S
H1347 C1371 0.950 . S
H1348 C1372 0.950 . S
H1349 C1373 0.951 1_556 S
H1350 C1375 0.951 . S
H1351 C1377 0.950 . S
H1352 C1378 0.950 . S
H1353 C1380 0.950 . S
H1354 C1383 0.950 . S
H1355 C1384 0.950 . S
H1356 C1386 0.950 . S
H1357 C1387 0.950 . S
C1358 H1340 0.951 . S
C1358 C1359 1.366 . S
C1358 C1360 1.388 . S
C1359 C1358 1.366 . S
C1359 C1363 1.385 . S
C1360 H1341 0.951 . S
C1360 C1358 1.388 . S
C1360 C1361 1.366 . S
C1361 C1360 1.366 . S
C1361 C1362 1.414 . S
C1361 C1364 1.499 . S
C1362 H1342 0.950 . S
C1362 C1361 1.414 . S
C1362 C1363 1.374 . S
C1363 H1343 0.950 . S
C1363 C1359 1.385 . S
C1363 C1362 1.374 . S
C1364 C1361 1.499 . S
C1364 C1365 1.373 . S
C1364 C1366 1.389 . S
C1365 H1344 0.950 . S
C1365 C1364 1.373 . S
C1365 C1381 1.377 . S
C1366 C1364 1.389 . S
C1366 C1367 1.524 . S
C1366 C1380 1.377 . S
C1367 C1366 1.524 . S
C1367 C1368 1.397 . S
C1367 C1372 1.363 . S
C1368 H1345 0.950 . S
C1368 C1367 1.397 . S
C1368 C1369 1.334 . S
C1369 H1346 0.950 . S
C1369 C1368 1.334 . S
C1369 C1370 1.287 . S
C1370 C1369 1.287 . S
C1370 C1371 1.524 . S
C1370 H1389 0.913 . S
C1371 H1347 0.950 . S
C1371 C1370 1.524 . S
C1371 C1372 1.415 . S
C1372 H1348 0.950 . S
C1372 C1367 1.363 . S
C1372 C1371 1.415 . S
C1373 H1349 0.951 1_554 S
C1373 C1374 1.366 . S
C1373 C1375 1.388 . S
C1374 C1373 1.366 . S
C1374 C1378 1.385 . S
C1375 H1350 0.951 . S
C1375 C1373 1.388 . S
C1375 C1376 1.366 . S
C1376 C1375 1.366 . S
C1376 C1377 1.414 . S
C1376 C1379 1.499 . S
C1377 H1351 0.950 . S
C1377 C1376 1.414 . S
C1377 C1378 1.374 . S
C1378 H1352 0.950 . S
C1378 C1374 1.385 . S
C1378 C1377 1.374 . S
C1379 C1376 1.499 . S
C1379 C1380 1.373 . S
C1379 C1381 1.389 . S
C1380 H1353 0.950 . S
C1380 C1366 1.377 . S
C1380 C1379 1.373 . S
C1381 C1365 1.377 . S
C1381 C1379 1.389 . S
C1381 C1382 1.524 . S
C1382 C1381 1.524 . S
C1382 C1383 1.397 . S
C1382 C1387 1.363 . S
C1383 H1354 0.950 . S
C1383 C1382 1.397 . S
C1383 C1384 1.334 . S
C1384 H1355 0.950 . S
C1384 C1383 1.334 . S
C1384 C1385 1.287 . S
C1385 C1384 1.287 . S
C1385 C1386 1.524 . S
C1385 H1388 0.999 . S
C1386 H1356 0.950 . S
C1386 C1385 1.524 . S
C1386 C1387 1.415 . S
C1387 H1357 0.950 . S
C1387 C1382 1.363 . S
C1387 C1386 1.415 . S
H1388 C1385 0.999 . S
H1389 C1370 0.913 . S
H1390 C1408 0.951 . S
H1391 C1410 0.951 . S
H1392 C1412 0.950 . S
H1393 C1413 0.950 . S
H1394 C1415 0.950 . S
H1395 C1418 0.950 . S
H1396 C1419 0.950 . S
H1397 C1421 0.950 . S
H1398 C1422 0.950 . S
H1399 C1423 0.951 . S
H1400 C1425 0.951 . S
H1401 C1427 0.950 . S
H1402 C1428 0.950 . S
H1403 C1430 0.950 . S
H1404 C1433 0.950 . S
H1405 C1434 0.950 . S
H1406 C1436 0.950 1_655 S
H1407 C1437 0.950 . S
C1408 H1390 0.951 . S
C1408 C1409 1.366 . S
C1408 C1410 1.388 . S
C1409 C1408 1.366 . S
C1409 C1413 1.385 . S
C1410 H1391 0.951 . S
C1410 C1408 1.388 . S
C1410 C1411 1.366 . S
C1411 C1410 1.366 . S
C1411 C1412 1.414 . S
C1411 C1414 1.499 . S
C1412 H1392 0.950 . S
C1412 C1411 1.414 . S
C1412 C1413 1.374 . S
C1413 H1393 0.950 . S
C1413 C1409 1.385 . S
C1413 C1412 1.374 . S
C1414 C1411 1.499 . S
C1414 C1415 1.373 . S
C1414 C1416 1.389 . S
C1415 H1394 0.950 . S
C1415 C1414 1.373 . S
C1415 C1431 1.377 . S
C1416 C1414 1.389 . S
C1416 C1417 1.524 . S
C1416 C1430 1.377 . S
C1417 C1416 1.524 . S
C1417 C1418 1.397 . S
C1417 C1422 1.363 . S
C1418 H1395 0.950 . S
C1418 C1417 1.397 . S
C1418 C1419 1.334 . S
C1419 H1396 0.950 . S
C1419 C1418 1.334 . S
C1419 C1420 1.287 . S
C1420 C1419 1.287 . S
C1420 C1421 1.524 . S
C1420 H1439 0.913 . S
C1421 H1397 0.950 . S
C1421 C1420 1.524 . S
C1421 C1422 1.415 . S
C1422 H1398 0.950 . S
C1422 C1417 1.363 . S
C1422 C1421 1.415 . S
C1423 H1399 0.951 . S
C1423 C1424 1.366 . S
C1423 C1425 1.388 . S
C1424 C1423 1.366 . S
C1424 C1428 1.385 . S
C1425 H1400 0.951 . S
C1425 C1423 1.388 . S
C1425 C1426 1.366 . S
C1426 C1425 1.366 . S
C1426 C1427 1.414 . S
C1426 C1429 1.499 . S
C1427 H1401 0.950 . S
C1427 C1426 1.414 . S
C1427 C1428 1.374 . S
C1428 H1402 0.950 . S
C1428 C1424 1.385 . S
C1428 C1427 1.374 . S
C1429 C1426 1.499 . S
C1429 C1430 1.373 . S
C1429 C1431 1.389 . S
C1430 H1403 0.950 . S
C1430 C1416 1.377 . S
C1430 C1429 1.373 . S
C1431 C1415 1.377 . S
C1431 C1429 1.389 . S
C1431 C1432 1.524 . S
C1432 C1431 1.524 . S
C1432 C1433 1.397 . S
C1432 C1437 1.363 . S
C1433 H1404 0.950 . S
C1433 C1432 1.397 . S
C1433 C1434 1.334 . S
C1434 H1405 0.950 . S
C1434 C1433 1.334 . S
C1434 C1435 1.287 . S
C1435 C1434 1.287 . S
C1435 C1436 1.524 . S
C1435 H1438 0.999 1_455 S
C1436 H1406 0.950 1_455 S
C1436 C1435 1.524 . S
C1436 C1437 1.415 . S
C1437 H1407 0.950 . S
C1437 C1432 1.363 . S
C1437 C1436 1.415 . S
H1438 C1435 0.999 1_655 S
H1439 C1420 0.913 . S
H1440 C1458 0.951 . S
H1441 C1460 0.951 . S
H1442 C1462 0.950 . S
H1443 C1463 0.950 . S
H1444 C1465 0.950 . S
H1445 C1468 0.950 . S
H1446 C1469 0.950 . S
H1447 C1471 0.950 . S
H1448 C1472 0.950 . S
H1449 C1473 0.951 . S
H1450 C1475 0.951 . S
H1451 C1477 0.950 . S
H1452 C1478 0.951 . S
H1453 C1480 0.950 . S
H1454 C1483 0.950 . S
H1455 C1484 0.950 . S
H1456 C1486 0.950 . S
H1457 C1487 0.950 . S
C1458 H1440 0.951 . S
C1458 C1459 1.366 1_655 S
C1458 C1460 1.388 . S
C1459 C1458 1.366 1_455 S
C1459 C1463 1.385 . S
C1460 H1441 0.951 . S
C1460 C1458 1.388 . S
C1460 C1461 1.366 1_655 S
C1461 C1460 1.366 1_455 S
C1461 C1462 1.414 . S
C1461 C1464 1.499 . S
C1462 H1442 0.950 . S
C1462 C1461 1.414 . S
C1462 C1463 1.374 . S
C1463 H1443 0.950 . S
C1463 C1459 1.385 . S
C1463 C1462 1.374 . S
C1464 C1461 1.499 . S
C1464 C1465 1.373 . S
C1464 C1466 1.389 1_455 S
C1465 H1444 0.950 . S
C1465 C1464 1.373 . S
C1465 C1481 1.377 . S
C1466 C1464 1.389 1_655 S
C1466 C1467 1.524 . S
C1466 C1480 1.377 . S
C1467 C1466 1.524 . S
C1467 C1468 1.397 . S
C1467 C1472 1.363 . S
C1468 H1445 0.950 . S
C1468 C1467 1.397 . S
C1468 C1469 1.334 . S
C1469 H1446 0.950 . S
C1469 C1468 1.334 . S
C1469 C1470 1.287 . S
C1470 C1469 1.287 . S
C1470 C1471 1.524 . S
C1470 H1489 0.913 . S
C1471 H1447 0.950 . S
C1471 C1470 1.524 . S
C1471 C1472 1.415 . S
C1472 H1448 0.950 . S
C1472 C1467 1.363 . S
C1472 C1471 1.415 . S
C1473 H1449 0.951 . S
C1473 C1474 1.366 . S
C1473 C1475 1.388 . S
C1474 C1473 1.366 . S
C1474 C1478 1.384 1_455 S
C1475 H1450 0.951 . S
C1475 C1473 1.388 . S
C1475 C1476 1.366 . S
C1476 C1475 1.366 . S
C1476 C1477 1.414 1_455 S
C1476 C1479 1.499 . S
C1477 H1451 0.950 . S
C1477 C1476 1.414 1_655 S
C1477 C1478 1.374 . S
C1478 H1452 0.951 . S
C1478 C1474 1.384 1_655 S
C1478 C1477 1.374 . S
C1479 C1476 1.499 . S
C1479 C1480 1.373 1_455 S
C1479 C1481 1.389 . S
C1480 H1453 0.950 . S
C1480 C1466 1.377 . S
C1480 C1479 1.373 1_655 S
C1481 C1465 1.377 . S
C1481 C1479 1.389 . S
C1481 C1482 1.524 . S
C1482 C1481 1.524 . S
C1482 C1483 1.397 . S
C1482 C1487 1.363 . S
C1483 H1454 0.950 . S
C1483 C1482 1.397 . S
C1483 C1484 1.334 . S
C1484 H1455 0.950 . S
C1484 C1483 1.334 . S
C1484 C1485 1.287 . S
C1485 C1484 1.287 . S
C1485 C1486 1.524 . S
C1485 H1488 0.999 . S
C1486 H1456 0.950 . S
C1486 C1485 1.524 . S
C1486 C1487 1.415 . S
C1487 H1457 0.950 . S
C1487 C1482 1.363 . S
C1487 C1486 1.415 . S
H1488 C1485 0.999 . S
H1489 C1470 0.913 . S
H1490 C1508 0.951 . S
H1491 C1510 0.951 . S
H1492 C1512 0.950 . S
H1493 C1513 0.950 . S
H1494 C1515 0.940 1_655 S
H1495 C1518 0.950 . S
H1496 C1519 0.950 . S
H1497 C1521 0.950 . S
H1498 C1522 0.950 1_455 S
H1499 C1523 0.951 . S
H1500 C1525 0.951 . S
H1501 C1527 0.950 . S
H1502 C1528 0.950 . S
H1503 C1530 0.950 . S
H1504 C1533 0.950 . S
H1505 C1534 0.950 . S
H1506 C1536 0.950 . S
H1507 C1537 0.950 . S
C1508 H1490 0.951 . S
C1508 C1509 1.366 . S
C1508 C1510 1.388 . S
C1509 C1508 1.366 . S
C1509 C1513 1.385 . S
C1510 H1491 0.951 . S
C1510 C1508 1.388 . S
C1510 C1511 1.366 . S
C1511 C1510 1.366 . S
C1511 C1512 1.414 . S
C1511 C1514 1.499 . S
C1512 H1492 0.950 . S
C1512 C1511 1.414 . S
C1512 C1513 1.374 . S
C1513 H1493 0.950 . S
C1513 C1509 1.385 . S
C1513 C1512 1.374 . S
C1514 C1511 1.499 . S
C1514 C1515 1.362 1_655 S
C1514 C1516 1.362 1_655 S
C1515 H1494 0.940 1_455 S
C1515 C1514 1.362 1_455 S
C1515 C1531 1.398 . S
C1516 C1514 1.362 1_455 S
C1516 C1517 1.503 1_455 S
C1516 C1530 1.430 . S
C1517 C1516 1.503 1_655 S
C1517 C1518 1.397 . S
C1517 C1522 1.363 . S
C1518 H1495 0.950 . S
C1518 C1517 1.397 . S
C1518 C1519 1.334 . S
C1519 H1496 0.950 . S
C1519 C1518 1.334 . S
C1519 C1520 1.287 . S
C1520 C1519 1.287 . S
C1520 C1521 1.524 . S
C1520 H1539 0.913 . S
C1521 H1497 0.950 . S
C1521 C1520 1.524 . S
C1521 C1522 1.415 . S
C1522 H1498 0.950 1_655 S
C1522 C1517 1.363 . S
C1522 C1521 1.415 . S
C1523 H1499 0.951 . S
C1523 C1524 1.366 . S
C1523 C1525 1.388 . S
C1524 C1523 1.366 . S
C1524 C1528 1.385 . S
C1525 H1500 0.951 . S
C1525 C1523 1.388 . S
C1525 C1526 1.366 . S
C1526 C1525 1.366 . S
C1526 C1527 1.414 . S
C1526 C1529 1.499 . S
C1527 H1501 0.950 . S
C1527 C1526 1.414 . S
C1527 C1528 1.374 . S
C1528 H1502 0.950 . S
C1528 C1524 1.385 . S
C1528 C1527 1.374 . S
C1529 C1526 1.499 . S
C1529 C1530 1.373 . S
C1529 C1531 1.389 . S
C1530 H1503 0.950 . S
C1530 C1516 1.430 . S
C1530 C1529 1.373 . S
C1531 C1515 1.398 . S
C1531 C1529 1.389 . S
C1531 C1532 1.524 . S
C1532 C1531 1.524 . S
C1532 C1533 1.397 . S
C1532 C1537 1.363 . S
C1533 H1504 0.950 . S
C1533 C1532 1.397 . S
C1533 C1534 1.334 . S
C1534 H1505 0.950 . S
C1534 C1533 1.334 . S
C1534 C1535 1.287 . S
C1535 C1534 1.287 . S
C1535 C1536 1.524 . S
C1535 H1538 0.999 . S
C1536 H1506 0.950 . S
C1536 C1535 1.524 . S
C1536 C1537 1.415 . S
C1537 H1507 0.950 . S
C1537 C1532 1.363 . S
C1537 C1536 1.415 . S
H1538 C1535 0.999 . S
H1539 C1520 0.913 . S
H1540 C1558 0.951 . S
H1541 C1560 0.951 . S
H1542 C1562 0.950 . S
H1543 C1563 0.950 . S
H1544 C1565 0.950 . S
H1545 C1568 0.950 . S
H1546 C1569 0.950 . S
H1547 C1571 0.950 . S
H1548 C1572 0.950 . S
H1549 C1573 0.951 . S
H1550 C1575 0.951 . S
H1551 C1577 0.950 . S
H1552 C1578 0.950 . S
H1553 C1580 0.950 . S
H1554 C1583 0.950 . S
H1555 C1584 0.950 . S
H1556 C1586 0.950 . S
H1557 C1587 0.950 . S
C1558 H1540 0.951 . S
C1558 C1559 1.366 . S
C1558 C1560 1.388 . S
C1559 C1558 1.366 . S
C1559 C1563 1.385 . S
C1560 H1541 0.951 . S
C1560 C1558 1.388 . S
C1560 C1561 1.366 . S
C1561 C1560 1.366 . S
C1561 C1562 1.414 . S
C1561 C1564 1.499 . S
C1562 H1542 0.950 . S
C1562 C1561 1.414 . S
C1562 C1563 1.374 . S
C1563 H1543 0.950 . S
C1563 C1559 1.385 . S
C1563 C1562 1.374 . S
C1564 C1561 1.499 . S
C1564 C1565 1.373 . S
C1564 C1566 1.389 . S
C1565 H1544 0.950 . S
C1565 C1564 1.373 . S
C1565 C1581 1.377 . S
C1566 C1564 1.389 . S
C1566 C1567 1.524 . S
C1566 C1580 1.377 . S
C1567 C1566 1.524 . S
C1567 C1568 1.397 . S
C1567 C1572 1.363 . S
C1568 H1545 0.950 . S
C1568 C1567 1.397 . S
C1568 C1569 1.334 . S
C1569 H1546 0.950 . S
C1569 C1568 1.334 . S
C1569 C1570 1.287 . S
C1570 C1569 1.287 . S
C1570 C1571 1.524 . S
C1570 H1589 0.913 . S
C1571 H1547 0.950 . S
C1571 C1570 1.524 . S
C1571 C1572 1.415 . S
C1572 H1548 0.950 . S
C1572 C1567 1.363 . S
C1572 C1571 1.415 . S
C1573 H1549 0.951 . S
C1573 C1574 1.366 . S
C1573 C1575 1.388 . S
C1574 C1573 1.366 . S
C1574 C1578 1.385 . S
C1575 H1550 0.951 . S
C1575 C1573 1.388 . S
C1575 C1576 1.366 . S
C1576 C1575 1.366 . S
C1576 C1577 1.414 . S
C1576 C1579 1.499 . S
C1577 H1551 0.950 . S
C1577 C1576 1.414 . S
C1577 C1578 1.374 . S
C1578 H1552 0.950 . S
C1578 C1574 1.385 . S
C1578 C1577 1.374 . S
C1579 C1576 1.499 . S
C1579 C1580 1.373 . S
C1579 C1581 1.389 . S
C1580 H1553 0.950 . S
C1580 C1566 1.377 . S
C1580 C1579 1.373 . S
C1581 C1565 1.377 . S
C1581 C1579 1.389 . S
C1581 C1582 1.524 . S
C1582 C1581 1.524 . S
C1582 C1583 1.397 . S
C1582 C1587 1.363 . S
C1583 H1554 0.950 . S
C1583 C1582 1.397 . S
C1583 C1584 1.334 . S
C1584 H1555 0.950 . S
C1584 C1583 1.334 . S
C1584 C1585 1.287 . S
C1585 C1584 1.287 . S
C1585 C1586 1.524 . S
C1585 H1588 0.999 . S
C1586 H1556 0.950 . S
C1586 C1585 1.524 . S
C1586 C1587 1.415 . S
C1587 H1557 0.950 . S
C1587 C1582 1.363 . S
C1587 C1586 1.415 . S
H1588 C1585 0.999 . S
H1589 C1570 0.913 . S
H1590 C1608 0.951 . S
H1591 C1610 0.951 . S
H1592 C1612 0.950 . S
H1593 C1613 0.950 . S
H1594 C1615 0.950 . S
H1595 C1618 0.950 . S
H1596 C1619 0.950 . S
H1597 C1621 0.950 . S
H1598 C1622 0.950 . S
H1599 C1623 0.951 . S
H1600 C1625 0.951 . S
H1601 C1627 0.950 . S
H1602 C1628 0.950 . S
H1603 C1630 0.950 . S
H1604 C1633 0.950 . S
H1605 C1634 0.950 . S
H1606 C1636 0.950 . S
H1607 C1637 0.950 . S
C1608 H1590 0.951 . S
C1608 C1609 1.366 . S
C1608 C1610 1.388 . S
C1609 C1608 1.366 . S
C1609 C1613 1.385 . S
C1610 H1591 0.951 . S
C1610 C1608 1.388 . S
C1610 C1611 1.366 . S
C1611 C1610 1.366 . S
C1611 C1612 1.414 . S
C1611 C1614 1.499 . S
C1612 H1592 0.950 . S
C1612 C1611 1.414 . S
C1612 C1613 1.374 . S
C1613 H1593 0.950 . S
C1613 C1609 1.385 . S
C1613 C1612 1.374 . S
C1614 C1611 1.499 . S
C1614 C1615 1.373 . S
C1614 C1616 1.389 . S
C1615 H1594 0.950 . S
C1615 C1614 1.373 . S
C1615 C1631 1.377 . S
C1616 C1614 1.389 . S
C1616 C1617 1.524 . S
C1616 C1630 1.377 . S
C1617 C1616 1.524 . S
C1617 C1618 1.397 . S
C1617 C1622 1.363 . S
C1618 H1595 0.950 . S
C1618 C1617 1.397 . S
C1618 C1619 1.334 . S
C1619 H1596 0.950 . S
C1619 C1618 1.334 . S
C1619 C1620 1.287 . S
C1620 C1619 1.287 . S
C1620 C1621 1.524 . S
C1620 H1639 0.913 . S
C1621 H1597 0.950 . S
C1621 C1620 1.524 . S
C1621 C1622 1.415 . S
C1622 H1598 0.950 . S
C1622 C1617 1.363 . S
C1622 C1621 1.415 . S
C1623 H1599 0.951 . S
C1623 C1624 1.366 . S
C1623 C1625 1.388 . S
C1624 C1623 1.366 . S
C1624 C1628 1.385 . S
C1625 H1600 0.951 . S
C1625 C1623 1.388 . S
C1625 C1626 1.366 . S
C1626 C1625 1.366 . S
C1626 C1627 1.414 . S
C1626 C1629 1.499 . S
C1627 H1601 0.950 . S
C1627 C1626 1.414 . S
C1627 C1628 1.374 . S
C1628 H1602 0.950 . S
C1628 C1624 1.385 . S
C1628 C1627 1.374 . S
C1629 C1626 1.499 . S
C1629 C1630 1.373 . S
C1629 C1631 1.389 . S
C1630 H1603 0.950 . S
C1630 C1616 1.377 . S
C1630 C1629 1.373 . S
C1631 C1615 1.377 . S
C1631 C1629 1.389 . S
C1631 C1632 1.524 . S
C1632 C1631 1.524 . S
C1632 C1633 1.397 . S
C1632 C1637 1.363 . S
C1633 H1604 0.950 . S
C1633 C1632 1.397 . S
C1633 C1634 1.334 . S
C1634 H1605 0.950 . S
C1634 C1633 1.334 . S
C1634 C1635 1.287 . S
C1635 C1634 1.287 . S
C1635 C1636 1.524 . S
C1635 H1638 0.999 . S
C1636 H1606 0.950 . S
C1636 C1635 1.524 . S
C1636 C1637 1.415 . S
C1637 H1607 0.950 . S
C1637 C1632 1.363 . S
C1637 C1636 1.415 . S
H1638 C1635 0.999 . S
H1639 C1620 0.913 . S
H1640 C1658 0.951 . S
H1641 C1660 0.951 . S
H1642 C1662 0.950 . S
H1643 C1663 0.950 . S
H1644 C1665 0.950 . S
H1645 C1668 0.950 . S
H1646 C1669 0.950 . S
H1647 C1671 0.950 . S
H1648 C1672 0.950 . S
H1649 C1673 0.953 . S
H1650 C1675 0.940 1_655 S
H1651 C1677 0.950 . S
H1652 C1678 0.950 . S
H1653 C1680 0.950 . S
H1654 C1683 0.950 . S
H1655 C1684 0.950 . S
H1656 C1686 0.950 . S
H1657 C1687 0.950 . S
C1658 H1640 0.951 . S
C1658 C1659 1.366 . S
C1658 C1660 1.388 . S
C1659 C1658 1.366 . S
C1659 C1663 1.385 . S
C1660 H1641 0.951 . S
C1660 C1658 1.388 . S
C1660 C1661 1.366 . S
C1661 C1660 1.366 . S
C1661 C1662 1.414 . S
C1661 C1664 1.499 . S
C1662 H1642 0.950 . S
C1662 C1661 1.414 . S
C1662 C1663 1.374 . S
C1663 H1643 0.950 . S
C1663 C1659 1.385 . S
C1663 C1662 1.374 . S
C1664 C1661 1.499 . S
C1664 C1665 1.373 1_455 S
C1664 C1666 1.389 . S
C1665 H1644 0.950 . S
C1665 C1664 1.373 1_655 S
C1665 C1681 1.377 . S
C1666 C1664 1.389 . S
C1666 C1667 1.524 . S
C1666 C1680 1.377 . S
C1667 C1666 1.524 . S
C1667 C1668 1.397 . S
C1667 C1672 1.363 . S
C1668 H1645 0.950 . S
C1668 C1667 1.397 . S
C1668 C1669 1.334 . S
C1669 H1646 0.950 . S
C1669 C1668 1.334 . S
C1669 C1670 1.287 . S
C1670 C1669 1.287 . S
C1670 C1671 1.524 . S
C1670 H1689 0.913 . S
C1671 H1647 0.950 . S
C1671 C1670 1.524 . S
C1671 C1672 1.415 . S
C1672 H1648 0.950 . S
C1672 C1667 1.363 . S
C1672 C1671 1.415 . S
C1673 H1649 0.953 . S
C1673 C1674 1.364 1_655 S
C1673 C1675 1.386 1_655 S
C1674 C1673 1.364 1_455 S
C1674 C1678 1.385 . S
C1675 H1650 0.940 1_455 S
C1675 C1673 1.386 1_455 S
C1675 C1676 1.381 . S
C1676 C1675 1.381 . S
C1676 C1677 1.414 . S
C1676 C1679 1.499 . S
C1677 H1651 0.950 . S
C1677 C1676 1.414 . S
C1677 C1678 1.374 . S
C1678 H1652 0.950 . S
C1678 C1674 1.385 . S
C1678 C1677 1.374 . S
C1679 C1676 1.499 . S
C1679 C1680 1.373 . S
C1679 C1681 1.389 1_455 S
C1680 H1653 0.950 . S
C1680 C1666 1.377 . S
C1680 C1679 1.373 . S
C1681 C1665 1.377 . S
C1681 C1679 1.389 1_655 S
C1681 C1682 1.524 . S
C1682 C1681 1.524 . S
C1682 C1683 1.397 . S
C1682 C1687 1.363 . S
C1683 H1654 0.950 . S
C1683 C1682 1.397 . S
C1683 C1684 1.334 . S
C1684 H1655 0.950 . S
C1684 C1683 1.334 . S
C1684 C1685 1.287 . S
C1685 C1684 1.287 . S
C1685 C1686 1.524 . S
C1685 H1688 0.999 . S
C1686 H1656 0.950 . S
C1686 C1685 1.524 . S
C1686 C1687 1.415 . S
C1687 H1657 0.950 . S
C1687 C1682 1.363 . S
C1687 C1686 1.415 . S
H1688 C1685 0.999 . S
H1689 C1670 0.913 . S
H1690 C1708 0.951 . S
H1691 C1710 0.951 . S
H1692 C1712 0.950 . S
H1693 C1713 0.950 . S
H1694 C1715 0.950 . S
H1695 C1718 0.950 . S
H1696 C1719 0.950 . S
H1697 C1721 0.950 . S
H1698 C1722 0.950 . S
H1699 C1723 0.951 . S
H1700 C1725 0.951 . S
H1701 C1727 0.950 . S
H1702 C1728 0.950 . S
H1703 C1730 0.950 . S
H1704 C1733 0.950 . S
H1705 C1734 0.950 . S
H1706 C1736 0.950 . S
H1707 C1737 0.950 . S
C1708 H1690 0.951 . S
C1708 C1709 1.366 . S
C1708 C1710 1.388 . S
C1709 C1708 1.366 . S
C1709 C1713 1.385 . S
C1710 H1691 0.951 . S
C1710 C1708 1.388 . S
C1710 C1711 1.366 . S
C1711 C1710 1.366 . S
C1711 C1712 1.414 . S
C1711 C1714 1.499 . S
C1712 H1692 0.950 . S
C1712 C1711 1.414 . S
C1712 C1713 1.374 . S
C1713 H1693 0.950 . S
C1713 C1709 1.385 . S
C1713 C1712 1.374 . S
C1714 C1711 1.499 . S
C1714 C1715 1.373 . S
C1714 C1716 1.389 . S
C1715 H1694 0.950 . S
C1715 C1714 1.373 . S
C1715 C1731 1.377 . S
C1716 C1714 1.389 . S
C1716 C1717 1.524 . S
C1716 C1730 1.377 . S
C1717 C1716 1.524 . S
C1717 C1718 1.397 . S
C1717 C1722 1.363 . S
C1718 H1695 0.950 . S
C1718 C1717 1.397 . S
C1718 C1719 1.334 . S
C1719 H1696 0.950 . S
C1719 C1718 1.334 . S
C1719 C1720 1.287 . S
C1720 C1719 1.287 . S
C1720 C1721 1.524 . S
C1720 H1739 0.913 . S
C1721 H1697 0.950 . S
C1721 C1720 1.524 . S
C1721 C1722 1.415 . S
C1722 H1698 0.950 . S
C1722 C1717 1.363 . S
C1722 C1721 1.415 . S
C1723 H1699 0.951 . S
C1723 C1724 1.366 . S
C1723 C1725 1.388 . S
C1724 C1723 1.366 . S
C1724 C1728 1.385 . S
C1725 H1700 0.951 . S
C1725 C1723 1.388 . S
C1725 C1726 1.366 . S
C1726 C1725 1.366 . S
C1726 C1727 1.414 . S
C1726 C1729 1.499 . S
C1727 H1701 0.950 . S
C1727 C1726 1.414 . S
C1727 C1728 1.374 . S
C1728 H1702 0.950 . S
C1728 C1724 1.385 . S
C1728 C1727 1.374 . S
C1729 C1726 1.499 . S
C1729 C1730 1.373 . S
C1729 C1731 1.389 . S
C1730 H1703 0.950 . S
C1730 C1716 1.377 . S
C1730 C1729 1.373 . S
C1731 C1715 1.377 . S
C1731 C1729 1.389 . S
C1731 C1732 1.524 . S
C1732 C1731 1.524 . S
C1732 C1733 1.397 . S
C1732 C1737 1.363 . S
C1733 H1704 0.950 . S
C1733 C1732 1.397 . S
C1733 C1734 1.334 . S
C1734 H1705 0.950 . S
C1734 C1733 1.334 . S
C1734 C1735 1.287 . S
C1735 C1734 1.287 . S
C1735 C1736 1.524 . S
C1735 H1738 0.999 . S
C1736 H1706 0.950 . S
C1736 C1735 1.524 . S
C1736 C1737 1.415 . S
C1737 H1707 0.950 . S
C1737 C1732 1.363 . S
C1737 C1736 1.415 . S
H1738 C1735 0.999 . S
H1739 C1720 0.913 . S
H1740 C1758 0.951 . S
H1741 C1760 0.951 . S
H1742 C1762 0.950 . S
H1743 C1763 0.950 . S
H1744 C1765 0.950 . S
H1745 C1768 0.950 . S
H1746 C1769 0.950 . S
H1747 C1771 0.950 . S
H1748 C1772 0.950 . S
H1749 C1773 0.951 . S
H1750 C1775 0.951 . S
H1751 C1777 0.950 . S
H1752 C1778 0.950 . S
H1753 C1780 0.950 . S
H1754 C1783 0.950 . S
H1755 C1784 0.950 . S
H1756 C1786 0.950 . S
H1757 C1787 0.950 . S
C1758 H1740 0.951 . S
C1758 C1759 1.366 . S
C1758 C1760 1.388 . S
C1759 C1758 1.366 . S
C1759 C1763 1.385 . S
C1760 H1741 0.951 . S
C1760 C1758 1.388 . S
C1760 C1761 1.366 . S
C1761 C1760 1.366 . S
C1761 C1762 1.414 . S
C1761 C1764 1.499 . S
C1762 H1742 0.950 . S
C1762 C1761 1.414 . S
C1762 C1763 1.374 . S
C1763 H1743 0.950 . S
C1763 C1759 1.385 . S
C1763 C1762 1.374 . S
C1764 C1761 1.499 . S
C1764 C1765 1.373 . S
C1764 C1766 1.389 . S
C1765 H1744 0.950 . S
C1765 C1764 1.373 . S
C1765 C1781 1.377 . S
C1766 C1764 1.389 . S
C1766 C1767 1.524 . S
C1766 C1780 1.377 . S
C1767 C1766 1.524 . S
C1767 C1768 1.397 . S
C1767 C1772 1.363 . S
C1768 H1745 0.950 . S
C1768 C1767 1.397 . S
C1768 C1769 1.334 . S
C1769 H1746 0.950 . S
C1769 C1768 1.334 . S
C1769 C1770 1.287 . S
C1770 C1769 1.287 . S
C1770 C1771 1.524 . S
C1770 H1789 0.913 . S
C1771 H1747 0.950 . S
C1771 C1770 1.524 . S
C1771 C1772 1.415 . S
C1772 H1748 0.950 . S
C1772 C1767 1.363 . S
C1772 C1771 1.415 . S
C1773 H1749 0.951 . S
C1773 C1774 1.366 . S
C1773 C1775 1.388 . S
C1774 C1773 1.366 . S
C1774 C1778 1.385 . S
C1775 H1750 0.951 . S
C1775 C1773 1.388 . S
C1775 C1776 1.366 . S
C1776 C1775 1.366 . S
C1776 C1777 1.414 . S
C1776 C1779 1.499 . S
C1777 H1751 0.950 . S
C1777 C1776 1.414 . S
C1777 C1778 1.374 . S
C1778 H1752 0.950 . S
C1778 C1774 1.385 . S
C1778 C1777 1.374 . S
C1779 C1776 1.499 . S
C1779 C1780 1.373 . S
C1779 C1781 1.389 . S
C1780 H1753 0.950 . S
C1780 C1766 1.377 . S
C1780 C1779 1.373 . S
C1781 C1765 1.377 . S
C1781 C1779 1.389 . S
C1781 C1782 1.524 . S
C1782 C1781 1.524 . S
C1782 C1783 1.397 . S
C1782 C1787 1.363 . S
C1783 H1754 0.950 . S
C1783 C1782 1.397 . S
C1783 C1784 1.334 . S
C1784 H1755 0.950 . S
C1784 C1783 1.334 . S
C1784 C1785 1.287 . S
C1785 C1784 1.287 . S
C1785 C1786 1.524 . S
C1785 H1788 0.999 . S
C1786 H1756 0.950 . S
C1786 C1785 1.524 . S
C1786 C1787 1.415 . S
C1787 H1757 0.950 . S
C1787 C1782 1.363 . S
C1787 C1786 1.415 . S
H1788 C1785 0.999 . S
H1789 C1770 0.913 . S
H1790 C1808 0.951 . S
H1791 C1810 0.951 . S
H1792 C1812 0.950 . S
H1793 C1813 0.950 . S
H1794 C1815 0.950 . S
H1795 C1818 0.950 . S
H1796 C1819 0.950 . S
H1797 C1821 0.950 . S
H1798 C1822 0.950 . S
H1799 C1823 0.951 . S
H1800 C1825 0.951 . S
H1801 C1827 0.950 . S
H1802 C1828 0.950 . S
H1803 C1830 0.928 1_655 S
H1804 C1833 0.950 . S
H1805 C1834 0.950 . S
H1806 C1836 0.950 . S
H1807 C1837 0.950 1_455 S
C1808 H1790 0.951 . S
C1808 C1809 1.366 . S
C1808 C1810 1.388 . S
C1809 C1808 1.366 . S
C1809 C1813 1.385 . S
C1810 H1791 0.951 . S
C1810 C1808 1.388 . S
C1810 C1811 1.366 . S
C1811 C1810 1.366 . S
C1811 C1812 1.414 . S
C1811 C1814 1.499 . S
C1812 H1792 0.950 . S
C1812 C1811 1.414 . S
C1812 C1813 1.374 . S
C1813 H1793 0.950 . S
C1813 C1809 1.385 . S
C1813 C1812 1.374 . S
C1814 C1811 1.499 . S
C1814 C1815 1.373 . S
C1814 C1816 1.389 . S
C1815 H1794 0.950 . S
C1815 C1814 1.373 . S
C1815 C1831 1.400 . S
C1816 C1814 1.389 . S
C1816 C1817 1.524 . S
C1816 C1830 1.426 . S
C1817 C1816 1.524 . S
C1817 C1818 1.397 . S
C1817 C1822 1.363 . S
C1818 H1795 0.950 . S
C1818 C1817 1.397 . S
C1818 C1819 1.334 . S
C1819 H1796 0.950 . S
C1819 C1818 1.334 . S
C1819 C1820 1.287 . S
C1820 C1819 1.287 . S
C1820 C1821 1.524 . S
C1820 H1839 0.913 . S
C1821 H1797 0.950 . S
C1821 C1820 1.524 . S
C1821 C1822 1.415 . S
C1822 H1798 0.950 . S
C1822 C1817 1.363 . S
C1822 C1821 1.415 . S
C1823 H1799 0.951 . S
C1823 C1824 1.366 . S
C1823 C1825 1.388 . S
C1824 C1823 1.366 . S
C1824 C1828 1.385 . S
C1825 H1800 0.951 . S
C1825 C1823 1.388 . S
C1825 C1826 1.366 . S
C1826 C1825 1.366 . S
C1826 C1827 1.414 . S
C1826 C1829 1.499 . S
C1827 H1801 0.950 . S
C1827 C1826 1.414 . S
C1827 C1828 1.374 . S
C1828 H1802 0.950 . S
C1828 C1824 1.385 . S
C1828 C1827 1.374 . S
C1829 C1826 1.499 . S
C1829 C1830 1.348 1_655 S
C1829 C1831 1.378 1_655 S
C1830 H1803 0.928 1_455 S
C1830 C1816 1.426 . S
C1830 C1829 1.348 1_455 S
C1831 C1815 1.400 . S
C1831 C1829 1.378 1_455 S
C1831 C1832 1.514 1_455 S
C1832 C1831 1.514 1_655 S
C1832 C1833 1.397 . S
C1832 C1837 1.363 . S
C1833 H1804 0.950 . S
C1833 C1832 1.397 . S
C1833 C1834 1.334 . S
C1834 H1805 0.950 . S
C1834 C1833 1.334 . S
C1834 C1835 1.287 . S
C1835 C1834 1.287 . S
C1835 C1836 1.524 . S
C1835 H1838 0.999 . S
C1836 H1806 0.950 . S
C1836 C1835 1.524 . S
C1836 C1837 1.415 . S
C1837 H1807 0.950 1_655 S
C1837 C1832 1.363 . S
C1837 C1836 1.415 . S
H1838 C1835 0.999 . S
H1839 C1820 0.913 . S
H1840 C1858 0.951 1_655 S
H1841 C1860 0.951 1_655 S
H1842 C1862 0.950 . S
H1843 C1863 0.950 . S
H1844 C1865 0.950 . S
H1845 C1868 0.950 . S
H1846 C1869 0.950 . S
H1847 C1871 0.950 . S
H1848 C1872 0.950 . S
H1849 C1873 0.951 . S
H1850 C1875 0.951 . S
H1851 C1877 0.921 1_655 S
H1852 C1878 0.950 1_655 S
H1853 C1880 0.950 . S
H1854 C1883 0.950 . S
H1855 C1884 0.950 . S
H1856 C1886 0.950 . S
H1857 C1887 0.950 . S
C1858 H1840 0.951 1_455 S
C1858 C1859 1.366 . S
C1858 C1860 1.388 . S
C1859 C1858 1.366 . S
C1859 C1863 1.385 . S
C1860 H1841 0.951 1_455 S
C1860 C1858 1.388 . S
C1860 C1861 1.366 . S
C1861 C1860 1.366 . S
C1861 C1862 1.414 . S
C1861 C1864 1.499 . S
C1862 H1842 0.950 . S
C1862 C1861 1.414 . S
C1862 C1863 1.374 . S
C1863 H1843 0.950 . S
C1863 C1859 1.385 . S
C1863 C1862 1.374 . S
C1864 C1861 1.499 . S
C1864 C1865 1.373 1_554 S
C1864 C1866 1.389 1_545 S
C1865 H1844 0.950 . S
C1865 C1864 1.373 1_556 S
C1865 C1881 1.377 . S
C1866 C1864 1.389 1_565 S
C1866 C1867 1.524 . S
C1866 C1880 1.377 . S
C1867 C1866 1.524 . S
C1867 C1868 1.397 . S
C1867 C1872 1.363 1_455 S
C1868 H1845 0.950 . S
C1868 C1867 1.397 . S
C1868 C1869 1.334 . S
C1869 H1846 0.950 . S
C1869 C1868 1.334 . S
C1869 C1870 1.287 . S
C1870 C1869 1.287 . S
C1870 C1871 1.524 1_455 S
C1870 H1889 0.913 . S
C1871 H1847 0.950 . S
C1871 C1870 1.524 1_655 S
C1871 C1872 1.415 . S
C1872 H1848 0.950 . S
C1872 C1867 1.363 1_655 S
C1872 C1871 1.415 . S
C1873 H1849 0.951 . S
C1873 C1874 1.366 . S
C1873 C1875 1.388 . S
C1874 C1873 1.366 . S
C1874 C1878 1.385 . S
C1875 H1850 0.951 . S
C1875 C1873 1.388 . S
C1875 C1876 1.366 . S
C1876 C1875 1.366 . S
C1876 C1877 1.443 . S
C1876 C1879 1.499 . S
C1877 H1851 0.921 1_455 S
C1877 C1876 1.443 . S
C1877 C1878 1.375 . S
C1878 H1852 0.950 1_455 S
C1878 C1874 1.385 . S
C1878 C1877 1.375 . S
C1879 C1876 1.499 . S
C1879 C1880 1.373 1_556 S
C1879 C1881 1.389 1_565 S
C1880 H1853 0.950 . S
C1880 C1866 1.377 . S
C1880 C1879 1.373 1_554 S
C1881 C1865 1.377 . S
C1881 C1879 1.389 1_545 S
C1881 C1882 1.524 . S
C1882 C1881 1.524 . S
C1882 C1883 1.397 . S
C1882 C1887 1.363 . S
C1883 H1854 0.950 . S
C1883 C1882 1.397 . S
C1883 C1884 1.334 . S
C1884 H1855 0.950 . S
C1884 C1883 1.334 . S
C1884 C1885 1.287 . S
C1885 C1884 1.287 . S
C1885 C1886 1.524 . S
C1885 H1888 0.999 . S
C1886 H1856 0.950 . S
C1886 C1885 1.524 . S
C1886 C1887 1.415 . S
C1887 H1857 0.950 . S
C1887 C1882 1.363 . S
C1887 C1886 1.415 . S
H1888 C1885 0.999 . S
H1889 C1870 0.913 . S
H1890 C1908 0.951 . S
H1891 C1910 0.951 . S
H1892 C1912 0.950 . S
H1893 C1913 0.950 . S
H1894 C1915 0.950 . S
H1895 C1918 0.950 . S
H1896 C1919 0.950 . S
H1897 C1921 0.950 . S
H1898 C1922 0.950 . S
H1899 C1923 0.951 . S
H1900 C1925 0.951 . S
H1901 C1927 0.950 . S
H1902 C1928 0.950 . S
H1903 C1930 0.950 . S
H1904 C1933 0.950 . S
H1905 C1934 0.950 . S
H1906 C1936 0.950 . S
H1907 C1937 0.950 . S
C1908 H1890 0.951 . S
C1908 C1909 1.366 . S
C1908 C1910 1.388 . S
C1909 C1908 1.366 . S
C1909 C1913 1.385 . S
C1910 H1891 0.951 . S
C1910 C1908 1.388 . S
C1910 C1911 1.366 . S
C1911 C1910 1.366 . S
C1911 C1912 1.414 . S
C1911 C1914 1.499 . S
C1912 H1892 0.950 . S
C1912 C1911 1.414 . S
C1912 C1913 1.374 . S
C1913 H1893 0.950 . S
C1913 C1909 1.385 . S
C1913 C1912 1.374 . S
C1914 C1911 1.499 . S
C1914 C1915 1.373 . S
C1914 C1916 1.389 . S
C1915 H1894 0.950 . S
C1915 C1914 1.373 . S
C1915 C1931 1.377 . S
C1916 C1914 1.389 . S
C1916 C1917 1.524 . S
C1916 C1930 1.377 . S
C1917 C1916 1.524 . S
C1917 C1918 1.397 . S
C1917 C1922 1.363 . S
C1918 H1895 0.950 . S
C1918 C1917 1.397 . S
C1918 C1919 1.334 . S
C1919 H1896 0.950 . S
C1919 C1918 1.334 . S
C1919 C1920 1.287 . S
C1920 C1919 1.287 . S
C1920 C1921 1.524 . S
C1920 H1939 0.913 . S
C1921 H1897 0.950 . S
C1921 C1920 1.524 . S
C1921 C1922 1.415 . S
C1922 H1898 0.950 . S
C1922 C1917 1.363 . S
C1922 C1921 1.415 . S
C1923 H1899 0.951 . S
C1923 C1924 1.366 . S
C1923 C1925 1.388 . S
C1924 C1923 1.366 . S
C1924 C1928 1.385 . S
C1925 H1900 0.951 . S
C1925 C1923 1.388 . S
C1925 C1926 1.366 . S
C1926 C1925 1.366 . S
C1926 C1927 1.414 . S
C1926 C1929 1.499 . S
C1927 H1901 0.950 . S
C1927 C1926 1.414 . S
C1927 C1928 1.374 . S
C1928 H1902 0.950 . S
C1928 C1924 1.385 . S
C1928 C1927 1.374 . S
C1929 C1926 1.499 . S
C1929 C1930 1.373 . S
C1929 C1931 1.389 . S
C1930 H1903 0.950 . S
C1930 C1916 1.377 . S
C1930 C1929 1.373 . S
C1931 C1915 1.377 . S
C1931 C1929 1.389 . S
C1931 C1932 1.524 . S
C1932 C1931 1.524 . S
C1932 C1933 1.397 . S
C1932 C1937 1.363 . S
C1933 H1904 0.950 . S
C1933 C1932 1.397 . S
C1933 C1934 1.334 . S
C1934 H1905 0.950 . S
C1934 C1933 1.334 . S
C1934 C1935 1.287 . S
C1935 C1934 1.287 . S
C1935 C1936 1.524 . S
C1935 H1938 0.999 . S
C1936 H1906 0.950 . S
C1936 C1935 1.524 . S
C1936 C1937 1.415 . S
C1937 H1907 0.950 . S
C1937 C1932 1.363 . S
C1937 C1936 1.415 . S
H1938 C1935 0.999 . S
H1939 C1920 0.913 . S
H1940 C1958 0.951 . S
H1941 C1960 0.951 . S
H1942 C1962 0.950 . S
H1943 C1963 0.950 . S
H1944 C1965 0.950 . S
H1945 C1968 0.950 . S
H1946 C1969 0.950 . S
H1947 C1971 0.950 . S
H1948 C1972 0.950 . S
H1949 C1973 0.951 . S
H1950 C1975 0.951 . S
H1951 C1977 0.950 . S
H1952 C1978 0.950 . S
H1953 C1980 0.950 . S
H1954 C1983 0.950 . S
H1955 C1984 0.950 . S
H1956 C1986 0.950 . S
H1957 C1987 0.950 . S
C1958 H1940 0.951 . S
C1958 C1959 1.366 . S
C1958 C1960 1.388 . S
C1959 C1958 1.366 . S
C1959 C1963 1.385 . S
C1960 H1941 0.951 . S
C1960 C1958 1.388 . S
C1960 C1961 1.366 . S
C1961 C1960 1.366 . S
C1961 C1962 1.414 . S
C1961 C1964 1.499 . S
C1962 H1942 0.950 . S
C1962 C1961 1.414 . S
C1962 C1963 1.374 . S
C1963 H1943 0.950 . S
C1963 C1959 1.385 . S
C1963 C1962 1.374 . S
C1964 C1961 1.499 . S
C1964 C1965 1.373 . S
C1964 C1966 1.389 1_545 S
C1965 H1944 0.950 . S
C1965 C1964 1.373 . S
C1965 C1981 1.377 . S
C1966 C1964 1.389 1_565 S
C1966 C1967 1.524 . S
C1966 C1980 1.377 . S
C1967 C1966 1.524 . S
C1967 C1968 1.397 . S
C1967 C1972 1.363 . S
C1968 H1945 0.950 . S
C1968 C1967 1.397 . S
C1968 C1969 1.334 . S
C1969 H1946 0.950 . S
C1969 C1968 1.334 . S
C1969 C1970 1.287 . S
C1970 C1969 1.287 . S
C1970 C1971 1.524 . S
C1970 H1989 0.913 . S
C1971 H1947 0.950 . S
C1971 C1970 1.524 . S
C1971 C1972 1.415 . S
C1972 H1948 0.950 . S
C1972 C1967 1.363 . S
C1972 C1971 1.415 . S
C1973 H1949 0.951 . S
C1973 C1974 1.366 . S
C1973 C1975 1.388 . S
C1974 C1973 1.366 . S
C1974 C1978 1.385 . S
C1975 H1950 0.951 . S
C1975 C1973 1.388 . S
C1975 C1976 1.366 . S
C1976 C1975 1.366 . S
C1976 C1977 1.414 . S
C1976 C1979 1.499 . S
C1977 H1951 0.950 . S
C1977 C1976 1.414 . S
C1977 C1978 1.374 . S
C1978 H1952 0.950 . S
C1978 C1974 1.385 . S
C1978 C1977 1.374 . S
C1979 C1976 1.499 . S
C1979 C1980 1.373 . S
C1979 C1981 1.389 1_565 S
C1980 H1953 0.950 . S
C1980 C1966 1.377 . S
C1980 C1979 1.373 . S
C1981 C1965 1.377 . S
C1981 C1979 1.389 1_545 S
C1981 C1982 1.524 . S
C1982 C1981 1.524 . S
C1982 C1983 1.397 . S
C1982 C1987 1.363 . S
C1983 H1954 0.950 . S
C1983 C1982 1.397 . S
C1983 C1984 1.334 . S
C1984 H1955 0.950 . S
C1984 C1983 1.334 . S
C1984 C1985 1.287 . S
C1985 C1984 1.287 . S
C1985 C1986 1.524 . S
C1985 H1988 0.999 . S
C1986 H1956 0.950 . S
C1986 C1985 1.524 . S
C1986 C1987 1.415 . S
C1987 H1957 0.950 . S
C1987 C1982 1.363 . S
C1987 C1986 1.415 . S
H1988 C1985 0.999 . S
H1989 C1970 0.913 . S
H1990 C2008 0.951 . S
H1991 C2010 0.951 . S
H1992 C2012 0.950 . S
H1993 C2013 0.950 . S
H1994 C2015 0.950 . S
H1995 C2018 0.950 . S
H1996 C2019 0.950 . S
H1997 C2021 0.950 . S
H1998 C2022 0.950 . S
H1999 C2023 0.951 . S
H2000 C2025 0.951 . S
H2001 C2027 0.950 . S
H2002 C2028 0.950 . S
H2003 C2030 0.950 . S
H2004 C2033 0.950 . S
H2005 C2034 0.950 . S
H2006 C2036 0.950 . S
H2007 C2037 0.950 . S
C2008 H1990 0.951 . S
C2008 C2009 1.366 . S
C2008 C2010 1.388 . S
C2009 C2008 1.366 . S
C2009 C2013 1.385 . S
C2010 H1991 0.951 . S
C2010 C2008 1.388 . S
C2010 C2011 1.366 . S
C2011 C2010 1.366 . S
C2011 C2012 1.414 . S
C2011 C2014 1.499 . S
C2012 H1992 0.950 . S
C2012 C2011 1.414 . S
C2012 C2013 1.374 . S
C2013 H1993 0.950 . S
C2013 C2009 1.385 . S
C2013 C2012 1.374 . S
C2014 C2011 1.499 . S
C2014 C2015 1.373 . S
C2014 C2016 1.389 . S
C2015 H1994 0.950 . S
C2015 C2014 1.373 . S
C2015 C2031 1.377 . S
C2016 C2014 1.389 . S
C2016 C2017 1.524 . S
C2016 C2030 1.377 . S
C2017 C2016 1.524 . S
C2017 C2018 1.397 . S
C2017 C2022 1.363 . S
C2018 H1995 0.950 . S
C2018 C2017 1.397 . S
C2018 C2019 1.334 . S
C2019 H1996 0.950 . S
C2019 C2018 1.334 . S
C2019 C2020 1.287 . S
C2020 C2019 1.287 . S
C2020 C2021 1.524 . S
C2020 H2039 0.913 . S
C2021 H1997 0.950 . S
C2021 C2020 1.524 . S
C2021 C2022 1.415 . S
C2022 H1998 0.950 . S
C2022 C2017 1.363 . S
C2022 C2021 1.415 . S
C2023 H1999 0.951 . S
C2023 C2024 1.366 . S
C2023 C2025 1.388 . S
C2024 C2023 1.366 . S
C2024 C2028 1.385 . S
C2025 H2000 0.951 . S
C2025 C2023 1.388 . S
C2025 C2026 1.366 . S
C2026 C2025 1.366 . S
C2026 C2027 1.414 . S
C2026 C2029 1.499 . S
C2027 H2001 0.950 . S
C2027 C2026 1.414 . S
C2027 C2028 1.374 . S
C2028 H2002 0.950 . S
C2028 C2024 1.385 . S
C2028 C2027 1.374 . S
C2029 C2026 1.499 . S
C2029 C2030 1.373 . S
C2029 C2031 1.389 . S
C2030 H2003 0.950 . S
C2030 C2016 1.377 . S
C2030 C2029 1.373 . S
C2031 C2015 1.377 . S
C2031 C2029 1.389 . S
C2031 C2032 1.524 . S
C2032 C2031 1.524 . S
C2032 C2033 1.397 . S
C2032 C2037 1.363 . S
C2033 H2004 0.950 . S
C2033 C2032 1.397 . S
C2033 C2034 1.334 . S
C2034 H2005 0.950 . S
C2034 C2033 1.334 . S
C2034 C2035 1.287 . S
C2035 C2034 1.287 . S
C2035 C2036 1.524 . S
C2035 H2038 0.999 . S
C2036 H2006 0.950 . S
C2036 C2035 1.524 . S
C2036 C2037 1.415 . S
C2037 H2007 0.950 . S
C2037 C2032 1.363 . S
C2037 C2036 1.415 . S
H2038 C2035 0.999 . S
H2039 C2020 0.913 . S
H2040 C2058 0.951 . S
H2041 C2060 0.951 . S
H2042 C2062 0.950 . S
H2043 C2063 0.950 . S
H2044 C2065 0.950 . S
H2045 C2068 0.950 . S
H2046 C2069 0.950 . S
H2047 C2071 0.950 . S
H2048 C2072 0.950 . S
H2049 C2073 0.951 . S
H2050 C2075 0.951 . S
H2051 C2077 0.950 . S
H2052 C2078 0.950 . S
H2053 C2080 0.950 . S
H2054 C2083 0.950 . S
H2055 C2084 0.950 . S
H2056 C2086 0.950 . S
H2057 C2087 0.950 . S
C2058 H2040 0.951 . S
C2058 C2059 1.366 . S
C2058 C2060 1.388 . S
C2059 C2058 1.366 . S
C2059 C2063 1.385 . S
C2060 H2041 0.951 . S
C2060 C2058 1.388 . S
C2060 C2061 1.366 . S
C2061 C2060 1.366 . S
C2061 C2062 1.414 . S
C2061 C2064 1.499 . S
C2062 H2042 0.950 . S
C2062 C2061 1.414 . S
C2062 C2063 1.374 . S
C2063 H2043 0.950 . S
C2063 C2059 1.385 . S
C2063 C2062 1.374 . S
C2064 C2061 1.499 . S
C2064 C2065 1.373 . S
C2064 C2066 1.389 . S
C2065 H2044 0.950 . S
C2065 C2064 1.373 . S
C2065 C2081 1.377 . S
C2066 C2064 1.389 . S
C2066 C2067 1.524 . S
C2066 C2080 1.377 . S
C2067 C2066 1.524 . S
C2067 C2068 1.397 . S
C2067 C2072 1.363 . S
C2068 H2045 0.950 . S
C2068 C2067 1.397 . S
C2068 C2069 1.334 . S
C2069 H2046 0.950 . S
C2069 C2068 1.334 . S
C2069 C2070 1.287 . S
C2070 C2069 1.287 . S
C2070 C2071 1.524 . S
C2070 H2089 0.913 . S
C2071 H2047 0.950 . S
C2071 C2070 1.524 . S
C2071 C2072 1.415 . S
C2072 H2048 0.950 . S
C2072 C2067 1.363 . S
C2072 C2071 1.415 . S
C2073 H2049 0.951 . S
C2073 C2074 1.366 . S
C2073 C2075 1.388 . S
C2074 C2073 1.366 . S
C2074 C2078 1.385 . S
C2075 H2050 0.951 . S
C2075 C2073 1.388 . S
C2075 C2076 1.366 . S
C2076 C2075 1.366 . S
C2076 C2077 1.414 . S
C2076 C2079 1.499 . S
C2077 H2051 0.950 . S
C2077 C2076 1.414 . S
C2077 C2078 1.374 . S
C2078 H2052 0.950 . S
C2078 C2074 1.385 . S
C2078 C2077 1.374 . S
C2079 C2076 1.499 . S
C2079 C2080 1.373 . S
C2079 C2081 1.389 . S
C2080 H2053 0.950 . S
C2080 C2066 1.377 . S
C2080 C2079 1.373 . S
C2081 C2065 1.377 . S
C2081 C2079 1.389 . S
C2081 C2082 1.524 . S
C2082 C2081 1.524 . S
C2082 C2083 1.397 . S
C2082 C2087 1.363 . S
C2083 H2054 0.950 . S
C2083 C2082 1.397 . S
C2083 C2084 1.334 . S
C2084 H2055 0.950 . S
C2084 C2083 1.334 . S
C2084 C2085 1.287 . S
C2085 C2084 1.287 . S
C2085 C2086 1.524 . S
C2085 H2088 0.999 . S
C2086 H2056 0.950 . S
C2086 C2085 1.524 . S
C2086 C2087 1.415 . S
C2087 H2057 0.950 . S
C2087 C2082 1.363 . S
C2087 C2086 1.415 . S
H2088 C2085 0.999 . S
H2089 C2070 0.913 . S
H2090 C2108 0.951 . S
H2091 C2110 0.951 . S
H2092 C2112 0.950 . S
H2093 C2113 0.950 . S
H2094 C2115 0.950 . S
H2095 C2118 0.950 . S
H2096 C2119 0.950 . S
H2097 C2121 0.950 . S
H2098 C2122 0.950 . S
H2099 C2123 0.951 . S
H2100 C2125 0.951 . S
H2101 C2127 0.950 . S
H2102 C2128 0.950 . S
H2103 C2130 0.950 . S
H2104 C2133 0.950 . S
H2105 C2134 0.950 . S
H2106 C2136 0.950 . S
H2107 C2137 0.950 . S
C2108 H2090 0.951 . S
C2108 C2109 1.366 . S
C2108 C2110 1.388 . S
C2109 C2108 1.366 . S
C2109 C2113 1.385 . S
C2110 H2091 0.951 . S
C2110 C2108 1.388 . S
C2110 C2111 1.366 . S
C2111 C2110 1.366 . S
C2111 C2112 1.414 . S
C2111 C2114 1.499 . S
C2112 H2092 0.950 . S
C2112 C2111 1.414 . S
C2112 C2113 1.374 . S
C2113 H2093 0.950 . S
C2113 C2109 1.385 . S
C2113 C2112 1.374 . S
C2114 C2111 1.499 . S
C2114 C2115 1.373 . S
C2114 C2116 1.389 . S
C2115 H2094 0.950 . S
C2115 C2114 1.373 . S
C2115 C2131 1.377 . S
C2116 C2114 1.389 . S
C2116 C2117 1.524 . S
C2116 C2130 1.377 . S
C2117 C2116 1.524 . S
C2117 C2118 1.397 . S
C2117 C2122 1.363 . S
C2118 H2095 0.950 . S
C2118 C2117 1.397 . S
C2118 C2119 1.334 . S
C2119 H2096 0.950 . S
C2119 C2118 1.334 . S
C2119 C2120 1.287 . S
C2120 C2119 1.287 . S
C2120 C2121 1.524 . S
C2120 H2139 0.913 . S
C2121 H2097 0.950 . S
C2121 C2120 1.524 . S
C2121 C2122 1.415 . S
C2122 H2098 0.950 . S
C2122 C2117 1.363 . S
C2122 C2121 1.415 . S
C2123 H2099 0.951 . S
C2123 C2124 1.366 . S
C2123 C2125 1.388 . S
C2124 C2123 1.366 . S
C2124 C2128 1.385 . S
C2125 H2100 0.951 . S
C2125 C2123 1.388 . S
C2125 C2126 1.366 . S
C2126 C2125 1.366 . S
C2126 C2127 1.414 . S
C2126 C2129 1.499 . S
C2127 H2101 0.950 . S
C2127 C2126 1.414 . S
C2127 C2128 1.374 . S
C2128 H2102 0.950 . S
C2128 C2124 1.385 . S
C2128 C2127 1.374 . S
C2129 C2126 1.499 . S
C2129 C2130 1.373 . S
C2129 C2131 1.389 . S
C2130 H2103 0.950 . S
C2130 C2116 1.377 . S
C2130 C2129 1.373 . S
C2131 C2115 1.377 . S
C2131 C2129 1.389 . S
C2131 C2132 1.524 . S
C2132 C2131 1.524 . S
C2132 C2133 1.397 . S
C2132 C2137 1.363 . S
C2133 H2104 0.950 . S
C2133 C2132 1.397 . S
C2133 C2134 1.334 . S
C2134 H2105 0.950 . S
C2134 C2133 1.334 . S
C2134 C2135 1.287 . S
C2135 C2134 1.287 . S
C2135 C2136 1.524 . S
C2135 H2138 0.999 . S
C2136 H2106 0.950 . S
C2136 C2135 1.524 . S
C2136 C2137 1.415 . S
C2137 H2107 0.950 . S
C2137 C2132 1.363 . S
C2137 C2136 1.415 . S
H2138 C2135 0.999 . S
H2139 C2120 0.913 . S
H2140 C2158 0.951 . S
H2141 C2160 0.951 . S
H2142 C2162 0.950 . S
H2143 C2163 0.950 . S
H2144 C2165 0.950 . S
H2145 C2168 0.950 . S
H2146 C2169 0.950 . S
H2147 C2171 0.950 . S
H2148 C2172 0.950 . S
H2149 C2173 0.951 . S
H2150 C2175 0.951 . S
H2151 C2177 0.950 . S
H2152 C2178 0.950 . S
H2153 C2180 0.950 . S
H2154 C2183 0.950 . S
H2155 C2184 0.950 . S
H2156 C2186 0.950 . S
H2157 C2187 0.950 . S
C2158 H2140 0.951 . S
C2158 C2159 1.366 . S
C2158 C2160 1.388 . S
C2159 C2158 1.366 . S
C2159 C2163 1.385 . S
C2160 H2141 0.951 . S
C2160 C2158 1.388 . S
C2160 C2161 1.366 . S
C2161 C2160 1.366 . S
C2161 C2162 1.414 . S
C2161 C2164 1.499 . S
C2162 H2142 0.950 . S
C2162 C2161 1.414 . S
C2162 C2163 1.374 . S
C2163 H2143 0.950 . S
C2163 C2159 1.385 . S
C2163 C2162 1.374 . S
C2164 C2161 1.499 . S
C2164 C2165 1.373 . S
C2164 C2166 1.389 . S
C2165 H2144 0.950 . S
C2165 C2164 1.373 . S
C2165 C2181 1.377 . S
C2166 C2164 1.389 . S
C2166 C2167 1.524 . S
C2166 C2180 1.377 . S
C2167 C2166 1.524 . S
C2167 C2168 1.397 . S
C2167 C2172 1.363 . S
C2168 H2145 0.950 . S
C2168 C2167 1.397 . S
C2168 C2169 1.334 . S
C2169 H2146 0.950 . S
C2169 C2168 1.334 . S
C2169 C2170 1.287 . S
C2170 C2169 1.287 . S
C2170 C2171 1.524 . S
C2170 H2189 0.913 . S
C2171 H2147 0.950 . S
C2171 C2170 1.524 . S
C2171 C2172 1.415 . S
C2172 H2148 0.950 . S
C2172 C2167 1.363 . S
C2172 C2171 1.415 . S
C2173 H2149 0.951 . S
C2173 C2174 1.366 . S
C2173 C2175 1.388 . S
C2174 C2173 1.366 . S
C2174 C2178 1.385 . S
C2175 H2150 0.951 . S
C2175 C2173 1.388 . S
C2175 C2176 1.366 . S
C2176 C2175 1.366 . S
C2176 C2177 1.414 . S
C2176 C2179 1.499 . S
C2177 H2151 0.950 . S
C2177 C2176 1.414 . S
C2177 C2178 1.374 . S
C2178 H2152 0.950 . S
C2178 C2174 1.385 . S
C2178 C2177 1.374 . S
C2179 C2176 1.499 . S
C2179 C2180 1.373 . S
C2179 C2181 1.389 . S
C2180 H2153 0.950 . S
C2180 C2166 1.377 . S
C2180 C2179 1.373 . S
C2181 C2165 1.377 . S
C2181 C2179 1.389 . S
C2181 C2182 1.524 . S
C2182 C2181 1.524 . S
C2182 C2183 1.397 . S
C2182 C2187 1.363 . S
C2183 H2154 0.950 . S
C2183 C2182 1.397 . S
C2183 C2184 1.334 . S
C2184 H2155 0.950 . S
C2184 C2183 1.334 . S
C2184 C2185 1.287 . S
C2185 C2184 1.287 . S
C2185 C2186 1.524 . S
C2185 H2188 0.999 . S
C2186 H2156 0.950 . S
C2186 C2185 1.524 . S
C2186 C2187 1.415 . S
C2187 H2157 0.950 . S
C2187 C2182 1.363 . S
C2187 C2186 1.415 . S
H2188 C2185 0.999 . S
H2189 C2170 0.913 . S
H2190 C2208 0.951 . S
H2191 C2210 0.951 . S
H2192 C2212 0.950 . S
H2193 C2213 0.950 . S
H2194 C2215 0.957 . S
H2195 C2218 0.950 . S
H2196 C2219 0.950 . S
H2197 C2221 0.950 . S
H2198 C2222 0.950 . S
H2199 C2223 0.951 . S
H2200 C2225 0.951 . S
H2201 C2227 0.950 . S
H2202 C2228 0.950 . S
H2203 C2230 0.950 . S
H2204 C2233 0.950 . S
H2205 C2234 0.950 . S
H2206 C2236 0.950 . S
H2207 C2237 0.950 . S
C2208 H2190 0.951 . S
C2208 C2209 1.366 . S
C2208 C2210 1.388 . S
C2209 C2208 1.366 . S
C2209 C2213 1.385 1_455 S
C2210 H2191 0.951 . S
C2210 C2208 1.388 . S
C2210 C2211 1.366 . S
C2211 C2210 1.366 . S
C2211 C2212 1.414 1_455 S
C2211 C2214 1.499 . S
C2212 H2192 0.950 . S
C2212 C2211 1.414 1_655 S
C2212 C2213 1.374 . S
C2213 H2193 0.950 . S
C2213 C2209 1.385 1_655 S
C2213 C2212 1.374 . S
C2214 C2211 1.499 . S
C2214 C2215 1.369 1_456 S
C2214 C2216 1.389 . S
C2215 H2194 0.957 . S
C2215 C2214 1.369 1_654 S
C2215 C2231 1.374 1_655 S
C2216 C2214 1.389 . S
C2216 C2217 1.524 . S
C2216 C2230 1.377 . S
C2217 C2216 1.524 . S
C2217 C2218 1.397 1_455 S
C2217 C2222 1.363 . S
C2218 H2195 0.950 . S
C2218 C2217 1.397 1_655 S
C2218 C2219 1.334 . S
C2219 H2196 0.950 . S
C2219 C2218 1.334 . S
C2219 C2220 1.287 1_655 S
C2220 C2219 1.287 1_455 S
C2220 C2221 1.524 . S
C2220 H2239 0.913 . S
C2221 H2197 0.950 . S
C2221 C2220 1.524 . S
C2221 C2222 1.415 . S
C2222 H2198 0.950 . S
C2222 C2217 1.363 . S
C2222 C2221 1.415 . S
C2223 H2199 0.951 . S
C2223 C2224 1.366 1_655 S
C2223 C2225 1.388 . S
C2224 C2223 1.366 1_455 S
C2224 C2228 1.385 . S
C2225 H2200 0.951 . S
C2225 C2223 1.388 . S
C2225 C2226 1.366 1_655 S
C2226 C2225 1.366 1_455 S
C2226 C2227 1.414 . S
C2226 C2229 1.499 . S
C2227 H2201 0.950 . S
C2227 C2226 1.414 . S
C2227 C2228 1.374 . S
C2228 H2202 0.950 . S
C2228 C2224 1.385 . S
C2228 C2227 1.374 . S
C2229 C2226 1.499 . S
C2229 C2230 1.373 1_554 S
C2229 C2231 1.399 . S
C2230 H2203 0.950 . S
C2230 C2216 1.377 . S
C2230 C2229 1.373 1_556 S
C2231 C2215 1.374 1_455 S
C2231 C2229 1.399 . S
C2231 C2232 1.521 1_455 S
C2232 C2231 1.521 1_655 S
C2232 C2233 1.397 1_655 S
C2232 C2237 1.363 . S
C2233 H2204 0.950 . S
C2233 C2232 1.397 1_455 S
C2233 C2234 1.334 . S
C2234 H2205 0.950 . S
C2234 C2233 1.334 . S
C2234 C2235 1.269 1_455 S
C2235 C2234 1.269 1_655 S
C2235 C2236 1.543 . S
C2235 H2238 1.001 . S
C2236 H2206 0.950 . S
C2236 C2235 1.543 . S
C2236 C2237 1.415 . S
C2237 H2207 0.950 . S
C2237 C2232 1.363 . S
C2237 C2236 1.415 . S
H2238 C2235 1.001 . S
H2239 C2220 0.913 . S
H2240 C2258 0.951 . S
H2241 C2260 0.951 . S
H2242 C2262 0.950 . S
H2243 C2263 0.950 . S
H2244 C2265 0.950 . S
H2245 C2268 0.950 . S
H2246 C2269 0.950 . S
H2247 C2271 0.950 . S
H2248 C2272 0.950 . S
H2249 C2273 0.951 . S
H2250 C2275 0.951 . S
H2251 C2277 0.950 . S
H2252 C2278 0.950 . S
H2253 C2280 0.950 . S
H2254 C2283 0.950 . S
H2255 C2284 0.950 . S
H2256 C2286 0.950 . S
H2257 C2287 0.950 . S
C2258 H2240 0.951 . S
C2258 C2259 1.366 . S
C2258 C2260 1.388 . S
C2259 C2258 1.366 . S
C2259 C2263 1.385 . S
C2260 H2241 0.951 . S
C2260 C2258 1.388 . S
C2260 C2261 1.366 . S
C2261 C2260 1.366 . S
C2261 C2262 1.414 . S
C2261 C2264 1.499 . S
C2262 H2242 0.950 . S
C2262 C2261 1.414 . S
C2262 C2263 1.374 . S
C2263 H2243 0.950 . S
C2263 C2259 1.385 . S
C2263 C2262 1.374 . S
C2264 C2261 1.499 . S
C2264 C2265 1.373 . S
C2264 C2266 1.389 . S
C2265 H2244 0.950 . S
C2265 C2264 1.373 . S
C2265 C2281 1.377 . S
C2266 C2264 1.389 . S
C2266 C2267 1.524 . S
C2266 C2280 1.377 . S
C2267 C2266 1.524 . S
C2267 C2268 1.397 . S
C2267 C2272 1.363 . S
C2268 H2245 0.950 . S
C2268 C2267 1.397 . S
C2268 C2269 1.334 . S
C2269 H2246 0.950 . S
C2269 C2268 1.334 . S
C2269 C2270 1.287 . S
C2270 C2269 1.287 . S
C2270 C2271 1.524 . S
C2270 H2289 0.913 . S
C2271 H2247 0.950 . S
C2271 C2270 1.524 . S
C2271 C2272 1.415 . S
C2272 H2248 0.950 . S
C2272 C2267 1.363 . S
C2272 C2271 1.415 . S
C2273 H2249 0.951 . S
C2273 C2274 1.366 . S
C2273 C2275 1.388 . S
C2274 C2273 1.366 . S
C2274 C2278 1.385 . S
C2275 H2250 0.951 . S
C2275 C2273 1.388 . S
C2275 C2276 1.366 . S
C2276 C2275 1.366 . S
C2276 C2277 1.414 . S
C2276 C2279 1.499 . S
C2277 H2251 0.950 . S
C2277 C2276 1.414 . S
C2277 C2278 1.374 . S
C2278 H2252 0.950 . S
C2278 C2274 1.385 . S
C2278 C2277 1.374 . S
C2279 C2276 1.499 . S
C2279 C2280 1.373 . S
C2279 C2281 1.389 . S
C2280 H2253 0.950 . S
C2280 C2266 1.377 . S
C2280 C2279 1.373 . S
C2281 C2265 1.377 . S
C2281 C2279 1.389 . S
C2281 C2282 1.524 . S
C2282 C2281 1.524 . S
C2282 C2283 1.397 . S
C2282 C2287 1.363 . S
C2283 H2254 0.950 . S
C2283 C2282 1.397 . S
C2283 C2284 1.334 . S
C2284 H2255 0.950 . S
C2284 C2283 1.334 . S
C2284 C2285 1.287 . S
C2285 C2284 1.287 . S
C2285 C2286 1.524 . S
C2285 H2288 0.999 . S
C2286 H2256 0.950 . S
C2286 C2285 1.524 . S
C2286 C2287 1.415 . S
C2287 H2257 0.950 . S
C2287 C2282 1.363 . S
C2287 C2286 1.415 . S
H2288 C2285 0.999 . S
H2289 C2270 0.913 . S
H2290 C2308 0.951 . S
H2291 C2310 0.951 . S
H2292 C2312 0.950 . S
H2293 C2313 0.950 . S
H2294 C2315 0.950 . S
H2295 C2318 0.950 . S
H2296 C2319 0.950 . S
H2297 C2321 0.950 . S
H2298 C2322 0.950 . S
H2299 C2323 0.951 . S
H2300 C2325 0.951 . S
H2301 C2327 0.950 . S
H2302 C2328 0.950 . S
H2303 C2330 0.950 . S
H2304 C2333 0.950 . S
H2305 C2334 0.950 . S
H2306 C2336 0.950 . S
H2307 C2337 0.950 . S
C2308 H2290 0.951 . S
C2308 C2309 1.366 . S
C2308 C2310 1.388 . S
C2309 C2308 1.366 . S
C2309 C2313 1.385 . S
C2310 H2291 0.951 . S
C2310 C2308 1.388 . S
C2310 C2311 1.366 . S
C2311 C2310 1.366 . S
C2311 C2312 1.414 . S
C2311 C2314 1.499 . S
C2312 H2292 0.950 . S
C2312 C2311 1.414 . S
C2312 C2313 1.374 . S
C2313 H2293 0.950 . S
C2313 C2309 1.385 . S
C2313 C2312 1.374 . S
C2314 C2311 1.499 . S
C2314 C2315 1.373 . S
C2314 C2316 1.389 . S
C2315 H2294 0.950 . S
C2315 C2314 1.373 . S
C2315 C2331 1.377 . S
C2316 C2314 1.389 . S
C2316 C2317 1.524 . S
C2316 C2330 1.377 . S
C2317 C2316 1.524 . S
C2317 C2318 1.397 . S
C2317 C2322 1.363 . S
C2318 H2295 0.950 . S
C2318 C2317 1.397 . S
C2318 C2319 1.334 . S
C2319 H2296 0.950 . S
C2319 C2318 1.334 . S
C2319 C2320 1.287 . S
C2320 C2319 1.287 . S
C2320 C2321 1.524 . S
C2320 H2339 0.913 . S
C2321 H2297 0.950 . S
C2321 C2320 1.524 . S
C2321 C2322 1.415 . S
C2322 H2298 0.950 . S
C2322 C2317 1.363 . S
C2322 C2321 1.415 . S
C2323 H2299 0.951 . S
C2323 C2324 1.366 . S
C2323 C2325 1.388 . S
C2324 C2323 1.366 . S
C2324 C2328 1.385 . S
C2325 H2300 0.951 . S
C2325 C2323 1.388 . S
C2325 C2326 1.366 . S
C2326 C2325 1.366 . S
C2326 C2327 1.414 . S
C2326 C2329 1.499 . S
C2327 H2301 0.950 . S
C2327 C2326 1.414 . S
C2327 C2328 1.374 . S
C2328 H2302 0.950 . S
C2328 C2324 1.385 . S
C2328 C2327 1.374 . S
C2329 C2326 1.499 . S
C2329 C2330 1.373 . S
C2329 C2331 1.389 . S
C2330 H2303 0.950 . S
C2330 C2316 1.377 . S
C2330 C2329 1.373 . S
C2331 C2315 1.377 . S
C2331 C2329 1.389 . S
C2331 C2332 1.524 . S
C2332 C2331 1.524 . S
C2332 C2333 1.397 . S
C2332 C2337 1.363 . S
C2333 H2304 0.950 . S
C2333 C2332 1.397 . S
C2333 C2334 1.334 . S
C2334 H2305 0.950 . S
C2334 C2333 1.334 . S
C2334 C2335 1.287 . S
C2335 C2334 1.287 . S
C2335 C2336 1.524 . S
C2335 H2338 0.999 . S
C2336 H2306 0.950 . S
C2336 C2335 1.524 . S
C2336 C2337 1.415 . S
C2337 H2307 0.950 . S
C2337 C2332 1.363 . S
C2337 C2336 1.415 . S
H2338 C2335 0.999 . S
H2339 C2320 0.913 . S
H2340 C2358 0.951 . S
H2341 C2360 0.951 . S
H2342 C2362 0.950 . S
H2343 C2363 0.950 1_554 S
H2344 C2365 0.950 . S
H2345 C2368 0.950 . S
H2346 C2369 0.950 . S
H2347 C2371 0.950 . S
H2348 C2372 0.950 . S
H2349 C2373 0.951 . S
H2350 C2375 0.951 . S
H2351 C2377 0.950 . S
H2352 C2378 0.950 . S
H2353 C2380 0.950 . S
H2354 C2383 0.950 . S
H2355 C2384 0.950 . S
H2356 C2386 0.950 . S
H2357 C2387 0.950 . S
C2358 H2340 0.951 . S
C2358 C2359 1.366 . S
C2358 C2360 1.388 . S
C2359 C2358 1.366 . S
C2359 C2363 1.385 . S
C2360 H2341 0.951 . S
C2360 C2358 1.388 . S
C2360 C2361 1.366 . S
C2361 C2360 1.366 . S
C2361 C2362 1.414 . S
C2361 C2364 1.499 . S
C2362 H2342 0.950 . S
C2362 C2361 1.414 . S
C2362 C2363 1.374 . S
C2363 H2343 0.950 1_556 S
C2363 C2359 1.385 . S
C2363 C2362 1.374 . S
C2364 C2361 1.499 . S
C2364 C2365 1.373 . S
C2364 C2366 1.389 . S
C2365 H2344 0.950 . S
C2365 C2364 1.373 . S
C2365 C2381 1.377 . S
C2366 C2364 1.389 . S
C2366 C2367 1.524 . S
C2366 C2380 1.377 . S
C2367 C2366 1.524 . S
C2367 C2368 1.397 . S
C2367 C2372 1.363 . S
C2368 H2345 0.950 . S
C2368 C2367 1.397 . S
C2368 C2369 1.334 . S
C2369 H2346 0.950 . S
C2369 C2368 1.334 . S
C2369 C2370 1.287 . S
C2370 C2369 1.287 . S
C2370 C2371 1.524 . S
C2370 H2389 0.913 . S
C2371 H2347 0.950 . S
C2371 C2370 1.524 . S
C2371 C2372 1.415 . S
C2372 H2348 0.950 . S
C2372 C2367 1.363 . S
C2372 C2371 1.415 . S
C2373 H2349 0.951 . S
C2373 C2374 1.366 . S
C2373 C2375 1.388 . S
C2374 C2373 1.366 . S
C2374 C2378 1.385 . S
C2375 H2350 0.951 . S
C2375 C2373 1.388 . S
C2375 C2376 1.366 . S
C2376 C2375 1.366 . S
C2376 C2377 1.414 . S
C2376 C2379 1.499 . S
C2377 H2351 0.950 . S
C2377 C2376 1.414 . S
C2377 C2378 1.374 . S
C2378 H2352 0.950 . S
C2378 C2374 1.385 . S
C2378 C2377 1.374 . S
C2379 C2376 1.499 . S
C2379 C2380 1.373 . S
C2379 C2381 1.389 . S
C2380 H2353 0.950 . S
C2380 C2366 1.377 . S
C2380 C2379 1.373 . S
C2381 C2365 1.377 . S
C2381 C2379 1.389 . S
C2381 C2382 1.524 . S
C2382 C2381 1.524 . S
C2382 C2383 1.397 . S
C2382 C2387 1.363 . S
C2383 H2354 0.950 . S
C2383 C2382 1.397 . S
C2383 C2384 1.334 . S
C2384 H2355 0.950 . S
C2384 C2383 1.334 . S
C2384 C2385 1.287 . S
C2385 C2384 1.287 . S
C2385 C2386 1.524 . S
C2385 H2388 0.999 . S
C2386 H2356 0.950 . S
C2386 C2385 1.524 . S
C2386 C2387 1.415 . S
C2387 H2357 0.950 . S
C2387 C2382 1.363 . S
C2387 C2386 1.415 . S
H2388 C2385 0.999 . S
H2389 C2370 0.913 . S
H2390 C2408 0.951 . S
H2391 C2410 0.951 . S
H2392 C2412 0.950 . S
H2393 C2413 0.950 . S
H2394 C2415 0.950 . S
H2395 C2418 0.950 . S
H2396 C2419 0.950 . S
H2397 C2421 0.950 . S
H2398 C2422 0.950 . S
H2399 C2423 0.951 . S
H2400 C2425 0.951 . S
H2401 C2427 0.950 . S
H2402 C2428 0.950 1_556 S
H2403 C2430 0.950 . S
H2404 C2433 0.950 . S
H2405 C2434 0.950 . S
H2406 C2436 0.950 . S
H2407 C2437 0.950 . S
C2408 H2390 0.951 . S
C2408 C2409 1.366 . S
C2408 C2410 1.388 . S
C2409 C2408 1.366 . S
C2409 C2413 1.385 . S
C2410 H2391 0.951 . S
C2410 C2408 1.388 . S
C2410 C2411 1.366 . S
C2411 C2410 1.366 . S
C2411 C2412 1.414 . S
C2411 C2414 1.499 . S
C2412 H2392 0.950 . S
C2412 C2411 1.414 . S
C2412 C2413 1.374 . S
C2413 H2393 0.950 . S
C2413 C2409 1.385 . S
C2413 C2412 1.374 . S
C2414 C2411 1.499 . S
C2414 C2415 1.373 . S
C2414 C2416 1.389 . S
C2415 H2394 0.950 . S
C2415 C2414 1.373 . S
C2415 C2431 1.377 . S
C2416 C2414 1.389 . S
C2416 C2417 1.524 . S
C2416 C2430 1.377 . S
C2417 C2416 1.524 . S
C2417 C2418 1.397 . S
C2417 C2422 1.363 . S
C2418 H2395 0.950 . S
C2418 C2417 1.397 . S
C2418 C2419 1.334 . S
C2419 H2396 0.950 . S
C2419 C2418 1.334 . S
C2419 C2420 1.287 . S
C2420 C2419 1.287 . S
C2420 C2421 1.524 . S
C2420 H2439 0.913 . S
C2421 H2397 0.950 . S
C2421 C2420 1.524 . S
C2421 C2422 1.415 . S
C2422 H2398 0.950 . S
C2422 C2417 1.363 . S
C2422 C2421 1.415 . S
C2423 H2399 0.951 . S
C2423 C2424 1.366 . S
C2423 C2425 1.388 . S
C2424 C2423 1.366 . S
C2424 C2428 1.385 . S
C2425 H2400 0.951 . S
C2425 C2423 1.388 . S
C2425 C2426 1.366 . S
C2426 C2425 1.366 . S
C2426 C2427 1.414 . S
C2426 C2429 1.499 . S
C2427 H2401 0.950 . S
C2427 C2426 1.414 . S
C2427 C2428 1.374 . S
C2428 H2402 0.950 1_554 S
C2428 C2424 1.385 . S
C2428 C2427 1.374 . S
C2429 C2426 1.499 . S
C2429 C2430 1.373 . S
C2429 C2431 1.389 . S
C2430 H2403 0.950 . S
C2430 C2416 1.377 . S
C2430 C2429 1.373 . S
C2431 C2415 1.377 . S
C2431 C2429 1.389 . S
C2431 C2432 1.524 . S
C2432 C2431 1.524 . S
C2432 C2433 1.397 . S
C2432 C2437 1.363 . S
C2433 H2404 0.950 . S
C2433 C2432 1.397 . S
C2433 C2434 1.334 . S
C2434 H2405 0.950 . S
C2434 C2433 1.334 . S
C2434 C2435 1.287 . S
C2435 C2434 1.287 . S
C2435 C2436 1.524 . S
C2435 H2438 0.999 . S
C2436 H2406 0.950 . S
C2436 C2435 1.524 . S
C2436 C2437 1.415 . S
C2437 H2407 0.950 . S
C2437 C2432 1.363 . S
C2437 C2436 1.415 . S
H2438 C2435 0.999 . S
H2439 C2420 0.913 . S
H2440 C2458 0.951 . S
H2441 C2460 0.951 . S
H2442 C2462 0.950 . S
H2443 C2463 0.950 . S
H2444 C2465 0.950 . S
H2445 C2468 0.950 . S
H2446 C2469 0.950 . S
H2447 C2471 0.950 . S
H2448 C2472 0.950 . S
H2449 C2473 0.951 . S
H2450 C2475 0.951 . S
H2451 C2477 0.950 . S
H2452 C2478 0.950 . S
H2453 C2480 0.950 . S
H2454 C2483 0.950 . S
H2455 C2484 0.950 . S
H2456 C2486 0.950 . S
H2457 C2487 0.950 . S
C2458 H2440 0.951 . S
C2458 C2459 1.366 . S
C2458 C2460 1.388 . S
C2459 C2458 1.366 . S
C2459 C2463 1.385 . S
C2460 H2441 0.951 . S
C2460 C2458 1.388 . S
C2460 C2461 1.366 . S
C2461 C2460 1.366 . S
C2461 C2462 1.414 . S
C2461 C2464 1.499 . S
C2462 H2442 0.950 . S
C2462 C2461 1.414 . S
C2462 C2463 1.374 . S
C2463 H2443 0.950 . S
C2463 C2459 1.385 . S
C2463 C2462 1.374 . S
C2464 C2461 1.499 . S
C2464 C2465 1.373 . S
C2464 C2466 1.389 . S
C2465 H2444 0.950 . S
C2465 C2464 1.373 . S
C2465 C2481 1.377 . S
C2466 C2464 1.389 . S
C2466 C2467 1.524 . S
C2466 C2480 1.377 . S
C2467 C2466 1.524 . S
C2467 C2468 1.397 . S
C2467 C2472 1.363 . S
C2468 H2445 0.950 . S
C2468 C2467 1.397 . S
C2468 C2469 1.334 . S
C2469 H2446 0.950 . S
C2469 C2468 1.334 . S
C2469 C2470 1.287 . S
C2470 C2469 1.287 . S
C2470 C2471 1.524 . S
C2470 H2489 0.913 . S
C2471 H2447 0.950 . S
C2471 C2470 1.524 . S
C2471 C2472 1.415 . S
C2472 H2448 0.950 . S
C2472 C2467 1.363 . S
C2472 C2471 1.415 . S
C2473 H2449 0.951 . S
C2473 C2474 1.366 . S
C2473 C2475 1.388 . S
C2474 C2473 1.366 . S
C2474 C2478 1.385 . S
C2475 H2450 0.951 . S
C2475 C2473 1.388 . S
C2475 C2476 1.366 . S
C2476 C2475 1.366 . S
C2476 C2477 1.414 . S
C2476 C2479 1.499 . S
C2477 H2451 0.950 . S
C2477 C2476 1.414 . S
C2477 C2478 1.374 . S
C2478 H2452 0.950 . S
C2478 C2474 1.385 . S
C2478 C2477 1.374 . S
C2479 C2476 1.499 . S
C2479 C2480 1.373 . S
C2479 C2481 1.389 . S
C2480 H2453 0.950 . S
C2480 C2466 1.377 . S
C2480 C2479 1.373 . S
C2481 C2465 1.377 . S
C2481 C2479 1.389 . S
C2481 C2482 1.524 . S
C2482 C2481 1.524 . S
C2482 C2483 1.397 . S
C2482 C2487 1.363 . S
C2483 H2454 0.950 . S
C2483 C2482 1.397 . S
C2483 C2484 1.334 . S
C2484 H2455 0.950 . S
C2484 C2483 1.334 . S
C2484 C2485 1.287 . S
C2485 C2484 1.287 . S
C2485 C2486 1.524 . S
C2485 H2488 0.999 . S
C2486 H2456 0.950 . S
C2486 C2485 1.524 . S
C2486 C2487 1.415 . S
C2487 H2457 0.950 . S
C2487 C2482 1.363 . S
C2487 C2486 1.415 . S
H2488 C2485 0.999 . S
H2489 C2470 0.913 . S
H2490 C2508 0.951 . S
H2491 C2510 0.951 . S
H2492 C2512 0.950 . S
H2493 C2513 0.950 . S
H2494 C2515 0.950 . S
H2495 C2518 0.950 . S
H2496 C2519 0.950 . S
H2497 C2521 0.950 . S
H2498 C2522 0.950 . S
H2499 C2523 0.951 . S
H2500 C2525 0.951 . S
H2501 C2527 0.950 . S
H2502 C2528 0.950 . S
H2503 C2530 0.950 . S
H2504 C2533 0.950 . S
H2505 C2534 0.950 . S
H2506 C2536 0.950 . S
H2507 C2537 0.950 . S
C2508 H2490 0.951 . S
C2508 C2509 1.366 . S
C2508 C2510 1.388 . S
C2509 C2508 1.366 . S
C2509 C2513 1.385 . S
C2510 H2491 0.951 . S
C2510 C2508 1.388 . S
C2510 C2511 1.366 . S
C2511 C2510 1.366 . S
C2511 C2512 1.414 . S
C2511 C2514 1.499 . S
C2512 H2492 0.950 . S
C2512 C2511 1.414 . S
C2512 C2513 1.374 . S
C2513 H2493 0.950 . S
C2513 C2509 1.385 . S
C2513 C2512 1.374 . S
C2514 C2511 1.499 . S
C2514 C2515 1.373 . S
C2514 C2516 1.389 . S
C2515 H2494 0.950 . S
C2515 C2514 1.373 . S
C2515 C2531 1.377 . S
C2516 C2514 1.389 . S
C2516 C2517 1.524 . S
C2516 C2530 1.377 . S
C2517 C2516 1.524 . S
C2517 C2518 1.397 . S
C2517 C2522 1.363 . S
C2518 H2495 0.950 . S
C2518 C2517 1.397 . S
C2518 C2519 1.334 . S
C2519 H2496 0.950 . S
C2519 C2518 1.334 . S
C2519 C2520 1.287 . S
C2520 C2519 1.287 . S
C2520 C2521 1.524 . S
C2520 H2539 0.913 . S
C2521 H2497 0.950 . S
C2521 C2520 1.524 . S
C2521 C2522 1.415 . S
C2522 H2498 0.950 . S
C2522 C2517 1.363 . S
C2522 C2521 1.415 . S
C2523 H2499 0.951 . S
C2523 C2524 1.366 . S
C2523 C2525 1.388 . S
C2524 C2523 1.366 . S
C2524 C2528 1.385 . S
C2525 H2500 0.951 . S
C2525 C2523 1.388 . S
C2525 C2526 1.366 . S
C2526 C2525 1.366 . S
C2526 C2527 1.414 . S
C2526 C2529 1.499 . S
C2527 H2501 0.950 . S
C2527 C2526 1.414 . S
C2527 C2528 1.374 . S
C2528 H2502 0.950 . S
C2528 C2524 1.385 . S
C2528 C2527 1.374 . S
C2529 C2526 1.499 . S
C2529 C2530 1.373 . S
C2529 C2531 1.389 . S
C2530 H2503 0.950 . S
C2530 C2516 1.377 . S
C2530 C2529 1.373 . S
C2531 C2515 1.377 . S
C2531 C2529 1.389 . S
C2531 C2532 1.524 . S
C2532 C2531 1.524 . S
C2532 C2533 1.397 . S
C2532 C2537 1.363 . S
C2533 H2504 0.950 . S
C2533 C2532 1.397 . S
C2533 C2534 1.334 . S
C2534 H2505 0.950 . S
C2534 C2533 1.334 . S
C2534 C2535 1.287 . S
C2535 C2534 1.287 . S
C2535 C2536 1.524 . S
C2535 H2538 0.969 1_655 S
C2536 H2506 0.950 . S
C2536 C2535 1.524 . S
C2536 C2537 1.415 . S
C2537 H2507 0.950 . S
C2537 C2532 1.363 . S
C2537 C2536 1.415 . S
H2538 C2535 0.969 1_455 S
H2539 C2520 0.913 . S
H2540 C2558 0.951 . S
H2541 C2560 0.951 . S
H2542 C2562 0.950 . S
H2543 C2563 0.950 . S
H2544 C2565 0.950 . S
H2545 C2568 0.950 . S
H2546 C2569 0.950 . S
H2547 C2571 0.950 . S
H2548 C2572 0.950 . S
H2549 C2573 0.951 . S
H2550 C2575 0.951 . S
H2551 C2577 0.950 . S
H2552 C2578 0.950 . S
H2553 C2580 0.950 . S
H2554 C2583 0.950 . S
H2555 C2584 0.950 . S
H2556 C2586 0.950 . S
H2557 C2587 0.950 . S
C2558 H2540 0.951 . S
C2558 C2559 1.366 . S
C2558 C2560 1.388 . S
C2559 C2558 1.366 . S
C2559 C2563 1.385 . S
C2560 H2541 0.951 . S
C2560 C2558 1.388 . S
C2560 C2561 1.366 . S
C2561 C2560 1.366 . S
C2561 C2562 1.414 . S
C2561 C2564 1.499 . S
C2562 H2542 0.950 . S
C2562 C2561 1.414 . S
C2562 C2563 1.374 . S
C2563 H2543 0.950 . S
C2563 C2559 1.385 . S
C2563 C2562 1.374 . S
C2564 C2561 1.499 . S
C2564 C2565 1.373 . S
C2564 C2566 1.389 . S
C2565 H2544 0.950 . S
C2565 C2564 1.373 . S
C2565 C2581 1.377 . S
C2566 C2564 1.389 . S
C2566 C2567 1.524 . S
C2566 C2580 1.377 . S
C2567 C2566 1.524 . S
C2567 C2568 1.397 . S
C2567 C2572 1.363 . S
C2568 H2545 0.950 . S
C2568 C2567 1.397 . S
C2568 C2569 1.334 . S
C2569 H2546 0.950 . S
C2569 C2568 1.334 . S
C2569 C2570 1.287 . S
C2570 C2569 1.287 . S
C2570 C2571 1.524 . S
C2570 H2589 0.913 . S
C2571 H2547 0.950 . S
C2571 C2570 1.524 . S
C2571 C2572 1.415 . S
C2572 H2548 0.950 . S
C2572 C2567 1.363 . S
C2572 C2571 1.415 . S
C2573 H2549 0.951 . S
C2573 C2574 1.366 . S
C2573 C2575 1.388 . S
C2574 C2573 1.366 . S
C2574 C2578 1.385 . S
C2575 H2550 0.951 . S
C2575 C2573 1.388 . S
C2575 C2576 1.366 . S
C2576 C2575 1.366 . S
C2576 C2577 1.414 . S
C2576 C2579 1.499 . S
C2577 H2551 0.950 . S
C2577 C2576 1.414 . S
C2577 C2578 1.374 . S
C2578 H2552 0.950 . S
C2578 C2574 1.385 . S
C2578 C2577 1.374 . S
C2579 C2576 1.499 . S
C2579 C2580 1.373 . S
C2579 C2581 1.389 . S
C2580 H2553 0.950 . S
C2580 C2566 1.377 . S
C2580 C2579 1.373 . S
C2581 C2565 1.377 . S
C2581 C2579 1.389 . S
C2581 C2582 1.524 . S
C2582 C2581 1.524 . S
C2582 C2583 1.397 . S
C2582 C2587 1.363 . S
C2583 H2554 0.950 . S
C2583 C2582 1.397 . S
C2583 C2584 1.334 . S
C2584 H2555 0.950 . S
C2584 C2583 1.334 . S
C2584 C2585 1.287 . S
C2585 C2584 1.287 . S
C2585 C2586 1.524 . S
C2585 H2588 0.999 . S
C2586 H2556 0.950 . S
C2586 C2585 1.524 . S
C2586 C2587 1.415 . S
C2587 H2557 0.950 . S
C2587 C2582 1.363 . S
C2587 C2586 1.415 . S
H2588 C2585 0.999 . S
H2589 C2570 0.913 . S
H2590 C2608 0.951 . S
H2591 C2610 0.951 . S
H2592 C2612 0.950 . S
H2593 C2613 0.950 . S
H2594 C2615 0.950 . S
H2595 C2618 0.950 . S
H2596 C2619 0.950 . S
H2597 C2621 0.950 . S
H2598 C2622 0.950 . S
H2599 C2623 0.951 . S
H2600 C2625 0.951 . S
H2601 C2627 0.950 . S
H2602 C2628 0.950 . S
H2603 C2630 0.950 . S
H2604 C2633 0.950 . S
H2605 C2634 0.950 . S
H2606 C2636 0.950 . S
H2607 C2637 0.950 . S
C2608 H2590 0.951 . S
C2608 C2609 1.366 . S
C2608 C2610 1.388 . S
C2609 C2608 1.366 . S
C2609 C2613 1.385 . S
C2610 H2591 0.951 . S
C2610 C2608 1.388 . S
C2610 C2611 1.366 . S
C2611 C2610 1.366 . S
C2611 C2612 1.414 . S
C2611 C2614 1.499 . S
C2612 H2592 0.950 . S
C2612 C2611 1.414 . S
C2612 C2613 1.374 . S
C2613 H2593 0.950 . S
C2613 C2609 1.385 . S
C2613 C2612 1.374 . S
C2614 C2611 1.499 . S
C2614 C2615 1.373 . S
C2614 C2616 1.389 . S
C2615 H2594 0.950 . S
C2615 C2614 1.373 . S
C2615 C2631 1.377 . S
C2616 C2614 1.389 . S
C2616 C2617 1.524 . S
C2616 C2630 1.377 . S
C2617 C2616 1.524 . S
C2617 C2618 1.397 . S
C2617 C2622 1.363 . S
C2618 H2595 0.950 . S
C2618 C2617 1.397 . S
C2618 C2619 1.334 . S
C2619 H2596 0.950 . S
C2619 C2618 1.334 . S
C2619 C2620 1.287 . S
C2620 C2619 1.287 . S
C2620 C2621 1.524 . S
C2620 H2639 0.913 . S
C2621 H2597 0.950 . S
C2621 C2620 1.524 . S
C2621 C2622 1.415 . S
C2622 H2598 0.950 . S
C2622 C2617 1.363 . S
C2622 C2621 1.415 . S
C2623 H2599 0.951 . S
C2623 C2624 1.366 . S
C2623 C2625 1.388 . S
C2624 C2623 1.366 . S
C2624 C2628 1.385 . S
C2625 H2600 0.951 . S
C2625 C2623 1.388 . S
C2625 C2626 1.366 . S
C2626 C2625 1.366 . S
C2626 C2627 1.414 . S
C2626 C2629 1.499 . S
C2627 H2601 0.950 . S
C2627 C2626 1.414 . S
C2627 C2628 1.374 . S
C2628 H2602 0.950 . S
C2628 C2624 1.385 . S
C2628 C2627 1.374 . S
C2629 C2626 1.499 . S
C2629 C2630 1.373 . S
C2629 C2631 1.389 . S
C2630 H2603 0.950 . S
C2630 C2616 1.377 . S
C2630 C2629 1.373 . S
C2631 C2615 1.377 . S
C2631 C2629 1.389 . S
C2631 C2632 1.524 . S
C2632 C2631 1.524 . S
C2632 C2633 1.397 . S
C2632 C2637 1.363 . S
C2633 H2604 0.950 . S
C2633 C2632 1.397 . S
C2633 C2634 1.334 . S
C2634 H2605 0.950 . S
C2634 C2633 1.334 . S
C2634 C2635 1.287 . S
C2635 C2634 1.287 . S
C2635 C2636 1.524 . S
C2635 H2638 0.999 . S
C2636 H2606 0.950 . S
C2636 C2635 1.524 . S
C2636 C2637 1.415 . S
C2637 H2607 0.950 . S
C2637 C2632 1.363 . S
C2637 C2636 1.415 . S
H2638 C2635 0.999 . S
H2639 C2620 0.913 . S
H2640 C2658 0.951 . S
H2641 C2660 0.951 . S
H2642 C2662 0.950 . S
H2643 C2663 0.950 . S
H2644 C2665 0.950 . S
H2645 C2668 0.950 . S
H2646 C2669 0.950 . S
H2647 C2671 0.950 . S
H2648 C2672 0.950 . S
H2649 C2673 0.951 . S
H2650 C2675 0.951 . S
H2651 C2677 0.950 . S
H2652 C2678 0.950 . S
H2653 C2680 0.950 . S
H2654 C2683 0.950 . S
H2655 C2684 0.950 . S
H2656 C2686 0.950 . S
H2657 C2687 0.950 . S
C2658 H2640 0.951 . S
C2658 C2659 1.366 . S
C2658 C2660 1.388 . S
C2659 C2658 1.366 . S
C2659 C2663 1.385 . S
C2660 H2641 0.951 . S
C2660 C2658 1.388 . S
C2660 C2661 1.366 . S
C2661 C2660 1.366 . S
C2661 C2662 1.414 . S
C2661 C2664 1.499 . S
C2662 H2642 0.950 . S
C2662 C2661 1.414 . S
C2662 C2663 1.374 . S
C2663 H2643 0.950 . S
C2663 C2659 1.385 . S
C2663 C2662 1.374 . S
C2664 C2661 1.499 . S
C2664 C2665 1.373 . S
C2664 C2666 1.389 . S
C2665 H2644 0.950 . S
C2665 C2664 1.373 . S
C2665 C2681 1.377 . S
C2666 C2664 1.389 . S
C2666 C2667 1.524 . S
C2666 C2680 1.377 . S
C2667 C2666 1.524 . S
C2667 C2668 1.397 . S
C2667 C2672 1.363 . S
C2668 H2645 0.950 . S
C2668 C2667 1.397 . S
C2668 C2669 1.334 . S
C2669 H2646 0.950 . S
C2669 C2668 1.334 . S
C2669 C2670 1.287 . S
C2670 C2669 1.287 . S
C2670 C2671 1.524 . S
C2670 H2689 0.913 . S
C2671 H2647 0.950 . S
C2671 C2670 1.524 . S
C2671 C2672 1.415 . S
C2672 H2648 0.950 . S
C2672 C2667 1.363 . S
C2672 C2671 1.415 . S
C2673 H2649 0.951 . S
C2673 C2674 1.366 . S
C2673 C2675 1.388 . S
C2674 C2673 1.366 . S
C2674 C2678 1.385 . S
C2675 H2650 0.951 . S
C2675 C2673 1.388 . S
C2675 C2676 1.366 . S
C2676 C2675 1.366 . S
C2676 C2677 1.414 . S
C2676 C2679 1.499 . S
C2677 H2651 0.950 . S
C2677 C2676 1.414 . S
C2677 C2678 1.374 . S
C2678 H2652 0.950 . S
C2678 C2674 1.385 . S
C2678 C2677 1.374 . S
C2679 C2676 1.499 . S
C2679 C2680 1.373 . S
C2679 C2681 1.389 . S
C2680 H2653 0.950 . S
C2680 C2666 1.377 . S
C2680 C2679 1.373 . S
C2681 C2665 1.377 . S
C2681 C2679 1.389 . S
C2681 C2682 1.524 . S
C2682 C2681 1.524 . S
C2682 C2683 1.397 . S
C2682 C2687 1.363 . S
C2683 H2654 0.950 . S
C2683 C2682 1.397 . S
C2683 C2684 1.334 . S
C2684 H2655 0.950 . S
C2684 C2683 1.334 . S
C2684 C2685 1.287 . S
C2685 C2684 1.287 . S
C2685 C2686 1.524 . S
C2685 H2688 0.999 . S
C2686 H2656 0.950 . S
C2686 C2685 1.524 . S
C2686 C2687 1.415 . S
C2687 H2657 0.950 . S
C2687 C2682 1.363 . S
C2687 C2686 1.415 . S
H2688 C2685 0.999 . S
H2689 C2670 0.913 . S
H2690 C2708 0.951 . S
H2691 C2710 0.951 . S
H2692 C2712 0.950 . S
H2693 C2713 0.950 . S
H2694 C2715 0.950 . S
H2695 C2718 0.950 . S
H2696 C2719 0.950 . S
H2697 C2721 0.950 . S
H2698 C2722 0.950 . S
H2699 C2723 0.951 1_556 S
H2700 C2725 0.951 . S
H2701 C2727 0.950 . S
H2702 C2728 0.950 . S
H2703 C2730 0.950 . S
H2704 C2733 0.950 . S
H2705 C2734 0.950 . S
H2706 C2736 0.950 . S
H2707 C2737 0.950 . S
C2708 H2690 0.951 . S
C2708 C2709 1.366 . S
C2708 C2710 1.388 . S
C2709 C2708 1.366 . S
C2709 C2713 1.385 . S
C2710 H2691 0.951 . S
C2710 C2708 1.388 . S
C2710 C2711 1.366 . S
C2711 C2710 1.366 . S
C2711 C2712 1.414 . S
C2711 C2714 1.499 . S
C2712 H2692 0.950 . S
C2712 C2711 1.414 . S
C2712 C2713 1.374 . S
C2713 H2693 0.950 . S
C2713 C2709 1.385 . S
C2713 C2712 1.374 . S
C2714 C2711 1.499 . S
C2714 C2715 1.373 . S
C2714 C2716 1.389 . S
C2715 H2694 0.950 . S
C2715 C2714 1.373 . S
C2715 C2731 1.377 . S
C2716 C2714 1.389 . S
C2716 C2717 1.524 . S
C2716 C2730 1.377 . S
C2717 C2716 1.524 . S
C2717 C2718 1.397 . S
C2717 C2722 1.363 . S
C2718 H2695 0.950 . S
C2718 C2717 1.397 . S
C2718 C2719 1.334 . S
C2719 H2696 0.950 . S
C2719 C2718 1.334 . S
C2719 C2720 1.287 . S
C2720 C2719 1.287 . S
C2720 C2721 1.524 . S
C2720 H2739 0.913 . S
C2721 H2697 0.950 . S
C2721 C2720 1.524 . S
C2721 C2722 1.415 . S
C2722 H2698 0.950 . S
C2722 C2717 1.363 . S
C2722 C2721 1.415 . S
C2723 H2699 0.951 1_554 S
C2723 C2724 1.366 . S
C2723 C2725 1.388 . S
C2724 C2723 1.366 . S
C2724 C2728 1.385 . S
C2725 H2700 0.951 . S
C2725 C2723 1.388 . S
C2725 C2726 1.366 . S
C2726 C2725 1.366 . S
C2726 C2727 1.414 . S
C2726 C2729 1.499 . S
C2727 H2701 0.950 . S
C2727 C2726 1.414 . S
C2727 C2728 1.374 . S
C2728 H2702 0.950 . S
C2728 C2724 1.385 . S
C2728 C2727 1.374 . S
C2729 C2726 1.499 . S
C2729 C2730 1.373 . S
C2729 C2731 1.389 . S
C2730 H2703 0.950 . S
C2730 C2716 1.377 . S
C2730 C2729 1.373 . S
C2731 C2715 1.377 . S
C2731 C2729 1.389 . S
C2731 C2732 1.524 . S
C2732 C2731 1.524 . S
C2732 C2733 1.397 . S
C2732 C2737 1.363 . S
C2733 H2704 0.950 . S
C2733 C2732 1.397 . S
C2733 C2734 1.334 . S
C2734 H2705 0.950 . S
C2734 C2733 1.334 . S
C2734 C2735 1.287 . S
C2735 C2734 1.287 . S
C2735 C2736 1.524 . S
C2735 H2738 0.999 . S
C2736 H2706 0.950 . S
C2736 C2735 1.524 . S
C2736 C2737 1.415 . S
C2737 H2707 0.950 . S
C2737 C2732 1.363 . S
C2737 C2736 1.415 . S
H2738 C2735 0.999 . S
H2739 C2720 0.913 . S
H2740 C2758 0.951 . S
H2741 C2760 0.951 . S
H2742 C2762 0.950 . S
H2743 C2763 0.950 . S
H2744 C2765 0.950 . S
H2745 C2768 0.950 . S
H2746 C2769 0.950 . S
H2747 C2771 0.950 . S
H2748 C2772 0.950 . S
H2749 C2773 0.951 . S
H2750 C2775 0.951 . S
H2751 C2777 0.950 . S
H2752 C2778 0.950 . S
H2753 C2780 0.950 . S
H2754 C2783 0.950 . S
H2755 C2784 0.950 . S
H2756 C2786 0.950 . S
H2757 C2787 0.950 . S
C2758 H2740 0.951 . S
C2758 C2759 1.366 . S
C2758 C2760 1.388 . S
C2759 C2758 1.366 . S
C2759 C2763 1.385 . S
C2760 H2741 0.951 . S
C2760 C2758 1.388 . S
C2760 C2761 1.366 . S
C2761 C2760 1.366 . S
C2761 C2762 1.414 . S
C2761 C2764 1.499 . S
C2762 H2742 0.950 . S
C2762 C2761 1.414 . S
C2762 C2763 1.374 . S
C2763 H2743 0.950 . S
C2763 C2759 1.385 . S
C2763 C2762 1.374 . S
C2764 C2761 1.499 . S
C2764 C2765 1.373 . S
C2764 C2766 1.389 . S
C2765 H2744 0.950 . S
C2765 C2764 1.373 . S
C2765 C2781 1.377 . S
C2766 C2764 1.389 . S
C2766 C2767 1.524 . S
C2766 C2780 1.377 . S
C2767 C2766 1.524 . S
C2767 C2768 1.397 . S
C2767 C2772 1.363 . S
C2768 H2745 0.950 . S
C2768 C2767 1.397 . S
C2768 C2769 1.334 . S
C2769 H2746 0.950 . S
C2769 C2768 1.334 . S
C2769 C2770 1.287 . S
C2770 C2769 1.287 . S
C2770 C2771 1.524 . S
C2770 H2789 0.913 . S
C2771 H2747 0.950 . S
C2771 C2770 1.524 . S
C2771 C2772 1.415 . S
C2772 H2748 0.950 . S
C2772 C2767 1.363 . S
C2772 C2771 1.415 . S
C2773 H2749 0.951 . S
C2773 C2774 1.366 . S
C2773 C2775 1.388 . S
C2774 C2773 1.366 . S
C2774 C2778 1.385 . S
C2775 H2750 0.951 . S
C2775 C2773 1.388 . S
C2775 C2776 1.366 . S
C2776 C2775 1.366 . S
C2776 C2777 1.414 . S
C2776 C2779 1.499 . S
C2777 H2751 0.950 . S
C2777 C2776 1.414 . S
C2777 C2778 1.374 . S
C2778 H2752 0.950 . S
C2778 C2774 1.385 . S
C2778 C2777 1.374 . S
C2779 C2776 1.499 . S
C2779 C2780 1.373 . S
C2779 C2781 1.389 . S
C2780 H2753 0.950 . S
C2780 C2766 1.377 . S
C2780 C2779 1.373 . S
C2781 C2765 1.377 . S
C2781 C2779 1.389 . S
C2781 C2782 1.524 . S
C2782 C2781 1.524 . S
C2782 C2783 1.397 . S
C2782 C2787 1.363 . S
C2783 H2754 0.950 . S
C2783 C2782 1.397 . S
C2783 C2784 1.334 . S
C2784 H2755 0.950 . S
C2784 C2783 1.334 . S
C2784 C2785 1.287 . S
C2785 C2784 1.287 . S
C2785 C2786 1.524 . S
C2785 H2788 0.999 . S
C2786 H2756 0.950 . S
C2786 C2785 1.524 . S
C2786 C2787 1.415 . S
C2787 H2757 0.950 . S
C2787 C2782 1.363 . S
C2787 C2786 1.415 . S
H2788 C2785 0.999 . S
H2789 C2770 0.913 . S
H2790 C2808 0.951 . S
H2791 C2810 0.951 . S
H2792 C2812 0.950 . S
H2793 C2813 0.950 . S
H2794 C2815 0.950 . S
H2795 C2818 0.950 . S
H2796 C2819 0.950 . S
H2797 C2821 0.950 . S
H2798 C2822 0.950 . S
H2799 C2823 0.951 . S
H2800 C2825 0.951 . S
H2801 C2827 0.950 . S
H2802 C2828 0.950 . S
H2803 C2830 0.950 . S
H2804 C2833 0.950 . S
H2805 C2834 0.950 . S
H2806 C2836 0.950 . S
H2807 C2837 0.950 . S
C2808 H2790 0.951 . S
C2808 C2809 1.366 . S
C2808 C2810 1.388 . S
C2809 C2808 1.366 . S
C2809 C2813 1.385 . S
C2810 H2791 0.951 . S
C2810 C2808 1.388 . S
C2810 C2811 1.366 . S
C2811 C2810 1.366 . S
C2811 C2812 1.414 . S
C2811 C2814 1.499 . S
C2812 H2792 0.950 . S
C2812 C2811 1.414 . S
C2812 C2813 1.374 . S
C2813 H2793 0.950 . S
C2813 C2809 1.385 . S
C2813 C2812 1.374 . S
C2814 C2811 1.499 . S
C2814 C2815 1.373 . S
C2814 C2816 1.389 . S
C2815 H2794 0.950 . S
C2815 C2814 1.373 . S
C2815 C2831 1.377 . S
C2816 C2814 1.389 . S
C2816 C2817 1.524 . S
C2816 C2830 1.377 . S
C2817 C2816 1.524 . S
C2817 C2818 1.397 . S
C2817 C2822 1.363 . S
C2818 H2795 0.950 . S
C2818 C2817 1.397 . S
C2818 C2819 1.334 . S
C2819 H2796 0.950 . S
C2819 C2818 1.334 . S
C2819 C2820 1.287 . S
C2820 C2819 1.287 . S
C2820 C2821 1.524 . S
C2820 H2839 0.913 . S
C2821 H2797 0.950 . S
C2821 C2820 1.524 . S
C2821 C2822 1.415 . S
C2822 H2798 0.950 . S
C2822 C2817 1.363 . S
C2822 C2821 1.415 . S
C2823 H2799 0.951 . S
C2823 C2824 1.366 . S
C2823 C2825 1.388 . S
C2824 C2823 1.366 . S
C2824 C2828 1.385 . S
C2825 H2800 0.951 . S
C2825 C2823 1.388 . S
C2825 C2826 1.366 . S
C2826 C2825 1.366 . S
C2826 C2827 1.414 . S
C2826 C2829 1.499 . S
C2827 H2801 0.950 . S
C2827 C2826 1.414 . S
C2827 C2828 1.374 . S
C2828 H2802 0.950 . S
C2828 C2824 1.385 . S
C2828 C2827 1.374 . S
C2829 C2826 1.499 . S
C2829 C2830 1.373 . S
C2829 C2831 1.389 . S
C2830 H2803 0.950 . S
C2830 C2816 1.377 . S
C2830 C2829 1.373 . S
C2831 C2815 1.377 . S
C2831 C2829 1.389 . S
C2831 C2832 1.524 . S
C2832 C2831 1.524 . S
C2832 C2833 1.397 . S
C2832 C2837 1.363 . S
C2833 H2804 0.950 . S
C2833 C2832 1.397 . S
C2833 C2834 1.334 . S
C2834 H2805 0.950 . S
C2834 C2833 1.334 . S
C2834 C2835 1.287 . S
C2835 C2834 1.287 . S
C2835 C2836 1.524 . S
C2835 H2838 0.999 . S
C2836 H2806 0.950 . S
C2836 C2835 1.524 . S
C2836 C2837 1.415 . S
C2837 H2807 0.950 . S
C2837 C2832 1.363 . S
C2837 C2836 1.415 . S
H2838 C2835 0.999 . S
H2839 C2820 0.913 . S
H2840 C2858 0.951 . S
H2841 C2860 0.951 . S
H2842 C2862 0.950 . S
H2843 C2863 0.950 . S
H2844 C2865 0.950 . S
H2845 C2868 0.950 . S
H2846 C2869 0.950 . S
H2847 C2871 0.950 . S
H2848 C2872 0.950 . S
H2849 C2873 0.951 . S
H2850 C2875 0.951 . S
H2851 C2877 0.950 . S
H2852 C2878 0.950 . S
H2853 C2880 0.950 . S
H2854 C2883 0.950 . S
H2855 C2884 0.950 . S
H2856 C2886 0.950 . S
H2857 C2887 0.950 . S
C2858 H2840 0.951 . S
C2858 C2859 1.366 . S
C2858 C2860 1.388 . S
C2859 C2858 1.366 . S
C2859 C2863 1.385 . S
C2860 H2841 0.951 . S
C2860 C2858 1.388 . S
C2860 C2861 1.366 . S
C2861 C2860 1.366 . S
C2861 C2862 1.414 . S
C2861 C2864 1.499 . S
C2862 H2842 0.950 . S
C2862 C2861 1.414 . S
C2862 C2863 1.374 . S
C2863 H2843 0.950 . S
C2863 C2859 1.385 . S
C2863 C2862 1.374 . S
C2864 C2861 1.499 . S
C2864 C2865 1.373 . S
C2864 C2866 1.389 . S
C2865 H2844 0.950 . S
C2865 C2864 1.373 . S
C2865 C2881 1.377 . S
C2866 C2864 1.389 . S
C2866 C2867 1.524 . S
C2866 C2880 1.377 . S
C2867 C2866 1.524 . S
C2867 C2868 1.397 . S
C2867 C2872 1.363 . S
C2868 H2845 0.950 . S
C2868 C2867 1.397 . S
C2868 C2869 1.334 . S
C2869 H2846 0.950 . S
C2869 C2868 1.334 . S
C2869 C2870 1.287 . S
C2870 C2869 1.287 . S
C2870 C2871 1.524 . S
C2870 H2889 0.913 . S
C2871 H2847 0.950 . S
C2871 C2870 1.524 . S
C2871 C2872 1.415 . S
C2872 H2848 0.950 . S
C2872 C2867 1.363 . S
C2872 C2871 1.415 . S
C2873 H2849 0.951 . S
C2873 C2874 1.366 . S
C2873 C2875 1.388 . S
C2874 C2873 1.366 . S
C2874 C2878 1.385 . S
C2875 H2850 0.951 . S
C2875 C2873 1.388 . S
C2875 C2876 1.366 . S
C2876 C2875 1.366 . S
C2876 C2877 1.414 . S
C2876 C2879 1.499 . S
C2877 H2851 0.950 . S
C2877 C2876 1.414 . S
C2877 C2878 1.374 . S
C2878 H2852 0.950 . S
C2878 C2874 1.385 . S
C2878 C2877 1.374 . S
C2879 C2876 1.499 . S
C2879 C2880 1.373 . S
C2879 C2881 1.389 . S
C2880 H2853 0.950 . S
C2880 C2866 1.377 . S
C2880 C2879 1.373 . S
C2881 C2865 1.377 . S
C2881 C2879 1.389 . S
C2881 C2882 1.524 . S
C2882 C2881 1.524 . S
C2882 C2883 1.397 . S
C2882 C2887 1.363 . S
C2883 H2854 0.950 . S
C2883 C2882 1.397 . S
C2883 C2884 1.334 . S
C2884 H2855 0.950 . S
C2884 C2883 1.334 . S
C2884 C2885 1.287 . S
C2885 C2884 1.287 . S
C2885 C2886 1.524 . S
C2885 H2888 0.999 1_554 S
C2886 H2856 0.950 . S
C2886 C2885 1.524 . S
C2886 C2887 1.415 . S
C2887 H2857 0.950 . S
C2887 C2882 1.363 . S
C2887 C2886 1.415 . S
H2888 C2885 0.999 1_556 S
H2889 C2870 0.913 . S
H2890 C2908 0.951 . S
H2891 C2910 0.951 . S
H2892 C2912 0.950 . S
H2893 C2913 0.950 . S
H2894 C2915 0.950 . S
H2895 C2918 0.950 . S
H2896 C2919 0.950 . S
H2897 C2921 0.950 . S
H2898 C2922 0.950 . S
H2899 C2923 0.951 . S
H2900 C2925 0.951 . S
H2901 C2927 0.950 . S
H2902 C2928 0.950 . S
H2903 C2930 0.950 . S
H2904 C2933 0.950 . S
H2905 C2934 0.950 . S
H2906 C2936 0.950 . S
H2907 C2937 0.950 . S
C2908 H2890 0.951 . S
C2908 C2909 1.366 . S
C2908 C2910 1.388 . S
C2909 C2908 1.366 . S
C2909 C2913 1.385 . S
C2910 H2891 0.951 . S
C2910 C2908 1.388 . S
C2910 C2911 1.366 . S
C2911 C2910 1.366 . S
C2911 C2912 1.414 . S
C2911 C2914 1.499 . S
C2912 H2892 0.950 . S
C2912 C2911 1.414 . S
C2912 C2913 1.374 . S
C2913 H2893 0.950 . S
C2913 C2909 1.385 . S
C2913 C2912 1.374 . S
C2914 C2911 1.499 . S
C2914 C2915 1.373 . S
C2914 C2916 1.389 . S
C2915 H2894 0.950 . S
C2915 C2914 1.373 . S
C2915 C2931 1.377 . S
C2916 C2914 1.389 . S
C2916 C2917 1.524 . S
C2916 C2930 1.377 . S
C2917 C2916 1.524 . S
C2917 C2918 1.397 . S
C2917 C2922 1.363 . S
C2918 H2895 0.950 . S
C2918 C2917 1.397 . S
C2918 C2919 1.334 . S
C2919 H2896 0.950 . S
C2919 C2918 1.334 . S
C2919 C2920 1.287 . S
C2920 C2919 1.287 . S
C2920 C2921 1.524 . S
C2920 H2939 0.913 . S
C2921 H2897 0.950 . S
C2921 C2920 1.524 . S
C2921 C2922 1.415 . S
C2922 H2898 0.950 . S
C2922 C2917 1.363 . S
C2922 C2921 1.415 . S
C2923 H2899 0.951 . S
C2923 C2924 1.366 . S
C2923 C2925 1.388 . S
C2924 C2923 1.366 . S
C2924 C2928 1.385 . S
C2925 H2900 0.951 . S
C2925 C2923 1.388 . S
C2925 C2926 1.366 . S
C2926 C2925 1.366 . S
C2926 C2927 1.414 . S
C2926 C2929 1.499 . S
C2927 H2901 0.950 . S
C2927 C2926 1.414 . S
C2927 C2928 1.374 . S
C2928 H2902 0.950 . S
C2928 C2924 1.385 . S
C2928 C2927 1.374 . S
C2929 C2926 1.499 . S
C2929 C2930 1.373 . S
C2929 C2931 1.389 . S
C2930 H2903 0.950 . S
C2930 C2916 1.377 . S
C2930 C2929 1.373 . S
C2931 C2915 1.377 . S
C2931 C2929 1.389 . S
C2931 C2932 1.524 . S
C2932 C2931 1.524 . S
C2932 C2933 1.397 . S
C2932 C2937 1.363 . S
C2933 H2904 0.950 . S
C2933 C2932 1.397 . S
C2933 C2934 1.334 . S
C2934 H2905 0.950 . S
C2934 C2933 1.334 . S
C2934 C2935 1.287 . S
C2935 C2934 1.287 . S
C2935 C2936 1.524 . S
C2935 H2938 0.999 . S
C2936 H2906 0.950 . S
C2936 C2935 1.524 . S
C2936 C2937 1.415 . S
C2937 H2907 0.950 . S
C2937 C2932 1.363 . S
C2937 C2936 1.415 . S
H2938 C2935 0.999 . S
H2939 C2920 0.913 . S
H2940 C2958 0.951 . S
H2941 C2960 0.951 . S
H2942 C2962 0.950 . S
H2943 C2963 0.950 . S
H2944 C2965 0.950 . S
H2945 C2968 0.950 . S
H2946 C2969 0.950 . S
H2947 C2971 0.950 . S
H2948 C2972 0.950 . S
H2949 C2973 0.951 . S
H2950 C2975 0.951 . S
H2951 C2977 0.950 . S
H2952 C2978 0.950 . S
H2953 C2980 0.950 . S
H2954 C2983 0.950 . S
H2955 C2984 0.950 . S
H2956 C2986 0.950 . S
H2957 C2987 0.950 . S
C2958 H2940 0.951 . S
C2958 C2959 1.366 . S
C2958 C2960 1.388 . S
C2959 C2958 1.366 . S
C2959 C2963 1.385 . S
C2960 H2941 0.951 . S
C2960 C2958 1.388 . S
C2960 C2961 1.366 . S
C2961 C2960 1.366 . S
C2961 C2962 1.414 . S
C2961 C2964 1.499 . S
C2962 H2942 0.950 . S
C2962 C2961 1.414 . S
C2962 C2963 1.374 . S
C2963 H2943 0.950 . S
C2963 C2959 1.385 . S
C2963 C2962 1.374 . S
C2964 C2961 1.499 . S
C2964 C2965 1.373 . S
C2964 C2966 1.389 . S
C2965 H2944 0.950 . S
C2965 C2964 1.373 . S
C2965 C2981 1.377 . S
C2966 C2964 1.389 . S
C2966 C2967 1.524 . S
C2966 C2980 1.377 . S
C2967 C2966 1.524 . S
C2967 C2968 1.397 . S
C2967 C2972 1.363 . S
C2968 H2945 0.950 . S
C2968 C2967 1.397 . S
C2968 C2969 1.334 . S
C2969 H2946 0.950 . S
C2969 C2968 1.334 . S
C2969 C2970 1.287 . S
C2970 C2969 1.287 . S
C2970 C2971 1.524 . S
C2970 H2989 0.913 . S
C2971 H2947 0.950 . S
C2971 C2970 1.524 . S
C2971 C2972 1.415 . S
C2972 H2948 0.950 . S
C2972 C2967 1.363 . S
C2972 C2971 1.415 . S
C2973 H2949 0.951 . S
C2973 C2974 1.366 . S
C2973 C2975 1.388 . S
C2974 C2973 1.366 . S
C2974 C2978 1.385 . S
C2975 H2950 0.951 . S
C2975 C2973 1.388 . S
C2975 C2976 1.366 . S
C2976 C2975 1.366 . S
C2976 C2977 1.414 . S
C2976 C2979 1.499 . S
C2977 H2951 0.950 . S
C2977 C2976 1.414 . S
C2977 C2978 1.374 . S
C2978 H2952 0.950 . S
C2978 C2974 1.385 . S
C2978 C2977 1.374 . S
C2979 C2976 1.499 . S
C2979 C2980 1.373 . S
C2979 C2981 1.389 . S
C2980 H2953 0.950 . S
C2980 C2966 1.377 . S
C2980 C2979 1.373 . S
C2981 C2965 1.377 . S
C2981 C2979 1.389 . S
C2981 C2982 1.524 . S
C2982 C2981 1.524 . S
C2982 C2983 1.397 . S
C2982 C2987 1.363 . S
C2983 H2954 0.950 . S
C2983 C2982 1.397 . S
C2983 C2984 1.334 . S
C2984 H2955 0.950 . S
C2984 C2983 1.334 . S
C2984 C2985 1.287 . S
C2985 C2984 1.287 . S
C2985 C2986 1.524 . S
C2985 H2988 0.999 . S
C2986 H2956 0.950 . S
C2986 C2985 1.524 . S
C2986 C2987 1.415 . S
C2987 H2957 0.950 . S
C2987 C2982 1.363 . S
C2987 C2986 1.415 . S
H2988 C2985 0.999 . S
H2989 C2970 0.913 . S
H2990 C3008 0.951 . S
H2991 C3010 0.951 . S
H2992 C3012 0.950 . S
H2993 C3013 0.950 . S
H2994 C3015 0.950 . S
H2995 C3018 0.950 . S
H2996 C3019 0.950 . S
H2997 C3021 0.950 . S
H2998 C3022 0.950 . S
H2999 C3023 0.951 . S
H3000 C3025 0.951 . S
H3001 C3027 0.950 . S
H3002 C3028 0.950 . S
H3003 C3030 0.950 . S
H3004 C3033 0.950 . S
H3005 C3034 0.950 . S
H3006 C3036 0.950 . S
H3007 C3037 0.950 . S
C3008 H2990 0.951 . S
C3008 C3009 1.366 . S
C3008 C3010 1.388 . S
C3009 C3008 1.366 . S
C3009 C3013 1.385 . S
C3010 H2991 0.951 . S
C3010 C3008 1.388 . S
C3010 C3011 1.366 . S
C3011 C3010 1.366 . S
C3011 C3012 1.414 . S
C3011 C3014 1.499 . S
C3012 H2992 0.950 . S
C3012 C3011 1.414 . S
C3012 C3013 1.374 . S
C3013 H2993 0.950 . S
C3013 C3009 1.385 . S
C3013 C3012 1.374 . S
C3014 C3011 1.499 . S
C3014 C3015 1.373 . S
C3014 C3016 1.389 . S
C3015 H2994 0.950 . S
C3015 C3014 1.373 . S
C3015 C3031 1.377 . S
C3016 C3014 1.389 . S
C3016 C3017 1.524 . S
C3016 C3030 1.377 . S
C3017 C3016 1.524 . S
C3017 C3018 1.397 . S
C3017 C3022 1.363 . S
C3018 H2995 0.950 . S
C3018 C3017 1.397 . S
C3018 C3019 1.334 . S
C3019 H2996 0.950 . S
C3019 C3018 1.334 . S
C3019 C3020 1.287 . S
C3020 C3019 1.287 . S
C3020 C3021 1.524 . S
C3020 H3039 0.913 . S
C3021 H2997 0.950 . S
C3021 C3020 1.524 . S
C3021 C3022 1.415 . S
C3022 H2998 0.950 . S
C3022 C3017 1.363 . S
C3022 C3021 1.415 . S
C3023 H2999 0.951 . S
C3023 C3024 1.366 . S
C3023 C3025 1.388 . S
C3024 C3023 1.366 . S
C3024 C3028 1.385 . S
C3025 H3000 0.951 . S
C3025 C3023 1.388 . S
C3025 C3026 1.366 . S
C3026 C3025 1.366 . S
C3026 C3027 1.414 . S
C3026 C3029 1.499 . S
C3027 H3001 0.950 . S
C3027 C3026 1.414 . S
C3027 C3028 1.374 . S
C3028 H3002 0.950 . S
C3028 C3024 1.385 . S
C3028 C3027 1.374 . S
C3029 C3026 1.499 . S
C3029 C3030 1.373 . S
C3029 C3031 1.389 . S
C3030 H3003 0.950 . S
C3030 C3016 1.377 . S
C3030 C3029 1.373 . S
C3031 C3015 1.377 . S
C3031 C3029 1.389 . S
C3031 C3032 1.524 . S
C3032 C3031 1.524 . S
C3032 C3033 1.397 . S
C3032 C3037 1.363 . S
C3033 H3004 0.950 . S
C3033 C3032 1.397 . S
C3033 C3034 1.334 . S
C3034 H3005 0.950 . S
C3034 C3033 1.334 . S
C3034 C3035 1.287 . S
C3035 C3034 1.287 . S
C3035 C3036 1.524 . S
C3035 H3038 0.999 . S
C3036 H3006 0.950 . S
C3036 C3035 1.524 . S
C3036 C3037 1.415 . S
C3037 H3007 0.950 . S
C3037 C3032 1.363 . S
C3037 C3036 1.415 . S
H3038 C3035 0.999 . S
H3039 C3020 0.913 . S
C659 C26 1.802 . S
C674 C306 1.802 . S
C709 C66 1.802 . S
C724 C186 1.803 . S
C759 C226 1.802 . S
C774 C106 1.802 . S
C809 C146 1.802 . S
C824 C266 1.802 . S
C859 C453 4.084 . S
C874 C173 4.084 1_554 S
C909 C333 4.084 . S
C924 C13 4.085 1_556 S
C959 C413 4.084 . S
C974 C253 4.084 . S
C1009 C93 4.085 . S
C1024 C373 4.084 . S
C1059 C386 1.802 . S
C1074 C506 1.802 . S
C1109 C426 1.802 . S
C1124 C586 1.802 . S
C1159 C546 1.802 . S
C1174 C346 1.802 . S
C1209 C466 1.802 . S
C1224 C626 1.802 . S
C1259 C573 4.084 . S
C1274 C133 4.085 . S
C1309 C493 4.084 . S
C1324 C213 4.085 . S
C1359 C53 4.084 . S
C1374 C613 4.084 1_554 S
C1409 C293 4.084 . S
C1424 C533 4.084 1_556 S
C1459 C522 0.405 . S
C1474 C2 0.408 . S
C1509 C442 0.408 . S
C1524 C42 0.404 . S
C1559 C482 0.407 . S
C1574 C82 0.404 . S
C1609 C402 0.406 . S
C1624 C122 0.408 . S
C1659 C162 0.407 . S
C1674 C602 0.407 . S
C1709 C362 0.408 . S
C1724 C202 0.404 . S
C1759 C242 0.404 . S
C1774 C562 0.407 . S
C1809 C282 0.408 . S
C1824 C322 0.404 . S
C1859 C23 1.087 . S
C1874 C183 1.087 . S
C1909 C63 1.085 . S
C1924 C223 1.086 . S
C1959 C263 1.087 . S
C1974 C103 1.087 . S
C2009 C143 1.085 . S
C2024 C303 1.086 . S
C2059 C423 1.085 . S
C2074 C343 1.086 . S
C2109 C463 1.086 . S
C2124 C383 1.086 . S
C2159 C503 1.088 . S
C2174 C583 1.088 . S
C2209 C623 1.087 . S
C2224 C543 1.087 . S
C2259 C24 4.465 . S
C2274 C304 4.465 . S
C2309 C64 4.465 . S
C2324 C184 4.465 . S
C2359 C224 4.465 1_556 S
C2374 C104 4.465 . S
C2409 C264 4.465 . S
C2424 C144 4.465 1_554 S
C2459 C457 0.886 . S
C2474 C177 0.886 . S
C2509 C337 0.884 . S
C2524 C17 0.885 . S
C2559 C417 0.884 . S
C2574 C257 0.886 . S
C2609 C97 0.884 . S
C2624 C377 0.886 . S
C2659 C504 4.465 . S
C2674 C384 4.465 1_556 S
C2709 C584 4.465 . S
C2724 C424 4.465 1_554 S
C2759 C544 4.465 . S
C2774 C344 4.465 . S
C2809 C624 4.465 . S
C2824 C464 4.465 . S
C2859 C577 0.886 . S
C2874 C137 0.885 . S
C2909 C217 0.885 . S
C2924 C497 0.886 . S
C2959 C57 0.886 . S
C2974 C617 0.884 . S
C3009 C537 0.884 . S
C3024 C297 0.885 . S
