# Generated by pormake.
# Topology cds-f, (5)-cn, num edge types: 1
# Building blocks:
#     Node 0, Type 0, BuildingBlock: XOMCOT_clean_sbu_0, # of connection points: 5
#     Node 1, Type 0, BuildingBlock: XOMCOT_clean_sbu_0, # of connection points: 5
#     Node 2, Type 0, BuildingBlock: XOMCOT_clean_sbu_0, # of connection points: 5
#     Node 3, Type 0, BuildingBlock: XOMCOT_clean_sbu_0, # of connection points: 5
#     Node 4, Type 0, BuildingBlock: XOMCOT_clean_sbu_0, # of connection points: 5
#     Node 5, Type 0, BuildingBlock: XOMCOT_clean_sbu_0, # of connection points: 5
#     Node 6, Type 0, BuildingBlock: XOMCOT_clean_sbu_0, # of connection points: 5
#     Node 7, Type 0, BuildingBlock: XOMCOT_clean_sbu_0, # of connection points: 5
#     Node 8, Type 0, BuildingBlock: XOMCOT_clean_sbu_0, # of connection points: 5
#     Node 9, Type 0, BuildingBlock: XOMCOT_clean_sbu_0, # of connection points: 5
#     Node 10, Type 0, BuildingBlock: XOMCOT_clean_sbu_0, # of connection points: 5
#     Node 11, Type 0, BuildingBlock: XOMCOT_clean_sbu_0, # of connection points: 5
#     Node 12, Type 0, BuildingBlock: XOMCOT_clean_sbu_0, # of connection points: 5
#     Node 13, Type 0, BuildingBlock: XOMCOT_clean_sbu_0, # of connection points: 5
#     Node 14, Type 0, BuildingBlock: XOMCOT_clean_sbu_0, # of connection points: 5
#     Node 15, Type 0, BuildingBlock: XOMCOT_clean_sbu_0, # of connection points: 5
#     Edge 16, Type (0, 0), BuildingBlock: CIFDUS_clean_linker_0, # of connection points: 2
#     Edge 17, Type (0, 0), BuildingBlock: CIFDUS_clean_linker_0, # of connection points: 2
#     Edge 18, Type (0, 0), BuildingBlock: CIFDUS_clean_linker_0, # of connection points: 2
#     Edge 19, Type (0, 0), BuildingBlock: CIFDUS_clean_linker_0, # of connection points: 2
#     Edge 20, Type (0, 0), BuildingBlock: CIFDUS_clean_linker_0, # of connection points: 2
#     Edge 21, Type (0, 0), BuildingBlock: CIFDUS_clean_linker_0, # of connection points: 2
#     Edge 22, Type (0, 0), BuildingBlock: CIFDUS_clean_linker_0, # of connection points: 2
#     Edge 23, Type (0, 0), BuildingBlock: CIFDUS_clean_linker_0, # of connection points: 2
#     Edge 24, Type (0, 0), BuildingBlock: CIFDUS_clean_linker_0, # of connection points: 2
#     Edge 25, Type (0, 0), BuildingBlock: CIFDUS_clean_linker_0, # of connection points: 2
#     Edge 26, Type (0, 0), BuildingBlock: CIFDUS_clean_linker_0, # of connection points: 2
#     Edge 27, Type (0, 0), BuildingBlock: CIFDUS_clean_linker_0, # of connection points: 2
#     Edge 28, Type (0, 0), BuildingBlock: CIFDUS_clean_linker_0, # of connection points: 2
#     Edge 29, Type (0, 0), BuildingBlock: CIFDUS_clean_linker_0, # of connection points: 2
#     Edge 30, Type (0, 0), BuildingBlock: CIFDUS_clean_linker_0, # of connection points: 2
#     Edge 31, Type (0, 0), BuildingBlock: CIFDUS_clean_linker_0, # of connection points: 2
#     Edge 32, Type (0, 0), BuildingBlock: CIFDUS_clean_linker_0, # of connection points: 2
#     Edge 33, Type (0, 0), BuildingBlock: CIFDUS_clean_linker_0, # of connection points: 2
#     Edge 34, Type (0, 0), BuildingBlock: CIFDUS_clean_linker_0, # of connection points: 2
#     Edge 35, Type (0, 0), BuildingBlock: CIFDUS_clean_linker_0, # of connection points: 2
#     Edge 36, Type (0, 0), BuildingBlock: CIFDUS_clean_linker_0, # of connection points: 2
#     Edge 37, Type (0, 0), BuildingBlock: CIFDUS_clean_linker_0, # of connection points: 2
#     Edge 38, Type (0, 0), BuildingBlock: CIFDUS_clean_linker_0, # of connection points: 2
#     Edge 39, Type (0, 0), BuildingBlock: CIFDUS_clean_linker_0, # of connection points: 2
#     Edge 40, Type (0, 0), BuildingBlock: CIFDUS_clean_linker_0, # of connection points: 2
#     Edge 41, Type (0, 0), BuildingBlock: CIFDUS_clean_linker_0, # of connection points: 2
#     Edge 42, Type (0, 0), BuildingBlock: CIFDUS_clean_linker_0, # of connection points: 2
#     Edge 43, Type (0, 0), BuildingBlock: CIFDUS_clean_linker_0, # of connection points: 2
#     Edge 44, Type (0, 0), BuildingBlock: CIFDUS_clean_linker_0, # of connection points: 2
#     Edge 45, Type (0, 0), BuildingBlock: CIFDUS_clean_linker_0, # of connection points: 2
#     Edge 46, Type (0, 0), BuildingBlock: CIFDUS_clean_linker_0, # of connection points: 2
#     Edge 47, Type (0, 0), BuildingBlock: CIFDUS_clean_linker_0, # of connection points: 2
#     Edge 48, Type (0, 0), BuildingBlock: CIFDUS_clean_linker_0, # of connection points: 2
#     Edge 49, Type (0, 0), BuildingBlock: CIFDUS_clean_linker_0, # of connection points: 2
#     Edge 50, Type (0, 0), BuildingBlock: CIFDUS_clean_linker_0, # of connection points: 2
#     Edge 51, Type (0, 0), BuildingBlock: CIFDUS_clean_linker_0, # of connection points: 2
#     Edge 52, Type (0, 0), BuildingBlock: CIFDUS_clean_linker_0, # of connection points: 2
#     Edge 53, Type (0, 0), BuildingBlock: CIFDUS_clean_linker_0, # of connection points: 2
#     Edge 54, Type (0, 0), BuildingBlock: CIFDUS_clean_linker_0, # of connection points: 2
#     Edge 55, Type (0, 0), BuildingBlock: CIFDUS_clean_linker_0, # of connection points: 2
# Relax obj value: 0.277
# Max RMSD: 0.214
# Mean RMSD: 0.210
data_MOF--net-cds-f--node1-XOMCOT_clean_sbu_0--edge1-CIFDUS_clean_linker_0
_symmetry_space_group_name_H-M    P1
_symmetry_Int_Tables_number       1
_symmetry_cell_setting            triclinic
loop_
_symmetry_equiv_pos_as_xyz
'x, y, z'
_cell_length_a     32.019542
_cell_length_b     32.132235
_cell_length_c     49.747414
_cell_angle_alpha  89.864825
_cell_angle_beta   89.732015
_cell_angle_gamma 92.290695
loop_
_atom_site_label
_atom_site_type_symbol
_atom_site_fract_x
_atom_site_fract_y
_atom_site_fract_z
_atom_type_partial_charge
Co0 Co 0.25302 0.2499 0.13708 0.0
C1 C 0.16188 0.26062 0.13173 0.0
C2 C 0.18164 0.20637 0.11094 0.0
C3 C 0.13878 0.20782 0.10914 0.0
N4 N 0.19606 0.23949 0.12506 0.0
N5 N 0.1261 0.24192 0.1223 0.0
H6 H 0.16346 0.28863 0.14374 0.0
H7 H 0.20077 0.18198 0.10334 0.0
C8 C 0.302 0.24495 0.08626 0.0
O9 O 0.32295 0.27851 0.09451 0.0
N10 N 0.31081 0.25878 0.15017 0.0
C11 C 0.32307 0.28148 0.1718 0.0
C12 C 0.36528 0.27828 0.17554 0.0
C13 C 0.346 0.23951 0.14248 0.0
N14 N 0.37997 0.25223 0.15693 0.0
C15 C 0.26059 0.33902 0.13872 0.0
C16 C 0.24301 0.3534 0.08522 0.0
C17 C 0.25703 0.38662 0.1014 0.0
C18 C 0.26446 0.37933 0.12862 0.0
C19 C 0.24008 0.31317 0.0962 0.0
N20 N 0.2518 0.30609 0.12222 0.0
H21 H 0.26437 0.33458 0.15992 0.0
H22 H 0.22951 0.28756 0.08356 0.0
H23 H 0.30274 0.29775 0.18515 0.0
H24 H 0.34691 0.21651 0.1267 0.0
O25 O 0.23191 0.26176 0.17229 0.0
O26 O 0.24921 0.19913 0.15848 0.0
O27 O 0.27383 0.22771 0.10144 0.0
C28 C 0.23527 0.22255 0.17771 0.0
H29 H 0.11861 0.18441 0.09971 0.0
H30 H 0.38351 0.29297 0.19143 0.0
H31 H 0.23552 0.3583 0.06427 0.0
H32 H 0.27315 0.40473 0.14203 0.0
Co33 Co 0.77596 0.26877 0.62424 0.0
C34 C 0.76671 0.36078 0.62641 0.0
C35 C 0.81813 0.34103 0.65007 0.0
C36 C 0.81707 0.38374 0.65132 0.0
N37 N 0.78641 0.32654 0.63464 0.0
N38 N 0.78488 0.39647 0.6363 0.0
H39 H 0.74044 0.35945 0.61282 0.0
H40 H 0.8412 0.322 0.65929 0.0
C41 C 0.78202 0.22748 0.67807 0.0
O42 O 0.74735 0.20622 0.67218 0.0
N43 N 0.76738 0.2103 0.61285 0.0
C44 C 0.74886 0.19713 0.58986 0.0
C45 C 0.75228 0.15491 0.58732 0.0
C46 C 0.78401 0.17539 0.62305 0.0
N47 N 0.77408 0.14086 0.60835 0.0
C48 C 0.68703 0.25577 0.62474 0.0
C49 C 0.67232 0.28911 0.67492 0.0
C50 C 0.63882 0.27167 0.66023 0.0
C51 C 0.64649 0.25529 0.6348 0.0
C52 C 0.71289 0.28808 0.66427 0.0
N53 N 0.71999 0.27014 0.63979 0.0
H54 H 0.69146 0.24555 0.60448 0.0
H55 H 0.7386 0.3015 0.67577 0.0
H56 H 0.73484 0.21685 0.57508 0.0
H57 H 0.80396 0.17528 0.64044 0.0
O58 O 0.76202 0.2874 0.58896 0.0
O59 O 0.82605 0.27221 0.60145 0.0
O60 O 0.79979 0.25111 0.6602 0.0
C61 C 0.80114 0.28494 0.58265 0.0
H62 H 0.83883 0.40367 0.6624 0.0
H63 H 0.74072 0.13645 0.57059 0.0
H64 H 0.66722 0.30319 0.69436 0.0
H65 H 0.62104 0.24343 0.62233 0.0
Co66 Co 0.79916 0.77644 0.13505 0.0
C67 C 0.89512 0.77667 0.13248 0.0
C68 C 0.86845 0.83339 0.1197 0.0
C69 C 0.91122 0.83848 0.11839 0.0
N70 N 0.85778 0.79468 0.12852 0.0
N71 N 0.92821 0.8029 0.12645 0.0
H72 H 0.8988 0.74578 0.14024 0.0
H73 H 0.84648 0.85698 0.11502 0.0
C74 C 0.77651 0.82491 0.08524 0.0
O75 O 0.76484 0.85741 0.09888 0.0
N76 N 0.74032 0.75987 0.14127 0.0
C77 C 0.72649 0.72589 0.15504 0.0
C78 C 0.68343 0.72466 0.15564 0.0
C79 C 0.70511 0.77913 0.1339 0.0
N80 N 0.66956 0.75819 0.14242 0.0
C81 C 0.83157 0.69546 0.13972 0.0
C82 C 0.78425 0.65914 0.09912 0.0
C83 C 0.80589 0.63352 0.11669 0.0
C84 C 0.8318 0.65262 0.13608 0.0
C85 C 0.78637 0.70236 0.10269 0.0
N86 N 0.80896 0.71997 0.12332 0.0
H87 H 0.84721 0.70831 0.15713 0.0
H88 H 0.76652 0.7209 0.09041 0.0
H89 H 0.74641 0.70335 0.16402 0.0
H90 H 0.7056 0.80815 0.12288 0.0
O91 O 0.81053 0.7689 0.17232 0.0
O92 O 0.7908 0.82826 0.15456 0.0
O93 O 0.7876 0.79204 0.09708 0.0
C94 C 0.80202 0.80749 0.17578 0.0
H95 H 0.92849 0.86642 0.11196 0.0
H96 H 0.66403 0.70031 0.16494 0.0
H97 H 0.76328 0.64597 0.0841 0.0
H98 H 0.8499 0.63442 0.1498 0.0
Co99 Co 0.26359 0.76779 0.62254 0.0
C100 C 0.26661 0.67391 0.62599 0.0
C101 C 0.20549 0.69634 0.63271 0.0
C102 C 0.20298 0.65338 0.63322 0.0
N103 N 0.24551 0.70944 0.62834 0.0
N104 N 0.24151 0.63924 0.62888 0.0
H105 H 0.29945 0.67279 0.62206 0.0
H106 H 0.17962 0.71675 0.63479 0.0
C107 C 0.23844 0.7616 0.68 0.0
O108 O 0.2568 0.72582 0.67979 0.0
N109 N 0.28004 0.82551 0.61605 0.0
C110 C 0.3151 0.83973 0.60347 0.0
C111 C 0.31497 0.88254 0.60237 0.0
C112 C 0.25888 0.8597 0.62229 0.0
N113 N 0.27962 0.89519 0.61421 0.0
C114 C 0.34666 0.73862 0.6259 0.0
C115 C 0.37161 0.78475 0.67019 0.0
C116 C 0.40047 0.75988 0.65733 0.0
C117 C 0.3875 0.73659 0.63498 0.0
C118 C 0.3305 0.78511 0.66073 0.0
N119 N 0.31787 0.76093 0.6394 0.0
H120 H 0.33898 0.72364 0.60712 0.0
H121 H 0.30978 0.80691 0.66951 0.0
H122 H 0.33895 0.82028 0.59545 0.0
H123 H 0.22905 0.85851 0.63262 0.0
O124 O 0.27961 0.75423 0.58654 0.0
O125 O 0.2163 0.77319 0.59774 0.0
O126 O 0.23755 0.78373 0.6585 0.0
C127 C 0.2419 0.76111 0.57904 0.0
H128 H 0.17464 0.63421 0.63557 0.0
H129 H 0.33874 0.90265 0.59299 0.0
H130 H 0.38103 0.80462 0.68683 0.0
H131 H 0.40948 0.7188 0.62356 0.0
Co132 Co 0.27535 0.77807 0.88673 0.0
C133 C 0.36917 0.77443 0.8819 0.0
C134 C 0.34679 0.83484 0.8734 0.0
C135 C 0.38975 0.83651 0.87085 0.0
N136 N 0.33366 0.79566 0.87989 0.0
N137 N 0.40377 0.79834 0.87611 0.0
H138 H 0.37054 0.74262 0.88819 0.0
H139 H 0.32637 0.86048 0.87052 0.0
C140 C 0.27931 0.80199 0.82909 0.0
O141 O 0.31449 0.78239 0.82865 0.0
N142 N 0.21768 0.76202 0.89423 0.0
C143 C 0.20378 0.72664 0.90644 0.0
C144 C 0.16088 0.72665 0.90807 0.0
C145 C 0.18323 0.78337 0.88885 0.0
N146 N 0.14795 0.7623 0.89701 0.0
C147 C 0.30401 0.69498 0.88253 0.0
C148 C 0.25343 0.67029 0.8402 0.0
C149 C 0.27848 0.6412 0.85249 0.0
C150 C 0.30431 0.65399 0.87369 0.0
C151 C 0.25503 0.71148 0.84924 0.0
N152 N 0.28113 0.72391 0.86968 0.0
H153 H 0.32003 0.7024 0.90099 0.0
H154 H 0.23281 0.73239 0.84119 0.0
H155 H 0.22351 0.70253 0.91369 0.0
H156 H 0.184 0.81343 0.87896 0.0
O157 O 0.29018 0.76196 0.92241 0.0
O158 O 0.27098 0.8252 0.91158 0.0
O159 O 0.25822 0.80404 0.85105 0.0
C160 C 0.28328 0.7995 0.93006 0.0
H161 H 0.40898 0.86365 0.86529 0.0
H162 H 0.14082 0.70257 0.91714 0.0
H163 H 0.2316 0.66089 0.82457 0.0
H164 H 0.32227 0.63172 0.88466 0.0
Co165 Co 0.26146 0.24386 0.37343 0.0
C166 C 0.25238 0.15038 0.37301 0.0
C167 C 0.25874 0.17482 0.41286 0.0
C168 C 0.25814 0.13202 0.41432 0.0
N169 N 0.25455 0.18665 0.38699 0.0
N170 N 0.25446 0.11661 0.38925 0.0
H171 H 0.25132 0.14851 0.35134 0.0
H172 H 0.26476 0.19571 0.42951 0.0
C173 C 0.21 0.25843 0.42257 0.0
O174 O 0.18027 0.23331 0.41307 0.0
N175 N 0.26898 0.30093 0.36026 0.0
C176 C 0.29573 0.31411 0.34079 0.0
C177 C 0.29459 0.35682 0.33866 0.0
C178 C 0.2519 0.33596 0.36972 0.0
N179 N 0.2672 0.37083 0.35697 0.0
C180 C 0.34419 0.21599 0.37666 0.0
C181 C 0.37714 0.28386 0.40471 0.0
C182 C 0.40424 0.25475 0.39413 0.0
C183 C 0.38705 0.21957 0.38097 0.0
C184 C 0.33421 0.27873 0.40032 0.0
N185 N 0.31857 0.24583 0.38569 0.0
H186 H 0.33172 0.19017 0.36493 0.0
H187 H 0.31393 0.30262 0.40719 0.0
H188 H 0.31548 0.29414 0.3293 0.0
H189 H 0.22972 0.33598 0.38616 0.0
O190 O 0.27121 0.22347 0.33791 0.0
O191 O 0.20885 0.2387 0.35395 0.0
O192 O 0.24318 0.26595 0.40891 0.0
C193 C 0.23147 0.22622 0.3338 0.0
H194 H 0.26312 0.11377 0.43226 0.0
H195 H 0.31284 0.3759 0.32464 0.0
H196 H 0.38909 0.31169 0.41477 0.0
H197 H 0.40675 0.19591 0.37292 0.0
Co198 Co 0.75162 0.2464 0.89194 0.0
C199 C 0.66009 0.25686 0.88782 0.0
C200 C 0.67954 0.20176 0.86776 0.0
C201 C 0.63683 0.2038 0.8654 0.0
N202 N 0.69406 0.23506 0.88171 0.0
N203 N 0.62454 0.23844 0.87803 0.0
H204 H 0.6614 0.28517 0.89958 0.0
H205 H 0.69866 0.17746 0.86003 0.0
C206 C 0.79339 0.24505 0.83752 0.0
O207 O 0.81438 0.27957 0.84393 0.0
N208 N 0.80997 0.25643 0.90297 0.0
C209 C 0.823 0.2754 0.92585 0.0
C210 C 0.86549 0.27321 0.92801 0.0
C211 C 0.84521 0.2408 0.89243 0.0
N212 N 0.87969 0.25177 0.90687 0.0
C213 C 0.75734 0.3348 0.8969 0.0
C214 C 0.73362 0.35451 0.84523 0.0
C215 C 0.74802 0.38633 0.86247 0.0
C216 C 0.75861 0.37616 0.88881 0.0
C217 C 0.73326 0.31306 0.8542 0.0
N218 N 0.74774 0.30356 0.87925 0.0
H219 H 0.76375 0.32817 0.91757 0.0
H220 H 0.72217 0.2886 0.84083 0.0
H221 H 0.80311 0.28822 0.94104 0.0
H222 H 0.84569 0.22099 0.87496 0.0
O223 O 0.73351 0.25509 0.92827 0.0
O224 O 0.75121 0.194 0.91186 0.0
O225 O 0.76931 0.22676 0.85492 0.0
C226 C 0.73873 0.21579 0.93228 0.0
H227 H 0.61651 0.18159 0.85494 0.0
H228 H 0.88418 0.28505 0.94458 0.0
H229 H 0.72373 0.36149 0.82498 0.0
H230 H 0.76764 0.40015 0.90317 0.0
Co231 Co 0.77613 0.80942 0.37599 0.0
C232 C 0.76893 0.90303 0.37807 0.0
C233 C 0.8287 0.88228 0.39022 0.0
C234 C 0.82944 0.92498 0.39169 0.0
N235 N 0.79068 0.86819 0.38198 0.0
N236 N 0.79187 0.93817 0.38403 0.0
H237 H 0.73762 0.90323 0.37033 0.0
H238 H 0.85459 0.86287 0.39458 0.0
C239 C 0.83597 0.78771 0.42047 0.0
O240 O 0.86623 0.77895 0.40379 0.0
N241 N 0.76284 0.75054 0.37015 0.0
C242 C 0.72801 0.73467 0.35831 0.0
C243 C 0.72969 0.69193 0.35763 0.0
C244 C 0.78542 0.71713 0.37637 0.0
N245 N 0.76582 0.68072 0.36896 0.0
C246 C 0.69095 0.83338 0.3791 0.0
C247 C 0.67042 0.78921 0.42539 0.0
C248 C 0.63901 0.80894 0.41141 0.0
C249 C 0.64973 0.83196 0.38832 0.0
C250 C 0.71148 0.79212 0.41582 0.0
N251 N 0.7215 0.81408 0.39289 0.0
H252 H 0.69762 0.84808 0.35998 0.0
H253 H 0.73429 0.77415 0.42605 0.0
H254 H 0.70293 0.75295 0.35079 0.0
H255 H 0.81574 0.71938 0.38576 0.0
O256 O 0.76088 0.82129 0.33963 0.0
O257 O 0.82468 0.80613 0.35248 0.0
O258 O 0.80042 0.798 0.412 0.0
C259 C 0.79951 0.81607 0.33312 0.0
H260 H 0.85568 0.94468 0.39813 0.0
H261 H 0.70562 0.67078 0.34979 0.0
H262 H 0.66301 0.77034 0.44298 0.0
H263 H 0.62596 0.84643 0.37647 0.0
Co264 Co 0.7743 0.77095 0.88713 0.0
C265 C 0.8686 0.76857 0.89133 0.0
C266 C 0.84686 0.82798 0.87951 0.0
C267 C 0.88985 0.83039 0.88001 0.0
N268 N 0.83333 0.78904 0.88623 0.0
N269 N 0.90362 0.79291 0.88735 0.0
H270 H 0.86922 0.73671 0.89775 0.0
H271 H 0.82671 0.85274 0.87386 0.0
C272 C 0.7954 0.78264 0.8297 0.0
O273 O 0.83109 0.7664 0.83591 0.0
N274 N 0.71549 0.75499 0.88863 0.0
C275 C 0.69838 0.71997 0.8997 0.0
C276 C 0.65558 0.72148 0.89829 0.0
C277 C 0.68295 0.77769 0.88103 0.0
N278 N 0.64586 0.75779 0.88663 0.0
C279 C 0.80407 0.6883 0.8937 0.0
C280 C 0.77051 0.65565 0.84682 0.0
C281 C 0.79142 0.62937 0.86421 0.0
C282 C 0.80828 0.64622 0.88795 0.0
C283 C 0.76706 0.69759 0.85335 0.0
N284 N 0.78536 0.7141 0.87599 0.0
H285 H 0.81455 0.69972 0.913 0.0
H286 H 0.74756 0.716 0.84079 0.0
H287 H 0.71578 0.69546 0.90875 0.0
H288 H 0.68642 0.80826 0.87193 0.0
O289 O 0.77813 0.76311 0.92514 0.0
O290 O 0.76233 0.82267 0.90576 0.0
O291 O 0.76822 0.78864 0.8482 0.0
C292 C 0.76902 0.80183 0.92776 0.0
H293 H 0.90929 0.85741 0.87454 0.0
H294 H 0.6333 0.6983 0.90619 0.0
H295 H 0.75591 0.64374 0.82865 0.0
H296 H 0.82286 0.62665 0.90266 0.0
Co297 Co 0.26848 0.74546 0.37548 0.0
C298 C 0.27019 0.65137 0.36974 0.0
C299 C 0.21031 0.67342 0.38074 0.0
C300 C 0.2071 0.6307 0.3787 0.0
N301 N 0.24988 0.68668 0.37529 0.0
N302 N 0.24481 0.61655 0.37184 0.0
H303 H 0.30269 0.65071 0.36433 0.0
H304 H 0.18515 0.6936 0.3856 0.0
C305 C 0.20812 0.76445 0.42094 0.0
O306 O 0.18075 0.77979 0.40444 0.0
N307 N 0.28613 0.80412 0.37558 0.0
C308 C 0.32255 0.81986 0.3654 0.0
C309 C 0.32249 0.86267 0.36628 0.0
C310 C 0.26433 0.83774 0.38248 0.0
N311 N 0.28589 0.87392 0.37701 0.0
C312 C 0.35147 0.7157 0.37729 0.0
C313 C 0.37187 0.74838 0.4271 0.0
C314 C 0.40311 0.73125 0.41137 0.0
C315 C 0.39234 0.71367 0.38655 0.0
C316 C 0.33106 0.74895 0.41736 0.0
N317 N 0.3212 0.73303 0.39256 0.0
H318 H 0.34502 0.70572 0.357 0.0
H319 H 0.3086 0.76528 0.4291 0.0
H320 H 0.34715 0.80146 0.35727 0.0
H321 H 0.23288 0.83611 0.39037 0.0
O322 O 0.28635 0.74256 0.33865 0.0
O323 O 0.22248 0.7582 0.35135 0.0
O324 O 0.24212 0.75027 0.41205 0.0
C325 C 0.2494 0.75345 0.3319 0.0
H326 H 0.17873 0.61177 0.38155 0.0
H327 H 0.34751 0.88392 0.35957 0.0
H328 H 0.37939 0.7631 0.44614 0.0
H329 H 0.416 0.70139 0.37346 0.0
Co330 Co 0.25344 0.26037 0.89101 0.0
C331 C 0.15904 0.25864 0.89628 0.0
C332 C 0.18364 0.19931 0.88713 0.0
C333 C 0.14086 0.19454 0.88919 0.0
N334 N 0.19526 0.23958 0.89139 0.0
N335 N 0.12537 0.2319 0.89492 0.0
H336 H 0.15666 0.29129 0.90023 0.0
H337 H 0.20499 0.17497 0.88271 0.0
C338 C 0.23236 0.2441 0.83396 0.0
O339 O 0.1952 0.25721 0.84008 0.0
N340 N 0.31166 0.27913 0.89135 0.0
C341 C 0.32742 0.3141 0.90296 0.0
C342 C 0.37035 0.31398 0.90172 0.0
C343 C 0.34514 0.258 0.88339 0.0
N344 N 0.38167 0.27864 0.88947 0.0
C345 C 0.21988 0.34197 0.89544 0.0
C346 C 0.25234 0.3724 0.84738 0.0
C347 C 0.23094 0.39922 0.86417 0.0
C348 C 0.21431 0.3835 0.88843 0.0
C349 C 0.25724 0.33127 0.85518 0.0
N350 N 0.23964 0.31576 0.87844 0.0
H351 H 0.20974 0.3314 0.91511 0.0
H352 H 0.2776 0.31289 0.84315 0.0
H353 H 0.309 0.33736 0.91257 0.0
H354 H 0.34261 0.22774 0.87393 0.0
O355 O 0.25031 0.27031 0.92899 0.0
O356 O 0.26812 0.21053 0.9107 0.0
O357 O 0.25981 0.24074 0.85249 0.0
C358 C 0.2617 0.23239 0.93226 0.0
H359 H 0.12272 0.16561 0.88703 0.0
H360 H 0.39148 0.33736 0.91035 0.0
H361 H 0.26674 0.38353 0.82883 0.0
H362 H 0.19922 0.40367 0.90258 0.0
Co363 Co 0.7831 0.31012 0.37878 0.0
C364 C 0.78543 0.40316 0.37045 0.0
C365 C 0.84034 0.38208 0.38973 0.0
C366 C 0.84339 0.42494 0.38791 0.0
N367 N 0.80372 0.36825 0.37911 0.0
N368 N 0.80873 0.43829 0.37584 0.0
H369 H 0.75554 0.40341 0.36072 0.0
H370 H 0.86335 0.36243 0.39842 0.0
C371 C 0.83821 0.28783 0.42531 0.0
O372 O 0.86568 0.27217 0.40891 0.0
N373 N 0.76277 0.25224 0.37843 0.0
C374 C 0.72459 0.23839 0.37033 0.0
C375 C 0.72312 0.19556 0.37022 0.0
C376 C 0.78424 0.21746 0.38271 0.0
N377 N 0.76065 0.18226 0.37798 0.0
C378 C 0.70153 0.34229 0.37634 0.0
C379 C 0.67366 0.31118 0.42537 0.0
C380 C 0.64469 0.32548 0.40689 0.0
C381 C 0.65937 0.34341 0.38284 0.0
C382 C 0.71598 0.31126 0.41828 0.0
N383 N 0.72933 0.32535 0.39354 0.0
H384 H 0.71073 0.35138 0.35627 0.0
H385 H 0.73675 0.29617 0.43183 0.0
H386 H 0.69984 0.25795 0.36389 0.0
H387 H 0.81667 0.21786 0.38848 0.0
O388 O 0.76986 0.3137 0.34126 0.0
O389 O 0.83104 0.29493 0.3569 0.0
O390 O 0.80527 0.30371 0.4162 0.0
C391 C 0.80685 0.30083 0.33632 0.0
H392 H 0.86934 0.44464 0.39482 0.0
H393 H 0.69687 0.17588 0.36376 0.0
H394 H 0.66336 0.29659 0.44404 0.0
H395 H 0.63788 0.35487 0.36805 0.0
Co396 Co 0.75475 0.2587 0.14138 0.0
C397 C 0.65967 0.25665 0.14632 0.0
C398 C 0.68581 0.1967 0.14989 0.0
C399 C 0.64292 0.19196 0.15228 0.0
N400 N 0.69668 0.23735 0.14618 0.0
N401 N 0.62651 0.22976 0.15012 0.0
H402 H 0.65602 0.28923 0.14269 0.0
H403 H 0.70766 0.17193 0.15065 0.0
C404 C 0.73102 0.22221 0.08854 0.0
O405 O 0.69432 0.23792 0.09259 0.0
N406 N 0.81253 0.27859 0.13736 0.0
C407 C 0.82787 0.3167 0.1443 0.0
C408 C 0.87061 0.31788 0.14125 0.0
C409 C 0.84624 0.25694 0.13031 0.0
N410 N 0.88229 0.28029 0.13257 0.0
C411 C 0.71921 0.33785 0.13711 0.0
C412 C 0.75809 0.36065 0.0893 0.0
C413 C 0.74094 0.39139 0.10543 0.0
C414 C 0.71858 0.37891 0.12851 0.0
C415 C 0.75634 0.31914 0.09809 0.0
N416 N 0.73826 0.30837 0.12227 0.0
H417 H 0.70737 0.33072 0.15701 0.0
H418 H 0.77408 0.297 0.08699 0.0
H419 H 0.80932 0.34169 0.15167 0.0
H420 H 0.84452 0.22441 0.12467 0.0
O421 O 0.75474 0.28175 0.17695 0.0
O422 O 0.77307 0.21767 0.1676 0.0
O423 O 0.7594 0.22644 0.10653 0.0
C424 C 0.76908 0.24704 0.18542 0.0
H425 H 0.62529 0.16299 0.15576 0.0
H426 H 0.89148 0.34443 0.14527 0.0
H427 H 0.77618 0.36899 0.07151 0.0
H428 H 0.70425 0.40149 0.14139 0.0
Co429 Co 0.77861 0.76862 0.61626 0.0
C430 C 0.77948 0.86109 0.61285 0.0
C431 C 0.83349 0.83916 0.63301 0.0
C432 C 0.83622 0.88205 0.63229 0.0
N433 N 0.79786 0.8261 0.62096 0.0
N434 N 0.80214 0.89604 0.6197 0.0
H435 H 0.7498 0.8607 0.60257 0.0
H436 H 0.85603 0.81885 0.64163 0.0
C437 C 0.77243 0.74039 0.67314 0.0
O438 O 0.73576 0.72288 0.6674 0.0
N439 N 0.76096 0.70987 0.61108 0.0
C440 C 0.7387 0.69363 0.5903 0.0
C441 C 0.73793 0.65089 0.59175 0.0
C442 C 0.77545 0.67603 0.62391 0.0
N443 N 0.76099 0.63967 0.61292 0.0
C444 C 0.68947 0.77363 0.61178 0.0
C445 C 0.67639 0.81274 0.6604 0.0
C446 C 0.64205 0.79781 0.64554 0.0
C447 C 0.64882 0.77941 0.62057 0.0
C448 C 0.71675 0.80584 0.6509 0.0
N449 N 0.72277 0.78366 0.62778 0.0
H450 H 0.69393 0.76115 0.59206 0.0
H451 H 0.74317 0.81706 0.66265 0.0
H452 H 0.72641 0.71106 0.57377 0.0
H453 H 0.79733 0.67787 0.64038 0.0
O454 O 0.77295 0.77899 0.57854 0.0
O455 O 0.83056 0.757 0.5979 0.0
O456 O 0.79512 0.75728 0.65458 0.0
C457 C 0.81138 0.76798 0.57609 0.0
H458 H 0.86182 0.9012 0.64019 0.0
H459 H 0.7237 0.62973 0.57724 0.0
H460 H 0.6721 0.82824 0.67947 0.0
H461 H 0.62278 0.76927 0.60802 0.0
Co462 Co 0.29232 0.75782 0.13331 0.0
C463 C 0.38692 0.76024 0.14029 0.0
C464 C 0.36413 0.81634 0.1236 0.0
C465 C 0.40716 0.82003 0.12475 0.0
N466 N 0.35105 0.77865 0.13304 0.0
N467 N 0.42177 0.78467 0.13515 0.0
H468 H 0.38799 0.72956 0.1489 0.0
H469 H 0.34376 0.83978 0.11622 0.0
C470 C 0.26897 0.81591 0.08852 0.0
O471 O 0.25141 0.84084 0.1057 0.0
N472 N 0.23396 0.73702 0.13362 0.0
C473 C 0.22173 0.69838 0.14176 0.0
C474 C 0.17895 0.69412 0.14078 0.0
C475 C 0.19775 0.75617 0.1283 0.0
N476 N 0.16357 0.7303 0.13227 0.0
C477 C 0.32641 0.67698 0.13265 0.0
C478 C 0.29822 0.65382 0.08221 0.0
C479 C 0.3169 0.62425 0.09845 0.0
C480 C 0.33191 0.63657 0.12371 0.0
C481 C 0.2939 0.69434 0.09177 0.0
N482 N 0.30774 0.70555 0.11685 0.0
H483 H 0.33481 0.6843 0.1531 0.0
H484 H 0.27688 0.71547 0.07949 0.0
H485 H 0.24249 0.6749 0.14857 0.0
H486 H 0.19623 0.78815 0.12185 0.0
O487 O 0.29599 0.7418 0.17049 0.0
O488 O 0.27738 0.8039 0.15656 0.0
O489 O 0.28589 0.7829 0.09659 0.0
C490 C 0.28331 0.77839 0.17649 0.0
H491 H 0.42613 0.84705 0.1186 0.0
H492 H 0.1605 0.66662 0.14667 0.0
H493 H 0.28561 0.64529 0.06273 0.0
H494 H 0.34522 0.61435 0.13731 0.0
Co495 Co 0.26021 0.26598 0.62136 0.0
C496 C 0.26548 0.17378 0.61889 0.0
C497 C 0.21004 0.19278 0.63913 0.0
C498 C 0.2101 0.14996 0.63921 0.0
N499 N 0.24482 0.20765 0.62656 0.0
N500 N 0.24498 0.13792 0.62652 0.0
H501 H 0.29488 0.17549 0.60805 0.0
H502 H 0.18644 0.21182 0.64788 0.0
C503 C 0.26028 0.29466 0.6782 0.0
O504 O 0.29624 0.31445 0.67331 0.0
N505 N 0.27396 0.32554 0.6155 0.0
C506 C 0.29505 0.34193 0.59413 0.0
C507 C 0.29374 0.38442 0.59464 0.0
C508 C 0.25824 0.35915 0.62798 0.0
N509 N 0.27083 0.39558 0.61601 0.0
C510 C 0.35027 0.26943 0.6199 0.0
C511 C 0.36219 0.2283 0.66798 0.0
C512 C 0.39674 0.24616 0.65432 0.0
C513 C 0.39058 0.26602 0.62973 0.0
C514 C 0.32211 0.23319 0.6576 0.0
N515 N 0.31635 0.25572 0.63456 0.0
H516 H 0.3467 0.28257 0.60028 0.0
H517 H 0.29558 0.21968 0.66849 0.0
H518 H 0.30851 0.32451 0.57796 0.0
H519 H 0.23701 0.35706 0.64492 0.0
O520 O 0.26965 0.25569 0.58386 0.0
O521 O 0.20871 0.27252 0.6015 0.0
O522 O 0.23992 0.2768 0.65911 0.0
C523 C 0.23059 0.26358 0.58026 0.0
H524 H 0.18666 0.1294 0.64852 0.0
H525 H 0.30682 0.4053 0.57943 0.0
H526 H 0.36607 0.21147 0.68663 0.0
H527 H 0.4169 0.27821 0.61795 0.0
H528 H 0.95224 0.31041 0.15705 0.0
H529 H 0.90822 0.22207 0.09747 0.0
H530 H 0.98018 0.20265 0.08863 0.0
H531 H 0.0555 0.21184 0.09729 0.0
H532 H 0.09864 0.29933 0.158 0.0
H533 H 0.02727 0.31872 0.16621 0.0
C534 C 0.9583 0.28715 0.14195 0.0
C535 C 0.92468 0.26792 0.12784 0.0
C536 C 0.99974 0.27618 0.13698 0.0
C537 C 0.93332 0.23716 0.10878 0.0
C538 C 0.97454 0.22623 0.10361 0.0
C539 C 0.04964 0.23491 0.11251 0.0
C540 C 0.08331 0.2539 0.12689 0.0
C541 C 1.00805 0.24562 0.11757 0.0
C542 C 0.07417 0.28423 0.14624 0.0
C543 C 0.03303 0.29529 0.15115 0.0
H544 H 0.73803 0.07113 0.58626 0.0
H545 H 0.83311 0.11241 0.64264 0.0
H546 H 0.84937 0.04028 0.65154 0.0
H547 H 0.83691 0.96551 0.64331 0.0
H548 H 0.74454 0.92502 0.58487 0.0
H549 H 0.72727 0.99694 0.5769 0.0
C550 C 0.76278 0.0648 0.60023 0.0
C551 C 0.78432 0.09793 0.61356 0.0
C552 C 0.77249 0.02312 0.60502 0.0
C553 C 0.81557 0.08814 0.63211 0.0
C554 C 0.82511 0.04667 0.63716 0.0
C555 C 0.8133 0.97209 0.62859 0.0
C556 C 0.79217 0.93912 0.61481 0.0
C557 C 0.80382 1.01389 0.6237 0.0
C558 C 0.76116 0.94909 0.59615 0.0
C559 C 0.75134 0.99048 0.59141 0.0
H560 H 0.96729 0.73016 0.11992 0.0
H561 H 0.98986 0.86016 0.13814 0.0
H562 H 0.06489 0.85004 0.1404 0.0
H563 H 0.12498 0.80389 0.1378 0.0
H564 H 0.10203 0.67408 0.11899 0.0
H565 H 0.02724 0.68444 0.11652 0.0
C566 C 0.98859 0.75618 0.12459 0.0
C567 C 0.97261 0.79588 0.12878 0.0
C568 C 0.03208 0.75021 0.12574 0.0
C569 C 1.00102 0.82932 0.13448 0.0
C570 C 0.04411 0.82355 0.13587 0.0
C571 C 0.10368 0.77801 0.13288 0.0
C572 C 0.1195 0.73815 0.12887 0.0
C573 C 0.06017 0.78415 0.13145 0.0
C574 C 0.09103 0.70496 0.12269 0.0
C575 C 0.04804 0.71086 0.12116 0.0
H576 H 0.32927 0.96544 0.61447 0.0
H577 H 0.20042 0.92123 0.62001 0.0
H578 H 0.17836 0.99272 0.62406 0.0
H579 H 0.19539 0.06781 0.6254 0.0
H580 H 0.32417 0.11217 0.61998 0.0
H581 H 0.34628 0.04066 0.61559 0.0
C582 C 0.29631 0.97131 0.6163 0.0
C583 C 0.26664 0.93763 0.61692 0.0
C584 C 0.28374 1.01265 0.61839 0.0
C585 C 0.22411 0.94619 0.61982 0.0
C586 C 0.21139 0.9872 0.62194 0.0
C587 C 0.22834 0.06196 0.62348 0.0
C588 C 0.25799 0.09563 0.62307 0.0
C589 C 0.24092 0.02067 0.62126 0.0
C590 C 0.30052 0.08716 0.62003 0.0
C591 C 0.31325 0.04615 0.61772 0.0
H592 H 0.97296 0.84373 0.89243 0.0
H593 H 0.93231 0.71431 0.88576 0.0
H594 H 1.00433 0.69373 0.88841 0.0
H595 H 0.07914 0.71204 0.89191 0.0
H596 H 0.12057 0.84106 0.89715 0.0
H597 H 0.0481 0.86218 0.89486 0.0
C598 C 0.97965 0.81103 0.89131 0.0
C599 C 0.94664 0.78079 0.88908 0.0
C600 C 0.02149 0.79925 0.89233 0.0
C601 C 0.95649 0.73848 0.88801 0.0
C602 C 0.99791 0.72656 0.88928 0.0
C603 C 0.07233 0.74477 0.89275 0.0
C604 C 0.10531 0.77489 0.89483 0.0
C605 C 0.03063 0.75664 0.89145 0.0
C606 C 0.09589 0.81725 0.89532 0.0
C607 C 0.05441 0.82931 0.89419 0.0
H608 H 0.3041 0.94146 0.3462 0.0
H609 H 0.23862 0.90107 0.4181 0.0
H610 H 0.22113 0.97308 0.42774 0.0
H611 H 0.22775 0.04817 0.41687 0.0
H612 H 0.29238 0.0881 0.34451 0.0
H613 H 0.30659 1.01584 0.33375 0.0
C614 C 0.28601 0.94846 0.36397 0.0
C615 C 0.27306 0.91596 0.38157 0.0
C616 C 0.27589 0.98991 0.36926 0.0
C617 C 0.24885 0.92544 0.40422 0.0
C618 C 0.23903 0.96665 0.40978 0.0
C619 C 0.24477 0.04097 0.39869 0.0
C620 C 0.25912 0.07363 0.3816 0.0
C621 C 0.25286 0.99922 0.39263 0.0
C622 C 0.28063 0.06371 0.3579 0.0
C623 C 0.28906 0.02235 0.35184 0.0
H624 H 0.94806 0.29548 0.92392 0.0
H625 H 0.90909 0.18794 0.87719 0.0
H626 H 0.98218 0.17271 0.86879 0.0
H627 H 0.05725 0.18949 0.87535 0.0
H628 H 0.09514 0.29552 0.92391 0.0
H629 H 0.0223 0.31159 0.93099 0.0
C630 C 0.95534 0.26835 0.91218 0.0
C631 C 0.92281 0.24275 0.90143 0.0
C632 C 0.99737 0.25953 0.90769 0.0
C633 C 0.93323 0.20842 0.88561 0.0
C634 C 0.97512 0.19954 0.88091 0.0
C635 C 0.04966 0.21589 0.88769 0.0
C636 C 0.08198 0.24124 0.89901 0.0
C637 C 1.00746 0.22478 0.89198 0.0
C638 C 0.07126 0.27576 0.91457 0.0
C639 C 0.02947 0.28486 0.9188 0.0
H640 H 0.71032 0.11309 0.38411 0.0
H641 H 0.83951 0.15421 0.37424 0.0
H642 H 0.86043 0.08211 0.37514 0.0
H643 H 0.84213 1.00733 0.37779 0.0
H644 H 0.71303 0.96599 0.38751 0.0
H645 H 0.69198 0.03818 0.38663 0.0
C646 C 0.74304 0.10643 0.38191 0.0
C647 C 0.77318 0.13946 0.37911 0.0
C648 C 0.7549 0.06472 0.38213 0.0
C649 C 0.81554 0.12983 0.37679 0.0
C650 C 0.82756 0.08844 0.37709 0.0
C651 C 0.8094 1.01396 0.37997 0.0
C652 C 0.77929 0.98093 0.38277 0.0
C653 C 0.79751 0.05564 0.3797 0.0
C654 C 0.73692 0.99048 0.385 0.0
C655 C 0.72486 0.03188 0.3847 0.0
H656 H 0.32959 0.43115 0.10097 0.0
H657 H 0.20004 0.43716 0.07905 0.0
H658 H 0.20913 0.51255 0.07161 0.0
H659 H 0.25128 0.57744 0.07903 0.0
H660 H 0.38041 0.5707 0.10245 0.0
H661 H 0.37448 0.49473 0.1013 0.0
C662 C 0.30371 0.44898 0.0939 0.0
C663 C 0.26419 0.42917 0.09076 0.0
C664 C 0.30906 0.49208 0.09027 0.0
C665 C 0.23073 0.45206 0.08151 0.0
C666 C 0.2359 0.49509 0.07749 0.0
C667 C 0.27846 0.55934 0.083 0.0
C668 C 0.31609 0.57954 0.09117 0.0
C669 C 0.27453 0.51563 0.08287 0.0
C670 C 0.35098 0.55573 0.09649 0.0
C671 C 0.34758 0.51235 0.09589 0.0
H672 H 0.45029 0.30942 0.66777 0.0
H673 H 0.43901 0.17566 0.66249 0.0
H674 H 0.5146 0.17118 0.66871 0.0
H675 H 0.58435 0.20642 0.66768 0.0
H676 H 0.59565 0.34024 0.6724 0.0
H677 H 0.51947 0.34389 0.67507 0.0
C678 C 0.46444 0.27932 0.66873 0.0
C679 C 0.43966 0.24291 0.66444 0.0
C680 C 0.50777 0.27716 0.67202 0.0
C681 C 0.45779 0.20397 0.6658 0.0
C682 C 0.50092 0.20148 0.66916 0.0
C683 C 0.56999 0.2362 0.67014 0.0
C684 C 0.59515 0.27305 0.66964 0.0
C685 C 0.52633 0.23797 0.67115 0.0
C686 C 0.57666 0.31157 0.67288 0.0
C687 C 0.53318 0.31363 0.67411 0.0
H688 H 0.76472 0.44544 0.14397 0.0
H689 H 0.74599 0.43748 0.05831 0.0
H690 H 0.76686 0.51168 0.0537 0.0
H691 H 0.78894 0.57914 0.0748 0.0
H692 H 0.80037 0.58463 0.1614 0.0
H693 H 0.78384 0.51091 0.16467 0.0
C694 C 0.76418 0.45993 0.12426 0.0
C695 C 0.75271 0.43619 0.1016 0.0
C696 C 0.77542 0.50214 0.1219 0.0
C697 C 0.7543 0.45521 0.07612 0.0
C698 C 0.76616 0.49758 0.07352 0.0
C699 C 0.78769 0.56424 0.09438 0.0
C700 C 0.79696 0.5877 0.11771 0.0
C701 C 0.77655 0.52147 0.09638 0.0
C702 C 0.79512 0.56758 0.1429 0.0
C703 C 0.78503 0.5253 0.14493 0.0
H704 H 0.59191 0.73274 0.65942 0.0
H705 H 0.59624 0.86653 0.65374 0.0
H706 H 0.52046 0.86719 0.66168 0.0
H707 H 0.45219 0.82835 0.66294 0.0
H708 H 0.44889 0.69418 0.66681 0.0
H709 H 0.52517 0.69478 0.66745 0.0
C710 C 0.57621 0.76201 0.66059 0.0
C711 C 0.599 0.79949 0.65586 0.0
C712 C 0.53293 0.76193 0.66465 0.0
C713 C 0.57893 0.8374 0.65741 0.0
C714 C 0.53571 0.83768 0.66177 0.0
C715 C 0.46827 0.79941 0.66482 0.0
C716 C 0.44521 0.76123 0.66461 0.0
C717 C 0.51219 0.8 0.66442 0.0
C718 C 0.46622 0.72385 0.66675 0.0
C719 C 0.50974 0.72418 0.66698 0.0
H720 H 0.29555 0.44866 0.84619 0.0
H721 H 0.16554 0.45103 0.86907 0.0
H722 H 0.16736 0.52682 0.86351 0.0
H723 H 0.2081 0.59272 0.85665 0.0
H724 H 0.33899 0.58983 0.83656 0.0
H725 H 0.33449 0.51361 0.83566 0.0
C726 C 0.26731 0.4656 0.84932 0.0
C727 C 0.23045 0.44434 0.85803 0.0
C728 C 0.26883 0.50901 0.84652 0.0
C729 C 0.19437 0.46684 0.86259 0.0
C730 C 0.19538 0.51008 0.85934 0.0
C731 C 0.23522 0.57524 0.85133 0.0
C732 C 0.27373 0.59643 0.84645 0.0
C733 C 0.2327 0.53156 0.85191 0.0
C734 C 0.30905 0.57383 0.84018 0.0
C735 C 0.30651 0.53041 0.83987 0.0
H736 H 0.59525 0.28868 0.37006 0.0
H737 H 0.59385 0.33636 0.45096 0.0
H738 H 0.51895 0.31704 0.45481 0.0
H739 H 0.45374 0.28772 0.43428 0.0
H740 H 0.45752 0.24236 0.35262 0.0
H741 H 0.5319 0.25944 0.35007 0.0
C742 C 0.57845 0.29545 0.38843 0.0
C743 C 0.5996 0.31476 0.40998 0.0
C744 C 0.53599 0.28429 0.39042 0.0
C745 C 0.57792 0.32188 0.43403 0.0
C746 C 0.53524 0.31086 0.43619 0.0
C747 C 0.47091 0.28164 0.41596 0.0
C748 C 0.45007 0.26338 0.39379 0.0
C749 C 0.51389 0.29223 0.4144 0.0
C750 C 0.47282 0.25544 0.37023 0.0
C751 C 0.51533 0.2656 0.3686 0.0
H752 H 0.72841 0.57762 0.84566 0.0
H753 H 0.85697 0.57906 0.87156 0.0
H754 H 0.85618 0.50316 0.86972 0.0
H755 H 0.81666 0.4367 0.86589 0.0
H756 H 0.68795 0.43436 0.84092 0.0
H757 H 0.69139 0.51051 0.83629 0.0
C758 C 0.75657 0.56141 0.85025 0.0
C759 C 0.79256 0.58394 0.85911 0.0
C760 C 0.75579 0.5177 0.84933 0.0
C761 C 0.82866 0.56238 0.86521 0.0
C762 C 0.82828 0.51903 0.86407 0.0
C763 C 0.78964 0.45294 0.85894 0.0
C764 C 0.75201 0.43037 0.854 0.0
C765 C 0.79167 0.49642 0.85697 0.0
C766 C 0.71724 0.45132 0.84476 0.0
C767 C 0.71913 0.49477 0.84237 0.0
H768 H 0.44367 0.80425 0.42192 0.0
H769 H 0.46206 0.6726 0.41496 0.0
H770 H 0.53786 0.68507 0.41839 0.0
H771 H 0.59863 0.73426 0.41747 0.0
H772 H 0.58002 0.8663 0.41991 0.0
H773 H 0.50443 0.85311 0.42445 0.0
C774 C 0.46432 0.77829 0.42191 0.0
C775 C 0.44763 0.73758 0.41839 0.0
C776 C 0.5077 0.78592 0.42277 0.0
C777 C 0.47449 0.70414 0.41775 0.0
C778 C 0.51769 0.71131 0.41959 0.0
C779 C 0.578 0.76003 0.41969 0.0
C780 C 0.59455 0.80115 0.41848 0.0
C781 C 0.53466 0.75217 0.42126 0.0
C782 C 0.5677 0.83443 0.4208 0.0
C783 C 0.52461 0.82687 0.42332 0.0
H784 H 0.24521 0.20116 0.05538 0.0
H785 H 0.3675 0.26265 0.05283 0.0
H786 H 0.36869 0.2573 1.00399 0.0
H787 H 0.33024 0.2459 0.9619 0.0
H788 H 0.20683 0.18789 0.96379 0.0
H789 H 0.21084 0.1804 0.01283 0.0
C790 C 0.27258 0.21229 0.04418 0.0
C791 C 0.306 0.23275 0.05771 0.0
C792 C 0.27265 0.21003 0.0159 0.0
C793 C 0.34116 0.24721 0.04288 0.0
C794 C 0.34186 0.24426 0.01492 0.0
C795 C 0.30498 0.23021 0.97307 0.0
C796 C 0.26861 0.21682 0.95953 0.0
C797 C 0.30712 0.22728 1.00118 0.0
C798 C 0.23543 0.19758 0.97397 0.0
C799 C 0.23758 0.19377 1.00198 0.0
H800 H 0.80502 0.33855 0.46203 0.0
H801 H 0.88355 0.23322 0.45505 0.0
H802 H 0.88405 0.22576 0.5042 0.0
H803 H 0.85502 0.24489 0.54906 0.0
H804 H 0.77531 0.34966 0.5542 0.0
H805 H 0.78293 0.36203 0.5061 0.0
C806 C 0.82265 0.31417 0.47124 0.0
C807 C 0.84375 0.28615 0.4549 0.0
C808 C 0.82255 0.31 0.49931 0.0
C809 C 0.86696 0.25517 0.46719 0.0
C810 C 0.8671 0.25081 0.4953 0.0
C811 C 0.84043 0.27106 0.53966 0.0
C812 C 0.81463 0.29637 0.55509 0.0
C813 C 0.84413 0.27746 0.51159 0.0
C814 C 0.79525 0.32977 0.54267 0.0
C815 C 0.79941 0.33676 0.51515 0.0
H816 H 0.82441 0.78928 0.96601 0.0
H817 H 0.71232 0.85442 0.95001 0.0
H818 H 0.7063 0.87203 0.99805 0.0
H819 H 0.72922 0.86067 0.04561 0.0
H820 H 0.84132 0.7934 0.05927 0.0
H821 H 0.85134 0.78526 0.01126 0.0
C822 C 0.79904 0.80798 0.97301 0.0
C823 C 0.76867 0.82028 0.95481 0.0
C824 C 0.79565 0.81723 1.00033 0.0
C825 C 0.73615 0.84482 0.96383 0.0
C826 C 0.73258 0.85452 0.99128 0.0
C827 C 0.75613 0.84499 0.03792 0.0
C828 C 0.78406 0.82699 0.05595 0.0
C829 C 0.76153 0.83974 0.00991 0.0
C830 C 0.81893 0.8068 0.0458 0.0
C831 C 0.8248 0.80215 0.01834 0.0
H832 H 0.24053 0.71286 0.45727 0.0
H833 H 0.16232 0.81848 0.4512 0.0
H834 H 0.16155 0.82487 0.50045 0.0
H835 H 0.18979 0.80414 0.54533 0.0
H836 H 0.2689 0.69868 0.54914 0.0
H837 H 0.26223 0.68831 0.50099 0.0
C838 C 0.22287 0.73706 0.46669 0.0
C839 C 0.20188 0.76538 0.45057 0.0
C840 C 0.22289 0.74066 0.49478 0.0
C841 C 0.17873 0.79619 0.46315 0.0
C842 C 0.1785 0.79998 0.49133 0.0
C843 C 0.20468 0.77843 0.5356 0.0
C844 C 0.23009 0.75239 0.55078 0.0
C845 C 0.20132 0.77293 0.50741 0.0
C846 C 0.24953 0.71938 0.53789 0.0
C847 C 0.24581 0.71341 0.51031 0.0
H848 H 0.23438 0.84412 0.96457 0.0
H849 H 0.34847 0.77759 0.95942 0.0
H850 H 0.35585 0.77986 0.00806 0.0
H851 H 0.32608 0.79298 0.05216 0.0
H852 H 0.21192 0.85877 0.05915 0.0
H853 H 0.2084 0.86488 0.00997 0.0
C854 C 0.26138 0.8313 0.97415 0.0
C855 C 0.29086 0.81067 0.95848 0.0
C856 C 0.26502 0.83188 1.0025 0.0
C857 C 0.32538 0.79355 0.97111 0.0
C858 C 0.32953 0.79461 0.99894 0.0
C859 C 0.30061 0.80906 0.04295 0.0
C860 C 0.26902 0.82488 0.05924 0.0
C861 C 0.29886 0.81237 0.01486 0.0
C862 C 0.23661 0.84623 0.04703 0.0
C863 C 0.23453 0.84958 0.01889 0.0
H864 H 0.16057 0.22851 0.46431 0.0
H865 H 0.26079 0.31785 0.44516 0.0
H866 H 0.27346 0.32967 0.49266 0.0
H867 H 0.26247 0.30831 0.5393 0.0
H868 H 0.16176 0.2213 0.56007 0.0
H869 H 0.14247 0.2151 0.51235 0.0
C870 C 0.18447 0.25127 0.47055 0.0
C871 C 0.21026 0.27157 0.45112 0.0
C872 C 0.19184 0.25796 0.49817 0.0
C873 C 0.24096 0.30117 0.45961 0.0
C874 C 0.24834 0.30799 0.48681 0.0
C875 C 0.23582 0.28859 0.53337 0.0
C876 C 0.21373 0.265 0.55286 0.0
C877 C 0.22503 0.28548 0.50619 0.0
C878 C 0.17905 0.23979 0.54521 0.0
C879 C 0.16826 0.23611 0.51798 0.0
H880 H 0.67677 0.19611 0.04994 0.0
H881 H 0.80842 0.21753 0.06507 0.0
H882 H 0.82348 0.20936 0.01713 0.0
H883 H 0.7977 0.20801 0.97025 0.0
H884 H 0.66583 0.19046 0.95549 0.0
H885 H 0.65225 0.18446 1.00385 0.0
C886 C 0.70887 0.19812 0.04284 0.0
C887 C 0.74134 0.208 0.06102 0.0
C888 C 0.71717 0.19418 0.01522 0.0
C889 C 0.78281 0.21001 0.05154 0.0
C890 C 0.79141 0.20562 0.02407 0.0
C891 C 0.76628 0.20114 0.97772 0.0
C892 C 0.73279 0.1988 0.95953 0.0
C893 C 0.75869 0.19927 1.00561 0.0
C894 C 0.69202 0.19134 0.96923 0.0
C895 C 0.68427 0.18847 0.99686 0.0
H896 H 0.8646 0.73175 0.45719 0.0
H897 H 0.82194 0.85665 0.44839 0.0
H898 H 0.81615 0.86357 0.49691 0.0
H899 H 0.81213 0.83054 0.54097 0.0
H900 H 0.85319 0.70572 0.55153 0.0
H901 H 0.87119 0.70217 0.50345 0.0
C902 C 0.85541 0.7608 0.46609 0.0
C903 C 0.84352 0.79361 0.44939 0.0
C904 C 0.85119 0.76427 0.49425 0.0
C905 C 0.83112 0.83101 0.46096 0.0
C906 C 0.82757 0.83493 0.48867 0.0
C907 C 0.82602 0.80298 0.53278 0.0
C908 C 0.8312 0.7684 0.5494 0.0
C909 C 0.8358 0.80122 0.50538 0.0
C910 C 0.84927 0.73279 0.53891 0.0
C911 C 0.85919 0.7307 0.51143 0.0
H912 H 0.55847 0.1809 0.13685 0.0
H913 H 0.59579 0.30152 0.16857 0.0
H914 H 0.52277 0.31911 0.17302 0.0
H915 H 0.44829 0.30044 0.16842 0.0
H916 H 0.40957 0.18028 0.13683 0.0
H917 H 0.4829 0.16243 0.13168 0.0
C918 C 0.55061 0.21093 0.14486 0.0
C919 C 0.58289 0.23984 0.15231 0.0
C920 C 0.5082 0.22098 0.14737 0.0
C921 C 0.57191 0.27885 0.16231 0.0
C922 C 0.53003 0.28888 0.16503 0.0
C923 C 0.45576 0.27015 0.16065 0.0
C924 C 0.42322 0.24162 0.1533 0.0
C925 C 0.49793 0.26019 0.15771 0.0
C926 C 0.43379 0.20293 0.14257 0.0
C927 C 0.4758 0.19265 0.13974 0.0
H928 H 0.83199 0.46742 0.64585 0.0
H929 H 0.71235 0.42331 0.61493 0.0
H930 H 0.69443 0.49473 0.60529 0.0
H931 H 0.71256 0.56994 0.60537 0.0
H932 H 0.83138 0.61389 0.63712 0.0
H933 H 0.84903 0.54235 0.64745 0.0
C934 C 0.80172 0.47302 0.63731 0.0
C935 C 0.77379 0.4392 0.63111 0.0
C936 C 0.79125 0.51443 0.63209 0.0
C937 C 0.73497 0.44805 0.61966 0.0
C938 C 0.72449 0.48914 0.61425 0.0
C939 C 0.74241 0.5639 0.61445 0.0
C940 C 0.77064 0.59749 0.62031 0.0
C941 C 0.75245 0.52256 0.62025 0.0
C942 C 0.80885 0.58894 0.63258 0.0
C943 C 0.81909 0.5479 0.63833 0.0
H944 H 0.60022 0.72597 0.16867 0.0
H945 H 0.63876 0.81388 0.10667 0.0
H946 H 0.56592 0.83005 0.09921 0.0
H947 H 0.49068 0.81842 0.10948 0.0
H948 H 0.45256 0.7296 0.17092 0.0
H949 H 0.52552 0.71403 0.1787 0.0
C950 C 0.59312 0.74843 0.1533 0.0
C951 C 0.62595 0.76845 0.13827 0.0
C952 C 0.55078 0.75733 0.1488 0.0
C953 C 0.61498 0.79803 0.11884 0.0
C954 C 0.573 0.80721 0.11441 0.0
C955 C 0.49814 0.79588 0.12475 0.0
C956 C 0.46546 0.77532 0.13957 0.0
C957 C 0.54055 0.78701 0.12922 0.0
C958 C 0.47642 0.74569 0.15893 0.0
C959 C 0.5184 0.73691 0.16352 0.0
H960 H 0.3154 0.4657 0.60316 0.0
H961 H 0.20363 0.42142 0.64466 0.0
H962 H 0.18519 0.49345 0.65335 0.0
H963 H 0.19969 0.56932 0.64741 0.0
H964 H 0.30981 0.61136 0.60292 0.0
H965 H 0.3296 0.53999 0.59709 0.0
C966 C 0.2867 0.47154 0.61386 0.0
C967 C 0.26073 0.43784 0.62287 0.0
C968 C 0.2759 0.51287 0.61826 0.0
C969 C 0.22439 0.44648 0.63751 0.0
C970 C 0.21367 0.48777 0.64233 0.0
C971 C 0.22789 0.56297 0.63631 0.0
C972 C 0.25317 0.59632 0.62582 0.0
C973 C 0.23896 0.52129 0.63248 0.0
C974 C 0.28991 0.587 0.61177 0.0
C975 C 0.30123 0.54591 0.60819 0.0
H976 H 0.57607 0.71135 0.87663 0.0
H977 H 0.62202 0.83786 0.8883 0.0
H978 H 0.55069 0.86224 0.88529 0.0
H979 H 0.4747 0.84684 0.88174 0.0
H980 H 0.42996 0.71984 0.86906 0.0
H981 H 0.50111 0.69648 0.87066 0.0
C982 C 0.57047 0.74425 0.87857 0.0
C983 C 0.60432 0.77267 0.88289 0.0
C984 C 0.52944 0.75794 0.87695 0.0
C985 C 0.5966 0.81534 0.88479 0.0
C986 C 0.55575 0.82925 0.88326 0.0
C987 C 0.48044 0.81413 0.87904 0.0
C988 C 0.44653 0.7852 0.87574 0.0
C989 C 0.52182 0.80075 0.87964 0.0
C990 C 0.45497 0.74285 0.87237 0.0
C991 C 0.49585 0.72938 0.87305 0.0
H992 H 0.31255 0.44077 0.34197 0.0
H993 H 0.20005 0.39958 0.38413 0.0
H994 H 0.18403 0.47173 0.39308 0.0
H995 H 0.20134 0.54663 0.38876 0.0
H996 H 0.31202 0.58779 0.34467 0.0
H997 H 0.32906 0.51563 0.33683 0.0
C998 C 0.28423 0.44722 0.35288 0.0
C999 C 0.25765 0.41399 0.36225 0.0
C1000 C 0.2748 0.48908 0.35774 0.0
C1001 C 0.22154 0.42388 0.37681 0.0
C1002 C 0.21216 0.46539 0.38186 0.0
C1003 C 0.22901 0.54015 0.37718 0.0
C1004 C 0.25517 0.57338 0.36736 0.0
C1005 C 0.23848 0.49828 0.37236 0.0
C1006 C 0.29133 0.5635 0.35285 0.0
C1007 C 0.30105 0.52197 0.34817 0.0
H1008 H 0.45339 0.32648 0.88884 0.0
H1009 H 0.40602 0.19923 0.88199 0.0
H1010 H 0.4771 0.17576 0.87749 0.0
H1011 H 0.55293 0.19084 0.87691 0.0
H1012 H 0.60044 0.31778 0.88456 0.0
H1013 H 0.52914 0.34158 0.88823 0.0
C1014 C 0.4584 0.29354 0.8866 0.0
C1015 C 0.42388 0.26482 0.88584 0.0
C1016 C 0.49957 0.28006 0.88444 0.0
C1017 C 0.43151 0.22232 0.88235 0.0
C1018 C 0.47235 0.20874 0.87998 0.0
C1019 C 0.54779 0.22377 0.87912 0.0
C1020 C 0.58227 0.25242 0.88044 0.0
C1021 C 0.50662 0.23729 0.88112 0.0
C1022 C 0.57473 0.29492 0.88381 0.0
C1023 C 0.53387 0.3086 0.88573 0.0
H1024 H 0.83635 0.50765 0.40255 0.0
H1025 H 0.75695 0.46611 0.33724 0.0
H1026 H 0.73721 0.53756 0.32916 0.0
H1027 H 0.74204 0.61186 0.34059 0.0
H1028 H 0.82083 0.65376 0.4061 0.0
H1029 H 0.84205 0.5825 0.41354 0.0
C1030 C 0.81509 0.51415 0.38635 0.0
C1031 C 0.79812 0.48107 0.37064 0.0
C1032 C 0.80385 0.55558 0.38171 0.0
C1033 C 0.77011 0.49048 0.34998 0.0
C1034 C 0.75895 0.53152 0.34521 0.0
C1035 C 0.76361 0.60557 0.35666 0.0
C1036 C 0.77956 0.63859 0.37279 0.0
C1037 C 0.7754 0.56431 0.36104 0.0
C1038 C 0.80823 0.62942 0.39313 0.0
C1039 C 0.82022 0.58847 0.39754 0.0
H1040 H 0.25838 0.17136 0.2974 0.0
H1041 H 0.16945 0.26707 0.30874 0.0
H1042 H 0.15783 0.26985 0.26012 0.0
H1043 H 0.18282 0.25387 0.21448 0.0
H1044 H 0.27232 0.15858 0.20325 0.0
H1045 H 0.27343 0.14614 0.25183 0.0
C1046 C 0.23554 0.19195 0.28924 0.0
C1047 C 0.2151 0.21935 0.30645 0.0
C1048 C 0.22965 0.19377 0.26133 0.0
C1049 C 0.18536 0.24563 0.29583 0.0
C1050 C 0.17911 0.24752 0.26803 0.0
C1051 C 0.20177 0.22966 0.22266 0.0
C1052 C 0.22798 0.20756 0.20547 0.0
C1053 C 0.20254 0.2231 0.25057 0.0
C1054 C 0.25196 0.17595 0.21613 0.0
C1055 C 0.25283 0.1691 0.2439 0.0
H1056 H 0.83924 0.27705 0.79528 0.0
H1057 H 0.74524 0.18182 0.81538 0.0
H1058 H 0.73661 0.16524 0.76785 0.0
H1059 H 0.7507 0.18223 0.72046 0.0
H1060 H 0.84393 0.27801 0.70014 0.0
H1061 H 0.85818 0.28943 0.74779 0.0
C1062 C 0.81724 0.25227 0.78934 0.0
C1063 C 0.79265 0.23104 0.80902 0.0
C1064 C 0.81208 0.24311 0.76185 0.0
C1065 C 0.76451 0.19885 0.80081 0.0
C1066 C 0.75943 0.1894 0.77356 0.0
C1067 C 0.7746 0.20523 0.72637 0.0
C1068 C 0.79583 0.22955 0.70659 0.0
C1069 C 0.7823 0.212 0.75387 0.0
C1070 C 0.82689 0.25895 0.71478 0.0
C1071 C 0.83496 0.26564 0.74211 0.0
H1072 H 0.85629 0.78803 0.21418 0.0
H1073 H 0.75089 0.86385 0.19885 0.0
H1074 H 0.74385 0.87714 0.24722 0.0
H1075 H 0.76153 0.85831 0.29375 0.0
H1076 H 0.86651 0.78157 0.3088 0.0
H1077 H 0.8803 0.77771 0.26042 0.0
C1078 C 0.83235 0.80826 0.22143 0.0
C1079 C 0.8038 0.82466 0.20319 0.0
C1080 C 0.82819 0.815 0.24911 0.0
C1081 C 0.77324 0.85112 0.21259 0.0
C1082 C 0.76901 0.85829 0.24022 0.0
C1083 C 0.78782 0.84124 0.28643 0.0
C1084 C 0.8126 0.81958 0.3047 0.0
C1085 C 0.7953 0.83901 0.25867 0.0
C1086 C 0.84696 0.79826 0.29509 0.0
C1087 C 0.85469 0.79593 0.26746 0.0
H1088 H 0.21193 0.76744 0.8033 0.0
H1089 H 0.31137 0.86082 0.79512 0.0
H1090 H 0.29969 0.86406 0.7466 0.0
H1091 H 0.27165 0.82948 0.70602 0.0
H1092 H 0.18099 0.72761 0.71427 0.0
H1093 H 0.17777 0.73885 0.76284 0.0
C1094 C 0.22994 0.78958 0.79103 0.0
C1095 C 0.26219 0.81421 0.8028 0.0
C1096 C 0.22491 0.78911 0.76289 0.0
C1097 C 0.28592 0.84209 0.78653 0.0
C1098 C 0.27957 0.84353 0.75872 0.0
C1099 C 0.25014 0.81077 0.71834 0.0
C1100 C 0.22633 0.77794 0.70657 0.0
C1101 C 0.25065 0.81563 0.74652 0.0
C1102 C 0.19916 0.7534 0.72288 0.0
C1103 C 0.19771 0.75954 0.7507 0.0
H1104 H 0.84764 0.78157 0.78706 0.0
H1105 H 0.71672 0.78234 0.80799 0.0
H1106 H 0.69809 0.76796 0.76115 0.0
H1107 H 0.71929 0.75059 0.71493 0.0
H1108 H 0.85031 0.75099 0.69424 0.0
H1109 H 0.86874 0.76865 0.74062 0.0
C1110 C 0.81498 0.77914 0.78134 0.0
C1111 C 0.78361 0.78278 0.801 0.0
C1112 C 0.8046 0.77011 0.7546 0.0
C1113 C 0.74147 0.77995 0.79322 0.0
C1114 C 0.73082 0.77121 0.76651 0.0
C1115 C 0.75187 0.75406 0.72069 0.0
C1116 C 0.78351 0.74858 0.70142 0.0
C1117 C 0.76215 0.7652 0.7472 0.0
C1118 C 0.82553 0.7545 0.70887 0.0
C1119 C 0.83602 0.76482 0.73529 0.0
H1120 H 0.22304 0.7422 0.20747 0.0
H1121 H 0.32421 0.83457 0.20872 0.0
H1122 H 0.31908 0.83851 0.2579 0.0
H1123 H 0.29208 0.80827 0.30053 0.0
H1124 H 0.18973 0.7172 0.29951 0.0
H1125 H 0.1882 0.72048 0.25015 0.0
C1126 C 0.24307 0.76403 0.21857 0.0
C1127 C 0.27388 0.78823 0.20473 0.0
C1128 C 0.23982 0.766 0.24676 0.0
C1129 C 0.3 0.81615 0.21906 0.0
C1130 C 0.29726 0.81808 0.24714 0.0
C1131 C 0.26869 0.79006 0.28944 0.0
C1132 C 0.24099 0.76253 0.30342 0.0
C1133 C 0.2682 0.79217 0.26121 0.0
C1134 C 0.21094 0.73889 0.28907 0.0
C1135 C 0.21041 0.74051 0.26089 0.0
H1136 H 0.31185 0.28435 0.72045 0.0
H1137 H 0.18172 0.28029 0.69822 0.0
H1138 H 0.1619 0.25987 0.74413 0.0
H1139 H 0.18153 0.24552 0.79068 0.0
H1140 H 0.3118 0.24789 0.81285 0.0
H1141 H 0.33173 0.26531 0.76653 0.0
C1142 C 0.27912 0.27948 0.72578 0.0
C1143 C 0.24813 0.28479 0.70622 0.0
C1144 C 0.26811 0.26667 0.75198 0.0
C1145 C 0.20599 0.277 0.71309 0.0
C1146 C 0.19472 0.26509 0.73925 0.0
C1147 C 0.21435 0.24926 0.78535 0.0
C1148 C 0.2451 0.24565 0.80529 0.0
C1149 C 0.22552 0.25996 0.75884 0.0
C1150 C 0.28747 0.25025 0.79792 0.0
C1151 C 0.29888 0.26072 0.7715 0.0
H1152 H 0.78764 0.22909 0.31053 0.0
H1153 H 0.84622 0.35099 0.29976 0.0
H1154 H 0.84368 0.34247 0.25087 0.0
H1155 H 0.81476 0.30502 0.21181 0.0
H1156 H 0.75519 0.18336 0.22178 0.0
H1157 H 0.76845 0.18653 0.27044 0.0
C1158 C 0.80136 0.25294 0.29736 0.0
C1159 C 0.81786 0.29032 0.30851 0.0
C1160 C 0.79874 0.24811 0.26927 0.0
C1161 C 0.83439 0.32167 0.2915 0.0
C1162 C 0.83238 0.31698 0.2636 0.0
C1163 C 0.80542 0.27885 0.22462 0.0
C1164 C 0.78358 0.24421 0.21347 0.0
C1165 C 0.8131 0.28109 0.25234 0.0
C1166 C 0.77203 0.21027 0.23003 0.0
C1167 C 0.77943 0.21226 0.25781 0.0
loop_
_geom_bond_atom_site_label_1
_geom_bond_atom_site_label_2
_geom_bond_distance
_geom_bond_site_symmetry_2
_ccdc_geom_bond_type
Co0 N4 2.148 . S
Co0 N10 2.128 . S
Co0 N20 2.194 . S
Co0 O25 2.351 . S
Co0 O26 2.155 . S
Co0 O27 2.096 . S
C1 N4 1.301 . S
C1 N5 1.328 . S
C1 H6 0.930 . S
C2 C3 1.333 . S
C2 N4 1.317 . S
C2 H7 0.930 . S
C3 C2 1.333 . S
C3 N5 1.350 . S
C3 H29 0.931 . S
N4 Co0 2.148 . S
N4 C1 1.301 . S
N4 C2 1.317 . S
N5 C1 1.328 . S
N5 C3 1.350 . S
H6 C1 0.930 . S
H7 C2 0.930 . S
C8 O9 1.224 . S
C8 O27 1.247 . S
O9 C8 1.224 . S
N10 Co0 2.128 . S
N10 C11 1.355 . S
N10 C13 1.311 . S
C11 N10 1.355 . S
C11 C12 1.363 . S
C11 H23 0.929 . S
C12 C11 1.363 . S
C12 N14 1.375 . S
C12 H30 0.931 . S
C13 N10 1.311 . S
C13 N14 1.347 . S
C13 H24 0.929 . S
N14 C12 1.375 . S
N14 C13 1.347 . S
C15 C18 1.365 . S
C15 N20 1.328 . S
C15 H21 0.929 . S
C16 C17 1.362 . S
C16 C19 1.378 . S
C16 H31 0.929 . S
C17 C16 1.362 . S
C17 C18 1.366 . S
C18 C15 1.365 . S
C18 C17 1.366 . S
C18 H32 0.930 . S
C19 C16 1.378 . S
C19 N20 1.315 . S
C19 H22 0.930 . S
N20 Co0 2.194 . S
N20 C15 1.328 . S
N20 C19 1.315 . S
H21 C15 0.929 . S
H22 C19 0.930 . S
H23 C11 0.929 . S
H24 C13 0.929 . S
O25 Co0 2.351 . S
O25 C28 1.244 . S
O26 Co0 2.155 . S
O26 C28 1.240 . S
O27 Co0 2.096 . S
O27 C8 1.247 . S
C28 O25 1.244 . S
C28 O26 1.240 . S
H29 C3 0.931 . S
H30 C12 0.931 . S
H31 C16 0.929 . S
H32 C18 0.930 . S
Co33 N37 2.148 . S
Co33 N43 2.128 . S
Co33 N53 2.194 . S
Co33 O58 2.351 . S
Co33 O59 2.155 . S
Co33 O60 2.096 . S
C34 N37 1.301 . S
C34 N38 1.328 . S
C34 H39 0.930 . S
C35 C36 1.333 . S
C35 N37 1.317 . S
C35 H40 0.930 . S
C36 C35 1.333 . S
C36 N38 1.350 . S
C36 H62 0.931 . S
N37 Co33 2.148 . S
N37 C34 1.301 . S
N37 C35 1.317 . S
N38 C34 1.328 . S
N38 C36 1.350 . S
H39 C34 0.930 . S
H40 C35 0.930 . S
C41 O42 1.224 . S
C41 O60 1.247 . S
O42 C41 1.224 . S
N43 Co33 2.128 . S
N43 C44 1.355 . S
N43 C46 1.311 . S
C44 N43 1.355 . S
C44 C45 1.363 . S
C44 H56 0.929 . S
C45 C44 1.363 . S
C45 N47 1.375 . S
C45 H63 0.931 . S
C46 N43 1.311 . S
C46 N47 1.347 . S
C46 H57 0.929 . S
N47 C45 1.375 . S
N47 C46 1.347 . S
C48 C51 1.365 . S
C48 N53 1.328 . S
C48 H54 0.929 . S
C49 C50 1.362 . S
C49 C52 1.378 . S
C49 H64 0.929 . S
C50 C49 1.362 . S
C50 C51 1.366 . S
C51 C48 1.365 . S
C51 C50 1.366 . S
C51 H65 0.930 . S
C52 C49 1.378 . S
C52 N53 1.315 . S
C52 H55 0.930 . S
N53 Co33 2.194 . S
N53 C48 1.328 . S
N53 C52 1.315 . S
H54 C48 0.929 . S
H55 C52 0.930 . S
H56 C44 0.929 . S
H57 C46 0.929 . S
O58 Co33 2.351 . S
O58 C61 1.244 . S
O59 Co33 2.155 . S
O59 C61 1.240 . S
O60 Co33 2.096 . S
O60 C41 1.247 . S
C61 O58 1.244 . S
C61 O59 1.240 . S
H62 C36 0.931 . S
H63 C45 0.931 . S
H64 C49 0.929 . S
H65 C51 0.930 . S
Co66 N70 2.148 . S
Co66 N76 2.128 . S
Co66 N86 2.194 . S
Co66 O91 2.351 . S
Co66 O92 2.155 . S
Co66 O93 2.096 . S
C67 N70 1.301 . S
C67 N71 1.328 . S
C67 H72 0.930 . S
C68 C69 1.333 . S
C68 N70 1.317 . S
C68 H73 0.930 . S
C69 C68 1.333 . S
C69 N71 1.350 . S
C69 H95 0.931 . S
N70 Co66 2.148 . S
N70 C67 1.301 . S
N70 C68 1.317 . S
N71 C67 1.328 . S
N71 C69 1.350 . S
H72 C67 0.930 . S
H73 C68 0.930 . S
C74 O75 1.224 . S
C74 O93 1.247 . S
O75 C74 1.224 . S
N76 Co66 2.128 . S
N76 C77 1.355 . S
N76 C79 1.311 . S
C77 N76 1.355 . S
C77 C78 1.363 . S
C77 H89 0.929 . S
C78 C77 1.363 . S
C78 N80 1.375 . S
C78 H96 0.931 . S
C79 N76 1.311 . S
C79 N80 1.347 . S
C79 H90 0.929 . S
N80 C78 1.375 . S
N80 C79 1.347 . S
C81 C84 1.365 . S
C81 N86 1.328 . S
C81 H87 0.929 . S
C82 C83 1.362 . S
C82 C85 1.378 . S
C82 H97 0.929 . S
C83 C82 1.362 . S
C83 C84 1.366 . S
C84 C81 1.365 . S
C84 C83 1.366 . S
C84 H98 0.930 . S
C85 C82 1.378 . S
C85 N86 1.315 . S
C85 H88 0.930 . S
N86 Co66 2.194 . S
N86 C81 1.328 . S
N86 C85 1.315 . S
H87 C81 0.929 . S
H88 C85 0.930 . S
H89 C77 0.929 . S
H90 C79 0.929 . S
O91 Co66 2.351 . S
O91 C94 1.244 . S
O92 Co66 2.155 . S
O92 C94 1.240 . S
O93 Co66 2.096 . S
O93 C74 1.247 . S
C94 O91 1.244 . S
C94 O92 1.240 . S
H95 C69 0.931 . S
H96 C78 0.931 . S
H97 C82 0.929 . S
H98 C84 0.930 . S
Co99 N103 2.148 . S
Co99 N109 2.128 . S
Co99 N119 2.194 . S
Co99 O124 2.351 . S
Co99 O125 2.155 . S
Co99 O126 2.096 . S
C100 N103 1.301 . S
C100 N104 1.328 . S
C100 H105 0.930 . S
C101 C102 1.333 . S
C101 N103 1.317 . S
C101 H106 0.930 . S
C102 C101 1.333 . S
C102 N104 1.350 . S
C102 H128 0.931 . S
N103 Co99 2.148 . S
N103 C100 1.301 . S
N103 C101 1.317 . S
N104 C100 1.328 . S
N104 C102 1.350 . S
H105 C100 0.930 . S
H106 C101 0.930 . S
C107 O108 1.224 . S
C107 O126 1.247 . S
O108 C107 1.224 . S
N109 Co99 2.128 . S
N109 C110 1.355 . S
N109 C112 1.311 . S
C110 N109 1.355 . S
C110 C111 1.363 . S
C110 H122 0.929 . S
C111 C110 1.363 . S
C111 N113 1.375 . S
C111 H129 0.931 . S
C112 N109 1.311 . S
C112 N113 1.347 . S
C112 H123 0.929 . S
N113 C111 1.375 . S
N113 C112 1.347 . S
C114 C117 1.365 . S
C114 N119 1.328 . S
C114 H120 0.929 . S
C115 C116 1.362 . S
C115 C118 1.378 . S
C115 H130 0.929 . S
C116 C115 1.362 . S
C116 C117 1.366 . S
C117 C114 1.365 . S
C117 C116 1.366 . S
C117 H131 0.930 . S
C118 C115 1.378 . S
C118 N119 1.315 . S
C118 H121 0.930 . S
N119 Co99 2.194 . S
N119 C114 1.328 . S
N119 C118 1.315 . S
H120 C114 0.929 . S
H121 C118 0.930 . S
H122 C110 0.929 . S
H123 C112 0.929 . S
O124 Co99 2.351 . S
O124 C127 1.244 . S
O125 Co99 2.155 . S
O125 C127 1.240 . S
O126 Co99 2.096 . S
O126 C107 1.247 . S
C127 O124 1.244 . S
C127 O125 1.240 . S
H128 C102 0.931 . S
H129 C111 0.931 . S
H130 C115 0.929 . S
H131 C117 0.930 . S
Co132 N136 2.148 . S
Co132 N142 2.128 . S
Co132 N152 2.194 . S
Co132 O157 2.351 . S
Co132 O158 2.155 . S
Co132 O159 2.096 . S
C133 N136 1.301 . S
C133 N137 1.328 . S
C133 H138 0.930 . S
C134 C135 1.333 . S
C134 N136 1.317 . S
C134 H139 0.930 . S
C135 C134 1.333 . S
C135 N137 1.350 . S
C135 H161 0.931 . S
N136 Co132 2.148 . S
N136 C133 1.301 . S
N136 C134 1.317 . S
N137 C133 1.328 . S
N137 C135 1.350 . S
H138 C133 0.930 . S
H139 C134 0.930 . S
C140 O141 1.224 . S
C140 O159 1.247 . S
O141 C140 1.224 . S
N142 Co132 2.128 . S
N142 C143 1.355 . S
N142 C145 1.311 . S
C143 N142 1.355 . S
C143 C144 1.363 . S
C143 H155 0.929 . S
C144 C143 1.363 . S
C144 N146 1.375 . S
C144 H162 0.931 . S
C145 N142 1.311 . S
C145 N146 1.347 . S
C145 H156 0.929 . S
N146 C144 1.375 . S
N146 C145 1.347 . S
C147 C150 1.365 . S
C147 N152 1.328 . S
C147 H153 0.929 . S
C148 C149 1.362 . S
C148 C151 1.378 . S
C148 H163 0.929 . S
C149 C148 1.362 . S
C149 C150 1.366 . S
C150 C147 1.365 . S
C150 C149 1.366 . S
C150 H164 0.930 . S
C151 C148 1.378 . S
C151 N152 1.315 . S
C151 H154 0.930 . S
N152 Co132 2.194 . S
N152 C147 1.328 . S
N152 C151 1.315 . S
H153 C147 0.929 . S
H154 C151 0.930 . S
H155 C143 0.929 . S
H156 C145 0.929 . S
O157 Co132 2.351 . S
O157 C160 1.244 . S
O158 Co132 2.155 . S
O158 C160 1.240 . S
O159 Co132 2.096 . S
O159 C140 1.247 . S
C160 O157 1.244 . S
C160 O158 1.240 . S
H161 C135 0.931 . S
H162 C144 0.931 . S
H163 C148 0.929 . S
H164 C150 0.930 . S
Co165 N169 2.148 . S
Co165 N175 2.128 . S
Co165 N185 2.194 . S
Co165 O190 2.351 . S
Co165 O191 2.155 . S
Co165 O192 2.096 . S
C166 N169 1.301 . S
C166 N170 1.328 . S
C166 H171 0.930 . S
C167 C168 1.333 . S
C167 N169 1.317 . S
C167 H172 0.930 . S
C168 C167 1.333 . S
C168 N170 1.350 . S
C168 H194 0.931 . S
N169 Co165 2.148 . S
N169 C166 1.301 . S
N169 C167 1.317 . S
N170 C166 1.328 . S
N170 C168 1.350 . S
H171 C166 0.930 . S
H172 C167 0.930 . S
C173 O174 1.224 . S
C173 O192 1.247 . S
O174 C173 1.224 . S
N175 Co165 2.128 . S
N175 C176 1.355 . S
N175 C178 1.311 . S
C176 N175 1.355 . S
C176 C177 1.363 . S
C176 H188 0.929 . S
C177 C176 1.363 . S
C177 N179 1.375 . S
C177 H195 0.931 . S
C178 N175 1.311 . S
C178 N179 1.347 . S
C178 H189 0.929 . S
N179 C177 1.375 . S
N179 C178 1.347 . S
C180 C183 1.365 . S
C180 N185 1.328 . S
C180 H186 0.929 . S
C181 C182 1.362 . S
C181 C184 1.378 . S
C181 H196 0.929 . S
C182 C181 1.362 . S
C182 C183 1.366 . S
C183 C180 1.365 . S
C183 C182 1.366 . S
C183 H197 0.930 . S
C184 C181 1.378 . S
C184 N185 1.315 . S
C184 H187 0.930 . S
N185 Co165 2.194 . S
N185 C180 1.328 . S
N185 C184 1.315 . S
H186 C180 0.929 . S
H187 C184 0.930 . S
H188 C176 0.929 . S
H189 C178 0.929 . S
O190 Co165 2.351 . S
O190 C193 1.244 . S
O191 Co165 2.155 . S
O191 C193 1.240 . S
O192 Co165 2.096 . S
O192 C173 1.247 . S
C193 O190 1.244 . S
C193 O191 1.240 . S
H194 C168 0.931 . S
H195 C177 0.931 . S
H196 C181 0.929 . S
H197 C183 0.930 . S
Co198 N202 2.148 . S
Co198 N208 2.128 . S
Co198 N218 2.194 . S
Co198 O223 2.351 . S
Co198 O224 2.155 . S
Co198 O225 2.096 . S
C199 N202 1.301 . S
C199 N203 1.328 . S
C199 H204 0.930 . S
C200 C201 1.333 . S
C200 N202 1.317 . S
C200 H205 0.930 . S
C201 C200 1.333 . S
C201 N203 1.350 . S
C201 H227 0.931 . S
N202 Co198 2.148 . S
N202 C199 1.301 . S
N202 C200 1.317 . S
N203 C199 1.328 . S
N203 C201 1.350 . S
H204 C199 0.930 . S
H205 C200 0.930 . S
C206 O207 1.224 . S
C206 O225 1.247 . S
O207 C206 1.224 . S
N208 Co198 2.128 . S
N208 C209 1.355 . S
N208 C211 1.311 . S
C209 N208 1.355 . S
C209 C210 1.363 . S
C209 H221 0.929 . S
C210 C209 1.363 . S
C210 N212 1.375 . S
C210 H228 0.931 . S
C211 N208 1.311 . S
C211 N212 1.347 . S
C211 H222 0.929 . S
N212 C210 1.375 . S
N212 C211 1.347 . S
C213 C216 1.365 . S
C213 N218 1.328 . S
C213 H219 0.929 . S
C214 C215 1.362 . S
C214 C217 1.378 . S
C214 H229 0.929 . S
C215 C214 1.362 . S
C215 C216 1.366 . S
C216 C213 1.365 . S
C216 C215 1.366 . S
C216 H230 0.930 . S
C217 C214 1.378 . S
C217 N218 1.315 . S
C217 H220 0.930 . S
N218 Co198 2.194 . S
N218 C213 1.328 . S
N218 C217 1.315 . S
H219 C213 0.929 . S
H220 C217 0.930 . S
H221 C209 0.929 . S
H222 C211 0.929 . S
O223 Co198 2.351 . S
O223 C226 1.244 . S
O224 Co198 2.155 . S
O224 C226 1.240 . S
O225 Co198 2.096 . S
O225 C206 1.247 . S
C226 O223 1.244 . S
C226 O224 1.240 . S
H227 C201 0.931 . S
H228 C210 0.931 . S
H229 C214 0.929 . S
H230 C216 0.930 . S
Co231 N235 2.148 . S
Co231 N241 2.128 . S
Co231 N251 2.194 . S
Co231 O256 2.351 . S
Co231 O257 2.155 . S
Co231 O258 2.096 . S
C232 N235 1.301 . S
C232 N236 1.328 . S
C232 H237 0.930 . S
C233 C234 1.333 . S
C233 N235 1.317 . S
C233 H238 0.930 . S
C234 C233 1.333 . S
C234 N236 1.350 . S
C234 H260 0.931 . S
N235 Co231 2.148 . S
N235 C232 1.301 . S
N235 C233 1.317 . S
N236 C232 1.328 . S
N236 C234 1.350 . S
H237 C232 0.930 . S
H238 C233 0.930 . S
C239 O240 1.224 . S
C239 O258 1.247 . S
O240 C239 1.224 . S
N241 Co231 2.128 . S
N241 C242 1.355 . S
N241 C244 1.311 . S
C242 N241 1.355 . S
C242 C243 1.363 . S
C242 H254 0.929 . S
C243 C242 1.363 . S
C243 N245 1.375 . S
C243 H261 0.931 . S
C244 N241 1.311 . S
C244 N245 1.347 . S
C244 H255 0.929 . S
N245 C243 1.375 . S
N245 C244 1.347 . S
C246 C249 1.365 . S
C246 N251 1.328 . S
C246 H252 0.929 . S
C247 C248 1.362 . S
C247 C250 1.378 . S
C247 H262 0.929 . S
C248 C247 1.362 . S
C248 C249 1.366 . S
C249 C246 1.365 . S
C249 C248 1.366 . S
C249 H263 0.930 . S
C250 C247 1.378 . S
C250 N251 1.315 . S
C250 H253 0.930 . S
N251 Co231 2.194 . S
N251 C246 1.328 . S
N251 C250 1.315 . S
H252 C246 0.929 . S
H253 C250 0.930 . S
H254 C242 0.929 . S
H255 C244 0.929 . S
O256 Co231 2.351 . S
O256 C259 1.244 . S
O257 Co231 2.155 . S
O257 C259 1.240 . S
O258 Co231 2.096 . S
O258 C239 1.247 . S
C259 O256 1.244 . S
C259 O257 1.240 . S
H260 C234 0.931 . S
H261 C243 0.931 . S
H262 C247 0.929 . S
H263 C249 0.930 . S
Co264 N268 2.148 . S
Co264 N274 2.128 . S
Co264 N284 2.194 . S
Co264 O289 2.351 . S
Co264 O290 2.155 . S
Co264 O291 2.096 . S
C265 N268 1.301 . S
C265 N269 1.328 . S
C265 H270 0.930 . S
C266 C267 1.333 . S
C266 N268 1.317 . S
C266 H271 0.930 . S
C267 C266 1.333 . S
C267 N269 1.350 . S
C267 H293 0.931 . S
N268 Co264 2.148 . S
N268 C265 1.301 . S
N268 C266 1.317 . S
N269 C265 1.328 . S
N269 C267 1.350 . S
H270 C265 0.930 . S
H271 C266 0.930 . S
C272 O273 1.224 . S
C272 O291 1.247 . S
O273 C272 1.224 . S
N274 Co264 2.128 . S
N274 C275 1.355 . S
N274 C277 1.311 . S
C275 N274 1.355 . S
C275 C276 1.363 . S
C275 H287 0.929 . S
C276 C275 1.363 . S
C276 N278 1.375 . S
C276 H294 0.931 . S
C277 N274 1.311 . S
C277 N278 1.347 . S
C277 H288 0.929 . S
N278 C276 1.375 . S
N278 C277 1.347 . S
C279 C282 1.365 . S
C279 N284 1.328 . S
C279 H285 0.929 . S
C280 C281 1.362 . S
C280 C283 1.378 . S
C280 H295 0.929 . S
C281 C280 1.362 . S
C281 C282 1.366 . S
C282 C279 1.365 . S
C282 C281 1.366 . S
C282 H296 0.930 . S
C283 C280 1.378 . S
C283 N284 1.315 . S
C283 H286 0.930 . S
N284 Co264 2.194 . S
N284 C279 1.328 . S
N284 C283 1.315 . S
H285 C279 0.929 . S
H286 C283 0.930 . S
H287 C275 0.929 . S
H288 C277 0.929 . S
O289 Co264 2.351 . S
O289 C292 1.244 . S
O290 Co264 2.155 . S
O290 C292 1.240 . S
O291 Co264 2.096 . S
O291 C272 1.247 . S
C292 O289 1.244 . S
C292 O290 1.240 . S
H293 C267 0.931 . S
H294 C276 0.931 . S
H295 C280 0.929 . S
H296 C282 0.930 . S
Co297 N301 2.148 . S
Co297 N307 2.128 . S
Co297 N317 2.194 . S
Co297 O322 2.351 . S
Co297 O323 2.155 . S
Co297 O324 2.096 . S
C298 N301 1.301 . S
C298 N302 1.328 . S
C298 H303 0.930 . S
C299 C300 1.333 . S
C299 N301 1.317 . S
C299 H304 0.930 . S
C300 C299 1.333 . S
C300 N302 1.350 . S
C300 H326 0.931 . S
N301 Co297 2.148 . S
N301 C298 1.301 . S
N301 C299 1.317 . S
N302 C298 1.328 . S
N302 C300 1.350 . S
H303 C298 0.930 . S
H304 C299 0.930 . S
C305 O306 1.224 . S
C305 O324 1.247 . S
O306 C305 1.224 . S
N307 Co297 2.128 . S
N307 C308 1.355 . S
N307 C310 1.311 . S
C308 N307 1.355 . S
C308 C309 1.363 . S
C308 H320 0.929 . S
C309 C308 1.363 . S
C309 N311 1.375 . S
C309 H327 0.931 . S
C310 N307 1.311 . S
C310 N311 1.347 . S
C310 H321 0.929 . S
N311 C309 1.375 . S
N311 C310 1.347 . S
C312 C315 1.365 . S
C312 N317 1.328 . S
C312 H318 0.929 . S
C313 C314 1.362 . S
C313 C316 1.378 . S
C313 H328 0.929 . S
C314 C313 1.362 . S
C314 C315 1.366 . S
C315 C312 1.365 . S
C315 C314 1.366 . S
C315 H329 0.930 . S
C316 C313 1.378 . S
C316 N317 1.315 . S
C316 H319 0.930 . S
N317 Co297 2.194 . S
N317 C312 1.328 . S
N317 C316 1.315 . S
H318 C312 0.929 . S
H319 C316 0.930 . S
H320 C308 0.929 . S
H321 C310 0.929 . S
O322 Co297 2.351 . S
O322 C325 1.244 . S
O323 Co297 2.155 . S
O323 C325 1.240 . S
O324 Co297 2.096 . S
O324 C305 1.247 . S
C325 O322 1.244 . S
C325 O323 1.240 . S
H326 C300 0.931 . S
H327 C309 0.931 . S
H328 C313 0.929 . S
H329 C315 0.930 . S
Co330 N334 2.148 . S
Co330 N340 2.128 . S
Co330 N350 2.194 . S
Co330 O355 2.351 . S
Co330 O356 2.155 . S
Co330 O357 2.096 . S
C331 N334 1.301 . S
C331 N335 1.328 . S
C331 H336 0.930 . S
C332 C333 1.333 . S
C332 N334 1.317 . S
C332 H337 0.930 . S
C333 C332 1.333 . S
C333 N335 1.350 . S
C333 H359 0.931 . S
N334 Co330 2.148 . S
N334 C331 1.301 . S
N334 C332 1.317 . S
N335 C331 1.328 . S
N335 C333 1.350 . S
H336 C331 0.930 . S
H337 C332 0.930 . S
C338 O339 1.224 . S
C338 O357 1.247 . S
O339 C338 1.224 . S
N340 Co330 2.128 . S
N340 C341 1.355 . S
N340 C343 1.311 . S
C341 N340 1.355 . S
C341 C342 1.363 . S
C341 H353 0.929 . S
C342 C341 1.363 . S
C342 N344 1.375 . S
C342 H360 0.931 . S
C343 N340 1.311 . S
C343 N344 1.347 . S
C343 H354 0.929 . S
N344 C342 1.375 . S
N344 C343 1.347 . S
C345 C348 1.365 . S
C345 N350 1.328 . S
C345 H351 0.929 . S
C346 C347 1.362 . S
C346 C349 1.378 . S
C346 H361 0.929 . S
C347 C346 1.362 . S
C347 C348 1.366 . S
C348 C345 1.365 . S
C348 C347 1.366 . S
C348 H362 0.930 . S
C349 C346 1.378 . S
C349 N350 1.315 . S
C349 H352 0.930 . S
N350 Co330 2.194 . S
N350 C345 1.328 . S
N350 C349 1.315 . S
H351 C345 0.929 . S
H352 C349 0.930 . S
H353 C341 0.929 . S
H354 C343 0.929 . S
O355 Co330 2.351 . S
O355 C358 1.244 . S
O356 Co330 2.155 . S
O356 C358 1.240 . S
O357 Co330 2.096 . S
O357 C338 1.247 . S
C358 O355 1.244 . S
C358 O356 1.240 . S
H359 C333 0.931 . S
H360 C342 0.931 . S
H361 C346 0.929 . S
H362 C348 0.930 . S
Co363 N367 2.148 . S
Co363 N373 2.128 . S
Co363 N383 2.194 . S
Co363 O388 2.351 . S
Co363 O389 2.155 . S
Co363 O390 2.096 . S
C364 N367 1.301 . S
C364 N368 1.328 . S
C364 H369 0.930 . S
C365 C366 1.333 . S
C365 N367 1.317 . S
C365 H370 0.930 . S
C366 C365 1.333 . S
C366 N368 1.350 . S
C366 H392 0.931 . S
N367 Co363 2.148 . S
N367 C364 1.301 . S
N367 C365 1.317 . S
N368 C364 1.328 . S
N368 C366 1.350 . S
H369 C364 0.930 . S
H370 C365 0.930 . S
C371 O372 1.224 . S
C371 O390 1.247 . S
O372 C371 1.224 . S
N373 Co363 2.128 . S
N373 C374 1.355 . S
N373 C376 1.311 . S
C374 N373 1.355 . S
C374 C375 1.363 . S
C374 H386 0.929 . S
C375 C374 1.363 . S
C375 N377 1.375 . S
C375 H393 0.931 . S
C376 N373 1.311 . S
C376 N377 1.347 . S
C376 H387 0.929 . S
N377 C375 1.375 . S
N377 C376 1.347 . S
C378 C381 1.365 . S
C378 N383 1.328 . S
C378 H384 0.929 . S
C379 C380 1.362 . S
C379 C382 1.378 . S
C379 H394 0.929 . S
C380 C379 1.362 . S
C380 C381 1.366 . S
C381 C378 1.365 . S
C381 C380 1.366 . S
C381 H395 0.930 . S
C382 C379 1.378 . S
C382 N383 1.315 . S
C382 H385 0.930 . S
N383 Co363 2.194 . S
N383 C378 1.328 . S
N383 C382 1.315 . S
H384 C378 0.929 . S
H385 C382 0.930 . S
H386 C374 0.929 . S
H387 C376 0.929 . S
O388 Co363 2.351 . S
O388 C391 1.244 . S
O389 Co363 2.155 . S
O389 C391 1.240 . S
O390 Co363 2.096 . S
O390 C371 1.247 . S
C391 O388 1.244 . S
C391 O389 1.240 . S
H392 C366 0.931 . S
H393 C375 0.931 . S
H394 C379 0.929 . S
H395 C381 0.930 . S
Co396 N400 2.148 . S
Co396 N406 2.128 . S
Co396 N416 2.194 . S
Co396 O421 2.351 . S
Co396 O422 2.155 . S
Co396 O423 2.096 . S
C397 N400 1.301 . S
C397 N401 1.328 . S
C397 H402 0.930 . S
C398 C399 1.333 . S
C398 N400 1.317 . S
C398 H403 0.930 . S
C399 C398 1.333 . S
C399 N401 1.350 . S
C399 H425 0.931 . S
N400 Co396 2.148 . S
N400 C397 1.301 . S
N400 C398 1.317 . S
N401 C397 1.328 . S
N401 C399 1.350 . S
H402 C397 0.930 . S
H403 C398 0.930 . S
C404 O405 1.224 . S
C404 O423 1.247 . S
O405 C404 1.224 . S
N406 Co396 2.128 . S
N406 C407 1.355 . S
N406 C409 1.311 . S
C407 N406 1.355 . S
C407 C408 1.363 . S
C407 H419 0.929 . S
C408 C407 1.363 . S
C408 N410 1.375 . S
C408 H426 0.931 . S
C409 N406 1.311 . S
C409 N410 1.347 . S
C409 H420 0.929 . S
N410 C408 1.375 . S
N410 C409 1.347 . S
C411 C414 1.365 . S
C411 N416 1.328 . S
C411 H417 0.929 . S
C412 C413 1.362 . S
C412 C415 1.378 . S
C412 H427 0.929 . S
C413 C412 1.362 . S
C413 C414 1.366 . S
C414 C411 1.365 . S
C414 C413 1.366 . S
C414 H428 0.930 . S
C415 C412 1.378 . S
C415 N416 1.315 . S
C415 H418 0.930 . S
N416 Co396 2.194 . S
N416 C411 1.328 . S
N416 C415 1.315 . S
H417 C411 0.929 . S
H418 C415 0.930 . S
H419 C407 0.929 . S
H420 C409 0.929 . S
O421 Co396 2.351 . S
O421 C424 1.244 . S
O422 Co396 2.155 . S
O422 C424 1.240 . S
O423 Co396 2.096 . S
O423 C404 1.247 . S
C424 O421 1.244 . S
C424 O422 1.240 . S
H425 C399 0.931 . S
H426 C408 0.931 . S
H427 C412 0.929 . S
H428 C414 0.930 . S
Co429 N433 2.148 . S
Co429 N439 2.128 . S
Co429 N449 2.194 . S
Co429 O454 2.351 . S
Co429 O455 2.155 . S
Co429 O456 2.096 . S
C430 N433 1.301 . S
C430 N434 1.328 . S
C430 H435 0.930 . S
C431 C432 1.333 . S
C431 N433 1.317 . S
C431 H436 0.930 . S
C432 C431 1.333 . S
C432 N434 1.350 . S
C432 H458 0.931 . S
N433 Co429 2.148 . S
N433 C430 1.301 . S
N433 C431 1.317 . S
N434 C430 1.328 . S
N434 C432 1.350 . S
H435 C430 0.930 . S
H436 C431 0.930 . S
C437 O438 1.224 . S
C437 O456 1.247 . S
O438 C437 1.224 . S
N439 Co429 2.128 . S
N439 C440 1.355 . S
N439 C442 1.311 . S
C440 N439 1.355 . S
C440 C441 1.363 . S
C440 H452 0.929 . S
C441 C440 1.363 . S
C441 N443 1.375 . S
C441 H459 0.931 . S
C442 N439 1.311 . S
C442 N443 1.347 . S
C442 H453 0.929 . S
N443 C441 1.375 . S
N443 C442 1.347 . S
C444 C447 1.365 . S
C444 N449 1.328 . S
C444 H450 0.929 . S
C445 C446 1.362 . S
C445 C448 1.378 . S
C445 H460 0.929 . S
C446 C445 1.362 . S
C446 C447 1.366 . S
C447 C444 1.365 . S
C447 C446 1.366 . S
C447 H461 0.930 . S
C448 C445 1.378 . S
C448 N449 1.315 . S
C448 H451 0.930 . S
N449 Co429 2.194 . S
N449 C444 1.328 . S
N449 C448 1.315 . S
H450 C444 0.929 . S
H451 C448 0.930 . S
H452 C440 0.929 . S
H453 C442 0.929 . S
O454 Co429 2.351 . S
O454 C457 1.244 . S
O455 Co429 2.155 . S
O455 C457 1.240 . S
O456 Co429 2.096 . S
O456 C437 1.247 . S
C457 O454 1.244 . S
C457 O455 1.240 . S
H458 C432 0.931 . S
H459 C441 0.931 . S
H460 C445 0.929 . S
H461 C447 0.930 . S
Co462 N466 2.148 . S
Co462 N472 2.128 . S
Co462 N482 2.194 . S
Co462 O487 2.351 . S
Co462 O488 2.155 . S
Co462 O489 2.096 . S
C463 N466 1.301 . S
C463 N467 1.328 . S
C463 H468 0.930 . S
C464 C465 1.333 . S
C464 N466 1.317 . S
C464 H469 0.930 . S
C465 C464 1.333 . S
C465 N467 1.350 . S
C465 H491 0.931 . S
N466 Co462 2.148 . S
N466 C463 1.301 . S
N466 C464 1.317 . S
N467 C463 1.328 . S
N467 C465 1.350 . S
H468 C463 0.930 . S
H469 C464 0.930 . S
C470 O471 1.224 . S
C470 O489 1.247 . S
O471 C470 1.224 . S
N472 Co462 2.128 . S
N472 C473 1.355 . S
N472 C475 1.311 . S
C473 N472 1.355 . S
C473 C474 1.363 . S
C473 H485 0.929 . S
C474 C473 1.363 . S
C474 N476 1.375 . S
C474 H492 0.931 . S
C475 N472 1.311 . S
C475 N476 1.347 . S
C475 H486 0.929 . S
N476 C474 1.375 . S
N476 C475 1.347 . S
C477 C480 1.365 . S
C477 N482 1.328 . S
C477 H483 0.929 . S
C478 C479 1.362 . S
C478 C481 1.378 . S
C478 H493 0.929 . S
C479 C478 1.362 . S
C479 C480 1.366 . S
C480 C477 1.365 . S
C480 C479 1.366 . S
C480 H494 0.930 . S
C481 C478 1.378 . S
C481 N482 1.315 . S
C481 H484 0.930 . S
N482 Co462 2.194 . S
N482 C477 1.328 . S
N482 C481 1.315 . S
H483 C477 0.929 . S
H484 C481 0.930 . S
H485 C473 0.929 . S
H486 C475 0.929 . S
O487 Co462 2.351 . S
O487 C490 1.244 . S
O488 Co462 2.155 . S
O488 C490 1.240 . S
O489 Co462 2.096 . S
O489 C470 1.247 . S
C490 O487 1.244 . S
C490 O488 1.240 . S
H491 C465 0.931 . S
H492 C474 0.931 . S
H493 C478 0.929 . S
H494 C480 0.930 . S
Co495 N499 2.148 . S
Co495 N505 2.128 . S
Co495 N515 2.194 . S
Co495 O520 2.351 . S
Co495 O521 2.155 . S
Co495 O522 2.096 . S
C496 N499 1.301 . S
C496 N500 1.328 . S
C496 H501 0.930 . S
C497 C498 1.333 . S
C497 N499 1.317 . S
C497 H502 0.930 . S
C498 C497 1.333 . S
C498 N500 1.350 . S
C498 H524 0.931 . S
N499 Co495 2.148 . S
N499 C496 1.301 . S
N499 C497 1.317 . S
N500 C496 1.328 . S
N500 C498 1.350 . S
H501 C496 0.930 . S
H502 C497 0.930 . S
C503 O504 1.224 . S
C503 O522 1.247 . S
O504 C503 1.224 . S
N505 Co495 2.128 . S
N505 C506 1.355 . S
N505 C508 1.311 . S
C506 N505 1.355 . S
C506 C507 1.363 . S
C506 H518 0.929 . S
C507 C506 1.363 . S
C507 N509 1.375 . S
C507 H525 0.931 . S
C508 N505 1.311 . S
C508 N509 1.347 . S
C508 H519 0.929 . S
N509 C507 1.375 . S
N509 C508 1.347 . S
C510 C513 1.365 . S
C510 N515 1.328 . S
C510 H516 0.929 . S
C511 C512 1.362 . S
C511 C514 1.378 . S
C511 H526 0.929 . S
C512 C511 1.362 . S
C512 C513 1.366 . S
C513 C510 1.365 . S
C513 C512 1.366 . S
C513 H527 0.930 . S
C514 C511 1.378 . S
C514 N515 1.315 . S
C514 H517 0.930 . S
N515 Co495 2.194 . S
N515 C510 1.328 . S
N515 C514 1.315 . S
H516 C510 0.929 . S
H517 C514 0.930 . S
H518 C506 0.929 . S
H519 C508 0.929 . S
O520 Co495 2.351 . S
O520 C523 1.244 . S
O521 Co495 2.155 . S
O521 C523 1.240 . S
O522 Co495 2.096 . S
O522 C503 1.247 . S
C523 O520 1.244 . S
C523 O521 1.240 . S
H524 C498 0.931 . S
H525 C507 0.931 . S
H526 C511 0.929 . S
H527 C513 0.930 . S
H528 C534 0.930 . S
H529 C537 0.930 . S
H530 C538 0.930 . S
H531 C539 0.930 . S
H532 C542 0.930 . S
H533 C543 0.930 . S
C534 H528 0.930 . S
C534 C535 1.355 . S
C534 C536 1.415 . S
C535 C534 1.355 . S
C535 C537 1.419 . S
C536 C534 1.415 . S
C536 C541 1.425 . S
C536 C543 1.409 . S
C537 H529 0.930 . S
C537 C535 1.419 . S
C537 C538 1.362 . S
C538 H530 0.930 . S
C538 C537 1.362 . S
C538 C541 1.409 . S
C539 H531 0.930 . S
C539 C540 1.355 . S
C539 C541 1.415 1_455 S
C540 C539 1.355 . S
C540 C542 1.419 . S
C541 C536 1.425 . S
C541 C538 1.409 . S
C541 C539 1.415 1_655 S
C542 H532 0.930 . S
C542 C540 1.419 . S
C542 C543 1.362 1_455 S
C543 H533 0.930 . S
C543 C536 1.409 . S
C543 C542 1.362 1_655 S
H544 C550 0.930 . S
H545 C553 0.930 . S
H546 C554 0.930 . S
H547 C555 0.930 . S
H548 C558 0.930 . S
H549 C559 0.930 . S
C550 H544 0.930 . S
C550 C551 1.355 . S
C550 C552 1.415 . S
C551 C550 1.355 . S
C551 C553 1.419 . S
C552 C550 1.415 . S
C552 C557 1.425 1_545 S
C552 C559 1.409 1_545 S
C553 H545 0.930 . S
C553 C551 1.419 . S
C553 C554 1.362 . S
C554 H546 0.930 . S
C554 C553 1.362 . S
C554 C557 1.409 1_545 S
C555 H547 0.930 . S
C555 C556 1.355 . S
C555 C557 1.415 . S
C556 C555 1.355 . S
C556 C558 1.419 . S
C557 C552 1.425 1_565 S
C557 C554 1.409 1_565 S
C557 C555 1.415 . S
C558 H548 0.930 . S
C558 C556 1.419 . S
C558 C559 1.362 . S
C559 H549 0.930 . S
C559 C552 1.409 1_565 S
C559 C558 1.362 . S
H560 C566 0.930 . S
H561 C569 0.930 . S
H562 C570 0.930 . S
H563 C571 0.930 . S
H564 C574 0.930 . S
H565 C575 0.930 . S
C566 H560 0.930 . S
C566 C567 1.355 . S
C566 C568 1.415 1_655 S
C567 C566 1.355 . S
C567 C569 1.419 . S
C568 C566 1.415 1_455 S
C568 C573 1.425 . S
C568 C575 1.409 . S
C569 H561 0.930 . S
C569 C567 1.419 . S
C569 C570 1.362 1_655 S
C570 H562 0.930 . S
C570 C569 1.362 1_455 S
C570 C573 1.409 . S
C571 H563 0.930 . S
C571 C572 1.355 . S
C571 C573 1.415 . S
C572 C571 1.355 . S
C572 C574 1.419 . S
C573 C568 1.425 . S
C573 C570 1.409 . S
C573 C571 1.415 . S
C574 H564 0.930 . S
C574 C572 1.419 . S
C574 C575 1.362 . S
C575 H565 0.930 . S
C575 C568 1.409 . S
C575 C574 1.362 . S
H576 C582 0.930 . S
H577 C585 0.930 . S
H578 C586 0.930 . S
H579 C587 0.930 . S
H580 C590 0.930 . S
H581 C591 0.930 . S
C582 H576 0.930 . S
C582 C583 1.355 . S
C582 C584 1.415 . S
C583 C582 1.355 . S
C583 C585 1.419 . S
C584 C582 1.415 . S
C584 C589 1.425 1_565 S
C584 C591 1.409 1_565 S
C585 H577 0.930 . S
C585 C583 1.419 . S
C585 C586 1.362 . S
C586 H578 0.930 . S
C586 C585 1.362 . S
C586 C589 1.409 1_565 S
C587 H579 0.930 . S
C587 C588 1.355 . S
C587 C589 1.415 . S
C588 C587 1.355 . S
C588 C590 1.419 . S
C589 C584 1.425 1_545 S
C589 C586 1.409 1_545 S
C589 C587 1.415 . S
C590 H580 0.930 . S
C590 C588 1.419 . S
C590 C591 1.362 . S
C591 H581 0.930 . S
C591 C584 1.409 1_545 S
C591 C590 1.362 . S
H592 C598 0.930 . S
H593 C601 0.930 . S
H594 C602 0.930 . S
H595 C603 0.930 . S
H596 C606 0.930 . S
H597 C607 0.930 . S
C598 H592 0.930 . S
C598 C599 1.355 . S
C598 C600 1.415 . S
C599 C598 1.355 . S
C599 C601 1.419 . S
C600 C598 1.415 . S
C600 C605 1.425 1_655 S
C600 C607 1.409 1_655 S
C601 H593 0.930 . S
C601 C599 1.419 . S
C601 C602 1.362 . S
C602 H594 0.930 . S
C602 C601 1.362 . S
C602 C605 1.409 1_655 S
C603 H595 0.930 . S
C603 C604 1.355 . S
C603 C605 1.415 . S
C604 C603 1.355 . S
C604 C606 1.419 . S
C605 C600 1.425 1_455 S
C605 C602 1.409 1_455 S
C605 C603 1.415 . S
C606 H596 0.930 . S
C606 C604 1.419 . S
C606 C607 1.362 . S
C607 H597 0.930 . S
C607 C600 1.409 1_455 S
C607 C606 1.362 . S
H608 C614 0.930 . S
H609 C617 0.930 . S
H610 C618 0.930 . S
H611 C619 0.930 . S
H612 C622 0.930 . S
H613 C623 0.930 . S
C614 H608 0.930 . S
C614 C615 1.355 . S
C614 C616 1.415 . S
C615 C614 1.355 . S
C615 C617 1.419 . S
C616 C614 1.415 . S
C616 C621 1.425 . S
C616 C623 1.409 1_565 S
C617 H609 0.930 . S
C617 C615 1.419 . S
C617 C618 1.362 . S
C618 H610 0.930 . S
C618 C617 1.362 . S
C618 C621 1.409 . S
C619 H611 0.930 . S
C619 C620 1.355 . S
C619 C621 1.415 1_545 S
C620 C619 1.355 . S
C620 C622 1.419 . S
C621 C616 1.425 . S
C621 C618 1.409 . S
C621 C619 1.415 1_565 S
C622 H612 0.930 . S
C622 C620 1.419 . S
C622 C623 1.362 . S
C623 H613 0.930 . S
C623 C616 1.409 1_545 S
C623 C622 1.362 . S
H624 C630 0.930 . S
H625 C633 0.930 . S
H626 C634 0.922 1_455 S
H627 C635 0.930 . S
H628 C638 0.930 . S
H629 C639 0.930 . S
C630 H624 0.930 . S
C630 C631 1.355 . S
C630 C632 1.415 . S
C631 C630 1.355 . S
C631 C633 1.419 . S
C632 C630 1.415 . S
C632 C637 1.425 1_655 S
C632 C639 1.409 1_655 S
C633 H625 0.930 . S
C633 C631 1.419 . S
C633 C634 1.362 . S
C634 H626 0.922 1_655 S
C634 C633 1.362 . S
C634 C637 1.409 1_655 S
C635 H627 0.930 . S
C635 C636 1.355 . S
C635 C637 1.415 . S
C636 C635 1.355 . S
C636 C638 1.419 . S
C637 C632 1.425 1_455 S
C637 C634 1.409 1_455 S
C637 C635 1.415 . S
C638 H628 0.930 . S
C638 C636 1.419 . S
C638 C639 1.362 . S
C639 H629 0.930 . S
C639 C632 1.409 1_455 S
C639 C638 1.362 . S
H640 C646 0.930 . S
H641 C649 0.930 . S
H642 C650 0.930 . S
H643 C651 0.930 . S
H644 C654 0.930 . S
H645 C655 0.930 1_545 S
C646 H640 0.930 . S
C646 C647 1.355 . S
C646 C648 1.415 . S
C647 C646 1.355 . S
C647 C649 1.419 . S
C648 C646 1.415 . S
C648 C653 1.425 . S
C648 C655 1.409 1_545 S
C649 H641 0.930 . S
C649 C647 1.419 . S
C649 C650 1.362 . S
C650 H642 0.930 . S
C650 C649 1.362 . S
C650 C653 1.409 . S
C651 H643 0.930 . S
C651 C652 1.355 . S
C651 C653 1.415 1_565 S
C652 C651 1.355 . S
C652 C654 1.419 . S
C653 C648 1.425 . S
C653 C650 1.409 . S
C653 C651 1.415 1_545 S
C654 H644 0.930 . S
C654 C652 1.419 . S
C654 C655 1.362 . S
C655 H645 0.930 1_565 S
C655 C648 1.409 1_565 S
C655 C654 1.362 . S
H656 C662 0.930 . S
H657 C665 0.930 . S
H658 C666 0.930 . S
H659 C667 0.930 . S
H660 C670 0.930 . S
H661 C671 0.930 . S
C662 H656 0.930 . S
C662 C663 1.355 . S
C662 C664 1.415 . S
C663 C662 1.355 . S
C663 C665 1.419 . S
C664 C662 1.415 . S
C664 C669 1.425 . S
C664 C671 1.409 . S
C665 H657 0.930 . S
C665 C663 1.419 . S
C665 C666 1.362 . S
C666 H658 0.930 . S
C666 C665 1.362 . S
C666 C669 1.409 . S
C667 H659 0.930 . S
C667 C668 1.355 . S
C667 C669 1.415 . S
C668 C667 1.355 . S
C668 C670 1.419 . S
C669 C664 1.425 . S
C669 C666 1.409 . S
C669 C667 1.415 . S
C670 H660 0.930 . S
C670 C668 1.419 . S
C670 C671 1.362 . S
C671 H661 0.930 . S
C671 C664 1.409 . S
C671 C670 1.362 . S
H672 C678 0.930 . S
H673 C681 0.930 . S
H674 C682 0.930 . S
H675 C683 0.930 . S
H676 C686 0.930 . S
H677 C687 0.930 . S
C678 H672 0.930 . S
C678 C679 1.355 . S
C678 C680 1.415 . S
C679 C678 1.355 . S
C679 C681 1.419 . S
C680 C678 1.415 . S
C680 C685 1.425 . S
C680 C687 1.409 . S
C681 H673 0.930 . S
C681 C679 1.419 . S
C681 C682 1.362 . S
C682 H674 0.930 . S
C682 C681 1.362 . S
C682 C685 1.409 . S
C683 H675 0.930 . S
C683 C684 1.355 . S
C683 C685 1.415 . S
C684 C683 1.355 . S
C684 C686 1.419 . S
C685 C680 1.425 . S
C685 C682 1.409 . S
C685 C683 1.415 . S
C686 H676 0.930 . S
C686 C684 1.419 . S
C686 C687 1.362 . S
C687 H677 0.930 . S
C687 C680 1.409 . S
C687 C686 1.362 . S
H688 C694 0.930 . S
H689 C697 0.930 . S
H690 C698 0.930 . S
H691 C699 0.930 . S
H692 C702 0.930 . S
H693 C703 0.930 . S
C694 H688 0.930 . S
C694 C695 1.355 . S
C694 C696 1.415 . S
C695 C694 1.355 . S
C695 C697 1.419 . S
C696 C694 1.415 . S
C696 C701 1.425 . S
C696 C703 1.409 . S
C697 H689 0.930 . S
C697 C695 1.419 . S
C697 C698 1.362 . S
C698 H690 0.930 . S
C698 C697 1.362 . S
C698 C701 1.409 . S
C699 H691 0.930 . S
C699 C700 1.355 . S
C699 C701 1.415 . S
C700 C699 1.355 . S
C700 C702 1.419 . S
C701 C696 1.425 . S
C701 C698 1.409 . S
C701 C699 1.415 . S
C702 H692 0.930 . S
C702 C700 1.419 . S
C702 C703 1.362 . S
C703 H693 0.930 . S
C703 C696 1.409 . S
C703 C702 1.362 . S
H704 C710 0.930 . S
H705 C713 0.930 . S
H706 C714 0.930 . S
H707 C715 0.930 . S
H708 C718 0.930 . S
H709 C719 0.930 . S
C710 H704 0.930 . S
C710 C711 1.355 . S
C710 C712 1.415 . S
C711 C710 1.355 . S
C711 C713 1.419 . S
C712 C710 1.415 . S
C712 C717 1.425 . S
C712 C719 1.409 . S
C713 H705 0.930 . S
C713 C711 1.419 . S
C713 C714 1.362 . S
C714 H706 0.930 . S
C714 C713 1.362 . S
C714 C717 1.409 . S
C715 H707 0.930 . S
C715 C716 1.355 . S
C715 C717 1.415 . S
C716 C715 1.355 . S
C716 C718 1.419 . S
C717 C712 1.425 . S
C717 C714 1.409 . S
C717 C715 1.415 . S
C718 H708 0.930 . S
C718 C716 1.419 . S
C718 C719 1.362 . S
C719 H709 0.930 . S
C719 C712 1.409 . S
C719 C718 1.362 . S
H720 C726 0.930 . S
H721 C729 0.930 . S
H722 C730 0.930 . S
H723 C731 0.930 . S
H724 C734 0.930 . S
H725 C735 0.930 . S
C726 H720 0.930 . S
C726 C727 1.355 . S
C726 C728 1.415 . S
C727 C726 1.355 . S
C727 C729 1.419 . S
C728 C726 1.415 . S
C728 C733 1.425 . S
C728 C735 1.409 . S
C729 H721 0.930 . S
C729 C727 1.419 . S
C729 C730 1.362 . S
C730 H722 0.930 . S
C730 C729 1.362 . S
C730 C733 1.409 . S
C731 H723 0.930 . S
C731 C732 1.355 . S
C731 C733 1.415 . S
C732 C731 1.355 . S
C732 C734 1.419 . S
C733 C728 1.425 . S
C733 C730 1.409 . S
C733 C731 1.415 . S
C734 H724 0.930 . S
C734 C732 1.419 . S
C734 C735 1.362 . S
C735 H725 0.930 . S
C735 C728 1.409 . S
C735 C734 1.362 . S
H736 C742 0.930 . S
H737 C745 0.930 . S
H738 C746 0.930 . S
H739 C747 0.930 . S
H740 C750 0.930 . S
H741 C751 0.930 . S
C742 H736 0.930 . S
C742 C743 1.355 . S
C742 C744 1.415 . S
C743 C742 1.355 . S
C743 C745 1.419 . S
C744 C742 1.415 . S
C744 C749 1.425 . S
C744 C751 1.409 . S
C745 H737 0.930 . S
C745 C743 1.419 . S
C745 C746 1.362 . S
C746 H738 0.930 . S
C746 C745 1.362 . S
C746 C749 1.409 . S
C747 H739 0.930 . S
C747 C748 1.355 . S
C747 C749 1.415 . S
C748 C747 1.355 . S
C748 C750 1.419 . S
C749 C744 1.425 . S
C749 C746 1.409 . S
C749 C747 1.415 . S
C750 H740 0.930 . S
C750 C748 1.419 . S
C750 C751 1.362 . S
C751 H741 0.930 . S
C751 C744 1.409 . S
C751 C750 1.362 . S
H752 C758 0.930 . S
H753 C761 0.930 . S
H754 C762 0.930 . S
H755 C763 0.930 . S
H756 C766 0.930 . S
H757 C767 0.930 . S
C758 H752 0.930 . S
C758 C759 1.355 . S
C758 C760 1.415 . S
C759 C758 1.355 . S
C759 C761 1.419 . S
C760 C758 1.415 . S
C760 C765 1.425 . S
C760 C767 1.409 . S
C761 H753 0.930 . S
C761 C759 1.419 . S
C761 C762 1.362 . S
C762 H754 0.930 . S
C762 C761 1.362 . S
C762 C765 1.409 . S
C763 H755 0.930 . S
C763 C764 1.355 . S
C763 C765 1.415 . S
C764 C763 1.355 . S
C764 C766 1.419 . S
C765 C760 1.425 . S
C765 C762 1.409 . S
C765 C763 1.415 . S
C766 H756 0.930 . S
C766 C764 1.419 . S
C766 C767 1.362 . S
C767 H757 0.930 . S
C767 C760 1.409 . S
C767 C766 1.362 . S
H768 C774 0.930 . S
H769 C777 0.930 . S
H770 C778 0.930 . S
H771 C779 0.930 . S
H772 C782 0.930 . S
H773 C783 0.930 . S
C774 H768 0.930 . S
C774 C775 1.355 . S
C774 C776 1.415 . S
C775 C774 1.355 . S
C775 C777 1.419 . S
C776 C774 1.415 . S
C776 C781 1.425 . S
C776 C783 1.409 . S
C777 H769 0.930 . S
C777 C775 1.419 . S
C777 C778 1.362 . S
C778 H770 0.930 . S
C778 C777 1.362 . S
C778 C781 1.409 . S
C779 H771 0.930 . S
C779 C780 1.355 . S
C779 C781 1.415 . S
C780 C779 1.355 . S
C780 C782 1.419 . S
C781 C776 1.425 . S
C781 C778 1.409 . S
C781 C779 1.415 . S
C782 H772 0.930 . S
C782 C780 1.419 . S
C782 C783 1.362 . S
C783 H773 0.930 . S
C783 C776 1.409 . S
C783 C782 1.362 . S
H784 C790 0.930 . S
H785 C793 0.930 . S
H786 C794 0.930 . S
H787 C795 0.930 . S
H788 C798 0.930 . S
H789 C799 0.930 . S
C790 H784 0.930 . S
C790 C791 1.355 . S
C790 C792 1.415 . S
C791 C790 1.355 . S
C791 C793 1.419 . S
C792 C790 1.415 . S
C792 C797 1.425 1_554 S
C792 C799 1.409 1_554 S
C793 H785 0.930 . S
C793 C791 1.419 . S
C793 C794 1.362 . S
C794 H786 0.930 . S
C794 C793 1.362 . S
C794 C797 1.409 1_554 S
C795 H787 0.930 . S
C795 C796 1.355 . S
C795 C797 1.415 . S
C796 C795 1.355 . S
C796 C798 1.419 . S
C797 C792 1.425 1_556 S
C797 C794 1.409 1_556 S
C797 C795 1.415 . S
C798 H788 0.930 . S
C798 C796 1.419 . S
C798 C799 1.362 . S
C799 H789 0.930 . S
C799 C792 1.409 1_556 S
C799 C798 1.362 . S
H800 C806 0.930 . S
H801 C809 0.930 . S
H802 C810 0.930 . S
H803 C811 0.930 . S
H804 C814 0.930 . S
H805 C815 0.930 . S
C806 H800 0.930 . S
C806 C807 1.355 . S
C806 C808 1.415 . S
C807 C806 1.355 . S
C807 C809 1.419 . S
C808 C806 1.415 . S
C808 C813 1.425 . S
C808 C815 1.409 . S
C809 H801 0.930 . S
C809 C807 1.419 . S
C809 C810 1.362 . S
C810 H802 0.930 . S
C810 C809 1.362 . S
C810 C813 1.409 . S
C811 H803 0.930 . S
C811 C812 1.355 . S
C811 C813 1.415 . S
C812 C811 1.355 . S
C812 C814 1.419 . S
C813 C808 1.425 . S
C813 C810 1.409 . S
C813 C811 1.415 . S
C814 H804 0.930 . S
C814 C812 1.419 . S
C814 C815 1.362 . S
C815 H805 0.930 . S
C815 C808 1.409 . S
C815 C814 1.362 . S
H816 C822 0.930 . S
H817 C825 0.930 . S
H818 C826 0.930 . S
H819 C827 0.930 . S
H820 C830 0.930 . S
H821 C831 0.930 . S
C822 H816 0.930 . S
C822 C823 1.355 . S
C822 C824 1.415 . S
C823 C822 1.355 . S
C823 C825 1.419 . S
C824 C822 1.415 . S
C824 C829 1.423 1_556 S
C824 C831 1.409 1_556 S
C825 H817 0.930 . S
C825 C823 1.419 . S
C825 C826 1.362 . S
C826 H818 0.930 . S
C826 C825 1.362 . S
C826 C829 1.400 1_556 S
C827 H819 0.930 . S
C827 C828 1.355 . S
C827 C829 1.426 . S
C828 C827 1.355 . S
C828 C830 1.419 . S
C829 C824 1.423 1_554 S
C829 C826 1.400 1_554 S
C829 C827 1.426 . S
C830 H820 0.930 . S
C830 C828 1.419 . S
C830 C831 1.362 . S
C831 H821 0.930 . S
C831 C824 1.409 1_554 S
C831 C830 1.362 . S
H832 C838 0.930 . S
H833 C841 0.930 . S
H834 C842 0.930 . S
H835 C843 0.930 . S
H836 C846 0.930 . S
H837 C847 0.930 . S
C838 H832 0.930 . S
C838 C839 1.355 . S
C838 C840 1.415 . S
C839 C838 1.355 . S
C839 C841 1.419 . S
C840 C838 1.415 . S
C840 C845 1.425 . S
C840 C847 1.409 . S
C841 H833 0.930 . S
C841 C839 1.419 . S
C841 C842 1.362 . S
C842 H834 0.930 . S
C842 C841 1.362 . S
C842 C845 1.409 . S
C843 H835 0.930 . S
C843 C844 1.355 . S
C843 C845 1.415 . S
C844 C843 1.355 . S
C844 C846 1.419 . S
C845 C840 1.425 . S
C845 C842 1.409 . S
C845 C843 1.415 . S
C846 H836 0.930 . S
C846 C844 1.419 . S
C846 C847 1.362 . S
C847 H837 0.930 . S
C847 C840 1.409 . S
C847 C846 1.362 . S
H848 C854 0.930 . S
H849 C857 0.930 . S
H850 C858 0.930 . S
H851 C859 0.930 . S
H852 C862 0.930 . S
H853 C863 0.930 . S
C854 H848 0.930 . S
C854 C855 1.355 . S
C854 C856 1.415 . S
C855 C854 1.355 . S
C855 C857 1.419 . S
C856 C854 1.415 . S
C856 C861 1.425 1_556 S
C856 C863 1.409 1_556 S
C857 H849 0.930 . S
C857 C855 1.419 . S
C857 C858 1.362 . S
C858 H850 0.930 . S
C858 C857 1.362 . S
C858 C861 1.409 1_556 S
C859 H851 0.930 . S
C859 C860 1.355 . S
C859 C861 1.415 . S
C860 C859 1.355 . S
C860 C862 1.419 . S
C861 C856 1.425 1_554 S
C861 C858 1.409 1_554 S
C861 C859 1.415 . S
C862 H852 0.930 . S
C862 C860 1.419 . S
C862 C863 1.362 . S
C863 H853 0.930 . S
C863 C856 1.409 1_554 S
C863 C862 1.362 . S
H864 C870 0.930 . S
H865 C873 0.930 . S
H866 C874 0.930 . S
H867 C875 0.930 . S
H868 C878 0.930 . S
H869 C879 0.930 . S
C870 H864 0.930 . S
C870 C871 1.355 . S
C870 C872 1.415 . S
C871 C870 1.355 . S
C871 C873 1.419 . S
C872 C870 1.415 . S
C872 C877 1.425 . S
C872 C879 1.409 . S
C873 H865 0.930 . S
C873 C871 1.419 . S
C873 C874 1.362 . S
C874 H866 0.930 . S
C874 C873 1.362 . S
C874 C877 1.409 . S
C875 H867 0.930 . S
C875 C876 1.355 . S
C875 C877 1.415 . S
C876 C875 1.355 . S
C876 C878 1.419 . S
C877 C872 1.425 . S
C877 C874 1.409 . S
C877 C875 1.415 . S
C878 H868 0.930 . S
C878 C876 1.419 . S
C878 C879 1.362 . S
C879 H869 0.930 . S
C879 C872 1.409 . S
C879 C878 1.362 . S
H880 C886 0.930 . S
H881 C889 0.930 . S
H882 C890 0.930 . S
H883 C891 0.930 . S
H884 C894 0.930 . S
H885 C895 0.934 . S
C886 H880 0.930 . S
C886 C887 1.355 . S
C886 C888 1.415 . S
C887 C886 1.355 . S
C887 C889 1.419 . S
C888 C886 1.415 . S
C888 C893 1.425 1_554 S
C888 C895 1.409 1_554 S
C889 H881 0.930 . S
C889 C887 1.419 . S
C889 C890 1.362 . S
C890 H882 0.930 . S
C890 C889 1.362 . S
C890 C893 1.409 1_554 S
C891 H883 0.930 . S
C891 C892 1.355 . S
C891 C893 1.415 . S
C892 C891 1.355 . S
C892 C894 1.419 . S
C893 C888 1.425 1_556 S
C893 C890 1.409 1_556 S
C893 C891 1.415 . S
C894 H884 0.930 . S
C894 C892 1.419 . S
C894 C895 1.362 . S
C895 H885 0.934 . S
C895 C888 1.409 1_556 S
C895 C894 1.362 . S
H896 C902 0.930 . S
H897 C905 0.930 . S
H898 C906 0.930 . S
H899 C907 0.930 . S
H900 C910 0.930 . S
H901 C911 0.930 . S
C902 H896 0.930 . S
C902 C903 1.355 . S
C902 C904 1.415 . S
C903 C902 1.355 . S
C903 C905 1.419 . S
C904 C902 1.415 . S
C904 C909 1.425 . S
C904 C911 1.409 . S
C905 H897 0.930 . S
C905 C903 1.419 . S
C905 C906 1.362 . S
C906 H898 0.930 . S
C906 C905 1.362 . S
C906 C909 1.409 . S
C907 H899 0.930 . S
C907 C908 1.355 . S
C907 C909 1.415 . S
C908 C907 1.355 . S
C908 C910 1.419 . S
C909 C904 1.425 . S
C909 C906 1.409 . S
C909 C907 1.415 . S
C910 H900 0.930 . S
C910 C908 1.419 . S
C910 C911 1.362 . S
C911 H901 0.930 . S
C911 C904 1.409 . S
C911 C910 1.362 . S
H912 C918 0.930 . S
H913 C921 0.930 . S
H914 C922 0.930 . S
H915 C923 0.930 . S
H916 C926 0.930 . S
H917 C927 0.930 . S
C918 H912 0.930 . S
C918 C919 1.355 . S
C918 C920 1.415 . S
C919 C918 1.355 . S
C919 C921 1.419 . S
C920 C918 1.415 . S
C920 C925 1.425 . S
C920 C927 1.409 . S
C921 H913 0.930 . S
C921 C919 1.419 . S
C921 C922 1.362 . S
C922 H914 0.930 . S
C922 C921 1.362 . S
C922 C925 1.409 . S
C923 H915 0.930 . S
C923 C924 1.355 . S
C923 C925 1.415 . S
C924 C923 1.355 . S
C924 C926 1.419 . S
C925 C920 1.425 . S
C925 C922 1.409 . S
C925 C923 1.415 . S
C926 H916 0.930 . S
C926 C924 1.419 . S
C926 C927 1.362 . S
C927 H917 0.930 . S
C927 C920 1.409 . S
C927 C926 1.362 . S
H928 C934 0.930 . S
H929 C937 0.930 . S
H930 C938 0.930 . S
H931 C939 0.930 . S
H932 C942 0.930 . S
H933 C943 0.930 . S
C934 H928 0.930 . S
C934 C935 1.355 . S
C934 C936 1.415 . S
C935 C934 1.355 . S
C935 C937 1.419 . S
C936 C934 1.415 . S
C936 C941 1.425 . S
C936 C943 1.409 . S
C937 H929 0.930 . S
C937 C935 1.419 . S
C937 C938 1.362 . S
C938 H930 0.930 . S
C938 C937 1.362 . S
C938 C941 1.409 . S
C939 H931 0.930 . S
C939 C940 1.355 . S
C939 C941 1.415 . S
C940 C939 1.355 . S
C940 C942 1.419 . S
C941 C936 1.425 . S
C941 C938 1.409 . S
C941 C939 1.415 . S
C942 H932 0.930 . S
C942 C940 1.419 . S
C942 C943 1.362 . S
C943 H933 0.930 . S
C943 C936 1.409 . S
C943 C942 1.362 . S
H944 C950 0.930 . S
H945 C953 0.930 . S
H946 C954 0.930 . S
H947 C955 0.930 . S
H948 C958 0.930 . S
H949 C959 0.930 . S
C950 H944 0.930 . S
C950 C951 1.355 . S
C950 C952 1.415 . S
C951 C950 1.355 . S
C951 C953 1.419 . S
C952 C950 1.415 . S
C952 C957 1.425 . S
C952 C959 1.409 . S
C953 H945 0.930 . S
C953 C951 1.419 . S
C953 C954 1.362 . S
C954 H946 0.930 . S
C954 C953 1.362 . S
C954 C957 1.409 . S
C955 H947 0.930 . S
C955 C956 1.355 . S
C955 C957 1.415 . S
C956 C955 1.355 . S
C956 C958 1.419 . S
C957 C952 1.425 . S
C957 C954 1.409 . S
C957 C955 1.415 . S
C958 H948 0.930 . S
C958 C956 1.419 . S
C958 C959 1.362 . S
C959 H949 0.930 . S
C959 C952 1.409 . S
C959 C958 1.362 . S
H960 C966 0.930 . S
H961 C969 0.930 . S
H962 C970 0.930 . S
H963 C971 0.930 . S
H964 C974 0.930 . S
H965 C975 0.930 . S
C966 H960 0.930 . S
C966 C967 1.355 . S
C966 C968 1.415 . S
C967 C966 1.355 . S
C967 C969 1.419 . S
C968 C966 1.415 . S
C968 C973 1.425 . S
C968 C975 1.409 . S
C969 H961 0.930 . S
C969 C967 1.419 . S
C969 C970 1.362 . S
C970 H962 0.930 . S
C970 C969 1.362 . S
C970 C973 1.409 . S
C971 H963 0.930 . S
C971 C972 1.355 . S
C971 C973 1.415 . S
C972 C971 1.355 . S
C972 C974 1.419 . S
C973 C968 1.425 . S
C973 C970 1.409 . S
C973 C971 1.415 . S
C974 H964 0.930 . S
C974 C972 1.419 . S
C974 C975 1.362 . S
C975 H965 0.930 . S
C975 C968 1.409 . S
C975 C974 1.362 . S
H976 C982 0.930 . S
H977 C985 0.930 . S
H978 C986 0.930 . S
H979 C987 0.930 . S
H980 C990 0.930 . S
H981 C991 0.930 . S
C982 H976 0.930 . S
C982 C983 1.355 . S
C982 C984 1.415 . S
C983 C982 1.355 . S
C983 C985 1.419 . S
C984 C982 1.415 . S
C984 C989 1.425 . S
C984 C991 1.409 . S
C985 H977 0.930 . S
C985 C983 1.419 . S
C985 C986 1.362 . S
C986 H978 0.930 . S
C986 C985 1.362 . S
C986 C989 1.409 . S
C987 H979 0.930 . S
C987 C988 1.355 . S
C987 C989 1.415 . S
C988 C987 1.355 . S
C988 C990 1.419 . S
C989 C984 1.425 . S
C989 C986 1.409 . S
C989 C987 1.415 . S
C990 H980 0.930 . S
C990 C988 1.419 . S
C990 C991 1.362 . S
C991 H981 0.930 . S
C991 C984 1.409 . S
C991 C990 1.362 . S
H992 C998 0.930 . S
H993 C1001 0.930 . S
H994 C1002 0.930 . S
H995 C1003 0.930 . S
H996 C1006 0.930 . S
H997 C1007 0.930 . S
C998 H992 0.930 . S
C998 C999 1.355 . S
C998 C1000 1.415 . S
C999 C998 1.355 . S
C999 C1001 1.419 . S
C1000 C998 1.415 . S
C1000 C1005 1.425 . S
C1000 C1007 1.409 . S
C1001 H993 0.930 . S
C1001 C999 1.419 . S
C1001 C1002 1.362 . S
C1002 H994 0.930 . S
C1002 C1001 1.362 . S
C1002 C1005 1.409 . S
C1003 H995 0.930 . S
C1003 C1004 1.355 . S
C1003 C1005 1.415 . S
C1004 C1003 1.355 . S
C1004 C1006 1.419 . S
C1005 C1000 1.425 . S
C1005 C1002 1.409 . S
C1005 C1003 1.415 . S
C1006 H996 0.930 . S
C1006 C1004 1.419 . S
C1006 C1007 1.362 . S
C1007 H997 0.930 . S
C1007 C1000 1.409 . S
C1007 C1006 1.362 . S
H1008 C1014 0.930 . S
H1009 C1017 0.930 . S
H1010 C1018 0.930 . S
H1011 C1019 0.930 . S
H1012 C1022 0.930 . S
H1013 C1023 0.930 . S
C1014 H1008 0.930 . S
C1014 C1015 1.355 . S
C1014 C1016 1.415 . S
C1015 C1014 1.355 . S
C1015 C1017 1.419 . S
C1016 C1014 1.415 . S
C1016 C1021 1.425 . S
C1016 C1023 1.409 . S
C1017 H1009 0.930 . S
C1017 C1015 1.419 . S
C1017 C1018 1.362 . S
C1018 H1010 0.930 . S
C1018 C1017 1.362 . S
C1018 C1021 1.409 . S
C1019 H1011 0.930 . S
C1019 C1020 1.355 . S
C1019 C1021 1.415 . S
C1020 C1019 1.355 . S
C1020 C1022 1.419 . S
C1021 C1016 1.425 . S
C1021 C1018 1.409 . S
C1021 C1019 1.415 . S
C1022 H1012 0.930 . S
C1022 C1020 1.419 . S
C1022 C1023 1.362 . S
C1023 H1013 0.930 . S
C1023 C1016 1.409 . S
C1023 C1022 1.362 . S
H1024 C1030 0.930 . S
H1025 C1033 0.930 . S
H1026 C1034 0.930 . S
H1027 C1035 0.930 . S
H1028 C1038 0.930 . S
H1029 C1039 0.930 . S
C1030 H1024 0.930 . S
C1030 C1031 1.355 . S
C1030 C1032 1.415 . S
C1031 C1030 1.355 . S
C1031 C1033 1.419 . S
C1032 C1030 1.415 . S
C1032 C1037 1.425 . S
C1032 C1039 1.409 . S
C1033 H1025 0.930 . S
C1033 C1031 1.419 . S
C1033 C1034 1.362 . S
C1034 H1026 0.930 . S
C1034 C1033 1.362 . S
C1034 C1037 1.409 . S
C1035 H1027 0.930 . S
C1035 C1036 1.355 . S
C1035 C1037 1.415 . S
C1036 C1035 1.355 . S
C1036 C1038 1.419 . S
C1037 C1032 1.425 . S
C1037 C1034 1.409 . S
C1037 C1035 1.415 . S
C1038 H1028 0.930 . S
C1038 C1036 1.419 . S
C1038 C1039 1.362 . S
C1039 H1029 0.930 . S
C1039 C1032 1.409 . S
C1039 C1038 1.362 . S
H1040 C1046 0.930 . S
H1041 C1049 0.930 . S
H1042 C1050 0.930 . S
H1043 C1051 0.930 . S
H1044 C1054 0.930 . S
H1045 C1055 0.930 . S
C1046 H1040 0.930 . S
C1046 C1047 1.355 . S
C1046 C1048 1.415 . S
C1047 C1046 1.355 . S
C1047 C1049 1.419 . S
C1048 C1046 1.415 . S
C1048 C1053 1.425 . S
C1048 C1055 1.409 . S
C1049 H1041 0.930 . S
C1049 C1047 1.419 . S
C1049 C1050 1.362 . S
C1050 H1042 0.930 . S
C1050 C1049 1.362 . S
C1050 C1053 1.409 . S
C1051 H1043 0.930 . S
C1051 C1052 1.355 . S
C1051 C1053 1.415 . S
C1052 C1051 1.355 . S
C1052 C1054 1.419 . S
C1053 C1048 1.425 . S
C1053 C1050 1.409 . S
C1053 C1051 1.415 . S
C1054 H1044 0.930 . S
C1054 C1052 1.419 . S
C1054 C1055 1.362 . S
C1055 H1045 0.930 . S
C1055 C1048 1.409 . S
C1055 C1054 1.362 . S
H1056 C1062 0.930 . S
H1057 C1065 0.930 . S
H1058 C1066 0.930 . S
H1059 C1067 0.930 . S
H1060 C1070 0.930 . S
H1061 C1071 0.930 . S
C1062 H1056 0.930 . S
C1062 C1063 1.355 . S
C1062 C1064 1.415 . S
C1063 C1062 1.355 . S
C1063 C1065 1.419 . S
C1064 C1062 1.415 . S
C1064 C1069 1.425 . S
C1064 C1071 1.409 . S
C1065 H1057 0.930 . S
C1065 C1063 1.419 . S
C1065 C1066 1.362 . S
C1066 H1058 0.930 . S
C1066 C1065 1.362 . S
C1066 C1069 1.409 . S
C1067 H1059 0.930 . S
C1067 C1068 1.355 . S
C1067 C1069 1.415 . S
C1068 C1067 1.355 . S
C1068 C1070 1.419 . S
C1069 C1064 1.425 . S
C1069 C1066 1.409 . S
C1069 C1067 1.415 . S
C1070 H1060 0.930 . S
C1070 C1068 1.419 . S
C1070 C1071 1.362 . S
C1071 H1061 0.930 . S
C1071 C1064 1.409 . S
C1071 C1070 1.362 . S
H1072 C1078 0.930 . S
H1073 C1081 0.930 . S
H1074 C1082 0.930 . S
H1075 C1083 0.930 . S
H1076 C1086 0.930 . S
H1077 C1087 0.930 . S
C1078 H1072 0.930 . S
C1078 C1079 1.355 . S
C1078 C1080 1.415 . S
C1079 C1078 1.355 . S
C1079 C1081 1.419 . S
C1080 C1078 1.415 . S
C1080 C1085 1.425 . S
C1080 C1087 1.409 . S
C1081 H1073 0.930 . S
C1081 C1079 1.419 . S
C1081 C1082 1.362 . S
C1082 H1074 0.930 . S
C1082 C1081 1.362 . S
C1082 C1085 1.409 . S
C1083 H1075 0.930 . S
C1083 C1084 1.355 . S
C1083 C1085 1.415 . S
C1084 C1083 1.355 . S
C1084 C1086 1.419 . S
C1085 C1080 1.425 . S
C1085 C1082 1.409 . S
C1085 C1083 1.415 . S
C1086 H1076 0.930 . S
C1086 C1084 1.419 . S
C1086 C1087 1.362 . S
C1087 H1077 0.930 . S
C1087 C1080 1.409 . S
C1087 C1086 1.362 . S
H1088 C1094 0.930 . S
H1089 C1097 0.930 . S
H1090 C1098 0.930 . S
H1091 C1099 0.930 . S
H1092 C1102 0.930 . S
H1093 C1103 0.930 . S
C1094 H1088 0.930 . S
C1094 C1095 1.355 . S
C1094 C1096 1.415 . S
C1095 C1094 1.355 . S
C1095 C1097 1.419 . S
C1096 C1094 1.415 . S
C1096 C1101 1.425 . S
C1096 C1103 1.409 . S
C1097 H1089 0.930 . S
C1097 C1095 1.419 . S
C1097 C1098 1.362 . S
C1098 H1090 0.930 . S
C1098 C1097 1.362 . S
C1098 C1101 1.409 . S
C1099 H1091 0.930 . S
C1099 C1100 1.355 . S
C1099 C1101 1.415 . S
C1100 C1099 1.355 . S
C1100 C1102 1.419 . S
C1101 C1096 1.425 . S
C1101 C1098 1.409 . S
C1101 C1099 1.415 . S
C1102 H1092 0.930 . S
C1102 C1100 1.419 . S
C1102 C1103 1.362 . S
C1103 H1093 0.930 . S
C1103 C1096 1.409 . S
C1103 C1102 1.362 . S
H1104 C1110 0.930 . S
H1105 C1113 0.930 . S
H1106 C1114 0.930 . S
H1107 C1115 0.930 . S
H1108 C1118 0.930 . S
H1109 C1119 0.930 . S
C1110 H1104 0.930 . S
C1110 C1111 1.355 . S
C1110 C1112 1.415 . S
C1111 C1110 1.355 . S
C1111 C1113 1.419 . S
C1112 C1110 1.415 . S
C1112 C1117 1.425 . S
C1112 C1119 1.409 . S
C1113 H1105 0.930 . S
C1113 C1111 1.419 . S
C1113 C1114 1.362 . S
C1114 H1106 0.930 . S
C1114 C1113 1.362 . S
C1114 C1117 1.409 . S
C1115 H1107 0.930 . S
C1115 C1116 1.355 . S
C1115 C1117 1.415 . S
C1116 C1115 1.355 . S
C1116 C1118 1.419 . S
C1117 C1112 1.425 . S
C1117 C1114 1.409 . S
C1117 C1115 1.415 . S
C1118 H1108 0.930 . S
C1118 C1116 1.419 . S
C1118 C1119 1.362 . S
C1119 H1109 0.930 . S
C1119 C1112 1.409 . S
C1119 C1118 1.362 . S
H1120 C1126 0.930 . S
H1121 C1129 0.930 . S
H1122 C1130 0.930 . S
H1123 C1131 0.930 . S
H1124 C1134 0.930 . S
H1125 C1135 0.930 . S
C1126 H1120 0.930 . S
C1126 C1127 1.355 . S
C1126 C1128 1.415 . S
C1127 C1126 1.355 . S
C1127 C1129 1.419 . S
C1128 C1126 1.415 . S
C1128 C1133 1.425 . S
C1128 C1135 1.409 . S
C1129 H1121 0.930 . S
C1129 C1127 1.419 . S
C1129 C1130 1.362 . S
C1130 H1122 0.930 . S
C1130 C1129 1.362 . S
C1130 C1133 1.409 . S
C1131 H1123 0.930 . S
C1131 C1132 1.355 . S
C1131 C1133 1.415 . S
C1132 C1131 1.355 . S
C1132 C1134 1.419 . S
C1133 C1128 1.425 . S
C1133 C1130 1.409 . S
C1133 C1131 1.415 . S
C1134 H1124 0.930 . S
C1134 C1132 1.419 . S
C1134 C1135 1.362 . S
C1135 H1125 0.930 . S
C1135 C1128 1.409 . S
C1135 C1134 1.362 . S
H1136 C1142 0.930 . S
H1137 C1145 0.930 . S
H1138 C1146 0.930 . S
H1139 C1147 0.930 . S
H1140 C1150 0.930 . S
H1141 C1151 0.930 . S
C1142 H1136 0.930 . S
C1142 C1143 1.355 . S
C1142 C1144 1.415 . S
C1143 C1142 1.355 . S
C1143 C1145 1.419 . S
C1144 C1142 1.415 . S
C1144 C1149 1.425 . S
C1144 C1151 1.409 . S
C1145 H1137 0.930 . S
C1145 C1143 1.419 . S
C1145 C1146 1.362 . S
C1146 H1138 0.930 . S
C1146 C1145 1.362 . S
C1146 C1149 1.409 . S
C1147 H1139 0.930 . S
C1147 C1148 1.355 . S
C1147 C1149 1.415 . S
C1148 C1147 1.355 . S
C1148 C1150 1.419 . S
C1149 C1144 1.425 . S
C1149 C1146 1.409 . S
C1149 C1147 1.415 . S
C1150 H1140 0.930 . S
C1150 C1148 1.419 . S
C1150 C1151 1.362 . S
C1151 H1141 0.930 . S
C1151 C1144 1.409 . S
C1151 C1150 1.362 . S
H1152 C1158 0.930 . S
H1153 C1161 0.930 . S
H1154 C1162 0.930 . S
H1155 C1163 0.930 . S
H1156 C1166 0.930 . S
H1157 C1167 0.930 . S
C1158 H1152 0.930 . S
C1158 C1159 1.355 . S
C1158 C1160 1.415 . S
C1159 C1158 1.355 . S
C1159 C1161 1.419 . S
C1160 C1158 1.415 . S
C1160 C1165 1.425 . S
C1160 C1167 1.409 . S
C1161 H1153 0.930 . S
C1161 C1159 1.419 . S
C1161 C1162 1.362 . S
C1162 H1154 0.930 . S
C1162 C1161 1.362 . S
C1162 C1165 1.409 . S
C1163 H1155 0.930 . S
C1163 C1164 1.355 . S
C1163 C1165 1.415 . S
C1164 C1163 1.355 . S
C1164 C1166 1.419 . S
C1165 C1160 1.425 . S
C1165 C1162 1.409 . S
C1165 C1163 1.415 . S
C1166 H1156 0.930 . S
C1166 C1164 1.419 . S
C1166 C1167 1.362 . S
C1167 H1157 0.930 . S
C1167 C1160 1.409 . S
C1167 C1166 1.362 . S
C535 N410 1.448 . S
C540 N5 1.452 . S
C551 N47 1.392 . S
C556 N434 1.415 . S
C567 N71 1.463 . S
C572 N476 1.459 . S
C583 N113 1.406 . S
C588 N500 1.422 . S
C599 N269 1.415 . S
C604 N146 1.393 . S
C615 N311 1.484 . S
C620 N170 1.476 . S
C631 N212 1.474 . S
C636 N335 1.484 . S
C647 N377 1.425 . S
C652 N236 1.424 . S
C663 C17 1.135 . S
C668 C479 1.136 . S
C679 C512 1.102 . S
C684 C50 1.104 . S
C695 C413 1.136 . S
C700 C83 1.135 . S
C711 C446 1.102 . S
C716 C116 1.103 . S
C727 C347 1.109 . S
C732 C149 1.114 . S
C743 C380 1.136 . S
C748 C182 1.135 . S
C759 C281 1.101 . S
C764 C215 1.096 . S
C775 C314 1.128 . S
C780 C248 1.130 . S
C791 C8 1.324 . S
C796 C358 1.362 . S
C807 C371 1.410 . S
C812 C61 1.301 . S
C823 C292 1.372 . S
C828 C74 1.249 . S
C839 C305 1.409 . S
C844 C127 1.327 . S
C855 C160 1.370 . S
C860 C470 1.384 . S
C871 C173 1.261 . S
C876 C523 1.359 . S
C887 C404 1.386 . S
C892 C226 1.368 . S
C903 C239 1.250 . S
C908 C457 1.380 . S
C919 N401 1.751 . S
C924 N14 1.735 . S
C935 N38 1.783 . S
C940 N443 1.785 . S
C951 N80 1.738 . S
C956 N467 1.753 . S
C967 N509 1.834 . S
C972 N104 1.833 . S
C983 N278 1.819 . S
C988 N137 1.817 . S
C999 N179 1.811 . S
C1004 N302 1.822 . S
C1015 N344 1.814 . S
C1020 N203 1.812 . S
C1031 N368 1.797 . S
C1036 N245 1.784 . S
C1047 C193 1.607 . S
C1052 C28 1.556 . S
C1063 C206 1.471 . S
C1068 C41 1.522 . S
C1079 C94 1.535 . S
C1084 C259 1.591 . S
C1095 C140 1.537 . S
C1100 C107 1.567 . S
C1111 C272 1.380 . S
C1116 C437 1.416 . S
C1127 C490 1.383 . S
C1132 C325 1.401 . S
C1143 C503 1.387 . S
C1148 C338 1.344 . S
C1159 C391 1.454 . S
C1164 C424 1.472 . S
