# Generated by pormake.
# Topology vmh, (6)-cn, num edge types: 1
# Building blocks:
#     Node 0, Type 0, BuildingBlock: OJICUG_clean_sbu_0, # of connection points: 6
#     Node 1, Type 0, BuildingBlock: OJICUG_clean_sbu_0, # of connection points: 6
#     Node 2, Type 0, BuildingBlock: OJICUG_clean_sbu_0, # of connection points: 6
#     Node 3, Type 0, BuildingBlock: OJICUG_clean_sbu_0, # of connection points: 6
#     Node 4, Type 0, BuildingBlock: OJICUG_clean_sbu_0, # of connection points: 6
#     Node 5, Type 0, BuildingBlock: OJICUG_clean_sbu_0, # of connection points: 6
#     Node 6, Type 0, BuildingBlock: OJICUG_clean_sbu_0, # of connection points: 6
#     Node 7, Type 0, BuildingBlock: OJICUG_clean_sbu_0, # of connection points: 6
#     Edge 8, Type (0, 0), BuildingBlock: EZIPEK_clean_linker_0, # of connection points: 2
#     Edge 9, Type (0, 0), BuildingBlock: EZIPEK_clean_linker_0, # of connection points: 2
#     Edge 10, Type (0, 0), BuildingBlock: EZIPEK_clean_linker_0, # of connection points: 2
#     Edge 11, Type (0, 0), BuildingBlock: EZIPEK_clean_linker_0, # of connection points: 2
#     Edge 12, Type (0, 0), BuildingBlock: EZIPEK_clean_linker_0, # of connection points: 2
#     Edge 13, Type (0, 0), BuildingBlock: EZIPEK_clean_linker_0, # of connection points: 2
#     Edge 14, Type (0, 0), BuildingBlock: EZIPEK_clean_linker_0, # of connection points: 2
#     Edge 15, Type (0, 0), BuildingBlock: EZIPEK_clean_linker_0, # of connection points: 2
#     Edge 16, Type (0, 0), BuildingBlock: EZIPEK_clean_linker_0, # of connection points: 2
#     Edge 17, Type (0, 0), BuildingBlock: EZIPEK_clean_linker_0, # of connection points: 2
#     Edge 18, Type (0, 0), BuildingBlock: EZIPEK_clean_linker_0, # of connection points: 2
#     Edge 19, Type (0, 0), BuildingBlock: EZIPEK_clean_linker_0, # of connection points: 2
#     Edge 20, Type (0, 0), BuildingBlock: EZIPEK_clean_linker_0, # of connection points: 2
#     Edge 21, Type (0, 0), BuildingBlock: EZIPEK_clean_linker_0, # of connection points: 2
#     Edge 22, Type (0, 0), BuildingBlock: EZIPEK_clean_linker_0, # of connection points: 2
#     Edge 23, Type (0, 0), BuildingBlock: EZIPEK_clean_linker_0, # of connection points: 2
#     Edge 24, Type (0, 0), BuildingBlock: EZIPEK_clean_linker_0, # of connection points: 2
#     Edge 25, Type (0, 0), BuildingBlock: EZIPEK_clean_linker_0, # of connection points: 2
#     Edge 26, Type (0, 0), BuildingBlock: EZIPEK_clean_linker_0, # of connection points: 2
#     Edge 27, Type (0, 0), BuildingBlock: EZIPEK_clean_linker_0, # of connection points: 2
#     Edge 28, Type (0, 0), BuildingBlock: EZIPEK_clean_linker_0, # of connection points: 2
#     Edge 29, Type (0, 0), BuildingBlock: EZIPEK_clean_linker_0, # of connection points: 2
#     Edge 30, Type (0, 0), BuildingBlock: EZIPEK_clean_linker_0, # of connection points: 2
#     Edge 31, Type (0, 0), BuildingBlock: EZIPEK_clean_linker_0, # of connection points: 2
# Relax obj value: 0.243
# Max RMSD: 0.270
# Mean RMSD: 0.270
data_MOF--net-vmh--node1-OJICUG_clean_sbu_0--edge1-EZIPEK_clean_linker_0
_symmetry_space_group_name_H-M    P1
_symmetry_Int_Tables_number       1
_symmetry_cell_setting            triclinic
loop_
_symmetry_equiv_pos_as_xyz
'x, y, z'
_cell_length_a     21.650064
_cell_length_b     32.420484
_cell_length_c     22.676048
_cell_angle_alpha  90.342998
_cell_angle_beta   102.12855
_cell_angle_gamma 90.157755
loop_
_atom_site_label
_atom_site_type_symbol
_atom_site_fract_x
_atom_site_fract_y
_atom_site_fract_z
_atom_type_partial_charge
Sc0 Sc 0.22015 0.09981 0.1328 0.0
Sc1 Sc 0.26035 0.01113 0.06379 0.0
Sc2 Sc 0.33636 0.10415 0.04988 0.0
O3 O 0.27031 0.07179 0.08019 0.0
C4 C 0.23743 0.17019 0.03734 0.0
C5 C 0.11801 0.0405 0.05558 0.0
C6 C 0.27938 0.04468 0.93981 0.0
C7 C 0.24594 0.01272 0.19714 0.0
C8 C 0.36206 0.13022 0.18235 0.0
C9 C 0.40845 0.02415 0.08063 0.0
O10 O 0.21937 0.15846 0.08476 0.0
O11 O 0.16015 0.01307 0.05726 0.0
O12 O 0.3184 0.07179 0.96555 0.0
O13 O 0.21588 0.04649 0.188 0.0
O14 O 0.36337 0.14173 0.12947 0.0
O15 O 0.3586 0.0025 0.06579 0.0
O16 O 0.31125 0.11522 0.19411 0.0
O17 O 0.27509 0.99715 0.15908 0.0
O18 O 0.40632 0.06239 0.09054 0.0
O19 O 0.13101 0.078 0.07355 0.0
O20 O 0.26904 0.14753 0.00934 0.0
O21 O 0.24628 0.02246 0.96784 0.0
Sc22 Sc 0.76151 0.08498 0.37568 0.0
Sc23 Sc 0.73594 0.0024 0.46868 0.0
Sc24 Sc 0.66191 0.09688 0.47681 0.0
O25 O 0.72054 0.06145 0.44011 0.0
C26 C 0.7546 0.16642 0.45049 0.0
C27 C 0.87336 0.03212 0.46212 0.0
C28 C 0.73144 0.05402 0.59078 0.0
C29 C 0.73772 0.99247 0.32896 0.0
C30 C 0.61197 0.11177 0.33849 0.0
C31 C 0.59846 0.00853 0.47457 0.0
O32 O 0.7856 0.14372 0.42132 0.0
O33 O 0.83499 0.01139 0.48543 0.0
O34 O 0.71838 0.08855 0.56513 0.0
O35 O 0.74339 0.03077 0.32082 0.0
O36 O 0.60188 0.10611 0.39096 0.0
O37 O 0.63817 0.98773 0.45363 0.0
O38 O 0.66724 0.10817 0.32586 0.0
O39 O 0.73638 0.97685 0.37996 0.0
O40 O 0.60587 0.04599 0.48984 0.0
O41 O 0.85567 0.05987 0.42146 0.0
O42 O 0.70752 0.15372 0.46972 0.0
O43 O 0.73525 0.02049 0.56178 0.0
Sc44 Sc 0.76466 0.91333 0.87753 0.0
Sc45 Sc 0.73366 0.99544 0.96705 0.0
Sc46 Sc 0.65126 0.90336 0.96267 0.0
O47 O 0.71879 0.9371 0.93729 0.0
C48 C 0.62357 0.88245 0.82613 0.0
C49 C 0.74091 0.00595 0.8317 0.0
C50 C 0.58485 0.98552 0.94701 0.0
C51 C 0.87292 0.96552 0.96264 0.0
C52 C 0.74862 0.8369 0.96442 0.0
C53 C 0.71174 0.95264 0.0834 0.0
O54 O 0.67258 0.90081 0.81576 0.0
O55 O 0.71979 0.01929 0.87654 0.0
O56 O 0.58471 0.94899 0.92769 0.0
O57 O 0.85703 0.93086 0.93538 0.0
O58 O 0.71649 0.85689 0.99533 0.0
O59 O 0.74816 0.97528 0.05979 0.0
O60 O 0.76655 0.85193 0.91859 0.0
O61 O 0.8329 0.99203 0.97173 0.0
O62 O 0.66987 0.92928 0.05235 0.0
O63 O 0.76529 0.97044 0.83009 0.0
O64 O 0.62125 0.87072 0.87866 0.0
O65 O 0.63617 0.00467 0.96764 0.0
Sc66 Sc 0.22086 0.90388 0.64188 0.0
Sc67 Sc 0.24181 0.98982 0.55904 0.0
Sc68 Sc 0.3256 0.90135 0.5466 0.0
O69 O 0.26138 0.93114 0.58196 0.0
C70 C 0.36596 0.87731 0.68145 0.0
C71 C 0.25019 0.99559 0.69528 0.0
C72 C 0.3877 0.98516 0.56471 0.0
C73 C 0.10854 0.95683 0.56877 0.0
C74 C 0.23391 0.83014 0.54791 0.0
C75 C 0.24808 0.95378 0.43676 0.0
O76 O 0.31592 0.8907 0.69697 0.0
O77 O 0.26931 0.01005 0.65032 0.0
O78 O 0.391 0.94804 0.58122 0.0
O79 O 0.1264 0.92049 0.5875 0.0
O80 O 0.26269 0.85198 0.51586 0.0
O81 O 0.21152 0.96968 0.46748 0.0
O82 O 0.21772 0.84391 0.59553 0.0
O83 O 0.14686 0.9863 0.56925 0.0
O84 O 0.29619 0.93249 0.46057 0.0
O85 O 0.22318 0.96041 0.6946 0.0
O86 O 0.3656 0.86806 0.627 0.0
O87 O 0.33515 0.00251 0.54511 0.0
Sc88 Sc 0.74518 0.59 0.10039 0.0
Sc89 Sc 0.77344 0.50481 0.01503 0.0
Sc90 Sc 0.83569 0.59915 0.99543 0.0
O91 O 0.78265 0.56463 0.03724 0.0
C92 C 0.74962 0.66842 0.02732 0.0
C93 C 0.63635 0.52846 0.02335 0.0
C94 C 0.75795 0.55631 0.88984 0.0
C95 C 0.77386 0.50212 0.15646 0.0
C96 C 0.89517 0.61459 0.12926 0.0
C97 C 0.90505 0.51788 -0.00096 0.0
O98 O 0.71332 0.64425 0.0479 0.0
O99 O 0.67466 0.5085 -0.00091 0.0
O100 O 0.76547 0.59164 0.9152 0.0
O101 O 0.774 0.54097 0.16027 0.0
O102 O 0.90387 0.60384 0.0775 0.0
O103 O 0.87447 0.49854 0.0319 0.0
O104 O 0.83966 0.61764 0.14174 0.0
O105 O 0.77207 0.483 0.10666 0.0
O106 O 0.87991 0.54743 0.96755 0.0
O107 O 0.65284 0.55836 0.06161 0.0
O108 O 0.80092 0.65694 0.01534 0.0
O109 O 0.76726 0.52231 0.91954 0.0
Sc110 Sc 0.26889 0.5922 0.37937 0.0
Sc111 Sc 0.2263 0.49572 0.42891 0.0
Sc112 Sc 0.14052 0.5849 0.45029 0.0
O113 O 0.21265 0.55771 0.42034 0.0
C114 C 0.23347 0.66103 0.4683 0.0
C115 C 0.36896 0.5308 0.45732 0.0
C116 C 0.20332 0.52772 0.55749 0.0
C117 C 0.26188 0.50864 0.30314 0.0
C118 C 0.12338 0.61626 0.31659 0.0
C119 C 0.07795 0.49824 0.40495 0.0
O120 O 0.26908 0.64704 0.43498 0.0
O121 O 0.32691 0.50304 0.45437 0.0
O122 O 0.17451 0.56055 0.53793 0.0
O123 O 0.28014 0.54503 0.31763 0.0
O124 O 0.10238 0.60955 0.36378 0.0
O125 O 0.12796 0.4788 0.4026 0.0
O126 O 0.18216 0.61244 0.31436 0.0
O127 O 0.23288 0.48679 0.33523 0.0
O128 O 0.07862 0.53472 0.42477 0.0
O129 O 0.35629 0.5679 0.4383 0.0
O130 O 0.18718 0.64118 0.47929 0.0
O131 O 0.22206 0.50056 0.52403 0.0
Sc132 Sc 0.27515 0.40637 0.86368 0.0
Sc133 Sc 0.277 0.49649 0.94506 0.0
Sc134 Sc 0.18698 0.41356 0.97389 0.0
O135 O 0.24577 0.43835 0.92779 0.0
C136 C 0.12527 0.39015 0.83597 0.0
C137 C 0.24639 0.49565 0.80852 0.0
C138 C 0.14701 0.50269 0.98201 0.0
C139 C 0.39576 0.4551 0.92252 0.0
C140 C 0.25945 0.33437 0.95546 0.0
C141 C 0.29483 0.45921 0.07256 0.0
O142 O 0.17599 0.397 0.81654 0.0
O143 O 0.23181 0.51285 0.85451 0.0
O144 O 0.13152 0.46661 0.96391 0.0
O145 O 0.37404 0.41834 0.91165 0.0
O146 O 0.23631 0.35767 0.98976 0.0
O147 O 0.32128 0.47775 0.03481 0.0
O148 O 0.27436 0.34659 0.90702 0.0
O149 O 0.3598 0.48576 0.91183 0.0
O150 O 0.24422 0.43782 0.05689 0.0
O151 O 0.27567 0.46146 0.81065 0.0
O152 O 0.12457 0.38986 0.89227 0.0
O153 O 0.20024 0.51839 0.98215 0.0
Sc154 Sc 0.73601 0.4096 0.60353 0.0
Sc155 Sc 0.75026 0.49567 0.51472 0.0
Sc156 Sc 0.85533 0.41628 0.52353 0.0
O157 O 0.77745 0.43864 0.54534 0.0
C158 C 0.88413 0.39033 0.66016 0.0
C159 C 0.75101 0.50395 0.65099 0.0
C160 C 0.89432 0.49962 0.51948 0.0
C161 C 0.61837 0.45848 0.52911 0.0
C162 C 0.77224 0.3371 0.51745 0.0
C163 C 0.77337 0.45428 0.4006 0.0
O164 O 0.82731 0.39627 0.66656 0.0
O165 O 0.76847 0.51978 0.60548 0.0
O166 O 0.89339 0.47323 0.55874 0.0
O167 O 0.63996 0.42324 0.54943 0.0
O168 O 0.81329 0.35784 0.49723 0.0
O169 O 0.73065 0.46884 0.42586 0.0
O170 O 0.74076 0.35113 0.55538 0.0
O171 O 0.65434 0.48776 0.52133 0.0
O172 O 0.82427 0.43881 0.43117 0.0
O173 O 0.73265 0.46651 0.65308 0.0
O174 O 0.89891 0.39278 0.6094 0.0
O175 O 0.84108 0.51469 0.49644 0.0
C176 C 0.3267 0.03312 0.84878 0.0
C177 C 0.27264 0.03956 0.87396 0.0
C178 C 0.20381 0.02948 0.77507 0.0
C179 C 0.25761 0.02045 0.75105 0.0
N180 N 0.36873 0.0339 0.75807 0.0
N181 N 0.16539 0.06382 0.85523 0.0
C182 C 0.31871 0.02913 0.78542 0.0
C183 C 0.21248 0.04366 0.83544 0.0
N184 N 0.38514 0.02856 0.88506 0.0
N185 N 0.14473 0.025 0.73995 0.0
H186 H 0.17312 0.07832 0.89738 0.0
H187 H 0.12176 0.07045 0.82758 0.0
H188 H 0.13743 0.01877 0.69381 0.0
H189 H 0.1037 0.02646 0.75706 0.0
H190 H 0.42497 0.02061 0.86863 0.0
H191 H 0.39312 0.02915 0.93194 0.0
H192 H 0.41271 0.0447 0.78094 0.0
H193 H 0.36506 0.03099 0.71174 0.0
C194 C 0.79583 0.03788 0.75817 0.0
C195 C 0.73868 0.03196 0.77791 0.0
C196 C 0.67885 0.05422 0.67938 0.0
C197 C 0.73522 0.05166 0.65661 0.0
N198 N 0.84758 0.04143 0.67357 0.0
N199 N 0.62522 0.037 0.75984 0.0
C200 C 0.79397 0.04408 0.696 0.0
C201 C 0.68 0.04179 0.73969 0.0
N202 N 0.85172 0.03778 0.79949 0.0
N203 N 0.62414 0.06787 0.64322 0.0
H204 H 0.62437 0.03084 0.80465 0.0
H205 H 0.58041 0.03784 0.73207 0.0
H206 H 0.62052 0.07587 0.59828 0.0
H207 H 0.58318 0.07431 0.65866 0.0
H208 H 0.89505 0.04518 0.78916 0.0
H209 H 0.85344 0.03441 0.84558 0.0
H210 H 0.89074 0.03126 0.69855 0.0
H211 H 0.84761 0.04723 0.62848 0.0
C212 C 0.78297 0.95467 0.25166 0.0
C213 C 0.72956 0.96614 0.27452 0.0
C214 C 0.66264 0.96216 0.17411 0.0
C215 C 0.71683 0.95371 0.14976 0.0
N216 N 0.82285 0.92704 0.16713 0.0
N217 N 0.6174 0.96298 0.26337 0.0
C218 C 0.77555 0.94533 0.18916 0.0
C219 C 0.66886 0.96364 0.23752 0.0
N220 N 0.84054 0.9532 0.28992 0.0
N221 N 0.60631 0.97181 0.13725 0.0
H222 H 0.62188 0.9639 0.31012 0.0
H223 H 0.57176 0.9569 0.23915 0.0
H224 H 0.59981 0.97321 0.09056 0.0
H225 H 0.56757 0.98214 0.1536 0.0
H226 H 0.88288 0.94969 0.27562 0.0
H227 H 0.84501 0.95612 0.3365 0.0
H228 H 0.86537 0.91753 0.19408 0.0
H229 H 0.81679 0.91752 0.12224 0.0
C230 C 0.23183 0.95335 0.26587 0.0
C231 C 0.25135 0.9944 0.25787 0.0
C232 C 0.25488 0.00981 0.36412 0.0
C233 C 0.24293 0.96772 0.37418 0.0
N234 N 0.22542 0.89803 0.33626 0.0
N235 N 0.30043 0.05673 0.30393 0.0
C236 C 0.2335 0.93891 0.32554 0.0
C237 C 0.26806 0.02117 0.30835 0.0
N238 N 0.2088 0.92896 0.21681 0.0
N239 N 0.25481 0.0393 0.40753 0.0
H240 H 0.31791 0.06308 0.26593 0.0
H241 H 0.31739 0.07663 0.33994 0.0
H242 H 0.25063 0.03334 0.45146 0.0
H243 H 0.25466 0.07077 0.39836 0.0
H244 H 0.18773 0.90034 0.21966 0.0
H245 H 0.20633 0.93866 0.17263 0.0
H246 H 0.22536 0.875 0.30401 0.0
H247 H 0.22203 0.88691 0.37856 0.0
C248 C 0.80424 0.54772 0.73927 0.0
C249 C 0.74866 0.52969 0.70442 0.0
C250 C 0.69416 0.53791 0.78791 0.0
C251 C 0.75044 0.55423 0.82369 0.0
N252 N 0.85101 0.58823 0.82723 0.0
N253 N 0.63567 0.52227 0.68692 0.0
C254 C 0.80264 0.56401 0.79716 0.0
C255 C 0.69179 0.52969 0.72605 0.0
N256 N 0.85964 0.54661 0.71943 0.0
N257 N 0.64375 0.52932 0.81337 0.0
H258 H 0.633 0.51775 0.64083 0.0
H259 H 0.59191 0.52506 0.69877 0.0
H260 H 0.64325 0.53675 0.85809 0.0
H261 H 0.60399 0.51307 0.79112 0.0
H262 H 0.90317 0.55471 0.74635 0.0
H263 H 0.86333 0.5348 0.67752 0.0
H264 H 0.88633 0.59989 0.80703 0.0
H265 H 0.85345 0.59974 0.87057 0.0
C266 C 0.2614 0.54477 0.66237 0.0
C267 C 0.21434 0.52126 0.62303 0.0
C268 C 0.17554 0.49494 0.70909 0.0
C269 C 0.2274 0.51364 0.74834 0.0
N270 N 0.32229 0.55459 0.76449 0.0
N271 N 0.13329 0.46892 0.60893 0.0
C272 C 0.27078 0.53856 0.72565 0.0
C273 C 0.17308 0.49505 0.64632 0.0
N274 N 0.29728 0.5726 0.63916 0.0
N275 N 0.12852 0.47717 0.73218 0.0
H276 H 0.12853 0.4687 0.56219 0.0
H277 H 0.11024 0.4447 0.62538 0.0
H278 H 0.12899 0.47762 0.7783 0.0
H279 H 0.08658 0.46602 0.70549 0.0
H280 H 0.32764 0.5937 0.66546 0.0
H281 H 0.29426 0.57604 0.59293 0.0
H282 H 0.35996 0.56877 0.75058 0.0
H283 H 0.32844 0.55199 0.81123 0.0
C284 C 0.27417 0.52232 0.19829 0.0
C285 C 0.27545 0.49327 0.24529 0.0
C286 C 0.31072 0.44064 0.18171 0.0
C287 C 0.31216 0.47094 0.13711 0.0
N288 N 0.32517 0.54354 0.11891 0.0
N289 N 0.31474 0.42747 0.28753 0.0
C290 C 0.30489 0.51281 0.15115 0.0
C291 C 0.29963 0.45302 0.23903 0.0
N292 N 0.24033 0.558 0.19614 0.0
N293 N 0.31927 0.40016 0.16883 0.0
H294 H 0.31077 0.43606 0.33089 0.0
H295 H 0.3374 0.39931 0.28582 0.0
H296 H 0.33179 0.39098 0.12868 0.0
H297 H 0.3116 0.3761 0.19674 0.0
H298 H 0.23469 0.5782 0.15978 0.0
H299 H 0.21096 0.56447 0.22592 0.0
H300 H 0.32253 0.57462 0.13028 0.0
H301 H 0.35292 0.53797 0.08738 0.0
C302 C 0.80214 0.44768 0.23932 0.0
C303 C 0.76457 0.48104 0.21223 0.0
C304 C 0.7372 0.4975 0.3083 0.0
C305 C 0.76832 0.46165 0.33481 0.0
N306 N 0.81554 0.39604 0.31786 0.0
N307 N 0.67567 0.52539 0.21723 0.0
C308 C 0.79631 0.43451 0.29802 0.0
C309 C 0.72434 0.50112 0.24531 0.0
N310 N 0.84499 0.42977 0.21099 0.0
N311 N 0.72548 0.53037 0.34236 0.0
H312 H 0.66413 0.52901 0.17064 0.0
H313 H 0.64327 0.53827 0.2402 0.0
H314 H 0.74392 0.53313 0.38848 0.0
H315 H 0.70618 0.55783 0.32307 0.0
H316 H 0.87795 0.40826 0.23203 0.0
H317 H 0.8506 0.43867 0.16835 0.0
H318 H 0.83208 0.37439 0.29076 0.0
H319 H 0.8078 0.38411 0.35829 0.0
C320 C 0.46152 0.97103 0.03197 0.0
C321 C 0.46627 0.00879 0.06367 0.0
C322 C 0.53428 0.03675 0.00125 0.0
C323 C 0.52857 0.99929 0.96845 0.0
N324 N 0.46394 0.9391 0.93642 0.0
N325 N 0.53162 0.06798 0.09745 0.0
C326 C 0.48537 0.96862 0.97897 0.0
C327 C 0.51061 0.0388 0.05429 0.0
N328 N 0.43499 0.93761 0.05338 0.0
N329 N 0.56148 0.07027 0.98078 0.0
H330 H 0.5181 0.06745 0.139 0.0
H331 H 0.56745 0.08899 0.09468 0.0
H332 H 0.57582 0.06953 0.93957 0.0
H333 H 0.56308 0.09928 0.0011 0.0
H334 H 0.43426 0.90831 0.0341 0.0
H335 H 0.42055 0.93884 0.09453 0.0
H336 H 0.42885 0.91782 0.94037 0.0
H337 H 0.47511 0.93973 0.89389 0.0
C338 C 0.50351 0.98658 0.58384 0.0
C339 C 0.44555 0.00167 0.54994 0.0
C340 C 0.48681 0.0023 0.45896 0.0
C341 C 0.54531 0.98894 0.49219 0.0
N342 N 0.61173 0.96624 0.58467 0.0
N343 N 0.39587 0.04291 0.46541 0.0
C344 C 0.55411 0.97979 0.55435 0.0
C345 C 0.44101 0.01532 0.49034 0.0
N346 N 0.50867 0.97864 0.64375 0.0
N347 N 0.47701 0.00453 0.39772 0.0
H348 H 0.367 0.05728 0.49078 0.0
H349 H 0.39433 0.05601 0.42334 0.0
H350 H 0.51129 0.99422 0.37495 0.0
H351 H 0.43349 0.01225 0.37053 0.0
H352 H 0.54774 0.96509 0.67125 0.0
H353 H 0.47271 0.98651 0.66604 0.0
H354 H 0.62406 0.96187 0.63101 0.0
H355 H 0.64769 0.95899 0.56212 0.0
C356 C 0.01631 0.49861 0.04944 0.0
C357 C 0.97159 0.5104 -0.0029 0.0
C358 C 0.05456 0.54166 0.95416 0.0
C359 C 0.09883 0.52609 0.00215 0.0
N360 N 0.12665 0.50044 0.10227 0.0
N361 N 0.95257 0.52893 0.89139 0.0
C362 C 0.0806 0.5091 0.05299 0.0
C363 C 0.99213 0.52794 0.9469 0.0
N364 N 0.99874 0.47442 0.09225 0.0
N365 N 0.07401 0.56631 0.91302 0.0
H366 H 0.90867 0.51407 0.88279 0.0
H367 H 0.96659 0.53915 0.85278 0.0
H368 H 0.1214 0.57496 0.91824 0.0
H369 H 0.04281 0.58084 0.87804 0.0
H370 H 0.0298 0.46378 0.13046 0.0
H371 H 0.95436 0.46083 0.0868 0.0
H372 H 0.11871 0.48912 0.14278 0.0
H373 H 0.17377 0.50729 0.10239 0.0
C374 C 0.96486 0.5026 0.37943 0.0
C375 C 0.01689 0.47656 0.39688 0.0
C376 C 0.98385 0.45942 0.48875 0.0
C377 C 0.94045 0.49363 0.47921 0.0
N378 N 0.90084 0.55278 0.41709 0.0
N379 N 0.04906 0.41263 0.44314 0.0
C380 C 0.9326 0.51618 0.42411 0.0
C381 C 0.01522 0.44807 0.44218 0.0
N382 N 0.95305 0.51815 0.32268 0.0
N383 N 0.00023 0.44057 0.5435 0.0
H384 H 0.07369 0.40624 0.40915 0.0
H385 H 0.04762 0.38862 0.4731 0.0
H386 H 0.99471 0.45459 0.58351 0.0
H387 H 0.0287 0.41454 0.55125 0.0
H388 H 0.91356 0.53597 0.30497 0.0
H389 H 0.98104 0.5093 0.29258 0.0
H390 H 0.89677 0.57097 0.37878 0.0
H391 H 0.88643 0.56788 0.45259 0.0
C392 C 0.03724 0.01092 0.96885 0.0
C393 C 0.05211 0.02568 0.02968 0.0
C394 C 0.95834 0.98923 0.0486 0.0
C395 C 0.94023 0.97807 0.98651 0.0
N396 N 0.9596 0.98162 0.88597 0.0
N397 N 0.02369 0.03178 0.12633 0.0
C398 C 0.9792 0.98956 0.94628 0.0
C399 C 0.01142 0.01582 0.06911 0.0
N400 N 0.07968 0.0166 0.93283 0.0
N401 N 0.92535 0.97308 0.08826 0.0
H402 H 0.06267 0.05059 0.14297 0.0
H403 H 0.9929 0.02921 0.15574 0.0
H404 H 0.88794 0.9525 0.07443 0.0
H405 H 0.93841 0.9766 0.13487 0.0
H406 H 0.07648 0.00213 0.89117 0.0
H407 H 0.12041 0.03422 0.94656 0.0
H408 H 0.98143 0.99381 0.85315 0.0
H409 H 0.919 0.96459 0.86811 0.0
C410 C 0.97211 0.99481 0.44865 0.0
C411 C 0.941 0.0201 0.48462 0.0
C412 C 0.00958 0.99258 0.57626 0.0
C413 C 0.04208 0.96799 0.54104 0.0
N414 N 0.05872 0.94773 0.44348 0.0
N415 N 0.94456 0.05288 0.58007 0.0
C416 C 0.02428 0.96961 0.47694 0.0
C417 C 0.96428 0.02181 0.54776 0.0
N418 N 0.95158 0.99499 0.38753 0.0
N419 N 0.0218 0.98752 0.6373 0.0
H420 H 0.91278 0.07528 0.55941 0.0
H421 H 0.96446 0.05876 0.62531 0.0
H422 H 0.0537 0.96543 0.65869 0.0
H423 H 0.99618 0.00214 0.66542 0.0
H424 H 0.968 0.97511 0.35817 0.0
H425 H 0.91707 0.01537 0.36597 0.0
H426 H 0.05394 0.95043 0.39707 0.0
H427 H 0.09393 0.9271 0.46307 0.0
C428 C 0.49318 0.4572 0.00612 0.0
C429 C 0.46345 0.46603 0.9456 0.0
C430 C 0.53707 0.52413 0.94594 0.0
C431 C 0.5702 0.5133 0.00439 0.0
N432 N 0.58817 0.46294 0.08421 0.0
N433 N 0.46651 0.5017 0.85352 0.0
C434 C 0.55057 0.47796 0.03291 0.0
C435 C 0.4888 0.49754 0.9142 0.0
N436 N 0.46561 0.43027 0.03896 0.0
N437 N 0.55188 0.56007 0.92084 0.0
H438 H 0.43214 0.48193 0.82912 0.0
H439 H 0.48627 0.52172 0.82675 0.0
H440 H 0.58684 0.58016 0.94348 0.0
H441 H 0.52599 0.57165 0.88042 0.0
H442 H 0.48094 0.42666 0.08537 0.0
H443 H 0.42509 0.41334 0.02046 0.0
H444 H 0.57977 0.43484 0.10324 0.0
H445 H 0.63057 0.47695 0.10492 0.0
C446 C 0.52638 0.48009 0.44834 0.0
C447 C 0.54918 0.4681 0.50934 0.0
C448 C 0.45851 0.50359 0.53755 0.0
C449 C 0.43561 0.51543 0.4765 0.0
N450 N 0.44219 0.50906 0.37204 0.0
N451 N 0.53126 0.46174 0.60977 0.0
C452 C 0.46823 0.5021 0.43148 0.0
C453 C 0.5132 0.47772 0.55321 0.0
N454 N 0.56164 0.47104 0.40651 0.0
N455 N 0.42855 0.51816 0.58078 0.0
H456 H 0.57075 0.44286 0.62198 0.0
H457 H 0.50501 0.46436 0.64312 0.0
H458 H 0.38924 0.53739 0.57053 0.0
H459 H 0.445 0.5141 0.62687 0.0
H460 H 0.55363 0.48365 0.36348 0.0
H461 H 0.60082 0.45162 0.41587 0.0
H462 H 0.4582 0.49543 0.3364 0.0
H463 H 0.40209 0.52707 0.35795 0.0
C464 C 0.46297 0.16128 0.24528 0.0
C465 C 0.42517 0.12573 0.22563 0.0
C466 C 0.51559 0.08139 0.27118 0.0
C467 C 0.5532 0.1169 0.2903 0.0
N468 N 0.56652 0.19031 0.29099 0.0
N469 N 0.41693 0.05154 0.21615 0.0
C470 C 0.52788 0.1568 0.27574 0.0
C471 C 0.45191 0.08564 0.23797 0.0
N472 N 0.43563 0.19933 0.23668 0.0
N473 N 0.54148 0.04336 0.28534 0.0
H474 H 0.371 0.05306 0.19092 0.0
H475 H 0.43318 0.02138 0.21962 0.0
H476 H 0.5887 0.0393 0.30649 0.0
H477 H 0.51712 0.01561 0.27726 0.0
H478 H 0.45799 0.22681 0.25267 0.0
H479 H 0.38807 0.20322 0.2167 0.0
H480 H 0.55381 0.22047 0.27886 0.0
H481 H 0.61378 0.18751 0.3129 0.0
C482 C 0.52212 0.91684 0.77802 0.0
C483 C 0.56166 0.88185 0.78101 0.0
C484 C 0.47065 0.84174 0.72427 0.0
C485 C 0.4299 0.87637 0.72455 0.0
N486 N 0.41699 0.94477 0.76345 0.0
N487 N 0.57509 0.811 0.75657 0.0
C488 C 0.45565 0.91315 0.75493 0.0
C489 C 0.53613 0.84427 0.75391 0.0
N490 N 0.54863 0.95444 0.79557 0.0
N491 N 0.44637 0.80627 0.69558 0.0
H492 H 0.62391 0.8138 0.77107 0.0
H493 H 0.5599 0.78104 0.7448 0.0
H494 H 0.3981 0.80187 0.67955 0.0
H495 H 0.47334 0.78133 0.68701 0.0
H496 H 0.52402 0.98214 0.78847 0.0
H497 H 0.59697 0.95851 0.81187 0.0
H498 H 0.43209 0.96832 0.79442 0.0
H499 H 0.36893 0.94593 0.74519 0.0
C500 C 0.98 0.65495 0.20147 0.0
C501 C 0.95339 0.61661 0.17825 0.0
C502 C 0.04837 0.5807 0.23309 0.0
C503 C 0.07279 0.61861 0.26047 0.0
N504 N 0.05944 0.6912 0.27576 0.0
N505 N 0.958 0.54247 0.17657 0.0
C506 C 0.03795 0.65563 0.24578 0.0
C507 C 0.98676 0.57937 0.19511 0.0
N508 N 0.95065 0.69073 0.18001 0.0
N509 N 0.08379 0.54565 0.24477 0.0
H510 H 0.91234 0.54013 0.15038 0.0
H511 H 0.9766 0.51384 0.19063 0.0
H512 H 0.12769 0.54496 0.27432 0.0
H513 H 0.072 0.5176 0.22281 0.0
H514 H 0.97055 0.71987 0.18999 0.0
H515 H 0.90762 0.69109 0.14894 0.0
H516 H 0.03327 0.71827 0.27293 0.0
H517 H 0.10291 0.69289 0.30598 0.0
C518 C 0.95473 0.41758 0.75644 0.0
C519 C 0.93922 0.38543 0.71295 0.0
C520 C 0.04731 0.35683 0.74739 0.0
C521 C 0.06192 0.38824 0.79212 0.0
N522 N 0.02739 0.44706 0.84154 0.0
N523 N 0.9672 0.32052 0.67387 0.0
C524 C 0.01455 0.41761 0.79764 0.0
C525 C 0.98469 0.35391 0.71066 0.0
N526 N 0.91509 0.45053 0.75511 0.0
N527 N 0.09353 0.33013 0.73916 0.0
H528 H 0.92219 0.31754 0.64678 0.0
H529 H 0.99477 0.2943 0.67382 0.0
H530 H 0.13877 0.33038 0.76628 0.0
H531 H 0.08873 0.30953 0.7031 0.0
H532 H 0.92753 0.47747 0.78002 0.0
H533 H 0.87097 0.45264 0.72639 0.0
H534 H 0.992 0.46157 0.85837 0.0
H535 H 0.07316 0.45567 0.86204 0.0
C536 C 0.27627 0.24231 0.05511 0.0
C537 C 0.23405 0.21385 0.0193 0.0
C538 C 0.21272 0.26375 0.93687 0.0
C539 C 0.2597 0.2903 0.97063 0.0
N540 N 0.34411 0.30212 0.05647 0.0
N541 N 0.16666 0.19521 0.92415 0.0
C542 C 0.29393 0.2786 0.02815 0.0
C543 C 0.20369 0.22394 0.95949 0.0
N544 N 0.29915 0.23501 0.115 0.0
N545 N 0.17437 0.27731 0.88489 0.0
H546 H 0.15501 0.16692 0.9408 0.0
H547 H 0.15003 0.1986 0.87789 0.0
H548 H 0.18014 0.30583 0.86592 0.0
H549 H 0.1343 0.26143 0.86254 0.0
H550 H 0.32484 0.2567 0.14438 0.0
H551 H 0.28722 0.20913 0.13712 0.0
H552 H 0.37513 0.29333 0.09593 0.0
H553 H 0.35843 0.32866 0.03706 0.0
C554 C 0.75504 0.24017 0.42063 0.0
C555 C 0.77275 0.20969 0.46549 0.0
C556 C 0.79047 0.26281 0.54473 0.0
C557 C 0.76709 0.29295 0.50039 0.0
N558 N 0.72191 0.31088 0.39747 0.0
N559 N 0.80685 0.19038 0.5695 0.0
C560 C 0.74849 0.28182 0.43852 0.0
C561 C 0.79089 0.2207 0.52733 0.0
N562 N 0.74388 0.22904 0.36105 0.0
N563 N 0.81431 0.2746 0.60314 0.0
H564 H 0.81305 0.15969 0.55785 0.0
H565 H 0.81176 0.19502 0.61569 0.0
H566 H 0.81274 0.30477 0.61871 0.0
H567 H 0.83917 0.2551 0.63595 0.0
H568 H 0.73602 0.24994 0.32566 0.0
H569 H 0.74733 0.19867 0.34675 0.0
H570 H 0.70201 0.30446 0.3525 0.0
H571 H 0.71514 0.3414 0.40948 0.0
C572 C 0.71699 0.76406 0.93611 0.0
C573 C 0.75367 0.79244 0.97745 0.0
C574 C 0.76566 0.74092 0.05743 0.0
C575 C 0.73447 0.71174 0.01478 0.0
N576 N 0.68453 0.69312 0.91316 0.0
N577 N 0.82007 0.80682 0.07463 0.0
C578 C 0.71072 0.72277 0.95411 0.0
C579 C 0.78002 0.78049 0.03748 0.0
N580 N 0.68585 0.7768 0.88054 0.0
N581 N 0.78174 0.73032 0.11692 0.0
H582 H 0.83255 0.83565 0.06036 0.0
H583 H 0.84521 0.79892 0.11736 0.0
H584 H 0.77104 0.70137 0.13217 0.0
H585 H 0.8004 0.75092 0.1515 0.0
H586 H 0.65134 0.75922 0.85236 0.0
H587 H 0.69208 0.80578 0.86341 0.0
H588 H 0.67469 0.69751 0.86668 0.0
H589 H 0.6753 0.66321 0.92589 0.0
C590 C 0.25613 0.71325 0.55194 0.0
C591 C 0.2392 0.70442 0.48933 0.0
C592 C 0.20229 0.77545 0.46987 0.0
C593 C 0.22634 0.78574 0.53126 0.0
N594 N 0.28435 0.76503 0.63005 0.0
N595 N 0.20361 0.72824 0.38715 0.0
C596 C 0.25494 0.75476 0.57241 0.0
C597 C 0.21477 0.73594 0.4478 0.0
N598 N 0.27326 0.68186 0.59196 0.0
N599 N 0.1656 0.80323 0.43313 0.0
H600 H 0.21079 0.69953 0.36888 0.0
H601 H 0.19233 0.75118 0.35474 0.0
H602 H 0.15381 0.83193 0.44867 0.0
H603 H 0.1415 0.79634 0.38942 0.0
H604 H 0.27784 0.68528 0.63839 0.0
H605 H 0.27938 0.65164 0.57834 0.0
H606 H 0.31263 0.74466 0.65917 0.0
H607 H 0.28483 0.7946 0.64808 0.0
loop_
_geom_bond_atom_site_label_1
_geom_bond_atom_site_label_2
_geom_bond_distance
_geom_bond_site_symmetry_2
_ccdc_geom_bond_type
Sc0 O3 2.025 . S
Sc0 O10 2.105 . S
Sc0 O13 2.105 . S
Sc0 O16 2.105 . S
Sc0 O19 2.105 . S
Sc1 O3 2.025 . S
Sc1 O11 2.105 . S
Sc1 O15 2.105 1_545 S
Sc1 O17 2.105 1_545 S
Sc1 O21 2.105 1_554 S
Sc2 O3 2.025 . S
Sc2 O12 2.105 1_554 S
Sc2 O14 2.105 . S
Sc2 O18 2.105 . S
Sc2 O20 2.105 1_554 S
O3 Sc0 2.025 . S
O3 Sc1 2.025 . S
O3 Sc2 2.025 . S
C4 O10 1.268 . S
C4 O20 1.268 1_554 S
C5 O11 1.268 . S
C5 O19 1.268 . S
C6 O12 1.268 . S
C6 O21 1.268 . S
C7 O13 1.268 . S
C7 O17 1.268 1_545 S
C8 O14 1.268 . S
C8 O16 1.268 . S
C9 O15 1.268 1_545 S
C9 O18 1.268 . S
O10 Sc0 2.105 . S
O10 C4 1.268 . S
O11 Sc1 2.105 . S
O11 C5 1.268 . S
O12 Sc2 2.105 1_556 S
O12 C6 1.268 . S
O13 Sc0 2.105 . S
O13 C7 1.268 . S
O14 Sc2 2.105 . S
O14 C8 1.268 . S
O15 Sc1 2.105 1_565 S
O15 C9 1.268 1_565 S
O16 Sc0 2.105 . S
O16 C8 1.268 . S
O17 Sc1 2.105 1_565 S
O17 C7 1.268 1_565 S
O18 Sc2 2.105 . S
O18 C9 1.268 . S
O19 Sc0 2.105 . S
O19 C5 1.268 . S
O20 Sc2 2.105 1_556 S
O20 C4 1.268 1_556 S
O21 Sc1 2.105 1_556 S
O21 C6 1.268 . S
Sc22 O25 2.025 . S
Sc22 O32 2.105 . S
Sc22 O35 2.105 . S
Sc22 O38 2.105 . S
Sc22 O41 2.105 . S
Sc23 O25 2.025 . S
Sc23 O33 2.105 . S
Sc23 O37 2.105 1_545 S
Sc23 O39 2.105 1_545 S
Sc23 O43 2.105 . S
Sc24 O25 2.025 . S
Sc24 O34 2.105 . S
Sc24 O36 2.105 . S
Sc24 O40 2.105 . S
Sc24 O42 2.105 . S
O25 Sc22 2.025 . S
O25 Sc23 2.025 . S
O25 Sc24 2.025 . S
C26 O32 1.268 . S
C26 O42 1.268 . S
C27 O33 1.268 . S
C27 O41 1.268 . S
C28 O34 1.268 . S
C28 O43 1.268 . S
C29 O35 1.268 . S
C29 O39 1.268 1_545 S
C30 O36 1.268 . S
C30 O38 1.268 . S
C31 O37 1.268 1_545 S
C31 O40 1.268 . S
O32 Sc22 2.105 . S
O32 C26 1.268 . S
O33 Sc23 2.105 . S
O33 C27 1.268 . S
O34 Sc24 2.105 . S
O34 C28 1.268 . S
O35 Sc22 2.105 . S
O35 C29 1.268 . S
O36 Sc24 2.105 . S
O36 C30 1.268 . S
O37 Sc23 2.105 1_565 S
O37 C31 1.268 1_565 S
O38 Sc22 2.105 . S
O38 C30 1.268 . S
O39 Sc23 2.105 1_565 S
O39 C29 1.268 1_565 S
O40 Sc24 2.105 . S
O40 C31 1.268 . S
O41 Sc22 2.105 . S
O41 C27 1.268 . S
O42 Sc24 2.105 . S
O42 C26 1.268 . S
O43 Sc23 2.105 . S
O43 C28 1.268 . S
Sc44 O47 2.025 . S
Sc44 O54 2.105 . S
Sc44 O57 2.105 . S
Sc44 O60 2.105 . S
Sc44 O63 2.105 . S
Sc45 O47 2.025 . S
Sc45 O55 2.105 1_565 S
Sc45 O59 2.105 1_556 S
Sc45 O61 2.105 . S
Sc45 O65 2.105 1_565 S
Sc46 O47 2.025 . S
Sc46 O56 2.105 . S
Sc46 O58 2.105 1_556 S
Sc46 O62 2.105 1_556 S
Sc46 O64 2.105 . S
O47 Sc44 2.025 . S
O47 Sc45 2.025 . S
O47 Sc46 2.025 . S
C48 O54 1.268 . S
C48 O64 1.268 . S
C49 O55 1.268 1_565 S
C49 O63 1.268 . S
C50 O56 1.268 . S
C50 O65 1.268 1_565 S
C51 O57 1.268 . S
C51 O61 1.268 . S
C52 O58 1.268 1_556 S
C52 O60 1.268 . S
C53 O59 1.268 . S
C53 O62 1.268 . S
O54 Sc44 2.105 . S
O54 C48 1.268 . S
O55 Sc45 2.105 1_545 S
O55 C49 1.268 1_545 S
O56 Sc46 2.105 . S
O56 C50 1.268 . S
O57 Sc44 2.105 . S
O57 C51 1.268 . S
O58 Sc46 2.105 1_554 S
O58 C52 1.268 1_554 S
O59 Sc45 2.105 1_554 S
O59 C53 1.268 . S
O60 Sc44 2.105 . S
O60 C52 1.268 . S
O61 Sc45 2.105 . S
O61 C51 1.268 . S
O62 Sc46 2.105 1_554 S
O62 C53 1.268 . S
O63 Sc44 2.105 . S
O63 C49 1.268 . S
O64 Sc46 2.105 . S
O64 C48 1.268 . S
O65 Sc45 2.105 1_545 S
O65 C50 1.268 1_545 S
Sc66 O69 2.025 . S
Sc66 O76 2.105 . S
Sc66 O79 2.105 . S
Sc66 O82 2.105 . S
Sc66 O85 2.105 . S
Sc67 O69 2.025 . S
Sc67 O77 2.105 1_565 S
Sc67 O81 2.105 . S
Sc67 O83 2.105 . S
Sc67 O87 2.105 1_565 S
Sc68 O69 2.025 . S
Sc68 O78 2.105 . S
Sc68 O80 2.105 . S
Sc68 O84 2.105 . S
Sc68 O86 2.105 . S
O69 Sc66 2.025 . S
O69 Sc67 2.025 . S
O69 Sc68 2.025 . S
C70 O76 1.268 . S
C70 O86 1.268 . S
C71 O77 1.268 1_565 S
C71 O85 1.268 . S
C72 O78 1.268 . S
C72 O87 1.268 1_565 S
C73 O79 1.268 . S
C73 O83 1.268 . S
C74 O80 1.268 . S
C74 O82 1.268 . S
C75 O81 1.268 . S
C75 O84 1.268 . S
O76 Sc66 2.105 . S
O76 C70 1.268 . S
O77 Sc67 2.105 1_545 S
O77 C71 1.268 1_545 S
O78 Sc68 2.105 . S
O78 C72 1.268 . S
O79 Sc66 2.105 . S
O79 C73 1.268 . S
O80 Sc68 2.105 . S
O80 C74 1.268 . S
O81 Sc67 2.105 . S
O81 C75 1.268 . S
O82 Sc66 2.105 . S
O82 C74 1.268 . S
O83 Sc67 2.105 . S
O83 C73 1.268 . S
O84 Sc68 2.105 . S
O84 C75 1.268 . S
O85 Sc66 2.105 . S
O85 C71 1.268 . S
O86 Sc68 2.105 . S
O86 C70 1.268 . S
O87 Sc67 2.105 1_545 S
O87 C72 1.268 1_545 S
Sc88 O91 2.025 . S
Sc88 O98 2.105 . S
Sc88 O101 2.105 . S
Sc88 O104 2.105 . S
Sc88 O107 2.105 . S
Sc89 O91 2.025 . S
Sc89 O99 2.105 . S
Sc89 O103 2.105 . S
Sc89 O105 2.105 . S
Sc89 O109 2.105 1_554 S
Sc90 O91 2.025 . S
Sc90 O100 2.105 1_554 S
Sc90 O102 2.105 . S
Sc90 O106 2.105 . S
Sc90 O108 2.105 1_554 S
O91 Sc88 2.025 . S
O91 Sc89 2.025 . S
O91 Sc90 2.025 . S
C92 O98 1.268 . S
C92 O108 1.268 1_554 S
C93 O99 1.268 . S
C93 O107 1.268 . S
C94 O100 1.268 . S
C94 O109 1.268 . S
C95 O101 1.268 . S
C95 O105 1.268 . S
C96 O102 1.268 . S
C96 O104 1.268 . S
C97 O103 1.268 . S
C97 O106 1.268 . S
O98 Sc88 2.105 . S
O98 C92 1.268 . S
O99 Sc89 2.105 . S
O99 C93 1.268 . S
O100 Sc90 2.105 1_556 S
O100 C94 1.268 . S
O101 Sc88 2.105 . S
O101 C95 1.268 . S
O102 Sc90 2.105 . S
O102 C96 1.268 . S
O103 Sc89 2.105 . S
O103 C97 1.268 . S
O104 Sc88 2.105 . S
O104 C96 1.268 . S
O105 Sc89 2.105 . S
O105 C95 1.268 . S
O106 Sc90 2.105 . S
O106 C97 1.268 . S
O107 Sc88 2.105 . S
O107 C93 1.268 . S
O108 Sc90 2.105 1_556 S
O108 C92 1.268 1_556 S
O109 Sc89 2.105 1_556 S
O109 C94 1.268 . S
Sc110 O113 2.025 . S
Sc110 O120 2.105 . S
Sc110 O123 2.105 . S
Sc110 O126 2.105 . S
Sc110 O129 2.105 . S
Sc111 O113 2.025 . S
Sc111 O121 2.105 . S
Sc111 O125 2.105 . S
Sc111 O127 2.105 . S
Sc111 O131 2.105 . S
Sc112 O113 2.025 . S
Sc112 O122 2.105 . S
Sc112 O124 2.105 . S
Sc112 O128 2.105 . S
Sc112 O130 2.105 . S
O113 Sc110 2.025 . S
O113 Sc111 2.025 . S
O113 Sc112 2.025 . S
C114 O120 1.268 . S
C114 O130 1.268 . S
C115 O121 1.268 . S
C115 O129 1.268 . S
C116 O122 1.268 . S
C116 O131 1.268 . S
C117 O123 1.268 . S
C117 O127 1.268 . S
C118 O124 1.268 . S
C118 O126 1.268 . S
C119 O125 1.268 . S
C119 O128 1.268 . S
O120 Sc110 2.105 . S
O120 C114 1.268 . S
O121 Sc111 2.105 . S
O121 C115 1.268 . S
O122 Sc112 2.105 . S
O122 C116 1.268 . S
O123 Sc110 2.105 . S
O123 C117 1.268 . S
O124 Sc112 2.105 . S
O124 C118 1.268 . S
O125 Sc111 2.105 . S
O125 C119 1.268 . S
O126 Sc110 2.105 . S
O126 C118 1.268 . S
O127 Sc111 2.105 . S
O127 C117 1.268 . S
O128 Sc112 2.105 . S
O128 C119 1.268 . S
O129 Sc110 2.105 . S
O129 C115 1.268 . S
O130 Sc112 2.105 . S
O130 C114 1.268 . S
O131 Sc111 2.105 . S
O131 C116 1.268 . S
Sc132 O135 2.025 . S
Sc132 O142 2.105 . S
Sc132 O145 2.105 . S
Sc132 O148 2.105 . S
Sc132 O151 2.105 . S
Sc133 O135 2.025 . S
Sc133 O143 2.105 . S
Sc133 O147 2.105 1_556 S
Sc133 O149 2.105 . S
Sc133 O153 2.105 . S
Sc134 O135 2.025 . S
Sc134 O144 2.105 . S
Sc134 O146 2.105 1_556 S
Sc134 O150 2.105 1_556 S
Sc134 O152 2.105 . S
O135 Sc132 2.025 . S
O135 Sc133 2.025 . S
O135 Sc134 2.025 . S
C136 O142 1.268 . S
C136 O152 1.268 . S
C137 O143 1.268 . S
C137 O151 1.268 . S
C138 O144 1.268 . S
C138 O153 1.268 . S
C139 O145 1.268 . S
C139 O149 1.268 . S
C140 O146 1.268 1_556 S
C140 O148 1.268 . S
C141 O147 1.268 . S
C141 O150 1.268 . S
O142 Sc132 2.105 . S
O142 C136 1.268 . S
O143 Sc133 2.105 . S
O143 C137 1.268 . S
O144 Sc134 2.105 . S
O144 C138 1.268 . S
O145 Sc132 2.105 . S
O145 C139 1.268 . S
O146 Sc134 2.105 1_554 S
O146 C140 1.268 1_554 S
O147 Sc133 2.105 1_554 S
O147 C141 1.268 . S
O148 Sc132 2.105 . S
O148 C140 1.268 . S
O149 Sc133 2.105 . S
O149 C139 1.268 . S
O150 Sc134 2.105 1_554 S
O150 C141 1.268 . S
O151 Sc132 2.105 . S
O151 C137 1.268 . S
O152 Sc134 2.105 . S
O152 C136 1.268 . S
O153 Sc133 2.105 . S
O153 C138 1.268 . S
Sc154 O157 2.025 . S
Sc154 O164 2.105 . S
Sc154 O167 2.105 . S
Sc154 O170 2.105 . S
Sc154 O173 2.105 . S
Sc155 O157 2.025 . S
Sc155 O165 2.105 . S
Sc155 O169 2.105 . S
Sc155 O171 2.105 . S
Sc155 O175 2.105 . S
Sc156 O157 2.025 . S
Sc156 O166 2.105 . S
Sc156 O168 2.105 . S
Sc156 O172 2.105 . S
Sc156 O174 2.105 . S
O157 Sc154 2.025 . S
O157 Sc155 2.025 . S
O157 Sc156 2.025 . S
C158 O164 1.268 . S
C158 O174 1.268 . S
C159 O165 1.268 . S
C159 O173 1.268 . S
C160 O166 1.268 . S
C160 O175 1.268 . S
C161 O167 1.268 . S
C161 O171 1.268 . S
C162 O168 1.268 . S
C162 O170 1.268 . S
C163 O169 1.268 . S
C163 O172 1.268 . S
O164 Sc154 2.105 . S
O164 C158 1.268 . S
O165 Sc155 2.105 . S
O165 C159 1.268 . S
O166 Sc156 2.105 . S
O166 C160 1.268 . S
O167 Sc154 2.105 . S
O167 C161 1.268 . S
O168 Sc156 2.105 . S
O168 C162 1.268 . S
O169 Sc155 2.105 . S
O169 C163 1.268 . S
O170 Sc154 2.105 . S
O170 C162 1.268 . S
O171 Sc155 2.105 . S
O171 C161 1.268 . S
O172 Sc156 2.105 . S
O172 C163 1.268 . S
O173 Sc154 2.105 . S
O173 C159 1.268 . S
O174 Sc156 2.105 . S
O174 C158 1.268 . S
O175 Sc155 2.105 . S
O175 C160 1.268 . S
C176 C177 1.363 . S
C176 C182 1.379 . S
C176 N184 1.356 . S
C177 C176 1.363 . S
C177 C183 1.363 . S
C178 C179 1.363 . S
C178 C183 1.379 . S
C178 N185 1.356 . S
C179 C178 1.363 . S
C179 C182 1.363 . S
N180 C182 1.356 1_565 S
N180 H192 0.984 . S
N180 H193 0.985 . S
N181 C183 1.356 . S
N181 H186 0.984 . S
N181 H187 0.985 . S
C182 C176 1.379 . S
C182 C179 1.363 . S
C182 N180 1.356 1_545 S
C183 C177 1.363 . S
C183 C178 1.379 . S
C183 N181 1.356 . S
N184 C176 1.356 . S
N184 H190 0.984 . S
N184 H191 0.984 . S
N185 C178 1.356 . S
N185 H188 0.984 . S
N185 H189 0.985 . S
H186 N181 0.984 . S
H187 N181 0.985 . S
H188 N185 0.984 . S
H189 N185 0.985 . S
H190 N184 0.984 . S
H191 N184 0.984 . S
H192 N180 0.984 . S
H193 N180 0.985 . S
C194 C195 1.363 1_565 S
C194 C200 1.379 1_565 S
C194 N202 1.356 . S
C195 C194 1.363 1_545 S
C195 C201 1.363 . S
C196 C197 1.363 . S
C196 C201 1.379 . S
C196 N203 1.356 . S
C197 C196 1.363 . S
C197 C200 1.363 . S
N198 C200 1.356 1_565 S
N198 H210 0.984 . S
N198 H211 0.985 1_565 S
N199 C201 1.356 . S
N199 H204 0.984 . S
N199 H205 0.985 . S
C200 C194 1.379 1_545 S
C200 C197 1.363 . S
C200 N198 1.356 1_545 S
C201 C195 1.363 . S
C201 C196 1.379 . S
C201 N199 1.356 . S
N202 C194 1.356 . S
N202 H208 0.984 . S
N202 H209 0.984 . S
N203 C196 1.356 . S
N203 H206 0.984 . S
N203 H207 0.985 . S
H204 N199 0.984 . S
H205 N199 0.985 . S
H206 N203 0.984 . S
H207 N203 0.985 . S
H208 N202 0.984 . S
H209 N202 0.984 . S
H210 N198 0.984 . S
H211 N198 0.985 1_545 S
C212 C213 1.363 . S
C212 C218 1.379 . S
C212 N220 1.356 . S
C213 C212 1.363 . S
C213 C219 1.363 1_565 S
C214 C215 1.363 . S
C214 C219 1.379 1_565 S
C214 N221 1.356 . S
C215 C214 1.363 . S
C215 C218 1.363 . S
N216 C218 1.356 . S
N216 H228 0.984 . S
N216 H229 0.985 . S
N217 C219 1.356 . S
N217 H222 0.984 . S
N217 H223 0.985 . S
C218 C212 1.379 . S
C218 C215 1.363 . S
C218 N216 1.356 . S
C219 C213 1.363 1_545 S
C219 C214 1.379 1_545 S
C219 N217 1.356 . S
N220 C212 1.356 . S
N220 H226 0.984 . S
N220 H227 0.984 . S
N221 C214 1.356 . S
N221 H224 0.984 . S
N221 H225 0.985 1_565 S
H222 N217 0.984 . S
H223 N217 0.985 . S
H224 N221 0.984 . S
H225 N221 0.985 1_545 S
H226 N220 0.984 . S
H227 N220 0.984 . S
H228 N216 0.984 . S
H229 N216 0.985 . S
C230 C231 1.363 . S
C230 C236 1.379 . S
C230 N238 1.356 . S
C231 C230 1.363 . S
C231 C237 1.363 1_565 S
C232 C233 1.363 . S
C232 C237 1.379 1_565 S
C232 N239 1.356 1_565 S
C233 C232 1.363 . S
C233 C236 1.363 . S
N234 C236 1.356 . S
N234 H246 0.984 . S
N234 H247 0.985 . S
N235 C237 1.356 . S
N235 H240 0.984 . S
N235 H241 0.985 . S
C236 C230 1.379 . S
C236 C233 1.363 . S
C236 N234 1.356 . S
C237 C231 1.363 1_545 S
C237 C232 1.379 1_545 S
C237 N235 1.356 . S
N238 C230 1.356 . S
N238 H244 0.984 . S
N238 H245 0.984 . S
N239 C232 1.356 1_545 S
N239 H242 0.984 1_545 S
N239 H243 0.985 . S
H240 N235 0.984 . S
H241 N235 0.985 . S
H242 N239 0.984 1_565 S
H243 N239 0.985 . S
H244 N238 0.984 . S
H245 N238 0.984 . S
H246 N234 0.984 . S
H247 N234 0.985 . S
C248 C249 1.363 . S
C248 C254 1.379 . S
C248 N256 1.356 . S
C249 C248 1.363 . S
C249 C255 1.363 . S
C250 C251 1.363 . S
C250 C255 1.379 . S
C250 N257 1.356 . S
C251 C250 1.363 . S
C251 C254 1.363 . S
N252 C254 1.356 . S
N252 H264 0.984 . S
N252 H265 0.985 . S
N253 C255 1.356 . S
N253 H258 0.984 . S
N253 H259 0.985 . S
C254 C248 1.379 . S
C254 C251 1.363 . S
C254 N252 1.356 . S
C255 C249 1.363 . S
C255 C250 1.379 . S
C255 N253 1.356 . S
N256 C248 1.356 . S
N256 H262 0.984 . S
N256 H263 0.984 . S
N257 C250 1.356 . S
N257 H260 0.984 . S
N257 H261 0.985 . S
H258 N253 0.984 . S
H259 N253 0.985 . S
H260 N257 0.984 . S
H261 N257 0.985 . S
H262 N256 0.984 . S
H263 N256 0.984 . S
H264 N252 0.984 . S
H265 N252 0.985 . S
C266 C267 1.363 . S
C266 C272 1.379 . S
C266 N274 1.356 . S
C267 C266 1.363 . S
C267 C273 1.363 . S
C268 C269 1.363 . S
C268 C273 1.379 . S
C268 N275 1.356 . S
C269 C268 1.363 . S
C269 C272 1.363 . S
N270 C272 1.356 . S
N270 H282 0.984 . S
N270 H283 0.985 . S
N271 C273 1.356 . S
N271 H276 0.984 . S
N271 H277 0.985 . S
C272 C266 1.379 . S
C272 C269 1.363 . S
C272 N270 1.356 . S
C273 C267 1.363 . S
C273 C268 1.379 . S
C273 N271 1.356 . S
N274 C266 1.356 . S
N274 H280 0.984 . S
N274 H281 0.984 . S
N275 C268 1.356 . S
N275 H278 0.984 . S
N275 H279 0.985 . S
H276 N271 0.984 . S
H277 N271 0.985 . S
H278 N275 0.984 . S
H279 N275 0.985 . S
H280 N274 0.984 . S
H281 N274 0.984 . S
H282 N270 0.984 . S
H283 N270 0.985 . S
C284 C285 1.363 . S
C284 C290 1.379 . S
C284 N292 1.356 . S
C285 C284 1.363 . S
C285 C291 1.363 . S
C286 C287 1.363 . S
C286 C291 1.379 . S
C286 N293 1.356 . S
C287 C286 1.363 . S
C287 C290 1.363 . S
N288 C290 1.356 . S
N288 H300 0.984 . S
N288 H301 0.985 . S
N289 C291 1.356 . S
N289 H294 0.984 . S
N289 H295 0.985 . S
C290 C284 1.379 . S
C290 C287 1.363 . S
C290 N288 1.356 . S
C291 C285 1.363 . S
C291 C286 1.379 . S
C291 N289 1.356 . S
N292 C284 1.356 . S
N292 H298 0.984 . S
N292 H299 0.984 . S
N293 C286 1.356 . S
N293 H296 0.984 . S
N293 H297 0.985 . S
H294 N289 0.984 . S
H295 N289 0.985 . S
H296 N293 0.984 . S
H297 N293 0.985 . S
H298 N292 0.984 . S
H299 N292 0.984 . S
H300 N288 0.984 . S
H301 N288 0.985 . S
C302 C303 1.363 . S
C302 C308 1.379 . S
C302 N310 1.356 . S
C303 C302 1.363 . S
C303 C309 1.363 . S
C304 C305 1.363 . S
C304 C309 1.379 . S
C304 N311 1.356 . S
C305 C304 1.363 . S
C305 C308 1.363 . S
N306 C308 1.356 . S
N306 H318 0.984 . S
N306 H319 0.985 . S
N307 C309 1.356 . S
N307 H312 0.984 . S
N307 H313 0.985 . S
C308 C302 1.379 . S
C308 C305 1.363 . S
C308 N306 1.356 . S
C309 C303 1.363 . S
C309 C304 1.379 . S
C309 N307 1.356 . S
N310 C302 1.356 . S
N310 H316 0.984 . S
N310 H317 0.984 . S
N311 C304 1.356 . S
N311 H314 0.984 . S
N311 H315 0.985 . S
H312 N307 0.984 . S
H313 N307 0.985 . S
H314 N311 0.984 . S
H315 N311 0.985 . S
H316 N310 0.984 . S
H317 N310 0.984 . S
H318 N306 0.984 . S
H319 N306 0.985 . S
C320 C321 1.363 . S
C320 C326 1.379 . S
C320 N328 1.356 . S
C321 C320 1.363 . S
C321 C327 1.363 1_564 S
C322 C323 1.363 . S
C322 C327 1.379 . S
C322 N329 1.356 . S
C323 C322 1.363 . S
C323 C326 1.363 1_546 S
N324 C326 1.353 1_556 S
N324 H336 0.977 1_556 S
N324 H337 0.996 . S
N325 C327 1.353 1_554 S
N325 H330 0.996 . S
N325 H331 0.977 1_554 S
C326 C320 1.379 . S
C326 C323 1.363 1_564 S
C326 N324 1.353 1_554 S
C327 C321 1.363 1_546 S
C327 C322 1.379 . S
C327 N325 1.353 1_556 S
N328 C320 1.356 . S
N328 H334 0.984 . S
N328 H335 0.984 . S
N329 C322 1.356 . S
N329 H332 0.984 . S
N329 H333 0.985 . S
H330 N325 0.996 . S
H331 N325 0.977 1_556 S
H332 N329 0.984 . S
H333 N329 0.985 . S
H334 N328 0.984 . S
H335 N328 0.984 . S
H336 N324 0.977 1_554 S
H337 N324 0.996 . S
C338 C339 1.363 1_565 S
C338 C344 1.379 . S
C338 N346 1.356 . S
C339 C338 1.363 1_545 S
C339 C345 1.363 . S
C340 C341 1.363 1_545 S
C340 C345 1.379 . S
C340 N347 1.356 . S
C341 C340 1.363 1_565 S
C341 C344 1.363 . S
N342 C344 1.356 . S
N342 H354 0.984 . S
N342 H355 0.985 . S
N343 C345 1.356 . S
N343 H348 0.984 . S
N343 H349 0.985 . S
C344 C338 1.379 . S
C344 C341 1.363 . S
C344 N342 1.356 . S
C345 C339 1.363 . S
C345 C340 1.379 . S
C345 N343 1.356 . S
N346 C338 1.356 . S
N346 H352 0.984 . S
N346 H353 0.989 . S
N347 C340 1.356 . S
N347 H350 0.989 . S
N347 H351 0.985 . S
H348 N343 0.984 . S
H349 N343 0.985 . S
H350 N347 0.989 . S
H351 N347 0.985 . S
H352 N346 0.984 . S
H353 N346 0.989 . S
H354 N342 0.984 . S
H355 N342 0.985 . S
C356 C357 1.363 . S
C356 C362 1.379 1_654 S
C356 N364 1.356 . S
C357 C356 1.363 . S
C357 C363 1.363 . S
C358 C359 1.363 . S
C358 C363 1.379 1_456 S
C358 N365 1.356 . S
C359 C358 1.363 . S
C359 C362 1.363 . S
N360 C362 1.356 . S
N360 H372 0.984 1_556 S
N360 H373 0.985 . S
N361 C363 1.356 . S
N361 H366 0.984 . S
N361 H367 0.985 1_554 S
C362 C356 1.379 1_456 S
C362 C359 1.363 . S
C362 N360 1.356 . S
C363 C357 1.363 . S
C363 C358 1.379 1_654 S
C363 N361 1.356 . S
N364 C356 1.356 . S
N364 H370 0.984 . S
N364 H371 0.984 . S
N365 C358 1.356 . S
N365 H368 0.984 . S
N365 H369 0.985 . S
H366 N361 0.984 . S
H367 N361 0.985 1_556 S
H368 N365 0.984 . S
H369 N365 0.985 . S
H370 N364 0.984 . S
H371 N364 0.984 . S
H372 N360 0.984 1_554 S
H373 N360 0.985 . S
C374 C375 1.363 . S
C374 C380 1.379 1_455 S
C374 N382 1.356 . S
C375 C374 1.363 . S
C375 C381 1.363 . S
C376 C377 1.363 . S
C376 C381 1.379 1_655 S
C376 N383 1.356 . S
C377 C376 1.363 . S
C377 C380 1.363 . S
N378 C380 1.356 . S
N378 H390 0.984 . S
N378 H391 0.985 . S
N379 C381 1.356 . S
N379 H384 0.984 . S
N379 H385 0.985 . S
C380 C374 1.379 1_655 S
C380 C377 1.363 . S
C380 N378 1.356 . S
C381 C375 1.363 . S
C381 C376 1.379 1_455 S
C381 N379 1.356 . S
N382 C374 1.356 . S
N382 H388 0.984 1_455 S
N382 H389 0.984 . S
N383 C376 1.356 . S
N383 H386 0.984 . S
N383 H387 0.985 1_655 S
H384 N379 0.984 . S
H385 N379 0.985 . S
H386 N383 0.984 . S
H387 N383 0.985 1_455 S
H388 N382 0.984 1_655 S
H389 N382 0.984 . S
H390 N378 0.984 . S
H391 N378 0.985 . S
C392 C393 1.363 1_566 S
C392 C398 1.379 . S
C392 N400 1.356 . S
C393 C392 1.363 1_544 S
C393 C399 1.363 1_455 S
C394 C395 1.363 1_544 S
C394 C399 1.379 . S
C394 N401 1.356 . S
C395 C394 1.363 1_566 S
C395 C398 1.363 1_655 S
N396 C398 1.356 1_655 S
N396 H408 0.984 1_655 S
N396 H409 0.985 . S
N397 C399 1.356 1_455 S
N397 H402 0.984 . S
N397 H403 0.985 1_455 S
C398 C392 1.379 . S
C398 C395 1.363 1_455 S
C398 N396 1.356 1_455 S
C399 C393 1.363 1_655 S
C399 C394 1.379 . S
C399 N397 1.356 1_655 S
N400 C392 1.356 . S
N400 H406 0.984 . S
N400 H407 0.984 1_565 S
N401 C394 1.356 . S
N401 H404 0.984 1_545 S
N401 H405 0.985 . S
H402 N397 0.984 . S
H403 N397 0.985 1_655 S
H404 N401 0.984 1_565 S
H405 N401 0.985 . S
H406 N400 0.984 . S
H407 N400 0.984 1_545 S
H408 N396 0.984 1_455 S
H409 N396 0.985 . S
C410 C411 1.363 1_565 S
C410 C416 1.379 1_655 S
C410 N418 1.356 . S
C411 C410 1.363 1_545 S
C411 C417 1.363 . S
C412 C413 1.363 1_545 S
C412 C417 1.379 1_455 S
C412 N419 1.356 . S
C413 C412 1.363 1_565 S
C413 C416 1.363 . S
N414 C416 1.356 . S
N414 H426 0.984 . S
N414 H427 0.985 . S
N415 C417 1.356 . S
N415 H420 0.984 . S
N415 H421 0.985 . S
C416 C410 1.379 1_455 S
C416 C413 1.363 . S
C416 N414 1.356 . S
C417 C411 1.363 . S
C417 C412 1.379 1_655 S
C417 N415 1.356 . S
N418 C410 1.356 . S
N418 H424 0.984 . S
N418 H425 0.984 1_565 S
N419 C412 1.356 . S
N419 H422 0.984 1_545 S
N419 H423 0.985 . S
H420 N415 0.984 . S
H421 N415 0.985 . S
H422 N419 0.984 1_565 S
H423 N419 0.985 . S
H424 N418 0.984 . S
H425 N418 0.984 1_545 S
H426 N414 0.984 . S
H427 N414 0.985 . S
C428 C429 1.363 1_554 S
C428 C434 1.379 . S
C428 N436 1.356 . S
C429 C428 1.363 1_556 S
C429 C435 1.363 . S
C430 C431 1.363 1_556 S
C430 C435 1.379 . S
C430 N437 1.356 . S
C431 C430 1.363 1_554 S
C431 C434 1.363 . S
N432 C434 1.356 . S
N432 H444 0.984 . S
N432 H445 0.985 . S
N433 C435 1.356 . S
N433 H438 0.984 . S
N433 H439 0.985 . S
C434 C428 1.379 . S
C434 C431 1.363 . S
C434 N432 1.356 . S
C435 C429 1.363 . S
C435 C430 1.379 . S
C435 N433 1.356 . S
N436 C428 1.356 . S
N436 H442 0.984 . S
N436 H443 0.984 . S
N437 C430 1.356 . S
N437 H440 0.984 . S
N437 H441 0.985 . S
H438 N433 0.984 . S
H439 N433 0.985 . S
H440 N437 0.984 . S
H441 N437 0.985 . S
H442 N436 0.984 . S
H443 N436 0.984 . S
H444 N432 0.984 . S
H445 N432 0.985 . S
C446 C447 1.363 . S
C446 C452 1.379 . S
C446 N454 1.356 . S
C447 C446 1.363 . S
C447 C453 1.363 . S
C448 C449 1.363 . S
C448 C453 1.379 . S
C448 N455 1.356 . S
C449 C448 1.363 . S
C449 C452 1.363 . S
N450 C452 1.356 . S
N450 H462 0.984 . S
N450 H463 0.985 . S
N451 C453 1.356 . S
N451 H456 0.984 . S
N451 H457 0.985 . S
C452 C446 1.379 . S
C452 C449 1.363 . S
C452 N450 1.356 . S
C453 C447 1.363 . S
C453 C448 1.379 . S
C453 N451 1.356 . S
N454 C446 1.356 . S
N454 H460 0.984 . S
N454 H461 0.984 . S
N455 C448 1.356 . S
N455 H458 0.984 . S
N455 H459 0.985 . S
H456 N451 0.984 . S
H457 N451 0.985 . S
H458 N455 0.984 . S
H459 N455 0.985 . S
H460 N454 0.984 . S
H461 N454 0.984 . S
H462 N450 0.984 . S
H463 N450 0.985 . S
C464 C465 1.363 . S
C464 C470 1.379 . S
C464 N472 1.356 . S
C465 C464 1.363 . S
C465 C471 1.363 . S
C466 C467 1.363 . S
C466 C471 1.379 . S
C466 N473 1.356 . S
C467 C466 1.363 . S
C467 C470 1.363 . S
N468 C470 1.356 . S
N468 H480 0.984 . S
N468 H481 0.985 . S
N469 C471 1.356 . S
N469 H474 0.984 . S
N469 H475 0.985 . S
C470 C464 1.379 . S
C470 C467 1.363 . S
C470 N468 1.356 . S
C471 C465 1.363 . S
C471 C466 1.379 . S
C471 N469 1.356 . S
N472 C464 1.356 . S
N472 H478 0.984 . S
N472 H479 0.984 . S
N473 C466 1.356 . S
N473 H476 0.984 . S
N473 H477 0.985 . S
H474 N469 0.984 . S
H475 N469 0.985 . S
H476 N473 0.984 . S
H477 N473 0.985 . S
H478 N472 0.984 . S
H479 N472 0.984 . S
H480 N468 0.984 . S
H481 N468 0.985 . S
C482 C483 1.363 . S
C482 C488 1.379 . S
C482 N490 1.356 . S
C483 C482 1.363 . S
C483 C489 1.363 . S
C484 C485 1.363 . S
C484 C489 1.379 . S
C484 N491 1.356 . S
C485 C484 1.363 . S
C485 C488 1.363 . S
N486 C488 1.356 . S
N486 H498 0.984 . S
N486 H499 0.985 . S
N487 C489 1.356 . S
N487 H492 0.984 . S
N487 H493 0.985 . S
C488 C482 1.379 . S
C488 C485 1.363 . S
C488 N486 1.356 . S
C489 C483 1.363 . S
C489 C484 1.379 . S
C489 N487 1.356 . S
N490 C482 1.356 . S
N490 H496 0.984 . S
N490 H497 0.984 . S
N491 C484 1.356 . S
N491 H494 0.984 . S
N491 H495 0.985 . S
H492 N487 0.984 . S
H493 N487 0.985 . S
H494 N491 0.984 . S
H495 N491 0.985 . S
H496 N490 0.984 . S
H497 N490 0.984 . S
H498 N486 0.984 . S
H499 N486 0.985 . S
C500 C501 1.363 . S
C500 C506 1.379 1_655 S
C500 N508 1.356 . S
C501 C500 1.363 . S
C501 C507 1.363 . S
C502 C503 1.363 . S
C502 C507 1.379 1_455 S
C502 N509 1.356 . S
C503 C502 1.363 . S
C503 C506 1.363 . S
N504 C506 1.356 . S
N504 H516 0.984 . S
N504 H517 0.985 . S
N505 C507 1.356 . S
N505 H510 0.984 . S
N505 H511 0.985 . S
C506 C500 1.379 1_455 S
C506 C503 1.363 . S
C506 N504 1.356 . S
C507 C501 1.363 . S
C507 C502 1.379 1_655 S
C507 N505 1.356 . S
N508 C500 1.356 . S
N508 H514 0.984 . S
N508 H515 0.984 . S
N509 C502 1.356 . S
N509 H512 0.984 . S
N509 H513 0.985 . S
H510 N505 0.984 . S
H511 N505 0.985 . S
H512 N509 0.984 . S
H513 N509 0.985 . S
H514 N508 0.984 . S
H515 N508 0.984 . S
H516 N504 0.984 . S
H517 N504 0.985 . S
C518 C519 1.363 . S
C518 C524 1.379 1_655 S
C518 N526 1.356 . S
C519 C518 1.363 . S
C519 C525 1.363 . S
C520 C521 1.363 . S
C520 C525 1.379 1_455 S
C520 N527 1.356 . S
C521 C520 1.363 . S
C521 C524 1.363 . S
N522 C524 1.356 . S
N522 H534 0.984 . S
N522 H535 0.985 . S
N523 C525 1.356 . S
N523 H528 0.984 . S
N523 H529 0.985 . S
C524 C518 1.379 1_455 S
C524 C521 1.363 . S
C524 N522 1.356 . S
C525 C519 1.363 . S
C525 C520 1.379 1_655 S
C525 N523 1.356 . S
N526 C518 1.356 . S
N526 H532 0.984 . S
N526 H533 0.984 . S
N527 C520 1.356 . S
N527 H530 0.984 . S
N527 H531 0.985 . S
H528 N523 0.984 . S
H529 N523 0.985 . S
H530 N527 0.984 . S
H531 N527 0.985 . S
H532 N526 0.984 . S
H533 N526 0.984 . S
H534 N522 0.984 . S
H535 N522 0.985 . S
C536 C537 1.363 . S
C536 C542 1.379 . S
C536 N544 1.356 . S
C537 C536 1.363 . S
C537 C543 1.363 1_554 S
C538 C539 1.363 . S
C538 C543 1.379 . S
C538 N545 1.356 . S
C539 C538 1.363 . S
C539 C542 1.363 1_556 S
N540 C542 1.356 . S
N540 H552 0.984 . S
N540 H553 0.985 . S
N541 C543 1.356 . S
N541 H546 0.984 . S
N541 H547 0.985 . S
C542 C536 1.379 . S
C542 C539 1.363 1_554 S
C542 N540 1.356 . S
C543 C537 1.363 1_556 S
C543 C538 1.379 . S
C543 N541 1.356 . S
N544 C536 1.356 . S
N544 H550 0.984 . S
N544 H551 0.984 . S
N545 C538 1.356 . S
N545 H548 0.984 . S
N545 H549 0.985 . S
H546 N541 0.984 . S
H547 N541 0.985 . S
H548 N545 0.984 . S
H549 N545 0.985 . S
H550 N544 0.984 . S
H551 N544 0.984 . S
H552 N540 0.984 . S
H553 N540 0.985 . S
C554 C555 1.363 . S
C554 C560 1.379 . S
C554 N562 1.356 . S
C555 C554 1.363 . S
C555 C561 1.363 . S
C556 C557 1.363 . S
C556 C561 1.379 . S
C556 N563 1.356 . S
C557 C556 1.363 . S
C557 C560 1.363 . S
N558 C560 1.356 . S
N558 H570 0.984 . S
N558 H571 0.985 . S
N559 C561 1.356 . S
N559 H564 0.984 . S
N559 H565 0.985 . S
C560 C554 1.379 . S
C560 C557 1.363 . S
C560 N558 1.356 . S
C561 C555 1.363 . S
C561 C556 1.379 . S
C561 N559 1.356 . S
N562 C554 1.356 . S
N562 H568 0.984 . S
N562 H569 0.984 . S
N563 C556 1.356 . S
N563 H566 0.984 . S
N563 H567 0.985 . S
H564 N559 0.984 . S
H565 N559 0.985 . S
H566 N563 0.984 . S
H567 N563 0.985 . S
H568 N562 0.984 . S
H569 N562 0.984 . S
H570 N558 0.984 . S
H571 N558 0.985 . S
C572 C573 1.363 . S
C572 C578 1.379 . S
C572 N580 1.356 . S
C573 C572 1.363 . S
C573 C579 1.363 1_556 S
C574 C575 1.363 . S
C574 C579 1.379 . S
C574 N581 1.356 . S
C575 C574 1.363 . S
C575 C578 1.363 1_554 S
N576 C578 1.356 . S
N576 H588 0.984 . S
N576 H589 0.985 . S
N577 C579 1.356 . S
N577 H582 0.984 . S
N577 H583 0.985 . S
C578 C572 1.379 . S
C578 C575 1.363 1_556 S
C578 N576 1.356 . S
C579 C573 1.363 1_554 S
C579 C574 1.379 . S
C579 N577 1.356 . S
N580 C572 1.356 . S
N580 H586 0.984 . S
N580 H587 0.984 . S
N581 C574 1.356 . S
N581 H584 0.984 . S
N581 H585 0.985 . S
H582 N577 0.984 . S
H583 N577 0.985 . S
H584 N581 0.984 . S
H585 N581 0.985 . S
H586 N580 0.984 . S
H587 N580 0.984 . S
H588 N576 0.984 . S
H589 N576 0.985 . S
C590 C591 1.363 . S
C590 C596 1.379 . S
C590 N598 1.356 . S
C591 C590 1.363 . S
C591 C597 1.363 . S
C592 C593 1.363 . S
C592 C597 1.379 . S
C592 N599 1.356 . S
C593 C592 1.363 . S
C593 C596 1.363 . S
N594 C596 1.356 . S
N594 H606 0.984 . S
N594 H607 0.985 . S
N595 C597 1.356 . S
N595 H600 0.984 . S
N595 H601 0.985 . S
C596 C590 1.379 . S
C596 C593 1.363 . S
C596 N594 1.356 . S
C597 C591 1.363 . S
C597 C592 1.379 . S
C597 N595 1.356 . S
N598 C590 1.356 . S
N598 H604 0.984 . S
N598 H605 0.984 . S
N599 C592 1.356 . S
N599 H602 0.984 . S
N599 H603 0.985 . S
H600 N595 0.984 . S
H601 N595 0.985 . S
H602 N599 0.984 . S
H603 N599 0.985 . S
H604 N598 0.984 . S
H605 N598 0.984 . S
H606 N594 0.984 . S
H607 N594 0.985 . S
C177 C6 1.346 . S
C179 C71 1.392 1_545 S
C195 C49 1.392 1_545 S
C197 C28 1.346 . S
C213 C29 1.392 1_565 S
C215 C53 1.346 . S
C231 C7 1.392 1_565 S
C233 C75 1.346 . S
C249 C159 1.392 . S
C251 C94 1.346 . S
C267 C116 1.346 . S
C269 C137 1.392 . S
C285 C117 1.392 . S
C287 C141 1.346 . S
C303 C95 1.392 . S
C305 C163 1.346 . S
C321 C9 0.968 1_565 S
C323 C50 0.968 1_545 S
C339 C72 0.968 1_545 S
C341 C31 0.968 1_565 S
C357 C97 0.968 . S
C359 C138 0.968 . S
C375 C119 0.968 . S
C377 C160 0.968 . S
C393 C5 2.025 . S
C395 C51 2.025 . S
C411 C27 2.025 . S
C413 C73 2.025 . S
C429 C139 2.025 . S
C431 C93 2.025 . S
C447 C161 2.025 . S
C449 C115 2.025 . S
C465 C8 1.765 . S
C467 C30 1.765 . S
C483 C48 1.765 . S
C485 C70 1.765 . S
C501 C96 1.765 . S
C503 C118 1.765 . S
C519 C158 1.765 . S
C521 C136 1.765 . S
C537 C4 1.448 . S
C539 C140 1.448 . S
C555 C26 1.448 . S
C557 C162 1.448 . S
C573 C52 1.448 . S
C575 C92 1.448 . S
C591 C114 1.448 . S
C593 C74 1.448 . S
