# Generated by pormake.
# Topology dei, (4)-cn, num edge types: 1
# Building blocks:
#     Node 0, Type 0, BuildingBlock: KUFVIS_clean_sbu_0, # of connection points: 4
#     Node 1, Type 0, BuildingBlock: KUFVIS_clean_sbu_0, # of connection points: 4
#     Node 2, Type 0, BuildingBlock: KUFVIS_clean_sbu_0, # of connection points: 4
#     Node 3, Type 0, BuildingBlock: KUFVIS_clean_sbu_0, # of connection points: 4
#     Node 4, Type 0, BuildingBlock: KUFVIS_clean_sbu_0, # of connection points: 4
#     Node 5, Type 0, BuildingBlock: KUFVIS_clean_sbu_0, # of connection points: 4
#     Node 6, Type 0, BuildingBlock: KUFVIS_clean_sbu_0, # of connection points: 4
#     Node 7, Type 0, BuildingBlock: KUFVIS_clean_sbu_0, # of connection points: 4
#     Node 8, Type 0, BuildingBlock: KUFVIS_clean_sbu_0, # of connection points: 4
#     Node 9, Type 0, BuildingBlock: KUFVIS_clean_sbu_0, # of connection points: 4
#     Node 10, Type 0, BuildingBlock: KUFVIS_clean_sbu_0, # of connection points: 4
#     Node 11, Type 0, BuildingBlock: KUFVIS_clean_sbu_0, # of connection points: 4
#     Node 12, Type 0, BuildingBlock: KUFVIS_clean_sbu_0, # of connection points: 4
#     Node 13, Type 0, BuildingBlock: KUFVIS_clean_sbu_0, # of connection points: 4
#     Node 14, Type 0, BuildingBlock: KUFVIS_clean_sbu_0, # of connection points: 4
#     Node 15, Type 0, BuildingBlock: KUFVIS_clean_sbu_0, # of connection points: 4
#     Node 16, Type 0, BuildingBlock: KUFVIS_clean_sbu_0, # of connection points: 4
#     Node 17, Type 0, BuildingBlock: KUFVIS_clean_sbu_0, # of connection points: 4
#     Node 18, Type 0, BuildingBlock: KUFVIS_clean_sbu_0, # of connection points: 4
#     Node 19, Type 0, BuildingBlock: KUFVIS_clean_sbu_0, # of connection points: 4
#     Node 20, Type 0, BuildingBlock: KUFVIS_clean_sbu_0, # of connection points: 4
#     Node 21, Type 0, BuildingBlock: KUFVIS_clean_sbu_0, # of connection points: 4
#     Node 22, Type 0, BuildingBlock: KUFVIS_clean_sbu_0, # of connection points: 4
#     Node 23, Type 0, BuildingBlock: KUFVIS_clean_sbu_0, # of connection points: 4
#     Node 24, Type 0, BuildingBlock: KUFVIS_clean_sbu_0, # of connection points: 4
#     Node 25, Type 0, BuildingBlock: KUFVIS_clean_sbu_0, # of connection points: 4
#     Node 26, Type 0, BuildingBlock: KUFVIS_clean_sbu_0, # of connection points: 4
#     Node 27, Type 0, BuildingBlock: KUFVIS_clean_sbu_0, # of connection points: 4
#     Node 28, Type 0, BuildingBlock: KUFVIS_clean_sbu_0, # of connection points: 4
#     Node 29, Type 0, BuildingBlock: KUFVIS_clean_sbu_0, # of connection points: 4
#     Node 30, Type 0, BuildingBlock: KUFVIS_clean_sbu_0, # of connection points: 4
#     Node 31, Type 0, BuildingBlock: KUFVIS_clean_sbu_0, # of connection points: 4
#     Edge 32, Type (0, 0), BuildingBlock: OJICUG_clean_linker_0, # of connection points: 2
#     Edge 33, Type (0, 0), BuildingBlock: OJICUG_clean_linker_0, # of connection points: 2
#     Edge 34, Type (0, 0), BuildingBlock: OJICUG_clean_linker_0, # of connection points: 2
#     Edge 35, Type (0, 0), BuildingBlock: OJICUG_clean_linker_0, # of connection points: 2
#     Edge 36, Type (0, 0), BuildingBlock: OJICUG_clean_linker_0, # of connection points: 2
#     Edge 37, Type (0, 0), BuildingBlock: OJICUG_clean_linker_0, # of connection points: 2
#     Edge 38, Type (0, 0), BuildingBlock: OJICUG_clean_linker_0, # of connection points: 2
#     Edge 39, Type (0, 0), BuildingBlock: OJICUG_clean_linker_0, # of connection points: 2
#     Edge 40, Type (0, 0), BuildingBlock: OJICUG_clean_linker_0, # of connection points: 2
#     Edge 41, Type (0, 0), BuildingBlock: OJICUG_clean_linker_0, # of connection points: 2
#     Edge 42, Type (0, 0), BuildingBlock: OJICUG_clean_linker_0, # of connection points: 2
#     Edge 43, Type (0, 0), BuildingBlock: OJICUG_clean_linker_0, # of connection points: 2
#     Edge 44, Type (0, 0), BuildingBlock: OJICUG_clean_linker_0, # of connection points: 2
#     Edge 45, Type (0, 0), BuildingBlock: OJICUG_clean_linker_0, # of connection points: 2
#     Edge 46, Type (0, 0), BuildingBlock: OJICUG_clean_linker_0, # of connection points: 2
#     Edge 47, Type (0, 0), BuildingBlock: OJICUG_clean_linker_0, # of connection points: 2
#     Edge 48, Type (0, 0), BuildingBlock: OJICUG_clean_linker_0, # of connection points: 2
#     Edge 49, Type (0, 0), BuildingBlock: OJICUG_clean_linker_0, # of connection points: 2
#     Edge 50, Type (0, 0), BuildingBlock: OJICUG_clean_linker_0, # of connection points: 2
#     Edge 51, Type (0, 0), BuildingBlock: OJICUG_clean_linker_0, # of connection points: 2
#     Edge 52, Type (0, 0), BuildingBlock: OJICUG_clean_linker_0, # of connection points: 2
#     Edge 53, Type (0, 0), BuildingBlock: OJICUG_clean_linker_0, # of connection points: 2
#     Edge 54, Type (0, 0), BuildingBlock: OJICUG_clean_linker_0, # of connection points: 2
#     Edge 55, Type (0, 0), BuildingBlock: OJICUG_clean_linker_0, # of connection points: 2
#     Edge 56, Type (0, 0), BuildingBlock: OJICUG_clean_linker_0, # of connection points: 2
#     Edge 57, Type (0, 0), BuildingBlock: OJICUG_clean_linker_0, # of connection points: 2
#     Edge 58, Type (0, 0), BuildingBlock: OJICUG_clean_linker_0, # of connection points: 2
#     Edge 59, Type (0, 0), BuildingBlock: OJICUG_clean_linker_0, # of connection points: 2
#     Edge 60, Type (0, 0), BuildingBlock: OJICUG_clean_linker_0, # of connection points: 2
#     Edge 61, Type (0, 0), BuildingBlock: OJICUG_clean_linker_0, # of connection points: 2
#     Edge 62, Type (0, 0), BuildingBlock: OJICUG_clean_linker_0, # of connection points: 2
#     Edge 63, Type (0, 0), BuildingBlock: OJICUG_clean_linker_0, # of connection points: 2
#     Edge 64, Type (0, 0), BuildingBlock: OJICUG_clean_linker_0, # of connection points: 2
#     Edge 65, Type (0, 0), BuildingBlock: OJICUG_clean_linker_0, # of connection points: 2
#     Edge 66, Type (0, 0), BuildingBlock: OJICUG_clean_linker_0, # of connection points: 2
#     Edge 67, Type (0, 0), BuildingBlock: OJICUG_clean_linker_0, # of connection points: 2
#     Edge 68, Type (0, 0), BuildingBlock: OJICUG_clean_linker_0, # of connection points: 2
#     Edge 69, Type (0, 0), BuildingBlock: OJICUG_clean_linker_0, # of connection points: 2
#     Edge 70, Type (0, 0), BuildingBlock: OJICUG_clean_linker_0, # of connection points: 2
#     Edge 71, Type (0, 0), BuildingBlock: OJICUG_clean_linker_0, # of connection points: 2
#     Edge 72, Type (0, 0), BuildingBlock: OJICUG_clean_linker_0, # of connection points: 2
#     Edge 73, Type (0, 0), BuildingBlock: OJICUG_clean_linker_0, # of connection points: 2
#     Edge 74, Type (0, 0), BuildingBlock: OJICUG_clean_linker_0, # of connection points: 2
#     Edge 75, Type (0, 0), BuildingBlock: OJICUG_clean_linker_0, # of connection points: 2
#     Edge 76, Type (0, 0), BuildingBlock: OJICUG_clean_linker_0, # of connection points: 2
#     Edge 77, Type (0, 0), BuildingBlock: OJICUG_clean_linker_0, # of connection points: 2
#     Edge 78, Type (0, 0), BuildingBlock: OJICUG_clean_linker_0, # of connection points: 2
#     Edge 79, Type (0, 0), BuildingBlock: OJICUG_clean_linker_0, # of connection points: 2
#     Edge 80, Type (0, 0), BuildingBlock: OJICUG_clean_linker_0, # of connection points: 2
#     Edge 81, Type (0, 0), BuildingBlock: OJICUG_clean_linker_0, # of connection points: 2
#     Edge 82, Type (0, 0), BuildingBlock: OJICUG_clean_linker_0, # of connection points: 2
#     Edge 83, Type (0, 0), BuildingBlock: OJICUG_clean_linker_0, # of connection points: 2
#     Edge 84, Type (0, 0), BuildingBlock: OJICUG_clean_linker_0, # of connection points: 2
#     Edge 85, Type (0, 0), BuildingBlock: OJICUG_clean_linker_0, # of connection points: 2
#     Edge 86, Type (0, 0), BuildingBlock: OJICUG_clean_linker_0, # of connection points: 2
#     Edge 87, Type (0, 0), BuildingBlock: OJICUG_clean_linker_0, # of connection points: 2
#     Edge 88, Type (0, 0), BuildingBlock: OJICUG_clean_linker_0, # of connection points: 2
#     Edge 89, Type (0, 0), BuildingBlock: OJICUG_clean_linker_0, # of connection points: 2
#     Edge 90, Type (0, 0), BuildingBlock: OJICUG_clean_linker_0, # of connection points: 2
#     Edge 91, Type (0, 0), BuildingBlock: OJICUG_clean_linker_0, # of connection points: 2
#     Edge 92, Type (0, 0), BuildingBlock: OJICUG_clean_linker_0, # of connection points: 2
#     Edge 93, Type (0, 0), BuildingBlock: OJICUG_clean_linker_0, # of connection points: 2
#     Edge 94, Type (0, 0), BuildingBlock: OJICUG_clean_linker_0, # of connection points: 2
#     Edge 95, Type (0, 0), BuildingBlock: OJICUG_clean_linker_0, # of connection points: 2
# Relax obj value: 0.217
# Max RMSD: 0.069
# Mean RMSD: 0.069
data_MOF--net-dei--node1-KUFVIS_clean_sbu_0--edge1-OJICUG_clean_linker_0
_symmetry_space_group_name_H-M    P1
_symmetry_Int_Tables_number       1
_symmetry_cell_setting            triclinic
loop_
_symmetry_equiv_pos_as_xyz
'x, y, z'
_cell_length_a     42.757273
_cell_length_b     42.817653
_cell_length_c     56.918015
_cell_angle_alpha  89.987593
_cell_angle_beta   90.02094
_cell_angle_gamma 90.042887
loop_
_atom_site_label
_atom_site_type_symbol
_atom_site_fract_x
_atom_site_fract_y
_atom_site_fract_z
_atom_type_partial_charge
Mn0 Mn 0.13126 0.60328 0.02812 0.0
Mn1 Mn 0.08132 0.63726 0.06219 0.0
C2 C 0.07711 0.59187 0.02186 0.0
C3 C 0.16171 0.55945 0.01893 0.0
C4 C 0.12093 0.67563 0.02812 0.0
O5 O 0.15662 0.61156 0.05902 0.0
O6 O 0.11689 0.62696 0.08237 0.0
C7 C 0.06188 0.60747 0.11383 0.0
N8 N 0.05554 0.6162 0.08654 0.0
C9 C 0.98489 0.64912 0.10873 0.0
C10 C 0.99894 0.63447 0.13723 0.0
C11 C 0.03626 0.61505 0.13833 0.0
C12 C 0.02764 0.63419 0.07723 0.0
H13 H 0.08459 0.59837 0.11832 0.0
C14 C 0.14476 0.61711 0.07942 0.0
O15 O 0.16829 0.58668 0.01018 0.0
O16 O 0.13864 0.55814 0.03348 0.0
N17 N 0.0468 0.64716 0.04031 0.0
C18 C 0.03644 0.64854 0.01597 0.0
C19 C 0.00839 0.66879 0.00751 0.0
C20 C 0.98342 0.70994 0.03467 0.0
C21 C 0.99782 0.70517 0.0612 0.0
C22 C 0.03432 0.66138 0.05954 0.0
H23 H 0.05189 0.64048 0.0023 0.0
O24 O 0.09708 0.59132 0.00472 0.0
O25 O 0.08925 0.60134 0.04183 0.0
O26 O 0.13166 0.65194 0.01675 0.0
O27 O 0.10489 0.67057 0.04622 0.0
C28 C 0.97233 0.7086 0.08291 0.0
C29 C 0.96561 0.68314 0.10417 0.0
H30 H 0.98644 0.64441 0.12393 0.0
H31 H 0.04546 0.60889 0.15507 0.0
H32 H 0.00376 0.66306 0.989 0.0
H33 H 0.96332 0.72538 0.03264 0.0
H34 H 0.9557 0.72727 0.08112 0.0
H35 H 0.94843 0.68838 0.11729 0.0
Mn36 Mn 0.64499 0.88084 0.27581 0.0
Mn37 Mn 0.62387 0.83241 0.31598 0.0
C38 C 0.64439 0.82619 0.26723 0.0
C39 C 0.69045 0.90722 0.2634 0.0
C40 C 0.57637 0.87776 0.29039 0.0
O41 O 0.64656 0.90539 0.30804 0.0
O42 O 0.64967 0.86344 0.3315 0.0
C43 C 0.6858 0.80829 0.34611 0.0
N44 N 0.65844 0.80038 0.32681 0.0
C45 C 0.63685 0.7409 0.36863 0.0
C46 C 0.66946 0.75685 0.38612 0.0
C47 C 0.69196 0.78924 0.37445 0.0
C48 C 0.63576 0.77252 0.32803 0.0
H49 H 0.69992 0.82876 0.34294 0.0
C50 C 0.65353 0.89244 0.32785 0.0
O51 O 0.66293 0.91754 0.25742 0.0
O52 O 0.69115 0.88213 0.27573 0.0
N53 N 0.5953 0.80323 0.29983 0.0
C54 C 0.56019 0.81351 0.29203 0.0
C55 C 0.52459 0.80242 0.30697 0.0
C56 C 0.523 0.77703 0.33295 0.0
C57 C 0.55821 0.76214 0.34499 0.0
C58 C 0.60374 0.78069 0.3197 0.0
H59 H 0.55757 0.82468 0.27516 0.0
O60 O 0.64561 0.8461 0.25007 0.0
O61 O 0.64441 0.83943 0.28741 0.0
O62 O 0.59502 0.88415 0.27326 0.0
O63 O 0.58856 0.86532 0.30916 0.0
C64 C 0.56523 0.74214 0.36929 0.0
C65 C 0.60041 0.73184 0.38028 0.0
H66 H 0.65061 0.74428 0.38 0.0
H67 H 0.7106 0.79826 0.38536 0.0
H68 H 0.50459 0.81297 0.29896 0.0
H69 H 0.50251 0.77112 0.34268 0.0
H70 H 0.54449 0.73717 0.37914 0.0
H71 H 0.60065 0.7218 0.39768 0.0
Mn72 Mn 0.38576 0.38254 0.53094 0.0
Mn73 Mn 0.43459 0.34354 0.55999 0.0
C74 C 0.43985 0.39048 0.52214 0.0
C75 C 0.35738 0.42848 0.52262 0.0
C76 C 0.38533 0.30995 0.53325 0.0
O77 O 0.36586 0.37706 0.56504 0.0
O78 O 0.40941 0.36245 0.58503 0.0
C79 C 0.48332 0.38419 0.59268 0.0
N80 N 0.47277 0.35948 0.57668 0.0
C81 C 0.53456 0.30837 0.589 0.0
C82 C 0.54951 0.33386 0.60678 0.0
C83 C 0.51501 0.38285 0.6073 0.0
C84 C 0.48825 0.33171 0.57098 0.0
H85 H 0.46809 0.40397 0.59558 0.0
C86 C 0.38188 0.37452 0.58446 0.0
O87 O 0.34792 0.40142 0.5152 0.0
O88 O 0.38189 0.42854 0.53583 0.0
N89 N 0.4573 0.32732 0.53178 0.0
C90 C 0.45051 0.30699 0.50835 0.0
C91 C 0.47833 0.28386 0.49254 0.0
C92 C 0.51911 0.27934 0.49957 0.0
C93 C 0.53472 0.29854 0.52552 0.0
C94 C 0.48833 0.33148 0.54385 0.0
H95 H 0.42744 0.30722 0.50102 0.0
O96 O 0.41904 0.39247 0.50559 0.0
O97 O 0.42825 0.38126 0.54205 0.0
O98 O 0.38095 0.33364 0.5197 0.0
O99 O 0.39864 0.31569 0.55246 0.0
C100 C 0.56123 0.28428 0.54475 0.0
C101 C 0.56038 0.28852 0.57317 0.0
H102 H 0.57246 0.32851 0.61436 0.0
H103 H 0.51797 0.40506 0.6167 0.0
H104 H 0.47001 0.27268 0.47668 0.0
H105 H 0.53271 0.28719 0.51294 0.0
H106 H 0.57875 0.26866 0.53787 0.0
H107 H 0.5803 0.27907 0.58151 0.0
Mn108 Mn 0.86441 0.14267 0.77853 0.0
Mn109 Mn 0.90011 0.1952 0.80999 0.0
C110 C 0.85969 0.19695 0.76898 0.0
C111 C 0.81733 0.11551 0.77084 0.0
C112 C 0.93801 0.14692 0.78091 0.0
O113 O 0.86827 0.12144 0.81165 0.0
O114 O 0.88587 0.16313 0.83215 0.0
C115 C 0.84908 0.22368 0.85481 0.0
N116 N 0.8705 0.22478 0.8306 0.0
C117 C 0.89589 0.30128 0.85821 0.0
C118 C 0.86987 0.28961 0.88161 0.0
C119 C 0.84773 0.25253 0.87945 0.0
C120 C 0.89119 0.25104 0.82377 0.0
H121 H 0.83248 0.20484 0.85626 0.0
C122 C 0.87339 0.1359 0.83121 0.0
O123 O 0.84395 0.1051 0.76311 0.0
O124 O 0.81826 0.14091 0.78293 0.0
N125 N 0.91653 0.22436 0.78378 0.0
C126 C 0.93873 0.22273 0.76027 0.0
C127 C 0.96736 0.25209 0.75002 0.0
C128 C 0.97737 0.28993 0.76455 0.0
C129 C 0.95859 0.3011 0.79163 0.0
C130 C 0.91415 0.2506 0.80039 0.0
H131 H 0.93774 0.20148 0.75009 0.0
O132 O 0.8572 0.17609 0.75253 0.0
O133 O 0.86692 0.18507 0.78909 0.0
O134 O 0.91359 0.13637 0.77006 0.0
O135 O 0.93414 0.16697 0.79724 0.0
C136 C 0.95509 0.33217 0.81855 0.0
C137 C 0.92743 0.33249 0.84682 0.0
H138 H 0.88661 0.30143 0.87037 0.0
H139 H 0.83202 0.24724 0.8938 0.0
H140 H 0.97713 0.24724 0.73291 0.0
H141 H 0.96994 0.3015 0.78062 0.0
H142 H 0.97114 0.35156 0.81756 0.0
H143 H 0.93077 0.35227 0.85836 0.0
Mn144 Mn 0.12861 0.39618 0.97241 0.0
Mn145 Mn 0.079 0.36156 0.93807 0.0
C146 C 0.07389 0.4066 0.97796 0.0
C147 C 0.15882 0.44022 0.98162 0.0
C148 C 0.11956 0.32374 0.97226 0.0
O149 O 0.15421 0.38812 0.94157 0.0
O150 O 0.11472 0.3714 0.91838 0.0
C151 C 0.06178 0.3931 0.88645 0.0
N152 N 0.05417 0.38355 0.91351 0.0
C153 C 0.98921 0.34348 0.888 0.0
C154 C 0.00407 0.3596 0.86024 0.0
C155 C 0.0391 0.38288 0.86071 0.0
C156 C 0.02739 0.3628 0.92165 0.0
H157 H 0.08327 0.40543 0.88318 0.0
C158 C 0.14247 0.38144 0.92129 0.0
O159 O 0.16544 0.41305 0.99042 0.0
O160 O 0.1356 0.44147 0.96717 0.0
N161 N 0.04409 0.35145 0.95965 0.0
C162 C 0.03205 0.34882 0.98338 0.0
C163 C 0.00532 0.32617 0.9903 0.0
C164 C 0.98655 0.28301 0.96211 0.0
C165 C 0.003 0.28907 0.93632 0.0
C166 C 0.03506 0.33619 0.93984 0.0
H167 H 0.04592 0.35748 0.99779 0.0
O168 O 0.09341 0.40771 0.99543 0.0
O169 O 0.08685 0.39724 0.95836 0.0
O170 O 0.13003 0.34752 0.98366 0.0
O171 O 0.10283 0.32874 0.95451 0.0
C172 C 0.98039 0.28301 0.91325 0.0
C173 C 0.97334 0.30736 0.89166 0.0
H174 H 0.99167 0.34829 0.87298 0.0
H175 H 0.04772 0.39121 0.84401 0.0
H176 H 0.99845 0.33157 0.00847 0.0
H177 H 0.96716 0.26657 0.96283 0.0
H178 H 0.9659 0.2625 0.91359 0.0
H179 H 0.95964 0.29842 0.8775 0.0
Mn180 Mn 0.86041 0.87721 0.22488 0.0
Mn181 Mn 0.88394 0.82655 0.1873 0.0
C182 C 0.86266 0.82269 0.23541 0.0
C183 C 0.81432 0.90346 0.23592 0.0
C184 C 0.92987 0.87517 0.21151 0.0
O185 O 0.85713 0.89925 0.19115 0.0
O186 O 0.85782 0.85533 0.1699 0.0
C187 C 0.82091 0.80085 0.15991 0.0
N188 N 0.84952 0.79351 0.17824 0.0
C189 C 0.87367 0.73929 0.13348 0.0
C190 C 0.83945 0.75428 0.11727 0.0
C191 C 0.81517 0.78391 0.1308 0.0
C192 C 0.87389 0.76745 0.17555 0.0
H193 H 0.80448 0.81859 0.1651 0.0
C194 C 0.85134 0.88404 0.17193 0.0
O195 O 0.84157 0.91477 0.24155 0.0
O196 O 0.81417 0.87724 0.22493 0.0
N197 N 0.91339 0.7989 0.20458 0.0
C198 C 0.94809 0.811 0.21214 0.0
C199 C 0.98396 0.80346 0.19605 0.0
C200 C 0.98624 0.78036 0.1689 0.0
C201 C 0.95151 0.76401 0.15675 0.0
C202 C 0.90566 0.77714 0.18389 0.0
H203 H 0.95026 0.82187 0.22914 0.0
O204 O 0.86058 0.8435 0.25191 0.0
O205 O 0.86272 0.8351 0.21503 0.0
O206 O 0.9105 0.88238 0.22797 0.0
O207 O 0.91805 0.86149 0.19315 0.0
C208 C 0.94488 0.74598 0.13151 0.0
C209 C 0.91012 0.73404 0.1208 0.0
H210 H 0.85928 0.7426 0.1225 0.0
H211 H 0.79535 0.79217 0.12078 0.0
H212 H 0.00363 0.81542 0.20344 0.0
H213 H 0.00678 0.77738 0.15848 0.0
H214 H 0.96522 0.7435 0.12055 0.0
H215 H 0.90985 0.72573 0.10288 0.0
Mn216 Mn 0.37896 0.59495 0.47126 0.0
Mn217 Mn 0.42513 0.6335 0.43655 0.0
C218 C 0.43379 0.58911 0.47768 0.0
C219 C 0.35294 0.54845 0.48184 0.0
C220 C 0.38397 0.66829 0.47124 0.0
O221 O 0.35268 0.60034 0.44013 0.0
O222 O 0.39029 0.62038 0.41681 0.0
C223 C 0.44669 0.60347 0.38524 0.0
N224 N 0.45204 0.61366 0.41234 0.0
C225 C 0.5242 0.64428 0.391 0.0
C226 C 0.51118 0.62819 0.3626 0.0
C227 C 0.4735 0.60921 0.36118 0.0
C228 C 0.47969 0.63179 0.42171 0.0
H229 H 0.42411 0.59425 0.38056 0.0
C230 C 0.36361 0.60779 0.41971 0.0
O231 O 0.34388 0.57534 0.48987 0.0
O232 O 0.37553 0.54888 0.46682 0.0
N233 N 0.459 0.64677 0.45765 0.0
C234 C 0.46819 0.64924 0.48221 0.0
C235 C 0.49616 0.66963 0.49089 0.0
C236 C 0.52318 0.70886 0.46311 0.0
C237 C 0.51011 0.70294 0.43652 0.0
C238 C 0.47262 0.65999 0.43834 0.0
H239 H 0.45242 0.641 0.49564 0.0
O240 O 0.41385 0.58679 0.49474 0.0
O241 O 0.42098 0.59701 0.45747 0.0
O242 O 0.37502 0.64358 0.48234 0.0
O243 O 0.39971 0.66503 0.45279 0.0
C244 C 0.53681 0.7047 0.41555 0.0
C245 C 0.54403 0.67815 0.39515 0.0
H246 H 0.52327 0.63879 0.37588 0.0
H247 H 0.46494 0.60142 0.34464 0.0
H248 H 0.5 0.66472 0.50963 0.0
H249 H 0.54408 0.72334 0.46488 0.0
H250 H 0.55399 0.72281 0.41748 0.0
H251 H 0.56208 0.68279 0.38245 0.0
Mn252 Mn 0.64477 0.12834 0.72982 0.0
Mn253 Mn 0.62214 0.17667 0.69135 0.0
C254 C 0.63704 0.18254 0.74106 0.0
C255 C 0.69274 0.1059 0.74113 0.0
C256 C 0.57893 0.12643 0.7138 0.0
O257 O 0.64574 0.10559 0.696 0.0
O258 O 0.65515 0.15031 0.67887 0.0
C259 C 0.68901 0.20502 0.67279 0.0
N260 N 0.65591 0.21092 0.68673 0.0
C261 C 0.64138 0.26522 0.64001 0.0
C262 C 0.6798 0.25228 0.62899 0.0
C263 C 0.70138 0.22322 0.64539 0.0
C264 C 0.63128 0.23558 0.68072 0.0
H265 H 0.70379 0.18629 0.67904 0.0
C266 C 0.65321 0.12118 0.6774 0.0
O267 O 0.66641 0.0923 0.74637 0.0
O268 O 0.69098 0.13162 0.72954 0.0
N269 N 0.58555 0.20189 0.70299 0.0
C270 C 0.54955 0.18834 0.7046 0.0
C271 C 0.51851 0.19486 0.68275 0.0
C272 C 0.52361 0.2175 0.65631 0.0
C273 C 0.56016 0.23641 0.65053 0.0
C274 C 0.59805 0.22412 0.68393 0.0
H275 H 0.54213 0.17966 0.72142 0.0
O276 O 0.64279 0.16204 0.75725 0.0
O277 O 0.6372 0.16996 0.72095 0.0
O278 O 0.59645 0.12084 0.73167 0.0
O279 O 0.5908 0.14006 0.6954 0.0
C280 C 0.57262 0.25643 0.62732 0.0
C281 C 0.60901 0.27008 0.62241 0.0
H282 H 0.65856 0.26289 0.63136 0.0
H283 H 0.72357 0.21583 0.63818 0.0
H284 H 0.49521 0.18669 0.68645 0.0
H285 H 0.50574 0.21757 0.64306 0.0
H286 H 0.55508 0.26032 0.61424 0.0
H287 H 0.61455 0.28114 0.60603 0.0
Mn288 Mn 0.88461 0.38445 0.97316 0.0
Mn289 Mn 0.93292 0.34458 0.94274 0.0
C290 C 0.9391 0.3897 0.9815 0.0
C291 C 0.8596 0.43303 0.9806 0.0
C292 C 0.88341 0.31134 0.97087 0.0
O293 O 0.86333 0.37926 0.93988 0.0
O294 O 0.90501 0.36182 0.91889 0.0
C295 C 0.97741 0.39114 0.91021 0.0
N296 N 0.9683 0.36456 0.92501 0.0
C297 C 0.02696 0.3146 0.90507 0.0
C298 C 0.04045 0.34224 0.88823 0.0
C299 C 0.00734 0.39132 0.89357 0.0
C300 C 0.98387 0.33617 0.92781 0.0
H301 H 0.962 0.41114 0.90941 0.0
C302 C 0.87766 0.37389 0.92016 0.0
O303 O 0.84842 0.40708 0.98894 0.0
O304 O 0.88388 0.4305 0.96741 0.0
N305 N 0.95845 0.32816 0.96904 0.0
C306 C 0.95405 0.30533 0.99135 0.0
C307 C 0.98321 0.28011 0.00352 0.0
C308 C 0.02267 0.27509 0.99297 0.0
C309 C 0.03519 0.29676 0.96723 0.0
C310 C 0.98757 0.3328 0.9548 0.0
H311 H 0.93161 0.30486 -0.00015 0.0
O312 O 0.91879 0.39284 0.99827 0.0
O313 O 0.92652 0.38093 0.96185 0.0
O314 O 0.87755 0.33556 0.98373 0.0
O315 O 0.89961 0.31538 0.95268 0.0
C316 C 0.05846 0.28418 0.94506 0.0
C317 C 0.05418 0.29233 0.91721 0.0
H318 H 0.06286 0.3382 0.87939 0.0
H319 H 0.00981 0.41467 0.88579 0.0
H320 H 0.97694 0.26858 0.01977 0.0
H321 H 0.03458 0.28408 0.97907 0.0
H322 H 0.07587 0.26692 0.94936 0.0
H323 H 0.07367 0.28581 0.90647 0.0
Mn324 Mn 0.3709 0.13779 0.72343 0.0
Mn325 Mn 0.39409 0.18644 0.68145 0.0
C326 C 0.37941 0.19173 0.73328 0.0
C327 C 0.32482 0.11425 0.73829 0.0
C328 C 0.44092 0.14269 0.70892 0.0
O329 O 0.36459 0.11086 0.69278 0.0
O330 O 0.37426 0.14947 0.66819 0.0
C331 C 0.3199 0.1993 0.66146 0.0
N332 N 0.35364 0.20843 0.67252 0.0
C333 C 0.33713 0.28361 0.64856 0.0
C334 C 0.30059 0.26531 0.63852 0.0
C335 C 0.29399 0.22472 0.64511 0.0
C336 C 0.36871 0.24009 0.67174 0.0
H337 H 0.31141 0.17621 0.66491 0.0
C338 C 0.36436 0.12225 0.67204 0.0
O339 O 0.35218 0.1022 0.74255 0.0
O340 O 0.32456 0.13984 0.72639 0.0
N341 N 0.41776 0.22649 0.68657 0.0
C342 C 0.44307 0.23904 0.70098 0.0
C343 C 0.46045 0.27107 0.69588 0.0
C344 C 0.44901 0.30294 0.65848 0.0
C345 C 0.42175 0.28585 0.6438 0.0
C346 C 0.40422 0.24052 0.66664 0.0
H347 H 0.45212 0.2247 0.71501 0.0
O348 O 0.37576 0.17079 0.74943 0.0
O349 O 0.3766 0.18053 0.71229 0.0
O350 O 0.41986 0.13104 0.72272 0.0
O351 O 0.43359 0.16204 0.69194 0.0
C352 C 0.39708 0.30988 0.63091 0.0
C353 C 0.35891 0.30973 0.63327 0.0
H354 H 0.31857 0.28027 0.64198 0.0
H355 H 0.27217 0.21471 0.63913 0.0
H356 H 0.47507 0.27657 0.71094 0.0
H357 H 0.45615 0.32625 0.65264 0.0
H358 H 0.40731 0.32955 0.62194 0.0
H359 H 0.34626 0.32505 0.62173 0.0
Mn360 Mn 0.62287 0.6169 0.47879 0.0
Mn361 Mn 0.57099 0.6469 0.44683 0.0
C362 C 0.56902 0.60483 0.48636 0.0
C363 C 0.65388 0.57298 0.48787 0.0
C364 C 0.61615 0.68881 0.47242 0.0
O365 O 0.64401 0.62255 0.44556 0.0
O366 O 0.6003 0.63048 0.42357 0.0
C367 C 0.52723 0.597 0.41511 0.0
N368 N 0.53715 0.62326 0.4299 0.0
C369 C 0.48818 0.67864 0.40399 0.0
C370 C 0.47379 0.65167 0.38696 0.0
C371 C 0.49986 0.59924 0.39632 0.0
C372 C 0.52491 0.65351 0.43086 0.0
H373 H 0.54094 0.5758 0.41527 0.0
C374 C 0.62915 0.62256 0.42563 0.0
O375 O 0.66135 0.6005 0.49568 0.0
O376 O 0.62957 0.57141 0.47467 0.0
N377 N 0.54507 0.66177 0.4735 0.0
C378 C 0.54904 0.68536 0.49534 0.0
C379 C 0.52141 0.71402 0.5044 0.0
C380 C 0.48416 0.72219 0.49065 0.0
C381 C 0.47292 0.70044 0.46473 0.0
C382 C 0.51771 0.65892 0.45724 0.0
H383 H 0.57069 0.68487 0.50506 0.0
O384 O 0.58862 0.60582 0.50377 0.0
O385 O 0.58151 0.61334 0.46678 0.0
O386 O 0.62371 0.6671 0.48716 0.0
O387 O 0.60148 0.68038 0.45433 0.0
C388 C 0.45431 0.71411 0.44053 0.0
C389 C 0.46252 0.70494 0.4133 0.0
H390 H 0.45408 0.65757 0.37579 0.0
H391 H 0.49586 0.57592 0.38884 0.0
H392 H 0.52745 0.72646 0.5203 0.0
H393 H 0.47328 0.71361 0.47617 0.0
H394 H 0.43768 0.73273 0.44325 0.0
H395 H 0.45011 0.71825 0.40051 0.0
Mn396 Mn 0.14684 0.87597 0.2222 0.0
Mn397 Mn 0.12213 0.82193 0.18664 0.0
C398 C 0.15501 0.82161 0.23244 0.0
C399 C 0.19251 0.90435 0.23329 0.0
C400 C 0.07487 0.8648 0.21502 0.0
O401 O 0.1429 0.89946 0.18968 0.0
O402 O 0.13324 0.85732 0.16726 0.0
C403 C 0.17481 0.80638 0.14362 0.0
N404 N 0.15549 0.79902 0.16772 0.0
C405 C 0.13022 0.73168 0.13646 0.0
C406 C 0.15462 0.74623 0.11329 0.0
C407 C 0.17571 0.78236 0.11726 0.0
C408 C 0.13448 0.77109 0.17191 0.0
H409 H 0.18645 0.82868 0.14239 0.0
C410 C 0.13989 0.88599 0.16951 0.0
O411 O 0.16492 0.91332 0.24005 0.0
O412 O 0.19316 0.88039 0.21982 0.0
N413 N 0.10903 0.78636 0.20636 0.0
C414 C 0.09687 0.77481 0.22853 0.0
C415 C 0.07261 0.74784 0.23013 0.0
C416 C 0.04361 0.72788 0.19316 0.0
C417 C 0.0593 0.74444 0.16998 0.0
C418 C 0.10242 0.77763 0.18368 0.0
H419 H 0.09918 0.78912 0.24403 0.0
O420 O 0.15356 0.84292 0.24853 0.0
O421 O 0.15015 0.83299 0.21154 0.0
O422 O 0.09625 0.8781 0.22772 0.0
O423 O 0.08389 0.84508 0.19952 0.0
C424 C 0.06363 0.7212 0.14679 0.0
C425 C 0.09638 0.7147 0.13193 0.0
H426 H 0.15415 0.73522 0.09625 0.0
H427 H 0.18891 0.79107 0.10244 0.0
H428 H 0.06966 0.74176 0.24878 0.0
H429 H 0.02625 0.7094 0.19038 0.0
H430 H 0.04388 0.70645 0.14277 0.0
H431 H 0.09594 0.6982 0.11765 0.0
Mn432 Mn 0.88669 0.6068 0.02043 0.0
Mn433 Mn 0.93405 0.64577 0.0523 0.0
C434 C 0.9417 0.60163 0.01367 0.0
C435 C 0.86132 0.55869 0.01195 0.0
C436 C 0.88507 0.6797 0.02374 0.0
O437 O 0.86396 0.61188 0.05315 0.0
O438 O 0.90536 0.62758 0.07536 0.0
C439 C 0.97985 0.60077 0.08604 0.0
N440 N 0.9694 0.62649 0.0708 0.0
C441 C 0.02094 0.68203 0.09375 0.0
C442 C 0.03559 0.65591 0.11114 0.0
C443 C 0.00819 0.60346 0.10418 0.0
C444 C 0.98239 0.65635 0.0687 0.0
H445 H 0.9662 0.5795 0.08642 0.0
C446 C 0.87783 0.61592 0.07325 0.0
O447 O 0.8509 0.58492 0.00357 0.0
O448 O 0.88519 0.56065 0.02565 0.0
N449 N 0.96013 0.66257 0.02639 0.0
C450 C 0.95564 0.68508 0.00391 0.0
C451 C 0.98343 0.71286 0.99322 0.0
C452 C 0.02132 0.72113 0.0057 0.0
C453 C 0.03342 0.70059 0.03204 0.0
C454 C 0.98825 0.66032 0.04202 0.0
H455 H 0.93378 0.684 0.99455 0.0
O456 O 0.92233 0.59867 0.99624 0.0
O457 O 0.92807 0.60992 0.03294 0.0
O458 O 0.88013 0.65587 0.01028 0.0
O459 O 0.90068 0.67516 0.04221 0.0
C460 C 0.05356 0.71499 0.05535 0.0
C461 C 0.04691 0.70688 0.08303 0.0
H462 H 0.05612 0.66242 0.12144 0.0
H463 H 0.01225 0.58048 0.11221 0.0
H464 H 0.97748 0.72418 0.97681 0.0
H465 H 0.03275 0.71317 0.02019 0.0
H466 H 0.07002 0.73358 0.05185 0.0
H467 H 0.06154 0.71896 0.09522 0.0
Mn468 Mn 0.15108 0.12349 0.77775 0.0
Mn469 Mn 0.11441 0.17314 0.81066 0.0
C470 C 0.15924 0.17809 0.77092 0.0
C471 C 0.20016 0.09903 0.76978 0.0
C472 C 0.07758 0.13169 0.77697 0.0
O473 O 0.14395 0.09825 0.80886 0.0
O474 O 0.12343 0.13731 0.83057 0.0
C475 C 0.14682 0.18963 0.86207 0.0
N476 N 0.13703 0.19724 0.83508 0.0
C477 C 0.09806 0.26251 0.8605 0.0
C478 C 0.11443 0.24773 0.88823 0.0
C479 C 0.13728 0.21253 0.88775 0.0
C480 C 0.11645 0.22404 0.82696 0.0
H481 H 0.15912 0.16816 0.8653 0.0
C482 C 0.13483 0.10999 0.82857 0.0
O483 O 0.17448 0.08893 0.76021 0.0
O484 O 0.19689 0.12141 0.78449 0.0
N485 N 0.10447 0.20791 0.78889 0.0
C486 C 0.1012 0.21972 0.76509 0.0
C487 C 0.07848 0.24659 0.75843 0.0
C488 C 0.03664 0.26576 0.7874 0.0
C489 C 0.04292 0.24912 0.81285 0.0
C490 C 0.08946 0.21666 0.80892 0.0
H491 H 0.10969 0.20587 0.75062 0.0
O492 O 0.16082 0.15818 0.75386 0.0
O493 O 0.15023 0.16553 0.79072 0.0
O494 O 0.10169 0.11929 0.76671 0.0
O495 O 0.08231 0.15018 0.79359 0.0
C496 C 0.03731 0.27171 0.83571 0.0
C497 C 0.06195 0.27839 0.85693 0.0
H498 H 0.10308 0.26014 0.8755 0.0
H499 H 0.14586 0.20397 0.9044 0.0
H500 H 0.08372 0.2538 0.7403 0.0
H501 H 0.02294 0.28691 0.78825 0.0
H502 H 0.01657 0.28612 0.8357 0.0
H503 H 0.05201 0.28974 0.87124 0.0
Mn504 Mn 0.62963 0.40169 0.52559 0.0
Mn505 Mn 0.58136 0.35998 0.55711 0.0
C506 C 0.57413 0.40855 0.52078 0.0
C507 C 0.65532 0.44954 0.51827 0.0
C508 C 0.62421 0.32809 0.52184 0.0
O509 O 0.65533 0.39464 0.55607 0.0
O510 O 0.61917 0.3674 0.57652 0.0
C511 C 0.57005 0.38484 0.61082 0.0
N512 N 0.55924 0.3787 0.58392 0.0
C513 C 0.49851 0.33408 0.61054 0.0
C514 C 0.51651 0.34701 0.63819 0.0
C515 C 0.55096 0.37099 0.63697 0.0
C516 C 0.53198 0.35841 0.5761 0.0
H517 H 0.59145 0.39737 0.61354 0.0
C518 C 0.64525 0.38205 0.57512 0.0
O519 O 0.66472 0.42382 0.50849 0.0
O520 O 0.63183 0.44726 0.53234 0.0
N521 N 0.54394 0.35224 0.53628 0.0
C522 C 0.52836 0.35208 0.51345 0.0
C523 C 0.50106 0.32933 0.50688 0.0
C524 C 0.4874 0.28265 0.53342 0.0
C525 C 0.50706 0.28625 0.55802 0.0
C526 C 0.53757 0.3345 0.55551 0.0
H527 H 0.54026 0.36225 0.49863 0.0
O528 O 0.59301 0.41155 0.50303 0.0
O529 O 0.588 0.39816 0.53961 0.0
O530 O 0.6369 0.35335 0.51384 0.0
O531 O 0.60357 0.33058 0.53723 0.0
C532 C 0.48762 0.27695 0.58189 0.0
C533 C 0.483 0.29816 0.60538 0.0
H534 H 0.50274 0.33704 0.62562 0.0
H535 H 0.56166 0.37789 0.6532 0.0
H536 H 0.49175 0.3363 0.48965 0.0
H537 H 0.46859 0.26558 0.53288 0.0
H538 H 0.47289 0.25695 0.58102 0.0
H539 H 0.47202 0.28635 0.61946 0.0
Mn540 Mn 0.3599 0.87157 0.2808 0.0
Mn541 Mn 0.38728 0.81707 0.31514 0.0
C542 C 0.3544 0.81728 0.26929 0.0
C543 C 0.31402 0.89972 0.27021 0.0
C544 C 0.43253 0.86258 0.28768 0.0
O545 O 0.3619 0.89357 0.31402 0.0
O546 O 0.37516 0.85142 0.33527 0.0
C547 C 0.33506 0.79896 0.35753 0.0
N548 N 0.35477 0.79265 0.33355 0.0
C549 C 0.37985 0.72388 0.36338 0.0
C550 C 0.35414 0.7377 0.38713 0.0
C551 C 0.33354 0.77402 0.38324 0.0
C552 C 0.37593 0.76506 0.32892 0.0
H553 H 0.32299 0.82095 0.35898 0.0
C554 C 0.36613 0.8795 0.33383 0.0
O555 O 0.34159 0.9096 0.26411 0.0
O556 O 0.3134 0.87456 0.2825 0.0
N557 N 0.40146 0.78238 0.29503 0.0
C558 C 0.41387 0.77199 0.27257 0.0
C559 C 0.4385 0.74533 0.27029 0.0
C560 C 0.46717 0.7238 0.30677 0.0
C561 C 0.45124 0.7389 0.33021 0.0
C562 C 0.40797 0.7724 0.3175 0.0
H563 H 0.41139 0.78698 0.25745 0.0
O564 O 0.35491 0.83931 0.25369 0.0
O565 O 0.35867 0.828 0.29047 0.0
O566 O 0.41046 0.87601 0.27578 0.0
O567 O 0.42466 0.84154 0.30255 0.0
C568 C 0.44744 0.71444 0.35242 0.0
C569 C 0.415 0.70641 0.36699 0.0
H570 H 0.36938 0.72557 0.37687 0.0
H571 H 0.31924 0.78188 0.39774 0.0
H572 H 0.44179 0.74028 0.25151 0.0
H573 H 0.48469 0.7054 0.30915 0.0
H574 H 0.46768 0.70019 0.35588 0.0
H575 H 0.41583 0.68981 0.3812 0.0
Mn576 Mn 0.6272 0.11587 0.52498 0.0
Mn577 Mn 0.57559 0.15424 0.55242 0.0
C578 C 0.57291 0.10799 0.51473 0.0
C579 C 0.65493 0.06896 0.51897 0.0
C580 C 0.62487 0.18909 0.52525 0.0
O581 O 0.64628 0.12257 0.55941 0.0
O582 O 0.60254 0.13903 0.5779 0.0
C583 C 0.53394 0.10464 0.58349 0.0
N584 N 0.5416 0.13141 0.56865 0.0
C585 C 0.48289 0.18032 0.59002 0.0
C586 C 0.47063 0.15251 0.60684 0.0
C587 C 0.50476 0.10378 0.6005 0.0
C588 C 0.52579 0.15961 0.56623 0.0
H589 H 0.55016 0.0853 0.58429 0.0
C590 C 0.63006 0.12732 0.57846 0.0
O591 O 0.66536 0.0953 0.5108 0.0
O592 O 0.62978 0.07025 0.53136 0.0
N593 N 0.55026 0.1689 0.52518 0.0
C594 C 0.55419 0.19248 0.50333 0.0
C595 C 0.52476 0.21784 0.49182 0.0
C596 C 0.48531 0.22204 0.50271 0.0
C597 C 0.47325 0.19928 0.52823 0.0
C598 C 0.52138 0.16355 0.53952 0.0
H599 H 0.57668 0.19363 0.49492 0.0
O600 O 0.59435 0.10501 0.49877 0.0
O601 O 0.58448 0.1179 0.53438 0.0
O602 O 0.6328 0.16451 0.51352 0.0
O603 O 0.60759 0.18527 0.54292 0.0
C604 C 0.45012 0.21074 0.55072 0.0
C605 C 0.45512 0.20208 0.5784 0.0
H606 H 0.44906 0.15667 0.61678 0.0
H607 H 0.50326 0.0804 0.60839 0.0
H608 H 0.5309 0.23023 0.47591 0.0
H609 H 0.47355 0.21249 0.5165 0.0
H610 H 0.43206 0.22746 0.54675 0.0
H611 H 0.43609 0.20779 0.58929 0.0
Mn612 Mn 0.14109 0.36692 0.77492 0.0
Mn613 Mn 0.0997 0.31912 0.80535 0.0
C614 C 0.14447 0.31254 0.76617 0.0
C615 C 0.18907 0.39235 0.76898 0.0
C616 C 0.06855 0.37008 0.77651 0.0
O617 O 0.13615 0.38821 0.80801 0.0
O618 O 0.11871 0.34659 0.82882 0.0
C619 C 0.14569 0.27367 0.83785 0.0
N620 N 0.11897 0.28323 0.82329 0.0
C621 C 0.06849 0.22488 0.84391 0.0
C622 C 0.09611 0.21137 0.8606 0.0
C623 C 0.14569 0.24395 0.8547 0.0
C624 C 0.09042 0.26781 0.82075 0.0
H625 H 0.16617 0.28842 0.83819 0.0
C626 C 0.13235 0.3732 0.82756 0.0
O627 O 0.16339 0.40357 0.76018 0.0
O628 O 0.18671 0.36708 0.78117 0.0
N629 N 0.08204 0.29334 0.77966 0.0
C630 C 0.05854 0.29813 0.7578 0.0
C631 C 0.03228 0.26952 0.74612 0.0
C632 C 0.02682 0.23011 0.75663 0.0
C633 C 0.04941 0.21697 0.78188 0.0
C634 C 0.08662 0.26408 0.79383 0.0
H635 H 0.0583 0.32051 0.74934 0.0
O636 O 0.14903 0.33298 0.74965 0.0
O637 O 0.13586 0.32503 0.78584 0.0
O638 O 0.09311 0.37508 0.76395 0.0
O639 O 0.07141 0.35339 0.79471 0.0
C640 C 0.03707 0.19379 0.80423 0.0
C641 C 0.04572 0.19795 0.83203 0.0
H642 H 0.0915 0.18949 0.87 0.0
H643 H 0.16913 0.24133 0.86237 0.0
H644 H 0.02019 0.27643 0.73026 0.0
H645 H 0.03617 0.2179 0.77026 0.0
H646 H 0.01951 0.17658 0.80022 0.0
H647 H 0.03891 0.17865 0.84297 0.0
Mn648 Mn 0.86345 0.89243 0.02544 0.0
Mn649 Mn 0.91396 0.85812 0.05888 0.0
C650 C 0.91787 0.90298 0.01897 0.0
C651 C 0.8337 0.93689 0.01656 0.0
C652 C 0.87314 0.81954 0.02561 0.0
O653 O 0.83879 0.886 0.05696 0.0
O654 O 0.87842 0.86855 0.07954 0.0
C655 C 0.93125 0.88873 0.11006 0.0
N656 N 0.93891 0.88023 0.08286 0.0
C657 C 0.00445 0.84108 0.1078 0.0
C658 C 0.98948 0.85533 0.13508 0.0
C659 C 0.95395 0.87793 0.13543 0.0
C660 C 0.96603 0.86021 0.07436 0.0
H661 H 0.90958 0.89987 0.11383 0.0
C662 C 0.85112 0.8803 0.07721 0.0
O663 O 0.82636 0.90982 0.00788 0.0
O664 O 0.85737 0.93777 0.03055 0.0
N665 N 0.94883 0.84833 0.03651 0.0
C666 C 0.96145 0.84659 0.01282 0.0
C667 C 0.98908 0.82488 0.00574 0.0
C668 C 0.00911 0.78203 0.03373 0.0
C669 C 0.99229 0.78726 0.05949 0.0
C670 C 0.9589 0.83345 0.05609 0.0
H671 H 0.94756 0.85516 0.9984 0.0
O672 O 0.89802 0.90347 0.00171 0.0
O673 O 0.90547 0.89372 0.03877 0.0
O674 O 0.86161 0.84328 0.01464 0.0
O675 O 0.89036 0.82477 0.04302 0.0
C676 C 0.01481 0.78195 0.08281 0.0
C677 C 0.02052 0.80637 0.10467 0.0
H678 H 0.99961 0.84724 0.15133 0.0
H679 H 0.94351 0.88404 0.15199 0.0
H680 H 0.99601 0.83084 0.98768 0.0
H681 H 0.02938 0.7668 0.03315 0.0
H682 H 0.03003 0.76234 0.08258 0.0
H683 H 0.03196 0.79631 0.11938 0.0
Mn684 Mn 0.3669 0.6262 0.27205 0.0
Mn685 Mn 0.40025 0.6717 0.3085 0.0
C686 C 0.36696 0.68129 0.26321 0.0
C687 C 0.31962 0.6018 0.26196 0.0
C688 C 0.43786 0.62337 0.28151 0.0
O689 O 0.36623 0.60265 0.30507 0.0
O690 O 0.37556 0.64422 0.32808 0.0
C691 C 0.34288 0.71598 0.33122 0.0
N692 N 0.37404 0.70638 0.32264 0.0
C693 C 0.4153 0.76145 0.35532 0.0
C694 C 0.38323 0.77479 0.36605 0.0
C695 C 0.33696 0.74497 0.34853 0.0
C696 C 0.40258 0.72082 0.32678 0.0
H697 H 0.323 0.7013 0.32717 0.0
C698 C 0.3651 0.61673 0.32521 0.0
O699 O 0.34614 0.59029 0.25489 0.0
O700 O 0.3208 0.62686 0.27439 0.0
N701 N 0.42639 0.69789 0.28809 0.0
C702 C 0.4576 0.69378 0.27259 0.0
C703 C 0.48766 0.7222 0.26849 0.0
C704 C 0.48839 0.76084 0.28085 0.0
C705 C 0.45665 0.77303 0.30032 0.0
C706 C 0.41681 0.72611 0.30183 0.0
H707 H 0.45943 0.67341 0.26209 0.0
O708 O 0.36404 0.66103 0.24641 0.0
O709 O 0.37089 0.66783 0.28339 0.0
O710 O 0.41642 0.61926 0.26587 0.0
O711 O 0.43031 0.63712 0.30051 0.0
C712 C 0.45848 0.79548 0.32494 0.0
C713 C 0.44105 0.78887 0.34968 0.0
H714 H 0.38492 0.79555 0.37725 0.0
H715 H 0.3117 0.74811 0.35107 0.0
H716 H 0.50422 0.71622 0.25512 0.0
H717 H 0.47379 0.77229 0.29225 0.0
H718 H 0.47209 0.81644 0.32542 0.0
H719 H 0.44253 0.80821 0.36122 0.0
Mn720 Mn 0.62269 0.90295 0.47211 0.0
Mn721 Mn 0.57852 0.8698 0.43474 0.0
C722 C 0.5683 0.90906 0.47975 0.0
C723 C 0.65138 0.94748 0.4833 0.0
C724 C 0.61868 0.83098 0.46658 0.0
O725 O 0.64882 0.89902 0.44067 0.0
O726 O 0.60933 0.89038 0.41539 0.0
C727 C 0.5463 0.90183 0.38632 0.0
N728 N 0.54656 0.88843 0.41304 0.0
C729 C 0.47074 0.85962 0.39826 0.0
C730 C 0.47756 0.87916 0.36997 0.0
C731 C 0.51449 0.89884 0.36533 0.0
C732 C 0.52115 0.86904 0.42414 0.0
H733 H 0.56745 0.91278 0.37997 0.0
C734 C 0.63692 0.89975 0.41979 0.0
O735 O 0.65915 0.9199 0.49083 0.0
O736 O 0.628 0.94887 0.46904 0.0
N737 N 0.54896 0.85028 0.45632 0.0
C738 C 0.54427 0.84577 0.48144 0.0
C739 C 0.51827 0.82447 0.49197 0.0
C740 C 0.4856 0.7881 0.46547 0.0
C741 C 0.49359 0.79654 0.43796 0.0
C742 C 0.53126 0.83928 0.43813 0.0
H743 H 0.56173 0.85394 0.49364 0.0
O744 O 0.58904 0.91035 0.49633 0.0
O745 O 0.58027 0.90359 0.45867 0.0
O746 O 0.62351 0.85328 0.4813 0.0
O747 O 0.61023 0.83907 0.4462 0.0
C748 C 0.46307 0.79653 0.42005 0.0
C749 C 0.4517 0.82518 0.4028 0.0
H750 H 0.46858 0.86664 0.38372 0.0
H751 H 0.51708 0.91209 0.34935 0.0
H752 H 0.51818 0.82764 0.51114 0.0
H753 H 0.46564 0.77283 0.46887 0.0
H754 H 0.44623 0.77803 0.42237 0.0
H755 H 0.42918 0.8225 0.39454 0.0
Mn756 Mn 0.36411 0.37958 0.73187 0.0
Mn757 Mn 0.38826 0.33603 0.69105 0.0
C758 C 0.37606 0.32611 0.7428 0.0
C759 C 0.31521 0.39878 0.74303 0.0
C760 C 0.42749 0.38869 0.71407 0.0
O761 O 0.36088 0.4035 0.699 0.0
O762 O 0.34964 0.35866 0.68431 0.0
C763 C 0.33226 0.27949 0.69131 0.0
N764 N 0.36112 0.29697 0.6862 0.0
C765 C 0.37818 0.25622 0.63479 0.0
C766 C 0.3467 0.23566 0.63745 0.0
C767 C 0.31924 0.25118 0.67566 0.0
C768 C 0.38295 0.28964 0.66941 0.0
H769 H 0.3169 0.28827 0.70479 0.0
C770 C 0.35136 0.38759 0.68133 0.0
O771 O 0.34056 0.41409 0.74817 0.0
O772 O 0.31835 0.37275 0.73187 0.0
N773 N 0.42799 0.31433 0.69544 0.0
C774 C 0.46403 0.32589 0.69454 0.0
C775 C 0.49568 0.30721 0.67982 0.0
C776 C 0.4936 0.27219 0.66319 0.0
C777 C 0.45588 0.25218 0.65997 0.0
C778 C 0.41455 0.28588 0.68329 0.0
H779 H 0.47097 0.34436 0.70549 0.0
O780 O 0.36789 0.34609 0.75875 0.0
O781 O 0.37769 0.33879 0.72264 0.0
O782 O 0.41088 0.39114 0.73279 0.0
O783 O 0.41618 0.3751 0.69539 0.0
C784 C 0.44273 0.23392 0.63535 0.0
C785 C 0.40762 0.23681 0.62413 0.0
H786 H 0.34282 0.21683 0.62472 0.0
H787 H 0.29802 0.2418 0.68394 0.0
H788 H 0.51793 0.31881 0.6808 0.0
H789 H 0.47565 0.25749 0.65902 0.0
H790 H 0.45959 0.22094 0.62532 0.0
H791 H 0.4007 0.22045 0.61083 0.0
Mn792 Mn 0.86846 0.09965 0.97222 0.0
Mn793 Mn 0.91629 0.13211 0.93646 0.0
C794 C 0.9228 0.08821 0.97736 0.0
C795 C 0.83691 0.05668 0.98157 0.0
C796 C 0.87701 0.17148 0.96993 0.0
O797 O 0.84194 0.10908 0.94206 0.0
O798 O 0.88214 0.11752 0.9175 0.0
C799 C 0.93619 0.10493 0.88399 0.0
N800 N 0.94285 0.11389 0.91129 0.0
C801 C 0.00908 0.15389 0.88771 0.0
C802 C 0.99537 0.13821 0.85944 0.0
C803 C 0.96007 0.11521 0.85888 0.0
C804 C 0.96922 0.13452 0.92009 0.0
H805 H 0.91441 0.09324 0.88006 0.0
C806 C 0.85385 0.11006 0.92128 0.0
O807 O 0.83151 0.08394 0.99072 0.0
O808 O 0.85978 0.05479 0.96687 0.0
N809 N 0.95036 0.14549 0.95761 0.0
C810 C 0.96175 0.14739 0.98162 0.0
C811 C 0.98828 0.16987 0.98952 0.0
C812 C 0.00856 0.21332 0.96222 0.0
C813 C 0.9933 0.20775 0.93599 0.0
C814 C 0.96085 0.16089 0.93822 0.0
H815 H 0.94768 0.13802 0.99563 0.0
O816 O 0.9034 0.08728 0.99488 0.0
O817 O 0.90991 0.09702 0.95761 0.0
O818 O 0.86981 0.14833 0.98332 0.0
O819 O 0.88992 0.1654 0.95056 0.0
C820 C 0.01706 0.21401 0.9137 0.0
C821 C 0.02504 0.18991 0.89219 0.0
H822 H 0.00731 0.14931 0.87259 0.0
H823 H 0.95193 0.10725 0.84195 0.0
H824 H 0.99435 0.16411 0.00779 0.0
H825 H 0.02797 0.22967 0.96358 0.0
H826 H 0.03171 0.2344 0.91466 0.0
H827 H 0.03975 0.19924 0.87893 0.0
Mn828 Mn 0.14687 0.63065 0.22668 0.0
Mn829 Mn 0.11184 0.67615 0.19066 0.0
C830 C 0.1455 0.6855 0.23615 0.0
C831 C 0.19436 0.60619 0.23587 0.0
C832 C 0.07624 0.62591 0.21756 0.0
O833 O 0.14727 0.60781 0.19354 0.0
O834 O 0.13736 0.64975 0.17105 0.0
C835 C 0.16765 0.72228 0.16806 0.0
N836 N 0.13665 0.71202 0.1766 0.0
C837 C 0.09487 0.76879 0.14562 0.0
C838 C 0.12653 0.78257 0.13511 0.0
C839 C 0.1732 0.75209 0.15142 0.0
C840 C 0.10802 0.7266 0.17297 0.0
H841 H 0.18769 0.70768 0.17176 0.0
C842 C 0.14823 0.62241 0.17364 0.0
O843 O 0.16797 0.59439 0.24298 0.0
O844 O 0.193 0.63186 0.2241 0.0
N845 N 0.08484 0.70143 0.21093 0.0
C846 C 0.05388 0.69624 0.22645 0.0
C847 C 0.02379 0.72413 0.2316 0.0
C848 C 0.02254 0.76336 0.22038 0.0
C849 C 0.05382 0.7768 0.20099 0.0
C850 C 0.09396 0.73042 0.19792 0.0
H851 H 0.05216 0.67527 0.23624 0.0
O852 O 0.14938 0.66492 0.25264 0.0
O853 O 0.14152 0.67252 0.21579 0.0
O854 O 0.09784 0.62242 0.2331 0.0
O855 O 0.08301 0.64041 0.19867 0.0
C856 C 0.05145 0.80054 0.17703 0.0
C857 C 0.06942 0.79593 0.15215 0.0
H858 H 0.12458 0.80384 0.12444 0.0
H859 H 0.1984 0.7555 0.14873 0.0
H860 H 0.00823 0.71765 0.2455 0.0
H861 H 0.03681 0.77553 0.20914 0.0
H862 H 0.03709 0.82104 0.17742 0.0
H863 H 0.06901 0.8161 0.14072 0.0
Mn864 Mn 0.3808 0.87996 0.48328 0.0
Mn865 Mn 0.43766 0.84716 0.45522 0.0
C866 C 0.43452 0.88867 0.49416 0.0
C867 C 0.35157 0.92575 0.48977 0.0
C868 C 0.38916 0.80697 0.48028 0.0
O869 O 0.36264 0.87526 0.44903 0.0
O870 O 0.40722 0.86006 0.43106 0.0
C871 C 0.47303 0.90431 0.42502 0.0
N872 N 0.46666 0.87665 0.43916 0.0
C873 C 0.50888 0.82437 0.40482 0.0
C874 C 0.51969 0.85335 0.38792 0.0
C875 C 0.49612 0.9042 0.40357 0.0
C876 C 0.47809 0.84626 0.437 0.0
H877 H 0.45904 0.92503 0.42757 0.0
C878 C 0.37942 0.87114 0.43036 0.0
O879 O 0.34148 0.89888 0.49722 0.0
O880 O 0.37759 0.92568 0.47847 0.0
N881 N 0.46659 0.83439 0.48091 0.0
C882 C 0.46644 0.80854 0.50133 0.0
C883 C 0.49522 0.7792 0.50582 0.0
C884 C 0.52929 0.77201 0.48765 0.0
C885 C 0.53573 0.79625 0.46194 0.0
C886 C 0.49036 0.83843 0.4618 0.0
H887 H 0.4463 0.80777 0.51279 0.0
O888 O 0.41314 0.89013 0.5103 0.0
O889 O 0.42344 0.87937 0.47454 0.0
O890 O 0.37615 0.83026 0.49103 0.0
O891 O 0.41063 0.81229 0.46559 0.0
C892 C 0.54946 0.78539 0.43508 0.0
C893 C 0.53639 0.79782 0.40948 0.0
H894 H 0.53654 0.84833 0.37399 0.0
H895 H 0.4985 0.92836 0.39727 0.0
H896 H 0.49229 0.7658 0.52176 0.0
H897 H 0.53745 0.78186 0.47252 0.0
H898 H 0.56738 0.76771 0.43483 0.0
H899 H 0.55012 0.79134 0.39446 0.0
Mn900 Mn 0.86766 0.63239 0.21996 0.0
Mn901 Mn 0.90422 0.67485 0.18147 0.0
C902 C 0.87321 0.68651 0.2289 0.0
C903 C 0.81885 0.61183 0.23162 0.0
C904 C 0.93809 0.6257 0.2108 0.0
O905 O 0.86647 0.60746 0.18788 0.0
O906 O 0.87665 0.64776 0.16378 0.0
C907 C 0.84904 0.71621 0.16805 0.0
N908 N 0.88315 0.71086 0.16905 0.0
C909 C 0.90293 0.78075 0.14417 0.0
C910 C 0.86791 0.78907 0.14078 0.0
C911 C 0.83367 0.74719 0.15774 0.0
C912 C 0.90928 0.73186 0.16327 0.0
H913 H 0.83364 0.69804 0.17441 0.0
C914 C 0.8661 0.62048 0.1674 0.0
O915 O 0.84485 0.59861 0.23806 0.0
O916 O 0.8213 0.63594 0.21818 0.0
N917 N 0.93062 0.70176 0.19711 0.0
C918 C 0.94102 0.69933 0.21948 0.0
C919 C 0.95388 0.72444 0.23129 0.0
C920 C 0.96021 0.75303 0.22088 0.0
C921 C 0.9507 0.75935 0.19571 0.0
C922 C 0.93265 0.72759 0.18442 0.0
H923 H 0.93628 0.67883 0.22971 0.0
O924 O 0.86789 0.66634 0.2454 0.0
O925 O 0.87561 0.67378 0.20816 0.0
O926 O 0.91601 0.62287 0.22602 0.0
O927 O 0.93214 0.63879 0.19109 0.0
C928 C 0.94158 0.81026 0.17166 0.0
C929 C 0.92005 0.81076 0.15059 0.0
H930 H 0.86288 0.81214 0.13314 0.0
H931 H 0.80814 0.74589 0.1597 0.0
H932 H 0.95854 0.72188 0.24986 0.0
H933 H 0.95556 0.7603 0.20525 0.0
H934 H 0.95215 0.83336 0.17306 0.0
H935 H 0.9108 0.83323 0.14554 0.0
Mn936 Mn 0.11106 0.11112 0.97536 0.0
Mn937 Mn 0.06312 0.15135 0.94398 0.0
C938 C 0.05655 0.10693 0.98298 0.0
C939 C 0.13516 0.06228 0.98349 0.0
C940 C 0.11235 0.18431 0.97302 0.0
O941 O 0.13315 0.11533 0.94244 0.0
O942 O 0.09202 0.13314 0.92096 0.0
C943 C 0.01934 0.10576 0.90999 0.0
N944 N 0.02814 0.1321 0.92515 0.0
C945 C 0.97073 0.18291 0.90383 0.0
C946 C 0.95786 0.15564 0.8865 0.0
C947 C 0.99034 0.10613 0.89242 0.0
C948 C 0.01262 0.16064 0.92767 0.0
H949 H 0.03416 0.08536 0.90977 0.0
C950 C 0.11875 0.11962 0.92262 0.0
O951 O 0.14655 0.08817 0.99178 0.0
O952 O 0.11118 0.06499 0.97 0.0
N953 N 0.03617 0.16794 0.96949 0.0
C954 C 0.03964 0.1904 0.99209 0.0
C955 C 0.01004 0.21561 0.00369 0.0
C956 C 0.97108 0.22098 0.99216 0.0
C957 C 0.95962 0.19981 0.96594 0.0
C958 C 0.00764 0.16364 0.95449 0.0
H959 H 0.06181 0.1908 0.00101 0.0
O960 O 0.07639 0.10362 6e-05 0.0
O961 O 0.06946 0.11533 0.96343 0.0
O962 O 0.11852 0.15995 0.98564 0.0
O963 O 0.09597 0.18059 0.95484 0.0
C964 C 0.93745 0.21282 0.94318 0.0
C965 C 0.94317 0.20522 0.9153 0.0
H966 H 0.93639 0.16052 0.87661 0.0
H967 H 0.98812 0.08293 0.88434 0.0
H968 H 0.01568 0.22698 0.02014 0.0
H969 H 0.95975 0.21228 0.97785 0.0
H970 H 0.92035 0.23051 0.94706 0.0
H971 H 0.9251 0.21316 0.90368 0.0
Mn972 Mn 0.63259 0.37108 0.72223 0.0
Mn973 Mn 0.59667 0.32589 0.68374 0.0
C974 C 0.62108 0.31787 0.73304 0.0
C975 C 0.68116 0.39106 0.73489 0.0
C976 C 0.56279 0.37885 0.70957 0.0
O977 O 0.64 0.39342 0.68966 0.0
O978 O 0.6242 0.35394 0.66697 0.0
C979 C 0.65543 0.28795 0.67778 0.0
N980 N 0.62155 0.29184 0.67359 0.0
C981 C 0.61172 0.22226 0.64538 0.0
C982 C 0.64733 0.21545 0.64729 0.0
C983 C 0.67454 0.25809 0.66961 0.0
C984 C 0.59826 0.27005 0.664 0.0
H985 H 0.66807 0.30655 0.68646 0.0
C986 C 0.63884 0.37933 0.66973 0.0
O987 O 0.65522 0.40568 0.73938 0.0
O988 O 0.67877 0.36485 0.72376 0.0
N989 N 0.56955 0.29662 0.69633 0.0
C990 C 0.55186 0.29808 0.71604 0.0
C991 C 0.53195 0.27361 0.72256 0.0
C992 C 0.52888 0.24574 0.70986 0.0
C993 C 0.54976 0.23975 0.68865 0.0
C994 C 0.56988 0.27243 0.68157 0.0
H995 H 0.55279 0.31866 0.72699 0.0
O996 O 0.62696 0.33884 0.74889 0.0
O997 O 0.62185 0.32924 0.71196 0.0
O998 O 0.58493 0.38471 0.72427 0.0
O999 O 0.56694 0.35984 0.6926 0.0
C1000 C 0.56776 0.1899 0.66622 0.0
C1001 C 0.59429 0.19124 0.64821 0.0
H1002 H 0.65523 0.1928 0.64038 0.0
H1003 H 0.69896 0.26035 0.67538 0.0
H1004 H 0.51774 0.27652 0.73812 0.0
H1005 H 0.5409 0.23884 0.69658 0.0
H1006 H 0.55956 0.1658 0.66703 0.0
H1007 H 0.60309 0.16988 0.64048 0.0
Mn1008 Mn 0.38157 0.09611 0.5256 0.0
Mn1009 Mn 0.43114 0.13258 0.55836 0.0
C1010 C 0.43703 0.08876 0.51823 0.0
C1011 C 0.35398 0.04965 0.51742 0.0
C1012 C 0.38636 0.1695 0.52709 0.0
O1013 O 0.35726 0.10129 0.55746 0.0
O1014 O 0.39665 0.12065 0.57941 0.0
C1015 C 0.45082 0.10105 0.60881 0.0
N1016 N 0.45717 0.11085 0.58171 0.0
C1017 C 0.52176 0.15185 0.60595 0.0
C1018 C 0.50865 0.13596 0.63319 0.0
C1019 C 0.47416 0.1115 0.63391 0.0
C1020 C 0.48295 0.13229 0.57312 0.0
H1021 H 0.43043 0.08755 0.61256 0.0
C1022 C 0.36959 0.10829 0.57748 0.0
O1023 O 0.34487 0.07618 0.50876 0.0
O1024 O 0.37843 0.05029 0.53062 0.0
N1025 N 0.46478 0.1444 0.53536 0.0
C1026 C 0.47656 0.14771 0.51143 0.0
C1027 C 0.50304 0.17108 0.50432 0.0
C1028 C 0.52177 0.21359 0.53311 0.0
C1029 C 0.50593 0.20666 0.55893 0.0
C1030 C 0.47434 0.15912 0.55519 0.0
H1031 H 0.46266 0.13885 0.49709 0.0
O1032 O 0.41674 0.08742 0.50127 0.0
O1033 O 0.42421 0.09701 0.53812 0.0
O1034 O 0.37563 0.14554 0.51585 0.0
O1035 O 0.40553 0.16461 0.5433 0.0
C1036 C 0.52921 0.21203 0.58187 0.0
C1037 C 0.53683 0.18691 0.60303 0.0
H1038 H 0.51908 0.14442 0.64896 0.0
H1039 H 0.46616 0.10149 0.65018 0.0
H1040 H 0.50943 0.16654 0.48592 0.0
H1041 H 0.54018 0.23094 0.53198 0.0
H1042 H 0.54439 0.23187 0.58112 0.0
H1043 H 0.55238 0.19457 0.61644 0.0
Mn1044 Mn 0.64677 0.63578 0.28003 0.0
Mn1045 Mn 0.61021 0.67807 0.31856 0.0
C1046 C 0.6413 0.6899 0.27151 0.0
C1047 C 0.69527 0.61446 0.26855 0.0
C1048 C 0.57651 0.62897 0.28883 0.0
O1049 O 0.64724 0.61079 0.31207 0.0
O1050 O 0.63814 0.6514 0.33612 0.0
C1051 C 0.66388 0.7224 0.33359 0.0
N1052 N 0.63024 0.71475 0.33166 0.0
C1053 C 0.60501 0.78099 0.35953 0.0
C1054 C 0.63929 0.79153 0.36378 0.0
C1055 C 0.67684 0.75365 0.34553 0.0
C1056 C 0.60272 0.73349 0.33788 0.0
H1057 H 0.68069 0.70567 0.32706 0.0
C1058 C 0.64808 0.62391 0.3325 0.0
O1059 O 0.66906 0.60173 0.26199 0.0
O1060 O 0.69321 0.63867 0.28195 0.0
N1061 N 0.58357 0.7045 0.30277 0.0
C1062 C 0.57286 0.7025 0.28044 0.0
C1063 C 0.55866 0.72757 0.26935 0.0
C1064 C 0.55143 0.75545 0.28052 0.0
C1065 C 0.5606 0.7607 0.30595 0.0
C1066 C 0.58036 0.72948 0.31615 0.0
H1067 H 0.57816 0.68253 0.26975 0.0
O1068 O 0.64692 0.67007 0.25482 0.0
O1069 O 0.63897 0.67702 0.29212 0.0
O1070 O 0.59852 0.62655 0.27357 0.0
O1071 O 0.58266 0.64157 0.30872 0.0
C1072 C 0.56545 0.81031 0.33265 0.0
C1073 C 0.58546 0.8101 0.35481 0.0
H1074 H 0.64241 0.81434 0.37237 0.0
H1075 H 0.70243 0.75439 0.34393 0.0
H1076 H 0.55375 0.72568 0.25077 0.0
H1077 H 0.55567 0.76196 0.29636 0.0
H1078 H 0.55502 0.83334 0.33132 0.0
H1079 H 0.58943 0.83157 0.36443 0.0
Mn1080 Mn 0.10779 0.88746 0.02228 0.0
Mn1081 Mn 0.06121 0.84633 0.0533 0.0
C1082 C 0.05296 0.89094 0.01442 0.0
C1083 C 0.13227 0.9362 0.0144 0.0
C1084 C 0.11127 0.81478 0.02527 0.0
O1085 O 0.12974 0.88322 0.05547 0.0
O1086 O 0.08832 0.86607 0.07685 0.0
C1087 C 0.01537 0.88954 0.08629 0.0
N1088 N 0.02494 0.86365 0.0711 0.0
C1089 C 0.96727 0.8116 0.09065 0.0
C1090 C 0.95335 0.83824 0.10729 0.0
C1091 C 0.98554 0.88847 0.10283 0.0
C1092 C 0.01013 0.83479 0.06808 0.0
H1093 H 0.03005 0.91008 0.0871 0.0
C1094 C 0.11522 0.87932 0.07532 0.0
O1095 O 0.14357 0.91026 0.00616 0.0
O1096 O 0.10795 0.93364 0.02759 0.0
N1097 N 0.03596 0.82814 0.02714 0.0
C1098 C 0.04104 0.80576 0.00467 0.0
C1099 C 0.01274 0.7797 0.9923 0.0
C1100 C 0.97344 0.77326 0.00274 0.0
C1101 C 0.96008 0.79422 0.02853 0.0
C1102 C 0.00656 0.83166 0.04126 0.0
H1103 H 0.06352 0.80603 0.99623 0.0
O1104 O 0.07294 0.89472 0.99748 0.0
O1105 O 0.06603 0.88281 0.03401 0.0
O1106 O 0.11567 0.83871 0.01184 0.0
O1107 O 0.09614 0.81903 0.0439 0.0
C1108 C 0.93699 0.78078 0.05056 0.0
C1109 C 0.94087 0.78867 0.0785 0.0
H1110 H 0.92933 0.83436 0.11221 0.0
H1111 H 0.98198 0.91177 0.11046 0.0
H1112 H 0.01954 0.76798 0.97625 0.0
H1113 H 0.96115 0.78171 0.01664 0.0
H1114 H 0.92016 0.76301 0.0461 0.0
H1115 H 0.92196 0.78098 0.08962 0.0
Mn1116 Mn 0.85575 0.38741 0.77745 0.0
Mn1117 Mn 0.90221 0.34559 0.81309 0.0
C1118 C 0.85164 0.33317 0.77125 0.0
C1119 C 0.80604 0.40751 0.76686 0.0
C1120 C 0.93102 0.3796 0.77291 0.0
O1121 O 0.85495 0.41275 0.80855 0.0
O1122 O 0.89893 0.39089 0.81526 0.0
C1123 C 0.86441 0.29948 0.82489 0.0
N1124 N 0.90155 0.301 0.8204 0.0
C1125 C 0.92996 0.25523 0.85463 0.0
C1126 C 0.89697 0.24928 0.8622 0.0
C1127 C 0.85496 0.27615 0.84312 0.0
C1128 C 0.93152 0.28039 0.83593 0.0
H1129 H 0.84788 0.31739 0.82095 0.0
C1130 C 0.87559 0.40514 0.82337 0.0
O1131 O 0.8316 0.42018 0.75893 0.0
O1132 O 0.80951 0.3847 0.78127 0.0
N1133 N 0.91325 0.30093 0.80804 0.0
C1134 C 0.90645 0.29835 0.78036 0.0
C1135 C 0.92532 0.27538 0.76808 0.0
C1136 C 0.96429 0.24932 0.79104 0.0
C1137 C 0.96583 0.25521 0.8171 0.0
C1138 C 0.94274 0.28035 0.82443 0.0
H1139 H 0.90157 0.31693 0.76882 0.0
O1140 O 0.85084 0.35265 0.75382 0.0
O1141 O 0.86272 0.34539 0.79117 0.0
O1142 O 0.90608 0.39679 0.76952 0.0
O1143 O 0.92868 0.35479 0.78463 0.0
C1144 C 0.97238 0.23174 0.83389 0.0
C1145 C 0.95349 0.23212 0.85419 0.0
H1146 H 0.89679 0.23009 0.87491 0.0
H1147 H 0.82941 0.27547 0.84523 0.0
H1148 H 0.91916 0.27471 0.74932 0.0
H1149 H 0.98034 0.23028 0.78668 0.0
H1150 H 0.98509 0.21091 0.82936 0.0
H1151 H 0.95227 0.21193 0.86524 0.0
C1152 C 0.1804 0.63027 0.13806 0.0
C1153 C 0.1618 0.60957 0.15154 0.0
H1154 H 0.18966 0.64929 0.10381 0.0
C1155 C 0.14704 0.58487 0.13979 0.0
H1156 H 0.19193 0.64979 0.14657 0.0
C1157 C 0.14697 0.58391 0.11504 0.0
C1158 C 0.1607 0.60813 0.10164 0.0
H1159 H 0.13209 0.56891 0.14939 0.0
H1160 H 0.13215 0.56683 0.10644 0.0
C1161 C 0.17929 0.63003 0.1134 0.0
C1162 C 0.63635 0.93187 0.3837 0.0
C1163 C 0.65354 0.912 0.39879 0.0
H1164 H 0.62312 0.94184 0.34808 0.0
C1165 C 0.67904 0.89583 0.38937 0.0
H1166 H 0.61658 0.94483 0.39053 0.0
C1167 C 0.68373 0.89548 0.36493 0.0
C1168 C 0.66207 0.90988 0.34952 0.0
H1169 H 0.69264 0.88024 0.40034 0.0
H1170 H 0.70125 0.87981 0.35795 0.0
C1171 C 0.64025 0.93052 0.35922 0.0
C1172 C 0.33198 0.38875 0.63953 0.0
C1173 C 0.35509 0.39737 0.65616 0.0
H1174 H 0.32146 0.37602 0.60361 0.0
C1175 C 0.38507 0.40427 0.64759 0.0
H1176 H 0.30875 0.38253 0.64551 0.0
C1177 C 0.39268 0.39888 0.6239 0.0
C1178 C 0.37043 0.38723 0.60769 0.0
H1179 H 0.40361 0.4107 0.65961 0.0
H1180 H 0.41679 0.40205 0.61858 0.0
C1181 C 0.33932 0.38465 0.61544 0.0
C1182 C 0.84041 0.08735 0.88277 0.0
C1183 C 0.83546 0.11152 0.89948 0.0
H1184 H 0.85536 0.07557 0.84738 0.0
C1185 C 0.83539 0.14206 0.89107 0.0
H1186 H 0.84021 0.06321 0.88845 0.0
C1187 C 0.85213 0.14832 0.87073 0.0
C1188 C 0.85879 0.12526 0.85388 0.0
H1189 H 0.83228 0.16125 0.90333 0.0
H1190 H 0.86281 0.1708 0.86959 0.0
C1191 C 0.85069 0.09434 0.85962 0.0
C1192 C 0.14693 0.41369 0.88566 0.0
C1193 C 0.15848 0.3881 0.8988 0.0
H1194 H 0.1284 0.42917 0.85233 0.0
C1195 C 0.17013 0.36242 0.88637 0.0
H1196 H 0.1373 0.43371 0.89477 0.0
C1197 C 0.16518 0.35999 0.86212 0.0
C1198 C 0.14824 0.38296 0.84972 0.0
H1199 H 0.17877 0.34218 0.89578 0.0
H1200 H 0.17158 0.3384 0.85353 0.0
C1201 C 0.14136 0.411 0.86129 0.0
C1202 C 0.85348 0.91731 0.1112 0.0
C1203 C 0.83744 0.89283 0.0996 0.0
H1204 H 0.872 0.93379 0.14427 0.0
C1205 C 0.81667 0.87498 0.11304 0.0
H1206 H 0.8691 0.93219 0.10122 0.0
C1207 C 0.81563 0.87865 0.13764 0.0
C1208 C 0.83774 0.89744 0.14969 0.0
H1209 H 0.80345 0.85627 0.10494 0.0
H1210 H 0.80049 0.86337 0.14747 0.0
C1211 C 0.85478 0.91878 0.13604 0.0
C1212 C 0.33082 0.62177 0.38518 0.0
C1213 C 0.34822 0.59904 0.39712 0.0
H1214 H 0.32099 0.64367 0.35221 0.0
C1215 C 0.36283 0.57557 0.38347 0.0
H1216 H 0.31995 0.64062 0.39489 0.0
C1217 C 0.36464 0.57797 0.35873 0.0
C1218 C 0.35094 0.6034 0.3471 0.0
H1219 H 0.37706 0.55805 0.3921 0.0
H1220 H 0.38007 0.56237 0.34926 0.0
C1221 C 0.33174 0.62358 0.36052 0.0
C1222 C 0.62411 0.10013 0.64249 0.0
C1223 C 0.65263 0.10969 0.65238 0.0
H1224 H 0.59505 0.0982 0.61182 0.0
C1225 C 0.67593 0.12067 0.6366 0.0
H1226 H 0.60506 0.09296 0.65383 0.0
C1227 C 0.67016 0.12404 0.61217 0.0
C1228 C 0.64061 0.11703 0.60273 0.0
H1229 H 0.6978 0.12951 0.64354 0.0
H1230 H 0.6879 0.13459 0.60115 0.0
C1231 C 0.61821 0.10386 0.61823 0.0
C1232 C 0.84971 0.37744 0.85731 0.0
C1233 C 0.86818 0.40228 0.84883 0.0
H1234 H 0.83723 0.34908 0.88721 0.0
C1235 C 0.88424 0.42087 0.86513 0.0
H1236 H 0.83745 0.36243 0.84509 0.0
C1237 C 0.88328 0.41385 0.88919 0.0
C1238 C 0.86678 0.38765 0.89762 0.0
H1239 H 0.89913 0.43973 0.85911 0.0
H1240 H 0.89795 0.42724 0.90103 0.0
C1241 C 0.84928 0.36997 0.88146 0.0
C1242 C 0.37103 0.08207 0.63983 0.0
C1243 C 0.35293 0.10554 0.65038 0.0
H1244 H 0.3864 0.06125 0.60737 0.0
C1245 C 0.33147 0.1214 0.63566 0.0
H1246 H 0.38777 0.06903 0.65021 0.0
C1247 C 0.33333 0.11961 0.61102 0.0
C1248 C 0.35487 0.0996 0.60042 0.0
H1249 H 0.3154 0.1379 0.64289 0.0
H1250 H 0.32014 0.13604 0.60047 0.0
C1251 C 0.37078 0.07825 0.61514 0.0
C1252 C 0.67066 0.62553 0.39418 0.0
C1253 C 0.64388 0.61135 0.4035 0.0
H1254 H 0.695 0.63822 0.36268 0.0
C1255 C 0.62632 0.59129 0.38887 0.0
H1256 H 0.68455 0.64119 0.40489 0.0
C1257 C 0.63249 0.58924 0.36472 0.0
C1258 C 0.65603 0.60765 0.35464 0.0
H1259 H 0.60558 0.57983 0.39564 0.0
H1260 H 0.61571 0.57732 0.3536 0.0
C1261 C 0.67688 0.62337 0.36994 0.0
C1262 C 0.16446 0.89217 0.13042 0.0
C1263 C 0.14119 0.90217 0.14644 0.0
H1264 H 0.17478 0.87621 0.09525 0.0
C1265 C 0.11249 0.91195 0.13706 0.0
H1266 H 0.18678 0.88414 0.13706 0.0
C1267 C 0.10556 0.90712 0.11323 0.0
C1268 C 0.1272 0.89273 0.09794 0.0
H1269 H 0.09375 0.91906 0.14871 0.0
H1270 H 0.08207 0.91218 0.10723 0.0
C1271 C 0.1575 0.88719 0.10643 0.0
C1272 C 0.88194 0.58507 0.11007 0.0
C1273 C 0.86386 0.60508 0.09578 0.0
H1274 H 0.8955 0.5726 0.14514 0.0
C1275 C 0.83905 0.62133 0.10619 0.0
H1276 H 0.90153 0.57252 0.10255 0.0
C1277 C 0.83523 0.6208 0.13076 0.0
C1278 C 0.85651 0.60459 0.14538 0.0
H1279 H 0.82513 0.63736 0.09584 0.0
H1280 H 0.81865 0.63692 0.13852 0.0
C1281 C 0.87824 0.58472 0.13459 0.0
C1282 C 0.11187 0.08356 0.86263 0.0
C1283 C 0.13906 0.09431 0.85155 0.0
H1284 H 0.08472 0.08286 0.89408 0.0
C1285 C 0.16368 0.10524 0.866 0.0
H1286 H 0.09228 0.07545 0.85218 0.0
C1287 C 0.15892 0.11081 0.89022 0.0
C1288 C 0.12966 0.10468 0.90035 0.0
H1289 H 0.18484 0.11421 0.85797 0.0
H1290 H 0.17672 0.12302 0.90018 0.0
C1291 C 0.10728 0.08866 0.88668 0.0
C1292 C 0.64971 0.41598 0.61057 0.0
C1293 C 0.65998 0.3892 0.59824 0.0
H1294 H 0.63435 0.43434 0.64393 0.0
C1295 C 0.6731 0.36478 0.61129 0.0
H1296 H 0.63893 0.43501 0.60099 0.0
C1297 C 0.67204 0.36523 0.63592 0.0
C1298 C 0.65612 0.3892 0.64815 0.0
H1299 H 0.68079 0.34368 0.60251 0.0
H1300 H 0.67928 0.34433 0.64519 0.0
C1301 C 0.64714 0.41575 0.63534 0.0
C1302 C 0.38918 0.9039 0.36888 0.0
C1303 C 0.36193 0.89403 0.35738 0.0
H1304 H 0.41548 0.90462 0.40074 0.0
C1305 C 0.33704 0.883 0.37158 0.0
H1306 H 0.40914 0.91175 0.35872 0.0
C1307 C 0.34107 0.87754 0.39595 0.0
C1308 C 0.37 0.88365 0.40668 0.0
H1309 H 0.3157 0.87496 0.3633 0.0
H1310 H 0.32264 0.8661 0.40576 0.0
C1311 C 0.3931 0.89883 0.39305 0.0
C1312 C 0.02231 0.57713 0.03672 0.0
C1313 C 0.04253 0.58361 0.0179 0.0
H1314 H 0.97441 0.57187 0.04788 0.0
C1315 C 0.02816 0.58706 0.99543 0.0
H1316 H 0.03179 0.5714 0.05382 0.0
C1317 C 0.99536 0.59239 0.99334 0.0
C1318 C 0.97582 0.5911 0.01327 0.0
H1319 H 0.04262 0.59054 0.98004 0.0
H1320 H 0.98577 0.59927 0.97652 0.0
C1321 C 0.98952 0.57917 0.03386 0.0
C1322 C 0.62536 0.74095 0.2513 0.0
C1323 C 0.64403 0.72465 0.26767 0.0
H1324 H 0.60934 0.78601 0.23897 0.0
C1325 C 0.66707 0.74181 0.27957 0.0
H1326 H 0.60944 0.72822 0.24005 0.0
C1327 C 0.66835 0.77455 0.27795 0.0
C1328 C 0.64641 0.7913 0.26456 0.0
H1329 H 0.68448 0.72986 0.28996 0.0
H1330 H 0.68626 0.7869 0.28768 0.0
C1331 C 0.62581 0.77402 0.25025 0.0
C1332 C 0.48896 0.40882 0.49872 0.0
C1333 C 0.47285 0.40417 0.52017 0.0
H1334 H 0.53366 0.41675 0.48182 0.0
C1335 C 0.48886 0.41367 0.54052 0.0
H1336 H 0.47717 0.40434 0.48223 0.0
C1337 C 0.52149 0.41885 0.54061 0.0
C1338 C 0.5391 0.41668 0.51978 0.0
H1339 H 0.4759 0.41662 0.55649 0.0
H1340 H 0.53315 0.42279 0.55721 0.0
C1341 C 0.52154 0.4165 0.49852 0.0
C1342 C 0.82956 0.27934 0.78385 0.0
C1343 C 0.84435 0.29825 0.76696 0.0
H1344 H 0.82401 0.23322 0.79842 0.0
C1345 C 0.85582 0.28246 0.74679 0.0
H1346 H 0.81593 0.28992 0.79769 0.0
C1347 C 0.85928 0.24937 0.74653 0.0
C1348 C 0.85071 0.23119 0.76618 0.0
H1349 H 0.86571 0.29581 0.73244 0.0
H1350 H 0.87107 0.23847 0.73183 0.0
C1351 C 0.83367 0.24655 0.78398 0.0
C1352 C 0.99065 0.40328 0.00362 0.0
C1353 C 0.97258 0.4022 0.98285 0.0
H1354 H 0.03674 0.40856 0.01879 0.0
C1355 C 0.98693 0.41446 0.96263 0.0
H1356 H 0.98028 0.3965 0.0202 0.0
C1357 C 0.01963 0.41899 0.96118 0.0
C1358 C 0.03892 0.41406 0.98085 0.0
H1359 H 0.9725 0.42035 0.94788 0.0
H1360 H 0.02989 0.42511 0.94443 0.0
C1361 C 0.02321 0.41069 0.00278 0.0
C1362 C 0.88464 0.77108 0.25154 0.0
C1363 C 0.86194 0.7876 0.23858 0.0
H1364 H 0.90427 0.726 0.26016 0.0
C1365 C 0.84026 0.76978 0.22564 0.0
H1366 H 0.90115 0.78366 0.26244 0.0
C1367 C 0.84396 0.73729 0.22268 0.0
C1368 C 0.86891 0.72118 0.2332 0.0
H1369 H 0.82096 0.78127 0.21687 0.0
H1370 H 0.82702 0.72473 0.2122 0.0
C1371 C 0.8872 0.73811 0.24954 0.0
C1372 C 0.48969 0.5757 0.46413 0.0
C1373 C 0.46886 0.58381 0.48218 0.0
H1374 H 0.53806 0.56981 0.45411 0.0
C1375 C 0.4826 0.59021 0.50452 0.0
H1376 H 0.48073 0.56791 0.44734 0.0
C1377 C 0.51525 0.59632 0.50678 0.0
C1378 C 0.53541 0.59273 0.4874 0.0
H1379 H 0.46768 0.59499 0.51946 0.0
H1380 H 0.52421 0.60553 0.52316 0.0
C1381 C 0.52241 0.57823 0.46747 0.0
C1382 C 0.65856 0.2367 0.73547 0.0
C1383 C 0.6345 0.21742 0.7441 0.0
H1384 H 0.67315 0.28284 0.72538 0.0
C1385 C 0.6067 0.23206 0.75159 0.0
H1386 H 0.6805 0.22645 0.7299 0.0
C1387 C 0.60262 0.2648 0.74916 0.0
C1388 C 0.62554 0.28347 0.7381 0.0
H1389 H 0.58765 0.2181 0.75844 0.0
H1390 H 0.58118 0.2753 0.75536 0.0
C1391 C 0.65414 0.26906 0.73248 0.0
C1392 C 0.34928 0.27423 0.74367 0.0
C1393 C 0.37699 0.29154 0.74605 0.0
H1394 H 0.32861 0.22966 0.73545 0.0
C1395 C 0.4053 0.27508 0.74803 0.0
H1396 H 0.32693 0.28611 0.74359 0.0
C1397 C 0.40576 0.24221 0.74601 0.0
C1398 C 0.37879 0.2258 0.73901 0.0
H1399 H 0.42704 0.28758 0.75072 0.0
H1400 H 0.42746 0.22983 0.74884 0.0
C1401 C 0.35022 0.24194 0.73914 0.0
C1402 C 0.14614 0.73865 0.25862 0.0
C1403 C 0.15423 0.72 0.23902 0.0
H1404 H 0.14265 0.7854 0.27298 0.0
C1405 C 0.17266 0.73477 0.22189 0.0
H1406 H 0.13416 0.72818 0.27341 0.0
C1407 C 0.1753 0.76763 0.22047 0.0
C1408 C 0.16192 0.78703 0.23768 0.0
H1409 H 0.18525 0.72047 0.20967 0.0
H1410 H 0.18714 0.77786 0.20554 0.0
C1411 C 0.15142 0.77167 0.25844 0.0
C1412 C 0.17237 0.23225 0.78702 0.0
C1413 C 0.16678 0.21281 0.76759 0.0
H1414 H 0.17473 0.27946 0.79982 0.0
C1415 C 0.16331 0.22805 0.7455 0.0
H1416 H 0.17854 0.22219 0.80382 0.0
C1417 C 0.15652 0.26063 0.74435 0.0
C1418 C 0.15624 0.279 0.76494 0.0
H1419 H 0.16071 0.21424 0.72968 0.0
H1420 H 0.14964 0.27083 0.72774 0.0
C1421 C 0.16848 0.26488 0.78524 0.0
C1422 C 0.33841 0.72956 0.27788 0.0
C1423 C 0.35756 0.71573 0.26076 0.0
H1424 H 0.32296 0.77177 0.29499 0.0
C1425 C 0.3658 0.73527 0.24168 0.0
H1426 H 0.32566 0.71457 0.28954 0.0
C1427 C 0.35984 0.76819 0.24242 0.0
C1428 C 0.3486 0.78264 0.26333 0.0
H1429 H 0.37835 0.72559 0.22686 0.0
H1430 H 0.36861 0.78261 0.22824 0.0
C1431 C 0.33527 0.76233 0.27999 0.0
C1432 C 0.49226 0.07658 0.5341 0.0
C1433 C 0.47252 0.08238 0.51478 0.0
H1434 H 0.53973 0.0738 0.54678 0.0
C1435 C 0.48824 0.0869 0.49289 0.0
H1436 H 0.4823 0.06934 0.5507 0.0
C1437 C 0.52086 0.09485 0.49213 0.0
C1438 C 0.53934 0.09484 0.51278 0.0
H1439 H 0.47459 0.08953 0.47699 0.0
H1440 H 0.53096 0.10271 0.47572 0.0
C1441 C 0.52507 0.08106 0.5325 0.0
C1442 C 0.96802 0.90917 0.9938 0.0
C1443 C 0.9525 0.91163 0.01586 0.0
H1444 H 0.01122 0.89686 0.97599 0.0
C1445 C 0.9718 0.91697 0.03545 0.0
H1446 H 0.95436 0.90682 0.97787 0.0
C1447 C 0.00458 0.91354 0.0338 0.0
C1448 C 0.01911 0.90224 0.01335 0.0
H1449 H 0.96153 0.9225 0.0523 0.0
H1450 H 0.01891 0.91948 0.0486 0.0
C1451 C 1.0008 0.90298 0.99269 0.0
C1452 C 0.49009 0.89296 0.51214 0.0
C1453 C 0.46763 0.90192 0.49542 0.0
H1454 H 0.53899 0.89087 0.5212 0.0
C1455 C 0.47842 0.9209 0.47686 0.0
H1456 H 0.48309 0.87955 0.52738 0.0
C1457 C 0.51069 0.92374 0.47141 0.0
C1458 C 0.53346 0.91106 0.48634 0.0
H1459 H 0.46137 0.93195 0.46566 0.0
H1460 H 0.51772 0.9356 0.45546 0.0
C1461 C 0.5224 0.89913 0.50824 0.0
C1462 C 0.00481 0.0933 0.00416 0.0
C1463 C 0.02334 0.0944 0.9837 0.0
H1464 H 0.95846 0.0876 0.01851 0.0
C1465 C 0.00978 0.0824 0.9631 0.0
H1466 H 0.01466 0.10018 0.0209 0.0
C1467 C 0.9773 0.07747 0.9611 0.0
C1468 C 0.95762 0.08171 0.98057 0.0
H1469 H 0.02463 0.07725 0.94843 0.0
H1470 H 0.9675 0.07171 0.94412 0.0
C1471 C 0.97249 0.08561 0.00275 0.0
C1472 C 0.176 0.4737 0.01482 0.0
C1473 C 0.17245 0.46953 0.99053 0.0
H1474 H 0.17551 0.50661 0.04318 0.0
C1475 C 0.17406 0.49569 0.97565 0.0
H1476 H 0.17455 0.45393 0.02666 0.0
C1477 C 0.17553 0.52583 0.98508 0.0
C1478 C 0.17444 0.53008 0.00949 0.0
H1479 H 0.17129 0.49299 0.95683 0.0
H1480 H 0.17357 0.54564 0.97333 0.0
C1481 C 0.17653 0.50385 0.02427 0.0
C1482 C 0.77615 0.92289 0.26565 0.0
C1483 C 0.78397 0.91779 0.24208 0.0
H1484 H 0.73907 0.92416 0.29099 0.0
C1485 C 0.75999 0.91791 0.22509 0.0
H1486 H 0.79408 0.92232 0.2791 0.0
C1487 C 0.7285 0.91962 0.2318 0.0
C1488 C 0.72057 0.92058 0.25566 0.0
H1489 H 0.76548 0.91366 0.20678 0.0
H1490 H 0.71053 0.91627 0.21861 0.0
C1491 C 0.74462 0.92396 0.27241 0.0
C1492 C 0.34202 0.46165 0.48854 0.0
C1493 C 0.34559 0.45832 0.51294 0.0
H1494 H 0.34179 0.49341 0.45934 0.0
C1495 C 0.34509 0.48521 0.52711 0.0
H1496 H 0.34291 0.44136 0.47719 0.0
C1497 C 0.34335 0.51499 0.51693 0.0
C1498 C 0.34327 0.51837 0.49239 0.0
H1499 H 0.34819 0.48328 0.54594 0.0
H1500 H 0.34534 0.53532 0.52817 0.0
C1501 C 0.34145 0.49144 0.47832 0.0
C1502 C 0.76198 0.10288 0.78091 0.0
C1503 C 0.78657 0.10197 0.76448 0.0
H1504 H 0.71229 0.10306 0.78636 0.0
C1505 C 0.77963 0.09487 0.74099 0.0
H1506 H 0.7667 0.10861 0.79912 0.0
C1507 C 0.74839 0.09236 0.73364 0.0
C1508 C 0.7237 0.09583 0.74978 0.0
H1509 H 0.79803 0.09456 0.72791 0.0
H1510 H 0.74345 0.09032 0.71502 0.0
C1511 C 0.73083 0.09945 0.77367 0.0
C1512 C 0.84915 0.52059 0.97989 0.0
C1513 C 0.85053 0.52746 0.00399 0.0
H1514 H 0.8511 0.48478 0.9535 0.0
C1515 C 0.84877 0.50263 0.02017 0.0
H1516 H 0.85115 0.53915 0.96704 0.0
C1517 C 0.84769 0.4715 0.01242 0.0
C1518 C 0.84948 0.46456 0.98834 0.0
H1519 H 0.85028 0.50723 0.03885 0.0
H1520 H 0.8486 0.45289 0.0253 0.0
C1521 C 0.84919 0.48944 0.97215 0.0
C1522 C 0.23912 0.09262 0.73743 0.0
C1523 C 0.23222 0.09136 0.76151 0.0
H1524 H 0.27426 0.10124 0.71126 0.0
C1525 C 0.25727 0.09188 0.77766 0.0
H1526 H 0.2204 0.09307 0.7246 0.0
C1527 C 0.28827 0.09593 0.76999 0.0
C1528 C 0.29469 0.1004 0.74607 0.0
H1529 H 0.25261 0.09155 0.79637 0.0
H1530 H 0.30671 0.09847 0.78291 0.0
C1531 C 0.26998 0.09758 0.72982 0.0
C1532 C 0.67247 0.48788 0.48786 0.0
C1533 C 0.66694 0.48084 0.51157 0.0
H1534 H 0.67297 0.52378 0.46158 0.0
C1535 C 0.66553 0.50544 0.52793 0.0
H1536 H 0.67332 0.46942 0.47486 0.0
C1537 C 0.66633 0.53659 0.52041 0.0
C1538 C 0.66771 0.54352 0.49636 0.0
H1539 H 0.66117 0.50059 0.54633 0.0
H1540 H 0.66206 0.55496 0.53311 0.0
C1541 C 0.67238 0.51902 0.48028 0.0
C1542 C 0.22739 0.91536 0.26745 0.0
C1543 C 0.22251 0.91599 0.24308 0.0
H1544 H 0.26084 0.90966 0.29527 0.0
C1545 C 0.24877 0.91835 0.22821 0.0
H1546 H 0.20773 0.91277 0.27931 0.0
C1547 C 0.27927 0.91731 0.23738 0.0
C1548 C 0.28405 0.91295 0.26155 0.0
H1549 H 0.24571 0.91828 0.20931 0.0
H1550 H 0.29887 0.91645 0.22534 0.0
C1551 C 0.25786 0.91339 0.27657 0.0
C1552 C 0.66446 0.01235 0.52618 0.0
C1553 C 0.66628 0.03816 0.51094 0.0
H1554 H 0.65982 0.96258 0.52921 0.0
C1555 C 0.67052 0.03285 0.48682 0.0
H1556 H 0.66076 0.01586 0.54483 0.0
C1557 C 0.66901 0.00242 0.47784 0.0
C1558 C 0.66433 0.9768 0.49291 0.0
H1559 H 0.67139 0.05229 0.47465 0.0
H1560 H 0.66893 0.99913 0.45896 0.0
C1561 C 0.66399 0.98184 0.51726 0.0
C1562 C 0.22864 0.41104 0.74011 0.0
C1563 C 0.2204 0.40472 0.76348 0.0
H1564 H 0.2662 0.41401 0.71519 0.0
C1565 C 0.24401 0.40326 0.78066 0.0
H1566 H 0.21091 0.41172 0.72652 0.0
C1567 C 0.27553 0.40548 0.77428 0.0
C1568 C 0.28382 0.40844 0.75058 0.0
H1569 H 0.23817 0.39808 0.79877 0.0
H1570 H 0.29334 0.40171 0.78753 0.0
C1571 C 0.26022 0.41234 0.73365 0.0
C1572 C 0.81825 0.97163 0.98374 0.0
C1573 C 0.82055 0.96654 0.00801 0.0
H1574 H 0.82159 0.00537 0.95606 0.0
C1575 C 0.81936 0.99227 0.02334 0.0
H1576 H 0.81946 0.9522 0.97158 0.0
C1577 C 0.81986 0.02273 0.01447 0.0
C1578 C 0.82242 0.02767 0.9902 0.0
H1579 H 0.82125 0.98884 0.04215 0.0
H1580 H 0.82225 0.04204 0.02664 0.0
C1581 C 0.8196 0.00206 0.97488 0.0
C1582 C 0.26509 0.58724 0.27181 0.0
C1583 C 0.28874 0.59 0.25474 0.0
H1584 H 0.21581 0.58897 0.27899 0.0
C1585 C 0.28038 0.59094 0.23096 0.0
H1586 H 0.27107 0.58706 0.29032 0.0
C1587 C 0.24882 0.59294 0.22456 0.0
C1588 C 0.22526 0.59317 0.24182 0.0
H1589 H 0.29814 0.5938 0.21755 0.0
H1590 H 0.24296 0.59692 0.20628 0.0
C1591 C 0.23349 0.58836 0.26537 0.0
C1592 C 0.33724 0.01153 0.48687 0.0
C1593 C 0.34055 0.01917 0.5107 0.0
H1594 H 0.33784 0.97468 0.46136 0.0
C1595 C 0.33887 0.9952 0.52757 0.0
H1596 H 0.33893 0.02951 0.47354 0.0
C1597 C 0.33725 0.96386 0.52063 0.0
C1598 C 0.33822 0.95608 0.49672 0.0
H1599 H 0.34162 1.00055 0.54606 0.0
H1600 H 0.3392 0.94581 0.5339 0.0
C1601 C 0.33656 0.98014 0.47992 0.0
C1602 C 0.73116 0.60255 0.23507 0.0
C1603 C 0.72623 0.60482 0.25939 0.0
H1604 H 0.76491 0.60327 0.20711 0.0
C1605 C 0.75227 0.60402 0.2745 0.0
H1606 H 0.71157 0.60374 0.22303 0.0
C1607 C 0.78276 0.60262 0.26542 0.0
C1608 C 0.78775 0.60316 0.24106 0.0
H1609 H 0.74909 0.60617 0.29331 0.0
H1610 H 0.8024 0.60396 0.27742 0.0
C1611 C 0.76167 0.60232 0.22598 0.0
C1612 C 0.14346 0.99242 0.02318 0.0
C1613 C 0.14291 0.96769 0.00688 0.0
H1614 H 0.14314 0.04213 0.02848 0.0
C1615 C 0.14579 0.97473 0.98288 0.0
H1616 H 0.14082 0.98768 0.04177 0.0
C1617 C 0.14612 0.00594 0.97525 0.0
C1618 C 0.14476 0.0307 0.99149 0.0
H1619 H 0.14478 0.95625 0.96991 0.0
H1620 H 0.14542 0.01073 0.95657 0.0
C1621 C 0.14494 0.02361 0.01558 0.0
C1622 C 0.76821 0.40728 0.73367 0.0
C1623 C 0.7744 0.41367 0.7574 0.0
H1624 H 0.73357 0.39445 0.70809 0.0
C1625 C 0.74904 0.41678 0.773 0.0
H1626 H 0.7873 0.40383 0.72144 0.0
C1627 C 0.71819 0.41209 0.76527 0.0
C1628 C 0.71232 0.40299 0.742 0.0
H1629 H 0.75325 0.42085 0.79152 0.0
H1630 H 0.69927 0.41309 0.77789 0.0
C1631 C 0.7375 0.4015 0.72613 0.0
C1632 C 0.13479 0.76365 0.0408 0.0
C1633 C 0.12241 0.78031 0.02135 0.0
H1634 H 0.14524 0.71964 0.0575 0.0
C1635 C 0.1137 0.76102 0.00196 0.0
H1636 H 0.14114 0.77641 0.05654 0.0
C1637 C 0.11568 0.72728 0.00276 0.0
C1638 C 0.12706 0.71091 0.02281 0.0
H1639 H 0.10331 0.7717 0.98661 0.0
H1640 H 0.10632 0.71401 0.98818 0.0
C1641 C 0.13716 0.73043 0.04143 0.0
C1642 C 0.51978 0.87764 0.30829 0.0
C1643 C 0.53902 0.88011 0.28817 0.0
H1644 H 0.47412 0.87155 0.32407 0.0
C1645 C 0.52138 0.87952 0.2667 0.0
H1646 H 0.53125 0.87677 0.32497 0.0
C1647 C 0.48744 0.8755 0.26592 0.0
C1648 C 0.46866 0.87186 0.28658 0.0
H1649 H 0.53395 0.88057 0.25022 0.0
H1650 H 0.47618 0.8739 0.24894 0.0
C1651 C 0.48636 0.874 0.30762 0.0
C1652 C 0.38375 0.22436 0.50509 0.0
C1653 C 0.37663 0.20472 0.52463 0.0
H1654 H 0.39018 0.27136 0.49122 0.0
C1655 C 0.36854 0.22135 0.54538 0.0
H1656 H 0.39134 0.21366 0.48885 0.0
C1657 C 0.36929 0.25466 0.54712 0.0
C1658 C 0.37752 0.27453 0.52811 0.0
H1659 H 0.36379 0.20826 0.56129 0.0
H1660 H 0.36474 0.26493 0.56417 0.0
C1661 C 0.38358 0.25821 0.50665 0.0
C1662 C 0.99133 0.14978 0.75732 0.0
C1663 C 0.97258 0.13631 0.77542 0.0
H1664 H 0.03761 0.15835 0.7427 0.0
C1665 C 0.98958 0.11686 0.7911 0.0
H1666 H 0.98051 0.16569 0.74501 0.0
C1667 C 0.02281 0.11211 0.78945 0.0
C1668 C 0.04191 0.12631 0.77192 0.0
H1669 H 0.97731 0.10627 0.80565 0.0
H1670 H 0.03407 0.09889 0.8033 0.0
C1671 C 0.02477 0.14509 0.75571 0.0
C1672 C 0.11193 0.23764 0.99672 0.0
C1673 C 0.12289 0.21888 0.9777 0.0
H1674 H 0.10234 0.28413 0.0106 0.0
C1675 C 0.13689 0.2362 0.95921 0.0
H1676 H 0.10015 0.22647 0.01128 0.0
C1677 C 0.13878 0.26955 0.95908 0.0
C1678 C 0.12652 0.28851 0.97735 0.0
H1679 H 0.14495 0.22383 0.9438 0.0
H1680 H 0.14802 0.28076 0.94349 0.0
C1681 C 0.11345 0.2714 0.99646 0.0
C1682 C 0.98462 0.87321 0.23547 0.0
C1683 C 0.9674 0.87873 0.21417 0.0
H1684 H 0.02933 0.86441 0.2531 0.0
C1685 C 0.98767 0.88334 0.19462 0.0
H1686 H 0.97159 0.86937 0.25152 0.0
C1687 C 0.02125 0.88009 0.19542 0.0
C1688 C 0.03832 0.87273 0.21616 0.0
H1689 H 0.97764 0.88966 0.17815 0.0
H1690 H 0.03409 0.88298 0.17916 0.0
C1691 C 0.01863 0.87018 0.23642 0.0
C1692 C 0.39107 0.71802 0.49775 0.0
C1693 C 0.37716 0.70286 0.47811 0.0
H1694 H 0.40525 0.76153 0.51442 0.0
C1695 C 0.36421 0.72341 0.46111 0.0
H1696 H 0.40309 0.70401 0.51076 0.0
C1697 C 0.36537 0.75664 0.46325 0.0
C1698 C 0.37961 0.77199 0.48257 0.0
H1699 H 0.3546 0.71367 0.44509 0.0
H1700 H 0.35665 0.77055 0.44877 0.0
C1701 C 0.39236 0.75158 0.49986 0.0
C1702 C 0.4913 0.12949 0.73388 0.0
C1703 C 0.4755 0.13246 0.71201 0.0
H1704 H 0.53587 0.12517 0.75208 0.0
C1705 C 0.49393 0.12664 0.69223 0.0
H1706 H 0.4785 0.13346 0.75001 0.0
C1707 C 0.52631 0.1195 0.69329 0.0
C1708 C 0.54313 0.12059 0.71449 0.0
H1709 H 0.48331 0.13091 0.67575 0.0
H1710 H 0.53905 0.11579 0.67715 0.0
C1711 C 0.52451 0.12405 0.73511 0.0
C1712 C 0.86047 0.25922 0.95623 0.0
C1713 C 0.87307 0.27663 0.97526 0.0
H1714 H 0.85062 0.21466 0.94013 0.0
C1715 C 0.88287 0.25791 0.99469 0.0
H1716 H 0.85336 0.27153 0.94048 0.0
C1717 C 0.88175 0.22411 0.99433 0.0
C1718 C 0.87037 0.20695 0.97464 0.0
H1719 H 0.89341 0.26915 0.00974 0.0
H1720 H 0.89185 0.21143 0.00893 0.0
C1721 C 0.85891 0.22587 0.95602 0.0
C1722 C 0.62975 0.77496 0.45157 0.0
C1723 C 0.6235 0.79486 0.47098 0.0
H1724 H 0.63323 0.72869 0.43696 0.0
C1725 C 0.61779 0.7785 0.49247 0.0
H1726 H 0.63391 0.78525 0.43447 0.0
C1727 C 0.61751 0.74458 0.49397 0.0
C1728 C 0.62301 0.72495 0.47408 0.0
H1729 H 0.61194 0.79184 0.508 0.0
H1730 H 0.6113 0.73383 0.51053 0.0
C1731 C 0.62942 0.74166 0.45304 0.0
C1732 C 0.88367 0.73377 0.00065 0.0
C1733 C 0.874 0.71436 0.01973 0.0
H1734 H 0.8909 0.78077 0.98682 0.0
C1735 C 0.86 0.73102 0.03859 0.0
H1736 H 0.89561 0.72321 0.98592 0.0
C1737 C 0.85662 0.76431 0.03885 0.0
C1738 C 0.86733 0.78399 0.0204 0.0
H1739 H 0.85303 0.71825 0.05416 0.0
H1740 H 0.84747 0.77499 0.05466 0.0
C1741 C 0.88068 0.76749 0.00107 0.0
C1742 C 0.62449 0.27468 0.49864 0.0
C1743 C 0.63479 0.29359 0.51774 0.0
H1744 H 0.61522 0.22828 0.4847 0.0
C1745 C 0.64579 0.27634 0.53741 0.0
H1746 H 0.61419 0.28594 0.48348 0.0
C1747 C 0.64517 0.24298 0.53855 0.0
C1748 C 0.63411 0.22388 0.51993 0.0
H1749 H 0.65259 0.28891 0.55312 0.0
H1750 H 0.65178 0.23204 0.55498 0.0
C1751 C 0.62468 0.24089 0.49954 0.0
C1752 C 0.98351 0.3748 0.75012 0.0
C1753 C 0.96562 0.38875 0.76838 0.0
H1754 H 0.02877 0.36054 0.73673 0.0
C1755 C 0.98367 0.40049 0.78736 0.0
H1756 H 0.97135 0.36385 0.7356 0.0
C1757 C 0.01686 0.3967 0.78879 0.0
C1758 C 0.03473 0.38187 0.771 0.0
H1759 H 0.97167 0.40999 0.80251 0.0
H1760 H 0.02847 0.40407 0.80475 0.0
C1761 C 0.01707 0.37225 0.75106 0.0
C1762 C 0.49285 0.62545 0.25983 0.0
C1763 C 0.47338 0.61519 0.27863 0.0
H1764 H 0.5395 0.6385 0.24807 0.0
C1765 C 0.48995 0.60302 0.298 0.0
H1766 H 0.48222 0.63357 0.24368 0.0
C1767 C 0.52289 0.60629 0.30087 0.0
C1768 C 0.54199 0.62009 0.28348 0.0
H1769 H 0.47694 0.59061 0.31103 0.0
H1770 H 0.53344 0.59818 0.31706 0.0
C1771 C 0.52626 0.6282 0.26231 0.0
C1772 C 0.48031 0.39372 0.73511 0.0
C1773 C 0.46203 0.39808 0.71454 0.0
H1774 H 0.52597 0.3842 0.74991 0.0
C1775 C 0.47867 0.40261 0.69338 0.0
H1776 H 0.46879 0.38961 0.75177 0.0
C1777 C 0.51159 0.39925 0.69239 0.0
C1778 C 0.5296 0.39155 0.71243 0.0
H1779 H 0.46598 0.40582 0.67708 0.0
H1780 H 0.52275 0.40102 0.67545 0.0
C1781 C 0.51343 0.39036 0.73405 0.0
C1782 C 0.98822 0.62662 0.23719 0.0
C1783 C 0.9727 0.61762 0.21616 0.0
H1784 H 0.03213 0.63429 0.25545 0.0
C1785 C 0.99217 0.60449 0.1987 0.0
H1786 H 0.97469 0.63656 0.25142 0.0
C1787 C 0.02525 0.60272 0.20136 0.0
C1788 C 0.04133 0.61594 0.22058 0.0
H1789 H 0.98182 0.59594 0.18256 0.0
H1790 H 0.03877 0.59092 0.1882 0.0
C1791 C 0.02168 0.62543 0.23946 0.0
loop_
_geom_bond_atom_site_label_1
_geom_bond_atom_site_label_2
_geom_bond_distance
_geom_bond_site_symmetry_2
_ccdc_geom_bond_type
Mn0 O5 2.095 . S
Mn0 O15 2.171 . S
Mn0 O16 2.297 . S
Mn0 O24 2.385 1_554 S
Mn0 O25 2.209 . S
Mn0 O26 2.094 . S
Mn1 O6 2.121 . S
Mn1 N8 2.257 . S
Mn1 N17 2.282 . S
Mn1 O25 2.215 . S
Mn1 O27 2.117 . S
C2 O24 1.234 1_554 S
C2 O25 1.283 . S
C3 O15 1.287 . S
C3 O16 1.236 . S
C4 O26 1.240 . S
C4 O27 1.264 . S
O5 Mn0 2.095 . S
O5 C14 1.250 . S
O6 Mn1 2.121 . S
O6 C14 1.258 . S
C7 N8 1.326 . S
C7 C11 1.460 . S
C7 H13 0.929 . S
N8 Mn1 2.257 . S
N8 C7 1.326 . S
N8 C12 1.362 . S
C9 C10 1.258 . S
C9 C12 1.431 1_655 S
C9 C29 1.449 . S
C10 C9 1.258 . S
C10 C11 1.477 1_655 S
C10 H30 0.931 . S
C11 C7 1.460 . S
C11 C10 1.477 1_455 S
C11 H31 0.930 . S
C12 N8 1.362 . S
C12 C9 1.431 1_455 S
C12 C22 1.476 . S
H13 C7 0.929 . S
C14 O5 1.250 . S
C14 O6 1.258 . S
O15 Mn0 2.171 . S
O15 C3 1.287 . S
O16 Mn0 2.297 . S
O16 C3 1.236 . S
N17 Mn1 2.282 . S
N17 C18 1.328 . S
N17 C22 1.318 . S
C18 N17 1.328 . S
C18 C19 1.457 . S
C18 H23 0.929 . S
C19 C18 1.457 . S
C19 C20 1.291 1_455 S
C19 H32 0.931 1_554 S
C20 C19 1.291 1_655 S
C20 C21 1.373 . S
C20 H33 0.929 . S
C21 C20 1.373 . S
C21 C22 1.396 1_655 S
C21 C28 1.403 . S
C22 C12 1.476 . S
C22 N17 1.318 . S
C22 C21 1.396 1_455 S
H23 C18 0.929 . S
O24 Mn0 2.385 1_556 S
O24 C2 1.234 1_556 S
O25 Mn0 2.209 . S
O25 Mn1 2.215 . S
O25 C2 1.283 . S
O26 Mn0 2.094 . S
O26 C4 1.240 . S
O27 Mn1 2.117 . S
O27 C4 1.264 . S
C28 C21 1.403 . S
C28 C29 1.399 . S
C28 H34 0.929 . S
C29 C9 1.449 . S
C29 C28 1.399 . S
C29 H35 0.930 . S
H30 C10 0.931 . S
H31 C11 0.930 . S
H32 C19 0.931 1_556 S
H33 C20 0.929 . S
H34 C28 0.929 . S
H35 C29 0.930 . S
Mn36 O41 2.095 . S
Mn36 O51 2.162 . S
Mn36 O52 2.297 . S
Mn36 O60 2.385 . S
Mn36 O61 2.209 . S
Mn36 O62 2.094 . S
Mn37 O42 2.121 . S
Mn37 N44 2.257 . S
Mn37 N53 2.282 . S
Mn37 O61 2.215 . S
Mn37 O63 2.117 . S
C38 O60 1.234 . S
C38 O61 1.283 . S
C39 O51 1.281 . S
C39 O52 1.236 . S
C40 O62 1.240 . S
C40 O63 1.264 . S
O41 Mn36 2.095 . S
O41 C50 1.250 . S
O42 Mn37 2.121 . S
O42 C50 1.258 . S
C43 N44 1.326 . S
C43 C47 1.460 . S
C43 H49 0.929 . S
N44 Mn37 2.257 . S
N44 C43 1.326 . S
N44 C48 1.362 . S
C45 C46 1.258 . S
C45 C48 1.431 . S
C45 C65 1.449 . S
C46 C45 1.258 . S
C46 C47 1.477 . S
C46 H66 0.931 . S
C47 C43 1.460 . S
C47 C46 1.477 . S
C47 H67 0.930 . S
C48 N44 1.362 . S
C48 C45 1.431 . S
C48 C58 1.476 . S
H49 C43 0.929 . S
C50 O41 1.250 . S
C50 O42 1.258 . S
O51 Mn36 2.162 . S
O51 C39 1.281 . S
O52 Mn36 2.297 . S
O52 C39 1.236 . S
N53 Mn37 2.282 . S
N53 C54 1.328 . S
N53 C58 1.318 . S
C54 N53 1.328 . S
C54 C55 1.457 . S
C54 H59 0.929 . S
C55 C54 1.457 . S
C55 C56 1.291 . S
C55 H68 0.931 . S
C56 C55 1.291 . S
C56 C57 1.373 . S
C56 H69 0.929 . S
C57 C56 1.373 . S
C57 C58 1.396 . S
C57 C64 1.403 . S
C58 C48 1.476 . S
C58 N53 1.318 . S
C58 C57 1.396 . S
H59 C54 0.929 . S
O60 Mn36 2.385 . S
O60 C38 1.234 . S
O61 Mn36 2.209 . S
O61 Mn37 2.215 . S
O61 C38 1.283 . S
O62 Mn36 2.094 . S
O62 C40 1.240 . S
O63 Mn37 2.117 . S
O63 C40 1.264 . S
C64 C57 1.403 . S
C64 C65 1.399 . S
C64 H70 0.929 . S
C65 C45 1.449 . S
C65 C64 1.399 . S
C65 H71 0.930 . S
H66 C46 0.931 . S
H67 C47 0.930 . S
H68 C55 0.931 . S
H69 C56 0.929 . S
H70 C64 0.929 . S
H71 C65 0.930 . S
Mn72 O77 2.095 . S
Mn72 O87 2.162 . S
Mn72 O88 2.297 . S
Mn72 O96 2.385 . S
Mn72 O97 2.209 . S
Mn72 O98 2.094 . S
Mn73 O78 2.121 . S
Mn73 N80 2.257 . S
Mn73 N89 2.282 . S
Mn73 O97 2.215 . S
Mn73 O99 2.117 . S
C74 O96 1.234 . S
C74 O97 1.283 . S
C75 O87 1.281 . S
C75 O88 1.236 . S
C76 O98 1.240 . S
C76 O99 1.264 . S
O77 Mn72 2.095 . S
O77 C86 1.250 . S
O78 Mn73 2.121 . S
O78 C86 1.258 . S
C79 N80 1.326 . S
C79 C83 1.460 . S
C79 H85 0.929 . S
N80 Mn73 2.257 . S
N80 C79 1.326 . S
N80 C84 1.362 . S
C81 C82 1.258 . S
C81 C84 1.431 . S
C81 C101 1.449 . S
C82 C81 1.258 . S
C82 C83 1.477 . S
C82 H102 0.931 . S
C83 C79 1.460 . S
C83 C82 1.477 . S
C83 H103 0.930 . S
C84 N80 1.362 . S
C84 C81 1.431 . S
C84 C94 1.476 . S
H85 C79 0.929 . S
C86 O77 1.250 . S
C86 O78 1.258 . S
O87 Mn72 2.162 . S
O87 C75 1.281 . S
O88 Mn72 2.297 . S
O88 C75 1.236 . S
N89 Mn73 2.282 . S
N89 C90 1.328 . S
N89 C94 1.318 . S
C90 N89 1.328 . S
C90 C91 1.457 . S
C90 H95 0.929 . S
C91 C90 1.457 . S
C91 C92 1.291 . S
C91 H104 0.931 . S
C92 C91 1.291 . S
C92 C93 1.373 . S
C92 H105 0.929 . S
C93 C92 1.373 . S
C93 C94 1.396 . S
C93 C100 1.403 . S
C94 C84 1.476 . S
C94 N89 1.318 . S
C94 C93 1.396 . S
H95 C90 0.929 . S
O96 Mn72 2.385 . S
O96 C74 1.234 . S
O97 Mn72 2.209 . S
O97 Mn73 2.215 . S
O97 C74 1.283 . S
O98 Mn72 2.094 . S
O98 C76 1.240 . S
O99 Mn73 2.117 . S
O99 C76 1.264 . S
C100 C93 1.403 . S
C100 C101 1.399 . S
C100 H106 0.929 . S
C101 C81 1.449 . S
C101 C100 1.399 . S
C101 H107 0.930 . S
H102 C82 0.931 . S
H103 C83 0.930 . S
H104 C91 0.931 . S
H105 C92 0.929 . S
H106 C100 0.929 . S
H107 C101 0.930 . S
Mn108 O113 2.095 . S
Mn108 O123 2.162 . S
Mn108 O124 2.297 . S
Mn108 O132 2.385 . S
Mn108 O133 2.209 . S
Mn108 O134 2.094 . S
Mn109 O114 2.121 . S
Mn109 N116 2.257 . S
Mn109 N125 2.282 . S
Mn109 O133 2.215 . S
Mn109 O135 2.117 . S
C110 O132 1.234 . S
C110 O133 1.283 . S
C111 O123 1.281 . S
C111 O124 1.236 . S
C112 O134 1.240 . S
C112 O135 1.264 . S
O113 Mn108 2.095 . S
O113 C122 1.250 . S
O114 Mn109 2.121 . S
O114 C122 1.258 . S
C115 N116 1.326 . S
C115 C119 1.460 . S
C115 H121 0.929 . S
N116 Mn109 2.257 . S
N116 C115 1.326 . S
N116 C120 1.362 . S
C117 C118 1.258 . S
C117 C120 1.431 . S
C117 C137 1.449 . S
C118 C117 1.258 . S
C118 C119 1.477 . S
C118 H138 0.931 . S
C119 C115 1.460 . S
C119 C118 1.477 . S
C119 H139 0.930 . S
C120 N116 1.362 . S
C120 C117 1.431 . S
C120 C130 1.476 . S
H121 C115 0.929 . S
C122 O113 1.250 . S
C122 O114 1.258 . S
O123 Mn108 2.162 . S
O123 C111 1.281 . S
O124 Mn108 2.297 . S
O124 C111 1.236 . S
N125 Mn109 2.282 . S
N125 C126 1.328 . S
N125 C130 1.318 . S
C126 N125 1.328 . S
C126 C127 1.457 . S
C126 H131 0.929 . S
C127 C126 1.457 . S
C127 C128 1.291 . S
C127 H140 0.931 . S
C128 C127 1.291 . S
C128 C129 1.373 . S
C128 H141 0.929 . S
C129 C128 1.373 . S
C129 C130 1.396 . S
C129 C136 1.403 . S
C130 C120 1.476 . S
C130 N125 1.318 . S
C130 C129 1.396 . S
H131 C126 0.929 . S
O132 Mn108 2.385 . S
O132 C110 1.234 . S
O133 Mn108 2.209 . S
O133 Mn109 2.215 . S
O133 C110 1.283 . S
O134 Mn108 2.094 . S
O134 C112 1.240 . S
O135 Mn109 2.117 . S
O135 C112 1.264 . S
C136 C129 1.403 . S
C136 C137 1.399 . S
C136 H142 0.929 . S
C137 C117 1.449 . S
C137 C136 1.399 . S
C137 H143 0.930 . S
H138 C118 0.931 . S
H139 C119 0.930 . S
H140 C127 0.931 . S
H141 C128 0.929 . S
H142 C136 0.929 . S
H143 C137 0.930 . S
Mn144 O149 2.095 . S
Mn144 O159 2.171 . S
Mn144 O160 2.297 . S
Mn144 O168 2.385 1_556 S
Mn144 O169 2.209 . S
Mn144 O170 2.094 . S
Mn145 O150 2.121 . S
Mn145 N152 2.257 . S
Mn145 N161 2.282 . S
Mn145 O169 2.215 . S
Mn145 O171 2.117 . S
C146 O168 1.234 1_556 S
C146 O169 1.283 . S
C147 O159 1.287 . S
C147 O160 1.236 . S
C148 O170 1.240 . S
C148 O171 1.264 . S
O149 Mn144 2.095 . S
O149 C158 1.250 . S
O150 Mn145 2.121 . S
O150 C158 1.258 . S
C151 N152 1.326 . S
C151 C155 1.460 . S
C151 H157 0.929 . S
N152 Mn145 2.257 . S
N152 C151 1.326 . S
N152 C156 1.362 . S
C153 C154 1.258 . S
C153 C156 1.431 1_655 S
C153 C173 1.449 . S
C154 C153 1.258 . S
C154 C155 1.477 1_655 S
C154 H174 0.931 . S
C155 C151 1.460 . S
C155 C154 1.477 1_455 S
C155 H175 0.930 . S
C156 N152 1.362 . S
C156 C153 1.431 1_455 S
C156 C166 1.476 . S
H157 C151 0.929 . S
C158 O149 1.250 . S
C158 O150 1.258 . S
O159 Mn144 2.171 . S
O159 C147 1.287 . S
O160 Mn144 2.297 . S
O160 C147 1.236 . S
N161 Mn145 2.282 . S
N161 C162 1.328 . S
N161 C166 1.318 . S
C162 N161 1.328 . S
C162 C163 1.457 . S
C162 H167 0.929 . S
C163 C162 1.457 . S
C163 C164 1.291 1_455 S
C163 H176 0.931 1_556 S
C164 C163 1.291 1_655 S
C164 C165 1.373 . S
C164 H177 0.929 . S
C165 C164 1.373 . S
C165 C166 1.396 1_655 S
C165 C172 1.403 . S
C166 C156 1.476 . S
C166 N161 1.318 . S
C166 C165 1.396 1_455 S
H167 C162 0.929 . S
O168 Mn144 2.385 1_554 S
O168 C146 1.234 1_554 S
O169 Mn144 2.209 . S
O169 Mn145 2.215 . S
O169 C146 1.283 . S
O170 Mn144 2.094 . S
O170 C148 1.240 . S
O171 Mn145 2.117 . S
O171 C148 1.264 . S
C172 C165 1.403 . S
C172 C173 1.399 . S
C172 H178 0.929 . S
C173 C153 1.449 . S
C173 C172 1.399 . S
C173 H179 0.930 . S
H174 C154 0.931 . S
H175 C155 0.930 . S
H176 C163 0.931 1_554 S
H177 C164 0.929 . S
H178 C172 0.929 . S
H179 C173 0.930 . S
Mn180 O185 2.095 . S
Mn180 O195 2.162 . S
Mn180 O196 2.297 . S
Mn180 O204 2.385 . S
Mn180 O205 2.209 . S
Mn180 O206 2.094 . S
Mn181 O186 2.121 . S
Mn181 N188 2.257 . S
Mn181 N197 2.282 . S
Mn181 O205 2.215 . S
Mn181 O207 2.117 . S
C182 O204 1.234 . S
C182 O205 1.283 . S
C183 O195 1.281 . S
C183 O196 1.236 . S
C184 O206 1.240 . S
C184 O207 1.264 . S
O185 Mn180 2.095 . S
O185 C194 1.250 . S
O186 Mn181 2.121 . S
O186 C194 1.258 . S
C187 N188 1.326 . S
C187 C191 1.460 . S
C187 H193 0.929 . S
N188 Mn181 2.257 . S
N188 C187 1.326 . S
N188 C192 1.362 . S
C189 C190 1.258 . S
C189 C192 1.431 . S
C189 C209 1.449 . S
C190 C189 1.258 . S
C190 C191 1.477 . S
C190 H210 0.931 . S
C191 C187 1.460 . S
C191 C190 1.477 . S
C191 H211 0.930 . S
C192 N188 1.362 . S
C192 C189 1.431 . S
C192 C202 1.476 . S
H193 C187 0.929 . S
C194 O185 1.250 . S
C194 O186 1.258 . S
O195 Mn180 2.162 . S
O195 C183 1.281 . S
O196 Mn180 2.297 . S
O196 C183 1.236 . S
N197 Mn181 2.282 . S
N197 C198 1.328 . S
N197 C202 1.318 . S
C198 N197 1.328 . S
C198 C199 1.457 . S
C198 H203 0.929 . S
C199 C198 1.457 . S
C199 C200 1.291 . S
C199 H212 0.931 . S
C200 C199 1.291 . S
C200 C201 1.373 . S
C200 H213 0.929 . S
C201 C200 1.373 . S
C201 C202 1.396 . S
C201 C208 1.403 . S
C202 C192 1.476 . S
C202 N197 1.318 . S
C202 C201 1.396 . S
H203 C198 0.929 . S
O204 Mn180 2.385 . S
O204 C182 1.234 . S
O205 Mn180 2.209 . S
O205 Mn181 2.215 . S
O205 C182 1.283 . S
O206 Mn180 2.094 . S
O206 C184 1.240 . S
O207 Mn181 2.117 . S
O207 C184 1.264 . S
C208 C201 1.403 . S
C208 C209 1.399 . S
C208 H214 0.929 . S
C209 C189 1.449 . S
C209 C208 1.399 . S
C209 H215 0.930 . S
H210 C190 0.931 . S
H211 C191 0.930 . S
H212 C199 0.931 . S
H213 C200 0.929 . S
H214 C208 0.929 . S
H215 C209 0.930 . S
Mn216 O221 2.095 . S
Mn216 O231 2.162 . S
Mn216 O232 2.297 . S
Mn216 O240 2.385 . S
Mn216 O241 2.209 . S
Mn216 O242 2.094 . S
Mn217 O222 2.121 . S
Mn217 N224 2.257 . S
Mn217 N233 2.282 . S
Mn217 O241 2.215 . S
Mn217 O243 2.117 . S
C218 O240 1.234 . S
C218 O241 1.283 . S
C219 O231 1.281 . S
C219 O232 1.236 . S
C220 O242 1.240 . S
C220 O243 1.264 . S
O221 Mn216 2.095 . S
O221 C230 1.250 . S
O222 Mn217 2.121 . S
O222 C230 1.258 . S
C223 N224 1.326 . S
C223 C227 1.460 . S
C223 H229 0.929 . S
N224 Mn217 2.257 . S
N224 C223 1.326 . S
N224 C228 1.362 . S
C225 C226 1.258 . S
C225 C228 1.431 . S
C225 C245 1.449 . S
C226 C225 1.258 . S
C226 C227 1.477 . S
C226 H246 0.931 . S
C227 C223 1.460 . S
C227 C226 1.477 . S
C227 H247 0.930 . S
C228 N224 1.362 . S
C228 C225 1.431 . S
C228 C238 1.476 . S
H229 C223 0.929 . S
C230 O221 1.250 . S
C230 O222 1.258 . S
O231 Mn216 2.162 . S
O231 C219 1.281 . S
O232 Mn216 2.297 . S
O232 C219 1.236 . S
N233 Mn217 2.282 . S
N233 C234 1.328 . S
N233 C238 1.318 . S
C234 N233 1.328 . S
C234 C235 1.457 . S
C234 H239 0.929 . S
C235 C234 1.457 . S
C235 C236 1.291 . S
C235 H248 0.931 . S
C236 C235 1.291 . S
C236 C237 1.373 . S
C236 H249 0.929 . S
C237 C236 1.373 . S
C237 C238 1.396 . S
C237 C244 1.403 . S
C238 C228 1.476 . S
C238 N233 1.318 . S
C238 C237 1.396 . S
H239 C234 0.929 . S
O240 Mn216 2.385 . S
O240 C218 1.234 . S
O241 Mn216 2.209 . S
O241 Mn217 2.215 . S
O241 C218 1.283 . S
O242 Mn216 2.094 . S
O242 C220 1.240 . S
O243 Mn217 2.117 . S
O243 C220 1.264 . S
C244 C237 1.403 . S
C244 C245 1.399 . S
C244 H250 0.929 . S
C245 C225 1.449 . S
C245 C244 1.399 . S
C245 H251 0.930 . S
H246 C226 0.931 . S
H247 C227 0.930 . S
H248 C235 0.931 . S
H249 C236 0.929 . S
H250 C244 0.929 . S
H251 C245 0.930 . S
Mn252 O257 2.095 . S
Mn252 O267 2.162 . S
Mn252 O268 2.297 . S
Mn252 O276 2.385 . S
Mn252 O277 2.209 . S
Mn252 O278 2.094 . S
Mn253 O258 2.121 . S
Mn253 N260 2.257 . S
Mn253 N269 2.282 . S
Mn253 O277 2.215 . S
Mn253 O279 2.117 . S
C254 O276 1.234 . S
C254 O277 1.283 . S
C255 O267 1.281 . S
C255 O268 1.236 . S
C256 O278 1.240 . S
C256 O279 1.264 . S
O257 Mn252 2.095 . S
O257 C266 1.250 . S
O258 Mn253 2.121 . S
O258 C266 1.258 . S
C259 N260 1.326 . S
C259 C263 1.460 . S
C259 H265 0.929 . S
N260 Mn253 2.257 . S
N260 C259 1.326 . S
N260 C264 1.362 . S
C261 C262 1.258 . S
C261 C264 1.431 . S
C261 C281 1.449 . S
C262 C261 1.258 . S
C262 C263 1.477 . S
C262 H282 0.931 . S
C263 C259 1.460 . S
C263 C262 1.477 . S
C263 H283 0.930 . S
C264 N260 1.362 . S
C264 C261 1.431 . S
C264 C274 1.476 . S
H265 C259 0.929 . S
C266 O257 1.250 . S
C266 O258 1.258 . S
O267 Mn252 2.162 . S
O267 C255 1.281 . S
O268 Mn252 2.297 . S
O268 C255 1.236 . S
N269 Mn253 2.282 . S
N269 C270 1.328 . S
N269 C274 1.318 . S
C270 N269 1.328 . S
C270 C271 1.457 . S
C270 H275 0.929 . S
C271 C270 1.457 . S
C271 C272 1.291 . S
C271 H284 0.931 . S
C272 C271 1.291 . S
C272 C273 1.373 . S
C272 H285 0.929 . S
C273 C272 1.373 . S
C273 C274 1.396 . S
C273 C280 1.403 . S
C274 C264 1.476 . S
C274 N269 1.318 . S
C274 C273 1.396 . S
H275 C270 0.929 . S
O276 Mn252 2.385 . S
O276 C254 1.234 . S
O277 Mn252 2.209 . S
O277 Mn253 2.215 . S
O277 C254 1.283 . S
O278 Mn252 2.094 . S
O278 C256 1.240 . S
O279 Mn253 2.117 . S
O279 C256 1.264 . S
C280 C273 1.403 . S
C280 C281 1.399 . S
C280 H286 0.929 . S
C281 C261 1.449 . S
C281 C280 1.399 . S
C281 H287 0.930 . S
H282 C262 0.931 . S
H283 C263 0.930 . S
H284 C271 0.931 . S
H285 C272 0.929 . S
H286 C280 0.929 . S
H287 C281 0.930 . S
Mn288 O293 2.095 . S
Mn288 O303 2.171 . S
Mn288 O304 2.297 . S
Mn288 O312 2.385 1_556 S
Mn288 O313 2.209 . S
Mn288 O314 2.094 . S
Mn289 O294 2.121 . S
Mn289 N296 2.257 . S
Mn289 N305 2.282 . S
Mn289 O313 2.215 . S
Mn289 O315 2.117 . S
C290 O312 1.234 1_556 S
C290 O313 1.283 . S
C291 O303 1.287 . S
C291 O304 1.236 . S
C292 O314 1.240 . S
C292 O315 1.264 . S
O293 Mn288 2.095 . S
O293 C302 1.250 . S
O294 Mn289 2.121 . S
O294 C302 1.258 . S
C295 N296 1.326 . S
C295 C299 1.460 . S
C295 H301 0.929 . S
N296 Mn289 2.257 . S
N296 C295 1.326 . S
N296 C300 1.362 . S
C297 C298 1.258 . S
C297 C300 1.431 1_455 S
C297 C317 1.449 . S
C298 C297 1.258 . S
C298 C299 1.477 1_455 S
C298 H318 0.931 . S
C299 C295 1.460 . S
C299 C298 1.477 1_655 S
C299 H319 0.930 . S
C300 N296 1.362 . S
C300 C297 1.431 1_655 S
C300 C310 1.476 . S
H301 C295 0.929 . S
C302 O293 1.250 . S
C302 O294 1.258 . S
O303 Mn288 2.171 . S
O303 C291 1.287 . S
O304 Mn288 2.297 . S
O304 C291 1.236 . S
N305 Mn289 2.282 . S
N305 C306 1.328 . S
N305 C310 1.318 . S
C306 N305 1.328 . S
C306 C307 1.457 . S
C306 H311 0.929 . S
C307 C306 1.457 . S
C307 C308 1.291 1_655 S
C307 H320 0.931 1_556 S
C308 C307 1.291 1_455 S
C308 C309 1.373 . S
C308 H321 0.929 . S
C309 C308 1.373 . S
C309 C310 1.396 1_455 S
C309 C316 1.403 . S
C310 C300 1.476 . S
C310 N305 1.318 . S
C310 C309 1.396 1_655 S
H311 C306 0.929 . S
O312 Mn288 2.385 1_554 S
O312 C290 1.234 1_554 S
O313 Mn288 2.209 . S
O313 Mn289 2.215 . S
O313 C290 1.283 . S
O314 Mn288 2.094 . S
O314 C292 1.240 . S
O315 Mn289 2.117 . S
O315 C292 1.264 . S
C316 C309 1.403 . S
C316 C317 1.399 . S
C316 H322 0.929 . S
C317 C297 1.449 . S
C317 C316 1.399 . S
C317 H323 0.930 . S
H318 C298 0.931 . S
H319 C299 0.930 . S
H320 C307 0.931 1_554 S
H321 C308 0.929 . S
H322 C316 0.929 . S
H323 C317 0.930 . S
Mn324 O329 2.095 . S
Mn324 O339 2.162 . S
Mn324 O340 2.297 . S
Mn324 O348 2.385 . S
Mn324 O349 2.209 . S
Mn324 O350 2.094 . S
Mn325 O330 2.121 . S
Mn325 N332 2.257 . S
Mn325 N341 2.282 . S
Mn325 O349 2.215 . S
Mn325 O351 2.117 . S
C326 O348 1.234 . S
C326 O349 1.283 . S
C327 O339 1.281 . S
C327 O340 1.236 . S
C328 O350 1.240 . S
C328 O351 1.264 . S
O329 Mn324 2.095 . S
O329 C338 1.250 . S
O330 Mn325 2.121 . S
O330 C338 1.258 . S
C331 N332 1.326 . S
C331 C335 1.460 . S
C331 H337 0.929 . S
N332 Mn325 2.257 . S
N332 C331 1.326 . S
N332 C336 1.362 . S
C333 C334 1.258 . S
C333 C336 1.431 . S
C333 C353 1.449 . S
C334 C333 1.258 . S
C334 C335 1.477 . S
C334 H354 0.931 . S
C335 C331 1.460 . S
C335 C334 1.477 . S
C335 H355 0.930 . S
C336 N332 1.362 . S
C336 C333 1.431 . S
C336 C346 1.476 . S
H337 C331 0.929 . S
C338 O329 1.250 . S
C338 O330 1.258 . S
O339 Mn324 2.162 . S
O339 C327 1.281 . S
O340 Mn324 2.297 . S
O340 C327 1.236 . S
N341 Mn325 2.282 . S
N341 C342 1.328 . S
N341 C346 1.318 . S
C342 N341 1.328 . S
C342 C343 1.457 . S
C342 H347 0.929 . S
C343 C342 1.457 . S
C343 C344 1.291 . S
C343 H356 0.931 . S
C344 C343 1.291 . S
C344 C345 1.373 . S
C344 H357 0.929 . S
C345 C344 1.373 . S
C345 C346 1.396 . S
C345 C352 1.403 . S
C346 C336 1.476 . S
C346 N341 1.318 . S
C346 C345 1.396 . S
H347 C342 0.929 . S
O348 Mn324 2.385 . S
O348 C326 1.234 . S
O349 Mn324 2.209 . S
O349 Mn325 2.215 . S
O349 C326 1.283 . S
O350 Mn324 2.094 . S
O350 C328 1.240 . S
O351 Mn325 2.117 . S
O351 C328 1.264 . S
C352 C345 1.403 . S
C352 C353 1.399 . S
C352 H358 0.929 . S
C353 C333 1.449 . S
C353 C352 1.399 . S
C353 H359 0.930 . S
H354 C334 0.931 . S
H355 C335 0.930 . S
H356 C343 0.931 . S
H357 C344 0.929 . S
H358 C352 0.929 . S
H359 C353 0.930 . S
Mn360 O365 2.095 . S
Mn360 O375 2.162 . S
Mn360 O376 2.297 . S
Mn360 O384 2.385 . S
Mn360 O385 2.209 . S
Mn360 O386 2.094 . S
Mn361 O366 2.121 . S
Mn361 N368 2.257 . S
Mn361 N377 2.282 . S
Mn361 O385 2.215 . S
Mn361 O387 2.117 . S
C362 O384 1.234 . S
C362 O385 1.283 . S
C363 O375 1.281 . S
C363 O376 1.236 . S
C364 O386 1.240 . S
C364 O387 1.264 . S
O365 Mn360 2.095 . S
O365 C374 1.250 . S
O366 Mn361 2.121 . S
O366 C374 1.258 . S
C367 N368 1.326 . S
C367 C371 1.460 . S
C367 H373 0.929 . S
N368 Mn361 2.257 . S
N368 C367 1.326 . S
N368 C372 1.362 . S
C369 C370 1.258 . S
C369 C372 1.431 . S
C369 C389 1.449 . S
C370 C369 1.258 . S
C370 C371 1.477 . S
C370 H390 0.931 . S
C371 C367 1.460 . S
C371 C370 1.477 . S
C371 H391 0.930 . S
C372 N368 1.362 . S
C372 C369 1.431 . S
C372 C382 1.476 . S
H373 C367 0.929 . S
C374 O365 1.250 . S
C374 O366 1.258 . S
O375 Mn360 2.162 . S
O375 C363 1.281 . S
O376 Mn360 2.297 . S
O376 C363 1.236 . S
N377 Mn361 2.282 . S
N377 C378 1.328 . S
N377 C382 1.318 . S
C378 N377 1.328 . S
C378 C379 1.457 . S
C378 H383 0.929 . S
C379 C378 1.457 . S
C379 C380 1.291 . S
C379 H392 0.931 . S
C380 C379 1.291 . S
C380 C381 1.373 . S
C380 H393 0.929 . S
C381 C380 1.373 . S
C381 C382 1.396 . S
C381 C388 1.403 . S
C382 C372 1.476 . S
C382 N377 1.318 . S
C382 C381 1.396 . S
H383 C378 0.929 . S
O384 Mn360 2.385 . S
O384 C362 1.234 . S
O385 Mn360 2.209 . S
O385 Mn361 2.215 . S
O385 C362 1.283 . S
O386 Mn360 2.094 . S
O386 C364 1.240 . S
O387 Mn361 2.117 . S
O387 C364 1.264 . S
C388 C381 1.403 . S
C388 C389 1.399 . S
C388 H394 0.929 . S
C389 C369 1.449 . S
C389 C388 1.399 . S
C389 H395 0.930 . S
H390 C370 0.931 . S
H391 C371 0.930 . S
H392 C379 0.931 . S
H393 C380 0.929 . S
H394 C388 0.929 . S
H395 C389 0.930 . S
Mn396 O401 2.095 . S
Mn396 O411 2.162 . S
Mn396 O412 2.297 . S
Mn396 O420 2.385 . S
Mn396 O421 2.209 . S
Mn396 O422 2.094 . S
Mn397 O402 2.121 . S
Mn397 N404 2.257 . S
Mn397 N413 2.282 . S
Mn397 O421 2.215 . S
Mn397 O423 2.117 . S
C398 O420 1.234 . S
C398 O421 1.283 . S
C399 O411 1.281 . S
C399 O412 1.236 . S
C400 O422 1.240 . S
C400 O423 1.264 . S
O401 Mn396 2.095 . S
O401 C410 1.250 . S
O402 Mn397 2.121 . S
O402 C410 1.258 . S
C403 N404 1.326 . S
C403 C407 1.460 . S
C403 H409 0.929 . S
N404 Mn397 2.257 . S
N404 C403 1.326 . S
N404 C408 1.362 . S
C405 C406 1.258 . S
C405 C408 1.431 . S
C405 C425 1.449 . S
C406 C405 1.258 . S
C406 C407 1.477 . S
C406 H426 0.931 . S
C407 C403 1.460 . S
C407 C406 1.477 . S
C407 H427 0.930 . S
C408 N404 1.362 . S
C408 C405 1.431 . S
C408 C418 1.476 . S
H409 C403 0.929 . S
C410 O401 1.250 . S
C410 O402 1.258 . S
O411 Mn396 2.162 . S
O411 C399 1.281 . S
O412 Mn396 2.297 . S
O412 C399 1.236 . S
N413 Mn397 2.282 . S
N413 C414 1.328 . S
N413 C418 1.318 . S
C414 N413 1.328 . S
C414 C415 1.457 . S
C414 H419 0.929 . S
C415 C414 1.457 . S
C415 C416 1.291 . S
C415 H428 0.931 . S
C416 C415 1.291 . S
C416 C417 1.373 . S
C416 H429 0.929 . S
C417 C416 1.373 . S
C417 C418 1.396 . S
C417 C424 1.403 . S
C418 C408 1.476 . S
C418 N413 1.318 . S
C418 C417 1.396 . S
H419 C414 0.929 . S
O420 Mn396 2.385 . S
O420 C398 1.234 . S
O421 Mn396 2.209 . S
O421 Mn397 2.215 . S
O421 C398 1.283 . S
O422 Mn396 2.094 . S
O422 C400 1.240 . S
O423 Mn397 2.117 . S
O423 C400 1.264 . S
C424 C417 1.403 . S
C424 C425 1.399 . S
C424 H430 0.929 . S
C425 C405 1.449 . S
C425 C424 1.399 . S
C425 H431 0.930 . S
H426 C406 0.931 . S
H427 C407 0.930 . S
H428 C415 0.931 . S
H429 C416 0.929 . S
H430 C424 0.929 . S
H431 C425 0.930 . S
Mn432 O437 2.095 . S
Mn432 O447 2.171 . S
Mn432 O448 2.297 . S
Mn432 O456 2.385 1_554 S
Mn432 O457 2.209 . S
Mn432 O458 2.094 . S
Mn433 O438 2.121 . S
Mn433 N440 2.257 . S
Mn433 N449 2.282 . S
Mn433 O457 2.215 . S
Mn433 O459 2.117 . S
C434 O456 1.234 1_554 S
C434 O457 1.283 . S
C435 O447 1.287 . S
C435 O448 1.236 . S
C436 O458 1.240 . S
C436 O459 1.264 . S
O437 Mn432 2.095 . S
O437 C446 1.250 . S
O438 Mn433 2.121 . S
O438 C446 1.258 . S
C439 N440 1.326 . S
C439 C443 1.460 . S
C439 H445 0.929 . S
N440 Mn433 2.257 . S
N440 C439 1.326 . S
N440 C444 1.362 . S
C441 C442 1.258 . S
C441 C444 1.431 1_455 S
C441 C461 1.449 . S
C442 C441 1.258 . S
C442 C443 1.477 1_455 S
C442 H462 0.931 . S
C443 C439 1.460 . S
C443 C442 1.477 1_655 S
C443 H463 0.930 . S
C444 N440 1.362 . S
C444 C441 1.431 1_655 S
C444 C454 1.476 . S
H445 C439 0.929 . S
C446 O437 1.250 . S
C446 O438 1.258 . S
O447 Mn432 2.171 . S
O447 C435 1.287 . S
O448 Mn432 2.297 . S
O448 C435 1.236 . S
N449 Mn433 2.282 . S
N449 C450 1.328 . S
N449 C454 1.318 . S
C450 N449 1.328 . S
C450 C451 1.457 . S
C450 H455 0.929 . S
C451 C450 1.457 . S
C451 C452 1.291 1_655 S
C451 H464 0.931 1_554 S
C452 C451 1.291 1_455 S
C452 C453 1.373 . S
C452 H465 0.929 . S
C453 C452 1.373 . S
C453 C454 1.396 1_455 S
C453 C460 1.403 . S
C454 C444 1.476 . S
C454 N449 1.318 . S
C454 C453 1.396 1_655 S
H455 C450 0.929 . S
O456 Mn432 2.385 1_556 S
O456 C434 1.234 1_556 S
O457 Mn432 2.209 . S
O457 Mn433 2.215 . S
O457 C434 1.283 . S
O458 Mn432 2.094 . S
O458 C436 1.240 . S
O459 Mn433 2.117 . S
O459 C436 1.264 . S
C460 C453 1.403 . S
C460 C461 1.399 . S
C460 H466 0.929 . S
C461 C441 1.449 . S
C461 C460 1.399 . S
C461 H467 0.930 . S
H462 C442 0.931 . S
H463 C443 0.930 . S
H464 C451 0.931 1_556 S
H465 C452 0.929 . S
H466 C460 0.929 . S
H467 C461 0.930 . S
Mn468 O473 2.095 . S
Mn468 O483 2.162 . S
Mn468 O484 2.297 . S
Mn468 O492 2.385 . S
Mn468 O493 2.209 . S
Mn468 O494 2.094 . S
Mn469 O474 2.121 . S
Mn469 N476 2.257 . S
Mn469 N485 2.282 . S
Mn469 O493 2.215 . S
Mn469 O495 2.117 . S
C470 O492 1.234 . S
C470 O493 1.283 . S
C471 O483 1.281 . S
C471 O484 1.236 . S
C472 O494 1.240 . S
C472 O495 1.264 . S
O473 Mn468 2.095 . S
O473 C482 1.250 . S
O474 Mn469 2.121 . S
O474 C482 1.258 . S
C475 N476 1.326 . S
C475 C479 1.460 . S
C475 H481 0.929 . S
N476 Mn469 2.257 . S
N476 C475 1.326 . S
N476 C480 1.362 . S
C477 C478 1.258 . S
C477 C480 1.431 . S
C477 C497 1.449 . S
C478 C477 1.258 . S
C478 C479 1.477 . S
C478 H498 0.931 . S
C479 C475 1.460 . S
C479 C478 1.477 . S
C479 H499 0.930 . S
C480 N476 1.362 . S
C480 C477 1.431 . S
C480 C490 1.476 . S
H481 C475 0.929 . S
C482 O473 1.250 . S
C482 O474 1.258 . S
O483 Mn468 2.162 . S
O483 C471 1.281 . S
O484 Mn468 2.297 . S
O484 C471 1.236 . S
N485 Mn469 2.282 . S
N485 C486 1.328 . S
N485 C490 1.318 . S
C486 N485 1.328 . S
C486 C487 1.457 . S
C486 H491 0.929 . S
C487 C486 1.457 . S
C487 C488 1.291 . S
C487 H500 0.931 . S
C488 C487 1.291 . S
C488 C489 1.373 . S
C488 H501 0.929 . S
C489 C488 1.373 . S
C489 C490 1.396 . S
C489 C496 1.403 . S
C490 C480 1.476 . S
C490 N485 1.318 . S
C490 C489 1.396 . S
H491 C486 0.929 . S
O492 Mn468 2.385 . S
O492 C470 1.234 . S
O493 Mn468 2.209 . S
O493 Mn469 2.215 . S
O493 C470 1.283 . S
O494 Mn468 2.094 . S
O494 C472 1.240 . S
O495 Mn469 2.117 . S
O495 C472 1.264 . S
C496 C489 1.403 . S
C496 C497 1.399 . S
C496 H502 0.929 . S
C497 C477 1.449 . S
C497 C496 1.399 . S
C497 H503 0.930 . S
H498 C478 0.931 . S
H499 C479 0.930 . S
H500 C487 0.931 . S
H501 C488 0.929 . S
H502 C496 0.929 . S
H503 C497 0.930 . S
Mn504 O509 2.095 . S
Mn504 O519 2.162 . S
Mn504 O520 2.297 . S
Mn504 O528 2.385 . S
Mn504 O529 2.209 . S
Mn504 O530 2.094 . S
Mn505 O510 2.121 . S
Mn505 N512 2.257 . S
Mn505 N521 2.282 . S
Mn505 O529 2.215 . S
Mn505 O531 2.117 . S
C506 O528 1.234 . S
C506 O529 1.283 . S
C507 O519 1.281 . S
C507 O520 1.236 . S
C508 O530 1.240 . S
C508 O531 1.264 . S
O509 Mn504 2.095 . S
O509 C518 1.250 . S
O510 Mn505 2.121 . S
O510 C518 1.258 . S
C511 N512 1.326 . S
C511 C515 1.460 . S
C511 H517 0.929 . S
N512 Mn505 2.257 . S
N512 C511 1.326 . S
N512 C516 1.362 . S
C513 C514 1.258 . S
C513 C516 1.431 . S
C513 C533 1.449 . S
C514 C513 1.258 . S
C514 C515 1.477 . S
C514 H534 0.931 . S
C515 C511 1.460 . S
C515 C514 1.477 . S
C515 H535 0.930 . S
C516 N512 1.362 . S
C516 C513 1.431 . S
C516 C526 1.476 . S
H517 C511 0.929 . S
C518 O509 1.250 . S
C518 O510 1.258 . S
O519 Mn504 2.162 . S
O519 C507 1.281 . S
O520 Mn504 2.297 . S
O520 C507 1.236 . S
N521 Mn505 2.282 . S
N521 C522 1.328 . S
N521 C526 1.318 . S
C522 N521 1.328 . S
C522 C523 1.457 . S
C522 H527 0.929 . S
C523 C522 1.457 . S
C523 C524 1.291 . S
C523 H536 0.931 . S
C524 C523 1.291 . S
C524 C525 1.373 . S
C524 H537 0.929 . S
C525 C524 1.373 . S
C525 C526 1.396 . S
C525 C532 1.403 . S
C526 C516 1.476 . S
C526 N521 1.318 . S
C526 C525 1.396 . S
H527 C522 0.929 . S
O528 Mn504 2.385 . S
O528 C506 1.234 . S
O529 Mn504 2.209 . S
O529 Mn505 2.215 . S
O529 C506 1.283 . S
O530 Mn504 2.094 . S
O530 C508 1.240 . S
O531 Mn505 2.117 . S
O531 C508 1.264 . S
C532 C525 1.403 . S
C532 C533 1.399 . S
C532 H538 0.929 . S
C533 C513 1.449 . S
C533 C532 1.399 . S
C533 H539 0.930 . S
H534 C514 0.931 . S
H535 C515 0.930 . S
H536 C523 0.931 . S
H537 C524 0.929 . S
H538 C532 0.929 . S
H539 C533 0.930 . S
Mn540 O545 2.095 . S
Mn540 O555 2.162 . S
Mn540 O556 2.297 . S
Mn540 O564 2.385 . S
Mn540 O565 2.209 . S
Mn540 O566 2.094 . S
Mn541 O546 2.121 . S
Mn541 N548 2.257 . S
Mn541 N557 2.282 . S
Mn541 O565 2.215 . S
Mn541 O567 2.117 . S
C542 O564 1.234 . S
C542 O565 1.283 . S
C543 O555 1.281 . S
C543 O556 1.236 . S
C544 O566 1.240 . S
C544 O567 1.264 . S
O545 Mn540 2.095 . S
O545 C554 1.250 . S
O546 Mn541 2.121 . S
O546 C554 1.258 . S
C547 N548 1.326 . S
C547 C551 1.460 . S
C547 H553 0.929 . S
N548 Mn541 2.257 . S
N548 C547 1.326 . S
N548 C552 1.362 . S
C549 C550 1.258 . S
C549 C552 1.431 . S
C549 C569 1.449 . S
C550 C549 1.258 . S
C550 C551 1.477 . S
C550 H570 0.931 . S
C551 C547 1.460 . S
C551 C550 1.477 . S
C551 H571 0.930 . S
C552 N548 1.362 . S
C552 C549 1.431 . S
C552 C562 1.476 . S
H553 C547 0.929 . S
C554 O545 1.250 . S
C554 O546 1.258 . S
O555 Mn540 2.162 . S
O555 C543 1.281 . S
O556 Mn540 2.297 . S
O556 C543 1.236 . S
N557 Mn541 2.282 . S
N557 C558 1.328 . S
N557 C562 1.318 . S
C558 N557 1.328 . S
C558 C559 1.457 . S
C558 H563 0.929 . S
C559 C558 1.457 . S
C559 C560 1.291 . S
C559 H572 0.931 . S
C560 C559 1.291 . S
C560 C561 1.373 . S
C560 H573 0.929 . S
C561 C560 1.373 . S
C561 C562 1.396 . S
C561 C568 1.403 . S
C562 C552 1.476 . S
C562 N557 1.318 . S
C562 C561 1.396 . S
H563 C558 0.929 . S
O564 Mn540 2.385 . S
O564 C542 1.234 . S
O565 Mn540 2.209 . S
O565 Mn541 2.215 . S
O565 C542 1.283 . S
O566 Mn540 2.094 . S
O566 C544 1.240 . S
O567 Mn541 2.117 . S
O567 C544 1.264 . S
C568 C561 1.403 . S
C568 C569 1.399 . S
C568 H574 0.929 . S
C569 C549 1.449 . S
C569 C568 1.399 . S
C569 H575 0.930 . S
H570 C550 0.931 . S
H571 C551 0.930 . S
H572 C559 0.931 . S
H573 C560 0.929 . S
H574 C568 0.929 . S
H575 C569 0.930 . S
Mn576 O581 2.095 . S
Mn576 O591 2.162 . S
Mn576 O592 2.297 . S
Mn576 O600 2.385 . S
Mn576 O601 2.209 . S
Mn576 O602 2.094 . S
Mn577 O582 2.121 . S
Mn577 N584 2.257 . S
Mn577 N593 2.282 . S
Mn577 O601 2.215 . S
Mn577 O603 2.117 . S
C578 O600 1.234 . S
C578 O601 1.283 . S
C579 O591 1.281 . S
C579 O592 1.236 . S
C580 O602 1.240 . S
C580 O603 1.264 . S
O581 Mn576 2.095 . S
O581 C590 1.250 . S
O582 Mn577 2.121 . S
O582 C590 1.258 . S
C583 N584 1.326 . S
C583 C587 1.460 . S
C583 H589 0.929 . S
N584 Mn577 2.257 . S
N584 C583 1.326 . S
N584 C588 1.362 . S
C585 C586 1.258 . S
C585 C588 1.431 . S
C585 C605 1.449 . S
C586 C585 1.258 . S
C586 C587 1.477 . S
C586 H606 0.931 . S
C587 C583 1.460 . S
C587 C586 1.477 . S
C587 H607 0.930 . S
C588 N584 1.362 . S
C588 C585 1.431 . S
C588 C598 1.476 . S
H589 C583 0.929 . S
C590 O581 1.250 . S
C590 O582 1.258 . S
O591 Mn576 2.162 . S
O591 C579 1.281 . S
O592 Mn576 2.297 . S
O592 C579 1.236 . S
N593 Mn577 2.282 . S
N593 C594 1.328 . S
N593 C598 1.318 . S
C594 N593 1.328 . S
C594 C595 1.457 . S
C594 H599 0.929 . S
C595 C594 1.457 . S
C595 C596 1.291 . S
C595 H608 0.931 . S
C596 C595 1.291 . S
C596 C597 1.373 . S
C596 H609 0.929 . S
C597 C596 1.373 . S
C597 C598 1.396 . S
C597 C604 1.403 . S
C598 C588 1.476 . S
C598 N593 1.318 . S
C598 C597 1.396 . S
H599 C594 0.929 . S
O600 Mn576 2.385 . S
O600 C578 1.234 . S
O601 Mn576 2.209 . S
O601 Mn577 2.215 . S
O601 C578 1.283 . S
O602 Mn576 2.094 . S
O602 C580 1.240 . S
O603 Mn577 2.117 . S
O603 C580 1.264 . S
C604 C597 1.403 . S
C604 C605 1.399 . S
C604 H610 0.929 . S
C605 C585 1.449 . S
C605 C604 1.399 . S
C605 H611 0.930 . S
H606 C586 0.931 . S
H607 C587 0.930 . S
H608 C595 0.931 . S
H609 C596 0.929 . S
H610 C604 0.929 . S
H611 C605 0.930 . S
Mn612 O617 2.095 . S
Mn612 O627 2.162 . S
Mn612 O628 2.297 . S
Mn612 O636 2.385 . S
Mn612 O637 2.209 . S
Mn612 O638 2.094 . S
Mn613 O618 2.121 . S
Mn613 N620 2.257 . S
Mn613 N629 2.282 . S
Mn613 O637 2.215 . S
Mn613 O639 2.117 . S
C614 O636 1.234 . S
C614 O637 1.283 . S
C615 O627 1.281 . S
C615 O628 1.236 . S
C616 O638 1.240 . S
C616 O639 1.264 . S
O617 Mn612 2.095 . S
O617 C626 1.250 . S
O618 Mn613 2.121 . S
O618 C626 1.258 . S
C619 N620 1.326 . S
C619 C623 1.460 . S
C619 H625 0.929 . S
N620 Mn613 2.257 . S
N620 C619 1.326 . S
N620 C624 1.362 . S
C621 C622 1.258 . S
C621 C624 1.431 . S
C621 C641 1.449 . S
C622 C621 1.258 . S
C622 C623 1.477 . S
C622 H642 0.931 . S
C623 C619 1.460 . S
C623 C622 1.477 . S
C623 H643 0.930 . S
C624 N620 1.362 . S
C624 C621 1.431 . S
C624 C634 1.476 . S
H625 C619 0.929 . S
C626 O617 1.250 . S
C626 O618 1.258 . S
O627 Mn612 2.162 . S
O627 C615 1.281 . S
O628 Mn612 2.297 . S
O628 C615 1.236 . S
N629 Mn613 2.282 . S
N629 C630 1.328 . S
N629 C634 1.318 . S
C630 N629 1.328 . S
C630 C631 1.457 . S
C630 H635 0.929 . S
C631 C630 1.457 . S
C631 C632 1.291 . S
C631 H644 0.931 . S
C632 C631 1.291 . S
C632 C633 1.373 . S
C632 H645 0.929 . S
C633 C632 1.373 . S
C633 C634 1.396 . S
C633 C640 1.403 . S
C634 C624 1.476 . S
C634 N629 1.318 . S
C634 C633 1.396 . S
H635 C630 0.929 . S
O636 Mn612 2.385 . S
O636 C614 1.234 . S
O637 Mn612 2.209 . S
O637 Mn613 2.215 . S
O637 C614 1.283 . S
O638 Mn612 2.094 . S
O638 C616 1.240 . S
O639 Mn613 2.117 . S
O639 C616 1.264 . S
C640 C633 1.403 . S
C640 C641 1.399 . S
C640 H646 0.929 . S
C641 C621 1.449 . S
C641 C640 1.399 . S
C641 H647 0.930 . S
H642 C622 0.931 . S
H643 C623 0.930 . S
H644 C631 0.931 . S
H645 C632 0.929 . S
H646 C640 0.929 . S
H647 C641 0.930 . S
Mn648 O653 2.095 . S
Mn648 O663 2.171 . S
Mn648 O664 2.297 . S
Mn648 O672 2.385 1_554 S
Mn648 O673 2.209 . S
Mn648 O674 2.094 . S
Mn649 O654 2.121 . S
Mn649 N656 2.257 . S
Mn649 N665 2.282 . S
Mn649 O673 2.215 . S
Mn649 O675 2.117 . S
C650 O672 1.234 1_554 S
C650 O673 1.283 . S
C651 O663 1.287 . S
C651 O664 1.236 . S
C652 O674 1.240 . S
C652 O675 1.264 . S
O653 Mn648 2.095 . S
O653 C662 1.250 . S
O654 Mn649 2.121 . S
O654 C662 1.258 . S
C655 N656 1.326 . S
C655 C659 1.460 . S
C655 H661 0.929 . S
N656 Mn649 2.257 . S
N656 C655 1.326 . S
N656 C660 1.362 . S
C657 C658 1.258 . S
C657 C660 1.431 1_455 S
C657 C677 1.449 . S
C658 C657 1.258 . S
C658 C659 1.477 1_455 S
C658 H678 0.931 . S
C659 C655 1.460 . S
C659 C658 1.477 1_655 S
C659 H679 0.930 . S
C660 N656 1.362 . S
C660 C657 1.431 1_655 S
C660 C670 1.476 . S
H661 C655 0.929 . S
C662 O653 1.250 . S
C662 O654 1.258 . S
O663 Mn648 2.171 . S
O663 C651 1.287 . S
O664 Mn648 2.297 . S
O664 C651 1.236 . S
N665 Mn649 2.282 . S
N665 C666 1.328 . S
N665 C670 1.318 . S
C666 N665 1.328 . S
C666 C667 1.457 . S
C666 H671 0.929 . S
C667 C666 1.457 . S
C667 C668 1.291 1_655 S
C667 H680 0.931 1_554 S
C668 C667 1.291 1_455 S
C668 C669 1.373 . S
C668 H681 0.929 . S
C669 C668 1.373 . S
C669 C670 1.396 1_455 S
C669 C676 1.403 . S
C670 C660 1.476 . S
C670 N665 1.318 . S
C670 C669 1.396 1_655 S
H671 C666 0.929 . S
O672 Mn648 2.385 1_556 S
O672 C650 1.234 1_556 S
O673 Mn648 2.209 . S
O673 Mn649 2.215 . S
O673 C650 1.283 . S
O674 Mn648 2.094 . S
O674 C652 1.240 . S
O675 Mn649 2.117 . S
O675 C652 1.264 . S
C676 C669 1.403 . S
C676 C677 1.399 . S
C676 H682 0.929 . S
C677 C657 1.449 . S
C677 C676 1.399 . S
C677 H683 0.930 . S
H678 C658 0.931 . S
H679 C659 0.930 . S
H680 C667 0.931 1_556 S
H681 C668 0.929 . S
H682 C676 0.929 . S
H683 C677 0.930 . S
Mn684 O689 2.095 . S
Mn684 O699 2.162 . S
Mn684 O700 2.297 . S
Mn684 O708 2.385 . S
Mn684 O709 2.209 . S
Mn684 O710 2.094 . S
Mn685 O690 2.121 . S
Mn685 N692 2.257 . S
Mn685 N701 2.282 . S
Mn685 O709 2.215 . S
Mn685 O711 2.117 . S
C686 O708 1.234 . S
C686 O709 1.283 . S
C687 O699 1.281 . S
C687 O700 1.236 . S
C688 O710 1.240 . S
C688 O711 1.264 . S
O689 Mn684 2.095 . S
O689 C698 1.250 . S
O690 Mn685 2.121 . S
O690 C698 1.258 . S
C691 N692 1.326 . S
C691 C695 1.460 . S
C691 H697 0.929 . S
N692 Mn685 2.257 . S
N692 C691 1.326 . S
N692 C696 1.362 . S
C693 C694 1.258 . S
C693 C696 1.431 . S
C693 C713 1.449 . S
C694 C693 1.258 . S
C694 C695 1.477 . S
C694 H714 0.931 . S
C695 C691 1.460 . S
C695 C694 1.477 . S
C695 H715 0.930 . S
C696 N692 1.362 . S
C696 C693 1.431 . S
C696 C706 1.476 . S
H697 C691 0.929 . S
C698 O689 1.250 . S
C698 O690 1.258 . S
O699 Mn684 2.162 . S
O699 C687 1.281 . S
O700 Mn684 2.297 . S
O700 C687 1.236 . S
N701 Mn685 2.282 . S
N701 C702 1.328 . S
N701 C706 1.318 . S
C702 N701 1.328 . S
C702 C703 1.457 . S
C702 H707 0.929 . S
C703 C702 1.457 . S
C703 C704 1.291 . S
C703 H716 0.931 . S
C704 C703 1.291 . S
C704 C705 1.373 . S
C704 H717 0.929 . S
C705 C704 1.373 . S
C705 C706 1.396 . S
C705 C712 1.403 . S
C706 C696 1.476 . S
C706 N701 1.318 . S
C706 C705 1.396 . S
H707 C702 0.929 . S
O708 Mn684 2.385 . S
O708 C686 1.234 . S
O709 Mn684 2.209 . S
O709 Mn685 2.215 . S
O709 C686 1.283 . S
O710 Mn684 2.094 . S
O710 C688 1.240 . S
O711 Mn685 2.117 . S
O711 C688 1.264 . S
C712 C705 1.403 . S
C712 C713 1.399 . S
C712 H718 0.929 . S
C713 C693 1.449 . S
C713 C712 1.399 . S
C713 H719 0.930 . S
H714 C694 0.931 . S
H715 C695 0.930 . S
H716 C703 0.931 . S
H717 C704 0.929 . S
H718 C712 0.929 . S
H719 C713 0.930 . S
Mn720 O725 2.095 . S
Mn720 O735 2.162 . S
Mn720 O736 2.297 . S
Mn720 O744 2.385 . S
Mn720 O745 2.209 . S
Mn720 O746 2.094 . S
Mn721 O726 2.121 . S
Mn721 N728 2.257 . S
Mn721 N737 2.282 . S
Mn721 O745 2.215 . S
Mn721 O747 2.117 . S
C722 O744 1.234 . S
C722 O745 1.283 . S
C723 O735 1.281 . S
C723 O736 1.236 . S
C724 O746 1.240 . S
C724 O747 1.264 . S
O725 Mn720 2.095 . S
O725 C734 1.250 . S
O726 Mn721 2.121 . S
O726 C734 1.258 . S
C727 N728 1.326 . S
C727 C731 1.460 . S
C727 H733 0.929 . S
N728 Mn721 2.257 . S
N728 C727 1.326 . S
N728 C732 1.362 . S
C729 C730 1.258 . S
C729 C732 1.431 . S
C729 C749 1.449 . S
C730 C729 1.258 . S
C730 C731 1.477 . S
C730 H750 0.931 . S
C731 C727 1.460 . S
C731 C730 1.477 . S
C731 H751 0.930 . S
C732 N728 1.362 . S
C732 C729 1.431 . S
C732 C742 1.476 . S
H733 C727 0.929 . S
C734 O725 1.250 . S
C734 O726 1.258 . S
O735 Mn720 2.162 . S
O735 C723 1.281 . S
O736 Mn720 2.297 . S
O736 C723 1.236 . S
N737 Mn721 2.282 . S
N737 C738 1.328 . S
N737 C742 1.318 . S
C738 N737 1.328 . S
C738 C739 1.457 . S
C738 H743 0.929 . S
C739 C738 1.457 . S
C739 C740 1.291 . S
C739 H752 0.931 . S
C740 C739 1.291 . S
C740 C741 1.373 . S
C740 H753 0.929 . S
C741 C740 1.373 . S
C741 C742 1.396 . S
C741 C748 1.403 . S
C742 C732 1.476 . S
C742 N737 1.318 . S
C742 C741 1.396 . S
H743 C738 0.929 . S
O744 Mn720 2.385 . S
O744 C722 1.234 . S
O745 Mn720 2.209 . S
O745 Mn721 2.215 . S
O745 C722 1.283 . S
O746 Mn720 2.094 . S
O746 C724 1.240 . S
O747 Mn721 2.117 . S
O747 C724 1.264 . S
C748 C741 1.403 . S
C748 C749 1.399 . S
C748 H754 0.929 . S
C749 C729 1.449 . S
C749 C748 1.399 . S
C749 H755 0.930 . S
H750 C730 0.931 . S
H751 C731 0.930 . S
H752 C739 0.931 . S
H753 C740 0.929 . S
H754 C748 0.929 . S
H755 C749 0.930 . S
Mn756 O761 2.095 . S
Mn756 O771 2.162 . S
Mn756 O772 2.297 . S
Mn756 O780 2.385 . S
Mn756 O781 2.209 . S
Mn756 O782 2.094 . S
Mn757 O762 2.121 . S
Mn757 N764 2.257 . S
Mn757 N773 2.282 . S
Mn757 O781 2.215 . S
Mn757 O783 2.117 . S
C758 O780 1.234 . S
C758 O781 1.283 . S
C759 O771 1.281 . S
C759 O772 1.236 . S
C760 O782 1.240 . S
C760 O783 1.264 . S
O761 Mn756 2.095 . S
O761 C770 1.250 . S
O762 Mn757 2.121 . S
O762 C770 1.258 . S
C763 N764 1.326 . S
C763 C767 1.460 . S
C763 H769 0.929 . S
N764 Mn757 2.257 . S
N764 C763 1.326 . S
N764 C768 1.362 . S
C765 C766 1.258 . S
C765 C768 1.431 . S
C765 C785 1.449 . S
C766 C765 1.258 . S
C766 C767 1.477 . S
C766 H786 0.931 . S
C767 C763 1.460 . S
C767 C766 1.477 . S
C767 H787 0.930 . S
C768 N764 1.362 . S
C768 C765 1.431 . S
C768 C778 1.476 . S
H769 C763 0.929 . S
C770 O761 1.250 . S
C770 O762 1.258 . S
O771 Mn756 2.162 . S
O771 C759 1.281 . S
O772 Mn756 2.297 . S
O772 C759 1.236 . S
N773 Mn757 2.282 . S
N773 C774 1.328 . S
N773 C778 1.318 . S
C774 N773 1.328 . S
C774 C775 1.457 . S
C774 H779 0.929 . S
C775 C774 1.457 . S
C775 C776 1.291 . S
C775 H788 0.931 . S
C776 C775 1.291 . S
C776 C777 1.373 . S
C776 H789 0.929 . S
C777 C776 1.373 . S
C777 C778 1.396 . S
C777 C784 1.403 . S
C778 C768 1.476 . S
C778 N773 1.318 . S
C778 C777 1.396 . S
H779 C774 0.929 . S
O780 Mn756 2.385 . S
O780 C758 1.234 . S
O781 Mn756 2.209 . S
O781 Mn757 2.215 . S
O781 C758 1.283 . S
O782 Mn756 2.094 . S
O782 C760 1.240 . S
O783 Mn757 2.117 . S
O783 C760 1.264 . S
C784 C777 1.403 . S
C784 C785 1.399 . S
C784 H790 0.929 . S
C785 C765 1.449 . S
C785 C784 1.399 . S
C785 H791 0.930 . S
H786 C766 0.931 . S
H787 C767 0.930 . S
H788 C775 0.931 . S
H789 C776 0.929 . S
H790 C784 0.929 . S
H791 C785 0.930 . S
Mn792 O797 2.095 . S
Mn792 O807 2.171 . S
Mn792 O808 2.297 . S
Mn792 O816 2.385 1_556 S
Mn792 O817 2.209 . S
Mn792 O818 2.094 . S
Mn793 O798 2.121 . S
Mn793 N800 2.257 . S
Mn793 N809 2.282 . S
Mn793 O817 2.215 . S
Mn793 O819 2.117 . S
C794 O816 1.234 1_556 S
C794 O817 1.283 . S
C795 O807 1.287 . S
C795 O808 1.236 . S
C796 O818 1.240 . S
C796 O819 1.264 . S
O797 Mn792 2.095 . S
O797 C806 1.250 . S
O798 Mn793 2.121 . S
O798 C806 1.258 . S
C799 N800 1.326 . S
C799 C803 1.460 . S
C799 H805 0.929 . S
N800 Mn793 2.257 . S
N800 C799 1.326 . S
N800 C804 1.362 . S
C801 C802 1.258 . S
C801 C804 1.431 1_455 S
C801 C821 1.449 . S
C802 C801 1.258 . S
C802 C803 1.477 1_455 S
C802 H822 0.931 . S
C803 C799 1.460 . S
C803 C802 1.477 1_655 S
C803 H823 0.930 . S
C804 N800 1.362 . S
C804 C801 1.431 1_655 S
C804 C814 1.476 . S
H805 C799 0.929 . S
C806 O797 1.250 . S
C806 O798 1.258 . S
O807 Mn792 2.171 . S
O807 C795 1.287 . S
O808 Mn792 2.297 . S
O808 C795 1.236 . S
N809 Mn793 2.282 . S
N809 C810 1.328 . S
N809 C814 1.318 . S
C810 N809 1.328 . S
C810 C811 1.457 . S
C810 H815 0.929 . S
C811 C810 1.457 . S
C811 C812 1.291 1_655 S
C811 H824 0.931 1_556 S
C812 C811 1.291 1_455 S
C812 C813 1.373 . S
C812 H825 0.929 . S
C813 C812 1.373 . S
C813 C814 1.396 1_455 S
C813 C820 1.403 . S
C814 C804 1.476 . S
C814 N809 1.318 . S
C814 C813 1.396 1_655 S
H815 C810 0.929 . S
O816 Mn792 2.385 1_554 S
O816 C794 1.234 1_554 S
O817 Mn792 2.209 . S
O817 Mn793 2.215 . S
O817 C794 1.283 . S
O818 Mn792 2.094 . S
O818 C796 1.240 . S
O819 Mn793 2.117 . S
O819 C796 1.264 . S
C820 C813 1.403 . S
C820 C821 1.399 . S
C820 H826 0.929 . S
C821 C801 1.449 . S
C821 C820 1.399 . S
C821 H827 0.930 . S
H822 C802 0.931 . S
H823 C803 0.930 . S
H824 C811 0.931 1_554 S
H825 C812 0.929 . S
H826 C820 0.929 . S
H827 C821 0.930 . S
Mn828 O833 2.095 . S
Mn828 O843 2.162 . S
Mn828 O844 2.297 . S
Mn828 O852 2.385 . S
Mn828 O853 2.209 . S
Mn828 O854 2.094 . S
Mn829 O834 2.121 . S
Mn829 N836 2.257 . S
Mn829 N845 2.282 . S
Mn829 O853 2.215 . S
Mn829 O855 2.117 . S
C830 O852 1.234 . S
C830 O853 1.283 . S
C831 O843 1.281 . S
C831 O844 1.236 . S
C832 O854 1.240 . S
C832 O855 1.264 . S
O833 Mn828 2.095 . S
O833 C842 1.250 . S
O834 Mn829 2.121 . S
O834 C842 1.258 . S
C835 N836 1.326 . S
C835 C839 1.460 . S
C835 H841 0.929 . S
N836 Mn829 2.257 . S
N836 C835 1.326 . S
N836 C840 1.362 . S
C837 C838 1.258 . S
C837 C840 1.431 . S
C837 C857 1.449 . S
C838 C837 1.258 . S
C838 C839 1.477 . S
C838 H858 0.931 . S
C839 C835 1.460 . S
C839 C838 1.477 . S
C839 H859 0.930 . S
C840 N836 1.362 . S
C840 C837 1.431 . S
C840 C850 1.476 . S
H841 C835 0.929 . S
C842 O833 1.250 . S
C842 O834 1.258 . S
O843 Mn828 2.162 . S
O843 C831 1.281 . S
O844 Mn828 2.297 . S
O844 C831 1.236 . S
N845 Mn829 2.282 . S
N845 C846 1.328 . S
N845 C850 1.318 . S
C846 N845 1.328 . S
C846 C847 1.457 . S
C846 H851 0.929 . S
C847 C846 1.457 . S
C847 C848 1.291 . S
C847 H860 0.931 . S
C848 C847 1.291 . S
C848 C849 1.373 . S
C848 H861 0.929 . S
C849 C848 1.373 . S
C849 C850 1.396 . S
C849 C856 1.403 . S
C850 C840 1.476 . S
C850 N845 1.318 . S
C850 C849 1.396 . S
H851 C846 0.929 . S
O852 Mn828 2.385 . S
O852 C830 1.234 . S
O853 Mn828 2.209 . S
O853 Mn829 2.215 . S
O853 C830 1.283 . S
O854 Mn828 2.094 . S
O854 C832 1.240 . S
O855 Mn829 2.117 . S
O855 C832 1.264 . S
C856 C849 1.403 . S
C856 C857 1.399 . S
C856 H862 0.929 . S
C857 C837 1.449 . S
C857 C856 1.399 . S
C857 H863 0.930 . S
H858 C838 0.931 . S
H859 C839 0.930 . S
H860 C847 0.931 . S
H861 C848 0.929 . S
H862 C856 0.929 . S
H863 C857 0.930 . S
Mn864 O869 2.095 . S
Mn864 O879 2.162 . S
Mn864 O880 2.297 . S
Mn864 O888 2.385 . S
Mn864 O889 2.209 . S
Mn864 O890 2.094 . S
Mn865 O870 2.121 . S
Mn865 N872 2.257 . S
Mn865 N881 2.282 . S
Mn865 O889 2.215 . S
Mn865 O891 2.117 . S
C866 O888 1.234 . S
C866 O889 1.283 . S
C867 O879 1.281 . S
C867 O880 1.236 . S
C868 O890 1.240 . S
C868 O891 1.264 . S
O869 Mn864 2.095 . S
O869 C878 1.250 . S
O870 Mn865 2.121 . S
O870 C878 1.258 . S
C871 N872 1.326 . S
C871 C875 1.460 . S
C871 H877 0.929 . S
N872 Mn865 2.257 . S
N872 C871 1.326 . S
N872 C876 1.362 . S
C873 C874 1.258 . S
C873 C876 1.431 . S
C873 C893 1.449 . S
C874 C873 1.258 . S
C874 C875 1.477 . S
C874 H894 0.931 . S
C875 C871 1.460 . S
C875 C874 1.477 . S
C875 H895 0.930 . S
C876 N872 1.362 . S
C876 C873 1.431 . S
C876 C886 1.476 . S
H877 C871 0.929 . S
C878 O869 1.250 . S
C878 O870 1.258 . S
O879 Mn864 2.162 . S
O879 C867 1.281 . S
O880 Mn864 2.297 . S
O880 C867 1.236 . S
N881 Mn865 2.282 . S
N881 C882 1.328 . S
N881 C886 1.318 . S
C882 N881 1.328 . S
C882 C883 1.457 . S
C882 H887 0.929 . S
C883 C882 1.457 . S
C883 C884 1.291 . S
C883 H896 0.931 . S
C884 C883 1.291 . S
C884 C885 1.373 . S
C884 H897 0.929 . S
C885 C884 1.373 . S
C885 C886 1.396 . S
C885 C892 1.403 . S
C886 C876 1.476 . S
C886 N881 1.318 . S
C886 C885 1.396 . S
H887 C882 0.929 . S
O888 Mn864 2.385 . S
O888 C866 1.234 . S
O889 Mn864 2.209 . S
O889 Mn865 2.215 . S
O889 C866 1.283 . S
O890 Mn864 2.094 . S
O890 C868 1.240 . S
O891 Mn865 2.117 . S
O891 C868 1.264 . S
C892 C885 1.403 . S
C892 C893 1.399 . S
C892 H898 0.929 . S
C893 C873 1.449 . S
C893 C892 1.399 . S
C893 H899 0.930 . S
H894 C874 0.931 . S
H895 C875 0.930 . S
H896 C883 0.931 . S
H897 C884 0.929 . S
H898 C892 0.929 . S
H899 C893 0.930 . S
Mn900 O905 2.095 . S
Mn900 O915 2.162 . S
Mn900 O916 2.297 . S
Mn900 O924 2.385 . S
Mn900 O925 2.209 . S
Mn900 O926 2.094 . S
Mn901 O906 2.121 . S
Mn901 N908 2.257 . S
Mn901 N917 2.282 . S
Mn901 O925 2.215 . S
Mn901 O927 2.117 . S
C902 O924 1.234 . S
C902 O925 1.283 . S
C903 O915 1.281 . S
C903 O916 1.236 . S
C904 O926 1.240 . S
C904 O927 1.264 . S
O905 Mn900 2.095 . S
O905 C914 1.250 . S
O906 Mn901 2.121 . S
O906 C914 1.258 . S
C907 N908 1.326 . S
C907 C911 1.460 . S
C907 H913 0.929 . S
N908 Mn901 2.257 . S
N908 C907 1.326 . S
N908 C912 1.362 . S
C909 C910 1.258 . S
C909 C912 1.431 . S
C909 C929 1.449 . S
C910 C909 1.258 . S
C910 C911 1.477 . S
C910 H930 0.931 . S
C911 C907 1.460 . S
C911 C910 1.477 . S
C911 H931 0.930 . S
C912 N908 1.362 . S
C912 C909 1.431 . S
C912 C922 1.476 . S
H913 C907 0.929 . S
C914 O905 1.250 . S
C914 O906 1.258 . S
O915 Mn900 2.162 . S
O915 C903 1.281 . S
O916 Mn900 2.297 . S
O916 C903 1.236 . S
N917 Mn901 2.282 . S
N917 C918 1.328 . S
N917 C922 1.318 . S
C918 N917 1.328 . S
C918 C919 1.457 . S
C918 H923 0.929 . S
C919 C918 1.457 . S
C919 C920 1.291 . S
C919 H932 0.931 . S
C920 C919 1.291 . S
C920 C921 1.373 . S
C920 H933 0.929 . S
C921 C920 1.373 . S
C921 C922 1.396 . S
C921 C928 1.403 . S
C922 C912 1.476 . S
C922 N917 1.318 . S
C922 C921 1.396 . S
H923 C918 0.929 . S
O924 Mn900 2.385 . S
O924 C902 1.234 . S
O925 Mn900 2.209 . S
O925 Mn901 2.215 . S
O925 C902 1.283 . S
O926 Mn900 2.094 . S
O926 C904 1.240 . S
O927 Mn901 2.117 . S
O927 C904 1.264 . S
C928 C921 1.403 . S
C928 C929 1.399 . S
C928 H934 0.929 . S
C929 C909 1.449 . S
C929 C928 1.399 . S
C929 H935 0.930 . S
H930 C910 0.931 . S
H931 C911 0.930 . S
H932 C919 0.931 . S
H933 C920 0.929 . S
H934 C928 0.929 . S
H935 C929 0.930 . S
Mn936 O941 2.095 . S
Mn936 O951 2.171 . S
Mn936 O952 2.297 . S
Mn936 O960 2.385 1_556 S
Mn936 O961 2.209 . S
Mn936 O962 2.094 . S
Mn937 O942 2.121 . S
Mn937 N944 2.257 . S
Mn937 N953 2.282 . S
Mn937 O961 2.215 . S
Mn937 O963 2.117 . S
C938 O960 1.234 1_556 S
C938 O961 1.283 . S
C939 O951 1.287 . S
C939 O952 1.236 . S
C940 O962 1.240 . S
C940 O963 1.264 . S
O941 Mn936 2.095 . S
O941 C950 1.250 . S
O942 Mn937 2.121 . S
O942 C950 1.258 . S
C943 N944 1.326 . S
C943 C947 1.460 . S
C943 H949 0.929 . S
N944 Mn937 2.257 . S
N944 C943 1.326 . S
N944 C948 1.362 . S
C945 C946 1.258 . S
C945 C948 1.431 1_655 S
C945 C965 1.449 . S
C946 C945 1.258 . S
C946 C947 1.477 1_655 S
C946 H966 0.931 . S
C947 C943 1.460 . S
C947 C946 1.477 1_455 S
C947 H967 0.930 . S
C948 N944 1.362 . S
C948 C945 1.431 1_455 S
C948 C958 1.476 . S
H949 C943 0.929 . S
C950 O941 1.250 . S
C950 O942 1.258 . S
O951 Mn936 2.171 . S
O951 C939 1.287 . S
O952 Mn936 2.297 . S
O952 C939 1.236 . S
N953 Mn937 2.282 . S
N953 C954 1.328 . S
N953 C958 1.318 . S
C954 N953 1.328 . S
C954 C955 1.457 . S
C954 H959 0.929 . S
C955 C954 1.457 . S
C955 C956 1.291 1_455 S
C955 H968 0.931 1_556 S
C956 C955 1.291 1_655 S
C956 C957 1.373 . S
C956 H969 0.929 . S
C957 C956 1.373 . S
C957 C958 1.396 1_655 S
C957 C964 1.403 . S
C958 C948 1.476 . S
C958 N953 1.318 . S
C958 C957 1.396 1_455 S
H959 C954 0.929 . S
O960 Mn936 2.385 1_554 S
O960 C938 1.234 1_554 S
O961 Mn936 2.209 . S
O961 Mn937 2.215 . S
O961 C938 1.283 . S
O962 Mn936 2.094 . S
O962 C940 1.240 . S
O963 Mn937 2.117 . S
O963 C940 1.264 . S
C964 C957 1.403 . S
C964 C965 1.399 . S
C964 H970 0.929 . S
C965 C945 1.449 . S
C965 C964 1.399 . S
C965 H971 0.930 . S
H966 C946 0.931 . S
H967 C947 0.930 . S
H968 C955 0.931 1_554 S
H969 C956 0.929 . S
H970 C964 0.929 . S
H971 C965 0.930 . S
Mn972 O977 2.095 . S
Mn972 O987 2.162 . S
Mn972 O988 2.297 . S
Mn972 O996 2.385 . S
Mn972 O997 2.209 . S
Mn972 O998 2.094 . S
Mn973 O978 2.121 . S
Mn973 N980 2.257 . S
Mn973 N989 2.282 . S
Mn973 O997 2.215 . S
Mn973 O999 2.117 . S
C974 O996 1.234 . S
C974 O997 1.283 . S
C975 O987 1.281 . S
C975 O988 1.236 . S
C976 O998 1.240 . S
C976 O999 1.264 . S
O977 Mn972 2.095 . S
O977 C986 1.250 . S
O978 Mn973 2.121 . S
O978 C986 1.258 . S
C979 N980 1.326 . S
C979 C983 1.460 . S
C979 H985 0.929 . S
N980 Mn973 2.257 . S
N980 C979 1.326 . S
N980 C984 1.362 . S
C981 C982 1.258 . S
C981 C984 1.431 . S
C981 C1001 1.449 . S
C982 C981 1.258 . S
C982 C983 1.477 . S
C982 H1002 0.931 . S
C983 C979 1.460 . S
C983 C982 1.477 . S
C983 H1003 0.930 . S
C984 N980 1.362 . S
C984 C981 1.431 . S
C984 C994 1.476 . S
H985 C979 0.929 . S
C986 O977 1.250 . S
C986 O978 1.258 . S
O987 Mn972 2.162 . S
O987 C975 1.281 . S
O988 Mn972 2.297 . S
O988 C975 1.236 . S
N989 Mn973 2.282 . S
N989 C990 1.328 . S
N989 C994 1.318 . S
C990 N989 1.328 . S
C990 C991 1.457 . S
C990 H995 0.929 . S
C991 C990 1.457 . S
C991 C992 1.291 . S
C991 H1004 0.931 . S
C992 C991 1.291 . S
C992 C993 1.373 . S
C992 H1005 0.929 . S
C993 C992 1.373 . S
C993 C994 1.396 . S
C993 C1000 1.403 . S
C994 C984 1.476 . S
C994 N989 1.318 . S
C994 C993 1.396 . S
H995 C990 0.929 . S
O996 Mn972 2.385 . S
O996 C974 1.234 . S
O997 Mn972 2.209 . S
O997 Mn973 2.215 . S
O997 C974 1.283 . S
O998 Mn972 2.094 . S
O998 C976 1.240 . S
O999 Mn973 2.117 . S
O999 C976 1.264 . S
C1000 C993 1.403 . S
C1000 C1001 1.399 . S
C1000 H1006 0.929 . S
C1001 C981 1.449 . S
C1001 C1000 1.399 . S
C1001 H1007 0.930 . S
H1002 C982 0.931 . S
H1003 C983 0.930 . S
H1004 C991 0.931 . S
H1005 C992 0.929 . S
H1006 C1000 0.929 . S
H1007 C1001 0.930 . S
Mn1008 O1013 2.095 . S
Mn1008 O1023 2.162 . S
Mn1008 O1024 2.297 . S
Mn1008 O1032 2.385 . S
Mn1008 O1033 2.209 . S
Mn1008 O1034 2.094 . S
Mn1009 O1014 2.121 . S
Mn1009 N1016 2.257 . S
Mn1009 N1025 2.282 . S
Mn1009 O1033 2.215 . S
Mn1009 O1035 2.117 . S
C1010 O1032 1.234 . S
C1010 O1033 1.283 . S
C1011 O1023 1.281 . S
C1011 O1024 1.236 . S
C1012 O1034 1.240 . S
C1012 O1035 1.264 . S
O1013 Mn1008 2.095 . S
O1013 C1022 1.250 . S
O1014 Mn1009 2.121 . S
O1014 C1022 1.258 . S
C1015 N1016 1.326 . S
C1015 C1019 1.460 . S
C1015 H1021 0.929 . S
N1016 Mn1009 2.257 . S
N1016 C1015 1.326 . S
N1016 C1020 1.362 . S
C1017 C1018 1.258 . S
C1017 C1020 1.431 . S
C1017 C1037 1.449 . S
C1018 C1017 1.258 . S
C1018 C1019 1.477 . S
C1018 H1038 0.931 . S
C1019 C1015 1.460 . S
C1019 C1018 1.477 . S
C1019 H1039 0.930 . S
C1020 N1016 1.362 . S
C1020 C1017 1.431 . S
C1020 C1030 1.476 . S
H1021 C1015 0.929 . S
C1022 O1013 1.250 . S
C1022 O1014 1.258 . S
O1023 Mn1008 2.162 . S
O1023 C1011 1.281 . S
O1024 Mn1008 2.297 . S
O1024 C1011 1.236 . S
N1025 Mn1009 2.282 . S
N1025 C1026 1.328 . S
N1025 C1030 1.318 . S
C1026 N1025 1.328 . S
C1026 C1027 1.457 . S
C1026 H1031 0.929 . S
C1027 C1026 1.457 . S
C1027 C1028 1.291 . S
C1027 H1040 0.931 . S
C1028 C1027 1.291 . S
C1028 C1029 1.373 . S
C1028 H1041 0.929 . S
C1029 C1028 1.373 . S
C1029 C1030 1.396 . S
C1029 C1036 1.403 . S
C1030 C1020 1.476 . S
C1030 N1025 1.318 . S
C1030 C1029 1.396 . S
H1031 C1026 0.929 . S
O1032 Mn1008 2.385 . S
O1032 C1010 1.234 . S
O1033 Mn1008 2.209 . S
O1033 Mn1009 2.215 . S
O1033 C1010 1.283 . S
O1034 Mn1008 2.094 . S
O1034 C1012 1.240 . S
O1035 Mn1009 2.117 . S
O1035 C1012 1.264 . S
C1036 C1029 1.403 . S
C1036 C1037 1.399 . S
C1036 H1042 0.929 . S
C1037 C1017 1.449 . S
C1037 C1036 1.399 . S
C1037 H1043 0.930 . S
H1038 C1018 0.931 . S
H1039 C1019 0.930 . S
H1040 C1027 0.931 . S
H1041 C1028 0.929 . S
H1042 C1036 0.929 . S
H1043 C1037 0.930 . S
Mn1044 O1049 2.095 . S
Mn1044 O1059 2.162 . S
Mn1044 O1060 2.297 . S
Mn1044 O1068 2.385 . S
Mn1044 O1069 2.209 . S
Mn1044 O1070 2.094 . S
Mn1045 O1050 2.121 . S
Mn1045 N1052 2.257 . S
Mn1045 N1061 2.282 . S
Mn1045 O1069 2.215 . S
Mn1045 O1071 2.117 . S
C1046 O1068 1.234 . S
C1046 O1069 1.283 . S
C1047 O1059 1.281 . S
C1047 O1060 1.236 . S
C1048 O1070 1.240 . S
C1048 O1071 1.264 . S
O1049 Mn1044 2.095 . S
O1049 C1058 1.250 . S
O1050 Mn1045 2.121 . S
O1050 C1058 1.258 . S
C1051 N1052 1.326 . S
C1051 C1055 1.460 . S
C1051 H1057 0.929 . S
N1052 Mn1045 2.257 . S
N1052 C1051 1.326 . S
N1052 C1056 1.362 . S
C1053 C1054 1.258 . S
C1053 C1056 1.431 . S
C1053 C1073 1.449 . S
C1054 C1053 1.258 . S
C1054 C1055 1.477 . S
C1054 H1074 0.931 . S
C1055 C1051 1.460 . S
C1055 C1054 1.477 . S
C1055 H1075 0.930 . S
C1056 N1052 1.362 . S
C1056 C1053 1.431 . S
C1056 C1066 1.476 . S
H1057 C1051 0.929 . S
C1058 O1049 1.250 . S
C1058 O1050 1.258 . S
O1059 Mn1044 2.162 . S
O1059 C1047 1.281 . S
O1060 Mn1044 2.297 . S
O1060 C1047 1.236 . S
N1061 Mn1045 2.282 . S
N1061 C1062 1.328 . S
N1061 C1066 1.318 . S
C1062 N1061 1.328 . S
C1062 C1063 1.457 . S
C1062 H1067 0.929 . S
C1063 C1062 1.457 . S
C1063 C1064 1.291 . S
C1063 H1076 0.931 . S
C1064 C1063 1.291 . S
C1064 C1065 1.373 . S
C1064 H1077 0.929 . S
C1065 C1064 1.373 . S
C1065 C1066 1.396 . S
C1065 C1072 1.403 . S
C1066 C1056 1.476 . S
C1066 N1061 1.318 . S
C1066 C1065 1.396 . S
H1067 C1062 0.929 . S
O1068 Mn1044 2.385 . S
O1068 C1046 1.234 . S
O1069 Mn1044 2.209 . S
O1069 Mn1045 2.215 . S
O1069 C1046 1.283 . S
O1070 Mn1044 2.094 . S
O1070 C1048 1.240 . S
O1071 Mn1045 2.117 . S
O1071 C1048 1.264 . S
C1072 C1065 1.403 . S
C1072 C1073 1.399 . S
C1072 H1078 0.929 . S
C1073 C1053 1.449 . S
C1073 C1072 1.399 . S
C1073 H1079 0.930 . S
H1074 C1054 0.931 . S
H1075 C1055 0.930 . S
H1076 C1063 0.931 . S
H1077 C1064 0.929 . S
H1078 C1072 0.929 . S
H1079 C1073 0.930 . S
Mn1080 O1085 2.095 . S
Mn1080 O1095 2.171 . S
Mn1080 O1096 2.297 . S
Mn1080 O1104 2.385 1_554 S
Mn1080 O1105 2.209 . S
Mn1080 O1106 2.094 . S
Mn1081 O1086 2.121 . S
Mn1081 N1088 2.257 . S
Mn1081 N1097 2.282 . S
Mn1081 O1105 2.215 . S
Mn1081 O1107 2.117 . S
C1082 O1104 1.234 1_554 S
C1082 O1105 1.283 . S
C1083 O1095 1.287 . S
C1083 O1096 1.236 . S
C1084 O1106 1.240 . S
C1084 O1107 1.264 . S
O1085 Mn1080 2.095 . S
O1085 C1094 1.250 . S
O1086 Mn1081 2.121 . S
O1086 C1094 1.258 . S
C1087 N1088 1.326 . S
C1087 C1091 1.460 . S
C1087 H1093 0.929 . S
N1088 Mn1081 2.257 . S
N1088 C1087 1.326 . S
N1088 C1092 1.362 . S
C1089 C1090 1.258 . S
C1089 C1092 1.431 1_655 S
C1089 C1109 1.449 . S
C1090 C1089 1.258 . S
C1090 C1091 1.477 1_655 S
C1090 H1110 0.931 . S
C1091 C1087 1.460 . S
C1091 C1090 1.477 1_455 S
C1091 H1111 0.930 . S
C1092 N1088 1.362 . S
C1092 C1089 1.431 1_455 S
C1092 C1102 1.476 . S
H1093 C1087 0.929 . S
C1094 O1085 1.250 . S
C1094 O1086 1.258 . S
O1095 Mn1080 2.171 . S
O1095 C1083 1.287 . S
O1096 Mn1080 2.297 . S
O1096 C1083 1.236 . S
N1097 Mn1081 2.282 . S
N1097 C1098 1.328 . S
N1097 C1102 1.318 . S
C1098 N1097 1.328 . S
C1098 C1099 1.457 . S
C1098 H1103 0.929 . S
C1099 C1098 1.457 . S
C1099 C1100 1.291 1_455 S
C1099 H1112 0.931 1_554 S
C1100 C1099 1.291 1_655 S
C1100 C1101 1.373 . S
C1100 H1113 0.929 . S
C1101 C1100 1.373 . S
C1101 C1102 1.396 1_655 S
C1101 C1108 1.403 . S
C1102 C1092 1.476 . S
C1102 N1097 1.318 . S
C1102 C1101 1.396 1_455 S
H1103 C1098 0.929 . S
O1104 Mn1080 2.385 1_556 S
O1104 C1082 1.234 1_556 S
O1105 Mn1080 2.209 . S
O1105 Mn1081 2.215 . S
O1105 C1082 1.283 . S
O1106 Mn1080 2.094 . S
O1106 C1084 1.240 . S
O1107 Mn1081 2.117 . S
O1107 C1084 1.264 . S
C1108 C1101 1.403 . S
C1108 C1109 1.399 . S
C1108 H1114 0.929 . S
C1109 C1089 1.449 . S
C1109 C1108 1.399 . S
C1109 H1115 0.930 . S
H1110 C1090 0.931 . S
H1111 C1091 0.930 . S
H1112 C1099 0.931 1_556 S
H1113 C1100 0.929 . S
H1114 C1108 0.929 . S
H1115 C1109 0.930 . S
Mn1116 O1121 2.095 . S
Mn1116 O1131 2.162 . S
Mn1116 O1132 2.297 . S
Mn1116 O1140 2.385 . S
Mn1116 O1141 2.209 . S
Mn1116 O1142 2.094 . S
Mn1117 O1122 2.121 . S
Mn1117 N1124 2.257 . S
Mn1117 N1133 2.282 . S
Mn1117 O1141 2.215 . S
Mn1117 O1143 2.117 . S
C1118 O1140 1.234 . S
C1118 O1141 1.283 . S
C1119 O1131 1.281 . S
C1119 O1132 1.236 . S
C1120 O1142 1.240 . S
C1120 O1143 1.264 . S
O1121 Mn1116 2.095 . S
O1121 C1130 1.250 . S
O1122 Mn1117 2.121 . S
O1122 C1130 1.258 . S
C1123 N1124 1.326 . S
C1123 C1127 1.460 . S
C1123 H1129 0.929 . S
N1124 Mn1117 2.257 . S
N1124 C1123 1.326 . S
N1124 C1128 1.362 . S
C1125 C1126 1.258 . S
C1125 C1128 1.431 . S
C1125 C1145 1.449 . S
C1126 C1125 1.258 . S
C1126 C1127 1.477 . S
C1126 H1146 0.931 . S
C1127 C1123 1.460 . S
C1127 C1126 1.477 . S
C1127 H1147 0.930 . S
C1128 N1124 1.362 . S
C1128 C1125 1.431 . S
C1128 C1138 1.476 . S
H1129 C1123 0.929 . S
C1130 O1121 1.250 . S
C1130 O1122 1.258 . S
O1131 Mn1116 2.162 . S
O1131 C1119 1.281 . S
O1132 Mn1116 2.297 . S
O1132 C1119 1.236 . S
N1133 Mn1117 2.282 . S
N1133 C1134 1.328 . S
N1133 C1138 1.318 . S
C1134 N1133 1.328 . S
C1134 C1135 1.457 . S
C1134 H1139 0.929 . S
C1135 C1134 1.457 . S
C1135 C1136 1.291 . S
C1135 H1148 0.931 . S
C1136 C1135 1.291 . S
C1136 C1137 1.373 . S
C1136 H1149 0.929 . S
C1137 C1136 1.373 . S
C1137 C1138 1.396 . S
C1137 C1144 1.403 . S
C1138 C1128 1.476 . S
C1138 N1133 1.318 . S
C1138 C1137 1.396 . S
H1139 C1134 0.929 . S
O1140 Mn1116 2.385 . S
O1140 C1118 1.234 . S
O1141 Mn1116 2.209 . S
O1141 Mn1117 2.215 . S
O1141 C1118 1.283 . S
O1142 Mn1116 2.094 . S
O1142 C1120 1.240 . S
O1143 Mn1117 2.117 . S
O1143 C1120 1.264 . S
C1144 C1137 1.403 . S
C1144 C1145 1.399 . S
C1144 H1150 0.929 . S
C1145 C1125 1.449 . S
C1145 C1144 1.399 . S
C1145 H1151 0.930 . S
H1146 C1126 0.931 . S
H1147 C1127 0.930 . S
H1148 C1135 0.931 . S
H1149 C1136 0.929 . S
H1150 C1144 0.929 . S
H1151 C1145 0.930 . S
C1152 C1153 1.387 . S
C1152 H1156 0.950 . S
C1152 C1161 1.390 . S
C1153 C1152 1.387 . S
C1153 C1155 1.387 . S
H1154 C1161 0.950 . S
C1155 C1153 1.387 . S
C1155 C1157 1.390 . S
C1155 H1159 0.950 . S
H1156 C1152 0.950 . S
C1157 C1155 1.390 . S
C1157 C1158 1.387 . S
C1157 H1160 0.950 . S
C1158 C1157 1.387 . S
C1158 C1161 1.387 . S
H1159 C1155 0.950 . S
H1160 C1157 0.950 . S
C1161 C1152 1.390 . S
C1161 H1154 0.950 . S
C1161 C1158 1.387 . S
C1162 C1163 1.387 . S
C1162 H1166 0.950 . S
C1162 C1171 1.390 . S
C1163 C1162 1.387 . S
C1163 C1165 1.387 . S
H1164 C1171 0.950 . S
C1165 C1163 1.387 . S
C1165 C1167 1.390 . S
C1165 H1169 0.950 . S
H1166 C1162 0.950 . S
C1167 C1165 1.390 . S
C1167 C1168 1.387 . S
C1167 H1170 0.950 . S
C1168 C1167 1.387 . S
C1168 C1171 1.387 . S
H1169 C1165 0.950 . S
H1170 C1167 0.950 . S
C1171 C1162 1.390 . S
C1171 H1164 0.950 . S
C1171 C1168 1.387 . S
C1172 C1173 1.387 . S
C1172 H1176 0.950 . S
C1172 C1181 1.390 . S
C1173 C1172 1.387 . S
C1173 C1175 1.387 . S
H1174 C1181 0.950 . S
C1175 C1173 1.387 . S
C1175 C1177 1.390 . S
C1175 H1179 0.950 . S
H1176 C1172 0.950 . S
C1177 C1175 1.390 . S
C1177 C1178 1.387 . S
C1177 H1180 0.950 . S
C1178 C1177 1.387 . S
C1178 C1181 1.387 . S
H1179 C1175 0.950 . S
H1180 C1177 0.950 . S
C1181 C1172 1.390 . S
C1181 H1174 0.950 . S
C1181 C1178 1.387 . S
C1182 C1183 1.387 . S
C1182 H1186 0.950 . S
C1182 C1191 1.390 . S
C1183 C1182 1.387 . S
C1183 C1185 1.387 . S
H1184 C1191 0.950 . S
C1185 C1183 1.387 . S
C1185 C1187 1.390 . S
C1185 H1189 0.950 . S
H1186 C1182 0.950 . S
C1187 C1185 1.390 . S
C1187 C1188 1.387 . S
C1187 H1190 0.950 . S
C1188 C1187 1.387 . S
C1188 C1191 1.387 . S
H1189 C1185 0.950 . S
H1190 C1187 0.950 . S
C1191 C1182 1.390 . S
C1191 H1184 0.950 . S
C1191 C1188 1.387 . S
C1192 C1193 1.387 . S
C1192 H1196 0.950 . S
C1192 C1201 1.390 . S
C1193 C1192 1.387 . S
C1193 C1195 1.387 . S
H1194 C1201 0.950 . S
C1195 C1193 1.387 . S
C1195 C1197 1.390 . S
C1195 H1199 0.950 . S
H1196 C1192 0.950 . S
C1197 C1195 1.390 . S
C1197 C1198 1.387 . S
C1197 H1200 0.950 . S
C1198 C1197 1.387 . S
C1198 C1201 1.387 . S
H1199 C1195 0.950 . S
H1200 C1197 0.950 . S
C1201 C1192 1.390 . S
C1201 H1194 0.950 . S
C1201 C1198 1.387 . S
C1202 C1203 1.387 . S
C1202 H1206 0.950 . S
C1202 C1211 1.390 . S
C1203 C1202 1.387 . S
C1203 C1205 1.387 . S
H1204 C1211 0.950 . S
C1205 C1203 1.387 . S
C1205 C1207 1.390 . S
C1205 H1209 0.950 . S
H1206 C1202 0.950 . S
C1207 C1205 1.390 . S
C1207 C1208 1.387 . S
C1207 H1210 0.950 . S
C1208 C1207 1.387 . S
C1208 C1211 1.387 . S
H1209 C1205 0.950 . S
H1210 C1207 0.950 . S
C1211 C1202 1.390 . S
C1211 H1204 0.950 . S
C1211 C1208 1.387 . S
C1212 C1213 1.387 . S
C1212 H1216 0.950 . S
C1212 C1221 1.390 . S
C1213 C1212 1.387 . S
C1213 C1215 1.387 . S
H1214 C1221 0.950 . S
C1215 C1213 1.387 . S
C1215 C1217 1.390 . S
C1215 H1219 0.950 . S
H1216 C1212 0.950 . S
C1217 C1215 1.390 . S
C1217 C1218 1.387 . S
C1217 H1220 0.950 . S
C1218 C1217 1.387 . S
C1218 C1221 1.387 . S
H1219 C1215 0.950 . S
H1220 C1217 0.950 . S
C1221 C1212 1.390 . S
C1221 H1214 0.950 . S
C1221 C1218 1.387 . S
C1222 C1223 1.387 . S
C1222 H1226 0.950 . S
C1222 C1231 1.390 . S
C1223 C1222 1.387 . S
C1223 C1225 1.387 . S
H1224 C1231 0.950 . S
C1225 C1223 1.387 . S
C1225 C1227 1.390 . S
C1225 H1229 0.950 . S
H1226 C1222 0.950 . S
C1227 C1225 1.390 . S
C1227 C1228 1.387 . S
C1227 H1230 0.950 . S
C1228 C1227 1.387 . S
C1228 C1231 1.387 . S
H1229 C1225 0.950 . S
H1230 C1227 0.950 . S
C1231 C1222 1.390 . S
C1231 H1224 0.950 . S
C1231 C1228 1.387 . S
C1232 C1233 1.387 . S
C1232 H1236 0.950 . S
C1232 C1241 1.390 . S
C1233 C1232 1.387 . S
C1233 C1235 1.387 . S
H1234 C1241 0.950 . S
C1235 C1233 1.387 . S
C1235 C1237 1.390 . S
C1235 H1239 0.950 . S
H1236 C1232 0.950 . S
C1237 C1235 1.390 . S
C1237 C1238 1.387 . S
C1237 H1240 0.950 . S
C1238 C1237 1.387 . S
C1238 C1241 1.387 . S
H1239 C1235 0.950 . S
H1240 C1237 0.950 . S
C1241 C1232 1.390 . S
C1241 H1234 0.950 . S
C1241 C1238 1.387 . S
C1242 C1243 1.387 . S
C1242 H1246 0.950 . S
C1242 C1251 1.390 . S
C1243 C1242 1.387 . S
C1243 C1245 1.387 . S
H1244 C1251 0.950 . S
C1245 C1243 1.387 . S
C1245 C1247 1.390 . S
C1245 H1249 0.950 . S
H1246 C1242 0.950 . S
C1247 C1245 1.390 . S
C1247 C1248 1.387 . S
C1247 H1250 0.950 . S
C1248 C1247 1.387 . S
C1248 C1251 1.387 . S
H1249 C1245 0.950 . S
H1250 C1247 0.950 . S
C1251 C1242 1.390 . S
C1251 H1244 0.950 . S
C1251 C1248 1.387 . S
C1252 C1253 1.387 . S
C1252 H1256 0.950 . S
C1252 C1261 1.390 . S
C1253 C1252 1.387 . S
C1253 C1255 1.387 . S
H1254 C1261 0.950 . S
C1255 C1253 1.387 . S
C1255 C1257 1.390 . S
C1255 H1259 0.950 . S
H1256 C1252 0.950 . S
C1257 C1255 1.390 . S
C1257 C1258 1.387 . S
C1257 H1260 0.950 . S
C1258 C1257 1.387 . S
C1258 C1261 1.387 . S
H1259 C1255 0.950 . S
H1260 C1257 0.950 . S
C1261 C1252 1.390 . S
C1261 H1254 0.950 . S
C1261 C1258 1.387 . S
C1262 C1263 1.387 . S
C1262 H1266 0.950 . S
C1262 C1271 1.390 . S
C1263 C1262 1.387 . S
C1263 C1265 1.387 . S
H1264 C1271 0.950 . S
C1265 C1263 1.387 . S
C1265 C1267 1.390 . S
C1265 H1269 0.950 . S
H1266 C1262 0.950 . S
C1267 C1265 1.390 . S
C1267 C1268 1.387 . S
C1267 H1270 0.950 . S
C1268 C1267 1.387 . S
C1268 C1271 1.387 . S
H1269 C1265 0.950 . S
H1270 C1267 0.950 . S
C1271 C1262 1.390 . S
C1271 H1264 0.950 . S
C1271 C1268 1.387 . S
C1272 C1273 1.387 . S
C1272 H1276 0.950 . S
C1272 C1281 1.390 . S
C1273 C1272 1.387 . S
C1273 C1275 1.387 . S
H1274 C1281 0.950 . S
C1275 C1273 1.387 . S
C1275 C1277 1.390 . S
C1275 H1279 0.950 . S
H1276 C1272 0.950 . S
C1277 C1275 1.390 . S
C1277 C1278 1.387 . S
C1277 H1280 0.950 . S
C1278 C1277 1.387 . S
C1278 C1281 1.387 . S
H1279 C1275 0.950 . S
H1280 C1277 0.950 . S
C1281 C1272 1.390 . S
C1281 H1274 0.950 . S
C1281 C1278 1.387 . S
C1282 C1283 1.387 . S
C1282 H1286 0.950 . S
C1282 C1291 1.390 . S
C1283 C1282 1.387 . S
C1283 C1285 1.387 . S
H1284 C1291 0.950 . S
C1285 C1283 1.387 . S
C1285 C1287 1.390 . S
C1285 H1289 0.950 . S
H1286 C1282 0.950 . S
C1287 C1285 1.390 . S
C1287 C1288 1.387 . S
C1287 H1290 0.950 . S
C1288 C1287 1.387 . S
C1288 C1291 1.387 . S
H1289 C1285 0.950 . S
H1290 C1287 0.950 . S
C1291 C1282 1.390 . S
C1291 H1284 0.950 . S
C1291 C1288 1.387 . S
C1292 C1293 1.387 . S
C1292 H1296 0.950 . S
C1292 C1301 1.390 . S
C1293 C1292 1.387 . S
C1293 C1295 1.387 . S
H1294 C1301 0.950 . S
C1295 C1293 1.387 . S
C1295 C1297 1.390 . S
C1295 H1299 0.950 . S
H1296 C1292 0.950 . S
C1297 C1295 1.390 . S
C1297 C1298 1.387 . S
C1297 H1300 0.950 . S
C1298 C1297 1.387 . S
C1298 C1301 1.387 . S
H1299 C1295 0.950 . S
H1300 C1297 0.950 . S
C1301 C1292 1.390 . S
C1301 H1294 0.950 . S
C1301 C1298 1.387 . S
C1302 C1303 1.387 . S
C1302 H1306 0.950 . S
C1302 C1311 1.390 . S
C1303 C1302 1.387 . S
C1303 C1305 1.387 . S
H1304 C1311 0.950 . S
C1305 C1303 1.387 . S
C1305 C1307 1.390 . S
C1305 H1309 0.950 . S
H1306 C1302 0.950 . S
C1307 C1305 1.390 . S
C1307 C1308 1.387 . S
C1307 H1310 0.950 . S
C1308 C1307 1.387 . S
C1308 C1311 1.387 . S
H1309 C1305 0.950 . S
H1310 C1307 0.950 . S
C1311 C1302 1.390 . S
C1311 H1304 0.950 . S
C1311 C1308 1.387 . S
C1312 C1313 1.387 . S
C1312 H1316 0.950 . S
C1312 C1321 1.390 1_455 S
C1313 C1312 1.387 . S
C1313 C1315 1.387 1_554 S
H1314 C1321 0.950 . S
C1315 C1313 1.387 1_556 S
C1315 C1317 1.390 1_455 S
C1315 H1319 0.950 . S
H1316 C1312 0.950 . S
C1317 C1315 1.390 1_655 S
C1317 C1318 1.387 1_556 S
C1317 H1320 0.950 . S
C1318 C1317 1.387 1_554 S
C1318 C1321 1.387 . S
H1319 C1315 0.950 . S
H1320 C1317 0.950 . S
C1321 C1312 1.390 1_655 S
C1321 H1314 0.950 . S
C1321 C1318 1.387 . S
C1322 C1323 1.387 . S
C1322 H1326 0.950 . S
C1322 C1331 1.390 . S
C1323 C1322 1.387 . S
C1323 C1325 1.387 . S
H1324 C1331 0.950 . S
C1325 C1323 1.387 . S
C1325 C1327 1.390 . S
C1325 H1329 0.950 . S
H1326 C1322 0.950 . S
C1327 C1325 1.390 . S
C1327 C1328 1.387 . S
C1327 H1330 0.950 . S
C1328 C1327 1.387 . S
C1328 C1331 1.387 . S
H1329 C1325 0.950 . S
H1330 C1327 0.950 . S
C1331 C1322 1.390 . S
C1331 H1324 0.950 . S
C1331 C1328 1.387 . S
C1332 C1333 1.387 . S
C1332 H1336 0.950 . S
C1332 C1341 1.390 . S
C1333 C1332 1.387 . S
C1333 C1335 1.387 . S
H1334 C1341 0.950 . S
C1335 C1333 1.387 . S
C1335 C1337 1.390 . S
C1335 H1339 0.950 . S
H1336 C1332 0.950 . S
C1337 C1335 1.390 . S
C1337 C1338 1.387 . S
C1337 H1340 0.950 . S
C1338 C1337 1.387 . S
C1338 C1341 1.387 . S
H1339 C1335 0.950 . S
H1340 C1337 0.950 . S
C1341 C1332 1.390 . S
C1341 H1334 0.950 . S
C1341 C1338 1.387 . S
C1342 C1343 1.387 . S
C1342 H1346 0.950 . S
C1342 C1351 1.390 . S
C1343 C1342 1.387 . S
C1343 C1345 1.387 . S
H1344 C1351 0.950 . S
C1345 C1343 1.387 . S
C1345 C1347 1.390 . S
C1345 H1349 0.950 . S
H1346 C1342 0.950 . S
C1347 C1345 1.390 . S
C1347 C1348 1.387 . S
C1347 H1350 0.950 . S
C1348 C1347 1.387 . S
C1348 C1351 1.387 . S
H1349 C1345 0.950 . S
H1350 C1347 0.950 . S
C1351 C1342 1.390 . S
C1351 H1344 0.950 . S
C1351 C1348 1.387 . S
C1352 C1353 1.376 1_554 S
C1352 H1356 0.961 . S
C1352 C1361 1.390 1_655 S
C1353 C1352 1.376 1_556 S
C1353 C1355 1.387 . S
H1354 C1361 0.965 . S
C1355 C1353 1.387 . S
C1355 C1357 1.390 1_655 S
C1355 H1359 0.950 . S
H1356 C1352 0.961 . S
C1357 C1355 1.390 1_455 S
C1357 C1358 1.387 . S
C1357 H1360 0.950 . S
C1358 C1357 1.387 . S
C1358 C1361 1.372 1_556 S
H1359 C1355 0.950 . S
H1360 C1357 0.950 . S
C1361 C1352 1.390 1_455 S
C1361 H1354 0.965 . S
C1361 C1358 1.372 1_554 S
C1362 C1363 1.387 . S
C1362 H1366 0.950 . S
C1362 C1371 1.390 . S
C1363 C1362 1.387 . S
C1363 C1365 1.387 . S
H1364 C1371 0.950 . S
C1365 C1363 1.387 . S
C1365 C1367 1.390 . S
C1365 H1369 0.950 . S
H1366 C1362 0.950 . S
C1367 C1365 1.390 . S
C1367 C1368 1.387 . S
C1367 H1370 0.950 . S
C1368 C1367 1.387 . S
C1368 C1371 1.387 . S
H1369 C1365 0.950 . S
H1370 C1367 0.950 . S
C1371 C1362 1.390 . S
C1371 H1364 0.950 . S
C1371 C1368 1.387 . S
C1372 C1373 1.387 . S
C1372 H1376 0.950 . S
C1372 C1381 1.390 . S
C1373 C1372 1.387 . S
C1373 C1375 1.387 . S
H1374 C1381 0.950 . S
C1375 C1373 1.387 . S
C1375 C1377 1.390 . S
C1375 H1379 0.950 . S
H1376 C1372 0.950 . S
C1377 C1375 1.390 . S
C1377 C1378 1.387 . S
C1377 H1380 0.950 . S
C1378 C1377 1.387 . S
C1378 C1381 1.387 . S
H1379 C1375 0.950 . S
H1380 C1377 0.950 . S
C1381 C1372 1.390 . S
C1381 H1374 0.950 . S
C1381 C1378 1.387 . S
C1382 C1383 1.387 . S
C1382 H1386 0.950 . S
C1382 C1391 1.390 . S
C1383 C1382 1.387 . S
C1383 C1385 1.387 . S
H1384 C1391 0.950 . S
C1385 C1383 1.387 . S
C1385 C1387 1.390 . S
C1385 H1389 0.950 . S
H1386 C1382 0.950 . S
C1387 C1385 1.390 . S
C1387 C1388 1.387 . S
C1387 H1390 0.950 . S
C1388 C1387 1.387 . S
C1388 C1391 1.387 . S
H1389 C1385 0.950 . S
H1390 C1387 0.950 . S
C1391 C1382 1.390 . S
C1391 H1384 0.950 . S
C1391 C1388 1.387 . S
C1392 C1393 1.387 . S
C1392 H1396 0.950 . S
C1392 C1401 1.390 . S
C1393 C1392 1.387 . S
C1393 C1395 1.387 . S
H1394 C1401 0.950 . S
C1395 C1393 1.387 . S
C1395 C1397 1.390 . S
C1395 H1399 0.950 . S
H1396 C1392 0.950 . S
C1397 C1395 1.390 . S
C1397 C1398 1.387 . S
C1397 H1400 0.950 . S
C1398 C1397 1.387 . S
C1398 C1401 1.387 . S
H1399 C1395 0.950 . S
H1400 C1397 0.950 . S
C1401 C1392 1.390 . S
C1401 H1394 0.950 . S
C1401 C1398 1.387 . S
C1402 C1403 1.387 . S
C1402 H1406 0.950 . S
C1402 C1411 1.390 . S
C1403 C1402 1.387 . S
C1403 C1405 1.387 . S
H1404 C1411 0.950 . S
C1405 C1403 1.387 . S
C1405 C1407 1.390 . S
C1405 H1409 0.950 . S
H1406 C1402 0.950 . S
C1407 C1405 1.390 . S
C1407 C1408 1.387 . S
C1407 H1410 0.950 . S
C1408 C1407 1.387 . S
C1408 C1411 1.387 . S
H1409 C1405 0.950 . S
H1410 C1407 0.950 . S
C1411 C1402 1.390 . S
C1411 H1404 0.950 . S
C1411 C1408 1.387 . S
C1412 C1413 1.387 . S
C1412 H1416 0.950 . S
C1412 C1421 1.390 . S
C1413 C1412 1.387 . S
C1413 C1415 1.387 . S
H1414 C1421 0.950 . S
C1415 C1413 1.387 . S
C1415 C1417 1.390 . S
C1415 H1419 0.950 . S
H1416 C1412 0.950 . S
C1417 C1415 1.390 . S
C1417 C1418 1.387 . S
C1417 H1420 0.950 . S
C1418 C1417 1.387 . S
C1418 C1421 1.387 . S
H1419 C1415 0.950 . S
H1420 C1417 0.950 . S
C1421 C1412 1.390 . S
C1421 H1414 0.950 . S
C1421 C1418 1.387 . S
C1422 C1423 1.387 . S
C1422 H1426 0.950 . S
C1422 C1431 1.390 . S
C1423 C1422 1.387 . S
C1423 C1425 1.387 . S
H1424 C1431 0.950 . S
C1425 C1423 1.387 . S
C1425 C1427 1.390 . S
C1425 H1429 0.950 . S
H1426 C1422 0.950 . S
C1427 C1425 1.390 . S
C1427 C1428 1.387 . S
C1427 H1430 0.950 . S
C1428 C1427 1.387 . S
C1428 C1431 1.387 . S
H1429 C1425 0.950 . S
H1430 C1427 0.950 . S
C1431 C1422 1.390 . S
C1431 H1424 0.950 . S
C1431 C1428 1.387 . S
C1432 C1433 1.387 . S
C1432 H1436 0.950 . S
C1432 C1441 1.390 . S
C1433 C1432 1.387 . S
C1433 C1435 1.387 . S
H1434 C1441 0.950 . S
C1435 C1433 1.387 . S
C1435 C1437 1.390 . S
C1435 H1439 0.950 . S
H1436 C1432 0.950 . S
C1437 C1435 1.390 . S
C1437 C1438 1.387 . S
C1437 H1440 0.950 . S
C1438 C1437 1.387 . S
C1438 C1441 1.387 . S
H1439 C1435 0.950 . S
H1440 C1437 0.950 . S
C1441 C1432 1.390 . S
C1441 H1434 0.950 . S
C1441 C1438 1.387 . S
C1442 C1443 1.387 . S
C1442 H1446 0.950 . S
C1442 C1451 1.390 1_655 S
C1443 C1442 1.387 . S
C1443 C1445 1.387 . S
H1444 C1451 0.950 . S
C1445 C1443 1.387 . S
C1445 C1447 1.390 1_655 S
C1445 H1449 0.950 . S
H1446 C1442 0.950 . S
C1447 C1445 1.390 1_455 S
C1447 C1448 1.387 . S
C1447 H1450 0.950 . S
C1448 C1447 1.387 . S
C1448 C1451 1.387 . S
H1449 C1445 0.950 . S
H1450 C1447 0.950 . S
C1451 C1442 1.390 1_455 S
C1451 H1444 0.950 . S
C1451 C1448 1.387 . S
C1452 C1453 1.387 . S
C1452 H1456 0.950 . S
C1452 C1461 1.390 . S
C1453 C1452 1.387 . S
C1453 C1455 1.387 . S
H1454 C1461 0.950 . S
C1455 C1453 1.387 . S
C1455 C1457 1.390 . S
C1455 H1459 0.950 . S
H1456 C1452 0.950 . S
C1457 C1455 1.390 . S
C1457 C1458 1.387 . S
C1457 H1460 0.950 . S
C1458 C1457 1.387 . S
C1458 C1461 1.387 . S
H1459 C1455 0.950 . S
H1460 C1457 0.950 . S
C1461 C1452 1.390 . S
C1461 H1454 0.950 . S
C1461 C1458 1.387 . S
C1462 C1463 1.387 . S
C1462 H1466 0.950 . S
C1462 C1471 1.390 1_455 S
C1463 C1462 1.387 . S
C1463 C1465 1.387 . S
H1464 C1471 0.950 . S
C1465 C1463 1.387 . S
C1465 C1467 1.390 1_455 S
C1465 H1469 0.950 . S
H1466 C1462 0.950 . S
C1467 C1465 1.390 1_655 S
C1467 C1468 1.387 . S
C1467 H1470 0.950 . S
C1468 C1467 1.387 . S
C1468 C1471 1.387 . S
H1469 C1465 0.950 . S
H1470 C1467 0.950 . S
C1471 C1462 1.390 1_655 S
C1471 H1464 0.950 . S
C1471 C1468 1.387 . S
C1472 C1473 1.390 . S
C1472 H1476 0.952 . S
C1472 C1481 1.387 1_556 S
C1473 C1472 1.390 . S
C1473 C1475 1.390 . S
H1474 C1481 0.952 . S
C1475 C1473 1.390 . S
C1475 C1477 1.387 1_556 S
C1475 H1479 0.952 . S
H1476 C1472 0.952 . S
C1477 C1475 1.387 1_554 S
C1477 C1478 1.390 . S
C1477 H1480 0.952 . S
C1478 C1477 1.390 . S
C1478 C1481 1.390 . S
H1479 C1475 0.952 . S
H1480 C1477 0.952 . S
C1481 C1472 1.387 1_554 S
C1481 H1474 0.952 . S
C1481 C1478 1.390 . S
C1482 C1483 1.387 . S
C1482 H1486 0.950 . S
C1482 C1491 1.390 . S
C1483 C1482 1.387 . S
C1483 C1485 1.387 . S
H1484 C1491 0.950 . S
C1485 C1483 1.387 . S
C1485 C1487 1.390 . S
C1485 H1489 0.950 . S
H1486 C1482 0.950 . S
C1487 C1485 1.390 . S
C1487 C1488 1.387 . S
C1487 H1490 0.950 . S
C1488 C1487 1.387 . S
C1488 C1491 1.387 . S
H1489 C1485 0.950 . S
H1490 C1487 0.950 . S
C1491 C1482 1.390 . S
C1491 H1484 0.950 . S
C1491 C1488 1.387 . S
C1492 C1493 1.387 . S
C1492 H1496 0.950 . S
C1492 C1501 1.390 . S
C1493 C1492 1.387 . S
C1493 C1495 1.387 . S
H1494 C1501 0.950 . S
C1495 C1493 1.387 . S
C1495 C1497 1.390 . S
C1495 H1499 0.950 . S
H1496 C1492 0.950 . S
C1497 C1495 1.390 . S
C1497 C1498 1.387 . S
C1497 H1500 0.950 . S
C1498 C1497 1.387 . S
C1498 C1501 1.387 . S
H1499 C1495 0.950 . S
H1500 C1497 0.950 . S
C1501 C1492 1.390 . S
C1501 H1494 0.950 . S
C1501 C1498 1.387 . S
C1502 C1503 1.387 . S
C1502 H1506 0.950 . S
C1502 C1511 1.390 . S
C1503 C1502 1.387 . S
C1503 C1505 1.387 . S
H1504 C1511 0.950 . S
C1505 C1503 1.387 . S
C1505 C1507 1.390 . S
C1505 H1509 0.950 . S
H1506 C1502 0.950 . S
C1507 C1505 1.390 . S
C1507 C1508 1.387 . S
C1507 H1510 0.950 . S
C1508 C1507 1.387 . S
C1508 C1511 1.387 . S
H1509 C1505 0.950 . S
H1510 C1507 0.950 . S
C1511 C1502 1.390 . S
C1511 H1504 0.950 . S
C1511 C1508 1.387 . S
C1512 C1513 1.390 . S
C1512 H1516 0.952 . S
C1512 C1521 1.387 1_554 S
C1513 C1512 1.390 . S
C1513 C1515 1.390 . S
H1514 C1521 0.952 . S
C1515 C1513 1.390 . S
C1515 C1517 1.387 1_554 S
C1515 H1519 0.952 . S
H1516 C1512 0.952 . S
C1517 C1515 1.387 1_556 S
C1517 C1518 1.390 . S
C1517 H1520 0.952 . S
C1518 C1517 1.390 . S
C1518 C1521 1.390 . S
H1519 C1515 0.952 . S
H1520 C1517 0.952 . S
C1521 C1512 1.387 1_556 S
C1521 H1514 0.952 . S
C1521 C1518 1.390 . S
C1522 C1523 1.387 . S
C1522 H1526 0.950 . S
C1522 C1531 1.390 . S
C1523 C1522 1.387 . S
C1523 C1525 1.387 . S
H1524 C1531 0.950 . S
C1525 C1523 1.387 . S
C1525 C1527 1.390 . S
C1525 H1529 0.950 . S
H1526 C1522 0.950 . S
C1527 C1525 1.390 . S
C1527 C1528 1.387 . S
C1527 H1530 0.950 . S
C1528 C1527 1.387 . S
C1528 C1531 1.387 . S
H1529 C1525 0.950 . S
H1530 C1527 0.950 . S
C1531 C1522 1.390 . S
C1531 H1524 0.950 . S
C1531 C1528 1.387 . S
C1532 C1533 1.387 . S
C1532 H1536 0.950 . S
C1532 C1541 1.390 . S
C1533 C1532 1.387 . S
C1533 C1535 1.387 . S
H1534 C1541 0.950 . S
C1535 C1533 1.387 . S
C1535 C1537 1.390 . S
C1535 H1539 0.950 . S
H1536 C1532 0.950 . S
C1537 C1535 1.390 . S
C1537 C1538 1.387 . S
C1537 H1540 0.950 . S
C1538 C1537 1.387 . S
C1538 C1541 1.387 . S
H1539 C1535 0.950 . S
H1540 C1537 0.950 . S
C1541 C1532 1.390 . S
C1541 H1534 0.950 . S
C1541 C1538 1.387 . S
C1542 C1543 1.387 . S
C1542 H1546 0.950 . S
C1542 C1551 1.390 . S
C1543 C1542 1.387 . S
C1543 C1545 1.387 . S
H1544 C1551 0.950 . S
C1545 C1543 1.387 . S
C1545 C1547 1.390 . S
C1545 H1549 0.950 . S
H1546 C1542 0.950 . S
C1547 C1545 1.390 . S
C1547 C1548 1.387 . S
C1547 H1550 0.950 . S
C1548 C1547 1.387 . S
C1548 C1551 1.387 . S
H1549 C1545 0.950 . S
H1550 C1547 0.950 . S
C1551 C1542 1.390 . S
C1551 H1544 0.950 . S
C1551 C1548 1.387 . S
C1552 C1553 1.387 . S
C1552 H1556 0.950 . S
C1552 C1561 1.390 1_545 S
C1553 C1552 1.387 . S
C1553 C1555 1.387 . S
H1554 C1561 0.950 . S
C1555 C1553 1.387 . S
C1555 C1557 1.390 1_545 S
C1555 H1559 0.950 . S
H1556 C1552 0.950 . S
C1557 C1555 1.390 1_565 S
C1557 C1558 1.387 . S
C1557 H1560 0.950 . S
C1558 C1557 1.387 . S
C1558 C1561 1.387 . S
H1559 C1555 0.950 . S
H1560 C1557 0.950 . S
C1561 C1552 1.390 1_565 S
C1561 H1554 0.950 . S
C1561 C1558 1.387 . S
C1562 C1563 1.387 . S
C1562 H1566 0.950 . S
C1562 C1571 1.390 . S
C1563 C1562 1.387 . S
C1563 C1565 1.387 . S
H1564 C1571 0.950 . S
C1565 C1563 1.387 . S
C1565 C1567 1.390 . S
C1565 H1569 0.950 . S
H1566 C1562 0.950 . S
C1567 C1565 1.390 . S
C1567 C1568 1.387 . S
C1567 H1570 0.950 . S
C1568 C1567 1.387 . S
C1568 C1571 1.387 . S
H1569 C1565 0.950 . S
H1570 C1567 0.950 . S
C1571 C1562 1.390 . S
C1571 H1564 0.950 . S
C1571 C1568 1.387 . S
C1572 C1573 1.390 . S
C1572 H1576 0.952 . S
C1572 C1581 1.387 1_564 S
C1573 C1572 1.390 . S
C1573 C1575 1.390 . S
H1574 C1581 0.952 . S
C1575 C1573 1.390 . S
C1575 C1577 1.387 1_564 S
C1575 H1579 0.952 . S
H1576 C1572 0.952 . S
C1577 C1575 1.387 1_546 S
C1577 C1578 1.390 . S
C1577 H1580 0.952 . S
C1578 C1577 1.390 . S
C1578 C1581 1.390 . S
H1579 C1575 0.952 . S
H1580 C1577 0.952 . S
C1581 C1572 1.387 1_546 S
C1581 H1574 0.952 . S
C1581 C1578 1.390 . S
C1582 C1583 1.387 . S
C1582 H1586 0.950 . S
C1582 C1591 1.390 . S
C1583 C1582 1.387 . S
C1583 C1585 1.387 . S
H1584 C1591 0.950 . S
C1585 C1583 1.387 . S
C1585 C1587 1.390 . S
C1585 H1589 0.950 . S
H1586 C1582 0.950 . S
C1587 C1585 1.390 . S
C1587 C1588 1.387 . S
C1587 H1590 0.950 . S
C1588 C1587 1.387 . S
C1588 C1591 1.387 . S
H1589 C1585 0.950 . S
H1590 C1587 0.950 . S
C1591 C1582 1.390 . S
C1591 H1584 0.950 . S
C1591 C1588 1.387 . S
C1592 C1593 1.387 . S
C1592 H1596 0.950 . S
C1592 C1601 1.390 1_545 S
C1593 C1592 1.387 . S
C1593 C1595 1.387 . S
H1594 C1601 0.950 . S
C1595 C1593 1.387 . S
C1595 C1597 1.390 1_545 S
C1595 H1599 0.950 . S
H1596 C1592 0.950 . S
C1597 C1595 1.390 1_565 S
C1597 C1598 1.387 . S
C1597 H1600 0.950 . S
C1598 C1597 1.387 . S
C1598 C1601 1.387 . S
H1599 C1595 0.950 . S
H1600 C1597 0.950 . S
C1601 C1592 1.390 1_565 S
C1601 H1594 0.950 . S
C1601 C1598 1.387 . S
C1602 C1603 1.387 . S
C1602 H1606 0.950 . S
C1602 C1611 1.390 . S
C1603 C1602 1.387 . S
C1603 C1605 1.387 . S
H1604 C1611 0.950 . S
C1605 C1603 1.387 . S
C1605 C1607 1.390 . S
C1605 H1609 0.950 . S
H1606 C1602 0.950 . S
C1607 C1605 1.390 . S
C1607 C1608 1.387 . S
C1607 H1610 0.950 . S
C1608 C1607 1.387 . S
C1608 C1611 1.387 . S
H1609 C1605 0.950 . S
H1610 C1607 0.950 . S
C1611 C1602 1.390 . S
C1611 H1604 0.950 . S
C1611 C1608 1.387 . S
C1612 C1613 1.387 . S
C1612 H1616 0.950 . S
C1612 C1621 1.390 1_564 S
C1613 C1612 1.387 . S
C1613 C1615 1.387 . S
H1614 C1621 0.950 . S
C1615 C1613 1.387 . S
C1615 C1617 1.390 1_564 S
C1615 H1619 0.950 . S
H1616 C1612 0.950 . S
C1617 C1615 1.390 1_546 S
C1617 C1618 1.387 . S
C1617 H1620 0.950 . S
C1618 C1617 1.387 . S
C1618 C1621 1.387 . S
H1619 C1615 0.950 . S
H1620 C1617 0.950 . S
C1621 C1612 1.390 1_546 S
C1621 H1614 0.950 . S
C1621 C1618 1.387 . S
C1622 C1623 1.387 . S
C1622 H1626 0.950 . S
C1622 C1631 1.390 . S
C1623 C1622 1.387 . S
C1623 C1625 1.387 . S
H1624 C1631 0.950 . S
C1625 C1623 1.387 . S
C1625 C1627 1.390 . S
C1625 H1629 0.950 . S
H1626 C1622 0.950 . S
C1627 C1625 1.390 . S
C1627 C1628 1.387 . S
C1627 H1630 0.950 . S
C1628 C1627 1.387 . S
C1628 C1631 1.387 . S
H1629 C1625 0.950 . S
H1630 C1627 0.950 . S
C1631 C1622 1.390 . S
C1631 H1624 0.950 . S
C1631 C1628 1.387 . S
C1632 C1633 1.387 . S
C1632 H1636 0.950 . S
C1632 C1641 1.390 . S
C1633 C1632 1.387 . S
C1633 C1635 1.387 1_554 S
H1634 C1641 0.950 . S
C1635 C1633 1.387 1_556 S
C1635 C1637 1.390 . S
C1635 H1639 0.950 . S
H1636 C1632 0.950 . S
C1637 C1635 1.390 . S
C1637 C1638 1.387 1_556 S
C1637 H1640 0.950 . S
C1638 C1637 1.387 1_554 S
C1638 C1641 1.387 . S
H1639 C1635 0.950 . S
H1640 C1637 0.950 . S
C1641 C1632 1.390 . S
C1641 H1634 0.950 . S
C1641 C1638 1.387 . S
C1642 C1643 1.387 . S
C1642 H1646 0.950 . S
C1642 C1651 1.390 . S
C1643 C1642 1.387 . S
C1643 C1645 1.387 . S
H1644 C1651 0.950 . S
C1645 C1643 1.387 . S
C1645 C1647 1.390 . S
C1645 H1649 0.950 . S
H1646 C1642 0.950 . S
C1647 C1645 1.390 . S
C1647 C1648 1.387 . S
C1647 H1650 0.950 . S
C1648 C1647 1.387 . S
C1648 C1651 1.387 . S
H1649 C1645 0.950 . S
H1650 C1647 0.950 . S
C1651 C1642 1.390 . S
C1651 H1644 0.950 . S
C1651 C1648 1.387 . S
C1652 C1653 1.387 . S
C1652 H1656 0.950 . S
C1652 C1661 1.390 . S
C1653 C1652 1.387 . S
C1653 C1655 1.387 . S
H1654 C1661 0.950 . S
C1655 C1653 1.387 . S
C1655 C1657 1.390 . S
C1655 H1659 0.950 . S
H1656 C1652 0.950 . S
C1657 C1655 1.390 . S
C1657 C1658 1.387 . S
C1657 H1660 0.950 . S
C1658 C1657 1.387 . S
C1658 C1661 1.387 . S
H1659 C1655 0.950 . S
H1660 C1657 0.950 . S
C1661 C1652 1.390 . S
C1661 H1654 0.950 . S
C1661 C1658 1.387 . S
C1662 C1663 1.387 . S
C1662 H1666 0.950 . S
C1662 C1671 1.390 1_655 S
C1663 C1662 1.387 . S
C1663 C1665 1.387 . S
H1664 C1671 0.950 . S
C1665 C1663 1.387 . S
C1665 C1667 1.390 1_655 S
C1665 H1669 0.950 . S
H1666 C1662 0.950 . S
C1667 C1665 1.390 1_455 S
C1667 C1668 1.387 . S
C1667 H1670 0.950 . S
C1668 C1667 1.387 . S
C1668 C1671 1.387 . S
H1669 C1665 0.950 . S
H1670 C1667 0.950 . S
C1671 C1662 1.390 1_455 S
C1671 H1664 0.950 . S
C1671 C1668 1.387 . S
C1672 C1673 1.387 1_554 S
C1672 H1676 0.950 . S
C1672 C1681 1.390 . S
C1673 C1672 1.387 1_556 S
C1673 C1675 1.387 . S
H1674 C1681 0.950 . S
C1675 C1673 1.387 . S
C1675 C1677 1.390 . S
C1675 H1679 0.950 . S
H1676 C1672 0.950 . S
C1677 C1675 1.390 . S
C1677 C1678 1.387 . S
C1677 H1680 0.950 . S
C1678 C1677 1.387 . S
C1678 C1681 1.387 1_556 S
H1679 C1675 0.950 . S
H1680 C1677 0.950 . S
C1681 C1672 1.390 . S
C1681 H1674 0.950 . S
C1681 C1678 1.387 1_554 S
C1682 C1683 1.387 . S
C1682 H1686 0.950 . S
C1682 C1691 1.390 1_655 S
C1683 C1682 1.387 . S
C1683 C1685 1.387 . S
H1684 C1691 0.950 . S
C1685 C1683 1.387 . S
C1685 C1687 1.390 1_655 S
C1685 H1689 0.950 . S
H1686 C1682 0.950 . S
C1687 C1685 1.390 1_455 S
C1687 C1688 1.387 . S
C1687 H1690 0.950 . S
C1688 C1687 1.387 . S
C1688 C1691 1.387 . S
H1689 C1685 0.950 . S
H1690 C1687 0.950 . S
C1691 C1682 1.390 1_455 S
C1691 H1684 0.950 . S
C1691 C1688 1.387 . S
C1692 C1693 1.387 . S
C1692 H1696 0.950 . S
C1692 C1701 1.390 . S
C1693 C1692 1.387 . S
C1693 C1695 1.387 . S
H1694 C1701 0.950 . S
C1695 C1693 1.387 . S
C1695 C1697 1.390 . S
C1695 H1699 0.950 . S
H1696 C1692 0.950 . S
C1697 C1695 1.390 . S
C1697 C1698 1.387 . S
C1697 H1700 0.950 . S
C1698 C1697 1.387 . S
C1698 C1701 1.387 . S
H1699 C1695 0.950 . S
H1700 C1697 0.950 . S
C1701 C1692 1.390 . S
C1701 H1694 0.950 . S
C1701 C1698 1.387 . S
C1702 C1703 1.387 . S
C1702 H1706 0.950 . S
C1702 C1711 1.390 . S
C1703 C1702 1.387 . S
C1703 C1705 1.387 . S
H1704 C1711 0.950 . S
C1705 C1703 1.387 . S
C1705 C1707 1.390 . S
C1705 H1709 0.950 . S
H1706 C1702 0.950 . S
C1707 C1705 1.390 . S
C1707 C1708 1.387 . S
C1707 H1710 0.950 . S
C1708 C1707 1.387 . S
C1708 C1711 1.387 . S
H1709 C1705 0.950 . S
H1710 C1707 0.950 . S
C1711 C1702 1.390 . S
C1711 H1704 0.950 . S
C1711 C1708 1.387 . S
C1712 C1713 1.387 . S
C1712 H1716 0.950 . S
C1712 C1721 1.390 . S
C1713 C1712 1.387 . S
C1713 C1715 1.387 1_556 S
H1714 C1721 0.950 . S
C1715 C1713 1.387 1_554 S
C1715 C1717 1.390 . S
C1715 H1719 0.950 . S
H1716 C1712 0.950 . S
C1717 C1715 1.390 . S
C1717 C1718 1.387 1_554 S
C1717 H1720 0.950 . S
C1718 C1717 1.387 1_556 S
C1718 C1721 1.387 . S
H1719 C1715 0.950 . S
H1720 C1717 0.950 . S
C1721 C1712 1.390 . S
C1721 H1714 0.950 . S
C1721 C1718 1.387 . S
C1722 C1723 1.387 . S
C1722 H1726 0.950 . S
C1722 C1731 1.390 . S
C1723 C1722 1.387 . S
C1723 C1725 1.387 . S
H1724 C1731 0.950 . S
C1725 C1723 1.387 . S
C1725 C1727 1.390 . S
C1725 H1729 0.950 . S
H1726 C1722 0.950 . S
C1727 C1725 1.390 . S
C1727 C1728 1.387 . S
C1727 H1730 0.950 . S
C1728 C1727 1.387 . S
C1728 C1731 1.387 . S
H1729 C1725 0.950 . S
H1730 C1727 0.950 . S
C1731 C1722 1.390 . S
C1731 H1724 0.950 . S
C1731 C1728 1.387 . S
C1732 C1733 1.387 1_556 S
C1732 H1736 0.950 . S
C1732 C1741 1.390 . S
C1733 C1732 1.387 1_554 S
C1733 C1735 1.387 . S
H1734 C1741 0.950 . S
C1735 C1733 1.387 . S
C1735 C1737 1.390 . S
C1735 H1739 0.950 . S
H1736 C1732 0.950 . S
C1737 C1735 1.390 . S
C1737 C1738 1.387 . S
C1737 H1740 0.950 . S
C1738 C1737 1.387 . S
C1738 C1741 1.387 1_554 S
H1739 C1735 0.950 . S
H1740 C1737 0.950 . S
C1741 C1732 1.390 . S
C1741 H1734 0.950 . S
C1741 C1738 1.387 1_556 S
C1742 C1743 1.387 . S
C1742 H1746 0.950 . S
C1742 C1751 1.390 . S
C1743 C1742 1.387 . S
C1743 C1745 1.387 . S
H1744 C1751 0.950 . S
C1745 C1743 1.387 . S
C1745 C1747 1.390 . S
C1745 H1749 0.950 . S
H1746 C1742 0.950 . S
C1747 C1745 1.390 . S
C1747 C1748 1.387 . S
C1747 H1750 0.950 . S
C1748 C1747 1.387 . S
C1748 C1751 1.387 . S
H1749 C1745 0.950 . S
H1750 C1747 0.950 . S
C1751 C1742 1.390 . S
C1751 H1744 0.950 . S
C1751 C1748 1.387 . S
C1752 C1753 1.387 . S
C1752 H1756 0.950 . S
C1752 C1761 1.390 1_655 S
C1753 C1752 1.387 . S
C1753 C1755 1.387 . S
H1754 C1761 0.950 . S
C1755 C1753 1.387 . S
C1755 C1757 1.390 1_655 S
C1755 H1759 0.950 . S
H1756 C1752 0.950 . S
C1757 C1755 1.390 1_455 S
C1757 C1758 1.387 . S
C1757 H1760 0.950 . S
C1758 C1757 1.387 . S
C1758 C1761 1.387 . S
H1759 C1755 0.950 . S
H1760 C1757 0.950 . S
C1761 C1752 1.390 1_455 S
C1761 H1754 0.950 . S
C1761 C1758 1.387 . S
C1762 C1763 1.387 . S
C1762 H1766 0.950 . S
C1762 C1771 1.390 . S
C1763 C1762 1.387 . S
C1763 C1765 1.387 . S
H1764 C1771 0.950 . S
C1765 C1763 1.387 . S
C1765 C1767 1.390 . S
C1765 H1769 0.950 . S
H1766 C1762 0.950 . S
C1767 C1765 1.390 . S
C1767 C1768 1.387 . S
C1767 H1770 0.950 . S
C1768 C1767 1.387 . S
C1768 C1771 1.387 . S
H1769 C1765 0.950 . S
H1770 C1767 0.950 . S
C1771 C1762 1.390 . S
C1771 H1764 0.950 . S
C1771 C1768 1.387 . S
C1772 C1773 1.387 . S
C1772 H1776 0.950 . S
C1772 C1781 1.390 . S
C1773 C1772 1.387 . S
C1773 C1775 1.387 . S
H1774 C1781 0.950 . S
C1775 C1773 1.387 . S
C1775 C1777 1.390 . S
C1775 H1779 0.950 . S
H1776 C1772 0.950 . S
C1777 C1775 1.390 . S
C1777 C1778 1.387 . S
C1777 H1780 0.950 . S
C1778 C1777 1.387 . S
C1778 C1781 1.387 . S
H1779 C1775 0.950 . S
H1780 C1777 0.950 . S
C1781 C1772 1.390 . S
C1781 H1774 0.950 . S
C1781 C1778 1.387 . S
C1782 C1783 1.387 . S
C1782 H1786 0.950 . S
C1782 C1791 1.390 1_655 S
C1783 C1782 1.387 . S
C1783 C1785 1.387 . S
H1784 C1791 0.950 . S
C1785 C1783 1.387 . S
C1785 C1787 1.390 1_655 S
C1785 H1789 0.950 . S
H1786 C1782 0.950 . S
C1787 C1785 1.390 1_455 S
C1787 C1788 1.387 . S
C1787 H1790 0.950 . S
C1788 C1787 1.387 . S
C1788 C1791 1.387 . S
H1789 C1785 0.950 . S
H1790 C1787 0.950 . S
C1791 C1782 1.390 1_455 S
C1791 H1784 0.950 . S
C1791 C1788 1.387 . S
C1153 C842 1.560 . S
C1158 C14 1.563 . S
C1163 C734 1.561 . S
C1168 C50 1.562 . S
C1173 C770 1.560 . S
C1178 C86 1.563 . S
C1183 C806 1.560 . S
C1188 C122 1.562 . S
C1193 C158 1.559 . S
C1198 C626 1.563 . S
C1203 C662 1.560 . S
C1208 C194 1.562 . S
C1213 C230 1.563 . S
C1218 C698 1.560 . S
C1223 C266 1.563 . S
C1228 C590 1.559 . S
C1233 C1130 1.562 . S
C1238 C302 1.560 . S
C1243 C338 1.560 . S
C1248 C1022 1.563 . S
C1253 C374 1.560 . S
C1258 C1058 1.563 . S
C1263 C410 1.562 . S
C1268 C1094 1.559 . S
C1273 C446 1.563 . S
C1278 C914 1.560 . S
C1283 C482 1.560 . S
C1288 C950 1.561 . S
C1293 C518 1.563 . S
C1298 C986 1.560 . S
C1303 C554 1.560 . S
C1308 C878 1.561 . S
C1313 C2 1.498 . S
C1318 C434 1.498 . S
C1323 C1046 1.498 . S
C1328 C38 1.498 . S
C1333 C74 1.498 . S
C1338 C506 1.498 . S
C1343 C1118 1.498 . S
C1348 C110 1.498 . S
C1353 C290 1.498 . S
C1358 C146 1.498 . S
C1363 C182 1.498 . S
C1368 C902 1.498 . S
C1373 C218 1.498 . S
C1378 C362 1.498 . S
C1383 C254 1.498 . S
C1388 C974 1.498 . S
C1393 C758 1.498 . S
C1398 C326 1.498 . S
C1403 C830 1.498 . S
C1408 C398 1.498 . S
C1413 C470 1.498 . S
C1418 C614 1.498 . S
C1423 C686 1.498 . S
C1428 C542 1.498 . S
C1433 C1010 1.498 . S
C1438 C578 1.498 . S
C1443 C650 1.498 . S
C1448 C1082 1.498 . S
C1453 C866 1.498 . S
C1458 C722 1.498 . S
C1463 C938 1.498 . S
C1468 C794 1.498 . S
C1473 C147 1.354 . S
C1478 C3 1.354 . S
C1483 C183 1.351 . S
C1488 C39 1.351 . S
C1493 C75 1.354 . S
C1498 C219 1.354 . S
C1503 C111 1.351 . S
C1508 C255 1.351 . S
C1513 C435 1.354 . S
C1518 C291 1.354 . S
C1523 C471 1.351 . S
C1528 C327 1.351 . S
C1533 C507 1.354 . S
C1538 C363 1.354 . S
C1543 C399 1.351 . S
C1548 C543 1.351 . S
C1553 C579 1.351 . S
C1558 C723 1.351 . S
C1563 C615 1.354 . S
C1568 C759 1.354 . S
C1573 C651 1.354 . S
C1578 C795 1.354 . S
C1583 C687 1.354 . S
C1588 C831 1.354 . S
C1593 C1011 1.354 . S
C1598 C867 1.354 . S
C1603 C1047 1.354 . S
C1608 C903 1.354 . S
C1613 C1083 1.351 . S
C1618 C939 1.351 . S
C1623 C1119 1.354 . S
C1628 C975 1.354 . S
C1633 C1084 1.458 . S
C1638 C4 1.456 . S
C1643 C40 1.456 . S
C1648 C544 1.458 . S
C1653 C1012 1.456 . S
C1658 C76 1.458 . S
C1663 C112 1.457 . S
C1668 C472 1.457 . S
C1673 C940 1.455 . S
C1678 C148 1.458 . S
C1683 C184 1.458 . S
C1688 C400 1.456 . S
C1693 C220 1.458 . S
C1698 C868 1.455 . S
C1703 C328 1.457 . S
C1708 C256 1.457 . S
C1713 C292 1.458 . S
C1718 C796 1.456 . S
C1723 C724 1.456 . S
C1728 C364 1.458 . S
C1733 C436 1.456 . S
C1738 C652 1.458 . S
C1743 C508 1.456 . S
C1748 C580 1.458 . S
C1753 C1120 1.456 . S
C1758 C616 1.457 . S
C1763 C688 1.458 . S
C1768 C1048 1.456 . S
C1773 C760 1.457 . S
C1778 C976 1.456 . S
C1783 C904 1.456 . S
C1788 C832 1.458 . S
