# Generated by pormake.
# Topology nfc, (4)-cn, num edge types: 1
# Building blocks:
#     Node 0, Type 0, BuildingBlock: NAWXER_clean_sbu_0, # of connection points: 4
#     Node 1, Type 0, BuildingBlock: NAWXER_clean_sbu_0, # of connection points: 4
#     Node 2, Type 0, BuildingBlock: NAWXER_clean_sbu_0, # of connection points: 4
#     Node 3, Type 0, BuildingBlock: NAWXER_clean_sbu_0, # of connection points: 4
#     Node 4, Type 0, BuildingBlock: NAWXER_clean_sbu_0, # of connection points: 4
#     Node 5, Type 0, BuildingBlock: NAWXER_clean_sbu_0, # of connection points: 4
#     Node 6, Type 0, BuildingBlock: NAWXER_clean_sbu_0, # of connection points: 4
#     Node 7, Type 0, BuildingBlock: NAWXER_clean_sbu_0, # of connection points: 4
#     Node 8, Type 0, BuildingBlock: NAWXER_clean_sbu_0, # of connection points: 4
#     Node 9, Type 0, BuildingBlock: NAWXER_clean_sbu_0, # of connection points: 4
#     Node 10, Type 0, BuildingBlock: NAWXER_clean_sbu_0, # of connection points: 4
#     Node 11, Type 0, BuildingBlock: NAWXER_clean_sbu_0, # of connection points: 4
#     Node 12, Type 0, BuildingBlock: NAWXER_clean_sbu_0, # of connection points: 4
#     Node 13, Type 0, BuildingBlock: NAWXER_clean_sbu_0, # of connection points: 4
#     Node 14, Type 0, BuildingBlock: NAWXER_clean_sbu_0, # of connection points: 4
#     Node 15, Type 0, BuildingBlock: NAWXER_clean_sbu_0, # of connection points: 4
#     Edge 16, Type (0, 0), BuildingBlock: XUDNAN_clean_linker_2, # of connection points: 2
#     Edge 17, Type (0, 0), BuildingBlock: XUDNAN_clean_linker_2, # of connection points: 2
#     Edge 18, Type (0, 0), BuildingBlock: XUDNAN_clean_linker_2, # of connection points: 2
#     Edge 19, Type (0, 0), BuildingBlock: XUDNAN_clean_linker_2, # of connection points: 2
#     Edge 20, Type (0, 0), BuildingBlock: XUDNAN_clean_linker_2, # of connection points: 2
#     Edge 21, Type (0, 0), BuildingBlock: XUDNAN_clean_linker_2, # of connection points: 2
#     Edge 22, Type (0, 0), BuildingBlock: XUDNAN_clean_linker_2, # of connection points: 2
#     Edge 23, Type (0, 0), BuildingBlock: XUDNAN_clean_linker_2, # of connection points: 2
#     Edge 24, Type (0, 0), BuildingBlock: XUDNAN_clean_linker_2, # of connection points: 2
#     Edge 25, Type (0, 0), BuildingBlock: XUDNAN_clean_linker_2, # of connection points: 2
#     Edge 26, Type (0, 0), BuildingBlock: XUDNAN_clean_linker_2, # of connection points: 2
#     Edge 27, Type (0, 0), BuildingBlock: XUDNAN_clean_linker_2, # of connection points: 2
#     Edge 28, Type (0, 0), BuildingBlock: XUDNAN_clean_linker_2, # of connection points: 2
#     Edge 29, Type (0, 0), BuildingBlock: XUDNAN_clean_linker_2, # of connection points: 2
#     Edge 30, Type (0, 0), BuildingBlock: XUDNAN_clean_linker_2, # of connection points: 2
#     Edge 31, Type (0, 0), BuildingBlock: XUDNAN_clean_linker_2, # of connection points: 2
#     Edge 32, Type (0, 0), BuildingBlock: XUDNAN_clean_linker_2, # of connection points: 2
#     Edge 33, Type (0, 0), BuildingBlock: XUDNAN_clean_linker_2, # of connection points: 2
#     Edge 34, Type (0, 0), BuildingBlock: XUDNAN_clean_linker_2, # of connection points: 2
#     Edge 35, Type (0, 0), BuildingBlock: XUDNAN_clean_linker_2, # of connection points: 2
#     Edge 36, Type (0, 0), BuildingBlock: XUDNAN_clean_linker_2, # of connection points: 2
#     Edge 37, Type (0, 0), BuildingBlock: XUDNAN_clean_linker_2, # of connection points: 2
#     Edge 38, Type (0, 0), BuildingBlock: XUDNAN_clean_linker_2, # of connection points: 2
#     Edge 39, Type (0, 0), BuildingBlock: XUDNAN_clean_linker_2, # of connection points: 2
#     Edge 40, Type (0, 0), BuildingBlock: XUDNAN_clean_linker_2, # of connection points: 2
#     Edge 41, Type (0, 0), BuildingBlock: XUDNAN_clean_linker_2, # of connection points: 2
#     Edge 42, Type (0, 0), BuildingBlock: XUDNAN_clean_linker_2, # of connection points: 2
#     Edge 43, Type (0, 0), BuildingBlock: XUDNAN_clean_linker_2, # of connection points: 2
#     Edge 44, Type (0, 0), BuildingBlock: XUDNAN_clean_linker_2, # of connection points: 2
#     Edge 45, Type (0, 0), BuildingBlock: XUDNAN_clean_linker_2, # of connection points: 2
#     Edge 46, Type (0, 0), BuildingBlock: XUDNAN_clean_linker_2, # of connection points: 2
#     Edge 47, Type (0, 0), BuildingBlock: XUDNAN_clean_linker_2, # of connection points: 2
# Relax obj value: 0.157
# Max RMSD: 0.167
# Mean RMSD: 0.167
data_MOF--net-nfc--node1-NAWXER_clean_sbu_0--edge1-XUDNAN_clean_linker_2
_symmetry_space_group_name_H-M    P1
_symmetry_Int_Tables_number       1
_symmetry_cell_setting            triclinic
loop_
_symmetry_equiv_pos_as_xyz
'x, y, z'
_cell_length_a     36.531035
_cell_length_b     36.930371
_cell_length_c     28.269102
_cell_angle_alpha  90.068884
_cell_angle_beta   90.054578
_cell_angle_gamma 90.004222
loop_
_atom_site_label
_atom_site_type_symbol
_atom_site_fract_x
_atom_site_fract_y
_atom_site_fract_z
_atom_type_partial_charge
C0 C 0.99376 0.04818 0.02669 0.0
C1 C 0.91204 0.95559 0.94854 0.0
O2 O 0.96374 0.05943 0.00838 0.0
Zn3 Zn 0.91603 0.04061 0.97217 0.0
O4 O 1.00202 0.0147 0.02243 0.0
Zn5 Zn 0.95588 0.99872 -0.0109 0.0
O6 O 0.96168 0.02308 0.92071 0.0
O7 O 0.9183 0.0642 0.9108 0.0
O8 O 0.9419 0.94781 0.96973 0.0
O9 O 0.90098 0.98841 0.94882 0.0
O10 O 0.87874 0.05297 0.01875 0.0
O11 O 0.91781 1.01147 0.0438 0.0
C12 C 0.9456 0.04664 0.8947 0.0
C13 C 0.89041 0.03228 0.05141 0.0
C14 C 0.18674 0.84483 0.25334 0.0
C15 C 0.25662 0.73817 0.18987 0.0
O16 O 0.1725 0.81538 0.23855 0.0
Zn17 Zn 0.21944 0.79036 0.22173 0.0
O18 O 0.22165 0.84817 0.25216 0.0
Zn19 Zn 0.26979 0.81788 0.2341 0.0
O20 O 0.29155 0.8481 0.18663 0.0
O21 O 0.24006 0.8224 0.16318 0.0
O22 O 0.27669 0.76473 0.20349 0.0
O23 O 0.22203 0.74071 0.19492 0.0
O24 O 0.24194 0.78371 0.29151 0.0
O25 O 0.29318 0.81534 0.29513 0.0
C26 C 0.26776 0.84281 0.15453 0.0
C27 C 0.26958 0.79528 0.31509 0.0
C28 C 0.65088 0.98302 0.54865 0.0
C29 C 0.59683 0.96913 0.39129 0.0
O30 O 0.62467 1.00525 0.5404 0.0
Zn31 Zn 0.58562 0.01686 0.48527 0.0
O32 O 0.66004 0.95974 0.51762 0.0
Zn33 Zn 0.62407 0.97394 0.47073 0.0
O34 O 0.64251 0.02667 0.45147 0.0
O35 O 0.59977 0.06714 0.46638 0.0
O36 O 0.62298 0.95085 0.40891 0.0
O37 O 0.58064 0.99312 0.41651 0.0
O38 O 0.53897 1.00305 0.51796 0.0
O39 O 0.57558 0.95665 0.50636 0.0
C40 C 0.63152 0.05958 0.45032 0.0
C41 C 0.54577 0.96942 0.52345 0.0
C42 C 0.36011 0.15068 0.7539 0.0
C43 C 0.2955 0.25859 0.68888 0.0
O44 O 0.37474 0.17826 0.73462 0.0
Zn45 Zn 0.32933 0.20582 0.72264 0.0
O46 O 0.32507 0.14941 0.75755 0.0
Zn47 Zn 0.27807 0.18326 0.74212 0.0
O48 O 0.24992 0.15458 0.69797 0.0
O49 O 0.30145 0.17549 0.66777 0.0
O50 O 0.27407 0.23478 0.70674 0.0
O51 O 0.32996 0.254 0.69253 0.0
O52 O 0.31264 0.21672 0.79414 0.0
O53 O 0.25813 0.1926 0.80479 0.0
C54 C 0.27111 0.15834 0.66262 0.0
C55 C 0.28532 0.21002 0.82122 0.0
C56 C 0.94704 0.11461 0.4936 0.0
C57 C 0.02695 0.0202 0.42348 0.0
O58 O 0.93195 0.08321 0.49275 0.0
Zn59 Zn 0.94615 0.02855 0.46985 0.0
O60 O 0.97864 0.11839 0.47533 0.0
Zn61 Zn 0.98671 0.0678 0.45834 0.0
O62 O 0.94962 0.05956 0.40003 0.0
O63 O 0.90922 0.01868 0.42226 0.0
O64 O 0.0331 0.05357 0.4312 0.0
O65 O 0.99599 1.00691 0.43649 0.0
O66 O 0.94216 1.00436 0.53062 0.0
O67 O 0.98704 0.04428 0.52788 0.0
C68 C 0.92141 0.04007 0.39081 0.0
C69 C 0.96795 0.02132 0.5512 0.0
C70 C 0.28969 0.86456 0.81617 0.0
C71 C 0.2653 0.8142 0.65994 0.0
O72 O 0.26952 0.87827 0.7842 0.0
Zn73 Zn 0.27765 0.84078 0.73749 0.0
O74 O 0.30714 0.83508 0.80823 0.0
Zn75 Zn 0.31311 0.7962 0.7522 0.0
O76 O 0.36488 0.80151 0.73346 0.0
O77 O 0.33304 0.84996 0.71495 0.0
O78 O 0.28712 0.79452 0.68438 0.0
O79 O 0.25252 0.8433 0.67736 0.0
O80 O 0.25237 0.79567 0.77375 0.0
O81 O 0.29307 0.75241 0.78401 0.0
C82 C 0.36355 0.83286 0.71469 0.0
C83 C 0.26066 0.76431 0.79018 0.0
C84 C 0.62125 0.89862 -0.0122 0.0
C85 C 0.53291 0.98518 0.91826 0.0
O86 O 0.63363 0.93116 -0.01169 0.0
Zn87 Zn 0.61401 0.98433 0.96576 0.0
O88 O 0.59041 0.89254 0.96842 0.0
Zn89 Zn 0.57761 0.94178 0.95216 0.0
O90 O 0.61427 0.95409 0.89491 0.0
O91 O 0.64968 0.99881 0.91883 0.0
O92 O 0.53015 0.95121 0.92441 0.0
O93 O 0.5623 1.00121 0.93224 0.0
O94 O 0.61454 1.00841 0.02686 0.0
O95 O 0.5734 0.96481 0.02182 0.0
C96 C 0.64026 0.97657 0.88672 0.0
C97 C 0.58968 0.98935 0.04603 0.0
C98 C 0.25375 0.28943 0.28711 0.0
C99 C 0.16238 0.20469 0.21451 0.0
O100 O 0.22063 0.29682 0.27691 0.0
Zn101 Zn 0.20704 0.24796 0.25079 0.0
O102 O 0.26586 0.25777 0.27685 0.0
Zn103 Zn 0.24758 0.20746 0.24627 0.0
O104 O 0.27836 0.20308 0.19143 0.0
O105 O 0.23542 0.24474 0.18337 0.0
O106 O 0.19431 0.19051 0.21895 0.0
O107 O 0.15734 0.23686 0.2296 0.0
O108 O 0.21226 0.21351 0.31271 0.0
O109 O 0.25688 0.17479 0.29794 0.0
C110 C 0.26207 0.22637 0.16602 0.0
C111 C 0.23275 0.18713 0.32595 0.0
C112 C 0.70488 0.36221 0.76374 0.0
C113 C 0.79482 0.27935 0.6879 0.0
O114 O 0.69067 0.33282 0.74814 0.0
Zn115 Zn 0.7081 0.28461 0.71198 0.0
O116 O 0.73865 0.36828 0.75575 0.0
Zn117 Zn 0.75125 0.32234 0.7245 0.0
O118 O 0.7274 0.32568 0.65567 0.0
O119 O 0.68154 0.28693 0.65172 0.0
O120 O 0.80132 0.31009 0.70665 0.0
O121 O 0.76195 0.26695 0.68858 0.0
O122 O 0.69528 0.24967 0.76128 0.0
O123 O 0.74065 0.28598 0.78144 0.0
C124 C 0.70151 0.31081 0.63208 0.0
C125 C 0.71842 0.26044 0.79199 0.0
C126 C 0.85567 0.64201 0.25466 0.0
C127 C 0.76723 0.73557 0.19382 0.0
O128 O 0.86444 0.67371 0.24086 0.0
Zn129 Zn 0.81418 0.69294 0.22568 0.0
O130 O 0.82186 0.63308 0.25446 0.0
Zn131 Zn 0.76988 0.65511 0.23977 0.0
O132 O 0.75116 0.6249 0.18813 0.0
O133 O 0.79564 0.66188 0.16639 0.0
O134 O 0.75423 0.70606 0.21059 0.0
O135 O 0.80175 0.74117 0.19653 0.0
O136 O 0.78973 0.69815 0.29401 0.0
O137 O 0.74725 0.65601 0.30215 0.0
C138 C 0.77086 0.63872 0.15561 0.0
C139 C 0.76515 0.68259 0.31913 0.0
C140 C 0.73535 0.34255 0.29069 0.0
C141 C 0.7329 0.2925 0.13112 0.0
O142 O 0.71279 0.34889 0.25749 0.0
Zn143 Zn 0.73704 0.32125 0.20899 0.0
O144 O 0.76514 0.32547 0.28124 0.0
Zn145 Zn 0.78839 0.29765 0.21984 0.0
O146 O 0.83288 0.32476 0.2019 0.0
O147 O 0.78267 0.355 0.18564 0.0
O148 O 0.76343 0.28536 0.1517 0.0
O149 O 0.70947 0.31207 0.15216 0.0
O150 O 0.7357 0.26845 0.24307 0.0
O151 O 0.79263 0.24941 0.24828 0.0
C152 C 0.81783 0.35281 0.18462 0.0
C153 C 0.75874 0.24444 0.25679 0.0
C154 C 0.64057 0.71998 0.71544 0.0
C155 C 0.74618 0.78687 0.78089 0.0
O156 O 0.6409 0.75097 0.735 0.0
Zn157 Zn 0.69327 0.75219 0.75127 0.0
O158 O 0.66983 0.70079 0.7164 0.0
Zn159 Zn 0.72559 0.70638 0.74225 0.0
O160 O 0.72948 0.67014 0.79068 0.0
O161 O 0.6989 0.71837 0.81413 0.0
O162 O 0.75483 0.75384 0.77148 0.0
O163 O 0.71377 0.79761 0.77263 0.0
O164 O 0.71837 0.74598 0.68145 0.0
O165 O 0.75103 0.69572 0.68457 0.0
C166 C 0.71326 0.68739 0.82324 0.0
C167 C 0.73905 0.72251 0.6611 0.0
C168 C 0.40127 0.48269 0.44561 0.0
C169 C 0.46791 0.59236 0.50749 0.0
O170 O 0.38687 0.514 0.44996 0.0
Zn171 Zn 0.43127 0.54057 0.47439 0.0
O172 O 0.43497 0.47869 0.45738 0.0
Zn173 Zn 0.48105 0.50845 0.48299 0.0
O174 O 0.49173 0.4883 0.54597 0.0
O175 O 0.43943 0.51818 0.54283 0.0
O176 O 0.48628 0.56321 0.50264 0.0
O177 O 0.43424 0.59265 0.49504 0.0
O178 O 0.46694 0.53996 0.41434 0.0
O179 O 0.51532 0.50625 0.42994 0.0
C180 C 0.4633 0.50055 0.56666 0.0
C181 C 0.49766 0.52639 0.40135 0.0
C182 C 0.10557 0.51734 0.05852 0.0
C183 C 0.05615 0.51929 0.89765 0.0
O184 O 0.08134 0.54211 0.05278 0.0
Zn185 Zn 0.04516 0.56015 -0.00271 0.0
O186 O 0.11256 0.49581 0.02458 0.0
Zn187 Zn 0.07781 0.51548 -0.02026 0.0
O188 O 0.10212 0.56884 0.96404 0.0
O189 O 0.06209 0.60957 -0.01223 0.0
O190 O 0.07629 0.49501 0.91605 0.0
O191 O 0.04241 0.54391 0.92426 0.0
O192 O 0.99625 0.55119 0.02312 0.0
O193 O 0.02558 0.50004 0.0121 0.0
C194 C 0.09269 0.60224 0.96838 0.0
C195 C 0.99701 0.5169 0.02692 0.0
C196 C 0.4182 0.56201 0.02593 0.0
C197 C 0.52535 0.49012 0.96518 0.0
O198 O 0.41851 0.52762 0.02088 0.0
Zn199 Zn 0.46897 0.522 -0.00521 0.0
O200 O 0.44604 0.58024 0.01206 0.0
Zn201 Zn 0.49934 0.57226 -0.01763 0.0
O202 O 0.49686 0.59248 0.9177 0.0
O203 O 0.46343 0.54311 0.92611 0.0
O204 O 0.5288 0.52452 0.96693 0.0
O205 O 0.49512 0.47582 0.97807 0.0
O206 O 0.49975 0.5418 0.0533 0.0
O207 O 0.52925 0.59207 0.03405 0.0
C208 C 0.4755 0.56871 0.90013 0.0
C209 C 0.52105 0.56796 0.06452 0.0
C210 C 0.14526 0.43048 0.50232 0.0
C211 C 0.04132 0.49744 0.42819 0.0
O212 O 0.15048 0.46476 0.4981 0.0
Zn213 Zn 0.12066 0.51225 0.47361 0.0
O214 O 0.11502 0.41697 0.48831 0.0
Zn215 Zn 0.09207 0.46228 0.46729 0.0
O216 O 0.12516 0.47709 0.40748 0.0
O217 O 0.15101 0.53005 0.42241 0.0
O218 O 0.04277 0.46389 0.43852 0.0
O219 O 0.06819 0.51776 0.44011 0.0
O220 O 0.11505 0.5407 0.53109 0.0
O221 O 0.08548 0.48868 0.53424 0.0
C222 C 0.14557 0.50352 0.39453 0.0
C223 C 0.09559 0.51825 0.55403 0.0
H224 H 0.92826 0.07133 0.11391 0.0
H225 H 0.8323 1.00348 0.10055 0.0
H226 H 0.82521 1.00364 0.18809 0.0
H227 H 0.96536 0.02669 0.20784 0.0
H228 H 0.98431 0.06594 0.23683 0.0
H229 H 0.97751 0.06619 0.17387 0.0
H230 H 0.93785 0.12394 0.18047 0.0
H231 H 0.94483 0.12435 0.24358 0.0
H232 H 0.89902 0.12456 0.21981 0.0
H233 H 0.83459 1.00454 0.27759 0.0
H234 H 0.85815 1.00704 0.35968 0.0
H235 H 0.94855 0.07409 0.31253 0.0
C236 C 0.90485 0.05786 0.12946 0.0
C237 C 0.88009 0.03835 0.10095 0.0
C238 C 0.85076 0.01947 0.1221 0.0
C239 C 0.84675 0.01931 0.17167 0.0
C240 C 0.87239 0.0381 0.19911 0.0
C241 C 0.90069 0.05733 0.17852 0.0
C242 C 0.92694 0.07209 0.21521 0.0
C243 C 0.9658 0.0568 0.20799 0.0
C244 C 0.92714 0.11371 0.21474 0.0
C245 C 0.90958 0.05754 0.25985 0.0
C246 C 0.87801 0.03823 0.25008 0.0
C247 C 0.8589 0.02013 0.28565 0.0
C248 C 0.87255 0.02161 0.33218 0.0
C249 C 0.90506 0.04098 0.34272 0.0
C250 C 0.92333 0.05952 0.30595 0.0
H251 H 0.28623 0.84483 0.383 0.0
H252 H 0.25246 0.73339 0.36276 0.0
H253 H 0.24659 0.726 0.44957 0.0
H254 H 0.33647 0.83339 0.4936 0.0
H255 H 0.32012 0.87555 0.51785 0.0
H256 H 0.32517 0.87047 0.45482 0.0
H257 H 0.25719 0.88875 0.44362 0.0
H258 H 0.25175 0.89322 0.50667 0.0
H259 H 0.22197 0.86352 0.47371 0.0
H260 H 0.24548 0.73091 0.5388 0.0
H261 H 0.24676 0.74845 0.62348 0.0
H262 H 0.27397 0.85855 0.58418 0.0
C263 C 0.27855 0.81863 0.39704 0.0
C264 C 0.27067 0.78934 0.36657 0.0
C265 C 0.25919 0.75588 0.38582 0.0
C266 C 0.25567 0.75152 0.43494 0.0
C267 C 0.26288 0.7812 0.46406 0.0
C268 C 0.27387 0.81417 0.44581 0.0
C269 C 0.27752 0.84245 0.48439 0.0
C270 C 0.31717 0.85626 0.48787 0.0
C271 C 0.25049 0.87383 0.47662 0.0
C272 C 0.26714 0.8202 0.52727 0.0
C273 C 0.25921 0.78482 0.51489 0.0
C274 C 0.25107 0.75866 0.54883 0.0
C275 C 0.25167 0.76883 0.59669 0.0
C276 C 0.25939 0.80498 0.6099 0.0
C277 C 0.26672 0.83103 0.57472 0.0
H278 H 0.63223 0.92788 0.81428 0.0
H279 H 0.68352 0.03033 0.8499 0.0
H280 H 0.70182 0.03808 0.76646 0.0
H281 H 0.69978 0.90108 0.71923 0.0
H282 H 0.66405 0.88109 0.68378 0.0
H283 H 0.66072 0.88056 0.74741 0.0
H284 H 0.59737 0.91199 0.74236 0.0
H285 H 0.60047 0.91263 0.67897 0.0
H286 H 0.59323 0.95426 0.71096 0.0
H287 H 0.70308 0.04065 0.67798 0.0
H288 H 0.69012 0.03592 0.59218 0.0
H289 H 0.64193 0.93024 0.61378 0.0
C290 C 0.64824 0.95146 0.80482 0.0
C291 C 0.65647 0.97849 0.83869 0.0
C292 C 0.67712 1.00912 0.82473 0.0
C293 C 0.68768 0.01373 0.77736 0.0
C294 C 0.67806 0.98713 0.74454 0.0
C295 C 0.65932 0.95626 0.75783 0.0
C296 C 0.6494 0.9333 0.71521 0.0
C297 C 0.66971 0.89685 0.71649 0.0
C298 C 0.60766 0.92776 0.71168 0.0
C299 C 0.66357 0.95709 0.67562 0.0
C300 C 0.68042 0.98785 0.69329 0.0
C301 C 0.69121 0.01612 0.66368 0.0
C302 C 0.68385 0.01324 0.61506 0.0
C303 C 0.66643 0.98214 0.59658 0.0
C304 C 0.65696 0.95343 0.62702 0.0
H305 H 0.22961 0.21219 0.88749 0.0
H306 H 0.34669 0.22791 0.87079 0.0
H307 H 0.35289 0.23727 0.95665 0.0
H308 H 0.21839 0.28073 -0.01789 0.0
H309 H 0.18438 0.25441 0.01288 0.0
H310 H 0.18861 0.25079 0.94953 0.0
H311 H 0.19701 0.18138 0.95718 0.0
H312 H 0.19297 0.18482 0.02048 0.0
H313 H 0.2328 0.16387 -0.00531 0.0
H314 H 0.34788 0.2373 0.04492 0.0
H315 H 0.33047 0.23468 0.12955 0.0
H316 H 0.21635 0.22476 0.08972 0.0
C317 C 0.25644 0.21815 0.90185 0.0
C318 C 0.28765 0.21932 0.87226 0.0
C319 C 0.3223 0.2271 0.89252 0.0
C320 C 0.32616 0.23237 0.94137 0.0
C321 C 0.29505 0.23045 0.96962 0.0
C322 C 0.26072 0.22418 0.95063 0.0
C323 C 0.23185 0.22312 -0.01081 0.0
C324 C 0.20417 0.25412 -0.01694 0.0
C325 C 0.21253 0.18609 -0.00956 0.0
C326 C 0.25548 0.22883 0.03276 0.0
C327 C 0.29191 0.23273 0.02064 0.0
C328 C 0.31936 0.23516 0.05485 0.0
C329 C 0.30931 0.23358 0.10272 0.0
C330 C 0.27214 0.23038 0.11583 0.0
C331 C 0.24488 0.22832 0.08042 0.0
H332 H 0.91391 0.01889 0.61791 0.0
H333 H 0.03171 0.02405 0.60105 0.0
H334 H 0.03879 0.03287 0.68738 0.0
H335 H 0.90863 0.08952 0.70174 0.0
H336 H 0.87224 0.06973 0.7361 0.0
H337 H 0.87618 0.05945 0.67402 0.0
H338 H 0.87874 0.99073 0.69252 0.0
H339 H 0.8739 1.00076 0.75457 0.0
H340 H 0.91206 0.97407 0.73424 0.0
H341 H 0.03293 0.04176 0.77529 0.0
H342 H 1.01452 0.04956 0.85893 0.0
H343 H 0.90034 0.04472 0.81775 0.0
C344 C 0.94122 0.02069 0.6327 0.0
C345 C 0.9724 0.01984 0.60312 0.0
C346 C 1.00761 0.02393 0.62334 0.0
C347 C 1.01184 0.02916 0.67223 0.0
C348 C 0.98051 0.03098 0.70028 0.0
C349 C 0.94586 0.02681 0.68133 0.0
C350 C 0.91664 0.03212 0.71885 0.0
C351 C 0.89198 0.06464 0.70696 0.0
C352 C 0.89401 0.99735 0.72543 0.0
C353 C 0.94028 0.0398 0.76185 0.0
C354 C 0.97705 0.03872 0.75039 0.0
C355 C 1.00423 0.04309 0.78457 0.0
C356 C 0.99357 0.04775 0.83187 0.0
C357 C 0.95611 0.04879 0.84441 0.0
C358 C 0.92916 0.04536 0.8088 0.0
H359 H 0.77819 0.33839 0.37078 0.0
H360 H 0.66633 0.35576 0.32425 0.0
H361 H 0.64508 0.35111 0.40682 0.0
H362 H 0.75951 0.27364 0.45692 0.0
H363 H 0.79277 0.28951 0.49927 0.0
H364 H 0.79987 0.29727 0.43712 0.0
H365 H 0.80554 0.36629 0.45207 0.0
H366 H 0.7991 0.35869 0.51446 0.0
H367 H 0.76958 0.38967 0.48328 0.0
H368 H 0.63508 0.33561 0.49373 0.0
H369 H 0.63884 0.32056 0.57932 0.0
H370 H 0.75719 0.31846 0.56957 0.0
C371 C 0.74935 0.34224 0.37805 0.0
C372 C 0.72402 0.34763 0.34083 0.0
C373 C 0.68642 0.35205 0.35201 0.0
C374 C 0.67398 0.34915 0.39889 0.0
C375 C 0.6995 0.34251 0.4345 0.0
C376 C 0.73653 0.34004 0.42477 0.0
C377 C 0.75827 0.33232 0.46932 0.0
C378 C 0.7788 0.29603 0.4654 0.0
C379 C 0.78468 0.36361 0.48044 0.0
C380 C 0.72769 0.33021 0.50542 0.0
C381 C 0.6939 0.33566 0.48467 0.0
C382 C 0.66148 0.33212 0.51054 0.0
C383 C 0.66378 0.32339 0.55896 0.0
C384 C 0.69824 0.31905 0.58103 0.0
C385 C 0.73047 0.32252 0.55375 0.0
H386 H 0.64071 0.98928 0.11635 0.0
H387 H 0.52375 0.9896 0.09092 0.0
H388 H 0.51257 0.98284 0.17692 0.0
H389 H 0.63825 0.91969 0.20285 0.0
H390 H 0.67447 0.93825 0.2388 0.0
H391 H 0.67347 0.94704 0.17615 0.0
H392 H 0.67453 0.0162 0.19187 0.0
H393 H 0.67629 1.00762 0.25453 0.0
H394 H 0.6407 0.03595 0.23047 0.0
H395 H 0.51445 0.97664 0.26583 0.0
H396 H 0.52917 0.97014 0.35094 0.0
H397 H 0.64483 0.96687 0.31734 0.0
C398 C 0.61279 0.98899 0.12919 0.0
C399 C 0.58299 0.99104 0.09743 0.0
C400 C 0.54682 0.98887 0.11501 0.0
C401 C 0.54028 0.98482 0.16366 0.0
C402 C 0.57026 0.98205 0.19405 0.0
C403 C 0.60581 0.98391 0.1775 0.0
C404 C 0.63315 0.97789 0.21714 0.0
C405 C 0.65618 0.94368 0.20819 0.0
C406 C 0.6576 1.01141 0.2239 0.0
C407 C 0.60744 0.97273 0.25869 0.0
C408 C 0.57128 0.97556 0.24465 0.0
C409 C 0.54262 0.97388 0.27713 0.0
C410 C 0.55118 0.97 0.32529 0.0
C411 C 0.58799 0.96702 0.34039 0.0
C412 C 0.61639 0.96783 0.30651 0.0
H413 H 0.77246 0.69349 0.09275 0.0
H414 H 0.74203 0.58044 0.10576 0.0
H415 H 0.72145 0.58066 0.02171 0.0
H416 H 0.69552 0.71981 0.02358 0.0
H417 H 0.72063 0.75209 -0.01152 0.0
H418 H 0.73502 0.74239 0.048 0.0
H419 H 0.79958 0.72543 0.01943 0.0
H420 H 0.78626 0.73574 0.95965 0.0
H421 H 0.80497 0.69186 0.9736 0.0
H422 H 0.70856 0.59344 0.93368 0.0
H423 H 0.69983 0.61824 0.85287 0.0
H424 H 0.73231 0.72445 0.90264 0.0
C425 C 0.76199 0.6685 0.07784 0.0
C426 C 0.75971 0.63658 0.10532 0.0
C427 C 0.74453 0.60495 0.08501 0.0
C428 C 0.73274 0.60495 0.03745 0.0
C429 C 0.73544 0.63707 0.01141 0.0
C430 C 0.74932 0.66836 0.0313 0.0
C431 C 0.74824 0.69981 -0.00301 0.0
C432 C 0.72331 0.7303 0.01534 0.0
C433 C 0.78707 0.71402 -0.01319 0.0
C434 C 0.73196 0.68136 0.95409 0.0
C435 C 0.72518 0.64506 0.96274 0.0
C436 C 0.71306 0.62194 0.92693 0.0
C437 C 0.70814 0.6362 0.88124 0.0
C438 C 0.71449 0.67336 0.87209 0.0
C439 C 0.72607 0.69621 0.90917 0.0
H440 H 0.51769 0.51056 0.63334 0.0
H441 H 0.40045 0.49694 0.61691 0.0
H442 H 0.39112 0.51676 0.69928 0.0
H443 H 0.52069 0.48149 0.76102 0.0
H444 H 0.55597 0.51389 0.77503 0.0
H445 H 0.55356 0.49443 0.71663 0.0
H446 H 0.55131 0.55869 0.68183 0.0
H447 H 0.55177 0.57903 0.73972 0.0
H448 H 0.51529 0.58943 0.6989 0.0
H449 H 0.39349 0.5426 0.78043 0.0
H450 H 0.40838 0.56431 0.86085 0.0
H451 H 0.52387 0.56313 0.82619 0.0
C452 C 0.49025 0.51026 0.64781 0.0
C453 C 0.45977 0.50163 0.61888 0.0
C454 C 0.42417 0.50292 0.63859 0.0
C455 C 0.41857 0.5145 0.68523 0.0
C456 C 0.44887 0.52472 0.71198 0.0
C457 C 0.48412 0.52191 0.69461 0.0
C458 C 0.51167 0.53546 0.73095 0.0
C459 C 0.53697 0.50449 0.74685 0.0
C460 C 0.53379 0.56761 0.71169 0.0
C461 C 0.4863 0.54718 0.77073 0.0
C462 C 0.45019 0.54061 0.75887 0.0
C463 C 0.42165 0.54796 0.79009 0.0
C464 C 0.43029 0.56074 0.83545 0.0
C465 C 0.46708 0.56652 0.84913 0.0
C466 C 0.49542 0.56039 0.81596 0.0
H467 H 0.77283 0.26243 0.85807 0.0
H468 H 0.65781 0.237 0.84015 0.0
H469 H 0.65018 0.23612 0.92707 0.0
H470 H 0.78666 0.20833 0.97062 0.0
H471 H 0.81769 0.24194 -0.00628 0.0
H472 H 0.81517 0.23399 0.93087 0.0
H473 H 0.80197 0.30212 0.91768 0.0
H474 H 0.80365 0.31024 -0.01966 0.0
H475 H 0.7635 0.32282 0.94709 0.0
H476 H 0.65263 0.25092 0.01428 0.0
H477 H 0.66674 0.27139 0.09568 0.0
H478 H 0.781 0.28342 0.05773 0.0
C479 C 0.74637 0.25518 0.87248 0.0
C480 C 0.71597 0.24945 0.84232 0.0
C481 C 0.68162 0.24078 0.86248 0.0
C482 C 0.67699 0.24051 0.91188 0.0
C483 C 0.70717 0.24817 0.94058 0.0
C484 C 0.74146 0.25433 0.9216 0.0
C485 C 0.76888 0.26443 0.95976 0.0
C486 C 0.79887 0.23544 0.96399 0.0
C487 C 0.78545 0.30213 0.95065 0.0
C488 C 0.74437 0.26463 0.00295 0.0
C489 C 0.70885 0.25517 -0.00882 0.0
C490 C 0.68053 0.2573 0.02413 0.0
C491 C 0.68874 0.26918 0.07017 0.0
C492 C 0.72503 0.2784 0.0831 0.0
C493 C 0.7532 0.27561 0.04911 0.0
H494 H 0.10137 0.56285 0.13501 0.0
H495 H 0.14993 0.46173 0.08822 0.0
H496 H 0.17474 0.45188 0.16853 0.0
H497 H 0.17557 0.58843 0.21958 0.0
H498 H 0.14332 0.60712 0.2612 0.0
H499 H 0.13362 0.60856 0.19868 0.0
H500 H 0.07193 0.57565 0.21304 0.0
H501 H 0.08138 0.57425 0.27538 0.0
H502 H 0.07177 0.53291 0.2438 0.0
H503 H 0.18532 0.44822 0.25634 0.0
H504 H 0.18145 0.4519 0.34366 0.0
H505 H 0.12992 0.55707 0.33259 0.0
C506 C 0.11788 0.53898 0.14131 0.0
C507 C 0.12373 0.51308 0.1052 0.0
C508 C 0.14522 0.48207 0.11516 0.0
C509 C 0.15952 0.47629 0.16069 0.0
C510 C 0.15263 0.50204 0.19571 0.0
C511 C 0.13261 0.53298 0.18638 0.0
C512 C 0.12664 0.55511 0.2309 0.0
C513 C 0.14595 0.59199 0.22737 0.0
C514 C 0.08551 0.55971 0.24137 0.0
C515 C 0.14507 0.53104 0.26716 0.0
C516 C 0.1602 0.50067 0.24613 0.0
C517 C 0.1746 0.47237 0.27304 0.0
C518 C 0.17244 0.47469 0.32255 0.0
C519 C 0.15658 0.50531 0.34453 0.0
C520 C 0.14374 0.53421 0.31651 0.0
H521 H 0.74294 0.6658 0.5994 0.0
H522 H 0.74654 0.78304 0.60622 0.0
H523 H 0.75259 0.78562 0.51895 0.0
H524 H 0.80606 0.65292 0.5032 0.0
H525 H 0.78019 0.61661 0.4767 0.0
H526 H 0.7779 0.62413 0.53958 0.0
H527 H 0.70692 0.62987 0.53446 0.0
H528 H 0.70959 0.62163 0.47172 0.0
H529 H 0.68725 0.6618 0.49344 0.0
H530 H 0.76046 0.77498 0.43134 0.0
H531 H 0.76616 0.75238 0.34929 0.0
H532 H 0.75151 0.64229 0.39885 0.0
C533 C 0.74559 0.69199 0.58252 0.0
C534 C 0.74507 0.72427 0.60946 0.0
C535 C 0.74735 0.75806 0.58614 0.0
C536 C 0.75071 0.75973 0.53668 0.0
C537 C 0.75084 0.72739 0.51108 0.0
C538 C 0.74795 0.69416 0.53316 0.0
C539 C 0.74715 0.66351 0.49738 0.0
C540 C 0.77977 0.63778 0.50466 0.0
C541 C 0.71055 0.64299 0.49942 0.0
C542 C 0.75068 0.68461 0.45168 0.0
C543 C 0.75303 0.72141 0.46044 0.0
C544 C 0.7582 0.74629 0.42406 0.0
C545 C 0.7614 0.73323 0.37763 0.0
C546 C 0.75872 0.69571 0.36782 0.0
C547 C 0.75284 0.67117 0.40532 0.0
H548 H 0.47824 0.59227 0.13486 0.0
H549 H 0.58467 0.54586 0.10649 0.0
H550 H 0.59336 0.5346 0.19238 0.0
H551 H 0.50059 0.63339 0.2536 0.0
H552 H 0.45585 0.62209 0.27597 0.0
H553 H 0.46178 0.63242 0.21417 0.0
H554 H 0.43198 0.5711 0.1924 0.0
H555 H 0.42674 0.56002 0.25391 0.0
H556 H 0.45134 0.52975 0.21529 0.0
H557 H 0.58558 0.52003 0.28026 0.0
H558 H 0.5641 0.50734 0.36173 0.0
H559 H 0.46238 0.56329 0.33094 0.0
C560 C 0.50413 0.58145 0.14718 0.0
C561 C 0.53143 0.57113 0.11464 0.0
C562 C 0.56414 0.55517 0.13131 0.0
C563 C 0.56907 0.5484 0.17994 0.0
C564 C 0.54096 0.55777 0.21117 0.0
C565 C 0.50935 0.57453 0.19539 0.0
C566 C 0.48173 0.57882 0.23491 0.0
C567 C 0.47459 0.61907 0.24528 0.0
C568 C 0.44586 0.55871 0.22342 0.0
C569 C 0.50216 0.56087 0.27518 0.0
C570 C 0.53637 0.54908 0.2611 0.0
C571 C 0.55909 0.52974 0.29179 0.0
C572 C 0.5466 0.52248 0.33797 0.0
C573 C 0.51162 0.53442 0.35301 0.0
C574 C 0.48943 0.55404 0.32096 0.0
H575 H 0.22404 0.83337 0.07656 0.0
H576 H 0.32423 0.88558 0.12328 0.0
H577 H 0.33641 0.90523 0.04135 0.0
H578 H 0.25896 0.79785 0.97277 0.0
H579 H 0.218 0.80427 0.93821 0.0
H580 H 0.21481 0.79875 0.0012 0.0
H581 H 0.17962 0.85957 0.00737 0.0
H582 H 0.18294 0.86526 0.94419 0.0
H583 H 0.19967 0.90016 -0.01673 0.0
H584 H 0.34246 0.91097 0.95294 0.0
H585 H 0.34076 0.90299 0.86577 0.0
H586 H 0.23558 0.84992 0.87727 0.0
C587 C 0.24811 0.84967 0.06985 0.0
C588 C 0.27309 0.85804 0.10649 0.0
C589 C 0.30457 0.87895 0.09591 0.0
C590 C 0.31169 0.89034 0.04945 0.0
C591 C 0.28688 0.88096 0.01399 0.0
C592 C 0.25556 0.86132 0.02374 0.0
C593 C 0.23483 0.85213 0.97889 0.0
C594 C 0.23148 0.81082 0.97241 0.0
C595 C 0.19703 0.87038 0.97842 0.0
C596 C 0.25996 0.86867 0.94225 0.0
C597 C 0.28975 0.88543 0.96313 0.0
C598 C 0.31872 0.89897 0.9362 0.0
C599 C 0.31754 0.89452 0.88684 0.0
C600 C 0.28738 0.87723 0.86521 0.0
C601 C 0.25804 0.86479 0.89313 0.0
H602 H 0.07252 0.46908 0.82779 0.0
H603 H 0.03563 0.57967 0.84929 0.0
H604 H 0.04036 0.59103 0.76383 0.0
H605 H 0.13721 0.48687 0.7391 0.0
H606 H 0.12743 0.44729 0.70391 0.0
H607 H 0.11918 0.44665 0.76667 0.0
H608 H 0.05155 0.42867 0.75207 0.0
H609 H 0.05973 0.42884 0.68922 0.0
H610 H 0.02354 0.45617 0.71378 0.0
H611 H 0.05668 0.59306 0.67759 0.0
H612 H 0.07449 0.58234 0.59412 0.0
H613 H 0.09515 0.46945 0.62637 0.0
C614 C 0.06471 0.49542 0.81436 0.0
C615 C 0.05363 0.5234 0.84545 0.0
C616 C 0.04388 0.55761 0.82638 0.0
C617 C 0.04668 0.56447 0.77778 0.0
C618 C 0.05857 0.53669 0.74829 0.0
C619 C 0.06659 0.50257 0.76559 0.0
C620 C 0.07876 0.47756 0.72597 0.0
C621 C 0.11797 0.4638 0.73444 0.0
C622 C 0.05178 0.44594 0.7199 0.0
C623 C 0.07714 0.50322 0.68412 0.0
C624 C 0.06584 0.53733 0.69787 0.0
C625 C 0.06482 0.56627 0.66616 0.0
C626 C 0.07516 0.56006 0.61898 0.0
C627 C 0.08561 0.52506 0.60388 0.0
C628 C 0.08651 0.49633 0.63691 0.0
H629 H 0.28939 0.16905 0.38399 0.0
H630 H 0.17117 0.17725 0.37925 0.0
H631 H 0.16801 0.16029 0.46395 0.0
H632 H 0.29733 0.0954 0.47311 0.0
H633 H 0.33596 0.11665 0.50155 0.0
H634 H 0.32855 0.12269 0.43899 0.0
H635 H 0.32893 0.19238 0.45023 0.0
H636 H 0.33651 0.18653 0.51259 0.0
H637 H 0.29795 0.21268 0.4922 0.0
H638 H 0.17821 0.14721 0.55057 0.0
H639 H 0.20059 0.14719 0.63301 0.0
H640 H 0.31248 0.15223 0.58217 0.0
C641 C 0.26282 0.1661 0.4005 0.0
C642 C 0.23043 0.17355 0.37501 0.0
C643 C 0.19621 0.17109 0.39816 0.0
C644 C 0.19419 0.16132 0.44612 0.0
C645 C 0.22671 0.15464 0.47057 0.0
C646 C 0.26042 0.15734 0.44862 0.0
C647 C 0.2914 0.15391 0.48404 0.0
C648 C 0.31468 0.12015 0.4738 0.0
C649 C 0.31507 0.18843 0.48481 0.0
C650 C 0.26992 0.14963 0.52951 0.0
C651 C 0.23267 0.14916 0.52089 0.0
C652 C 0.20733 0.14718 0.55766 0.0
C653 C 0.22033 0.14696 0.60446 0.0
C654 C 0.25832 0.14949 0.61413 0.0
C655 C 0.28332 0.14984 0.57597 0.0
H656 H 0.06638 0.04402 0.06164 0.0
H657 H 0.96972 0.11265 0.06014 0.0
H658 H 1.0013 0.15735 0.10918 0.0
H659 H 0.09429 0.06526 0.183 0.0
H660 H 0.14259 0.06641 0.17005 0.0
H661 H 0.11251 0.03811 0.13549 0.0
H662 H 0.13472 0.06942 0.0588 0.0
H663 H 0.16495 0.09769 0.09314 0.0
H664 H 0.13189 0.11802 0.05398 0.0
H665 H 0.04231 0.19604 0.15732 0.0
H666 H 0.09179 0.22706 0.20051 0.0
H667 H 0.1643 0.13642 0.17203 0.0
C668 C 0.05194 0.06843 0.07167 0.0
C669 C 1.01532 0.07448 0.05638 0.0
C670 C 0.99768 0.10704 0.07057 0.0
C671 C 1.01538 0.13282 0.09882 0.0
C672 C 0.05123 0.12633 0.1129 0.0
C673 C 0.06958 0.09513 0.09981 0.0
C674 C 0.10857 0.09597 0.11932 0.0
C675 C 0.11485 0.06457 0.15403 0.0
C676 C 0.13669 0.09523 0.0789 0.0
C677 C 0.10899 0.13243 0.14497 0.0
C678 C 0.07542 0.14922 0.14086 0.0
C679 C 0.06876 0.18313 0.16087 0.0
C680 C 0.09716 0.20061 0.18547 0.0
C681 C 0.13215 0.18442 0.19006 0.0
C682 C 0.13791 0.14963 0.16954 0.0
H683 H 0.02375 0.9473 0.39585 0.0
H684 H 0.09354 0.0425 0.39118 0.0
H685 H 0.13907 1.00848 0.34528 0.0
H686 H 0.09781 0.88179 0.40831 0.0
H687 H 0.07652 0.84799 0.37136 0.0
H688 H 0.04862 0.87959 0.40392 0.0
H689 H 1.01693 0.89909 0.32611 0.0
H690 H 0.04494 0.86773 0.29326 0.0
H691 H 0.04438 0.91499 0.27741 0.0
H692 H 0.17735 0.96554 0.29999 0.0
H693 H 0.20822 0.91476 0.26074 0.0
H694 H 0.11592 0.84483 0.29268 0.0
C695 C 0.04868 0.96092 0.38533 0.0
C696 C 0.05479 0.99787 0.39745 0.0
C697 C 0.08789 0.01444 0.3827 0.0
C698 C 0.11405 0.9953 0.35636 0.0
C699 C 0.10712 0.95929 0.34471 0.0
C700 C 0.07545 0.94201 0.35883 0.0
C701 C 0.07556 0.90274 0.34171 0.0
C702 C 0.07457 0.87647 0.38384 0.0
C703 C 0.04354 0.89573 0.30759 0.0
C704 C 0.11224 0.90081 0.31594 0.0
C705 C 0.12969 0.93398 0.31819 0.0
C706 C 0.16396 0.93944 0.29802 0.0
C707 C 0.18131 0.91024 0.27568 0.0
C708 C 0.16471 0.87554 0.27328 0.0
C709 C 0.12929 0.87098 0.29329 0.0
H710 H 0.36905 0.89968 0.67064 0.0
H711 H 0.43156 0.80256 0.7016 0.0
H712 H 0.48381 0.82738 0.65672 0.0
H713 H 0.40154 0.91203 0.55222 0.0
H714 H 0.40348 0.96074 0.55559 0.0
H715 H 0.37113 0.93614 0.59132 0.0
H716 H 0.39717 0.9663 0.66689 0.0
H717 H 0.42948 0.99119 0.63143 0.0
H718 H 0.44547 0.96315 0.67932 0.0
H719 H 0.52844 0.86133 0.60621 0.0
H720 H 0.56399 0.90272 0.55646 0.0
H721 H 0.47422 0.97988 0.55798 0.0
C722 C 0.39383 0.8837 0.66839 0.0
C723 C 0.39602 0.84898 0.69002 0.0
C724 C 0.42903 0.82912 0.68574 0.0
C725 C 0.45891 0.84303 0.66015 0.0
C726 C 0.45565 0.87703 0.63896 0.0
C727 C 0.42408 0.89729 0.64303 0.0
C728 C 0.42783 0.93303 0.61641 0.0
C729 C 0.3993 0.93562 0.57652 0.0
C730 C 0.42481 0.96533 0.65055 0.0
C731 C 0.46644 0.92964 0.59653 0.0
C732 C 0.48175 0.89696 0.60999 0.0
C733 C 0.51672 0.88698 0.59561 0.0
C734 C 0.5367 0.91084 0.56698 0.0
C735 C 0.52213 0.94482 0.55272 0.0
C736 C 0.48633 0.95427 0.56804 0.0
H737 H 0.433 0.15158 0.78352 0.0
H738 H 0.33777 0.0818 0.77236 0.0
H739 H 0.37171 0.03275 0.81187 0.0
H740 H 0.50226 0.08068 0.7656 0.0
H741 H 0.53361 0.09947 0.80836 0.0
H742 H 0.50272 0.12877 0.77665 0.0
H743 H 0.47778 0.15336 0.8561 0.0
H744 H 0.50839 0.12396 0.88805 0.0
H745 H 0.45986 0.12213 0.89924 0.0
H746 H 0.41483 0.9914 0.85426 0.0
H747 H 0.46455 0.96017 0.89657 0.0
H748 H 0.53271 0.056 0.88379 0.0
C749 C 0.41952 0.12578 0.78873 0.0
C750 C 0.3826 0.12062 0.77434 0.0
C751 C 0.36589 0.08658 0.78281 0.0
C752 C 0.385 0.05845 0.8053 0.0
C753 C 0.42097 0.06454 0.81972 0.0
C754 C 0.4382 0.0973 0.81181 0.0
C755 C 0.47675 0.09682 0.83255 0.0
C756 C 0.50554 0.10173 0.79345 0.0
C757 C 0.48093 0.12579 0.87129 0.0
C758 C 0.47834 0.05879 0.8534 0.0
C759 C 0.44582 0.04071 0.84527 0.0
C760 C 0.44042 1.0053 0.86078 0.0
C761 C 0.46896 0.98775 0.88493 0.0
C762 C 0.50274 1.00544 0.89389 0.0
C763 C 0.50726 0.04165 0.87792 0.0
H764 H 0.88864 0.88316 0.96169 0.0
H765 H 0.89046 0.97164 0.86071 0.0
H766 H 0.85147 0.9368 0.80665 0.0
H767 H 0.88795 0.80891 0.87146 0.0
H768 H 0.85684 0.78093 0.90478 0.0
H769 H 0.88754 0.81132 0.93517 0.0
H770 H 0.83233 0.8408 0.97775 0.0
H771 H 0.8016 0.81059 0.94725 0.0
H772 H 0.79514 0.85886 0.94309 0.0
H773 H 0.80699 0.89702 0.76705 0.0
H774 H 0.7633 0.85046 0.73983 0.0
H775 H 0.79045 0.7839 0.86115 0.0
C776 C 0.88148 0.89467 0.92773 0.0
C777 C 0.89278 0.93029 0.91554 0.0
C778 C 0.88213 0.9446 0.87107 0.0
C779 C 0.85992 0.92499 0.83994 0.0
C780 C 0.84829 0.89065 0.85326 0.0
C781 C 0.8589 0.87517 0.89568 0.0
C782 C 0.84097 0.838 0.90109 0.0
C783 C 0.87007 0.80801 0.90325 0.0
C784 C 0.81604 0.83702 0.94489 0.0
C785 C 0.81857 0.83554 0.8555 0.0
C786 C 0.82319 0.86651 0.82883 0.0
C787 C 0.80369 0.87229 0.78708 0.0
C788 C 0.77886 0.84574 0.77189 0.0
C789 C 0.77403 0.81334 0.79771 0.0
C790 C 0.79434 0.80806 0.84005 0.0
H791 H 0.79187 0.20996 0.65168 0.0
H792 H 0.86352 0.30328 0.66342 0.0
H793 H 0.90953 0.27207 0.6139 0.0
H794 H 0.86426 0.14192 0.65675 0.0
H795 H 0.84184 0.11224 0.6152 0.0
H796 H 0.81503 0.14169 0.65235 0.0
H797 H 0.78389 0.16878 0.57797 0.0
H798 H 0.81084 0.13968 0.54053 0.0
H799 H 0.81181 0.18802 0.53184 0.0
H800 H 0.94699 0.23124 0.5598 0.0
H801 H 0.97453 0.18268 0.51122 0.0
H802 H 0.87904 0.11542 0.53614 0.0
C803 C 0.81737 0.22378 0.64426 0.0
C804 C 0.82396 0.25922 0.66169 0.0
C805 C 0.85777 0.27615 0.65089 0.0
C806 C 0.88406 0.25866 0.62252 0.0
C807 C 0.87641 0.22401 0.60536 0.0
C808 C 0.84406 0.20657 0.61633 0.0
C809 C 0.84265 0.16924 0.59375 0.0
C810 C 0.84084 0.13952 0.63177 0.0
C811 C 0.81038 0.16627 0.55896 0.0
C812 C 0.87907 0.16852 0.56791 0.0
C813 C 0.8981 0.20042 0.57491 0.0
C814 C 0.93232 0.20612 0.55429 0.0
C815 C 0.94771 0.17837 0.5265 0.0
C816 C 0.92906 0.1451 0.51953 0.0
C817 C 0.89409 0.14047 0.54045 0.0
H818 H 0.68853 0.22997 0.28814 0.0
H819 H 0.79969 0.18851 0.29306 0.0
H820 H 0.77926 0.13934 0.346 0.0
H821 H 0.66596 0.21147 0.40991 0.0
H822 H 0.61936 0.19842 0.39762 0.0
H823 H 0.64231 0.23036 0.35969 0.0
H824 H 0.62889 0.18979 0.28692 0.0
H825 H 0.60555 0.15794 0.32452 0.0
H826 H 0.64286 0.14297 0.28768 0.0
H827 H 0.74717 0.09481 0.3984 0.0
H828 H 0.70536 0.05553 0.44311 0.0
H829 H 0.61399 0.12504 0.40581 0.0
C830 C 0.7086 0.21041 0.30001 0.0
C831 C 0.74588 0.21319 0.28603 0.0
C832 C 0.77109 0.18705 0.30287 0.0
C833 C 0.75972 0.15905 0.33321 0.0
C834 C 0.72299 0.15743 0.34668 0.0
C835 C 0.69771 0.18225 0.33044 0.0
C836 C 0.65978 0.17406 0.35012 0.0
C837 C 0.64605 0.20545 0.38118 0.0
C838 C 0.63267 0.16569 0.30991 0.0
C839 C 0.66759 0.14052 0.37969 0.0
C840 C 0.70435 0.13167 0.37726 0.0
C841 C 0.71839 0.10154 0.40053 0.0
C842 C 0.69428 0.07935 0.42596 0.0
C843 C 0.65625 0.08708 0.42833 0.0
C844 C 0.6429 0.11859 0.4054 0.0
H845 H 0.77829 0.80332 0.14864 0.0
H846 H 0.69688 0.7193 0.17285 0.0
H847 H 0.65425 0.75027 0.12074 0.0
H848 H 0.71121 0.87806 0.14691 0.0
H849 H 0.73438 0.90291 0.10099 0.0
H850 H 0.76015 0.87421 0.14034 0.0
H851 H 0.78662 0.83984 0.06803 0.0
H852 H 0.7605 0.86812 0.02856 0.0
H853 H 0.75574 0.81958 0.02585 0.0
H854 H 0.62062 0.78651 0.06319 0.0
H855 H 0.59358 0.83272 0.0115 0.0
H856 H 0.69189 0.89811 0.02581 0.0
C857 C 0.75137 0.79176 0.14339 0.0
C858 C 0.74146 0.75857 0.16541 0.0
C859 C 0.70573 0.74454 0.15711 0.0
C860 C 0.681 0.76188 0.12713 0.0
C861 C 0.69162 0.79388 0.10559 0.0
C862 C 0.72551 0.80934 0.1138 0.0
C863 C 0.72862 0.8449 0.08661 0.0
C864 C 0.7339 0.87692 0.12075 0.0
C865 C 0.75973 0.84299 0.0501 0.0
C866 C 0.6913 0.84657 0.06226 0.0
C867 C 0.67092 0.81631 0.07324 0.0
C868 C 0.63609 0.81061 0.05462 0.0
C869 C 0.621 0.83703 0.02496 0.0
C870 C 0.64035 0.86928 0.01449 0.0
C871 C 0.67628 0.87384 0.03312 0.0
H872 H 0.54109 0.60329 0.51615 0.0
H873 H 0.43691 0.64798 0.56054 0.0
H874 H 0.46961 0.68828 0.6171 0.0
H875 H 0.58019 0.59703 0.62663 0.0
H876 H 0.62585 0.60857 0.60808 0.0
H877 H 0.59464 0.58787 0.56689 0.0
H878 H 0.60417 0.64135 0.50917 0.0
H879 H 0.63514 0.6625 0.55048 0.0
H880 H 0.59585 0.68701 0.52911 0.0
H881 H 0.51551 0.72056 0.67428 0.0
H882 H 0.56812 0.74114 0.72319 0.0
H883 H 0.6402 0.67099 0.64297 0.0
C884 C 0.52501 0.6222 0.53681 0.0
C885 C 0.48629 0.62261 0.53344 0.0
C886 C 0.46653 0.64756 0.56169 0.0
C887 C 0.48496 0.67033 0.59425 0.0
C888 C 0.52314 0.66793 0.59801 0.0
C889 C 0.54283 0.64466 0.56941 0.0
C890 C 0.58325 0.64513 0.58163 0.0
C891 C 0.59675 0.6074 0.59669 0.0
C892 C 0.60592 0.65988 0.5401 0.0
C893 C 0.58335 0.67131 0.62282 0.0
C894 C 0.54868 0.68488 0.63138 0.0
C895 C 0.54264 0.70996 0.66765 0.0
C896 C 0.57268 0.72145 0.69541 0.0
C897 C 0.60827 0.70732 0.68751 0.0
C898 C 0.61332 0.68189 0.65064 0.0
H899 H 0.5253 0.42995 0.90504 0.0
H900 H 0.59686 0.50507 0.97846 0.0
H901 H 0.64985 0.48103 0.93489 0.0
H902 H 0.59241 0.35385 0.89917 0.0
H903 H 0.57789 0.34026 0.84084 0.0
H904 H 0.54573 0.36116 0.88073 0.0
H905 H 0.53168 0.41036 0.8176 0.0
H906 H 0.56393 0.38938 0.77795 0.0
H907 H 0.56893 0.43646 0.79341 0.0
H908 H 0.69458 0.4534 0.87837 0.0
H909 H 0.72938 0.4184 0.81903 0.0
H910 H 0.63049 0.35958 0.78202 0.0
C911 C 0.55231 0.44039 0.91303 0.0
C912 C 0.55688 0.46919 0.94574 0.0
C913 C 0.59262 0.48289 0.95394 0.0
C914 C 0.62297 0.46952 0.92914 0.0
C915 C 0.6175 0.4422 0.89595 0.0
C916 C 0.58324 0.42726 0.88829 0.0
C917 C 0.58518 0.39876 0.84938 0.0
C918 C 0.57468 0.36128 0.86869 0.0
C919 C 0.56097 0.40938 0.80709 0.0
C920 C 0.62562 0.40038 0.83637 0.0
C921 C 0.64364 0.42583 0.86352 0.0
C922 C 0.68082 0.4331 0.85719 0.0
C923 C 0.70037 0.41325 0.82305 0.0
C924 C 0.68291 0.38617 0.79559 0.0
C925 C 0.64483 0.38005 0.8023 0.0
H926 H 0.89082 0.35141 0.15567 0.0
H927 H 0.79554 0.42142 0.1617 0.0
H928 H 0.83069 0.47006 0.12281 0.0
H929 H 0.95937 0.42128 0.17646 0.0
H930 H 0.99199 0.40237 0.13551 0.0
H931 H 0.95984 0.37322 0.16521 0.0
H932 H 0.93732 0.34903 0.0843 0.0
H933 H 0.96931 0.37819 0.05435 0.0
H934 H 0.92123 0.38051 0.04024 0.0
H935 H 0.87634 0.51187 0.08354 0.0
H936 H 0.9282 0.54287 0.0451 0.0
H937 H 0.99422 0.4459 0.06056 0.0
C938 C 0.87741 0.37706 0.14915 0.0
C939 C 0.8402 0.38241 0.16226 0.0
C940 C 0.82382 0.41639 0.1523 0.0
C941 C 0.84366 0.44433 0.13015 0.0
C942 C 0.88004 0.43811 0.11747 0.0
C943 C 0.89679 0.40528 0.12642 0.0
C944 C 0.93604 0.40553 0.10798 0.0
C945 C 0.96343 0.40029 0.14872 0.0
C946 C 0.94127 0.37659 0.06942 0.0
C947 C 0.93872 0.44358 0.08736 0.0
C948 C 0.9061 0.46193 0.09356 0.0
C949 C 0.90193 0.49764 0.07838 0.0
C950 C 0.93169 0.51509 0.05649 0.0
C951 C 0.96551 0.49701 0.04928 0.0
C952 C 0.96878 0.46056 0.06495 0.0
H953 H 0.03165 0.56826 0.39847 0.0
H954 H 0.98054 0.46218 0.39368 0.0
H955 H 0.93043 0.48735 0.34504 0.0
H956 H 0.94859 0.61998 0.40799 0.0
H957 H 0.96442 0.65654 0.3711 0.0
H958 H 0.99679 0.63009 0.40448 0.0
H959 H 0.03214 0.61538 0.32742 0.0
H960 H 0.99973 0.64167 0.29379 0.0
H961 H 1.00816 0.59504 0.27837 0.0
H962 H 0.88548 0.52379 0.29784 0.0
H963 H 0.84659 0.56922 0.2591 0.0
H964 H 0.92556 0.65309 0.29356 0.0
C965 C 1.00989 0.55026 0.38733 0.0
C966 C 1.01018 0.51303 0.40027 0.0
C967 C 0.98109 0.49065 0.3846 0.0
C968 C 0.95251 0.50473 0.35671 0.0
C969 C 0.95322 0.54136 0.34447 0.0
C970 C 0.98104 0.56392 0.35941 0.0
C971 C 0.9747 0.6025 0.342 0.0
C972 C 0.97089 0.62883 0.38389 0.0
C973 C 1.00552 0.61434 0.30841 0.0
C974 C 0.93861 0.59826 0.31555 0.0
C975 C 0.92706 0.56259 0.31718 0.0
C976 C 0.89432 0.55173 0.29637 0.0
C977 C 0.87236 0.57792 0.27434 0.0
C978 C 0.8828 0.61496 0.27299 0.0
C979 C 0.91688 0.62506 0.29331 0.0
H980 H 0.24273 0.36282 0.31345 0.0
H981 H 0.32212 0.27518 0.31925 0.0
H982 H 0.3648 0.31444 0.36164 0.0
H983 H 0.30868 0.43484 0.2948 0.0
H984 H 0.28613 0.46758 0.33208 0.0
H985 H 0.25979 0.43273 0.30317 0.0
H986 H 0.2339 0.41225 0.38396 0.0
H987 H 0.26 0.44725 0.41299 0.0
H988 H 0.265 0.40075 0.43114 0.0
H989 H 0.39974 0.36086 0.4027 0.0
H990 H 0.42763 0.41442 0.43813 0.0
H991 H 0.3294 0.47675 0.40751 0.0
C992 C 0.26908 0.35197 0.3237 0.0
C993 C 0.27872 0.31548 0.31251 0.0
C994 C 0.31366 0.30269 0.32679 0.0
C995 C 0.33831 0.32486 0.35125 0.0
C996 C 0.32818 0.36028 0.36163 0.0
C997 C 0.29459 0.37412 0.3484 0.0
C998 C 0.2918 0.41384 0.36389 0.0
C999 C 0.28628 0.43871 0.32092 0.0
C1000 C 0.26084 0.41881 0.40015 0.0
C1001 C 0.32934 0.41994 0.38687 0.0
C1002 C 0.34931 0.38821 0.38539 0.0
C1003 C 0.38445 0.38594 0.404 0.0
C1004 C 0.40012 0.41686 0.4242 0.0
C1005 C 0.38113 0.45039 0.42582 0.0
C1006 C 0.34486 0.45175 0.40705 0.0
H1007 H 0.4206 0.62941 0.06615 0.0
H1008 H 0.34667 0.53941 0.04212 0.0
H1009 H 0.29695 0.57373 0.08211 0.0
H1010 H 0.38712 0.65197 0.1825 0.0
H1011 H 0.39356 0.69996 0.17439 0.0
H1012 H 0.42249 0.66828 0.14358 0.0
H1013 H 0.4046 0.69745 0.06355 0.0
H1014 H 0.37567 0.7293 0.09399 0.0
H1015 H 0.35693 0.70121 0.04774 0.0
H1016 H 0.25418 0.62079 0.12349 0.0
H1017 H 0.22476 0.67297 0.16369 0.0
H1018 H 0.32847 0.73013 0.16252 0.0
C1019 C 0.39392 0.61681 0.06896 0.0
C1020 C 0.38758 0.58168 0.0503 0.0
C1021 C 0.35231 0.56623 0.05581 0.0
C1022 C 0.32387 0.58562 0.07851 0.0
C1023 C 0.33114 0.62033 0.09623 0.0
C1024 C 0.36555 0.63551 0.09197 0.0
C1025 C 0.36699 0.67278 0.11459 0.0
C1026 C 0.39414 0.67326 0.15623 0.0
C1027 C 0.37661 0.7019 0.07777 0.0
C1028 C 0.32782 0.67677 0.13166 0.0
C1029 C 0.30739 0.64635 0.12081 0.0
C1030 C 0.27018 0.64454 0.13229 0.0
C1031 C 0.25361 0.67441 0.15517 0.0
C1032 C 0.27413 0.70584 0.16674 0.0
C1033 C 0.31183 0.70659 0.15476 0.0
H1034 H 0.25743 0.69081 0.81547 0.0
H1035 H 0.20074 0.79336 0.83243 0.0
H1036 H 0.15443 0.76375 0.88195 0.0
H1037 H 0.17533 0.63614 0.8066 0.0
H1038 H 0.19378 0.59831 0.83903 0.0
H1039 H 0.22392 0.62753 0.80614 0.0
H1040 H 0.26188 0.63937 0.882 0.0
H1041 H 0.23173 0.61028 0.91514 0.0
H1042 H 0.23932 0.65626 0.93426 0.0
H1043 H 0.1134 0.72378 0.92935 0.0
H1044 H 0.07858 0.67507 0.96824 0.0
H1045 H 0.15905 0.59665 0.92036 0.0
C1046 C 0.2353 0.70698 0.82969 0.0
C1047 C 0.23293 0.7446 0.81961 0.0
C1048 C 0.20328 0.76458 0.83895 0.0
C1049 C 0.17677 0.748 0.86749 0.0
C1050 C 0.17969 0.71108 0.87653 0.0
C1051 C 0.20799 0.69062 0.85805 0.0
C1052 C 0.20356 0.65103 0.87229 0.0
C1053 C 0.19887 0.62683 0.8284 0.0
C1054 C 0.23606 0.6385 0.90273 0.0
C1055 C 0.1684 0.6526 0.9013 0.0
C1056 C 0.1554 0.68766 0.90353 0.0
C1057 C 0.12334 0.6962 0.92786 0.0
C1058 C 0.10371 0.66823 0.95001 0.0
C1059 C 0.11585 0.63181 0.94773 0.0
C1060 C 0.14895 0.62412 0.92317 0.0
H1061 H 0.13744 0.364 0.54659 0.0
H1062 H 0.21818 0.44578 0.51148 0.0
H1063 H 0.26544 0.41103 0.55442 0.0
H1064 H 0.16917 0.34799 0.66395 0.0
H1065 H 0.16056 0.29993 0.66286 0.0
H1066 H 0.1335 0.32985 0.62673 0.0
H1067 H 0.15099 0.29309 0.55197 0.0
H1068 H 0.17788 0.26286 0.58794 0.0
H1069 H 0.19862 0.28567 0.53842 0.0
H1070 H 0.30422 0.36748 0.60336 0.0
H1071 H 0.3306 0.31895 0.65336 0.0
H1072 H 0.22424 0.26681 0.65909 0.0
C1073 C 0.16517 0.37434 0.54737 0.0
C1074 C 0.174 0.40767 0.52536 0.0
C1075 C 0.21059 0.42042 0.52802 0.0
C1076 C 0.23772 0.40082 0.55237 0.0
C1077 C 0.22799 0.36846 0.57443 0.0
C1078 C 0.19258 0.35527 0.57209 0.0
C1079 C 0.18905 0.3204 0.6002 0.0
C1080 C 0.16143 0.32482 0.64084 0.0
C1081 C 0.17851 0.28863 0.56769 0.0
C1082 C 0.22783 0.31618 0.61891 0.0
C1083 C 0.24999 0.34402 0.60341 0.0
C1084 C 0.28703 0.34559 0.61574 0.0
C1085 C 0.30181 0.31792 0.6443 0.0
C1086 C 0.2796 0.2891 0.66075 0.0
C1087 C 0.24204 0.28858 0.64778 0.0
loop_
_geom_bond_atom_site_label_1
_geom_bond_atom_site_label_2
_geom_bond_distance
_geom_bond_site_symmetry_2
_ccdc_geom_bond_type
C0 O2 1.247 . S
C0 O4 1.258 . S
C1 O8 1.247 . S
C1 O9 1.258 . S
O2 C0 1.247 . S
O2 Zn3 2.030 1_455 S
Zn3 O2 2.030 1_655 S
Zn3 O7 2.027 1_554 S
Zn3 O9 2.033 1_544 S
Zn3 O10 2.036 . S
O4 C0 1.258 . S
O4 Zn5 2.034 1_544 S
Zn5 O4 2.034 1_566 S
Zn5 O6 2.031 . S
Zn5 O8 2.029 1_455 S
Zn5 O11 2.032 1_556 S
O6 Zn5 2.031 . S
O6 C12 1.247 1_565 S
O7 Zn3 2.027 1_556 S
O7 C12 1.258 1_655 S
O8 C1 1.247 . S
O8 Zn5 2.029 1_655 S
O9 C1 1.258 . S
O9 Zn3 2.033 1_566 S
O10 Zn3 2.036 . S
O10 C13 1.247 1_545 S
O11 Zn5 2.032 1_554 S
O11 C13 1.258 1_455 S
C12 O6 1.247 1_545 S
C12 O7 1.258 1_455 S
C13 O10 1.247 1_565 S
C13 O11 1.258 1_655 S
C14 O16 1.247 . S
C14 O18 1.258 . S
C15 O22 1.247 . S
C15 O23 1.258 . S
O16 C14 1.247 . S
O16 Zn17 2.028 . S
Zn17 O16 2.028 . S
Zn17 O21 2.035 . S
Zn17 O23 2.035 . S
Zn17 O24 2.028 . S
O18 C14 1.258 . S
O18 Zn19 2.035 . S
Zn19 O18 2.035 . S
Zn19 O20 2.028 . S
Zn19 O22 2.028 . S
Zn19 O25 2.035 . S
O20 Zn19 2.028 . S
O20 C26 1.247 . S
O21 Zn17 2.035 . S
O21 C26 1.258 . S
O22 C15 1.247 . S
O22 Zn19 2.028 . S
O23 C15 1.258 . S
O23 Zn17 2.035 . S
O24 Zn17 2.028 . S
O24 C27 1.247 . S
O25 Zn19 2.035 . S
O25 C27 1.258 . S
C26 O20 1.247 . S
C26 O21 1.258 . S
C27 O24 1.247 . S
C27 O25 1.258 . S
C28 O30 1.247 . S
C28 O32 1.258 1_545 S
C29 O36 1.247 . S
C29 O37 1.258 1_565 S
O30 C28 1.247 . S
O30 Zn31 2.028 . S
Zn31 O30 2.028 . S
Zn31 O35 2.035 . S
Zn31 O37 2.035 . S
Zn31 O38 2.028 1_545 S
O32 C28 1.258 1_565 S
O32 Zn33 2.035 . S
Zn33 O32 2.035 . S
Zn33 O34 2.028 1_565 S
Zn33 O36 2.028 . S
Zn33 O39 2.035 . S
O34 Zn33 2.028 1_545 S
O34 C40 1.247 . S
O35 Zn31 2.035 . S
O35 C40 1.258 . S
O36 C29 1.247 . S
O36 Zn33 2.028 . S
O37 C29 1.258 1_545 S
O37 Zn31 2.035 . S
O38 Zn31 2.028 1_565 S
O38 C41 1.247 . S
O39 Zn33 2.035 . S
O39 C41 1.258 . S
C40 O34 1.247 . S
C40 O35 1.258 . S
C41 O38 1.247 . S
C41 O39 1.258 . S
C42 O44 1.247 . S
C42 O46 1.258 . S
C43 O50 1.247 . S
C43 O51 1.258 . S
O44 C42 1.247 . S
O44 Zn45 2.028 . S
Zn45 O44 2.028 . S
Zn45 O49 2.035 . S
Zn45 O51 2.035 . S
Zn45 O52 2.028 . S
O46 C42 1.258 . S
O46 Zn47 2.035 . S
Zn47 O46 2.035 . S
Zn47 O48 2.028 . S
Zn47 O50 2.028 . S
Zn47 O53 2.035 . S
O48 Zn47 2.028 . S
O48 C54 1.247 . S
O49 Zn45 2.035 . S
O49 C54 1.258 . S
O50 C43 1.247 . S
O50 Zn47 2.028 . S
O51 C43 1.258 . S
O51 Zn45 2.035 . S
O52 Zn45 2.028 . S
O52 C55 1.247 . S
O53 Zn47 2.035 . S
O53 C55 1.258 . S
C54 O48 1.247 . S
C54 O49 1.258 . S
C55 O52 1.247 . S
C55 O53 1.258 . S
C56 O58 1.247 . S
C56 O60 1.258 . S
C57 O64 1.247 . S
C57 O65 1.258 . S
O58 C56 1.247 . S
O58 Zn59 2.028 1_545 S
Zn59 O58 2.028 1_565 S
Zn59 O63 2.035 . S
Zn59 O65 2.035 1_655 S
Zn59 O66 2.028 . S
O60 C56 1.258 . S
O60 Zn61 2.035 1_655 S
Zn61 O60 2.035 1_455 S
Zn61 O62 2.028 . S
Zn61 O64 2.028 1_545 S
Zn61 O67 2.035 . S
O62 Zn61 2.028 . S
O62 C68 1.247 1_455 S
O63 Zn59 2.035 . S
O63 C68 1.258 1_565 S
O64 C57 1.247 . S
O64 Zn61 2.028 1_565 S
O65 C57 1.258 . S
O65 Zn59 2.035 1_455 S
O66 Zn59 2.028 . S
O66 C69 1.247 1_655 S
O67 Zn61 2.035 . S
O67 C69 1.258 1_545 S
C68 O62 1.247 1_655 S
C68 O63 1.258 1_545 S
C69 O66 1.247 1_455 S
C69 O67 1.258 1_565 S
C70 O72 1.247 . S
C70 O74 1.258 . S
C71 O78 1.247 . S
C71 O79 1.258 . S
O72 C70 1.247 . S
O72 Zn73 2.028 . S
Zn73 O72 2.028 . S
Zn73 O77 2.035 . S
Zn73 O79 2.035 . S
Zn73 O80 2.028 . S
O74 C70 1.258 . S
O74 Zn75 2.035 . S
Zn75 O74 2.035 . S
Zn75 O76 2.028 . S
Zn75 O78 2.028 . S
Zn75 O81 2.035 . S
O76 Zn75 2.028 . S
O76 C82 1.247 . S
O77 Zn73 2.035 . S
O77 C82 1.258 . S
O78 C71 1.247 . S
O78 Zn75 2.028 . S
O79 C71 1.258 . S
O79 Zn73 2.035 . S
O80 Zn73 2.028 . S
O80 C83 1.247 . S
O81 Zn75 2.035 . S
O81 C83 1.258 . S
C82 O76 1.247 . S
C82 O77 1.258 . S
C83 O80 1.247 . S
C83 O81 1.258 . S
C84 O86 1.247 . S
C84 O88 1.258 . S
C85 O92 1.247 . S
C85 O93 1.258 . S
O86 C84 1.247 . S
O86 Zn87 2.030 1_565 S
Zn87 O86 2.030 1_545 S
Zn87 O91 2.027 1_554 S
Zn87 O93 2.033 1_554 S
Zn87 O94 2.036 . S
O88 C84 1.258 . S
O88 Zn89 2.034 1_554 S
Zn89 O88 2.034 1_556 S
Zn89 O90 2.031 . S
Zn89 O92 2.029 1_565 S
Zn89 O95 2.032 1_556 S
O90 Zn89 2.031 . S
O90 C96 1.247 . S
O91 Zn87 2.027 1_556 S
O91 C96 1.258 1_545 S
O92 C85 1.247 . S
O92 Zn89 2.029 1_545 S
O93 C85 1.258 . S
O93 Zn87 2.033 1_556 S
O94 Zn87 2.036 . S
O94 C97 1.247 . S
O95 Zn89 2.032 1_554 S
O95 C97 1.258 1_565 S
C96 O90 1.247 . S
C96 O91 1.258 1_565 S
C97 O94 1.247 . S
C97 O95 1.258 1_545 S
C98 O100 1.247 . S
C98 O102 1.258 . S
C99 O106 1.247 . S
C99 O107 1.258 . S
O100 C98 1.247 . S
O100 Zn101 2.028 . S
Zn101 O100 2.028 . S
Zn101 O105 2.035 . S
Zn101 O107 2.035 . S
Zn101 O108 2.028 . S
O102 C98 1.258 . S
O102 Zn103 2.035 . S
Zn103 O102 2.035 . S
Zn103 O104 2.028 . S
Zn103 O106 2.028 . S
Zn103 O109 2.035 . S
O104 Zn103 2.028 . S
O104 C110 1.247 . S
O105 Zn101 2.035 . S
O105 C110 1.258 . S
O106 C99 1.247 . S
O106 Zn103 2.028 . S
O107 C99 1.258 . S
O107 Zn101 2.035 . S
O108 Zn101 2.028 . S
O108 C111 1.247 . S
O109 Zn103 2.035 . S
O109 C111 1.258 . S
C110 O104 1.247 . S
C110 O105 1.258 . S
C111 O108 1.247 . S
C111 O109 1.258 . S
C112 O114 1.247 . S
C112 O116 1.258 . S
C113 O120 1.247 . S
C113 O121 1.258 . S
O114 C112 1.247 . S
O114 Zn115 2.028 . S
Zn115 O114 2.028 . S
Zn115 O119 2.035 . S
Zn115 O121 2.035 . S
Zn115 O122 2.028 . S
O116 C112 1.258 . S
O116 Zn117 2.035 . S
Zn117 O116 2.035 . S
Zn117 O118 2.028 . S
Zn117 O120 2.028 . S
Zn117 O123 2.035 . S
O118 Zn117 2.028 . S
O118 C124 1.247 . S
O119 Zn115 2.035 . S
O119 C124 1.258 . S
O120 C113 1.247 . S
O120 Zn117 2.028 . S
O121 C113 1.258 . S
O121 Zn115 2.035 . S
O122 Zn115 2.028 . S
O122 C125 1.247 . S
O123 Zn117 2.035 . S
O123 C125 1.258 . S
C124 O118 1.247 . S
C124 O119 1.258 . S
C125 O122 1.247 . S
C125 O123 1.258 . S
C126 O128 1.247 . S
C126 O130 1.258 . S
C127 O134 1.247 . S
C127 O135 1.258 . S
O128 C126 1.247 . S
O128 Zn129 2.028 . S
Zn129 O128 2.028 . S
Zn129 O133 2.035 . S
Zn129 O135 2.035 . S
Zn129 O136 2.028 . S
O130 C126 1.258 . S
O130 Zn131 2.035 . S
Zn131 O130 2.035 . S
Zn131 O132 2.028 . S
Zn131 O134 2.028 . S
Zn131 O137 2.035 . S
O132 Zn131 2.028 . S
O132 C138 1.247 . S
O133 Zn129 2.035 . S
O133 C138 1.258 . S
O134 C127 1.247 . S
O134 Zn131 2.028 . S
O135 C127 1.258 . S
O135 Zn129 2.035 . S
O136 Zn129 2.028 . S
O136 C139 1.247 . S
O137 Zn131 2.035 . S
O137 C139 1.258 . S
C138 O132 1.247 . S
C138 O133 1.258 . S
C139 O136 1.247 . S
C139 O137 1.258 . S
C140 O142 1.247 . S
C140 O144 1.258 . S
C141 O148 1.247 . S
C141 O149 1.258 . S
O142 C140 1.247 . S
O142 Zn143 2.028 . S
Zn143 O142 2.028 . S
Zn143 O147 2.035 . S
Zn143 O149 2.035 . S
Zn143 O150 2.028 . S
O144 C140 1.258 . S
O144 Zn145 2.035 . S
Zn145 O144 2.035 . S
Zn145 O146 2.028 . S
Zn145 O148 2.028 . S
Zn145 O151 2.035 . S
O146 Zn145 2.028 . S
O146 C152 1.247 . S
O147 Zn143 2.035 . S
O147 C152 1.258 . S
O148 C141 1.247 . S
O148 Zn145 2.028 . S
O149 C141 1.258 . S
O149 Zn143 2.035 . S
O150 Zn143 2.028 . S
O150 C153 1.247 . S
O151 Zn145 2.035 . S
O151 C153 1.258 . S
C152 O146 1.247 . S
C152 O147 1.258 . S
C153 O150 1.247 . S
C153 O151 1.258 . S
C154 O156 1.247 . S
C154 O158 1.258 . S
C155 O162 1.247 . S
C155 O163 1.258 . S
O156 C154 1.247 . S
O156 Zn157 2.028 . S
Zn157 O156 2.028 . S
Zn157 O161 2.035 . S
Zn157 O163 2.035 . S
Zn157 O164 2.028 . S
O158 C154 1.258 . S
O158 Zn159 2.035 . S
Zn159 O158 2.035 . S
Zn159 O160 2.028 . S
Zn159 O162 2.028 . S
Zn159 O165 2.035 . S
O160 Zn159 2.028 . S
O160 C166 1.247 . S
O161 Zn157 2.035 . S
O161 C166 1.258 . S
O162 C155 1.247 . S
O162 Zn159 2.028 . S
O163 C155 1.258 . S
O163 Zn157 2.035 . S
O164 Zn157 2.028 . S
O164 C167 1.247 . S
O165 Zn159 2.035 . S
O165 C167 1.258 . S
C166 O160 1.247 . S
C166 O161 1.258 . S
C167 O164 1.247 . S
C167 O165 1.258 . S
C168 O170 1.247 . S
C168 O172 1.258 . S
C169 O176 1.247 . S
C169 O177 1.258 . S
O170 C168 1.247 . S
O170 Zn171 2.028 . S
Zn171 O170 2.028 . S
Zn171 O175 2.035 . S
Zn171 O177 2.035 . S
Zn171 O178 2.028 . S
O172 C168 1.258 . S
O172 Zn173 2.035 . S
Zn173 O172 2.035 . S
Zn173 O174 2.028 . S
Zn173 O176 2.028 . S
Zn173 O179 2.035 . S
O174 Zn173 2.028 . S
O174 C180 1.247 . S
O175 Zn171 2.035 . S
O175 C180 1.258 . S
O176 C169 1.247 . S
O176 Zn173 2.028 . S
O177 C169 1.258 . S
O177 Zn171 2.035 . S
O178 Zn171 2.028 . S
O178 C181 1.247 . S
O179 Zn173 2.035 . S
O179 C181 1.258 . S
C180 O174 1.247 . S
C180 O175 1.258 . S
C181 O178 1.247 . S
C181 O179 1.258 . S
C182 O184 1.247 1_455 S
C182 O186 1.258 . S
C183 O190 1.247 1_655 S
C183 O191 1.258 . S
O184 C182 1.247 1_655 S
O184 Zn185 2.036 . S
Zn185 O184 2.036 . S
Zn185 O189 2.033 1_654 S
Zn185 O191 2.027 1_554 S
Zn185 O192 2.030 . S
O186 C182 1.258 . S
O186 Zn187 2.032 1_554 S
Zn187 O186 2.032 1_556 S
Zn187 O188 2.029 . S
Zn187 O190 2.031 . S
Zn187 O193 2.034 1_456 S
O188 Zn187 2.029 . S
O188 C194 1.247 . S
O189 Zn185 2.033 1_456 S
O189 C194 1.258 . S
O190 C183 1.247 1_455 S
O190 Zn187 2.031 . S
O191 C183 1.258 . S
O191 Zn185 2.027 1_556 S
O192 Zn185 2.030 . S
O192 C195 1.247 . S
O193 Zn187 2.034 1_654 S
O193 C195 1.258 . S
C194 O188 1.247 . S
C194 O189 1.258 . S
C195 O192 1.247 . S
C195 O193 1.258 . S
C196 O198 1.247 . S
C196 O200 1.258 . S
C197 O204 1.247 . S
C197 O205 1.258 . S
O198 C196 1.247 . S
O198 Zn199 2.030 . S
Zn199 O198 2.030 . S
Zn199 O203 2.027 1_554 S
Zn199 O205 2.033 1_554 S
Zn199 O206 2.036 . S
O200 C196 1.258 . S
O200 Zn201 2.034 1_554 S
Zn201 O200 2.034 1_556 S
Zn201 O202 2.031 . S
Zn201 O204 2.029 . S
Zn201 O207 2.032 1_556 S
O202 Zn201 2.031 . S
O202 C208 1.247 . S
O203 Zn199 2.027 1_556 S
O203 C208 1.258 . S
O204 C197 1.247 . S
O204 Zn201 2.029 . S
O205 C197 1.258 . S
O205 Zn199 2.033 1_556 S
O206 Zn199 2.036 . S
O206 C209 1.247 . S
O207 Zn201 2.032 1_554 S
O207 C209 1.258 . S
C208 O202 1.247 . S
C208 O203 1.258 . S
C209 O206 1.247 . S
C209 O207 1.258 . S
C210 O212 1.247 . S
C210 O214 1.258 . S
C211 O218 1.247 . S
C211 O219 1.258 . S
O212 C210 1.247 . S
O212 Zn213 2.028 . S
Zn213 O212 2.028 . S
Zn213 O217 2.035 . S
Zn213 O219 2.035 1_455 S
Zn213 O220 2.028 . S
O214 C210 1.258 . S
O214 Zn215 2.035 1_455 S
Zn215 O214 2.035 1_655 S
Zn215 O216 2.028 . S
Zn215 O218 2.028 . S
Zn215 O221 2.035 . S
O216 Zn215 2.028 . S
O216 C222 1.247 1_655 S
O217 Zn213 2.035 . S
O217 C222 1.258 . S
O218 C211 1.247 . S
O218 Zn215 2.028 . S
O219 C211 1.258 . S
O219 Zn213 2.035 1_655 S
O220 Zn213 2.028 . S
O220 C223 1.247 1_455 S
O221 Zn215 2.035 . S
O221 C223 1.258 . S
C222 O216 1.247 1_455 S
C222 O217 1.258 . S
C223 O220 1.247 1_655 S
C223 O221 1.258 . S
H224 C236 0.930 . S
H225 C238 0.930 . S
H226 C239 0.930 . S
H227 C243 0.959 . S
H228 C243 0.959 . S
H229 C243 0.961 . S
H230 C244 0.960 . S
H231 C244 0.961 1_655 S
H232 C244 0.959 . S
H233 C247 0.929 . S
H234 C248 0.931 . S
H235 C250 0.930 . S
C236 H224 0.930 . S
C236 C237 1.399 . S
C236 C241 1.399 . S
C237 C236 1.399 . S
C237 C238 1.376 1_665 S
C238 H225 0.930 . S
C238 C237 1.376 1_445 S
C238 C239 1.388 . S
C239 H226 0.930 . S
C239 C238 1.388 . S
C239 C240 1.394 . S
C240 C239 1.394 . S
C240 C241 1.388 1_445 S
C240 C246 1.465 1_455 S
C241 C236 1.399 . S
C241 C240 1.388 1_665 S
C241 C242 1.516 . S
C242 C241 1.516 . S
C242 C243 1.502 . S
C242 C244 1.561 1_655 S
C242 C245 1.526 . S
C243 H227 0.959 . S
C243 H228 0.959 . S
C243 H229 0.961 . S
C243 C242 1.502 . S
C244 H230 0.960 . S
C244 H231 0.961 1_455 S
C244 H232 0.959 . S
C244 C242 1.561 1_455 S
C245 C242 1.526 . S
C245 C246 1.396 1_565 S
C245 C250 1.390 . S
C246 C240 1.465 1_655 S
C246 C245 1.396 1_545 S
C246 C247 1.399 1_655 S
C247 H233 0.929 . S
C247 C246 1.399 1_455 S
C247 C248 1.385 . S
C248 H234 0.931 . S
C248 C247 1.385 . S
C248 C249 1.389 1_455 S
C249 C248 1.389 1_655 S
C249 C250 1.387 1_545 S
C250 H235 0.930 . S
C250 C245 1.390 . S
C250 C249 1.387 1_565 S
H251 C263 0.930 . S
H252 C265 0.930 . S
H253 C266 0.930 . S
H254 C270 0.959 . S
H255 C270 0.959 . S
H256 C270 0.961 . S
H257 C271 0.960 . S
H258 C271 0.961 . S
H259 C271 0.959 . S
H260 C274 0.929 . S
H261 C275 0.931 . S
H262 C277 0.930 . S
C263 H251 0.930 . S
C263 C264 1.399 . S
C263 C268 1.399 . S
C264 C263 1.399 . S
C264 C265 1.376 . S
C265 H252 0.930 . S
C265 C264 1.376 . S
C265 C266 1.388 . S
C266 H253 0.930 . S
C266 C265 1.388 . S
C266 C267 1.390 . S
C267 C266 1.390 . S
C267 C268 1.394 . S
C267 C273 1.465 . S
C268 C263 1.399 . S
C268 C267 1.394 . S
C268 C269 1.516 . S
C269 C268 1.516 . S
C269 C270 1.502 . S
C269 C271 1.561 . S
C269 C272 1.526 . S
C270 H254 0.959 . S
C270 H255 0.959 . S
C270 H256 0.961 . S
C270 C269 1.502 . S
C271 H257 0.960 . S
C271 H258 0.961 . S
C271 H259 0.959 . S
C271 C269 1.561 . S
C272 C269 1.526 . S
C272 C273 1.396 . S
C272 C277 1.390 . S
C273 C267 1.465 . S
C273 C272 1.396 . S
C273 C274 1.399 . S
C274 H260 0.929 . S
C274 C273 1.399 . S
C274 C275 1.385 . S
C275 H261 0.931 . S
C275 C274 1.385 . S
C275 C276 1.389 . S
C276 C275 1.389 . S
C276 C277 1.387 . S
C277 H262 0.930 . S
C277 C272 1.390 . S
C277 C276 1.387 . S
H278 C290 0.930 . S
H279 C292 0.930 . S
H280 C293 0.930 . S
H281 C297 0.959 . S
H282 C297 0.959 . S
H283 C297 0.961 . S
H284 C298 0.960 . S
H285 C298 0.961 . S
H286 C298 0.959 . S
H287 C301 0.929 . S
H288 C302 0.931 . S
H289 C304 0.930 . S
C290 H278 0.930 . S
C290 C291 1.399 . S
C290 C295 1.399 . S
C291 C290 1.399 . S
C291 C292 1.376 1_565 S
C292 H279 0.930 . S
C292 C291 1.376 1_545 S
C292 C293 1.388 . S
C293 H280 0.930 . S
C293 C292 1.388 . S
C293 C294 1.390 . S
C294 C293 1.390 . S
C294 C295 1.394 1_545 S
C294 C300 1.465 . S
C295 C290 1.399 . S
C295 C294 1.394 1_565 S
C295 C296 1.516 . S
C296 C295 1.516 . S
C296 C297 1.502 . S
C296 C298 1.561 . S
C296 C299 1.526 . S
C297 H281 0.959 . S
C297 H282 0.959 . S
C297 H283 0.961 . S
C297 C296 1.502 . S
C298 H284 0.960 . S
C298 H285 0.961 . S
C298 H286 0.959 . S
C298 C296 1.561 . S
C299 C296 1.526 . S
C299 C300 1.396 1_565 S
C299 C304 1.390 . S
C300 C294 1.465 . S
C300 C299 1.396 1_545 S
C300 C301 1.399 . S
C301 H287 0.929 . S
C301 C300 1.399 . S
C301 C302 1.385 . S
C302 H288 0.931 . S
C302 C301 1.385 . S
C302 C303 1.389 . S
C303 C302 1.389 . S
C303 C304 1.387 1_545 S
C304 H289 0.930 . S
C304 C299 1.390 . S
C304 C303 1.387 1_565 S
H305 C317 0.930 . S
H306 C319 0.930 . S
H307 C320 0.930 . S
H308 C324 0.959 . S
H309 C324 0.959 1_554 S
H310 C324 0.961 . S
H311 C325 0.960 1_556 S
H312 C325 0.961 . S
H313 C325 0.959 . S
H314 C328 0.929 . S
H315 C329 0.931 . S
H316 C331 0.930 . S
C317 H305 0.930 . S
C317 C318 1.399 . S
C317 C322 1.399 . S
C318 C317 1.399 . S
C318 C319 1.376 . S
C319 H306 0.930 . S
C319 C318 1.376 . S
C319 C320 1.388 . S
C320 H307 0.930 . S
C320 C319 1.388 . S
C320 C321 1.390 . S
C321 C320 1.390 . S
C321 C322 1.394 . S
C321 C327 1.465 1_556 S
C322 C317 1.399 . S
C322 C321 1.394 . S
C322 C323 1.516 . S
C323 C322 1.516 . S
C323 C324 1.502 . S
C323 C325 1.561 1_556 S
C323 C326 1.526 1_556 S
C324 H308 0.959 . S
C324 H309 0.959 1_556 S
C324 H310 0.961 . S
C324 C323 1.502 . S
C325 H311 0.960 1_554 S
C325 H312 0.961 . S
C325 H313 0.959 . S
C325 C323 1.561 1_554 S
C326 C323 1.526 1_554 S
C326 C327 1.396 . S
C326 C331 1.390 . S
C327 C321 1.465 1_554 S
C327 C326 1.396 . S
C327 C328 1.399 . S
C328 H314 0.929 . S
C328 C327 1.399 . S
C328 C329 1.385 . S
C329 H315 0.931 . S
C329 C328 1.385 . S
C329 C330 1.389 . S
C330 C329 1.389 . S
C330 C331 1.387 . S
C331 H316 0.930 . S
C331 C326 1.390 . S
C331 C330 1.387 . S
H332 C344 0.930 . S
H333 C346 0.930 . S
H334 C347 0.930 . S
H335 C351 0.937 1_545 S
H336 C351 0.959 . S
H337 C351 0.961 . S
H338 C352 0.960 . S
H339 C352 0.961 . S
H340 C352 0.959 1_455 S
H341 C355 0.929 . S
H342 C356 0.931 . S
H343 C358 0.930 . S
C344 H332 0.930 . S
C344 C345 1.399 1_655 S
C344 C349 1.399 . S
C345 C344 1.399 1_455 S
C345 C346 1.376 1_565 S
C346 H333 0.930 . S
C346 C345 1.376 1_545 S
C346 C347 1.388 . S
C347 H334 0.930 . S
C347 C346 1.388 . S
C347 C348 1.390 . S
C348 C347 1.390 . S
C348 C349 1.394 1_445 S
C348 C354 1.465 . S
C349 C344 1.399 . S
C349 C348 1.394 1_665 S
C349 C350 1.516 . S
C350 C349 1.516 . S
C350 C351 1.502 . S
C350 C352 1.561 . S
C350 C353 1.541 . S
C351 H335 0.937 1_565 S
C351 H336 0.959 . S
C351 H337 0.961 . S
C351 C350 1.502 . S
C352 H338 0.960 . S
C352 H339 0.961 . S
C352 H340 0.959 1_655 S
C352 C350 1.561 . S
C353 C350 1.541 . S
C353 C354 1.373 1_665 S
C353 C358 1.395 . S
C354 C348 1.465 . S
C354 C353 1.373 1_445 S
C354 C355 1.399 . S
C355 H341 0.929 . S
C355 C354 1.399 . S
C355 C356 1.385 . S
C356 H342 0.931 . S
C356 C355 1.385 . S
C356 C357 1.389 . S
C357 C356 1.389 . S
C357 C358 1.387 1_445 S
C358 H343 0.930 . S
C358 C353 1.395 . S
C358 C357 1.387 1_665 S
H359 C371 0.930 . S
H360 C373 0.930 . S
H361 C374 0.930 . S
H362 C378 0.959 . S
H363 C378 0.959 . S
H364 C378 0.961 . S
H365 C379 0.960 . S
H366 C379 0.961 . S
H367 C379 0.959 . S
H368 C382 0.929 . S
H369 C383 0.931 . S
H370 C385 0.930 . S
C371 H359 0.930 . S
C371 C372 1.399 . S
C371 C376 1.399 . S
C372 C371 1.399 . S
C372 C373 1.376 . S
C373 H360 0.930 . S
C373 C372 1.376 . S
C373 C374 1.388 . S
C374 H361 0.930 . S
C374 C373 1.388 . S
C374 C375 1.390 . S
C375 C374 1.390 . S
C375 C376 1.394 . S
C375 C381 1.465 . S
C376 C371 1.399 . S
C376 C375 1.394 . S
C376 C377 1.516 . S
C377 C376 1.516 . S
C377 C378 1.502 . S
C377 C379 1.561 . S
C377 C380 1.526 . S
C378 H362 0.959 . S
C378 H363 0.959 . S
C378 H364 0.961 . S
C378 C377 1.502 . S
C379 H365 0.960 . S
C379 H366 0.961 . S
C379 H367 0.959 . S
C379 C377 1.561 . S
C380 C377 1.526 . S
C380 C381 1.396 . S
C380 C385 1.390 . S
C381 C375 1.465 . S
C381 C380 1.396 . S
C381 C382 1.399 . S
C382 H368 0.929 . S
C382 C381 1.399 . S
C382 C383 1.385 . S
C383 H369 0.931 . S
C383 C382 1.385 . S
C383 C384 1.389 . S
C384 C383 1.389 . S
C384 C385 1.387 . S
C385 H370 0.930 . S
C385 C380 1.390 . S
C385 C384 1.387 . S
H386 C398 0.930 1_565 S
H387 C400 0.930 . S
H388 C401 0.930 . S
H389 C405 0.959 . S
H390 C405 0.959 . S
H391 C405 0.961 . S
H392 C406 0.960 . S
H393 C406 0.961 . S
H394 C406 0.959 . S
H395 C409 0.929 . S
H396 C410 0.933 . S
H397 C412 0.930 . S
C398 H386 0.930 1_545 S
C398 C399 1.399 . S
C398 C403 1.399 . S
C399 C398 1.399 . S
C399 C400 1.376 . S
C400 H387 0.930 . S
C400 C399 1.376 . S
C400 C401 1.388 . S
C401 H388 0.930 . S
C401 C400 1.388 . S
C401 C402 1.390 . S
C402 C401 1.390 . S
C402 C403 1.394 . S
C402 C408 1.465 . S
C403 C398 1.399 . S
C403 C402 1.394 . S
C403 C404 1.516 1_545 S
C404 C403 1.516 1_565 S
C404 C405 1.502 . S
C404 C406 1.561 1_565 S
C404 C407 1.526 . S
C405 H389 0.959 . S
C405 H390 0.959 . S
C405 H391 0.961 . S
C405 C404 1.502 . S
C406 H392 0.960 . S
C406 H393 0.961 . S
C406 H394 0.959 . S
C406 C404 1.561 1_545 S
C407 C404 1.526 . S
C407 C408 1.396 1_565 S
C407 C412 1.390 . S
C408 C402 1.465 . S
C408 C407 1.396 1_545 S
C408 C409 1.399 . S
C409 H395 0.929 . S
C409 C408 1.399 . S
C409 C410 1.391 . S
C410 H396 0.933 . S
C410 C409 1.391 . S
C410 C411 1.382 1_545 S
C411 C410 1.382 1_565 S
C411 C412 1.387 . S
C412 H397 0.930 . S
C412 C407 1.390 . S
C412 C411 1.387 . S
H413 C425 0.930 . S
H414 C427 0.930 . S
H415 C428 0.930 . S
H416 C432 0.959 . S
H417 C432 0.959 1_556 S
H418 C432 0.961 . S
H419 C433 0.960 1_554 S
H420 C433 0.961 . S
H421 C433 0.959 . S
H422 C436 0.929 . S
H423 C437 0.931 . S
H424 C439 0.930 . S
C425 H413 0.930 . S
C425 C426 1.399 . S
C425 C430 1.399 . S
C426 C425 1.399 . S
C426 C427 1.376 . S
C427 H414 0.930 . S
C427 C426 1.376 . S
C427 C428 1.388 . S
C428 H415 0.930 . S
C428 C427 1.388 . S
C428 C429 1.390 . S
C429 C428 1.390 . S
C429 C430 1.394 . S
C429 C435 1.465 1_554 S
C430 C425 1.399 . S
C430 C429 1.394 . S
C430 C431 1.516 . S
C431 C430 1.516 . S
C431 C432 1.502 . S
C431 C433 1.561 1_554 S
C431 C434 1.526 1_554 S
C432 H416 0.959 . S
C432 H417 0.959 1_554 S
C432 H418 0.961 . S
C432 C431 1.502 . S
C433 H419 0.960 1_556 S
C433 H420 0.961 . S
C433 H421 0.959 . S
C433 C431 1.561 1_556 S
C434 C431 1.526 1_556 S
C434 C435 1.396 . S
C434 C439 1.390 . S
C435 C429 1.465 1_556 S
C435 C434 1.396 . S
C435 C436 1.399 . S
C436 H422 0.929 . S
C436 C435 1.399 . S
C436 C437 1.385 . S
C437 H423 0.931 . S
C437 C436 1.385 . S
C437 C438 1.389 . S
C438 C437 1.389 . S
C438 C439 1.387 . S
C439 H424 0.930 . S
C439 C434 1.390 . S
C439 C438 1.387 . S
H440 C452 0.930 . S
H441 C454 0.930 . S
H442 C455 0.930 . S
H443 C459 0.959 . S
H444 C459 0.959 . S
H445 C459 0.961 . S
H446 C460 0.960 . S
H447 C460 0.961 . S
H448 C460 0.959 . S
H449 C463 0.929 . S
H450 C464 0.931 . S
H451 C466 0.930 . S
C452 H440 0.930 . S
C452 C453 1.399 . S
C452 C457 1.399 . S
C453 C452 1.399 . S
C453 C454 1.376 . S
C454 H441 0.930 . S
C454 C453 1.376 . S
C454 C455 1.388 . S
C455 H442 0.930 . S
C455 C454 1.388 . S
C455 C456 1.390 . S
C456 C455 1.390 . S
C456 C457 1.394 . S
C456 C462 1.465 . S
C457 C452 1.399 . S
C457 C456 1.394 . S
C457 C458 1.516 . S
C458 C457 1.516 . S
C458 C459 1.502 . S
C458 C460 1.561 . S
C458 C461 1.526 . S
C459 H443 0.959 . S
C459 H444 0.959 . S
C459 H445 0.961 . S
C459 C458 1.502 . S
C460 H446 0.960 . S
C460 H447 0.961 . S
C460 H448 0.959 . S
C460 C458 1.561 . S
C461 C458 1.526 . S
C461 C462 1.396 . S
C461 C466 1.390 . S
C462 C456 1.465 . S
C462 C461 1.396 . S
C462 C463 1.399 . S
C463 H449 0.929 . S
C463 C462 1.399 . S
C463 C464 1.385 . S
C464 H450 0.931 . S
C464 C463 1.385 . S
C464 C465 1.389 . S
C465 C464 1.389 . S
C465 C466 1.387 . S
C466 H451 0.930 . S
C466 C461 1.390 . S
C466 C465 1.387 . S
H467 C479 0.930 . S
H468 C481 0.930 . S
H469 C482 0.930 . S
H470 C486 0.959 . S
H471 C486 0.959 1_554 S
H472 C486 0.961 . S
H473 C487 0.960 1_556 S
H474 C487 0.961 . S
H475 C487 0.959 . S
H476 C490 0.929 . S
H477 C491 0.931 . S
H478 C493 0.930 . S
C479 H467 0.930 . S
C479 C480 1.399 . S
C479 C484 1.399 . S
C480 C479 1.399 . S
C480 C481 1.376 . S
C481 H468 0.930 . S
C481 C480 1.376 . S
C481 C482 1.388 . S
C482 H469 0.930 . S
C482 C481 1.388 . S
C482 C483 1.390 . S
C483 C482 1.390 . S
C483 C484 1.394 . S
C483 C489 1.465 1_556 S
C484 C479 1.399 . S
C484 C483 1.394 . S
C484 C485 1.516 . S
C485 C484 1.516 . S
C485 C486 1.502 . S
C485 C487 1.561 1_556 S
C485 C488 1.526 1_556 S
C486 H470 0.959 . S
C486 H471 0.959 1_556 S
C486 H472 0.961 . S
C486 C485 1.502 . S
C487 H473 0.960 1_554 S
C487 H474 0.961 . S
C487 H475 0.959 . S
C487 C485 1.561 1_554 S
C488 C485 1.526 1_554 S
C488 C489 1.396 . S
C488 C493 1.390 . S
C489 C483 1.465 1_554 S
C489 C488 1.396 . S
C489 C490 1.399 . S
C490 H476 0.929 . S
C490 C489 1.399 . S
C490 C491 1.385 . S
C491 H477 0.931 . S
C491 C490 1.385 . S
C491 C492 1.389 . S
C492 C491 1.389 . S
C492 C493 1.387 . S
C493 H478 0.930 . S
C493 C488 1.390 . S
C493 C492 1.387 . S
H494 C506 0.930 . S
H495 C508 0.930 . S
H496 C509 0.930 . S
H497 C513 0.959 . S
H498 C513 0.959 . S
H499 C513 0.961 . S
H500 C514 0.960 . S
H501 C514 0.961 . S
H502 C514 0.959 1_655 S
H503 C517 0.929 . S
H504 C518 0.931 . S
H505 C520 0.930 . S
C506 H494 0.930 . S
C506 C507 1.399 . S
C506 C511 1.399 . S
C507 C506 1.399 . S
C507 C508 1.376 1_455 S
C508 H495 0.930 . S
C508 C507 1.376 1_655 S
C508 C509 1.388 . S
C509 H496 0.930 . S
C509 C508 1.388 . S
C509 C510 1.390 . S
C510 C509 1.390 . S
C510 C511 1.394 1_655 S
C510 C516 1.465 . S
C511 C506 1.399 . S
C511 C510 1.394 1_455 S
C511 C512 1.516 . S
C512 C511 1.516 . S
C512 C513 1.502 . S
C512 C514 1.561 . S
C512 C515 1.526 . S
C513 H497 0.959 . S
C513 H498 0.959 . S
C513 H499 0.961 . S
C513 C512 1.502 . S
C514 H500 0.960 . S
C514 H501 0.961 . S
C514 H502 0.959 1_455 S
C514 C512 1.561 . S
C515 C512 1.526 . S
C515 C516 1.396 1_455 S
C515 C520 1.390 . S
C516 C510 1.465 . S
C516 C515 1.396 1_655 S
C516 C517 1.399 . S
C517 H503 0.929 . S
C517 C516 1.399 . S
C517 C518 1.385 . S
C518 H504 0.931 . S
C518 C517 1.385 . S
C518 C519 1.389 1_655 S
C519 C518 1.389 1_455 S
C519 C520 1.387 . S
C520 H505 0.930 . S
C520 C515 1.390 . S
C520 C519 1.387 . S
H521 C533 0.930 . S
H522 C535 0.930 . S
H523 C536 0.930 . S
H524 C540 0.959 . S
H525 C540 0.959 . S
H526 C540 0.961 . S
H527 C541 0.960 . S
H528 C541 0.961 . S
H529 C541 0.959 . S
H530 C544 0.929 . S
H531 C545 0.931 . S
H532 C547 0.930 . S
C533 H521 0.930 . S
C533 C534 1.399 . S
C533 C538 1.399 . S
C534 C533 1.399 . S
C534 C535 1.376 . S
C535 H522 0.930 . S
C535 C534 1.376 . S
C535 C536 1.388 . S
C536 H523 0.930 . S
C536 C535 1.388 . S
C536 C537 1.390 . S
C537 C536 1.390 . S
C537 C538 1.394 . S
C537 C543 1.465 . S
C538 C533 1.399 . S
C538 C537 1.394 . S
C538 C539 1.516 . S
C539 C538 1.516 . S
C539 C540 1.502 . S
C539 C541 1.561 . S
C539 C542 1.526 . S
C540 H524 0.959 . S
C540 H525 0.959 . S
C540 H526 0.961 . S
C540 C539 1.502 . S
C541 H527 0.960 . S
C541 H528 0.961 . S
C541 H529 0.959 . S
C541 C539 1.561 . S
C542 C539 1.526 . S
C542 C543 1.396 . S
C542 C547 1.390 . S
C543 C537 1.465 . S
C543 C542 1.396 . S
C543 C544 1.399 . S
C544 H530 0.929 . S
C544 C543 1.399 . S
C544 C545 1.385 . S
C545 H531 0.931 . S
C545 C544 1.385 . S
C545 C546 1.389 . S
C546 C545 1.389 . S
C546 C547 1.387 . S
C547 H532 0.930 . S
C547 C542 1.390 . S
C547 C546 1.387 . S
H548 C560 0.930 . S
H549 C562 0.930 . S
H550 C563 0.930 . S
H551 C567 0.959 . S
H552 C567 0.959 . S
H553 C567 0.961 . S
H554 C568 0.960 . S
H555 C568 0.961 . S
H556 C568 0.959 . S
H557 C571 0.929 . S
H558 C572 0.931 . S
H559 C574 0.930 . S
C560 H548 0.930 . S
C560 C561 1.399 . S
C560 C565 1.399 . S
C561 C560 1.399 . S
C561 C562 1.376 . S
C562 H549 0.930 . S
C562 C561 1.376 . S
C562 C563 1.388 . S
C563 H550 0.930 . S
C563 C562 1.388 . S
C563 C564 1.390 . S
C564 C563 1.390 . S
C564 C565 1.394 . S
C564 C570 1.465 . S
C565 C560 1.399 . S
C565 C564 1.394 . S
C565 C566 1.516 . S
C566 C565 1.516 . S
C566 C567 1.502 . S
C566 C568 1.561 . S
C566 C569 1.526 . S
C567 H551 0.959 . S
C567 H552 0.959 . S
C567 H553 0.961 . S
C567 C566 1.502 . S
C568 H554 0.960 . S
C568 H555 0.961 . S
C568 H556 0.959 . S
C568 C566 1.561 . S
C569 C566 1.526 . S
C569 C570 1.396 . S
C569 C574 1.390 . S
C570 C564 1.465 . S
C570 C569 1.396 . S
C570 C571 1.399 . S
C571 H557 0.929 . S
C571 C570 1.399 . S
C571 C572 1.385 . S
C572 H558 0.931 . S
C572 C571 1.385 . S
C572 C573 1.389 . S
C573 C572 1.389 . S
C573 C574 1.387 . S
C574 H559 0.930 . S
C574 C569 1.390 . S
C574 C573 1.387 . S
H575 C587 0.930 . S
H576 C589 0.930 . S
H577 C590 0.930 . S
H578 C594 0.959 . S
H579 C594 0.959 . S
H580 C594 0.961 1_554 S
H581 C595 0.960 . S
H582 C595 0.961 1_556 S
H583 C595 0.959 . S
H584 C598 0.929 . S
H585 C599 0.931 . S
H586 C601 0.930 . S
C587 H575 0.930 . S
C587 C588 1.399 . S
C587 C592 1.399 . S
C588 C587 1.399 . S
C588 C589 1.376 . S
C589 H576 0.930 . S
C589 C588 1.376 . S
C589 C590 1.388 . S
C590 H577 0.930 . S
C590 C589 1.388 . S
C590 C591 1.390 . S
C591 C590 1.390 . S
C591 C592 1.394 . S
C591 C597 1.465 1_554 S
C592 C587 1.399 . S
C592 C591 1.394 . S
C592 C593 1.516 1_554 S
C593 C592 1.516 1_556 S
C593 C594 1.502 . S
C593 C595 1.561 1_556 S
C593 C596 1.526 . S
C594 H578 0.959 . S
C594 H579 0.959 . S
C594 H580 0.961 1_556 S
C594 C593 1.502 . S
C595 H581 0.960 . S
C595 H582 0.961 1_554 S
C595 H583 0.959 . S
C595 C593 1.561 1_554 S
C596 C593 1.526 . S
C596 C597 1.396 . S
C596 C601 1.390 . S
C597 C591 1.465 1_556 S
C597 C596 1.396 . S
C597 C598 1.399 . S
C598 H584 0.929 . S
C598 C597 1.399 . S
C598 C599 1.385 . S
C599 H585 0.931 . S
C599 C598 1.385 . S
C599 C600 1.389 . S
C600 C599 1.389 . S
C600 C601 1.387 . S
C601 H586 0.930 . S
C601 C596 1.390 . S
C601 C600 1.387 . S
H602 C614 0.930 . S
H603 C616 0.930 . S
H604 C617 0.930 . S
H605 C621 0.959 . S
H606 C621 0.959 . S
H607 C621 0.961 . S
H608 C622 0.960 . S
H609 C622 0.961 . S
H610 C622 0.959 . S
H611 C625 0.929 . S
H612 C626 0.931 . S
H613 C628 0.930 . S
C614 H602 0.930 . S
C614 C615 1.399 1_455 S
C614 C619 1.399 1_455 S
C615 C614 1.399 1_655 S
C615 C616 1.376 . S
C616 H603 0.930 . S
C616 C615 1.376 . S
C616 C617 1.388 . S
C617 H604 0.930 . S
C617 C616 1.388 . S
C617 C618 1.390 . S
C618 C617 1.390 . S
C618 C619 1.394 . S
C618 C624 1.465 . S
C619 C614 1.399 1_655 S
C619 C618 1.394 . S
C619 C620 1.516 1_655 S
C620 C619 1.516 1_455 S
C620 C621 1.502 . S
C620 C622 1.561 1_455 S
C620 C623 1.526 1_455 S
C621 H605 0.959 . S
C621 H606 0.959 . S
C621 H607 0.961 . S
C621 C620 1.502 . S
C622 H608 0.960 . S
C622 H609 0.961 . S
C622 H610 0.959 . S
C622 C620 1.561 1_655 S
C623 C620 1.526 1_655 S
C623 C624 1.396 . S
C623 C628 1.390 1_655 S
C624 C618 1.465 . S
C624 C623 1.396 . S
C624 C625 1.399 . S
C625 H611 0.929 . S
C625 C624 1.399 . S
C625 C626 1.385 . S
C626 H612 0.931 . S
C626 C625 1.385 . S
C626 C627 1.389 . S
C627 C626 1.389 . S
C627 C628 1.387 1_655 S
C628 H613 0.930 . S
C628 C623 1.390 1_455 S
C628 C627 1.387 1_455 S
H629 C641 0.930 . S
H630 C643 0.930 . S
H631 C644 0.930 . S
H632 C648 0.959 . S
H633 C648 0.959 . S
H634 C648 0.961 . S
H635 C649 0.960 . S
H636 C649 0.961 . S
H637 C649 0.959 . S
H638 C652 0.929 . S
H639 C653 0.931 . S
H640 C655 0.930 . S
C641 H629 0.930 . S
C641 C642 1.399 . S
C641 C646 1.399 . S
C642 C641 1.399 . S
C642 C643 1.376 . S
C643 H630 0.930 . S
C643 C642 1.376 . S
C643 C644 1.388 . S
C644 H631 0.930 . S
C644 C643 1.388 . S
C644 C645 1.390 . S
C645 C644 1.390 . S
C645 C646 1.394 . S
C645 C651 1.465 . S
C646 C641 1.399 . S
C646 C645 1.394 . S
C646 C647 1.516 . S
C647 C646 1.516 . S
C647 C648 1.502 . S
C647 C649 1.561 . S
C647 C650 1.526 . S
C648 H632 0.959 . S
C648 H633 0.959 . S
C648 H634 0.961 . S
C648 C647 1.502 . S
C649 H635 0.960 . S
C649 H636 0.961 . S
C649 H637 0.959 . S
C649 C647 1.561 . S
C650 C647 1.526 . S
C650 C651 1.396 . S
C650 C655 1.390 . S
C651 C645 1.465 . S
C651 C650 1.396 . S
C651 C652 1.399 . S
C652 H638 0.929 . S
C652 C651 1.399 . S
C652 C653 1.385 . S
C653 H639 0.931 . S
C653 C652 1.385 . S
C653 C654 1.389 . S
C654 C653 1.389 . S
C654 C655 1.387 . S
C655 H640 0.930 . S
C655 C650 1.390 . S
C655 C654 1.387 . S
H656 C668 0.930 . S
H657 C670 0.930 1_556 S
H658 C671 0.930 . S
H659 C675 0.959 . S
H660 C675 0.959 . S
H661 C675 0.961 . S
H662 C676 0.960 . S
H663 C676 0.961 . S
H664 C676 0.959 . S
H665 C679 0.929 . S
H666 C680 0.931 . S
H667 C682 0.930 . S
C668 H656 0.930 . S
C668 C669 1.399 . S
C668 C673 1.399 . S
C669 C668 1.399 . S
C669 C670 1.376 . S
C670 H657 0.930 1_554 S
C670 C669 1.376 . S
C670 C671 1.388 . S
C671 H658 0.930 . S
C671 C670 1.388 . S
C671 C672 1.390 . S
C672 C671 1.390 . S
C672 C673 1.394 . S
C672 C678 1.465 . S
C673 C668 1.399 . S
C673 C672 1.394 . S
C673 C674 1.516 . S
C674 C673 1.516 . S
C674 C675 1.502 . S
C674 C676 1.561 . S
C674 C677 1.526 . S
C675 H659 0.959 . S
C675 H660 0.959 . S
C675 H661 0.961 . S
C675 C674 1.502 . S
C676 H662 0.960 . S
C676 H663 0.961 . S
C676 H664 0.959 . S
C676 C674 1.561 . S
C677 C674 1.526 . S
C677 C678 1.396 . S
C677 C682 1.390 . S
C678 C672 1.465 . S
C678 C677 1.396 . S
C678 C679 1.399 . S
C679 H665 0.929 . S
C679 C678 1.399 . S
C679 C680 1.385 . S
C680 H666 0.931 . S
C680 C679 1.385 . S
C680 C681 1.389 . S
C681 C680 1.389 . S
C681 C682 1.387 . S
C682 H667 0.930 . S
C682 C677 1.390 . S
C682 C681 1.387 . S
H683 C695 0.930 . S
H684 C697 0.930 . S
H685 C698 0.930 . S
H686 C702 0.959 . S
H687 C702 0.959 . S
H688 C702 0.961 . S
H689 C703 0.960 . S
H690 C703 0.961 . S
H691 C703 0.959 . S
H692 C706 0.929 . S
H693 C707 0.931 . S
H694 C709 0.930 . S
C695 H683 0.930 . S
C695 C696 1.399 . S
C695 C700 1.399 . S
C696 C695 1.399 . S
C696 C697 1.376 . S
C697 H684 0.930 . S
C697 C696 1.376 . S
C697 C698 1.388 . S
C698 H685 0.930 . S
C698 C697 1.388 . S
C698 C699 1.390 . S
C699 C698 1.390 . S
C699 C700 1.394 . S
C699 C705 1.465 . S
C700 C695 1.399 . S
C700 C699 1.394 . S
C700 C701 1.516 . S
C701 C700 1.516 . S
C701 C702 1.502 . S
C701 C703 1.561 . S
C701 C704 1.526 . S
C702 H686 0.959 . S
C702 H687 0.959 . S
C702 H688 0.961 . S
C702 C701 1.502 . S
C703 H689 0.960 . S
C703 H690 0.961 . S
C703 H691 0.959 . S
C703 C701 1.561 . S
C704 C701 1.526 . S
C704 C705 1.396 . S
C704 C709 1.390 . S
C705 C699 1.465 . S
C705 C704 1.396 . S
C705 C706 1.399 . S
C706 H692 0.929 . S
C706 C705 1.399 . S
C706 C707 1.385 . S
C707 H693 0.931 . S
C707 C706 1.385 . S
C707 C708 1.389 . S
C708 C707 1.389 . S
C708 C709 1.387 . S
C709 H694 0.930 . S
C709 C704 1.390 . S
C709 C708 1.387 . S
H710 C722 0.930 . S
H711 C724 0.930 . S
H712 C725 0.930 . S
H713 C729 0.959 . S
H714 C729 0.959 . S
H715 C729 0.961 . S
H716 C730 0.960 . S
H717 C730 0.961 . S
H718 C730 0.959 . S
H719 C733 0.929 . S
H720 C734 0.931 . S
H721 C736 0.930 . S
C722 H710 0.930 . S
C722 C723 1.399 . S
C722 C727 1.399 . S
C723 C722 1.399 . S
C723 C724 1.376 . S
C724 H711 0.930 . S
C724 C723 1.376 . S
C724 C725 1.388 . S
C725 H712 0.930 . S
C725 C724 1.388 . S
C725 C726 1.390 . S
C726 C725 1.390 . S
C726 C727 1.394 . S
C726 C732 1.465 . S
C727 C722 1.399 . S
C727 C726 1.394 . S
C727 C728 1.516 . S
C728 C727 1.516 . S
C728 C729 1.502 . S
C728 C730 1.561 . S
C728 C731 1.526 . S
C729 H713 0.959 . S
C729 H714 0.959 . S
C729 H715 0.961 . S
C729 C728 1.502 . S
C730 H716 0.960 . S
C730 H717 0.961 . S
C730 H718 0.959 . S
C730 C728 1.561 . S
C731 C728 1.526 . S
C731 C732 1.396 . S
C731 C736 1.390 . S
C732 C726 1.465 . S
C732 C731 1.396 . S
C732 C733 1.399 . S
C733 H719 0.929 . S
C733 C732 1.399 . S
C733 C734 1.385 . S
C734 H720 0.931 . S
C734 C733 1.385 . S
C734 C735 1.389 . S
C735 C734 1.389 . S
C735 C736 1.387 . S
C736 H721 0.930 . S
C736 C731 1.390 . S
C736 C735 1.387 . S
H737 C749 0.930 . S
H738 C751 0.930 . S
H739 C752 0.930 . S
H740 C756 0.959 . S
H741 C756 0.959 . S
H742 C756 0.961 . S
H743 C757 0.960 . S
H744 C757 0.961 . S
H745 C757 0.959 . S
H746 C760 0.929 . S
H747 C761 0.931 . S
H748 C763 0.930 . S
C749 H737 0.930 . S
C749 C750 1.399 . S
C749 C754 1.399 . S
C750 C749 1.399 . S
C750 C751 1.376 . S
C751 H738 0.930 . S
C751 C750 1.376 . S
C751 C752 1.388 . S
C752 H739 0.930 . S
C752 C751 1.388 . S
C752 C753 1.390 . S
C753 C752 1.390 . S
C753 C754 1.394 . S
C753 C759 1.465 . S
C754 C749 1.399 . S
C754 C753 1.394 . S
C754 C755 1.516 . S
C755 C754 1.516 . S
C755 C756 1.502 . S
C755 C757 1.561 . S
C755 C758 1.526 . S
C756 H740 0.959 . S
C756 H741 0.959 . S
C756 H742 0.961 . S
C756 C755 1.502 . S
C757 H743 0.960 . S
C757 H744 0.961 . S
C757 H745 0.959 . S
C757 C755 1.561 . S
C758 C755 1.526 . S
C758 C759 1.396 . S
C758 C763 1.390 . S
C759 C753 1.465 . S
C759 C758 1.396 . S
C759 C760 1.399 . S
C760 H746 0.929 . S
C760 C759 1.399 . S
C760 C761 1.385 . S
C761 H747 0.931 . S
C761 C760 1.385 . S
C761 C762 1.389 . S
C762 C761 1.389 . S
C762 C763 1.387 . S
C763 H748 0.930 . S
C763 C758 1.390 . S
C763 C762 1.387 . S
H764 C776 0.930 . S
H765 C778 0.930 . S
H766 C779 0.930 . S
H767 C783 0.959 . S
H768 C783 0.959 . S
H769 C783 0.961 . S
H770 C784 0.960 . S
H771 C784 0.961 . S
H772 C784 0.959 . S
H773 C787 0.929 . S
H774 C788 0.931 . S
H775 C790 0.930 . S
C776 H764 0.930 . S
C776 C777 1.399 . S
C776 C781 1.399 . S
C777 C776 1.399 . S
C777 C778 1.376 . S
C778 H765 0.930 . S
C778 C777 1.376 . S
C778 C779 1.388 . S
C779 H766 0.930 . S
C779 C778 1.388 . S
C779 C780 1.390 . S
C780 C779 1.390 . S
C780 C781 1.394 . S
C780 C786 1.465 . S
C781 C776 1.399 . S
C781 C780 1.394 . S
C781 C782 1.516 . S
C782 C781 1.516 . S
C782 C783 1.502 . S
C782 C784 1.561 . S
C782 C785 1.526 . S
C783 H767 0.959 . S
C783 H768 0.959 . S
C783 H769 0.961 . S
C783 C782 1.502 . S
C784 H770 0.960 . S
C784 H771 0.961 . S
C784 H772 0.959 . S
C784 C782 1.561 . S
C785 C782 1.526 . S
C785 C786 1.396 . S
C785 C790 1.390 . S
C786 C780 1.465 . S
C786 C785 1.396 . S
C786 C787 1.399 . S
C787 H773 0.929 . S
C787 C786 1.399 . S
C787 C788 1.385 . S
C788 H774 0.931 . S
C788 C787 1.385 . S
C788 C789 1.389 . S
C789 C788 1.389 . S
C789 C790 1.387 . S
C790 H775 0.930 . S
C790 C785 1.390 . S
C790 C789 1.387 . S
H791 C803 0.930 . S
H792 C805 0.930 . S
H793 C806 0.930 . S
H794 C810 0.959 . S
H795 C810 0.959 . S
H796 C810 0.961 . S
H797 C811 0.960 . S
H798 C811 0.961 . S
H799 C811 0.959 . S
H800 C814 0.929 . S
H801 C815 0.931 . S
H802 C817 0.930 . S
C803 H791 0.930 . S
C803 C804 1.399 . S
C803 C808 1.399 . S
C804 C803 1.399 . S
C804 C805 1.376 . S
C805 H792 0.930 . S
C805 C804 1.376 . S
C805 C806 1.388 . S
C806 H793 0.930 . S
C806 C805 1.388 . S
C806 C807 1.390 . S
C807 C806 1.390 . S
C807 C808 1.394 . S
C807 C813 1.465 . S
C808 C803 1.399 . S
C808 C807 1.394 . S
C808 C809 1.516 . S
C809 C808 1.516 . S
C809 C810 1.502 . S
C809 C811 1.561 . S
C809 C812 1.526 . S
C810 H794 0.959 . S
C810 H795 0.959 . S
C810 H796 0.961 . S
C810 C809 1.502 . S
C811 H797 0.960 . S
C811 H798 0.961 . S
C811 H799 0.959 . S
C811 C809 1.561 . S
C812 C809 1.526 . S
C812 C813 1.396 . S
C812 C817 1.390 . S
C813 C807 1.465 . S
C813 C812 1.396 . S
C813 C814 1.399 . S
C814 H800 0.929 . S
C814 C813 1.399 . S
C814 C815 1.385 . S
C815 H801 0.931 . S
C815 C814 1.385 . S
C815 C816 1.389 . S
C816 C815 1.389 . S
C816 C817 1.387 . S
C817 H802 0.930 . S
C817 C812 1.390 . S
C817 C816 1.387 . S
H818 C830 0.930 . S
H819 C832 0.930 . S
H820 C833 0.930 . S
H821 C837 0.959 . S
H822 C837 0.959 . S
H823 C837 0.961 . S
H824 C838 0.960 . S
H825 C838 0.961 . S
H826 C838 0.959 . S
H827 C841 0.929 . S
H828 C842 0.931 . S
H829 C844 0.930 . S
C830 H818 0.930 . S
C830 C831 1.399 . S
C830 C835 1.399 . S
C831 C830 1.399 . S
C831 C832 1.376 . S
C832 H819 0.930 . S
C832 C831 1.376 . S
C832 C833 1.388 . S
C833 H820 0.930 . S
C833 C832 1.388 . S
C833 C834 1.390 . S
C834 C833 1.390 . S
C834 C835 1.394 . S
C834 C840 1.465 . S
C835 C830 1.399 . S
C835 C834 1.394 . S
C835 C836 1.516 . S
C836 C835 1.516 . S
C836 C837 1.502 . S
C836 C838 1.561 . S
C836 C839 1.526 . S
C837 H821 0.959 . S
C837 H822 0.959 . S
C837 H823 0.961 . S
C837 C836 1.502 . S
C838 H824 0.960 . S
C838 H825 0.961 . S
C838 H826 0.959 . S
C838 C836 1.561 . S
C839 C836 1.526 . S
C839 C840 1.396 . S
C839 C844 1.390 . S
C840 C834 1.465 . S
C840 C839 1.396 . S
C840 C841 1.399 . S
C841 H827 0.929 . S
C841 C840 1.399 . S
C841 C842 1.385 . S
C842 H828 0.931 . S
C842 C841 1.385 . S
C842 C843 1.389 . S
C843 C842 1.389 . S
C843 C844 1.387 . S
C844 H829 0.930 . S
C844 C839 1.390 . S
C844 C843 1.387 . S
H845 C857 0.930 . S
H846 C859 0.930 . S
H847 C860 0.930 . S
H848 C864 0.959 . S
H849 C864 0.959 . S
H850 C864 0.961 . S
H851 C865 0.960 . S
H852 C865 0.961 . S
H853 C865 0.959 . S
H854 C868 0.929 . S
H855 C869 0.931 . S
H856 C871 0.930 . S
C857 H845 0.930 . S
C857 C858 1.399 . S
C857 C862 1.399 . S
C858 C857 1.399 . S
C858 C859 1.376 . S
C859 H846 0.930 . S
C859 C858 1.376 . S
C859 C860 1.388 . S
C860 H847 0.930 . S
C860 C859 1.388 . S
C860 C861 1.390 . S
C861 C860 1.390 . S
C861 C862 1.394 . S
C861 C867 1.465 . S
C862 C857 1.399 . S
C862 C861 1.394 . S
C862 C863 1.516 . S
C863 C862 1.516 . S
C863 C864 1.502 . S
C863 C865 1.561 . S
C863 C866 1.526 . S
C864 H848 0.959 . S
C864 H849 0.959 . S
C864 H850 0.961 . S
C864 C863 1.502 . S
C865 H851 0.960 . S
C865 H852 0.961 . S
C865 H853 0.959 . S
C865 C863 1.561 . S
C866 C863 1.526 . S
C866 C867 1.396 . S
C866 C871 1.390 . S
C867 C861 1.465 . S
C867 C866 1.396 . S
C867 C868 1.399 . S
C868 H854 0.929 . S
C868 C867 1.399 . S
C868 C869 1.385 . S
C869 H855 0.931 . S
C869 C868 1.385 . S
C869 C870 1.389 . S
C870 C869 1.389 . S
C870 C871 1.387 . S
C871 H856 0.930 . S
C871 C866 1.390 . S
C871 C870 1.387 . S
H872 C884 0.930 . S
H873 C886 0.930 . S
H874 C887 0.930 . S
H875 C891 0.959 . S
H876 C891 0.959 . S
H877 C891 0.961 . S
H878 C892 0.960 . S
H879 C892 0.961 . S
H880 C892 0.959 . S
H881 C895 0.929 . S
H882 C896 0.931 . S
H883 C898 0.930 . S
C884 H872 0.930 . S
C884 C885 1.399 . S
C884 C889 1.399 . S
C885 C884 1.399 . S
C885 C886 1.376 . S
C886 H873 0.930 . S
C886 C885 1.376 . S
C886 C887 1.388 . S
C887 H874 0.930 . S
C887 C886 1.388 . S
C887 C888 1.390 . S
C888 C887 1.390 . S
C888 C889 1.394 . S
C888 C894 1.465 . S
C889 C884 1.399 . S
C889 C888 1.394 . S
C889 C890 1.516 . S
C890 C889 1.516 . S
C890 C891 1.502 . S
C890 C892 1.561 . S
C890 C893 1.526 . S
C891 H875 0.959 . S
C891 H876 0.959 . S
C891 H877 0.961 . S
C891 C890 1.502 . S
C892 H878 0.960 . S
C892 H879 0.961 . S
C892 H880 0.959 . S
C892 C890 1.561 . S
C893 C890 1.526 . S
C893 C894 1.396 . S
C893 C898 1.390 . S
C894 C888 1.465 . S
C894 C893 1.396 . S
C894 C895 1.399 . S
C895 H881 0.929 . S
C895 C894 1.399 . S
C895 C896 1.385 . S
C896 H882 0.931 . S
C896 C895 1.385 . S
C896 C897 1.389 . S
C897 C896 1.389 . S
C897 C898 1.387 . S
C898 H883 0.930 . S
C898 C893 1.390 . S
C898 C897 1.387 . S
H899 C911 0.930 . S
H900 C913 0.930 . S
H901 C914 0.930 . S
H902 C918 0.959 . S
H903 C918 0.959 . S
H904 C918 0.961 . S
H905 C919 0.960 . S
H906 C919 0.961 . S
H907 C919 0.959 . S
H908 C922 0.929 . S
H909 C923 0.931 . S
H910 C925 0.930 . S
C911 H899 0.930 . S
C911 C912 1.399 . S
C911 C916 1.399 . S
C912 C911 1.399 . S
C912 C913 1.376 . S
C913 H900 0.930 . S
C913 C912 1.376 . S
C913 C914 1.388 . S
C914 H901 0.930 . S
C914 C913 1.388 . S
C914 C915 1.390 . S
C915 C914 1.390 . S
C915 C916 1.394 . S
C915 C921 1.465 . S
C916 C911 1.399 . S
C916 C915 1.394 . S
C916 C917 1.516 . S
C917 C916 1.516 . S
C917 C918 1.502 . S
C917 C919 1.561 . S
C917 C920 1.526 . S
C918 H902 0.959 . S
C918 H903 0.959 . S
C918 H904 0.961 . S
C918 C917 1.502 . S
C919 H905 0.960 . S
C919 H906 0.961 . S
C919 H907 0.959 . S
C919 C917 1.561 . S
C920 C917 1.526 . S
C920 C921 1.396 . S
C920 C925 1.390 . S
C921 C915 1.465 . S
C921 C920 1.396 . S
C921 C922 1.399 . S
C922 H908 0.929 . S
C922 C921 1.399 . S
C922 C923 1.385 . S
C923 H909 0.931 . S
C923 C922 1.385 . S
C923 C924 1.389 . S
C924 C923 1.389 . S
C924 C925 1.387 . S
C925 H910 0.930 . S
C925 C920 1.390 . S
C925 C924 1.387 . S
H926 C938 0.930 . S
H927 C940 0.930 . S
H928 C941 0.930 . S
H929 C945 0.959 . S
H930 C945 0.959 . S
H931 C945 0.961 . S
H932 C946 0.960 . S
H933 C946 0.961 . S
H934 C946 0.959 . S
H935 C949 0.929 . S
H936 C950 0.931 . S
H937 C952 0.930 . S
C938 H926 0.930 . S
C938 C939 1.399 . S
C938 C943 1.399 . S
C939 C938 1.399 . S
C939 C940 1.376 . S
C940 H927 0.930 . S
C940 C939 1.376 . S
C940 C941 1.388 . S
C941 H928 0.930 . S
C941 C940 1.388 . S
C941 C942 1.390 . S
C942 C941 1.390 . S
C942 C943 1.394 . S
C942 C948 1.465 . S
C943 C938 1.399 . S
C943 C942 1.394 . S
C943 C944 1.516 . S
C944 C943 1.516 . S
C944 C945 1.502 . S
C944 C946 1.561 . S
C944 C947 1.526 . S
C945 H929 0.959 . S
C945 H930 0.959 . S
C945 H931 0.961 . S
C945 C944 1.502 . S
C946 H932 0.960 . S
C946 H933 0.961 . S
C946 H934 0.959 . S
C946 C944 1.561 . S
C947 C944 1.526 . S
C947 C948 1.396 . S
C947 C952 1.390 . S
C948 C942 1.465 . S
C948 C947 1.396 . S
C948 C949 1.399 . S
C949 H935 0.929 . S
C949 C948 1.399 . S
C949 C950 1.385 . S
C950 H936 0.931 . S
C950 C949 1.385 . S
C950 C951 1.389 . S
C951 C950 1.389 . S
C951 C952 1.387 . S
C952 H937 0.930 . S
C952 C947 1.390 . S
C952 C951 1.387 . S
H953 C965 0.930 . S
H954 C967 0.930 . S
H955 C968 0.930 . S
H956 C972 0.959 . S
H957 C972 0.959 . S
H958 C972 0.961 . S
H959 C973 0.960 . S
H960 C973 0.961 . S
H961 C973 0.959 . S
H962 C976 0.929 . S
H963 C977 0.931 . S
H964 C979 0.930 . S
C965 H953 0.930 . S
C965 C966 1.399 . S
C965 C970 1.399 . S
C966 C965 1.399 . S
C966 C967 1.376 . S
C967 H954 0.930 . S
C967 C966 1.376 . S
C967 C968 1.388 . S
C968 H955 0.930 . S
C968 C967 1.388 . S
C968 C969 1.390 . S
C969 C968 1.390 . S
C969 C970 1.394 . S
C969 C975 1.465 . S
C970 C965 1.399 . S
C970 C969 1.394 . S
C970 C971 1.516 . S
C971 C970 1.516 . S
C971 C972 1.502 . S
C971 C973 1.561 . S
C971 C974 1.526 . S
C972 H956 0.959 . S
C972 H957 0.959 . S
C972 H958 0.961 . S
C972 C971 1.502 . S
C973 H959 0.960 . S
C973 H960 0.961 . S
C973 H961 0.959 . S
C973 C971 1.561 . S
C974 C971 1.526 . S
C974 C975 1.396 . S
C974 C979 1.390 . S
C975 C969 1.465 . S
C975 C974 1.396 . S
C975 C976 1.399 . S
C976 H962 0.929 . S
C976 C975 1.399 . S
C976 C977 1.385 . S
C977 H963 0.931 . S
C977 C976 1.385 . S
C977 C978 1.389 . S
C978 C977 1.389 . S
C978 C979 1.387 . S
C979 H964 0.930 . S
C979 C974 1.390 . S
C979 C978 1.387 . S
H980 C992 0.930 . S
H981 C994 0.930 . S
H982 C995 0.930 . S
H983 C999 0.959 . S
H984 C999 0.959 . S
H985 C999 0.961 . S
H986 C1000 0.960 . S
H987 C1000 0.961 . S
H988 C1000 0.959 . S
H989 C1003 0.929 . S
H990 C1004 0.931 . S
H991 C1006 0.930 . S
C992 H980 0.930 . S
C992 C993 1.399 . S
C992 C997 1.399 . S
C993 C992 1.399 . S
C993 C994 1.376 . S
C994 H981 0.930 . S
C994 C993 1.376 . S
C994 C995 1.388 . S
C995 H982 0.930 . S
C995 C994 1.388 . S
C995 C996 1.390 . S
C996 C995 1.390 . S
C996 C997 1.394 . S
C996 C1002 1.465 . S
C997 C992 1.399 . S
C997 C996 1.394 . S
C997 C998 1.516 . S
C998 C997 1.516 . S
C998 C999 1.502 . S
C998 C1000 1.561 . S
C998 C1001 1.526 . S
C999 H983 0.959 . S
C999 H984 0.959 . S
C999 H985 0.961 . S
C999 C998 1.502 . S
C1000 H986 0.960 . S
C1000 H987 0.961 . S
C1000 H988 0.959 . S
C1000 C998 1.561 . S
C1001 C998 1.526 . S
C1001 C1002 1.396 . S
C1001 C1006 1.390 . S
C1002 C996 1.465 . S
C1002 C1001 1.396 . S
C1002 C1003 1.399 . S
C1003 H989 0.929 . S
C1003 C1002 1.399 . S
C1003 C1004 1.385 . S
C1004 H990 0.931 . S
C1004 C1003 1.385 . S
C1004 C1005 1.389 . S
C1005 C1004 1.389 . S
C1005 C1006 1.387 . S
C1006 H991 0.930 . S
C1006 C1001 1.390 . S
C1006 C1005 1.387 . S
H1007 C1019 0.930 . S
H1008 C1021 0.930 . S
H1009 C1022 0.930 . S
H1010 C1026 0.959 . S
H1011 C1026 0.959 . S
H1012 C1026 0.961 . S
H1013 C1027 0.960 . S
H1014 C1027 0.961 . S
H1015 C1027 0.959 . S
H1016 C1030 0.929 . S
H1017 C1031 0.931 . S
H1018 C1033 0.930 . S
C1019 H1007 0.930 . S
C1019 C1020 1.399 . S
C1019 C1024 1.399 . S
C1020 C1019 1.399 . S
C1020 C1021 1.376 . S
C1021 H1008 0.930 . S
C1021 C1020 1.376 . S
C1021 C1022 1.388 . S
C1022 H1009 0.930 . S
C1022 C1021 1.388 . S
C1022 C1023 1.390 . S
C1023 C1022 1.390 . S
C1023 C1024 1.394 . S
C1023 C1029 1.465 . S
C1024 C1019 1.399 . S
C1024 C1023 1.394 . S
C1024 C1025 1.516 . S
C1025 C1024 1.516 . S
C1025 C1026 1.502 . S
C1025 C1027 1.561 . S
C1025 C1028 1.526 . S
C1026 H1010 0.959 . S
C1026 H1011 0.959 . S
C1026 H1012 0.961 . S
C1026 C1025 1.502 . S
C1027 H1013 0.960 . S
C1027 H1014 0.961 . S
C1027 H1015 0.959 . S
C1027 C1025 1.561 . S
C1028 C1025 1.526 . S
C1028 C1029 1.396 . S
C1028 C1033 1.390 . S
C1029 C1023 1.465 . S
C1029 C1028 1.396 . S
C1029 C1030 1.399 . S
C1030 H1016 0.929 . S
C1030 C1029 1.399 . S
C1030 C1031 1.385 . S
C1031 H1017 0.931 . S
C1031 C1030 1.385 . S
C1031 C1032 1.389 . S
C1032 C1031 1.389 . S
C1032 C1033 1.387 . S
C1033 H1018 0.930 . S
C1033 C1028 1.390 . S
C1033 C1032 1.387 . S
H1034 C1046 0.930 . S
H1035 C1048 0.930 . S
H1036 C1049 0.930 . S
H1037 C1053 0.959 . S
H1038 C1053 0.959 . S
H1039 C1053 0.961 . S
H1040 C1054 0.960 . S
H1041 C1054 0.961 . S
H1042 C1054 0.959 . S
H1043 C1057 0.929 . S
H1044 C1058 0.931 1_554 S
H1045 C1060 0.930 . S
C1046 H1034 0.930 . S
C1046 C1047 1.399 . S
C1046 C1051 1.399 . S
C1047 C1046 1.399 . S
C1047 C1048 1.376 . S
C1048 H1035 0.930 . S
C1048 C1047 1.376 . S
C1048 C1049 1.388 . S
C1049 H1036 0.930 . S
C1049 C1048 1.388 . S
C1049 C1050 1.390 . S
C1050 C1049 1.390 . S
C1050 C1051 1.394 . S
C1050 C1056 1.465 . S
C1051 C1046 1.399 . S
C1051 C1050 1.394 . S
C1051 C1052 1.516 . S
C1052 C1051 1.516 . S
C1052 C1053 1.502 . S
C1052 C1054 1.561 . S
C1052 C1055 1.526 . S
C1053 H1037 0.959 . S
C1053 H1038 0.959 . S
C1053 H1039 0.961 . S
C1053 C1052 1.502 . S
C1054 H1040 0.960 . S
C1054 H1041 0.961 . S
C1054 H1042 0.959 . S
C1054 C1052 1.561 . S
C1055 C1052 1.526 . S
C1055 C1056 1.396 . S
C1055 C1060 1.390 . S
C1056 C1050 1.465 . S
C1056 C1055 1.396 . S
C1056 C1057 1.399 . S
C1057 H1043 0.929 . S
C1057 C1056 1.399 . S
C1057 C1058 1.385 . S
C1058 H1044 0.931 1_556 S
C1058 C1057 1.385 . S
C1058 C1059 1.389 . S
C1059 C1058 1.389 . S
C1059 C1060 1.387 . S
C1060 H1045 0.930 . S
C1060 C1055 1.390 . S
C1060 C1059 1.387 . S
H1061 C1073 0.930 . S
H1062 C1075 0.930 . S
H1063 C1076 0.930 . S
H1064 C1080 0.959 . S
H1065 C1080 0.959 . S
H1066 C1080 0.961 . S
H1067 C1081 0.960 . S
H1068 C1081 0.961 . S
H1069 C1081 0.959 . S
H1070 C1084 0.929 . S
H1071 C1085 0.931 . S
H1072 C1087 0.930 . S
C1073 H1061 0.930 . S
C1073 C1074 1.399 . S
C1073 C1078 1.399 . S
C1074 C1073 1.399 . S
C1074 C1075 1.376 . S
C1075 H1062 0.930 . S
C1075 C1074 1.376 . S
C1075 C1076 1.388 . S
C1076 H1063 0.930 . S
C1076 C1075 1.388 . S
C1076 C1077 1.390 . S
C1077 C1076 1.390 . S
C1077 C1078 1.394 . S
C1077 C1083 1.465 . S
C1078 C1073 1.399 . S
C1078 C1077 1.394 . S
C1078 C1079 1.516 . S
C1079 C1078 1.516 . S
C1079 C1080 1.502 . S
C1079 C1081 1.561 . S
C1079 C1082 1.526 . S
C1080 H1064 0.959 . S
C1080 H1065 0.959 . S
C1080 H1066 0.961 . S
C1080 C1079 1.502 . S
C1081 H1067 0.960 . S
C1081 H1068 0.961 . S
C1081 H1069 0.959 . S
C1081 C1079 1.561 . S
C1082 C1079 1.526 . S
C1082 C1083 1.396 . S
C1082 C1087 1.390 . S
C1083 C1077 1.465 . S
C1083 C1082 1.396 . S
C1083 C1084 1.399 . S
C1084 H1070 0.929 . S
C1084 C1083 1.399 . S
C1084 C1085 1.385 . S
C1085 H1071 0.931 . S
C1085 C1084 1.385 . S
C1085 C1086 1.389 . S
C1086 C1085 1.389 . S
C1086 C1087 1.387 . S
C1087 H1072 0.930 . S
C1087 C1082 1.390 . S
C1087 C1086 1.387 . S
C237 C13 0.823 . S
C249 C68 0.854 . S
C264 C27 0.831 . S
C276 C71 0.860 . S
C291 C96 0.822 . S
C303 C28 0.861 . S
C318 C55 0.855 . S
C330 C110 0.826 . S
C345 C69 0.846 . S
C357 C12 0.862 . S
C372 C140 0.828 . S
C384 C124 0.839 . S
C399 C97 0.862 . S
C411 C29 0.841 . S
C426 C138 0.864 . S
C438 C166 0.837 . S
C453 C180 0.856 . S
C465 C208 0.841 . S
C480 C125 0.854 . S
C492 C141 0.827 . S
C507 C182 0.828 . S
C519 C222 0.848 . S
C534 C167 0.829 . S
C546 C139 0.861 . S
C561 C209 0.844 . S
C573 C181 0.821 . S
C588 C26 0.824 . S
C600 C70 0.845 . S
C615 C183 0.838 . S
C627 C223 0.866 . S
C642 C111 0.822 . S
C654 C54 0.850 . S
C669 C0 1.579 . S
C681 C99 1.547 . S
C696 C57 1.554 . S
C708 C14 1.576 . S
C723 C82 1.574 . S
C735 C41 1.566 . S
C750 C42 1.560 . S
C762 C85 1.568 . S
C777 C1 1.562 . S
C789 C155 1.582 . S
C804 C113 1.553 . S
C816 C56 1.581 . S
C831 C153 1.577 . S
C843 C40 1.557 . S
C858 C127 1.553 . S
C870 C84 1.579 . S
C885 C169 1.581 . S
C897 C154 1.553 . S
C912 C197 1.552 . S
C924 C112 1.582 . S
C939 C152 1.564 . S
C951 C195 1.566 . S
C966 C211 1.578 . S
C978 C126 1.555 . S
C993 C98 1.553 . S
C1005 C168 1.581 . S
C1020 C196 1.576 . S
C1032 C15 1.559 . S
C1047 C83 1.554 . S
C1059 C194 1.579 . S
C1074 C210 1.562 . S
C1086 C43 1.573 . S
