# Generated by pormake.
# Topology umm, (4)-cn, num edge types: 1
# Building blocks:
#     Node 0, Type 0, BuildingBlock: CEKHIL_clean_sbu_0, # of connection points: 4
#     Node 1, Type 0, BuildingBlock: CEKHIL_clean_sbu_0, # of connection points: 4
#     Node 2, Type 0, BuildingBlock: CEKHIL_clean_sbu_0, # of connection points: 4
#     Node 3, Type 0, BuildingBlock: CEKHIL_clean_sbu_0, # of connection points: 4
#     Node 4, Type 0, BuildingBlock: CEKHIL_clean_sbu_0, # of connection points: 4
#     Node 5, Type 0, BuildingBlock: CEKHIL_clean_sbu_0, # of connection points: 4
#     Node 6, Type 0, BuildingBlock: CEKHIL_clean_sbu_0, # of connection points: 4
#     Node 7, Type 0, BuildingBlock: CEKHIL_clean_sbu_0, # of connection points: 4
#     Node 8, Type 0, BuildingBlock: CEKHIL_clean_sbu_0, # of connection points: 4
#     Node 9, Type 0, BuildingBlock: CEKHIL_clean_sbu_0, # of connection points: 4
#     Node 10, Type 0, BuildingBlock: CEKHIL_clean_sbu_0, # of connection points: 4
#     Node 11, Type 0, BuildingBlock: CEKHIL_clean_sbu_0, # of connection points: 4
#     Edge 12, Type (0, 0), BuildingBlock: AJUNOK_clean_linker_0, # of connection points: 2
#     Edge 13, Type (0, 0), BuildingBlock: AJUNOK_clean_linker_0, # of connection points: 2
#     Edge 14, Type (0, 0), BuildingBlock: AJUNOK_clean_linker_0, # of connection points: 2
#     Edge 15, Type (0, 0), BuildingBlock: AJUNOK_clean_linker_0, # of connection points: 2
#     Edge 16, Type (0, 0), BuildingBlock: AJUNOK_clean_linker_0, # of connection points: 2
#     Edge 17, Type (0, 0), BuildingBlock: AJUNOK_clean_linker_0, # of connection points: 2
#     Edge 18, Type (0, 0), BuildingBlock: AJUNOK_clean_linker_0, # of connection points: 2
#     Edge 19, Type (0, 0), BuildingBlock: AJUNOK_clean_linker_0, # of connection points: 2
#     Edge 20, Type (0, 0), BuildingBlock: AJUNOK_clean_linker_0, # of connection points: 2
#     Edge 21, Type (0, 0), BuildingBlock: AJUNOK_clean_linker_0, # of connection points: 2
#     Edge 22, Type (0, 0), BuildingBlock: AJUNOK_clean_linker_0, # of connection points: 2
#     Edge 23, Type (0, 0), BuildingBlock: AJUNOK_clean_linker_0, # of connection points: 2
#     Edge 24, Type (0, 0), BuildingBlock: AJUNOK_clean_linker_0, # of connection points: 2
#     Edge 25, Type (0, 0), BuildingBlock: AJUNOK_clean_linker_0, # of connection points: 2
#     Edge 26, Type (0, 0), BuildingBlock: AJUNOK_clean_linker_0, # of connection points: 2
#     Edge 27, Type (0, 0), BuildingBlock: AJUNOK_clean_linker_0, # of connection points: 2
#     Edge 28, Type (0, 0), BuildingBlock: AJUNOK_clean_linker_0, # of connection points: 2
#     Edge 29, Type (0, 0), BuildingBlock: AJUNOK_clean_linker_0, # of connection points: 2
#     Edge 30, Type (0, 0), BuildingBlock: AJUNOK_clean_linker_0, # of connection points: 2
#     Edge 31, Type (0, 0), BuildingBlock: AJUNOK_clean_linker_0, # of connection points: 2
#     Edge 32, Type (0, 0), BuildingBlock: AJUNOK_clean_linker_0, # of connection points: 2
#     Edge 33, Type (0, 0), BuildingBlock: AJUNOK_clean_linker_0, # of connection points: 2
#     Edge 34, Type (0, 0), BuildingBlock: AJUNOK_clean_linker_0, # of connection points: 2
#     Edge 35, Type (0, 0), BuildingBlock: AJUNOK_clean_linker_0, # of connection points: 2
# Relax obj value: 0.133
# Max RMSD: 0.387
# Mean RMSD: 0.251
data_MOF--net-umm--node1-CEKHIL_clean_sbu_0--edge1-AJUNOK_clean_linker_0
_symmetry_space_group_name_H-M    P1
_symmetry_Int_Tables_number       1
_symmetry_cell_setting            triclinic
loop_
_symmetry_equiv_pos_as_xyz
'x, y, z'
_cell_length_a     41.438207
_cell_length_b     38.794414
_cell_length_c     19.978856
_cell_angle_alpha  89.971002
_cell_angle_beta   90.144213
_cell_angle_gamma 117.95129
loop_
_atom_site_label
_atom_site_type_symbol
_atom_site_fract_x
_atom_site_fract_y
_atom_site_fract_z
_atom_type_partial_charge
Co0 Co 0.39427 0.53614 0.06196 0.0
O1 O 0.34903 0.53878 0.05885 0.0
O2 O 0.35466 0.48752 0.0264 0.0
C3 C 0.4111 0.56162 0.16485 0.0
O4 O 0.43822 0.52457 0.06118 0.0
Co5 Co 0.46547 0.61508 0.06592 0.0
O6 O 0.48942 0.58166 0.07732 0.0
C7 C 0.42636 0.58848 0.93901 0.0
C8 C 0.3338 0.5041 0.03346 0.0
C9 C 0.4733 0.54471 0.06989 0.0
O10 O 0.40525 0.55631 0.9681 0.0
O11 O 0.4509 0.6178 0.97058 0.0
O12 O 0.38819 0.52485 0.15716 0.0
O13 O 0.41962 0.58243 0.1109 0.0
Co14 Co 0.87067 0.38025 0.42139 0.0
O15 O 0.82312 0.33536 0.42627 0.0
O16 O 0.87163 0.33394 0.38408 0.0
C17 C 0.87068 0.40244 0.52565 0.0
O18 O 0.92458 0.42298 0.41181 0.0
Co19 Co 0.8722 0.46065 0.42601 0.0
O20 O 0.92575 0.48069 0.43263 0.0
C21 C 0.85029 0.41603 0.30177 0.0
C22 C 0.83672 0.31539 0.39717 0.0
C23 C 0.94214 0.46056 0.42075 0.0
O24 O 0.85917 0.39177 0.32906 0.0
O25 O 0.85063 0.44474 0.33383 0.0
O26 O 0.87949 0.37479 0.51579 0.0
O27 O 0.85797 0.41204 0.47371 0.0
Co28 Co 0.47902 0.83885 0.78602 0.0
O29 O 0.47968 0.78976 0.7784 0.0
O30 O 0.5238 0.84649 0.74333 0.0
C31 C 0.45851 0.83202 0.89224 0.0
O32 O 0.48855 0.89558 0.78762 0.0
Co33 Co 0.40608 0.84136 0.80386 0.0
O34 O 0.43764 0.89789 0.81948 0.0
C35 C 0.42428 0.82313 0.67187 0.0
C36 C 0.5107 0.80883 0.74774 0.0
C37 C 0.47142 0.91477 0.80443 0.0
O38 O 0.45579 0.83033 0.69476 0.0
O39 O 0.39923 0.82395 0.708 0.0
O40 O 0.4929 0.84328 0.88044 0.0
O41 O 0.43746 0.82112 0.84017 0.0
Co42 Co 0.65013 0.48292 0.06352 0.0
O43 O 0.69519 0.47998 0.05932 0.0
O44 O 0.68947 0.53093 0.02539 0.0
C45 C 0.63472 0.45895 0.16743 0.0
O46 O 0.6058 0.49405 0.06338 0.0
Co47 Co 0.5797 0.40308 0.07147 0.0
O48 O 0.5565 0.4368 0.08741 0.0
C49 C 0.61554 0.42949 0.94214 0.0
C50 C 0.71024 0.51419 0.03237 0.0
C51 C 0.5712 0.47342 0.0767 0.0
O52 O 0.63764 0.46147 0.97075 0.0
O53 O 0.59138 0.40036 0.97447 0.0
O54 O 0.65757 0.4956 0.15829 0.0
O55 O 0.62572 0.4375 0.11422 0.0
Co56 Co 0.17186 0.63467 0.41915 0.0
O57 O 0.21847 0.68063 0.42502 0.0
O58 O 0.16918 0.68013 0.38189 0.0
C59 C 0.17258 0.61289 0.52337 0.0
O60 O 0.11867 0.59021 0.40883 0.0
Co61 Co 0.17456 0.55649 0.423 0.0
O62 O 0.12078 0.53418 0.42985 0.0
C63 C 0.19515 0.60165 0.29959 0.0
C64 C 0.204 0.69973 0.39573 0.0
C65 C 0.10278 0.5526 0.41766 0.0
O66 O 0.18434 0.62429 0.32694 0.0
O67 O 0.19642 0.57368 0.33139 0.0
O68 O 0.16239 0.63946 0.51324 0.0
O69 O 0.18616 0.60422 0.47172 0.0
Co70 Co 0.55426 0.16484 0.7803 0.0
O71 O 0.56001 0.21665 0.76891 0.0
O72 O 0.51015 0.16245 0.74201 0.0
C73 C 0.5785 0.17215 0.88356 0.0
O74 O 0.53879 0.10653 0.78645 0.0
Co75 Co 0.62391 0.15474 0.78803 0.0
O76 O 0.58877 0.09955 0.80769 0.0
C77 C 0.60195 0.17144 0.65884 0.0
C78 C 0.52768 0.20044 0.74221 0.0
C79 C 0.55433 0.08521 0.79981 0.0
O80 O 0.57239 0.16671 0.68683 0.0
O81 O 0.6285 0.17151 0.69173 0.0
O82 O 0.54483 0.1654 0.87579 0.0
O83 O 0.59735 0.17936 0.82906 0.0
Co84 Co 0.48475 0.63598 0.53645 0.0
O85 O 0.48569 0.68568 0.54711 0.0
O86 O 0.52967 0.67237 0.5805 0.0
C87 C 0.46376 0.62419 0.43021 0.0
O88 O 0.49365 0.58842 0.53173 0.0
Co89 Co 0.41105 0.56125 0.51538 0.0
O90 O 0.44203 0.5356 0.50015 0.0
C91 C 0.42987 0.59573 0.64909 0.0
C92 C 0.51671 0.69709 0.57764 0.0
C93 C 0.47591 0.55209 0.51484 0.0
O94 O 0.46168 0.61976 0.62723 0.0
O95 O 0.40433 0.57148 0.6114 0.0
O96 O 0.49832 0.64682 0.44204 0.0
O97 O 0.4431 0.6134 0.48246 0.0
Co98 Co 0.87072 0.48064 0.89978 0.0
O99 O 0.8227 0.4763 0.89454 0.0
O100 O 0.86966 0.5264 0.94035 0.0
C101 C 0.8717 0.4617 0.79338 0.0
O102 O 0.92503 0.49348 0.90996 0.0
Co103 Co 0.87543 0.40343 0.88576 0.0
O104 O 0.92867 0.43891 0.88277 0.0
C105 C 0.85097 0.42069 0.01285 0.0
C106 C 0.83492 0.50934 0.92527 0.0
C107 C 0.94374 0.47495 0.89862 0.0
O108 O 0.85869 0.45453 0.98974 0.0
O109 O 0.85347 0.39442 0.97785 0.0
O110 O 0.87994 0.49767 0.80674 0.0
O111 O 0.85957 0.43795 0.84349 0.0
Co112 Co 0.39179 0.85181 0.26255 0.0
O113 O 0.34592 0.80455 0.26191 0.0
O114 O 0.35268 0.86112 0.29912 0.0
C115 C 0.40873 0.84485 0.15867 0.0
O116 O 0.43648 0.90684 0.26729 0.0
Co117 Co 0.46202 0.84271 0.25717 0.0
O118 O 0.48658 0.90016 0.24518 0.0
C119 C 0.42169 0.82673 0.38293 0.0
C120 C 0.33121 0.82401 0.28901 0.0
C121 C 0.47132 0.92152 0.25621 0.0
O122 O 0.40168 0.8399 0.35562 0.0
O123 O 0.44606 0.82217 0.35061 0.0
O124 O 0.3866 0.85954 0.16781 0.0
O125 O 0.41658 0.83105 0.21164 0.0
Co126 Co 0.55652 0.38259 0.53644 0.0
O127 O 0.56215 0.33659 0.54622 0.0
O128 O 0.51309 0.34123 0.57748 0.0
C129 C 0.57889 0.39768 0.43161 0.0
O130 O 0.54153 0.42595 0.5317 0.0
Co131 Co 0.62631 0.46223 0.52042 0.0
O132 O 0.59083 0.48199 0.50299 0.0
C133 C 0.60835 0.42479 0.65181 0.0
C134 C 0.53047 0.32064 0.57505 0.0
C135 C 0.55678 0.46244 0.51543 0.0
O136 O 0.57731 0.39967 0.6285 0.0
O137 O 0.63345 0.45042 0.61532 0.0
O138 O 0.54502 0.37173 0.4411 0.0
O139 O 0.59841 0.40992 0.4852 0.0
Co140 Co 0.17512 0.53851 0.89929 0.0
O141 O 0.22217 0.54054 0.89398 0.0
O142 O 0.17452 0.49233 0.94172 0.0
C143 C 0.17425 0.55643 0.79217 0.0
O144 O 0.12155 0.52848 0.90977 0.0
Co145 Co 0.17453 0.61778 0.88207 0.0
O146 O 0.12104 0.58393 0.87739 0.0
C147 C 0.19715 0.5999 0.01083 0.0
C148 C 0.20909 0.50789 0.92601 0.0
C149 C 0.10438 0.54842 0.89613 0.0
O150 O 0.1887 0.56573 0.98837 0.0
O151 O 0.19543 0.62643 0.97521 0.0
O152 O 0.16465 0.52028 0.80683 0.0
O153 O 0.18757 0.58071 0.84141 0.0
Co154 Co 0.64906 0.16109 0.25571 0.0
O155 O 0.69442 0.209 0.25709 0.0
O156 O 0.68798 0.15333 0.29814 0.0
C157 C 0.63428 0.16681 0.1489 0.0
O158 O 0.60471 0.10561 0.2599 0.0
Co159 Co 0.57798 0.16902 0.23649 0.0
O160 O 0.55453 0.11137 0.23225 0.0
C161 C 0.61218 0.1822 0.36942 0.0
C162 C 0.70912 0.19045 0.28755 0.0
C163 C 0.56982 0.09069 0.24847 0.0
O164 O 0.63606 0.17314 0.3463 0.0
O165 O 0.58809 0.185 0.33293 0.0
O166 O 0.65667 0.15283 0.16168 0.0
O167 O 0.62504 0.18047 0.20001 0.0
C168 C 0.45978 0.60828 0.24169 0.0
C169 C 0.42387 0.57858 0.23174 0.0
C170 C 0.4725 0.62307 0.30607 0.0
C171 C 0.44945 0.60925 0.3623 0.0
H172 H 0.47842 0.61943 0.1998 0.0
H173 H 0.50062 0.64535 0.31176 0.0
S174 S 0.35167 0.53429 0.36048 0.0
N175 N 0.36487 0.53728 0.28191 0.0
N176 N 0.38796 0.56593 0.40205 0.0
C177 C 0.41299 0.58054 0.3521 0.0
C178 C 0.40041 0.56496 0.28701 0.0
C179 C 0.87345 0.39846 0.65011 0.0
C180 C 0.87256 0.41926 0.59297 0.0
C181 C 0.87346 0.41253 0.71474 0.0
C182 C 0.87333 0.44833 0.7247 0.0
H183 H 0.87332 0.37059 0.645 0.0
H184 H 0.87351 0.39517 0.75718 0.0
S185 S 0.87278 0.515 0.59181 0.0
N186 N 0.8724 0.47793 0.55067 0.0
N187 N 0.87335 0.50489 0.67194 0.0
C188 C 0.87342 0.46994 0.66803 0.0
C189 C 0.87275 0.45526 0.60221 0.0
C190 C 0.46757 0.84083 0.01653 0.0
C191 C 0.4449 0.83407 0.96008 0.0
C192 C 0.45558 0.84364 0.08106 0.0
C193 C 0.42086 0.84078 0.0911 0.0
H194 H 0.49478 0.84388 0.01095 0.0
H195 H 0.47385 0.84887 0.12312 0.0
S196 S 0.35022 0.82129 0.96137 0.0
N197 N 0.38513 0.82256 0.91988 0.0
N198 N 0.36344 0.82949 0.04031 0.0
C199 C 0.39787 0.8338 0.03546 0.0
C200 C 0.40965 0.82999 0.97015 0.0
C201 C 0.58641 0.41079 0.24265 0.0
C202 C 0.62109 0.44311 0.23455 0.0
C203 C 0.57284 0.39636 0.30663 0.0
C204 C 0.59381 0.41326 0.3645 0.0
H205 H 0.56939 0.397 0.19944 0.0
H206 H 0.54577 0.37173 0.31066 0.0
S207 S 0.68765 0.49691 0.36894 0.0
N208 N 0.67663 0.49082 0.28885 0.0
N209 N 0.65195 0.46308 0.40853 0.0
C210 C 0.62897 0.44504 0.35655 0.0
C211 C 0.64239 0.46014 0.29169 0.0
C212 C 0.17105 0.61807 0.6476 0.0
C213 C 0.17173 0.59686 0.59094 0.0
C214 C 0.17175 0.60472 0.71251 0.0
C215 C 0.17232 0.56922 0.72321 0.0
H216 H 0.17076 0.64569 0.64189 0.0
H217 H 0.17177 0.62234 0.75457 0.0
S218 S 0.1729 0.50186 0.59184 0.0
N219 N 0.17247 0.5383 0.54983 0.0
N220 N 0.17275 0.51259 0.67176 0.0
C221 C 0.17216 0.54724 0.66705 0.0
C222 C 0.17218 0.56125 0.60091 0.0
C223 C 0.58825 0.17049 0.07234 0.0
C224 C 0.62051 0.16743 0.08078 0.0
C225 C 0.57484 0.17169 0.00837 0.0
C226 C 0.59355 0.17068 0.95033 0.0
H227 H 0.57302 0.17169 0.11545 0.0
H228 H 0.54977 0.17386 0.00451 0.0
S229 S 0.6798 0.16346 0.94546 0.0
N230 N 0.67089 0.16335 0.02596 0.0
N231 N 0.64637 0.16678 0.90582 0.0
C232 C 0.62605 0.16793 0.95815 0.0
C233 C 0.63932 0.16595 0.02335 0.0
C234 C 0.29698 0.50163 0.93471 0.0
C235 C 0.29762 0.48987 0.00091 0.0
C236 C 0.26625 0.50318 0.90858 0.0
C237 C 0.23473 0.49297 0.9475 0.0
H238 H 0.32161 0.51336 0.9049 0.0
H239 H 0.26834 0.51545 0.85906 0.0
S240 S 0.2199 0.45252 0.11946 0.0
N241 N 0.26243 0.46268 0.10202 0.0
N242 N 0.20408 0.46465 0.0523 0.0
C243 C 0.23351 0.47708 0.01134 0.0
C244 C 0.26521 0.47601 0.03835 0.0
C245 C 0.80667 0.27055 0.30118 0.0
C246 C 0.81136 0.27604 0.3708 0.0
C247 C 0.77462 0.23994 0.274 0.0
C248 C 0.74662 0.21301 0.31535 0.0
H249 H 0.82607 0.29223 0.26752 0.0
H250 H 0.77059 0.23899 0.22029 0.0
S251 S 0.7475 0.21222 0.50071 0.0
N252 N 0.78647 0.25048 0.48037 0.0
N253 N 0.72731 0.19202 0.42928 0.0
C254 C 0.75255 0.21614 0.38482 0.0
C255 C 0.78464 0.24793 0.41252 0.0
C256 C 0.52241 0.75189 0.73379 0.0
C257 C 0.52567 0.78725 0.70872 0.0
C258 C 0.5254 0.72476 0.69128 0.0
C259 C 0.53003 0.73137 0.622 0.0
H260 H 0.51499 0.74397 0.78563 0.0
H261 H 0.52027 0.69678 0.71168 0.0
S262 S 0.54714 0.82223 0.53357 0.0
N263 N 0.54028 0.83022 0.61223 0.0
N264 N 0.54343 0.77791 0.53176 0.0
C265 C 0.53687 0.76802 0.59742 0.0
C266 C 0.53526 0.79634 0.64107 0.0
C267 C 0.74531 0.51224 0.93426 0.0
C268 C 0.74584 0.52736 -0.00171 0.0
C269 C 0.77587 0.51034 0.90851 0.0
C270 C 0.80843 0.52333 0.94576 0.0
H271 H 0.72003 0.49833 0.90627 0.0
H272 H 0.77297 0.49583 0.86085 0.0
S273 S 0.82598 0.57152 0.11184 0.0
N274 N 0.78289 0.55972 0.09553 0.0
N275 N 0.84088 0.5569 0.04658 0.0
C276 C 0.81059 0.54201 0.00725 0.0
C277 C 0.77908 0.54359 0.03384 0.0
C278 C 0.23323 0.74529 0.30055 0.0
C279 C 0.22862 0.73942 0.37009 0.0
C280 C 0.26539 0.77586 0.27389 0.0
C281 C 0.29353 0.80232 0.31575 0.0
H282 H 0.2138 0.72378 0.26655 0.0
H283 H 0.26947 0.77698 0.22022 0.0
S284 S 0.29299 0.80198 0.50108 0.0
N285 N 0.25373 0.76422 0.4801 0.0
N286 N 0.31315 0.82247 0.42999 0.0
C287 C 0.28764 0.79892 0.38514 0.0
C288 C 0.25542 0.76724 0.41229 0.0
C289 C 0.52982 0.22779 0.63024 0.0
C290 C 0.51762 0.22375 0.69665 0.0
C291 C 0.53043 0.25713 0.58875 0.0
C292 C 0.51878 0.28364 0.61207 0.0
H293 H 0.54181 0.2102 0.61184 0.0
H294 H 0.5425 0.26074 0.53949 0.0
S295 S 0.48164 0.28356 0.78083 0.0
N296 N 0.49162 0.24701 0.78308 0.0
N297 N 0.49207 0.30214 0.70465 0.0
C298 C 0.50402 0.27822 0.67699 0.0
C299 C 0.50384 0.24842 0.71963 0.0
C300 C 0.53455 0.5469 0.05405 0.0
C301 C 0.49715 0.52534 0.0709 0.0
C302 C 0.55837 0.53035 0.05676 0.0
C303 C 0.54603 0.49147 0.077 0.0
H304 H 0.54564 0.57698 0.03801 0.0
H305 H 0.5866 0.54817 0.04235 0.0
S306 S 0.45082 0.42298 0.13024 0.0
N307 N 0.44925 0.46345 0.11045 0.0
N308 N 0.49339 0.43217 0.11683 0.0
C309 C 0.50861 0.46971 0.09492 0.0
C310 C 0.48439 0.48658 0.09142 0.0
C311 C 1.00091 0.52419 0.41889 0.0
C312 C 0.98313 0.48282 0.41688 0.0
C313 C 0.03922 0.54648 0.4176 0.0
C314 C 0.06188 0.52865 0.4146 0.0
H315 H 0.98514 0.53985 0.42195 0.0
H316 H 0.05111 0.57797 0.42027 0.0
S317 S 0.0296 0.42138 0.4048 0.0
N318 N 0.99166 0.42521 0.40925 0.0
N319 N 0.06326 0.46651 0.40655 0.0
C320 C 0.04449 0.48726 0.4111 0.0
C321 C 1.00539 0.4646 0.41227 0.0
C322 C 0.54972 0.01842 0.8024 0.0
C323 C 0.53206 0.04192 0.80322 0.0
C324 C 0.52995 0.97761 0.80302 0.0
C325 C 0.49158 0.95824 0.80505 0.0
H326 H 0.57923 0.03155 0.80033 0.0
H327 H 0.54506 0.96116 0.80193 0.0
S328 S 0.43182 1.00589 0.80938 0.0
N329 N 0.4737 0.04256 0.80724 0.0
N330 N 0.43647 0.9659 0.80864 0.0
C331 C 0.47343 0.9813 0.80677 0.0
C332 C 0.49366 0.02301 0.80572 0.0
C333 C 0.53384 0.54668 0.51269 0.0
C334 C 0.49547 0.52819 0.51365 0.0
C335 C 0.55308 0.5251 0.51245 0.0
C336 C 0.5349 0.48391 0.51381 0.0
H337 H 0.54934 0.57823 0.5119 0.0
H338 H 0.58264 0.54112 0.51203 0.0
S339 S 0.43441 0.42094 0.5167 0.0
N340 N 0.43976 0.46587 0.51584 0.0
N341 N 0.47603 0.42544 0.51568 0.0
C342 C 0.49648 0.46492 0.51466 0.0
C343 C 0.47678 0.48695 0.51441 0.0
C344 C 0.04184 0.48988 0.90774 0.0
C345 C 0.06348 0.53045 0.90158 0.0
C346 C 1.00343 0.47265 0.90836 0.0
C347 C 0.98465 0.49508 0.90331 0.0
H348 H 0.05456 0.47108 0.91063 0.0
H349 H 0.98832 0.44116 0.91215 0.0
S350 S 0.02815 0.60286 0.89042 0.0
N351 N 0.06277 0.59299 0.8937 0.0
N352 N 0.991 0.5603 0.89463 0.0
C353 C 1.00588 0.53573 0.89932 0.0
C354 C 0.04503 0.55341 0.89841 0.0
C355 C 0.53356 0.98011 0.24227 0.0
C356 C 0.49585 0.96489 0.25678 0.0
C357 C 0.55761 0.0205 0.24162 0.0
C358 C 0.54509 0.04772 0.2549 0.0
H359 H 0.54484 0.96067 0.23057 0.0
H360 H 0.58599 0.03044 0.22889 0.0
S361 S 0.44996 0.02398 0.30171 0.0
N362 N 0.44802 0.98104 0.28881 0.0
N363 N 0.49279 0.05651 0.2877 0.0
C364 C 0.50771 0.03303 0.27129 0.0
C365 C 0.48327 0.99189 0.27215 0.0
C366 C 0.44271 0.62789 0.7612 0.0
C367 C 0.42412 0.59401 0.7222 0.0
C368 C 0.44239 0.62615 0.83128 0.0
C369 C 0.42342 0.59035 0.86506 0.0
H370 H 0.45812 0.65593 0.73728 0.0
H371 H 0.45777 0.65299 0.85898 0.0
S372 S 0.36889 0.49315 0.78511 0.0
N373 N 0.38487 0.52391 0.72187 0.0
N374 N 0.38437 0.5201 0.85314 0.0
C375 C 0.40344 0.55635 0.82629 0.0
C376 C 0.40367 0.55831 0.755 0.0
C377 C 0.85394 0.38874 0.19034 0.0
C378 C 0.84356 0.41257 0.22838 0.0
C379 C 0.85381 0.38947 0.12032 0.0
C380 C 0.8433 0.41403 0.08539 0.0
H381 H 0.86412 0.37076 0.21457 0.0
H382 H 0.86414 0.37238 0.09365 0.0
S383 S 0.80531 0.47479 0.1604 0.0
N384 N 0.81656 0.45631 0.22535 0.0
N385 N 0.81634 0.4577 0.09344 0.0
C386 C 0.82977 0.43535 0.12244 0.0
C387 C 0.82988 0.4346 0.19394 0.0
C388 C 0.40374 0.83905 0.56491 0.0
C389 C 0.41861 0.81816 0.59899 0.0
C390 C 0.40371 0.84034 0.49497 0.0
C391 C 0.41839 0.82059 0.45639 0.0
H392 H 0.3938 0.85622 0.59243 0.0
H393 H 0.39347 0.8584 0.47123 0.0
S394 S 0.45217 0.75402 0.52242 0.0
N395 N 0.44308 0.77242 0.58999 0.0
N396 N 0.44252 0.77426 0.4579 0.0
C397 C 0.43079 0.79717 0.49003 0.0
C398 C 0.43104 0.7961 0.56149 0.0
C399 C 0.59296 0.39197 0.76347 0.0
C400 C 0.61383 0.42559 0.72502 0.0
C401 C 0.59456 0.39305 0.83354 0.0
C402 C 0.61683 0.4279 0.86793 0.0
H403 H 0.57471 0.36467 0.73929 0.0
H404 H 0.57752 0.36654 0.8608 0.0
S405 S 0.67697 0.52421 0.7898 0.0
N406 N 0.65803 0.49445 0.72606 0.0
N407 N 0.66042 0.4971 0.85722 0.0
C408 C 0.63845 0.46161 0.8297 0.0
C409 C 0.63714 0.46029 0.75844 0.0
C410 C 0.19119 0.62875 0.11845 0.0
C411 C 0.20432 0.60652 0.08349 0.0
C412 C 0.19023 0.62856 0.18847 0.0
C413 C 0.20241 0.60616 0.22642 0.0
H414 H 0.1794 0.64446 0.09167 0.0
H415 H 0.17803 0.64462 0.21265 0.0
S416 S 0.2479 0.55109 0.15846 0.0
N417 N 0.23559 0.56704 0.09146 0.0
N418 N 0.23405 0.5669 0.22345 0.0
C419 C 0.2187 0.5867 0.19203 0.0
C420 C 0.21957 0.58682 0.12052 0.0
C421 C 0.63854 0.19279 0.55285 0.0
C422 C 0.60439 0.1759 0.58503 0.0
C423 C 0.64104 0.19652 0.48296 0.0
C424 C 0.60955 0.18395 0.44287 0.0
H425 H 0.66352 0.2029 0.58169 0.0
H426 H 0.66779 0.20881 0.46 0.0
S427 S 0.51353 0.13576 0.50172 0.0
N428 N 0.53823 0.14453 0.57053 0.0
N429 N 0.54324 0.15326 0.44001 0.0
C430 C 0.57532 0.1676 0.47436 0.0
C431 C 0.57267 0.16305 0.54519 0.0
loop_
_geom_bond_atom_site_label_1
_geom_bond_atom_site_label_2
_geom_bond_distance
_geom_bond_site_symmetry_2
_ccdc_geom_bond_type
Co0 O1 2.216 . S
Co0 O2 2.091 . S
Co0 O4 2.004 . S
Co0 O10 2.021 1_554 S
Co0 O12 2.137 . S
Co0 O13 2.244 . S
O1 Co0 2.216 . S
O1 C8 1.247 . S
O2 Co0 2.091 . S
O2 C8 1.261 . S
C3 O12 1.247 . S
C3 O13 1.272 . S
O4 Co0 2.004 . S
O4 C9 1.259 . S
Co5 O6 2.061 . S
Co5 O11 2.052 1_554 S
Co5 O13 2.135 . S
O6 Co5 2.061 . S
O6 C9 1.235 . S
C7 O10 1.238 . S
C7 O11 1.241 . S
C8 O1 1.247 . S
C8 O2 1.261 . S
C9 O4 1.259 . S
C9 O6 1.235 . S
O10 Co0 2.021 1_556 S
O10 C7 1.238 . S
O11 Co5 2.052 1_556 S
O11 C7 1.241 . S
O12 Co0 2.137 . S
O12 C3 1.247 . S
O13 Co0 2.244 . S
O13 C3 1.272 . S
O13 Co5 2.135 . S
Co14 O15 2.216 . S
Co14 O16 2.091 . S
Co14 O18 2.004 . S
Co14 O24 2.021 . S
Co14 O26 2.137 . S
Co14 O27 2.244 . S
O15 Co14 2.216 . S
O15 C22 1.247 . S
O16 Co14 2.091 . S
O16 C22 1.261 . S
C17 O26 1.247 . S
C17 O27 1.272 . S
O18 Co14 2.004 . S
O18 C23 1.259 . S
Co19 O20 2.061 . S
Co19 O25 2.052 . S
Co19 O27 2.135 . S
O20 Co19 2.061 . S
O20 C23 1.235 . S
C21 O24 1.238 . S
C21 O25 1.241 . S
C22 O15 1.247 . S
C22 O16 1.261 . S
C23 O18 1.259 . S
C23 O20 1.235 . S
O24 Co14 2.021 . S
O24 C21 1.238 . S
O25 Co19 2.052 . S
O25 C21 1.241 . S
O26 Co14 2.137 . S
O26 C17 1.247 . S
O27 Co14 2.244 . S
O27 C17 1.272 . S
O27 Co19 2.135 . S
Co28 O29 2.216 . S
Co28 O30 2.091 . S
Co28 O32 2.004 . S
Co28 O38 2.021 . S
Co28 O40 2.137 . S
Co28 O41 2.244 . S
O29 Co28 2.216 . S
O29 C36 1.247 . S
O30 Co28 2.091 . S
O30 C36 1.261 . S
C31 O40 1.247 . S
C31 O41 1.272 . S
O32 Co28 2.004 . S
O32 C37 1.259 . S
Co33 O34 2.061 . S
Co33 O39 2.052 . S
Co33 O41 2.135 . S
O34 Co33 2.061 . S
O34 C37 1.235 . S
C35 O38 1.238 . S
C35 O39 1.241 . S
C36 O29 1.247 . S
C36 O30 1.261 . S
C37 O32 1.259 . S
C37 O34 1.235 . S
O38 Co28 2.021 . S
O38 C35 1.238 . S
O39 Co33 2.052 . S
O39 C35 1.241 . S
O40 Co28 2.137 . S
O40 C31 1.247 . S
O41 Co28 2.244 . S
O41 C31 1.272 . S
O41 Co33 2.135 . S
Co42 O43 2.216 . S
Co42 O44 2.091 . S
Co42 O46 2.004 . S
Co42 O52 2.021 1_554 S
Co42 O54 2.137 . S
Co42 O55 2.244 . S
O43 Co42 2.216 . S
O43 C50 1.247 . S
O44 Co42 2.091 . S
O44 C50 1.261 . S
C45 O54 1.247 . S
C45 O55 1.272 . S
O46 Co42 2.004 . S
O46 C51 1.259 . S
Co47 O48 2.061 . S
Co47 O53 2.052 1_554 S
Co47 O55 2.135 . S
O48 Co47 2.061 . S
O48 C51 1.235 . S
C49 O52 1.238 . S
C49 O53 1.241 . S
C50 O43 1.247 . S
C50 O44 1.261 . S
C51 O46 1.259 . S
C51 O48 1.235 . S
O52 Co42 2.021 1_556 S
O52 C49 1.238 . S
O53 Co47 2.052 1_556 S
O53 C49 1.241 . S
O54 Co42 2.137 . S
O54 C45 1.247 . S
O55 Co42 2.244 . S
O55 C45 1.272 . S
O55 Co47 2.135 . S
Co56 O57 2.216 . S
Co56 O58 2.091 . S
Co56 O60 2.004 . S
Co56 O66 2.021 . S
Co56 O68 2.137 . S
Co56 O69 2.244 . S
O57 Co56 2.216 . S
O57 C64 1.247 . S
O58 Co56 2.091 . S
O58 C64 1.261 . S
C59 O68 1.247 . S
C59 O69 1.272 . S
O60 Co56 2.004 . S
O60 C65 1.259 . S
Co61 O62 2.061 . S
Co61 O67 2.052 . S
Co61 O69 2.135 . S
O62 Co61 2.061 . S
O62 C65 1.235 . S
C63 O66 1.238 . S
C63 O67 1.241 . S
C64 O57 1.247 . S
C64 O58 1.261 . S
C65 O60 1.259 . S
C65 O62 1.235 . S
O66 Co56 2.021 . S
O66 C63 1.238 . S
O67 Co61 2.052 . S
O67 C63 1.241 . S
O68 Co56 2.137 . S
O68 C59 1.247 . S
O69 Co56 2.244 . S
O69 C59 1.272 . S
O69 Co61 2.135 . S
Co70 O71 2.216 . S
Co70 O72 2.091 . S
Co70 O74 2.004 . S
Co70 O80 2.021 . S
Co70 O82 2.137 . S
Co70 O83 2.244 . S
O71 Co70 2.216 . S
O71 C78 1.247 . S
O72 Co70 2.091 . S
O72 C78 1.261 . S
C73 O82 1.247 . S
C73 O83 1.272 . S
O74 Co70 2.004 . S
O74 C79 1.259 . S
Co75 O76 2.061 . S
Co75 O81 2.052 . S
Co75 O83 2.135 . S
O76 Co75 2.061 . S
O76 C79 1.235 . S
C77 O80 1.238 . S
C77 O81 1.241 . S
C78 O71 1.247 . S
C78 O72 1.261 . S
C79 O74 1.259 . S
C79 O76 1.235 . S
O80 Co70 2.021 . S
O80 C77 1.238 . S
O81 Co75 2.052 . S
O81 C77 1.241 . S
O82 Co70 2.137 . S
O82 C73 1.247 . S
O83 Co70 2.244 . S
O83 C73 1.272 . S
O83 Co75 2.135 . S
Co84 O85 2.216 . S
Co84 O86 2.091 . S
Co84 O88 2.004 . S
Co84 O94 2.021 . S
Co84 O96 2.137 . S
Co84 O97 2.244 . S
O85 Co84 2.216 . S
O85 C92 1.247 . S
O86 Co84 2.091 . S
O86 C92 1.261 . S
C87 O96 1.247 . S
C87 O97 1.272 . S
O88 Co84 2.004 . S
O88 C93 1.259 . S
Co89 O90 2.061 . S
Co89 O95 2.052 . S
Co89 O97 2.135 . S
O90 Co89 2.061 . S
O90 C93 1.235 . S
C91 O94 1.238 . S
C91 O95 1.241 . S
C92 O85 1.247 . S
C92 O86 1.261 . S
C93 O88 1.259 . S
C93 O90 1.235 . S
O94 Co84 2.021 . S
O94 C91 1.238 . S
O95 Co89 2.052 . S
O95 C91 1.241 . S
O96 Co84 2.137 . S
O96 C87 1.247 . S
O97 Co84 2.244 . S
O97 C87 1.272 . S
O97 Co89 2.135 . S
Co98 O99 2.216 . S
Co98 O100 2.091 . S
Co98 O102 2.004 . S
Co98 O108 2.021 1_556 S
Co98 O110 2.137 . S
Co98 O111 2.244 . S
O99 Co98 2.216 . S
O99 C106 1.247 . S
O100 Co98 2.091 . S
O100 C106 1.261 . S
C101 O110 1.247 . S
C101 O111 1.272 . S
O102 Co98 2.004 . S
O102 C107 1.259 . S
Co103 O104 2.061 . S
Co103 O109 2.052 1_556 S
Co103 O111 2.135 . S
O104 Co103 2.061 . S
O104 C107 1.235 . S
C105 O108 1.238 . S
C105 O109 1.241 . S
C106 O99 1.247 . S
C106 O100 1.261 . S
C107 O102 1.259 . S
C107 O104 1.235 . S
O108 Co98 2.021 1_554 S
O108 C105 1.238 . S
O109 Co103 2.052 1_554 S
O109 C105 1.241 . S
O110 Co98 2.137 . S
O110 C101 1.247 . S
O111 Co98 2.244 . S
O111 C101 1.272 . S
O111 Co103 2.135 . S
Co112 O113 2.216 . S
Co112 O114 2.091 . S
Co112 O116 2.004 . S
Co112 O122 2.021 . S
Co112 O124 2.137 . S
Co112 O125 2.244 . S
O113 Co112 2.216 . S
O113 C120 1.247 . S
O114 Co112 2.091 . S
O114 C120 1.261 . S
C115 O124 1.247 . S
C115 O125 1.272 . S
O116 Co112 2.004 . S
O116 C121 1.259 . S
Co117 O118 2.061 . S
Co117 O123 2.052 . S
Co117 O125 2.135 . S
O118 Co117 2.061 . S
O118 C121 1.235 . S
C119 O122 1.238 . S
C119 O123 1.241 . S
C120 O113 1.247 . S
C120 O114 1.261 . S
C121 O116 1.259 . S
C121 O118 1.235 . S
O122 Co112 2.021 . S
O122 C119 1.238 . S
O123 Co117 2.052 . S
O123 C119 1.241 . S
O124 Co112 2.137 . S
O124 C115 1.247 . S
O125 Co112 2.244 . S
O125 C115 1.272 . S
O125 Co117 2.135 . S
Co126 O127 2.216 . S
Co126 O128 2.091 . S
Co126 O130 2.004 . S
Co126 O136 2.021 . S
Co126 O138 2.137 . S
Co126 O139 2.244 . S
O127 Co126 2.216 . S
O127 C134 1.247 . S
O128 Co126 2.091 . S
O128 C134 1.261 . S
C129 O138 1.247 . S
C129 O139 1.272 . S
O130 Co126 2.004 . S
O130 C135 1.259 . S
Co131 O132 2.061 . S
Co131 O137 2.052 . S
Co131 O139 2.135 . S
O132 Co131 2.061 . S
O132 C135 1.235 . S
C133 O136 1.238 . S
C133 O137 1.241 . S
C134 O127 1.247 . S
C134 O128 1.261 . S
C135 O130 1.259 . S
C135 O132 1.235 . S
O136 Co126 2.021 . S
O136 C133 1.238 . S
O137 Co131 2.052 . S
O137 C133 1.241 . S
O138 Co126 2.137 . S
O138 C129 1.247 . S
O139 Co126 2.244 . S
O139 C129 1.272 . S
O139 Co131 2.135 . S
Co140 O141 2.216 . S
Co140 O142 2.091 . S
Co140 O144 2.004 . S
Co140 O150 2.021 1_556 S
Co140 O152 2.137 . S
Co140 O153 2.244 . S
O141 Co140 2.216 . S
O141 C148 1.247 . S
O142 Co140 2.091 . S
O142 C148 1.261 . S
C143 O152 1.247 . S
C143 O153 1.272 . S
O144 Co140 2.004 . S
O144 C149 1.259 . S
Co145 O146 2.061 . S
Co145 O151 2.052 1_556 S
Co145 O153 2.135 . S
O146 Co145 2.061 . S
O146 C149 1.235 . S
C147 O150 1.238 . S
C147 O151 1.241 . S
C148 O141 1.247 . S
C148 O142 1.261 . S
C149 O144 1.259 . S
C149 O146 1.235 . S
O150 Co140 2.021 1_554 S
O150 C147 1.238 . S
O151 Co145 2.052 1_554 S
O151 C147 1.241 . S
O152 Co140 2.137 . S
O152 C143 1.247 . S
O153 Co140 2.244 . S
O153 C143 1.272 . S
O153 Co145 2.135 . S
Co154 O155 2.216 . S
Co154 O156 2.091 . S
Co154 O158 2.004 . S
Co154 O164 2.021 . S
Co154 O166 2.137 . S
Co154 O167 2.244 . S
O155 Co154 2.216 . S
O155 C162 1.247 . S
O156 Co154 2.091 . S
O156 C162 1.261 . S
C157 O166 1.247 . S
C157 O167 1.272 . S
O158 Co154 2.004 . S
O158 C163 1.259 . S
Co159 O160 2.061 . S
Co159 O165 2.052 . S
Co159 O167 2.135 . S
O160 Co159 2.061 . S
O160 C163 1.235 . S
C161 O164 1.238 . S
C161 O165 1.241 . S
C162 O155 1.247 . S
C162 O156 1.261 . S
C163 O158 1.259 . S
C163 O160 1.235 . S
O164 Co154 2.021 . S
O164 C161 1.238 . S
O165 Co159 2.052 . S
O165 C161 1.241 . S
O166 Co154 2.137 . S
O166 C157 1.247 . S
O167 Co154 2.244 . S
O167 C157 1.272 . S
O167 Co159 2.135 . S
C168 C169 1.369 . S
C168 C170 1.419 . S
C168 H172 0.930 . S
C169 C168 1.369 . S
C169 C178 1.429 . S
C170 C168 1.419 . S
C170 C171 1.363 . S
C170 H173 0.929 . S
C171 C170 1.363 . S
C171 C177 1.428 . S
H172 C168 0.930 . S
H173 C170 0.929 . S
S174 N175 1.613 . S
S174 N176 1.610 . S
N175 S174 1.613 . S
N175 C178 1.350 . S
N176 S174 1.610 . S
N176 C177 1.351 . S
C177 C171 1.428 . S
C177 N176 1.351 . S
C177 C178 1.434 . S
C178 C169 1.429 . S
C178 N175 1.350 . S
C178 C177 1.434 . S
C179 C180 1.369 . S
C179 C181 1.419 . S
C179 H183 0.930 . S
C180 C179 1.369 . S
C180 C189 1.429 . S
C181 C179 1.419 . S
C181 C182 1.363 . S
C181 H184 0.929 . S
C182 C181 1.363 . S
C182 C188 1.428 . S
H183 C179 0.930 . S
H184 C181 0.929 . S
S185 N186 1.613 . S
S185 N187 1.610 . S
N186 S185 1.613 . S
N186 C189 1.350 . S
N187 S185 1.610 . S
N187 C188 1.351 . S
C188 C182 1.428 . S
C188 N187 1.351 . S
C188 C189 1.434 . S
C189 C180 1.429 . S
C189 N186 1.350 . S
C189 C188 1.434 . S
C190 C191 1.369 . S
C190 C192 1.419 1_556 S
C190 H194 0.930 . S
C191 C190 1.369 . S
C191 C200 1.429 . S
C192 C190 1.419 1_554 S
C192 C193 1.363 . S
C192 H195 0.929 . S
C193 C192 1.363 . S
C193 C199 1.428 . S
H194 C190 0.930 . S
H195 C192 0.929 . S
S196 N197 1.613 . S
S196 N198 1.610 1_556 S
N197 S196 1.613 . S
N197 C200 1.350 . S
N198 S196 1.610 1_554 S
N198 C199 1.351 . S
C199 C193 1.428 . S
C199 N198 1.351 . S
C199 C200 1.434 1_554 S
C200 C191 1.429 . S
C200 N197 1.350 . S
C200 C199 1.434 1_556 S
C201 C202 1.369 . S
C201 C203 1.419 . S
C201 H205 0.930 . S
C202 C201 1.369 . S
C202 C211 1.429 . S
C203 C201 1.419 . S
C203 C204 1.363 . S
C203 H206 0.929 . S
C204 C203 1.363 . S
C204 C210 1.428 . S
H205 C201 0.930 . S
H206 C203 0.929 . S
S207 N208 1.613 . S
S207 N209 1.610 . S
N208 S207 1.613 . S
N208 C211 1.350 . S
N209 S207 1.610 . S
N209 C210 1.351 . S
C210 C204 1.428 . S
C210 N209 1.351 . S
C210 C211 1.434 . S
C211 C202 1.429 . S
C211 N208 1.350 . S
C211 C210 1.434 . S
C212 C213 1.369 . S
C212 C214 1.419 . S
C212 H216 0.930 . S
C213 C212 1.369 . S
C213 C222 1.429 . S
C214 C212 1.419 . S
C214 C215 1.363 . S
C214 H217 0.929 . S
C215 C214 1.363 . S
C215 C221 1.428 . S
H216 C212 0.930 . S
H217 C214 0.929 . S
S218 N219 1.613 . S
S218 N220 1.610 . S
N219 S218 1.613 . S
N219 C222 1.350 . S
N220 S218 1.610 . S
N220 C221 1.351 . S
C221 C215 1.428 . S
C221 N220 1.351 . S
C221 C222 1.434 . S
C222 C213 1.429 . S
C222 N219 1.350 . S
C222 C221 1.434 . S
C223 C224 1.369 . S
C223 C225 1.419 1_554 S
C223 H227 0.930 . S
C224 C223 1.369 . S
C224 C233 1.429 . S
C225 C223 1.419 1_556 S
C225 C226 1.363 . S
C225 H228 0.929 . S
C226 C225 1.363 . S
C226 C232 1.428 . S
H227 C223 0.930 . S
H228 C225 0.929 . S
S229 N230 1.613 . S
S229 N231 1.610 1_554 S
N230 S229 1.613 . S
N230 C233 1.350 . S
N231 S229 1.610 1_556 S
N231 C232 1.351 . S
C232 C226 1.428 . S
C232 N231 1.351 . S
C232 C233 1.434 1_556 S
C233 C224 1.429 . S
C233 N230 1.350 . S
C233 C232 1.434 1_554 S
C234 C235 1.369 1_556 S
C234 C236 1.419 . S
C234 H238 0.930 . S
C235 C234 1.369 1_554 S
C235 C244 1.429 . S
C236 C234 1.419 . S
C236 C237 1.363 . S
C236 H239 0.929 . S
C237 C236 1.363 . S
C237 C243 1.428 1_556 S
H238 C234 0.930 . S
H239 C236 0.929 . S
S240 N241 1.613 . S
S240 N242 1.610 . S
N241 S240 1.613 . S
N241 C244 1.350 . S
N242 S240 1.610 . S
N242 C243 1.351 . S
C243 C237 1.428 1_554 S
C243 N242 1.351 . S
C243 C244 1.434 . S
C244 C235 1.429 . S
C244 N241 1.350 . S
C244 C243 1.434 . S
C245 C246 1.369 . S
C245 C247 1.419 . S
C245 H249 0.930 . S
C246 C245 1.369 . S
C246 C255 1.429 . S
C247 C245 1.419 . S
C247 C248 1.363 . S
C247 H250 0.929 . S
C248 C247 1.363 . S
C248 C254 1.428 . S
H249 C245 0.930 . S
H250 C247 0.929 . S
S251 N252 1.613 . S
S251 N253 1.610 . S
N252 S251 1.613 . S
N252 C255 1.350 . S
N253 S251 1.610 . S
N253 C254 1.351 . S
C254 C248 1.428 . S
C254 N253 1.351 . S
C254 C255 1.434 . S
C255 C246 1.429 . S
C255 N252 1.350 . S
C255 C254 1.434 . S
C256 C257 1.369 . S
C256 C258 1.419 . S
C256 H260 0.930 . S
C257 C256 1.369 . S
C257 C266 1.429 . S
C258 C256 1.419 . S
C258 C259 1.363 . S
C258 H261 0.929 . S
C259 C258 1.363 . S
C259 C265 1.428 . S
H260 C256 0.930 . S
H261 C258 0.929 . S
S262 N263 1.613 . S
S262 N264 1.610 . S
N263 S262 1.613 . S
N263 C266 1.350 . S
N264 S262 1.610 . S
N264 C265 1.351 . S
C265 C259 1.428 . S
C265 N264 1.351 . S
C265 C266 1.434 . S
C266 C257 1.429 . S
C266 N263 1.350 . S
C266 C265 1.434 . S
C267 C268 1.369 . S
C267 C269 1.419 1_554 S
C267 H271 0.930 . S
C268 C267 1.369 . S
C268 C277 1.429 . S
C269 C267 1.419 1_556 S
C269 C270 1.363 . S
C269 H272 0.929 . S
C270 C269 1.363 . S
C270 C276 1.428 . S
H271 C267 0.930 . S
H272 C269 0.929 . S
S273 N274 1.613 1_556 S
S273 N275 1.610 . S
N274 S273 1.613 1_554 S
N274 C277 1.350 . S
N275 S273 1.610 . S
N275 C276 1.351 . S
C276 C270 1.428 . S
C276 N275 1.351 . S
C276 C277 1.434 1_556 S
C277 C268 1.429 . S
C277 N274 1.350 . S
C277 C276 1.434 1_554 S
C278 C279 1.369 . S
C278 C280 1.419 . S
C278 H282 0.930 . S
C279 C278 1.369 . S
C279 C288 1.429 . S
C280 C278 1.419 . S
C280 C281 1.363 . S
C280 H283 0.929 . S
C281 C280 1.363 . S
C281 C287 1.428 . S
H282 C278 0.930 . S
H283 C280 0.929 . S
S284 N285 1.613 . S
S284 N286 1.610 . S
N285 S284 1.613 . S
N285 C288 1.350 . S
N286 S284 1.610 . S
N286 C287 1.351 . S
C287 C281 1.428 . S
C287 N286 1.351 . S
C287 C288 1.434 . S
C288 C279 1.429 . S
C288 N285 1.350 . S
C288 C287 1.434 . S
C289 C290 1.369 . S
C289 C291 1.419 . S
C289 H293 0.930 . S
C290 C289 1.369 . S
C290 C299 1.429 . S
C291 C289 1.419 . S
C291 C292 1.363 . S
C291 H294 0.929 . S
C292 C291 1.363 . S
C292 C298 1.428 . S
H293 C289 0.930 . S
H294 C291 0.929 . S
S295 N296 1.613 . S
S295 N297 1.610 . S
N296 S295 1.613 . S
N296 C299 1.350 . S
N297 S295 1.610 . S
N297 C298 1.351 . S
C298 C292 1.428 . S
C298 N297 1.351 . S
C298 C299 1.434 . S
C299 C290 1.429 . S
C299 N296 1.350 . S
C299 C298 1.434 . S
C300 C301 1.369 . S
C300 C302 1.419 . S
C300 H304 0.930 1_554 S
C301 C300 1.369 . S
C301 C310 1.429 . S
C302 C300 1.419 . S
C302 C303 1.363 . S
C302 H305 0.929 1_554 S
C303 C302 1.363 . S
C303 C309 1.428 . S
H304 C300 0.930 1_556 S
H305 C302 0.929 1_556 S
S306 N307 1.613 . S
S306 N308 1.610 . S
N307 S306 1.613 . S
N307 C310 1.350 . S
N308 S306 1.610 . S
N308 C309 1.351 . S
C309 C303 1.428 . S
C309 N308 1.351 . S
C309 C310 1.434 . S
C310 C301 1.429 . S
C310 N307 1.350 . S
C310 C309 1.434 . S
C311 C312 1.369 . S
C311 C313 1.419 1_655 S
C311 H315 0.930 . S
C312 C311 1.369 . S
C312 C321 1.429 . S
C313 C311 1.419 1_455 S
C313 C314 1.363 . S
C313 H316 0.929 . S
C314 C313 1.363 . S
C314 C320 1.428 . S
H315 C311 0.930 . S
H316 C313 0.929 . S
S317 N318 1.613 1_455 S
S317 N319 1.610 . S
N318 S317 1.613 1_655 S
N318 C321 1.350 . S
N319 S317 1.610 . S
N319 C320 1.351 . S
C320 C314 1.428 . S
C320 N319 1.351 . S
C320 C321 1.434 1_455 S
C321 C312 1.429 . S
C321 N318 1.350 . S
C321 C320 1.434 1_655 S
C322 C323 1.369 . S
C322 C324 1.419 1_545 S
C322 H326 0.930 . S
C323 C322 1.369 . S
C323 C332 1.429 . S
C324 C322 1.419 1_565 S
C324 C325 1.363 . S
C324 H327 0.929 . S
C325 C324 1.363 . S
C325 C331 1.428 . S
H326 C322 0.930 . S
H327 C324 0.929 . S
S328 N329 1.613 . S
S328 N330 1.610 1_545 S
N329 S328 1.613 . S
N329 C332 1.350 . S
N330 S328 1.610 1_565 S
N330 C331 1.351 . S
C331 C325 1.428 . S
C331 N330 1.351 . S
C331 C332 1.434 1_565 S
C332 C323 1.429 . S
C332 N329 1.350 . S
C332 C331 1.434 1_545 S
C333 C334 1.369 . S
C333 C335 1.419 . S
C333 H337 0.930 . S
C334 C333 1.369 . S
C334 C343 1.429 . S
C335 C333 1.419 . S
C335 C336 1.363 . S
C335 H338 0.929 . S
C336 C335 1.363 . S
C336 C342 1.428 . S
H337 C333 0.930 . S
H338 C335 0.929 . S
S339 N340 1.613 . S
S339 N341 1.610 . S
N340 S339 1.613 . S
N340 C343 1.350 . S
N341 S339 1.610 . S
N341 C342 1.351 . S
C342 C336 1.428 . S
C342 N341 1.351 . S
C342 C343 1.434 . S
C343 C334 1.429 . S
C343 N340 1.350 . S
C343 C342 1.434 . S
C344 C345 1.369 . S
C344 C346 1.419 1_455 S
C344 H348 0.930 1_556 S
C345 C344 1.369 . S
C345 C354 1.429 . S
C346 C344 1.419 1_655 S
C346 C347 1.363 . S
C346 H349 0.929 1_556 S
C347 C346 1.363 . S
C347 C353 1.428 . S
H348 C344 0.930 1_554 S
H349 C346 0.929 1_554 S
S350 N351 1.613 . S
S350 N352 1.610 1_455 S
N351 S350 1.613 . S
N351 C354 1.350 . S
N352 S350 1.610 1_655 S
N352 C353 1.351 . S
C353 C347 1.428 . S
C353 N352 1.351 . S
C353 C354 1.434 1_655 S
C354 C345 1.429 . S
C354 N351 1.350 . S
C354 C353 1.434 1_455 S
C355 C356 1.369 . S
C355 C357 1.419 . S
C355 H359 0.930 . S
C356 C355 1.369 . S
C356 C365 1.429 1_565 S
C357 C355 1.419 . S
C357 C358 1.363 1_565 S
C357 H360 0.929 . S
C358 C357 1.363 1_545 S
C358 C364 1.428 . S
H359 C355 0.930 . S
H360 C357 0.929 . S
S361 N362 1.613 . S
S361 N363 1.610 . S
N362 S361 1.613 . S
N362 C365 1.350 . S
N363 S361 1.610 . S
N363 C364 1.351 . S
C364 C358 1.428 . S
C364 N363 1.351 . S
C364 C365 1.434 . S
C365 C356 1.429 1_545 S
C365 N362 1.350 . S
C365 C364 1.434 . S
C366 C367 1.369 . S
C366 C368 1.419 . S
C366 H370 0.930 . S
C367 C366 1.369 . S
C367 C376 1.429 . S
C368 C366 1.419 . S
C368 C369 1.363 . S
C368 H371 0.929 . S
C369 C368 1.363 . S
C369 C375 1.428 . S
H370 C366 0.930 . S
H371 C368 0.929 . S
S372 N373 1.613 . S
S372 N374 1.610 . S
N373 S372 1.613 . S
N373 C376 1.350 . S
N374 S372 1.610 . S
N374 C375 1.351 . S
C375 C369 1.428 . S
C375 N374 1.351 . S
C375 C376 1.434 . S
C376 C367 1.429 . S
C376 N373 1.350 . S
C376 C375 1.434 . S
C377 C378 1.369 . S
C377 C379 1.419 . S
C377 H381 0.930 . S
C378 C377 1.369 . S
C378 C387 1.429 . S
C379 C377 1.419 . S
C379 C380 1.363 . S
C379 H382 0.929 . S
C380 C379 1.363 . S
C380 C386 1.428 . S
H381 C377 0.930 . S
H382 C379 0.929 . S
S383 N384 1.613 . S
S383 N385 1.610 . S
N384 S383 1.613 . S
N384 C387 1.350 . S
N385 S383 1.610 . S
N385 C386 1.351 . S
C386 C380 1.428 . S
C386 N385 1.351 . S
C386 C387 1.434 . S
C387 C378 1.429 . S
C387 N384 1.350 . S
C387 C386 1.434 . S
C388 C389 1.369 . S
C388 C390 1.419 . S
C388 H392 0.930 . S
C389 C388 1.369 . S
C389 C398 1.429 . S
C390 C388 1.419 . S
C390 C391 1.363 . S
C390 H393 0.929 . S
C391 C390 1.363 . S
C391 C397 1.428 . S
H392 C388 0.930 . S
H393 C390 0.929 . S
S394 N395 1.613 . S
S394 N396 1.610 . S
N395 S394 1.613 . S
N395 C398 1.350 . S
N396 S394 1.610 . S
N396 C397 1.351 . S
C397 C391 1.428 . S
C397 N396 1.351 . S
C397 C398 1.434 . S
C398 C389 1.429 . S
C398 N395 1.350 . S
C398 C397 1.434 . S
C399 C400 1.369 . S
C399 C401 1.419 . S
C399 H403 0.930 . S
C400 C399 1.369 . S
C400 C409 1.429 . S
C401 C399 1.419 . S
C401 C402 1.363 . S
C401 H404 0.929 . S
C402 C401 1.363 . S
C402 C408 1.428 . S
H403 C399 0.930 . S
H404 C401 0.929 . S
S405 N406 1.613 . S
S405 N407 1.610 . S
N406 S405 1.613 . S
N406 C409 1.350 . S
N407 S405 1.610 . S
N407 C408 1.351 . S
C408 C402 1.428 . S
C408 N407 1.351 . S
C408 C409 1.434 . S
C409 C400 1.429 . S
C409 N406 1.350 . S
C409 C408 1.434 . S
C410 C411 1.369 . S
C410 C412 1.419 . S
C410 H414 0.930 . S
C411 C410 1.369 . S
C411 C420 1.429 . S
C412 C410 1.419 . S
C412 C413 1.363 . S
C412 H415 0.929 . S
C413 C412 1.363 . S
C413 C419 1.428 . S
H414 C410 0.930 . S
H415 C412 0.929 . S
S416 N417 1.613 . S
S416 N418 1.610 . S
N417 S416 1.613 . S
N417 C420 1.350 . S
N418 S416 1.610 . S
N418 C419 1.351 . S
C419 C413 1.428 . S
C419 N418 1.351 . S
C419 C420 1.434 . S
C420 C411 1.429 . S
C420 N417 1.350 . S
C420 C419 1.434 . S
C421 C422 1.369 . S
C421 C423 1.419 . S
C421 H425 0.930 . S
C422 C421 1.369 . S
C422 C431 1.429 . S
C423 C421 1.419 . S
C423 C424 1.363 . S
C423 H426 0.929 . S
C424 C423 1.363 . S
C424 C430 1.428 . S
H425 C421 0.930 . S
H426 C423 0.929 . S
S427 N428 1.613 . S
S427 N429 1.610 . S
N428 S427 1.613 . S
N428 C431 1.350 . S
N429 S427 1.610 . S
N429 C430 1.351 . S
C430 C424 1.428 . S
C430 N429 1.351 . S
C430 C431 1.434 . S
C431 C422 1.429 . S
C431 N428 1.350 . S
C431 C430 1.434 . S
C169 C3 1.537 . S
C171 C87 1.531 . S
C180 C17 1.498 . S
C182 C101 1.499 . S
C191 C31 1.530 . S
C193 C115 1.536 . S
C202 C45 1.537 . S
C204 C129 1.531 . S
C213 C59 1.504 . S
C215 C143 1.497 . S
C224 C157 1.540 . S
C226 C73 1.529 . S
C235 C8 1.606 . S
C237 C148 1.719 . S
C246 C22 1.722 . S
C248 C162 1.599 . S
C257 C36 1.566 . S
C259 C92 1.569 . S
C268 C50 1.604 . S
C270 C106 1.720 . S
C279 C64 1.722 . S
C281 C120 1.596 . S
C290 C78 1.567 . S
C292 C134 1.567 . S
C301 C9 1.999 . S
C303 C51 1.999 . S
C312 C23 1.419 . S
C314 C65 1.412 . S
C323 C79 1.283 . S
C325 C37 1.275 . S
C334 C93 1.276 . S
C336 C135 1.282 . S
C345 C149 1.412 . S
C347 C107 1.417 . S
C356 C121 2.006 . S
C358 C163 1.994 . S
C367 C91 1.041 . S
C369 C7 1.059 . S
C378 C21 1.090 . S
C380 C105 1.082 . S
C389 C35 1.042 . S
C391 C119 1.064 . S
C400 C133 1.041 . S
C402 C49 1.059 . S
C411 C147 1.082 . S
C413 C63 1.089 . S
C422 C77 1.036 . S
C424 C161 1.060 . S
