# Generated by pormake.
# Topology dft, (4)-cn, num edge types: 1
# Building blocks:
#     Node 0, Type 0, BuildingBlock: KUFVIS_clean_sbu_0, # of connection points: 4
#     Node 1, Type 0, BuildingBlock: KUFVIS_clean_sbu_0, # of connection points: 4
#     Node 2, Type 0, BuildingBlock: KUFVIS_clean_sbu_0, # of connection points: 4
#     Node 3, Type 0, BuildingBlock: KUFVIS_clean_sbu_0, # of connection points: 4
#     Node 4, Type 0, BuildingBlock: KUFVIS_clean_sbu_0, # of connection points: 4
#     Node 5, Type 0, BuildingBlock: KUFVIS_clean_sbu_0, # of connection points: 4
#     Node 6, Type 0, BuildingBlock: KUFVIS_clean_sbu_0, # of connection points: 4
#     Node 7, Type 0, BuildingBlock: KUFVIS_clean_sbu_0, # of connection points: 4
#     Edge 8, Type (0, 0), BuildingBlock: CIFDUS_clean_linker_0, # of connection points: 2
#     Edge 9, Type (0, 0), BuildingBlock: CIFDUS_clean_linker_0, # of connection points: 2
#     Edge 10, Type (0, 0), BuildingBlock: CIFDUS_clean_linker_0, # of connection points: 2
#     Edge 11, Type (0, 0), BuildingBlock: CIFDUS_clean_linker_0, # of connection points: 2
#     Edge 12, Type (0, 0), BuildingBlock: CIFDUS_clean_linker_0, # of connection points: 2
#     Edge 13, Type (0, 0), BuildingBlock: CIFDUS_clean_linker_0, # of connection points: 2
#     Edge 14, Type (0, 0), BuildingBlock: CIFDUS_clean_linker_0, # of connection points: 2
#     Edge 15, Type (0, 0), BuildingBlock: CIFDUS_clean_linker_0, # of connection points: 2
#     Edge 16, Type (0, 0), BuildingBlock: CIFDUS_clean_linker_0, # of connection points: 2
#     Edge 17, Type (0, 0), BuildingBlock: CIFDUS_clean_linker_0, # of connection points: 2
#     Edge 18, Type (0, 0), BuildingBlock: CIFDUS_clean_linker_0, # of connection points: 2
#     Edge 19, Type (0, 0), BuildingBlock: CIFDUS_clean_linker_0, # of connection points: 2
#     Edge 20, Type (0, 0), BuildingBlock: CIFDUS_clean_linker_0, # of connection points: 2
#     Edge 21, Type (0, 0), BuildingBlock: CIFDUS_clean_linker_0, # of connection points: 2
#     Edge 22, Type (0, 0), BuildingBlock: CIFDUS_clean_linker_0, # of connection points: 2
#     Edge 23, Type (0, 0), BuildingBlock: CIFDUS_clean_linker_0, # of connection points: 2
# Relax obj value: 0.171
# Max RMSD: 0.158
# Mean RMSD: 0.158
data_MOF--net-dft--node1-KUFVIS_clean_sbu_0--edge1-CIFDUS_clean_linker_0
_symmetry_space_group_name_H-M    P1
_symmetry_Int_Tables_number       1
_symmetry_cell_setting            triclinic
loop_
_symmetry_equiv_pos_as_xyz
'x, y, z'
_cell_length_a     29.58357
_cell_length_b     29.652507
_cell_length_c     35.911672
_cell_angle_alpha  89.913613
_cell_angle_beta   90.246891
_cell_angle_gamma 90.349282
loop_
_atom_site_label
_atom_site_type_symbol
_atom_site_fract_x
_atom_site_fract_y
_atom_site_fract_z
_atom_type_partial_charge
Mn0 Mn 0.33592 0.06636 0.17694 0.0
Mn1 Mn 0.37007 0.16507 0.13765 0.0
C2 C 0.31257 0.13545 0.20078 0.0
C3 C 0.28619 1.00553 0.18845 0.0
C4 C 0.43263 0.1039 0.18093 0.0
O5 O 0.35169 0.04771 0.12329 0.0
O6 O 0.3696 0.11681 0.10037 0.0
C7 C 0.29703 0.18379 0.08311 0.0
N8 N 0.32238 0.19662 0.11307 0.0
C9 C 0.28857 0.27026 0.11343 0.0
C10 C 0.26192 0.25777 0.0827 0.0
C11 C 0.26607 0.2143 0.06757 0.0
C12 C 0.31859 0.23834 0.12787 0.0
H13 H 0.3003 0.15051 0.07132 0.0
C14 C 0.36284 0.07438 0.09648 0.0
O15 O 0.32918 1.00296 0.19476 0.0
O16 O 0.272 0.04251 0.17291 0.0
N17 N 0.37096 0.2141 0.17189 0.0
C18 C 0.39753 0.21979 0.20261 0.0
C19 C 0.39809 0.26156 0.22077 0.0
C20 C 0.37129 0.29686 0.20717 0.0
C21 C 0.34287 0.2897 0.17636 0.0
C22 C 0.34437 0.24757 0.15903 0.0
H23 H 0.41888 0.19299 0.2127 0.0
O24 O 0.316 0.10043 0.22245 0.0
O25 O 0.32629 0.12988 0.167 0.0
O26 O 0.40313 0.07452 0.18978 0.0
O27 O 0.42344 0.13821 0.16122 0.0
C28 C 0.31362 0.32276 0.16185 0.0
C29 C 0.28619 0.31291 0.1306 0.0
H30 H 0.23803 0.2812 0.0706 0.0
H31 H 0.24559 0.20442 0.04387 0.0
H32 H 0.41979 0.26686 0.24473 0.0
H33 H 0.37363 0.32942 0.22029 0.0
H34 H 0.3117 0.35574 0.17465 0.0
H35 H 0.26338 0.33837 0.12 0.0
Mn36 Mn 0.06343 0.32974 0.68275 0.0
Mn37 Mn 0.96684 0.37694 0.65014 0.0
C38 C 0.99422 0.31512 0.71037 0.0
C39 C 0.11596 0.27122 0.69035 0.0
C40 C 0.04018 0.42991 0.68988 0.0
O41 O 0.0794 0.34482 0.6286 0.0
O42 O 0.01191 0.37354 0.61011 0.0
C43 C 0.93624 0.3085 0.59536 0.0
N44 N 0.92842 0.3335 0.62644 0.0
C45 C 0.85304 0.30326 0.6319 0.0
C46 C 0.86021 0.27744 0.59981 0.0
C47 C 0.90204 0.27998 0.58154 0.0
C48 C 0.88824 0.33137 0.6442 0.0
H49 H 0.96845 0.30999 0.58143 0.0
C50 C 0.05265 0.36128 0.60378 0.0
O51 O 0.12632 0.31293 0.69715 0.0
O52 O 0.07618 0.2638 0.67606 0.0
N53 N 0.92092 0.38037 0.68727 0.0
C54 C 0.92102 0.40438 0.71957 0.0
C55 C 0.88241 0.40388 0.74213 0.0
C56 C 0.84421 0.37881 0.73119 0.0
C57 C 0.84513 0.35384 0.69809 0.0
C58 C 0.88442 0.35591 0.6766 0.0
H59 H 0.95032 0.42379 0.72798 0.0
O60 O 0.03112 0.31331 0.73009 0.0
O61 O 0.99879 0.32894 0.67651 0.0
O62 O 0.06627 0.39679 0.69603 0.0
O63 O 1.00217 0.42581 0.67349 0.0
C64 C 0.80884 0.32663 0.68575 0.0
C65 C 0.81283 0.30129 0.65273 0.0
H66 H 0.83405 0.2551 0.58924 0.0
H67 H 0.90796 0.25988 0.55692 0.0
H68 H 0.882 0.42295 0.7678 0.0
H69 H 0.81441 0.37902 0.74844 0.0
H70 H 0.77789 0.32451 0.70161 0.0
H71 H 0.78499 0.2799 0.64389 0.0
Mn72 Mn 0.78496 0.05148 0.19445 0.0
Mn73 Mn 0.74622 0.95335 0.1574 0.0
C74 C 0.7976 0.9831 0.22411 0.0
C75 C 0.84192 0.10573 0.20624 0.0
C76 C 0.68566 0.02057 0.19554 0.0
O77 O 0.77566 0.06846 0.13975 0.0
O78 O 0.74969 1.00101 0.11918 0.0
C79 C 0.82162 0.93271 0.10616 0.0
N80 N 0.79358 0.92012 0.13435 0.0
C81 C 0.82285 0.8446 0.13411 0.0
C82 C 0.85158 0.85656 0.1047 0.0
C83 C 0.85125 0.90093 0.09091 0.0
C84 C 0.79425 0.87777 0.1483 0.0
H85 H 0.82142 0.96673 0.09546 0.0
C86 C 0.7613 0.04216 0.1139 0.0
O87 O 0.79939 0.11494 0.21033 0.0
O88 O 0.85105 0.06631 0.1927 0.0
N89 N 0.7421 0.90393 0.19138 0.0
C90 C 0.71491 0.89908 0.22164 0.0
C91 C 0.71234 0.85711 0.23963 0.0
C92 C 0.73747 0.82062 0.22613 0.0
C93 C 0.76608 0.82673 0.19549 0.0
C94 C 0.76703 0.86923 0.1786 0.0
H95 H 0.6949 0.92687 0.2316 0.0
O96 O 0.79582 0.02038 0.24296 0.0
O97 O 0.78951 0.98647 0.18871 0.0
O98 O 0.71597 0.05029 0.20219 0.0
O99 O 0.69396 0.98308 0.1799 0.0
C100 C 0.79347 0.79233 0.18088 0.0
C101 C 0.82209 0.80135 0.15041 0.0
H102 H 0.8745 0.83214 0.09288 0.0
H103 H 0.87364 0.91055 0.06847 0.0
H104 H 0.69048 0.85266 0.26346 0.0
H105 H 0.73423 0.78804 0.23939 0.0
H106 H 0.79307 0.75889 0.19295 0.0
H107 H 0.84364 0.77489 0.13991 0.0
Mn108 Mn 0.06097 0.79369 0.68613 0.0
Mn109 Mn 0.15839 0.75199 0.65087 0.0
C110 C 0.12955 0.80461 0.71683 0.0
C111 C 1.00482 0.84746 0.69819 0.0
C112 C 0.08728 0.69361 0.68706 0.0
O113 O 0.04526 0.78626 0.63072 0.0
O114 O 0.11194 0.75755 0.61173 0.0
C115 C 0.18394 0.82691 0.60022 0.0
N116 N 0.19449 0.79824 0.62857 0.0
C117 C 0.2718 0.82384 0.62919 0.0
C118 C 0.26196 0.85314 0.59959 0.0
C119 C 0.21772 0.85501 0.58531 0.0
C120 C 0.23667 0.79696 0.6431 0.0
H121 H 0.15004 0.82835 0.5891 0.0
C122 C 0.07169 0.77118 0.60541 0.0
O123 O 0.99715 0.80457 0.70025 0.0
O124 O 0.04471 0.85979 0.68674 0.0
N125 N 0.20683 0.7458 0.68575 0.0
C126 C 0.20979 0.71785 0.71577 0.0
C127 C 0.25149 0.71296 0.73406 0.0
C128 C 0.28964 0.73647 0.72103 0.0
C129 C 0.28552 0.76587 0.69062 0.0
C130 C 0.24318 0.76922 0.67345 0.0
H131 H 0.18076 0.69881 0.72518 0.0
O132 O 0.09185 0.80307 0.73528 0.0
O133 O 0.12645 0.79691 0.68138 0.0
O134 O 0.05987 0.72548 0.69306 0.0
O135 O 0.12586 0.69988 0.67239 0.0
C136 C 0.3218 0.79152 0.67634 0.0
C137 C 0.31486 0.82079 0.64586 0.0
H138 H 0.28795 0.8748 0.58798 0.0
H139 H 0.20974 0.87786 0.56273 0.0
H140 H 0.25446 0.69041 0.75766 0.0
H141 H 0.322 0.73125 0.73434 0.0
H142 H 0.35517 0.78919 0.68857 0.0
H143 H 0.34282 0.84093 0.63558 0.0
Mn144 Mn 0.34499 0.04354 0.79653 0.0
Mn145 Mn 0.37701 0.94356 0.83386 0.0
C146 C 0.32783 0.97611 0.76671 0.0
C147 C 0.29535 0.10331 0.78385 0.0
C148 C 0.44248 0.00823 0.79756 0.0
O149 O 0.35363 0.05941 0.85149 0.0
O150 O 0.37575 0.99095 0.87225 0.0
C151 C 0.29991 0.9261 0.88442 0.0
N152 N 0.32724 0.91256 0.85619 0.0
C153 C 0.29349 0.83856 0.85587 0.0
C154 C 0.26521 0.85157 0.88515 0.0
C155 C 0.26818 0.89566 0.89926 0.0
C156 C 0.32412 0.87049 0.84198 0.0
H157 H 0.30235 0.95981 0.89557 0.0
C158 C 0.36613 0.03246 0.87748 0.0
O159 O 0.33879 0.10782 0.78143 0.0
O160 O 0.28036 0.06462 0.79578 0.0
N161 N 0.37869 0.89435 0.79971 0.0
C162 C 0.40653 0.88823 0.77008 0.0
C163 C 0.40714 0.8462 0.75218 0.0
C164 C 0.37953 0.81091 0.76522 0.0
C165 C 0.35041 0.81832 0.79528 0.0
C166 C 0.35135 0.86086 0.81201 0.0
H167 H 0.42866 0.91498 0.76065 0.0
O168 O 0.33321 0.01319 0.74781 0.0
O169 O 0.33565 0.9789 0.80221 0.0
O170 O 0.41347 0.03847 0.79039 0.0
O171 O 0.43212 0.97069 0.81255 0.0
C172 C 0.32095 0.78511 0.80965 0.0
C173 C 0.29217 0.79536 0.83964 0.0
H174 H 0.2408 0.82813 0.89674 0.0
H175 H 0.2463 0.90605 0.9217 0.0
H176 H 0.42948 0.84073 0.72885 0.0
H177 H 0.3813 0.7782 0.75209 0.0
H178 H 0.32004 0.75155 0.79793 0.0
H179 H 0.26911 0.76978 0.84999 0.0
Mn180 Mn 0.07068 0.34081 0.30378 0.0
Mn181 Mn 0.17228 0.37431 0.33866 0.0
C182 C 0.13799 0.31691 0.27696 0.0
C183 C 0.00902 0.29103 0.29571 0.0
C184 C 0.10749 0.43737 0.29961 0.0
O185 O 0.05626 0.3568 0.35818 0.0
O186 O 0.12732 0.37266 0.37866 0.0
C187 C 0.19659 0.30068 0.3908 0.0
N188 N 0.20628 0.32634 0.36034 0.0
C189 C 0.27966 0.2925 0.35446 0.0
C190 C 0.27037 0.26552 0.38564 0.0
C191 C 0.22859 0.26952 0.4038 0.0
C192 C 0.24637 0.32271 0.34265 0.0
H193 H 0.16456 0.30368 0.40482 0.0
C194 C 0.08493 0.36661 0.38406 0.0
O195 O 1.00588 0.33383 0.28918 0.0
O196 O 0.04728 0.27713 0.30934 0.0
N197 N 0.21792 0.37606 0.30138 0.0
C198 C 0.22038 0.40288 0.27064 0.0
C199 C 0.25995 0.4032 0.24935 0.0
C200 C 0.29644 0.37601 0.25995 0.0
C201 C 0.29259 0.34749 0.29101 0.0
C202 C 0.25245 0.34899 0.31135 0.0
H203 H 0.19268 0.42447 0.26278 0.0
O204 O 0.10155 0.32033 0.25676 0.0
O205 O 0.13465 0.33122 0.31076 0.0
O206 O 0.07801 0.40787 0.29079 0.0
O207 O 0.14298 0.42799 0.31795 0.0
C208 C 0.32705 0.31809 0.30289 0.0
C209 C 0.32043 0.29033 0.33439 0.0
H210 H 0.29496 0.24148 0.39578 0.0
H211 H 0.22115 0.24875 0.42783 0.0
H212 H 0.26265 0.42496 0.22523 0.0
H213 H 0.32732 0.37805 0.24425 0.0
H214 H 0.3587 0.31641 0.288 0.0
H215 H 0.34692 0.26742 0.34294 0.0
Mn216 Mn 0.7907 0.07818 0.81553 0.0
Mn217 Mn 0.74879 0.17427 0.85264 0.0
C218 C 0.80814 0.14826 0.79048 0.0
C219 C 0.84675 0.02399 0.80425 0.0
C220 C 0.69166 0.1075 0.80934 0.0
O221 O 0.77639 0.05885 0.86909 0.0
O222 O 0.74976 0.12568 0.89014 0.0
C223 C 0.81938 0.19571 0.90885 0.0
N224 N 0.79425 0.20795 0.87866 0.0
C225 C 0.8276 0.2822 0.8783 0.0
C226 C 0.85349 0.2705 0.90961 0.0
C227 C 0.84949 0.227 0.92485 0.0
C228 C 0.79799 0.24967 0.86367 0.0
H229 H 0.81682 0.1622 0.92041 0.0
C230 C 0.7608 0.08432 0.89494 0.0
O231 O 0.80431 0.01595 0.79785 0.0
O232 O 0.85632 0.06202 0.82048 0.0
N233 N 0.7477 0.22371 0.81844 0.0
C234 C 0.72329 0.22818 0.78642 0.0
C235 C 0.72457 0.26926 0.76698 0.0
C236 C 0.75085 0.30521 0.7807 0.0
C237 C 0.77646 0.29948 0.8133 0.0
C238 C 0.77346 0.25794 0.83167 0.0
H239 H 0.70277 0.20072 0.77596 0.0
O240 O 0.8071 0.11266 0.76943 0.0
O241 O 0.79518 0.14236 0.82447 0.0
O242 O 0.72305 0.07948 0.80298 0.0
O243 O 0.6981 0.14415 0.82699 0.0
C244 C 0.80497 0.33323 0.8282 0.0
C245 C 0.83073 0.3245 0.86054 0.0
H246 H 0.87695 0.29446 0.9219 0.0
H247 H 0.86966 0.21758 0.9488 0.0
H248 H 0.70505 0.27335 0.74166 0.0
H249 H 0.751 0.33704 0.76598 0.0
H250 H 0.80775 0.36587 0.81485 0.0
H251 H 0.85316 0.35041 0.87132 0.0
Mn252 Mn 0.05086 0.78883 0.30375 0.0
Mn253 Mn 0.95245 0.7502 0.34046 0.0
C254 C 0.98227 0.80057 0.2736 0.0
C255 C 0.1051 0.84529 0.29065 0.0
C256 C 0.02032 0.68958 0.30311 0.0
O257 O 0.0675 0.78121 0.35897 0.0
O258 O 0.99988 0.75488 0.37891 0.0
C259 C 0.93076 0.82621 0.39078 0.0
N260 N 0.91855 0.79751 0.36287 0.0
C261 C 0.84245 0.82567 0.36258 0.0
C262 C 0.85397 0.85494 0.39181 0.0
C263 C 0.89845 0.85552 0.4057 0.0
C264 C 0.87613 0.7974 0.34874 0.0
H265 H 0.96488 0.8268 0.40149 0.0
C266 C 0.0408 0.76732 0.38472 0.0
O267 O 0.11437 0.80273 0.2877 0.0
O268 O 0.06575 0.8549 0.30424 0.0
N269 N 0.90318 0.74511 0.30617 0.0
C270 C 0.89881 0.71758 0.27604 0.0
C271 C 0.85688 0.71433 0.2578 0.0
C272 C 0.81993 0.7391 0.27094 0.0
C273 C 0.82553 0.76803 0.30148 0.0
C274 C 0.86804 0.76973 0.3186 0.0
H275 H 0.92695 0.69782 0.26636 0.0
O276 O 0.01967 0.79843 0.25491 0.0
O277 O 0.98561 0.79317 0.30907 0.0
O278 O 0.05003 0.71988 0.29664 0.0
O279 O 0.9827 0.69789 0.31859 0.0
C280 C 0.79062 0.79503 0.3158 0.0
C281 C 0.79916 0.82409 0.34612 0.0
H282 H 0.82915 0.87762 0.40336 0.0
H283 H 0.90776 0.8784 0.42793 0.0
H284 H 0.85283 0.69222 0.23405 0.0
H285 H 0.7874 0.73536 0.25747 0.0
H286 H 0.75712 0.79397 0.30364 0.0
H287 H 0.7723 0.84534 0.35637 0.0
H288 H 0.36773 0.12542 0.03424 0.0
H289 H 0.36337 0.98651 0.07101 0.0
H290 H 0.36565 0.96177 0.00588 0.0
H291 H 0.36731 0.9801 0.93942 0.0
H292 H 0.36727 0.11936 0.9035 0.0
H293 H 0.36815 0.14367 0.96855 0.0
C294 C 0.36742 0.08955 0.0284 0.0
C295 C 0.36553 0.05776 0.05771 0.0
C296 C 0.36781 0.07584 0.99128 0.0
C297 C 0.36486 0.01163 0.04912 0.0
C298 C 0.36613 0.99756 0.01193 0.0
C299 C 0.36768 0.01588 0.94563 0.0
C300 C 0.3674 0.04801 0.91652 0.0
C301 C 0.36739 0.02947 0.9829 0.0
C302 C 0.36744 0.09406 0.92528 0.0
C303 C 0.368 0.10789 0.96242 0.0
H304 H 0.99843 0.37134 0.54351 0.0
H305 H 0.1387 0.35705 0.57557 0.0
H306 H 0.16044 0.35971 0.50989 0.0
H307 H 0.13932 0.36442 0.44465 0.0
H308 H 0.99869 0.37271 0.41214 0.0
H309 H 0.97712 0.37408 0.47796 0.0
C310 C 0.0339 0.36883 0.5364 0.0
C311 C 0.06704 0.36402 0.56454 0.0
C312 C 0.04586 0.36923 0.49885 0.0
C313 C 0.11264 0.36069 0.55452 0.0
C314 C 0.12499 0.36223 0.51705 0.0
C315 C 0.10379 0.36656 0.45163 0.0
C316 C 0.07054 0.36851 0.42335 0.0
C317 C 0.0918 0.36621 0.48913 0.0
C318 C 0.02485 0.37113 0.43329 0.0
C319 C 0.01261 0.37192 0.47084 0.0
H320 H 0.75326 0.13531 0.95693 0.0
H321 H 0.76411 0.99683 0.92067 0.0
H322 H 0.76366 0.97203 0.98583 0.0
H323 H 0.76183 0.9902 0.05212 0.0
H324 H 0.75751 0.12917 0.08797 0.0
H325 H 0.7542 0.15359 0.02283 0.0
C326 C 0.75551 0.09956 0.96295 0.0
C327 C 0.75865 0.06786 0.93378 0.0
C328 C 0.75668 0.08588 0.00015 0.0
C329 C 0.76165 0.02185 0.9425 0.0
C330 C 0.76146 0.00775 0.97969 0.0
C331 C 0.76017 0.02593 0.04587 0.0
C332 C 0.75977 0.05795 0.07493 0.0
C333 C 0.75929 0.03957 0.00862 0.0
C334 C 0.75796 0.10398 0.06616 0.0
C335 C 0.75595 0.11785 0.029 0.0
H336 H 0.98608 0.76764 0.44483 0.0
H337 H 0.12711 0.76948 0.41384 0.0
H338 H 0.14842 0.77024 0.47993 0.0
H339 H 0.12667 0.76967 0.54543 0.0
H340 H 0.98563 0.77321 0.57614 0.0
H341 H 0.96439 0.77132 0.5101 0.0
C342 C 0.02163 0.7683 0.45225 0.0
C343 C 0.05509 0.76822 0.42427 0.0
C344 C 0.03341 0.76976 0.48995 0.0
C345 C 0.1008 0.76944 0.43472 0.0
C346 C 0.11289 0.76985 0.47244 0.0
C347 C 0.09115 0.77014 0.53791 0.0
C348 C 0.05763 0.77129 0.56582 0.0
C349 C 0.07941 0.76992 0.50016 0.0
C350 C 0.01196 0.77229 0.5553 0.0
C351 C 0.99991 0.77112 0.51761 0.0
H352 H 0.47362 0.02546 0.20136 0.0
H353 H 0.49983 0.16726 0.18395 0.0
H354 H 0.58066 0.15496 0.19222 0.0
H355 H 0.64468 0.10263 0.19684 0.0
H356 H 0.61839 0.96029 0.2104 0.0
H357 H 0.53728 0.9742 0.2118 0.0
C358 C 0.49691 0.05381 0.20008 0.0
C359 C 0.48061 0.09709 0.19164 0.0
C360 C 0.54362 0.04636 0.20392 0.0
C361 C 0.51141 0.13343 0.18997 0.0
C362 C 0.55774 0.12647 0.19468 0.0
C363 C 0.62122 0.07483 0.20098 0.0
C364 C 0.63759 0.03051 0.20329 0.0
C365 C 0.57438 0.08288 0.20057 0.0
C366 C 0.60669 0.99475 0.20827 0.0
C367 C 0.56023 1.00263 0.20897 0.0
H368 H 0.98965 0.50512 0.69958 0.0
H369 H 0.12764 0.45882 0.69796 0.0
H370 H 0.15485 0.53675 0.69963 0.0
H371 H 0.13918 0.61815 0.69462 0.0
H372 H 1.00086 0.66376 0.69708 0.0
H373 H 0.97427 0.58613 0.7022 0.0
C374 C 0.0257 0.51204 0.70014 0.0
C375 C 0.05651 0.47618 0.69817 0.0
C376 C 0.04113 0.55689 0.70084 0.0
C377 C 0.10312 0.48573 0.69947 0.0
C378 C 0.11875 0.53035 0.70013 0.0
C379 C 0.10325 0.61112 0.69665 0.0
C380 C 0.07211 0.6468 0.6949 0.0
C381 C 0.08803 0.56622 0.69968 0.0
C382 C 0.02567 0.63707 0.69819 0.0
C383 C 0.01034 0.5926 0.701 0.0
H384 H 0.65508 0.0238 0.79922 0.0
H385 H 0.6222 0.16536 0.79609 0.0
H386 H 0.5424 0.14679 0.78746 0.0
H387 H 0.48126 0.09079 0.78773 0.0
H388 H 0.51324 0.94919 0.79501 0.0
H389 H 0.5939 0.96734 0.79466 0.0
C390 C 0.63055 0.05057 0.7959 0.0
C391 C 0.64461 0.0959 0.79849 0.0
C392 C 0.58441 0.03965 0.79205 0.0
C393 C 0.61229 0.13018 0.79449 0.0
C394 C 0.5666 0.1196 0.7896 0.0
C395 C 0.5058 0.06378 0.78854 0.0
C396 C 0.49108 0.01869 0.79165 0.0
C397 C 0.55213 0.07449 0.78939 0.0
C398 C 0.52354 0.98423 0.79291 0.0
C399 C 0.56973 0.99457 0.79276 0.0
H400 H 0.02648 0.47824 0.28792 0.0
H401 H 0.16982 0.50517 0.29386 0.0
H402 H 0.15583 0.58612 0.29114 0.0
H403 H 0.10253 0.64945 0.29438 0.0
H404 H 0.9591 0.62191 0.29209 0.0
H405 H 0.97351 0.54154 0.28574 0.0
C406 C 0.05469 0.50178 0.2878 0.0
C407 C 0.09906 0.48561 0.29135 0.0
C408 C 0.04638 0.54843 0.28734 0.0
C409 C 0.13524 0.51668 0.29146 0.0
C410 C 0.12729 0.56306 0.29 0.0
C411 C 0.07447 0.62593 0.29182 0.0
C412 C 0.02985 0.64177 0.29408 0.0
C413 C 0.08294 0.57939 0.28908 0.0
C414 C 0.99385 0.61071 0.29087 0.0
C415 C 1.00201 0.56463 0.28723 0.0
H416 H 0.16919 0.29221 0.20833 0.0
H417 H 0.17718 0.25836 0.32445 0.0
H418 H 0.23893 0.20666 0.31301 0.0
H419 H 0.28963 0.16859 0.26892 0.0
H420 H 0.2551 0.17632 0.1529 0.0
H421 H 0.20566 0.24002 0.16412 0.0
C422 C 0.18507 0.27399 0.23104 0.0
C423 C 0.17286 0.28331 0.26784 0.0
C424 C 0.21648 0.23972 0.22368 0.0
C425 C 0.19041 0.25621 0.29657 0.0
C426 C 0.22474 0.22545 0.28988 0.0
C427 C 0.2718 0.18482 0.24615 0.0
C428 C 0.28046 0.17188 0.20942 0.0
C429 C 0.23852 0.21722 0.25346 0.0
C430 C 0.25375 0.19004 0.18066 0.0
C431 C 0.22415 0.22545 0.18727 0.0
H432 H 0.9588 0.29882 0.77898 0.0
H433 H 0.94804 0.26054 0.6638 0.0
H434 H 0.88223 0.21393 0.67687 0.0
H435 H 0.83047 0.17956 0.72201 0.0
H436 H 0.86306 0.19343 0.83812 0.0
H437 H 0.9157 0.25431 0.82483 0.0
C438 C 0.94142 0.28078 0.75685 0.0
C439 C 0.95527 0.28645 0.71996 0.0
C440 C 0.90664 0.25001 0.76517 0.0
C441 C 0.93497 0.2602 0.69186 0.0
C442 C 0.89796 0.23264 0.69942 0.0
C443 C 0.84848 0.19669 0.74431 0.0
C444 C 0.83914 0.18568 0.78137 0.0
C445 C 0.88345 0.2272 0.73606 0.0
C446 C 0.86541 0.20536 0.80982 0.0
C447 C 0.89691 0.23907 0.80208 0.0
H448 H 0.92724 0.85573 0.31136 0.0
H449 H 0.95734 0.80964 0.20075 0.0
H450 H 0.90347 0.86408 0.17536 0.0
H451 H 0.85268 0.9281 0.18598 0.0
H452 H 0.80741 0.95856 0.29675 0.0
H453 H 0.86285 0.90576 0.32202 0.0
C454 C 0.91902 0.85413 0.2821 0.0
C455 C 0.94411 0.8264 0.25831 0.0
C456 C 0.88556 0.88255 0.26809 0.0
C457 C 0.93731 0.82955 0.21973 0.0
C458 C 0.90646 0.86051 0.20526 0.0
C459 C 0.85148 0.92009 0.21527 0.0
C460 C 0.82372 0.94508 0.23915 0.0
C461 C 0.88049 0.88713 0.22928 0.0
C462 C 0.82734 0.93861 0.27772 0.0
C463 C 0.85886 0.90835 0.29213 0.0
H464 H 0.18751 0.85806 0.67927 0.0
H465 H 0.15497 0.81259 0.78982 0.0
H466 H 0.21298 0.86334 0.81525 0.0
H467 H 0.26874 0.92399 0.80481 0.0
H468 H 0.31464 0.95364 0.69389 0.0
H469 H 0.25487 0.90509 0.66868 0.0
C470 C 0.19562 0.85595 0.70855 0.0
C471 C 0.16886 0.82925 0.73229 0.0
C472 C 0.23114 0.8823 0.72257 0.0
C473 C 0.1761 0.83168 0.77085 0.0
C474 C 0.20933 0.86053 0.78534 0.0
C475 C 0.26889 0.91656 0.77544 0.0
C476 C 0.29828 0.94019 0.75156 0.0
C477 C 0.23704 0.88588 0.76137 0.0
C478 C 0.29349 0.93471 0.71296 0.0
C479 C 0.25944 0.90685 0.69856 0.0
H480 H 0.83519 0.94722 0.7638 0.0
H481 H 0.93888 0.03509 0.80811 0.0
H482 H 0.99692 0.99095 0.7765 0.0
H483 H 0.01841 0.92669 0.73596 0.0
H484 H 0.91397 0.83832 0.69375 0.0
H485 H 0.85624 0.88377 0.72398 0.0
C486 C 0.87051 0.95657 0.7669 0.0
C487 C 0.88251 0.99435 0.78863 0.0
C488 C 0.90366 0.9313 0.74833 0.0
C489 C 0.92855 1.00598 0.79193 0.0
C490 C 0.9618 0.98092 0.77356 0.0
C491 C 0.98294 0.91802 0.73285 0.0
C492 C 0.97045 0.87952 0.71214 0.0
C493 C 0.94978 0.94366 0.75141 0.0
C494 C 0.92443 0.86798 0.7092 0.0
C495 C 0.89139 0.89378 0.72673 0.0
H496 H 0.20161 0.01553 0.21746 0.0
H497 H 0.3026 0.91568 0.19351 0.0
H498 H 0.25653 0.85756 0.22374 0.0
H499 H 0.18816 0.83513 0.25839 0.0
H500 H 0.0889 0.93578 0.2854 0.0
H501 H 0.13373 0.99329 0.25339 0.0
C502 C 0.21307 0.98087 0.21831 0.0
C503 C 0.25516 0.96982 0.20264 0.0
C504 C 0.18704 0.9478 0.23701 0.0
C505 C 0.27014 0.92499 0.20496 0.0
C506 C 0.24392 0.89177 0.22248 0.0
C507 C 0.17649 0.86972 0.25759 0.0
C508 C 0.13514 0.88093 0.27456 0.0
C509 C 0.20253 0.90282 0.23902 0.0
C510 C 0.12065 0.92603 0.27295 0.0
C511 C 0.14617 0.959 0.25435 0.0
H512 H 0.19957 0.27808 0.72187 0.0
H513 H 0.09829 0.18029 0.68955 0.0
H514 H 0.14305 0.12002 0.71785 0.0
H515 H 0.21103 0.095 0.75278 0.0
H516 H 0.31295 0.19315 0.78274 0.0
H517 H 0.26766 0.25321 0.7551 0.0
C518 C 0.18741 0.24354 0.72064 0.0
C519 C 0.1456 0.23387 0.70339 0.0
C520 C 0.21321 0.20906 0.73719 0.0
C521 C 0.13047 0.18881 0.70231 0.0
C522 C 0.15592 0.15429 0.71879 0.0
C523 C 0.22294 0.12965 0.75367 0.0
C524 C 0.26508 0.13966 0.77027 0.0
C525 C 0.19718 0.16404 0.73667 0.0
C526 C 0.28054 0.18457 0.77042 0.0
C527 C 0.25474 0.21894 0.75442 0.0
H528 H 0.01678 0.20504 0.26958 0.0
H529 H 0.91879 0.30794 0.29321 0.0
H530 H 0.85854 0.26052 0.26718 0.0
H531 H 0.83369 0.1903 0.23616 0.0
H532 H 0.93257 0.0892 0.20929 0.0
H533 H 0.99213 0.1354 0.2374 0.0
C534 C 0.98211 0.2167 0.26957 0.0
C535 C 0.97221 0.25971 0.28389 0.0
C536 C 0.94776 0.18982 0.25329 0.0
C537 C 0.92727 0.27483 0.28272 0.0
C538 C 0.89281 0.24781 0.26761 0.0
C539 C 0.86831 0.1785 0.23619 0.0
C540 C 0.87843 0.13625 0.2204 0.0
C541 C 0.90267 0.20542 0.2524 0.0
C542 C 0.92362 0.12161 0.22091 0.0
C543 C 0.95779 0.14794 0.23725 0.0
loop_
_geom_bond_atom_site_label_1
_geom_bond_atom_site_label_2
_geom_bond_distance
_geom_bond_site_symmetry_2
_ccdc_geom_bond_type
Mn0 O5 2.095 . S
Mn0 O15 2.162 1_545 S
Mn0 O16 2.297 . S
Mn0 O24 2.385 . S
Mn0 O25 2.209 . S
Mn0 O26 2.094 . S
Mn1 O6 2.121 . S
Mn1 N8 2.257 . S
Mn1 N17 2.282 . S
Mn1 O25 2.215 . S
Mn1 O27 2.117 . S
C2 O24 1.234 . S
C2 O25 1.283 . S
C3 O15 1.278 1_545 S
C3 O16 1.255 . S
C4 O26 1.240 . S
C4 O27 1.264 . S
O5 Mn0 2.095 . S
O5 C14 1.250 . S
O6 Mn1 2.121 . S
O6 C14 1.258 . S
C7 N8 1.326 . S
C7 C11 1.460 . S
C7 H13 0.929 . S
N8 Mn1 2.257 . S
N8 C7 1.326 . S
N8 C12 1.362 . S
C9 C10 1.258 . S
C9 C12 1.431 . S
C9 C29 1.449 . S
C10 C9 1.258 . S
C10 C11 1.477 . S
C10 H30 0.931 . S
C11 C7 1.460 . S
C11 C10 1.477 . S
C11 H31 0.930 . S
C12 N8 1.362 . S
C12 C9 1.431 . S
C12 C22 1.476 . S
H13 C7 0.929 . S
C14 O5 1.250 . S
C14 O6 1.258 . S
O15 Mn0 2.162 1_565 S
O15 C3 1.278 1_565 S
O16 Mn0 2.297 . S
O16 C3 1.255 . S
N17 Mn1 2.282 . S
N17 C18 1.328 . S
N17 C22 1.318 . S
C18 N17 1.328 . S
C18 C19 1.457 . S
C18 H23 0.929 . S
C19 C18 1.457 . S
C19 C20 1.291 . S
C19 H32 0.931 . S
C20 C19 1.291 . S
C20 C21 1.373 . S
C20 H33 0.929 . S
C21 C20 1.373 . S
C21 C22 1.396 . S
C21 C28 1.403 . S
C22 C12 1.476 . S
C22 N17 1.318 . S
C22 C21 1.396 . S
H23 C18 0.929 . S
O24 Mn0 2.385 . S
O24 C2 1.234 . S
O25 Mn0 2.209 . S
O25 Mn1 2.215 . S
O25 C2 1.283 . S
O26 Mn0 2.094 . S
O26 C4 1.240 . S
O27 Mn1 2.117 . S
O27 C4 1.264 . S
C28 C21 1.403 . S
C28 C29 1.399 . S
C28 H34 0.929 . S
C29 C9 1.449 . S
C29 C28 1.399 . S
C29 H35 0.930 . S
H30 C10 0.931 . S
H31 C11 0.930 . S
H32 C19 0.931 . S
H33 C20 0.929 . S
H34 C28 0.929 . S
H35 C29 0.930 . S
Mn36 O41 2.095 . S
Mn36 O51 2.162 . S
Mn36 O52 2.297 . S
Mn36 O60 2.385 . S
Mn36 O61 2.209 1_455 S
Mn36 O62 2.094 . S
Mn37 O42 2.121 . S
Mn37 N44 2.257 . S
Mn37 N53 2.282 . S
Mn37 O61 2.215 . S
Mn37 O63 2.117 . S
C38 O60 1.234 1_655 S
C38 O61 1.283 . S
C39 O51 1.281 . S
C39 O52 1.236 . S
C40 O62 1.240 . S
C40 O63 1.264 1_455 S
O41 Mn36 2.095 . S
O41 C50 1.250 . S
O42 Mn37 2.121 . S
O42 C50 1.258 1_655 S
C43 N44 1.326 . S
C43 C47 1.460 . S
C43 H49 0.929 . S
N44 Mn37 2.257 . S
N44 C43 1.326 . S
N44 C48 1.362 . S
C45 C46 1.258 . S
C45 C48 1.431 . S
C45 C65 1.449 . S
C46 C45 1.258 . S
C46 C47 1.477 . S
C46 H66 0.931 . S
C47 C43 1.460 . S
C47 C46 1.477 . S
C47 H67 0.930 . S
C48 N44 1.362 . S
C48 C45 1.431 . S
C48 C58 1.476 . S
H49 C43 0.929 . S
C50 O41 1.250 . S
C50 O42 1.258 1_455 S
O51 Mn36 2.162 . S
O51 C39 1.281 . S
O52 Mn36 2.297 . S
O52 C39 1.236 . S
N53 Mn37 2.282 . S
N53 C54 1.328 . S
N53 C58 1.318 . S
C54 N53 1.328 . S
C54 C55 1.457 . S
C54 H59 0.929 . S
C55 C54 1.457 . S
C55 C56 1.291 . S
C55 H68 0.931 . S
C56 C55 1.291 . S
C56 C57 1.373 . S
C56 H69 0.929 . S
C57 C56 1.373 . S
C57 C58 1.396 . S
C57 C64 1.403 . S
C58 C48 1.476 . S
C58 N53 1.318 . S
C58 C57 1.396 . S
H59 C54 0.929 . S
O60 Mn36 2.385 . S
O60 C38 1.234 1_455 S
O61 Mn36 2.209 1_655 S
O61 Mn37 2.215 . S
O61 C38 1.283 . S
O62 Mn36 2.094 . S
O62 C40 1.240 . S
O63 Mn37 2.117 . S
O63 C40 1.264 1_655 S
C64 C57 1.403 . S
C64 C65 1.399 . S
C64 H70 0.929 . S
C65 C45 1.449 . S
C65 C64 1.399 . S
C65 H71 0.930 . S
H66 C46 0.931 . S
H67 C47 0.930 . S
H68 C55 0.931 . S
H69 C56 0.929 . S
H70 C64 0.929 . S
H71 C65 0.930 . S
Mn72 O77 2.095 . S
Mn72 O87 2.162 . S
Mn72 O88 2.297 . S
Mn72 O96 2.385 . S
Mn72 O97 2.209 1_545 S
Mn72 O98 2.094 . S
Mn73 O78 2.121 . S
Mn73 N80 2.257 . S
Mn73 N89 2.282 . S
Mn73 O97 2.215 . S
Mn73 O99 2.117 . S
C74 O96 1.234 1_565 S
C74 O97 1.283 . S
C75 O87 1.281 . S
C75 O88 1.236 . S
C76 O98 1.240 . S
C76 O99 1.264 1_545 S
O77 Mn72 2.095 . S
O77 C86 1.250 . S
O78 Mn73 2.121 . S
O78 C86 1.258 1_565 S
C79 N80 1.326 . S
C79 C83 1.460 . S
C79 H85 0.929 . S
N80 Mn73 2.257 . S
N80 C79 1.326 . S
N80 C84 1.362 . S
C81 C82 1.258 . S
C81 C84 1.431 . S
C81 C101 1.449 . S
C82 C81 1.258 . S
C82 C83 1.477 . S
C82 H102 0.931 . S
C83 C79 1.460 . S
C83 C82 1.477 . S
C83 H103 0.930 . S
C84 N80 1.362 . S
C84 C81 1.431 . S
C84 C94 1.476 . S
H85 C79 0.929 . S
C86 O77 1.250 . S
C86 O78 1.258 1_545 S
O87 Mn72 2.162 . S
O87 C75 1.281 . S
O88 Mn72 2.297 . S
O88 C75 1.236 . S
N89 Mn73 2.282 . S
N89 C90 1.328 . S
N89 C94 1.318 . S
C90 N89 1.328 . S
C90 C91 1.457 . S
C90 H95 0.929 . S
C91 C90 1.457 . S
C91 C92 1.291 . S
C91 H104 0.931 . S
C92 C91 1.291 . S
C92 C93 1.373 . S
C92 H105 0.929 . S
C93 C92 1.373 . S
C93 C94 1.396 . S
C93 C100 1.403 . S
C94 C84 1.476 . S
C94 N89 1.318 . S
C94 C93 1.396 . S
H95 C90 0.929 . S
O96 Mn72 2.385 . S
O96 C74 1.234 1_545 S
O97 Mn72 2.209 1_565 S
O97 Mn73 2.215 . S
O97 C74 1.283 . S
O98 Mn72 2.094 . S
O98 C76 1.240 . S
O99 Mn73 2.117 . S
O99 C76 1.264 1_565 S
C100 C93 1.403 . S
C100 C101 1.399 . S
C100 H106 0.929 . S
C101 C81 1.449 . S
C101 C100 1.399 . S
C101 H107 0.930 . S
H102 C82 0.931 . S
H103 C83 0.930 . S
H104 C91 0.931 . S
H105 C92 0.929 . S
H106 C100 0.929 . S
H107 C101 0.930 . S
Mn108 O113 2.095 . S
Mn108 O123 2.162 1_455 S
Mn108 O124 2.297 . S
Mn108 O132 2.385 . S
Mn108 O133 2.209 . S
Mn108 O134 2.094 . S
Mn109 O114 2.121 . S
Mn109 N116 2.257 . S
Mn109 N125 2.282 . S
Mn109 O133 2.215 . S
Mn109 O135 2.117 . S
C110 O132 1.234 . S
C110 O133 1.283 . S
C111 O123 1.278 1_455 S
C111 O124 1.255 . S
C112 O134 1.240 . S
C112 O135 1.264 . S
O113 Mn108 2.095 . S
O113 C122 1.250 . S
O114 Mn109 2.121 . S
O114 C122 1.258 . S
C115 N116 1.326 . S
C115 C119 1.460 . S
C115 H121 0.929 . S
N116 Mn109 2.257 . S
N116 C115 1.326 . S
N116 C120 1.362 . S
C117 C118 1.258 . S
C117 C120 1.431 . S
C117 C137 1.449 . S
C118 C117 1.258 . S
C118 C119 1.477 . S
C118 H138 0.931 . S
C119 C115 1.460 . S
C119 C118 1.477 . S
C119 H139 0.930 . S
C120 N116 1.362 . S
C120 C117 1.431 . S
C120 C130 1.476 . S
H121 C115 0.929 . S
C122 O113 1.250 . S
C122 O114 1.258 . S
O123 Mn108 2.162 1_655 S
O123 C111 1.278 1_655 S
O124 Mn108 2.297 . S
O124 C111 1.255 . S
N125 Mn109 2.282 . S
N125 C126 1.328 . S
N125 C130 1.318 . S
C126 N125 1.328 . S
C126 C127 1.457 . S
C126 H131 0.929 . S
C127 C126 1.457 . S
C127 C128 1.291 . S
C127 H140 0.931 . S
C128 C127 1.291 . S
C128 C129 1.373 . S
C128 H141 0.929 . S
C129 C128 1.373 . S
C129 C130 1.396 . S
C129 C136 1.403 . S
C130 C120 1.476 . S
C130 N125 1.318 . S
C130 C129 1.396 . S
H131 C126 0.929 . S
O132 Mn108 2.385 . S
O132 C110 1.234 . S
O133 Mn108 2.209 . S
O133 Mn109 2.215 . S
O133 C110 1.283 . S
O134 Mn108 2.094 . S
O134 C112 1.240 . S
O135 Mn109 2.117 . S
O135 C112 1.264 . S
C136 C129 1.403 . S
C136 C137 1.399 . S
C136 H142 0.929 . S
C137 C117 1.449 . S
C137 C136 1.399 . S
C137 H143 0.930 . S
H138 C118 0.931 . S
H139 C119 0.930 . S
H140 C127 0.931 . S
H141 C128 0.929 . S
H142 C136 0.929 . S
H143 C137 0.930 . S
Mn144 O149 2.095 . S
Mn144 O159 2.162 . S
Mn144 O160 2.297 . S
Mn144 O168 2.385 . S
Mn144 O169 2.209 1_545 S
Mn144 O170 2.094 . S
Mn145 O150 2.121 . S
Mn145 N152 2.257 . S
Mn145 N161 2.282 . S
Mn145 O169 2.215 . S
Mn145 O171 2.117 . S
C146 O168 1.234 1_565 S
C146 O169 1.283 . S
C147 O159 1.281 . S
C147 O160 1.236 . S
C148 O170 1.240 . S
C148 O171 1.264 1_545 S
O149 Mn144 2.095 . S
O149 C158 1.250 . S
O150 Mn145 2.121 . S
O150 C158 1.258 1_565 S
C151 N152 1.326 . S
C151 C155 1.460 . S
C151 H157 0.929 . S
N152 Mn145 2.257 . S
N152 C151 1.326 . S
N152 C156 1.362 . S
C153 C154 1.258 . S
C153 C156 1.431 . S
C153 C173 1.449 . S
C154 C153 1.258 . S
C154 C155 1.477 . S
C154 H174 0.931 . S
C155 C151 1.460 . S
C155 C154 1.477 . S
C155 H175 0.930 . S
C156 N152 1.362 . S
C156 C153 1.431 . S
C156 C166 1.476 . S
H157 C151 0.929 . S
C158 O149 1.250 . S
C158 O150 1.258 1_545 S
O159 Mn144 2.162 . S
O159 C147 1.281 . S
O160 Mn144 2.297 . S
O160 C147 1.236 . S
N161 Mn145 2.282 . S
N161 C162 1.328 . S
N161 C166 1.318 . S
C162 N161 1.328 . S
C162 C163 1.457 . S
C162 H167 0.929 . S
C163 C162 1.457 . S
C163 C164 1.291 . S
C163 H176 0.931 . S
C164 C163 1.291 . S
C164 C165 1.373 . S
C164 H177 0.929 . S
C165 C164 1.373 . S
C165 C166 1.396 . S
C165 C172 1.403 . S
C166 C156 1.476 . S
C166 N161 1.318 . S
C166 C165 1.396 . S
H167 C162 0.929 . S
O168 Mn144 2.385 . S
O168 C146 1.234 1_545 S
O169 Mn144 2.209 1_565 S
O169 Mn145 2.215 . S
O169 C146 1.283 . S
O170 Mn144 2.094 . S
O170 C148 1.240 . S
O171 Mn145 2.117 . S
O171 C148 1.264 1_565 S
C172 C165 1.403 . S
C172 C173 1.399 . S
C172 H178 0.929 . S
C173 C153 1.449 . S
C173 C172 1.399 . S
C173 H179 0.930 . S
H174 C154 0.931 . S
H175 C155 0.930 . S
H176 C163 0.931 . S
H177 C164 0.929 . S
H178 C172 0.929 . S
H179 C173 0.930 . S
Mn180 O185 2.095 . S
Mn180 O195 2.162 1_455 S
Mn180 O196 2.297 . S
Mn180 O204 2.385 . S
Mn180 O205 2.209 . S
Mn180 O206 2.094 . S
Mn181 O186 2.121 . S
Mn181 N188 2.257 . S
Mn181 N197 2.282 . S
Mn181 O205 2.215 . S
Mn181 O207 2.117 . S
C182 O204 1.234 . S
C182 O205 1.283 . S
C183 O195 1.278 1_455 S
C183 O196 1.255 . S
C184 O206 1.240 . S
C184 O207 1.264 . S
O185 Mn180 2.095 . S
O185 C194 1.250 . S
O186 Mn181 2.121 . S
O186 C194 1.258 . S
C187 N188 1.326 . S
C187 C191 1.460 . S
C187 H193 0.929 . S
N188 Mn181 2.257 . S
N188 C187 1.326 . S
N188 C192 1.362 . S
C189 C190 1.258 . S
C189 C192 1.431 . S
C189 C209 1.449 . S
C190 C189 1.258 . S
C190 C191 1.477 . S
C190 H210 0.931 . S
C191 C187 1.460 . S
C191 C190 1.477 . S
C191 H211 0.930 . S
C192 N188 1.362 . S
C192 C189 1.431 . S
C192 C202 1.476 . S
H193 C187 0.929 . S
C194 O185 1.250 . S
C194 O186 1.258 . S
O195 Mn180 2.162 1_655 S
O195 C183 1.278 1_655 S
O196 Mn180 2.297 . S
O196 C183 1.255 . S
N197 Mn181 2.282 . S
N197 C198 1.328 . S
N197 C202 1.318 . S
C198 N197 1.328 . S
C198 C199 1.457 . S
C198 H203 0.929 . S
C199 C198 1.457 . S
C199 C200 1.291 . S
C199 H212 0.931 . S
C200 C199 1.291 . S
C200 C201 1.373 . S
C200 H213 0.929 . S
C201 C200 1.373 . S
C201 C202 1.396 . S
C201 C208 1.403 . S
C202 C192 1.476 . S
C202 N197 1.318 . S
C202 C201 1.396 . S
H203 C198 0.929 . S
O204 Mn180 2.385 . S
O204 C182 1.234 . S
O205 Mn180 2.209 . S
O205 Mn181 2.215 . S
O205 C182 1.283 . S
O206 Mn180 2.094 . S
O206 C184 1.240 . S
O207 Mn181 2.117 . S
O207 C184 1.264 . S
C208 C201 1.403 . S
C208 C209 1.399 . S
C208 H214 0.929 . S
C209 C189 1.449 . S
C209 C208 1.399 . S
C209 H215 0.930 . S
H210 C190 0.931 . S
H211 C191 0.930 . S
H212 C199 0.931 . S
H213 C200 0.929 . S
H214 C208 0.929 . S
H215 C209 0.930 . S
Mn216 O221 2.095 . S
Mn216 O231 2.162 1_545 S
Mn216 O232 2.297 . S
Mn216 O240 2.385 . S
Mn216 O241 2.209 . S
Mn216 O242 2.094 . S
Mn217 O222 2.121 . S
Mn217 N224 2.257 . S
Mn217 N233 2.282 . S
Mn217 O241 2.215 . S
Mn217 O243 2.117 . S
C218 O240 1.234 . S
C218 O241 1.283 . S
C219 O231 1.278 1_545 S
C219 O232 1.255 . S
C220 O242 1.240 . S
C220 O243 1.264 . S
O221 Mn216 2.095 . S
O221 C230 1.250 . S
O222 Mn217 2.121 . S
O222 C230 1.258 . S
C223 N224 1.326 . S
C223 C227 1.460 . S
C223 H229 0.929 . S
N224 Mn217 2.257 . S
N224 C223 1.326 . S
N224 C228 1.362 . S
C225 C226 1.258 . S
C225 C228 1.431 . S
C225 C245 1.449 . S
C226 C225 1.258 . S
C226 C227 1.477 . S
C226 H246 0.931 . S
C227 C223 1.460 . S
C227 C226 1.477 . S
C227 H247 0.930 . S
C228 N224 1.362 . S
C228 C225 1.431 . S
C228 C238 1.476 . S
H229 C223 0.929 . S
C230 O221 1.250 . S
C230 O222 1.258 . S
O231 Mn216 2.162 1_565 S
O231 C219 1.278 1_565 S
O232 Mn216 2.297 . S
O232 C219 1.255 . S
N233 Mn217 2.282 . S
N233 C234 1.328 . S
N233 C238 1.318 . S
C234 N233 1.328 . S
C234 C235 1.457 . S
C234 H239 0.929 . S
C235 C234 1.457 . S
C235 C236 1.291 . S
C235 H248 0.931 . S
C236 C235 1.291 . S
C236 C237 1.373 . S
C236 H249 0.929 . S
C237 C236 1.373 . S
C237 C238 1.396 . S
C237 C244 1.403 . S
C238 C228 1.476 . S
C238 N233 1.318 . S
C238 C237 1.396 . S
H239 C234 0.929 . S
O240 Mn216 2.385 . S
O240 C218 1.234 . S
O241 Mn216 2.209 . S
O241 Mn217 2.215 . S
O241 C218 1.283 . S
O242 Mn216 2.094 . S
O242 C220 1.240 . S
O243 Mn217 2.117 . S
O243 C220 1.264 . S
C244 C237 1.403 . S
C244 C245 1.399 . S
C244 H250 0.929 . S
C245 C225 1.449 . S
C245 C244 1.399 . S
C245 H251 0.930 . S
H246 C226 0.931 . S
H247 C227 0.930 . S
H248 C235 0.931 . S
H249 C236 0.929 . S
H250 C244 0.929 . S
H251 C245 0.930 . S
Mn252 O257 2.095 . S
Mn252 O267 2.162 . S
Mn252 O268 2.297 . S
Mn252 O276 2.385 . S
Mn252 O277 2.209 1_455 S
Mn252 O278 2.094 . S
Mn253 O258 2.121 . S
Mn253 N260 2.257 . S
Mn253 N269 2.282 . S
Mn253 O277 2.215 . S
Mn253 O279 2.117 . S
C254 O276 1.234 1_655 S
C254 O277 1.283 . S
C255 O267 1.281 . S
C255 O268 1.236 . S
C256 O278 1.240 . S
C256 O279 1.264 1_455 S
O257 Mn252 2.095 . S
O257 C266 1.250 . S
O258 Mn253 2.121 . S
O258 C266 1.258 1_655 S
C259 N260 1.326 . S
C259 C263 1.460 . S
C259 H265 0.929 . S
N260 Mn253 2.257 . S
N260 C259 1.326 . S
N260 C264 1.362 . S
C261 C262 1.258 . S
C261 C264 1.431 . S
C261 C281 1.449 . S
C262 C261 1.258 . S
C262 C263 1.477 . S
C262 H282 0.931 . S
C263 C259 1.460 . S
C263 C262 1.477 . S
C263 H283 0.930 . S
C264 N260 1.362 . S
C264 C261 1.431 . S
C264 C274 1.476 . S
H265 C259 0.929 . S
C266 O257 1.250 . S
C266 O258 1.258 1_455 S
O267 Mn252 2.162 . S
O267 C255 1.281 . S
O268 Mn252 2.297 . S
O268 C255 1.236 . S
N269 Mn253 2.282 . S
N269 C270 1.328 . S
N269 C274 1.318 . S
C270 N269 1.328 . S
C270 C271 1.457 . S
C270 H275 0.929 . S
C271 C270 1.457 . S
C271 C272 1.291 . S
C271 H284 0.931 . S
C272 C271 1.291 . S
C272 C273 1.373 . S
C272 H285 0.929 . S
C273 C272 1.373 . S
C273 C274 1.396 . S
C273 C280 1.403 . S
C274 C264 1.476 . S
C274 N269 1.318 . S
C274 C273 1.396 . S
H275 C270 0.929 . S
O276 Mn252 2.385 . S
O276 C254 1.234 1_455 S
O277 Mn252 2.209 1_655 S
O277 Mn253 2.215 . S
O277 C254 1.283 . S
O278 Mn252 2.094 . S
O278 C256 1.240 . S
O279 Mn253 2.117 . S
O279 C256 1.264 1_655 S
C280 C273 1.403 . S
C280 C281 1.399 . S
C280 H286 0.929 . S
C281 C261 1.449 . S
C281 C280 1.399 . S
C281 H287 0.930 . S
H282 C262 0.931 . S
H283 C263 0.930 . S
H284 C271 0.931 . S
H285 C272 0.929 . S
H286 C280 0.929 . S
H287 C281 0.930 . S
H288 C294 0.930 . S
H289 C297 0.930 1_565 S
H290 C298 0.930 1_565 S
H291 C299 0.930 1_565 S
H292 C302 0.930 . S
H293 C303 0.930 . S
C294 H288 0.930 . S
C294 C295 1.355 . S
C294 C296 1.415 . S
C295 C294 1.355 . S
C295 C297 1.419 . S
C296 C294 1.415 . S
C296 C301 1.425 1_554 S
C296 C303 1.409 1_554 S
C297 H289 0.930 1_545 S
C297 C295 1.419 . S
C297 C298 1.362 . S
C298 H290 0.930 1_545 S
C298 C297 1.362 . S
C298 C301 1.409 1_554 S
C299 H291 0.930 1_545 S
C299 C300 1.355 . S
C299 C301 1.415 . S
C300 C299 1.355 . S
C300 C302 1.419 . S
C301 C296 1.425 1_556 S
C301 C298 1.409 1_556 S
C301 C299 1.415 . S
C302 H292 0.930 . S
C302 C300 1.419 . S
C302 C303 1.362 . S
C303 H293 0.930 . S
C303 C296 1.409 1_556 S
C303 C302 1.362 . S
H304 C310 0.930 1_655 S
H305 C313 0.930 . S
H306 C314 0.930 . S
H307 C315 0.930 . S
H308 C318 0.930 1_655 S
H309 C319 0.911 1_655 S
C310 H304 0.930 1_455 S
C310 C311 1.355 . S
C310 C312 1.415 . S
C311 C310 1.355 . S
C311 C313 1.419 . S
C312 C310 1.415 . S
C312 C317 1.425 . S
C312 C319 1.423 . S
C313 H305 0.930 . S
C313 C311 1.419 . S
C313 C314 1.362 . S
C314 H306 0.930 . S
C314 C313 1.362 . S
C314 C317 1.409 . S
C315 H307 0.930 . S
C315 C316 1.355 . S
C315 C317 1.415 . S
C316 C315 1.355 . S
C316 C318 1.419 . S
C317 C312 1.425 . S
C317 C314 1.409 . S
C317 C315 1.415 . S
C318 H308 0.930 1_455 S
C318 C316 1.419 . S
C318 C319 1.367 . S
C319 H309 0.911 1_455 S
C319 C312 1.423 . S
C319 C318 1.367 . S
H320 C326 0.930 . S
H321 C329 0.930 . S
H322 C330 0.930 . S
H323 C331 0.930 . S
H324 C334 0.930 . S
H325 C335 0.930 . S
C326 H320 0.930 . S
C326 C327 1.355 . S
C326 C328 1.415 . S
C327 C326 1.355 . S
C327 C329 1.419 . S
C328 C326 1.415 . S
C328 C333 1.425 1_556 S
C328 C335 1.409 1_556 S
C329 H321 0.930 . S
C329 C327 1.419 . S
C329 C330 1.362 . S
C330 H322 0.930 . S
C330 C329 1.362 . S
C330 C333 1.409 1_556 S
C331 H323 0.930 . S
C331 C332 1.355 . S
C331 C333 1.415 . S
C332 C331 1.355 . S
C332 C334 1.419 . S
C333 C328 1.425 1_554 S
C333 C330 1.409 1_554 S
C333 C331 1.415 . S
C334 H324 0.930 . S
C334 C332 1.419 . S
C334 C335 1.362 . S
C335 H325 0.930 . S
C335 C328 1.409 1_554 S
C335 C334 1.362 . S
H336 C342 0.930 . S
H337 C345 0.930 1_655 S
H338 C346 0.930 . S
H339 C347 0.905 1_655 S
H340 C350 0.930 . S
H341 C351 0.930 . S
C342 H336 0.930 . S
C342 C343 1.355 . S
C342 C344 1.415 . S
C343 C342 1.355 . S
C343 C345 1.419 . S
C344 C342 1.415 . S
C344 C349 1.425 . S
C344 C351 1.409 . S
C345 H337 0.930 1_455 S
C345 C343 1.419 . S
C345 C346 1.362 1_455 S
C346 H338 0.930 . S
C346 C345 1.362 1_655 S
C346 C349 1.409 1_655 S
C347 H339 0.905 1_455 S
C347 C348 1.355 . S
C347 C349 1.415 . S
C348 C347 1.355 . S
C348 C350 1.419 . S
C349 C344 1.425 . S
C349 C346 1.409 1_455 S
C349 C347 1.415 . S
C350 H340 0.930 . S
C350 C348 1.419 . S
C350 C351 1.362 . S
C351 H341 0.930 . S
C351 C344 1.409 . S
C351 C350 1.362 . S
H352 C358 0.930 . S
H353 C361 0.930 . S
H354 C362 0.930 . S
H355 C363 0.930 . S
H356 C366 0.930 . S
H357 C367 0.930 . S
C358 H352 0.930 . S
C358 C359 1.355 . S
C358 C360 1.415 . S
C359 C358 1.355 . S
C359 C361 1.419 . S
C360 C358 1.415 . S
C360 C365 1.425 . S
C360 C367 1.409 1_545 S
C361 H353 0.930 . S
C361 C359 1.419 . S
C361 C362 1.362 . S
C362 H354 0.930 . S
C362 C361 1.362 . S
C362 C365 1.409 . S
C363 H355 0.930 . S
C363 C364 1.355 . S
C363 C365 1.415 . S
C364 C363 1.355 . S
C364 C366 1.419 1_545 S
C365 C360 1.425 . S
C365 C362 1.409 . S
C365 C363 1.415 . S
C366 H356 0.930 . S
C366 C364 1.419 1_565 S
C366 C367 1.362 . S
C367 H357 0.930 . S
C367 C360 1.409 1_565 S
C367 C366 1.362 . S
H368 C374 0.930 . S
H369 C377 0.930 . S
H370 C378 0.930 . S
H371 C379 0.930 . S
H372 C382 0.930 . S
H373 C383 0.930 . S
C374 H368 0.930 . S
C374 C375 1.355 . S
C374 C376 1.415 . S
C375 C374 1.355 . S
C375 C377 1.419 . S
C376 C374 1.415 . S
C376 C381 1.425 . S
C376 C383 1.409 . S
C377 H369 0.930 . S
C377 C375 1.419 . S
C377 C378 1.362 . S
C378 H370 0.930 . S
C378 C377 1.362 . S
C378 C381 1.409 . S
C379 H371 0.930 . S
C379 C380 1.355 . S
C379 C381 1.415 . S
C380 C379 1.355 . S
C380 C382 1.419 . S
C381 C376 1.425 . S
C381 C378 1.409 . S
C381 C379 1.415 . S
C382 H372 0.930 . S
C382 C380 1.419 . S
C382 C383 1.362 . S
C383 H373 0.930 . S
C383 C376 1.409 . S
C383 C382 1.362 . S
H384 C390 0.930 . S
H385 C393 0.930 . S
H386 C394 0.930 . S
H387 C395 0.930 . S
H388 C398 0.930 . S
H389 C399 0.930 . S
C390 H384 0.930 . S
C390 C391 1.355 . S
C390 C392 1.415 . S
C391 C390 1.355 . S
C391 C393 1.419 . S
C392 C390 1.415 . S
C392 C397 1.425 . S
C392 C399 1.409 1_545 S
C393 H385 0.930 . S
C393 C391 1.419 . S
C393 C394 1.362 . S
C394 H386 0.930 . S
C394 C393 1.362 . S
C394 C397 1.409 . S
C395 H387 0.930 . S
C395 C396 1.355 . S
C395 C397 1.415 . S
C396 C395 1.355 . S
C396 C398 1.419 1_545 S
C397 C392 1.425 . S
C397 C394 1.409 . S
C397 C395 1.415 . S
C398 H388 0.930 . S
C398 C396 1.419 1_565 S
C398 C399 1.362 . S
C399 H389 0.930 . S
C399 C392 1.409 1_565 S
C399 C398 1.362 . S
H400 C406 0.930 . S
H401 C409 0.930 . S
H402 C410 0.930 . S
H403 C411 0.930 . S
H404 C414 0.930 . S
H405 C415 0.930 1_655 S
C406 H400 0.930 . S
C406 C407 1.355 . S
C406 C408 1.415 . S
C407 C406 1.355 . S
C407 C409 1.419 . S
C408 C406 1.415 . S
C408 C413 1.425 . S
C408 C415 1.409 . S
C409 H401 0.930 . S
C409 C407 1.419 . S
C409 C410 1.362 . S
C410 H402 0.930 . S
C410 C409 1.362 . S
C410 C413 1.409 . S
C411 H403 0.930 . S
C411 C412 1.355 . S
C411 C413 1.415 . S
C412 C411 1.355 . S
C412 C414 1.419 1_455 S
C413 C408 1.425 . S
C413 C410 1.409 . S
C413 C411 1.415 . S
C414 H404 0.930 . S
C414 C412 1.419 1_655 S
C414 C415 1.362 1_655 S
C415 H405 0.930 1_455 S
C415 C408 1.409 . S
C415 C414 1.362 1_455 S
H416 C422 0.930 . S
H417 C425 0.930 . S
H418 C426 0.930 . S
H419 C427 0.930 . S
H420 C430 0.930 . S
H421 C431 0.930 . S
C422 H416 0.930 . S
C422 C423 1.355 . S
C422 C424 1.415 . S
C423 C422 1.355 . S
C423 C425 1.419 . S
C424 C422 1.415 . S
C424 C429 1.425 . S
C424 C431 1.409 . S
C425 H417 0.930 . S
C425 C423 1.419 . S
C425 C426 1.362 . S
C426 H418 0.930 . S
C426 C425 1.362 . S
C426 C429 1.409 . S
C427 H419 0.930 . S
C427 C428 1.355 . S
C427 C429 1.415 . S
C428 C427 1.355 . S
C428 C430 1.419 . S
C429 C424 1.425 . S
C429 C426 1.409 . S
C429 C427 1.415 . S
C430 H420 0.930 . S
C430 C428 1.419 . S
C430 C431 1.362 . S
C431 H421 0.930 . S
C431 C424 1.409 . S
C431 C430 1.362 . S
H432 C438 0.930 . S
H433 C441 0.930 . S
H434 C442 0.930 . S
H435 C443 0.930 . S
H436 C446 0.930 . S
H437 C447 0.930 . S
C438 H432 0.930 . S
C438 C439 1.355 . S
C438 C440 1.415 . S
C439 C438 1.355 . S
C439 C441 1.419 . S
C440 C438 1.415 . S
C440 C445 1.425 . S
C440 C447 1.409 . S
C441 H433 0.930 . S
C441 C439 1.419 . S
C441 C442 1.362 . S
C442 H434 0.930 . S
C442 C441 1.362 . S
C442 C445 1.409 . S
C443 H435 0.930 . S
C443 C444 1.355 . S
C443 C445 1.415 . S
C444 C443 1.355 . S
C444 C446 1.419 . S
C445 C440 1.425 . S
C445 C442 1.409 . S
C445 C443 1.415 . S
C446 H436 0.930 . S
C446 C444 1.419 . S
C446 C447 1.362 . S
C447 H437 0.930 . S
C447 C440 1.409 . S
C447 C446 1.362 . S
H448 C454 0.930 . S
H449 C457 0.930 . S
H450 C458 0.930 . S
H451 C459 0.930 . S
H452 C462 0.930 . S
H453 C463 0.930 . S
C454 H448 0.930 . S
C454 C455 1.355 . S
C454 C456 1.415 . S
C455 C454 1.355 . S
C455 C457 1.419 . S
C456 C454 1.415 . S
C456 C461 1.425 . S
C456 C463 1.409 . S
C457 H449 0.930 . S
C457 C455 1.419 . S
C457 C458 1.362 . S
C458 H450 0.930 . S
C458 C457 1.362 . S
C458 C461 1.409 . S
C459 H451 0.930 . S
C459 C460 1.355 . S
C459 C461 1.415 . S
C460 C459 1.355 . S
C460 C462 1.419 . S
C461 C456 1.425 . S
C461 C458 1.409 . S
C461 C459 1.415 . S
C462 H452 0.930 . S
C462 C460 1.419 . S
C462 C463 1.362 . S
C463 H453 0.930 . S
C463 C456 1.409 . S
C463 C462 1.362 . S
H464 C470 0.930 . S
H465 C473 0.930 . S
H466 C474 0.930 . S
H467 C475 0.930 . S
H468 C478 0.930 . S
H469 C479 0.930 . S
C470 H464 0.930 . S
C470 C471 1.355 . S
C470 C472 1.415 . S
C471 C470 1.355 . S
C471 C473 1.419 . S
C472 C470 1.415 . S
C472 C477 1.425 . S
C472 C479 1.409 . S
C473 H465 0.930 . S
C473 C471 1.419 . S
C473 C474 1.362 . S
C474 H466 0.930 . S
C474 C473 1.362 . S
C474 C477 1.409 . S
C475 H467 0.930 . S
C475 C476 1.355 . S
C475 C477 1.415 . S
C476 C475 1.355 . S
C476 C478 1.419 . S
C477 C472 1.425 . S
C477 C474 1.409 . S
C477 C475 1.415 . S
C478 H468 0.930 . S
C478 C476 1.419 . S
C478 C479 1.362 . S
C479 H469 0.930 . S
C479 C472 1.409 . S
C479 C478 1.362 . S
H480 C486 0.930 . S
H481 C489 0.930 . S
H482 C490 0.930 . S
H483 C491 0.930 . S
H484 C494 0.930 . S
H485 C495 0.930 . S
C486 H480 0.930 . S
C486 C487 1.355 . S
C486 C488 1.415 . S
C487 C486 1.355 . S
C487 C489 1.419 . S
C488 C486 1.415 . S
C488 C493 1.425 . S
C488 C495 1.409 . S
C489 H481 0.930 . S
C489 C487 1.419 . S
C489 C490 1.362 . S
C490 H482 0.930 . S
C490 C489 1.362 . S
C490 C493 1.409 . S
C491 H483 0.930 . S
C491 C492 1.355 . S
C491 C493 1.415 . S
C492 C491 1.355 . S
C492 C494 1.419 . S
C493 C488 1.425 . S
C493 C490 1.409 . S
C493 C491 1.415 . S
C494 H484 0.930 . S
C494 C492 1.419 . S
C494 C495 1.362 . S
C495 H485 0.930 . S
C495 C488 1.409 . S
C495 C494 1.362 . S
H496 C502 0.930 1_545 S
H497 C505 0.930 . S
H498 C506 0.930 . S
H499 C507 0.930 . S
H500 C510 0.930 . S
H501 C511 0.930 . S
C502 H496 0.930 1_565 S
C502 C503 1.355 . S
C502 C504 1.415 . S
C503 C502 1.355 . S
C503 C505 1.419 . S
C504 C502 1.415 . S
C504 C509 1.425 . S
C504 C511 1.409 . S
C505 H497 0.930 . S
C505 C503 1.419 . S
C505 C506 1.362 . S
C506 H498 0.930 . S
C506 C505 1.362 . S
C506 C509 1.409 . S
C507 H499 0.930 . S
C507 C508 1.355 . S
C507 C509 1.415 . S
C508 C507 1.355 . S
C508 C510 1.419 . S
C509 C504 1.425 . S
C509 C506 1.409 . S
C509 C507 1.415 . S
C510 H500 0.930 . S
C510 C508 1.419 . S
C510 C511 1.362 . S
C511 H501 0.930 . S
C511 C504 1.409 . S
C511 C510 1.362 . S
H512 C518 0.930 . S
H513 C521 0.930 . S
H514 C522 0.930 . S
H515 C523 0.930 . S
H516 C526 0.930 . S
H517 C527 0.930 . S
C518 H512 0.930 . S
C518 C519 1.355 . S
C518 C520 1.415 . S
C519 C518 1.355 . S
C519 C521 1.419 . S
C520 C518 1.415 . S
C520 C525 1.425 . S
C520 C527 1.409 . S
C521 H513 0.930 . S
C521 C519 1.419 . S
C521 C522 1.362 . S
C522 H514 0.930 . S
C522 C521 1.362 . S
C522 C525 1.409 . S
C523 H515 0.930 . S
C523 C524 1.355 . S
C523 C525 1.415 . S
C524 C523 1.355 . S
C524 C526 1.419 . S
C525 C520 1.425 . S
C525 C522 1.409 . S
C525 C523 1.415 . S
C526 H516 0.930 . S
C526 C524 1.419 . S
C526 C527 1.362 . S
C527 H517 0.930 . S
C527 C520 1.409 . S
C527 C526 1.362 . S
H528 C534 0.930 . S
H529 C537 0.930 . S
H530 C538 0.930 . S
H531 C539 0.930 . S
H532 C542 0.930 . S
H533 C543 0.930 . S
C534 H528 0.930 . S
C534 C535 1.355 . S
C534 C536 1.415 . S
C535 C534 1.355 . S
C535 C537 1.419 . S
C536 C534 1.415 . S
C536 C541 1.425 . S
C536 C543 1.409 . S
C537 H529 0.930 . S
C537 C535 1.419 . S
C537 C538 1.362 . S
C538 H530 0.930 . S
C538 C537 1.362 . S
C538 C541 1.409 . S
C539 H531 0.930 . S
C539 C540 1.355 . S
C539 C541 1.415 . S
C540 C539 1.355 . S
C540 C542 1.419 . S
C541 C536 1.425 . S
C541 C538 1.409 . S
C541 C539 1.415 . S
C542 H532 0.930 . S
C542 C540 1.419 . S
C542 C543 1.362 . S
C543 H533 0.930 . S
C543 C536 1.409 . S
C543 C542 1.362 . S
C295 C14 1.526 . S
C300 C158 1.503 . S
C311 C50 1.520 . S
C316 C194 1.519 . S
C327 C230 1.468 . S
C332 C86 1.508 . S
C343 C266 1.455 . S
C348 C122 1.467 . S
C359 C4 1.361 . S
C364 C76 1.341 . S
C375 C40 1.322 . S
C380 C112 1.355 . S
C391 C220 1.355 . S
C396 C148 1.354 . S
C407 C184 1.361 . S
C412 C256 1.334 . S
C423 C182 1.303 . S
C428 C2 1.345 . S
C439 C38 1.327 . S
C444 C218 1.317 . S
C455 C254 1.342 . S
C460 C74 1.310 . S
C471 C110 1.341 . S
C476 C146 1.305 . S
C487 C219 1.323 1_565 S
C492 C111 1.324 1_655 S
C503 C3 1.320 1_565 S
C508 C255 1.338 . S
C519 C39 1.338 . S
C524 C147 1.337 . S
C535 C183 1.321 1_655 S
C540 C75 1.336 . S
