# Generated by pormake.
# Topology nbo, (4)-cn, num edge types: 1
# Building blocks:
#     Node 0, Type 0, BuildingBlock: ESEHIV_clean_sbu_0, # of connection points: 4
#     Node 1, Type 0, BuildingBlock: ESEHIV_clean_sbu_0, # of connection points: 4
#     Node 2, Type 0, BuildingBlock: ESEHIV_clean_sbu_0, # of connection points: 4
#     Node 3, Type 0, BuildingBlock: ESEHIV_clean_sbu_0, # of connection points: 4
#     Node 4, Type 0, BuildingBlock: ESEHIV_clean_sbu_0, # of connection points: 4
#     Node 5, Type 0, BuildingBlock: ESEHIV_clean_sbu_0, # of connection points: 4
#     Edge 6, Type (0, 0), BuildingBlock: EZIPEK_clean_linker_0, # of connection points: 2
#     Edge 7, Type (0, 0), BuildingBlock: EZIPEK_clean_linker_0, # of connection points: 2
#     Edge 8, Type (0, 0), BuildingBlock: EZIPEK_clean_linker_0, # of connection points: 2
#     Edge 9, Type (0, 0), BuildingBlock: EZIPEK_clean_linker_0, # of connection points: 2
#     Edge 10, Type (0, 0), BuildingBlock: EZIPEK_clean_linker_0, # of connection points: 2
#     Edge 11, Type (0, 0), BuildingBlock: EZIPEK_clean_linker_0, # of connection points: 2
#     Edge 12, Type (0, 0), BuildingBlock: EZIPEK_clean_linker_0, # of connection points: 2
#     Edge 13, Type (0, 0), BuildingBlock: EZIPEK_clean_linker_0, # of connection points: 2
#     Edge 14, Type (0, 0), BuildingBlock: EZIPEK_clean_linker_0, # of connection points: 2
#     Edge 15, Type (0, 0), BuildingBlock: EZIPEK_clean_linker_0, # of connection points: 2
#     Edge 16, Type (0, 0), BuildingBlock: EZIPEK_clean_linker_0, # of connection points: 2
#     Edge 17, Type (0, 0), BuildingBlock: EZIPEK_clean_linker_0, # of connection points: 2
# Relax obj value: 0.000
# Max RMSD: 0.095
# Mean RMSD: 0.094
data_MOF--net-nbo--node1-ESEHIV_clean_sbu_0--edge1-EZIPEK_clean_linker_0
_symmetry_space_group_name_H-M    P1
_symmetry_Int_Tables_number       1
_symmetry_cell_setting            triclinic
loop_
_symmetry_equiv_pos_as_xyz
'x, y, z'
_cell_length_a     21.510773
_cell_length_b     26.132388
_cell_length_c     23.459412
_cell_angle_alpha  103.76584
_cell_angle_beta   103.831
_cell_angle_gamma 103.64829
loop_
_atom_site_label
_atom_site_type_symbol
_atom_site_fract_x
_atom_site_fract_y
_atom_site_fract_z
_atom_type_partial_charge
Cu0 Cu 0.16858 0.18495 0.61826 0.0
N1 N 0.18942 0.26064 0.66196 0.0
N2 N 0.19336 0.34968 0.67896 0.0
C3 C 0.17306 0.29895 0.63669 0.0
C4 C 0.22355 0.34314 0.73302 0.0
C5 C 0.22083 0.28811 0.72246 0.0
O6 O 0.07283 0.15952 0.57135 0.0
C7 C 0.29231 0.20398 0.59398 0.0
O8 O 0.30955 0.24879 0.6414 0.0
H9 H 0.147 0.28989 0.58812 0.0
H10 H 0.24044 0.26948 0.75641 0.0
N11 N 0.17829 0.13759 0.66659 0.0
N12 N 0.17978 0.05595 0.68105 0.0
C13 C 0.18898 0.08873 0.6452 0.0
C14 C 0.16246 0.13597 0.71847 0.0
C15 C 0.16328 0.08555 0.72745 0.0
C16 C 0.03427 0.17088 0.60296 0.0
O17 O 0.0609 0.19871 0.66205 0.0
H18 H 0.19864 0.07573 0.60164 0.0
H19 H 0.14722 0.1675 0.74561 0.0
O20 O 0.23057 0.17425 0.57072 0.0
H21 H 0.24594 0.37574 0.77686 0.0
H22 H 0.14966 0.07068 0.76347 0.0
Cu23 Cu 0.45707 0.96785 0.97731 0.0
N24 N 0.41 0.89172 0.95507 0.0
N25 N 0.40623 0.8051 0.956 0.0
C26 C 0.42232 0.85879 0.99016 0.0
C27 C 0.3802 0.80404 0.89717 0.0
C28 C 0.38173 0.85704 0.89692 0.0
O29 O 0.51187 0.99083 0.06361 0.0
C30 C 0.47787 0.97807 0.86689 0.0
O31 O 0.4136 0.97377 0.85324 0.0
H32 H 0.44903 0.87452 0.03912 0.0
H33 H 0.36862 0.86998 0.85655 0.0
N34 N 0.40421 1.01538 0.97404 0.0
N35 N 0.38684 0.09796 0.98814 0.0
C36 C 0.42949 0.06895 0.9781 0.0
C37 C 0.34274 1.00998 0.98067 0.0
C38 C 0.33197 0.06106 0.98959 0.0
C39 C 0.47823 0.98532 0.10096 0.0
O40 O 0.41223 0.96564 0.07888 0.0
H41 H 0.48014 0.08721 0.97793 0.0
H42 H 0.30998 0.97257 0.98281 0.0
O43 O 0.50887 0.97694 0.9201 0.0
H44 H 0.36536 0.76817 0.85671 0.0
H45 H 0.28862 0.07095 0.99909 0.0
Cu46 Cu 0.99758 0.5542 0.98417 0.0
N47 N 1.01354 0.6012 0.93562 0.0
N48 N 1.02159 0.62569 0.85126 0.0
C49 C 1.0154 0.58431 0.87701 0.0
C50 C 1.02395 0.67047 0.8957 0.0
C51 C 1.01895 0.6553 0.9475 0.0
O52 O 0.04366 0.49982 0.96026 0.0
C53 C 0.86309 0.491 0.97954 0.0
O54 O 0.89286 0.46829 1.01776 0.0
H55 H 1.00977 0.54186 0.8528 0.0
H56 H 1.0175 0.6815 0.99016 0.0
N57 N 0.0345 0.59214 0.07145 0.0
N58 N 0.05675 0.61649 0.17529 0.0
C59 C 1.01437 0.5814 0.11942 0.0
C60 C 0.09117 0.63567 0.0986 0.0
C61 C 0.10491 0.65059 0.16196 0.0
C62 C 0.1055 0.51922 0.96404 0.0
O63 O 0.13477 0.57307 0.98649 0.0
H64 H 0.96982 0.5487 0.1139 0.0
H65 H 0.12088 0.65529 0.07394 0.0
O66 O 0.89863 0.52422 0.95917 0.0
H67 H 1.02751 0.71104 0.89051 0.0
H68 H 0.14693 0.6843 0.19583 0.0
Cu69 Cu 0.46294 0.46523 0.9781 0.0
N70 N 0.48937 0.54109 1.02314 0.0
N71 N 0.48567 0.62678 1.02434 0.0
C72 C 0.44985 0.57409 1.01668 0.0
C73 C 0.55047 0.62726 0.03879 0.0
C74 C 0.55262 0.57509 0.03886 0.0
O75 O 0.36906 0.44763 0.92698 0.0
C76 C 0.58729 0.45604 0.96975 0.0
O77 O 0.59354 0.45617 0.02683 0.0
H78 H 0.39547 0.55856 0.99987 0.0
H79 H 0.59681 0.56173 0.04262 0.0
N80 N 0.46141 0.41561 1.02429 0.0
N81 N 0.44359 0.33276 0.03942 0.0
C82 C 0.45062 0.36102 0.99899 0.0
C83 C 0.46226 0.42237 0.08324 0.0
C84 C 0.45086 0.37108 0.09261 0.0
C85 C 0.32692 0.44638 0.95736 0.0
O86 O 0.34991 0.45479 1.01704 0.0
H87 H 0.44567 0.34202 0.9511 0.0
H88 H 0.46809 0.46136 0.11621 0.0
O89 O 0.53147 0.45747 0.9363 0.0
H90 H 0.59304 0.66183 0.04404 0.0
H91 H 0.447 0.36236 0.13471 0.0
Cu92 Cu 0.10476 0.66186 0.56067 0.0
N93 N 0.14774 0.6223 0.60625 0.0
N94 N 0.17321 0.55475 0.64146 0.0
C95 C 0.13242 0.56693 0.59642 0.0
C96 C 0.21526 0.60387 0.68107 0.0
C97 C 0.19936 0.64532 0.65943 0.0
O98 O 1.01601 0.6553 0.57182 0.0
C99 C 0.05238 0.64224 0.42849 0.0
O100 O 1.00495 0.66083 0.44356 0.0
H101 H 0.09218 0.5363 0.55748 0.0
H102 H 0.22323 0.68941 0.68155 0.0
N103 N 0.15563 0.73792 0.58967 0.0
N104 N 0.18439 0.83088 0.61916 0.0
C105 C 0.13389 0.78268 0.60223 0.0
C106 C 0.22188 0.75882 0.59816 0.0
C107 C 0.23973 0.81596 0.6163 0.0
C108 C 0.98426 0.64537 0.60989 0.0
O109 O 0.92138 0.64543 0.596 0.0
H110 H 0.08203 0.78007 0.59859 0.0
H111 H 0.25481 0.73408 0.59093 0.0
O112 O 0.09769 0.63647 0.47108 0.0
H113 H 0.25437 0.60924 0.72284 0.0
H114 H 0.2894 0.84447 0.62641 0.0
Cu115 Cu 0.61399 0.07845 0.54204 0.0
N116 N 0.57809 1.03353 0.45984 0.0
N117 N 0.55118 1.00687 0.35726 0.0
C118 C 0.58246 0.04945 0.41002 0.0
C119 C 0.52633 0.96253 0.37421 0.0
C120 C 0.54315 0.97913 0.43776 0.0
O121 O 0.70943 0.11585 0.55723 0.0
C122 C 0.49672 0.10722 0.54157 0.0
O123 O 0.46997 0.05328 0.51655 0.0
H124 H 0.60717 0.09141 0.41226 0.0
H125 H 0.53031 0.95353 0.46589 0.0
N126 N 0.60856 1.03495 0.59482 0.0
N127 N 0.5886 1.00374 0.67144 0.0
C128 C 0.5829 0.04181 0.64222 0.0
C129 C 0.63099 0.9909 0.59427 0.0
C130 C 0.61859 0.97144 0.64151 0.0
C131 C 0.74404 0.08766 0.53497 0.0
O132 O 0.71454 1.03541 0.50167 0.0
H133 H 0.55979 0.07345 0.65474 0.0
H134 H 0.65426 0.97379 0.56148 0.0
O135 O 0.56041 0.12864 0.55606 0.0
H136 H 0.49726 0.9215 0.34274 0.0
H137 H 0.62972 0.936 0.65259 0.0
C138 C 0.1417 0.42569 0.69087 0.0
C139 C 0.18644 0.40068 0.66804 0.0
C140 C 0.21502 0.47397 0.62074 0.0
C141 C 0.17391 0.5009 0.64703 0.0
N142 N 0.10218 0.50632 0.71087 0.0
N143 N 0.27261 0.40421 0.61887 0.0
C144 C 0.13829 0.47774 0.68321 0.0
C145 C 0.22468 0.42556 0.63462 0.0
N146 N 0.10126 0.3986 0.71829 0.0
N147 N 0.24457 0.49494 0.58225 0.0
H148 H 0.28173 0.36965 0.6297 0.0
H149 H 0.30688 0.42291 0.59956 0.0
H150 H 0.23956 0.53108 0.57284 0.0
H151 H 0.26994 0.47484 0.55643 0.0
H152 H 0.06369 0.41186 0.73207 0.0
H153 H 0.10238 0.36028 0.7236 0.0
H154 H 0.07955 0.495 0.74244 0.0
H155 H 0.09757 0.54352 0.70424 0.0
C156 C 0.92932 0.10081 0.59572 0.0
C157 C 0.96001 0.14612 0.57797 0.0
C158 C 0.84847 0.15211 0.52899 0.0
C159 C 0.81849 0.11034 0.5521 0.0
N160 N 0.83101 0.05131 0.61621 0.0
N161 N 0.95093 0.21904 0.53334 0.0
C162 C 0.85911 0.08624 0.58764 0.0
C163 C 0.92014 0.17285 0.5459 0.0
N164 N 0.96742 0.07123 0.61967 0.0
N165 N 0.80843 0.17065 0.48939 0.0
H166 H 1.00304 0.23392 0.54305 0.0
H167 H 0.92545 0.24436 0.51663 0.0
H168 H 0.75596 0.15692 0.47679 0.0
H169 H 0.82676 0.19659 0.46565 0.0
H170 H 0.94713 1.03421 0.62752 0.0
H171 H 1.01909 0.08099 0.62644 0.0
H172 H 0.85901 0.03699 0.648 0.0
H173 H 0.78009 0.04075 0.61282 0.0
C174 C 0.13914 0.90456 0.59307 0.0
C175 C 0.18069 0.88697 0.63606 0.0
C176 C 0.22415 0.98213 0.70819 0.0
C177 C 0.17845 0.99846 0.66726 0.0
N178 N 0.08107 0.97155 0.57771 0.0
N179 N 0.25214 0.90618 0.73965 0.0
C180 C 0.13255 0.95851 0.61166 0.0
C181 C 0.22022 0.92504 0.69521 0.0
N182 N 0.10846 0.87073 0.53355 0.0
N183 N 0.27301 1.02149 0.75814 0.0
H184 H 0.24841 0.86443 0.7321 0.0
H185 H 0.27637 0.93076 0.78545 0.0
H186 H 0.27797 0.0636 0.768 0.0
H187 H 0.31195 1.01298 0.78647 0.0
H188 H 0.08283 0.8834 0.49859 0.0
H189 H 0.1144 0.83194 0.51774 0.0
H190 H 0.04233 0.9426 0.5398 0.0
H191 H 0.07319 1.00984 0.59143 0.0
C192 C 0.45212 0.16168 0.6165 0.0
C193 C 0.45174 0.14093 0.55483 0.0
C194 C 0.3505 0.16782 0.51828 0.0
C195 C 0.34619 0.18145 0.5792 0.0
N196 N 0.3843 0.17758 0.68336 0.0
N197 N 0.39901 0.12148 0.44584 0.0
C198 C 0.39488 0.17496 0.62764 0.0
C199 C 0.40034 0.14322 0.50532 0.0
N200 N 0.50696 0.16872 0.66469 0.0
N201 N 0.30842 0.17991 0.47336 0.0
H202 H 0.43742 0.10714 0.43508 0.0
H203 H 0.35875 0.11551 0.40738 0.0
H204 H 0.27158 0.19784 0.48141 0.0
H205 H 0.31328 0.17621 0.42959 0.0
H206 H 0.51215 0.18844 0.71053 0.0
H207 H 0.55051 0.16078 0.65856 0.0
H208 H 0.41466 0.16744 0.71794 0.0
H209 H 0.34092 0.18333 0.69257 0.0
C210 C 0.57583 0.98269 0.25867 0.0
C211 C 0.54147 1.00872 0.29505 0.0
C212 C 0.48456 1.03445 0.20796 0.0
C213 C 0.51023 1.00068 0.16873 0.0
N214 N 0.57816 0.93965 0.15595 0.0
N215 N 0.45822 0.05471 0.30402 0.0
C216 C 0.5563 0.97465 0.19393 0.0
C217 C 0.49511 1.03402 0.26985 0.0
N218 N 0.62743 0.96608 0.28654 0.0
N219 N 0.45038 0.06724 0.18594 0.0
H220 H 0.4638 0.05382 0.3491 0.0
H221 H 0.41828 0.06834 0.28612 0.0
H222 H 0.44199 0.06863 0.14077 0.0
H223 H 0.43613 0.09678 0.21381 0.0
H224 H 0.65908 0.95148 0.2641 0.0
H225 H 0.64215 0.97156 0.3339 0.0
H226 H 0.60476 0.91421 0.17071 0.0
H227 H 0.56643 0.93339 0.10863 0.0
C228 C 0.04284 0.6684 0.27256 0.0
C229 C 0.05182 0.62021 0.23711 0.0
C230 C 0.05869 0.58398 0.32613 0.0
C231 C 0.05614 0.63475 0.36343 0.0
N232 N 0.06204 0.73022 0.37444 0.0
N233 N 0.07901 0.53572 0.23321 0.0
C234 C 0.05255 0.67827 0.33713 0.0
C235 C 0.06259 0.57889 0.26478 0.0
N236 N 1.02319 0.7043 0.24387 0.0
N237 N 0.05477 0.53985 0.34821 0.0
H238 H 0.08226 0.53108 0.18871 0.0
H239 H 0.09456 0.50722 0.25279 0.0
H240 H 0.0515 0.5418 0.39226 0.0
H241 H 0.04925 0.50017 0.32118 0.0
H242 H 1.00912 0.73741 0.26551 0.0
H243 H 1.01426 0.69748 0.19655 0.0
H244 H 0.06649 0.76473 0.35899 0.0
H245 H 0.07317 0.74025 0.42227 0.0
C246 C 0.50308 0.95347 0.7089 0.0
C247 C 0.56313 0.99641 0.72138 0.0
C248 C 0.5693 1.02803 0.83045 0.0
C249 C 0.51166 0.98229 0.81886 0.0
N250 N 0.43333 0.89445 0.74956 0.0
N251 N 0.65992 0.0691 0.79421 0.0
C252 C 0.48126 0.94299 0.75869 0.0
C253 C 0.5983 1.03202 0.78238 0.0
N254 N 0.46583 0.9238 0.64905 0.0
N255 N 0.59408 0.06919 0.88596 0.0
H256 H 0.68158 0.07305 0.7595 0.0
H257 H 0.69162 0.09252 0.8386 0.0
H258 H 0.5738 0.06848 0.922 0.0
H259 H 0.63132 0.10628 0.89463 0.0
H260 H 0.41766 0.89598 0.63639 0.0
H261 H 0.4807 0.9307 0.61161 0.0
H262 H 0.41371 0.86211 0.70803 0.0
H263 H 0.41865 0.88391 0.78545 0.0
C264 C 0.06385 0.6704 0.71981 0.0
C265 C 1.01119 0.63131 0.66765 0.0
C266 C 0.96884 0.58438 0.73643 0.0
C267 C 1.02189 0.62303 0.78857 0.0
N268 N 0.132 0.6903 0.82601 0.0
N269 N 0.92997 0.54038 0.6254 0.0
C270 C 0.07355 0.66186 0.77884 0.0
C271 C 0.9698 0.58441 0.67591 0.0
N272 N 0.10157 0.71758 0.71428 0.0
N273 N 0.91446 0.55085 0.74416 0.0
H274 H 0.93053 0.53944 0.58076 0.0
H275 H 0.90267 0.50309 0.62863 0.0
H276 H 0.90853 0.55259 0.78726 0.0
H277 H 0.87168 0.52571 0.70748 0.0
H278 H 0.13587 0.75034 0.75185 0.0
H279 H 0.09467 0.7251 0.67215 0.0
H280 H 0.17378 0.71581 0.82034 0.0
H281 H 0.14087 0.68338 0.86883 0.0
C282 C 0.18229 0.49843 0.90174 0.0
C283 C 0.14552 0.48357 0.94181 0.0
C284 C 0.20878 0.419 0.9591 0.0
C285 C 0.25491 0.44362 0.93181 0.0
N286 N 0.26906 0.48671 0.85396 0.0
N287 N 0.12163 0.42685 1.00648 0.0
C288 C 0.23644 0.47699 0.89545 0.0
C289 C 0.1565 0.44157 0.96818 0.0
N290 N 0.16706 0.53503 0.87194 0.0
N291 N 0.21585 0.37383 0.97639 0.0
H292 H 0.08275 0.44186 1.01443 0.0
H293 H 0.13368 0.402 0.03338 0.0
H294 H 0.25337 0.35659 0.96867 0.0
H295 H 0.18114 0.35037 0.99183 0.0
H296 H 0.19626 0.55346 0.84839 0.0
H297 H 0.12483 0.54793 0.87169 0.0
H298 H 0.2549 0.50688 0.82218 0.0
H299 H 0.30609 0.46909 0.84626 0.0
C300 C 0.36877 0.23674 0.98064 0.0
C301 C 0.4286 0.2735 0.02713 0.0
C302 C 0.45628 0.19419 0.05263 0.0
C303 C 0.40054 0.15726 1.00167 0.0
N304 N 0.31106 0.14357 0.91001 0.0
N305 N 0.53618 0.28668 0.09869 0.0
C306 C 0.3587 0.17863 0.96364 0.0
C307 C 0.47431 0.25204 0.0608 0.0
N308 N 0.32044 0.25727 0.95441 0.0
N309 N 0.49043 0.17426 0.09466 0.0
H310 H 0.55175 0.32894 0.104 0.0
H311 H 0.57424 0.27262 0.11981 0.0
H312 H 0.47725 0.13244 0.09129 0.0
H313 H 0.52725 0.19974 0.13592 0.0
H314 H 0.27309 0.23225 0.92435 0.0
H315 H 0.32535 0.29938 0.96756 0.0
H316 H 0.28337 0.15725 0.87725 0.0
H317 H 0.30386 0.10106 0.89554 0.0
C318 C 0.74444 0.42505 0.94503 0.0
C319 C 0.78824 0.48027 0.96324 0.0
C320 C 0.68928 0.51351 0.95483 0.0
C321 C 0.64878 0.46041 0.94991 0.0
N322 N 0.63703 0.36468 0.94014 0.0
N323 N 0.80169 0.57866 0.9936 0.0
C324 C 0.67608 0.41575 0.94432 0.0
C325 C 0.76043 0.525 0.96922 0.0
N326 N 0.76769 0.38149 0.92694 0.0
N327 N 0.65989 0.55334 0.94704 0.0
H328 H 0.85402 0.58972 1.00884 0.0
H329 H 0.78398 0.61233 1.00494 0.0
H330 H 0.6079 0.54557 0.93555 0.0
H331 H 0.68597 0.59156 0.94501 0.0
H332 H 0.73679 0.34046 0.90811 0.0
H333 H 0.81659 0.38684 0.92475 0.0
H334 H 0.65596 0.33199 0.94379 0.0
H335 H 0.58585 0.35596 0.93574 0.0
C336 C 0.49744 0.72711 0.04553 0.0
C337 C 0.46134 0.67116 1.0098 0.0
C338 C 0.37993 0.705 0.94889 0.0
C339 C 0.42387 0.76029 0.97603 0.0
N340 N 0.53817 0.81777 0.03655 0.0
N341 N 0.37871 0.61055 0.91227 0.0
C342 C 0.48655 0.77003 1.02099 0.0
C343 C 0.40495 0.66069 0.95727 0.0
N344 N 0.54171 0.73966 0.10294 0.0
N345 N 0.31434 0.69444 0.91587 0.0
H346 H 0.40152 0.5795 0.91088 0.0
H347 H 0.34047 0.60343 0.87164 0.0
H348 H 0.29294 0.72596 0.91272 0.0
H349 H 0.27994 0.65457 0.89849 0.0
H350 H 0.56609 0.78044 0.13156 0.0
H351 H 0.54724 0.70952 0.12427 0.0
H352 H 0.58568 0.82432 0.06673 0.0
H353 H 0.53687 0.84652 1.0126 0.0
loop_
_geom_bond_atom_site_label_1
_geom_bond_atom_site_label_2
_geom_bond_distance
_geom_bond_site_symmetry_2
_ccdc_geom_bond_type
Cu0 N1 1.999 . S
Cu0 O6 1.974 1_455 S
Cu0 N11 1.985 1_445 S
Cu0 O20 1.959 . S
N1 Cu0 1.999 . S
N1 C3 1.263 . S
N1 C5 1.389 . S
N2 C3 1.358 . S
N2 C4 1.400 . S
C3 N1 1.263 . S
C3 N2 1.358 . S
C3 H9 0.930 1_455 S
C4 N2 1.400 . S
C4 C5 1.351 . S
C4 H21 0.930 . S
C5 N1 1.389 . S
C5 C4 1.351 . S
C5 H10 0.930 . S
O6 Cu0 1.974 1_655 S
O6 C16 1.282 . S
C7 O8 1.261 . S
C7 O20 1.251 . S
O8 C7 1.261 . S
H9 C3 0.930 1_655 S
H10 C5 0.930 . S
N11 Cu0 1.985 1_665 S
N11 C13 1.335 1_655 S
N11 C14 1.390 . S
N12 C13 1.345 . S
N12 C15 1.336 1_455 S
C13 N11 1.335 1_455 S
C13 N12 1.345 . S
C13 H18 0.930 . S
C14 N11 1.390 . S
C14 C15 1.346 . S
C14 H19 0.930 . S
C15 N12 1.336 1_655 S
C15 C14 1.346 . S
C15 H22 0.929 . S
C16 O6 1.282 . S
C16 O17 1.216 . S
O17 C16 1.216 . S
H18 C13 0.930 . S
H19 C14 0.930 . S
O20 Cu0 1.959 . S
O20 C7 1.251 . S
H21 C4 0.930 . S
H22 C15 0.929 . S
Cu23 N24 1.999 1_545 S
Cu23 O29 1.974 . S
Cu23 N34 1.985 . S
Cu23 O43 1.959 1_554 S
N24 Cu23 1.999 1_565 S
N24 C26 1.263 . S
N24 C28 1.389 1_554 S
N25 C26 1.358 . S
N25 C27 1.400 1_554 S
C26 N24 1.263 . S
C26 N25 1.358 . S
C26 H32 0.930 . S
C27 N25 1.400 1_556 S
C27 C28 1.351 . S
C27 H44 0.930 . S
C28 N24 1.389 1_556 S
C28 C27 1.351 . S
C28 H33 0.930 . S
O29 Cu23 1.974 . S
O29 C39 1.282 . S
C30 O31 1.261 . S
C30 O43 1.251 . S
O31 C30 1.261 . S
H32 C26 0.930 . S
H33 C28 0.930 . S
N34 Cu23 1.985 . S
N34 C36 1.335 . S
N34 C37 1.390 . S
N35 C36 1.345 . S
N35 C38 1.336 . S
C36 N34 1.335 . S
C36 N35 1.345 . S
C36 H41 0.930 1_554 S
C37 N34 1.390 . S
C37 C38 1.346 . S
C37 H42 0.930 . S
C38 N35 1.336 . S
C38 C37 1.346 . S
C38 H45 0.929 . S
C39 O29 1.282 . S
C39 O40 1.216 . S
O40 C39 1.216 . S
H41 C36 0.930 1_556 S
H42 C37 0.930 . S
O43 Cu23 1.959 1_556 S
O43 C30 1.251 . S
H44 C27 0.930 . S
H45 C38 0.929 . S
Cu46 N47 1.999 1_554 S
Cu46 O52 1.974 . S
Cu46 N57 1.985 . S
Cu46 O66 1.959 1_455 S
N47 Cu46 1.999 1_556 S
N47 C49 1.263 . S
N47 C51 1.389 1_455 S
N48 C49 1.358 . S
N48 C50 1.400 1_455 S
C49 N47 1.263 . S
C49 N48 1.358 . S
C49 H55 0.930 . S
C50 N48 1.400 1_655 S
C50 C51 1.351 . S
C50 H67 0.930 . S
C51 N47 1.389 1_655 S
C51 C50 1.351 . S
C51 H56 0.930 . S
O52 Cu46 1.974 . S
O52 C62 1.282 . S
C53 O54 1.261 1_554 S
C53 O66 1.251 . S
O54 C53 1.261 1_556 S
H55 C49 0.930 . S
H56 C51 0.930 . S
N57 Cu46 1.985 . S
N57 C59 1.335 . S
N57 C60 1.390 . S
N58 C59 1.345 . S
N58 C61 1.336 . S
C59 N57 1.335 . S
C59 N58 1.345 . S
C59 H64 0.930 1_455 S
C60 N57 1.390 . S
C60 C61 1.346 . S
C60 H65 0.930 . S
C61 N58 1.336 . S
C61 C60 1.346 . S
C61 H68 0.929 . S
C62 O52 1.282 . S
C62 O63 1.216 1_554 S
O63 C62 1.216 1_556 S
H64 C59 0.930 1_655 S
H65 C60 0.930 . S
O66 Cu46 1.959 1_655 S
O66 C53 1.251 . S
H67 C50 0.930 . S
H68 C61 0.929 . S
Cu69 N70 1.999 . S
Cu69 O75 1.974 . S
Cu69 N80 1.985 . S
Cu69 O89 1.959 . S
N70 Cu69 1.999 . S
N70 C72 1.263 . S
N70 C74 1.389 . S
N71 C72 1.358 . S
N71 C73 1.400 . S
C72 N70 1.263 . S
C72 N71 1.358 . S
C72 H78 0.930 1_556 S
C73 N71 1.400 . S
C73 C74 1.351 . S
C73 H90 0.930 . S
C74 N70 1.389 . S
C74 C73 1.351 . S
C74 H79 0.930 . S
O75 Cu69 1.974 . S
O75 C85 1.282 1_556 S
C76 O77 1.261 . S
C76 O89 1.251 1_554 S
O77 C76 1.261 . S
H78 C72 0.930 1_554 S
H79 C74 0.930 . S
N80 Cu69 1.985 . S
N80 C82 1.335 . S
N80 C83 1.390 1_556 S
N81 C82 1.345 . S
N81 C84 1.336 1_556 S
C82 N80 1.335 . S
C82 N81 1.345 . S
C82 H87 0.930 . S
C83 N80 1.390 1_554 S
C83 C84 1.346 . S
C83 H88 0.930 . S
C84 N81 1.336 1_554 S
C84 C83 1.346 . S
C84 H91 0.929 . S
C85 O75 1.282 1_554 S
C85 O86 1.216 . S
O86 C85 1.216 . S
H87 C82 0.930 . S
H88 C83 0.930 . S
O89 Cu69 1.959 . S
O89 C76 1.251 1_556 S
H90 C73 0.930 . S
H91 C84 0.929 . S
Cu92 N93 1.999 . S
Cu92 O98 1.974 . S
Cu92 N103 1.985 . S
Cu92 O112 1.959 . S
N93 Cu92 1.999 . S
N93 C95 1.263 . S
N93 C97 1.389 . S
N94 C95 1.358 . S
N94 C96 1.400 . S
C95 N93 1.263 . S
C95 N94 1.358 . S
C95 H101 0.930 . S
C96 N94 1.400 . S
C96 C97 1.351 . S
C96 H113 0.930 . S
C97 N93 1.389 . S
C97 C96 1.351 . S
C97 H102 0.930 . S
O98 Cu92 1.974 . S
O98 C108 1.282 1_455 S
C99 O100 1.255 1_455 S
C99 O112 1.256 . S
O100 C99 1.255 1_655 S
H101 C95 0.930 . S
H102 C97 0.930 . S
N103 Cu92 1.985 . S
N103 C105 1.335 . S
N103 C106 1.390 . S
N104 C105 1.345 . S
N104 C107 1.336 . S
C105 N103 1.335 . S
C105 N104 1.345 . S
C105 H110 0.930 . S
C106 N103 1.390 . S
C106 C107 1.346 . S
C106 H111 0.930 1_455 S
C107 N104 1.336 . S
C107 C106 1.346 . S
C107 H114 0.929 1_455 S
C108 O98 1.282 1_655 S
C108 O109 1.216 . S
O109 C108 1.216 . S
H110 C105 0.930 . S
H111 C106 0.930 1_655 S
O112 Cu92 1.959 . S
O112 C99 1.256 . S
H113 C96 0.930 . S
H114 C107 0.929 1_655 S
Cu115 N116 1.999 . S
Cu115 O121 1.974 . S
Cu115 N126 1.985 . S
Cu115 O135 1.959 . S
N116 Cu115 1.999 . S
N116 C118 1.263 . S
N116 C120 1.389 . S
N117 C118 1.358 . S
N117 C119 1.400 . S
C118 N116 1.263 . S
C118 N117 1.358 . S
C118 H124 0.930 . S
C119 N117 1.400 . S
C119 C120 1.351 . S
C119 H136 0.930 . S
C120 N116 1.389 . S
C120 C119 1.351 . S
C120 H125 0.930 . S
O121 Cu115 1.974 . S
O121 C131 1.282 . S
C122 O123 1.261 1_545 S
C122 O135 1.251 . S
O123 C122 1.261 1_565 S
H124 C118 0.930 . S
H125 C120 0.930 . S
N126 Cu115 1.985 . S
N126 C128 1.335 . S
N126 C129 1.390 . S
N127 C128 1.345 . S
N127 C130 1.336 . S
C128 N126 1.335 . S
C128 N127 1.345 . S
C128 H133 0.930 . S
C129 N126 1.390 . S
C129 C130 1.346 . S
C129 H134 0.930 . S
C130 N127 1.336 . S
C130 C129 1.346 . S
C130 H137 0.929 . S
C131 O121 1.282 . S
C131 O132 1.216 1_545 S
O132 C131 1.216 1_565 S
H133 C128 0.930 . S
H134 C129 0.930 . S
O135 Cu115 1.959 . S
O135 C122 1.251 . S
H136 C119 0.930 . S
H137 C130 0.929 . S
C138 C139 1.363 1_655 S
C138 C144 1.376 . S
C138 N146 1.356 . S
C139 C138 1.363 1_455 S
C139 C145 1.363 . S
C140 C141 1.363 . S
C140 C145 1.379 . S
C140 N147 1.356 . S
C141 C140 1.363 . S
C141 C144 1.355 1_455 S
N142 C144 1.366 . S
N142 H154 0.984 . S
N142 H155 0.985 . S
N143 C145 1.356 . S
N143 H148 0.984 . S
N143 H149 0.985 . S
C144 C138 1.376 . S
C144 C141 1.355 1_655 S
C144 N142 1.366 . S
C145 C139 1.363 . S
C145 C140 1.379 . S
C145 N143 1.356 . S
N146 C138 1.356 . S
N146 H152 0.984 . S
N146 H153 0.984 . S
N147 C140 1.356 . S
N147 H150 0.984 . S
N147 H151 0.985 . S
H148 N143 0.984 . S
H149 N143 0.985 . S
H150 N147 0.984 . S
H151 N147 0.985 . S
H152 N146 0.984 . S
H153 N146 0.984 . S
H154 N142 0.984 . S
H155 N142 0.985 . S
C156 C157 1.363 . S
C156 C162 1.379 1_545 S
C156 N164 1.356 1_545 S
C157 C156 1.363 . S
C157 C163 1.363 . S
C158 C159 1.363 . S
C158 C163 1.379 . S
C158 N165 1.356 . S
C159 C158 1.363 . S
C159 C162 1.363 1_545 S
N160 C162 1.356 . S
N160 H172 0.984 . S
N160 H173 0.985 . S
N161 C163 1.356 . S
N161 H166 0.984 . S
N161 H167 0.985 . S
C162 C156 1.379 1_565 S
C162 C159 1.363 1_565 S
C162 N160 1.356 . S
C163 C157 1.363 . S
C163 C158 1.379 . S
C163 N161 1.356 . S
N164 C156 1.356 1_565 S
N164 H170 0.984 . S
N164 H171 0.985 . S
N165 C158 1.356 . S
N165 H168 0.984 . S
N165 H169 0.985 . S
H166 N161 0.984 . S
H167 N161 0.985 . S
H168 N165 0.984 . S
H169 N165 0.985 . S
H170 N164 0.984 . S
H171 N164 0.985 . S
H172 N160 0.984 . S
H173 N160 0.985 . S
C174 C175 1.363 . S
C174 C180 1.379 . S
C174 N182 1.356 . S
C175 C174 1.363 . S
C175 C181 1.363 1_455 S
C176 C177 1.363 1_655 S
C176 C181 1.379 . S
C176 N183 1.356 . S
C177 C176 1.363 1_455 S
C177 C180 1.363 . S
N178 C180 1.356 . S
N178 H190 0.984 . S
N178 H191 0.985 . S
N179 C181 1.356 . S
N179 H184 0.984 . S
N179 H185 0.985 . S
C180 C174 1.379 . S
C180 C177 1.363 . S
C180 N178 1.356 . S
C181 C175 1.363 1_655 S
C181 C176 1.379 . S
C181 N179 1.356 . S
N182 C174 1.356 . S
N182 H188 0.984 . S
N182 H189 0.984 . S
N183 C176 1.356 . S
N183 H186 0.984 . S
N183 H187 0.985 . S
H184 N179 0.984 . S
H185 N179 0.985 . S
H186 N183 0.984 . S
H187 N183 0.985 . S
H188 N182 0.984 . S
H189 N182 0.984 . S
H190 N178 0.984 . S
H191 N178 0.985 . S
C192 C193 1.363 . S
C192 C198 1.379 . S
C192 N200 1.356 . S
C193 C192 1.363 . S
C193 C199 1.363 . S
C194 C195 1.363 . S
C194 C199 1.379 . S
C194 N201 1.356 . S
C195 C194 1.363 . S
C195 C198 1.363 . S
N196 C198 1.356 . S
N196 H208 0.984 . S
N196 H209 0.985 . S
N197 C199 1.356 . S
N197 H202 0.984 . S
N197 H203 0.985 . S
C198 C192 1.379 . S
C198 C195 1.363 . S
C198 N196 1.356 . S
C199 C193 1.363 . S
C199 C194 1.379 . S
C199 N197 1.356 . S
N200 C192 1.356 . S
N200 H206 0.984 . S
N200 H207 0.984 . S
N201 C194 1.356 . S
N201 H204 0.984 . S
N201 H205 0.985 . S
H202 N197 0.984 . S
H203 N197 0.985 . S
H204 N201 0.984 . S
H205 N201 0.985 . S
H206 N200 0.984 . S
H207 N200 0.984 . S
H208 N196 0.984 . S
H209 N196 0.985 . S
C210 C211 1.363 . S
C210 C216 1.379 1_545 S
C210 N218 1.356 1_545 S
C211 C210 1.363 . S
C211 C217 1.363 . S
C212 C213 1.363 . S
C212 C217 1.379 . S
C212 N219 1.356 . S
C213 C212 1.363 . S
C213 C216 1.364 1_545 S
N214 C216 1.356 . S
N214 H226 0.984 . S
N214 H227 0.985 . S
N215 C217 1.356 . S
N215 H220 0.984 . S
N215 H221 0.985 . S
C216 C210 1.379 1_565 S
C216 C213 1.364 1_565 S
C216 N214 1.356 . S
C217 C211 1.363 . S
C217 C212 1.379 . S
C217 N215 1.356 . S
N218 C210 1.356 1_565 S
N218 H224 0.984 . S
N218 H225 0.987 . S
N219 C212 1.356 . S
N219 H222 0.984 . S
N219 H223 0.985 . S
H220 N215 0.984 . S
H221 N215 0.985 . S
H222 N219 0.984 . S
H223 N219 0.985 . S
H224 N218 0.984 . S
H225 N218 0.987 . S
H226 N214 0.984 . S
H227 N214 0.985 . S
C228 C229 1.363 . S
C228 C234 1.379 . S
C228 N236 1.356 . S
C229 C228 1.363 . S
C229 C235 1.363 1_455 S
C230 C231 1.363 1_655 S
C230 C235 1.379 . S
C230 N237 1.356 . S
C231 C230 1.363 1_455 S
C231 C234 1.363 . S
N232 C234 1.356 . S
N232 H244 0.984 . S
N232 H245 0.985 . S
N233 C235 1.356 . S
N233 H238 0.984 . S
N233 H239 0.985 . S
C234 C228 1.379 . S
C234 C231 1.363 . S
C234 N232 1.356 . S
C235 C229 1.363 1_655 S
C235 C230 1.379 . S
C235 N233 1.356 . S
N236 C228 1.356 . S
N236 H242 0.984 . S
N236 H243 0.984 . S
N237 C230 1.356 . S
N237 H240 0.984 . S
N237 H241 0.985 . S
H238 N233 0.984 . S
H239 N233 0.985 . S
H240 N237 0.984 . S
H241 N237 0.985 . S
H242 N236 0.984 . S
H243 N236 0.984 . S
H244 N232 0.984 . S
H245 N232 0.985 . S
C246 C247 1.363 1_565 S
C246 C252 1.379 . S
C246 N254 1.356 . S
C247 C246 1.363 1_545 S
C247 C253 1.363 . S
C248 C249 1.363 . S
C248 C253 1.379 . S
C248 N255 1.356 . S
C249 C248 1.363 . S
C249 C252 1.363 1_545 S
N250 C252 1.356 . S
N250 H262 0.984 . S
N250 H263 0.985 . S
N251 C253 1.356 . S
N251 H256 0.984 . S
N251 H257 0.985 . S
C252 C246 1.379 . S
C252 C249 1.363 1_565 S
C252 N250 1.356 . S
C253 C247 1.363 . S
C253 C248 1.379 . S
C253 N251 1.356 . S
N254 C246 1.356 . S
N254 H260 0.984 . S
N254 H261 0.984 . S
N255 C248 1.356 . S
N255 H258 0.984 . S
N255 H259 0.985 . S
H256 N251 0.984 . S
H257 N251 0.985 . S
H258 N255 0.984 . S
H259 N255 0.985 . S
H260 N254 0.984 . S
H261 N254 0.984 . S
H262 N250 0.984 . S
H263 N250 0.985 . S
C264 C265 1.363 . S
C264 C270 1.379 . S
C264 N272 1.356 . S
C265 C264 1.363 . S
C265 C271 1.363 1_455 S
C266 C267 1.363 1_655 S
C266 C271 1.379 . S
C266 N273 1.356 . S
C267 C266 1.363 1_455 S
C267 C270 1.363 . S
N268 C270 1.356 . S
N268 H280 0.984 . S
N268 H281 0.985 . S
N269 C271 1.356 . S
N269 H274 0.984 . S
N269 H275 0.985 . S
C270 C264 1.379 . S
C270 C267 1.363 . S
C270 N268 1.356 . S
C271 C265 1.363 1_655 S
C271 C266 1.379 . S
C271 N269 1.356 . S
N272 C264 1.356 . S
N272 H278 0.984 . S
N272 H279 0.984 . S
N273 C266 1.356 . S
N273 H276 0.984 . S
N273 H277 0.985 . S
H274 N269 0.984 . S
H275 N269 0.985 . S
H276 N273 0.984 . S
H277 N273 0.985 . S
H278 N272 0.984 . S
H279 N272 0.984 . S
H280 N268 0.984 . S
H281 N268 0.985 . S
C282 C283 1.363 . S
C282 C288 1.379 . S
C282 N290 1.356 . S
C283 C282 1.363 . S
C283 C289 1.363 1_554 S
C284 C285 1.363 1_556 S
C284 C289 1.379 . S
C284 N291 1.356 . S
C285 C284 1.363 1_554 S
C285 C288 1.363 . S
N286 C288 1.356 . S
N286 H298 0.984 . S
N286 H299 0.985 . S
N287 C289 1.356 . S
N287 H292 0.984 . S
N287 H293 0.985 . S
C288 C282 1.379 . S
C288 C285 1.363 . S
C288 N286 1.356 . S
C289 C283 1.363 1_556 S
C289 C284 1.379 . S
C289 N287 1.356 . S
N290 C282 1.356 . S
N290 H296 0.984 . S
N290 H297 0.984 . S
N291 C284 1.356 . S
N291 H294 0.984 . S
N291 H295 0.985 . S
H292 N287 0.984 . S
H293 N287 0.985 . S
H294 N291 0.984 . S
H295 N291 0.985 . S
H296 N290 0.984 . S
H297 N290 0.984 . S
H298 N286 0.984 . S
H299 N286 0.985 . S
C300 C301 1.363 . S
C300 C306 1.379 . S
C300 N308 1.356 . S
C301 C300 1.363 . S
C301 C307 1.363 1_556 S
C302 C303 1.363 . S
C302 C307 1.379 . S
C302 N309 1.356 . S
C303 C302 1.363 . S
C303 C306 1.363 1_554 S
N304 C306 1.356 . S
N304 H316 0.984 . S
N304 H317 0.985 . S
N305 C307 1.356 . S
N305 H310 0.984 . S
N305 H311 0.985 . S
C306 C300 1.379 . S
C306 C303 1.363 1_556 S
C306 N304 1.356 . S
C307 C301 1.363 1_554 S
C307 C302 1.379 . S
C307 N305 1.356 . S
N308 C300 1.356 . S
N308 H314 0.984 . S
N308 H315 0.984 . S
N309 C302 1.356 . S
N309 H312 0.984 . S
N309 H313 0.985 . S
H310 N305 0.984 . S
H311 N305 0.985 . S
H312 N309 0.984 . S
H313 N309 0.985 . S
H314 N308 0.984 . S
H315 N308 0.984 . S
H316 N304 0.984 . S
H317 N304 0.985 . S
C318 C319 1.363 1_556 S
C318 C324 1.379 . S
C318 N326 1.356 . S
C319 C318 1.363 1_554 S
C319 C325 1.363 . S
C320 C321 1.363 . S
C320 C325 1.379 . S
C320 N327 1.356 . S
C321 C320 1.363 . S
C321 C324 1.363 1_554 S
N322 C324 1.356 . S
N322 H334 0.984 . S
N322 H335 0.985 . S
N323 C325 1.356 . S
N323 H328 0.984 . S
N323 H329 0.985 . S
C324 C318 1.379 . S
C324 C321 1.363 1_556 S
C324 N322 1.356 . S
C325 C319 1.363 . S
C325 C320 1.379 . S
C325 N323 1.356 . S
N326 C318 1.356 . S
N326 H332 0.984 . S
N326 H333 0.984 . S
N327 C320 1.356 . S
N327 H330 0.984 . S
N327 H331 0.985 . S
H328 N323 0.984 . S
H329 N323 0.985 . S
H330 N327 0.984 . S
H331 N327 0.985 . S
H332 N326 0.984 . S
H333 N326 0.984 . S
H334 N322 0.984 . S
H335 N322 0.985 . S
C336 C337 1.363 1_554 S
C336 C342 1.379 . S
C336 N344 1.356 . S
C337 C336 1.363 1_556 S
C337 C343 1.363 . S
C338 C339 1.363 1_556 S
C338 C343 1.379 . S
C338 N345 1.356 . S
C339 C338 1.363 1_554 S
C339 C342 1.363 . S
N340 C342 1.356 . S
N340 H352 0.984 . S
N340 H353 0.985 . S
N341 C343 1.356 . S
N341 H346 0.984 . S
N341 H347 0.985 . S
C342 C336 1.379 . S
C342 C339 1.363 . S
C342 N340 1.356 . S
C343 C337 1.363 . S
C343 C338 1.379 . S
C343 N341 1.356 . S
N344 C336 1.356 . S
N344 H350 0.984 . S
N344 H351 0.984 . S
N345 C338 1.356 . S
N345 H348 0.984 . S
N345 H349 0.985 . S
H346 N341 0.984 . S
H347 N341 0.985 . S
H348 N345 0.984 . S
H349 N345 0.985 . S
H350 N344 0.984 . S
H351 N344 0.984 . S
H352 N340 0.984 . S
H353 N340 0.985 . S
C139 N2 1.505 . S
C141 N94 1.498 . S
C157 C16 1.489 . S
C159 C131 1.492 . S
C175 N104 1.478 . S
C177 N12 1.472 . S
C193 C122 1.532 . S
C195 C7 1.533 . S
C211 N117 1.484 . S
C213 C39 1.507 . S
C229 N58 1.484 . S
C231 C99 1.520 . S
C247 N127 1.484 . S
C249 C30 1.518 . S
C265 C108 1.507 1_455 S
C267 N48 1.484 . S
C283 C62 1.492 . S
C285 C85 1.489 . S
C301 N81 1.472 . S
C303 N35 1.478 . S
C319 C53 1.532 . S
C321 C76 1.533 . S
C337 N71 1.506 . S
C339 N25 1.499 . S
