# Generated by pormake.
# Topology ure, (4)-cn, num edge types: 1
# Building blocks:
#     Node 0, Type 0, BuildingBlock: KUFVIS_clean_sbu_0, # of connection points: 4
#     Node 1, Type 0, BuildingBlock: KUFVIS_clean_sbu_0, # of connection points: 4
#     Node 2, Type 0, BuildingBlock: KUFVIS_clean_sbu_0, # of connection points: 4
#     Node 3, Type 0, BuildingBlock: KUFVIS_clean_sbu_0, # of connection points: 4
#     Node 4, Type 0, BuildingBlock: KUFVIS_clean_sbu_0, # of connection points: 4
#     Node 5, Type 0, BuildingBlock: KUFVIS_clean_sbu_0, # of connection points: 4
#     Node 6, Type 0, BuildingBlock: KUFVIS_clean_sbu_0, # of connection points: 4
#     Node 7, Type 0, BuildingBlock: KUFVIS_clean_sbu_0, # of connection points: 4
#     Node 8, Type 0, BuildingBlock: KUFVIS_clean_sbu_0, # of connection points: 4
#     Node 9, Type 0, BuildingBlock: KUFVIS_clean_sbu_0, # of connection points: 4
#     Node 10, Type 0, BuildingBlock: KUFVIS_clean_sbu_0, # of connection points: 4
#     Node 11, Type 0, BuildingBlock: KUFVIS_clean_sbu_0, # of connection points: 4
#     Node 12, Type 0, BuildingBlock: KUFVIS_clean_sbu_0, # of connection points: 4
#     Node 13, Type 0, BuildingBlock: KUFVIS_clean_sbu_0, # of connection points: 4
#     Node 14, Type 0, BuildingBlock: KUFVIS_clean_sbu_0, # of connection points: 4
#     Node 15, Type 0, BuildingBlock: KUFVIS_clean_sbu_0, # of connection points: 4
#     Edge 16, Type (0, 0), BuildingBlock: AJUNOK_clean_linker_0, # of connection points: 2
#     Edge 17, Type (0, 0), BuildingBlock: AJUNOK_clean_linker_0, # of connection points: 2
#     Edge 18, Type (0, 0), BuildingBlock: AJUNOK_clean_linker_0, # of connection points: 2
#     Edge 19, Type (0, 0), BuildingBlock: AJUNOK_clean_linker_0, # of connection points: 2
#     Edge 20, Type (0, 0), BuildingBlock: AJUNOK_clean_linker_0, # of connection points: 2
#     Edge 21, Type (0, 0), BuildingBlock: AJUNOK_clean_linker_0, # of connection points: 2
#     Edge 22, Type (0, 0), BuildingBlock: AJUNOK_clean_linker_0, # of connection points: 2
#     Edge 23, Type (0, 0), BuildingBlock: AJUNOK_clean_linker_0, # of connection points: 2
#     Edge 24, Type (0, 0), BuildingBlock: AJUNOK_clean_linker_0, # of connection points: 2
#     Edge 25, Type (0, 0), BuildingBlock: AJUNOK_clean_linker_0, # of connection points: 2
#     Edge 26, Type (0, 0), BuildingBlock: AJUNOK_clean_linker_0, # of connection points: 2
#     Edge 27, Type (0, 0), BuildingBlock: AJUNOK_clean_linker_0, # of connection points: 2
#     Edge 28, Type (0, 0), BuildingBlock: AJUNOK_clean_linker_0, # of connection points: 2
#     Edge 29, Type (0, 0), BuildingBlock: AJUNOK_clean_linker_0, # of connection points: 2
#     Edge 30, Type (0, 0), BuildingBlock: AJUNOK_clean_linker_0, # of connection points: 2
#     Edge 31, Type (0, 0), BuildingBlock: AJUNOK_clean_linker_0, # of connection points: 2
#     Edge 32, Type (0, 0), BuildingBlock: AJUNOK_clean_linker_0, # of connection points: 2
#     Edge 33, Type (0, 0), BuildingBlock: AJUNOK_clean_linker_0, # of connection points: 2
#     Edge 34, Type (0, 0), BuildingBlock: AJUNOK_clean_linker_0, # of connection points: 2
#     Edge 35, Type (0, 0), BuildingBlock: AJUNOK_clean_linker_0, # of connection points: 2
#     Edge 36, Type (0, 0), BuildingBlock: AJUNOK_clean_linker_0, # of connection points: 2
#     Edge 37, Type (0, 0), BuildingBlock: AJUNOK_clean_linker_0, # of connection points: 2
#     Edge 38, Type (0, 0), BuildingBlock: AJUNOK_clean_linker_0, # of connection points: 2
#     Edge 39, Type (0, 0), BuildingBlock: AJUNOK_clean_linker_0, # of connection points: 2
#     Edge 40, Type (0, 0), BuildingBlock: AJUNOK_clean_linker_0, # of connection points: 2
#     Edge 41, Type (0, 0), BuildingBlock: AJUNOK_clean_linker_0, # of connection points: 2
#     Edge 42, Type (0, 0), BuildingBlock: AJUNOK_clean_linker_0, # of connection points: 2
#     Edge 43, Type (0, 0), BuildingBlock: AJUNOK_clean_linker_0, # of connection points: 2
#     Edge 44, Type (0, 0), BuildingBlock: AJUNOK_clean_linker_0, # of connection points: 2
#     Edge 45, Type (0, 0), BuildingBlock: AJUNOK_clean_linker_0, # of connection points: 2
#     Edge 46, Type (0, 0), BuildingBlock: AJUNOK_clean_linker_0, # of connection points: 2
#     Edge 47, Type (0, 0), BuildingBlock: AJUNOK_clean_linker_0, # of connection points: 2
# Relax obj value: 0.163
# Max RMSD: 0.109
# Mean RMSD: 0.107
data_MOF--net-ure--node1-KUFVIS_clean_sbu_0--edge1-AJUNOK_clean_linker_0
_symmetry_space_group_name_H-M    P1
_symmetry_Int_Tables_number       1
_symmetry_cell_setting            triclinic
loop_
_symmetry_equiv_pos_as_xyz
'x, y, z'
_cell_length_a     19.007209
_cell_length_b     25.45778
_cell_length_c     25.651735
_cell_angle_alpha  90.19411
_cell_angle_beta   89.099481
_cell_angle_gamma 89.675983
loop_
_atom_site_label
_atom_site_type_symbol
_atom_site_fract_x
_atom_site_fract_y
_atom_site_fract_z
_atom_type_partial_charge
Mn0 Mn 0.22813 0.28604 0.29917 0.0
Mn1 Mn 0.27082 0.30012 0.21795 0.0
C2 C 0.36318 0.28576 0.3014 0.0
C3 C 0.20896 0.27316 0.391 0.0
C4 C 0.18203 0.23434 0.18179 0.0
O5 O 0.15309 0.35073 0.28777 0.0
O6 O 0.21767 0.37244 0.22129 0.0
C7 C 0.36836 0.3723 0.16343 0.0
N8 N 0.33746 0.32519 0.16574 0.0
C9 C 0.42371 0.29411 0.09077 0.0
C10 C 0.42979 0.34763 0.07985 0.0
C11 C 0.41406 0.38379 0.12057 0.0
C12 C 0.37777 0.28643 0.14674 0.0
H13 H 0.36226 0.39877 0.19586 0.0
C14 C 0.16706 0.38646 0.25328 0.0
O15 O 0.17653 0.24523 0.35737 0.0
O16 O 0.24235 0.31256 0.37187 0.0
N17 N 0.32691 0.23435 0.21631 0.0
C18 C 0.31766 0.18645 0.24038 0.0
C19 C 0.37459 0.15377 0.25369 0.0
C20 C 0.4431 0.15983 0.23452 0.0
C21 C 0.45496 0.19859 0.1923 0.0
C22 C 0.38764 0.24499 0.19216 0.0
H23 H 0.26911 0.17672 0.2601 0.0
O24 O 0.32337 0.24836 0.31763 0.0
O25 O 0.32729 0.32029 0.27577 0.0
O26 O 0.18596 0.23299 0.23302 0.0
O27 O 0.21265 0.27338 0.16172 0.0
C28 C 0.52364 0.20552 0.10043 0.0
C29 C 0.48918 0.25599 0.06595 0.0
H30 H 0.46663 0.35925 0.04992 0.0
H31 H 0.44638 0.4167 0.12493 0.0
H32 H 0.36549 0.12288 0.28179 0.0
H33 H 0.45822 0.18198 0.20525 0.0
H34 H 0.5602 0.18091 0.08024 0.0
H35 H 0.51435 0.26669 0.02941 0.0
Mn36 Mn 0.06535 0.04961 0.53603 0.0
Mn37 Mn 1.02687 0.96925 0.54417 0.0
C38 C 0.93311 0.04946 0.53058 0.0
C39 C 0.08613 0.13942 0.52426 0.0
C40 C 0.12063 0.93894 0.47785 0.0
O41 O 0.13689 0.0381 0.60315 0.0
O42 O 0.0697 0.97391 0.61829 0.0
C43 C 0.91187 0.91108 0.60113 0.0
N44 N 0.96475 0.90942 0.56579 0.0
C45 C 0.89099 0.81271 0.53433 0.0
C46 C 0.86375 0.81777 0.58423 0.0
C47 C 0.86234 0.86964 0.60669 0.0
C48 C 0.95197 0.87718 0.52629 0.0
H49 H 0.90601 0.94584 0.62488 0.0
C50 C 0.11841 0.00291 0.63686 0.0
O51 O 0.1225 0.10495 0.49924 0.0
O52 O 0.04655 0.12246 0.56129 0.0
N53 N 0.97885 0.96822 0.47474 0.0
C54 C 0.94858 -0.0122 0.4301 0.0
C55 C 0.87763 0.9564 0.40417 0.0
C56 C 0.8062 0.89544 0.39738 0.0
C57 C 0.85961 0.9273 0.41181 0.0
C58 C 0.94581 0.92719 0.47212 0.0
H59 H 0.96966 0.02468 0.41482 0.0
O60 O 0.97533 0.06771 0.49535 0.0
O61 O 0.96518 0.02317 0.56572 0.0
O62 O 0.10943 -0.01036 0.4773 0.0
O63 O 0.09467 0.91673 0.51732 0.0
C64 C 0.79199 0.84106 0.41667 0.0
C65 C 0.81794 0.79054 0.47834 0.0
H66 H 0.81847 0.79377 0.59199 0.0
H67 H 0.81197 0.88264 0.62019 0.0
H68 H 0.88373 -0.00016 0.3804 0.0
H69 H 0.75375 0.89677 0.36942 0.0
H70 H 0.75229 0.81912 0.39376 0.0
H71 H 0.78519 0.75665 0.48539 0.0
Mn72 Mn 0.33926 0.68554 0.80057 0.0
Mn73 Mn 0.28698 0.65165 0.68957 0.0
C74 C 0.22074 0.70759 0.77593 0.0
C75 C 0.32242 0.67782 0.89497 0.0
C76 C 0.39673 0.74049 0.69302 0.0
O77 O 0.39612 0.60959 0.78912 0.0
O78 O 0.34928 0.59262 0.71203 0.0
C79 C 0.18817 0.55659 0.7188 0.0
N80 N 0.21005 0.59919 0.69234 0.0
C81 C 0.10171 0.57388 0.61844 0.0
C82 C 0.09953 0.52807 0.65078 0.0
C83 C 0.1373 0.52173 0.69827 0.0
C84 C 0.16543 0.61721 0.66041 0.0
H85 H 0.21016 0.54865 0.75611 0.0
C86 C 0.38536 0.57638 0.75077 0.0
O87 O 0.37192 0.7058 0.87433 0.0
O88 O 0.28882 0.65055 0.86185 0.0
N89 N 0.22641 0.71 0.67099 0.0
C90 C 0.20062 0.7595 0.66304 0.0
C91 C 0.11682 0.76558 0.63881 0.0
C92 C 0.04624 0.74196 0.58179 0.0
C93 C 0.09525 0.74455 0.62083 0.0
C94 C 0.16872 0.68944 0.6641 0.0
H95 H 0.23198 0.79208 0.67749 0.0
O96 O 0.2575 0.73996 0.8028 0.0
O97 O 0.25902 0.66869 0.75943 0.0
O98 O 0.39522 0.73948 0.7441 0.0
O99 O 0.36567 0.7026 0.67057 0.0
C100 C 1.01899 0.69298 0.55857 0.0
C101 C 1.02949 0.60911 0.56498 0.0
H102 H 0.06601 0.49558 0.64505 0.0
H103 H 0.12655 0.48702 0.72113 0.0
H104 H 0.12856 0.80525 0.66743 0.0
H105 H 1.00884 0.77282 0.55565 0.0
H106 H 0.97485 0.70083 0.52935 0.0
H107 H 0.98607 0.58743 0.54965 0.0
Mn108 Mn 0.52136 0.93893 0.0363 0.0
Mn109 Mn 0.55127 0.02748 0.04207 0.0
C110 C 0.65356 0.94934 0.04074 0.0
C111 C 0.50523 0.84141 0.02613 0.0
C112 C 0.45657 0.04675 0.973 0.0
O113 O 0.44867 0.95372 0.09925 0.0
O114 O 0.50154 0.02817 0.11263 0.0
C115 C 0.65344 0.11332 0.09412 0.0
N116 N 0.60938 0.09489 0.05692 0.0
C117 C 0.68093 0.18057 -0.00154 0.0
C118 C 0.69224 0.20067 0.04754 0.0
C119 C 0.69092 0.16344 0.08954 0.0
C120 C 0.63418 0.11114 0.01216 0.0
H121 H 0.66256 0.08867 0.12725 0.0
C122 C 0.4622 -0.00869 0.13153 0.0
O123 O 0.47016 0.87596 0.00108 0.0
O124 O 0.54301 0.86286 0.06148 0.0
N125 N 0.60275 0.0182 0.9743 0.0
C126 C 0.63164 -0.00899 0.93244 0.0
C127 C 0.71386 0.00883 0.90994 0.0
C128 C 0.78 0.06911 0.88459 0.0
C129 C 0.73188 0.03904 0.91111 0.0
C130 C 0.65168 0.04877 0.9767 0.0
H131 H 0.60641 0.95447 0.92078 0.0
O132 O 0.6189 0.92504 0.00613 0.0
O133 O 0.61311 0.97692 0.07076 0.0
O134 O 0.47156 -0.00399 0.97581 0.0
O135 O 0.4826 0.07348 0.00932 0.0
C136 C 0.78614 0.12764 0.88811 0.0
C137 C 0.75167 0.19153 0.93554 0.0
H138 H 0.72542 0.2349 0.05076 0.0
H139 H 0.73145 0.17017 0.11591 0.0
H140 H 0.70828 0.96082 0.89796 0.0
H141 H 0.83357 0.0634 0.85568 0.0
H142 H 0.81849 0.14533 0.856 0.0
H143 H 0.77711 0.22914 0.9308 0.0
Mn144 Mn 0.23349 0.72045 0.19982 0.0
Mn145 Mn 0.33629 0.69388 0.29592 0.0
C146 C 0.35818 0.73765 0.19312 0.0
C147 C 0.21476 0.69681 0.11039 0.0
C148 C 0.22126 0.7816 0.30722 0.0
O149 O 0.17847 0.6569 0.23189 0.0
O150 O 0.25833 0.63441 0.29251 0.0
C151 C 0.39458 0.59483 0.26958 0.0
N152 N 0.40829 0.64499 0.28052 0.0
C153 C 0.52109 0.62034 0.33201 0.0
C154 C 0.48515 0.57078 0.32848 0.0
C155 C 0.43227 0.55689 0.29417 0.0
C156 C 0.47065 0.6616 0.29941 0.0
H157 H 0.3471 0.58464 0.24978 0.0
C158 C 0.20344 0.62269 0.26396 0.0
O159 O 0.17652 0.73272 0.13289 0.0
O160 O 0.25348 0.67099 0.14133 0.0
N161 N 0.41187 0.74603 0.29476 0.0
C162 C 0.40492 0.79925 0.2959 0.0
C163 C 0.46334 0.83304 0.29562 0.0
C164 C 0.53329 0.8168 0.30262 0.0
C165 C 0.5475 0.76026 0.31242 0.0
C166 C 0.4762 0.72316 0.29267 0.0
H167 H 0.35345 0.81689 0.29328 0.0
O168 O 0.31325 0.7678 0.17072 0.0
O169 O 0.32765 0.70431 0.22319 0.0
O170 O 0.20176 0.77859 0.25897 0.0
O171 O 0.26701 0.74851 0.32305 0.0
C172 C 0.63455 0.69821 0.36693 0.0
C173 C 0.60037 0.63479 0.36554 0.0
H174 H 0.48408 0.5436 0.35812 0.0
H175 H 0.41449 0.51692 0.29283 0.0
H176 H 0.45332 0.87433 0.29053 0.0
H177 H 0.55048 0.78161 0.31163 0.0
H178 H 0.68153 0.70621 0.38967 0.0
H179 H 0.63079 0.60814 0.38826 0.0
Mn180 Mn 0.50492 0.02835 0.4805 0.0
Mn181 Mn 0.62407 0.94575 0.44114 0.0
C182 C 0.62559 0.03116 0.51309 0.0
C183 C 0.51708 0.12475 0.453 0.0
C184 C 0.50721 0.91331 0.5298 0.0
O185 O 0.45482 0.00869 0.40821 0.0
O186 O 0.54252 0.95552 0.38845 0.0
C187 C 0.66563 0.00886 0.34485 0.0
N188 N 0.68555 -0.01457 0.38973 0.0
C189 C 0.80737 0.9545 0.33003 0.0
C190 C 0.76375 0.96976 0.29058 0.0
C191 C 0.70411 0.00192 0.29756 0.0
C192 C 0.75402 0.97687 0.39513 0.0
H193 H 0.61389 0.02627 0.34303 0.0
C194 C 0.48631 0.97947 0.37386 0.0
O195 O 0.47247 0.10858 0.48591 0.0
O196 O 0.55026 0.08705 0.43378 0.0
N197 N 0.70729 0.93412 0.4858 0.0
C198 C 0.73087 0.88843 0.50834 0.0
C199 C 0.82125 0.87979 0.50205 0.0
C200 C 0.89759 0.84985 0.45224 0.0
C201 C 0.84683 0.8818 0.47945 0.0
C202 C 0.7664 0.94848 0.46285 0.0
H203 H 0.69244 0.85581 0.50207 0.0
O204 O 0.57428 0.0483 0.54118 0.0
O205 O 0.60418 0.01201 0.47089 0.0
O206 O 0.47524 0.9588 0.52612 0.0
O207 O 0.56164 0.9048 0.49843 0.0
C208 C 0.91325 0.85398 0.39744 0.0
C209 C 0.88401 0.89441 0.32987 0.0
H210 H 0.76086 0.94699 0.25718 0.0
H211 H 0.6783 0.0122 0.2621 0.0
H212 H 0.7768 0.86887 0.53902 0.0
H213 H 0.94367 0.81495 0.46295 0.0
H214 H 0.95872 0.82695 0.38372 0.0
H215 H 0.91164 0.88266 0.29494 0.0
Mn216 Mn 0.29296 0.23579 0.69183 0.0
Mn217 Mn 0.20247 0.27552 0.79297 0.0
C218 C 0.16117 0.22496 0.68951 0.0
C219 C 0.31376 0.24845 0.60017 0.0
C220 C 0.3132 0.18278 0.80082 0.0
O221 O 0.36234 0.29783 0.71884 0.0
O222 O 0.28049 0.32806 0.77359 0.0
C223 C 0.1172 0.36063 0.7513 0.0
N224 N 0.12792 0.32432 0.78878 0.0
C225 C 1.02387 0.35 0.83774 0.0
C226 C 1.01097 0.38538 0.79705 0.0
C227 C 0.05675 0.39135 0.7543 0.0
C228 C 0.08298 0.31718 0.83124 0.0
H229 H 0.15365 0.36407 0.71899 0.0
C230 C 0.34017 0.33489 0.75013 0.0
O231 O 0.34563 0.21123 0.62453 0.0
O232 O 0.28076 0.28072 0.63004 0.0
N233 N 0.12629 0.23282 0.81069 0.0
C234 C 0.11413 0.18127 0.78042 0.0
C235 C 0.04339 0.14567 0.79077 0.0
C236 C 0.96582 0.18781 0.866 0.0
C237 C 1.00488 0.24704 0.88197 0.0
C238 C 0.08178 0.26568 0.85094 0.0
H239 H 0.15712 0.16269 0.75955 0.0
O240 O 0.20494 0.19229 0.6683 0.0
O241 O 0.19577 0.25858 0.71779 0.0
O242 O 0.32195 0.17874 0.75091 0.0
O243 O 0.27368 0.22034 0.81778 0.0
C244 C 0.95847 0.28767 0.89366 0.0
C245 C 0.96855 0.33787 0.87291 0.0
H246 H 0.95984 0.40247 0.79508 0.0
H247 H 0.04355 0.41765 0.72286 0.0
H248 H 0.03802 0.11132 0.76638 0.0
H249 H 0.91656 0.1763 0.88441 0.0
H250 H 0.90664 0.2784 0.90903 0.0
H251 H 0.92465 0.36484 0.87623 0.0
Mn252 Mn 0.07541 0.94551 -0.00525 0.0
Mn253 Mn 0.96997 0.03029 0.9426 0.0
C254 C 0.96015 0.96523 0.03213 0.0
C255 C 0.07305 0.85305 0.00292 0.0
C256 C 0.08198 0.06108 0.02921 0.0
O257 O 0.1328 0.95059 0.91845 0.0
O258 O 0.05377 0.00662 0.89562 0.0
C259 C 0.92549 0.94361 0.86319 0.0
N260 N 0.90939 0.98311 0.89795 0.0
C261 C 0.78601 -0.00804 0.83777 0.0
C262 C 0.81015 0.94736 0.81243 0.0
C263 C 0.87566 0.92337 0.82626 0.0
C264 C 0.8419 -0.00588 0.90299 0.0
H265 H 0.97769 0.92656 0.86323 0.0
C266 C 0.10937 0.98086 0.88196 0.0
O267 O 0.12347 0.87938 0.02364 0.0
O268 O 0.03524 0.87845 0.97131 0.0
N269 N 0.88353 0.05693 0.98083 0.0
C270 C 0.85303 0.10383 -0.00395 0.0
C271 C 0.76345 0.11357 -0.01409 0.0
C272 C 0.6833 0.12018 0.93126 0.0
C273 C 0.74009 0.10356 0.96218 0.0
C274 C 0.82718 0.04035 0.96017 0.0
H275 H 0.88825 0.13276 0.01361 0.0
O276 O 1.00708 0.94274 0.05935 0.0
O277 O 0.98177 0.97282 -0.01428 0.0
O278 O 0.1126 0.0154 0.02873 0.0
O279 O 0.03212 0.07226 -0.00431 0.0
C280 C 0.66823 0.10092 0.879 0.0
C281 C 0.70123 0.0432 0.82446 0.0
H282 H 0.77701 0.92812 0.78631 0.0
H283 H 0.89117 0.88858 0.80461 0.0
H284 H 0.78571 0.13823 0.02559 0.0
H285 H 0.62878 0.15024 0.93498 0.0
H286 H 0.6202 0.12141 0.86075 0.0
H287 H 0.66434 0.03427 0.7954 0.0
Mn288 Mn 0.72178 0.19709 0.66527 0.0
Mn289 Mn 0.79446 0.15978 0.76966 0.0
C290 C 0.84363 0.21784 0.67568 0.0
C291 C 0.73691 0.20103 0.57288 0.0
C292 C 0.67582 0.24712 0.77716 0.0
O293 O 0.67271 0.12037 0.67338 0.0
O294 O 0.72703 0.10162 0.74763 0.0
C295 C 0.86892 0.05706 0.76048 0.0
N296 N 0.86797 0.10825 0.77143 0.0
C297 C 0.96638 0.09275 0.8406 0.0
C298 C 0.968 0.0424 0.8164 0.0
C299 C 0.92469 0.02628 0.77574 0.0
C300 C 0.91909 0.12859 0.79954 0.0
H301 H 0.82543 0.03947 0.74432 0.0
C302 C 0.69057 0.08567 0.70827 0.0
O303 O 0.6867 0.22659 0.5961 0.0
O304 O 0.76594 0.16579 0.60056 0.0
N305 N 0.86557 0.21053 0.78039 0.0
C306 C 0.86012 0.26327 0.77501 0.0
C307 C 0.9196 0.29344 0.76511 0.0
C308 C 0.98881 0.27497 0.76996 0.0
C309 C 1.00043 0.22371 0.79353 0.0
C310 C 0.92809 0.18619 0.78037 0.0
H311 H 0.80988 0.28065 0.7669 0.0
O312 O 0.80073 0.25298 0.6591 0.0
O313 O 0.81135 0.17767 0.69615 0.0
O314 O 0.66594 0.24477 0.72702 0.0
O315 O 0.72113 0.2146 0.79461 0.0
C316 C 0.07643 0.17228 0.86656 0.0
C317 C 0.03762 0.11292 0.8765 0.0
H318 H 1.00891 0.01544 0.82025 0.0
H319 H 0.93183 -0.01217 0.75826 0.0
H320 H 0.91261 0.33186 0.74919 0.0
H321 H 1.00696 0.24367 0.78794 0.0
H322 H 0.12165 0.18347 0.88991 0.0
H323 H 0.06401 0.09035 0.90487 0.0
Mn324 Mn 0.98668 0.55713 0.92729 0.0
Mn325 Mn 0.03411 0.47605 0.91846 0.0
C326 C 0.11654 0.5628 0.93689 0.0
C327 C 0.97829 0.65208 0.93405 0.0
C328 C 0.94478 0.44084 -0.01294 0.0
O329 O 0.92307 0.54139 0.85702 0.0
O330 O 0.98922 0.47373 0.84576 0.0
C331 C 0.14849 0.42466 0.84965 0.0
N332 N 0.10246 0.42298 0.8902 0.0
C333 C 0.18449 0.32831 0.91742 0.0
C334 C 0.21685 0.33821 0.86973 0.0
C335 C 0.20601 0.38819 0.84381 0.0
C336 C 0.12061 0.39165 0.92763 0.0
H337 H 0.14293 0.45578 0.82147 0.0
C338 C 0.94263 0.50371 0.8255 0.0
O339 O 0.93869 0.62138 0.96104 0.0
O340 O 1.00926 0.62874 0.89567 0.0
N341 N 0.08394 0.47736 -0.01354 0.0
C342 C 0.11252 0.49475 0.03252 0.0
C343 C 0.18324 0.46273 0.05855 0.0
C344 C 0.25221 0.39999 0.06568 0.0
C345 C 0.20126 0.43353 0.05036 0.0
C346 C 0.12129 0.43826 -0.01433 0.0
H347 H 0.09279 0.53202 0.04772 0.0
O348 O 0.07182 0.57723 0.97213 0.0
O349 O 0.08789 0.53603 0.89985 0.0
O350 O 0.94635 0.49296 -0.01424 0.0
O351 O 0.97493 0.4199 0.94768 0.0
C352 C 0.27032 0.34756 0.04214 0.0
C353 C 0.25296 0.3029 0.97487 0.0
H354 H 0.26483 0.31637 0.86251 0.0
H355 H 0.24424 0.40012 0.81612 0.0
H356 H 0.17959 0.50671 0.08211 0.0
H357 H 0.29937 0.39841 0.09721 0.0
H358 H 0.30196 0.32179 0.06852 0.0
H359 H 0.28595 0.26888 0.96741 0.0
Mn360 Mn 0.80185 0.78338 0.16762 0.0
Mn361 Mn 0.77141 0.79111 0.25126 0.0
C362 C 0.67195 0.76688 0.17847 0.0
C363 C 0.79838 0.77894 0.07253 0.0
C364 C 0.87364 0.73211 0.27876 0.0
O365 O 0.86448 0.85363 0.16937 0.0
O366 O 0.81236 0.86631 0.24328 0.0
C367 C 0.67892 0.86335 0.30447 0.0
N368 N 0.70991 0.81634 0.30482 0.0
C369 C 0.62316 0.79292 0.38083 0.0
C370 C 0.62047 0.84643 0.38945 0.0
C371 C 0.63894 0.87912 0.34756 0.0
C372 C 0.67179 0.77905 0.32711 0.0
H373 H 0.68502 0.88845 0.2713 0.0
C374 C 0.85039 0.88632 0.20617 0.0
O375 O 0.84278 0.75289 0.0997 0.0
O376 O 0.76255 0.81257 0.09911 0.0
N377 N 0.72417 0.72248 0.26096 0.0
C378 C 0.7369 0.67327 0.24093 0.0
C379 C 0.68447 0.63485 0.23747 0.0
C380 C 0.61577 0.63985 0.25764 0.0
C381 C 0.59582 0.68646 0.28896 0.0
C382 C 0.66383 0.73274 0.28577 0.0
H383 H 0.78477 0.6645 0.21961 0.0
O384 O 0.71813 0.73311 0.16289 0.0
O385 O 0.70231 0.80678 0.19942 0.0
O386 O 0.86285 0.73209 0.22774 0.0
O387 O 0.84142 0.76896 0.30246 0.0
C388 C 0.52268 0.70601 0.37469 0.0
C389 C 0.55463 0.75942 0.40527 0.0
H390 H 0.58671 0.86157 0.41977 0.0
H391 H 0.62568 0.91765 0.34698 0.0
H392 H 0.69733 0.59937 0.21597 0.0
H393 H 0.59482 0.6678 0.27992 0.0
H394 H 0.51065 0.68117 0.40631 0.0
H395 H 0.52847 0.77306 0.44048 0.0
Mn396 Mn 0.99326 0.44245 0.46896 0.0
Mn397 Mn 0.09559 0.52318 0.51937 0.0
C398 C 0.12723 0.44179 0.44324 0.0
C399 C 0.99449 0.34902 0.48099 0.0
C400 C 0.98404 0.55523 0.429 0.0
O401 O 0.92767 0.45713 0.54048 0.0
O402 O 1.01569 0.5016 0.56932 0.0
C403 C 0.15496 0.43946 0.5955 0.0
N404 N 0.16234 0.48309 0.56495 0.0
C405 C 0.29031 0.49538 0.62211 0.0
C406 C 0.27702 0.44346 0.63584 0.0
C407 C 0.21158 0.41854 0.62567 0.0
C408 C 0.22583 0.50262 0.56168 0.0
H409 H 0.10558 0.4187 0.59527 0.0
C410 C 0.95654 0.48005 0.58018 0.0
O411 O 0.95891 0.36833 0.44387 0.0
O412 O 1.01948 0.38316 0.51061 0.0
N413 N 0.17385 0.55038 0.47774 0.0
C414 C 0.16756 0.58522 0.43787 0.0
C415 C 0.21569 0.62564 0.42667 0.0
C416 C 0.27868 0.63556 0.4522 0.0
C417 C 0.30808 0.5991 0.48917 0.0
C418 C 0.23318 0.54743 0.50399 0.0
H419 H 0.12174 0.58455 0.41394 0.0
O420 O 0.07936 0.42453 0.41357 0.0
O421 O 0.09397 0.45938 0.48292 0.0
O422 O 0.96338 0.50753 0.4224 0.0
O423 O 1.02786 0.56434 0.46697 0.0
C424 C 0.41664 0.59532 0.57628 0.0
C425 C 0.38297 0.53901 0.62986 0.0
H426 H 0.32065 0.41912 0.6472 0.0
H427 H 0.20519 0.37958 0.64113 0.0
H428 H 0.20123 0.6534 0.39677 0.0
H429 H 0.30246 0.61203 0.47838 0.0
H430 H 0.46322 0.61921 0.58201 0.0
H431 H 0.4222 0.52608 0.65677 0.0
Mn432 Mn 0.54572 0.53548 0.97595 0.0
Mn433 Mn 0.43974 0.4509 0.03146 0.0
C434 C 0.42366 0.53634 0.95985 0.0
C435 C 0.55933 0.62748 0.9598 0.0
C436 C 0.55158 0.41628 0.94014 0.0
O437 O 0.60047 0.5231 0.04926 0.0
O438 O 0.5248 0.46313 0.081 0.0
C439 C 0.39002 0.50237 0.13517 0.0
N440 N 0.37422 0.48676 0.08593 0.0
C441 C 0.24388 0.45503 0.13685 0.0
C442 C 0.27558 0.47431 0.18108 0.0
C443 C 0.34277 0.49837 0.1788 0.0
C444 C 0.30591 0.47967 0.07671 0.0
H445 H 0.4434 0.51211 0.14339 0.0
C446 C 0.58009 0.49221 0.0874 0.0
O447 O 0.60317 0.59408 0.93901 0.0
O448 O 0.52225 0.60831 -0.00301 0.0
N449 N 0.35951 0.44099 -0.01443 0.0
C450 C 0.3367 0.40136 0.95385 0.0
C451 C 0.24629 0.39423 0.95771 0.0
C452 C 0.16819 0.35928 0.00187 0.0
C453 C 0.22072 0.39257 0.98035 0.0
C454 C 0.30029 0.4557 0.00695 0.0
H455 H 0.373 0.36719 0.9514 0.0
O456 O 0.46791 0.54605 0.92258 0.0
O457 O 0.45246 0.51819 0.00099 0.0
O458 O 0.57835 0.46285 0.93876 0.0
O459 O 0.50067 0.40834 0.97414 0.0
C460 C 0.14623 0.36004 0.05578 0.0
C461 C 0.16691 0.39596 0.12774 0.0
H462 H 0.25513 0.46714 0.21872 0.0
H463 H 0.36524 0.50671 0.21575 0.0
H464 H 0.28861 0.39547 0.91783 0.0
H465 H 0.1228 0.32728 -0.0147 0.0
H466 H 0.09886 0.33275 0.06442 0.0
H467 H 0.13297 0.38309 0.15881 0.0
Mn468 Mn 0.77879 0.73681 0.77059 0.0
Mn469 Mn 0.86961 0.7705 0.67243 0.0
C470 C 0.90317 0.71738 0.7688 0.0
C471 C 0.7591 0.73577 0.85706 0.0
C472 C 0.75301 0.6856 0.66221 0.0
O473 O 0.72038 0.80856 0.74743 0.0
O474 O 0.80101 0.8311 0.68812 0.0
C475 C 0.97237 0.86862 0.68936 0.0
N476 N 0.95142 0.82084 0.67325 0.0
C477 C 0.06386 0.83162 0.59257 0.0
C478 C 0.07879 0.87581 0.62303 0.0
C479 C 0.03684 0.89099 0.66971 0.0
C480 C 0.99502 0.79767 0.64115 0.0
H481 H 0.94131 0.88958 0.71841 0.0
C482 C 0.7454 0.84369 0.71483 0.0
O483 O 0.71551 0.71168 0.82704 0.0
O484 O 0.80172 0.76953 0.8368 0.0
N485 N 0.93213 0.70989 0.66532 0.0
C486 C 0.95836 0.65999 0.66905 0.0
C487 C 0.04487 0.64805 0.64998 0.0
C488 C 0.11951 0.65975 0.59043 0.0
C489 C 0.06789 0.6652 0.6284 0.0
C490 C 0.99152 0.72794 0.65882 0.0
H491 H 0.92798 0.63311 0.69281 0.0
O492 O 0.85929 0.68408 0.78848 0.0
O493 O 0.87195 0.75579 0.74513 0.0
O494 O 0.73975 0.68508 0.71114 0.0
O495 O 0.79523 0.72057 0.64602 0.0
C496 C 0.14844 0.70314 0.55825 0.0
C497 C 0.13789 0.78662 0.54778 0.0
H498 H 0.12948 0.89361 0.61579 0.0
H499 H 0.05219 0.9237 0.69276 0.0
H500 H 0.03793 0.61403 0.68615 0.0
H501 H 0.15914 0.62437 0.57156 0.0
H502 H 0.19276 0.6893 0.53048 0.0
H503 H 0.17677 0.80666 0.52418 0.0
Mn504 Mn 0.80524 0.24145 0.27872 0.0
Mn505 Mn 0.7106 0.20766 0.18055 0.0
C506 C 0.68155 0.26929 0.27535 0.0
C507 C 0.83206 0.23735 0.3681 0.0
C508 C 0.83106 0.29154 0.16559 0.0
O509 O 0.85363 0.16454 0.25634 0.0
O510 O 0.78202 0.14817 0.19058 0.0
C511 C 0.6436 0.11409 0.22631 0.0
N512 N 0.63951 0.15895 0.19915 0.0
C513 C 0.52497 0.12787 0.1553 0.0
C514 C 0.53125 0.08671 0.19054 0.0
C515 C 0.58574 0.08114 0.22677 0.0
C516 C 0.57916 0.17343 0.17786 0.0
H517 H 0.68797 0.10657 0.25104 0.0
C518 C 0.82999 0.13164 0.22122 0.0
O519 O 0.87319 0.26177 0.33572 0.0
O520 O 0.78154 0.21092 0.34803 0.0
N521 N 0.6365 0.25814 0.17159 0.0
C522 C 0.64239 0.30811 0.15425 0.0
C523 C 0.58332 0.34055 0.15411 0.0
C524 C 0.5171 0.32019 0.16445 0.0
C525 C 0.50289 0.26677 0.15736 0.0
C526 C 0.5728 0.23552 0.17773 0.0
H527 H 0.69274 0.32403 0.14382 0.0
O528 O 0.7282 0.2984 0.29731 0.0
O529 O 0.71111 0.229 0.25251 0.0
O530 O 0.84683 0.28948 0.21444 0.0
O531 O 0.78364 0.25956 0.1497 0.0
C532 C 0.41257 0.20067 0.11448 0.0
C533 C 0.44608 0.13755 0.12302 0.0
H534 H 0.48198 0.07108 0.20111 0.0
H535 H 0.57965 0.05498 0.25888 0.0
H536 H 0.58821 0.38224 0.15008 0.0
H537 H 0.48254 0.344 0.18647 0.0
H538 H 0.36281 0.20654 0.09443 0.0
H539 H 0.41304 0.10454 0.11365 0.0
Mn540 Mn 0.57094 0.43571 0.42113 0.0
Mn541 Mn 0.52429 0.53045 0.43124 0.0
C542 C 0.44437 0.43671 0.43141 0.0
C543 C 0.58956 0.34378 0.40884 0.0
C544 C 0.6233 0.54277 0.49555 0.0
O545 O 0.63092 0.45398 0.35309 0.0
O546 O 0.59258 0.5329 0.3614 0.0
C547 C 0.41062 0.62546 0.40094 0.0
N548 N 0.46119 0.60055 0.43098 0.0
C549 C 0.40643 0.66307 0.50139 0.0
C550 C 0.40049 0.70004 0.46152 0.0
C551 C 0.3905 0.67902 0.41117 0.0
C552 C 0.44032 0.61021 0.48046 0.0
H553 H 0.38041 0.60457 0.37277 0.0
C554 C 0.61862 0.49728 0.33023 0.0
O555 O 0.62812 0.37108 0.43927 0.0
O556 O 0.54677 0.37094 0.38149 0.0
N557 N 0.4633 0.52148 0.49224 0.0
C558 C 0.43228 0.48701 0.52589 0.0
C559 C 0.35132 0.50622 0.54508 0.0
C560 C 0.30067 0.57195 0.57465 0.0
C561 C 0.34053 0.54357 0.5455 0.0
C562 C 0.41753 0.55876 0.49495 0.0
H563 H 0.45586 0.45023 0.53764 0.0
O564 O 0.48601 0.41246 0.46271 0.0
O565 O 0.47463 0.47142 0.4019 0.0
O566 O 0.61921 0.49207 0.48288 0.0
O567 O 0.58644 0.57377 0.4695 0.0
C568 C 0.3061 0.62097 0.57293 0.0
C569 C 0.34887 0.66993 0.54658 0.0
H570 H 0.37951 0.73868 0.47005 0.0
H571 H 0.35985 0.70085 0.38352 0.0
H572 H 0.34762 0.46034 0.55401 0.0
H573 H 0.24568 0.56851 0.60839 0.0
H574 H 0.26951 0.64771 0.60013 0.0
H575 H 0.33052 0.70938 0.55564 0.0
C576 C 0.13878 0.13606 0.16041 0.0
C577 C 0.15277 0.18895 0.14469 0.0
C578 C 0.11737 0.09489 0.12438 0.0
C579 C 0.10616 0.10357 0.06992 0.0
H580 H 0.14582 0.12576 0.20091 0.0
H581 H 0.10866 0.05589 0.13977 0.0
S582 S 0.13562 0.22918 0.00577 0.0
N583 N 0.15616 0.24279 0.06667 0.0
N584 N 0.11131 0.16802 0.00372 0.0
C585 C 0.11875 0.15507 0.05439 0.0
C586 C 0.143 0.19635 0.08988 0.0
C587 C 0.10963 0.89283 0.38509 0.0
C588 C 0.14941 0.90458 0.4306 0.0
C589 C 0.13214 0.85522 0.34528 0.0
C590 C 0.19601 0.82551 0.34796 0.0
H591 H 0.05914 0.91201 0.38056 0.0
H592 H 0.09778 0.84847 0.31271 0.0
S593 S 0.32306 0.84315 0.4568 0.0
N594 N 0.25826 0.88362 0.47313 0.0
N595 N 0.29989 0.8151 0.40157 0.0
C596 C 0.23639 0.838 0.39309 0.0
C597 C 0.21355 0.87624 0.43303 0.0
C598 C 0.4321 0.87906 0.61521 0.0
C599 C 0.48134 0.86911 0.5728 0.0
C600 C 0.40906 0.84013 0.65426 0.0
C601 C 0.43168 0.78602 0.65566 0.0
H602 H 0.41018 0.91826 0.61866 0.0
H603 H 0.37067 0.85282 0.68326 0.0
S604 S 0.561 0.73492 0.55584 0.0
N605 N 0.55288 0.79715 0.53868 0.0
N606 N 0.50829 0.72659 0.60694 0.0
C607 C 0.4804 0.77542 0.61333 0.0
C608 C 0.50527 0.81533 0.5744 0.0
C609 C 0.40038 0.13216 0.93275 0.0
C610 C 0.41759 0.07756 0.92705 0.0
C611 C 0.36788 0.16393 0.89301 0.0
C612 C 0.35036 0.14521 0.84235 0.0
H613 H 0.41213 0.15143 0.96926 0.0
H614 H 0.35706 0.20472 0.90236 0.0
S615 S 0.37834 0.00474 0.80427 0.0
N616 N 0.40952 0.0064 0.8641 0.0
N617 N 0.35142 0.065 0.79081 0.0
C618 C 0.3667 0.09054 0.83567 0.0
C619 C 0.39897 0.0576 0.87689 0.0
C620 C 0.56851 0.29519 0.83337 0.0
C621 C 0.64154 0.29089 0.81762 0.0
C622 C 0.54043 0.33237 0.87299 0.0
C623 C 0.58173 0.3708 0.90032 0.0
H624 H 0.53164 0.26883 0.81524 0.0
H625 H 0.48432 0.3319 0.8809 0.0
S626 S 0.77646 0.37556 0.88141 0.0
N627 N 0.75405 0.32827 0.84091 0.0
N628 N 0.70273 0.3972 0.90868 0.0
C629 C 0.65437 0.36611 0.8857 0.0
C630 C 0.6832 0.32724 0.84712 0.0
C631 C 0.89701 0.42191 0.086 0.0
C632 C 0.91898 0.40392 0.03531 0.0
C633 C 0.87673 0.38692 0.1289 0.0
C634 C 0.86745 0.33095 0.12395 0.0
H635 H 0.89848 0.46369 0.09381 0.0
H636 H 0.8706 0.40471 0.16675 0.0
S637 S 0.95005 0.25977 0.01322 0.0
N638 N 0.9583 0.32192 -0.00439 0.0
N639 N 0.90472 0.26023 0.06824 0.0
C640 C 0.89502 0.31257 0.07573 0.0
C641 C 0.92322 0.34739 0.03428 0.0
C642 C 0.9072 0.59239 0.35013 0.0
C643 C 0.95808 0.6008 0.39 0.0
C644 C 0.88368 0.63245 0.31367 0.0
C645 C 0.9088 0.68549 0.31252 0.0
H646 H 0.88398 0.5538 0.34703 0.0
H647 H 0.84372 0.62109 0.28657 0.0
S648 S 0.04887 0.7298 0.40335 0.0
N649 N 0.03501 0.6688 0.42235 0.0
N650 N 0.99503 0.74036 0.35446 0.0
C651 C 0.96139 0.69378 0.35112 0.0
C652 C 0.98467 0.65324 0.38879 0.0
C653 C 0.63288 0.5777 0.59209 0.0
C654 C 0.66445 0.56862 0.54184 0.0
C655 C 0.66126 0.61329 0.63069 0.0
C656 C 0.72248 0.64448 0.62176 0.0
H657 H 0.58366 0.55835 0.60128 0.0
H658 H 0.63307 0.61766 0.66746 0.0
S659 S 0.8266 0.63769 0.49693 0.0
N660 N 0.76185 0.59609 0.48673 0.0
N661 N 0.81387 0.66106 0.5565 0.0
C662 C 0.7545 0.63546 0.57166 0.0
C663 C 0.72602 0.59891 0.53289 0.0
C664 C 0.22921 0.29989 0.48005 0.0
C665 C 0.22128 0.25797 0.44634 0.0
C666 C 0.27201 0.29743 0.52393 0.0
C667 C 0.29683 0.24933 0.54319 0.0
H668 H 0.20028 0.33467 0.47114 0.0
H669 H 0.27723 0.3325 0.5474 0.0
S670 S 0.28289 0.12202 0.47298 0.0
N671 N 0.24375 0.16438 0.43392 0.0
N672 N 0.30649 0.15547 0.52527 0.0
C673 C 0.28361 0.20422 0.5124 0.0
C674 C 0.24779 0.20882 0.463 0.0
C675 C 0.13304 0.03482 0.79323 0.0
C676 C 0.13755 -0.01368 0.82088 0.0
C677 C 0.13526 0.04085 0.73663 0.0
C678 C 0.14071 -0.0009 0.69937 0.0
H679 H 0.12979 0.06981 0.81646 0.0
H680 H 0.1378 0.07994 0.72282 0.0
S681 S 0.23909 0.88242 0.74877 0.0
N682 N 0.20592 0.90726 0.80368 0.0
N683 N 0.20652 0.91722 0.70044 0.0
C684 C 0.16802 0.95384 0.72679 0.0
C685 C 0.16714 0.94784 0.78543 0.0
C686 C 0.22244 0.68313 0.96172 0.0
C687 C 0.29531 0.68443 0.95027 0.0
C688 C 0.19422 0.6913 0.01264 0.0
C689 C 0.23879 0.69874 0.05482 0.0
H690 H 0.18751 0.67049 0.93177 0.0
H691 H 0.13834 0.68681 0.01967 0.0
S692 S 0.43146 0.68364 0.05126 0.0
N693 N 0.40865 0.67822 -0.01027 0.0
N694 N 0.35901 0.69762 0.0834 0.0
C695 C 0.31159 0.6973 0.04448 0.0
C696 C 0.33932 0.68881 -0.00696 0.0
C697 C 0.52392 0.96673 0.27594 0.0
C698 C 0.46942 0.97928 0.31259 0.0
C699 C 0.51955 0.97179 0.22075 0.0
C700 C 0.45687 0.98334 0.1936 0.0
H701 H 0.57447 0.95608 0.289 0.0
H702 H 0.56773 0.96587 0.19821 0.0
S703 S 0.29042 0.01697 0.26633 0.0
N704 N 0.34599 0.00556 0.3141 0.0
N705 N 0.33457 0.00761 0.21091 0.0
C706 C 0.39879 -0.00615 0.22877 0.0
C707 C 0.40533 -0.00707 0.28677 0.0
C708 C 0.48409 0.23672 0.3122 0.0
C709 C 0.44489 0.28286 0.30099 0.0
C710 C 0.55869 0.23233 0.30291 0.0
C711 C 0.60062 0.27528 0.28604 0.0
H712 H 0.45666 0.20286 0.32739 0.0
H713 H 0.58393 0.19486 0.31 0.0
S714 S 0.52543 0.40898 0.26629 0.0
N715 N 0.4559 0.37395 0.2806 0.0
N716 N 0.59414 0.36878 0.26834 0.0
C717 C 0.56243 0.3231 0.28093 0.0
C718 C 0.48603 0.32627 0.28761 0.0
C719 C 1.0066 0.25344 0.45151 0.0
C720 C 1.01937 0.29433 0.48693 0.0
C721 C 0.03315 0.20241 0.46106 0.0
C722 C 0.07538 0.1925 0.50471 0.0
H723 H 0.97608 0.26073 0.4171 0.0
H724 H 1.01902 0.17043 0.43541 0.0
S725 S 0.14721 0.29091 0.59233 0.0
N726 N 0.09087 0.32309 0.55847 0.0
N727 N 0.14355 0.22934 0.57293 0.0
C728 C 0.09483 0.23406 0.53552 0.0
C729 C 0.06649 0.28453 0.52731 0.0
C730 C 1.02138 0.66701 0.78141 0.0
C731 C 0.98343 0.71439 0.77555 0.0
C732 C 0.09671 0.66455 0.77887 0.0
C733 C 0.13894 0.71009 0.77276 0.0
H734 H 0.99221 0.63191 0.7893 0.0
H735 H 0.12193 0.62693 0.78455 0.0
S736 S 0.06518 0.84456 0.78726 0.0
N737 N 0.99467 0.8076 0.78541 0.0
N738 N 0.13271 0.80491 0.77617 0.0
C739 C 0.10042 0.75804 0.77219 0.0
C740 C 1.02432 0.7599 0.77601 0.0
C741 C 0.51716 0.71957 0.93233 0.0
C742 C 0.56506 0.68592 0.95765 0.0
C743 C 0.49436 0.7684 0.95549 0.0
C744 C 0.51837 0.78512 0.00527 0.0
H745 H 0.49434 0.7064 0.89644 0.0
H746 H 0.45775 0.79281 0.93443 0.0
S747 S 0.65458 0.71111 0.07535 0.0
N748 N 0.64549 0.67576 0.02418 0.0
N749 N 0.60113 0.76235 0.07235 0.0
C750 C 0.56994 0.75176 0.02715 0.0
C751 C 0.59517 0.70494 0.00137 0.0
C752 C 0.55951 0.70589 0.17467 0.0
C753 C 0.59147 0.75623 0.18024 0.0
C754 C 0.48493 0.69824 0.17874 0.0
C755 C 0.4378 0.74132 0.18337 0.0
H756 H 0.59197 0.67188 0.16672 0.0
H757 H 0.46443 0.65868 0.17768 0.0
S758 S 0.49069 0.87537 0.1671 0.0
N759 N 0.56714 0.8472 0.17359 0.0
N760 N 0.42791 0.8329 0.17198 0.0
C761 C 0.46851 0.79021 0.1782 0.0
C762 C 0.54401 0.79783 0.17903 0.0
C763 C 0.60644 0.19588 0.43358 0.0
C764 C 0.53571 0.18081 0.44227 0.0
C765 C 0.62505 0.24834 0.42241 0.0
C766 C 0.57366 0.28776 0.41974 0.0
H767 H 0.64791 0.16724 0.43542 0.0
H768 H 0.67909 0.25767 0.41391 0.0
S769 S 0.38346 0.26913 0.43085 0.0
N770 N 0.41494 0.20974 0.44131 0.0
N771 N 0.45033 0.30829 0.42325 0.0
C772 C 0.50361 0.27327 0.42795 0.0
C773 C 0.48451 0.22004 0.43859 0.0
C774 C 0.03672 0.26934 0.66956 0.0
C775 C 0.07913 0.22364 0.67805 0.0
C776 C 0.96243 0.26737 0.65998 0.0
C777 C 0.924 0.22029 0.6665 0.0
H778 H 0.05969 0.3078 0.67286 0.0
H779 H 0.93414 0.30406 0.65536 0.0
S780 S 1.00514 0.08897 0.66439 0.0
N781 N 0.07338 0.12903 0.66694 0.0
N782 N 0.93501 0.12659 0.66394 0.0
C783 C 0.96514 0.17465 0.66663 0.0
C784 C 0.04137 0.17624 0.66972 0.0
C785 C 1.01325 0.76864 0.02711 0.0
C786 C 0.06743 0.79582 0.00106 0.0
C787 C 0.98749 0.72078 0.00683 0.0
C788 C 1.00666 0.70287 0.95618 0.0
H789 H 0.99025 0.78465 0.06268 0.0
H790 H 0.95358 0.69768 0.03148 0.0
S791 S 0.15527 0.75921 0.88106 0.0
N792 N 0.1501 0.7972 0.93168 0.0
N793 N 0.09161 0.71543 0.88572 0.0
C794 C 0.06252 0.73011 0.93171 0.0
C795 C 0.09459 0.77437 0.95601 0.0
C796 C 0.14381 0.47891 0.30445 0.0
C797 C 0.14026 0.44819 0.25799 0.0
C798 C 0.17132 0.53148 0.30667 0.0
C799 C 0.1725 0.56493 0.26304 0.0
H800 H 0.12851 0.46152 0.34027 0.0
H801 H 0.18755 0.54678 0.34366 0.0
S802 S 0.06255 0.52691 0.15079 0.0
N803 N 0.0778 0.46986 0.17894 0.0
N804 N 0.10873 0.57131 0.18214 0.0
C805 C 0.13754 0.54137 0.21987 0.0
C806 C 0.12211 0.48412 0.21719 0.0
C807 C 0.75151 -0.00276 0.68415 0.0
C808 C 0.68831 0.02272 0.69892 0.0
C809 C 0.76676 0.94254 0.69069 0.0
C810 C 0.71788 0.90355 0.70762 0.0
H811 H 0.79356 0.02197 0.67078 0.0
H812 H 0.82151 0.93188 0.68755 0.0
S813 S 0.53435 0.94316 0.74556 0.0
N814 N 0.57005 0.00012 0.72944 0.0
N815 N 0.5958 0.89757 0.73672 0.0
C816 C 0.65049 0.92697 0.71939 0.0
C817 C 0.63599 0.98482 0.71505 0.0
C818 C 0.30393 0.56922 -0.00244 0.0
C819 C 0.34655 0.54953 0.95601 0.0
C820 C 0.22923 0.57314 -0.00701 0.0
C821 C 0.19548 0.56237 0.94521 0.0
H822 H 0.32776 0.57923 0.03428 0.0
H823 H 0.19837 0.58531 0.0267 0.0
S824 S 0.27969 0.50222 0.83438 0.0
N825 N 0.34642 0.51008 0.87239 0.0
N826 N 0.21083 0.53043 0.85943 0.0
C827 C 0.23862 0.54522 0.90472 0.0
C828 C 0.31246 0.53643 0.91076 0.0
C829 C 0.80147 0.03704 0.18683 0.0
C830 C 0.84817 0.06974 0.21535 0.0
C831 C 0.80864 0.98086 0.17993 0.0
C832 C 0.86254 0.94923 0.20167 0.0
H833 H 0.75492 0.05481 0.17114 0.0
H834 H 0.76487 0.96031 0.16296 0.0
S835 S 1.00637 0.0118 0.27862 0.0
N836 N 0.9559 0.0628 0.26459 0.0
N837 N 0.96976 0.95974 0.25173 0.0
C838 C 0.91236 0.98129 0.22933 0.0
C839 C 0.90498 0.03958 0.23633 0.0
C840 C 0.84265 -0.00617 0.06974 0.0
C841 C 0.88437 0.95723 0.0421 0.0
C842 C 0.76807 -0.00807 0.06809 0.0
C843 C 0.73306 0.95449 0.03787 0.0
H844 H 0.8678 0.02551 0.09049 0.0
H845 H 0.73752 0.0206 0.0897 0.0
S846 S 0.82464 0.87091 0.93758 0.0
N847 N 0.88732 0.88977 0.9764 0.0
N848 N 0.75319 0.89996 0.96093 0.0
C849 C 0.77655 0.9243 0.00385 0.0
C850 C 0.85067 0.92163 0.00993 0.0
C851 C 0.33365 0.48597 0.73336 0.0
C852 C 0.392 0.5131 0.75254 0.0
C853 C 0.31833 0.43209 0.74012 0.0
C854 C 0.36854 0.39379 0.75043 0.0
H855 H 0.29326 0.50825 0.71783 0.0
H856 H 0.26504 0.41987 0.73223 0.0
S857 S 0.55135 0.43441 0.78585 0.0
N858 N 0.51101 0.49182 0.77982 0.0
N859 N 0.49289 0.38805 0.77356 0.0
C860 C 0.43531 0.41742 0.76329 0.0
C861 C 0.44578 0.47603 0.76659 0.0
C862 C 0.25187 0.42029 0.48085 0.0
C863 C 0.21005 0.4341 0.43775 0.0
C864 C 0.32628 0.41188 0.47653 0.0
C865 C 0.36513 0.43301 0.43472 0.0
H866 H 0.226 0.40839 0.51613 0.0
H867 H 0.35392 0.39225 0.50748 0.0
S868 S 0.29922 0.42591 0.30747 0.0
N869 N 0.23068 0.41542 0.34602 0.0
N870 N 0.36123 0.44628 0.34477 0.0
C871 C 0.32687 0.44422 0.39124 0.0
C872 C 0.25221 0.43459 0.39124 0.0
C873 C 0.80324 0.70556 0.94243 0.0
C874 C 0.75415 0.73292 0.913 0.0
C875 C 0.81332 0.71902 -0.00511 0.0
C876 C 0.78039 0.76351 0.01759 0.0
H877 H 0.83417 0.67453 0.92444 0.0
H878 H 0.84573 0.69384 0.01796 0.0
S879 S 0.63587 0.83635 0.95218 0.0
N880 N 0.6632 0.79536 0.90818 0.0
N881 N 0.68229 0.82547 0.00584 0.0
C882 C 0.72538 0.78672 -0.01166 0.0
C883 C 0.71306 0.77038 0.9361 0.0
C884 C 0.57821 0.53415 0.23501 0.0
C885 C 0.62382 0.50282 0.2664 0.0
C886 C 0.57163 0.53374 0.17948 0.0
C887 C 0.60724 0.49861 0.14607 0.0
H888 H 0.54583 0.56247 0.25077 0.0
H889 H 0.53534 0.56159 0.16253 0.0
S890 S 0.74169 0.40703 0.2002 0.0
N891 N 0.71312 0.43693 0.2532 0.0
N892 N 0.70028 0.43252 0.1499 0.0
C893 C 0.65755 0.46758 0.17448 0.0
C894 C 0.66543 0.47013 0.23264 0.0
C895 C 0.85641 0.19749 0.45324 0.0
C896 C 0.83609 0.24164 0.4255 0.0
C897 C 0.8267 0.18667 0.50233 0.0
C898 C 0.77315 0.21852 0.52401 0.0
H899 H 0.89383 0.17067 0.43557 0.0
H900 H 0.84558 0.15322 0.52351 0.0
S901 S 0.75927 0.35905 0.48968 0.0
N902 N 0.7981 0.3319 0.438 0.0
N903 N 0.74021 0.3107 0.53031 0.0
C904 C 0.76809 0.26948 0.50333 0.0
C905 C 0.80014 0.28112 0.45364 0.0
C906 C 0.94942 0.53055 0.67002 0.0
C907 C 0.9286 0.48599 0.64108 0.0
C908 C 0.95463 0.53451 0.72642 0.0
C909 C 0.92499 0.49914 0.76278 0.0
H910 H 0.9685 0.56169 0.64653 0.0
H911 H 0.98475 0.56569 0.7421 0.0
S912 S 0.80989 0.39173 0.71014 0.0
N913 N 0.85013 0.41253 0.65647 0.0
N914 N 0.84104 0.42651 0.75932 0.0
C915 C 0.88656 0.45898 0.73429 0.0
C916 C 0.89068 0.45142 0.67568 0.0
C917 C 0.81221 0.02617 0.56528 0.0
C918 C 0.85391 0.04789 0.52529 0.0
C919 C 0.73796 0.02381 0.5629 0.0
C920 C 0.70159 0.04413 0.52057 0.0
H921 H 0.83837 0.00848 0.59731 0.0
H922 H 0.70852 0.00206 0.59168 0.0
S923 S 0.78406 0.09788 0.40014 0.0
N924 N 0.85133 0.08178 0.43691 0.0
N925 N 0.7132 0.08478 0.43559 0.0
C926 C 0.74227 0.06617 0.47984 0.0
C927 C 0.81789 0.06542 0.48093 0.0
loop_
_geom_bond_atom_site_label_1
_geom_bond_atom_site_label_2
_geom_bond_distance
_geom_bond_site_symmetry_2
_ccdc_geom_bond_type
Mn0 O5 2.095 . S
Mn0 O15 2.162 . S
Mn0 O16 2.297 . S
Mn0 O24 2.385 . S
Mn0 O25 2.209 . S
Mn0 O26 2.094 . S
Mn1 O6 2.121 . S
Mn1 N8 2.257 . S
Mn1 N17 2.282 . S
Mn1 O25 2.215 . S
Mn1 O27 2.117 . S
C2 O24 1.234 . S
C2 O25 1.283 . S
C3 O15 1.281 . S
C3 O16 1.236 . S
C4 O26 1.240 . S
C4 O27 1.264 . S
O5 Mn0 2.095 . S
O5 C14 1.250 . S
O6 Mn1 2.121 . S
O6 C14 1.258 . S
C7 N8 1.326 . S
C7 C11 1.460 . S
C7 H13 0.929 . S
N8 Mn1 2.257 . S
N8 C7 1.326 . S
N8 C12 1.362 . S
C9 C10 1.258 . S
C9 C12 1.431 . S
C9 C29 1.449 . S
C10 C9 1.258 . S
C10 C11 1.477 . S
C10 H30 0.931 . S
C11 C7 1.460 . S
C11 C10 1.477 . S
C11 H31 0.930 . S
C12 N8 1.362 . S
C12 C9 1.431 . S
C12 C22 1.476 . S
H13 C7 0.929 . S
C14 O5 1.250 . S
C14 O6 1.258 . S
O15 Mn0 2.162 . S
O15 C3 1.281 . S
O16 Mn0 2.297 . S
O16 C3 1.236 . S
N17 Mn1 2.282 . S
N17 C18 1.328 . S
N17 C22 1.318 . S
C18 N17 1.328 . S
C18 C19 1.457 . S
C18 H23 0.929 . S
C19 C18 1.457 . S
C19 C20 1.291 . S
C19 H32 0.931 . S
C20 C19 1.291 . S
C20 C21 1.373 . S
C20 H33 0.929 . S
C21 C20 1.373 . S
C21 C22 1.396 . S
C21 C28 1.403 . S
C22 C12 1.476 . S
C22 N17 1.318 . S
C22 C21 1.396 . S
H23 C18 0.929 . S
O24 Mn0 2.385 . S
O24 C2 1.234 . S
O25 Mn0 2.209 . S
O25 Mn1 2.215 . S
O25 C2 1.283 . S
O26 Mn0 2.094 . S
O26 C4 1.240 . S
O27 Mn1 2.117 . S
O27 C4 1.264 . S
C28 C21 1.403 . S
C28 C29 1.399 . S
C28 H34 0.929 . S
C29 C9 1.449 . S
C29 C28 1.399 . S
C29 H35 0.930 . S
H30 C10 0.931 . S
H31 C11 0.930 . S
H32 C19 0.931 . S
H33 C20 0.929 . S
H34 C28 0.929 . S
H35 C29 0.930 . S
Mn36 O41 2.095 . S
Mn36 O51 2.162 . S
Mn36 O52 2.297 1_455 S
Mn36 O60 2.385 1_455 S
Mn36 O61 2.209 1_445 S
Mn36 O62 2.094 1_545 S
Mn37 O42 2.121 . S
Mn37 N44 2.257 . S
Mn37 N53 2.282 . S
Mn37 O61 2.215 . S
Mn37 O63 2.117 1_655 S
C38 O60 1.234 . S
C38 O61 1.283 1_545 S
C39 O51 1.281 . S
C39 O52 1.236 1_455 S
C40 O62 1.240 . S
C40 O63 1.264 . S
O41 Mn36 2.095 . S
O41 C50 1.250 1_545 S
O42 Mn37 2.121 . S
O42 C50 1.258 1_655 S
C43 N44 1.326 . S
C43 C47 1.460 . S
C43 H49 0.929 . S
N44 Mn37 2.257 . S
N44 C43 1.326 . S
N44 C48 1.362 . S
C45 C46 1.258 . S
C45 C48 1.431 . S
C45 C65 1.449 . S
C46 C45 1.258 . S
C46 C47 1.477 . S
C46 H66 0.931 . S
C47 C43 1.460 . S
C47 C46 1.477 . S
C47 H67 0.930 . S
C48 N44 1.362 . S
C48 C45 1.431 . S
C48 C58 1.476 . S
H49 C43 0.929 . S
C50 O41 1.250 1_565 S
C50 O42 1.258 1_455 S
O51 Mn36 2.162 . S
O51 C39 1.281 . S
O52 Mn36 2.297 1_655 S
O52 C39 1.236 1_655 S
N53 Mn37 2.282 . S
N53 C54 1.328 . S
N53 C58 1.318 . S
C54 N53 1.328 . S
C54 C55 1.457 . S
C54 H59 0.929 . S
C55 C54 1.457 . S
C55 C56 1.291 . S
C55 H68 0.931 . S
C56 C55 1.291 . S
C56 C57 1.373 . S
C56 H69 0.929 . S
C57 C56 1.373 . S
C57 C58 1.396 . S
C57 C64 1.403 . S
C58 C48 1.476 . S
C58 N53 1.318 . S
C58 C57 1.396 . S
H59 C54 0.929 . S
O60 Mn36 2.385 1_655 S
O60 C38 1.234 . S
O61 Mn36 2.209 1_665 S
O61 Mn37 2.215 . S
O61 C38 1.283 1_565 S
O62 Mn36 2.094 1_565 S
O62 C40 1.240 . S
O63 Mn37 2.117 1_455 S
O63 C40 1.264 . S
C64 C57 1.403 . S
C64 C65 1.399 . S
C64 H70 0.929 . S
C65 C45 1.449 . S
C65 C64 1.399 . S
C65 H71 0.930 . S
H66 C46 0.931 . S
H67 C47 0.930 . S
H68 C55 0.931 . S
H69 C56 0.929 . S
H70 C64 0.929 . S
H71 C65 0.930 . S
Mn72 O77 2.095 . S
Mn72 O87 2.162 . S
Mn72 O88 2.297 . S
Mn72 O96 2.385 . S
Mn72 O97 2.209 . S
Mn72 O98 2.094 . S
Mn73 O78 2.121 . S
Mn73 N80 2.257 . S
Mn73 N89 2.282 . S
Mn73 O97 2.215 . S
Mn73 O99 2.117 . S
C74 O96 1.234 . S
C74 O97 1.283 . S
C75 O87 1.281 . S
C75 O88 1.236 . S
C76 O98 1.240 . S
C76 O99 1.264 . S
O77 Mn72 2.095 . S
O77 C86 1.250 . S
O78 Mn73 2.121 . S
O78 C86 1.258 . S
C79 N80 1.326 . S
C79 C83 1.460 . S
C79 H85 0.929 . S
N80 Mn73 2.257 . S
N80 C79 1.326 . S
N80 C84 1.362 . S
C81 C82 1.258 . S
C81 C84 1.431 1_655 S
C81 C101 1.449 . S
C82 C81 1.258 . S
C82 C83 1.477 1_655 S
C82 H102 0.931 . S
C83 C79 1.460 . S
C83 C82 1.477 1_455 S
C83 H103 0.930 . S
C84 N80 1.362 . S
C84 C81 1.431 1_455 S
C84 C94 1.476 . S
H85 C79 0.929 . S
C86 O77 1.250 . S
C86 O78 1.258 . S
O87 Mn72 2.162 . S
O87 C75 1.281 . S
O88 Mn72 2.297 . S
O88 C75 1.236 . S
N89 Mn73 2.282 . S
N89 C90 1.328 . S
N89 C94 1.318 . S
C90 N89 1.328 . S
C90 C91 1.457 . S
C90 H95 0.929 . S
C91 C90 1.457 . S
C91 C92 1.291 . S
C91 H104 0.931 . S
C92 C91 1.291 . S
C92 C93 1.373 . S
C92 H105 0.929 1_455 S
C93 C92 1.373 . S
C93 C94 1.396 . S
C93 C100 1.403 1_455 S
C94 C84 1.476 . S
C94 N89 1.318 . S
C94 C93 1.396 . S
H95 C90 0.929 . S
O96 Mn72 2.385 . S
O96 C74 1.234 . S
O97 Mn72 2.209 . S
O97 Mn73 2.215 . S
O97 C74 1.283 . S
O98 Mn72 2.094 . S
O98 C76 1.240 . S
O99 Mn73 2.117 . S
O99 C76 1.264 . S
C100 C93 1.403 1_655 S
C100 C101 1.399 . S
C100 H106 0.929 . S
C101 C81 1.449 . S
C101 C100 1.399 . S
C101 H107 0.930 . S
H102 C82 0.931 . S
H103 C83 0.930 . S
H104 C91 0.931 . S
H105 C92 0.929 1_655 S
H106 C100 0.929 . S
H107 C101 0.930 . S
Mn108 O113 2.095 . S
Mn108 O123 2.162 . S
Mn108 O124 2.297 . S
Mn108 O132 2.385 1_554 S
Mn108 O133 2.209 1_565 S
Mn108 O134 2.094 1_564 S
Mn109 O114 2.121 . S
Mn109 N116 2.257 . S
Mn109 N125 2.282 . S
Mn109 O133 2.215 . S
Mn109 O135 2.117 . S
C110 O132 1.234 1_554 S
C110 O133 1.283 1_565 S
C111 O123 1.281 . S
C111 O124 1.236 . S
C112 O134 1.240 . S
C112 O135 1.264 1_556 S
O113 Mn108 2.095 . S
O113 C122 1.250 1_565 S
O114 Mn109 2.121 . S
O114 C122 1.258 . S
C115 N116 1.326 . S
C115 C119 1.460 . S
C115 H121 0.929 . S
N116 Mn109 2.257 . S
N116 C115 1.326 . S
N116 C120 1.362 . S
C117 C118 1.258 . S
C117 C120 1.431 . S
C117 C137 1.449 . S
C118 C117 1.258 . S
C118 C119 1.477 . S
C118 H138 0.931 . S
C119 C115 1.460 . S
C119 C118 1.477 . S
C119 H139 0.930 . S
C120 N116 1.362 . S
C120 C117 1.431 . S
C120 C130 1.476 . S
H121 C115 0.929 . S
C122 O113 1.250 1_545 S
C122 O114 1.258 . S
O123 Mn108 2.162 . S
O123 C111 1.281 . S
O124 Mn108 2.297 . S
O124 C111 1.236 . S
N125 Mn109 2.282 . S
N125 C126 1.328 1_554 S
N125 C130 1.318 . S
C126 N125 1.328 1_556 S
C126 C127 1.457 . S
C126 H131 0.929 . S
C127 C126 1.457 . S
C127 C128 1.291 . S
C127 H140 0.931 . S
C128 C127 1.291 . S
C128 C129 1.373 . S
C128 H141 0.929 . S
C129 C128 1.373 . S
C129 C130 1.396 1_556 S
C129 C136 1.403 1_556 S
C130 C120 1.476 . S
C130 N125 1.318 . S
C130 C129 1.396 1_554 S
H131 C126 0.929 . S
O132 Mn108 2.385 1_556 S
O132 C110 1.234 1_556 S
O133 Mn108 2.209 1_545 S
O133 Mn109 2.215 . S
O133 C110 1.283 1_545 S
O134 Mn108 2.094 1_546 S
O134 C112 1.240 . S
O135 Mn109 2.117 . S
O135 C112 1.264 1_554 S
C136 C129 1.403 1_554 S
C136 C137 1.399 . S
C136 H142 0.929 1_554 S
C137 C117 1.449 . S
C137 C136 1.399 . S
C137 H143 0.930 . S
H138 C118 0.931 . S
H139 C119 0.930 . S
H140 C127 0.931 . S
H141 C128 0.929 . S
H142 C136 0.929 1_556 S
H143 C137 0.930 . S
Mn144 O149 2.095 . S
Mn144 O159 2.162 . S
Mn144 O160 2.297 . S
Mn144 O168 2.385 . S
Mn144 O169 2.209 . S
Mn144 O170 2.094 . S
Mn145 O150 2.121 . S
Mn145 N152 2.257 . S
Mn145 N161 2.282 . S
Mn145 O169 2.215 . S
Mn145 O171 2.117 . S
C146 O168 1.234 . S
C146 O169 1.283 . S
C147 O159 1.281 . S
C147 O160 1.236 . S
C148 O170 1.240 . S
C148 O171 1.264 . S
O149 Mn144 2.095 . S
O149 C158 1.250 . S
O150 Mn145 2.121 . S
O150 C158 1.258 . S
C151 N152 1.326 . S
C151 C155 1.460 . S
C151 H157 0.929 . S
N152 Mn145 2.257 . S
N152 C151 1.326 . S
N152 C156 1.362 . S
C153 C154 1.258 . S
C153 C156 1.431 . S
C153 C173 1.449 . S
C154 C153 1.258 . S
C154 C155 1.477 . S
C154 H174 0.931 . S
C155 C151 1.460 . S
C155 C154 1.477 . S
C155 H175 0.930 . S
C156 N152 1.362 . S
C156 C153 1.431 . S
C156 C166 1.476 . S
H157 C151 0.929 . S
C158 O149 1.250 . S
C158 O150 1.258 . S
O159 Mn144 2.162 . S
O159 C147 1.281 . S
O160 Mn144 2.297 . S
O160 C147 1.236 . S
N161 Mn145 2.282 . S
N161 C162 1.328 . S
N161 C166 1.318 . S
C162 N161 1.328 . S
C162 C163 1.457 . S
C162 H167 0.929 . S
C163 C162 1.457 . S
C163 C164 1.291 . S
C163 H176 0.931 . S
C164 C163 1.291 . S
C164 C165 1.373 . S
C164 H177 0.929 . S
C165 C164 1.373 . S
C165 C166 1.396 . S
C165 C172 1.403 . S
C166 C156 1.476 . S
C166 N161 1.318 . S
C166 C165 1.396 . S
H167 C162 0.929 . S
O168 Mn144 2.385 . S
O168 C146 1.234 . S
O169 Mn144 2.209 . S
O169 Mn145 2.215 . S
O169 C146 1.283 . S
O170 Mn144 2.094 . S
O170 C148 1.240 . S
O171 Mn145 2.117 . S
O171 C148 1.264 . S
C172 C165 1.403 . S
C172 C173 1.399 . S
C172 H178 0.929 . S
C173 C153 1.449 . S
C173 C172 1.399 . S
C173 H179 0.930 . S
H174 C154 0.931 . S
H175 C155 0.930 . S
H176 C163 0.931 . S
H177 C164 0.929 . S
H178 C172 0.929 . S
H179 C173 0.930 . S
Mn180 O185 2.095 . S
Mn180 O195 2.162 . S
Mn180 O196 2.297 . S
Mn180 O204 2.385 . S
Mn180 O205 2.209 1_545 S
Mn180 O206 2.094 1_545 S
Mn181 O186 2.121 . S
Mn181 N188 2.257 . S
Mn181 N197 2.282 . S
Mn181 O205 2.215 . S
Mn181 O207 2.117 . S
C182 O204 1.234 . S
C182 O205 1.283 1_545 S
C183 O195 1.281 . S
C183 O196 1.236 . S
C184 O206 1.240 . S
C184 O207 1.264 . S
O185 Mn180 2.095 . S
O185 C194 1.250 1_545 S
O186 Mn181 2.121 . S
O186 C194 1.258 . S
C187 N188 1.326 . S
C187 C191 1.460 . S
C187 H193 0.929 . S
N188 Mn181 2.257 . S
N188 C187 1.326 . S
N188 C192 1.362 . S
C189 C190 1.258 . S
C189 C192 1.431 . S
C189 C209 1.449 . S
C190 C189 1.258 . S
C190 C191 1.477 . S
C190 H210 0.931 . S
C191 C187 1.460 . S
C191 C190 1.477 . S
C191 H211 0.930 . S
C192 N188 1.362 . S
C192 C189 1.431 . S
C192 C202 1.476 . S
H193 C187 0.929 . S
C194 O185 1.250 1_565 S
C194 O186 1.258 . S
O195 Mn180 2.162 . S
O195 C183 1.281 . S
O196 Mn180 2.297 . S
O196 C183 1.236 . S
N197 Mn181 2.282 . S
N197 C198 1.328 . S
N197 C202 1.318 . S
C198 N197 1.328 . S
C198 C199 1.457 . S
C198 H203 0.929 . S
C199 C198 1.457 . S
C199 C200 1.291 . S
C199 H212 0.931 . S
C200 C199 1.291 . S
C200 C201 1.373 . S
C200 H213 0.929 . S
C201 C200 1.373 . S
C201 C202 1.396 . S
C201 C208 1.403 . S
C202 C192 1.476 . S
C202 N197 1.318 . S
C202 C201 1.396 . S
H203 C198 0.929 . S
O204 Mn180 2.385 . S
O204 C182 1.234 . S
O205 Mn180 2.209 1_565 S
O205 Mn181 2.215 . S
O205 C182 1.283 1_565 S
O206 Mn180 2.094 1_565 S
O206 C184 1.240 . S
O207 Mn181 2.117 . S
O207 C184 1.264 . S
C208 C201 1.403 . S
C208 C209 1.399 . S
C208 H214 0.929 . S
C209 C189 1.449 . S
C209 C208 1.399 . S
C209 H215 0.930 . S
H210 C190 0.931 . S
H211 C191 0.930 . S
H212 C199 0.931 . S
H213 C200 0.929 . S
H214 C208 0.929 . S
H215 C209 0.930 . S
Mn216 O221 2.095 . S
Mn216 O231 2.162 . S
Mn216 O232 2.297 . S
Mn216 O240 2.385 . S
Mn216 O241 2.209 . S
Mn216 O242 2.094 . S
Mn217 O222 2.121 . S
Mn217 N224 2.257 . S
Mn217 N233 2.282 . S
Mn217 O241 2.215 . S
Mn217 O243 2.117 . S
C218 O240 1.234 . S
C218 O241 1.283 . S
C219 O231 1.281 . S
C219 O232 1.236 . S
C220 O242 1.240 . S
C220 O243 1.264 . S
O221 Mn216 2.095 . S
O221 C230 1.250 . S
O222 Mn217 2.121 . S
O222 C230 1.258 . S
C223 N224 1.326 . S
C223 C227 1.460 . S
C223 H229 0.929 . S
N224 Mn217 2.257 . S
N224 C223 1.326 . S
N224 C228 1.362 . S
C225 C226 1.258 . S
C225 C228 1.431 1_655 S
C225 C245 1.449 . S
C226 C225 1.258 . S
C226 C227 1.477 1_655 S
C226 H246 0.931 . S
C227 C223 1.460 . S
C227 C226 1.477 1_455 S
C227 H247 0.930 . S
C228 N224 1.362 . S
C228 C225 1.431 1_455 S
C228 C238 1.476 . S
H229 C223 0.929 . S
C230 O221 1.250 . S
C230 O222 1.258 . S
O231 Mn216 2.162 . S
O231 C219 1.281 . S
O232 Mn216 2.297 . S
O232 C219 1.236 . S
N233 Mn217 2.282 . S
N233 C234 1.328 . S
N233 C238 1.318 . S
C234 N233 1.328 . S
C234 C235 1.457 . S
C234 H239 0.929 . S
C235 C234 1.457 . S
C235 C236 1.291 . S
C235 H248 0.931 . S
C236 C235 1.291 . S
C236 C237 1.373 . S
C236 H249 0.929 1_455 S
C237 C236 1.373 . S
C237 C238 1.396 . S
C237 C244 1.403 1_455 S
C238 C228 1.476 . S
C238 N233 1.318 . S
C238 C237 1.396 . S
H239 C234 0.929 . S
O240 Mn216 2.385 . S
O240 C218 1.234 . S
O241 Mn216 2.209 . S
O241 Mn217 2.215 . S
O241 C218 1.283 . S
O242 Mn216 2.094 . S
O242 C220 1.240 . S
O243 Mn217 2.117 . S
O243 C220 1.264 . S
C244 C237 1.403 1_655 S
C244 C245 1.399 . S
C244 H250 0.929 . S
C245 C225 1.449 . S
C245 C244 1.399 . S
C245 H251 0.930 . S
H246 C226 0.931 . S
H247 C227 0.930 . S
H248 C235 0.931 . S
H249 C236 0.929 1_655 S
H250 C244 0.929 . S
H251 C245 0.930 . S
Mn252 O257 2.095 . S
Mn252 O267 2.162 . S
Mn252 O268 2.297 1_455 S
Mn252 O276 2.385 1_456 S
Mn252 O277 2.209 1_465 S
Mn252 O278 2.094 1_566 S
Mn253 O258 2.121 . S
Mn253 N260 2.257 . S
Mn253 N269 2.282 . S
Mn253 O277 2.215 . S
Mn253 O279 2.117 1_655 S
C254 O276 1.234 1_556 S
C254 O277 1.283 1_565 S
C255 O267 1.281 . S
C255 O268 1.236 1_455 S
C256 O278 1.240 . S
C256 O279 1.264 1_554 S
O257 Mn252 2.095 . S
O257 C266 1.250 1_565 S
O258 Mn253 2.121 . S
O258 C266 1.258 1_655 S
C259 N260 1.326 . S
C259 C263 1.460 . S
C259 H265 0.929 . S
N260 Mn253 2.257 . S
N260 C259 1.326 . S
N260 C264 1.362 . S
C261 C262 1.258 . S
C261 C264 1.431 . S
C261 C281 1.449 . S
C262 C261 1.258 . S
C262 C263 1.477 . S
C262 H282 0.931 . S
C263 C259 1.460 . S
C263 C262 1.477 . S
C263 H283 0.930 . S
C264 N260 1.362 . S
C264 C261 1.431 . S
C264 C274 1.476 . S
H265 C259 0.929 . S
C266 O257 1.250 1_545 S
C266 O258 1.258 1_455 S
O267 Mn252 2.162 . S
O267 C255 1.281 . S
O268 Mn252 2.297 1_655 S
O268 C255 1.236 1_655 S
N269 Mn253 2.282 . S
N269 C270 1.328 1_556 S
N269 C274 1.318 . S
C270 N269 1.328 1_554 S
C270 C271 1.457 . S
C270 H275 0.929 . S
C271 C270 1.457 . S
C271 C272 1.291 . S
C271 H284 0.931 . S
C272 C271 1.291 . S
C272 C273 1.373 . S
C272 H285 0.929 . S
C273 C272 1.373 . S
C273 C274 1.396 1_554 S
C273 C280 1.403 1_554 S
C274 C264 1.476 . S
C274 N269 1.318 . S
C274 C273 1.396 1_556 S
H275 C270 0.929 . S
O276 Mn252 2.385 1_654 S
O276 C254 1.234 1_554 S
O277 Mn252 2.209 1_645 S
O277 Mn253 2.215 . S
O277 C254 1.283 1_545 S
O278 Mn252 2.094 1_544 S
O278 C256 1.240 . S
O279 Mn253 2.117 1_455 S
O279 C256 1.264 1_556 S
C280 C273 1.403 1_556 S
C280 C281 1.399 . S
C280 H286 0.929 1_556 S
C281 C261 1.449 . S
C281 C280 1.399 . S
C281 H287 0.930 . S
H282 C262 0.931 . S
H283 C263 0.930 . S
H284 C271 0.931 . S
H285 C272 0.929 . S
H286 C280 0.929 1_554 S
H287 C281 0.930 . S
Mn288 O293 2.095 . S
Mn288 O303 2.162 . S
Mn288 O304 2.297 . S
Mn288 O312 2.385 . S
Mn288 O313 2.209 . S
Mn288 O314 2.094 . S
Mn289 O294 2.121 . S
Mn289 N296 2.257 . S
Mn289 N305 2.282 . S
Mn289 O313 2.215 . S
Mn289 O315 2.117 . S
C290 O312 1.234 . S
C290 O313 1.283 . S
C291 O303 1.281 . S
C291 O304 1.236 . S
C292 O314 1.240 . S
C292 O315 1.264 . S
O293 Mn288 2.095 . S
O293 C302 1.250 . S
O294 Mn289 2.121 . S
O294 C302 1.258 . S
C295 N296 1.326 . S
C295 C299 1.460 . S
C295 H301 0.929 . S
N296 Mn289 2.257 . S
N296 C295 1.326 . S
N296 C300 1.362 . S
C297 C298 1.258 . S
C297 C300 1.431 1_455 S
C297 C317 1.449 . S
C298 C297 1.258 . S
C298 C299 1.477 1_455 S
C298 H318 0.931 . S
C299 C295 1.460 . S
C299 C298 1.477 1_655 S
C299 H319 0.930 . S
C300 N296 1.362 . S
C300 C297 1.431 1_655 S
C300 C310 1.476 . S
H301 C295 0.929 . S
C302 O293 1.250 . S
C302 O294 1.258 . S
O303 Mn288 2.162 . S
O303 C291 1.281 . S
O304 Mn288 2.297 . S
O304 C291 1.236 . S
N305 Mn289 2.282 . S
N305 C306 1.328 . S
N305 C310 1.318 . S
C306 N305 1.328 . S
C306 C307 1.457 . S
C306 H311 0.929 . S
C307 C306 1.457 . S
C307 C308 1.291 . S
C307 H320 0.931 . S
C308 C307 1.291 . S
C308 C309 1.373 . S
C308 H321 0.929 1_655 S
C309 C308 1.373 . S
C309 C310 1.396 . S
C309 C316 1.403 1_655 S
C310 C300 1.476 . S
C310 N305 1.318 . S
C310 C309 1.396 . S
H311 C306 0.929 . S
O312 Mn288 2.385 . S
O312 C290 1.234 . S
O313 Mn288 2.209 . S
O313 Mn289 2.215 . S
O313 C290 1.283 . S
O314 Mn288 2.094 . S
O314 C292 1.240 . S
O315 Mn289 2.117 . S
O315 C292 1.264 . S
C316 C309 1.403 1_455 S
C316 C317 1.399 . S
C316 H322 0.929 . S
C317 C297 1.449 . S
C317 C316 1.399 . S
C317 H323 0.930 . S
H318 C298 0.931 . S
H319 C299 0.930 . S
H320 C307 0.931 . S
H321 C308 0.929 1_455 S
H322 C316 0.929 . S
H323 C317 0.930 . S
Mn324 O329 2.095 . S
Mn324 O339 2.162 . S
Mn324 O340 2.297 1_655 S
Mn324 O348 2.385 1_656 S
Mn324 O349 2.209 1_655 S
Mn324 O350 2.094 1_556 S
Mn325 O330 2.121 . S
Mn325 N332 2.257 . S
Mn325 N341 2.282 . S
Mn325 O349 2.215 . S
Mn325 O351 2.117 1_455 S
C326 O348 1.234 1_556 S
C326 O349 1.283 . S
C327 O339 1.281 . S
C327 O340 1.236 1_655 S
C328 O350 1.240 . S
C328 O351 1.264 1_554 S
O329 Mn324 2.095 . S
O329 C338 1.250 . S
O330 Mn325 2.121 . S
O330 C338 1.258 1_455 S
C331 N332 1.326 . S
C331 C335 1.460 . S
C331 H337 0.929 . S
N332 Mn325 2.257 . S
N332 C331 1.326 . S
N332 C336 1.362 . S
C333 C334 1.258 . S
C333 C336 1.431 . S
C333 C353 1.449 . S
C334 C333 1.258 . S
C334 C335 1.477 . S
C334 H354 0.931 . S
C335 C331 1.460 . S
C335 C334 1.477 . S
C335 H355 0.930 . S
C336 N332 1.362 . S
C336 C333 1.431 . S
C336 C346 1.476 . S
H337 C331 0.929 . S
C338 O329 1.250 . S
C338 O330 1.258 1_655 S
O339 Mn324 2.162 . S
O339 C327 1.281 . S
O340 Mn324 2.297 1_455 S
O340 C327 1.236 1_455 S
N341 Mn325 2.282 . S
N341 C342 1.328 1_556 S
N341 C346 1.318 . S
C342 N341 1.328 1_554 S
C342 C343 1.457 . S
C342 H347 0.929 . S
C343 C342 1.457 . S
C343 C344 1.291 . S
C343 H356 0.931 . S
C344 C343 1.291 . S
C344 C345 1.373 . S
C344 H357 0.929 . S
C345 C344 1.373 . S
C345 C346 1.396 1_554 S
C345 C352 1.403 1_554 S
C346 C336 1.476 . S
C346 N341 1.318 . S
C346 C345 1.396 1_556 S
H347 C342 0.929 . S
O348 Mn324 2.385 1_454 S
O348 C326 1.234 1_554 S
O349 Mn324 2.209 1_455 S
O349 Mn325 2.215 . S
O349 C326 1.283 . S
O350 Mn324 2.094 1_554 S
O350 C328 1.240 . S
O351 Mn325 2.117 1_655 S
O351 C328 1.264 1_556 S
C352 C345 1.403 1_556 S
C352 C353 1.399 . S
C352 H358 0.929 1_556 S
C353 C333 1.449 . S
C353 C352 1.399 . S
C353 H359 0.930 . S
H354 C334 0.931 . S
H355 C335 0.930 . S
H356 C343 0.931 . S
H357 C344 0.929 . S
H358 C352 0.929 1_554 S
H359 C353 0.930 . S
Mn360 O365 2.095 . S
Mn360 O375 2.162 . S
Mn360 O376 2.297 . S
Mn360 O384 2.385 . S
Mn360 O385 2.209 . S
Mn360 O386 2.094 . S
Mn361 O366 2.121 . S
Mn361 N368 2.257 . S
Mn361 N377 2.282 . S
Mn361 O385 2.215 . S
Mn361 O387 2.117 . S
C362 O384 1.234 . S
C362 O385 1.283 . S
C363 O375 1.281 . S
C363 O376 1.236 . S
C364 O386 1.240 . S
C364 O387 1.264 . S
O365 Mn360 2.095 . S
O365 C374 1.250 . S
O366 Mn361 2.121 . S
O366 C374 1.258 . S
C367 N368 1.326 . S
C367 C371 1.460 . S
C367 H373 0.929 . S
N368 Mn361 2.257 . S
N368 C367 1.326 . S
N368 C372 1.362 . S
C369 C370 1.258 . S
C369 C372 1.431 . S
C369 C389 1.449 . S
C370 C369 1.258 . S
C370 C371 1.477 . S
C370 H390 0.931 . S
C371 C367 1.460 . S
C371 C370 1.477 . S
C371 H391 0.930 . S
C372 N368 1.362 . S
C372 C369 1.431 . S
C372 C382 1.476 . S
H373 C367 0.929 . S
C374 O365 1.250 . S
C374 O366 1.258 . S
O375 Mn360 2.162 . S
O375 C363 1.281 . S
O376 Mn360 2.297 . S
O376 C363 1.236 . S
N377 Mn361 2.282 . S
N377 C378 1.328 . S
N377 C382 1.318 . S
C378 N377 1.328 . S
C378 C379 1.457 . S
C378 H383 0.929 . S
C379 C378 1.457 . S
C379 C380 1.291 . S
C379 H392 0.931 . S
C380 C379 1.291 . S
C380 C381 1.373 . S
C380 H393 0.929 . S
C381 C380 1.373 . S
C381 C382 1.396 . S
C381 C388 1.403 . S
C382 C372 1.476 . S
C382 N377 1.318 . S
C382 C381 1.396 . S
H383 C378 0.929 . S
O384 Mn360 2.385 . S
O384 C362 1.234 . S
O385 Mn360 2.209 . S
O385 Mn361 2.215 . S
O385 C362 1.283 . S
O386 Mn360 2.094 . S
O386 C364 1.240 . S
O387 Mn361 2.117 . S
O387 C364 1.264 . S
C388 C381 1.403 . S
C388 C389 1.399 . S
C388 H394 0.929 . S
C389 C369 1.449 . S
C389 C388 1.399 . S
C389 H395 0.930 . S
H390 C370 0.931 . S
H391 C371 0.930 . S
H392 C379 0.931 . S
H393 C380 0.929 . S
H394 C388 0.929 . S
H395 C389 0.930 . S
Mn396 O401 2.095 . S
Mn396 O411 2.162 . S
Mn396 O412 2.297 1_655 S
Mn396 O420 2.385 1_655 S
Mn396 O421 2.209 1_655 S
Mn396 O422 2.094 . S
Mn397 O402 2.121 . S
Mn397 N404 2.257 . S
Mn397 N413 2.282 . S
Mn397 O421 2.215 . S
Mn397 O423 2.117 1_455 S
C398 O420 1.234 . S
C398 O421 1.283 . S
C399 O411 1.281 . S
C399 O412 1.236 1_655 S
C400 O422 1.240 . S
C400 O423 1.264 . S
O401 Mn396 2.095 . S
O401 C410 1.250 . S
O402 Mn397 2.121 . S
O402 C410 1.258 1_455 S
C403 N404 1.326 . S
C403 C407 1.460 . S
C403 H409 0.929 . S
N404 Mn397 2.257 . S
N404 C403 1.326 . S
N404 C408 1.362 . S
C405 C406 1.258 . S
C405 C408 1.431 . S
C405 C425 1.449 . S
C406 C405 1.258 . S
C406 C407 1.477 . S
C406 H426 0.931 . S
C407 C403 1.460 . S
C407 C406 1.477 . S
C407 H427 0.930 . S
C408 N404 1.362 . S
C408 C405 1.431 . S
C408 C418 1.476 . S
H409 C403 0.929 . S
C410 O401 1.250 . S
C410 O402 1.258 1_655 S
O411 Mn396 2.162 . S
O411 C399 1.281 . S
O412 Mn396 2.297 1_455 S
O412 C399 1.236 1_455 S
N413 Mn397 2.282 . S
N413 C414 1.328 . S
N413 C418 1.318 . S
C414 N413 1.328 . S
C414 C415 1.457 . S
C414 H419 0.929 . S
C415 C414 1.457 . S
C415 C416 1.291 . S
C415 H428 0.931 . S
C416 C415 1.291 . S
C416 C417 1.373 . S
C416 H429 0.929 . S
C417 C416 1.373 . S
C417 C418 1.396 . S
C417 C424 1.403 . S
C418 C408 1.476 . S
C418 N413 1.318 . S
C418 C417 1.396 . S
H419 C414 0.929 . S
O420 Mn396 2.385 1_455 S
O420 C398 1.234 . S
O421 Mn396 2.209 1_455 S
O421 Mn397 2.215 . S
O421 C398 1.283 . S
O422 Mn396 2.094 . S
O422 C400 1.240 . S
O423 Mn397 2.117 1_655 S
O423 C400 1.264 . S
C424 C417 1.403 . S
C424 C425 1.399 . S
C424 H430 0.929 . S
C425 C405 1.449 . S
C425 C424 1.399 . S
C425 H431 0.930 . S
H426 C406 0.931 . S
H427 C407 0.930 . S
H428 C415 0.931 . S
H429 C416 0.929 . S
H430 C424 0.929 . S
H431 C425 0.930 . S
Mn432 O437 2.095 . S
Mn432 O447 2.162 . S
Mn432 O448 2.297 . S
Mn432 O456 2.385 1_554 S
Mn432 O457 2.209 . S
Mn432 O458 2.094 1_554 S
Mn433 O438 2.121 . S
Mn433 N440 2.257 . S
Mn433 N449 2.282 . S
Mn433 O457 2.215 . S
Mn433 O459 2.117 . S
C434 O456 1.234 1_554 S
C434 O457 1.283 . S
C435 O447 1.281 . S
C435 O448 1.236 . S
C436 O458 1.240 . S
C436 O459 1.264 1_556 S
O437 Mn432 2.095 . S
O437 C446 1.250 . S
O438 Mn433 2.121 . S
O438 C446 1.258 . S
C439 N440 1.326 . S
C439 C443 1.460 . S
C439 H445 0.929 . S
N440 Mn433 2.257 . S
N440 C439 1.326 . S
N440 C444 1.362 . S
C441 C442 1.258 . S
C441 C444 1.431 . S
C441 C461 1.449 . S
C442 C441 1.258 . S
C442 C443 1.477 . S
C442 H462 0.931 . S
C443 C439 1.460 . S
C443 C442 1.477 . S
C443 H463 0.930 . S
C444 N440 1.362 . S
C444 C441 1.431 . S
C444 C454 1.476 . S
H445 C439 0.929 . S
C446 O437 1.250 . S
C446 O438 1.258 . S
O447 Mn432 2.162 . S
O447 C435 1.281 . S
O448 Mn432 2.297 . S
O448 C435 1.236 . S
N449 Mn433 2.282 . S
N449 C450 1.328 1_554 S
N449 C454 1.318 . S
C450 N449 1.328 1_556 S
C450 C451 1.457 . S
C450 H455 0.929 . S
C451 C450 1.457 . S
C451 C452 1.291 . S
C451 H464 0.931 . S
C452 C451 1.291 . S
C452 C453 1.373 . S
C452 H465 0.929 . S
C453 C452 1.373 . S
C453 C454 1.396 1_556 S
C453 C460 1.403 1_556 S
C454 C444 1.476 . S
C454 N449 1.318 . S
C454 C453 1.396 1_554 S
H455 C450 0.929 . S
O456 Mn432 2.385 1_556 S
O456 C434 1.234 1_556 S
O457 Mn432 2.209 . S
O457 Mn433 2.215 . S
O457 C434 1.283 . S
O458 Mn432 2.094 1_556 S
O458 C436 1.240 . S
O459 Mn433 2.117 . S
O459 C436 1.264 1_554 S
C460 C453 1.403 1_554 S
C460 C461 1.399 . S
C460 H466 0.929 1_554 S
C461 C441 1.449 . S
C461 C460 1.399 . S
C461 H467 0.930 . S
H462 C442 0.931 . S
H463 C443 0.930 . S
H464 C451 0.931 . S
H465 C452 0.929 . S
H466 C460 0.929 1_556 S
H467 C461 0.930 . S
Mn468 O473 2.095 . S
Mn468 O483 2.162 . S
Mn468 O484 2.297 . S
Mn468 O492 2.385 . S
Mn468 O493 2.209 . S
Mn468 O494 2.094 . S
Mn469 O474 2.121 . S
Mn469 N476 2.257 . S
Mn469 N485 2.282 . S
Mn469 O493 2.215 . S
Mn469 O495 2.117 . S
C470 O492 1.234 . S
C470 O493 1.283 . S
C471 O483 1.281 . S
C471 O484 1.236 . S
C472 O494 1.240 . S
C472 O495 1.264 . S
O473 Mn468 2.095 . S
O473 C482 1.250 . S
O474 Mn469 2.121 . S
O474 C482 1.258 . S
C475 N476 1.326 . S
C475 C479 1.460 . S
C475 H481 0.929 . S
N476 Mn469 2.257 . S
N476 C475 1.326 . S
N476 C480 1.362 . S
C477 C478 1.258 . S
C477 C480 1.431 1_455 S
C477 C497 1.449 . S
C478 C477 1.258 . S
C478 C479 1.477 1_455 S
C478 H498 0.931 . S
C479 C475 1.460 . S
C479 C478 1.477 1_655 S
C479 H499 0.930 . S
C480 N476 1.362 . S
C480 C477 1.431 1_655 S
C480 C490 1.476 . S
H481 C475 0.929 . S
C482 O473 1.250 . S
C482 O474 1.258 . S
O483 Mn468 2.162 . S
O483 C471 1.281 . S
O484 Mn468 2.297 . S
O484 C471 1.236 . S
N485 Mn469 2.282 . S
N485 C486 1.328 . S
N485 C490 1.318 . S
C486 N485 1.328 . S
C486 C487 1.457 . S
C486 H491 0.929 . S
C487 C486 1.457 . S
C487 C488 1.291 . S
C487 H500 0.931 . S
C488 C487 1.291 . S
C488 C489 1.373 . S
C488 H501 0.929 1_655 S
C489 C488 1.373 . S
C489 C490 1.396 . S
C489 C496 1.403 1_655 S
C490 C480 1.476 . S
C490 N485 1.318 . S
C490 C489 1.396 . S
H491 C486 0.929 . S
O492 Mn468 2.385 . S
O492 C470 1.234 . S
O493 Mn468 2.209 . S
O493 Mn469 2.215 . S
O493 C470 1.283 . S
O494 Mn468 2.094 . S
O494 C472 1.240 . S
O495 Mn469 2.117 . S
O495 C472 1.264 . S
C496 C489 1.403 1_455 S
C496 C497 1.399 . S
C496 H502 0.929 . S
C497 C477 1.449 . S
C497 C496 1.399 . S
C497 H503 0.930 . S
H498 C478 0.931 . S
H499 C479 0.930 . S
H500 C487 0.931 . S
H501 C488 0.929 1_455 S
H502 C496 0.929 . S
H503 C497 0.930 . S
Mn504 O509 2.095 . S
Mn504 O519 2.162 . S
Mn504 O520 2.297 . S
Mn504 O528 2.385 . S
Mn504 O529 2.209 . S
Mn504 O530 2.094 . S
Mn505 O510 2.121 . S
Mn505 N512 2.257 . S
Mn505 N521 2.282 . S
Mn505 O529 2.215 . S
Mn505 O531 2.117 . S
C506 O528 1.234 . S
C506 O529 1.283 . S
C507 O519 1.281 . S
C507 O520 1.236 . S
C508 O530 1.240 . S
C508 O531 1.264 . S
O509 Mn504 2.095 . S
O509 C518 1.250 . S
O510 Mn505 2.121 . S
O510 C518 1.258 . S
C511 N512 1.326 . S
C511 C515 1.460 . S
C511 H517 0.929 . S
N512 Mn505 2.257 . S
N512 C511 1.326 . S
N512 C516 1.362 . S
C513 C514 1.258 . S
C513 C516 1.431 . S
C513 C533 1.449 . S
C514 C513 1.258 . S
C514 C515 1.477 . S
C514 H534 0.931 . S
C515 C511 1.460 . S
C515 C514 1.477 . S
C515 H535 0.930 . S
C516 N512 1.362 . S
C516 C513 1.431 . S
C516 C526 1.476 . S
H517 C511 0.929 . S
C518 O509 1.250 . S
C518 O510 1.258 . S
O519 Mn504 2.162 . S
O519 C507 1.281 . S
O520 Mn504 2.297 . S
O520 C507 1.236 . S
N521 Mn505 2.282 . S
N521 C522 1.328 . S
N521 C526 1.318 . S
C522 N521 1.328 . S
C522 C523 1.457 . S
C522 H527 0.929 . S
C523 C522 1.457 . S
C523 C524 1.291 . S
C523 H536 0.931 . S
C524 C523 1.291 . S
C524 C525 1.373 . S
C524 H537 0.929 . S
C525 C524 1.373 . S
C525 C526 1.396 . S
C525 C532 1.403 . S
C526 C516 1.476 . S
C526 N521 1.318 . S
C526 C525 1.396 . S
H527 C522 0.929 . S
O528 Mn504 2.385 . S
O528 C506 1.234 . S
O529 Mn504 2.209 . S
O529 Mn505 2.215 . S
O529 C506 1.283 . S
O530 Mn504 2.094 . S
O530 C508 1.240 . S
O531 Mn505 2.117 . S
O531 C508 1.264 . S
C532 C525 1.403 . S
C532 C533 1.399 . S
C532 H538 0.929 . S
C533 C513 1.449 . S
C533 C532 1.399 . S
C533 H539 0.930 . S
H534 C514 0.931 . S
H535 C515 0.930 . S
H536 C523 0.931 . S
H537 C524 0.929 . S
H538 C532 0.929 . S
H539 C533 0.930 . S
Mn540 O545 2.095 . S
Mn540 O555 2.162 . S
Mn540 O556 2.297 . S
Mn540 O564 2.385 . S
Mn540 O565 2.209 . S
Mn540 O566 2.094 . S
Mn541 O546 2.121 . S
Mn541 N548 2.257 . S
Mn541 N557 2.282 . S
Mn541 O565 2.215 . S
Mn541 O567 2.117 . S
C542 O564 1.234 . S
C542 O565 1.283 . S
C543 O555 1.281 . S
C543 O556 1.236 . S
C544 O566 1.240 . S
C544 O567 1.264 . S
O545 Mn540 2.095 . S
O545 C554 1.250 . S
O546 Mn541 2.121 . S
O546 C554 1.258 . S
C547 N548 1.326 . S
C547 C551 1.460 . S
C547 H553 0.929 . S
N548 Mn541 2.257 . S
N548 C547 1.326 . S
N548 C552 1.362 . S
C549 C550 1.258 . S
C549 C552 1.431 . S
C549 C569 1.449 . S
C550 C549 1.258 . S
C550 C551 1.477 . S
C550 H570 0.931 . S
C551 C547 1.460 . S
C551 C550 1.477 . S
C551 H571 0.930 . S
C552 N548 1.362 . S
C552 C549 1.431 . S
C552 C562 1.476 . S
H553 C547 0.929 . S
C554 O545 1.250 . S
C554 O546 1.258 . S
O555 Mn540 2.162 . S
O555 C543 1.281 . S
O556 Mn540 2.297 . S
O556 C543 1.236 . S
N557 Mn541 2.282 . S
N557 C558 1.328 . S
N557 C562 1.318 . S
C558 N557 1.328 . S
C558 C559 1.457 . S
C558 H563 0.929 . S
C559 C558 1.457 . S
C559 C560 1.291 . S
C559 H572 0.931 . S
C560 C559 1.291 . S
C560 C561 1.373 . S
C560 H573 0.929 . S
C561 C560 1.373 . S
C561 C562 1.396 . S
C561 C568 1.403 . S
C562 C552 1.476 . S
C562 N557 1.318 . S
C562 C561 1.396 . S
H563 C558 0.929 . S
O564 Mn540 2.385 . S
O564 C542 1.234 . S
O565 Mn540 2.209 . S
O565 Mn541 2.215 . S
O565 C542 1.283 . S
O566 Mn540 2.094 . S
O566 C544 1.240 . S
O567 Mn541 2.117 . S
O567 C544 1.264 . S
C568 C561 1.403 . S
C568 C569 1.399 . S
C568 H574 0.929 . S
C569 C549 1.449 . S
C569 C568 1.399 . S
C569 H575 0.930 . S
H570 C550 0.931 . S
H571 C551 0.930 . S
H572 C559 0.931 . S
H573 C560 0.929 . S
H574 C568 0.929 . S
H575 C569 0.930 . S
C576 C577 1.369 . S
C576 C578 1.419 . S
C576 H580 0.930 . S
C577 C576 1.369 . S
C577 C586 1.429 . S
C578 C576 1.419 . S
C578 C579 1.363 . S
C578 H581 0.929 . S
C579 C578 1.363 . S
C579 C585 1.428 . S
H580 C576 0.930 . S
H581 C578 0.929 . S
S582 N583 1.613 1_556 S
S582 N584 1.610 . S
N583 S582 1.613 1_554 S
N583 C586 1.350 . S
N584 S582 1.610 . S
N584 C585 1.351 1_556 S
C585 C579 1.428 . S
C585 N584 1.351 1_554 S
C585 C586 1.434 . S
C586 C577 1.429 . S
C586 N583 1.350 . S
C586 C585 1.434 . S
C587 C588 1.369 . S
C587 C589 1.419 . S
C587 H591 0.930 . S
C588 C587 1.369 . S
C588 C597 1.429 . S
C589 C587 1.419 . S
C589 C590 1.363 . S
C589 H592 0.929 . S
C590 C589 1.363 . S
C590 C596 1.428 . S
H591 C587 0.930 . S
H592 C589 0.929 . S
S593 N594 1.613 . S
S593 N595 1.610 . S
N594 S593 1.613 . S
N594 C597 1.350 . S
N595 S593 1.610 . S
N595 C596 1.351 . S
C596 C590 1.428 . S
C596 N595 1.351 . S
C596 C597 1.434 . S
C597 C588 1.429 . S
C597 N594 1.350 . S
C597 C596 1.434 . S
C598 C599 1.369 . S
C598 C600 1.419 . S
C598 H602 0.930 . S
C599 C598 1.369 . S
C599 C608 1.429 . S
C600 C598 1.419 . S
C600 C601 1.363 . S
C600 H603 0.929 . S
C601 C600 1.363 . S
C601 C607 1.428 . S
H602 C598 0.930 . S
H603 C600 0.929 . S
S604 N605 1.613 . S
S604 N606 1.610 . S
N605 S604 1.613 . S
N605 C608 1.350 . S
N606 S604 1.610 . S
N606 C607 1.351 . S
C607 C601 1.428 . S
C607 N606 1.351 . S
C607 C608 1.434 . S
C608 C599 1.429 . S
C608 N605 1.350 . S
C608 C607 1.434 . S
C609 C610 1.369 . S
C609 C611 1.419 . S
C609 H613 0.930 . S
C610 C609 1.369 . S
C610 C619 1.429 . S
C611 C609 1.419 . S
C611 C612 1.363 . S
C611 H614 0.929 . S
C612 C611 1.363 . S
C612 C618 1.428 . S
H613 C609 0.930 . S
H614 C611 0.929 . S
S615 N616 1.613 . S
S615 N617 1.610 . S
N616 S615 1.613 . S
N616 C619 1.350 . S
N617 S615 1.610 . S
N617 C618 1.351 . S
C618 C612 1.428 . S
C618 N617 1.351 . S
C618 C619 1.434 . S
C619 C610 1.429 . S
C619 N616 1.350 . S
C619 C618 1.434 . S
C620 C621 1.369 . S
C620 C622 1.419 . S
C620 H624 0.930 . S
C621 C620 1.369 . S
C621 C630 1.429 . S
C622 C620 1.419 . S
C622 C623 1.363 . S
C622 H625 0.929 . S
C623 C622 1.363 . S
C623 C629 1.428 . S
H624 C620 0.930 . S
H625 C622 0.929 . S
S626 N627 1.606 1_554 S
S626 N628 1.611 . S
N627 S626 1.606 1_556 S
N627 C630 1.350 . S
N628 S626 1.611 . S
N628 C629 1.351 1_554 S
C629 C623 1.428 . S
C629 N628 1.351 1_556 S
C629 C630 1.434 . S
C630 C621 1.429 . S
C630 N627 1.350 . S
C630 C629 1.434 . S
C631 C632 1.369 . S
C631 C633 1.419 . S
C631 H635 0.930 . S
C632 C631 1.369 . S
C632 C641 1.429 . S
C633 C631 1.419 . S
C633 C634 1.363 . S
C633 H636 0.929 . S
C634 C633 1.363 . S
C634 C640 1.428 . S
H635 C631 0.930 . S
H636 C633 0.929 . S
S637 N638 1.613 . S
S637 N639 1.610 . S
N638 S637 1.613 . S
N638 C641 1.350 . S
N639 S637 1.610 . S
N639 C640 1.351 . S
C640 C634 1.428 . S
C640 N639 1.351 . S
C640 C641 1.434 . S
C641 C632 1.429 . S
C641 N638 1.350 . S
C641 C640 1.434 . S
C642 C643 1.369 . S
C642 C644 1.419 . S
C642 H646 0.930 . S
C643 C642 1.369 . S
C643 C652 1.429 . S
C644 C642 1.419 . S
C644 C645 1.363 . S
C644 H647 0.929 . S
C645 C644 1.363 . S
C645 C651 1.428 . S
H646 C642 0.930 . S
H647 C644 0.929 . S
S648 N649 1.613 . S
S648 N650 1.610 1_455 S
N649 S648 1.613 . S
N649 C652 1.350 1_455 S
N650 S648 1.610 1_655 S
N650 C651 1.351 . S
C651 C645 1.428 . S
C651 N650 1.351 . S
C651 C652 1.434 . S
C652 C643 1.429 . S
C652 N649 1.350 1_655 S
C652 C651 1.434 . S
C653 C654 1.369 . S
C653 C655 1.419 . S
C653 H657 0.930 . S
C654 C653 1.369 . S
C654 C663 1.429 . S
C655 C653 1.419 . S
C655 C656 1.363 . S
C655 H658 0.929 . S
C656 C655 1.363 . S
C656 C662 1.428 . S
H657 C653 0.930 . S
H658 C655 0.929 . S
S659 N660 1.613 . S
S659 N661 1.610 . S
N660 S659 1.613 . S
N660 C663 1.350 . S
N661 S659 1.610 . S
N661 C662 1.351 . S
C662 C656 1.428 . S
C662 N661 1.351 . S
C662 C663 1.434 . S
C663 C654 1.429 . S
C663 N660 1.350 . S
C663 C662 1.434 . S
C664 C665 1.369 . S
C664 C666 1.419 . S
C664 H668 0.930 . S
C665 C664 1.369 . S
C665 C674 1.429 . S
C666 C664 1.419 . S
C666 C667 1.363 . S
C666 H669 0.929 . S
C667 C666 1.363 . S
C667 C673 1.428 . S
H668 C664 0.930 . S
H669 C666 0.929 . S
S670 N671 1.613 . S
S670 N672 1.610 . S
N671 S670 1.613 . S
N671 C674 1.350 . S
N672 S670 1.610 . S
N672 C673 1.351 . S
C673 C667 1.428 . S
C673 N672 1.351 . S
C673 C674 1.434 . S
C674 C665 1.429 . S
C674 N671 1.350 . S
C674 C673 1.434 . S
C675 C676 1.376 . S
C675 C677 1.419 . S
C675 H679 0.923 1_455 S
C676 C675 1.376 . S
C676 C685 1.429 1_545 S
C677 C675 1.419 . S
C677 C678 1.363 1_545 S
C677 H680 0.929 1_455 S
C678 C677 1.363 1_565 S
C678 C684 1.428 . S
H679 C675 0.923 1_655 S
H680 C677 0.929 1_655 S
S681 N682 1.613 . S
S681 N683 1.610 . S
N682 S681 1.613 . S
N682 C685 1.350 . S
N683 S681 1.610 . S
N683 C684 1.351 . S
C684 C678 1.428 . S
C684 N683 1.351 . S
C684 C685 1.434 . S
C685 C676 1.429 1_565 S
C685 N682 1.350 . S
C685 C684 1.434 . S
C686 C687 1.369 . S
C686 C688 1.419 1_556 S
C686 H690 0.930 . S
C687 C686 1.369 . S
C687 C696 1.429 . S
C688 C686 1.419 1_554 S
C688 C689 1.363 . S
C688 H691 0.929 . S
C689 C688 1.363 . S
C689 C695 1.428 . S
H690 C686 0.930 . S
H691 C688 0.929 . S
S692 N693 1.613 1_554 S
S692 N694 1.610 . S
N693 S692 1.613 1_556 S
N693 C696 1.350 . S
N694 S692 1.610 . S
N694 C695 1.351 . S
C695 C689 1.428 . S
C695 N694 1.351 . S
C695 C696 1.434 1_554 S
C696 C687 1.429 . S
C696 N693 1.350 . S
C696 C695 1.434 1_556 S
C697 C698 1.369 1_545 S
C697 C699 1.419 . S
C697 H701 0.930 . S
C698 C697 1.369 1_565 S
C698 C707 1.429 . S
C699 C697 1.419 . S
C699 C700 1.363 . S
C699 H702 0.929 . S
C700 C699 1.363 . S
C700 C706 1.428 1_545 S
H701 C697 0.930 . S
H702 C699 0.929 . S
S703 N704 1.613 . S
S703 N705 1.610 . S
N704 S703 1.613 . S
N704 C707 1.350 . S
N705 S703 1.610 . S
N705 C706 1.351 . S
C706 C700 1.428 1_565 S
C706 N705 1.351 . S
C706 C707 1.434 . S
C707 C698 1.429 . S
C707 N704 1.350 . S
C707 C706 1.434 . S
C708 C709 1.369 . S
C708 C710 1.419 . S
C708 H712 0.930 . S
C709 C708 1.369 . S
C709 C718 1.429 . S
C710 C708 1.419 . S
C710 C711 1.363 . S
C710 H713 0.929 . S
C711 C710 1.363 . S
C711 C717 1.428 . S
H712 C708 0.930 . S
H713 C710 0.929 . S
S714 N715 1.613 . S
S714 N716 1.610 . S
N715 S714 1.613 . S
N715 C718 1.350 . S
N716 S714 1.610 . S
N716 C717 1.351 . S
C717 C711 1.428 . S
C717 N716 1.351 . S
C717 C718 1.434 . S
C718 C709 1.429 . S
C718 N715 1.350 . S
C718 C717 1.434 . S
C719 C720 1.369 . S
C719 C721 1.419 . S
C719 H723 0.930 . S
C720 C719 1.369 . S
C720 C729 1.429 1_655 S
C721 C719 1.419 . S
C721 C722 1.363 1_655 S
C721 H724 0.929 . S
C722 C721 1.363 1_455 S
C722 C728 1.428 . S
H723 C719 0.930 . S
H724 C721 0.929 . S
S725 N726 1.613 . S
S725 N727 1.610 . S
N726 S725 1.613 . S
N726 C729 1.350 . S
N727 S725 1.610 . S
N727 C728 1.351 . S
C728 C722 1.428 . S
C728 N727 1.351 . S
C728 C729 1.434 . S
C729 C720 1.429 1_455 S
C729 N726 1.350 . S
C729 C728 1.434 . S
C730 C731 1.369 . S
C730 C732 1.419 1_655 S
C730 H734 0.930 . S
C731 C730 1.369 . S
C731 C740 1.429 . S
C732 C730 1.419 1_455 S
C732 C733 1.363 . S
C732 H735 0.929 . S
C733 C732 1.363 . S
C733 C739 1.428 . S
H734 C730 0.930 . S
H735 C732 0.929 . S
S736 N737 1.613 1_455 S
S736 N738 1.610 . S
N737 S736 1.613 1_655 S
N737 C740 1.350 . S
N738 S736 1.610 . S
N738 C739 1.351 . S
C739 C733 1.428 . S
C739 N738 1.351 . S
C739 C740 1.434 1_455 S
C740 C731 1.429 . S
C740 N737 1.350 . S
C740 C739 1.434 1_655 S
C741 C742 1.369 . S
C741 C743 1.419 . S
C741 H745 0.930 1_554 S
C742 C741 1.369 . S
C742 C751 1.429 . S
C743 C741 1.419 . S
C743 C744 1.363 . S
C743 H746 0.929 1_554 S
C744 C743 1.363 . S
C744 C750 1.428 . S
H745 C741 0.930 1_556 S
H746 C743 0.929 1_556 S
S747 N748 1.613 . S
S747 N749 1.610 . S
N748 S747 1.613 . S
N748 C751 1.350 . S
N749 S747 1.610 . S
N749 C750 1.351 . S
C750 C744 1.428 . S
C750 N749 1.351 . S
C750 C751 1.434 . S
C751 C742 1.429 . S
C751 N748 1.350 . S
C751 C750 1.434 . S
C752 C753 1.369 . S
C752 C754 1.419 . S
C752 H756 0.930 . S
C753 C752 1.369 . S
C753 C762 1.429 . S
C754 C752 1.419 . S
C754 C755 1.363 . S
C754 H757 0.929 . S
C755 C754 1.363 . S
C755 C761 1.428 . S
H756 C752 0.930 . S
H757 C754 0.929 . S
S758 N759 1.613 . S
S758 N760 1.610 . S
N759 S758 1.613 . S
N759 C762 1.350 . S
N760 S758 1.610 . S
N760 C761 1.351 . S
C761 C755 1.428 . S
C761 N760 1.351 . S
C761 C762 1.434 . S
C762 C753 1.429 . S
C762 N759 1.350 . S
C762 C761 1.434 . S
C763 C764 1.369 . S
C763 C765 1.419 . S
C763 H767 0.930 . S
C764 C763 1.369 . S
C764 C773 1.429 . S
C765 C763 1.419 . S
C765 C766 1.363 . S
C765 H768 0.929 . S
C766 C765 1.363 . S
C766 C772 1.428 . S
H767 C763 0.930 . S
H768 C765 0.929 . S
S769 N770 1.613 . S
S769 N771 1.610 . S
N770 S769 1.613 . S
N770 C773 1.350 . S
N771 S769 1.610 . S
N771 C772 1.351 . S
C772 C766 1.428 . S
C772 N771 1.351 . S
C772 C773 1.434 . S
C773 C764 1.429 . S
C773 N770 1.350 . S
C773 C772 1.434 . S
C774 C775 1.369 . S
C774 C776 1.419 1_455 S
C774 H778 0.930 . S
C775 C774 1.369 . S
C775 C784 1.429 . S
C776 C774 1.419 1_655 S
C776 C777 1.363 . S
C776 H779 0.929 . S
C777 C776 1.363 . S
C777 C783 1.428 . S
H778 C774 0.930 . S
H779 C776 0.929 . S
S780 N781 1.616 . S
S780 N782 1.607 1_455 S
N781 S780 1.616 . S
N781 C784 1.350 . S
N782 S780 1.607 1_655 S
N782 C783 1.351 . S
C783 C777 1.428 . S
C783 N782 1.351 . S
C783 C784 1.434 1_655 S
C784 C775 1.429 . S
C784 N781 1.350 . S
C784 C783 1.434 1_455 S
C785 C786 1.369 1_655 S
C785 C787 1.419 . S
C785 H789 0.930 . S
C786 C785 1.369 1_455 S
C786 C795 1.429 . S
C787 C785 1.419 . S
C787 C788 1.363 . S
C787 H790 0.929 . S
C788 C787 1.363 . S
C788 C794 1.428 1_655 S
H789 C785 0.930 . S
H790 C787 0.929 . S
S791 N792 1.613 . S
S791 N793 1.610 . S
N792 S791 1.613 . S
N792 C795 1.350 . S
N793 S791 1.610 . S
N793 C794 1.351 . S
C794 C788 1.428 1_455 S
C794 N793 1.351 . S
C794 C795 1.434 . S
C795 C786 1.429 . S
C795 N792 1.350 . S
C795 C794 1.434 . S
C796 C797 1.369 . S
C796 C798 1.419 . S
C796 H800 0.930 . S
C797 C796 1.369 . S
C797 C806 1.429 . S
C798 C796 1.419 . S
C798 C799 1.363 . S
C798 H801 0.929 . S
C799 C798 1.363 . S
C799 C805 1.428 . S
H800 C796 0.930 . S
H801 C798 0.929 . S
S802 N803 1.613 . S
S802 N804 1.610 . S
N803 S802 1.613 . S
N803 C806 1.350 . S
N804 S802 1.610 . S
N804 C805 1.351 . S
C805 C799 1.428 . S
C805 N804 1.351 . S
C805 C806 1.434 . S
C806 C797 1.429 . S
C806 N803 1.350 . S
C806 C805 1.434 . S
C807 C808 1.369 . S
C807 C809 1.419 1_545 S
C807 H811 0.930 . S
C808 C807 1.369 . S
C808 C817 1.429 . S
C809 C807 1.419 1_565 S
C809 C810 1.363 . S
C809 H812 0.929 . S
C810 C809 1.363 . S
C810 C816 1.428 . S
H811 C807 0.930 . S
H812 C809 0.929 . S
S813 N814 1.613 1_565 S
S813 N815 1.610 . S
N814 S813 1.613 1_545 S
N814 C817 1.350 . S
N815 S813 1.610 . S
N815 C816 1.351 . S
C816 C810 1.428 . S
C816 N815 1.351 . S
C816 C817 1.434 1_565 S
C817 C808 1.429 . S
C817 N814 1.350 . S
C817 C816 1.434 1_545 S
C818 C819 1.369 . S
C818 C820 1.419 . S
C818 H822 0.930 . S
C819 C818 1.369 . S
C819 C828 1.429 1_554 S
C820 C818 1.419 . S
C820 C821 1.348 1_554 S
C820 H823 0.929 . S
C821 C820 1.348 1_556 S
C821 C827 1.443 . S
H822 C818 0.930 . S
H823 C820 0.929 . S
S824 N825 1.613 . S
S824 N826 1.610 . S
N825 S824 1.613 . S
N825 C828 1.350 . S
N826 S824 1.610 . S
N826 C827 1.351 . S
C827 C821 1.443 . S
C827 N826 1.351 . S
C827 C828 1.434 . S
C828 C819 1.429 1_556 S
C828 N825 1.350 . S
C828 C827 1.434 . S
C829 C830 1.369 . S
C829 C831 1.419 1_545 S
C829 H833 0.930 . S
C830 C829 1.369 . S
C830 C839 1.429 . S
C831 C829 1.419 1_565 S
C831 C832 1.363 . S
C831 H834 0.929 . S
C832 C831 1.363 . S
C832 C838 1.428 . S
H833 C829 0.930 . S
H834 C831 0.929 . S
S835 N836 1.613 1_565 S
S835 N837 1.610 . S
N836 S835 1.613 1_545 S
N836 C839 1.350 . S
N837 S835 1.610 . S
N837 C838 1.351 . S
C838 C832 1.428 . S
C838 N837 1.351 . S
C838 C839 1.434 1_565 S
C839 C830 1.429 . S
C839 N836 1.350 . S
C839 C838 1.434 1_545 S
C840 C841 1.369 1_554 S
C840 C842 1.419 . S
C840 H844 0.930 . S
C841 C840 1.369 1_556 S
C841 C850 1.429 1_565 S
C842 C840 1.419 . S
C842 C843 1.363 . S
C842 H845 0.929 . S
C843 C842 1.363 . S
C843 C849 1.428 1_564 S
H844 C840 0.930 . S
H845 C842 0.929 . S
S846 N847 1.613 . S
S846 N848 1.610 . S
N847 S846 1.613 . S
N847 C850 1.350 . S
N848 S846 1.610 . S
N848 C849 1.351 . S
C849 C843 1.428 1_546 S
C849 N848 1.351 . S
C849 C850 1.434 . S
C850 C841 1.429 1_545 S
C850 N847 1.350 . S
C850 C849 1.434 . S
C851 C852 1.369 . S
C851 C853 1.419 . S
C851 H855 0.930 . S
C852 C851 1.369 . S
C852 C861 1.429 . S
C853 C851 1.419 . S
C853 C854 1.363 . S
C853 H856 0.929 . S
C854 C853 1.363 . S
C854 C860 1.428 . S
H855 C851 0.930 . S
H856 C853 0.929 . S
S857 N858 1.613 . S
S857 N859 1.610 . S
N858 S857 1.613 . S
N858 C861 1.350 . S
N859 S857 1.610 . S
N859 C860 1.351 . S
C860 C854 1.428 . S
C860 N859 1.351 . S
C860 C861 1.434 . S
C861 C852 1.429 . S
C861 N858 1.350 . S
C861 C860 1.434 . S
C862 C863 1.369 . S
C862 C864 1.419 . S
C862 H866 0.930 . S
C863 C862 1.369 . S
C863 C872 1.429 . S
C864 C862 1.419 . S
C864 C865 1.363 . S
C864 H867 0.929 . S
C865 C864 1.363 . S
C865 C871 1.428 . S
H866 C862 0.930 . S
H867 C864 0.929 . S
S868 N869 1.613 . S
S868 N870 1.610 . S
N869 S868 1.613 . S
N869 C872 1.350 . S
N870 S868 1.610 . S
N870 C871 1.351 . S
C871 C865 1.428 . S
C871 N870 1.351 . S
C871 C872 1.434 . S
C872 C863 1.429 . S
C872 N869 1.350 . S
C872 C871 1.434 . S
C873 C874 1.369 . S
C873 C875 1.419 1_556 S
C873 H877 0.930 . S
C874 C873 1.369 . S
C874 C883 1.429 . S
C875 C873 1.419 1_554 S
C875 C876 1.363 . S
C875 H878 0.929 . S
C876 C875 1.363 . S
C876 C882 1.428 . S
H877 C873 0.930 . S
H878 C875 0.929 . S
S879 N880 1.613 1_554 S
S879 N881 1.610 . S
N880 S879 1.613 1_556 S
N880 C883 1.350 . S
N881 S879 1.610 . S
N881 C882 1.351 . S
C882 C876 1.428 . S
C882 N881 1.351 . S
C882 C883 1.434 1_554 S
C883 C874 1.429 . S
C883 N880 1.350 . S
C883 C882 1.434 1_556 S
C884 C885 1.369 . S
C884 C886 1.419 . S
C884 H888 0.930 . S
C885 C884 1.369 . S
C885 C894 1.429 . S
C886 C884 1.419 . S
C886 C887 1.363 . S
C886 H889 0.929 . S
C887 C886 1.363 . S
C887 C893 1.428 . S
H888 C884 0.930 . S
H889 C886 0.929 . S
S890 N891 1.613 . S
S890 N892 1.610 . S
N891 S890 1.613 . S
N891 C894 1.350 . S
N892 S890 1.610 . S
N892 C893 1.351 . S
C893 C887 1.428 . S
C893 N892 1.351 . S
C893 C894 1.434 . S
C894 C885 1.429 . S
C894 N891 1.350 . S
C894 C893 1.434 . S
C895 C896 1.369 . S
C895 C897 1.419 . S
C895 H899 0.930 . S
C896 C895 1.369 . S
C896 C905 1.429 . S
C897 C895 1.419 . S
C897 C898 1.363 . S
C897 H900 0.929 . S
C898 C897 1.363 . S
C898 C904 1.428 . S
H899 C895 0.930 . S
H900 C897 0.929 . S
S901 N902 1.613 . S
S901 N903 1.610 . S
N902 S901 1.613 . S
N902 C905 1.350 . S
N903 S901 1.610 . S
N903 C904 1.351 . S
C904 C898 1.428 . S
C904 N903 1.351 . S
C904 C905 1.434 . S
C905 C896 1.429 . S
C905 N902 1.350 . S
C905 C904 1.434 . S
C906 C907 1.369 . S
C906 C908 1.419 . S
C906 H910 0.930 . S
C907 C906 1.369 . S
C907 C916 1.429 . S
C908 C906 1.419 . S
C908 C909 1.363 . S
C908 H911 0.929 . S
C909 C908 1.363 . S
C909 C915 1.428 . S
H910 C906 0.930 . S
H911 C908 0.929 . S
S912 N913 1.613 . S
S912 N914 1.610 . S
N913 S912 1.613 . S
N913 C916 1.350 1_455 S
N914 S912 1.610 . S
N914 C915 1.351 1_455 S
C915 C909 1.428 . S
C915 N914 1.351 1_655 S
C915 C916 1.434 . S
C916 C907 1.429 . S
C916 N913 1.350 1_655 S
C916 C915 1.434 . S
C917 C918 1.369 1_565 S
C917 C919 1.419 . S
C917 H921 0.930 . S
C918 C917 1.369 1_545 S
C918 C927 1.429 . S
C919 C917 1.419 . S
C919 C920 1.363 1_565 S
C919 H922 0.929 . S
C920 C919 1.363 1_545 S
C920 C926 1.428 . S
H921 C917 0.930 . S
H922 C919 0.929 . S
S923 N924 1.613 . S
S923 N925 1.610 . S
N924 S923 1.613 . S
N924 C927 1.350 . S
N925 S923 1.610 . S
N925 C926 1.351 . S
C926 C920 1.428 . S
C926 N925 1.351 . S
C926 C927 1.434 . S
C927 C918 1.429 . S
C927 N924 1.350 . S
C927 C926 1.434 . S
C577 C4 1.751 . S
C579 C256 1.752 . S
C588 C40 1.752 . S
C590 C148 1.750 . S
C599 C184 1.742 . S
C601 C76 1.744 . S
C610 C112 1.742 . S
C612 C220 1.744 . S
C621 C292 1.743 . S
C623 C436 1.743 . S
C632 C328 1.750 . S
C634 C508 1.752 . S
C643 C400 1.749 . S
C645 C364 1.753 . S
C654 C544 1.745 . S
C656 C472 1.742 . S
C665 C3 1.339 . S
C667 C219 1.337 . S
C676 C266 1.246 . S
C678 C50 1.244 . S
C687 C75 1.339 . S
C689 C147 1.335 . S
C698 C194 1.235 . S
C700 C122 1.237 . S
C709 C2 1.465 . S
C711 C506 1.464 . S
C720 C399 1.334 . S
C722 C39 1.338 . S
C731 C470 1.443 . S
C733 C74 1.445 . S
C742 C435 1.336 . S
C744 C111 1.335 . S
C753 C362 1.465 . S
C755 C146 1.465 . S
C764 C183 1.338 . S
C766 C543 1.334 . S
C775 C218 1.445 . S
C777 C290 1.444 . S
C786 C255 1.338 . S
C788 C327 1.335 . S
C797 C14 1.234 . S
C799 C158 1.236 . S
C808 C302 1.245 . S
C810 C482 1.246 . S
C819 C434 1.433 . S
C821 C326 1.432 . S
C830 C518 1.240 . S
C832 C374 1.240 . S
C841 C254 1.434 . S
C843 C110 1.433 . S
C852 C86 1.245 . S
C854 C230 1.246 . S
C863 C398 1.435 . S
C865 C542 1.431 . S
C874 C471 1.337 . S
C876 C363 1.337 . S
C885 C554 1.236 . S
C887 C446 1.234 . S
C896 C507 1.336 . S
C898 C291 1.339 . S
C907 C410 1.242 . S
C909 C338 1.240 . S
C918 C38 1.434 . S
C920 C182 1.430 . S
