# Generated by pormake.
# Topology lll, (7)-cn, num edge types: 1
# Building blocks:
#     Node 0, Type 0, BuildingBlock: NUHQUE_clean_sbu_2, # of connection points: 7
#     Node 1, Type 0, BuildingBlock: NUHQUE_clean_sbu_2, # of connection points: 7
#     Node 2, Type 0, BuildingBlock: NUHQUE_clean_sbu_2, # of connection points: 7
#     Node 3, Type 0, BuildingBlock: NUHQUE_clean_sbu_2, # of connection points: 7
#     Node 4, Type 0, BuildingBlock: NUHQUE_clean_sbu_2, # of connection points: 7
#     Node 5, Type 0, BuildingBlock: NUHQUE_clean_sbu_2, # of connection points: 7
#     Node 6, Type 0, BuildingBlock: NUHQUE_clean_sbu_2, # of connection points: 7
#     Node 7, Type 0, BuildingBlock: NUHQUE_clean_sbu_2, # of connection points: 7
#     Node 8, Type 0, BuildingBlock: NUHQUE_clean_sbu_2, # of connection points: 7
#     Node 9, Type 0, BuildingBlock: NUHQUE_clean_sbu_2, # of connection points: 7
#     Node 10, Type 0, BuildingBlock: NUHQUE_clean_sbu_2, # of connection points: 7
#     Node 11, Type 0, BuildingBlock: NUHQUE_clean_sbu_2, # of connection points: 7
#     Node 12, Type 0, BuildingBlock: NUHQUE_clean_sbu_2, # of connection points: 7
#     Node 13, Type 0, BuildingBlock: NUHQUE_clean_sbu_2, # of connection points: 7
#     Node 14, Type 0, BuildingBlock: NUHQUE_clean_sbu_2, # of connection points: 7
#     Node 15, Type 0, BuildingBlock: NUHQUE_clean_sbu_2, # of connection points: 7
#     Edge 16, Type (0, 0), BuildingBlock: ZUJKAS_clean_linker_0, # of connection points: 2
#     Edge 17, Type (0, 0), BuildingBlock: ZUJKAS_clean_linker_0, # of connection points: 2
#     Edge 18, Type (0, 0), BuildingBlock: ZUJKAS_clean_linker_0, # of connection points: 2
#     Edge 19, Type (0, 0), BuildingBlock: ZUJKAS_clean_linker_0, # of connection points: 2
#     Edge 20, Type (0, 0), BuildingBlock: ZUJKAS_clean_linker_0, # of connection points: 2
#     Edge 21, Type (0, 0), BuildingBlock: ZUJKAS_clean_linker_0, # of connection points: 2
#     Edge 22, Type (0, 0), BuildingBlock: ZUJKAS_clean_linker_0, # of connection points: 2
#     Edge 23, Type (0, 0), BuildingBlock: ZUJKAS_clean_linker_0, # of connection points: 2
#     Edge 24, Type (0, 0), BuildingBlock: ZUJKAS_clean_linker_0, # of connection points: 2
#     Edge 25, Type (0, 0), BuildingBlock: ZUJKAS_clean_linker_0, # of connection points: 2
#     Edge 26, Type (0, 0), BuildingBlock: ZUJKAS_clean_linker_0, # of connection points: 2
#     Edge 27, Type (0, 0), BuildingBlock: ZUJKAS_clean_linker_0, # of connection points: 2
#     Edge 28, Type (0, 0), BuildingBlock: ZUJKAS_clean_linker_0, # of connection points: 2
#     Edge 29, Type (0, 0), BuildingBlock: ZUJKAS_clean_linker_0, # of connection points: 2
#     Edge 30, Type (0, 0), BuildingBlock: ZUJKAS_clean_linker_0, # of connection points: 2
#     Edge 31, Type (0, 0), BuildingBlock: ZUJKAS_clean_linker_0, # of connection points: 2
#     Edge 32, Type (0, 0), BuildingBlock: ZUJKAS_clean_linker_0, # of connection points: 2
#     Edge 33, Type (0, 0), BuildingBlock: ZUJKAS_clean_linker_0, # of connection points: 2
#     Edge 34, Type (0, 0), BuildingBlock: ZUJKAS_clean_linker_0, # of connection points: 2
#     Edge 35, Type (0, 0), BuildingBlock: ZUJKAS_clean_linker_0, # of connection points: 2
#     Edge 36, Type (0, 0), BuildingBlock: ZUJKAS_clean_linker_0, # of connection points: 2
#     Edge 37, Type (0, 0), BuildingBlock: ZUJKAS_clean_linker_0, # of connection points: 2
#     Edge 38, Type (0, 0), BuildingBlock: ZUJKAS_clean_linker_0, # of connection points: 2
#     Edge 39, Type (0, 0), BuildingBlock: ZUJKAS_clean_linker_0, # of connection points: 2
#     Edge 40, Type (0, 0), BuildingBlock: ZUJKAS_clean_linker_0, # of connection points: 2
#     Edge 41, Type (0, 0), BuildingBlock: ZUJKAS_clean_linker_0, # of connection points: 2
#     Edge 42, Type (0, 0), BuildingBlock: ZUJKAS_clean_linker_0, # of connection points: 2
#     Edge 43, Type (0, 0), BuildingBlock: ZUJKAS_clean_linker_0, # of connection points: 2
#     Edge 44, Type (0, 0), BuildingBlock: ZUJKAS_clean_linker_0, # of connection points: 2
#     Edge 45, Type (0, 0), BuildingBlock: ZUJKAS_clean_linker_0, # of connection points: 2
#     Edge 46, Type (0, 0), BuildingBlock: ZUJKAS_clean_linker_0, # of connection points: 2
#     Edge 47, Type (0, 0), BuildingBlock: ZUJKAS_clean_linker_0, # of connection points: 2
#     Edge 48, Type (0, 0), BuildingBlock: ZUJKAS_clean_linker_0, # of connection points: 2
#     Edge 49, Type (0, 0), BuildingBlock: ZUJKAS_clean_linker_0, # of connection points: 2
#     Edge 50, Type (0, 0), BuildingBlock: ZUJKAS_clean_linker_0, # of connection points: 2
#     Edge 51, Type (0, 0), BuildingBlock: ZUJKAS_clean_linker_0, # of connection points: 2
#     Edge 52, Type (0, 0), BuildingBlock: ZUJKAS_clean_linker_0, # of connection points: 2
#     Edge 53, Type (0, 0), BuildingBlock: ZUJKAS_clean_linker_0, # of connection points: 2
#     Edge 54, Type (0, 0), BuildingBlock: ZUJKAS_clean_linker_0, # of connection points: 2
#     Edge 55, Type (0, 0), BuildingBlock: ZUJKAS_clean_linker_0, # of connection points: 2
#     Edge 56, Type (0, 0), BuildingBlock: ZUJKAS_clean_linker_0, # of connection points: 2
#     Edge 57, Type (0, 0), BuildingBlock: ZUJKAS_clean_linker_0, # of connection points: 2
#     Edge 58, Type (0, 0), BuildingBlock: ZUJKAS_clean_linker_0, # of connection points: 2
#     Edge 59, Type (0, 0), BuildingBlock: ZUJKAS_clean_linker_0, # of connection points: 2
#     Edge 60, Type (0, 0), BuildingBlock: ZUJKAS_clean_linker_0, # of connection points: 2
#     Edge 61, Type (0, 0), BuildingBlock: ZUJKAS_clean_linker_0, # of connection points: 2
#     Edge 62, Type (0, 0), BuildingBlock: ZUJKAS_clean_linker_0, # of connection points: 2
#     Edge 63, Type (0, 0), BuildingBlock: ZUJKAS_clean_linker_0, # of connection points: 2
#     Edge 64, Type (0, 0), BuildingBlock: ZUJKAS_clean_linker_0, # of connection points: 2
#     Edge 65, Type (0, 0), BuildingBlock: ZUJKAS_clean_linker_0, # of connection points: 2
#     Edge 66, Type (0, 0), BuildingBlock: ZUJKAS_clean_linker_0, # of connection points: 2
#     Edge 67, Type (0, 0), BuildingBlock: ZUJKAS_clean_linker_0, # of connection points: 2
#     Edge 68, Type (0, 0), BuildingBlock: ZUJKAS_clean_linker_0, # of connection points: 2
#     Edge 69, Type (0, 0), BuildingBlock: ZUJKAS_clean_linker_0, # of connection points: 2
#     Edge 70, Type (0, 0), BuildingBlock: ZUJKAS_clean_linker_0, # of connection points: 2
#     Edge 71, Type (0, 0), BuildingBlock: ZUJKAS_clean_linker_0, # of connection points: 2
# Relax obj value: 0.447
# Max RMSD: 0.287
# Mean RMSD: 0.287
data_MOF--net-lll--node1-NUHQUE_clean_sbu_2--edge1-ZUJKAS_clean_linker_0
_symmetry_space_group_name_H-M    P1
_symmetry_Int_Tables_number       1
_symmetry_cell_setting            triclinic
loop_
_symmetry_equiv_pos_as_xyz
'x, y, z'
_cell_length_a     59.10144
_cell_length_b     59.086309
_cell_length_c     59.760955
_cell_angle_alpha  90.010765
_cell_angle_beta   89.88359
_cell_angle_gamma 90.053829
loop_
_atom_site_label
_atom_site_type_symbol
_atom_site_fract_x
_atom_site_fract_y
_atom_site_fract_z
_atom_type_partial_charge
O0 O 0.70755 0.11359 1.00769 0.0
Tb1 Tb 0.69757 0.14194 0.02873 0.0
Eu2 Eu 0.66259 0.17428 0.06083 0.0
C3 C 0.69321 0.10336 0.99424 0.0
O4 O 0.67155 0.10804 0.99584 0.0
C5 C 0.6601 0.17382 1.00652 0.0
O6 O 0.6725 0.20864 0.0731 0.0
C7 C 0.62684 0.15742 0.07959 0.0
C8 C 0.68745 0.22047 0.06167 0.0
O9 O 0.69144 0.21499 0.04073 0.0
C10 C 0.70048 0.14049 0.07954 0.0
C11 C 0.61979 0.14437 0.09957 0.0
C12 C 0.60431 0.12659 0.09646 0.0
C13 C 0.59723 0.11324 0.11455 0.0
C14 C 0.60573 0.11778 0.13591 0.0
C15 C 0.62077 0.13574 0.13959 0.0
C16 C 0.62784 0.14917 0.12136 0.0
O17 O 0.67145 0.15457 1.00578 0.0
O18 O 0.6573 0.18526 0.02519 0.0
O19 O 0.73262 0.14949 0.0205 0.0
O20 O 0.71416 0.1728 0.04042 0.0
C21 C 0.73391 0.1681 0.03198 0.0
O22 O 0.69292 0.16132 0.07919 0.0
O23 O 0.69713 0.12698 0.06222 0.0
O24 O 0.63322 0.1786 0.08243 0.0
O25 O 0.63894 0.14636 0.06459 0.0
H26 H 0.59782 0.12305 0.07985 0.0
H27 H 0.59985 0.10784 0.15005 0.0
H28 H 0.63947 0.16307 0.12411 0.0
O29 O 0.86019 0.25452 0.24515 0.0
Tb30 Tb 0.86275 0.23134 0.27341 0.0
Eu31 Eu 0.87792 0.18344 0.30312 0.0
C32 C 0.87866 0.25742 0.23311 0.0
O33 O 0.89743 0.24789 0.24014 0.0
C34 C 0.86255 0.18533 0.25048 0.0
O35 O 0.85254 0.18307 0.33135 0.0
C36 C 0.90286 0.14893 0.31317 0.0
C37 C 0.8486 0.20039 0.34467 0.0
O38 O 0.85571 0.22069 0.33936 0.0
C39 C 0.89463 0.23683 0.31505 0.0
C40 C 0.9139 0.13915 0.33302 0.0
C41 C 0.93087 0.12303 0.32972 0.0
C42 C 0.93966 0.1108 0.3478 0.0
C43 C 0.93163 0.11528 0.3695 0.0
C44 C 0.914 0.13095 0.37324 0.0
C45 C 0.90548 0.14313 0.35478 0.0
O46 O 0.87166 0.20553 0.24921 0.0
O47 O 0.86031 0.17527 0.27001 0.0
O48 O 0.82833 0.23957 0.28455 0.0
O49 O 0.84271 0.20769 0.29288 0.0
C50 C 0.82503 0.22041 0.29495 0.0
O51 O 0.89399 0.21475 0.31897 0.0
O52 O 0.88654 0.24617 0.29667 0.0
O53 O 0.88069 0.14867 0.31368 0.0
O54 O 0.91139 0.1676 0.30452 0.0
H55 H 0.93669 0.11939 0.31287 0.0
H56 H 0.93854 0.10575 0.38337 0.0
H57 H 0.89151 0.15477 0.35705 0.0
O58 O 0.7822 0.36975 0.51107 0.0
Tb59 Tb 0.80383 0.36316 0.53975 0.0
Eu60 Eu 0.84921 0.35858 0.57491 0.0
C61 C 0.78621 0.38682 0.49748 0.0
O62 O 0.80262 0.40103 0.50227 0.0
C63 C 0.851 0.3541 0.52053 0.0
O64 O 0.84125 0.32755 0.59507 0.0
C65 C 0.88386 0.37982 0.59132 0.0
C66 C 0.83667 0.33035 0.61642 0.0
O67 O 0.842 0.34968 0.62585 0.0
C68 C 0.79845 0.38079 0.58733 0.0
C69 C 0.89366 0.39112 0.61119 0.0
C70 C 0.91002 0.408 0.60773 0.0
C71 C 0.92082 0.41846 0.6259 0.0
C72 C 0.91481 0.41215 0.64777 0.0
C73 C 0.89874 0.39502 0.65169 0.0
C74 C 0.88833 0.38444 0.63323 0.0
O75 O 0.83406 0.36847 0.5197 0.0
O76 O 0.85728 0.34526 0.53982 0.0
O77 O 0.78345 0.33241 0.54274 0.0
O78 O 0.81731 0.33208 0.55446 0.0
C79 C 0.79907 0.32012 0.55202 0.0
O80 O 0.81663 0.36911 0.59276 0.0
O81 O 0.79384 0.38587 0.56644 0.0
O82 O 0.88146 0.35768 0.59215 0.0
O83 O 0.86746 0.39025 0.58048 0.0
H84 H 0.91462 0.41278 0.5908 0.0
H85 H 0.92353 0.41984 0.6618 0.0
H86 H 0.87629 0.37101 0.63607 0.0
O87 O 0.60772 0.29489 0.74477 0.0
Tb88 Tb 0.61509 0.31564 0.77374 0.0
Eu89 Eu 0.6119 0.35796 0.81317 0.0
C90 C 0.59329 0.30239 0.72981 0.0
O91 O 0.58282 0.32164 0.7335 0.0
C92 C 0.63031 0.36214 0.76299 0.0
O93 O 0.63251 0.35534 0.84452 0.0
C94 C 0.58458 0.39121 0.82117 0.0
C95 C 0.62371 0.34813 0.86356 0.0
O96 O 0.60227 0.34258 0.86494 0.0
C97 C 0.59181 0.30468 0.81822 0.0
C98 C 0.57193 0.39968 0.84074 0.0
C99 C 0.55534 0.4163 0.83783 0.0
C100 C 0.54503 0.42642 0.8565 0.0
C101 C 0.55106 0.41944 0.87815 0.0
C102 C 0.56801 0.40316 0.88139 0.0
C103 C 0.5784 0.39349 0.86254 0.0
O104 O 0.61327 0.34874 0.75864 0.0
O105 O 0.63615 0.36476 0.78407 0.0
O106 O 0.64931 0.30197 0.77155 0.0
O107 O 0.63929 0.31963 0.80098 0.0
C108 C 0.65569 0.30885 0.79125 0.0
O109 O 0.59974 0.32385 0.82634 0.0
O110 O 0.5912 0.30045 0.79661 0.0
O111 O 0.60667 0.39266 0.82309 0.0
O112 O 0.57771 0.37211 0.81189 0.0
H113 H 0.55104 0.42194 0.82111 0.0
H114 H 0.54316 0.42741 0.89252 0.0
H115 H 0.59247 0.38224 0.86485 0.0
O116 O 0.69529 0.35981 0.26645 0.0
Tb117 Tb 0.68193 0.33355 0.24462 0.0
Eu118 Eu 0.64291 0.33035 0.19218 0.0
C119 C 0.68268 0.36903 0.28216 0.0
O120 O 0.66071 0.3658 0.28169 0.0
C121 C 0.63304 0.31969 0.2429 0.0
O122 O 0.66649 0.30622 0.17481 0.0
C123 C 0.60952 0.3473 0.16954 0.0
C124 C 0.67642 0.29024 0.18655 0.0
O125 O 0.66769 0.28442 0.20588 0.0
C126 C 0.69326 0.34691 0.19483 0.0
C127 C 0.60204 0.36429 0.15283 0.0
C128 C 0.58632 0.38084 0.15966 0.0
C129 C 0.57761 0.39661 0.14438 0.0
C130 C 0.58477 0.39569 0.12202 0.0
C131 C 0.60011 0.37909 0.11463 0.0
C132 C 0.60872 0.36336 0.13018 0.0
O133 O 0.64558 0.338 0.2451 0.0
O134 O 0.63031 0.31146 0.22264 0.0
O135 O 0.69648 0.31365 0.27184 0.0
O136 O 0.6774 0.29691 0.2469 0.0
C137 C 0.68826 0.29433 0.26549 0.0
O138 O 0.67234 0.35473 0.19396 0.0
O139 O 0.70049 0.3364 0.21299 0.0
O140 O 0.62092 0.32933 0.16285 0.0
O141 O 0.61605 0.35512 0.18913 0.0
H142 H 0.58064 0.3813 0.17692 0.0
H143 H 0.57737 0.40726 0.11001 0.0
H144 H 0.6204 0.35039 0.1246 0.0
O145 O 0.62237 0.19547 0.50792 0.0
Tb146 Tb 0.63738 0.17037 0.48593 0.0
Eu147 Eu 0.62305 0.12074 0.45138 0.0
C148 C 0.6022 0.19305 0.51696 0.0
O149 O 0.58928 0.17603 0.51095 0.0
C150 C 0.62795 0.12333 0.5039 0.0
O151 O 0.66012 0.12727 0.449 0.0
C152 C 0.60927 0.08729 0.4269 0.0
C153 C 0.66905 0.13856 0.43235 0.0
O154 O 0.65627 0.14467 0.41543 0.0
C155 C 0.61809 0.17306 0.43613 0.0
C156 C 0.59561 0.08275 0.4066 0.0
C157 C 0.57753 0.0674 0.40807 0.0
C158 C 0.56484 0.06154 0.38908 0.0
C159 C 0.57044 0.0714 0.36835 0.0
C160 C 0.58857 0.08685 0.36638 0.0
C161 C 0.601 0.09248 0.38573 0.0
O162 O 0.61809 0.14271 0.49994 0.0
O163 O 0.63089 0.10966 0.48687 0.0
O164 O 0.66832 0.18825 0.49394 0.0
O165 O 0.6693 0.15229 0.49182 0.0
C166 C 0.68111 0.17051 0.49554 0.0
O167 O 0.60762 0.15329 0.43773 0.0
O168 O 0.63277 0.1801 0.45118 0.0
O169 O 0.62906 0.09719 0.42413 0.0
O170 O 0.59823 0.0943 0.44481 0.0
H171 H 0.57373 0.05951 0.42403 0.0
H172 H 0.56039 0.06723 0.35378 0.0
H173 H 0.61524 0.10396 0.38444 0.0
O174 O 0.77696 0.07809 0.76815 0.0
Tb175 Tb 0.78531 0.10795 0.74862 0.0
Eu176 Eu 0.81779 0.12581 0.69072 0.0
C177 C 0.79037 0.07184 0.78456 0.0
O178 O 0.81106 0.07995 0.78501 0.0
C179 C 0.82917 0.13364 0.74191 0.0
O180 O 0.79181 0.14868 0.67536 0.0
C181 C 0.85143 0.11876 0.66338 0.0
C182 C 0.77365 0.15477 0.68655 0.0
O183 O 0.77104 0.14776 0.70718 0.0
C184 C 0.77297 0.09822 0.69855 0.0
C185 C 0.86062 0.10645 0.64364 0.0
C186 C 0.87567 0.08838 0.64728 0.0
C187 C 0.887 0.07805 0.62938 0.0
C188 C 0.88321 0.08582 0.60759 0.0
C189 C 0.86918 0.10456 0.60343 0.0
C190 C 0.85753 0.11458 0.62156 0.0
O191 O 0.82128 0.11276 0.74324 0.0
O192 O 0.82916 0.14375 0.72225 0.0
O193 O 0.77731 0.12306 0.78108 0.0
O194 O 0.77472 0.14322 0.7519 0.0
C195 C 0.77294 0.14313 0.77355 0.0
O196 O 0.795 0.09564 0.69605 0.0
O197 O 0.76463 0.10257 0.71866 0.0
O198 O 0.83616 0.13459 0.66022 0.0
O199 O 0.84848 0.10743 0.68213 0.0
H200 H 0.87918 0.08273 0.66418 0.0
H201 H 0.89224 0.0779 0.59386 0.0
H202 H 0.84711 0.12935 0.61862 0.0
O203 O 0.90222 0.3178 0.98829 0.0
Tb204 Tb 0.88432 0.28554 0.98642 0.0
Eu205 Eu 0.86279 0.32517 0.95514 0.0
C206 C 0.90562 0.33009 1.00651 0.0
O207 O 0.91632 0.34947 1.0045 0.0
C208 C 0.84166 0.31185 1.00313 0.0
O209 O 0.83891 0.33861 0.92967 0.0
C210 C 0.90117 0.3442 0.94516 0.0
C211 C 0.84081 0.33073 0.90917 0.0
O212 O 0.85787 0.31743 0.9042 0.0
C213 C 0.86903 0.27475 0.9381 0.0
C214 C 0.91153 0.3563 0.92597 0.0
C215 C 0.92665 0.37411 0.93047 0.0
C216 C 0.93539 0.38746 0.91303 0.0
C217 C 0.92855 0.38307 0.891 0.0
C218 C 0.91307 0.36576 0.88607 0.0
C219 C 0.90502 0.352 0.90364 0.0
O220 O 0.85078 0.29161 1.00082 0.0
O221 O 0.84804 0.32878 0.99011 0.0
O222 O 0.90755 0.27399 0.01263 0.0
O223 O 0.88823 0.24993 0.99508 0.0
C224 C 0.90324 0.25256 1.01067 0.0
O225 O 0.85408 0.29077 0.94117 0.0
O226 O 0.88645 0.27334 0.95171 0.0
O227 O 0.88439 0.35489 0.95501 0.0
O228 O 0.89778 0.32221 0.9434 0.0
H229 H 0.93143 0.37774 0.94762 0.0
H230 H 0.93489 0.39368 0.87757 0.0
H231 H 0.89316 0.33864 0.90001 0.0
O232 O 0.23921 0.63627 0.49108 0.0
Tb233 Tb 0.21853 0.64312 0.52073 0.0
Eu234 Eu 0.17679 0.63506 0.56559 0.0
C235 C 0.2303 0.62851 0.47237 0.0
O236 O 0.20878 0.623 0.47205 0.0
C237 C 0.16883 0.64544 0.51326 0.0
O238 O 0.19077 0.65827 0.59234 0.0
C239 C 0.14193 0.61519 0.58353 0.0
C240 C 0.21186 0.66546 0.59298 0.0
O241 O 0.2251 0.66299 0.57562 0.0
C242 C 0.22929 0.61743 0.56646 0.0
C243 C 0.13382 0.60225 0.60319 0.0
C244 C 0.11832 0.58458 0.59963 0.0
C245 C 0.1088 0.57283 0.61776 0.0
C246 C 0.11496 0.57888 0.6396 0.0
C247 C 0.13006 0.59681 0.64367 0.0
C248 C 0.13955 0.60844 0.62529 0.0
O249 O 0.18569 0.63131 0.51027 0.0
O250 O 0.1644 0.65247 0.53373 0.0
O251 O 0.22767 0.67822 0.51306 0.0
O252 O 0.2038 0.67173 0.53862 0.0
C253 C 0.21435 0.68748 0.52779 0.0
O254 O 0.20763 0.61201 0.56866 0.0
O255 O 0.23709 0.62855 0.54881 0.0
O256 O 0.14691 0.63663 0.58664 0.0
O257 O 0.15552 0.60495 0.56929 0.0
H258 H 0.11333 0.58019 0.58272 0.0
H259 H 0.10688 0.57034 0.65356 0.0
H260 H 0.15107 0.62241 0.62819 0.0
O261 O 0.38269 0.74052 0.73927 0.0
Tb262 Tb 0.3684 0.72131 0.76707 0.0
Eu263 Eu 0.35907 0.68776 0.81641 0.0
C264 C 0.3945 0.73049 0.72342 0.0
O265 O 0.39869 0.70874 0.72515 0.0
C266 C 0.35893 0.67166 0.76411 0.0
O267 O 0.32803 0.7083 0.82491 0.0
C268 C 0.3607 0.65699 0.84783 0.0
C269 C 0.3288 0.72931 0.83219 0.0
O270 O 0.34777 0.74059 0.83143 0.0
C271 C 0.39067 0.73182 0.81411 0.0
C272 C 0.37441 0.64673 0.86608 0.0
C273 C 0.39297 0.63296 0.86059 0.0
C274 C 0.4047 0.62109 0.87715 0.0
C275 C 0.39836 0.6235 0.8996 0.0
C276 C 0.37967 0.6368 0.90573 0.0
C277 C 0.36753 0.64827 0.8888 0.0
O278 O 0.37585 0.68594 0.76115 0.0
O279 O 0.34783 0.67163 0.78339 0.0
O280 O 0.33583 0.72792 0.75047 0.0
O281 O 0.33642 0.71515 0.78352 0.0
C282 C 0.32349 0.72053 0.76697 0.0
O283 O 0.39053 0.70979 0.81794 0.0
O284 O 0.38174 0.74026 0.79562 0.0
O285 O 0.35226 0.67725 0.85097 0.0
O286 O 0.36723 0.65359 0.82703 0.0
H287 H 0.39798 0.63075 0.84326 0.0
H288 H 0.40718 0.61376 0.91226 0.0
H289 H 0.35268 0.65806 0.89324 0.0
O290 O 0.29194 0.89394 1.00057 0.0
Tb291 Tb 0.31425 0.88363 0.02746 0.0
Eu292 Eu 0.36188 0.88217 0.06002 0.0
C293 C 0.29593 0.91251 0.9891 0.0
O294 O 0.31241 0.926 0.9954 0.0
C295 C 0.3605 0.87735 1.00554 0.0
O296 O 0.36323 0.84699 0.07358 0.0
C297 C 0.39497 0.90493 0.07697 0.0
C298 C 0.34557 0.83672 0.08221 0.0
O299 O 0.32632 0.84753 0.08448 0.0
C300 C 0.31146 0.89949 0.07738 0.0
C301 C 0.40014 0.91616 0.09837 0.0
C302 C 0.41597 0.93371 0.09834 0.0
C303 C 0.42284 0.94385 0.11841 0.0
C304 C 0.41353 0.93632 0.13874 0.0
C305 C 0.39772 0.91844 0.13923 0.0
C306 C 0.39085 0.90863 0.11882 0.0
O307 O 0.34287 0.89086 1.00577 0.0
O308 O 0.3692 0.87016 0.0245 0.0
O309 O 0.29367 0.85305 0.02728 0.0
O310 O 0.3286 0.85053 0.03555 0.0
C311 C 0.30991 0.83929 0.03274 0.0
O312 O 0.33159 0.89094 0.08145 0.0
O313 O 0.30373 0.90253 0.05693 0.0
O314 O 0.39377 0.88275 0.07764 0.0
O315 O 0.37944 0.91439 0.0642 0.0
H316 H 0.42317 0.93935 0.08258 0.0
H317 H 0.419 0.94409 0.15424 0.0
H318 H 0.37898 0.89463 0.11886 0.0
O319 O 0.13015 0.78783 0.25495 0.0
Tb320 Tb 0.14684 0.80387 0.2832 0.0
Eu321 Eu 0.15318 0.84862 0.31624 0.0
C322 C 0.11686 0.79996 0.242 0.0
O323 O 0.11173 0.82068 0.24817 0.0
C324 C 0.17296 0.84643 0.26773 0.0
O325 O 0.16764 0.85775 0.3495 0.0
C326 C 0.11763 0.87347 0.31193 0.0
C327 C 0.1828 0.84395 0.35774 0.0
O328 O 0.19403 0.83097 0.34372 0.0
C329 C 0.13121 0.80094 0.33165 0.0
C330 C 0.10072 0.88118 0.32829 0.0
C331 C 0.08522 0.8981 0.32234 0.0
C332 C 0.07107 0.90779 0.33863 0.0
C333 C 0.07265 0.90043 0.36089 0.0
C334 C 0.08879 0.88426 0.36731 0.0
C335 C 0.10243 0.87426 0.35077 0.0
O336 O 0.15484 0.83419 0.2638 0.0
O337 O 0.17907 0.85028 0.28849 0.0
O338 O 0.17027 0.77561 0.2798 0.0
O339 O 0.17694 0.80086 0.30424 0.0
C340 C 0.18379 0.78175 0.29586 0.0
O341 O 0.14631 0.81671 0.33571 0.0
O342 O 0.12372 0.79773 0.3111 0.0
O343 O 0.13799 0.88187 0.31527 0.0
O344 O 0.11764 0.85166 0.30707 0.0
H345 H 0.08469 0.90423 0.30525 0.0
H346 H 0.06213 0.90837 0.37354 0.0
H347 H 0.11542 0.86223 0.35553 0.0
O348 O 0.19994 0.89152 0.76022 0.0
Tb349 Tb 0.1785 0.87404 0.73636 0.0
Eu350 Eu 0.14005 0.87221 0.68976 0.0
C351 C 0.19106 0.90569 0.77475 0.0
O352 O 0.16954 0.91092 0.77309 0.0
C353 C 0.12885 0.86953 0.74179 0.0
O354 O 0.15729 0.83921 0.68307 0.0
C355 C 0.10695 0.8806 0.66252 0.0
C356 C 0.17406 0.83825 0.66874 0.0
O357 O 0.17853 0.85569 0.6559 0.0
C358 C 0.19132 0.89163 0.68757 0.0
C359 C 0.09915 0.89422 0.64318 0.0
C360 C 0.08407 0.91222 0.647 0.0
C361 C 0.07465 0.92426 0.62911 0.0
C362 C 0.08044 0.91826 0.60715 0.0
C363 C 0.09456 0.89959 0.60277 0.0
C364 C 0.10416 0.88784 0.62096 0.0
O365 O 0.14439 0.8854 0.74232 0.0
O366 O 0.12516 0.85968 0.72248 0.0
O367 O 0.18237 0.84626 0.76001 0.0
O368 O 0.1738 0.83884 0.72625 0.0
C369 C 0.17722 0.83033 0.74598 0.0
O370 O 0.16973 0.89622 0.68353 0.0
O371 O 0.19781 0.8811 0.70598 0.0
O372 O 0.12183 0.8644 0.65905 0.0
O373 O 0.1098 0.89127 0.68168 0.0
H374 H 0.07919 0.9166 0.66396 0.0
H375 H 0.07305 0.92763 0.59341 0.0
H376 H 0.11465 0.87315 0.61785 0.0
O377 O 0.12089 0.73232 1.00079 0.0
Tb378 Tb 0.13018 0.70826 0.97483 0.0
Eu379 Eu 0.13126 0.65904 0.94578 0.0
C380 C 0.10257 0.72887 0.01288 0.0
O381 O 0.08842 0.71286 1.0068 0.0
C382 C 0.13688 0.66414 0.99995 0.0
O383 O 0.16315 0.64709 0.92963 0.0
C384 C 0.09945 0.63089 0.93492 0.0
C385 C 0.17592 0.63189 0.93955 0.0
O386 O 0.16883 0.62222 0.95807 0.0
C387 C 0.11887 0.70859 0.92505 0.0
C388 C 0.08841 0.62162 0.91485 0.0
C389 C 0.07275 0.60404 0.91779 0.0
C390 C 0.06513 0.59127 0.89948 0.0
C391 C 0.07298 0.59679 0.87794 0.0
C392 C 0.0888 0.61429 0.8746 0.0
C393 C 0.09629 0.62689 0.8932 0.0
O394 O 0.12331 0.68162 0.99883 0.0
O395 O 0.14389 0.65438 0.98145 0.0
O396 O 0.16184 0.7272 0.97274 0.0
O397 O 0.16205 0.69191 0.96575 0.0
C398 C 0.17446 0.70996 0.96738 0.0
O399 O 0.13137 0.69014 0.9229 0.0
O400 O 0.11061 0.71435 0.94473 0.0
O401 O 0.12075 0.62518 0.93713 0.0
O402 O 0.09523 0.65201 0.94069 0.0
H403 H 0.06771 0.59931 0.93461 0.0
H404 H 0.06707 0.58712 0.86369 0.0
H405 H 0.10921 0.63976 0.89105 0.0
O406 O 0.33124 0.60314 0.24142 0.0
Tb407 Tb 0.30064 0.62288 0.23554 0.0
Eu408 Eu 0.34327 0.63085 0.20082 0.0
C409 C 0.34123 0.59765 0.26051 0.0
O410 O 0.35959 0.5852 0.25911 0.0
C411 C 0.33593 0.66019 0.24554 0.0
O412 O 0.36294 0.64541 0.17221 0.0
C413 C 0.35181 0.58796 0.19536 0.0
C414 C 0.35501 0.63946 0.15256 0.0
O415 O 0.33558 0.6288 0.1519 0.0
C416 C 0.2915 0.63241 0.18567 0.0
C417 C 0.36032 0.57435 0.17605 0.0
C418 C 0.37797 0.55876 0.1796 0.0
C419 C 0.38882 0.54818 0.1614 0.0
C420 C 0.38284 0.55442 0.13952 0.0
C421 C 0.36556 0.57014 0.1355 0.0
C422 C 0.35337 0.57885 0.15385 0.0
O423 O 0.31417 0.65663 0.24236 0.0
O424 O 0.35098 0.64844 0.23401 0.0
O425 O 0.28313 0.60214 0.26097 0.0
O426 O 0.2691 0.6335 0.25092 0.0
C427 C 0.26624 0.61601 0.26375 0.0
O428 O 0.31049 0.64403 0.18588 0.0
O429 O 0.2871 0.61806 0.20194 0.0
O430 O 0.36649 0.60242 0.20362 0.0
O431 O 0.3312 0.59635 0.19427 0.0
H432 H 0.38339 0.55503 0.19652 0.0
H433 H 0.39214 0.54742 0.12547 0.0
H434 H 0.33921 0.58977 0.15077 0.0
O435 O 0.41216 0.8318 0.49774 0.0
Tb436 Tb 0.37895 0.82771 0.48269 0.0
Eu437 Eu 0.33282 0.8301 0.4535 0.0
C438 C 0.41417 0.84545 0.51506 0.0
O439 O 0.40167 0.86382 0.51544 0.0
C440 C 0.33878 0.85694 0.49932 0.0
O441 O 0.29745 0.81608 0.45437 0.0
C442 C 0.34285 0.86228 0.42543 0.0
C443 C 0.29134 0.80475 0.47244 0.0
O444 O 0.30571 0.80242 0.48896 0.0
C445 C 0.3728 0.79948 0.43937 0.0
C446 C 0.35821 0.8688 0.40661 0.0
C447 C 0.37706 0.88283 0.41114 0.0
C448 C 0.39127 0.89056 0.39384 0.0
C449 C 0.38647 0.88404 0.37181 0.0
C450 C 0.36773 0.87042 0.3667 0.0
C451 C 0.35346 0.86295 0.38414 0.0
O452 O 0.36069 0.85789 0.49468 0.0
O453 O 0.32534 0.84388 0.48766 0.0
O454 O 0.38065 0.80612 0.5122 0.0
O455 O 0.35228 0.80359 0.49097 0.0
C456 C 0.36127 0.79636 0.50944 0.0
O457 O 0.35182 0.79836 0.4461 0.0
O458 O 0.38645 0.81469 0.44853 0.0
O459 O 0.32637 0.84763 0.42183 0.0
O460 O 0.35229 0.86004 0.44526 0.0
H461 H 0.38057 0.88798 0.4282 0.0
H462 H 0.3968 0.89058 0.35825 0.0
H463 H 0.33873 0.85279 0.38017 0.0
H464 H 0.74124 0.19042 0.07113 0.0
H465 H 0.77807 0.20037 0.08746 0.0
H466 H 0.81174 0.17323 0.02934 0.0
H467 H 0.77512 0.16388 0.01271 0.0
H468 H 0.8301 0.158 0.07135 0.0
H469 H 0.79926 0.23253 0.05426 0.0
H470 H 0.81959 0.25158 0.06621 0.0
H471 H 0.80031 0.23652 0.0841 0.0
C472 C 0.75651 0.18733 0.06156 0.0
C473 C 0.75544 0.1771 0.04036 0.0
C474 C 0.77745 0.19257 0.0711 0.0
C475 C 0.79752 0.18727 0.05974 0.0
C476 C 0.7964 0.1772 0.0385 0.0
H477 H 0.90035 0.20716 1.00638 0.0
H478 H 0.88395 0.18387 0.03526 0.0
C479 C 0.77553 0.17215 0.02889 0.0
C480 C 0.81991 0.19297 0.06912 0.0
H481 H 0.85554 0.2378 0.07278 0.0
C482 C 0.83568 0.17548 0.07223 0.0
C483 C 0.82696 0.21569 0.07127 0.0
C484 C 0.81072 0.23521 0.06871 0.0
C485 C 0.85883 0.18022 0.07435 0.0
C486 C 0.86625 0.20289 0.07265 0.0
C487 C 0.85007 0.22032 0.07354 0.0
C488 C 0.88811 0.20869 0.06175 0.0
C489 C 0.87525 0.16085 0.07631 0.0
C490 C 0.89907 0.22904 0.06747 0.0
C491 C 0.90839 0.24258 0.0506 0.0
C492 C 0.90689 0.23557 0.02821 0.0
C493 C 0.9011 0.21309 0.02352 0.0
C494 C 0.89186 0.19959 0.0403 0.0
H495 H 0.86901 0.14848 0.08889 0.0
H496 H 0.87634 0.15183 0.06005 0.0
H497 H 0.8924 0.16669 0.08123 0.0
H498 H 0.89689 0.23624 0.08402 0.0
H499 H 0.91337 0.2597 0.05468 0.0
H500 H 0.71373 0.28633 0.30197 0.0
H501 H 0.7167 0.25158 0.32299 0.0
H502 H 0.66552 0.22084 0.28112 0.0
H503 H 0.66341 0.25582 0.25931 0.0
H504 H 0.69433 0.22277 0.34804 0.0
H505 H 0.70766 0.17292 0.27078 0.0
H506 H 0.7034 0.20257 0.26572 0.0
H507 H 0.68094 0.18571 0.27775 0.0
C508 C 0.70311 0.27215 0.29728 0.0
C509 C 0.68892 0.27342 0.27868 0.0
C510 C 0.7045 0.25222 0.30953 0.0
C511 C 0.69152 0.23306 0.30365 0.0
C512 C 0.67617 0.23492 0.28582 0.0
H513 H 0.81222 0.17767 0.306 0.0
H514 H 0.7756 0.16569 0.3213 0.0
C515 C 0.67501 0.25492 0.2733 0.0
C516 C 0.6975 0.21093 0.31406 0.0
H517 H 0.73895 0.17605 0.29544 0.0
C518 C 0.7035 0.21159 0.33684 0.0
C519 C 0.70792 0.19423 0.3005 0.0
C520 C 0.69951 0.18849 0.27741 0.0
C521 C 0.72478 0.20351 0.34346 0.0
C522 C 0.73877 0.1933 0.3272 0.0
C523 C 0.72882 0.18549 0.30737 0.0
C524 C 0.76288 0.19974 0.32541 0.0
C525 C 0.73376 0.20957 0.36624 0.0
C526 C 0.76802 0.22289 0.32292 0.0
C527 C 0.78854 0.22971 0.31356 0.0
C528 C 0.8044 0.21353 0.30687 0.0
C529 C 0.8001 0.19047 0.31097 0.0
C530 C 0.77935 0.18359 0.31997 0.0
H531 H 0.71994 0.20925 0.37886 0.0
H532 H 0.74746 0.1978 0.37139 0.0
H533 H 0.74072 0.22702 0.36582 0.0
H534 H 0.75541 0.2357 0.32641 0.0
H535 H 0.79162 0.24757 0.31078 0.0
H536 H 0.7607 0.29571 0.55735 0.0
H537 H 0.75714 0.25465 0.55753 0.0
H538 H 0.82984 0.24805 0.55531 0.0
H539 H 0.83342 0.2895 0.55506 0.0
H540 H 0.81016 0.22573 0.52149 0.0
H541 H 0.76578 0.20075 0.59788 0.0
H542 H 0.7519 0.22555 0.58762 0.0
H543 H 0.78117 0.2272 0.59612 0.0
C544 C 0.77592 0.2855 0.55749 0.0
C545 C 0.79728 0.29564 0.55606 0.0
C546 C 0.77393 0.26201 0.55789 0.0
C547 C 0.79326 0.24819 0.55684 0.0
C548 C 0.81473 0.25835 0.55647 0.0
H549 H 0.70682 0.1398 0.5188 0.0
H550 H 0.74485 0.147 0.53433 0.0
C551 C 0.81674 0.28198 0.55625 0.0
C552 C 0.79025 0.22381 0.55178 0.0
H553 H 0.75018 0.1839 0.5622 0.0
C554 C 0.79784 0.21595 0.53088 0.0
C555 C 0.77501 0.21035 0.56426 0.0
C556 C 0.76828 0.21638 0.58785 0.0
C557 C 0.78718 0.19755 0.52045 0.0
C558 C 0.76837 0.18738 0.53106 0.0
C559 C 0.76411 0.1922 0.55368 0.0
C560 C 0.74897 0.17929 0.51765 0.0
C561 C 0.79408 0.19112 0.497 0.0
C562 C 0.73889 0.19485 0.503 0.0
C563 C 0.71715 0.19123 0.49506 0.0
C564 C 0.70521 0.17171 0.50108 0.0
C565 C 0.71585 0.15504 0.51408 0.0
C566 C 0.73755 0.15903 0.52274 0.0
H567 H 0.81276 0.19212 0.49509 0.0
H568 H 0.78835 0.17375 0.4927 0.0
H569 H 0.78653 0.20324 0.48496 0.0
H570 H 0.74702 0.21085 0.49922 0.0
H571 H 0.70925 0.20424 0.48497 0.0
H572 H 0.66223 0.3029 0.83576 0.0
H573 H 0.69403 0.28306 0.85335 0.0
H574 H 0.72693 0.27801 0.78907 0.0
H575 H 0.69537 0.29761 0.7716 0.0
H576 H 0.70088 0.24117 0.84281 0.0
H577 H 0.7653 0.28633 0.80267 0.0
H578 H 0.78164 0.28372 0.82768 0.0
H579 H 0.75517 0.29908 0.82825 0.0
C580 C 0.67674 0.29832 0.82564 0.0
C581 C 0.67653 0.30168 0.80239 0.0
C582 C 0.69487 0.28714 0.83572 0.0
C583 C 0.71312 0.27953 0.82272 0.0
C584 C 0.7135 0.2844 0.79968 0.0
H585 H 0.76392 0.1856 0.75929 0.0
H586 H 0.75608 0.21884 0.78221 0.0
C587 C 0.6953 0.2953 0.78958 0.0
C588 C 0.72858 0.26191 0.8313 0.0
H589 H 0.78061 0.2421 0.81735 0.0
C590 C 0.71868 0.24151 0.83836 0.0
C591 C 0.75193 0.26244 0.82633 0.0
C592 C 0.76409 0.28423 0.82109 0.0
C593 C 0.73028 0.22098 0.83606 0.0
C594 C 0.7523 0.22121 0.82678 0.0
C595 C 0.76353 0.24194 0.82392 0.0
C596 C 0.76057 0.20157 0.81388 0.0
C597 C 0.71779 0.19914 0.84049 0.0
C598 C 0.76601 0.18094 0.82412 0.0
C599 C 0.77015 0.16179 0.81097 0.0
C600 C 0.769 0.16318 0.78751 0.0
C601 C 0.76459 0.18405 0.77735 0.0
C602 C 0.76038 0.20307 0.79043 0.0
H603 H 0.70072 0.20204 0.84777 0.0
H604 H 0.71584 0.18949 0.82466 0.0
H605 H 0.72761 0.18854 0.85231 0.0
H606 H 0.76646 0.17953 0.84218 0.0
H607 H 0.77399 0.14588 0.81913 0.0
H608 H 0.3307 0.76251 0.50793 0.0
H609 H 0.30078 0.75568 0.53537 0.0
H610 H 0.32965 0.80615 0.57908 0.0
H611 H 0.36006 0.81262 0.55171 0.0
H612 H 0.3011 0.74825 0.58807 0.0
H613 H 0.26292 0.82604 0.5518 0.0
H614 H 0.28964 0.81596 0.54126 0.0
H615 H 0.28815 0.82733 0.56893 0.0
C616 C 0.3312 0.77133 0.52382 0.0
C617 C 0.34765 0.78776 0.52796 0.0
C618 C 0.31418 0.76752 0.53945 0.0
C619 C 0.3132 0.78039 0.55922 0.0
C620 C 0.33039 0.79591 0.56406 0.0
H621 H 0.19548 0.70594 0.56522 0.0
H622 H 0.20982 0.73962 0.58443 0.0
C623 C 0.34772 0.79944 0.5485 0.0
C624 C 0.29208 0.77951 0.5722 0.0
H625 H 0.23883 0.79468 0.55703 0.0
C626 C 0.28722 0.75896 0.58272 0.0
C627 C 0.27416 0.7939 0.5658 0.0
C628 C 0.27878 0.81713 0.55639 0.0
C629 C 0.2653 0.75005 0.58199 0.0
C630 C 0.24818 0.7624 0.57081 0.0
C631 C 0.25214 0.78507 0.56511 0.0
C632 C 0.23178 0.74963 0.5572 0.0
C633 C 0.26176 0.72582 0.5891 0.0
C634 C 0.23797 0.74533 0.53488 0.0
C635 C 0.23001 0.72612 0.52398 0.0
C636 C 0.2158 0.71105 0.53535 0.0
C637 C 0.2068 0.71721 0.55629 0.0
C638 C 0.21482 0.73652 0.56725 0.0
H639 H 0.27622 0.71926 0.59899 0.0
H640 H 0.24611 0.72449 0.59928 0.0
H641 H 0.25972 0.71489 0.57412 0.0
H642 H 0.25124 0.75513 0.52691 0.0
H643 H 0.23688 0.72188 0.50769 0.0
H644 H 0.18465 0.7946 0.7189 0.0
H645 H 0.18878 0.75552 0.73005 0.0
H646 H 0.16667 0.77277 0.79703 0.0
H647 H 0.16564 0.81244 0.78616 0.0
H648 H 0.20016 0.75491 0.80378 0.0
H649 H 0.17039 0.69504 0.74293 0.0
H650 H 0.17914 0.71764 0.72513 0.0
H651 H 0.15695 0.72243 0.74545 0.0
C652 C 0.18023 0.78983 0.73582 0.0
C653 C 0.17527 0.80637 0.75176 0.0
C654 C 0.18206 0.76724 0.74223 0.0
C655 C 0.17807 0.76068 0.7646 0.0
C656 C 0.17034 0.77715 0.77981 0.0
H657 H 0.30041 0.69124 0.79332 0.0
H658 H 0.25935 0.68693 0.79637 0.0
C659 C 0.16969 0.79989 0.77362 0.0
C660 C 0.18847 0.73939 0.77305 0.0
H661 H 0.21498 0.69541 0.74733 0.0
C662 C 0.20255 0.74128 0.7919 0.0
C663 C 0.19101 0.72022 0.75909 0.0
C664 C 0.17324 0.71361 0.74228 0.0
C665 C 0.22237 0.72857 0.79343 0.0
C666 C 0.22801 0.71383 0.77568 0.0
C667 C 0.21137 0.70804 0.75998 0.0
C668 C 0.25203 0.71067 0.76985 0.0
C669 C 0.23866 0.73352 0.8122 0.0
C670 C 0.26146 0.72482 0.75335 0.0
C671 C 0.28489 0.72735 0.75158 0.0
C672 C 0.29906 0.71609 0.76661 0.0
C673 C 0.2897 0.70066 0.78199 0.0
C674 C 0.26631 0.69788 0.78354 0.0
H675 H 0.23121 0.74476 0.82517 0.0
H676 H 0.24369 0.71743 0.82033 0.0
H677 H 0.2541 0.74178 0.80542 0.0
H678 H 0.25065 0.73514 0.74287 0.0
H679 H 0.29178 0.73906 0.7394 0.0
H680 H 0.27205 0.8153 0.04089 0.0
H681 H 0.26626 0.77507 0.03491 0.0
H682 H 0.33684 0.76719 0.01788 0.0
H683 H 0.34273 0.80792 0.0242 0.0
H684 H 0.31098 0.75321 0.98518 0.0
H685 H 0.27456 0.71316 0.05997 0.0
H686 H 0.26616 0.74231 0.05919 0.0
H687 H 0.29573 0.73516 0.06134 0.0
C688 C 0.28647 0.80486 0.03657 0.0
C689 C 0.30774 0.81457 0.03288 0.0
C690 C 0.28329 0.78173 0.03353 0.0
C691 C 0.30127 0.76786 0.02653 0.0
C692 C 0.32287 0.77744 0.02378 0.0
H693 H 0.20135 0.67554 0.98131 0.0
H694 H 0.24113 0.67862 0.99262 0.0
C695 C 0.32616 0.80067 0.02721 0.0
C696 C 0.29572 0.74536 0.01712 0.0
H697 H 0.25311 0.70746 0.02482 0.0
C698 C 0.2991 0.74244 0.99406 0.0
C699 C 0.28114 0.7303 0.0286 0.0
C700 C 0.27941 0.73021 0.05372 0.0
C701 C 0.28478 0.72831 0.98172 0.0
C702 C 0.26662 0.71744 0.99271 0.0
C703 C 0.26641 0.71664 0.01618 0.0
C704 C 0.24503 0.71306 0.98099 0.0
C705 C 0.28776 0.72678 0.9568 0.0
C706 C 0.23404 0.73138 0.97066 0.0
C707 C 0.21127 0.72989 0.96486 0.0
C708 C 0.19922 0.70991 0.96886 0.0
C709 C 0.21051 0.69101 0.97769 0.0
C710 C 0.2332 0.69271 0.9841 0.0
H711 H 0.30584 0.72864 0.95201 0.0
H712 H 0.2814 0.71026 0.95072 0.0
H713 H 0.27814 0.74055 0.94855 0.0
H714 H 0.24252 0.74753 0.96875 0.0
H715 H 0.2028 0.74471 0.95828 0.0
H716 H 0.18871 0.77569 0.34067 0.0
H717 H 0.20534 0.74232 0.35889 0.0
H718 H 0.22887 0.71846 0.29472 0.0
H719 H 0.21152 0.75113 0.27647 0.0
H720 H 0.18825 0.69777 0.34202 0.0
H721 H 0.28138 0.70345 0.34107 0.0
H722 H 0.26334 0.72818 0.34209 0.0
H723 H 0.2693 0.7145 0.31579 0.0
C724 C 0.19825 0.76374 0.33064 0.0
C725 C 0.19906 0.76589 0.3072 0.0
C726 C 0.20764 0.74471 0.34106 0.0
C727 C 0.21854 0.72811 0.32818 0.0
C728 C 0.22089 0.73131 0.305 0.0
H729 H 0.22415 0.63305 0.26367 0.0
H730 H 0.20759 0.65197 0.29561 0.0
C731 C 0.21098 0.74991 0.29455 0.0
C732 C 0.22359 0.70547 0.33739 0.0
H733 H 0.26507 0.66622 0.33144 0.0
C734 C 0.20521 0.69087 0.34107 0.0
C735 C 0.24566 0.69647 0.33644 0.0
C736 C 0.26608 0.71155 0.33387 0.0
C737 C 0.208 0.66733 0.33996 0.0
C738 C 0.22947 0.6585 0.33442 0.0
C739 C 0.24841 0.67293 0.33517 0.0
C740 C 0.23147 0.63845 0.31966 0.0
C741 C 0.18747 0.65231 0.34171 0.0
C742 C 0.2489 0.6226 0.32278 0.0
C743 C 0.25801 0.61113 0.30429 0.0
C744 C 0.25037 0.61639 0.28268 0.0
C745 C 0.23052 0.62904 0.2802 0.0
C746 C 0.22097 0.63983 0.29862 0.0
H747 H 0.17594 0.65856 0.35505 0.0
H748 H 0.17801 0.65281 0.32569 0.0
H749 H 0.19224 0.63451 0.34536 0.0
H750 H 0.25707 0.62115 0.33889 0.0
H751 H 0.2729 0.60076 0.30659 0.0
H752 H 0.60499 0.26072 0.81278 0.0
H753 H 0.61278 0.23348 0.84274 0.0
H754 H 0.58412 0.27952 0.89102 0.0
H755 H 0.57595 0.30652 0.86113 0.0
H756 H 0.64199 0.243 0.87767 0.0
H757 H 0.55811 0.21938 0.9118 0.0
H758 H 0.56152 0.2324 0.88466 0.0
H759 H 0.562 0.24943 0.90962 0.0
C760 C 0.5994 0.2646 0.82962 0.0
C761 C 0.58969 0.28578 0.83452 0.0
C762 C 0.60417 0.24912 0.84682 0.0
C763 C 0.59902 0.25433 0.86922 0.0
C764 C 0.58797 0.27485 0.87391 0.0
H765 H 0.63316 0.21128 1.00225 0.0
H766 H 0.61871 0.22858 0.96813 0.0
C767 C 0.58333 0.29034 0.85677 0.0
C768 C 0.6072 0.23959 0.88788 0.0
H769 H 0.59007 0.21187 0.93525 0.0
C770 C 0.6306 0.23587 0.89006 0.0
C771 C 0.59242 0.23039 0.9042 0.0
C772 C 0.5671 0.2329 0.90239 0.0
C773 C 0.63963 0.22401 0.90846 0.0
C774 C 0.62487 0.21525 0.92506 0.0
C775 C 0.60144 0.21855 0.9226 0.0
C776 C 0.63342 0.20386 0.94576 0.0
C777 C 0.66499 0.22186 0.91045 0.0
C778 C 0.64628 0.18384 0.94475 0.0
C779 C 0.65463 0.17376 0.9644 0.0
C780 C 0.65028 0.18347 0.98552 0.0
C781 C 0.63699 0.20325 0.9864 0.0
C782 C 0.62864 0.21323 0.96683 0.0
H783 H 0.67403 0.23374 0.89912 0.0
H784 H 0.67055 0.22512 0.9279 0.0
H785 H 0.67008 0.20438 0.90592 0.0
H786 H 0.64988 0.176 0.92876 0.0
H787 H 0.66472 0.15853 0.963 0.0
H788 H 0.8489 0.20763 0.21251 0.0
H789 H 0.82355 0.19375 0.18327 0.0
H790 H 0.8233 0.12768 0.21391 0.0
H791 H 0.84779 0.14178 0.24381 0.0
H792 H 0.824 0.16307 0.1518 0.0
H793 H 0.75712 0.13862 0.21219 0.0
H794 H 0.78199 0.15407 0.22054 0.0
H795 H 0.78316 0.12384 0.21682 0.0
C796 C 0.84368 0.19006 0.21293 0.0
C797 C 0.8503 0.17589 0.23071 0.0
C798 C 0.82907 0.18212 0.19616 0.0
C799 C 0.82084 0.15976 0.19656 0.0
C800 C 0.82863 0.1452 0.21352 0.0
H801 H 0.74031 0.11573 0.07802 0.0
H802 H 0.7705 0.11622 0.1064 0.0
C803 C 0.84291 0.15323 0.23053 0.0
C804 C 0.80368 0.15206 0.17967 0.0
H805 H 0.75071 0.12917 0.1744 0.0
C806 C 0.808 0.15558 0.15677 0.0
C807 C 0.78256 0.14252 0.18599 0.0
C808 C 0.77579 0.13974 0.21021 0.0
C809 C 0.79184 0.1503 0.14021 0.0
C810 C 0.77087 0.1404 0.14651 0.0
C811 C 0.76679 0.13642 0.16938 0.0
C812 C 0.75186 0.13674 0.1302 0.0
C813 C 0.79702 0.15662 0.11631 0.0
C814 C 0.73071 0.14662 0.13457 0.0
C815 C 0.71341 0.14586 0.11869 0.0
C816 C 0.7166 0.13515 0.0979 0.0
C817 C 0.73717 0.12385 0.09398 0.0
C818 C 0.75461 0.12454 0.11006 0.0
H819 H 0.81033 0.16987 0.11529 0.0
H820 H 0.80321 0.14147 0.10721 0.0
H821 H 0.7817 0.16296 0.10771 0.0
H822 H 0.72787 0.15602 0.14989 0.0
H823 H 0.69782 0.15483 0.12224 0.0
H824 H 0.88031 0.31845 0.51469 0.0
H825 H 0.89237 0.30099 0.47957 0.0
H826 H 0.85562 0.35156 0.4425 0.0
H827 H 0.84295 0.36875 0.47759 0.0
H828 H 0.84645 0.31083 0.42662 0.0
H829 H 0.93952 0.31725 0.43432 0.0
H830 H 0.92686 0.30293 0.45765 0.0
H831 H 0.92052 0.33232 0.4527 0.0
C832 C 0.87509 0.32615 0.49909 0.0
C833 C 0.86071 0.34516 0.49912 0.0
C834 C 0.88214 0.31616 0.47891 0.0
C835 C 0.87529 0.32507 0.45816 0.0
C836 C 0.86129 0.34433 0.45817 0.0
H837 H 0.88883 0.28297 0.31821 0.0
H838 H 0.88612 0.30524 0.35258 0.0
C839 C 0.85411 0.35424 0.47833 0.0
C840 C 0.88135 0.3135 0.43658 0.0
H841 H 0.92562 0.29272 0.40558 0.0
C842 C 0.86381 0.30712 0.42199 0.0
C843 C 0.90399 0.30845 0.43035 0.0
C844 C 0.92381 0.31579 0.44447 0.0
C845 C 0.86817 0.2956 0.40179 0.0
C846 C 0.89074 0.29038 0.39571 0.0
C847 C 0.90833 0.29671 0.4102 0.0
C848 C 0.8961 0.27796 0.37453 0.0
C849 C 0.84848 0.28862 0.38729 0.0
C850 C 0.90385 0.25552 0.3752 0.0
C851 C 0.90556 0.24267 0.35549 0.0
C852 C 0.89961 0.25198 0.33456 0.0
C853 C 0.89364 0.27508 0.33384 0.0
C854 C 0.89184 0.28786 0.35358 0.0
H855 H 0.8321 0.2897 0.39638 0.0
H856 H 0.84762 0.29997 0.37252 0.0
H857 H 0.85073 0.27105 0.3811 0.0
H858 H 0.90736 0.24751 0.39113 0.0
H859 H 0.91015 0.22498 0.3569 0.0
H860 H 0.62731 0.35162 0.71831 0.0
H861 H 0.65538 0.35821 0.68894 0.0
H862 H 0.69766 0.39374 0.73602 0.0
H863 H 0.66986 0.3867 0.7657 0.0
H864 H 0.67379 0.39505 0.66959 0.0
H865 H 0.74138 0.34708 0.71277 0.0
H866 H 0.7124 0.3468 0.72223 0.0
H867 H 0.73059 0.37026 0.72898 0.0
C868 C 0.64249 0.36099 0.72247 0.0
C869 C 0.6463 0.36848 0.74455 0.0
C870 C 0.6586 0.36476 0.70556 0.0
C871 C 0.679 0.37609 0.7102 0.0
C872 C 0.68241 0.38443 0.73201 0.0
H873 H 0.77379 0.41807 0.60166 0.0
H874 H 0.74487 0.41882 0.63151 0.0
C875 C 0.66635 0.38056 0.74899 0.0
C876 C 0.69673 0.37865 0.69233 0.0
H877 H 0.75182 0.36613 0.67958 0.0
C878 C 0.69088 0.38877 0.67182 0.0
C879 C 0.71902 0.37019 0.69493 0.0
C880 C 0.72622 0.35777 0.71581 0.0
C881 C 0.70652 0.39061 0.65399 0.0
C882 C 0.72895 0.38258 0.65679 0.0
C883 C 0.73479 0.37256 0.67736 0.0
C884 C 0.74623 0.38279 0.63828 0.0
C885 C 0.69854 0.40035 0.63206 0.0
C886 C 0.75704 0.36252 0.63223 0.0
C887 C 0.77377 0.36224 0.61565 0.0
C888 C 0.78021 0.38216 0.60447 0.0
C889 C 0.76917 0.40247 0.61002 0.0
C890 C 0.75253 0.40283 0.62699 0.0
H891 H 0.67979 0.39999 0.6307 0.0
H892 H 0.70407 0.41825 0.63084 0.0
H893 H 0.7058 0.39092 0.61767 0.0
H894 H 0.75245 0.34676 0.64032 0.0
H895 H 0.78153 0.34624 0.61127 0.0
H896 H 0.60947 0.27963 0.24368 0.0
H897 H 0.60289 0.25433 0.27548 0.0
H898 H 0.63957 0.30005 0.31837 0.0
H899 H 0.64574 0.32556 0.28685 0.0
H900 H 0.63168 0.23146 0.30135 0.0
H901 H 0.58351 0.29011 0.35528 0.0
H902 H 0.58914 0.29603 0.32618 0.0
H903 H 0.61026 0.30183 0.34709 0.0
C904 C 0.61588 0.2845 0.25994 0.0
C905 C 0.62793 0.30491 0.26263 0.0
C906 C 0.61215 0.26992 0.27814 0.0
C907 C 0.62028 0.27539 0.29957 0.0
C908 C 0.63245 0.29567 0.30226 0.0
H909 H 0.63351 0.21615 0.42986 0.0
H910 H 0.6324 0.2391 0.39619 0.0
C911 C 0.63604 0.31032 0.28411 0.0
C912 C 0.61684 0.25955 0.31888 0.0
H913 H 0.59812 0.25699 0.37304 0.0
C914 C 0.62446 0.23708 0.31704 0.0
C915 C 0.60673 0.26656 0.33925 0.0
C916 C 0.59672 0.28987 0.34203 0.0
C917 C 0.62366 0.22199 0.33531 0.0
C918 C 0.61405 0.22918 0.35586 0.0
C919 C 0.6056 0.25138 0.3574 0.0
C920 C 0.61392 0.21466 0.37642 0.0
C921 C 0.63408 0.19883 0.33268 0.0
C922 C 0.60351 0.19318 0.37693 0.0
C923 C 0.60416 0.17976 0.39641 0.0
C924 C 0.61512 0.1876 0.41585 0.0
C925 C 0.62494 0.20936 0.41533 0.0
C926 C 0.62432 0.22263 0.39598 0.0
H927 H 0.64537 0.19788 0.31782 0.0
H928 H 0.64399 0.19417 0.34775 0.0
H929 H 0.62042 0.18614 0.3305 0.0
H930 H 0.59492 0.18675 0.36227 0.0
H931 H 0.59648 0.16311 0.39609 0.0
H932 H 0.62929 0.15045 0.54132 0.0
H933 H 0.65317 0.14626 0.57452 0.0
H934 H 0.68124 0.08484 0.54722 0.0
H935 H 0.65708 0.08864 0.51426 0.0
H936 H 0.67243 0.07969 0.59088 0.0
H937 H 0.71962 0.15977 0.57916 0.0
H938 H 0.68991 0.16435 0.58326 0.0
H939 H 0.69962 0.14957 0.55879 0.0
C940 C 0.64041 0.13594 0.54243 0.0
C941 C 0.64116 0.11988 0.525 0.0
C942 C 0.65429 0.13368 0.56139 0.0
C943 C 0.66948 0.11545 0.56334 0.0
C944 C 0.66983 0.09914 0.5462 0.0
H945 H 0.78486 0.09978 0.65397 0.0
H946 H 0.75984 0.10385 0.6215 0.0
C947 C 0.65591 0.10132 0.5273 0.0
C948 C 0.6848 0.11311 0.58326 0.0
H949 H 0.7262 0.14001 0.61341 0.0
C950 C 0.68418 0.09291 0.59573 0.0
C951 C 0.70036 0.13023 0.58971 0.0
C952 C 0.70261 0.15211 0.5769 0.0
C953 C 0.69835 0.08949 0.61439 0.0
C954 C 0.71363 0.10671 0.62098 0.0
C955 C 0.71446 0.12681 0.60845 0.0
C956 C 0.72885 0.10411 0.64081 0.0
C957 C 0.69712 0.0673 0.6268 0.0
C958 C 0.71987 0.10304 0.66257 0.0
C959 C 0.73414 0.10083 0.68119 0.0
C960 C 0.7578 0.09949 0.67856 0.0
C961 C 0.76675 0.10049 0.6567 0.0
C962 C 0.75246 0.10295 0.63809 0.0
H963 H 0.68791 0.05415 0.61712 0.0
H964 H 0.71436 0.06096 0.63066 0.0
H965 H 0.68809 0.06988 0.6429 0.0
H966 H 0.70176 0.10417 0.66518 0.0
H967 H 0.72659 0.10028 0.69771 0.0
H968 H 0.83041 0.26714 0.91425 0.0
H969 H 0.82471 0.24228 0.88222 0.0
H970 H 0.89469 0.22189 0.88534 0.0
H971 H 0.90025 0.24625 0.91816 0.0
H972 H 0.84046 0.24252 0.8424 0.0
H973 H 0.86698 0.16112 0.87959 0.0
H974 H 0.86306 0.18628 0.8962 0.0
H975 H 0.88898 0.18198 0.88085 0.0
C976 C 0.84461 0.2572 0.90833 0.0
C977 C 0.8658 0.25866 0.91899 0.0
C978 C 0.84131 0.24295 0.88986 0.0
C979 C 0.85911 0.22971 0.8813 0.0
C980 C 0.8804 0.23126 0.89184 0.0
H981 H 0.85033 0.17482 0.74444 0.0
H982 H 0.85864 0.1974 0.77757 0.0
C983 C 0.88364 0.24536 0.91059 0.0
C984 C 0.85534 0.21511 0.86096 0.0
H985 H 0.86174 0.16145 0.84012 0.0
C986 C 0.84507 0.22476 0.842 0.0
C987 C 0.8609 0.19176 0.86029 0.0
C988 C 0.87036 0.1796 0.88039 0.0
C989 C 0.84038 0.21199 0.82258 0.0
C990 C 0.84682 0.18885 0.82154 0.0
C991 C 0.85693 0.17915 0.84058 0.0
C992 C 0.84289 0.17436 0.80113 0.0
C993 C 0.82787 0.22341 0.80372 0.0
C994 C 0.83277 0.15284 0.80303 0.0
C995 C 0.82899 0.1393 0.78403 0.0
C996 C 0.8346 0.14712 0.76248 0.0
C997 C 0.84523 0.16838 0.76065 0.0
C998 C 0.8497 0.18157 0.77969 0.0
H999 H 0.81898 0.23888 0.80952 0.0
H1000 H 0.8401 0.22884 0.7907 0.0
H1001 H 0.81533 0.21178 0.79602 0.0
H1002 H 0.82752 0.14653 0.81925 0.0
H1003 H 0.82125 0.1229 0.78624 0.0
H1004 H 0.82366 0.35246 0.01684 0.0
H1005 H 0.79797 0.35976 0.04812 0.0
H1006 H 0.79577 0.28846 0.06301 0.0
H1007 H 0.8218 0.28098 0.03181 0.0
H1008 H 0.75299 0.30893 0.06482 0.0
H1009 H 0.81465 0.35849 0.11456 0.0
H1010 H 0.81128 0.36823 0.08629 0.0
H1011 H 0.82298 0.34067 0.09148 0.0
C1012 C 0.81776 0.33825 0.0267 0.0
C1013 C 0.82503 0.3161 0.0217 0.0
C1014 C 0.80312 0.34251 0.04477 0.0
C1015 C 0.79516 0.32475 0.05833 0.0
C1016 C 0.80175 0.30252 0.05297 0.0
H1017 H 0.73842 0.33703 0.19188 0.0
H1018 H 0.76172 0.33332 0.1585 0.0
C1019 C 0.8167 0.29826 0.03507 0.0
C1020 C 0.77993 0.3294 0.07797 0.0
H1021 H 0.77684 0.35844 0.12747 0.0
C1022 C 0.75823 0.31969 0.07858 0.0
C1023 C 0.78669 0.34332 0.09608 0.0
C1024 C 0.81023 0.35314 0.09729 0.0
C1025 C 0.74311 0.3236 0.09652 0.0
C1026 C 0.74968 0.33793 0.11454 0.0
C1027 C 0.77147 0.34763 0.11381 0.0
C1028 C 0.73519 0.34186 0.13502 0.0
C1029 C 0.72037 0.312 0.09573 0.0
C1030 C 0.71252 0.3491 0.13355 0.0
C1031 C 0.69906 0.35154 0.15291 0.0
C1032 C 0.70793 0.34689 0.17431 0.0
C1033 C 0.73085 0.34063 0.17579 0.0
C1034 C 0.74427 0.33839 0.15652 0.0
H1035 H 0.72123 0.29594 0.08607 0.0
H1036 H 0.71375 0.30812 0.11259 0.0
H1037 H 0.70811 0.32329 0.08721 0.0
H1038 H 0.7051 0.35269 0.11739 0.0
H1039 H 0.68152 0.35647 0.15103 0.0
H1040 H 0.13628 0.80815 0.37612 0.0
H1041 H 0.13803 0.78032 0.40585 0.0
H1042 H 0.11757 0.72818 0.35956 0.0
H1043 H 0.11694 0.7562 0.32913 0.0
H1044 H 0.11324 0.75365 0.42734 0.0
H1045 H 0.17361 0.69947 0.38111 0.0
H1046 H 0.16451 0.72646 0.37046 0.0
H1047 H 0.14699 0.70171 0.36698 0.0
C1048 C 0.13205 0.79078 0.37218 0.0
C1049 C 0.12687 0.78442 0.35006 0.0
C1050 C 0.13306 0.77475 0.38934 0.0
C1051 C 0.12882 0.75176 0.38505 0.0
C1052 C 0.12183 0.74559 0.3633 0.0
H1053 H 0.12588 0.65929 0.50255 0.0
H1054 H 0.11433 0.68381 0.47138 0.0
C1055 C 0.12104 0.76171 0.34593 0.0
C1056 C 0.13259 0.7346 0.40328 0.0
H1057 H 0.16092 0.68571 0.41586 0.0
C1058 C 0.12364 0.73877 0.42475 0.0
C1059 C 0.1466 0.71532 0.40032 0.0
C1060 C 0.15867 0.71058 0.37855 0.0
C1061 C 0.12847 0.72462 0.44315 0.0
C1062 C 0.14184 0.70493 0.43998 0.0
C1063 C 0.15049 0.70058 0.41845 0.0
C1064 C 0.14833 0.68934 0.45882 0.0
C1065 C 0.12011 0.73173 0.46597 0.0
C1066 C 0.17115 0.68333 0.46189 0.0
C1067 C 0.1776 0.6687 0.4792 0.0
C1068 C 0.16147 0.65981 0.49413 0.0
C1069 C 0.13867 0.66583 0.49126 0.0
C1070 C 0.13211 0.6801 0.47356 0.0
H1071 H 0.11685 0.75024 0.46671 0.0
H1072 H 0.10394 0.72292 0.46965 0.0
H1073 H 0.13249 0.72741 0.47924 0.0
H1074 H 0.18415 0.69022 0.45104 0.0
H1075 H 0.19537 0.66493 0.48129 0.0
H1076 H 0.37445 0.66963 0.72046 0.0
H1077 H 0.35389 0.65658 0.68723 0.0
H1078 H 0.29771 0.63664 0.72885 0.0
H1079 H 0.31795 0.64976 0.762 0.0
H1080 H 0.33518 0.6154 0.67353 0.0
H1081 H 0.26988 0.68057 0.68365 0.0
H1082 H 0.29368 0.67902 0.70214 0.0
H1083 H 0.26896 0.66184 0.70729 0.0
C1084 C 0.35781 0.66229 0.72262 0.0
C1085 C 0.34793 0.66097 0.74408 0.0
C1086 C 0.34605 0.65477 0.70353 0.0
C1087 C 0.32401 0.64591 0.70534 0.0
C1088 C 0.3145 0.64371 0.72683 0.0
H1089 H 0.21805 0.60678 0.61003 0.0
H1090 H 0.24144 0.6115 0.64347 0.0
C1091 C 0.32625 0.65113 0.74589 0.0
C1092 C 0.3106 0.63969 0.68487 0.0
H1093 H 0.26066 0.65039 0.65792 0.0
C1094 C 0.31899 0.62324 0.67 0.0
C1095 C 0.28945 0.64986 0.68004 0.0
C1096 C 0.28011 0.66894 0.69407 0.0
C1097 C 0.30669 0.61643 0.65085 0.0
C1098 C 0.28538 0.62643 0.64619 0.0
C1099 C 0.27696 0.64272 0.66121 0.0
C1100 C 0.27185 0.62095 0.62555 0.0
C1101 C 0.31642 0.59814 0.63611 0.0
C1102 C 0.28102 0.62428 0.60405 0.0
C1103 C 0.26767 0.62145 0.5848 0.0
C1104 C 0.24465 0.61528 0.58639 0.0
C1105 C 0.23574 0.61112 0.60792 0.0
C1106 C 0.24909 0.61406 0.62719 0.0
H1107 H 0.3288 0.58752 0.64531 0.0
H1108 H 0.30291 0.58702 0.62935 0.0
H1109 H 0.32542 0.6061 0.62182 0.0
H1110 H 0.29828 0.63011 0.60213 0.0
H1111 H 0.27518 0.62518 0.56867 0.0
H1112 H 0.39421 0.77829 0.81327 0.0
H1113 H 0.39277 0.80419 0.84522 0.0
H1114 H 0.39457 0.74747 0.89045 0.0
H1115 H 0.39616 0.72143 0.85865 0.0
H1116 H 0.35797 0.77812 0.89823 0.0
H1117 H 0.44001 0.82364 0.89278 0.0
H1118 H 0.42425 0.82218 0.86711 0.0
H1119 H 0.4352 0.79668 0.87932 0.0
C1120 C 0.39502 0.77128 0.82999 0.0
C1121 C 0.39547 0.74764 0.8332 0.0
C1122 C 0.39411 0.78618 0.84832 0.0
C1123 C 0.39357 0.77788 0.87036 0.0
C1124 C 0.395 0.75436 0.87366 0.0
H1125 H 0.39726 0.84991 0.99809 0.0
H1126 H 0.40539 0.82675 0.96505 0.0
C1127 C 0.39616 0.73946 0.85536 0.0
C1128 C 0.38989 0.79351 0.88982 0.0
H1129 H 0.41295 0.8382 0.9184 0.0
C1130 C 0.37002 0.79123 0.90263 0.0
C1131 C 0.40561 0.81059 0.89576 0.0
C1132 C 0.42758 0.81341 0.88319 0.0
C1133 C 0.36535 0.80566 0.92088 0.0
C1134 C 0.38086 0.82305 0.92655 0.0
C1135 C 0.4009 0.8251 0.91397 0.0
C1136 C 0.37682 0.83872 0.9459 0.0
C1137 C 0.34397 0.80192 0.93423 0.0
C1138 C 0.35843 0.85384 0.94602 0.0
C1139 C 0.35385 0.86736 0.96487 0.0
C1140 C 0.36748 0.86604 0.98416 0.0
C1141 C 0.38638 0.8515 0.98361 0.0
C1142 C 0.39105 0.83814 0.9647 0.0
H1143 H 0.33624 0.78514 0.93073 0.0
H1144 H 0.34741 0.8032 0.95245 0.0
H1145 H 0.33146 0.81518 0.92983 0.0
H1146 H 0.34735 0.85489 0.93165 0.0
H1147 H 0.33908 0.8782 0.9646 0.0
H1148 H 0.16276 0.84503 0.223 0.0
H1149 H 0.18572 0.85855 0.19156 0.0
H1150 H 0.23661 0.88216 0.23754 0.0
H1151 H 0.21375 0.86875 0.26914 0.0
H1152 H 0.20415 0.90423 0.1826 0.0
H1153 H 0.27052 0.83853 0.19362 0.0
H1154 H 0.24268 0.83596 0.20588 0.0
H1155 H 0.26319 0.85463 0.21812 0.0
C1156 C 0.17878 0.8532 0.22649 0.0
C1157 C 0.18641 0.85571 0.24868 0.0
C1158 C 0.19188 0.86096 0.20845 0.0
C1159 C 0.213 0.87118 0.21214 0.0
C1160 C 0.22048 0.87411 0.23426 0.0
H1161 H 0.32304 0.90597 0.12115 0.0
H1162 H 0.29863 0.90228 0.15398 0.0
C1163 C 0.20733 0.86649 0.25233 0.0
C1164 C 0.2274 0.87824 0.19282 0.0
H1165 H 0.27665 0.8657 0.1655 0.0
C1166 C 0.22003 0.89586 0.17884 0.0
C1167 C 0.24814 0.86736 0.18796 0.0
C1168 C 0.25663 0.84795 0.20203 0.0
C1169 C 0.23298 0.90306 0.16031 0.0
C1170 C 0.2536 0.89193 0.1552 0.0
C1171 C 0.26094 0.87437 0.16933 0.0
C1172 C 0.26771 0.89767 0.13513 0.0
C1173 C 0.22462 0.92288 0.14674 0.0
C1174 C 0.25855 0.89703 0.11341 0.0
C1175 C 0.2725 0.89956 0.09452 0.0
C1176 C 0.29602 0.90233 0.09691 0.0
C1177 C 0.30501 0.90392 0.11866 0.0
C1178 C 0.29104 0.90168 0.1375 0.0
H1179 H 0.21333 0.93396 0.15679 0.0
H1180 H 0.23889 0.93322 0.14025 0.0
H1181 H 0.21471 0.91649 0.13231 0.0
H1182 H 0.24077 0.89339 0.11097 0.0
H1183 H 0.26505 0.89781 0.07807 0.0
H1184 H 0.14972 0.87058 0.78304 0.0
H1185 H 0.14489 0.84395 0.81382 0.0
H1186 H 0.08853 0.81331 0.77942 0.0
H1187 H 0.09462 0.83876 0.74775 0.0
H1188 H 0.11877 0.83247 0.84333 0.0
H1189 H 0.12051 0.75736 0.78825 0.0
H1190 H 0.12285 0.7854 0.7769 0.0
H1191 H 0.09548 0.77364 0.78337 0.0
C1192 C 0.13623 0.85824 0.782 0.0
C1193 C 0.12297 0.85653 0.76254 0.0
C1194 C 0.1334 0.84291 0.79977 0.0
C1195 C 0.11698 0.82558 0.79881 0.0
C1196 C 0.10225 0.82541 0.7803 0.0
H1197 H 0.09007 0.74493 0.92083 0.0
H1198 H 0.08832 0.77265 0.89048 0.0
C1199 C 0.10551 0.84031 0.76224 0.0
C1200 C 0.11571 0.80778 0.81695 0.0
H1201 H 0.11184 0.75062 0.82659 0.0
C1202 C 0.11739 0.81459 0.83949 0.0
C1203 C 0.11404 0.78416 0.8124 0.0
C1204 C 0.11335 0.77473 0.78892 0.0
C1205 C 0.11765 0.79885 0.85727 0.0
C1206 C 0.11526 0.77539 0.85273 0.0
C1207 C 0.1135 0.76852 0.83028 0.0
C1208 C 0.11529 0.75767 0.87087 0.0
C1209 C 0.12134 0.80763 0.8807 0.0
C1210 C 0.13011 0.73905 0.86969 0.0
C1211 C 0.13074 0.72278 0.88684 0.0
C1212 C 0.11664 0.72469 0.90579 0.0
C1213 C 0.10136 0.74296 0.90666 0.0
C1214 C 0.10052 0.75905 0.88934 0.0
H1215 H 0.12985 0.82441 0.8806 0.0
H1216 H 0.10472 0.80973 0.88911 0.0
H1217 H 0.13177 0.79576 0.89072 0.0
H1218 H 0.14161 0.73733 0.85566 0.0
H1219 H 0.14277 0.70903 0.88551 0.0
H1220 H 0.13695 0.68851 0.03932 0.0
H1221 H 0.16239 0.68372 0.07131 0.0
H1222 H 0.19052 0.62393 0.04073 0.0
H1223 H 0.16557 0.62883 1.00859 0.0
H1224 H 0.16964 0.65158 0.10227 0.0
H1225 H 0.24703 0.6607 0.05094 0.0
H1226 H 0.21922 0.66666 0.04011 0.0
H1227 H 0.22944 0.63799 0.04125 0.0
C1228 C 0.14829 0.67412 0.03952 0.0
C1229 C 0.14918 0.65911 0.02121 0.0
C1230 C 0.16297 0.67148 0.05783 0.0
C1231 C 0.17892 0.65381 0.05827 0.0
C1232 C 0.17894 0.63811 0.04058 0.0
H1233 H 0.25317 0.60776 0.17645 0.0
H1234 H 0.22624 0.61324 0.14594 0.0
C1235 C 0.16439 0.6408 0.02227 0.0
C1236 C 0.19564 0.65184 0.07702 0.0
H1237 H 0.25224 0.6471 0.0882 0.0
C1238 C 0.1877 0.65069 0.09918 0.0
C1239 C 0.21934 0.65129 0.0732 0.0
C1240 C 0.2293 0.65448 0.05013 0.0
C1241 C 0.20262 0.64836 0.11743 0.0
C1242 C 0.22624 0.64637 0.11352 0.0
C1243 C 0.2342 0.64818 0.09138 0.0
C1244 C 0.243 0.64269 0.13206 0.0
C1245 C 0.19281 0.64866 0.14077 0.0
C1246 C 0.26217 0.6567 0.1341 0.0
C1247 C 0.27792 0.65328 0.15134 0.0
C1248 C 0.27491 0.6358 0.16711 0.0
C1249 C 0.25592 0.62159 0.16486 0.0
C1250 C 0.24032 0.62485 0.14745 0.0
H1251 H 0.17636 0.65773 0.14126 0.0
H1252 H 0.1897 0.63101 0.14633 0.0
H1253 H 0.2045 0.65689 0.15281 0.0
H1254 H 0.26489 0.67048 0.12244 0.0
H1255 H 0.29238 0.6645 0.15238 0.0
H1256 H 0.37924 0.67237 0.25815 0.0
H1257 H 0.39068 0.69664 0.28948 0.0
H1258 H 0.32064 0.70731 0.30666 0.0
H1259 H 0.30909 0.68341 0.27531 0.0
H1260 H 0.3454 0.74721 0.30827 0.0
H1261 H 0.38924 0.67962 0.35569 0.0
H1262 H 0.39973 0.68368 0.32775 0.0
H1263 H 0.37133 0.67366 0.332 0.0
C1264 C 0.36624 0.67997 0.26849 0.0
C1265 C 0.3432 0.67589 0.26396 0.0
C1266 C 0.37283 0.69377 0.28657 0.0
C1267 C 0.35658 0.70375 0.30074 0.0
C1268 C 0.33358 0.69994 0.29607 0.0
H1269 H 0.36279 0.75524 0.43478 0.0
H1270 H 0.36197 0.73307 0.40038 0.0
C1271 C 0.32699 0.6862 0.27802 0.0
C1272 C 0.36337 0.71808 0.32045 0.0
H1273 H 0.3915 0.71665 0.37053 0.0
C1274 C 0.35561 0.74056 0.32181 0.0
C1275 C 0.37651 0.70947 0.33835 0.0
C1276 C 0.38454 0.68524 0.33858 0.0
C1277 C 0.36041 0.75447 0.34047 0.0
C1278 C 0.3737 0.7459 0.35833 0.0
C1279 C 0.38162 0.72348 0.35683 0.0
C1280 C 0.37737 0.75891 0.37971 0.0
C1281 C 0.35035 0.77792 0.34126 0.0
C1282 C 0.38733 0.78066 0.38014 0.0
C1283 C 0.38804 0.79343 0.40013 0.0
C1284 C 0.37887 0.78465 0.42008 0.0
C1285 C 0.37027 0.76242 0.4198 0.0
C1286 C 0.36965 0.74973 0.40001 0.0
H1287 H 0.33663 0.7801 0.32876 0.0
H1288 H 0.34339 0.78166 0.35813 0.0
H1289 H 0.36374 0.79055 0.33752 0.0
H1290 H 0.39388 0.78808 0.36489 0.0
H1291 H 0.39432 0.81066 0.39963 0.0
H1292 H 0.2993 0.88001 0.50021 0.0
H1293 H 0.27712 0.89112 0.53292 0.0
H1294 H 0.33084 0.86822 0.57606 0.0
H1295 H 0.35352 0.85792 0.54304 0.0
H1296 H 0.2603 0.86431 0.5626 0.0
H1297 H 0.31432 0.92505 0.60846 0.0
H1298 H 0.32029 0.91658 0.58004 0.0
H1299 H 0.32829 0.89866 0.60305 0.0
C1300 C 0.30677 0.87816 0.51666 0.0
C1301 C 0.32843 0.8686 0.51896 0.0
C1302 C 0.29393 0.88432 0.53544 0.0
C1303 C 0.30216 0.88081 0.55723 0.0
C1304 C 0.32417 0.87182 0.55959 0.0
H1305 H 0.23697 0.88265 0.68895 0.0
H1306 H 0.26365 0.88136 0.65773 0.0
C1307 C 0.33724 0.86597 0.54065 0.0
C1308 C 0.28676 0.8846 0.57703 0.0
H1309 H 0.282 0.91101 0.62796 0.0
C1310 C 0.26521 0.87445 0.57688 0.0
C1311 C 0.29277 0.89806 0.59578 0.0
C1312 C 0.31508 0.9104 0.59682 0.0
C1313 C 0.24994 0.8767 0.59489 0.0
C1314 C 0.25579 0.89037 0.61351 0.0
C1315 C 0.27732 0.90063 0.61374 0.0
C1316 C 0.23998 0.89364 0.63302 0.0
C1317 C 0.22796 0.86368 0.59405 0.0
C1318 C 0.21784 0.90193 0.63001 0.0
C1319 C 0.20238 0.90266 0.64794 0.0
C1320 C 0.20866 0.89525 0.66946 0.0
C1321 C 0.23131 0.88843 0.6727 0.0
C1322 C 0.2467 0.88762 0.65476 0.0
H1323 H 0.22896 0.84918 0.58224 0.0
H1324 H 0.22325 0.8571 0.61083 0.0
H1325 H 0.21428 0.87507 0.58819 0.0
H1326 H 0.21229 0.90732 0.6136 0.0
H1327 H 0.18522 0.90812 0.64468 0.0
H1328 H 0.70666 0.26593 0.21195 0.0
H1329 H 0.74527 0.2548 0.20165 0.0
H1330 H 0.73682 0.28794 0.13779 0.0
H1331 H 0.69878 0.2986 0.1479 0.0
H1332 H 0.75785 0.22622 0.17306 0.0
H1333 H 0.80532 0.29216 0.13961 0.0
H1334 H 0.78648 0.29899 0.16255 0.0
H1335 H 0.77889 0.30533 0.13377 0.0
C1336 C 0.7132 0.27083 0.19571 0.0
C1337 C 0.69953 0.28279 0.18046 0.0
C1338 C 0.73546 0.26485 0.19004 0.0
C1339 C 0.74455 0.27082 0.16908 0.0
C1340 C 0.73091 0.28348 0.15432 0.0
H1341 H 0.72959 0.23443 0.04751 0.0
H1342 H 0.7618 0.24208 0.07216 0.0
C1343 C 0.70878 0.28924 0.15988 0.0
C1344 C 0.76532 0.25952 0.16016 0.0
H1345 H 0.77602 0.27202 0.10609 0.0
C1346 C 0.76309 0.23594 0.15855 0.0
C1347 C 0.77669 0.27017 0.14217 0.0
C1348 C 0.78733 0.29304 0.14493 0.0
C1349 C 0.76039 0.22635 0.13726 0.0
C1350 C 0.76114 0.24098 0.11848 0.0
C1351 C 0.77302 0.26141 0.12061 0.0
C1352 C 0.74203 0.24034 0.10257 0.0
C1353 C 0.75182 0.20243 0.13544 0.0
C1354 C 0.71994 0.23987 0.11133 0.0
C1355 C 0.70155 0.23612 0.09742 0.0
C1356 C 0.70489 0.23273 0.07446 0.0
C1357 C 0.72656 0.2365 0.06527 0.0
C1358 C 0.74509 0.24046 0.07934 0.0
H1359 H 0.7622 0.19113 0.14613 0.0
H1360 H 0.73417 0.20158 0.14177 0.0
H1361 H 0.75216 0.19619 0.11793 0.0
H1362 H 0.71697 0.24121 0.12918 0.0
H1363 H 0.68498 0.23405 0.10495 0.0
H1364 H 0.69986 0.12742 0.46446 0.0
H1365 H 0.73736 0.14377 0.47 0.0
H1366 H 0.72901 0.18348 0.41003 0.0
H1367 H 0.69122 0.16809 0.40493 0.0
H1368 H 0.77349 0.1419 0.45 0.0
H1369 H 0.75362 0.23137 0.4483 0.0
H1370 H 0.7312 0.21071 0.45025 0.0
H1371 H 0.74063 0.22105 0.42331 0.0
C1372 C 0.70594 0.13985 0.45256 0.0
C1373 C 0.69246 0.14677 0.43442 0.0
C1374 C 0.72734 0.14925 0.45585 0.0
C1375 C 0.73558 0.16575 0.44111 0.0
C1376 C 0.7225 0.17182 0.42241 0.0
H1377 H 0.824 0.16381 0.35718 0.0
H1378 H 0.80512 0.15758 0.39265 0.0
C1379 C 0.70107 0.16262 0.4192 0.0
C1380 C 0.75883 0.17475 0.44329 0.0
H1381 H 0.78789 0.22011 0.42359 0.0
C1382 C 0.77675 0.15928 0.44513 0.0
C1383 C 0.76375 0.19771 0.43868 0.0
C1384 C 0.74616 0.2161 0.44037 0.0
C1385 C 0.79844 0.1652 0.43778 0.0
C1386 C 0.80159 0.18644 0.42741 0.0
C1387 C 0.78515 0.20329 0.43035 0.0
C1388 C 0.81691 0.18876 0.408 0.0
C1389 C 0.81707 0.14786 0.43881 0.0
C1390 C 0.82933 0.20868 0.4044 0.0
C1391 C 0.83964 0.21256 0.3837 0.0
C1392 C 0.83765 0.19656 0.36638 0.0
C1393 C 0.82582 0.1764 0.37024 0.0
C1394 C 0.81541 0.17263 0.39076 0.0
H1395 H 0.81672 0.13914 0.45527 0.0
H1396 H 0.81429 0.13478 0.42577 0.0
H1397 H 0.83399 0.15566 0.43629 0.0
H1398 H 0.8304 0.22151 0.41731 0.0
H1399 H 0.84906 0.2281 0.38124 0.0
H1400 H 0.8218 0.28907 0.60252 0.0
H1401 H 0.78895 0.26838 0.61632 0.0
H1402 H 0.77854 0.31914 0.66729 0.0
H1403 H 0.81174 0.33964 0.65383 0.0
H1404 H 0.77552 0.28029 0.68471 0.0
H1405 H 0.72237 0.27617 0.61015 0.0
H1406 H 0.75017 0.26767 0.60186 0.0
H1407 H 0.74562 0.29597 0.61237 0.0
C1408 C 0.81249 0.29581 0.61662 0.0
C1409 C 0.81923 0.31602 0.62692 0.0
C1410 C 0.79344 0.28424 0.62425 0.0
C1411 C 0.78062 0.29278 0.64221 0.0
C1412 C 0.78784 0.31253 0.65308 0.0
H1413 H 0.73648 0.17405 0.70649 0.0
H1414 H 0.72017 0.21078 0.69656 0.0
C1415 C 0.80704 0.32401 0.64557 0.0
C1416 C 0.76183 0.2791 0.65139 0.0
H1417 H 0.72403 0.24001 0.63285 0.0
C1418 C 0.76347 0.27209 0.67371 0.0
C1419 C 0.7453 0.26917 0.63741 0.0
C1420 C 0.74062 0.27794 0.6142 0.0
C1421 C 0.75244 0.25248 0.68103 0.0
C1422 C 0.73971 0.23969 0.66538 0.0
C1423 C 0.73437 0.24941 0.64462 0.0
C1424 C 0.74042 0.21471 0.66661 0.0
C1425 C 0.75752 0.24392 0.7043 0.0
C1426 C 0.7551 0.20367 0.65168 0.0
C1427 C 0.76412 0.18267 0.65705 0.0
C1428 C 0.7588 0.17256 0.6776 0.0
C1429 C 0.74143 0.1819 0.69085 0.0
C1430 C 0.73206 0.20286 0.68521 0.0
H1431 H 0.76685 0.25658 0.71449 0.0
H1432 H 0.74153 0.23981 0.71316 0.0
H1433 H 0.76797 0.22834 0.70333 0.0
H1434 H 0.76173 0.21241 0.63716 0.0
H1435 H 0.77695 0.17557 0.64615 0.0
H1436 H 0.80792 0.36237 0.90739 0.0
H1437 H 0.76918 0.35557 0.89508 0.0
H1438 H 0.78863 0.29029 0.86908 0.0
H1439 H 0.82771 0.29729 0.88071 0.0
H1440 H 0.7476 0.33784 0.85139 0.0
H1441 H 0.74435 0.28165 0.92642 0.0
H1442 H 0.76658 0.30245 0.92376 0.0
H1443 H 0.76613 0.27844 0.90544 0.0
C1444 C 0.80413 0.34703 0.89818 0.0
C1445 C 0.82053 0.33022 0.89529 0.0
C1446 C 0.78208 0.34312 0.89123 0.0
C1447 C 0.77626 0.32229 0.8816 0.0
C1448 C 0.79302 0.3064 0.87656 0.0
H1449 H 0.63162 0.3048 0.87454 0.0
H1450 H 0.66937 0.29161 0.8847 0.0
C1451 C 0.81526 0.3105 0.88315 0.0
C1452 C 0.75225 0.31659 0.88019 0.0
H1453 H 0.70997 0.29787 0.91448 0.0
C1454 C 0.73926 0.32848 0.86469 0.0
C1455 C 0.74166 0.30423 0.89758 0.0
C1456 C 0.75528 0.29088 0.91432 0.0
C1457 C 0.71591 0.33019 0.86735 0.0
C1458 C 0.70559 0.32002 0.88628 0.0
C1459 C 0.71821 0.30608 0.90042 0.0
C1460 C 0.68203 0.3252 0.89188 0.0
C1461 C 0.70289 0.3442 0.8506 0.0
C1462 C 0.6762 0.34792 0.89554 0.0
C1463 C 0.65486 0.3555 0.88937 0.0
C1464 C 0.63931 0.34014 0.88046 0.0
C1465 C 0.6436 0.31682 0.88142 0.0
C1466 C 0.66517 0.30928 0.88708 0.0
H1467 H 0.71071 0.34308 0.83371 0.0
H1468 H 0.68494 0.33888 0.84935 0.0
H1469 H 0.70335 0.36221 0.85586 0.0
H1470 H 0.68909 0.36027 0.89969 0.0
H1471 H 0.65163 0.37354 0.88877 0.0
H1472 H 0.21955 0.84159 0.67294 0.0
H1473 H 0.2465 0.81062 0.67872 0.0
H1474 H 0.19158 0.76251 0.67406 0.0
H1475 H 0.16465 0.79356 0.66997 0.0
H1476 H 0.22266 0.74989 0.70608 0.0
H1477 H 0.26856 0.77368 0.62771 0.0
H1478 H 0.2676 0.79287 0.65096 0.0
H1479 H 0.24259 0.78799 0.63452 0.0
C1480 C 0.21341 0.82433 0.6731 0.0
C1481 C 0.19026 0.81969 0.67053 0.0
C1482 C 0.22875 0.80671 0.67651 0.0
C1483 C 0.22114 0.78423 0.67657 0.0
C1484 C 0.19787 0.77975 0.67427 0.0
H1485 H 0.18801 0.68373 0.62745 0.0
H1486 H 0.20286 0.70633 0.65799 0.0
C1487 C 0.18252 0.79738 0.67157 0.0
C1488 C 0.23693 0.76485 0.6763 0.0
H1489 H 0.26437 0.73562 0.63566 0.0
C1490 C 0.23241 0.74683 0.69099 0.0
C1491 C 0.25099 0.76104 0.65747 0.0
C1492 C 0.25785 0.77984 0.64172 0.0
C1493 C 0.23668 0.72449 0.68441 0.0
C1494 C 0.24601 0.72057 0.66302 0.0
C1495 C 0.25593 0.7387 0.65144 0.0
C1496 C 0.23821 0.70133 0.64921 0.0
C1497 C 0.22853 0.70543 0.69909 0.0
C1498 C 0.253 0.6906 0.63425 0.0
C1499 C 0.2444 0.6781 0.61637 0.0
C1500 C 0.22089 0.67618 0.61326 0.0
C1501 C 0.20618 0.68519 0.62932 0.0
C1502 C 0.21475 0.6978 0.64705 0.0
H1503 H 0.2376 0.70616 0.71527 0.0
H1504 H 0.21023 0.70751 0.70261 0.0
H1505 H 0.23135 0.68848 0.69162 0.0
H1506 H 0.27111 0.69314 0.63554 0.0
H1507 H 0.25615 0.67083 0.60445 0.0
H1508 H 0.28397 0.72243 0.82884 0.0
H1509 H 0.25958 0.7157 0.86101 0.0
H1510 H 0.31153 0.74136 0.90483 0.0
H1511 H 0.33548 0.74928 0.87243 0.0
H1512 H 0.30487 0.69159 0.90104 0.0
H1513 H 0.2243 0.73698 0.91794 0.0
H1514 H 0.23339 0.73661 0.88922 0.0
H1515 H 0.25007 0.75135 0.90967 0.0
C1516 C 0.28936 0.72829 0.84513 0.0
C1517 C 0.31148 0.73601 0.84831 0.0
C1518 C 0.27549 0.72445 0.86355 0.0
C1519 C 0.28398 0.72778 0.88521 0.0
C1520 C 0.30474 0.73883 0.88818 0.0
H1521 H 0.21111 0.6321 0.96879 0.0
H1522 H 0.24661 0.65208 0.96113 0.0
C1523 C 0.31837 0.74332 0.86963 0.0
C1524 C 0.27521 0.71286 0.9028 0.0
H1525 H 0.22476 0.69692 0.92499 0.0
C1526 C 0.28763 0.69303 0.90715 0.0
C1527 C 0.25283 0.7149 0.91058 0.0
C1528 C 0.23935 0.73618 0.90682 0.0
C1529 C 0.27723 0.67415 0.91691 0.0
C1530 C 0.25415 0.67544 0.92239 0.0
C1531 C 0.24253 0.69609 0.92047 0.0
C1532 C 0.24034 0.65511 0.9257 0.0
C1533 C 0.29023 0.65239 0.91942 0.0
C1534 C 0.22666 0.64819 0.90783 0.0
C1535 C 0.20648 0.6369 0.91207 0.0
C1536 C 0.20005 0.63237 0.93419 0.0
C1537 C 0.21573 0.63558 0.95157 0.0
C1538 C 0.23589 0.64715 0.94731 0.0
H1539 H 0.30866 0.65494 0.91678 0.0
H1540 H 0.28738 0.64516 0.93634 0.0
H1541 H 0.284 0.63989 0.90699 0.0
H1542 H 0.23008 0.65414 0.89099 0.0
H1543 H 0.19468 0.63436 0.89844 0.0
H1544 H 0.38814 0.67132 0.14685 0.0
H1545 H 0.39094 0.69528 0.11381 0.0
H1546 H 0.34678 0.65024 0.07778 0.0
H1547 H 0.3437 0.62633 0.11063 0.0
H1548 H 0.38577 0.69878 0.05945 0.0
H1549 H 0.30805 0.70143 0.11286 0.0
H1550 H 0.33251 0.68687 0.12339 0.0
H1551 H 0.31724 0.67559 0.09991 0.0
C1552 C 0.38007 0.66583 0.13152 0.0
C1553 C 0.36478 0.64772 0.13152 0.0
C1554 C 0.38196 0.67933 0.11249 0.0
C1555 C 0.36831 0.6748 0.09379 0.0
C1556 C 0.35721 0.654 0.09218 0.0
H1557 H 0.30975 0.80781 0.08302 0.0
H1558 H 0.31119 0.76721 0.07747 0.0
C1559 C 0.3552 0.64056 0.11118 0.0
C1560 C 0.35829 0.69451 0.08275 0.0
H1561 H 0.32105 0.73526 0.09814 0.0
C1562 C 0.37108 0.70661 0.06711 0.0
C1563 C 0.33857 0.70427 0.09215 0.0
C1564 C 0.32318 0.69144 0.10795 0.0
C1565 C 0.36604 0.72931 0.06257 0.0
C1566 C 0.34896 0.74024 0.07532 0.0
C1567 C 0.33451 0.72721 0.08873 0.0
C1568 C 0.34789 0.76511 0.07781 0.0
C1569 C 0.3797 0.74139 0.04488 0.0
C1570 C 0.36786 0.7775 0.08129 0.0
C1571 C 0.36705 0.80084 0.08392 0.0
C1572 C 0.34618 0.81207 0.08402 0.0
C1573 C 0.3261 0.79954 0.08276 0.0
C1574 C 0.32695 0.77628 0.07934 0.0
H1575 H 0.3823 0.73014 0.0302 0.0
H1576 H 0.37139 0.75717 0.03913 0.0
H1577 H 0.3967 0.7455 0.05162 0.0
H1578 H 0.38416 0.7692 0.08193 0.0
H1579 H 0.38279 0.81013 0.08545 0.0
H1580 H 0.26689 0.80152 0.51095 0.0
H1581 H 0.22632 0.79357 0.51425 0.0
H1582 H 0.22408 0.77915 0.44343 0.0
H1583 H 0.26394 0.78832 0.44003 0.0
H1584 H 0.19876 0.82194 0.49349 0.0
H1585 H 0.17201 0.74003 0.46338 0.0
H1586 H 0.19772 0.74341 0.47948 0.0
H1587 H 0.19824 0.74493 0.44923 0.0
C1588 C 0.25769 0.79619 0.49624 0.0
C1589 C 0.2682 0.79614 0.4751 0.0
C1590 C 0.23462 0.79133 0.49823 0.0
C1591 C 0.22204 0.78555 0.4792 0.0
C1592 C 0.2333 0.78325 0.45851 0.0
H1593 H 0.2077 0.81219 0.37924 0.0
H1594 H 0.20075 0.79604 0.41581 0.0
C1595 C 0.25606 0.78886 0.45641 0.0
C1596 C 0.1972 0.78868 0.47879 0.0
H1597 H 0.16396 0.77376 0.43535 0.0
C1598 C 0.19011 0.81118 0.48153 0.0
C1599 C 0.18409 0.77435 0.46513 0.0
C1600 C 0.18833 0.74924 0.46445 0.0
C1601 C 0.17663 0.82133 0.46508 0.0
C1602 C 0.16981 0.80804 0.44658 0.0
C1603 C 0.17045 0.78431 0.4487 0.0
C1604 C 0.17203 0.81747 0.42368 0.0
C1605 C 0.17336 0.84662 0.46561 0.0
C1606 C 0.15864 0.83538 0.41592 0.0
C1607 C 0.1629 0.84504 0.39493 0.0
C1608 C 0.18058 0.83678 0.38131 0.0
C1609 C 0.19409 0.81909 0.3893 0.0
C1610 C 0.18985 0.80957 0.41016 0.0
H1611 H 0.17806 0.854 0.48206 0.0
H1612 H 0.18391 0.85471 0.45247 0.0
H1613 H 0.15539 0.85075 0.46228 0.0
H1614 H 0.14495 0.84184 0.42602 0.0
H1615 H 0.1519 0.85845 0.38912 0.0
H1616 H 0.81098 0.06547 0.82501 0.0
H1617 H 0.79232 0.06043 0.86104 0.0
H1618 H 0.72809 0.05264 0.8278 0.0
H1619 H 0.74658 0.05818 0.79159 0.0
H1620 H 0.72765 0.0867 0.85756 0.0
H1621 H 0.76402 0.01121 0.89857 0.0
H1622 H 0.78547 0.03009 0.88839 0.0
H1623 H 0.76679 0.01632 0.86888 0.0
C1624 C 0.79299 0.06195 0.82524 0.0
C1625 C 0.78025 0.06252 0.80537 0.0
C1626 C 0.78233 0.05893 0.84594 0.0
C1627 C 0.75877 0.05607 0.8472 0.0
C1628 C 0.74629 0.05481 0.82726 0.0
H1629 H 0.66877 0.08236 0.96126 0.0
H1630 H 0.68321 0.06689 0.92604 0.0
C1631 C 0.75692 0.05793 0.80654 0.0
C1632 C 0.74694 0.05811 0.8691 0.0
H1633 H 0.74642 0.03866 0.92298 0.0
C1634 C 0.73142 0.07589 0.87174 0.0
C1635 C 0.75204 0.04418 0.88768 0.0
C1636 C 0.76783 0.02424 0.8857 0.0
C1637 C 0.72159 0.08074 0.89258 0.0
C1638 C 0.72709 0.06716 0.9113 0.0
C1639 C 0.74218 0.04901 0.9086 0.0
C1640 C 0.71844 0.0727 0.934 0.0
C1641 C 0.70628 0.1011 0.89459 0.0
C1642 C 0.7335 0.07992 0.95066 0.0
C1643 C 0.72532 0.08862 0.97089 0.0
C1644 C 0.70189 0.09026 0.97483 0.0
C1645 C 0.6869 0.08153 0.95872 0.0
C1646 C 0.69511 0.07277 0.93852 0.0
H1647 H 0.70763 0.11245 0.87983 0.0
H1648 H 0.68846 0.09532 0.89591 0.0
H1649 H 0.71034 0.11103 0.90984 0.0
H1650 H 0.75157 0.07992 0.94756 0.0
H1651 H 0.73737 0.09507 0.98294 0.0
H1652 H 0.93031 0.30586 0.03616 0.0
H1653 H 0.92101 0.29746 0.0753 0.0
H1654 H 0.85761 0.33271 0.06814 0.0
H1655 H 0.8675 0.34182 0.0292 0.0
H1656 H 0.91177 0.32965 0.10915 0.0
H1657 H 0.83861 0.27171 0.09699 0.0
H1658 H 0.85713 0.27961 0.07412 0.0
H1659 H 0.83666 0.29934 0.08464 0.0
C1660 C 0.91407 0.31115 0.04278 0.0
C1661 C 0.89869 0.32281 0.02916 0.0
C1662 C 0.90885 0.30654 0.06517 0.0
C1663 C 0.88825 0.31377 0.07451 0.0
C1664 C 0.87318 0.32616 0.06113 0.0
H1665 H 0.84315 0.27904 0.21191 0.0
H1666 H 0.84339 0.29614 0.17434 0.0
C1667 C 0.87862 0.33102 0.03877 0.0
C1668 C 0.88348 0.30937 0.0986 0.0
H1669 H 0.85026 0.27825 0.13401 0.0
C1670 C 0.89823 0.31852 0.11459 0.0
C1671 C 0.86543 0.29538 0.10581 0.0
C1672 C 0.84858 0.28576 0.08952 0.0
C1673 C 0.89598 0.3134 0.13744 0.0
C1674 C 0.87903 0.29796 0.14449 0.0
C1675 C 0.86347 0.2898 0.12865 0.0
C1676 C 0.87861 0.28853 0.16765 0.0
C1677 C 0.91187 0.32466 0.15375 0.0
C1678 C 0.89812 0.27828 0.17632 0.0
C1679 C 0.89809 0.26883 0.19771 0.0
C1680 C 0.87839 0.2689 0.21096 0.0
C1681 C 0.85867 0.2789 0.20224 0.0
C1682 C 0.85878 0.2886 0.18075 0.0
H1683 H 0.91714 0.34162 0.14762 0.0
H1684 H 0.904 0.32664 0.17052 0.0
H1685 H 0.92739 0.31424 0.15543 0.0
H1686 H 0.91341 0.2772 0.16636 0.0
H1687 H 0.91353 0.26103 0.20365 0.0
H1688 H 0.79306 0.41759 0.46385 0.0
H1689 H 0.77481 0.41869 0.42719 0.0
H1690 H 0.73319 0.36167 0.44564 0.0
H1691 H 0.7516 0.36019 0.48222 0.0
H1692 H 0.75385 0.35598 0.40508 0.0
H1693 H 0.71209 0.43997 0.4085 0.0
H1694 H 0.74182 0.4407 0.41459 0.0
H1695 H 0.72287 0.42596 0.43312 0.0
C1696 C 0.77981 0.40545 0.46025 0.0
C1697 C 0.77379 0.3888 0.47601 0.0
C1698 C 0.76931 0.4062 0.43929 0.0
C1699 C 0.75243 0.39045 0.43374 0.0
C1700 C 0.74611 0.37406 0.44959 0.0
H1701 H 0.6619 0.38376 0.32047 0.0
H1702 H 0.67966 0.39104 0.35667 0.0
C1703 C 0.75664 0.37326 0.47052 0.0
C1704 C 0.74239 0.39005 0.41095 0.0
H1705 H 0.71254 0.42146 0.37312 0.0
C1706 C 0.74479 0.3703 0.39811 0.0
C1707 C 0.73043 0.40868 0.40193 0.0
C1708 C 0.72643 0.42997 0.4153 0.0
C1709 C 0.73568 0.36867 0.3765 0.0
C1710 C 0.72422 0.38748 0.36724 0.0
C1711 C 0.72162 0.40719 0.38013 0.0
C1712 C 0.71388 0.38643 0.34463 0.0
C1713 C 0.73794 0.34658 0.36399 0.0
C1714 C 0.72728 0.38246 0.32561 0.0
C1715 C 0.71719 0.37824 0.30485 0.0
C1716 C 0.69348 0.37804 0.30273 0.0
C1717 C 0.6802 0.38367 0.32149 0.0
C1718 C 0.69031 0.38783 0.34224 0.0
H1719 H 0.74238 0.33236 0.37532 0.0
H1720 H 0.72198 0.34228 0.35518 0.0
H1721 H 0.75157 0.34816 0.35129 0.0
H1722 H 0.74554 0.38178 0.32699 0.0
H1723 H 0.72795 0.37413 0.29074 0.0
H1724 H 0.60756 0.25987 0.7185 0.0
H1725 H 0.60544 0.2418 0.68171 0.0
H1726 H 0.57162 0.30065 0.65527 0.0
H1727 H 0.57296 0.31848 0.6921 0.0
H1728 H 0.55313 0.26248 0.63927 0.0
H1729 H 0.64645 0.25859 0.63049 0.0
H1730 H 0.63629 0.24393 0.65479 0.0
H1731 H 0.63278 0.27412 0.65269 0.0
C1732 C 0.59953 0.26888 0.70488 0.0
C1733 C 0.5906 0.29066 0.70814 0.0
C1734 C 0.59847 0.2586 0.68384 0.0
C1735 C 0.58887 0.27011 0.66562 0.0
C1736 C 0.57923 0.29152 0.66905 0.0
H1737 H 0.61968 0.23411 0.52842 0.0
H1738 H 0.61387 0.25465 0.56345 0.0
C1739 C 0.58003 0.30168 0.69013 0.0
C1740 C 0.58932 0.26015 0.64286 0.0
H1741 H 0.62497 0.23919 0.60301 0.0
C1742 C 0.56884 0.25746 0.63127 0.0
C1743 C 0.60987 0.25405 0.63228 0.0
C1744 C 0.6326 0.25802 0.64309 0.0
C1745 C 0.56831 0.2485 0.60951 0.0
C1746 C 0.58878 0.24148 0.59934 0.0
C1747 C 0.60926 0.24445 0.61084 0.0
C1748 C 0.58958 0.23077 0.5769 0.0
C1749 C 0.54591 0.24707 0.59753 0.0
C1750 C 0.57742 0.21083 0.57254 0.0
C1751 C 0.58042 0.19927 0.55234 0.0
C1752 C 0.59603 0.2072 0.53638 0.0
C1753 C 0.60758 0.22757 0.54043 0.0
C1754 C 0.60431 0.23929 0.56046 0.0
H1755 H 0.5336 0.25953 0.60431 0.0
H1756 H 0.54792 0.25008 0.5793 0.0
H1757 H 0.53863 0.22993 0.59998 0.0
H1758 H 0.56639 0.2036 0.58514 0.0
H1759 H 0.57148 0.18347 0.5498 0.0
H1760 H 0.21541 0.6175 0.43055 0.0
H1761 H 0.23729 0.61522 0.39597 0.0
H1762 H 0.29774 0.63393 0.43176 0.0
H1763 H 0.2758 0.63667 0.4666 0.0
H1764 H 0.29298 0.65617 0.38969 0.0
H1765 H 0.28106 0.56339 0.38211 0.0
H1766 H 0.255 0.57875 0.38472 0.0
H1767 H 0.2748 0.57862 0.40755 0.0
C1768 C 0.23337 0.62107 0.43118 0.0
C1769 C 0.24389 0.62699 0.45147 0.0
C1770 C 0.24587 0.61974 0.41134 0.0
C1771 C 0.26922 0.62405 0.41132 0.0
C1772 C 0.27975 0.63044 0.43141 0.0
H1773 H 0.35108 0.57673 0.29972 0.0
H1774 H 0.33739 0.58545 0.33719 0.0
C1775 C 0.2672 0.63188 0.45133 0.0
C1776 C 0.28258 0.62123 0.39039 0.0
H1777 H 0.29588 0.58236 0.35028 0.0
C1778 C 0.29382 0.64 0.38113 0.0
C1779 C 0.28395 0.60007 0.37941 0.0
C1780 C 0.27325 0.579 0.38904 0.0
C1781 C 0.30591 0.63828 0.36085 0.0
C1782 C 0.30639 0.61729 0.34936 0.0
C1783 C 0.29559 0.59846 0.359 0.0
C1784 C 0.31732 0.61428 0.32706 0.0
C1785 C 0.31833 0.65883 0.35218 0.0
C1786 C 0.31103 0.62775 0.30875 0.0
C1787 C 0.31865 0.62252 0.28717 0.0
C1788 C 0.33285 0.60393 0.28326 0.0
C1789 C 0.33993 0.59111 0.30185 0.0
C1790 C 0.33217 0.59612 0.3234 0.0
H1791 H 0.32257 0.67073 0.36594 0.0
H1792 H 0.33418 0.65399 0.34342 0.0
H1793 H 0.30738 0.66799 0.34017 0.0
H1794 H 0.29916 0.64153 0.31086 0.0
H1795 H 0.31268 0.63261 0.27361 0.0
H1796 H 0.4164 0.71388 0.68654 0.0
H1797 H 0.42594 0.73395 0.65201 0.0
H1798 H 0.39799 0.79544 0.67928 0.0
H1799 H 0.38848 0.77554 0.71399 0.0
H1800 H 0.39491 0.75526 0.62382 0.0
H1801 H 0.45929 0.81639 0.65398 0.0
H1802 H 0.45112 0.79165 0.66982 0.0
H1803 H 0.43341 0.81636 0.66979 0.0
C1804 C 0.41251 0.73175 0.68535 0.0
C1805 C 0.40168 0.74309 0.70309 0.0
C1806 C 0.41798 0.74319 0.66556 0.0
C1807 C 0.41295 0.76626 0.66313 0.0
C1808 C 0.40245 0.77775 0.68092 0.0
H1809 H 0.40956 0.86388 0.55687 0.0
H1810 H 0.41226 0.8441 0.59256 0.0
C1811 C 0.3969 0.7663 0.70072 0.0
C1812 C 0.4172 0.77785 0.64143 0.0
H1813 H 0.44483 0.82249 0.61728 0.0
C1814 C 0.40601 0.76982 0.62233 0.0
C1815 C 0.43163 0.79689 0.63954 0.0
C1816 C 0.44473 0.80576 0.65932 0.0
C1817 C 0.40823 0.78069 0.60154 0.0
C1818 C 0.42253 0.79988 0.59962 0.0
C1819 C 0.43399 0.80774 0.61869 0.0
C1820 C 0.42456 0.81278 0.5783 0.0
C1821 C 0.39452 0.77201 0.58206 0.0
C1822 C 0.43175 0.80219 0.55847 0.0
C1823 C 0.43014 0.81346 0.5379 0.0
C1824 C 0.42145 0.83561 0.53681 0.0
C1825 C 0.4162 0.8468 0.55697 0.0
C1826 C 0.41769 0.83548 0.57747 0.0
H1827 H 0.37995 0.76153 0.58768 0.0
H1828 H 0.38798 0.78616 0.57177 0.0
H1829 H 0.40544 0.7613 0.57128 0.0
H1830 H 0.43768 0.78486 0.55876 0.0
H1831 H 0.43453 0.80436 0.52277 0.0
H1832 H 0.17507 0.92643 0.8124 0.0
H1833 H 0.19506 0.93236 0.84754 0.0
H1834 H 0.25642 0.90661 0.81777 0.0
H1835 H 0.23629 0.89993 0.78265 0.0
H1836 H 0.24769 0.88585 0.85578 0.0
H1837 H 0.23968 0.97788 0.8702 0.0
H1838 H 0.21264 0.96503 0.86537 0.0
H1839 H 0.23363 0.96502 0.84347 0.0
C1840 C 0.19294 0.92246 0.81314 0.0
C1841 C 0.20408 0.91262 0.79474 0.0
C1842 C 0.20441 0.92602 0.83325 0.0
C1843 C 0.22734 0.92021 0.83526 0.0
C1844 C 0.23874 0.91129 0.81659 0.0
H1845 H 0.30671 0.94315 0.95645 0.0
H1846 H 0.29045 0.94587 0.91894 0.0
C1847 C 0.22722 0.90751 0.79652 0.0
C1848 C 0.23865 0.92114 0.8574 0.0
H1849 H 0.24838 0.95519 0.90258 0.0
C1850 C 0.24808 0.90111 0.86588 0.0
C1851 C 0.2394 0.94108 0.87052 0.0
C1852 C 0.231 0.96351 0.86181 0.0
C1853 C 0.25758 0.90026 0.88733 0.0
C1854 C 0.25705 0.91983 0.90098 0.0
C1855 C 0.24836 0.94009 0.89225 0.0
C1856 C 0.26558 0.91951 0.92429 0.0
C1857 C 0.26828 0.87843 0.89506 0.0
C1858 C 0.25646 0.90436 0.94 0.0
C1859 C 0.26581 0.90264 0.96138 0.0
C1860 C 0.28425 0.9163 0.96756 0.0
C1861 C 0.29253 0.93236 0.95221 0.0
C1862 C 0.28328 0.93393 0.93075 0.0
H1863 H 0.27329 0.86759 0.88068 0.0
H1864 H 0.28348 0.8817 0.90546 0.0
H1865 H 0.25588 0.8688 0.90527 0.0
H1866 H 0.24238 0.89351 0.93557 0.0
H1867 H 0.2589 0.89026 0.97288 0.0
H1868 H 0.07245 0.71813 0.04595 0.0
H1869 H 0.07221 0.73168 0.08446 0.0
H1870 H 0.12708 0.77737 0.06919 0.0
H1871 H 0.12794 0.76329 0.03068 0.0
H1872 H 0.13593 0.75403 0.10582 0.0
H1873 H 0.04913 0.78814 0.1134 0.0
H1874 H 0.04917 0.75928 0.10412 0.0
H1875 H 0.06156 0.78092 0.08674 0.0
C1876 C 0.0842 0.73139 0.05062 0.0
C1877 C 0.10021 0.73965 0.03518 0.0
C1878 C 0.08395 0.73922 0.07269 0.0
C1879 C 0.09941 0.75579 0.07974 0.0
C1880 C 0.11493 0.76461 0.06416 0.0
H1881 H 0.0977 0.82439 0.20821 0.0
H1882 H 0.09298 0.81313 0.16921 0.0
C1883 C 0.11535 0.75661 0.04211 0.0
C1884 C 0.10058 0.76258 0.1037 0.0
H1885 H 0.06894 0.78172 0.14772 0.0
C1886 C 0.1213 0.76025 0.11492 0.0
C1887 C 0.08157 0.77088 0.11559 0.0
C1888 C 0.05918 0.77518 0.10428 0.0
C1889 C 0.12351 0.76572 0.13768 0.0
C1890 C 0.10426 0.77307 0.14982 0.0
C1891 C 0.0836 0.77572 0.13854 0.0
C1892 C 0.1055 0.77906 0.17397 0.0
C1893 C 0.14661 0.76409 0.14829 0.0
C1894 C 0.11339 0.76344 0.18988 0.0
C1895 C 0.11634 0.76991 0.21223 0.0
C1896 C 0.11107 0.79203 0.21917 0.0
C1897 C 0.10197 0.80722 0.20346 0.0
C1898 C 0.09926 0.80081 0.18111 0.0
H1899 H 0.16032 0.76454 0.13555 0.0
H1900 H 0.14944 0.77809 0.16036 0.0
H1901 H 0.14797 0.7478 0.15743 0.0
H1902 H 0.11769 0.74634 0.18492 0.0
H1903 H 0.1232 0.75774 0.22394 0.0
H1904 H 0.60353 0.13005 0.35642 0.0
H1905 H 0.61349 0.14553 0.31961 0.0
H1906 H 0.5974 0.08157 0.28891 0.0
H1907 H 0.58818 0.06566 0.3255 0.0
H1908 H 0.64672 0.12674 0.28527 0.0
H1909 H 0.55756 0.13161 0.25657 0.0
H1910 H 0.56518 0.13039 0.28581 0.0
H1911 H 0.56556 0.10513 0.2691 0.0
C1912 C 0.60235 0.11914 0.34191 0.0
C1913 C 0.59482 0.09657 0.34405 0.0
C1914 C 0.60798 0.1281 0.32086 0.0
C1915 C 0.60596 0.11478 0.30152 0.0
C1916 C 0.59879 0.09224 0.3036 0.0
H1917 H 0.64694 0.10973 0.16646 0.0
H1918 H 0.64667 0.10987 0.20738 0.0
C1919 C 0.59335 0.08322 0.32457 0.0
C1920 C 0.61095 0.12426 0.27899 0.0
H1921 H 0.58604 0.13522 0.22866 0.0
C1922 C 0.63346 0.12891 0.27294 0.0
C1923 C 0.59361 0.12742 0.26304 0.0
C1924 C 0.56907 0.12359 0.26891 0.0
C1925 C 0.63917 0.13544 0.25095 0.0
C1926 C 0.62193 0.13726 0.23463 0.0
C1927 C 0.59931 0.1338 0.24109 0.0
C1928 C 0.62684 0.14051 0.21037 0.0
C1929 C 0.66361 0.14003 0.24528 0.0
C1930 C 0.6164 0.15806 0.19829 0.0
C1931 C 0.61674 0.15807 0.17481 0.0
C1932 C 0.62733 0.14042 0.16306 0.0
C1933 C 0.63912 0.1238 0.17515 0.0
C1934 C 0.63892 0.12387 0.19857 0.0
H1935 H 0.67358 0.14424 0.26046 0.0
H1936 H 0.67113 0.12466 0.23762 0.0
H1937 H 0.66513 0.15414 0.23309 0.0
H1938 H 0.6068 0.17096 0.207 0.0
H1939 H 0.60708 0.17075 0.16589 0.0
H1940 H 0.89614 0.16903 0.39394 0.0
H1941 H 0.88015 0.17188 0.43171 0.0
H1942 H 0.89284 0.10082 0.44221 0.0
H1943 H 0.9071 0.09744 0.40429 0.0
H1944 H 0.85339 0.11204 0.4597 0.0
H1945 H 0.91761 0.17492 0.48743 0.0
H1946 H 0.89989 0.1836 0.46464 0.0
H1947 H 0.91956 0.16073 0.46081 0.0
C1948 C 0.89531 0.15394 0.40418 0.0
C1949 C 0.90359 0.13311 0.39607 0.0
C1950 C 0.88638 0.15567 0.42594 0.0
C1951 C 0.88583 0.1367 0.44017 0.0
C1952 C 0.89326 0.1158 0.43176 0.0
H1953 H 0.90495 0.11141 0.57545 0.0
H1954 H 0.90458 0.12289 0.53646 0.0
C1955 C 0.90183 0.11399 0.41005 0.0
C1956 C 0.87836 0.13818 0.46403 0.0
H1957 H 0.89327 0.16037 0.51475 0.0
C1958 C 0.86188 0.12284 0.47173 0.0
C1959 C 0.88937 0.15232 0.47976 0.0
C1960 C 0.90771 0.16872 0.47288 0.0
C1961 C 0.85716 0.12021 0.49468 0.0
C1962 C 0.86891 0.13364 0.51049 0.0
C1963 C 0.88426 0.15006 0.50267 0.0
C1964 C 0.86843 0.12852 0.53498 0.0
C1965 C 0.84076 0.10197 0.5018 0.0
C1966 C 0.84827 0.12835 0.54761 0.0
C1967 C 0.84837 0.12128 0.57011 0.0
C1968 C 0.86866 0.11438 0.58037 0.0
C1969 C 0.88889 0.11591 0.56797 0.0
C1970 C 0.88875 0.12275 0.54564 0.0
H1971 H 0.83625 0.09049 0.48776 0.0
H1972 H 0.84796 0.09165 0.51557 0.0
H1973 H 0.82495 0.10996 0.50797 0.0
H1974 H 0.83242 0.1333 0.54 0.0
H1975 H 0.83253 0.12051 0.57922 0.0
H1976 H 0.89637 0.35176 0.66845 0.0
H1977 H 0.89248 0.34031 0.70781 0.0
H1978 H 0.88705 0.41038 0.72721 0.0
H1979 H 0.89074 0.42186 0.68807 0.0
H1980 H 0.92242 0.35365 0.74269 0.0
H1981 H 0.8346 0.38008 0.76148 0.0
H1982 H 0.84482 0.37598 0.73325 0.0
H1983 H 0.851 0.40178 0.74803 0.0
C1984 C 0.89386 0.36468 0.68107 0.0
C1985 C 0.89388 0.38773 0.67513 0.0
C1986 C 0.89176 0.35812 0.70356 0.0
C1987 C 0.88923 0.37446 0.72047 0.0
C1988 C 0.88861 0.39743 0.71447 0.0
H1989 H 0.8982 0.39926 0.85864 0.0
H1990 H 0.89026 0.39718 0.8187 0.0
C1991 C 0.8909 0.40399 0.69209 0.0
C1992 C 0.889 0.36791 0.74455 0.0
H1993 H 0.85908 0.3748 0.79307 0.0
C1994 C 0.90841 0.35783 0.75369 0.0
C1995 C 0.8707 0.37335 0.75886 0.0
C1996 C 0.849 0.3832 0.7499 0.0
C1997 C 0.91062 0.35444 0.77691 0.0
C1998 C 0.8927 0.36085 0.79137 0.0
C1999 C 0.87283 0.36987 0.78205 0.0
C2000 C 0.89532 0.36101 0.81621 0.0
C2001 C 0.93268 0.34535 0.78584 0.0
C2002 C 0.90007 0.34122 0.82846 0.0
C2003 C 0.90479 0.34239 0.85149 0.0
C2004 C 0.90486 0.36339 0.86259 0.0
C2005 C 0.89875 0.38288 0.8505 0.0
C2006 C 0.89407 0.3817 0.82765 0.0
H2007 H 0.94619 0.34522 0.7729 0.0
H2008 H 0.93858 0.3556 0.80027 0.0
H2009 H 0.93014 0.32771 0.7917 0.0
H2010 H 0.90063 0.32496 0.82013 0.0
H2011 H 0.90931 0.32708 0.86037 0.0
H2012 H 0.60073 0.34129 0.08794 0.0
H2013 H 0.60258 0.34013 0.04694 0.0
H2014 H 0.61159 0.41256 0.04538 0.0
H2015 H 0.61056 0.41369 0.08614 0.0
H2016 H 0.57215 0.35999 0.02026 0.0
H2017 H 0.65641 0.39386 0.9985 0.0
H2018 H 0.64951 0.38426 0.02638 0.0
H2019 H 0.64195 0.41239 0.01747 0.0
C2020 C 0.6039 0.35684 0.07886 0.0
C2021 C 0.60541 0.3776 0.09029 0.0
C2022 C 0.60478 0.35619 0.05542 0.0
C2023 C 0.60742 0.37623 0.04299 0.0
C2024 C 0.61004 0.39679 0.05448 0.0
H2025 H 0.57664 0.4322 0.91599 0.0
H2026 H 0.58803 0.42282 0.9542 0.0
C2027 C 0.6092 0.39745 0.07784 0.0
C2028 C 0.60473 0.37623 0.01822 0.0
H2029 H 0.62754 0.39743 0.96994 0.0
C2030 C 0.5845 0.36772 1.00919 0.0
C2031 C 0.6208 0.38635 1.00371 0.0
C2032 C 0.64347 0.39451 0.01201 0.0
C2033 C 0.57934 0.37022 0.98638 0.0
C2034 C 0.59491 0.38135 0.97214 0.0
C2035 C 0.61555 0.38903 0.98092 0.0
C2036 C 0.58926 0.38669 0.94852 0.0
C2037 C 0.55676 0.36199 0.97788 0.0
C2038 C 0.58647 0.36949 0.93254 0.0
C2039 C 0.57981 0.3748 0.91066 0.0
C2040 C 0.57579 0.39741 0.9044 0.0
C2041 C 0.57916 0.41459 0.92036 0.0
C2042 C 0.58588 0.40928 0.94215 0.0
H2043 H 0.54522 0.35692 0.9917 0.0
H2044 H 0.54837 0.37535 0.9678 0.0
H2045 H 0.55941 0.34709 0.96688 0.0
H2046 H 0.58921 0.35196 0.93705 0.0
H2047 H 0.57727 0.36119 0.89881 0.0
H2048 H 0.13879 0.56997 0.67983 0.0
H2049 H 0.13792 0.58072 0.71927 0.0
H2050 H 0.12991 0.65076 0.70064 0.0
H2051 H 0.13004 0.63995 0.66096 0.0
H2052 H 0.16264 0.6097 0.74645 0.0
H2053 H 0.07346 0.63893 0.73834 0.0
H2054 H 0.08752 0.62319 0.71651 0.0
H2055 H 0.09388 0.65263 0.7206 0.0
C2056 C 0.13705 0.5877 0.6841 0.0
C2057 C 0.13412 0.60405 0.66723 0.0
C2058 C 0.13665 0.59385 0.70667 0.0
C2059 C 0.13332 0.61649 0.71298 0.0
C2060 C 0.13199 0.63311 0.6962 0.0
H2061 H 0.09475 0.65423 0.85153 0.0
H2062 H 0.10861 0.65885 0.81287 0.0
C2063 C 0.13236 0.62695 0.67351 0.0
C2064 C 0.12974 0.62204 0.73705 0.0
H2065 H 0.08881 0.63799 0.77441 0.0
C2066 C 0.14661 0.61621 0.75253 0.0
C2067 C 0.10883 0.63061 0.74505 0.0
C2068 C 0.08977 0.63658 0.72935 0.0
C2069 C 0.14285 0.61787 0.77571 0.0
C2070 C 0.12155 0.62527 0.78369 0.0
C2071 C 0.10513 0.63232 0.76826 0.0
C2072 C 0.11499 0.62317 0.80766 0.0
C2073 C 0.16155 0.61117 0.79151 0.0
C2074 C 0.11396 0.60165 0.81752 0.0
C2075 C 0.10595 0.59899 0.83936 0.0
C2076 C 0.09871 0.61778 0.85192 0.0
C2077 C 0.10027 0.63946 0.84228 0.0
C2078 C 0.10813 0.6421 0.82022 0.0
H2079 H 0.17844 0.6129 0.78348 0.0
H2080 H 0.1612 0.62162 0.80696 0.0
H2081 H 0.15931 0.59318 0.79635 0.0
H2082 H 0.11878 0.58676 0.80807 0.0
H2083 H 0.10519 0.5821 0.84637 0.0
H2084 H 0.32671 0.57246 0.10967 0.0
H2085 H 0.32369 0.58558 0.07054 0.0
H2086 H 0.39467 0.60247 0.07077 0.0
H2087 H 0.3978 0.58897 0.10921 0.0
H2088 H 0.33244 0.62634 0.04831 0.0
H2089 H 0.39093 0.56036 0.01765 0.0
H2090 H 0.37882 0.55958 0.04537 0.0
H2091 H 0.40348 0.57661 0.03971 0.0
C2092 C 0.3416 0.57897 0.10128 0.0
C2093 C 0.36259 0.57925 0.11236 0.0
C2094 C 0.33988 0.5865 0.07894 0.0
C2095 C 0.3591 0.59449 0.06739 0.0
C2096 C 0.37974 0.59574 0.07894 0.0
H2097 H 0.40575 0.64608 0.94207 0.0
H2098 H 0.39746 0.63741 0.98125 0.0
C2099 C 0.38151 0.58805 0.10098 0.0
C2100 C 0.35818 0.60108 0.04319 0.0
H2101 H 0.38493 0.59186 0.99319 0.0
C2102 C 0.34381 0.61871 0.03623 0.0
C2103 C 0.37259 0.59083 0.02713 0.0
C2104 C 0.38713 0.57064 0.03277 0.0
C2105 C 0.34457 0.62724 0.01412 0.0
C2106 C 0.35987 0.6177 0.99849 0.0
C2107 C 0.37344 0.59944 1.00522 0.0
C2108 C 0.36301 0.6267 0.97529 0.0
C2109 C 0.32969 0.64693 1.00783 0.0
C2110 C 0.34618 0.62425 0.95883 0.0
C2111 C 0.35093 0.62924 0.93625 0.0
C2112 C 0.37259 0.63674 0.92977 0.0
C2113 C 0.38889 0.6404 0.94651 0.0
C2114 C 0.38418 0.6354 0.96894 0.0
H2115 H 0.3213 0.65461 0.02264 0.0
H2116 H 0.33977 0.66016 0.99913 0.0
H2117 H 0.3164 0.64104 0.99609 0.0
H2118 H 0.32981 0.61725 0.9632 0.0
H2119 H 0.3382 0.62575 0.92371 0.0
H2120 H 0.35438 0.90601 0.15136 0.0
H2121 H 0.34133 0.89239 0.18812 0.0
H2122 H 0.40945 0.89681 0.21328 0.0
H2123 H 0.42263 0.91014 0.1768 0.0
H2124 H 0.37425 0.85146 0.22 0.0
H2125 H 0.35031 0.93753 0.24995 0.0
H2126 H 0.34554 0.92889 0.22134 0.0
H2127 H 0.37377 0.93427 0.23082 0.0
C2128 C 0.36659 0.90387 0.16467 0.0
C2129 C 0.38953 0.9094 0.16116 0.0
C2130 C 0.3591 0.89614 0.18565 0.0
C2131 C 0.37445 0.89365 0.2034 0.0
C2132 C 0.39735 0.89868 0.19981 0.0
H2133 H 0.39632 0.8521 0.33605 0.0
H2134 H 0.39321 0.85433 0.29544 0.0
C2135 C 0.40481 0.90647 0.17898 0.0
C2136 C 0.36684 0.88657 0.22605 0.0
H2137 H 0.35173 0.90844 0.27679 0.0
C2138 C 0.36892 0.86381 0.23237 0.0
C2139 C 0.35971 0.90266 0.24205 0.0
C2140 C 0.35709 0.92726 0.23588 0.0
C2141 C 0.36494 0.85686 0.25458 0.0
C2142 C 0.3593 0.87324 0.27102 0.0
C2143 C 0.35606 0.89582 0.26432 0.0
C2144 C 0.35922 0.868 0.29548 0.0
C2145 C 0.36711 0.83208 0.26022 0.0
C2146 C 0.34106 0.87462 0.3093 0.0
C2147 C 0.3429 0.87342 0.3327 0.0
C2148 C 0.36302 0.86581 0.34267 0.0
C2149 C 0.38055 0.85787 0.32881 0.0
C2150 C 0.37873 0.85905 0.30553 0.0
H2151 H 0.36271 0.82135 0.24559 0.0
H2152 H 0.38493 0.82836 0.26472 0.0
H2153 H 0.35606 0.8273 0.27451 0.0
H2154 H 0.32588 0.8817 0.302 0.0
H2155 H 0.32926 0.87996 0.34297 0.0
H2156 H 0.09663 0.84371 0.38894 0.0
H2157 H 0.10319 0.83792 0.42913 0.0
H2158 H 0.09735 0.90986 0.44013 0.0
H2159 H 0.09141 0.91573 0.40037 0.0
H2160 H 0.13239 0.89337 0.46235 0.0
H2161 H 0.05712 0.83905 0.47845 0.0
H2162 H 0.07711 0.82843 0.45839 0.0
H2163 H 0.06122 0.85359 0.45224 0.0
C2164 C 0.09678 0.85824 0.39999 0.0
C2165 C 0.09305 0.88014 0.39151 0.0
C2166 C 0.10036 0.85491 0.42298 0.0
C2167 C 0.10054 0.87344 0.43777 0.0
C2168 C 0.09729 0.89527 0.42914 0.0
H2169 H 0.063 0.89841 0.56942 0.0
H2170 H 0.06821 0.88828 0.53043 0.0
C2171 C 0.09363 0.89858 0.40637 0.0
C2172 C 0.10386 0.87072 0.46231 0.0
H2173 H 0.07831 0.85043 0.50951 0.0
C2174 C 0.12072 0.88378 0.4727 0.0
C2175 C 0.08875 0.85804 0.47577 0.0
C2176 C 0.06991 0.84409 0.46575 0.0
C2177 C 0.1219 0.88585 0.49609 0.0
C2178 C 0.10612 0.87398 0.50956 0.0
C2179 C 0.09033 0.85959 0.49919 0.0
C2180 C 0.1034 0.87879 0.5339 0.0
C2181 C 0.13901 0.90198 0.50595 0.0
C2182 C 0.12136 0.87656 0.54915 0.0
C2183 C 0.1186 0.88308 0.57159 0.0
C2184 C 0.09773 0.89163 0.57924 0.0
C2185 C 0.07955 0.8927 0.56409 0.0
C2186 C 0.08241 0.88654 0.54175 0.0
H2187 H 0.1467 0.91314 0.49305 0.0
H2188 H 0.13111 0.91281 0.51898 0.0
H2189 H 0.15284 0.89214 0.51384 0.0
H2190 H 0.13757 0.87007 0.54369 0.0
H2191 H 0.13293 0.88188 0.58277 0.0
H2192 H 0.55644 0.11627 0.09344 0.0
H2193 H 0.52603 0.088 0.09324 0.0
H2194 H 0.56898 0.04141 0.12895 0.0
H2195 H 0.59918 0.06977 0.12962 0.0
H2196 H 0.52214 0.04539 0.07717 0.0
H2197 H 0.51434 0.04442 0.16955 0.0
H2198 H 0.53091 0.06533 0.15484 0.0
H2199 H 0.54238 0.03765 0.16019 0.0
C2200 C 0.55944 0.09987 0.10096 0.0
C2201 C 0.58004 0.09523 0.11172 0.0
C2202 C 0.54206 0.0838 0.10094 0.0
C2203 C 0.54505 0.06283 0.11161 0.0
C2204 C 0.56607 0.05773 0.12125 0.0
H2205 H 0.46325 0.94266 0.09655 0.0
H2206 H 0.49211 0.97224 0.09479 0.0
C2207 C 0.58334 0.07385 0.12148 0.0
C2208 C 0.5261 0.04643 0.11297 0.0
H2209 H 0.49474 0.0153 0.14987 0.0
C2210 C 0.51605 0.0389 0.09306 0.0
C2211 C 0.51784 0.03835 0.13375 0.0
C2212 C 0.52676 0.04703 0.1558 0.0
C2213 C 0.49838 0.023 0.09333 0.0
C2214 C 0.491 0.01398 0.11406 0.0
C2215 C 0.50061 0.02201 0.13398 0.0
C2216 C 0.47356 0.99597 0.11543 0.0
C2217 C 0.48763 0.01629 0.07142 0.0
C2218 C 0.45396 0.9991 0.12841 0.0
C2219 C 0.43756 0.98205 0.12971 0.0
C2220 C 0.4405 0.96166 0.11798 0.0
C2221 C 0.46036 0.95841 0.1054 0.0
C2222 C 0.4768 0.97533 0.10428 0.0
H2223 H 0.49003 0.02957 0.05847 0.0
H2224 H 0.49572 0.00056 0.0652 0.0
H2225 H 0.46923 0.01309 0.07345 0.0
H2226 H 0.45122 0.01483 0.13731 0.0
H2227 H 0.4224 0.98497 0.1395 0.0
H2228 H 0.97934 0.10125 0.36945 0.0
H2229 H 0.00372 0.06808 0.36416 0.0
H2230 H 0.95878 0.04339 0.31281 0.0
H2231 H 0.93489 0.07672 0.31759 0.0
H2232 H 0.994 0.02552 0.37118 0.0
H2233 H 0.01806 0.03416 0.28218 0.0
H2234 H 0.0047 0.05678 0.29758 0.0
H2235 H 0.98793 0.03435 0.28564 0.0
C2236 C 0.97491 0.08887 0.35683 0.0
C2237 C 0.95538 0.09166 0.34377 0.0
C2238 C 0.98882 0.06995 0.35379 0.0
C2239 C 0.98335 0.0534 0.33777 0.0
C2240 C 0.96383 0.05623 0.32473 0.0
H2241 H 0.0263 0.91353 0.34816 0.0
H2242 H 0.00464 0.9488 0.34606 0.0
C2243 C 0.95011 0.07525 0.32755 0.0
C2244 C 0.99702 0.03236 0.33589 0.0
H2245 H 0.02357 0.99744 0.29857 0.0
C2246 C 0.00063 0.01952 0.35531 0.0
C2247 C 0.00596 0.02461 0.31526 0.0
C2248 C 0.00418 0.03833 0.29405 0.0
C2249 C 0.01247 0.99896 0.35464 0.0
C2250 C 0.02025 0.99056 0.3338 0.0
C2251 C 0.01719 0.00366 0.31445 0.0
C2252 C 0.03213 0.96848 0.33199 0.0
C2253 C 0.01685 0.98671 0.37637 0.0
C2254 C 0.05421 0.96744 0.32331 0.0
C2255 C 0.0664 0.94717 0.32401 0.0
C2256 C 0.05672 0.92766 0.3335 0.0
C2257 C 0.03416 0.92839 0.3409 0.0
C2258 C 0.02189 0.94856 0.33991 0.0
H2259 H 0.01591 0.99838 0.39093 0.0
H2260 H 0.00379 0.97343 0.37877 0.0
H2261 H 0.03374 0.97851 0.37632 0.0
H2262 H 0.06239 0.98255 0.31696 0.0
H2263 H 0.08383 0.9471 0.31838 0.0
H2264 H 0.10771 0.52994 0.63452 0.0
H2265 H 0.07663 0.5026 0.6323 0.0
H2266 H 0.03815 0.54986 0.59262 0.0
H2267 H 0.06964 0.57678 0.59404 0.0
H2268 H 0.03648 0.5064 0.64888 0.0
H2269 H 0.02666 0.49379 0.55775 0.0
H2270 H 0.05083 0.50808 0.56956 0.0
H2271 H 0.02469 0.5231 0.5652 0.0
C2272 C 0.09278 0.53424 0.62494 0.0
C2273 C 0.09111 0.55536 0.6143 0.0
C2274 C 0.075 0.51866 0.62372 0.0
C2275 C 0.05506 0.52397 0.61206 0.0
C2276 C 0.05354 0.545 0.60116 0.0
H2277 H 0.92598 0.46026 0.64483 0.0
H2278 H 0.95798 0.4863 0.64057 0.0
C2279 C 0.0715 0.56044 0.60205 0.0
C2280 C 0.03532 0.50827 0.61289 0.0
H2281 H 0.99584 0.48129 0.58074 0.0
C2282 C 0.02774 0.50078 0.63393 0.0
C2283 C 0.02398 0.50066 0.59343 0.0
C2284 C 0.03211 0.50663 0.57022 0.0
C2285 C 0.00911 0.48618 0.6361 0.0
C2286 C 0.99706 0.4795 0.61672 0.0
C2287 C 0.00481 0.48669 0.59564 0.0
C2288 C 0.97676 0.4646 0.61799 0.0
C2289 C 0.00297 0.47765 0.65914 0.0
C2290 C 0.97602 0.44428 0.60579 0.0
C2291 C 0.9575 0.42964 0.60782 0.0
C2292 C 0.93942 0.43497 0.62219 0.0
C2293 C 0.93984 0.45561 0.63386 0.0
C2294 C 0.95819 0.47041 0.63155 0.0
H2295 H 0.01764 0.47848 0.67072 0.0
H2296 H 0.98937 0.48843 0.66624 0.0
H2297 H 0.99683 0.4599 0.65855 0.0
H2298 H 0.99006 0.43944 0.59513 0.0
H2299 H 0.95768 0.41378 0.59872 0.0
H2300 H 0.44772 0.61668 0.89316 0.0
H2301 H 0.47443 0.58591 0.88529 0.0
H2302 H 0.42583 0.5555 0.84056 0.0
H2303 H 0.39968 0.58662 0.84767 0.0
H2304 H 0.46922 0.54376 0.89518 0.0
H2305 H 0.48126 0.54844 0.80368 0.0
H2306 H 0.46795 0.5709 0.81934 0.0
H2307 H 0.45178 0.54662 0.81047 0.0
C2308 C 0.44306 0.60364 0.88128 0.0
C2309 C 0.42182 0.60404 0.87084 0.0
C2310 C 0.45825 0.5861 0.8768 0.0
C2311 C 0.45231 0.56856 0.86202 0.0
C2312 C 0.43116 0.56917 0.85141 0.0
H2313 H 0.50274 0.43196 0.87387 0.0
H2314 H 0.47998 0.46661 0.87365 0.0
C2315 C 0.41616 0.58689 0.85558 0.0
C2316 C 0.46715 0.5485 0.85947 0.0
H2317 H 0.49017 0.51258 0.82091 0.0
C2318 C 0.47405 0.53714 0.87892 0.0
C2319 C 0.47372 0.53997 0.83829 0.0
C2320 C 0.46848 0.5523 0.81681 0.0
C2321 C 0.48676 0.51718 0.87779 0.0
C2322 C 0.49195 0.5078 0.8566 0.0
C2323 C 0.48572 0.51952 0.83714 0.0
C2324 C 0.50424 0.48608 0.8544 0.0
C2325 C 0.49474 0.50659 0.89937 0.0
C2326 C 0.52465 0.48512 0.84239 0.0
C2327 C 0.53733 0.4652 0.84202 0.0
C2328 C 0.52984 0.44602 0.85378 0.0
C2329 C 0.50889 0.44664 0.86485 0.0
C2330 C 0.49604 0.46644 0.86489 0.0
H2331 H 0.49557 0.51923 0.91311 0.0
H2332 H 0.48262 0.49321 0.90453 0.0
H2333 H 0.51172 0.49881 0.89738 0.0
H2334 H 0.53121 0.50003 0.83404 0.0
H2335 H 0.55354 0.46514 0.83351 0.0
H2336 H 0.53899 0.38872 0.16858 0.0
H2337 H 0.50758 0.41496 0.17528 0.0
H2338 H 0.54485 0.46816 0.14225 0.0
H2339 H 0.57605 0.44189 0.1351 0.0
H2340 H 0.50222 0.45577 0.19659 0.0
H2341 H 0.48759 0.46562 0.10549 0.0
H2342 H 0.50642 0.4445 0.1167 0.0
H2343 H 0.51566 0.47339 0.11389 0.0
C2344 C 0.54061 0.40611 0.16305 0.0
C2345 C 0.55989 0.41319 0.1511 0.0
C2346 C 0.52263 0.42108 0.16684 0.0
C2347 C 0.5236 0.44341 0.15881 0.0
C2348 C 0.54341 0.45085 0.14805 0.0
H2349 H 0.42671 0.5522 0.1876 0.0
H2350 H 0.45928 0.52649 0.18885 0.0
C2351 C 0.56127 0.43586 0.14406 0.0
C2352 C 0.50354 0.45853 0.16069 0.0
H2353 H 0.46644 0.48948 0.12944 0.0
C2354 C 0.49435 0.46313 0.18192 0.0
C2355 C 0.49302 0.46785 0.14152 0.0
C2356 C 0.50101 0.46244 0.1181 0.0
C2357 C 0.47511 0.47696 0.1845 0.0
C2358 C 0.46504 0.48681 0.16535 0.0
C2359 C 0.4742 0.48208 0.14415 0.0
C2360 C 0.44462 0.50157 0.16657 0.0
C2361 C 0.46546 0.48039 0.20763 0.0
C2362 C 0.42554 0.49628 0.15359 0.0
C2363 C 0.40714 0.51107 0.15263 0.0
C2364 C 0.4073 0.53147 0.16472 0.0
C2365 C 0.42601 0.53645 0.17836 0.0
C2366 C 0.4446 0.52171 0.17912 0.0
H2367 H 0.47096 0.46685 0.21932 0.0
H2368 H 0.47152 0.49681 0.21437 0.0
H2369 H 0.44668 0.48073 0.20727 0.0
H2370 H 0.42508 0.48086 0.14378 0.0
H2371 H 0.3929 0.50675 0.14206 0.0
H2372 H 0.55608 0.02571 0.3613 0.0
H2373 H 0.52644 0.99688 0.36521 0.0
H2374 H 0.50215 0.02979 0.42495 0.0
H2375 H 0.53169 0.05874 0.42114 0.0
H2376 H 0.51901 0.96825 0.40722 0.0
H2377 H 0.44537 0.02095 0.3817 0.0
H2378 H 0.47397 0.02764 0.37321 0.0
H2379 H 0.46508 0.03283 0.40144 0.0
C2380 C 0.54427 0.02697 0.37512 0.0
C2381 C 0.54623 0.04456 0.39088 0.0
C2382 C 0.52744 0.01041 0.37741 0.0
C2383 C 0.51206 0.01126 0.39531 0.0
C2384 C 0.51378 0.0289 0.41094 0.0
H2385 H 0.39223 0.92763 0.42171 0.0
H2386 H 0.42222 0.95615 0.42493 0.0
C2387 C 0.53073 0.04535 0.4088 0.0
C2388 C 0.49451 0.99341 0.39786 0.0
H2389 H 0.43785 0.9834 0.39251 0.0
C2390 C 0.50125 0.97153 0.40405 0.0
C2391 C 0.47135 0.99783 0.394 0.0
C2392 C 0.46335 0.02102 0.3871 0.0
C2393 C 0.48542 0.95389 0.40642 0.0
C2394 C 0.46228 0.95807 0.40182 0.0
C2395 C 0.45554 0.98012 0.39604 0.0
C2396 C 0.44499 0.93965 0.40169 0.0
C2397 C 0.49368 0.93103 0.41413 0.0
C2398 C 0.44783 0.92069 0.38779 0.0
C2399 C 0.43089 0.90424 0.38618 0.0
C2400 C 0.41045 0.90649 0.39812 0.0
C2401 C 0.40783 0.92519 0.41249 0.0
C2402 C 0.4249 0.94163 0.41418 0.0
H2403 H 0.50942 0.93259 0.42416 0.0
H2404 H 0.48071 0.92218 0.42436 0.0
H2405 H 0.49762 0.92044 0.3993 0.0
H2406 H 0.46288 0.91893 0.37759 0.0
H2407 H 0.43359 0.88999 0.37509 0.0
H2408 H 0.0732 0.96749 0.61295 0.0
H2409 H 0.04229 0.99486 0.61684 0.0
H2410 H 0.00474 0.94667 0.65654 0.0
H2411 H 0.036 0.91978 0.65348 0.0
H2412 H 0.00161 0.99196 0.60178 0.0
H2413 H 0.99487 0.00151 0.69349 0.0
H2414 H 0.01854 0.98752 0.68038 0.0
H2415 H 0.99252 0.97239 0.68545 0.0
C2416 C 0.0585 0.96299 0.62286 0.0
C2417 C 0.05704 0.94165 0.6331 0.0
C2418 C 0.04083 0.97858 0.62505 0.0
C2419 C 0.02125 0.97304 0.6373 0.0
C2420 C 0.0199 0.95172 0.64764 0.0
H2421 H 0.89119 0.0363 0.61022 0.0
H2422 H 0.92322 0.01019 0.61339 0.0
C2423 C 0.03773 0.9363 0.64579 0.0
C2424 C 0.00158 0.98877 0.6377 0.0
H2425 H 0.9628 0.01389 0.67215 0.0
C2426 C 0.99329 0.99691 0.61721 0.0
C2427 C 0.99081 0.99554 0.65781 0.0
C2428 C -0.00019 0.98897 0.68051 0.0
C2429 C 0.97441 0.01125 0.61622 0.0
C2430 C 0.96282 0.01692 0.63623 0.0
C2431 C 0.97137 0.00919 0.65677 0.0
C2432 C 0.94225 0.03141 0.63618 0.0
C2433 C 0.96747 0.02056 0.59373 0.0
C2434 C 0.94157 0.0513 0.64904 0.0
C2435 C 0.92301 0.0659 0.64771 0.0
C2436 C 0.90485 0.06093 0.63337 0.0
C2437 C 0.90507 0.04057 0.62125 0.0
C2438 C 0.92346 0.02579 0.62289 0.0
H2439 H 0.98181 0.02049 0.58169 0.0
H2440 H 0.95386 0.00981 0.58664 0.0
H2441 H 0.96104 0.03816 0.59521 0.0
H2442 H 0.95577 0.05596 0.65952 0.0
H2443 H 0.92332 0.08159 0.65709 0.0
H2444 H 0.02887 0.58624 0.92793 0.0
H2445 H 0.00714 0.55166 0.93545 0.0
H2446 H 0.04712 0.51571 0.88662 0.0
H2447 H 0.0693 0.54981 0.87954 0.0
H2448 H 0.98137 0.52515 0.90634 0.0
H2449 H 0.05205 0.47534 0.94184 0.0
H2450 H 0.05351 0.50564 0.93819 0.0
H2451 H 0.05849 0.48704 0.91486 0.0
C2452 C 0.0331 0.57093 0.9189 0.0
C2453 C 0.05084 0.57082 0.90314 0.0
C2454 C 0.02063 0.55122 0.92316 0.0
C2455 C 0.02581 0.53102 0.91191 0.0
C2456 C 0.04315 0.53099 0.89584 0.0
H2457 H 0.97453 0.39829 0.89133 0.0
H2458 H 0.99627 0.4334 0.89434 0.0
C2459 C 0.05559 0.55063 0.89157 0.0
C2460 C 0.01282 0.51 0.91647 0.0
H2461 H 0.01906 0.45446 0.93107 0.0
C2462 C 0.98951 0.50976 0.91207 0.0
C2463 C 0.02349 0.48999 0.92404 0.0
C2464 C 0.04822 0.4895 0.93023 0.0
C2465 C 0.97679 0.48974 0.91395 0.0
C2466 C 0.98764 0.46955 0.92075 0.0
C2467 C 0.0108 0.46996 0.92585 0.0
C2468 C 0.97565 0.44749 0.92085 0.0
C2469 C 0.95208 0.49011 0.90765 0.0
C2470 C 0.95732 0.44345 0.9353 0.0
C2471 C 0.94485 0.42334 0.93362 0.0
C2472 C 0.95054 0.40702 0.91743 0.0
C2473 C 0.96962 0.41067 0.9038 0.0
C2474 C 0.98208 0.43068 0.90554 0.0
H2475 H 0.94731 0.50602 0.89895 0.0
H2476 H 0.94792 0.47557 0.89662 0.0
H2477 H 0.94161 0.48865 0.92301 0.0
H2478 H 0.95231 0.45608 0.94746 0.0
H2479 H 0.93017 0.42103 0.94426 0.0
loop_
_geom_bond_atom_site_label_1
_geom_bond_atom_site_label_2
_geom_bond_distance
_geom_bond_site_symmetry_2
_ccdc_geom_bond_type
O0 Tb1 2.292 . S
O0 C3 1.255 1_554 S
Tb1 O0 2.292 . S
Tb1 O17 2.326 . S
Tb1 O19 2.500 . S
Tb1 O20 2.473 . S
Tb1 O23 2.324 . S
Eu2 O6 2.292 . S
Eu2 C7 2.852 . S
Eu2 O18 2.324 . S
Eu2 O22 2.326 . S
Eu2 O24 2.500 . S
Eu2 O25 2.473 . S
C3 O0 1.255 1_556 S
C3 O4 1.247 1_556 S
O4 C3 1.247 1_554 S
C5 O17 1.242 . S
C5 O18 1.258 . S
O6 Eu2 2.292 . S
O6 C8 1.255 . S
C7 Eu2 2.852 . S
C7 C11 1.503 . S
C7 O24 1.273 . S
C7 O25 1.257 . S
C8 O6 1.255 . S
C8 O9 1.247 . S
O9 C8 1.247 . S
C10 O22 1.242 . S
C10 O23 1.258 . S
C11 C7 1.503 . S
C11 C12 1.379 . S
C11 C16 1.392 . S
C12 C11 1.379 . S
C12 C13 1.404 . S
C12 H26 0.929 . S
C13 C12 1.404 . S
C13 C14 1.389 . S
C14 C13 1.389 . S
C14 C15 1.399 . S
C14 H27 0.931 . S
C15 C14 1.399 . S
C15 C16 1.390 . S
C16 C11 1.392 . S
C16 C15 1.390 . S
C16 H28 0.929 . S
O17 Tb1 2.326 . S
O17 C5 1.242 . S
O18 Eu2 2.324 . S
O18 C5 1.258 . S
O19 Tb1 2.500 . S
O19 C21 1.273 . S
O20 Tb1 2.473 . S
O20 C21 1.257 . S
C21 O19 1.273 . S
C21 O20 1.257 . S
O22 Eu2 2.326 . S
O22 C10 1.242 . S
O23 Tb1 2.324 . S
O23 C10 1.258 . S
O24 Eu2 2.500 . S
O24 C7 1.273 . S
O25 Eu2 2.473 . S
O25 C7 1.257 . S
H26 C12 0.929 . S
H27 C14 0.931 . S
H28 C16 0.929 . S
O29 Tb30 2.292 . S
O29 C32 1.255 . S
Tb30 O29 2.292 . S
Tb30 O46 2.326 . S
Tb30 O48 2.500 . S
Tb30 O49 2.473 . S
Tb30 O52 2.324 . S
Eu31 O35 2.292 . S
Eu31 C36 2.852 . S
Eu31 O47 2.324 . S
Eu31 O51 2.326 . S
Eu31 O53 2.500 . S
Eu31 O54 2.473 . S
C32 O29 1.255 . S
C32 O33 1.247 . S
O33 C32 1.247 . S
C34 O46 1.242 . S
C34 O47 1.258 . S
O35 Eu31 2.292 . S
O35 C37 1.255 . S
C36 Eu31 2.852 . S
C36 C40 1.503 . S
C36 O53 1.273 . S
C36 O54 1.257 . S
C37 O35 1.255 . S
C37 O38 1.247 . S
O38 C37 1.247 . S
C39 O51 1.242 . S
C39 O52 1.258 . S
C40 C36 1.503 . S
C40 C41 1.379 . S
C40 C45 1.392 . S
C41 C40 1.379 . S
C41 C42 1.404 . S
C41 H55 0.929 . S
C42 C41 1.404 . S
C42 C43 1.389 . S
C43 C42 1.389 . S
C43 C44 1.399 . S
C43 H56 0.931 . S
C44 C43 1.399 . S
C44 C45 1.390 . S
C45 C40 1.392 . S
C45 C44 1.390 . S
C45 H57 0.929 . S
O46 Tb30 2.326 . S
O46 C34 1.242 . S
O47 Eu31 2.324 . S
O47 C34 1.258 . S
O48 Tb30 2.500 . S
O48 C50 1.273 . S
O49 Tb30 2.473 . S
O49 C50 1.257 . S
C50 O48 1.273 . S
C50 O49 1.257 . S
O51 Eu31 2.326 . S
O51 C39 1.242 . S
O52 Tb30 2.324 . S
O52 C39 1.258 . S
O53 Eu31 2.500 . S
O53 C36 1.273 . S
O54 Eu31 2.473 . S
O54 C36 1.257 . S
H55 C41 0.929 . S
H56 C43 0.931 . S
H57 C45 0.929 . S
O58 Tb59 2.292 . S
O58 C61 1.255 . S
Tb59 O58 2.292 . S
Tb59 O75 2.326 . S
Tb59 O77 2.500 . S
Tb59 O78 2.473 . S
Tb59 O81 2.324 . S
Eu60 O64 2.292 . S
Eu60 C65 2.852 . S
Eu60 O76 2.324 . S
Eu60 O80 2.326 . S
Eu60 O82 2.500 . S
Eu60 O83 2.473 . S
C61 O58 1.255 . S
C61 O62 1.247 . S
O62 C61 1.247 . S
C63 O75 1.242 . S
C63 O76 1.258 . S
O64 Eu60 2.292 . S
O64 C66 1.255 . S
C65 Eu60 2.852 . S
C65 C69 1.503 . S
C65 O82 1.273 . S
C65 O83 1.257 . S
C66 O64 1.255 . S
C66 O67 1.247 . S
O67 C66 1.247 . S
C68 O80 1.242 . S
C68 O81 1.258 . S
C69 C65 1.503 . S
C69 C70 1.379 . S
C69 C74 1.392 . S
C70 C69 1.379 . S
C70 C71 1.404 . S
C70 H84 0.929 . S
C71 C70 1.404 . S
C71 C72 1.389 . S
C72 C71 1.389 . S
C72 C73 1.399 . S
C72 H85 0.931 . S
C73 C72 1.399 . S
C73 C74 1.390 . S
C74 C69 1.392 . S
C74 C73 1.390 . S
C74 H86 0.929 . S
O75 Tb59 2.326 . S
O75 C63 1.242 . S
O76 Eu60 2.324 . S
O76 C63 1.258 . S
O77 Tb59 2.500 . S
O77 C79 1.273 . S
O78 Tb59 2.473 . S
O78 C79 1.257 . S
C79 O77 1.273 . S
C79 O78 1.257 . S
O80 Eu60 2.326 . S
O80 C68 1.242 . S
O81 Tb59 2.324 . S
O81 C68 1.258 . S
O82 Eu60 2.500 . S
O82 C65 1.273 . S
O83 Eu60 2.473 . S
O83 C65 1.257 . S
H84 C70 0.929 . S
H85 C72 0.931 . S
H86 C74 0.929 . S
O87 Tb88 2.292 . S
O87 C90 1.255 . S
Tb88 O87 2.292 . S
Tb88 O104 2.326 . S
Tb88 O106 2.500 . S
Tb88 O107 2.473 . S
Tb88 O110 2.324 . S
Eu89 O93 2.292 . S
Eu89 C94 2.852 . S
Eu89 O105 2.324 . S
Eu89 O109 2.326 . S
Eu89 O111 2.500 . S
Eu89 O112 2.473 . S
C90 O87 1.255 . S
C90 O91 1.247 . S
O91 C90 1.247 . S
C92 O104 1.242 . S
C92 O105 1.258 . S
O93 Eu89 2.292 . S
O93 C95 1.255 . S
C94 Eu89 2.852 . S
C94 C98 1.503 . S
C94 O111 1.273 . S
C94 O112 1.257 . S
C95 O93 1.255 . S
C95 O96 1.247 . S
O96 C95 1.247 . S
C97 O109 1.242 . S
C97 O110 1.258 . S
C98 C94 1.503 . S
C98 C99 1.379 . S
C98 C103 1.392 . S
C99 C98 1.379 . S
C99 C100 1.404 . S
C99 H113 0.929 . S
C100 C99 1.404 . S
C100 C101 1.389 . S
C101 C100 1.389 . S
C101 C102 1.399 . S
C101 H114 0.931 . S
C102 C101 1.399 . S
C102 C103 1.390 . S
C103 C98 1.392 . S
C103 C102 1.390 . S
C103 H115 0.929 . S
O104 Tb88 2.326 . S
O104 C92 1.242 . S
O105 Eu89 2.324 . S
O105 C92 1.258 . S
O106 Tb88 2.500 . S
O106 C108 1.273 . S
O107 Tb88 2.473 . S
O107 C108 1.257 . S
C108 O106 1.273 . S
C108 O107 1.257 . S
O109 Eu89 2.326 . S
O109 C97 1.242 . S
O110 Tb88 2.324 . S
O110 C97 1.258 . S
O111 Eu89 2.500 . S
O111 C94 1.273 . S
O112 Eu89 2.473 . S
O112 C94 1.257 . S
H113 C99 0.929 . S
H114 C101 0.931 . S
H115 C103 0.929 . S
O116 Tb117 2.292 . S
O116 C119 1.255 . S
Tb117 O116 2.292 . S
Tb117 O133 2.326 . S
Tb117 O135 2.500 . S
Tb117 O136 2.473 . S
Tb117 O139 2.324 . S
Eu118 O122 2.292 . S
Eu118 C123 2.852 . S
Eu118 O134 2.324 . S
Eu118 O138 2.326 . S
Eu118 O140 2.500 . S
Eu118 O141 2.473 . S
C119 O116 1.255 . S
C119 O120 1.247 . S
O120 C119 1.247 . S
C121 O133 1.242 . S
C121 O134 1.258 . S
O122 Eu118 2.292 . S
O122 C124 1.255 . S
C123 Eu118 2.852 . S
C123 C127 1.503 . S
C123 O140 1.273 . S
C123 O141 1.257 . S
C124 O122 1.255 . S
C124 O125 1.247 . S
O125 C124 1.247 . S
C126 O138 1.242 . S
C126 O139 1.258 . S
C127 C123 1.503 . S
C127 C128 1.379 . S
C127 C132 1.392 . S
C128 C127 1.379 . S
C128 C129 1.404 . S
C128 H142 0.929 . S
C129 C128 1.404 . S
C129 C130 1.389 . S
C130 C129 1.389 . S
C130 C131 1.399 . S
C130 H143 0.931 . S
C131 C130 1.399 . S
C131 C132 1.390 . S
C132 C127 1.392 . S
C132 C131 1.390 . S
C132 H144 0.929 . S
O133 Tb117 2.326 . S
O133 C121 1.242 . S
O134 Eu118 2.324 . S
O134 C121 1.258 . S
O135 Tb117 2.500 . S
O135 C137 1.273 . S
O136 Tb117 2.473 . S
O136 C137 1.257 . S
C137 O135 1.273 . S
C137 O136 1.257 . S
O138 Eu118 2.326 . S
O138 C126 1.242 . S
O139 Tb117 2.324 . S
O139 C126 1.258 . S
O140 Eu118 2.500 . S
O140 C123 1.273 . S
O141 Eu118 2.473 . S
O141 C123 1.257 . S
H142 C128 0.929 . S
H143 C130 0.931 . S
H144 C132 0.929 . S
O145 Tb146 2.292 . S
O145 C148 1.255 . S
Tb146 O145 2.292 . S
Tb146 O162 2.326 . S
Tb146 O164 2.500 . S
Tb146 O165 2.473 . S
Tb146 O168 2.324 . S
Eu147 O151 2.292 . S
Eu147 C152 2.852 . S
Eu147 O163 2.324 . S
Eu147 O167 2.326 . S
Eu147 O169 2.500 . S
Eu147 O170 2.473 . S
C148 O145 1.255 . S
C148 O149 1.247 . S
O149 C148 1.247 . S
C150 O162 1.242 . S
C150 O163 1.258 . S
O151 Eu147 2.292 . S
O151 C153 1.255 . S
C152 Eu147 2.852 . S
C152 C156 1.503 . S
C152 O169 1.273 . S
C152 O170 1.257 . S
C153 O151 1.255 . S
C153 O154 1.247 . S
O154 C153 1.247 . S
C155 O167 1.242 . S
C155 O168 1.258 . S
C156 C152 1.503 . S
C156 C157 1.379 . S
C156 C161 1.392 . S
C157 C156 1.379 . S
C157 C158 1.404 . S
C157 H171 0.929 . S
C158 C157 1.404 . S
C158 C159 1.389 . S
C159 C158 1.389 . S
C159 C160 1.399 . S
C159 H172 0.931 . S
C160 C159 1.399 . S
C160 C161 1.390 . S
C161 C156 1.392 . S
C161 C160 1.390 . S
C161 H173 0.929 . S
O162 Tb146 2.326 . S
O162 C150 1.242 . S
O163 Eu147 2.324 . S
O163 C150 1.258 . S
O164 Tb146 2.500 . S
O164 C166 1.273 . S
O165 Tb146 2.473 . S
O165 C166 1.257 . S
C166 O164 1.273 . S
C166 O165 1.257 . S
O167 Eu147 2.326 . S
O167 C155 1.242 . S
O168 Tb146 2.324 . S
O168 C155 1.258 . S
O169 Eu147 2.500 . S
O169 C152 1.273 . S
O170 Eu147 2.473 . S
O170 C152 1.257 . S
H171 C157 0.929 . S
H172 C159 0.931 . S
H173 C161 0.929 . S
O174 Tb175 2.292 . S
O174 C177 1.255 . S
Tb175 O174 2.292 . S
Tb175 O191 2.326 . S
Tb175 O193 2.500 . S
Tb175 O194 2.473 . S
Tb175 O197 2.324 . S
Eu176 O180 2.292 . S
Eu176 C181 2.852 . S
Eu176 O192 2.324 . S
Eu176 O196 2.326 . S
Eu176 O198 2.500 . S
Eu176 O199 2.473 . S
C177 O174 1.255 . S
C177 O178 1.247 . S
O178 C177 1.247 . S
C179 O191 1.242 . S
C179 O192 1.258 . S
O180 Eu176 2.292 . S
O180 C182 1.255 . S
C181 Eu176 2.852 . S
C181 C185 1.503 . S
C181 O198 1.273 . S
C181 O199 1.257 . S
C182 O180 1.255 . S
C182 O183 1.247 . S
O183 C182 1.247 . S
C184 O196 1.242 . S
C184 O197 1.258 . S
C185 C181 1.503 . S
C185 C186 1.379 . S
C185 C190 1.392 . S
C186 C185 1.379 . S
C186 C187 1.404 . S
C186 H200 0.929 . S
C187 C186 1.404 . S
C187 C188 1.389 . S
C188 C187 1.389 . S
C188 C189 1.399 . S
C188 H201 0.931 . S
C189 C188 1.399 . S
C189 C190 1.390 . S
C190 C185 1.392 . S
C190 C189 1.390 . S
C190 H202 0.929 . S
O191 Tb175 2.326 . S
O191 C179 1.242 . S
O192 Eu176 2.324 . S
O192 C179 1.258 . S
O193 Tb175 2.500 . S
O193 C195 1.273 . S
O194 Tb175 2.473 . S
O194 C195 1.257 . S
C195 O193 1.273 . S
C195 O194 1.257 . S
O196 Eu176 2.326 . S
O196 C184 1.242 . S
O197 Tb175 2.324 . S
O197 C184 1.258 . S
O198 Eu176 2.500 . S
O198 C181 1.273 . S
O199 Eu176 2.473 . S
O199 C181 1.257 . S
H200 C186 0.929 . S
H201 C188 0.931 . S
H202 C190 0.929 . S
O203 Tb204 2.292 . S
O203 C206 1.255 1_556 S
Tb204 O203 2.292 . S
Tb204 O220 2.326 . S
Tb204 O222 2.500 . S
Tb204 O223 2.473 . S
Tb204 O226 2.324 . S
Eu205 O209 2.292 . S
Eu205 C210 2.852 . S
Eu205 O221 2.324 . S
Eu205 O225 2.326 . S
Eu205 O227 2.500 . S
Eu205 O228 2.473 . S
C206 O203 1.255 1_554 S
C206 O207 1.247 1_554 S
O207 C206 1.247 1_556 S
C208 O220 1.242 . S
C208 O221 1.258 . S
O209 Eu205 2.292 . S
O209 C211 1.255 . S
C210 Eu205 2.852 . S
C210 C214 1.503 . S
C210 O227 1.273 . S
C210 O228 1.257 . S
C211 O209 1.255 . S
C211 O212 1.247 . S
O212 C211 1.247 . S
C213 O225 1.242 . S
C213 O226 1.258 . S
C214 C210 1.503 . S
C214 C215 1.379 . S
C214 C219 1.392 . S
C215 C214 1.379 . S
C215 C216 1.404 . S
C215 H229 0.929 . S
C216 C215 1.404 . S
C216 C217 1.389 . S
C217 C216 1.389 . S
C217 C218 1.399 . S
C217 H230 0.931 . S
C218 C217 1.399 . S
C218 C219 1.390 . S
C219 C214 1.392 . S
C219 C218 1.390 . S
C219 H231 0.929 . S
O220 Tb204 2.326 . S
O220 C208 1.242 . S
O221 Eu205 2.324 . S
O221 C208 1.258 . S
O222 Tb204 2.500 . S
O222 C224 1.273 . S
O223 Tb204 2.473 . S
O223 C224 1.257 . S
C224 O222 1.273 . S
C224 O223 1.257 . S
O225 Eu205 2.326 . S
O225 C213 1.242 . S
O226 Tb204 2.324 . S
O226 C213 1.258 . S
O227 Eu205 2.500 . S
O227 C210 1.273 . S
O228 Eu205 2.473 . S
O228 C210 1.257 . S
H229 C215 0.929 . S
H230 C217 0.931 . S
H231 C219 0.929 . S
O232 Tb233 2.292 . S
O232 C235 1.255 . S
Tb233 O232 2.292 . S
Tb233 O249 2.326 . S
Tb233 O251 2.500 . S
Tb233 O252 2.473 . S
Tb233 O255 2.324 . S
Eu234 O238 2.292 . S
Eu234 C239 2.852 . S
Eu234 O250 2.324 . S
Eu234 O254 2.326 . S
Eu234 O256 2.500 . S
Eu234 O257 2.473 . S
C235 O232 1.255 . S
C235 O236 1.247 . S
O236 C235 1.247 . S
C237 O249 1.242 . S
C237 O250 1.258 . S
O238 Eu234 2.292 . S
O238 C240 1.255 . S
C239 Eu234 2.852 . S
C239 C243 1.503 . S
C239 O256 1.273 . S
C239 O257 1.257 . S
C240 O238 1.255 . S
C240 O241 1.247 . S
O241 C240 1.247 . S
C242 O254 1.242 . S
C242 O255 1.258 . S
C243 C239 1.503 . S
C243 C244 1.379 . S
C243 C248 1.392 . S
C244 C243 1.379 . S
C244 C245 1.404 . S
C244 H258 0.929 . S
C245 C244 1.404 . S
C245 C246 1.389 . S
C246 C245 1.389 . S
C246 C247 1.399 . S
C246 H259 0.931 . S
C247 C246 1.399 . S
C247 C248 1.390 . S
C248 C243 1.392 . S
C248 C247 1.390 . S
C248 H260 0.929 . S
O249 Tb233 2.326 . S
O249 C237 1.242 . S
O250 Eu234 2.324 . S
O250 C237 1.258 . S
O251 Tb233 2.500 . S
O251 C253 1.273 . S
O252 Tb233 2.473 . S
O252 C253 1.257 . S
C253 O251 1.273 . S
C253 O252 1.257 . S
O254 Eu234 2.326 . S
O254 C242 1.242 . S
O255 Tb233 2.324 . S
O255 C242 1.258 . S
O256 Eu234 2.500 . S
O256 C239 1.273 . S
O257 Eu234 2.473 . S
O257 C239 1.257 . S
H258 C244 0.929 . S
H259 C246 0.931 . S
H260 C248 0.929 . S
O261 Tb262 2.292 . S
O261 C264 1.255 . S
Tb262 O261 2.292 . S
Tb262 O278 2.326 . S
Tb262 O280 2.500 . S
Tb262 O281 2.473 . S
Tb262 O284 2.324 . S
Eu263 O267 2.292 . S
Eu263 C268 2.852 . S
Eu263 O279 2.324 . S
Eu263 O283 2.326 . S
Eu263 O285 2.500 . S
Eu263 O286 2.473 . S
C264 O261 1.255 . S
C264 O265 1.247 . S
O265 C264 1.247 . S
C266 O278 1.242 . S
C266 O279 1.258 . S
O267 Eu263 2.292 . S
O267 C269 1.255 . S
C268 Eu263 2.852 . S
C268 C272 1.503 . S
C268 O285 1.273 . S
C268 O286 1.257 . S
C269 O267 1.255 . S
C269 O270 1.247 . S
O270 C269 1.247 . S
C271 O283 1.242 . S
C271 O284 1.258 . S
C272 C268 1.503 . S
C272 C273 1.379 . S
C272 C277 1.392 . S
C273 C272 1.379 . S
C273 C274 1.404 . S
C273 H287 0.929 . S
C274 C273 1.404 . S
C274 C275 1.389 . S
C275 C274 1.389 . S
C275 C276 1.399 . S
C275 H288 0.931 . S
C276 C275 1.399 . S
C276 C277 1.390 . S
C277 C272 1.392 . S
C277 C276 1.390 . S
C277 H289 0.929 . S
O278 Tb262 2.326 . S
O278 C266 1.242 . S
O279 Eu263 2.324 . S
O279 C266 1.258 . S
O280 Tb262 2.500 . S
O280 C282 1.273 . S
O281 Tb262 2.473 . S
O281 C282 1.257 . S
C282 O280 1.273 . S
C282 O281 1.257 . S
O283 Eu263 2.326 . S
O283 C271 1.242 . S
O284 Tb262 2.324 . S
O284 C271 1.258 . S
O285 Eu263 2.500 . S
O285 C268 1.273 . S
O286 Eu263 2.473 . S
O286 C268 1.257 . S
H287 C273 0.929 . S
H288 C275 0.931 . S
H289 C277 0.929 . S
O290 Tb291 2.292 . S
O290 C293 1.255 1_554 S
Tb291 O290 2.292 . S
Tb291 O307 2.326 . S
Tb291 O309 2.500 . S
Tb291 O310 2.473 . S
Tb291 O313 2.324 . S
Eu292 O296 2.292 . S
Eu292 C297 2.852 . S
Eu292 O308 2.324 . S
Eu292 O312 2.326 . S
Eu292 O314 2.500 . S
Eu292 O315 2.473 . S
C293 O290 1.255 1_556 S
C293 O294 1.247 1_556 S
O294 C293 1.247 1_554 S
C295 O307 1.242 . S
C295 O308 1.258 . S
O296 Eu292 2.292 . S
O296 C298 1.255 . S
C297 Eu292 2.852 . S
C297 C301 1.503 . S
C297 O314 1.273 . S
C297 O315 1.257 . S
C298 O296 1.255 . S
C298 O299 1.247 . S
O299 C298 1.247 . S
C300 O312 1.242 . S
C300 O313 1.258 . S
C301 C297 1.503 . S
C301 C302 1.379 . S
C301 C306 1.392 . S
C302 C301 1.379 . S
C302 C303 1.404 . S
C302 H316 0.929 . S
C303 C302 1.404 . S
C303 C304 1.389 . S
C304 C303 1.389 . S
C304 C305 1.399 . S
C304 H317 0.931 . S
C305 C304 1.399 . S
C305 C306 1.390 . S
C306 C301 1.392 . S
C306 C305 1.390 . S
C306 H318 0.929 . S
O307 Tb291 2.326 . S
O307 C295 1.242 . S
O308 Eu292 2.324 . S
O308 C295 1.258 . S
O309 Tb291 2.500 . S
O309 C311 1.273 . S
O310 Tb291 2.473 . S
O310 C311 1.257 . S
C311 O309 1.273 . S
C311 O310 1.257 . S
O312 Eu292 2.326 . S
O312 C300 1.242 . S
O313 Tb291 2.324 . S
O313 C300 1.258 . S
O314 Eu292 2.500 . S
O314 C297 1.273 . S
O315 Eu292 2.473 . S
O315 C297 1.257 . S
H316 C302 0.929 . S
H317 C304 0.931 . S
H318 C306 0.929 . S
O319 Tb320 2.292 . S
O319 C322 1.255 . S
Tb320 O319 2.292 . S
Tb320 O336 2.326 . S
Tb320 O338 2.500 . S
Tb320 O339 2.473 . S
Tb320 O342 2.324 . S
Eu321 O325 2.292 . S
Eu321 C326 2.852 . S
Eu321 O337 2.324 . S
Eu321 O341 2.326 . S
Eu321 O343 2.500 . S
Eu321 O344 2.473 . S
C322 O319 1.255 . S
C322 O323 1.247 . S
O323 C322 1.247 . S
C324 O336 1.242 . S
C324 O337 1.258 . S
O325 Eu321 2.292 . S
O325 C327 1.255 . S
C326 Eu321 2.852 . S
C326 C330 1.503 . S
C326 O343 1.273 . S
C326 O344 1.257 . S
C327 O325 1.255 . S
C327 O328 1.247 . S
O328 C327 1.247 . S
C329 O341 1.242 . S
C329 O342 1.258 . S
C330 C326 1.503 . S
C330 C331 1.379 . S
C330 C335 1.392 . S
C331 C330 1.379 . S
C331 C332 1.404 . S
C331 H345 0.929 . S
C332 C331 1.404 . S
C332 C333 1.389 . S
C333 C332 1.389 . S
C333 C334 1.399 . S
C333 H346 0.931 . S
C334 C333 1.399 . S
C334 C335 1.390 . S
C335 C330 1.392 . S
C335 C334 1.390 . S
C335 H347 0.929 . S
O336 Tb320 2.326 . S
O336 C324 1.242 . S
O337 Eu321 2.324 . S
O337 C324 1.258 . S
O338 Tb320 2.500 . S
O338 C340 1.273 . S
O339 Tb320 2.473 . S
O339 C340 1.257 . S
C340 O338 1.273 . S
C340 O339 1.257 . S
O341 Eu321 2.326 . S
O341 C329 1.242 . S
O342 Tb320 2.324 . S
O342 C329 1.258 . S
O343 Eu321 2.500 . S
O343 C326 1.273 . S
O344 Eu321 2.473 . S
O344 C326 1.257 . S
H345 C331 0.929 . S
H346 C333 0.931 . S
H347 C335 0.929 . S
O348 Tb349 2.292 . S
O348 C351 1.255 . S
Tb349 O348 2.292 . S
Tb349 O365 2.326 . S
Tb349 O367 2.500 . S
Tb349 O368 2.473 . S
Tb349 O371 2.324 . S
Eu350 O354 2.292 . S
Eu350 C355 2.852 . S
Eu350 O366 2.324 . S
Eu350 O370 2.326 . S
Eu350 O372 2.500 . S
Eu350 O373 2.473 . S
C351 O348 1.255 . S
C351 O352 1.247 . S
O352 C351 1.247 . S
C353 O365 1.242 . S
C353 O366 1.258 . S
O354 Eu350 2.292 . S
O354 C356 1.255 . S
C355 Eu350 2.852 . S
C355 C359 1.503 . S
C355 O372 1.273 . S
C355 O373 1.257 . S
C356 O354 1.255 . S
C356 O357 1.247 . S
O357 C356 1.247 . S
C358 O370 1.242 . S
C358 O371 1.258 . S
C359 C355 1.503 . S
C359 C360 1.379 . S
C359 C364 1.392 . S
C360 C359 1.379 . S
C360 C361 1.404 . S
C360 H374 0.929 . S
C361 C360 1.404 . S
C361 C362 1.389 . S
C362 C361 1.389 . S
C362 C363 1.399 . S
C362 H375 0.931 . S
C363 C362 1.399 . S
C363 C364 1.390 . S
C364 C359 1.392 . S
C364 C363 1.390 . S
C364 H376 0.929 . S
O365 Tb349 2.326 . S
O365 C353 1.242 . S
O366 Eu350 2.324 . S
O366 C353 1.258 . S
O367 Tb349 2.500 . S
O367 C369 1.273 . S
O368 Tb349 2.473 . S
O368 C369 1.257 . S
C369 O367 1.273 . S
C369 O368 1.257 . S
O370 Eu350 2.326 . S
O370 C358 1.242 . S
O371 Tb349 2.324 . S
O371 C358 1.258 . S
O372 Eu350 2.500 . S
O372 C355 1.273 . S
O373 Eu350 2.473 . S
O373 C355 1.257 . S
H374 C360 0.929 . S
H375 C362 0.931 . S
H376 C364 0.929 . S
O377 Tb378 2.292 . S
O377 C380 1.255 1_556 S
Tb378 O377 2.292 . S
Tb378 O394 2.326 . S
Tb378 O396 2.500 . S
Tb378 O397 2.473 . S
Tb378 O400 2.324 . S
Eu379 O383 2.292 . S
Eu379 C384 2.852 . S
Eu379 O395 2.324 . S
Eu379 O399 2.326 . S
Eu379 O401 2.500 . S
Eu379 O402 2.473 . S
C380 O377 1.255 1_554 S
C380 O381 1.247 1_554 S
O381 C380 1.247 1_556 S
C382 O394 1.242 . S
C382 O395 1.258 . S
O383 Eu379 2.292 . S
O383 C385 1.255 . S
C384 Eu379 2.852 . S
C384 C388 1.503 . S
C384 O401 1.273 . S
C384 O402 1.257 . S
C385 O383 1.255 . S
C385 O386 1.247 . S
O386 C385 1.247 . S
C387 O399 1.242 . S
C387 O400 1.258 . S
C388 C384 1.503 . S
C388 C389 1.379 . S
C388 C393 1.392 . S
C389 C388 1.379 . S
C389 C390 1.404 . S
C389 H403 0.929 . S
C390 C389 1.404 . S
C390 C391 1.389 . S
C391 C390 1.389 . S
C391 C392 1.399 . S
C391 H404 0.931 . S
C392 C391 1.399 . S
C392 C393 1.390 . S
C393 C388 1.392 . S
C393 C392 1.390 . S
C393 H405 0.929 . S
O394 Tb378 2.326 . S
O394 C382 1.242 . S
O395 Eu379 2.324 . S
O395 C382 1.258 . S
O396 Tb378 2.500 . S
O396 C398 1.273 . S
O397 Tb378 2.473 . S
O397 C398 1.257 . S
C398 O396 1.273 . S
C398 O397 1.257 . S
O399 Eu379 2.326 . S
O399 C387 1.242 . S
O400 Tb378 2.324 . S
O400 C387 1.258 . S
O401 Eu379 2.500 . S
O401 C384 1.273 . S
O402 Eu379 2.473 . S
O402 C384 1.257 . S
H403 C389 0.929 . S
H404 C391 0.931 . S
H405 C393 0.929 . S
O406 Tb407 2.292 . S
O406 C409 1.255 . S
Tb407 O406 2.292 . S
Tb407 O423 2.326 . S
Tb407 O425 2.500 . S
Tb407 O426 2.473 . S
Tb407 O429 2.324 . S
Eu408 O412 2.292 . S
Eu408 C413 2.852 . S
Eu408 O424 2.324 . S
Eu408 O428 2.326 . S
Eu408 O430 2.500 . S
Eu408 O431 2.473 . S
C409 O406 1.255 . S
C409 O410 1.247 . S
O410 C409 1.247 . S
C411 O423 1.242 . S
C411 O424 1.258 . S
O412 Eu408 2.292 . S
O412 C414 1.255 . S
C413 Eu408 2.852 . S
C413 C417 1.503 . S
C413 O430 1.273 . S
C413 O431 1.257 . S
C414 O412 1.255 . S
C414 O415 1.247 . S
O415 C414 1.247 . S
C416 O428 1.242 . S
C416 O429 1.258 . S
C417 C413 1.503 . S
C417 C418 1.379 . S
C417 C422 1.392 . S
C418 C417 1.379 . S
C418 C419 1.404 . S
C418 H432 0.929 . S
C419 C418 1.404 . S
C419 C420 1.389 . S
C420 C419 1.389 . S
C420 C421 1.399 . S
C420 H433 0.931 . S
C421 C420 1.399 . S
C421 C422 1.390 . S
C422 C417 1.392 . S
C422 C421 1.390 . S
C422 H434 0.929 . S
O423 Tb407 2.326 . S
O423 C411 1.242 . S
O424 Eu408 2.324 . S
O424 C411 1.258 . S
O425 Tb407 2.500 . S
O425 C427 1.273 . S
O426 Tb407 2.473 . S
O426 C427 1.257 . S
C427 O425 1.273 . S
C427 O426 1.257 . S
O428 Eu408 2.326 . S
O428 C416 1.242 . S
O429 Tb407 2.324 . S
O429 C416 1.258 . S
O430 Eu408 2.500 . S
O430 C413 1.273 . S
O431 Eu408 2.473 . S
O431 C413 1.257 . S
H432 C418 0.929 . S
H433 C420 0.931 . S
H434 C422 0.929 . S
O435 Tb436 2.292 . S
O435 C438 1.255 . S
Tb436 O435 2.292 . S
Tb436 O452 2.326 . S
Tb436 O454 2.500 . S
Tb436 O455 2.473 . S
Tb436 O458 2.324 . S
Eu437 O441 2.292 . S
Eu437 C442 2.852 . S
Eu437 O453 2.324 . S
Eu437 O457 2.326 . S
Eu437 O459 2.500 . S
Eu437 O460 2.473 . S
C438 O435 1.255 . S
C438 O439 1.247 . S
O439 C438 1.247 . S
C440 O452 1.242 . S
C440 O453 1.258 . S
O441 Eu437 2.292 . S
O441 C443 1.255 . S
C442 Eu437 2.852 . S
C442 C446 1.503 . S
C442 O459 1.273 . S
C442 O460 1.257 . S
C443 O441 1.255 . S
C443 O444 1.247 . S
O444 C443 1.247 . S
C445 O457 1.242 . S
C445 O458 1.258 . S
C446 C442 1.503 . S
C446 C447 1.379 . S
C446 C451 1.392 . S
C447 C446 1.379 . S
C447 C448 1.404 . S
C447 H461 0.929 . S
C448 C447 1.404 . S
C448 C449 1.389 . S
C449 C448 1.389 . S
C449 C450 1.399 . S
C449 H462 0.931 . S
C450 C449 1.399 . S
C450 C451 1.390 . S
C451 C446 1.392 . S
C451 C450 1.390 . S
C451 H463 0.929 . S
O452 Tb436 2.326 . S
O452 C440 1.242 . S
O453 Eu437 2.324 . S
O453 C440 1.258 . S
O454 Tb436 2.500 . S
O454 C456 1.273 . S
O455 Tb436 2.473 . S
O455 C456 1.257 . S
C456 O454 1.273 . S
C456 O455 1.257 . S
O457 Eu437 2.326 . S
O457 C445 1.242 . S
O458 Tb436 2.324 . S
O458 C445 1.258 . S
O459 Eu437 2.500 . S
O459 C442 1.273 . S
O460 Eu437 2.473 . S
O460 C442 1.257 . S
H461 C447 0.929 . S
H462 C449 0.931 . S
H463 C451 0.929 . S
H464 C472 0.929 . S
H465 C474 0.930 . S
H466 C476 0.930 . S
H467 C479 0.929 . S
H468 C482 0.930 . S
H469 C484 0.961 1_556 S
H470 C484 0.960 . S
H471 C484 0.960 1_556 S
C472 H464 0.929 . S
C472 C473 1.377 . S
C472 C474 1.384 . S
C473 C472 1.377 . S
C473 C479 1.390 1_554 S
C474 H465 0.930 . S
C474 C472 1.384 . S
C474 C475 1.372 . S
C475 C474 1.372 . S
C475 C476 1.400 1_554 S
C475 C480 1.490 . S
C476 H466 0.930 . S
C476 C475 1.400 1_556 S
C476 C479 1.386 . S
H477 C493 0.930 . S
H478 C494 0.931 . S
C479 H467 0.929 . S
C479 C473 1.390 1_556 S
C479 C476 1.386 . S
C480 C475 1.490 . S
C480 C482 1.395 . S
C480 C483 1.403 . S
H481 C487 0.930 . S
C482 H468 0.930 . S
C482 C480 1.395 . S
C482 C485 1.412 . S
C483 C480 1.403 . S
C483 C484 1.524 . S
C483 C487 1.400 1_554 S
C484 H469 0.961 1_554 S
C484 H470 0.960 . S
C484 H471 0.960 1_554 S
C484 C483 1.524 . S
C485 C482 1.412 . S
C485 C486 1.386 1_554 S
C485 C489 1.495 . S
C486 C485 1.386 1_556 S
C486 C487 1.385 . S
C486 C488 1.478 . S
C487 H481 0.930 . S
C487 C483 1.400 1_556 S
C487 C486 1.385 . S
C488 C486 1.478 . S
C488 C490 1.381 1_556 S
C488 C494 1.383 . S
C489 C485 1.495 . S
C489 H495 0.963 . S
C489 H496 0.942 1_554 S
C489 H497 0.975 . S
C490 C488 1.381 1_554 S
C490 C491 1.394 . S
C490 H498 0.930 . S
C491 C490 1.394 . S
C491 C492 1.383 1_554 S
C491 H499 0.929 . S
C492 C491 1.383 1_556 S
C492 C493 1.377 . S
C493 H477 0.930 . S
C493 C492 1.377 . S
C493 C494 1.379 . S
C494 H478 0.931 . S
C494 C488 1.383 . S
C494 C493 1.379 . S
H495 C489 0.963 . S
H496 C489 0.942 1_556 S
H497 C489 0.975 . S
H498 C490 0.930 . S
H499 C491 0.929 . S
H500 C508 0.929 . S
H501 C510 0.930 . S
H502 C512 0.930 . S
H503 C515 0.929 . S
H504 C518 0.930 . S
H505 C520 0.960 . S
H506 C520 0.960 . S
H507 C520 0.960 . S
C508 H500 0.929 . S
C508 C509 1.377 . S
C508 C510 1.384 . S
C509 C508 1.377 . S
C509 C515 1.390 . S
C510 H501 0.930 . S
C510 C508 1.384 . S
C510 C511 1.372 . S
C511 C510 1.372 . S
C511 C512 1.400 . S
C511 C516 1.490 . S
C512 H502 0.930 . S
C512 C511 1.400 . S
C512 C515 1.386 . S
H513 C529 0.930 . S
H514 C530 0.931 . S
C515 H503 0.929 . S
C515 C509 1.390 . S
C515 C512 1.386 . S
C516 C511 1.490 . S
C516 C518 1.395 . S
C516 C519 1.403 . S
H517 C523 0.930 . S
C518 H504 0.930 . S
C518 C516 1.395 . S
C518 C521 1.403 . S
C519 C516 1.403 . S
C519 C520 1.524 . S
C519 C523 1.400 . S
C520 H505 0.960 . S
C520 H506 0.960 . S
C520 H507 0.960 . S
C520 C519 1.524 . S
C521 C518 1.403 . S
C521 C522 1.392 . S
C521 C525 1.495 . S
C522 C521 1.392 . S
C522 C523 1.385 . S
C522 C524 1.478 . S
C523 H517 0.930 . S
C523 C519 1.400 . S
C523 C522 1.385 . S
C524 C522 1.478 . S
C524 C526 1.381 . S
C524 C530 1.383 . S
C525 C521 1.495 . S
C525 H531 0.959 . S
C525 H532 0.961 . S
C525 H533 0.960 . S
C526 C524 1.381 . S
C526 C527 1.394 . S
C526 H534 0.930 . S
C527 C526 1.394 . S
C527 C528 1.383 . S
C527 H535 0.929 . S
C528 C527 1.383 . S
C528 C529 1.377 . S
C529 H513 0.930 . S
C529 C528 1.377 . S
C529 C530 1.379 . S
C530 H514 0.931 . S
C530 C524 1.383 . S
C530 C529 1.379 . S
H531 C525 0.959 . S
H532 C525 0.961 . S
H533 C525 0.960 . S
H534 C526 0.930 . S
H535 C527 0.929 . S
H536 C544 0.929 . S
H537 C546 0.930 . S
H538 C548 0.930 . S
H539 C551 0.929 . S
H540 C554 0.930 . S
H541 C556 0.960 . S
H542 C556 0.960 . S
H543 C556 0.960 . S
C544 H536 0.929 . S
C544 C545 1.377 . S
C544 C546 1.384 . S
C545 C544 1.377 . S
C545 C551 1.390 . S
C546 H537 0.930 . S
C546 C544 1.384 . S
C546 C547 1.372 . S
C547 C546 1.372 . S
C547 C548 1.400 . S
C547 C552 1.490 . S
C548 H538 0.930 . S
C548 C547 1.400 . S
C548 C551 1.386 . S
H549 C565 0.930 . S
H550 C566 0.931 . S
C551 H539 0.929 . S
C551 C545 1.390 . S
C551 C548 1.386 . S
C552 C547 1.490 . S
C552 C554 1.395 . S
C552 C555 1.403 . S
H553 C559 0.930 . S
C554 H540 0.930 . S
C554 C552 1.395 . S
C554 C557 1.403 . S
C555 C552 1.403 . S
C555 C556 1.524 . S
C555 C559 1.400 . S
C556 H541 0.960 . S
C556 H542 0.960 . S
C556 H543 0.960 . S
C556 C555 1.524 . S
C557 C554 1.403 . S
C557 C558 1.392 . S
C557 C561 1.495 . S
C558 C557 1.392 . S
C558 C559 1.385 . S
C558 C560 1.478 . S
C559 H553 0.930 . S
C559 C555 1.400 . S
C559 C558 1.385 . S
C560 C558 1.478 . S
C560 C562 1.381 . S
C560 C566 1.383 . S
C561 C557 1.495 . S
C561 H567 0.959 . S
C561 H568 0.961 . S
C561 H569 0.960 . S
C562 C560 1.381 . S
C562 C563 1.394 . S
C562 H570 0.930 . S
C563 C562 1.394 . S
C563 C564 1.383 . S
C563 H571 0.929 . S
C564 C563 1.383 . S
C564 C565 1.377 . S
C565 H549 0.930 . S
C565 C564 1.377 . S
C565 C566 1.379 . S
C566 H550 0.931 . S
C566 C560 1.383 . S
C566 C565 1.379 . S
H567 C561 0.959 . S
H568 C561 0.961 . S
H569 C561 0.960 . S
H570 C562 0.930 . S
H571 C563 0.929 . S
H572 C580 0.929 . S
H573 C582 0.930 . S
H574 C584 0.930 . S
H575 C587 0.929 . S
H576 C590 0.930 . S
H577 C592 0.960 . S
H578 C592 0.960 . S
H579 C592 0.960 . S
C580 H572 0.929 . S
C580 C581 1.377 . S
C580 C582 1.384 . S
C581 C580 1.377 . S
C581 C587 1.390 . S
C582 H573 0.930 . S
C582 C580 1.384 . S
C582 C583 1.372 . S
C583 C582 1.372 . S
C583 C584 1.400 . S
C583 C588 1.490 . S
C584 H574 0.930 . S
C584 C583 1.400 . S
C584 C587 1.386 . S
H585 C601 0.930 . S
H586 C602 0.931 . S
C587 H575 0.929 . S
C587 C581 1.390 . S
C587 C584 1.386 . S
C588 C583 1.490 . S
C588 C590 1.395 . S
C588 C591 1.403 . S
H589 C595 0.930 . S
C590 H576 0.930 . S
C590 C588 1.395 . S
C590 C593 1.403 . S
C591 C588 1.403 . S
C591 C592 1.524 . S
C591 C595 1.400 . S
C592 H577 0.960 . S
C592 H578 0.960 . S
C592 H579 0.960 . S
C592 C591 1.524 . S
C593 C590 1.403 . S
C593 C594 1.392 . S
C593 C597 1.495 . S
C594 C593 1.392 . S
C594 C595 1.385 . S
C594 C596 1.478 . S
C595 H589 0.930 . S
C595 C591 1.400 . S
C595 C594 1.385 . S
C596 C594 1.478 . S
C596 C598 1.381 . S
C596 C602 1.383 . S
C597 C593 1.495 . S
C597 H603 0.959 . S
C597 H604 0.961 . S
C597 H605 0.960 . S
C598 C596 1.381 . S
C598 C599 1.394 . S
C598 H606 0.930 . S
C599 C598 1.394 . S
C599 C600 1.383 . S
C599 H607 0.929 . S
C600 C599 1.383 . S
C600 C601 1.377 . S
C601 H585 0.930 . S
C601 C600 1.377 . S
C601 C602 1.379 . S
C602 H586 0.931 . S
C602 C596 1.383 . S
C602 C601 1.379 . S
H603 C597 0.959 . S
H604 C597 0.961 . S
H605 C597 0.960 . S
H606 C598 0.930 . S
H607 C599 0.929 . S
H608 C616 0.929 . S
H609 C618 0.930 . S
H610 C620 0.930 . S
H611 C623 0.929 . S
H612 C626 0.930 . S
H613 C628 0.960 . S
H614 C628 0.960 . S
H615 C628 0.960 . S
C616 H608 0.929 . S
C616 C617 1.377 . S
C616 C618 1.384 . S
C617 C616 1.377 . S
C617 C623 1.390 . S
C618 H609 0.930 . S
C618 C616 1.384 . S
C618 C619 1.372 . S
C619 C618 1.372 . S
C619 C620 1.400 . S
C619 C624 1.490 . S
C620 H610 0.930 . S
C620 C619 1.400 . S
C620 C623 1.386 . S
H621 C637 0.930 . S
H622 C638 0.931 . S
C623 H611 0.929 . S
C623 C617 1.390 . S
C623 C620 1.386 . S
C624 C619 1.490 . S
C624 C626 1.395 . S
C624 C627 1.403 . S
H625 C631 0.930 . S
C626 H612 0.930 . S
C626 C624 1.395 . S
C626 C629 1.403 . S
C627 C624 1.403 . S
C627 C628 1.524 . S
C627 C631 1.400 . S
C628 H613 0.960 . S
C628 H614 0.960 . S
C628 H615 0.960 . S
C628 C627 1.524 . S
C629 C626 1.403 . S
C629 C630 1.392 . S
C629 C633 1.495 . S
C630 C629 1.392 . S
C630 C631 1.385 . S
C630 C632 1.478 . S
C631 H625 0.930 . S
C631 C627 1.400 . S
C631 C630 1.385 . S
C632 C630 1.478 . S
C632 C634 1.381 . S
C632 C638 1.383 . S
C633 C629 1.495 . S
C633 H639 0.959 . S
C633 H640 0.961 . S
C633 H641 0.960 . S
C634 C632 1.381 . S
C634 C635 1.394 . S
C634 H642 0.930 . S
C635 C634 1.394 . S
C635 C636 1.383 . S
C635 H643 0.929 . S
C636 C635 1.383 . S
C636 C637 1.377 . S
C637 H621 0.930 . S
C637 C636 1.377 . S
C637 C638 1.379 . S
C638 H622 0.931 . S
C638 C632 1.383 . S
C638 C637 1.379 . S
H639 C633 0.959 . S
H640 C633 0.961 . S
H641 C633 0.960 . S
H642 C634 0.930 . S
H643 C635 0.929 . S
H644 C652 0.929 . S
H645 C654 0.930 . S
H646 C656 0.930 . S
H647 C659 0.929 . S
H648 C662 0.930 . S
H649 C664 0.960 . S
H650 C664 0.960 . S
H651 C664 0.960 . S
C652 H644 0.929 . S
C652 C653 1.377 . S
C652 C654 1.384 . S
C653 C652 1.377 . S
C653 C659 1.390 . S
C654 H645 0.930 . S
C654 C652 1.384 . S
C654 C655 1.372 . S
C655 C654 1.372 . S
C655 C656 1.400 . S
C655 C660 1.490 . S
C656 H646 0.930 . S
C656 C655 1.400 . S
C656 C659 1.386 . S
H657 C673 0.930 . S
H658 C674 0.931 . S
C659 H647 0.929 . S
C659 C653 1.390 . S
C659 C656 1.386 . S
C660 C655 1.490 . S
C660 C662 1.395 . S
C660 C663 1.403 . S
H661 C667 0.930 . S
C662 H648 0.930 . S
C662 C660 1.395 . S
C662 C665 1.403 . S
C663 C660 1.403 . S
C663 C664 1.524 . S
C663 C667 1.400 . S
C664 H649 0.960 . S
C664 H650 0.960 . S
C664 H651 0.960 . S
C664 C663 1.524 . S
C665 C662 1.403 . S
C665 C666 1.392 . S
C665 C669 1.495 . S
C666 C665 1.392 . S
C666 C667 1.385 . S
C666 C668 1.478 . S
C667 H661 0.930 . S
C667 C663 1.400 . S
C667 C666 1.385 . S
C668 C666 1.478 . S
C668 C670 1.381 . S
C668 C674 1.383 . S
C669 C665 1.495 . S
C669 H675 0.959 . S
C669 H676 0.961 . S
C669 H677 0.960 . S
C670 C668 1.381 . S
C670 C671 1.394 . S
C670 H678 0.930 . S
C671 C670 1.394 . S
C671 C672 1.383 . S
C671 H679 0.929 . S
C672 C671 1.383 . S
C672 C673 1.377 . S
C673 H657 0.930 . S
C673 C672 1.377 . S
C673 C674 1.379 . S
C674 H658 0.931 . S
C674 C668 1.383 . S
C674 C673 1.379 . S
H675 C669 0.959 . S
H676 C669 0.961 . S
H677 C669 0.960 . S
H678 C670 0.930 . S
H679 C671 0.929 . S
H680 C688 0.929 . S
H681 C690 0.930 . S
H682 C692 0.930 . S
H683 C695 0.929 . S
H684 C698 0.930 . S
H685 C700 0.960 . S
H686 C700 0.960 . S
H687 C700 0.960 . S
C688 H680 0.929 . S
C688 C689 1.377 1_556 S
C688 C690 1.384 . S
C689 C688 1.377 1_554 S
C689 C695 1.390 . S
C690 H681 0.930 . S
C690 C688 1.384 . S
C690 C691 1.372 1_556 S
C691 C690 1.372 1_554 S
C691 C692 1.400 . S
C691 C696 1.490 . S
C692 H682 0.930 . S
C692 C691 1.400 . S
C692 C695 1.386 . S
H693 C709 0.930 . S
H694 C710 0.931 . S
C695 H683 0.929 . S
C695 C689 1.390 . S
C695 C692 1.386 . S
C696 C691 1.490 . S
C696 C698 1.395 1_554 S
C696 C699 1.403 . S
H697 C703 0.930 . S
C698 H684 0.930 . S
C698 C696 1.395 1_556 S
C698 C701 1.403 . S
C699 C696 1.403 . S
C699 C700 1.524 . S
C699 C703 1.400 . S
C700 H685 0.960 . S
C700 H686 0.960 . S
C700 H687 0.960 . S
C700 C699 1.524 . S
C701 C698 1.403 . S
C701 C702 1.392 . S
C701 C705 1.495 . S
C702 C701 1.392 . S
C702 C703 1.385 1_556 S
C702 C704 1.478 . S
C703 H697 0.930 . S
C703 C699 1.400 . S
C703 C702 1.385 1_554 S
C704 C702 1.478 . S
C704 C706 1.381 . S
C704 C710 1.383 1_556 S
C705 C701 1.495 . S
C705 H711 0.959 . S
C705 H712 0.961 . S
C705 H713 0.960 . S
C706 C704 1.381 . S
C706 C707 1.394 . S
C706 H714 0.930 . S
C707 C706 1.394 . S
C707 C708 1.383 . S
C707 H715 0.929 . S
C708 C707 1.383 . S
C708 C709 1.377 1_556 S
C709 H693 0.930 . S
C709 C708 1.377 1_554 S
C709 C710 1.379 . S
C710 H694 0.931 . S
C710 C704 1.383 1_554 S
C710 C709 1.379 . S
H711 C705 0.959 . S
H712 C705 0.961 . S
H713 C705 0.960 . S
H714 C706 0.930 . S
H715 C707 0.929 . S
H716 C724 0.929 . S
H717 C726 0.930 . S
H718 C728 0.930 . S
H719 C731 0.929 . S
H720 C734 0.930 . S
H721 C736 0.960 . S
H722 C736 0.960 . S
H723 C736 0.960 . S
C724 H716 0.929 . S
C724 C725 1.377 . S
C724 C726 1.384 . S
C725 C724 1.377 . S
C725 C731 1.390 . S
C726 H717 0.930 . S
C726 C724 1.384 . S
C726 C727 1.372 . S
C727 C726 1.372 . S
C727 C728 1.400 . S
C727 C732 1.490 . S
C728 H718 0.930 . S
C728 C727 1.400 . S
C728 C731 1.386 . S
H729 C745 0.930 . S
H730 C746 0.931 . S
C731 H719 0.929 . S
C731 C725 1.390 . S
C731 C728 1.386 . S
C732 C727 1.490 . S
C732 C734 1.395 . S
C732 C735 1.403 . S
H733 C739 0.930 . S
C734 H720 0.930 . S
C734 C732 1.395 . S
C734 C737 1.403 . S
C735 C732 1.403 . S
C735 C736 1.524 . S
C735 C739 1.400 . S
C736 H721 0.960 . S
C736 H722 0.960 . S
C736 H723 0.960 . S
C736 C735 1.524 . S
C737 C734 1.403 . S
C737 C738 1.392 . S
C737 C741 1.495 . S
C738 C737 1.392 . S
C738 C739 1.385 . S
C738 C740 1.478 . S
C739 H733 0.930 . S
C739 C735 1.400 . S
C739 C738 1.385 . S
C740 C738 1.478 . S
C740 C742 1.381 . S
C740 C746 1.383 . S
C741 C737 1.495 . S
C741 H747 0.959 . S
C741 H748 0.961 . S
C741 H749 0.960 . S
C742 C740 1.381 . S
C742 C743 1.394 . S
C742 H750 0.930 . S
C743 C742 1.394 . S
C743 C744 1.383 . S
C743 H751 0.929 . S
C744 C743 1.383 . S
C744 C745 1.377 . S
C745 H729 0.930 . S
C745 C744 1.377 . S
C745 C746 1.379 . S
C746 H730 0.931 . S
C746 C740 1.383 . S
C746 C745 1.379 . S
H747 C741 0.959 . S
H748 C741 0.961 . S
H749 C741 0.960 . S
H750 C742 0.930 . S
H751 C743 0.929 . S
H752 C760 0.929 . S
H753 C762 0.930 . S
H754 C764 0.930 . S
H755 C767 0.929 . S
H756 C770 0.930 . S
H757 C772 0.960 . S
H758 C772 0.960 . S
H759 C772 0.960 . S
C760 H752 0.929 . S
C760 C761 1.377 . S
C760 C762 1.384 . S
C761 C760 1.377 . S
C761 C767 1.390 . S
C762 H753 0.930 . S
C762 C760 1.384 . S
C762 C763 1.372 . S
C763 C762 1.372 . S
C763 C764 1.400 . S
C763 C768 1.490 . S
C764 H754 0.930 . S
C764 C763 1.400 . S
C764 C767 1.386 . S
H765 C781 0.930 1_554 S
H766 C782 0.931 . S
C767 H755 0.929 . S
C767 C761 1.390 . S
C767 C764 1.386 . S
C768 C763 1.490 . S
C768 C770 1.395 . S
C768 C771 1.403 . S
H769 C775 0.930 . S
C770 H756 0.930 . S
C770 C768 1.395 . S
C770 C773 1.403 . S
C771 C768 1.403 . S
C771 C772 1.524 . S
C771 C775 1.400 . S
C772 H757 0.960 . S
C772 H758 0.960 . S
C772 H759 0.960 . S
C772 C771 1.524 . S
C773 C770 1.403 . S
C773 C774 1.392 . S
C773 C777 1.495 . S
C774 C773 1.392 . S
C774 C775 1.385 . S
C774 C776 1.478 . S
C775 H769 0.930 . S
C775 C771 1.400 . S
C775 C774 1.385 . S
C776 C774 1.478 . S
C776 C778 1.381 . S
C776 C782 1.383 . S
C777 C773 1.495 . S
C777 H783 0.959 . S
C777 H784 0.961 . S
C777 H785 0.960 . S
C778 C776 1.381 . S
C778 C779 1.394 . S
C778 H786 0.930 . S
C779 C778 1.394 . S
C779 C780 1.383 . S
C779 H787 0.929 . S
C780 C779 1.383 . S
C780 C781 1.377 . S
C781 H765 0.930 1_556 S
C781 C780 1.377 . S
C781 C782 1.379 . S
C782 H766 0.931 . S
C782 C776 1.383 . S
C782 C781 1.379 . S
H783 C777 0.959 . S
H784 C777 0.961 . S
H785 C777 0.960 . S
H786 C778 0.930 . S
H787 C779 0.929 . S
H788 C796 0.929 . S
H789 C798 0.930 . S
H790 C800 0.930 . S
H791 C803 0.929 . S
H792 C806 0.930 . S
H793 C808 0.960 . S
H794 C808 0.960 . S
H795 C808 0.960 . S
C796 H788 0.929 . S
C796 C797 1.377 . S
C796 C798 1.384 . S
C797 C796 1.377 . S
C797 C803 1.390 . S
C798 H789 0.930 . S
C798 C796 1.384 . S
C798 C799 1.372 . S
C799 C798 1.372 . S
C799 C800 1.400 . S
C799 C804 1.490 . S
C800 H790 0.930 . S
C800 C799 1.400 . S
C800 C803 1.386 . S
H801 C817 0.930 . S
H802 C818 0.931 . S
C803 H791 0.929 . S
C803 C797 1.390 . S
C803 C800 1.386 . S
C804 C799 1.490 . S
C804 C806 1.395 . S
C804 C807 1.403 . S
H805 C811 0.930 . S
C806 H792 0.930 . S
C806 C804 1.395 . S
C806 C809 1.403 . S
C807 C804 1.403 . S
C807 C808 1.524 . S
C807 C811 1.400 . S
C808 H793 0.960 . S
C808 H794 0.960 . S
C808 H795 0.960 . S
C808 C807 1.524 . S
C809 C806 1.403 . S
C809 C810 1.392 . S
C809 C813 1.495 . S
C810 C809 1.392 . S
C810 C811 1.385 . S
C810 C812 1.478 . S
C811 H805 0.930 . S
C811 C807 1.400 . S
C811 C810 1.385 . S
C812 C810 1.478 . S
C812 C814 1.381 . S
C812 C818 1.383 . S
C813 C809 1.495 . S
C813 H819 0.959 . S
C813 H820 0.961 . S
C813 H821 0.960 . S
C814 C812 1.381 . S
C814 C815 1.394 . S
C814 H822 0.930 . S
C815 C814 1.394 . S
C815 C816 1.383 . S
C815 H823 0.929 . S
C816 C815 1.383 . S
C816 C817 1.377 . S
C817 H801 0.930 . S
C817 C816 1.377 . S
C817 C818 1.379 . S
C818 H802 0.931 . S
C818 C812 1.383 . S
C818 C817 1.379 . S
H819 C813 0.959 . S
H820 C813 0.961 . S
H821 C813 0.960 . S
H822 C814 0.930 . S
H823 C815 0.929 . S
H824 C832 0.929 . S
H825 C834 0.930 . S
H826 C836 0.930 . S
H827 C839 0.929 . S
H828 C842 0.930 . S
H829 C844 0.960 . S
H830 C844 0.960 . S
H831 C844 0.960 . S
C832 H824 0.929 . S
C832 C833 1.377 . S
C832 C834 1.384 . S
C833 C832 1.377 . S
C833 C839 1.390 . S
C834 H825 0.930 . S
C834 C832 1.384 . S
C834 C835 1.372 . S
C835 C834 1.372 . S
C835 C836 1.400 . S
C835 C840 1.490 . S
C836 H826 0.930 . S
C836 C835 1.400 . S
C836 C839 1.386 . S
H837 C853 0.930 . S
H838 C854 0.931 . S
C839 H827 0.929 . S
C839 C833 1.390 . S
C839 C836 1.386 . S
C840 C835 1.490 . S
C840 C842 1.395 . S
C840 C843 1.403 . S
H841 C847 0.930 . S
C842 H828 0.930 . S
C842 C840 1.395 . S
C842 C845 1.403 . S
C843 C840 1.403 . S
C843 C844 1.524 . S
C843 C847 1.400 . S
C844 H829 0.960 . S
C844 H830 0.960 . S
C844 H831 0.960 . S
C844 C843 1.524 . S
C845 C842 1.403 . S
C845 C846 1.392 . S
C845 C849 1.495 . S
C846 C845 1.392 . S
C846 C847 1.385 . S
C846 C848 1.478 . S
C847 H841 0.930 . S
C847 C843 1.400 . S
C847 C846 1.385 . S
C848 C846 1.478 . S
C848 C850 1.381 . S
C848 C854 1.383 . S
C849 C845 1.495 . S
C849 H855 0.959 . S
C849 H856 0.961 . S
C849 H857 0.960 . S
C850 C848 1.381 . S
C850 C851 1.394 . S
C850 H858 0.930 . S
C851 C850 1.394 . S
C851 C852 1.383 . S
C851 H859 0.929 . S
C852 C851 1.383 . S
C852 C853 1.377 . S
C853 H837 0.930 . S
C853 C852 1.377 . S
C853 C854 1.379 . S
C854 H838 0.931 . S
C854 C848 1.383 . S
C854 C853 1.379 . S
H855 C849 0.959 . S
H856 C849 0.961 . S
H857 C849 0.960 . S
H858 C850 0.930 . S
H859 C851 0.929 . S
H860 C868 0.929 . S
H861 C870 0.930 . S
H862 C872 0.930 . S
H863 C875 0.929 . S
H864 C878 0.930 . S
H865 C880 0.960 . S
H866 C880 0.960 . S
H867 C880 0.960 . S
C868 H860 0.929 . S
C868 C869 1.377 . S
C868 C870 1.384 . S
C869 C868 1.377 . S
C869 C875 1.390 . S
C870 H861 0.930 . S
C870 C868 1.384 . S
C870 C871 1.372 . S
C871 C870 1.372 . S
C871 C872 1.400 . S
C871 C876 1.490 . S
C872 H862 0.930 . S
C872 C871 1.400 . S
C872 C875 1.386 . S
H873 C889 0.930 . S
H874 C890 0.931 . S
C875 H863 0.929 . S
C875 C869 1.390 . S
C875 C872 1.386 . S
C876 C871 1.490 . S
C876 C878 1.395 . S
C876 C879 1.403 . S
H877 C883 0.930 . S
C878 H864 0.930 . S
C878 C876 1.395 . S
C878 C881 1.403 . S
C879 C876 1.403 . S
C879 C880 1.524 . S
C879 C883 1.400 . S
C880 H865 0.960 . S
C880 H866 0.960 . S
C880 H867 0.960 . S
C880 C879 1.524 . S
C881 C878 1.403 . S
C881 C882 1.392 . S
C881 C885 1.495 . S
C882 C881 1.392 . S
C882 C883 1.385 . S
C882 C884 1.478 . S
C883 H877 0.930 . S
C883 C879 1.400 . S
C883 C882 1.385 . S
C884 C882 1.478 . S
C884 C886 1.381 . S
C884 C890 1.383 . S
C885 C881 1.495 . S
C885 H891 0.959 . S
C885 H892 0.961 . S
C885 H893 0.960 . S
C886 C884 1.381 . S
C886 C887 1.394 . S
C886 H894 0.930 . S
C887 C886 1.394 . S
C887 C888 1.383 . S
C887 H895 0.929 . S
C888 C887 1.383 . S
C888 C889 1.377 . S
C889 H873 0.930 . S
C889 C888 1.377 . S
C889 C890 1.379 . S
C890 H874 0.931 . S
C890 C884 1.383 . S
C890 C889 1.379 . S
H891 C885 0.959 . S
H892 C885 0.961 . S
H893 C885 0.960 . S
H894 C886 0.930 . S
H895 C887 0.929 . S
H896 C904 0.929 . S
H897 C906 0.930 . S
H898 C908 0.930 . S
H899 C911 0.929 . S
H900 C914 0.930 . S
H901 C916 0.960 . S
H902 C916 0.960 . S
H903 C916 0.960 . S
C904 H896 0.929 . S
C904 C905 1.377 . S
C904 C906 1.384 . S
C905 C904 1.377 . S
C905 C911 1.390 . S
C906 H897 0.930 . S
C906 C904 1.384 . S
C906 C907 1.372 . S
C907 C906 1.372 . S
C907 C908 1.400 . S
C907 C912 1.490 . S
C908 H898 0.930 . S
C908 C907 1.400 . S
C908 C911 1.386 . S
H909 C925 0.930 . S
H910 C926 0.931 . S
C911 H899 0.929 . S
C911 C905 1.390 . S
C911 C908 1.386 . S
C912 C907 1.490 . S
C912 C914 1.395 . S
C912 C915 1.403 . S
H913 C919 0.930 . S
C914 H900 0.930 . S
C914 C912 1.395 . S
C914 C917 1.403 . S
C915 C912 1.403 . S
C915 C916 1.524 . S
C915 C919 1.400 . S
C916 H901 0.960 . S
C916 H902 0.960 . S
C916 H903 0.960 . S
C916 C915 1.524 . S
C917 C914 1.403 . S
C917 C918 1.392 . S
C917 C921 1.495 . S
C918 C917 1.392 . S
C918 C919 1.385 . S
C918 C920 1.478 . S
C919 H913 0.930 . S
C919 C915 1.400 . S
C919 C918 1.385 . S
C920 C918 1.478 . S
C920 C922 1.381 . S
C920 C926 1.383 . S
C921 C917 1.495 . S
C921 H927 0.959 . S
C921 H928 0.961 . S
C921 H929 0.960 . S
C922 C920 1.381 . S
C922 C923 1.394 . S
C922 H930 0.930 . S
C923 C922 1.394 . S
C923 C924 1.383 . S
C923 H931 0.929 . S
C924 C923 1.383 . S
C924 C925 1.377 . S
C925 H909 0.930 . S
C925 C924 1.377 . S
C925 C926 1.379 . S
C926 H910 0.931 . S
C926 C920 1.383 . S
C926 C925 1.379 . S
H927 C921 0.959 . S
H928 C921 0.961 . S
H929 C921 0.960 . S
H930 C922 0.930 . S
H931 C923 0.929 . S
H932 C940 0.929 . S
H933 C942 0.930 . S
H934 C944 0.930 . S
H935 C947 0.929 . S
H936 C950 0.930 . S
H937 C952 0.960 . S
H938 C952 0.960 . S
H939 C952 0.960 . S
C940 H932 0.929 . S
C940 C941 1.377 . S
C940 C942 1.384 . S
C941 C940 1.377 . S
C941 C947 1.390 . S
C942 H933 0.930 . S
C942 C940 1.384 . S
C942 C943 1.372 . S
C943 C942 1.372 . S
C943 C944 1.400 . S
C943 C948 1.490 . S
C944 H934 0.930 . S
C944 C943 1.400 . S
C944 C947 1.386 . S
H945 C961 0.930 . S
H946 C962 0.931 . S
C947 H935 0.929 . S
C947 C941 1.390 . S
C947 C944 1.386 . S
C948 C943 1.490 . S
C948 C950 1.395 . S
C948 C951 1.403 . S
H949 C955 0.930 . S
C950 H936 0.930 . S
C950 C948 1.395 . S
C950 C953 1.403 . S
C951 C948 1.403 . S
C951 C952 1.524 . S
C951 C955 1.400 . S
C952 H937 0.960 . S
C952 H938 0.960 . S
C952 H939 0.960 . S
C952 C951 1.524 . S
C953 C950 1.403 . S
C953 C954 1.392 . S
C953 C957 1.495 . S
C954 C953 1.392 . S
C954 C955 1.385 . S
C954 C956 1.478 . S
C955 H949 0.930 . S
C955 C951 1.400 . S
C955 C954 1.385 . S
C956 C954 1.478 . S
C956 C958 1.381 . S
C956 C962 1.383 . S
C957 C953 1.495 . S
C957 H963 0.959 . S
C957 H964 0.961 . S
C957 H965 0.960 . S
C958 C956 1.381 . S
C958 C959 1.394 . S
C958 H966 0.930 . S
C959 C958 1.394 . S
C959 C960 1.383 . S
C959 H967 0.929 . S
C960 C959 1.383 . S
C960 C961 1.377 . S
C961 H945 0.930 . S
C961 C960 1.377 . S
C961 C962 1.379 . S
C962 H946 0.931 . S
C962 C956 1.383 . S
C962 C961 1.379 . S
H963 C957 0.959 . S
H964 C957 0.961 . S
H965 C957 0.960 . S
H966 C958 0.930 . S
H967 C959 0.929 . S
H968 C976 0.929 . S
H969 C978 0.930 . S
H970 C980 0.930 . S
H971 C983 0.929 . S
H972 C986 0.930 . S
H973 C988 0.960 . S
H974 C988 0.960 . S
H975 C988 0.960 . S
C976 H968 0.929 . S
C976 C977 1.377 . S
C976 C978 1.384 . S
C977 C976 1.377 . S
C977 C983 1.390 . S
C978 H969 0.930 . S
C978 C976 1.384 . S
C978 C979 1.372 . S
C979 C978 1.372 . S
C979 C980 1.400 . S
C979 C984 1.490 . S
C980 H970 0.930 . S
C980 C979 1.400 . S
C980 C983 1.386 . S
H981 C997 0.930 . S
H982 C998 0.931 . S
C983 H971 0.929 . S
C983 C977 1.390 . S
C983 C980 1.386 . S
C984 C979 1.490 . S
C984 C986 1.395 . S
C984 C987 1.403 . S
H985 C991 0.930 . S
C986 H972 0.930 . S
C986 C984 1.395 . S
C986 C989 1.403 . S
C987 C984 1.403 . S
C987 C988 1.524 . S
C987 C991 1.400 . S
C988 H973 0.960 . S
C988 H974 0.960 . S
C988 H975 0.960 . S
C988 C987 1.524 . S
C989 C986 1.403 . S
C989 C990 1.392 . S
C989 C993 1.495 . S
C990 C989 1.392 . S
C990 C991 1.385 . S
C990 C992 1.478 . S
C991 H985 0.930 . S
C991 C987 1.400 . S
C991 C990 1.385 . S
C992 C990 1.478 . S
C992 C994 1.381 . S
C992 C998 1.383 . S
C993 C989 1.495 . S
C993 H999 0.959 . S
C993 H1000 0.961 . S
C993 H1001 0.960 . S
C994 C992 1.381 . S
C994 C995 1.394 . S
C994 H1002 0.930 . S
C995 C994 1.394 . S
C995 C996 1.383 . S
C995 H1003 0.929 . S
C996 C995 1.383 . S
C996 C997 1.377 . S
C997 H981 0.930 . S
C997 C996 1.377 . S
C997 C998 1.379 . S
C998 H982 0.931 . S
C998 C992 1.383 . S
C998 C997 1.379 . S
H999 C993 0.959 . S
H1000 C993 0.961 . S
H1001 C993 0.960 . S
H1002 C994 0.930 . S
H1003 C995 0.929 . S
H1004 C1012 0.929 1_556 S
H1005 C1014 0.930 . S
H1006 C1016 0.930 . S
H1007 C1019 0.929 . S
H1008 C1022 0.930 . S
H1009 C1024 0.960 . S
H1010 C1024 0.960 . S
H1011 C1024 0.960 . S
C1012 H1004 0.929 1_554 S
C1012 C1013 1.377 . S
C1012 C1014 1.384 . S
C1013 C1012 1.377 . S
C1013 C1019 1.390 . S
C1014 H1005 0.930 . S
C1014 C1012 1.384 . S
C1014 C1015 1.372 . S
C1015 C1014 1.372 . S
C1015 C1016 1.400 . S
C1015 C1020 1.490 . S
C1016 H1006 0.930 . S
C1016 C1015 1.400 . S
C1016 C1019 1.386 . S
H1017 C1033 0.930 . S
H1018 C1034 0.931 . S
C1019 H1007 0.929 . S
C1019 C1013 1.390 . S
C1019 C1016 1.386 . S
C1020 C1015 1.490 . S
C1020 C1022 1.395 . S
C1020 C1023 1.403 . S
H1021 C1027 0.930 . S
C1022 H1008 0.930 . S
C1022 C1020 1.395 . S
C1022 C1025 1.403 . S
C1023 C1020 1.403 . S
C1023 C1024 1.524 . S
C1023 C1027 1.400 . S
C1024 H1009 0.960 . S
C1024 H1010 0.960 . S
C1024 H1011 0.960 . S
C1024 C1023 1.524 . S
C1025 C1022 1.403 . S
C1025 C1026 1.392 . S
C1025 C1029 1.495 . S
C1026 C1025 1.392 . S
C1026 C1027 1.385 . S
C1026 C1028 1.478 . S
C1027 H1021 0.930 . S
C1027 C1023 1.400 . S
C1027 C1026 1.385 . S
C1028 C1026 1.478 . S
C1028 C1030 1.381 . S
C1028 C1034 1.383 . S
C1029 C1025 1.495 . S
C1029 H1035 0.959 . S
C1029 H1036 0.961 . S
C1029 H1037 0.960 . S
C1030 C1028 1.381 . S
C1030 C1031 1.394 . S
C1030 H1038 0.930 . S
C1031 C1030 1.394 . S
C1031 C1032 1.383 . S
C1031 H1039 0.929 . S
C1032 C1031 1.383 . S
C1032 C1033 1.377 . S
C1033 H1017 0.930 . S
C1033 C1032 1.377 . S
C1033 C1034 1.379 . S
C1034 H1018 0.931 . S
C1034 C1028 1.383 . S
C1034 C1033 1.379 . S
H1035 C1029 0.959 . S
H1036 C1029 0.961 . S
H1037 C1029 0.960 . S
H1038 C1030 0.930 . S
H1039 C1031 0.929 . S
H1040 C1048 0.929 . S
H1041 C1050 0.930 . S
H1042 C1052 0.930 . S
H1043 C1055 0.929 . S
H1044 C1058 0.930 . S
H1045 C1060 0.960 . S
H1046 C1060 0.960 . S
H1047 C1060 0.960 . S
C1048 H1040 0.929 . S
C1048 C1049 1.377 . S
C1048 C1050 1.384 . S
C1049 C1048 1.377 . S
C1049 C1055 1.390 . S
C1050 H1041 0.930 . S
C1050 C1048 1.384 . S
C1050 C1051 1.372 . S
C1051 C1050 1.372 . S
C1051 C1052 1.400 . S
C1051 C1056 1.490 . S
C1052 H1042 0.930 . S
C1052 C1051 1.400 . S
C1052 C1055 1.386 . S
H1053 C1069 0.930 . S
H1054 C1070 0.931 . S
C1055 H1043 0.929 . S
C1055 C1049 1.390 . S
C1055 C1052 1.386 . S
C1056 C1051 1.490 . S
C1056 C1058 1.395 . S
C1056 C1059 1.403 . S
H1057 C1063 0.930 . S
C1058 H1044 0.930 . S
C1058 C1056 1.395 . S
C1058 C1061 1.403 . S
C1059 C1056 1.403 . S
C1059 C1060 1.524 . S
C1059 C1063 1.400 . S
C1060 H1045 0.960 . S
C1060 H1046 0.960 . S
C1060 H1047 0.960 . S
C1060 C1059 1.524 . S
C1061 C1058 1.403 . S
C1061 C1062 1.392 . S
C1061 C1065 1.495 . S
C1062 C1061 1.392 . S
C1062 C1063 1.385 . S
C1062 C1064 1.478 . S
C1063 H1057 0.930 . S
C1063 C1059 1.400 . S
C1063 C1062 1.385 . S
C1064 C1062 1.478 . S
C1064 C1066 1.381 . S
C1064 C1070 1.383 . S
C1065 C1061 1.495 . S
C1065 H1071 0.959 . S
C1065 H1072 0.961 . S
C1065 H1073 0.960 . S
C1066 C1064 1.381 . S
C1066 C1067 1.394 . S
C1066 H1074 0.930 . S
C1067 C1066 1.394 . S
C1067 C1068 1.383 . S
C1067 H1075 0.929 . S
C1068 C1067 1.383 . S
C1068 C1069 1.377 . S
C1069 H1053 0.930 . S
C1069 C1068 1.377 . S
C1069 C1070 1.379 . S
C1070 H1054 0.931 . S
C1070 C1064 1.383 . S
C1070 C1069 1.379 . S
H1071 C1065 0.959 . S
H1072 C1065 0.961 . S
H1073 C1065 0.960 . S
H1074 C1066 0.930 . S
H1075 C1067 0.929 . S
H1076 C1084 0.929 . S
H1077 C1086 0.930 . S
H1078 C1088 0.930 . S
H1079 C1091 0.929 . S
H1080 C1094 0.930 . S
H1081 C1096 0.960 . S
H1082 C1096 0.960 . S
H1083 C1096 0.960 . S
C1084 H1076 0.929 . S
C1084 C1085 1.377 . S
C1084 C1086 1.384 . S
C1085 C1084 1.377 . S
C1085 C1091 1.390 . S
C1086 H1077 0.930 . S
C1086 C1084 1.384 . S
C1086 C1087 1.372 . S
C1087 C1086 1.372 . S
C1087 C1088 1.400 . S
C1087 C1092 1.490 . S
C1088 H1078 0.930 . S
C1088 C1087 1.400 . S
C1088 C1091 1.386 . S
H1089 C1105 0.930 . S
H1090 C1106 0.931 . S
C1091 H1079 0.929 . S
C1091 C1085 1.390 . S
C1091 C1088 1.386 . S
C1092 C1087 1.490 . S
C1092 C1094 1.395 . S
C1092 C1095 1.403 . S
H1093 C1099 0.930 . S
C1094 H1080 0.930 . S
C1094 C1092 1.395 . S
C1094 C1097 1.403 . S
C1095 C1092 1.403 . S
C1095 C1096 1.524 . S
C1095 C1099 1.400 . S
C1096 H1081 0.960 . S
C1096 H1082 0.960 . S
C1096 H1083 0.960 . S
C1096 C1095 1.524 . S
C1097 C1094 1.403 . S
C1097 C1098 1.392 . S
C1097 C1101 1.495 . S
C1098 C1097 1.392 . S
C1098 C1099 1.385 . S
C1098 C1100 1.478 . S
C1099 H1093 0.930 . S
C1099 C1095 1.400 . S
C1099 C1098 1.385 . S
C1100 C1098 1.478 . S
C1100 C1102 1.381 . S
C1100 C1106 1.383 . S
C1101 C1097 1.495 . S
C1101 H1107 0.959 . S
C1101 H1108 0.961 . S
C1101 H1109 0.960 . S
C1102 C1100 1.381 . S
C1102 C1103 1.394 . S
C1102 H1110 0.930 . S
C1103 C1102 1.394 . S
C1103 C1104 1.383 . S
C1103 H1111 0.929 . S
C1104 C1103 1.383 . S
C1104 C1105 1.377 . S
C1105 H1089 0.930 . S
C1105 C1104 1.377 . S
C1105 C1106 1.379 . S
C1106 H1090 0.931 . S
C1106 C1100 1.383 . S
C1106 C1105 1.379 . S
H1107 C1101 0.959 . S
H1108 C1101 0.961 . S
H1109 C1101 0.960 . S
H1110 C1102 0.930 . S
H1111 C1103 0.929 . S
H1112 C1120 0.929 . S
H1113 C1122 0.930 . S
H1114 C1124 0.930 . S
H1115 C1127 0.929 . S
H1116 C1130 0.930 . S
H1117 C1132 0.960 . S
H1118 C1132 0.960 . S
H1119 C1132 0.960 . S
C1120 H1112 0.929 . S
C1120 C1121 1.377 . S
C1120 C1122 1.384 . S
C1121 C1120 1.377 . S
C1121 C1127 1.390 . S
C1122 H1113 0.930 . S
C1122 C1120 1.384 . S
C1122 C1123 1.372 . S
C1123 C1122 1.372 . S
C1123 C1124 1.400 . S
C1123 C1128 1.490 . S
C1124 H1114 0.930 . S
C1124 C1123 1.400 . S
C1124 C1127 1.386 . S
H1125 C1141 0.930 1_554 S
H1126 C1142 0.931 . S
C1127 H1115 0.929 . S
C1127 C1121 1.390 . S
C1127 C1124 1.386 . S
C1128 C1123 1.490 . S
C1128 C1130 1.395 . S
C1128 C1131 1.403 . S
H1129 C1135 0.930 . S
C1130 H1116 0.930 . S
C1130 C1128 1.395 . S
C1130 C1133 1.403 . S
C1131 C1128 1.403 . S
C1131 C1132 1.524 . S
C1131 C1135 1.400 . S
C1132 H1117 0.960 . S
C1132 H1118 0.960 . S
C1132 H1119 0.960 . S
C1132 C1131 1.524 . S
C1133 C1130 1.403 . S
C1133 C1134 1.392 . S
C1133 C1137 1.495 . S
C1134 C1133 1.392 . S
C1134 C1135 1.385 . S
C1134 C1136 1.478 . S
C1135 H1129 0.930 . S
C1135 C1131 1.400 . S
C1135 C1134 1.385 . S
C1136 C1134 1.478 . S
C1136 C1138 1.381 . S
C1136 C1142 1.383 . S
C1137 C1133 1.495 . S
C1137 H1143 0.959 . S
C1137 H1144 0.961 . S
C1137 H1145 0.960 . S
C1138 C1136 1.381 . S
C1138 C1139 1.394 . S
C1138 H1146 0.930 . S
C1139 C1138 1.394 . S
C1139 C1140 1.383 . S
C1139 H1147 0.929 . S
C1140 C1139 1.383 . S
C1140 C1141 1.377 . S
C1141 H1125 0.930 1_556 S
C1141 C1140 1.377 . S
C1141 C1142 1.379 . S
C1142 H1126 0.931 . S
C1142 C1136 1.383 . S
C1142 C1141 1.379 . S
H1143 C1137 0.959 . S
H1144 C1137 0.961 . S
H1145 C1137 0.960 . S
H1146 C1138 0.930 . S
H1147 C1139 0.929 . S
H1148 C1156 0.929 . S
H1149 C1158 0.930 . S
H1150 C1160 0.930 . S
H1151 C1163 0.929 . S
H1152 C1166 0.930 . S
H1153 C1168 0.960 . S
H1154 C1168 0.960 . S
H1155 C1168 0.960 . S
C1156 H1148 0.929 . S
C1156 C1157 1.377 . S
C1156 C1158 1.384 . S
C1157 C1156 1.377 . S
C1157 C1163 1.390 . S
C1158 H1149 0.930 . S
C1158 C1156 1.384 . S
C1158 C1159 1.372 . S
C1159 C1158 1.372 . S
C1159 C1160 1.400 . S
C1159 C1164 1.490 . S
C1160 H1150 0.930 . S
C1160 C1159 1.400 . S
C1160 C1163 1.386 . S
H1161 C1177 0.930 . S
H1162 C1178 0.931 . S
C1163 H1151 0.929 . S
C1163 C1157 1.390 . S
C1163 C1160 1.386 . S
C1164 C1159 1.490 . S
C1164 C1166 1.395 . S
C1164 C1167 1.403 . S
H1165 C1171 0.930 . S
C1166 H1152 0.930 . S
C1166 C1164 1.395 . S
C1166 C1169 1.403 . S
C1167 C1164 1.403 . S
C1167 C1168 1.524 . S
C1167 C1171 1.400 . S
C1168 H1153 0.960 . S
C1168 H1154 0.960 . S
C1168 H1155 0.960 . S
C1168 C1167 1.524 . S
C1169 C1166 1.403 . S
C1169 C1170 1.392 . S
C1169 C1173 1.495 . S
C1170 C1169 1.392 . S
C1170 C1171 1.385 . S
C1170 C1172 1.478 . S
C1171 H1165 0.930 . S
C1171 C1167 1.400 . S
C1171 C1170 1.385 . S
C1172 C1170 1.478 . S
C1172 C1174 1.381 . S
C1172 C1178 1.383 . S
C1173 C1169 1.495 . S
C1173 H1179 0.959 . S
C1173 H1180 0.961 . S
C1173 H1181 0.960 . S
C1174 C1172 1.381 . S
C1174 C1175 1.394 . S
C1174 H1182 0.930 . S
C1175 C1174 1.394 . S
C1175 C1176 1.383 . S
C1175 H1183 0.929 . S
C1176 C1175 1.383 . S
C1176 C1177 1.377 . S
C1177 H1161 0.930 . S
C1177 C1176 1.377 . S
C1177 C1178 1.379 . S
C1178 H1162 0.931 . S
C1178 C1172 1.383 . S
C1178 C1177 1.379 . S
H1179 C1173 0.959 . S
H1180 C1173 0.961 . S
H1181 C1173 0.960 . S
H1182 C1174 0.930 . S
H1183 C1175 0.929 . S
H1184 C1192 0.929 . S
H1185 C1194 0.930 . S
H1186 C1196 0.930 . S
H1187 C1199 0.929 . S
H1188 C1202 0.930 . S
H1189 C1204 0.960 . S
H1190 C1204 0.960 . S
H1191 C1204 0.960 . S
C1192 H1184 0.929 . S
C1192 C1193 1.377 . S
C1192 C1194 1.384 . S
C1193 C1192 1.377 . S
C1193 C1199 1.390 . S
C1194 H1185 0.930 . S
C1194 C1192 1.384 . S
C1194 C1195 1.372 . S
C1195 C1194 1.372 . S
C1195 C1196 1.400 . S
C1195 C1200 1.490 . S
C1196 H1186 0.930 . S
C1196 C1195 1.400 . S
C1196 C1199 1.386 . S
H1197 C1213 0.930 . S
H1198 C1214 0.931 . S
C1199 H1187 0.929 . S
C1199 C1193 1.390 . S
C1199 C1196 1.386 . S
C1200 C1195 1.490 . S
C1200 C1202 1.395 . S
C1200 C1203 1.403 . S
H1201 C1207 0.930 . S
C1202 H1188 0.930 . S
C1202 C1200 1.395 . S
C1202 C1205 1.403 . S
C1203 C1200 1.403 . S
C1203 C1204 1.524 . S
C1203 C1207 1.400 . S
C1204 H1189 0.960 . S
C1204 H1190 0.960 . S
C1204 H1191 0.960 . S
C1204 C1203 1.524 . S
C1205 C1202 1.403 . S
C1205 C1206 1.392 . S
C1205 C1209 1.495 . S
C1206 C1205 1.392 . S
C1206 C1207 1.385 . S
C1206 C1208 1.478 . S
C1207 H1201 0.930 . S
C1207 C1203 1.400 . S
C1207 C1206 1.385 . S
C1208 C1206 1.478 . S
C1208 C1210 1.381 . S
C1208 C1214 1.383 . S
C1209 C1205 1.495 . S
C1209 H1215 0.959 . S
C1209 H1216 0.961 . S
C1209 H1217 0.960 . S
C1210 C1208 1.381 . S
C1210 C1211 1.394 . S
C1210 H1218 0.930 . S
C1211 C1210 1.394 . S
C1211 C1212 1.383 . S
C1211 H1219 0.929 . S
C1212 C1211 1.383 . S
C1212 C1213 1.377 . S
C1213 H1197 0.930 . S
C1213 C1212 1.377 . S
C1213 C1214 1.379 . S
C1214 H1198 0.931 . S
C1214 C1208 1.383 . S
C1214 C1213 1.379 . S
H1215 C1209 0.959 . S
H1216 C1209 0.961 . S
H1217 C1209 0.960 . S
H1218 C1210 0.930 . S
H1219 C1211 0.929 . S
H1220 C1228 0.929 . S
H1221 C1230 0.930 . S
H1222 C1232 0.930 . S
H1223 C1235 0.929 1_556 S
H1224 C1238 0.930 . S
H1225 C1240 0.960 . S
H1226 C1240 0.960 . S
H1227 C1240 0.960 . S
C1228 H1220 0.929 . S
C1228 C1229 1.377 . S
C1228 C1230 1.384 . S
C1229 C1228 1.377 . S
C1229 C1235 1.390 . S
C1230 H1221 0.930 . S
C1230 C1228 1.384 . S
C1230 C1231 1.372 . S
C1231 C1230 1.372 . S
C1231 C1232 1.400 . S
C1231 C1236 1.490 . S
C1232 H1222 0.930 . S
C1232 C1231 1.400 . S
C1232 C1235 1.386 . S
H1233 C1249 0.930 . S
H1234 C1250 0.931 . S
C1235 H1223 0.929 1_554 S
C1235 C1229 1.390 . S
C1235 C1232 1.386 . S
C1236 C1231 1.490 . S
C1236 C1238 1.395 . S
C1236 C1239 1.403 . S
H1237 C1243 0.930 . S
C1238 H1224 0.930 . S
C1238 C1236 1.395 . S
C1238 C1241 1.403 . S
C1239 C1236 1.403 . S
C1239 C1240 1.524 . S
C1239 C1243 1.400 . S
C1240 H1225 0.960 . S
C1240 H1226 0.960 . S
C1240 H1227 0.960 . S
C1240 C1239 1.524 . S
C1241 C1238 1.403 . S
C1241 C1242 1.392 . S
C1241 C1245 1.495 . S
C1242 C1241 1.392 . S
C1242 C1243 1.385 . S
C1242 C1244 1.478 . S
C1243 H1237 0.930 . S
C1243 C1239 1.400 . S
C1243 C1242 1.385 . S
C1244 C1242 1.478 . S
C1244 C1246 1.381 . S
C1244 C1250 1.383 . S
C1245 C1241 1.495 . S
C1245 H1251 0.959 . S
C1245 H1252 0.961 . S
C1245 H1253 0.960 . S
C1246 C1244 1.381 . S
C1246 C1247 1.394 . S
C1246 H1254 0.930 . S
C1247 C1246 1.394 . S
C1247 C1248 1.383 . S
C1247 H1255 0.929 . S
C1248 C1247 1.383 . S
C1248 C1249 1.377 . S
C1249 H1233 0.930 . S
C1249 C1248 1.377 . S
C1249 C1250 1.379 . S
C1250 H1234 0.931 . S
C1250 C1244 1.383 . S
C1250 C1249 1.379 . S
H1251 C1245 0.959 . S
H1252 C1245 0.961 . S
H1253 C1245 0.960 . S
H1254 C1246 0.930 . S
H1255 C1247 0.929 . S
H1256 C1264 0.929 . S
H1257 C1266 0.930 . S
H1258 C1268 0.930 . S
H1259 C1271 0.929 . S
H1260 C1274 0.930 . S
H1261 C1276 0.960 . S
H1262 C1276 0.960 . S
H1263 C1276 0.960 . S
C1264 H1256 0.929 . S
C1264 C1265 1.377 . S
C1264 C1266 1.384 . S
C1265 C1264 1.377 . S
C1265 C1271 1.390 . S
C1266 H1257 0.930 . S
C1266 C1264 1.384 . S
C1266 C1267 1.372 . S
C1267 C1266 1.372 . S
C1267 C1268 1.400 . S
C1267 C1272 1.490 . S
C1268 H1258 0.930 . S
C1268 C1267 1.400 . S
C1268 C1271 1.386 . S
H1269 C1285 0.930 . S
H1270 C1286 0.931 . S
C1271 H1259 0.929 . S
C1271 C1265 1.390 . S
C1271 C1268 1.386 . S
C1272 C1267 1.490 . S
C1272 C1274 1.395 . S
C1272 C1275 1.403 . S
H1273 C1279 0.930 . S
C1274 H1260 0.930 . S
C1274 C1272 1.395 . S
C1274 C1277 1.403 . S
C1275 C1272 1.403 . S
C1275 C1276 1.524 . S
C1275 C1279 1.400 . S
C1276 H1261 0.960 . S
C1276 H1262 0.960 . S
C1276 H1263 0.960 . S
C1276 C1275 1.524 . S
C1277 C1274 1.403 . S
C1277 C1278 1.392 . S
C1277 C1281 1.495 . S
C1278 C1277 1.392 . S
C1278 C1279 1.385 . S
C1278 C1280 1.478 . S
C1279 H1273 0.930 . S
C1279 C1275 1.400 . S
C1279 C1278 1.385 . S
C1280 C1278 1.478 . S
C1280 C1282 1.381 . S
C1280 C1286 1.383 . S
C1281 C1277 1.495 . S
C1281 H1287 0.959 . S
C1281 H1288 0.961 . S
C1281 H1289 0.960 . S
C1282 C1280 1.381 . S
C1282 C1283 1.394 . S
C1282 H1290 0.930 . S
C1283 C1282 1.394 . S
C1283 C1284 1.383 . S
C1283 H1291 0.929 . S
C1284 C1283 1.383 . S
C1284 C1285 1.377 . S
C1285 H1269 0.930 . S
C1285 C1284 1.377 . S
C1285 C1286 1.379 . S
C1286 H1270 0.931 . S
C1286 C1280 1.383 . S
C1286 C1285 1.379 . S
H1287 C1281 0.959 . S
H1288 C1281 0.961 . S
H1289 C1281 0.960 . S
H1290 C1282 0.930 . S
H1291 C1283 0.929 . S
H1292 C1300 0.929 . S
H1293 C1302 0.930 . S
H1294 C1304 0.930 . S
H1295 C1307 0.929 . S
H1296 C1310 0.930 . S
H1297 C1312 0.960 . S
H1298 C1312 0.960 . S
H1299 C1312 0.960 . S
C1300 H1292 0.929 . S
C1300 C1301 1.377 . S
C1300 C1302 1.384 . S
C1301 C1300 1.377 . S
C1301 C1307 1.390 . S
C1302 H1293 0.930 . S
C1302 C1300 1.384 . S
C1302 C1303 1.372 . S
C1303 C1302 1.372 . S
C1303 C1304 1.400 . S
C1303 C1308 1.490 . S
C1304 H1294 0.930 . S
C1304 C1303 1.400 . S
C1304 C1307 1.386 . S
H1305 C1321 0.930 . S
H1306 C1322 0.931 . S
C1307 H1295 0.929 . S
C1307 C1301 1.390 . S
C1307 C1304 1.386 . S
C1308 C1303 1.490 . S
C1308 C1310 1.395 . S
C1308 C1311 1.403 . S
H1309 C1315 0.930 . S
C1310 H1296 0.930 . S
C1310 C1308 1.395 . S
C1310 C1313 1.403 . S
C1311 C1308 1.403 . S
C1311 C1312 1.524 . S
C1311 C1315 1.400 . S
C1312 H1297 0.960 . S
C1312 H1298 0.960 . S
C1312 H1299 0.960 . S
C1312 C1311 1.524 . S
C1313 C1310 1.403 . S
C1313 C1314 1.392 . S
C1313 C1317 1.495 . S
C1314 C1313 1.392 . S
C1314 C1315 1.385 . S
C1314 C1316 1.478 . S
C1315 H1309 0.930 . S
C1315 C1311 1.400 . S
C1315 C1314 1.385 . S
C1316 C1314 1.478 . S
C1316 C1318 1.381 . S
C1316 C1322 1.383 . S
C1317 C1313 1.495 . S
C1317 H1323 0.959 . S
C1317 H1324 0.961 . S
C1317 H1325 0.960 . S
C1318 C1316 1.381 . S
C1318 C1319 1.394 . S
C1318 H1326 0.930 . S
C1319 C1318 1.394 . S
C1319 C1320 1.383 . S
C1319 H1327 0.929 . S
C1320 C1319 1.383 . S
C1320 C1321 1.377 . S
C1321 H1305 0.930 . S
C1321 C1320 1.377 . S
C1321 C1322 1.379 . S
C1322 H1306 0.931 . S
C1322 C1316 1.383 . S
C1322 C1321 1.379 . S
H1323 C1317 0.959 . S
H1324 C1317 0.961 . S
H1325 C1317 0.960 . S
H1326 C1318 0.930 . S
H1327 C1319 0.929 . S
H1328 C1336 0.929 . S
H1329 C1338 0.930 . S
H1330 C1340 0.930 . S
H1331 C1343 0.929 . S
H1332 C1346 0.930 . S
H1333 C1348 0.960 . S
H1334 C1348 0.960 . S
H1335 C1348 0.960 . S
C1336 H1328 0.929 . S
C1336 C1337 1.377 . S
C1336 C1338 1.384 . S
C1337 C1336 1.377 . S
C1337 C1343 1.390 . S
C1338 H1329 0.930 . S
C1338 C1336 1.384 . S
C1338 C1339 1.372 . S
C1339 C1338 1.372 . S
C1339 C1340 1.400 . S
C1339 C1344 1.490 . S
C1340 H1330 0.930 . S
C1340 C1339 1.400 . S
C1340 C1343 1.386 . S
H1341 C1357 0.930 . S
H1342 C1358 0.931 . S
C1343 H1331 0.929 . S
C1343 C1337 1.390 . S
C1343 C1340 1.386 . S
C1344 C1339 1.490 . S
C1344 C1346 1.395 . S
C1344 C1347 1.403 . S
H1345 C1351 0.930 . S
C1346 H1332 0.930 . S
C1346 C1344 1.395 . S
C1346 C1349 1.403 . S
C1347 C1344 1.403 . S
C1347 C1348 1.524 . S
C1347 C1351 1.400 . S
C1348 H1333 0.960 . S
C1348 H1334 0.960 . S
C1348 H1335 0.960 . S
C1348 C1347 1.524 . S
C1349 C1346 1.403 . S
C1349 C1350 1.392 . S
C1349 C1353 1.495 . S
C1350 C1349 1.392 . S
C1350 C1351 1.385 . S
C1350 C1352 1.478 . S
C1351 H1345 0.930 . S
C1351 C1347 1.400 . S
C1351 C1350 1.385 . S
C1352 C1350 1.478 . S
C1352 C1354 1.381 . S
C1352 C1358 1.383 . S
C1353 C1349 1.495 . S
C1353 H1359 0.959 . S
C1353 H1360 0.961 . S
C1353 H1361 0.960 . S
C1354 C1352 1.381 . S
C1354 C1355 1.394 . S
C1354 H1362 0.930 . S
C1355 C1354 1.394 . S
C1355 C1356 1.383 . S
C1355 H1363 0.929 . S
C1356 C1355 1.383 . S
C1356 C1357 1.377 . S
C1357 H1341 0.930 . S
C1357 C1356 1.377 . S
C1357 C1358 1.379 . S
C1358 H1342 0.931 . S
C1358 C1352 1.383 . S
C1358 C1357 1.379 . S
H1359 C1353 0.959 . S
H1360 C1353 0.961 . S
H1361 C1353 0.960 . S
H1362 C1354 0.930 . S
H1363 C1355 0.929 . S
H1364 C1372 0.929 . S
H1365 C1374 0.930 . S
H1366 C1376 0.930 . S
H1367 C1379 0.929 . S
H1368 C1382 0.930 . S
H1369 C1384 0.960 . S
H1370 C1384 0.960 . S
H1371 C1384 0.960 . S
C1372 H1364 0.929 . S
C1372 C1373 1.377 . S
C1372 C1374 1.384 . S
C1373 C1372 1.377 . S
C1373 C1379 1.390 . S
C1374 H1365 0.930 . S
C1374 C1372 1.384 . S
C1374 C1375 1.372 . S
C1375 C1374 1.372 . S
C1375 C1376 1.400 . S
C1375 C1380 1.490 . S
C1376 H1366 0.930 . S
C1376 C1375 1.400 . S
C1376 C1379 1.386 . S
H1377 C1393 0.930 . S
H1378 C1394 0.931 . S
C1379 H1367 0.929 . S
C1379 C1373 1.390 . S
C1379 C1376 1.386 . S
C1380 C1375 1.490 . S
C1380 C1382 1.395 . S
C1380 C1383 1.403 . S
H1381 C1387 0.930 . S
C1382 H1368 0.930 . S
C1382 C1380 1.395 . S
C1382 C1385 1.403 . S
C1383 C1380 1.403 . S
C1383 C1384 1.524 . S
C1383 C1387 1.400 . S
C1384 H1369 0.960 . S
C1384 H1370 0.960 . S
C1384 H1371 0.960 . S
C1384 C1383 1.524 . S
C1385 C1382 1.403 . S
C1385 C1386 1.392 . S
C1385 C1389 1.495 . S
C1386 C1385 1.392 . S
C1386 C1387 1.385 . S
C1386 C1388 1.478 . S
C1387 H1381 0.930 . S
C1387 C1383 1.400 . S
C1387 C1386 1.385 . S
C1388 C1386 1.478 . S
C1388 C1390 1.381 . S
C1388 C1394 1.383 . S
C1389 C1385 1.495 . S
C1389 H1395 0.959 . S
C1389 H1396 0.961 . S
C1389 H1397 0.960 . S
C1390 C1388 1.381 . S
C1390 C1391 1.394 . S
C1390 H1398 0.930 . S
C1391 C1390 1.394 . S
C1391 C1392 1.383 . S
C1391 H1399 0.929 . S
C1392 C1391 1.383 . S
C1392 C1393 1.377 . S
C1393 H1377 0.930 . S
C1393 C1392 1.377 . S
C1393 C1394 1.379 . S
C1394 H1378 0.931 . S
C1394 C1388 1.383 . S
C1394 C1393 1.379 . S
H1395 C1389 0.959 . S
H1396 C1389 0.961 . S
H1397 C1389 0.960 . S
H1398 C1390 0.930 . S
H1399 C1391 0.929 . S
H1400 C1408 0.929 . S
H1401 C1410 0.930 . S
H1402 C1412 0.930 . S
H1403 C1415 0.929 . S
H1404 C1418 0.930 . S
H1405 C1420 0.960 . S
H1406 C1420 0.960 . S
H1407 C1420 0.960 . S
C1408 H1400 0.929 . S
C1408 C1409 1.377 . S
C1408 C1410 1.384 . S
C1409 C1408 1.377 . S
C1409 C1415 1.390 . S
C1410 H1401 0.930 . S
C1410 C1408 1.384 . S
C1410 C1411 1.372 . S
C1411 C1410 1.372 . S
C1411 C1412 1.400 . S
C1411 C1416 1.490 . S
C1412 H1402 0.930 . S
C1412 C1411 1.400 . S
C1412 C1415 1.386 . S
H1413 C1429 0.930 . S
H1414 C1430 0.931 . S
C1415 H1403 0.929 . S
C1415 C1409 1.390 . S
C1415 C1412 1.386 . S
C1416 C1411 1.490 . S
C1416 C1418 1.395 . S
C1416 C1419 1.403 . S
H1417 C1423 0.930 . S
C1418 H1404 0.930 . S
C1418 C1416 1.395 . S
C1418 C1421 1.403 . S
C1419 C1416 1.403 . S
C1419 C1420 1.524 . S
C1419 C1423 1.400 . S
C1420 H1405 0.960 . S
C1420 H1406 0.960 . S
C1420 H1407 0.960 . S
C1420 C1419 1.524 . S
C1421 C1418 1.403 . S
C1421 C1422 1.392 . S
C1421 C1425 1.495 . S
C1422 C1421 1.392 . S
C1422 C1423 1.385 . S
C1422 C1424 1.478 . S
C1423 H1417 0.930 . S
C1423 C1419 1.400 . S
C1423 C1422 1.385 . S
C1424 C1422 1.478 . S
C1424 C1426 1.381 . S
C1424 C1430 1.383 . S
C1425 C1421 1.495 . S
C1425 H1431 0.959 . S
C1425 H1432 0.961 . S
C1425 H1433 0.960 . S
C1426 C1424 1.381 . S
C1426 C1427 1.394 . S
C1426 H1434 0.930 . S
C1427 C1426 1.394 . S
C1427 C1428 1.383 . S
C1427 H1435 0.929 . S
C1428 C1427 1.383 . S
C1428 C1429 1.377 . S
C1429 H1413 0.930 . S
C1429 C1428 1.377 . S
C1429 C1430 1.379 . S
C1430 H1414 0.931 . S
C1430 C1424 1.383 . S
C1430 C1429 1.379 . S
H1431 C1425 0.959 . S
H1432 C1425 0.961 . S
H1433 C1425 0.960 . S
H1434 C1426 0.930 . S
H1435 C1427 0.929 . S
H1436 C1444 0.929 . S
H1437 C1446 0.930 . S
H1438 C1448 0.930 . S
H1439 C1451 0.929 . S
H1440 C1454 0.930 . S
H1441 C1456 0.960 . S
H1442 C1456 0.960 . S
H1443 C1456 0.960 . S
C1444 H1436 0.929 . S
C1444 C1445 1.377 . S
C1444 C1446 1.384 . S
C1445 C1444 1.377 . S
C1445 C1451 1.390 . S
C1446 H1437 0.930 . S
C1446 C1444 1.384 . S
C1446 C1447 1.372 . S
C1447 C1446 1.372 . S
C1447 C1448 1.400 . S
C1447 C1452 1.490 . S
C1448 H1438 0.930 . S
C1448 C1447 1.400 . S
C1448 C1451 1.386 . S
H1449 C1465 0.930 . S
H1450 C1466 0.931 . S
C1451 H1439 0.929 . S
C1451 C1445 1.390 . S
C1451 C1448 1.386 . S
C1452 C1447 1.490 . S
C1452 C1454 1.395 . S
C1452 C1455 1.403 . S
H1453 C1459 0.930 . S
C1454 H1440 0.930 . S
C1454 C1452 1.395 . S
C1454 C1457 1.403 . S
C1455 C1452 1.403 . S
C1455 C1456 1.524 . S
C1455 C1459 1.400 . S
C1456 H1441 0.960 . S
C1456 H1442 0.960 . S
C1456 H1443 0.960 . S
C1456 C1455 1.524 . S
C1457 C1454 1.403 . S
C1457 C1458 1.392 . S
C1457 C1461 1.495 . S
C1458 C1457 1.392 . S
C1458 C1459 1.385 . S
C1458 C1460 1.478 . S
C1459 H1453 0.930 . S
C1459 C1455 1.400 . S
C1459 C1458 1.385 . S
C1460 C1458 1.478 . S
C1460 C1462 1.381 . S
C1460 C1466 1.383 . S
C1461 C1457 1.495 . S
C1461 H1467 0.959 . S
C1461 H1468 0.961 . S
C1461 H1469 0.960 . S
C1462 C1460 1.381 . S
C1462 C1463 1.394 . S
C1462 H1470 0.930 . S
C1463 C1462 1.394 . S
C1463 C1464 1.383 . S
C1463 H1471 0.929 . S
C1464 C1463 1.383 . S
C1464 C1465 1.377 . S
C1465 H1449 0.930 . S
C1465 C1464 1.377 . S
C1465 C1466 1.379 . S
C1466 H1450 0.931 . S
C1466 C1460 1.383 . S
C1466 C1465 1.379 . S
H1467 C1461 0.959 . S
H1468 C1461 0.961 . S
H1469 C1461 0.960 . S
H1470 C1462 0.930 . S
H1471 C1463 0.929 . S
H1472 C1480 0.929 . S
H1473 C1482 0.930 . S
H1474 C1484 0.930 . S
H1475 C1487 0.929 . S
H1476 C1490 0.930 . S
H1477 C1492 0.960 . S
H1478 C1492 0.960 . S
H1479 C1492 0.960 . S
C1480 H1472 0.929 . S
C1480 C1481 1.377 . S
C1480 C1482 1.384 . S
C1481 C1480 1.377 . S
C1481 C1487 1.390 . S
C1482 H1473 0.930 . S
C1482 C1480 1.384 . S
C1482 C1483 1.372 . S
C1483 C1482 1.372 . S
C1483 C1484 1.400 . S
C1483 C1488 1.490 . S
C1484 H1474 0.930 . S
C1484 C1483 1.400 . S
C1484 C1487 1.386 . S
H1485 C1501 0.930 . S
H1486 C1502 0.931 . S
C1487 H1475 0.929 . S
C1487 C1481 1.390 . S
C1487 C1484 1.386 . S
C1488 C1483 1.490 . S
C1488 C1490 1.395 . S
C1488 C1491 1.403 . S
H1489 C1495 0.930 . S
C1490 H1476 0.930 . S
C1490 C1488 1.395 . S
C1490 C1493 1.403 . S
C1491 C1488 1.403 . S
C1491 C1492 1.524 . S
C1491 C1495 1.400 . S
C1492 H1477 0.960 . S
C1492 H1478 0.960 . S
C1492 H1479 0.960 . S
C1492 C1491 1.524 . S
C1493 C1490 1.403 . S
C1493 C1494 1.392 . S
C1493 C1497 1.495 . S
C1494 C1493 1.392 . S
C1494 C1495 1.385 . S
C1494 C1496 1.478 . S
C1495 H1489 0.930 . S
C1495 C1491 1.400 . S
C1495 C1494 1.385 . S
C1496 C1494 1.478 . S
C1496 C1498 1.381 . S
C1496 C1502 1.383 . S
C1497 C1493 1.495 . S
C1497 H1503 0.959 . S
C1497 H1504 0.961 . S
C1497 H1505 0.960 . S
C1498 C1496 1.381 . S
C1498 C1499 1.394 . S
C1498 H1506 0.930 . S
C1499 C1498 1.394 . S
C1499 C1500 1.383 . S
C1499 H1507 0.929 . S
C1500 C1499 1.383 . S
C1500 C1501 1.377 . S
C1501 H1485 0.930 . S
C1501 C1500 1.377 . S
C1501 C1502 1.379 . S
C1502 H1486 0.931 . S
C1502 C1496 1.383 . S
C1502 C1501 1.379 . S
H1503 C1497 0.959 . S
H1504 C1497 0.961 . S
H1505 C1497 0.960 . S
H1506 C1498 0.930 . S
H1507 C1499 0.929 . S
H1508 C1516 0.929 . S
H1509 C1518 0.930 . S
H1510 C1520 0.930 . S
H1511 C1523 0.929 . S
H1512 C1526 0.930 . S
H1513 C1528 0.960 . S
H1514 C1528 0.960 . S
H1515 C1528 0.960 . S
C1516 H1508 0.929 . S
C1516 C1517 1.377 . S
C1516 C1518 1.384 . S
C1517 C1516 1.377 . S
C1517 C1523 1.390 . S
C1518 H1509 0.930 . S
C1518 C1516 1.384 . S
C1518 C1519 1.372 . S
C1519 C1518 1.372 . S
C1519 C1520 1.400 . S
C1519 C1524 1.490 . S
C1520 H1510 0.930 . S
C1520 C1519 1.400 . S
C1520 C1523 1.386 . S
H1521 C1537 0.930 . S
H1522 C1538 0.931 . S
C1523 H1511 0.929 . S
C1523 C1517 1.390 . S
C1523 C1520 1.386 . S
C1524 C1519 1.490 . S
C1524 C1526 1.395 . S
C1524 C1527 1.403 . S
H1525 C1531 0.930 . S
C1526 H1512 0.930 . S
C1526 C1524 1.395 . S
C1526 C1529 1.403 . S
C1527 C1524 1.403 . S
C1527 C1528 1.524 . S
C1527 C1531 1.400 . S
C1528 H1513 0.960 . S
C1528 H1514 0.960 . S
C1528 H1515 0.960 . S
C1528 C1527 1.524 . S
C1529 C1526 1.403 . S
C1529 C1530 1.392 . S
C1529 C1533 1.495 . S
C1530 C1529 1.392 . S
C1530 C1531 1.385 . S
C1530 C1532 1.478 . S
C1531 H1525 0.930 . S
C1531 C1527 1.400 . S
C1531 C1530 1.385 . S
C1532 C1530 1.478 . S
C1532 C1534 1.381 . S
C1532 C1538 1.383 . S
C1533 C1529 1.495 . S
C1533 H1539 0.959 . S
C1533 H1540 0.961 . S
C1533 H1541 0.960 . S
C1534 C1532 1.381 . S
C1534 C1535 1.394 . S
C1534 H1542 0.930 . S
C1535 C1534 1.394 . S
C1535 C1536 1.383 . S
C1535 H1543 0.929 . S
C1536 C1535 1.383 . S
C1536 C1537 1.377 . S
C1537 H1521 0.930 . S
C1537 C1536 1.377 . S
C1537 C1538 1.379 . S
C1538 H1522 0.931 . S
C1538 C1532 1.383 . S
C1538 C1537 1.379 . S
H1539 C1533 0.959 . S
H1540 C1533 0.961 . S
H1541 C1533 0.960 . S
H1542 C1534 0.930 . S
H1543 C1535 0.929 . S
H1544 C1552 0.929 . S
H1545 C1554 0.930 . S
H1546 C1556 0.930 . S
H1547 C1559 0.929 . S
H1548 C1562 0.930 . S
H1549 C1564 0.960 . S
H1550 C1564 0.960 . S
H1551 C1564 0.960 . S
C1552 H1544 0.929 . S
C1552 C1553 1.377 . S
C1552 C1554 1.384 . S
C1553 C1552 1.377 . S
C1553 C1559 1.390 . S
C1554 H1545 0.930 . S
C1554 C1552 1.384 . S
C1554 C1555 1.372 . S
C1555 C1554 1.372 . S
C1555 C1556 1.400 . S
C1555 C1560 1.490 . S
C1556 H1546 0.930 . S
C1556 C1555 1.400 . S
C1556 C1559 1.386 . S
H1557 C1573 0.930 . S
H1558 C1574 0.931 . S
C1559 H1547 0.929 . S
C1559 C1553 1.390 . S
C1559 C1556 1.386 . S
C1560 C1555 1.490 . S
C1560 C1562 1.395 . S
C1560 C1563 1.403 . S
H1561 C1567 0.930 . S
C1562 H1548 0.930 . S
C1562 C1560 1.395 . S
C1562 C1565 1.403 . S
C1563 C1560 1.403 . S
C1563 C1564 1.524 . S
C1563 C1567 1.400 . S
C1564 H1549 0.960 . S
C1564 H1550 0.960 . S
C1564 H1551 0.960 . S
C1564 C1563 1.524 . S
C1565 C1562 1.403 . S
C1565 C1566 1.392 . S
C1565 C1569 1.495 . S
C1566 C1565 1.392 . S
C1566 C1567 1.385 . S
C1566 C1568 1.478 . S
C1567 H1561 0.930 . S
C1567 C1563 1.400 . S
C1567 C1566 1.385 . S
C1568 C1566 1.478 . S
C1568 C1570 1.381 . S
C1568 C1574 1.383 . S
C1569 C1565 1.495 . S
C1569 H1575 0.959 . S
C1569 H1576 0.961 . S
C1569 H1577 0.960 . S
C1570 C1568 1.381 . S
C1570 C1571 1.394 . S
C1570 H1578 0.930 . S
C1571 C1570 1.394 . S
C1571 C1572 1.383 . S
C1571 H1579 0.929 . S
C1572 C1571 1.383 . S
C1572 C1573 1.377 . S
C1573 H1557 0.930 . S
C1573 C1572 1.377 . S
C1573 C1574 1.379 . S
C1574 H1558 0.931 . S
C1574 C1568 1.383 . S
C1574 C1573 1.379 . S
H1575 C1569 0.959 . S
H1576 C1569 0.961 . S
H1577 C1569 0.960 . S
H1578 C1570 0.930 . S
H1579 C1571 0.929 . S
H1580 C1588 0.929 . S
H1581 C1590 0.930 . S
H1582 C1592 0.930 . S
H1583 C1595 0.929 . S
H1584 C1598 0.930 . S
H1585 C1600 0.960 . S
H1586 C1600 0.960 . S
H1587 C1600 0.960 . S
C1588 H1580 0.929 . S
C1588 C1589 1.377 . S
C1588 C1590 1.384 . S
C1589 C1588 1.377 . S
C1589 C1595 1.390 . S
C1590 H1581 0.930 . S
C1590 C1588 1.384 . S
C1590 C1591 1.372 . S
C1591 C1590 1.372 . S
C1591 C1592 1.400 . S
C1591 C1596 1.490 . S
C1592 H1582 0.930 . S
C1592 C1591 1.400 . S
C1592 C1595 1.386 . S
H1593 C1609 0.930 . S
H1594 C1610 0.931 . S
C1595 H1583 0.929 . S
C1595 C1589 1.390 . S
C1595 C1592 1.386 . S
C1596 C1591 1.490 . S
C1596 C1598 1.395 . S
C1596 C1599 1.403 . S
H1597 C1603 0.930 . S
C1598 H1584 0.930 . S
C1598 C1596 1.395 . S
C1598 C1601 1.403 . S
C1599 C1596 1.403 . S
C1599 C1600 1.524 . S
C1599 C1603 1.400 . S
C1600 H1585 0.960 . S
C1600 H1586 0.960 . S
C1600 H1587 0.960 . S
C1600 C1599 1.524 . S
C1601 C1598 1.403 . S
C1601 C1602 1.392 . S
C1601 C1605 1.495 . S
C1602 C1601 1.392 . S
C1602 C1603 1.385 . S
C1602 C1604 1.478 . S
C1603 H1597 0.930 . S
C1603 C1599 1.400 . S
C1603 C1602 1.385 . S
C1604 C1602 1.478 . S
C1604 C1606 1.381 . S
C1604 C1610 1.383 . S
C1605 C1601 1.495 . S
C1605 H1611 0.959 . S
C1605 H1612 0.961 . S
C1605 H1613 0.960 . S
C1606 C1604 1.381 . S
C1606 C1607 1.394 . S
C1606 H1614 0.930 . S
C1607 C1606 1.394 . S
C1607 C1608 1.383 . S
C1607 H1615 0.929 . S
C1608 C1607 1.383 . S
C1608 C1609 1.377 . S
C1609 H1593 0.930 . S
C1609 C1608 1.377 . S
C1609 C1610 1.379 . S
C1610 H1594 0.931 . S
C1610 C1604 1.383 . S
C1610 C1609 1.379 . S
H1611 C1605 0.959 . S
H1612 C1605 0.961 . S
H1613 C1605 0.960 . S
H1614 C1606 0.930 . S
H1615 C1607 0.929 . S
H1616 C1624 0.929 . S
H1617 C1626 0.930 . S
H1618 C1628 0.930 . S
H1619 C1631 0.929 . S
H1620 C1634 0.930 . S
H1621 C1636 0.960 . S
H1622 C1636 0.960 . S
H1623 C1636 0.960 . S
C1624 H1616 0.929 . S
C1624 C1625 1.377 . S
C1624 C1626 1.384 . S
C1625 C1624 1.377 . S
C1625 C1631 1.390 . S
C1626 H1617 0.930 . S
C1626 C1624 1.384 . S
C1626 C1627 1.372 . S
C1627 C1626 1.372 . S
C1627 C1628 1.400 . S
C1627 C1632 1.490 . S
C1628 H1618 0.930 . S
C1628 C1627 1.400 . S
C1628 C1631 1.386 . S
H1629 C1645 0.930 . S
H1630 C1646 0.931 . S
C1631 H1619 0.929 . S
C1631 C1625 1.390 . S
C1631 C1628 1.386 . S
C1632 C1627 1.490 . S
C1632 C1634 1.395 . S
C1632 C1635 1.403 . S
H1633 C1639 0.930 . S
C1634 H1620 0.930 . S
C1634 C1632 1.395 . S
C1634 C1637 1.403 . S
C1635 C1632 1.403 . S
C1635 C1636 1.524 . S
C1635 C1639 1.400 . S
C1636 H1621 0.960 . S
C1636 H1622 0.960 . S
C1636 H1623 0.960 . S
C1636 C1635 1.524 . S
C1637 C1634 1.403 . S
C1637 C1638 1.392 . S
C1637 C1641 1.495 . S
C1638 C1637 1.392 . S
C1638 C1639 1.385 . S
C1638 C1640 1.478 . S
C1639 H1633 0.930 . S
C1639 C1635 1.400 . S
C1639 C1638 1.385 . S
C1640 C1638 1.478 . S
C1640 C1642 1.381 . S
C1640 C1646 1.383 . S
C1641 C1637 1.495 . S
C1641 H1647 0.959 . S
C1641 H1648 0.961 . S
C1641 H1649 0.960 . S
C1642 C1640 1.381 . S
C1642 C1643 1.394 . S
C1642 H1650 0.930 . S
C1643 C1642 1.394 . S
C1643 C1644 1.383 . S
C1643 H1651 0.929 . S
C1644 C1643 1.383 . S
C1644 C1645 1.377 . S
C1645 H1629 0.930 . S
C1645 C1644 1.377 . S
C1645 C1646 1.379 . S
C1646 H1630 0.931 . S
C1646 C1640 1.383 . S
C1646 C1645 1.379 . S
H1647 C1641 0.959 . S
H1648 C1641 0.961 . S
H1649 C1641 0.960 . S
H1650 C1642 0.930 . S
H1651 C1643 0.929 . S
H1652 C1660 0.929 . S
H1653 C1662 0.930 . S
H1654 C1664 0.930 . S
H1655 C1667 0.929 . S
H1656 C1670 0.930 . S
H1657 C1672 0.960 . S
H1658 C1672 0.960 . S
H1659 C1672 0.960 . S
C1660 H1652 0.929 . S
C1660 C1661 1.377 . S
C1660 C1662 1.384 . S
C1661 C1660 1.377 . S
C1661 C1667 1.390 . S
C1662 H1653 0.930 . S
C1662 C1660 1.384 . S
C1662 C1663 1.372 . S
C1663 C1662 1.372 . S
C1663 C1664 1.400 . S
C1663 C1668 1.490 . S
C1664 H1654 0.930 . S
C1664 C1663 1.400 . S
C1664 C1667 1.386 . S
H1665 C1681 0.930 . S
H1666 C1682 0.931 . S
C1667 H1655 0.929 . S
C1667 C1661 1.390 . S
C1667 C1664 1.386 . S
C1668 C1663 1.490 . S
C1668 C1670 1.395 . S
C1668 C1671 1.403 . S
H1669 C1675 0.930 . S
C1670 H1656 0.930 . S
C1670 C1668 1.395 . S
C1670 C1673 1.403 . S
C1671 C1668 1.403 . S
C1671 C1672 1.524 . S
C1671 C1675 1.400 . S
C1672 H1657 0.960 . S
C1672 H1658 0.960 . S
C1672 H1659 0.960 . S
C1672 C1671 1.524 . S
C1673 C1670 1.403 . S
C1673 C1674 1.392 . S
C1673 C1677 1.495 . S
C1674 C1673 1.392 . S
C1674 C1675 1.385 . S
C1674 C1676 1.478 . S
C1675 H1669 0.930 . S
C1675 C1671 1.400 . S
C1675 C1674 1.385 . S
C1676 C1674 1.478 . S
C1676 C1678 1.381 . S
C1676 C1682 1.383 . S
C1677 C1673 1.495 . S
C1677 H1683 0.959 . S
C1677 H1684 0.961 . S
C1677 H1685 0.960 . S
C1678 C1676 1.381 . S
C1678 C1679 1.394 . S
C1678 H1686 0.930 . S
C1679 C1678 1.394 . S
C1679 C1680 1.383 . S
C1679 H1687 0.929 . S
C1680 C1679 1.383 . S
C1680 C1681 1.377 . S
C1681 H1665 0.930 . S
C1681 C1680 1.377 . S
C1681 C1682 1.379 . S
C1682 H1666 0.931 . S
C1682 C1676 1.383 . S
C1682 C1681 1.379 . S
H1683 C1677 0.959 . S
H1684 C1677 0.961 . S
H1685 C1677 0.960 . S
H1686 C1678 0.930 . S
H1687 C1679 0.929 . S
H1688 C1696 0.929 . S
H1689 C1698 0.930 . S
H1690 C1700 0.930 . S
H1691 C1703 0.929 . S
H1692 C1706 0.930 . S
H1693 C1708 0.960 . S
H1694 C1708 0.960 . S
H1695 C1708 0.960 . S
C1696 H1688 0.929 . S
C1696 C1697 1.377 . S
C1696 C1698 1.384 . S
C1697 C1696 1.377 . S
C1697 C1703 1.390 . S
C1698 H1689 0.930 . S
C1698 C1696 1.384 . S
C1698 C1699 1.372 . S
C1699 C1698 1.372 . S
C1699 C1700 1.400 . S
C1699 C1704 1.490 . S
C1700 H1690 0.930 . S
C1700 C1699 1.400 . S
C1700 C1703 1.386 . S
H1701 C1717 0.930 . S
H1702 C1718 0.931 . S
C1703 H1691 0.929 . S
C1703 C1697 1.390 . S
C1703 C1700 1.386 . S
C1704 C1699 1.490 . S
C1704 C1706 1.395 . S
C1704 C1707 1.403 . S
H1705 C1711 0.930 . S
C1706 H1692 0.930 . S
C1706 C1704 1.395 . S
C1706 C1709 1.403 . S
C1707 C1704 1.403 . S
C1707 C1708 1.524 . S
C1707 C1711 1.400 . S
C1708 H1693 0.960 . S
C1708 H1694 0.960 . S
C1708 H1695 0.960 . S
C1708 C1707 1.524 . S
C1709 C1706 1.403 . S
C1709 C1710 1.392 . S
C1709 C1713 1.495 . S
C1710 C1709 1.392 . S
C1710 C1711 1.385 . S
C1710 C1712 1.478 . S
C1711 H1705 0.930 . S
C1711 C1707 1.400 . S
C1711 C1710 1.385 . S
C1712 C1710 1.478 . S
C1712 C1714 1.381 . S
C1712 C1718 1.383 . S
C1713 C1709 1.495 . S
C1713 H1719 0.959 . S
C1713 H1720 0.961 . S
C1713 H1721 0.960 . S
C1714 C1712 1.381 . S
C1714 C1715 1.394 . S
C1714 H1722 0.930 . S
C1715 C1714 1.394 . S
C1715 C1716 1.383 . S
C1715 H1723 0.929 . S
C1716 C1715 1.383 . S
C1716 C1717 1.377 . S
C1717 H1701 0.930 . S
C1717 C1716 1.377 . S
C1717 C1718 1.379 . S
C1718 H1702 0.931 . S
C1718 C1712 1.383 . S
C1718 C1717 1.379 . S
H1719 C1713 0.959 . S
H1720 C1713 0.961 . S
H1721 C1713 0.960 . S
H1722 C1714 0.930 . S
H1723 C1715 0.929 . S
H1724 C1732 0.929 . S
H1725 C1734 0.930 . S
H1726 C1736 0.930 . S
H1727 C1739 0.929 . S
H1728 C1742 0.930 . S
H1729 C1744 0.960 . S
H1730 C1744 0.960 . S
H1731 C1744 0.960 . S
C1732 H1724 0.929 . S
C1732 C1733 1.377 . S
C1732 C1734 1.384 . S
C1733 C1732 1.377 . S
C1733 C1739 1.390 . S
C1734 H1725 0.930 . S
C1734 C1732 1.384 . S
C1734 C1735 1.372 . S
C1735 C1734 1.372 . S
C1735 C1736 1.400 . S
C1735 C1740 1.490 . S
C1736 H1726 0.930 . S
C1736 C1735 1.400 . S
C1736 C1739 1.386 . S
H1737 C1753 0.930 . S
H1738 C1754 0.931 . S
C1739 H1727 0.929 . S
C1739 C1733 1.390 . S
C1739 C1736 1.386 . S
C1740 C1735 1.490 . S
C1740 C1742 1.395 . S
C1740 C1743 1.403 . S
H1741 C1747 0.930 . S
C1742 H1728 0.930 . S
C1742 C1740 1.395 . S
C1742 C1745 1.403 . S
C1743 C1740 1.403 . S
C1743 C1744 1.524 . S
C1743 C1747 1.400 . S
C1744 H1729 0.960 . S
C1744 H1730 0.960 . S
C1744 H1731 0.960 . S
C1744 C1743 1.524 . S
C1745 C1742 1.403 . S
C1745 C1746 1.392 . S
C1745 C1749 1.495 . S
C1746 C1745 1.392 . S
C1746 C1747 1.385 . S
C1746 C1748 1.478 . S
C1747 H1741 0.930 . S
C1747 C1743 1.400 . S
C1747 C1746 1.385 . S
C1748 C1746 1.478 . S
C1748 C1750 1.381 . S
C1748 C1754 1.383 . S
C1749 C1745 1.495 . S
C1749 H1755 0.959 . S
C1749 H1756 0.961 . S
C1749 H1757 0.960 . S
C1750 C1748 1.381 . S
C1750 C1751 1.394 . S
C1750 H1758 0.930 . S
C1751 C1750 1.394 . S
C1751 C1752 1.383 . S
C1751 H1759 0.929 . S
C1752 C1751 1.383 . S
C1752 C1753 1.377 . S
C1753 H1737 0.930 . S
C1753 C1752 1.377 . S
C1753 C1754 1.379 . S
C1754 H1738 0.931 . S
C1754 C1748 1.383 . S
C1754 C1753 1.379 . S
H1755 C1749 0.959 . S
H1756 C1749 0.961 . S
H1757 C1749 0.960 . S
H1758 C1750 0.930 . S
H1759 C1751 0.929 . S
H1760 C1768 0.929 . S
H1761 C1770 0.930 . S
H1762 C1772 0.930 . S
H1763 C1775 0.929 . S
H1764 C1778 0.930 . S
H1765 C1780 0.960 . S
H1766 C1780 0.960 . S
H1767 C1780 0.960 . S
C1768 H1760 0.929 . S
C1768 C1769 1.377 . S
C1768 C1770 1.384 . S
C1769 C1768 1.377 . S
C1769 C1775 1.390 . S
C1770 H1761 0.930 . S
C1770 C1768 1.384 . S
C1770 C1771 1.372 . S
C1771 C1770 1.372 . S
C1771 C1772 1.400 . S
C1771 C1776 1.490 . S
C1772 H1762 0.930 . S
C1772 C1771 1.400 . S
C1772 C1775 1.386 . S
H1773 C1789 0.930 . S
H1774 C1790 0.931 . S
C1775 H1763 0.929 . S
C1775 C1769 1.390 . S
C1775 C1772 1.386 . S
C1776 C1771 1.490 . S
C1776 C1778 1.395 . S
C1776 C1779 1.403 . S
H1777 C1783 0.930 . S
C1778 H1764 0.930 . S
C1778 C1776 1.395 . S
C1778 C1781 1.403 . S
C1779 C1776 1.403 . S
C1779 C1780 1.524 . S
C1779 C1783 1.400 . S
C1780 H1765 0.960 . S
C1780 H1766 0.960 . S
C1780 H1767 0.960 . S
C1780 C1779 1.524 . S
C1781 C1778 1.403 . S
C1781 C1782 1.392 . S
C1781 C1785 1.495 . S
C1782 C1781 1.392 . S
C1782 C1783 1.385 . S
C1782 C1784 1.478 . S
C1783 H1777 0.930 . S
C1783 C1779 1.400 . S
C1783 C1782 1.385 . S
C1784 C1782 1.478 . S
C1784 C1786 1.381 . S
C1784 C1790 1.383 . S
C1785 C1781 1.495 . S
C1785 H1791 0.959 . S
C1785 H1792 0.961 . S
C1785 H1793 0.960 . S
C1786 C1784 1.381 . S
C1786 C1787 1.394 . S
C1786 H1794 0.930 . S
C1787 C1786 1.394 . S
C1787 C1788 1.383 . S
C1787 H1795 0.929 . S
C1788 C1787 1.383 . S
C1788 C1789 1.377 . S
C1789 H1773 0.930 . S
C1789 C1788 1.377 . S
C1789 C1790 1.379 . S
C1790 H1774 0.931 . S
C1790 C1784 1.383 . S
C1790 C1789 1.379 . S
H1791 C1785 0.959 . S
H1792 C1785 0.961 . S
H1793 C1785 0.960 . S
H1794 C1786 0.930 . S
H1795 C1787 0.929 . S
H1796 C1804 0.929 . S
H1797 C1806 0.930 . S
H1798 C1808 0.930 . S
H1799 C1811 0.929 . S
H1800 C1814 0.930 . S
H1801 C1816 0.960 . S
H1802 C1816 0.960 . S
H1803 C1816 0.960 . S
C1804 H1796 0.929 . S
C1804 C1805 1.377 . S
C1804 C1806 1.384 . S
C1805 C1804 1.377 . S
C1805 C1811 1.390 . S
C1806 H1797 0.930 . S
C1806 C1804 1.384 . S
C1806 C1807 1.372 . S
C1807 C1806 1.372 . S
C1807 C1808 1.400 . S
C1807 C1812 1.490 . S
C1808 H1798 0.930 . S
C1808 C1807 1.400 . S
C1808 C1811 1.386 . S
H1809 C1825 0.930 . S
H1810 C1826 0.931 . S
C1811 H1799 0.929 . S
C1811 C1805 1.390 . S
C1811 C1808 1.386 . S
C1812 C1807 1.490 . S
C1812 C1814 1.395 . S
C1812 C1815 1.403 . S
H1813 C1819 0.930 . S
C1814 H1800 0.930 . S
C1814 C1812 1.395 . S
C1814 C1817 1.403 . S
C1815 C1812 1.403 . S
C1815 C1816 1.524 . S
C1815 C1819 1.400 . S
C1816 H1801 0.960 . S
C1816 H1802 0.960 . S
C1816 H1803 0.960 . S
C1816 C1815 1.524 . S
C1817 C1814 1.403 . S
C1817 C1818 1.392 . S
C1817 C1821 1.495 . S
C1818 C1817 1.392 . S
C1818 C1819 1.385 . S
C1818 C1820 1.478 . S
C1819 H1813 0.930 . S
C1819 C1815 1.400 . S
C1819 C1818 1.385 . S
C1820 C1818 1.478 . S
C1820 C1822 1.381 . S
C1820 C1826 1.383 . S
C1821 C1817 1.495 . S
C1821 H1827 0.959 . S
C1821 H1828 0.961 . S
C1821 H1829 0.960 . S
C1822 C1820 1.381 . S
C1822 C1823 1.394 . S
C1822 H1830 0.930 . S
C1823 C1822 1.394 . S
C1823 C1824 1.383 . S
C1823 H1831 0.929 . S
C1824 C1823 1.383 . S
C1824 C1825 1.377 . S
C1825 H1809 0.930 . S
C1825 C1824 1.377 . S
C1825 C1826 1.379 . S
C1826 H1810 0.931 . S
C1826 C1820 1.383 . S
C1826 C1825 1.379 . S
H1827 C1821 0.959 . S
H1828 C1821 0.961 . S
H1829 C1821 0.960 . S
H1830 C1822 0.930 . S
H1831 C1823 0.929 . S
H1832 C1840 0.929 . S
H1833 C1842 0.930 . S
H1834 C1844 0.930 . S
H1835 C1847 0.929 . S
H1836 C1850 0.930 . S
H1837 C1852 0.960 . S
H1838 C1852 0.960 . S
H1839 C1852 0.960 . S
C1840 H1832 0.929 . S
C1840 C1841 1.377 . S
C1840 C1842 1.384 . S
C1841 C1840 1.377 . S
C1841 C1847 1.390 . S
C1842 H1833 0.930 . S
C1842 C1840 1.384 . S
C1842 C1843 1.372 . S
C1843 C1842 1.372 . S
C1843 C1844 1.400 . S
C1843 C1848 1.490 . S
C1844 H1834 0.930 . S
C1844 C1843 1.400 . S
C1844 C1847 1.386 . S
H1845 C1861 0.930 . S
H1846 C1862 0.931 . S
C1847 H1835 0.929 . S
C1847 C1841 1.390 . S
C1847 C1844 1.386 . S
C1848 C1843 1.490 . S
C1848 C1850 1.395 . S
C1848 C1851 1.403 . S
H1849 C1855 0.930 . S
C1850 H1836 0.930 . S
C1850 C1848 1.395 . S
C1850 C1853 1.403 . S
C1851 C1848 1.403 . S
C1851 C1852 1.524 . S
C1851 C1855 1.400 . S
C1852 H1837 0.960 . S
C1852 H1838 0.960 . S
C1852 H1839 0.960 . S
C1852 C1851 1.524 . S
C1853 C1850 1.403 . S
C1853 C1854 1.392 . S
C1853 C1857 1.495 . S
C1854 C1853 1.392 . S
C1854 C1855 1.385 . S
C1854 C1856 1.478 . S
C1855 H1849 0.930 . S
C1855 C1851 1.400 . S
C1855 C1854 1.385 . S
C1856 C1854 1.478 . S
C1856 C1858 1.381 . S
C1856 C1862 1.383 . S
C1857 C1853 1.495 . S
C1857 H1863 0.959 . S
C1857 H1864 0.961 . S
C1857 H1865 0.960 . S
C1858 C1856 1.381 . S
C1858 C1859 1.394 . S
C1858 H1866 0.930 . S
C1859 C1858 1.394 . S
C1859 C1860 1.383 . S
C1859 H1867 0.929 . S
C1860 C1859 1.383 . S
C1860 C1861 1.377 . S
C1861 H1845 0.930 . S
C1861 C1860 1.377 . S
C1861 C1862 1.379 . S
C1862 H1846 0.931 . S
C1862 C1856 1.383 . S
C1862 C1861 1.379 . S
H1863 C1857 0.959 . S
H1864 C1857 0.961 . S
H1865 C1857 0.960 . S
H1866 C1858 0.930 . S
H1867 C1859 0.929 . S
H1868 C1876 0.929 . S
H1869 C1878 0.930 . S
H1870 C1880 0.930 . S
H1871 C1883 0.929 . S
H1872 C1886 0.930 . S
H1873 C1888 0.960 . S
H1874 C1888 0.960 . S
H1875 C1888 0.960 . S
C1876 H1868 0.929 . S
C1876 C1877 1.377 . S
C1876 C1878 1.384 . S
C1877 C1876 1.377 . S
C1877 C1883 1.390 . S
C1878 H1869 0.930 . S
C1878 C1876 1.384 . S
C1878 C1879 1.372 . S
C1879 C1878 1.372 . S
C1879 C1880 1.400 . S
C1879 C1884 1.490 . S
C1880 H1870 0.930 . S
C1880 C1879 1.400 . S
C1880 C1883 1.386 . S
H1881 C1897 0.930 . S
H1882 C1898 0.931 . S
C1883 H1871 0.929 . S
C1883 C1877 1.390 . S
C1883 C1880 1.386 . S
C1884 C1879 1.490 . S
C1884 C1886 1.395 . S
C1884 C1887 1.403 . S
H1885 C1891 0.930 . S
C1886 H1872 0.930 . S
C1886 C1884 1.395 . S
C1886 C1889 1.403 . S
C1887 C1884 1.403 . S
C1887 C1888 1.524 . S
C1887 C1891 1.400 . S
C1888 H1873 0.960 . S
C1888 H1874 0.960 . S
C1888 H1875 0.960 . S
C1888 C1887 1.524 . S
C1889 C1886 1.403 . S
C1889 C1890 1.392 . S
C1889 C1893 1.495 . S
C1890 C1889 1.392 . S
C1890 C1891 1.385 . S
C1890 C1892 1.478 . S
C1891 H1885 0.930 . S
C1891 C1887 1.400 . S
C1891 C1890 1.385 . S
C1892 C1890 1.478 . S
C1892 C1894 1.381 . S
C1892 C1898 1.383 . S
C1893 C1889 1.495 . S
C1893 H1899 0.959 . S
C1893 H1900 0.961 . S
C1893 H1901 0.960 . S
C1894 C1892 1.381 . S
C1894 C1895 1.394 . S
C1894 H1902 0.930 . S
C1895 C1894 1.394 . S
C1895 C1896 1.383 . S
C1895 H1903 0.929 . S
C1896 C1895 1.383 . S
C1896 C1897 1.377 . S
C1897 H1881 0.930 . S
C1897 C1896 1.377 . S
C1897 C1898 1.379 . S
C1898 H1882 0.931 . S
C1898 C1892 1.383 . S
C1898 C1897 1.379 . S
H1899 C1893 0.959 . S
H1900 C1893 0.961 . S
H1901 C1893 0.960 . S
H1902 C1894 0.930 . S
H1903 C1895 0.929 . S
H1904 C1912 0.929 . S
H1905 C1914 0.930 . S
H1906 C1916 0.930 . S
H1907 C1919 0.929 . S
H1908 C1922 0.930 . S
H1909 C1924 0.960 . S
H1910 C1924 0.960 . S
H1911 C1924 0.960 . S
C1912 H1904 0.929 . S
C1912 C1913 1.377 . S
C1912 C1914 1.384 . S
C1913 C1912 1.377 . S
C1913 C1919 1.390 . S
C1914 H1905 0.930 . S
C1914 C1912 1.384 . S
C1914 C1915 1.372 . S
C1915 C1914 1.372 . S
C1915 C1916 1.400 . S
C1915 C1920 1.490 . S
C1916 H1906 0.930 . S
C1916 C1915 1.400 . S
C1916 C1919 1.386 . S
H1917 C1933 0.930 . S
H1918 C1934 0.931 . S
C1919 H1907 0.929 . S
C1919 C1913 1.390 . S
C1919 C1916 1.386 . S
C1920 C1915 1.490 . S
C1920 C1922 1.395 . S
C1920 C1923 1.403 . S
H1921 C1927 0.930 . S
C1922 H1908 0.930 . S
C1922 C1920 1.395 . S
C1922 C1925 1.403 . S
C1923 C1920 1.403 . S
C1923 C1924 1.524 . S
C1923 C1927 1.400 . S
C1924 H1909 0.960 . S
C1924 H1910 0.960 . S
C1924 H1911 0.960 . S
C1924 C1923 1.524 . S
C1925 C1922 1.403 . S
C1925 C1926 1.392 . S
C1925 C1929 1.495 . S
C1926 C1925 1.392 . S
C1926 C1927 1.385 . S
C1926 C1928 1.478 . S
C1927 H1921 0.930 . S
C1927 C1923 1.400 . S
C1927 C1926 1.385 . S
C1928 C1926 1.478 . S
C1928 C1930 1.381 . S
C1928 C1934 1.383 . S
C1929 C1925 1.495 . S
C1929 H1935 0.959 . S
C1929 H1936 0.961 . S
C1929 H1937 0.960 . S
C1930 C1928 1.381 . S
C1930 C1931 1.394 . S
C1930 H1938 0.930 . S
C1931 C1930 1.394 . S
C1931 C1932 1.383 . S
C1931 H1939 0.929 . S
C1932 C1931 1.383 . S
C1932 C1933 1.377 . S
C1933 H1917 0.930 . S
C1933 C1932 1.377 . S
C1933 C1934 1.379 . S
C1934 H1918 0.931 . S
C1934 C1928 1.383 . S
C1934 C1933 1.379 . S
H1935 C1929 0.959 . S
H1936 C1929 0.961 . S
H1937 C1929 0.960 . S
H1938 C1930 0.930 . S
H1939 C1931 0.929 . S
H1940 C1948 0.929 . S
H1941 C1950 0.930 . S
H1942 C1952 0.930 . S
H1943 C1955 0.929 . S
H1944 C1958 0.930 . S
H1945 C1960 0.960 . S
H1946 C1960 0.960 . S
H1947 C1960 0.960 . S
C1948 H1940 0.929 . S
C1948 C1949 1.377 . S
C1948 C1950 1.384 . S
C1949 C1948 1.377 . S
C1949 C1955 1.390 . S
C1950 H1941 0.930 . S
C1950 C1948 1.384 . S
C1950 C1951 1.372 . S
C1951 C1950 1.372 . S
C1951 C1952 1.400 . S
C1951 C1956 1.490 . S
C1952 H1942 0.930 . S
C1952 C1951 1.400 . S
C1952 C1955 1.386 . S
H1953 C1969 0.930 . S
H1954 C1970 0.931 . S
C1955 H1943 0.929 . S
C1955 C1949 1.390 . S
C1955 C1952 1.386 . S
C1956 C1951 1.490 . S
C1956 C1958 1.395 . S
C1956 C1959 1.403 . S
H1957 C1963 0.930 . S
C1958 H1944 0.930 . S
C1958 C1956 1.395 . S
C1958 C1961 1.403 . S
C1959 C1956 1.403 . S
C1959 C1960 1.524 . S
C1959 C1963 1.400 . S
C1960 H1945 0.960 . S
C1960 H1946 0.960 . S
C1960 H1947 0.960 . S
C1960 C1959 1.524 . S
C1961 C1958 1.403 . S
C1961 C1962 1.392 . S
C1961 C1965 1.495 . S
C1962 C1961 1.392 . S
C1962 C1963 1.385 . S
C1962 C1964 1.478 . S
C1963 H1957 0.930 . S
C1963 C1959 1.400 . S
C1963 C1962 1.385 . S
C1964 C1962 1.478 . S
C1964 C1966 1.381 . S
C1964 C1970 1.383 . S
C1965 C1961 1.495 . S
C1965 H1971 0.959 . S
C1965 H1972 0.961 . S
C1965 H1973 0.960 . S
C1966 C1964 1.381 . S
C1966 C1967 1.394 . S
C1966 H1974 0.930 . S
C1967 C1966 1.394 . S
C1967 C1968 1.383 . S
C1967 H1975 0.929 . S
C1968 C1967 1.383 . S
C1968 C1969 1.377 . S
C1969 H1953 0.930 . S
C1969 C1968 1.377 . S
C1969 C1970 1.379 . S
C1970 H1954 0.931 . S
C1970 C1964 1.383 . S
C1970 C1969 1.379 . S
H1971 C1965 0.959 . S
H1972 C1965 0.961 . S
H1973 C1965 0.960 . S
H1974 C1966 0.930 . S
H1975 C1967 0.929 . S
H1976 C1984 0.929 . S
H1977 C1986 0.930 . S
H1978 C1988 0.930 . S
H1979 C1991 0.929 . S
H1980 C1994 0.930 . S
H1981 C1996 0.960 . S
H1982 C1996 0.960 . S
H1983 C1996 0.960 . S
C1984 H1976 0.929 . S
C1984 C1985 1.377 . S
C1984 C1986 1.384 . S
C1985 C1984 1.377 . S
C1985 C1991 1.390 . S
C1986 H1977 0.930 . S
C1986 C1984 1.384 . S
C1986 C1987 1.372 . S
C1987 C1986 1.372 . S
C1987 C1988 1.400 . S
C1987 C1992 1.490 . S
C1988 H1978 0.930 . S
C1988 C1987 1.400 . S
C1988 C1991 1.386 . S
H1989 C2005 0.930 . S
H1990 C2006 0.931 . S
C1991 H1979 0.929 . S
C1991 C1985 1.390 . S
C1991 C1988 1.386 . S
C1992 C1987 1.490 . S
C1992 C1994 1.395 . S
C1992 C1995 1.403 . S
H1993 C1999 0.930 . S
C1994 H1980 0.930 . S
C1994 C1992 1.395 . S
C1994 C1997 1.403 . S
C1995 C1992 1.403 . S
C1995 C1996 1.524 . S
C1995 C1999 1.400 . S
C1996 H1981 0.960 . S
C1996 H1982 0.960 . S
C1996 H1983 0.960 . S
C1996 C1995 1.524 . S
C1997 C1994 1.403 . S
C1997 C1998 1.392 . S
C1997 C2001 1.495 . S
C1998 C1997 1.392 . S
C1998 C1999 1.385 . S
C1998 C2000 1.478 . S
C1999 H1993 0.930 . S
C1999 C1995 1.400 . S
C1999 C1998 1.385 . S
C2000 C1998 1.478 . S
C2000 C2002 1.381 . S
C2000 C2006 1.383 . S
C2001 C1997 1.495 . S
C2001 H2007 0.959 . S
C2001 H2008 0.961 . S
C2001 H2009 0.960 . S
C2002 C2000 1.381 . S
C2002 C2003 1.394 . S
C2002 H2010 0.930 . S
C2003 C2002 1.394 . S
C2003 C2004 1.383 . S
C2003 H2011 0.929 . S
C2004 C2003 1.383 . S
C2004 C2005 1.377 . S
C2005 H1989 0.930 . S
C2005 C2004 1.377 . S
C2005 C2006 1.379 . S
C2006 H1990 0.931 . S
C2006 C2000 1.383 . S
C2006 C2005 1.379 . S
H2007 C2001 0.959 . S
H2008 C2001 0.961 . S
H2009 C2001 0.960 . S
H2010 C2002 0.930 . S
H2011 C2003 0.929 . S
H2012 C2020 0.929 . S
H2013 C2022 0.930 . S
H2014 C2024 0.930 . S
H2015 C2027 0.929 . S
H2016 C2030 0.930 . S
H2017 C2032 0.960 1_556 S
H2018 C2032 0.960 . S
H2019 C2032 0.960 . S
C2020 H2012 0.929 . S
C2020 C2021 1.377 . S
C2020 C2022 1.384 . S
C2021 C2020 1.377 . S
C2021 C2027 1.390 . S
C2022 H2013 0.930 . S
C2022 C2020 1.384 . S
C2022 C2023 1.372 . S
C2023 C2022 1.372 . S
C2023 C2024 1.400 . S
C2023 C2028 1.490 . S
C2024 H2014 0.930 . S
C2024 C2023 1.400 . S
C2024 C2027 1.386 . S
H2025 C2041 0.930 . S
H2026 C2042 0.931 . S
C2027 H2015 0.929 . S
C2027 C2021 1.390 . S
C2027 C2024 1.386 . S
C2028 C2023 1.490 . S
C2028 C2030 1.395 . S
C2028 C2031 1.403 . S
H2029 C2035 0.930 . S
C2030 H2016 0.930 . S
C2030 C2028 1.395 . S
C2030 C2033 1.403 1_554 S
C2031 C2028 1.403 . S
C2031 C2032 1.524 . S
C2031 C2035 1.400 1_554 S
C2032 H2017 0.960 1_554 S
C2032 H2018 0.960 . S
C2032 H2019 0.960 . S
C2032 C2031 1.524 . S
C2033 C2030 1.403 1_556 S
C2033 C2034 1.392 . S
C2033 C2037 1.495 . S
C2034 C2033 1.392 . S
C2034 C2035 1.385 . S
C2034 C2036 1.478 . S
C2035 H2029 0.930 . S
C2035 C2031 1.400 1_556 S
C2035 C2034 1.385 . S
C2036 C2034 1.478 . S
C2036 C2038 1.381 . S
C2036 C2042 1.383 . S
C2037 C2033 1.495 . S
C2037 H2043 0.959 1_556 S
C2037 H2044 0.961 . S
C2037 H2045 0.960 . S
C2038 C2036 1.381 . S
C2038 C2039 1.394 . S
C2038 H2046 0.930 . S
C2039 C2038 1.394 . S
C2039 C2040 1.383 . S
C2039 H2047 0.929 . S
C2040 C2039 1.383 . S
C2040 C2041 1.377 . S
C2041 H2025 0.930 . S
C2041 C2040 1.377 . S
C2041 C2042 1.379 . S
C2042 H2026 0.931 . S
C2042 C2036 1.383 . S
C2042 C2041 1.379 . S
H2043 C2037 0.959 1_554 S
H2044 C2037 0.961 . S
H2045 C2037 0.960 . S
H2046 C2038 0.930 . S
H2047 C2039 0.929 . S
H2048 C2056 0.929 . S
H2049 C2058 0.930 . S
H2050 C2060 0.930 . S
H2051 C2063 0.929 . S
H2052 C2066 0.930 . S
H2053 C2068 0.960 . S
H2054 C2068 0.960 . S
H2055 C2068 0.960 . S
C2056 H2048 0.929 . S
C2056 C2057 1.377 . S
C2056 C2058 1.384 . S
C2057 C2056 1.377 . S
C2057 C2063 1.390 . S
C2058 H2049 0.930 . S
C2058 C2056 1.384 . S
C2058 C2059 1.372 . S
C2059 C2058 1.372 . S
C2059 C2060 1.400 . S
C2059 C2064 1.490 . S
C2060 H2050 0.930 . S
C2060 C2059 1.400 . S
C2060 C2063 1.386 . S
H2061 C2077 0.930 . S
H2062 C2078 0.931 . S
C2063 H2051 0.929 . S
C2063 C2057 1.390 . S
C2063 C2060 1.386 . S
C2064 C2059 1.490 . S
C2064 C2066 1.395 . S
C2064 C2067 1.403 . S
H2065 C2071 0.930 . S
C2066 H2052 0.930 . S
C2066 C2064 1.395 . S
C2066 C2069 1.403 . S
C2067 C2064 1.403 . S
C2067 C2068 1.524 . S
C2067 C2071 1.400 . S
C2068 H2053 0.960 . S
C2068 H2054 0.960 . S
C2068 H2055 0.960 . S
C2068 C2067 1.524 . S
C2069 C2066 1.403 . S
C2069 C2070 1.392 . S
C2069 C2073 1.495 . S
C2070 C2069 1.392 . S
C2070 C2071 1.385 . S
C2070 C2072 1.478 . S
C2071 H2065 0.930 . S
C2071 C2067 1.400 . S
C2071 C2070 1.385 . S
C2072 C2070 1.478 . S
C2072 C2074 1.381 . S
C2072 C2078 1.383 . S
C2073 C2069 1.495 . S
C2073 H2079 0.959 . S
C2073 H2080 0.961 . S
C2073 H2081 0.960 . S
C2074 C2072 1.381 . S
C2074 C2075 1.394 . S
C2074 H2082 0.930 . S
C2075 C2074 1.394 . S
C2075 C2076 1.383 . S
C2075 H2083 0.929 . S
C2076 C2075 1.383 . S
C2076 C2077 1.377 . S
C2077 H2061 0.930 . S
C2077 C2076 1.377 . S
C2077 C2078 1.379 . S
C2078 H2062 0.931 . S
C2078 C2072 1.383 . S
C2078 C2077 1.379 . S
H2079 C2073 0.959 . S
H2080 C2073 0.961 . S
H2081 C2073 0.960 . S
H2082 C2074 0.930 . S
H2083 C2075 0.929 . S
H2084 C2092 0.929 . S
H2085 C2094 0.930 . S
H2086 C2096 0.930 . S
H2087 C2099 0.929 . S
H2088 C2102 0.930 . S
H2089 C2104 0.920 1_556 S
H2090 C2104 0.960 . S
H2091 C2104 0.960 . S
C2092 H2084 0.929 . S
C2092 C2093 1.377 . S
C2092 C2094 1.384 . S
C2093 C2092 1.377 . S
C2093 C2099 1.390 . S
C2094 H2085 0.930 . S
C2094 C2092 1.384 . S
C2094 C2095 1.372 . S
C2095 C2094 1.372 . S
C2095 C2096 1.400 . S
C2095 C2100 1.490 . S
C2096 H2086 0.930 . S
C2096 C2095 1.400 . S
C2096 C2099 1.386 . S
H2097 C2113 0.930 . S
H2098 C2114 0.931 . S
C2099 H2087 0.929 . S
C2099 C2093 1.390 . S
C2099 C2096 1.386 . S
C2100 C2095 1.490 . S
C2100 C2102 1.395 . S
C2100 C2103 1.403 . S
H2101 C2107 0.930 . S
C2102 H2088 0.930 . S
C2102 C2100 1.395 . S
C2102 C2105 1.403 1_554 S
C2103 C2100 1.403 . S
C2103 C2104 1.524 . S
C2103 C2107 1.400 1_554 S
C2104 H2089 0.920 1_554 S
C2104 H2090 0.960 . S
C2104 H2091 0.960 . S
C2104 C2103 1.524 . S
C2105 C2102 1.403 1_556 S
C2105 C2106 1.392 . S
C2105 C2109 1.495 . S
C2106 C2105 1.392 . S
C2106 C2107 1.385 . S
C2106 C2108 1.478 . S
C2107 H2101 0.930 . S
C2107 C2103 1.400 1_556 S
C2107 C2106 1.385 . S
C2108 C2106 1.478 . S
C2108 C2110 1.381 . S
C2108 C2114 1.383 . S
C2109 C2105 1.495 . S
C2109 H2115 0.960 1_556 S
C2109 H2116 0.961 . S
C2109 H2117 0.960 . S
C2110 C2108 1.381 . S
C2110 C2111 1.394 . S
C2110 H2118 0.930 . S
C2111 C2110 1.394 . S
C2111 C2112 1.383 . S
C2111 H2119 0.929 . S
C2112 C2111 1.383 . S
C2112 C2113 1.377 . S
C2113 H2097 0.930 . S
C2113 C2112 1.377 . S
C2113 C2114 1.379 . S
C2114 H2098 0.931 . S
C2114 C2108 1.383 . S
C2114 C2113 1.379 . S
H2115 C2109 0.960 1_554 S
H2116 C2109 0.961 . S
H2117 C2109 0.960 . S
H2118 C2110 0.930 . S
H2119 C2111 0.929 . S
H2120 C2128 0.929 . S
H2121 C2130 0.930 . S
H2122 C2132 0.930 . S
H2123 C2135 0.929 . S
H2124 C2138 0.930 . S
H2125 C2140 0.960 . S
H2126 C2140 0.960 . S
H2127 C2140 0.960 . S
C2128 H2120 0.929 . S
C2128 C2129 1.377 . S
C2128 C2130 1.384 . S
C2129 C2128 1.377 . S
C2129 C2135 1.390 . S
C2130 H2121 0.930 . S
C2130 C2128 1.384 . S
C2130 C2131 1.372 . S
C2131 C2130 1.372 . S
C2131 C2132 1.400 . S
C2131 C2136 1.490 . S
C2132 H2122 0.930 . S
C2132 C2131 1.400 . S
C2132 C2135 1.386 . S
H2133 C2149 0.930 . S
H2134 C2150 0.931 . S
C2135 H2123 0.929 . S
C2135 C2129 1.390 . S
C2135 C2132 1.386 . S
C2136 C2131 1.490 . S
C2136 C2138 1.395 . S
C2136 C2139 1.403 . S
H2137 C2143 0.930 . S
C2138 H2124 0.930 . S
C2138 C2136 1.395 . S
C2138 C2141 1.403 . S
C2139 C2136 1.403 . S
C2139 C2140 1.524 . S
C2139 C2143 1.400 . S
C2140 H2125 0.960 . S
C2140 H2126 0.960 . S
C2140 H2127 0.960 . S
C2140 C2139 1.524 . S
C2141 C2138 1.403 . S
C2141 C2142 1.392 . S
C2141 C2145 1.495 . S
C2142 C2141 1.392 . S
C2142 C2143 1.385 . S
C2142 C2144 1.478 . S
C2143 H2137 0.930 . S
C2143 C2139 1.400 . S
C2143 C2142 1.385 . S
C2144 C2142 1.478 . S
C2144 C2146 1.381 . S
C2144 C2150 1.383 . S
C2145 C2141 1.495 . S
C2145 H2151 0.959 . S
C2145 H2152 0.961 . S
C2145 H2153 0.960 . S
C2146 C2144 1.381 . S
C2146 C2147 1.394 . S
C2146 H2154 0.930 . S
C2147 C2146 1.394 . S
C2147 C2148 1.383 . S
C2147 H2155 0.929 . S
C2148 C2147 1.383 . S
C2148 C2149 1.377 . S
C2149 H2133 0.930 . S
C2149 C2148 1.377 . S
C2149 C2150 1.379 . S
C2150 H2134 0.931 . S
C2150 C2144 1.383 . S
C2150 C2149 1.379 . S
H2151 C2145 0.959 . S
H2152 C2145 0.961 . S
H2153 C2145 0.960 . S
H2154 C2146 0.930 . S
H2155 C2147 0.929 . S
H2156 C2164 0.929 . S
H2157 C2166 0.930 . S
H2158 C2168 0.930 . S
H2159 C2171 0.929 . S
H2160 C2174 0.930 . S
H2161 C2176 0.960 . S
H2162 C2176 0.960 . S
H2163 C2176 0.960 . S
C2164 H2156 0.929 . S
C2164 C2165 1.377 . S
C2164 C2166 1.384 . S
C2165 C2164 1.377 . S
C2165 C2171 1.390 . S
C2166 H2157 0.930 . S
C2166 C2164 1.384 . S
C2166 C2167 1.372 . S
C2167 C2166 1.372 . S
C2167 C2168 1.400 . S
C2167 C2172 1.490 . S
C2168 H2158 0.930 . S
C2168 C2167 1.400 . S
C2168 C2171 1.386 . S
H2169 C2185 0.930 . S
H2170 C2186 0.931 . S
C2171 H2159 0.929 . S
C2171 C2165 1.390 . S
C2171 C2168 1.386 . S
C2172 C2167 1.490 . S
C2172 C2174 1.395 . S
C2172 C2175 1.403 . S
H2173 C2179 0.930 . S
C2174 H2160 0.930 . S
C2174 C2172 1.395 . S
C2174 C2177 1.403 . S
C2175 C2172 1.403 . S
C2175 C2176 1.524 . S
C2175 C2179 1.400 . S
C2176 H2161 0.960 . S
C2176 H2162 0.960 . S
C2176 H2163 0.960 . S
C2176 C2175 1.524 . S
C2177 C2174 1.403 . S
C2177 C2178 1.392 . S
C2177 C2181 1.495 . S
C2178 C2177 1.392 . S
C2178 C2179 1.385 . S
C2178 C2180 1.478 . S
C2179 H2173 0.930 . S
C2179 C2175 1.400 . S
C2179 C2178 1.385 . S
C2180 C2178 1.478 . S
C2180 C2182 1.381 . S
C2180 C2186 1.383 . S
C2181 C2177 1.495 . S
C2181 H2187 0.959 . S
C2181 H2188 0.961 . S
C2181 H2189 0.960 . S
C2182 C2180 1.381 . S
C2182 C2183 1.394 . S
C2182 H2190 0.930 . S
C2183 C2182 1.394 . S
C2183 C2184 1.383 . S
C2183 H2191 0.929 . S
C2184 C2183 1.383 . S
C2184 C2185 1.377 . S
C2185 H2169 0.930 . S
C2185 C2184 1.377 . S
C2185 C2186 1.379 . S
C2186 H2170 0.931 . S
C2186 C2180 1.383 . S
C2186 C2185 1.379 . S
H2187 C2181 0.959 . S
H2188 C2181 0.961 . S
H2189 C2181 0.960 . S
H2190 C2182 0.930 . S
H2191 C2183 0.929 . S
H2192 C2200 0.929 . S
H2193 C2202 0.930 . S
H2194 C2204 0.930 . S
H2195 C2207 0.929 1_565 S
H2196 C2210 0.930 . S
H2197 C2212 0.960 . S
H2198 C2212 0.960 1_545 S
H2199 C2212 0.960 . S
C2200 H2192 0.929 . S
C2200 C2201 1.377 . S
C2200 C2202 1.384 . S
C2201 C2200 1.377 . S
C2201 C2207 1.390 . S
C2202 H2193 0.930 . S
C2202 C2200 1.384 . S
C2202 C2203 1.372 . S
C2203 C2202 1.372 . S
C2203 C2204 1.400 1_545 S
C2203 C2208 1.490 . S
C2204 H2194 0.930 . S
C2204 C2203 1.400 1_565 S
C2204 C2207 1.386 1_565 S
H2205 C2221 0.930 . S
H2206 C2222 0.931 . S
C2207 H2195 0.929 1_545 S
C2207 C2201 1.390 . S
C2207 C2204 1.386 1_545 S
C2208 C2203 1.490 . S
C2208 C2210 1.395 . S
C2208 C2211 1.396 1_545 S
H2209 C2215 0.930 . S
C2210 H2196 0.930 . S
C2210 C2208 1.395 . S
C2210 C2213 1.403 . S
C2211 C2208 1.396 1_565 S
C2211 C2212 1.525 . S
C2211 C2215 1.405 . S
C2212 H2197 0.960 . S
C2212 H2198 0.960 1_565 S
C2212 H2199 0.960 . S
C2212 C2211 1.525 . S
C2213 C2210 1.403 . S
C2213 C2214 1.392 1_545 S
C2213 C2217 1.495 . S
C2214 C2213 1.392 1_565 S
C2214 C2215 1.385 . S
C2214 C2216 1.478 . S
C2215 H2209 0.930 . S
C2215 C2211 1.405 . S
C2215 C2214 1.385 . S
C2216 C2214 1.478 . S
C2216 C2218 1.381 1_565 S
C2216 C2222 1.383 . S
C2217 C2213 1.495 . S
C2217 H2223 0.959 . S
C2217 H2224 0.961 1_545 S
C2217 H2225 0.960 . S
C2218 C2216 1.381 1_545 S
C2218 C2219 1.394 1_545 S
C2218 H2226 0.930 . S
C2219 C2218 1.394 1_565 S
C2219 C2220 1.383 . S
C2219 H2227 0.929 1_565 S
C2220 C2219 1.383 . S
C2220 C2221 1.377 . S
C2221 H2205 0.930 . S
C2221 C2220 1.377 . S
C2221 C2222 1.379 . S
C2222 H2206 0.931 . S
C2222 C2216 1.383 . S
C2222 C2221 1.379 . S
H2223 C2217 0.959 . S
H2224 C2217 0.961 1_565 S
H2225 C2217 0.960 . S
H2226 C2218 0.930 . S
H2227 C2219 0.929 1_545 S
H2228 C2236 0.929 1_455 S
H2229 C2238 0.930 . S
H2230 C2240 0.930 . S
H2231 C2243 0.929 . S
H2232 C2246 0.930 . S
H2233 C2248 0.960 . S
H2234 C2248 0.960 . S
H2235 C2248 0.960 . S
C2236 H2228 0.929 1_655 S
C2236 C2237 1.377 . S
C2236 C2238 1.384 1_655 S
C2237 C2236 1.377 . S
C2237 C2243 1.390 . S
C2238 H2229 0.930 . S
C2238 C2236 1.384 1_455 S
C2238 C2239 1.372 1_455 S
C2239 C2238 1.372 1_655 S
C2239 C2240 1.400 . S
C2239 C2244 1.490 . S
C2240 H2230 0.930 . S
C2240 C2239 1.400 . S
C2240 C2243 1.386 . S
H2241 C2257 0.930 1_655 S
H2242 C2258 0.931 . S
C2243 H2231 0.929 . S
C2243 C2237 1.390 . S
C2243 C2240 1.386 . S
C2244 C2239 1.490 . S
C2244 C2246 1.395 1_655 S
C2244 C2247 1.403 . S
H2245 C2251 0.928 1_655 S
C2246 H2232 0.930 . S
C2246 C2244 1.395 1_455 S
C2246 C2249 1.403 1_545 S
C2247 C2244 1.403 . S
C2247 C2248 1.524 . S
C2247 C2251 1.397 1_645 S
C2248 H2233 0.960 . S
C2248 H2234 0.960 . S
C2248 H2235 0.960 . S
C2248 C2247 1.524 . S
C2249 C2246 1.403 1_565 S
C2249 C2250 1.392 . S
C2249 C2253 1.495 . S
C2250 C2249 1.392 . S
C2250 C2251 1.389 . S
C2250 C2252 1.478 . S
C2251 H2245 0.928 1_455 S
C2251 C2247 1.397 1_465 S
C2251 C2250 1.389 . S
C2252 C2250 1.478 . S
C2252 C2254 1.381 . S
C2252 C2258 1.383 1_455 S
C2253 C2249 1.495 . S
C2253 H2259 0.959 . S
C2253 H2260 0.961 . S
C2253 H2261 0.960 . S
C2254 C2252 1.381 . S
C2254 C2255 1.394 . S
C2254 H2262 0.930 . S
C2255 C2254 1.394 . S
C2255 C2256 1.383 . S
C2255 H2263 0.929 . S
C2256 C2255 1.383 . S
C2256 C2257 1.377 . S
C2257 H2241 0.930 1_455 S
C2257 C2256 1.377 . S
C2257 C2258 1.379 1_455 S
C2258 H2242 0.931 . S
C2258 C2252 1.383 1_655 S
C2258 C2257 1.379 1_655 S
H2259 C2253 0.959 . S
H2260 C2253 0.961 . S
H2261 C2253 0.960 . S
H2262 C2254 0.930 . S
H2263 C2255 0.929 . S
H2264 C2272 0.929 . S
H2265 C2274 0.930 . S
H2266 C2276 0.930 . S
H2267 C2279 0.929 . S
H2268 C2282 0.930 . S
H2269 C2284 0.960 . S
H2270 C2284 0.960 . S
H2271 C2284 0.960 . S
C2272 H2264 0.929 . S
C2272 C2273 1.377 . S
C2272 C2274 1.384 . S
C2273 C2272 1.377 . S
C2273 C2279 1.390 . S
C2274 H2265 0.930 . S
C2274 C2272 1.384 . S
C2274 C2275 1.372 . S
C2275 C2274 1.372 . S
C2275 C2276 1.400 . S
C2275 C2280 1.490 . S
C2276 H2266 0.930 . S
C2276 C2275 1.400 . S
C2276 C2279 1.386 . S
H2277 C2293 0.930 . S
H2278 C2294 0.931 . S
C2279 H2267 0.929 . S
C2279 C2273 1.390 . S
C2279 C2276 1.386 . S
C2280 C2275 1.490 . S
C2280 C2282 1.395 . S
C2280 C2283 1.403 . S
H2281 C2287 0.930 . S
C2282 H2268 0.930 . S
C2282 C2280 1.395 . S
C2282 C2285 1.403 1_455 S
C2283 C2280 1.403 . S
C2283 C2284 1.524 . S
C2283 C2287 1.400 1_455 S
C2284 H2269 0.960 . S
C2284 H2270 0.960 . S
C2284 H2271 0.960 . S
C2284 C2283 1.524 . S
C2285 C2282 1.403 1_655 S
C2285 C2286 1.392 . S
C2285 C2289 1.495 . S
C2286 C2285 1.392 . S
C2286 C2287 1.385 . S
C2286 C2288 1.478 . S
C2287 H2281 0.930 . S
C2287 C2283 1.400 1_655 S
C2287 C2286 1.385 . S
C2288 C2286 1.478 . S
C2288 C2290 1.381 . S
C2288 C2294 1.383 . S
C2289 C2285 1.495 . S
C2289 H2295 0.959 . S
C2289 H2296 0.961 . S
C2289 H2297 0.960 . S
C2290 C2288 1.381 . S
C2290 C2291 1.394 . S
C2290 H2298 0.930 . S
C2291 C2290 1.394 . S
C2291 C2292 1.383 . S
C2291 H2299 0.929 . S
C2292 C2291 1.383 . S
C2292 C2293 1.377 . S
C2293 H2277 0.930 . S
C2293 C2292 1.377 . S
C2293 C2294 1.379 . S
C2294 H2278 0.931 . S
C2294 C2288 1.383 . S
C2294 C2293 1.379 . S
H2295 C2289 0.959 . S
H2296 C2289 0.961 . S
H2297 C2289 0.960 . S
H2298 C2290 0.930 . S
H2299 C2291 0.929 . S
H2300 C2308 0.929 . S
H2301 C2310 0.930 . S
H2302 C2312 0.930 . S
H2303 C2315 0.929 . S
H2304 C2318 0.930 . S
H2305 C2320 0.960 . S
H2306 C2320 0.960 . S
H2307 C2320 0.960 . S
C2308 H2300 0.929 . S
C2308 C2309 1.377 . S
C2308 C2310 1.384 . S
C2309 C2308 1.377 . S
C2309 C2315 1.390 . S
C2310 H2301 0.930 . S
C2310 C2308 1.384 . S
C2310 C2311 1.372 . S
C2311 C2310 1.372 . S
C2311 C2312 1.400 . S
C2311 C2316 1.490 . S
C2312 H2302 0.930 . S
C2312 C2311 1.400 . S
C2312 C2315 1.386 . S
H2313 C2329 0.930 . S
H2314 C2330 0.931 . S
C2315 H2303 0.929 . S
C2315 C2309 1.390 . S
C2315 C2312 1.386 . S
C2316 C2311 1.490 . S
C2316 C2318 1.395 . S
C2316 C2319 1.403 . S
H2317 C2323 0.930 . S
C2318 H2304 0.930 . S
C2318 C2316 1.395 . S
C2318 C2321 1.403 . S
C2319 C2316 1.403 . S
C2319 C2320 1.524 . S
C2319 C2323 1.400 . S
C2320 H2305 0.960 . S
C2320 H2306 0.960 . S
C2320 H2307 0.960 . S
C2320 C2319 1.524 . S
C2321 C2318 1.403 . S
C2321 C2322 1.392 . S
C2321 C2325 1.495 . S
C2322 C2321 1.392 . S
C2322 C2323 1.385 . S
C2322 C2324 1.478 . S
C2323 H2317 0.930 . S
C2323 C2319 1.400 . S
C2323 C2322 1.385 . S
C2324 C2322 1.478 . S
C2324 C2326 1.381 . S
C2324 C2330 1.383 . S
C2325 C2321 1.495 . S
C2325 H2331 0.959 . S
C2325 H2332 0.961 . S
C2325 H2333 0.960 . S
C2326 C2324 1.381 . S
C2326 C2327 1.394 . S
C2326 H2334 0.930 . S
C2327 C2326 1.394 . S
C2327 C2328 1.383 . S
C2327 H2335 0.929 . S
C2328 C2327 1.383 . S
C2328 C2329 1.377 . S
C2329 H2313 0.930 . S
C2329 C2328 1.377 . S
C2329 C2330 1.379 . S
C2330 H2314 0.931 . S
C2330 C2324 1.383 . S
C2330 C2329 1.379 . S
H2331 C2325 0.959 . S
H2332 C2325 0.961 . S
H2333 C2325 0.960 . S
H2334 C2326 0.930 . S
H2335 C2327 0.929 . S
H2336 C2344 0.929 . S
H2337 C2346 0.930 . S
H2338 C2348 0.930 . S
H2339 C2351 0.929 . S
H2340 C2354 0.930 . S
H2341 C2356 0.960 . S
H2342 C2356 0.960 . S
H2343 C2356 0.960 . S
C2344 H2336 0.929 . S
C2344 C2345 1.377 . S
C2344 C2346 1.384 . S
C2345 C2344 1.377 . S
C2345 C2351 1.390 . S
C2346 H2337 0.930 . S
C2346 C2344 1.384 . S
C2346 C2347 1.372 . S
C2347 C2346 1.372 . S
C2347 C2348 1.400 . S
C2347 C2352 1.490 . S
C2348 H2338 0.930 . S
C2348 C2347 1.400 . S
C2348 C2351 1.386 . S
H2349 C2365 0.930 . S
H2350 C2366 0.931 . S
C2351 H2339 0.929 . S
C2351 C2345 1.390 . S
C2351 C2348 1.386 . S
C2352 C2347 1.490 . S
C2352 C2354 1.395 . S
C2352 C2355 1.403 . S
H2353 C2359 0.930 . S
C2354 H2340 0.930 . S
C2354 C2352 1.395 . S
C2354 C2357 1.403 . S
C2355 C2352 1.403 . S
C2355 C2356 1.524 . S
C2355 C2359 1.400 . S
C2356 H2341 0.960 . S
C2356 H2342 0.960 . S
C2356 H2343 0.960 . S
C2356 C2355 1.524 . S
C2357 C2354 1.403 . S
C2357 C2358 1.392 . S
C2357 C2361 1.495 . S
C2358 C2357 1.392 . S
C2358 C2359 1.385 . S
C2358 C2360 1.478 . S
C2359 H2353 0.930 . S
C2359 C2355 1.400 . S
C2359 C2358 1.385 . S
C2360 C2358 1.478 . S
C2360 C2362 1.381 . S
C2360 C2366 1.383 . S
C2361 C2357 1.495 . S
C2361 H2367 0.959 . S
C2361 H2368 0.961 . S
C2361 H2369 0.960 . S
C2362 C2360 1.381 . S
C2362 C2363 1.394 . S
C2362 H2370 0.930 . S
C2363 C2362 1.394 . S
C2363 C2364 1.383 . S
C2363 H2371 0.929 . S
C2364 C2363 1.383 . S
C2364 C2365 1.377 . S
C2365 H2349 0.930 . S
C2365 C2364 1.377 . S
C2365 C2366 1.379 . S
C2366 H2350 0.931 . S
C2366 C2360 1.383 . S
C2366 C2365 1.379 . S
H2367 C2361 0.959 . S
H2368 C2361 0.961 . S
H2369 C2361 0.960 . S
H2370 C2362 0.930 . S
H2371 C2363 0.929 . S
H2372 C2380 0.929 . S
H2373 C2382 0.930 . S
H2374 C2384 0.930 . S
H2375 C2387 0.929 . S
H2376 C2390 0.930 . S
H2377 C2392 0.960 . S
H2378 C2392 0.960 . S
H2379 C2392 0.960 . S
C2380 H2372 0.929 . S
C2380 C2381 1.377 . S
C2380 C2382 1.384 . S
C2381 C2380 1.377 . S
C2381 C2387 1.390 . S
C2382 H2373 0.930 . S
C2382 C2380 1.384 . S
C2382 C2383 1.372 . S
C2383 C2382 1.372 . S
C2383 C2384 1.400 . S
C2383 C2388 1.490 . S
C2384 H2374 0.930 . S
C2384 C2383 1.400 . S
C2384 C2387 1.386 . S
H2385 C2401 0.930 . S
H2386 C2402 0.931 . S
C2387 H2375 0.929 . S
C2387 C2381 1.390 . S
C2387 C2384 1.386 . S
C2388 C2383 1.490 . S
C2388 C2390 1.395 . S
C2388 C2391 1.403 . S
H2389 C2395 0.930 . S
C2390 H2376 0.930 . S
C2390 C2388 1.395 . S
C2390 C2393 1.403 1_545 S
C2391 C2388 1.403 . S
C2391 C2392 1.524 . S
C2391 C2395 1.400 1_545 S
C2392 H2377 0.960 . S
C2392 H2378 0.960 . S
C2392 H2379 0.960 . S
C2392 C2391 1.524 . S
C2393 C2390 1.403 1_565 S
C2393 C2394 1.392 . S
C2393 C2397 1.495 . S
C2394 C2393 1.392 . S
C2394 C2395 1.385 . S
C2394 C2396 1.478 . S
C2395 H2389 0.930 . S
C2395 C2391 1.400 1_565 S
C2395 C2394 1.385 . S
C2396 C2394 1.478 . S
C2396 C2398 1.381 . S
C2396 C2402 1.383 . S
C2397 C2393 1.495 . S
C2397 H2403 0.959 . S
C2397 H2404 0.961 . S
C2397 H2405 0.960 . S
C2398 C2396 1.381 . S
C2398 C2399 1.394 . S
C2398 H2406 0.930 . S
C2399 C2398 1.394 . S
C2399 C2400 1.383 . S
C2399 H2407 0.929 . S
C2400 C2399 1.383 . S
C2400 C2401 1.377 . S
C2401 H2385 0.930 . S
C2401 C2400 1.377 . S
C2401 C2402 1.379 . S
C2402 H2386 0.931 . S
C2402 C2396 1.383 . S
C2402 C2401 1.379 . S
H2403 C2397 0.959 . S
H2404 C2397 0.961 . S
H2405 C2397 0.960 . S
H2406 C2398 0.930 . S
H2407 C2399 0.929 . S
H2408 C2416 0.929 1_545 S
H2409 C2418 0.930 . S
H2410 C2420 0.930 . S
H2411 C2423 0.929 . S
H2412 C2426 0.930 . S
H2413 C2428 0.960 . S
H2414 C2428 0.960 1_545 S
H2415 C2428 0.960 . S
C2416 H2408 0.929 1_565 S
C2416 C2417 1.377 . S
C2416 C2418 1.384 1_565 S
C2417 C2416 1.377 . S
C2417 C2423 1.390 . S
C2418 H2409 0.930 . S
C2418 C2416 1.384 1_545 S
C2418 C2419 1.372 1_545 S
C2419 C2418 1.372 1_565 S
C2419 C2420 1.400 . S
C2419 C2424 1.490 . S
C2420 H2410 0.930 . S
C2420 C2419 1.400 . S
C2420 C2423 1.386 . S
H2421 C2437 0.930 1_565 S
H2422 C2438 0.931 . S
C2423 H2411 0.929 . S
C2423 C2417 1.390 . S
C2423 C2420 1.386 . S
C2424 C2419 1.490 . S
C2424 C2426 1.387 1_565 S
C2424 C2427 1.403 . S
H2425 C2431 0.930 . S
C2426 H2412 0.930 . S
C2426 C2424 1.387 1_545 S
C2426 C2429 1.413 1_455 S
C2427 C2424 1.403 . S
C2427 C2428 1.524 . S
C2427 C2431 1.400 1_465 S
C2428 H2413 0.960 . S
C2428 H2414 0.960 1_565 S
C2428 H2415 0.960 . S
C2428 C2427 1.524 . S
C2429 C2426 1.413 1_655 S
C2429 C2430 1.392 . S
C2429 C2433 1.495 . S
C2430 C2429 1.392 . S
C2430 C2431 1.385 . S
C2430 C2432 1.478 . S
C2431 H2425 0.930 . S
C2431 C2427 1.400 1_645 S
C2431 C2430 1.385 . S
C2432 C2430 1.478 . S
C2432 C2434 1.381 . S
C2432 C2438 1.383 1_545 S
C2433 C2429 1.495 . S
C2433 H2439 0.959 . S
C2433 H2440 0.961 . S
C2433 H2441 0.960 . S
C2434 C2432 1.381 . S
C2434 C2435 1.394 . S
C2434 H2442 0.930 . S
C2435 C2434 1.394 . S
C2435 C2436 1.383 . S
C2435 H2443 0.929 . S
C2436 C2435 1.383 . S
C2436 C2437 1.377 . S
C2437 H2421 0.930 1_545 S
C2437 C2436 1.377 . S
C2437 C2438 1.379 1_545 S
C2438 H2422 0.931 . S
C2438 C2432 1.383 1_565 S
C2438 C2437 1.379 1_565 S
H2439 C2433 0.959 . S
H2440 C2433 0.961 . S
H2441 C2433 0.960 . S
H2442 C2434 0.930 . S
H2443 C2435 0.929 . S
H2444 C2452 0.929 1_655 S
H2445 C2454 0.930 . S
H2446 C2456 0.930 . S
H2447 C2459 0.929 . S
H2448 C2462 0.930 . S
H2449 C2464 0.960 . S
H2450 C2464 0.960 . S
H2451 C2464 0.960 . S
C2452 H2444 0.929 1_455 S
C2452 C2453 1.377 . S
C2452 C2454 1.384 1_455 S
C2453 C2452 1.377 . S
C2453 C2459 1.390 . S
C2454 H2445 0.930 . S
C2454 C2452 1.384 1_655 S
C2454 C2455 1.372 1_655 S
C2455 C2454 1.372 1_455 S
C2455 C2456 1.400 . S
C2455 C2460 1.490 . S
C2456 H2446 0.930 . S
C2456 C2455 1.400 . S
C2456 C2459 1.386 . S
H2457 C2473 0.910 1_455 S
H2458 C2474 0.931 1_455 S
C2459 H2447 0.929 . S
C2459 C2453 1.390 . S
C2459 C2456 1.386 . S
C2460 C2455 1.490 . S
C2460 C2462 1.395 1_455 S
C2460 C2463 1.403 . S
H2461 C2467 0.930 . S
C2462 H2448 0.930 . S
C2462 C2460 1.395 1_655 S
C2462 C2465 1.403 . S
C2463 C2460 1.403 . S
C2463 C2464 1.524 . S
C2463 C2467 1.400 . S
C2464 H2449 0.960 . S
C2464 H2450 0.960 . S
C2464 H2451 0.960 . S
C2464 C2463 1.524 . S
C2465 C2462 1.403 . S
C2465 C2466 1.392 . S
C2465 C2469 1.495 . S
C2466 C2465 1.392 . S
C2466 C2467 1.385 1_655 S
C2466 C2468 1.478 . S
C2467 H2461 0.930 . S
C2467 C2463 1.400 . S
C2467 C2466 1.385 1_455 S
C2468 C2466 1.478 . S
C2468 C2470 1.381 . S
C2468 C2474 1.383 . S
C2469 C2465 1.495 . S
C2469 H2475 0.959 . S
C2469 H2476 0.961 . S
C2469 H2477 0.960 . S
C2470 C2468 1.381 . S
C2470 C2471 1.394 . S
C2470 H2478 0.930 . S
C2471 C2470 1.394 . S
C2471 C2472 1.383 . S
C2471 H2479 0.929 . S
C2472 C2471 1.383 . S
C2472 C2473 1.377 . S
C2473 H2457 0.910 1_655 S
C2473 C2472 1.377 . S
C2473 C2474 1.379 . S
C2474 H2458 0.931 1_655 S
C2474 C2468 1.383 . S
C2474 C2473 1.379 . S
H2475 C2469 0.959 . S
H2476 C2469 0.961 . S
H2477 C2469 0.960 . S
H2478 C2470 0.930 . S
H2479 C2471 0.929 . S
C473 C21 0.377 . S
C492 C224 0.327 . S
C509 C137 0.363 . S
C528 C50 0.348 . S
C545 C79 0.373 . S
C564 C166 0.428 . S
C581 C108 0.373 . S
C600 C195 0.316 . S
C617 C456 0.370 . S
C636 C253 0.313 . S
C653 C369 0.363 . S
C672 C282 0.337 . S
C689 C311 0.376 . S
C708 C398 0.439 . S
C725 C340 0.381 . S
C744 C427 0.340 . S
C761 C97 2.051 . S
C780 C5 2.036 1_556 S
C797 C34 2.028 . S
C816 C10 2.026 . S
C833 C63 2.028 . S
C852 C39 2.028 . S
C869 C92 2.028 . S
C888 C68 2.026 . S
C905 C121 2.034 . S
C924 C155 2.062 . S
C941 C150 2.032 . S
C960 C184 2.037 . S
C977 C213 2.047 . S
C996 C179 2.013 . S
C1013 C208 2.035 1_554 S
C1032 C126 2.062 . S
C1049 C329 2.047 . S
C1068 C237 2.013 . S
C1085 C266 2.033 . S
C1104 C242 2.039 . S
C1121 C271 2.050 . S
C1140 C295 2.033 1_556 S
C1157 C324 2.033 . S
C1176 C300 2.040 . S
C1193 C353 2.028 . S
C1212 C387 2.026 . S
C1229 C382 2.030 1_554 S
C1248 C416 2.031 . S
C1265 C411 2.033 . S
C1284 C445 2.055 . S
C1301 C440 2.035 . S
C1320 C358 2.064 . S
C1337 C124 1.141 . S
C1356 C8 1.174 . S
C1373 C153 1.118 . S
C1392 C37 1.155 . S
C1409 C66 1.117 . S
C1428 C182 1.152 . S
C1445 C211 1.119 . S
C1464 C95 1.089 . S
C1481 C356 1.142 . S
C1500 C240 1.164 . S
C1517 C269 1.118 . S
C1536 C385 1.155 . S
C1553 C414 1.122 . S
C1572 C298 1.079 . S
C1589 C443 1.130 . S
C1608 C327 1.198 . S
C1625 C177 2.338 . S
C1644 C3 2.319 . S
C1661 C206 2.332 . S
C1680 C32 2.342 . S
C1697 C61 2.336 . S
C1716 C119 2.335 . S
C1733 C90 2.332 . S
C1752 C148 2.344 . S
C1769 C235 2.336 . S
C1788 C409 2.335 . S
C1805 C264 2.338 . S
C1824 C438 2.317 . S
C1841 C351 2.336 . S
C1860 C293 2.335 . S
C1877 C380 2.337 . S
C1896 C322 2.328 . S
C1913 C160 2.316 . S
C1932 C15 2.310 . S
C1949 C44 2.316 . S
C1968 C189 2.311 . S
C1985 C73 2.314 . S
C2004 C218 2.318 . S
C2021 C131 2.314 . S
C2040 C102 2.317 . S
C2057 C247 2.317 . S
C2076 C392 2.302 . S
C2093 C421 2.316 . S
C2112 C276 2.309 . S
C2129 C305 2.317 . S
C2148 C450 2.307 . S
C2165 C334 2.315 . S
C2184 C363 2.314 . S
C2201 C13 1.862 . S
C2220 C303 1.894 . S
C2237 C42 1.879 . S
C2256 C332 1.840 . S
C2273 C245 1.879 . S
C2292 C71 1.840 . S
C2309 C274 1.879 . S
C2328 C100 1.840 . S
C2345 C129 1.862 . S
C2364 C419 1.894 . S
C2381 C158 1.867 . S
C2400 C448 1.904 . S
C2417 C361 1.879 . S
C2436 C187 1.843 . S
C2453 C390 1.876 . S
C2472 C216 1.828 . S
