# Generated by pormake.
# Topology dft, (4)-cn, num edge types: 1
# Building blocks:
#     Node 0, Type 0, BuildingBlock: KUFVIS_clean_sbu_0, # of connection points: 4
#     Node 1, Type 0, BuildingBlock: KUFVIS_clean_sbu_0, # of connection points: 4
#     Node 2, Type 0, BuildingBlock: KUFVIS_clean_sbu_0, # of connection points: 4
#     Node 3, Type 0, BuildingBlock: KUFVIS_clean_sbu_0, # of connection points: 4
#     Node 4, Type 0, BuildingBlock: KUFVIS_clean_sbu_0, # of connection points: 4
#     Node 5, Type 0, BuildingBlock: KUFVIS_clean_sbu_0, # of connection points: 4
#     Node 6, Type 0, BuildingBlock: KUFVIS_clean_sbu_0, # of connection points: 4
#     Node 7, Type 0, BuildingBlock: KUFVIS_clean_sbu_0, # of connection points: 4
#     Edge 8, Type (0, 0), BuildingBlock: AJUNOK_clean_linker_0, # of connection points: 2
#     Edge 9, Type (0, 0), BuildingBlock: AJUNOK_clean_linker_0, # of connection points: 2
#     Edge 10, Type (0, 0), BuildingBlock: AJUNOK_clean_linker_0, # of connection points: 2
#     Edge 11, Type (0, 0), BuildingBlock: AJUNOK_clean_linker_0, # of connection points: 2
#     Edge 12, Type (0, 0), BuildingBlock: AJUNOK_clean_linker_0, # of connection points: 2
#     Edge 13, Type (0, 0), BuildingBlock: AJUNOK_clean_linker_0, # of connection points: 2
#     Edge 14, Type (0, 0), BuildingBlock: AJUNOK_clean_linker_0, # of connection points: 2
#     Edge 15, Type (0, 0), BuildingBlock: AJUNOK_clean_linker_0, # of connection points: 2
#     Edge 16, Type (0, 0), BuildingBlock: AJUNOK_clean_linker_0, # of connection points: 2
#     Edge 17, Type (0, 0), BuildingBlock: AJUNOK_clean_linker_0, # of connection points: 2
#     Edge 18, Type (0, 0), BuildingBlock: AJUNOK_clean_linker_0, # of connection points: 2
#     Edge 19, Type (0, 0), BuildingBlock: AJUNOK_clean_linker_0, # of connection points: 2
#     Edge 20, Type (0, 0), BuildingBlock: AJUNOK_clean_linker_0, # of connection points: 2
#     Edge 21, Type (0, 0), BuildingBlock: AJUNOK_clean_linker_0, # of connection points: 2
#     Edge 22, Type (0, 0), BuildingBlock: AJUNOK_clean_linker_0, # of connection points: 2
#     Edge 23, Type (0, 0), BuildingBlock: AJUNOK_clean_linker_0, # of connection points: 2
# Relax obj value: 0.171
# Max RMSD: 0.157
# Mean RMSD: 0.157
data_MOF--net-dft--node1-KUFVIS_clean_sbu_0--edge1-AJUNOK_clean_linker_0
_symmetry_space_group_name_H-M    P1
_symmetry_Int_Tables_number       1
_symmetry_cell_setting            triclinic
loop_
_symmetry_equiv_pos_as_xyz
'x, y, z'
_cell_length_a     24.641327
_cell_length_b     24.669675
_cell_length_c     30.353767
_cell_angle_alpha  90.03344
_cell_angle_beta   89.885477
_cell_angle_gamma 90.108988
loop_
_atom_site_label
_atom_site_type_symbol
_atom_site_fract_x
_atom_site_fract_y
_atom_site_fract_z
_atom_type_partial_charge
Mn0 Mn 0.34471 0.11289 0.17645 0.0
Mn1 Mn 0.39785 0.22461 0.12714 0.0
C2 C 0.33035 0.19906 0.20502 0.0
C3 C 0.27875 0.04702 0.19583 0.0
C4 C 0.46607 0.14148 0.17427 0.0
O5 O 0.35447 0.08837 0.11218 0.0
O6 O 0.38773 0.16686 0.08357 0.0
C7 C 0.31476 0.25932 0.06298 0.0
N8 N 0.34446 0.26944 0.09992 0.0
C9 C 0.31734 0.36314 0.1001 0.0
C10 C 0.28528 0.35334 0.06281 0.0
C11 C 0.28405 0.30121 0.04414 0.0
C12 C 0.34634 0.3196 0.11787 0.0
H13 H 0.31483 0.21972 0.04781 0.0
C14 C 0.37185 0.11766 0.07995 0.0
O15 O 0.33029 0.03873 0.19928 0.0
O16 O 0.26467 0.09288 0.178 0.0
N17 N 0.4081 0.28298 0.16738 0.0
C18 C 0.44338 0.28608 0.20177 0.0
C19 C 0.45298 0.33631 0.22183 0.0
C20 C 0.42629 0.3826 0.2062 0.0
C21 C 0.38803 0.37794 0.17226 0.0
C22 C 0.38029 0.32679 0.15345 0.0
H23 H 0.46518 0.25081 0.21297 0.0
O24 O 0.33177 0.15708 0.23094 0.0
O25 O 0.34207 0.19002 0.16421 0.0
O26 O 0.42682 0.1115 0.1861 0.0
O27 O 0.45924 0.18454 0.15223 0.0
C28 C 0.35906 0.42232 0.15508 0.0
C29 C 0.32325 0.4148 0.11936 0.0
H30 H 0.2621 0.3857 0.04784 0.0
H31 H 0.26001 0.29351 0.015 0.0
H32 H 0.48212 0.33966 0.24833 0.0
H33 H 0.4368 0.42158 0.21975 0.0
H34 H 0.36464 0.46254 0.16861 0.0
H35 H 0.30154 0.44932 0.10622 0.0
Mn36 Mn 0.0617 0.32253 0.67459 0.0
Mn37 Mn 0.94861 0.37269 0.62531 0.0
C38 C 0.97571 0.30584 0.70319 0.0
C39 C 0.12818 0.25702 0.69253 0.0
C40 C 0.02972 0.44291 0.67372 0.0
O41 O 0.08707 0.33495 0.61103 0.0
O42 O 1.00759 0.3656 0.58217 0.0
C43 C 0.91827 0.28898 0.55997 0.0
N44 N 0.90617 0.31807 0.59687 0.0
C45 C 0.81373 0.28628 0.59603 0.0
C46 C 0.82549 0.25526 0.55848 0.0
C47 C 0.87802 0.25661 0.5404 0.0
C48 C 0.85562 0.31741 0.61429 0.0
H49 H 0.95815 0.29085 0.54533 0.0
C50 C 0.05735 0.35149 0.57902 0.0
O51 O 0.13618 0.30849 0.69757 0.0
O52 O 0.08265 0.24332 0.67389 0.0
N53 N 0.88886 0.38001 0.66487 0.0
C54 C 0.88355 0.41458 0.69959 0.0
C55 C 0.83271 0.42066 0.71974 0.0
C56 C 0.78807 0.39113 0.70392 0.0
C57 C 0.79497 0.35417 0.66933 0.0
C58 C 0.84651 0.3502 0.6503 0.0
H59 H 0.91752 0.43834 0.71108 0.0
O60 O 0.01789 0.30749 0.72886 0.0
O61 O 0.98438 0.31789 0.66232 0.0
O62 O 0.0608 0.40446 0.68527 0.0
O63 O 0.98658 0.435 0.6518 0.0
C64 C 0.75235 0.32262 0.65197 0.0
C65 C 0.76181 0.28844 0.61549 0.0
H66 H 0.79445 0.23057 0.54311 0.0
H67 H 0.8873 0.23316 0.51121 0.0
H68 H 0.82762 0.44906 0.74661 0.0
H69 H 0.74841 0.39825 0.71778 0.0
H70 H 0.71202 0.3248 0.6661 0.0
H71 H 0.72863 0.26473 0.60216 0.0
Mn72 Mn 0.80995 0.07368 0.18146 0.0
Mn73 Mn 0.74573 0.96012 0.14483 0.0
C74 C 0.81205 0.99347 0.22244 0.0
C75 C 0.88177 0.13519 0.19764 0.0
C76 C 0.68604 0.05754 0.17918 0.0
O77 O 0.80913 0.08593 0.11454 0.0
O78 O 0.76251 1.00991 0.09635 0.0
C79 C 0.83018 0.91056 0.08798 0.0
N80 N 0.794 0.90666 0.12182 0.0
C81 C 0.80776 0.81036 0.12736 0.0
C82 C 0.84553 0.81336 0.09281 0.0
C83 C 0.85704 0.86374 0.07325 0.0
C84 C 0.78321 0.8585 0.14128 0.0
H85 H 0.83828 0.94899 0.07226 0.0
C86 C 0.78699 0.05394 0.08632 0.0
O87 O 0.83149 0.14965 0.19568 0.0
O88 O 0.89163 0.08515 0.18656 0.0
N89 N 0.72785 0.90783 0.18873 0.0
C90 C 0.69187 0.91252 0.22262 0.0
C91 C 0.6742 0.86573 0.24463 0.0
C92 C 0.69347 0.81475 0.23136 0.0
C93 C 0.73206 0.81112 0.19742 0.0
C94 C 0.74779 0.85912 0.1765 0.0
H95 H 0.6755 0.95149 0.23185 0.0
O96 O 0.81201 0.04079 0.2414 0.0
O97 O 0.80431 0.99418 0.18017 0.0
O98 O 0.7279 0.08658 0.18507 0.0
O99 O 0.68878 1.00891 0.16602 0.0
C100 C 0.75462 0.76177 0.18281 0.0
C101 C 0.7932 0.7615 0.14837 0.0
H102 H 0.86584 0.77725 0.08097 0.0
H103 H 0.886 0.86634 0.04648 0.0
H104 H 0.64481 0.86881 0.27105 0.0
H105 H 0.67801 0.7787 0.2474 0.0
H106 H 0.74291 0.72381 0.19803 0.0
H107 H 0.81097 0.72344 0.138 0.0
Mn108 Mn 0.09679 0.78791 0.68176 0.0
Mn109 Mn 0.20788 0.72453 0.63988 0.0
C110 C 0.17822 0.78851 0.72082 0.0
C111 C 0.03705 0.85976 0.7011 0.0
C112 C 0.11175 0.66414 0.67621 0.0
O113 O 0.08202 0.79081 0.61556 0.0
O114 O 0.15512 0.74235 0.59349 0.0
C115 C 0.254 0.81067 0.58266 0.0
N116 N 0.26018 0.77298 0.61503 0.0
C117 C 0.35691 0.78681 0.61641 0.0
C118 C 0.35159 0.82579 0.58308 0.0
C119 C 0.29989 0.83795 0.56631 0.0
C120 C 0.30976 0.76106 0.63146 0.0
H121 H 0.21445 0.81969 0.56934 0.0
C122 C 0.11139 0.76842 0.58573 0.0
O123 O 0.02135 0.80989 0.69821 0.0
O124 O 0.08717 0.86923 0.68985 0.0
N125 N 0.26325 0.7056 0.68082 0.0
C126 C 0.26063 0.66976 0.71485 0.0
C127 C 0.30875 0.6527 0.73512 0.0
C128 C 0.35892 0.67292 0.72037 0.0
C129 C 0.36047 0.71093 0.68604 0.0
C130 C 0.3113 0.72539 0.66642 0.0
H131 H 0.22221 0.6533 0.72567 0.0
O132 O 0.13143 0.78627 0.74069 0.0
O133 O 0.17653 0.78236 0.67822 0.0
O134 O 0.08274 0.7058 0.68277 0.0
O135 O 0.16026 0.66729 0.6626 0.0
C136 C 0.4088 0.73471 0.67025 0.0
C137 C 0.40695 0.77311 0.63582 0.0
H138 H 0.38685 0.84695 0.57038 0.0
H139 H 0.29547 0.86806 0.54066 0.0
H140 H 0.30726 0.6236 0.76176 0.0
H141 H 0.39595 0.65904 0.73579 0.0
H142 H 0.44755 0.7243 0.68472 0.0
H143 H 0.44422 0.79201 0.62464 0.0
Mn144 Mn 0.34422 0.04295 0.80234 0.0
Mn145 Mn 0.38497 0.93464 0.8622 0.0
C146 C 0.32863 0.95517 0.77785 0.0
C147 C 0.2794 0.10693 0.77834 0.0
C148 C 0.4627 1.01412 0.8184 0.0
O149 O 0.35113 0.07247 0.86556 0.0
O150 O 0.36591 0.99353 0.90274 0.0
C151 C 0.29103 0.89972 0.91589 0.0
N152 N 0.32685 0.88977 0.88262 0.0
C153 C 0.2971 0.79702 0.87726 0.0
C154 C 0.25874 0.80681 0.91048 0.0
C155 C 0.25595 0.85831 0.93008 0.0
C156 C 0.33077 0.83996 0.86432 0.0
H157 H 0.28941 0.93887 0.93159 0.0
C158 C 0.35606 0.04444 0.90112 0.0
O159 O 0.33111 0.1158 0.77522 0.0
O160 O 0.26499 0.06259 0.79827 0.0
N161 N 0.40288 0.87568 0.82407 0.0
C162 C 0.44374 0.87231 0.79391 0.0
C163 C 0.45373 0.82278 0.77272 0.0
C164 C 0.42203 0.77724 0.78318 0.0
C165 C 0.37942 0.78198 0.8136 0.0
C166 C 0.37098 0.83255 0.83327 0.0
H167 H 0.46907 0.90688 0.78657 0.0
O168 O 0.33288 0.9947 0.7497 0.0
O169 O 0.33759 0.96782 0.81838 0.0
O170 O 0.4275 0.04011 0.79629 0.0
O171 O 0.4502 0.97595 0.84472 0.0
C172 C 0.34599 0.73823 0.82614 0.0
C173 C 0.30453 0.74584 0.85762 0.0
H174 H 0.23186 0.77486 0.9217 0.0
H175 H 0.22703 0.86599 0.95622 0.0
H176 H 0.48649 0.81939 0.74908 0.0
H177 H 0.43146 0.73874 0.76813 0.0
H178 H 0.35249 0.69828 0.81252 0.0
H179 H 0.27939 0.71174 0.86719 0.0
Mn180 Mn 0.09205 0.36325 0.30014 0.0
Mn181 Mn 0.20351 0.42249 0.34512 0.0
C182 C 0.17581 0.36003 0.26412 0.0
C183 C 0.03205 0.2917 0.27976 0.0
C184 C 0.11177 0.48667 0.30584 0.0
O185 O 0.07323 0.36281 0.3658 0.0
O186 O 0.14836 0.4067 0.39015 0.0
C187 C 0.24454 0.33504 0.40321 0.0
N188 N 0.25299 0.372 0.37059 0.0
C189 C 0.34931 0.35589 0.37139 0.0
C190 C 0.34164 0.31731 0.40477 0.0
C191 C 0.28899 0.30661 0.42054 0.0
C192 C 0.30341 0.38211 0.35485 0.0
H193 H 0.20429 0.32759 0.41602 0.0
C194 C 0.10246 0.3837 0.39641 0.0
O195 O 0.01742 0.34203 0.28074 0.0
O196 O 0.08086 0.28192 0.29386 0.0
N197 N 0.2606 0.43916 0.30498 0.0
C198 C 0.2601 0.47423 0.27043 0.0
C199 C 0.30943 0.49189 0.25235 0.0
C200 C 0.35852 0.47238 0.26951 0.0
C201 C 0.35781 0.43304 0.3029 0.0
C202 C 0.30743 0.41824 0.32038 0.0
H203 H 0.22235 0.48948 0.25755 0.0
O204 O 0.1304 0.36182 0.2424 0.0
O205 O 0.17134 0.36644 0.30642 0.0
O206 O 0.08129 0.44629 0.29751 0.0
O207 O 0.1589 0.48136 0.32182 0.0
C208 C 0.40492 0.40872 0.32015 0.0
C209 C 0.4006 0.36947 0.35386 0.0
H210 H 0.37585 0.29569 0.41855 0.0
H211 H 0.2828 0.27702 0.44638 0.0
H212 H 0.30966 0.52126 0.22588 0.0
H213 H 0.39642 0.48809 0.25676 0.0
H214 H 0.4446 0.41941 0.30739 0.0
H215 H 0.437 0.35029 0.36626 0.0
Mn216 Mn 0.8092 0.07035 0.80177 0.0
Mn217 Mn 0.75456 0.18169 0.85069 0.0
C218 C 0.81339 0.15423 0.76609 0.0
C219 C 0.88011 1.00959 0.78186 0.0
C220 C 0.68759 0.08791 0.81537 0.0
O221 O 0.80852 0.0505 0.86752 0.0
O222 O 0.78047 0.13112 0.89585 0.0
C223 C 0.84504 0.23336 0.89924 0.0
N224 N 0.80478 0.2363 0.86867 0.0
C225 C 0.8164 0.33279 0.86167 0.0
C226 C 0.85863 0.33066 0.89253 0.0
C227 C 0.87317 0.28067 0.91123 0.0
C228 C 0.79067 0.28416 0.8503 0.0
H229 H 0.85543 0.19529 0.91432 0.0
C230 C 0.79891 0.08297 0.89972 0.0
O231 O 0.82942 0.99579 0.78165 0.0
O232 O 0.89051 0.05799 0.79663 0.0
N233 N 0.72877 0.23385 0.80938 0.0
C234 C 0.68865 0.22838 0.7789 0.0
C235 C 0.66849 0.27464 0.75769 0.0
C236 C 0.6893 0.32597 0.76849 0.0
C237 C 0.73161 0.33042 0.79918 0.0
C238 C 0.75026 0.28284 0.819 0.0
H239 H 0.67132 0.18917 0.7716 0.0
O240 O 0.81163 0.10881 0.74439 0.0
O241 O 0.80735 0.14953 0.80853 0.0
O242 O 0.72614 0.06151 0.79777 0.0
O243 O 0.69503 0.1315 0.83665 0.0
C244 C 0.75541 0.38019 0.81146 0.0
C245 C 0.79841 0.38128 0.84208 0.0
H246 H 0.87996 0.36717 0.90228 0.0
H247 H 0.90546 0.27872 0.93529 0.0
H248 H 0.63616 0.2709 0.73379 0.0
H249 H 0.67238 0.36163 0.75298 0.0
H250 H 0.74129 0.41788 0.7973 0.0
H251 H 0.81702 0.41968 0.85062 0.0
Mn252 Mn 0.06475 0.83062 0.30733 0.0
Mn253 Mn 0.9559 0.78005 0.36271 0.0
C254 C 0.97694 0.84516 0.28258 0.0
C255 C 0.13006 0.89569 0.28497 0.0
C256 C 0.03538 0.70976 0.31263 0.0
O257 O 0.09431 0.81996 0.37002 0.0
O258 O 0.01652 0.79128 0.40346 0.0
C259 C 0.92598 0.86648 0.42578 0.0
N260 N 0.9132 0.83498 0.39039 0.0
C261 C 0.82005 0.86408 0.39288 0.0
C262 C 0.83253 0.89775 0.42872 0.0
C263 C 0.88574 0.89892 0.44524 0.0
C264 C 0.86202 0.83326 0.37446 0.0
H265 H 0.96644 0.86652 0.43925 0.0
C266 C 0.06644 0.80553 0.40394 0.0
O267 O 0.1374 0.84409 0.28085 0.0
O268 O 0.08572 0.91023 0.30515 0.0
N269 N 0.89483 0.76868 0.32536 0.0
C270 C 0.88897 0.73153 0.2925 0.0
C271 C 0.83742 0.72219 0.27463 0.0
C272 C 0.79261 0.75094 0.29093 0.0
C273 C 0.79996 0.79062 0.32344 0.0
C274 C 0.85227 0.79796 0.34016 0.0
H275 H 0.92304 0.70801 0.28094 0.0
O276 O 0.01735 0.84372 0.25496 0.0
O277 O 0.98847 0.83431 0.32311 0.0
O278 O 0.06365 0.74872 0.29778 0.0
O279 O 0.99433 0.71718 0.33726 0.0
C280 C 0.75714 0.8215 0.34122 0.0
C281 C 0.76728 0.85863 0.37562 0.0
H282 H 0.80146 0.92237 0.44411 0.0
H283 H 0.89557 0.92432 0.47319 0.0
H284 H 0.83194 0.69175 0.24933 0.0
H285 H 0.75262 0.74099 0.27909 0.0
H286 H 0.71612 0.81647 0.32916 0.0
H287 H 0.73396 0.88183 0.38926 0.0
C288 C 0.32614 0.06423 0.02102 0.0
C289 C 0.36938 0.09739 0.03439 0.0
C290 C 0.31923 0.05102 0.97654 0.0
C291 C 0.35504 0.07081 0.94412 0.0
H292 H 0.29703 0.04917 0.04487 0.0
H293 H 0.28629 0.02415 0.9675 0.0
S294 S 0.47607 0.15667 0.96208 0.0
N295 N 0.44961 0.14842 0.01166 0.0
N296 N 0.43586 0.12327 0.92808 0.0
C297 C 0.39812 0.10409 0.95687 0.0
C298 C 0.40557 0.11729 0.00206 0.0
C299 C 0.06769 0.31549 0.50389 0.0
C300 C 0.07936 0.35642 0.5347 0.0
C301 C 0.07205 0.32533 0.45854 0.0
C302 C 0.08783 0.37656 0.44291 0.0
H303 H 0.05321 0.27626 0.51492 0.0
H304 H 0.06409 0.29251 0.4357 0.0
S305 S 0.11989 0.49778 0.51061 0.0
N306 N 0.10509 0.45009 0.54689 0.0
N307 N 0.11414 0.46888 0.46173 0.0
C308 C 0.0995 0.41774 0.4736 0.0
C309 C 0.0951 0.40759 0.51952 0.0
C310 C 0.75772 0.042 0.96485 0.0
C311 C 0.80373 0.06488 0.94524 0.0
C312 C 0.75199 0.04115 0.01057 0.0
C313 C 0.79209 0.06326 0.0385 0.0
H314 H 0.72458 0.02729 0.94466 0.0
H315 H 0.71538 0.02331 0.02415 0.0
S316 S 0.92178 0.12549 0.00265 0.0
N317 N 0.89096 0.10872 0.95629 0.0
N318 N 0.88067 0.10644 0.04288 0.0
C319 C 0.83895 0.08533 0.01921 0.0
C320 C 0.84472 0.0861 0.97241 0.0
C321 C 0.07667 0.84008 0.47939 0.0
C322 C 0.09123 0.80155 0.44734 0.0
C323 C 0.08113 0.82845 0.52443 0.0
C324 C 0.1 0.77774 0.53871 0.0
H325 H 0.05925 0.87849 0.46953 0.0
H326 H 0.07006 0.8594 0.54812 0.0
S327 S 0.14164 0.66262 0.46731 0.0
N328 N 0.12416 0.71091 0.43248 0.0
N329 N 0.13322 0.68861 0.51701 0.0
C330 C 0.11546 0.73921 0.50675 0.0
C331 C 0.11103 0.75127 0.46109 0.0
C332 C 0.53278 0.06739 0.18947 0.0
C333 C 0.52255 0.12284 0.18253 0.0
C334 C 0.58587 0.04714 0.19031 0.0
C335 C 0.63113 0.0815 0.18483 0.0
H336 H 0.49953 0.03879 0.19213 0.0
H337 H 0.59133 1.00381 0.19398 0.0
S338 S 0.62682 0.23098 0.1711 0.0
N339 N 0.56247 0.21258 0.17398 0.0
N340 N 0.66218 0.17455 0.17604 0.0
C341 C 0.62166 0.13752 0.18071 0.0
C342 C 0.56747 0.15813 0.17937 0.0
C343 C 0.10323 0.51099 0.68772 0.0
C344 C 0.04772 0.49982 0.68151 0.0
C345 C 0.12303 0.5643 0.68778 0.0
C346 C 0.08818 0.60899 0.6822 0.0
H347 H 0.13226 0.47825 0.69042 0.0
H348 H 0.16639 0.57035 0.691 0.0
S349 S 0.93844 0.60238 0.66984 0.0
N350 N 0.95745 0.53839 0.67327 0.0
N351 N 0.99465 0.63857 0.67387 0.0
C352 C 0.03214 0.59868 0.67867 0.0
C353 C 1.01197 0.5442 0.67813 0.0
C354 C 0.60208 0.05924 0.77592 0.0
C355 C 0.63175 0.06549 0.8152 0.0
C356 C 0.54704 0.04307 0.77678 0.0
C357 C 0.52055 0.03132 0.81688 0.0
H358 H 0.62103 0.06837 0.74455 0.0
H359 H 0.52524 0.03937 0.74598 0.0
S360 S 0.58081 0.04185 0.92857 0.0
N361 N 0.63049 0.05962 0.89496 0.0
N362 N 0.52852 0.02755 0.89665 0.0
C363 C 0.55033 0.0368 0.85615 0.0
C364 C 0.60552 0.05433 0.85529 0.0
C365 C 0.03598 0.55504 0.30731 0.0
C366 C 0.09114 0.54301 0.30024 0.0
C367 C 0.01772 0.60904 0.30968 0.0
C368 C 0.05371 0.6531 0.30422 0.0
H369 H 1.00716 0.52266 0.31335 0.0
H370 H 0.97529 0.61627 0.31698 0.0
S371 S 0.20144 0.64328 0.28082 0.0
N372 N 0.18087 0.57985 0.28505 0.0
N373 N 0.14669 0.68047 0.2885 0.0
C374 C 0.10839 0.64142 0.29466 0.0
C375 C 0.12703 0.58667 0.29297 0.0
C376 C 0.2592 0.30341 0.27465 0.0
C377 C 0.22166 0.32764 0.24578 0.0
C378 C 0.29751 0.26552 0.26045 0.0
C379 C 0.29697 0.24643 0.21717 0.0
H380 H 0.25572 0.30905 0.30936 0.0
H381 H 0.32495 0.24802 0.28438 0.0
S382 S 0.19571 0.28232 0.13143 0.0
N383 N 0.18295 0.32444 0.17229 0.0
N384 N 0.24734 0.24511 0.14798 0.0
C385 C 0.25709 0.2668 0.18834 0.0
C386 C 0.22114 0.30901 0.20199 0.0
C387 C 0.91003 0.27463 0.75991 0.0
C388 C 0.92787 0.27343 0.71624 0.0
C389 C 0.87205 0.23687 0.77513 0.0
C390 C 0.84596 0.1997 0.74701 0.0
H391 H 0.92886 0.3019 0.78338 0.0
H392 H 0.8683 0.2332 0.80992 0.0
S393 S 0.88852 0.17124 0.63218 0.0
N394 N 0.92705 0.22255 0.64767 0.0
N395 N 0.84674 0.16008 0.67365 0.0
C396 C 0.86345 0.19848 0.7028 0.0
C397 C 0.90616 0.23345 0.68815 0.0
C398 C 0.90629 0.87219 0.22917 0.0
C399 C 0.92797 0.87643 0.27142 0.0
C400 C 0.86747 0.90909 0.21456 0.0
C401 C 0.84489 0.94903 0.24224 0.0
H402 H 0.92265 0.84302 0.20597 0.0
H403 H 0.86012 0.90967 0.17999 0.0
S404 S 0.89588 0.98359 0.35346 0.0
N405 N 0.93247 0.93087 0.33813 0.0
N406 N 0.85172 0.99333 0.31352 0.0
C407 C 0.86576 0.95298 0.28522 0.0
C408 C 0.90882 0.91819 0.29908 0.0
C409 C 0.26541 0.84065 0.71424 0.0
C410 C 0.2215 0.82356 0.7405 0.0
C411 C 0.30243 0.88018 0.72774 0.0
C412 C 0.29478 0.90771 0.7673 0.0
H413 H 0.26836 0.82789 0.6811 0.0
H414 H 0.33507 0.89179 0.70566 0.0
S415 S 0.17696 0.89288 0.84287 0.0
N416 N 0.16928 0.84357 0.80672 0.0
N417 N 0.23343 0.92438 0.82859 0.0
C418 C 0.24894 0.89465 0.79304 0.0
C419 C 0.21352 0.8513 0.78062 0.0
C420 C 0.90563 0.93057 0.73385 0.0
C421 C 0.9223 0.9732 0.76175 0.0
C422 C 0.94318 0.89574 0.71344 0.0
C423 C 0.99949 0.9018 0.71952 0.0
H424 H 0.8629 0.92387 0.72751 0.0
H425 H 0.92776 0.86332 0.69285 0.0
S426 S 0.06492 1.00327 0.79262 0.0
N427 N 0.99954 0.01753 0.79612 0.0
N428 N 0.07005 0.95189 0.75789 0.0
C429 C 0.01705 0.94404 0.74743 0.0
C430 C 0.97858 0.97967 0.76844 0.0
C431 C 0.18765 0.02435 0.23061 0.0
C432 C 0.23935 1.00772 0.21587 0.0
C433 C 0.15303 0.98873 0.25414 0.0
C434 C 0.16851 0.93492 0.26355 0.0
H435 H 0.17431 0.06552 0.22481 0.0
H436 H 0.11361 1.00324 0.26455 0.0
S437 S 0.29932 0.87097 0.23152 0.0
N438 N 0.30365 0.93325 0.21208 0.0
N439 N 0.23944 0.86711 0.25572 0.0
C440 C 0.21997 0.9179 0.24862 0.0
C441 C 0.25505 0.95399 0.22497 0.0
C442 C 0.21449 0.23556 0.73309 0.0
C443 C 0.16706 0.21688 0.71187 0.0
C444 C 0.2501 0.19989 0.7547 0.0
C445 C 0.2395 0.14393 0.7569 0.0
H446 H 0.22426 0.27838 0.73338 0.0
H447 H 0.28603 0.21645 0.77025 0.0
S448 S 0.12436 0.07292 0.70311 0.0
N449 N 0.11383 0.13755 0.69196 0.0
N450 N 0.18017 0.0708 0.73315 0.0
C451 C 0.19285 0.12435 0.73527 0.0
C452 C 0.1569 0.16066 0.71261 0.0
C453 C 0.94323 0.26452 0.24566 0.0
C454 C 0.99555 0.24942 0.25969 0.0
C455 C 0.90819 0.22773 0.22465 0.0
C456 C 0.92333 0.17358 0.21628 0.0
H457 H 0.92883 0.30548 0.25088 0.0
H458 H 0.86837 0.24211 0.21522 0.0
S459 S 0.05609 0.11267 0.24565 0.0
N460 N 0.06112 0.17598 0.26299 0.0
N461 N 0.99502 0.10671 0.22377 0.0
C462 C 0.97571 0.1577 0.22975 0.0
C463 C 1.01168 0.19546 0.25137 0.0
loop_
_geom_bond_atom_site_label_1
_geom_bond_atom_site_label_2
_geom_bond_distance
_geom_bond_site_symmetry_2
_ccdc_geom_bond_type
Mn0 O5 2.095 . S
Mn0 O15 2.162 1_545 S
Mn0 O16 2.297 . S
Mn0 O24 2.385 . S
Mn0 O25 2.209 . S
Mn0 O26 2.094 . S
Mn1 O6 2.121 . S
Mn1 N8 2.257 . S
Mn1 N17 2.282 . S
Mn1 O25 2.215 . S
Mn1 O27 2.117 . S
C2 O24 1.234 . S
C2 O25 1.283 . S
C3 O15 1.281 . S
C3 O16 1.236 1_565 S
C4 O26 1.240 . S
C4 O27 1.264 . S
O5 Mn0 2.095 . S
O5 C14 1.250 . S
O6 Mn1 2.121 . S
O6 C14 1.258 . S
C7 N8 1.326 . S
C7 C11 1.460 . S
C7 H13 0.929 . S
N8 Mn1 2.257 . S
N8 C7 1.326 . S
N8 C12 1.362 . S
C9 C10 1.258 . S
C9 C12 1.431 . S
C9 C29 1.449 . S
C10 C9 1.258 . S
C10 C11 1.477 . S
C10 H30 0.931 . S
C11 C7 1.460 . S
C11 C10 1.477 . S
C11 H31 0.930 . S
C12 N8 1.362 . S
C12 C9 1.431 . S
C12 C22 1.476 . S
H13 C7 0.929 . S
C14 O5 1.250 . S
C14 O6 1.258 . S
O15 Mn0 2.162 1_565 S
O15 C3 1.281 . S
O16 Mn0 2.297 . S
O16 C3 1.236 1_545 S
N17 Mn1 2.282 . S
N17 C18 1.328 . S
N17 C22 1.318 . S
C18 N17 1.328 . S
C18 C19 1.457 . S
C18 H23 0.929 . S
C19 C18 1.457 . S
C19 C20 1.291 . S
C19 H32 0.931 . S
C20 C19 1.291 . S
C20 C21 1.373 . S
C20 H33 0.929 . S
C21 C20 1.373 . S
C21 C22 1.396 . S
C21 C28 1.403 . S
C22 C12 1.476 . S
C22 N17 1.318 . S
C22 C21 1.396 . S
H23 C18 0.929 . S
O24 Mn0 2.385 . S
O24 C2 1.234 . S
O25 Mn0 2.209 . S
O25 Mn1 2.215 . S
O25 C2 1.283 . S
O26 Mn0 2.094 . S
O26 C4 1.240 . S
O27 Mn1 2.117 . S
O27 C4 1.264 . S
C28 C21 1.403 . S
C28 C29 1.399 . S
C28 H34 0.929 . S
C29 C9 1.449 . S
C29 C28 1.399 . S
C29 H35 0.930 . S
H30 C10 0.931 . S
H31 C11 0.930 . S
H32 C19 0.931 . S
H33 C20 0.929 . S
H34 C28 0.929 . S
H35 C29 0.930 . S
Mn36 O41 2.095 . S
Mn36 O51 2.162 . S
Mn36 O52 2.297 . S
Mn36 O60 2.385 . S
Mn36 O61 2.209 1_455 S
Mn36 O62 2.094 . S
Mn37 O42 2.121 . S
Mn37 N44 2.257 . S
Mn37 N53 2.282 . S
Mn37 O61 2.215 . S
Mn37 O63 2.117 . S
C38 O60 1.234 1_655 S
C38 O61 1.283 . S
C39 O51 1.281 . S
C39 O52 1.236 . S
C40 O62 1.240 . S
C40 O63 1.264 1_455 S
O41 Mn36 2.095 . S
O41 C50 1.250 . S
O42 Mn37 2.121 . S
O42 C50 1.258 1_655 S
C43 N44 1.326 . S
C43 C47 1.460 . S
C43 H49 0.929 . S
N44 Mn37 2.257 . S
N44 C43 1.326 . S
N44 C48 1.362 . S
C45 C46 1.258 . S
C45 C48 1.431 . S
C45 C65 1.449 . S
C46 C45 1.258 . S
C46 C47 1.477 . S
C46 H66 0.931 . S
C47 C43 1.460 . S
C47 C46 1.477 . S
C47 H67 0.930 . S
C48 N44 1.362 . S
C48 C45 1.431 . S
C48 C58 1.476 . S
H49 C43 0.929 . S
C50 O41 1.250 . S
C50 O42 1.258 1_455 S
O51 Mn36 2.162 . S
O51 C39 1.281 . S
O52 Mn36 2.297 . S
O52 C39 1.236 . S
N53 Mn37 2.282 . S
N53 C54 1.328 . S
N53 C58 1.318 . S
C54 N53 1.328 . S
C54 C55 1.457 . S
C54 H59 0.929 . S
C55 C54 1.457 . S
C55 C56 1.291 . S
C55 H68 0.931 . S
C56 C55 1.291 . S
C56 C57 1.373 . S
C56 H69 0.929 . S
C57 C56 1.373 . S
C57 C58 1.396 . S
C57 C64 1.403 . S
C58 C48 1.476 . S
C58 N53 1.318 . S
C58 C57 1.396 . S
H59 C54 0.929 . S
O60 Mn36 2.385 . S
O60 C38 1.234 1_455 S
O61 Mn36 2.209 1_655 S
O61 Mn37 2.215 . S
O61 C38 1.283 . S
O62 Mn36 2.094 . S
O62 C40 1.240 . S
O63 Mn37 2.117 . S
O63 C40 1.264 1_655 S
C64 C57 1.403 . S
C64 C65 1.399 . S
C64 H70 0.929 . S
C65 C45 1.449 . S
C65 C64 1.399 . S
C65 H71 0.930 . S
H66 C46 0.931 . S
H67 C47 0.930 . S
H68 C55 0.931 . S
H69 C56 0.929 . S
H70 C64 0.929 . S
H71 C65 0.930 . S
Mn72 O77 2.095 . S
Mn72 O87 2.162 . S
Mn72 O88 2.297 . S
Mn72 O96 2.385 . S
Mn72 O97 2.209 1_545 S
Mn72 O98 2.094 . S
Mn73 O78 2.121 . S
Mn73 N80 2.257 . S
Mn73 N89 2.282 . S
Mn73 O97 2.215 . S
Mn73 O99 2.117 . S
C74 O96 1.234 1_565 S
C74 O97 1.283 . S
C75 O87 1.281 . S
C75 O88 1.236 . S
C76 O98 1.240 . S
C76 O99 1.264 1_545 S
O77 Mn72 2.095 . S
O77 C86 1.250 . S
O78 Mn73 2.121 . S
O78 C86 1.258 1_565 S
C79 N80 1.326 . S
C79 C83 1.460 . S
C79 H85 0.929 . S
N80 Mn73 2.257 . S
N80 C79 1.326 . S
N80 C84 1.362 . S
C81 C82 1.258 . S
C81 C84 1.431 . S
C81 C101 1.449 . S
C82 C81 1.258 . S
C82 C83 1.477 . S
C82 H102 0.931 . S
C83 C79 1.460 . S
C83 C82 1.477 . S
C83 H103 0.930 . S
C84 N80 1.362 . S
C84 C81 1.431 . S
C84 C94 1.476 . S
H85 C79 0.929 . S
C86 O77 1.250 . S
C86 O78 1.258 1_545 S
O87 Mn72 2.162 . S
O87 C75 1.281 . S
O88 Mn72 2.297 . S
O88 C75 1.236 . S
N89 Mn73 2.282 . S
N89 C90 1.328 . S
N89 C94 1.318 . S
C90 N89 1.328 . S
C90 C91 1.457 . S
C90 H95 0.929 . S
C91 C90 1.457 . S
C91 C92 1.291 . S
C91 H104 0.931 . S
C92 C91 1.291 . S
C92 C93 1.373 . S
C92 H105 0.929 . S
C93 C92 1.373 . S
C93 C94 1.396 . S
C93 C100 1.403 . S
C94 C84 1.476 . S
C94 N89 1.318 . S
C94 C93 1.396 . S
H95 C90 0.929 . S
O96 Mn72 2.385 . S
O96 C74 1.234 1_545 S
O97 Mn72 2.209 1_565 S
O97 Mn73 2.215 . S
O97 C74 1.283 . S
O98 Mn72 2.094 . S
O98 C76 1.240 . S
O99 Mn73 2.117 . S
O99 C76 1.264 1_565 S
C100 C93 1.403 . S
C100 C101 1.399 . S
C100 H106 0.929 . S
C101 C81 1.449 . S
C101 C100 1.399 . S
C101 H107 0.930 . S
H102 C82 0.931 . S
H103 C83 0.930 . S
H104 C91 0.931 . S
H105 C92 0.929 . S
H106 C100 0.929 . S
H107 C101 0.930 . S
Mn108 O113 2.095 . S
Mn108 O123 2.162 1_455 S
Mn108 O124 2.297 . S
Mn108 O132 2.385 . S
Mn108 O133 2.209 . S
Mn108 O134 2.094 . S
Mn109 O114 2.121 . S
Mn109 N116 2.257 . S
Mn109 N125 2.282 . S
Mn109 O133 2.215 . S
Mn109 O135 2.117 . S
C110 O132 1.234 . S
C110 O133 1.283 . S
C111 O123 1.281 . S
C111 O124 1.236 1_655 S
C112 O134 1.240 . S
C112 O135 1.264 . S
O113 Mn108 2.095 . S
O113 C122 1.250 . S
O114 Mn109 2.121 . S
O114 C122 1.258 . S
C115 N116 1.326 . S
C115 C119 1.460 . S
C115 H121 0.929 . S
N116 Mn109 2.257 . S
N116 C115 1.326 . S
N116 C120 1.362 . S
C117 C118 1.258 . S
C117 C120 1.431 . S
C117 C137 1.449 . S
C118 C117 1.258 . S
C118 C119 1.477 . S
C118 H138 0.931 . S
C119 C115 1.460 . S
C119 C118 1.477 . S
C119 H139 0.930 . S
C120 N116 1.362 . S
C120 C117 1.431 . S
C120 C130 1.476 . S
H121 C115 0.929 . S
C122 O113 1.250 . S
C122 O114 1.258 . S
O123 Mn108 2.162 1_655 S
O123 C111 1.281 . S
O124 Mn108 2.297 . S
O124 C111 1.236 1_455 S
N125 Mn109 2.282 . S
N125 C126 1.328 . S
N125 C130 1.318 . S
C126 N125 1.328 . S
C126 C127 1.457 . S
C126 H131 0.929 . S
C127 C126 1.457 . S
C127 C128 1.291 . S
C127 H140 0.931 . S
C128 C127 1.291 . S
C128 C129 1.373 . S
C128 H141 0.929 . S
C129 C128 1.373 . S
C129 C130 1.396 . S
C129 C136 1.403 . S
C130 C120 1.476 . S
C130 N125 1.318 . S
C130 C129 1.396 . S
H131 C126 0.929 . S
O132 Mn108 2.385 . S
O132 C110 1.234 . S
O133 Mn108 2.209 . S
O133 Mn109 2.215 . S
O133 C110 1.283 . S
O134 Mn108 2.094 . S
O134 C112 1.240 . S
O135 Mn109 2.117 . S
O135 C112 1.264 . S
C136 C129 1.403 . S
C136 C137 1.399 . S
C136 H142 0.929 . S
C137 C117 1.449 . S
C137 C136 1.399 . S
C137 H143 0.930 . S
H138 C118 0.931 . S
H139 C119 0.930 . S
H140 C127 0.931 . S
H141 C128 0.929 . S
H142 C136 0.929 . S
H143 C137 0.930 . S
Mn144 O149 2.095 . S
Mn144 O159 2.162 . S
Mn144 O160 2.297 . S
Mn144 O168 2.385 . S
Mn144 O169 2.209 1_545 S
Mn144 O170 2.094 . S
Mn145 O150 2.121 . S
Mn145 N152 2.257 . S
Mn145 N161 2.282 . S
Mn145 O169 2.215 . S
Mn145 O171 2.117 . S
C146 O168 1.234 1_565 S
C146 O169 1.283 . S
C147 O159 1.281 . S
C147 O160 1.236 . S
C148 O170 1.240 . S
C148 O171 1.264 1_545 S
O149 Mn144 2.095 . S
O149 C158 1.250 . S
O150 Mn145 2.121 . S
O150 C158 1.258 1_565 S
C151 N152 1.326 . S
C151 C155 1.460 . S
C151 H157 0.929 . S
N152 Mn145 2.257 . S
N152 C151 1.326 . S
N152 C156 1.362 . S
C153 C154 1.258 . S
C153 C156 1.431 . S
C153 C173 1.449 . S
C154 C153 1.258 . S
C154 C155 1.477 . S
C154 H174 0.931 . S
C155 C151 1.460 . S
C155 C154 1.477 . S
C155 H175 0.930 . S
C156 N152 1.362 . S
C156 C153 1.431 . S
C156 C166 1.476 . S
H157 C151 0.929 . S
C158 O149 1.250 . S
C158 O150 1.258 1_545 S
O159 Mn144 2.162 . S
O159 C147 1.281 . S
O160 Mn144 2.297 . S
O160 C147 1.236 . S
N161 Mn145 2.282 . S
N161 C162 1.328 . S
N161 C166 1.318 . S
C162 N161 1.328 . S
C162 C163 1.457 . S
C162 H167 0.929 . S
C163 C162 1.457 . S
C163 C164 1.291 . S
C163 H176 0.931 . S
C164 C163 1.291 . S
C164 C165 1.373 . S
C164 H177 0.929 . S
C165 C164 1.373 . S
C165 C166 1.396 . S
C165 C172 1.403 . S
C166 C156 1.476 . S
C166 N161 1.318 . S
C166 C165 1.396 . S
H167 C162 0.929 . S
O168 Mn144 2.385 . S
O168 C146 1.234 1_545 S
O169 Mn144 2.209 1_565 S
O169 Mn145 2.215 . S
O169 C146 1.283 . S
O170 Mn144 2.094 . S
O170 C148 1.240 . S
O171 Mn145 2.117 . S
O171 C148 1.264 1_565 S
C172 C165 1.403 . S
C172 C173 1.399 . S
C172 H178 0.929 . S
C173 C153 1.449 . S
C173 C172 1.399 . S
C173 H179 0.930 . S
H174 C154 0.931 . S
H175 C155 0.930 . S
H176 C163 0.931 . S
H177 C164 0.929 . S
H178 C172 0.929 . S
H179 C173 0.930 . S
Mn180 O185 2.095 . S
Mn180 O195 2.162 1_455 S
Mn180 O196 2.297 . S
Mn180 O204 2.385 . S
Mn180 O205 2.209 . S
Mn180 O206 2.094 . S
Mn181 O186 2.121 . S
Mn181 N188 2.257 . S
Mn181 N197 2.282 . S
Mn181 O205 2.215 . S
Mn181 O207 2.117 . S
C182 O204 1.234 . S
C182 O205 1.283 . S
C183 O195 1.281 . S
C183 O196 1.236 1_655 S
C184 O206 1.240 . S
C184 O207 1.264 . S
O185 Mn180 2.095 . S
O185 C194 1.250 . S
O186 Mn181 2.121 . S
O186 C194 1.258 . S
C187 N188 1.326 . S
C187 C191 1.460 . S
C187 H193 0.929 . S
N188 Mn181 2.257 . S
N188 C187 1.326 . S
N188 C192 1.362 . S
C189 C190 1.258 . S
C189 C192 1.431 . S
C189 C209 1.449 . S
C190 C189 1.258 . S
C190 C191 1.477 . S
C190 H210 0.931 . S
C191 C187 1.460 . S
C191 C190 1.477 . S
C191 H211 0.930 . S
C192 N188 1.362 . S
C192 C189 1.431 . S
C192 C202 1.476 . S
H193 C187 0.929 . S
C194 O185 1.250 . S
C194 O186 1.258 . S
O195 Mn180 2.162 1_655 S
O195 C183 1.281 . S
O196 Mn180 2.297 . S
O196 C183 1.236 1_455 S
N197 Mn181 2.282 . S
N197 C198 1.328 . S
N197 C202 1.318 . S
C198 N197 1.328 . S
C198 C199 1.457 . S
C198 H203 0.929 . S
C199 C198 1.457 . S
C199 C200 1.291 . S
C199 H212 0.931 . S
C200 C199 1.291 . S
C200 C201 1.373 . S
C200 H213 0.929 . S
C201 C200 1.373 . S
C201 C202 1.396 . S
C201 C208 1.403 . S
C202 C192 1.476 . S
C202 N197 1.318 . S
C202 C201 1.396 . S
H203 C198 0.929 . S
O204 Mn180 2.385 . S
O204 C182 1.234 . S
O205 Mn180 2.209 . S
O205 Mn181 2.215 . S
O205 C182 1.283 . S
O206 Mn180 2.094 . S
O206 C184 1.240 . S
O207 Mn181 2.117 . S
O207 C184 1.264 . S
C208 C201 1.403 . S
C208 C209 1.399 . S
C208 H214 0.929 . S
C209 C189 1.449 . S
C209 C208 1.399 . S
C209 H215 0.930 . S
H210 C190 0.931 . S
H211 C191 0.930 . S
H212 C199 0.931 . S
H213 C200 0.929 . S
H214 C208 0.929 . S
H215 C209 0.930 . S
Mn216 O221 2.095 . S
Mn216 O231 2.162 1_545 S
Mn216 O232 2.297 . S
Mn216 O240 2.385 . S
Mn216 O241 2.209 . S
Mn216 O242 2.094 . S
Mn217 O222 2.121 . S
Mn217 N224 2.257 . S
Mn217 N233 2.282 . S
Mn217 O241 2.215 . S
Mn217 O243 2.117 . S
C218 O240 1.234 . S
C218 O241 1.283 . S
C219 O231 1.281 . S
C219 O232 1.236 1_565 S
C220 O242 1.240 . S
C220 O243 1.264 . S
O221 Mn216 2.095 . S
O221 C230 1.250 . S
O222 Mn217 2.121 . S
O222 C230 1.258 . S
C223 N224 1.326 . S
C223 C227 1.460 . S
C223 H229 0.929 . S
N224 Mn217 2.257 . S
N224 C223 1.326 . S
N224 C228 1.362 . S
C225 C226 1.258 . S
C225 C228 1.431 . S
C225 C245 1.449 . S
C226 C225 1.258 . S
C226 C227 1.477 . S
C226 H246 0.931 . S
C227 C223 1.460 . S
C227 C226 1.477 . S
C227 H247 0.930 . S
C228 N224 1.362 . S
C228 C225 1.431 . S
C228 C238 1.476 . S
H229 C223 0.929 . S
C230 O221 1.250 . S
C230 O222 1.258 . S
O231 Mn216 2.162 1_565 S
O231 C219 1.281 . S
O232 Mn216 2.297 . S
O232 C219 1.236 1_545 S
N233 Mn217 2.282 . S
N233 C234 1.328 . S
N233 C238 1.318 . S
C234 N233 1.328 . S
C234 C235 1.457 . S
C234 H239 0.929 . S
C235 C234 1.457 . S
C235 C236 1.291 . S
C235 H248 0.931 . S
C236 C235 1.291 . S
C236 C237 1.373 . S
C236 H249 0.929 . S
C237 C236 1.373 . S
C237 C238 1.396 . S
C237 C244 1.403 . S
C238 C228 1.476 . S
C238 N233 1.318 . S
C238 C237 1.396 . S
H239 C234 0.929 . S
O240 Mn216 2.385 . S
O240 C218 1.234 . S
O241 Mn216 2.209 . S
O241 Mn217 2.215 . S
O241 C218 1.283 . S
O242 Mn216 2.094 . S
O242 C220 1.240 . S
O243 Mn217 2.117 . S
O243 C220 1.264 . S
C244 C237 1.403 . S
C244 C245 1.399 . S
C244 H250 0.929 . S
C245 C225 1.449 . S
C245 C244 1.399 . S
C245 H251 0.930 . S
H246 C226 0.931 . S
H247 C227 0.930 . S
H248 C235 0.931 . S
H249 C236 0.929 . S
H250 C244 0.929 . S
H251 C245 0.930 . S
Mn252 O257 2.095 . S
Mn252 O267 2.162 . S
Mn252 O268 2.297 . S
Mn252 O276 2.385 . S
Mn252 O277 2.209 1_455 S
Mn252 O278 2.094 . S
Mn253 O258 2.121 . S
Mn253 N260 2.257 . S
Mn253 N269 2.282 . S
Mn253 O277 2.215 . S
Mn253 O279 2.117 . S
C254 O276 1.234 1_655 S
C254 O277 1.283 . S
C255 O267 1.281 . S
C255 O268 1.236 . S
C256 O278 1.240 . S
C256 O279 1.264 1_455 S
O257 Mn252 2.095 . S
O257 C266 1.250 . S
O258 Mn253 2.121 . S
O258 C266 1.258 1_655 S
C259 N260 1.326 . S
C259 C263 1.460 . S
C259 H265 0.929 . S
N260 Mn253 2.257 . S
N260 C259 1.326 . S
N260 C264 1.362 . S
C261 C262 1.258 . S
C261 C264 1.431 . S
C261 C281 1.449 . S
C262 C261 1.258 . S
C262 C263 1.477 . S
C262 H282 0.931 . S
C263 C259 1.460 . S
C263 C262 1.477 . S
C263 H283 0.930 . S
C264 N260 1.362 . S
C264 C261 1.431 . S
C264 C274 1.476 . S
H265 C259 0.929 . S
C266 O257 1.250 . S
C266 O258 1.258 1_455 S
O267 Mn252 2.162 . S
O267 C255 1.281 . S
O268 Mn252 2.297 . S
O268 C255 1.236 . S
N269 Mn253 2.282 . S
N269 C270 1.328 . S
N269 C274 1.318 . S
C270 N269 1.328 . S
C270 C271 1.457 . S
C270 H275 0.929 . S
C271 C270 1.457 . S
C271 C272 1.291 . S
C271 H284 0.931 . S
C272 C271 1.291 . S
C272 C273 1.373 . S
C272 H285 0.929 . S
C273 C272 1.373 . S
C273 C274 1.396 . S
C273 C280 1.403 . S
C274 C264 1.476 . S
C274 N269 1.318 . S
C274 C273 1.396 . S
H275 C270 0.929 . S
O276 Mn252 2.385 . S
O276 C254 1.234 1_455 S
O277 Mn252 2.209 1_655 S
O277 Mn253 2.215 . S
O277 C254 1.283 . S
O278 Mn252 2.094 . S
O278 C256 1.240 . S
O279 Mn253 2.117 . S
O279 C256 1.264 1_655 S
C280 C273 1.403 . S
C280 C281 1.399 . S
C280 H286 0.929 . S
C281 C261 1.449 . S
C281 C280 1.399 . S
C281 H287 0.930 . S
H282 C262 0.931 . S
H283 C263 0.930 . S
H284 C271 0.931 . S
H285 C272 0.929 . S
H286 C280 0.929 . S
H287 C281 0.930 . S
C288 C289 1.369 . S
C288 C290 1.419 1_554 S
C288 H292 0.930 1_545 S
C289 C288 1.369 . S
C289 C298 1.429 . S
C290 C288 1.419 1_556 S
C290 C291 1.363 . S
C290 H293 0.929 1_545 S
C291 C290 1.363 . S
C291 C297 1.428 . S
H292 C288 0.930 1_565 S
H293 C290 0.929 1_565 S
S294 N295 1.613 1_556 S
S294 N296 1.610 . S
N295 S294 1.613 1_554 S
N295 C298 1.350 . S
N296 S294 1.610 . S
N296 C297 1.351 . S
C297 C291 1.428 . S
C297 N296 1.351 . S
C297 C298 1.434 1_556 S
C298 C289 1.429 . S
C298 N295 1.350 . S
C298 C297 1.434 1_554 S
C299 C300 1.369 . S
C299 C301 1.419 . S
C299 H303 0.930 1_455 S
C300 C299 1.369 . S
C300 C309 1.429 . S
C301 C299 1.419 . S
C301 C302 1.363 . S
C301 H304 0.920 1_455 S
C302 C301 1.363 . S
C302 C308 1.428 . S
H303 C299 0.930 1_655 S
H304 C301 0.920 1_655 S
S305 N306 1.613 . S
S305 N307 1.610 . S
N306 S305 1.613 . S
N306 C309 1.350 . S
N307 S305 1.610 . S
N307 C308 1.351 . S
C308 C302 1.428 . S
C308 N307 1.351 . S
C308 C309 1.434 . S
C309 C300 1.429 . S
C309 N306 1.350 . S
C309 C308 1.434 . S
C310 C311 1.369 . S
C310 C312 1.419 1_556 S
C310 H314 0.930 . S
C311 C310 1.369 . S
C311 C320 1.429 . S
C312 C310 1.419 1_554 S
C312 C313 1.363 . S
C312 H315 0.929 . S
C313 C312 1.363 . S
C313 C319 1.428 . S
H314 C310 0.930 . S
H315 C312 0.929 . S
S316 N317 1.613 . S
S316 N318 1.610 1_556 S
N317 S316 1.613 . S
N317 C320 1.350 1_565 S
N318 S316 1.610 1_554 S
N318 C319 1.351 1_565 S
C319 C313 1.428 . S
C319 N318 1.351 1_545 S
C319 C320 1.434 1_554 S
C320 C311 1.429 . S
C320 N317 1.350 1_545 S
C320 C319 1.434 1_556 S
C321 C322 1.369 . S
C321 C323 1.419 . S
C321 H325 0.930 1_455 S
C322 C321 1.369 . S
C322 C331 1.429 . S
C323 C321 1.419 . S
C323 C324 1.363 . S
C323 H326 0.929 1_455 S
C324 C323 1.363 . S
C324 C330 1.428 . S
H325 C321 0.930 1_655 S
H326 C323 0.929 1_655 S
S327 N328 1.613 . S
S327 N329 1.610 . S
N328 S327 1.613 . S
N328 C331 1.350 . S
N329 S327 1.610 . S
N329 C330 1.351 . S
C330 C324 1.428 . S
C330 N329 1.351 . S
C330 C331 1.434 . S
C331 C322 1.429 . S
C331 N328 1.350 . S
C331 C330 1.434 . S
C332 C333 1.369 . S
C332 C334 1.419 . S
C332 H336 0.930 . S
C333 C332 1.369 . S
C333 C342 1.429 . S
C334 C332 1.419 . S
C334 C335 1.363 . S
C334 H337 0.929 1_545 S
C335 C334 1.363 . S
C335 C341 1.428 . S
H336 C332 0.930 . S
H337 C334 0.929 1_565 S
S338 N339 1.613 . S
S338 N340 1.610 . S
N339 S338 1.613 . S
N339 C342 1.350 . S
N340 S338 1.610 . S
N340 C341 1.351 . S
C341 C335 1.428 . S
C341 N340 1.351 . S
C341 C342 1.434 . S
C342 C333 1.429 . S
C342 N339 1.350 . S
C342 C341 1.434 . S
C343 C344 1.369 . S
C343 C345 1.419 . S
C343 H347 0.930 . S
C344 C343 1.369 . S
C344 C353 1.429 . S
C345 C343 1.419 . S
C345 C346 1.363 . S
C345 H348 0.929 . S
C346 C345 1.363 . S
C346 C352 1.428 . S
H347 C343 0.930 . S
H348 C345 0.929 . S
S349 N350 1.613 . S
S349 N351 1.610 . S
N350 S349 1.613 . S
N350 C353 1.350 1_655 S
N351 S349 1.610 . S
N351 C352 1.351 1_655 S
C352 C346 1.428 . S
C352 N351 1.351 1_455 S
C352 C353 1.434 . S
C353 C344 1.429 . S
C353 N350 1.350 1_455 S
C353 C352 1.434 . S
C354 C355 1.369 . S
C354 C356 1.419 . S
C354 H358 0.930 . S
C355 C354 1.369 . S
C355 C364 1.429 . S
C356 C354 1.419 . S
C356 C357 1.363 . S
C356 H359 0.929 . S
C357 C356 1.363 . S
C357 C363 1.428 . S
H358 C354 0.930 . S
H359 C356 0.929 . S
S360 N361 1.613 . S
S360 N362 1.610 . S
N361 S360 1.613 . S
N361 C364 1.350 . S
N362 S360 1.610 . S
N362 C363 1.351 . S
C363 C357 1.428 . S
C363 N362 1.351 . S
C363 C364 1.434 . S
C364 C355 1.429 . S
C364 N361 1.350 . S
C364 C363 1.434 . S
C365 C366 1.369 . S
C365 C367 1.419 . S
C365 H369 0.930 . S
C366 C365 1.369 . S
C366 C375 1.429 . S
C367 C365 1.419 . S
C367 C368 1.363 . S
C367 H370 0.929 1_455 S
C368 C367 1.363 . S
C368 C374 1.428 . S
H369 C365 0.930 . S
H370 C367 0.929 1_655 S
S371 N372 1.613 . S
S371 N373 1.610 . S
N372 S371 1.613 . S
N372 C375 1.350 . S
N373 S371 1.610 . S
N373 C374 1.351 . S
C374 C368 1.428 . S
C374 N373 1.351 . S
C374 C375 1.434 . S
C375 C366 1.429 . S
C375 N372 1.350 . S
C375 C374 1.434 . S
C376 C377 1.369 . S
C376 C378 1.419 . S
C376 H380 0.930 . S
C377 C376 1.369 . S
C377 C386 1.429 . S
C378 C376 1.419 . S
C378 C379 1.363 . S
C378 H381 0.929 . S
C379 C378 1.363 . S
C379 C385 1.428 . S
H380 C376 0.930 . S
H381 C378 0.929 . S
S382 N383 1.613 . S
S382 N384 1.610 . S
N383 S382 1.613 . S
N383 C386 1.350 . S
N384 S382 1.610 . S
N384 C385 1.351 . S
C385 C379 1.428 . S
C385 N384 1.351 . S
C385 C386 1.434 . S
C386 C377 1.429 . S
C386 N383 1.350 . S
C386 C385 1.434 . S
C387 C388 1.369 . S
C387 C389 1.419 . S
C387 H391 0.930 . S
C388 C387 1.369 . S
C388 C397 1.429 . S
C389 C387 1.419 . S
C389 C390 1.363 . S
C389 H392 0.929 . S
C390 C389 1.363 . S
C390 C396 1.428 . S
H391 C387 0.930 . S
H392 C389 0.929 . S
S393 N394 1.613 . S
S393 N395 1.610 . S
N394 S393 1.613 . S
N394 C397 1.350 . S
N395 S393 1.610 . S
N395 C396 1.351 . S
C396 C390 1.428 . S
C396 N395 1.351 . S
C396 C397 1.434 . S
C397 C388 1.429 . S
C397 N394 1.350 . S
C397 C396 1.434 . S
C398 C399 1.369 . S
C398 C400 1.419 . S
C398 H402 0.930 . S
C399 C398 1.369 . S
C399 C408 1.429 . S
C400 C398 1.419 . S
C400 C401 1.363 . S
C400 H403 0.929 . S
C401 C400 1.363 . S
C401 C407 1.428 . S
H402 C398 0.930 . S
H403 C400 0.929 . S
S404 N405 1.613 . S
S404 N406 1.610 . S
N405 S404 1.613 . S
N405 C408 1.350 . S
N406 S404 1.610 . S
N406 C407 1.351 . S
C407 C401 1.428 . S
C407 N406 1.351 . S
C407 C408 1.434 . S
C408 C399 1.429 . S
C408 N405 1.350 . S
C408 C407 1.434 . S
C409 C410 1.369 . S
C409 C411 1.419 . S
C409 H413 0.930 . S
C410 C409 1.369 . S
C410 C419 1.429 . S
C411 C409 1.419 . S
C411 C412 1.363 . S
C411 H414 0.929 . S
C412 C411 1.363 . S
C412 C418 1.428 . S
H413 C409 0.930 . S
H414 C411 0.929 . S
S415 N416 1.613 . S
S415 N417 1.610 . S
N416 S415 1.613 . S
N416 C419 1.350 . S
N417 S415 1.610 . S
N417 C418 1.351 . S
C418 C412 1.428 . S
C418 N417 1.351 . S
C418 C419 1.434 . S
C419 C410 1.429 . S
C419 N416 1.350 . S
C419 C418 1.434 . S
C420 C421 1.369 . S
C420 C422 1.419 . S
C420 H424 0.930 . S
C421 C420 1.369 . S
C421 C430 1.429 . S
C422 C420 1.419 . S
C422 C423 1.363 . S
C422 H425 0.929 . S
C423 C422 1.363 . S
C423 C429 1.428 . S
H424 C420 0.930 . S
H425 C422 0.929 . S
S426 N427 1.613 1_455 S
S426 N428 1.610 . S
N427 S426 1.613 1_655 S
N427 C430 1.350 . S
N428 S426 1.610 . S
N428 C429 1.351 1_455 S
C429 C423 1.428 . S
C429 N428 1.351 1_655 S
C429 C430 1.434 . S
C430 C421 1.429 . S
C430 N427 1.350 . S
C430 C429 1.434 . S
C431 C432 1.369 . S
C431 C433 1.419 . S
C431 H435 0.930 . S
C432 C431 1.369 . S
C432 C441 1.429 . S
C433 C431 1.419 . S
C433 C434 1.363 . S
C433 H436 0.929 . S
C434 C433 1.363 . S
C434 C440 1.428 . S
H435 C431 0.930 . S
H436 C433 0.929 . S
S437 N438 1.613 . S
S437 N439 1.610 . S
N438 S437 1.613 . S
N438 C441 1.350 . S
N439 S437 1.610 . S
N439 C440 1.351 . S
C440 C434 1.428 . S
C440 N439 1.351 . S
C440 C441 1.434 . S
C441 C432 1.429 . S
C441 N438 1.350 . S
C441 C440 1.434 . S
C442 C443 1.369 . S
C442 C444 1.419 . S
C442 H446 0.930 . S
C443 C442 1.369 . S
C443 C452 1.429 . S
C444 C442 1.419 . S
C444 C445 1.363 . S
C444 H447 0.929 . S
C445 C444 1.363 . S
C445 C451 1.428 . S
H446 C442 0.930 . S
H447 C444 0.929 . S
S448 N449 1.613 . S
S448 N450 1.610 . S
N449 S448 1.613 . S
N449 C452 1.350 . S
N450 S448 1.610 . S
N450 C451 1.351 . S
C451 C445 1.428 . S
C451 N450 1.351 . S
C451 C452 1.434 . S
C452 C443 1.429 . S
C452 N449 1.350 . S
C452 C451 1.434 . S
C453 C454 1.369 . S
C453 C455 1.419 . S
C453 H457 0.930 . S
C454 C453 1.369 . S
C454 C463 1.429 . S
C455 C453 1.419 . S
C455 C456 1.363 . S
C455 H458 0.929 . S
C456 C455 1.363 . S
C456 C462 1.428 . S
H457 C453 0.930 . S
H458 C455 0.929 . S
S459 N460 1.613 . S
S459 N461 1.610 . S
N460 S459 1.613 . S
N460 C463 1.350 . S
N461 S459 1.610 . S
N461 C462 1.351 . S
C462 C456 1.428 . S
C462 N461 1.351 . S
C462 C463 1.434 . S
C463 C454 1.429 . S
C463 N460 1.350 . S
C463 C462 1.434 . S
C289 C14 1.485 . S
C291 C158 1.491 . S
C300 C50 1.487 . S
C302 C194 1.484 . S
C311 C230 1.492 . S
C313 C86 1.486 . S
C322 C266 1.488 . S
C324 C122 1.484 . S
C333 C4 1.436 . S
C335 C76 1.433 . S
C344 C40 1.438 . S
C346 C112 1.433 . S
C355 C220 1.433 . S
C357 C148 1.435 . S
C366 C184 1.437 . S
C368 C256 1.433 . S
C377 C182 1.401 . S
C379 C2 1.400 . S
C388 C38 1.401 . S
C390 C218 1.401 . S
C399 C254 1.397 . S
C401 C74 1.398 . S
C410 C110 1.401 . S
C412 C146 1.400 . S
C421 C219 1.357 . S
C423 C111 1.357 . S
C432 C3 1.357 . S
C434 C255 1.357 . S
C443 C39 1.357 . S
C445 C147 1.357 . S
C454 C183 1.357 . S
C456 C75 1.358 . S
