# Generated by pormake.
# Topology wlj, (5)-cn, num edge types: 1
# Building blocks:
#     Node 0, Type 0, BuildingBlock: XOMCOT_clean_sbu_1, # of connection points: 5
#     Node 1, Type 0, BuildingBlock: XOMCOT_clean_sbu_1, # of connection points: 5
#     Node 2, Type 0, BuildingBlock: XOMCOT_clean_sbu_1, # of connection points: 5
#     Node 3, Type 0, BuildingBlock: XOMCOT_clean_sbu_1, # of connection points: 5
#     Node 4, Type 0, BuildingBlock: XOMCOT_clean_sbu_1, # of connection points: 5
#     Node 5, Type 0, BuildingBlock: XOMCOT_clean_sbu_1, # of connection points: 5
#     Edge 6, Type (0, 0), BuildingBlock: CIFDUS_clean_linker_0, # of connection points: 2
#     Edge 7, Type (0, 0), BuildingBlock: CIFDUS_clean_linker_0, # of connection points: 2
#     Edge 8, Type (0, 0), BuildingBlock: CIFDUS_clean_linker_0, # of connection points: 2
#     Edge 9, Type (0, 0), BuildingBlock: CIFDUS_clean_linker_0, # of connection points: 2
#     Edge 10, Type (0, 0), BuildingBlock: CIFDUS_clean_linker_0, # of connection points: 2
#     Edge 11, Type (0, 0), BuildingBlock: CIFDUS_clean_linker_0, # of connection points: 2
#     Edge 12, Type (0, 0), BuildingBlock: CIFDUS_clean_linker_0, # of connection points: 2
#     Edge 13, Type (0, 0), BuildingBlock: CIFDUS_clean_linker_0, # of connection points: 2
#     Edge 14, Type (0, 0), BuildingBlock: CIFDUS_clean_linker_0, # of connection points: 2
#     Edge 15, Type (0, 0), BuildingBlock: CIFDUS_clean_linker_0, # of connection points: 2
#     Edge 16, Type (0, 0), BuildingBlock: CIFDUS_clean_linker_0, # of connection points: 2
#     Edge 17, Type (0, 0), BuildingBlock: CIFDUS_clean_linker_0, # of connection points: 2
#     Edge 18, Type (0, 0), BuildingBlock: CIFDUS_clean_linker_0, # of connection points: 2
#     Edge 19, Type (0, 0), BuildingBlock: CIFDUS_clean_linker_0, # of connection points: 2
#     Edge 20, Type (0, 0), BuildingBlock: CIFDUS_clean_linker_0, # of connection points: 2
# Relax obj value: 0.133
# Max RMSD: 0.180
# Mean RMSD: 0.180
data_MOF--net-wlj--node1-XOMCOT_clean_sbu_1--edge1-CIFDUS_clean_linker_0
_symmetry_space_group_name_H-M    P1
_symmetry_Int_Tables_number       1
_symmetry_cell_setting            triclinic
loop_
_symmetry_equiv_pos_as_xyz
'x, y, z'
_cell_length_a     22.476458
_cell_length_b     22.646
_cell_length_c     47.305119
_cell_angle_alpha  89.942379
_cell_angle_beta   89.998353
_cell_angle_gamma 119.92495
loop_
_atom_site_label
_atom_site_type_symbol
_atom_site_fract_x
_atom_site_fract_y
_atom_site_fract_z
_atom_type_partial_charge
C0 C 0.6961 0.2568 0.32742 0.0
C1 C 0.68242 0.20605 0.34676 0.0
N2 N 0.61436 0.16196 0.34687 0.0
N3 N 0.63713 0.24487 0.31485 0.0
C4 C 0.58816 0.18788 0.32793 0.0
H5 H 0.74655 0.29878 0.3228 0.0
Co6 Co 0.62223 0.2917 0.28447 0.0
C7 C 0.55702 0.14792 0.26408 0.0
O8 O 0.60922 0.14325 0.27393 0.0
N9 N 0.60655 0.33697 0.25469 0.0
C10 C 0.58218 0.35876 0.21177 0.0
C11 C 0.58146 0.30999 0.22898 0.0
C12 C 0.62135 0.40262 0.25261 0.0
N13 N 0.60745 0.41705 0.22648 0.0
O14 O 0.55053 0.29433 0.306 0.0
H15 H 0.56479 0.25839 0.22253 0.0
H16 H 0.64332 0.43933 0.26958 0.0
O17 O 0.55592 0.20348 0.26731 0.0
C18 C 0.57598 0.34176 0.32451 0.0
O19 O 0.64291 0.37491 0.32799 0.0
N20 N 0.6978 0.29912 0.26383 0.0
C21 C 0.81921 0.35006 0.23251 0.0
C22 C 0.75845 0.29406 0.22269 0.0
C23 C 0.698 0.26926 0.23867 0.0
C24 C 0.75643 0.35464 0.27309 0.0
C25 C 0.81792 0.37975 0.25824 0.0
H26 H 0.65127 0.22936 0.2296 0.0
H27 H 0.75464 0.38173 0.29159 0.0
H28 H 0.53439 0.16378 0.32238 0.0
H29 H 0.7201 0.20189 0.35953 0.0
H30 H 0.56493 0.35182 0.19002 0.0
H31 H 0.75726 0.27102 0.20249 0.0
H32 H 0.86334 0.4245 0.26606 0.0
C33 C 0.77882 0.38966 1.01217 0.0
C34 C 0.83547 0.43448 1.02748 0.0
N35 N 0.89035 0.4621 1.01013 0.0
N36 N 0.79727 0.38842 0.98517 0.0
C37 C 0.86565 0.43325 0.98452 0.0
H38 H 0.72719 0.35978 1.02028 0.0
Co39 Co 0.73459 0.33486 0.95705 0.0
C40 C 0.82454 0.33735 0.90778 0.0
O41 O 0.77477 0.31467 0.8891 0.0
N42 N 0.66824 0.2799 0.93004 0.0
C43 C 0.56671 0.22907 0.90831 0.0
C44 C 0.61188 0.28449 0.92398 0.0
C45 C 0.65539 0.22029 0.91807 0.0
N46 N 0.59432 0.18904 0.90457 0.0
O47 O 0.725 0.25335 0.97458 0.0
H48 H 0.60204 0.32363 0.93174 0.0
H49 H 0.68859 0.19866 0.92031 0.0
O50 O 0.81287 0.34568 0.93358 0.0
C51 C 0.67006 0.22466 0.98938 0.0
O52 O 0.63301 0.25472 0.99092 0.0
N53 N 0.73755 0.41338 0.94174 0.0
C54 C 0.69398 0.50016 0.91991 0.0
C55 C 0.73517 0.48266 0.90373 0.0
C56 C 0.75702 0.43959 0.91513 0.0
C57 C 0.70259 0.43467 0.95852 0.0
C58 C 0.68051 0.47817 0.9481 0.0
H59 H 0.78568 0.42481 0.90171 0.0
H60 H 0.68598 0.41267 0.97931 0.0
H61 H 0.89661 0.44495 0.96562 0.0
H62 H 0.83628 0.44446 0.04988 0.0
H63 H 0.5168 0.21817 0.90071 0.0
H64 H 0.7478 0.49962 0.88201 0.0
H65 H 0.64842 0.48983 0.96134 0.0
C66 C 0.60358 0.34988 0.6664 0.0
C67 C 0.55786 0.35948 0.68245 0.0
N68 N 0.56713 0.42201 0.67692 0.0
N69 N 0.64175 0.40583 0.65055 0.0
C70 C 0.61922 0.44917 0.65782 0.0
H71 H 0.60692 0.30392 0.66559 0.0
Co72 Co 0.70452 0.41617 0.62166 0.0
C73 C 0.70069 0.523 0.58442 0.0
O74 O 0.7666 0.55351 0.57863 0.0
N75 N 0.76621 0.42581 0.59261 0.0
C76 C 0.80819 0.42501 0.55012 0.0
C77 C 0.7519 0.41722 0.56469 0.0
C78 C 0.83173 0.43846 0.59443 0.0
N79 N 0.85852 0.43832 0.56881 0.0
O80 O 0.77726 0.49494 0.64048 0.0
H81 H 0.70358 0.40636 0.55537 0.0
H82 H 0.85898 0.44646 0.61416 0.0
O83 O 0.67369 0.4706 0.60049 0.0
C84 C 0.8 0.47306 0.66031 0.0
O85 O 0.76618 0.40742 0.66586 0.0
N86 N 0.63814 0.33512 0.60499 0.0
C87 C 0.5641 0.20798 0.579 0.0
C88 C 0.54766 0.25955 0.57389 0.0
C89 C 0.58539 0.32317 0.58725 0.0
C90 C 0.65243 0.28482 0.61116 0.0
C91 C 0.61608 0.22106 0.59856 0.0
H92 H 0.57389 0.36311 0.58253 0.0
H93 H 0.69412 0.29528 0.62546 0.0
H94 H 0.64029 0.4995 0.64879 0.0
H95 H 0.51905 0.32185 0.69623 0.0
H96 H 0.81212 0.42244 0.5274 0.0
H97 H 0.50777 0.2517 0.55901 0.0
H98 H 0.62933 0.18255 0.60394 0.0
C99 C 0.2694 0.6808 0.74838 0.0
C100 C 0.2141 0.67115 0.73223 0.0
N101 N 0.16116 0.60779 0.73707 0.0
N102 N 0.25179 0.62401 0.76355 0.0
C103 C 0.18622 0.58023 0.75583 0.0
H104 H 0.31831 0.72738 0.74993 0.0
Co105 Co 0.30263 0.61244 0.79265 0.0
C106 C 0.1901 0.50661 0.82954 0.0
O107 O 0.22473 0.47541 0.83519 0.0
N108 N 0.3526 0.60111 0.82205 0.0
C109 C 0.39415 0.60225 0.86483 0.0
C110 C 0.34657 0.61063 0.84985 0.0
C111 C 0.40462 0.58734 0.82068 0.0
N112 N 0.43081 0.58769 0.84647 0.0
O113 O 0.29543 0.53329 0.77381 0.0
H114 H 0.30997 0.62328 0.85872 0.0
H115 H 0.42409 0.57881 0.80113 0.0
O116 O 0.21628 0.55925 0.81358 0.0
C117 C 0.34085 0.55543 0.75422 0.0
O118 O 0.37374 0.62124 0.74902 0.0
N119 N 0.31897 0.69397 0.80924 0.0
C120 C 0.37125 0.82155 0.83511 0.0
C121 C 0.30002 0.77409 0.83522 0.0
C122 C 0.27482 0.71004 0.82228 0.0
C123 C 0.38709 0.74033 0.80755 0.0
C124 C 0.41441 0.80316 0.82084 0.0
H125 H 0.22048 0.67348 0.82295 0.0
H126 H 0.42112 0.72686 0.79678 0.0
H127 H 0.15715 0.5294 0.76443 0.0
H128 H 0.21252 0.70928 0.71898 0.0
H129 H 0.40052 0.60567 0.88755 0.0
H130 H 0.26392 0.78582 0.84526 0.0
H131 H 0.46956 0.83568 0.8205 0.0
C132 C 0.39706 0.63021 0.40253 0.0
C133 C 0.40915 0.5858 0.38708 0.0
N134 N 0.44297 0.56369 0.40355 0.0
N135 N 0.42278 0.63635 0.42879 0.0
C136 C 0.4506 0.5952 0.42877 0.0
H137 H 0.37127 0.65669 0.39501 0.0
Co138 Co 0.41632 0.69163 0.45695 0.0
C139 C 0.50509 0.69113 0.50547 0.0
O140 O 0.47803 0.7144 0.52385 0.0
N141 N 0.40839 0.74847 0.48445 0.0
C142 C 0.36309 0.79598 0.51182 0.0
C143 C 0.34988 0.7391 0.49662 0.0
C144 C 0.45635 0.81229 0.49247 0.0
N145 N 0.43009 0.84248 0.50905 0.0
O146 O 0.4877 0.77207 0.4383 0.0
H147 H 0.29966 0.69502 0.49385 0.0
H148 H 0.50905 0.8372 0.48527 0.0
O149 O 0.48474 0.68143 0.47973 0.0
C150 C 0.46062 0.80106 0.42431 0.0
O151 O 0.39327 0.77117 0.4237 0.0
N152 N 0.34088 0.61397 0.47311 0.0
C153 C 0.21066 0.52792 0.49575 0.0
C154 C 0.27004 0.54341 0.51119 0.0
C155 C 0.33499 0.58594 0.49931 0.0
C156 C 0.2837 0.59524 0.45715 0.0
C157 C 0.21828 0.55206 0.46794 0.0
H158 H 0.37929 0.59893 0.51206 0.0
H159 H 0.2885 0.61882 0.43677 0.0
H160 H 0.47568 0.58809 0.44691 0.0
H161 H 0.39576 0.57244 0.36511 0.0
H162 H 0.32563 0.80272 0.52359 0.0
H163 H 0.26629 0.52494 0.53261 0.0
H164 H 0.174 0.54205 0.45533 0.0
C165 C 0.44045 0.75999 0.07898 0.0
C166 C 0.47984 0.81525 0.06184 0.0
N167 N 0.46835 0.8663 0.06907 0.0
N168 N 0.40425 0.77586 0.09708 0.0
C169 C 0.42204 0.84074 0.09044 0.0
H170 H 0.43845 0.71129 0.07838 0.0
Co171 Co 0.34496 0.71889 0.12549 0.0
C172 C 0.34925 0.83747 0.15739 0.0
O173 O 0.29403 0.8333 0.14597 0.0
N174 N 0.28647 0.66279 0.15443 0.0
C175 C 0.25197 0.62261 0.19781 0.0
C176 C 0.30436 0.67142 0.18199 0.0
C177 C 0.22209 0.60803 0.15409 0.0
N178 N 0.20009 0.58239 0.18037 0.0
O179 O 0.26892 0.72236 0.10845 0.0
H180 H 0.35282 0.71087 0.19024 0.0
H181 H 0.19229 0.58703 0.13503 0.0
O182 O 0.37016 0.79701 0.14965 0.0
C183 C 0.24739 0.68121 0.08752 0.0
O184 O 0.28225 0.65105 0.08042 0.0
N185 N 0.41628 0.7087 0.14055 0.0
C186 C 0.50044 0.67004 0.16822 0.0
C187 C 0.51474 0.7377 0.16954 0.0
C188 C 0.47265 0.75659 0.15482 0.0
C189 C 0.40456 0.64397 0.13766 0.0
C190 C 0.44614 0.62353 0.15131 0.0
H191 H 0.4841 0.80884 0.15568 0.0
H192 H 0.36046 0.60718 0.12576 0.0
H193 H 0.40198 0.86898 0.10136 0.0
H194 H 0.51352 0.81711 0.04509 0.0
H195 H 0.25164 0.61802 0.22059 0.0
H196 H 0.55718 0.77504 0.18207 0.0
H197 H 0.43401 0.57094 0.14975 0.0
H198 H 0.54508 0.02473 0.25418 0.0
H199 H 0.45441 0.14739 0.232 0.0
H200 H 0.38008 0.06142 0.19756 0.0
H201 H 0.34562 0.95357 0.17162 0.0
H202 H 0.43733 0.83266 0.1954 0.0
H203 H 0.50627 0.91569 0.23097 0.0
C204 C 0.5088 0.03271 0.24199 0.0
C205 C 0.50611 0.09296 0.24551 0.0
C206 C 0.46668 0.98346 0.22215 0.0
C207 C 0.45807 0.10174 0.22966 0.0
C208 C 0.41558 0.05261 0.20987 0.0
C209 C 0.38044 0.94533 0.1847 0.0
C210 C 0.38733 0.88749 0.18018 0.0
C211 C 0.42021 0.99364 0.20556 0.0
C212 C 0.43229 0.87744 0.19759 0.0
C213 C 0.47151 0.92477 0.21824 0.0
H214 H 0.13659 0.43666 0.87898 0.0
H215 H 0.08564 0.51828 0.80648 0.0
H216 H 0.96798 0.47031 0.82349 0.0
H217 H 0.87887 0.40466 0.85883 0.0
H218 H 0.93156 0.33468 0.93442 0.0
H219 H 0.04904 0.3789 0.91667 0.0
C220 C 0.09961 0.44381 0.86693 0.0
C221 C 0.11964 0.47985 0.84111 0.0
C222 C 0.03232 0.41823 0.87749 0.0
C223 C 0.07152 0.49005 0.82613 0.0
C224 C 1.00414 0.46269 0.8359 0.0
C225 C 0.91601 0.39878 0.87136 0.0
C226 C 0.89622 0.36522 0.89765 0.0
C227 C 0.98383 0.42642 0.86147 0.0
C228 C 0.94541 0.35973 0.91401 0.0
C229 C 1.01253 0.38501 0.90384 0.0
H230 H 0.49049 0.62268 0.55419 0.0
H231 H 0.61725 0.69719 0.47975 0.0
H232 H 0.69089 0.65407 0.4979 0.0
H233 H 0.71943 0.5954 0.53549 0.0
H234 H 0.58287 0.50927 0.60674 0.0
H235 H 0.51319 0.55662 0.58948 0.0
C236 C 0.5345 0.62978 0.54201 0.0
C237 C 0.54928 0.66422 0.51592 0.0
C238 C 0.57489 0.60272 0.55211 0.0
C239 C 0.60526 0.67137 0.5 0.0
C240 C 0.6473 0.64672 0.5104 0.0
C241 C 0.67448 0.58718 0.54723 0.0
C242 C 0.65735 0.54997 0.57277 0.0
C243 C 0.63276 0.61243 0.53651 0.0
C244 C 0.59796 0.53843 0.58733 0.0
C245 C 0.55788 0.56542 0.57741 0.0
H246 H 0.58426 0.62549 0.14961 0.0
H247 H 0.49653 0.65559 0.22529 0.0
H248 H 0.53282 0.58651 0.25237 0.0
H249 H 0.57179 0.50132 0.25208 0.0
H250 H 0.6572 0.47111 0.17565 0.0
H251 H 0.64133 0.55736 0.15138 0.0
C252 C 0.57523 0.61859 0.17222 0.0
C253 C 0.53797 0.64512 0.18555 0.0
C254 C 0.59522 0.57812 0.1874 0.0
C255 C 0.52578 0.63582 0.21476 0.0
C256 C 0.54596 0.59588 0.23015 0.0
C257 C 0.58896 0.51556 0.23045 0.0
C258 C 0.61458 0.47944 0.21546 0.0
C259 C 0.57825 0.56443 0.21642 0.0
C260 C 0.63642 0.4978 0.18737 0.0
C261 C 0.62715 0.54686 0.17348 0.0
H262 H 0.49032 0.94104 0.82279 0.0
H263 H 0.32171 0.8552 0.88237 0.0
H264 H 0.3748 0.9621 0.90842 0.0
H265 H 0.47195 0.07943 0.91555 0.0
H266 H 0.64682 0.15725 0.86016 0.0
H267 H 0.59009 0.0524 0.83196 0.0
C268 C 0.46533 0.94421 0.84182 0.0
C269 C 0.40164 0.88858 0.85039 0.0
C270 C 0.49807 1.00442 0.85777 0.0
C271 C 0.36981 0.8966 0.87462 0.0
C272 C 0.40069 0.95772 0.88989 0.0
C273 C 0.49742 0.07272 0.8974 0.0
C274 C 0.5632 0.12531 0.88975 0.0
C275 C 0.46511 0.01169 0.88183 0.0
C276 C 0.59642 0.11679 0.86638 0.0
C277 C 0.56378 0.05724 0.85025 0.0
H278 H 0.89606 0.38818 0.52506 0.0
H279 H 0.97594 0.52039 0.59749 0.0
H280 H 0.09323 0.55398 0.583 0.0
H281 H 0.17324 0.55471 0.54688 0.0
H282 H 0.092 0.42469 0.47382 0.0
H283 H 0.97522 0.38143 0.49134 0.0
C284 C 0.9391 0.42428 0.53771 0.0
C285 C 0.92714 0.45243 0.56211 0.0
C286 C 1.00626 0.44398 0.52903 0.0
C287 C 0.98354 0.49782 0.57866 0.0
C288 C 0.05069 0.51735 0.57027 0.0
C289 C 0.13002 0.51568 0.53517 0.0
C290 C 0.14131 0.49314 0.509 0.0
C291 C 0.06274 0.4919 0.54514 0.0
C292 C 0.08467 0.44324 0.49388 0.0
C293 C 1.01788 0.41859 0.50386 0.0
H294 H 0.62785 0.47147 0.86929 0.0
H295 H 0.67837 0.6033 0.94182 0.0
H296 H 0.60445 0.64577 0.92421 0.0
H297 H 0.51836 0.63837 0.89034 0.0
H298 H 0.46508 0.50452 0.81844 0.0
H299 H 0.54846 0.47115 0.83324 0.0
C300 C 0.62399 0.5107 0.88089 0.0
C301 C 0.65841 0.53398 0.90692 0.0
C302 C 0.5805 0.53411 0.87084 0.0
C303 C 0.65196 0.58408 0.9219 0.0
C304 C 0.60966 0.60832 0.91184 0.0
C305 C 0.52499 0.60192 0.8779 0.0
C306 C 0.48479 0.57329 0.85353 0.0
C307 C 0.5723 0.58236 0.88675 0.0
C308 C 0.49537 0.52745 0.83723 0.0
C309 C 0.54279 0.50805 0.84579 0.0
H310 H 0.62133 0.13515 0.55854 0.0
H311 H 0.42738 0.13018 0.56545 0.0
H312 H 0.36926 0.01757 0.54337 0.0
H313 H 0.37301 0.91897 0.52382 0.0
H314 H 0.5664 0.92206 0.51931 0.0
H315 H 0.62512 0.03701 0.53886 0.0
C316 C 0.56619 0.10931 0.55549 0.0
C317 C 0.52878 0.1411 0.564 0.0
C318 C 0.53296 0.04411 0.54326 0.0
C319 C 0.45766 0.10739 0.55902 0.0
C320 C 0.42429 0.04269 0.54657 0.0
C321 C 0.42788 0.94426 0.52734 0.0
C322 C 0.46495 0.91115 0.52019 0.0
C323 C 0.46132 1.01023 0.53894 0.0
C324 C 0.53643 0.94604 0.52433 0.0
C325 C 0.57008 0.0118 0.53567 0.0
H326 H 0.07506 0.53863 0.15645 0.0
H327 H 0.17793 0.49909 0.22462 0.0
H328 H 0.06803 0.41853 0.24559 0.0
H329 H 0.9432 0.36902 0.24766 0.0
H330 H 0.83777 0.40433 0.17953 0.0
H331 H 0.94741 0.47555 0.15519 0.0
C332 C 0.07324 0.5112 0.17552 0.0
C333 C 0.13479 0.52627 0.18931 0.0
C334 C 1.00929 0.46445 0.1876 0.0
C335 C 0.13146 0.49002 0.21401 0.0
C336 C 0.06857 0.44366 0.226 0.0
C337 C 0.94433 0.3913 0.22721 0.0
C338 C 0.88297 0.38192 0.21541 0.0
C339 C 1.00728 0.43213 0.21351 0.0
C340 C 0.88461 0.4107 0.18889 0.0
C341 C 0.94729 0.45178 0.1751 0.0
H342 H 0.41285 0.88108 0.40384 0.0
H343 H 0.60056 0.87568 0.4151 0.0
H344 H 0.6653 0.98808 0.39253 0.0
H345 H 0.6674 0.08635 0.36856 0.0
H346 H 0.47849 0.09089 0.35932 0.0
H347 H 0.41547 0.97988 0.38198 0.0
C348 C 0.46798 0.90413 0.40137 0.0
C349 C 0.50166 0.86943 0.41098 0.0
C350 C 0.50464 0.96866 0.38864 0.0
C351 C 0.57324 0.90094 0.40782 0.0
C352 C 0.61021 0.96525 0.39491 0.0
C353 C 0.61263 0.06373 0.37177 0.0
C354 C 0.57802 0.09757 0.36188 0.0
C355 C 0.57637 0.99954 0.38515 0.0
C356 C 0.50669 0.06624 0.36612 0.0
C357 C 0.47048 1.00264 0.37926 0.0
H358 H 0.93533 0.55112 0.05401 0.0
H359 H 1.00538 0.4778 0.98458 0.0
H360 H 0.12348 0.54661 1.00081 0.0
H361 H 0.20538 0.61838 1.03705 0.0
H362 H 0.13664 0.68908 0.10771 0.0
H363 H 1.01955 0.63082 0.0886 0.0
C364 C 0.97633 0.55011 0.04239 0.0
C365 C 0.96087 0.50831 1.0182 0.0
C366 C 0.04441 0.58927 0.05212 0.0
C367 C 1.01526 0.50934 1.0031 0.0
C368 C 0.08297 0.54847 1.0125 0.0
C369 C 0.16501 0.62193 0.04812 0.0
C370 C 0.17972 0.65776 0.07389 0.0
C371 C 0.09791 0.58735 1.03729 0.0
C372 C 0.1269 0.66227 0.08778 0.0
C373 C 0.05982 0.6284 0.07696 0.0
H374 H 0.41636 0.58516 0.70663 0.0
H375 H 0.32817 0.43354 0.7724 0.0
H376 H 0.39039 0.37804 0.75408 0.0
H377 H 0.47637 0.37806 0.72121 0.0
H378 H 0.56356 0.53245 0.65604 0.0
H379 H 0.49641 0.58186 0.67281 0.0
C380 C 0.40988 0.53939 0.71684 0.0
C381 C 0.36739 0.51354 0.74087 0.0
C382 C 0.44683 0.5089 0.70659 0.0
C383 C 0.35972 0.45411 0.75369 0.0
C384 C 0.396 0.42286 0.74337 0.0
C385 C 0.48054 0.42209 0.7104 0.0
C386 C 0.5263 0.45117 0.68727 0.0
C387 C 0.44081 0.45061 0.72011 0.0
C388 C 0.53042 0.50884 0.674 0.0
C389 C 0.49133 0.5372 0.6835 0.0
H390 H 0.11388 0.65225 0.69323 0.0
H391 H 0.04735 0.49574 0.75743 0.0
H392 H 0.93052 0.44578 0.74078 0.0
H393 H 0.84665 0.44265 0.7074 0.0
H394 H 0.90914 0.59577 0.64234 0.0
H395 H 0.02726 0.6519 0.66056 0.0
C396 C 0.07407 0.60761 0.70383 0.0
C397 C 0.09104 0.57821 0.7267 0.0
C398 C 1.0056 0.57862 0.69415 0.0
C399 C 0.03761 0.51974 0.7397 0.0
C400 C 0.96998 0.49101 0.73027 0.0
C401 C 0.88581 0.48883 0.6973 0.0
C402 C 0.8688 0.51494 0.67352 0.0
C403 C 0.95347 0.51965 0.70746 0.0
C404 C 0.92042 0.57493 0.66086 0.0
C405 C 0.98818 0.60658 0.67112 0.0
H406 H 0.61168 0.42078 0.37137 0.0
H407 H 0.44816 0.32137 0.31059 0.0
H408 H 0.39016 0.37891 0.3309 0.0
H409 H 0.39098 0.46467 0.3636 0.0
H410 H 0.55597 0.5642 0.4238 0.0
H411 H 0.60781 0.49886 0.40627 0.0
C412 C 0.56287 0.41094 0.36273 0.0
C413 C 0.53456 0.36702 0.33933 0.0
C414 C 0.5303 0.44468 0.37434 0.0
C415 C 0.471 0.35456 0.32863 0.0
C416 C 0.4381 0.38793 0.34013 0.0
C417 C 0.43822 0.47201 0.37293 0.0
C418 C 0.4698 0.52008 0.39488 0.0
C419 C 0.4681 0.43432 0.36258 0.0
C420 C 0.53024 0.5276 0.40707 0.0
C421 C 0.5602 0.49045 0.3969 0.0
H422 H 0.55469 0.15642 1.02072 0.0
H423 H 0.72672 0.14082 0.98952 0.0
H424 H 0.67967 0.02823 1.01178 0.0
H425 H 0.58853 0.93394 1.03985 0.0
H426 H 0.41601 0.9513 0.06936 0.0
H427 H 0.46506 0.06388 0.04822 0.0
C428 C 0.58234 0.12875 1.01875 0.0
C429 C 0.64438 0.15735 1.00341 0.0
C430 C 0.55483 0.06424 1.03139 0.0
C431 C 0.67904 0.12028 1.00121 0.0
C432 C 0.65201 0.05581 1.01391 0.0
C433 C 0.56129 0.96198 0.04151 0.0
C434 C 0.49834 0.9335 0.0564 0.0
C435 C 0.58966 0.02709 1.02896 0.0
C436 C 0.46472 0.97164 0.05854 0.0
C437 C 0.49261 0.03614 0.04625 0.0
loop_
_geom_bond_atom_site_label_1
_geom_bond_atom_site_label_2
_geom_bond_distance
_geom_bond_site_symmetry_2
_ccdc_geom_bond_type
C0 C1 1.351 . S
C0 N3 1.368 . S
C0 H5 0.931 . S
C1 C0 1.351 . S
C1 N2 1.373 . S
C1 H29 0.930 . S
N2 C1 1.373 . S
N2 C4 1.340 . S
N3 C0 1.368 . S
N3 C4 1.321 . S
N3 Co6 2.135 . S
C4 N2 1.340 . S
C4 N3 1.321 . S
C4 H28 0.930 . S
H5 C0 0.931 . S
Co6 N3 2.135 . S
Co6 N9 2.121 . S
Co6 O14 2.055 . S
Co6 O17 2.039 . S
Co6 N20 2.140 . S
C7 O8 1.227 . S
C7 O17 1.265 . S
O8 C7 1.227 . S
N9 Co6 2.121 . S
N9 C11 1.375 . S
N9 C12 1.313 . S
C10 C11 1.338 . S
C10 N13 1.377 . S
C10 H30 0.930 . S
C11 N9 1.375 . S
C11 C10 1.338 . S
C11 H15 0.931 . S
C12 N9 1.313 . S
C12 N13 1.344 . S
C12 H16 0.930 . S
N13 C10 1.377 . S
N13 C12 1.344 . S
O14 Co6 2.055 . S
O14 C18 1.253 . S
H15 C11 0.931 . S
H16 C12 0.930 . S
O17 Co6 2.039 . S
O17 C7 1.265 . S
C18 O14 1.253 . S
C18 O19 1.227 . S
O19 C18 1.227 . S
N20 Co6 2.140 . S
N20 C23 1.346 . S
N20 C24 1.345 . S
C21 C22 1.387 . S
C21 C25 1.391 . S
C22 C21 1.387 . S
C22 C23 1.369 . S
C22 H31 0.929 . S
C23 N20 1.346 . S
C23 C22 1.369 . S
C23 H26 0.928 . S
C24 N20 1.345 . S
C24 C25 1.371 . S
C24 H27 0.931 . S
C25 C21 1.391 . S
C25 C24 1.371 . S
C25 H32 0.930 . S
H26 C23 0.928 . S
H27 C24 0.931 . S
H28 C4 0.930 . S
H29 C1 0.930 . S
H30 C10 0.930 . S
H31 C22 0.929 . S
H32 C25 0.930 . S
C33 C34 1.351 . S
C33 N36 1.368 . S
C33 H38 0.931 . S
C34 C33 1.351 . S
C34 N35 1.373 . S
C34 H62 0.930 . S
N35 C34 1.373 . S
N35 C37 1.340 . S
N36 C33 1.368 . S
N36 C37 1.321 . S
N36 Co39 2.135 . S
C37 N35 1.340 . S
C37 N36 1.321 . S
C37 H61 0.930 . S
H38 C33 0.931 . S
Co39 N36 2.135 . S
Co39 N42 2.121 . S
Co39 O47 2.055 . S
Co39 O50 2.039 . S
Co39 N53 2.140 . S
C40 O41 1.227 . S
C40 O50 1.265 . S
O41 C40 1.227 . S
N42 Co39 2.121 . S
N42 C44 1.375 . S
N42 C45 1.313 . S
C43 C44 1.338 . S
C43 N46 1.377 . S
C43 H63 0.930 . S
C44 N42 1.375 . S
C44 C43 1.338 . S
C44 H48 0.931 . S
C45 N42 1.313 . S
C45 N46 1.344 . S
C45 H49 0.930 . S
N46 C43 1.377 . S
N46 C45 1.344 . S
O47 Co39 2.055 . S
O47 C51 1.253 . S
H48 C44 0.931 . S
H49 C45 0.930 . S
O50 Co39 2.039 . S
O50 C40 1.265 . S
C51 O47 1.253 . S
C51 O52 1.227 . S
O52 C51 1.227 . S
N53 Co39 2.140 . S
N53 C56 1.346 . S
N53 C57 1.345 . S
C54 C55 1.387 . S
C54 C58 1.391 . S
C55 C54 1.387 . S
C55 C56 1.369 . S
C55 H64 0.929 . S
C56 N53 1.346 . S
C56 C55 1.369 . S
C56 H59 0.928 . S
C57 N53 1.345 . S
C57 C58 1.371 . S
C57 H60 0.931 . S
C58 C54 1.391 . S
C58 C57 1.371 . S
C58 H65 0.930 . S
H59 C56 0.928 . S
H60 C57 0.931 . S
H61 C37 0.930 . S
H62 C34 0.930 . S
H63 C43 0.930 . S
H64 C55 0.929 . S
H65 C58 0.930 . S
C66 C67 1.351 . S
C66 N69 1.368 . S
C66 H71 0.931 . S
C67 C66 1.351 . S
C67 N68 1.373 . S
C67 H95 0.930 . S
N68 C67 1.373 . S
N68 C70 1.340 . S
N69 C66 1.368 . S
N69 C70 1.321 . S
N69 Co72 2.135 . S
C70 N68 1.340 . S
C70 N69 1.321 . S
C70 H94 0.930 . S
H71 C66 0.931 . S
Co72 N69 2.135 . S
Co72 N75 2.121 . S
Co72 O80 2.055 . S
Co72 O83 2.039 . S
Co72 N86 2.140 . S
C73 O74 1.227 . S
C73 O83 1.265 . S
O74 C73 1.227 . S
N75 Co72 2.121 . S
N75 C77 1.375 . S
N75 C78 1.313 . S
C76 C77 1.338 . S
C76 N79 1.377 . S
C76 H96 0.930 . S
C77 N75 1.375 . S
C77 C76 1.338 . S
C77 H81 0.931 . S
C78 N75 1.313 . S
C78 N79 1.344 . S
C78 H82 0.930 . S
N79 C76 1.377 . S
N79 C78 1.344 . S
O80 Co72 2.055 . S
O80 C84 1.253 . S
H81 C77 0.931 . S
H82 C78 0.930 . S
O83 Co72 2.039 . S
O83 C73 1.265 . S
C84 O80 1.253 . S
C84 O85 1.227 . S
O85 C84 1.227 . S
N86 Co72 2.140 . S
N86 C89 1.346 . S
N86 C90 1.345 . S
C87 C88 1.387 . S
C87 C91 1.391 . S
C88 C87 1.387 . S
C88 C89 1.369 . S
C88 H97 0.929 . S
C89 N86 1.346 . S
C89 C88 1.369 . S
C89 H92 0.928 . S
C90 N86 1.345 . S
C90 C91 1.371 . S
C90 H93 0.931 . S
C91 C87 1.391 . S
C91 C90 1.371 . S
C91 H98 0.930 . S
H92 C89 0.928 . S
H93 C90 0.931 . S
H94 C70 0.930 . S
H95 C67 0.930 . S
H96 C76 0.930 . S
H97 C88 0.929 . S
H98 C91 0.930 . S
C99 C100 1.351 . S
C99 N102 1.368 . S
C99 H104 0.931 . S
C100 C99 1.351 . S
C100 N101 1.373 . S
C100 H128 0.930 . S
N101 C100 1.373 . S
N101 C103 1.340 . S
N102 C99 1.368 . S
N102 C103 1.321 . S
N102 Co105 2.135 . S
C103 N101 1.340 . S
C103 N102 1.321 . S
C103 H127 0.930 . S
H104 C99 0.931 . S
Co105 N102 2.135 . S
Co105 N108 2.121 . S
Co105 O113 2.055 . S
Co105 O116 2.039 . S
Co105 N119 2.140 . S
C106 O107 1.227 . S
C106 O116 1.265 . S
O107 C106 1.227 . S
N108 Co105 2.121 . S
N108 C110 1.375 . S
N108 C111 1.313 . S
C109 C110 1.338 . S
C109 N112 1.377 . S
C109 H129 0.930 . S
C110 N108 1.375 . S
C110 C109 1.338 . S
C110 H114 0.931 . S
C111 N108 1.313 . S
C111 N112 1.344 . S
C111 H115 0.930 . S
N112 C109 1.377 . S
N112 C111 1.344 . S
O113 Co105 2.055 . S
O113 C117 1.253 . S
H114 C110 0.931 . S
H115 C111 0.930 . S
O116 Co105 2.039 . S
O116 C106 1.265 . S
C117 O113 1.253 . S
C117 O118 1.227 . S
O118 C117 1.227 . S
N119 Co105 2.140 . S
N119 C122 1.346 . S
N119 C123 1.345 . S
C120 C121 1.387 . S
C120 C124 1.391 . S
C121 C120 1.387 . S
C121 C122 1.369 . S
C121 H130 0.929 . S
C122 N119 1.346 . S
C122 C121 1.369 . S
C122 H125 0.928 . S
C123 N119 1.345 . S
C123 C124 1.371 . S
C123 H126 0.931 . S
C124 C120 1.391 . S
C124 C123 1.371 . S
C124 H131 0.930 . S
H125 C122 0.928 . S
H126 C123 0.931 . S
H127 C103 0.930 . S
H128 C100 0.930 . S
H129 C109 0.930 . S
H130 C121 0.929 . S
H131 C124 0.930 . S
C132 C133 1.351 . S
C132 N135 1.368 . S
C132 H137 0.931 . S
C133 C132 1.351 . S
C133 N134 1.373 . S
C133 H161 0.930 . S
N134 C133 1.373 . S
N134 C136 1.340 . S
N135 C132 1.368 . S
N135 C136 1.321 . S
N135 Co138 2.135 . S
C136 N134 1.340 . S
C136 N135 1.321 . S
C136 H160 0.930 . S
H137 C132 0.931 . S
Co138 N135 2.135 . S
Co138 N141 2.121 . S
Co138 O146 2.055 . S
Co138 O149 2.039 . S
Co138 N152 2.140 . S
C139 O140 1.227 . S
C139 O149 1.265 . S
O140 C139 1.227 . S
N141 Co138 2.121 . S
N141 C143 1.375 . S
N141 C144 1.313 . S
C142 C143 1.338 . S
C142 N145 1.377 . S
C142 H162 0.930 . S
C143 N141 1.375 . S
C143 C142 1.338 . S
C143 H147 0.931 . S
C144 N141 1.313 . S
C144 N145 1.344 . S
C144 H148 0.930 . S
N145 C142 1.377 . S
N145 C144 1.344 . S
O146 Co138 2.055 . S
O146 C150 1.253 . S
H147 C143 0.931 . S
H148 C144 0.930 . S
O149 Co138 2.039 . S
O149 C139 1.265 . S
C150 O146 1.253 . S
C150 O151 1.227 . S
O151 C150 1.227 . S
N152 Co138 2.140 . S
N152 C155 1.346 . S
N152 C156 1.345 . S
C153 C154 1.387 . S
C153 C157 1.391 . S
C154 C153 1.387 . S
C154 C155 1.369 . S
C154 H163 0.929 . S
C155 N152 1.346 . S
C155 C154 1.369 . S
C155 H158 0.928 . S
C156 N152 1.345 . S
C156 C157 1.371 . S
C156 H159 0.931 . S
C157 C153 1.391 . S
C157 C156 1.371 . S
C157 H164 0.930 . S
H158 C155 0.928 . S
H159 C156 0.931 . S
H160 C136 0.930 . S
H161 C133 0.930 . S
H162 C142 0.930 . S
H163 C154 0.929 . S
H164 C157 0.930 . S
C165 C166 1.351 . S
C165 N168 1.368 . S
C165 H170 0.931 . S
C166 C165 1.351 . S
C166 N167 1.373 . S
C166 H194 0.930 . S
N167 C166 1.373 . S
N167 C169 1.340 . S
N168 C165 1.368 . S
N168 C169 1.321 . S
N168 Co171 2.135 . S
C169 N167 1.340 . S
C169 N168 1.321 . S
C169 H193 0.930 . S
H170 C165 0.931 . S
Co171 N168 2.135 . S
Co171 N174 2.121 . S
Co171 O179 2.055 . S
Co171 O182 2.039 . S
Co171 N185 2.140 . S
C172 O173 1.227 . S
C172 O182 1.265 . S
O173 C172 1.227 . S
N174 Co171 2.121 . S
N174 C176 1.375 . S
N174 C177 1.313 . S
C175 C176 1.338 . S
C175 N178 1.377 . S
C175 H195 0.930 . S
C176 N174 1.375 . S
C176 C175 1.338 . S
C176 H180 0.931 . S
C177 N174 1.313 . S
C177 N178 1.344 . S
C177 H181 0.930 . S
N178 C175 1.377 . S
N178 C177 1.344 . S
O179 Co171 2.055 . S
O179 C183 1.253 . S
H180 C176 0.931 . S
H181 C177 0.930 . S
O182 Co171 2.039 . S
O182 C172 1.265 . S
C183 O179 1.253 . S
C183 O184 1.227 . S
O184 C183 1.227 . S
N185 Co171 2.140 . S
N185 C188 1.346 . S
N185 C189 1.345 . S
C186 C187 1.387 . S
C186 C190 1.391 . S
C187 C186 1.387 . S
C187 C188 1.369 . S
C187 H196 0.929 . S
C188 N185 1.346 . S
C188 C187 1.369 . S
C188 H191 0.928 . S
C189 N185 1.345 . S
C189 C190 1.371 . S
C189 H192 0.931 . S
C190 C186 1.391 . S
C190 C189 1.371 . S
C190 H197 0.930 . S
H191 C188 0.928 . S
H192 C189 0.931 . S
H193 C169 0.930 . S
H194 C166 0.930 . S
H195 C175 0.930 . S
H196 C187 0.929 . S
H197 C190 0.930 . S
H198 C204 0.930 . S
H199 C207 0.930 . S
H200 C208 0.930 . S
H201 C209 0.930 . S
H202 C212 0.930 . S
H203 C213 0.930 . S
C204 H198 0.930 . S
C204 C205 1.355 . S
C204 C206 1.415 1_545 S
C205 C204 1.355 . S
C205 C207 1.419 . S
C206 C204 1.415 1_565 S
C206 C211 1.425 1_565 S
C206 C213 1.409 . S
C207 H199 0.930 . S
C207 C205 1.419 . S
C207 C208 1.362 . S
C208 H200 0.930 . S
C208 C207 1.362 . S
C208 C211 1.409 . S
C209 H201 0.930 . S
C209 C210 1.355 . S
C209 C211 1.415 1_565 S
C210 C209 1.355 . S
C210 C212 1.419 . S
C211 C206 1.425 1_545 S
C211 C208 1.409 . S
C211 C209 1.415 1_545 S
C212 H202 0.930 . S
C212 C210 1.419 . S
C212 C213 1.362 . S
C213 H203 0.930 . S
C213 C206 1.409 . S
C213 C212 1.362 . S
H214 C220 0.930 . S
H215 C223 0.930 . S
H216 C224 0.930 . S
H217 C225 0.930 . S
H218 C228 0.930 . S
H219 C229 0.930 . S
C220 H214 0.930 . S
C220 C221 1.355 . S
C220 C222 1.415 . S
C221 C220 1.355 . S
C221 C223 1.419 . S
C222 C220 1.415 . S
C222 C227 1.425 1_455 S
C222 C229 1.409 . S
C223 H215 0.930 . S
C223 C221 1.419 . S
C223 C224 1.362 1_455 S
C224 H216 0.930 . S
C224 C223 1.362 1_655 S
C224 C227 1.409 . S
C225 H217 0.930 . S
C225 C226 1.355 . S
C225 C227 1.415 . S
C226 C225 1.355 . S
C226 C228 1.419 . S
C227 C222 1.425 1_655 S
C227 C224 1.409 . S
C227 C225 1.415 . S
C228 H218 0.930 . S
C228 C226 1.419 . S
C228 C229 1.362 1_655 S
C229 H219 0.930 . S
C229 C222 1.409 . S
C229 C228 1.362 1_455 S
H230 C236 0.930 . S
H231 C239 0.930 . S
H232 C240 0.930 . S
H233 C241 0.930 . S
H234 C244 0.930 . S
H235 C245 0.930 . S
C236 H230 0.930 . S
C236 C237 1.355 . S
C236 C238 1.415 . S
C237 C236 1.355 . S
C237 C239 1.419 . S
C238 C236 1.415 . S
C238 C243 1.425 . S
C238 C245 1.409 . S
C239 H231 0.930 . S
C239 C237 1.419 . S
C239 C240 1.362 . S
C240 H232 0.930 . S
C240 C239 1.362 . S
C240 C243 1.409 . S
C241 H233 0.930 . S
C241 C242 1.355 . S
C241 C243 1.415 . S
C242 C241 1.355 . S
C242 C244 1.419 . S
C243 C238 1.425 . S
C243 C240 1.409 . S
C243 C241 1.415 . S
C244 H234 0.930 . S
C244 C242 1.419 . S
C244 C245 1.362 . S
C245 H235 0.930 . S
C245 C238 1.409 . S
C245 C244 1.362 . S
H246 C252 0.930 . S
H247 C255 0.930 . S
H248 C256 0.930 . S
H249 C257 0.930 . S
H250 C260 0.930 . S
H251 C261 0.930 . S
C252 H246 0.930 . S
C252 C253 1.355 . S
C252 C254 1.415 . S
C253 C252 1.355 . S
C253 C255 1.419 . S
C254 C252 1.415 . S
C254 C259 1.425 . S
C254 C261 1.409 . S
C255 H247 0.930 . S
C255 C253 1.419 . S
C255 C256 1.362 . S
C256 H248 0.930 . S
C256 C255 1.362 . S
C256 C259 1.409 . S
C257 H249 0.930 . S
C257 C258 1.355 . S
C257 C259 1.415 . S
C258 C257 1.355 . S
C258 C260 1.419 . S
C259 C254 1.425 . S
C259 C256 1.409 . S
C259 C257 1.415 . S
C260 H250 0.930 . S
C260 C258 1.419 . S
C260 C261 1.362 . S
C261 H251 0.930 . S
C261 C254 1.409 . S
C261 C260 1.362 . S
H262 C268 0.930 . S
H263 C271 0.930 . S
H264 C272 0.930 . S
H265 C273 0.930 . S
H266 C276 0.930 1_545 S
H267 C277 0.930 . S
C268 H262 0.930 . S
C268 C269 1.355 . S
C268 C270 1.415 . S
C269 C268 1.355 . S
C269 C271 1.419 . S
C270 C268 1.415 . S
C270 C275 1.425 . S
C270 C277 1.409 . S
C271 H263 0.930 . S
C271 C269 1.419 . S
C271 C272 1.362 . S
C272 H264 0.930 . S
C272 C271 1.362 . S
C272 C275 1.409 . S
C273 H265 0.930 . S
C273 C274 1.355 . S
C273 C275 1.415 . S
C274 C273 1.355 . S
C274 C276 1.419 . S
C275 C270 1.425 . S
C275 C272 1.409 . S
C275 C273 1.415 . S
C276 H266 0.930 1_565 S
C276 C274 1.419 . S
C276 C277 1.362 . S
C277 H267 0.930 . S
C277 C270 1.409 . S
C277 C276 1.362 . S
H278 C284 0.930 . S
H279 C287 0.930 . S
H280 C288 0.930 . S
H281 C289 0.930 . S
H282 C292 0.930 . S
H283 C293 0.930 . S
C284 H278 0.930 . S
C284 C285 1.355 . S
C284 C286 1.415 . S
C285 C284 1.355 . S
C285 C287 1.419 . S
C286 C284 1.415 . S
C286 C291 1.425 . S
C286 C293 1.409 . S
C287 H279 0.930 . S
C287 C285 1.419 . S
C287 C288 1.362 . S
C288 H280 0.930 . S
C288 C287 1.362 . S
C288 C291 1.409 . S
C289 H281 0.930 . S
C289 C290 1.355 . S
C289 C291 1.415 . S
C290 C289 1.355 . S
C290 C292 1.419 . S
C291 C286 1.425 . S
C291 C288 1.409 . S
C291 C289 1.415 . S
C292 H282 0.930 . S
C292 C290 1.419 . S
C292 C293 1.362 . S
C293 H283 0.930 . S
C293 C286 1.409 . S
C293 C292 1.362 . S
H294 C300 0.930 . S
H295 C303 0.930 . S
H296 C304 0.930 . S
H297 C305 0.930 . S
H298 C308 0.930 . S
H299 C309 0.930 . S
C300 H294 0.930 . S
C300 C301 1.355 . S
C300 C302 1.415 . S
C301 C300 1.355 . S
C301 C303 1.419 . S
C302 C300 1.415 . S
C302 C307 1.425 . S
C302 C309 1.409 . S
C303 H295 0.930 . S
C303 C301 1.419 . S
C303 C304 1.362 . S
C304 H296 0.930 . S
C304 C303 1.362 . S
C304 C307 1.409 . S
C305 H297 0.930 . S
C305 C306 1.355 . S
C305 C307 1.415 . S
C306 C305 1.355 . S
C306 C308 1.419 . S
C307 C302 1.425 . S
C307 C304 1.409 . S
C307 C305 1.415 . S
C308 H298 0.930 . S
C308 C306 1.419 . S
C308 C309 1.362 . S
C309 H299 0.930 . S
C309 C302 1.409 . S
C309 C308 1.362 . S
H310 C316 0.930 . S
H311 C319 0.930 . S
H312 C320 0.930 . S
H313 C321 0.930 . S
H314 C324 0.930 . S
H315 C325 0.930 . S
C316 H310 0.930 . S
C316 C317 1.355 . S
C316 C318 1.415 . S
C317 C316 1.355 . S
C317 C319 1.419 . S
C318 C316 1.415 . S
C318 C323 1.425 . S
C318 C325 1.409 . S
C319 H311 0.930 . S
C319 C317 1.419 . S
C319 C320 1.362 . S
C320 H312 0.930 . S
C320 C319 1.362 . S
C320 C323 1.409 . S
C321 H313 0.930 . S
C321 C322 1.355 . S
C321 C323 1.415 . S
C322 C321 1.355 . S
C322 C324 1.419 . S
C323 C318 1.425 . S
C323 C320 1.409 . S
C323 C321 1.415 . S
C324 H314 0.930 . S
C324 C322 1.419 . S
C324 C325 1.362 . S
C325 H315 0.930 . S
C325 C318 1.409 . S
C325 C324 1.362 . S
H326 C332 0.930 . S
H327 C335 0.930 1_455 S
H328 C336 0.930 . S
H329 C337 0.930 . S
H330 C340 0.930 . S
H331 C341 0.930 . S
C332 H326 0.930 . S
C332 C333 1.355 . S
C332 C334 1.415 . S
C333 C332 1.355 . S
C333 C335 1.419 . S
C334 C332 1.415 . S
C334 C339 1.425 . S
C334 C341 1.409 . S
C335 H327 0.930 1_655 S
C335 C333 1.419 . S
C335 C336 1.362 . S
C336 H328 0.930 . S
C336 C335 1.362 . S
C336 C339 1.409 . S
C337 H329 0.930 . S
C337 C338 1.355 . S
C337 C339 1.415 . S
C338 C337 1.355 . S
C338 C340 1.419 . S
C339 C334 1.425 . S
C339 C336 1.409 . S
C339 C337 1.415 . S
C340 H330 0.930 . S
C340 C338 1.419 . S
C340 C341 1.362 . S
C341 H331 0.930 . S
C341 C334 1.409 . S
C341 C340 1.362 . S
H342 C348 0.930 . S
H343 C351 0.930 . S
H344 C352 0.930 . S
H345 C353 0.930 . S
H346 C356 0.930 . S
H347 C357 0.930 1_565 S
C348 H342 0.930 . S
C348 C349 1.355 . S
C348 C350 1.415 1_565 S
C349 C348 1.355 . S
C349 C351 1.419 1_565 S
C350 C348 1.415 1_545 S
C350 C355 1.425 . S
C350 C357 1.409 . S
C351 H343 0.930 . S
C351 C349 1.419 1_545 S
C351 C352 1.362 . S
C352 H344 0.930 . S
C352 C351 1.362 . S
C352 C355 1.409 . S
C353 H345 0.930 . S
C353 C354 1.355 . S
C353 C355 1.415 . S
C354 C353 1.355 . S
C354 C356 1.419 . S
C355 C350 1.425 . S
C355 C352 1.409 . S
C355 C353 1.415 . S
C356 H346 0.930 . S
C356 C354 1.419 . S
C356 C357 1.362 . S
C357 H347 0.930 1_545 S
C357 C350 1.409 . S
C357 C356 1.362 . S
H358 C364 0.930 . S
H359 C367 0.930 . S
H360 C368 0.930 . S
H361 C369 0.930 . S
H362 C372 0.930 . S
H363 C373 0.930 . S
C364 H358 0.930 . S
C364 C365 1.355 . S
C364 C366 1.415 . S
C365 C364 1.355 . S
C365 C367 1.419 . S
C366 C364 1.415 . S
C366 C371 1.425 1_556 S
C366 C373 1.409 1_655 S
C367 H359 0.930 . S
C367 C365 1.419 . S
C367 C368 1.362 1_556 S
C368 H360 0.930 . S
C368 C367 1.362 1_554 S
C368 C371 1.409 . S
C369 H361 0.930 . S
C369 C370 1.355 1_655 S
C369 C371 1.415 . S
C370 C369 1.355 1_455 S
C370 C372 1.419 . S
C371 C366 1.425 1_554 S
C371 C368 1.409 . S
C371 C369 1.415 . S
C372 H362 0.930 . S
C372 C370 1.419 . S
C372 C373 1.362 1_554 S
C373 H363 0.930 . S
C373 C366 1.409 1_455 S
C373 C372 1.362 1_556 S
H374 C380 0.930 . S
H375 C383 0.930 . S
H376 C384 0.930 . S
H377 C385 0.930 . S
H378 C388 0.930 . S
H379 C389 0.930 . S
C380 H374 0.930 . S
C380 C381 1.355 . S
C380 C382 1.415 . S
C381 C380 1.355 . S
C381 C383 1.419 . S
C382 C380 1.415 . S
C382 C387 1.425 . S
C382 C389 1.409 . S
C383 H375 0.930 . S
C383 C381 1.419 . S
C383 C384 1.362 . S
C384 H376 0.930 . S
C384 C383 1.362 . S
C384 C387 1.409 . S
C385 H377 0.930 . S
C385 C386 1.355 . S
C385 C387 1.415 . S
C386 C385 1.355 . S
C386 C388 1.419 . S
C387 C382 1.425 . S
C387 C384 1.409 . S
C387 C385 1.415 . S
C388 H378 0.930 . S
C388 C386 1.419 . S
C388 C389 1.362 . S
C389 H379 0.930 . S
C389 C382 1.409 . S
C389 C388 1.362 . S
H390 C396 0.930 . S
H391 C399 0.930 . S
H392 C400 0.930 . S
H393 C401 0.930 . S
H394 C404 0.930 . S
H395 C405 0.930 . S
C396 H390 0.930 . S
C396 C397 1.355 . S
C396 C398 1.415 . S
C397 C396 1.355 . S
C397 C399 1.419 . S
C398 C396 1.415 . S
C398 C403 1.425 . S
C398 C405 1.409 . S
C399 H391 0.930 . S
C399 C397 1.419 . S
C399 C400 1.362 . S
C400 H392 0.930 . S
C400 C399 1.362 . S
C400 C403 1.409 . S
C401 H393 0.930 . S
C401 C402 1.355 . S
C401 C403 1.415 1_655 S
C402 C401 1.355 . S
C402 C404 1.419 . S
C403 C398 1.425 . S
C403 C400 1.409 . S
C403 C401 1.415 1_455 S
C404 H394 0.930 . S
C404 C402 1.419 . S
C404 C405 1.362 1_655 S
C405 H395 0.930 . S
C405 C398 1.409 . S
C405 C404 1.362 1_455 S
H406 C412 0.930 . S
H407 C415 0.930 . S
H408 C416 0.930 . S
H409 C417 0.930 . S
H410 C420 0.930 . S
H411 C421 0.930 . S
C412 H406 0.930 . S
C412 C413 1.355 . S
C412 C414 1.415 . S
C413 C412 1.355 . S
C413 C415 1.419 . S
C414 C412 1.415 . S
C414 C419 1.425 . S
C414 C421 1.409 . S
C415 H407 0.930 . S
C415 C413 1.419 . S
C415 C416 1.362 . S
C416 H408 0.930 . S
C416 C415 1.362 . S
C416 C419 1.409 . S
C417 H409 0.930 . S
C417 C418 1.355 . S
C417 C419 1.415 . S
C418 C417 1.355 . S
C418 C420 1.419 . S
C419 C414 1.425 . S
C419 C416 1.409 . S
C419 C417 1.415 . S
C420 H410 0.930 . S
C420 C418 1.419 . S
C420 C421 1.362 . S
C421 H411 0.930 . S
C421 C414 1.409 . S
C421 C420 1.362 . S
H422 C428 0.928 1_565 S
H423 C431 0.930 . S
H424 C432 0.930 . S
H425 C433 0.930 . S
H426 C436 0.930 . S
H427 C437 0.930 . S
C428 H422 0.928 1_545 S
C428 C429 1.360 . S
C428 C430 1.411 1_545 S
C429 C428 1.360 . S
C429 C431 1.419 . S
C430 C428 1.411 1_565 S
C430 C435 1.425 1_556 S
C430 C437 1.409 . S
C431 H423 0.930 . S
C431 C429 1.419 . S
C431 C432 1.362 1_556 S
C432 H424 0.930 . S
C432 C431 1.362 1_554 S
C432 C435 1.409 1_545 S
C433 H425 0.930 . S
C433 C434 1.355 . S
C433 C435 1.415 . S
C434 C433 1.355 . S
C434 C436 1.419 1_554 S
C435 C430 1.425 1_554 S
C435 C432 1.409 1_565 S
C435 C433 1.415 . S
C436 H426 0.930 . S
C436 C434 1.419 1_556 S
C436 C437 1.362 . S
C437 H427 0.930 . S
C437 C430 1.409 . S
C437 C436 1.362 . S
C205 C7 1.539 . S
C210 C172 1.552 . S
C221 C106 1.578 . S
C226 C40 1.543 . S
C237 C139 1.566 . S
C242 C73 1.530 . S
C253 C186 1.165 . S
C258 N13 1.127 . S
C269 C120 1.165 . S
C274 N46 1.127 1_565 S
C285 N79 1.156 1_455 S
C290 C153 1.174 . S
C301 C54 1.155 . S
C306 N112 1.178 . S
C317 C87 1.175 . S
C322 N145 1.145 1_545 S
C333 N178 1.131 1_655 S
C338 C21 1.155 . S
C349 C150 1.647 . S
C354 N2 1.575 . S
C365 N35 1.572 . S
C370 C183 1.636 . S
C381 C117 1.646 . S
C386 N68 1.559 . S
C397 N101 1.578 . S
C402 C84 1.646 . S
C413 C18 1.649 . S
C418 N134 1.557 . S
C429 C51 1.638 . S
C434 N167 1.569 . S
