# Generated by pormake.
# Topology wkf, (6)-cn, num edge types: 1
# Building blocks:
#     Node 0, Type 0, BuildingBlock: IZENUY_clean_sbu_0, # of connection points: 6
#     Node 1, Type 0, BuildingBlock: IZENUY_clean_sbu_0, # of connection points: 6
#     Node 2, Type 0, BuildingBlock: IZENUY_clean_sbu_0, # of connection points: 6
#     Node 3, Type 0, BuildingBlock: IZENUY_clean_sbu_0, # of connection points: 6
#     Node 4, Type 0, BuildingBlock: IZENUY_clean_sbu_0, # of connection points: 6
#     Node 5, Type 0, BuildingBlock: IZENUY_clean_sbu_0, # of connection points: 6
#     Node 6, Type 0, BuildingBlock: IZENUY_clean_sbu_0, # of connection points: 6
#     Node 7, Type 0, BuildingBlock: IZENUY_clean_sbu_0, # of connection points: 6
#     Node 8, Type 0, BuildingBlock: IZENUY_clean_sbu_0, # of connection points: 6
#     Node 9, Type 0, BuildingBlock: IZENUY_clean_sbu_0, # of connection points: 6
#     Node 10, Type 0, BuildingBlock: IZENUY_clean_sbu_0, # of connection points: 6
#     Node 11, Type 0, BuildingBlock: IZENUY_clean_sbu_0, # of connection points: 6
#     Edge 12, Type (0, 0), BuildingBlock: XUDNAN_clean_linker_2, # of connection points: 2
#     Edge 13, Type (0, 0), BuildingBlock: XUDNAN_clean_linker_2, # of connection points: 2
#     Edge 14, Type (0, 0), BuildingBlock: XUDNAN_clean_linker_2, # of connection points: 2
#     Edge 15, Type (0, 0), BuildingBlock: XUDNAN_clean_linker_2, # of connection points: 2
#     Edge 16, Type (0, 0), BuildingBlock: XUDNAN_clean_linker_2, # of connection points: 2
#     Edge 17, Type (0, 0), BuildingBlock: XUDNAN_clean_linker_2, # of connection points: 2
#     Edge 18, Type (0, 0), BuildingBlock: XUDNAN_clean_linker_2, # of connection points: 2
#     Edge 19, Type (0, 0), BuildingBlock: XUDNAN_clean_linker_2, # of connection points: 2
#     Edge 20, Type (0, 0), BuildingBlock: XUDNAN_clean_linker_2, # of connection points: 2
#     Edge 21, Type (0, 0), BuildingBlock: XUDNAN_clean_linker_2, # of connection points: 2
#     Edge 22, Type (0, 0), BuildingBlock: XUDNAN_clean_linker_2, # of connection points: 2
#     Edge 23, Type (0, 0), BuildingBlock: XUDNAN_clean_linker_2, # of connection points: 2
#     Edge 24, Type (0, 0), BuildingBlock: XUDNAN_clean_linker_2, # of connection points: 2
#     Edge 25, Type (0, 0), BuildingBlock: XUDNAN_clean_linker_2, # of connection points: 2
#     Edge 26, Type (0, 0), BuildingBlock: XUDNAN_clean_linker_2, # of connection points: 2
#     Edge 27, Type (0, 0), BuildingBlock: XUDNAN_clean_linker_2, # of connection points: 2
#     Edge 28, Type (0, 0), BuildingBlock: XUDNAN_clean_linker_2, # of connection points: 2
#     Edge 29, Type (0, 0), BuildingBlock: XUDNAN_clean_linker_2, # of connection points: 2
#     Edge 30, Type (0, 0), BuildingBlock: XUDNAN_clean_linker_2, # of connection points: 2
#     Edge 31, Type (0, 0), BuildingBlock: XUDNAN_clean_linker_2, # of connection points: 2
#     Edge 32, Type (0, 0), BuildingBlock: XUDNAN_clean_linker_2, # of connection points: 2
#     Edge 33, Type (0, 0), BuildingBlock: XUDNAN_clean_linker_2, # of connection points: 2
#     Edge 34, Type (0, 0), BuildingBlock: XUDNAN_clean_linker_2, # of connection points: 2
#     Edge 35, Type (0, 0), BuildingBlock: XUDNAN_clean_linker_2, # of connection points: 2
#     Edge 36, Type (0, 0), BuildingBlock: XUDNAN_clean_linker_2, # of connection points: 2
#     Edge 37, Type (0, 0), BuildingBlock: XUDNAN_clean_linker_2, # of connection points: 2
#     Edge 38, Type (0, 0), BuildingBlock: XUDNAN_clean_linker_2, # of connection points: 2
#     Edge 39, Type (0, 0), BuildingBlock: XUDNAN_clean_linker_2, # of connection points: 2
#     Edge 40, Type (0, 0), BuildingBlock: XUDNAN_clean_linker_2, # of connection points: 2
#     Edge 41, Type (0, 0), BuildingBlock: XUDNAN_clean_linker_2, # of connection points: 2
#     Edge 42, Type (0, 0), BuildingBlock: XUDNAN_clean_linker_2, # of connection points: 2
#     Edge 43, Type (0, 0), BuildingBlock: XUDNAN_clean_linker_2, # of connection points: 2
#     Edge 44, Type (0, 0), BuildingBlock: XUDNAN_clean_linker_2, # of connection points: 2
#     Edge 45, Type (0, 0), BuildingBlock: XUDNAN_clean_linker_2, # of connection points: 2
#     Edge 46, Type (0, 0), BuildingBlock: XUDNAN_clean_linker_2, # of connection points: 2
#     Edge 47, Type (0, 0), BuildingBlock: XUDNAN_clean_linker_2, # of connection points: 2
# Relax obj value: 0.283
# Max RMSD: 0.255
# Mean RMSD: 0.255
data_MOF--net-wkf--node1-IZENUY_clean_sbu_0--edge1-XUDNAN_clean_linker_2
_symmetry_space_group_name_H-M    P1
_symmetry_Int_Tables_number       1
_symmetry_cell_setting            triclinic
loop_
_symmetry_equiv_pos_as_xyz
'x, y, z'
_cell_length_a     26.862307
_cell_length_b     26.986235
_cell_length_c     74.212265
_cell_angle_alpha  89.856883
_cell_angle_beta   89.996754
_cell_angle_gamma 120.16966
loop_
_atom_site_label
_atom_site_type_symbol
_atom_site_fract_x
_atom_site_fract_y
_atom_site_fract_z
_atom_type_partial_charge
Fe0 Fe 0.45506 0.1341 0.35534 0.0
Fe1 Fe 0.34291 0.13403 0.36157 0.0
O2 O 0.39705 0.12064 0.36952 0.0
Fe3 Fe 0.39358 0.09399 0.39153 0.0
O4 O 0.46154 0.15612 0.39753 0.0
O5 O 0.5079 0.15312 0.37365 0.0
O6 O 0.47744 0.20889 0.35413 0.0
C7 C 0.44606 0.22796 0.34856 0.0
C8 C 0.43314 0.03362 0.37021 0.0
O9 O 0.39201 0.19512 0.347 0.0
C10 C 0.28049 0.03235 0.38267 0.0
O11 O 0.41346 0.11795 0.33437 0.0
O12 O 0.32421 0.08218 0.34349 0.0
O13 O 0.42848 0.05211 0.38547 0.0
O14 O 0.43502 0.05981 0.35597 0.0
C15 C 0.35797 0.17586 0.39577 0.0
O16 O 0.28481 0.07648 0.37501 0.0
O17 O 0.32493 0.03049 0.38699 0.0
C18 C 0.35997 0.08547 0.33185 0.0
O19 O 0.35861 0.18612 0.37916 0.0
O20 O 0.35894 0.1318 0.40131 0.0
C21 C 0.50809 0.17219 0.38925 0.0
Fe22 Fe 0.27471 0.3601 0.55581 0.0
Fe23 Fe 0.28818 0.43461 0.52249 0.0
O24 O 0.25118 0.36923 0.53451 0.0
Fe25 Fe 0.1886 0.31088 0.52493 0.0
O26 O 0.14459 0.31638 0.5423 0.0
O27 O 0.19983 0.31696 0.56456 0.0
O28 O 0.27316 0.42007 0.56522 0.0
C29 C 0.29194 0.46945 0.55888 0.0
C30 C 0.23459 0.25261 0.54423 0.0
O31 O 0.30622 0.48089 0.54246 0.0
C32 C 0.26441 0.34634 0.49716 0.0
O33 O 0.35223 0.40292 0.55063 0.0
O34 O 0.35556 0.4359 0.52318 0.0
O35 O 0.192 0.25399 0.53766 0.0
O36 O 0.27895 0.29879 0.54808 0.0
C37 C 0.18005 0.40461 0.51242 0.0
O38 O 0.27652 0.39762 0.50052 0.0
O39 O 0.23212 0.30514 0.50751 0.0
C40 C 0.37953 0.42692 0.53629 0.0
O41 O 0.22394 0.44006 0.52086 0.0
O42 O 0.17038 0.35426 0.51015 0.0
C43 C 0.15333 0.31395 0.55897 0.0
Fe44 Fe 0.90477 0.29234 0.72064 0.0
Fe45 Fe 0.83116 0.27383 0.68688 0.0
O46 O 0.8719 0.25402 0.70072 0.0
Fe47 Fe 0.88017 0.19491 0.6949 0.0
O48 O 0.84181 0.15651 0.71509 0.0
O49 O 0.89677 0.22898 0.73281 0.0
O50 O 0.8365 0.2743 0.73003 0.0
C51 C 0.79691 0.2791 0.72274 0.0
C52 C 0.9894 0.27449 0.70952 0.0
O53 O 0.79871 0.29168 0.70611 0.0
C54 C 0.9009 0.25165 0.66282 0.0
O55 O 0.91765 0.36241 0.71255 0.0
O56 O 0.88929 0.34636 0.68439 0.0
O57 O 0.95094 0.22324 0.70604 0.0
O58 O 0.97535 0.31186 0.71215 0.0
C59 C 0.76662 0.15845 0.68273 0.0
O60 O 0.85795 0.25874 0.66561 0.0
O61 O 0.91856 0.231 0.67482 0.0
C62 C 0.91676 0.38039 0.69688 0.0
O63 O 0.76865 0.20338 0.68807 0.0
O64 O 0.81191 0.15511 0.68231 0.0
C65 C 0.85985 0.17633 0.73063 0.0
Fe66 Fe 0.57328 0.8597 0.84784 0.0
Fe67 Fe 0.68197 0.88865 0.86929 0.0
O68 O 0.61641 0.88869 0.86718 0.0
Fe69 Fe 0.59424 0.91779 0.88466 0.0
O70 O 0.531 0.84996 0.8887 0.0
O71 O 0.50431 0.82962 0.86035 0.0
O72 O 0.56756 0.79139 0.85132 0.0
C73 C 0.60895 0.78247 0.85229 0.0
C74 C 0.55652 0.94936 0.85306 0.0
O75 O 0.65899 0.82272 0.85613 0.0
C76 C 0.70725 0.99574 0.88452 0.0
O77 O 0.63516 0.88487 0.83222 0.0
O78 O 0.71102 0.93324 0.84966 0.0
O79 O 0.55453 0.94139 0.86994 0.0
O80 O 0.5755 0.92579 0.84284 0.0
C81 C 0.64108 0.85888 0.90331 0.0
O82 O 0.71753 0.95488 0.88283 0.0
O83 O 0.6574 0.98744 0.88161 0.0
C84 C 0.68784 0.92278 0.83432 0.0
O85 O 0.65591 0.84382 0.88918 0.0
O86 O 0.62841 0.89828 0.90278 0.0
C87 C 0.49419 0.8195 0.87712 0.0
Fe88 Fe 0.71285 0.58511 0.01698 0.0
Fe89 Fe 0.81521 0.69542 0.03126 0.0
O90 O 0.74835 0.63232 0.03502 0.0
Fe91 Fe 0.71793 0.6173 0.05679 0.0
O92 O 0.71879 0.55163 0.05778 0.0
O93 O 0.6827 0.51928 0.0309 0.0
O94 O 0.7737 0.57524 0.01314 0.0
C95 C 0.82341 0.6153 0.00945 0.0
C96 C 0.62026 0.57967 0.03383 0.0
O97 O 0.83744 0.66677 0.01238 0.0
C98 C 0.76166 0.7312 0.05684 0.0
O99 O 0.73666 0.64348 1.00015 0.0
O100 O 0.78124 0.72226 0.01638 0.0
O101 O 0.64218 0.58019 0.04903 0.0
O102 O 0.64966 0.59142 0.01966 0.0
C103 C 0.83707 0.65906 0.06272 0.0
O104 O 0.80642 0.7365 0.04939 0.0
O105 O 0.71592 0.68333 0.05718 0.0
C106 C 0.75149 0.69569 0.00283 0.0
O107 O 0.85107 0.67052 0.04633 0.0
O108 O 0.78843 0.65004 0.06836 0.0
C109 C 0.69637 0.51145 0.04659 0.0
Fe110 Fe 0.14084 0.79735 0.19516 0.0
Fe111 Fe 0.09768 0.70457 0.22452 0.0
O112 O 0.12781 0.72988 0.20296 0.0
Fe113 Fe 0.14443 0.68745 0.18902 0.0
O114 O 0.21921 0.74146 0.18859 0.0
O115 O 0.20418 0.81174 0.18131 0.0
O116 O 0.19024 0.83331 0.21344 0.0
C117 C 0.17759 0.82283 0.22991 0.0
C118 C 0.09678 0.73305 0.16488 0.0
O119 O 0.13312 0.77667 0.23488 0.0
C120 C 0.0421 0.60562 0.20242 0.0
O121 O 0.08011 0.7952 0.20762 0.0
O122 O 0.03454 0.70758 0.21856 0.0
O123 O 0.1296 0.71283 0.16777 0.0
O124 O 0.09161 0.76435 0.17644 0.0
C125 C 0.17689 0.67035 0.22369 0.0
O126 O 0.05678 0.62803 0.21794 0.0
O127 O 0.07079 0.63143 0.18867 0.0
C128 C 0.03453 0.75184 0.21333 0.0
O129 O 0.1593 0.69972 0.23168 0.0
O130 O 0.16185 0.65385 0.20764 0.0
C131 C 0.23716 0.79066 0.18215 0.0
Fe132 Fe 0.86408 0.56096 0.48295 0.0
Fe133 Fe 0.85838 0.66811 0.472 0.0
O134 O 0.87296 0.61272 0.4666 0.0
Fe135 Fe 0.89741 0.60956 0.44462 0.0
O136 O 0.83485 0.54054 0.44065 0.0
O137 O 0.8385 0.50168 0.4665 0.0
O138 O 0.78948 0.53872 0.48654 0.0
C139 C 0.77015 0.57097 0.49074 0.0
C140 C 0.96087 0.57527 0.46665 0.0
O141 O 0.79895 0.6245 0.48779 0.0
C142 C 0.95976 0.72405 0.45018 0.0
O143 O 0.88764 0.61086 0.50208 0.0
O144 O 0.91085 0.69444 0.48997 0.0
O145 O 0.93967 0.57618 0.45154 0.0
O146 O 0.93834 0.57953 0.48092 0.0
C147 C 0.81634 0.64573 0.43789 0.0
O148 O 0.91541 0.72172 0.45717 0.0
O149 O 0.96156 0.67886 0.44743 0.0
C150 C 0.91403 0.6651 0.50268 0.0
O151 O 0.80483 0.64593 0.45435 0.0
O152 O 0.85942 0.6416 0.43319 0.0
C153 C 0.81919 0.49727 0.45059 0.0
Fe154 Fe 0.27923 0.83721 0.65359 0.0
Fe155 Fe 0.1979 0.88073 0.64274 0.0
O156 O 0.25297 0.86582 0.63707 0.0
Fe157 Fe 0.28245 0.87944 0.61507 0.0
O158 O 0.29614 0.81919 0.61531 0.0
O159 O 0.2559 0.77297 0.6405 0.0
O160 O 0.21141 0.79844 0.66623 0.0
C161 C 0.16047 0.77952 0.66078 0.0
C162 C 0.37961 0.91517 0.63502 0.0
O163 O 0.14969 0.80696 0.6492 0.0
C164 C 0.26129 0.9718 0.62076 0.0
O165 O 0.30437 0.90062 0.66722 0.0
O166 O 0.2238 0.90318 0.66601 0.0
O167 O 0.35417 0.92969 0.6237 0.0
O168 O 0.35204 0.86997 0.64424 0.0
C169 C 0.16795 0.8337 0.60736 0.0
O170 O 0.24149 0.95529 0.63639 0.0
O171 O 0.27237 0.94086 0.61066 0.0
C172 C 0.27384 0.92119 0.67244 0.0
O173 O 0.16352 0.86152 0.62042 0.0
O174 O 0.21284 0.8304 0.60517 0.0
C175 C 0.27288 0.77345 0.6246 0.0
Fe176 Fe 0.41956 0.2732 0.82191 0.0
Fe177 Fe 0.31056 0.20746 0.79909 0.0
O178 O 0.38157 0.26551 0.80159 0.0
Fe179 Fe 0.41638 0.31462 0.78381 0.0
O180 O 0.48774 0.32538 0.78908 0.0
O181 O 0.47149 0.261 0.80988 0.0
O182 O 0.38106 0.19726 0.82785 0.0
C183 C 0.36069 0.15549 0.81719 0.0
C184 C 0.45719 0.3875 0.81208 0.0
O185 O 0.33432 0.1562 0.8033 0.0
C186 C 0.30077 0.29142 0.78171 0.0
O187 O 0.36844 0.28462 0.83454 0.0
O188 O 0.2918 0.20972 0.82291 0.0
O189 O 0.42753 0.37454 0.79786 0.0
O190 O 0.46554 0.35095 0.82007 0.0
C191 C 0.36215 0.21227 0.76546 0.0
O192 O 0.28217 0.25424 0.79409 0.0
O193 O 0.35088 0.31123 0.77528 0.0
C194 C 0.31483 0.24917 0.8347 0.0
O195 O 0.31758 0.19629 0.77503 0.0
O196 O 0.40823 0.25815 0.76882 0.0
C197 C 0.4994 0.28983 0.79626 0.0
Fe198 Fe 0.11714 0.32788 0.97428 0.0
Fe199 Fe 0.09066 0.39483 0.94662 0.0
O200 O 0.12265 0.39298 0.96712 0.0
Fe201 Fe 0.15873 0.45516 0.98047 0.0
O202 O 0.2247 0.45286 0.97982 0.0
O203 O 0.18541 0.36207 0.98711 0.0
O204 O 0.1574 0.32689 0.95463 0.0
C205 C 0.13979 0.32618 0.93879 0.0
C206 C 0.09277 0.36553 0.00535 0.0
O207 O 0.10197 0.34008 0.93573 0.0
C208 C 0.06814 0.46555 0.96896 0.0
O209 O 0.04723 0.28143 0.96303 0.0
O210 O 0.02057 0.34269 0.95498 0.0
O211 O 0.1353 0.41539 0.0022 0.0
O212 O 0.07645 0.32603 0.99385 0.0
C213 C 0.19131 0.49524 0.94419 0.0
O214 O 0.07427 0.45054 0.95341 0.0
O215 O 0.09517 0.4617 0.98218 0.0
C216 C 0.00789 0.2922 0.95868 0.0
O217 O 0.15871 0.44681 0.93744 0.0
O218 O 0.18755 0.5049 0.96081 0.0
C219 C 0.22928 0.41184 0.98591 0.0
Fe220 Fe 0.78698 0.13434 0.14096 0.0
Fe221 Fe 0.70692 0.09871 0.10793 0.0
O222 O 0.72329 0.12367 0.13036 0.0
Fe223 Fe 0.67414 0.13713 0.14228 0.0
O224 O 0.72738 0.1918 0.15724 0.0
O225 O 0.80953 0.20822 0.146 0.0
O226 O 0.83149 0.16168 0.12037 0.0
C227 C 0.82245 0.17788 0.10521 0.0
C228 C 0.6986 0.07658 0.16693 0.0
O229 O 0.77195 0.16003 0.09948 0.0
C230 C 0.60135 0.03787 0.12331 0.0
O231 O 0.77025 0.06142 0.13687 0.0
O232 O 0.74138 0.05574 0.10888 0.0
O233 O 0.66047 0.08083 0.15822 0.0
O234 O 0.75184 0.1081 0.16318 0.0
C235 C 0.67606 0.18395 0.10972 0.0
O236 O 0.64106 0.03504 0.11524 0.0
O237 O 0.61055 0.08466 0.12996 0.0
C238 C 0.75559 0.03588 0.122 0.0
O239 O 0.66981 0.13832 0.10278 0.0
O240 O 0.68597 0.19358 0.12642 0.0
C241 C 0.78089 0.224 0.1553 0.0
Fe242 Fe 0.60286 0.69567 0.27808 0.0
Fe243 Fe 0.56687 0.71353 0.31541 0.0
O244 O 0.61714 0.73778 0.29758 0.0
Fe245 Fe 0.6825 0.80425 0.2997 0.0
O246 O 0.66423 0.83388 0.28053 0.0
O247 O 0.63621 0.75832 0.26286 0.0
O248 O 0.53637 0.69407 0.27377 0.0
C249 C 0.49541 0.67716 0.28469 0.0
C250 C 0.71745 0.73695 0.27978 0.0
O251 O 0.50256 0.67388 0.30135 0.0
C252 C 0.67313 0.75914 0.3332 0.0
O253 O 0.56656 0.62643 0.29019 0.0
O254 O 0.57396 0.65141 0.31877 0.0
O255 O 0.72588 0.78511 0.28505 0.0
O256 O 0.6682 0.69355 0.28085 0.0
C257 C 0.59887 0.82511 0.31573 0.0
O258 O 0.62139 0.74794 0.33301 0.0
O259 O 0.70374 0.77696 0.31909 0.0
C260 C 0.56799 0.61599 0.30679 0.0
O261 O 0.55813 0.77507 0.31285 0.0
O262 O 0.65083 0.83676 0.31437 0.0
C263 C 0.64938 0.81021 0.26524 0.0
H264 H 0.15059 0.83262 0.26518 0.0
H265 H 0.28521 0.91419 0.22478 0.0
H266 H 0.3449 0.99025 0.24635 0.0
H267 H 0.16805 0.96307 0.28416 0.0
H268 H 0.15498 0.93689 0.30704 0.0
H269 H 0.12259 0.88753 0.28861 0.0
H270 H 0.16847 0.82869 0.30003 0.0
H271 H 0.20076 0.87773 0.31854 0.0
H272 H 0.24521 0.86411 0.30351 0.0
H273 H 0.39082 0.05644 0.27199 0.0
H274 H 0.4203 0.11043 0.30043 0.0
H275 H 0.25557 0.98917 0.32438 0.0
C276 C 0.19272 0.86636 0.26091 0.0
C277 C 0.21316 0.86743 0.24326 0.0
C278 C 0.26842 0.91255 0.23817 0.0
C279 C 0.30276 0.95596 0.25034 0.0
C280 C 0.28122 0.95397 0.26754 0.0
C281 C 0.22754 0.91053 0.27287 0.0
C282 C 0.21477 0.91928 0.29216 0.0
C283 C 0.16197 0.92717 0.29303 0.0
C284 C 0.20685 0.86949 0.30427 0.0
C285 C 0.26969 0.97442 0.29676 0.0
C286 C 0.30743 0.99334 0.28235 0.0
C287 C 0.36159 0.04229 0.28336 0.0
C288 C 0.37792 0.07264 0.29959 0.0
C289 C 0.34009 0.0543 0.31458 0.0
C290 C 0.28505 0.0047 0.31306 0.0
H291 H 0.26785 0.24956 0.48945 0.0
H292 H 0.30647 0.41359 0.46679 0.0
H293 H 0.33744 0.38914 0.43837 0.0
H294 H 0.38831 0.24569 0.46918 0.0
H295 H 0.34787 0.16931 0.46567 0.0
H296 H 0.33002 0.20062 0.48418 0.0
H297 H 0.22473 0.15356 0.47276 0.0
H298 H 0.24225 0.12219 0.45421 0.0
H299 H 0.21111 0.16668 0.44995 0.0
H300 H 0.35935 0.34386 0.41194 0.0
H301 H 0.3743 0.28345 0.39011 0.0
H302 H 0.32385 0.15111 0.43093 0.0
C303 C 0.28275 0.28043 0.47852 0.0
C304 C 0.28431 0.33327 0.48024 0.0
C305 C 0.30487 0.3728 0.46572 0.0
C306 C 0.32249 0.35928 0.44956 0.0
C307 C 0.31989 0.30647 0.44829 0.0
C308 C 0.30098 0.26794 0.46246 0.0
C309 C 0.30219 0.21409 0.45777 0.0
C310 C 0.34464 0.20705 0.46992 0.0
C311 C 0.24146 0.16101 0.45872 0.0
C312 C 0.3238 0.22778 0.4386 0.0
C313 C 0.33379 0.2812 0.43334 0.0
C314 C 0.35209 0.30216 0.41596 0.0
C315 C 0.36024 0.26747 0.40365 0.0
C316 C 0.35032 0.21265 0.40885 0.0
C317 C 0.33228 0.19299 0.4266 0.0
H318 H 0.00452 0.26116 0.65533 0.0
H319 H 0.86376 0.27078 0.63012 0.0
H320 H 0.91294 0.28764 0.60053 0.0
H321 H 0.11843 0.37174 0.62873 0.0
H322 H 0.15934 0.33549 0.62809 0.0
H323 H 0.11314 0.32521 0.64702 0.0
H324 H 0.06026 0.21534 0.64196 0.0
H325 H 0.10603 0.22525 0.62294 0.0
H326 H 0.0289 0.18674 0.62026 0.0
H327 H 0.97738 0.30048 0.57357 0.0
H328 H 0.05237 0.31252 0.55189 0.0
H329 H 0.15037 0.29503 0.59548 0.0
C330 C 0.98372 0.26673 0.64362 0.0
C331 C 0.92994 0.26419 0.64502 0.0
C332 C 0.90487 0.27251 0.62937 0.0
C333 C 0.93245 0.28196 0.61253 0.0
C334 C 0.98514 0.28339 0.61167 0.0
C335 C 0.0106 0.27642 0.62687 0.0
C336 C 0.06737 0.27997 0.62254 0.0
C337 C 0.11752 0.33115 0.63217 0.0
C338 C 0.06549 0.22346 0.6272 0.0
C339 C 0.06991 0.28949 0.60242 0.0
C340 C 0.02214 0.2913 0.59636 0.0
C341 C 0.01494 0.29923 0.57821 0.0
C342 C 0.05777 0.30582 0.56598 0.0
C343 C 0.10733 0.30453 0.57194 0.0
C344 C 0.11311 0.29616 0.59044 0.0
H345 H 0.75432 0.08495 0.73941 0.0
H346 H 0.93237 0.18081 0.75674 0.0
H347 H 0.90852 0.11846 0.78353 0.0
H348 H 0.69592 0.07252 0.78293 0.0
H349 H 0.63495 0.00169 0.77971 0.0
H350 H 0.66698 0.0487 0.76067 0.0
H351 H 0.68196 0.97165 0.74486 0.0
H352 H 0.64997 0.92432 0.76388 0.0
H353 H 0.72099 0.9427 0.7563 0.0
H354 H 0.86547 0.05106 0.80901 0.0
H355 H 0.80485 0.98644 0.83315 0.0
H356 H 0.6524 0.93554 0.80054 0.0
C357 C 0.78828 0.09177 0.74871 0.0
C358 C 0.8453 0.13691 0.746 0.0
C359 C 0.88854 0.14611 0.75862 0.0
C360 C 0.87544 0.1108 0.77379 0.0
C361 C 0.81871 0.06702 0.77624 0.0
C362 C 0.77562 0.05758 0.76418 0.0
C363 C 0.71729 0.01116 0.771 0.0
C364 C 0.67639 0.03495 0.77374 0.0
C365 C 0.69102 0.95938 0.75825 0.0
C366 C 0.73438 -0.0035 0.78885 0.0
C367 C 0.79323 0.02882 0.79141 0.0
C368 C 0.81938 0.02516 0.80713 0.0
C369 C 0.78445 0.98833 0.82079 0.0
C370 C 0.7238 0.95572 0.81874 0.0
C371 C 0.69864 0.95921 0.80239 0.0
H372 H 0.64372 0.76049 0.91016 0.0
H373 H 0.65946 0.91208 0.93588 0.0
H374 H 0.6855 0.88405 0.96445 0.0
H375 H 0.58338 0.66561 0.95031 0.0
H376 H 0.62124 0.62797 0.94525 0.0
H377 H 0.59895 0.65739 0.92724 0.0
H378 H 0.70428 0.71391 0.91569 0.0
H379 H 0.72705 0.68534 0.93377 0.0
H380 H 0.76054 0.76181 0.93077 0.0
H381 H 0.71995 0.84599 0.98895 0.0
H382 H 0.75195 0.79511 0.00916 0.0
H383 H 0.71033 0.66544 0.96816 0.0
C384 C 0.65176 0.78725 0.9219 0.0
C385 C 0.64974 0.83851 0.92083 0.0
C386 C 0.66041 0.87245 0.93644 0.0
C387 C 0.67539 0.85698 0.95271 0.0
C388 C 0.67844 0.80698 0.95319 0.0
C389 C 0.66589 0.77198 0.93833 0.0
C390 C 0.67369 0.72122 0.9424 0.0
C391 C 0.61587 0.66471 0.94123 0.0
C392 C 0.7191 0.72058 0.92992 0.0
C393 C 0.69484 0.73447 0.96166 0.0
C394 C 0.69701 0.78404 0.9676 0.0
C395 C 0.71773 0.80671 0.98457 0.0
C396 C 0.73626 0.77769 0.99588 0.0
C397 C 0.73379 0.72635 0.99021 0.0
C398 C 0.71251 0.70441 0.97288 0.0
H399 H -0.00068 0.73753 0.15735 0.0
H400 H 0.12489 0.70136 0.13327 0.0
H401 H 0.07182 0.67804 0.10447 0.0
H402 H 0.87646 0.62264 0.13579 0.0
H403 H 0.83958 0.66242 0.13285 0.0
H404 H 0.88881 0.67889 0.15135 0.0
H405 H 0.94671 0.78482 0.14083 0.0
H406 H 0.89752 0.76876 0.12234 0.0
H407 H 0.97362 0.80096 0.11805 0.0
H408 H 0.00593 0.66001 0.07821 0.0
H409 H 0.92974 0.6455 0.05656 0.0
H410 H 0.84459 0.68837 0.09829 0.0
C411 C 0.01599 0.72537 0.14594 0.0
C412 C 0.06648 0.72175 0.14746 0.0
C413 C 0.08634 0.70454 0.13237 0.0
C414 C 0.05655 0.69125 0.11597 0.0
C415 C 0.00664 0.69476 0.11496 0.0
C416 C 0.98633 0.71114 0.12955 0.0
C417 C 0.93058 0.7096 0.12507 0.0
C418 C 0.88093 0.66577 0.13697 0.0
C419 C 0.93755 0.7696 0.12667 0.0
C420 C 0.92293 0.69012 0.10565 0.0
C421 C 0.96746 0.68216 0.10004 0.0
C422 C 0.97066 0.66581 0.08247 0.0
C423 C 0.92733 0.65775 0.07028 0.0
C424 C 0.8812 0.66541 0.07581 0.0
C425 C 0.87891 0.68138 0.09377 0.0
H426 H 0.13879 0.74475 0.58359 0.0
H427 H 0.09764 0.87547 0.59867 0.0
H428 H 0.02731 0.84505 0.57391 0.0
H429 H 0.12796 0.75463 0.53592 0.0
H430 H 0.09399 0.67861 0.53194 0.0
H431 H 0.14105 0.70989 0.55099 0.0
H432 H 0.05985 0.63981 0.5724 0.0
H433 H 0.01267 0.60821 0.55338 0.0
H434 H 0.99097 0.63617 0.57192 0.0
H435 H 0.96755 0.80644 0.54635 0.0
H436 H 0.91388 0.75474 0.51909 0.0
H437 H 0.98632 0.6432 0.52294 0.0
C438 C 0.11467 0.76666 0.5817 0.0
C439 C 0.12367 0.8125 0.59305 0.0
C440 C 0.09114 0.83998 0.59025 0.0
C441 C 0.05127 0.82319 0.57616 0.0
C442 C 0.04362 0.77819 0.56516 0.0
C443 C 0.07365 0.74961 0.56788 0.0
C444 C 0.05618 0.70192 0.5542 0.0
C445 C 0.10788 0.7119 0.54258 0.0
C446 C 0.02824 0.64304 0.56354 0.0
C447 C 0.01244 0.70898 0.54322 0.0
C448 C 0.0064 0.75365 0.54971 0.0
C449 C 0.97117 0.77081 0.54128 0.0
C450 C 0.94106 0.74141 0.52581 0.0
C451 C 0.94554 0.69476 0.51914 0.0
C452 C 0.9814 0.67811 0.52802 0.0
H453 H 0.21479 0.95674 0.69427 0.0
H454 H 0.3867 0.99026 0.6813 0.0
H455 H 0.42793 0.07044 0.70285 0.0
H456 H 0.25074 0.10338 0.69975 0.0
H457 H 0.20293 0.08874 0.7186 0.0
H458 H 0.18644 0.03424 0.70192 0.0
H459 H 0.18076 0.96416 0.72687 0.0
H460 H 0.19677 0.01832 0.74362 0.0
H461 H 0.24095 0.98571 0.74188 0.0
H462 H 0.45104 0.14879 0.72505 0.0
H463 H 0.45369 0.21427 0.74867 0.0
H464 H 0.26681 0.12753 0.74828 0.0
C465 C 0.26107 0.9809 0.69599 0.0
C466 C 0.29748 0.96717 0.68612 0.0
C467 C 0.35787 -0.00034 0.68882 0.0
C468 C 0.38179 0.04555 0.70094 0.0
C469 C 0.34479 0.0582 0.71038 0.0
C470 C 0.28571 0.02646 0.70824 0.0
C471 C 0.25559 0.04796 0.72051 0.0
C472 C 0.22195 0.06989 0.70954 0.0
C473 C 0.2162 0.00126 0.73402 0.0
C474 C 0.30698 0.09674 0.72984 0.0
C475 C 0.35805 0.10232 0.72364 0.0
C476 C 0.41132 0.14473 0.73007 0.0
C477 C 0.41238 0.18191 0.74341 0.0
C478 C 0.36045 0.17599 0.75032 0.0
C479 C 0.30719 0.133 0.74331 0.0
H480 H 0.24829 0.35344 0.92808 0.0
H481 H 0.06722 0.24452 0.91567 0.0
H482 H 0.09263 0.20878 0.8886 0.0
H483 H 0.29158 0.39615 0.88313 0.0
H484 H 0.35954 0.39827 0.88491 0.0
H485 H 0.32769 0.41013 0.90457 0.0
H486 H 0.33154 0.32772 0.92128 0.0
H487 H 0.36393 0.31592 0.90171 0.0
H488 H 0.29889 0.25764 0.91116 0.0
H489 H 0.13703 0.18916 0.86216 0.0
H490 H 0.19757 0.18761 0.83749 0.0
H491 H 0.35072 0.31311 0.86592 0.0
C492 C 0.21425 0.32096 0.91986 0.0
C493 C 0.15587 0.3008 0.924 0.0
C494 C 0.11218 0.25986 0.91271 0.0
C495 C 0.12619 0.23937 0.89735 0.0
C496 C 0.18416 0.26093 0.89335 0.0
C497 C 0.22758 0.30089 0.90422 0.0
C498 C 0.28631 0.32036 0.896 0.0
C499 C 0.31813 0.38506 0.89191 0.0
C500 C 0.32228 0.30444 0.90827 0.0
C501 C 0.26899 0.28538 0.87881 0.0
C502 C 0.20989 0.25103 0.87767 0.0
C503 C 0.1834 0.21558 0.86293 0.0
C504 C 0.21823 0.21505 0.84897 0.0
C505 C 0.27897 0.2501 0.84974 0.0
C506 C 0.30448 0.28574 0.86491 0.0
H507 H 0.82096 0.18932 0.06862 0.0
H508 H 0.93546 0.25031 0.11473 0.0
H509 H 0.01715 0.31161 0.09448 0.0
H510 H 0.91768 0.17765 0.03926 0.0
H511 H 0.89469 0.19963 0.01949 0.0
H512 H 0.84522 0.16504 0.03783 0.0
H513 H 0.82787 0.25115 0.03994 0.0
H514 H 0.87752 0.28608 0.02161 0.0
H515 H 0.88841 0.32246 0.04282 0.0
H516 H 0.08704 0.3662 0.06848 0.0
H517 H 0.13893 0.40021 0.03928 0.0
H518 H 0.97827 0.29766 0.01081 0.0
C519 C 0.86306 0.21602 0.07453 0.0
C520 C 0.87174 0.21527 0.09329 0.0
C521 C 0.92779 0.25015 0.10039 0.0
C522 C 0.97436 0.28535 0.08901 0.0
C523 C 0.96426 0.28484 0.07053 0.0
C524 C 0.90993 0.25059 0.06338 0.0
C525 C 0.91067 0.25455 0.04303 0.0
C526 C 0.89092 0.19573 0.0344 0.0
C527 C 0.87394 0.28008 0.03647 0.0
C528 C 0.97404 0.29558 0.03977 0.0
C529 C 0.0043 0.31373 0.05575 0.0
C530 C 0.06366 0.35212 0.05591 0.0
C531 C 0.09277 0.37141 0.03932 0.0
C532 C 0.06256 0.35119 0.02288 0.0
C533 C 0.00245 0.31343 0.02321 0.0
H534 H 0.72825 0.92093 0.25532 0.0
H535 H 0.56537 0.77323 0.24009 0.0
H536 H 0.55836 0.82741 0.21425 0.0
H537 H 0.69645 0.03149 0.24238 0.0
H538 H 0.76714 0.07879 0.23329 0.0
H539 H 0.7581 0.02986 0.25124 0.0
H540 H 0.80781 0.9874 0.23184 0.0
H541 H 0.81725 0.0364 0.21388 0.0
H542 H 0.78037 0.96037 0.20966 0.0
H543 H 0.56725 0.89798 0.1908 0.0
H544 H 0.59694 0.9763 0.16873 0.0
H545 H 0.75875 0.07615 0.19712 0.0
C546 C 0.69108 0.90033 0.24655 0.0
C547 C 0.64704 0.84316 0.24969 0.0
C548 C 0.5995 0.817 0.23783 0.0
C549 C 0.59503 0.84751 0.22321 0.0
C550 C 0.63907 0.90379 0.22043 0.0
C551 C 0.68671 0.92973 0.23155 0.0
C552 C 0.72963 0.98944 0.22479 0.0
C553 C 0.73832 0.03509 0.23876 0.0
C554 C 0.78717 0.99362 0.21974 0.0
C555 C 0.69847 0.99305 0.20822 0.0
C556 C 0.64586 0.94347 0.20618 0.0
C557 C 0.60849 0.93687 0.19219 0.0
C558 C 0.62564 0.98177 0.17978 0.0
C559 C 0.68016 0.03231 0.1812 0.0
C560 C 0.71695 0.03794 0.19567 0.0
H561 H 0.82911 0.65001 0.40097 0.0
H562 H 0.73756 0.67988 0.44398 0.0
H563 H 0.69675 0.71767 0.42182 0.0
H564 H 0.8648 0.77472 0.37497 0.0
H565 H 0.85285 0.73991 0.35341 0.0
H566 H 0.87456 0.7137 0.37245 0.0
H567 H 0.78516 0.61254 0.36838 0.0
H568 H 0.7638 0.63822 0.34914 0.0
H569 H 0.71447 0.60473 0.36763 0.0
H570 H 0.66804 0.7545 0.39562 0.0
H571 H 0.64387 0.77877 0.36614 0.0
H572 H 0.75269 0.72495 0.33953 0.0
C573 C 0.80008 0.66403 0.40572 0.0
C574 C 0.7868 0.66217 0.42428 0.0
C575 C 0.74844 0.68077 0.42989 0.0
C576 C 0.72527 0.70265 0.41741 0.0
C577 C 0.74046 0.70529 0.39934 0.0
C578 C 0.77616 0.68567 0.39341 0.0
C579 C 0.78434 0.69226 0.37312 0.0
C580 C 0.84792 0.73255 0.3682 0.0
C581 C 0.76051 0.63344 0.36404 0.0
C582 C 0.74804 0.71917 0.36862 0.0
C583 C 0.72343 0.72643 0.38403 0.0
C584 C 0.68698 0.74901 0.38346 0.0
C585 C 0.67368 0.76281 0.36666 0.0
C586 C 0.69676 0.75409 0.3506 0.0
C587 C 0.73545 0.73314 0.35162 0.0
H588 H 0.50641 0.8386 0.31066 0.0
H589 H 0.65784 0.89424 0.34402 0.0
H590 H 0.62354 0.94326 0.36444 0.0
H591 H 0.50238 0.96986 0.31437 0.0
H592 H 0.4248 0.93326 0.31425 0.0
H593 H 0.46175 0.90231 0.30286 0.0
H594 H 0.40295 0.80927 0.32152 0.0
H595 H 0.36721 0.84072 0.33343 0.0
H596 H 0.40549 0.8127 0.34579 0.0
H597 H 0.57079 0.98321 0.38166 0.0
H598 H 0.51504 0.02943 0.39065 0.0
H599 H 0.40062 0.95022 0.3453 0.0
C600 C 0.53265 0.86185 0.32214 0.0
C601 C 0.58471 0.86307 0.32582 0.0
C602 C 0.61817 0.8937 0.3409 0.0
C603 C 0.59859 0.92078 0.3527 0.0
C604 C 0.54592 0.91707 0.34904 0.0
C605 C 0.51424 0.8897 0.33386 0.0
C606 C 0.46102 0.89498 0.33231 0.0
C607 C 0.46263 0.92704 0.31493 0.0
C608 C 0.40593 0.83589 0.33333 0.0
C609 C 0.46796 0.93014 0.34893 0.0
C610 C 0.51639 0.94126 0.35866 0.0
C611 C 0.53265 0.97465 0.37422 0.0
C612 C 0.50039 8e-05 0.37937 0.0
C613 C 0.45341 0.99257 0.36875 0.0
C614 C 0.43584 0.95557 0.35378 0.0
H615 H 0.45886 0.51649 0.51632 0.0
H616 H 0.43904 0.37932 0.5516 0.0
H617 H 0.53971 0.40481 0.54497 0.0
H618 H 0.5393 0.49912 0.48276 0.0
H619 H 0.58546 0.57448 0.47821 0.0
H620 H 0.51401 0.54857 0.4869 0.0
H621 H 0.55573 0.61898 0.51375 0.0
H622 H 0.6274 0.64558 0.50505 0.0
H623 H 0.61023 0.6184 0.52778 0.0
H624 H 0.63781 0.43802 0.5314 0.0
H625 H 0.72969 0.48244 0.51462 0.0
H626 H 0.68719 0.60191 0.48962 0.0
C627 C 0.47598 0.49234 0.52289 0.0
C628 C 0.44131 0.44585 0.53446 0.0
C629 C 0.46515 0.41535 0.54282 0.0
C630 C 0.52209 0.42941 0.53906 0.0
C631 C 0.55462 0.47468 0.5272 0.0
C632 C 0.53271 0.50635 0.51951 0.0
C633 C 0.57581 0.55204 0.5069 0.0
C634 C 0.55222 0.54297 0.48755 0.0
C635 C 0.59333 0.61232 0.51379 0.0
C636 C 0.62514 0.54034 0.5083 0.0
C637 C 0.61194 0.49536 0.52001 0.0
C638 C 0.649 0.47393 0.52248 0.0
C639 C 0.70089 0.49922 0.51281 0.0
C640 C 0.71563 0.54591 0.50097 0.0
C641 C 0.67741 0.56699 0.49884 0.0
H642 H 0.16906 0.70269 0.68316 0.0
H643 H 0.04532 0.73037 0.6537 0.0
H644 H 0.96801 0.63405 0.66253 0.0
H645 H 0.11385 0.56052 0.67055 0.0
H646 H 0.12605 0.5361 0.69184 0.0
H647 H 0.17087 0.60978 0.68516 0.0
H648 H 0.14512 0.64299 0.71468 0.0
H649 H 0.10035 0.56929 0.72151 0.0
H650 H 0.07058 0.61601 0.72036 0.0
H651 H 0.90702 0.53199 0.67104 0.0
H652 H 0.86456 0.43051 0.67995 0.0
H653 H 0.02556 0.4681 0.70502 0.0
C654 C 0.12547 0.68907 0.67893 0.0
C655 C 0.11327 0.72436 0.66781 0.0
C656 C 0.0558 0.70437 0.66228 0.0
C657 C 0.0115 0.6497 0.66726 0.0
C658 C 0.0252 0.61561 0.67788 0.0
C659 C 0.08062 0.63454 0.68381 0.0
C660 C 0.08425 0.58775 0.69408 0.0
C661 C 0.12623 0.57266 0.68485 0.0
C662 C 0.10107 0.60506 0.71383 0.0
C663 C 0.02251 0.53912 0.69257 0.0
C664 C 0.98926 0.55639 0.68321 0.0
C665 C 0.93221 0.51822 0.67871 0.0
C666 C 0.90857 0.46074 0.68375 0.0
C667 C 0.94169 0.44206 0.69335 0.0
C668 C -0.00092 0.48186 0.69808 0.0
H669 H 0.39456 0.12853 0.84855 0.0
H670 H 0.36409 0.08398 0.79187 0.0
H671 H 0.4094 0.02437 0.79525 0.0
H672 H 0.53036 0.14488 0.85086 0.0
H673 H 0.52264 0.1142 0.873 0.0
H674 H 0.4815 0.14764 0.86694 0.0
H675 H 0.38641 0.05462 0.8748 0.0
H676 H 0.42726 0.02117 0.88133 0.0
H677 H 0.37127 0.98783 0.86465 0.0
H678 H 0.46936 0.98163 0.80374 0.0
H679 H 0.52752 0.94507 0.81765 0.0
H680 H 0.5165 0.01445 0.86933 0.0
C681 C 0.39593 0.10489 0.83697 0.0
C682 C 0.37561 0.11051 0.81997 0.0
C683 C 0.37865 0.07953 0.80507 0.0
C684 C 0.40472 0.046 0.80683 0.0
C685 C 0.42657 0.04341 0.82363 0.0
C686 C 0.42128 0.07091 0.83854 0.0
C687 C 0.45036 0.06295 0.85488 0.0
C688 C 0.4991 0.12086 0.86182 0.0
C689 C 0.40618 0.02964 0.86979 0.0
C690 C 0.47398 0.02766 0.84673 0.0
C691 C 0.46002 0.01728 0.82866 0.0
C692 C 0.47963 0.98848 0.81794 0.0
C693 C 0.5131 0.96831 0.82599 0.0
C694 C 0.52626 0.97652 0.84467 0.0
C695 C 0.50675 0.00708 0.8551 0.0
H696 H 0.33738 0.49921 0.97795 0.0
H697 H 0.24354 0.35676 0.0148 0.0
H698 H 0.33248 0.38859 0.03259 0.0
H699 H 0.46985 0.49369 0.97834 0.0
H700 H 0.51487 0.57047 0.97674 0.0
H701 H 0.44375 0.53555 0.96713 0.0
H702 H 0.4194 0.60129 0.986 0.0
H703 H 0.49004 0.63545 0.99597 0.0
H704 H 0.42698 0.60296 0.01016 0.0
H705 H 0.43123 0.43983 0.04729 0.0
H706 H 0.53503 0.49634 0.05474 0.0
H707 H 0.56395 0.60235 0.00746 0.0
C708 C 0.33572 0.47436 0.98966 0.0
C709 C 0.28365 0.42555 0.99503 0.0
C710 C 0.28315 0.39397 0.01037 0.0
C711 C 0.33328 0.41208 0.02065 0.0
C712 C 0.38358 0.46137 0.01526 0.0
C713 C 0.38541 0.49129 0.99988 0.0
C714 C 0.44523 0.54165 0.9966 0.0
C715 C 0.46987 0.5349 0.97864 0.0
C716 C 0.44538 0.5987 0.99723 0.0
C717 C 0.4768 0.53557 0.01257 0.0
C718 C 0.44043 0.48961 0.02335 0.0
C719 C 0.46014 0.47578 0.0389 0.0
C720 C 0.51899 0.50845 0.04315 0.0
C721 C 0.55735 0.55374 0.03172 0.0
C722 C 0.53552 0.56805 0.01648 0.0
H723 H 0.04041 0.53296 0.17732 0.0
H724 H 0.94187 0.54334 0.22198 0.0
H725 H 0.86292 0.44436 0.21522 0.0
H726 H 0.92584 0.4599 0.14726 0.0
H727 H 0.95349 0.41704 0.13781 0.0
H728 H 0.0023 0.48665 0.14693 0.0
H729 H 0.04534 0.44174 0.16837 0.0
H730 H -0.00302 0.372 0.15919 0.0
H731 H -0.00182 0.38377 0.18312 0.0
H732 H 0.79254 0.34669 0.20156 0.0
H733 H 0.74037 0.25669 0.18418 0.0
H734 H 0.8891 0.31324 0.1493 0.0
C735 C 0.00237 0.51443 0.18579 0.0
C736 C -0.0033 0.54558 0.20008 0.0
C737 C 0.94678 0.51974 0.211 0.0
C738 C 0.90188 0.46388 0.2072 0.0
C739 C 0.90851 0.43487 0.19265 0.0
C740 C 0.95799 0.45923 0.18232 0.0
C741 C 0.95511 0.42022 0.16733 0.0
C742 C 0.95942 0.44759 0.14874 0.0
C743 C 0.00165 0.40343 0.16965 0.0
C744 C 0.89576 0.36994 0.17061 0.0
C745 C 0.86925 0.37902 0.18519 0.0
C746 C 0.81318 0.33897 0.19026 0.0
C747 C 0.78387 0.28819 0.18025 0.0
C748 C 0.81097 0.27798 0.16548 0.0
C749 C 0.86754 0.31956 0.16065 0.0
H750 H 0.03503 0.59429 0.49434 0.0
H751 H 0.97808 0.50846 0.44277 0.0
H752 H 0.03199 0.45806 0.4484 0.0
H753 H 0.18119 0.60875 0.4932 0.0
H754 H 0.17992 0.59674 0.51715 0.0
H755 H 0.14291 0.63121 0.50795 0.0
H756 H 0.04892 0.555 0.52337 0.0
H757 H 0.08506 0.51945 0.5323 0.0
H758 H 0.02141 0.48011 0.51871 0.0
H759 H 0.07809 0.40578 0.46179 0.0
H760 H 0.12752 0.36636 0.47989 0.0
H761 H 0.15912 0.49006 0.52198 0.0
C762 C 0.03536 0.56616 0.48401 0.0
C763 C 0.00257 0.55523 0.46811 0.0
C764 C 0.00352 0.51789 0.45494 0.0
C765 C 0.03366 0.4888 0.45808 0.0
C766 C 0.06344 0.49857 0.47426 0.0
C767 C 0.06588 0.53751 0.4868 0.0
C768 C 0.09916 0.53856 0.50341 0.0
C769 C 0.15407 0.59731 0.50554 0.0
C770 C 0.06135 0.52228 0.52044 0.0
C771 C 0.11326 0.49259 0.49851 0.0
C772 C 0.09204 0.46989 0.48168 0.0
C773 C 0.09601 0.424 0.47481 0.0
C774 C 0.12355 0.40153 0.48524 0.0
C775 C 0.14724 0.42548 0.50223 0.0
C776 C 0.14191 0.4715 0.50892 0.0
H777 H 0.44589 0.02622 0.64555 0.0
H778 H 0.45258 0.87449 0.63087 0.0
H779 H 0.55457 0.92149 0.64039 0.0
H780 H 0.59735 0.13423 0.63377 0.0
H781 H 0.60436 0.17784 0.65303 0.0
H782 H 0.53522 0.13534 0.64244 0.0
H783 H 0.49207 0.08764 0.67316 0.0
H784 H 0.56114 0.12849 0.68386 0.0
H785 H 0.52277 0.05133 0.68522 0.0
H786 H 0.65337 0.98224 0.65384 0.0
H787 H 0.74235 0.0534 0.66941 0.0
H788 H 0.66829 0.16274 0.6768 0.0
C789 C 0.46977 0.00407 0.64368 0.0
C790 C 0.44246 0.94763 0.63701 0.0
C791 C 0.47367 0.9184 0.63557 0.0
C792 C 0.53136 0.9446 0.64102 0.0
C793 C 0.55681 -0.00025 0.64811 0.0
C794 C 0.52714 0.0293 0.64937 0.0
C795 C 0.56273 0.08596 0.65891 0.0
C796 C 0.5757 0.13632 0.64628 0.0
C797 C 0.5329 0.08845 0.67632 0.0
C798 C 0.61661 0.08333 0.66297 0.0
C799 C 0.61267 0.03357 0.65652 0.0
C800 C 0.65713 0.02159 0.65886 0.0
C801 C 0.70738 0.06209 0.66779 0.0
C802 C 0.71244 0.11362 0.67438 0.0
C803 C 0.66599 0.12377 0.67201 0.0
H804 H 0.51183 0.69647 0.83699 0.0
H805 H 0.68212 0.73924 0.85565 0.0
H806 H 0.66233 0.64262 0.84665 0.0
H807 H 0.43809 0.55063 0.85155 0.0
H808 H 0.39091 0.52574 0.8323 0.0
H809 H 0.41893 0.59792 0.84027 0.0
H810 H 0.46054 0.63708 0.8085 0.0
H811 H 0.43291 0.56504 0.80045 0.0
H812 H 0.50845 0.6169 0.79813 0.0
H813 H 0.62185 0.54036 0.83671 0.0
H814 H 0.56564 0.441 0.82556 0.0
H815 H 0.42402 0.46817 0.81206 0.0
C816 C 0.5452 0.6858 0.83923 0.0
C817 C 0.5986 0.72536 0.84706 0.0
C818 C 0.64099 0.70957 0.84965 0.0
C819 C 0.63009 0.6549 0.8446 0.0
C820 C 0.57689 0.6171 0.83688 0.0
C821 C 0.5353 0.63202 0.83415 0.0
C822 C 0.48167 0.5839 0.8256 0.0
C823 C 0.42933 0.56334 0.83818 0.0
C824 C 0.47026 0.60182 0.80707 0.0
C825 C 0.49951 0.53927 0.82386 0.0
C826 C 0.55437 0.55908 0.8306 0.0
C827 C 0.57914 0.5246 0.83126 0.0
C828 C 0.54687 0.46833 0.82495 0.0
C829 C 0.49084 0.44749 0.81786 0.0
C830 C 0.46714 0.48357 0.81715 0.0
H831 H 0.84826 0.53363 0.01939 0.0
H832 H 0.8895 0.66716 0.9798 0.0
H833 H 0.95489 0.64103 0.96426 0.0
H834 H 0.99323 0.55873 0.02269 0.0
H835 H 0.97029 0.48409 0.02607 0.0
H836 H 0.92502 0.51176 0.03335 0.0
H837 H 0.84102 0.43474 0.01424 0.0
H838 H 0.88623 0.4071 0.00686 0.0
H839 H 0.8517 0.42936 0.9905 0.0
H840 H 0.01098 0.59602 0.95228 0.0
H841 H 0.0649 0.54504 0.94706 0.0
H842 H 0.99443 0.44847 0.99644 0.0
C843 C 0.87102 0.55709 0.0074 0.0
C844 C 0.86378 0.60178 1.00054 0.0
C845 C 0.89479 0.63266 0.98511 0.0
C846 C 0.93161 0.61795 0.97621 0.0
C847 C 0.93763 0.57326 0.98325 0.0
C848 C 0.90908 0.54409 0.9987 0.0
C849 C 0.9256 0.50022 0.00414 0.0
C850 C 0.95532 0.51459 0.02265 0.0
C851 C 0.873 0.43925 0.00391 0.0
C852 C 0.96739 0.50871 0.98918 0.0
C853 C 0.97303 0.55031 0.97709 0.0
C854 C 0.00747 0.56386 0.96175 0.0
C855 C 0.03759 0.53462 0.95885 0.0
C856 C 0.03387 0.49349 0.97145 0.0
C857 C -0.00167 0.48036 0.98675 0.0
H858 H 0.50017 0.03534 0.12754 0.0
H859 H 0.57689 0.92723 0.12771 0.0
H860 H 0.48776 0.84847 0.14124 0.0
H861 H 0.43956 -0.00143 0.16888 0.0
H862 H 0.37432 -0.0008 0.1637 0.0
H863 H 0.43861 0.04298 0.15084 0.0
H864 H 0.38541 0.99548 0.12115 0.0
H865 H 0.32022 0.95257 0.13383 0.0
H866 H 0.34754 0.91849 0.11918 0.0
H867 H 0.39827 0.78917 0.15939 0.0
H868 H 0.30908 0.74747 0.17727 0.0
H869 H 0.29093 0.89516 0.16501 0.0
C870 C 0.49733 0.99431 0.1298 0.0
C871 C 0.54489 0.98688 0.12653 0.0
C872 C 0.54032 0.93315 0.12985 0.0
C873 C 0.49013 0.88849 0.13766 0.0
C874 C 0.44509 0.89839 0.14167 0.0
C875 C 0.44772 0.94954 0.13745 0.0
C876 C 0.39567 0.95129 0.14439 0.0
C877 C 0.41313 0.00094 0.15774 0.0
C878 C 0.3601 0.95463 0.1287 0.0
C879 C 0.36421 0.89394 0.1538 0.0
C880 C 0.39326 0.864 0.15201 0.0
C881 C 0.3745 0.81162 0.16054 0.0
C882 C 0.32397 0.78859 0.1708 0.0
C883 C 0.29269 0.81793 0.17244 0.0
C884 C 0.31351 0.87148 0.1639 0.0
H885 H 0.48272 0.50728 0.29827 0.0
H886 H 0.63958 0.60364 0.3292 0.0
H887 H 0.62769 0.51357 0.34181 0.0
H888 H 0.40536 0.40907 0.3331 0.0
H889 H 0.3662 0.34784 0.31865 0.0
H890 H 0.39034 0.41886 0.3101 0.0
H891 H 0.4446 0.40195 0.28415 0.0
H892 H 0.4202 0.33061 0.29254 0.0
H893 H 0.49607 0.37978 0.28938 0.0
H894 H 0.59759 0.41557 0.35196 0.0
H895 H 0.54877 0.3136 0.36039 0.0
H896 H 0.40681 0.27929 0.32471 0.0
C897 C 0.51506 0.50887 0.30735 0.0
C898 C 0.56254 0.56169 0.31262 0.0
C899 C 0.60329 0.5631 0.32496 0.0
C900 C 0.59693 0.51235 0.33214 0.0
C901 C 0.5491 0.46081 0.32701 0.0
C902 C 0.50862 0.45847 0.31499 0.0
C903 C 0.45875 0.39767 0.31304 0.0
C904 C 0.40181 0.39312 0.31909 0.0
C905 C 0.45469 0.37624 0.29362 0.0
C906 C 0.47741 0.36651 0.32595 0.0
C907 C 0.53007 0.40384 0.33362 0.0
C908 C 0.55646 0.38576 0.34601 0.0
C909 C 0.52838 0.32778 0.35069 0.0
C910 C 0.4741 0.28865 0.34317 0.0
C911 C 0.44818 0.30836 0.33069 0.0
H912 H 0.06738 0.75094 0.4384 0.0
H913 H 0.95036 0.81762 0.44148 0.0
H914 H 0.01778 0.90133 0.42326 0.0
H915 H 0.19919 0.88945 0.44172 0.0
H916 H 0.23816 0.86952 0.42638 0.0
H917 H 0.18092 0.81557 0.43997 0.0
H918 H 0.13088 0.75847 0.41106 0.0
H919 H 0.18745 0.81278 0.39736 0.0
H920 H 0.11357 0.79286 0.39326 0.0
H921 H 0.09506 0.97477 0.4032 0.0
H922 H 0.1832 0.04006 0.3863 0.0
H923 H 0.25151 0.9273 0.39709 0.0
C924 C 0.05623 0.78347 0.43541 0.0
C925 C 0.00355 0.77767 0.44137 0.0
C926 C 0.99062 0.82127 0.4372 0.0
C927 C 0.02842 0.86877 0.42672 0.0
C928 C 0.07923 0.87237 0.42068 0.0
C929 C 0.09373 0.83148 0.42514 0.0
C930 C 0.15156 0.84618 0.41723 0.0
C931 C 0.19503 0.85577 0.43222 0.0
C932 C 0.14546 0.79981 0.40394 0.0
C933 C 0.16715 0.90158 0.40753 0.0
C934 C 0.12453 0.91554 0.40952 0.0
C935 C 0.12891 0.96448 0.40164 0.0
C936 C 0.17902 0.00109 0.39194 0.0
C937 C 0.2244 0.98891 0.39037 0.0
C938 C 0.21767 0.93787 0.39804 0.0
H939 H 0.31147 0.21505 0.54923 0.0
H940 H 0.13784 0.17625 0.56199 0.0
H941 H 0.12844 0.10316 0.58386 0.0
H942 H 0.27806 0.06335 0.55267 0.0
H943 H 0.34791 0.08398 0.56188 0.0
H944 H 0.33966 0.13124 0.54654 0.0
H945 H 0.38557 0.21221 0.57029 0.0
H946 H 0.39252 0.16479 0.58589 0.0
H947 H 0.35389 0.20051 0.59243 0.0
H948 H 0.14246 0.04486 0.60705 0.0
H949 H 0.16954 0.98605 0.62547 0.0
H950 H 0.33007 0.05356 0.59584 0.0
C951 C 0.27099 0.18989 0.55628 0.0
C952 C 0.22524 0.20088 0.55387 0.0
C953 C 0.17303 0.16777 0.56342 0.0
C954 C 0.16753 0.12667 0.57603 0.0
C955 C 0.21412 0.11831 0.57859 0.0
C956 C 0.2641 0.14738 0.56857 0.0
C957 C 0.30698 0.12886 0.57376 0.0
C958 C 0.31883 0.10013 0.55776 0.0
C959 C 0.36305 0.17963 0.58102 0.0
C960 C 0.27374 0.08596 0.58856 0.0
C961 C 0.22078 0.08155 0.59132 0.0
C962 C 0.1834 0.04718 0.60485 0.0
C963 C 0.19955 0.01458 0.61541 0.0
C964 C 0.25206 0.01571 0.61213 0.0
C965 C 0.28986 0.05226 0.59864 0.0
H966 H 0.18826 0.21552 0.77445 0.0
H967 H 0.32336 0.39131 0.76544 0.0
H968 H 0.25935 0.40562 0.74472 0.0
H969 H 0.14228 0.18844 0.72905 0.0
H970 H 0.06703 0.14291 0.73431 0.0
H971 H 0.12105 0.1478 0.74975 0.0
H972 H 0.07706 0.17849 0.77562 0.0
H973 H 0.02179 0.17106 0.76032 0.0
H974 H 0.06497 0.23773 0.77204 0.0
H975 H 0.18036 0.40009 0.72496 0.0
H976 H 0.0913 0.37565 0.70813 0.0
H977 H 0.01201 0.20116 0.7282 0.0
C978 C 0.20373 0.25747 0.76851 0.0
C979 C 0.26016 0.30277 0.77177 0.0
C980 C 0.27985 0.35644 0.76324 0.0
C981 C 0.24398 0.3648 0.75142 0.0
C982 C 0.18909 0.31869 0.74805 0.0
C983 C 0.16903 0.26611 0.75637 0.0
C984 C 0.10953 0.22267 0.74978 0.0
C985 C 0.11005 0.17251 0.74015 0.0
C986 C 0.06576 0.20128 0.76537 0.0
C987 C 0.09885 0.25924 0.73663 0.0
C988 C 0.14516 0.31453 0.73585 0.0
C989 C 0.14406 0.3568 0.72531 0.0
C990 C 0.09359 0.34254 0.71574 0.0
C991 C 0.04548 0.28635 0.7166 0.0
C992 C 0.04878 0.244 0.72687 0.0
H993 H 0.81273 0.02183 0.89812 0.0
H994 H 0.69298 0.08537 0.89465 0.0
H995 H 0.75279 0.1625 0.91594 0.0
H996 H 0.84346 0.04789 0.94491 0.0
H997 H 0.91881 0.0707 0.94272 0.0
H998 H 0.86767 0.02063 0.92683 0.0
H999 H 0.9251 0.08777 0.90018 0.0
H1000 H 0.97728 0.13674 0.91601 0.0
H1001 H 0.94262 0.16161 0.90061 0.0
H1002 H 0.82326 0.23072 0.93807 0.0
H1003 H 0.90865 0.29538 0.9561 0.0
H1004 H 0.98252 0.18767 0.94529 0.0
C1005 C 0.79941 0.05238 0.90162 0.0
C1006 C 0.74792 0.04726 0.89477 0.0
C1007 C 0.73216 0.08825 0.89972 0.0
C1008 C 0.76557 0.13197 0.91192 0.0
C1009 C 0.81469 0.13428 0.91898 0.0
C1010 C 0.83228 0.09638 0.91375 0.0
C1011 C 0.88778 0.10937 0.92301 0.0
C1012 C 0.87886 0.05915 0.93508 0.0
C1013 C 0.93604 0.12482 0.90913 0.0
C1014 C 0.89882 0.16082 0.93414 0.0
C1015 C 0.85568 0.17394 0.93178 0.0
C1016 C 0.85729 0.22091 0.94007 0.0
C1017 C 0.90572 0.25713 0.95036 0.0
C1018 C 0.95185 0.24624 0.95216 0.0
C1019 C 0.94735 0.19634 0.94447 0.0
H1020 H 0.67865 0.94138 0.10432 0.0
H1021 H 0.84309 0.01751 0.13172 0.0
H1022 H 0.85873 0.94045 0.12 0.0
H1023 H 0.64222 0.78706 0.10993 0.0
H1024 H 0.60855 0.76887 0.08806 0.0
H1025 H 0.60643 0.8236 0.10136 0.0
H1026 H 0.65144 0.89462 0.07467 0.0
H1027 H 0.65523 0.8409 0.06145 0.0
H1028 H 0.71953 0.90873 0.0655 0.0
H1029 H 0.86446 0.86831 0.10045 0.0
H1030 H 0.85421 0.79653 0.07798 0.0
H1031 H 0.68328 0.76418 0.06453 0.0
C1032 C 0.71697 0.94046 0.10833 0.0
C1033 C 0.75975 0.9847 0.11886 0.0
C1034 C 0.80971 0.9832 0.12382 0.0
C1035 C 0.81892 0.93986 0.11718 0.0
C1036 C 0.77698 0.89817 0.10604 0.0
C1037 C 0.72623 0.89719 0.10208 0.0
C1038 C 0.68995 0.85044 0.08878 0.0
C1039 C 0.63344 0.80477 0.09756 0.0
C1040 C 0.67841 0.87519 0.07159 0.0
C1041 C 0.72964 0.82725 0.08506 0.0
C1042 C 0.77952 0.85519 0.0952 0.0
C1043 C 0.82507 0.84518 0.09278 0.0
C1044 C 0.81916 0.80501 0.07983 0.0
C1045 C 0.76795 0.77528 0.0696 0.0
C1046 C 0.72252 0.78613 0.07237 0.0
H1047 H 0.83437 0.81397 0.27611 0.0
H1048 H 0.69525 0.65194 0.25604 0.0
H1049 H 0.76001 0.64891 0.23348 0.0
H1050 H 0.90622 0.87163 0.23287 0.0
H1051 H 0.97782 0.90168 0.24198 0.0
H1052 H 0.91992 0.89515 0.25598 0.0
H1053 H 0.94029 0.83632 0.27949 0.0
H1054 H -0.00104 0.84393 0.26576 0.0
H1055 H 0.94224 0.77356 0.27229 0.0
H1056 H 0.83719 0.65976 0.21383 0.0
H1057 H 0.92923 0.67562 0.20149 0.0
H1058 H 0.02185 0.82857 0.23402 0.0
C1059 C 0.81774 0.77794 0.26696 0.0
C1060 C 0.75959 0.73343 0.26784 0.0
C1061 C 0.73957 0.68659 0.25576 0.0
C1062 C 0.77582 0.68472 0.24268 0.0
C1063 C 0.83232 0.72964 0.2419 0.0
C1064 C 0.85386 0.77474 0.25392 0.0
C1065 C 0.91804 0.81423 0.25107 0.0
C1066 C 0.93126 0.87424 0.24512 0.0
C1067 C 0.95187 0.81715 0.26816 0.0
C1068 C 0.92899 0.78331 0.23587 0.0
C1069 C 0.87837 0.73543 0.23055 0.0
C1070 C 0.87712 0.69745 0.21767 0.0
C1071 C 0.92939 0.70691 0.21066 0.0
C1072 C 0.98191 0.75381 0.21658 0.0
C1073 C 0.98185 0.79364 0.22887 0.0
H1074 H 0.70774 0.41805 0.45823 0.0
H1075 H 0.85134 0.45276 0.42352 0.0
H1076 H 0.78868 0.36536 0.40594 0.0
H1077 H 0.63286 0.2573 0.45661 0.0
H1078 H 0.56275 0.25082 0.45586 0.0
H1079 H 0.62095 0.30998 0.4676 0.0
H1080 H 0.60538 0.38118 0.4483 0.0
H1081 H 0.5476 0.3224 0.43643 0.0
H1082 H 0.60767 0.37783 0.42407 0.0
H1083 H 0.70888 0.28219 0.39004 0.0
H1084 H 0.61714 0.20862 0.37673 0.0
H1085 H 0.52404 0.22889 0.42128 0.0
C1086 C 0.72612 0.40573 0.44734 0.0
C1087 C 0.78428 0.44076 0.44236 0.0
C1088 C 0.80691 0.4254 0.42761 0.0
C1089 C 0.77172 0.37599 0.4176 0.0
C1090 C 0.71397 0.34283 0.42249 0.0
C1091 C 0.69125 0.35685 0.43704 0.0
C1092 C 0.62658 0.31762 0.4382 0.0
C1093 C 0.60981 0.28179 0.4556 0.0
C1094 C 0.59498 0.35181 0.43665 0.0
C1095 C 0.6164 0.28054 0.42176 0.0
C1096 C 0.66744 0.29529 0.41303 0.0
C1097 C 0.66868 0.26958 0.3969 0.0
C1098 C 0.6163 0.22794 0.38941 0.0
C1099 C 0.56336 0.21264 0.398 0.0
C1100 C 0.56376 0.23897 0.4145 0.0
H1101 H 0.28287 0.7484 0.58954 0.0
H1102 H 0.2649 0.68423 0.64432 0.0
H1103 H 0.27249 0.60236 0.63317 0.0
H1104 H 0.19777 0.60849 0.56886 0.0
H1105 H 0.24179 0.62788 0.54887 0.0
H1106 H 0.23517 0.6818 0.56114 0.0
H1107 H 0.34631 0.74181 0.56402 0.0
H1108 H 0.35321 0.68773 0.55195 0.0
H1109 H 0.38473 0.70984 0.57401 0.0
H1110 H 0.28492 0.53042 0.61673 0.0
H1111 H 0.29152 0.46476 0.5954 0.0
H1112 H 0.29859 0.57262 0.5507 0.0
C1113 C 0.28055 0.71707 0.59917 0.0
C1114 C 0.27385 0.72281 0.6178 0.0
C1115 C 0.27008 0.68063 0.62999 0.0
C1116 C 0.27462 0.63418 0.62381 0.0
C1117 C 0.28222 0.63034 0.60542 0.0
C1118 C 0.28425 0.66998 0.5932 0.0
C1119 C 0.2908 0.6544 0.57407 0.0
C1120 C 0.23826 0.64242 0.56256 0.0
C1121 C 0.34713 0.70125 0.56552 0.0
C1122 C 0.29289 0.60015 0.57753 0.0
C1123 C 0.28814 0.5875 0.59574 0.0
C1124 C 0.28845 0.53961 0.60243 0.0
C1125 C 0.2923 0.50265 0.59016 0.0
C1126 C 0.2955 0.51354 0.57135 0.0
C1127 C 0.29679 0.56352 0.56499 0.0
H1128 H 0.55631 0.3353 0.76461 0.0
H1129 H 0.54252 0.22296 0.80876 0.0
H1130 H 0.61325 0.20417 0.79354 0.0
H1131 H 0.56768 0.24954 0.72931 0.0
H1132 H 0.61764 0.31073 0.71612 0.0
H1133 H 0.56585 0.3153 0.73041 0.0
H1134 H 0.64815 0.40336 0.74666 0.0
H1135 H 0.70016 0.39945 0.73235 0.0
H1136 H 0.7066 0.39791 0.7565 0.0
H1137 H 0.68607 0.1994 0.77407 0.0
H1138 H 0.75966 0.21086 0.75216 0.0
H1139 H 0.72509 0.32501 0.72005 0.0
C1140 C 0.56849 0.30715 0.77121 0.0
C1141 C 0.54447 0.28117 0.78802 0.0
C1142 C 0.56084 0.24382 0.796 0.0
C1143 C 0.60065 0.23263 0.78741 0.0
C1144 C 0.62305 0.25868 0.7708 0.0
C1145 C 0.60762 0.29514 0.76278 0.0
C1146 C 0.63816 0.31775 0.74489 0.0
C1147 C 0.59475 0.29709 0.72926 0.0
C1148 C 0.67549 0.38351 0.74513 0.0
C1149 C 0.67473 0.28967 0.74434 0.0
C1150 C 0.6647 0.25531 0.75936 0.0
C1151 C 0.69424 0.22609 0.76227 0.0
C1152 C 0.73613 0.23315 0.74975 0.0
C1153 C 0.7484 0.2693 0.73448 0.0
C1154 C 0.71636 0.29694 0.73153 0.0
H1155 H 0.46081 0.79048 0.91213 0.0
H1156 H 0.4042 0.7377 0.85708 0.0
H1157 H 0.31742 0.65155 0.86866 0.0
H1158 H 0.42035 0.65413 0.92887 0.0
H1159 H 0.39782 0.66509 0.95064 0.0
H1160 H 0.45235 0.72526 0.93818 0.0
H1161 H 0.39203 0.77572 0.94 0.0
H1162 H 0.33739 0.71588 0.95261 0.0
H1163 H 0.31857 0.73885 0.93218 0.0
H1164 H 0.24211 0.56854 0.88601 0.0
H1165 H 0.18047 0.49426 0.90775 0.0
H1166 H 0.28622 0.601 0.95183 0.0
C1167 C 0.42977 0.76148 0.90243 0.0
C1168 C 0.43912 0.77107 0.88364 0.0
C1169 C 0.39769 0.73154 0.87149 0.0
C1170 C 0.3484 0.68251 0.87796 0.0
C1171 C 0.34131 0.674 0.89656 0.0
C1172 C 0.38067 0.71253 0.90862 0.0
C1173 C 0.36464 0.69194 0.92792 0.0
C1174 C 0.41157 0.68361 0.93692 0.0
C1175 C 0.35242 0.73304 0.93882 0.0
C1176 C 0.31023 0.63518 0.92483 0.0
C1177 C 0.29765 0.6259 0.90664 0.0
C1178 C 0.25117 0.57557 0.90028 0.0
C1179 C 0.21661 0.5335 0.91281 0.0
C1180 C 0.22846 0.54182 0.93157 0.0
C1181 C 0.27573 0.59367 0.93763 0.0
H1182 H 0.70233 0.2938 0.11731 0.0
H1183 H 0.63237 0.16374 0.07558 0.0
H1184 H 0.62539 0.2318 0.05506 0.0
H1185 H 0.61644 0.36057 0.10655 0.0
H1186 H 0.67511 0.43174 0.11114 0.0
H1187 H 0.67033 0.37114 0.12298 0.0
H1188 H 0.77346 0.40021 0.11229 0.0
H1189 H 0.77839 0.46063 0.10035 0.0
H1190 H 0.78978 0.40887 0.08853 0.0
H1191 H 0.63131 0.31614 0.03837 0.0
H1192 H 0.64925 0.41051 0.02727 0.0
H1193 H 0.71552 0.48336 0.08003 0.0
C1194 C 0.68458 0.27933 0.10398 0.0
C1195 C 0.66768 0.2235 0.0981 0.0
C1196 C 0.64558 0.20643 0.08041 0.0
C1197 C 0.64131 0.24468 0.06863 0.0
C1198 C 0.65925 0.29976 0.07474 0.0
C1199 C 0.68026 0.31699 0.09201 0.0
C1200 C 0.6993 0.3793 0.09497 0.0
C1201 C 0.66311 0.38605 0.10979 0.0
C1202 C 0.76406 0.41429 0.09928 0.0
C1203 C 0.68628 0.39442 0.07663 0.0
C1204 C 0.66296 0.34813 0.06513 0.0
C1205 C 0.64912 0.35272 0.0473 0.0
C1206 C 0.65947 0.40633 0.0411 0.0
C1207 C 0.68357 0.45423 0.05276 0.0
C1208 C 0.69679 0.44768 0.07073 0.0
H1209 H 0.42088 0.71439 0.2925 0.0
H1210 H 0.44346 0.59464 0.25966 0.0
H1211 H 0.35321 0.56833 0.24348 0.0
H1212 H 0.25753 0.63359 0.29311 0.0
H1213 H 0.25554 0.69914 0.29104 0.0
H1214 H 0.31409 0.69891 0.30284 0.0
H1215 H 0.38701 0.78003 0.28203 0.0
H1216 H 0.32906 0.78029 0.27002 0.0
H1217 H 0.38129 0.76985 0.25795 0.0
H1218 H 0.27188 0.56649 0.22788 0.0
H1219 H 0.20356 0.58946 0.21334 0.0
H1220 H 0.23433 0.71308 0.25548 0.0
C1221 C 0.40517 0.68095 0.2824 0.0
C1222 C 0.4377 0.65543 0.27743 0.0
C1223 C 0.41808 0.61376 0.26368 0.0
C1224 C 0.36696 0.59849 0.25452 0.0
C1225 C 0.3365 0.62572 0.25924 0.0
C1226 C 0.35463 0.666 0.27289 0.0
C1227 C 0.31869 0.69482 0.27348 0.0
C1228 C 0.28441 0.68074 0.29117 0.0
C1229 C 0.35627 0.76008 0.27069 0.0
C1230 C 0.27936 0.6662 0.25756 0.0
C1231 C 0.28965 0.6257 0.2498 0.0
C1232 C 0.26243 0.59718 0.23402 0.0
C1233 C 0.22401 0.61081 0.2258 0.0
C1234 C 0.21348 0.65283 0.23333 0.0
C1235 C 0.2408 0.68006 0.24959 0.0
loop_
_geom_bond_atom_site_label_1
_geom_bond_atom_site_label_2
_geom_bond_distance
_geom_bond_site_symmetry_2
_ccdc_geom_bond_type
Fe0 O2 1.918 . S
Fe0 O5 1.997 . S
Fe0 O6 2.002 . S
Fe0 O11 1.976 . S
Fe0 O14 1.996 . S
Fe1 O2 1.918 . S
Fe1 O9 1.997 . S
Fe1 O12 1.996 . S
Fe1 O16 1.976 . S
Fe1 O19 2.002 . S
O2 Fe0 1.918 . S
O2 Fe1 1.918 . S
O2 Fe3 1.918 . S
Fe3 O2 1.918 . S
Fe3 O4 2.002 . S
Fe3 O13 1.976 . S
Fe3 O17 1.996 . S
Fe3 O20 1.997 . S
O4 Fe3 2.002 . S
O4 C21 1.295 . S
O5 Fe0 1.997 . S
O5 C21 1.235 . S
O6 Fe0 2.002 . S
O6 C7 1.295 . S
C7 O6 1.295 . S
C7 O9 1.235 . S
C8 O13 1.287 . S
C8 O14 1.255 . S
O9 Fe1 1.997 . S
O9 C7 1.235 . S
C10 O16 1.287 . S
C10 O17 1.255 . S
O11 Fe0 1.976 . S
O11 C18 1.287 . S
O12 Fe1 1.996 . S
O12 C18 1.255 . S
O13 Fe3 1.976 . S
O13 C8 1.287 . S
O14 Fe0 1.996 . S
O14 C8 1.255 . S
C15 O19 1.295 . S
C15 O20 1.235 . S
O16 Fe1 1.976 . S
O16 C10 1.287 . S
O17 Fe3 1.996 . S
O17 C10 1.255 . S
C18 O11 1.287 . S
C18 O12 1.255 . S
O19 Fe1 2.002 . S
O19 C15 1.295 . S
O20 Fe3 1.997 . S
O20 C15 1.235 . S
C21 O4 1.295 . S
C21 O5 1.235 . S
Fe22 O24 1.918 . S
Fe22 O27 1.997 . S
Fe22 O28 2.002 . S
Fe22 O33 1.976 . S
Fe22 O36 1.996 . S
Fe23 O24 1.918 . S
Fe23 O31 1.997 . S
Fe23 O34 1.996 . S
Fe23 O38 1.976 . S
Fe23 O41 2.002 . S
O24 Fe22 1.918 . S
O24 Fe23 1.918 . S
O24 Fe25 1.918 . S
Fe25 O24 1.918 . S
Fe25 O26 2.002 . S
Fe25 O35 1.976 . S
Fe25 O39 1.996 . S
Fe25 O42 1.997 . S
O26 Fe25 2.002 . S
O26 C43 1.295 . S
O27 Fe22 1.997 . S
O27 C43 1.235 . S
O28 Fe22 2.002 . S
O28 C29 1.295 . S
C29 O28 1.295 . S
C29 O31 1.235 . S
C30 O35 1.287 . S
C30 O36 1.255 . S
O31 Fe23 1.997 . S
O31 C29 1.235 . S
C32 O38 1.287 . S
C32 O39 1.255 . S
O33 Fe22 1.976 . S
O33 C40 1.287 . S
O34 Fe23 1.996 . S
O34 C40 1.255 . S
O35 Fe25 1.976 . S
O35 C30 1.287 . S
O36 Fe22 1.996 . S
O36 C30 1.255 . S
C37 O41 1.295 . S
C37 O42 1.235 . S
O38 Fe23 1.976 . S
O38 C32 1.287 . S
O39 Fe25 1.996 . S
O39 C32 1.255 . S
C40 O33 1.287 . S
C40 O34 1.255 . S
O41 Fe23 2.002 . S
O41 C37 1.295 . S
O42 Fe25 1.997 . S
O42 C37 1.235 . S
C43 O26 1.295 . S
C43 O27 1.235 . S
Fe44 O46 1.918 . S
Fe44 O49 1.997 . S
Fe44 O50 2.002 . S
Fe44 O55 1.976 . S
Fe44 O58 1.996 . S
Fe45 O46 1.918 . S
Fe45 O53 1.997 . S
Fe45 O56 1.996 . S
Fe45 O60 1.976 . S
Fe45 O63 2.002 . S
O46 Fe44 1.918 . S
O46 Fe45 1.918 . S
O46 Fe47 1.918 . S
Fe47 O46 1.918 . S
Fe47 O48 2.002 . S
Fe47 O57 1.976 . S
Fe47 O61 1.996 . S
Fe47 O64 1.997 . S
O48 Fe47 2.002 . S
O48 C65 1.295 . S
O49 Fe44 1.997 . S
O49 C65 1.235 . S
O50 Fe44 2.002 . S
O50 C51 1.295 . S
C51 O50 1.295 . S
C51 O53 1.235 . S
C52 O57 1.287 . S
C52 O58 1.255 . S
O53 Fe45 1.997 . S
O53 C51 1.235 . S
C54 O60 1.287 . S
C54 O61 1.255 . S
O55 Fe44 1.976 . S
O55 C62 1.287 . S
O56 Fe45 1.996 . S
O56 C62 1.255 . S
O57 Fe47 1.976 . S
O57 C52 1.287 . S
O58 Fe44 1.996 . S
O58 C52 1.255 . S
C59 O63 1.295 . S
C59 O64 1.235 . S
O60 Fe45 1.976 . S
O60 C54 1.287 . S
O61 Fe47 1.996 . S
O61 C54 1.255 . S
C62 O55 1.287 . S
C62 O56 1.255 . S
O63 Fe45 2.002 . S
O63 C59 1.295 . S
O64 Fe47 1.997 . S
O64 C59 1.235 . S
C65 O48 1.295 . S
C65 O49 1.235 . S
Fe66 O68 1.918 . S
Fe66 O71 1.997 . S
Fe66 O72 2.002 . S
Fe66 O77 1.976 . S
Fe66 O80 1.996 . S
Fe67 O68 1.918 . S
Fe67 O75 1.997 . S
Fe67 O78 1.996 . S
Fe67 O82 1.976 . S
Fe67 O85 2.002 . S
O68 Fe66 1.918 . S
O68 Fe67 1.918 . S
O68 Fe69 1.918 . S
Fe69 O68 1.918 . S
Fe69 O70 2.002 . S
Fe69 O79 1.976 . S
Fe69 O83 1.996 . S
Fe69 O86 1.997 . S
O70 Fe69 2.002 . S
O70 C87 1.295 . S
O71 Fe66 1.997 . S
O71 C87 1.235 . S
O72 Fe66 2.002 . S
O72 C73 1.295 . S
C73 O72 1.295 . S
C73 O75 1.235 . S
C74 O79 1.287 . S
C74 O80 1.255 . S
O75 Fe67 1.997 . S
O75 C73 1.235 . S
C76 O82 1.287 . S
C76 O83 1.255 . S
O77 Fe66 1.976 . S
O77 C84 1.287 . S
O78 Fe67 1.996 . S
O78 C84 1.255 . S
O79 Fe69 1.976 . S
O79 C74 1.287 . S
O80 Fe66 1.996 . S
O80 C74 1.255 . S
C81 O85 1.295 . S
C81 O86 1.235 . S
O82 Fe67 1.976 . S
O82 C76 1.287 . S
O83 Fe69 1.996 . S
O83 C76 1.255 . S
C84 O77 1.287 . S
C84 O78 1.255 . S
O85 Fe67 2.002 . S
O85 C81 1.295 . S
O86 Fe69 1.997 . S
O86 C81 1.235 . S
C87 O70 1.295 . S
C87 O71 1.235 . S
Fe88 O90 1.918 . S
Fe88 O93 1.997 . S
Fe88 O94 2.002 . S
Fe88 O99 1.950 1_554 S
Fe88 O102 1.996 . S
Fe89 O90 1.918 . S
Fe89 O97 1.997 . S
Fe89 O100 1.996 . S
Fe89 O104 1.976 . S
Fe89 O107 2.002 . S
O90 Fe88 1.918 . S
O90 Fe89 1.918 . S
O90 Fe91 1.918 . S
Fe91 O90 1.918 . S
Fe91 O92 2.002 . S
Fe91 O101 1.976 . S
Fe91 O105 1.996 . S
Fe91 O108 1.997 . S
O92 Fe91 2.002 . S
O92 C109 1.295 . S
O93 Fe88 1.997 . S
O93 C109 1.235 . S
O94 Fe88 2.002 . S
O94 C95 1.295 . S
C95 O94 1.295 . S
C95 O97 1.235 . S
C96 O101 1.287 . S
C96 O102 1.255 . S
O97 Fe89 1.997 . S
O97 C95 1.235 . S
C98 O104 1.287 . S
C98 O105 1.255 . S
O99 Fe88 1.950 1_556 S
O99 C106 1.292 . S
O100 Fe89 1.996 . S
O100 C106 1.255 1_554 S
O101 Fe91 1.976 . S
O101 C96 1.287 . S
O102 Fe88 1.996 . S
O102 C96 1.255 . S
C103 O107 1.295 . S
C103 O108 1.235 . S
O104 Fe89 1.976 . S
O104 C98 1.287 . S
O105 Fe91 1.996 . S
O105 C98 1.255 . S
C106 O99 1.292 . S
C106 O100 1.255 1_556 S
O107 Fe89 2.002 . S
O107 C103 1.295 . S
O108 Fe91 1.997 . S
O108 C103 1.235 . S
C109 O92 1.295 . S
C109 O93 1.235 . S
Fe110 O112 1.918 . S
Fe110 O115 1.997 . S
Fe110 O116 2.002 . S
Fe110 O121 1.976 . S
Fe110 O124 1.996 . S
Fe111 O112 1.918 . S
Fe111 O119 1.997 . S
Fe111 O122 1.996 . S
Fe111 O126 1.976 . S
Fe111 O129 2.002 . S
O112 Fe110 1.918 . S
O112 Fe111 1.918 . S
O112 Fe113 1.918 . S
Fe113 O112 1.918 . S
Fe113 O114 2.002 . S
Fe113 O123 1.976 . S
Fe113 O127 1.996 . S
Fe113 O130 1.997 . S
O114 Fe113 2.002 . S
O114 C131 1.295 . S
O115 Fe110 1.997 . S
O115 C131 1.235 . S
O116 Fe110 2.002 . S
O116 C117 1.295 . S
C117 O116 1.295 . S
C117 O119 1.235 . S
C118 O123 1.287 . S
C118 O124 1.255 . S
O119 Fe111 1.997 . S
O119 C117 1.235 . S
C120 O126 1.287 . S
C120 O127 1.255 . S
O121 Fe110 1.976 . S
O121 C128 1.287 . S
O122 Fe111 1.996 . S
O122 C128 1.255 . S
O123 Fe113 1.976 . S
O123 C118 1.287 . S
O124 Fe110 1.996 . S
O124 C118 1.255 . S
C125 O129 1.295 . S
C125 O130 1.235 . S
O126 Fe111 1.976 . S
O126 C120 1.287 . S
O127 Fe113 1.996 . S
O127 C120 1.255 . S
C128 O121 1.287 . S
C128 O122 1.255 . S
O129 Fe111 2.002 . S
O129 C125 1.295 . S
O130 Fe113 1.997 . S
O130 C125 1.235 . S
C131 O114 1.295 . S
C131 O115 1.235 . S
Fe132 O134 1.918 . S
Fe132 O137 1.997 . S
Fe132 O138 2.002 . S
Fe132 O143 1.976 . S
Fe132 O146 1.996 . S
Fe133 O134 1.918 . S
Fe133 O141 1.997 . S
Fe133 O144 1.996 . S
Fe133 O148 1.976 . S
Fe133 O151 2.002 . S
O134 Fe132 1.918 . S
O134 Fe133 1.918 . S
O134 Fe135 1.918 . S
Fe135 O134 1.918 . S
Fe135 O136 2.002 . S
Fe135 O145 1.976 . S
Fe135 O149 1.996 . S
Fe135 O152 1.997 . S
O136 Fe135 2.002 . S
O136 C153 1.295 . S
O137 Fe132 1.997 . S
O137 C153 1.235 . S
O138 Fe132 2.002 . S
O138 C139 1.295 . S
C139 O138 1.295 . S
C139 O141 1.235 . S
C140 O145 1.287 . S
C140 O146 1.255 . S
O141 Fe133 1.997 . S
O141 C139 1.235 . S
C142 O148 1.287 . S
C142 O149 1.255 . S
O143 Fe132 1.976 . S
O143 C150 1.287 . S
O144 Fe133 1.996 . S
O144 C150 1.255 . S
O145 Fe135 1.976 . S
O145 C140 1.287 . S
O146 Fe132 1.996 . S
O146 C140 1.255 . S
C147 O151 1.295 . S
C147 O152 1.235 . S
O148 Fe133 1.976 . S
O148 C142 1.287 . S
O149 Fe135 1.996 . S
O149 C142 1.255 . S
C150 O143 1.287 . S
C150 O144 1.255 . S
O151 Fe133 2.002 . S
O151 C147 1.295 . S
O152 Fe135 1.997 . S
O152 C147 1.235 . S
C153 O136 1.295 . S
C153 O137 1.235 . S
Fe154 O156 1.918 . S
Fe154 O159 1.997 . S
Fe154 O160 2.002 . S
Fe154 O165 1.976 . S
Fe154 O168 1.996 . S
Fe155 O156 1.918 . S
Fe155 O163 1.997 . S
Fe155 O166 1.996 . S
Fe155 O170 1.976 . S
Fe155 O173 2.002 . S
O156 Fe154 1.918 . S
O156 Fe155 1.918 . S
O156 Fe157 1.918 . S
Fe157 O156 1.918 . S
Fe157 O158 2.002 . S
Fe157 O167 1.976 . S
Fe157 O171 1.996 . S
Fe157 O174 1.997 . S
O158 Fe157 2.002 . S
O158 C175 1.295 . S
O159 Fe154 1.997 . S
O159 C175 1.235 . S
O160 Fe154 2.002 . S
O160 C161 1.295 . S
C161 O160 1.295 . S
C161 O163 1.235 . S
C162 O167 1.287 . S
C162 O168 1.255 . S
O163 Fe155 1.997 . S
O163 C161 1.235 . S
C164 O170 1.287 . S
C164 O171 1.255 . S
O165 Fe154 1.976 . S
O165 C172 1.287 . S
O166 Fe155 1.996 . S
O166 C172 1.255 . S
O167 Fe157 1.976 . S
O167 C162 1.287 . S
O168 Fe154 1.996 . S
O168 C162 1.255 . S
C169 O173 1.295 . S
C169 O174 1.235 . S
O170 Fe155 1.976 . S
O170 C164 1.287 . S
O171 Fe157 1.996 . S
O171 C164 1.255 . S
C172 O165 1.287 . S
C172 O166 1.255 . S
O173 Fe155 2.002 . S
O173 C169 1.295 . S
O174 Fe157 1.997 . S
O174 C169 1.235 . S
C175 O158 1.295 . S
C175 O159 1.235 . S
Fe176 O178 1.918 . S
Fe176 O181 1.997 . S
Fe176 O182 2.002 . S
Fe176 O187 1.976 . S
Fe176 O190 1.996 . S
Fe177 O178 1.918 . S
Fe177 O185 1.997 . S
Fe177 O188 1.996 . S
Fe177 O192 1.976 . S
Fe177 O195 2.002 . S
O178 Fe176 1.918 . S
O178 Fe177 1.918 . S
O178 Fe179 1.918 . S
Fe179 O178 1.918 . S
Fe179 O180 2.002 . S
Fe179 O189 1.976 . S
Fe179 O193 1.996 . S
Fe179 O196 1.997 . S
O180 Fe179 2.002 . S
O180 C197 1.295 . S
O181 Fe176 1.997 . S
O181 C197 1.235 . S
O182 Fe176 2.002 . S
O182 C183 1.295 . S
C183 O182 1.295 . S
C183 O185 1.235 . S
C184 O189 1.287 . S
C184 O190 1.255 . S
O185 Fe177 1.997 . S
O185 C183 1.235 . S
C186 O192 1.287 . S
C186 O193 1.255 . S
O187 Fe176 1.976 . S
O187 C194 1.287 . S
O188 Fe177 1.996 . S
O188 C194 1.255 . S
O189 Fe179 1.976 . S
O189 C184 1.287 . S
O190 Fe176 1.996 . S
O190 C184 1.255 . S
C191 O195 1.295 . S
C191 O196 1.235 . S
O192 Fe177 1.976 . S
O192 C186 1.287 . S
O193 Fe179 1.996 . S
O193 C186 1.255 . S
C194 O187 1.287 . S
C194 O188 1.255 . S
O195 Fe177 2.002 . S
O195 C191 1.295 . S
O196 Fe179 1.997 . S
O196 C191 1.235 . S
C197 O180 1.295 . S
C197 O181 1.235 . S
Fe198 O200 1.918 . S
Fe198 O203 1.997 . S
Fe198 O204 2.002 . S
Fe198 O209 1.976 . S
Fe198 O212 1.996 . S
Fe199 O200 1.918 . S
Fe199 O207 1.997 . S
Fe199 O210 1.996 . S
Fe199 O214 1.976 . S
Fe199 O217 2.002 . S
O200 Fe198 1.918 . S
O200 Fe199 1.918 . S
O200 Fe201 1.918 . S
Fe201 O200 1.918 . S
Fe201 O202 2.002 . S
Fe201 O211 1.950 1_556 S
Fe201 O215 1.996 . S
Fe201 O218 1.997 . S
O202 Fe201 2.002 . S
O202 C219 1.295 . S
O203 Fe198 1.997 . S
O203 C219 1.235 . S
O204 Fe198 2.002 . S
O204 C205 1.295 . S
C205 O204 1.295 . S
C205 O207 1.235 . S
C206 O211 1.292 . S
C206 O212 1.255 1_554 S
O207 Fe199 1.997 . S
O207 C205 1.235 . S
C208 O214 1.287 . S
C208 O215 1.255 . S
O209 Fe198 1.976 . S
O209 C216 1.287 . S
O210 Fe199 1.996 . S
O210 C216 1.255 . S
O211 Fe201 1.950 1_554 S
O211 C206 1.292 . S
O212 Fe198 1.996 . S
O212 C206 1.255 1_556 S
C213 O217 1.295 . S
C213 O218 1.235 . S
O214 Fe199 1.976 . S
O214 C208 1.287 . S
O215 Fe201 1.996 . S
O215 C208 1.255 . S
C216 O209 1.287 . S
C216 O210 1.255 . S
O217 Fe199 2.002 . S
O217 C213 1.295 . S
O218 Fe201 1.997 . S
O218 C213 1.235 . S
C219 O202 1.295 . S
C219 O203 1.235 . S
Fe220 O222 1.918 . S
Fe220 O225 1.997 . S
Fe220 O226 2.002 . S
Fe220 O231 1.976 . S
Fe220 O234 1.996 . S
Fe221 O222 1.918 . S
Fe221 O229 1.997 . S
Fe221 O232 1.996 . S
Fe221 O236 1.976 . S
Fe221 O239 2.002 . S
O222 Fe220 1.918 . S
O222 Fe221 1.918 . S
O222 Fe223 1.918 . S
Fe223 O222 1.918 . S
Fe223 O224 2.002 . S
Fe223 O233 1.976 . S
Fe223 O237 1.996 . S
Fe223 O240 1.997 . S
O224 Fe223 2.002 . S
O224 C241 1.295 . S
O225 Fe220 1.997 . S
O225 C241 1.235 . S
O226 Fe220 2.002 . S
O226 C227 1.295 . S
C227 O226 1.295 . S
C227 O229 1.235 . S
C228 O233 1.287 . S
C228 O234 1.255 . S
O229 Fe221 1.997 . S
O229 C227 1.235 . S
C230 O236 1.287 . S
C230 O237 1.255 . S
O231 Fe220 1.976 . S
O231 C238 1.287 . S
O232 Fe221 1.996 . S
O232 C238 1.255 . S
O233 Fe223 1.976 . S
O233 C228 1.287 . S
O234 Fe220 1.996 . S
O234 C228 1.255 . S
C235 O239 1.295 . S
C235 O240 1.235 . S
O236 Fe221 1.976 . S
O236 C230 1.287 . S
O237 Fe223 1.996 . S
O237 C230 1.255 . S
C238 O231 1.287 . S
C238 O232 1.255 . S
O239 Fe221 2.002 . S
O239 C235 1.295 . S
O240 Fe223 1.997 . S
O240 C235 1.235 . S
C241 O224 1.295 . S
C241 O225 1.235 . S
Fe242 O244 1.918 . S
Fe242 O247 1.997 . S
Fe242 O248 2.002 . S
Fe242 O253 1.976 . S
Fe242 O256 1.996 . S
Fe243 O244 1.918 . S
Fe243 O251 1.997 . S
Fe243 O254 1.996 . S
Fe243 O258 1.976 . S
Fe243 O261 2.002 . S
O244 Fe242 1.918 . S
O244 Fe243 1.918 . S
O244 Fe245 1.918 . S
Fe245 O244 1.918 . S
Fe245 O246 2.002 . S
Fe245 O255 1.976 . S
Fe245 O259 1.996 . S
Fe245 O262 1.997 . S
O246 Fe245 2.002 . S
O246 C263 1.295 . S
O247 Fe242 1.997 . S
O247 C263 1.235 . S
O248 Fe242 2.002 . S
O248 C249 1.295 . S
C249 O248 1.295 . S
C249 O251 1.235 . S
C250 O255 1.287 . S
C250 O256 1.255 . S
O251 Fe243 1.997 . S
O251 C249 1.235 . S
C252 O258 1.287 . S
C252 O259 1.255 . S
O253 Fe242 1.976 . S
O253 C260 1.287 . S
O254 Fe243 1.996 . S
O254 C260 1.255 . S
O255 Fe245 1.976 . S
O255 C250 1.287 . S
O256 Fe242 1.996 . S
O256 C250 1.255 . S
C257 O261 1.295 . S
C257 O262 1.235 . S
O258 Fe243 1.976 . S
O258 C252 1.287 . S
O259 Fe245 1.996 . S
O259 C252 1.255 . S
C260 O253 1.287 . S
C260 O254 1.255 . S
O261 Fe243 2.002 . S
O261 C257 1.295 . S
O262 Fe245 1.997 . S
O262 C257 1.235 . S
C263 O246 1.295 . S
C263 O247 1.235 . S
H264 C276 0.930 . S
H265 C278 0.930 . S
H266 C279 0.930 1_545 S
H267 C283 0.959 . S
H268 C283 0.959 . S
H269 C283 0.961 . S
H270 C284 0.960 . S
H271 C284 0.961 . S
H272 C284 0.959 . S
H273 C287 0.929 . S
H274 C288 0.931 . S
H275 C290 0.930 . S
C276 H264 0.930 . S
C276 C277 1.399 . S
C276 C281 1.399 . S
C277 C276 1.399 . S
C277 C278 1.376 . S
C278 H265 0.930 . S
C278 C277 1.376 . S
C278 C279 1.388 . S
C279 H266 0.930 1_565 S
C279 C278 1.388 . S
C279 C280 1.390 . S
C280 C279 1.390 . S
C280 C281 1.394 . S
C280 C286 1.465 1_565 S
C281 C276 1.399 . S
C281 C280 1.394 . S
C281 C282 1.516 . S
C282 C281 1.516 . S
C282 C283 1.502 . S
C282 C284 1.561 . S
C282 C285 1.526 . S
C283 H267 0.959 . S
C283 H268 0.959 . S
C283 H269 0.961 . S
C283 C282 1.502 . S
C284 H270 0.960 . S
C284 H271 0.961 . S
C284 H272 0.959 . S
C284 C282 1.561 . S
C285 C282 1.526 . S
C285 C286 1.396 1_565 S
C285 C290 1.390 1_565 S
C286 C280 1.465 1_545 S
C286 C285 1.396 1_545 S
C286 C287 1.399 . S
C287 H273 0.929 . S
C287 C286 1.399 . S
C287 C288 1.385 . S
C288 H274 0.931 . S
C288 C287 1.385 . S
C288 C289 1.389 . S
C289 C288 1.389 . S
C289 C290 1.387 . S
C290 H275 0.930 . S
C290 C285 1.390 1_545 S
C290 C289 1.387 . S
H291 C303 0.930 . S
H292 C305 0.930 . S
H293 C306 0.930 . S
H294 C310 0.959 . S
H295 C310 0.959 . S
H296 C310 0.961 . S
H297 C311 0.960 . S
H298 C311 0.961 . S
H299 C311 0.959 . S
H300 C314 0.929 . S
H301 C315 0.931 . S
H302 C317 0.930 . S
C303 H291 0.930 . S
C303 C304 1.399 . S
C303 C308 1.399 . S
C304 C303 1.399 . S
C304 C305 1.376 . S
C305 H292 0.930 . S
C305 C304 1.376 . S
C305 C306 1.388 . S
C306 H293 0.930 . S
C306 C305 1.388 . S
C306 C307 1.390 . S
C307 C306 1.390 . S
C307 C308 1.394 . S
C307 C313 1.465 . S
C308 C303 1.399 . S
C308 C307 1.394 . S
C308 C309 1.516 . S
C309 C308 1.516 . S
C309 C310 1.502 . S
C309 C311 1.561 . S
C309 C312 1.526 . S
C310 H294 0.959 . S
C310 H295 0.959 . S
C310 H296 0.961 . S
C310 C309 1.502 . S
C311 H297 0.960 . S
C311 H298 0.961 . S
C311 H299 0.959 . S
C311 C309 1.561 . S
C312 C309 1.526 . S
C312 C313 1.396 . S
C312 C317 1.390 . S
C313 C307 1.465 . S
C313 C312 1.396 . S
C313 C314 1.399 . S
C314 H300 0.929 . S
C314 C313 1.399 . S
C314 C315 1.385 . S
C315 H301 0.931 . S
C315 C314 1.385 . S
C315 C316 1.389 . S
C316 C315 1.389 . S
C316 C317 1.387 . S
C317 H302 0.930 . S
C317 C312 1.390 . S
C317 C316 1.387 . S
H318 C330 0.930 . S
H319 C332 0.930 . S
H320 C333 0.930 . S
H321 C337 0.959 . S
H322 C337 0.959 . S
H323 C337 0.961 . S
H324 C338 0.960 . S
H325 C338 0.961 . S
H326 C338 0.959 . S
H327 C341 0.929 1_655 S
H328 C342 0.931 . S
H329 C344 0.930 . S
C330 H318 0.930 . S
C330 C331 1.399 . S
C330 C335 1.397 1_655 S
C331 C330 1.399 . S
C331 C332 1.376 . S
C332 H319 0.930 . S
C332 C331 1.376 . S
C332 C333 1.388 . S
C333 H320 0.930 . S
C333 C332 1.388 . S
C333 C334 1.390 . S
C334 C333 1.390 . S
C334 C335 1.394 1_655 S
C334 C340 1.465 1_655 S
C335 C330 1.397 1_455 S
C335 C334 1.394 1_455 S
C335 C336 1.518 . S
C336 C335 1.518 . S
C336 C337 1.502 . S
C336 C338 1.561 . S
C336 C339 1.526 . S
C337 H321 0.959 . S
C337 H322 0.959 . S
C337 H323 0.961 . S
C337 C336 1.502 . S
C338 H324 0.960 . S
C338 H325 0.961 . S
C338 H326 0.959 . S
C338 C336 1.561 . S
C339 C336 1.526 . S
C339 C340 1.396 . S
C339 C344 1.390 . S
C340 C334 1.465 1_455 S
C340 C339 1.396 . S
C340 C341 1.399 . S
C341 H327 0.929 1_455 S
C341 C340 1.399 . S
C341 C342 1.385 . S
C342 H328 0.931 . S
C342 C341 1.385 . S
C342 C343 1.389 . S
C343 C342 1.389 . S
C343 C344 1.387 . S
C344 H329 0.930 . S
C344 C339 1.390 . S
C344 C343 1.387 . S
H345 C357 0.930 . S
H346 C359 0.930 . S
H347 C360 0.930 . S
H348 C364 0.959 1_545 S
H349 C364 0.959 . S
H350 C364 0.961 . S
H351 C365 0.960 . S
H352 C365 0.961 . S
H353 C365 0.959 . S
H354 C368 0.929 . S
H355 C369 0.931 . S
H356 C371 0.930 . S
C357 H345 0.930 . S
C357 C358 1.399 . S
C357 C362 1.399 . S
C358 C357 1.399 . S
C358 C359 1.376 . S
C359 H346 0.930 . S
C359 C358 1.376 . S
C359 C360 1.388 . S
C360 H347 0.930 . S
C360 C359 1.388 . S
C360 C361 1.390 . S
C361 C360 1.390 . S
C361 C362 1.394 . S
C361 C367 1.465 . S
C362 C357 1.399 . S
C362 C361 1.394 . S
C362 C363 1.516 1_545 S
C363 C362 1.516 1_565 S
C363 C364 1.502 . S
C363 C365 1.561 . S
C363 C366 1.526 . S
C364 H348 0.959 1_565 S
C364 H349 0.959 . S
C364 H350 0.961 . S
C364 C363 1.502 . S
C365 H351 0.960 . S
C365 H352 0.961 . S
C365 H353 0.959 . S
C365 C363 1.561 . S
C366 C363 1.526 . S
C366 C367 1.396 1_565 S
C366 C371 1.390 . S
C367 C361 1.465 . S
C367 C366 1.396 1_545 S
C367 C368 1.399 . S
C368 H354 0.929 . S
C368 C367 1.399 . S
C368 C369 1.385 1_545 S
C369 H355 0.931 . S
C369 C368 1.385 1_565 S
C369 C370 1.389 . S
C370 C369 1.389 . S
C370 C371 1.387 . S
C371 H356 0.930 . S
C371 C366 1.390 . S
C371 C370 1.387 . S
H372 C384 0.930 . S
H373 C386 0.930 . S
H374 C387 0.930 . S
H375 C391 0.959 . S
H376 C391 0.959 . S
H377 C391 0.961 . S
H378 C392 0.960 . S
H379 C392 0.961 . S
H380 C392 0.959 . S
H381 C395 0.929 . S
H382 C396 0.931 1_554 S
H383 C398 0.930 . S
C384 H372 0.930 . S
C384 C385 1.399 . S
C384 C389 1.399 . S
C385 C384 1.399 . S
C385 C386 1.376 . S
C386 H373 0.930 . S
C386 C385 1.376 . S
C386 C387 1.388 . S
C387 H374 0.930 . S
C387 C386 1.388 . S
C387 C388 1.390 . S
C388 C387 1.390 . S
C388 C389 1.394 . S
C388 C394 1.465 . S
C389 C384 1.399 . S
C389 C388 1.394 . S
C389 C390 1.516 . S
C390 C389 1.516 . S
C390 C391 1.502 . S
C390 C392 1.561 . S
C390 C393 1.526 . S
C391 H375 0.959 . S
C391 H376 0.959 . S
C391 H377 0.961 . S
C391 C390 1.502 . S
C392 H378 0.960 . S
C392 H379 0.961 . S
C392 H380 0.959 . S
C392 C390 1.561 . S
C393 C390 1.526 . S
C393 C394 1.396 . S
C393 C398 1.390 . S
C394 C388 1.465 . S
C394 C393 1.396 . S
C394 C395 1.399 . S
C395 H381 0.929 . S
C395 C394 1.399 . S
C395 C396 1.385 . S
C396 H382 0.931 1_556 S
C396 C395 1.385 . S
C396 C397 1.389 . S
C397 C396 1.389 . S
C397 C398 1.387 . S
C398 H383 0.930 . S
C398 C393 1.390 . S
C398 C397 1.387 . S
H399 C411 0.930 . S
H400 C413 0.930 . S
H401 C414 0.930 . S
H402 C418 0.959 . S
H403 C418 0.959 . S
H404 C418 0.961 . S
H405 C419 0.960 . S
H406 C419 0.961 . S
H407 C419 0.959 . S
H408 C422 0.929 . S
H409 C423 0.931 . S
H410 C425 0.930 . S
C411 H399 0.930 . S
C411 C412 1.399 . S
C411 C416 1.399 . S
C412 C411 1.399 . S
C412 C413 1.376 . S
C413 H400 0.930 . S
C413 C412 1.376 . S
C413 C414 1.388 . S
C414 H401 0.930 . S
C414 C413 1.388 . S
C414 C415 1.390 . S
C415 C414 1.390 . S
C415 C416 1.394 . S
C415 C421 1.465 1_455 S
C416 C411 1.399 . S
C416 C415 1.394 . S
C416 C417 1.516 1_455 S
C417 C416 1.516 1_655 S
C417 C418 1.502 . S
C417 C419 1.561 1_655 S
C417 C420 1.526 . S
C418 H402 0.959 . S
C418 H403 0.959 . S
C418 H404 0.961 . S
C418 C417 1.502 . S
C419 H405 0.960 . S
C419 H406 0.961 . S
C419 H407 0.959 . S
C419 C417 1.561 1_455 S
C420 C417 1.526 . S
C420 C421 1.396 . S
C420 C425 1.390 . S
C421 C415 1.465 1_655 S
C421 C420 1.396 . S
C421 C422 1.399 . S
C422 H408 0.929 . S
C422 C421 1.399 . S
C422 C423 1.385 . S
C423 H409 0.931 . S
C423 C422 1.385 . S
C423 C424 1.389 . S
C424 C423 1.389 . S
C424 C425 1.387 . S
C425 H410 0.930 . S
C425 C420 1.390 . S
C425 C424 1.387 . S
H426 C438 0.930 . S
H427 C440 0.930 . S
H428 C441 0.930 1_655 S
H429 C445 0.959 . S
H430 C445 0.959 . S
H431 C445 0.961 . S
H432 C446 0.960 . S
H433 C446 0.961 . S
H434 C446 0.959 . S
H435 C449 0.929 . S
H436 C450 0.931 . S
H437 C452 0.930 . S
C438 H426 0.930 . S
C438 C439 1.399 . S
C438 C443 1.399 . S
C439 C438 1.399 . S
C439 C440 1.376 . S
C440 H427 0.930 . S
C440 C439 1.376 . S
C440 C441 1.388 . S
C441 H428 0.930 1_455 S
C441 C440 1.388 . S
C441 C442 1.390 . S
C442 C441 1.390 . S
C442 C443 1.394 . S
C442 C448 1.465 1_455 S
C443 C438 1.399 . S
C443 C442 1.394 . S
C443 C444 1.516 . S
C444 C443 1.516 . S
C444 C445 1.502 . S
C444 C446 1.561 . S
C444 C447 1.526 . S
C445 H429 0.959 . S
C445 H430 0.959 . S
C445 H431 0.961 . S
C445 C444 1.502 . S
C446 H432 0.960 . S
C446 H433 0.961 . S
C446 H434 0.959 . S
C446 C444 1.561 . S
C447 C444 1.526 . S
C447 C448 1.396 1_455 S
C447 C452 1.390 1_455 S
C448 C442 1.465 1_655 S
C448 C447 1.396 1_655 S
C448 C449 1.399 . S
C449 H435 0.929 . S
C449 C448 1.399 . S
C449 C450 1.385 . S
C450 H436 0.931 . S
C450 C449 1.385 . S
C450 C451 1.389 . S
C451 C450 1.389 . S
C451 C452 1.387 . S
C452 H437 0.930 . S
C452 C447 1.390 1_655 S
C452 C451 1.387 . S
H453 C465 0.930 . S
H454 C467 0.930 . S
H455 C468 0.930 . S
H456 C472 0.959 1_545 S
H457 C472 0.959 . S
H458 C472 0.961 . S
H459 C473 0.960 . S
H460 C473 0.961 . S
H461 C473 0.959 . S
H462 C476 0.929 . S
H463 C477 0.931 . S
H464 C479 0.930 . S
C465 H453 0.930 . S
C465 C466 1.399 . S
C465 C470 1.399 . S
C466 C465 1.399 . S
C466 C467 1.376 . S
C467 H454 0.930 . S
C467 C466 1.376 . S
C467 C468 1.388 1_565 S
C468 H455 0.930 . S
C468 C467 1.388 1_545 S
C468 C469 1.390 . S
C469 C468 1.390 . S
C469 C470 1.394 1_545 S
C469 C475 1.465 . S
C470 C465 1.399 . S
C470 C469 1.394 1_565 S
C470 C471 1.516 . S
C471 C470 1.516 . S
C471 C472 1.502 . S
C471 C473 1.561 . S
C471 C474 1.526 1_565 S
C472 H456 0.959 1_565 S
C472 H457 0.959 . S
C472 H458 0.961 . S
C472 C471 1.502 . S
C473 H459 0.960 . S
C473 H460 0.961 . S
C473 H461 0.959 . S
C473 C471 1.561 . S
C474 C471 1.526 1_545 S
C474 C475 1.396 . S
C474 C479 1.390 . S
C475 C469 1.465 . S
C475 C474 1.396 . S
C475 C476 1.399 . S
C476 H462 0.929 . S
C476 C475 1.399 . S
C476 C477 1.385 . S
C477 H463 0.931 . S
C477 C476 1.385 . S
C477 C478 1.389 . S
C478 C477 1.389 . S
C478 C479 1.387 . S
C479 H464 0.930 . S
C479 C474 1.390 . S
C479 C478 1.387 . S
H480 C492 0.930 . S
H481 C494 0.930 . S
H482 C495 0.930 . S
H483 C499 0.959 . S
H484 C499 0.959 . S
H485 C499 0.961 . S
H486 C500 0.960 . S
H487 C500 0.961 . S
H488 C500 0.959 . S
H489 C503 0.929 . S
H490 C504 0.931 . S
H491 C506 0.930 . S
C492 H480 0.930 . S
C492 C493 1.399 . S
C492 C497 1.399 . S
C493 C492 1.399 . S
C493 C494 1.376 . S
C494 H481 0.930 . S
C494 C493 1.376 . S
C494 C495 1.388 . S
C495 H482 0.930 . S
C495 C494 1.388 . S
C495 C496 1.390 . S
C496 C495 1.390 . S
C496 C497 1.394 . S
C496 C502 1.465 . S
C497 C492 1.399 . S
C497 C496 1.394 . S
C497 C498 1.516 . S
C498 C497 1.516 . S
C498 C499 1.502 . S
C498 C500 1.561 . S
C498 C501 1.526 . S
C499 H483 0.959 . S
C499 H484 0.959 . S
C499 H485 0.961 . S
C499 C498 1.502 . S
C500 H486 0.960 . S
C500 H487 0.961 . S
C500 H488 0.959 . S
C500 C498 1.561 . S
C501 C498 1.526 . S
C501 C502 1.396 . S
C501 C506 1.390 . S
C502 C496 1.465 . S
C502 C501 1.396 . S
C502 C503 1.399 . S
C503 H489 0.929 . S
C503 C502 1.399 . S
C503 C504 1.385 . S
C504 H490 0.931 . S
C504 C503 1.385 . S
C504 C505 1.389 . S
C505 C504 1.389 . S
C505 C506 1.387 . S
C506 H491 0.930 . S
C506 C501 1.390 . S
C506 C505 1.387 . S
H507 C519 0.930 . S
H508 C521 0.930 . S
H509 C522 0.930 . S
H510 C526 0.959 . S
H511 C526 0.959 . S
H512 C526 0.961 . S
H513 C527 0.960 1_655 S
H514 C527 0.961 . S
H515 C527 0.959 . S
H516 C530 0.929 . S
H517 C531 0.931 . S
H518 C533 0.930 . S
C519 H507 0.930 . S
C519 C520 1.399 . S
C519 C524 1.399 . S
C520 C519 1.399 . S
C520 C521 1.376 . S
C521 H508 0.930 . S
C521 C520 1.376 . S
C521 C522 1.388 . S
C522 H509 0.930 . S
C522 C521 1.388 . S
C522 C523 1.390 . S
C523 C522 1.390 . S
C523 C524 1.394 . S
C523 C529 1.465 1_655 S
C524 C519 1.399 . S
C524 C523 1.394 . S
C524 C525 1.516 . S
C525 C524 1.516 . S
C525 C526 1.502 . S
C525 C527 1.561 1_655 S
C525 C528 1.526 1_655 S
C526 H510 0.959 . S
C526 H511 0.959 . S
C526 H512 0.961 . S
C526 C525 1.502 . S
C527 H513 0.960 1_455 S
C527 H514 0.961 . S
C527 H515 0.959 . S
C527 C525 1.561 1_455 S
C528 C525 1.526 1_455 S
C528 C529 1.396 . S
C528 C533 1.390 . S
C529 C523 1.465 1_455 S
C529 C528 1.396 . S
C529 C530 1.399 . S
C530 H516 0.929 . S
C530 C529 1.399 . S
C530 C531 1.385 . S
C531 H517 0.931 . S
C531 C530 1.385 . S
C531 C532 1.389 . S
C532 C531 1.389 . S
C532 C533 1.387 . S
C533 H518 0.930 . S
C533 C528 1.390 . S
C533 C532 1.387 . S
H534 C546 0.930 . S
H535 C548 0.930 . S
H536 C549 0.930 . S
H537 C553 0.959 . S
H538 C553 0.959 . S
H539 C553 0.961 1_565 S
H540 C554 0.960 . S
H541 C554 0.961 . S
H542 C554 0.959 . S
H543 C557 0.929 . S
H544 C558 0.931 . S
H545 C560 0.930 . S
C546 H534 0.930 . S
C546 C547 1.399 . S
C546 C551 1.399 . S
C547 C546 1.399 . S
C547 C548 1.376 . S
C548 H535 0.930 . S
C548 C547 1.376 . S
C548 C549 1.388 . S
C549 H536 0.930 . S
C549 C548 1.388 . S
C549 C550 1.390 . S
C550 C549 1.390 . S
C550 C551 1.394 . S
C550 C556 1.465 1_565 S
C551 C546 1.399 . S
C551 C550 1.394 . S
C551 C552 1.516 . S
C552 C551 1.516 . S
C552 C553 1.502 1_565 S
C552 C554 1.561 . S
C552 C555 1.526 1_565 S
C553 H537 0.959 . S
C553 H538 0.959 . S
C553 H539 0.961 1_545 S
C553 C552 1.502 1_545 S
C554 H540 0.960 . S
C554 H541 0.961 . S
C554 H542 0.959 . S
C554 C552 1.561 . S
C555 C552 1.526 1_545 S
C555 C556 1.396 . S
C555 C560 1.390 . S
C556 C550 1.465 1_545 S
C556 C555 1.396 . S
C556 C557 1.399 . S
C557 H543 0.929 . S
C557 C556 1.399 . S
C557 C558 1.385 . S
C558 H544 0.931 . S
C558 C557 1.385 . S
C558 C559 1.389 . S
C559 C558 1.389 . S
C559 C560 1.387 . S
C560 H545 0.930 . S
C560 C555 1.390 . S
C560 C559 1.387 . S
H561 C573 0.930 . S
H562 C575 0.930 . S
H563 C576 0.930 . S
H564 C580 0.959 . S
H565 C580 0.959 . S
H566 C580 0.961 . S
H567 C581 0.960 . S
H568 C581 0.961 . S
H569 C581 0.959 . S
H570 C584 0.929 . S
H571 C585 0.931 . S
H572 C587 0.930 . S
C573 H561 0.930 . S
C573 C574 1.399 . S
C573 C578 1.399 . S
C574 C573 1.399 . S
C574 C575 1.376 . S
C575 H562 0.930 . S
C575 C574 1.376 . S
C575 C576 1.388 . S
C576 H563 0.930 . S
C576 C575 1.388 . S
C576 C577 1.390 . S
C577 C576 1.390 . S
C577 C578 1.394 . S
C577 C583 1.465 . S
C578 C573 1.399 . S
C578 C577 1.394 . S
C578 C579 1.516 . S
C579 C578 1.516 . S
C579 C580 1.502 . S
C579 C581 1.561 . S
C579 C582 1.526 . S
C580 H564 0.959 . S
C580 H565 0.959 . S
C580 H566 0.961 . S
C580 C579 1.502 . S
C581 H567 0.960 . S
C581 H568 0.961 . S
C581 H569 0.959 . S
C581 C579 1.561 . S
C582 C579 1.526 . S
C582 C583 1.396 . S
C582 C587 1.390 . S
C583 C577 1.465 . S
C583 C582 1.396 . S
C583 C584 1.399 . S
C584 H570 0.929 . S
C584 C583 1.399 . S
C584 C585 1.385 . S
C585 H571 0.931 . S
C585 C584 1.385 . S
C585 C586 1.389 . S
C586 C585 1.389 . S
C586 C587 1.387 . S
C587 H572 0.930 . S
C587 C582 1.390 . S
C587 C586 1.387 . S
H588 C600 0.930 . S
H589 C602 0.930 . S
H590 C603 0.930 . S
H591 C607 0.959 . S
H592 C607 0.959 . S
H593 C607 0.961 . S
H594 C608 0.960 . S
H595 C608 0.961 1_545 S
H596 C608 0.959 . S
H597 C611 0.929 . S
H598 C612 0.931 . S
H599 C614 0.930 . S
C600 H588 0.930 . S
C600 C601 1.399 . S
C600 C605 1.399 . S
C601 C600 1.399 . S
C601 C602 1.376 . S
C602 H589 0.930 . S
C602 C601 1.376 . S
C602 C603 1.388 . S
C603 H590 0.930 . S
C603 C602 1.388 . S
C603 C604 1.390 . S
C604 C603 1.390 . S
C604 C605 1.394 . S
C604 C610 1.465 . S
C605 C600 1.399 . S
C605 C604 1.394 . S
C605 C606 1.516 1_565 S
C606 C605 1.516 1_545 S
C606 C607 1.502 . S
C606 C608 1.561 1_545 S
C606 C609 1.526 . S
C607 H591 0.959 . S
C607 H592 0.959 . S
C607 H593 0.961 . S
C607 C606 1.502 . S
C608 H594 0.960 . S
C608 H595 0.961 1_565 S
C608 H596 0.959 . S
C608 C606 1.561 1_565 S
C609 C606 1.526 . S
C609 C610 1.396 1_545 S
C609 C614 1.390 . S
C610 C604 1.465 . S
C610 C609 1.396 1_565 S
C610 C611 1.399 . S
C611 H597 0.929 . S
C611 C610 1.399 . S
C611 C612 1.385 . S
C612 H598 0.931 . S
C612 C611 1.385 . S
C612 C613 1.389 1_565 S
C613 C612 1.389 1_545 S
C613 C614 1.387 . S
C614 H599 0.930 . S
C614 C609 1.390 . S
C614 C613 1.387 . S
H615 C627 0.930 . S
H616 C629 0.930 . S
H617 C630 0.930 . S
H618 C634 0.959 . S
H619 C634 0.959 . S
H620 C634 0.961 . S
H621 C635 0.960 . S
H622 C635 0.961 . S
H623 C635 0.959 . S
H624 C638 0.929 . S
H625 C639 0.931 . S
H626 C641 0.930 . S
C627 H615 0.930 . S
C627 C628 1.399 . S
C627 C632 1.399 . S
C628 C627 1.399 . S
C628 C629 1.376 . S
C629 H616 0.930 . S
C629 C628 1.376 . S
C629 C630 1.388 . S
C630 H617 0.930 . S
C630 C629 1.388 . S
C630 C631 1.390 . S
C631 C630 1.390 . S
C631 C632 1.394 . S
C631 C637 1.465 . S
C632 C627 1.399 . S
C632 C631 1.394 . S
C632 C633 1.516 . S
C633 C632 1.516 . S
C633 C634 1.502 . S
C633 C635 1.561 . S
C633 C636 1.526 . S
C634 H618 0.959 . S
C634 H619 0.959 . S
C634 H620 0.961 . S
C634 C633 1.502 . S
C635 H621 0.960 . S
C635 H622 0.961 . S
C635 H623 0.959 . S
C635 C633 1.561 . S
C636 C633 1.526 . S
C636 C637 1.396 . S
C636 C641 1.390 . S
C637 C631 1.465 . S
C637 C636 1.396 . S
C637 C638 1.399 . S
C638 H624 0.929 . S
C638 C637 1.399 . S
C638 C639 1.385 . S
C639 H625 0.931 . S
C639 C638 1.385 . S
C639 C640 1.389 . S
C640 C639 1.389 . S
C640 C641 1.387 . S
C641 H626 0.930 . S
C641 C636 1.390 . S
C641 C640 1.387 . S
H642 C654 0.930 . S
H643 C656 0.930 . S
H644 C657 0.930 1_655 S
H645 C661 0.959 . S
H646 C661 0.959 . S
H647 C661 0.961 . S
H648 C662 0.960 . S
H649 C662 0.961 . S
H650 C662 0.959 1_655 S
H651 C665 0.929 . S
H652 C666 0.931 . S
H653 C668 0.930 1_455 S
C654 H642 0.930 . S
C654 C655 1.399 . S
C654 C659 1.399 . S
C655 C654 1.399 . S
C655 C656 1.376 . S
C656 H643 0.930 . S
C656 C655 1.376 . S
C656 C657 1.388 . S
C657 H644 0.930 1_455 S
C657 C656 1.388 . S
C657 C658 1.390 . S
C658 C657 1.390 . S
C658 C659 1.394 . S
C658 C664 1.465 1_455 S
C659 C654 1.399 . S
C659 C658 1.394 . S
C659 C660 1.516 . S
C660 C659 1.516 . S
C660 C661 1.502 . S
C660 C662 1.561 . S
C660 C663 1.526 . S
C661 H645 0.959 . S
C661 H646 0.959 . S
C661 H647 0.961 . S
C661 C660 1.502 . S
C662 H648 0.960 . S
C662 H649 0.961 . S
C662 H650 0.959 1_455 S
C662 C660 1.561 . S
C663 C660 1.526 . S
C663 C664 1.396 1_455 S
C663 C668 1.390 1_455 S
C664 C658 1.465 1_655 S
C664 C663 1.396 1_655 S
C664 C665 1.399 . S
C665 H651 0.929 . S
C665 C664 1.399 . S
C665 C666 1.385 . S
C666 H652 0.931 . S
C666 C665 1.385 . S
C666 C667 1.389 . S
C667 C666 1.389 . S
C667 C668 1.387 . S
C668 H653 0.930 1_655 S
C668 C663 1.390 1_655 S
C668 C667 1.387 . S
H669 C681 0.930 . S
H670 C683 0.930 . S
H671 C684 0.925 1_565 S
H672 C688 0.959 . S
H673 C688 0.959 . S
H674 C688 0.961 . S
H675 C689 0.960 . S
H676 C689 0.961 . S
H677 C689 0.959 . S
H678 C692 0.929 . S
H679 C693 0.931 . S
H680 C695 0.930 . S
C681 H669 0.930 . S
C681 C682 1.399 . S
C681 C686 1.399 . S
C682 C681 1.399 . S
C682 C683 1.376 . S
C683 H670 0.930 . S
C683 C682 1.376 . S
C683 C684 1.394 . S
C684 H671 0.925 1_545 S
C684 C683 1.394 . S
C684 C685 1.389 . S
C685 C684 1.389 . S
C685 C686 1.394 . S
C685 C691 1.465 1_545 S
C686 C681 1.399 . S
C686 C685 1.394 . S
C686 C687 1.516 . S
C687 C686 1.516 . S
C687 C688 1.502 . S
C687 C689 1.561 . S
C687 C690 1.526 . S
C688 H672 0.959 . S
C688 H673 0.959 . S
C688 H674 0.961 . S
C688 C687 1.502 . S
C689 H675 0.960 . S
C689 H676 0.961 . S
C689 H677 0.959 . S
C689 C687 1.561 . S
C690 C687 1.526 . S
C690 C691 1.396 1_545 S
C690 C695 1.390 . S
C691 C685 1.465 1_565 S
C691 C690 1.396 1_565 S
C691 C692 1.399 . S
C692 H678 0.929 . S
C692 C691 1.399 . S
C692 C693 1.385 . S
C693 H679 0.931 . S
C693 C692 1.385 . S
C693 C694 1.389 . S
C694 C693 1.389 . S
C694 C695 1.387 1_565 S
C695 H680 0.930 . S
C695 C690 1.390 . S
C695 C694 1.387 1_545 S
H696 C708 0.930 . S
H697 C710 0.930 . S
H698 C711 0.930 . S
H699 C715 0.959 . S
H700 C715 0.959 . S
H701 C715 0.961 . S
H702 C716 0.960 . S
H703 C716 0.961 . S
H704 C716 0.959 1_554 S
H705 C719 0.929 . S
H706 C720 0.931 . S
H707 C722 0.930 . S
C708 H696 0.930 . S
C708 C709 1.399 . S
C708 C713 1.399 . S
C709 C708 1.399 . S
C709 C710 1.376 1_556 S
C710 H697 0.930 . S
C710 C709 1.376 1_554 S
C710 C711 1.388 . S
C711 H698 0.930 . S
C711 C710 1.388 . S
C711 C712 1.390 . S
C712 C711 1.390 . S
C712 C713 1.394 1_554 S
C712 C718 1.465 . S
C713 C708 1.399 . S
C713 C712 1.394 1_556 S
C713 C714 1.516 . S
C714 C713 1.516 . S
C714 C715 1.502 . S
C714 C716 1.561 . S
C714 C717 1.526 1_556 S
C715 H699 0.959 . S
C715 H700 0.959 . S
C715 H701 0.961 . S
C715 C714 1.502 . S
C716 H702 0.960 . S
C716 H703 0.961 . S
C716 H704 0.959 1_556 S
C716 C714 1.561 . S
C717 C714 1.526 1_554 S
C717 C718 1.396 . S
C717 C722 1.390 . S
C718 C712 1.465 . S
C718 C717 1.396 . S
C718 C719 1.399 . S
C719 H705 0.929 . S
C719 C718 1.399 . S
C719 C720 1.385 . S
C720 H706 0.931 . S
C720 C719 1.385 . S
C720 C721 1.389 . S
C721 C720 1.389 . S
C721 C722 1.387 . S
C722 H707 0.930 . S
C722 C717 1.390 . S
C722 C721 1.387 . S
H723 C735 0.930 . S
H724 C737 0.930 . S
H725 C738 0.930 . S
H726 C742 0.959 . S
H727 C742 0.959 . S
H728 C742 0.961 . S
H729 C743 0.960 . S
H730 C743 0.961 . S
H731 C743 0.959 . S
H732 C746 0.929 . S
H733 C747 0.931 . S
H734 C749 0.930 . S
C735 H723 0.930 . S
C735 C736 1.399 . S
C735 C740 1.399 1_455 S
C736 C735 1.399 . S
C736 C737 1.376 . S
C737 H724 0.930 . S
C737 C736 1.376 . S
C737 C738 1.388 1_455 S
C738 H725 0.930 . S
C738 C737 1.388 1_655 S
C738 C739 1.390 . S
C739 C738 1.390 . S
C739 C740 1.394 . S
C739 C745 1.465 . S
C740 C735 1.399 1_655 S
C740 C739 1.394 . S
C740 C741 1.516 . S
C741 C740 1.516 . S
C741 C742 1.502 1_655 S
C741 C743 1.561 . S
C741 C744 1.526 . S
C742 H726 0.959 . S
C742 H727 0.959 . S
C742 H728 0.961 . S
C742 C741 1.502 1_455 S
C743 H729 0.960 . S
C743 H730 0.961 . S
C743 H731 0.959 . S
C743 C741 1.561 . S
C744 C741 1.526 . S
C744 C745 1.396 . S
C744 C749 1.390 . S
C745 C739 1.465 . S
C745 C744 1.396 . S
C745 C746 1.399 . S
C746 H732 0.929 . S
C746 C745 1.399 . S
C746 C747 1.385 . S
C747 H733 0.931 . S
C747 C746 1.385 . S
C747 C748 1.389 . S
C748 C747 1.389 . S
C748 C749 1.387 . S
C749 H734 0.930 . S
C749 C744 1.390 . S
C749 C748 1.387 . S
H750 C762 0.930 . S
H751 C764 0.930 . S
H752 C765 0.930 . S
H753 C769 0.959 . S
H754 C769 0.959 . S
H755 C769 0.961 . S
H756 C770 0.960 . S
H757 C770 0.961 . S
H758 C770 0.959 . S
H759 C773 0.929 . S
H760 C774 0.931 . S
H761 C776 0.930 . S
C762 H750 0.930 . S
C762 C763 1.399 . S
C762 C767 1.399 . S
C763 C762 1.399 . S
C763 C764 1.376 1_655 S
C764 H751 0.930 . S
C764 C763 1.376 1_455 S
C764 C765 1.388 . S
C765 H752 0.930 . S
C765 C764 1.388 . S
C765 C766 1.390 . S
C766 C765 1.390 . S
C766 C767 1.394 1_455 S
C766 C772 1.465 . S
C767 C762 1.399 . S
C767 C766 1.394 1_655 S
C767 C768 1.516 . S
C768 C767 1.516 . S
C768 C769 1.502 . S
C768 C770 1.561 . S
C768 C771 1.526 1_655 S
C769 H753 0.959 . S
C769 H754 0.959 . S
C769 H755 0.961 . S
C769 C768 1.502 . S
C770 H756 0.960 . S
C770 H757 0.961 . S
C770 H758 0.959 . S
C770 C768 1.561 . S
C771 C768 1.526 1_455 S
C771 C772 1.396 . S
C771 C776 1.390 . S
C772 C766 1.465 . S
C772 C771 1.396 . S
C772 C773 1.399 . S
C773 H759 0.929 . S
C773 C772 1.399 . S
C773 C774 1.385 . S
C774 H760 0.931 . S
C774 C773 1.385 . S
C774 C775 1.389 . S
C775 C774 1.389 . S
C775 C776 1.387 . S
C776 H761 0.930 . S
C776 C771 1.390 . S
C776 C775 1.387 . S
H777 C789 0.930 . S
H778 C791 0.930 . S
H779 C792 0.930 . S
H780 C796 0.959 . S
H781 C796 0.959 . S
H782 C796 0.961 . S
H783 C797 0.960 . S
H784 C797 0.961 . S
H785 C797 0.959 . S
H786 C800 0.929 . S
H787 C801 0.931 . S
H788 C803 0.930 . S
C789 H777 0.930 . S
C789 C790 1.399 . S
C789 C794 1.399 1_565 S
C790 C789 1.399 . S
C790 C791 1.376 . S
C791 H778 0.930 . S
C791 C790 1.376 . S
C791 C792 1.388 . S
C792 H779 0.930 . S
C792 C791 1.388 . S
C792 C793 1.390 1_565 S
C793 C792 1.390 1_545 S
C793 C794 1.394 . S
C793 C799 1.465 . S
C794 C789 1.399 1_545 S
C794 C793 1.394 . S
C794 C795 1.516 . S
C795 C794 1.516 . S
C795 C796 1.502 . S
C795 C797 1.561 . S
C795 C798 1.526 . S
C796 H780 0.959 . S
C796 H781 0.959 . S
C796 H782 0.961 . S
C796 C795 1.502 . S
C797 H783 0.960 . S
C797 H784 0.961 . S
C797 H785 0.959 . S
C797 C795 1.561 . S
C798 C795 1.526 . S
C798 C799 1.396 . S
C798 C803 1.390 . S
C799 C793 1.465 . S
C799 C798 1.396 . S
C799 C800 1.399 . S
C800 H786 0.929 . S
C800 C799 1.399 . S
C800 C801 1.385 . S
C801 H787 0.931 . S
C801 C800 1.385 . S
C801 C802 1.389 . S
C802 C801 1.389 . S
C802 C803 1.387 . S
C803 H788 0.930 . S
C803 C798 1.390 . S
C803 C802 1.387 . S
H804 C816 0.930 . S
H805 C818 0.930 . S
H806 C819 0.930 . S
H807 C823 0.959 . S
H808 C823 0.959 . S
H809 C823 0.961 . S
H810 C824 0.960 . S
H811 C824 0.961 . S
H812 C824 0.959 . S
H813 C827 0.929 . S
H814 C828 0.931 . S
H815 C830 0.930 . S
C816 H804 0.930 . S
C816 C817 1.399 . S
C816 C821 1.399 . S
C817 C816 1.399 . S
C817 C818 1.376 . S
C818 H805 0.930 . S
C818 C817 1.376 . S
C818 C819 1.388 . S
C819 H806 0.930 . S
C819 C818 1.388 . S
C819 C820 1.390 . S
C820 C819 1.390 . S
C820 C821 1.394 . S
C820 C826 1.465 . S
C821 C816 1.399 . S
C821 C820 1.394 . S
C821 C822 1.516 . S
C822 C821 1.516 . S
C822 C823 1.502 . S
C822 C824 1.561 . S
C822 C825 1.526 . S
C823 H807 0.959 . S
C823 H808 0.959 . S
C823 H809 0.961 . S
C823 C822 1.502 . S
C824 H810 0.960 . S
C824 H811 0.961 . S
C824 H812 0.959 . S
C824 C822 1.561 . S
C825 C822 1.526 . S
C825 C826 1.396 . S
C825 C830 1.390 . S
C826 C820 1.465 . S
C826 C825 1.396 . S
C826 C827 1.399 . S
C827 H813 0.929 . S
C827 C826 1.399 . S
C827 C828 1.385 . S
C828 H814 0.931 . S
C828 C827 1.385 . S
C828 C829 1.389 . S
C829 C828 1.389 . S
C829 C830 1.387 . S
C830 H815 0.930 . S
C830 C825 1.390 . S
C830 C829 1.387 . S
H831 C843 0.930 . S
H832 C845 0.930 . S
H833 C846 0.930 . S
H834 C850 0.959 . S
H835 C850 0.959 . S
H836 C850 0.961 . S
H837 C851 0.960 . S
H838 C851 0.961 . S
H839 C851 0.959 . S
H840 C854 0.929 . S
H841 C855 0.931 . S
H842 C857 0.930 . S
C843 H831 0.930 . S
C843 C844 1.399 . S
C843 C848 1.399 . S
C844 C843 1.399 . S
C844 C845 1.376 1_554 S
C845 H832 0.930 . S
C845 C844 1.376 1_556 S
C845 C846 1.388 . S
C846 H833 0.930 . S
C846 C845 1.388 . S
C846 C847 1.390 . S
C847 C846 1.390 . S
C847 C848 1.394 1_556 S
C847 C853 1.465 . S
C848 C843 1.399 . S
C848 C847 1.394 1_554 S
C848 C849 1.516 . S
C849 C848 1.516 . S
C849 C850 1.502 1_655 S
C849 C851 1.561 . S
C849 C852 1.526 1_654 S
C850 H834 0.959 . S
C850 H835 0.959 . S
C850 H836 0.961 . S
C850 C849 1.502 1_455 S
C851 H837 0.960 . S
C851 H838 0.961 . S
C851 H839 0.959 . S
C851 C849 1.561 . S
C852 C849 1.526 1_456 S
C852 C853 1.396 1_455 S
C852 C857 1.390 . S
C853 C847 1.465 . S
C853 C852 1.396 1_655 S
C853 C854 1.399 . S
C854 H840 0.929 . S
C854 C853 1.399 . S
C854 C855 1.385 1_655 S
C855 H841 0.931 . S
C855 C854 1.385 1_455 S
C855 C856 1.389 . S
C856 C855 1.389 . S
C856 C857 1.387 . S
C857 H842 0.930 . S
C857 C852 1.390 . S
C857 C856 1.387 . S
H858 C870 0.930 . S
H859 C872 0.930 . S
H860 C873 0.930 . S
H861 C877 0.959 . S
H862 C877 0.959 . S
H863 C877 0.961 . S
H864 C878 0.960 . S
H865 C878 0.961 . S
H866 C878 0.959 . S
H867 C881 0.929 . S
H868 C882 0.931 . S
H869 C884 0.930 . S
C870 H858 0.930 . S
C870 C871 1.399 . S
C870 C875 1.399 1_545 S
C871 C870 1.399 . S
C871 C872 1.376 . S
C872 H859 0.930 . S
C872 C871 1.376 . S
C872 C873 1.388 1_545 S
C873 H860 0.930 . S
C873 C872 1.388 1_565 S
C873 C874 1.390 . S
C874 C873 1.390 . S
C874 C875 1.394 . S
C874 C880 1.465 . S
C875 C870 1.399 1_565 S
C875 C874 1.394 . S
C875 C876 1.516 . S
C876 C875 1.516 . S
C876 C877 1.502 1_565 S
C876 C878 1.561 . S
C876 C879 1.526 . S
C877 H861 0.959 . S
C877 H862 0.959 . S
C877 H863 0.961 . S
C877 C876 1.502 1_545 S
C878 H864 0.960 . S
C878 H865 0.961 . S
C878 H866 0.959 . S
C878 C876 1.561 . S
C879 C876 1.526 . S
C879 C880 1.396 . S
C879 C884 1.390 . S
C880 C874 1.465 . S
C880 C879 1.396 . S
C880 C881 1.399 . S
C881 H867 0.929 . S
C881 C880 1.399 . S
C881 C882 1.385 . S
C882 H868 0.931 . S
C882 C881 1.385 . S
C882 C883 1.389 . S
C883 C882 1.389 . S
C883 C884 1.387 . S
C884 H869 0.930 . S
C884 C879 1.390 . S
C884 C883 1.387 . S
H885 C897 0.930 . S
H886 C899 0.930 . S
H887 C900 0.930 . S
H888 C904 0.959 . S
H889 C904 0.959 . S
H890 C904 0.961 . S
H891 C905 0.960 . S
H892 C905 0.961 . S
H893 C905 0.959 . S
H894 C908 0.929 . S
H895 C909 0.931 . S
H896 C911 0.930 . S
C897 H885 0.930 . S
C897 C898 1.399 . S
C897 C902 1.399 . S
C898 C897 1.399 . S
C898 C899 1.376 . S
C899 H886 0.930 . S
C899 C898 1.376 . S
C899 C900 1.388 . S
C900 H887 0.930 . S
C900 C899 1.388 . S
C900 C901 1.390 . S
C901 C900 1.390 . S
C901 C902 1.394 . S
C901 C907 1.465 . S
C902 C897 1.399 . S
C902 C901 1.394 . S
C902 C903 1.516 . S
C903 C902 1.516 . S
C903 C904 1.502 . S
C903 C905 1.561 . S
C903 C906 1.526 . S
C904 H888 0.959 . S
C904 H889 0.959 . S
C904 H890 0.961 . S
C904 C903 1.502 . S
C905 H891 0.960 . S
C905 H892 0.961 . S
C905 H893 0.959 . S
C905 C903 1.561 . S
C906 C903 1.526 . S
C906 C907 1.396 . S
C906 C911 1.390 . S
C907 C901 1.465 . S
C907 C906 1.396 . S
C907 C908 1.399 . S
C908 H894 0.929 . S
C908 C907 1.399 . S
C908 C909 1.385 . S
C909 H895 0.931 . S
C909 C908 1.385 . S
C909 C910 1.389 . S
C910 C909 1.389 . S
C910 C911 1.387 . S
C911 H896 0.930 . S
C911 C906 1.390 . S
C911 C910 1.387 . S
H912 C924 0.930 . S
H913 C926 0.930 1_655 S
H914 C927 0.930 . S
H915 C931 0.959 . S
H916 C931 0.959 . S
H917 C931 0.961 . S
H918 C932 0.960 . S
H919 C932 0.961 . S
H920 C932 0.959 . S
H921 C935 0.929 . S
H922 C936 0.931 . S
H923 C938 0.930 1_545 S
C924 H912 0.930 . S
C924 C925 1.399 . S
C924 C929 1.399 . S
C925 C924 1.399 . S
C925 C926 1.376 . S
C926 H913 0.930 1_455 S
C926 C925 1.376 . S
C926 C927 1.388 . S
C927 H914 0.930 . S
C927 C926 1.388 . S
C927 C928 1.390 . S
C928 C927 1.390 . S
C928 C929 1.394 . S
C928 C934 1.465 . S
C929 C924 1.399 . S
C929 C928 1.394 . S
C929 C930 1.516 . S
C930 C929 1.516 . S
C930 C931 1.502 . S
C930 C932 1.561 . S
C930 C933 1.526 . S
C931 H915 0.959 . S
C931 H916 0.959 . S
C931 H917 0.961 . S
C931 C930 1.502 . S
C932 H918 0.960 . S
C932 H919 0.961 . S
C932 H920 0.959 . S
C932 C930 1.561 . S
C933 C930 1.526 . S
C933 C934 1.396 . S
C933 C938 1.390 . S
C934 C928 1.465 . S
C934 C933 1.396 . S
C934 C935 1.399 . S
C935 H921 0.929 . S
C935 C934 1.399 . S
C935 C936 1.385 . S
C936 H922 0.931 . S
C936 C935 1.385 . S
C936 C937 1.389 . S
C937 C936 1.389 . S
C937 C938 1.387 . S
C938 H923 0.930 1_565 S
C938 C933 1.390 . S
C938 C937 1.387 . S
H939 C951 0.930 . S
H940 C953 0.930 . S
H941 C954 0.930 . S
H942 C958 0.959 . S
H943 C958 0.959 . S
H944 C958 0.961 . S
H945 C959 0.960 . S
H946 C959 0.961 . S
H947 C959 0.959 . S
H948 C962 0.929 . S
H949 C963 0.931 . S
H950 C965 0.930 1_565 S
C951 H939 0.930 . S
C951 C952 1.399 . S
C951 C956 1.399 . S
C952 C951 1.399 . S
C952 C953 1.376 . S
C953 H940 0.930 . S
C953 C952 1.376 . S
C953 C954 1.388 . S
C954 H941 0.930 . S
C954 C953 1.388 . S
C954 C955 1.390 . S
C955 C954 1.390 . S
C955 C956 1.394 . S
C955 C961 1.465 . S
C956 C951 1.399 . S
C956 C955 1.394 . S
C956 C957 1.516 . S
C957 C956 1.516 . S
C957 C958 1.502 . S
C957 C959 1.561 . S
C957 C960 1.526 . S
C958 H942 0.959 . S
C958 H943 0.959 . S
C958 H944 0.961 . S
C958 C957 1.502 . S
C959 H945 0.960 . S
C959 H946 0.961 . S
C959 H947 0.959 . S
C959 C957 1.561 . S
C960 C957 1.526 . S
C960 C961 1.396 . S
C960 C965 1.390 . S
C961 C955 1.465 . S
C961 C960 1.396 . S
C961 C962 1.399 . S
C962 H948 0.929 . S
C962 C961 1.399 . S
C962 C963 1.385 . S
C963 H949 0.931 . S
C963 C962 1.385 . S
C963 C964 1.389 . S
C964 C963 1.389 . S
C964 C965 1.387 . S
C965 H950 0.930 1_545 S
C965 C960 1.390 . S
C965 C964 1.387 . S
H966 C978 0.930 . S
H967 C980 0.930 . S
H968 C981 0.930 . S
H969 C985 0.959 . S
H970 C985 0.959 . S
H971 C985 0.961 . S
H972 C986 0.960 . S
H973 C986 0.961 . S
H974 C986 0.959 . S
H975 C989 0.929 . S
H976 C990 0.931 . S
H977 C992 0.930 1_655 S
C978 H966 0.930 . S
C978 C979 1.399 . S
C978 C983 1.399 . S
C979 C978 1.399 . S
C979 C980 1.376 . S
C980 H967 0.930 . S
C980 C979 1.376 . S
C980 C981 1.388 . S
C981 H968 0.930 . S
C981 C980 1.388 . S
C981 C982 1.390 . S
C982 C981 1.390 . S
C982 C983 1.394 . S
C982 C988 1.465 . S
C983 C978 1.399 . S
C983 C982 1.394 . S
C983 C984 1.516 . S
C984 C983 1.516 . S
C984 C985 1.502 . S
C984 C986 1.561 . S
C984 C987 1.526 . S
C985 H969 0.959 . S
C985 H970 0.959 . S
C985 H971 0.961 . S
C985 C984 1.502 . S
C986 H972 0.960 . S
C986 H973 0.961 . S
C986 H974 0.959 . S
C986 C984 1.561 . S
C987 C984 1.526 . S
C987 C988 1.396 . S
C987 C992 1.390 . S
C988 C982 1.465 . S
C988 C987 1.396 . S
C988 C989 1.399 . S
C989 H975 0.929 . S
C989 C988 1.399 . S
C989 C990 1.385 . S
C990 H976 0.931 . S
C990 C989 1.385 . S
C990 C991 1.389 . S
C991 C990 1.389 . S
C991 C992 1.387 . S
C992 H977 0.930 1_455 S
C992 C987 1.390 . S
C992 C991 1.387 . S
H993 C1005 0.930 . S
H994 C1007 0.930 1_565 S
H995 C1008 0.930 . S
H996 C1012 0.959 . S
H997 C1012 0.959 1_455 S
H998 C1012 0.961 . S
H999 C1013 0.960 . S
H1000 C1013 0.961 . S
H1001 C1013 0.959 . S
H1002 C1016 0.929 . S
H1003 C1017 0.931 . S
H1004 C1019 0.930 1_455 S
C1005 H993 0.930 . S
C1005 C1006 1.399 . S
C1005 C1010 1.399 . S
C1006 C1005 1.399 . S
C1006 C1007 1.376 . S
C1007 H994 0.930 1_545 S
C1007 C1006 1.376 . S
C1007 C1008 1.388 . S
C1008 H995 0.930 . S
C1008 C1007 1.388 . S
C1008 C1009 1.390 . S
C1009 C1008 1.390 . S
C1009 C1010 1.394 . S
C1009 C1015 1.465 . S
C1010 C1005 1.399 . S
C1010 C1009 1.394 . S
C1010 C1011 1.516 . S
C1011 C1010 1.516 . S
C1011 C1012 1.502 . S
C1011 C1013 1.561 . S
C1011 C1014 1.526 . S
C1012 H996 0.959 . S
C1012 H997 0.959 1_655 S
C1012 H998 0.961 . S
C1012 C1011 1.502 . S
C1013 H999 0.960 . S
C1013 H1000 0.961 . S
C1013 H1001 0.959 . S
C1013 C1011 1.561 . S
C1014 C1011 1.526 . S
C1014 C1015 1.396 . S
C1014 C1019 1.390 . S
C1015 C1009 1.465 . S
C1015 C1014 1.396 . S
C1015 C1016 1.399 . S
C1016 H1002 0.929 . S
C1016 C1015 1.399 . S
C1016 C1017 1.385 . S
C1017 H1003 0.931 . S
C1017 C1016 1.385 . S
C1017 C1018 1.389 . S
C1018 C1017 1.389 . S
C1018 C1019 1.387 . S
C1019 H1004 0.930 1_655 S
C1019 C1014 1.390 . S
C1019 C1018 1.387 . S
H1020 C1032 0.930 . S
H1021 C1034 0.930 . S
H1022 C1035 0.930 . S
H1023 C1039 0.959 . S
H1024 C1039 0.959 . S
H1025 C1039 0.961 . S
H1026 C1040 0.960 . S
H1027 C1040 0.961 . S
H1028 C1040 0.959 . S
H1029 C1043 0.929 . S
H1030 C1044 0.931 . S
H1031 C1046 0.930 . S
C1032 H1020 0.930 . S
C1032 C1033 1.399 . S
C1032 C1037 1.399 . S
C1033 C1032 1.399 . S
C1033 C1034 1.376 1_565 S
C1034 H1021 0.930 . S
C1034 C1033 1.376 1_545 S
C1034 C1035 1.388 1_545 S
C1035 H1022 0.930 . S
C1035 C1034 1.388 1_565 S
C1035 C1036 1.390 . S
C1036 C1035 1.390 . S
C1036 C1037 1.394 . S
C1036 C1042 1.465 . S
C1037 C1032 1.399 . S
C1037 C1036 1.394 . S
C1037 C1038 1.516 . S
C1038 C1037 1.516 . S
C1038 C1039 1.502 . S
C1038 C1040 1.561 . S
C1038 C1041 1.526 . S
C1039 H1023 0.959 . S
C1039 H1024 0.959 . S
C1039 H1025 0.961 . S
C1039 C1038 1.502 . S
C1040 H1026 0.960 . S
C1040 H1027 0.961 . S
C1040 H1028 0.959 . S
C1040 C1038 1.561 . S
C1041 C1038 1.526 . S
C1041 C1042 1.396 . S
C1041 C1046 1.390 . S
C1042 C1036 1.465 . S
C1042 C1041 1.396 . S
C1042 C1043 1.399 . S
C1043 H1029 0.929 . S
C1043 C1042 1.399 . S
C1043 C1044 1.385 . S
C1044 H1030 0.931 . S
C1044 C1043 1.385 . S
C1044 C1045 1.389 . S
C1045 C1044 1.389 . S
C1045 C1046 1.387 . S
C1046 H1031 0.930 . S
C1046 C1041 1.390 . S
C1046 C1045 1.387 . S
H1047 C1059 0.930 . S
H1048 C1061 0.930 . S
H1049 C1062 0.930 . S
H1050 C1066 0.959 . S
H1051 C1066 0.959 . S
H1052 C1066 0.961 . S
H1053 C1067 0.960 . S
H1054 C1067 0.961 . S
H1055 C1067 0.959 . S
H1056 C1070 0.929 . S
H1057 C1071 0.931 . S
H1058 C1073 0.927 1_455 S
C1059 H1047 0.930 . S
C1059 C1060 1.399 . S
C1059 C1064 1.399 . S
C1060 C1059 1.399 . S
C1060 C1061 1.376 . S
C1061 H1048 0.930 . S
C1061 C1060 1.376 . S
C1061 C1062 1.388 . S
C1062 H1049 0.930 . S
C1062 C1061 1.388 . S
C1062 C1063 1.390 . S
C1063 C1062 1.390 . S
C1063 C1064 1.394 . S
C1063 C1069 1.465 . S
C1064 C1059 1.399 . S
C1064 C1063 1.394 . S
C1064 C1065 1.516 . S
C1065 C1064 1.516 . S
C1065 C1066 1.502 . S
C1065 C1067 1.561 . S
C1065 C1068 1.526 . S
C1066 H1050 0.959 . S
C1066 H1051 0.959 . S
C1066 H1052 0.961 . S
C1066 C1065 1.502 . S
C1067 H1053 0.960 . S
C1067 H1054 0.961 . S
C1067 H1055 0.959 . S
C1067 C1065 1.561 . S
C1068 C1065 1.526 . S
C1068 C1069 1.396 . S
C1068 C1073 1.390 . S
C1069 C1063 1.465 . S
C1069 C1068 1.396 . S
C1069 C1070 1.399 . S
C1070 H1056 0.929 . S
C1070 C1069 1.399 . S
C1070 C1071 1.385 . S
C1071 H1057 0.931 . S
C1071 C1070 1.385 . S
C1071 C1072 1.389 . S
C1072 C1071 1.389 . S
C1072 C1073 1.387 . S
C1073 H1058 0.927 1_655 S
C1073 C1068 1.390 . S
C1073 C1072 1.387 . S
H1074 C1086 0.930 . S
H1075 C1088 0.930 . S
H1076 C1089 0.930 . S
H1077 C1093 0.959 . S
H1078 C1093 0.959 . S
H1079 C1093 0.961 . S
H1080 C1094 0.960 . S
H1081 C1094 0.961 . S
H1082 C1094 0.959 . S
H1083 C1097 0.929 . S
H1084 C1098 0.931 . S
H1085 C1100 0.930 . S
C1086 H1074 0.930 . S
C1086 C1087 1.399 . S
C1086 C1091 1.399 . S
C1087 C1086 1.399 . S
C1087 C1088 1.376 . S
C1088 H1075 0.930 . S
C1088 C1087 1.376 . S
C1088 C1089 1.388 . S
C1089 H1076 0.930 . S
C1089 C1088 1.388 . S
C1089 C1090 1.390 . S
C1090 C1089 1.390 . S
C1090 C1091 1.394 . S
C1090 C1096 1.465 . S
C1091 C1086 1.399 . S
C1091 C1090 1.394 . S
C1091 C1092 1.516 . S
C1092 C1091 1.516 . S
C1092 C1093 1.502 . S
C1092 C1094 1.561 . S
C1092 C1095 1.526 . S
C1093 H1077 0.959 . S
C1093 H1078 0.959 . S
C1093 H1079 0.961 . S
C1093 C1092 1.502 . S
C1094 H1080 0.960 . S
C1094 H1081 0.961 . S
C1094 H1082 0.959 . S
C1094 C1092 1.561 . S
C1095 C1092 1.526 . S
C1095 C1096 1.396 . S
C1095 C1100 1.390 . S
C1096 C1090 1.465 . S
C1096 C1095 1.396 . S
C1096 C1097 1.399 . S
C1097 H1083 0.929 . S
C1097 C1096 1.399 . S
C1097 C1098 1.385 . S
C1098 H1084 0.931 . S
C1098 C1097 1.385 . S
C1098 C1099 1.389 . S
C1099 C1098 1.389 . S
C1099 C1100 1.387 . S
C1100 H1085 0.930 . S
C1100 C1095 1.390 . S
C1100 C1099 1.387 . S
H1101 C1113 0.930 . S
H1102 C1115 0.930 . S
H1103 C1116 0.930 . S
H1104 C1120 0.959 . S
H1105 C1120 0.959 . S
H1106 C1120 0.961 . S
H1107 C1121 0.960 . S
H1108 C1121 0.961 . S
H1109 C1121 0.959 . S
H1110 C1124 0.929 . S
H1111 C1125 0.931 . S
H1112 C1127 0.930 . S
C1113 H1101 0.930 . S
C1113 C1114 1.399 . S
C1113 C1118 1.399 . S
C1114 C1113 1.399 . S
C1114 C1115 1.376 . S
C1115 H1102 0.930 . S
C1115 C1114 1.376 . S
C1115 C1116 1.388 . S
C1116 H1103 0.930 . S
C1116 C1115 1.388 . S
C1116 C1117 1.390 . S
C1117 C1116 1.390 . S
C1117 C1118 1.394 . S
C1117 C1123 1.465 . S
C1118 C1113 1.399 . S
C1118 C1117 1.394 . S
C1118 C1119 1.516 . S
C1119 C1118 1.516 . S
C1119 C1120 1.502 . S
C1119 C1121 1.561 . S
C1119 C1122 1.526 . S
C1120 H1104 0.959 . S
C1120 H1105 0.959 . S
C1120 H1106 0.961 . S
C1120 C1119 1.502 . S
C1121 H1107 0.960 . S
C1121 H1108 0.961 . S
C1121 H1109 0.959 . S
C1121 C1119 1.561 . S
C1122 C1119 1.526 . S
C1122 C1123 1.396 . S
C1122 C1127 1.390 . S
C1123 C1117 1.465 . S
C1123 C1122 1.396 . S
C1123 C1124 1.399 . S
C1124 H1110 0.929 . S
C1124 C1123 1.399 . S
C1124 C1125 1.385 . S
C1125 H1111 0.931 . S
C1125 C1124 1.385 . S
C1125 C1126 1.389 . S
C1126 C1125 1.389 . S
C1126 C1127 1.387 . S
C1127 H1112 0.930 . S
C1127 C1122 1.390 . S
C1127 C1126 1.387 . S
H1128 C1140 0.930 . S
H1129 C1142 0.930 . S
H1130 C1143 0.930 . S
H1131 C1147 0.959 . S
H1132 C1147 0.959 . S
H1133 C1147 0.961 . S
H1134 C1148 0.960 . S
H1135 C1148 0.961 . S
H1136 C1148 0.959 . S
H1137 C1151 0.929 . S
H1138 C1152 0.931 . S
H1139 C1154 0.930 . S
C1140 H1128 0.930 . S
C1140 C1141 1.399 . S
C1140 C1145 1.399 . S
C1141 C1140 1.399 . S
C1141 C1142 1.376 . S
C1142 H1129 0.930 . S
C1142 C1141 1.376 . S
C1142 C1143 1.388 . S
C1143 H1130 0.930 . S
C1143 C1142 1.388 . S
C1143 C1144 1.390 . S
C1144 C1143 1.390 . S
C1144 C1145 1.394 . S
C1144 C1150 1.465 . S
C1145 C1140 1.399 . S
C1145 C1144 1.394 . S
C1145 C1146 1.516 . S
C1146 C1145 1.516 . S
C1146 C1147 1.502 . S
C1146 C1148 1.561 . S
C1146 C1149 1.526 . S
C1147 H1131 0.959 . S
C1147 H1132 0.959 . S
C1147 H1133 0.961 . S
C1147 C1146 1.502 . S
C1148 H1134 0.960 . S
C1148 H1135 0.961 . S
C1148 H1136 0.959 . S
C1148 C1146 1.561 . S
C1149 C1146 1.526 . S
C1149 C1150 1.396 . S
C1149 C1154 1.390 . S
C1150 C1144 1.465 . S
C1150 C1149 1.396 . S
C1150 C1151 1.399 . S
C1151 H1137 0.929 . S
C1151 C1150 1.399 . S
C1151 C1152 1.385 . S
C1152 H1138 0.931 . S
C1152 C1151 1.385 . S
C1152 C1153 1.389 . S
C1153 C1152 1.389 . S
C1153 C1154 1.387 . S
C1154 H1139 0.930 . S
C1154 C1149 1.390 . S
C1154 C1153 1.387 . S
H1155 C1167 0.930 . S
H1156 C1169 0.930 . S
H1157 C1170 0.930 . S
H1158 C1174 0.959 . S
H1159 C1174 0.959 . S
H1160 C1174 0.961 . S
H1161 C1175 0.960 . S
H1162 C1175 0.961 . S
H1163 C1175 0.959 . S
H1164 C1178 0.929 . S
H1165 C1179 0.931 . S
H1166 C1181 0.930 . S
C1167 H1155 0.930 . S
C1167 C1168 1.399 . S
C1167 C1172 1.399 . S
C1168 C1167 1.399 . S
C1168 C1169 1.376 . S
C1169 H1156 0.930 . S
C1169 C1168 1.376 . S
C1169 C1170 1.388 . S
C1170 H1157 0.930 . S
C1170 C1169 1.388 . S
C1170 C1171 1.390 . S
C1171 C1170 1.390 . S
C1171 C1172 1.394 . S
C1171 C1177 1.465 . S
C1172 C1167 1.399 . S
C1172 C1171 1.394 . S
C1172 C1173 1.516 . S
C1173 C1172 1.516 . S
C1173 C1174 1.502 . S
C1173 C1175 1.561 . S
C1173 C1176 1.526 . S
C1174 H1158 0.959 . S
C1174 H1159 0.959 . S
C1174 H1160 0.961 . S
C1174 C1173 1.502 . S
C1175 H1161 0.960 . S
C1175 H1162 0.961 . S
C1175 H1163 0.959 . S
C1175 C1173 1.561 . S
C1176 C1173 1.526 . S
C1176 C1177 1.396 . S
C1176 C1181 1.390 . S
C1177 C1171 1.465 . S
C1177 C1176 1.396 . S
C1177 C1178 1.399 . S
C1178 H1164 0.929 . S
C1178 C1177 1.399 . S
C1178 C1179 1.385 . S
C1179 H1165 0.931 . S
C1179 C1178 1.385 . S
C1179 C1180 1.389 . S
C1180 C1179 1.389 . S
C1180 C1181 1.387 . S
C1181 H1166 0.930 . S
C1181 C1176 1.390 . S
C1181 C1180 1.387 . S
H1182 C1194 0.930 . S
H1183 C1196 0.930 . S
H1184 C1197 0.930 . S
H1185 C1201 0.959 . S
H1186 C1201 0.959 . S
H1187 C1201 0.961 . S
H1188 C1202 0.960 . S
H1189 C1202 0.961 . S
H1190 C1202 0.959 . S
H1191 C1205 0.929 . S
H1192 C1206 0.931 . S
H1193 C1208 0.930 . S
C1194 H1182 0.930 . S
C1194 C1195 1.399 . S
C1194 C1199 1.399 . S
C1195 C1194 1.399 . S
C1195 C1196 1.376 . S
C1196 H1183 0.930 . S
C1196 C1195 1.376 . S
C1196 C1197 1.388 . S
C1197 H1184 0.930 . S
C1197 C1196 1.388 . S
C1197 C1198 1.390 . S
C1198 C1197 1.390 . S
C1198 C1199 1.394 . S
C1198 C1204 1.465 . S
C1199 C1194 1.399 . S
C1199 C1198 1.394 . S
C1199 C1200 1.516 . S
C1200 C1199 1.516 . S
C1200 C1201 1.502 . S
C1200 C1202 1.561 . S
C1200 C1203 1.526 . S
C1201 H1185 0.959 . S
C1201 H1186 0.959 . S
C1201 H1187 0.961 . S
C1201 C1200 1.502 . S
C1202 H1188 0.960 . S
C1202 H1189 0.961 . S
C1202 H1190 0.959 . S
C1202 C1200 1.561 . S
C1203 C1200 1.526 . S
C1203 C1204 1.396 . S
C1203 C1208 1.390 . S
C1204 C1198 1.465 . S
C1204 C1203 1.396 . S
C1204 C1205 1.399 . S
C1205 H1191 0.929 . S
C1205 C1204 1.399 . S
C1205 C1206 1.385 . S
C1206 H1192 0.931 . S
C1206 C1205 1.385 . S
C1206 C1207 1.389 . S
C1207 C1206 1.389 . S
C1207 C1208 1.387 . S
C1208 H1193 0.930 . S
C1208 C1203 1.390 . S
C1208 C1207 1.387 . S
H1209 C1221 0.930 . S
H1210 C1223 0.930 . S
H1211 C1224 0.930 . S
H1212 C1228 0.959 . S
H1213 C1228 0.959 . S
H1214 C1228 0.961 . S
H1215 C1229 0.960 . S
H1216 C1229 0.961 . S
H1217 C1229 0.959 . S
H1218 C1232 0.929 . S
H1219 C1233 0.931 . S
H1220 C1235 0.930 . S
C1221 H1209 0.930 . S
C1221 C1222 1.399 . S
C1221 C1226 1.399 . S
C1222 C1221 1.399 . S
C1222 C1223 1.376 . S
C1223 H1210 0.930 . S
C1223 C1222 1.376 . S
C1223 C1224 1.388 . S
C1224 H1211 0.930 . S
C1224 C1223 1.388 . S
C1224 C1225 1.390 . S
C1225 C1224 1.390 . S
C1225 C1226 1.394 . S
C1225 C1231 1.465 . S
C1226 C1221 1.399 . S
C1226 C1225 1.394 . S
C1226 C1227 1.516 . S
C1227 C1226 1.516 . S
C1227 C1228 1.502 . S
C1227 C1229 1.561 . S
C1227 C1230 1.526 . S
C1228 H1212 0.959 . S
C1228 H1213 0.959 . S
C1228 H1214 0.961 . S
C1228 C1227 1.502 . S
C1229 H1215 0.960 . S
C1229 H1216 0.961 . S
C1229 H1217 0.959 . S
C1229 C1227 1.561 . S
C1230 C1227 1.526 . S
C1230 C1231 1.396 . S
C1230 C1235 1.390 . S
C1231 C1225 1.465 . S
C1231 C1230 1.396 . S
C1231 C1232 1.399 . S
C1232 H1218 0.929 . S
C1232 C1231 1.399 . S
C1232 C1233 1.385 . S
C1233 H1219 0.931 . S
C1233 C1232 1.385 . S
C1233 C1234 1.389 . S
C1234 C1233 1.389 . S
C1234 C1235 1.387 . S
C1235 H1220 0.930 . S
C1235 C1230 1.390 . S
C1235 C1234 1.387 . S
C277 C117 1.070 . S
C289 C18 1.059 . S
C304 C32 1.070 . S
C316 C15 1.035 . S
C331 C54 1.069 . S
C343 C43 1.034 . S
C358 C65 1.027 . S
C370 C84 1.043 . S
C385 C81 1.038 . S
C397 C106 1.022 . S
C412 C118 1.043 . S
C424 C103 1.073 . S
C439 C169 1.071 . S
C451 C150 1.058 . S
C466 C172 1.025 . S
C478 C191 1.068 . S
C493 C205 1.037 . S
C505 C194 1.072 . S
C520 C227 1.033 . S
C532 C206 1.068 . S
C547 C263 1.070 . S
C559 C228 1.029 . S
C574 C147 1.073 . S
C586 C252 1.038 . S
C601 C257 1.313 . S
C613 C8 1.366 . S
C628 C40 1.331 . S
C640 C139 1.333 . S
C655 C161 1.367 . S
C667 C62 1.309 . S
C682 C183 1.368 . S
C694 C74 1.313 . S
C709 C219 1.329 . S
C721 C96 1.360 . S
C736 C120 1.326 . S
C748 C241 1.338 . S
C763 C140 1.367 . S
C775 C37 1.317 . S
C790 C162 1.313 . S
C802 C59 1.353 . S
C817 C73 1.315 . S
C829 C184 1.354 . S
C844 C95 1.316 . S
C856 C208 1.367 . S
C871 C230 1.327 . S
C883 C131 1.337 . S
C898 C260 1.342 . S
C910 C7 1.324 . S
C925 C142 1.058 1_455 S
C937 C10 1.105 1_565 S
C952 C30 1.052 . S
C964 C164 1.104 1_545 S
C979 C186 1.098 . S
C991 C52 1.077 1_455 S
C1006 C76 1.062 1_545 S
C1018 C216 1.104 1_655 S
C1033 C238 1.053 1_565 S
C1045 C98 1.076 . S
C1060 C250 1.101 . S
C1072 C128 1.072 1_655 S
C1087 C153 0.903 . S
C1099 C21 0.940 . S
C1114 C175 0.940 . S
C1126 C29 0.905 . S
C1141 C197 0.942 . S
C1153 C51 0.902 . S
C1168 C87 0.948 . S
C1180 C213 0.892 . S
C1195 C235 0.895 . S
C1207 C109 0.936 . S
C1222 C249 0.899 . S
C1234 C125 0.944 . S
