# Generated by pormake.
# Topology tfs, (6)-cn, num edge types: 1
# Building blocks:
#     Node 0, Type 0, BuildingBlock: GEDQOX_clean_sbu_0, # of connection points: 6
#     Node 1, Type 0, BuildingBlock: GEDQOX_clean_sbu_0, # of connection points: 6
#     Node 2, Type 0, BuildingBlock: GEDQOX_clean_sbu_0, # of connection points: 6
#     Node 3, Type 0, BuildingBlock: GEDQOX_clean_sbu_0, # of connection points: 6
#     Node 4, Type 0, BuildingBlock: GEDQOX_clean_sbu_0, # of connection points: 6
#     Node 5, Type 0, BuildingBlock: GEDQOX_clean_sbu_0, # of connection points: 6
#     Edge 6, Type (0, 0), BuildingBlock: OJICUG_clean_linker_0, # of connection points: 2
#     Edge 7, Type (0, 0), BuildingBlock: OJICUG_clean_linker_0, # of connection points: 2
#     Edge 8, Type (0, 0), BuildingBlock: OJICUG_clean_linker_0, # of connection points: 2
#     Edge 9, Type (0, 0), BuildingBlock: OJICUG_clean_linker_0, # of connection points: 2
#     Edge 10, Type (0, 0), BuildingBlock: OJICUG_clean_linker_0, # of connection points: 2
#     Edge 11, Type (0, 0), BuildingBlock: OJICUG_clean_linker_0, # of connection points: 2
#     Edge 12, Type (0, 0), BuildingBlock: OJICUG_clean_linker_0, # of connection points: 2
#     Edge 13, Type (0, 0), BuildingBlock: OJICUG_clean_linker_0, # of connection points: 2
#     Edge 14, Type (0, 0), BuildingBlock: OJICUG_clean_linker_0, # of connection points: 2
#     Edge 15, Type (0, 0), BuildingBlock: OJICUG_clean_linker_0, # of connection points: 2
#     Edge 16, Type (0, 0), BuildingBlock: OJICUG_clean_linker_0, # of connection points: 2
#     Edge 17, Type (0, 0), BuildingBlock: OJICUG_clean_linker_0, # of connection points: 2
#     Edge 18, Type (0, 0), BuildingBlock: OJICUG_clean_linker_0, # of connection points: 2
#     Edge 19, Type (0, 0), BuildingBlock: OJICUG_clean_linker_0, # of connection points: 2
#     Edge 20, Type (0, 0), BuildingBlock: OJICUG_clean_linker_0, # of connection points: 2
#     Edge 21, Type (0, 0), BuildingBlock: OJICUG_clean_linker_0, # of connection points: 2
#     Edge 22, Type (0, 0), BuildingBlock: OJICUG_clean_linker_0, # of connection points: 2
#     Edge 23, Type (0, 0), BuildingBlock: OJICUG_clean_linker_0, # of connection points: 2
# Relax obj value: 0.639
# Max RMSD: 0.456
# Mean RMSD: 0.366
data_MOF--net-tfs--node1-GEDQOX_clean_sbu_0--edge1-OJICUG_clean_linker_0
_symmetry_space_group_name_H-M    P1
_symmetry_Int_Tables_number       1
_symmetry_cell_setting            triclinic
loop_
_symmetry_equiv_pos_as_xyz
'x, y, z'
_cell_length_a     37.007155
_cell_length_b     41.113089
_cell_length_c     9.9878084
_cell_angle_alpha  97.126223
_cell_angle_beta   86.679475
_cell_angle_gamma 110.43609
loop_
_atom_site_label
_atom_site_type_symbol
_atom_site_fract_x
_atom_site_fract_y
_atom_site_fract_z
_atom_type_partial_charge
Nd0 Nd 0.30012 0.45398 0.85327 0.0
Nd1 Nd 0.38569 0.49709 0.78835 0.0
C2 C 0.23243 0.41598 0.94614 0.0
C3 C 0.21449 0.39904 0.06683 0.0
C4 C 0.21093 0.41882 0.18901 0.0
C5 C 0.18908 0.40245 0.29606 0.0
C6 C 0.1703 0.36607 0.28258 0.0
C7 C 0.17581 0.34619 0.16328 0.0
C8 C 0.19761 0.36256 0.0563 0.0
C9 C 0.31846 0.45572 0.58377 0.0
C10 C 0.36875 0.42753 0.93698 0.0
C11 C 0.45589 0.5283 0.69836 0.0
C12 C 0.49166 0.53554 0.77251 0.0
C13 C 0.51606 0.57024 0.80003 0.0
C14 C 0.53916 0.58037 0.91404 0.0
C15 C 0.53826 0.55581 0.00236 0.0
C16 C 0.51892 0.5202 0.96099 0.0
C17 C 0.49546 0.51015 0.84769 0.0
C18 C 0.36795 0.50006 0.05917 0.0
C19 C 0.31993 0.53379 0.79408 0.0
O20 O 0.24487 0.45017 0.9573 0.0
O21 O 0.25498 0.40235 0.87134 0.0
O22 O 0.2849 0.45375 0.63412 0.0
O23 O 0.33991 0.45329 0.67282 0.0
O24 O 0.33294 0.42657 0.95746 0.0
O25 O 0.39316 0.44874 0.85749 0.0
O26 O 0.43393 0.54555 0.75316 0.0
O27 O 0.4363 0.49541 0.66044 0.0
O28 O 0.40239 0.5042 0.01136 0.0
O29 O 0.34587 0.49873 0.96565 0.0
O30 O 0.35349 0.53339 0.7412 0.0
O31 O 0.29648 0.50806 0.85815 0.0
H32 H 0.22364 0.44704 0.20037 0.0
H33 H 0.18555 0.41836 0.38733 0.0
H34 H 0.16126 0.31816 0.14907 0.0
H35 H 0.19977 0.34676 0.96298 0.0
H36 H 0.51363 0.59025 0.74384 0.0
H37 H 0.5537 0.60806 0.94084 0.0
H38 H 0.51865 0.5004 0.02359 0.0
H39 H 0.47737 0.48298 0.82795 0.0
Nd40 Nd 0.85667 0.2369 0.76715 0.0
Nd41 Nd 0.77573 0.23684 0.85873 0.0
C42 C 0.9189 0.22751 0.65212 0.0
C43 C 0.9593 0.24815 0.6286 0.0
C44 C 0.98136 0.23411 0.53665 0.0
C45 C 1.01932 0.25409 0.50686 0.0
C46 C 1.03583 0.28849 0.56894 0.0
C47 C 1.01384 0.30206 0.66462 0.0
C48 C 0.97576 0.28203 0.69397 0.0
C49 C 0.84047 0.23647 0.03667 0.0
C50 C 0.78279 0.16306 0.75782 0.0
C51 C 0.71447 0.24476 -0.01617 0.0
C52 C 0.69181 0.26555 0.95279 0.0
C53 C 0.65164 0.25208 0.96733 0.0
C54 C 0.62877 0.26527 0.89973 0.0
C55 C 0.64593 0.29201 0.8167 0.0
C56 C 0.68626 0.30734 0.81147 0.0
C57 C 0.70907 0.29409 0.87867 0.0
C58 C 0.79093 0.23952 0.58904 0.0
C59 C 0.84809 0.31321 0.84298 0.0
O60 O 0.90865 0.22263 0.77757 0.0
O61 O 0.89357 0.23464 0.58604 0.0
O62 O 0.87368 0.25532 -0.0102 0.0
O63 O 0.81841 0.21872 0.94385 0.0
O64 O 0.81458 0.18101 0.69415 0.0
O65 O 0.76685 0.17899 0.85325 0.0
O66 O 0.74954 0.26201 0.02723 0.0
O67 O 0.71277 0.21911 0.88998 0.0
O68 O 0.75667 0.22346 0.63573 0.0
O69 O 0.81362 0.25509 0.68256 0.0
O70 O 0.81357 0.296 0.89371 0.0
O71 O 0.86988 0.29632 0.77887 0.0
H72 H 0.96891 0.20797 0.48534 0.0
H73 H 1.03512 0.24307 0.43078 0.0
H74 H 1.02583 0.32836 0.71476 0.0
H75 H 0.95895 0.29315 0.76564 0.0
H76 H 0.63794 0.22974 0.0227 0.0
H77 H 0.59768 0.25351 0.90729 0.0
H78 H 0.70021 0.32789 0.74792 0.0
H79 H 0.74008 0.30437 0.86404 0.0
Nd80 Nd 0.56848 0.85674 0.54848 0.0
Nd81 Nd 0.52885 0.7765 0.58411 0.0
C82 C 0.60574 0.91937 0.47013 0.0
C83 C 0.63901 0.95136 0.50736 0.0
C84 C 0.65351 0.97615 0.41517 0.0
C85 C 0.68112 1.00887 0.45485 0.0
C86 C 0.69465 0.01756 0.58807 0.0
C87 C 0.68127 0.99195 0.6784 0.0
C88 C 0.65376 0.9592 0.63845 0.0
C89 C 0.56159 0.84038 0.80596 0.0
C90 C 0.62178 0.80384 0.53359 0.0
C91 C 0.49641 0.7134 0.65913 0.0
C92 C 0.50832 0.68253 0.63482 0.0
C93 C 0.48098 0.65026 0.58931 0.0
C94 C 0.49286 0.6234 0.5258 0.0
C95 C 0.53243 0.62833 0.50699 0.0
C96 C 0.55954 0.65931 0.56747 0.0
C97 C 0.54761 0.68632 0.62983 0.0
C98 C 0.54048 0.79392 0.32755 0.0
C99 C 0.47359 0.82386 0.57636 0.0
O100 O 0.61261 0.89122 0.41733 0.0
O101 O 0.57675 0.91272 0.55626 0.0
O102 O 0.56023 0.86981 0.77685 0.0
O103 O 0.5694 0.82301 0.70428 0.0
O104 O 0.6201 0.83485 0.51308 0.0
O105 O 0.59103 0.7783 0.57024 0.0
O106 O 0.48668 0.72286 0.5501 0.0
O107 O 0.51785 0.73991 0.7398 0.0
O108 O 0.54313 0.76506 0.35883 0.0
O109 O 0.52975 0.81029 0.42612 0.0
O110 O 0.4786 0.79783 0.63025 0.0
O111 O 0.50317 0.84769 0.52153 0.0
H112 H 0.64233 0.97072 0.3138 0.0
H113 H 0.69042 0.02796 0.38292 0.0
H114 H 0.69144 0.99752 0.78113 0.0
H115 H 0.643 0.94045 0.71134 0.0
H116 H 0.45057 0.64685 0.59197 0.0
H117 H 0.47093 0.60013 0.48051 0.0
H118 H 0.59014 0.66374 0.55787 0.0
H119 H 0.56932 0.71101 0.66484 0.0
Nd120 Nd 0.88783 0.69403 0.64772 0.0
Nd121 Nd 0.91339 0.62865 0.68283 0.0
C122 C 0.86738 0.74546 0.57549 0.0
C123 C 0.8316 0.75362 0.56154 0.0
C124 C 0.83287 0.78196 0.49341 0.0
C125 C 0.79967 0.79078 0.48336 0.0
C126 C 0.76414 0.77144 0.54113 0.0
C127 C 0.76315 0.74295 0.60929 0.0
C128 C 0.79632 0.73416 0.61911 0.0
C129 C 0.89394 0.68064 0.90471 0.0
C130 C 0.98183 0.7037 0.65183 0.0
C131 C 0.9247 0.57416 0.7686 0.0
C132 C 0.90951 0.53551 0.77524 0.0
C133 C 0.89139 0.52173 0.89383 0.0
C134 C 0.88107 0.48595 0.90707 0.0
C135 C 0.88885 0.46281 0.80252 0.0
C136 C 0.90642 0.47658 0.68302 0.0
C137 C 0.91668 0.51233 0.66973 0.0
C138 C 0.90528 0.64 0.42463 0.0
C139 C 0.82004 0.61855 0.67922 0.0
O140 O 0.87312 0.72096 0.48901 0.0
O141 O 0.877 0.74404 0.69817 0.0
O142 O 0.86765 0.69211 0.87009 0.0
O143 O 0.91645 0.67843 0.80797 0.0
O144 O 0.95532 0.71538 0.61004 0.0
O145 O 0.97178 0.67342 0.70325 0.0
O146 O 0.90767 0.59354 0.84184 0.0
O147 O 0.93772 0.58585 0.65256 0.0
O148 O 0.93035 0.6268 0.45697 0.0
O149 O 0.88413 0.64376 0.52372 0.0
O150 O 0.847 0.60654 0.71114 0.0
O151 O 0.82866 0.64992 0.63854 0.0
H152 H 0.85969 0.79744 0.44812 0.0
H153 H 0.80183 0.81255 0.42868 0.0
H154 H 0.73678 0.72763 0.65739 0.0
H155 H 0.79448 0.7123 0.67288 0.0
H156 H 0.88604 0.53879 -0.02173 0.0
H157 H 0.86804 0.47665 0.0013 0.0
H158 H 0.9124 0.45971 0.59922 0.0
H159 H 0.93095 0.52189 0.57738 0.0
Nd160 Nd 0.23645 0.83558 0.56693 0.0
Nd161 Nd 0.22403 0.757 0.45991 0.0
C162 C 0.24217 0.89939 0.67555 0.0
C163 C 0.26536 0.93521 0.64631 0.0
C164 C 0.2556 0.96365 0.70766 0.0
C165 C 0.27535 0.9974 0.67249 0.0
C166 C 0.30529 1.00344 0.57462 0.0
C167 C 0.31539 0.97479 0.51514 0.0
C168 C 0.29559 0.94105 0.55047 0.0
C169 C 0.23391 0.81888 0.29495 0.0
C170 C 0.14795 0.77335 0.57427 0.0
C171 C 0.22004 0.6996 0.30117 0.0
C172 C 0.24208 0.68534 0.19699 0.0
C173 C 0.27576 0.67958 0.2277 0.0
C174 C 0.29293 0.66162 0.13135 0.0
C175 C 0.27666 0.64905 0.00298 0.0
C176 C 0.2445 0.65695 -0.03013 0.0
C177 C 0.22735 0.67484 0.06606 0.0
C178 C 0.22641 0.77268 0.73169 0.0
C179 C 0.31368 0.81343 0.50153 0.0
O180 O 0.2169 0.88111 0.58427 0.0
O181 O 0.26054 0.88108 0.72131 0.0
O182 O 0.25746 0.84814 0.35134 0.0
O183 O 0.21284 0.80083 0.38033 0.0
O184 O 0.17131 0.80489 0.6254 0.0
O185 O 0.16109 0.7515 0.49591 0.0
O186 O 0.20771 0.72354 0.26696 0.0
O187 O 0.23127 0.70526 0.4268 0.0
O188 O 0.20508 0.74219 0.67489 0.0
O189 O 0.24682 0.79155 0.6471 0.0
O190 O 0.29044 0.78365 0.43892 0.0
O191 O 0.3 0.83713 0.56575 0.0
H192 H 0.2321 0.95965 0.78086 0.0
H193 H 0.26634 0.01859 0.71919 0.0
H194 H 0.33856 0.97839 0.44086 0.0
H195 H 0.30349 0.91941 0.50138 0.0
H196 H 0.28793 0.68757 0.32758 0.0
H197 H 0.31743 0.65561 0.16052 0.0
H198 H 0.23154 0.64786 0.87148 0.0
H199 H 0.20152 0.67919 0.03969 0.0
Nd200 Nd 0.46013 0.31051 0.38909 0.0
Nd201 Nd 0.50522 0.38988 0.48618 0.0
C202 C 0.41828 0.24706 0.28219 0.0
C203 C 0.40519 0.21124 0.32183 0.0
C204 C 0.37846 0.18395 0.24226 0.0
C205 C 0.36403 0.15022 0.28234 0.0
C206 C 0.37598 0.14302 0.40338 0.0
C207 C 0.40323 0.17051 0.48211 0.0
C208 C 0.41767 0.20426 0.44174 0.0
C209 C 0.45963 0.32828 0.66287 0.0
C210 C 0.4257 0.3711 0.34046 0.0
C211 C 0.54401 0.45093 0.62216 0.0
C212 C 0.5842 0.47532 0.63429 0.0
C213 C 0.61543 0.46362 0.60425 0.0
C214 C 0.65338 0.48716 0.61531 0.0
C215 C 0.66094 0.52295 0.65644 0.0
C216 C 0.62941 0.53448 0.68594 0.0
C217 C 0.5915 0.51091 0.67462 0.0
C218 C 0.51018 0.37281 0.21298 0.0
C219 C 0.54616 0.33064 0.49999 0.0
O220 O 0.4035 0.2686 0.35248 0.0
O221 O 0.45523 0.26164 0.25643 0.0
O222 O 0.45831 0.29792 0.60569 0.0
O223 O 0.457 0.34732 0.57593 0.0
O224 O 0.42973 0.34123 0.29192 0.0
O225 O 0.44563 0.39084 0.44476 0.0
O226 O 0.53611 0.42089 0.66938 0.0
O227 O 0.5274 0.44795 0.50723 0.0
O228 O 0.51476 0.4041 0.26902 0.0
O229 O 0.50917 0.35313 0.30215 0.0
O230 O 0.54644 0.36278 0.53439 0.0
O231 O 0.51841 0.30649 0.42837 0.0
H232 H 0.36823 0.18884 0.1499 0.0
H233 H 0.34273 0.12998 0.21995 0.0
H234 H 0.41352 0.16596 0.57489 0.0
H235 H 0.43829 0.22499 0.5048 0.0
H236 H 0.61048 0.43631 0.57146 0.0
H237 H 0.6768 0.47735 0.58943 0.0
H238 H 0.63398 0.56169 0.71918 0.0
H239 H 0.56785 0.52055 0.69719 0.0
C240 C 0.43095 0.41883 0.20458 0.0
C241 C 0.40843 0.38681 0.24954 0.0
H242 H 0.43741 0.45531 0.06219 0.0
C243 C 0.37353 0.36709 0.18555 0.0
H244 H 0.45849 0.43407 0.24999 0.0
C245 C 0.36086 0.37975 0.08035 0.0
C246 C 0.384 0.41133 0.03288 0.0
H247 H 0.35625 0.34187 0.21653 0.0
H248 H 0.33316 0.36483 0.03551 0.0
C249 C 0.41936 0.43052 0.0949 0.0
C250 C 0.13659 0.31617 0.41753 0.0
C251 C 0.14063 0.34932 0.38244 0.0
H252 H 0.10055 0.27115 0.50831 0.0
C253 C 0.11269 0.36428 0.42778 0.0
H254 H 0.15802 0.30427 0.38553 0.0
C255 C 0.07975 0.3453 0.49685 0.0
C256 C 0.07415 0.31102 0.5224 0.0
H257 H 0.11477 0.38963 0.40106 0.0
H258 H 0.05746 0.35662 0.52129 0.0
C259 C 0.10368 0.29722 0.4873 0.0
C260 C 0.77164 0.10848 0.59496 0.0
C261 C 0.76323 0.12501 0.71862 0.0
H262 H 0.75679 0.06159 0.4566 0.0
C263 C 0.73378 0.10529 0.80171 0.0
H264 H 0.79403 0.12291 0.52829 0.0
C265 C 0.71258 0.07028 0.76097 0.0
C266 C 0.71998 0.05395 0.63542 0.0
H267 H 0.7265 0.11709 0.8977 0.0
H268 H 0.68934 0.05639 0.82607 0.0
C269 C 0.7501 0.07339 0.55348 0.0
C270 C 0.72951 0.81542 0.53446 0.0
C271 C 0.72823 0.78049 0.53009 0.0
H272 H 0.69745 0.85048 0.53825 0.0
C273 C 0.69185 0.75393 0.51713 0.0
H274 H 0.7568 0.83677 0.54502 0.0
C275 C 0.65804 0.76184 0.51391 0.0
C276 C 0.65905 0.79666 0.52277 0.0
H277 H 0.68929 0.72671 0.50946 0.0
H278 H 0.63081 0.74032 0.50571 0.0
C279 C 0.6954 0.82339 0.53062 0.0
C280 C 0.09098 0.72543 0.65167 0.0
C281 C 0.10597 0.75928 0.61196 0.0
H282 H 0.0415 0.6821 0.69605 0.0
C283 C 0.0797 0.77599 0.59063 0.0
H284 H 0.11023 0.71161 0.66793 0.0
C285 C 1.03934 0.75854 0.6044 0.0
C286 C 1.02445 0.72417 0.64144 0.0
H287 H 0.09019 0.80182 0.55751 0.0
H288 H 1.01987 0.77173 0.58396 0.0
C289 C 0.05121 0.70837 0.6672 0.0
C290 C 0.33314 0.06918 0.6262 0.0
C291 C 0.32494 0.03919 0.53186 0.0
H292 H 0.35524 0.12507 0.66039 0.0
C293 C 0.33476 0.04373 0.3954 0.0
H294 H 0.32645 0.0668 0.73231 0.0
C295 C 0.35171 0.07722 0.35426 0.0
C296 C 0.35939 0.10722 0.44826 0.0
H297 H 0.32858 0.0214 0.31939 0.0
H298 H 0.35882 0.07955 0.24836 0.0
C299 C 0.35014 0.10268 0.58505 0.0
C300 C 0.26112 0.5917 0.86171 0.0
C301 C 0.28912 0.6231 0.91413 0.0
H302 H 0.24935 0.53855 0.77956 0.0
C303 C 0.32833 0.62676 0.89859 0.0
H304 H 0.23067 0.5879 0.87279 0.0
C305 C 0.33904 0.59839 0.84323 0.0
C306 C 0.3106 0.56596 0.80497 0.0
H307 H 0.35051 0.6508 0.9369 0.0
H308 H 0.36919 0.60093 0.84244 0.0
C309 C 0.27177 0.56335 0.8084 0.0
C310 C 0.56909 0.28526 0.5712 0.0
C311 C 0.57523 0.32059 0.56208 0.0
H312 H 0.58668 0.2486 0.66024 0.0
C313 C 0.6062 0.34643 0.63128 0.0
H314 H 0.54535 0.26476 0.51983 0.0
C315 C 0.62941 0.33718 0.7132 0.0
C316 C 0.62207 0.30195 0.72751 0.0
H317 H 0.61168 0.37392 0.62641 0.0
H318 H 0.65232 0.35764 0.76866 0.0
C319 C 0.59229 0.27604 0.6535 0.0
C320 C 0.52146 0.56955 0.37564 0.0
C321 C 0.5446 0.60486 0.40247 0.0
H322 H 0.50107 0.52593 0.22667 0.0
C323 C 0.57418 0.61936 0.30927 0.0
H324 H 0.49943 0.55703 0.44731 0.0
C325 C 0.57617 0.60098 0.1833 0.0
C326 C 0.54809 0.56814 0.14703 0.0
H327 H 0.59315 0.64629 0.32642 0.0
H328 H 0.59708 0.61408 0.10953 0.0
C329 C 0.52288 0.55143 0.24869 0.0
C330 C 0.9038 0.40656 0.76513 0.0
C331 C 0.87922 0.42472 0.8185 0.0
H332 H 0.91385 0.35782 0.73246 0.0
C333 C 0.8453 0.40603 0.88663 0.0
H334 H 0.93052 0.41999 0.71413 0.0
C335 C 0.83587 0.37027 0.8983 0.0
C336 C 0.86009 0.352 0.84251 0.0
H337 H 0.82537 0.4188 0.92816 0.0
H338 H 0.80905 0.3568 0.94874 0.0
C339 C 0.89441 0.37082 0.77697 0.0
C340 C 0.3849 0.85019 0.53611 0.0
C341 C 0.35524 0.81735 0.516 0.0
H342 H 0.4457 0.87825 0.56765 0.0
C343 C 0.3652 0.78731 0.51713 0.0
H344 H 0.37835 0.8739 0.53655 0.0
C345 C 0.4032 0.78984 0.53972 0.0
C346 C 0.43303 0.82247 0.55833 0.0
H347 H 0.34331 0.76156 0.50363 0.0
H348 H 0.40931 0.76594 0.54033 0.0
C349 C 0.42348 0.85269 0.55437 0.0
C350 C 0.76891 0.56147 0.72258 0.0
C351 C 0.77902 0.5949 0.67975 0.0
H352 H 0.72408 0.51298 0.751 0.0
C353 C 0.74971 0.60487 0.63284 0.0
H354 H 0.79057 0.55287 0.76006 0.0
C355 C 0.71147 0.58176 0.62654 0.0
C356 C 0.70148 0.54808 0.66719 0.0
H357 H 0.75634 0.63034 0.59864 0.0
H358 H 0.68991 0.59006 0.58668 0.0
C359 C 0.73071 0.53841 0.71648 0.0
C360 C 0.36956 0.47342 0.40587 0.0
C361 C 0.3311 0.46614 0.44832 0.0
H362 H 0.41181 0.4917 0.25173 0.0
C363 C 0.30478 0.47066 0.36268 0.0
H364 H 0.3902 0.46966 0.46889 0.0
C365 C 0.31678 0.48228 0.23654 0.0
C366 C 0.35539 0.48995 0.19497 0.0
H367 H 0.27489 0.46532 0.39332 0.0
H368 H 0.29593 0.48522 0.17166 0.0
C369 C 0.38177 0.48582 0.28123 0.0
C370 C 0.77791 0.21772 0.34753 0.0
C371 C 0.80276 0.23964 0.44715 0.0
H372 H 0.77077 0.19946 0.13794 0.0
C373 C 0.84 0.26107 0.4113 0.0
H374 H 0.74913 0.201 0.3733 0.0
C375 C 0.85253 0.26011 0.27729 0.0
C376 C 0.82787 0.23781 0.17786 0.0
H377 H 0.85957 0.27844 0.48692 0.0
H378 H 0.88139 0.27668 0.25171 0.0
C379 C 0.79041 0.21679 0.21349 0.0
C380 C 0.56096 0.78799 0.08794 0.0
C381 C 0.54745 0.80619 0.19487 0.0
H382 H 0.57705 0.78547 0.87937 0.0
C383 C 0.54014 0.83656 0.17492 0.0
H384 H 0.56713 0.76476 0.10207 0.0
C385 C 0.54527 0.84811 0.04812 0.0
C386 C 0.55789 0.82948 0.94048 0.0
H387 H 0.52994 0.85118 0.25675 0.0
H388 H 0.53883 0.87122 0.03397 0.0
C389 C 0.56639 0.79974 0.96118 0.0
C390 C 0.93054 0.6502 0.19197 0.0
C391 C 0.90191 0.64956 0.29072 0.0
H392 H 0.9505 0.661 -0.00839 0.0
C393 C 0.87029 0.65874 0.26155 0.0
H394 H 0.95515 0.6432 0.21241 0.0
C395 C 0.86766 0.66903 0.13571 0.0
C396 C 0.89649 0.67 0.0374 0.0
H397 H 0.84758 0.65795 0.33589 0.0
H398 H 0.84308 0.67609 0.1153 0.0
C399 C 0.92788 0.66043 0.06613 0.0
C400 C 0.25835 0.81415 0.92557 0.0
C401 C 0.22801 0.78417 0.87567 0.0
H402 H 0.2841 0.84864 0.09958 0.0
C403 C 0.19917 0.76622 0.96333 0.0
H404 H 0.28089 0.82844 0.85895 0.0
C405 C 0.20072 0.77818 0.10011 0.0
C406 C 0.23157 0.80765 0.15054 0.0
H407 H 0.17529 0.74337 0.92605 0.0
H408 H 0.17776 0.76437 0.16636 0.0
C409 C 0.26019 0.82578 0.06254 0.0
C410 C 0.49133 0.32698 0.01489 0.0
C411 C 0.4979 0.36136 0.07164 0.0
H412 H 0.47402 0.2897 0.84082 0.0
C413 C 0.4908 0.38486 -0.00592 0.0
H414 H 0.49645 0.30837 0.07234 0.0
C415 C 0.47701 0.37405 0.86261 0.0
C416 C 0.47116 0.33983 0.80495 0.0
H417 H 0.49558 0.41162 0.03536 0.0
H418 H 0.4713 0.3925 0.80595 0.0
C419 C 0.47828 0.31636 0.8826 0.0
loop_
_geom_bond_atom_site_label_1
_geom_bond_atom_site_label_2
_geom_bond_distance
_geom_bond_site_symmetry_2
_ccdc_geom_bond_type
Nd0 C2 2.836 . S
Nd0 O20 2.500 . S
Nd0 O21 2.492 1_554 S
Nd0 O22 2.487 1_554 S
Nd0 O23 2.682 1_554 S
Nd0 O24 2.410 1_554 S
Nd0 O29 2.414 . S
Nd0 O31 2.424 1_554 S
Nd1 C11 2.836 . S
Nd1 O23 2.414 . S
Nd1 O25 2.424 1_556 S
Nd1 O26 2.500 . S
Nd1 O27 2.492 1_556 S
Nd1 O28 2.487 1_556 S
Nd1 O29 2.682 1_556 S
Nd1 O30 2.410 1_556 S
C2 Nd0 2.836 . S
C2 C3 1.498 . S
C2 O20 1.258 . S
C2 O21 1.239 1_554 S
C3 C2 1.498 . S
C3 C4 1.366 . S
C3 C8 1.407 . S
C4 C3 1.366 . S
C4 C5 1.392 . S
C4 H32 0.930 . S
C5 C4 1.392 . S
C5 C6 1.398 . S
C5 H33 0.929 . S
C6 C5 1.398 . S
C6 C7 1.352 . S
C7 C6 1.352 . S
C7 C8 1.384 . S
C7 H34 0.930 1_554 S
C8 C3 1.407 . S
C8 C7 1.384 . S
C8 H35 0.929 1_554 S
C9 O22 1.241 . S
C9 O23 1.273 . S
C10 O24 1.251 1_554 S
C10 O25 1.268 . S
C11 Nd1 2.836 . S
C11 C12 1.498 . S
C11 O26 1.258 . S
C11 O27 1.239 1_556 S
C12 C11 1.498 . S
C12 C13 1.366 . S
C12 C17 1.407 . S
C13 C12 1.366 . S
C13 C14 1.392 . S
C13 H36 0.930 . S
C14 C13 1.392 . S
C14 C15 1.398 . S
C14 H37 0.929 . S
C15 C14 1.398 . S
C15 C16 1.352 . S
C16 C15 1.352 . S
C16 C17 1.384 . S
C16 H38 0.930 1_556 S
C17 C12 1.407 . S
C17 C16 1.384 . S
C17 H39 0.929 1_556 S
C18 O28 1.241 . S
C18 O29 1.273 . S
C19 O30 1.251 1_556 S
C19 O31 1.268 . S
O20 Nd0 2.500 . S
O20 C2 1.258 . S
O21 Nd0 2.492 1_556 S
O21 C2 1.239 1_556 S
O22 Nd0 2.487 1_556 S
O22 C9 1.241 . S
O23 Nd0 2.682 1_556 S
O23 Nd1 2.414 . S
O23 C9 1.273 . S
O24 Nd0 2.410 1_556 S
O24 C10 1.251 1_556 S
O25 Nd1 2.424 1_554 S
O25 C10 1.268 . S
O26 Nd1 2.500 . S
O26 C11 1.258 . S
O27 Nd1 2.492 1_554 S
O27 C11 1.239 1_554 S
O28 Nd1 2.487 1_554 S
O28 C18 1.241 . S
O29 Nd0 2.414 . S
O29 Nd1 2.682 1_554 S
O29 C18 1.273 . S
O30 Nd1 2.410 1_554 S
O30 C19 1.251 1_554 S
O31 Nd0 2.424 1_556 S
O31 C19 1.268 . S
H32 C4 0.930 . S
H33 C5 0.929 . S
H34 C7 0.930 1_556 S
H35 C8 0.929 1_556 S
H36 C13 0.930 . S
H37 C14 0.929 . S
H38 C16 0.930 1_554 S
H39 C17 0.929 1_554 S
Nd40 C42 2.836 . S
Nd40 O60 2.500 . S
Nd40 O61 2.492 1_556 S
Nd40 O62 2.487 1_556 S
Nd40 O63 2.682 1_556 S
Nd40 O64 2.410 . S
Nd40 O69 2.414 . S
Nd40 O71 2.424 1_556 S
Nd41 C51 2.836 . S
Nd41 O63 2.414 . S
Nd41 O65 2.424 1_554 S
Nd41 O66 2.500 . S
Nd41 O67 2.492 1_554 S
Nd41 O68 2.487 1_554 S
Nd41 O69 2.682 1_554 S
Nd41 O70 2.410 . S
C42 Nd40 2.836 . S
C42 C43 1.498 . S
C42 O60 1.258 . S
C42 O61 1.239 1_556 S
C43 C42 1.498 . S
C43 C44 1.366 . S
C43 C48 1.407 . S
C44 C43 1.366 . S
C44 C45 1.392 . S
C44 H72 0.930 . S
C45 C44 1.392 . S
C45 C46 1.398 . S
C45 H73 0.929 . S
C46 C45 1.398 . S
C46 C47 1.352 . S
C47 C46 1.352 . S
C47 C48 1.384 . S
C47 H74 0.930 . S
C48 C43 1.407 . S
C48 C47 1.384 . S
C48 H75 0.929 1_556 S
C49 O62 1.241 . S
C49 O63 1.273 . S
C50 O64 1.251 . S
C50 O65 1.268 . S
C51 Nd41 2.836 . S
C51 C52 1.498 . S
C51 O66 1.258 . S
C51 O67 1.239 1_554 S
C52 C51 1.498 . S
C52 C53 1.366 . S
C52 C57 1.407 . S
C53 C52 1.366 . S
C53 C54 1.392 . S
C53 H76 0.930 . S
C54 C53 1.392 . S
C54 C55 1.398 . S
C54 H77 0.929 . S
C55 C54 1.398 . S
C55 C56 1.352 . S
C56 C55 1.352 . S
C56 C57 1.384 . S
C56 H78 0.930 . S
C57 C52 1.407 . S
C57 C56 1.384 . S
C57 H79 0.929 1_554 S
C58 O68 1.241 . S
C58 O69 1.273 . S
C59 O70 1.251 . S
C59 O71 1.268 . S
O60 Nd40 2.500 . S
O60 C42 1.258 . S
O61 Nd40 2.492 1_554 S
O61 C42 1.239 1_554 S
O62 Nd40 2.487 1_554 S
O62 C49 1.241 . S
O63 Nd40 2.682 1_554 S
O63 Nd41 2.414 . S
O63 C49 1.273 . S
O64 Nd40 2.410 . S
O64 C50 1.251 . S
O65 Nd41 2.424 1_556 S
O65 C50 1.268 . S
O66 Nd41 2.500 . S
O66 C51 1.258 . S
O67 Nd41 2.492 1_556 S
O67 C51 1.239 1_556 S
O68 Nd41 2.487 1_556 S
O68 C58 1.241 . S
O69 Nd40 2.414 . S
O69 Nd41 2.682 1_556 S
O69 C58 1.273 . S
O70 Nd41 2.410 . S
O70 C59 1.251 . S
O71 Nd40 2.424 1_554 S
O71 C59 1.268 . S
H72 C44 0.930 . S
H73 C45 0.929 . S
H74 C47 0.930 . S
H75 C48 0.929 1_554 S
H76 C53 0.930 . S
H77 C54 0.929 . S
H78 C56 0.930 . S
H79 C57 0.929 1_556 S
Nd80 C82 2.836 . S
Nd80 O100 2.500 1_554 S
Nd80 O101 2.492 . S
Nd80 O102 2.487 . S
Nd80 O103 2.682 . S
Nd80 O104 2.410 . S
Nd80 O109 2.414 1_554 S
Nd80 O111 2.424 . S
Nd81 C91 2.836 . S
Nd81 O103 2.414 1_556 S
Nd81 O105 2.424 . S
Nd81 O106 2.500 1_556 S
Nd81 O107 2.492 . S
Nd81 O108 2.487 . S
Nd81 O109 2.682 . S
Nd81 O110 2.410 . S
C82 Nd80 2.836 . S
C82 C83 1.498 . S
C82 O100 1.258 1_554 S
C82 O101 1.239 . S
C83 C82 1.498 . S
C83 C84 1.362 1_554 S
C83 C88 1.407 1_565 S
C84 C83 1.362 1_556 S
C84 C85 1.392 1_566 S
C84 H112 0.935 . S
C85 C84 1.392 1_544 S
C85 C86 1.398 . S
C85 H113 0.929 1_554 S
C86 C85 1.398 . S
C86 C87 1.352 . S
C87 C86 1.352 . S
C87 C88 1.384 . S
C87 H114 0.930 . S
C88 C83 1.407 1_545 S
C88 C87 1.384 . S
C88 H115 0.929 1_545 S
C89 O102 1.241 . S
C89 O103 1.273 . S
C90 O104 1.251 . S
C90 O105 1.268 1_554 S
C91 Nd81 2.836 . S
C91 C92 1.498 . S
C91 O106 1.258 1_556 S
C91 O107 1.239 . S
C92 C91 1.498 . S
C92 C93 1.366 1_556 S
C92 C97 1.407 . S
C93 C92 1.366 1_554 S
C93 C94 1.392 1_554 S
C93 H116 0.930 . S
C94 C93 1.392 1_556 S
C94 C95 1.398 . S
C94 H117 0.929 1_556 S
C95 C94 1.398 . S
C95 C96 1.352 . S
C96 C95 1.352 . S
C96 C97 1.384 . S
C96 H118 0.930 . S
C97 C92 1.407 . S
C97 C96 1.384 . S
C97 H119 0.929 . S
C98 O108 1.241 . S
C98 O109 1.273 . S
C99 O110 1.251 . S
C99 O111 1.268 1_556 S
O100 Nd80 2.500 1_556 S
O100 C82 1.258 1_556 S
O101 Nd80 2.492 . S
O101 C82 1.239 . S
O102 Nd80 2.487 . S
O102 C89 1.241 . S
O103 Nd80 2.682 . S
O103 Nd81 2.414 1_554 S
O103 C89 1.273 . S
O104 Nd80 2.410 . S
O104 C90 1.251 . S
O105 Nd81 2.424 . S
O105 C90 1.268 1_556 S
O106 Nd81 2.500 1_554 S
O106 C91 1.258 1_554 S
O107 Nd81 2.492 . S
O107 C91 1.239 . S
O108 Nd81 2.487 . S
O108 C98 1.241 . S
O109 Nd80 2.414 1_556 S
O109 Nd81 2.682 . S
O109 C98 1.273 . S
O110 Nd81 2.410 . S
O110 C99 1.251 . S
O111 Nd80 2.424 . S
O111 C99 1.268 1_554 S
H112 C84 0.935 . S
H113 C85 0.929 1_556 S
H114 C87 0.930 . S
H115 C88 0.929 1_565 S
H116 C93 0.930 . S
H117 C94 0.929 1_554 S
H118 C96 0.930 . S
H119 C97 0.929 . S
Nd120 C122 2.836 . S
Nd120 O140 2.500 . S
Nd120 O141 2.492 1_556 S
Nd120 O142 2.487 1_556 S
Nd120 O143 2.682 1_556 S
Nd120 O144 2.410 . S
Nd120 O149 2.414 . S
Nd120 O151 2.424 1_556 S
Nd121 C131 2.836 1_556 S
Nd121 O143 2.414 1_556 S
Nd121 O145 2.424 . S
Nd121 O146 2.500 1_556 S
Nd121 O147 2.492 . S
Nd121 O148 2.487 . S
Nd121 O149 2.682 . S
Nd121 O150 2.410 . S
C122 Nd120 2.836 . S
C122 C123 1.498 . S
C122 O140 1.258 . S
C122 O141 1.239 1_556 S
C123 C122 1.498 . S
C123 C124 1.366 . S
C123 C128 1.407 . S
C124 C123 1.366 . S
C124 C125 1.392 . S
C124 H152 0.930 . S
C125 C124 1.392 . S
C125 C126 1.398 . S
C125 H153 0.929 . S
C126 C125 1.398 . S
C126 C127 1.352 . S
C127 C126 1.352 . S
C127 C128 1.384 . S
C127 H154 0.930 1_556 S
C128 C123 1.407 . S
C128 C127 1.384 . S
C128 H155 0.929 1_556 S
C129 O142 1.241 . S
C129 O143 1.273 . S
C130 O144 1.251 . S
C130 O145 1.268 . S
C131 Nd121 2.836 1_554 S
C131 C132 1.498 . S
C131 O146 1.258 . S
C131 O147 1.239 1_554 S
C132 C131 1.498 . S
C132 C133 1.366 . S
C132 C137 1.407 1_554 S
C133 C132 1.366 . S
C133 C134 1.392 . S
C133 H156 0.930 . S
C134 C133 1.392 . S
C134 C135 1.398 . S
C134 H157 0.929 . S
C135 C134 1.398 . S
C135 C136 1.352 1_554 S
C136 C135 1.352 1_556 S
C136 C137 1.384 . S
C136 H158 0.930 . S
C137 C132 1.407 1_556 S
C137 C136 1.384 . S
C137 H159 0.929 . S
C138 O148 1.241 . S
C138 O149 1.273 . S
C139 O150 1.251 1_554 S
C139 O151 1.268 . S
O140 Nd120 2.500 . S
O140 C122 1.258 . S
O141 Nd120 2.492 1_554 S
O141 C122 1.239 1_554 S
O142 Nd120 2.487 1_554 S
O142 C129 1.241 . S
O143 Nd120 2.682 1_554 S
O143 Nd121 2.414 1_554 S
O143 C129 1.273 . S
O144 Nd120 2.410 . S
O144 C130 1.251 . S
O145 Nd121 2.424 . S
O145 C130 1.268 . S
O146 Nd121 2.500 1_554 S
O146 C131 1.258 . S
O147 Nd121 2.492 . S
O147 C131 1.239 1_556 S
O148 Nd121 2.487 . S
O148 C138 1.241 . S
O149 Nd120 2.414 . S
O149 Nd121 2.682 . S
O149 C138 1.273 . S
O150 Nd121 2.410 . S
O150 C139 1.251 1_556 S
O151 Nd120 2.424 1_554 S
O151 C139 1.268 . S
H152 C124 0.930 . S
H153 C125 0.929 . S
H154 C127 0.930 1_554 S
H155 C128 0.929 1_554 S
H156 C133 0.930 . S
H157 C134 0.929 . S
H158 C136 0.930 . S
H159 C137 0.929 . S
Nd160 C162 2.836 . S
Nd160 O180 2.500 . S
Nd160 O181 2.492 . S
Nd160 O182 2.487 1_554 S
Nd160 O183 2.682 1_554 S
Nd160 O184 2.410 . S
Nd160 O189 2.414 . S
Nd160 O191 2.424 . S
Nd161 C171 2.836 1_554 S
Nd161 O183 2.414 1_554 S
Nd161 O185 2.424 . S
Nd161 O186 2.500 1_554 S
Nd161 O187 2.492 . S
Nd161 O188 2.487 . S
Nd161 O189 2.682 . S
Nd161 O190 2.410 . S
C162 Nd160 2.836 . S
C162 C163 1.498 . S
C162 O180 1.258 . S
C162 O181 1.239 . S
C163 C162 1.498 . S
C163 C164 1.366 . S
C163 C168 1.407 . S
C164 C163 1.366 . S
C164 C165 1.392 . S
C164 H192 0.930 . S
C165 C164 1.392 . S
C165 C166 1.398 . S
C165 H193 0.929 . S
C166 C165 1.398 . S
C166 C167 1.352 . S
C167 C166 1.352 . S
C167 C168 1.384 . S
C167 H194 0.930 . S
C168 C163 1.407 . S
C168 C167 1.384 . S
C168 H195 0.929 . S
C169 O182 1.241 . S
C169 O183 1.273 . S
C170 O184 1.251 . S
C170 O185 1.268 . S
C171 Nd161 2.836 1_556 S
C171 C172 1.498 . S
C171 O186 1.258 . S
C171 O187 1.239 1_556 S
C172 C171 1.498 . S
C172 C173 1.366 . S
C172 C177 1.407 . S
C173 C172 1.366 . S
C173 C174 1.392 . S
C173 H196 0.930 . S
C174 C173 1.392 . S
C174 C175 1.398 . S
C174 H197 0.929 . S
C175 C174 1.398 . S
C175 C176 1.352 . S
C176 C175 1.352 . S
C176 C177 1.384 . S
C176 H198 0.930 . S
C177 C172 1.407 . S
C177 C176 1.384 . S
C177 H199 0.929 1_556 S
C178 O188 1.241 . S
C178 O189 1.273 . S
C179 O190 1.251 . S
C179 O191 1.268 . S
O180 Nd160 2.500 . S
O180 C162 1.258 . S
O181 Nd160 2.492 . S
O181 C162 1.239 . S
O182 Nd160 2.487 1_556 S
O182 C169 1.241 . S
O183 Nd160 2.682 1_556 S
O183 Nd161 2.414 1_556 S
O183 C169 1.273 . S
O184 Nd160 2.410 . S
O184 C170 1.251 . S
O185 Nd161 2.424 . S
O185 C170 1.268 . S
O186 Nd161 2.500 1_556 S
O186 C171 1.258 . S
O187 Nd161 2.492 . S
O187 C171 1.239 1_554 S
O188 Nd161 2.487 . S
O188 C178 1.241 . S
O189 Nd160 2.414 . S
O189 Nd161 2.682 . S
O189 C178 1.273 . S
O190 Nd161 2.410 . S
O190 C179 1.251 . S
O191 Nd160 2.424 . S
O191 C179 1.268 . S
H192 C164 0.930 . S
H193 C165 0.929 . S
H194 C167 0.930 . S
H195 C168 0.929 . S
H196 C173 0.930 . S
H197 C174 0.929 . S
H198 C176 0.930 . S
H199 C177 0.929 1_554 S
Nd200 C202 2.836 . S
Nd200 O220 2.500 . S
Nd200 O221 2.492 1_556 S
Nd200 O222 2.487 1_556 S
Nd200 O223 2.682 1_556 S
Nd200 O224 2.410 . S
Nd200 O229 2.414 . S
Nd200 O231 2.424 1_556 S
Nd201 C211 2.836 . S
Nd201 O223 2.414 . S
Nd201 O225 2.424 1_554 S
Nd201 O226 2.500 . S
Nd201 O227 2.492 1_554 S
Nd201 O228 2.487 1_554 S
Nd201 O229 2.682 1_554 S
Nd201 O230 2.410 . S
C202 Nd200 2.836 . S
C202 C203 1.498 . S
C202 O220 1.258 . S
C202 O221 1.239 1_556 S
C203 C202 1.498 . S
C203 C204 1.366 . S
C203 C208 1.407 . S
C204 C203 1.366 . S
C204 C205 1.392 . S
C204 H232 0.930 . S
C205 C204 1.392 . S
C205 C206 1.398 . S
C205 H233 0.929 . S
C206 C205 1.398 . S
C206 C207 1.352 . S
C207 C206 1.352 . S
C207 C208 1.384 . S
C207 H234 0.930 . S
C208 C203 1.407 . S
C208 C207 1.384 . S
C208 H235 0.929 1_556 S
C209 O222 1.241 . S
C209 O223 1.273 . S
C210 O224 1.251 . S
C210 O225 1.268 . S
C211 Nd201 2.836 . S
C211 C212 1.498 . S
C211 O226 1.258 . S
C211 O227 1.239 1_554 S
C212 C211 1.498 . S
C212 C213 1.366 . S
C212 C217 1.407 . S
C213 C212 1.366 . S
C213 C214 1.392 . S
C213 H236 0.930 . S
C214 C213 1.392 . S
C214 C215 1.398 . S
C214 H237 0.929 . S
C215 C214 1.398 . S
C215 C216 1.352 . S
C216 C215 1.352 . S
C216 C217 1.384 . S
C216 H238 0.930 . S
C217 C212 1.407 . S
C217 C216 1.384 . S
C217 H239 0.929 1_554 S
C218 O228 1.241 . S
C218 O229 1.273 . S
C219 O230 1.251 . S
C219 O231 1.268 . S
O220 Nd200 2.500 . S
O220 C202 1.258 . S
O221 Nd200 2.492 1_554 S
O221 C202 1.239 1_554 S
O222 Nd200 2.487 1_554 S
O222 C209 1.241 . S
O223 Nd200 2.682 1_554 S
O223 Nd201 2.414 . S
O223 C209 1.273 . S
O224 Nd200 2.410 . S
O224 C210 1.251 . S
O225 Nd201 2.424 1_556 S
O225 C210 1.268 . S
O226 Nd201 2.500 . S
O226 C211 1.258 . S
O227 Nd201 2.492 1_556 S
O227 C211 1.239 1_556 S
O228 Nd201 2.487 1_556 S
O228 C218 1.241 . S
O229 Nd200 2.414 . S
O229 Nd201 2.682 1_556 S
O229 C218 1.273 . S
O230 Nd201 2.410 . S
O230 C219 1.251 . S
O231 Nd200 2.424 1_554 S
O231 C219 1.268 . S
H232 C204 0.930 . S
H233 C205 0.929 . S
H234 C207 0.930 . S
H235 C208 0.929 1_554 S
H236 C213 0.930 . S
H237 C214 0.929 . S
H238 C216 0.930 . S
H239 C217 0.929 1_556 S
C240 C241 1.387 . S
C240 H244 0.950 . S
C240 C249 1.390 . S
C241 C240 1.387 . S
C241 C243 1.387 . S
H242 C249 0.950 . S
C243 C241 1.387 . S
C243 C245 1.390 . S
C243 H247 0.950 . S
H244 C240 0.950 . S
C245 C243 1.390 . S
C245 C246 1.387 . S
C245 H248 0.950 . S
C246 C245 1.387 . S
C246 C249 1.387 . S
H247 C243 0.950 . S
H248 C245 0.950 . S
C249 C240 1.390 . S
C249 H242 0.950 . S
C249 C246 1.387 . S
C250 C251 1.387 . S
C250 H254 0.950 . S
C250 C259 1.390 1_455 S
C251 C250 1.387 . S
C251 C253 1.387 . S
H252 C259 0.950 . S
C253 C251 1.387 . S
C253 C255 1.390 . S
C253 H257 0.950 . S
H254 C250 0.950 . S
C255 C253 1.390 . S
C255 C256 1.387 1_455 S
C255 H258 0.950 . S
C256 C255 1.387 1_655 S
C256 C259 1.387 . S
H257 C253 0.950 . S
H258 C255 0.950 . S
C259 C250 1.390 1_655 S
C259 H252 0.950 . S
C259 C256 1.387 . S
C260 C261 1.387 . S
C260 H264 0.950 . S
C260 C269 1.390 . S
C261 C260 1.387 . S
C261 C263 1.387 . S
H262 C269 0.950 . S
C263 C261 1.387 . S
C263 C265 1.390 . S
C263 H267 0.950 . S
H264 C260 0.950 . S
C265 C263 1.390 . S
C265 C266 1.387 . S
C265 H268 0.950 . S
C266 C265 1.387 . S
C266 C269 1.387 . S
H267 C263 0.950 . S
H268 C265 0.950 . S
C269 C260 1.390 . S
C269 H262 0.950 . S
C269 C266 1.387 . S
C270 C271 1.387 . S
C270 H274 0.950 . S
C270 C279 1.390 . S
C271 C270 1.387 . S
C271 C273 1.387 . S
H272 C279 0.950 . S
C273 C271 1.387 . S
C273 C275 1.390 . S
C273 H277 0.950 . S
H274 C270 0.950 . S
C275 C273 1.390 . S
C275 C276 1.387 . S
C275 H278 0.950 . S
C276 C275 1.387 . S
C276 C279 1.387 . S
H277 C273 0.950 . S
H278 C275 0.950 . S
C279 C270 1.390 . S
C279 H272 0.950 . S
C279 C276 1.387 . S
C280 C281 1.387 . S
C280 H284 0.950 . S
C280 C289 1.390 . S
C281 C280 1.387 . S
C281 C283 1.387 . S
H282 C289 0.950 1_655 S
C283 C281 1.387 . S
C283 C285 1.390 . S
C283 H287 0.950 . S
H284 C280 0.950 . S
C285 C283 1.390 . S
C285 C286 1.387 . S
C285 H288 0.950 . S
C286 C285 1.387 . S
C286 C289 1.387 . S
H287 C283 0.950 . S
H288 C285 0.950 . S
C289 C280 1.390 . S
C289 H282 0.950 1_455 S
C289 C286 1.387 . S
C290 C291 1.387 . S
C290 H294 0.950 1_545 S
C290 C299 1.390 . S
C291 C290 1.387 . S
C291 C293 1.387 . S
H292 C299 0.950 . S
C293 C291 1.387 . S
C293 C295 1.390 . S
C293 H297 0.950 . S
H294 C290 0.950 1_565 S
C295 C293 1.390 . S
C295 C296 1.387 . S
C295 H298 0.950 . S
C296 C295 1.387 . S
C296 C299 1.387 . S
H297 C293 0.950 . S
H298 C295 0.950 . S
C299 C290 1.390 . S
C299 H292 0.950 . S
C299 C296 1.387 . S
C300 C301 1.387 . S
C300 H304 0.950 1_556 S
C300 C309 1.390 . S
C301 C300 1.387 . S
C301 C303 1.387 . S
H302 C309 0.950 1_554 S
C303 C301 1.387 . S
C303 C305 1.390 . S
C303 H307 0.950 . S
H304 C300 0.950 1_554 S
C305 C303 1.390 . S
C305 C306 1.387 . S
C305 H308 0.950 . S
C306 C305 1.387 . S
C306 C309 1.387 . S
H307 C303 0.950 . S
H308 C305 0.950 . S
C309 C300 1.390 . S
C309 H302 0.950 1_556 S
C309 C306 1.387 . S
C310 C311 1.387 . S
C310 H314 0.950 . S
C310 C319 1.390 . S
C311 C310 1.387 . S
C311 C313 1.387 . S
H312 C319 0.950 . S
C313 C311 1.387 . S
C313 C315 1.390 . S
C313 H317 0.950 . S
H314 C310 0.950 . S
C315 C313 1.390 . S
C315 C316 1.387 . S
C315 H318 0.950 . S
C316 C315 1.387 . S
C316 C319 1.387 . S
H317 C313 0.950 . S
H318 C315 0.950 . S
C319 C310 1.390 . S
C319 H312 0.950 . S
C319 C316 1.387 . S
C320 C321 1.387 . S
C320 H324 0.950 1_556 S
C320 C329 1.390 . S
C321 C320 1.387 . S
C321 C323 1.387 . S
H322 C329 0.950 1_554 S
C323 C321 1.387 . S
C323 C325 1.390 . S
C323 H327 0.950 . S
H324 C320 0.950 1_554 S
C325 C323 1.390 . S
C325 C326 1.387 . S
C325 H328 0.950 . S
C326 C325 1.387 . S
C326 C329 1.387 . S
H327 C323 0.950 . S
H328 C325 0.950 . S
C329 C320 1.390 . S
C329 H322 0.950 1_556 S
C329 C326 1.387 . S
C330 C331 1.387 . S
C330 H334 0.950 . S
C330 C339 1.390 . S
C331 C330 1.387 . S
C331 C333 1.387 . S
H332 C339 0.950 . S
C333 C331 1.387 . S
C333 C335 1.390 . S
C333 H337 0.950 . S
H334 C330 0.950 . S
C335 C333 1.390 . S
C335 C336 1.387 . S
C335 H338 0.950 . S
C336 C335 1.387 . S
C336 C339 1.387 . S
H337 C333 0.950 . S
H338 C335 0.950 . S
C339 C330 1.390 . S
C339 H332 0.950 . S
C339 C336 1.387 . S
C340 C341 1.387 1_554 S
C340 H344 0.950 . S
C340 C349 1.390 . S
C341 C340 1.387 1_556 S
C341 C343 1.387 . S
H342 C349 0.950 . S
C343 C341 1.387 . S
C343 C345 1.390 . S
C343 H347 0.950 . S
H344 C340 0.950 . S
C345 C343 1.390 . S
C345 C346 1.387 . S
C345 H348 0.950 . S
C346 C345 1.387 . S
C346 C349 1.387 1_556 S
H347 C343 0.950 . S
H348 C345 0.950 . S
C349 C340 1.390 . S
C349 H342 0.950 . S
C349 C346 1.387 1_554 S
C350 C351 1.387 . S
C350 H354 0.950 . S
C350 C359 1.390 . S
C351 C350 1.387 . S
C351 C353 1.387 . S
H352 C359 0.950 . S
C353 C351 1.387 . S
C353 C355 1.390 . S
C353 H357 0.950 1_554 S
H354 C350 0.950 . S
C355 C353 1.390 . S
C355 C356 1.387 . S
C355 H358 0.951 . S
C356 C355 1.387 . S
C356 C359 1.387 . S
H357 C353 0.950 1_556 S
H358 C355 0.951 . S
C359 C350 1.390 . S
C359 H352 0.950 . S
C359 C356 1.387 . S
C360 C361 1.387 . S
C360 H364 0.950 . S
C360 C369 1.390 . S
C361 C360 1.387 . S
C361 C363 1.387 . S
H362 C369 0.950 . S
C363 C361 1.387 . S
C363 C365 1.390 . S
C363 H367 0.950 . S
H364 C360 0.950 . S
C365 C363 1.390 . S
C365 C366 1.387 . S
C365 H368 0.950 . S
C366 C365 1.387 . S
C366 C369 1.387 . S
H367 C363 0.950 . S
H368 C365 0.950 . S
C369 C360 1.390 . S
C369 H362 0.950 . S
C369 C366 1.387 . S
C370 C371 1.387 . S
C370 H374 0.950 . S
C370 C379 1.390 . S
C371 C370 1.387 . S
C371 C373 1.387 . S
H372 C379 0.950 . S
C373 C371 1.387 . S
C373 C375 1.390 . S
C373 H377 0.950 . S
H374 C370 0.950 . S
C375 C373 1.390 . S
C375 C376 1.387 . S
C375 H378 0.950 . S
C376 C375 1.387 . S
C376 C379 1.387 . S
H377 C373 0.950 . S
H378 C375 0.950 . S
C379 C370 1.390 . S
C379 H372 0.950 . S
C379 C376 1.387 . S
C380 C381 1.387 . S
C380 H384 0.950 . S
C380 C389 1.390 . S
C381 C380 1.387 . S
C381 C383 1.387 . S
H382 C389 0.950 . S
C383 C381 1.387 . S
C383 C385 1.390 . S
C383 H387 0.950 . S
H384 C380 0.950 . S
C385 C383 1.390 . S
C385 C386 1.387 . S
C385 H388 0.950 . S
C386 C385 1.387 . S
C386 C389 1.387 . S
H387 C383 0.950 . S
H388 C385 0.950 . S
C389 C380 1.390 . S
C389 H382 0.950 . S
C389 C386 1.387 . S
C390 C391 1.387 . S
C390 H394 0.950 . S
C390 C399 1.390 . S
C391 C390 1.387 . S
C391 C393 1.387 . S
H392 C399 0.950 . S
C393 C391 1.387 . S
C393 C395 1.390 . S
C393 H397 0.950 . S
H394 C390 0.950 . S
C395 C393 1.390 . S
C395 C396 1.387 . S
C395 H398 0.950 . S
C396 C395 1.387 . S
C396 C399 1.387 . S
H397 C393 0.950 . S
H398 C395 0.950 . S
C399 C390 1.390 . S
C399 H392 0.950 . S
C399 C396 1.387 . S
C400 C401 1.387 . S
C400 H404 0.950 . S
C400 C409 1.390 . S
C401 C400 1.387 . S
C401 C403 1.387 . S
H402 C409 0.950 . S
C403 C401 1.387 . S
C403 C405 1.390 . S
C403 H407 0.950 . S
H404 C400 0.950 . S
C405 C403 1.390 . S
C405 C406 1.387 . S
C405 H408 0.950 . S
C406 C405 1.387 . S
C406 C409 1.387 . S
H407 C403 0.950 . S
H408 C405 0.950 . S
C409 C400 1.390 . S
C409 H402 0.950 . S
C409 C406 1.387 . S
C410 C411 1.387 . S
C410 H414 0.950 . S
C410 C419 1.390 . S
C411 C410 1.387 . S
C411 C413 1.387 . S
H412 C419 0.950 . S
C413 C411 1.387 . S
C413 C415 1.390 . S
C413 H417 0.950 . S
H414 C410 0.950 . S
C415 C413 1.390 . S
C415 C416 1.387 . S
C415 H418 0.950 . S
C416 C415 1.387 . S
C416 C419 1.387 . S
H417 C413 0.950 . S
H418 C415 0.950 . S
C419 C410 1.390 . S
C419 H412 0.950 . S
C419 C416 1.387 . S
C241 C210 3.177 . S
C246 C10 3.027 . S
C251 C6 2.090 . S
C256 C46 2.378 . S
C261 C50 3.783 . S
C266 C86 3.363 . S
C271 C126 3.075 . S
C276 C90 3.361 . S
C281 C170 4.619 . S
C286 C130 4.488 1_455 S
C291 C166 2.633 1_545 S
C296 C206 2.492 . S
C301 C175 2.200 . S
C306 C19 2.307 . S
C311 C219 1.277 . S
C316 C55 1.206 . S
C321 C95 1.136 . S
C326 C15 1.133 . S
C331 C135 2.139 . S
C336 C59 2.052 . S
C341 C179 3.894 1_556 S
C346 C99 4.014 . S
C351 C139 3.150 . S
C356 C215 3.065 . S
C361 C9 0.947 . S
C366 C18 0.947 . S
C371 C58 0.810 . S
C376 C49 0.810 . S
C381 C98 0.977 . S
C386 C89 0.977 . S
C391 C138 0.945 . S
C396 C129 0.945 . S
C401 C178 0.798 . S
C406 C169 0.798 . S
C411 C218 0.869 . S
C416 C209 0.869 . S
