# Generated by pormake.
# Topology wlt, (5)-cn, num edge types: 1
# Building blocks:
#     Node 0, Type 0, BuildingBlock: XOMCOT_clean_sbu_1, # of connection points: 5
#     Node 1, Type 0, BuildingBlock: XOMCOT_clean_sbu_1, # of connection points: 5
#     Node 2, Type 0, BuildingBlock: XOMCOT_clean_sbu_1, # of connection points: 5
#     Node 3, Type 0, BuildingBlock: XOMCOT_clean_sbu_1, # of connection points: 5
#     Node 4, Type 0, BuildingBlock: XOMCOT_clean_sbu_1, # of connection points: 5
#     Node 5, Type 0, BuildingBlock: XOMCOT_clean_sbu_1, # of connection points: 5
#     Node 6, Type 0, BuildingBlock: XOMCOT_clean_sbu_1, # of connection points: 5
#     Node 7, Type 0, BuildingBlock: XOMCOT_clean_sbu_1, # of connection points: 5
#     Node 8, Type 0, BuildingBlock: XOMCOT_clean_sbu_1, # of connection points: 5
#     Node 9, Type 0, BuildingBlock: XOMCOT_clean_sbu_1, # of connection points: 5
#     Node 10, Type 0, BuildingBlock: XOMCOT_clean_sbu_1, # of connection points: 5
#     Node 11, Type 0, BuildingBlock: XOMCOT_clean_sbu_1, # of connection points: 5
#     Node 12, Type 0, BuildingBlock: XOMCOT_clean_sbu_1, # of connection points: 5
#     Node 13, Type 0, BuildingBlock: XOMCOT_clean_sbu_1, # of connection points: 5
#     Node 14, Type 0, BuildingBlock: XOMCOT_clean_sbu_1, # of connection points: 5
#     Node 15, Type 0, BuildingBlock: XOMCOT_clean_sbu_1, # of connection points: 5
#     Node 16, Type 0, BuildingBlock: XOMCOT_clean_sbu_1, # of connection points: 5
#     Node 17, Type 0, BuildingBlock: XOMCOT_clean_sbu_1, # of connection points: 5
#     Node 18, Type 0, BuildingBlock: XOMCOT_clean_sbu_1, # of connection points: 5
#     Node 19, Type 0, BuildingBlock: XOMCOT_clean_sbu_1, # of connection points: 5
#     Node 20, Type 0, BuildingBlock: XOMCOT_clean_sbu_1, # of connection points: 5
#     Node 21, Type 0, BuildingBlock: XOMCOT_clean_sbu_1, # of connection points: 5
#     Node 22, Type 0, BuildingBlock: XOMCOT_clean_sbu_1, # of connection points: 5
#     Node 23, Type 0, BuildingBlock: XOMCOT_clean_sbu_1, # of connection points: 5
#     Node 24, Type 0, BuildingBlock: XOMCOT_clean_sbu_1, # of connection points: 5
#     Node 25, Type 0, BuildingBlock: XOMCOT_clean_sbu_1, # of connection points: 5
#     Node 26, Type 0, BuildingBlock: XOMCOT_clean_sbu_1, # of connection points: 5
#     Node 27, Type 0, BuildingBlock: XOMCOT_clean_sbu_1, # of connection points: 5
#     Node 28, Type 0, BuildingBlock: XOMCOT_clean_sbu_1, # of connection points: 5
#     Node 29, Type 0, BuildingBlock: XOMCOT_clean_sbu_1, # of connection points: 5
#     Node 30, Type 0, BuildingBlock: XOMCOT_clean_sbu_1, # of connection points: 5
#     Node 31, Type 0, BuildingBlock: XOMCOT_clean_sbu_1, # of connection points: 5
#     Node 32, Type 0, BuildingBlock: XOMCOT_clean_sbu_1, # of connection points: 5
#     Node 33, Type 0, BuildingBlock: XOMCOT_clean_sbu_1, # of connection points: 5
#     Node 34, Type 0, BuildingBlock: XOMCOT_clean_sbu_1, # of connection points: 5
#     Node 35, Type 0, BuildingBlock: XOMCOT_clean_sbu_1, # of connection points: 5
#     Edge 36, Type (0, 0), BuildingBlock: EZIPEK_clean_linker_0, # of connection points: 2
#     Edge 37, Type (0, 0), BuildingBlock: EZIPEK_clean_linker_0, # of connection points: 2
#     Edge 38, Type (0, 0), BuildingBlock: EZIPEK_clean_linker_0, # of connection points: 2
#     Edge 39, Type (0, 0), BuildingBlock: EZIPEK_clean_linker_0, # of connection points: 2
#     Edge 40, Type (0, 0), BuildingBlock: EZIPEK_clean_linker_0, # of connection points: 2
#     Edge 41, Type (0, 0), BuildingBlock: EZIPEK_clean_linker_0, # of connection points: 2
#     Edge 42, Type (0, 0), BuildingBlock: EZIPEK_clean_linker_0, # of connection points: 2
#     Edge 43, Type (0, 0), BuildingBlock: EZIPEK_clean_linker_0, # of connection points: 2
#     Edge 44, Type (0, 0), BuildingBlock: EZIPEK_clean_linker_0, # of connection points: 2
#     Edge 45, Type (0, 0), BuildingBlock: EZIPEK_clean_linker_0, # of connection points: 2
#     Edge 46, Type (0, 0), BuildingBlock: EZIPEK_clean_linker_0, # of connection points: 2
#     Edge 47, Type (0, 0), BuildingBlock: EZIPEK_clean_linker_0, # of connection points: 2
#     Edge 48, Type (0, 0), BuildingBlock: EZIPEK_clean_linker_0, # of connection points: 2
#     Edge 49, Type (0, 0), BuildingBlock: EZIPEK_clean_linker_0, # of connection points: 2
#     Edge 50, Type (0, 0), BuildingBlock: EZIPEK_clean_linker_0, # of connection points: 2
#     Edge 51, Type (0, 0), BuildingBlock: EZIPEK_clean_linker_0, # of connection points: 2
#     Edge 52, Type (0, 0), BuildingBlock: EZIPEK_clean_linker_0, # of connection points: 2
#     Edge 53, Type (0, 0), BuildingBlock: EZIPEK_clean_linker_0, # of connection points: 2
#     Edge 54, Type (0, 0), BuildingBlock: EZIPEK_clean_linker_0, # of connection points: 2
#     Edge 55, Type (0, 0), BuildingBlock: EZIPEK_clean_linker_0, # of connection points: 2
#     Edge 56, Type (0, 0), BuildingBlock: EZIPEK_clean_linker_0, # of connection points: 2
#     Edge 57, Type (0, 0), BuildingBlock: EZIPEK_clean_linker_0, # of connection points: 2
#     Edge 58, Type (0, 0), BuildingBlock: EZIPEK_clean_linker_0, # of connection points: 2
#     Edge 59, Type (0, 0), BuildingBlock: EZIPEK_clean_linker_0, # of connection points: 2
#     Edge 60, Type (0, 0), BuildingBlock: EZIPEK_clean_linker_0, # of connection points: 2
#     Edge 61, Type (0, 0), BuildingBlock: EZIPEK_clean_linker_0, # of connection points: 2
#     Edge 62, Type (0, 0), BuildingBlock: EZIPEK_clean_linker_0, # of connection points: 2
#     Edge 63, Type (0, 0), BuildingBlock: EZIPEK_clean_linker_0, # of connection points: 2
#     Edge 64, Type (0, 0), BuildingBlock: EZIPEK_clean_linker_0, # of connection points: 2
#     Edge 65, Type (0, 0), BuildingBlock: EZIPEK_clean_linker_0, # of connection points: 2
#     Edge 66, Type (0, 0), BuildingBlock: EZIPEK_clean_linker_0, # of connection points: 2
#     Edge 67, Type (0, 0), BuildingBlock: EZIPEK_clean_linker_0, # of connection points: 2
#     Edge 68, Type (0, 0), BuildingBlock: EZIPEK_clean_linker_0, # of connection points: 2
#     Edge 69, Type (0, 0), BuildingBlock: EZIPEK_clean_linker_0, # of connection points: 2
#     Edge 70, Type (0, 0), BuildingBlock: EZIPEK_clean_linker_0, # of connection points: 2
#     Edge 71, Type (0, 0), BuildingBlock: EZIPEK_clean_linker_0, # of connection points: 2
#     Edge 72, Type (0, 0), BuildingBlock: EZIPEK_clean_linker_0, # of connection points: 2
#     Edge 73, Type (0, 0), BuildingBlock: EZIPEK_clean_linker_0, # of connection points: 2
#     Edge 74, Type (0, 0), BuildingBlock: EZIPEK_clean_linker_0, # of connection points: 2
#     Edge 75, Type (0, 0), BuildingBlock: EZIPEK_clean_linker_0, # of connection points: 2
#     Edge 76, Type (0, 0), BuildingBlock: EZIPEK_clean_linker_0, # of connection points: 2
#     Edge 77, Type (0, 0), BuildingBlock: EZIPEK_clean_linker_0, # of connection points: 2
#     Edge 78, Type (0, 0), BuildingBlock: EZIPEK_clean_linker_0, # of connection points: 2
#     Edge 79, Type (0, 0), BuildingBlock: EZIPEK_clean_linker_0, # of connection points: 2
#     Edge 80, Type (0, 0), BuildingBlock: EZIPEK_clean_linker_0, # of connection points: 2
#     Edge 81, Type (0, 0), BuildingBlock: EZIPEK_clean_linker_0, # of connection points: 2
#     Edge 82, Type (0, 0), BuildingBlock: EZIPEK_clean_linker_0, # of connection points: 2
#     Edge 83, Type (0, 0), BuildingBlock: EZIPEK_clean_linker_0, # of connection points: 2
#     Edge 84, Type (0, 0), BuildingBlock: EZIPEK_clean_linker_0, # of connection points: 2
#     Edge 85, Type (0, 0), BuildingBlock: EZIPEK_clean_linker_0, # of connection points: 2
#     Edge 86, Type (0, 0), BuildingBlock: EZIPEK_clean_linker_0, # of connection points: 2
#     Edge 87, Type (0, 0), BuildingBlock: EZIPEK_clean_linker_0, # of connection points: 2
#     Edge 88, Type (0, 0), BuildingBlock: EZIPEK_clean_linker_0, # of connection points: 2
#     Edge 89, Type (0, 0), BuildingBlock: EZIPEK_clean_linker_0, # of connection points: 2
#     Edge 90, Type (0, 0), BuildingBlock: EZIPEK_clean_linker_0, # of connection points: 2
#     Edge 91, Type (0, 0), BuildingBlock: EZIPEK_clean_linker_0, # of connection points: 2
#     Edge 92, Type (0, 0), BuildingBlock: EZIPEK_clean_linker_0, # of connection points: 2
#     Edge 93, Type (0, 0), BuildingBlock: EZIPEK_clean_linker_0, # of connection points: 2
#     Edge 94, Type (0, 0), BuildingBlock: EZIPEK_clean_linker_0, # of connection points: 2
#     Edge 95, Type (0, 0), BuildingBlock: EZIPEK_clean_linker_0, # of connection points: 2
#     Edge 96, Type (0, 0), BuildingBlock: EZIPEK_clean_linker_0, # of connection points: 2
#     Edge 97, Type (0, 0), BuildingBlock: EZIPEK_clean_linker_0, # of connection points: 2
#     Edge 98, Type (0, 0), BuildingBlock: EZIPEK_clean_linker_0, # of connection points: 2
#     Edge 99, Type (0, 0), BuildingBlock: EZIPEK_clean_linker_0, # of connection points: 2
#     Edge 100, Type (0, 0), BuildingBlock: EZIPEK_clean_linker_0, # of connection points: 2
#     Edge 101, Type (0, 0), BuildingBlock: EZIPEK_clean_linker_0, # of connection points: 2
#     Edge 102, Type (0, 0), BuildingBlock: EZIPEK_clean_linker_0, # of connection points: 2
#     Edge 103, Type (0, 0), BuildingBlock: EZIPEK_clean_linker_0, # of connection points: 2
#     Edge 104, Type (0, 0), BuildingBlock: EZIPEK_clean_linker_0, # of connection points: 2
#     Edge 105, Type (0, 0), BuildingBlock: EZIPEK_clean_linker_0, # of connection points: 2
#     Edge 106, Type (0, 0), BuildingBlock: EZIPEK_clean_linker_0, # of connection points: 2
#     Edge 107, Type (0, 0), BuildingBlock: EZIPEK_clean_linker_0, # of connection points: 2
#     Edge 108, Type (0, 0), BuildingBlock: EZIPEK_clean_linker_0, # of connection points: 2
#     Edge 109, Type (0, 0), BuildingBlock: EZIPEK_clean_linker_0, # of connection points: 2
#     Edge 110, Type (0, 0), BuildingBlock: EZIPEK_clean_linker_0, # of connection points: 2
#     Edge 111, Type (0, 0), BuildingBlock: EZIPEK_clean_linker_0, # of connection points: 2
#     Edge 112, Type (0, 0), BuildingBlock: EZIPEK_clean_linker_0, # of connection points: 2
#     Edge 113, Type (0, 0), BuildingBlock: EZIPEK_clean_linker_0, # of connection points: 2
#     Edge 114, Type (0, 0), BuildingBlock: EZIPEK_clean_linker_0, # of connection points: 2
#     Edge 115, Type (0, 0), BuildingBlock: EZIPEK_clean_linker_0, # of connection points: 2
#     Edge 116, Type (0, 0), BuildingBlock: EZIPEK_clean_linker_0, # of connection points: 2
#     Edge 117, Type (0, 0), BuildingBlock: EZIPEK_clean_linker_0, # of connection points: 2
#     Edge 118, Type (0, 0), BuildingBlock: EZIPEK_clean_linker_0, # of connection points: 2
#     Edge 119, Type (0, 0), BuildingBlock: EZIPEK_clean_linker_0, # of connection points: 2
#     Edge 120, Type (0, 0), BuildingBlock: EZIPEK_clean_linker_0, # of connection points: 2
#     Edge 121, Type (0, 0), BuildingBlock: EZIPEK_clean_linker_0, # of connection points: 2
#     Edge 122, Type (0, 0), BuildingBlock: EZIPEK_clean_linker_0, # of connection points: 2
#     Edge 123, Type (0, 0), BuildingBlock: EZIPEK_clean_linker_0, # of connection points: 2
#     Edge 124, Type (0, 0), BuildingBlock: EZIPEK_clean_linker_0, # of connection points: 2
#     Edge 125, Type (0, 0), BuildingBlock: EZIPEK_clean_linker_0, # of connection points: 2
# Relax obj value: 0.199
# Max RMSD: 0.195
# Mean RMSD: 0.195
data_MOF--net-wlt--node1-XOMCOT_clean_sbu_1--edge1-EZIPEK_clean_linker_0
_symmetry_space_group_name_H-M    P1
_symmetry_Int_Tables_number       1
_symmetry_cell_setting            triclinic
loop_
_symmetry_equiv_pos_as_xyz
'x, y, z'
_cell_length_a     49.975258
_cell_length_b     49.99041
_cell_length_c     38.524988
_cell_angle_alpha  90.102642
_cell_angle_beta   89.93066
_cell_angle_gamma 119.9913
loop_
_atom_site_label
_atom_site_type_symbol
_atom_site_fract_x
_atom_site_fract_y
_atom_site_fract_z
_atom_type_partial_charge
C0 C 0.19613 0.18226 0.05443 0.0
C1 C 0.17459 0.18425 0.03428 0.0
N2 N 0.18779 0.21273 0.02067 0.0
N3 N 0.22319 0.20912 0.05357 0.0
C4 C 0.21732 0.22753 0.03268 0.0
H5 H 0.1917 0.16307 0.07083 0.0
Co6 Co 0.25403 0.21314 0.08508 0.0
C7 C 0.30346 0.27987 0.08742 0.0
O8 O 0.30244 0.27543 0.12099 0.0
N9 N 0.28449 0.21504 0.11902 0.0
C10 C 0.30757 0.21589 0.16941 0.0
C11 C 0.28589 0.22092 0.15369 0.0
C12 C 0.30655 0.20676 0.11483 0.0
N13 N 0.32028 0.20662 0.14511 0.0
O14 O 0.26537 0.19052 0.05228 0.0
H15 H 0.27264 0.22911 0.1675 0.0
H16 H 0.31191 0.19996 0.09032 0.0
O17 O 0.28551 0.25664 0.06772 0.0
C18 C 0.25418 0.16249 0.06287 0.0
O19 O 0.24505 0.15653 0.09535 0.0
N20 N 0.23782 0.22937 0.11615 0.0
C21 C 0.21016 0.24557 0.16727 0.0
C22 C 0.2223 0.26439 0.138 0.0
C23 C 0.23632 0.2558 0.11241 0.0
C24 C 0.22037 0.20817 0.14057 0.0
C25 C 0.20735 0.21627 0.16736 0.0
H26 H 0.24615 0.27051 0.09005 0.0
H27 H 0.21887 0.18582 0.14072 0.0
H28 H 0.23348 0.2516 0.02793 0.0
H29 H 0.15062 0.1666 0.03101 0.0
H30 H 0.31324 0.21833 0.19678 0.0
H31 H 0.22296 0.28633 0.13627 0.0
H32 H 0.19681 0.20051 0.18892 0.0
C33 C 0.83609 0.02052 0.06162 0.0
C34 C 0.83376 0.99386 0.04841 0.0
N35 N 0.81345 0.98392 0.02205 0.0
N36 N 0.81718 0.0278 0.04418 0.0
C37 C 0.80398 1.00515 0.01957 0.0
H38 H 0.85021 0.03349 0.08349 0.0
Co39 Co 0.81395 0.06293 0.05926 0.0
C40 C 0.74508 0.0391 0.05956 0.0
O41 O 0.75008 0.05224 0.09027 0.0
N42 N 0.81325 0.10003 0.07471 0.0
C43 C 0.80214 0.13806 0.08071 0.0
C44 C 0.79436 0.11058 0.06421 0.0
C45 C 0.83405 0.1235 0.09541 0.0
N46 N 0.82726 0.14628 0.10044 0.0
O47 O 0.83538 0.08507 0.01723 0.0
H48 H 0.77644 0.09959 0.04491 0.0
H49 H 0.85469 0.12481 0.10593 0.0
O50 O 0.76876 0.04291 0.04136 0.0
C51 C 0.86332 0.09902 0.02885 0.0
O52 O 0.86728 0.09491 0.06173 0.0
N53 N 0.79865 0.04301 0.10154 0.0
C54 C 0.7853 0.0133 0.16477 0.0
C55 C 0.7688 0.99723 0.1354 0.0
C56 C 0.77604 0.01261 0.10374 0.0
C57 C 0.81577 0.05798 0.12992 0.0
C58 C 0.80871 0.04402 0.16206 0.0
H59 H 0.7646 0.99966 0.08076 0.0
H60 H 0.8365 0.0798 0.12757 0.0
H61 H 0.78766 1.00401 0.00044 0.0
H62 H 0.8455 0.98212 0.05805 0.0
H63 H 0.79084 0.15157 0.07747 0.0
H64 H 0.75148 0.97297 0.13676 0.0
H65 H 0.82283 0.05641 0.18426 0.0
C66 C 1.01634 0.84442 0.0477 0.0
C67 C 0.04389 0.86692 0.03413 0.0
N68 N 0.05937 0.85341 0.02165 0.0
N69 N 1.01391 0.81648 0.04371 0.0
C70 C 0.04077 0.82269 0.02786 0.0
H71 H 0.99915 0.84821 0.06026 0.0
Co72 Co 0.97935 0.78118 0.06267 0.0
C73 C 0.99965 0.7351 0.07963 0.0
O74 O 0.98363 0.73044 0.10826 0.0
N75 N 0.94364 0.74567 0.08148 0.0
C76 C 0.90269 0.69793 0.0817 0.0
C77 C 0.92903 0.71847 0.06416 0.0
C78 C 0.92533 0.74082 0.10965 0.0
N79 N 0.90047 0.71218 0.11019 0.0
O80 O 0.9577 0.77246 0.01782 0.0
H81 H 0.93671 0.71407 0.03968 0.0
H82 H 0.92884 0.7577 0.12914 0.0
O83 O 0.99982 0.75419 0.05651 0.0
C84 C 0.93979 0.78375 0.02342 0.0
O85 O 0.94105 0.79587 0.05406 0.0
N86 N 0.99745 0.79406 0.10557 0.0
C87 C 1.01637 0.81145 0.17271 0.0
C88 C 0.03602 0.80819 0.14924 0.0
C89 C 0.02601 0.79952 0.11514 0.0
C90 C 0.98228 0.80448 0.12579 0.0
C91 C 0.99019 0.8115 0.1603 0.0
H92 H 0.04051 0.7961 0.09694 0.0
H93 H 0.96279 0.80565 0.1156 0.0
H94 H 0.04677 0.80526 0.02138 0.0
H95 H 0.0521 0.89148 0.0336 0.0
H96 H 0.88611 0.67459 0.07386 0.0
H97 H 0.05747 0.80995 0.15782 0.0
H98 H 0.9754 0.81572 0.1773 0.0
C99 C 0.20731 0.1934 0.41889 0.0
C100 C 0.21217 0.17045 0.43142 0.0
N101 N 0.23515 0.18272 0.45482 0.0
N102 N 0.22676 0.2207 0.43433 0.0
C103 C 0.2433 0.21316 0.45654 0.0
H104 H 0.19124 0.19008 0.39844 0.0
Co105 Co 0.23111 0.26093 0.4243 0.0
C106 C 0.29412 0.26811 0.4005 0.0
O107 O 0.28672 0.23908 0.4035 0.0
N108 N 0.23648 0.30206 0.41427 0.0
C109 C 0.26166 0.35088 0.39441 0.0
C110 C 0.26462 0.32731 0.40886 0.0
C111 C 0.2168 0.3124 0.40468 0.0
N112 N 0.23149 0.34144 0.39134 0.0
O113 O 0.18992 0.24739 0.44683 0.0
H114 H 0.28651 0.32861 0.41363 0.0
H115 H 0.19201 0.29905 0.40627 0.0
O116 O 0.27399 0.27639 0.40625 0.0
C117 C 0.16185 0.2255 0.44318 0.0
O118 O 0.15511 0.20572 0.41767 0.0
N119 N 0.2136 0.24767 0.37867 0.0
C120 C 0.1987 0.24353 0.30867 0.0
C121 C 0.22107 0.23655 0.31998 0.0
C122 C 0.22802 0.23858 0.35519 0.0
C123 C 0.18891 0.2503 0.36788 0.0
C124 C 0.18116 0.24848 0.33304 0.0
H125 H 0.24555 0.23357 0.36319 0.0
H126 H 0.17541 0.2551 0.38561 0.0
H127 H 0.26186 0.22996 0.47266 0.0
H128 H 0.20025 0.14654 0.42314 0.0
H129 H 0.2803 0.37297 0.38571 0.0
H130 H 0.23451 0.23172 0.30154 0.0
H131 H 0.16318 0.25327 0.32508 0.0
C132 C 0.84409 1.00711 0.41776 0.0
C133 C 0.86782 0.03546 0.42744 0.0
N134 N 0.85715 0.04778 0.45092 0.0
N135 N 0.81779 1.00123 0.4341 0.0
C136 C 0.82659 0.02651 0.45468 0.0
H137 H 0.84592 0.99178 0.39935 0.0
Co138 Co 0.78003 0.96524 0.42132 0.0
C139 C 0.73321 0.98593 0.41398 0.0
O140 O 0.72408 0.96839 0.38612 0.0
N141 N 0.74247 0.92834 0.408 0.0
C142 C 0.6935 0.88933 0.40988 0.0
C143 C 0.71595 0.91535 0.42668 0.0
C144 C 0.73554 0.90875 0.38056 0.0
N145 N 0.7061 0.8853 0.38093 0.0
O146 O 0.77638 0.9464 0.4669 0.0
H147 H 0.71302 0.92447 0.45096 0.0
H148 H 0.75138 0.91051 0.3606 0.0
O149 O 0.75499 0.98658 0.43293 0.0
C150 C 0.79072 0.93125 0.46217 0.0
O151 O 0.80584 0.93569 0.43287 0.0
N152 N 0.78664 0.9803 0.37648 0.0
C153 C 0.79171 0.99039 0.30634 0.0
C154 C 0.78879 1.01112 0.32834 0.0
C155 C 0.787 1.00598 0.36396 0.0
C156 C 0.79573 0.96417 0.35591 0.0
C157 C 0.79673 0.96761 0.32031 0.0
H158 H 0.78496 0.02189 0.38105 0.0
H159 H 0.80018 0.947 0.36718 0.0
H160 H 0.81106 0.02936 0.47188 0.0
H161 H 0.89152 0.04604 0.41856 0.0
H162 H 0.6699 0.87447 0.41826 0.0
H163 H 0.7866 0.03008 0.318 0.0
H164 H 0.80056 0.95222 0.30389 0.0
C165 C 0.03084 0.84022 0.46605 0.0
C166 C 1.0023 0.83527 0.47625 0.0
N167 N 0.98076 0.80642 0.46717 0.0
N168 N 0.02805 0.81448 0.45117 0.0
C169 C 0.99692 0.79442 0.45156 0.0
H170 H 0.05223 0.86186 0.46824 0.0
Co171 Co 0.06255 0.81327 0.43051 0.0
C172 C 0.04164 0.74489 0.4223 0.0
O173 O 0.056 0.75186 0.39224 0.0
N174 N 0.09791 0.81335 0.40929 0.0
C175 C 0.1384 0.80602 0.40315 0.0
C176 C 0.11304 0.79984 0.42326 0.0
C177 C 0.11527 0.82821 0.38079 0.0
N178 N 0.13972 0.82384 0.37639 0.0
O179 O 0.08576 0.82697 0.47442 0.0
H180 H 0.10637 0.78668 0.44711 0.0
H181 H 0.11109 0.84291 0.3639 0.0
O182 O 0.04265 0.76703 0.44083 0.0
C183 C 0.10486 0.85608 0.47074 0.0
O184 O 0.10506 0.86901 0.44106 0.0
N185 N 0.04299 0.80604 0.38843 0.0
C186 C 0.02666 0.80801 0.32081 0.0
C187 C 1.00967 0.78097 0.34036 0.0
C188 C 0.01833 0.78044 0.37463 0.0
C189 C 0.05591 0.8335 0.37147 0.0
C190 C 0.04916 0.83482 0.33702 0.0
H191 H 1.00555 0.75954 0.38948 0.0
H192 H 0.07332 0.85419 0.38418 0.0
H193 H 0.98603 0.77183 0.43977 0.0
H194 H 0.99759 0.8519 0.48876 0.0
H195 H 0.15494 0.79852 0.40814 0.0
H196 H 0.9912 0.76021 0.32866 0.0
H197 H 0.0621 0.8563 0.3229 0.0
C198 C 0.83366 0.83535 0.93132 0.0
C199 C 0.85901 0.83241 0.93767 0.0
N200 N 0.85089 0.8084 0.95923 0.0
N201 N 0.80861 0.81259 0.94748 0.0
C202 C 0.82003 0.79667 0.96489 0.0
H203 H 0.83337 0.8525 0.91454 0.0
Co204 Co 0.7679 0.80607 0.93825 0.0
C205 C 0.73318 0.73804 0.91311 0.0
O206 O 0.72233 0.74552 0.88604 0.0
N207 N 0.72729 0.80046 0.92875 0.0
C208 C 0.67635 0.77875 0.91934 0.0
C209 C 0.69938 0.77514 0.9345 0.0
C210 C 0.71982 0.82007 0.91256 0.0
N211 N 0.68939 0.80706 0.90531 0.0
O212 O 0.7835 0.8511 0.94479 0.0
H213 H 0.69575 0.75458 0.94749 0.0
H214 H 0.73607 0.84346 0.9054 0.0
O215 O 0.751 0.75933 0.93475 0.0
C216 C 0.7795 0.86123 0.97383 0.0
O217 O 0.76632 0.84141 -0.00073 0.0
N218 N 0.77822 0.81141 0.88981 0.0
C219 C 0.78938 0.81364 0.8189 0.0
C220 C 0.79283 0.79287 0.83982 0.0
C221 C 0.78759 0.79244 0.87527 0.0
C222 C 0.77919 0.83465 0.87013 0.0
C223 C 0.78347 0.83546 0.83428 0.0
H224 H 0.79114 0.77668 0.89105 0.0
H225 H 0.7774 0.85322 0.8817 0.0
H226 H 0.80598 0.77664 0.98084 0.0
H227 H 0.88205 0.84726 0.9276 0.0
H228 H 0.65216 0.7614 0.91732 0.0
H229 H 0.79883 0.77664 0.82869 0.0
H230 H 0.78226 0.85287 0.81877 0.0
C231 C 0.19428 0.02366 0.93632 0.0
C232 C 0.19882 0.04834 0.95606 0.0
N233 N 0.22449 0.05765 0.97483 0.0
N234 N 0.21722 0.01707 0.94189 0.0
C235 C 0.23469 0.03784 0.96684 0.0
H236 H 0.17561 0.01226 0.91797 0.0
Co237 Co 0.22511 0.98882 0.91471 0.0
C238 C 0.28308 0.0208 0.92888 0.0
O239 O 0.27654 0.03408 0.90349 0.0
N240 N 0.2329 0.96154 0.88766 0.0
C241 C 0.25001 0.94605 0.84288 0.0
C242 C 0.25359 0.97116 0.86149 0.0
C243 C 0.21731 0.93022 0.88464 0.0
N244 N 0.22706 0.92023 0.85729 0.0
O245 O 0.19353 0.95247 0.94353 0.0
H246 H 0.26876 0.99506 0.85462 0.0
H247 H 0.1978 0.9151 0.90051 0.0
O248 O 0.26044 0.99729 0.94388 0.0
C249 C 0.16454 0.94247 0.94885 0.0
O250 O 0.15158 0.95735 0.93563 0.0
N251 N 0.19695 0.98569 0.88099 0.0
C252 C 0.17816 0.98921 0.81448 0.0
C253 C 0.20005 0.01587 0.83134 0.0
C254 C 0.20973 0.0134 0.8642 0.0
C255 C 0.1735 0.95984 0.86601 0.0
C256 C 0.16329 0.96123 0.83264 0.0
H257 H 0.2294 0.03343 0.87528 0.0
H258 H 0.16502 0.93767 0.87781 0.0
H259 H 0.25423 0.03832 0.97929 0.0
H260 H 0.18449 0.05895 0.95644 0.0
H261 H 0.26165 0.94683 0.81886 0.0
H262 H 0.2124 0.03764 0.81761 0.0
H263 H 0.14681 0.94011 0.81965 0.0
C264 C 0.03074 0.19717 0.95206 0.0
C265 C 1.00359 0.17272 0.96347 0.0
N266 N 0.98451 0.18307 0.97317 0.0
N267 N 0.02922 0.22344 0.9533 0.0
C268 C 1.00082 0.21411 0.96734 0.0
H269 H 0.04933 0.19515 0.94039 0.0
Co270 Co 0.05828 0.25889 0.92712 0.0
C271 C 1.00553 0.27127 0.89556 0.0
O272 O 1.00005 0.25656 0.86593 0.0
N273 N 0.08721 0.29385 0.89918 0.0
C274 C 0.1024 0.32071 0.84956 0.0
C275 C 0.07789 0.2995 0.86857 0.0
C276 C 0.11844 0.31313 0.89813 0.0
N277 N 0.12826 0.32848 0.86738 0.0
O278 O 0.09203 0.24943 0.94184 0.0
H279 H 0.05531 0.28576 0.85814 0.0
H280 H 0.13399 0.31462 0.91845 0.0
O281 O 0.02535 0.27137 0.9173 0.0
C282 C 0.11927 0.25323 0.93662 0.0
O283 O 0.13593 0.26877 0.90979 0.0
N284 N 0.04738 0.23253 0.88736 0.0
C285 C 0.03381 0.20692 0.82169 0.0
C286 C 1.00982 0.2006 0.84489 0.0
C287 C 1.01725 0.21342 0.87812 0.0
C288 C 0.07019 0.23362 0.86699 0.0
C289 C 0.06403 0.2213 0.83377 0.0
H290 H 0.99875 0.21047 0.89501 0.0
H291 H 0.09359 0.2468 0.8746 0.0
H292 H 0.99191 0.22946 0.97212 0.0
H293 H 0.99785 0.14876 0.96373 0.0
H294 H 0.10161 0.3264 0.82261 0.0
H295 H 0.98599 0.18888 0.8363 0.0
H296 H 0.08301 0.22586 0.81655 0.0
C297 C 0.84801 0.8326 0.5559 0.0
C298 C 0.84418 0.8566 0.54471 0.0
N299 N 0.81571 0.84481 0.53108 0.0
N300 N 0.82227 0.80541 0.54927 0.0
C301 C 0.80296 0.81364 0.53386 0.0
H302 H 0.86826 0.83486 0.56877 0.0
Co303 Co 0.81944 0.7678 0.56428 0.0
C304 C 0.75136 0.72241 0.57429 0.0
O305 O 0.76039 0.71674 0.60404 0.0
N306 N 0.8183 0.73035 0.57865 0.0
C307 C 0.80601 0.68069 0.57738 0.0
C308 C 0.80079 0.70278 0.5628 0.0
C309 C 0.83599 0.72464 0.60092 0.0
N310 N 0.82861 0.69461 0.601 0.0
O311 O 0.83501 0.76308 0.51905 0.0
H312 H 0.78552 0.699 0.54119 0.0
H313 H 0.85462 0.74195 0.6163 0.0
O314 O 0.77225 0.74215 0.55306 0.0
C315 C 0.86431 0.7747 0.52389 0.0
O316 O 0.87551 0.7859 0.55473 0.0
N317 N 0.81012 0.77606 0.6089 0.0
C318 C 0.80235 0.79341 0.6749 0.0
C319 C 0.78209 0.79035 0.64827 0.0
C320 C 0.78675 0.78218 0.6152 0.0
C321 C 0.83183 0.78238 0.63378 0.0
C322 C 0.82789 0.79007 0.6674 0.0
H323 H 0.77182 0.78126 0.59464 0.0
H324 H 0.85302 0.78292 0.62726 0.0
H325 H 0.7802 0.79731 0.52452 0.0
H326 H 0.86095 0.88097 0.54674 0.0
H327 H 0.79477 0.65647 0.57048 0.0
H328 H 0.76291 0.79419 0.65305 0.0
H329 H 0.84486 0.79395 0.68717 0.0
C330 C 0.23102 0.01774 0.5053 0.0
C331 C 0.20994 0.98897 0.49276 0.0
N332 N 0.19369 0.97113 0.51958 0.0
N333 N 0.22843 0.01886 0.5402 0.0
C334 C 0.20522 0.98954 0.5479 0.0
H335 H 0.24817 0.03615 0.48956 0.0
Co336 Co 0.25672 0.05487 0.56848 0.0
C337 C 0.28235 1.01127 0.57754 0.0
O338 O 0.25359 0.98923 0.58098 0.0
N339 N 0.28549 0.09007 0.59479 0.0
C340 C 0.33179 0.13034 0.60672 0.0
C341 C 0.31523 0.10626 0.58439 0.0
C342 C 0.28468 0.10495 0.62415 0.0
N343 N 0.31277 0.1297 0.63181 0.0
O344 O 0.27237 0.08138 0.52666 0.0
H345 H 0.32444 0.10078 0.56179 0.0
H346 H 0.26414 0.09766 0.63971 0.0
O347 O 0.28787 0.03889 0.56994 0.0
C348 C 0.25484 0.09358 0.52613 0.0
O349 O 0.23166 0.08265 0.54817 0.0
N350 N 0.23826 0.03439 0.60904 0.0
C351 C 0.20784 0.0138 0.67186 0.0
C352 C 0.19173 0.01416 0.64249 0.0
C353 C 0.20795 0.02648 0.61186 0.0
C354 C 0.25446 0.03469 0.63753 0.0
C355 C 0.23969 0.02473 0.66937 0.0
H356 H 0.19615 0.0294 0.58995 0.0
H357 H 0.27916 0.04405 0.63607 0.0
H358 H 0.19794 0.98076 0.57385 0.0
H359 H 0.20757 0.9813 0.46606 0.0
H360 H 0.35622 0.14701 0.60497 0.0
H361 H 0.16721 1.00619 0.64363 0.0
H362 H 0.25302 0.0255 0.6919 0.0
C363 C 1.01653 0.17625 0.56006 0.0
C364 C 0.0428 0.17919 0.5455 0.0
N365 N 0.05404 0.2028 0.52291 0.0
N366 N 1.01117 0.19841 0.54778 0.0
C367 C 0.03435 0.21416 0.52457 0.0
H368 H 1.00195 0.15856 0.57833 0.0
Co369 Co 0.97749 0.20123 0.5657 0.0
C370 C 0.99997 0.2689 0.57635 0.0
O371 O 0.98505 0.25994 0.606 0.0
N372 N 0.94241 0.20239 0.58418 0.0
C373 C 0.90213 0.21017 0.58812 0.0
C374 C 0.92773 0.21578 0.56879 0.0
C375 C 0.92457 0.18804 0.61233 0.0
N376 N 0.90041 0.19272 0.61545 0.0
O377 O 0.95595 0.18721 0.52127 0.0
H378 H 0.9349 0.22839 0.54461 0.0
H379 H 0.92799 0.17343 0.63006 0.0
O380 O 0.99893 0.24805 0.55536 0.0
C381 C 0.93784 0.15816 0.52683 0.0
O382 O 0.93785 0.14748 0.55792 0.0
N383 N 0.99598 0.2083 0.60909 0.0
C384 C 1.01723 0.20674 0.67453 0.0
C385 C 0.03412 0.23267 0.65342 0.0
C386 C 0.02339 0.23263 0.61999 0.0
C387 C 0.98211 0.18171 0.62791 0.0
C388 C 0.99177 0.18061 0.66114 0.0
H389 H 0.03709 0.25191 0.60317 0.0
H390 H 0.96321 0.161 0.61696 0.0
H391 H 0.03673 0.23335 0.50923 0.0
H392 H 0.05254 0.16446 0.55034 0.0
H393 H 0.8857 0.21762 0.5822 0.0
H394 H 0.05466 0.25285 0.66305 0.0
H395 H 0.97897 0.1599 0.67659 0.0
C396 C 0.86232 0.52351 0.37941 0.0
C397 C 0.84173 0.52879 0.36144 0.0
N398 N 0.85074 0.55901 0.36322 0.0
N399 N 0.88459 0.55002 0.3938 0.0
C400 C 0.87715 0.57147 0.38261 0.0
H401 H 0.85925 0.50096 0.38386 0.0
Co402 Co 0.91295 0.55187 0.42993 0.0
C403 C 0.94903 0.6124 0.42508 0.0
O404 O 0.9275 0.60614 0.44844 0.0
N405 N 0.94126 0.55414 0.46544 0.0
C406 C 0.96373 0.563 0.51757 0.0
C407 C 0.94564 0.56927 0.49586 0.0
C408 C 0.95748 0.53905 0.46938 0.0
N409 N 0.97067 0.54342 0.50126 0.0
O410 O 0.92072 0.52088 0.40208 0.0
H411 H 0.93468 0.58244 0.50291 0.0
H412 H 0.95796 0.52349 0.45023 0.0
O413 O 0.94742 0.58921 0.4083 0.0
C414 C 0.90587 0.49096 0.39982 0.0
O415 O 0.88023 0.47483 0.41739 0.0
N416 N 0.87893 0.52062 0.45649 0.0
C417 C 0.84467 0.50419 0.51793 0.0
C418 C 0.83676 0.51715 0.49056 0.0
C419 C 0.85508 0.52648 0.46082 0.0
C420 C 0.88256 0.50238 0.4804 0.0
C421 C 0.86613 0.49452 0.51171 0.0
H422 H 0.85238 0.54211 0.44401 0.0
H423 H 0.90055 0.49665 0.47747 0.0
H424 H 0.88967 0.59537 0.39021 0.0
H425 H 0.82077 0.51129 0.34908 0.0
H426 H 0.96954 0.57055 0.54424 0.0
H427 H 0.82005 0.52468 0.49441 0.0
H428 H 0.87224 0.48362 0.53205 0.0
C429 C 0.51495 0.34036 0.39213 0.0
C430 C 0.51035 0.31304 0.37807 0.0
N431 N 0.48813 0.30361 0.35381 0.0
N432 N 0.49558 0.34853 0.37733 0.0
C433 C 0.48024 0.32602 0.35308 0.0
H434 H 0.53146 0.35325 0.41223 0.0
Co435 Co 0.49309 0.38439 0.39128 0.0
C436 C 0.42511 0.33447 0.38475 0.0
O437 O 0.43088 0.31287 0.39519 0.0
N438 N 0.49148 0.42051 0.40533 0.0
C439 C 0.47508 0.45439 0.41264 0.0
C440 C 0.47048 0.42837 0.39496 0.0
C441 C 0.50915 0.4429 0.42878 0.0
N442 N 0.49932 0.46338 0.43405 0.0
O443 O 0.50352 0.40086 0.34472 0.0
H444 H 0.45244 0.41568 0.37615 0.0
H445 H 0.52862 0.44418 0.44237 0.0
O446 O 0.4473 0.36254 0.38196 0.0
C447 C 0.53311 0.41632 0.34425 0.0
O448 O 0.54812 0.41498 0.37151 0.0
N449 N 0.48812 0.37199 0.43783 0.0
C450 C 0.49445 0.37265 0.50969 0.0
C451 C 0.46561 0.35395 0.49394 0.0
C452 C 0.46264 0.35514 0.45804 0.0
C453 C 0.51663 0.38764 0.45269 0.0
C454 C 0.52017 0.38964 0.48848 0.0
H455 H 0.43976 0.34367 0.44763 0.0
H456 H 0.53667 0.40107 0.43658 0.0
H457 H 0.46306 0.32561 0.33574 0.0
H458 H 0.52213 0.30071 0.38548 0.0
H459 H 0.4612 0.4654 0.41064 0.0
H460 H 0.44512 0.34033 0.50949 0.0
H461 H 0.5428 0.40478 0.49943 0.0
C462 C 0.68809 0.16884 0.3761 0.0
C463 C 0.716 0.19166 0.36364 0.0
N464 N 0.73285 0.17876 0.35402 0.0
N465 N 0.68682 0.14125 0.37453 0.0
C466 C 0.71462 0.14804 0.36066 0.0
H467 H 0.66994 0.17228 0.38653 0.0
Co468 Co 0.6523 0.10651 0.395 0.0
C469 C 0.67209 0.05982 0.41191 0.0
O470 O 0.65734 0.05605 0.44135 0.0
N471 N 0.61648 0.07215 0.41612 0.0
C472 C 0.57623 0.02433 0.42273 0.0
C473 C 0.60136 0.0434 0.40236 0.0
C474 C 0.59917 0.06993 0.44451 0.0
N475 N 0.57504 0.04116 0.44923 0.0
O476 O 0.6303 0.09555 0.35065 0.0
H477 H 0.60797 0.03681 0.37851 0.0
H478 H 0.60317 0.08876 0.46137 0.0
O479 O 0.67217 0.07902 0.38913 0.0
C480 C 0.61226 0.10694 0.35334 0.0
O481 O 0.61338 0.12175 0.38193 0.0
N482 N 0.67086 0.12073 0.43743 0.0
C483 C 0.68337 0.13474 0.50617 0.0
C484 C 0.70294 0.12824 0.48627 0.0
C485 C 0.69643 0.12166 0.45115 0.0
C486 C 0.65684 0.13417 0.45456 0.0
C487 C 0.66159 0.13996 0.48972 0.0
H488 H 0.71067 0.11568 0.43586 0.0
H489 H 0.63933 0.13716 0.4417 0.0
H490 H 0.72141 0.13104 0.35543 0.0
H491 H 0.72341 0.21599 0.36164 0.0
H492 H 0.55981 1.00018 0.41814 0.0
H493 H 0.72112 0.12567 0.49828 0.0
H494 H 0.64692 0.14621 0.50423 0.0
C495 C 0.90792 0.55631 0.80796 0.0
C496 C 0.91118 0.53234 0.8202 0.0
N497 N 0.91157 0.51573 0.79299 0.0
N498 N 0.90602 0.55514 0.77295 0.0
C499 C 0.90868 0.53007 0.7645 0.0
H500 H 0.90754 0.57399 0.82381 0.0
Co501 Co 0.90297 0.58656 0.74804 0.0
C502 C 0.96386 0.62068 0.75224 0.0
O503 O 0.95707 0.60158 0.72601 0.0
N504 N 0.90055 0.61922 0.72418 0.0
C505 C 0.90753 0.66649 0.71477 0.0
C506 C 0.91558 0.64904 0.73499 0.0
C507 C 0.88337 0.61951 0.69686 0.0
N508 N 0.88685 0.64786 0.69118 0.0
O509 O 0.87184 0.58383 0.78505 0.0
H510 H 0.93048 0.65782 0.75737 0.0
H511 H 0.86763 0.59931 0.6822 0.0
O512 O 0.94129 0.61788 0.77133 0.0
C513 C 0.85053 0.59131 0.78599 0.0
O514 O 0.84795 0.60665 0.76 0.0
N515 N 0.87131 0.55661 0.7201 0.0
C516 C 0.84002 0.52407 0.66091 0.0
C517 C 0.87118 0.5336 0.66551 0.0
C518 C 0.88636 0.55014 0.69492 0.0
C519 C 0.84015 0.54535 0.71759 0.0
C520 C 0.82393 0.52889 0.68783 0.0
H521 H 0.911 0.55963 0.69659 0.0
H522 H 0.82802 0.55099 0.73654 0.0
H523 H 0.90884 0.52249 0.73825 0.0
H524 H 0.91336 0.52752 0.84712 0.0
H525 H 0.91497 0.69071 0.7183 0.0
H526 H 0.88436 0.53055 0.64507 0.0
H527 H 0.79985 0.5222 0.68467 0.0
C528 C 0.50726 0.33364 0.80847 0.0
C529 C 0.52925 0.35972 0.82532 0.0
N530 N 0.52581 0.38366 0.81584 0.0
N531 N 0.4894 0.34056 0.78839 0.0
C532 C 0.5014 0.37153 0.7937 0.0
H533 H 0.50492 0.31106 0.81056 0.0
Co534 Co 0.45847 0.31155 0.75701 0.0
C535 C 0.40944 0.32904 0.75165 0.0
O536 O 0.40775 0.32158 0.7188 0.0
N537 N 0.42728 0.28165 0.72463 0.0
C538 C 0.40329 0.25671 0.67584 0.0
C539 C 0.42716 0.28322 0.68941 0.0
C540 C 0.40214 0.25337 0.73138 0.0
N541 N 0.3877 0.23772 0.70204 0.0
O542 O 0.44588 0.27825 0.79214 0.0
H543 H 0.44268 0.30251 0.67365 0.0
H544 H 0.39507 0.2439 0.75717 0.0
O545 O 0.42834 0.32581 0.77182 0.0
C546 C 0.45566 0.26033 0.78065 0.0
O547 O 0.46573 0.26458 0.74848 0.0
N548 N 0.4756 0.34141 0.72245 0.0
C549 C 0.49693 0.36987 0.65919 0.0
C550 C 0.48486 0.3822 0.68326 0.0
C551 C 0.47357 0.36703 0.7149 0.0
C552 C 0.49408 0.33444 0.7031 0.0
C553 C 0.5038 0.34735 0.67049 0.0
H554 H 0.46214 0.37507 0.73214 0.0
H555 H 0.49759 0.31567 0.71096 0.0
H556 H 0.49296 0.38521 0.78137 0.0
H557 H 0.54664 0.36109 0.84313 0.0
H558 H 0.39796 0.25151 0.64856 0.0
H559 H 0.48108 0.40101 0.67617 0.0
H560 H 0.51406 0.33778 0.65332 0.0
C561 C 0.69218 0.16511 0.76313 0.0
C562 C 0.6661 0.16364 0.77672 0.0
N563 N 0.65388 0.14041 0.79971 0.0
N564 N 0.6964 0.14276 0.77726 0.0
C565 C 0.67266 0.12812 0.79988 0.0
H566 H 0.70727 0.1816 0.74405 0.0
Co567 Co 0.72932 0.1375 0.76287 0.0
C568 C 0.70273 0.06881 0.75517 0.0
O569 O 0.7172 0.07641 0.72516 0.0
N570 N 0.76407 0.13392 0.74785 0.0
C571 C 0.80149 0.12168 0.74602 0.0
C572 C 0.77532 0.11728 0.76333 0.0
C573 C 0.78472 0.14912 0.72205 0.0
N574 N 0.80708 0.14172 0.72008 0.0
O575 O 0.74944 0.15309 0.80775 0.0
H576 H 0.76525 0.10294 0.78599 0.0
H577 H 0.78467 0.16623 0.70527 0.0
O578 O 0.70584 0.09096 0.77558 0.0
C579 C 0.76775 0.182 0.80154 0.0
O580 O 0.76978 0.19159 0.76943 0.0
N581 N 0.7118 0.12865 0.71903 0.0
C582 C 0.69059 0.12636 0.65258 0.0
C583 C 0.67159 0.10407 0.67679 0.0
C584 C 0.68263 0.10588 0.71041 0.0
C585 C 0.72777 0.15283 0.69719 0.0
C586 C 0.71858 0.15142 0.66323 0.0
H587 H 0.66756 0.08953 0.72949 0.0
H588 H 0.74704 0.17397 0.70665 0.0
H589 H 0.66912 0.10895 0.81604 0.0
H590 H 0.65666 0.17832 0.77018 0.0
H591 H 0.81541 0.1113 0.75213 0.0
H592 H 0.64888 0.08548 0.66964 0.0
H593 H 0.7328 0.17016 0.64569 0.0
C594 C 0.50044 0.159 0.30768 0.0
C595 C 0.52103 0.15143 0.32209 0.0
N596 N 0.52147 0.12946 0.30242 0.0
N597 N 0.48766 0.142 0.27871 0.0
C598 C 0.501 0.12394 0.27659 0.0
H599 H 0.49685 0.17732 0.31691 0.0
Co600 Co 0.46391 0.14917 0.24423 0.0
C601 C 0.40897 0.08548 0.22625 0.0
O602 O 0.40775 0.09631 0.19565 0.0
N603 N 0.44098 0.15756 0.20886 0.0
C604 C 0.42825 0.1699 0.1579 0.0
C605 C 0.44821 0.16312 0.17468 0.0
C606 C 0.41622 0.162 0.2119 0.0
N607 N 0.4084 0.16983 0.18127 0.0
O608 O 0.44716 0.16555 0.27968 0.0
H609 H 0.46738 0.16347 0.16192 0.0
H610 H 0.40468 0.1605 0.2362 0.0
O611 O 0.42914 0.10392 0.2486 0.0
C612 C 0.46484 0.19515 0.27835 0.0
O613 O 0.48848 0.20598 0.25697 0.0
N614 N 0.4844 0.13966 0.21018 0.0
C615 C 0.51152 0.14063 0.14793 0.0
C616 C 0.49176 0.11226 0.16382 0.0
C617 C 0.4772 0.11234 0.19459 0.0
C618 C 0.50976 0.16635 0.19973 0.0
C619 C 0.52306 0.16771 0.16759 0.0
H620 H 0.4593 0.09074 0.20426 0.0
H621 H 0.51645 0.18756 0.21364 0.0
H622 H 0.49743 0.10826 0.25556 0.0
H623 H 0.53583 0.16243 0.34425 0.0
H624 H 0.42917 0.17599 0.13079 0.0
H625 H 0.4837 0.09074 0.14986 0.0
H626 H 0.53918 0.19001 0.15663 0.0
C627 C 0.86463 0.35188 0.28974 0.0
C628 C 0.86876 0.3761 0.31018 0.0
N629 N 0.89866 0.39289 0.31852 0.0
N630 N 0.89171 0.35231 0.28442 0.0
C631 C 0.91221 0.37802 0.30299 0.0
H632 H 0.84322 0.33701 0.27688 0.0
Co633 Co 0.89634 0.3245 0.25063 0.0
C634 C 0.95782 0.35707 0.25917 0.0
O635 O 0.95018 0.37619 0.24507 0.0
N636 N 0.90126 0.29784 0.21779 0.0
C637 C 0.91695 0.2843 0.16988 0.0
C638 C 0.92211 0.30819 0.19181 0.0
C639 C 0.88451 0.26686 0.21165 0.0
N640 N 0.89253 0.25822 0.18174 0.0
O641 O 0.86649 0.2857 0.27991 0.0
H642 H 0.93862 0.33199 0.18741 0.0
H643 H 0.86597 0.25102 0.22797 0.0
O644 O 0.93545 0.33184 0.27217 0.0
C645 C 0.83677 0.27214 0.28488 0.0
O646 O 0.82099 0.28425 0.27213 0.0
N647 N 0.86416 0.32252 0.22279 0.0
C648 C 0.84665 0.32792 0.15637 0.0
C649 C 0.86243 0.35425 0.17714 0.0
C650 C 0.87194 0.35104 0.21011 0.0
C651 C 0.84342 0.29668 0.20508 0.0
C652 C 0.83452 0.29885 0.17153 0.0
H653 H 0.8894 0.37163 0.22299 0.0
H654 H 0.83699 0.27415 0.21437 0.0
H655 H 0.93675 0.38652 0.30431 0.0
H656 H 0.85127 0.38196 0.31691 0.0
H657 H 0.92868 0.2864 0.14552 0.0
H658 H 0.87222 0.37708 0.16586 0.0
H659 H 0.82196 0.27807 0.15607 0.0
C660 C 0.69079 0.54017 0.30405 0.0
C661 C 0.66292 0.51612 0.31499 0.0
N662 N 0.64156 0.51111 0.29088 0.0
N663 N 0.6874 0.55045 0.27279 0.0
C664 C 0.65677 0.53221 0.26565 0.0
H665 H 0.71198 0.54946 0.31869 0.0
Co666 Co 0.71863 0.58365 0.24601 0.0
C667 C 0.68778 0.61318 0.24853 0.0
O668 O 0.67663 0.59305 0.22305 0.0
N669 N 0.74835 0.61607 0.21862 0.0
C670 C 0.766 0.64243 0.16955 0.0
C671 C 0.74021 0.62147 0.18719 0.0
C672 C 0.77955 0.63448 0.2196 0.0
N673 N 0.7909 0.65018 0.1895 0.0
O674 O 0.75043 0.58742 0.28096 0.0
H675 H 0.71709 0.60939 0.17668 0.0
H676 H 0.79392 0.63492 0.24073 0.0
O677 O 0.70851 0.6129 0.26819 0.0
C678 C 0.77201 0.60317 0.30291 0.0
O679 O 0.78109 0.63263 0.30647 0.0
N680 N 0.72583 0.55625 0.21986 0.0
C681 C 0.74082 0.54071 0.15648 0.0
C682 C 0.71038 0.53317 0.16366 0.0
C683 C 0.70333 0.54109 0.19569 0.0
C684 C 0.75472 0.56028 0.21478 0.0
C685 C 0.76244 0.55169 0.18342 0.0
H686 H 0.68109 0.53942 0.19888 0.0
H687 H 0.77325 0.57425 0.23237 0.0
H688 H 0.64568 0.53433 0.24258 0.0
H689 H 0.65854 0.50337 0.33901 0.0
H690 H 0.76664 0.65017 0.14317 0.0
H691 H 0.6931 0.52469 0.1433 0.0
H692 H 0.78618 0.55778 0.17858 0.0
C693 C 0.51006 0.15617 0.87062 0.0
C694 C 0.50714 0.18003 0.85778 0.0
N695 N 0.47765 0.16925 0.8481 0.0
N696 N 0.4824 0.12977 0.87032 0.0
C697 C 0.46294 0.13848 0.85585 0.0
H698 H 0.53108 0.15849 0.88137 0.0
Co699 Co 0.4779 0.09369 0.89371 0.0
C700 C 0.41707 0.0799 0.93332 0.0
O701 O 0.42954 0.09314 0.9629 0.0
N702 N 0.47344 0.0578 0.91809 0.0
C703 C 0.46856 0.02892 0.96464 0.0
C704 C 0.46277 0.0508 0.95108 0.0
C705 C 0.48415 0.038 0.91177 0.0
N706 N 0.48293 0.02153 0.94034 0.0
O707 O 0.52015 0.10422 0.87524 0.0
H708 H 0.45427 0.06299 0.96611 0.0
H709 H 0.49461 0.03713 0.88752 0.0
O710 O 0.43403 0.08084 0.90765 0.0
C711 C 0.54317 0.09945 0.8778 0.0
O712 O 0.54409 0.08116 0.90145 0.0
N713 N 0.49602 0.11881 0.93415 0.0
C714 C 0.51679 0.14603 -0.0014 0.0
C715 C 0.4976 0.15312 0.97883 0.0
C716 C 0.48768 0.13937 0.9462 0.0
C717 C 0.51842 0.1161 0.95123 0.0
C718 C 0.52912 0.12937 0.98345 0.0
H719 H 0.47115 0.14314 0.93212 0.0
H720 H 0.52587 0.10103 0.94202 0.0
H721 H 0.43853 0.12284 0.85171 0.0
H722 H 0.52557 0.20377 0.85529 0.0
H723 H 0.4653 0.02131 0.99139 0.0
H724 H 0.48773 0.16615 0.99 0.0
H725 H 0.54398 0.12347 -0.00196 0.0
C726 C 0.84717 0.34274 0.89611 0.0
C727 C 0.82407 0.31361 0.88732 0.0
N728 N 0.83633 0.29951 0.86864 0.0
N729 N 0.87445 0.34712 0.88423 0.0
C730 C 0.86703 0.32054 0.86686 0.0
H731 H 0.84458 0.3589 0.91249 0.0
Co732 Co 0.91252 0.37984 0.90126 0.0
C733 C 0.94758 0.34693 0.91682 0.0
O734 O 0.95403 0.36029 0.94749 0.0
N735 N 0.95136 0.41358 0.91848 0.0
C736 C 1.00194 0.44199 0.92942 0.0
C737 C 0.97952 0.41719 0.91156 0.0
C738 C 0.95825 0.43904 0.93805 0.0
N739 N 0.98877 0.45617 0.94594 0.0
O740 O 0.92353 0.39801 0.85544 0.0
H741 H 0.984 0.40303 0.89412 0.0
H742 H 0.94166 0.44576 0.94566 0.0
O743 O 0.93182 0.35305 0.89497 0.0
C744 C 0.91204 0.41591 0.85429 0.0
O745 O 0.89589 0.41628 0.88103 0.0
N746 N 0.89919 0.36443 0.94585 0.0
C747 C 0.87267 0.34414 0.01045 0.0
C748 C 0.87411 0.32342 0.98718 0.0
C749 C 0.88741 0.3341 0.95468 0.0
C750 C 0.89427 0.38349 0.96686 0.0
C751 C 0.88208 0.37421 -0.00013 0.0
H752 H 0.88756 0.31785 0.93632 0.0
H753 H 0.8984 0.40545 0.95746 0.0
H754 H 0.88393 0.31602 0.85475 0.0
H755 H 0.79999 0.30328 0.89459 0.0
H756 H 0.02644 0.44984 0.92909 0.0
H757 H 0.86599 0.29967 0.99452 0.0
H758 H 0.87987 0.39026 0.01693 0.0
C759 C 0.69782 0.5111 0.89971 0.0
C760 C 0.72448 0.51642 0.88341 0.0
N761 N 0.73579 0.5426 0.86475 0.0
N762 N 0.69178 0.53398 0.89256 0.0
C763 C 0.71522 0.55271 0.87045 0.0
H764 H 0.68487 0.49273 0.91805 0.0
Co765 Co 0.6615 0.53673 0.92171 0.0
C766 C 0.69021 0.60613 0.93148 0.0
O767 O 0.69304 0.60175 0.96444 0.0
N768 N 0.63065 0.53878 0.95246 0.0
C769 C 0.60846 0.5449 0.00041 0.0
C770 C 0.63547 0.54985 0.98551 0.0
C771 C 0.59965 0.52775 0.94817 0.0
N772 N 0.58574 0.53078 0.97719 0.0
O773 O 0.63107 0.52134 0.88365 0.0
H774 H 0.65698 0.55977 -0.00049 0.0
H775 H 0.58719 0.51705 0.92458 0.0
O776 O 0.67898 0.58279 0.91033 0.0
C777 C 0.61742 0.49158 0.88512 0.0
O778 O 0.62706 0.47929 0.90857 0.0
N779 N 0.68849 0.5445 0.95886 0.0
C780 C 0.723 0.54429 0.01516 0.0
C781 C 0.73741 0.5651 0.98769 0.0
C782 C 0.71954 0.56497 0.95965 0.0
C783 C 0.67555 0.52132 0.9827 0.0
C784 C 0.69192 0.5216 0.01185 0.0
H785 H 0.73045 0.58129 0.93878 0.0
H786 H 0.65181 0.50311 0.97968 0.0
H787 H 0.71805 0.574 0.86006 0.0
H788 H 0.73539 0.50248 0.88597 0.0
H789 H 0.60545 0.55005 0.02696 0.0
H790 H 0.76179 0.58211 0.98876 0.0
H791 H 0.68022 0.50444 0.03191 0.0
C792 C 0.52271 0.8424 0.69801 0.0
C793 C 0.50082 0.84864 0.68485 0.0
N794 N 0.50763 0.8771 0.69505 0.0
N795 N 0.54392 0.86679 0.71651 0.0
C796 C 0.53402 0.88775 0.714 0.0
H797 H 0.52232 0.82075 0.69502 0.0
Co798 Co 0.57629 0.86608 0.74313 0.0
C799 C 0.61889 0.93335 0.76462 0.0
O800 O 0.61886 0.92257 0.79571 0.0
N801 N 0.60902 0.86511 0.76943 0.0
C802 C 0.65765 0.8776 0.78209 0.0
C803 C 0.63902 0.88281 0.76026 0.0
C804 C 0.61024 0.848 0.7964 0.0
N805 N 0.6396 0.85533 0.80459 0.0
O806 O 0.59231 0.85595 0.7009 0.0
H807 H 0.64698 0.89815 0.73829 0.0
H808 H 0.59024 0.8299 0.8094 0.0
O809 O 0.60338 0.91389 0.73997 0.0
C810 C 0.57966 0.82622 0.703 0.0
O811 O 0.56121 0.81253 0.72938 0.0
N812 N 0.55671 0.86781 0.78336 0.0
C813 C 0.52367 0.8569 0.84435 0.0
C814 C 0.53428 0.88499 0.82677 0.0
C815 C 0.5507 0.88988 0.7957 0.0
C816 C 0.54258 0.83917 0.79785 0.0
C817 C 0.52661 0.83338 0.82877 0.0
H818 H 0.55859 0.91116 0.78188 0.0
H819 H 0.54444 0.82071 0.78584 0.0
H820 H 0.54553 0.91024 0.72616 0.0
H821 H 0.48074 0.83301 0.66974 0.0
H822 H 0.68255 0.88833 0.78055 0.0
H823 H 0.53156 0.90338 0.83796 0.0
H824 H 0.51791 0.81114 0.84129 0.0
C825 C 0.19408 0.69206 0.72048 0.0
C826 C 0.18931 0.66477 0.70621 0.0
N827 N 0.16115 0.6503 0.69152 0.0
N828 N 0.16907 0.6951 0.715 0.0
C829 C 0.14927 0.66919 0.69699 0.0
H830 H 0.21457 0.70873 0.7342 0.0
Co831 Co 0.1668 0.7295 0.73236 0.0
C832 C 0.0992 0.70157 0.75524 0.0
O833 O 0.11015 0.71817 0.78361 0.0
N834 N 0.16502 0.76495 0.74957 0.0
C835 C 0.14683 0.79689 0.76001 0.0
C836 C 0.14247 0.77138 0.7418 0.0
C837 C 0.18445 0.78909 0.7702 0.0
N838 N 0.17343 0.80821 0.77782 0.0
O839 O 0.17406 0.74731 0.68587 0.0
H840 H 0.12373 0.75831 0.72402 0.0
H841 H 0.2067 0.79345 0.77914 0.0
O842 O 0.11856 0.70403 0.73104 0.0
C843 C 0.20365 0.76536 0.68779 0.0
O844 O 0.21763 0.76556 0.71664 0.0
N845 N 0.16756 0.71628 0.77686 0.0
C846 C 0.17337 0.71032 0.8467 0.0
C847 C 0.14947 0.6858 0.82811 0.0
C848 C 0.14732 0.68912 0.79235 0.0
C849 C 0.19444 0.73609 0.79316 0.0
C850 C 0.19716 0.73469 0.82864 0.0
H851 H 0.12884 0.6709 0.77753 0.0
H852 H 0.21329 0.75417 0.77892 0.0
H853 H 0.12671 0.66423 0.68811 0.0
H854 H 0.20541 0.65623 0.70631 0.0
H855 H 0.13203 0.80696 0.75939 0.0
H856 H 0.13164 0.66567 0.8414 0.0
H857 H 0.21685 0.75317 0.84192 0.0
C858 C 0.34804 0.45321 0.66271 0.0
C859 C 0.37577 0.476 0.64923 0.0
N860 N 0.39185 0.49605 0.67477 0.0
N861 N 0.34624 0.45861 0.69672 0.0
C862 C 0.37349 0.48509 0.7032 0.0
H863 H 0.33069 0.43319 0.64885 0.0
Co864 Co 0.31428 0.42898 0.72631 0.0
C865 C 0.34584 0.39421 0.72643 0.0
O866 O 0.3311 0.3836 0.69692 0.0
N867 N 0.28305 0.39929 0.75684 0.0
C868 C 0.26231 0.36693 0.80175 0.0
C869 C 0.28728 0.38133 0.78001 0.0
C870 C 0.25477 0.39513 0.76555 0.0
N871 N 0.24216 0.376 0.79308 0.0
O872 O 0.283 0.43912 0.70705 0.0
H873 H 0.30786 0.37975 0.78299 0.0
H874 H 0.24401 0.4067 0.75302 0.0
O875 O 0.34319 0.41529 0.74232 0.0
C876 C 0.28156 0.45977 0.68872 0.0
O877 O 0.30718 0.48391 0.67792 0.0
N878 N 0.32562 0.45835 0.76311 0.0
C879 C 0.32903 0.47867 0.83073 0.0
C880 C 0.35339 0.47601 0.81675 0.0
C881 C 0.35111 0.46552 0.78285 0.0
C882 C 0.30453 0.46617 0.77494 0.0
C883 C 0.30571 0.47617 0.80891 0.0
H884 H 0.36888 0.46099 0.77378 0.0
H885 H 0.28427 0.46112 0.76033 0.0
H886 H 0.38049 0.49609 0.72822 0.0
H887 H 0.38394 0.47727 0.62292 0.0
H888 H 0.25957 0.35173 0.82314 0.0
H889 H 0.37206 0.47833 0.83311 0.0
H890 H 0.28665 0.47833 0.8191 0.0
C891 C 0.54075 0.86964 0.13108 0.0
C892 C 0.54791 0.84917 0.14668 0.0
N893 N 0.5695 0.84743 0.12745 0.0
N894 N 0.55763 0.88092 0.10181 0.0
C895 C 0.57551 0.86741 0.10086 0.0
H896 H 0.52286 0.87425 0.13965 0.0
Co897 Co 0.55309 0.90437 0.0653 0.0
C898 C 0.61402 0.94422 0.06006 0.0
O899 O 0.60714 0.92275 0.03644 0.0
N900 N 0.55095 0.92761 0.02708 0.0
C901 C 0.5481 0.9362 0.97066 0.0
C902 C 0.55385 0.9193 0.9945 0.0
C903 C 0.54605 0.95169 0.02213 0.0
N904 N 0.54231 0.95603 0.98815 0.0
O905 O 0.5236 0.91169 0.09693 0.0
H906 H 0.55814 0.9007 0.98859 0.0
H907 H 0.54489 0.9657 0.04279 0.0
O908 O 0.59196 0.94148 0.07991 0.0
C909 C 0.50269 0.91988 0.09639 0.0
O910 O 0.49776 0.93126 0.06815 0.0
N911 N 0.51766 0.86774 0.04759 0.0
C912 C 0.49335 0.83357 0.98841 0.0
C913 C 0.5054 0.82266 0.01369 0.0
C914 C 0.5198 0.84179 0.0422 0.0
C915 C 0.49546 0.87046 0.02983 0.0
C916 C 0.4837 0.85414 -0.001 0.0
H917 H 0.53628 0.83805 0.0557 0.0
H918 H 0.49168 0.8894 0.0345 0.0
H919 H 0.59037 0.86981 0.07922 0.0
H920 H 0.53666 0.83508 0.16924 0.0
H921 H 0.54624 0.93281 0.94281 0.0
H922 H 0.51029 0.80435 0.00766 0.0
H923 H 0.47163 0.8612 0.98126 0.0
C924 C 0.12753 0.67791 0.1517 0.0
C925 C 0.14974 0.70515 0.16684 0.0
N926 N 0.17404 0.71908 0.14511 0.0
N927 N 0.13751 0.67451 0.12033 0.0
C928 C 0.16627 0.69984 0.11746 0.0
H929 H 0.10477 0.6625 0.16204 0.0
Co930 Co 0.11309 0.64493 0.08533 0.0
C931 C 0.06586 0.66561 0.069 0.0
O932 O 0.0717 0.66501 0.03605 0.0
N933 N 0.08811 0.61506 0.04888 0.0
C934 C 0.06685 0.59648 -0.0032 0.0
C935 C 0.08604 0.6222 0.01535 0.0
C936 C 0.06994 0.58356 0.04903 0.0
N937 N 0.05709 0.57181 0.01744 0.0
O938 O 0.09687 0.61098 0.11976 0.0
H939 H 0.09815 0.64481 0.00377 0.0
H940 H 0.06669 0.56933 0.07151 0.0
O941 O 0.07922 0.65696 0.09173 0.0
C942 C 0.11797 0.60333 0.12244 0.0
O943 O 0.14419 0.62045 0.10606 0.0
N944 N 0.13373 0.67528 0.05272 0.0
C945 C 0.16203 0.7073 0.99372 0.0
C946 C 0.14992 0.71988 0.01738 0.0
C947 C 0.1356 0.70316 0.04739 0.0
C948 C 0.15172 0.66711 0.03419 0.0
C949 C 0.16533 0.68226 0.00372 0.0
H950 H 0.1248 0.71166 0.06508 0.0
H951 H 0.15232 0.64644 0.041 0.0
H952 H 0.18081 0.70505 0.09477 0.0
H953 H 0.14765 0.71469 0.19127 0.0
H954 H 0.06196 0.59572 0.96932 0.0
H955 H 0.1487 0.74034 0.011 0.0
H956 H 0.17575 0.67272 0.98671 0.0
C957 C 0.34603 0.50345 0.09653 0.0
C958 C 0.32061 0.49933 0.11473 0.0
N959 N 0.31175 0.47543 0.13652 0.0
N960 N 0.35396 0.48232 0.10616 0.0
C961 C 0.33271 0.4658 0.13139 0.0
H962 H 0.35722 0.52012 0.07598 0.0
Co963 Co 0.38618 0.4802 0.07934 0.0
C964 C 0.34306 0.40825 0.09127 0.0
O965 O 0.3174 0.4083 0.09808 0.0
N966 N 0.41774 0.4776 0.05196 0.0
C967 C 0.43651 0.46086 0.00951 0.0
C968 C 0.41031 0.45641 0.02634 0.0
C969 C 0.44928 0.49391 0.05084 0.0
N970 N 0.46109 0.48457 0.02469 0.0
O971 O 0.41471 0.49503 0.1188 0.0
H972 H 0.38696 0.43903 0.01957 0.0
H973 H 0.46351 0.51184 0.06902 0.0
O974 O 0.36853 0.43396 0.08676 0.0
C975 C 0.42612 0.52462 0.11694 0.0
O976 O 0.41273 0.53483 0.09571 0.0
N977 N 0.36261 0.47373 0.03945 0.0
C978 C 0.33624 0.4744 0.97675 0.0
C979 C 0.31777 0.45483 0.00334 0.0
C980 C 0.33154 0.45505 0.03492 0.0
C981 C 0.37958 0.49567 0.01529 0.0
C982 C 0.36714 0.49581 0.98332 0.0
H983 H 0.31707 0.44098 0.05561 0.0
H984 H 0.40332 0.51288 0.0206 0.0
H985 H 0.33204 0.44668 0.14522 0.0
H986 H 0.30876 0.5123 0.11133 0.0
H987 H 0.43747 0.44782 0.98755 0.0
H988 H 0.29339 0.43892 -0.00075 0.0
H989 H 0.38171 0.51198 0.96357 0.0
C990 C 0.16559 0.48966 0.59448 0.0
C991 C 0.18932 0.48695 0.60831 0.0
N992 N 0.17858 0.46793 0.63559 0.0
N993 N 0.13909 0.47258 0.61266 0.0
C994 C 0.14802 0.45938 0.63789 0.0
H995 H 0.1683 0.50403 0.57237 0.0
Co996 Co 0.09906 0.46869 0.60089 0.0
C997 C 0.07116 0.40039 0.60349 0.0
O998 O 0.07003 0.40343 0.63724 0.0
N999 N 0.05951 0.46498 0.58779 0.0
C1000 C 1.01616 0.44867 0.55654 0.0
C1001 C 0.03695 0.44096 0.56977 0.0
C1002 C 0.05114 0.48713 0.58503 0.0
N1003 N 0.02527 0.47789 0.56557 0.0
O1004 O 0.11274 0.51141 0.62052 0.0
H1005 H 0.03665 0.41984 0.56334 0.0
H1006 H 0.06497 0.51047 0.59464 0.0
O1007 O 0.08352 0.42487 0.58464 0.0
C1008 C 0.13726 0.53817 0.62288 0.0
O1009 O 0.16318 0.54276 0.60904 0.0
N1010 N 0.11319 0.48421 0.55542 0.0
C1011 C 0.12391 0.5011 0.4859 0.0
C1012 C 0.12649 0.47612 0.49809 0.0
C1013 C 0.12067 0.4678 0.53287 0.0
C1014 C 0.11327 0.51019 0.54412 0.0
C1015 C 0.11837 0.51893 0.50942 0.0
H1016 H 0.1221 0.44803 0.54149 0.0
H1017 H 0.1074 0.52345 0.56114 0.0
H1018 H 0.13253 0.44378 0.65741 0.0
H1019 H 0.21293 0.49825 0.59904 0.0
H1020 H 0.99722 0.43474 0.53913 0.0
H1021 H 0.13111 0.46204 0.48039 0.0
H1022 H 0.11605 0.53827 0.5007 0.0
C1023 C 0.52129 0.67213 0.60974 0.0
C1024 C 0.52655 0.70008 0.62252 0.0
N1025 N 0.55636 0.71689 0.63204 0.0
N1026 N 0.54748 0.67061 0.61113 0.0
C1027 C 0.56857 0.69841 0.62505 0.0
H1028 H 0.49974 0.65427 0.59895 0.0
Co1029 Co 0.54866 0.6364 0.59002 0.0
C1030 C 0.6157 0.65789 0.57526 0.0
O1031 O 0.60553 0.64499 0.54476 0.0
N1032 N 0.54869 0.60108 0.56862 0.0
C1033 C 0.55765 0.56147 0.5647 0.0
C1034 C 0.56222 0.58659 0.58414 0.0
C1035 C 0.53549 0.58353 0.53967 0.0
N1036 N 0.5409 0.55964 0.53668 0.0
O1037 O 0.53475 0.61269 0.63351 0.0
H1038 H 0.57443 0.59369 0.60859 0.0
H1039 H 0.52148 0.5872 0.52121 0.0
O1040 O 0.59586 0.65628 0.59828 0.0
C1041 C 0.50533 0.59555 0.62883 0.0
O1042 O 0.49364 0.59844 0.59955 0.0
N1043 N 0.55528 0.65641 0.54823 0.0
C1044 C 0.55658 0.67762 0.48227 0.0
C1045 C 0.58036 0.69581 0.50553 0.0
C1046 C 0.57908 0.68471 0.53898 0.0
C1047 C 0.52962 0.64201 0.52807 0.0
C1048 C 0.53024 0.65129 0.49423 0.0
H1049 H 0.59727 0.69843 0.55696 0.0
H1050 H 0.50896 0.62228 0.53793 0.0
H1051 H 0.59234 0.70514 0.62993 0.0
H1052 H 0.50981 0.70776 0.62419 0.0
H1053 H 0.56559 0.54548 0.57091 0.0
H1054 H 0.60028 0.71724 0.49731 0.0
H1055 H 0.51078 0.63756 0.47732 0.0
C1056 C 0.34622 0.86544 0.56924 0.0
C1057 C 0.31746 0.84252 0.57889 0.0
N1058 N 0.31092 0.84923 0.61036 0.0
N1059 N 0.35851 0.88783 0.59382 0.0
C1060 C 0.3363 0.87673 0.61921 0.0
H1061 H 0.35704 0.86507 0.54527 0.0
Co1062 Co 0.39817 0.92593 0.58788 0.0
C1063 C 0.35146 0.94807 0.59215 0.0
O1064 O 0.3312 0.92231 0.57695 0.0
N1065 N 0.43717 0.96266 0.58118 0.0
C1066 C 0.47393 0.01226 0.57701 0.0
C1067 C 0.4463 0.99154 0.59267 0.0
C1068 C 0.46032 0.96652 0.55947 0.0
N1069 N 0.48238 0.99639 0.55574 0.0
O1070 O 0.41022 0.92385 0.63587 0.0
H1071 H 0.43307 0.99752 0.61 0.0
H1072 H 0.46077 0.94809 0.54538 0.0
O1073 O 0.37856 0.95234 0.59925 0.0
C1074 C 0.42591 0.90983 0.63372 0.0
O1075 O 0.42714 0.89829 0.60355 0.0
N1076 N 0.39111 0.9262 0.5403 0.0
C1077 C 0.39499 0.92523 0.46856 0.0
C1078 C 0.37993 0.93924 0.48461 0.0
C1079 C 0.37943 0.94068 0.52065 0.0
C1080 C 0.4052 0.91199 0.52469 0.0
C1081 C 0.40873 0.91251 0.48905 0.0
H1082 H 0.37032 0.95401 0.53178 0.0
H1083 H 0.41475 0.90091 0.54036 0.0
H1084 H 0.3385 0.88868 0.64341 0.0
H1085 H 0.30257 0.82188 0.56413 0.0
H1086 H 0.4859 0.03716 0.57943 0.0
H1087 H 0.36951 0.94984 0.46937 0.0
H1088 H 0.42115 0.90209 0.47754 0.0
C1089 C 0.17993 0.50272 0.19467 0.0
C1090 C 0.17278 0.52195 0.17629 0.0
N1091 N 0.14336 0.51399 0.18304 0.0
N1092 N 0.15516 0.48201 0.21312 0.0
C1093 C 0.13297 0.48944 0.2049 0.0
H1094 H 0.20262 0.50522 0.19588 0.0
Co1095 Co 0.15838 0.45731 0.25008 0.0
C1096 C 0.09175 0.40454 0.26229 0.0
O1097 O 0.09827 0.40627 0.29537 0.0
N1098 N 0.16311 0.43374 0.28874 0.0
C1099 C 0.16408 0.41763 0.34297 0.0
C1100 C 0.15527 0.43416 0.32247 0.0
C1101 C 0.17733 0.41639 0.29033 0.0
N1102 N 0.17853 0.40675 0.32312 0.0
O1103 O 0.17813 0.44095 0.21764 0.0
H1104 H 0.14319 0.44531 0.33245 0.0
H1105 H 0.18704 0.4111 0.2681 0.0
O1106 O 0.11365 0.42239 0.2411 0.0
C1107 C 0.20793 0.45719 0.21978 0.0
O1108 O 0.2195 0.47987 0.24251 0.0
N1109 N 0.14505 0.47711 0.28072 0.0
C1110 C 0.13328 0.50159 0.33886 0.0
C1111 C 0.11012 0.48655 0.31387 0.0
C1112 C 0.11626 0.4734 0.28523 0.0
C1113 C 0.1692 0.498 0.30026 0.0
C1114 C 0.1637 0.50965 0.3305 0.0
H1115 H 0.09737 0.45886 0.26832 0.0
H1116 H 0.19224 0.50221 0.29489 0.0
H1117 H 0.11002 0.4782 0.21564 0.0
H1118 H 0.18847 0.54124 0.16024 0.0
H1119 H 0.16101 0.41463 0.3708 0.0
H1120 H 0.08665 0.4813 0.3189 0.0
H1121 H 0.18248 0.52222 0.34862 0.0
C1122 C 0.52605 0.67914 0.20689 0.0
C1123 C 0.50355 0.65119 0.19402 0.0
N1124 N 0.51719 0.6358 0.18169 0.0
N1125 N 0.55409 0.68174 0.203 0.0
C1126 C 0.54795 0.6549 0.18714 0.0
H1127 H 0.52212 0.69633 0.2192 0.0
Co1128 Co 0.58952 0.71601 0.22265 0.0
C1129 C 0.63367 0.69325 0.24074 0.0
O1130 O 0.63846 0.70867 0.26989 0.0
N1131 N 0.62485 0.75138 0.24258 0.0
C1132 C 0.67361 0.78983 0.24911 0.0
C1133 C 0.65386 0.76436 0.22958 0.0
C1134 C 0.62767 0.77031 0.26948 0.0
N1135 N 0.65691 0.79348 0.27407 0.0
O1136 O 0.60076 0.73687 0.17772 0.0
H1137 H 0.66028 0.7558 0.20712 0.0
H1138 H 0.60897 0.76812 0.2854 0.0
O1139 O 0.61508 0.69416 0.21784 0.0
C1140 C 0.58964 0.75517 0.18011 0.0
O1141 O 0.57473 0.75429 0.20852 0.0
N1142 N 0.5751 0.69876 0.26583 0.0
C1143 C 0.55838 0.68588 0.3342 0.0
C1144 C 0.56409 0.66561 0.3146 0.0
C1145 C 0.57218 0.67241 0.27982 0.0
C1146 C 0.56296 0.71421 0.28261 0.0
C1147 C 0.55599 0.70932 0.31755 0.0
H1148 H 0.57712 0.65729 0.26488 0.0
H1149 H 0.56105 0.73223 0.26946 0.0
H1150 H 0.56546 0.64953 0.17927 0.0
H1151 H 0.47891 0.64264 0.19391 0.0
H1152 H 0.6982 0.80463 0.24522 0.0
H1153 H 0.56446 0.64622 0.32664 0.0
H1154 H 0.5503 0.72457 0.33169 0.0
C1155 C 0.35526 0.85901 0.21615 0.0
C1156 C 0.38193 0.86221 0.20199 0.0
N1157 N 0.39323 0.88563 0.17911 0.0
N1158 N 0.34928 0.88048 0.20298 0.0
C1159 C 0.37288 0.89637 0.17999 0.0
H1160 H 0.3414 0.84248 0.23588 0.0
Co1161 Co 0.31526 0.88297 0.22292 0.0
C1162 C 0.33565 0.95059 0.22738 0.0
O1163 O 0.32383 0.94357 0.25876 0.0
N1164 N 0.27954 0.88326 0.24324 0.0
C1165 C 0.23941 0.89154 0.24723 0.0
C1166 C 0.26541 0.89751 0.22852 0.0
C1167 C 0.26015 0.86723 0.27004 0.0
N1168 N 0.23621 0.87251 0.27344 0.0
O1169 O 0.29005 0.86337 0.18177 0.0
H1170 H 0.273 0.91077 0.2048 0.0
H1171 H 0.26205 0.85065 0.28605 0.0
O1172 O 0.3333 0.92855 0.20726 0.0
C1173 C 0.27508 0.83446 0.18963 0.0
O1174 O 0.28075 0.82616 0.21983 0.0
N1175 N 0.3382 0.89696 0.26364 0.0
C1176 C 0.37125 0.91191 0.32495 0.0
C1177 C 0.38528 0.92846 0.29479 0.0
C1178 C 0.36813 0.92066 0.2643 0.0
C1179 C 0.32633 0.87805 0.2915 0.0
C1180 C 0.34155 0.88607 0.32302 0.0
H1181 H 0.37927 0.9328 0.24098 0.0
H1182 H 0.30597 0.8558 0.28885 0.0
H1183 H 0.37551 0.91573 0.16481 0.0
H1184 H 0.39238 0.84833 0.20808 0.0
H1185 H 0.22364 0.89986 0.24152 0.0
H1186 H 0.409 0.94723 0.29492 0.0
H1187 H 0.33076 0.87143 0.34537 0.0
C1188 C 0.17168 0.23233 0.25085 0.0
C1189 C 0.19775 0.25094 0.27188 0.0
C1190 C 0.22875 0.27727 0.22108 0.0
C1191 C 0.20357 0.25659 0.19991 0.0
N1192 N 0.14889 0.22397 0.19334 0.0
N1193 N 0.24609 0.29872 0.27836 0.0
C1194 C 0.17403 0.23784 0.21462 0.0
C1195 C 0.2245 0.2762 0.25737 0.0
N1196 N 0.14581 0.2081 0.2649 0.0
N1197 N 0.25742 0.29571 0.20719 0.0
H1198 H 0.2441 0.29823 0.30532 0.0
H1199 H 0.26441 0.31924 0.26888 0.0
H1200 H 0.26183 0.29859 0.1807 0.0
H1201 H 0.27735 0.30735 0.22219 0.0
H1202 H 0.12739 0.1919 0.25007 0.0
H1203 H 0.14358 0.20292 0.2913 0.0
H1204 H 0.12627 0.21143 0.20243 0.0
H1205 H 0.15092 0.22775 0.16656 0.0
C1206 C 0.80744 0.99598 0.21015 0.0
C1207 C 0.78174 0.9978 0.19799 0.0
C1208 C 0.75894 0.98562 0.25555 0.0
C1209 C 0.78782 0.99129 0.26878 0.0
N1210 N 0.84102 1.00499 0.25898 0.0
N1211 N 0.73281 0.99502 0.20843 0.0
C1212 C 0.81243 0.99685 0.24618 0.0
C1213 C 0.75706 0.99227 0.22032 0.0
N1214 N 0.82743 0.99451 0.18706 0.0
N1215 N 0.73339 0.97352 0.27641 0.0
H1216 H 0.73036 0.99919 0.18244 0.0
H1217 H 0.7161 0.99493 0.22472 0.0
H1218 H 0.73378 0.96768 0.30231 0.0
H1219 H 0.71127 0.96643 0.26711 0.0
H1220 H 0.84535 0.99079 0.19453 0.0
H1221 H 0.82398 0.99382 0.16027 0.0
H1222 H 0.8604 0.0122 0.24325 0.0
H1223 H 0.84615 1.00747 0.28542 0.0
C1224 C 1.01758 0.83069 0.26743 0.0
C1225 C 0.02303 0.80815 0.28294 0.0
C1226 C 0.0214 0.78615 0.22622 0.0
C1227 C 0.02091 0.81152 0.21044 0.0
N1228 N 0.02588 0.86193 0.21646 0.0
N1229 N 0.0397 0.77048 0.27548 0.0
C1230 C 0.02131 0.83514 0.23119 0.0
C1231 C 0.02785 0.78763 0.26194 0.0
N1232 N 1.00798 0.84712 0.28703 0.0
N1233 N 1.01402 0.75992 0.2079 0.0
H1234 H 0.04676 0.77221 0.30124 0.0
H1235 H 0.04582 0.75724 0.25999 0.0
H1236 H 1.00624 0.75648 0.18233 0.0
H1237 H 1.0119 0.74014 0.21957 0.0
H1238 H 1.00131 0.86199 0.27622 0.0
H1239 H 1.00353 0.84336 0.31358 0.0
H1240 H 0.02883 0.88079 0.23108 0.0
H1241 H 0.02996 0.86642 0.18996 0.0
C1242 C 0.81823 0.82927 0.72579 0.0
C1243 C 0.79711 0.80042 0.71065 0.0
C1244 C 0.76695 0.78472 0.76418 0.0
C1245 C 0.79076 0.81122 0.78087 0.0
N1246 N 0.84075 0.85756 0.77892 0.0
N1247 N 0.75344 0.74878 0.71651 0.0
C1248 C 0.8168 0.83341 0.76203 0.0
C1249 C 0.77181 0.77766 0.73 0.0
N1250 N 0.83923 0.8528 0.70541 0.0
N1251 N 0.73962 0.76648 0.78096 0.0
H1252 H 0.75648 0.74233 0.69172 0.0
H1253 H 0.73686 0.73036 0.73103 0.0
H1254 H 0.7352 0.77113 0.80608 0.0
H1255 H 0.72033 0.7486 0.76881 0.0
H1256 H 0.85323 0.87525 0.71448 0.0
H1257 H 0.84059 0.85061 0.67862 0.0
H1258 H 0.86179 0.87243 0.76708 0.0
H1259 H 0.84054 0.86139 0.80551 0.0
C1260 C 0.19643 0.97891 0.75873 0.0
C1261 C 0.17862 0.98959 0.77629 0.0
C1262 C 0.17694 0.01537 0.7234 0.0
C1263 C 0.19209 1.00171 0.70545 0.0
N1264 N 0.20503 0.96118 0.70407 0.0
N1265 N 0.14636 0.01261 0.77374 0.0
C1266 C 0.19737 0.97979 0.7224 0.0
C1267 C 0.16655 1.00565 0.75788 0.0
N1268 N 0.2156 0.97166 0.77637 0.0
N1269 N 0.17488 0.03927 0.70916 0.0
H1270 H 0.13894 1.00603 0.79925 0.0
H1271 H 0.13502 0.02225 0.76056 0.0
H1272 H 0.18392 0.04866 0.68495 0.0
H1273 H 0.16677 0.05177 0.72288 0.0
H1274 H 0.23094 0.96642 0.76384 0.0
H1275 H 0.21875 0.97436 0.80313 0.0
H1276 H 0.20768 0.94389 0.71593 0.0
H1277 H 0.20548 0.96108 0.67697 0.0
C1278 C 1.01508 0.22553 0.73328 0.0
C1279 C 0.02326 0.20777 0.71183 0.0
C1280 C 0.0338 0.18554 0.76284 0.0
C1281 C 0.02875 0.20581 0.78396 0.0
N1282 N 0.0235 0.25135 0.78803 0.0
N1283 N 0.04458 0.17418 0.70494 0.0
C1284 C 0.02189 0.22759 0.76887 0.0
C1285 C 0.03389 0.18868 0.72624 0.0
N1286 N 0.99978 0.23956 0.72005 0.0
N1287 N 0.03786 0.16305 0.77778 0.0
H1288 H 0.04511 0.17634 0.67798 0.0
H1289 H 0.05526 0.16223 0.71401 0.0
H1290 H 0.03779 0.16024 0.80462 0.0
H1291 H 0.03878 0.14573 0.7637 0.0
H1292 H 0.99039 0.24983 0.73569 0.0
H1293 H 0.99375 0.23842 0.69396 0.0
H1294 H 0.02186 0.26958 0.7772 0.0
H1295 H 0.03 0.25477 0.81393 0.0
C1296 C 0.81909 0.48537 0.61247 0.0
C1297 C 0.82771 0.51521 0.62515 0.0
C1298 C 0.84501 0.5371 0.56769 0.0
C1299 C 0.836 0.5072 0.55421 0.0
N1300 N 0.80746 0.45197 0.56211 0.0
N1301 N 0.83732 0.56636 0.61269 0.0
C1302 C 0.82055 0.48092 0.57608 0.0
C1303 C 0.83607 0.53978 0.60172 0.0
N1304 N 0.81093 0.46179 0.63543 0.0
N1305 N 0.86472 0.56322 0.54968 0.0
H1306 H 0.83072 0.56869 0.63769 0.0
H1307 H 0.84137 0.58435 0.59592 0.0
H1308 H 0.87501 0.56298 0.52626 0.0
H1309 H 0.874 0.58534 0.56014 0.0
H1310 H 0.80782 0.44028 0.62844 0.0
H1311 H 0.80849 0.46448 0.66193 0.0
H1312 H 0.79388 0.43196 0.57634 0.0
H1313 H 0.808 0.4482 0.53553 0.0
C1314 C 0.47557 0.38041 0.5673 0.0
C1315 C 0.49728 0.37595 0.54813 0.0
C1316 C 0.52471 0.38092 0.60223 0.0
C1317 C 0.49873 0.37684 0.62145 0.0
N1318 N 0.4448 0.36399 0.61894 0.0
N1319 N 0.53936 0.36488 0.55014 0.0
C1320 C 0.47284 0.37448 0.60328 0.0
C1321 C 0.52129 0.3745 0.56624 0.0
N1322 N 0.45775 0.39044 0.55157 0.0
N1323 N 0.55235 0.39041 0.61826 0.0
H1324 H 0.53559 0.35664 0.52471 0.0
H1325 H 0.55556 0.36151 0.56355 0.0
H1326 H 0.55578 0.39642 0.64451 0.0
H1327 H 0.57234 0.39541 0.60456 0.0
H1328 H 0.44308 0.39571 0.56557 0.0
H1329 H 0.46048 0.39701 0.52556 0.0
H1330 H 0.42526 0.36016 0.60511 0.0
H1331 H 0.4398 0.35517 0.64403 0.0
C1332 C 0.67948 0.10084 0.59439 0.0
C1333 C 0.68173 0.12481 0.61604 0.0
C1334 C 0.6861 0.15598 0.56567 0.0
C1335 C 0.68219 0.13138 0.54404 0.0
N1336 N 0.66332 0.07649 0.5384 0.0
N1337 N 0.67674 0.17012 0.62252 0.0
C1338 C 0.67507 0.10247 0.55853 0.0
C1339 C 0.68133 0.15066 0.60166 0.0
N1340 N 0.6834 0.07759 0.60735 0.0
N1341 N 0.6958 0.18468 0.55224 0.0
H1342 H 0.67249 0.16619 0.6491 0.0
H1343 H 0.67393 0.18803 0.61286 0.0
H1344 H 0.70093 0.18984 0.52601 0.0
H1345 H 0.70163 0.20396 0.56769 0.0
H1346 H 0.68514 0.06163 0.59145 0.0
H1347 H 0.6877 0.07575 0.63342 0.0
H1348 H 0.65543 0.05454 0.54875 0.0
H1349 H 0.65808 0.07629 0.51218 0.0
C1350 C 0.54282 0.15888 0.09266 0.0
C1351 C 0.5137 0.14263 0.10961 0.0
C1352 C 0.48803 0.12677 0.05376 0.0
C1353 C 0.51614 0.14683 0.03679 0.0
N1354 N 0.5702 0.18497 0.04005 0.0
N1355 N 0.45772 0.11942 0.10443 0.0
C1356 C 0.54361 0.16397 0.05626 0.0
C1357 C 0.48603 0.12922 0.08971 0.0
N1358 N 0.56946 0.16821 0.11091 0.0
N1359 N 0.46367 0.10381 0.03611 0.0
H1360 H 0.45418 0.12116 0.13066 0.0
H1361 H 0.43784 0.11245 0.08961 0.0
H1362 H 0.46515 0.09892 0.01021 0.0
H1363 H 0.4437 0.08703 0.04843 0.0
H1364 H 0.59112 0.17774 0.09923 0.0
H1365 H 0.56958 0.16365 0.13731 0.0
H1366 H 0.59028 0.20008 0.05343 0.0
H1367 H 0.57125 0.18898 0.01337 0.0
C1368 C 0.8282 0.32599 0.09527 0.0
C1369 C 0.85205 0.33052 0.11851 0.0
C1370 C 0.88642 0.33685 0.06993 0.0
C1371 C 0.86385 0.33568 0.04691 0.0
N1372 N 0.81368 0.32969 0.03604 0.0
N1373 N 0.90468 0.34219 0.12868 0.0
C1374 C 0.83471 0.3302 0.0591 0.0
C1375 C 0.8813 0.33627 0.10601 0.0
N1376 N 0.79945 0.31749 0.10788 0.0
N1377 N 0.91281 0.33842 0.05731 0.0
H1378 H 0.90178 0.33996 0.15538 0.0
H1379 H 0.92764 0.35113 0.12134 0.0
H1380 H 0.91888 0.34126 0.03115 0.0
H1381 H 0.92785 0.33464 0.07243 0.0
H1382 H 0.78014 0.31086 0.09231 0.0
H1383 H 0.79444 0.31539 0.13437 0.0
H1384 H 0.7934 0.32925 0.04326 0.0
H1385 H 0.81715 0.33093 0.00923 0.0
C1386 C 0.73808 0.51976 0.0622 0.0
C1387 C 0.73895 0.5466 0.04852 0.0
C1388 C 0.7602 0.57283 0.10347 0.0
C1389 C 0.75039 0.54396 0.1195 0.0
N1390 N 0.73251 0.48979 0.11408 0.0
N1391 N 0.74809 0.59851 0.05882 0.0
C1392 C 0.74063 0.51738 0.0987 0.0
C1393 C 0.75006 0.57347 0.06948 0.0
N1394 N 0.73428 0.49661 0.04034 0.0
N1395 N 0.77821 0.59961 0.12102 0.0
H1396 H 0.73873 0.59976 0.03521 0.0
H1397 H 0.7529 0.617 0.07521 0.0
H1398 H 0.78591 0.5999 0.1461 0.0
H1399 H 0.78837 0.62119 0.10907 0.0
H1400 H 0.73546 0.47737 0.0485 0.0
H1401 H 0.73293 0.49831 0.01346 0.0
H1402 H 0.72187 0.4688 0.10084 0.0
H1403 H 0.73557 0.48811 0.14064 0.0
C1404 C 0.47591 0.82409 0.92626 0.0
C1405 C 0.50016 0.833 0.95078 0.0
C1406 C 0.53825 0.8632 0.90607 0.0
C1407 C 0.51441 0.85286 0.88117 0.0
N1408 N 0.46091 0.82084 0.86568 0.0
N1409 N 0.55537 0.85192 0.95904 0.0
C1410 C 0.48326 0.83243 0.89072 0.0
C1411 C 0.53157 0.84972 0.93935 0.0
N1412 N 0.44593 0.80795 0.93723 0.0
N1413 N 0.56767 0.88583 0.89801 0.0
H1414 H 0.55324 0.84191 0.98308 0.0
H1415 H 0.57773 0.86079 0.94945 0.0
H1416 H 0.57446 0.89559 0.87346 0.0
H1417 H 0.58478 0.89709 0.91673 0.0
H1418 H 0.42713 0.80385 0.92186 0.0
H1419 H 0.44 0.79946 0.96249 0.0
H1420 H 0.43832 0.80325 0.87007 0.0
H1421 H 0.46544 0.82808 0.83987 0.0
C1422 C 0.14158 0.71031 0.93532 0.0
C1423 C 0.16707 0.71619 0.95684 0.0
C1424 C 0.19647 0.71685 0.90606 0.0
C1425 C 0.17173 0.71288 0.88461 0.0
N1426 N 0.12642 0.71829 0.87873 0.0
N1427 N 0.22154 0.73442 0.96184 0.0
C1428 C 0.14611 0.7137 0.89916 0.0
C1429 C 0.19562 0.72297 0.94175 0.0
N1430 N 0.11254 0.69921 0.94856 0.0
N1431 N 0.2198 0.71311 0.89292 0.0
H1432 H 0.2213 0.7393 0.98817 0.0
H1433 H 0.24348 0.74188 0.95162 0.0
H1434 H 0.22034 0.70696 0.86715 0.0
H1435 H 0.23687 0.71309 0.90839 0.0
H1436 H 0.09311 0.69154 0.93278 0.0
H1437 H 0.10702 0.69473 0.97471 0.0
H1438 H 0.10893 0.72155 0.88899 0.0
H1439 H 0.12976 0.72249 0.85214 0.0
C1440 C 0.32455 0.49702 0.92561 0.0
C1441 C 0.32494 0.47145 0.94093 0.0
C1442 C 0.31748 0.44725 0.88424 0.0
C1443 C 0.32395 0.47553 0.86857 0.0
N1444 N 0.33339 0.5276 0.87356 0.0
N1445 N 0.32425 0.42287 0.93467 0.0
C1446 C 0.32686 0.50041 0.88898 0.0
C1447 C 0.32139 0.44636 0.92036 0.0
N1448 N 0.3224 0.51807 0.94633 0.0
N1449 N 0.30779 0.42127 0.86451 0.0
H1450 H 0.32734 0.42102 0.96109 0.0
H1451 H 0.32593 0.4063 0.91989 0.0
H1452 H 0.30498 0.42112 0.83773 0.0
H1453 H 0.29955 0.39935 0.87506 0.0
H1454 H 0.31962 0.536 0.93679 0.0
H1455 H 0.32051 0.51571 0.97329 0.0
H1456 H 0.33902 0.54766 0.88735 0.0
H1457 H 0.33505 0.53064 0.8467 0.0
C1458 C 0.10414 0.47689 0.39395 0.0
C1459 C 0.12553 0.50391 0.37548 0.0
C1460 C 0.14424 0.53174 0.4304 0.0
C1461 C 0.12205 0.50496 0.44816 0.0
N1462 N 0.07293 0.4577 0.44557 0.0
N1463 N 0.15843 0.5593 0.37568 0.0
C1464 C 0.09908 0.47961 0.42937 0.0
C1465 C 0.14298 0.53223 0.39361 0.0
N1466 N 0.09098 0.44813 0.3793 0.0
N1467 N 0.16743 0.5558 0.44817 0.0
H1468 H 0.15723 0.56019 0.34868 0.0
H1469 H 0.16964 0.58084 0.38776 0.0
H1470 H 0.1695 0.55599 0.47509 0.0
H1471 H 0.18593 0.57443 0.43588 0.0
H1472 H 0.07758 0.42802 0.39352 0.0
H1473 H 0.09622 0.44363 0.35465 0.0
H1474 H 0.05453 0.43995 0.43205 0.0
H1475 H 0.06834 0.45941 0.47168 0.0
C1476 C 0.58336 0.68332 0.42569 0.0
C1477 C 0.55956 0.68416 0.44489 0.0
C1478 C 0.53308 0.68262 0.39132 0.0
C1479 C 0.55848 0.68508 0.37229 0.0
N1480 N 0.61229 0.69847 0.37238 0.0
N1481 N 0.51638 0.69313 0.44598 0.0
C1482 C 0.58511 0.68881 0.38973 0.0
C1483 C 0.53591 0.68669 0.42766 0.0
N1484 N 0.60313 0.67545 0.441 0.0
N1485 N 0.50594 0.67514 0.37504 0.0
H1486 H 0.51855 0.69713 0.47271 0.0
H1487 H 0.50031 0.69765 0.43413 0.0
H1488 H 0.50254 0.67053 0.3485 0.0
H1489 H 0.48594 0.67043 0.38847 0.0
H1490 H 0.6188 0.67179 0.42679 0.0
H1491 H 0.60179 0.66926 0.46701 0.0
H1492 H 0.63284 0.70393 0.38506 0.0
H1493 H 0.61525 0.70454 0.3462 0.0
C1494 C 0.38771 0.89513 0.37676 0.0
C1495 C 0.38753 0.91951 0.35848 0.0
C1496 C 0.4055 0.951 0.41065 0.0
C1497 C 0.39613 0.92381 0.43037 0.0
N1498 N 0.37266 0.86785 0.43084 0.0
N1499 N 0.39446 0.97119 0.35937 0.0
C1500 C 0.38624 0.89521 0.4132 0.0
C1501 C 0.39658 0.94799 0.37545 0.0
N1502 N 0.38743 0.87126 0.35923 0.0
N1503 N 0.42262 0.97944 0.42548 0.0
H1504 H 0.38678 0.9698 0.33399 0.0
H1505 H 0.39793 0.99094 0.37249 0.0
H1506 H 0.43035 0.98219 0.45106 0.0
H1507 H 0.43186 0.99988 0.41125 0.0
H1508 H 0.38931 0.85379 0.37176 0.0
H1509 H 0.38866 0.87101 0.33217 0.0
H1510 H 0.363 0.84653 0.41829 0.0
H1511 H 0.36754 0.86604 0.45724 0.0
C1512 C 0.34763 0.33371 0.09716 0.0
C1513 C 0.32176 0.3135 0.07628 0.0
C1514 C 0.32019 0.35923 0.05503 0.0
C1515 C 0.34033 0.3775 0.08241 0.0
N1516 N 0.37477 0.3823 0.12865 0.0
N1517 N 0.28842 0.30858 0.02885 0.0
C1518 C 0.35505 0.36499 0.10273 0.0
C1519 C 0.30977 0.32681 0.05291 0.0
N1520 N 0.36518 0.32267 0.11151 0.0
N1521 N 0.31207 0.37333 0.03022 0.0
H1522 H 0.28516 0.287 0.0221 0.0
H1523 H 0.27474 0.3151 0.01498 0.0
H1524 H 0.32075 0.39706 0.03014 0.0
H1525 H 0.29946 0.36238 0.00803 0.0
H1526 H 0.38575 0.33646 0.12477 0.0
H1527 H 0.36066 0.30022 0.10669 0.0
H1528 H 0.38341 0.37336 0.14707 0.0
H1529 H 0.3811 0.40532 0.13298 0.0
C1530 C 0.65618 1.00176 0.05924 0.0
C1531 C 0.64742 0.97 0.06185 0.0
C1532 C 0.70126 0.98443 0.04778 0.0
C1533 C 0.71137 0.01632 0.0512 0.0
N1534 N 0.69741 0.05545 0.0609 0.0
N1535 N 0.66455 0.93278 0.06675 0.0
C1536 C 0.6884 0.02493 0.05723 0.0
C1537 C 0.67089 0.96194 0.0585 0.0
N1538 N 0.63388 1.00986 0.05697 0.0
N1539 N 0.72005 0.97522 0.033 0.0
H1540 H 0.64325 0.91615 0.07675 0.0
H1541 H 0.68152 0.92648 0.06763 0.0
H1542 H 0.74126 0.99089 0.02237 0.0
H1543 H 0.71252 0.95223 0.02681 0.0
H1544 H 0.63861 0.03213 0.05106 0.0
H1545 H 0.61035 0.99385 0.05833 0.0
H1546 H 0.68277 0.0632 0.06978 0.0
H1547 H 0.72 0.073 0.05613 0.0
C1548 C 0.04034 0.72245 0.10229 0.0
C1549 C 1.01782 0.71824 0.07656 0.0
C1550 C 0.0205 0.67289 0.05555 0.0
C1551 C 0.04646 0.68035 0.07728 0.0
N1552 N 0.08396 0.7165 0.11787 0.0
N1553 N 0.98862 0.69004 0.02635 0.0
C1554 C 0.05705 0.70617 0.09983 0.0
C1555 C 1.00873 0.69373 0.05236 0.0
N1556 N 0.04559 0.74153 0.12992 0.0
N1557 N 1.00631 0.64506 0.03875 0.0
H1558 H 0.97895 0.70418 0.02367 0.0
H1559 H 0.98359 0.67469 0.0058 0.0
H1560 H 1.01336 0.62876 0.04179 0.0
H1561 H 0.98568 0.63676 0.0251 0.0
H1562 H 0.05855 0.74235 0.15149 0.0
H1563 H 0.03479 0.75442 0.13298 0.0
H1564 H 0.09487 0.73765 0.13081 0.0
H1565 H 0.09673 0.7053 0.11795 0.0
C1566 C 0.37795 0.33401 0.40887 0.0
C1567 C 0.39186 0.3258 0.38185 0.0
C1568 C 0.34006 0.28758 0.36074 0.0
C1569 C 0.32681 0.29136 0.39164 0.0
N1570 N 0.33361 0.31719 0.4467 0.0
N1571 N 0.38634 0.29587 0.33066 0.0
C1572 C 0.34574 0.31479 0.41581 0.0
C1573 C 0.37286 0.30313 0.35711 0.0
N1574 N 0.3955 0.35987 0.42827 0.0
N1575 N 0.32116 0.26942 0.33466 0.0
H1576 H 0.41002 0.30849 0.32581 0.0
H1577 H 0.37434 0.27689 0.31437 0.0
H1578 H 0.29714 0.25829 0.33642 0.0
H1579 H 0.32908 0.2677 0.31021 0.0
H1580 H 0.38621 0.36867 0.44613 0.0
H1581 H 0.419 0.37439 0.42397 0.0
H1582 H 0.34701 0.33112 0.46711 0.0
H1583 H 0.31038 0.30348 0.45323 0.0
C1584 C 0.68577 0.99114 0.41886 0.0
C1585 C 0.71856 1.00581 0.41971 0.0
C1586 C 0.72131 0.056 0.40869 0.0
C1587 C 0.68848 0.04133 0.40777 0.0
N1588 N 0.63963 0.99411 0.40626 0.0
N1589 N 0.76699 0.05328 0.42458 0.0
C1590 C 0.67083 1.00863 0.41152 0.0
C1591 C 0.73618 0.03857 0.41722 0.0
N1592 N 0.66888 0.96042 0.42685 0.0
N1593 N 0.73843 0.08644 0.39999 0.0
H1594 H 0.77808 0.04149 0.43276 0.0
H1595 H 0.78081 0.07714 0.42663 0.0
H1596 H 0.72832 0.09919 0.39203 0.0
H1597 H 0.76229 0.09812 0.39675 0.0
H1598 H 0.64503 0.94831 0.43005 0.0
H1599 H 0.67919 0.94748 0.4337 0.0
H1600 H 0.62527 0.97028 0.40519 0.0
H1601 H 0.6283 1.00606 0.39957 0.0
C1602 C 1.00637 0.65588 0.42035 0.0
C1603 C 0.97423 0.64615 0.42161 0.0
C1604 C 0.98864 0.69963 0.43778 0.0
C1605 C 0.02008 0.71069 0.42973 0.0
N1606 N 0.05922 0.69817 0.4137 0.0
N1607 N 0.93624 0.66278 0.4224 0.0
C1608 C 0.02895 0.68839 0.42083 0.0
C1609 C 0.96592 0.66929 0.42748 0.0
N1610 N 1.01568 0.63443 0.42087 0.0
N1611 N 0.98018 0.7172 0.45679 0.0
H1612 H 0.91916 0.64172 0.41261 0.0
H1613 H 0.92977 0.67962 0.4237 0.0
H1614 H 0.99628 0.73727 0.46936 0.0
H1615 H 0.9575 0.70918 0.46488 0.0
H1616 H 0.03864 0.64015 0.42393 0.0
H1617 H 1.00039 0.61074 0.42133 0.0
H1618 H 0.06665 0.684 0.40253 0.0
H1619 H 0.07682 0.72081 0.41818 0.0
C1620 C 0.68705 0.65388 0.94319 0.0
C1621 C 0.69847 0.63863 0.92166 0.0
C1622 C 0.73203 0.68865 0.89288 0.0
C1623 C 0.72376 0.7044 0.91792 0.0
N1624 N 0.69821 0.7013 0.9722 0.0
N1625 N 0.73651 0.64345 0.87994 0.0
C1626 C 0.70275 0.68681 0.94468 0.0
C1627 C 0.72212 0.65651 0.89734 0.0
N1628 N 0.66058 0.63675 0.96184 0.0
N1629 N 0.74956 0.70429 0.86483 0.0
H1630 H 0.73029 0.6204 0.88313 0.0
H1631 H 0.75622 0.65606 0.86482 0.0
H1632 H 0.75859 0.72789 0.86139 0.0
H1633 H 0.75337 0.69338 0.8439 0.0
H1634 H 0.64957 0.6465 0.97557 0.0
H1635 H 0.64774 0.6127 0.96022 0.0
H1636 H 0.68508 0.68948 0.99381 0.0
H1637 H 0.7106 0.72514 0.97551 0.0
C1638 C 0.36453 0.03097 0.9294 0.0
C1639 C 0.38257 0.06379 0.93091 0.0
C1640 C 0.33534 0.06621 0.94164 0.0
C1641 C 0.31679 0.03368 0.93672 0.0
N1642 N 0.31392 0.98539 0.92204 0.0
N1643 N 0.38472 0.11289 0.93336 0.0
C1644 C 0.33146 0.01607 0.92987 0.0
C1645 C 0.36779 0.08139 0.93574 0.0
N1646 N 0.37897 0.01391 0.92849 0.0
N1647 N 0.3219 0.0827 0.95265 0.0
H1648 H 0.40851 0.12484 0.92908 0.0
H1649 H 0.37497 0.12704 0.93235 0.0
H1650 H 0.29834 0.07257 0.95699 0.0
H1651 H 0.33427 0.10566 0.96064 0.0
H1652 H 0.36749 0.99005 0.93182 0.0
H1653 H 0.40285 0.02384 0.92651 0.0
H1654 H 0.32304 0.97223 0.91214 0.0
H1655 H 0.28991 0.97331 0.92368 0.0
C1656 C 0.95365 0.30099 0.93239 0.0
C1657 C 0.95941 0.32526 0.90872 0.0
C1658 C 0.99729 0.31569 0.87848 0.0
C1659 C 0.9905 0.29059 0.9012 0.0
N1660 N 0.95521 0.25405 0.94254 0.0
N1661 N 0.98184 0.35059 0.85422 0.0
C1662 C 0.9668 0.28185 0.92624 0.0
C1663 C 0.97957 0.33091 0.88014 0.0
N1664 N 0.93535 0.29582 0.96084 0.0
N1665 N 0.02151 0.32592 0.85591 0.0
H1666 H 0.97012 0.36285 0.85422 0.0
H1667 H 0.99316 0.35259 0.83083 0.0
H1668 H 0.03456 0.31521 0.853 0.0
H1669 H 0.03037 0.34655 0.84218 0.0
H1670 H 0.93401 0.28161 0.98132 0.0
H1671 H 0.92262 0.30678 0.96502 0.0
H1672 H 0.93566 0.24458 0.95832 0.0
H1673 H 0.96307 0.23886 0.93685 0.0
C1674 C 0.69919 0.67296 0.57237 0.0
C1675 C 0.71656 0.70575 0.56854 0.0
C1676 C 0.66835 0.70707 0.57962 0.0
C1677 C 0.65053 0.67426 0.58025 0.0
N1678 N 0.64934 0.62576 0.57374 0.0
N1679 N 0.71502 0.7526 0.56019 0.0
C1680 C 0.66618 0.65726 0.57558 0.0
C1681 C 0.70028 0.72232 0.56963 0.0
N1682 N 0.71436 0.6566 0.57349 0.0
N1683 N 0.65505 0.72391 0.58951 0.0
H1684 H 0.73741 0.76357 0.55066 0.0
H1685 H 0.70395 0.76544 0.55746 0.0
H1686 H 0.63261 0.71345 0.59887 0.0
H1687 H 0.66727 0.7478 0.59268 0.0
H1688 H 0.70408 0.63364 0.58134 0.0
H1689 H 0.73776 0.66642 0.56788 0.0
H1690 H 0.65834 0.61205 0.56532 0.0
H1691 H 0.62581 0.61331 0.57929 0.0
C1692 C 0.35229 0.99726 0.57281 0.0
C1693 C 0.34229 0.97244 0.59681 0.0
C1694 C 0.30148 0.98299 0.61617 0.0
C1695 C 0.30694 1.00292 0.58704 0.0
N1696 N 0.3382 0.02822 0.53672 0.0
N1697 N 0.30781 0.9424 0.64256 0.0
C1698 C 0.33295 1.01036 0.56549 0.0
C1699 C 0.31725 0.96589 0.61907 0.0
N1700 N 0.38035 1.00843 0.55714 0.0
N1701 N 0.28158 0.98079 0.64177 0.0
H1702 H 0.3204 0.93128 0.64743 0.0
H1703 H 0.28693 0.93301 0.65595 0.0
H1704 H 0.26971 0.99282 0.64121 0.0
H1705 H 0.27917 0.96955 0.66528 0.0
H1706 H 0.39027 0.02802 0.54148 0.0
H1707 H 0.39516 1.00006 0.5631 0.0
H1708 H 0.35445 0.0314 0.51783 0.0
H1709 H 0.32485 0.03817 0.5304 0.0
C1710 C 0.05106 0.32024 0.56684 0.0
C1711 C 0.01825 0.30363 0.57046 0.0
C1712 C 0.0202 0.35168 0.5903 0.0
C1713 C 0.05303 0.36827 0.58783 0.0
N1714 N 0.09916 0.36999 0.56677 0.0
N1715 N 0.97181 0.30653 0.57353 0.0
C1716 C 0.06823 0.35308 0.57352 0.0
C1717 C 1.00304 0.32051 0.57818 0.0
N1718 N 0.06598 0.3045 0.5586 0.0
N1719 N 1.00521 0.3652 0.6056 0.0
H1720 H 0.95893 0.28409 0.56385 0.0
H1721 H 0.9594 0.31811 0.57544 0.0
H1722 H 1.01644 0.38804 0.61412 0.0
H1723 H 0.98186 0.35312 0.6121 0.0
H1724 H 0.08982 0.31397 0.55994 0.0
H1725 H 0.05423 0.28139 0.55113 0.0
H1726 H 0.11144 0.36136 0.5536 0.0
H1727 H 0.11222 0.39356 0.5722 0.0
C1728 C 0.04644 0.68218 0.72556 0.0
C1729 C 0.06417 0.68029 0.7534 0.0
C1730 C 1.01489 0.64608 0.78492 0.0
C1731 C 0.99744 0.64555 0.7558 0.0
N1732 N 0.99631 0.66338 0.69808 0.0
N1733 N 0.06412 0.6565 0.80814 0.0
C1734 C 1.01326 0.6638 0.72613 0.0
C1735 C 0.04798 0.6614 0.78279 0.0
N1736 N 0.06112 0.70262 0.69918 0.0
N1737 N 0.99984 0.63182 0.81486 0.0
H1738 H 0.08794 0.66663 0.80798 0.0
H1739 H 0.05391 0.64014 0.82774 0.0
H1740 H 0.97585 0.61965 0.817 0.0
H1741 H 1.01094 0.63435 0.83849 0.0
H1742 H 0.0498 0.70843 0.68061 0.0
H1743 H 0.08502 0.71533 0.69671 0.0
H1744 H 1.0057 0.67194 0.67373 0.0
H1745 H 0.97232 0.65344 0.69888 0.0
C1746 C 0.39228 0.39374 0.75388 0.0
C1747 C 0.36077 0.37769 0.74324 0.0
C1748 C 0.3591 0.32814 0.75358 0.0
C1749 C 0.39105 0.34416 0.76173 0.0
N1750 N 0.4343 0.39102 0.78255 0.0
N1751 N 0.31201 0.32983 0.74378 0.0
C1752 C 0.40635 0.37664 0.7663 0.0
C1753 C 0.34348 0.34492 0.74666 0.0
N1754 N 0.40937 0.42505 0.75007 0.0
N1755 N 0.34407 0.29667 0.75084 0.0
H1756 H 0.29969 0.34116 0.73886 0.0
H1757 H 0.29782 0.30649 0.74935 0.0
H1758 H 0.35445 0.28386 0.75812 0.0
H1759 H 0.32208 0.28349 0.74028 0.0
H1760 H 0.4332 0.43763 0.75364 0.0
H1761 H 0.4001 0.4383 0.74087 0.0
H1762 H 0.44599 0.41438 0.789 0.0
H1763 H 0.44384 0.3785 0.79315 0.0
C1764 C 0.63198 0.98877 0.77991 0.0
C1765 C 0.63809 0.96826 0.75983 0.0
C1766 C 0.68939 0.01301 0.7468 0.0
C1767 C 0.68125 0.03426 0.76152 0.0
N1768 N 0.6399 0.04045 0.78571 0.0
N1769 N 0.67138 0.96396 0.71763 0.0
C1770 C 0.6512 0.02164 0.77638 0.0
C1771 C 0.6663 0.98142 0.74106 0.0
N1772 N 0.60811 0.97722 0.80304 0.0
N1773 N 0.71964 0.02254 0.73976 0.0
H1774 H 0.65462 0.94144 0.71146 0.0
H1775 H 0.69063 0.97316 0.70136 0.0
H1776 H 0.73758 0.04447 0.74643 0.0
H1777 H 0.72715 1.00747 0.73168 0.0
H1778 H 0.60488 0.99108 0.82086 0.0
H1779 H 0.59331 0.95377 0.80674 0.0
H1780 H 0.61695 0.03202 0.79293 0.0
H1781 H 0.65225 0.06424 0.78294 0.0
C1782 C 0.35682 0.03588 0.22524 0.0
C1783 C 0.38932 0.05071 0.231 0.0
C1784 C 0.38643 1.00059 0.22016 0.0
C1785 C 0.35369 0.98487 0.21913 0.0
N1786 N 0.30733 0.98811 0.22326 0.0
N1787 N 0.43239 0.04351 0.24476 0.0
C1788 C 0.33884 1.00281 0.22238 0.0
C1789 C 0.40333 0.03197 0.23176 0.0
N1790 N 0.34301 0.05347 0.22265 0.0
N1791 N 0.40164 0.986 0.20881 0.0
H1792 H 0.44424 0.06518 0.2564 0.0
H1793 H 0.44277 0.03006 0.24809 0.0
H1794 H 0.38997 0.96458 0.19652 0.0
H1795 H 0.42565 0.99697 0.20699 0.0
H1796 H 0.32041 0.04488 0.21408 0.0
H1797 H 0.3547 0.07712 0.22789 0.0
H1798 H 0.29491 0.99898 0.23004 0.0
H1799 H 0.29359 0.96452 0.21846 0.0
C1800 C 1.00596 0.35543 0.28143 0.0
C1801 C 0.99166 0.36498 0.2562 0.0
C1802 C 0.04346 0.39606 0.22795 0.0
C1803 C 0.05733 0.38631 0.25334 0.0
N1804 N 0.04801 0.34584 0.29375 0.0
N1805 N 0.99738 0.38702 0.19814 0.0
C1806 C 0.03724 0.36242 0.27656 0.0
C1807 C 1.01054 0.38314 0.22741 0.0
N1808 N 0.99081 0.34147 0.31138 0.0
N1809 N 0.06133 0.41793 0.20411 0.0
H1810 H 0.97401 0.37858 0.19463 0.0
H1811 H 1.00957 0.39613 0.17515 0.0
H1812 H 0.0836 0.42314 0.19769 0.0
H1813 H 0.05364 0.43071 0.19028 0.0
H1814 H 1.00151 0.33687 0.33186 0.0
H1815 H 0.96895 0.33772 0.31764 0.0
H1816 H 0.03386 0.32654 0.30882 0.0
H1817 H 0.07005 0.34911 0.28923 0.0
C1818 C 0.68102 0.68664 0.24228 0.0
C1819 C 0.64837 0.67312 0.23792 0.0
C1820 C 0.64287 0.62224 0.25069 0.0
C1821 C 0.67545 0.63513 0.25164 0.0
N1822 N 0.72583 0.67957 0.24273 0.0
N1823 N 0.59959 0.62633 0.2296 0.0
C1824 C 0.69466 0.66741 0.24613 0.0
C1825 C 0.62975 0.64042 0.23961 0.0
N1826 N 0.69917 0.71806 0.24265 0.0
N1827 N 0.62425 0.59238 0.2611 0.0
H1828 H 0.58969 0.63856 0.21957 0.0
H1829 H 0.58562 0.60248 0.22717 0.0
H1830 H 0.63311 0.57864 0.26989 0.0
H1831 H 0.60048 0.58245 0.26456 0.0
H1832 H 0.72228 0.72946 0.25018 0.0
H1833 H 0.6907 0.73282 0.23678 0.0
H1834 H 0.74071 0.70204 0.23435 0.0
H1835 H 0.73667 0.66657 0.24613 0.0
C1836 C 0.33197 0.16619 0.16415 0.0
C1837 C 0.34237 0.19658 0.15187 0.0
C1838 C 0.39611 0.21011 0.16291 0.0
C1839 C 0.38586 0.1793 0.17396 0.0
N1840 N 0.34482 0.12686 0.18017 0.0
N1841 N 0.38359 0.24667 0.13617 0.0
C1842 C 0.35391 0.15704 0.17342 0.0
C1843 C 0.37431 0.21828 0.15025 0.0
N1844 N 0.30096 0.1463 0.1673 0.0
N1845 N 0.42675 0.23168 0.16532 0.0
H1846 H 0.3679 0.25318 0.12747 0.0
H1847 H 0.40647 0.26304 0.13099 0.0
H1848 H 0.44332 0.22637 0.17379 0.0
H1849 H 0.43574 0.25518 0.16107 0.0
H1850 H 0.29148 0.12493 0.17952 0.0
H1851 H 0.28454 0.15197 0.15903 0.0
H1852 H 0.3223 0.10874 0.17704 0.0
H1853 H 0.36043 0.11962 0.18673 0.0
C1854 C 0.86512 0.23031 0.12776 0.0
C1855 C 0.87492 0.22952 0.1622 0.0
C1856 C 0.8498 0.17278 0.15721 0.0
C1857 C 0.84408 0.17434 0.12125 0.0
N1858 N 0.8537 0.20644 0.07093 0.0
N1859 N 0.8805 0.19993 0.20784 0.0
C1860 C 0.85386 0.20368 0.10615 0.0
C1861 C 0.8683 0.20066 0.17645 0.0
N1862 N 0.86514 0.25608 0.1161 0.0
N1863 N 0.83644 0.14479 0.17342 0.0
H1864 H 0.89455 0.21988 0.22207 0.0
H1865 H 0.87901 0.17996 0.21812 0.0
H1866 H 0.82168 0.12419 0.16066 0.0
H1867 H 0.83743 0.14237 0.20017 0.0
H1868 H 0.85587 0.25703 0.09221 0.0
H1869 H 0.87084 0.27505 0.13203 0.0
H1870 H 0.8631 0.22772 0.05842 0.0
H1871 H 0.84757 0.18784 0.0542 0.0
C1872 C 0.87111 0.67427 0.15598 0.0
C1873 C 0.87574 0.69955 0.13529 0.0
C1874 C 0.83081 0.69814 0.16255 0.0
C1875 C 0.8225 0.6692 0.1777 0.0
N1876 N 0.83488 0.62872 0.18754 0.0
N1877 N 0.85853 0.73432 0.11631 0.0
C1878 C 0.84295 0.65717 0.17468 0.0
C1879 C 0.85545 0.71151 0.13823 0.0
N1880 N 0.89393 0.66687 0.15787 0.0
N1881 N 0.81476 0.7126 0.1715 0.0
H1882 H 0.87564 0.74386 0.09731 0.0
H1883 H 0.8425 0.74181 0.11492 0.0
H1884 H 0.79706 0.70334 0.18992 0.0
H1885 H 0.82108 0.73489 0.16356 0.0
H1886 H 0.89344 0.65059 0.17509 0.0
H1887 H 0.91481 0.67931 0.14455 0.0
H1888 H 0.84705 0.61732 0.18212 0.0
H1889 H 0.81479 0.61529 0.20147 0.0
C1890 C 0.18581 0.36073 0.32678 0.0
C1891 C 0.19452 0.39133 0.33674 0.0
C1892 C 0.22535 0.3877 0.38464 0.0
C1893 C 0.2184 0.35793 0.37327 0.0
N1894 N 0.19961 0.32067 0.32698 0.0
N1895 N 0.22944 0.43665 0.36918 0.0
C1896 C 0.2007 0.34568 0.34245 0.0
C1897 C 0.21643 0.40561 0.36391 0.0
N1898 N 0.16257 0.34552 0.30334 0.0
N1899 N 0.23956 0.39848 0.41589 0.0
H1900 H 0.22456 0.45052 0.35323 0.0
H1901 H 0.24743 0.44898 0.38661 0.0
H1902 H 0.24543 0.38549 0.43206 0.0
H1903 H 0.2427 0.41881 0.42716 0.0
H1904 H 0.15319 0.32212 0.29769 0.0
H1905 H 0.15098 0.35566 0.29179 0.0
H1906 H 0.18949 0.31226 0.30282 0.0
H1907 H 0.21212 0.3108 0.33661 0.0
C1908 C 0.68674 0.86981 0.3209 0.0
C1909 C 0.69148 0.86157 0.35466 0.0
C1910 C 0.67019 0.80784 0.33532 0.0
C1911 C 0.66807 0.81663 0.30117 0.0
N1912 N 0.67465 0.85543 0.26006 0.0
N1913 N 0.69052 0.82376 0.39386 0.0
C1914 C 0.67653 0.84756 0.29353 0.0
C1915 C 0.68367 0.83068 0.362 0.0
N1916 N 0.69096 0.89869 0.3156 0.0
N1917 N 0.65877 0.77716 0.3411 0.0
H1918 H 0.70016 0.84005 0.41369 0.0
H1919 H 0.68865 0.80267 0.40018 0.0
H1920 H 0.6572 0.76731 0.36537 0.0
H1921 H 0.6572 0.76731 0.36537 0.0
H1922 H 0.68575 0.90584 0.29251 0.0
H1923 H 0.69755 0.91497 0.33547 0.0
H1924 H 0.68329 0.87804 0.25162 0.0
H1925 H 0.66544 0.83911 0.24017 0.0
C1926 C 0.18346 0.83261 0.29246 0.0
C1927 C 0.21179 0.86004 0.2994 0.0
C1928 C 0.19124 0.86494 0.3559 0.0
C1929 C 0.1635 0.83671 0.34973 0.0
N1930 N 0.13321 0.79253 0.31377 0.0
N1931 N 0.24406 0.90137 0.33802 0.0
C1932 C 0.15961 0.82028 0.31832 0.0
C1933 C 0.21602 0.87594 0.33129 0.0
N1934 N 0.17947 0.81869 0.26086 0.0
N1935 N 0.19341 0.88141 0.38513 0.0
H1936 H 0.26213 0.91013 0.32008 0.0
H1937 H 0.25015 0.91288 0.36172 0.0
H1938 H 0.17558 0.87369 0.40328 0.0
H1939 H 0.21174 0.90336 0.39054 0.0
H1940 H 0.15876 0.80008 0.25234 0.0
H1941 H 0.19696 0.82679 0.24224 0.0
H1942 H 0.12934 0.77771 0.293 0.0
H1943 H 0.11533 0.78361 0.33195 0.0
C1944 C 0.65778 0.83141 0.89124 0.0
C1945 C 0.67546 0.81795 0.88009 0.0
C1946 C 0.6664 0.82601 0.81917 0.0
C1947 C 0.65026 0.84132 0.83019 0.0
N1948 N 0.63367 0.86191 0.87654 0.0
N1949 N 0.69812 0.80342 0.83405 0.0
C1950 C 0.64651 0.84463 0.86627 0.0
C1951 C 0.6801 0.8155 0.84418 0.0
N1952 N 0.65195 0.83152 0.92586 0.0
N1953 N 0.66777 0.82066 0.78463 0.0
H1954 H 0.7063 0.79313 0.85133 0.0
H1955 H 0.70628 0.80474 0.80889 0.0
H1956 H 0.65919 0.82893 0.76551 0.0
H1957 H 0.67566 0.80646 0.77476 0.0
H1958 H 0.63689 0.8382 0.93605 0.0
H1959 H 0.66105 0.82311 0.94445 0.0
H1960 H 0.6325 0.86771 0.90222 0.0
H1961 H 0.62599 0.87243 0.85896 0.0
C1962 C 0.19566 0.88786 0.80844 0.0
C1963 C 0.21092 0.89041 0.8401 0.0
C1964 C 0.19788 0.8363 0.83334 0.0
C1965 C 0.18762 0.83615 0.79873 0.0
N1966 N 0.18549 0.86618 0.75093 0.0
N1967 N 0.2291 0.86767 0.8819 0.0
C1968 C 0.18907 0.86325 0.78556 0.0
C1969 C 0.21284 0.86475 0.85239 0.0
N1970 N 0.18604 0.90824 0.80105 0.0
N1971 N 0.19192 0.80928 0.84866 0.0
H1972 H 0.23949 0.88806 0.89641 0.0
H1973 H 0.23386 0.85073 0.89048 0.0
H1974 H 0.17929 0.78791 0.83645 0.0
H1975 H 0.1967 0.80774 0.87466 0.0
H1976 H 0.17263 0.90612 0.77937 0.0
H1977 H 0.18813 0.92447 0.81936 0.0
H1978 H 0.18845 0.88659 0.74008 0.0
H1979 H 0.18348 0.84977 0.73277 0.0
C1980 C 0.18236 0.3706 0.85759 0.0
C1981 C 0.15812 0.34023 0.85065 0.0
C1982 C 0.18796 0.33646 0.80176 0.0
C1983 C 0.2129 0.36582 0.81015 0.0
N1984 N 0.23584 0.41026 0.84737 0.0
N1985 N 0.13988 0.2923 0.81965 0.0
C1986 C 0.21064 0.38279 0.8385 0.0
C1987 C 0.16157 0.32266 0.82363 0.0
N1988 N 0.17782 0.38797 0.88172 0.0
N1989 N 0.18953 0.32199 0.77234 0.0
H1990 H 0.12044 0.28159 0.83521 0.0
H1991 H 0.14235 0.27714 0.80318 0.0
H1992 H 0.20884 0.33165 0.75611 0.0
H1993 H 0.17097 0.30192 0.76238 0.0
H1994 H 0.19323 0.41131 0.88603 0.0
H1995 H 0.15754 0.37915 0.89628 0.0
H1996 H 0.23727 0.4226 0.86975 0.0
H1997 H 0.25605 0.41996 0.83271 0.0
C1998 C 0.84942 0.66613 0.68184 0.0
C1999 C 0.86964 0.65651 0.66795 0.0
C2000 C 0.85877 0.66751 0.60905 0.0
C2001 C 0.84118 0.68017 0.62326 0.0
N2002 N 0.81846 0.69062 0.67267 0.0
N2003 N 0.89602 0.65053 0.61911 0.0
C2004 C 0.83615 0.67916 0.65958 0.0
C2005 C 0.87466 0.65751 0.63167 0.0
N2006 N 0.84219 0.66183 0.71633 0.0
N2007 N 0.86017 0.66488 0.57393 0.0
H2008 H 0.90806 0.64333 0.63505 0.0
H2009 H 0.90353 0.65392 0.59345 0.0
H2010 H 0.84981 0.67283 0.55659 0.0
H2011 H 0.8696 0.65282 0.5619 0.0
H2012 H 0.82532 0.66521 0.72796 0.0
H2013 H 0.85181 0.65284 0.73332 0.0
H2014 H 0.81695 0.69459 0.69892 0.0
H2015 H 0.80566 0.69706 0.65696 0.0
C2016 C 0.36824 0.18139 0.69841 0.0
C2017 C 0.36252 0.20643 0.69707 0.0
C2018 C 0.31534 0.1747 0.66294 0.0
C2019 C 0.32307 0.15103 0.66097 0.0
N2020 N 0.34984 0.12718 0.68561 0.0
N2021 N 0.32729 0.22475 0.68686 0.0
C2022 C 0.34711 0.15286 0.68211 0.0
C2023 C 0.3346 0.20206 0.68248 0.0
N2024 N 0.39502 0.18571 0.71292 0.0
N2025 N 0.29066 0.17165 0.64461 0.0
H2026 H 0.34144 0.24472 0.7011 0.0
H2027 H 0.30658 0.22298 0.6789 0.0
H2028 H 0.27528 0.15113 0.6322 0.0
H2029 H 0.28545 0.1892 0.64143 0.0
H2030 H 0.40249 0.16969 0.71138 0.0
H2031 H 0.41056 0.20613 0.72547 0.0
H2032 H 0.36538 0.12574 0.70239 0.0
H2033 H 0.33428 0.10628 0.67375 0.0
C2034 C 0.84882 0.15199 0.63514 0.0
C2035 C 0.87677 0.17982 0.64187 0.0
C2036 C 0.85955 0.18103 0.70137 0.0
C2037 C 0.83157 0.15329 0.69464 0.0
N2038 N 0.79839 0.1122 0.65628 0.0
N2039 N 0.9108 0.21951 0.68126 0.0
C2040 C 0.82595 0.13865 0.66177 0.0
C2041 C 0.8827 0.19396 0.67506 0.0
N2042 N 0.84474 0.13824 0.60337 0.0
N2043 N 0.86325 0.1954 0.73265 0.0
H2044 H 0.92753 0.23001 0.66195 0.0
H2045 H 0.91823 0.22968 0.70553 0.0
H2046 H 0.84683 0.18593 0.75243 0.0
H2047 H 0.88168 0.2171 0.73875 0.0
H2048 H 0.82553 0.11746 0.59622 0.0
H2049 H 0.86133 0.14757 0.58377 0.0
H2050 H 0.79152 0.1004 0.63282 0.0
H2051 H 0.78177 0.1019 0.67573 0.0
C2052 C 0.97073 0.50799 0.54697 0.0
C2053 C 0.98458 0.5268 0.5172 0.0
C2054 C 0.02492 0.51217 0.5187 0.0
C2055 C 1.01306 0.49634 0.5506 0.0
N2056 N 0.97666 0.48185 0.59716 0.0
N2057 N 0.02762 0.5505 0.47791 0.0
C2058 C 0.9866 0.49524 0.56539 0.0
C2059 C 1.01249 0.5299 0.50394 0.0
N2060 N 0.94156 0.50083 0.55643 0.0
N2061 N 0.04715 0.50906 0.5017 0.0
H2062 H 0.01928 0.56399 0.46698 0.0
H2063 H 0.04959 0.5561 0.46932 0.0
H2064 H 0.05585 0.49552 0.51144 0.0
H2065 H 0.05478 0.51743 0.47675 0.0
H2066 H 0.92896 0.48505 0.57586 0.0
H2067 H 0.92869 0.50825 0.54238 0.0
H2068 H 0.95931 0.48276 0.6112 0.0
H2069 H 0.98764 0.47194 0.61065 0.0
C2070 C 0.50231 0.50735 0.51572 0.0
C2071 C 0.52984 0.53584 0.51012 0.0
C2072 C 0.53673 0.51677 0.4536 0.0
C2073 C 0.51005 0.48772 0.46001 0.0
N2074 N 0.46892 0.45384 0.498 0.0
N2075 N 0.57486 0.56742 0.47585 0.0
C2076 C 0.49319 0.48265 0.49134 0.0
C2077 C 0.54747 0.54047 0.47952 0.0
N2078 N 0.48476 0.50428 0.54428 0.0
N2079 N 0.55122 0.52172 0.42224 0.0
H2080 H 0.58269 0.58521 0.49411 0.0
H2081 H 0.59055 0.57167 0.45592 0.0
H2082 H 0.54394 0.50453 0.4033 0.0
H2083 H 0.56918 0.54301 0.41411 0.0
H2084 H 0.46305 0.4853 0.54901 0.0
H2085 H 0.49127 0.52191 0.56255 0.0
H2086 H 0.45684 0.44742 0.52132 0.0
H2087 H 0.46198 0.43549 0.48065 0.0
C2088 C 0.55755 0.02021 0.50841 0.0
C2089 C 0.55207 0.03079 0.47654 0.0
C2090 C 0.5015 0.02078 0.49807 0.0
C2091 C 0.5063 1.00877 0.52936 0.0
N2092 N 0.53732 0.99499 0.56408 0.0
N2093 N 0.51885 0.03962 0.43935 0.0
C2094 C 0.534 1.00797 0.53443 0.0
C2095 C 0.52404 0.03078 0.471 0.0
N2096 N 0.58557 0.02231 0.51365 0.0
N2097 N 0.47534 0.02273 0.49447 0.0
H2098 H 0.53545 0.048 0.41971 0.0
H2099 H 0.49785 0.03738 0.43175 0.0
H2100 H 0.4574 0.01348 0.51251 0.0
H2101 H 0.47173 0.03446 0.4744 0.0
H2102 H 0.59261 0.01761 0.53713 0.0
H2103 H 0.60267 0.03036 0.49456 0.0
H2104 H 0.55551 0.99097 0.56875 0.0
H2105 H 0.52077 0.98687 0.58372 0.0
C2106 C 0.49846 0.9569 0.95865 0.0
C2107 C 0.52834 0.97298 0.974 0.0
C2108 C 0.52892 0.02179 0.96561 0.0
C2109 C 0.50013 1.00596 0.94776 0.0
N2110 N 0.45975 0.95935 0.92274 0.0
N2111 N 0.57435 0.02088 0.98644 0.0
C2112 C 0.48583 0.97377 0.94255 0.0
C2113 C 0.5443 1.00554 0.97567 0.0
N2114 N 0.48129 0.92557 0.96166 0.0
N2115 N 0.54082 0.05203 0.97453 0.0
H2116 H 0.58598 1.00936 0.99398 0.0
H2117 H 0.58839 0.04478 0.98506 0.0
H2118 H 0.52998 0.06442 0.96805 0.0
H2119 H 0.55988 0.06399 0.99072 0.0
H2120 H 0.45833 0.91259 0.95385 0.0
H2121 H 0.48906 0.91289 0.97539 0.0
H2122 H 0.44957 0.93631 0.91513 0.0
H2123 H 0.44982 0.97133 0.91153 0.0
C2124 C 0.99566 0.48834 -0.00076 0.0
C2125 C 1.00523 0.48497 0.96539 0.0
C2126 C 0.05323 0.53402 0.97381 0.0
C2127 C 0.04142 0.54031 0.00425 0.0
N2128 N 0.99876 0.52435 0.04376 0.0
N2129 N 0.03974 0.5103 0.91731 0.0
C2130 C 1.01187 0.51765 0.01655 0.0
C2131 C 0.03315 0.50944 0.95181 0.0
N2132 N 0.97214 0.46348 0.01551 0.0
N2133 N 0.08382 0.55175 0.96588 0.0
H2134 H 0.02405 0.49446 0.89956 0.0
H2135 H 0.05888 0.52896 0.90586 0.0
H2136 H 0.09937 0.569 0.98257 0.0
H2137 H 0.094 0.54681 0.94506 0.0
H2138 H 0.966 0.46412 0.04123 0.0
H2139 H 0.961 0.44145 0.0046 0.0
H2140 H 0.976 0.50983 0.05159 0.0
H2141 H 1.00993 0.5455 0.0567 0.0
C2142 C 0.50799 0.47965 0.01907 0.0
C2143 C 0.49301 0.49704 0.01356 0.0
C2144 C 0.53884 0.53595 0.98143 0.0
C2145 C 0.55316 0.51777 0.98547 0.0
N2146 N 0.55071 0.4711 0.00504 0.0
N2147 N 0.49201 0.53943 0.98562 0.0
C2148 C 0.53737 0.48915 0.00332 0.0
C2149 C 0.50792 0.52464 0.9937 0.0
N2150 N 0.49435 0.45455 0.04046 0.0
N2151 N 0.55534 0.56447 0.96667 0.0
H2152 H 0.4696 0.5318 0.99447 0.0
H2153 H 0.50008 0.55793 0.96848 0.0
H2154 H 0.57747 0.57263 0.95656 0.0
H2155 H 0.54794 0.58058 0.96606 0.0
H2156 H 0.50474 0.442 0.0483 0.0
H2157 H 0.47319 0.4476 0.05259 0.0
H2158 H 0.53971 0.4487 0.01476 0.0
H2159 H 0.5724 0.47792 0.99443 0.0
C2160 C 0.21888 0.07946 0.02926 0.0
C2161 C 0.23635 0.08296 -0.00071 0.0
C2162 C 0.26916 0.13829 0.01284 0.0
C2163 C 0.24834 0.13567 0.03973 0.0
N2164 N 0.19767 0.10305 0.06581 0.0
N2165 N 0.27546 0.11651 0.95902 0.0
C2166 C 0.22175 0.106 0.04609 0.0
C2167 C 0.26089 0.11262 0.9901 0.0
N2168 N 0.19869 0.05047 0.041 0.0
N2169 N 0.29719 0.16455 0.00962 0.0
H2170 H 0.26966 0.09817 0.94197 0.0
H2171 H 0.29143 0.13811 0.94918 0.0
H2172 H 0.3048 0.18324 0.02651 0.0
H2173 H 0.31414 0.16643 0.99241 0.0
H2174 H 0.18722 0.04633 0.06471 0.0
H2175 H 0.19607 0.03068 0.02865 0.0
H2176 H 0.17689 0.08231 0.0683 0.0
H2177 H 0.19634 0.12163 0.0758 0.0
C2178 C 0.91873 0.11612 0.01813 0.0
C2179 C 0.89236 0.118 0.00803 0.0
C2180 C 0.9268 0.16141 0.97003 0.0
C2181 C 0.95328 0.16325 0.98629 0.0
N2182 N 0.97284 0.14556 0.0326 0.0
N2183 N 0.87264 0.14619 0.97633 0.0
C2184 C 0.94867 0.14156 0.01246 0.0
C2185 C 0.89665 0.14171 0.98442 0.0
N2186 N 0.91528 0.08959 0.0324 0.0
N2187 N 0.93003 0.1767 0.93972 0.0
H2188 H 0.85042 0.13237 0.98611 0.0
H2189 H 0.87553 0.16508 0.96191 0.0
H2190 H 0.95123 0.18885 0.92711 0.0
H2191 H 0.91126 0.17428 0.9254 0.0
H2192 H 0.93398 0.08651 0.03798 0.0
H2193 H 0.89377 0.06953 0.03433 0.0
H2194 H 0.97006 0.13138 0.05374 0.0
H2195 H 0.99476 0.16507 0.03063 0.0
C2196 C 0.92599 0.81869 0.99337 0.0
C2197 C 0.9202 0.78809 -0.00297 0.0
C2198 C 0.86852 0.76988 0.97139 0.0
C2199 C 0.87275 0.80022 0.9741 0.0
N2200 N 0.90371 0.85167 -0.0029 0.0
N2201 N 0.88434 0.73368 0.99173 0.0
C2202 C 0.90109 0.82412 0.98767 0.0
C2203 C 0.89099 0.76333 0.98645 0.0
N2204 N 0.95553 0.84273 -0.00399 0.0
N2205 N 0.84383 0.74767 0.95351 0.0
H2206 H 0.90077 0.72847 0.00114 0.0
H2207 H 0.86234 0.71465 0.98827 0.0
H2208 H 0.82776 0.75198 0.94133 0.0
H2209 H 0.84096 0.72595 0.94817 0.0
H2210 H 0.9615 0.86559 0.99134 0.0
H2211 H 0.9742 0.83905 -0.00134 0.0
H2212 H 0.92314 0.86903 0.00965 0.0
H2213 H 0.88503 0.85552 -0.00358 0.0
C2214 C 0.11007 0.19127 0.47049 0.0
C2215 C 0.13572 0.22163 0.46643 0.0
C2216 C 0.10731 0.24055 0.50212 0.0
C2217 C 0.08037 0.21099 0.50049 0.0
N2218 N 0.05453 0.16059 0.47429 0.0
N2219 N 0.15609 0.27669 0.47576 0.0
C2220 C 0.0813 0.18724 0.4816 0.0
C2221 C 0.13371 0.24683 0.48149 0.0
N2222 N 0.11348 0.16601 0.46605 0.0
N2223 N 0.10837 0.26221 0.52457 0.0
H2224 H 0.17627 0.28306 0.46215 0.0
H2225 H 0.15349 0.29544 0.48266 0.0
H2226 H 0.08986 0.25816 0.5405 0.0
H2227 H 0.12852 0.283 0.52966 0.0
H2228 H 0.09574 0.14359 0.47113 0.0
H2229 H 0.13496 0.16774 0.46225 0.0
H2230 H 0.05386 0.14335 0.45841 0.0
H2231 H 0.0329 0.15754 0.48083 0.0
C2232 C 0.78119 0.87734 0.46779 0.0
C2233 C 0.78783 0.90533 0.48474 0.0
C2234 C 0.80292 0.88703 0.53641 0.0
C2235 C 0.80275 0.86282 0.51659 0.0
N2236 N 0.79555 0.83809 0.46089 0.0
N2237 N 0.806 0.93719 0.53587 0.0
C2238 C 0.79244 0.85848 0.48173 0.0
C2239 C 0.79853 0.91011 0.51952 0.0
N2240 N 0.76415 0.86886 0.43802 0.0
N2241 N 0.80678 0.88755 0.5715 0.0
H2242 H 0.80238 0.95405 0.52455 0.0
H2243 H 0.81728 0.94356 0.55973 0.0
H2244 H 0.80879 0.87031 0.58445 0.0
H2245 H 0.80474 0.90303 0.58789 0.0
H2246 H 0.75636 0.84754 0.42598 0.0
H2247 H 0.75487 0.88176 0.4279 0.0
H2248 H 0.79132 0.83639 0.43427 0.0
H2249 H 0.80546 0.82521 0.46926 0.0
C2250 C 0.15868 0.88745 0.49382 0.0
C2251 C 0.12676 0.87708 0.49789 0.0
C2252 C 0.13966 0.92686 0.52468 0.0
C2253 C 0.17146 0.9382 0.51783 0.0
N2254 N 0.2119 0.92685 0.50616 0.0
N2255 N 0.08786 0.88205 0.52854 0.0
C2256 C 0.18115 0.91751 0.50585 0.0
C2257 C 0.11768 0.89524 0.5174 0.0
N2258 N 0.16726 0.86889 0.47699 0.0
N2259 N 0.13027 0.94674 0.53597 0.0
H2260 H 0.07227 0.85864 0.52436 0.0
H2261 H 0.07973 0.89309 0.5448 0.0
H2262 H 0.14573 0.96993 0.54122 0.0
H2263 H 0.10716 0.94076 0.53803 0.0
H2264 H 0.1898 0.87593 0.46932 0.0
H2265 H 0.15113 0.84625 0.47011 0.0
H2266 H 0.22075 0.91248 0.50008 0.0
H2267 H 0.22841 0.94849 0.51557 0.0
C2268 C 0.77337 0.92899 0.01084 0.0
C2269 C 0.80287 0.95473 0.00376 0.0
C2270 C 0.81714 0.91993 0.9734 0.0
C2271 C 0.78701 0.89431 0.97933 0.0
N2272 N 0.73398 0.87726 0.99429 0.0
N2273 N 0.85052 0.97591 0.9723 0.0
C2274 C 0.76436 0.8998 -0.00495 0.0
C2275 C 0.82391 0.95049 0.98289 0.0
N2276 N 0.75463 0.93178 0.03456 0.0
N2277 N 0.83989 0.91504 0.96081 0.0
H2278 H 0.85576 0.99826 0.97903 0.0
H2279 H 0.86576 0.97506 0.95449 0.0
H2280 H 0.83612 0.89325 0.95411 0.0
H2281 H 0.86302 0.93222 0.9595 0.0
H2282 H 0.73423 0.91303 0.04366 0.0
H2283 H 0.76093 0.95242 0.04749 0.0
H2284 H 0.71617 0.88087 0.00258 0.0
H2285 H 0.72634 0.85615 0.98174 0.0
C2286 C 0.11519 0.89251 0.02403 0.0
C2287 C 0.08944 0.86992 0.00495 0.0
C2288 C 0.12067 0.88759 0.95181 0.0
C2289 C 0.14394 0.91394 0.96956 0.0
N2290 N 0.16384 0.94132 0.02325 0.0
N2291 N 0.0669 0.8472 0.94989 0.0
C2292 C 0.14161 0.91604 0.00607 0.0
C2293 C 0.09217 0.86741 0.96868 0.0
N2294 N 0.11404 0.89136 0.05942 0.0
N2295 N 0.12602 0.88168 0.91879 0.0
H2296 H 0.04564 0.83225 0.96126 0.0
H2297 H 0.06634 0.84688 0.92286 0.0
H2298 H 0.14728 0.89504 0.90689 0.0
H2299 H 0.11116 0.86162 0.90521 0.0
H2300 H 0.13268 0.9055 0.0753 0.0
H2301 H 0.09501 0.87413 0.07273 0.0
H2302 H 0.16193 0.94628 0.04908 0.0
H2303 H 0.18386 0.95811 0.01096 0.0
C2304 C 0.16267 0.21278 0.96553 0.0
C2305 C 0.17166 0.22425 -0.00029 0.0
C2306 C 0.14392 0.25322 0.99412 0.0
C2307 C 0.13343 0.24024 0.96057 0.0
N2308 N 0.12813 0.2034 0.91691 0.0
N2309 N 0.16675 0.25094 0.04902 0.0
C2310 C 0.14148 0.21874 0.94707 0.0
C2311 C 0.16113 0.24326 0.01471 0.0
N2312 N 0.17516 0.19674 0.95052 0.0
N2313 N 0.13857 0.27597 0.00575 0.0
H2314 H 0.17945 0.2442 0.0645 0.0
H2315 H 0.15701 0.26195 0.0627 0.0
H2316 H 0.12558 0.28336 0.99183 0.0
H2317 H 0.14863 0.28887 0.02808 0.0
H2318 H 0.17212 0.19012 0.92454 0.0
H2319 H 0.1909 0.19236 0.9635 0.0
H2320 H 0.13069 0.18538 0.90716 0.0
H2321 H 0.11206 0.20679 0.90322 0.0
C2322 C 0.9002 0.7564 0.50465 0.0
C2323 C 0.88692 0.77514 0.49776 0.0
C2324 C 0.93169 0.80757 0.46027 0.0
C2325 C 0.94757 0.79267 0.47319 0.0
N2326 N 0.94716 0.75379 0.51034 0.0
N2327 N 0.88988 0.81879 0.46831 0.0
C2328 C 0.93164 0.76684 0.49551 0.0
C2329 C 0.90241 0.80051 0.47478 0.0
N2330 N 0.88264 0.72864 0.52055 0.0
N2331 N 0.94472 0.82842 0.43396 0.0
H2332 H 0.86805 0.81331 0.47747 0.0
H2333 H 0.90152 0.83978 0.45522 0.0
H2334 H 0.96562 0.83322 0.42258 0.0
H2335 H 0.93358 0.83853 0.42137 0.0
H2336 H 0.88981 0.71247 0.52336 0.0
H2337 H 0.8596 0.72068 0.52709 0.0
H2338 H 0.93779 0.7371 0.52975 0.0
H2339 H 0.97039 0.76148 0.50547 0.0
C2340 C 0.25927 0.14584 0.52537 0.0
C2341 C 0.26093 0.12228 0.50631 0.0
C2342 C 0.25694 0.14715 0.45277 0.0
C2343 C 0.24802 0.1657 0.47238 0.0
N2344 N 0.23743 0.17941 0.52868 0.0
N2345 N 0.26177 0.10102 0.45059 0.0
C2346 C 0.24881 0.16456 0.50908 0.0
C2347 C 0.26035 0.12334 0.46953 0.0
N2348 N 0.2679 0.15039 0.55936 0.0
N2349 N 0.26275 0.1528 0.41816 0.0
H2350 H 0.26577 0.08447 0.46201 0.0
H2351 H 0.25771 0.09824 0.42396 0.0
H2352 H 0.26179 0.17086 0.4058 0.0
H2353 H 0.27163 0.14192 0.40276 0.0
H2354 H 0.26988 0.16893 0.57382 0.0
H2355 H 0.27673 0.13781 0.57139 0.0
H2356 H 0.23446 0.17659 0.55547 0.0
H2357 H 0.22808 0.19203 0.51798 0.0
C2358 C 0.89237 0.13032 0.48524 0.0
C2359 C 0.92033 0.13433 0.49958 0.0
C2360 C 0.90342 0.0801 0.48653 0.0
C2361 C 0.87664 0.07643 0.46958 0.0
N2362 N 0.84904 0.10037 0.44638 0.0
N2363 N 0.95602 0.11548 0.50409 0.0
C2364 C 0.87203 0.10226 0.46706 0.0
C2365 C 0.92696 0.10996 0.49679 0.0
N2366 N 0.88476 0.15276 0.48993 0.0
N2367 N 0.90571 0.05469 0.49431 0.0
H2368 H 0.97396 0.13751 0.51038 0.0
H2369 H 0.96297 0.09925 0.49995 0.0
H2370 H 0.88789 0.03227 0.48927 0.0
H2371 H 0.92354 0.0557 0.50929 0.0
H2372 H 0.86321 0.14982 0.48349 0.0
H2373 H 0.89965 0.17374 0.50199 0.0
H2374 H 0.84611 0.11917 0.44106 0.0
H2375 H 0.83461 0.08056 0.43216 0.0
C2376 C 0.91938 0.44879 0.39356 0.0
C2377 C 0.91582 0.47249 0.37743 0.0
C2378 C 0.91364 0.44838 0.32051 0.0
C2379 C 0.91171 0.42219 0.33728 0.0
N2380 N 0.91312 0.39726 0.38959 0.0
N2381 N 0.91024 0.49526 0.32494 0.0
C2382 C 0.91541 0.42272 0.37375 0.0
C2383 C 0.91391 0.47281 0.34058 0.0
N2384 N 0.92634 0.45122 0.42811 0.0
N2385 N 0.91464 0.44936 0.28511 0.0
H2386 H 0.91126 0.51376 0.33862 0.0
H2387 H 0.90501 0.49505 0.29878 0.0
H2388 H 0.91423 0.43159 0.27038 0.0
H2389 H 0.91841 0.46846 0.27059 0.0
H2390 H 0.93195 0.43648 0.44117 0.0
H2391 H 0.92905 0.46976 0.44317 0.0
H2392 H 0.91182 0.39404 0.41635 0.0
H2393 H 0.91109 0.37848 0.37549 0.0
C2394 C 0.59984 0.45706 0.28298 0.0
C2395 C 0.60924 0.48774 0.2932 0.0
C2396 C 0.55857 0.46961 0.32044 0.0
C2397 C 0.55193 0.43872 0.31662 0.0
N2398 N 0.56386 0.40209 0.29132 0.0
N2399 N 0.59811 0.5239 0.32139 0.0
C2400 C 0.5716 0.43219 0.2962 0.0
C2401 C 0.58841 0.49429 0.31115 0.0
N2402 N 0.61859 0.45197 0.26152 0.0
N2403 N 0.53652 0.47511 0.33392 0.0
H2404 H 0.61992 0.54217 0.31501 0.0
H2405 H 0.58548 0.53008 0.33774 0.0
H2406 H 0.51456 0.45712 0.34033 0.0
H2407 H 0.53883 0.49696 0.33544 0.0
H2408 H 0.61272 0.43052 0.25109 0.0
H2409 H 0.63945 0.47003 0.25222 0.0
H2410 H 0.57828 0.39518 0.27984 0.0
H2411 H 0.54267 0.38383 0.29964 0.0
C2412 C 0.53508 0.0905 0.32249 0.0
C2413 C 0.54354 0.11874 0.30548 0.0
C2414 C 0.59815 0.13213 0.30656 0.0
C2415 C 0.58998 0.1052 0.32634 0.0
N2416 N 0.55096 0.05472 0.34408 0.0
N2417 N 0.58121 0.16248 0.27336 0.0
C2418 C 0.55836 0.08291 0.33097 0.0
C2419 C 0.57455 0.13814 0.29467 0.0
N2420 N 0.505 0.07185 0.33204 0.0
N2421 N 0.62871 0.15274 0.30112 0.0
H2422 H 0.5642 0.16716 0.26465 0.0
H2423 H 0.60281 0.17653 0.26227 0.0
H2424 H 0.646 0.14788 0.30825 0.0
H2425 H 0.63699 0.17459 0.29048 0.0
H2426 H 0.49736 0.05236 0.34757 0.0
H2427 H 0.48771 0.07682 0.32543 0.0
H2428 H 0.52846 0.03644 0.3468 0.0
H2429 H 0.56795 0.04896 0.34914 0.0
C2430 C 0.81768 0.59874 0.83157 0.0
C2431 C 0.8243 0.57838 0.81217 0.0
C2432 C 0.7708 0.53676 0.82294 0.0
C2433 C 0.76493 0.55607 0.84513 0.0
N2434 N 0.7867 0.60408 0.8768 0.0
N2435 N 0.80891 0.52539 0.79916 0.0
C2436 C 0.78946 0.58678 0.85114 0.0
C2437 C 0.80147 0.54656 0.81109 0.0
N2438 N 0.83843 0.62968 0.83139 0.0
N2439 N 0.74665 0.50942 0.81172 0.0
H2440 H 0.8313 0.53129 0.79204 0.0
H2441 H 0.79372 0.50165 0.80037 0.0
H2442 H 0.72376 0.50253 0.81783 0.0
H2443 H 0.74905 0.49559 0.79312 0.0
H2444 H 0.83345 0.6461 0.84134 0.0
H2445 H 0.8601 0.63896 0.81965 0.0
H2446 H 0.80483 0.62546 0.88462 0.0
H2447 H 0.76734 0.59575 0.89269 0.0
C2448 C 0.4444 0.19414 0.84331 0.0
C2449 C 0.46742 0.1881 0.82978 0.0
C2450 C 0.48579 0.23355 0.79275 0.0
C2451 C 0.46021 0.23736 0.80183 0.0
N2452 N 0.41188 0.21685 0.83292 0.0
N2453 N 0.50293 0.19678 0.78336 0.0
C2454 C 0.43845 0.21638 0.82639 0.0
C2455 C 0.48553 0.206 0.80161 0.0
N2456 N 0.42911 0.17969 0.87292 0.0
N2457 N 0.51145 0.25697 0.77732 0.0
H2458 H 0.50221 0.17593 0.78849 0.0
H2459 H 0.51499 0.20803 0.76093 0.0
H2460 H 0.51447 0.27895 0.77353 0.0
H2461 H 0.53137 0.25573 0.77269 0.0
H2462 H 0.41423 0.18525 0.88591 0.0
H2463 H 0.43332 0.16388 0.88581 0.0
H2464 H 0.39401 0.20019 0.84801 0.0
H2465 H 0.40668 0.23241 0.82107 0.0
C2466 C 0.79064 0.25928 0.83693 0.0
C2467 C 0.81896 0.26837 0.85425 0.0
C2468 C 0.81112 0.21614 0.84312 0.0
C2469 C 0.78166 0.20683 0.82858 0.0
N2470 N 0.73975 0.21698 0.82348 0.0
N2471 N 0.85186 0.25197 0.88166 0.0
C2472 C 0.77025 0.22761 0.82972 0.0
C2473 C 0.82806 0.24578 0.85969 0.0
N2474 N 0.78396 0.28105 0.8253 0.0
N2475 N 0.82324 0.19711 0.84031 0.0
H2476 H 0.86342 0.27245 0.89574 0.0
H2477 H 0.85785 0.23551 0.88861 0.0
H2478 H 0.81076 0.17501 0.82958 0.0
H2479 H 0.84597 0.20393 0.84696 0.0
H2480 H 0.76459 0.27559 0.81018 0.0
H2481 H 0.79968 0.30467 0.8269 0.0
H2482 H 0.72957 0.23071 0.82599 0.0
H2483 H 0.72431 0.19346 0.82047 0.0
C2484 C 0.46599 0.24588 0.28003 0.0
C2485 C 0.4605 0.21883 0.29831 0.0
C2486 C 0.46301 0.24605 0.3528 0.0
C2487 C 0.4752 0.27458 0.3346 0.0
N2488 N 0.4911 0.30172 0.28023 0.0
N2489 N 0.45362 0.19339 0.35342 0.0
C2490 C 0.47697 0.27445 0.29796 0.0
C2491 C 0.45844 0.21876 0.33512 0.0
N2492 N 0.46054 0.24412 0.2452 0.0
N2493 N 0.45524 0.24503 0.38693 0.0
H2494 H 0.44878 0.17272 0.34157 0.0
H2495 H 0.45585 0.19335 0.38029 0.0
H2496 H 0.45733 0.26433 0.3999 0.0
H2497 H 0.44385 0.22464 0.40114 0.0
H2498 H 0.46142 0.26218 0.23083 0.0
H2499 H 0.4517 0.22332 0.23176 0.0
H2500 H 0.49605 0.30315 0.25379 0.0
H2501 H 0.50052 0.32314 0.29243 0.0
C2502 C 0.81569 0.24134 0.34048 0.0
C2503 C 0.81757 0.24182 0.30365 0.0
C2504 C 0.76556 0.1952 0.30126 0.0
C2505 C 0.76311 0.19561 0.33774 0.0
N2506 N 0.78759 0.21419 0.39281 0.0
N2507 N 0.79787 0.21346 0.25026 0.0
C2508 C 0.78901 0.21704 0.35755 0.0
C2509 C 0.7937 0.21669 0.28461 0.0
N2510 N 0.83852 0.26516 0.35889 0.0
N2511 N 0.74008 0.17574 0.28221 0.0
H2512 H 0.818 0.22859 0.23747 0.0
H2513 H 0.78303 0.19419 0.23554 0.0
H2514 H 0.71929 0.1595 0.29354 0.0
H2515 H 0.7388 0.17702 0.25535 0.0
H2516 H 0.83729 0.26845 0.3854 0.0
H2517 H 0.85856 0.28236 0.34708 0.0
H2518 H 0.80611 0.22736 0.40927 0.0
H2519 H 0.76821 0.19664 0.40532 0.0
C2520 C 0.81967 0.56323 0.31547 0.0
C2521 C 0.83303 0.57265 0.34888 0.0
C2522 C 0.80461 0.60142 0.35447 0.0
C2523 C 0.78938 0.58939 0.32189 0.0
N2524 N 0.77154 0.54396 0.28557 0.0
N2525 N 0.8305 0.59422 0.40407 0.0
C2526 C 0.79369 0.56603 0.3062 0.0
C2527 C 0.82366 0.59028 0.36949 0.0
N2528 N 0.83146 0.55112 0.29239 0.0
N2529 N 0.79944 0.62197 0.37242 0.0
H2530 H 0.84207 0.58457 0.41662 0.0
H2531 H 0.82177 0.60416 0.42115 0.0
H2532 H 0.78138 0.62596 0.36663 0.0
H2533 H 0.81321 0.63497 0.39315 0.0
H2534 H 0.8232 0.54544 0.26701 0.0
H2535 H 0.85152 0.55025 0.29752 0.0
H2536 H 0.77357 0.52572 0.27527 0.0
H2537 H 0.74942 0.54087 0.28363 0.0
C2538 C 0.62573 0.14742 0.84823 0.0
C2539 C 0.62559 0.13055 0.8186 0.0
C2540 C 0.56954 0.09653 0.82398 0.0
C2541 C 0.56963 0.11361 0.85351 0.0
N2542 N 0.5961 0.15779 0.8909 0.0
N2543 N 0.5978 0.09267 0.77457 0.0
C2544 C 0.59728 0.13998 0.86463 0.0
C2545 C 0.59753 0.10614 0.80537 0.0
N2546 N 0.65337 0.16988 0.86116 0.0
N2547 N 0.54284 0.07047 0.8146 0.0
H2548 H 0.61814 0.09888 0.76094 0.0
H2549 H 0.57795 0.07682 0.76142 0.0
H2550 H 0.52167 0.06382 0.82655 0.0
H2551 H 0.54175 0.0548 0.79605 0.0
H2552 H 0.65583 0.18154 0.88438 0.0
H2553 H 0.67439 0.17548 0.84956 0.0
H2554 H 0.6148 0.17872 0.89876 0.0
H2555 H 0.57549 0.15268 0.90327 0.0
C2556 C 0.9433 0.49217 0.80776 0.0
C2557 C 0.91485 0.48859 0.79589 0.0
C2558 C 0.89004 0.43279 0.80692 0.0
C2559 C 0.91667 0.43754 0.82523 0.0
N2560 N 0.96974 0.47095 0.84111 0.0
N2561 N 0.86117 0.45565 0.78258 0.0
C2562 C 0.94396 0.46689 0.82423 0.0
C2563 C 0.88839 0.45873 0.79413 0.0
N2564 N 0.96944 0.52019 0.8038 0.0
N2565 N 0.86611 0.40332 0.80275 0.0
H2566 H 0.85955 0.47421 0.77277 0.0
H2567 H 0.84005 0.43522 0.78409 0.0
H2568 H 0.86721 0.38427 0.81205 0.0
H2569 H 0.84667 0.39755 0.78771 0.0
H2570 H 0.99155 0.52441 0.80963 0.0
H2571 H 0.969 0.53872 0.79189 0.0
H2572 H 0.9894 0.49235 0.84512 0.0
H2573 H 0.97105 0.45254 0.85199 0.0
C2574 C 0.57096 0.43714 0.81094 0.0
C2575 C 0.54424 0.41502 0.82901 0.0
C2576 C 0.56219 0.44727 0.88144 0.0
C2577 C 0.58963 0.46949 0.86386 0.0
N2578 N 0.61693 0.48837 0.80986 0.0
N2579 N 0.51024 0.40289 0.87743 0.0
C2580 C 0.59272 0.4655 0.82776 0.0
C2581 C 0.53849 0.42166 0.86288 0.0
N2582 N 0.57619 0.43011 0.7783 0.0
N2583 N 0.55949 0.44944 0.9165 0.0
H2584 H 0.49289 0.38382 0.86428 0.0
H2585 H 0.503 0.4078 0.90073 0.0
H2586 H 0.57592 0.46754 0.93139 0.0
H2587 H 0.54205 0.43216 0.93141 0.0
H2588 H 0.59661 0.44328 0.76457 0.0
H2589 H 0.56024 0.40997 0.76549 0.0
H2590 H 0.61944 0.48819 0.78306 0.0
H2591 H 0.63338 0.50885 0.8216 0.0
C2592 C 0.59191 0.78378 0.69595 0.0
C2593 C 0.58522 0.80525 0.67945 0.0
C2594 C 0.57003 0.77215 0.62719 0.0
C2595 C 0.57082 0.74817 0.64631 0.0
N2596 N 0.58051 0.7307 0.70046 0.0
N2597 N 0.56753 0.81962 0.62866 0.0
C2598 C 0.58189 0.75411 0.68091 0.0
C2599 C 0.57475 0.79967 0.64454 0.0
N2600 N 0.60727 0.7917 0.72684 0.0
N2601 N 0.56484 0.76846 0.5923 0.0
H2602 H 0.57168 0.84021 0.64026 0.0
H2603 H 0.55627 0.81513 0.60483 0.0
H2604 H 0.56202 0.74889 0.57922 0.0
H2605 H 0.5663 0.78576 0.57605 0.0
H2606 H 0.61541 0.77859 0.73905 0.0
H2607 H 0.61435 0.81308 0.73836 0.0
H2608 H 0.58478 0.73247 0.72705 0.0
H2609 H 0.57256 0.70852 0.69079 0.0
C2610 C 0.27586 0.7978 0.63591 0.0
C2611 C 0.28289 0.82864 0.62964 0.0
C2612 C 0.23218 0.81557 0.65472 0.0
C2613 C 0.22469 0.78434 0.659 0.0
N2614 N 0.23638 0.74439 0.64582 0.0
N2615 N 0.26474 0.86496 0.6264 0.0
C2616 C 0.24556 0.77511 0.64665 0.0
C2617 C 0.26012 0.83699 0.6371 0.0
N2618 N 0.29878 0.7906 0.63323 0.0
N2619 N 0.21317 0.82502 0.6687 0.0
H2620 H 0.28466 0.88073 0.61328 0.0
H2621 H 0.24793 0.87142 0.6281 0.0
H2622 H 0.19207 0.80958 0.68021 0.0
H2623 H 0.21897 0.8481 0.67026 0.0
H2624 H 0.29601 0.76928 0.64039 0.0
H2625 H 0.32156 0.80713 0.6274 0.0
H2626 H 0.24942 0.73567 0.63458 0.0
H2627 H 0.21415 0.72749 0.65323 0.0
C2628 C 0.21757 0.48138 0.68189 0.0
C2629 C 0.198 0.4601 0.65646 0.0
C2630 C 0.22882 0.43383 0.65888 0.0
C2631 C 0.25088 0.45768 0.6808 0.0
N2632 N 0.26541 0.50327 0.71514 0.0
N2633 N 0.18422 0.41608 0.62048 0.0
C2634 C 0.24478 0.48104 0.69313 0.0
C2635 C 0.20312 0.43593 0.64547 0.0
N2636 N 0.20994 0.50214 0.69483 0.0
N2637 N 0.23272 0.40945 0.65032 0.0
H2638 H 0.16484 0.41667 0.61143 0.0
H2639 H 0.18815 0.39998 0.60779 0.0
H2640 H 0.25188 0.40787 0.65794 0.0
H2641 H 0.21619 0.38981 0.6374 0.0
H2642 H 0.22151 0.51744 0.71501 0.0
H2643 H 0.19022 0.50252 0.68664 0.0
H2644 H 0.26443 0.52274 0.72267 0.0
H2645 H 0.2844 0.50273 0.72548 0.0
C2646 C 0.4523 0.87969 0.12291 0.0
C2647 C 0.47797 0.91025 0.12389 0.0
C2648 C 0.44793 0.92474 0.16331 0.0
C2649 C 0.42116 0.89531 0.15846 0.0
N2650 N 0.39669 0.84684 0.12815 0.0
N2651 N 0.49918 0.96289 0.14286 0.0
C2652 C 0.42316 0.87337 0.13678 0.0
C2653 C 0.47542 0.93306 0.14354 0.0
N2654 N 0.45573 0.85652 0.10881 0.0
N2655 N 0.4475 0.9443 0.18779 0.0
H2656 H 0.52012 0.96929 0.13048 0.0
H2657 H 0.49756 0.98133 0.15309 0.0
H2658 H 0.42804 0.93871 0.20281 0.0
H2659 H 0.46703 0.96483 0.19513 0.0
H2660 H 0.43873 0.83331 0.10997 0.0
H2661 H 0.47682 0.86011 0.09951 0.0
H2662 H 0.39589 0.83113 0.1098 0.0
H2663 H 0.37495 0.84224 0.13658 0.0
C2664 C 0.11667 0.55202 0.11852 0.0
C2665 C 0.11397 0.57423 0.13943 0.0
C2666 C 0.12505 0.55212 0.19133 0.0
C2667 C 0.12807 0.53043 0.17014 0.0
N2668 N 0.11855 0.50429 0.11571 0.0
N2669 N 0.10946 0.59117 0.1964 0.0
C2670 C 0.12093 0.52859 0.13445 0.0
C2671 C 0.11578 0.57257 0.17615 0.0
N2672 N 0.11717 0.55442 0.08317 0.0
N2673 N 0.13284 0.55437 0.22559 0.0
H2674 H 0.10318 0.60646 0.18584 0.0
H2675 H 0.10793 0.58971 0.22334 0.0
H2676 H 0.13934 0.53965 0.2372 0.0
H2677 H 0.13449 0.57166 0.24203 0.0
H2678 H 0.12278 0.54148 0.06661 0.0
H2679 H 0.11415 0.57097 0.07023 0.0
H2680 H 0.1105 0.49951 0.09025 0.0
H2681 H 0.12181 0.48716 0.127 0.0
C2682 C 0.45837 0.55104 0.17095 0.0
C2683 C 0.45556 0.54895 0.13412 0.0
C2684 C 0.50049 0.60224 0.12949 0.0
C2685 C 0.50078 0.60528 0.16592 0.0
N2686 N 0.4863 0.5816 0.22181 0.0
N2687 N 0.47495 0.57285 0.07789 0.0
C2688 C 0.48167 0.57917 0.18674 0.0
C2689 C 0.47748 0.57441 0.11333 0.0
N2690 N 0.43734 0.52711 0.19083 0.0
N2691 N 0.52216 0.62638 0.11031 0.0
H2692 H 0.4595 0.5531 0.06438 0.0
H2693 H 0.48703 0.59148 0.0613 0.0
H2694 H 0.53794 0.64755 0.12124 0.0
H2695 H 0.52621 0.62513 0.08405 0.0
H2696 H 0.43562 0.52809 0.21765 0.0
H2697 H 0.42054 0.50618 0.18033 0.0
H2698 H 0.47522 0.5633 0.23908 0.0
H2699 H 0.50338 0.60189 0.2334 0.0
C2700 C 0.15621 0.62172 0.6371 0.0
C2701 C 0.14844 0.62138 0.67247 0.0
C2702 C 0.12889 0.56522 0.6747 0.0
C2703 C 0.13692 0.56551 0.63912 0.0
N2704 N 0.15159 0.59293 0.58456 0.0
N2705 N 0.12232 0.59284 0.72331 0.0
C2706 C 0.14849 0.59347 0.61977 0.0
C2707 C 0.13289 0.59297 0.69059 0.0
N2708 N 0.17231 0.64947 0.62052 0.0
N2709 N 0.11948 0.53908 0.69397 0.0
H2710 H 0.12563 0.613 0.73535 0.0
H2711 H 0.10828 0.57282 0.73729 0.0
H2712 H 0.11646 0.51851 0.68357 0.0
H2713 H 0.11653 0.53819 0.72077 0.0
H2714 H 0.1824 0.65219 0.59617 0.0
H2715 H 0.17706 0.67024 0.63219 0.0
H2716 H 0.15672 0.61161 0.56848 0.0
H2717 H 0.14642 0.57296 0.57087 0.0
C2718 C 0.42875 0.5529 0.67334 0.0
C2719 C 0.42323 0.52218 0.67217 0.0
C2720 C 0.47758 0.54198 0.65489 0.0
C2721 C 0.4826 0.57255 0.65417 0.0
N2722 N 0.46622 0.60803 0.67209 0.0
N2723 N 0.44394 0.48804 0.6709 0.0
C2724 C 0.45918 0.57819 0.66687 0.0
C2725 C 0.44829 0.51698 0.66591 0.0
N2726 N 0.40446 0.55775 0.67842 0.0
N2727 N 0.50038 0.53675 0.64338 0.0
H2728 H 0.42287 0.46972 0.67936 0.0
H2729 H 0.46159 0.48276 0.66956 0.0
H2730 H 0.52249 0.55484 0.63782 0.0
H2731 H 0.49729 0.51487 0.63866 0.0
H2732 H 0.40602 0.57921 0.67601 0.0
H2733 H 0.38203 0.53975 0.68289 0.0
H2734 H 0.45127 0.61423 0.68365 0.0
H2735 H 0.48844 0.62657 0.66774 0.0
C2736 C 0.43509 0.88182 0.6826 0.0
C2737 C 0.44614 0.90866 0.66181 0.0
C2738 C 0.49939 0.91843 0.66896 0.0
C2739 C 0.48828 0.8909 0.68866 0.0
N2740 N 0.44724 0.8522 0.7233 0.0
N2741 N 0.48911 0.95758 0.64554 0.0
C2742 C 0.45659 0.87456 0.6985 0.0
C2743 C 0.47849 0.92872 0.65875 0.0
N2744 N 0.40398 0.86253 0.68574 0.0
N2745 N 0.52927 0.93352 0.65768 0.0
H2746 H 0.47406 0.96538 0.63837 0.0
H2747 H 0.51237 0.97454 0.64557 0.0
H2748 H 0.54495 0.92629 0.6638 0.0
H2749 H 0.53781 0.95174 0.64006 0.0
H2750 H 0.39415 0.84071 0.69699 0.0
H2751 H 0.38804 0.86816 0.67565 0.0
H2752 H 0.42504 0.84086 0.7337 0.0
H2753 H 0.46279 0.84733 0.73591 0.0
C2754 C 0.25836 0.4567 0.21446 0.0
C2755 C 0.23089 0.45267 0.19802 0.0
C2756 C 0.25464 0.45246 0.1416 0.0
C2757 C 0.28374 0.46265 0.1578 0.0
N2758 N 0.31371 0.47679 0.21014 0.0
N2759 N 0.20433 0.44874 0.14419 0.0
C2760 C 0.28557 0.46492 0.19442 0.0
C2761 C 0.22916 0.4505 0.16109 0.0
N2762 N 0.25845 0.45237 0.24944 0.0
N2763 N 0.25148 0.44459 0.10731 0.0
H2764 H 0.18526 0.44721 0.15694 0.0
H2765 H 0.20358 0.45096 0.11739 0.0
H2766 H 0.26958 0.44537 0.09293 0.0
H2767 H 0.23038 0.43436 0.09432 0.0
H2768 H 0.27653 0.45195 0.26237 0.0
H2769 H 0.23915 0.44596 0.265 0.0
H2770 H 0.31731 0.48266 0.23636 0.0
H2771 H 0.33395 0.483 0.19638 0.0
C2772 C 0.61446 0.80832 0.15507 0.0
C2773 C 0.59099 0.77689 0.15259 0.0
C2774 C 0.55725 0.79272 0.12342 0.0
C2775 C 0.57869 0.82414 0.13122 0.0
N2776 N 0.62839 0.86255 0.15227 0.0
N2777 N 0.5417 0.73837 0.131 0.0
C2778 C 0.60785 0.83217 0.14573 0.0
C2779 C 0.56317 0.76894 0.13483 0.0
N2780 N 0.6428 0.815 0.16717 0.0
N2781 N 0.53098 0.7858 0.10556 0.0
H2782 H 0.54647 0.72095 0.13774 0.0
H2783 H 0.51938 0.73011 0.12177 0.0
H2784 H 0.52569 0.80265 0.09823 0.0
H2785 H 0.51517 0.76389 0.09648 0.0
H2786 H 0.66186 0.83715 0.16855 0.0
H2787 H 0.64769 0.79757 0.17329 0.0
H2788 H 0.64911 0.87038 0.16551 0.0
H2789 H 0.624 0.88015 0.14531 0.0
C2790 C 0.25656 0.78384 0.15959 0.0
C2791 C 0.25173 0.809 0.16692 0.0
C2792 C 0.19712 0.77621 0.14997 0.0
C2793 C 0.20089 0.74985 0.14909 0.0
N2794 N 0.23409 0.7282 0.15454 0.0
N2795 N 0.21701 0.82919 0.16922 0.0
C2796 C 0.23074 0.75367 0.1537 0.0
C2797 C 0.22196 0.80536 0.16156 0.0
N2798 N 0.2861 0.78901 0.15846 0.0
N2799 N 0.16986 0.77334 0.139 0.0
H2800 H 0.23488 0.85106 0.17607 0.0
H2801 H 0.19515 0.82695 0.17025 0.0
H2802 H 0.1519 0.75252 0.12951 0.0
H2803 H 0.16617 0.79195 0.13612 0.0
H2804 H 0.29171 0.7725 0.15049 0.0
H2805 H 0.30525 0.81096 0.16221 0.0
H2806 H 0.25455 0.72889 0.16148 0.0
H2807 H 0.21562 0.70589 0.15082 0.0
loop_
_geom_bond_atom_site_label_1
_geom_bond_atom_site_label_2
_geom_bond_distance
_geom_bond_site_symmetry_2
_ccdc_geom_bond_type
C0 C1 1.351 . S
C0 N3 1.368 . S
C0 H5 0.931 . S
C1 C0 1.351 . S
C1 N2 1.373 . S
C1 H29 0.930 . S
N2 C1 1.373 . S
N2 C4 1.340 . S
N3 C0 1.368 . S
N3 C4 1.321 . S
N3 Co6 2.135 . S
C4 N2 1.340 . S
C4 N3 1.321 . S
C4 H28 0.930 . S
H5 C0 0.931 . S
Co6 N3 2.135 . S
Co6 N9 2.121 . S
Co6 O14 2.055 . S
Co6 O17 2.039 . S
Co6 N20 2.140 . S
C7 O8 1.227 . S
C7 O17 1.265 . S
O8 C7 1.227 . S
N9 Co6 2.121 . S
N9 C11 1.375 . S
N9 C12 1.313 . S
C10 C11 1.338 . S
C10 N13 1.377 . S
C10 H30 0.930 . S
C11 N9 1.375 . S
C11 C10 1.338 . S
C11 H15 0.931 . S
C12 N9 1.313 . S
C12 N13 1.344 . S
C12 H16 0.930 . S
N13 C10 1.377 . S
N13 C12 1.344 . S
O14 Co6 2.055 . S
O14 C18 1.253 . S
H15 C11 0.931 . S
H16 C12 0.930 . S
O17 Co6 2.039 . S
O17 C7 1.265 . S
C18 O14 1.253 . S
C18 O19 1.227 . S
O19 C18 1.227 . S
N20 Co6 2.140 . S
N20 C23 1.346 . S
N20 C24 1.345 . S
C21 C22 1.387 . S
C21 C25 1.391 . S
C22 C21 1.387 . S
C22 C23 1.369 . S
C22 H31 0.929 . S
C23 N20 1.346 . S
C23 C22 1.369 . S
C23 H26 0.928 . S
C24 N20 1.345 . S
C24 C25 1.371 . S
C24 H27 0.931 . S
C25 C21 1.391 . S
C25 C24 1.371 . S
C25 H32 0.930 . S
H26 C23 0.928 . S
H27 C24 0.931 . S
H28 C4 0.930 . S
H29 C1 0.930 . S
H30 C10 0.930 . S
H31 C22 0.929 . S
H32 C25 0.930 . S
C33 C34 1.340 1_545 S
C33 N36 1.350 . S
C33 H38 0.935 . S
C34 C33 1.340 1_565 S
C34 N35 1.373 . S
C34 H62 0.930 . S
N35 C34 1.373 . S
N35 C37 1.340 . S
N36 C33 1.350 . S
N36 C37 1.292 1_545 S
N36 Co39 2.176 . S
C37 N35 1.340 . S
C37 N36 1.292 1_565 S
C37 H61 0.930 . S
H38 C33 0.935 . S
Co39 N36 2.176 . S
Co39 N42 2.121 . S
Co39 O47 2.055 . S
Co39 O50 2.039 . S
Co39 N53 2.140 . S
C40 O41 1.227 1_545 S
C40 O50 1.265 . S
O41 C40 1.227 1_565 S
N42 Co39 2.121 . S
N42 C44 1.375 . S
N42 C45 1.313 . S
C43 C44 1.338 . S
C43 N46 1.377 . S
C43 H63 0.930 . S
C44 N42 1.375 . S
C44 C43 1.338 . S
C44 H48 0.931 . S
C45 N42 1.313 . S
C45 N46 1.344 . S
C45 H49 0.930 . S
N46 C43 1.377 . S
N46 C45 1.344 . S
O47 Co39 2.055 . S
O47 C51 1.253 . S
H48 C44 0.931 . S
H49 C45 0.930 . S
O50 Co39 2.039 . S
O50 C40 1.265 . S
C51 O47 1.253 . S
C51 O52 1.227 . S
O52 C51 1.227 . S
N53 Co39 2.140 . S
N53 C56 1.346 1_545 S
N53 C57 1.345 . S
C54 C55 1.387 1_545 S
C54 C58 1.391 . S
C55 C54 1.387 1_565 S
C55 C56 1.369 . S
C55 H64 0.929 . S
C56 N53 1.346 1_565 S
C56 C55 1.369 . S
C56 H59 0.928 . S
C57 N53 1.345 . S
C57 C58 1.371 . S
C57 H60 0.931 . S
C58 C54 1.391 . S
C58 C57 1.371 . S
C58 H65 0.930 . S
H59 C56 0.928 . S
H60 C57 0.931 . S
H61 C37 0.930 . S
H62 C34 0.930 . S
H63 C43 0.930 . S
H64 C55 0.929 . S
H65 C58 0.930 . S
C66 C67 1.344 1_655 S
C66 N69 1.385 . S
C66 H71 0.941 . S
C67 C66 1.344 1_455 S
C67 N68 1.373 . S
C67 H95 0.930 . S
N68 C67 1.373 . S
N68 C70 1.340 . S
N69 C66 1.385 . S
N69 C70 1.279 1_655 S
N69 Co72 2.152 . S
C70 N68 1.340 . S
C70 N69 1.279 1_455 S
C70 H94 0.930 . S
H71 C66 0.941 . S
Co72 N69 2.152 . S
Co72 N75 2.121 . S
Co72 O80 2.055 . S
Co72 O83 2.039 . S
Co72 N86 2.140 . S
C73 O74 1.227 1_655 S
C73 O83 1.265 . S
O74 C73 1.227 1_455 S
N75 Co72 2.121 . S
N75 C77 1.375 . S
N75 C78 1.313 . S
C76 C77 1.338 . S
C76 N79 1.377 . S
C76 H96 0.930 . S
C77 N75 1.375 . S
C77 C76 1.338 . S
C77 H81 0.931 . S
C78 N75 1.313 . S
C78 N79 1.344 . S
C78 H82 0.930 . S
N79 C76 1.377 . S
N79 C78 1.344 . S
O80 Co72 2.055 . S
O80 C84 1.253 . S
H81 C77 0.931 . S
H82 C78 0.930 . S
O83 Co72 2.039 . S
O83 C73 1.265 . S
C84 O80 1.253 . S
C84 O85 1.227 . S
O85 C84 1.227 . S
N86 Co72 2.140 . S
N86 C89 1.346 1_655 S
N86 C90 1.345 . S
C87 C88 1.387 1_655 S
C87 C91 1.391 . S
C88 C87 1.387 1_455 S
C88 C89 1.369 . S
C88 H97 0.929 . S
C89 N86 1.346 1_455 S
C89 C88 1.369 . S
C89 H92 0.928 . S
C90 N86 1.345 . S
C90 C91 1.371 . S
C90 H93 0.931 . S
C91 C87 1.391 . S
C91 C90 1.371 . S
C91 H98 0.930 . S
H92 C89 0.928 . S
H93 C90 0.931 . S
H94 C70 0.930 . S
H95 C67 0.930 . S
H96 C76 0.930 . S
H97 C88 0.929 . S
H98 C91 0.930 . S
C99 C100 1.351 . S
C99 N102 1.368 . S
C99 H104 0.931 . S
C100 C99 1.351 . S
C100 N101 1.373 . S
C100 H128 0.930 . S
N101 C100 1.373 . S
N101 C103 1.340 . S
N102 C99 1.368 . S
N102 C103 1.321 . S
N102 Co105 2.135 . S
C103 N101 1.340 . S
C103 N102 1.321 . S
C103 H127 0.930 . S
H104 C99 0.931 . S
Co105 N102 2.135 . S
Co105 N108 2.121 . S
Co105 O113 2.055 . S
Co105 O116 2.039 . S
Co105 N119 2.140 . S
C106 O107 1.227 . S
C106 O116 1.265 . S
O107 C106 1.227 . S
N108 Co105 2.121 . S
N108 C110 1.375 . S
N108 C111 1.313 . S
C109 C110 1.338 . S
C109 N112 1.377 . S
C109 H129 0.930 . S
C110 N108 1.375 . S
C110 C109 1.338 . S
C110 H114 0.931 . S
C111 N108 1.313 . S
C111 N112 1.344 . S
C111 H115 0.930 . S
N112 C109 1.377 . S
N112 C111 1.344 . S
O113 Co105 2.055 . S
O113 C117 1.253 . S
H114 C110 0.931 . S
H115 C111 0.930 . S
O116 Co105 2.039 . S
O116 C106 1.265 . S
C117 O113 1.253 . S
C117 O118 1.227 . S
O118 C117 1.227 . S
N119 Co105 2.140 . S
N119 C122 1.346 . S
N119 C123 1.345 . S
C120 C121 1.387 . S
C120 C124 1.391 . S
C121 C120 1.387 . S
C121 C122 1.369 . S
C121 H130 0.929 . S
C122 N119 1.346 . S
C122 C121 1.369 . S
C122 H125 0.928 . S
C123 N119 1.345 . S
C123 C124 1.371 . S
C123 H126 0.931 . S
C124 C120 1.391 . S
C124 C123 1.371 . S
C124 H131 0.930 . S
H125 C122 0.928 . S
H126 C123 0.931 . S
H127 C103 0.930 . S
H128 C100 0.930 . S
H129 C109 0.930 . S
H130 C121 0.929 . S
H131 C124 0.930 . S
C132 C133 1.344 1_565 S
C132 N135 1.385 . S
C132 H137 0.941 . S
C133 C132 1.344 1_545 S
C133 N134 1.373 . S
C133 H161 0.930 . S
N134 C133 1.373 . S
N134 C136 1.340 . S
N135 C132 1.385 . S
N135 C136 1.279 1_565 S
N135 Co138 2.152 . S
C136 N134 1.340 . S
C136 N135 1.279 1_545 S
C136 H160 0.930 . S
H137 C132 0.941 . S
Co138 N135 2.152 . S
Co138 N141 2.121 . S
Co138 O146 2.055 . S
Co138 O149 2.039 . S
Co138 N152 2.140 . S
C139 O140 1.227 1_565 S
C139 O149 1.265 . S
O140 C139 1.227 1_545 S
N141 Co138 2.121 . S
N141 C143 1.375 . S
N141 C144 1.313 . S
C142 C143 1.338 . S
C142 N145 1.377 . S
C142 H162 0.930 . S
C143 N141 1.375 . S
C143 C142 1.338 . S
C143 H147 0.931 . S
C144 N141 1.313 . S
C144 N145 1.344 . S
C144 H148 0.930 . S
N145 C142 1.377 . S
N145 C144 1.344 . S
O146 Co138 2.055 . S
O146 C150 1.253 . S
H147 C143 0.931 . S
H148 C144 0.930 . S
O149 Co138 2.039 . S
O149 C139 1.265 . S
C150 O146 1.253 . S
C150 O151 1.227 . S
O151 C150 1.227 . S
N152 Co138 2.140 . S
N152 C155 1.346 1_565 S
N152 C156 1.345 . S
C153 C154 1.387 1_565 S
C153 C157 1.391 . S
C154 C153 1.387 1_545 S
C154 C155 1.369 . S
C154 H163 0.929 . S
C155 N152 1.346 1_545 S
C155 C154 1.369 . S
C155 H158 0.928 . S
C156 N152 1.345 . S
C156 C157 1.371 . S
C156 H159 0.931 . S
C157 C153 1.391 . S
C157 C156 1.371 . S
C157 H164 0.930 . S
H158 C155 0.928 . S
H159 C156 0.931 . S
H160 C136 0.930 . S
H161 C133 0.930 . S
H162 C142 0.930 . S
H163 C154 0.929 . S
H164 C157 0.930 . S
C165 C166 1.340 1_455 S
C165 N168 1.350 . S
C165 H170 0.935 . S
C166 C165 1.340 1_655 S
C166 N167 1.373 . S
C166 H194 0.930 . S
N167 C166 1.373 . S
N167 C169 1.340 . S
N168 C165 1.350 . S
N168 C169 1.292 1_455 S
N168 Co171 2.176 . S
C169 N167 1.340 . S
C169 N168 1.292 1_655 S
C169 H193 0.930 . S
H170 C165 0.935 . S
Co171 N168 2.176 . S
Co171 N174 2.121 . S
Co171 O179 2.055 . S
Co171 O182 2.039 . S
Co171 N185 2.140 . S
C172 O173 1.227 1_455 S
C172 O182 1.265 . S
O173 C172 1.227 1_655 S
N174 Co171 2.121 . S
N174 C176 1.375 . S
N174 C177 1.313 . S
C175 C176 1.338 . S
C175 N178 1.377 . S
C175 H195 0.930 . S
C176 N174 1.375 . S
C176 C175 1.338 . S
C176 H180 0.931 . S
C177 N174 1.313 . S
C177 N178 1.344 . S
C177 H181 0.930 . S
N178 C175 1.377 . S
N178 C177 1.344 . S
O179 Co171 2.055 . S
O179 C183 1.253 . S
H180 C176 0.931 . S
H181 C177 0.930 . S
O182 Co171 2.039 . S
O182 C172 1.265 . S
C183 O179 1.253 . S
C183 O184 1.227 . S
O184 C183 1.227 . S
N185 Co171 2.140 . S
N185 C188 1.346 1_455 S
N185 C189 1.345 . S
C186 C187 1.387 1_455 S
C186 C190 1.391 . S
C187 C186 1.387 1_655 S
C187 C188 1.369 . S
C187 H196 0.929 . S
C188 N185 1.346 1_655 S
C188 C187 1.369 . S
C188 H191 0.928 . S
C189 N185 1.345 . S
C189 C190 1.371 . S
C189 H192 0.931 . S
C190 C186 1.391 . S
C190 C189 1.371 . S
C190 H197 0.930 . S
H191 C188 0.928 . S
H192 C189 0.931 . S
H193 C169 0.930 . S
H194 C166 0.930 . S
H195 C175 0.930 . S
H196 C187 0.929 . S
H197 C190 0.930 . S
C198 C199 1.351 . S
C198 N201 1.368 . S
C198 H203 0.931 . S
C199 C198 1.351 . S
C199 N200 1.373 . S
C199 H227 0.930 . S
N200 C199 1.373 . S
N200 C202 1.340 . S
N201 C198 1.368 . S
N201 C202 1.321 . S
N201 Co204 2.135 . S
C202 N200 1.340 . S
C202 N201 1.321 . S
C202 H226 0.930 . S
H203 C198 0.931 . S
Co204 N201 2.135 . S
Co204 N207 2.121 . S
Co204 O212 2.055 . S
Co204 O215 2.039 . S
Co204 N218 2.140 . S
C205 O206 1.227 . S
C205 O215 1.265 . S
O206 C205 1.227 . S
N207 Co204 2.121 . S
N207 C209 1.375 . S
N207 C210 1.313 . S
C208 C209 1.338 . S
C208 N211 1.377 . S
C208 H228 0.930 . S
C209 N207 1.375 . S
C209 C208 1.338 . S
C209 H213 0.931 . S
C210 N207 1.313 . S
C210 N211 1.344 . S
C210 H214 0.930 . S
N211 C208 1.377 . S
N211 C210 1.344 . S
O212 Co204 2.055 . S
O212 C216 1.253 . S
H213 C209 0.931 . S
H214 C210 0.930 . S
O215 Co204 2.039 . S
O215 C205 1.265 . S
C216 O212 1.253 . S
C216 O217 1.227 . S
O217 C216 1.227 . S
N218 Co204 2.140 . S
N218 C221 1.346 . S
N218 C222 1.345 . S
C219 C220 1.387 . S
C219 C223 1.391 . S
C220 C219 1.387 . S
C220 C221 1.369 . S
C220 H229 0.929 . S
C221 N218 1.346 . S
C221 C220 1.369 . S
C221 H224 0.928 . S
C222 N218 1.345 . S
C222 C223 1.371 . S
C222 H225 0.931 . S
C223 C219 1.391 . S
C223 C222 1.371 . S
C223 H230 0.930 . S
H224 C221 0.928 . S
H225 C222 0.931 . S
H226 C202 0.930 . S
H227 C199 0.930 . S
H228 C208 0.930 . S
H229 C220 0.929 . S
H230 C223 0.930 . S
C231 C232 1.340 1_565 S
C231 N234 1.350 . S
C231 H236 0.935 . S
C232 C231 1.340 1_545 S
C232 N233 1.373 . S
C232 H260 0.930 . S
N233 C232 1.373 . S
N233 C235 1.340 . S
N234 C231 1.350 . S
N234 C235 1.292 1_565 S
N234 Co237 2.176 . S
C235 N233 1.340 . S
C235 N234 1.292 1_545 S
C235 H259 0.930 . S
H236 C231 0.935 . S
Co237 N234 2.176 . S
Co237 N240 2.121 . S
Co237 O245 2.055 . S
Co237 O248 2.039 . S
Co237 N251 2.140 . S
C238 O239 1.227 1_565 S
C238 O248 1.265 . S
O239 C238 1.227 1_545 S
N240 Co237 2.121 . S
N240 C242 1.375 . S
N240 C243 1.313 . S
C241 C242 1.338 . S
C241 N244 1.377 . S
C241 H261 0.930 . S
C242 N240 1.375 . S
C242 C241 1.338 . S
C242 H246 0.931 . S
C243 N240 1.313 . S
C243 N244 1.344 . S
C243 H247 0.930 . S
N244 C241 1.377 . S
N244 C243 1.344 . S
O245 Co237 2.055 . S
O245 C249 1.253 . S
H246 C242 0.931 . S
H247 C243 0.930 . S
O248 Co237 2.039 . S
O248 C238 1.265 . S
C249 O245 1.253 . S
C249 O250 1.227 . S
O250 C249 1.227 . S
N251 Co237 2.140 . S
N251 C254 1.346 1_565 S
N251 C255 1.345 . S
C252 C253 1.387 1_565 S
C252 C256 1.391 . S
C253 C252 1.387 1_545 S
C253 C254 1.369 . S
C253 H262 0.929 . S
C254 N251 1.346 1_545 S
C254 C253 1.369 . S
C254 H257 0.928 . S
C255 N251 1.345 . S
C255 C256 1.371 . S
C255 H258 0.931 . S
C256 C252 1.391 . S
C256 C255 1.371 . S
C256 H263 0.930 . S
H257 C254 0.928 . S
H258 C255 0.931 . S
H259 C235 0.930 . S
H260 C232 0.930 . S
H261 C241 0.930 . S
H262 C253 0.929 . S
H263 C256 0.930 . S
C264 C265 1.344 1_455 S
C264 N267 1.385 . S
C264 H269 0.941 . S
C265 C264 1.344 1_655 S
C265 N266 1.373 . S
C265 H293 0.930 . S
N266 C265 1.373 . S
N266 C268 1.340 . S
N267 C264 1.385 . S
N267 C268 1.279 1_455 S
N267 Co270 2.152 . S
C268 N266 1.340 . S
C268 N267 1.279 1_655 S
C268 H292 0.930 . S
H269 C264 0.941 . S
Co270 N267 2.152 . S
Co270 N273 2.121 . S
Co270 O278 2.055 . S
Co270 O281 2.039 . S
Co270 N284 2.140 . S
C271 O272 1.227 1_455 S
C271 O281 1.265 . S
O272 C271 1.227 1_655 S
N273 Co270 2.121 . S
N273 C275 1.375 . S
N273 C276 1.313 . S
C274 C275 1.338 . S
C274 N277 1.377 . S
C274 H294 0.930 . S
C275 N273 1.375 . S
C275 C274 1.338 . S
C275 H279 0.931 . S
C276 N273 1.313 . S
C276 N277 1.344 . S
C276 H280 0.930 . S
N277 C274 1.377 . S
N277 C276 1.344 . S
O278 Co270 2.055 . S
O278 C282 1.253 . S
H279 C275 0.931 . S
H280 C276 0.930 . S
O281 Co270 2.039 . S
O281 C271 1.265 . S
C282 O278 1.253 . S
C282 O283 1.227 . S
O283 C282 1.227 . S
N284 Co270 2.140 . S
N284 C287 1.346 1_455 S
N284 C288 1.345 . S
C285 C286 1.387 1_455 S
C285 C289 1.391 . S
C286 C285 1.387 1_655 S
C286 C287 1.369 . S
C286 H295 0.929 . S
C287 N284 1.346 1_655 S
C287 C286 1.369 . S
C287 H290 0.928 . S
C288 N284 1.345 . S
C288 C289 1.371 . S
C288 H291 0.931 . S
C289 C285 1.391 . S
C289 C288 1.371 . S
C289 H296 0.930 . S
H290 C287 0.928 . S
H291 C288 0.931 . S
H292 C268 0.930 . S
H293 C265 0.930 . S
H294 C274 0.930 . S
H295 C286 0.929 . S
H296 C289 0.930 . S
C297 C298 1.351 . S
C297 N300 1.368 . S
C297 H302 0.931 . S
C298 C297 1.351 . S
C298 N299 1.373 . S
C298 H326 0.930 . S
N299 C298 1.373 . S
N299 C301 1.340 . S
N300 C297 1.368 . S
N300 C301 1.321 . S
N300 Co303 2.135 . S
C301 N299 1.340 . S
C301 N300 1.321 . S
C301 H325 0.930 . S
H302 C297 0.931 . S
Co303 N300 2.135 . S
Co303 N306 2.121 . S
Co303 O311 2.055 . S
Co303 O314 2.039 . S
Co303 N317 2.140 . S
C304 O305 1.227 . S
C304 O314 1.265 . S
O305 C304 1.227 . S
N306 Co303 2.121 . S
N306 C308 1.375 . S
N306 C309 1.313 . S
C307 C308 1.338 . S
C307 N310 1.377 . S
C307 H327 0.930 . S
C308 N306 1.375 . S
C308 C307 1.338 . S
C308 H312 0.931 . S
C309 N306 1.313 . S
C309 N310 1.344 . S
C309 H313 0.930 . S
N310 C307 1.377 . S
N310 C309 1.344 . S
O311 Co303 2.055 . S
O311 C315 1.253 . S
H312 C308 0.931 . S
H313 C309 0.930 . S
O314 Co303 2.039 . S
O314 C304 1.265 . S
C315 O311 1.253 . S
C315 O316 1.227 . S
O316 C315 1.227 . S
N317 Co303 2.140 . S
N317 C320 1.346 . S
N317 C321 1.345 . S
C318 C319 1.387 . S
C318 C322 1.391 . S
C319 C318 1.387 . S
C319 C320 1.369 . S
C319 H328 0.929 . S
C320 N317 1.346 . S
C320 C319 1.369 . S
C320 H323 0.928 . S
C321 N317 1.345 . S
C321 C322 1.371 . S
C321 H324 0.931 . S
C322 C318 1.391 . S
C322 C321 1.371 . S
C322 H329 0.930 . S
H323 C320 0.928 . S
H324 C321 0.931 . S
H325 C301 0.930 . S
H326 C298 0.930 . S
H327 C307 0.930 . S
H328 C319 0.929 . S
H329 C322 0.930 . S
C330 C331 1.344 1_545 S
C330 N333 1.385 . S
C330 H335 0.941 . S
C331 C330 1.344 1_565 S
C331 N332 1.373 . S
C331 H359 0.930 . S
N332 C331 1.373 . S
N332 C334 1.340 . S
N333 C330 1.385 . S
N333 C334 1.279 1_545 S
N333 Co336 2.152 . S
C334 N332 1.340 . S
C334 N333 1.279 1_565 S
C334 H358 0.930 . S
H335 C330 0.941 . S
Co336 N333 2.152 . S
Co336 N339 2.121 . S
Co336 O344 2.055 . S
Co336 O347 2.039 . S
Co336 N350 2.140 . S
C337 O338 1.227 1_545 S
C337 O347 1.265 . S
O338 C337 1.227 1_565 S
N339 Co336 2.121 . S
N339 C341 1.375 . S
N339 C342 1.313 . S
C340 C341 1.338 . S
C340 N343 1.377 . S
C340 H360 0.930 . S
C341 N339 1.375 . S
C341 C340 1.338 . S
C341 H345 0.931 . S
C342 N339 1.313 . S
C342 N343 1.344 . S
C342 H346 0.930 . S
N343 C340 1.377 . S
N343 C342 1.344 . S
O344 Co336 2.055 . S
O344 C348 1.253 . S
H345 C341 0.931 . S
H346 C342 0.930 . S
O347 Co336 2.039 . S
O347 C337 1.265 . S
C348 O344 1.253 . S
C348 O349 1.227 . S
O349 C348 1.227 . S
N350 Co336 2.140 . S
N350 C353 1.346 1_545 S
N350 C354 1.345 . S
C351 C352 1.387 1_545 S
C351 C355 1.391 . S
C352 C351 1.387 1_565 S
C352 C353 1.369 . S
C352 H361 0.929 . S
C353 N350 1.346 1_565 S
C353 C352 1.369 . S
C353 H356 0.928 . S
C354 N350 1.345 . S
C354 C355 1.371 . S
C354 H357 0.931 . S
C355 C351 1.391 . S
C355 C354 1.371 . S
C355 H362 0.930 . S
H356 C353 0.928 . S
H357 C354 0.931 . S
H358 C334 0.930 . S
H359 C331 0.930 . S
H360 C340 0.930 . S
H361 C352 0.929 . S
H362 C355 0.930 . S
C363 C364 1.340 1_655 S
C363 N366 1.350 . S
C363 H368 0.935 . S
C364 C363 1.340 1_455 S
C364 N365 1.373 . S
C364 H392 0.930 . S
N365 C364 1.373 . S
N365 C367 1.340 . S
N366 C363 1.350 . S
N366 C367 1.292 1_655 S
N366 Co369 2.176 . S
C367 N365 1.340 . S
C367 N366 1.292 1_455 S
C367 H391 0.930 . S
H368 C363 0.935 . S
Co369 N366 2.176 . S
Co369 N372 2.121 . S
Co369 O377 2.055 . S
Co369 O380 2.039 . S
Co369 N383 2.140 . S
C370 O371 1.227 1_655 S
C370 O380 1.265 . S
O371 C370 1.227 1_455 S
N372 Co369 2.121 . S
N372 C374 1.375 . S
N372 C375 1.313 . S
C373 C374 1.338 . S
C373 N376 1.377 . S
C373 H393 0.930 . S
C374 N372 1.375 . S
C374 C373 1.338 . S
C374 H378 0.931 . S
C375 N372 1.313 . S
C375 N376 1.344 . S
C375 H379 0.930 . S
N376 C373 1.377 . S
N376 C375 1.344 . S
O377 Co369 2.055 . S
O377 C381 1.253 . S
H378 C374 0.931 . S
H379 C375 0.930 . S
O380 Co369 2.039 . S
O380 C370 1.265 . S
C381 O377 1.253 . S
C381 O382 1.227 . S
O382 C381 1.227 . S
N383 Co369 2.140 . S
N383 C386 1.346 1_655 S
N383 C387 1.345 . S
C384 C385 1.387 1_655 S
C384 C388 1.391 . S
C385 C384 1.387 1_455 S
C385 C386 1.369 . S
C385 H394 0.929 . S
C386 N383 1.346 1_455 S
C386 C385 1.369 . S
C386 H389 0.928 . S
C387 N383 1.345 . S
C387 C388 1.371 . S
C387 H390 0.931 . S
C388 C384 1.391 . S
C388 C387 1.371 . S
C388 H395 0.930 . S
H389 C386 0.928 . S
H390 C387 0.931 . S
H391 C367 0.930 . S
H392 C364 0.930 . S
H393 C373 0.930 . S
H394 C385 0.929 . S
H395 C388 0.930 . S
C396 C397 1.351 . S
C396 N399 1.368 . S
C396 H401 0.931 . S
C397 C396 1.351 . S
C397 N398 1.373 . S
C397 H425 0.930 . S
N398 C397 1.373 . S
N398 C400 1.340 . S
N399 C396 1.368 . S
N399 C400 1.321 . S
N399 Co402 2.135 . S
C400 N398 1.340 . S
C400 N399 1.321 . S
C400 H424 0.930 . S
H401 C396 0.931 . S
Co402 N399 2.135 . S
Co402 N405 2.121 . S
Co402 O410 2.055 . S
Co402 O413 2.039 . S
Co402 N416 2.140 . S
C403 O404 1.227 . S
C403 O413 1.265 . S
O404 C403 1.227 . S
N405 Co402 2.121 . S
N405 C407 1.375 . S
N405 C408 1.313 . S
C406 C407 1.338 . S
C406 N409 1.377 . S
C406 H426 0.930 . S
C407 N405 1.375 . S
C407 C406 1.338 . S
C407 H411 0.931 . S
C408 N405 1.313 . S
C408 N409 1.344 . S
C408 H412 0.930 . S
N409 C406 1.377 . S
N409 C408 1.344 . S
O410 Co402 2.055 . S
O410 C414 1.253 . S
H411 C407 0.931 . S
H412 C408 0.930 . S
O413 Co402 2.039 . S
O413 C403 1.265 . S
C414 O410 1.253 . S
C414 O415 1.227 . S
O415 C414 1.227 . S
N416 Co402 2.140 . S
N416 C419 1.346 . S
N416 C420 1.345 . S
C417 C418 1.387 . S
C417 C421 1.391 . S
C418 C417 1.387 . S
C418 C419 1.369 . S
C418 H427 0.929 . S
C419 N416 1.346 . S
C419 C418 1.369 . S
C419 H422 0.928 . S
C420 N416 1.345 . S
C420 C421 1.371 . S
C420 H423 0.931 . S
C421 C417 1.391 . S
C421 C420 1.371 . S
C421 H428 0.930 . S
H422 C419 0.928 . S
H423 C420 0.931 . S
H424 C400 0.930 . S
H425 C397 0.930 . S
H426 C406 0.930 . S
H427 C418 0.929 . S
H428 C421 0.930 . S
C429 C430 1.351 . S
C429 N432 1.368 . S
C429 H434 0.931 . S
C430 C429 1.351 . S
C430 N431 1.373 . S
C430 H458 0.930 . S
N431 C430 1.373 . S
N431 C433 1.340 . S
N432 C429 1.368 . S
N432 C433 1.321 . S
N432 Co435 2.135 . S
C433 N431 1.340 . S
C433 N432 1.321 . S
C433 H457 0.930 . S
H434 C429 0.931 . S
Co435 N432 2.135 . S
Co435 N438 2.121 . S
Co435 O443 2.055 . S
Co435 O446 2.039 . S
Co435 N449 2.140 . S
C436 O437 1.227 . S
C436 O446 1.265 . S
O437 C436 1.227 . S
N438 Co435 2.121 . S
N438 C440 1.375 . S
N438 C441 1.313 . S
C439 C440 1.338 . S
C439 N442 1.377 . S
C439 H459 0.930 . S
C440 N438 1.375 . S
C440 C439 1.338 . S
C440 H444 0.931 . S
C441 N438 1.313 . S
C441 N442 1.344 . S
C441 H445 0.930 . S
N442 C439 1.377 . S
N442 C441 1.344 . S
O443 Co435 2.055 . S
O443 C447 1.253 . S
H444 C440 0.931 . S
H445 C441 0.930 . S
O446 Co435 2.039 . S
O446 C436 1.265 . S
C447 O443 1.253 . S
C447 O448 1.227 . S
O448 C447 1.227 . S
N449 Co435 2.140 . S
N449 C452 1.346 . S
N449 C453 1.345 . S
C450 C451 1.387 . S
C450 C454 1.391 . S
C451 C450 1.387 . S
C451 C452 1.369 . S
C451 H460 0.929 . S
C452 N449 1.346 . S
C452 C451 1.369 . S
C452 H455 0.928 . S
C453 N449 1.345 . S
C453 C454 1.371 . S
C453 H456 0.931 . S
C454 C450 1.391 . S
C454 C453 1.371 . S
C454 H461 0.930 . S
H455 C452 0.928 . S
H456 C453 0.931 . S
H457 C433 0.930 . S
H458 C430 0.930 . S
H459 C439 0.930 . S
H460 C451 0.929 . S
H461 C454 0.930 . S
C462 C463 1.351 . S
C462 N465 1.368 . S
C462 H467 0.931 . S
C463 C462 1.351 . S
C463 N464 1.373 . S
C463 H491 0.930 . S
N464 C463 1.373 . S
N464 C466 1.340 . S
N465 C462 1.368 . S
N465 C466 1.321 . S
N465 Co468 2.135 . S
C466 N464 1.340 . S
C466 N465 1.321 . S
C466 H490 0.930 . S
H467 C462 0.931 . S
Co468 N465 2.135 . S
Co468 N471 2.121 . S
Co468 O476 2.055 . S
Co468 O479 2.039 . S
Co468 N482 2.140 . S
C469 O470 1.227 . S
C469 O479 1.265 . S
O470 C469 1.227 . S
N471 Co468 2.121 . S
N471 C473 1.375 . S
N471 C474 1.313 . S
C472 C473 1.338 . S
C472 N475 1.377 . S
C472 H492 0.930 . S
C473 N471 1.375 . S
C473 C472 1.338 . S
C473 H477 0.931 . S
C474 N471 1.313 . S
C474 N475 1.344 . S
C474 H478 0.930 . S
N475 C472 1.377 . S
N475 C474 1.344 . S
O476 Co468 2.055 . S
O476 C480 1.253 . S
H477 C473 0.931 . S
H478 C474 0.930 . S
O479 Co468 2.039 . S
O479 C469 1.265 . S
C480 O476 1.253 . S
C480 O481 1.227 . S
O481 C480 1.227 . S
N482 Co468 2.140 . S
N482 C485 1.346 . S
N482 C486 1.345 . S
C483 C484 1.387 . S
C483 C487 1.391 . S
C484 C483 1.387 . S
C484 C485 1.369 . S
C484 H493 0.929 . S
C485 N482 1.346 . S
C485 C484 1.369 . S
C485 H488 0.928 . S
C486 N482 1.345 . S
C486 C487 1.371 . S
C486 H489 0.931 . S
C487 C483 1.391 . S
C487 C486 1.371 . S
C487 H494 0.930 . S
H488 C485 0.928 . S
H489 C486 0.931 . S
H490 C466 0.930 . S
H491 C463 0.930 . S
H492 C472 0.930 . S
H493 C484 0.929 . S
H494 C487 0.930 . S
C495 C496 1.351 . S
C495 N498 1.368 . S
C495 H500 0.931 . S
C496 C495 1.351 . S
C496 N497 1.373 . S
C496 H524 0.930 . S
N497 C496 1.373 . S
N497 C499 1.340 . S
N498 C495 1.368 . S
N498 C499 1.321 . S
N498 Co501 2.135 . S
C499 N497 1.340 . S
C499 N498 1.321 . S
C499 H523 0.930 . S
H500 C495 0.931 . S
Co501 N498 2.135 . S
Co501 N504 2.121 . S
Co501 O509 2.055 . S
Co501 O512 2.039 . S
Co501 N515 2.140 . S
C502 O503 1.227 . S
C502 O512 1.265 . S
O503 C502 1.227 . S
N504 Co501 2.121 . S
N504 C506 1.375 . S
N504 C507 1.313 . S
C505 C506 1.338 . S
C505 N508 1.377 . S
C505 H525 0.930 . S
C506 N504 1.375 . S
C506 C505 1.338 . S
C506 H510 0.931 . S
C507 N504 1.313 . S
C507 N508 1.344 . S
C507 H511 0.930 . S
N508 C505 1.377 . S
N508 C507 1.344 . S
O509 Co501 2.055 . S
O509 C513 1.253 . S
H510 C506 0.931 . S
H511 C507 0.930 . S
O512 Co501 2.039 . S
O512 C502 1.265 . S
C513 O509 1.253 . S
C513 O514 1.227 . S
O514 C513 1.227 . S
N515 Co501 2.140 . S
N515 C518 1.346 . S
N515 C519 1.345 . S
C516 C517 1.387 . S
C516 C520 1.391 . S
C517 C516 1.387 . S
C517 C518 1.369 . S
C517 H526 0.929 . S
C518 N515 1.346 . S
C518 C517 1.369 . S
C518 H521 0.928 . S
C519 N515 1.345 . S
C519 C520 1.371 . S
C519 H522 0.931 . S
C520 C516 1.391 . S
C520 C519 1.371 . S
C520 H527 0.930 . S
H521 C518 0.928 . S
H522 C519 0.931 . S
H523 C499 0.930 . S
H524 C496 0.930 . S
H525 C505 0.930 . S
H526 C517 0.929 . S
H527 C520 0.930 . S
C528 C529 1.351 . S
C528 N531 1.368 . S
C528 H533 0.931 . S
C529 C528 1.351 . S
C529 N530 1.373 . S
C529 H557 0.930 . S
N530 C529 1.373 . S
N530 C532 1.340 . S
N531 C528 1.368 . S
N531 C532 1.321 . S
N531 Co534 2.135 . S
C532 N530 1.340 . S
C532 N531 1.321 . S
C532 H556 0.930 . S
H533 C528 0.931 . S
Co534 N531 2.135 . S
Co534 N537 2.121 . S
Co534 O542 2.055 . S
Co534 O545 2.039 . S
Co534 N548 2.140 . S
C535 O536 1.227 . S
C535 O545 1.265 . S
O536 C535 1.227 . S
N537 Co534 2.121 . S
N537 C539 1.375 . S
N537 C540 1.313 . S
C538 C539 1.338 . S
C538 N541 1.377 . S
C538 H558 0.930 . S
C539 N537 1.375 . S
C539 C538 1.338 . S
C539 H543 0.931 . S
C540 N537 1.313 . S
C540 N541 1.344 . S
C540 H544 0.930 . S
N541 C538 1.377 . S
N541 C540 1.344 . S
O542 Co534 2.055 . S
O542 C546 1.253 . S
H543 C539 0.931 . S
H544 C540 0.930 . S
O545 Co534 2.039 . S
O545 C535 1.265 . S
C546 O542 1.253 . S
C546 O547 1.227 . S
O547 C546 1.227 . S
N548 Co534 2.140 . S
N548 C551 1.346 . S
N548 C552 1.345 . S
C549 C550 1.387 . S
C549 C553 1.391 . S
C550 C549 1.387 . S
C550 C551 1.369 . S
C550 H559 0.929 . S
C551 N548 1.346 . S
C551 C550 1.369 . S
C551 H554 0.928 . S
C552 N548 1.345 . S
C552 C553 1.371 . S
C552 H555 0.931 . S
C553 C549 1.391 . S
C553 C552 1.371 . S
C553 H560 0.930 . S
H554 C551 0.928 . S
H555 C552 0.931 . S
H556 C532 0.930 . S
H557 C529 0.930 . S
H558 C538 0.930 . S
H559 C550 0.929 . S
H560 C553 0.930 . S
C561 C562 1.351 . S
C561 N564 1.368 . S
C561 H566 0.931 . S
C562 C561 1.351 . S
C562 N563 1.373 . S
C562 H590 0.930 . S
N563 C562 1.373 . S
N563 C565 1.340 . S
N564 C561 1.368 . S
N564 C565 1.321 . S
N564 Co567 2.135 . S
C565 N563 1.340 . S
C565 N564 1.321 . S
C565 H589 0.930 . S
H566 C561 0.931 . S
Co567 N564 2.135 . S
Co567 N570 2.121 . S
Co567 O575 2.055 . S
Co567 O578 2.039 . S
Co567 N581 2.140 . S
C568 O569 1.227 . S
C568 O578 1.265 . S
O569 C568 1.227 . S
N570 Co567 2.121 . S
N570 C572 1.375 . S
N570 C573 1.313 . S
C571 C572 1.338 . S
C571 N574 1.377 . S
C571 H591 0.930 . S
C572 N570 1.375 . S
C572 C571 1.338 . S
C572 H576 0.931 . S
C573 N570 1.313 . S
C573 N574 1.344 . S
C573 H577 0.930 . S
N574 C571 1.377 . S
N574 C573 1.344 . S
O575 Co567 2.055 . S
O575 C579 1.253 . S
H576 C572 0.931 . S
H577 C573 0.930 . S
O578 Co567 2.039 . S
O578 C568 1.265 . S
C579 O575 1.253 . S
C579 O580 1.227 . S
O580 C579 1.227 . S
N581 Co567 2.140 . S
N581 C584 1.346 . S
N581 C585 1.345 . S
C582 C583 1.387 . S
C582 C586 1.391 . S
C583 C582 1.387 . S
C583 C584 1.369 . S
C583 H592 0.929 . S
C584 N581 1.346 . S
C584 C583 1.369 . S
C584 H587 0.928 . S
C585 N581 1.345 . S
C585 C586 1.371 . S
C585 H588 0.931 . S
C586 C582 1.391 . S
C586 C585 1.371 . S
C586 H593 0.930 . S
H587 C584 0.928 . S
H588 C585 0.931 . S
H589 C565 0.930 . S
H590 C562 0.930 . S
H591 C571 0.930 . S
H592 C583 0.929 . S
H593 C586 0.930 . S
C594 C595 1.351 . S
C594 N597 1.368 . S
C594 H599 0.931 . S
C595 C594 1.351 . S
C595 N596 1.373 . S
C595 H623 0.930 . S
N596 C595 1.373 . S
N596 C598 1.340 . S
N597 C594 1.368 . S
N597 C598 1.321 . S
N597 Co600 2.135 . S
C598 N596 1.340 . S
C598 N597 1.321 . S
C598 H622 0.930 . S
H599 C594 0.931 . S
Co600 N597 2.135 . S
Co600 N603 2.121 . S
Co600 O608 2.055 . S
Co600 O611 2.039 . S
Co600 N614 2.140 . S
C601 O602 1.227 . S
C601 O611 1.265 . S
O602 C601 1.227 . S
N603 Co600 2.121 . S
N603 C605 1.375 . S
N603 C606 1.313 . S
C604 C605 1.338 . S
C604 N607 1.377 . S
C604 H624 0.930 . S
C605 N603 1.375 . S
C605 C604 1.338 . S
C605 H609 0.931 . S
C606 N603 1.313 . S
C606 N607 1.344 . S
C606 H610 0.930 . S
N607 C604 1.377 . S
N607 C606 1.344 . S
O608 Co600 2.055 . S
O608 C612 1.253 . S
H609 C605 0.931 . S
H610 C606 0.930 . S
O611 Co600 2.039 . S
O611 C601 1.265 . S
C612 O608 1.253 . S
C612 O613 1.227 . S
O613 C612 1.227 . S
N614 Co600 2.140 . S
N614 C617 1.346 . S
N614 C618 1.345 . S
C615 C616 1.387 . S
C615 C619 1.391 . S
C616 C615 1.387 . S
C616 C617 1.369 . S
C616 H625 0.929 . S
C617 N614 1.346 . S
C617 C616 1.369 . S
C617 H620 0.928 . S
C618 N614 1.345 . S
C618 C619 1.371 . S
C618 H621 0.931 . S
C619 C615 1.391 . S
C619 C618 1.371 . S
C619 H626 0.930 . S
H620 C617 0.928 . S
H621 C618 0.931 . S
H622 C598 0.930 . S
H623 C595 0.930 . S
H624 C604 0.930 . S
H625 C616 0.929 . S
H626 C619 0.930 . S
C627 C628 1.351 . S
C627 N630 1.368 . S
C627 H632 0.931 . S
C628 C627 1.351 . S
C628 N629 1.373 . S
C628 H656 0.930 . S
N629 C628 1.373 . S
N629 C631 1.340 . S
N630 C627 1.368 . S
N630 C631 1.321 . S
N630 Co633 2.135 . S
C631 N629 1.340 . S
C631 N630 1.321 . S
C631 H655 0.930 . S
H632 C627 0.931 . S
Co633 N630 2.135 . S
Co633 N636 2.121 . S
Co633 O641 2.055 . S
Co633 O644 2.039 . S
Co633 N647 2.140 . S
C634 O635 1.227 . S
C634 O644 1.265 . S
O635 C634 1.227 . S
N636 Co633 2.121 . S
N636 C638 1.375 . S
N636 C639 1.313 . S
C637 C638 1.338 . S
C637 N640 1.377 . S
C637 H657 0.930 . S
C638 N636 1.375 . S
C638 C637 1.338 . S
C638 H642 0.931 . S
C639 N636 1.313 . S
C639 N640 1.344 . S
C639 H643 0.930 . S
N640 C637 1.377 . S
N640 C639 1.344 . S
O641 Co633 2.055 . S
O641 C645 1.253 . S
H642 C638 0.931 . S
H643 C639 0.930 . S
O644 Co633 2.039 . S
O644 C634 1.265 . S
C645 O641 1.253 . S
C645 O646 1.227 . S
O646 C645 1.227 . S
N647 Co633 2.140 . S
N647 C650 1.346 . S
N647 C651 1.345 . S
C648 C649 1.387 . S
C648 C652 1.391 . S
C649 C648 1.387 . S
C649 C650 1.369 . S
C649 H658 0.929 . S
C650 N647 1.346 . S
C650 C649 1.369 . S
C650 H653 0.928 . S
C651 N647 1.345 . S
C651 C652 1.371 . S
C651 H654 0.931 . S
C652 C648 1.391 . S
C652 C651 1.371 . S
C652 H659 0.930 . S
H653 C650 0.928 . S
H654 C651 0.931 . S
H655 C631 0.930 . S
H656 C628 0.930 . S
H657 C637 0.930 . S
H658 C649 0.929 . S
H659 C652 0.930 . S
C660 C661 1.351 . S
C660 N663 1.368 . S
C660 H665 0.931 . S
C661 C660 1.351 . S
C661 N662 1.373 . S
C661 H689 0.930 . S
N662 C661 1.373 . S
N662 C664 1.340 . S
N663 C660 1.368 . S
N663 C664 1.321 . S
N663 Co666 2.135 . S
C664 N662 1.340 . S
C664 N663 1.321 . S
C664 H688 0.930 . S
H665 C660 0.931 . S
Co666 N663 2.135 . S
Co666 N669 2.121 . S
Co666 O674 2.055 . S
Co666 O677 2.039 . S
Co666 N680 2.140 . S
C667 O668 1.227 . S
C667 O677 1.265 . S
O668 C667 1.227 . S
N669 Co666 2.121 . S
N669 C671 1.375 . S
N669 C672 1.313 . S
C670 C671 1.338 . S
C670 N673 1.377 . S
C670 H690 0.930 . S
C671 N669 1.375 . S
C671 C670 1.338 . S
C671 H675 0.931 . S
C672 N669 1.313 . S
C672 N673 1.344 . S
C672 H676 0.930 . S
N673 C670 1.377 . S
N673 C672 1.344 . S
O674 Co666 2.055 . S
O674 C678 1.253 . S
H675 C671 0.931 . S
H676 C672 0.930 . S
O677 Co666 2.039 . S
O677 C667 1.265 . S
C678 O674 1.253 . S
C678 O679 1.227 . S
O679 C678 1.227 . S
N680 Co666 2.140 . S
N680 C683 1.346 . S
N680 C684 1.345 . S
C681 C682 1.387 . S
C681 C685 1.391 . S
C682 C681 1.387 . S
C682 C683 1.369 . S
C682 H691 0.929 . S
C683 N680 1.346 . S
C683 C682 1.369 . S
C683 H686 0.928 . S
C684 N680 1.345 . S
C684 C685 1.371 . S
C684 H687 0.931 . S
C685 C681 1.391 . S
C685 C684 1.371 . S
C685 H692 0.930 . S
H686 C683 0.928 . S
H687 C684 0.931 . S
H688 C664 0.930 . S
H689 C661 0.930 . S
H690 C670 0.930 . S
H691 C682 0.929 . S
H692 C685 0.930 . S
C693 C694 1.351 . S
C693 N696 1.368 . S
C693 H698 0.931 . S
C694 C693 1.351 . S
C694 N695 1.373 . S
C694 H722 0.930 . S
N695 C694 1.373 . S
N695 C697 1.340 . S
N696 C693 1.368 . S
N696 C697 1.321 . S
N696 Co699 2.135 . S
C697 N695 1.340 . S
C697 N696 1.321 . S
C697 H721 0.930 . S
H698 C693 0.931 . S
Co699 N696 2.135 . S
Co699 N702 2.121 . S
Co699 O707 2.055 . S
Co699 O710 2.039 . S
Co699 N713 2.140 . S
C700 O701 1.227 . S
C700 O710 1.265 . S
O701 C700 1.227 . S
N702 Co699 2.121 . S
N702 C704 1.375 . S
N702 C705 1.313 . S
C703 C704 1.338 . S
C703 N706 1.377 . S
C703 H723 0.930 . S
C704 N702 1.375 . S
C704 C703 1.338 . S
C704 H708 0.931 . S
C705 N702 1.313 . S
C705 N706 1.344 . S
C705 H709 0.930 . S
N706 C703 1.377 . S
N706 C705 1.344 . S
O707 Co699 2.055 . S
O707 C711 1.253 . S
H708 C704 0.931 . S
H709 C705 0.930 . S
O710 Co699 2.039 . S
O710 C700 1.265 . S
C711 O707 1.253 . S
C711 O712 1.227 . S
O712 C711 1.227 . S
N713 Co699 2.140 . S
N713 C716 1.346 . S
N713 C717 1.345 . S
C714 C715 1.387 . S
C714 C718 1.391 . S
C715 C714 1.387 . S
C715 C716 1.369 1_554 S
C715 H724 0.929 . S
C716 N713 1.346 . S
C716 C715 1.369 1_556 S
C716 H719 0.928 . S
C717 N713 1.345 . S
C717 C718 1.371 1_556 S
C717 H720 0.931 . S
C718 C714 1.391 . S
C718 C717 1.371 1_554 S
C718 H725 0.930 . S
H719 C716 0.928 . S
H720 C717 0.931 . S
H721 C697 0.930 . S
H722 C694 0.930 . S
H723 C703 0.930 . S
H724 C715 0.929 . S
H725 C718 0.930 . S
C726 C727 1.351 . S
C726 N729 1.368 . S
C726 H731 0.931 . S
C727 C726 1.351 . S
C727 N728 1.373 . S
C727 H755 0.930 . S
N728 C727 1.373 . S
N728 C730 1.340 . S
N729 C726 1.368 . S
N729 C730 1.321 . S
N729 Co732 2.135 . S
C730 N728 1.340 . S
C730 N729 1.321 . S
C730 H754 0.930 . S
H731 C726 0.931 . S
Co732 N729 2.135 . S
Co732 N735 2.121 . S
Co732 O740 2.055 . S
Co732 O743 2.039 . S
Co732 N746 2.140 . S
C733 O734 1.227 . S
C733 O743 1.265 . S
O734 C733 1.227 . S
N735 Co732 2.121 . S
N735 C737 1.375 . S
N735 C738 1.313 . S
C736 C737 1.338 . S
C736 N739 1.377 . S
C736 H756 0.930 . S
C737 N735 1.375 . S
C737 C736 1.338 . S
C737 H741 0.931 . S
C738 N735 1.313 . S
C738 N739 1.344 . S
C738 H742 0.930 . S
N739 C736 1.377 . S
N739 C738 1.344 . S
O740 Co732 2.055 . S
O740 C744 1.253 . S
H741 C737 0.931 . S
H742 C738 0.930 . S
O743 Co732 2.039 . S
O743 C733 1.265 . S
C744 O740 1.253 . S
C744 O745 1.227 . S
O745 C744 1.227 . S
N746 Co732 2.140 . S
N746 C749 1.346 . S
N746 C750 1.345 . S
C747 C748 1.387 . S
C747 C751 1.391 . S
C748 C747 1.387 . S
C748 C749 1.369 1_554 S
C748 H757 0.929 . S
C749 N746 1.346 . S
C749 C748 1.369 1_556 S
C749 H752 0.928 . S
C750 N746 1.345 . S
C750 C751 1.371 1_556 S
C750 H753 0.931 . S
C751 C747 1.391 . S
C751 C750 1.371 1_554 S
C751 H758 0.930 . S
H752 C749 0.928 . S
H753 C750 0.931 . S
H754 C730 0.930 . S
H755 C727 0.930 . S
H756 C736 0.930 . S
H757 C748 0.929 . S
H758 C751 0.930 . S
C759 C760 1.351 . S
C759 N762 1.368 . S
C759 H764 0.931 . S
C760 C759 1.351 . S
C760 N761 1.373 . S
C760 H788 0.930 . S
N761 C760 1.373 . S
N761 C763 1.340 . S
N762 C759 1.368 . S
N762 C763 1.321 . S
N762 Co765 2.135 . S
C763 N761 1.340 . S
C763 N762 1.321 . S
C763 H787 0.930 . S
H764 C759 0.931 . S
Co765 N762 2.135 . S
Co765 N768 2.121 . S
Co765 O773 2.055 . S
Co765 O776 2.039 . S
Co765 N779 2.140 . S
C766 O767 1.227 . S
C766 O776 1.265 . S
O767 C766 1.227 . S
N768 Co765 2.121 . S
N768 C770 1.375 . S
N768 C771 1.313 . S
C769 C770 1.338 . S
C769 N772 1.377 . S
C769 H789 0.930 . S
C770 N768 1.375 . S
C770 C769 1.338 . S
C770 H774 0.931 . S
C771 N768 1.313 . S
C771 N772 1.344 . S
C771 H775 0.930 . S
N772 C769 1.377 . S
N772 C771 1.344 . S
O773 Co765 2.055 . S
O773 C777 1.253 . S
H774 C770 0.931 . S
H775 C771 0.930 . S
O776 Co765 2.039 . S
O776 C766 1.265 . S
C777 O773 1.253 . S
C777 O778 1.227 . S
O778 C777 1.227 . S
N779 Co765 2.140 . S
N779 C782 1.346 . S
N779 C783 1.345 . S
C780 C781 1.387 . S
C780 C784 1.391 . S
C781 C780 1.387 . S
C781 C782 1.369 1_554 S
C781 H790 0.929 . S
C782 N779 1.346 . S
C782 C781 1.369 1_556 S
C782 H785 0.928 . S
C783 N779 1.345 . S
C783 C784 1.371 1_556 S
C783 H786 0.931 . S
C784 C780 1.391 . S
C784 C783 1.371 1_554 S
C784 H791 0.930 . S
H785 C782 0.928 . S
H786 C783 0.931 . S
H787 C763 0.930 . S
H788 C760 0.930 . S
H789 C769 0.930 . S
H790 C781 0.929 . S
H791 C784 0.930 . S
C792 C793 1.351 . S
C792 N795 1.368 . S
C792 H797 0.931 . S
C793 C792 1.351 . S
C793 N794 1.373 . S
C793 H821 0.930 . S
N794 C793 1.373 . S
N794 C796 1.340 . S
N795 C792 1.368 . S
N795 C796 1.321 . S
N795 Co798 2.135 . S
C796 N794 1.340 . S
C796 N795 1.321 . S
C796 H820 0.930 . S
H797 C792 0.931 . S
Co798 N795 2.135 . S
Co798 N801 2.121 . S
Co798 O806 2.055 . S
Co798 O809 2.039 . S
Co798 N812 2.140 . S
C799 O800 1.227 . S
C799 O809 1.265 . S
O800 C799 1.227 . S
N801 Co798 2.121 . S
N801 C803 1.375 . S
N801 C804 1.313 . S
C802 C803 1.338 . S
C802 N805 1.377 . S
C802 H822 0.930 . S
C803 N801 1.375 . S
C803 C802 1.338 . S
C803 H807 0.931 . S
C804 N801 1.313 . S
C804 N805 1.344 . S
C804 H808 0.930 . S
N805 C802 1.377 . S
N805 C804 1.344 . S
O806 Co798 2.055 . S
O806 C810 1.253 . S
H807 C803 0.931 . S
H808 C804 0.930 . S
O809 Co798 2.039 . S
O809 C799 1.265 . S
C810 O806 1.253 . S
C810 O811 1.227 . S
O811 C810 1.227 . S
N812 Co798 2.140 . S
N812 C815 1.346 . S
N812 C816 1.345 . S
C813 C814 1.387 . S
C813 C817 1.391 . S
C814 C813 1.387 . S
C814 C815 1.369 . S
C814 H823 0.929 . S
C815 N812 1.346 . S
C815 C814 1.369 . S
C815 H818 0.928 . S
C816 N812 1.345 . S
C816 C817 1.371 . S
C816 H819 0.931 . S
C817 C813 1.391 . S
C817 C816 1.371 . S
C817 H824 0.930 . S
H818 C815 0.928 . S
H819 C816 0.931 . S
H820 C796 0.930 . S
H821 C793 0.930 . S
H822 C802 0.930 . S
H823 C814 0.929 . S
H824 C817 0.930 . S
C825 C826 1.351 . S
C825 N828 1.368 . S
C825 H830 0.931 . S
C826 C825 1.351 . S
C826 N827 1.373 . S
C826 H854 0.930 . S
N827 C826 1.373 . S
N827 C829 1.340 . S
N828 C825 1.368 . S
N828 C829 1.321 . S
N828 Co831 2.135 . S
C829 N827 1.340 . S
C829 N828 1.321 . S
C829 H853 0.930 . S
H830 C825 0.931 . S
Co831 N828 2.135 . S
Co831 N834 2.121 . S
Co831 O839 2.055 . S
Co831 O842 2.039 . S
Co831 N845 2.140 . S
C832 O833 1.227 . S
C832 O842 1.265 . S
O833 C832 1.227 . S
N834 Co831 2.121 . S
N834 C836 1.375 . S
N834 C837 1.313 . S
C835 C836 1.338 . S
C835 N838 1.377 . S
C835 H855 0.930 . S
C836 N834 1.375 . S
C836 C835 1.338 . S
C836 H840 0.931 . S
C837 N834 1.313 . S
C837 N838 1.344 . S
C837 H841 0.930 . S
N838 C835 1.377 . S
N838 C837 1.344 . S
O839 Co831 2.055 . S
O839 C843 1.253 . S
H840 C836 0.931 . S
H841 C837 0.930 . S
O842 Co831 2.039 . S
O842 C832 1.265 . S
C843 O839 1.253 . S
C843 O844 1.227 . S
O844 C843 1.227 . S
N845 Co831 2.140 . S
N845 C848 1.346 . S
N845 C849 1.345 . S
C846 C847 1.387 . S
C846 C850 1.391 . S
C847 C846 1.387 . S
C847 C848 1.369 . S
C847 H856 0.929 . S
C848 N845 1.346 . S
C848 C847 1.369 . S
C848 H851 0.928 . S
C849 N845 1.345 . S
C849 C850 1.371 . S
C849 H852 0.931 . S
C850 C846 1.391 . S
C850 C849 1.371 . S
C850 H857 0.930 . S
H851 C848 0.928 . S
H852 C849 0.931 . S
H853 C829 0.930 . S
H854 C826 0.930 . S
H855 C835 0.930 . S
H856 C847 0.929 . S
H857 C850 0.930 . S
C858 C859 1.351 . S
C858 N861 1.368 . S
C858 H863 0.931 . S
C859 C858 1.351 . S
C859 N860 1.373 . S
C859 H887 0.930 . S
N860 C859 1.373 . S
N860 C862 1.340 . S
N861 C858 1.368 . S
N861 C862 1.321 . S
N861 Co864 2.135 . S
C862 N860 1.340 . S
C862 N861 1.321 . S
C862 H886 0.930 . S
H863 C858 0.931 . S
Co864 N861 2.135 . S
Co864 N867 2.121 . S
Co864 O872 2.055 . S
Co864 O875 2.039 . S
Co864 N878 2.140 . S
C865 O866 1.227 . S
C865 O875 1.265 . S
O866 C865 1.227 . S
N867 Co864 2.121 . S
N867 C869 1.375 . S
N867 C870 1.313 . S
C868 C869 1.338 . S
C868 N871 1.377 . S
C868 H888 0.930 . S
C869 N867 1.375 . S
C869 C868 1.338 . S
C869 H873 0.931 . S
C870 N867 1.313 . S
C870 N871 1.344 . S
C870 H874 0.930 . S
N871 C868 1.377 . S
N871 C870 1.344 . S
O872 Co864 2.055 . S
O872 C876 1.253 . S
H873 C869 0.931 . S
H874 C870 0.930 . S
O875 Co864 2.039 . S
O875 C865 1.265 . S
C876 O872 1.253 . S
C876 O877 1.227 . S
O877 C876 1.227 . S
N878 Co864 2.140 . S
N878 C881 1.346 . S
N878 C882 1.345 . S
C879 C880 1.387 . S
C879 C883 1.391 . S
C880 C879 1.387 . S
C880 C881 1.369 . S
C880 H889 0.929 . S
C881 N878 1.346 . S
C881 C880 1.369 . S
C881 H884 0.928 . S
C882 N878 1.345 . S
C882 C883 1.371 . S
C882 H885 0.931 . S
C883 C879 1.391 . S
C883 C882 1.371 . S
C883 H890 0.930 . S
H884 C881 0.928 . S
H885 C882 0.931 . S
H886 C862 0.930 . S
H887 C859 0.930 . S
H888 C868 0.930 . S
H889 C880 0.929 . S
H890 C883 0.930 . S
C891 C892 1.351 . S
C891 N894 1.368 . S
C891 H896 0.931 . S
C892 C891 1.351 . S
C892 N893 1.373 . S
C892 H920 0.930 . S
N893 C892 1.373 . S
N893 C895 1.340 . S
N894 C891 1.368 . S
N894 C895 1.321 . S
N894 Co897 2.135 . S
C895 N893 1.340 . S
C895 N894 1.321 . S
C895 H919 0.930 . S
H896 C891 0.931 . S
Co897 N894 2.135 . S
Co897 N900 2.121 . S
Co897 O905 2.055 . S
Co897 O908 2.039 . S
Co897 N911 2.140 . S
C898 O899 1.227 . S
C898 O908 1.265 . S
O899 C898 1.227 . S
N900 Co897 2.121 . S
N900 C902 1.375 . S
N900 C903 1.313 . S
C901 C902 1.338 . S
C901 N904 1.377 . S
C901 H921 0.930 . S
C902 N900 1.375 . S
C902 C901 1.338 . S
C902 H906 0.931 . S
C903 N900 1.313 . S
C903 N904 1.344 . S
C903 H907 0.930 . S
N904 C901 1.377 . S
N904 C903 1.344 . S
O905 Co897 2.055 . S
O905 C909 1.253 . S
H906 C902 0.931 . S
H907 C903 0.930 . S
O908 Co897 2.039 . S
O908 C898 1.265 . S
C909 O905 1.253 . S
C909 O910 1.227 . S
O910 C909 1.227 . S
N911 Co897 2.140 . S
N911 C914 1.346 . S
N911 C915 1.345 . S
C912 C913 1.387 . S
C912 C916 1.391 . S
C913 C912 1.387 . S
C913 C914 1.369 1_556 S
C913 H922 0.929 . S
C914 N911 1.346 . S
C914 C913 1.369 1_554 S
C914 H917 0.928 . S
C915 N911 1.345 . S
C915 C916 1.371 1_554 S
C915 H918 0.931 . S
C916 C912 1.391 . S
C916 C915 1.371 1_556 S
C916 H923 0.930 . S
H917 C914 0.928 . S
H918 C915 0.931 . S
H919 C895 0.930 . S
H920 C892 0.930 . S
H921 C901 0.930 . S
H922 C913 0.929 . S
H923 C916 0.930 . S
C924 C925 1.351 . S
C924 N927 1.368 . S
C924 H929 0.931 . S
C925 C924 1.351 . S
C925 N926 1.373 . S
C925 H953 0.930 . S
N926 C925 1.373 . S
N926 C928 1.340 . S
N927 C924 1.368 . S
N927 C928 1.321 . S
N927 Co930 2.135 . S
C928 N926 1.340 . S
C928 N927 1.321 . S
C928 H952 0.930 . S
H929 C924 0.931 . S
Co930 N927 2.135 . S
Co930 N933 2.121 . S
Co930 O938 2.055 . S
Co930 O941 2.039 . S
Co930 N944 2.140 . S
C931 O932 1.227 . S
C931 O941 1.265 . S
O932 C931 1.227 . S
N933 Co930 2.121 . S
N933 C935 1.375 . S
N933 C936 1.313 . S
C934 C935 1.338 . S
C934 N937 1.377 . S
C934 H954 0.930 . S
C935 N933 1.375 . S
C935 C934 1.338 . S
C935 H939 0.931 . S
C936 N933 1.313 . S
C936 N937 1.344 . S
C936 H940 0.930 . S
N937 C934 1.377 . S
N937 C936 1.344 . S
O938 Co930 2.055 . S
O938 C942 1.253 . S
H939 C935 0.931 . S
H940 C936 0.930 . S
O941 Co930 2.039 . S
O941 C931 1.265 . S
C942 O938 1.253 . S
C942 O943 1.227 . S
O943 C942 1.227 . S
N944 Co930 2.140 . S
N944 C947 1.346 . S
N944 C948 1.345 . S
C945 C946 1.387 . S
C945 C949 1.391 . S
C946 C945 1.387 . S
C946 C947 1.369 1_556 S
C946 H955 0.929 . S
C947 N944 1.346 . S
C947 C946 1.369 1_554 S
C947 H950 0.928 . S
C948 N944 1.345 . S
C948 C949 1.371 1_554 S
C948 H951 0.931 . S
C949 C945 1.391 . S
C949 C948 1.371 1_556 S
C949 H956 0.930 . S
H950 C947 0.928 . S
H951 C948 0.931 . S
H952 C928 0.930 . S
H953 C925 0.930 . S
H954 C934 0.930 . S
H955 C946 0.929 . S
H956 C949 0.930 . S
C957 C958 1.351 . S
C957 N960 1.368 . S
C957 H962 0.931 . S
C958 C957 1.351 . S
C958 N959 1.373 . S
C958 H986 0.930 . S
N959 C958 1.373 . S
N959 C961 1.340 . S
N960 C957 1.368 . S
N960 C961 1.321 . S
N960 Co963 2.135 . S
C961 N959 1.340 . S
C961 N960 1.321 . S
C961 H985 0.930 . S
H962 C957 0.931 . S
Co963 N960 2.135 . S
Co963 N966 2.121 . S
Co963 O971 2.055 . S
Co963 O974 2.039 . S
Co963 N977 2.140 . S
C964 O965 1.227 . S
C964 O974 1.265 . S
O965 C964 1.227 . S
N966 Co963 2.121 . S
N966 C968 1.375 . S
N966 C969 1.313 . S
C967 C968 1.338 . S
C967 N970 1.377 . S
C967 H987 0.930 . S
C968 N966 1.375 . S
C968 C967 1.338 . S
C968 H972 0.931 . S
C969 N966 1.313 . S
C969 N970 1.344 . S
C969 H973 0.930 . S
N970 C967 1.377 . S
N970 C969 1.344 . S
O971 Co963 2.055 . S
O971 C975 1.253 . S
H972 C968 0.931 . S
H973 C969 0.930 . S
O974 Co963 2.039 . S
O974 C964 1.265 . S
C975 O971 1.253 . S
C975 O976 1.227 . S
O976 C975 1.227 . S
N977 Co963 2.140 . S
N977 C980 1.346 . S
N977 C981 1.345 . S
C978 C979 1.387 . S
C978 C982 1.391 . S
C979 C978 1.387 . S
C979 C980 1.369 1_556 S
C979 H988 0.929 . S
C980 N977 1.346 . S
C980 C979 1.369 1_554 S
C980 H983 0.928 . S
C981 N977 1.345 . S
C981 C982 1.371 1_554 S
C981 H984 0.931 . S
C982 C978 1.391 . S
C982 C981 1.371 1_556 S
C982 H989 0.930 . S
H983 C980 0.928 . S
H984 C981 0.931 . S
H985 C961 0.930 . S
H986 C958 0.930 . S
H987 C967 0.930 . S
H988 C979 0.929 . S
H989 C982 0.930 . S
C990 C991 1.351 . S
C990 N993 1.368 . S
C990 H995 0.931 . S
C991 C990 1.351 . S
C991 N992 1.373 . S
C991 H1019 0.930 . S
N992 C991 1.373 . S
N992 C994 1.340 . S
N993 C990 1.368 . S
N993 C994 1.321 . S
N993 Co996 2.135 . S
C994 N992 1.340 . S
C994 N993 1.321 . S
C994 H1018 0.930 . S
H995 C990 0.931 . S
Co996 N993 2.135 . S
Co996 N999 2.121 . S
Co996 O1004 2.055 . S
Co996 O1007 2.039 . S
Co996 N1010 2.140 . S
C997 O998 1.227 . S
C997 O1007 1.265 . S
O998 C997 1.227 . S
N999 Co996 2.121 . S
N999 C1001 1.375 . S
N999 C1002 1.313 . S
C1000 C1001 1.338 . S
C1000 N1003 1.377 . S
C1000 H1020 0.930 . S
C1001 N999 1.375 . S
C1001 C1000 1.338 . S
C1001 H1005 0.931 . S
C1002 N999 1.313 . S
C1002 N1003 1.344 . S
C1002 H1006 0.930 . S
N1003 C1000 1.377 . S
N1003 C1002 1.344 . S
O1004 Co996 2.055 . S
O1004 C1008 1.253 . S
H1005 C1001 0.931 . S
H1006 C1002 0.930 . S
O1007 Co996 2.039 . S
O1007 C997 1.265 . S
C1008 O1004 1.253 . S
C1008 O1009 1.227 . S
O1009 C1008 1.227 . S
N1010 Co996 2.140 . S
N1010 C1013 1.346 . S
N1010 C1014 1.345 . S
C1011 C1012 1.387 . S
C1011 C1015 1.391 . S
C1012 C1011 1.387 . S
C1012 C1013 1.369 . S
C1012 H1021 0.929 . S
C1013 N1010 1.346 . S
C1013 C1012 1.369 . S
C1013 H1016 0.928 . S
C1014 N1010 1.345 . S
C1014 C1015 1.371 . S
C1014 H1017 0.931 . S
C1015 C1011 1.391 . S
C1015 C1014 1.371 . S
C1015 H1022 0.930 . S
H1016 C1013 0.928 . S
H1017 C1014 0.931 . S
H1018 C994 0.930 . S
H1019 C991 0.930 . S
H1020 C1000 0.930 . S
H1021 C1012 0.929 . S
H1022 C1015 0.930 . S
C1023 C1024 1.351 . S
C1023 N1026 1.368 . S
C1023 H1028 0.931 . S
C1024 C1023 1.351 . S
C1024 N1025 1.373 . S
C1024 H1052 0.930 . S
N1025 C1024 1.373 . S
N1025 C1027 1.340 . S
N1026 C1023 1.368 . S
N1026 C1027 1.321 . S
N1026 Co1029 2.135 . S
C1027 N1025 1.340 . S
C1027 N1026 1.321 . S
C1027 H1051 0.930 . S
H1028 C1023 0.931 . S
Co1029 N1026 2.135 . S
Co1029 N1032 2.121 . S
Co1029 O1037 2.055 . S
Co1029 O1040 2.039 . S
Co1029 N1043 2.140 . S
C1030 O1031 1.227 . S
C1030 O1040 1.265 . S
O1031 C1030 1.227 . S
N1032 Co1029 2.121 . S
N1032 C1034 1.375 . S
N1032 C1035 1.313 . S
C1033 C1034 1.338 . S
C1033 N1036 1.377 . S
C1033 H1053 0.930 . S
C1034 N1032 1.375 . S
C1034 C1033 1.338 . S
C1034 H1038 0.931 . S
C1035 N1032 1.313 . S
C1035 N1036 1.344 . S
C1035 H1039 0.930 . S
N1036 C1033 1.377 . S
N1036 C1035 1.344 . S
O1037 Co1029 2.055 . S
O1037 C1041 1.253 . S
H1038 C1034 0.931 . S
H1039 C1035 0.930 . S
O1040 Co1029 2.039 . S
O1040 C1030 1.265 . S
C1041 O1037 1.253 . S
C1041 O1042 1.227 . S
O1042 C1041 1.227 . S
N1043 Co1029 2.140 . S
N1043 C1046 1.346 . S
N1043 C1047 1.345 . S
C1044 C1045 1.387 . S
C1044 C1048 1.391 . S
C1045 C1044 1.387 . S
C1045 C1046 1.369 . S
C1045 H1054 0.929 . S
C1046 N1043 1.346 . S
C1046 C1045 1.369 . S
C1046 H1049 0.928 . S
C1047 N1043 1.345 . S
C1047 C1048 1.371 . S
C1047 H1050 0.931 . S
C1048 C1044 1.391 . S
C1048 C1047 1.371 . S
C1048 H1055 0.930 . S
H1049 C1046 0.928 . S
H1050 C1047 0.931 . S
H1051 C1027 0.930 . S
H1052 C1024 0.930 . S
H1053 C1033 0.930 . S
H1054 C1045 0.929 . S
H1055 C1048 0.930 . S
C1056 C1057 1.351 . S
C1056 N1059 1.368 . S
C1056 H1061 0.931 . S
C1057 C1056 1.351 . S
C1057 N1058 1.373 . S
C1057 H1085 0.930 . S
N1058 C1057 1.373 . S
N1058 C1060 1.340 . S
N1059 C1056 1.368 . S
N1059 C1060 1.321 . S
N1059 Co1062 2.135 . S
C1060 N1058 1.340 . S
C1060 N1059 1.321 . S
C1060 H1084 0.930 . S
H1061 C1056 0.931 . S
Co1062 N1059 2.135 . S
Co1062 N1065 2.121 . S
Co1062 O1070 2.055 . S
Co1062 O1073 2.039 . S
Co1062 N1076 2.140 . S
C1063 O1064 1.227 . S
C1063 O1073 1.265 . S
O1064 C1063 1.227 . S
N1065 Co1062 2.121 . S
N1065 C1067 1.375 . S
N1065 C1068 1.313 . S
C1066 C1067 1.338 . S
C1066 N1069 1.377 . S
C1066 H1086 0.930 . S
C1067 N1065 1.375 . S
C1067 C1066 1.338 . S
C1067 H1071 0.931 . S
C1068 N1065 1.313 . S
C1068 N1069 1.344 . S
C1068 H1072 0.930 . S
N1069 C1066 1.377 . S
N1069 C1068 1.344 . S
O1070 Co1062 2.055 . S
O1070 C1074 1.253 . S
H1071 C1067 0.931 . S
H1072 C1068 0.930 . S
O1073 Co1062 2.039 . S
O1073 C1063 1.265 . S
C1074 O1070 1.253 . S
C1074 O1075 1.227 . S
O1075 C1074 1.227 . S
N1076 Co1062 2.140 . S
N1076 C1079 1.346 . S
N1076 C1080 1.345 . S
C1077 C1078 1.387 . S
C1077 C1081 1.391 . S
C1078 C1077 1.387 . S
C1078 C1079 1.369 . S
C1078 H1087 0.929 . S
C1079 N1076 1.346 . S
C1079 C1078 1.369 . S
C1079 H1082 0.928 . S
C1080 N1076 1.345 . S
C1080 C1081 1.371 . S
C1080 H1083 0.931 . S
C1081 C1077 1.391 . S
C1081 C1080 1.371 . S
C1081 H1088 0.930 . S
H1082 C1079 0.928 . S
H1083 C1080 0.931 . S
H1084 C1060 0.930 . S
H1085 C1057 0.930 . S
H1086 C1066 0.930 . S
H1087 C1078 0.929 . S
H1088 C1081 0.930 . S
C1089 C1090 1.351 . S
C1089 N1092 1.368 . S
C1089 H1094 0.931 . S
C1090 C1089 1.351 . S
C1090 N1091 1.373 . S
C1090 H1118 0.930 . S
N1091 C1090 1.373 . S
N1091 C1093 1.340 . S
N1092 C1089 1.368 . S
N1092 C1093 1.321 . S
N1092 Co1095 2.135 . S
C1093 N1091 1.340 . S
C1093 N1092 1.321 . S
C1093 H1117 0.930 . S
H1094 C1089 0.931 . S
Co1095 N1092 2.135 . S
Co1095 N1098 2.121 . S
Co1095 O1103 2.055 . S
Co1095 O1106 2.039 . S
Co1095 N1109 2.140 . S
C1096 O1097 1.227 . S
C1096 O1106 1.265 . S
O1097 C1096 1.227 . S
N1098 Co1095 2.121 . S
N1098 C1100 1.375 . S
N1098 C1101 1.313 . S
C1099 C1100 1.338 . S
C1099 N1102 1.377 . S
C1099 H1119 0.930 . S
C1100 N1098 1.375 . S
C1100 C1099 1.338 . S
C1100 H1104 0.931 . S
C1101 N1098 1.313 . S
C1101 N1102 1.344 . S
C1101 H1105 0.930 . S
N1102 C1099 1.377 . S
N1102 C1101 1.344 . S
O1103 Co1095 2.055 . S
O1103 C1107 1.253 . S
H1104 C1100 0.931 . S
H1105 C1101 0.930 . S
O1106 Co1095 2.039 . S
O1106 C1096 1.265 . S
C1107 O1103 1.253 . S
C1107 O1108 1.227 . S
O1108 C1107 1.227 . S
N1109 Co1095 2.140 . S
N1109 C1112 1.346 . S
N1109 C1113 1.345 . S
C1110 C1111 1.387 . S
C1110 C1114 1.391 . S
C1111 C1110 1.387 . S
C1111 C1112 1.369 . S
C1111 H1120 0.929 . S
C1112 N1109 1.346 . S
C1112 C1111 1.369 . S
C1112 H1115 0.928 . S
C1113 N1109 1.345 . S
C1113 C1114 1.371 . S
C1113 H1116 0.931 . S
C1114 C1110 1.391 . S
C1114 C1113 1.371 . S
C1114 H1121 0.930 . S
H1115 C1112 0.928 . S
H1116 C1113 0.931 . S
H1117 C1093 0.930 . S
H1118 C1090 0.930 . S
H1119 C1099 0.930 . S
H1120 C1111 0.929 . S
H1121 C1114 0.930 . S
C1122 C1123 1.351 . S
C1122 N1125 1.368 . S
C1122 H1127 0.931 . S
C1123 C1122 1.351 . S
C1123 N1124 1.373 . S
C1123 H1151 0.930 . S
N1124 C1123 1.373 . S
N1124 C1126 1.340 . S
N1125 C1122 1.368 . S
N1125 C1126 1.321 . S
N1125 Co1128 2.135 . S
C1126 N1124 1.340 . S
C1126 N1125 1.321 . S
C1126 H1150 0.930 . S
H1127 C1122 0.931 . S
Co1128 N1125 2.135 . S
Co1128 N1131 2.121 . S
Co1128 O1136 2.055 . S
Co1128 O1139 2.039 . S
Co1128 N1142 2.140 . S
C1129 O1130 1.227 . S
C1129 O1139 1.265 . S
O1130 C1129 1.227 . S
N1131 Co1128 2.121 . S
N1131 C1133 1.375 . S
N1131 C1134 1.313 . S
C1132 C1133 1.338 . S
C1132 N1135 1.377 . S
C1132 H1152 0.930 . S
C1133 N1131 1.375 . S
C1133 C1132 1.338 . S
C1133 H1137 0.931 . S
C1134 N1131 1.313 . S
C1134 N1135 1.344 . S
C1134 H1138 0.930 . S
N1135 C1132 1.377 . S
N1135 C1134 1.344 . S
O1136 Co1128 2.055 . S
O1136 C1140 1.253 . S
H1137 C1133 0.931 . S
H1138 C1134 0.930 . S
O1139 Co1128 2.039 . S
O1139 C1129 1.265 . S
C1140 O1136 1.253 . S
C1140 O1141 1.227 . S
O1141 C1140 1.227 . S
N1142 Co1128 2.140 . S
N1142 C1145 1.346 . S
N1142 C1146 1.345 . S
C1143 C1144 1.387 . S
C1143 C1147 1.391 . S
C1144 C1143 1.387 . S
C1144 C1145 1.369 . S
C1144 H1153 0.929 . S
C1145 N1142 1.346 . S
C1145 C1144 1.369 . S
C1145 H1148 0.928 . S
C1146 N1142 1.345 . S
C1146 C1147 1.371 . S
C1146 H1149 0.931 . S
C1147 C1143 1.391 . S
C1147 C1146 1.371 . S
C1147 H1154 0.930 . S
H1148 C1145 0.928 . S
H1149 C1146 0.931 . S
H1150 C1126 0.930 . S
H1151 C1123 0.930 . S
H1152 C1132 0.930 . S
H1153 C1144 0.929 . S
H1154 C1147 0.930 . S
C1155 C1156 1.351 . S
C1155 N1158 1.368 . S
C1155 H1160 0.931 . S
C1156 C1155 1.351 . S
C1156 N1157 1.373 . S
C1156 H1184 0.930 . S
N1157 C1156 1.373 . S
N1157 C1159 1.340 . S
N1158 C1155 1.368 . S
N1158 C1159 1.321 . S
N1158 Co1161 2.135 . S
C1159 N1157 1.340 . S
C1159 N1158 1.321 . S
C1159 H1183 0.930 . S
H1160 C1155 0.931 . S
Co1161 N1158 2.135 . S
Co1161 N1164 2.121 . S
Co1161 O1169 2.055 . S
Co1161 O1172 2.039 . S
Co1161 N1175 2.140 . S
C1162 O1163 1.227 . S
C1162 O1172 1.265 . S
O1163 C1162 1.227 . S
N1164 Co1161 2.121 . S
N1164 C1166 1.375 . S
N1164 C1167 1.313 . S
C1165 C1166 1.338 . S
C1165 N1168 1.377 . S
C1165 H1185 0.930 . S
C1166 N1164 1.375 . S
C1166 C1165 1.338 . S
C1166 H1170 0.931 . S
C1167 N1164 1.313 . S
C1167 N1168 1.344 . S
C1167 H1171 0.930 . S
N1168 C1165 1.377 . S
N1168 C1167 1.344 . S
O1169 Co1161 2.055 . S
O1169 C1173 1.253 . S
H1170 C1166 0.931 . S
H1171 C1167 0.930 . S
O1172 Co1161 2.039 . S
O1172 C1162 1.265 . S
C1173 O1169 1.253 . S
C1173 O1174 1.227 . S
O1174 C1173 1.227 . S
N1175 Co1161 2.140 . S
N1175 C1178 1.346 . S
N1175 C1179 1.345 . S
C1176 C1177 1.387 . S
C1176 C1180 1.391 . S
C1177 C1176 1.387 . S
C1177 C1178 1.369 . S
C1177 H1186 0.929 . S
C1178 N1175 1.346 . S
C1178 C1177 1.369 . S
C1178 H1181 0.928 . S
C1179 N1175 1.345 . S
C1179 C1180 1.371 . S
C1179 H1182 0.931 . S
C1180 C1176 1.391 . S
C1180 C1179 1.371 . S
C1180 H1187 0.930 . S
H1181 C1178 0.928 . S
H1182 C1179 0.931 . S
H1183 C1159 0.930 . S
H1184 C1156 0.930 . S
H1185 C1165 0.930 . S
H1186 C1177 0.929 . S
H1187 C1180 0.930 . S
C1188 C1189 1.363 . S
C1188 C1194 1.379 . S
C1188 N1196 1.356 . S
C1189 C1188 1.363 . S
C1189 C1195 1.363 . S
C1190 C1191 1.363 . S
C1190 C1195 1.379 . S
C1190 N1197 1.356 . S
C1191 C1190 1.363 . S
C1191 C1194 1.363 . S
N1192 C1194 1.356 . S
N1192 H1204 0.984 . S
N1192 H1205 0.985 . S
N1193 C1195 1.356 . S
N1193 H1198 0.984 . S
N1193 H1199 0.985 . S
C1194 C1188 1.379 . S
C1194 C1191 1.363 . S
C1194 N1192 1.356 . S
C1195 C1189 1.363 . S
C1195 C1190 1.379 . S
C1195 N1193 1.356 . S
N1196 C1188 1.356 . S
N1196 H1202 0.984 . S
N1196 H1203 0.984 . S
N1197 C1190 1.356 . S
N1197 H1200 0.984 . S
N1197 H1201 0.985 . S
H1198 N1193 0.984 . S
H1199 N1193 0.985 . S
H1200 N1197 0.984 . S
H1201 N1197 0.985 . S
H1202 N1196 0.984 . S
H1203 N1196 0.984 . S
H1204 N1192 0.984 . S
H1205 N1192 0.985 . S
C1206 C1207 1.363 1_545 S
C1206 C1212 1.379 . S
C1206 N1214 1.356 . S
C1207 C1206 1.363 1_565 S
C1207 C1213 1.363 . S
C1208 C1209 1.363 1_565 S
C1208 C1213 1.379 . S
C1208 N1215 1.356 . S
C1209 C1208 1.363 1_545 S
C1209 C1212 1.363 . S
N1210 C1212 1.356 . S
N1210 H1222 0.984 . S
N1210 H1223 0.985 . S
N1211 C1213 1.356 . S
N1211 H1216 0.984 . S
N1211 H1217 0.985 . S
C1212 C1206 1.379 . S
C1212 C1209 1.363 . S
C1212 N1210 1.356 . S
C1213 C1207 1.363 . S
C1213 C1208 1.379 . S
C1213 N1211 1.356 . S
N1214 C1206 1.356 . S
N1214 H1220 0.984 . S
N1214 H1221 0.984 . S
N1215 C1208 1.356 . S
N1215 H1218 0.984 . S
N1215 H1219 0.985 . S
H1216 N1211 0.984 . S
H1217 N1211 0.985 . S
H1218 N1215 0.984 . S
H1219 N1215 0.985 . S
H1220 N1214 0.984 . S
H1221 N1214 0.984 . S
H1222 N1210 0.984 . S
H1223 N1210 0.985 . S
C1224 C1225 1.363 . S
C1224 C1230 1.383 . S
C1224 N1232 1.356 . S
C1225 C1224 1.363 . S
C1225 C1231 1.341 1_655 S
C1226 C1227 1.363 . S
C1226 C1231 1.383 . S
C1226 N1233 1.356 . S
C1227 C1226 1.363 . S
C1227 C1230 1.341 1_455 S
N1228 C1230 1.360 . S
N1228 H1240 1.002 . S
N1228 H1241 0.977 1_655 S
N1229 C1231 1.360 . S
N1229 H1234 0.977 1_455 S
N1229 H1235 1.002 . S
C1230 C1224 1.383 . S
C1230 C1227 1.341 1_655 S
C1230 N1228 1.360 . S
C1231 C1225 1.341 1_455 S
C1231 C1226 1.383 . S
C1231 N1229 1.360 . S
N1232 C1224 1.356 . S
N1232 H1238 0.984 . S
N1232 H1239 0.984 . S
N1233 C1226 1.356 . S
N1233 H1236 0.984 . S
N1233 H1237 0.985 . S
H1234 N1229 0.977 1_655 S
H1235 N1229 1.002 . S
H1236 N1233 0.984 . S
H1237 N1233 0.985 . S
H1238 N1232 0.984 . S
H1239 N1232 0.984 . S
H1240 N1228 1.002 . S
H1241 N1228 0.977 1_455 S
C1242 C1243 1.363 . S
C1242 C1248 1.379 . S
C1242 N1250 1.356 . S
C1243 C1242 1.363 . S
C1243 C1249 1.363 . S
C1244 C1245 1.363 . S
C1244 C1249 1.379 . S
C1244 N1251 1.356 . S
C1245 C1244 1.363 . S
C1245 C1248 1.363 . S
N1246 C1248 1.356 . S
N1246 H1258 0.984 . S
N1246 H1259 0.985 . S
N1247 C1249 1.356 . S
N1247 H1252 0.984 . S
N1247 H1253 0.985 . S
C1248 C1242 1.379 . S
C1248 C1245 1.363 . S
C1248 N1246 1.356 . S
C1249 C1243 1.363 . S
C1249 C1244 1.379 . S
C1249 N1247 1.356 . S
N1250 C1242 1.356 . S
N1250 H1256 0.984 . S
N1250 H1257 0.984 . S
N1251 C1244 1.356 . S
N1251 H1254 0.984 . S
N1251 H1255 0.985 . S
H1252 N1247 0.984 . S
H1253 N1247 0.985 . S
H1254 N1251 0.984 . S
H1255 N1251 0.985 . S
H1256 N1250 0.984 . S
H1257 N1250 0.984 . S
H1258 N1246 0.984 . S
H1259 N1246 0.985 . S
C1260 C1261 1.363 1_565 S
C1260 C1266 1.379 . S
C1260 N1268 1.356 . S
C1261 C1260 1.363 1_545 S
C1261 C1267 1.363 . S
C1262 C1263 1.363 1_545 S
C1262 C1267 1.379 . S
C1262 N1269 1.356 . S
C1263 C1262 1.363 1_565 S
C1263 C1266 1.363 . S
N1264 C1266 1.356 . S
N1264 H1276 0.984 . S
N1264 H1277 0.985 . S
N1265 C1267 1.356 . S
N1265 H1270 0.984 . S
N1265 H1271 0.985 . S
C1266 C1260 1.379 . S
C1266 C1263 1.363 . S
C1266 N1264 1.356 . S
C1267 C1261 1.363 . S
C1267 C1262 1.379 . S
C1267 N1265 1.356 . S
N1268 C1260 1.356 . S
N1268 H1274 0.984 . S
N1268 H1275 0.984 . S
N1269 C1262 1.356 . S
N1269 H1272 0.984 . S
N1269 H1273 0.985 . S
H1270 N1265 0.984 . S
H1271 N1265 0.985 . S
H1272 N1269 0.984 . S
H1273 N1269 0.985 . S
H1274 N1268 0.984 . S
H1275 N1268 0.984 . S
H1276 N1264 0.984 . S
H1277 N1264 0.985 . S
C1278 C1279 1.363 . S
C1278 C1284 1.379 . S
C1278 N1286 1.356 . S
C1279 C1278 1.363 . S
C1279 C1285 1.363 1_455 S
C1280 C1281 1.363 . S
C1280 C1285 1.379 . S
C1280 N1287 1.356 . S
C1281 C1280 1.363 . S
C1281 C1284 1.363 1_655 S
N1282 C1284 1.356 . S
N1282 H1294 0.984 . S
N1282 H1295 0.985 . S
N1283 C1285 1.356 . S
N1283 H1288 0.984 . S
N1283 H1289 0.985 . S
C1284 C1278 1.379 . S
C1284 C1281 1.363 1_455 S
C1284 N1282 1.356 . S
C1285 C1279 1.363 1_655 S
C1285 C1280 1.379 . S
C1285 N1283 1.356 . S
N1286 C1278 1.356 . S
N1286 H1292 0.984 . S
N1286 H1293 0.984 . S
N1287 C1280 1.356 . S
N1287 H1290 0.984 . S
N1287 H1291 0.985 . S
H1288 N1283 0.984 . S
H1289 N1283 0.985 . S
H1290 N1287 0.984 . S
H1291 N1287 0.985 . S
H1292 N1286 0.984 . S
H1293 N1286 0.984 . S
H1294 N1282 0.984 . S
H1295 N1282 0.985 . S
C1296 C1297 1.363 . S
C1296 C1302 1.379 . S
C1296 N1304 1.356 . S
C1297 C1296 1.363 . S
C1297 C1303 1.363 . S
C1298 C1299 1.363 . S
C1298 C1303 1.379 . S
C1298 N1305 1.356 . S
C1299 C1298 1.363 . S
C1299 C1302 1.363 . S
N1300 C1302 1.356 . S
N1300 H1312 0.984 . S
N1300 H1313 0.985 . S
N1301 C1303 1.356 . S
N1301 H1306 0.984 . S
N1301 H1307 0.985 . S
C1302 C1296 1.379 . S
C1302 C1299 1.363 . S
C1302 N1300 1.356 . S
C1303 C1297 1.363 . S
C1303 C1298 1.379 . S
C1303 N1301 1.356 . S
N1304 C1296 1.356 . S
N1304 H1310 0.984 . S
N1304 H1311 0.984 . S
N1305 C1298 1.356 . S
N1305 H1308 0.984 . S
N1305 H1309 0.985 . S
H1306 N1301 0.984 . S
H1307 N1301 0.985 . S
H1308 N1305 0.984 . S
H1309 N1305 0.985 . S
H1310 N1304 0.984 . S
H1311 N1304 0.984 . S
H1312 N1300 0.984 . S
H1313 N1300 0.985 . S
C1314 C1315 1.363 . S
C1314 C1320 1.379 . S
C1314 N1322 1.356 . S
C1315 C1314 1.363 . S
C1315 C1321 1.363 . S
C1316 C1317 1.363 . S
C1316 C1321 1.379 . S
C1316 N1323 1.356 . S
C1317 C1316 1.363 . S
C1317 C1320 1.363 . S
N1318 C1320 1.356 . S
N1318 H1330 0.984 . S
N1318 H1331 0.985 . S
N1319 C1321 1.356 . S
N1319 H1324 0.984 . S
N1319 H1325 0.985 . S
C1320 C1314 1.379 . S
C1320 C1317 1.363 . S
C1320 N1318 1.356 . S
C1321 C1315 1.363 . S
C1321 C1316 1.379 . S
C1321 N1319 1.356 . S
N1322 C1314 1.356 . S
N1322 H1328 0.984 . S
N1322 H1329 0.984 . S
N1323 C1316 1.356 . S
N1323 H1326 0.984 . S
N1323 H1327 0.985 . S
H1324 N1319 0.984 . S
H1325 N1319 0.985 . S
H1326 N1323 0.984 . S
H1327 N1323 0.985 . S
H1328 N1322 0.984 . S
H1329 N1322 0.984 . S
H1330 N1318 0.984 . S
H1331 N1318 0.985 . S
C1332 C1333 1.363 . S
C1332 C1338 1.379 . S
C1332 N1340 1.356 . S
C1333 C1332 1.363 . S
C1333 C1339 1.363 . S
C1334 C1335 1.363 . S
C1334 C1339 1.379 . S
C1334 N1341 1.356 . S
C1335 C1334 1.363 . S
C1335 C1338 1.363 . S
N1336 C1338 1.356 . S
N1336 H1348 0.984 . S
N1336 H1349 0.985 . S
N1337 C1339 1.356 . S
N1337 H1342 0.984 . S
N1337 H1343 0.985 . S
C1338 C1332 1.379 . S
C1338 C1335 1.363 . S
C1338 N1336 1.356 . S
C1339 C1333 1.363 . S
C1339 C1334 1.379 . S
C1339 N1337 1.356 . S
N1340 C1332 1.356 . S
N1340 H1346 0.984 . S
N1340 H1347 0.984 . S
N1341 C1334 1.356 . S
N1341 H1344 0.984 . S
N1341 H1345 0.985 . S
H1342 N1337 0.984 . S
H1343 N1337 0.985 . S
H1344 N1341 0.984 . S
H1345 N1341 0.985 . S
H1346 N1340 0.984 . S
H1347 N1340 0.984 . S
H1348 N1336 0.984 . S
H1349 N1336 0.985 . S
C1350 C1351 1.363 . S
C1350 C1356 1.379 . S
C1350 N1358 1.356 . S
C1351 C1350 1.363 . S
C1351 C1357 1.363 . S
C1352 C1353 1.363 . S
C1352 C1357 1.379 . S
C1352 N1359 1.356 . S
C1353 C1352 1.363 . S
C1353 C1356 1.363 . S
N1354 C1356 1.356 . S
N1354 H1366 0.984 . S
N1354 H1367 0.985 . S
N1355 C1357 1.356 . S
N1355 H1360 0.984 . S
N1355 H1361 0.985 . S
C1356 C1350 1.379 . S
C1356 C1353 1.363 . S
C1356 N1354 1.356 . S
C1357 C1351 1.363 . S
C1357 C1352 1.379 . S
C1357 N1355 1.356 . S
N1358 C1350 1.356 . S
N1358 H1364 0.984 . S
N1358 H1365 0.984 . S
N1359 C1352 1.356 . S
N1359 H1362 0.984 . S
N1359 H1363 0.985 . S
H1360 N1355 0.984 . S
H1361 N1355 0.985 . S
H1362 N1359 0.984 . S
H1363 N1359 0.985 . S
H1364 N1358 0.984 . S
H1365 N1358 0.984 . S
H1366 N1354 0.984 . S
H1367 N1354 0.985 . S
C1368 C1369 1.363 . S
C1368 C1374 1.379 . S
C1368 N1376 1.356 . S
C1369 C1368 1.363 . S
C1369 C1375 1.363 . S
C1370 C1371 1.363 . S
C1370 C1375 1.379 . S
C1370 N1377 1.356 . S
C1371 C1370 1.363 . S
C1371 C1374 1.363 . S
N1372 C1374 1.356 . S
N1372 H1384 0.984 . S
N1372 H1385 0.985 . S
N1373 C1375 1.356 . S
N1373 H1378 0.984 . S
N1373 H1379 0.985 . S
C1374 C1368 1.379 . S
C1374 C1371 1.363 . S
C1374 N1372 1.356 . S
C1375 C1369 1.363 . S
C1375 C1370 1.379 . S
C1375 N1373 1.356 . S
N1376 C1368 1.356 . S
N1376 H1382 0.984 . S
N1376 H1383 0.984 . S
N1377 C1370 1.356 . S
N1377 H1380 0.984 . S
N1377 H1381 0.985 . S
H1378 N1373 0.984 . S
H1379 N1373 0.985 . S
H1380 N1377 0.984 . S
H1381 N1377 0.985 . S
H1382 N1376 0.984 . S
H1383 N1376 0.984 . S
H1384 N1372 0.984 . S
H1385 N1372 0.985 . S
C1386 C1387 1.363 . S
C1386 C1392 1.379 . S
C1386 N1394 1.356 . S
C1387 C1386 1.363 . S
C1387 C1393 1.363 . S
C1388 C1389 1.363 . S
C1388 C1393 1.379 . S
C1388 N1395 1.356 . S
C1389 C1388 1.363 . S
C1389 C1392 1.363 . S
N1390 C1392 1.356 . S
N1390 H1402 0.984 . S
N1390 H1403 0.985 . S
N1391 C1393 1.356 . S
N1391 H1396 0.984 . S
N1391 H1397 0.985 . S
C1392 C1386 1.379 . S
C1392 C1389 1.363 . S
C1392 N1390 1.356 . S
C1393 C1387 1.363 . S
C1393 C1388 1.379 . S
C1393 N1391 1.356 . S
N1394 C1386 1.356 . S
N1394 H1400 0.984 . S
N1394 H1401 0.984 . S
N1395 C1388 1.356 . S
N1395 H1398 0.984 . S
N1395 H1399 0.985 . S
H1396 N1391 0.984 . S
H1397 N1391 0.985 . S
H1398 N1395 0.984 . S
H1399 N1395 0.985 . S
H1400 N1394 0.984 . S
H1401 N1394 0.984 . S
H1402 N1390 0.984 . S
H1403 N1390 0.985 . S
C1404 C1405 1.363 . S
C1404 C1410 1.379 . S
C1404 N1412 1.356 . S
C1405 C1404 1.363 . S
C1405 C1411 1.363 . S
C1406 C1407 1.363 . S
C1406 C1411 1.379 . S
C1406 N1413 1.356 . S
C1407 C1406 1.363 . S
C1407 C1410 1.363 . S
N1408 C1410 1.356 . S
N1408 H1420 0.984 . S
N1408 H1421 0.985 . S
N1409 C1411 1.356 . S
N1409 H1414 0.984 . S
N1409 H1415 0.985 . S
C1410 C1404 1.379 . S
C1410 C1407 1.363 . S
C1410 N1408 1.356 . S
C1411 C1405 1.363 . S
C1411 C1406 1.379 . S
C1411 N1409 1.356 . S
N1412 C1404 1.356 . S
N1412 H1418 0.984 . S
N1412 H1419 0.984 . S
N1413 C1406 1.356 . S
N1413 H1416 0.984 . S
N1413 H1417 0.985 . S
H1414 N1409 0.984 . S
H1415 N1409 0.985 . S
H1416 N1413 0.984 . S
H1417 N1413 0.985 . S
H1418 N1412 0.984 . S
H1419 N1412 0.984 . S
H1420 N1408 0.984 . S
H1421 N1408 0.985 . S
C1422 C1423 1.363 . S
C1422 C1428 1.379 . S
C1422 N1430 1.356 . S
C1423 C1422 1.363 . S
C1423 C1429 1.363 . S
C1424 C1425 1.363 . S
C1424 C1429 1.379 . S
C1424 N1431 1.356 . S
C1425 C1424 1.363 . S
C1425 C1428 1.363 . S
N1426 C1428 1.356 . S
N1426 H1438 0.984 . S
N1426 H1439 0.985 . S
N1427 C1429 1.356 . S
N1427 H1432 0.984 . S
N1427 H1433 0.985 . S
C1428 C1422 1.379 . S
C1428 C1425 1.363 . S
C1428 N1426 1.356 . S
C1429 C1423 1.363 . S
C1429 C1424 1.379 . S
C1429 N1427 1.356 . S
N1430 C1422 1.356 . S
N1430 H1436 0.984 . S
N1430 H1437 0.984 . S
N1431 C1424 1.356 . S
N1431 H1434 0.984 . S
N1431 H1435 0.985 . S
H1432 N1427 0.984 . S
H1433 N1427 0.985 . S
H1434 N1431 0.984 . S
H1435 N1431 0.985 . S
H1436 N1430 0.984 . S
H1437 N1430 0.984 . S
H1438 N1426 0.984 . S
H1439 N1426 0.985 . S
C1440 C1441 1.363 . S
C1440 C1446 1.379 . S
C1440 N1448 1.356 . S
C1441 C1440 1.363 . S
C1441 C1447 1.363 . S
C1442 C1443 1.363 . S
C1442 C1447 1.379 . S
C1442 N1449 1.356 . S
C1443 C1442 1.363 . S
C1443 C1446 1.363 . S
N1444 C1446 1.356 . S
N1444 H1456 0.984 . S
N1444 H1457 0.985 . S
N1445 C1447 1.356 . S
N1445 H1450 0.984 . S
N1445 H1451 0.985 . S
C1446 C1440 1.379 . S
C1446 C1443 1.363 . S
C1446 N1444 1.356 . S
C1447 C1441 1.363 . S
C1447 C1442 1.379 . S
C1447 N1445 1.356 . S
N1448 C1440 1.356 . S
N1448 H1454 0.984 . S
N1448 H1455 0.984 . S
N1449 C1442 1.356 . S
N1449 H1452 0.984 . S
N1449 H1453 0.985 . S
H1450 N1445 0.984 . S
H1451 N1445 0.985 . S
H1452 N1449 0.984 . S
H1453 N1449 0.985 . S
H1454 N1448 0.984 . S
H1455 N1448 0.984 . S
H1456 N1444 0.984 . S
H1457 N1444 0.985 . S
C1458 C1459 1.363 . S
C1458 C1464 1.379 . S
C1458 N1466 1.356 . S
C1459 C1458 1.363 . S
C1459 C1465 1.363 . S
C1460 C1461 1.363 . S
C1460 C1465 1.379 . S
C1460 N1467 1.356 . S
C1461 C1460 1.363 . S
C1461 C1464 1.363 . S
N1462 C1464 1.356 . S
N1462 H1474 0.984 . S
N1462 H1475 0.985 . S
N1463 C1465 1.356 . S
N1463 H1468 0.984 . S
N1463 H1469 0.985 . S
C1464 C1458 1.379 . S
C1464 C1461 1.363 . S
C1464 N1462 1.356 . S
C1465 C1459 1.363 . S
C1465 C1460 1.379 . S
C1465 N1463 1.356 . S
N1466 C1458 1.356 . S
N1466 H1472 0.984 . S
N1466 H1473 0.984 . S
N1467 C1460 1.356 . S
N1467 H1470 0.984 . S
N1467 H1471 0.985 . S
H1468 N1463 0.984 . S
H1469 N1463 0.985 . S
H1470 N1467 0.984 . S
H1471 N1467 0.985 . S
H1472 N1466 0.984 . S
H1473 N1466 0.984 . S
H1474 N1462 0.984 . S
H1475 N1462 0.985 . S
C1476 C1477 1.363 . S
C1476 C1482 1.379 . S
C1476 N1484 1.356 . S
C1477 C1476 1.363 . S
C1477 C1483 1.363 . S
C1478 C1479 1.363 . S
C1478 C1483 1.379 . S
C1478 N1485 1.356 . S
C1479 C1478 1.363 . S
C1479 C1482 1.363 . S
N1480 C1482 1.356 . S
N1480 H1492 0.984 . S
N1480 H1493 0.985 . S
N1481 C1483 1.356 . S
N1481 H1486 0.984 . S
N1481 H1487 0.985 . S
C1482 C1476 1.379 . S
C1482 C1479 1.363 . S
C1482 N1480 1.356 . S
C1483 C1477 1.363 . S
C1483 C1478 1.379 . S
C1483 N1481 1.356 . S
N1484 C1476 1.356 . S
N1484 H1490 0.984 . S
N1484 H1491 0.984 . S
N1485 C1478 1.356 . S
N1485 H1488 0.984 . S
N1485 H1489 0.985 . S
H1486 N1481 0.984 . S
H1487 N1481 0.985 . S
H1488 N1485 0.984 . S
H1489 N1485 0.985 . S
H1490 N1484 0.984 . S
H1491 N1484 0.984 . S
H1492 N1480 0.984 . S
H1493 N1480 0.985 . S
C1494 C1495 1.363 . S
C1494 C1500 1.379 . S
C1494 N1502 1.356 . S
C1495 C1494 1.363 . S
C1495 C1501 1.363 . S
C1496 C1497 1.363 . S
C1496 C1501 1.379 . S
C1496 N1503 1.356 . S
C1497 C1496 1.363 . S
C1497 C1500 1.363 . S
N1498 C1500 1.356 . S
N1498 H1510 0.984 . S
N1498 H1511 0.985 . S
N1499 C1501 1.356 . S
N1499 H1504 0.984 . S
N1499 H1505 0.985 . S
C1500 C1494 1.379 . S
C1500 C1497 1.363 . S
C1500 N1498 1.356 . S
C1501 C1495 1.363 . S
C1501 C1496 1.379 . S
C1501 N1499 1.356 . S
N1502 C1494 1.356 . S
N1502 H1508 0.984 . S
N1502 H1509 0.984 . S
N1503 C1496 1.356 . S
N1503 H1506 0.984 . S
N1503 H1507 0.985 . S
H1504 N1499 0.984 . S
H1505 N1499 0.985 . S
H1506 N1503 0.984 . S
H1507 N1503 0.985 . S
H1508 N1502 0.984 . S
H1509 N1502 0.984 . S
H1510 N1498 0.984 . S
H1511 N1498 0.985 . S
C1512 C1513 1.363 . S
C1512 C1518 1.379 . S
C1512 N1520 1.356 . S
C1513 C1512 1.363 . S
C1513 C1519 1.363 . S
C1514 C1515 1.363 . S
C1514 C1519 1.379 . S
C1514 N1521 1.356 . S
C1515 C1514 1.363 . S
C1515 C1518 1.363 . S
N1516 C1518 1.356 . S
N1516 H1528 0.984 . S
N1516 H1529 0.985 . S
N1517 C1519 1.356 . S
N1517 H1522 0.984 . S
N1517 H1523 0.985 . S
C1518 C1512 1.379 . S
C1518 C1515 1.363 . S
C1518 N1516 1.356 . S
C1519 C1513 1.363 . S
C1519 C1514 1.379 . S
C1519 N1517 1.356 . S
N1520 C1512 1.356 . S
N1520 H1526 0.984 . S
N1520 H1527 0.984 . S
N1521 C1514 1.356 . S
N1521 H1524 0.984 . S
N1521 H1525 0.985 . S
H1522 N1517 0.984 . S
H1523 N1517 0.985 . S
H1524 N1521 0.984 . S
H1525 N1521 0.985 . S
H1526 N1520 0.984 . S
H1527 N1520 0.984 . S
H1528 N1516 0.984 . S
H1529 N1516 0.985 . S
C1530 C1531 1.363 . S
C1530 C1536 1.379 . S
C1530 N1538 1.356 . S
C1531 C1530 1.363 . S
C1531 C1537 1.363 . S
C1532 C1533 1.363 . S
C1532 C1537 1.379 . S
C1532 N1539 1.356 . S
C1533 C1532 1.363 . S
C1533 C1536 1.368 . S
N1534 C1536 1.352 1_545 S
N1534 H1546 0.984 . S
N1534 H1547 0.985 . S
N1535 C1537 1.356 . S
N1535 H1540 0.984 . S
N1535 H1541 0.985 . S
C1536 C1530 1.379 . S
C1536 C1533 1.368 . S
C1536 N1534 1.352 1_565 S
C1537 C1531 1.363 . S
C1537 C1532 1.379 . S
C1537 N1535 1.356 . S
N1538 C1530 1.356 . S
N1538 H1544 0.984 1_565 S
N1538 H1545 0.984 . S
N1539 C1532 1.356 . S
N1539 H1542 0.984 . S
N1539 H1543 0.985 . S
H1540 N1535 0.984 . S
H1541 N1535 0.985 . S
H1542 N1539 0.984 . S
H1543 N1539 0.985 . S
H1544 N1538 0.984 1_545 S
H1545 N1538 0.984 . S
H1546 N1534 0.984 . S
H1547 N1534 0.985 . S
C1548 C1549 1.363 . S
C1548 C1554 1.379 . S
C1548 N1556 1.356 . S
C1549 C1548 1.363 . S
C1549 C1555 1.363 . S
C1550 C1551 1.363 . S
C1550 C1555 1.379 . S
C1550 N1557 1.356 . S
C1551 C1550 1.363 . S
C1551 C1554 1.363 . S
N1552 C1554 1.356 . S
N1552 H1564 0.984 . S
N1552 H1565 0.985 . S
N1553 C1555 1.356 1_655 S
N1553 H1558 0.984 . S
N1553 H1559 0.985 . S
C1554 C1548 1.379 . S
C1554 C1551 1.363 . S
C1554 N1552 1.356 . S
C1555 C1549 1.363 . S
C1555 C1550 1.379 . S
C1555 N1553 1.356 1_455 S
N1556 C1548 1.356 . S
N1556 H1562 0.984 . S
N1556 H1563 0.984 . S
N1557 C1550 1.356 . S
N1557 H1560 0.984 . S
N1557 H1561 0.985 . S
H1558 N1553 0.984 . S
H1559 N1553 0.985 . S
H1560 N1557 0.984 . S
H1561 N1557 0.985 . S
H1562 N1556 0.984 . S
H1563 N1556 0.984 . S
H1564 N1552 0.984 . S
H1565 N1552 0.985 . S
C1566 C1567 1.363 . S
C1566 C1572 1.379 . S
C1566 N1574 1.356 . S
C1567 C1566 1.363 . S
C1567 C1573 1.363 . S
C1568 C1569 1.363 . S
C1568 C1573 1.379 . S
C1568 N1575 1.356 . S
C1569 C1568 1.363 . S
C1569 C1572 1.363 . S
N1570 C1572 1.356 . S
N1570 H1582 0.984 . S
N1570 H1583 0.985 . S
N1571 C1573 1.356 . S
N1571 H1576 0.984 . S
N1571 H1577 0.985 . S
C1572 C1566 1.379 . S
C1572 C1569 1.363 . S
C1572 N1570 1.356 . S
C1573 C1567 1.363 . S
C1573 C1568 1.379 . S
C1573 N1571 1.356 . S
N1574 C1566 1.356 . S
N1574 H1580 0.984 . S
N1574 H1581 0.984 . S
N1575 C1568 1.356 . S
N1575 H1578 0.984 . S
N1575 H1579 0.985 . S
H1576 N1571 0.984 . S
H1577 N1571 0.985 . S
H1578 N1575 0.984 . S
H1579 N1575 0.985 . S
H1580 N1574 0.984 . S
H1581 N1574 0.984 . S
H1582 N1570 0.984 . S
H1583 N1570 0.985 . S
C1584 C1585 1.363 1_565 S
C1584 C1590 1.379 1_565 S
C1584 N1592 1.356 . S
C1585 C1584 1.363 1_545 S
C1585 C1591 1.363 . S
C1586 C1587 1.363 . S
C1586 C1591 1.379 . S
C1586 N1593 1.356 . S
C1587 C1586 1.363 . S
C1587 C1590 1.363 . S
N1588 C1590 1.356 . S
N1588 H1600 0.984 1_545 S
N1588 H1601 0.985 . S
N1589 C1591 1.356 . S
N1589 H1594 0.984 . S
N1589 H1595 0.985 . S
C1590 C1584 1.379 1_545 S
C1590 C1587 1.363 . S
C1590 N1588 1.356 . S
C1591 C1585 1.363 . S
C1591 C1586 1.379 . S
C1591 N1589 1.356 . S
N1592 C1584 1.356 . S
N1592 H1598 0.984 . S
N1592 H1599 0.984 . S
N1593 C1586 1.356 . S
N1593 H1596 0.984 . S
N1593 H1597 0.985 . S
H1594 N1589 0.984 . S
H1595 N1589 0.985 . S
H1596 N1593 0.984 . S
H1597 N1593 0.985 . S
H1598 N1592 0.984 . S
H1599 N1592 0.984 . S
H1600 N1588 0.984 1_565 S
H1601 N1588 0.985 . S
C1602 C1603 1.363 . S
C1602 C1608 1.379 . S
C1602 N1610 1.356 . S
C1603 C1602 1.363 . S
C1603 C1609 1.363 . S
C1604 C1605 1.363 . S
C1604 C1609 1.379 . S
C1604 N1611 1.356 . S
C1605 C1604 1.363 . S
C1605 C1608 1.363 . S
N1606 C1608 1.356 1_455 S
N1606 H1618 0.984 . S
N1606 H1619 0.985 . S
N1607 C1609 1.356 . S
N1607 H1612 0.984 . S
N1607 H1613 0.985 . S
C1608 C1602 1.379 . S
C1608 C1605 1.363 . S
C1608 N1606 1.356 1_655 S
C1609 C1603 1.363 . S
C1609 C1604 1.379 . S
C1609 N1607 1.356 . S
N1610 C1602 1.356 . S
N1610 H1616 0.984 . S
N1610 H1617 0.984 . S
N1611 C1604 1.356 . S
N1611 H1614 0.984 . S
N1611 H1615 0.985 . S
H1612 N1607 0.984 . S
H1613 N1607 0.985 . S
H1614 N1611 0.984 . S
H1615 N1611 0.985 . S
H1616 N1610 0.984 . S
H1617 N1610 0.984 . S
H1618 N1606 0.984 . S
H1619 N1606 0.985 . S
C1620 C1621 1.363 . S
C1620 C1626 1.379 . S
C1620 N1628 1.356 . S
C1621 C1620 1.363 . S
C1621 C1627 1.363 . S
C1622 C1623 1.363 . S
C1622 C1627 1.379 . S
C1622 N1629 1.356 . S
C1623 C1622 1.363 . S
C1623 C1626 1.363 . S
N1624 C1626 1.356 . S
N1624 H1636 0.984 . S
N1624 H1637 0.985 . S
N1625 C1627 1.356 . S
N1625 H1630 0.984 . S
N1625 H1631 0.985 . S
C1626 C1620 1.379 . S
C1626 C1623 1.363 . S
C1626 N1624 1.356 . S
C1627 C1621 1.363 . S
C1627 C1622 1.379 . S
C1627 N1625 1.356 . S
N1628 C1620 1.356 . S
N1628 H1634 0.984 . S
N1628 H1635 0.984 . S
N1629 C1622 1.356 . S
N1629 H1632 0.984 . S
N1629 H1633 0.985 . S
H1630 N1625 0.984 . S
H1631 N1625 0.985 . S
H1632 N1629 0.984 . S
H1633 N1629 0.985 . S
H1634 N1628 0.984 . S
H1635 N1628 0.984 . S
H1636 N1624 0.984 . S
H1637 N1624 0.985 . S
C1638 C1639 1.363 . S
C1638 C1644 1.379 . S
C1638 N1646 1.356 . S
C1639 C1638 1.363 . S
C1639 C1645 1.363 . S
C1640 C1641 1.363 . S
C1640 C1645 1.379 . S
C1640 N1647 1.356 . S
C1641 C1640 1.363 . S
C1641 C1644 1.363 . S
N1642 C1644 1.356 1_565 S
N1642 H1654 0.984 . S
N1642 H1655 0.985 . S
N1643 C1645 1.356 . S
N1643 H1648 0.984 . S
N1643 H1649 0.985 . S
C1644 C1638 1.379 . S
C1644 C1641 1.363 . S
C1644 N1642 1.356 1_545 S
C1645 C1639 1.363 . S
C1645 C1640 1.379 . S
C1645 N1643 1.356 . S
N1646 C1638 1.356 . S
N1646 H1652 0.984 . S
N1646 H1653 0.984 . S
N1647 C1640 1.356 . S
N1647 H1650 0.984 . S
N1647 H1651 0.985 . S
H1648 N1643 0.984 . S
H1649 N1643 0.985 . S
H1650 N1647 0.984 . S
H1651 N1647 0.985 . S
H1652 N1646 0.984 . S
H1653 N1646 0.984 . S
H1654 N1642 0.984 . S
H1655 N1642 0.985 . S
C1656 C1657 1.363 . S
C1656 C1662 1.379 . S
C1656 N1664 1.356 . S
C1657 C1656 1.363 . S
C1657 C1663 1.363 . S
C1658 C1659 1.363 1_455 S
C1658 C1663 1.379 1_455 S
C1658 N1665 1.356 . S
C1659 C1658 1.363 1_655 S
C1659 C1662 1.363 . S
N1660 C1662 1.356 . S
N1660 H1672 0.984 . S
N1660 H1673 0.985 . S
N1661 C1663 1.356 . S
N1661 H1666 0.984 . S
N1661 H1667 0.985 1_655 S
C1662 C1656 1.379 . S
C1662 C1659 1.363 . S
C1662 N1660 1.356 . S
C1663 C1657 1.363 . S
C1663 C1658 1.379 1_655 S
C1663 N1661 1.356 . S
N1664 C1656 1.356 . S
N1664 H1670 0.984 . S
N1664 H1671 0.984 . S
N1665 C1658 1.356 . S
N1665 H1668 0.984 . S
N1665 H1669 0.985 . S
H1666 N1661 0.984 . S
H1667 N1661 0.985 1_455 S
H1668 N1665 0.984 . S
H1669 N1665 0.985 . S
H1670 N1664 0.984 . S
H1671 N1664 0.984 . S
H1672 N1660 0.984 . S
H1673 N1660 0.985 . S
C1674 C1675 1.363 . S
C1674 C1680 1.379 . S
C1674 N1682 1.356 . S
C1675 C1674 1.363 . S
C1675 C1681 1.363 . S
C1676 C1677 1.363 . S
C1676 C1681 1.379 . S
C1676 N1683 1.356 . S
C1677 C1676 1.363 . S
C1677 C1680 1.363 . S
N1678 C1680 1.356 . S
N1678 H1690 0.984 . S
N1678 H1691 0.985 . S
N1679 C1681 1.356 . S
N1679 H1684 0.984 . S
N1679 H1685 0.985 . S
C1680 C1674 1.379 . S
C1680 C1677 1.363 . S
C1680 N1678 1.356 . S
C1681 C1675 1.363 . S
C1681 C1676 1.379 . S
C1681 N1679 1.356 . S
N1682 C1674 1.356 . S
N1682 H1688 0.984 . S
N1682 H1689 0.984 . S
N1683 C1676 1.356 . S
N1683 H1686 0.984 . S
N1683 H1687 0.985 . S
H1684 N1679 0.984 . S
H1685 N1679 0.985 . S
H1686 N1683 0.984 . S
H1687 N1683 0.985 . S
H1688 N1682 0.984 . S
H1689 N1682 0.984 . S
H1690 N1678 0.984 . S
H1691 N1678 0.985 . S
C1692 C1693 1.363 . S
C1692 C1698 1.379 . S
C1692 N1700 1.356 . S
C1693 C1692 1.363 . S
C1693 C1699 1.363 . S
C1694 C1695 1.363 . S
C1694 C1699 1.379 . S
C1694 N1701 1.356 . S
C1695 C1694 1.363 . S
C1695 C1698 1.363 . S
N1696 C1698 1.356 . S
N1696 H1708 0.984 . S
N1696 H1709 0.985 1_565 S
N1697 C1699 1.356 . S
N1697 H1702 0.984 . S
N1697 H1703 0.985 . S
C1698 C1692 1.379 . S
C1698 C1695 1.363 . S
C1698 N1696 1.356 . S
C1699 C1693 1.363 . S
C1699 C1694 1.379 . S
C1699 N1697 1.356 . S
N1700 C1692 1.356 . S
N1700 H1706 0.984 . S
N1700 H1707 0.984 . S
N1701 C1694 1.356 . S
N1701 H1704 0.984 . S
N1701 H1705 0.985 . S
H1702 N1697 0.984 . S
H1703 N1697 0.985 . S
H1704 N1701 0.984 . S
H1705 N1701 0.985 . S
H1706 N1700 0.984 . S
H1707 N1700 0.984 . S
H1708 N1696 0.984 . S
H1709 N1696 0.985 1_545 S
C1710 C1711 1.363 . S
C1710 C1716 1.379 . S
C1710 N1718 1.356 . S
C1711 C1710 1.363 . S
C1711 C1717 1.363 . S
C1712 C1713 1.363 . S
C1712 C1717 1.379 . S
C1712 N1719 1.356 . S
C1713 C1712 1.363 . S
C1713 C1716 1.363 . S
N1714 C1716 1.356 . S
N1714 H1726 0.984 . S
N1714 H1727 0.985 . S
N1715 C1717 1.356 1_655 S
N1715 H1720 0.984 . S
N1715 H1721 0.985 . S
C1716 C1710 1.379 . S
C1716 C1713 1.363 . S
C1716 N1714 1.356 . S
C1717 C1711 1.363 . S
C1717 C1712 1.379 . S
C1717 N1715 1.356 1_455 S
N1718 C1710 1.356 . S
N1718 H1724 0.984 . S
N1718 H1725 0.984 . S
N1719 C1712 1.356 . S
N1719 H1722 0.984 . S
N1719 H1723 0.985 . S
H1720 N1715 0.984 . S
H1721 N1715 0.985 . S
H1722 N1719 0.984 . S
H1723 N1719 0.985 . S
H1724 N1718 0.984 . S
H1725 N1718 0.984 . S
H1726 N1714 0.984 . S
H1727 N1714 0.985 . S
C1728 C1729 1.363 . S
C1728 C1734 1.379 1_455 S
C1728 N1736 1.356 . S
C1729 C1728 1.363 . S
C1729 C1735 1.363 . S
C1730 C1731 1.363 . S
C1730 C1735 1.379 1_655 S
C1730 N1737 1.356 . S
C1731 C1730 1.363 . S
C1731 C1734 1.363 . S
N1732 C1734 1.356 . S
N1732 H1744 0.984 . S
N1732 H1745 0.985 . S
N1733 C1735 1.356 . S
N1733 H1738 0.984 . S
N1733 H1739 0.985 . S
C1734 C1728 1.379 1_655 S
C1734 C1731 1.363 . S
C1734 N1732 1.356 . S
C1735 C1729 1.363 . S
C1735 C1730 1.379 1_455 S
C1735 N1733 1.356 . S
N1736 C1728 1.356 . S
N1736 H1742 0.984 . S
N1736 H1743 0.984 . S
N1737 C1730 1.356 . S
N1737 H1740 0.984 . S
N1737 H1741 0.985 . S
H1738 N1733 0.984 . S
H1739 N1733 0.985 . S
H1740 N1737 0.984 . S
H1741 N1737 0.985 . S
H1742 N1736 0.984 . S
H1743 N1736 0.984 . S
H1744 N1732 0.984 . S
H1745 N1732 0.985 . S
C1746 C1747 1.363 . S
C1746 C1752 1.379 . S
C1746 N1754 1.356 . S
C1747 C1746 1.363 . S
C1747 C1753 1.363 . S
C1748 C1749 1.363 . S
C1748 C1753 1.379 . S
C1748 N1755 1.356 . S
C1749 C1748 1.363 . S
C1749 C1752 1.363 . S
N1750 C1752 1.356 . S
N1750 H1762 0.984 . S
N1750 H1763 0.985 . S
N1751 C1753 1.356 . S
N1751 H1756 0.984 . S
N1751 H1757 0.985 . S
C1752 C1746 1.379 . S
C1752 C1749 1.363 . S
C1752 N1750 1.356 . S
C1753 C1747 1.363 . S
C1753 C1748 1.379 . S
C1753 N1751 1.356 . S
N1754 C1746 1.356 . S
N1754 H1760 0.984 . S
N1754 H1761 0.984 . S
N1755 C1748 1.356 . S
N1755 H1758 0.984 . S
N1755 H1759 0.985 . S
H1756 N1751 0.984 . S
H1757 N1751 0.985 . S
H1758 N1755 0.984 . S
H1759 N1755 0.985 . S
H1760 N1754 0.984 . S
H1761 N1754 0.984 . S
H1762 N1750 0.984 . S
H1763 N1750 0.985 . S
C1764 C1765 1.363 . S
C1764 C1770 1.379 1_565 S
C1764 N1772 1.356 . S
C1765 C1764 1.363 . S
C1765 C1771 1.363 . S
C1766 C1767 1.363 . S
C1766 C1771 1.379 1_545 S
C1766 N1773 1.356 . S
C1767 C1766 1.363 . S
C1767 C1770 1.363 . S
N1768 C1770 1.356 . S
N1768 H1780 0.984 . S
N1768 H1781 0.985 . S
N1769 C1771 1.356 . S
N1769 H1774 0.984 . S
N1769 H1775 0.985 . S
C1770 C1764 1.379 1_545 S
C1770 C1767 1.363 . S
C1770 N1768 1.356 . S
C1771 C1765 1.363 . S
C1771 C1766 1.379 1_565 S
C1771 N1769 1.356 . S
N1772 C1764 1.356 . S
N1772 H1778 0.984 . S
N1772 H1779 0.984 . S
N1773 C1766 1.356 . S
N1773 H1776 0.984 . S
N1773 H1777 0.985 . S
H1774 N1769 0.984 . S
H1775 N1769 0.985 . S
H1776 N1773 0.984 . S
H1777 N1773 0.985 . S
H1778 N1772 0.984 . S
H1779 N1772 0.984 . S
H1780 N1768 0.984 . S
H1781 N1768 0.985 . S
C1782 C1783 1.363 . S
C1782 C1788 1.379 1_545 S
C1782 N1790 1.356 . S
C1783 C1782 1.363 . S
C1783 C1789 1.363 . S
C1784 C1785 1.363 . S
C1784 C1789 1.379 1_565 S
C1784 N1791 1.356 . S
C1785 C1784 1.363 . S
C1785 C1788 1.363 . S
N1786 C1788 1.356 . S
N1786 H1798 0.984 . S
N1786 H1799 0.985 . S
N1787 C1789 1.356 . S
N1787 H1792 0.984 . S
N1787 H1793 0.985 . S
C1788 C1782 1.379 1_565 S
C1788 C1785 1.363 . S
C1788 N1786 1.356 . S
C1789 C1783 1.363 . S
C1789 C1784 1.379 1_545 S
C1789 N1787 1.356 . S
N1790 C1782 1.356 . S
N1790 H1796 0.984 . S
N1790 H1797 0.984 . S
N1791 C1784 1.356 . S
N1791 H1794 0.984 . S
N1791 H1795 0.985 . S
H1792 N1787 0.984 . S
H1793 N1787 0.985 . S
H1794 N1791 0.984 . S
H1795 N1791 0.985 . S
H1796 N1790 0.984 . S
H1797 N1790 0.984 . S
H1798 N1786 0.984 . S
H1799 N1786 0.985 . S
C1800 C1801 1.363 . S
C1800 C1806 1.379 1_655 S
C1800 N1808 1.356 . S
C1801 C1800 1.363 . S
C1801 C1807 1.363 . S
C1802 C1803 1.363 . S
C1802 C1807 1.379 1_455 S
C1802 N1809 1.356 . S
C1803 C1802 1.363 . S
C1803 C1806 1.363 . S
N1804 C1806 1.356 . S
N1804 H1816 0.984 . S
N1804 H1817 0.985 . S
N1805 C1807 1.356 . S
N1805 H1810 0.984 . S
N1805 H1811 0.985 . S
C1806 C1800 1.379 1_455 S
C1806 C1803 1.363 . S
C1806 N1804 1.356 . S
C1807 C1801 1.363 . S
C1807 C1802 1.379 1_655 S
C1807 N1805 1.356 . S
N1808 C1800 1.356 . S
N1808 H1814 0.984 . S
N1808 H1815 0.984 . S
N1809 C1802 1.356 . S
N1809 H1812 0.984 . S
N1809 H1813 0.985 . S
H1810 N1805 0.984 . S
H1811 N1805 0.985 . S
H1812 N1809 0.984 . S
H1813 N1809 0.985 . S
H1814 N1808 0.984 . S
H1815 N1808 0.984 . S
H1816 N1804 0.984 . S
H1817 N1804 0.985 . S
C1818 C1819 1.363 . S
C1818 C1824 1.379 . S
C1818 N1826 1.356 . S
C1819 C1818 1.363 . S
C1819 C1825 1.363 . S
C1820 C1821 1.363 . S
C1820 C1825 1.379 . S
C1820 N1827 1.356 . S
C1821 C1820 1.363 . S
C1821 C1824 1.363 . S
N1822 C1824 1.356 . S
N1822 H1834 0.984 . S
N1822 H1835 0.985 . S
N1823 C1825 1.356 . S
N1823 H1828 0.984 . S
N1823 H1829 0.985 . S
C1824 C1818 1.379 . S
C1824 C1821 1.363 . S
C1824 N1822 1.356 . S
C1825 C1819 1.363 . S
C1825 C1820 1.379 . S
C1825 N1823 1.356 . S
N1826 C1818 1.356 . S
N1826 H1832 0.984 . S
N1826 H1833 0.984 . S
N1827 C1820 1.356 . S
N1827 H1830 0.984 . S
N1827 H1831 0.985 . S
H1828 N1823 0.984 . S
H1829 N1823 0.985 . S
H1830 N1827 0.984 . S
H1831 N1827 0.985 . S
H1832 N1826 0.984 . S
H1833 N1826 0.984 . S
H1834 N1822 0.984 . S
H1835 N1822 0.985 . S
C1836 C1837 1.363 . S
C1836 C1842 1.379 . S
C1836 N1844 1.356 . S
C1837 C1836 1.363 . S
C1837 C1843 1.363 . S
C1838 C1839 1.363 . S
C1838 C1843 1.379 . S
C1838 N1845 1.356 . S
C1839 C1838 1.363 . S
C1839 C1842 1.363 . S
N1840 C1842 1.356 . S
N1840 H1852 0.984 . S
N1840 H1853 0.985 . S
N1841 C1843 1.356 . S
N1841 H1846 0.984 . S
N1841 H1847 0.985 . S
C1842 C1836 1.379 . S
C1842 C1839 1.363 . S
C1842 N1840 1.356 . S
C1843 C1837 1.363 . S
C1843 C1838 1.379 . S
C1843 N1841 1.356 . S
N1844 C1836 1.356 . S
N1844 H1850 0.984 . S
N1844 H1851 0.984 . S
N1845 C1838 1.356 . S
N1845 H1848 0.984 . S
N1845 H1849 0.985 . S
H1846 N1841 0.984 . S
H1847 N1841 0.985 . S
H1848 N1845 0.984 . S
H1849 N1845 0.985 . S
H1850 N1844 0.984 . S
H1851 N1844 0.984 . S
H1852 N1840 0.984 . S
H1853 N1840 0.985 . S
C1854 C1855 1.363 . S
C1854 C1860 1.379 . S
C1854 N1862 1.356 . S
C1855 C1854 1.363 . S
C1855 C1861 1.363 . S
C1856 C1857 1.363 . S
C1856 C1861 1.379 . S
C1856 N1863 1.356 . S
C1857 C1856 1.363 . S
C1857 C1860 1.363 . S
N1858 C1860 1.356 . S
N1858 H1870 0.984 . S
N1858 H1871 0.985 . S
N1859 C1861 1.356 . S
N1859 H1864 0.984 . S
N1859 H1865 0.985 . S
C1860 C1854 1.379 . S
C1860 C1857 1.363 . S
C1860 N1858 1.356 . S
C1861 C1855 1.363 . S
C1861 C1856 1.379 . S
C1861 N1859 1.356 . S
N1862 C1854 1.356 . S
N1862 H1868 0.984 . S
N1862 H1869 0.984 . S
N1863 C1856 1.356 . S
N1863 H1866 0.984 . S
N1863 H1867 0.985 . S
H1864 N1859 0.984 . S
H1865 N1859 0.985 . S
H1866 N1863 0.984 . S
H1867 N1863 0.985 . S
H1868 N1862 0.984 . S
H1869 N1862 0.984 . S
H1870 N1858 0.984 . S
H1871 N1858 0.985 . S
C1872 C1873 1.363 . S
C1872 C1878 1.379 . S
C1872 N1880 1.356 . S
C1873 C1872 1.363 . S
C1873 C1879 1.363 . S
C1874 C1875 1.363 . S
C1874 C1879 1.379 . S
C1874 N1881 1.356 . S
C1875 C1874 1.363 . S
C1875 C1878 1.363 . S
N1876 C1878 1.356 . S
N1876 H1888 0.984 . S
N1876 H1889 0.985 . S
N1877 C1879 1.356 . S
N1877 H1882 0.984 . S
N1877 H1883 0.985 . S
C1878 C1872 1.379 . S
C1878 C1875 1.363 . S
C1878 N1876 1.356 . S
C1879 C1873 1.363 . S
C1879 C1874 1.379 . S
C1879 N1877 1.356 . S
N1880 C1872 1.356 . S
N1880 H1886 0.984 . S
N1880 H1887 0.984 . S
N1881 C1874 1.356 . S
N1881 H1884 0.984 . S
N1881 H1885 0.985 . S
H1882 N1877 0.984 . S
H1883 N1877 0.985 . S
H1884 N1881 0.984 . S
H1885 N1881 0.985 . S
H1886 N1880 0.984 . S
H1887 N1880 0.984 . S
H1888 N1876 0.984 . S
H1889 N1876 0.985 . S
C1890 C1891 1.363 . S
C1890 C1896 1.379 . S
C1890 N1898 1.356 . S
C1891 C1890 1.363 . S
C1891 C1897 1.363 . S
C1892 C1893 1.363 . S
C1892 C1897 1.379 . S
C1892 N1899 1.356 . S
C1893 C1892 1.363 . S
C1893 C1896 1.363 . S
N1894 C1896 1.356 . S
N1894 H1906 0.984 . S
N1894 H1907 0.985 . S
N1895 C1897 1.356 . S
N1895 H1900 0.984 . S
N1895 H1901 0.985 . S
C1896 C1890 1.379 . S
C1896 C1893 1.363 . S
C1896 N1894 1.356 . S
C1897 C1891 1.363 . S
C1897 C1892 1.379 . S
C1897 N1895 1.356 . S
N1898 C1890 1.356 . S
N1898 H1904 0.984 . S
N1898 H1905 0.984 . S
N1899 C1892 1.356 . S
N1899 H1902 0.984 . S
N1899 H1903 0.985 . S
H1900 N1895 0.984 . S
H1901 N1895 0.985 . S
H1902 N1899 0.984 . S
H1903 N1899 0.985 . S
H1904 N1898 0.984 . S
H1905 N1898 0.984 . S
H1906 N1894 0.984 . S
H1907 N1894 0.985 . S
C1908 C1909 1.363 . S
C1908 C1914 1.379 . S
C1908 N1916 1.356 . S
C1909 C1908 1.363 . S
C1909 C1915 1.363 . S
C1910 C1911 1.363 . S
C1910 C1915 1.379 . S
C1910 N1917 1.356 . S
C1911 C1910 1.363 . S
C1911 C1914 1.363 . S
N1912 C1914 1.356 . S
N1912 H1924 0.984 . S
N1912 H1925 0.985 . S
N1913 C1915 1.356 . S
N1913 H1918 0.984 . S
N1913 H1919 0.985 . S
C1914 C1908 1.379 . S
C1914 C1911 1.363 . S
C1914 N1912 1.356 . S
C1915 C1909 1.363 . S
C1915 C1910 1.379 . S
C1915 N1913 1.356 . S
N1916 C1908 1.356 . S
N1916 H1922 0.984 . S
N1916 H1923 0.984 . S
N1917 C1910 1.356 . S
N1917 H1920 0.984 . S
N1917 H1921 0.985 . S
H1918 N1913 0.984 . S
H1919 N1913 0.985 . S
H1920 N1917 0.984 . S
H1921 N1917 0.985 . S
H1922 N1916 0.984 . S
H1923 N1916 0.984 . S
H1924 N1912 0.984 . S
H1925 N1912 0.985 . S
C1926 C1927 1.363 . S
C1926 C1932 1.379 . S
C1926 N1934 1.356 . S
C1927 C1926 1.363 . S
C1927 C1933 1.363 . S
C1928 C1929 1.363 . S
C1928 C1933 1.379 . S
C1928 N1935 1.356 . S
C1929 C1928 1.363 . S
C1929 C1932 1.363 . S
N1930 C1932 1.356 . S
N1930 H1942 0.984 . S
N1930 H1943 0.985 . S
N1931 C1933 1.356 . S
N1931 H1936 0.984 . S
N1931 H1937 0.985 . S
C1932 C1926 1.379 . S
C1932 C1929 1.363 . S
C1932 N1930 1.356 . S
C1933 C1927 1.363 . S
C1933 C1928 1.379 . S
C1933 N1931 1.356 . S
N1934 C1926 1.356 . S
N1934 H1940 0.984 . S
N1934 H1941 0.984 . S
N1935 C1928 1.356 . S
N1935 H1938 0.984 . S
N1935 H1939 0.985 . S
H1936 N1931 0.984 . S
H1937 N1931 0.985 . S
H1938 N1935 0.984 . S
H1939 N1935 0.985 . S
H1940 N1934 0.984 . S
H1941 N1934 0.984 . S
H1942 N1930 0.984 . S
H1943 N1930 0.985 . S
C1944 C1945 1.363 . S
C1944 C1950 1.379 . S
C1944 N1952 1.356 . S
C1945 C1944 1.363 . S
C1945 C1951 1.363 . S
C1946 C1947 1.363 . S
C1946 C1951 1.379 . S
C1946 N1953 1.356 . S
C1947 C1946 1.363 . S
C1947 C1950 1.363 . S
N1948 C1950 1.356 . S
N1948 H1960 0.984 . S
N1948 H1961 0.985 . S
N1949 C1951 1.356 . S
N1949 H1954 0.984 . S
N1949 H1955 0.985 . S
C1950 C1944 1.379 . S
C1950 C1947 1.363 . S
C1950 N1948 1.356 . S
C1951 C1945 1.363 . S
C1951 C1946 1.379 . S
C1951 N1949 1.356 . S
N1952 C1944 1.356 . S
N1952 H1958 0.984 . S
N1952 H1959 0.984 . S
N1953 C1946 1.356 . S
N1953 H1956 0.984 . S
N1953 H1957 0.985 . S
H1954 N1949 0.984 . S
H1955 N1949 0.985 . S
H1956 N1953 0.984 . S
H1957 N1953 0.985 . S
H1958 N1952 0.984 . S
H1959 N1952 0.984 . S
H1960 N1948 0.984 . S
H1961 N1948 0.985 . S
C1962 C1963 1.363 . S
C1962 C1968 1.379 . S
C1962 N1970 1.356 . S
C1963 C1962 1.363 . S
C1963 C1969 1.363 . S
C1964 C1965 1.363 . S
C1964 C1969 1.379 . S
C1964 N1971 1.356 . S
C1965 C1964 1.363 . S
C1965 C1968 1.363 . S
N1966 C1968 1.356 . S
N1966 H1978 0.984 . S
N1966 H1979 0.985 . S
N1967 C1969 1.356 . S
N1967 H1972 0.984 . S
N1967 H1973 0.985 . S
C1968 C1962 1.379 . S
C1968 C1965 1.363 . S
C1968 N1966 1.356 . S
C1969 C1963 1.363 . S
C1969 C1964 1.379 . S
C1969 N1967 1.356 . S
N1970 C1962 1.356 . S
N1970 H1976 0.984 . S
N1970 H1977 0.984 . S
N1971 C1964 1.356 . S
N1971 H1974 0.984 . S
N1971 H1975 0.985 . S
H1972 N1967 0.984 . S
H1973 N1967 0.985 . S
H1974 N1971 0.984 . S
H1975 N1971 0.985 . S
H1976 N1970 0.984 . S
H1977 N1970 0.984 . S
H1978 N1966 0.984 . S
H1979 N1966 0.985 . S
C1980 C1981 1.363 . S
C1980 C1986 1.379 . S
C1980 N1988 1.356 . S
C1981 C1980 1.363 . S
C1981 C1987 1.363 . S
C1982 C1983 1.363 . S
C1982 C1987 1.379 . S
C1982 N1989 1.356 . S
C1983 C1982 1.363 . S
C1983 C1986 1.363 . S
N1984 C1986 1.356 . S
N1984 H1996 0.984 . S
N1984 H1997 0.985 . S
N1985 C1987 1.356 . S
N1985 H1990 0.984 . S
N1985 H1991 0.985 . S
C1986 C1980 1.379 . S
C1986 C1983 1.363 . S
C1986 N1984 1.356 . S
C1987 C1981 1.363 . S
C1987 C1982 1.379 . S
C1987 N1985 1.356 . S
N1988 C1980 1.356 . S
N1988 H1994 0.984 . S
N1988 H1995 0.984 . S
N1989 C1982 1.356 . S
N1989 H1992 0.984 . S
N1989 H1993 0.985 . S
H1990 N1985 0.984 . S
H1991 N1985 0.985 . S
H1992 N1989 0.984 . S
H1993 N1989 0.985 . S
H1994 N1988 0.984 . S
H1995 N1988 0.984 . S
H1996 N1984 0.984 . S
H1997 N1984 0.985 . S
C1998 C1999 1.363 . S
C1998 C2004 1.379 . S
C1998 N2006 1.356 . S
C1999 C1998 1.363 . S
C1999 C2005 1.363 . S
C2000 C2001 1.363 . S
C2000 C2005 1.379 . S
C2000 N2007 1.356 . S
C2001 C2000 1.363 . S
C2001 C2004 1.363 . S
N2002 C2004 1.356 . S
N2002 H2014 0.984 . S
N2002 H2015 0.985 . S
N2003 C2005 1.356 . S
N2003 H2008 0.984 . S
N2003 H2009 0.985 . S
C2004 C1998 1.379 . S
C2004 C2001 1.363 . S
C2004 N2002 1.356 . S
C2005 C1999 1.363 . S
C2005 C2000 1.379 . S
C2005 N2003 1.356 . S
N2006 C1998 1.356 . S
N2006 H2012 0.984 . S
N2006 H2013 0.984 . S
N2007 C2000 1.356 . S
N2007 H2010 0.984 . S
N2007 H2011 0.985 . S
H2008 N2003 0.984 . S
H2009 N2003 0.985 . S
H2010 N2007 0.984 . S
H2011 N2007 0.985 . S
H2012 N2006 0.984 . S
H2013 N2006 0.984 . S
H2014 N2002 0.984 . S
H2015 N2002 0.985 . S
C2016 C2017 1.363 . S
C2016 C2022 1.379 . S
C2016 N2024 1.356 . S
C2017 C2016 1.363 . S
C2017 C2023 1.363 . S
C2018 C2019 1.363 . S
C2018 C2023 1.379 . S
C2018 N2025 1.356 . S
C2019 C2018 1.363 . S
C2019 C2022 1.363 . S
N2020 C2022 1.356 . S
N2020 H2032 0.984 . S
N2020 H2033 0.985 . S
N2021 C2023 1.356 . S
N2021 H2026 0.984 . S
N2021 H2027 0.985 . S
C2022 C2016 1.379 . S
C2022 C2019 1.363 . S
C2022 N2020 1.356 . S
C2023 C2017 1.363 . S
C2023 C2018 1.379 . S
C2023 N2021 1.356 . S
N2024 C2016 1.356 . S
N2024 H2030 0.984 . S
N2024 H2031 0.984 . S
N2025 C2018 1.356 . S
N2025 H2028 0.984 . S
N2025 H2029 0.985 . S
H2026 N2021 0.984 . S
H2027 N2021 0.985 . S
H2028 N2025 0.984 . S
H2029 N2025 0.985 . S
H2030 N2024 0.984 . S
H2031 N2024 0.984 . S
H2032 N2020 0.984 . S
H2033 N2020 0.985 . S
C2034 C2035 1.363 . S
C2034 C2040 1.379 . S
C2034 N2042 1.356 . S
C2035 C2034 1.363 . S
C2035 C2041 1.363 . S
C2036 C2037 1.363 . S
C2036 C2041 1.379 . S
C2036 N2043 1.356 . S
C2037 C2036 1.363 . S
C2037 C2040 1.363 . S
N2038 C2040 1.356 . S
N2038 H2050 0.984 . S
N2038 H2051 0.985 . S
N2039 C2041 1.356 . S
N2039 H2044 0.984 . S
N2039 H2045 0.985 . S
C2040 C2034 1.379 . S
C2040 C2037 1.363 . S
C2040 N2038 1.356 . S
C2041 C2035 1.363 . S
C2041 C2036 1.379 . S
C2041 N2039 1.356 . S
N2042 C2034 1.356 . S
N2042 H2048 0.984 . S
N2042 H2049 0.984 . S
N2043 C2036 1.356 . S
N2043 H2046 0.984 . S
N2043 H2047 0.985 . S
H2044 N2039 0.984 . S
H2045 N2039 0.985 . S
H2046 N2043 0.984 . S
H2047 N2043 0.985 . S
H2048 N2042 0.984 . S
H2049 N2042 0.984 . S
H2050 N2038 0.984 . S
H2051 N2038 0.985 . S
C2052 C2053 1.363 . S
C2052 C2058 1.379 . S
C2052 N2060 1.356 . S
C2053 C2052 1.363 . S
C2053 C2059 1.363 1_655 S
C2054 C2055 1.363 . S
C2054 C2059 1.379 . S
C2054 N2061 1.356 . S
C2055 C2054 1.363 . S
C2055 C2058 1.363 1_455 S
N2056 C2058 1.356 . S
N2056 H2068 0.984 . S
N2056 H2069 0.985 . S
N2057 C2059 1.356 . S
N2057 H2062 0.984 . S
N2057 H2063 0.985 . S
C2058 C2052 1.379 . S
C2058 C2055 1.363 1_655 S
C2058 N2056 1.356 . S
C2059 C2053 1.363 1_455 S
C2059 C2054 1.379 . S
C2059 N2057 1.356 . S
N2060 C2052 1.356 . S
N2060 H2066 0.984 . S
N2060 H2067 0.984 . S
N2061 C2054 1.356 . S
N2061 H2064 0.984 . S
N2061 H2065 0.985 . S
H2062 N2057 0.984 . S
H2063 N2057 0.985 . S
H2064 N2061 0.984 . S
H2065 N2061 0.985 . S
H2066 N2060 0.984 . S
H2067 N2060 0.984 . S
H2068 N2056 0.984 . S
H2069 N2056 0.985 . S
C2070 C2071 1.363 . S
C2070 C2076 1.379 . S
C2070 N2078 1.356 . S
C2071 C2070 1.363 . S
C2071 C2077 1.363 . S
C2072 C2073 1.363 . S
C2072 C2077 1.379 . S
C2072 N2079 1.356 . S
C2073 C2072 1.363 . S
C2073 C2076 1.363 . S
N2074 C2076 1.356 . S
N2074 H2086 0.984 . S
N2074 H2087 0.985 . S
N2075 C2077 1.356 . S
N2075 H2080 0.984 . S
N2075 H2081 0.985 . S
C2076 C2070 1.379 . S
C2076 C2073 1.363 . S
C2076 N2074 1.356 . S
C2077 C2071 1.363 . S
C2077 C2072 1.379 . S
C2077 N2075 1.356 . S
N2078 C2070 1.356 . S
N2078 H2084 0.984 . S
N2078 H2085 0.984 . S
N2079 C2072 1.356 . S
N2079 H2082 0.984 . S
N2079 H2083 0.985 . S
H2080 N2075 0.984 . S
H2081 N2075 0.985 . S
H2082 N2079 0.984 . S
H2083 N2079 0.985 . S
H2084 N2078 0.984 . S
H2085 N2078 0.984 . S
H2086 N2074 0.984 . S
H2087 N2074 0.985 . S
C2088 C2089 1.363 . S
C2088 C2094 1.379 . S
C2088 N2096 1.356 . S
C2089 C2088 1.363 . S
C2089 C2095 1.363 1_545 S
C2090 C2091 1.363 . S
C2090 C2095 1.379 . S
C2090 N2097 1.356 . S
C2091 C2090 1.363 . S
C2091 C2094 1.363 1_565 S
N2092 C2094 1.356 . S
N2092 H2104 0.984 . S
N2092 H2105 0.985 1_545 S
N2093 C2095 1.356 . S
N2093 H2098 0.984 1_565 S
N2093 H2099 0.985 . S
C2094 C2088 1.379 . S
C2094 C2091 1.363 1_545 S
C2094 N2092 1.356 . S
C2095 C2089 1.363 1_565 S
C2095 C2090 1.379 . S
C2095 N2093 1.356 . S
N2096 C2088 1.356 . S
N2096 H2102 0.984 . S
N2096 H2103 0.984 . S
N2097 C2090 1.356 . S
N2097 H2100 0.984 . S
N2097 H2101 0.985 . S
H2098 N2093 0.984 1_545 S
H2099 N2093 0.985 . S
H2100 N2097 0.984 . S
H2101 N2097 0.985 . S
H2102 N2096 0.984 . S
H2103 N2096 0.984 . S
H2104 N2092 0.984 . S
H2105 N2092 0.985 1_565 S
C2106 C2107 1.363 1_556 S
C2106 C2112 1.379 . S
C2106 N2114 1.356 . S
C2107 C2106 1.363 1_554 S
C2107 C2113 1.363 1_565 S
C2108 C2109 1.363 1_554 S
C2108 C2113 1.379 . S
C2108 N2115 1.356 . S
C2109 C2108 1.363 1_556 S
C2109 C2112 1.363 1_545 S
N2110 C2112 1.356 . S
N2110 H2122 0.984 . S
N2110 H2123 0.985 . S
N2111 C2113 1.356 . S
N2111 H2116 0.984 . S
N2111 H2117 0.985 . S
C2112 C2106 1.379 . S
C2112 C2109 1.363 1_565 S
C2112 N2110 1.356 . S
C2113 C2107 1.363 1_545 S
C2113 C2108 1.379 . S
C2113 N2111 1.356 . S
N2114 C2106 1.356 . S
N2114 H2120 0.984 . S
N2114 H2121 0.984 1_556 S
N2115 C2108 1.356 . S
N2115 H2118 0.984 1_554 S
N2115 H2119 0.985 . S
H2116 N2111 0.984 . S
H2117 N2111 0.985 . S
H2118 N2115 0.984 1_556 S
H2119 N2115 0.985 . S
H2120 N2114 0.984 . S
H2121 N2114 0.984 1_554 S
H2122 N2110 0.984 . S
H2123 N2110 0.985 . S
C2124 C2125 1.363 . S
C2124 C2130 1.379 1_556 S
C2124 N2132 1.356 . S
C2125 C2124 1.363 . S
C2125 C2131 1.363 1_655 S
C2126 C2127 1.363 . S
C2126 C2131 1.379 1_554 S
C2126 N2133 1.356 . S
C2127 C2126 1.363 . S
C2127 C2130 1.363 1_455 S
N2128 C2130 1.356 . S
N2128 H2140 0.984 . S
N2128 H2141 0.985 . S
N2129 C2131 1.356 . S
N2129 H2134 0.984 . S
N2129 H2135 0.985 . S
C2130 C2124 1.379 1_554 S
C2130 C2127 1.363 1_655 S
C2130 N2128 1.356 . S
C2131 C2125 1.363 1_455 S
C2131 C2126 1.379 1_556 S
C2131 N2129 1.356 . S
N2132 C2124 1.356 . S
N2132 H2138 0.984 . S
N2132 H2139 0.984 . S
N2133 C2126 1.356 . S
N2133 H2136 0.984 . S
N2133 H2137 0.985 . S
H2134 N2129 0.984 . S
H2135 N2129 0.985 . S
H2136 N2133 0.984 . S
H2137 N2133 0.985 . S
H2138 N2132 0.984 . S
H2139 N2132 0.984 . S
H2140 N2128 0.984 . S
H2141 N2128 0.985 . S
C2142 C2143 1.363 . S
C2142 C2148 1.379 . S
C2142 N2150 1.356 . S
C2143 C2142 1.363 . S
C2143 C2149 1.363 1_554 S
C2144 C2145 1.363 . S
C2144 C2149 1.379 . S
C2144 N2151 1.356 . S
C2145 C2144 1.363 . S
C2145 C2148 1.363 1_556 S
N2146 C2148 1.356 . S
N2146 H2158 0.984 . S
N2146 H2159 0.985 1_554 S
N2147 C2149 1.356 . S
N2147 H2152 0.984 1_556 S
N2147 H2153 0.985 . S
C2148 C2142 1.379 . S
C2148 C2145 1.363 1_554 S
C2148 N2146 1.356 . S
C2149 C2143 1.363 1_556 S
C2149 C2144 1.379 . S
C2149 N2147 1.356 . S
N2150 C2142 1.356 . S
N2150 H2156 0.984 . S
N2150 H2157 0.984 . S
N2151 C2144 1.356 . S
N2151 H2154 0.984 . S
N2151 H2155 0.985 . S
H2152 N2147 0.984 1_554 S
H2153 N2147 0.985 . S
H2154 N2151 0.984 . S
H2155 N2151 0.985 . S
H2156 N2150 0.984 . S
H2157 N2150 0.984 . S
H2158 N2146 0.984 . S
H2159 N2146 0.985 1_556 S
C2160 C2161 1.363 1_554 S
C2160 C2166 1.379 . S
C2160 N2168 1.356 . S
C2161 C2160 1.363 1_556 S
C2161 C2167 1.363 . S
C2162 C2163 1.363 1_556 S
C2162 C2167 1.379 . S
C2162 N2169 1.356 . S
C2163 C2162 1.363 1_554 S
C2163 C2166 1.363 . S
N2164 C2166 1.356 . S
N2164 H2176 0.984 . S
N2164 H2177 0.985 . S
N2165 C2167 1.356 . S
N2165 H2170 0.984 . S
N2165 H2171 0.985 . S
C2166 C2160 1.379 . S
C2166 C2163 1.363 . S
C2166 N2164 1.356 . S
C2167 C2161 1.363 . S
C2167 C2162 1.379 . S
C2167 N2165 1.356 . S
N2168 C2160 1.356 . S
N2168 H2174 0.984 . S
N2168 H2175 0.984 1_554 S
N2169 C2162 1.356 . S
N2169 H2172 0.984 1_556 S
N2169 H2173 0.985 . S
H2170 N2165 0.984 . S
H2171 N2165 0.985 . S
H2172 N2169 0.984 1_554 S
H2173 N2169 0.985 . S
H2174 N2168 0.984 . S
H2175 N2168 0.984 1_556 S
H2176 N2164 0.984 . S
H2177 N2164 0.985 . S
C2178 C2179 1.363 . S
C2178 C2184 1.379 . S
C2178 N2186 1.356 . S
C2179 C2178 1.363 . S
C2179 C2185 1.363 . S
C2180 C2181 1.363 . S
C2180 C2185 1.379 1_556 S
C2180 N2187 1.356 . S
C2181 C2180 1.363 . S
C2181 C2184 1.363 1_556 S
N2182 C2184 1.356 1_556 S
N2182 H2194 0.984 1_556 S
N2182 H2195 0.985 . S
N2183 C2185 1.356 . S
N2183 H2188 0.984 . S
N2183 H2189 0.985 . S
C2184 C2178 1.379 . S
C2184 C2181 1.363 1_554 S
C2184 N2182 1.356 1_554 S
C2185 C2179 1.363 . S
C2185 C2180 1.379 1_554 S
C2185 N2183 1.356 . S
N2186 C2178 1.356 . S
N2186 H2192 0.984 . S
N2186 H2193 0.984 . S
N2187 C2180 1.356 . S
N2187 H2190 0.984 . S
N2187 H2191 0.985 . S
H2188 N2183 0.984 . S
H2189 N2183 0.985 . S
H2190 N2187 0.984 . S
H2191 N2187 0.985 . S
H2192 N2186 0.984 . S
H2193 N2186 0.984 . S
H2194 N2182 0.984 1_554 S
H2195 N2182 0.985 . S
C2196 C2197 1.363 . S
C2196 C2202 1.379 1_554 S
C2196 N2204 1.356 . S
C2197 C2196 1.363 . S
C2197 C2203 1.363 . S
C2198 C2199 1.363 . S
C2198 C2203 1.379 1_556 S
C2198 N2205 1.356 . S
C2199 C2198 1.363 . S
C2199 C2202 1.363 . S
N2200 C2202 1.356 . S
N2200 H2212 0.984 . S
N2200 H2213 0.985 . S
N2201 C2203 1.356 . S
N2201 H2206 0.984 . S
N2201 H2207 0.985 . S
C2202 C2196 1.379 1_556 S
C2202 C2199 1.363 . S
C2202 N2200 1.356 . S
C2203 C2197 1.363 . S
C2203 C2198 1.379 1_554 S
C2203 N2201 1.356 . S
N2204 C2196 1.356 . S
N2204 H2210 0.984 . S
N2204 H2211 0.984 . S
N2205 C2198 1.356 . S
N2205 H2208 0.984 . S
N2205 H2209 0.985 . S
H2206 N2201 0.984 . S
H2207 N2201 0.985 . S
H2208 N2205 0.984 . S
H2209 N2205 0.985 . S
H2210 N2204 0.984 . S
H2211 N2204 0.984 . S
H2212 N2200 0.984 . S
H2213 N2200 0.985 . S
C2214 C2215 1.363 . S
C2214 C2220 1.379 . S
C2214 N2222 1.356 . S
C2215 C2214 1.363 . S
C2215 C2221 1.363 . S
C2216 C2217 1.363 . S
C2216 C2221 1.379 . S
C2216 N2223 1.356 . S
C2217 C2216 1.363 . S
C2217 C2220 1.363 . S
N2218 C2220 1.356 . S
N2218 H2230 0.984 . S
N2218 H2231 0.985 . S
N2219 C2221 1.356 . S
N2219 H2224 0.984 . S
N2219 H2225 0.985 . S
C2220 C2214 1.379 . S
C2220 C2217 1.363 . S
C2220 N2218 1.356 . S
C2221 C2215 1.363 . S
C2221 C2216 1.379 . S
C2221 N2219 1.356 . S
N2222 C2214 1.356 . S
N2222 H2228 0.984 . S
N2222 H2229 0.984 . S
N2223 C2216 1.356 . S
N2223 H2226 0.984 . S
N2223 H2227 0.985 . S
H2224 N2219 0.984 . S
H2225 N2219 0.985 . S
H2226 N2223 0.984 . S
H2227 N2223 0.985 . S
H2228 N2222 0.984 . S
H2229 N2222 0.984 . S
H2230 N2218 0.984 . S
H2231 N2218 0.985 . S
C2232 C2233 1.363 . S
C2232 C2238 1.379 . S
C2232 N2240 1.356 . S
C2233 C2232 1.363 . S
C2233 C2239 1.363 . S
C2234 C2235 1.363 . S
C2234 C2239 1.379 . S
C2234 N2241 1.356 . S
C2235 C2234 1.363 . S
C2235 C2238 1.363 . S
N2236 C2238 1.356 . S
N2236 H2248 0.984 . S
N2236 H2249 0.985 . S
N2237 C2239 1.356 . S
N2237 H2242 0.984 . S
N2237 H2243 0.985 . S
C2238 C2232 1.379 . S
C2238 C2235 1.363 . S
C2238 N2236 1.356 . S
C2239 C2233 1.363 . S
C2239 C2234 1.379 . S
C2239 N2237 1.356 . S
N2240 C2232 1.356 . S
N2240 H2246 0.984 . S
N2240 H2247 0.984 . S
N2241 C2234 1.356 . S
N2241 H2244 0.984 . S
N2241 H2245 0.985 . S
H2242 N2237 0.984 . S
H2243 N2237 0.985 . S
H2244 N2241 0.984 . S
H2245 N2241 0.985 . S
H2246 N2240 0.984 . S
H2247 N2240 0.984 . S
H2248 N2236 0.984 . S
H2249 N2236 0.985 . S
C2250 C2251 1.363 . S
C2250 C2256 1.379 . S
C2250 N2258 1.356 . S
C2251 C2250 1.363 . S
C2251 C2257 1.363 . S
C2252 C2253 1.363 . S
C2252 C2257 1.379 . S
C2252 N2259 1.356 . S
C2253 C2252 1.363 . S
C2253 C2256 1.363 . S
N2254 C2256 1.356 . S
N2254 H2266 0.984 . S
N2254 H2267 0.985 . S
N2255 C2257 1.356 . S
N2255 H2260 0.984 . S
N2255 H2261 0.985 . S
C2256 C2250 1.379 . S
C2256 C2253 1.363 . S
C2256 N2254 1.356 . S
C2257 C2251 1.363 . S
C2257 C2252 1.379 . S
C2257 N2255 1.356 . S
N2258 C2250 1.356 . S
N2258 H2264 0.984 . S
N2258 H2265 0.984 . S
N2259 C2252 1.356 . S
N2259 H2262 0.984 . S
N2259 H2263 0.985 . S
H2260 N2255 0.984 . S
H2261 N2255 0.985 . S
H2262 N2259 0.984 . S
H2263 N2259 0.985 . S
H2264 N2258 0.984 . S
H2265 N2258 0.984 . S
H2266 N2254 0.984 . S
H2267 N2254 0.985 . S
C2268 C2269 1.363 . S
C2268 C2274 1.379 . S
C2268 N2276 1.356 . S
C2269 C2268 1.363 . S
C2269 C2275 1.363 1_554 S
C2270 C2271 1.363 . S
C2270 C2275 1.379 . S
C2270 N2277 1.356 . S
C2271 C2270 1.363 . S
C2271 C2274 1.363 1_556 S
N2272 C2274 1.356 . S
N2272 H2284 0.984 . S
N2272 H2285 0.985 1_554 S
N2273 C2275 1.356 . S
N2273 H2278 0.984 1_556 S
N2273 H2279 0.985 . S
C2274 C2268 1.379 . S
C2274 C2271 1.363 1_554 S
C2274 N2272 1.356 . S
C2275 C2269 1.363 1_556 S
C2275 C2270 1.379 . S
C2275 N2273 1.356 . S
N2276 C2268 1.356 . S
N2276 H2282 0.984 . S
N2276 H2283 0.984 . S
N2277 C2270 1.356 . S
N2277 H2280 0.984 . S
N2277 H2281 0.985 . S
H2278 N2273 0.984 1_554 S
H2279 N2273 0.985 . S
H2280 N2277 0.984 . S
H2281 N2277 0.985 . S
H2282 N2276 0.984 . S
H2283 N2276 0.984 . S
H2284 N2272 0.984 . S
H2285 N2272 0.985 1_556 S
C2286 C2287 1.363 . S
C2286 C2292 1.379 . S
C2286 N2294 1.356 . S
C2287 C2286 1.363 . S
C2287 C2293 1.363 1_554 S
C2288 C2289 1.363 . S
C2288 C2293 1.379 . S
C2288 N2295 1.356 . S
C2289 C2288 1.363 . S
C2289 C2292 1.363 1_556 S
N2290 C2292 1.356 . S
N2290 H2302 0.984 . S
N2290 H2303 0.985 1_554 S
N2291 C2293 1.356 . S
N2291 H2296 0.984 1_556 S
N2291 H2297 0.985 . S
C2292 C2286 1.379 . S
C2292 C2289 1.363 1_554 S
C2292 N2290 1.356 . S
C2293 C2287 1.363 1_556 S
C2293 C2288 1.379 . S
C2293 N2291 1.356 . S
N2294 C2286 1.356 . S
N2294 H2300 0.984 . S
N2294 H2301 0.984 . S
N2295 C2288 1.356 . S
N2295 H2298 0.984 . S
N2295 H2299 0.985 . S
H2296 N2291 0.984 1_554 S
H2297 N2291 0.985 . S
H2298 N2295 0.984 . S
H2299 N2295 0.985 . S
H2300 N2294 0.984 . S
H2301 N2294 0.984 . S
H2302 N2290 0.984 . S
H2303 N2290 0.985 1_556 S
C2304 C2305 1.363 1_556 S
C2304 C2310 1.379 . S
C2304 N2312 1.356 . S
C2305 C2304 1.363 1_554 S
C2305 C2311 1.363 . S
C2306 C2307 1.380 . S
C2306 C2311 1.365 1_556 S
C2306 N2313 1.359 . S
C2307 C2306 1.380 . S
C2307 C2310 1.363 . S
N2308 C2310 1.356 . S
N2308 H2320 0.984 . S
N2308 H2321 0.985 . S
N2309 C2311 1.356 . S
N2309 H2314 0.984 . S
N2309 H2315 0.985 . S
C2310 C2304 1.379 . S
C2310 C2307 1.363 . S
C2310 N2308 1.356 . S
C2311 C2305 1.363 . S
C2311 C2306 1.365 1_554 S
C2311 N2309 1.356 . S
N2312 C2304 1.356 . S
N2312 H2318 0.984 . S
N2312 H2319 0.984 1_556 S
N2313 C2306 1.359 . S
N2313 H2316 0.984 . S
N2313 H2317 0.985 1_556 S
H2314 N2309 0.984 . S
H2315 N2309 0.985 . S
H2316 N2313 0.984 . S
H2317 N2313 0.985 1_554 S
H2318 N2312 0.984 . S
H2319 N2312 0.984 1_554 S
H2320 N2308 0.984 . S
H2321 N2308 0.985 . S
C2322 C2323 1.363 . S
C2322 C2328 1.379 . S
C2322 N2330 1.356 . S
C2323 C2322 1.363 . S
C2323 C2329 1.363 . S
C2324 C2325 1.363 . S
C2324 C2329 1.379 . S
C2324 N2331 1.356 . S
C2325 C2324 1.363 . S
C2325 C2328 1.363 . S
N2326 C2328 1.356 . S
N2326 H2338 0.984 . S
N2326 H2339 0.985 . S
N2327 C2329 1.356 . S
N2327 H2332 0.984 . S
N2327 H2333 0.985 . S
C2328 C2322 1.379 . S
C2328 C2325 1.363 . S
C2328 N2326 1.356 . S
C2329 C2323 1.363 . S
C2329 C2324 1.379 . S
C2329 N2327 1.356 . S
N2330 C2322 1.356 . S
N2330 H2336 0.984 . S
N2330 H2337 0.984 . S
N2331 C2324 1.356 . S
N2331 H2334 0.984 . S
N2331 H2335 0.985 . S
H2332 N2327 0.984 . S
H2333 N2327 0.985 . S
H2334 N2331 0.984 . S
H2335 N2331 0.985 . S
H2336 N2330 0.984 . S
H2337 N2330 0.984 . S
H2338 N2326 0.984 . S
H2339 N2326 0.985 . S
C2340 C2341 1.363 . S
C2340 C2346 1.379 . S
C2340 N2348 1.356 . S
C2341 C2340 1.363 . S
C2341 C2347 1.363 . S
C2342 C2343 1.363 . S
C2342 C2347 1.379 . S
C2342 N2349 1.356 . S
C2343 C2342 1.363 . S
C2343 C2346 1.363 . S
N2344 C2346 1.356 . S
N2344 H2356 0.984 . S
N2344 H2357 0.985 . S
N2345 C2347 1.356 . S
N2345 H2350 0.984 . S
N2345 H2351 0.985 . S
C2346 C2340 1.379 . S
C2346 C2343 1.363 . S
C2346 N2344 1.356 . S
C2347 C2341 1.363 . S
C2347 C2342 1.379 . S
C2347 N2345 1.356 . S
N2348 C2340 1.356 . S
N2348 H2354 0.984 . S
N2348 H2355 0.984 . S
N2349 C2342 1.356 . S
N2349 H2352 0.984 . S
N2349 H2353 0.985 . S
H2350 N2345 0.984 . S
H2351 N2345 0.985 . S
H2352 N2349 0.984 . S
H2353 N2349 0.985 . S
H2354 N2348 0.984 . S
H2355 N2348 0.984 . S
H2356 N2344 0.984 . S
H2357 N2344 0.985 . S
C2358 C2359 1.363 . S
C2358 C2364 1.379 . S
C2358 N2366 1.356 . S
C2359 C2358 1.363 . S
C2359 C2365 1.363 . S
C2360 C2361 1.363 . S
C2360 C2365 1.379 . S
C2360 N2367 1.356 . S
C2361 C2360 1.363 . S
C2361 C2364 1.363 . S
N2362 C2364 1.356 . S
N2362 H2374 0.984 . S
N2362 H2375 0.985 . S
N2363 C2365 1.356 . S
N2363 H2368 0.984 . S
N2363 H2369 0.985 . S
C2364 C2358 1.379 . S
C2364 C2361 1.363 . S
C2364 N2362 1.356 . S
C2365 C2359 1.363 . S
C2365 C2360 1.379 . S
C2365 N2363 1.356 . S
N2366 C2358 1.356 . S
N2366 H2372 0.984 . S
N2366 H2373 0.984 . S
N2367 C2360 1.356 . S
N2367 H2370 0.984 . S
N2367 H2371 0.985 . S
H2368 N2363 0.984 . S
H2369 N2363 0.985 . S
H2370 N2367 0.984 . S
H2371 N2367 0.985 . S
H2372 N2366 0.984 . S
H2373 N2366 0.984 . S
H2374 N2362 0.984 . S
H2375 N2362 0.985 . S
C2376 C2377 1.363 . S
C2376 C2382 1.379 . S
C2376 N2384 1.356 . S
C2377 C2376 1.363 . S
C2377 C2383 1.363 . S
C2378 C2379 1.363 . S
C2378 C2383 1.379 . S
C2378 N2385 1.356 . S
C2379 C2378 1.363 . S
C2379 C2382 1.363 . S
N2380 C2382 1.356 . S
N2380 H2392 0.984 . S
N2380 H2393 0.985 . S
N2381 C2383 1.356 . S
N2381 H2386 0.984 . S
N2381 H2387 0.985 . S
C2382 C2376 1.379 . S
C2382 C2379 1.363 . S
C2382 N2380 1.356 . S
C2383 C2377 1.363 . S
C2383 C2378 1.379 . S
C2383 N2381 1.356 . S
N2384 C2376 1.356 . S
N2384 H2390 0.984 . S
N2384 H2391 0.984 . S
N2385 C2378 1.356 . S
N2385 H2388 0.984 . S
N2385 H2389 0.985 . S
H2386 N2381 0.984 . S
H2387 N2381 0.985 . S
H2388 N2385 0.984 . S
H2389 N2385 0.985 . S
H2390 N2384 0.984 . S
H2391 N2384 0.984 . S
H2392 N2380 0.984 . S
H2393 N2380 0.985 . S
C2394 C2395 1.363 . S
C2394 C2400 1.379 . S
C2394 N2402 1.356 . S
C2395 C2394 1.363 . S
C2395 C2401 1.363 . S
C2396 C2397 1.363 . S
C2396 C2401 1.379 . S
C2396 N2403 1.356 . S
C2397 C2396 1.363 . S
C2397 C2400 1.363 . S
N2398 C2400 1.356 . S
N2398 H2410 0.984 . S
N2398 H2411 0.985 . S
N2399 C2401 1.356 . S
N2399 H2404 0.984 . S
N2399 H2405 0.985 . S
C2400 C2394 1.379 . S
C2400 C2397 1.363 . S
C2400 N2398 1.356 . S
C2401 C2395 1.363 . S
C2401 C2396 1.379 . S
C2401 N2399 1.356 . S
N2402 C2394 1.356 . S
N2402 H2408 0.984 . S
N2402 H2409 0.984 . S
N2403 C2396 1.356 . S
N2403 H2406 0.984 . S
N2403 H2407 0.985 . S
H2404 N2399 0.984 . S
H2405 N2399 0.985 . S
H2406 N2403 0.984 . S
H2407 N2403 0.985 . S
H2408 N2402 0.984 . S
H2409 N2402 0.984 . S
H2410 N2398 0.984 . S
H2411 N2398 0.985 . S
C2412 C2413 1.363 . S
C2412 C2418 1.379 . S
C2412 N2420 1.356 . S
C2413 C2412 1.363 . S
C2413 C2419 1.363 . S
C2414 C2415 1.363 . S
C2414 C2419 1.379 . S
C2414 N2421 1.356 . S
C2415 C2414 1.363 . S
C2415 C2418 1.363 . S
N2416 C2418 1.356 . S
N2416 H2428 0.984 . S
N2416 H2429 0.985 . S
N2417 C2419 1.356 . S
N2417 H2422 0.984 . S
N2417 H2423 0.985 . S
C2418 C2412 1.379 . S
C2418 C2415 1.363 . S
C2418 N2416 1.356 . S
C2419 C2413 1.363 . S
C2419 C2414 1.379 . S
C2419 N2417 1.356 . S
N2420 C2412 1.356 . S
N2420 H2426 0.984 . S
N2420 H2427 0.984 . S
N2421 C2414 1.356 . S
N2421 H2424 0.984 . S
N2421 H2425 0.985 . S
H2422 N2417 0.984 . S
H2423 N2417 0.985 . S
H2424 N2421 0.984 . S
H2425 N2421 0.985 . S
H2426 N2420 0.984 . S
H2427 N2420 0.984 . S
H2428 N2416 0.984 . S
H2429 N2416 0.985 . S
C2430 C2431 1.363 . S
C2430 C2436 1.379 . S
C2430 N2438 1.356 . S
C2431 C2430 1.363 . S
C2431 C2437 1.363 . S
C2432 C2433 1.363 . S
C2432 C2437 1.379 . S
C2432 N2439 1.356 . S
C2433 C2432 1.363 . S
C2433 C2436 1.363 . S
N2434 C2436 1.356 . S
N2434 H2446 0.984 . S
N2434 H2447 0.985 . S
N2435 C2437 1.356 . S
N2435 H2440 0.984 . S
N2435 H2441 0.985 . S
C2436 C2430 1.379 . S
C2436 C2433 1.363 . S
C2436 N2434 1.356 . S
C2437 C2431 1.363 . S
C2437 C2432 1.379 . S
C2437 N2435 1.356 . S
N2438 C2430 1.356 . S
N2438 H2444 0.984 . S
N2438 H2445 0.984 . S
N2439 C2432 1.356 . S
N2439 H2442 0.984 . S
N2439 H2443 0.985 . S
H2440 N2435 0.984 . S
H2441 N2435 0.985 . S
H2442 N2439 0.984 . S
H2443 N2439 0.985 . S
H2444 N2438 0.984 . S
H2445 N2438 0.984 . S
H2446 N2434 0.984 . S
H2447 N2434 0.985 . S
C2448 C2449 1.363 . S
C2448 C2454 1.379 . S
C2448 N2456 1.356 . S
C2449 C2448 1.363 . S
C2449 C2455 1.363 . S
C2450 C2451 1.363 . S
C2450 C2455 1.379 . S
C2450 N2457 1.356 . S
C2451 C2450 1.363 . S
C2451 C2454 1.363 . S
N2452 C2454 1.356 . S
N2452 H2464 0.984 . S
N2452 H2465 0.985 . S
N2453 C2455 1.356 . S
N2453 H2458 0.984 . S
N2453 H2459 0.985 . S
C2454 C2448 1.379 . S
C2454 C2451 1.363 . S
C2454 N2452 1.356 . S
C2455 C2449 1.363 . S
C2455 C2450 1.379 . S
C2455 N2453 1.356 . S
N2456 C2448 1.356 . S
N2456 H2462 0.984 . S
N2456 H2463 0.984 . S
N2457 C2450 1.356 . S
N2457 H2460 0.984 . S
N2457 H2461 0.985 . S
H2458 N2453 0.984 . S
H2459 N2453 0.985 . S
H2460 N2457 0.984 . S
H2461 N2457 0.985 . S
H2462 N2456 0.984 . S
H2463 N2456 0.984 . S
H2464 N2452 0.984 . S
H2465 N2452 0.985 . S
C2466 C2467 1.363 . S
C2466 C2472 1.379 . S
C2466 N2474 1.356 . S
C2467 C2466 1.363 . S
C2467 C2473 1.363 . S
C2468 C2469 1.363 . S
C2468 C2473 1.379 . S
C2468 N2475 1.356 . S
C2469 C2468 1.363 . S
C2469 C2472 1.363 . S
N2470 C2472 1.356 . S
N2470 H2482 0.984 . S
N2470 H2483 0.985 . S
N2471 C2473 1.356 . S
N2471 H2476 0.984 . S
N2471 H2477 0.985 . S
C2472 C2466 1.379 . S
C2472 C2469 1.363 . S
C2472 N2470 1.356 . S
C2473 C2467 1.363 . S
C2473 C2468 1.379 . S
C2473 N2471 1.356 . S
N2474 C2466 1.356 . S
N2474 H2480 0.984 . S
N2474 H2481 0.984 . S
N2475 C2468 1.356 . S
N2475 H2478 0.984 . S
N2475 H2479 0.985 . S
H2476 N2471 0.984 . S
H2477 N2471 0.985 . S
H2478 N2475 0.984 . S
H2479 N2475 0.985 . S
H2480 N2474 0.984 . S
H2481 N2474 0.984 . S
H2482 N2470 0.984 . S
H2483 N2470 0.985 . S
C2484 C2485 1.363 . S
C2484 C2490 1.379 . S
C2484 N2492 1.356 . S
C2485 C2484 1.363 . S
C2485 C2491 1.363 . S
C2486 C2487 1.363 . S
C2486 C2491 1.379 . S
C2486 N2493 1.356 . S
C2487 C2486 1.363 . S
C2487 C2490 1.363 . S
N2488 C2490 1.356 . S
N2488 H2500 0.984 . S
N2488 H2501 0.985 . S
N2489 C2491 1.356 . S
N2489 H2494 0.984 . S
N2489 H2495 0.985 . S
C2490 C2484 1.379 . S
C2490 C2487 1.363 . S
C2490 N2488 1.356 . S
C2491 C2485 1.363 . S
C2491 C2486 1.379 . S
C2491 N2489 1.356 . S
N2492 C2484 1.356 . S
N2492 H2498 0.984 . S
N2492 H2499 0.984 . S
N2493 C2486 1.356 . S
N2493 H2496 0.984 . S
N2493 H2497 0.985 . S
H2494 N2489 0.984 . S
H2495 N2489 0.985 . S
H2496 N2493 0.984 . S
H2497 N2493 0.985 . S
H2498 N2492 0.984 . S
H2499 N2492 0.984 . S
H2500 N2488 0.984 . S
H2501 N2488 0.985 . S
C2502 C2503 1.363 . S
C2502 C2508 1.379 . S
C2502 N2510 1.356 . S
C2503 C2502 1.363 . S
C2503 C2509 1.363 . S
C2504 C2505 1.363 . S
C2504 C2509 1.379 . S
C2504 N2511 1.356 . S
C2505 C2504 1.363 . S
C2505 C2508 1.363 . S
N2506 C2508 1.356 . S
N2506 H2518 0.984 . S
N2506 H2519 0.985 . S
N2507 C2509 1.356 . S
N2507 H2512 0.984 . S
N2507 H2513 0.985 . S
C2508 C2502 1.379 . S
C2508 C2505 1.363 . S
C2508 N2506 1.356 . S
C2509 C2503 1.363 . S
C2509 C2504 1.379 . S
C2509 N2507 1.356 . S
N2510 C2502 1.356 . S
N2510 H2516 0.984 . S
N2510 H2517 0.984 . S
N2511 C2504 1.356 . S
N2511 H2514 0.984 . S
N2511 H2515 0.985 . S
H2512 N2507 0.984 . S
H2513 N2507 0.985 . S
H2514 N2511 0.984 . S
H2515 N2511 0.985 . S
H2516 N2510 0.984 . S
H2517 N2510 0.984 . S
H2518 N2506 0.984 . S
H2519 N2506 0.985 . S
C2520 C2521 1.363 . S
C2520 C2526 1.379 . S
C2520 N2528 1.356 . S
C2521 C2520 1.363 . S
C2521 C2527 1.363 . S
C2522 C2523 1.363 . S
C2522 C2527 1.379 . S
C2522 N2529 1.356 . S
C2523 C2522 1.363 . S
C2523 C2526 1.363 . S
N2524 C2526 1.356 . S
N2524 H2536 0.984 . S
N2524 H2537 0.985 . S
N2525 C2527 1.356 . S
N2525 H2530 0.984 . S
N2525 H2531 0.985 . S
C2526 C2520 1.379 . S
C2526 C2523 1.363 . S
C2526 N2524 1.356 . S
C2527 C2521 1.363 . S
C2527 C2522 1.379 . S
C2527 N2525 1.356 . S
N2528 C2520 1.356 . S
N2528 H2534 0.984 . S
N2528 H2535 0.984 . S
N2529 C2522 1.356 . S
N2529 H2532 0.984 . S
N2529 H2533 0.985 . S
H2530 N2525 0.984 . S
H2531 N2525 0.985 . S
H2532 N2529 0.984 . S
H2533 N2529 0.985 . S
H2534 N2528 0.984 . S
H2535 N2528 0.984 . S
H2536 N2524 0.984 . S
H2537 N2524 0.985 . S
C2538 C2539 1.363 . S
C2538 C2544 1.379 . S
C2538 N2546 1.356 . S
C2539 C2538 1.363 . S
C2539 C2545 1.363 . S
C2540 C2541 1.363 . S
C2540 C2545 1.379 . S
C2540 N2547 1.356 . S
C2541 C2540 1.363 . S
C2541 C2544 1.363 . S
N2542 C2544 1.356 . S
N2542 H2554 0.984 . S
N2542 H2555 0.985 . S
N2543 C2545 1.356 . S
N2543 H2548 0.984 . S
N2543 H2549 0.985 . S
C2544 C2538 1.379 . S
C2544 C2541 1.363 . S
C2544 N2542 1.356 . S
C2545 C2539 1.363 . S
C2545 C2540 1.379 . S
C2545 N2543 1.356 . S
N2546 C2538 1.356 . S
N2546 H2552 0.984 . S
N2546 H2553 0.984 . S
N2547 C2540 1.356 . S
N2547 H2550 0.984 . S
N2547 H2551 0.985 . S
H2548 N2543 0.984 . S
H2549 N2543 0.985 . S
H2550 N2547 0.984 . S
H2551 N2547 0.985 . S
H2552 N2546 0.984 . S
H2553 N2546 0.984 . S
H2554 N2542 0.984 . S
H2555 N2542 0.985 . S
C2556 C2557 1.363 . S
C2556 C2562 1.379 . S
C2556 N2564 1.356 . S
C2557 C2556 1.363 . S
C2557 C2563 1.363 . S
C2558 C2559 1.363 . S
C2558 C2563 1.379 . S
C2558 N2565 1.356 . S
C2559 C2558 1.363 . S
C2559 C2562 1.363 . S
N2560 C2562 1.356 . S
N2560 H2572 0.984 . S
N2560 H2573 0.985 . S
N2561 C2563 1.356 . S
N2561 H2566 0.984 . S
N2561 H2567 0.985 . S
C2562 C2556 1.379 . S
C2562 C2559 1.363 . S
C2562 N2560 1.356 . S
C2563 C2557 1.363 . S
C2563 C2558 1.379 . S
C2563 N2561 1.356 . S
N2564 C2556 1.356 . S
N2564 H2570 0.984 . S
N2564 H2571 0.984 . S
N2565 C2558 1.356 . S
N2565 H2568 0.984 . S
N2565 H2569 0.985 . S
H2566 N2561 0.984 . S
H2567 N2561 0.985 . S
H2568 N2565 0.984 . S
H2569 N2565 0.985 . S
H2570 N2564 0.984 . S
H2571 N2564 0.984 . S
H2572 N2560 0.984 . S
H2573 N2560 0.985 . S
C2574 C2575 1.363 . S
C2574 C2580 1.379 . S
C2574 N2582 1.356 . S
C2575 C2574 1.363 . S
C2575 C2581 1.363 . S
C2576 C2577 1.363 . S
C2576 C2581 1.379 . S
C2576 N2583 1.356 . S
C2577 C2576 1.363 . S
C2577 C2580 1.363 . S
N2578 C2580 1.356 . S
N2578 H2590 0.984 . S
N2578 H2591 0.985 . S
N2579 C2581 1.356 . S
N2579 H2584 0.984 . S
N2579 H2585 0.985 . S
C2580 C2574 1.379 . S
C2580 C2577 1.363 . S
C2580 N2578 1.356 . S
C2581 C2575 1.363 . S
C2581 C2576 1.379 . S
C2581 N2579 1.356 . S
N2582 C2574 1.356 . S
N2582 H2588 0.984 . S
N2582 H2589 0.984 . S
N2583 C2576 1.356 . S
N2583 H2586 0.984 . S
N2583 H2587 0.985 . S
H2584 N2579 0.984 . S
H2585 N2579 0.985 . S
H2586 N2583 0.984 . S
H2587 N2583 0.985 . S
H2588 N2582 0.984 . S
H2589 N2582 0.984 . S
H2590 N2578 0.984 . S
H2591 N2578 0.985 . S
C2592 C2593 1.363 . S
C2592 C2598 1.379 . S
C2592 N2600 1.356 . S
C2593 C2592 1.363 . S
C2593 C2599 1.363 . S
C2594 C2595 1.363 . S
C2594 C2599 1.379 . S
C2594 N2601 1.356 . S
C2595 C2594 1.363 . S
C2595 C2598 1.363 . S
N2596 C2598 1.356 . S
N2596 H2608 0.984 . S
N2596 H2609 0.985 . S
N2597 C2599 1.356 . S
N2597 H2602 0.984 . S
N2597 H2603 0.985 . S
C2598 C2592 1.379 . S
C2598 C2595 1.363 . S
C2598 N2596 1.356 . S
C2599 C2593 1.363 . S
C2599 C2594 1.379 . S
C2599 N2597 1.356 . S
N2600 C2592 1.356 . S
N2600 H2606 0.984 . S
N2600 H2607 0.984 . S
N2601 C2594 1.356 . S
N2601 H2604 0.984 . S
N2601 H2605 0.985 . S
H2602 N2597 0.984 . S
H2603 N2597 0.985 . S
H2604 N2601 0.984 . S
H2605 N2601 0.985 . S
H2606 N2600 0.984 . S
H2607 N2600 0.984 . S
H2608 N2596 0.984 . S
H2609 N2596 0.985 . S
C2610 C2611 1.363 . S
C2610 C2616 1.379 . S
C2610 N2618 1.356 . S
C2611 C2610 1.363 . S
C2611 C2617 1.363 . S
C2612 C2613 1.363 . S
C2612 C2617 1.379 . S
C2612 N2619 1.356 . S
C2613 C2612 1.363 . S
C2613 C2616 1.363 . S
N2614 C2616 1.356 . S
N2614 H2626 0.984 . S
N2614 H2627 0.985 . S
N2615 C2617 1.356 . S
N2615 H2620 0.984 . S
N2615 H2621 0.985 . S
C2616 C2610 1.379 . S
C2616 C2613 1.363 . S
C2616 N2614 1.356 . S
C2617 C2611 1.363 . S
C2617 C2612 1.379 . S
C2617 N2615 1.356 . S
N2618 C2610 1.356 . S
N2618 H2624 0.984 . S
N2618 H2625 0.984 . S
N2619 C2612 1.356 . S
N2619 H2622 0.984 . S
N2619 H2623 0.985 . S
H2620 N2615 0.984 . S
H2621 N2615 0.985 . S
H2622 N2619 0.984 . S
H2623 N2619 0.985 . S
H2624 N2618 0.984 . S
H2625 N2618 0.984 . S
H2626 N2614 0.984 . S
H2627 N2614 0.985 . S
C2628 C2629 1.363 . S
C2628 C2634 1.379 . S
C2628 N2636 1.356 . S
C2629 C2628 1.363 . S
C2629 C2635 1.363 . S
C2630 C2631 1.363 . S
C2630 C2635 1.379 . S
C2630 N2637 1.356 . S
C2631 C2630 1.363 . S
C2631 C2634 1.363 . S
N2632 C2634 1.356 . S
N2632 H2644 0.984 . S
N2632 H2645 0.985 . S
N2633 C2635 1.356 . S
N2633 H2638 0.984 . S
N2633 H2639 0.985 . S
C2634 C2628 1.379 . S
C2634 C2631 1.363 . S
C2634 N2632 1.356 . S
C2635 C2629 1.363 . S
C2635 C2630 1.379 . S
C2635 N2633 1.356 . S
N2636 C2628 1.356 . S
N2636 H2642 0.984 . S
N2636 H2643 0.984 . S
N2637 C2630 1.356 . S
N2637 H2640 0.984 . S
N2637 H2641 0.985 . S
H2638 N2633 0.984 . S
H2639 N2633 0.985 . S
H2640 N2637 0.984 . S
H2641 N2637 0.985 . S
H2642 N2636 0.984 . S
H2643 N2636 0.984 . S
H2644 N2632 0.984 . S
H2645 N2632 0.985 . S
C2646 C2647 1.363 . S
C2646 C2652 1.379 . S
C2646 N2654 1.356 . S
C2647 C2646 1.363 . S
C2647 C2653 1.363 . S
C2648 C2649 1.363 . S
C2648 C2653 1.379 . S
C2648 N2655 1.356 . S
C2649 C2648 1.363 . S
C2649 C2652 1.363 . S
N2650 C2652 1.356 . S
N2650 H2662 0.984 . S
N2650 H2663 0.985 . S
N2651 C2653 1.356 . S
N2651 H2656 0.984 . S
N2651 H2657 0.985 . S
C2652 C2646 1.379 . S
C2652 C2649 1.363 . S
C2652 N2650 1.356 . S
C2653 C2647 1.363 . S
C2653 C2648 1.379 . S
C2653 N2651 1.356 . S
N2654 C2646 1.356 . S
N2654 H2660 0.984 . S
N2654 H2661 0.984 . S
N2655 C2648 1.356 . S
N2655 H2658 0.984 . S
N2655 H2659 0.985 . S
H2656 N2651 0.984 . S
H2657 N2651 0.985 . S
H2658 N2655 0.984 . S
H2659 N2655 0.985 . S
H2660 N2654 0.984 . S
H2661 N2654 0.984 . S
H2662 N2650 0.984 . S
H2663 N2650 0.985 . S
C2664 C2665 1.363 . S
C2664 C2670 1.379 . S
C2664 N2672 1.356 . S
C2665 C2664 1.363 . S
C2665 C2671 1.363 . S
C2666 C2667 1.363 . S
C2666 C2671 1.379 . S
C2666 N2673 1.356 . S
C2667 C2666 1.363 . S
C2667 C2670 1.363 . S
N2668 C2670 1.356 . S
N2668 H2680 0.984 . S
N2668 H2681 0.985 . S
N2669 C2671 1.356 . S
N2669 H2674 0.984 . S
N2669 H2675 0.985 . S
C2670 C2664 1.379 . S
C2670 C2667 1.363 . S
C2670 N2668 1.356 . S
C2671 C2665 1.363 . S
C2671 C2666 1.379 . S
C2671 N2669 1.356 . S
N2672 C2664 1.356 . S
N2672 H2678 0.984 . S
N2672 H2679 0.984 . S
N2673 C2666 1.356 . S
N2673 H2676 0.984 . S
N2673 H2677 0.985 . S
H2674 N2669 0.984 . S
H2675 N2669 0.985 . S
H2676 N2673 0.984 . S
H2677 N2673 0.985 . S
H2678 N2672 0.984 . S
H2679 N2672 0.984 . S
H2680 N2668 0.984 . S
H2681 N2668 0.985 . S
C2682 C2683 1.363 . S
C2682 C2688 1.379 . S
C2682 N2690 1.356 . S
C2683 C2682 1.363 . S
C2683 C2689 1.363 . S
C2684 C2685 1.363 . S
C2684 C2689 1.379 . S
C2684 N2691 1.356 . S
C2685 C2684 1.363 . S
C2685 C2688 1.363 . S
N2686 C2688 1.356 . S
N2686 H2698 0.984 . S
N2686 H2699 0.985 . S
N2687 C2689 1.356 . S
N2687 H2692 0.984 . S
N2687 H2693 0.985 . S
C2688 C2682 1.379 . S
C2688 C2685 1.363 . S
C2688 N2686 1.356 . S
C2689 C2683 1.363 . S
C2689 C2684 1.379 . S
C2689 N2687 1.356 . S
N2690 C2682 1.356 . S
N2690 H2696 0.984 . S
N2690 H2697 0.984 . S
N2691 C2684 1.356 . S
N2691 H2694 0.984 . S
N2691 H2695 0.985 . S
H2692 N2687 0.984 . S
H2693 N2687 0.985 . S
H2694 N2691 0.984 . S
H2695 N2691 0.985 . S
H2696 N2690 0.984 . S
H2697 N2690 0.984 . S
H2698 N2686 0.984 . S
H2699 N2686 0.985 . S
C2700 C2701 1.363 . S
C2700 C2706 1.379 . S
C2700 N2708 1.356 . S
C2701 C2700 1.363 . S
C2701 C2707 1.363 . S
C2702 C2703 1.363 . S
C2702 C2707 1.379 . S
C2702 N2709 1.356 . S
C2703 C2702 1.363 . S
C2703 C2706 1.363 . S
N2704 C2706 1.356 . S
N2704 H2716 0.984 . S
N2704 H2717 0.985 . S
N2705 C2707 1.356 . S
N2705 H2710 0.984 . S
N2705 H2711 0.985 . S
C2706 C2700 1.379 . S
C2706 C2703 1.363 . S
C2706 N2704 1.356 . S
C2707 C2701 1.363 . S
C2707 C2702 1.379 . S
C2707 N2705 1.356 . S
N2708 C2700 1.356 . S
N2708 H2714 0.984 . S
N2708 H2715 0.984 . S
N2709 C2702 1.356 . S
N2709 H2712 0.984 . S
N2709 H2713 0.985 . S
H2710 N2705 0.984 . S
H2711 N2705 0.985 . S
H2712 N2709 0.984 . S
H2713 N2709 0.985 . S
H2714 N2708 0.984 . S
H2715 N2708 0.984 . S
H2716 N2704 0.984 . S
H2717 N2704 0.985 . S
C2718 C2719 1.363 . S
C2718 C2724 1.379 . S
C2718 N2726 1.356 . S
C2719 C2718 1.363 . S
C2719 C2725 1.363 . S
C2720 C2721 1.363 . S
C2720 C2725 1.379 . S
C2720 N2727 1.356 . S
C2721 C2720 1.363 . S
C2721 C2724 1.363 . S
N2722 C2724 1.356 . S
N2722 H2734 0.984 . S
N2722 H2735 0.985 . S
N2723 C2725 1.356 . S
N2723 H2728 0.984 . S
N2723 H2729 0.985 . S
C2724 C2718 1.379 . S
C2724 C2721 1.363 . S
C2724 N2722 1.356 . S
C2725 C2719 1.363 . S
C2725 C2720 1.379 . S
C2725 N2723 1.356 . S
N2726 C2718 1.356 . S
N2726 H2732 0.984 . S
N2726 H2733 0.984 . S
N2727 C2720 1.356 . S
N2727 H2730 0.984 . S
N2727 H2731 0.985 . S
H2728 N2723 0.984 . S
H2729 N2723 0.985 . S
H2730 N2727 0.984 . S
H2731 N2727 0.985 . S
H2732 N2726 0.984 . S
H2733 N2726 0.984 . S
H2734 N2722 0.984 . S
H2735 N2722 0.985 . S
C2736 C2737 1.363 . S
C2736 C2742 1.379 . S
C2736 N2744 1.356 . S
C2737 C2736 1.363 . S
C2737 C2743 1.363 . S
C2738 C2739 1.363 . S
C2738 C2743 1.379 . S
C2738 N2745 1.356 . S
C2739 C2738 1.363 . S
C2739 C2742 1.363 . S
N2740 C2742 1.356 . S
N2740 H2752 0.984 . S
N2740 H2753 0.985 . S
N2741 C2743 1.356 . S
N2741 H2746 0.984 . S
N2741 H2747 0.985 . S
C2742 C2736 1.379 . S
C2742 C2739 1.363 . S
C2742 N2740 1.356 . S
C2743 C2737 1.363 . S
C2743 C2738 1.379 . S
C2743 N2741 1.356 . S
N2744 C2736 1.356 . S
N2744 H2750 0.984 . S
N2744 H2751 0.984 . S
N2745 C2738 1.356 . S
N2745 H2748 0.984 . S
N2745 H2749 0.985 . S
H2746 N2741 0.984 . S
H2747 N2741 0.985 . S
H2748 N2745 0.984 . S
H2749 N2745 0.985 . S
H2750 N2744 0.984 . S
H2751 N2744 0.984 . S
H2752 N2740 0.984 . S
H2753 N2740 0.985 . S
C2754 C2755 1.363 . S
C2754 C2760 1.379 . S
C2754 N2762 1.356 . S
C2755 C2754 1.363 . S
C2755 C2761 1.363 . S
C2756 C2757 1.363 . S
C2756 C2761 1.379 . S
C2756 N2763 1.356 . S
C2757 C2756 1.363 . S
C2757 C2760 1.363 . S
N2758 C2760 1.356 . S
N2758 H2770 0.984 . S
N2758 H2771 0.985 . S
N2759 C2761 1.356 . S
N2759 H2764 0.984 . S
N2759 H2765 0.985 . S
C2760 C2754 1.379 . S
C2760 C2757 1.363 . S
C2760 N2758 1.356 . S
C2761 C2755 1.363 . S
C2761 C2756 1.379 . S
C2761 N2759 1.356 . S
N2762 C2754 1.356 . S
N2762 H2768 0.984 . S
N2762 H2769 0.984 . S
N2763 C2756 1.356 . S
N2763 H2766 0.984 . S
N2763 H2767 0.985 . S
H2764 N2759 0.984 . S
H2765 N2759 0.985 . S
H2766 N2763 0.984 . S
H2767 N2763 0.985 . S
H2768 N2762 0.984 . S
H2769 N2762 0.984 . S
H2770 N2758 0.984 . S
H2771 N2758 0.985 . S
C2772 C2773 1.363 . S
C2772 C2778 1.379 . S
C2772 N2780 1.356 . S
C2773 C2772 1.363 . S
C2773 C2779 1.363 . S
C2774 C2775 1.363 . S
C2774 C2779 1.379 . S
C2774 N2781 1.356 . S
C2775 C2774 1.363 . S
C2775 C2778 1.363 . S
N2776 C2778 1.356 . S
N2776 H2788 0.984 . S
N2776 H2789 0.985 . S
N2777 C2779 1.356 . S
N2777 H2782 0.984 . S
N2777 H2783 0.985 . S
C2778 C2772 1.379 . S
C2778 C2775 1.363 . S
C2778 N2776 1.356 . S
C2779 C2773 1.363 . S
C2779 C2774 1.379 . S
C2779 N2777 1.356 . S
N2780 C2772 1.356 . S
N2780 H2786 0.984 . S
N2780 H2787 0.984 . S
N2781 C2774 1.356 . S
N2781 H2784 0.984 . S
N2781 H2785 0.985 . S
H2782 N2777 0.984 . S
H2783 N2777 0.985 . S
H2784 N2781 0.984 . S
H2785 N2781 0.985 . S
H2786 N2780 0.984 . S
H2787 N2780 0.984 . S
H2788 N2776 0.984 . S
H2789 N2776 0.985 . S
C2790 C2791 1.363 . S
C2790 C2796 1.379 . S
C2790 N2798 1.356 . S
C2791 C2790 1.363 . S
C2791 C2797 1.363 . S
C2792 C2793 1.363 . S
C2792 C2797 1.379 . S
C2792 N2799 1.356 . S
C2793 C2792 1.363 . S
C2793 C2796 1.363 . S
N2794 C2796 1.356 . S
N2794 H2806 0.984 . S
N2794 H2807 0.985 . S
N2795 C2797 1.356 . S
N2795 H2800 0.984 . S
N2795 H2801 0.985 . S
C2796 C2790 1.379 . S
C2796 C2793 1.363 . S
C2796 N2794 1.356 . S
C2797 C2791 1.363 . S
C2797 C2792 1.379 . S
C2797 N2795 1.356 . S
N2798 C2790 1.356 . S
N2798 H2804 0.984 . S
N2798 H2805 0.984 . S
N2799 C2792 1.356 . S
N2799 H2802 0.984 . S
N2799 H2803 0.985 . S
H2800 N2795 0.984 . S
H2801 N2795 0.985 . S
H2802 N2799 0.984 . S
H2803 N2799 0.985 . S
H2804 N2798 0.984 . S
H2805 N2798 0.984 . S
H2806 N2794 0.984 . S
H2807 N2794 0.985 . S
C1189 C120 0.732 . S
C1191 C21 0.732 . S
C1207 C54 0.732 1_565 S
C1209 C153 0.732 1_545 S
C1225 C186 0.732 1_655 S
C1227 C87 0.732 1_455 S
C1243 C318 0.732 . S
C1245 C219 0.732 . S
C1261 C252 0.732 1_545 S
C1263 C351 0.732 1_565 S
C1279 C384 0.732 1_455 S
C1281 C285 0.732 1_655 S
C1297 C516 0.732 . S
C1299 C417 0.732 . S
C1315 C450 0.732 . S
C1317 C549 0.732 . S
C1333 C582 0.732 . S
C1335 C483 0.732 . S
C1351 C615 0.732 . S
C1353 C714 0.732 . S
C1369 C648 0.732 . S
C1371 C747 0.732 . S
C1387 C780 0.732 . S
C1389 C681 0.732 . S
C1405 C912 0.732 . S
C1407 C813 0.732 . S
C1423 C945 0.732 . S
C1425 C846 0.732 . S
C1441 C978 0.732 . S
C1443 C879 0.732 . S
C1459 C1110 0.732 . S
C1461 C1011 0.732 . S
C1477 C1044 0.732 . S
C1479 C1143 0.732 . S
C1495 C1176 0.732 . S
C1497 C1077 0.732 . S
C1513 C7 1.782 . S
C1515 C964 1.782 . S
C1531 C898 1.782 . S
C1533 C40 1.782 1_565 S
C1549 C73 1.782 1_455 S
C1551 C931 1.782 . S
C1567 C436 1.782 . S
C1569 C106 1.782 . S
C1585 C139 1.782 1_545 S
C1587 C469 1.782 . S
C1603 C403 1.782 . S
C1605 C172 1.782 1_655 S
C1621 C766 1.782 . S
C1623 C205 1.782 . S
C1639 C700 1.782 . S
C1641 C238 1.782 1_545 S
C1657 C733 1.782 . S
C1659 C271 1.782 1_655 S
C1675 C304 1.782 . S
C1677 C1030 1.782 . S
C1693 C1063 1.782 . S
C1695 C337 1.782 1_565 S
C1711 C370 1.782 1_455 S
C1713 C997 1.782 . S
C1729 C832 1.782 . S
C1731 C502 1.782 . S
C1747 C865 1.782 . S
C1749 C535 1.782 . S
C1765 C799 1.782 . S
C1767 C568 1.782 . S
C1783 C601 1.782 . S
C1785 C1162 1.782 . S
C1801 C634 1.782 . S
C1803 C1096 1.782 . S
C1819 C1129 1.782 . S
C1821 C667 1.782 . S
C1837 N13 1.389 . S
C1839 N607 1.389 . S
C1855 N640 1.389 . S
C1857 N46 1.389 . S
C1873 N79 1.389 . S
C1875 N673 1.389 . S
C1891 N1102 1.389 . S
C1893 N112 1.389 . S
C1909 N145 1.389 . S
C1911 N1135 1.389 . S
C1927 N1168 1.389 . S
C1929 N178 1.389 . S
C1945 N211 1.389 . S
C1947 N805 1.389 . S
C1963 N244 1.389 . S
C1965 N838 1.389 . S
C1981 N277 1.389 . S
C1983 N871 1.389 . S
C1999 N508 1.389 . S
C2001 N310 1.389 . S
C2017 N541 1.389 . S
C2019 N343 1.389 . S
C2035 N376 1.389 . S
C2037 N574 1.389 . S
C2053 N409 1.389 . S
C2055 N1003 1.389 . S
C2071 N1036 1.389 . S
C2073 N442 1.389 . S
C2089 N475 1.389 . S
C2091 N1069 1.389 . S
C2107 N904 1.389 . S
C2109 N706 1.389 . S
C2125 N739 1.389 . S
C2127 N937 1.389 . S
C2143 N970 1.389 . S
C2145 N772 1.389 . S
C2161 N233 1.531 . S
C2163 C18 1.613 . S
C2179 C51 1.612 . S
C2181 N266 1.531 . S
C2197 C84 1.613 . S
C2199 N200 1.531 . S
C2215 C117 1.613 . S
C2217 N365 1.531 . S
C2233 C150 1.612 . S
C2235 N299 1.531 . S
C2251 C183 1.612 . S
C2253 N332 1.531 . S
C2269 N35 1.531 . S
C2271 C216 1.613 . S
C2287 N68 1.531 . S
C2289 C249 1.612 . S
C2305 N2 1.531 . S
C2307 C282 1.613 . S
C2323 C315 1.613 . S
C2325 N167 1.531 . S
C2341 C348 1.612 . S
C2343 N101 1.531 . S
C2359 C381 1.612 . S
C2361 N134 1.531 . S
C2377 C414 1.613 . S
C2379 N629 1.531 . S
C2395 N662 1.531 . S
C2397 C447 1.612 . S
C2413 N596 1.531 . S
C2415 C480 1.612 . S
C2431 C513 1.613 . S
C2433 N761 1.531 . S
C2449 N695 1.531 . S
C2451 C546 1.613 . S
C2467 N728 1.531 . S
C2469 C579 1.612 . S
C2485 C612 1.613 . S
C2487 N431 1.531 . S
C2503 C645 1.612 . S
C2505 N464 1.531 . S
C2521 N398 1.531 . S
C2523 C678 1.613 . S
C2539 N563 1.531 . S
C2541 C711 1.613 . S
C2557 N497 1.531 . S
C2559 C744 1.612 . S
C2575 N530 1.531 . S
C2577 C777 1.612 . S
C2593 C810 1.613 . S
C2595 N1025 1.531 . S
C2611 N1058 1.531 . S
C2613 C843 1.612 . S
C2629 N992 1.531 . S
C2631 C876 1.613 . S
C2647 C909 1.613 . S
C2649 N1157 1.531 . S
C2665 C942 1.612 . S
C2667 N1091 1.531 . S
C2683 C975 1.612 . S
C2685 N1124 1.531 . S
C2701 N827 1.531 . S
C2703 C1008 1.613 . S
C2719 N860 1.531 . S
C2721 C1041 1.612 . S
C2737 C1074 1.612 . S
C2739 N794 1.531 . S
C2755 C1107 1.613 . S
C2757 N959 1.531 . S
C2773 C1140 1.613 . S
C2775 N893 1.531 . S
C2791 C1173 1.612 . S
C2793 N926 1.531 . S
