# Generated by pormake.
# Topology rob, (6)-cn, num edge types: 1
# Building blocks:
#     Node 0, Type 0, BuildingBlock: KUMJIN_clean_sbu_1, # of connection points: 6
#     Node 1, Type 0, BuildingBlock: KUMJIN_clean_sbu_1, # of connection points: 6
#     Node 2, Type 0, BuildingBlock: KUMJIN_clean_sbu_1, # of connection points: 6
#     Node 3, Type 0, BuildingBlock: KUMJIN_clean_sbu_1, # of connection points: 6
#     Edge 4, Type (0, 0), BuildingBlock: TEMPAE_clean_linker_10, # of connection points: 2
#     Edge 5, Type (0, 0), BuildingBlock: TEMPAE_clean_linker_10, # of connection points: 2
#     Edge 6, Type (0, 0), BuildingBlock: TEMPAE_clean_linker_10, # of connection points: 2
#     Edge 7, Type (0, 0), BuildingBlock: TEMPAE_clean_linker_10, # of connection points: 2
#     Edge 8, Type (0, 0), BuildingBlock: TEMPAE_clean_linker_10, # of connection points: 2
#     Edge 9, Type (0, 0), BuildingBlock: TEMPAE_clean_linker_10, # of connection points: 2
#     Edge 10, Type (0, 0), BuildingBlock: TEMPAE_clean_linker_10, # of connection points: 2
#     Edge 11, Type (0, 0), BuildingBlock: TEMPAE_clean_linker_10, # of connection points: 2
#     Edge 12, Type (0, 0), BuildingBlock: TEMPAE_clean_linker_10, # of connection points: 2
#     Edge 13, Type (0, 0), BuildingBlock: TEMPAE_clean_linker_10, # of connection points: 2
#     Edge 14, Type (0, 0), BuildingBlock: TEMPAE_clean_linker_10, # of connection points: 2
#     Edge 15, Type (0, 0), BuildingBlock: TEMPAE_clean_linker_10, # of connection points: 2
# Relax obj value: 0.020
# Max RMSD: 0.111
# Mean RMSD: 0.111
data_MOF--net-rob--node1-KUMJIN_clean_sbu_1--edge1-TEMPAE_clean_linker_10
_symmetry_space_group_name_H-M    P1
_symmetry_Int_Tables_number       1
_symmetry_cell_setting            triclinic
loop_
_symmetry_equiv_pos_as_xyz
'x, y, z'
_cell_length_a     19.107062
_cell_length_b     23.46473
_cell_length_c     34.467749
_cell_angle_alpha  109.61802
_cell_angle_beta   89.949474
_cell_angle_gamma 89.94377
loop_
_atom_site_label
_atom_site_type_symbol
_atom_site_fract_x
_atom_site_fract_y
_atom_site_fract_z
_atom_type_partial_charge
Eu0 Eu 0.32069 0.18767 0.96427 0.0
C1 C 0.14639 0.43684 0.07664 0.0
N2 N 0.20289 0.40879 0.08601 0.0
C3 C 0.24713 0.5035 0.1307 0.0
C4 C 0.13862 0.50008 0.09385 0.0
C5 C 0.25241 0.44057 0.11312 0.0
C6 C 0.19018 0.53346 0.12084 0.0
C7 C 0.03312 0.42966 0.04334 0.0
C8 C 0.09399 0.40188 0.05176 0.0
C9 C 0.02622 0.49276 0.05958 0.0
C10 C 0.07876 0.52774 0.0847 0.0
Eu11 Eu 0.20529 0.30305 0.05664 0.0
N12 N 0.10104 0.34067 0.03736 0.0
C13 C 0.98002 0.39308 0.01981 0.0
C14 C 0.04825 0.30464 0.0157 0.0
C15 C 0.98761 0.3303 1.00596 0.0
H16 H 0.29616 0.41725 0.1209 0.0
H17 H 0.94666 0.30163 0.98796 0.0
H18 H 0.2691 0.04217 0.92777 0.0
H19 H 0.5635 0.28503 0.04478 0.0
H20 H 0.05402 0.25618 1.00457 0.0
H21 H 0.93247 0.41282 0.01282 0.0
H22 H 0.44271 0.28755 0.02238 0.0
H23 H 0.28672 0.5288 0.15194 0.0
H24 H 0.97957 0.51486 0.05377 0.0
H25 H 0.0716 0.57596 0.0979 0.0
H26 H 0.31713 0.94126 0.92019 0.0
H27 H 0.18579 0.58215 0.13482 0.0
H28 H 0.62423 0.18703 0.03028 0.0
N29 N 0.35993 0.08937 0.95704 0.0
C30 C 0.42696 0.08516 0.96888 0.0
C31 C 0.34847 0.98135 0.93407 0.0
C32 C 0.45778 0.02819 0.96289 0.0
C33 C 0.32082 0.03862 0.9393 0.0
C34 C 0.4173 0.9761 0.94593 0.0
N35 N 0.43309 0.19245 0.9946 0.0
C36 C 0.46774 0.24466 0.01521 0.0
C37 C 0.53479 0.1344 0.99977 0.0
C38 C 0.46483 0.13792 0.98756 0.0
C39 C 0.57067 0.18796 0.0202 0.0
C40 C 0.53663 0.24329 0.0284 0.0
H41 H 0.43892 0.93174 0.94171 0.0
H42 H 0.55222 0.98149 0.96968 0.0
H43 H 0.62071 0.07427 0.99998 0.0
O44 O 0.38629 0.20918 0.91889 0.0
O45 O 0.32707 0.18011 0.02829 0.0
O46 O 0.31668 0.27972 0.06718 0.0
O47 O 0.32702 0.12626 0.90074 0.0
O48 O 0.32866 0.28906 0.97627 0.0
O49 O 0.31058 0.33781 0.04589 0.0
O50 O 0.19019 0.25091 0.09832 0.0
O51 O 0.18529 0.30585 0.99216 0.0
O52 O 0.21299 0.21101 0.94612 0.0
O53 O 0.1537 0.34337 0.11589 0.0
O54 O 0.15872 0.2103 0.02766 0.0
O55 O 0.22026 0.14188 0.97286 0.0
C56 C 0.33443 0.22423 0.06356 0.0
C57 C 0.34349 0.17341 0.85077 0.0
C58 C 0.37121 0.19182 0.78672 0.0
C59 C 0.29928 0.19832 0.7805 0.0
C60 C 0.27207 0.17937 0.84358 0.0
C61 C 0.25018 0.19186 0.80871 0.0
C62 C 0.39301 0.17923 0.82209 0.0
C63 C 0.33331 0.33707 1.00968 0.0
C64 C 0.36643 0.16196 0.88833 0.0
C65 C 0.52786 0.02484 0.97394 0.0
C66 C 0.56662 0.07772 0.9916 0.0
C67 C 0.18186 0.26395 0.95548 0.0
C68 C 0.18986 0.31012 0.16943 0.0
C69 C 0.1685 0.32203 0.24142 0.0
C70 C 0.23434 0.34929 0.25175 0.0
C71 C 0.2556 0.33733 0.18017 0.0
C72 C 0.14669 0.30192 0.20011 0.0
C73 C 0.27791 0.35638 0.22112 0.0
C74 C 0.16795 0.15672 0.99955 0.0
C75 C 0.16264 0.29653 0.12744 0.0
H76 H 0.28091 0.2074 0.75343 0.0
H77 H 0.23325 0.17399 0.86485 0.0
H78 H 0.19494 0.19621 0.80346 0.0
H79 H 0.44828 0.17475 0.82757 0.0
H80 H 0.25176 0.36531 0.28349 0.0
H81 H 0.28871 0.34523 0.15705 0.0
H82 H 0.09516 0.28212 0.19215 0.0
H83 H 0.32841 0.37786 0.22927 0.0
Eu84 Eu 0.7902 0.69874 0.96156 0.0
C85 C 0.57968 0.91726 0.05264 0.0
N86 N 0.64908 0.91153 0.05913 0.0
C87 C 0.66682 0.01714 0.07155 0.0
C88 C 0.55107 0.97391 0.05562 0.0
C89 C 0.69308 0.95993 0.06779 0.0
C90 C 0.59537 0.02427 0.06605 0.0
C91 C 0.4651 0.87099 0.03531 0.0
C92 C 0.53705 0.86625 0.04307 0.0
C93 C 0.43679 0.92727 0.03757 0.0
C94 C 0.47948 0.97863 0.04813 0.0
Eu95 Eu 0.68512 0.81666 0.06063 0.0
N96 N 0.5655 0.81245 0.04204 0.0
C97 C 0.4233 0.81929 0.02647 0.0
C98 C 0.52382 0.76316 0.03623 0.0
C99 C 0.45271 0.76529 0.02732 0.0
H100 H 0.74797 0.95482 0.0734 0.0
H101 H 0.42023 0.72566 0.02222 0.0
H102 H 0.71673 0.5634 0.94689 0.0
H103 H 0.06146 0.77251 0.99425 0.0
H104 H 0.54393 0.72284 0.04007 0.0
H105 H 0.36792 0.82105 0.02023 0.0
H106 H 0.93648 0.78421 0.98143 0.0
H107 H 0.70143 0.05582 0.07927 0.0
H108 H 0.38168 0.93174 0.03173 0.0
H109 H 0.45675 0.02181 0.05005 0.0
H110 H 0.75286 0.46186 0.94605 0.0
H111 H 0.57498 0.06877 0.06956 0.0
H112 H 0.1065 0.6739 0.99484 0.0
N113 N 0.81784 0.60165 0.96268 0.0
C114 C 0.88627 0.59197 0.96946 0.0
C115 C 0.79075 0.49815 0.95291 0.0
C116 C 0.90957 0.53428 0.96799 0.0
C117 C 0.77021 0.55587 0.954 0.0
C118 C 0.8607 0.48731 0.95993 0.0
N119 N 0.90949 0.69497 0.97818 0.0
C120 C 0.95463 0.74188 0.98334 0.0
C121 C 0.00502 0.63046 0.9831 0.0
C122 C 0.93351 0.63968 0.97694 0.0
C123 C 0.0512 0.67914 0.98996 0.0
C124 C 0.02592 0.73497 0.98986 0.0
H125 H 0.87647 0.44241 0.95863 0.0
H126 H 0.99965 0.48089 0.97255 0.0
H127 H 0.08303 0.56506 0.98634 0.0
O128 O 0.83537 0.7146 0.90747 0.0
O129 O 0.81839 0.69451 0.02512 0.0
O130 O 0.79598 0.79065 0.06984 0.0
O131 O 0.77974 0.63172 0.90007 0.0
O132 O 0.80641 0.79929 0.97527 0.0
O133 O 0.793 0.8441 0.04597 0.0
O134 O 0.63846 0.80628 0.11714 0.0
O135 O 0.66578 0.82699 0.9976 0.0
O136 O 0.67837 0.7282 0.95793 0.0
O137 O 0.69577 0.88785 0.11969 0.0
O138 O 0.67251 0.71502 0.04776 0.0
O139 O 0.68225 0.67475 0.97705 0.0
C140 C 0.82099 0.73596 0.06199 0.0
C141 C 0.8759 0.62604 0.8553 0.0
C142 C 0.95332 0.60851 0.79556 0.0
C143 C 0.98382 0.55972 0.80456 0.0
C144 C 0.90638 0.57617 0.86271 0.0
C145 C 0.96041 0.54378 0.83781 0.0
C146 C 0.8996 0.64206 0.82158 0.0
C147 C 0.81629 0.84417 0.00999 0.0
C148 C 0.81919 0.66097 0.88232 0.0
C149 C 0.98076 0.52507 0.97397 0.0
C150 C 0.02828 0.57302 0.98173 0.0
C151 C 0.66008 0.78357 0.96178 0.0
C152 C 0.65009 0.88726 0.18505 0.0
C153 C 0.60338 0.88592 0.251 0.0
C154 C 0.6381 0.94063 0.27101 0.0
C155 C 0.68301 0.94271 0.20605 0.0
C156 C 0.60915 0.8593 0.20774 0.0
C157 C 0.67687 0.96909 0.24863 0.0
C158 C 0.66388 0.67033 0.01267 0.0
C159 C 0.66084 0.85954 0.13991 0.0
H160 H 0.02616 0.53378 0.78593 0.0
H161 H 0.88811 0.56158 0.88744 0.0
H162 H 0.98372 0.50565 0.84404 0.0
H163 H 0.87529 0.67972 0.81521 0.0
H164 H 0.63465 0.96171 0.30411 0.0
H165 H 0.71432 0.96568 0.18963 0.0
H166 H 0.58305 0.81679 0.1921 0.0
H167 H 0.70268 0.01163 0.2644 0.0
Eu168 Eu 0.28279 0.79518 0.55408 0.0
C169 C 0.05916 0.59229 0.46472 0.0
N170 N 0.12985 0.59188 0.46042 0.0
C171 C 0.13501 0.48871 0.45788 0.0
C172 C 0.02349 0.54012 0.46549 0.0
C173 C 0.16804 0.54127 0.45689 0.0
C174 C 0.06236 0.48797 0.46183 0.0
C175 C 0.94863 0.64563 0.47106 0.0
C176 C 0.02233 0.64467 0.46747 0.0
C177 C 0.91312 0.5941 0.4727 0.0
C178 C 0.95037 0.54129 0.46941 0.0
Eu179 Eu 0.18046 0.67971 0.45414 0.0
N180 N 0.0578 0.69322 0.46418 0.0
C181 C 0.91239 0.69737 0.47092 0.0
C182 C 0.02169 0.74075 0.4595 0.0
C183 C 0.94902 0.74469 0.46437 0.0
H184 H 0.22384 0.54127 0.45268 0.0
H185 H 0.92111 0.7834 0.46174 0.0
H186 H 0.20037 0.92916 0.578 0.0
H187 H 0.55103 0.73227 0.50094 0.0
H188 H 0.04787 0.77486 0.45041 0.0
H189 H 0.85589 0.69994 0.47374 0.0
H190 H 0.43046 0.71432 0.51847 0.0
H191 H 0.16553 0.44868 0.45514 0.0
H192 H 0.85661 0.59408 0.47539 0.0
H193 H 0.92209 0.50141 0.46967 0.0
H194 H 0.2273 0.03362 0.58114 0.0
H195 H 0.03667 0.44692 0.46194 0.0
H196 H 0.58848 0.83565 0.50674 0.0
N197 N 0.30195 0.89574 0.55722 0.0
C198 C 0.36801 0.90891 0.54814 0.0
C199 C 0.26728 0.99895 0.57174 0.0
C200 C 0.38633 0.96834 0.55096 0.0
C201 C 0.2519 0.93963 0.56941 0.0
C202 C 0.33479 0.01341 0.56252 0.0
N203 N 0.3981 0.80536 0.53237 0.0
C204 C 0.44521 0.75908 0.52036 0.0
C205 C 0.48677 0.87533 0.52703 0.0
C206 C 0.41772 0.86274 0.53608 0.0
C207 C 0.535 0.82776 0.5141 0.0
C208 C 0.51402 0.76935 0.51066 0.0
H209 H 0.34669 0.05953 0.56473 0.0
H210 H 0.47076 0.02623 0.54479 0.0
H211 H 0.55885 0.94537 0.52523 0.0
O212 O 0.33536 0.77391 0.60407 0.0
O213 O 0.30315 0.80467 0.49115 0.0
O214 O 0.29184 0.70735 0.44741 0.0
O215 O 0.28027 0.85859 0.61726 0.0
O216 O 0.3061 0.69498 0.53768 0.0
O217 O 0.28527 0.64477 0.46787 0.0
O218 O 0.14724 0.69001 0.3953 0.0
O219 O 0.16172 0.66523 0.51581 0.0
O220 O 0.17457 0.76151 0.56202 0.0
O221 O 0.19097 0.60457 0.39632 0.0
O222 O 0.16754 0.78239 0.47197 0.0
O223 O 0.1715 0.81755 0.543 0.0
C224 C 0.31317 0.76299 0.45498 0.0
C225 C 0.38086 0.85787 0.65763 0.0
C226 C 0.46336 0.86736 0.71379 0.0
C227 C 0.49621 0.91541 0.70527 0.0
C228 C 0.41383 0.90685 0.65039 0.0
C229 C 0.47125 0.93517 0.67394 0.0
C230 C 0.40542 0.83869 0.6898 0.0
C231 C 0.31521 0.64902 0.5033 0.0
C232 C 0.32155 0.82626 0.63168 0.0
C233 C 0.45541 0.98095 0.54259 0.0
C234 C 0.50559 0.93477 0.53115 0.0
C235 C 0.15645 0.70472 0.55326 0.0
C236 C 0.15756 0.60717 0.32887 0.0
C237 C 0.10803 0.60595 0.26289 0.0
C238 C 0.14444 0.55171 0.24318 0.0
C239 C 0.19246 0.55262 0.30822 0.0
C240 C 0.1156 0.63399 0.30595 0.0
C241 C 0.18615 0.52539 0.26571 0.0
C242 C 0.15036 0.8221 0.50797 0.0
C243 C 0.16477 0.63457 0.37421 0.0
H244 H 0.54045 0.93849 0.72344 0.0
H245 H 0.39517 0.92359 0.62674 0.0
H246 H 0.4963 0.97279 0.668 0.0
H247 H 0.38004 0.80122 0.69585 0.0
H248 H 0.14096 0.52961 0.21014 0.0
H249 H 0.22502 0.53094 0.32492 0.0
H250 H 0.08755 0.67552 0.32166 0.0
H251 H 0.21364 0.48359 0.25011 0.0
Eu252 Eu 0.81027 0.31749 0.56202 0.0
C253 C 0.57433 0.12636 0.47167 0.0
N254 N 0.64516 0.12099 0.46883 0.0
C255 C 0.63833 0.01858 0.46772 0.0
C256 C 0.53267 0.07777 0.47351 0.0
C257 C 0.67764 0.06825 0.46673 0.0
C258 C 0.56555 0.02329 0.47086 0.0
C259 C 0.46971 0.18577 0.47321 0.0
C260 C 0.54334 0.18004 0.47163 0.0
C261 C 0.42836 0.13859 0.47718 0.0
C262 C 0.45973 0.08463 0.47709 0.0
Eu263 Eu 0.70584 0.20324 0.46055 0.0
N264 N 0.58447 0.22453 0.46674 0.0
C265 C 0.43952 0.23733 0.46844 0.0
C266 C 0.55463 0.27066 0.45682 0.0
C267 C 0.48213 0.27914 0.45908 0.0
H268 H 0.73368 0.06426 0.46334 0.0
H269 H 0.4591 0.31697 0.45245 0.0
H270 H 0.73341 0.45087 0.57072 0.0
H271 H 0.08536 0.2508 0.53982 0.0
H272 H 0.58619 0.30014 0.44584 0.0
H273 H 0.38325 0.24343 0.46945 0.0
H274 H 0.95921 0.23572 0.54719 0.0
H275 H 0.66402 0.97644 0.46544 0.0
H276 H 0.37184 0.14255 0.47887 0.0
H277 H 0.42695 0.04823 0.47928 0.0
H278 H 0.76705 0.54968 0.56607 0.0
H279 H 0.53509 0.98426 0.47029 0.0
H280 H 0.12899 0.35008 0.53989 0.0
N281 N 0.83634 0.41435 0.55938 0.0
C282 C 0.90522 0.42565 0.55512 0.0
C283 C 0.80632 0.51508 0.56274 0.0
C284 C 0.92713 0.48256 0.55428 0.0
C285 C 0.78721 0.45853 0.56447 0.0
C286 C 0.87649 0.52695 0.55729 0.0
N287 N 0.93102 0.32441 0.55003 0.0
C288 C 0.97719 0.27868 0.54654 0.0
C289 C 0.02581 0.39063 0.54707 0.0
C290 C 0.95398 0.37985 0.55105 0.0
C291 C 0.0734 0.34356 0.54298 0.0
C292 C 0.04894 0.28737 0.54274 0.0
H293 H 0.89102 0.57057 0.55558 0.0
H294 H 0.01649 0.53737 0.55081 0.0
H295 H 0.10282 0.45689 0.54426 0.0
O296 O 0.84838 0.30285 0.61904 0.0
O297 O 0.84413 0.31949 0.49887 0.0
O298 O 0.81903 0.22443 0.45279 0.0
O299 O 0.80107 0.38867 0.62109 0.0
O300 O 0.83131 0.21656 0.5465 0.0
O301 O 0.80664 0.16551 0.47681 0.0
O302 O 0.67943 0.21128 0.40072 0.0
O303 O 0.68142 0.19119 0.52247 0.0
O304 O 0.69935 0.28751 0.56579 0.0
O305 O 0.71378 0.12552 0.40374 0.0
O306 O 0.70294 0.30585 0.4761 0.0
O307 O 0.70181 0.34191 0.54683 0.0
C308 C 0.84906 0.27754 0.46228 0.0
C309 C 0.83712 0.38371 0.68707 0.0
C310 C 0.88212 0.38172 0.75324 0.0
C311 C 0.84562 0.43572 0.77321 0.0
C312 C 0.80204 0.4381 0.70811 0.0
C313 C 0.80642 0.46379 0.75078 0.0
C314 C 0.87784 0.35578 0.70985 0.0
C315 C 0.83644 0.16932 0.51225 0.0
C316 C 0.82961 0.35744 0.64167 0.0
C317 C 0.99862 0.49346 0.5506 0.0
C318 C 0.04784 0.4477 0.5471 0.0
C319 C 0.67952 0.23188 0.55958 0.0
C320 C 0.62448 0.12418 0.3554 0.0
C321 C 0.53961 0.12048 0.30146 0.0
C322 C 0.50337 0.07445 0.31058 0.0
C323 C 0.58777 0.07739 0.36345 0.0
C324 C 0.60053 0.14498 0.32387 0.0
C325 C 0.52758 0.05294 0.34125 0.0
C326 C 0.68368 0.34619 0.51122 0.0
C327 C 0.68532 0.15354 0.38093 0.0
H328 H 0.84811 0.45681 0.80635 0.0
H329 H 0.77057 0.46085 0.69162 0.0
H330 H 0.77917 0.50566 0.76657 0.0
H331 H 0.90537 0.314 0.69406 0.0
H332 H 0.45673 0.05456 0.29356 0.0
H333 H 0.60529 0.05958 0.38692 0.0
H334 H 0.62828 0.18111 0.31744 0.0
H335 H 0.49971 0.01701 0.34777 0.0
C336 C 0.56661 0.60099 0.98049 0.0
C337 C 0.61621 0.62102 0.01206 0.0
C338 C 0.51832 0.55605 0.97997 0.0
C339 C 0.52147 0.52918 0.01101 0.0
C340 C 0.57233 0.54854 0.04261 0.0
C341 C 0.61856 0.59522 0.04316 0.0
C342 C 0.46349 0.53785 0.94649 0.0
C343 C 0.5783 0.51955 0.0755 0.0
C344 C 0.3625 0.44662 0.03089 0.0
C345 C 0.37875 0.38669 1.00784 0.0
C346 C 0.40814 0.49379 0.03189 0.0
C347 C 0.47205 0.48013 0.00988 0.0
C348 C 0.4881 0.41968 0.98589 0.0
C349 C 0.44032 0.37381 0.98436 0.0
C350 C 0.38797 0.55808 0.05641 0.0
C351 C 0.55635 0.40328 0.96259 0.0
H352 H 0.56424 0.6218 0.95678 0.0
H353 H 0.65727 0.61085 0.06741 0.0
H354 H 0.46989 0.48947 0.92768 0.0
H355 H 0.41046 0.54318 0.96043 0.0
H356 H 0.46644 0.5652 0.92575 0.0
H357 H 0.62198 0.53875 0.0972 0.0
H358 H 0.52883 0.52582 0.09331 0.0
H359 H 0.58677 0.47011 0.06101 0.0
H360 H 0.31354 0.45671 0.04748 0.0
H361 H 0.45253 0.32747 0.96599 0.0
H362 H 0.38879 0.58639 0.0363 0.0
H363 H 0.42654 0.57763 0.08136 0.0
H364 H 0.3351 0.56109 0.07044 0.0
H365 H 0.55992 0.42581 0.93906 0.0
H366 H 0.56209 0.3537 0.94695 0.0
H367 H 0.60101 0.41961 0.98401 0.0
C368 C 0.37598 0.54913 0.47064 0.0
C369 C 0.36742 0.60259 0.50428 0.0
C370 C 0.42643 0.50593 0.47137 0.0
C371 C 0.47178 0.51796 0.50568 0.0
C372 C 0.46462 0.57244 0.53925 0.0
C373 C 0.41122 0.61304 0.53872 0.0
C374 C 0.42953 0.44678 0.43599 0.0
C375 C 0.51429 0.58855 0.57543 0.0
C376 C 0.56772 0.39397 0.53154 0.0
C377 C 0.63128 0.39172 0.51091 0.0
C378 C 0.51407 0.43293 0.52845 0.0
C379 C 0.52659 0.47369 0.50686 0.0
C380 C 0.59228 0.47346 0.48764 0.0
C381 C 0.64327 0.43101 0.48884 0.0
C382 C 0.44352 0.42922 0.54724 0.0
C383 C 0.60877 0.51824 0.46609 0.0
H384 H 0.34315 0.54067 0.44373 0.0
H385 H 0.40564 0.65424 0.5649 0.0
H386 H 0.48421 0.43417 0.42595 0.0
H387 H 0.40784 0.41048 0.44637 0.0
H388 H 0.39859 0.44827 0.40907 0.0
H389 H 0.50541 0.63509 0.59724 0.0
H390 H 0.50802 0.55633 0.59246 0.0
H391 H 0.56925 0.58499 0.56438 0.0
H392 H 0.55868 0.36277 0.54819 0.0
H393 H 0.69302 0.42926 0.47331 0.0
H394 H 0.40194 0.42252 0.52365 0.0
H395 H 0.43193 0.47218 0.57237 0.0
H396 H 0.44083 0.39156 0.55994 0.0
H397 H 0.5737 0.51057 0.4392 0.0
H398 H 0.66389 0.5147 0.45522 0.0
H399 H 0.59925 0.56504 0.48725 0.0
C400 C 0.12937 0.04898 0.98189 0.0
C401 C 0.11376 0.11087 0.99773 0.0
C402 C 0.0798 0.00552 0.98305 0.0
C403 C 0.01287 0.02458 1.00015 0.0
C404 C 0.99624 0.08684 0.01549 0.0
C405 C 0.04715 0.1292 0.01459 0.0
C406 C 0.0997 0.93938 0.96707 0.0
C407 C 0.92507 0.10882 0.03354 0.0
C408 C 0.86655 0.90922 0.97315 0.0
C409 C 0.8633 0.89301 1.00869 0.0
C410 C 0.91436 0.95276 0.97017 0.0
C411 C 0.96081 0.97953 1.0032 0.0
C412 C 0.95737 0.96356 0.03929 0.0
C413 C 0.90794 0.92085 0.04179 0.0
C414 C 0.91547 0.96982 0.93165 0.0
C415 C 0.00684 0.99061 0.07488 0.0
H416 H 0.18111 0.03442 0.9701 0.0
H417 H 0.03467 0.17682 0.02763 0.0
H418 H 0.09655 0.9202 0.99239 0.0
H419 H 0.06238 0.91376 0.94288 0.0
H420 H 0.15348 0.93202 0.95402 0.0
H421 H 0.91911 0.15859 0.04173 0.0
H422 H 0.88337 0.08627 0.01131 0.0
H423 H 0.91659 0.09681 0.06169 0.0
H424 H 0.83156 0.88783 0.94766 0.0
H425 H 0.90586 0.90772 0.06908 0.0
H426 H 0.96714 0.95845 0.91627 0.0
H427 H 0.90801 0.01936 0.93975 0.0
H428 H 0.87415 0.94624 0.9094 0.0
H429 H 0.06175 0.98066 0.06422 0.0
H430 H 0.99765 0.97286 0.10054 0.0
H431 H 1.00093 0.04053 0.08687 0.0
C432 C 0.9219 0.12167 0.54771 0.0
C433 C 0.88181 0.11809 0.51282 0.0
C434 C 0.96794 0.07493 0.54755 0.0
C435 C 0.97113 0.02183 0.51255 0.0
C436 C 0.92898 0.01683 0.47785 0.0
C437 C 0.88622 0.06551 0.47802 0.0
C438 C 0.01393 0.08278 0.58461 0.0
C439 C 0.92882 0.95995 0.44053 0.0
C440 C 0.12786 0.91609 0.49205 0.0
C441 C 0.10533 0.87332 0.50937 0.0
C442 C 0.08569 0.96608 0.49424 0.0
C443 C 0.01818 0.97119 0.5122 0.0
C444 C 0.99504 0.92717 0.52911 0.0
C445 C 0.03996 0.87967 0.5286 0.0
C446 C 0.11354 0.01356 0.47766 0.0
C447 C 0.92236 0.92939 0.5468 0.0
H448 H 0.91861 0.16159 0.57499 0.0
H449 H 0.85598 0.06198 0.45075 0.0
H450 H 1.00021 0.04864 0.59911 0.0
H451 H 0.06959 0.07528 0.57493 0.0
H452 H 0.00874 0.12852 0.60812 0.0
H453 H 0.88897 0.96153 0.41746 0.0
H454 H 0.98099 0.9532 0.42556 0.0
H455 H 0.91826 0.91995 0.44997 0.0
H456 H 0.17918 0.91119 0.4778 0.0
H457 H 0.02311 0.84618 0.54197 0.0
H458 H 0.1092 0.05905 0.50151 0.0
H459 H 0.08186 0.01422 0.45088 0.0
H460 H 0.16913 0.00537 0.46785 0.0
H461 H 0.91548 0.97144 0.57353 0.0
H462 H 0.91153 0.89003 0.55694 0.0
H463 H 0.88283 0.93015 0.52341 0.0
C464 C 0.55695 0.14305 0.23602 0.0
C465 C 0.5132 0.14248 0.26852 0.0
C466 C 0.53073 0.15863 0.20279 0.0
C467 C 0.45946 0.17551 0.20263 0.0
C468 C 0.41583 0.17733 0.23629 0.0
C469 C 0.44304 0.16014 0.26858 0.0
C470 C 0.57926 0.1564 0.16775 0.0
C471 C 0.33999 0.19621 0.23777 0.0
C472 C 0.40028 0.25835 0.13031 0.0
C473 C 0.36878 0.21162 0.0984 0.0
C474 C 0.43031 0.24736 0.16436 0.0
C475 C 0.42936 0.18809 0.16637 0.0
C476 C 0.39876 0.14052 0.13383 0.0
C477 C 0.36933 0.15275 0.10011 0.0
C478 C 0.46243 0.29926 0.19835 0.0
C479 C 0.39684 0.0767 0.13482 0.0
H480 H 0.61117 0.12928 0.23591 0.0
H481 H 0.40933 0.16027 0.29394 0.0
H482 H 0.55313 0.13507 0.13768 0.0
H483 H 0.59352 0.20317 0.1699 0.0
H484 H 0.62819 0.13108 0.16836 0.0
H485 H 0.31452 0.19964 0.26746 0.0
H486 H 0.3357 0.24061 0.23311 0.0
H487 H 0.31066 0.16292 0.21242 0.0
H488 H 0.40153 0.30367 0.12869 0.0
H489 H 0.34552 0.1163 0.07541 0.0
H490 H 0.51898 0.29053 0.20097 0.0
H491 H 0.43775 0.30318 0.2283 0.0
H492 H 0.45646 0.34309 0.19294 0.0
H493 H 0.4511 0.05975 0.13481 0.0
H494 H 0.36808 0.04537 0.10818 0.0
H495 H 0.3713 0.07585 0.16353 0.0
C496 C 0.48947 0.84792 0.26905 0.0
C497 C 0.56126 0.85821 0.27623 0.0
C498 C 0.44733 0.83031 0.29662 0.0
C499 C 0.47807 0.82192 0.33177 0.0
C500 C 0.55111 0.83011 0.3382 0.0
C501 C 0.59162 0.84857 0.31055 0.0
C502 C 0.36953 0.82311 0.28905 0.0
C503 C 0.58619 0.82121 0.37501 0.0
C504 C 0.36858 0.83856 0.42743 0.0
C505 C 0.35482 0.77808 0.4233 0.0
C506 C 0.40736 0.85343 0.39748 0.0
C507 C 0.43388 0.80672 0.36273 0.0
C508 C 0.42016 0.74559 0.3584 0.0
C509 C 0.38045 0.73203 0.38854 0.0
C510 C 0.41953 0.9192 0.40289 0.0
C511 C 0.44835 0.69442 0.32221 0.0
H512 H 0.46578 0.85631 0.24291 0.0
H513 H 0.64717 0.85667 0.31617 0.0
H514 H 0.35219 0.77797 0.28895 0.0
H515 H 0.34113 0.85742 0.31439 0.0
H516 H 0.3542 0.82848 0.25938 0.0
H517 H 0.64408 0.82469 0.37381 0.0
H518 H 0.56719 0.85588 0.40373 0.0
H519 H 0.57251 0.77624 0.37687 0.0
H520 H 0.3484 0.8745 0.45392 0.0
H521 H 0.37023 0.68513 0.38504 0.0
H522 H 0.3963 0.92985 0.37663 0.0
H523 H 0.47641 0.92854 0.4029 0.0
H524 H 0.39626 0.9499 0.43191 0.0
H525 H 0.43003 0.69921 0.29293 0.0
H526 H 0.43203 0.64936 0.32294 0.0
H527 H 0.50639 0.69625 0.32208 0.0
C528 C 0.60051 0.74658 0.8933 0.0
C529 C 0.62734 0.79513 0.92606 0.0
C530 C 0.57221 0.7554 0.85815 0.0
C531 C 0.57137 0.81411 0.85526 0.0
C532 C 0.59866 0.86334 0.8881 0.0
C533 C 0.62541 0.85346 0.92341 0.0
C534 C 0.54381 0.70173 0.8239 0.0
C535 C 0.59971 0.92642 0.88577 0.0
C536 C 0.56081 0.83616 0.7509 0.0
C537 C 0.48952 0.84864 0.7483 0.0
C538 C 0.58759 0.82302 0.78492 0.0
C539 C 0.54237 0.82409 0.81778 0.0
C540 C 0.46996 0.83566 0.81491 0.0
C541 C 0.44434 0.84699 0.77993 0.0
C542 C 0.66446 0.80846 0.78583 0.0
C543 C 0.41868 0.83566 0.84824 0.0
H544 H 0.6015 0.70134 0.8951 0.0
H545 H 0.64642 0.89111 0.94845 0.0
H546 H 0.48711 0.70828 0.81988 0.0
H547 H 0.57009 0.69792 0.7944 0.0
H548 H 0.55108 0.65856 0.83005 0.0
H549 H 0.63019 0.95833 0.91128 0.0
H550 H 0.6229 0.92631 0.85625 0.0
H551 H 0.54518 0.9432 0.88675 0.0
H552 H 0.5957 0.83678 0.72622 0.0
H553 H 0.38916 0.85655 0.77798 0.0
H554 H 0.67105 0.76433 0.79067 0.0
H555 H 0.69031 0.84323 0.81199 0.0
H556 H 0.69179 0.80641 0.75693 0.0
H557 H 0.3957 0.78979 0.84054 0.0
H558 H 0.37505 0.86784 0.85018 0.0
H559 H 0.44365 0.84735 0.87891 0.0
C560 C 0.66203 0.2475 0.63401 0.0
C561 C 0.64044 0.21988 0.5931 0.0
C562 C 0.62295 0.24141 0.66693 0.0
C563 C 0.55961 0.20821 0.65879 0.0
C564 C 0.53769 0.18012 0.61749 0.0
C565 C 0.57909 0.18536 0.58514 0.0
C566 C 0.64852 0.27185 0.71043 0.0
C567 C 0.46939 0.14607 0.60747 0.0
C568 C 0.47522 0.15427 0.74052 0.0
C569 C 0.42269 0.19784 0.75595 0.0
C570 C 0.5209 0.15742 0.70927 0.0
C571 C 0.51424 0.20559 0.69339 0.0
C572 C 0.4623 0.25044 0.7096 0.0
C573 C 0.41712 0.24592 0.74056 0.0
C574 C 0.57508 0.10843 0.69253 0.0
C575 C 0.45328 0.30246 0.69351 0.0
H576 H 0.70948 0.2743 0.64029 0.0
H577 H 0.56153 0.16484 0.55382 0.0
H578 H 0.61081 0.3074 0.72754 0.0
H579 H 0.65164 0.2385 0.72681 0.0
H580 H 0.70078 0.29304 0.7114 0.0
H581 H 0.45601 0.13321 0.57429 0.0
H582 H 0.47279 0.10455 0.61598 0.0
H583 H 0.42593 0.17387 0.62561 0.0
H584 H 0.47921 0.11667 0.75201 0.0
H585 H 0.37699 0.27999 0.75268 0.0
H586 H 0.62775 0.12877 0.69355 0.0
H587 H 0.5634 0.08265 0.65979 0.0
H588 H 0.57658 0.07629 0.70996 0.0
H589 H 0.50307 0.32783 0.69645 0.0
H590 H 0.41157 0.33439 0.71013 0.0
H591 H 0.43982 0.28485 0.66028 0.0
C592 C 0.83028 0.72444 0.13097 0.0
C593 C 0.86253 0.72392 0.09439 0.0
C594 C 0.86894 0.71246 0.1621 0.0
C595 C 0.94163 0.69995 0.15647 0.0
C596 C 0.975 0.70375 0.12056 0.0
C597 C 0.93474 0.71499 0.08984 0.0
C598 C 0.83181 0.71293 0.20087 0.0
C599 C 0.0532 0.698 0.11414 0.0
C600 C 0.06212 0.69373 0.24347 0.0
C601 C 0.06174 0.6317 0.23801 0.0
C602 C 0.02198 0.71702 0.21788 0.0
C603 C 0.9808 0.67736 0.18597 0.0
C604 C 0.97868 0.61501 0.18123 0.0
C605 C 0.01878 0.59316 0.20733 0.0
C606 C 0.02483 0.78382 0.2244 0.0
C607 C 0.93361 0.57086 0.14893 0.0
H608 H 0.77452 0.73323 0.13491 0.0
H609 H 0.96015 0.718 0.06258 0.0
H610 H 0.82482 0.66584 0.20044 0.0
H611 H 0.86338 0.73734 0.22846 0.0
H612 H 0.77937 0.73454 0.2039 0.0
H613 H 0.06525 0.66868 0.08211 0.0
H614 H 0.07498 0.74337 0.11787 0.0
H615 H 0.08058 0.68023 0.13602 0.0
H616 H 0.09527 0.72384 0.26698 0.0
H617 H 0.01661 0.54543 0.20356 0.0
H618 H 0.97116 0.80224 0.22491 0.0
H619 H 0.05334 0.79107 0.19839 0.0
H620 H 0.0518 0.80967 0.25353 0.0
H621 H 0.87938 0.57292 0.16079 0.0
H622 H 0.95248 0.52359 0.14154 0.0
H623 H 0.93168 0.58192 0.1201 0.0
C624 C 0.96561 0.30211 0.43927 0.0
C625 C 0.89482 0.28838 0.43105 0.0
C626 C 0.01038 0.30906 0.40885 0.0
C627 C 0.98326 0.30276 0.36937 0.0
C628 C 0.91117 0.29032 0.3613 0.0
C629 C 0.86799 0.28235 0.3921 0.0
C630 C 0.08705 0.32115 0.41861 0.0
C631 C 0.8798 0.28542 0.32015 0.0
C632 C 0.08928 0.36895 0.30105 0.0
C633 C 0.12128 0.3171 0.27403 0.0
C634 C 0.0436 0.36515 0.33202 0.0
C635 C 0.03059 0.30803 0.33633 0.0
C636 C 0.06352 0.25559 0.30912 0.0
C637 C 0.10803 0.26072 0.27799 0.0
C638 C 0.00853 0.42253 0.35891 0.0
C639 C 0.05187 0.19408 0.31295 0.0
H640 H 0.98659 0.3051 0.46893 0.0
H641 H 0.81301 0.27179 0.38587 0.0
H642 H 0.11728 0.27913 0.40348 0.0
H643 H 0.10687 0.35625 0.40644 0.0
H644 H 0.0973 0.33598 0.45226 0.0
H645 H 0.82256 0.27671 0.31903 0.0
H646 H 0.88925 0.32798 0.3136 0.0
H647 H 0.90553 0.24828 0.29533 0.0
H648 H 0.0993 0.4125 0.29758 0.0
H649 H 0.13319 0.2208 0.25697 0.0
H650 H 0.98664 0.41885 0.38774 0.0
H651 H 0.96502 0.43368 0.34137 0.0
H652 H 0.04594 0.46097 0.36689 0.0
H653 H 0.06763 0.19482 0.34409 0.0
H654 H 0.0819 0.15796 0.28964 0.0
H655 H 0.99544 0.18242 0.3093 0.0
C656 C 0.99497 0.3377 0.76806 0.0
C657 C 0.92515 0.35438 0.77847 0.0
C658 C 0.03855 0.31962 0.79479 0.0
C659 C 0.01118 0.31713 0.83247 0.0
C660 C 0.93995 0.33176 0.84231 0.0
C661 C 0.89795 0.35016 0.81526 0.0
C662 C 0.11392 0.30385 0.78272 0.0
C663 C 0.90845 0.32927 0.88192 0.0
C664 C 0.10569 0.23017 0.89255 0.0
C665 C 0.1387 0.27699 0.92367 0.0
C666 C 0.06512 0.24228 0.86216 0.0
C667 C 0.0573 0.30268 0.86292 0.0
C668 C 0.09081 0.35009 0.89423 0.0
C669 C 0.13057 0.33674 0.92438 0.0
C670 C 0.03022 0.19054 0.82941 0.0
C671 C 0.08512 0.41493 0.8956 0.0
H672 H 0.01635 0.34113 0.73979 0.0
H673 H 0.84375 0.36229 0.82325 0.0
H674 H 0.14947 0.32232 0.80944 0.0
H675 H 0.1198 0.25394 0.77127 0.0
H676 H 0.13092 0.321 0.75783 0.0
H677 H 0.85323 0.34507 0.88606 0.0
H678 H 0.91039 0.28215 0.8822 0.0
H679 H 0.93939 0.35755 0.90867 0.0
H680 H 0.11101 0.18399 0.89218 0.0
H681 H 0.15615 0.37315 0.94827 0.0
H682 H 0.04736 0.18963 0.79845 0.0
H683 H 0.97263 0.19709 0.83102 0.0
H684 H 0.0424 0.14605 0.83266 0.0
H685 H 0.10871 0.41934 0.86731 0.0
H686 H 0.11192 0.44687 0.92284 0.0
H687 H 0.02934 0.42837 0.89617 0.0
C688 C 0.16775 0.67929 0.61726 0.0
C689 C 0.1249 0.68651 0.58633 0.0
C690 C 0.13893 0.66657 0.65101 0.0
C691 C 0.06531 0.6625 0.6544 0.0
C692 C 0.02188 0.66997 0.6231 0.0
C693 C 0.05225 0.68134 0.58914 0.0
C694 C 0.18724 0.65719 0.68295 0.0
C695 C 0.94333 0.66706 0.62602 0.0
C696 C 0.99444 0.5764 0.72222 0.0
C697 C 0.978 0.62324 0.75888 0.0
C698 C 0.02313 0.58832 0.68827 0.0
C699 C 0.03402 0.64897 0.6902 0.0
C700 C 0.0159 0.6967 0.72678 0.0
C701 C 0.98827 0.6833 0.76067 0.0
C702 C 0.04139 0.53477 0.65088 0.0
C703 C 0.0274 0.76197 0.73051 0.0
H704 H 0.22398 0.68373 0.61503 0.0
H705 H 0.01922 0.68777 0.56537 0.0
H706 H 0.17418 0.68963 0.71385 0.0
H707 H 0.17987 0.61091 0.6842 0.0
H708 H 0.24317 0.663 0.67629 0.0
H709 H 0.91676 0.67265 0.59887 0.0
H710 H 0.92776 0.62322 0.62907 0.0
H711 H 0.92466 0.70323 0.65407 0.0
H712 H 0.98531 0.52978 0.71997 0.0
H713 H 0.97647 0.71985 0.78895 0.0
H714 H 0.07223 0.54671 0.6275 0.0
H715 H 0.99219 0.51221 0.63671 0.0
H716 H 0.07164 0.50111 0.66028 0.0
H717 H 0.08405 0.77015 0.72764 0.0
H718 H 0.00827 0.79386 0.76037 0.0
H719 H 1.00028 0.77214 0.70515 0.0
loop_
_geom_bond_atom_site_label_1
_geom_bond_atom_site_label_2
_geom_bond_distance
_geom_bond_site_symmetry_2
_ccdc_geom_bond_type
Eu0 N29 2.600 . S
Eu0 N35 2.562 . S
Eu0 O44 2.462 . S
Eu0 O45 2.373 1_556 S
Eu0 O47 2.432 . S
Eu0 O48 2.291 . S
Eu0 O52 2.335 . S
Eu0 O55 2.372 . S
Eu0 C64 2.787 . S
C1 N2 1.365 . S
C1 C4 1.405 . S
C1 C8 1.448 . S
N2 C1 1.365 . S
N2 C5 1.319 . S
N2 Eu11 2.600 . S
C3 C5 1.397 . S
C3 C6 1.367 . S
C3 H23 0.931 . S
C4 C1 1.405 . S
C4 C6 1.403 . S
C4 C10 1.439 1_455 S
C5 N2 1.319 . S
C5 C3 1.397 . S
C5 H16 0.930 . S
C6 C3 1.367 . S
C6 C4 1.403 . S
C6 H27 0.929 . S
C7 C8 1.430 1_655 S
C7 C9 1.387 . S
C7 C13 1.404 1_554 S
C8 C1 1.448 . S
C8 C7 1.430 1_455 S
C8 N12 1.351 . S
C9 C7 1.387 . S
C9 C10 1.374 . S
C9 H24 0.931 1_554 S
C10 C4 1.439 1_655 S
C10 C9 1.374 . S
C10 H25 0.931 . S
Eu11 N2 2.600 . S
Eu11 N12 2.562 . S
Eu11 O46 2.335 . S
Eu11 O49 2.372 . S
Eu11 O50 2.462 . S
Eu11 O51 2.373 1_554 S
Eu11 O53 2.432 . S
Eu11 O54 2.291 . S
Eu11 C75 2.787 . S
N12 C8 1.351 . S
N12 Eu11 2.562 . S
N12 C14 1.325 . S
C13 C7 1.404 1_556 S
C13 C15 1.361 1_556 S
C13 H21 0.930 . S
C14 N12 1.325 . S
C14 C15 1.420 1_455 S
C14 H20 0.929 . S
C15 C13 1.361 1_554 S
C15 C14 1.420 1_655 S
C15 H17 0.931 1_554 S
H16 C5 0.930 . S
H17 C15 0.931 1_556 S
H18 C33 0.930 . S
H19 C40 0.930 . S
H20 C14 0.929 . S
H21 C13 0.930 . S
H22 C36 0.929 . S
H23 C3 0.931 . S
H24 C9 0.931 1_556 S
H25 C10 0.931 . S
H26 C31 0.931 . S
H27 C6 0.929 . S
H28 C39 0.930 . S
N29 Eu0 2.600 . S
N29 C30 1.365 . S
N29 C33 1.319 . S
C30 N29 1.365 . S
C30 C32 1.405 . S
C30 C38 1.448 . S
C31 H26 0.931 . S
C31 C33 1.397 1_565 S
C31 C34 1.367 . S
C32 C30 1.405 . S
C32 C34 1.403 1_545 S
C32 C65 1.439 . S
C33 H18 0.930 . S
C33 N29 1.319 . S
C33 C31 1.397 1_545 S
C34 C31 1.367 . S
C34 C32 1.403 1_565 S
C34 H41 0.929 . S
N35 Eu0 2.562 . S
N35 C36 1.325 . S
N35 C38 1.351 . S
C36 H22 0.929 . S
C36 N35 1.325 . S
C36 C40 1.416 1_556 S
C37 C38 1.430 . S
C37 C39 1.404 1_556 S
C37 C66 1.382 1_556 S
C38 C30 1.448 . S
C38 N35 1.351 . S
C38 C37 1.430 . S
C39 H28 0.930 . S
C39 C37 1.404 1_554 S
C39 C40 1.366 . S
C40 H19 0.930 . S
C40 C36 1.416 1_554 S
C40 C39 1.366 . S
H41 C34 0.929 . S
H42 C65 0.931 1_565 S
H43 C66 0.935 . S
O44 Eu0 2.462 . S
O44 C64 1.252 . S
O45 Eu0 2.373 1_554 S
O45 C56 1.249 . S
O46 Eu11 2.335 . S
O46 C56 1.264 . S
O47 Eu0 2.432 . S
O47 C64 1.268 . S
O48 Eu0 2.291 . S
O48 C63 1.255 1_556 S
O49 Eu11 2.372 . S
O49 C63 1.257 . S
O50 Eu11 2.462 . S
O50 C75 1.252 . S
O51 Eu11 2.373 1_556 S
O51 C67 1.249 . S
O52 Eu0 2.335 . S
O52 C67 1.264 . S
O53 Eu11 2.432 . S
O53 C75 1.268 . S
O54 Eu11 2.291 . S
O54 C74 1.255 1_554 S
O55 Eu0 2.372 . S
O55 C74 1.257 . S
C56 O45 1.249 . S
C56 O46 1.264 . S
C57 C60 1.382 . S
C57 C62 1.390 . S
C57 C64 1.506 . S
C58 C59 1.398 . S
C58 C62 1.392 . S
C59 C58 1.398 . S
C59 C61 1.372 . S
C59 H76 0.931 . S
C60 C57 1.382 . S
C60 C61 1.390 . S
C60 H77 0.931 . S
C61 C59 1.372 . S
C61 C60 1.390 . S
C61 H78 0.929 . S
C62 C57 1.390 . S
C62 C58 1.392 . S
C62 H79 0.930 . S
C63 O48 1.255 1_554 S
C63 O49 1.257 . S
C64 Eu0 2.787 . S
C64 O44 1.252 . S
C64 O47 1.268 . S
C64 C57 1.506 . S
C65 C32 1.439 . S
C65 H42 0.931 1_545 S
C65 C66 1.375 1_556 S
C66 C37 1.382 1_554 S
C66 H43 0.935 . S
C66 C65 1.375 1_554 S
C67 O51 1.249 . S
C67 O52 1.264 . S
C68 C71 1.382 . S
C68 C72 1.390 . S
C68 C75 1.506 . S
C69 C70 1.398 . S
C69 C72 1.392 . S
C70 C69 1.398 . S
C70 C73 1.372 . S
C70 H80 0.931 . S
C71 C68 1.382 . S
C71 C73 1.390 . S
C71 H81 0.931 . S
C72 C68 1.390 . S
C72 C69 1.392 . S
C72 H82 0.930 . S
C73 C70 1.372 . S
C73 C71 1.390 . S
C73 H83 0.929 . S
C74 O54 1.255 1_556 S
C74 O55 1.257 . S
C75 Eu11 2.787 . S
C75 O50 1.252 . S
C75 O53 1.268 . S
C75 C68 1.506 . S
H76 C59 0.931 . S
H77 C60 0.931 . S
H78 C61 0.929 . S
H79 C62 0.930 . S
H80 C70 0.931 . S
H81 C71 0.931 . S
H82 C72 0.930 . S
H83 C73 0.929 . S
Eu84 N113 2.600 . S
Eu84 N119 2.562 . S
Eu84 O128 2.462 . S
Eu84 O129 2.373 1_556 S
Eu84 O131 2.432 . S
Eu84 O132 2.291 . S
Eu84 O136 2.335 . S
Eu84 O139 2.372 . S
Eu84 C148 2.787 . S
C85 N86 1.365 . S
C85 C88 1.405 . S
C85 C92 1.448 . S
N86 C85 1.365 . S
N86 C89 1.319 . S
N86 Eu95 2.600 . S
C87 C89 1.397 1_545 S
C87 C90 1.367 . S
C87 H107 0.931 . S
C88 C85 1.405 . S
C88 C90 1.403 1_565 S
C88 C94 1.439 . S
C89 N86 1.319 . S
C89 C87 1.397 1_565 S
C89 H100 0.930 . S
C90 C87 1.367 . S
C90 C88 1.403 1_545 S
C90 H111 0.929 . S
C91 C92 1.430 . S
C91 C93 1.387 . S
C91 C97 1.404 1_554 S
C92 C85 1.448 . S
C92 C91 1.430 . S
C92 N96 1.351 . S
C93 C91 1.387 . S
C93 C94 1.374 . S
C93 H108 0.931 1_554 S
C94 C88 1.439 . S
C94 C93 1.374 . S
C94 H109 0.931 1_565 S
Eu95 N86 2.600 . S
Eu95 N96 2.562 . S
Eu95 O130 2.335 . S
Eu95 O133 2.372 . S
Eu95 O134 2.462 . S
Eu95 O135 2.373 1_554 S
Eu95 O137 2.432 . S
Eu95 O138 2.291 . S
Eu95 C159 2.787 . S
N96 C92 1.351 . S
N96 Eu95 2.562 . S
N96 C98 1.325 . S
C97 C91 1.404 1_556 S
C97 C99 1.361 1_556 S
C97 H105 0.930 . S
C98 N96 1.325 . S
C98 C99 1.420 . S
C98 H104 0.929 . S
C99 C97 1.361 1_554 S
C99 C98 1.420 . S
C99 H101 0.931 1_554 S
H100 C89 0.930 . S
H101 C99 0.931 1_556 S
H102 C117 0.930 . S
H103 C124 0.930 . S
H104 C98 0.929 . S
H105 C97 0.930 . S
H106 C120 0.929 . S
H107 C87 0.931 . S
H108 C93 0.931 1_556 S
H109 C94 0.931 1_545 S
H110 C115 0.931 . S
H111 C90 0.929 . S
H112 C123 0.930 . S
N113 Eu84 2.600 . S
N113 C114 1.365 . S
N113 C117 1.319 . S
C114 N113 1.365 . S
C114 C116 1.405 . S
C114 C122 1.448 . S
C115 H110 0.931 . S
C115 C117 1.397 . S
C115 C118 1.367 . S
C116 C114 1.405 . S
C116 C118 1.403 . S
C116 C149 1.439 1_655 S
C117 H102 0.930 . S
C117 N113 1.319 . S
C117 C115 1.397 . S
C118 C115 1.367 . S
C118 C116 1.403 . S
C118 H125 0.929 . S
N119 Eu84 2.562 . S
N119 C120 1.325 . S
N119 C122 1.351 . S
C120 H106 0.929 . S
C120 N119 1.325 . S
C120 C124 1.416 1_656 S
C121 C122 1.430 1_455 S
C121 C123 1.404 1_556 S
C121 C150 1.382 1_556 S
C122 C114 1.448 . S
C122 N119 1.351 . S
C122 C121 1.430 1_655 S
C123 H112 0.930 . S
C123 C121 1.404 1_554 S
C123 C124 1.366 . S
C124 H103 0.930 . S
C124 C120 1.416 1_454 S
C124 C123 1.366 . S
H125 C118 0.929 . S
H126 C149 0.931 . S
H127 C150 0.935 . S
O128 Eu84 2.462 . S
O128 C148 1.252 . S
O129 Eu84 2.373 1_554 S
O129 C140 1.249 . S
O130 Eu95 2.335 . S
O130 C140 1.264 . S
O131 Eu84 2.432 . S
O131 C148 1.268 . S
O132 Eu84 2.291 . S
O132 C147 1.255 1_556 S
O133 Eu95 2.372 . S
O133 C147 1.257 . S
O134 Eu95 2.462 . S
O134 C159 1.252 . S
O135 Eu95 2.373 1_556 S
O135 C151 1.249 . S
O136 Eu84 2.335 . S
O136 C151 1.264 . S
O137 Eu95 2.432 . S
O137 C159 1.268 . S
O138 Eu95 2.291 . S
O138 C158 1.255 1_554 S
O139 Eu84 2.372 . S
O139 C158 1.257 . S
C140 O129 1.249 . S
C140 O130 1.264 . S
C141 C144 1.382 . S
C141 C146 1.390 . S
C141 C148 1.506 . S
C142 C143 1.398 . S
C142 C146 1.392 . S
C143 C142 1.398 . S
C143 C145 1.372 . S
C143 H160 0.931 . S
C144 C141 1.382 . S
C144 C145 1.390 . S
C144 H161 0.931 . S
C145 C143 1.372 . S
C145 C144 1.390 . S
C145 H162 0.929 . S
C146 C141 1.390 . S
C146 C142 1.392 . S
C146 H163 0.930 . S
C147 O132 1.255 1_554 S
C147 O133 1.257 . S
C148 Eu84 2.787 . S
C148 O128 1.252 . S
C148 O131 1.268 . S
C148 C141 1.506 . S
C149 C116 1.439 1_455 S
C149 H126 0.931 . S
C149 C150 1.375 1_556 S
C150 C121 1.382 1_554 S
C150 H127 0.935 . S
C150 C149 1.375 1_554 S
C151 O135 1.249 . S
C151 O136 1.264 . S
C152 C155 1.382 . S
C152 C156 1.390 . S
C152 C159 1.506 . S
C153 C154 1.398 . S
C153 C156 1.392 . S
C154 C153 1.398 . S
C154 C157 1.372 . S
C154 H164 0.931 . S
C155 C152 1.382 . S
C155 C157 1.390 . S
C155 H165 0.931 . S
C156 C152 1.390 . S
C156 C153 1.392 . S
C156 H166 0.930 . S
C157 C154 1.372 . S
C157 C155 1.390 . S
C157 H167 0.929 . S
C158 O138 1.255 1_556 S
C158 O139 1.257 . S
C159 Eu95 2.787 . S
C159 O134 1.252 . S
C159 O137 1.268 . S
C159 C152 1.506 . S
H160 C143 0.931 . S
H161 C144 0.931 . S
H162 C145 0.929 . S
H163 C146 0.930 . S
H164 C154 0.931 . S
H165 C155 0.931 . S
H166 C156 0.930 . S
H167 C157 0.929 . S
Eu168 N197 2.600 . S
Eu168 N203 2.562 . S
Eu168 O212 2.462 . S
Eu168 O213 2.373 . S
Eu168 O215 2.432 . S
Eu168 O216 2.291 . S
Eu168 O220 2.335 . S
Eu168 O223 2.372 . S
Eu168 C232 2.787 . S
C169 N170 1.365 . S
C169 C172 1.405 . S
C169 C176 1.448 . S
N170 C169 1.365 . S
N170 C173 1.319 . S
N170 Eu179 2.600 . S
C171 C173 1.397 . S
C171 C174 1.367 . S
C171 H191 0.931 . S
C172 C169 1.405 . S
C172 C174 1.403 . S
C172 C178 1.439 1_455 S
C173 N170 1.319 . S
C173 C171 1.397 . S
C173 H184 0.930 . S
C174 C171 1.367 . S
C174 C172 1.403 . S
C174 H195 0.929 . S
C175 C176 1.430 1_655 S
C175 C177 1.387 . S
C175 C181 1.404 . S
C176 C169 1.448 . S
C176 C175 1.430 1_455 S
C176 N180 1.351 . S
C177 C175 1.387 . S
C177 C178 1.374 . S
C177 H192 0.931 . S
C178 C172 1.439 1_655 S
C178 C177 1.374 . S
C178 H193 0.931 . S
Eu179 N170 2.600 . S
Eu179 N180 2.562 . S
Eu179 O214 2.335 . S
Eu179 O217 2.372 . S
Eu179 O218 2.462 . S
Eu179 O219 2.373 . S
Eu179 O221 2.432 . S
Eu179 O222 2.291 . S
Eu179 C243 2.787 . S
N180 C176 1.351 . S
N180 Eu179 2.562 . S
N180 C182 1.325 . S
C181 C175 1.404 . S
C181 C183 1.366 . S
C181 H189 0.930 . S
C182 N180 1.325 . S
C182 C183 1.416 1_455 S
C182 H188 0.929 . S
C183 C181 1.366 . S
C183 C182 1.416 1_655 S
C183 H185 0.930 . S
H184 C173 0.930 . S
H185 C183 0.930 . S
H186 C201 0.930 . S
H187 C208 0.930 . S
H188 C182 0.929 . S
H189 C181 0.930 . S
H190 C204 0.929 . S
H191 C171 0.931 . S
H192 C177 0.931 . S
H193 C178 0.931 . S
H194 C199 0.931 . S
H195 C174 0.929 . S
H196 C207 0.930 . S
N197 Eu168 2.600 . S
N197 C198 1.365 . S
N197 C201 1.319 . S
C198 N197 1.365 . S
C198 C200 1.405 . S
C198 C206 1.448 . S
C199 H194 0.931 . S
C199 C201 1.397 1_545 S
C199 C202 1.367 . S
C200 C198 1.405 . S
C200 C202 1.403 1_565 S
C200 C233 1.439 . S
C201 H186 0.930 . S
C201 N197 1.319 . S
C201 C199 1.397 1_565 S
C202 C199 1.367 . S
C202 C200 1.403 1_545 S
C202 H209 0.929 . S
N203 Eu168 2.562 . S
N203 C204 1.325 . S
N203 C206 1.351 . S
C204 H190 0.929 . S
C204 N203 1.325 . S
C204 C208 1.416 . S
C205 C206 1.430 . S
C205 C207 1.404 . S
C205 C234 1.387 . S
C206 C198 1.448 . S
C206 N203 1.351 . S
C206 C205 1.430 . S
C207 H196 0.930 . S
C207 C205 1.404 . S
C207 C208 1.366 . S
C208 H187 0.930 . S
C208 C204 1.416 . S
C208 C207 1.366 . S
H209 C202 0.929 . S
H210 C233 0.931 1_545 S
H211 C234 0.931 . S
O212 Eu168 2.462 . S
O212 C232 1.252 . S
O213 Eu168 2.373 . S
O213 C224 1.249 . S
O214 Eu179 2.335 . S
O214 C224 1.264 . S
O215 Eu168 2.432 . S
O215 C232 1.268 . S
O216 Eu168 2.291 . S
O216 C231 1.255 . S
O217 Eu179 2.372 . S
O217 C231 1.257 . S
O218 Eu179 2.462 . S
O218 C243 1.252 . S
O219 Eu179 2.373 . S
O219 C235 1.249 . S
O220 Eu168 2.335 . S
O220 C235 1.264 . S
O221 Eu179 2.432 . S
O221 C243 1.268 . S
O222 Eu179 2.291 . S
O222 C242 1.255 . S
O223 Eu168 2.372 . S
O223 C242 1.257 . S
C224 O213 1.249 . S
C224 O214 1.264 . S
C225 C228 1.382 . S
C225 C230 1.390 . S
C225 C232 1.506 . S
C226 C227 1.398 . S
C226 C230 1.392 . S
C227 C226 1.398 . S
C227 C229 1.372 . S
C227 H244 0.931 . S
C228 C225 1.382 . S
C228 C229 1.390 . S
C228 H245 0.931 . S
C229 C227 1.372 . S
C229 C228 1.390 . S
C229 H246 0.929 . S
C230 C225 1.390 . S
C230 C226 1.392 . S
C230 H247 0.930 . S
C231 O216 1.255 . S
C231 O217 1.257 . S
C232 Eu168 2.787 . S
C232 O212 1.252 . S
C232 O215 1.268 . S
C232 C225 1.506 . S
C233 C200 1.439 . S
C233 H210 0.931 1_565 S
C233 C234 1.374 . S
C234 C205 1.387 . S
C234 H211 0.931 . S
C234 C233 1.374 . S
C235 O219 1.249 . S
C235 O220 1.264 . S
C236 C239 1.382 . S
C236 C240 1.390 . S
C236 C243 1.506 . S
C237 C238 1.398 . S
C237 C240 1.392 . S
C238 C237 1.398 . S
C238 C241 1.372 . S
C238 H248 0.931 . S
C239 C236 1.382 . S
C239 C241 1.390 . S
C239 H249 0.931 . S
C240 C236 1.390 . S
C240 C237 1.392 . S
C240 H250 0.930 . S
C241 C238 1.372 . S
C241 C239 1.390 . S
C241 H251 0.929 . S
C242 O222 1.255 . S
C242 O223 1.257 . S
C243 Eu179 2.787 . S
C243 O218 1.252 . S
C243 O221 1.268 . S
C243 C236 1.506 . S
H244 C227 0.931 . S
H245 C228 0.931 . S
H246 C229 0.929 . S
H247 C230 0.930 . S
H248 C238 0.931 . S
H249 C239 0.931 . S
H250 C240 0.930 . S
H251 C241 0.929 . S
Eu252 N281 2.600 . S
Eu252 N287 2.562 . S
Eu252 O296 2.462 . S
Eu252 O297 2.373 . S
Eu252 O299 2.432 . S
Eu252 O300 2.291 . S
Eu252 O304 2.335 . S
Eu252 O307 2.372 . S
Eu252 C316 2.787 . S
C253 N254 1.365 . S
C253 C256 1.405 . S
C253 C260 1.448 . S
N254 C253 1.365 . S
N254 C257 1.319 . S
N254 Eu263 2.600 . S
C255 C257 1.397 1_565 S
C255 C258 1.367 . S
C255 H275 0.931 . S
C256 C253 1.405 . S
C256 C258 1.403 1_545 S
C256 C262 1.439 . S
C257 N254 1.319 . S
C257 C255 1.397 1_545 S
C257 H268 0.930 . S
C258 C255 1.367 . S
C258 C256 1.403 1_565 S
C258 H279 0.929 . S
C259 C260 1.430 . S
C259 C261 1.387 . S
C259 C265 1.404 . S
C260 C253 1.448 . S
C260 C259 1.430 . S
C260 N264 1.351 . S
C261 C259 1.387 . S
C261 C262 1.374 . S
C261 H276 0.931 . S
C262 C256 1.439 . S
C262 C261 1.374 . S
C262 H277 0.931 1_545 S
Eu263 N254 2.600 . S
Eu263 N264 2.562 . S
Eu263 O298 2.335 . S
Eu263 O301 2.372 . S
Eu263 O302 2.462 . S
Eu263 O303 2.373 . S
Eu263 O305 2.432 . S
Eu263 O306 2.291 . S
Eu263 C327 2.787 . S
N264 C260 1.351 . S
N264 Eu263 2.562 . S
N264 C266 1.325 . S
C265 C259 1.404 . S
C265 C267 1.366 . S
C265 H273 0.930 . S
C266 N264 1.325 . S
C266 C267 1.416 . S
C266 H272 0.929 . S
C267 C265 1.366 . S
C267 C266 1.416 . S
C267 H269 0.930 . S
H268 C257 0.930 . S
H269 C267 0.930 . S
H270 C285 0.930 . S
H271 C292 0.930 . S
H272 C266 0.929 . S
H273 C265 0.930 . S
H274 C288 0.929 . S
H275 C255 0.931 . S
H276 C261 0.931 . S
H277 C262 0.931 1_565 S
H278 C283 0.931 . S
H279 C258 0.929 . S
H280 C291 0.930 . S
N281 Eu252 2.600 . S
N281 C282 1.365 . S
N281 C285 1.319 . S
C282 N281 1.365 . S
C282 C284 1.405 . S
C282 C290 1.448 . S
C283 H278 0.931 . S
C283 C285 1.397 . S
C283 C286 1.367 . S
C284 C282 1.405 . S
C284 C286 1.403 . S
C284 C317 1.439 1_655 S
C285 H270 0.930 . S
C285 N281 1.319 . S
C285 C283 1.397 . S
C286 C283 1.367 . S
C286 C284 1.403 . S
C286 H293 0.929 . S
N287 Eu252 2.562 . S
N287 C288 1.325 . S
N287 C290 1.351 . S
C288 H274 0.929 . S
C288 N287 1.325 . S
C288 C292 1.416 1_655 S
C289 C290 1.430 1_455 S
C289 C291 1.404 . S
C289 C318 1.387 . S
C290 C282 1.448 . S
C290 N287 1.351 . S
C290 C289 1.430 1_655 S
C291 H280 0.930 . S
C291 C289 1.404 . S
C291 C292 1.366 . S
C292 H271 0.930 . S
C292 C288 1.416 1_455 S
C292 C291 1.366 . S
H293 C286 0.929 . S
H294 C317 0.931 . S
H295 C318 0.931 . S
O296 Eu252 2.462 . S
O296 C316 1.252 . S
O297 Eu252 2.373 . S
O297 C308 1.249 . S
O298 Eu263 2.335 . S
O298 C308 1.264 . S
O299 Eu252 2.432 . S
O299 C316 1.268 . S
O300 Eu252 2.291 . S
O300 C315 1.255 . S
O301 Eu263 2.372 . S
O301 C315 1.257 . S
O302 Eu263 2.462 . S
O302 C327 1.252 . S
O303 Eu263 2.373 . S
O303 C319 1.249 . S
O304 Eu252 2.335 . S
O304 C319 1.264 . S
O305 Eu263 2.432 . S
O305 C327 1.268 . S
O306 Eu263 2.291 . S
O306 C326 1.255 . S
O307 Eu252 2.372 . S
O307 C326 1.257 . S
C308 O297 1.249 . S
C308 O298 1.264 . S
C309 C312 1.382 . S
C309 C314 1.390 . S
C309 C316 1.506 . S
C310 C311 1.398 . S
C310 C314 1.392 . S
C311 C310 1.398 . S
C311 C313 1.372 . S
C311 H328 0.931 . S
C312 C309 1.382 . S
C312 C313 1.390 . S
C312 H329 0.931 . S
C313 C311 1.372 . S
C313 C312 1.390 . S
C313 H330 0.929 . S
C314 C309 1.390 . S
C314 C310 1.392 . S
C314 H331 0.930 . S
C315 O300 1.255 . S
C315 O301 1.257 . S
C316 Eu252 2.787 . S
C316 O296 1.252 . S
C316 O299 1.268 . S
C316 C309 1.506 . S
C317 C284 1.439 1_455 S
C317 H294 0.931 . S
C317 C318 1.374 . S
C318 C289 1.387 . S
C318 H295 0.931 . S
C318 C317 1.374 . S
C319 O303 1.249 . S
C319 O304 1.264 . S
C320 C323 1.382 . S
C320 C324 1.390 . S
C320 C327 1.506 . S
C321 C322 1.398 . S
C321 C324 1.392 . S
C322 C321 1.398 . S
C322 C325 1.372 . S
C322 H332 0.931 . S
C323 C320 1.382 . S
C323 C325 1.390 . S
C323 H333 0.931 . S
C324 C320 1.390 . S
C324 C321 1.392 . S
C324 H334 0.930 . S
C325 C322 1.372 . S
C325 C323 1.390 . S
C325 H335 0.929 . S
C326 O306 1.255 . S
C326 O307 1.257 . S
C327 Eu263 2.787 . S
C327 O302 1.252 . S
C327 O305 1.268 . S
C327 C320 1.506 . S
H328 C311 0.931 . S
H329 C312 0.931 . S
H330 C313 0.929 . S
H331 C314 0.930 . S
H332 C322 0.931 . S
H333 C323 0.931 . S
H334 C324 0.930 . S
H335 C325 0.929 . S
C336 C337 1.391 . S
C336 C338 1.394 . S
C336 H352 0.931 . S
C337 C336 1.391 . S
C337 C341 1.376 1_556 S
C338 C336 1.394 . S
C338 C339 1.369 . S
C338 C342 1.531 . S
C339 C338 1.369 . S
C339 C340 1.410 1_556 S
C339 C347 1.503 . S
C340 C339 1.410 1_554 S
C340 C341 1.392 . S
C340 C343 1.511 . S
C341 C337 1.376 1_554 S
C341 C340 1.392 . S
C341 H353 0.929 . S
C342 C338 1.531 . S
C342 H354 0.960 . S
C342 H355 0.962 . S
C342 H356 0.960 . S
C343 C340 1.511 . S
C343 H357 0.961 . S
C343 H358 0.961 . S
C343 H359 0.961 . S
C344 C345 1.370 . S
C344 C346 1.363 . S
C344 H360 0.931 . S
C345 C344 1.370 . S
C345 C349 1.408 1_554 S
C346 C344 1.363 . S
C346 C347 1.370 1_554 S
C346 C350 1.524 . S
C347 C339 1.503 . S
C347 C346 1.370 1_556 S
C347 C348 1.403 . S
C348 C347 1.403 . S
C348 C349 1.404 . S
C348 C351 1.539 . S
C349 C345 1.408 1_556 S
C349 C348 1.404 . S
C349 H361 0.930 . S
C350 C346 1.524 . S
C350 H362 0.956 . S
C350 H363 0.961 . S
C350 H364 0.961 . S
C351 C348 1.539 . S
C351 H365 0.958 . S
C351 H366 0.961 . S
C351 H367 0.960 . S
H352 C336 0.931 . S
H353 C341 0.929 . S
H354 C342 0.960 . S
H355 C342 0.962 . S
H356 C342 0.960 . S
H357 C343 0.961 . S
H358 C343 0.961 . S
H359 C343 0.961 . S
H360 C344 0.931 . S
H361 C349 0.930 . S
H362 C350 0.956 . S
H363 C350 0.961 . S
H364 C350 0.961 . S
H365 C351 0.958 . S
H366 C351 0.961 . S
H367 C351 0.960 . S
C368 C369 1.391 . S
C368 C370 1.394 . S
C368 H384 0.931 . S
C369 C368 1.391 . S
C369 C373 1.376 . S
C370 C368 1.394 . S
C370 C371 1.369 . S
C370 C374 1.531 . S
C371 C370 1.369 . S
C371 C372 1.410 . S
C371 C379 1.503 . S
C372 C371 1.410 . S
C372 C373 1.392 . S
C372 C375 1.511 . S
C373 C369 1.376 . S
C373 C372 1.392 . S
C373 H385 0.929 . S
C374 C370 1.531 . S
C374 H386 0.960 . S
C374 H387 0.962 . S
C374 H388 0.960 . S
C375 C372 1.511 . S
C375 H389 0.961 . S
C375 H390 0.961 . S
C375 H391 0.961 . S
C376 C377 1.370 . S
C376 C378 1.363 . S
C376 H392 0.931 . S
C377 C376 1.370 . S
C377 C381 1.408 . S
C378 C376 1.363 . S
C378 C379 1.370 . S
C378 C382 1.524 . S
C379 C371 1.503 . S
C379 C378 1.370 . S
C379 C380 1.403 . S
C380 C379 1.403 . S
C380 C381 1.404 . S
C380 C383 1.539 . S
C381 C377 1.408 . S
C381 C380 1.404 . S
C381 H393 0.930 . S
C382 C378 1.524 . S
C382 H394 0.956 . S
C382 H395 0.961 . S
C382 H396 0.961 . S
C383 C380 1.539 . S
C383 H397 0.958 . S
C383 H398 0.961 . S
C383 H399 0.960 . S
H384 C368 0.931 . S
H385 C373 0.929 . S
H386 C374 0.960 . S
H387 C374 0.962 . S
H388 C374 0.960 . S
H389 C375 0.961 . S
H390 C375 0.961 . S
H391 C375 0.961 . S
H392 C376 0.931 . S
H393 C381 0.930 . S
H394 C382 0.956 . S
H395 C382 0.961 . S
H396 C382 0.961 . S
H397 C383 0.958 . S
H398 C383 0.961 . S
H399 C383 0.960 . S
C400 C401 1.391 1_556 S
C400 C402 1.394 . S
C400 H416 0.931 . S
C401 C400 1.391 1_554 S
C401 C405 1.376 . S
C402 C400 1.394 . S
C402 C403 1.369 1_556 S
C402 C406 1.531 1_545 S
C403 C402 1.369 1_554 S
C403 C404 1.410 . S
C403 C411 1.503 1_445 S
C404 C403 1.410 . S
C404 C405 1.392 . S
C404 C407 1.511 1_455 S
C405 C401 1.376 . S
C405 C404 1.392 . S
C405 H417 0.929 . S
C406 C402 1.531 1_565 S
C406 H418 0.960 . S
C406 H419 0.962 . S
C406 H420 0.960 . S
C407 C404 1.511 1_655 S
C407 H421 0.961 . S
C407 H422 0.961 . S
C407 H423 0.961 . S
C408 C409 1.370 1_556 S
C408 C410 1.363 . S
C408 H424 0.931 . S
C409 C408 1.370 1_554 S
C409 C413 1.408 . S
C410 C408 1.363 . S
C410 C411 1.370 1_556 S
C410 C414 1.524 1_565 S
C411 C403 1.503 1_665 S
C411 C410 1.370 1_554 S
C411 C412 1.403 . S
C412 C411 1.403 . S
C412 C413 1.404 . S
C412 C415 1.539 1_655 S
C413 C409 1.408 . S
C413 C412 1.404 . S
C413 H425 0.930 . S
C414 C410 1.524 1_545 S
C414 H426 0.956 1_545 S
C414 H427 0.961 . S
C414 H428 0.961 . S
C415 C412 1.539 1_455 S
C415 H429 0.958 . S
C415 H430 0.961 . S
C415 H431 0.960 . S
H416 C400 0.931 . S
H417 C405 0.929 . S
H418 C406 0.960 . S
H419 C406 0.962 . S
H420 C406 0.960 . S
H421 C407 0.961 . S
H422 C407 0.961 . S
H423 C407 0.961 . S
H424 C408 0.931 . S
H425 C413 0.930 . S
H426 C414 0.956 1_565 S
H427 C414 0.961 . S
H428 C414 0.961 . S
H429 C415 0.958 . S
H430 C415 0.961 . S
H431 C415 0.960 . S
C432 C433 1.391 . S
C432 C434 1.394 . S
C432 H448 0.931 . S
C433 C432 1.391 . S
C433 C437 1.376 . S
C434 C432 1.394 . S
C434 C435 1.369 . S
C434 C438 1.531 . S
C435 C434 1.369 . S
C435 C436 1.410 . S
C435 C443 1.503 1_645 S
C436 C435 1.410 . S
C436 C437 1.392 . S
C436 C439 1.511 1_545 S
C437 C433 1.376 . S
C437 C436 1.392 . S
C437 H449 0.929 . S
C438 C434 1.531 . S
C438 H450 0.964 . S
C438 H451 0.962 1_655 S
C438 H452 0.960 . S
C439 C436 1.511 1_565 S
C439 H453 0.961 . S
C439 H454 0.961 . S
C439 H455 0.961 . S
C440 C441 1.370 . S
C440 C442 1.363 . S
C440 H456 0.931 . S
C441 C440 1.370 . S
C441 C445 1.408 . S
C442 C440 1.363 . S
C442 C443 1.370 . S
C442 C446 1.524 1_565 S
C443 C435 1.503 1_465 S
C443 C442 1.370 . S
C443 C444 1.403 . S
C444 C443 1.403 . S
C444 C445 1.404 . S
C444 C447 1.539 1_455 S
C445 C441 1.408 . S
C445 C444 1.404 . S
C445 H457 0.930 . S
C446 C442 1.524 1_545 S
C446 H458 0.956 . S
C446 H459 0.961 . S
C446 H460 0.961 . S
C447 C444 1.539 1_655 S
C447 H461 0.958 . S
C447 H462 0.961 . S
C447 H463 0.960 . S
H448 C432 0.931 . S
H449 C437 0.929 . S
H450 C438 0.964 . S
H451 C438 0.962 1_455 S
H452 C438 0.960 . S
H453 C439 0.961 . S
H454 C439 0.961 . S
H455 C439 0.961 . S
H456 C440 0.931 . S
H457 C445 0.930 . S
H458 C446 0.956 . S
H459 C446 0.961 . S
H460 C446 0.961 . S
H461 C447 0.958 . S
H462 C447 0.961 . S
H463 C447 0.960 . S
C464 C465 1.391 . S
C464 C466 1.394 . S
C464 H480 0.931 . S
C465 C464 1.391 . S
C465 C469 1.376 . S
C466 C464 1.394 . S
C466 C467 1.369 . S
C466 C470 1.531 . S
C467 C466 1.369 . S
C467 C468 1.410 . S
C467 C475 1.503 . S
C468 C467 1.410 . S
C468 C469 1.392 . S
C468 C471 1.511 . S
C469 C465 1.376 . S
C469 C468 1.392 . S
C469 H481 0.929 . S
C470 C466 1.531 . S
C470 H482 0.960 . S
C470 H483 0.962 . S
C470 H484 0.960 . S
C471 C468 1.511 . S
C471 H485 0.961 . S
C471 H486 0.961 . S
C471 H487 0.961 . S
C472 C473 1.370 . S
C472 C474 1.363 . S
C472 H488 0.931 . S
C473 C472 1.370 . S
C473 C477 1.408 . S
C474 C472 1.363 . S
C474 C475 1.370 . S
C474 C478 1.524 . S
C475 C467 1.503 . S
C475 C474 1.370 . S
C475 C476 1.403 . S
C476 C475 1.403 . S
C476 C477 1.404 . S
C476 C479 1.539 . S
C477 C473 1.408 . S
C477 C476 1.404 . S
C477 H489 0.930 . S
C478 C474 1.524 . S
C478 H490 0.956 . S
C478 H491 0.961 . S
C478 H492 0.961 . S
C479 C476 1.539 . S
C479 H493 0.958 . S
C479 H494 0.961 . S
C479 H495 0.960 . S
H480 C464 0.931 . S
H481 C469 0.929 . S
H482 C470 0.960 . S
H483 C470 0.962 . S
H484 C470 0.960 . S
H485 C471 0.961 . S
H486 C471 0.961 . S
H487 C471 0.961 . S
H488 C472 0.931 . S
H489 C477 0.930 . S
H490 C478 0.956 . S
H491 C478 0.961 . S
H492 C478 0.961 . S
H493 C479 0.958 . S
H494 C479 0.961 . S
H495 C479 0.960 . S
C496 C497 1.391 . S
C496 C498 1.394 . S
C496 H512 0.931 . S
C497 C496 1.391 . S
C497 C501 1.376 . S
C498 C496 1.394 . S
C498 C499 1.369 . S
C498 C502 1.531 . S
C499 C498 1.369 . S
C499 C500 1.410 . S
C499 C507 1.503 . S
C500 C499 1.410 . S
C500 C501 1.392 . S
C500 C503 1.511 . S
C501 C497 1.376 . S
C501 C500 1.392 . S
C501 H513 0.929 . S
C502 C498 1.531 . S
C502 H514 0.960 . S
C502 H515 0.962 . S
C502 H516 0.960 . S
C503 C500 1.511 . S
C503 H517 0.961 . S
C503 H518 0.961 . S
C503 H519 0.961 . S
C504 C505 1.370 . S
C504 C506 1.363 . S
C504 H520 0.931 . S
C505 C504 1.370 . S
C505 C509 1.408 . S
C506 C504 1.363 . S
C506 C507 1.370 . S
C506 C510 1.524 . S
C507 C499 1.503 . S
C507 C506 1.370 . S
C507 C508 1.403 . S
C508 C507 1.403 . S
C508 C509 1.404 . S
C508 C511 1.539 . S
C509 C505 1.408 . S
C509 C508 1.404 . S
C509 H521 0.930 . S
C510 C506 1.524 . S
C510 H522 0.956 . S
C510 H523 0.961 . S
C510 H524 0.961 . S
C511 C508 1.539 . S
C511 H525 0.958 . S
C511 H526 0.961 . S
C511 H527 0.960 . S
H512 C496 0.931 . S
H513 C501 0.929 . S
H514 C502 0.960 . S
H515 C502 0.962 . S
H516 C502 0.960 . S
H517 C503 0.961 . S
H518 C503 0.961 . S
H519 C503 0.961 . S
H520 C504 0.931 . S
H521 C509 0.930 . S
H522 C510 0.956 . S
H523 C510 0.961 . S
H524 C510 0.961 . S
H525 C511 0.958 . S
H526 C511 0.961 . S
H527 C511 0.960 . S
C528 C529 1.391 . S
C528 C530 1.394 . S
C528 H544 0.931 . S
C529 C528 1.391 . S
C529 C533 1.376 . S
C530 C528 1.394 . S
C530 C531 1.369 . S
C530 C534 1.531 . S
C531 C530 1.369 . S
C531 C532 1.410 . S
C531 C539 1.503 . S
C532 C531 1.410 . S
C532 C533 1.392 . S
C532 C535 1.511 . S
C533 C529 1.376 . S
C533 C532 1.392 . S
C533 H545 0.929 . S
C534 C530 1.531 . S
C534 H546 0.960 . S
C534 H547 0.962 . S
C534 H548 0.960 . S
C535 C532 1.511 . S
C535 H549 0.961 . S
C535 H550 0.961 . S
C535 H551 0.961 . S
C536 C537 1.370 . S
C536 C538 1.363 . S
C536 H552 0.931 . S
C537 C536 1.370 . S
C537 C541 1.408 . S
C538 C536 1.363 . S
C538 C539 1.370 . S
C538 C542 1.524 . S
C539 C531 1.503 . S
C539 C538 1.370 . S
C539 C540 1.403 . S
C540 C539 1.403 . S
C540 C541 1.404 . S
C540 C543 1.539 . S
C541 C537 1.408 . S
C541 C540 1.404 . S
C541 H553 0.930 . S
C542 C538 1.524 . S
C542 H554 0.956 . S
C542 H555 0.961 . S
C542 H556 0.961 . S
C543 C540 1.539 . S
C543 H557 0.958 . S
C543 H558 0.961 . S
C543 H559 0.960 . S
H544 C528 0.931 . S
H545 C533 0.929 . S
H546 C534 0.960 . S
H547 C534 0.962 . S
H548 C534 0.960 . S
H549 C535 0.961 . S
H550 C535 0.961 . S
H551 C535 0.961 . S
H552 C536 0.931 . S
H553 C541 0.930 . S
H554 C542 0.956 . S
H555 C542 0.961 . S
H556 C542 0.961 . S
H557 C543 0.958 . S
H558 C543 0.961 . S
H559 C543 0.960 . S
C560 C561 1.391 . S
C560 C562 1.394 . S
C560 H576 0.931 . S
C561 C560 1.391 . S
C561 C565 1.376 . S
C562 C560 1.394 . S
C562 C563 1.369 . S
C562 C566 1.531 . S
C563 C562 1.369 . S
C563 C564 1.410 . S
C563 C571 1.503 . S
C564 C563 1.410 . S
C564 C565 1.392 . S
C564 C567 1.511 . S
C565 C561 1.376 . S
C565 C564 1.392 . S
C565 H577 0.929 . S
C566 C562 1.531 . S
C566 H578 0.960 . S
C566 H579 0.962 . S
C566 H580 0.960 . S
C567 C564 1.511 . S
C567 H581 0.961 . S
C567 H582 0.961 . S
C567 H583 0.961 . S
C568 C569 1.370 . S
C568 C570 1.363 . S
C568 H584 0.931 . S
C569 C568 1.370 . S
C569 C573 1.408 . S
C570 C568 1.363 . S
C570 C571 1.370 . S
C570 C574 1.524 . S
C571 C563 1.503 . S
C571 C570 1.370 . S
C571 C572 1.403 . S
C572 C571 1.403 . S
C572 C573 1.404 . S
C572 C575 1.539 . S
C573 C569 1.408 . S
C573 C572 1.404 . S
C573 H585 0.930 . S
C574 C570 1.524 . S
C574 H586 0.956 . S
C574 H587 0.961 . S
C574 H588 0.961 . S
C575 C572 1.539 . S
C575 H589 0.958 . S
C575 H590 0.961 . S
C575 H591 0.960 . S
H576 C560 0.931 . S
H577 C565 0.929 . S
H578 C566 0.960 . S
H579 C566 0.962 . S
H580 C566 0.960 . S
H581 C567 0.961 . S
H582 C567 0.961 . S
H583 C567 0.961 . S
H584 C568 0.931 . S
H585 C573 0.930 . S
H586 C574 0.956 . S
H587 C574 0.961 . S
H588 C574 0.961 . S
H589 C575 0.958 . S
H590 C575 0.961 . S
H591 C575 0.960 . S
C592 C593 1.391 . S
C592 C594 1.394 . S
C592 H608 0.931 . S
C593 C592 1.391 . S
C593 C597 1.376 . S
C594 C592 1.394 . S
C594 C595 1.369 . S
C594 C598 1.531 . S
C595 C594 1.369 . S
C595 C596 1.410 . S
C595 C603 1.503 . S
C596 C595 1.410 . S
C596 C597 1.392 . S
C596 C599 1.514 . S
C597 C593 1.376 . S
C597 C596 1.392 . S
C597 H609 0.929 . S
C598 C594 1.531 . S
C598 H610 0.960 . S
C598 H611 0.962 . S
C598 H612 0.960 . S
C599 C596 1.514 . S
C599 H613 0.959 1_655 S
C599 H614 0.959 1_655 S
C599 H615 0.962 . S
C600 C601 1.370 . S
C600 C602 1.363 1_455 S
C600 H616 0.931 . S
C601 C600 1.370 . S
C601 C605 1.408 1_455 S
C602 C600 1.363 1_655 S
C602 C603 1.370 . S
C602 C606 1.524 1_655 S
C603 C595 1.503 . S
C603 C602 1.370 . S
C603 C604 1.403 . S
C604 C603 1.403 . S
C604 C605 1.404 . S
C604 C607 1.539 . S
C605 C601 1.408 1_655 S
C605 C604 1.404 . S
C605 H617 0.930 . S
C606 C602 1.524 1_455 S
C606 H618 0.956 1_455 S
C606 H619 0.961 . S
C606 H620 0.961 . S
C607 C604 1.539 . S
C607 H621 0.958 . S
C607 H622 0.961 . S
C607 H623 0.960 . S
H608 C592 0.931 . S
H609 C597 0.929 . S
H610 C598 0.960 . S
H611 C598 0.962 . S
H612 C598 0.960 . S
H613 C599 0.959 1_455 S
H614 C599 0.959 1_455 S
H615 C599 0.962 . S
H616 C600 0.931 . S
H617 C605 0.930 . S
H618 C606 0.956 1_655 S
H619 C606 0.961 . S
H620 C606 0.961 . S
H621 C607 0.958 . S
H622 C607 0.961 . S
H623 C607 0.960 . S
C624 C625 1.391 . S
C624 C626 1.394 . S
C624 H640 0.931 . S
C625 C624 1.391 . S
C625 C629 1.376 . S
C626 C624 1.394 . S
C626 C627 1.369 . S
C626 C630 1.531 1_655 S
C627 C626 1.369 . S
C627 C628 1.410 . S
C627 C635 1.503 . S
C628 C627 1.410 . S
C628 C629 1.392 . S
C628 C631 1.511 . S
C629 C625 1.376 . S
C629 C628 1.392 . S
C629 H641 0.929 . S
C630 C626 1.531 1_455 S
C630 H642 0.960 . S
C630 H643 0.962 . S
C630 H644 0.960 . S
C631 C628 1.511 . S
C631 H645 0.961 . S
C631 H646 0.961 . S
C631 H647 0.961 . S
C632 C633 1.370 1_655 S
C632 C634 1.363 . S
C632 H648 0.931 1_655 S
C633 C632 1.370 1_455 S
C633 C637 1.408 1_455 S
C634 C632 1.363 . S
C634 C635 1.370 . S
C634 C638 1.524 . S
C635 C627 1.503 . S
C635 C634 1.370 . S
C635 C636 1.403 . S
C636 C635 1.403 . S
C636 C637 1.404 . S
C636 C639 1.539 . S
C637 C633 1.408 1_655 S
C637 C636 1.404 . S
C637 H649 0.930 . S
C638 C634 1.524 . S
C638 H650 0.956 . S
C638 H651 0.961 . S
C638 H652 0.961 . S
C639 C636 1.539 . S
C639 H653 0.958 . S
C639 H654 0.961 . S
C639 H655 0.960 . S
H640 C624 0.931 . S
H641 C629 0.929 . S
H642 C630 0.960 . S
H643 C630 0.962 . S
H644 C630 0.960 . S
H645 C631 0.961 . S
H646 C631 0.961 . S
H647 C631 0.961 . S
H648 C632 0.931 1_455 S
H649 C637 0.930 . S
H650 C638 0.956 . S
H651 C638 0.961 . S
H652 C638 0.961 . S
H653 C639 0.958 . S
H654 C639 0.961 . S
H655 C639 0.960 . S
C656 C657 1.391 1_455 S
C656 C658 1.394 . S
C656 H672 0.931 . S
C657 C656 1.391 1_655 S
C657 C661 1.376 . S
C658 C656 1.394 . S
C658 C659 1.369 . S
C658 C662 1.531 . S
C659 C658 1.369 . S
C659 C660 1.410 1_455 S
C659 C667 1.503 . S
C660 C659 1.410 1_655 S
C660 C661 1.392 . S
C660 C663 1.511 . S
C661 C657 1.376 . S
C661 C660 1.392 . S
C661 H673 0.929 . S
C662 C658 1.531 . S
C662 H674 0.960 . S
C662 H675 0.962 . S
C662 H676 0.960 . S
C663 C660 1.511 . S
C663 H677 0.961 . S
C663 H678 0.961 . S
C663 H679 0.961 . S
C664 C665 1.370 . S
C664 C666 1.363 . S
C664 H680 0.931 . S
C665 C664 1.370 . S
C665 C669 1.408 . S
C666 C664 1.363 . S
C666 C667 1.370 . S
C666 C670 1.524 . S
C667 C659 1.503 . S
C667 C666 1.370 . S
C667 C668 1.403 . S
C668 C667 1.403 . S
C668 C669 1.404 . S
C668 C671 1.539 . S
C669 C665 1.408 . S
C669 C668 1.404 . S
C669 H681 0.930 . S
C670 C666 1.524 . S
C670 H682 0.956 . S
C670 H683 0.961 . S
C670 H684 0.961 . S
C671 C668 1.539 . S
C671 H685 0.958 . S
C671 H686 0.961 . S
C671 H687 0.960 . S
H672 C656 0.931 . S
H673 C661 0.929 . S
H674 C662 0.960 . S
H675 C662 0.962 . S
H676 C662 0.960 . S
H677 C663 0.961 . S
H678 C663 0.961 . S
H679 C663 0.961 . S
H680 C664 0.931 . S
H681 C669 0.930 . S
H682 C670 0.956 . S
H683 C670 0.961 . S
H684 C670 0.961 . S
H685 C671 0.958 . S
H686 C671 0.961 . S
H687 C671 0.960 . S
C688 C689 1.391 . S
C688 C690 1.394 . S
C688 H704 0.931 . S
C689 C688 1.391 . S
C689 C693 1.376 . S
C690 C688 1.394 . S
C690 C691 1.369 . S
C690 C694 1.531 . S
C691 C690 1.369 . S
C691 C692 1.410 . S
C691 C699 1.503 . S
C692 C691 1.410 . S
C692 C693 1.392 . S
C692 C695 1.511 1_455 S
C693 C689 1.376 . S
C693 C692 1.392 . S
C693 H705 0.929 . S
C694 C690 1.531 . S
C694 H706 0.960 . S
C694 H707 0.962 . S
C694 H708 0.960 . S
C695 C692 1.511 1_655 S
C695 H709 0.961 . S
C695 H710 0.961 . S
C695 H711 0.961 . S
C696 C697 1.370 . S
C696 C698 1.363 1_655 S
C696 H712 0.931 . S
C697 C696 1.370 . S
C697 C701 1.408 1_655 S
C698 C696 1.363 1_455 S
C698 C699 1.370 . S
C698 C702 1.524 . S
C699 C691 1.503 . S
C699 C698 1.370 . S
C699 C700 1.403 . S
C700 C699 1.403 . S
C700 C701 1.404 . S
C700 C703 1.539 . S
C701 C697 1.408 1_455 S
C701 C700 1.404 . S
C701 H713 0.930 . S
C702 C698 1.524 . S
C702 H714 0.956 . S
C702 H715 0.961 1_455 S
C702 H716 0.961 1_455 S
C703 C700 1.539 . S
C703 H717 0.958 . S
C703 H718 0.961 . S
C703 H719 0.960 . S
H704 C688 0.931 . S
H705 C693 0.929 . S
H706 C694 0.960 . S
H707 C694 0.962 . S
H708 C694 0.960 . S
H709 C695 0.961 . S
H710 C695 0.961 . S
H711 C695 0.961 . S
H712 C696 0.931 . S
H713 C701 0.930 . S
H714 C702 0.956 . S
H715 C702 0.961 1_655 S
H716 C702 0.961 1_655 S
H717 C703 0.958 . S
H718 C703 0.961 . S
H719 C703 0.960 . S
C337 C158 1.501 . S
C345 C63 1.511 . S
C369 C231 1.487 . S
C377 C326 1.518 . S
C401 C74 1.524 1_554 S
C409 C147 1.502 . S
C433 C315 1.520 . S
C441 C242 1.506 . S
C465 C321 1.223 . S
C473 C56 1.306 . S
C497 C153 1.274 . S
C505 C224 1.311 . S
C529 C151 1.325 . S
C537 C226 1.231 . S
C561 C319 1.322 . S
C569 C58 1.248 . S
C593 C140 1.295 . S
C601 C237 1.222 . S
C625 C308 1.315 . S
C633 C69 1.256 . S
C657 C310 1.185 . S
C665 C67 1.313 . S
C689 C235 1.311 . S
C697 C142 1.256 . S
