# Generated by pormake.
# Topology unj, (4)-cn, num edge types: 1
# Building blocks:
#     Node 0, Type 0, BuildingBlock: ICAMEG_clean_sbu_1, # of connection points: 4
#     Node 1, Type 0, BuildingBlock: ICAMEG_clean_sbu_1, # of connection points: 4
#     Node 2, Type 0, BuildingBlock: ICAMEG_clean_sbu_1, # of connection points: 4
#     Node 3, Type 0, BuildingBlock: ICAMEG_clean_sbu_1, # of connection points: 4
#     Node 4, Type 0, BuildingBlock: ICAMEG_clean_sbu_1, # of connection points: 4
#     Node 5, Type 0, BuildingBlock: ICAMEG_clean_sbu_1, # of connection points: 4
#     Edge 6, Type (0, 0), BuildingBlock: FUNLAD_clean_linker_0, # of connection points: 2
#     Edge 7, Type (0, 0), BuildingBlock: FUNLAD_clean_linker_0, # of connection points: 2
#     Edge 8, Type (0, 0), BuildingBlock: FUNLAD_clean_linker_0, # of connection points: 2
#     Edge 9, Type (0, 0), BuildingBlock: FUNLAD_clean_linker_0, # of connection points: 2
#     Edge 10, Type (0, 0), BuildingBlock: FUNLAD_clean_linker_0, # of connection points: 2
#     Edge 11, Type (0, 0), BuildingBlock: FUNLAD_clean_linker_0, # of connection points: 2
#     Edge 12, Type (0, 0), BuildingBlock: FUNLAD_clean_linker_0, # of connection points: 2
#     Edge 13, Type (0, 0), BuildingBlock: FUNLAD_clean_linker_0, # of connection points: 2
#     Edge 14, Type (0, 0), BuildingBlock: FUNLAD_clean_linker_0, # of connection points: 2
#     Edge 15, Type (0, 0), BuildingBlock: FUNLAD_clean_linker_0, # of connection points: 2
#     Edge 16, Type (0, 0), BuildingBlock: FUNLAD_clean_linker_0, # of connection points: 2
#     Edge 17, Type (0, 0), BuildingBlock: FUNLAD_clean_linker_0, # of connection points: 2
# Relax obj value: 0.087
# Max RMSD: 0.190
# Mean RMSD: 0.156
data_MOF--net-unj--node1-ICAMEG_clean_sbu_1--edge1-FUNLAD_clean_linker_0
_symmetry_space_group_name_H-M    P1
_symmetry_Int_Tables_number       1
_symmetry_cell_setting            triclinic
loop_
_symmetry_equiv_pos_as_xyz
'x, y, z'
_cell_length_a     36.592826
_cell_length_b     40.268226
_cell_length_c     46.163845
_cell_angle_alpha  90.068314
_cell_angle_beta   89.791815
_cell_angle_gamma 120.24995
loop_
_atom_site_label
_atom_site_type_symbol
_atom_site_fract_x
_atom_site_fract_y
_atom_site_fract_z
_atom_type_partial_charge
Co0 Co 0.55895 0.29244 0.58868 0.0
Co1 Co 0.46898 0.20958 0.60983 0.0
O2 O 0.50977 0.24207 0.58011 0.0
C3 C 0.55334 0.34307 0.54461 0.0
O4 O 0.55467 0.365 0.56614 0.0
C5 C 0.49161 0.15697 0.57938 0.0
O6 O 0.53115 0.18496 0.57877 0.0
O7 O 0.51529 0.21341 0.63479 0.0
O8 O 0.56691 0.2743 0.62723 0.0
H9 H 0.41303 0.17395 0.71145 0.0
H10 H 0.55683 0.25442 0.53316 0.0
O11 O 0.55223 0.31145 0.54988 0.0
H12 H 0.68304 0.27073 0.58411 0.0
H13 H 0.69733 0.41245 0.56553 0.0
H14 H 0.5874 0.34371 0.63986 0.0
H15 H 0.63822 0.29353 0.60615 0.0
H16 H 0.63546 0.34884 0.55506 0.0
O17 O 0.46324 0.16213 0.59102 0.0
H18 H 0.46353 0.21466 0.67361 0.0
H19 H 0.38796 0.13442 0.60891 0.0
H20 H 0.6488 0.40725 0.65125 0.0
H21 H 0.60122 0.23181 0.51009 0.0
H22 H 0.70429 0.44206 0.61392 0.0
H23 H 0.66474 0.23975 0.53566 0.0
O24 O 0.5215 0.30938 0.60697 0.0
H25 H 0.39098 0.18889 0.51612 0.0
H26 H 0.39409 0.21905 0.61996 0.0
H27 H 0.33747 0.21573 0.58912 0.0
H28 H 0.33559 0.20043 0.53681 0.0
H29 H 0.4473 0.19288 0.54771 0.0
H30 H 0.33681 0.0927 0.64607 0.0
H31 H 0.34912 0.11248 0.69775 0.0
O32 O 0.47273 0.25567 0.62937 0.0
C33 C 0.5507 0.24277 0.64137 0.0
C34 C 0.40725 0.16507 0.68899 0.0
C35 C 0.3645 0.11945 0.65231 0.0
N36 N 0.42855 0.17707 0.63907 0.0
C37 C 0.43568 0.18805 0.66747 0.0
C38 C 0.39363 0.14315 0.63137 0.0
C39 C 0.37142 0.13057 0.6813 0.0
C40 C 0.58471 0.25843 0.54428 0.0
N41 N 0.59491 0.27537 0.57097 0.0
C42 C 0.6096 0.24537 0.53117 0.0
C43 C 0.64518 0.24975 0.54555 0.0
C44 C 0.65542 0.26708 0.57275 0.0
C45 C 0.62977 0.27975 0.58521 0.0
C46 C 0.67338 0.39756 0.58198 0.0
C47 C 0.61145 0.35867 0.62351 0.0
C48 C 0.63828 0.36152 0.57619 0.0
N49 N 0.60785 0.34254 0.59685 0.0
C50 C 0.64613 0.39464 0.63008 0.0
C51 C 0.67726 0.41416 0.60913 0.0
C52 C 0.49075 0.2918 0.62469 0.0
C53 C 0.3914 0.19549 0.5389 0.0
C54 C 0.39361 0.21255 0.5972 0.0
C55 C 0.3614 0.2106 0.57986 0.0
C56 C 0.36035 0.202 0.55051 0.0
N57 N 0.42387 0.20598 0.58566 0.0
C58 C 0.42313 0.19767 0.5569 0.0
Co59 Co 0.25207 0.45431 0.77014 0.0
Co60 Co 0.26237 0.54199 0.75688 0.0
O61 O 0.26396 0.49659 0.74359 0.0
C62 C 0.33206 0.46859 0.74152 0.0
O63 O 0.34946 0.50512 0.74835 0.0
C64 C 0.2133 0.52235 0.70168 0.0
O65 O 0.19342 0.48578 0.70874 0.0
O66 O 0.20306 0.50859 0.77054 0.0
O67 O 0.20908 0.46168 0.79212 0.0
H68 H 0.22978 0.61818 0.82797 0.0
H69 H 0.24698 0.44077 0.70678 0.0
O70 O 0.29388 0.44505 0.7487 0.0
H71 H 0.10512 0.34866 0.74468 0.0
H72 H 0.22807 0.32318 0.7955 0.0
H73 H 0.24026 0.44278 0.83366 0.0
H74 H 0.16186 0.39253 0.77772 0.0
H75 H 0.24116 0.37622 0.7625 0.0
O76 O 0.24133 0.54733 0.7183 0.0
H77 H 0.23355 0.56197 0.81078 0.0
H78 H 0.28589 0.61806 0.73071 0.0
H79 H 0.22683 0.39034 0.8674 0.0
H80 H 0.19127 0.39708 0.67301 0.0
H81 H 0.22065 0.33 0.84834 0.0
H82 H 0.11969 0.35068 0.69192 0.0
O83 O 0.29734 0.4906 0.79687 0.0
H84 H 0.38129 0.58432 0.68522 0.0
H85 H 0.34115 0.60735 0.78202 0.0
H86 H 0.41499 0.64675 0.76541 0.0
H87 H 0.43547 0.63539 0.71664 0.0
H88 H 0.30785 0.5453 0.70286 0.0
H89 H 0.28231 0.67473 0.74693 0.0
H90 H 0.25426 0.67509 0.79594 0.0
O91 O 0.28438 0.5393 0.7959 0.0
C92 C 0.18926 0.47973 0.78751 0.0
C93 C 0.24215 0.61841 0.80659 0.0
C94 C 0.27158 0.65012 0.7611 0.0
N95 N 0.26011 0.58679 0.76983 0.0
C96 C 0.24444 0.58669 0.79676 0.0
C97 C 0.27341 0.61789 0.752 0.0
C98 C 0.25586 0.65031 0.7886 0.0
C99 C 0.21603 0.42042 0.7152 0.0
N100 N 0.20775 0.41914 0.74419 0.0
C101 C 0.18456 0.39585 0.69597 0.0
C102 C 0.14439 0.36987 0.70659 0.0
C103 C 0.13618 0.36874 0.73618 0.0
C104 C 0.16841 0.39375 0.75477 0.0
C105 C 0.23062 0.3493 0.80405 0.0
C106 C 0.23736 0.41653 0.82519 0.0
C107 C 0.23812 0.37947 0.78549 0.0
N108 N 0.24116 0.41246 0.79613 0.0
C109 C 0.22987 0.38697 0.8444 0.0
C110 C 0.22645 0.35314 0.8337 0.0
C111 C 0.30196 0.52193 0.80708 0.0
C112 C 0.37275 0.58958 0.7065 0.0
C113 C 0.34983 0.60205 0.76087 0.0
C114 C 0.39168 0.62456 0.75153 0.0
C115 C 0.40314 0.6182 0.72415 0.0
N116 N 0.32019 0.57403 0.74344 0.0
C117 C 0.33119 0.56766 0.71656 0.0
Co118 Co 0.7582 0.31506 0.92203 0.0
Co119 Co 0.76854 0.23542 0.91786 0.0
O120 O 0.7555 0.26984 0.93982 0.0
C121 C 0.80647 0.34723 0.97687 0.0
O122 O 0.82727 0.3291 0.97184 0.0
C123 C 0.69461 0.159 0.93254 0.0
O124 O 0.68737 0.15333 0.90461 0.0
O125 O 0.72501 0.22751 0.88846 0.0
O126 O 0.73758 0.28776 0.88414 0.0
H127 H 0.79707 0.18208 0.82766 0.0
H128 H 0.71035 0.28348 0.9766 0.0
O129 O 0.77804 0.34398 0.95938 0.0
H130 H 0.60662 0.28021 0.90704 0.0
H131 H 0.73963 0.43077 0.91936 0.0
H132 H 0.78936 0.35494 0.8657 0.0
H133 H 0.6809 0.30551 0.89248 0.0
H134 H 0.7347 0.37276 0.94116 0.0
O135 O 0.7248 0.1911 0.94166 0.0
H136 H 0.782 0.22597 0.85577 0.0
H137 H 0.78097 0.16983 0.93386 0.0
H138 H 0.79452 0.41256 0.84297 0.0
H139 H 0.63641 0.25827 0.9922 0.0
H140 H 0.76955 0.45092 0.86985 0.0
H141 H 0.58397 0.25648 0.95727 0.0
O142 O 0.81783 0.33404 0.91007 0.0
H143 H 0.82362 0.24581 0.01902 0.0
H144 H 0.85905 0.25557 0.91505 0.0
H145 H 0.91376 0.2678 0.95128 0.0
H146 H 0.89614 0.26281 1.0037 0.0
H147 H 0.76999 0.23428 0.98207 0.0
H148 H 0.79592 0.12527 0.90659 0.0
H149 H 0.80411 0.13127 0.85309 0.0
O150 O 0.81302 0.27926 0.89417 0.0
C151 C 0.72096 0.25319 0.87513 0.0
C152 C 0.79362 0.17921 0.85097 0.0
C153 C 0.79297 0.14732 0.89526 0.0
N154 N 0.78074 0.20056 0.89642 0.0
C155 C 0.78513 0.204 0.867 0.0
C156 C 0.7845 0.17263 0.91059 0.0
C157 C 0.79756 0.1507 0.86525 0.0
C158 C 0.68774 0.28298 0.96134 0.0
N159 N 0.69996 0.29605 0.9337 0.0
C160 C 0.64591 0.26859 0.97027 0.0
C161 C 0.61649 0.26756 0.95065 0.0
C162 C 0.62917 0.28085 0.92246 0.0
C163 C 0.67126 0.29503 0.91431 0.0
C164 C 0.75058 0.41428 0.90741 0.0
C165 C 0.77826 0.37139 0.87749 0.0
C166 C 0.74799 0.38147 0.91968 0.0
N167 N 0.76155 0.36038 0.90466 0.0
C168 C 0.78133 0.40403 0.86453 0.0
C169 C 0.76735 0.42555 0.87963 0.0
C170 C 0.83239 0.31593 0.89597 0.0
C171 C 0.83164 0.24793 0.99625 0.0
C172 C 0.85116 0.25353 0.93781 0.0
C173 C 0.88225 0.26037 0.95823 0.0
C174 C 0.87234 0.25754 0.98763 0.0
N175 N 0.81125 0.24399 0.94642 0.0
C176 C 0.80134 0.24125 0.97522 0.0
Co177 Co 0.45519 0.72188 0.09214 0.0
Co178 Co 0.55591 0.79826 0.09842 0.0
O179 O 0.50432 0.76734 0.07598 0.0
C180 C 0.46566 0.69008 0.03618 0.0
O181 O 0.50508 0.70135 0.04285 0.0
C182 C 0.53642 0.85606 0.07429 0.0
O183 O 0.49718 0.83393 0.08296 0.0
O184 O 0.52274 0.80479 0.13011 0.0
O185 O 0.46552 0.74578 0.13141 0.0
H186 H 0.64497 0.83805 0.18833 0.0
H187 H 0.44476 0.75867 0.03972 0.0
O188 O 0.44268 0.69669 0.05328 0.0
H189 H 0.34894 0.76355 0.11278 0.0
H190 H 0.30533 0.61085 0.09077 0.0
H191 H 0.43854 0.67619 0.14593 0.0
H192 H 0.39164 0.73367 0.12436 0.0
H193 H 0.36726 0.6692 0.07141 0.0
O194 O 0.56389 0.84615 0.07904 0.0
H195 H 0.58056 0.79868 0.15956 0.0
H196 H 0.64092 0.86536 0.08465 0.0
H197 H 0.37728 0.61808 0.16621 0.0
H198 H 0.40225 0.78845 0.02711 0.0
H199 H 0.31006 0.585 0.13857 0.0
H200 H 0.35402 0.79115 0.06383 0.0
O201 O 0.49087 0.69923 0.10199 0.0
H202 H 0.5965 0.79602 0.99467 0.0
H203 H 0.6228 0.77652 0.0962 0.0
H204 H 0.66225 0.76651 0.05705 0.0
H205 H 0.64925 0.77635 1.00585 0.0
H206 H 0.55749 0.80543 0.0345 0.0
H207 H 0.70587 0.90567 0.11266 0.0
H208 H 0.70822 0.892 0.16486 0.0
O209 O 0.54991 0.75109 0.118 0.0
C210 C 0.48905 0.77896 0.1424 0.0
C211 C 0.64438 0.84423 0.16558 0.0
C212 C 0.67854 0.88221 0.12312 0.0
N213 N 0.60709 0.82956 0.12043 0.0
C214 C 0.60803 0.82198 0.14917 0.0
C215 C 0.64164 0.85935 0.10739 0.0
C216 C 0.67984 0.87451 0.1524 0.0
C217 C 0.42353 0.75939 0.05571 0.0
N218 N 0.42062 0.74435 0.08271 0.0
C219 C 0.39967 0.77644 0.04849 0.0
C220 C 0.37267 0.778 0.06912 0.0
C221 C 0.36984 0.76255 0.0966 0.0
C222 C 0.39421 0.74577 0.10306 0.0
C223 C 0.33441 0.62505 0.10305 0.0
C224 C 0.40933 0.66208 0.13384 0.0
C225 C 0.36962 0.65806 0.09217 0.0
N226 N 0.40638 0.67627 0.10763 0.0
C227 C 0.37478 0.62913 0.1454 0.0
C228 C 0.33709 0.61057 0.12987 0.0
C229 C 0.52633 0.7147 0.11506 0.0
C230 C 0.60252 0.79174 0.0169 0.0
C231 C 0.61685 0.78074 0.07398 0.0
C232 C 0.63936 0.77512 0.0519 0.0
C233 C 0.63208 0.78066 0.02318 0.0
N234 N 0.58798 0.7917 0.06765 0.0
C235 C 0.58063 0.79714 0.03954 0.0
Co236 Co 0.77115 0.56841 0.27419 0.0
Co237 Co 0.76606 0.48137 0.26773 0.0
O238 O 0.75928 0.52297 0.25109 0.0
C239 C 0.69338 0.55128 0.2389 0.0
O240 O 0.68557 0.51678 0.23178 0.0
C241 C 0.81095 0.4956 0.21082 0.0
O242 O 0.82916 0.53281 0.21514 0.0
O243 O 0.82592 0.5188 0.27801 0.0
O244 O 0.81837 0.56707 0.29491 0.0
H245 H 0.81219 0.42079 0.34348 0.0
H246 H 0.76899 0.57164 0.21004 0.0
O247 O 0.72494 0.57306 0.25474 0.0
H248 H 0.91127 0.67538 0.23759 0.0
H249 H 0.79059 0.70005 0.29095 0.0
H250 H 0.78899 0.58853 0.33633 0.0
H251 H 0.8598 0.63483 0.27496 0.0
H252 H 0.77705 0.6438 0.26162 0.0
O253 O 0.7851 0.47212 0.2294 0.0
H254 H 0.80215 0.47184 0.32234 0.0
H255 H 0.74569 0.40333 0.24769 0.0
H256 H 0.80302 0.64436 0.36642 0.0
H257 H 0.81926 0.61182 0.17199 0.0
H258 H 0.80388 0.70065 0.34373 0.0
H259 H 0.89107 0.66409 0.18567 0.0
O260 O 0.72995 0.53467 0.30418 0.0
H261 H 0.64129 0.41983 0.20071 0.0
H262 H 0.69188 0.41866 0.29933 0.0
H263 H 0.61768 0.37295 0.28674 0.0
H264 H 0.59195 0.37324 0.23708 0.0
H265 H 0.71514 0.46549 0.21439 0.0
H266 H 0.75544 0.35167 0.26792 0.0
H267 H 0.78877 0.36018 0.3162 0.0
O268 O 0.74643 0.4882 0.30674 0.0
C269 C 0.83978 0.55026 0.29186 0.0
C270 C 0.79754 0.4167 0.32245 0.0
C271 C 0.76574 0.37793 0.28003 0.0
N272 N 0.77316 0.44051 0.28388 0.0
C273 C 0.7917 0.44548 0.31039 0.0
C274 C 0.76041 0.40734 0.26865 0.0
C275 C 0.78442 0.38272 0.30712 0.0
C276 C 0.79993 0.5946 0.21622 0.0
N277 N 0.81123 0.60103 0.24474 0.0
C278 C 0.82838 0.61715 0.19455 0.0
C279 C 0.86869 0.64642 0.20223 0.0
C280 C 0.88005 0.65274 0.23136 0.0
C281 C 0.85078 0.6296 0.25242 0.0
C282 C 0.79037 0.67573 0.30108 0.0
C283 C 0.78952 0.61299 0.32627 0.0
C284 C 0.78263 0.64374 0.2846 0.0
N285 N 0.7825 0.61297 0.29722 0.0
C286 C 0.79739 0.64449 0.34343 0.0
C287 C 0.79783 0.67605 0.33069 0.0
C288 C 0.72808 0.50565 0.31673 0.0
C289 C 0.65212 0.41942 0.22242 0.0
C290 C 0.68085 0.41931 0.27778 0.0
C291 C 0.63883 0.39318 0.27072 0.0
C292 C 0.62444 0.39332 0.24285 0.0
N293 N 0.70779 0.44491 0.25766 0.0
C294 C 0.69393 0.44512 0.23026 0.0
Co295 Co 0.2782 0.71971 0.42231 0.0
Co296 Co 0.26633 0.79804 0.41108 0.0
O297 O 0.28111 0.76713 0.43611 0.0
C298 C 0.22997 0.69412 0.47752 0.0
O299 O 0.20923 0.71133 0.46955 0.0
C300 C 0.34636 0.85578 0.44108 0.0
O301 O 0.35875 0.83043 0.44261 0.0
O302 O 0.30784 0.80187 0.38121 0.0
O303 O 0.297 0.74185 0.38261 0.0
H304 H 0.2279 0.83431 0.31664 0.0
H305 H 0.32682 0.75527 0.47587 0.0
O306 O 0.25917 0.69571 0.46148 0.0
H307 H 0.43001 0.75535 0.40682 0.0
H308 H 0.29863 0.60537 0.43036 0.0
H309 H 0.24497 0.67193 0.36943 0.0
H310 H 0.35543 0.7286 0.39282 0.0
H311 H 0.3035 0.66573 0.4469 0.0
O312 O 0.31125 0.84714 0.42928 0.0
H313 H 0.24586 0.79576 0.34878 0.0
H314 H 0.25674 0.86673 0.42023 0.0
H315 H 0.23979 0.61182 0.35194 0.0
H316 H 0.401 0.7817 0.49095 0.0
H317 H 0.26674 0.57811 0.38251 0.0
H318 H 0.45321 0.78201 0.45625 0.0
O319 O 0.21828 0.69843 0.41076 0.0
H320 H 0.21919 0.80301 0.51253 0.0
H321 H 0.17588 0.77823 0.4101 0.0
H322 H 0.12405 0.77162 0.44725 0.0
H323 H 0.14563 0.78413 0.49889 0.0
H324 H 0.26989 0.8089 0.4747 0.0
H325 H 0.23927 0.90623 0.3888 0.0
H326 H 0.22453 0.89 0.33663 0.0
O327 O 0.22012 0.75051 0.39195 0.0
C328 C 0.31143 0.77451 0.37035 0.0
C329 C 0.23415 0.84161 0.33935 0.0
C330 C 0.24058 0.882 0.37985 0.0
N331 N 0.25207 0.82881 0.38638 0.0
C332 C 0.24425 0.81983 0.35767 0.0
C333 C 0.25056 0.85957 0.39752 0.0
C334 C 0.2323 0.87287 0.35058 0.0
C335 C 0.34926 0.75493 0.46076 0.0
N336 N 0.3368 0.74045 0.4335 0.0
C337 C 0.39126 0.77011 0.46937 0.0
C338 C 0.42056 0.77034 0.44987 0.0
C339 C 0.40758 0.75544 0.42212 0.0
C340 C 0.36533 0.74052 0.41426 0.0
C341 C 0.28689 0.61985 0.41681 0.0
C342 C 0.25708 0.6576 0.38275 0.0
C343 C 0.28951 0.65402 0.42607 0.0
N344 N 0.27493 0.67256 0.40901 0.0
C345 C 0.25392 0.62349 0.37278 0.0
C346 C 0.269 0.60457 0.38995 0.0
C347 C 0.20192 0.7142 0.39587 0.0
C348 C 0.20944 0.79761 0.49009 0.0
C349 C 0.1855 0.7836 0.43253 0.0
C350 C 0.15602 0.7799 0.45346 0.0
C351 C 0.16816 0.78696 0.48243 0.0
N352 N 0.22597 0.79414 0.44021 0.0
C353 C 0.23807 0.80107 0.46856 0.0
C354 C 0.50228 0.11646 0.54262 0.0
C355 C 0.47916 0.11932 0.56592 0.0
C356 C 0.48869 0.081 0.52897 0.0
C357 C 0.45224 0.04763 0.53881 0.0
C358 C 0.43009 0.05036 0.5627 0.0
C359 C 0.44298 0.08588 0.57583 0.0
C360 C 0.43652 1.00959 0.5247 0.0
C361 C 0.43643 1.00542 0.49575 0.0
C362 C 0.41528 0.96708 0.48149 0.0
C363 C 0.39191 0.96187 0.45617 0.0
C364 C 0.36987 0.92576 0.44297 0.0
C365 C 0.37187 0.89432 0.45428 0.0
H366 H 0.43615 0.93914 0.51194 0.0
C367 C 0.39664 0.89981 0.47899 0.0
C368 C 0.41778 0.93579 0.49269 0.0
H369 H 0.39864 0.87606 0.48821 0.0
H370 H 0.53026 0.14177 0.53452 0.0
H371 H 0.50684 0.07965 0.51089 0.0
H372 H 0.40208 0.02507 0.5708 0.0
H373 H 0.42466 0.08714 0.59385 0.0
H374 H 0.4206 0.98412 0.53829 0.0
H375 H 0.44816 0.03066 0.48197 0.0
H376 H 0.38969 0.98556 0.44702 0.0
H377 H 0.35117 0.92242 0.42388 0.0
C378 C 0.48842 0.35259 0.63428 0.0
C379 C 0.47417 0.31371 0.64053 0.0
C380 C 0.4707 0.37211 0.64842 0.0
C381 C 0.4385 0.35317 0.66933 0.0
C382 C 0.42505 0.31463 0.67584 0.0
C383 C 0.44252 0.2952 0.66172 0.0
C384 C 0.41636 0.37116 0.68413 0.0
C385 C 0.42739 0.40857 0.68255 0.0
C386 C 0.40245 0.4239 0.69721 0.0
C387 C 0.4225 0.46279 0.70544 0.0
C388 C 0.39982 0.47763 0.71965 0.0
C389 C 0.35647 0.45388 0.72573 0.0
H390 H 0.34157 0.37092 0.69547 0.0
C391 C 0.33623 0.41528 0.71672 0.0
C392 C 0.35878 0.40055 0.70253 0.0
H393 H 0.30274 0.39624 0.72056 0.0
H394 H 0.51272 0.36778 0.61808 0.0
H395 H 0.48187 0.40162 0.64238 0.0
H396 H 0.40037 0.29913 0.69178 0.0
H397 H 0.43073 0.26538 0.66733 0.0
H398 H 0.38945 0.3521 0.69757 0.0
H399 H 0.45597 0.42895 0.67118 0.0
H400 H 0.45594 0.48162 0.70126 0.0
H401 H 0.41634 0.50756 0.72608 0.0
C402 C 0.90389 0.37506 0.8895 0.0
C403 C 0.87306 0.33816 0.8802 0.0
C404 C 0.94276 0.39533 0.87493 0.0
C405 C 0.95115 0.37935 0.85045 0.0
C406 C 0.9199 0.34299 0.84075 0.0
C407 C 0.88154 0.32236 0.85568 0.0
C408 C 0.99198 0.39996 0.83445 0.0
C409 C 0.02941 0.42053 0.84795 0.0
C410 C 0.07047 0.43715 0.83229 0.0
C411 C 0.10414 0.43548 0.84522 0.0
C412 C 0.14269 0.44945 0.83065 0.0
C413 C 0.14888 0.46654 0.80318 0.0
H414 H 0.05143 0.45681 0.79463 0.0
C415 C 0.1157 0.46951 0.79061 0.0
C416 C 0.07664 0.45455 0.8049 0.0
H417 H 0.11959 0.48249 0.76945 0.0
H418 H 0.89825 0.388 0.9083 0.0
H419 H 0.96598 0.42364 0.88263 0.0
H420 H 0.9255 0.33015 0.82185 0.0
H421 H 0.85833 0.29413 0.84782 0.0
H422 H 0.99152 0.39502 0.81126 0.0
H423 H 0.0302 0.42198 0.87147 0.0
H424 H 0.10026 0.42244 0.86637 0.0
H425 H 0.16776 0.44697 0.84096 0.0
C426 C 0.59194 0.9187 0.05292 0.0
C427 C 0.54896 0.89216 0.05815 0.0
C428 C 0.60406 0.95222 0.03697 0.0
C429 C 0.57346 0.96004 0.02575 0.0
C430 C 0.5305 0.93342 0.03084 0.0
C431 C 0.51835 0.90002 0.04708 0.0
C432 C 0.58539 0.99447 1.00732 0.0
C433 C 0.62254 0.0277 0.01002 0.0
C434 C 0.63681 0.06165 0.99058 0.0
C435 C 0.66862 0.09782 1.00034 0.0
C436 C 0.68601 0.12978 0.98192 0.0
C437 C 0.67239 0.12628 0.95305 0.0
H438 H 0.59837 0.0309 0.95332 0.0
C439 C 0.63975 0.09032 0.94344 0.0
C440 C 0.62213 0.05835 0.96196 0.0
H441 H 0.62861 0.08652 0.92131 0.0
H442 H 0.61638 0.9135 0.06097 0.0
H443 H 0.63742 0.97134 0.03281 0.0
H444 H 0.50622 0.93846 0.02221 0.0
H445 H 0.48496 0.88005 0.05051 0.0
H446 H 0.56235 0.99246 0.99161 0.0
H447 H 0.64359 0.0306 0.02761 0.0
H448 H 0.68073 0.10125 0.02219 0.0
H449 H 0.71119 0.15693 0.99009 0.0
C450 C 0.64239 0.55166 0.20233 0.0
C451 C 0.6678 0.56727 0.22703 0.0
C452 C 0.62198 0.56979 0.18986 0.0
C453 C 0.62632 0.60374 0.20211 0.0
C454 C 0.65053 0.61827 0.22737 0.0
C455 C 0.671 0.60043 0.23961 0.0
C456 C 0.60853 0.62648 0.18902 0.0
C457 C 0.58321 0.61629 0.16557 0.0
C458 C 0.56895 0.64191 0.15283 0.0
C459 C 0.53054 0.62574 0.13767 0.0
C460 C 0.51651 0.6492 0.12547 0.0
C461 C 0.54089 0.68949 0.12787 0.0
H462 H 0.6242 0.69602 0.16528 0.0
C463 C 0.57971 0.70564 0.14261 0.0
C464 C 0.59365 0.68224 0.15479 0.0
H465 H 0.59963 0.73651 0.14471 0.0
H466 H 0.63943 0.52621 0.19207 0.0
H467 H 0.6039 0.55752 0.17035 0.0
H468 H 0.65448 0.64419 0.23747 0.0
H469 H 0.68998 0.61312 0.2588 0.0
H470 H 0.61703 0.65352 0.1996 0.0
H471 H 0.57156 0.5883 0.15571 0.0
H472 H 0.5111 0.59482 0.1355 0.0
H473 H 0.48654 0.63569 0.11417 0.0
C474 C 0.14141 0.70606 0.36525 0.0
C475 C 0.15997 0.68951 0.38221 0.0
C476 C 0.10161 0.68322 0.35281 0.0
C477 C 0.07904 0.64315 0.35719 0.0
C478 C 0.09804 0.62644 0.3734 0.0
C479 C 0.13796 0.64933 0.3859 0.0
C480 C 0.03591 0.61826 0.34495 0.0
C481 C 1.00895 0.63132 0.34043 0.0
C482 C 0.9652 0.60801 0.32884 0.0
C483 C 0.93751 0.62217 0.33279 0.0
C484 C 0.89684 0.60294 0.32128 0.0
C485 C 0.88255 0.56894 0.30516 0.0
H486 H 0.97155 0.5621 0.30904 0.0
C487 C 0.90999 0.55429 0.30139 0.0
C488 C 0.95097 0.57365 0.31308 0.0
H489 H 0.9001 0.52826 0.28903 0.0
H490 H 0.15757 0.73678 0.3615 0.0
H491 H 0.08892 0.69714 0.33953 0.0
H492 H 0.08165 0.59564 0.37684 0.0
H493 H 0.1514 0.63551 0.39858 0.0
H494 H 0.02556 0.58817 0.34125 0.0
H495 H 0.01863 0.6606 0.34676 0.0
H496 H 0.94746 0.64853 0.34474 0.0
H497 H 0.87679 0.61519 0.32484 0.0
C498 C 0.57517 0.3973 0.50928 0.0
C499 C 0.5623 0.35854 0.51464 0.0
C500 C 0.59021 0.41357 0.4819 0.0
C501 C 0.59245 0.39127 0.45915 0.0
C502 C 0.57734 0.35203 0.46424 0.0
C503 C 0.56256 0.33587 0.49159 0.0
C504 C 0.61288 0.40766 0.43058 0.0
C505 C 0.63029 0.44489 0.42262 0.0
C506 C 0.65515 0.46017 0.39534 0.0
C507 C 0.65748 0.4924 0.38173 0.0
C508 C 0.68126 0.50751 0.35628 0.0
C509 C 0.70367 0.49093 0.34413 0.0
H510 H 0.67896 0.42044 0.39394 0.0
C511 C 0.70214 0.4593 0.35827 0.0
C512 C 0.67835 0.4442 0.3835 0.0
H513 H 0.71945 0.44604 0.34994 0.0
H514 H 0.57541 0.41563 0.52656 0.0
H515 H 0.6012 0.4438 0.47924 0.0
H516 H 0.57838 0.33395 0.44723 0.0
H517 H 0.55275 0.30588 0.49488 0.0
H518 H 0.61476 0.38781 0.41553 0.0
H519 H 0.6266 0.46505 0.4361 0.0
H520 H 0.64051 0.50569 0.39065 0.0
H521 H 0.68194 0.53205 0.34612 0.0
C522 C 0.23513 0.64712 0.51014 0.0
C523 C 0.21929 0.67194 0.5049 0.0
C524 C 0.22605 0.62652 0.53604 0.0
C525 C 0.20094 0.6303 0.55744 0.0
C526 C 0.18506 0.65507 0.55222 0.0
C527 C 0.19377 0.67542 0.5261 0.0
C528 C 0.19421 0.61159 0.58627 0.0
C529 C 0.1951 0.57887 0.59067 0.0
C530 C 0.19558 0.5638 0.62 0.0
C531 C 0.18196 0.52457 0.62364 0.0
C532 C 0.18607 0.51047 0.65047 0.0
C533 C 0.20472 0.53559 0.67397 0.0
H534 H 0.22515 0.61917 0.64181 0.0
C535 C 0.21763 0.57467 0.67041 0.0
C536 C 0.21313 0.58861 0.64383 0.0
H537 H 0.23205 0.59482 0.68808 0.0
H538 H 0.2549 0.64373 0.49429 0.0
H539 H 0.23999 0.6087 0.53954 0.0
H540 H 0.1661 0.6589 0.5685 0.0
H541 H 0.18122 0.6944 0.52277 0.0
H542 H 0.18877 0.62566 0.6045 0.0
H543 H 0.19624 0.5627 0.57218 0.0
H544 H 0.16875 0.5049 0.60556 0.0
H545 H 0.17604 0.48026 0.65251 0.0
C546 C 0.69201 0.27195 0.83326 0.0
C547 C 0.69691 0.24358 0.84753 0.0
C548 C 0.67012 0.26401 0.8072 0.0
C549 C 0.65287 0.22755 0.79427 0.0
C550 C 0.65675 0.19878 0.80874 0.0
C551 C 0.67877 0.20673 0.83505 0.0
C552 C 0.62993 0.21911 0.76614 0.0
C553 C 0.64036 0.24665 0.7459 0.0
C554 C 0.61733 0.24228 0.7183 0.0
C555 C 0.63571 0.27284 0.69845 0.0
C556 C 0.61442 0.27245 0.67337 0.0
C557 C 0.57395 0.24131 0.66723 0.0
H558 H 0.56142 0.18665 0.72683 0.0
C559 C 0.55575 0.2101 0.68666 0.0
C560 C 0.57712 0.21059 0.71201 0.0
H561 H 0.52453 0.18572 0.6827 0.0
H562 H 0.70507 0.30058 0.84219 0.0
H563 H 0.66638 0.28655 0.79745 0.0
H564 H 0.64326 0.17028 0.79947 0.0
H565 H 0.68174 0.18413 0.84548 0.0
H566 H 0.60496 0.18981 0.76209 0.0
H567 H 0.66792 0.27477 0.74972 0.0
H568 H 0.66651 0.29772 0.70263 0.0
H569 H 0.6296 0.2971 0.65909 0.0
C570 C 0.33414 0.57463 0.84369 0.0
C571 C 0.32782 0.53918 0.83348 0.0
C572 C 0.3575 0.59129 0.86864 0.0
C573 C 0.37462 0.5727 0.88461 0.0
C574 C 0.36956 0.53784 0.8741 0.0
C575 C 0.34621 0.5211 0.8488 0.0
C576 C 0.3976 0.58947 0.91221 0.0
C577 C 0.38678 0.61003 0.9297 0.0
C578 C 0.40811 0.62884 0.95724 0.0
C579 C 0.38636 0.64004 0.97629 0.0
C580 C 0.40519 0.65973 1.00174 0.0
C581 C 0.44661 0.66909 0.00888 0.0
H582 H 0.46774 0.63054 0.94982 0.0
C583 C 0.46868 0.65795 0.9899 0.0
C584 C 0.4496 0.63796 0.96426 0.0
H585 H 0.50066 0.6648 0.99476 0.0
H586 H 0.32091 0.58975 0.83249 0.0
H587 H 0.36212 0.61894 0.87528 0.0
H588 H 0.38289 0.52314 0.8858 0.0
H589 H 0.34219 0.4939 0.84147 0.0
H590 H 0.42212 0.58338 0.91865 0.0
H591 H 0.3594 0.61241 0.924 0.0
H592 H 0.35453 0.63371 0.97142 0.0
H593 H 0.38713 0.66784 0.01572 0.0
C594 C 0.83871 0.36979 0.0263 0.0
C595 C 0.81536 0.37173 1.00291 0.0
C596 C 0.84501 0.39196 0.05126 0.0
C597 C 0.82821 0.41665 0.05319 0.0
C598 C 0.80623 0.41946 0.02939 0.0
C599 C 0.79958 0.39712 1.00469 0.0
C600 C 0.83217 0.43951 0.07961 0.0
C601 C 0.83489 0.42817 0.10657 0.0
C602 C 0.83149 0.44733 0.13323 0.0
C603 C 0.8145 0.42501 0.15828 0.0
C604 C 0.80833 0.44093 0.18338 0.0
C605 C 0.81968 0.47989 0.18429 0.0
H606 H 0.85823 0.50503 0.1156 0.0
C607 C 0.83823 0.50279 0.15961 0.0
C608 C 0.84397 0.48665 0.13425 0.0
H609 H 0.84756 0.53294 0.1597 0.0
H610 H 0.85153 0.35073 0.02552 0.0
H611 H 0.86312 0.38977 0.06887 0.0
H612 H 0.79323 0.4384 0.03013 0.0
H613 H 0.78185 0.39972 0.98698 0.0
H614 H 0.82809 0.46424 0.07691 0.0
H615 H 0.83498 0.40144 0.10942 0.0
H616 H 0.80493 0.39478 0.15825 0.0
H617 H 0.79443 0.42251 0.20208 0.0
C618 C 0.36353 0.81461 0.33123 0.0
C619 C 0.33057 0.77904 0.3413 0.0
C620 C 0.38225 0.81723 0.30403 0.0
C621 C 0.3675 0.7844 0.28638 0.0
C622 C 0.33376 0.74937 0.29625 0.0
C623 C 0.31587 0.7466 0.32342 0.0
C624 C 0.38558 0.78457 0.2575 0.0
C625 C 0.42642 0.80752 0.24979 0.0
C626 C 0.44372 0.80048 0.22266 0.0
C627 C 0.47751 0.83105 0.20779 0.0
C628 C 0.49318 0.8244 0.18191 0.0
C629 C 0.47544 0.78694 0.17063 0.0
H630 H 0.40298 0.7383 0.22343 0.0
C631 C 0.44284 0.75635 0.18627 0.0
C632 C 0.42747 0.76294 0.21193 0.0
H633 H 0.42889 0.72698 0.1787 0.0
H634 H 0.37535 0.8401 0.34458 0.0
H635 H 0.40775 0.84484 0.2968 0.0
H636 H 0.32159 0.72368 0.28306 0.0
H637 H 0.29019 0.71888 0.33034 0.0
H638 H 0.36451 0.76215 0.24265 0.0
H639 H 0.44785 0.83084 0.26387 0.0
H640 H 0.49121 0.86016 0.21588 0.0
H641 H 0.51852 0.84858 0.17052 0.0
loop_
_geom_bond_atom_site_label_1
_geom_bond_atom_site_label_2
_geom_bond_distance
_geom_bond_site_symmetry_2
_ccdc_geom_bond_type
Co0 O2 2.143 . S
Co0 O8 2.074 . S
Co0 O11 2.093 . S
Co0 O24 2.097 . S
Co0 N41 2.151 . S
Co0 N49 2.214 . S
Co1 O2 2.160 . S
Co1 O7 2.058 . S
Co1 O17 2.057 . S
Co1 O32 2.037 . S
Co1 N36 2.145 . S
Co1 N57 2.257 . S
O2 Co0 2.143 . S
O2 Co1 2.160 . S
C3 O4 1.278 . S
C3 O11 1.224 . S
O4 C3 1.278 . S
C5 O6 1.245 . S
C5 O17 1.232 . S
O6 C5 1.245 . S
O7 Co1 2.058 . S
O7 C33 1.269 . S
O8 Co0 2.074 . S
O8 C33 1.257 . S
H9 C34 0.930 . S
H10 C40 0.930 . S
O11 Co0 2.093 . S
O11 C3 1.224 . S
H12 C44 0.929 . S
H13 C46 0.930 . S
H14 C47 0.930 . S
H15 C45 0.929 . S
H16 C48 0.928 . S
O17 Co1 2.057 . S
O17 C5 1.232 . S
H18 C37 0.929 . S
H19 C38 0.929 . S
H20 C50 0.931 . S
H21 C42 0.929 . S
H22 C51 0.930 . S
H23 C43 0.931 . S
O24 Co0 2.097 . S
O24 C52 1.214 . S
H25 C53 0.929 . S
H26 C54 0.929 . S
H27 C55 0.930 . S
H28 C56 0.929 . S
H29 C58 0.930 . S
H30 C35 0.930 . S
H31 C39 0.930 . S
O32 Co1 2.037 . S
O32 C52 1.234 . S
C33 O7 1.269 . S
C33 O8 1.257 . S
C34 H9 0.930 . S
C34 C37 1.388 . S
C34 C39 1.418 . S
C35 H30 0.930 . S
C35 C38 1.404 . S
C35 C39 1.353 . S
N36 Co1 2.145 . S
N36 C37 1.397 . S
N36 C38 1.334 . S
C37 H18 0.929 . S
C37 C34 1.388 . S
C37 N36 1.397 . S
C38 H19 0.929 . S
C38 C35 1.404 . S
C38 N36 1.334 . S
C39 H31 0.930 . S
C39 C34 1.418 . S
C39 C35 1.353 . S
C40 H10 0.930 . S
C40 N41 1.330 . S
C40 C42 1.446 . S
N41 Co0 2.151 . S
N41 C40 1.330 . S
N41 C45 1.418 . S
C42 H21 0.929 . S
C42 C40 1.446 . S
C42 C43 1.332 . S
C43 H23 0.931 . S
C43 C42 1.332 . S
C43 C44 1.267 . S
C44 H12 0.929 . S
C44 C43 1.267 . S
C44 C45 1.251 . S
C45 H15 0.929 . S
C45 N41 1.418 . S
C45 C44 1.251 . S
C46 H13 0.930 . S
C46 C48 1.406 . S
C46 C51 1.261 . S
C47 H14 0.930 . S
C47 N49 1.325 . S
C47 C50 1.357 . S
C48 H16 0.928 . S
C48 C46 1.406 . S
C48 N49 1.261 . S
N49 Co0 2.214 . S
N49 C47 1.325 . S
N49 C48 1.261 . S
C50 H20 0.931 . S
C50 C47 1.357 . S
C50 C51 1.312 . S
C51 H22 0.930 . S
C51 C46 1.261 . S
C51 C50 1.312 . S
C52 O24 1.214 . S
C52 O32 1.234 . S
C53 H25 0.929 . S
C53 C56 1.391 . S
C53 C58 1.391 . S
C54 H26 0.929 . S
C54 C55 1.390 . S
C54 N57 1.391 . S
C55 H27 0.930 . S
C55 C54 1.390 . S
C55 C56 1.392 . S
C56 H28 0.929 . S
C56 C53 1.391 . S
C56 C55 1.392 . S
N57 Co1 2.257 . S
N57 C54 1.391 . S
N57 C58 1.388 . S
C58 H29 0.930 . S
C58 C53 1.391 . S
C58 N57 1.388 . S
Co59 O61 2.143 . S
Co59 O67 2.074 . S
Co59 O70 2.093 . S
Co59 O83 2.097 . S
Co59 N100 2.151 . S
Co59 N108 2.214 . S
Co60 O61 2.160 . S
Co60 O66 2.058 . S
Co60 O76 2.057 . S
Co60 O91 2.037 . S
Co60 N95 2.145 . S
Co60 N116 2.257 . S
O61 Co59 2.143 . S
O61 Co60 2.160 . S
C62 O63 1.278 . S
C62 O70 1.224 . S
O63 C62 1.278 . S
C64 O65 1.245 . S
C64 O76 1.232 . S
O65 C64 1.245 . S
O66 Co60 2.058 . S
O66 C92 1.269 . S
O67 Co59 2.074 . S
O67 C92 1.257 . S
H68 C93 0.930 . S
H69 C99 0.930 . S
O70 Co59 2.093 . S
O70 C62 1.224 . S
H71 C103 0.929 . S
H72 C105 0.930 . S
H73 C106 0.930 . S
H74 C104 0.929 . S
H75 C107 0.928 . S
O76 Co60 2.057 . S
O76 C64 1.232 . S
H77 C96 0.929 . S
H78 C97 0.929 . S
H79 C109 0.931 . S
H80 C101 0.929 . S
H81 C110 0.930 . S
H82 C102 0.931 . S
O83 Co59 2.097 . S
O83 C111 1.214 . S
H84 C112 0.929 . S
H85 C113 0.929 . S
H86 C114 0.930 . S
H87 C115 0.929 . S
H88 C117 0.930 . S
H89 C94 0.930 . S
H90 C98 0.930 . S
O91 Co60 2.037 . S
O91 C111 1.234 . S
C92 O66 1.269 . S
C92 O67 1.257 . S
C93 H68 0.930 . S
C93 C96 1.388 . S
C93 C98 1.418 . S
C94 H89 0.930 . S
C94 C97 1.404 . S
C94 C98 1.353 . S
N95 Co60 2.145 . S
N95 C96 1.397 . S
N95 C97 1.334 . S
C96 H77 0.929 . S
C96 C93 1.388 . S
C96 N95 1.397 . S
C97 H78 0.929 . S
C97 C94 1.404 . S
C97 N95 1.334 . S
C98 H90 0.930 . S
C98 C93 1.418 . S
C98 C94 1.353 . S
C99 H69 0.930 . S
C99 N100 1.330 . S
C99 C101 1.446 . S
N100 Co59 2.151 . S
N100 C99 1.330 . S
N100 C104 1.418 . S
C101 H80 0.929 . S
C101 C99 1.446 . S
C101 C102 1.332 . S
C102 H82 0.931 . S
C102 C101 1.332 . S
C102 C103 1.267 . S
C103 H71 0.929 . S
C103 C102 1.267 . S
C103 C104 1.251 . S
C104 H74 0.929 . S
C104 N100 1.418 . S
C104 C103 1.251 . S
C105 H72 0.930 . S
C105 C107 1.406 . S
C105 C110 1.261 . S
C106 H73 0.930 . S
C106 N108 1.325 . S
C106 C109 1.357 . S
C107 H75 0.928 . S
C107 C105 1.406 . S
C107 N108 1.261 . S
N108 Co59 2.214 . S
N108 C106 1.325 . S
N108 C107 1.261 . S
C109 H79 0.931 . S
C109 C106 1.357 . S
C109 C110 1.312 . S
C110 H81 0.930 . S
C110 C105 1.261 . S
C110 C109 1.312 . S
C111 O83 1.214 . S
C111 O91 1.234 . S
C112 H84 0.929 . S
C112 C115 1.391 . S
C112 C117 1.391 . S
C113 H85 0.929 . S
C113 C114 1.390 . S
C113 N116 1.391 . S
C114 H86 0.930 . S
C114 C113 1.390 . S
C114 C115 1.392 . S
C115 H87 0.929 . S
C115 C112 1.391 . S
C115 C114 1.392 . S
N116 Co60 2.257 . S
N116 C113 1.391 . S
N116 C117 1.388 . S
C117 H88 0.930 . S
C117 C112 1.391 . S
C117 N116 1.388 . S
Co118 O120 2.143 . S
Co118 O126 2.074 . S
Co118 O129 2.093 . S
Co118 O142 2.097 . S
Co118 N159 2.151 . S
Co118 N167 2.214 . S
Co119 O120 2.160 . S
Co119 O125 2.058 . S
Co119 O135 2.057 . S
Co119 O150 2.037 . S
Co119 N154 2.145 . S
Co119 N175 2.257 . S
O120 Co118 2.143 . S
O120 Co119 2.160 . S
C121 O122 1.278 . S
C121 O129 1.224 . S
O122 C121 1.278 . S
C123 O124 1.245 . S
C123 O135 1.232 . S
O124 C123 1.245 . S
O125 Co119 2.058 . S
O125 C151 1.269 . S
O126 Co118 2.074 . S
O126 C151 1.257 . S
H127 C152 0.930 . S
H128 C158 0.930 . S
O129 Co118 2.093 . S
O129 C121 1.224 . S
H130 C162 0.929 . S
H131 C164 0.930 . S
H132 C165 0.930 . S
H133 C163 0.929 . S
H134 C166 0.928 . S
O135 Co119 2.057 . S
O135 C123 1.232 . S
H136 C155 0.929 . S
H137 C156 0.929 . S
H138 C168 0.931 . S
H139 C160 0.929 . S
H140 C169 0.930 . S
H141 C161 0.931 . S
O142 Co118 2.097 . S
O142 C170 1.214 . S
H143 C171 0.929 1_554 S
H144 C172 0.929 . S
H145 C173 0.930 . S
H146 C174 0.960 . S
H147 C176 0.930 . S
H148 C153 0.930 . S
H149 C157 0.930 . S
O150 Co119 2.037 . S
O150 C170 1.234 . S
C151 O125 1.269 . S
C151 O126 1.257 . S
C152 H127 0.930 . S
C152 C155 1.388 . S
C152 C157 1.418 . S
C153 H148 0.930 . S
C153 C156 1.404 . S
C153 C157 1.353 . S
N154 Co119 2.145 . S
N154 C155 1.397 . S
N154 C156 1.334 . S
C155 H136 0.929 . S
C155 C152 1.388 . S
C155 N154 1.397 . S
C156 H137 0.929 . S
C156 C153 1.404 . S
C156 N154 1.334 . S
C157 H149 0.930 . S
C157 C152 1.418 . S
C157 C153 1.353 . S
C158 H128 0.930 . S
C158 N159 1.330 . S
C158 C160 1.446 . S
N159 Co118 2.151 . S
N159 C158 1.330 . S
N159 C163 1.418 . S
C160 H139 0.929 . S
C160 C158 1.446 . S
C160 C161 1.332 . S
C161 H141 0.931 . S
C161 C160 1.332 . S
C161 C162 1.267 . S
C162 H130 0.929 . S
C162 C161 1.267 . S
C162 C163 1.251 . S
C163 H133 0.929 . S
C163 N159 1.418 . S
C163 C162 1.251 . S
C164 H131 0.930 . S
C164 C166 1.406 . S
C164 C169 1.261 . S
C165 H132 0.930 . S
C165 N167 1.325 . S
C165 C168 1.357 . S
C166 H134 0.928 . S
C166 C164 1.406 . S
C166 N167 1.261 . S
N167 Co118 2.214 . S
N167 C165 1.325 . S
N167 C166 1.261 . S
C168 H138 0.931 . S
C168 C165 1.357 . S
C168 C169 1.312 . S
C169 H140 0.930 . S
C169 C164 1.261 . S
C169 C168 1.312 . S
C170 O142 1.214 . S
C170 O150 1.234 . S
C171 H143 0.929 1_556 S
C171 C174 1.391 . S
C171 C176 1.391 . S
C172 H144 0.929 . S
C172 C173 1.390 . S
C172 N175 1.391 . S
C173 H145 0.930 . S
C173 C172 1.390 . S
C173 C174 1.392 . S
C174 H146 0.960 . S
C174 C171 1.391 . S
C174 C173 1.392 . S
N175 Co119 2.257 . S
N175 C172 1.391 . S
N175 C176 1.388 . S
C176 H147 0.930 . S
C176 C171 1.391 . S
C176 N175 1.388 . S
Co177 O179 2.143 . S
Co177 O185 2.074 . S
Co177 O188 2.093 . S
Co177 O201 2.097 . S
Co177 N218 2.151 . S
Co177 N226 2.214 . S
Co178 O179 2.160 . S
Co178 O184 2.058 . S
Co178 O194 2.057 . S
Co178 O209 2.037 . S
Co178 N213 2.145 . S
Co178 N234 2.257 . S
O179 Co177 2.143 . S
O179 Co178 2.160 . S
C180 O181 1.278 . S
C180 O188 1.224 . S
O181 C180 1.278 . S
C182 O183 1.245 . S
C182 O194 1.232 . S
O183 C182 1.245 . S
O184 Co178 2.058 . S
O184 C210 1.269 . S
O185 Co177 2.074 . S
O185 C210 1.257 . S
H186 C211 0.930 . S
H187 C217 0.930 . S
O188 Co177 2.093 . S
O188 C180 1.224 . S
H189 C221 0.929 . S
H190 C223 0.930 . S
H191 C224 0.930 . S
H192 C222 0.929 . S
H193 C225 0.928 . S
O194 Co178 2.057 . S
O194 C182 1.232 . S
H195 C214 0.929 . S
H196 C215 0.929 . S
H197 C227 0.931 . S
H198 C219 0.929 . S
H199 C228 0.930 . S
H200 C220 0.931 . S
O201 Co177 2.097 . S
O201 C229 1.214 . S
H202 C230 0.929 1_556 S
H203 C231 0.929 . S
H204 C232 0.930 . S
H205 C233 0.929 . S
H206 C235 0.930 . S
H207 C212 0.930 . S
H208 C216 0.930 . S
O209 Co178 2.037 . S
O209 C229 1.234 . S
C210 O184 1.269 . S
C210 O185 1.257 . S
C211 H186 0.930 . S
C211 C214 1.388 . S
C211 C216 1.418 . S
C212 H207 0.930 . S
C212 C215 1.404 . S
C212 C216 1.353 . S
N213 Co178 2.145 . S
N213 C214 1.397 . S
N213 C215 1.334 . S
C214 H195 0.929 . S
C214 C211 1.388 . S
C214 N213 1.397 . S
C215 H196 0.929 . S
C215 C212 1.404 . S
C215 N213 1.334 . S
C216 H208 0.930 . S
C216 C211 1.418 . S
C216 C212 1.353 . S
C217 H187 0.930 . S
C217 N218 1.330 . S
C217 C219 1.446 . S
N218 Co177 2.151 . S
N218 C217 1.330 . S
N218 C222 1.418 . S
C219 H198 0.929 . S
C219 C217 1.446 . S
C219 C220 1.332 . S
C220 H200 0.931 . S
C220 C219 1.332 . S
C220 C221 1.267 . S
C221 H189 0.929 . S
C221 C220 1.267 . S
C221 C222 1.251 . S
C222 H192 0.929 . S
C222 N218 1.418 . S
C222 C221 1.251 . S
C223 H190 0.930 . S
C223 C225 1.406 . S
C223 C228 1.261 . S
C224 H191 0.930 . S
C224 N226 1.325 . S
C224 C227 1.357 . S
C225 H193 0.928 . S
C225 C223 1.406 . S
C225 N226 1.261 . S
N226 Co177 2.214 . S
N226 C224 1.325 . S
N226 C225 1.261 . S
C227 H197 0.931 . S
C227 C224 1.357 . S
C227 C228 1.312 . S
C228 H199 0.930 . S
C228 C223 1.261 . S
C228 C227 1.312 . S
C229 O201 1.214 . S
C229 O209 1.234 . S
C230 H202 0.929 1_554 S
C230 C233 1.391 . S
C230 C235 1.391 . S
C231 H203 0.929 . S
C231 C232 1.390 . S
C231 N234 1.391 . S
C232 H204 0.930 . S
C232 C231 1.390 . S
C232 C233 1.392 . S
C233 H205 0.929 . S
C233 C230 1.391 . S
C233 C232 1.392 . S
N234 Co178 2.257 . S
N234 C231 1.391 . S
N234 C235 1.388 . S
C235 H206 0.930 . S
C235 C230 1.391 . S
C235 N234 1.388 . S
Co236 O238 2.143 . S
Co236 O244 2.074 . S
Co236 O247 2.093 . S
Co236 O260 2.097 . S
Co236 N277 2.151 . S
Co236 N285 2.214 . S
Co237 O238 2.160 . S
Co237 O243 2.058 . S
Co237 O253 2.057 . S
Co237 O268 2.037 . S
Co237 N272 2.145 . S
Co237 N293 2.257 . S
O238 Co236 2.143 . S
O238 Co237 2.160 . S
C239 O240 1.278 . S
C239 O247 1.224 . S
O240 C239 1.278 . S
C241 O242 1.245 . S
C241 O253 1.232 . S
O242 C241 1.245 . S
O243 Co237 2.058 . S
O243 C269 1.269 . S
O244 Co236 2.074 . S
O244 C269 1.257 . S
H245 C270 0.930 . S
H246 C276 0.930 . S
O247 Co236 2.093 . S
O247 C239 1.224 . S
H248 C280 0.929 . S
H249 C282 0.930 . S
H250 C283 0.930 . S
H251 C281 0.929 . S
H252 C284 0.928 . S
O253 Co237 2.057 . S
O253 C241 1.232 . S
H254 C273 0.929 . S
H255 C274 0.929 . S
H256 C286 0.931 . S
H257 C278 0.929 . S
H258 C287 0.930 . S
H259 C279 0.931 . S
O260 Co236 2.097 . S
O260 C288 1.214 . S
H261 C289 0.929 . S
H262 C290 0.929 . S
H263 C291 0.930 . S
H264 C292 0.929 . S
H265 C294 0.930 . S
H266 C271 0.930 . S
H267 C275 0.930 . S
O268 Co237 2.037 . S
O268 C288 1.234 . S
C269 O243 1.269 . S
C269 O244 1.257 . S
C270 H245 0.930 . S
C270 C273 1.388 . S
C270 C275 1.418 . S
C271 H266 0.930 . S
C271 C274 1.404 . S
C271 C275 1.353 . S
N272 Co237 2.145 . S
N272 C273 1.397 . S
N272 C274 1.334 . S
C273 H254 0.929 . S
C273 C270 1.388 . S
C273 N272 1.397 . S
C274 H255 0.929 . S
C274 C271 1.404 . S
C274 N272 1.334 . S
C275 H267 0.930 . S
C275 C270 1.418 . S
C275 C271 1.353 . S
C276 H246 0.930 . S
C276 N277 1.330 . S
C276 C278 1.446 . S
N277 Co236 2.151 . S
N277 C276 1.330 . S
N277 C281 1.418 . S
C278 H257 0.929 . S
C278 C276 1.446 . S
C278 C279 1.332 . S
C279 H259 0.931 . S
C279 C278 1.332 . S
C279 C280 1.267 . S
C280 H248 0.929 . S
C280 C279 1.267 . S
C280 C281 1.251 . S
C281 H251 0.929 . S
C281 N277 1.418 . S
C281 C280 1.251 . S
C282 H249 0.930 . S
C282 C284 1.406 . S
C282 C287 1.261 . S
C283 H250 0.930 . S
C283 N285 1.325 . S
C283 C286 1.357 . S
C284 H252 0.928 . S
C284 C282 1.406 . S
C284 N285 1.261 . S
N285 Co236 2.214 . S
N285 C283 1.325 . S
N285 C284 1.261 . S
C286 H256 0.931 . S
C286 C283 1.357 . S
C286 C287 1.312 . S
C287 H258 0.930 . S
C287 C282 1.261 . S
C287 C286 1.312 . S
C288 O260 1.214 . S
C288 O268 1.234 . S
C289 H261 0.929 . S
C289 C292 1.391 . S
C289 C294 1.391 . S
C290 H262 0.929 . S
C290 C291 1.390 . S
C290 N293 1.391 . S
C291 H263 0.930 . S
C291 C290 1.390 . S
C291 C292 1.392 . S
C292 H264 0.929 . S
C292 C289 1.391 . S
C292 C291 1.392 . S
N293 Co237 2.257 . S
N293 C290 1.391 . S
N293 C294 1.388 . S
C294 H265 0.930 . S
C294 C289 1.391 . S
C294 N293 1.388 . S
Co295 O297 2.143 . S
Co295 O303 2.074 . S
Co295 O306 2.093 . S
Co295 O319 2.097 . S
Co295 N336 2.151 . S
Co295 N344 2.214 . S
Co296 O297 2.160 . S
Co296 O302 2.058 . S
Co296 O312 2.057 . S
Co296 O327 2.037 . S
Co296 N331 2.145 . S
Co296 N352 2.257 . S
O297 Co295 2.143 . S
O297 Co296 2.160 . S
C298 O299 1.278 . S
C298 O306 1.224 . S
O299 C298 1.278 . S
C300 O301 1.245 . S
C300 O312 1.232 . S
O301 C300 1.245 . S
O302 Co296 2.058 . S
O302 C328 1.269 . S
O303 Co295 2.074 . S
O303 C328 1.257 . S
H304 C329 0.930 . S
H305 C335 0.930 . S
O306 Co295 2.093 . S
O306 C298 1.224 . S
H307 C339 0.929 . S
H308 C341 0.930 . S
H309 C342 0.930 . S
H310 C340 0.929 . S
H311 C343 0.928 . S
O312 Co296 2.057 . S
O312 C300 1.232 . S
H313 C332 0.929 . S
H314 C333 0.929 . S
H315 C345 0.931 . S
H316 C337 0.929 . S
H317 C346 0.930 . S
H318 C338 0.931 . S
O319 Co295 2.097 . S
O319 C347 1.214 . S
H320 C348 0.929 . S
H321 C349 0.929 . S
H322 C350 0.930 . S
H323 C351 0.929 . S
H324 C353 0.930 . S
H325 C330 0.930 . S
H326 C334 0.930 . S
O327 Co296 2.037 . S
O327 C347 1.234 . S
C328 O302 1.269 . S
C328 O303 1.257 . S
C329 H304 0.930 . S
C329 C332 1.388 . S
C329 C334 1.418 . S
C330 H325 0.930 . S
C330 C333 1.404 . S
C330 C334 1.353 . S
N331 Co296 2.145 . S
N331 C332 1.397 . S
N331 C333 1.334 . S
C332 H313 0.929 . S
C332 C329 1.388 . S
C332 N331 1.397 . S
C333 H314 0.929 . S
C333 C330 1.404 . S
C333 N331 1.334 . S
C334 H326 0.930 . S
C334 C329 1.418 . S
C334 C330 1.353 . S
C335 H305 0.930 . S
C335 N336 1.330 . S
C335 C337 1.446 . S
N336 Co295 2.151 . S
N336 C335 1.330 . S
N336 C340 1.418 . S
C337 H316 0.929 . S
C337 C335 1.446 . S
C337 C338 1.332 . S
C338 H318 0.931 . S
C338 C337 1.332 . S
C338 C339 1.267 . S
C339 H307 0.929 . S
C339 C338 1.267 . S
C339 C340 1.251 . S
C340 H310 0.929 . S
C340 N336 1.418 . S
C340 C339 1.251 . S
C341 H308 0.930 . S
C341 C343 1.406 . S
C341 C346 1.261 . S
C342 H309 0.930 . S
C342 N344 1.325 . S
C342 C345 1.357 . S
C343 H311 0.928 . S
C343 C341 1.406 . S
C343 N344 1.261 . S
N344 Co295 2.214 . S
N344 C342 1.325 . S
N344 C343 1.261 . S
C345 H315 0.931 . S
C345 C342 1.357 . S
C345 C346 1.312 . S
C346 H317 0.930 . S
C346 C341 1.261 . S
C346 C345 1.312 . S
C347 O319 1.214 . S
C347 O327 1.234 . S
C348 H320 0.929 . S
C348 C351 1.391 . S
C348 C353 1.391 . S
C349 H321 0.929 . S
C349 C350 1.390 . S
C349 N352 1.391 . S
C350 H322 0.930 . S
C350 C349 1.390 . S
C350 C351 1.392 . S
C351 H323 0.929 . S
C351 C348 1.391 . S
C351 C350 1.392 . S
N352 Co296 2.257 . S
N352 C349 1.391 . S
N352 C353 1.388 . S
C353 H324 0.930 . S
C353 C348 1.391 . S
C353 N352 1.388 . S
C354 C355 1.386 . S
C354 C356 1.383 . S
C354 H370 0.951 . S
C355 C354 1.386 . S
C355 C359 1.383 . S
C356 C354 1.383 . S
C356 C357 1.402 . S
C356 H371 0.951 . S
C357 C356 1.402 . S
C357 C358 1.375 . S
C357 C360 1.481 . S
C358 C357 1.375 . S
C358 C359 1.367 . S
C358 H372 0.951 . S
C359 C355 1.383 . S
C359 C358 1.367 . S
C359 H373 0.950 . S
C360 C357 1.481 . S
C360 C361 1.297 1_545 S
C360 H374 0.950 1_545 S
C361 C360 1.297 1_565 S
C361 C362 1.479 . S
C361 H375 0.950 1_565 S
C362 C361 1.479 . S
C362 C363 1.375 . S
C362 C368 1.404 . S
C363 C362 1.375 . S
C363 C364 1.369 . S
C363 H376 0.950 . S
C364 C363 1.369 . S
C364 C365 1.392 . S
C364 H377 0.951 . S
C365 C364 1.392 . S
C365 C367 1.384 . S
H366 C368 0.949 . S
C367 C365 1.384 . S
C367 C368 1.385 . S
C367 H369 0.950 . S
C368 C362 1.404 . S
C368 H366 0.949 . S
C368 C367 1.385 . S
H369 C367 0.950 . S
H370 C354 0.951 . S
H371 C356 0.951 . S
H372 C358 0.951 . S
H373 C359 0.950 . S
H374 C360 0.950 1_565 S
H375 C361 0.950 1_545 S
H376 C363 0.950 . S
H377 C364 0.951 . S
C378 C379 1.386 . S
C378 C380 1.383 . S
C378 H394 0.951 . S
C379 C378 1.386 . S
C379 C383 1.383 . S
C380 C378 1.383 . S
C380 C381 1.402 . S
C380 H395 0.951 . S
C381 C380 1.402 . S
C381 C382 1.375 . S
C381 C384 1.481 . S
C382 C381 1.375 . S
C382 C383 1.367 . S
C382 H396 0.951 . S
C383 C379 1.383 . S
C383 C382 1.367 . S
C383 H397 0.950 . S
C384 C381 1.481 . S
C384 C385 1.297 . S
C384 H398 0.950 . S
C385 C384 1.297 . S
C385 C386 1.479 . S
C385 H399 0.950 . S
C386 C385 1.479 . S
C386 C387 1.375 . S
C386 C392 1.404 . S
C387 C386 1.375 . S
C387 C388 1.369 . S
C387 H400 0.950 . S
C388 C387 1.369 . S
C388 C389 1.392 . S
C388 H401 0.951 . S
C389 C388 1.392 . S
C389 C391 1.384 . S
H390 C392 0.949 . S
C391 C389 1.384 . S
C391 C392 1.385 . S
C391 H393 0.950 . S
C392 C386 1.404 . S
C392 H390 0.949 . S
C392 C391 1.385 . S
H393 C391 0.950 . S
H394 C378 0.951 . S
H395 C380 0.951 . S
H396 C382 0.951 . S
H397 C383 0.950 . S
H398 C384 0.950 . S
H399 C385 0.950 . S
H400 C387 0.950 . S
H401 C388 0.951 . S
C402 C403 1.386 . S
C402 C404 1.383 . S
C402 H418 0.951 . S
C403 C402 1.386 . S
C403 C407 1.383 . S
C404 C402 1.383 . S
C404 C405 1.402 . S
C404 H419 0.951 . S
C405 C404 1.402 . S
C405 C406 1.375 . S
C405 C408 1.481 . S
C406 C405 1.375 . S
C406 C407 1.367 . S
C406 H420 0.951 . S
C407 C403 1.383 . S
C407 C406 1.367 . S
C407 H421 0.950 . S
C408 C405 1.481 . S
C408 C409 1.297 1_655 S
C408 H422 0.950 . S
C409 C408 1.297 1_455 S
C409 C410 1.479 . S
C409 H423 0.950 . S
C410 C409 1.479 . S
C410 C411 1.375 . S
C410 C416 1.404 . S
C411 C410 1.375 . S
C411 C412 1.369 . S
C411 H424 0.950 . S
C412 C411 1.369 . S
C412 C413 1.392 . S
C412 H425 0.951 . S
C413 C412 1.392 . S
C413 C415 1.384 . S
H414 C416 0.949 . S
C415 C413 1.384 . S
C415 C416 1.385 . S
C415 H417 0.950 . S
C416 C410 1.404 . S
C416 H414 0.949 . S
C416 C415 1.385 . S
H417 C415 0.950 . S
H418 C402 0.951 . S
H419 C404 0.951 . S
H420 C406 0.951 . S
H421 C407 0.950 . S
H422 C408 0.950 . S
H423 C409 0.950 . S
H424 C411 0.950 . S
H425 C412 0.951 . S
C426 C427 1.386 . S
C426 C428 1.383 . S
C426 H442 0.951 . S
C427 C426 1.386 . S
C427 C431 1.383 . S
C428 C426 1.383 . S
C428 C429 1.402 . S
C428 H443 0.951 . S
C429 C428 1.402 . S
C429 C430 1.375 . S
C429 C432 1.481 1_554 S
C430 C429 1.375 . S
C430 C431 1.367 . S
C430 H444 0.951 . S
C431 C427 1.383 . S
C431 C430 1.367 . S
C431 H445 0.950 . S
C432 C429 1.481 1_556 S
C432 C433 1.297 1_565 S
C432 H446 0.950 . S
C433 C432 1.297 1_545 S
C433 C434 1.479 . S
C433 H447 0.950 1_545 S
C434 C433 1.479 . S
C434 C435 1.375 . S
C434 C440 1.404 . S
C435 C434 1.375 . S
C435 C436 1.369 . S
C435 H448 0.950 . S
C436 C435 1.369 . S
C436 C437 1.392 . S
C436 H449 0.951 . S
C437 C436 1.392 . S
C437 C439 1.384 . S
H438 C440 0.949 . S
C439 C437 1.384 . S
C439 C440 1.385 . S
C439 H441 0.950 . S
C440 C434 1.404 . S
C440 H438 0.949 . S
C440 C439 1.385 . S
H441 C439 0.950 . S
H442 C426 0.951 . S
H443 C428 0.951 . S
H444 C430 0.951 . S
H445 C431 0.950 . S
H446 C432 0.950 . S
H447 C433 0.950 1_565 S
H448 C435 0.950 . S
H449 C436 0.951 . S
C450 C451 1.386 . S
C450 C452 1.383 . S
C450 H466 0.951 . S
C451 C450 1.386 . S
C451 C455 1.383 . S
C452 C450 1.383 . S
C452 C453 1.402 . S
C452 H467 0.951 . S
C453 C452 1.402 . S
C453 C454 1.375 . S
C453 C456 1.481 . S
C454 C453 1.375 . S
C454 C455 1.367 . S
C454 H468 0.951 . S
C455 C451 1.383 . S
C455 C454 1.367 . S
C455 H469 0.950 . S
C456 C453 1.481 . S
C456 C457 1.297 . S
C456 H470 0.950 . S
C457 C456 1.297 . S
C457 C458 1.479 . S
C457 H471 0.950 . S
C458 C457 1.479 . S
C458 C459 1.375 . S
C458 C464 1.404 . S
C459 C458 1.375 . S
C459 C460 1.369 . S
C459 H472 0.950 . S
C460 C459 1.369 . S
C460 C461 1.392 . S
C460 H473 0.951 . S
C461 C460 1.392 . S
C461 C463 1.384 . S
H462 C464 0.949 . S
C463 C461 1.384 . S
C463 C464 1.385 . S
C463 H465 0.950 . S
C464 C458 1.404 . S
C464 H462 0.949 . S
C464 C463 1.385 . S
H465 C463 0.950 . S
H466 C450 0.951 . S
H467 C452 0.951 . S
H468 C454 0.951 . S
H469 C455 0.950 . S
H470 C456 0.950 . S
H471 C457 0.950 . S
H472 C459 0.950 . S
H473 C460 0.951 . S
C474 C475 1.386 . S
C474 C476 1.383 . S
C474 H490 0.951 . S
C475 C474 1.386 . S
C475 C479 1.383 . S
C476 C474 1.383 . S
C476 C477 1.402 . S
C476 H491 0.951 . S
C477 C476 1.402 . S
C477 C478 1.375 . S
C477 C480 1.481 . S
C478 C477 1.375 . S
C478 C479 1.367 . S
C478 H492 0.951 . S
C479 C475 1.383 . S
C479 C478 1.367 . S
C479 H493 0.950 . S
C480 C477 1.481 . S
C480 C481 1.297 1_455 S
C480 H494 0.950 1_455 S
C481 C480 1.297 1_655 S
C481 C482 1.479 . S
C481 H495 0.950 1_655 S
C482 C481 1.479 . S
C482 C483 1.375 . S
C482 C488 1.404 . S
C483 C482 1.375 . S
C483 C484 1.369 . S
C483 H496 0.950 . S
C484 C483 1.369 . S
C484 C485 1.392 . S
C484 H497 0.951 . S
C485 C484 1.392 . S
C485 C487 1.384 . S
H486 C488 0.949 . S
C487 C485 1.384 . S
C487 C488 1.385 . S
C487 H489 0.950 . S
C488 C482 1.404 . S
C488 H486 0.949 . S
C488 C487 1.385 . S
H489 C487 0.950 . S
H490 C474 0.951 . S
H491 C476 0.951 . S
H492 C478 0.951 . S
H493 C479 0.950 . S
H494 C480 0.950 1_655 S
H495 C481 0.950 1_455 S
H496 C483 0.950 . S
H497 C484 0.951 . S
C498 C499 1.386 . S
C498 C500 1.383 . S
C498 H514 0.951 . S
C499 C498 1.386 . S
C499 C503 1.383 . S
C500 C498 1.383 . S
C500 C501 1.402 . S
C500 H515 0.951 . S
C501 C500 1.402 . S
C501 C502 1.375 . S
C501 C504 1.481 . S
C502 C501 1.375 . S
C502 C503 1.367 . S
C502 H516 0.951 . S
C503 C499 1.383 . S
C503 C502 1.367 . S
C503 H517 0.950 . S
C504 C501 1.481 . S
C504 C505 1.297 . S
C504 H518 0.950 . S
C505 C504 1.297 . S
C505 C506 1.479 . S
C505 H519 0.950 . S
C506 C505 1.479 . S
C506 C507 1.375 . S
C506 C512 1.404 . S
C507 C506 1.375 . S
C507 C508 1.369 . S
C507 H520 0.950 . S
C508 C507 1.369 . S
C508 C509 1.392 . S
C508 H521 0.951 . S
C509 C508 1.392 . S
C509 C511 1.384 . S
H510 C512 0.949 . S
C511 C509 1.384 . S
C511 C512 1.385 . S
C511 H513 0.950 . S
C512 C506 1.404 . S
C512 H510 0.949 . S
C512 C511 1.385 . S
H513 C511 0.950 . S
H514 C498 0.951 . S
H515 C500 0.951 . S
H516 C502 0.951 . S
H517 C503 0.950 . S
H518 C504 0.950 . S
H519 C505 0.950 . S
H520 C507 0.950 . S
H521 C508 0.951 . S
C522 C523 1.386 . S
C522 C524 1.383 . S
C522 H538 0.951 . S
C523 C522 1.386 . S
C523 C527 1.383 . S
C524 C522 1.383 . S
C524 C525 1.402 . S
C524 H539 0.951 . S
C525 C524 1.402 . S
C525 C526 1.375 . S
C525 C528 1.481 . S
C526 C525 1.375 . S
C526 C527 1.367 . S
C526 H540 0.951 . S
C527 C523 1.383 . S
C527 C526 1.367 . S
C527 H541 0.950 . S
C528 C525 1.481 . S
C528 C529 1.297 . S
C528 H542 0.950 . S
C529 C528 1.297 . S
C529 C530 1.479 . S
C529 H543 0.950 . S
C530 C529 1.479 . S
C530 C531 1.375 . S
C530 C536 1.404 . S
C531 C530 1.375 . S
C531 C532 1.369 . S
C531 H544 0.950 . S
C532 C531 1.369 . S
C532 C533 1.392 . S
C532 H545 0.951 . S
C533 C532 1.392 . S
C533 C535 1.384 . S
H534 C536 0.949 . S
C535 C533 1.384 . S
C535 C536 1.385 . S
C535 H537 0.950 . S
C536 C530 1.404 . S
C536 H534 0.949 . S
C536 C535 1.385 . S
H537 C535 0.950 . S
H538 C522 0.951 . S
H539 C524 0.951 . S
H540 C526 0.951 . S
H541 C527 0.950 . S
H542 C528 0.950 . S
H543 C529 0.950 . S
H544 C531 0.950 . S
H545 C532 0.951 . S
C546 C547 1.386 . S
C546 C548 1.383 . S
C546 H562 0.951 . S
C547 C546 1.386 . S
C547 C551 1.383 . S
C548 C546 1.383 . S
C548 C549 1.402 . S
C548 H563 0.951 . S
C549 C548 1.402 . S
C549 C550 1.375 . S
C549 C552 1.481 . S
C550 C549 1.375 . S
C550 C551 1.367 . S
C550 H564 0.951 . S
C551 C547 1.383 . S
C551 C550 1.367 . S
C551 H565 0.950 . S
C552 C549 1.481 . S
C552 C553 1.297 . S
C552 H566 0.950 . S
C553 C552 1.297 . S
C553 C554 1.479 . S
C553 H567 0.950 . S
C554 C553 1.479 . S
C554 C555 1.375 . S
C554 C560 1.404 . S
C555 C554 1.375 . S
C555 C556 1.369 . S
C555 H568 0.950 . S
C556 C555 1.369 . S
C556 C557 1.392 . S
C556 H569 0.951 . S
C557 C556 1.392 . S
C557 C559 1.384 . S
H558 C560 0.949 . S
C559 C557 1.384 . S
C559 C560 1.385 . S
C559 H561 0.950 . S
C560 C554 1.404 . S
C560 H558 0.949 . S
C560 C559 1.385 . S
H561 C559 0.950 . S
H562 C546 0.951 . S
H563 C548 0.951 . S
H564 C550 0.951 . S
H565 C551 0.950 . S
H566 C552 0.950 . S
H567 C553 0.950 . S
H568 C555 0.950 . S
H569 C556 0.951 . S
C570 C571 1.386 . S
C570 C572 1.383 . S
C570 H586 0.951 . S
C571 C570 1.386 . S
C571 C575 1.383 . S
C572 C570 1.383 . S
C572 C573 1.402 . S
C572 H587 0.951 . S
C573 C572 1.402 . S
C573 C574 1.375 . S
C573 C576 1.481 . S
C574 C573 1.375 . S
C574 C575 1.367 . S
C574 H588 0.951 . S
C575 C571 1.383 . S
C575 C574 1.367 . S
C575 H589 0.950 . S
C576 C573 1.481 . S
C576 C577 1.297 . S
C576 H590 0.950 . S
C577 C576 1.297 . S
C577 C578 1.479 . S
C577 H591 0.950 . S
C578 C577 1.479 . S
C578 C579 1.375 . S
C578 C584 1.404 . S
C579 C578 1.375 . S
C579 C580 1.369 . S
C579 H592 0.950 . S
C580 C579 1.369 . S
C580 C581 1.392 . S
C580 H593 0.951 1_556 S
C581 C580 1.392 . S
C581 C583 1.384 . S
H582 C584 0.949 . S
C583 C581 1.384 . S
C583 C584 1.385 . S
C583 H585 0.950 . S
C584 C578 1.404 . S
C584 H582 0.949 . S
C584 C583 1.385 . S
H585 C583 0.950 . S
H586 C570 0.951 . S
H587 C572 0.951 . S
H588 C574 0.951 . S
H589 C575 0.950 . S
H590 C576 0.950 . S
H591 C577 0.950 . S
H592 C579 0.950 . S
H593 C580 0.951 1_554 S
C594 C595 1.386 . S
C594 C596 1.383 . S
C594 H610 0.951 . S
C595 C594 1.386 . S
C595 C599 1.383 1_554 S
C596 C594 1.383 . S
C596 C597 1.402 . S
C596 H611 0.951 . S
C597 C596 1.402 . S
C597 C598 1.375 . S
C597 C600 1.481 . S
C598 C597 1.375 . S
C598 C599 1.367 1_554 S
C598 H612 0.951 . S
C599 C595 1.383 1_556 S
C599 C598 1.367 1_556 S
C599 H613 0.950 . S
C600 C597 1.481 . S
C600 C601 1.297 . S
C600 H614 0.950 . S
C601 C600 1.297 . S
C601 C602 1.479 . S
C601 H615 0.950 . S
C602 C601 1.479 . S
C602 C603 1.375 . S
C602 C608 1.404 . S
C603 C602 1.375 . S
C603 C604 1.369 . S
C603 H616 0.950 . S
C604 C603 1.369 . S
C604 C605 1.392 . S
C604 H617 0.951 . S
C605 C604 1.392 . S
C605 C607 1.384 . S
H606 C608 0.949 . S
C607 C605 1.384 . S
C607 C608 1.385 . S
C607 H609 0.950 . S
C608 C602 1.404 . S
C608 H606 0.949 . S
C608 C607 1.385 . S
H609 C607 0.950 . S
H610 C594 0.951 . S
H611 C596 0.951 . S
H612 C598 0.951 . S
H613 C599 0.950 . S
H614 C600 0.950 . S
H615 C601 0.950 . S
H616 C603 0.950 . S
H617 C604 0.951 . S
C618 C619 1.386 . S
C618 C620 1.383 . S
C618 H634 0.951 . S
C619 C618 1.386 . S
C619 C623 1.383 . S
C620 C618 1.383 . S
C620 C621 1.402 . S
C620 H635 0.951 . S
C621 C620 1.402 . S
C621 C622 1.375 . S
C621 C624 1.481 . S
C622 C621 1.375 . S
C622 C623 1.367 . S
C622 H636 0.951 . S
C623 C619 1.383 . S
C623 C622 1.367 . S
C623 H637 0.950 . S
C624 C621 1.481 . S
C624 C625 1.297 . S
C624 H638 0.950 . S
C625 C624 1.297 . S
C625 C626 1.479 . S
C625 H639 0.950 . S
C626 C625 1.479 . S
C626 C627 1.375 . S
C626 C632 1.404 . S
C627 C626 1.375 . S
C627 C628 1.369 . S
C627 H640 0.950 . S
C628 C627 1.369 . S
C628 C629 1.392 . S
C628 H641 0.951 . S
C629 C628 1.392 . S
C629 C631 1.384 . S
H630 C632 0.949 . S
C631 C629 1.384 . S
C631 C632 1.385 . S
C631 H633 0.950 . S
C632 C626 1.404 . S
C632 H630 0.949 . S
C632 C631 1.385 . S
H633 C631 0.950 . S
H634 C618 0.951 . S
H635 C620 0.951 . S
H636 C622 0.951 . S
H637 C623 0.950 . S
H638 C624 0.950 . S
H639 C625 0.950 . S
H640 C627 0.950 . S
H641 C628 0.951 . S
C355 C5 1.825 . S
C365 C300 1.817 . S
C379 C52 1.750 . S
C389 C62 1.747 . S
C403 C170 1.686 . S
C413 C92 1.675 . S
C427 C182 1.823 . S
C437 C123 1.815 . S
C451 C239 1.758 . S
C461 C229 1.753 . S
C475 C347 1.697 . S
C485 C269 1.693 . S
C499 C3 1.446 . S
C509 C288 1.466 . S
C523 C298 1.292 . S
C533 C64 1.296 . S
C547 C151 1.577 . S
C557 C33 1.565 . S
C571 C111 1.455 . S
C581 C180 1.429 1_556 S
C595 C121 1.277 1_554 S
C605 C241 1.302 . S
C619 C328 1.569 . S
C629 C210 1.569 . S
