# Generated by pormake.
# Topology ulh, (4)-cn, num edge types: 1
# Building blocks:
#     Node 0, Type 0, BuildingBlock: MUDLON_clean_sbu_0, # of connection points: 4
#     Node 1, Type 0, BuildingBlock: MUDLON_clean_sbu_0, # of connection points: 4
#     Node 2, Type 0, BuildingBlock: MUDLON_clean_sbu_0, # of connection points: 4
#     Node 3, Type 0, BuildingBlock: MUDLON_clean_sbu_0, # of connection points: 4
#     Node 4, Type 0, BuildingBlock: MUDLON_clean_sbu_0, # of connection points: 4
#     Node 5, Type 0, BuildingBlock: MUDLON_clean_sbu_0, # of connection points: 4
#     Node 6, Type 0, BuildingBlock: MUDLON_clean_sbu_0, # of connection points: 4
#     Node 7, Type 0, BuildingBlock: MUDLON_clean_sbu_0, # of connection points: 4
#     Node 8, Type 0, BuildingBlock: MUDLON_clean_sbu_0, # of connection points: 4
#     Node 9, Type 0, BuildingBlock: MUDLON_clean_sbu_0, # of connection points: 4
#     Node 10, Type 0, BuildingBlock: MUDLON_clean_sbu_0, # of connection points: 4
#     Node 11, Type 0, BuildingBlock: MUDLON_clean_sbu_0, # of connection points: 4
#     Node 12, Type 0, BuildingBlock: MUDLON_clean_sbu_0, # of connection points: 4
#     Node 13, Type 0, BuildingBlock: MUDLON_clean_sbu_0, # of connection points: 4
#     Node 14, Type 0, BuildingBlock: MUDLON_clean_sbu_0, # of connection points: 4
#     Node 15, Type 0, BuildingBlock: MUDLON_clean_sbu_0, # of connection points: 4
#     Node 16, Type 0, BuildingBlock: MUDLON_clean_sbu_0, # of connection points: 4
#     Node 17, Type 0, BuildingBlock: MUDLON_clean_sbu_0, # of connection points: 4
#     Node 18, Type 0, BuildingBlock: MUDLON_clean_sbu_0, # of connection points: 4
#     Node 19, Type 0, BuildingBlock: MUDLON_clean_sbu_0, # of connection points: 4
#     Node 20, Type 0, BuildingBlock: MUDLON_clean_sbu_0, # of connection points: 4
#     Node 21, Type 0, BuildingBlock: MUDLON_clean_sbu_0, # of connection points: 4
#     Node 22, Type 0, BuildingBlock: MUDLON_clean_sbu_0, # of connection points: 4
#     Node 23, Type 0, BuildingBlock: MUDLON_clean_sbu_0, # of connection points: 4
#     Node 24, Type 0, BuildingBlock: MUDLON_clean_sbu_0, # of connection points: 4
#     Node 25, Type 0, BuildingBlock: MUDLON_clean_sbu_0, # of connection points: 4
#     Node 26, Type 0, BuildingBlock: MUDLON_clean_sbu_0, # of connection points: 4
#     Node 27, Type 0, BuildingBlock: MUDLON_clean_sbu_0, # of connection points: 4
#     Node 28, Type 0, BuildingBlock: MUDLON_clean_sbu_0, # of connection points: 4
#     Node 29, Type 0, BuildingBlock: MUDLON_clean_sbu_0, # of connection points: 4
#     Node 30, Type 0, BuildingBlock: MUDLON_clean_sbu_0, # of connection points: 4
#     Node 31, Type 0, BuildingBlock: MUDLON_clean_sbu_0, # of connection points: 4
#     Node 32, Type 0, BuildingBlock: MUDLON_clean_sbu_0, # of connection points: 4
#     Node 33, Type 0, BuildingBlock: MUDLON_clean_sbu_0, # of connection points: 4
#     Node 34, Type 0, BuildingBlock: MUDLON_clean_sbu_0, # of connection points: 4
#     Node 35, Type 0, BuildingBlock: MUDLON_clean_sbu_0, # of connection points: 4
#     Node 36, Type 0, BuildingBlock: MUDLON_clean_sbu_0, # of connection points: 4
#     Node 37, Type 0, BuildingBlock: MUDLON_clean_sbu_0, # of connection points: 4
#     Node 38, Type 0, BuildingBlock: MUDLON_clean_sbu_0, # of connection points: 4
#     Node 39, Type 0, BuildingBlock: MUDLON_clean_sbu_0, # of connection points: 4
#     Node 40, Type 0, BuildingBlock: MUDLON_clean_sbu_0, # of connection points: 4
#     Node 41, Type 0, BuildingBlock: MUDLON_clean_sbu_0, # of connection points: 4
#     Node 42, Type 0, BuildingBlock: MUDLON_clean_sbu_0, # of connection points: 4
#     Node 43, Type 0, BuildingBlock: MUDLON_clean_sbu_0, # of connection points: 4
#     Node 44, Type 0, BuildingBlock: MUDLON_clean_sbu_0, # of connection points: 4
#     Node 45, Type 0, BuildingBlock: MUDLON_clean_sbu_0, # of connection points: 4
#     Node 46, Type 0, BuildingBlock: MUDLON_clean_sbu_0, # of connection points: 4
#     Node 47, Type 0, BuildingBlock: MUDLON_clean_sbu_0, # of connection points: 4
#     Node 48, Type 0, BuildingBlock: MUDLON_clean_sbu_0, # of connection points: 4
#     Node 49, Type 0, BuildingBlock: MUDLON_clean_sbu_0, # of connection points: 4
#     Node 50, Type 0, BuildingBlock: MUDLON_clean_sbu_0, # of connection points: 4
#     Node 51, Type 0, BuildingBlock: MUDLON_clean_sbu_0, # of connection points: 4
#     Node 52, Type 0, BuildingBlock: MUDLON_clean_sbu_0, # of connection points: 4
#     Node 53, Type 0, BuildingBlock: MUDLON_clean_sbu_0, # of connection points: 4
#     Node 54, Type 0, BuildingBlock: MUDLON_clean_sbu_0, # of connection points: 4
#     Node 55, Type 0, BuildingBlock: MUDLON_clean_sbu_0, # of connection points: 4
#     Node 56, Type 0, BuildingBlock: MUDLON_clean_sbu_0, # of connection points: 4
#     Node 57, Type 0, BuildingBlock: MUDLON_clean_sbu_0, # of connection points: 4
#     Node 58, Type 0, BuildingBlock: MUDLON_clean_sbu_0, # of connection points: 4
#     Node 59, Type 0, BuildingBlock: MUDLON_clean_sbu_0, # of connection points: 4
#     Node 60, Type 0, BuildingBlock: MUDLON_clean_sbu_0, # of connection points: 4
#     Node 61, Type 0, BuildingBlock: MUDLON_clean_sbu_0, # of connection points: 4
#     Node 62, Type 0, BuildingBlock: MUDLON_clean_sbu_0, # of connection points: 4
#     Node 63, Type 0, BuildingBlock: MUDLON_clean_sbu_0, # of connection points: 4
#     Node 64, Type 0, BuildingBlock: MUDLON_clean_sbu_0, # of connection points: 4
#     Node 65, Type 0, BuildingBlock: MUDLON_clean_sbu_0, # of connection points: 4
#     Node 66, Type 0, BuildingBlock: MUDLON_clean_sbu_0, # of connection points: 4
#     Node 67, Type 0, BuildingBlock: MUDLON_clean_sbu_0, # of connection points: 4
#     Node 68, Type 0, BuildingBlock: MUDLON_clean_sbu_0, # of connection points: 4
#     Node 69, Type 0, BuildingBlock: MUDLON_clean_sbu_0, # of connection points: 4
#     Node 70, Type 0, BuildingBlock: MUDLON_clean_sbu_0, # of connection points: 4
#     Node 71, Type 0, BuildingBlock: MUDLON_clean_sbu_0, # of connection points: 4
#     Node 72, Type 0, BuildingBlock: MUDLON_clean_sbu_0, # of connection points: 4
#     Node 73, Type 0, BuildingBlock: MUDLON_clean_sbu_0, # of connection points: 4
#     Node 74, Type 0, BuildingBlock: MUDLON_clean_sbu_0, # of connection points: 4
#     Node 75, Type 0, BuildingBlock: MUDLON_clean_sbu_0, # of connection points: 4
#     Node 76, Type 0, BuildingBlock: MUDLON_clean_sbu_0, # of connection points: 4
#     Node 77, Type 0, BuildingBlock: MUDLON_clean_sbu_0, # of connection points: 4
#     Node 78, Type 0, BuildingBlock: MUDLON_clean_sbu_0, # of connection points: 4
#     Node 79, Type 0, BuildingBlock: MUDLON_clean_sbu_0, # of connection points: 4
#     Node 80, Type 0, BuildingBlock: MUDLON_clean_sbu_0, # of connection points: 4
#     Node 81, Type 0, BuildingBlock: MUDLON_clean_sbu_0, # of connection points: 4
#     Node 82, Type 0, BuildingBlock: MUDLON_clean_sbu_0, # of connection points: 4
#     Node 83, Type 0, BuildingBlock: MUDLON_clean_sbu_0, # of connection points: 4
#     Node 84, Type 0, BuildingBlock: MUDLON_clean_sbu_0, # of connection points: 4
#     Node 85, Type 0, BuildingBlock: MUDLON_clean_sbu_0, # of connection points: 4
#     Node 86, Type 0, BuildingBlock: MUDLON_clean_sbu_0, # of connection points: 4
#     Node 87, Type 0, BuildingBlock: MUDLON_clean_sbu_0, # of connection points: 4
#     Node 88, Type 0, BuildingBlock: MUDLON_clean_sbu_0, # of connection points: 4
#     Node 89, Type 0, BuildingBlock: MUDLON_clean_sbu_0, # of connection points: 4
#     Node 90, Type 0, BuildingBlock: MUDLON_clean_sbu_0, # of connection points: 4
#     Node 91, Type 0, BuildingBlock: MUDLON_clean_sbu_0, # of connection points: 4
#     Node 92, Type 0, BuildingBlock: MUDLON_clean_sbu_0, # of connection points: 4
#     Node 93, Type 0, BuildingBlock: MUDLON_clean_sbu_0, # of connection points: 4
#     Node 94, Type 0, BuildingBlock: MUDLON_clean_sbu_0, # of connection points: 4
#     Node 95, Type 0, BuildingBlock: MUDLON_clean_sbu_0, # of connection points: 4
#     Edge 96, Type (0, 0), BuildingBlock: XIVTED_clean_linker_0, # of connection points: 2
#     Edge 97, Type (0, 0), BuildingBlock: XIVTED_clean_linker_0, # of connection points: 2
#     Edge 98, Type (0, 0), BuildingBlock: XIVTED_clean_linker_0, # of connection points: 2
#     Edge 99, Type (0, 0), BuildingBlock: XIVTED_clean_linker_0, # of connection points: 2
#     Edge 100, Type (0, 0), BuildingBlock: XIVTED_clean_linker_0, # of connection points: 2
#     Edge 101, Type (0, 0), BuildingBlock: XIVTED_clean_linker_0, # of connection points: 2
#     Edge 102, Type (0, 0), BuildingBlock: XIVTED_clean_linker_0, # of connection points: 2
#     Edge 103, Type (0, 0), BuildingBlock: XIVTED_clean_linker_0, # of connection points: 2
#     Edge 104, Type (0, 0), BuildingBlock: XIVTED_clean_linker_0, # of connection points: 2
#     Edge 105, Type (0, 0), BuildingBlock: XIVTED_clean_linker_0, # of connection points: 2
#     Edge 106, Type (0, 0), BuildingBlock: XIVTED_clean_linker_0, # of connection points: 2
#     Edge 107, Type (0, 0), BuildingBlock: XIVTED_clean_linker_0, # of connection points: 2
#     Edge 108, Type (0, 0), BuildingBlock: XIVTED_clean_linker_0, # of connection points: 2
#     Edge 109, Type (0, 0), BuildingBlock: XIVTED_clean_linker_0, # of connection points: 2
#     Edge 110, Type (0, 0), BuildingBlock: XIVTED_clean_linker_0, # of connection points: 2
#     Edge 111, Type (0, 0), BuildingBlock: XIVTED_clean_linker_0, # of connection points: 2
#     Edge 112, Type (0, 0), BuildingBlock: XIVTED_clean_linker_0, # of connection points: 2
#     Edge 113, Type (0, 0), BuildingBlock: XIVTED_clean_linker_0, # of connection points: 2
#     Edge 114, Type (0, 0), BuildingBlock: XIVTED_clean_linker_0, # of connection points: 2
#     Edge 115, Type (0, 0), BuildingBlock: XIVTED_clean_linker_0, # of connection points: 2
#     Edge 116, Type (0, 0), BuildingBlock: XIVTED_clean_linker_0, # of connection points: 2
#     Edge 117, Type (0, 0), BuildingBlock: XIVTED_clean_linker_0, # of connection points: 2
#     Edge 118, Type (0, 0), BuildingBlock: XIVTED_clean_linker_0, # of connection points: 2
#     Edge 119, Type (0, 0), BuildingBlock: XIVTED_clean_linker_0, # of connection points: 2
#     Edge 120, Type (0, 0), BuildingBlock: XIVTED_clean_linker_0, # of connection points: 2
#     Edge 121, Type (0, 0), BuildingBlock: XIVTED_clean_linker_0, # of connection points: 2
#     Edge 122, Type (0, 0), BuildingBlock: XIVTED_clean_linker_0, # of connection points: 2
#     Edge 123, Type (0, 0), BuildingBlock: XIVTED_clean_linker_0, # of connection points: 2
#     Edge 124, Type (0, 0), BuildingBlock: XIVTED_clean_linker_0, # of connection points: 2
#     Edge 125, Type (0, 0), BuildingBlock: XIVTED_clean_linker_0, # of connection points: 2
#     Edge 126, Type (0, 0), BuildingBlock: XIVTED_clean_linker_0, # of connection points: 2
#     Edge 127, Type (0, 0), BuildingBlock: XIVTED_clean_linker_0, # of connection points: 2
#     Edge 128, Type (0, 0), BuildingBlock: XIVTED_clean_linker_0, # of connection points: 2
#     Edge 129, Type (0, 0), BuildingBlock: XIVTED_clean_linker_0, # of connection points: 2
#     Edge 130, Type (0, 0), BuildingBlock: XIVTED_clean_linker_0, # of connection points: 2
#     Edge 131, Type (0, 0), BuildingBlock: XIVTED_clean_linker_0, # of connection points: 2
#     Edge 132, Type (0, 0), BuildingBlock: XIVTED_clean_linker_0, # of connection points: 2
#     Edge 133, Type (0, 0), BuildingBlock: XIVTED_clean_linker_0, # of connection points: 2
#     Edge 134, Type (0, 0), BuildingBlock: XIVTED_clean_linker_0, # of connection points: 2
#     Edge 135, Type (0, 0), BuildingBlock: XIVTED_clean_linker_0, # of connection points: 2
#     Edge 136, Type (0, 0), BuildingBlock: XIVTED_clean_linker_0, # of connection points: 2
#     Edge 137, Type (0, 0), BuildingBlock: XIVTED_clean_linker_0, # of connection points: 2
#     Edge 138, Type (0, 0), BuildingBlock: XIVTED_clean_linker_0, # of connection points: 2
#     Edge 139, Type (0, 0), BuildingBlock: XIVTED_clean_linker_0, # of connection points: 2
#     Edge 140, Type (0, 0), BuildingBlock: XIVTED_clean_linker_0, # of connection points: 2
#     Edge 141, Type (0, 0), BuildingBlock: XIVTED_clean_linker_0, # of connection points: 2
#     Edge 142, Type (0, 0), BuildingBlock: XIVTED_clean_linker_0, # of connection points: 2
#     Edge 143, Type (0, 0), BuildingBlock: XIVTED_clean_linker_0, # of connection points: 2
#     Edge 144, Type (0, 0), BuildingBlock: XIVTED_clean_linker_0, # of connection points: 2
#     Edge 145, Type (0, 0), BuildingBlock: XIVTED_clean_linker_0, # of connection points: 2
#     Edge 146, Type (0, 0), BuildingBlock: XIVTED_clean_linker_0, # of connection points: 2
#     Edge 147, Type (0, 0), BuildingBlock: XIVTED_clean_linker_0, # of connection points: 2
#     Edge 148, Type (0, 0), BuildingBlock: XIVTED_clean_linker_0, # of connection points: 2
#     Edge 149, Type (0, 0), BuildingBlock: XIVTED_clean_linker_0, # of connection points: 2
#     Edge 150, Type (0, 0), BuildingBlock: XIVTED_clean_linker_0, # of connection points: 2
#     Edge 151, Type (0, 0), BuildingBlock: XIVTED_clean_linker_0, # of connection points: 2
#     Edge 152, Type (0, 0), BuildingBlock: XIVTED_clean_linker_0, # of connection points: 2
#     Edge 153, Type (0, 0), BuildingBlock: XIVTED_clean_linker_0, # of connection points: 2
#     Edge 154, Type (0, 0), BuildingBlock: XIVTED_clean_linker_0, # of connection points: 2
#     Edge 155, Type (0, 0), BuildingBlock: XIVTED_clean_linker_0, # of connection points: 2
#     Edge 156, Type (0, 0), BuildingBlock: XIVTED_clean_linker_0, # of connection points: 2
#     Edge 157, Type (0, 0), BuildingBlock: XIVTED_clean_linker_0, # of connection points: 2
#     Edge 158, Type (0, 0), BuildingBlock: XIVTED_clean_linker_0, # of connection points: 2
#     Edge 159, Type (0, 0), BuildingBlock: XIVTED_clean_linker_0, # of connection points: 2
#     Edge 160, Type (0, 0), BuildingBlock: XIVTED_clean_linker_0, # of connection points: 2
#     Edge 161, Type (0, 0), BuildingBlock: XIVTED_clean_linker_0, # of connection points: 2
#     Edge 162, Type (0, 0), BuildingBlock: XIVTED_clean_linker_0, # of connection points: 2
#     Edge 163, Type (0, 0), BuildingBlock: XIVTED_clean_linker_0, # of connection points: 2
#     Edge 164, Type (0, 0), BuildingBlock: XIVTED_clean_linker_0, # of connection points: 2
#     Edge 165, Type (0, 0), BuildingBlock: XIVTED_clean_linker_0, # of connection points: 2
#     Edge 166, Type (0, 0), BuildingBlock: XIVTED_clean_linker_0, # of connection points: 2
#     Edge 167, Type (0, 0), BuildingBlock: XIVTED_clean_linker_0, # of connection points: 2
#     Edge 168, Type (0, 0), BuildingBlock: XIVTED_clean_linker_0, # of connection points: 2
#     Edge 169, Type (0, 0), BuildingBlock: XIVTED_clean_linker_0, # of connection points: 2
#     Edge 170, Type (0, 0), BuildingBlock: XIVTED_clean_linker_0, # of connection points: 2
#     Edge 171, Type (0, 0), BuildingBlock: XIVTED_clean_linker_0, # of connection points: 2
#     Edge 172, Type (0, 0), BuildingBlock: XIVTED_clean_linker_0, # of connection points: 2
#     Edge 173, Type (0, 0), BuildingBlock: XIVTED_clean_linker_0, # of connection points: 2
#     Edge 174, Type (0, 0), BuildingBlock: XIVTED_clean_linker_0, # of connection points: 2
#     Edge 175, Type (0, 0), BuildingBlock: XIVTED_clean_linker_0, # of connection points: 2
#     Edge 176, Type (0, 0), BuildingBlock: XIVTED_clean_linker_0, # of connection points: 2
#     Edge 177, Type (0, 0), BuildingBlock: XIVTED_clean_linker_0, # of connection points: 2
#     Edge 178, Type (0, 0), BuildingBlock: XIVTED_clean_linker_0, # of connection points: 2
#     Edge 179, Type (0, 0), BuildingBlock: XIVTED_clean_linker_0, # of connection points: 2
#     Edge 180, Type (0, 0), BuildingBlock: XIVTED_clean_linker_0, # of connection points: 2
#     Edge 181, Type (0, 0), BuildingBlock: XIVTED_clean_linker_0, # of connection points: 2
#     Edge 182, Type (0, 0), BuildingBlock: XIVTED_clean_linker_0, # of connection points: 2
#     Edge 183, Type (0, 0), BuildingBlock: XIVTED_clean_linker_0, # of connection points: 2
#     Edge 184, Type (0, 0), BuildingBlock: XIVTED_clean_linker_0, # of connection points: 2
#     Edge 185, Type (0, 0), BuildingBlock: XIVTED_clean_linker_0, # of connection points: 2
#     Edge 186, Type (0, 0), BuildingBlock: XIVTED_clean_linker_0, # of connection points: 2
#     Edge 187, Type (0, 0), BuildingBlock: XIVTED_clean_linker_0, # of connection points: 2
#     Edge 188, Type (0, 0), BuildingBlock: XIVTED_clean_linker_0, # of connection points: 2
#     Edge 189, Type (0, 0), BuildingBlock: XIVTED_clean_linker_0, # of connection points: 2
#     Edge 190, Type (0, 0), BuildingBlock: XIVTED_clean_linker_0, # of connection points: 2
#     Edge 191, Type (0, 0), BuildingBlock: XIVTED_clean_linker_0, # of connection points: 2
#     Edge 192, Type (0, 0), BuildingBlock: XIVTED_clean_linker_0, # of connection points: 2
#     Edge 193, Type (0, 0), BuildingBlock: XIVTED_clean_linker_0, # of connection points: 2
#     Edge 194, Type (0, 0), BuildingBlock: XIVTED_clean_linker_0, # of connection points: 2
#     Edge 195, Type (0, 0), BuildingBlock: XIVTED_clean_linker_0, # of connection points: 2
#     Edge 196, Type (0, 0), BuildingBlock: XIVTED_clean_linker_0, # of connection points: 2
#     Edge 197, Type (0, 0), BuildingBlock: XIVTED_clean_linker_0, # of connection points: 2
#     Edge 198, Type (0, 0), BuildingBlock: XIVTED_clean_linker_0, # of connection points: 2
#     Edge 199, Type (0, 0), BuildingBlock: XIVTED_clean_linker_0, # of connection points: 2
#     Edge 200, Type (0, 0), BuildingBlock: XIVTED_clean_linker_0, # of connection points: 2
#     Edge 201, Type (0, 0), BuildingBlock: XIVTED_clean_linker_0, # of connection points: 2
#     Edge 202, Type (0, 0), BuildingBlock: XIVTED_clean_linker_0, # of connection points: 2
#     Edge 203, Type (0, 0), BuildingBlock: XIVTED_clean_linker_0, # of connection points: 2
#     Edge 204, Type (0, 0), BuildingBlock: XIVTED_clean_linker_0, # of connection points: 2
#     Edge 205, Type (0, 0), BuildingBlock: XIVTED_clean_linker_0, # of connection points: 2
#     Edge 206, Type (0, 0), BuildingBlock: XIVTED_clean_linker_0, # of connection points: 2
#     Edge 207, Type (0, 0), BuildingBlock: XIVTED_clean_linker_0, # of connection points: 2
#     Edge 208, Type (0, 0), BuildingBlock: XIVTED_clean_linker_0, # of connection points: 2
#     Edge 209, Type (0, 0), BuildingBlock: XIVTED_clean_linker_0, # of connection points: 2
#     Edge 210, Type (0, 0), BuildingBlock: XIVTED_clean_linker_0, # of connection points: 2
#     Edge 211, Type (0, 0), BuildingBlock: XIVTED_clean_linker_0, # of connection points: 2
#     Edge 212, Type (0, 0), BuildingBlock: XIVTED_clean_linker_0, # of connection points: 2
#     Edge 213, Type (0, 0), BuildingBlock: XIVTED_clean_linker_0, # of connection points: 2
#     Edge 214, Type (0, 0), BuildingBlock: XIVTED_clean_linker_0, # of connection points: 2
#     Edge 215, Type (0, 0), BuildingBlock: XIVTED_clean_linker_0, # of connection points: 2
#     Edge 216, Type (0, 0), BuildingBlock: XIVTED_clean_linker_0, # of connection points: 2
#     Edge 217, Type (0, 0), BuildingBlock: XIVTED_clean_linker_0, # of connection points: 2
#     Edge 218, Type (0, 0), BuildingBlock: XIVTED_clean_linker_0, # of connection points: 2
#     Edge 219, Type (0, 0), BuildingBlock: XIVTED_clean_linker_0, # of connection points: 2
#     Edge 220, Type (0, 0), BuildingBlock: XIVTED_clean_linker_0, # of connection points: 2
#     Edge 221, Type (0, 0), BuildingBlock: XIVTED_clean_linker_0, # of connection points: 2
#     Edge 222, Type (0, 0), BuildingBlock: XIVTED_clean_linker_0, # of connection points: 2
#     Edge 223, Type (0, 0), BuildingBlock: XIVTED_clean_linker_0, # of connection points: 2
#     Edge 224, Type (0, 0), BuildingBlock: XIVTED_clean_linker_0, # of connection points: 2
#     Edge 225, Type (0, 0), BuildingBlock: XIVTED_clean_linker_0, # of connection points: 2
#     Edge 226, Type (0, 0), BuildingBlock: XIVTED_clean_linker_0, # of connection points: 2
#     Edge 227, Type (0, 0), BuildingBlock: XIVTED_clean_linker_0, # of connection points: 2
#     Edge 228, Type (0, 0), BuildingBlock: XIVTED_clean_linker_0, # of connection points: 2
#     Edge 229, Type (0, 0), BuildingBlock: XIVTED_clean_linker_0, # of connection points: 2
#     Edge 230, Type (0, 0), BuildingBlock: XIVTED_clean_linker_0, # of connection points: 2
#     Edge 231, Type (0, 0), BuildingBlock: XIVTED_clean_linker_0, # of connection points: 2
#     Edge 232, Type (0, 0), BuildingBlock: XIVTED_clean_linker_0, # of connection points: 2
#     Edge 233, Type (0, 0), BuildingBlock: XIVTED_clean_linker_0, # of connection points: 2
#     Edge 234, Type (0, 0), BuildingBlock: XIVTED_clean_linker_0, # of connection points: 2
#     Edge 235, Type (0, 0), BuildingBlock: XIVTED_clean_linker_0, # of connection points: 2
#     Edge 236, Type (0, 0), BuildingBlock: XIVTED_clean_linker_0, # of connection points: 2
#     Edge 237, Type (0, 0), BuildingBlock: XIVTED_clean_linker_0, # of connection points: 2
#     Edge 238, Type (0, 0), BuildingBlock: XIVTED_clean_linker_0, # of connection points: 2
#     Edge 239, Type (0, 0), BuildingBlock: XIVTED_clean_linker_0, # of connection points: 2
#     Edge 240, Type (0, 0), BuildingBlock: XIVTED_clean_linker_0, # of connection points: 2
#     Edge 241, Type (0, 0), BuildingBlock: XIVTED_clean_linker_0, # of connection points: 2
#     Edge 242, Type (0, 0), BuildingBlock: XIVTED_clean_linker_0, # of connection points: 2
#     Edge 243, Type (0, 0), BuildingBlock: XIVTED_clean_linker_0, # of connection points: 2
#     Edge 244, Type (0, 0), BuildingBlock: XIVTED_clean_linker_0, # of connection points: 2
#     Edge 245, Type (0, 0), BuildingBlock: XIVTED_clean_linker_0, # of connection points: 2
#     Edge 246, Type (0, 0), BuildingBlock: XIVTED_clean_linker_0, # of connection points: 2
#     Edge 247, Type (0, 0), BuildingBlock: XIVTED_clean_linker_0, # of connection points: 2
#     Edge 248, Type (0, 0), BuildingBlock: XIVTED_clean_linker_0, # of connection points: 2
#     Edge 249, Type (0, 0), BuildingBlock: XIVTED_clean_linker_0, # of connection points: 2
#     Edge 250, Type (0, 0), BuildingBlock: XIVTED_clean_linker_0, # of connection points: 2
#     Edge 251, Type (0, 0), BuildingBlock: XIVTED_clean_linker_0, # of connection points: 2
#     Edge 252, Type (0, 0), BuildingBlock: XIVTED_clean_linker_0, # of connection points: 2
#     Edge 253, Type (0, 0), BuildingBlock: XIVTED_clean_linker_0, # of connection points: 2
#     Edge 254, Type (0, 0), BuildingBlock: XIVTED_clean_linker_0, # of connection points: 2
#     Edge 255, Type (0, 0), BuildingBlock: XIVTED_clean_linker_0, # of connection points: 2
#     Edge 256, Type (0, 0), BuildingBlock: XIVTED_clean_linker_0, # of connection points: 2
#     Edge 257, Type (0, 0), BuildingBlock: XIVTED_clean_linker_0, # of connection points: 2
#     Edge 258, Type (0, 0), BuildingBlock: XIVTED_clean_linker_0, # of connection points: 2
#     Edge 259, Type (0, 0), BuildingBlock: XIVTED_clean_linker_0, # of connection points: 2
#     Edge 260, Type (0, 0), BuildingBlock: XIVTED_clean_linker_0, # of connection points: 2
#     Edge 261, Type (0, 0), BuildingBlock: XIVTED_clean_linker_0, # of connection points: 2
#     Edge 262, Type (0, 0), BuildingBlock: XIVTED_clean_linker_0, # of connection points: 2
#     Edge 263, Type (0, 0), BuildingBlock: XIVTED_clean_linker_0, # of connection points: 2
#     Edge 264, Type (0, 0), BuildingBlock: XIVTED_clean_linker_0, # of connection points: 2
#     Edge 265, Type (0, 0), BuildingBlock: XIVTED_clean_linker_0, # of connection points: 2
#     Edge 266, Type (0, 0), BuildingBlock: XIVTED_clean_linker_0, # of connection points: 2
#     Edge 267, Type (0, 0), BuildingBlock: XIVTED_clean_linker_0, # of connection points: 2
#     Edge 268, Type (0, 0), BuildingBlock: XIVTED_clean_linker_0, # of connection points: 2
#     Edge 269, Type (0, 0), BuildingBlock: XIVTED_clean_linker_0, # of connection points: 2
#     Edge 270, Type (0, 0), BuildingBlock: XIVTED_clean_linker_0, # of connection points: 2
#     Edge 271, Type (0, 0), BuildingBlock: XIVTED_clean_linker_0, # of connection points: 2
#     Edge 272, Type (0, 0), BuildingBlock: XIVTED_clean_linker_0, # of connection points: 2
#     Edge 273, Type (0, 0), BuildingBlock: XIVTED_clean_linker_0, # of connection points: 2
#     Edge 274, Type (0, 0), BuildingBlock: XIVTED_clean_linker_0, # of connection points: 2
#     Edge 275, Type (0, 0), BuildingBlock: XIVTED_clean_linker_0, # of connection points: 2
#     Edge 276, Type (0, 0), BuildingBlock: XIVTED_clean_linker_0, # of connection points: 2
#     Edge 277, Type (0, 0), BuildingBlock: XIVTED_clean_linker_0, # of connection points: 2
#     Edge 278, Type (0, 0), BuildingBlock: XIVTED_clean_linker_0, # of connection points: 2
#     Edge 279, Type (0, 0), BuildingBlock: XIVTED_clean_linker_0, # of connection points: 2
#     Edge 280, Type (0, 0), BuildingBlock: XIVTED_clean_linker_0, # of connection points: 2
#     Edge 281, Type (0, 0), BuildingBlock: XIVTED_clean_linker_0, # of connection points: 2
#     Edge 282, Type (0, 0), BuildingBlock: XIVTED_clean_linker_0, # of connection points: 2
#     Edge 283, Type (0, 0), BuildingBlock: XIVTED_clean_linker_0, # of connection points: 2
#     Edge 284, Type (0, 0), BuildingBlock: XIVTED_clean_linker_0, # of connection points: 2
#     Edge 285, Type (0, 0), BuildingBlock: XIVTED_clean_linker_0, # of connection points: 2
#     Edge 286, Type (0, 0), BuildingBlock: XIVTED_clean_linker_0, # of connection points: 2
#     Edge 287, Type (0, 0), BuildingBlock: XIVTED_clean_linker_0, # of connection points: 2
# Relax obj value: 0.241
# Max RMSD: 0.304
# Mean RMSD: 0.304
data_MOF--net-ulh--node1-MUDLON_clean_sbu_0--edge1-XIVTED_clean_linker_0
_symmetry_space_group_name_H-M    P1
_symmetry_Int_Tables_number       1
_symmetry_cell_setting            triclinic
loop_
_symmetry_equiv_pos_as_xyz
'x, y, z'
_cell_length_a     86.580091
_cell_length_b     86.536024
_cell_length_c     86.530507
_cell_angle_alpha  90.000725
_cell_angle_beta   90.005522
_cell_angle_gamma 90.006423
loop_
_atom_site_label
_atom_site_type_symbol
_atom_site_fract_x
_atom_site_fract_y
_atom_site_fract_z
_atom_type_partial_charge
Mg0 Mg 0.04623 0.32218 0.08499 0.0
C1 C 0.01923 0.3239 0.06198 0.0
O2 O 0.01154 0.31714 0.07319 0.0
C3 C 0.05474 0.33786 0.11369 0.0
O4 O 0.06293 0.32508 0.11377 0.0
C5 C 0.03273 0.2895 0.08809 0.0
O6 O 0.03351 0.28974 0.07293 0.0
O7 O 0.03784 0.30099 0.0957 0.0
O8 O 0.03322 0.32774 0.0642 0.0
O9 O 0.0704 0.3222 0.07826 0.0
C10 C 0.07445 0.32247 0.06413 0.0
O11 O 0.06399 0.32004 0.0534 0.0
O12 O 0.04543 0.34014 0.10254 0.0
Mg13 Mg 0.93229 0.29138 0.32931 0.0
C14 C 0.93761 0.26633 0.3047 0.0
O15 O 0.94656 0.26032 0.31539 0.0
C16 C 0.91234 0.29583 0.35668 0.0
O17 O 0.92457 0.30412 0.36016 0.0
C18 C 0.96602 0.28258 0.33702 0.0
O19 O 0.96856 0.28639 0.32255 0.0
O20 O 0.9525 0.28416 0.34258 0.0
O21 O 0.93007 0.27856 0.30772 0.0
O22 O 0.9309 0.3158 0.32351 0.0
C23 C 0.93 0.32004 0.30945 0.0
O24 O 0.93257 0.30983 0.29852 0.0
O25 O 0.9123 0.28822 0.3441 0.0
Mg26 Mg 0.96461 0.18062 0.58272 0.0
C27 C 0.97713 0.18949 0.55263 0.0
O28 O 0.96757 0.20066 0.55638 0.0
C29 C 0.95383 0.16268 0.60871 0.0
O30 O 0.9458 0.17557 0.60877 0.0
C31 C 0.9706 0.21448 0.59462 0.0
O32 O 0.962 0.21931 0.58309 0.0
O33 O 0.97263 0.20006 0.59664 0.0
O34 O 0.97912 0.17848 0.56217 0.0
O35 O 0.94093 0.181 0.57426 0.0
C36 C 0.93879 0.17137 0.56334 0.0
O37 O 0.95077 0.16377 0.55794 0.0
O38 O 0.96416 0.16094 0.59837 0.0
Mg39 Mg 0.07658 0.2174 0.83461 0.0
C40 C 0.07339 0.2285 0.80288 0.0
O41 O 0.06283 0.21767 0.80427 0.0
C42 C 0.0981 0.22723 0.862 0.0
O43 O 0.09114 0.24071 0.86176 0.0
C44 C 0.05222 0.22304 0.85924 0.0
O45 O 0.06196 0.21479 0.86745 0.0
O46 O 0.05496 0.22514 0.84495 0.0
O47 O 0.08149 0.23193 0.81466 0.0
O48 O 0.07763 0.19384 0.82573 0.0
C49 C 0.08936 0.19196 0.81703 0.0
O50 O 0.0983 0.20392 0.81427 0.0
O51 O 0.09451 0.21698 0.85211 0.0
Mg52 Mg 0.03588 0.67405 0.92069 0.0
C53 C 0.02516 0.6795 0.95279 0.0
O54 O 0.03707 0.68883 0.95159 0.0
C55 C 0.03032 0.65394 0.89191 0.0
O56 O 0.02316 0.66624 0.88664 0.0
C57 C 0.02088 0.7048 0.91197 0.0
O58 O 0.01589 0.70393 0.92628 0.0
O59 O 0.02992 0.69436 0.90693 0.0
O60 O 0.02107 0.67173 0.94098 0.0
O61 O 0.05937 0.67312 0.9296 0.0
C62 C 0.06111 0.66201 0.93909 0.0
O63 O 0.04905 0.65347 0.94253 0.0
O64 O 0.03548 0.65392 0.90567 0.0
Mg65 Mg 0.57038 0.29257 0.17093 0.0
C66 C 0.56457 0.28653 0.20406 0.0
O67 O 0.55686 0.29936 0.2015 0.0
C68 C 0.59016 0.29138 0.14228 0.0
O69 O 0.57692 0.29539 0.13604 0.0
C70 C 0.53815 0.27977 0.16512 0.0
O71 O 0.53825 0.27932 0.18028 0.0
O72 O 0.54973 0.28551 0.15811 0.0
O73 O 0.5717 0.28022 0.19285 0.0
O74 O 0.57228 0.3167 0.17778 0.0
C75 C 0.57666 0.32737 0.16869 0.0
O76 O 0.5779 0.32443 0.15386 0.0
O77 O 0.59067 0.28853 0.1567 0.0
Mg78 Mg 0.96119 0.82292 0.42145 0.0
C79 C 0.96782 0.81921 0.45454 0.0
O80 O 0.95523 0.81105 0.45222 0.0
C81 C 0.95576 0.83864 0.3923 0.0
O82 O 0.94784 0.8257 0.39149 0.0
C83 C 0.97488 0.79071 0.41739 0.0
O84 O 0.97797 0.79266 0.43212 0.0
O85 O 0.96721 0.80106 0.4103 0.0
O86 O 0.97409 0.82586 0.443 0.0
O87 O 0.93726 0.82635 0.42836 0.0
C88 C 0.93609 0.83916 0.4355 0.0
O89 O 0.94862 0.84751 0.43742 0.0
O90 O 0.96407 0.84099 0.40421 0.0
Mg91 Mg 0.42884 0.21344 0.66764 0.0
C92 C 0.43609 0.22022 0.70041 0.0
O93 O 0.44403 0.20757 0.69768 0.0
C94 C 0.40838 0.21992 0.63948 0.0
O95 O 0.42151 0.22397 0.63303 0.0
C96 C 0.46121 0.22543 0.66072 0.0
O97 O 0.46173 0.22578 0.67587 0.0
O98 O 0.44919 0.22011 0.65413 0.0
O99 O 0.42826 0.22615 0.68945 0.0
O100 O 0.42667 0.18925 0.67425 0.0
C101 C 0.41565 0.18739 0.68383 0.0
O102 O 0.40799 0.19963 0.68851 0.0
O103 O 0.40814 0.21641 0.65375 0.0
Mg104 Mg 0.08024 0.04233 0.32514 0.0
C105 C 0.04706 0.03581 0.32255 0.0
O106 O 0.0495 0.04682 0.31239 0.0
C107 C 0.11108 0.04429 0.34112 0.0
O108 O 0.1153 0.04649 0.32672 0.0
C109 C 0.09875 0.0382 0.29446 0.0
O110 O 0.10277 0.05272 0.2963 0.0
O111 O 0.08968 0.03191 0.30417 0.0
O112 O 0.0585 0.0307 0.33027 0.0
O113 O 0.07348 0.06654 0.32417 0.0
C114 C 0.08285 0.0776 0.32644 0.0
O115 O 0.09773 0.0747 0.32679 0.0
O116 O 0.09701 0.04112 0.344 0.0
Mg117 Mg 0.21298 0.33612 0.57421 0.0
C118 C 0.22659 0.30644 0.58648 0.0
O119 O 0.21411 0.30718 0.59507 0.0
C120 C 0.20599 0.36631 0.58893 0.0
O121 O 0.20074 0.36829 0.57482 0.0
C122 C 0.22503 0.33987 0.54163 0.0
O123 O 0.22763 0.32504 0.54358 0.0
O124 O 0.21809 0.34731 0.55223 0.0
O125 O 0.22972 0.31766 0.5775 0.0
O126 O 0.19082 0.32449 0.57606 0.0
C127 C 0.17765 0.33087 0.57497 0.0
O128 O 0.17674 0.34537 0.57057 0.0
O129 O 0.21282 0.35371 0.59223 0.0
Mg130 Mg 0.91399 0.46034 0.82263 0.0
C131 C 0.94166 0.47854 0.81428 0.0
O132 O 0.93602 0.47441 0.8008 0.0
C133 C 0.88766 0.45007 0.84144 0.0
O134 O 0.88981 0.43876 0.83153 0.0
C135 C 0.88904 0.46738 0.79846 0.0
O136 O 0.88004 0.46163 0.80922 0.0
O137 O 0.9036 0.46737 0.80058 0.0
O138 O 0.93428 0.47478 0.82643 0.0
O139 O 0.92216 0.43662 0.8249 0.0
C140 C 0.93629 0.43271 0.82383 0.0
O141 O 0.94635 0.44268 0.8184 0.0
O142 O 0.89649 0.46183 0.84074 0.0
Mg143 Mg 0.78956 0.16747 0.07567 0.0
C144 C 0.77955 0.19931 0.08566 0.0
O145 O 0.79363 0.19913 0.09132 0.0
C146 C 0.78365 0.13884 0.09629 0.0
O147 O 0.77374 0.13476 0.08554 0.0
C148 C 0.77642 0.16251 0.04373 0.0
O149 O 0.77579 0.17766 0.04452 0.0
O150 O 0.78231 0.15507 0.05495 0.0
O151 O 0.77434 0.18719 0.07915 0.0
O152 O 0.8128 0.17683 0.07497 0.0
C153 C 0.8241 0.16784 0.07757 0.0
O154 O 0.82158 0.15287 0.07807 0.0
O155 O 0.79059 0.15174 0.09523 0.0
Mg156 Mg 0.08643 0.96124 0.68598 0.0
C157 C 0.06088 0.98451 0.69098 0.0
O158 O 0.06875 0.98665 0.70378 0.0
C159 C 0.11253 0.95161 0.666 0.0
O160 O 0.11079 0.93964 0.67518 0.0
C161 C 0.11085 0.9676 0.71078 0.0
O162 O 0.11972 0.96032 0.70085 0.0
O163 O 0.09648 0.96883 0.70792 0.0
O164 O 0.06598 0.97502 0.68099 0.0
O165 O 0.07904 0.93726 0.68441 0.0
C166 C 0.06482 0.93356 0.68404 0.0
O167 O 0.05438 0.94403 0.68744 0.0
O168 O 0.10375 0.96327 0.66783 0.0
Mg169 Mg 0.28994 0.33577 0.9288 0.0
C170 C 0.27602 0.30632 0.93724 0.0
O171 O 0.28459 0.31026 0.94915 0.0
C172 C 0.30051 0.36171 0.90962 0.0
O173 O 0.31171 0.35971 0.91967 0.0
C174 C 0.28378 0.36074 0.95318 0.0
O175 O 0.28908 0.36981 0.94224 0.0
O176 O 0.28357 0.34621 0.95095 0.0
O177 O 0.27512 0.31563 0.9259 0.0
O178 O 0.31349 0.327 0.92708 0.0
C179 C 0.31533 0.3154 0.91821 0.0
O180 O 0.30308 0.30892 0.91203 0.0
O181 O 0.28869 0.35297 0.91042 0.0
Mg182 Mg 0.91984 0.5379 0.18318 0.0
C183 C 0.95289 0.52899 0.18549 0.0
O184 O 0.95252 0.5421 0.19313 0.0
C185 C 0.89015 0.53969 0.16488 0.0
O186 O 0.88494 0.54432 0.17836 0.0
C187 C 0.91508 0.52392 0.21505 0.0
O188 O 0.93011 0.52222 0.21389 0.0
O189 O 0.90787 0.5309 0.2043 0.0
O190 O 0.94036 0.52371 0.17988 0.0
O191 O 0.92842 0.56151 0.18171 0.0
C192 C 0.92005 0.57332 0.17925 0.0
O193 O 0.90495 0.57193 0.17971 0.0
O194 O 0.9042 0.53554 0.1637 0.0
Mg195 Mg 0.70967 0.16843 0.42965 0.0
C196 C 0.73746 0.19071 0.43058 0.0
O197 O 0.74441 0.17922 0.43765 0.0
C198 C 0.6991 0.14218 0.41119 0.0
O199 O 0.69042 0.14183 0.42365 0.0
C200 C 0.72252 0.16064 0.46223 0.0
O201 O 0.72149 0.17558 0.46476 0.0
O202 O 0.71792 0.15517 0.44939 0.0
O203 O 0.72374 0.1889 0.42571 0.0
O204 O 0.6857 0.17589 0.43069 0.0
C205 C 0.68238 0.1895 0.42623 0.0
O206 O 0.69367 0.1993 0.42363 0.0
O207 O 0.70946 0.15257 0.41016 0.0
Mg208 Mg 0.32396 0.09117 0.03781 0.0
C209 C 0.33619 0.05974 0.02747 0.0
O210 O 0.34491 0.06138 0.03978 0.0
C211 C 0.3387 0.1217 0.04112 0.0
O212 O 0.32534 0.12349 0.0481 0.0
C213 C 0.29145 0.09354 0.0251 0.0
O214 O 0.29382 0.07868 0.02301 0.0
O215 O 0.30174 0.10147 0.03197 0.0
O216 O 0.32717 0.07067 0.02357 0.0
O217 O 0.3273 0.08447 0.06176 0.0
C218 C 0.32347 0.07162 0.06777 0.0
O219 O 0.31487 0.06194 0.05983 0.0
O220 O 0.34152 0.10885 0.03454 0.0
Mg221 Mg 0.81768 0.92097 0.46214 0.0
C222 C 0.81246 0.95343 0.47145 0.0
O223 O 0.80386 0.95209 0.459 0.0
C224 C 0.83659 0.89176 0.46072 0.0
O225 O 0.82319 0.88628 0.45616 0.0
C226 C 0.78557 0.91489 0.47524 0.0
O227 O 0.78595 0.92995 0.47697 0.0
O228 O 0.79688 0.90819 0.46865 0.0
O229 O 0.81998 0.94172 0.47618 0.0
O230 O 0.81918 0.92959 0.43861 0.0
C231 C 0.82199 0.92121 0.42688 0.0
O232 O 0.82181 0.90611 0.42833 0.0
O233 O 0.83754 0.90588 0.46473 0.0
Mg234 Mg 0.33311 0.06892 0.71386 0.0
C235 C 0.30118 0.06271 0.72363 0.0
O236 O 0.30351 0.05295 0.71223 0.0
C237 C 0.35819 0.09003 0.70454 0.0
O238 O 0.35724 0.08034 0.69289 0.0
C239 C 0.35896 0.04567 0.72031 0.0
O240 O 0.36747 0.05686 0.71463 0.0
O241 O 0.34434 0.04725 0.72056 0.0
O242 O 0.3123 0.07137 0.72784 0.0
O243 O 0.32506 0.07122 0.69007 0.0
C244 C 0.31546 0.08227 0.68854 0.0
O245 O 0.31117 0.08992 0.70093 0.0
O246 O 0.34926 0.0881 0.71608 0.0
Mg247 Mg 0.18074 0.58362 0.96457 0.0
C248 C 0.18428 0.55029 0.97285 0.0
O249 O 0.18904 0.55033 0.95844 0.0
C250 C 0.16161 0.6116 0.96143 0.0
O251 O 0.17348 0.61458 0.95244 0.0
C252 C 0.21258 0.59146 0.97713 0.0
O253 O 0.21172 0.57706 0.98185 0.0
O254 O 0.20178 0.59685 0.96874 0.0
O255 O 0.18015 0.56299 0.97902 0.0
O256 O 0.17591 0.57601 0.94108 0.0
C257 C 0.16317 0.56867 0.94055 0.0
O258 O 0.15546 0.56666 0.95348 0.0
O259 O 0.16157 0.59908 0.96914 0.0
Mg260 Mg 0.16563 0.93297 0.21592 0.0
C261 C 0.19826 0.9403 0.22323 0.0
O262 O 0.19573 0.94835 0.2106 0.0
C263 C 0.13849 0.91291 0.21228 0.0
O264 O 0.13478 0.92533 0.20437 0.0
C265 C 0.15768 0.96618 0.22598 0.0
O266 O 0.17269 0.96813 0.22502 0.0
O267 O 0.15187 0.95324 0.22212 0.0
O268 O 0.18719 0.93249 0.22896 0.0
O269 O 0.17225 0.92993 0.19181 0.0
C270 C 0.18205 0.91905 0.19034 0.0
O271 O 0.18703 0.91204 0.20285 0.0
O272 O 0.15121 0.9128 0.21965 0.0
Mg273 Mg 0.6833 0.91826 0.037 0.0
C274 C 0.6932 0.94712 0.02253 0.0
O275 O 0.70499 0.94296 0.03114 0.0
C276 C 0.66224 0.8931 0.04606 0.0
O277 O 0.67077 0.89522 0.05844 0.0
C278 C 0.70768 0.89284 0.0337 0.0
O279 O 0.69684 0.88446 0.04021 0.0
O280 O 0.70547 0.90727 0.03197 0.0
O281 O 0.68152 0.93824 0.02187 0.0
O282 O 0.67972 0.9279 0.05997 0.0
C283 C 0.66755 0.93616 0.0602 0.0
O284 O 0.65977 0.93789 0.04727 0.0
O285 O 0.66478 0.90146 0.03422 0.0
Mg286 Mg 0.3335 0.42482 0.78464 0.0
C287 C 0.3047 0.43342 0.76948 0.0
O288 O 0.30915 0.44596 0.7768 0.0
C289 C 0.35933 0.40484 0.79496 0.0
O290 O 0.35734 0.41425 0.8067 0.0
C291 C 0.35852 0.44938 0.77979 0.0
O292 O 0.36709 0.43894 0.7867 0.0
O293 O 0.34411 0.4469 0.77827 0.0
O294 O 0.31344 0.42161 0.76987 0.0
O295 O 0.32341 0.42277 0.80754 0.0
C296 C 0.32749 0.42871 0.82033 0.0
O297 O 0.339 0.43861 0.82068 0.0
O298 O 0.35066 0.40635 0.78316 0.0
Mg299 Mg 0.67068 0.07636 0.28399 0.0
C300 C 0.70351 0.06976 0.27759 0.0
O301 O 0.7007 0.06196 0.29031 0.0
C302 C 0.64184 0.09552 0.28359 0.0
O303 O 0.63609 0.08182 0.28668 0.0
C304 C 0.66349 0.04351 0.27241 0.0
O305 O 0.67856 0.04199 0.27307 0.0
O306 O 0.65736 0.05611 0.27688 0.0
O307 O 0.69254 0.0774 0.27145 0.0
O308 O 0.67733 0.07762 0.30819 0.0
C309 C 0.66781 0.08004 0.31909 0.0
O310 O 0.65293 0.07962 0.31615 0.0
O311 O 0.65624 0.09672 0.28084 0.0
Mg312 Mg 0.03835 0.82732 0.58506 0.0
C313 C 0.01093 0.82528 0.56218 0.0
O314 O 0.00427 0.81721 0.57318 0.0
C315 C 0.03231 0.84777 0.61372 0.0
O316 O 0.02319 0.83648 0.61817 0.0
C317 C 0.02728 0.79425 0.59122 0.0
O318 O 0.02974 0.79284 0.5763 0.0
O319 O 0.03047 0.807 0.5978 0.0
O320 O 0.02418 0.83112 0.56457 0.0
O321 O 0.06227 0.82668 0.57712 0.0
C322 C 0.06507 0.83322 0.56423 0.0
O323 O 0.05341 0.83794 0.55577 0.0
O324 O 0.0388 0.84707 0.60056 0.0
Mg325 Mg 0.92901 0.78772 0.83359 0.0
C326 C 0.91807 0.77709 0.80227 0.0
O327 O 0.91041 0.79015 0.80333 0.0
C328 C 0.91287 0.7909 0.86379 0.0
O329 O 0.92718 0.79427 0.86756 0.0
C330 C 0.95915 0.77122 0.84096 0.0
O331 O 0.95675 0.76553 0.82709 0.0
O332 O 0.94996 0.78145 0.84615 0.0
O333 O 0.92618 0.77263 0.8137 0.0
O334 O 0.92795 0.81104 0.82426 0.0
C335 C 0.92663 0.82285 0.83288 0.0
O336 O 0.92829 0.82124 0.84788 0.0
O337 O 0.90998 0.78665 0.85 0.0
Mg338 Mg 0.96196 0.67825 0.0864 0.0
C339 C 0.97326 0.66626 0.05577 0.0
O340 O 0.95989 0.65912 0.05663 0.0
C341 C 0.95627 0.66314 0.11687 0.0
O342 O 0.95184 0.67739 0.11965 0.0
C343 C 0.97455 0.71072 0.08965 0.0
O344 O 0.97597 0.70897 0.07464 0.0
O345 O 0.96823 0.7 0.09747 0.0
O346 O 0.97774 0.67436 0.0672 0.0
O347 O 0.93921 0.67734 0.07583 0.0
C348 C 0.92657 0.67745 0.08328 0.0
O349 O 0.92676 0.68034 0.09818 0.0
O350 O 0.96206 0.65996 0.10372 0.0
Mg351 Mg 0.06928 0.71556 0.33441 0.0
C352 C 0.06648 0.72402 0.30118 0.0
O353 O 0.05961 0.71049 0.3016 0.0
C354 C 0.09055 0.70738 0.35985 0.0
O355 O 0.08177 0.69505 0.35858 0.0
C356 C 0.04526 0.72034 0.35983 0.0
O357 O 0.05608 0.71379 0.36819 0.0
O358 O 0.0473 0.72168 0.34532 0.0
O359 O 0.0718 0.72969 0.31367 0.0
O360 O 0.07249 0.69176 0.32681 0.0
C361 C 0.08459 0.69027 0.31858 0.0
O362 O 0.09279 0.70265 0.31542 0.0
O363 O 0.08801 0.71882 0.35095 0.0
Mg364 Mg 0.04034 0.18469 0.41802 0.0
C365 C 0.023 0.19206 0.4461 0.0
O366 O 0.02965 0.20515 0.4422 0.0
C367 C 0.05341 0.1667 0.39255 0.0
O368 O 0.0642 0.17677 0.39612 0.0
C369 C 0.03547 0.21004 0.39358 0.0
O370 O 0.04284 0.20017 0.38472 0.0
O371 O 0.03374 0.20693 0.40786 0.0
O372 O 0.0246 0.18046 0.43723 0.0
O373 O 0.06308 0.18262 0.42869 0.0
C374 C 0.06379 0.17059 0.43715 0.0
O375 O 0.05126 0.16219 0.4388 0.0
O376 O 0.04076 0.16701 0.40006 0.0
Mg377 Mg 0.57121 0.78897 0.6692 0.0
C378 C 0.56529 0.78307 0.70233 0.0
O379 O 0.55747 0.7958 0.69961 0.0
C380 C 0.59028 0.79179 0.64128 0.0
O381 O 0.57838 0.80076 0.63838 0.0
C382 C 0.53887 0.77623 0.66397 0.0
O383 O 0.53996 0.77405 0.67895 0.0
O384 O 0.54986 0.78306 0.65697 0.0
O385 O 0.57246 0.77668 0.69118 0.0
O386 O 0.57521 0.81311 0.67517 0.0
C387 C 0.58678 0.81443 0.68419 0.0
O388 O 0.59398 0.80182 0.68862 0.0
O389 O 0.59041 0.78411 0.65383 0.0
Mg390 Mg 0.96892 0.3279 0.92143 0.0
C391 C 0.97544 0.32209 0.95453 0.0
O392 O 0.96295 0.31387 0.95193 0.0
C393 C 0.97393 0.34754 0.89243 0.0
O394 O 0.97805 0.33426 0.88634 0.0
C395 C 0.98278 0.29615 0.91535 0.0
O396 O 0.98433 0.2966 0.93044 0.0
O397 O 0.97609 0.30734 0.90855 0.0
O398 O 0.98148 0.32946 0.94332 0.0
O399 O 0.94464 0.32942 0.92785 0.0
C400 C 0.94233 0.34063 0.93711 0.0
O401 O 0.95424 0.34887 0.94165 0.0
O402 O 0.97102 0.34825 0.90683 0.0
Mg403 Mg 0.4314 0.71467 0.16843 0.0
C404 C 0.43598 0.7247 0.20053 0.0
O405 O 0.4455 0.71297 0.1989 0.0
C406 C 0.41535 0.70575 0.14043 0.0
O407 O 0.42803 0.69742 0.14072 0.0
C408 C 0.46275 0.72998 0.16371 0.0
O409 O 0.46004 0.73437 0.17797 0.0
O410 O 0.45311 0.72109 0.15703 0.0
O411 O 0.42785 0.72886 0.189 0.0
O412 O 0.42926 0.69094 0.17657 0.0
C413 C 0.41805 0.6893 0.18597 0.0
O414 O 0.41006 0.70157 0.18996 0.0
O415 O 0.41325 0.71566 0.1511 0.0
Mg416 Mg 0.07904 0.53594 0.82414 0.0
C417 C 0.04985 0.52057 0.81383 0.0
O418 O 0.05607 0.52447 0.80055 0.0
C419 C 0.10624 0.5406 0.84402 0.0
O420 O 0.1101 0.54766 0.83114 0.0
C421 C 0.09196 0.53037 0.79067 0.0
O422 O 0.08222 0.54104 0.78603 0.0
O423 O 0.09269 0.52691 0.80495 0.0
O424 O 0.05721 0.52349 0.82621 0.0
O425 O 0.07401 0.56056 0.82443 0.0
C426 C 0.06026 0.5657 0.82363 0.0
O427 O 0.04909 0.55627 0.81957 0.0
O428 O 0.09334 0.53356 0.8446 0.0
Mg429 Mg 0.2126 0.83399 0.07327 0.0
C430 C 0.23328 0.8076 0.06487 0.0
O431 O 0.23107 0.81407 0.05131 0.0
C432 C 0.2013 0.8587 0.09414 0.0
O433 O 0.19003 0.85745 0.08405 0.0
C434 C 0.21983 0.86053 0.05104 0.0
O435 O 0.21345 0.86866 0.06214 0.0
O436 O 0.22028 0.84588 0.05228 0.0
O437 O 0.22743 0.81391 0.07677 0.0
O438 O 0.18885 0.82558 0.07333 0.0
C439 C 0.18625 0.81256 0.07967 0.0
O440 O 0.19803 0.804 0.08388 0.0
O441 O 0.21314 0.85009 0.09263 0.0
Mg442 Mg 0.91914 0.9632 0.32653 0.0
C443 C 0.93994 0.99217 0.32723 0.0
O444 O 0.92871 0.99856 0.31925 0.0
C445 C 0.88805 0.95754 0.3401 0.0
O446 O 0.88591 0.95336 0.32567 0.0
C447 C 0.91589 0.97496 0.29304 0.0
O448 O 0.93106 0.97493 0.29342 0.0
O449 O 0.90844 0.96996 0.30468 0.0
O450 O 0.93836 0.97841 0.33209 0.0
O451 O 0.92969 0.94041 0.32774 0.0
C452 C 0.92222 0.92777 0.32803 0.0
O453 O 0.9073 0.92791 0.3253 0.0
O454 O 0.90109 0.96308 0.34403 0.0
Mg455 Mg 0.79018 0.67061 0.57169 0.0
C456 C 0.78404 0.70371 0.56556 0.0
O457 O 0.7966 0.70106 0.55746 0.0
C458 C 0.78941 0.64235 0.59209 0.0
O459 O 0.79274 0.63576 0.57882 0.0
C460 C 0.7763 0.66389 0.54006 0.0
O461 O 0.77531 0.67903 0.5399 0.0
O462 O 0.78268 0.6573 0.55156 0.0
O463 O 0.77796 0.69258 0.573 0.0
O464 O 0.81442 0.67708 0.57269 0.0
C465 C 0.82507 0.66753 0.57596 0.0
O466 O 0.82182 0.65272 0.57643 0.0
O467 O 0.78676 0.65682 0.5924 0.0
Mg468 Mg 0.08526 0.46196 0.18359 0.0
C469 C 0.0533 0.47204 0.1741 0.0
O470 O 0.05388 0.45856 0.16714 0.0
C471 C 0.11473 0.46069 0.16495 0.0
O472 O 0.12015 0.45602 0.17834 0.0
C473 C 0.09025 0.47461 0.21567 0.0
O474 O 0.07517 0.47596 0.21463 0.0
O475 O 0.09756 0.4682 0.20466 0.0
O476 O 0.06511 0.4768 0.18143 0.0
O477 O 0.07654 0.43846 0.18197 0.0
C478 C 0.08531 0.42686 0.17992 0.0
O479 O 0.10032 0.42867 0.18105 0.0
O480 O 0.10062 0.46467 0.16394 0.0
Mg481 Mg 0.29242 0.83982 0.43275 0.0
C482 C 0.2735 0.8124 0.44078 0.0
O483 O 0.27678 0.8183 0.45438 0.0
C484 C 0.30271 0.86602 0.41353 0.0
O485 O 0.31419 0.86397 0.42326 0.0
C486 C 0.28666 0.86459 0.4576 0.0
O487 O 0.29399 0.87345 0.44772 0.0
O488 O 0.28519 0.85026 0.45465 0.0
O489 O 0.27812 0.81945 0.42874 0.0
O490 O 0.31623 0.8319 0.43127 0.0
C491 C 0.3199 0.81766 0.43139 0.0
O492 O 0.30944 0.80735 0.43518 0.0
O493 O 0.29097 0.85721 0.41453 0.0
Mg494 Mg 0.92234 0.03851 0.67978 0.0
C495 C 0.95522 0.03207 0.68566 0.0
O496 O 0.95263 0.04501 0.69317 0.0
C497 C 0.89311 0.03795 0.66117 0.0
O498 O 0.88762 0.04176 0.6748 0.0
C499 C 0.91653 0.0256 0.71201 0.0
O500 O 0.9316 0.02397 0.7115 0.0
O501 O 0.90969 0.03207 0.70072 0.0
O502 O 0.94405 0.02575 0.67847 0.0
O503 O 0.92947 0.06252 0.67754 0.0
C504 C 0.92033 0.07337 0.67375 0.0
O505 O 0.90541 0.07067 0.67335 0.0
O506 O 0.90742 0.03482 0.6599 0.0
Mg507 Mg 0.71334 0.66684 0.93004 0.0
C508 C 0.72469 0.69883 0.93402 0.0
O509 O 0.71274 0.69821 0.94337 0.0
C510 C 0.70427 0.63897 0.91365 0.0
O511 O 0.69614 0.6389 0.92648 0.0
C512 C 0.72782 0.66013 0.96158 0.0
O513 O 0.73292 0.67433 0.95996 0.0
O514 O 0.71889 0.65452 0.95134 0.0
O515 O 0.72852 0.68668 0.92667 0.0
O516 O 0.68991 0.67573 0.92808 0.0
C517 C 0.68833 0.68532 0.91703 0.0
O518 O 0.70057 0.6892 0.90895 0.0
O519 O 0.71397 0.64982 0.91158 0.0
Mg520 Mg 0.32075 0.58477 0.53996 0.0
C521 C 0.31045 0.55441 0.52738 0.0
O522 O 0.29752 0.56018 0.53284 0.0
C523 C 0.33927 0.61319 0.54214 0.0
O524 O 0.32683 0.61647 0.5502 0.0
C525 C 0.29689 0.59427 0.5176 0.0
O526 O 0.30627 0.5856 0.50939 0.0
O527 O 0.29982 0.59633 0.53186 0.0
O528 O 0.32275 0.56239 0.52846 0.0
O529 O 0.32284 0.58067 0.56471 0.0
C530 C 0.32107 0.56739 0.57076 0.0
O531 O 0.31538 0.55612 0.56235 0.0
O532 O 0.34003 0.60015 0.53537 0.0
Mg533 Mg 0.82068 0.41935 0.96431 0.0
C534 C 0.83138 0.45043 0.97585 0.0
O535 O 0.83866 0.45 0.96254 0.0
C536 C 0.8422 0.39421 0.95426 0.0
O537 O 0.83257 0.39477 0.94256 0.0
C538 C 0.79742 0.39322 0.96937 0.0
O539 O 0.80852 0.38506 0.96306 0.0
O540 O 0.79903 0.4078 0.97048 0.0
O541 O 0.82351 0.43874 0.98006 0.0
O542 O 0.82245 0.42967 0.94149 0.0
C543 C 0.81741 0.42478 0.9286 0.0
O544 O 0.80849 0.4125 0.92823 0.0
O545 O 0.84003 0.40322 0.9657 0.0
Mg546 Mg 0.33204 0.57294 0.21226 0.0
C547 C 0.30394 0.56362 0.22859 0.0
O548 O 0.30807 0.55116 0.22095 0.0
C549 C 0.35832 0.59298 0.20301 0.0
O550 O 0.3571 0.58353 0.19119 0.0
C551 C 0.35701 0.54845 0.21732 0.0
O552 O 0.36597 0.55979 0.21275 0.0
O553 O 0.34244 0.55039 0.21722 0.0
O554 O 0.31259 0.57548 0.2279 0.0
O555 O 0.3212 0.5769 0.18997 0.0
C556 C 0.32464 0.57239 0.17643 0.0
O557 O 0.33609 0.56262 0.17444 0.0
O558 O 0.34917 0.59129 0.2144 0.0
Mg559 Mg 0.17865 0.0846 0.46482 0.0
C560 C 0.18383 0.05167 0.4719 0.0
O561 O 0.19133 0.05379 0.45887 0.0
C562 C 0.16018 0.11382 0.46406 0.0
O563 O 0.17358 0.11878 0.45893 0.0
C564 C 0.21086 0.09087 0.47775 0.0
O565 O 0.21054 0.07582 0.47968 0.0
O566 O 0.19954 0.09742 0.47103 0.0
O567 O 0.17715 0.06321 0.47813 0.0
O568 O 0.17617 0.07651 0.44112 0.0
C569 C 0.17359 0.08475 0.42925 0.0
O570 O 0.17438 0.09987 0.43033 0.0
O571 O 0.15895 0.09979 0.4683 0.0
Mg572 Mg 0.16684 0.42821 0.71386 0.0
C573 C 0.19656 0.43538 0.72755 0.0
O574 O 0.19159 0.44839 0.72149 0.0
C575 C 0.13627 0.41269 0.70998 0.0
O576 O 0.13273 0.42714 0.70699 0.0
C577 C 0.14857 0.45941 0.71844 0.0
O578 O 0.14564 0.45915 0.70354 0.0
O579 O 0.1567 0.44874 0.72444 0.0
O580 O 0.18788 0.42354 0.72678 0.0
O581 O 0.17556 0.42965 0.69033 0.0
C582 C 0.16742 0.42714 0.67836 0.0
O583 O 0.15235 0.42617 0.67973 0.0
O584 O 0.15001 0.40946 0.71411 0.0
Mg585 Mg 0.68211 0.41346 0.54245 0.0
C586 C 0.6901 0.44077 0.52322 0.0
O587 O 0.70367 0.43447 0.52576 0.0
C588 C 0.663 0.38709 0.55256 0.0
O589 O 0.67288 0.38896 0.56394 0.0
C590 C 0.7066 0.38859 0.53595 0.0
O591 O 0.69643 0.37964 0.54275 0.0
O592 O 0.70395 0.40303 0.53503 0.0
O593 O 0.67811 0.43402 0.52838 0.0
O594 O 0.68084 0.42112 0.56638 0.0
C595 C 0.68041 0.43536 0.57001 0.0
O596 O 0.68344 0.44578 0.5594 0.0
O597 O 0.66382 0.39612 0.54096 0.0
Mg598 Mg 0.33125 0.93115 0.28864 0.0
C599 C 0.30599 0.93927 0.26612 0.0
O600 O 0.31379 0.95229 0.2661 0.0
C601 C 0.35714 0.91041 0.29808 0.0
O602 O 0.35662 0.92024 0.30962 0.0
C603 C 0.35694 0.95443 0.28173 0.0
O604 O 0.36563 0.94308 0.28678 0.0
O605 O 0.34232 0.95296 0.28216 0.0
O606 O 0.31112 0.9279 0.2739 0.0
O607 O 0.32157 0.92918 0.31173 0.0
C608 C 0.32654 0.93453 0.32446 0.0
O609 O 0.33855 0.94382 0.3245 0.0
O610 O 0.34774 0.91212 0.28689 0.0
Mg611 Mg 0.66612 0.57554 0.78813 0.0
C612 C 0.69739 0.58645 0.77759 0.0
O613 O 0.69667 0.5931 0.79122 0.0
C614 C 0.6355 0.59106 0.7917 0.0
O615 O 0.63201 0.57669 0.79513 0.0
C616 C 0.66004 0.54464 0.7725 0.0
O617 O 0.67429 0.54682 0.76775 0.0
O618 O 0.65409 0.55431 0.78182 0.0
O619 O 0.68571 0.57897 0.7727 0.0
O620 O 0.67598 0.57617 0.81122 0.0
C621 C 0.66789 0.5778 0.82336 0.0
O622 O 0.65277 0.577 0.82233 0.0
O623 O 0.64924 0.59421 0.7875 0.0
Mg624 Mg 0.53893 0.32255 0.5831 0.0
C625 C 0.52681 0.33525 0.55297 0.0
O626 O 0.54049 0.34183 0.55314 0.0
C627 C 0.55179 0.34022 0.60942 0.0
O628 O 0.56244 0.32983 0.60654 0.0
C629 C 0.53382 0.29679 0.60694 0.0
O630 O 0.54133 0.30643 0.61592 0.0
O631 O 0.53207 0.30016 0.59273 0.0
O632 O 0.52254 0.3274 0.56465 0.0
O633 O 0.56131 0.32423 0.57172 0.0
C634 C 0.57416 0.31794 0.57494 0.0
O635 O 0.57488 0.30752 0.58596 0.0
O636 O 0.53955 0.34017 0.60126 0.0
Mg637 Mg 0.43241 0.28678 0.83315 0.0
C638 C 0.43999 0.2646 0.80749 0.0
O639 O 0.45352 0.26551 0.8143 0.0
C640 C 0.41156 0.29782 0.85802 0.0
O641 O 0.42092 0.30962 0.85609 0.0
C642 C 0.45622 0.28225 0.8589 0.0
O643 O 0.44612 0.29039 0.86676 0.0
O644 O 0.45381 0.27976 0.84461 0.0
O645 O 0.42857 0.27169 0.81339 0.0
O646 O 0.43152 0.31041 0.82443 0.0
C647 C 0.42612 0.31271 0.81094 0.0
O648 O 0.42347 0.30076 0.80197 0.0
O649 O 0.41353 0.28579 0.84976 0.0
Mg650 Mg 0.46104 0.1827 0.08568 0.0
C651 C 0.48805 0.18675 0.06395 0.0
O652 O 0.48923 0.19973 0.07174 0.0
C653 C 0.446 0.1655 0.11119 0.0
O654 O 0.43609 0.17657 0.10814 0.0
C655 C 0.4678 0.20683 0.11041 0.0
O656 O 0.46293 0.19557 0.11932 0.0
O657 O 0.46738 0.20505 0.09581 0.0
O658 O 0.47803 0.17685 0.0681 0.0
O659 O 0.43971 0.18113 0.07249 0.0
C660 C 0.42655 0.18736 0.07439 0.0
O661 O 0.42463 0.1977 0.08533 0.0
O662 O 0.4586 0.16507 0.10362 0.0
Mg663 Mg 0.5704 0.21441 0.3338 0.0
C664 C 0.56317 0.23866 0.30962 0.0
O665 O 0.5498 0.23843 0.31679 0.0
C666 C 0.59036 0.204 0.35951 0.0
O667 O 0.58213 0.19162 0.35641 0.0
C668 C 0.54533 0.21763 0.35844 0.0
O669 O 0.55589 0.21079 0.36691 0.0
O670 O 0.54786 0.21951 0.34407 0.0
O671 O 0.57419 0.23046 0.3148 0.0
O672 O 0.57426 0.19179 0.32336 0.0
C673 C 0.58682 0.19177 0.31569 0.0
O674 O 0.59478 0.20467 0.31489 0.0
O675 O 0.58802 0.2162 0.35165 0.0
Mg676 Mg 0.53812 0.6768 0.42176 0.0
C677 C 0.52936 0.68379 0.45353 0.0
O678 O 0.54077 0.69327 0.45031 0.0
C679 C 0.54649 0.66 0.39426 0.0
O680 O 0.55452 0.6729 0.39413 0.0
C681 C 0.52162 0.7072 0.41453 0.0
O682 O 0.51614 0.705 0.4285 0.0
O683 O 0.53158 0.69777 0.4092 0.0
O684 O 0.52463 0.67468 0.44298 0.0
O685 O 0.56203 0.67489 0.42938 0.0
C686 C 0.56382 0.664 0.43912 0.0
O687 O 0.55158 0.65627 0.44369 0.0
O688 O 0.53686 0.65791 0.40519 0.0
Mg689 Mg 0.07414 0.28813 0.66864 0.0
C690 C 0.08769 0.27842 0.69935 0.0
O691 O 0.09385 0.29226 0.69833 0.0
C692 C 0.08896 0.29305 0.63757 0.0
O693 O 0.07457 0.29656 0.63428 0.0
C694 C 0.04249 0.28551 0.65097 0.0
O695 O 0.04373 0.30034 0.64797 0.0
O696 O 0.05282 0.27882 0.659 0.0
O697 O 0.07975 0.27329 0.68809 0.0
O698 O 0.0735 0.31109 0.67879 0.0
C699 C 0.07529 0.32348 0.67111 0.0
O700 O 0.07508 0.3229 0.65595 0.0
O701 O 0.09222 0.28839 0.65113 0.0
Mg702 Mg 0.46407 0.82369 0.92089 0.0
C703 C 0.47165 0.81778 0.95367 0.0
O704 O 0.459 0.80968 0.95143 0.0
C705 C 0.46984 0.84298 0.89177 0.0
O706 O 0.47387 0.82961 0.8858 0.0
C707 C 0.47658 0.79141 0.91453 0.0
O708 O 0.4784 0.79174 0.92959 0.0
O709 O 0.47017 0.80286 0.90789 0.0
O710 O 0.4774 0.82512 0.94229 0.0
O711 O 0.44016 0.82623 0.92832 0.0
C712 C 0.43885 0.83797 0.93711 0.0
O713 O 0.45133 0.84597 0.94039 0.0
O714 O 0.46661 0.84381 0.90608 0.0
Mg715 Mg 0.93362 0.21301 0.16571 0.0
C716 C 0.9412 0.22538 0.19606 0.0
O717 O 0.95232 0.21558 0.19278 0.0
C718 C 0.91434 0.20077 0.14088 0.0
O719 O 0.92511 0.19032 0.14311 0.0
C720 C 0.95662 0.22002 0.13978 0.0
O721 O 0.94519 0.21497 0.1312 0.0
O722 O 0.95522 0.2198 0.15443 0.0
O723 O 0.93079 0.22775 0.18595 0.0
O724 O 0.93266 0.18957 0.17494 0.0
C725 C 0.92245 0.18773 0.18537 0.0
O726 O 0.91477 0.19988 0.19024 0.0
O727 O 0.91469 0.21304 0.14902 0.0
Mg728 Mg 0.58419 0.03786 0.82595 0.0
C729 C 0.55123 0.0311 0.8203 0.0
O730 O 0.55357 0.0441 0.81281 0.0
C731 C 0.61337 0.03125 0.84494 0.0
O732 O 0.61898 0.02674 0.83158 0.0
C733 C 0.59005 0.02519 0.79371 0.0
O734 O 0.575 0.02338 0.79435 0.0
O735 O 0.5969 0.03175 0.80495 0.0
O736 O 0.5626 0.02479 0.82718 0.0
O737 O 0.57703 0.06184 0.82885 0.0
C738 C 0.56868 0.0631 0.84091 0.0
O739 O 0.56569 0.05058 0.84896 0.0
O740 O 0.5992 0.03502 0.8459 0.0
Mg741 Mg 0.71436 0.33301 0.07371 0.0
C742 C 0.7234 0.29992 0.07183 0.0
O743 O 0.71033 0.30019 0.06412 0.0
C744 C 0.7088 0.362 0.09098 0.0
O745 O 0.69967 0.36355 0.07894 0.0
C746 C 0.72761 0.33708 0.04142 0.0
O747 O 0.73085 0.3224 0.04347 0.0
O748 O 0.71996 0.34418 0.05178 0.0
O749 O 0.72867 0.31254 0.07725 0.0
O750 O 0.69072 0.32518 0.07718 0.0
C751 C 0.68949 0.31832 0.09014 0.0
O752 O 0.70191 0.31695 0.09878 0.0
O753 O 0.71735 0.35007 0.09185 0.0
Mg754 Mg 0.41491 0.46412 0.32123 0.0
C755 C 0.44811 0.47033 0.31637 0.0
O756 O 0.44576 0.45742 0.30874 0.0
C757 C 0.38701 0.46028 0.3403 0.0
O758 O 0.38465 0.45079 0.32868 0.0
C759 C 0.41042 0.47586 0.28837 0.0
O760 O 0.42551 0.47709 0.2893 0.0
O761 O 0.40307 0.46998 0.29967 0.0
O762 O 0.43667 0.47677 0.32301 0.0
O763 O 0.42145 0.4401 0.32498 0.0
C764 C 0.42967 0.43896 0.33713 0.0
O765 O 0.43271 0.45159 0.34501 0.0
O766 O 0.39916 0.46856 0.34026 0.0
Mg767 Mg 0.2878 0.17087 0.57413 0.0
C768 C 0.27282 0.20165 0.56901 0.0
O769 O 0.27777 0.19844 0.55501 0.0
C770 C 0.29665 0.14399 0.59364 0.0
O771 O 0.3085 0.14521 0.58424 0.0
C772 C 0.28273 0.1477 0.54788 0.0
O773 O 0.29266 0.13964 0.55603 0.0
O774 O 0.27931 0.16131 0.55227 0.0
O775 O 0.27485 0.19175 0.57968 0.0
O776 O 0.31219 0.17698 0.57563 0.0
C777 C 0.31752 0.19062 0.57425 0.0
O778 O 0.3085 0.20165 0.56907 0.0
O779 O 0.28542 0.15338 0.59214 0.0
Mg780 Mg 0.5826 0.96833 0.17513 0.0
C781 C 0.55794 0.99301 0.17874 0.0
O782 O 0.56846 0.99895 0.18793 0.0
C783 C 0.6123 0.96843 0.15629 0.0
O784 O 0.61838 0.9659 0.16995 0.0
C785 C 0.60386 0.97166 0.20423 0.0
O786 O 0.60879 0.95768 0.20099 0.0
O787 O 0.59342 0.97778 0.19589 0.0
O788 O 0.561 0.98063 0.17144 0.0
O789 O 0.57585 0.94412 0.1754 0.0
C790 C 0.58545 0.93348 0.1722 0.0
O791 O 0.60019 0.93695 0.1712 0.0
O792 O 0.59782 0.97071 0.1552 0.0
Mg793 Mg 0.78853 0.33114 0.42961 0.0
C794 C 0.78252 0.29764 0.43342 0.0
O795 O 0.79587 0.29952 0.44041 0.0
C796 C 0.79166 0.35971 0.41153 0.0
O797 O 0.80119 0.36179 0.42316 0.0
C798 C 0.77724 0.3351 0.46268 0.0
O799 O 0.77588 0.32002 0.46156 0.0
O800 O 0.78307 0.34257 0.45144 0.0
O801 O 0.77587 0.30941 0.42763 0.0
O802 O 0.81256 0.32511 0.42529 0.0
C803 C 0.8138 0.31758 0.41271 0.0
O804 O 0.80118 0.31456 0.40482 0.0
O805 O 0.78359 0.34742 0.41116 0.0
Mg806 Mg 0.41741 0.53872 0.6783 0.0
C807 C 0.45069 0.53015 0.67911 0.0
O808 O 0.45047 0.54289 0.68736 0.0
C809 C 0.38776 0.53475 0.65919 0.0
O810 O 0.38254 0.52787 0.67167 0.0
C811 C 0.41252 0.52307 0.70938 0.0
O812 O 0.42763 0.522 0.70857 0.0
O813 O 0.40531 0.53008 0.69866 0.0
O814 O 0.43803 0.52505 0.67363 0.0
O815 O 0.42517 0.56255 0.67937 0.0
C816 C 0.41575 0.57328 0.67596 0.0
O817 O 0.40102 0.56991 0.67456 0.0
O818 O 0.40175 0.5392 0.6587 0.0
Mg819 Mg 0.21095 0.17276 0.93126 0.0
C820 C 0.23146 0.19917 0.93869 0.0
O821 O 0.22915 0.19282 0.95229 0.0
C822 C 0.21982 0.14591 0.90882 0.0
O823 O 0.23289 0.14509 0.91649 0.0
C824 C 0.21756 0.14693 0.95462 0.0
O825 O 0.20983 0.13854 0.94459 0.0
O826 O 0.21902 0.16136 0.95225 0.0
O827 O 0.22568 0.19271 0.92683 0.0
O828 O 0.18734 0.18133 0.93201 0.0
C829 C 0.18445 0.1957 0.9307 0.0
O830 O 0.1959 0.20561 0.93153 0.0
O831 O 0.20998 0.15623 0.91235 0.0
Mg832 Mg 0.82336 0.08521 0.54006 0.0
C833 C 0.81322 0.05601 0.52525 0.0
O834 O 0.80074 0.06034 0.53273 0.0
C835 C 0.84171 0.11345 0.54508 0.0
O836 O 0.83024 0.11508 0.55489 0.0
C837 C 0.79807 0.09629 0.52033 0.0
O838 O 0.80714 0.08864 0.51087 0.0
O839 O 0.80171 0.09699 0.53457 0.0
O840 O 0.82511 0.06462 0.5257 0.0
O841 O 0.82712 0.07668 0.56343 0.0
C842 C 0.83909 0.06813 0.56377 0.0
O843 O 0.8466 0.06575 0.55079 0.0
O844 O 0.84192 0.10161 0.53637 0.0
Mg845 Mg 0.32408 0.92303 0.96875 0.0
C846 C 0.32121 0.95625 0.97701 0.0
O847 O 0.31277 0.95523 0.96443 0.0
C848 C 0.3423 0.89481 0.96282 0.0
O849 O 0.33033 0.89306 0.95364 0.0
C850 C 0.29202 0.91858 0.98249 0.0
O851 O 0.29361 0.93346 0.98506 0.0
O852 O 0.30259 0.91146 0.97517 0.0
O853 O 0.32748 0.94404 0.98231 0.0
O854 O 0.32665 0.93006 0.94473 0.0
C855 C 0.33888 0.93803 0.94284 0.0
O856 O 0.34747 0.94107 0.95499 0.0
O857 O 0.34278 0.90659 0.97162 0.0
Mg858 Mg 0.83763 0.0703 0.21248 0.0
C859 C 0.81105 0.06403 0.23422 0.0
O860 O 0.81875 0.05105 0.23579 0.0
C861 C 0.8634 0.09106 0.20342 0.0
O862 O 0.8626 0.0815 0.19164 0.0
C863 C 0.86289 0.04647 0.21951 0.0
O864 O 0.87147 0.05656 0.21211 0.0
O865 O 0.84843 0.04888 0.22063 0.0
O866 O 0.81658 0.07461 0.22565 0.0
O867 O 0.83096 0.07125 0.18823 0.0
C868 C 0.81683 0.07163 0.18418 0.0
O869 O 0.80612 0.06871 0.19452 0.0
O870 O 0.85413 0.0892 0.21469 0.0
Mg871 Mg 0.68067 0.57878 0.46749 0.0
C872 C 0.68895 0.54828 0.47935 0.0
O873 O 0.70009 0.55185 0.46966 0.0
C874 C 0.65963 0.60391 0.45811 0.0
O875 O 0.66882 0.60239 0.44613 0.0
C876 C 0.70456 0.6044 0.47224 0.0
O877 O 0.69382 0.61269 0.46547 0.0
O878 O 0.70251 0.58992 0.47374 0.0
O879 O 0.67834 0.55816 0.48174 0.0
O880 O 0.67804 0.57009 0.444 0.0
C881 C 0.66605 0.56163 0.443 0.0
O882 O 0.65798 0.55906 0.45561 0.0
O883 O 0.66178 0.59524 0.46981 0.0
Mg884 Mg 0.67124 0.93218 0.71354 0.0
C885 C 0.7001 0.94121 0.72926 0.0
O886 O 0.69485 0.95433 0.72369 0.0
C887 C 0.64612 0.91133 0.70341 0.0
O888 O 0.64698 0.9214 0.69208 0.0
C889 C 0.64549 0.95563 0.72033 0.0
O890 O 0.63712 0.94562 0.7126 0.0
O891 O 0.65993 0.95328 0.72173 0.0
O892 O 0.69204 0.92906 0.72739 0.0
O893 O 0.67846 0.9318 0.68937 0.0
C894 C 0.69142 0.92559 0.68621 0.0
O895 O 0.70069 0.92183 0.69762 0.0
O896 O 0.65515 0.91285 0.71494 0.0
Mg897 Mg 0.18093 0.92062 0.54221 0.0
C898 C 0.18201 0.94397 0.51532 0.0
O899 O 0.18842 0.93247 0.50775 0.0
C900 C 0.16193 0.89298 0.54844 0.0
O901 O 0.17326 0.89163 0.55845 0.0
C902 C 0.21411 0.91614 0.5308 0.0
O903 O 0.21451 0.93127 0.5321 0.0
O904 O 0.20198 0.90893 0.53487 0.0
O905 O 0.17754 0.94186 0.52914 0.0
O906 O 0.17983 0.9266 0.56663 0.0
C907 C 0.1755 0.94014 0.57042 0.0
O908 O 0.17379 0.95059 0.55955 0.0
O909 O 0.16201 0.90442 0.53919 0.0
Mg910 Mg 0.83222 0.42849 0.29017 0.0
C911 C 0.80598 0.43692 0.26972 0.0
O912 O 0.81174 0.4505 0.27332 0.0
C913 C 0.85938 0.40666 0.2809 0.0
O914 O 0.8602 0.41467 0.26803 0.0
C915 C 0.85809 0.45217 0.28519 0.0
O916 O 0.86626 0.44183 0.29272 0.0
O917 O 0.84368 0.44992 0.28335 0.0
O918 O 0.81282 0.42483 0.27453 0.0
O919 O 0.82248 0.42772 0.31339 0.0
C920 C 0.81124 0.41834 0.31489 0.0
O921 O 0.80586 0.41142 0.3025 0.0
O922 O 0.84894 0.40977 0.29074 0.0
Mg923 Mg 0.17027 0.07288 0.79328 0.0
C924 C 0.19368 0.06998 0.76677 0.0
O925 O 0.18202 0.06341 0.7596 0.0
C926 C 0.14211 0.092 0.79699 0.0
O927 O 0.13897 0.07993 0.80564 0.0
C928 C 0.16497 0.03938 0.78304 0.0
O929 O 0.18002 0.03856 0.7848 0.0
O930 O 0.15806 0.05188 0.78651 0.0
O931 O 0.1917 0.07528 0.78032 0.0
O932 O 0.17618 0.07506 0.81764 0.0
C933 C 0.19025 0.07591 0.82183 0.0
O934 O 0.20112 0.07297 0.81166 0.0
O935 O 0.15475 0.09222 0.78948 0.0
Mg936 Mg 0.54242 0.82329 0.08375 0.0
C937 C 0.51689 0.8184 0.06045 0.0
O938 O 0.515 0.80594 0.0689 0.0
C939 C 0.55626 0.84206 0.1086 0.0
O940 O 0.56685 0.83161 0.1056 0.0
C941 C 0.53628 0.79941 0.1091 0.0
O942 O 0.54359 0.80968 0.11755 0.0
O943 O 0.53487 0.80176 0.09466 0.0
O944 O 0.52691 0.82834 0.06456 0.0
O945 O 0.56567 0.82296 0.07408 0.0
C946 C 0.56792 0.82982 0.06127 0.0
O947 O 0.55593 0.83475 0.0534 0.0
O948 O 0.54363 0.84163 0.10107 0.0
Mg949 Mg 0.42627 0.78748 0.33515 0.0
C950 C 0.43506 0.77589 0.30434 0.0
O951 O 0.44632 0.78547 0.30783 0.0
C952 C 0.40586 0.78107 0.36356 0.0
O953 O 0.41797 0.77353 0.36872 0.0
C954 C 0.45403 0.76849 0.34462 0.0
O955 O 0.44952 0.76078 0.33236 0.0
O956 O 0.44668 0.78064 0.3485 0.0
O957 O 0.42437 0.77366 0.31418 0.0
O958 O 0.42547 0.81137 0.32722 0.0
C959 C 0.41579 0.81347 0.31634 0.0
O960 O 0.40858 0.8014 0.31062 0.0
O961 O 0.40605 0.78663 0.34996 0.0
Mg962 Mg 0.46081 0.68031 0.58517 0.0
C963 C 0.48245 0.68704 0.55943 0.0
O964 O 0.47892 0.70095 0.56436 0.0
C965 C 0.44659 0.66235 0.6102 0.0
O966 O 0.43606 0.67265 0.60653 0.0
C967 C 0.46646 0.70481 0.61012 0.0
O968 O 0.45966 0.69442 0.61884 0.0
O969 O 0.46764 0.70232 0.59567 0.0
O970 O 0.4772 0.6754 0.5667 0.0
O971 O 0.43819 0.67932 0.57407 0.0
C972 C 0.43716 0.66897 0.56365 0.0
O973 O 0.44964 0.66122 0.55987 0.0
O974 O 0.4594 0.66253 0.60298 0.0
Mg975 Mg 0.57098 0.71487 0.83355 0.0
C976 C 0.56476 0.74004 0.80998 0.0
O977 O 0.55204 0.74141 0.81814 0.0
C978 C 0.59105 0.70461 0.85968 0.0
O979 O 0.58164 0.6928 0.85825 0.0
C980 C 0.54604 0.71902 0.85829 0.0
O981 O 0.55638 0.712 0.86687 0.0
O982 O 0.54865 0.72072 0.84392 0.0
O983 O 0.57509 0.73058 0.81438 0.0
O984 O 0.57402 0.69253 0.82248 0.0
C985 C 0.5694 0.67906 0.82602 0.0
O986 O 0.55999 0.67717 0.83778 0.0
O987 O 0.58929 0.7162 0.85079 0.0
Mg988 Mg 0.53927 0.17994 0.92407 0.0
C989 C 0.53281 0.18599 0.95712 0.0
O990 O 0.54516 0.1944 0.95442 0.0
C991 C 0.54321 0.16076 0.89636 0.0
O992 O 0.55182 0.17294 0.89351 0.0
C993 C 0.52531 0.21163 0.91799 0.0
O994 O 0.52228 0.21054 0.93282 0.0
O995 O 0.53297 0.20091 0.91148 0.0
O996 O 0.52687 0.17842 0.94599 0.0
O997 O 0.56352 0.17704 0.92996 0.0
C998 C 0.56554 0.16587 0.93931 0.0
O999 O 0.55337 0.15836 0.94441 0.0
O1000 O 0.53534 0.16046 0.90878 0.0
Mg1001 Mg 0.07017 0.78977 0.16737 0.0
C1002 C 0.06783 0.78096 0.20038 0.0
O1003 O 0.06109 0.79455 0.20004 0.0
C1004 C 0.09052 0.7987 0.14153 0.0
O1005 O 0.08137 0.8107 0.14316 0.0
C1006 C 0.04603 0.78378 0.14235 0.0
O1007 O 0.05711 0.78917 0.13351 0.0
O1008 O 0.04796 0.78365 0.15693 0.0
O1009 O 0.07301 0.77529 0.18783 0.0
O1010 O 0.07342 0.81332 0.17573 0.0
C1011 C 0.0862 0.81451 0.18293 0.0
O1012 O 0.09489 0.80213 0.18431 0.0
O1013 O 0.08856 0.78709 0.15036 0.0
Mg1014 Mg 0.46252 0.32221 0.4191 0.0
C1015 C 0.47185 0.31926 0.45215 0.0
O1016 O 0.4592 0.31088 0.4517 0.0
C1017 C 0.45625 0.34063 0.39105 0.0
O1018 O 0.44738 0.32846 0.38906 0.0
C1019 C 0.47537 0.2898 0.41414 0.0
O1020 O 0.47766 0.29092 0.4291 0.0
O1021 O 0.46853 0.30078 0.40715 0.0
O1022 O 0.47672 0.32539 0.43969 0.0
O1023 O 0.43868 0.32498 0.42662 0.0
C1024 C 0.43707 0.3366 0.4355 0.0
O1025 O 0.4494 0.34461 0.43929 0.0
O1026 O 0.46503 0.34111 0.40283 0.0
Mg1027 Mg 0.93076 0.71394 0.66809 0.0
C1028 C 0.93452 0.72689 0.69896 0.0
O1029 O 0.94563 0.71664 0.69757 0.0
C1030 C 0.913 0.70032 0.64267 0.0
O1031 O 0.92343 0.68983 0.64607 0.0
C1032 C 0.95558 0.72049 0.64372 0.0
O1033 O 0.94573 0.71318 0.6348 0.0
O1034 O 0.95271 0.72161 0.65811 0.0
O1035 O 0.92574 0.7293 0.68741 0.0
O1036 O 0.92962 0.69091 0.6784 0.0
C1037 C 0.91799 0.68958 0.68732 0.0
O1038 O 0.90916 0.70172 0.68957 0.0
O1039 O 0.91306 0.71298 0.65018 0.0
Mg1040 Mg 0.58125 0.53565 0.32606 0.0
C1041 C 0.5565 0.51152 0.3201 0.0
O1042 O 0.56624 0.50749 0.30919 0.0
C1043 C 0.61105 0.53632 0.34478 0.0
O1044 O 0.61675 0.54059 0.33139 0.0
C1045 C 0.6024 0.53444 0.29662 0.0
O1046 O 0.60719 0.54828 0.30062 0.0
O1047 O 0.59211 0.52771 0.30467 0.0
O1048 O 0.56015 0.52237 0.3293 0.0
O1049 O 0.57307 0.55938 0.32708 0.0
C1050 C 0.58175 0.57064 0.33072 0.0
O1051 O 0.59673 0.56844 0.3316 0.0
O1052 O 0.59679 0.53284 0.34571 0.0
Mg1053 Mg 0.71264 0.83391 0.57255 0.0
C1054 C 0.73697 0.80968 0.56566 0.0
O1055 O 0.73768 0.81749 0.55267 0.0
C1056 C 0.70221 0.85951 0.59284 0.0
O1057 O 0.68993 0.85685 0.58432 0.0
C1058 C 0.71603 0.85858 0.54745 0.0
O1059 O 0.70844 0.86694 0.55759 0.0
O1060 O 0.71848 0.84438 0.55032 0.0
O1061 O 0.72813 0.81444 0.57638 0.0
O1062 O 0.68946 0.8244 0.57488 0.0
C1063 C 0.68829 0.81454 0.58575 0.0
O1064 O 0.70081 0.81066 0.5934 0.0
O1065 O 0.71428 0.85141 0.59057 0.0
Mg1066 Mg 0.41978 0.96064 0.82283 0.0
C1067 C 0.44406 0.98651 0.82214 0.0
O1068 O 0.4324 0.99495 0.81733 0.0
C1069 C 0.39207 0.9575 0.84264 0.0
O1070 O 0.38867 0.94853 0.83087 0.0
C1071 C 0.41488 0.97278 0.78999 0.0
O1072 O 0.43004 0.97214 0.78973 0.0
O1073 O 0.40775 0.96797 0.80191 0.0
O1074 O 0.44184 0.97238 0.82541 0.0
O1075 O 0.42461 0.93614 0.82514 0.0
C1076 C 0.43818 0.93075 0.82352 0.0
O1077 O 0.44901 0.93964 0.81767 0.0
O1078 O 0.40468 0.96505 0.84235 0.0
Mg1079 Mg 0.29063 0.67006 0.07288 0.0
C1080 C 0.28124 0.70193 0.06679 0.0
O1081 O 0.2928 0.69939 0.05729 0.0
C1082 C 0.29205 0.63943 0.08849 0.0
O1083 O 0.29573 0.63585 0.0742 0.0
C1084 C 0.27418 0.66304 0.04251 0.0
O1085 O 0.26741 0.67622 0.04578 0.0
O1086 O 0.28486 0.65812 0.05134 0.0
O1087 O 0.27677 0.69093 0.07548 0.0
O1088 O 0.31413 0.67871 0.07486 0.0
C1089 C 0.32578 0.67018 0.07748 0.0
O1090 O 0.32417 0.65509 0.07706 0.0
O1091 O 0.28835 0.65333 0.09157 0.0
Mg1092 Mg 0.58335 0.46404 0.67668 0.0
C1093 C 0.55179 0.47472 0.66689 0.0
O1094 O 0.55185 0.46076 0.66092 0.0
C1095 C 0.61148 0.47012 0.65577 0.0
O1096 O 0.6154 0.48014 0.66647 0.0
C1097 C 0.59109 0.47899 0.70751 0.0
O1098 O 0.5763 0.48236 0.70699 0.0
O1099 O 0.59692 0.47084 0.69676 0.0
O1100 O 0.56389 0.47963 0.67364 0.0
O1101 O 0.57379 0.44088 0.67739 0.0
C1102 C 0.58268 0.42954 0.67458 0.0
O1103 O 0.59764 0.43199 0.67391 0.0
O1104 O 0.59867 0.463 0.65685 0.0
Mg1105 Mg 0.78902 0.83249 0.92928 0.0
C1106 C 0.77724 0.80128 0.91952 0.0
O1107 O 0.79006 0.80193 0.91142 0.0
C1108 C 0.7923 0.86196 0.91124 0.0
O1109 O 0.79885 0.86604 0.92432 0.0
C1110 C 0.77816 0.83755 0.96206 0.0
O1111 O 0.77618 0.82253 0.961 0.0
O1112 O 0.78429 0.84471 0.95078 0.0
O1113 O 0.77332 0.81295 0.92757 0.0
O1114 O 0.81182 0.82236 0.92677 0.0
C1115 C 0.82457 0.82962 0.92679 0.0
O1116 O 0.82475 0.84437 0.93036 0.0
O1117 O 0.78647 0.8485 0.9101 0.0
Mg1118 Mg 0.41622 0.04025 0.17778 0.0
C1119 C 0.44976 0.03479 0.18188 0.0
O1120 O 0.44737 0.04745 0.18992 0.0
C1121 C 0.3876 0.03614 0.15739 0.0
O1122 O 0.38093 0.03262 0.17056 0.0
C1123 C 0.41099 0.0262 0.20949 0.0
O1124 O 0.42616 0.02662 0.20945 0.0
O1125 O 0.40371 0.03165 0.19794 0.0
O1126 O 0.43831 0.02839 0.17523 0.0
O1127 O 0.42219 0.06462 0.17834 0.0
C1128 C 0.4127 0.07472 0.1735 0.0
O1129 O 0.39839 0.07056 0.17062 0.0
O1130 O 0.40209 0.03859 0.15709 0.0
Mg1131 Mg 0.21414 0.67613 0.42898 0.0
C1132 C 0.22804 0.70559 0.4382 0.0
O1133 O 0.21993 0.70129 0.4503 0.0
C1134 C 0.20359 0.65153 0.40788 0.0
O1135 O 0.19192 0.65334 0.41742 0.0
C1136 C 0.22133 0.6496 0.45081 0.0
O1137 O 0.21573 0.64176 0.4391 0.0
O1138 O 0.22127 0.66429 0.45019 0.0
O1139 O 0.22855 0.69662 0.42657 0.0
O1140 O 0.19035 0.68432 0.42814 0.0
C1141 C 0.18796 0.69595 0.41944 0.0
O1142 O 0.19988 0.70291 0.41313 0.0
O1143 O 0.21554 0.65994 0.40968 0.0
Mg1144 Mg 0.8225 0.58408 0.04174 0.0
C1145 C 0.81952 0.5519 0.03088 0.0
O1146 O 0.81082 0.55227 0.04332 0.0
C1147 C 0.83787 0.6131 0.04926 0.0
O1148 O 0.82496 0.6134 0.05724 0.0
C1149 C 0.79114 0.59006 0.02687 0.0
O1150 O 0.79361 0.57618 0.02125 0.0
O1151 O 0.80077 0.5957 0.03644 0.0
O1152 O 0.82612 0.56431 0.02654 0.0
O1153 O 0.82544 0.57507 0.06505 0.0
C1154 C 0.83785 0.56725 0.06602 0.0
O1155 O 0.84634 0.5656 0.05354 0.0
O1156 O 0.84035 0.60166 0.04036 0.0
Mg1157 Mg 0.3188 0.42014 0.46332 0.0
C1158 C 0.30958 0.4484 0.48014 0.0
O1159 O 0.29664 0.44401 0.47353 0.0
C1160 C 0.33985 0.39518 0.45314 0.0
O1161 O 0.33032 0.3965 0.44139 0.0
C1162 C 0.29546 0.39414 0.46882 0.0
O1163 O 0.30645 0.38581 0.46251 0.0
O1164 O 0.2972 0.40871 0.46978 0.0
O1165 O 0.32153 0.44002 0.47848 0.0
O1166 O 0.32044 0.42923 0.43989 0.0
C1167 C 0.33069 0.43969 0.43841 0.0
O1168 O 0.33801 0.44446 0.45082 0.0
O1169 O 0.33788 0.40385 0.46487 0.0
Mg1170 Mg 0.83308 0.57503 0.71663 0.0
C1171 C 0.79977 0.573 0.72467 0.0
O1172 O 0.80049 0.56538 0.71155 0.0
C1173 C 0.86208 0.59251 0.71166 0.0
O1174 O 0.86393 0.58045 0.70261 0.0
C1175 C 0.83643 0.54209 0.72855 0.0
O1176 O 0.82142 0.54361 0.73012 0.0
O1177 O 0.84408 0.55305 0.72243 0.0
O1178 O 0.81219 0.57843 0.73038 0.0
O1179 O 0.82565 0.57856 0.69285 0.0
C1180 C 0.81903 0.59164 0.69159 0.0
O1181 O 0.81783 0.60032 0.70399 0.0
O1182 O 0.84998 0.5933 0.71998 0.0
Mg1183 Mg 0.68522 0.08242 0.96008 0.0
C1184 C 0.69417 0.05381 0.97684 0.0
O1185 O 0.70767 0.05983 0.97341 0.0
C1186 C 0.66402 0.10798 0.95204 0.0
O1187 O 0.67359 0.10773 0.94026 0.0
C1188 C 0.70819 0.10807 0.96821 0.0
O1189 O 0.69746 0.11672 0.96189 0.0
O1190 O 0.70652 0.09345 0.96817 0.0
O1191 O 0.68201 0.06113 0.97307 0.0
O1192 O 0.68346 0.07618 0.93576 0.0
C1193 C 0.68397 0.06225 0.93107 0.0
O1194 O 0.68863 0.0514 0.94059 0.0
O1195 O 0.66605 0.09842 0.96304 0.0
Mg1196 Mg 0.66843 0.43338 0.21248 0.0
C1197 C 0.70053 0.4388 0.22164 0.0
O1198 O 0.69836 0.44765 0.20949 0.0
C1199 C 0.64134 0.4165 0.20292 0.0
O1200 O 0.64179 0.42914 0.19449 0.0
C1201 C 0.66229 0.46585 0.22576 0.0
O1202 O 0.67734 0.46593 0.22755 0.0
O1203 O 0.65592 0.45437 0.21911 0.0
O1204 O 0.68924 0.43077 0.22659 0.0
O1205 O 0.67678 0.43134 0.18878 0.0
C1206 C 0.68563 0.41964 0.1875 0.0
O1207 O 0.6886 0.41143 0.19993 0.0
O1208 O 0.65168 0.41463 0.21323 0.0
Mg1209 Mg 0.18316 0.41784 0.04162 0.0
C1210 C 0.18557 0.4509 0.03247 0.0
O1211 O 0.19206 0.45087 0.04619 0.0
C1212 C 0.16321 0.38912 0.0333 0.0
O1213 O 0.17465 0.38503 0.02421 0.0
C1214 C 0.21555 0.41311 0.02946 0.0
O1215 O 0.21483 0.42826 0.02898 0.0
O1216 O 0.20426 0.40566 0.03522 0.0
O1217 O 0.18059 0.4382 0.02693 0.0
O1218 O 0.18085 0.42618 0.06526 0.0
C1219 C 0.16811 0.43342 0.06661 0.0
O1220 O 0.15932 0.43486 0.05431 0.0
O1221 O 0.16379 0.40197 0.04041 0.0
Mg1222 Mg 0.8356 0.93097 0.7898 0.0
C1223 C 0.80717 0.93951 0.77394 0.0
O1224 O 0.81138 0.95197 0.78153 0.0
C1225 C 0.86045 0.912 0.80258 0.0
O1226 O 0.85755 0.9224 0.81326 0.0
C1227 C 0.86113 0.95487 0.78407 0.0
O1228 O 0.86964 0.9443 0.79083 0.0
O1229 O 0.84663 0.95271 0.78294 0.0
O1230 O 0.81595 0.92774 0.7744 0.0
O1231 O 0.82551 0.92977 0.81286 0.0
C1232 C 0.81586 0.91873 0.81404 0.0
O1233 O 0.81255 0.91067 0.8016 0.0
O1234 O 0.8527 0.91243 0.79008 0.0
Mg1235 Mg 0.16917 0.57267 0.29075 0.0
C1236 C 0.19773 0.56264 0.27511 0.0
O1237 O 0.1929 0.54996 0.28194 0.0
C1238 C 0.14388 0.59379 0.29954 0.0
O1239 O 0.14492 0.58448 0.31149 0.0
C1240 C 0.14348 0.54875 0.28572 0.0
O1241 O 0.13488 0.55968 0.29177 0.0
O1242 O 0.158 0.55079 0.28475 0.0
O1243 O 0.18949 0.57475 0.27609 0.0
O1244 O 0.17728 0.57532 0.31448 0.0
C1245 C 0.18968 0.58302 0.31634 0.0
O1246 O 0.19763 0.58711 0.30409 0.0
O1247 O 0.15287 0.59164 0.28809 0.0
H1248 H 0.03203 0.33705 0.03611 0.0
H1249 H 0.9633 0.30964 0.98078 0.0
H1250 H 0.9908 0.31404 0.05217 0.0
H1251 H 0.00189 0.33675 0.96458 0.0
H1252 H 0.97342 0.31125 0.00696 0.0
H1253 H 0.02128 0.33745 0.00997 0.0
C1254 C 0.02066 0.33219 0.03418 0.0
C1255 C 0.01233 0.32545 0.04638 0.0
C1256 C 0.9797 0.31688 0.99772 0.0
C1257 C 1.00003 0.32576 0.01641 0.0
C1258 C 0.97394 0.31593 0.98271 0.0
C1259 C 0.98178 0.32304 0.97041 0.0
C1260 C 0.99347 0.32495 1.00055 0.0
C1261 C 0.99548 0.33108 0.9737 0.0
C1262 C 0.01455 0.3324 0.01923 0.0
C1263 C 0.99766 0.31934 0.04316 0.0
N1264 N 1.00093 0.33178 0.98845 0.0
N1265 N 0.99204 0.31956 0.02849 0.0
H1266 H 0.91958 0.2457 0.20778 0.0
H1267 H 0.95529 0.24279 0.29321 0.0
H1268 H 0.96077 0.22049 0.22021 0.0
H1269 H 0.91955 0.27499 0.28005 0.0
H1270 H 0.95591 0.23312 0.26675 0.0
H1271 H 0.9181 0.25558 0.23436 0.0
C1272 C 0.92834 0.24231 0.21604 0.0
C1273 C 0.94032 0.23225 0.21173 0.0
C1274 C 0.9479 0.24228 0.26963 0.0
C1275 C 0.9386 0.24334 0.24213 0.0
C1276 C 0.94749 0.24777 0.28479 0.0
C1277 C 0.93737 0.25974 0.28889 0.0
C1278 C 0.93807 0.24874 0.25843 0.0
C1279 C 0.92756 0.26576 0.27741 0.0
C1280 C 0.92748 0.24792 0.23121 0.0
C1281 C 0.95132 0.2282 0.22295 0.0
N1282 N 0.92816 0.2602 0.2627 0.0
N1283 N 0.95016 0.2337 0.23759 0.0
H1284 H 0.97942 0.21375 0.53288 0.0
H1285 H 0.01531 0.16579 0.46244 0.0
H1286 H 0.9912 0.16547 0.53701 0.0
H1287 H 0.01315 0.21557 0.46445 0.0
H1288 H 0.00433 0.16464 0.48864 0.0
H1289 H 0.98987 0.21387 0.50681 0.0
C1290 C 0.98427 0.20315 0.52831 0.0
C1291 C 0.98445 0.18958 0.53717 0.0
C1292 C 0.00624 0.17578 0.48328 0.0
C1293 C 0.99639 0.18961 0.50709 0.0
C1294 C 0.01238 0.17645 0.46831 0.0
C1295 C 0.01515 0.19081 0.46125 0.0
C1296 C 0.00272 0.18956 0.49113 0.0
C1297 C 0.01127 0.20425 0.46943 0.0
C1298 C 0.99026 0.20323 0.51339 0.0
C1299 C 0.99092 0.17621 0.53061 0.0
N1300 N 0.00526 0.20329 0.48387 0.0
N1301 N 0.99657 0.17653 0.5159 0.0
H1302 H 0.06009 0.22083 0.77541 0.0
H1303 H 0.10219 0.28669 0.72633 0.0
H1304 H 0.09342 0.25212 0.79537 0.0
H1305 H 0.07347 0.25106 0.70648 0.0
H1306 H 0.09975 0.27417 0.75157 0.0
H1307 H 0.06508 0.23199 0.75011 0.0
C1308 C 0.06846 0.2301 0.77449 0.0
C1309 C 0.0763 0.23559 0.78758 0.0
C1310 C 0.0941 0.26903 0.74166 0.0
C1311 C 0.08212 0.24845 0.75846 0.0
C1312 C 0.09552 0.27615 0.72722 0.0
C1313 C 0.08794 0.26998 0.71425 0.0
C1314 C 0.08497 0.2557 0.74316 0.0
C1315 C 0.07947 0.25628 0.71613 0.0
C1316 C 0.07135 0.23643 0.75998 0.0
C1317 C 0.08707 0.24756 0.7856 0.0
N1318 N 0.07812 0.24969 0.73032 0.0
N1319 N 0.08963 0.25365 0.77131 0.0
H1320 H 0.96645 0.65084 0.02895 0.0
H1321 H 0.03225 0.69366 0.98007 0.0
H1322 H 0.99944 0.68266 0.04864 0.0
H1323 H 1.00082 0.66039 0.96025 0.0
H1324 H 0.02041 0.68951 0.00526 0.0
H1325 H 0.97918 0.65357 0.00389 0.0
C1326 C 0.97646 0.6583 0.02806 0.0
C1327 C 0.98185 0.66657 0.04095 0.0
C1328 C 0.01608 0.6831 0.99543 0.0
C1329 C 0.99639 0.66986 0.01219 0.0
C1330 C 0.02281 0.6855 0.98099 0.0
C1331 C 0.01751 0.67738 0.96797 0.0
C1332 C 0.00389 0.67251 0.99695 0.0
C1333 C 0.00525 0.66694 0.96994 0.0
C1334 C 0.98369 0.65988 0.01371 0.0
C1335 C 0.99487 0.67606 0.03905 0.0
N1336 N 0.99885 0.6648 0.98416 0.0
N1337 N 0.00162 0.6775 0.02494 0.0
H1338 H 0.54709 0.29505 0.22882 0.0
H1339 H 0.58628 0.23593 0.28806 0.0
H1340 H 0.58259 0.26278 0.2152 0.0
H1341 H 0.54344 0.25983 0.29699 0.0
H1342 H 0.58722 0.24787 0.2624 0.0
H1343 H 0.54759 0.28426 0.25482 0.0
C1344 C 0.55502 0.28568 0.23129 0.0
C1345 C 0.5648 0.27978 0.21978 0.0
C1346 C 0.57766 0.25053 0.27002 0.0
C1347 C 0.56547 0.26741 0.24966 0.0
C1348 C 0.57716 0.24382 0.28471 0.0
C1349 C 0.56473 0.24686 0.29469 0.0
C1350 C 0.56573 0.26048 0.26535 0.0
C1351 C 0.5532 0.2571 0.28968 0.0
C1352 C 0.55527 0.27952 0.24616 0.0
C1353 C 0.57481 0.26763 0.2237 0.0
N1354 N 0.55398 0.26352 0.27537 0.0
N1355 N 0.57492 0.26186 0.23834 0.0
H1356 H 0.02231 0.83986 0.5364 0.0
H1357 H 0.95603 0.80689 0.481 0.0
H1358 H 0.98381 0.81235 0.55216 0.0
H1359 H 0.9937 0.83505 0.4644 0.0
H1360 H 0.9659 0.80944 0.50717 0.0
H1361 H 0.01173 0.83915 0.5102 0.0
C1362 C 0.01156 0.83377 0.5344 0.0
C1363 C 0.00396 0.8261 0.54654 0.0
C1364 C 0.97204 0.8151 0.49785 0.0
C1365 C 0.99186 0.82516 0.51649 0.0
C1366 C 0.96642 0.81362 0.48283 0.0
C1367 C 0.97407 0.82073 0.47042 0.0
C1368 C 0.98547 0.82374 0.50059 0.0
C1369 C 0.98745 0.82934 0.47361 0.0
C1370 C 0.00556 0.83334 0.51941 0.0
C1371 C 0.99009 0.81841 0.54321 0.0
N1372 N 0.99275 0.83058 0.48839 0.0
N1373 N 0.98454 0.81808 0.52851 0.0
H1374 H 0.41737 0.24311 0.7122 0.0
H1375 H 0.46055 0.24497 0.79386 0.0
H1376 H 0.45489 0.21263 0.72448 0.0
H1377 H 0.41649 0.26704 0.78629 0.0
H1378 H 0.45926 0.2341 0.76788 0.0
H1379 H 0.41757 0.25339 0.73865 0.0
C1380 C 0.42567 0.23862 0.72042 0.0
C1381 C 0.43613 0.227 0.71611 0.0
C1382 C 0.44981 0.24124 0.77191 0.0
C1383 C 0.43642 0.23867 0.7463 0.0
C1384 C 0.45054 0.24744 0.78677 0.0
C1385 C 0.43861 0.25692 0.79227 0.0
C1386 C 0.43714 0.24465 0.76237 0.0
C1387 C 0.42592 0.25973 0.78254 0.0
C1388 C 0.42573 0.24443 0.73552 0.0
C1389 C 0.44658 0.22156 0.72726 0.0
N1390 N 0.42556 0.25372 0.76801 0.0
N1391 N 0.44649 0.22747 0.74179 0.0
H1392 H 0.94875 0.02015 0.31526 0.0
H1393 H 0.03746 0.01143 0.3407 0.0
H1394 H 0.96582 0.98191 0.34239 0.0
H1395 H 0.02043 0.04655 0.30964 0.0
H1396 H 0.011 1.00167 0.34356 0.0
H1397 H 0.9746 0.03143 0.31547 0.0
C1398 C 0.95789 0.01419 0.3214 0.0
C1399 C 0.9551 1.0 0.32873 0.0
C1400 C 0.01308 0.01154 0.33616 0.0
C1401 C 0.98483 0.01281 0.32891 0.0
C1402 C 0.02818 0.01711 0.33453 0.0
C1403 C 0.0312 0.02977 0.32485 0.0
C1404 C 1.00093 0.01874 0.32811 0.0
C1405 C 0.0187 0.0367 0.31716 0.0
C1406 C 0.97268 0.02061 0.32147 0.0
C1407 C 0.96743 0.99284 0.33651 0.0
N1408 N 0.00417 0.03109 0.31894 0.0
N1409 N 0.98177 0.99927 0.33632 0.0
H1410 H 0.24898 0.29862 0.56549 0.0
H1411 H 0.25851 0.21158 0.5956 0.0
H1412 H 0.22399 0.28068 0.60476 0.0
H1413 H 0.27249 0.22706 0.55029 0.0
H1414 H 0.24849 0.23755 0.60098 0.0
H1415 H 0.2609 0.27328 0.56191 0.0
C1416 C 0.24614 0.28942 0.57349 0.0
C1417 C 0.23538 0.29178 0.5854 0.0
C1418 C 0.25375 0.23523 0.58987 0.0
C1419 C 0.24893 0.26266 0.58127 0.0
C1420 C 0.25945 0.22042 0.58679 0.0
C1421 C 0.26628 0.2171 0.57244 0.0
C1422 C 0.25505 0.24685 0.5786 0.0
C1423 C 0.26723 0.22903 0.56147 0.0
C1424 C 0.25287 0.27491 0.57137 0.0
C1425 C 0.23215 0.27937 0.59538 0.0
N1426 N 0.26174 0.24335 0.56479 0.0
N1427 N 0.23885 0.26534 0.59306 0.0
H1428 H 0.95925 0.48519 0.84004 0.0
H1429 H 0.03135 0.51357 0.78932 0.0
H1430 H 0.95942 0.48841 0.79025 0.0
H1431 H 0.03212 0.51296 0.83921 0.0
H1432 H 0.00492 0.50409 0.78985 0.0
H1433 H 0.98568 0.49549 0.84042 0.0
C1434 C 0.96477 0.48817 0.82921 0.0
C1435 C 0.9571 0.48589 0.81509 0.0
C1436 C 0.01083 0.506 0.80071 0.0
C1437 C 0.98732 0.49752 0.81543 0.0
C1438 C 0.02598 0.51139 0.80042 0.0
C1439 C 0.03401 0.51408 0.81424 0.0
C1440 C 0.00352 0.50322 0.81494 0.0
C1441 C 0.02639 0.51103 0.82826 0.0
C1442 C 0.97987 0.49399 0.82943 0.0
C1443 C 0.96485 0.4899 0.80142 0.0
N1444 N 0.01155 0.50576 0.82825 0.0
N1445 N 0.9795 0.49545 0.80195 0.0
H1446 H 0.78777 0.22745 0.09763 0.0
H1447 H 0.7144 0.27125 0.06224 0.0
H1448 H 0.75111 0.2046 0.07269 0.0
H1449 H 0.75063 0.29454 0.08738 0.0
H1450 H 0.72742 0.24669 0.06667 0.0
H1451 H 0.77395 0.25193 0.09498 0.0
C1452 C 0.77675 0.22754 0.0917 0.0
C1453 C 0.77062 0.21392 0.08533 0.0
C1454 C 0.73254 0.25715 0.07124 0.0
C1455 C 0.75478 0.24199 0.08215 0.0
C1456 C 0.72512 0.27122 0.06869 0.0
C1457 C 0.73145 0.28503 0.07441 0.0
C1458 C 0.74645 0.2568 0.07957 0.0
C1459 C 0.74535 0.28421 0.08273 0.0
C1460 C 0.76889 0.24155 0.09016 0.0
C1461 C 0.7563 0.21479 0.07778 0.0
N1462 N 0.7524 0.27033 0.08504 0.0
N1463 N 0.74892 0.22858 0.07634 0.0
H1464 H 0.03874 0.97852 0.66899 0.0
H1465 H 0.97996 0.04146 0.70265 0.0
H1466 H 0.04824 0.00754 0.70844 0.0
H1467 H 0.96623 0.00701 0.66927 0.0
H1468 H 0.00576 0.03039 0.70314 0.0
H1469 H 0.01297 0.99014 0.66708 0.0
C1470 C 0.03547 0.98742 0.67716 0.0
C1471 C 0.04567 0.99206 0.68891 0.0
C1472 C 0.99714 0.02521 0.6957 0.0
C1473 C 0.01622 0.00532 0.6868 0.0
C1474 C 0.98236 0.03154 0.69539 0.0
C1475 C 0.97086 0.02514 0.68592 0.0
C1476 C 1.00059 0.01237 0.68641 0.0
C1477 C 0.97472 0.01228 0.67679 0.0
C1478 C 0.02073 0.99397 0.67611 0.0
C1479 C 0.04077 0.00356 0.69922 0.0
N1480 N 0.98928 0.00633 0.67724 0.0
N1481 N 0.02643 0.00978 0.69793 0.0
H1482 H 0.24704 0.21426 0.96147 0.0
H1483 H 0.26078 0.29207 0.91309 0.0
H1484 H 0.23308 0.21904 0.91382 0.0
H1485 H 0.27506 0.28505 0.96037 0.0
H1486 H 0.25041 0.26563 0.91271 0.0
H1487 H 0.25766 0.24024 0.96074 0.0
C1488 C 0.24629 0.22075 0.95079 0.0
C1489 C 0.23912 0.21444 0.93769 0.0
C1490 C 0.2558 0.26993 0.92316 0.0
C1491 C 0.25121 0.24446 0.9368 0.0
C1492 C 0.26165 0.28503 0.9234 0.0
C1493 C 0.2688 0.2908 0.93679 0.0
C1494 C 0.25711 0.26059 0.93639 0.0
C1495 C 0.26968 0.28114 0.94978 0.0
C1496 C 0.25234 0.23565 0.95038 0.0
C1497 C 0.23855 0.22343 0.92418 0.0
N1498 N 0.26394 0.26656 0.94924 0.0
N1499 N 0.24444 0.23804 0.92409 0.0
H1500 H 0.02556 0.46443 0.16087 0.0
H1501 H 0.98127 0.53753 0.19623 0.0
H1502 H 0.04759 0.49974 0.18838 0.0
H1503 H 0.95845 0.50179 0.16994 0.0
H1504 H 0.00576 0.52418 0.19267 0.0
H1505 H 1.00112 0.47838 0.16307 0.0
C1506 C 0.0253 0.47516 0.1673 0.0
C1507 C 0.03867 0.4809 0.17448 0.0
C1508 C 0.99542 0.51923 0.18766 0.0
C1509 C 0.01066 0.49689 0.17711 0.0
C1510 C 0.98139 0.52685 0.1897 0.0
C1511 C 0.96774 0.52076 0.1834 0.0
C1512 C 0.99589 0.50538 0.17924 0.0
C1513 C 0.96867 0.50689 0.17503 0.0
C1514 C 0.01131 0.4831 0.16858 0.0
C1515 C 0.03759 0.49487 0.18266 0.0
N1516 N 0.98251 0.49966 0.1732 0.0
N1517 N 0.02384 0.50234 0.18378 0.0
H1518 H 0.76602 0.19936 0.44119 0.0
H1519 H 0.75504 0.28894 0.41994 0.0
H1520 H 0.72571 0.2173 0.41794 0.0
H1521 H 0.79461 0.27054 0.44408 0.0
H1522 H 0.74441 0.26274 0.41817 0.0
H1523 H 0.77716 0.22528 0.44119 0.0
C1524 C 0.75955 0.20872 0.43599 0.0
C1525 C 0.74488 0.20612 0.4296 0.0
C1526 C 0.75543 0.26446 0.42384 0.0
C1527 C 0.75753 0.23594 0.42966 0.0
C1528 C 0.76149 0.27942 0.42486 0.0
C1529 C 0.77572 0.28197 0.43221 0.0
C1530 C 0.76367 0.25197 0.43019 0.0
C1531 C 0.78358 0.26917 0.43835 0.0
C1532 C 0.7659 0.22355 0.43603 0.0
C1533 C 0.73704 0.21874 0.42302 0.0
N1534 N 0.77746 0.25477 0.43721 0.0
N1535 N 0.74343 0.2331 0.42328 0.0
H1536 H 0.30893 0.98398 0.96843 0.0
H1537 H 0.35141 0.03283 0.03459 0.0
H1538 H 0.33931 0.96341 0.00221 0.0
H1539 H 0.3191 0.05222 0.0019 0.0
H1540 H 0.34829 0.00759 0.02222 0.0
H1541 H 0.31344 0.0092 0.98006 0.0
C1542 C 0.31654 0.98475 0.97833 0.0
C1543 C 0.32372 0.97151 0.98437 0.0
C1544 C 0.34195 0.01739 0.01772 0.0
C1545 C 0.32901 1.00052 0.99777 0.0
C1546 C 0.34376 0.03183 0.02473 0.0
C1547 C 0.33548 0.04469 0.01931 0.0
C1548 C 0.33178 0.01578 0.00517 0.0
C1549 C 0.32571 0.04266 0.00651 0.0
C1550 C 0.31914 0.9992 0.98496 0.0
C1551 C 0.3335 0.97328 0.9972 0.0
N1552 N 0.32411 0.02849 0.99993 0.0
N1553 N 0.33586 0.98752 0.00348 0.0
H1554 H 0.78847 0.04011 0.51418 0.0
H1555 H 0.83462 0.96397 0.49164 0.0
H1556 H 0.83816 0.03804 0.51742 0.0
H1557 H 0.79159 0.97688 0.47002 0.0
H1558 H 0.83529 0.9893 0.50455 0.0
H1559 H 0.78854 0.01503 0.50118 0.0
C1560 C 0.79941 0.03437 0.51213 0.0
C1561 C 0.81334 0.04117 0.51682 0.0
C1562 C 0.82575 0.98653 0.49695 0.0
C1563 C 0.81346 0.01238 0.50218 0.0
C1564 C 0.8253 0.97209 0.48968 0.0
C1565 C 0.81304 0.96835 0.47975 0.0
C1566 C 0.81368 0.9971 0.49449 0.0
C1567 C 0.8013 0.97931 0.47753 0.0
C1568 C 0.79943 0.0201 0.50468 0.0
C1569 C 0.82718 0.03324 0.51386 0.0
N1570 N 0.80186 0.99313 0.48492 0.0
N1571 N 0.82689 0.01916 0.50683 0.0
H1572 H 0.29182 0.08096 0.748 0.0
H1573 H 0.20285 0.05658 0.73961 0.0
H1574 H 0.27481 0.04803 0.7146 0.0
H1575 H 0.2202 0.08321 0.77806 0.0
H1576 H 0.22898 0.05524 0.72912 0.0
H1577 H 0.26553 0.08355 0.75828 0.0
C1578 C 0.28259 0.07425 0.74286 0.0
C1579 C 0.28555 0.06423 0.73045 0.0
C1580 C 0.22708 0.06141 0.73984 0.0
C1581 C 0.25546 0.06724 0.74203 0.0
C1582 C 0.21213 0.06224 0.74581 0.0
C1583 C 0.2093 0.06998 0.75977 0.0
C1584 C 0.23935 0.06843 0.74784 0.0
C1585 C 0.22184 0.07708 0.76728 0.0
C1586 C 0.26759 0.07575 0.74872 0.0
C1587 C 0.27312 0.05586 0.72421 0.0
N1588 N 0.23631 0.07612 0.76124 0.0
N1589 N 0.25867 0.05759 0.73003 0.0
H1590 H 0.1888 0.48014 0.04367 0.0
H1591 H 0.18618 0.52099 0.96131 0.0
H1592 H 0.17944 0.4551 1.00156 0.0
H1593 H 0.18076 0.54604 0.00411 0.0
H1594 H 0.18547 0.49672 0.97572 0.0
H1595 H 0.18759 0.50436 0.02927 0.0
C1596 C 0.18647 0.47973 0.03138 0.0
C1597 C 0.18427 0.46556 0.02379 0.0
C1598 C 0.18437 0.50752 0.98195 0.0
C1599 C 0.18296 0.4933 0.00721 0.0
C1600 C 0.18484 0.5214 0.97375 0.0
C1601 C 0.18358 0.53558 0.98153 0.0
C1602 C 0.18283 0.50781 0.99809 0.0
C1603 C 0.18177 0.53538 0.99764 0.0
C1604 C 0.18572 0.49358 0.02318 0.0
C1605 C 0.18119 0.46576 0.00787 0.0
N1606 N 0.18156 0.52171 0.00541 0.0
N1607 N 0.18075 0.47942 1.00007 0.0
H1608 H 0.29331 0.96004 0.24606 0.0
H1609 H 0.2095 0.92105 0.24594 0.0
H1610 H 0.28349 0.9171 0.26946 0.0
H1611 H 0.22292 0.95834 0.21565 0.0
H1612 H 0.23604 0.92005 0.25586 0.0
H1613 H 0.26714 0.96004 0.23564 0.0
C1614 C 0.28568 0.95054 0.24893 0.0
C1615 C 0.29061 0.93856 0.25866 0.0
C1616 C 0.23314 0.92843 0.24703 0.0
C1617 C 0.26048 0.93858 0.24689 0.0
C1618 C 0.21799 0.92906 0.24143 0.0
C1619 C 0.21397 0.9398 0.22995 0.0
C1620 C 0.2443 0.93869 0.2412 0.0
C1621 C 0.22547 0.94985 0.22447 0.0
C1622 C 0.27071 0.95056 0.24298 0.0
C1623 C 0.28019 0.92655 0.26196 0.0
N1624 N 0.24006 0.94907 0.23016 0.0
N1625 N 0.26558 0.92692 0.25617 0.0
H1626 H 0.71755 0.96675 0.0193 0.0
H1627 H 0.66853 0.03559 0.98163 0.0
H1628 H 0.66906 0.96248 0.00853 0.0
H1629 H 0.71798 0.03643 0.98793 0.0
H1630 H 0.66798 0.00928 0.99221 0.0
H1631 H 0.71749 0.99262 0.00831 0.0
C1632 C 0.70688 0.97123 0.01455 0.0
C1633 C 0.69329 0.96241 0.01485 0.0
C1634 C 0.67893 0.01526 0.99127 0.0
C1635 C 0.6931 0.99224 0.0023 0.0
C1636 C 0.67925 0.03029 0.98531 0.0
C1637 C 0.69333 0.03823 0.98389 0.0
C1638 C 0.69278 0.00817 0.99592 0.0
C1639 C 0.70686 0.03077 0.98877 0.0
C1640 C 0.70685 0.98605 0.00827 0.0
C1641 C 0.67982 0.96885 0.00849 0.0
N1642 N 0.70624 0.0162 0.99456 0.0
N1643 N 0.68004 0.98342 0.00253 0.0
H1644 H 0.28832 0.40813 0.75902 0.0
H1645 H 0.21556 0.45952 0.73402 0.0
H1646 H 0.28571 0.45773 0.76357 0.0
H1647 H 0.21359 0.40972 0.73595 0.0
H1648 H 0.24195 0.45865 0.74349 0.0
H1649 H 0.26178 0.40805 0.74888 0.0
C1650 C 0.28223 0.41899 0.75777 0.0
C1651 C 0.28924 0.43296 0.76218 0.0
C1652 C 0.23579 0.44788 0.74191 0.0
C1653 C 0.25897 0.43293 0.7507 0.0
C1654 C 0.22066 0.44836 0.73649 0.0
C1655 C 0.21231 0.43467 0.73419 0.0
C1656 C 0.24278 0.43357 0.74501 0.0
C1657 C 0.21959 0.42056 0.73763 0.0
C1658 C 0.26708 0.41892 0.75208 0.0
C1659 C 0.28079 0.44668 0.76038 0.0
N1660 N 0.23446 0.42036 0.74282 0.0
N1661 N 0.26616 0.4463 0.75481 0.0
H1662 H 0.71513 0.08711 0.25347 0.0
H1663 H 0.79766 0.04538 0.25583 0.0
H1664 H 0.72784 0.05189 0.28643 0.0
H1665 H 0.78901 0.08625 0.22859 0.0
H1666 H 0.77158 0.04714 0.26629 0.0
H1667 H 0.74156 0.08644 0.24315 0.0
C1668 C 0.72344 0.07923 0.25851 0.0
C1669 C 0.71925 0.06954 0.27084 0.0
C1670 C 0.77538 0.05579 0.25808 0.0
C1671 C 0.74942 0.06871 0.25911 0.0
C1672 C 0.7903 0.05478 0.2521 0.0
C1673 C 0.79556 0.06569 0.24132 0.0
C1674 C 0.76551 0.06771 0.25318 0.0
C1675 C 0.78546 0.07763 0.23693 0.0
C1676 C 0.73853 0.07889 0.25266 0.0
C1677 C 0.73051 0.05959 0.27695 0.0
N1678 N 0.77088 0.07828 0.24281 0.0
N1679 N 0.74502 0.05942 0.27101 0.0
H1680 H 0.9024 0.78353 0.77547 0.0
H1681 H 0.94999 0.72181 0.72591 0.0
H1682 H 0.93569 0.75185 0.79485 0.0
H1683 H 0.91265 0.74874 0.70673 0.0
H1684 H 0.94502 0.73323 0.7511 0.0
H1685 H 0.90576 0.77118 0.75025 0.0
C1686 C 0.91032 0.7739 0.77447 0.0
C1687 C 0.91882 0.76877 0.78732 0.0
C1688 C 0.93788 0.73666 0.74141 0.0
C1689 C 0.92283 0.75469 0.75842 0.0
C1690 C 0.94075 0.73019 0.72696 0.0
C1691 C 0.93174 0.73434 0.71413 0.0
C1692 C 0.92593 0.74749 0.74314 0.0
C1693 C 0.9199 0.74522 0.71629 0.0
C1694 C 0.91225 0.76688 0.76005 0.0
C1695 C 0.9289 0.75622 0.7853 0.0
N1696 N 0.91735 0.75145 0.73052 0.0
N1697 N 0.93069 0.7497 0.77113 0.0
H1698 H 0.06351 0.712 0.27219 0.0
H1699 H 0.06559 0.79304 0.22935 0.0
H1700 H 0.07319 0.75465 0.29617 0.0
H1701 H 0.07328 0.75004 0.2053 0.0
H1702 H 0.06667 0.77922 0.25393 0.0
H1703 H 0.06534 0.7257 0.24757 0.0
C1704 C 0.06604 0.72426 0.27228 0.0
C1705 C 0.06812 0.73222 0.28627 0.0
C1706 C 0.06823 0.77281 0.24329 0.0
C1707 C 0.07014 0.74797 0.2581 0.0
C1708 C 0.06754 0.78067 0.22924 0.0
C1709 C 0.06927 0.77265 0.21525 0.0
C1710 C 0.0704 0.75675 0.24338 0.0
C1711 C 0.07189 0.75666 0.21582 0.0
C1712 C 0.06716 0.73204 0.25821 0.0
C1713 C 0.0715 0.74807 0.28566 0.0
N1714 N 0.07222 0.7492 0.22966 0.0
N1715 N 0.07225 0.75547 0.2718 0.0
H1716 H 0.58314 0.7592 0.71344 0.0
H1717 H 0.54615 0.76264 0.7981 0.0
H1718 H 0.54888 0.79261 0.72746 0.0
H1719 H 0.5861 0.73491 0.78708 0.0
H1720 H 0.54682 0.77344 0.77206 0.0
H1721 H 0.58403 0.74949 0.74006 0.0
C1722 C 0.57579 0.76446 0.72209 0.0
C1723 C 0.5659 0.77671 0.7182 0.0
C1724 C 0.55551 0.76507 0.77535 0.0
C1725 C 0.56687 0.76571 0.74863 0.0
C1726 C 0.55515 0.75891 0.79025 0.0
C1727 C 0.56606 0.74782 0.79479 0.0
C1728 C 0.56678 0.76001 0.76482 0.0
C1729 C 0.57747 0.74345 0.78409 0.0
C1730 C 0.57635 0.75897 0.73729 0.0
C1731 C 0.55668 0.78315 0.7299 0.0
N1732 N 0.57745 0.74946 0.76956 0.0
N1733 N 0.55736 0.77755 0.74453 0.0
H1734 H 0.41202 0.74169 0.21269 0.0
H1735 H 0.45971 0.76996 0.28585 0.0
H1736 H 0.45837 0.72617 0.2224 0.0
H1737 H 0.41024 0.76441 0.28821 0.0
H1738 H 0.45959 0.75787 0.26033 0.0
H1739 H 0.41126 0.75415 0.2383 0.0
C1740 C 0.42204 0.741 0.22015 0.0
C1741 C 0.43527 0.73289 0.21547 0.0
C1742 C 0.44876 0.75927 0.26645 0.0
C1743 C 0.43453 0.74713 0.24446 0.0
C1744 C 0.44881 0.76618 0.28099 0.0
C1745 C 0.43497 0.7681 0.28916 0.0
C1746 C 0.43473 0.75451 0.25988 0.0
C1747 C 0.42118 0.763 0.28232 0.0
C1748 C 0.42156 0.74799 0.23475 0.0
C1749 C 0.44791 0.73224 0.22559 0.0
N1750 N 0.42137 0.75652 0.26797 0.0
N1751 N 0.44727 0.73935 0.23955 0.0
H1752 H 0.26009 0.71344 0.08771 0.0
H1753 H 0.25101 0.79377 0.04284 0.0
H1754 H 0.28572 0.72571 0.04672 0.0
H1755 H 0.23351 0.7869 0.08903 0.0
H1756 H 0.26262 0.76814 0.0437 0.0
H1757 H 0.24882 0.73952 0.08798 0.0
C1758 C 0.2633 0.72157 0.07876 0.0
C1759 C 0.27386 0.71738 0.06718 0.0
C1760 C 0.25632 0.77223 0.0537 0.0
C1761 C 0.26105 0.74712 0.06741 0.0
C1762 C 0.24967 0.78689 0.05321 0.0
C1763 C 0.24128 0.79251 0.06588 0.0
C1764 C 0.25445 0.76296 0.0669 0.0
C1765 C 0.23995 0.78306 0.07903 0.0
C1766 C 0.25693 0.73646 0.07896 0.0
C1767 C 0.27766 0.7284 0.0559 0.0
N1768 N 0.24638 0.76868 0.07916 0.0
N1769 N 0.27124 0.7427 0.05628 0.0
H1770 H 0.79264 0.72867 0.54836 0.0
H1771 H 0.73319 0.78739 0.58795 0.0
H1772 H 0.76042 0.71476 0.5838 0.0
H1773 H 0.75877 0.7975 0.54634 0.0
H1774 H 0.74493 0.76163 0.58852 0.0
H1775 H 0.78203 0.75472 0.54924 0.0
C1776 C 0.78332 0.73108 0.55634 0.0
C1777 C 0.77738 0.71947 0.56599 0.0
C1778 C 0.748 0.76953 0.57931 0.0
C1779 C 0.7652 0.74943 0.56711 0.0
C1780 C 0.74139 0.78426 0.57902 0.0
C1781 C 0.74498 0.79462 0.56704 0.0
C1782 C 0.75836 0.76516 0.56761 0.0
C1783 C 0.75561 0.7899 0.55575 0.0
C1784 C 0.77725 0.74599 0.55683 0.0
C1785 C 0.76529 0.72333 0.5761 0.0
N1786 N 0.76191 0.77553 0.55631 0.0
N1787 N 0.75961 0.738 0.57642 0.0
H1788 H 0.24226 0.72052 0.41387 0.0
H1789 H 0.26012 0.7962 0.46419 0.0
H1790 H 0.23028 0.72607 0.46198 0.0
H1791 H 0.26981 0.79354 0.41533 0.0
H1792 H 0.24933 0.77029 0.46324 0.0
H1793 H 0.25294 0.74682 0.41389 0.0
C1794 C 0.24195 0.72721 0.42444 0.0
C1795 C 0.23536 0.72107 0.43795 0.0
C1796 C 0.25375 0.77534 0.45268 0.0
C1797 C 0.24745 0.75112 0.43802 0.0
C1798 C 0.25991 0.79019 0.45321 0.0
C1799 C 0.26591 0.79708 0.43982 0.0
C1800 C 0.2536 0.76716 0.43866 0.0
C1801 C 0.26527 0.78869 0.42593 0.0
C1802 C 0.24799 0.74224 0.42442 0.0
C1803 C 0.23521 0.73029 0.45128 0.0
N1804 N 0.25929 0.77412 0.42572 0.0
N1805 N 0.24114 0.7448 0.45097 0.0
H1806 H 0.74915 0.7051 0.91468 0.0
H1807 H 0.75141 0.79511 0.9368 0.0
H1808 H 0.7184 0.72662 0.94753 0.0
H1809 H 0.78332 0.77388 0.90487 0.0
H1810 H 0.73852 0.77021 0.93997 0.0
H1811 H 0.76147 0.73022 0.91032 0.0
C1812 C 0.74502 0.71507 0.92101 0.0
C1813 C 0.73274 0.71373 0.93151 0.0
C1814 C 0.7483 0.771 0.93222 0.0
C1815 C 0.7467 0.74251 0.92651 0.0
C1816 C 0.75564 0.78525 0.93036 0.0
C1817 C 0.7685 0.7866 0.92058 0.0
C1818 C 0.75385 0.75796 0.92427 0.0
C1819 C 0.77346 0.77339 0.91256 0.0
C1820 C 0.75203 0.72942 0.91849 0.0
C1821 C 0.72784 0.72707 0.93934 0.0
N1822 N 0.76617 0.75962 0.91462 0.0
N1823 N 0.73482 0.74087 0.93668 0.0
H1824 H 0.28569 0.53587 0.52154 0.0
H1825 H 0.33526 0.46416 0.4904 0.0
H1826 H 0.33541 0.53703 0.51794 0.0
H1827 H 0.28553 0.46704 0.48822 0.0
H1828 H 0.33588 0.48992 0.50226 0.0
H1829 H 0.28576 0.50983 0.51092 0.0
C1830 C 0.29665 0.53065 0.5185 0.0
C1831 C 0.31057 0.53869 0.52061 0.0
C1832 C 0.32485 0.48486 0.49922 0.0
C1833 C 0.31073 0.50869 0.50844 0.0
C1834 C 0.32447 0.47014 0.49252 0.0
C1835 C 0.31032 0.46344 0.48828 0.0
C1836 C 0.31096 0.49288 0.50176 0.0
C1837 C 0.29672 0.47175 0.49124 0.0
C1838 C 0.29668 0.51575 0.51242 0.0
C1839 C 0.3244 0.53129 0.51645 0.0
N1840 N 0.29739 0.486 0.49776 0.0
N1841 N 0.32414 0.51668 0.51058 0.0
H1842 H 0.81635 0.45595 0.0032 0.0
H1843 H 0.83716 0.54627 0.00499 0.0
H1844 H 0.84527 0.47809 0.96912 0.0
H1845 H 0.80747 0.52369 0.03811 0.0
H1846 H 0.84109 0.52136 0.99209 0.0
H1847 H 0.81407 0.48056 0.0168 0.0
C1848 C 0.82232 0.46595 0.99863 0.0
C1849 C 0.83097 0.46494 0.98495 0.0
C1850 C 0.83372 0.52188 0.00219 0.0
C1851 C 0.8283 0.49326 1.00042 0.0
C1852 C 0.83145 0.5361 0.00954 0.0
C1853 C 0.82193 0.5371 0.02263 0.0
C1854 C 0.82644 0.50856 0.00799 0.0
C1855 C 0.81487 0.52352 0.02803 0.0
C1856 C 0.82097 0.48003 0.00638 0.0
C1857 C 0.83845 0.47832 0.9796 0.0
N1858 N 0.81726 0.50985 0.0207 0.0
N1859 N 0.83689 0.49193 0.9873 0.0
H1860 H 0.28817 0.58882 0.23998 0.0
H1861 H 0.21611 0.53806 0.26811 0.0
H1862 H 0.28509 0.53928 0.23506 0.0
H1863 H 0.21461 0.58785 0.26554 0.0
H1864 H 0.24214 0.53854 0.25747 0.0
H1865 H 0.26212 0.58895 0.2512 0.0
C1866 C 0.28209 0.57797 0.24138 0.0
C1867 C 0.28881 0.56401 0.23654 0.0
C1868 C 0.23613 0.54938 0.25916 0.0
C1869 C 0.25906 0.5641 0.24927 0.0
C1870 C 0.22123 0.54912 0.26523 0.0
C1871 C 0.21314 0.56294 0.2677 0.0
C1872 C 0.24312 0.56358 0.2556 0.0
C1873 C 0.2204 0.57692 0.26375 0.0
C1874 C 0.26719 0.57807 0.24769 0.0
C1875 C 0.28037 0.55032 0.23856 0.0
N1876 N 0.23502 0.57689 0.25795 0.0
N1877 N 0.26597 0.55071 0.24474 0.0
H1878 H 0.19251 0.95329 0.48694 0.0
H1879 H 0.16986 0.04242 0.49902 0.0
H1880 H 0.16973 0.97036 0.52791 0.0
H1881 H 0.19583 0.02504 0.46014 0.0
H1882 H 0.16856 0.01606 0.50943 0.0
H1883 H 0.19245 0.97945 0.47639 0.0
C1884 C 0.18741 0.96252 0.49369 0.0
C1885 C 0.18116 0.9596 0.50835 0.0
C1886 C 0.17454 0.01806 0.49862 0.0
C1887 C 0.18112 0.98969 0.49636 0.0
C1888 C 0.17529 0.03309 0.49269 0.0
C1889 C 0.18299 0.03597 0.4787 0.0
C1890 C 0.18148 0.00582 0.49047 0.0
C1891 C 0.1898 0.02342 0.47098 0.0
C1892 C 0.18742 0.97749 0.48767 0.0
C1893 C 0.17471 0.97206 0.51656 0.0
N1894 N 0.18887 0.00895 0.47695 0.0
N1895 N 0.17489 0.98655 0.51047 0.0
H1896 H 0.66565 0.53469 0.49636 0.0
H1897 H 0.71298 0.45596 0.50791 0.0
H1898 H 0.71129 0.52618 0.47818 0.0
H1899 H 0.66538 0.46085 0.52189 0.0
H1900 H 0.71237 0.48204 0.49747 0.0
H1901 H 0.66523 0.50821 0.50664 0.0
C1902 C 0.6756 0.52731 0.4946 0.0
C1903 C 0.68853 0.53268 0.4864 0.0
C1904 C 0.702 0.47744 0.50275 0.0
C1905 C 0.68809 0.50243 0.49803 0.0
C1906 C 0.70234 0.4625 0.50871 0.0
C1907 C 0.68921 0.45618 0.5158 0.0
C1908 C 0.68846 0.4863 0.50393 0.0
C1909 C 0.67575 0.46524 0.51646 0.0
C1910 C 0.67532 0.51218 0.5004 0.0
C1911 C 0.70105 0.52258 0.4844 0.0
N1912 N 0.67574 0.47989 0.51067 0.0
N1913 N 0.70051 0.50801 0.49016 0.0
H1914 H 0.72485 0.59995 0.78566 0.0
H1915 H 0.77158 0.56261 0.71509 0.0
H1916 H 0.70383 0.57199 0.75009 0.0
H1917 H 0.79329 0.58908 0.75138 0.0
H1918 H 0.74657 0.5669 0.72725 0.0
H1919 H 0.74973 0.59734 0.77261 0.0
C1920 C 0.72542 0.59336 0.77503 0.0
C1921 C 0.7122 0.58613 0.769 0.0
C1922 C 0.75678 0.57179 0.73258 0.0
C1923 C 0.74075 0.58301 0.75405 0.0
C1924 C 0.77111 0.56932 0.72564 0.0
C1925 C 0.7846 0.57546 0.73224 0.0
C1926 C 0.75585 0.58047 0.74625 0.0
C1927 C 0.78321 0.58409 0.74591 0.0
C1928 C 0.73967 0.59184 0.76762 0.0
C1929 C 0.71369 0.57775 0.75519 0.0
N1930 N 0.76909 0.58633 0.75246 0.0
N1931 N 0.72771 0.57637 0.74823 0.0
H1932 H 0.53359 0.34909 0.5253 0.0
H1933 H 0.46359 0.30839 0.4806 0.0
H1934 H 0.49927 0.32052 0.54754 0.0
H1935 H 0.49775 0.33679 0.45792 0.0
H1936 H 0.47603 0.31357 0.50532 0.0
H1937 H 0.51991 0.34596 0.5008 0.0
C1938 C 0.52308 0.34229 0.52509 0.0
C1939 C 0.51762 0.33499 0.53852 0.0
C1940 C 0.48082 0.31869 0.49496 0.0
C1941 C 0.50198 0.33124 0.51041 0.0
C1942 C 0.47374 0.3157 0.48079 0.0
C1943 C 0.47966 0.32212 0.46712 0.0
C1944 C 0.49397 0.32818 0.49553 0.0
C1945 C 0.49281 0.33155 0.46815 0.0
C1946 C 0.51531 0.34046 0.51106 0.0
C1947 C 0.50394 0.32633 0.5375 0.0
N1948 N 0.49954 0.33428 0.48211 0.0
N1949 N 0.49666 0.32463 0.52368 0.0
H1950 H 0.5092 0.16764 0.96802 0.0
H1951 H 0.51176 0.20439 0.05285 0.0
H1952 H 0.54201 0.20233 0.98244 0.0
H1953 H 0.48317 0.16525 0.04109 0.0
H1954 H 0.52319 0.20342 0.02711 0.0
H1955 H 0.49935 0.16647 0.99458 0.0
C1956 C 0.51431 0.17502 0.97674 0.0
C1957 C 0.52641 0.18514 0.97297 0.0
C1958 C 0.51451 0.19494 0.03018 0.0
C1959 C 0.51525 0.18382 0.00335 0.0
C1960 C 0.508 0.19548 0.04491 0.0
C1961 C 0.49644 0.18493 0.04914 0.0
C1962 C 0.50935 0.18387 0.01948 0.0
C1963 C 0.49206 0.17361 0.03835 0.0
C1964 C 0.50873 0.17429 0.99191 0.0
C1965 C 0.53265 0.19437 0.98477 0.0
N1966 N 0.49841 0.17347 0.02396 0.0
N1967 N 0.52697 0.19352 0.99937 0.0
H1968 H 0.53426 0.70483 0.47633 0.0
H1969 H 0.48394 0.66144 0.54059 0.0
H1970 H 0.50931 0.66273 0.46667 0.0
H1971 H 0.49958 0.70865 0.54432 0.0
H1972 H 0.49564 0.65998 0.51476 0.0
H1973 H 0.5239 0.70475 0.50243 0.0
C1974 C 0.52657 0.69554 0.47969 0.0
C1975 C 0.52261 0.68379 0.46925 0.0
C1976 C 0.49655 0.67061 0.5213 0.0
C1977 C 0.51072 0.68359 0.49933 0.0
C1978 C 0.49 0.67142 0.53608 0.0
C1979 C 0.49077 0.68521 0.54461 0.0
C1980 C 0.50406 0.68362 0.51515 0.0
C1981 C 0.49864 0.69781 0.53814 0.0
C1982 C 0.52064 0.69552 0.49464 0.0
C1983 C 0.51259 0.67207 0.47432 0.0
N1984 N 0.50496 0.69671 0.52383 0.0
N1985 N 0.507 0.67224 0.48905 0.0
H1986 H 0.49592 0.83574 0.96385 0.0
H1987 H 0.49313 0.80079 0.04952 0.0
H1988 H 0.46282 0.80178 0.97929 0.0
H1989 H 0.52282 0.83879 0.03679 0.0
H1990 H 0.48195 0.80122 0.02368 0.0
H1991 H 0.50631 0.83702 0.99022 0.0
C1992 C 0.49087 0.82853 0.97275 0.0
C1993 C 0.4785 0.81861 0.96933 0.0
C1994 C 0.49084 0.80955 0.02653 0.0
C1995 C 0.49026 0.82006 0.99947 0.0
C1996 C 0.49722 0.80932 0.04133 0.0
C1997 C 0.50896 0.81974 0.04534 0.0
C1998 C 0.4963 0.82019 0.01555 0.0
C1999 C 0.51377 0.83056 0.03421 0.0
C2000 C 0.49676 0.82932 0.9878 0.0
C2001 C 0.47236 0.80959 0.98134 0.0
N2002 N 0.5075 0.83043 0.01978 0.0
N2003 N 0.47831 0.81051 0.99582 0.0
H2004 H 0.47057 0.97256 0.83252 0.0
H2005 H 0.52472 0.04358 0.80881 0.0
H2006 H 0.45363 0.01539 0.81335 0.0
H2007 H 0.54174 0.00354 0.83321 0.0
H2008 H 0.49875 0.03294 0.8099 0.0
H2009 H 0.49672 0.98328 0.83256 0.0
C2010 C 0.47232 0.98424 0.82837 0.0
C2011 C 0.45985 0.99308 0.82289 0.0
C2012 C 0.50813 0.02645 0.81504 0.0
C2013 C 0.48981 0.00537 0.82285 0.0
C2014 C 0.52302 0.03251 0.81439 0.0
C2015 C 0.53548 0.02443 0.82091 0.0
C2016 C 0.50558 0.01213 0.8222 0.0
C2017 C 0.53249 0.01016 0.82802 0.0
C2018 C 0.48727 0.99034 0.82841 0.0
C2019 C 0.46285 0.00814 0.81768 0.0
N2020 N 0.51783 0.00444 0.82845 0.0
N2021 N 0.47751 0.01377 0.81773 0.0
H2022 H 0.54545 0.48734 0.30305 0.0
H2023 H 0.45833 0.49527 0.33336 0.0
H2024 H 0.53179 0.52008 0.33813 0.0
H2025 H 0.47401 0.45991 0.30186 0.0
H2026 H 0.48492 0.50496 0.33513 0.0
H2027 H 0.51914 0.47732 0.30254 0.0
C2028 C 0.53694 0.49237 0.31073 0.0
C2029 C 0.54085 0.50459 0.32063 0.0
C2030 C 0.48251 0.49507 0.32785 0.0
C2031 C 0.51056 0.49324 0.32001 0.0
C2032 C 0.46733 0.48958 0.3268 0.0
C2033 C 0.46392 0.47677 0.31744 0.0
C2034 C 0.49431 0.48774 0.31944 0.0
C2035 C 0.47606 0.46981 0.30923 0.0
C2036 C 0.52188 0.48665 0.31042 0.0
C2037 C 0.5293 0.51063 0.33032 0.0
N2038 N 0.49066 0.47539 0.31041 0.0
N2039 N 0.51466 0.50494 0.32971 0.0
H2040 H 0.54768 0.01939 0.19276 0.0
H2041 H 0.45961 0.009 0.16598 0.0
H2042 H 0.53244 0.98222 0.16318 0.0
H2043 H 0.47607 0.04616 0.19491 0.0
H2044 H 0.48612 0.99911 0.16424 0.0
H2045 H 0.52147 0.02965 0.19291 0.0
C2046 C 0.53884 0.01342 0.18622 0.0
C2047 C 0.54229 0.99989 0.17799 0.0
C2048 C 0.4839 0.00944 0.17095 0.0
C2049 C 0.5121 0.01156 0.17818 0.0
C2050 C 0.46877 0.01507 0.17196 0.0
C2051 C 0.46559 0.02841 0.18063 0.0
C2052 C 0.4959 0.01722 0.17866 0.0
C2053 C 0.47793 0.03583 0.18811 0.0
C2054 C 0.52383 0.01928 0.18632 0.0
C2055 C 0.53032 0.99268 0.1697 0.0
N2056 N 0.49248 0.03013 0.18696 0.0
N2057 N 0.51574 0.99856 0.17006 0.0
H2058 H 0.54692 0.50326 0.6798 0.0
H2059 H 0.45581 0.50321 0.663 0.0
H2060 H 0.52361 0.46696 0.65475 0.0
H2061 H 0.47945 0.53879 0.68877 0.0
H2062 H 0.48062 0.49025 0.6588 0.0
H2063 H 0.52243 0.51711 0.68192 0.0
C2064 C 0.53669 0.49825 0.67464 0.0
C2065 C 0.53733 0.48389 0.66714 0.0
C2066 C 0.48036 0.50092 0.66535 0.0
C2067 C 0.50917 0.49965 0.66963 0.0
C2068 C 0.4662 0.5083 0.66776 0.0
C2069 C 0.46552 0.52208 0.67629 0.0
C2070 C 0.49395 0.50736 0.67151 0.0
C2071 C 0.47937 0.52817 0.68216 0.0
C2072 C 0.52268 0.50615 0.67589 0.0
C2073 C 0.52366 0.47798 0.66068 0.0
N2074 N 0.49298 0.52076 0.67968 0.0
N2075 N 0.51014 0.48584 0.66213 0.0
H2076 H 0.71831 0.96552 0.73742 0.0
H2077 H 0.79124 0.91432 0.76259 0.0
H2078 H 0.71748 0.91565 0.73699 0.0
H2079 H 0.78813 0.9638 0.76806 0.0
H2080 H 0.76498 0.91424 0.75179 0.0
H2081 H 0.74448 0.96478 0.7476 0.0
C2082 C 0.72362 0.95438 0.73953 0.0
C2083 C 0.71566 0.94062 0.73635 0.0
C2084 C 0.7701 0.9251 0.75532 0.0
C2085 C 0.74585 0.93968 0.74797 0.0
C2086 C 0.78511 0.92516 0.7614 0.0
C2087 C 0.79189 0.93909 0.76626 0.0
C2088 C 0.7619 0.93907 0.75404 0.0
C2089 C 0.78338 0.95278 0.76453 0.0
C2090 C 0.73861 0.95396 0.74535 0.0
C2091 C 0.72317 0.92654 0.73934 0.0
N2092 N 0.76888 0.95241 0.7586 0.0
N2093 N 0.73789 0.92642 0.74494 0.0
H2094 H 0.78588 0.41232 0.26803 0.0
H2095 H 0.72435 0.45871 0.21714 0.0
H2096 H 0.79172 0.45959 0.25325 0.0
H2097 H 0.71209 0.41751 0.24243 0.0
H2098 H 0.75017 0.45752 0.22811 0.0
H2099 H 0.76 0.41224 0.25635 0.0
C2100 C 0.7818 0.4226 0.26219 0.0
C2101 C 0.79096 0.43599 0.26161 0.0
C2102 C 0.74186 0.44874 0.23132 0.0
C2103 C 0.76146 0.43598 0.24834 0.0
C2104 C 0.72708 0.44939 0.22504 0.0
C2105 C 0.716 0.43821 0.2289 0.0
C2106 C 0.74576 0.43671 0.24147 0.0
C2107 C 0.72025 0.42642 0.23922 0.0
C2108 C 0.767 0.42258 0.25565 0.0
C2109 C 0.78505 0.44903 0.25402 0.0
N2110 N 0.73485 0.42593 0.24512 0.0
N2111 N 0.77072 0.44868 0.24769 0.0
H2112 H 0.02915 0.28521 0.11931 0.0
H2113 H 0.96408 0.22064 0.10907 0.0
H2114 H 0.01648 0.2655 0.07527 0.0
H2115 H 0.97975 0.23693 0.15354 0.0
H2116 H 0.98452 0.2356 0.09668 0.0
H2117 H 0.01255 0.26636 0.1322 0.0
C2118 C 0.02301 0.27682 0.11235 0.0
C2119 C 0.02414 0.27704 0.09615 0.0
C2120 C 0.9836 0.2358 0.10916 0.0
C2121 C 0.00497 0.25546 0.11088 0.0
C2122 C 0.97191 0.22725 0.11626 0.0
C2123 C 0.97009 0.22761 0.13238 0.0
C2124 C 0.99351 0.24494 0.11821 0.0
C2125 C 0.98067 0.23633 0.14108 0.0
C2126 C 0.01351 0.26605 0.11973 0.0
C2127 C 0.01593 0.26583 0.08777 0.0
N2128 N 0.99181 0.24477 0.13387 0.0
N2129 N 0.0066 0.25561 0.09521 0.0
H2130 H 0.99462 0.27286 0.32742 0.0
H2131 H 0.01404 0.22932 0.40688 0.0
H2132 H 0.96504 0.27405 0.36756 0.0
H2133 H 0.03832 0.22117 0.36408 0.0
H2134 H 0.99858 0.24916 0.39393 0.0
H2135 H 0.01322 0.25737 0.342 0.0
C2136 C 0.9921 0.27003 0.33935 0.0
C2137 C 0.97815 0.27467 0.34621 0.0
C2138 C 0.00739 0.24313 0.38742 0.0
C2139 C 0.99943 0.25687 0.36298 0.0
C2140 C 0.01628 0.23184 0.39482 0.0
C2141 C 0.02742 0.22345 0.38653 0.0
C2142 C 0.00971 0.24613 0.37163 0.0
C2143 C 0.02978 0.22723 0.37092 0.0
C2144 C 0.00272 0.26113 0.34765 0.0
C2145 C 0.97557 0.27064 0.36174 0.0
N2146 N 0.02095 0.23822 0.36396 0.0
N2147 N 0.98605 0.26191 0.36955 0.0
H2148 H 0.98756 0.20829 0.62052 0.0
H2149 H 0.02082 0.29425 0.62932 0.0
H2150 H 0.97321 0.24603 0.59123 0.0
H2151 H 0.03551 0.25528 0.65678 0.0
H2152 H 0.00162 0.27764 0.6167 0.0
H2153 H 0.00337 0.22617 0.63539 0.0
C2154 C 0.98765 0.22038 0.61725 0.0
C2155 C 0.97911 0.22562 0.6045 0.0
C2156 C 0.00899 0.27278 0.62557 0.0
C2157 C 0.99738 0.24626 0.62153 0.0
C2158 C 0.01993 0.28226 0.63281 0.0
C2159 C 0.0299 0.27614 0.64406 0.0
C2160 C 0.00799 0.25708 0.62965 0.0
C2161 C 0.02819 0.26051 0.6481 0.0
C2162 C 0.99672 0.23061 0.62577 0.0
C2163 C 0.97963 0.24146 0.60093 0.0
N2164 N 0.01754 0.25155 0.64086 0.0
N2165 N 0.98871 0.2512 0.60933 0.0
H2166 H 0.98534 0.29324 0.88377 0.0
H2167 H 0.0434 0.22144 0.88959 0.0
H2168 H 0.99756 0.27053 0.92647 0.0
H2169 H 0.0321 0.24416 0.84664 0.0
H2170 H 0.02447 0.23761 0.90281 0.0
H2171 H 1.00019 0.27379 0.86956 0.0
C2172 C 0.99099 0.28408 0.89016 0.0
C2173 C 0.99029 0.28361 0.90637 0.0
C2174 C 0.02602 0.23899 0.89047 0.0
C2175 C 0.00739 0.26134 0.89016 0.0
C2176 C 0.03683 0.22972 0.88289 0.0
C2177 C 0.03946 0.2315 0.86698 0.0
C2178 C 0.01778 0.25023 0.88213 0.0
C2179 C 0.03052 0.24241 0.85893 0.0
C2180 C 0.99951 0.27299 0.88203 0.0
C2181 C 0.99786 0.27145 0.914 0.0
N2182 N 0.02019 0.25145 0.86661 0.0
N2183 N 0.00616 0.26089 0.90585 0.0
H2184 H 0.02487 0.70727 0.88058 0.0
H2185 H 0.96401 0.7765 0.87188 0.0
H2186 H 0.00236 0.72945 0.91917 0.0
H2187 H 0.98098 0.74953 0.8335 0.0
H2188 H 0.98119 0.76218 0.88915 0.0
H2189 H 0.01205 0.72539 0.86308 0.0
C2190 C 0.01738 0.71605 0.88541 0.0
C2191 C 0.0146 0.71673 0.90138 0.0
C2192 C 0.98126 0.75949 0.87692 0.0
C2193 C 0.99982 0.7375 0.88137 0.0
C2194 C 0.97149 0.76772 0.86703 0.0
C2195 C 0.97093 0.76413 0.85121 0.0
C2196 C 0.99058 0.74761 0.87098 0.0
C2197 C 0.98092 0.75262 0.84563 0.0
C2198 C 0.01002 0.72637 0.87539 0.0
C2199 C 0.00477 0.7284 0.90694 0.0
N2200 N 0.99024 0.74471 0.8555 0.0
N2201 N 0.99768 0.73825 0.89695 0.0
H2202 H 0.51208 0.2663 0.17676 0.0
H2203 H 0.48616 0.22862 0.09624 0.0
H2204 H 0.53564 0.27512 0.1337 0.0
H2205 H 0.46762 0.21569 0.14069 0.0
H2206 H 0.50166 0.24868 0.10893 0.0
H2207 H 0.49308 0.25083 0.16289 0.0
C2208 C 0.51319 0.26512 0.16435 0.0
C2209 C 0.5256 0.27193 0.15643 0.0
C2210 C 0.49407 0.24155 0.11587 0.0
C2211 C 0.50382 0.25405 0.14041 0.0
C2212 C 0.48516 0.23015 0.10862 0.0
C2213 C 0.47565 0.22036 0.11743 0.0
C2214 C 0.49341 0.24323 0.13202 0.0
C2215 C 0.47487 0.22285 0.13344 0.0
C2216 C 0.50232 0.25623 0.15643 0.0
C2217 C 0.52633 0.27003 0.14031 0.0
N2218 N 0.48368 0.23395 0.1402 0.0
N2219 N 0.51567 0.26117 0.13285 0.0
H2220 H 0.99093 0.76618 0.42918 0.0
H2221 H 0.02278 0.73874 0.34688 0.0
H2222 H 0.97571 0.78589 0.38596 0.0
H2223 H 0.03766 0.71964 0.3905 0.0
H2224 H 0.00321 0.7539 0.36058 0.0
H2225 H 0.00572 0.74693 0.41488 0.0
C2226 C 0.99055 0.76637 0.41667 0.0
C2227 C 0.98217 0.77779 0.40878 0.0
C2228 C 0.01065 0.74626 0.36713 0.0
C2229 C 0.99927 0.75578 0.39226 0.0
C2230 C 0.02181 0.73756 0.3593 0.0
C2231 C 0.03201 0.728 0.36755 0.0
C2232 C 0.00969 0.74541 0.38333 0.0
C2233 C 0.03017 0.72695 0.38364 0.0
C2234 C 0.99904 0.75536 0.40849 0.0
C2235 C 0.98206 0.77735 0.39254 0.0
N2236 N 0.01935 0.73563 0.39099 0.0
N2237 N 0.99062 0.76665 0.38482 0.0
H2238 H 0.53653 0.28539 0.63628 0.0
H2239 H 0.46244 0.23062 0.62933 0.0
H2240 H 0.51209 0.27788 0.59345 0.0
H2241 H 0.48835 0.23755 0.67139 0.0
H2242 H 0.48187 0.2457 0.61529 0.0
H2243 H 0.52052 0.26573 0.64856 0.0
C2244 C 0.5279 0.27949 0.62939 0.0
C2245 C 0.52558 0.28342 0.61383 0.0
C2246 C 0.48337 0.24378 0.62756 0.0
C2247 C 0.507 0.26092 0.62792 0.0
C2248 C 0.4723 0.23514 0.63558 0.0
C2249 C 0.47367 0.23292 0.65161 0.0
C2250 C 0.49589 0.25027 0.63561 0.0
C2251 C 0.4867 0.23905 0.65908 0.0
C2252 C 0.51873 0.26825 0.63643 0.0
C2253 C 0.51427 0.27528 0.60549 0.0
N2254 N 0.49721 0.24752 0.65106 0.0
N2255 N 0.50529 0.26454 0.61268 0.0
H2256 H 0.09019 0.0093 0.28485 0.0
H2257 H 0.16577 0.99574 0.23408 0.0
H2258 H 0.12368 0.04519 0.2761 0.0
H2259 H 0.12739 0.96393 0.23504 0.0
H2260 H 0.1504 0.01428 0.24888 0.0
H2261 H 0.10342 0.99276 0.26621 0.0
C2262 C 0.10027 0.01376 0.27893 0.0
C2263 C 0.10588 0.02865 0.28213 0.0
C2264 C 0.14528 0.00331 0.24571 0.0
C2265 C 0.12121 0.00966 0.26081 0.0
C2266 C 0.15406 0.9927 0.23726 0.0
C2267 C 0.14792 0.97819 0.23338 0.0
C2268 C 0.13029 0.99933 0.25049 0.0
C2269 C 0.13264 0.97494 0.23779 0.0
C2270 C 0.10781 0.0043 0.26825 0.0
C2271 C 0.11895 0.0338 0.27402 0.0
N2272 N 0.12443 0.98535 0.24624 0.0
N2273 N 0.12626 0.02427 0.26386 0.0
H2274 H 0.22522 0.3711 0.53578 0.0
H2275 H 0.28812 0.36339 0.46857 0.0
H2276 H 0.24137 0.3276 0.51748 0.0
H2277 H 0.27296 0.40713 0.48712 0.0
H2278 H 0.26858 0.35032 0.48412 0.0
H2279 H 0.24005 0.38463 0.51588 0.0
C2280 C 0.23171 0.36437 0.52746 0.0
C2281 C 0.23216 0.34817 0.52843 0.0
C2282 C 0.26941 0.36279 0.48469 0.0
C2283 C 0.24927 0.36362 0.50566 0.0
C2284 C 0.28057 0.37028 0.47578 0.0
C2285 C 0.28232 0.38639 0.47664 0.0
C2286 C 0.25992 0.37143 0.49464 0.0
C2287 C 0.27211 0.39469 0.48615 0.0
C2288 C 0.24022 0.37212 0.51612 0.0
C2289 C 0.24076 0.3401 0.51729 0.0
N2290 N 0.26146 0.38711 0.49489 0.0
N2291 N 0.24907 0.3479 0.50648 0.0
H2292 H 0.82349 0.51679 0.7424 0.0
H2293 H 0.90351 0.48588 0.77699 0.0
H2294 H 0.8677 0.53704 0.73137 0.0
H2295 H 0.85868 0.46826 0.78987 0.0
H2296 H 0.8911 0.50228 0.75751 0.0
H2297 H 0.83666 0.49661 0.757 0.0
C2298 C 0.83599 0.51692 0.7429 0.0
C2299 C 0.84447 0.52875 0.73575 0.0
C2300 C 0.88401 0.49469 0.76449 0.0
C2301 C 0.85969 0.50564 0.75263 0.0
C2302 C 0.89109 0.48528 0.77558 0.0
C2303 C 0.88211 0.47577 0.7852 0.0
C2304 C 0.86784 0.49458 0.76299 0.0
C2305 C 0.86607 0.4755 0.78283 0.0
C2306 C 0.84351 0.50537 0.75128 0.0
C2307 C 0.86067 0.52821 0.73676 0.0
N2308 N 0.85946 0.48484 0.77208 0.0
N2309 N 0.86774 0.51694 0.74517 0.0
H2310 H 0.76234 0.17504 0.01835 0.0
H2311 H 0.72942 0.09421 0.9874 0.0
H2312 H 0.77314 0.13116 0.03946 0.0
H2313 H 0.71571 0.13874 0.96958 0.0
H2314 H 0.74807 0.10712 0.00434 0.0
H2315 H 0.74784 0.16152 0.99831 0.0
C2316 C 0.76178 0.16254 0.01871 0.0
C2317 C 0.76889 0.15425 0.03071 0.0
C2318 C 0.74108 0.11404 0.99661 0.0
C2319 C 0.75217 0.13864 0.00774 0.0
C2320 C 0.73046 0.10668 0.98689 0.0
C2321 C 0.72088 0.1154 0.97712 0.0
C2322 C 0.74215 0.13025 0.99655 0.0
C2323 C 0.72276 0.13152 0.97698 0.0
C2324 C 0.75346 0.15481 0.00725 0.0
C2325 C 0.7678 0.13804 0.03049 0.0
N2326 N 0.73308 0.13841 0.98661 0.0
N2327 N 0.7595 0.13078 0.01926 0.0
H2328 H 0.17668 0.01256 0.77089 0.0
H2329 H 0.0969 0.98781 0.73093 0.0
H2330 H 0.1339 0.03746 0.77692 0.0
H2331 H 0.14089 0.96671 0.72065 0.0
H2332 H 0.10949 0.0037 0.75064 0.0
H2333 H 0.16298 0.99337 0.75537 0.0
C2334 C 0.16437 0.01392 0.76911 0.0
C2335 C 0.15647 0.02675 0.77514 0.0
C2336 C 0.11636 0.9955 0.74417 0.0
C2337 C 0.14069 0.00479 0.75725 0.0
C2338 C 0.10917 0.98636 0.73293 0.0
C2339 C 0.11787 0.97597 0.724 0.0
C2340 C 0.13237 0.99422 0.74654 0.0
C2341 C 0.13373 0.97463 0.72715 0.0
C2342 C 0.15655 0.00296 0.76019 0.0
C2343 C 0.1405 0.02783 0.77244 0.0
N2344 N 0.14047 0.9837 0.73807 0.0
N2345 N 0.13317 0.01707 0.76362 0.0
H2346 H 0.24078 0.42565 0.01518 0.0
H2347 H 0.26658 0.34612 0.97556 0.0
H2348 H 0.21897 0.38184 0.02482 0.0
H2349 H 0.28386 0.391 0.96231 0.0
H2350 H 0.25195 0.3583 0.99649 0.0
H2351 H 0.2595 0.41242 0.9988 0.0
C2352 C 0.24002 0.41322 0.01401 0.0
C2353 C 0.22816 0.40488 0.02128 0.0
C2354 C 0.25906 0.36545 0.98909 0.0
C2355 C 0.24957 0.38962 0.00237 0.0
C2356 C 0.26747 0.3585 0.97716 0.0
C2357 C 0.27636 0.36756 0.96705 0.0
C2358 C 0.25959 0.38158 0.99096 0.0
C2359 C 0.27706 0.38355 0.96971 0.0
C2360 C 0.25072 0.40566 0.0046 0.0
C2361 C 0.22786 0.38876 0.01937 0.0
N2362 N 0.26872 0.39004 0.98133 0.0
N2363 N 0.23831 0.38167 0.00999 0.0
H2364 H 0.92701 0.50794 0.2396 0.0
H2365 H 0.84516 0.47425 0.26639 0.0
H2366 H 0.88364 0.52158 0.21912 0.0
H2367 H 0.88886 0.45966 0.28548 0.0
H2368 H 0.8587 0.49375 0.25106 0.0
H2369 H 0.91292 0.49244 0.25848 0.0
C2370 C 0.91451 0.50781 0.23915 0.0
C2371 C 0.90652 0.516 0.22764 0.0
C2372 C 0.86532 0.48638 0.2587 0.0
C2373 C 0.89027 0.49811 0.24924 0.0
C2374 C 0.85758 0.47525 0.2675 0.0
C2375 C 0.86588 0.46519 0.27718 0.0
C2376 C 0.88149 0.48748 0.25954 0.0
C2377 C 0.88197 0.46708 0.27813 0.0
C2378 C 0.90646 0.49892 0.24994 0.0
C2379 C 0.8903 0.51542 0.22773 0.0
N2380 N 0.88923 0.4779 0.26935 0.0
N2381 N 0.88273 0.50652 0.23826 0.0
H2382 H 0.78222 0.08904 0.49432 0.0
H2383 H 0.73627 0.16837 0.4899 0.0
H2384 H 0.78304 0.12199 0.53171 0.0
H2385 H 0.72796 0.12964 0.45955 0.0
H2386 H 0.75262 0.15176 0.50603 0.0
H2387 H 0.76168 0.10377 0.48202 0.0
C2388 C 0.77796 0.09935 0.50001 0.0
C2389 C 0.78441 0.10436 0.51401 0.0
C2390 C 0.74705 0.14688 0.49595 0.0
C2391 C 0.76092 0.12149 0.49983 0.0
C2392 C 0.73771 0.15635 0.48672 0.0
C2393 C 0.73085 0.15046 0.47323 0.0
C2394 C 0.74962 0.13146 0.49157 0.0
C2395 C 0.7331 0.13477 0.46974 0.0
C2396 C 0.76618 0.10775 0.49299 0.0
C2397 C 0.77835 0.11773 0.52092 0.0
N2398 N 0.74241 0.12591 0.47873 0.0
N2399 N 0.76708 0.12599 0.51364 0.0
H2400 H 0.23576 0.16061 0.9767 0.0
H2401 H 0.26779 0.08012 0.00892 0.0
H2402 H 0.21895 0.11608 0.96177 0.0
H2403 H 0.28488 0.12457 0.02374 0.0
H2404 H 0.24788 0.09315 0.99376 0.0
H2405 H 0.25184 0.14773 0.99601 0.0
C2406 C 0.23531 0.14813 0.97757 0.0
C2407 C 0.22605 0.13941 0.96748 0.0
C2408 C 0.25589 0.10006 1.00044 0.0
C2409 C 0.24456 0.12457 0.98956 0.0
C2410 C 0.26726 0.09262 0.00914 0.0
C2411 C 0.27814 0.10125 0.01753 0.0
C2412 C 0.25539 0.11629 1.00004 0.0
C2413 C 0.27681 0.11743 0.0174 0.0
C2414 C 0.24453 0.14078 0.98861 0.0
C2415 C 0.22595 0.12328 0.96922 0.0
N2416 N 0.26575 0.12442 0.00868 0.0
N2417 N 0.23515 0.11638 0.97994 0.0
H2418 H 0.71306 0.88857 0.53787 0.0
H2419 H 0.78306 0.88329 0.47777 0.0
H2420 H 0.73639 0.84596 0.52659 0.0
H2421 H 0.75986 0.9257 0.49006 0.0
H2422 H 0.76412 0.86888 0.49306 0.0
H2423 H 0.72803 0.90173 0.51793 0.0
C2424 C 0.7212 0.88193 0.53108 0.0
C2425 C 0.72356 0.86615 0.53404 0.0
C2426 C 0.76309 0.88132 0.49228 0.0
C2427 C 0.7409 0.88123 0.51121 0.0
C2428 C 0.77388 0.88956 0.48351 0.0
C2429 C 0.77316 0.90576 0.48274 0.0
C2430 C 0.75149 0.88933 0.50035 0.0
C2431 C 0.76097 0.91324 0.49041 0.0
C2432 C 0.72979 0.88947 0.5197 0.0
C2433 C 0.73423 0.85815 0.52478 0.0
N2434 N 0.75073 0.90499 0.49898 0.0
N2435 N 0.74262 0.8658 0.5139 0.0
H2436 H 0.34552 0.02316 0.73828 0.0
H2437 H 0.42677 0.98729 0.76446 0.0
H2438 H 0.38963 0.03803 0.72042 0.0
H2439 H 0.38355 0.97695 0.78709 0.0
H2440 H 0.41282 0.00299 0.74562 0.0
H2441 H 0.35874 0.00333 0.75353 0.0
C2442 C 0.35796 0.02214 0.7374 0.0
C2443 C 0.36648 0.03239 0.72814 0.0
C2444 C 0.40636 0.99719 0.75463 0.0
C2445 C 0.3817 0.00974 0.74563 0.0
C2446 C 0.41432 0.98817 0.76539 0.0
C2447 C 0.40635 0.98087 0.77749 0.0
C2448 C 0.39028 0.99895 0.75592 0.0
C2449 C 0.3902 0.98243 0.77803 0.0
C2450 C 0.36551 0.01085 0.74617 0.0
C2451 C 0.38258 0.03049 0.72748 0.0
N2452 N 0.38272 0.99138 0.76748 0.0
N2453 N 0.38965 0.01948 0.73617 0.0
H2454 H 0.23754 0.58379 0.99505 0.0
H2455 H 0.2534 0.67098 0.02006 0.0
H2456 H 0.21474 0.62299 0.97429 0.0
H2457 H 0.28042 0.63246 0.03658 0.0
H2458 H 0.24065 0.65379 1.00167 0.0
H2459 H 0.25485 0.60146 0.00868 0.0
C2460 C 0.23629 0.5961 0.99319 0.0
C2461 C 0.22454 0.6019 0.98361 0.0
C2462 C 0.24949 0.64911 0.00919 0.0
C2463 C 0.24426 0.62224 0.99935 0.0
C2464 C 0.25679 0.65893 0.01971 0.0
C2465 C 0.26791 0.65314 0.02999 0.0
C2466 C 0.2532 0.63331 0.00902 0.0
C2467 C 0.27188 0.63743 0.02892 0.0
C2468 C 0.24618 0.6062 1.001 0.0
C2469 C 0.22355 0.61798 0.98161 0.0
N2470 N 0.26439 0.62803 0.01877 0.0
N2471 N 0.23314 0.62757 0.98955 0.0
H2472 H 0.71599 0.86236 0.03534 0.0
H2473 H 0.77711 0.86899 0.96649 0.0
H2474 H 0.72979 0.90571 0.01488 0.0
H2475 H 0.76309 0.82589 0.98732 0.0
H2476 H 0.76248 0.88294 0.98624 0.0
H2477 H 0.73574 0.84921 0.02013 0.0
C2478 C 0.7233 0.86916 0.02779 0.0
C2479 C 0.72108 0.88516 0.02628 0.0
C2480 C 0.76275 0.87043 0.98659 0.0
C2481 C 0.74369 0.8701 0.00864 0.0
C2482 C 0.77114 0.86245 0.97532 0.0
C2483 C 0.77121 0.84622 0.97512 0.0
C2484 C 0.75432 0.86214 0.99773 0.0
C2485 C 0.76327 0.83839 0.98691 0.0
C2486 C 0.73458 0.86162 0.01907 0.0
C2487 C 0.731 0.89335 0.01636 0.0
N2488 N 0.75505 0.84641 0.99762 0.0
N2489 N 0.74174 0.88571 0.0078 0.0
H2490 H 0.38883 0.4582 0.78117 0.0
H2491 H 0.38109 0.52029 0.71306 0.0
H2492 H 0.34529 0.47082 0.76039 0.0
H2493 H 0.4244 0.50677 0.73376 0.0
H2494 H 0.36744 0.50438 0.73204 0.0
H2495 H 0.40161 0.47808 0.76581 0.0
C2496 C 0.38191 0.46526 0.77349 0.0
C2497 C 0.36596 0.46271 0.77199 0.0
C2498 C 0.37992 0.505 0.73251 0.0
C2499 C 0.38061 0.48549 0.75418 0.0
C2500 C 0.38773 0.51411 0.72168 0.0
C2501 C 0.40395 0.51479 0.72171 0.0
C2502 C 0.38836 0.49648 0.74345 0.0
C2503 C 0.41191 0.50654 0.7332 0.0
C2504 C 0.38924 0.47661 0.76468 0.0
C2505 C 0.35762 0.47231 0.76189 0.0
N2506 N 0.40405 0.49766 0.74351 0.0
N2507 N 0.36506 0.48317 0.75327 0.0
H2508 H 0.59425 0.99928 0.21628 0.0
H2509 H 0.67249 0.01478 0.26247 0.0
H2510 H 0.63068 0.96545 0.22007 0.0
H2511 H 0.63271 0.04476 0.26491 0.0
H2512 H 0.65718 0.99616 0.24772 0.0
H2513 H 0.60788 0.01566 0.23475 0.0
C2514 C 0.60507 0.99523 0.22108 0.0
C2515 C 0.61136 0.98098 0.21652 0.0
C2516 C 0.65176 0.00674 0.25161 0.0
C2517 C 0.62715 0.99981 0.23765 0.0
C2518 C 0.6605 0.0174 0.26004 0.0
C2519 C 0.65393 0.03143 0.26487 0.0
C2520 C 0.63635 0.01017 0.24784 0.0
C2521 C 0.63831 0.03413 0.2614 0.0
C2522 C 0.61285 0.0046 0.23166 0.0
C2523 C 0.62539 0.97633 0.22322 0.0
N2524 N 0.63012 0.02369 0.25298 0.0
N2525 N 0.63288 0.98579 0.23332 0.0
H2526 H 0.02039 0.7932 0.62219 0.0
H2527 H 0.96603 0.71906 0.61391 0.0
H2528 H 0.0156 0.76701 0.58 0.0
H2529 H 0.97473 0.74184 0.65742 0.0
H2530 H 0.98538 0.73555 0.60171 0.0
H2531 H 0.00495 0.77373 0.63566 0.0
C2532 C 0.01622 0.78329 0.61578 0.0
C2533 C 0.01924 0.78182 0.59989 0.0
C2534 C 0.98319 0.73686 0.61396 0.0
C2535 C 1.00143 0.7595 0.61526 0.0
C2536 C 0.97212 0.72742 0.62095 0.0
C2537 C 0.96864 0.72912 0.63671 0.0
C2538 C 0.99078 0.74823 0.62272 0.0
C2539 C 0.97699 0.74013 0.64523 0.0
C2540 C 0.0074 0.77217 0.62349 0.0
C2541 C 0.01354 0.76869 0.59223 0.0
N2542 N 0.98754 0.74937 0.6381 0.0
N2543 N 0.00482 0.75814 0.59994 0.0
H2544 H 0.02345 0.76652 0.15661 0.0
H2545 H 0.9896 0.73519 0.07641 0.0
H2546 H 0.03815 0.78265 0.11175 0.0
H2547 H 0.97691 0.71639 0.12084 0.0
H2548 H 0.00466 0.75513 0.08947 0.0
H2549 H 0.00366 0.75068 0.14404 0.0
C2550 C 0.02239 0.76692 0.14414 0.0
C2551 C 0.03261 0.77583 0.13522 0.0
C2552 C 0.99847 0.74674 0.09639 0.0
C2553 C 0.01002 0.75764 0.12076 0.0
C2554 C 0.98983 0.73533 0.08893 0.0
C2555 C 0.98208 0.72397 0.09752 0.0
C2556 C 0.99946 0.7468 0.1126 0.0
C2557 C 0.98276 0.72485 0.11373 0.0
C2558 C 0.01111 0.75782 0.13697 0.0
C2559 C 0.03065 0.77587 0.11911 0.0
N2560 N 0.99142 0.73596 0.12073 0.0
N2561 N 0.01969 0.76683 0.11241 0.0
H2562 H 0.46505 0.71416 0.64026 0.0
H2563 H 0.5352 0.77385 0.63244 0.0
H2564 H 0.48641 0.72562 0.59667 0.0
H2565 H 0.51343 0.7616 0.67561 0.0
H2566 H 0.51563 0.75871 0.61866 0.0
H2567 H 0.48075 0.73388 0.65284 0.0
C2568 C 0.47293 0.72094 0.63329 0.0
C2569 C 0.47449 0.7181 0.61739 0.0
C2570 C 0.51505 0.75948 0.63113 0.0
C2571 C 0.4927 0.7407 0.63182 0.0
C2572 C 0.5262 0.76816 0.63901 0.0
C2573 C 0.52607 0.76889 0.65523 0.0
C2574 C 0.50369 0.75146 0.63953 0.0
C2575 C 0.5141 0.76128 0.66312 0.0
C2576 C 0.48193 0.73221 0.6405 0.0
C2577 C 0.48485 0.72735 0.60896 0.0
N2578 N 0.50351 0.75281 0.65522 0.0
N2579 N 0.49367 0.73812 0.6163 0.0
H2580 H 0.46829 0.72974 0.13236 0.0
H2581 H 0.53728 0.79097 0.13953 0.0
H2582 H 0.48693 0.74636 0.17553 0.0
H2583 H 0.51644 0.77828 0.09601 0.0
H2584 H 0.52141 0.77164 0.15247 0.0
H2585 H 0.48823 0.74437 0.11852 0.0
C2586 C 0.47669 0.73627 0.13894 0.0
C2587 C 0.47583 0.73694 0.15513 0.0
C2588 C 0.52038 0.77296 0.14007 0.0
C2589 C 0.49861 0.75375 0.13938 0.0
C2590 C 0.52948 0.78401 0.13265 0.0
C2591 C 0.5281 0.78639 0.11666 0.0
C2592 C 0.50972 0.76422 0.13149 0.0
C2593 C 0.51784 0.77691 0.10837 0.0
C2594 C 0.48804 0.74467 0.13102 0.0
C2595 C 0.48703 0.74561 0.16304 0.0
N2596 N 0.50893 0.76635 0.1159 0.0
N2597 N 0.49785 0.75373 0.1551 0.0
H2598 H 0.09069 0.53115 0.75885 0.0
H2599 H 0.15345 0.4637 0.74933 0.0
H2600 H 0.11474 0.50937 0.79674 0.0
H2601 H 0.12774 0.48231 0.71085 0.0
H2602 H 0.14076 0.48208 0.76641 0.0
H2603 H 0.10543 0.51509 0.74072 0.0
C2604 C 0.09913 0.52309 0.76337 0.0
C2605 C 0.1014 0.52156 0.77937 0.0
C2606 C 0.1379 0.48222 0.75422 0.0
C2607 C 0.11829 0.50315 0.75869 0.0
C2608 C 0.14517 0.47171 0.74443 0.0
C2609 C 0.1416 0.47136 0.7286 0.0
C2610 C 0.12689 0.49253 0.74825 0.0
C2611 C 0.13083 0.48213 0.72296 0.0
C2612 C 0.10752 0.5139 0.75301 0.0
C2613 C 0.1125 0.51091 0.78453 0.0
N2614 N 0.12379 0.49222 0.73279 0.0
N2615 N 0.12046 0.50212 0.77425 0.0
H2616 H 0.23825 0.84784 0.02844 0.0
H2617 H 0.26749 0.93037 0.99856 0.0
H2618 H 0.22045 0.89149 0.04472 0.0
H2619 H 0.2872 0.88716 0.98332 0.0
H2620 H 0.24806 0.91606 0.0131 0.0
H2621 H 0.25408 0.86173 0.00953 0.0
C2622 C 0.23752 0.86032 0.02792 0.0
C2623 C 0.22809 0.86851 0.0383 0.0
C2624 C 0.25654 0.90968 0.00648 0.0
C2625 C 0.24625 0.88449 0.01673 0.0
C2626 C 0.26766 0.91786 0.99813 0.0
C2627 C 0.27911 0.90997 0.9898 0.0
C2628 C 0.25687 0.89345 0.00659 0.0
C2629 C 0.27864 0.89374 0.98964 0.0
C2630 C 0.2466 0.86825 0.01715 0.0
C2631 C 0.22762 0.88468 0.03706 0.0
N2632 N 0.2678 0.88602 0.99803 0.0
N2633 N 0.23664 0.89212 0.02658 0.0
H2634 H 0.88458 0.9782 0.28915 0.0
H2635 H 0.89329 0.03778 0.219 0.0
H2636 H 0.92814 0.98975 0.26781 0.0
H2637 H 0.84951 0.0258 0.23962 0.0
H2638 H 0.90589 0.0184 0.23516 0.0
H2639 H 0.87126 0.99363 0.26959 0.0
C2640 C 0.89135 0.98384 0.28026 0.0
C2641 C 0.90755 0.98275 0.28022 0.0
C2642 C 0.89351 0.0199 0.23607 0.0
C2643 C 0.89232 1.00057 0.25781 0.0
C2644 C 0.88628 0.03098 0.22682 0.0
C2645 C 0.87031 0.03354 0.22801 0.0
C2646 C 0.88474 0.01132 0.24671 0.0
C2647 C 0.86185 0.02428 0.23833 0.0
C2648 C 0.88372 0.99268 0.26909 0.0
C2649 C 0.91567 0.99029 0.26836 0.0
N2650 N 0.86919 0.0137 0.24736 0.0
N2651 N 0.90799 0.99897 0.25774 0.0
H2652 H 0.76155 0.67444 0.51418 0.0
H2653 H 0.72637 0.59185 0.49169 0.0
H2654 H 0.77293 0.6323 0.53833 0.0
H2655 H 0.71277 0.63487 0.47043 0.0
H2656 H 0.746 0.60579 0.50656 0.0
H2657 H 0.74625 0.65948 0.49584 0.0
C2658 C 0.76096 0.66202 0.51556 0.0
C2659 C 0.76845 0.65466 0.52793 0.0
C2660 C 0.73881 0.61215 0.49853 0.0
C2661 C 0.75079 0.6374 0.50693 0.0
C2662 C 0.72763 0.60418 0.48998 0.0
C2663 C 0.71779 0.61221 0.47987 0.0
C2664 C 0.74019 0.62826 0.49694 0.0
C2665 C 0.71999 0.6282 0.47816 0.0
C2666 C 0.75218 0.65347 0.50507 0.0
C2667 C 0.7673 0.63849 0.52903 0.0
N2668 N 0.73086 0.63569 0.48667 0.0
N2669 N 0.75853 0.63042 0.51875 0.0
H2670 H 0.12164 0.477 0.21993 0.0
H2671 H 0.11302 0.54036 0.28659 0.0
H2672 H 0.07812 0.49038 0.24026 0.0
H2673 H 0.15694 0.52642 0.26755 0.0
H2674 H 0.10042 0.52006 0.27163 0.0
H2675 H 0.13509 0.49287 0.23909 0.0
C2676 C 0.11491 0.48311 0.22853 0.0
C2677 C 0.0987 0.48246 0.22836 0.0
C2678 C 0.11283 0.52132 0.27082 0.0
C2679 C 0.11404 0.50076 0.25028 0.0
C2680 C 0.12005 0.53293 0.27939 0.0
C2681 C 0.13606 0.53522 0.27823 0.0
C2682 C 0.12163 0.51195 0.2609 0.0
C2683 C 0.14456 0.52514 0.26876 0.0
C2684 C 0.12261 0.4922 0.23946 0.0
C2685 C 0.09062 0.4906 0.23984 0.0
N2686 N 0.13723 0.51406 0.26034 0.0
N2687 N 0.09835 0.49951 0.25021 0.0
H2688 H 0.21686 0.88496 0.52573 0.0
H2689 H 0.28797 0.89456 0.46765 0.0
H2690 H 0.24013 0.92828 0.5174 0.0
H2691 H 0.26644 0.85072 0.47778 0.0
H2692 H 0.27207 0.90666 0.48757 0.0
H2693 H 0.2363 0.87182 0.51003 0.0
C2694 C 0.22615 0.8917 0.52074 0.0
C2695 C 0.22677 0.90779 0.5228 0.0
C2696 C 0.27092 0.89436 0.48555 0.0
C2697 C 0.24905 0.8928 0.50468 0.0
C2698 C 0.28001 0.88743 0.47417 0.0
C2699 C 0.27846 0.87161 0.47092 0.0
C2700 C 0.26007 0.88546 0.49372 0.0
C2701 C 0.268 0.86296 0.47982 0.0
C2702 C 0.23725 0.88418 0.51175 0.0
C2703 C 0.23912 0.91589 0.51608 0.0
N2704 N 0.2591 0.87003 0.4907 0.0
N2705 N 0.24967 0.90833 0.50722 0.0
H2706 H 0.89141 0.96369 0.78558 0.0
H2707 H 0.88497 0.02307 0.71504 0.0
H2708 H 0.84814 0.97586 0.76401 0.0
H2709 H 0.92771 0.011 0.73771 0.0
H2710 H 0.87085 0.00807 0.73445 0.0
H2711 H 0.9044 0.98314 0.76987 0.0
C2712 C 0.88459 0.97056 0.77765 0.0
C2713 C 0.86866 0.96801 0.77603 0.0
C2714 C 0.88331 0.00884 0.73526 0.0
C2715 C 0.88355 0.9903 0.75781 0.0
C2716 C 0.89138 0.01744 0.72419 0.0
C2717 C 0.90759 0.01819 0.72464 0.0
C2718 C 0.89149 1.00092 0.74685 0.0
C2719 C 0.91525 0.01066 0.7368 0.0
C2720 C 0.89204 0.98168 0.76865 0.0
C2721 C 0.86045 0.97737 0.76561 0.0
N2722 N 0.90716 0.00226 0.74731 0.0
N2723 N 0.86801 0.98798 0.75678 0.0
H2724 H 0.76806 0.58154 0.00696 0.0
H2725 H 0.7463 0.6685 0.98589 0.0
H2726 H 0.78622 0.62109 0.03133 0.0
H2727 H 0.72404 0.62885 0.96539 0.0
H2728 H 0.75933 0.65138 0.00415 0.0
H2729 H 0.7502 0.59856 0.99326 0.0
C2730 C 0.76817 0.59378 0.00958 0.0
C2731 C 0.77879 0.5999 0.02021 0.0
C2732 C 0.75146 0.64642 0.99578 0.0
C2733 C 0.75843 0.61951 0.0044 0.0
C2734 C 0.74401 0.65621 0.98533 0.0
C2735 C 0.73416 0.65011 0.97396 0.0
C2736 C 0.74919 0.63038 0.9948 0.0
C2737 C 0.73158 0.63408 0.97388 0.0
C2738 C 0.75795 0.6035 1.00173 0.0
C2739 C 0.77831 0.61585 0.02318 0.0
N2740 N 0.73919 0.62477 0.98401 0.0
N2741 N 0.76845 0.62512 0.01518 0.0
H2742 H 0.23621 0.66176 0.47627 0.0
H2743 H 0.28172 0.58401 0.4922 0.0
H2744 H 0.22561 0.61851 0.45378 0.0
H2745 H 0.28169 0.62116 0.52543 0.0
H2746 H 0.26121 0.59697 0.47797 0.0
H2747 H 0.25273 0.64774 0.4946 0.0
C2748 C 0.23717 0.64932 0.4753 0.0
C2749 C 0.22963 0.64133 0.46333 0.0
C2750 C 0.26553 0.60226 0.48845 0.0
C2751 C 0.24861 0.62531 0.48413 0.0
C2752 C 0.2773 0.59488 0.49656 0.0
C2753 C 0.28346 0.60156 0.50997 0.0
C2754 C 0.26002 0.61663 0.49357 0.0
C2755 C 0.27721 0.61562 0.51514 0.0
C2756 C 0.24659 0.64134 0.48577 0.0
C2757 C 0.23128 0.62521 0.46269 0.0
N2758 N 0.26596 0.62283 0.5068 0.0
N2759 N 0.24072 0.61779 0.47278 0.0
H2760 H 0.79034 0.36243 0.96863 0.0
H2761 H 0.72718 0.36838 0.03585 0.0
H2762 H 0.7748 0.40573 0.9879 0.0
H2763 H 0.74447 0.3254 0.01736 0.0
H2764 H 0.74187 0.38239 0.01614 0.0
H2765 H 0.77099 0.34893 0.98403 0.0
C2766 C 0.78275 0.36914 0.97597 0.0
C2767 C 0.78434 0.38525 0.97707 0.0
C2768 C 0.74232 0.36989 0.0163 0.0
C2769 C 0.76215 0.36978 0.99492 0.0
C2770 C 0.73389 0.36187 0.02753 0.0
C2771 C 0.7347 0.34567 0.02838 0.0
C2772 C 0.75163 0.36167 0.00584 0.0
C2773 C 0.74358 0.33788 0.01726 0.0
C2774 C 0.77169 0.3614 0.9848 0.0
C2775 C 0.77406 0.3933 0.98673 0.0
N2776 N 0.75178 0.34594 0.00656 0.0
N2777 N 0.76352 0.38547 0.9954 0.0
H2778 H 0.3426 0.52597 0.23461 0.0
H2779 H 0.42279 0.48943 0.26266 0.0
H2780 H 0.38733 0.53968 0.21736 0.0
H2781 H 0.37905 0.47941 0.28442 0.0
H2782 H 0.4093 0.50455 0.24309 0.0
H2783 H 0.35509 0.50569 0.24993 0.0
C2784 C 0.35501 0.52457 0.23384 0.0
C2785 C 0.36395 0.53467 0.22479 0.0
C2786 C 0.40261 0.49894 0.25206 0.0
C2787 C 0.3783 0.51153 0.24236 0.0
C2788 C 0.41032 0.49025 0.26325 0.0
C2789 C 0.40208 0.48326 0.27534 0.0
C2790 C 0.38651 0.50073 0.25293 0.0
C2791 C 0.3859 0.48467 0.27538 0.0
C2792 C 0.36213 0.51303 0.24265 0.0
C2793 C 0.37998 0.53229 0.22427 0.0
N2794 N 0.37866 0.49337 0.26444 0.0
N2795 N 0.38663 0.52106 0.23301 0.0
H2796 H 0.21257 0.12246 0.48093 0.0
H2797 H 0.2866 0.1185 0.53636 0.0
H2798 H 0.23724 0.0805 0.49174 0.0
H2799 H 0.25931 0.15976 0.53004 0.0
H2800 H 0.2707 0.10535 0.51716 0.0
H2801 H 0.23156 0.13712 0.49594 0.0
C2802 C 0.22208 0.11634 0.48628 0.0
C2803 C 0.22322 0.10018 0.48516 0.0
C2804 C 0.26824 0.11732 0.51987 0.0
C2805 C 0.24497 0.11692 0.50243 0.0
C2806 C 0.27736 0.12487 0.53083 0.0
C2807 C 0.27423 0.14025 0.53496 0.0
C2808 C 0.25584 0.12515 0.51293 0.0
C2809 C 0.26211 0.14789 0.5273 0.0
C2810 C 0.23289 0.12472 0.4949 0.0
C2811 C 0.2358 0.09291 0.49237 0.0
N2812 N 0.25329 0.14023 0.51675 0.0
N2813 N 0.24611 0.1013 0.50075 0.0
H2814 H 0.76384 0.32261 0.48846 0.0
H2815 H 0.72749 0.40282 0.51667 0.0
H2816 H 0.77391 0.36644 0.46686 0.0
H2817 H 0.71588 0.35837 0.53611 0.0
H2818 H 0.74719 0.3903 0.50068 0.0
H2819 H 0.74903 0.3361 0.50828 0.0
C2820 C 0.76309 0.3351 0.48796 0.0
C2821 C 0.77002 0.34337 0.47585 0.0
C2822 C 0.74043 0.38332 0.50856 0.0
C2823 C 0.7529 0.35893 0.49853 0.0
C2824 C 0.72921 0.39047 0.51774 0.0
C2825 C 0.71989 0.38162 0.52766 0.0
C2826 C 0.74237 0.36721 0.50931 0.0
C2827 C 0.72267 0.36566 0.52855 0.0
C2828 C 0.75459 0.3428 0.49929 0.0
C2829 C 0.7687 0.35956 0.47592 0.0
N2830 N 0.73355 0.35897 0.51942 0.0
N2831 N 0.76017 0.36679 0.48698 0.0
H2832 H 0.42332 0.01218 0.235 0.0
H2833 H 0.34288 0.97658 0.26378 0.0
H2834 H 0.3797 0.02163 0.21276 0.0
H2835 H 0.38752 0.96226 0.28077 0.0
H2836 H 0.35562 0.99611 0.24772 0.0
H2837 H 0.40982 0.99686 0.25441 0.0
C2838 C 0.41088 0.01115 0.23425 0.0
C2839 C 0.40267 0.01811 0.22212 0.0
C2840 C 0.3626 0.98878 0.25508 0.0
C2841 C 0.38708 1.00047 0.24438 0.0
C2842 C 0.35533 0.97768 0.26432 0.0
C2843 C 0.36415 0.96766 0.27356 0.0
C2844 C 0.37879 0.98994 0.25514 0.0
C2845 C 0.38025 0.96962 0.27375 0.0
C2846 C 0.40317 0.00236 0.24535 0.0
C2847 C 0.38652 0.01641 0.22185 0.0
N2848 N 0.38704 0.98045 0.26462 0.0
N2849 N 0.37927 0.00768 0.23275 0.0
H2850 H 0.58248 0.49693 0.73216 0.0
H2851 H 0.66902 0.52202 0.75223 0.0
H2852 H 0.62268 0.47758 0.70989 0.0
H2853 H 0.62899 0.53943 0.77633 0.0
H2854 H 0.65241 0.504 0.73823 0.0
H2855 H 0.59939 0.51088 0.74995 0.0
C2856 C 0.59486 0.49548 0.73109 0.0
C2857 C 0.60115 0.48614 0.71941 0.0
C2858 C 0.64727 0.51165 0.74669 0.0
C2859 C 0.62063 0.50221 0.73972 0.0
C2860 C 0.65676 0.52195 0.75471 0.0
C2861 C 0.65039 0.53237 0.7654 0.0
C2862 C 0.63125 0.5118 0.74927 0.0
C2863 C 0.63442 0.53167 0.76816 0.0
C2864 C 0.60452 0.50347 0.74127 0.0
C2865 C 0.6173 0.48469 0.71866 0.0
N2866 N 0.62539 0.52168 0.76004 0.0
N2867 N 0.62646 0.49274 0.72857 0.0
H2868 H 0.46434 0.28485 0.88935 0.0
H2869 H 0.52492 0.21503 0.88638 0.0
H2870 H 0.47726 0.26151 0.8472 0.0
H2871 H 0.50913 0.23668 0.92846 0.0
H2872 H 0.51029 0.23411 0.87146 0.0
H2873 H 0.48341 0.26956 0.90336 0.0
C2874 C 0.47129 0.27662 0.88299 0.0
C2875 C 0.46906 0.27438 0.86708 0.0
C2876 C 0.51015 0.23476 0.88395 0.0
C2877 C 0.49092 0.25667 0.88314 0.0
C2878 C 0.51855 0.2239 0.89249 0.0
C2879 C 0.51815 0.22415 0.90872 0.0
C2880 C 0.50131 0.24597 0.89169 0.0
C2881 C 0.50968 0.23593 0.91598 0.0
C2882 C 0.48218 0.26785 0.89102 0.0
C2883 C 0.47851 0.26358 0.85947 0.0
N2884 N 0.50153 0.24628 0.90743 0.0
N2885 N 0.48893 0.25503 0.8676 0.0
H2886 H 0.53641 0.21558 0.38869 0.0
H2887 H 0.47654 0.28573 0.38262 0.0
H2888 H 0.52404 0.23745 0.3456 0.0
H2889 H 0.49063 0.26455 0.42553 0.0
H2890 H 0.49112 0.26603 0.36849 0.0
H2891 H 0.51695 0.23113 0.40187 0.0
C2892 C 0.52947 0.22351 0.38195 0.0
C2893 C 0.532 0.2253 0.36602 0.0
C2894 C 0.49089 0.26561 0.38099 0.0
C2895 C 0.50972 0.24333 0.38113 0.0
C2896 C 0.48253 0.27684 0.38908 0.0
C2897 C 0.48247 0.27691 0.40532 0.0
C2898 C 0.49926 0.25436 0.38918 0.0
C2899 C 0.49043 0.26506 0.41303 0.0
C2900 C 0.51836 0.23243 0.3895 0.0
C2901 C 0.52256 0.23573 0.3579 0.0
N2902 N 0.49858 0.25437 0.40492 0.0
N2903 N 0.51196 0.24447 0.36557 0.0
H2904 H 0.47571 0.74714 0.33653 0.0
H2905 H 0.50222 0.73077 0.42285 0.0
H2906 H 0.46077 0.77512 0.37499 0.0
H2907 H 0.52458 0.71057 0.38311 0.0
H2908 H 0.48784 0.74796 0.40566 0.0
H2909 H 0.49445 0.73445 0.35334 0.0
C2910 C 0.47647 0.75072 0.3485 0.0
C2911 C 0.46657 0.76213 0.35439 0.0
C2912 C 0.49604 0.73991 0.40071 0.0
C2913 C 0.48795 0.74749 0.3738 0.0
C2914 C 0.50426 0.73007 0.41052 0.0
C2915 C 0.51454 0.71909 0.40442 0.0
C2916 C 0.49795 0.73866 0.38464 0.0
C2917 C 0.51675 0.7188 0.38835 0.0
C2918 C 0.48721 0.74348 0.35809 0.0
C2919 C 0.46816 0.76637 0.36997 0.0
N2920 N 0.50838 0.72828 0.37902 0.0
N2921 N 0.4785 0.7589 0.37919 0.0
H2922 H 0.53639 0.71657 0.88827 0.0
H2923 H 0.47912 0.7889 0.88291 0.0
H2924 H 0.52572 0.73986 0.84548 0.0
H2925 H 0.49044 0.76514 0.92528 0.0
H2926 H 0.49362 0.76934 0.86846 0.0
H2927 H 0.5171 0.73237 0.90138 0.0
C2928 C 0.52986 0.72488 0.88157 0.0
C2929 C 0.53281 0.72697 0.86576 0.0
C2930 C 0.49279 0.76833 0.88091 0.0
C2931 C 0.51073 0.7453 0.88079 0.0
C2932 C 0.48448 0.77948 0.88917 0.0
C2933 C 0.48367 0.77876 0.90537 0.0
C2934 C 0.50036 0.75638 0.8889 0.0
C2935 C 0.49084 0.76627 0.91283 0.0
C2936 C 0.51884 0.73394 0.88909 0.0
C2937 C 0.52389 0.73788 0.85769 0.0
N2938 N 0.49897 0.75568 0.90456 0.0
N2939 N 0.51338 0.74676 0.86533 0.0
H2940 H 0.61515 0.96435 0.71912 0.0
H2941 H 0.6216 0.02269 0.79061 0.0
H2942 H 0.65836 0.97593 0.74115 0.0
H2943 H 0.57881 0.01073 0.76797 0.0
H2944 H 0.63568 0.00783 0.77106 0.0
H2945 H 0.60213 0.98342 0.73528 0.0
C2946 C 0.62194 0.971 0.72726 0.0
C2947 C 0.63787 0.96841 0.72885 0.0
C2948 C 0.62322 0.00859 0.77029 0.0
C2949 C 0.62295 0.99027 0.74756 0.0
C2950 C 0.61517 0.01712 0.78143 0.0
C2951 C 0.59897 0.01787 0.78102 0.0
C2952 C 0.61502 1.00074 0.75867 0.0
C2953 C 0.59128 0.01039 0.76884 0.0
C2954 C 0.61448 0.9819 0.73651 0.0
C2955 C 0.64605 0.97748 0.73956 0.0
N2956 N 0.59935 0.00207 0.75825 0.0
N2957 N 0.63848 0.98789 0.7486 0.0
H2958 H 0.6719 0.49319 0.23851 0.0
H2959 H 0.59251 0.50797 0.28241 0.0
H2960 H 0.63095 0.46586 0.23063 0.0
H2961 H 0.62954 0.54135 0.28168 0.0
H2962 H 0.60623 0.49271 0.26304 0.0
H2963 H 0.65652 0.51132 0.25379 0.0
C2964 C 0.65964 0.49108 0.23984 0.0
C2965 C 0.65274 0.4779 0.23335 0.0
C2966 C 0.6113 0.50345 0.26699 0.0
C2967 C 0.63509 0.49856 0.25101 0.0
C2968 C 0.60348 0.51216 0.27809 0.0
C2969 C 0.60992 0.52593 0.28377 0.0
C2970 C 0.62579 0.50838 0.26163 0.0
C2971 C 0.62413 0.53081 0.27765 0.0
C2972 C 0.65086 0.50146 0.24857 0.0
C2973 C 0.63678 0.47583 0.23543 0.0
N2974 N 0.63167 0.52196 0.26705 0.0
N2975 N 0.62855 0.48593 0.24423 0.0
H2976 H 0.0957 0.33609 0.08313 0.0
H2977 H 0.15368 0.36352 0.01691 0.0
H2978 H 0.08772 0.32423 0.03531 0.0
H2979 H 0.14441 0.38948 0.05849 0.0
H2980 H 0.13334 0.34505 0.02441 0.0
H2981 H 0.11825 0.35109 0.07533 0.0
C2982 C 0.09883 0.33638 0.07101 0.0
C2983 C 0.08967 0.32902 0.05983 0.0
C2984 C 0.13583 0.35482 0.03183 0.0
C2985 C 0.11548 0.34626 0.05086 0.0
C2986 C 0.14738 0.36534 0.02757 0.0
C2987 C 0.15066 0.37812 0.03703 0.0
C2988 C 0.12785 0.35693 0.0458 0.0
C2989 C 0.14219 0.37991 0.05075 0.0
C2990 C 0.11164 0.34506 0.06657 0.0
C2991 C 0.09437 0.32984 0.0443 0.0
N2992 N 0.13128 0.36939 0.05476 0.0
N2993 N 0.10693 0.3384 0.04024 0.0
H2994 H 0.91741 0.34144 0.32912 0.0
H2995 H 0.88125 0.3937 0.26176 0.0
H2996 H 0.92575 0.33272 0.2807 0.0
H2997 H 0.86453 0.39278 0.30875 0.0
H2998 H 0.90067 0.37421 0.26871 0.0
H2999 H 0.90159 0.36369 0.32206 0.0
C3000 C 0.91614 0.34434 0.31701 0.0
C3001 C 0.92281 0.33507 0.30548 0.0
C3002 C 0.89275 0.37834 0.27747 0.0
C3003 C 0.90453 0.3605 0.29732 0.0
C3004 C 0.88166 0.38943 0.27351 0.0
C3005 C 0.87116 0.3948 0.28465 0.0
C3006 C 0.89345 0.37274 0.29271 0.0
C3007 C 0.87227 0.3889 0.29973 0.0
C3008 C 0.907 0.357 0.31298 0.0
C3009 C 0.92074 0.33946 0.28997 0.0
N3010 N 0.8832 0.37823 0.3033 0.0
N3011 N 0.91169 0.35179 0.28633 0.0
H3012 H 0.86743 0.11374 0.52656 0.0
H3013 H 0.91083 0.17764 0.57717 0.0
H3014 H 0.84585 0.13827 0.56425 0.0
H3015 H 0.93119 0.15416 0.53817 0.0
H3016 H 0.8859 0.16579 0.57079 0.0
H3017 H 0.88991 0.13063 0.52889 0.0
C3018 C 0.86736 0.12276 0.53524 0.0
C3019 C 0.8548 0.12447 0.54532 0.0
C3020 C 0.89579 0.16341 0.56351 0.0
C3021 C 0.88057 0.14383 0.54815 0.0
C3022 C 0.90999 0.17024 0.56711 0.0
C3023 C 0.92314 0.16673 0.55831 0.0
C3024 C 0.89477 0.153 0.55106 0.0
C3025 C 0.9214 0.15703 0.54541 0.0
C3026 C 0.88021 0.13242 0.53657 0.0
C3027 C 0.85532 0.13644 0.55629 0.0
N3028 N 0.90755 0.15039 0.54228 0.0
N3029 N 0.86805 0.14555 0.55752 0.0
H3030 H 0.11527 0.09577 0.81332 0.0
H3031 H 0.10983 0.18582 0.79406 0.0
H3032 H 0.14566 0.11959 0.78175 0.0
H3033 H 0.07997 0.16314 0.82692 0.0
H3034 H 0.12063 0.16086 0.78693 0.0
H3035 H 0.10004 0.11939 0.81604 0.0
C3036 C 0.11866 0.10592 0.80682 0.0
C3037 C 0.13188 0.10573 0.7974 0.0
C3038 C 0.11162 0.16127 0.7956 0.0
C3039 C 0.11448 0.13284 0.80052 0.0
C3040 C 0.10542 0.17554 0.79969 0.0
C3041 C 0.0941 0.17659 0.81125 0.0
C3042 C 0.10659 0.14786 0.80321 0.0
C3043 C 0.08871 0.16286 0.81799 0.0
C3044 C 0.10995 0.11941 0.8084 0.0
C3045 C 0.13565 0.11921 0.78922 0.0
N3046 N 0.09515 0.14905 0.814 0.0
N3047 N 0.12707 0.13223 0.79107 0.0
H3048 H 0.06725 0.64209 0.96261 0.0
H3049 H 0.15764 0.63829 0.94494 0.0
H3050 H 0.08988 0.67158 0.92936 0.0
H3051 H 0.134 0.60779 0.97655 0.0
H3052 H 0.13378 0.653 0.94169 0.0
H3053 H 0.0923 0.632 0.97044 0.0
C3054 C 0.07752 0.64656 0.95704 0.0
C3055 C 0.07645 0.65756 0.94516 0.0
C3056 C 0.13385 0.64319 0.94946 0.0
C3057 C 0.10527 0.64591 0.95403 0.0
C3058 C 0.14748 0.63478 0.95134 0.0
C3059 C 0.14779 0.62166 0.96091 0.0
C3060 C 0.1204 0.63845 0.95717 0.0
C3061 C 0.13429 0.61774 0.96897 0.0
C3062 C 0.09185 0.64078 0.96153 0.0
C3063 C 0.09018 0.66305 0.93851 0.0
N3064 N 0.12112 0.62601 0.96681 0.0
N3065 N 0.10403 0.65703 0.94291 0.0
H3066 H 0.58482 0.3335 0.19871 0.0
H3067 H 0.62083 0.41621 0.17906 0.0
H3068 H 0.58387 0.35402 0.15325 0.0
H3069 H 0.63554 0.38914 0.2183 0.0
H3070 H 0.60309 0.39563 0.17179 0.0
H3071 H 0.5991 0.356 0.20824 0.0
C3072 C 0.58737 0.34285 0.19078 0.0
C3073 C 0.5832 0.34184 0.17511 0.0
C3074 C 0.61013 0.39421 0.18203 0.0
C3075 C 0.59956 0.36756 0.18598 0.0
C3076 C 0.62026 0.40598 0.18625 0.0
C3077 C 0.62981 0.40437 0.19928 0.0
C3078 C 0.60937 0.38071 0.19095 0.0
C3079 C 0.62847 0.39083 0.20813 0.0
C3080 C 0.59563 0.35562 0.19622 0.0
C3081 C 0.58691 0.35426 0.16538 0.0
N3082 N 0.61846 0.37949 0.20378 0.0
N3083 N 0.5949 0.36658 0.17097 0.0
H3084 H 0.83947 0.8627 0.44833 0.0
H3085 H 0.93159 0.8637 0.45452 0.0
H3086 H 0.86596 0.89911 0.46982 0.0
H3087 H 0.90659 0.82839 0.4297 0.0
H3088 H 0.90725 0.87505 0.46258 0.0
H3089 H 0.86341 0.84834 0.44382 0.0
C3090 C 0.85029 0.86761 0.45226 0.0
C3091 C 0.85071 0.8822 0.45938 0.0
C3092 C 0.90702 0.86478 0.45543 0.0
C3093 C 0.87813 0.86584 0.45418 0.0
C3094 C 0.92095 0.85827 0.45079 0.0
C3095 C 0.92115 0.84514 0.44127 0.0
C3096 C 0.89305 0.85821 0.45049 0.0
C3097 C 0.90697 0.83855 0.43699 0.0
C3098 C 0.86395 0.85941 0.44963 0.0
C3099 C 0.86506 0.88796 0.46421 0.0
N3100 N 0.89345 0.84523 0.44153 0.0
N3101 N 0.87817 0.87981 0.46145 0.0
H3102 H 0.36056 0.11489 0.72419 0.0
H3103 H 0.42222 0.15905 0.67088 0.0
H3104 H 0.38033 0.09543 0.68274 0.0
H3105 H 0.39684 0.18055 0.70804 0.0
H3106 H 0.41028 0.13422 0.67762 0.0
H3107 H 0.37701 0.13768 0.72091 0.0
C3108 C 0.36845 0.11534 0.71449 0.0
C3109 C 0.36894 0.10331 0.70364 0.0
C3110 C 0.40746 0.14436 0.68438 0.0
C3111 C 0.38778 0.12933 0.69979 0.0
C3112 C 0.41433 0.15851 0.68058 0.0
C3113 C 0.41037 0.17191 0.68879 0.0
C3114 C 0.39666 0.14365 0.69652 0.0
C3115 C 0.40007 0.17054 0.70126 0.0
C3116 C 0.37782 0.12836 0.7126 0.0
C3117 C 0.37944 0.1045 0.69131 0.0
N3118 N 0.39351 0.15672 0.70467 0.0
N3119 N 0.38837 0.11731 0.68967 0.0
H3120 H 0.07891 0.16442 0.37428 0.0
H3121 H 0.05307 0.08534 0.33413 0.0
H3122 H 0.03491 0.14258 0.38288 0.0
H3123 H 0.09931 0.10394 0.33239 0.0
H3124 H 0.04466 0.1084 0.34815 0.0
H3125 H 0.08489 0.14447 0.35541 0.0
C3126 C 0.07044 0.15546 0.37216 0.0
C3127 C 0.05644 0.1551 0.38033 0.0
C3128 C 0.05659 0.10751 0.34453 0.0
C3129 C 0.06328 0.1321 0.35862 0.0
C3130 C 0.06141 0.09439 0.33643 0.0
C3131 C 0.07699 0.09261 0.33221 0.0
C3132 C 0.06741 0.11896 0.34837 0.0
C3133 C 0.08723 0.10473 0.33551 0.0
C3134 C 0.07389 0.14405 0.36134 0.0
C3135 C 0.04589 0.14325 0.37693 0.0
N3136 N 0.08229 0.11731 0.3435 0.0
N3137 N 0.04958 0.13214 0.3664 0.0
H3138 H 0.17673 0.30356 0.59091 0.0
H3139 H 0.08671 0.30927 0.61055 0.0
H3140 H 0.1473 0.34002 0.57378 0.0
H3141 H 0.11944 0.28436 0.63876 0.0
H3142 H 0.10771 0.31666 0.59317 0.0
H3143 H 0.15462 0.29244 0.60446 0.0
C3144 C 0.16558 0.30912 0.58979 0.0
C3145 C 0.16391 0.32286 0.58129 0.0
C3146 C 0.11025 0.30948 0.6031 0.0
C3147 C 0.13857 0.31014 0.59683 0.0
C3148 C 0.09827 0.30519 0.61301 0.0
C3149 C 0.10134 0.29627 0.62622 0.0
C3150 C 0.12539 0.30467 0.6063 0.0
C3151 C 0.11657 0.29135 0.62879 0.0
C3152 C 0.15299 0.30279 0.59762 0.0
C3153 C 0.14915 0.3295 0.58028 0.0
N3154 N 0.12804 0.29564 0.61894 0.0
N3155 N 0.13706 0.32311 0.58803 0.0
H3156 H 0.96411 0.41774 0.82065 0.0
H3157 H 0.95484 0.37174 0.89905 0.0
H3158 H 0.92117 0.41606 0.84594 0.0
H3159 H 0.98327 0.35308 0.86257 0.0
H3160 H 0.94565 0.39166 0.8813 0.0
H3161 H 0.97412 0.39676 0.83704 0.0
C3162 C 0.95673 0.41284 0.82949 0.0
C3163 C 0.94177 0.41865 0.83191 0.0
C3164 C 0.95396 0.38324 0.87722 0.0
C3165 C 0.9533 0.39513 0.85089 0.0
C3166 C 0.95934 0.37196 0.88737 0.0
C3167 C 0.96984 0.3607 0.88228 0.0
C3168 C 0.95931 0.38351 0.86192 0.0
C3169 C 0.97514 0.36152 0.86695 0.0
C3170 C 0.96246 0.40092 0.83883 0.0
C3171 C 0.93273 0.41191 0.84358 0.0
N3172 N 0.96987 0.37278 0.85729 0.0
N3173 N 0.93872 0.40069 0.85277 0.0
H3174 H 0.85136 0.15248 0.08149 0.0
H3175 H 0.88887 0.21864 0.13372 0.0
H3176 H 0.83051 0.19742 0.08714 0.0
H3177 H 0.91168 0.1759 0.12183 0.0
H3178 H 0.86795 0.21199 0.11572 0.0
H3179 H 0.87432 0.16176 0.09491 0.0
C3180 C 0.8517 0.16438 0.08536 0.0
C3181 C 0.83895 0.17414 0.08327 0.0
C3182 C 0.87763 0.20416 0.11698 0.0
C3183 C 0.86514 0.18482 0.09896 0.0
C3184 C 0.88955 0.20794 0.12726 0.0
C3185 C 0.90199 0.19776 0.12941 0.0
C3186 C 0.87816 0.19008 0.10886 0.0
C3187 C 0.90228 0.18407 0.12069 0.0
C3188 C 0.86481 0.16968 0.09307 0.0
C3189 C 0.84007 0.18948 0.0885 0.0
N3190 N 0.89053 0.1806 0.11092 0.0
N3191 N 0.85285 0.19429 0.0963 0.0
H3192 H 0.05709 0.86713 0.61186 0.0
H3193 H 0.03598 0.92033 0.68313 0.0
H3194 H 0.01763 0.8567 0.6405 0.0
H3195 H 0.08273 0.91387 0.66703 0.0
H3196 H 0.02774 0.89866 0.66676 0.0
H3197 H 0.06517 0.88662 0.63053 0.0
C3198 C 0.05004 0.86901 0.62202 0.0
C3199 C 0.03663 0.86026 0.6246 0.0
C3200 C 0.03982 0.9019 0.66701 0.0
C3201 C 0.04588 0.88262 0.64607 0.0
C3202 C 0.04454 0.91423 0.67635 0.0
C3203 C 0.06006 0.91898 0.67641 0.0
C3204 C 0.05064 0.89452 0.65745 0.0
C3205 C 0.07066 0.91064 0.66738 0.0
C3206 C 0.05475 0.88006 0.63275 0.0
C3207 C 0.02804 0.86317 0.63807 0.0
N3208 N 0.0657 0.89899 0.6581 0.0
N3209 N 0.03275 0.8742 0.64828 0.0
H3210 H 0.32304 0.28917 0.90256 0.0
H3211 H 0.40616 0.32088 0.87886 0.0
H3212 H 0.34283 0.33102 0.9211 0.0
H3213 H 0.38768 0.27741 0.86281 0.0
H3214 H 0.38406 0.32365 0.89609 0.0
H3215 H 0.34757 0.28341 0.88997 0.0
C3216 C 0.33262 0.29706 0.90416 0.0
C3217 C 0.33083 0.31069 0.91278 0.0
C3218 C 0.38488 0.31344 0.88891 0.0
C3219 C 0.35895 0.30424 0.89819 0.0
C3220 C 0.39749 0.31185 0.87901 0.0
C3221 C 0.39871 0.29895 0.86925 0.0
C3222 C 0.37329 0.3021 0.889 0.0
C3223 C 0.38718 0.28759 0.87007 0.0
C3224 C 0.34664 0.29377 0.89693 0.0
C3225 C 0.34368 0.32041 0.91454 0.0
N3226 N 0.37488 0.2895 0.87967 0.0
N3227 N 0.35714 0.31709 0.90714 0.0
H3228 H 0.93686 0.66464 0.14169 0.0
H3229 H 0.94928 0.577 0.16774 0.0
H3230 H 0.96748 0.63342 0.11772 0.0
H3231 H 0.90697 0.60202 0.17614 0.0
H3232 H 0.95955 0.59953 0.15409 0.0
H3233 H 0.92931 0.64357 0.15893 0.0
C3234 C 0.94215 0.6534 0.14016 0.0
C3235 C 0.95277 0.65077 0.12817 0.0
C3236 C 0.94808 0.60012 0.15907 0.0
C3237 C 0.94421 0.62665 0.14797 0.0
C3238 C 0.94223 0.58732 0.16696 0.0
C3239 C 0.92718 0.58759 0.17303 0.0
C3240 C 0.93893 0.61338 0.15743 0.0
C3241 C 0.91859 0.60127 0.17157 0.0
C3242 C 0.93777 0.64138 0.14997 0.0
C3243 C 0.95919 0.63594 0.12674 0.0
N3244 N 0.92457 0.61362 0.1639 0.0
N3245 N 0.95481 0.62443 0.13652 0.0
H3246 H 0.65705 0.17044 0.42519 0.0
H3247 H 0.61098 0.22663 0.36808 0.0
H3248 H 0.67197 0.2167 0.41392 0.0
H3249 H 0.59697 0.17997 0.37884 0.0
H3250 H 0.63163 0.22447 0.38731 0.0
H3251 H 0.63301 0.17515 0.41119 0.0
C3252 C 0.65517 0.18169 0.42002 0.0
C3253 C 0.66665 0.19312 0.42056 0.0
C3254 C 0.62395 0.21475 0.38554 0.0
C3255 C 0.63923 0.1985 0.40429 0.0
C3256 C 0.61217 0.21598 0.37455 0.0
C3257 C 0.60233 0.20341 0.37172 0.0
C3258 C 0.6259 0.20086 0.39374 0.0
C3259 C 0.60437 0.18992 0.38051 0.0
C3260 C 0.64145 0.18434 0.41194 0.0
C3261 C 0.66352 0.20748 0.41367 0.0
N3262 N 0.61597 0.18897 0.39103 0.0
N3263 N 0.6502 0.2097 0.40565 0.0
H3264 H 0.31712 0.04618 0.08585 0.0
H3265 H 0.39623 0.05257 0.1319 0.0
H3266 H 0.34805 0.08515 0.08212 0.0
H3267 H 0.35726 0.02856 0.15172 0.0
H3268 H 0.37983 0.0611 0.11063 0.0
H3269 H 0.33246 0.03663 0.10781 0.0
C3270 C 0.32701 0.05279 0.08972 0.0
C3271 C 0.33129 0.06649 0.08212 0.0
C3272 C 0.37488 0.05391 0.1196 0.0
C3273 C 0.34901 0.05544 0.10684 0.0
C3274 C 0.38426 0.04891 0.13169 0.0
C3275 C 0.3781 0.03985 0.14365 0.0
C3276 C 0.35924 0.04966 0.11928 0.0
C3277 C 0.36246 0.03558 0.14276 0.0
C3278 C 0.33575 0.04733 0.10221 0.0
C3279 C 0.34425 0.07457 0.08761 0.0
N3280 N 0.35354 0.04049 0.13075 0.0
N3281 N 0.35273 0.06883 0.09949 0.0
H3282 H 0.86334 0.93814 0.33726 0.0
H3283 H 0.83293 0.95069 0.42343 0.0
H3284 H 0.88563 0.96879 0.36969 0.0
H3285 H 0.82635 0.90804 0.39837 0.0
H3286 H 0.84735 0.96104 0.40144 0.0
H3287 H 0.845 0.93062 0.35741 0.0
C3288 C 0.86427 0.94345 0.34856 0.0
C3289 C 0.87611 0.95405 0.35184 0.0
C3290 C 0.84259 0.94949 0.40072 0.0
C3291 C 0.85507 0.94555 0.37485 0.0
C3292 C 0.83426 0.94358 0.4132 0.0
C3293 C 0.82851 0.9284 0.41279 0.0
C3294 C 0.84499 0.94025 0.38762 0.0
C3295 C 0.83066 0.91975 0.39923 0.0
C3296 C 0.85384 0.93908 0.36005 0.0
C3297 C 0.87676 0.9605 0.36671 0.0
N3298 N 0.83877 0.92579 0.38719 0.0
N3299 N 0.86638 0.95615 0.37768 0.0
H3300 H 0.32843 0.07646 0.66007 0.0
H3301 H 0.27656 0.14073 0.61804 0.0
H3302 H 0.29122 0.10122 0.68216 0.0
H3303 H 0.31785 0.12106 0.59818 0.0
H3304 H 0.27917 0.12311 0.64002 0.0
H3305 H 0.32201 0.08936 0.63565 0.0
C3306 C 0.31876 0.08439 0.65972 0.0
C3307 C 0.31046 0.08791 0.67319 0.0
C3308 C 0.28759 0.12257 0.63078 0.0
C3309 C 0.30312 0.10276 0.6454 0.0
C3310 C 0.28608 0.13262 0.61822 0.0
C3311 C 0.29709 0.13251 0.60633 0.0
C3312 C 0.30017 0.11232 0.63145 0.0
C3313 C 0.30917 0.12168 0.60716 0.0
C3314 C 0.31515 0.09182 0.64581 0.0
C3315 C 0.29806 0.09831 0.67209 0.0
N3316 N 0.31044 0.11211 0.61954 0.0
N3317 N 0.29484 0.10544 0.6585 0.0
H3318 H 0.10083 0.52963 0.87329 0.0
H3319 H 0.17309 0.574 0.91073 0.0
H3320 H 0.13392 0.55566 0.84655 0.0
H3321 H 0.13817 0.54995 0.93699 0.0
H3322 H 0.1605 0.56535 0.88682 0.0
H3323 H 0.11603 0.5348 0.89652 0.0
C3324 C 0.11136 0.53631 0.87227 0.0
C3325 C 0.11603 0.54232 0.85796 0.0
C3326 C 0.15567 0.5619 0.89783 0.0
C3327 C 0.13346 0.54839 0.88455 0.0
C3328 C 0.16287 0.56682 0.91147 0.0
C3329 C 0.15661 0.56281 0.92588 0.0
C3330 C 0.14216 0.5529 0.89865 0.0
C3331 C 0.14335 0.55346 0.92615 0.0
C3332 C 0.12003 0.5393 0.88555 0.0
C3333 C 0.12981 0.55088 0.85735 0.0
N3334 N 0.13655 0.54889 0.91278 0.0
N3335 N 0.13798 0.55375 0.87046 0.0
H3336 H 0.20701 0.90114 0.18391 0.0
H3337 H 0.17866 0.88019 0.09885 0.0
H3338 H 0.16795 0.9231 0.16208 0.0
H3339 H 0.22056 0.86232 0.11915 0.0
H3340 H 0.17538 0.89715 0.12114 0.0
H3341 H 0.21311 0.88829 0.15962 0.0
C3342 C 0.19978 0.90339 0.17393 0.0
C3343 C 0.18685 0.9131 0.17506 0.0
C3344 C 0.18536 0.88962 0.12068 0.0
C3345 C 0.1937 0.89823 0.14716 0.0
C3346 C 0.18723 0.87988 0.10796 0.0
C3347 C 0.19985 0.8697 0.10718 0.0
C3348 C 0.19611 0.88913 0.1328 0.0
C3349 C 0.21062 0.86991 0.11929 0.0
C3350 C 0.20329 0.89603 0.16005 0.0
C3351 C 0.17801 0.91569 0.16172 0.0
N3352 N 0.20844 0.87937 0.13165 0.0
N3353 N 0.18149 0.90813 0.14836 0.0
H3354 H 0.60415 0.97444 0.1263 0.0
H3355 H 0.67817 0.93263 0.0901 0.0
H3356 H 0.64196 0.95754 0.15409 0.0
H3357 H 0.64265 0.95508 0.06322 0.0
H3358 H 0.66595 0.94251 0.11374 0.0
H3359 H 0.61891 0.96839 0.10306 0.0
C3360 C 0.61562 0.96959 0.12753 0.0
C3361 C 0.62178 0.96642 0.14218 0.0
C3362 C 0.66094 0.94536 0.10264 0.0
C3363 C 0.63873 0.95927 0.11555 0.0
C3364 C 0.66791 0.93973 0.08916 0.0
C3365 C 0.66136 0.94292 0.07466 0.0
C3366 C 0.64731 0.95416 0.10158 0.0
C3367 C 0.64806 0.95219 0.07413 0.0
C3368 C 0.62406 0.96612 0.11424 0.0
C3369 C 0.63674 0.96016 0.14303 0.0
N3370 N 0.64144 0.95737 0.08736 0.0
N3371 N 0.64465 0.95665 0.1299 0.0
H3372 H 0.28235 0.36649 0.88392 0.0
H3373 H 0.33821 0.43219 0.85003 0.0
H3374 H 0.32239 0.38428 0.90774 0.0
H3375 H 0.30217 0.4101 0.82354 0.0
H3376 H 0.32971 0.41786 0.87287 0.0
H3377 H 0.28681 0.38529 0.86318 0.0
C3378 C 0.29198 0.37442 0.88486 0.0
C3379 C 0.3021 0.37369 0.8975 0.0
C3380 C 0.32356 0.41628 0.86209 0.0
C3381 C 0.30726 0.39522 0.87387 0.0
C3382 C 0.32836 0.42453 0.84906 0.0
C3383 C 0.32102 0.42221 0.83479 0.0
C3384 C 0.31132 0.40565 0.86086 0.0
C3385 C 0.3083 0.41212 0.83426 0.0
C3386 C 0.29454 0.38514 0.87302 0.0
C3387 C 0.31438 0.38429 0.89813 0.0
N3388 N 0.30395 0.40412 0.84705 0.0
N3389 N 0.31665 0.39454 0.88647 0.0
H3390 H 0.71568 0.13782 0.38438 0.0
H3391 H 0.65134 0.08457 0.34574 0.0
H3392 H 0.67525 0.12173 0.40875 0.0
H3393 H 0.69699 0.08995 0.3264 0.0
H3394 H 0.65994 0.09814 0.36898 0.0
H3395 H 0.7091 0.12058 0.36286 0.0
C3396 C 0.70548 0.13062 0.38525 0.0
C3397 C 0.69597 0.13129 0.39836 0.0
C3398 C 0.66813 0.09619 0.35972 0.0
C3399 C 0.68833 0.11164 0.37379 0.0
C3400 C 0.66322 0.08843 0.34646 0.0
C3401 C 0.67342 0.08617 0.33406 0.0
C3402 C 0.68328 0.10197 0.36053 0.0
C3403 C 0.68871 0.09142 0.33566 0.0
C3404 C 0.70176 0.12075 0.37299 0.0
C3405 C 0.68292 0.12165 0.39887 0.0
N3406 N 0.69312 0.09924 0.34856 0.0
N3407 N 0.67942 0.11234 0.38672 0.0
H3408 H 0.13689 0.89152 0.529 0.0
H3409 H 0.09181 0.83032 0.58123 0.0
H3410 H 0.15706 0.86937 0.56889 0.0
H3411 H 0.07435 0.84807 0.538 0.0
H3412 H 0.1166 0.84286 0.57594 0.0
H3413 H 0.11454 0.87439 0.53121 0.0
C3414 C 0.13668 0.88299 0.53815 0.0
C3415 C 0.14882 0.88198 0.54884 0.0
C3416 C 0.1074 0.84384 0.56752 0.0
C3417 C 0.12322 0.86235 0.55151 0.0
C3418 C 0.09326 0.83662 0.57051 0.0
C3419 C 0.08091 0.83828 0.56014 0.0
C3420 C 0.10916 0.85286 0.55411 0.0
C3421 C 0.08347 0.8466 0.54643 0.0
C3422 C 0.12392 0.87318 0.53941 0.0
C3423 C 0.14793 0.87064 0.56043 0.0
N3424 N 0.09722 0.85371 0.54391 0.0
N3425 N 0.1353 0.86138 0.56154 0.0
H3426 H 0.91559 0.82828 0.8036 0.0
H3427 H 0.87994 0.91018 0.82718 0.0
H3428 H 0.92267 0.85047 0.84773 0.0
H3429 H 0.86817 0.88663 0.78481 0.0
H3430 H 0.8984 0.88988 0.83312 0.0
H3431 H 0.90126 0.85102 0.79481 0.0
C3432 C 0.91437 0.83803 0.81137 0.0
C3433 C 0.92024 0.8374 0.8265 0.0
C3434 C 0.89186 0.88914 0.82248 0.0
C3435 C 0.90373 0.86339 0.81652 0.0
C3436 C 0.88127 0.90075 0.81906 0.0
C3437 C 0.87235 0.90005 0.80553 0.0
C3438 C 0.89359 0.87661 0.81234 0.0
C3439 C 0.87474 0.88759 0.79541 0.0
C3440 C 0.9061 0.85097 0.80635 0.0
C3441 C 0.91827 0.85037 0.83602 0.0
N3442 N 0.88506 0.87628 0.79908 0.0
N3443 N 0.91009 0.86276 0.83091 0.0
H3444 H 0.83648 0.63744 0.06927 0.0
H3445 H 0.92362 0.66429 0.05461 0.0
H3446 H 0.86644 0.61608 0.03558 0.0
H3447 H 0.89724 0.67641 0.09518 0.0
H3448 H 0.90111 0.65064 0.04438 0.0
H3449 H 0.85702 0.65561 0.07568 0.0
C3450 C 0.84734 0.63664 0.06309 0.0
C3451 C 0.84979 0.62508 0.05197 0.0
C3452 C 0.90021 0.65643 0.05544 0.0
C3453 C 0.8734 0.64594 0.05931 0.0
C3454 C 0.91303 0.66431 0.06127 0.0
C3455 C 0.91238 0.67139 0.07588 0.0
C3456 C 0.8866 0.65571 0.06422 0.0
C3457 C 0.89832 0.67102 0.08394 0.0
C3458 C 0.85907 0.64703 0.0668 0.0
C3459 C 0.86408 0.62473 0.04431 0.0
N3460 N 0.88603 0.66321 0.07805 0.0
N3461 N 0.87539 0.63495 0.04819 0.0
H3462 H 0.07689 0.66155 0.32984 0.0
H3463 H 0.14206 0.61863 0.27982 0.0
H3464 H 0.10556 0.68428 0.29596 0.0
H3465 H 0.12076 0.59887 0.32037 0.0
H3466 H 0.12527 0.64126 0.28247 0.0
H3467 H 0.08934 0.63691 0.32329 0.0
C3468 C 0.08562 0.66131 0.32087 0.0
C3469 C 0.09032 0.67498 0.31355 0.0
C3470 C 0.1242 0.6319 0.29071 0.0
C3471 C 0.1046 0.64696 0.30605 0.0
C3472 C 0.13376 0.61897 0.28918 0.0
C3473 C 0.13294 0.60693 0.29999 0.0
C3474 C 0.1137 0.63274 0.30308 0.0
C3475 C 0.12192 0.60797 0.31187 0.0
C3476 C 0.09278 0.64729 0.3172 0.0
C3477 C 0.10171 0.67404 0.30204 0.0
N3478 N 0.1128 0.62068 0.31314 0.0
N3479 N 0.10852 0.6603 0.29871 0.0
H3480 H 0.13083 0.10784 0.47433 0.0
H3481 H 0.0935 0.18057 0.43123 0.0
H3482 H 0.15801 0.14269 0.45121 0.0
H3483 H 0.0676 0.14737 0.45796 0.0
H3484 H 0.11751 0.16829 0.44004 0.0
H3485 H 0.10776 0.12346 0.47005 0.0
C3486 C 0.13198 0.11884 0.46848 0.0
C3487 C 0.14637 0.12389 0.46303 0.0
C3488 C 0.10656 0.16382 0.44409 0.0
C3489 C 0.11992 0.14183 0.45793 0.0
C3490 C 0.09286 0.17086 0.43911 0.0
C3491 C 0.07852 0.1649 0.44373 0.0
C3492 C 0.10585 0.15074 0.45373 0.0
C3493 C 0.07838 0.15227 0.45394 0.0
C3494 C 0.11878 0.12778 0.46602 0.0
C3495 C 0.14714 0.1383 0.45557 0.0
N3496 N 0.09179 0.14556 0.45846 0.0
N3497 N 0.13409 0.14669 0.4531 0.0
H3498 H 0.62358 0.90685 0.68179 0.0
H3499 H 0.60641 0.82032 0.70797 0.0
H3500 H 0.64392 0.88574 0.72214 0.0
H3501 H 0.58142 0.84306 0.67131 0.0
H3502 H 0.61906 0.84466 0.7142 0.0
H3503 H 0.60706 0.88424 0.67858 0.0
C3504 C 0.62452 0.8975 0.69005 0.0
C3505 C 0.63527 0.89815 0.70219 0.0
C3506 C 0.61072 0.84442 0.70489 0.0
C3507 C 0.61636 0.87214 0.69851 0.0
C3508 C 0.60348 0.83049 0.70129 0.0
C3509 C 0.59294 0.82963 0.68899 0.0
C3510 C 0.60755 0.85761 0.69602 0.0
C3511 C 0.5895 0.84321 0.68086 0.0
C3512 C 0.61503 0.88459 0.68821 0.0
C3513 C 0.63586 0.88572 0.71258 0.0
N3514 N 0.59693 0.85663 0.6844 0.0
N3515 N 0.62664 0.87317 0.71042 0.0
H3516 H 0.93463 0.35897 0.9614 0.0
H3517 H 0.84822 0.37184 0.93283 0.0
H3518 H 0.91441 0.33349 0.92361 0.0
H3519 H 0.86708 0.39286 0.97394 0.0
H3520 H 0.8716 0.3563 0.93032 0.0
H3521 H 0.90938 0.36987 0.96732 0.0
C3522 C 0.92482 0.35554 0.95442 0.0
C3523 C 0.92665 0.34542 0.94188 0.0
C3524 C 0.87058 0.36419 0.93998 0.0
C3525 C 0.89765 0.35803 0.94852 0.0
C3526 C 0.85724 0.37312 0.94141 0.0
C3527 C 0.85575 0.3838 0.95354 0.0
C3528 C 0.88262 0.36603 0.95068 0.0
C3529 C 0.86776 0.38484 0.96437 0.0
C3530 C 0.91038 0.36177 0.95783 0.0
C3531 C 0.91351 0.34127 0.93336 0.0
N3532 N 0.88075 0.37619 0.96259 0.0
N3533 N 0.89958 0.34776 0.93671 0.0
H3534 H 0.39964 0.68279 0.21055 0.0
H3535 H 0.38131 0.59744 0.18187 0.0
H3536 H 0.42386 0.66091 0.17287 0.0
H3537 H 0.36131 0.61758 0.22288 0.0
H3538 H 0.39853 0.61964 0.17966 0.0
H3539 H 0.38733 0.65821 0.21665 0.0
C3540 C 0.40252 0.67274 0.20366 0.0
C3541 C 0.41267 0.67392 0.19107 0.0
C3542 C 0.39049 0.61915 0.18923 0.0
C3543 C 0.39842 0.64572 0.19789 0.0
C3544 C 0.3806 0.60649 0.19049 0.0
C3545 C 0.36971 0.60573 0.20249 0.0
C3546 C 0.38942 0.63125 0.19997 0.0
C3547 C 0.36945 0.61773 0.21339 0.0
C3548 C 0.39548 0.65869 0.20717 0.0
C3549 C 0.41608 0.6605 0.18266 0.0
N3550 N 0.37904 0.63007 0.21177 0.0
N3551 N 0.40879 0.64699 0.18608 0.0
H3552 H 0.03305 0.5819 0.82197 0.0
H3553 H 0.05253 0.63193 0.89593 0.0
H3554 H 0.07851 0.58339 0.84241 0.0
H3555 H 0.01744 0.64679 0.86374 0.0
H3556 H 0.06032 0.61185 0.87774 0.0
H3557 H 0.02557 0.60418 0.83787 0.0
C3558 C 0.04153 0.58705 0.8296 0.0
C3559 C 0.05641 0.58072 0.8309 0.0
C3560 C 0.05092 0.61951 0.87464 0.0
C3561 C 0.0478 0.60585 0.84934 0.0
C3562 C 0.04635 0.63089 0.88508 0.0
C3563 C 0.03428 0.64105 0.88136 0.0
C3564 C 0.04322 0.61805 0.86045 0.0
C3565 C 0.02681 0.6392 0.86706 0.0
C3566 C 0.03724 0.59972 0.83868 0.0
C3567 C 0.06692 0.58786 0.84099 0.0
N3568 N 0.03133 0.62784 0.85714 0.0
N3569 N 0.06234 0.59987 0.84999 0.0
H3570 H 0.17698 0.78574 0.09356 0.0
H3571 H 0.09608 0.82115 0.12012 0.0
H3572 H 0.15982 0.83013 0.07863 0.0
H3573 H 0.11374 0.77751 0.13659 0.0
H3574 H 0.11785 0.82304 0.1024 0.0
H3575 H 0.15243 0.78089 0.10655 0.0
C3576 C 0.16797 0.79438 0.09281 0.0
C3577 C 0.17055 0.80845 0.08512 0.0
C3578 C 0.11694 0.81299 0.10979 0.0
C3579 C 0.14242 0.80301 0.10014 0.0
C3580 C 0.1045 0.8119 0.11996 0.0
C3581 C 0.10314 0.79921 0.12999 0.0
C3582 C 0.12822 0.80135 0.10965 0.0
C3583 C 0.11436 0.78754 0.12913 0.0
C3584 C 0.15395 0.79161 0.10028 0.0
C3585 C 0.15839 0.81916 0.08446 0.0
N3586 N 0.1265 0.78895 0.11923 0.0
N3587 N 0.14493 0.81629 0.09203 0.0
H3588 H 0.93707 0.83725 0.36696 0.0
H3589 H 0.95055 0.92519 0.34201 0.0
H3590 H 0.9688 0.86768 0.39054 0.0
H3591 H 0.91071 0.89827 0.32873 0.0
H3592 H 0.96076 0.90272 0.3558 0.0
H3593 H 0.93085 0.85803 0.34901 0.0
C3594 C 0.94287 0.84826 0.3683 0.0
C3595 C 0.95337 0.85075 0.38042 0.0
C3596 C 0.94987 0.9017 0.34972 0.0
C3597 C 0.94623 0.87466 0.35979 0.0
C3598 C 0.94406 0.91449 0.34175 0.0
C3599 C 0.92966 0.91366 0.33429 0.0
C3600 C 0.94132 0.88794 0.35011 0.0
C3601 C 0.92179 0.89949 0.33441 0.0
C3602 C 0.93926 0.86014 0.35803 0.0
C3603 C 0.96056 0.86527 0.38145 0.0
N3604 N 0.92768 0.88722 0.34226 0.0
N3605 N 0.95679 0.87672 0.37132 0.0
H3606 H 0.85087 0.65074 0.58318 0.0
H3607 H 0.88904 0.71872 0.6325 0.0
H3608 H 0.83292 0.69728 0.58367 0.0
H3609 H 0.91011 0.67404 0.62558 0.0
H3610 H 0.86896 0.71169 0.61376 0.0
H3611 H 0.87345 0.65964 0.59752 0.0
C3612 C 0.85177 0.66288 0.58611 0.0
C3613 C 0.83991 0.67324 0.58231 0.0
C3614 C 0.87807 0.7035 0.61627 0.0
C3615 C 0.86566 0.6835 0.59899 0.0
C3616 C 0.88951 0.7075 0.62698 0.0
C3617 C 0.90122 0.69692 0.63072 0.0
C3618 C 0.8783 0.68879 0.60934 0.0
C3619 C 0.90128 0.68255 0.62317 0.0
C3620 C 0.86467 0.66796 0.59434 0.0
C3621 C 0.84176 0.68886 0.58639 0.0
N3622 N 0.88996 0.67888 0.61295 0.0
N3623 N 0.85428 0.69348 0.59468 0.0
H3624 H 0.07636 0.33746 0.13663 0.0
H3625 H 0.05621 0.42185 0.16842 0.0
H3626 H 0.03952 0.36548 0.11805 0.0
H3627 H 0.09989 0.39904 0.17607 0.0
H3628 H 0.04725 0.39922 0.15403 0.0
H3629 H 0.08234 0.35794 0.15502 0.0
C3630 C 0.06942 0.34787 0.13649 0.0
C3631 C 0.05749 0.3498 0.12566 0.0
C3632 C 0.05873 0.39913 0.159 0.0
C3633 C 0.06432 0.37333 0.1468 0.0
C3634 C 0.06384 0.41199 0.16732 0.0
C3635 C 0.07889 0.4124 0.17338 0.0
C3636 C 0.06869 0.38651 0.15686 0.0
C3637 C 0.08824 0.39929 0.17152 0.0
C3638 C 0.07289 0.35958 0.14699 0.0
C3639 C 0.04889 0.36354 0.12611 0.0
N3640 N 0.08302 0.38692 0.16337 0.0
N3641 N 0.05251 0.37482 0.13647 0.0
H3642 H 0.33962 0.83502 0.41388 0.0
H3643 H 0.39776 0.76752 0.39117 0.0
H3644 H 0.33311 0.78878 0.43147 0.0
H3645 H 0.38536 0.80475 0.36038 0.0
H3646 H 0.37779 0.77644 0.40937 0.0
H3647 H 0.361 0.82567 0.39805 0.0
C3648 C 0.34285 0.82295 0.41465 0.0
C3649 C 0.33447 0.81264 0.42395 0.0
C3650 C 0.37947 0.78256 0.39858 0.0
C3651 C 0.35893 0.80189 0.40577 0.0
C3652 C 0.39081 0.77749 0.38821 0.0
C3653 C 0.39317 0.78535 0.3742 0.0
C3654 C 0.37078 0.79579 0.39506 0.0
C3655 C 0.38387 0.79824 0.37096 0.0
C3656 C 0.35497 0.81761 0.40549 0.0
C3657 C 0.3392 0.7971 0.42439 0.0
N3658 N 0.37321 0.80314 0.38136 0.0
N3659 N 0.35112 0.79217 0.41538 0.0
H3660 H 0.9298 0.16206 0.62901 0.0
H3661 H 0.9501 0.07935 0.6647 0.0
H3662 H 0.9691 0.1352 0.61412 0.0
H3663 H 0.9048 0.10008 0.66695 0.0
H3664 H 0.95931 0.10178 0.65012 0.0
H3665 H 0.92265 0.14138 0.6467 0.0
C3666 C 0.93701 0.15184 0.6295 0.0
C3667 C 0.95004 0.15034 0.61996 0.0
C3668 C 0.9474 0.10145 0.65393 0.0
C3669 C 0.94187 0.12657 0.64035 0.0
C3670 C 0.94214 0.08872 0.66236 0.0
C3671 C 0.9266 0.08779 0.66699 0.0
C3672 C 0.9371 0.11343 0.65028 0.0
C3673 C 0.91683 0.10026 0.66355 0.0
C3674 C 0.93287 0.14002 0.63962 0.0
C3675 C 0.95891 0.13681 0.62119 0.0
N3676 N 0.92223 0.11253 0.65537 0.0
N3677 N 0.95465 0.12542 0.63119 0.0
H3678 H 0.59572 0.68311 0.88229 0.0
H3679 H 0.68196 0.70999 0.89863 0.0
H3680 H 0.61589 0.72418 0.86245 0.0
H3681 H 0.65982 0.67292 0.92355 0.0
H3682 H 0.65721 0.71667 0.88697 0.0
H3683 H 0.61828 0.68036 0.89896 0.0
C3684 C 0.60485 0.69163 0.88152 0.0
C3685 C 0.60399 0.70381 0.87082 0.0
C3686 C 0.65768 0.70719 0.89513 0.0
C3687 C 0.62993 0.70067 0.88987 0.0
C3688 C 0.67183 0.70336 0.90179 0.0
C3689 C 0.67297 0.69076 0.91195 0.0
C3690 C 0.64458 0.69825 0.89846 0.0
C3691 C 0.65945 0.68269 0.91574 0.0
C3692 C 0.61772 0.69007 0.89109 0.0
C3693 C 0.6161 0.71457 0.87045 0.0
N3694 N 0.64584 0.68643 0.90882 0.0
N3695 N 0.62865 0.71265 0.87971 0.0
H3696 H 0.34117 0.5854 0.58725 0.0
H3697 H 0.35909 0.52279 0.65266 0.0
H3698 H 0.31823 0.5411 0.58829 0.0
H3699 H 0.39191 0.55707 0.63732 0.0
H3700 H 0.34118 0.53142 0.63236 0.0
H3701 H 0.35661 0.57758 0.60954 0.0
C3702 C 0.33917 0.57413 0.59231 0.0
C3703 C 0.32847 0.56383 0.58579 0.0
C3704 C 0.35233 0.53699 0.63347 0.0
C3705 C 0.3462 0.55481 0.61127 0.0
C3706 C 0.36254 0.53208 0.64501 0.0
C3707 C 0.37706 0.53914 0.6466 0.0
C3708 C 0.35656 0.54925 0.62371 0.0
C3709 C 0.38092 0.55117 0.63642 0.0
C3710 C 0.34809 0.56963 0.60496 0.0
C3711 C 0.32643 0.54936 0.59287 0.0
N3712 N 0.3707 0.5559 0.62549 0.0
N3713 N 0.33527 0.54524 0.60522 0.0
H3714 H 0.81531 0.41325 0.8991 0.0
H3715 H 0.88202 0.4687 0.86666 0.0
H3716 H 0.83548 0.45054 0.92541 0.0
H3717 H 0.86499 0.42829 0.8429 0.0
H3718 H 0.86239 0.46471 0.88672 0.0
H3719 H 0.83047 0.42134 0.87667 0.0
C3720 C 0.82271 0.42329 0.9001 0.0
C3721 C 0.82426 0.43109 0.91423 0.0
C3722 C 0.8629 0.45679 0.87704 0.0
C3723 C 0.84181 0.44031 0.88864 0.0
C3724 C 0.87409 0.45908 0.86559 0.0
C3725 C 0.87527 0.44872 0.85317 0.0
C3726 C 0.85279 0.4441 0.876 0.0
C3727 C 0.86464 0.43648 0.85235 0.0
C3728 C 0.83145 0.42786 0.88731 0.0
C3729 C 0.83404 0.44405 0.9148 0.0
N3730 N 0.85394 0.43447 0.86363 0.0
N3731 N 0.84256 0.44815 0.90226 0.0
H3732 H 0.30416 0.61033 0.08606 0.0
H3733 H 0.30183 0.59422 0.17701 0.0
H3734 H 0.2851 0.6422 0.11937 0.0
H3735 H 0.33046 0.56836 0.14537 0.0
H3736 H 0.29184 0.60919 0.15536 0.0
H3737 H 0.3101 0.59239 0.10702 0.0
C3738 C 0.30106 0.61351 0.09776 0.0
C3739 C 0.2942 0.62788 0.10096 0.0
C3740 C 0.30022 0.60017 0.15313 0.0
C3741 C 0.30101 0.60732 0.12502 0.0
C3742 C 0.30592 0.59155 0.16549 0.0
C3743 C 0.31716 0.58007 0.16306 0.0
C3744 C 0.30571 0.59731 0.13815 0.0
C3745 C 0.32189 0.57713 0.14782 0.0
C3746 C 0.30452 0.60326 0.10972 0.0
C3747 C 0.29046 0.63131 0.11636 0.0
N3748 N 0.31621 0.58577 0.13595 0.0
N3749 N 0.29397 0.62113 0.12782 0.0
H3750 H 0.1711 0.09685 0.40003 0.0
H3751 H 0.10928 0.03604 0.37174 0.0
H3752 H 0.16053 0.0561 0.42678 0.0
H3753 H 0.13741 0.06151 0.33939 0.0
H3754 H 0.12633 0.0446 0.39273 0.0
H3755 H 0.1573 0.08551 0.378 0.0
C3756 C 0.16604 0.08547 0.40121 0.0
C3757 C 0.16697 0.07743 0.41526 0.0
C3758 C 0.12883 0.04816 0.381 0.0
C3759 C 0.15091 0.06458 0.39029 0.0
C3760 C 0.1191 0.04331 0.36904 0.0
C3761 C 0.12194 0.04805 0.3538 0.0
C3762 C 0.14124 0.05811 0.37772 0.0
C3763 C 0.13483 0.0575 0.35095 0.0
C3764 C 0.15818 0.079 0.38866 0.0
C3765 C 0.16015 0.0627 0.41616 0.0
N3766 N 0.14388 0.06239 0.36282 0.0
N3767 N 0.15222 0.05685 0.40393 0.0
H3768 H 0.18544 0.39018 0.58721 0.0
H3769 H 0.19743 0.41789 0.67444 0.0
H3770 H 0.21784 0.36854 0.61835 0.0
H3771 H 0.15461 0.42387 0.64957 0.0
H3772 H 0.20841 0.40498 0.65182 0.0
H3773 H 0.17748 0.40755 0.608 0.0
C3774 C 0.19104 0.38919 0.59836 0.0
C3775 C 0.20227 0.37779 0.60107 0.0
C3776 C 0.19669 0.4093 0.65128 0.0
C3777 C 0.19323 0.39775 0.62487 0.0
C3778 C 0.19042 0.41678 0.66413 0.0
C3779 C 0.175 0.42188 0.66395 0.0
C3780 C 0.18757 0.4071 0.63806 0.0
C3781 C 0.1665 0.42004 0.65026 0.0
C3782 C 0.18642 0.39909 0.61022 0.0
C3783 C 0.20907 0.37707 0.61578 0.0
N3784 N 0.17287 0.41275 0.63788 0.0
N3785 N 0.20443 0.38691 0.62715 0.0
H3786 H 0.66525 0.41715 0.59094 0.0
H3787 H 0.63702 0.48601 0.64553 0.0
H3788 H 0.67855 0.4645 0.58247 0.0
H3789 H 0.61143 0.44378 0.63848 0.0
H3790 H 0.65575 0.47747 0.62593 0.0
H3791 H 0.64945 0.4258 0.61264 0.0
C3792 C 0.66509 0.42934 0.5938 0.0
C3793 C 0.67314 0.44014 0.58476 0.0
C3794 C 0.646 0.47013 0.62872 0.0
C3795 C 0.65496 0.45008 0.60957 0.0
C3796 C 0.63532 0.47498 0.63985 0.0
C3797 C 0.62258 0.46565 0.64355 0.0
C3798 C 0.64407 0.45571 0.62152 0.0
C3799 C 0.62098 0.45144 0.63589 0.0
C3800 C 0.65595 0.43427 0.60612 0.0
C3801 C 0.67244 0.45579 0.58905 0.0
N3802 N 0.63163 0.44687 0.62533 0.0
N3803 N 0.66343 0.46032 0.60113 0.0
H3804 H 0.28369 0.87119 0.38852 0.0
H3805 H 0.33853 0.93725 0.35373 0.0
H3806 H 0.32454 0.8886 0.41122 0.0
H3807 H 0.30107 0.91622 0.32839 0.0
H3808 H 0.33087 0.92252 0.3766 0.0
H3809 H 0.28742 0.89034 0.36796 0.0
C3810 C 0.29336 0.8791 0.38925 0.0
C3811 C 0.30391 0.87816 0.40152 0.0
C3812 C 0.32422 0.92125 0.36608 0.0
C3813 C 0.30823 0.9001 0.3781 0.0
C3814 C 0.32855 0.92974 0.35303 0.0
C3815 C 0.32057 0.92784 0.33905 0.0
C3816 C 0.31182 0.91079 0.36515 0.0
C3817 C 0.30769 0.91793 0.33887 0.0
C3818 C 0.29549 0.89002 0.37751 0.0
C3819 C 0.3162 0.88876 0.4019 0.0
N3820 N 0.30382 0.90967 0.35165 0.0
N3821 N 0.31806 0.89921 0.39034 0.0
H3822 H 0.69747 0.58842 0.82735 0.0
H3823 H 0.68233 0.61635 0.91411 0.0
H3824 H 0.65489 0.58052 0.85208 0.0
H3825 H 0.71829 0.63541 0.88526 0.0
H3826 H 0.67501 0.59905 0.89314 0.0
H3827 H 0.70798 0.60138 0.85018 0.0
C3828 C 0.69041 0.58916 0.83766 0.0
C3829 C 0.6752 0.58347 0.83776 0.0
C3830 C 0.68457 0.60693 0.89143 0.0
C3831 C 0.68719 0.59833 0.86388 0.0
C3832 C 0.6888 0.61682 0.90341 0.0
C3833 C 0.70087 0.62749 0.90141 0.0
C3834 C 0.69248 0.6076 0.8773 0.0
C3835 C 0.70885 0.62745 0.88728 0.0
C3836 C 0.6964 0.59666 0.85064 0.0
C3837 C 0.66662 0.58482 0.85144 0.0
N3838 N 0.70446 0.61771 0.87572 0.0
N3839 N 0.6727 0.59218 0.86391 0.0
H3840 H 0.66187 0.36338 0.57324 0.0
H3841 H 0.57675 0.33745 0.5502 0.0
H3842 H 0.63716 0.3827 0.53447 0.0
H3843 H 0.60401 0.31466 0.58519 0.0
H3844 H 0.59939 0.35249 0.54268 0.0
H3845 H 0.64154 0.3442 0.5764 0.0
C3846 C 0.65218 0.36355 0.56532 0.0
C3847 C 0.65115 0.37479 0.55366 0.0
C3848 C 0.6005 0.34405 0.55185 0.0
C3849 C 0.6277 0.35277 0.55727 0.0
C3850 C 0.58757 0.33542 0.55615 0.0
C3851 C 0.58842 0.32488 0.56848 0.0
C3852 C 0.61439 0.34226 0.56002 0.0
C3853 C 0.60278 0.32269 0.57567 0.0
C3854 C 0.64058 0.35253 0.56711 0.0
C3855 C 0.63839 0.3743 0.54366 0.0
N3856 N 0.61513 0.33146 0.57148 0.0
N3857 N 0.62708 0.36358 0.5458 0.0
H3858 H 0.41253 0.32106 0.78363 0.0
H3859 H 0.38044 0.4005 0.81791 0.0
H3860 H 0.42491 0.33916 0.82845 0.0
H3861 H 0.36565 0.3815 0.77421 0.0
H3862 H 0.3992 0.37971 0.82036 0.0
H3863 H 0.39813 0.34473 0.77835 0.0
C3864 C 0.41243 0.33011 0.79228 0.0
C3865 C 0.41982 0.32802 0.8066 0.0
C3866 C 0.39194 0.3801 0.81018 0.0
C3867 C 0.40318 0.35513 0.80064 0.0
C3868 C 0.38117 0.39198 0.80876 0.0
C3869 C 0.37132 0.39268 0.79589 0.0
C3870 C 0.39289 0.36872 0.79867 0.0
C3871 C 0.37293 0.38137 0.78437 0.0
C3872 C 0.40414 0.34361 0.78926 0.0
C3873 C 0.41934 0.3402 0.8173 0.0
N3874 N 0.38344 0.36978 0.78609 0.0
N3875 N 0.41102 0.35315 0.81416 0.0
H3876 H 0.4269 0.16681 0.05039 0.0
H3877 H 0.33637 0.14971 0.05556 0.0
H3878 H 0.39559 0.19247 0.07953 0.0
H3879 H 0.36869 0.12104 0.03065 0.0
H3880 H 0.35714 0.16799 0.06101 0.0
H3881 H 0.40501 0.15274 0.03962 0.0
C3882 C 0.41539 0.16965 0.0544 0.0
C3883 C 0.41312 0.18073 0.06605 0.0
C3884 C 0.35967 0.15778 0.05422 0.0
C3885 C 0.38794 0.1645 0.05379 0.0
C3886 C 0.3478 0.14732 0.05107 0.0
C3887 C 0.35081 0.1337 0.04276 0.0
C3888 C 0.3747 0.15463 0.04904 0.0
C3889 C 0.36585 0.13132 0.03718 0.0
C3890 C 0.40288 0.16156 0.04825 0.0
C3891 C 0.39791 0.18398 0.07064 0.0
N3892 N 0.37725 0.14161 0.04054 0.0
N3893 N 0.38592 0.17577 0.06462 0.0
H3894 H 0.61193 0.18953 0.29693 0.0
H3895 H 0.61188 0.09718 0.29369 0.0
H3896 H 0.57651 0.16165 0.31826 0.0
H3897 H 0.64972 0.12578 0.27829 0.0
H3898 H 0.59708 0.12049 0.29968 0.0
H3899 H 0.62405 0.16622 0.28702 0.0
C3900 C 0.60662 0.17849 0.29948 0.0
C3901 C 0.59323 0.17756 0.30859 0.0
C3902 C 0.60857 0.12165 0.29487 0.0
C3903 C 0.60719 0.15066 0.29723 0.0
C3904 C 0.61703 0.10835 0.29138 0.0
C3905 C 0.63214 0.1095 0.28556 0.0
C3906 C 0.61523 0.13624 0.29247 0.0
C3907 C 0.63817 0.1243 0.28283 0.0
C3908 C 0.61359 0.16515 0.2938 0.0
C3909 C 0.58684 0.1629 0.31134 0.0
N3910 N 0.62973 0.13707 0.28638 0.0
N3911 N 0.59395 0.15 0.30577 0.0
H3912 H 0.59202 0.66988 0.42567 0.0
H3913 H 0.63559 0.60749 0.47857 0.0
H3914 H 0.5707 0.64566 0.46369 0.0
H3915 H 0.65428 0.6259 0.43614 0.0
H3916 H 0.61337 0.62479 0.47584 0.0
H3917 H 0.61665 0.65739 0.43204 0.0
C3918 C 0.59258 0.66216 0.4355 0.0
C3919 C 0.57927 0.65866 0.44405 0.0
C3920 C 0.62241 0.62511 0.46719 0.0
C3921 C 0.60729 0.64428 0.45133 0.0
C3922 C 0.6351 0.61525 0.46876 0.0
C3923 C 0.64672 0.61511 0.45748 0.0
C3924 C 0.62136 0.63493 0.45428 0.0
C3925 C 0.6455 0.62548 0.44503 0.0
C3926 C 0.60661 0.65496 0.43909 0.0
C3927 C 0.58064 0.64854 0.45666 0.0
N3928 N 0.63302 0.63489 0.44372 0.0
N3929 N 0.59435 0.64163 0.45985 0.0
H3930 H 0.11007 0.41485 0.69258 0.0
H3931 H 0.08718 0.32587 0.70033 0.0
H3932 H 0.13693 0.38228 0.71914 0.0
H3933 H 0.07669 0.35305 0.65982 0.0
H3934 H 0.10036 0.34822 0.71156 0.0
H3935 H 0.09288 0.39384 0.68473 0.0
C3936 C 0.11224 0.40332 0.69694 0.0
C3937 C 0.12502 0.40029 0.70647 0.0
C3938 C 0.095 0.34931 0.7003 0.0
C3939 C 0.1053 0.37627 0.69759 0.0
C3940 C 0.08737 0.33661 0.69391 0.0
C3941 C 0.08091 0.33756 0.67904 0.0
C3942 C 0.09595 0.36313 0.69189 0.0
C3943 C 0.08159 0.35178 0.67126 0.0
C3944 C 0.10245 0.39135 0.69238 0.0
C3945 C 0.12728 0.3851 0.7117 0.0
N3946 N 0.08903 0.36401 0.67777 0.0
N3947 N 0.1175 0.37364 0.70719 0.0
H3948 H 0.36974 0.89591 0.97863 0.0
H3949 H 0.40959 0.82978 0.92746 0.0
H3950 H 0.34534 0.86953 0.94403 0.0
H3951 H 0.43378 0.85878 0.96004 0.0
H3952 H 0.38515 0.84166 0.93567 0.0
H3953 H 0.39253 0.87987 0.97431 0.0
C3954 C 0.36912 0.88666 0.97023 0.0
C3955 C 0.35565 0.88418 0.96158 0.0
C3956 C 0.39582 0.8453 0.94111 0.0
C3957 C 0.38177 0.86579 0.95646 0.0
C3958 C 0.40974 0.83848 0.93646 0.0
C3959 C 0.42375 0.84343 0.94294 0.0
C3960 C 0.39596 0.85706 0.95234 0.0
C3961 C 0.42328 0.85474 0.95457 0.0
C3962 C 0.38216 0.8775 0.96773 0.0
C3963 C 0.35551 0.87194 0.95089 0.0
N3964 N 0.40967 0.86123 0.9588 0.0
N3965 N 0.36842 0.8633 0.94853 0.0
H3966 H 0.92864 0.15965 0.17182 0.0
H3967 H 0.86607 0.11533 0.22376 0.0
H3968 H 0.90437 0.18047 0.21009 0.0
H3969 H 0.88594 0.09657 0.18203 0.0
H3970 H 0.88312 0.13778 0.22137 0.0
H3971 H 0.91641 0.13487 0.17801 0.0
C3972 C 0.92097 0.15895 0.18168 0.0
C3973 C 0.91738 0.17218 0.19034 0.0
C3974 C 0.88383 0.12868 0.2128 0.0
C3975 C 0.90325 0.14395 0.1974 0.0
C3976 C 0.8741 0.11586 0.21418 0.0
C3977 C 0.87444 0.10413 0.20299 0.0
C3978 C 0.89399 0.12977 0.20017 0.0
C3979 C 0.88514 0.10541 0.19084 0.0
C3980 C 0.91391 0.14483 0.18516 0.0
C3981 C 0.90733 0.1706 0.20298 0.0
N3982 N 0.89441 0.11803 0.18971 0.0
N3983 N 0.90052 0.1568 0.20604 0.0
H3984 H 0.5289 0.13266 0.89977 0.0
H3985 H 0.57696 0.09245 0.83154 0.0
H3986 H 0.5601 0.15751 0.86982 0.0
H3987 H 0.54719 0.06805 0.86325 0.0
H3988 H 0.56872 0.11694 0.84328 0.0
H3989 H 0.53316 0.1094 0.88435 0.0
C3990 C 0.53652 0.13327 0.88986 0.0
C3991 C 0.54426 0.14703 0.88619 0.0
C3992 C 0.56391 0.10621 0.84756 0.0
C3993 C 0.54932 0.12038 0.86852 0.0
C3994 C 0.56859 0.09225 0.84083 0.0
C3995 C 0.5629 0.07818 0.84653 0.0
C3996 C 0.55345 0.10605 0.86001 0.0
C3997 C 0.55205 0.0786 0.85859 0.0
C3998 C 0.53899 0.11997 0.88107 0.0
C3999 C 0.55397 0.14714 0.87317 0.0
N4000 N 0.54777 0.09226 0.86497 0.0
N4001 N 0.55632 0.13399 0.86489 0.0
H4002 H 0.6194 0.28328 0.15121 0.0
H4003 H 0.66032 0.32193 0.07773 0.0
H4004 H 0.59393 0.30222 0.11273 0.0
H4005 H 0.68465 0.30114 0.116 0.0
H4006 H 0.63582 0.31324 0.08915 0.0
H4007 H 0.6434 0.28797 0.13723 0.0
C4008 C 0.61883 0.28829 0.13975 0.0
C4009 C 0.60462 0.29246 0.13319 0.0
C4010 C 0.64655 0.31051 0.09496 0.0
C4011 C 0.63214 0.29806 0.11713 0.0
C4012 C 0.66052 0.31545 0.08844 0.0
C4013 C 0.67454 0.31239 0.09599 0.0
C4014 C 0.64666 0.30245 0.10909 0.0
C4015 C 0.67413 0.30392 0.10982 0.0
C4016 C 0.63256 0.291 0.13176 0.0
C4017 C 0.60463 0.29886 0.11826 0.0
N4018 N 0.66046 0.29935 0.11594 0.0
N4019 N 0.61818 0.3016 0.11079 0.0
H4020 H 0.4379 0.34347 0.36541 0.0
H4021 H 0.45192 0.43435 0.35877 0.0
H4022 H 0.47047 0.36886 0.39338 0.0
H4023 H 0.42086 0.40948 0.32871 0.0
H4024 H 0.46024 0.41 0.37002 0.0
H4025 H 0.43299 0.36686 0.35037 0.0
C4026 C 0.44415 0.35392 0.3683 0.0
C4027 C 0.45453 0.35422 0.38079 0.0
C4028 C 0.45168 0.40979 0.3609 0.0
C4029 C 0.44887 0.38108 0.36363 0.0
C4030 C 0.44688 0.42373 0.35446 0.0
C4031 C 0.43554 0.42397 0.34287 0.0
C4032 C 0.44503 0.3959 0.35585 0.0
C4033 C 0.42959 0.40982 0.33766 0.0
C4034 C 0.44132 0.36728 0.3597 0.0
C4035 C 0.46232 0.36808 0.38393 0.0
N4036 N 0.43429 0.39634 0.3443 0.0
N4037 N 0.45923 0.38097 0.3755 0.0
H4038 H 0.33487 0.21698 0.57066 0.0
H4039 H 0.38351 0.20191 0.64656 0.0
H4040 H 0.33376 0.17361 0.59529 0.0
H4041 H 0.40214 0.23048 0.61015 0.0
H4042 H 0.36226 0.19456 0.62953 0.0
H4043 H 0.35738 0.22476 0.58615 0.0
C4044 C 0.33946 0.20903 0.57916 0.0
C4045 C 0.33241 0.19463 0.58168 0.0
C4046 C 0.37098 0.20248 0.62529 0.0
C4047 C 0.35775 0.20363 0.59963 0.0
C4048 C 0.38303 0.20681 0.63505 0.0
C4049 C 0.39464 0.21683 0.62976 0.0
C4050 C 0.37031 0.20841 0.61022 0.0
C4051 C 0.39345 0.2227 0.61467 0.0
C4052 C 0.35226 0.21349 0.58798 0.0
C4053 C 0.33883 0.18479 0.59288 0.0
N4054 N 0.38144 0.21846 0.60541 0.0
N4055 N 0.35097 0.18957 0.60159 0.0
H4056 H 0.58229 0.84554 0.12596 0.0
H4057 H 0.55571 0.92491 0.16518 0.0
H4058 H 0.5377 0.86632 0.11778 0.0
H4059 H 0.6025 0.90771 0.16561 0.0
H4060 H 0.54755 0.90151 0.15154 0.0
H4061 H 0.58841 0.86627 0.14394 0.0
C4062 C 0.57372 0.85443 0.12799 0.0
C4063 C 0.55949 0.85424 0.1202 0.0
C4064 C 0.55957 0.9028 0.15478 0.0
C4065 C 0.5665 0.87813 0.1409 0.0
C4066 C 0.56423 0.91611 0.16267 0.0
C4067 C 0.57986 0.91835 0.16644 0.0
C4068 C 0.57059 0.89161 0.15073 0.0
C4069 C 0.59037 0.90654 0.16284 0.0
C4070 C 0.57725 0.86629 0.13828 0.0
C4071 C 0.54885 0.86606 0.12344 0.0
N4072 N 0.58556 0.89375 0.15511 0.0
N4073 N 0.5526 0.87758 0.13349 0.0
H4074 H 0.843 0.32571 0.42254 0.0
H4075 H 0.88424 0.28192 0.35202 0.0
H4076 H 0.81904 0.29822 0.38851 0.0
H4077 H 0.9085 0.31188 0.38369 0.0
H4078 H 0.8607 0.28556 0.36715 0.0
H4079 H 0.8676 0.31867 0.4103 0.0
C4080 C 0.84292 0.31811 0.4126 0.0
C4081 C 0.82894 0.31267 0.40646 0.0
C4082 C 0.8712 0.29127 0.37086 0.0
C4083 C 0.85694 0.30459 0.39242 0.0
C4084 C 0.88466 0.28916 0.36223 0.0
C4085 C 0.89835 0.2967 0.36651 0.0
C4086 C 0.87138 0.30102 0.38386 0.0
C4087 C 0.89819 0.30591 0.37989 0.0
C4088 C 0.85694 0.31412 0.4056 0.0
C4089 C 0.82951 0.30283 0.39357 0.0
N4090 N 0.88491 0.30789 0.38803 0.0
N4091 N 0.84324 0.29918 0.38696 0.0
H4092 H 0.42033 0.65972 0.62735 0.0
H4093 H 0.44571 0.58143 0.66939 0.0
H4094 H 0.46489 0.63839 0.62059 0.0
H4095 H 0.3991 0.59914 0.66875 0.0
H4096 H 0.4543 0.60443 0.65534 0.0
H4097 H 0.41384 0.63975 0.64603 0.0
C4098 C 0.42881 0.65087 0.62983 0.0
C4099 C 0.44314 0.65067 0.62224 0.0
C4100 C 0.44224 0.60335 0.65845 0.0
C4101 C 0.43571 0.62765 0.64375 0.0
C4102 C 0.43732 0.59028 0.66657 0.0
C4103 C 0.42161 0.58827 0.67013 0.0
C4104 C 0.43138 0.61454 0.65395 0.0
C4105 C 0.41129 0.60012 0.66615 0.0
C4106 C 0.42507 0.63944 0.64054 0.0
C4107 C 0.45367 0.63894 0.62608 0.0
N4108 N 0.41634 0.61267 0.65817 0.0
N4109 N 0.44971 0.62783 0.63651 0.0
H4110 H 0.11347 0.24688 0.88181 0.0
H4111 H 0.15974 0.17773 0.9224 0.0
H4112 H 0.10845 0.19864 0.87011 0.0
H4113 H 0.17468 0.22528 0.92478 0.0
H4114 H 0.13712 0.1859 0.90771 0.0
H4115 H 0.13268 0.23969 0.90147 0.0
C4116 C 0.11634 0.2348 0.88341 0.0
C4117 C 0.10947 0.22337 0.87419 0.0
C4118 C 0.14526 0.19458 0.9116 0.0
C4119 C 0.13116 0.21508 0.89673 0.0
C4120 C 0.15814 0.18993 0.92009 0.0
C4121 C 0.16927 0.2008 0.92465 0.0
C4122 C 0.14343 0.21022 0.90765 0.0
C4123 C 0.16649 0.21647 0.92136 0.0
C4124 C 0.12728 0.23072 0.89462 0.0
C4125 C 0.11358 0.20788 0.8768 0.0
N4126 N 0.15393 0.2207 0.91291 0.0
N4127 N 0.12412 0.20422 0.8878 0.0
H4128 H 0.86369 0.04952 0.65927 0.0
H4129 H 0.86303 0.04803 0.56687 0.0
H4130 H 0.90035 0.03068 0.6312 0.0
H4131 H 0.82939 0.07314 0.5938 0.0
H4132 H 0.87473 0.03864 0.5906 0.0
H4133 H 0.84902 0.0552 0.63577 0.0
C4134 C 0.86859 0.04639 0.64818 0.0
C4135 C 0.88335 0.0397 0.64721 0.0
C4136 C 0.86475 0.04614 0.59137 0.0
C4137 C 0.86661 0.04624 0.62028 0.0
C4138 C 0.85803 0.05153 0.57779 0.0
C4139 C 0.84527 0.06154 0.57832 0.0
C4140 C 0.85875 0.05076 0.6057 0.0
C4141 C 0.83925 0.06551 0.59285 0.0
C4142 C 0.86021 0.04971 0.63478 0.0
C4143 C 0.88908 0.03592 0.63253 0.0
N4144 N 0.84611 0.06019 0.60599 0.0
N4145 N 0.88074 0.03932 0.61966 0.0
H4146 H 0.32829 0.92891 0.9142 0.0
H4147 H 0.39649 0.97315 0.86985 0.0
H4148 H 0.3617 0.95859 0.93632 0.0
H4149 H 0.36533 0.94129 0.84745 0.0
H4150 H 0.38164 0.97043 0.89368 0.0
H4151 H 0.33948 0.93571 0.88903 0.0
C4152 C 0.33784 0.93698 0.91375 0.0
C4153 C 0.34417 0.94306 0.92738 0.0
C4154 C 0.37797 0.96412 0.88352 0.0
C4155 C 0.35704 0.95085 0.89873 0.0
C4156 C 0.38644 0.9657 0.86989 0.0
C4157 C 0.38226 0.95732 0.85666 0.0
C4158 C 0.36522 0.95405 0.88398 0.0
C4159 C 0.36906 0.94789 0.8574 0.0
C4160 C 0.34426 0.94083 0.8994 0.0
C4161 C 0.35655 0.95347 0.92613 0.0
N4162 N 0.36109 0.94641 0.87086 0.0
N4163 N 0.36262 0.95695 0.9121 0.0
H4164 H 0.83549 0.08696 0.16374 0.0
H4165 H 0.7679 0.11318 0.10653 0.0
H4166 H 0.78815 0.07285 0.17067 0.0
H4167 H 0.80964 0.13939 0.11409 0.0
H4168 H 0.77618 0.09491 0.12666 0.0
H4169 H 0.82734 0.10231 0.1415 0.0
C4170 C 0.82342 0.08684 0.16044 0.0
C4171 C 0.81246 0.07868 0.16918 0.0
C4172 C 0.78348 0.10468 0.12387 0.0
C4173 C 0.80308 0.09635 0.14375 0.0
C4174 C 0.77877 0.1151 0.11242 0.0
C4175 C 0.78804 0.12789 0.10871 0.0
C4176 C 0.79768 0.10692 0.1314 0.0
C4177 C 0.80205 0.12979 0.11666 0.0
C4178 C 0.81877 0.09573 0.14781 0.0
C4179 C 0.79697 0.07905 0.16432 0.0
N4180 N 0.80647 0.11939 0.12755 0.0
N4181 N 0.79272 0.0878 0.15196 0.0
H4182 H 0.60373 0.52687 0.37409 0.0
H4183 H 0.67639 0.56818 0.41352 0.0
H4184 H 0.64013 0.54853 0.34777 0.0
H4185 H 0.64216 0.54176 0.43838 0.0
H4186 H 0.66435 0.56006 0.38913 0.0
H4187 H 0.61862 0.53114 0.39764 0.0
C4188 C 0.61491 0.53241 0.37324 0.0
C4189 C 0.62063 0.53743 0.35893 0.0
C4190 C 0.65959 0.55594 0.39994 0.0
C4191 C 0.63774 0.54252 0.38593 0.0
C4192 C 0.66648 0.56056 0.41385 0.0
C4193 C 0.6602 0.55577 0.42802 0.0
C4194 C 0.64633 0.54653 0.40025 0.0
C4195 C 0.64733 0.54588 0.42776 0.0
C4196 C 0.62343 0.53486 0.38671 0.0
C4197 C 0.63525 0.54449 0.35855 0.0
N4198 N 0.64078 0.54171 0.41415 0.0
N4199 N 0.64323 0.54697 0.37187 0.0
H4200 H 0.71825 0.91281 0.6756 0.0
H4201 H 0.67853 0.87931 0.59936 0.0
H4202 H 0.67193 0.92433 0.66116 0.0
H4203 H 0.72459 0.86715 0.6141 0.0
H4204 H 0.67704 0.89807 0.62032 0.0
H4205 H 0.72199 0.89872 0.65147 0.0
C4206 C 0.70893 0.91259 0.66725 0.0
C4207 C 0.69468 0.91964 0.6705 0.0
C4208 C 0.68752 0.89139 0.61893 0.0
C4209 C 0.69885 0.90331 0.64288 0.0
C4210 C 0.68838 0.88063 0.60696 0.0
C4211 C 0.70166 0.87151 0.60504 0.0
C4212 C 0.7 0.89306 0.62914 0.0
C4213 C 0.71409 0.87385 0.6152 0.0
C4214 C 0.71107 0.90448 0.65348 0.0
C4215 C 0.68308 0.91903 0.65918 0.0
N4216 N 0.71291 0.88431 0.62688 0.0
N4217 N 0.68536 0.91084 0.64596 0.0
H4218 H 0.1327 0.92827 0.65944 0.0
H4219 H 0.16362 0.96722 0.58161 0.0
H4220 H 0.11875 0.97354 0.64381 0.0
H4221 H 0.17365 0.92024 0.59509 0.0
H4222 H 0.15025 0.97111 0.60613 0.0
H4223 H 0.15051 0.92652 0.63771 0.0
C4224 C 0.13343 0.9379 0.65149 0.0
C4225 C 0.12408 0.95102 0.65339 0.0
C4226 C 0.15551 0.96 0.6038 0.0
C4227 C 0.14453 0.94906 0.6284 0.0
C4228 C 0.16321 0.95777 0.58981 0.0
C4229 C 0.16964 0.94331 0.58619 0.0
C4230 C 0.1542 0.94769 0.61428 0.0
C4231 C 0.1688 0.93155 0.59732 0.0
C4232 C 0.14364 0.93688 0.63906 0.0
C4233 C 0.12565 0.96316 0.64275 0.0
N4234 N 0.16108 0.93396 0.6108 0.0
N4235 N 0.1356 0.96185 0.63065 0.0
H4236 H 0.77447 0.35859 0.38485 0.0
H4237 H 0.82345 0.42508 0.34351 0.0
H4238 H 0.80919 0.38578 0.40816 0.0
H4239 H 0.78677 0.39959 0.32133 0.0
H4240 H 0.81653 0.4129 0.36812 0.0
H4241 H 0.77699 0.37537 0.36226 0.0
C4242 C 0.78251 0.36818 0.38528 0.0
C4243 C 0.79174 0.37067 0.39837 0.0
C4244 C 0.80988 0.41013 0.35789 0.0
C4245 C 0.79479 0.38989 0.37249 0.0
C4246 C 0.8138 0.41713 0.34385 0.0
C4247 C 0.80582 0.41321 0.33029 0.0
C4248 C 0.79794 0.3991 0.35835 0.0
C4249 C 0.79339 0.40283 0.33144 0.0
C4250 C 0.78396 0.37777 0.37237 0.0
C4251 C 0.80192 0.38333 0.39829 0.0
N4252 N 0.78995 0.39602 0.34515 0.0
N4253 N 0.80328 0.39235 0.38551 0.0
H4254 H 0.17079 0.08896 0.84315 0.0
H4255 H 0.23873 0.12416 0.89533 0.0
H4256 H 0.21906 0.07996 0.83441 0.0
H4257 H 0.19181 0.14105 0.89516 0.0
H4258 H 0.23151 0.10504 0.87565 0.0
H4259 H 0.17807 0.10471 0.86539 0.0
C4260 C 0.18291 0.09008 0.84603 0.0
C4261 C 0.19433 0.08323 0.83678 0.0
C4262 C 0.22282 0.11294 0.87997 0.0
C4263 C 0.20276 0.10142 0.86219 0.0
C4264 C 0.22693 0.12385 0.89118 0.0
C4265 C 0.21589 0.13432 0.89683 0.0
C4266 C 0.20753 0.11237 0.87452 0.0
C4267 C 0.20076 0.13333 0.89107 0.0
C4268 C 0.18707 0.09918 0.85868 0.0
C4269 C 0.20986 0.08511 0.84113 0.0
N4270 N 0.19704 0.12257 0.88027 0.0
N4271 N 0.21363 0.09412 0.85346 0.0
H4272 H 0.59489 0.82712 0.07776 0.0
H4273 H 0.63989 0.88757 0.02411 0.0
H4274 H 0.57655 0.84515 0.03501 0.0
H4275 H 0.65609 0.872 0.06865 0.0
H4276 H 0.61834 0.86931 0.02598 0.0
H4277 H 0.61927 0.84031 0.07247 0.0
C4278 C 0.59607 0.83361 0.06712 0.0
C4279 C 0.58357 0.83518 0.05691 0.0
C4280 C 0.62669 0.86982 0.03528 0.0
C4281 C 0.6114 0.85051 0.05088 0.0
C4282 C 0.63899 0.88024 0.03421 0.0
C4283 C 0.64972 0.88145 0.04631 0.0
C4284 C 0.62514 0.86052 0.04853 0.0
C4285 C 0.64802 0.87161 0.0591 0.0
C4286 C 0.60998 0.84123 0.06414 0.0
C4287 C 0.58581 0.84375 0.0433 0.0
N4288 N 0.63593 0.86165 0.05991 0.0
N4289 N 0.59938 0.85124 0.04077 0.0
H4290 H 0.35987 0.88606 0.27783 0.0
H4291 H 0.42127 0.8413 0.33076 0.0
H4292 H 0.37944 0.90486 0.3197 0.0
H4293 H 0.39861 0.82119 0.29115 0.0
H4294 H 0.40914 0.86615 0.32463 0.0
H4295 H 0.37684 0.86358 0.28042 0.0
C4296 C 0.36781 0.88553 0.28749 0.0
C4297 C 0.3681 0.89728 0.29865 0.0
C4298 C 0.40697 0.85633 0.31718 0.0
C4299 C 0.38755 0.8716 0.30171 0.0
C4300 C 0.41397 0.84217 0.32064 0.0
C4301 C 0.4108 0.82911 0.31157 0.0
C4302 C 0.39677 0.85741 0.30457 0.0
C4303 C 0.40122 0.83091 0.29858 0.0
C4304 C 0.3775 0.87269 0.28898 0.0
C4305 C 0.37869 0.896 0.31089 0.0
N4306 N 0.39445 0.84473 0.29556 0.0
N4307 N 0.3879 0.88336 0.31215 0.0
H4308 H 0.3418 0.64074 0.55745 0.0
H4309 H 0.43196 0.64922 0.53969 0.0
H4310 H 0.36746 0.60977 0.52795 0.0
H4311 H 0.40796 0.67675 0.57365 0.0
H4312 H 0.40748 0.6376 0.53211 0.0
H4313 H 0.36488 0.65668 0.5604 0.0
C4314 C 0.35224 0.63736 0.55145 0.0
C4315 C 0.35272 0.62378 0.54255 0.0
C4316 C 0.40751 0.64629 0.54111 0.0
C4317 C 0.37923 0.64202 0.54593 0.0
C4318 C 0.4215 0.65298 0.54545 0.0
C4319 C 0.42205 0.66387 0.55747 0.0
C4320 C 0.39391 0.65044 0.54888 0.0
C4321 C 0.40809 0.66837 0.56437 0.0
C4322 C 0.36543 0.64648 0.55317 0.0
C4323 C 0.36657 0.62006 0.535 0.0
N4324 N 0.39459 0.6615 0.56009 0.0
N4325 N 0.3793 0.62907 0.53696 0.0
H4326 H 0.59023 0.6794 0.80228 0.0
H4327 H 0.60701 0.58859 0.80517 0.0
H4328 H 0.56565 0.64805 0.83233 0.0
H4329 H 0.63788 0.62191 0.78456 0.0
H4330 H 0.58918 0.60951 0.81162 0.0
H4331 H 0.60491 0.65769 0.79204 0.0
C4332 C 0.58777 0.66793 0.80663 0.0
C4333 C 0.57676 0.6656 0.81834 0.0
C4334 C 0.5998 0.61222 0.80559 0.0
C4335 C 0.59368 0.64063 0.80661 0.0
C4336 C 0.60999 0.60028 0.80185 0.0
C4337 C 0.62404 0.6035 0.79439 0.0
C4338 C 0.60361 0.6275 0.80175 0.0
C4339 C 0.62724 0.61889 0.79039 0.0
C4340 C 0.59623 0.65553 0.80079 0.0
C4341 C 0.57407 0.65042 0.82339 0.0
N4342 N 0.61713 0.63031 0.79416 0.0
N4343 N 0.58255 0.63851 0.81757 0.0
H4344 H 0.57317 0.14655 0.9629 0.0
H4345 H 0.65828 0.13127 0.93153 0.0
H4346 H 0.59327 0.172 0.92502 0.0
H4347 H 0.63952 0.10931 0.9722 0.0
H4348 H 0.63541 0.14766 0.9301 0.0
H4349 H 0.59809 0.1344 0.96771 0.0
C4350 C 0.58289 0.1497 0.95567 0.0
C4351 C 0.58111 0.16019 0.94343 0.0
C4352 C 0.63633 0.13936 0.93942 0.0
C4353 C 0.60971 0.14616 0.9488 0.0
C4354 C 0.64939 0.12995 0.94024 0.0
C4355 C 0.65076 0.11878 0.95193 0.0
C4356 C 0.62446 0.13752 0.9503 0.0
C4357 C 0.63892 0.1177 0.96294 0.0
C4358 C 0.59714 0.14275 0.95844 0.0
C4359 C 0.59414 0.16395 0.93455 0.0
N4360 N 0.62621 0.12685 0.96177 0.0
N4361 N 0.60786 0.15678 0.9373 0.0
H4362 H 0.14425 0.88408 0.22421 0.0
H4363 H 0.0747 0.84383 0.17804 0.0
H4364 H 0.1111 0.90943 0.19688 0.0
H4365 H 0.11046 0.81901 0.20237 0.0
H4366 H 0.08583 0.86821 0.18737 0.0
H4367 H 0.12987 0.86034 0.21903 0.0
C4368 C 0.13385 0.8847 0.21727 0.0
C4369 C 0.12897 0.89876 0.21086 0.0
C4370 C 0.09116 0.8574 0.19074 0.0
C4371 C 0.11249 0.87158 0.20475 0.0
C4372 C 0.08479 0.8435 0.18545 0.0
C4373 C 0.09175 0.82938 0.1893 0.0
C4374 C 0.10452 0.85713 0.2 0.0
C4375 C 0.1048 0.82963 0.19895 0.0
C4376 C 0.12566 0.87112 0.21426 0.0
C4377 C 0.11538 0.89883 0.20197 0.0
N4378 N 0.11078 0.84325 0.20388 0.0
N4379 N 0.10769 0.88544 0.19908 0.0
H4380 H 0.34494 0.37291 0.43135 0.0
H4381 H 0.43066 0.35583 0.45948 0.0
H4382 H 0.36459 0.39243 0.47283 0.0
H4383 H 0.40866 0.33043 0.42265 0.0
H4384 H 0.40604 0.36807 0.4655 0.0
H4385 H 0.36751 0.35623 0.42878 0.0
C4386 C 0.35396 0.37363 0.43999 0.0
C4387 C 0.35294 0.38421 0.45225 0.0
C4388 C 0.40651 0.35969 0.45622 0.0
C4389 C 0.37888 0.36513 0.44932 0.0
C4390 C 0.42058 0.3527 0.45275 0.0
C4391 C 0.42173 0.3422 0.44045 0.0
C4392 C 0.39347 0.35636 0.44717 0.0
C4393 C 0.40827 0.33848 0.43222 0.0
C4394 C 0.36684 0.36405 0.43853 0.0
C4395 C 0.36493 0.38451 0.46315 0.0
N4396 N 0.39473 0.34572 0.4356 0.0
N4397 N 0.37747 0.37523 0.46134 0.0
H4398 H 0.88825 0.59482 0.69402 0.0
H4399 H 0.89851 0.68478 0.71142 0.0
H4400 H 0.86076 0.62029 0.72692 0.0
H4401 H 0.92601 0.66022 0.67789 0.0
H4402 H 0.88712 0.66041 0.71966 0.0
H4403 H 0.90446 0.61764 0.69031 0.0
C4404 C 0.88571 0.60515 0.70061 0.0
C4405 C 0.873 0.60567 0.71069 0.0
C4406 C 0.89576 0.66027 0.71061 0.0
C4407 C 0.89152 0.63189 0.70643 0.0
C4408 C 0.90229 0.6742 0.7059 0.0
C4409 C 0.91311 0.67454 0.69382 0.0
C4410 C 0.89992 0.64651 0.70311 0.0
C4411 C 0.91769 0.66047 0.68722 0.0
C4412 C 0.89498 0.61819 0.69846 0.0
C4413 C 0.87035 0.61937 0.71895 0.0
N4414 N 0.91091 0.64701 0.69181 0.0
N4415 N 0.87944 0.63195 0.71653 0.0
H4416 H 0.56896 0.6604 0.37223 0.0
H4417 H 0.55186 0.57561 0.33996 0.0
H4418 H 0.53211 0.63183 0.38995 0.0
H4419 H 0.59607 0.59833 0.33607 0.0
H4420 H 0.54183 0.59815 0.35383 0.0
H4421 H 0.57624 0.63971 0.35462 0.0
C4422 C 0.56228 0.64982 0.37235 0.0
C4423 C 0.54996 0.64782 0.38272 0.0
C4424 C 0.55367 0.59824 0.34979 0.0
C4425 C 0.55829 0.62403 0.36243 0.0
C4426 C 0.55939 0.58544 0.34177 0.0
C4427 C 0.57488 0.58505 0.33691 0.0
C4428 C 0.56344 0.61082 0.35279 0.0
C4429 C 0.5841 0.59809 0.33967 0.0
C4430 C 0.5665 0.63799 0.36229 0.0
C4431 C 0.54174 0.63384 0.38223 0.0
N4432 N 0.57825 0.61042 0.34746 0.0
N4433 N 0.54609 0.62243 0.37228 0.0
H4434 H 0.65923 0.82401 0.57688 0.0
H4435 H 0.6179 0.77655 0.64468 0.0
H4436 H 0.68277 0.79198 0.60701 0.0
H4437 H 0.5939 0.80823 0.61453 0.0
H4438 H 0.6412 0.77991 0.62907 0.0
H4439 H 0.63461 0.81626 0.58852 0.0
C4440 C 0.65921 0.81521 0.58579 0.0
C4441 C 0.6731 0.80876 0.59109 0.0
C4442 C 0.6308 0.78602 0.62578 0.0
C4443 C 0.64503 0.79992 0.60453 0.0
C4444 C 0.61748 0.78408 0.63469 0.0
C4445 C 0.60396 0.79223 0.63101 0.0
C4446 C 0.63064 0.79624 0.61314 0.0
C4447 C 0.60409 0.8018 0.61788 0.0
C4448 C 0.64516 0.81082 0.59247 0.0
C4449 C 0.67238 0.7974 0.60266 0.0
N4450 N 0.61724 0.80365 0.60952 0.0
N4451 N 0.65862 0.79345 0.60907 0.0
H4452 H 0.46455 0.91343 0.81993 0.0
H4453 H 0.45184 0.86803 0.8982 0.0
H4454 H 0.42182 0.91523 0.84558 0.0
H4455 H 0.47962 0.84799 0.86194 0.0
H4456 H 0.44389 0.88845 0.88044 0.0
H4457 H 0.4729 0.89163 0.83613 0.0
C4458 C 0.45685 0.90912 0.8288 0.0
C4459 C 0.44247 0.91618 0.8314 0.0
C4460 C 0.45177 0.8796 0.87639 0.0
C4461 C 0.45213 0.89167 0.85015 0.0
C4462 C 0.45644 0.86803 0.88656 0.0
C4463 C 0.46641 0.85626 0.88154 0.0
C4464 C 0.45729 0.87963 0.86115 0.0
C4465 C 0.47189 0.85682 0.86626 0.0
C4466 C 0.46164 0.89673 0.83803 0.0
C4467 C 0.43297 0.91014 0.8431 0.0
N4468 N 0.46731 0.86837 0.85659 0.0
N4469 N 0.43807 0.89841 0.85217 0.0
H4470 H 0.33043 0.69993 0.08736 0.0
H4471 H 0.41572 0.68314 0.11849 0.0
H4472 H 0.35379 0.65618 0.08205 0.0
H4473 H 0.38736 0.72031 0.13589 0.0
H4474 H 0.39497 0.6758 0.10095 0.0
H4475 H 0.35308 0.71007 0.10091 0.0
C4476 C 0.3404 0.69252 0.08882 0.0
C4477 C 0.34016 0.67712 0.08365 0.0
C4478 C 0.39331 0.68562 0.10853 0.0
C4479 C 0.36609 0.68869 0.09916 0.0
C4480 C 0.40518 0.68987 0.11854 0.0
C4481 C 0.40325 0.7023 0.12881 0.0
C4482 C 0.37939 0.69389 0.10865 0.0
C4483 C 0.38932 0.71059 0.12825 0.0
C4484 C 0.35328 0.6983 0.09664 0.0
C4485 C 0.35342 0.66807 0.08591 0.0
N4486 N 0.37788 0.7062 0.11838 0.0
N4487 N 0.36581 0.67398 0.09354 0.0
H4488 H 0.57605 0.34154 0.62935 0.0
H4489 H 0.55288 0.42332 0.66558 0.0
H4490 H 0.53411 0.36564 0.61723 0.0
H4491 H 0.59788 0.40229 0.66987 0.0
H4492 H 0.54381 0.40034 0.65176 0.0
H4493 H 0.58208 0.36176 0.6479 0.0
C4494 C 0.56803 0.35106 0.63064 0.0
C4495 C 0.55462 0.35197 0.62155 0.0
C4496 C 0.5556 0.4007 0.65591 0.0
C4497 C 0.56154 0.3753 0.6429 0.0
C4498 C 0.56078 0.41376 0.6639 0.0
C4499 C 0.57623 0.41479 0.66879 0.0
C4500 C 0.56592 0.38855 0.65289 0.0
C4501 C 0.58593 0.40207 0.66622 0.0
C4502 C 0.5715 0.36262 0.64127 0.0
C4503 C 0.54462 0.36453 0.62391 0.0
N4504 N 0.58064 0.38955 0.65836 0.0
N4505 N 0.54834 0.37578 0.63428 0.0
H4506 H 0.85453 0.84003 0.92715 0.0
H4507 H 0.88241 0.78223 0.86186 0.0
H4508 H 0.82621 0.80222 0.91111 0.0
H4509 H 0.91446 0.8073 0.89069 0.0
H4510 H 0.86136 0.79002 0.87913 0.0
H4511 H 0.87658 0.82886 0.91337 0.0
C4512 C 0.85298 0.8293 0.92089 0.0
C4513 C 0.83848 0.82211 0.92024 0.0
C4514 C 0.87304 0.79366 0.88175 0.0
C4515 C 0.86355 0.80942 0.90424 0.0
C4516 C 0.88504 0.78924 0.87188 0.0
C4517 C 0.9002 0.79415 0.8748 0.0
C4518 C 0.8762 0.80329 0.89445 0.0
C4519 C 0.90295 0.80323 0.88799 0.0
C4520 C 0.86557 0.82293 0.91304 0.0
C4521 C 0.83716 0.80819 0.91195 0.0
N4522 N 0.89104 0.80766 0.89721 0.0
N4523 N 0.84947 0.80243 0.90411 0.0
H4524 H 0.44276 0.084 0.16959 0.0
H4525 H 0.41906 0.16264 0.12724 0.0
H4526 H 0.39575 0.09979 0.16438 0.0
H4527 H 0.46365 0.14105 0.12151 0.0
H4528 H 0.41164 0.14208 0.14496 0.0
H4529 H 0.45174 0.10732 0.15633 0.0
C4530 C 0.43433 0.09249 0.16592 0.0
C4531 C 0.41844 0.08987 0.16799 0.0
C4532 C 0.42308 0.14187 0.1399 0.0
C4533 C 0.42868 0.11651 0.15275 0.0
C4534 C 0.42736 0.15363 0.12977 0.0
C4535 C 0.44198 0.15352 0.12274 0.0
C4536 C 0.43348 0.12988 0.14314 0.0
C4537 C 0.45223 0.14154 0.12657 0.0
C4538 C 0.43948 0.10574 0.15825 0.0
C4539 C 0.40808 0.10127 0.16294 0.0
N4540 N 0.44776 0.13015 0.13648 0.0
N4541 N 0.41337 0.11404 0.15549 0.0
H4542 H 0.17906 0.72143 0.40313 0.0
H4543 H 0.09675 0.6859 0.38208 0.0
H4544 H 0.16106 0.67953 0.42332 0.0
H4545 H 0.11379 0.72883 0.36323 0.0
H4546 H 0.11907 0.68481 0.3992 0.0
H4547 H 0.15416 0.72587 0.39071 0.0
C4548 C 0.1698 0.71326 0.40514 0.0
C4549 C 0.17221 0.69999 0.41416 0.0
C4550 C 0.11789 0.69454 0.39142 0.0
C4551 C 0.14367 0.70494 0.39978 0.0
C4552 C 0.10515 0.69517 0.38159 0.0
C4553 C 0.10346 0.70741 0.37107 0.0
C4554 C 0.12916 0.70618 0.39069 0.0
C4555 C 0.11466 0.71914 0.37109 0.0
C4556 C 0.15557 0.7158 0.398 0.0
C4557 C 0.15974 0.68988 0.41643 0.0
N4558 N 0.12711 0.71815 0.38065 0.0
N4559 N 0.14607 0.69247 0.40912 0.0
H4560 H 0.86135 0.5527 0.16234 0.0
H4561 H 0.86128 0.54677 0.07014 0.0
H4562 H 0.89683 0.53023 0.13545 0.0
H4563 H 0.82731 0.57293 0.0956 0.0
H4564 H 0.87235 0.53792 0.09437 0.0
H4565 H 0.84681 0.55752 0.13855 0.0
C4566 C 0.86601 0.54861 0.15147 0.0
C4567 C 0.88041 0.54116 0.15088 0.0
C4568 C 0.86242 0.54552 0.09473 0.0
C4569 C 0.86384 0.54668 0.12363 0.0
C4570 C 0.85607 0.5506 0.08086 0.0
C4571 C 0.84343 0.56076 0.08083 0.0
C4572 C 0.8562 0.55067 0.10878 0.0
C4573 C 0.83709 0.56516 0.0951 0.0
C4574 C 0.85771 0.55141 0.13789 0.0
C4575 C 0.88585 0.53612 0.13647 0.0
N4576 N 0.84364 0.56019 0.10854 0.0
N4577 N 0.87761 0.53906 0.12344 0.0
H4578 H 0.32291 0.42832 0.40971 0.0
H4579 H 0.3892 0.47689 0.36727 0.0
H4580 H 0.3507 0.46316 0.4321 0.0
H4581 H 0.36108 0.44267 0.34432 0.0
H4582 H 0.37328 0.47395 0.39043 0.0
H4583 H 0.3347 0.43537 0.38493 0.0
C4584 C 0.33131 0.43759 0.40939 0.0
C4585 C 0.33594 0.44505 0.42302 0.0
C4586 C 0.3705 0.46718 0.38028 0.0
C4587 C 0.34957 0.45307 0.39478 0.0
C4588 C 0.37959 0.46887 0.36704 0.0
C4589 C 0.37658 0.45991 0.35387 0.0
C4590 C 0.35835 0.45639 0.38039 0.0
C4591 C 0.36392 0.44974 0.35424 0.0
C4592 C 0.33808 0.44158 0.39525 0.0
C4593 C 0.34689 0.45697 0.42191 0.0
N4594 N 0.35537 0.44816 0.36732 0.0
N4595 N 0.35342 0.46051 0.40809 0.0
H4596 H 0.82164 0.57873 0.66249 0.0
H4597 H 0.78275 0.65205 0.62145 0.0
H4598 H 0.80255 0.61793 0.68674 0.0
H4599 H 0.80005 0.61275 0.59607 0.0
H4600 H 0.7883 0.63856 0.64555 0.0
H4601 H 0.81244 0.5899 0.63805 0.0
C4602 C 0.81545 0.58961 0.66269 0.0
C4603 C 0.81298 0.59746 0.67667 0.0
C4604 C 0.79079 0.63281 0.63472 0.0
C4605 C 0.80245 0.61026 0.64885 0.0
C4606 C 0.78758 0.64052 0.62094 0.0
C4607 C 0.79103 0.63358 0.6067 0.0
C4608 C 0.79761 0.61807 0.63434 0.0
C4609 C 0.79724 0.61857 0.60678 0.0
C4610 C 0.8102 0.59597 0.64876 0.0
C4611 C 0.80486 0.6115 0.67626 0.0
N4612 N 0.80047 0.61137 0.62038 0.0
N4613 N 0.79997 0.61745 0.66261 0.0
H4614 H 0.68582 0.03502 0.91485 0.0
H4615 H 0.6082 0.05044 0.86941 0.0
H4616 H 0.66308 0.07941 0.9148 0.0
H4617 H 0.6427 0.02013 0.84998 0.0
H4618 H 0.62661 0.05819 0.88934 0.0
H4619 H 0.66905 0.02682 0.89341 0.0
C4620 C 0.67748 0.0431 0.91019 0.0
C4621 C 0.67586 0.05792 0.91663 0.0
C4622 C 0.63012 0.0498 0.88073 0.0
C4623 C 0.65643 0.04846 0.89257 0.0
C4624 C 0.61958 0.04524 0.86944 0.0
C4625 C 0.62392 0.03461 0.85799 0.0
C4626 C 0.64504 0.04348 0.8808 0.0
C4627 C 0.6389 0.02838 0.85858 0.0
C4628 C 0.66792 0.0384 0.89802 0.0
C4629 C 0.66481 0.06791 0.91018 0.0
N4630 N 0.64894 0.03285 0.86986 0.0
N4631 N 0.65537 0.06291 0.89869 0.0
H4632 H 0.70959 0.40006 0.18258 0.0
H4633 H 0.69057 0.38778 0.0932 0.0
H4634 H 0.67524 0.42672 0.1582 0.0
H4635 H 0.72449 0.3614 0.11853 0.0
H4636 H 0.6869 0.40427 0.11583 0.0
H4637 H 0.71735 0.38818 0.15831 0.0
C4638 C 0.70376 0.40353 0.17206 0.0
C4639 C 0.69162 0.41427 0.17244 0.0
C4640 C 0.69525 0.39498 0.11638 0.0
C4641 C 0.70037 0.40053 0.1445 0.0
C4642 C 0.69737 0.38554 0.10346 0.0
C4643 C 0.70775 0.37306 0.104 0.0
C4644 C 0.70354 0.39192 0.12998 0.0
C4645 C 0.71629 0.3708 0.11759 0.0
C4646 C 0.70821 0.39673 0.15818 0.0
C4647 C 0.68463 0.41846 0.15842 0.0
N4648 N 0.7139 0.38005 0.13006 0.0
N4649 N 0.68898 0.41142 0.14502 0.0
H4650 H 0.10783 0.47082 0.13581 0.0
H4651 H 0.17959 0.42822 0.09595 0.0
H4652 H 0.14345 0.44761 0.16189 0.0
H4653 H 0.14393 0.45283 0.07126 0.0
H4654 H 0.16815 0.437 0.12042 0.0
H4655 H 0.1225 0.46625 0.11222 0.0
C4656 C 0.11881 0.46488 0.1366 0.0
C4657 C 0.12434 0.45948 0.15085 0.0
C4658 C 0.16294 0.44057 0.10962 0.0
C4659 C 0.1412 0.45403 0.12378 0.0
C4660 C 0.16948 0.43558 0.09567 0.0
C4661 C 0.16261 0.43965 0.08155 0.0
C4662 C 0.14947 0.44968 0.10938 0.0
C4663 C 0.14953 0.44923 0.08185 0.0
C4664 C 0.1272 0.46224 0.1231 0.0
C4665 C 0.13871 0.45192 0.15115 0.0
N4666 N 0.14336 0.45382 0.0955 0.0
N4667 N 0.14658 0.44928 0.13779 0.0
H4668 H 0.77885 0.85796 0.88286 0.0
H4669 H 0.82524 0.92733 0.84327 0.0
H4670 H 0.80784 0.88943 0.90849 0.0
H4671 H 0.79302 0.89779 0.81926 0.0
H4672 H 0.81746 0.91528 0.86774 0.0
H4673 H 0.7824 0.87389 0.85987 0.0
C4674 C 0.78586 0.86829 0.88369 0.0
C4675 C 0.79315 0.87228 0.89761 0.0
C4676 C 0.81197 0.91158 0.85712 0.0
C4677 C 0.7974 0.89057 0.87123 0.0
C4678 C 0.81637 0.9185 0.84316 0.0
C4679 C 0.8099 0.91345 0.82918 0.0
C4680 C 0.80107 0.89952 0.85704 0.0
C4681 C 0.79847 0.90194 0.82973 0.0
C4682 C 0.78789 0.87741 0.87054 0.0
C4683 C 0.80205 0.88586 0.898 0.0
N4684 N 0.79455 0.89529 0.84337 0.0
N4685 N 0.80405 0.89444 0.88497 0.0
H4686 H 0.18041 0.63077 0.40291 0.0
H4687 H 0.21608 0.59836 0.32426 0.0
H4688 H 0.22461 0.64516 0.38483 0.0
H4689 H 0.17216 0.58377 0.34283 0.0
H4690 H 0.22067 0.61345 0.34763 0.0
H4691 H 0.17833 0.61185 0.38218 0.0
C4692 C 0.18973 0.62994 0.39459 0.0
C4693 C 0.20266 0.63969 0.39555 0.0
C4694 C 0.2101 0.60682 0.34669 0.0
C4695 C 0.20032 0.61793 0.3717 0.0
C4696 C 0.20748 0.59814 0.33335 0.0
C4697 C 0.19363 0.58989 0.3315 0.0
C4698 C 0.19876 0.60735 0.35826 0.0
C4699 C 0.18298 0.58998 0.34372 0.0
C4700 C 0.18853 0.61907 0.38276 0.0
C4701 C 0.21439 0.63795 0.3845 0.0
N4702 N 0.18569 0.59873 0.3565 0.0
N4703 N 0.21289 0.62735 0.37297 0.0
loop_
_geom_bond_atom_site_label_1
_geom_bond_atom_site_label_2
_geom_bond_distance
_geom_bond_site_symmetry_2
_ccdc_geom_bond_type
Mg0 O7 2.141 . S
Mg0 O8 2.048 . S
Mg0 O9 2.048 . S
Mg0 O12 2.141 . S
C1 O2 1.313 . S
C1 O8 1.195 . S
O2 C1 1.313 . S
C3 O4 1.245 . S
C3 O12 1.289 . S
O4 C3 1.245 . S
C5 O6 1.245 . S
C5 O7 1.289 . S
O6 C5 1.245 . S
O7 Mg0 2.141 . S
O7 C5 1.289 . S
O8 Mg0 2.048 . S
O8 C1 1.195 . S
O9 Mg0 2.048 . S
O9 C10 1.195 . S
C10 O9 1.195 . S
C10 O11 1.313 . S
O11 C10 1.313 . S
O12 Mg0 2.141 . S
O12 C3 1.289 . S
Mg13 O20 2.141 . S
Mg13 O21 2.048 . S
Mg13 O22 2.048 . S
Mg13 O25 2.141 . S
C14 O15 1.313 . S
C14 O21 1.195 . S
O15 C14 1.313 . S
C16 O17 1.245 . S
C16 O25 1.289 . S
O17 C16 1.245 . S
C18 O19 1.245 . S
C18 O20 1.289 . S
O19 C18 1.245 . S
O20 Mg13 2.141 . S
O20 C18 1.289 . S
O21 Mg13 2.048 . S
O21 C14 1.195 . S
O22 Mg13 2.048 . S
O22 C23 1.195 . S
C23 O22 1.195 . S
C23 O24 1.313 . S
O24 C23 1.313 . S
O25 Mg13 2.141 . S
O25 C16 1.289 . S
Mg26 O33 2.141 . S
Mg26 O34 2.048 . S
Mg26 O35 2.048 . S
Mg26 O38 2.141 . S
C27 O28 1.313 . S
C27 O34 1.195 . S
O28 C27 1.313 . S
C29 O30 1.245 . S
C29 O38 1.289 . S
O30 C29 1.245 . S
C31 O32 1.245 . S
C31 O33 1.289 . S
O32 C31 1.245 . S
O33 Mg26 2.141 . S
O33 C31 1.289 . S
O34 Mg26 2.048 . S
O34 C27 1.195 . S
O35 Mg26 2.048 . S
O35 C36 1.195 . S
C36 O35 1.195 . S
C36 O37 1.313 . S
O37 C36 1.313 . S
O38 Mg26 2.141 . S
O38 C29 1.289 . S
Mg39 O46 2.141 . S
Mg39 O47 2.048 . S
Mg39 O48 2.048 . S
Mg39 O51 2.141 . S
C40 O41 1.313 . S
C40 O47 1.195 . S
O41 C40 1.313 . S
C42 O43 1.245 . S
C42 O51 1.289 . S
O43 C42 1.245 . S
C44 O45 1.245 . S
C44 O46 1.289 . S
O45 C44 1.245 . S
O46 Mg39 2.141 . S
O46 C44 1.289 . S
O47 Mg39 2.048 . S
O47 C40 1.195 . S
O48 Mg39 2.048 . S
O48 C49 1.195 . S
C49 O48 1.195 . S
C49 O50 1.313 . S
O50 C49 1.313 . S
O51 Mg39 2.141 . S
O51 C42 1.289 . S
Mg52 O59 2.141 . S
Mg52 O60 2.048 . S
Mg52 O61 2.048 . S
Mg52 O64 2.141 . S
C53 O54 1.313 . S
C53 O60 1.195 . S
O54 C53 1.313 . S
C55 O56 1.245 . S
C55 O64 1.289 . S
O56 C55 1.245 . S
C57 O58 1.245 . S
C57 O59 1.289 . S
O58 C57 1.245 . S
O59 Mg52 2.141 . S
O59 C57 1.289 . S
O60 Mg52 2.048 . S
O60 C53 1.195 . S
O61 Mg52 2.048 . S
O61 C62 1.195 . S
C62 O61 1.195 . S
C62 O63 1.313 . S
O63 C62 1.313 . S
O64 Mg52 2.141 . S
O64 C55 1.289 . S
Mg65 O72 2.141 . S
Mg65 O73 2.048 . S
Mg65 O74 2.048 . S
Mg65 O77 2.141 . S
C66 O67 1.313 . S
C66 O73 1.195 . S
O67 C66 1.313 . S
C68 O69 1.245 . S
C68 O77 1.289 . S
O69 C68 1.245 . S
C70 O71 1.245 . S
C70 O72 1.289 . S
O71 C70 1.245 . S
O72 Mg65 2.141 . S
O72 C70 1.289 . S
O73 Mg65 2.048 . S
O73 C66 1.195 . S
O74 Mg65 2.048 . S
O74 C75 1.195 . S
C75 O74 1.195 . S
C75 O76 1.313 . S
O76 C75 1.313 . S
O77 Mg65 2.141 . S
O77 C68 1.289 . S
Mg78 O85 2.141 . S
Mg78 O86 2.048 . S
Mg78 O87 2.048 . S
Mg78 O90 2.141 . S
C79 O80 1.313 . S
C79 O86 1.195 . S
O80 C79 1.313 . S
C81 O82 1.245 . S
C81 O90 1.289 . S
O82 C81 1.245 . S
C83 O84 1.245 . S
C83 O85 1.289 . S
O84 C83 1.245 . S
O85 Mg78 2.141 . S
O85 C83 1.289 . S
O86 Mg78 2.048 . S
O86 C79 1.195 . S
O87 Mg78 2.048 . S
O87 C88 1.195 . S
C88 O87 1.195 . S
C88 O89 1.313 . S
O89 C88 1.313 . S
O90 Mg78 2.141 . S
O90 C81 1.289 . S
Mg91 O98 2.141 . S
Mg91 O99 2.048 . S
Mg91 O100 2.048 . S
Mg91 O103 2.141 . S
C92 O93 1.313 . S
C92 O99 1.195 . S
O93 C92 1.313 . S
C94 O95 1.245 . S
C94 O103 1.289 . S
O95 C94 1.245 . S
C96 O97 1.245 . S
C96 O98 1.289 . S
O97 C96 1.245 . S
O98 Mg91 2.141 . S
O98 C96 1.289 . S
O99 Mg91 2.048 . S
O99 C92 1.195 . S
O100 Mg91 2.048 . S
O100 C101 1.195 . S
C101 O100 1.195 . S
C101 O102 1.313 . S
O102 C101 1.313 . S
O103 Mg91 2.141 . S
O103 C94 1.289 . S
Mg104 O111 2.141 . S
Mg104 O112 2.048 . S
Mg104 O113 2.048 . S
Mg104 O116 2.141 . S
C105 O106 1.313 . S
C105 O112 1.195 . S
O106 C105 1.313 . S
C107 O108 1.245 . S
C107 O116 1.289 . S
O108 C107 1.245 . S
C109 O110 1.245 . S
C109 O111 1.289 . S
O110 C109 1.245 . S
O111 Mg104 2.141 . S
O111 C109 1.289 . S
O112 Mg104 2.048 . S
O112 C105 1.195 . S
O113 Mg104 2.048 . S
O113 C114 1.195 . S
C114 O113 1.195 . S
C114 O115 1.313 . S
O115 C114 1.313 . S
O116 Mg104 2.141 . S
O116 C107 1.289 . S
Mg117 O124 2.141 . S
Mg117 O125 2.048 . S
Mg117 O126 2.048 . S
Mg117 O129 2.141 . S
C118 O119 1.313 . S
C118 O125 1.195 . S
O119 C118 1.313 . S
C120 O121 1.245 . S
C120 O129 1.289 . S
O121 C120 1.245 . S
C122 O123 1.245 . S
C122 O124 1.289 . S
O123 C122 1.245 . S
O124 Mg117 2.141 . S
O124 C122 1.289 . S
O125 Mg117 2.048 . S
O125 C118 1.195 . S
O126 Mg117 2.048 . S
O126 C127 1.195 . S
C127 O126 1.195 . S
C127 O128 1.313 . S
O128 C127 1.313 . S
O129 Mg117 2.141 . S
O129 C120 1.289 . S
Mg130 O137 2.141 . S
Mg130 O138 2.048 . S
Mg130 O139 2.048 . S
Mg130 O142 2.141 . S
C131 O132 1.313 . S
C131 O138 1.195 . S
O132 C131 1.313 . S
C133 O134 1.245 . S
C133 O142 1.289 . S
O134 C133 1.245 . S
C135 O136 1.245 . S
C135 O137 1.289 . S
O136 C135 1.245 . S
O137 Mg130 2.141 . S
O137 C135 1.289 . S
O138 Mg130 2.048 . S
O138 C131 1.195 . S
O139 Mg130 2.048 . S
O139 C140 1.195 . S
C140 O139 1.195 . S
C140 O141 1.313 . S
O141 C140 1.313 . S
O142 Mg130 2.141 . S
O142 C133 1.289 . S
Mg143 O150 2.141 . S
Mg143 O151 2.048 . S
Mg143 O152 2.048 . S
Mg143 O155 2.141 . S
C144 O145 1.313 . S
C144 O151 1.195 . S
O145 C144 1.313 . S
C146 O147 1.245 . S
C146 O155 1.289 . S
O147 C146 1.245 . S
C148 O149 1.245 . S
C148 O150 1.289 . S
O149 C148 1.245 . S
O150 Mg143 2.141 . S
O150 C148 1.289 . S
O151 Mg143 2.048 . S
O151 C144 1.195 . S
O152 Mg143 2.048 . S
O152 C153 1.195 . S
C153 O152 1.195 . S
C153 O154 1.313 . S
O154 C153 1.313 . S
O155 Mg143 2.141 . S
O155 C146 1.289 . S
Mg156 O163 2.141 . S
Mg156 O164 2.048 . S
Mg156 O165 2.048 . S
Mg156 O168 2.141 . S
C157 O158 1.313 . S
C157 O164 1.195 . S
O158 C157 1.313 . S
C159 O160 1.245 . S
C159 O168 1.289 . S
O160 C159 1.245 . S
C161 O162 1.245 . S
C161 O163 1.289 . S
O162 C161 1.245 . S
O163 Mg156 2.141 . S
O163 C161 1.289 . S
O164 Mg156 2.048 . S
O164 C157 1.195 . S
O165 Mg156 2.048 . S
O165 C166 1.195 . S
C166 O165 1.195 . S
C166 O167 1.313 . S
O167 C166 1.313 . S
O168 Mg156 2.141 . S
O168 C159 1.289 . S
Mg169 O176 2.141 . S
Mg169 O177 2.048 . S
Mg169 O178 2.048 . S
Mg169 O181 2.141 . S
C170 O171 1.313 . S
C170 O177 1.195 . S
O171 C170 1.313 . S
C172 O173 1.245 . S
C172 O181 1.289 . S
O173 C172 1.245 . S
C174 O175 1.245 . S
C174 O176 1.289 . S
O175 C174 1.245 . S
O176 Mg169 2.141 . S
O176 C174 1.289 . S
O177 Mg169 2.048 . S
O177 C170 1.195 . S
O178 Mg169 2.048 . S
O178 C179 1.195 . S
C179 O178 1.195 . S
C179 O180 1.313 . S
O180 C179 1.313 . S
O181 Mg169 2.141 . S
O181 C172 1.289 . S
Mg182 O189 2.141 . S
Mg182 O190 2.048 . S
Mg182 O191 2.048 . S
Mg182 O194 2.141 . S
C183 O184 1.313 . S
C183 O190 1.195 . S
O184 C183 1.313 . S
C185 O186 1.245 . S
C185 O194 1.289 . S
O186 C185 1.245 . S
C187 O188 1.245 . S
C187 O189 1.289 . S
O188 C187 1.245 . S
O189 Mg182 2.141 . S
O189 C187 1.289 . S
O190 Mg182 2.048 . S
O190 C183 1.195 . S
O191 Mg182 2.048 . S
O191 C192 1.195 . S
C192 O191 1.195 . S
C192 O193 1.313 . S
O193 C192 1.313 . S
O194 Mg182 2.141 . S
O194 C185 1.289 . S
Mg195 O202 2.141 . S
Mg195 O203 2.048 . S
Mg195 O204 2.048 . S
Mg195 O207 2.141 . S
C196 O197 1.313 . S
C196 O203 1.195 . S
O197 C196 1.313 . S
C198 O199 1.245 . S
C198 O207 1.289 . S
O199 C198 1.245 . S
C200 O201 1.245 . S
C200 O202 1.289 . S
O201 C200 1.245 . S
O202 Mg195 2.141 . S
O202 C200 1.289 . S
O203 Mg195 2.048 . S
O203 C196 1.195 . S
O204 Mg195 2.048 . S
O204 C205 1.195 . S
C205 O204 1.195 . S
C205 O206 1.313 . S
O206 C205 1.313 . S
O207 Mg195 2.141 . S
O207 C198 1.289 . S
Mg208 O215 2.141 . S
Mg208 O216 2.048 . S
Mg208 O217 2.048 . S
Mg208 O220 2.141 . S
C209 O210 1.313 . S
C209 O216 1.195 . S
O210 C209 1.313 . S
C211 O212 1.245 . S
C211 O220 1.289 . S
O212 C211 1.245 . S
C213 O214 1.245 . S
C213 O215 1.289 . S
O214 C213 1.245 . S
O215 Mg208 2.141 . S
O215 C213 1.289 . S
O216 Mg208 2.048 . S
O216 C209 1.195 . S
O217 Mg208 2.048 . S
O217 C218 1.195 . S
C218 O217 1.195 . S
C218 O219 1.313 . S
O219 C218 1.313 . S
O220 Mg208 2.141 . S
O220 C211 1.289 . S
Mg221 O228 2.141 . S
Mg221 O229 2.048 . S
Mg221 O230 2.048 . S
Mg221 O233 2.141 . S
C222 O223 1.313 . S
C222 O229 1.195 . S
O223 C222 1.313 . S
C224 O225 1.245 . S
C224 O233 1.289 . S
O225 C224 1.245 . S
C226 O227 1.245 . S
C226 O228 1.289 . S
O227 C226 1.245 . S
O228 Mg221 2.141 . S
O228 C226 1.289 . S
O229 Mg221 2.048 . S
O229 C222 1.195 . S
O230 Mg221 2.048 . S
O230 C231 1.195 . S
C231 O230 1.195 . S
C231 O232 1.313 . S
O232 C231 1.313 . S
O233 Mg221 2.141 . S
O233 C224 1.289 . S
Mg234 O241 2.141 . S
Mg234 O242 2.048 . S
Mg234 O243 2.048 . S
Mg234 O246 2.141 . S
C235 O236 1.313 . S
C235 O242 1.195 . S
O236 C235 1.313 . S
C237 O238 1.245 . S
C237 O246 1.289 . S
O238 C237 1.245 . S
C239 O240 1.245 . S
C239 O241 1.289 . S
O240 C239 1.245 . S
O241 Mg234 2.141 . S
O241 C239 1.289 . S
O242 Mg234 2.048 . S
O242 C235 1.195 . S
O243 Mg234 2.048 . S
O243 C244 1.195 . S
C244 O243 1.195 . S
C244 O245 1.313 . S
O245 C244 1.313 . S
O246 Mg234 2.141 . S
O246 C237 1.289 . S
Mg247 O254 2.141 . S
Mg247 O255 2.048 . S
Mg247 O256 2.048 . S
Mg247 O259 2.141 . S
C248 O249 1.313 . S
C248 O255 1.195 . S
O249 C248 1.313 . S
C250 O251 1.245 . S
C250 O259 1.289 . S
O251 C250 1.245 . S
C252 O253 1.245 . S
C252 O254 1.289 . S
O253 C252 1.245 . S
O254 Mg247 2.141 . S
O254 C252 1.289 . S
O255 Mg247 2.048 . S
O255 C248 1.195 . S
O256 Mg247 2.048 . S
O256 C257 1.195 . S
C257 O256 1.195 . S
C257 O258 1.313 . S
O258 C257 1.313 . S
O259 Mg247 2.141 . S
O259 C250 1.289 . S
Mg260 O267 2.141 . S
Mg260 O268 2.048 . S
Mg260 O269 2.048 . S
Mg260 O272 2.141 . S
C261 O262 1.313 . S
C261 O268 1.195 . S
O262 C261 1.313 . S
C263 O264 1.245 . S
C263 O272 1.289 . S
O264 C263 1.245 . S
C265 O266 1.245 . S
C265 O267 1.289 . S
O266 C265 1.245 . S
O267 Mg260 2.141 . S
O267 C265 1.289 . S
O268 Mg260 2.048 . S
O268 C261 1.195 . S
O269 Mg260 2.048 . S
O269 C270 1.195 . S
C270 O269 1.195 . S
C270 O271 1.313 . S
O271 C270 1.313 . S
O272 Mg260 2.141 . S
O272 C263 1.289 . S
Mg273 O280 2.141 . S
Mg273 O281 2.048 . S
Mg273 O282 2.048 . S
Mg273 O285 2.141 . S
C274 O275 1.313 . S
C274 O281 1.195 . S
O275 C274 1.313 . S
C276 O277 1.245 . S
C276 O285 1.289 . S
O277 C276 1.245 . S
C278 O279 1.245 . S
C278 O280 1.289 . S
O279 C278 1.245 . S
O280 Mg273 2.141 . S
O280 C278 1.289 . S
O281 Mg273 2.048 . S
O281 C274 1.195 . S
O282 Mg273 2.048 . S
O282 C283 1.195 . S
C283 O282 1.195 . S
C283 O284 1.313 . S
O284 C283 1.313 . S
O285 Mg273 2.141 . S
O285 C276 1.289 . S
Mg286 O293 2.141 . S
Mg286 O294 2.048 . S
Mg286 O295 2.048 . S
Mg286 O298 2.141 . S
C287 O288 1.313 . S
C287 O294 1.195 . S
O288 C287 1.313 . S
C289 O290 1.245 . S
C289 O298 1.289 . S
O290 C289 1.245 . S
C291 O292 1.245 . S
C291 O293 1.289 . S
O292 C291 1.245 . S
O293 Mg286 2.141 . S
O293 C291 1.289 . S
O294 Mg286 2.048 . S
O294 C287 1.195 . S
O295 Mg286 2.048 . S
O295 C296 1.195 . S
C296 O295 1.195 . S
C296 O297 1.313 . S
O297 C296 1.313 . S
O298 Mg286 2.141 . S
O298 C289 1.289 . S
Mg299 O306 2.141 . S
Mg299 O307 2.048 . S
Mg299 O308 2.048 . S
Mg299 O311 2.141 . S
C300 O301 1.313 . S
C300 O307 1.195 . S
O301 C300 1.313 . S
C302 O303 1.245 . S
C302 O311 1.289 . S
O303 C302 1.245 . S
C304 O305 1.245 . S
C304 O306 1.289 . S
O305 C304 1.245 . S
O306 Mg299 2.141 . S
O306 C304 1.289 . S
O307 Mg299 2.048 . S
O307 C300 1.195 . S
O308 Mg299 2.048 . S
O308 C309 1.195 . S
C309 O308 1.195 . S
C309 O310 1.313 . S
O310 C309 1.313 . S
O311 Mg299 2.141 . S
O311 C302 1.289 . S
Mg312 O319 2.141 . S
Mg312 O320 2.048 . S
Mg312 O321 2.048 . S
Mg312 O324 2.141 . S
C313 O314 1.313 . S
C313 O320 1.195 . S
O314 C313 1.313 . S
C315 O316 1.245 . S
C315 O324 1.289 . S
O316 C315 1.245 . S
C317 O318 1.245 . S
C317 O319 1.289 . S
O318 C317 1.245 . S
O319 Mg312 2.141 . S
O319 C317 1.289 . S
O320 Mg312 2.048 . S
O320 C313 1.195 . S
O321 Mg312 2.048 . S
O321 C322 1.195 . S
C322 O321 1.195 . S
C322 O323 1.313 . S
O323 C322 1.313 . S
O324 Mg312 2.141 . S
O324 C315 1.289 . S
Mg325 O332 2.141 . S
Mg325 O333 2.048 . S
Mg325 O334 2.048 . S
Mg325 O337 2.141 . S
C326 O327 1.313 . S
C326 O333 1.195 . S
O327 C326 1.313 . S
C328 O329 1.245 . S
C328 O337 1.289 . S
O329 C328 1.245 . S
C330 O331 1.245 . S
C330 O332 1.289 . S
O331 C330 1.245 . S
O332 Mg325 2.141 . S
O332 C330 1.289 . S
O333 Mg325 2.048 . S
O333 C326 1.195 . S
O334 Mg325 2.048 . S
O334 C335 1.195 . S
C335 O334 1.195 . S
C335 O336 1.313 . S
O336 C335 1.313 . S
O337 Mg325 2.141 . S
O337 C328 1.289 . S
Mg338 O345 2.141 . S
Mg338 O346 2.048 . S
Mg338 O347 2.048 . S
Mg338 O350 2.141 . S
C339 O340 1.313 . S
C339 O346 1.195 . S
O340 C339 1.313 . S
C341 O342 1.245 . S
C341 O350 1.289 . S
O342 C341 1.245 . S
C343 O344 1.245 . S
C343 O345 1.289 . S
O344 C343 1.245 . S
O345 Mg338 2.141 . S
O345 C343 1.289 . S
O346 Mg338 2.048 . S
O346 C339 1.195 . S
O347 Mg338 2.048 . S
O347 C348 1.195 . S
C348 O347 1.195 . S
C348 O349 1.313 . S
O349 C348 1.313 . S
O350 Mg338 2.141 . S
O350 C341 1.289 . S
Mg351 O358 2.141 . S
Mg351 O359 2.048 . S
Mg351 O360 2.048 . S
Mg351 O363 2.141 . S
C352 O353 1.313 . S
C352 O359 1.195 . S
O353 C352 1.313 . S
C354 O355 1.245 . S
C354 O363 1.289 . S
O355 C354 1.245 . S
C356 O357 1.245 . S
C356 O358 1.289 . S
O357 C356 1.245 . S
O358 Mg351 2.141 . S
O358 C356 1.289 . S
O359 Mg351 2.048 . S
O359 C352 1.195 . S
O360 Mg351 2.048 . S
O360 C361 1.195 . S
C361 O360 1.195 . S
C361 O362 1.313 . S
O362 C361 1.313 . S
O363 Mg351 2.141 . S
O363 C354 1.289 . S
Mg364 O371 2.141 . S
Mg364 O372 2.048 . S
Mg364 O373 2.048 . S
Mg364 O376 2.141 . S
C365 O366 1.313 . S
C365 O372 1.195 . S
O366 C365 1.313 . S
C367 O368 1.245 . S
C367 O376 1.289 . S
O368 C367 1.245 . S
C369 O370 1.245 . S
C369 O371 1.289 . S
O370 C369 1.245 . S
O371 Mg364 2.141 . S
O371 C369 1.289 . S
O372 Mg364 2.048 . S
O372 C365 1.195 . S
O373 Mg364 2.048 . S
O373 C374 1.195 . S
C374 O373 1.195 . S
C374 O375 1.313 . S
O375 C374 1.313 . S
O376 Mg364 2.141 . S
O376 C367 1.289 . S
Mg377 O384 2.141 . S
Mg377 O385 2.048 . S
Mg377 O386 2.048 . S
Mg377 O389 2.141 . S
C378 O379 1.313 . S
C378 O385 1.195 . S
O379 C378 1.313 . S
C380 O381 1.245 . S
C380 O389 1.289 . S
O381 C380 1.245 . S
C382 O383 1.245 . S
C382 O384 1.289 . S
O383 C382 1.245 . S
O384 Mg377 2.141 . S
O384 C382 1.289 . S
O385 Mg377 2.048 . S
O385 C378 1.195 . S
O386 Mg377 2.048 . S
O386 C387 1.195 . S
C387 O386 1.195 . S
C387 O388 1.313 . S
O388 C387 1.313 . S
O389 Mg377 2.141 . S
O389 C380 1.289 . S
Mg390 O397 2.141 . S
Mg390 O398 2.048 . S
Mg390 O399 2.048 . S
Mg390 O402 2.141 . S
C391 O392 1.313 . S
C391 O398 1.195 . S
O392 C391 1.313 . S
C393 O394 1.245 . S
C393 O402 1.289 . S
O394 C393 1.245 . S
C395 O396 1.245 . S
C395 O397 1.289 . S
O396 C395 1.245 . S
O397 Mg390 2.141 . S
O397 C395 1.289 . S
O398 Mg390 2.048 . S
O398 C391 1.195 . S
O399 Mg390 2.048 . S
O399 C400 1.195 . S
C400 O399 1.195 . S
C400 O401 1.313 . S
O401 C400 1.313 . S
O402 Mg390 2.141 . S
O402 C393 1.289 . S
Mg403 O410 2.141 . S
Mg403 O411 2.048 . S
Mg403 O412 2.048 . S
Mg403 O415 2.141 . S
C404 O405 1.313 . S
C404 O411 1.195 . S
O405 C404 1.313 . S
C406 O407 1.245 . S
C406 O415 1.289 . S
O407 C406 1.245 . S
C408 O409 1.245 . S
C408 O410 1.289 . S
O409 C408 1.245 . S
O410 Mg403 2.141 . S
O410 C408 1.289 . S
O411 Mg403 2.048 . S
O411 C404 1.195 . S
O412 Mg403 2.048 . S
O412 C413 1.195 . S
C413 O412 1.195 . S
C413 O414 1.313 . S
O414 C413 1.313 . S
O415 Mg403 2.141 . S
O415 C406 1.289 . S
Mg416 O423 2.141 . S
Mg416 O424 2.048 . S
Mg416 O425 2.048 . S
Mg416 O428 2.141 . S
C417 O418 1.313 . S
C417 O424 1.195 . S
O418 C417 1.313 . S
C419 O420 1.245 . S
C419 O428 1.289 . S
O420 C419 1.245 . S
C421 O422 1.245 . S
C421 O423 1.289 . S
O422 C421 1.245 . S
O423 Mg416 2.141 . S
O423 C421 1.289 . S
O424 Mg416 2.048 . S
O424 C417 1.195 . S
O425 Mg416 2.048 . S
O425 C426 1.195 . S
C426 O425 1.195 . S
C426 O427 1.313 . S
O427 C426 1.313 . S
O428 Mg416 2.141 . S
O428 C419 1.289 . S
Mg429 O436 2.141 . S
Mg429 O437 2.048 . S
Mg429 O438 2.048 . S
Mg429 O441 2.141 . S
C430 O431 1.313 . S
C430 O437 1.195 . S
O431 C430 1.313 . S
C432 O433 1.245 . S
C432 O441 1.289 . S
O433 C432 1.245 . S
C434 O435 1.245 . S
C434 O436 1.289 . S
O435 C434 1.245 . S
O436 Mg429 2.141 . S
O436 C434 1.289 . S
O437 Mg429 2.048 . S
O437 C430 1.195 . S
O438 Mg429 2.048 . S
O438 C439 1.195 . S
C439 O438 1.195 . S
C439 O440 1.313 . S
O440 C439 1.313 . S
O441 Mg429 2.141 . S
O441 C432 1.289 . S
Mg442 O449 2.141 . S
Mg442 O450 2.048 . S
Mg442 O451 2.048 . S
Mg442 O454 2.141 . S
C443 O444 1.313 . S
C443 O450 1.195 . S
O444 C443 1.313 . S
C445 O446 1.245 . S
C445 O454 1.289 . S
O446 C445 1.245 . S
C447 O448 1.245 . S
C447 O449 1.289 . S
O448 C447 1.245 . S
O449 Mg442 2.141 . S
O449 C447 1.289 . S
O450 Mg442 2.048 . S
O450 C443 1.195 . S
O451 Mg442 2.048 . S
O451 C452 1.195 . S
C452 O451 1.195 . S
C452 O453 1.313 . S
O453 C452 1.313 . S
O454 Mg442 2.141 . S
O454 C445 1.289 . S
Mg455 O462 2.141 . S
Mg455 O463 2.048 . S
Mg455 O464 2.048 . S
Mg455 O467 2.141 . S
C456 O457 1.313 . S
C456 O463 1.195 . S
O457 C456 1.313 . S
C458 O459 1.245 . S
C458 O467 1.289 . S
O459 C458 1.245 . S
C460 O461 1.245 . S
C460 O462 1.289 . S
O461 C460 1.245 . S
O462 Mg455 2.141 . S
O462 C460 1.289 . S
O463 Mg455 2.048 . S
O463 C456 1.195 . S
O464 Mg455 2.048 . S
O464 C465 1.195 . S
C465 O464 1.195 . S
C465 O466 1.313 . S
O466 C465 1.313 . S
O467 Mg455 2.141 . S
O467 C458 1.289 . S
Mg468 O475 2.141 . S
Mg468 O476 2.048 . S
Mg468 O477 2.048 . S
Mg468 O480 2.141 . S
C469 O470 1.313 . S
C469 O476 1.195 . S
O470 C469 1.313 . S
C471 O472 1.245 . S
C471 O480 1.289 . S
O472 C471 1.245 . S
C473 O474 1.245 . S
C473 O475 1.289 . S
O474 C473 1.245 . S
O475 Mg468 2.141 . S
O475 C473 1.289 . S
O476 Mg468 2.048 . S
O476 C469 1.195 . S
O477 Mg468 2.048 . S
O477 C478 1.195 . S
C478 O477 1.195 . S
C478 O479 1.313 . S
O479 C478 1.313 . S
O480 Mg468 2.141 . S
O480 C471 1.289 . S
Mg481 O488 2.141 . S
Mg481 O489 2.048 . S
Mg481 O490 2.048 . S
Mg481 O493 2.141 . S
C482 O483 1.313 . S
C482 O489 1.195 . S
O483 C482 1.313 . S
C484 O485 1.245 . S
C484 O493 1.289 . S
O485 C484 1.245 . S
C486 O487 1.245 . S
C486 O488 1.289 . S
O487 C486 1.245 . S
O488 Mg481 2.141 . S
O488 C486 1.289 . S
O489 Mg481 2.048 . S
O489 C482 1.195 . S
O490 Mg481 2.048 . S
O490 C491 1.195 . S
C491 O490 1.195 . S
C491 O492 1.313 . S
O492 C491 1.313 . S
O493 Mg481 2.141 . S
O493 C484 1.289 . S
Mg494 O501 2.141 . S
Mg494 O502 2.048 . S
Mg494 O503 2.048 . S
Mg494 O506 2.141 . S
C495 O496 1.313 . S
C495 O502 1.195 . S
O496 C495 1.313 . S
C497 O498 1.245 . S
C497 O506 1.289 . S
O498 C497 1.245 . S
C499 O500 1.245 . S
C499 O501 1.289 . S
O500 C499 1.245 . S
O501 Mg494 2.141 . S
O501 C499 1.289 . S
O502 Mg494 2.048 . S
O502 C495 1.195 . S
O503 Mg494 2.048 . S
O503 C504 1.195 . S
C504 O503 1.195 . S
C504 O505 1.313 . S
O505 C504 1.313 . S
O506 Mg494 2.141 . S
O506 C497 1.289 . S
Mg507 O514 2.141 . S
Mg507 O515 2.048 . S
Mg507 O516 2.048 . S
Mg507 O519 2.141 . S
C508 O509 1.313 . S
C508 O515 1.195 . S
O509 C508 1.313 . S
C510 O511 1.245 . S
C510 O519 1.289 . S
O511 C510 1.245 . S
C512 O513 1.245 . S
C512 O514 1.289 . S
O513 C512 1.245 . S
O514 Mg507 2.141 . S
O514 C512 1.289 . S
O515 Mg507 2.048 . S
O515 C508 1.195 . S
O516 Mg507 2.048 . S
O516 C517 1.195 . S
C517 O516 1.195 . S
C517 O518 1.313 . S
O518 C517 1.313 . S
O519 Mg507 2.141 . S
O519 C510 1.289 . S
Mg520 O527 2.141 . S
Mg520 O528 2.048 . S
Mg520 O529 2.048 . S
Mg520 O532 2.141 . S
C521 O522 1.313 . S
C521 O528 1.195 . S
O522 C521 1.313 . S
C523 O524 1.245 . S
C523 O532 1.289 . S
O524 C523 1.245 . S
C525 O526 1.245 . S
C525 O527 1.289 . S
O526 C525 1.245 . S
O527 Mg520 2.141 . S
O527 C525 1.289 . S
O528 Mg520 2.048 . S
O528 C521 1.195 . S
O529 Mg520 2.048 . S
O529 C530 1.195 . S
C530 O529 1.195 . S
C530 O531 1.313 . S
O531 C530 1.313 . S
O532 Mg520 2.141 . S
O532 C523 1.289 . S
Mg533 O540 2.141 . S
Mg533 O541 2.048 . S
Mg533 O542 2.048 . S
Mg533 O545 2.141 . S
C534 O535 1.313 . S
C534 O541 1.195 . S
O535 C534 1.313 . S
C536 O537 1.245 . S
C536 O545 1.289 . S
O537 C536 1.245 . S
C538 O539 1.245 . S
C538 O540 1.289 . S
O539 C538 1.245 . S
O540 Mg533 2.141 . S
O540 C538 1.289 . S
O541 Mg533 2.048 . S
O541 C534 1.195 . S
O542 Mg533 2.048 . S
O542 C543 1.195 . S
C543 O542 1.195 . S
C543 O544 1.313 . S
O544 C543 1.313 . S
O545 Mg533 2.141 . S
O545 C536 1.289 . S
Mg546 O553 2.141 . S
Mg546 O554 2.048 . S
Mg546 O555 2.048 . S
Mg546 O558 2.141 . S
C547 O548 1.313 . S
C547 O554 1.195 . S
O548 C547 1.313 . S
C549 O550 1.245 . S
C549 O558 1.289 . S
O550 C549 1.245 . S
C551 O552 1.245 . S
C551 O553 1.289 . S
O552 C551 1.245 . S
O553 Mg546 2.141 . S
O553 C551 1.289 . S
O554 Mg546 2.048 . S
O554 C547 1.195 . S
O555 Mg546 2.048 . S
O555 C556 1.195 . S
C556 O555 1.195 . S
C556 O557 1.313 . S
O557 C556 1.313 . S
O558 Mg546 2.141 . S
O558 C549 1.289 . S
Mg559 O566 2.141 . S
Mg559 O567 2.048 . S
Mg559 O568 2.048 . S
Mg559 O571 2.141 . S
C560 O561 1.313 . S
C560 O567 1.195 . S
O561 C560 1.313 . S
C562 O563 1.245 . S
C562 O571 1.289 . S
O563 C562 1.245 . S
C564 O565 1.245 . S
C564 O566 1.289 . S
O565 C564 1.245 . S
O566 Mg559 2.141 . S
O566 C564 1.289 . S
O567 Mg559 2.048 . S
O567 C560 1.195 . S
O568 Mg559 2.048 . S
O568 C569 1.195 . S
C569 O568 1.195 . S
C569 O570 1.313 . S
O570 C569 1.313 . S
O571 Mg559 2.141 . S
O571 C562 1.289 . S
Mg572 O579 2.141 . S
Mg572 O580 2.048 . S
Mg572 O581 2.048 . S
Mg572 O584 2.141 . S
C573 O574 1.313 . S
C573 O580 1.195 . S
O574 C573 1.313 . S
C575 O576 1.245 . S
C575 O584 1.289 . S
O576 C575 1.245 . S
C577 O578 1.245 . S
C577 O579 1.289 . S
O578 C577 1.245 . S
O579 Mg572 2.141 . S
O579 C577 1.289 . S
O580 Mg572 2.048 . S
O580 C573 1.195 . S
O581 Mg572 2.048 . S
O581 C582 1.195 . S
C582 O581 1.195 . S
C582 O583 1.313 . S
O583 C582 1.313 . S
O584 Mg572 2.141 . S
O584 C575 1.289 . S
Mg585 O592 2.141 . S
Mg585 O593 2.048 . S
Mg585 O594 2.048 . S
Mg585 O597 2.141 . S
C586 O587 1.313 . S
C586 O593 1.195 . S
O587 C586 1.313 . S
C588 O589 1.245 . S
C588 O597 1.289 . S
O589 C588 1.245 . S
C590 O591 1.245 . S
C590 O592 1.289 . S
O591 C590 1.245 . S
O592 Mg585 2.141 . S
O592 C590 1.289 . S
O593 Mg585 2.048 . S
O593 C586 1.195 . S
O594 Mg585 2.048 . S
O594 C595 1.195 . S
C595 O594 1.195 . S
C595 O596 1.313 . S
O596 C595 1.313 . S
O597 Mg585 2.141 . S
O597 C588 1.289 . S
Mg598 O605 2.141 . S
Mg598 O606 2.048 . S
Mg598 O607 2.048 . S
Mg598 O610 2.141 . S
C599 O600 1.313 . S
C599 O606 1.195 . S
O600 C599 1.313 . S
C601 O602 1.245 . S
C601 O610 1.289 . S
O602 C601 1.245 . S
C603 O604 1.245 . S
C603 O605 1.289 . S
O604 C603 1.245 . S
O605 Mg598 2.141 . S
O605 C603 1.289 . S
O606 Mg598 2.048 . S
O606 C599 1.195 . S
O607 Mg598 2.048 . S
O607 C608 1.195 . S
C608 O607 1.195 . S
C608 O609 1.313 . S
O609 C608 1.313 . S
O610 Mg598 2.141 . S
O610 C601 1.289 . S
Mg611 O618 2.141 . S
Mg611 O619 2.048 . S
Mg611 O620 2.048 . S
Mg611 O623 2.141 . S
C612 O613 1.313 . S
C612 O619 1.195 . S
O613 C612 1.313 . S
C614 O615 1.245 . S
C614 O623 1.289 . S
O615 C614 1.245 . S
C616 O617 1.245 . S
C616 O618 1.289 . S
O617 C616 1.245 . S
O618 Mg611 2.141 . S
O618 C616 1.289 . S
O619 Mg611 2.048 . S
O619 C612 1.195 . S
O620 Mg611 2.048 . S
O620 C621 1.195 . S
C621 O620 1.195 . S
C621 O622 1.313 . S
O622 C621 1.313 . S
O623 Mg611 2.141 . S
O623 C614 1.289 . S
Mg624 O631 2.141 . S
Mg624 O632 2.048 . S
Mg624 O633 2.048 . S
Mg624 O636 2.141 . S
C625 O626 1.313 . S
C625 O632 1.195 . S
O626 C625 1.313 . S
C627 O628 1.245 . S
C627 O636 1.289 . S
O628 C627 1.245 . S
C629 O630 1.245 . S
C629 O631 1.289 . S
O630 C629 1.245 . S
O631 Mg624 2.141 . S
O631 C629 1.289 . S
O632 Mg624 2.048 . S
O632 C625 1.195 . S
O633 Mg624 2.048 . S
O633 C634 1.195 . S
C634 O633 1.195 . S
C634 O635 1.313 . S
O635 C634 1.313 . S
O636 Mg624 2.141 . S
O636 C627 1.289 . S
Mg637 O644 2.141 . S
Mg637 O645 2.048 . S
Mg637 O646 2.048 . S
Mg637 O649 2.141 . S
C638 O639 1.313 . S
C638 O645 1.195 . S
O639 C638 1.313 . S
C640 O641 1.245 . S
C640 O649 1.289 . S
O641 C640 1.245 . S
C642 O643 1.245 . S
C642 O644 1.289 . S
O643 C642 1.245 . S
O644 Mg637 2.141 . S
O644 C642 1.289 . S
O645 Mg637 2.048 . S
O645 C638 1.195 . S
O646 Mg637 2.048 . S
O646 C647 1.195 . S
C647 O646 1.195 . S
C647 O648 1.313 . S
O648 C647 1.313 . S
O649 Mg637 2.141 . S
O649 C640 1.289 . S
Mg650 O657 2.141 . S
Mg650 O658 2.048 . S
Mg650 O659 2.048 . S
Mg650 O662 2.141 . S
C651 O652 1.313 . S
C651 O658 1.195 . S
O652 C651 1.313 . S
C653 O654 1.245 . S
C653 O662 1.289 . S
O654 C653 1.245 . S
C655 O656 1.245 . S
C655 O657 1.289 . S
O656 C655 1.245 . S
O657 Mg650 2.141 . S
O657 C655 1.289 . S
O658 Mg650 2.048 . S
O658 C651 1.195 . S
O659 Mg650 2.048 . S
O659 C660 1.195 . S
C660 O659 1.195 . S
C660 O661 1.313 . S
O661 C660 1.313 . S
O662 Mg650 2.141 . S
O662 C653 1.289 . S
Mg663 O670 2.141 . S
Mg663 O671 2.048 . S
Mg663 O672 2.048 . S
Mg663 O675 2.141 . S
C664 O665 1.313 . S
C664 O671 1.195 . S
O665 C664 1.313 . S
C666 O667 1.245 . S
C666 O675 1.289 . S
O667 C666 1.245 . S
C668 O669 1.245 . S
C668 O670 1.289 . S
O669 C668 1.245 . S
O670 Mg663 2.141 . S
O670 C668 1.289 . S
O671 Mg663 2.048 . S
O671 C664 1.195 . S
O672 Mg663 2.048 . S
O672 C673 1.195 . S
C673 O672 1.195 . S
C673 O674 1.313 . S
O674 C673 1.313 . S
O675 Mg663 2.141 . S
O675 C666 1.289 . S
Mg676 O683 2.141 . S
Mg676 O684 2.048 . S
Mg676 O685 2.048 . S
Mg676 O688 2.141 . S
C677 O678 1.313 . S
C677 O684 1.195 . S
O678 C677 1.313 . S
C679 O680 1.245 . S
C679 O688 1.289 . S
O680 C679 1.245 . S
C681 O682 1.245 . S
C681 O683 1.289 . S
O682 C681 1.245 . S
O683 Mg676 2.141 . S
O683 C681 1.289 . S
O684 Mg676 2.048 . S
O684 C677 1.195 . S
O685 Mg676 2.048 . S
O685 C686 1.195 . S
C686 O685 1.195 . S
C686 O687 1.313 . S
O687 C686 1.313 . S
O688 Mg676 2.141 . S
O688 C679 1.289 . S
Mg689 O696 2.141 . S
Mg689 O697 2.048 . S
Mg689 O698 2.048 . S
Mg689 O701 2.141 . S
C690 O691 1.313 . S
C690 O697 1.195 . S
O691 C690 1.313 . S
C692 O693 1.245 . S
C692 O701 1.289 . S
O693 C692 1.245 . S
C694 O695 1.245 . S
C694 O696 1.289 . S
O695 C694 1.245 . S
O696 Mg689 2.141 . S
O696 C694 1.289 . S
O697 Mg689 2.048 . S
O697 C690 1.195 . S
O698 Mg689 2.048 . S
O698 C699 1.195 . S
C699 O698 1.195 . S
C699 O700 1.313 . S
O700 C699 1.313 . S
O701 Mg689 2.141 . S
O701 C692 1.289 . S
Mg702 O709 2.141 . S
Mg702 O710 2.048 . S
Mg702 O711 2.048 . S
Mg702 O714 2.141 . S
C703 O704 1.313 . S
C703 O710 1.195 . S
O704 C703 1.313 . S
C705 O706 1.245 . S
C705 O714 1.289 . S
O706 C705 1.245 . S
C707 O708 1.245 . S
C707 O709 1.289 . S
O708 C707 1.245 . S
O709 Mg702 2.141 . S
O709 C707 1.289 . S
O710 Mg702 2.048 . S
O710 C703 1.195 . S
O711 Mg702 2.048 . S
O711 C712 1.195 . S
C712 O711 1.195 . S
C712 O713 1.313 . S
O713 C712 1.313 . S
O714 Mg702 2.141 . S
O714 C705 1.289 . S
Mg715 O722 2.141 . S
Mg715 O723 2.048 . S
Mg715 O724 2.048 . S
Mg715 O727 2.141 . S
C716 O717 1.313 . S
C716 O723 1.195 . S
O717 C716 1.313 . S
C718 O719 1.245 . S
C718 O727 1.289 . S
O719 C718 1.245 . S
C720 O721 1.245 . S
C720 O722 1.289 . S
O721 C720 1.245 . S
O722 Mg715 2.141 . S
O722 C720 1.289 . S
O723 Mg715 2.048 . S
O723 C716 1.195 . S
O724 Mg715 2.048 . S
O724 C725 1.195 . S
C725 O724 1.195 . S
C725 O726 1.313 . S
O726 C725 1.313 . S
O727 Mg715 2.141 . S
O727 C718 1.289 . S
Mg728 O735 2.141 . S
Mg728 O736 2.048 . S
Mg728 O737 2.048 . S
Mg728 O740 2.141 . S
C729 O730 1.313 . S
C729 O736 1.195 . S
O730 C729 1.313 . S
C731 O732 1.245 . S
C731 O740 1.289 . S
O732 C731 1.245 . S
C733 O734 1.245 . S
C733 O735 1.289 . S
O734 C733 1.245 . S
O735 Mg728 2.141 . S
O735 C733 1.289 . S
O736 Mg728 2.048 . S
O736 C729 1.195 . S
O737 Mg728 2.048 . S
O737 C738 1.195 . S
C738 O737 1.195 . S
C738 O739 1.313 . S
O739 C738 1.313 . S
O740 Mg728 2.141 . S
O740 C731 1.289 . S
Mg741 O748 2.141 . S
Mg741 O749 2.048 . S
Mg741 O750 2.048 . S
Mg741 O753 2.141 . S
C742 O743 1.313 . S
C742 O749 1.195 . S
O743 C742 1.313 . S
C744 O745 1.245 . S
C744 O753 1.289 . S
O745 C744 1.245 . S
C746 O747 1.245 . S
C746 O748 1.289 . S
O747 C746 1.245 . S
O748 Mg741 2.141 . S
O748 C746 1.289 . S
O749 Mg741 2.048 . S
O749 C742 1.195 . S
O750 Mg741 2.048 . S
O750 C751 1.195 . S
C751 O750 1.195 . S
C751 O752 1.313 . S
O752 C751 1.313 . S
O753 Mg741 2.141 . S
O753 C744 1.289 . S
Mg754 O761 2.141 . S
Mg754 O762 2.048 . S
Mg754 O763 2.048 . S
Mg754 O766 2.141 . S
C755 O756 1.313 . S
C755 O762 1.195 . S
O756 C755 1.313 . S
C757 O758 1.245 . S
C757 O766 1.289 . S
O758 C757 1.245 . S
C759 O760 1.245 . S
C759 O761 1.289 . S
O760 C759 1.245 . S
O761 Mg754 2.141 . S
O761 C759 1.289 . S
O762 Mg754 2.048 . S
O762 C755 1.195 . S
O763 Mg754 2.048 . S
O763 C764 1.195 . S
C764 O763 1.195 . S
C764 O765 1.313 . S
O765 C764 1.313 . S
O766 Mg754 2.141 . S
O766 C757 1.289 . S
Mg767 O774 2.141 . S
Mg767 O775 2.048 . S
Mg767 O776 2.048 . S
Mg767 O779 2.141 . S
C768 O769 1.313 . S
C768 O775 1.195 . S
O769 C768 1.313 . S
C770 O771 1.245 . S
C770 O779 1.289 . S
O771 C770 1.245 . S
C772 O773 1.245 . S
C772 O774 1.289 . S
O773 C772 1.245 . S
O774 Mg767 2.141 . S
O774 C772 1.289 . S
O775 Mg767 2.048 . S
O775 C768 1.195 . S
O776 Mg767 2.048 . S
O776 C777 1.195 . S
C777 O776 1.195 . S
C777 O778 1.313 . S
O778 C777 1.313 . S
O779 Mg767 2.141 . S
O779 C770 1.289 . S
Mg780 O787 2.141 . S
Mg780 O788 2.048 . S
Mg780 O789 2.048 . S
Mg780 O792 2.141 . S
C781 O782 1.313 . S
C781 O788 1.195 . S
O782 C781 1.313 . S
C783 O784 1.245 . S
C783 O792 1.289 . S
O784 C783 1.245 . S
C785 O786 1.245 . S
C785 O787 1.289 . S
O786 C785 1.245 . S
O787 Mg780 2.141 . S
O787 C785 1.289 . S
O788 Mg780 2.048 . S
O788 C781 1.195 . S
O789 Mg780 2.048 . S
O789 C790 1.195 . S
C790 O789 1.195 . S
C790 O791 1.313 . S
O791 C790 1.313 . S
O792 Mg780 2.141 . S
O792 C783 1.289 . S
Mg793 O800 2.141 . S
Mg793 O801 2.048 . S
Mg793 O802 2.048 . S
Mg793 O805 2.141 . S
C794 O795 1.313 . S
C794 O801 1.195 . S
O795 C794 1.313 . S
C796 O797 1.245 . S
C796 O805 1.289 . S
O797 C796 1.245 . S
C798 O799 1.245 . S
C798 O800 1.289 . S
O799 C798 1.245 . S
O800 Mg793 2.141 . S
O800 C798 1.289 . S
O801 Mg793 2.048 . S
O801 C794 1.195 . S
O802 Mg793 2.048 . S
O802 C803 1.195 . S
C803 O802 1.195 . S
C803 O804 1.313 . S
O804 C803 1.313 . S
O805 Mg793 2.141 . S
O805 C796 1.289 . S
Mg806 O813 2.141 . S
Mg806 O814 2.048 . S
Mg806 O815 2.048 . S
Mg806 O818 2.141 . S
C807 O808 1.313 . S
C807 O814 1.195 . S
O808 C807 1.313 . S
C809 O810 1.245 . S
C809 O818 1.289 . S
O810 C809 1.245 . S
C811 O812 1.245 . S
C811 O813 1.289 . S
O812 C811 1.245 . S
O813 Mg806 2.141 . S
O813 C811 1.289 . S
O814 Mg806 2.048 . S
O814 C807 1.195 . S
O815 Mg806 2.048 . S
O815 C816 1.195 . S
C816 O815 1.195 . S
C816 O817 1.313 . S
O817 C816 1.313 . S
O818 Mg806 2.141 . S
O818 C809 1.289 . S
Mg819 O826 2.141 . S
Mg819 O827 2.048 . S
Mg819 O828 2.048 . S
Mg819 O831 2.141 . S
C820 O821 1.313 . S
C820 O827 1.195 . S
O821 C820 1.313 . S
C822 O823 1.245 . S
C822 O831 1.289 . S
O823 C822 1.245 . S
C824 O825 1.245 . S
C824 O826 1.289 . S
O825 C824 1.245 . S
O826 Mg819 2.141 . S
O826 C824 1.289 . S
O827 Mg819 2.048 . S
O827 C820 1.195 . S
O828 Mg819 2.048 . S
O828 C829 1.195 . S
C829 O828 1.195 . S
C829 O830 1.313 . S
O830 C829 1.313 . S
O831 Mg819 2.141 . S
O831 C822 1.289 . S
Mg832 O839 2.141 . S
Mg832 O840 2.048 . S
Mg832 O841 2.048 . S
Mg832 O844 2.141 . S
C833 O834 1.313 . S
C833 O840 1.195 . S
O834 C833 1.313 . S
C835 O836 1.245 . S
C835 O844 1.289 . S
O836 C835 1.245 . S
C837 O838 1.245 . S
C837 O839 1.289 . S
O838 C837 1.245 . S
O839 Mg832 2.141 . S
O839 C837 1.289 . S
O840 Mg832 2.048 . S
O840 C833 1.195 . S
O841 Mg832 2.048 . S
O841 C842 1.195 . S
C842 O841 1.195 . S
C842 O843 1.313 . S
O843 C842 1.313 . S
O844 Mg832 2.141 . S
O844 C835 1.289 . S
Mg845 O852 2.141 . S
Mg845 O853 2.048 . S
Mg845 O854 2.048 . S
Mg845 O857 2.141 . S
C846 O847 1.313 . S
C846 O853 1.195 . S
O847 C846 1.313 . S
C848 O849 1.245 . S
C848 O857 1.289 . S
O849 C848 1.245 . S
C850 O851 1.245 . S
C850 O852 1.289 . S
O851 C850 1.245 . S
O852 Mg845 2.141 . S
O852 C850 1.289 . S
O853 Mg845 2.048 . S
O853 C846 1.195 . S
O854 Mg845 2.048 . S
O854 C855 1.195 . S
C855 O854 1.195 . S
C855 O856 1.313 . S
O856 C855 1.313 . S
O857 Mg845 2.141 . S
O857 C848 1.289 . S
Mg858 O865 2.141 . S
Mg858 O866 2.048 . S
Mg858 O867 2.048 . S
Mg858 O870 2.141 . S
C859 O860 1.313 . S
C859 O866 1.195 . S
O860 C859 1.313 . S
C861 O862 1.245 . S
C861 O870 1.289 . S
O862 C861 1.245 . S
C863 O864 1.245 . S
C863 O865 1.289 . S
O864 C863 1.245 . S
O865 Mg858 2.141 . S
O865 C863 1.289 . S
O866 Mg858 2.048 . S
O866 C859 1.195 . S
O867 Mg858 2.048 . S
O867 C868 1.195 . S
C868 O867 1.195 . S
C868 O869 1.313 . S
O869 C868 1.313 . S
O870 Mg858 2.141 . S
O870 C861 1.289 . S
Mg871 O878 2.141 . S
Mg871 O879 2.048 . S
Mg871 O880 2.048 . S
Mg871 O883 2.141 . S
C872 O873 1.313 . S
C872 O879 1.195 . S
O873 C872 1.313 . S
C874 O875 1.245 . S
C874 O883 1.289 . S
O875 C874 1.245 . S
C876 O877 1.245 . S
C876 O878 1.289 . S
O877 C876 1.245 . S
O878 Mg871 2.141 . S
O878 C876 1.289 . S
O879 Mg871 2.048 . S
O879 C872 1.195 . S
O880 Mg871 2.048 . S
O880 C881 1.195 . S
C881 O880 1.195 . S
C881 O882 1.313 . S
O882 C881 1.313 . S
O883 Mg871 2.141 . S
O883 C874 1.289 . S
Mg884 O891 2.141 . S
Mg884 O892 2.048 . S
Mg884 O893 2.048 . S
Mg884 O896 2.141 . S
C885 O886 1.313 . S
C885 O892 1.195 . S
O886 C885 1.313 . S
C887 O888 1.245 . S
C887 O896 1.289 . S
O888 C887 1.245 . S
C889 O890 1.245 . S
C889 O891 1.289 . S
O890 C889 1.245 . S
O891 Mg884 2.141 . S
O891 C889 1.289 . S
O892 Mg884 2.048 . S
O892 C885 1.195 . S
O893 Mg884 2.048 . S
O893 C894 1.195 . S
C894 O893 1.195 . S
C894 O895 1.313 . S
O895 C894 1.313 . S
O896 Mg884 2.141 . S
O896 C887 1.289 . S
Mg897 O904 2.141 . S
Mg897 O905 2.048 . S
Mg897 O906 2.048 . S
Mg897 O909 2.141 . S
C898 O899 1.313 . S
C898 O905 1.195 . S
O899 C898 1.313 . S
C900 O901 1.245 . S
C900 O909 1.289 . S
O901 C900 1.245 . S
C902 O903 1.245 . S
C902 O904 1.289 . S
O903 C902 1.245 . S
O904 Mg897 2.141 . S
O904 C902 1.289 . S
O905 Mg897 2.048 . S
O905 C898 1.195 . S
O906 Mg897 2.048 . S
O906 C907 1.195 . S
C907 O906 1.195 . S
C907 O908 1.313 . S
O908 C907 1.313 . S
O909 Mg897 2.141 . S
O909 C900 1.289 . S
Mg910 O917 2.141 . S
Mg910 O918 2.048 . S
Mg910 O919 2.048 . S
Mg910 O922 2.141 . S
C911 O912 1.313 . S
C911 O918 1.195 . S
O912 C911 1.313 . S
C913 O914 1.245 . S
C913 O922 1.289 . S
O914 C913 1.245 . S
C915 O916 1.245 . S
C915 O917 1.289 . S
O916 C915 1.245 . S
O917 Mg910 2.141 . S
O917 C915 1.289 . S
O918 Mg910 2.048 . S
O918 C911 1.195 . S
O919 Mg910 2.048 . S
O919 C920 1.195 . S
C920 O919 1.195 . S
C920 O921 1.313 . S
O921 C920 1.313 . S
O922 Mg910 2.141 . S
O922 C913 1.289 . S
Mg923 O930 2.141 . S
Mg923 O931 2.048 . S
Mg923 O932 2.048 . S
Mg923 O935 2.141 . S
C924 O925 1.313 . S
C924 O931 1.195 . S
O925 C924 1.313 . S
C926 O927 1.245 . S
C926 O935 1.289 . S
O927 C926 1.245 . S
C928 O929 1.245 . S
C928 O930 1.289 . S
O929 C928 1.245 . S
O930 Mg923 2.141 . S
O930 C928 1.289 . S
O931 Mg923 2.048 . S
O931 C924 1.195 . S
O932 Mg923 2.048 . S
O932 C933 1.195 . S
C933 O932 1.195 . S
C933 O934 1.313 . S
O934 C933 1.313 . S
O935 Mg923 2.141 . S
O935 C926 1.289 . S
Mg936 O943 2.141 . S
Mg936 O944 2.048 . S
Mg936 O945 2.048 . S
Mg936 O948 2.141 . S
C937 O938 1.313 . S
C937 O944 1.195 . S
O938 C937 1.313 . S
C939 O940 1.245 . S
C939 O948 1.289 . S
O940 C939 1.245 . S
C941 O942 1.245 . S
C941 O943 1.289 . S
O942 C941 1.245 . S
O943 Mg936 2.141 . S
O943 C941 1.289 . S
O944 Mg936 2.048 . S
O944 C937 1.195 . S
O945 Mg936 2.048 . S
O945 C946 1.195 . S
C946 O945 1.195 . S
C946 O947 1.313 . S
O947 C946 1.313 . S
O948 Mg936 2.141 . S
O948 C939 1.289 . S
Mg949 O956 2.141 . S
Mg949 O957 2.048 . S
Mg949 O958 2.048 . S
Mg949 O961 2.141 . S
C950 O951 1.313 . S
C950 O957 1.195 . S
O951 C950 1.313 . S
C952 O953 1.245 . S
C952 O961 1.289 . S
O953 C952 1.245 . S
C954 O955 1.245 . S
C954 O956 1.289 . S
O955 C954 1.245 . S
O956 Mg949 2.141 . S
O956 C954 1.289 . S
O957 Mg949 2.048 . S
O957 C950 1.195 . S
O958 Mg949 2.048 . S
O958 C959 1.195 . S
C959 O958 1.195 . S
C959 O960 1.313 . S
O960 C959 1.313 . S
O961 Mg949 2.141 . S
O961 C952 1.289 . S
Mg962 O969 2.141 . S
Mg962 O970 2.048 . S
Mg962 O971 2.048 . S
Mg962 O974 2.141 . S
C963 O964 1.313 . S
C963 O970 1.195 . S
O964 C963 1.313 . S
C965 O966 1.245 . S
C965 O974 1.289 . S
O966 C965 1.245 . S
C967 O968 1.245 . S
C967 O969 1.289 . S
O968 C967 1.245 . S
O969 Mg962 2.141 . S
O969 C967 1.289 . S
O970 Mg962 2.048 . S
O970 C963 1.195 . S
O971 Mg962 2.048 . S
O971 C972 1.195 . S
C972 O971 1.195 . S
C972 O973 1.313 . S
O973 C972 1.313 . S
O974 Mg962 2.141 . S
O974 C965 1.289 . S
Mg975 O982 2.141 . S
Mg975 O983 2.048 . S
Mg975 O984 2.048 . S
Mg975 O987 2.141 . S
C976 O977 1.313 . S
C976 O983 1.195 . S
O977 C976 1.313 . S
C978 O979 1.245 . S
C978 O987 1.289 . S
O979 C978 1.245 . S
C980 O981 1.245 . S
C980 O982 1.289 . S
O981 C980 1.245 . S
O982 Mg975 2.141 . S
O982 C980 1.289 . S
O983 Mg975 2.048 . S
O983 C976 1.195 . S
O984 Mg975 2.048 . S
O984 C985 1.195 . S
C985 O984 1.195 . S
C985 O986 1.313 . S
O986 C985 1.313 . S
O987 Mg975 2.141 . S
O987 C978 1.289 . S
Mg988 O995 2.141 . S
Mg988 O996 2.048 . S
Mg988 O997 2.048 . S
Mg988 O1000 2.141 . S
C989 O990 1.313 . S
C989 O996 1.195 . S
O990 C989 1.313 . S
C991 O992 1.245 . S
C991 O1000 1.289 . S
O992 C991 1.245 . S
C993 O994 1.245 . S
C993 O995 1.289 . S
O994 C993 1.245 . S
O995 Mg988 2.141 . S
O995 C993 1.289 . S
O996 Mg988 2.048 . S
O996 C989 1.195 . S
O997 Mg988 2.048 . S
O997 C998 1.195 . S
C998 O997 1.195 . S
C998 O999 1.313 . S
O999 C998 1.313 . S
O1000 Mg988 2.141 . S
O1000 C991 1.289 . S
Mg1001 O1008 2.141 . S
Mg1001 O1009 2.048 . S
Mg1001 O1010 2.048 . S
Mg1001 O1013 2.141 . S
C1002 O1003 1.313 . S
C1002 O1009 1.195 . S
O1003 C1002 1.313 . S
C1004 O1005 1.245 . S
C1004 O1013 1.289 . S
O1005 C1004 1.245 . S
C1006 O1007 1.245 . S
C1006 O1008 1.289 . S
O1007 C1006 1.245 . S
O1008 Mg1001 2.141 . S
O1008 C1006 1.289 . S
O1009 Mg1001 2.048 . S
O1009 C1002 1.195 . S
O1010 Mg1001 2.048 . S
O1010 C1011 1.195 . S
C1011 O1010 1.195 . S
C1011 O1012 1.313 . S
O1012 C1011 1.313 . S
O1013 Mg1001 2.141 . S
O1013 C1004 1.289 . S
Mg1014 O1021 2.141 . S
Mg1014 O1022 2.048 . S
Mg1014 O1023 2.048 . S
Mg1014 O1026 2.141 . S
C1015 O1016 1.313 . S
C1015 O1022 1.195 . S
O1016 C1015 1.313 . S
C1017 O1018 1.245 . S
C1017 O1026 1.289 . S
O1018 C1017 1.245 . S
C1019 O1020 1.245 . S
C1019 O1021 1.289 . S
O1020 C1019 1.245 . S
O1021 Mg1014 2.141 . S
O1021 C1019 1.289 . S
O1022 Mg1014 2.048 . S
O1022 C1015 1.195 . S
O1023 Mg1014 2.048 . S
O1023 C1024 1.195 . S
C1024 O1023 1.195 . S
C1024 O1025 1.313 . S
O1025 C1024 1.313 . S
O1026 Mg1014 2.141 . S
O1026 C1017 1.289 . S
Mg1027 O1034 2.141 . S
Mg1027 O1035 2.048 . S
Mg1027 O1036 2.048 . S
Mg1027 O1039 2.141 . S
C1028 O1029 1.313 . S
C1028 O1035 1.195 . S
O1029 C1028 1.313 . S
C1030 O1031 1.245 . S
C1030 O1039 1.289 . S
O1031 C1030 1.245 . S
C1032 O1033 1.245 . S
C1032 O1034 1.289 . S
O1033 C1032 1.245 . S
O1034 Mg1027 2.141 . S
O1034 C1032 1.289 . S
O1035 Mg1027 2.048 . S
O1035 C1028 1.195 . S
O1036 Mg1027 2.048 . S
O1036 C1037 1.195 . S
C1037 O1036 1.195 . S
C1037 O1038 1.313 . S
O1038 C1037 1.313 . S
O1039 Mg1027 2.141 . S
O1039 C1030 1.289 . S
Mg1040 O1047 2.141 . S
Mg1040 O1048 2.048 . S
Mg1040 O1049 2.048 . S
Mg1040 O1052 2.141 . S
C1041 O1042 1.313 . S
C1041 O1048 1.195 . S
O1042 C1041 1.313 . S
C1043 O1044 1.245 . S
C1043 O1052 1.289 . S
O1044 C1043 1.245 . S
C1045 O1046 1.245 . S
C1045 O1047 1.289 . S
O1046 C1045 1.245 . S
O1047 Mg1040 2.141 . S
O1047 C1045 1.289 . S
O1048 Mg1040 2.048 . S
O1048 C1041 1.195 . S
O1049 Mg1040 2.048 . S
O1049 C1050 1.195 . S
C1050 O1049 1.195 . S
C1050 O1051 1.313 . S
O1051 C1050 1.313 . S
O1052 Mg1040 2.141 . S
O1052 C1043 1.289 . S
Mg1053 O1060 2.141 . S
Mg1053 O1061 2.048 . S
Mg1053 O1062 2.048 . S
Mg1053 O1065 2.141 . S
C1054 O1055 1.313 . S
C1054 O1061 1.195 . S
O1055 C1054 1.313 . S
C1056 O1057 1.245 . S
C1056 O1065 1.289 . S
O1057 C1056 1.245 . S
C1058 O1059 1.245 . S
C1058 O1060 1.289 . S
O1059 C1058 1.245 . S
O1060 Mg1053 2.141 . S
O1060 C1058 1.289 . S
O1061 Mg1053 2.048 . S
O1061 C1054 1.195 . S
O1062 Mg1053 2.048 . S
O1062 C1063 1.195 . S
C1063 O1062 1.195 . S
C1063 O1064 1.313 . S
O1064 C1063 1.313 . S
O1065 Mg1053 2.141 . S
O1065 C1056 1.289 . S
Mg1066 O1073 2.141 . S
Mg1066 O1074 2.048 . S
Mg1066 O1075 2.048 . S
Mg1066 O1078 2.141 . S
C1067 O1068 1.313 . S
C1067 O1074 1.195 . S
O1068 C1067 1.313 . S
C1069 O1070 1.245 . S
C1069 O1078 1.289 . S
O1070 C1069 1.245 . S
C1071 O1072 1.245 . S
C1071 O1073 1.289 . S
O1072 C1071 1.245 . S
O1073 Mg1066 2.141 . S
O1073 C1071 1.289 . S
O1074 Mg1066 2.048 . S
O1074 C1067 1.195 . S
O1075 Mg1066 2.048 . S
O1075 C1076 1.195 . S
C1076 O1075 1.195 . S
C1076 O1077 1.313 . S
O1077 C1076 1.313 . S
O1078 Mg1066 2.141 . S
O1078 C1069 1.289 . S
Mg1079 O1086 2.141 . S
Mg1079 O1087 2.048 . S
Mg1079 O1088 2.048 . S
Mg1079 O1091 2.141 . S
C1080 O1081 1.313 . S
C1080 O1087 1.195 . S
O1081 C1080 1.313 . S
C1082 O1083 1.245 . S
C1082 O1091 1.289 . S
O1083 C1082 1.245 . S
C1084 O1085 1.245 . S
C1084 O1086 1.289 . S
O1085 C1084 1.245 . S
O1086 Mg1079 2.141 . S
O1086 C1084 1.289 . S
O1087 Mg1079 2.048 . S
O1087 C1080 1.195 . S
O1088 Mg1079 2.048 . S
O1088 C1089 1.195 . S
C1089 O1088 1.195 . S
C1089 O1090 1.313 . S
O1090 C1089 1.313 . S
O1091 Mg1079 2.141 . S
O1091 C1082 1.289 . S
Mg1092 O1099 2.141 . S
Mg1092 O1100 2.048 . S
Mg1092 O1101 2.048 . S
Mg1092 O1104 2.141 . S
C1093 O1094 1.313 . S
C1093 O1100 1.195 . S
O1094 C1093 1.313 . S
C1095 O1096 1.245 . S
C1095 O1104 1.289 . S
O1096 C1095 1.245 . S
C1097 O1098 1.245 . S
C1097 O1099 1.289 . S
O1098 C1097 1.245 . S
O1099 Mg1092 2.141 . S
O1099 C1097 1.289 . S
O1100 Mg1092 2.048 . S
O1100 C1093 1.195 . S
O1101 Mg1092 2.048 . S
O1101 C1102 1.195 . S
C1102 O1101 1.195 . S
C1102 O1103 1.313 . S
O1103 C1102 1.313 . S
O1104 Mg1092 2.141 . S
O1104 C1095 1.289 . S
Mg1105 O1112 2.141 . S
Mg1105 O1113 2.048 . S
Mg1105 O1114 2.048 . S
Mg1105 O1117 2.141 . S
C1106 O1107 1.313 . S
C1106 O1113 1.195 . S
O1107 C1106 1.313 . S
C1108 O1109 1.245 . S
C1108 O1117 1.289 . S
O1109 C1108 1.245 . S
C1110 O1111 1.245 . S
C1110 O1112 1.289 . S
O1111 C1110 1.245 . S
O1112 Mg1105 2.141 . S
O1112 C1110 1.289 . S
O1113 Mg1105 2.048 . S
O1113 C1106 1.195 . S
O1114 Mg1105 2.048 . S
O1114 C1115 1.195 . S
C1115 O1114 1.195 . S
C1115 O1116 1.313 . S
O1116 C1115 1.313 . S
O1117 Mg1105 2.141 . S
O1117 C1108 1.289 . S
Mg1118 O1125 2.141 . S
Mg1118 O1126 2.048 . S
Mg1118 O1127 2.048 . S
Mg1118 O1130 2.141 . S
C1119 O1120 1.313 . S
C1119 O1126 1.195 . S
O1120 C1119 1.313 . S
C1121 O1122 1.245 . S
C1121 O1130 1.289 . S
O1122 C1121 1.245 . S
C1123 O1124 1.245 . S
C1123 O1125 1.289 . S
O1124 C1123 1.245 . S
O1125 Mg1118 2.141 . S
O1125 C1123 1.289 . S
O1126 Mg1118 2.048 . S
O1126 C1119 1.195 . S
O1127 Mg1118 2.048 . S
O1127 C1128 1.195 . S
C1128 O1127 1.195 . S
C1128 O1129 1.313 . S
O1129 C1128 1.313 . S
O1130 Mg1118 2.141 . S
O1130 C1121 1.289 . S
Mg1131 O1138 2.141 . S
Mg1131 O1139 2.048 . S
Mg1131 O1140 2.048 . S
Mg1131 O1143 2.141 . S
C1132 O1133 1.313 . S
C1132 O1139 1.195 . S
O1133 C1132 1.313 . S
C1134 O1135 1.245 . S
C1134 O1143 1.289 . S
O1135 C1134 1.245 . S
C1136 O1137 1.245 . S
C1136 O1138 1.289 . S
O1137 C1136 1.245 . S
O1138 Mg1131 2.141 . S
O1138 C1136 1.289 . S
O1139 Mg1131 2.048 . S
O1139 C1132 1.195 . S
O1140 Mg1131 2.048 . S
O1140 C1141 1.195 . S
C1141 O1140 1.195 . S
C1141 O1142 1.313 . S
O1142 C1141 1.313 . S
O1143 Mg1131 2.141 . S
O1143 C1134 1.289 . S
Mg1144 O1151 2.141 . S
Mg1144 O1152 2.048 . S
Mg1144 O1153 2.048 . S
Mg1144 O1156 2.141 . S
C1145 O1146 1.313 . S
C1145 O1152 1.195 . S
O1146 C1145 1.313 . S
C1147 O1148 1.245 . S
C1147 O1156 1.289 . S
O1148 C1147 1.245 . S
C1149 O1150 1.245 . S
C1149 O1151 1.289 . S
O1150 C1149 1.245 . S
O1151 Mg1144 2.141 . S
O1151 C1149 1.289 . S
O1152 Mg1144 2.048 . S
O1152 C1145 1.195 . S
O1153 Mg1144 2.048 . S
O1153 C1154 1.195 . S
C1154 O1153 1.195 . S
C1154 O1155 1.313 . S
O1155 C1154 1.313 . S
O1156 Mg1144 2.141 . S
O1156 C1147 1.289 . S
Mg1157 O1164 2.141 . S
Mg1157 O1165 2.048 . S
Mg1157 O1166 2.048 . S
Mg1157 O1169 2.141 . S
C1158 O1159 1.313 . S
C1158 O1165 1.195 . S
O1159 C1158 1.313 . S
C1160 O1161 1.245 . S
C1160 O1169 1.289 . S
O1161 C1160 1.245 . S
C1162 O1163 1.245 . S
C1162 O1164 1.289 . S
O1163 C1162 1.245 . S
O1164 Mg1157 2.141 . S
O1164 C1162 1.289 . S
O1165 Mg1157 2.048 . S
O1165 C1158 1.195 . S
O1166 Mg1157 2.048 . S
O1166 C1167 1.195 . S
C1167 O1166 1.195 . S
C1167 O1168 1.313 . S
O1168 C1167 1.313 . S
O1169 Mg1157 2.141 . S
O1169 C1160 1.289 . S
Mg1170 O1177 2.141 . S
Mg1170 O1178 2.048 . S
Mg1170 O1179 2.048 . S
Mg1170 O1182 2.141 . S
C1171 O1172 1.313 . S
C1171 O1178 1.195 . S
O1172 C1171 1.313 . S
C1173 O1174 1.245 . S
C1173 O1182 1.289 . S
O1174 C1173 1.245 . S
C1175 O1176 1.245 . S
C1175 O1177 1.289 . S
O1176 C1175 1.245 . S
O1177 Mg1170 2.141 . S
O1177 C1175 1.289 . S
O1178 Mg1170 2.048 . S
O1178 C1171 1.195 . S
O1179 Mg1170 2.048 . S
O1179 C1180 1.195 . S
C1180 O1179 1.195 . S
C1180 O1181 1.313 . S
O1181 C1180 1.313 . S
O1182 Mg1170 2.141 . S
O1182 C1173 1.289 . S
Mg1183 O1190 2.141 . S
Mg1183 O1191 2.048 . S
Mg1183 O1192 2.048 . S
Mg1183 O1195 2.141 . S
C1184 O1185 1.313 . S
C1184 O1191 1.195 . S
O1185 C1184 1.313 . S
C1186 O1187 1.245 . S
C1186 O1195 1.289 . S
O1187 C1186 1.245 . S
C1188 O1189 1.245 . S
C1188 O1190 1.289 . S
O1189 C1188 1.245 . S
O1190 Mg1183 2.141 . S
O1190 C1188 1.289 . S
O1191 Mg1183 2.048 . S
O1191 C1184 1.195 . S
O1192 Mg1183 2.048 . S
O1192 C1193 1.195 . S
C1193 O1192 1.195 . S
C1193 O1194 1.313 . S
O1194 C1193 1.313 . S
O1195 Mg1183 2.141 . S
O1195 C1186 1.289 . S
Mg1196 O1203 2.141 . S
Mg1196 O1204 2.048 . S
Mg1196 O1205 2.048 . S
Mg1196 O1208 2.141 . S
C1197 O1198 1.313 . S
C1197 O1204 1.195 . S
O1198 C1197 1.313 . S
C1199 O1200 1.245 . S
C1199 O1208 1.289 . S
O1200 C1199 1.245 . S
C1201 O1202 1.245 . S
C1201 O1203 1.289 . S
O1202 C1201 1.245 . S
O1203 Mg1196 2.141 . S
O1203 C1201 1.289 . S
O1204 Mg1196 2.048 . S
O1204 C1197 1.195 . S
O1205 Mg1196 2.048 . S
O1205 C1206 1.195 . S
C1206 O1205 1.195 . S
C1206 O1207 1.313 . S
O1207 C1206 1.313 . S
O1208 Mg1196 2.141 . S
O1208 C1199 1.289 . S
Mg1209 O1216 2.141 . S
Mg1209 O1217 2.048 . S
Mg1209 O1218 2.048 . S
Mg1209 O1221 2.141 . S
C1210 O1211 1.313 . S
C1210 O1217 1.195 . S
O1211 C1210 1.313 . S
C1212 O1213 1.245 . S
C1212 O1221 1.289 . S
O1213 C1212 1.245 . S
C1214 O1215 1.245 . S
C1214 O1216 1.289 . S
O1215 C1214 1.245 . S
O1216 Mg1209 2.141 . S
O1216 C1214 1.289 . S
O1217 Mg1209 2.048 . S
O1217 C1210 1.195 . S
O1218 Mg1209 2.048 . S
O1218 C1219 1.195 . S
C1219 O1218 1.195 . S
C1219 O1220 1.313 . S
O1220 C1219 1.313 . S
O1221 Mg1209 2.141 . S
O1221 C1212 1.289 . S
Mg1222 O1229 2.141 . S
Mg1222 O1230 2.048 . S
Mg1222 O1231 2.048 . S
Mg1222 O1234 2.141 . S
C1223 O1224 1.313 . S
C1223 O1230 1.195 . S
O1224 C1223 1.313 . S
C1225 O1226 1.245 . S
C1225 O1234 1.289 . S
O1226 C1225 1.245 . S
C1227 O1228 1.245 . S
C1227 O1229 1.289 . S
O1228 C1227 1.245 . S
O1229 Mg1222 2.141 . S
O1229 C1227 1.289 . S
O1230 Mg1222 2.048 . S
O1230 C1223 1.195 . S
O1231 Mg1222 2.048 . S
O1231 C1232 1.195 . S
C1232 O1231 1.195 . S
C1232 O1233 1.313 . S
O1233 C1232 1.313 . S
O1234 Mg1222 2.141 . S
O1234 C1225 1.289 . S
Mg1235 O1242 2.141 . S
Mg1235 O1243 2.048 . S
Mg1235 O1244 2.048 . S
Mg1235 O1247 2.141 . S
C1236 O1237 1.313 . S
C1236 O1243 1.195 . S
O1237 C1236 1.313 . S
C1238 O1239 1.245 . S
C1238 O1247 1.289 . S
O1239 C1238 1.245 . S
C1240 O1241 1.245 . S
C1240 O1242 1.289 . S
O1241 C1240 1.245 . S
O1242 Mg1235 2.141 . S
O1242 C1240 1.289 . S
O1243 Mg1235 2.048 . S
O1243 C1236 1.195 . S
O1244 Mg1235 2.048 . S
O1244 C1245 1.195 . S
C1245 O1244 1.195 . S
C1245 O1246 1.313 . S
O1246 C1245 1.313 . S
O1247 Mg1235 2.141 . S
O1247 C1238 1.289 . S
H1248 C1254 0.930 . S
H1249 C1258 0.930 . S
H1250 C1263 0.929 . S
H1251 C1261 0.929 . S
H1252 C1256 0.929 1_554 S
H1253 C1262 0.929 1_556 S
C1254 H1248 0.930 . S
C1254 C1255 1.367 . S
C1254 C1262 1.378 . S
C1255 C1254 1.367 . S
C1255 C1263 1.433 . S
C1256 H1252 0.929 1_556 S
C1256 C1258 1.378 . S
C1256 C1260 1.350 . S
C1257 C1260 1.463 1_454 S
C1257 C1262 1.350 . S
C1257 N1265 1.427 . S
C1258 H1249 0.930 . S
C1258 C1256 1.378 . S
C1258 C1259 1.367 . S
C1259 C1258 1.367 . S
C1259 C1261 1.433 . S
C1260 C1256 1.350 . S
C1260 C1257 1.463 1_656 S
C1260 N1264 1.427 . S
C1261 H1251 0.929 . S
C1261 C1259 1.433 . S
C1261 N1264 1.384 . S
C1262 H1253 0.929 1_554 S
C1262 C1254 1.378 . S
C1262 C1257 1.350 . S
C1263 H1250 0.929 . S
C1263 C1255 1.433 . S
C1263 N1265 1.384 . S
N1264 C1260 1.427 . S
N1264 C1261 1.384 . S
N1265 C1257 1.427 . S
N1265 C1263 1.384 . S
H1266 C1272 0.930 . S
H1267 C1276 0.930 . S
H1268 C1281 0.929 . S
H1269 C1279 0.929 . S
H1270 C1274 0.929 . S
H1271 C1280 0.929 . S
C1272 H1266 0.930 . S
C1272 C1273 1.367 . S
C1272 C1280 1.378 . S
C1273 C1272 1.367 . S
C1273 C1281 1.433 . S
C1274 H1270 0.929 . S
C1274 C1276 1.378 . S
C1274 C1278 1.350 . S
C1275 C1278 1.463 . S
C1275 C1280 1.350 . S
C1275 N1283 1.427 . S
C1276 H1267 0.930 . S
C1276 C1274 1.378 . S
C1276 C1277 1.367 . S
C1277 C1276 1.367 . S
C1277 C1279 1.433 . S
C1278 C1274 1.350 . S
C1278 C1275 1.463 . S
C1278 N1282 1.427 . S
C1279 H1269 0.929 . S
C1279 C1277 1.433 . S
C1279 N1282 1.384 . S
C1280 H1271 0.929 . S
C1280 C1272 1.378 . S
C1280 C1275 1.350 . S
C1281 H1268 0.929 . S
C1281 C1273 1.433 . S
C1281 N1283 1.384 . S
N1282 C1278 1.427 . S
N1282 C1279 1.384 . S
N1283 C1275 1.427 . S
N1283 C1281 1.384 . S
H1284 C1290 0.930 . S
H1285 C1294 0.930 . S
H1286 C1299 0.929 . S
H1287 C1297 0.929 . S
H1288 C1292 0.929 1_655 S
H1289 C1298 0.929 1_455 S
C1290 H1284 0.930 . S
C1290 C1291 1.367 . S
C1290 C1298 1.378 . S
C1291 C1290 1.367 . S
C1291 C1299 1.433 . S
C1292 H1288 0.929 1_455 S
C1292 C1294 1.378 . S
C1292 C1296 1.350 . S
C1293 C1296 1.463 1_655 S
C1293 C1298 1.350 . S
C1293 N1301 1.427 . S
C1294 H1285 0.930 . S
C1294 C1292 1.378 . S
C1294 C1295 1.367 . S
C1295 C1294 1.367 . S
C1295 C1297 1.433 . S
C1296 C1292 1.350 . S
C1296 C1293 1.463 1_455 S
C1296 N1300 1.427 . S
C1297 H1287 0.929 . S
C1297 C1295 1.433 . S
C1297 N1300 1.384 . S
C1298 H1289 0.929 1_655 S
C1298 C1290 1.378 . S
C1298 C1293 1.350 . S
C1299 H1286 0.929 . S
C1299 C1291 1.433 . S
C1299 N1301 1.384 . S
N1300 C1296 1.427 . S
N1300 C1297 1.384 . S
N1301 C1293 1.427 . S
N1301 C1299 1.384 . S
H1302 C1308 0.930 . S
H1303 C1312 0.930 . S
H1304 C1317 0.929 . S
H1305 C1315 0.929 . S
H1306 C1310 0.929 . S
H1307 C1316 0.929 . S
C1308 H1302 0.930 . S
C1308 C1309 1.367 . S
C1308 C1316 1.378 . S
C1309 C1308 1.367 . S
C1309 C1317 1.433 . S
C1310 H1306 0.929 . S
C1310 C1312 1.378 . S
C1310 C1314 1.350 . S
C1311 C1314 1.463 . S
C1311 C1316 1.350 . S
C1311 N1319 1.427 . S
C1312 H1303 0.930 . S
C1312 C1310 1.378 . S
C1312 C1313 1.367 . S
C1313 C1312 1.367 . S
C1313 C1315 1.433 . S
C1314 C1310 1.350 . S
C1314 C1311 1.463 . S
C1314 N1318 1.427 . S
C1315 H1305 0.929 . S
C1315 C1313 1.433 . S
C1315 N1318 1.384 . S
C1316 H1307 0.929 . S
C1316 C1308 1.378 . S
C1316 C1311 1.350 . S
C1317 H1304 0.929 . S
C1317 C1309 1.433 . S
C1317 N1319 1.384 . S
N1318 C1314 1.427 . S
N1318 C1315 1.384 . S
N1319 C1311 1.427 . S
N1319 C1317 1.384 . S
H1320 C1326 0.930 . S
H1321 C1330 0.930 . S
H1322 C1335 0.929 . S
H1323 C1333 0.929 . S
H1324 C1328 0.929 1_554 S
H1325 C1334 0.929 1_556 S
C1326 H1320 0.930 . S
C1326 C1327 1.367 . S
C1326 C1334 1.378 . S
C1327 C1326 1.367 . S
C1327 C1335 1.433 . S
C1328 H1324 0.929 1_556 S
C1328 C1330 1.378 . S
C1328 C1332 1.350 . S
C1329 C1332 1.463 1_654 S
C1329 C1334 1.350 . S
C1329 N1337 1.399 1_655 S
C1330 H1321 0.930 . S
C1330 C1328 1.378 . S
C1330 C1331 1.367 . S
C1331 C1330 1.367 . S
C1331 C1333 1.433 . S
C1332 C1328 1.350 . S
C1332 C1329 1.463 1_456 S
C1332 N1336 1.399 1_455 S
C1333 H1323 0.929 . S
C1333 C1331 1.433 . S
C1333 N1336 1.339 1_455 S
C1334 H1325 0.929 1_554 S
C1334 C1326 1.378 . S
C1334 C1329 1.350 . S
C1335 H1322 0.929 . S
C1335 C1327 1.433 . S
C1335 N1337 1.339 1_655 S
N1336 C1332 1.399 1_655 S
N1336 C1333 1.339 1_655 S
N1337 C1329 1.399 1_455 S
N1337 C1335 1.339 1_455 S
H1338 C1344 0.930 . S
H1339 C1348 0.930 . S
H1340 C1353 0.929 . S
H1341 C1351 0.929 . S
H1342 C1346 0.929 . S
H1343 C1352 0.929 . S
C1344 H1338 0.930 . S
C1344 C1345 1.367 . S
C1344 C1352 1.378 . S
C1345 C1344 1.367 . S
C1345 C1353 1.433 . S
C1346 H1342 0.929 . S
C1346 C1348 1.378 . S
C1346 C1350 1.350 . S
C1347 C1350 1.463 . S
C1347 C1352 1.350 . S
C1347 N1355 1.427 . S
C1348 H1339 0.930 . S
C1348 C1346 1.378 . S
C1348 C1349 1.367 . S
C1349 C1348 1.367 . S
C1349 C1351 1.433 . S
C1350 C1346 1.350 . S
C1350 C1347 1.463 . S
C1350 N1354 1.427 . S
C1351 H1341 0.929 . S
C1351 C1349 1.433 . S
C1351 N1354 1.384 . S
C1352 H1343 0.929 . S
C1352 C1344 1.378 . S
C1352 C1347 1.350 . S
C1353 H1340 0.929 . S
C1353 C1345 1.433 . S
C1353 N1355 1.384 . S
N1354 C1350 1.427 . S
N1354 C1351 1.384 . S
N1355 C1347 1.427 . S
N1355 C1353 1.384 . S
H1356 C1362 0.930 . S
H1357 C1366 0.930 . S
H1358 C1371 0.929 . S
H1359 C1369 0.929 . S
H1360 C1364 0.929 . S
H1361 C1370 0.929 . S
C1362 H1356 0.930 . S
C1362 C1363 1.367 . S
C1362 C1370 1.378 . S
C1363 C1362 1.367 . S
C1363 C1371 1.433 . S
C1364 H1360 0.929 . S
C1364 C1366 1.378 . S
C1364 C1368 1.350 . S
C1365 C1368 1.463 1_455 S
C1365 C1370 1.350 . S
C1365 N1373 1.427 . S
C1366 H1357 0.930 . S
C1366 C1364 1.378 . S
C1366 C1367 1.367 . S
C1367 C1366 1.367 . S
C1367 C1369 1.433 . S
C1368 C1364 1.350 . S
C1368 C1365 1.463 1_655 S
C1368 N1372 1.427 . S
C1369 H1359 0.929 . S
C1369 C1367 1.433 . S
C1369 N1372 1.384 . S
C1370 H1361 0.929 . S
C1370 C1362 1.378 . S
C1370 C1365 1.350 . S
C1371 H1358 0.929 . S
C1371 C1363 1.433 . S
C1371 N1373 1.384 . S
N1372 C1368 1.427 . S
N1372 C1369 1.384 . S
N1373 C1365 1.427 . S
N1373 C1371 1.384 . S
H1374 C1380 0.930 . S
H1375 C1384 0.930 . S
H1376 C1389 0.929 . S
H1377 C1387 0.929 . S
H1378 C1382 0.929 . S
H1379 C1388 0.929 . S
C1380 H1374 0.930 . S
C1380 C1381 1.367 . S
C1380 C1388 1.378 . S
C1381 C1380 1.367 . S
C1381 C1389 1.433 . S
C1382 H1378 0.929 . S
C1382 C1384 1.378 . S
C1382 C1386 1.350 . S
C1383 C1386 1.463 . S
C1383 C1388 1.350 . S
C1383 N1391 1.427 . S
C1384 H1375 0.930 . S
C1384 C1382 1.378 . S
C1384 C1385 1.367 . S
C1385 C1384 1.367 . S
C1385 C1387 1.433 . S
C1386 C1382 1.350 . S
C1386 C1383 1.463 . S
C1386 N1390 1.427 . S
C1387 H1377 0.929 . S
C1387 C1385 1.433 . S
C1387 N1390 1.384 . S
C1388 H1379 0.929 . S
C1388 C1380 1.378 . S
C1388 C1383 1.350 . S
C1389 H1376 0.929 . S
C1389 C1381 1.433 . S
C1389 N1391 1.384 . S
N1390 C1386 1.427 . S
N1390 C1387 1.384 . S
N1391 C1383 1.427 . S
N1391 C1389 1.384 . S
H1392 C1398 0.930 . S
H1393 C1402 0.930 . S
H1394 C1407 0.929 . S
H1395 C1405 0.929 . S
H1396 C1400 0.929 1_565 S
H1397 C1406 0.929 1_545 S
C1398 H1392 0.930 . S
C1398 C1399 1.367 . S
C1398 C1406 1.378 . S
C1399 C1398 1.367 . S
C1399 C1407 1.433 . S
C1400 H1396 0.929 1_545 S
C1400 C1402 1.378 . S
C1400 C1404 1.350 . S
C1401 C1404 1.463 1_665 S
C1401 C1406 1.350 . S
C1401 N1409 1.427 . S
C1402 H1393 0.930 . S
C1402 C1400 1.378 . S
C1402 C1403 1.367 . S
C1403 C1402 1.367 . S
C1403 C1405 1.433 . S
C1404 C1400 1.350 . S
C1404 C1401 1.463 1_445 S
C1404 N1408 1.427 . S
C1405 H1395 0.929 . S
C1405 C1403 1.433 . S
C1405 N1408 1.384 . S
C1406 H1397 0.929 1_565 S
C1406 C1398 1.378 . S
C1406 C1401 1.350 . S
C1407 H1394 0.929 . S
C1407 C1399 1.433 . S
C1407 N1409 1.384 . S
N1408 C1404 1.427 . S
N1408 C1405 1.384 . S
N1409 C1401 1.427 . S
N1409 C1407 1.384 . S
H1410 C1416 0.930 . S
H1411 C1420 0.930 . S
H1412 C1425 0.929 . S
H1413 C1423 0.929 . S
H1414 C1418 0.929 . S
H1415 C1424 0.929 . S
C1416 H1410 0.930 . S
C1416 C1417 1.367 . S
C1416 C1424 1.378 . S
C1417 C1416 1.367 . S
C1417 C1425 1.433 . S
C1418 H1414 0.929 . S
C1418 C1420 1.378 . S
C1418 C1422 1.350 . S
C1419 C1422 1.463 . S
C1419 C1424 1.350 . S
C1419 N1427 1.427 . S
C1420 H1411 0.930 . S
C1420 C1418 1.378 . S
C1420 C1421 1.367 . S
C1421 C1420 1.367 . S
C1421 C1423 1.433 . S
C1422 C1418 1.350 . S
C1422 C1419 1.463 . S
C1422 N1426 1.427 . S
C1423 H1413 0.929 . S
C1423 C1421 1.433 . S
C1423 N1426 1.384 . S
C1424 H1415 0.929 . S
C1424 C1416 1.378 . S
C1424 C1419 1.350 . S
C1425 H1412 0.929 . S
C1425 C1417 1.433 . S
C1425 N1427 1.384 . S
N1426 C1422 1.427 . S
N1426 C1423 1.384 . S
N1427 C1419 1.427 . S
N1427 C1425 1.384 . S
H1428 C1434 0.930 . S
H1429 C1438 0.930 . S
H1430 C1443 0.929 . S
H1431 C1441 0.929 . S
H1432 C1436 0.929 . S
H1433 C1442 0.929 . S
C1434 H1428 0.930 . S
C1434 C1435 1.367 . S
C1434 C1442 1.378 . S
C1435 C1434 1.367 . S
C1435 C1443 1.433 . S
C1436 H1432 0.929 . S
C1436 C1438 1.378 . S
C1436 C1440 1.350 . S
C1437 C1440 1.463 1_655 S
C1437 C1442 1.350 . S
C1437 N1445 1.427 . S
C1438 H1429 0.930 . S
C1438 C1436 1.378 . S
C1438 C1439 1.367 . S
C1439 C1438 1.367 . S
C1439 C1441 1.433 . S
C1440 C1436 1.350 . S
C1440 C1437 1.463 1_455 S
C1440 N1444 1.427 . S
C1441 H1431 0.929 . S
C1441 C1439 1.433 . S
C1441 N1444 1.384 . S
C1442 H1433 0.929 . S
C1442 C1434 1.378 . S
C1442 C1437 1.350 . S
C1443 H1430 0.929 . S
C1443 C1435 1.433 . S
C1443 N1445 1.384 . S
N1444 C1440 1.427 . S
N1444 C1441 1.384 . S
N1445 C1437 1.427 . S
N1445 C1443 1.384 . S
H1446 C1452 0.930 . S
H1447 C1456 0.930 . S
H1448 C1461 0.929 . S
H1449 C1459 0.929 . S
H1450 C1454 0.929 . S
H1451 C1460 0.929 . S
C1452 H1446 0.930 . S
C1452 C1453 1.367 . S
C1452 C1460 1.378 . S
C1453 C1452 1.367 . S
C1453 C1461 1.433 . S
C1454 H1450 0.929 . S
C1454 C1456 1.378 . S
C1454 C1458 1.350 . S
C1455 C1458 1.463 . S
C1455 C1460 1.350 . S
C1455 N1463 1.427 . S
C1456 H1447 0.930 . S
C1456 C1454 1.378 . S
C1456 C1457 1.367 . S
C1457 C1456 1.367 . S
C1457 C1459 1.433 . S
C1458 C1454 1.350 . S
C1458 C1455 1.463 . S
C1458 N1462 1.427 . S
C1459 H1449 0.929 . S
C1459 C1457 1.433 . S
C1459 N1462 1.384 . S
C1460 H1451 0.929 . S
C1460 C1452 1.378 . S
C1460 C1455 1.350 . S
C1461 H1448 0.929 . S
C1461 C1453 1.433 . S
C1461 N1463 1.384 . S
N1462 C1458 1.427 . S
N1462 C1459 1.384 . S
N1463 C1455 1.427 . S
N1463 C1461 1.384 . S
H1464 C1470 0.930 . S
H1465 C1474 0.930 . S
H1466 C1479 0.929 . S
H1467 C1477 0.929 . S
H1468 C1472 0.929 1_565 S
H1469 C1478 0.929 1_545 S
C1470 H1464 0.930 . S
C1470 C1471 1.367 . S
C1470 C1478 1.378 . S
C1471 C1470 1.367 . S
C1471 C1479 1.433 . S
C1472 H1468 0.929 1_545 S
C1472 C1474 1.378 . S
C1472 C1476 1.350 . S
C1473 C1476 1.463 1_465 S
C1473 C1478 1.350 . S
C1473 N1481 1.427 . S
C1474 H1465 0.930 . S
C1474 C1472 1.378 . S
C1474 C1475 1.367 . S
C1475 C1474 1.367 . S
C1475 C1477 1.433 . S
C1476 C1472 1.350 . S
C1476 C1473 1.463 1_645 S
C1476 N1480 1.427 . S
C1477 H1467 0.929 . S
C1477 C1475 1.433 . S
C1477 N1480 1.384 . S
C1478 H1469 0.929 1_565 S
C1478 C1470 1.378 . S
C1478 C1473 1.350 . S
C1479 H1466 0.929 . S
C1479 C1471 1.433 . S
C1479 N1481 1.384 . S
N1480 C1476 1.427 . S
N1480 C1477 1.384 . S
N1481 C1473 1.427 . S
N1481 C1479 1.384 . S
H1482 C1488 0.930 . S
H1483 C1492 0.930 . S
H1484 C1497 0.929 . S
H1485 C1495 0.929 . S
H1486 C1490 0.929 . S
H1487 C1496 0.929 . S
C1488 H1482 0.930 . S
C1488 C1489 1.367 . S
C1488 C1496 1.378 . S
C1489 C1488 1.367 . S
C1489 C1497 1.433 . S
C1490 H1486 0.929 . S
C1490 C1492 1.378 . S
C1490 C1494 1.350 . S
C1491 C1494 1.463 . S
C1491 C1496 1.350 . S
C1491 N1499 1.427 . S
C1492 H1483 0.930 . S
C1492 C1490 1.378 . S
C1492 C1493 1.367 . S
C1493 C1492 1.367 . S
C1493 C1495 1.433 . S
C1494 C1490 1.350 . S
C1494 C1491 1.463 . S
C1494 N1498 1.427 . S
C1495 H1485 0.929 . S
C1495 C1493 1.433 . S
C1495 N1498 1.384 . S
C1496 H1487 0.929 . S
C1496 C1488 1.378 . S
C1496 C1491 1.350 . S
C1497 H1484 0.929 . S
C1497 C1489 1.433 . S
C1497 N1499 1.384 . S
N1498 C1494 1.427 . S
N1498 C1495 1.384 . S
N1499 C1491 1.427 . S
N1499 C1497 1.384 . S
H1500 C1506 0.930 . S
H1501 C1510 0.930 . S
H1502 C1515 0.929 . S
H1503 C1513 0.929 . S
H1504 C1508 0.929 1_455 S
H1505 C1514 0.929 1_655 S
C1506 H1500 0.930 . S
C1506 C1507 1.367 . S
C1506 C1514 1.378 . S
C1507 C1506 1.367 . S
C1507 C1515 1.433 . S
C1508 H1504 0.929 1_655 S
C1508 C1510 1.378 . S
C1508 C1512 1.350 . S
C1509 C1512 1.463 1_455 S
C1509 C1514 1.350 . S
C1509 N1517 1.427 . S
C1510 H1501 0.930 . S
C1510 C1508 1.378 . S
C1510 C1511 1.367 . S
C1511 C1510 1.367 . S
C1511 C1513 1.433 . S
C1512 C1508 1.350 . S
C1512 C1509 1.463 1_655 S
C1512 N1516 1.427 . S
C1513 H1503 0.929 . S
C1513 C1511 1.433 . S
C1513 N1516 1.384 . S
C1514 H1505 0.929 1_455 S
C1514 C1506 1.378 . S
C1514 C1509 1.350 . S
C1515 H1502 0.929 . S
C1515 C1507 1.433 . S
C1515 N1517 1.384 . S
N1516 C1512 1.427 . S
N1516 C1513 1.384 . S
N1517 C1509 1.427 . S
N1517 C1515 1.384 . S
H1518 C1524 0.930 . S
H1519 C1528 0.930 . S
H1520 C1533 0.929 . S
H1521 C1531 0.929 . S
H1522 C1526 0.929 . S
H1523 C1532 0.929 . S
C1524 H1518 0.930 . S
C1524 C1525 1.367 . S
C1524 C1532 1.378 . S
C1525 C1524 1.367 . S
C1525 C1533 1.433 . S
C1526 H1522 0.929 . S
C1526 C1528 1.378 . S
C1526 C1530 1.350 . S
C1527 C1530 1.463 . S
C1527 C1532 1.350 . S
C1527 N1535 1.427 . S
C1528 H1519 0.930 . S
C1528 C1526 1.378 . S
C1528 C1529 1.367 . S
C1529 C1528 1.367 . S
C1529 C1531 1.433 . S
C1530 C1526 1.350 . S
C1530 C1527 1.463 . S
C1530 N1534 1.427 . S
C1531 H1521 0.929 . S
C1531 C1529 1.433 . S
C1531 N1534 1.384 . S
C1532 H1523 0.929 . S
C1532 C1524 1.378 . S
C1532 C1527 1.350 . S
C1533 H1520 0.929 . S
C1533 C1525 1.433 . S
C1533 N1535 1.384 . S
N1534 C1530 1.427 . S
N1534 C1531 1.384 . S
N1535 C1527 1.427 . S
N1535 C1533 1.384 . S
H1536 C1542 0.930 . S
H1537 C1546 0.930 . S
H1538 C1551 0.929 . S
H1539 C1549 0.929 . S
H1540 C1544 0.929 1_565 S
H1541 C1550 0.929 1_545 S
C1542 H1536 0.930 . S
C1542 C1543 1.367 . S
C1542 C1550 1.378 . S
C1543 C1542 1.367 . S
C1543 C1551 1.433 . S
C1544 H1540 0.929 1_545 S
C1544 C1546 1.378 . S
C1544 C1548 1.350 . S
C1545 C1548 1.463 1_566 S
C1545 C1550 1.350 . S
C1545 N1553 1.404 1_556 S
C1546 H1537 0.930 . S
C1546 C1544 1.378 . S
C1546 C1547 1.367 . S
C1547 C1546 1.367 . S
C1547 C1549 1.433 . S
C1548 C1544 1.350 . S
C1548 C1545 1.463 1_544 S
C1548 N1552 1.404 1_554 S
C1549 H1539 0.929 . S
C1549 C1547 1.433 . S
C1549 N1552 1.346 1_554 S
C1550 H1541 0.929 1_565 S
C1550 C1542 1.378 . S
C1550 C1545 1.350 . S
C1551 H1538 0.929 . S
C1551 C1543 1.433 . S
C1551 N1553 1.346 1_556 S
N1552 C1548 1.404 1_556 S
N1552 C1549 1.346 1_556 S
N1553 C1545 1.404 1_554 S
N1553 C1551 1.346 1_554 S
H1554 C1560 0.930 . S
H1555 C1564 0.930 . S
H1556 C1569 0.929 . S
H1557 C1567 0.929 . S
H1558 C1562 0.929 . S
H1559 C1568 0.929 . S
C1560 H1554 0.930 . S
C1560 C1561 1.367 . S
C1560 C1568 1.378 . S
C1561 C1560 1.367 . S
C1561 C1569 1.433 . S
C1562 H1558 0.929 . S
C1562 C1564 1.378 . S
C1562 C1566 1.350 . S
C1563 C1566 1.463 1_545 S
C1563 C1568 1.350 . S
C1563 N1571 1.427 . S
C1564 H1555 0.930 . S
C1564 C1562 1.378 . S
C1564 C1565 1.367 . S
C1565 C1564 1.367 . S
C1565 C1567 1.433 . S
C1566 C1562 1.350 . S
C1566 C1563 1.463 1_565 S
C1566 N1570 1.427 . S
C1567 H1557 0.929 . S
C1567 C1565 1.433 . S
C1567 N1570 1.384 . S
C1568 H1559 0.929 . S
C1568 C1560 1.378 . S
C1568 C1563 1.350 . S
C1569 H1556 0.929 . S
C1569 C1561 1.433 . S
C1569 N1571 1.384 . S
N1570 C1566 1.427 . S
N1570 C1567 1.384 . S
N1571 C1563 1.427 . S
N1571 C1569 1.384 . S
H1572 C1578 0.930 . S
H1573 C1582 0.930 . S
H1574 C1587 0.929 . S
H1575 C1585 0.929 . S
H1576 C1580 0.929 . S
H1577 C1586 0.929 . S
C1578 H1572 0.930 . S
C1578 C1579 1.367 . S
C1578 C1586 1.378 . S
C1579 C1578 1.367 . S
C1579 C1587 1.433 . S
C1580 H1576 0.929 . S
C1580 C1582 1.378 . S
C1580 C1584 1.350 . S
C1581 C1584 1.463 . S
C1581 C1586 1.350 . S
C1581 N1589 1.427 . S
C1582 H1573 0.930 . S
C1582 C1580 1.378 . S
C1582 C1583 1.367 . S
C1583 C1582 1.367 . S
C1583 C1585 1.433 . S
C1584 C1580 1.350 . S
C1584 C1581 1.463 . S
C1584 N1588 1.427 . S
C1585 H1575 0.929 . S
C1585 C1583 1.433 . S
C1585 N1588 1.384 . S
C1586 H1577 0.929 . S
C1586 C1578 1.378 . S
C1586 C1581 1.350 . S
C1587 H1574 0.929 . S
C1587 C1579 1.433 . S
C1587 N1589 1.384 . S
N1588 C1584 1.427 . S
N1588 C1585 1.384 . S
N1589 C1581 1.427 . S
N1589 C1587 1.384 . S
H1590 C1596 0.930 . S
H1591 C1600 0.930 . S
H1592 C1605 0.929 . S
H1593 C1603 0.929 . S
H1594 C1598 0.929 . S
H1595 C1604 0.929 . S
C1596 H1590 0.930 . S
C1596 C1597 1.367 . S
C1596 C1604 1.378 . S
C1597 C1596 1.367 . S
C1597 C1605 1.433 . S
C1598 H1594 0.929 . S
C1598 C1600 1.378 . S
C1598 C1602 1.350 . S
C1599 C1602 1.463 1_554 S
C1599 C1604 1.350 . S
C1599 N1607 1.426 . S
C1600 H1591 0.930 . S
C1600 C1598 1.378 . S
C1600 C1601 1.367 . S
C1601 C1600 1.367 . S
C1601 C1603 1.433 . S
C1602 C1598 1.350 . S
C1602 C1599 1.463 1_556 S
C1602 N1606 1.426 . S
C1603 H1593 0.929 . S
C1603 C1601 1.433 . S
C1603 N1606 1.382 . S
C1604 H1595 0.929 . S
C1604 C1596 1.378 . S
C1604 C1599 1.350 . S
C1605 H1592 0.929 . S
C1605 C1597 1.433 . S
C1605 N1607 1.382 . S
N1606 C1602 1.426 . S
N1606 C1603 1.382 . S
N1607 C1599 1.426 . S
N1607 C1605 1.382 . S
H1608 C1614 0.930 . S
H1609 C1618 0.930 . S
H1610 C1623 0.929 . S
H1611 C1621 0.929 . S
H1612 C1616 0.929 . S
H1613 C1622 0.929 . S
C1614 H1608 0.930 . S
C1614 C1615 1.367 . S
C1614 C1622 1.378 . S
C1615 C1614 1.367 . S
C1615 C1623 1.433 . S
C1616 H1612 0.929 . S
C1616 C1618 1.378 . S
C1616 C1620 1.350 . S
C1617 C1620 1.463 . S
C1617 C1622 1.350 . S
C1617 N1625 1.427 . S
C1618 H1609 0.930 . S
C1618 C1616 1.378 . S
C1618 C1619 1.367 . S
C1619 C1618 1.367 . S
C1619 C1621 1.433 . S
C1620 C1616 1.350 . S
C1620 C1617 1.463 . S
C1620 N1624 1.427 . S
C1621 H1611 0.929 . S
C1621 C1619 1.433 . S
C1621 N1624 1.384 . S
C1622 H1613 0.929 . S
C1622 C1614 1.378 . S
C1622 C1617 1.350 . S
C1623 H1610 0.929 . S
C1623 C1615 1.433 . S
C1623 N1625 1.384 . S
N1624 C1620 1.427 . S
N1624 C1621 1.384 . S
N1625 C1617 1.427 . S
N1625 C1623 1.384 . S
H1626 C1632 0.930 . S
H1627 C1636 0.930 . S
H1628 C1641 0.929 . S
H1629 C1639 0.929 . S
H1630 C1634 0.929 1_565 S
H1631 C1640 0.929 1_545 S
C1632 H1626 0.930 . S
C1632 C1633 1.367 . S
C1632 C1640 1.378 . S
C1633 C1632 1.367 . S
C1633 C1641 1.433 . S
C1634 H1630 0.929 1_545 S
C1634 C1636 1.378 . S
C1634 C1638 1.350 . S
C1635 C1638 1.463 1_564 S
C1635 C1640 1.350 . S
C1635 N1643 1.427 . S
C1636 H1627 0.930 . S
C1636 C1634 1.378 . S
C1636 C1637 1.367 . S
C1637 C1636 1.367 . S
C1637 C1639 1.433 . S
C1638 C1634 1.350 . S
C1638 C1635 1.463 1_546 S
C1638 N1642 1.427 . S
C1639 H1629 0.929 . S
C1639 C1637 1.433 . S
C1639 N1642 1.384 . S
C1640 H1631 0.929 1_565 S
C1640 C1632 1.378 . S
C1640 C1635 1.350 . S
C1641 H1628 0.929 . S
C1641 C1633 1.433 . S
C1641 N1643 1.384 . S
N1642 C1638 1.427 . S
N1642 C1639 1.384 . S
N1643 C1635 1.427 . S
N1643 C1641 1.384 . S
H1644 C1650 0.930 . S
H1645 C1654 0.930 . S
H1646 C1659 0.929 . S
H1647 C1657 0.929 . S
H1648 C1652 0.929 . S
H1649 C1658 0.929 . S
C1650 H1644 0.930 . S
C1650 C1651 1.367 . S
C1650 C1658 1.378 . S
C1651 C1650 1.367 . S
C1651 C1659 1.433 . S
C1652 H1648 0.929 . S
C1652 C1654 1.378 . S
C1652 C1656 1.350 . S
C1653 C1656 1.463 . S
C1653 C1658 1.350 . S
C1653 N1661 1.427 . S
C1654 H1645 0.930 . S
C1654 C1652 1.378 . S
C1654 C1655 1.367 . S
C1655 C1654 1.367 . S
C1655 C1657 1.433 . S
C1656 C1652 1.350 . S
C1656 C1653 1.463 . S
C1656 N1660 1.427 . S
C1657 H1647 0.929 . S
C1657 C1655 1.433 . S
C1657 N1660 1.384 . S
C1658 H1649 0.929 . S
C1658 C1650 1.378 . S
C1658 C1653 1.350 . S
C1659 H1646 0.929 . S
C1659 C1651 1.433 . S
C1659 N1661 1.384 . S
N1660 C1656 1.427 . S
N1660 C1657 1.384 . S
N1661 C1653 1.427 . S
N1661 C1659 1.384 . S
H1662 C1668 0.930 . S
H1663 C1672 0.930 . S
H1664 C1677 0.929 . S
H1665 C1675 0.929 . S
H1666 C1670 0.929 . S
H1667 C1676 0.929 . S
C1668 H1662 0.930 . S
C1668 C1669 1.367 . S
C1668 C1676 1.378 . S
C1669 C1668 1.367 . S
C1669 C1677 1.433 . S
C1670 H1666 0.929 . S
C1670 C1672 1.378 . S
C1670 C1674 1.350 . S
C1671 C1674 1.463 . S
C1671 C1676 1.350 . S
C1671 N1679 1.427 . S
C1672 H1663 0.930 . S
C1672 C1670 1.378 . S
C1672 C1673 1.367 . S
C1673 C1672 1.367 . S
C1673 C1675 1.433 . S
C1674 C1670 1.350 . S
C1674 C1671 1.463 . S
C1674 N1678 1.427 . S
C1675 H1665 0.929 . S
C1675 C1673 1.433 . S
C1675 N1678 1.384 . S
C1676 H1667 0.929 . S
C1676 C1668 1.378 . S
C1676 C1671 1.350 . S
C1677 H1664 0.929 . S
C1677 C1669 1.433 . S
C1677 N1679 1.384 . S
N1678 C1674 1.427 . S
N1678 C1675 1.384 . S
N1679 C1671 1.427 . S
N1679 C1677 1.384 . S
H1680 C1686 0.930 . S
H1681 C1690 0.930 . S
H1682 C1695 0.929 . S
H1683 C1693 0.929 . S
H1684 C1688 0.929 . S
H1685 C1694 0.929 . S
C1686 H1680 0.930 . S
C1686 C1687 1.367 . S
C1686 C1694 1.378 . S
C1687 C1686 1.367 . S
C1687 C1695 1.433 . S
C1688 H1684 0.929 . S
C1688 C1690 1.378 . S
C1688 C1692 1.350 . S
C1689 C1692 1.463 . S
C1689 C1694 1.350 . S
C1689 N1697 1.427 . S
C1690 H1681 0.930 . S
C1690 C1688 1.378 . S
C1690 C1691 1.367 . S
C1691 C1690 1.367 . S
C1691 C1693 1.433 . S
C1692 C1688 1.350 . S
C1692 C1689 1.463 . S
C1692 N1696 1.427 . S
C1693 H1683 0.929 . S
C1693 C1691 1.433 . S
C1693 N1696 1.384 . S
C1694 H1685 0.929 . S
C1694 C1686 1.378 . S
C1694 C1689 1.350 . S
C1695 H1682 0.929 . S
C1695 C1687 1.433 . S
C1695 N1697 1.384 . S
N1696 C1692 1.427 . S
N1696 C1693 1.384 . S
N1697 C1689 1.427 . S
N1697 C1695 1.384 . S
H1698 C1704 0.930 . S
H1699 C1708 0.930 . S
H1700 C1713 0.929 . S
H1701 C1711 0.929 . S
H1702 C1706 0.929 . S
H1703 C1712 0.929 . S
C1704 H1698 0.930 . S
C1704 C1705 1.367 . S
C1704 C1712 1.378 . S
C1705 C1704 1.367 . S
C1705 C1713 1.433 . S
C1706 H1702 0.929 . S
C1706 C1708 1.378 . S
C1706 C1710 1.350 . S
C1707 C1710 1.463 . S
C1707 C1712 1.350 . S
C1707 N1715 1.427 . S
C1708 H1699 0.930 . S
C1708 C1706 1.378 . S
C1708 C1709 1.367 . S
C1709 C1708 1.367 . S
C1709 C1711 1.433 . S
C1710 C1706 1.350 . S
C1710 C1707 1.463 . S
C1710 N1714 1.427 . S
C1711 H1701 0.929 . S
C1711 C1709 1.433 . S
C1711 N1714 1.384 . S
C1712 H1703 0.929 . S
C1712 C1704 1.378 . S
C1712 C1707 1.350 . S
C1713 H1700 0.929 . S
C1713 C1705 1.433 . S
C1713 N1715 1.384 . S
N1714 C1710 1.427 . S
N1714 C1711 1.384 . S
N1715 C1707 1.427 . S
N1715 C1713 1.384 . S
H1716 C1722 0.930 . S
H1717 C1726 0.930 . S
H1718 C1731 0.929 . S
H1719 C1729 0.929 . S
H1720 C1724 0.929 . S
H1721 C1730 0.929 . S
C1722 H1716 0.930 . S
C1722 C1723 1.367 . S
C1722 C1730 1.378 . S
C1723 C1722 1.367 . S
C1723 C1731 1.433 . S
C1724 H1720 0.929 . S
C1724 C1726 1.378 . S
C1724 C1728 1.350 . S
C1725 C1728 1.463 . S
C1725 C1730 1.350 . S
C1725 N1733 1.427 . S
C1726 H1717 0.930 . S
C1726 C1724 1.378 . S
C1726 C1727 1.367 . S
C1727 C1726 1.367 . S
C1727 C1729 1.433 . S
C1728 C1724 1.350 . S
C1728 C1725 1.463 . S
C1728 N1732 1.427 . S
C1729 H1719 0.929 . S
C1729 C1727 1.433 . S
C1729 N1732 1.384 . S
C1730 H1721 0.929 . S
C1730 C1722 1.378 . S
C1730 C1725 1.350 . S
C1731 H1718 0.929 . S
C1731 C1723 1.433 . S
C1731 N1733 1.384 . S
N1732 C1728 1.427 . S
N1732 C1729 1.384 . S
N1733 C1725 1.427 . S
N1733 C1731 1.384 . S
H1734 C1740 0.930 . S
H1735 C1744 0.930 . S
H1736 C1749 0.929 . S
H1737 C1747 0.929 . S
H1738 C1742 0.929 . S
H1739 C1748 0.929 . S
C1740 H1734 0.930 . S
C1740 C1741 1.367 . S
C1740 C1748 1.378 . S
C1741 C1740 1.367 . S
C1741 C1749 1.433 . S
C1742 H1738 0.929 . S
C1742 C1744 1.378 . S
C1742 C1746 1.350 . S
C1743 C1746 1.463 . S
C1743 C1748 1.350 . S
C1743 N1751 1.427 . S
C1744 H1735 0.930 . S
C1744 C1742 1.378 . S
C1744 C1745 1.367 . S
C1745 C1744 1.367 . S
C1745 C1747 1.433 . S
C1746 C1742 1.350 . S
C1746 C1743 1.463 . S
C1746 N1750 1.427 . S
C1747 H1737 0.929 . S
C1747 C1745 1.433 . S
C1747 N1750 1.384 . S
C1748 H1739 0.929 . S
C1748 C1740 1.378 . S
C1748 C1743 1.350 . S
C1749 H1736 0.929 . S
C1749 C1741 1.433 . S
C1749 N1751 1.384 . S
N1750 C1746 1.427 . S
N1750 C1747 1.384 . S
N1751 C1743 1.427 . S
N1751 C1749 1.384 . S
H1752 C1758 0.930 . S
H1753 C1762 0.930 . S
H1754 C1767 0.929 . S
H1755 C1765 0.929 . S
H1756 C1760 0.929 . S
H1757 C1766 0.929 . S
C1758 H1752 0.930 . S
C1758 C1759 1.367 . S
C1758 C1766 1.378 . S
C1759 C1758 1.367 . S
C1759 C1767 1.433 . S
C1760 H1756 0.929 . S
C1760 C1762 1.378 . S
C1760 C1764 1.350 . S
C1761 C1764 1.463 . S
C1761 C1766 1.350 . S
C1761 N1769 1.427 . S
C1762 H1753 0.930 . S
C1762 C1760 1.378 . S
C1762 C1763 1.367 . S
C1763 C1762 1.367 . S
C1763 C1765 1.433 . S
C1764 C1760 1.350 . S
C1764 C1761 1.463 . S
C1764 N1768 1.427 . S
C1765 H1755 0.929 . S
C1765 C1763 1.433 . S
C1765 N1768 1.384 . S
C1766 H1757 0.929 . S
C1766 C1758 1.378 . S
C1766 C1761 1.350 . S
C1767 H1754 0.929 . S
C1767 C1759 1.433 . S
C1767 N1769 1.384 . S
N1768 C1764 1.427 . S
N1768 C1765 1.384 . S
N1769 C1761 1.427 . S
N1769 C1767 1.384 . S
H1770 C1776 0.930 . S
H1771 C1780 0.930 . S
H1772 C1785 0.929 . S
H1773 C1783 0.929 . S
H1774 C1778 0.929 . S
H1775 C1784 0.929 . S
C1776 H1770 0.930 . S
C1776 C1777 1.367 . S
C1776 C1784 1.378 . S
C1777 C1776 1.367 . S
C1777 C1785 1.433 . S
C1778 H1774 0.929 . S
C1778 C1780 1.378 . S
C1778 C1782 1.350 . S
C1779 C1782 1.463 . S
C1779 C1784 1.350 . S
C1779 N1787 1.427 . S
C1780 H1771 0.930 . S
C1780 C1778 1.378 . S
C1780 C1781 1.367 . S
C1781 C1780 1.367 . S
C1781 C1783 1.433 . S
C1782 C1778 1.350 . S
C1782 C1779 1.463 . S
C1782 N1786 1.427 . S
C1783 H1773 0.929 . S
C1783 C1781 1.433 . S
C1783 N1786 1.384 . S
C1784 H1775 0.929 . S
C1784 C1776 1.378 . S
C1784 C1779 1.350 . S
C1785 H1772 0.929 . S
C1785 C1777 1.433 . S
C1785 N1787 1.384 . S
N1786 C1782 1.427 . S
N1786 C1783 1.384 . S
N1787 C1779 1.427 . S
N1787 C1785 1.384 . S
H1788 C1794 0.930 . S
H1789 C1798 0.930 . S
H1790 C1803 0.929 . S
H1791 C1801 0.929 . S
H1792 C1796 0.929 . S
H1793 C1802 0.929 . S
C1794 H1788 0.930 . S
C1794 C1795 1.367 . S
C1794 C1802 1.378 . S
C1795 C1794 1.367 . S
C1795 C1803 1.433 . S
C1796 H1792 0.929 . S
C1796 C1798 1.378 . S
C1796 C1800 1.350 . S
C1797 C1800 1.463 . S
C1797 C1802 1.350 . S
C1797 N1805 1.427 . S
C1798 H1789 0.930 . S
C1798 C1796 1.378 . S
C1798 C1799 1.367 . S
C1799 C1798 1.367 . S
C1799 C1801 1.433 . S
C1800 C1796 1.350 . S
C1800 C1797 1.463 . S
C1800 N1804 1.427 . S
C1801 H1791 0.929 . S
C1801 C1799 1.433 . S
C1801 N1804 1.384 . S
C1802 H1793 0.929 . S
C1802 C1794 1.378 . S
C1802 C1797 1.350 . S
C1803 H1790 0.929 . S
C1803 C1795 1.433 . S
C1803 N1805 1.384 . S
N1804 C1800 1.427 . S
N1804 C1801 1.384 . S
N1805 C1797 1.427 . S
N1805 C1803 1.384 . S
H1806 C1812 0.930 . S
H1807 C1816 0.930 . S
H1808 C1821 0.929 . S
H1809 C1819 0.929 . S
H1810 C1814 0.929 . S
H1811 C1820 0.929 . S
C1812 H1806 0.930 . S
C1812 C1813 1.367 . S
C1812 C1820 1.378 . S
C1813 C1812 1.367 . S
C1813 C1821 1.433 . S
C1814 H1810 0.929 . S
C1814 C1816 1.378 . S
C1814 C1818 1.350 . S
C1815 C1818 1.463 . S
C1815 C1820 1.350 . S
C1815 N1823 1.427 . S
C1816 H1807 0.930 . S
C1816 C1814 1.378 . S
C1816 C1817 1.367 . S
C1817 C1816 1.367 . S
C1817 C1819 1.433 . S
C1818 C1814 1.350 . S
C1818 C1815 1.463 . S
C1818 N1822 1.427 . S
C1819 H1809 0.929 . S
C1819 C1817 1.433 . S
C1819 N1822 1.384 . S
C1820 H1811 0.929 . S
C1820 C1812 1.378 . S
C1820 C1815 1.350 . S
C1821 H1808 0.929 . S
C1821 C1813 1.433 . S
C1821 N1823 1.384 . S
N1822 C1818 1.427 . S
N1822 C1819 1.384 . S
N1823 C1815 1.427 . S
N1823 C1821 1.384 . S
H1824 C1830 0.930 . S
H1825 C1834 0.930 . S
H1826 C1839 0.929 . S
H1827 C1837 0.929 . S
H1828 C1832 0.929 . S
H1829 C1838 0.929 . S
C1830 H1824 0.930 . S
C1830 C1831 1.367 . S
C1830 C1838 1.378 . S
C1831 C1830 1.367 . S
C1831 C1839 1.433 . S
C1832 H1828 0.929 . S
C1832 C1834 1.378 . S
C1832 C1836 1.350 . S
C1833 C1836 1.463 . S
C1833 C1838 1.350 . S
C1833 N1841 1.427 . S
C1834 H1825 0.930 . S
C1834 C1832 1.378 . S
C1834 C1835 1.367 . S
C1835 C1834 1.367 . S
C1835 C1837 1.433 . S
C1836 C1832 1.350 . S
C1836 C1833 1.463 . S
C1836 N1840 1.427 . S
C1837 H1827 0.929 . S
C1837 C1835 1.433 . S
C1837 N1840 1.384 . S
C1838 H1829 0.929 . S
C1838 C1830 1.378 . S
C1838 C1833 1.350 . S
C1839 H1826 0.929 . S
C1839 C1831 1.433 . S
C1839 N1841 1.384 . S
N1840 C1836 1.427 . S
N1840 C1837 1.384 . S
N1841 C1833 1.427 . S
N1841 C1839 1.384 . S
H1842 C1848 0.930 . S
H1843 C1852 0.930 . S
H1844 C1857 0.929 . S
H1845 C1855 0.929 . S
H1846 C1850 0.929 . S
H1847 C1856 0.929 . S
C1848 H1842 0.930 . S
C1848 C1849 1.367 . S
C1848 C1856 1.378 1_556 S
C1849 C1848 1.367 . S
C1849 C1857 1.433 . S
C1850 H1846 0.929 . S
C1850 C1852 1.378 1_556 S
C1850 C1854 1.350 1_556 S
C1851 C1854 1.463 1_556 S
C1851 C1856 1.350 1_556 S
C1851 N1859 1.427 . S
C1852 H1843 0.930 . S
C1852 C1850 1.378 1_554 S
C1852 C1853 1.367 . S
C1853 C1852 1.367 . S
C1853 C1855 1.433 . S
C1854 C1850 1.350 1_554 S
C1854 C1851 1.463 1_554 S
C1854 N1858 1.427 . S
C1855 H1845 0.929 . S
C1855 C1853 1.433 . S
C1855 N1858 1.384 . S
C1856 H1847 0.929 . S
C1856 C1848 1.378 1_554 S
C1856 C1851 1.350 1_554 S
C1857 H1844 0.929 . S
C1857 C1849 1.433 . S
C1857 N1859 1.384 . S
N1858 C1854 1.427 . S
N1858 C1855 1.384 . S
N1859 C1851 1.427 . S
N1859 C1857 1.384 . S
H1860 C1866 0.930 . S
H1861 C1870 0.930 . S
H1862 C1875 0.929 . S
H1863 C1873 0.929 . S
H1864 C1868 0.929 . S
H1865 C1874 0.929 . S
C1866 H1860 0.930 . S
C1866 C1867 1.367 . S
C1866 C1874 1.378 . S
C1867 C1866 1.367 . S
C1867 C1875 1.433 . S
C1868 H1864 0.929 . S
C1868 C1870 1.378 . S
C1868 C1872 1.350 . S
C1869 C1872 1.463 . S
C1869 C1874 1.350 . S
C1869 N1877 1.427 . S
C1870 H1861 0.930 . S
C1870 C1868 1.378 . S
C1870 C1871 1.367 . S
C1871 C1870 1.367 . S
C1871 C1873 1.433 . S
C1872 C1868 1.350 . S
C1872 C1869 1.463 . S
C1872 N1876 1.427 . S
C1873 H1863 0.929 . S
C1873 C1871 1.433 . S
C1873 N1876 1.384 . S
C1874 H1865 0.929 . S
C1874 C1866 1.378 . S
C1874 C1869 1.350 . S
C1875 H1862 0.929 . S
C1875 C1867 1.433 . S
C1875 N1877 1.384 . S
N1876 C1872 1.427 . S
N1876 C1873 1.384 . S
N1877 C1869 1.427 . S
N1877 C1875 1.384 . S
H1878 C1884 0.930 . S
H1879 C1888 0.930 . S
H1880 C1893 0.929 . S
H1881 C1891 0.929 . S
H1882 C1886 0.929 . S
H1883 C1892 0.929 . S
C1884 H1878 0.930 . S
C1884 C1885 1.367 . S
C1884 C1892 1.378 . S
C1885 C1884 1.367 . S
C1885 C1893 1.433 . S
C1886 H1882 0.929 . S
C1886 C1888 1.378 . S
C1886 C1890 1.350 . S
C1887 C1890 1.463 1_565 S
C1887 C1892 1.350 . S
C1887 N1895 1.427 . S
C1888 H1879 0.930 . S
C1888 C1886 1.378 . S
C1888 C1889 1.367 . S
C1889 C1888 1.367 . S
C1889 C1891 1.433 . S
C1890 C1886 1.350 . S
C1890 C1887 1.463 1_545 S
C1890 N1894 1.427 . S
C1891 H1881 0.929 . S
C1891 C1889 1.433 . S
C1891 N1894 1.384 . S
C1892 H1883 0.929 . S
C1892 C1884 1.378 . S
C1892 C1887 1.350 . S
C1893 H1880 0.929 . S
C1893 C1885 1.433 . S
C1893 N1895 1.384 . S
N1894 C1890 1.427 . S
N1894 C1891 1.384 . S
N1895 C1887 1.427 . S
N1895 C1893 1.384 . S
H1896 C1902 0.930 . S
H1897 C1906 0.930 . S
H1898 C1911 0.929 . S
H1899 C1909 0.929 . S
H1900 C1904 0.929 . S
H1901 C1910 0.929 . S
C1902 H1896 0.930 . S
C1902 C1903 1.367 . S
C1902 C1910 1.378 . S
C1903 C1902 1.367 . S
C1903 C1911 1.433 . S
C1904 H1900 0.929 . S
C1904 C1906 1.378 . S
C1904 C1908 1.350 . S
C1905 C1908 1.463 . S
C1905 C1910 1.350 . S
C1905 N1913 1.427 . S
C1906 H1897 0.930 . S
C1906 C1904 1.378 . S
C1906 C1907 1.367 . S
C1907 C1906 1.367 . S
C1907 C1909 1.433 . S
C1908 C1904 1.350 . S
C1908 C1905 1.463 . S
C1908 N1912 1.427 . S
C1909 H1899 0.929 . S
C1909 C1907 1.433 . S
C1909 N1912 1.384 . S
C1910 H1901 0.929 . S
C1910 C1902 1.378 . S
C1910 C1905 1.350 . S
C1911 H1898 0.929 . S
C1911 C1903 1.433 . S
C1911 N1913 1.384 . S
N1912 C1908 1.427 . S
N1912 C1909 1.384 . S
N1913 C1905 1.427 . S
N1913 C1911 1.384 . S
H1914 C1920 0.930 . S
H1915 C1924 0.930 . S
H1916 C1929 0.929 . S
H1917 C1927 0.929 . S
H1918 C1922 0.929 . S
H1919 C1928 0.929 . S
C1920 H1914 0.930 . S
C1920 C1921 1.367 . S
C1920 C1928 1.378 . S
C1921 C1920 1.367 . S
C1921 C1929 1.433 . S
C1922 H1918 0.929 . S
C1922 C1924 1.378 . S
C1922 C1926 1.350 . S
C1923 C1926 1.463 . S
C1923 C1928 1.350 . S
C1923 N1931 1.427 . S
C1924 H1915 0.930 . S
C1924 C1922 1.378 . S
C1924 C1925 1.367 . S
C1925 C1924 1.367 . S
C1925 C1927 1.433 . S
C1926 C1922 1.350 . S
C1926 C1923 1.463 . S
C1926 N1930 1.427 . S
C1927 H1917 0.929 . S
C1927 C1925 1.433 . S
C1927 N1930 1.384 . S
C1928 H1919 0.929 . S
C1928 C1920 1.378 . S
C1928 C1923 1.350 . S
C1929 H1916 0.929 . S
C1929 C1921 1.433 . S
C1929 N1931 1.384 . S
N1930 C1926 1.427 . S
N1930 C1927 1.384 . S
N1931 C1923 1.427 . S
N1931 C1929 1.384 . S
H1932 C1938 0.930 . S
H1933 C1942 0.930 . S
H1934 C1947 0.929 . S
H1935 C1945 0.929 . S
H1936 C1940 0.929 . S
H1937 C1946 0.929 . S
C1938 H1932 0.930 . S
C1938 C1939 1.367 . S
C1938 C1946 1.378 . S
C1939 C1938 1.367 . S
C1939 C1947 1.433 . S
C1940 H1936 0.929 . S
C1940 C1942 1.378 . S
C1940 C1944 1.350 . S
C1941 C1944 1.463 . S
C1941 C1946 1.350 . S
C1941 N1949 1.427 . S
C1942 H1933 0.930 . S
C1942 C1940 1.378 . S
C1942 C1943 1.367 . S
C1943 C1942 1.367 . S
C1943 C1945 1.433 . S
C1944 C1940 1.350 . S
C1944 C1941 1.463 . S
C1944 N1948 1.427 . S
C1945 H1935 0.929 . S
C1945 C1943 1.433 . S
C1945 N1948 1.384 . S
C1946 H1937 0.929 . S
C1946 C1938 1.378 . S
C1946 C1941 1.350 . S
C1947 H1934 0.929 . S
C1947 C1939 1.433 . S
C1947 N1949 1.384 . S
N1948 C1944 1.427 . S
N1948 C1945 1.384 . S
N1949 C1941 1.427 . S
N1949 C1947 1.384 . S
H1950 C1956 0.930 . S
H1951 C1960 0.930 . S
H1952 C1965 0.929 . S
H1953 C1963 0.929 . S
H1954 C1958 0.929 . S
H1955 C1964 0.929 . S
C1956 H1950 0.930 . S
C1956 C1957 1.367 . S
C1956 C1964 1.378 . S
C1957 C1956 1.367 . S
C1957 C1965 1.433 . S
C1958 H1954 0.929 . S
C1958 C1960 1.378 . S
C1958 C1962 1.350 . S
C1959 C1962 1.463 1_556 S
C1959 C1964 1.350 . S
C1959 N1967 1.427 . S
C1960 H1951 0.930 . S
C1960 C1958 1.378 . S
C1960 C1961 1.367 . S
C1961 C1960 1.367 . S
C1961 C1963 1.433 . S
C1962 C1958 1.350 . S
C1962 C1959 1.463 1_554 S
C1962 N1966 1.427 . S
C1963 H1953 0.929 . S
C1963 C1961 1.433 . S
C1963 N1966 1.384 . S
C1964 H1955 0.929 . S
C1964 C1956 1.378 . S
C1964 C1959 1.350 . S
C1965 H1952 0.929 . S
C1965 C1957 1.433 . S
C1965 N1967 1.384 . S
N1966 C1962 1.427 . S
N1966 C1963 1.384 . S
N1967 C1959 1.427 . S
N1967 C1965 1.384 . S
H1968 C1974 0.930 . S
H1969 C1978 0.930 . S
H1970 C1983 0.929 . S
H1971 C1981 0.929 . S
H1972 C1976 0.929 . S
H1973 C1982 0.929 . S
C1974 H1968 0.930 . S
C1974 C1975 1.367 . S
C1974 C1982 1.378 . S
C1975 C1974 1.367 . S
C1975 C1983 1.433 . S
C1976 H1972 0.929 . S
C1976 C1978 1.378 . S
C1976 C1980 1.350 . S
C1977 C1980 1.463 . S
C1977 C1982 1.350 . S
C1977 N1985 1.427 . S
C1978 H1969 0.930 . S
C1978 C1976 1.378 . S
C1978 C1979 1.367 . S
C1979 C1978 1.367 . S
C1979 C1981 1.433 . S
C1980 C1976 1.350 . S
C1980 C1977 1.463 . S
C1980 N1984 1.427 . S
C1981 H1971 0.929 . S
C1981 C1979 1.433 . S
C1981 N1984 1.384 . S
C1982 H1973 0.929 . S
C1982 C1974 1.378 . S
C1982 C1977 1.350 . S
C1983 H1970 0.929 . S
C1983 C1975 1.433 . S
C1983 N1985 1.384 . S
N1984 C1980 1.427 . S
N1984 C1981 1.384 . S
N1985 C1977 1.427 . S
N1985 C1983 1.384 . S
H1986 C1992 0.930 . S
H1987 C1996 0.930 . S
H1988 C2001 0.929 . S
H1989 C1999 0.929 . S
H1990 C1994 0.929 . S
H1991 C2000 0.929 . S
C1992 H1986 0.930 . S
C1992 C1993 1.367 . S
C1992 C2000 1.378 . S
C1993 C1992 1.367 . S
C1993 C2001 1.433 . S
C1994 H1990 0.929 . S
C1994 C1996 1.378 . S
C1994 C1998 1.350 . S
C1995 C1998 1.463 1_556 S
C1995 C2000 1.350 . S
C1995 N2003 1.427 . S
C1996 H1987 0.930 . S
C1996 C1994 1.378 . S
C1996 C1997 1.367 . S
C1997 C1996 1.367 . S
C1997 C1999 1.433 . S
C1998 C1994 1.350 . S
C1998 C1995 1.463 1_554 S
C1998 N2002 1.427 . S
C1999 H1989 0.929 . S
C1999 C1997 1.433 . S
C1999 N2002 1.384 . S
C2000 H1991 0.929 . S
C2000 C1992 1.378 . S
C2000 C1995 1.350 . S
C2001 H1988 0.929 . S
C2001 C1993 1.433 . S
C2001 N2003 1.384 . S
N2002 C1998 1.427 . S
N2002 C1999 1.384 . S
N2003 C1995 1.427 . S
N2003 C2001 1.384 . S
H2004 C2010 0.930 . S
H2005 C2014 0.930 . S
H2006 C2019 0.929 . S
H2007 C2017 0.929 . S
H2008 C2012 0.929 . S
H2009 C2018 0.929 . S
C2010 H2004 0.930 . S
C2010 C2011 1.367 . S
C2010 C2018 1.378 . S
C2011 C2010 1.367 . S
C2011 C2019 1.433 . S
C2012 H2008 0.929 . S
C2012 C2014 1.378 . S
C2012 C2016 1.350 . S
C2013 C2016 1.463 1_565 S
C2013 C2018 1.350 . S
C2013 N2021 1.427 . S
C2014 H2005 0.930 . S
C2014 C2012 1.378 . S
C2014 C2015 1.367 . S
C2015 C2014 1.367 . S
C2015 C2017 1.433 . S
C2016 C2012 1.350 . S
C2016 C2013 1.463 1_545 S
C2016 N2020 1.427 . S
C2017 H2007 0.929 . S
C2017 C2015 1.433 . S
C2017 N2020 1.384 . S
C2018 H2009 0.929 . S
C2018 C2010 1.378 . S
C2018 C2013 1.350 . S
C2019 H2006 0.929 . S
C2019 C2011 1.433 . S
C2019 N2021 1.384 . S
N2020 C2016 1.427 . S
N2020 C2017 1.384 . S
N2021 C2013 1.427 . S
N2021 C2019 1.384 . S
H2022 C2028 0.930 . S
H2023 C2032 0.930 . S
H2024 C2037 0.929 . S
H2025 C2035 0.929 . S
H2026 C2030 0.929 . S
H2027 C2036 0.929 . S
C2028 H2022 0.930 . S
C2028 C2029 1.367 . S
C2028 C2036 1.378 . S
C2029 C2028 1.367 . S
C2029 C2037 1.433 . S
C2030 H2026 0.929 . S
C2030 C2032 1.378 . S
C2030 C2034 1.350 . S
C2031 C2034 1.463 . S
C2031 C2036 1.350 . S
C2031 N2039 1.427 . S
C2032 H2023 0.930 . S
C2032 C2030 1.378 . S
C2032 C2033 1.367 . S
C2033 C2032 1.367 . S
C2033 C2035 1.433 . S
C2034 C2030 1.350 . S
C2034 C2031 1.463 . S
C2034 N2038 1.427 . S
C2035 H2025 0.929 . S
C2035 C2033 1.433 . S
C2035 N2038 1.384 . S
C2036 H2027 0.929 . S
C2036 C2028 1.378 . S
C2036 C2031 1.350 . S
C2037 H2024 0.929 . S
C2037 C2029 1.433 . S
C2037 N2039 1.384 . S
N2038 C2034 1.427 . S
N2038 C2035 1.384 . S
N2039 C2031 1.427 . S
N2039 C2037 1.384 . S
H2040 C2046 0.930 . S
H2041 C2050 0.930 . S
H2042 C2055 0.929 . S
H2043 C2053 0.929 . S
H2044 C2048 0.929 . S
H2045 C2054 0.929 . S
C2046 H2040 0.930 . S
C2046 C2047 1.367 . S
C2046 C2054 1.378 . S
C2047 C2046 1.367 . S
C2047 C2055 1.433 . S
C2048 H2044 0.929 . S
C2048 C2050 1.378 . S
C2048 C2052 1.350 . S
C2049 C2052 1.463 1_565 S
C2049 C2054 1.350 . S
C2049 N2057 1.427 . S
C2050 H2041 0.930 . S
C2050 C2048 1.378 . S
C2050 C2051 1.367 . S
C2051 C2050 1.367 . S
C2051 C2053 1.433 . S
C2052 C2048 1.350 . S
C2052 C2049 1.463 1_545 S
C2052 N2056 1.427 . S
C2053 H2043 0.929 . S
C2053 C2051 1.433 . S
C2053 N2056 1.384 . S
C2054 H2045 0.929 . S
C2054 C2046 1.378 . S
C2054 C2049 1.350 . S
C2055 H2042 0.929 . S
C2055 C2047 1.433 . S
C2055 N2057 1.384 . S
N2056 C2052 1.427 . S
N2056 C2053 1.384 . S
N2057 C2049 1.427 . S
N2057 C2055 1.384 . S
H2058 C2064 0.930 . S
H2059 C2068 0.930 . S
H2060 C2073 0.929 . S
H2061 C2071 0.929 . S
H2062 C2066 0.929 . S
H2063 C2072 0.929 . S
C2064 H2058 0.930 . S
C2064 C2065 1.367 . S
C2064 C2072 1.378 . S
C2065 C2064 1.367 . S
C2065 C2073 1.433 . S
C2066 H2062 0.929 . S
C2066 C2068 1.378 . S
C2066 C2070 1.350 . S
C2067 C2070 1.463 . S
C2067 C2072 1.350 . S
C2067 N2075 1.427 . S
C2068 H2059 0.930 . S
C2068 C2066 1.378 . S
C2068 C2069 1.367 . S
C2069 C2068 1.367 . S
C2069 C2071 1.433 . S
C2070 C2066 1.350 . S
C2070 C2067 1.463 . S
C2070 N2074 1.427 . S
C2071 H2061 0.929 . S
C2071 C2069 1.433 . S
C2071 N2074 1.384 . S
C2072 H2063 0.929 . S
C2072 C2064 1.378 . S
C2072 C2067 1.350 . S
C2073 H2060 0.929 . S
C2073 C2065 1.433 . S
C2073 N2075 1.384 . S
N2074 C2070 1.427 . S
N2074 C2071 1.384 . S
N2075 C2067 1.427 . S
N2075 C2073 1.384 . S
H2076 C2082 0.930 . S
H2077 C2086 0.930 . S
H2078 C2091 0.929 . S
H2079 C2089 0.929 . S
H2080 C2084 0.929 . S
H2081 C2090 0.929 . S
C2082 H2076 0.930 . S
C2082 C2083 1.367 . S
C2082 C2090 1.378 . S
C2083 C2082 1.367 . S
C2083 C2091 1.433 . S
C2084 H2080 0.929 . S
C2084 C2086 1.378 . S
C2084 C2088 1.350 . S
C2085 C2088 1.463 . S
C2085 C2090 1.350 . S
C2085 N2093 1.427 . S
C2086 H2077 0.930 . S
C2086 C2084 1.378 . S
C2086 C2087 1.367 . S
C2087 C2086 1.367 . S
C2087 C2089 1.433 . S
C2088 C2084 1.350 . S
C2088 C2085 1.463 . S
C2088 N2092 1.427 . S
C2089 H2079 0.929 . S
C2089 C2087 1.433 . S
C2089 N2092 1.384 . S
C2090 H2081 0.929 . S
C2090 C2082 1.378 . S
C2090 C2085 1.350 . S
C2091 H2078 0.929 . S
C2091 C2083 1.433 . S
C2091 N2093 1.384 . S
N2092 C2088 1.427 . S
N2092 C2089 1.384 . S
N2093 C2085 1.427 . S
N2093 C2091 1.384 . S
H2094 C2100 0.930 . S
H2095 C2104 0.930 . S
H2096 C2109 0.929 . S
H2097 C2107 0.929 . S
H2098 C2102 0.929 . S
H2099 C2108 0.929 . S
C2100 H2094 0.930 . S
C2100 C2101 1.367 . S
C2100 C2108 1.378 . S
C2101 C2100 1.367 . S
C2101 C2109 1.433 . S
C2102 H2098 0.929 . S
C2102 C2104 1.378 . S
C2102 C2106 1.350 . S
C2103 C2106 1.463 . S
C2103 C2108 1.350 . S
C2103 N2111 1.427 . S
C2104 H2095 0.930 . S
C2104 C2102 1.378 . S
C2104 C2105 1.367 . S
C2105 C2104 1.367 . S
C2105 C2107 1.433 . S
C2106 C2102 1.350 . S
C2106 C2103 1.463 . S
C2106 N2110 1.427 . S
C2107 H2097 0.929 . S
C2107 C2105 1.433 . S
C2107 N2110 1.384 . S
C2108 H2099 0.929 . S
C2108 C2100 1.378 . S
C2108 C2103 1.350 . S
C2109 H2096 0.929 . S
C2109 C2101 1.433 . S
C2109 N2111 1.384 . S
N2110 C2106 1.427 . S
N2110 C2107 1.384 . S
N2111 C2103 1.427 . S
N2111 C2109 1.384 . S
H2112 C2118 0.930 . S
H2113 C2122 0.930 . S
H2114 C2127 0.929 . S
H2115 C2125 0.929 . S
H2116 C2120 0.929 . S
H2117 C2126 0.929 . S
C2118 H2112 0.930 . S
C2118 C2119 1.367 . S
C2118 C2126 1.378 1_455 S
C2119 C2118 1.367 . S
C2119 C2127 1.433 . S
C2120 H2116 0.929 . S
C2120 C2122 1.378 . S
C2120 C2124 1.350 . S
C2121 C2124 1.463 . S
C2121 C2126 1.350 . S
C2121 N2129 1.442 . S
C2122 H2113 0.930 . S
C2122 C2120 1.378 . S
C2122 C2123 1.367 . S
C2123 C2122 1.367 . S
C2123 C2125 1.433 . S
C2124 C2120 1.350 . S
C2124 C2121 1.463 . S
C2124 N2128 1.427 . S
C2125 H2115 0.929 . S
C2125 C2123 1.433 . S
C2125 N2128 1.384 . S
C2126 H2117 0.929 . S
C2126 C2118 1.378 1_655 S
C2126 C2121 1.350 . S
C2127 H2114 0.929 . S
C2127 C2119 1.433 . S
C2127 N2129 1.366 1_455 S
N2128 C2124 1.427 . S
N2128 C2125 1.384 . S
N2129 C2121 1.442 . S
N2129 C2127 1.366 1_655 S
H2130 C2136 0.930 . S
H2131 C2140 0.930 . S
H2132 C2145 0.929 . S
H2133 C2143 0.929 . S
H2134 C2138 0.929 . S
H2135 C2144 0.996 . S
C2136 H2130 0.930 . S
C2136 C2137 1.367 . S
C2136 C2144 1.378 . S
C2137 C2136 1.367 . S
C2137 C2145 1.433 . S
C2138 H2134 0.929 . S
C2138 C2140 1.378 . S
C2138 C2142 1.350 . S
C2139 C2142 1.463 . S
C2139 C2144 1.350 . S
C2139 N2147 1.427 . S
C2140 H2131 0.930 . S
C2140 C2138 1.378 . S
C2140 C2141 1.367 1_655 S
C2141 C2140 1.367 1_455 S
C2141 C2143 1.433 . S
C2142 C2138 1.350 . S
C2142 C2139 1.463 . S
C2142 N2146 1.427 1_655 S
C2143 H2133 0.929 . S
C2143 C2141 1.433 . S
C2143 N2146 1.384 . S
C2144 H2135 0.996 . S
C2144 C2136 1.378 . S
C2144 C2139 1.350 . S
C2145 H2132 0.929 . S
C2145 C2137 1.433 . S
C2145 N2147 1.384 . S
N2146 C2142 1.427 1_455 S
N2146 C2143 1.384 . S
N2147 C2139 1.427 . S
N2147 C2145 1.384 . S
H2148 C2154 0.930 . S
H2149 C2158 0.930 . S
H2150 C2163 0.929 . S
H2151 C2161 0.929 . S
H2152 C2156 0.929 . S
H2153 C2162 0.929 . S
C2154 H2148 0.930 . S
C2154 C2155 1.405 . S
C2154 C2162 1.342 1_655 S
C2155 C2154 1.405 . S
C2155 C2163 1.433 . S
C2156 H2152 0.929 . S
C2156 C2158 1.378 . S
C2156 C2160 1.350 . S
C2157 C2160 1.463 . S
C2157 C2162 1.350 . S
C2157 N2165 1.427 1_455 S
C2158 H2149 0.930 . S
C2158 C2156 1.378 . S
C2158 C2159 1.367 . S
C2159 C2158 1.367 . S
C2159 C2161 1.433 . S
C2160 C2156 1.350 . S
C2160 C2157 1.463 . S
C2160 N2164 1.427 . S
C2161 H2151 0.929 . S
C2161 C2159 1.433 . S
C2161 N2164 1.384 . S
C2162 H2153 0.929 . S
C2162 C2154 1.342 1_455 S
C2162 C2157 1.350 . S
C2163 H2150 0.929 . S
C2163 C2155 1.433 . S
C2163 N2165 1.384 . S
N2164 C2160 1.427 . S
N2164 C2161 1.384 . S
N2165 C2157 1.427 1_655 S
N2165 C2163 1.384 . S
H2166 C2172 0.930 . S
H2167 C2176 0.930 . S
H2168 C2181 0.929 . S
H2169 C2179 0.929 . S
H2170 C2174 0.929 . S
H2171 C2180 0.929 . S
C2172 H2166 0.930 . S
C2172 C2173 1.367 1_455 S
C2172 C2180 1.378 . S
C2173 C2172 1.367 1_655 S
C2173 C2181 1.433 . S
C2174 H2170 0.929 . S
C2174 C2176 1.378 . S
C2174 C2178 1.350 . S
C2175 C2178 1.463 . S
C2175 C2180 1.350 . S
C2175 N2183 1.427 1_455 S
C2176 H2167 0.930 . S
C2176 C2174 1.378 . S
C2176 C2177 1.367 . S
C2177 C2176 1.367 . S
C2177 C2179 1.433 . S
C2178 C2174 1.350 . S
C2178 C2175 1.463 . S
C2178 N2182 1.427 . S
C2179 H2169 0.929 . S
C2179 C2177 1.433 . S
C2179 N2182 1.384 . S
C2180 H2171 0.929 . S
C2180 C2172 1.378 . S
C2180 C2175 1.350 . S
C2181 H2168 0.929 . S
C2181 C2173 1.433 . S
C2181 N2183 1.384 . S
N2182 C2178 1.427 . S
N2182 C2179 1.384 . S
N2183 C2175 1.427 1_655 S
N2183 C2181 1.384 . S
H2184 C2190 0.930 . S
H2185 C2194 0.930 . S
H2186 C2199 0.929 . S
H2187 C2197 0.929 . S
H2188 C2192 0.929 . S
H2189 C2198 0.929 . S
C2190 H2184 0.930 . S
C2190 C2191 1.367 . S
C2190 C2198 1.378 . S
C2191 C2190 1.367 . S
C2191 C2199 1.433 1_455 S
C2192 H2188 0.929 . S
C2192 C2194 1.378 . S
C2192 C2196 1.350 . S
C2193 C2196 1.463 . S
C2193 C2198 1.350 1_655 S
C2193 N2201 1.427 . S
C2194 H2185 0.930 . S
C2194 C2192 1.378 . S
C2194 C2195 1.367 . S
C2195 C2194 1.367 . S
C2195 C2197 1.433 . S
C2196 C2192 1.350 . S
C2196 C2193 1.463 . S
C2196 N2200 1.427 . S
C2197 H2187 0.929 . S
C2197 C2195 1.433 . S
C2197 N2200 1.384 . S
C2198 H2189 0.929 . S
C2198 C2190 1.378 . S
C2198 C2193 1.350 1_455 S
C2199 H2186 0.929 . S
C2199 C2191 1.433 1_655 S
C2199 N2201 1.384 . S
N2200 C2196 1.427 . S
N2200 C2197 1.384 . S
N2201 C2193 1.427 . S
N2201 C2199 1.384 . S
H2202 C2208 0.930 . S
H2203 C2212 0.930 . S
H2204 C2217 0.929 . S
H2205 C2215 0.929 . S
H2206 C2210 0.929 . S
H2207 C2216 0.929 . S
C2208 H2202 0.930 . S
C2208 C2209 1.367 . S
C2208 C2216 1.378 . S
C2209 C2208 1.367 . S
C2209 C2217 1.433 . S
C2210 H2206 0.929 . S
C2210 C2212 1.378 . S
C2210 C2214 1.350 . S
C2211 C2214 1.463 . S
C2211 C2216 1.350 . S
C2211 N2219 1.427 . S
C2212 H2203 0.930 . S
C2212 C2210 1.378 . S
C2212 C2213 1.367 . S
C2213 C2212 1.367 . S
C2213 C2215 1.433 . S
C2214 C2210 1.350 . S
C2214 C2211 1.463 . S
C2214 N2218 1.427 . S
C2215 H2205 0.929 . S
C2215 C2213 1.433 . S
C2215 N2218 1.384 . S
C2216 H2207 0.929 . S
C2216 C2208 1.378 . S
C2216 C2211 1.350 . S
C2217 H2204 0.929 . S
C2217 C2209 1.433 . S
C2217 N2219 1.384 . S
N2218 C2214 1.427 . S
N2218 C2215 1.384 . S
N2219 C2211 1.427 . S
N2219 C2217 1.384 . S
H2220 C2226 0.930 . S
H2221 C2230 0.930 . S
H2222 C2235 0.929 . S
H2223 C2233 0.929 . S
H2224 C2228 0.929 . S
H2225 C2234 0.929 . S
C2226 H2220 0.930 . S
C2226 C2227 1.367 . S
C2226 C2234 1.378 1_655 S
C2227 C2226 1.367 . S
C2227 C2235 1.433 . S
C2228 H2224 0.929 . S
C2228 C2230 1.378 . S
C2228 C2232 1.350 . S
C2229 C2232 1.463 . S
C2229 C2234 1.350 . S
C2229 N2237 1.427 . S
C2230 H2221 0.930 . S
C2230 C2228 1.378 . S
C2230 C2231 1.367 . S
C2231 C2230 1.367 . S
C2231 C2233 1.433 . S
C2232 C2228 1.350 . S
C2232 C2229 1.463 . S
C2232 N2236 1.427 . S
C2233 H2223 0.929 . S
C2233 C2231 1.433 . S
C2233 N2236 1.384 . S
C2234 H2225 0.929 . S
C2234 C2226 1.378 1_455 S
C2234 C2229 1.350 . S
C2235 H2222 0.929 . S
C2235 C2227 1.433 . S
C2235 N2237 1.384 1_655 S
N2236 C2232 1.427 . S
N2236 C2233 1.384 . S
N2237 C2229 1.427 . S
N2237 C2235 1.384 1_455 S
H2238 C2244 0.930 . S
H2239 C2248 0.930 . S
H2240 C2253 0.929 . S
H2241 C2251 0.929 . S
H2242 C2246 0.929 . S
H2243 C2252 0.929 . S
C2244 H2238 0.930 . S
C2244 C2245 1.367 . S
C2244 C2252 1.378 . S
C2245 C2244 1.367 . S
C2245 C2253 1.433 . S
C2246 H2242 0.929 . S
C2246 C2248 1.378 . S
C2246 C2250 1.350 . S
C2247 C2250 1.463 . S
C2247 C2252 1.350 . S
C2247 N2255 1.427 . S
C2248 H2239 0.930 . S
C2248 C2246 1.378 . S
C2248 C2249 1.367 . S
C2249 C2248 1.367 . S
C2249 C2251 1.433 . S
C2250 C2246 1.350 . S
C2250 C2247 1.463 . S
C2250 N2254 1.427 . S
C2251 H2241 0.929 . S
C2251 C2249 1.433 . S
C2251 N2254 1.384 . S
C2252 H2243 0.929 . S
C2252 C2244 1.378 . S
C2252 C2247 1.350 . S
C2253 H2240 0.929 . S
C2253 C2245 1.433 . S
C2253 N2255 1.384 . S
N2254 C2250 1.427 . S
N2254 C2251 1.384 . S
N2255 C2247 1.427 . S
N2255 C2253 1.384 . S
H2256 C2262 0.930 . S
H2257 C2266 0.930 . S
H2258 C2271 0.929 . S
H2259 C2269 0.929 . S
H2260 C2264 0.929 . S
H2261 C2270 0.929 . S
C2262 H2256 0.930 . S
C2262 C2263 1.367 1_565 S
C2262 C2270 1.378 . S
C2263 C2262 1.367 1_545 S
C2263 C2271 1.433 . S
C2264 H2260 0.929 . S
C2264 C2266 1.378 . S
C2264 C2268 1.350 . S
C2265 C2268 1.463 . S
C2265 C2270 1.350 . S
C2265 N2273 1.427 1_565 S
C2266 H2257 0.930 . S
C2266 C2264 1.378 . S
C2266 C2267 1.367 . S
C2267 C2266 1.367 . S
C2267 C2269 1.433 . S
C2268 C2264 1.350 . S
C2268 C2265 1.463 . S
C2268 N2272 1.427 . S
C2269 H2259 0.929 . S
C2269 C2267 1.433 . S
C2269 N2272 1.384 . S
C2270 H2261 0.929 . S
C2270 C2262 1.378 . S
C2270 C2265 1.350 . S
C2271 H2258 0.929 . S
C2271 C2263 1.433 . S
C2271 N2273 1.384 . S
N2272 C2268 1.427 . S
N2272 C2269 1.384 . S
N2273 C2265 1.427 1_545 S
N2273 C2271 1.384 . S
H2274 C2280 0.930 . S
H2275 C2284 0.930 . S
H2276 C2289 0.929 . S
H2277 C2287 0.929 . S
H2278 C2282 0.929 . S
H2279 C2288 0.929 . S
C2280 H2274 0.930 . S
C2280 C2281 1.367 . S
C2280 C2288 1.378 . S
C2281 C2280 1.367 . S
C2281 C2289 1.433 . S
C2282 H2278 0.929 . S
C2282 C2284 1.378 . S
C2282 C2286 1.350 . S
C2283 C2286 1.463 . S
C2283 C2288 1.350 . S
C2283 N2291 1.427 . S
C2284 H2275 0.930 . S
C2284 C2282 1.378 . S
C2284 C2285 1.367 . S
C2285 C2284 1.367 . S
C2285 C2287 1.433 . S
C2286 C2282 1.350 . S
C2286 C2283 1.463 . S
C2286 N2290 1.427 . S
C2287 H2277 0.929 . S
C2287 C2285 1.433 . S
C2287 N2290 1.384 . S
C2288 H2279 0.929 . S
C2288 C2280 1.378 . S
C2288 C2283 1.350 . S
C2289 H2276 0.929 . S
C2289 C2281 1.433 . S
C2289 N2291 1.384 . S
N2290 C2286 1.427 . S
N2290 C2287 1.384 . S
N2291 C2283 1.427 . S
N2291 C2289 1.384 . S
H2292 C2298 0.930 . S
H2293 C2302 0.930 . S
H2294 C2307 0.929 . S
H2295 C2305 0.929 . S
H2296 C2300 0.929 . S
H2297 C2306 0.929 . S
C2298 H2292 0.930 . S
C2298 C2299 1.367 . S
C2298 C2306 1.378 . S
C2299 C2298 1.367 . S
C2299 C2307 1.433 . S
C2300 H2296 0.929 . S
C2300 C2302 1.378 . S
C2300 C2304 1.350 . S
C2301 C2304 1.463 . S
C2301 C2306 1.350 . S
C2301 N2309 1.427 . S
C2302 H2293 0.930 . S
C2302 C2300 1.378 . S
C2302 C2303 1.367 . S
C2303 C2302 1.367 . S
C2303 C2305 1.433 . S
C2304 C2300 1.350 . S
C2304 C2301 1.463 . S
C2304 N2308 1.427 . S
C2305 H2295 0.929 . S
C2305 C2303 1.433 . S
C2305 N2308 1.384 . S
C2306 H2297 0.929 . S
C2306 C2298 1.378 . S
C2306 C2301 1.350 . S
C2307 H2294 0.929 . S
C2307 C2299 1.433 . S
C2307 N2309 1.384 . S
N2308 C2304 1.427 . S
N2308 C2305 1.384 . S
N2309 C2301 1.427 . S
N2309 C2307 1.384 . S
H2310 C2316 0.930 . S
H2311 C2320 0.930 . S
H2312 C2325 0.929 . S
H2313 C2323 0.929 . S
H2314 C2318 0.929 . S
H2315 C2324 0.929 . S
C2316 H2310 0.930 . S
C2316 C2317 1.367 . S
C2316 C2324 1.378 . S
C2317 C2316 1.367 . S
C2317 C2325 1.433 . S
C2318 H2314 0.929 . S
C2318 C2320 1.378 . S
C2318 C2322 1.350 . S
C2319 C2322 1.463 . S
C2319 C2324 1.350 . S
C2319 N2327 1.427 . S
C2320 H2311 0.930 . S
C2320 C2318 1.378 . S
C2320 C2321 1.367 1_554 S
C2321 C2320 1.367 1_556 S
C2321 C2323 1.433 . S
C2322 C2318 1.350 . S
C2322 C2319 1.463 . S
C2322 N2326 1.427 1_554 S
C2323 H2313 0.929 . S
C2323 C2321 1.433 . S
C2323 N2326 1.384 . S
C2324 H2315 0.929 . S
C2324 C2316 1.378 . S
C2324 C2319 1.350 . S
C2325 H2312 0.929 . S
C2325 C2317 1.433 . S
C2325 N2327 1.384 . S
N2326 C2322 1.427 1_556 S
N2326 C2323 1.384 . S
N2327 C2319 1.427 . S
N2327 C2325 1.384 . S
H2328 C2334 0.930 . S
H2329 C2338 0.930 . S
H2330 C2343 0.929 . S
H2331 C2341 0.929 . S
H2332 C2336 0.929 . S
H2333 C2342 0.929 . S
C2334 H2328 0.930 . S
C2334 C2335 1.367 . S
C2334 C2342 1.378 . S
C2335 C2334 1.367 . S
C2335 C2343 1.433 . S
C2336 H2332 0.929 . S
C2336 C2338 1.378 . S
C2336 C2340 1.350 . S
C2337 C2340 1.463 . S
C2337 C2342 1.350 . S
C2337 N2345 1.427 . S
C2338 H2329 0.930 . S
C2338 C2336 1.378 . S
C2338 C2339 1.367 1_545 S
C2339 C2338 1.367 1_565 S
C2339 C2341 1.433 . S
C2340 C2336 1.350 . S
C2340 C2337 1.463 . S
C2340 N2344 1.427 1_545 S
C2341 H2331 0.929 . S
C2341 C2339 1.433 . S
C2341 N2344 1.384 . S
C2342 H2333 0.929 . S
C2342 C2334 1.378 . S
C2342 C2337 1.350 . S
C2343 H2330 0.929 . S
C2343 C2335 1.433 . S
C2343 N2345 1.384 . S
N2344 C2340 1.427 1_565 S
N2344 C2341 1.384 . S
N2345 C2337 1.427 . S
N2345 C2343 1.384 . S
H2346 C2352 0.930 . S
H2347 C2356 0.930 . S
H2348 C2361 0.929 . S
H2349 C2359 0.929 . S
H2350 C2354 0.929 . S
H2351 C2360 0.929 . S
C2352 H2346 0.930 . S
C2352 C2353 1.367 . S
C2352 C2360 1.378 . S
C2353 C2352 1.367 . S
C2353 C2361 1.433 1_554 S
C2354 H2350 0.929 . S
C2354 C2356 1.378 . S
C2354 C2358 1.350 . S
C2355 C2358 1.463 . S
C2355 C2360 1.350 1_556 S
C2355 N2363 1.427 . S
C2356 H2347 0.930 . S
C2356 C2354 1.378 . S
C2356 C2357 1.367 . S
C2357 C2356 1.367 . S
C2357 C2359 1.433 . S
C2358 C2354 1.350 . S
C2358 C2355 1.463 . S
C2358 N2362 1.427 . S
C2359 H2349 0.929 . S
C2359 C2357 1.433 . S
C2359 N2362 1.384 . S
C2360 H2351 0.929 . S
C2360 C2352 1.378 . S
C2360 C2355 1.350 1_554 S
C2361 H2348 0.929 . S
C2361 C2353 1.433 1_556 S
C2361 N2363 1.384 . S
N2362 C2358 1.427 . S
N2362 C2359 1.384 . S
N2363 C2355 1.427 . S
N2363 C2361 1.384 . S
H2364 C2370 0.930 . S
H2365 C2374 0.930 . S
H2366 C2379 0.929 . S
H2367 C2377 0.929 . S
H2368 C2372 0.929 . S
H2369 C2378 0.929 . S
C2370 H2364 0.930 . S
C2370 C2371 1.367 . S
C2370 C2378 1.378 . S
C2371 C2370 1.367 . S
C2371 C2379 1.433 . S
C2372 H2368 0.929 . S
C2372 C2374 1.378 . S
C2372 C2376 1.350 . S
C2373 C2376 1.463 . S
C2373 C2378 1.350 . S
C2373 N2381 1.427 . S
C2374 H2365 0.930 . S
C2374 C2372 1.378 . S
C2374 C2375 1.367 . S
C2375 C2374 1.367 . S
C2375 C2377 1.433 . S
C2376 C2372 1.350 . S
C2376 C2373 1.463 . S
C2376 N2380 1.427 . S
C2377 H2367 0.929 . S
C2377 C2375 1.433 . S
C2377 N2380 1.384 . S
C2378 H2369 0.929 . S
C2378 C2370 1.378 . S
C2378 C2373 1.350 . S
C2379 H2366 0.929 . S
C2379 C2371 1.433 . S
C2379 N2381 1.384 . S
N2380 C2376 1.427 . S
N2380 C2377 1.384 . S
N2381 C2373 1.427 . S
N2381 C2379 1.384 . S
H2382 C2388 0.930 . S
H2383 C2392 0.930 . S
H2384 C2397 0.929 . S
H2385 C2395 0.929 . S
H2386 C2390 0.929 . S
H2387 C2396 0.929 . S
C2388 H2382 0.930 . S
C2388 C2389 1.367 . S
C2388 C2396 1.378 . S
C2389 C2388 1.367 . S
C2389 C2397 1.433 . S
C2390 H2386 0.929 . S
C2390 C2392 1.378 . S
C2390 C2394 1.350 . S
C2391 C2394 1.463 . S
C2391 C2396 1.350 . S
C2391 N2399 1.427 . S
C2392 H2383 0.930 . S
C2392 C2390 1.378 . S
C2392 C2393 1.367 . S
C2393 C2392 1.367 . S
C2393 C2395 1.433 . S
C2394 C2390 1.350 . S
C2394 C2391 1.463 . S
C2394 N2398 1.427 . S
C2395 H2385 0.929 . S
C2395 C2393 1.433 . S
C2395 N2398 1.384 . S
C2396 H2387 0.929 . S
C2396 C2388 1.378 . S
C2396 C2391 1.350 . S
C2397 H2384 0.929 . S
C2397 C2389 1.433 . S
C2397 N2399 1.384 . S
N2398 C2394 1.427 . S
N2398 C2395 1.384 . S
N2399 C2391 1.427 . S
N2399 C2397 1.384 . S
H2400 C2406 0.930 . S
H2401 C2410 0.930 . S
H2402 C2415 0.929 . S
H2403 C2413 0.929 . S
H2404 C2408 0.929 . S
H2405 C2414 0.929 . S
C2406 H2400 0.930 . S
C2406 C2407 1.367 . S
C2406 C2414 1.378 . S
C2407 C2406 1.367 . S
C2407 C2415 1.433 . S
C2408 H2404 0.929 . S
C2408 C2410 1.378 . S
C2408 C2412 1.350 1_554 S
C2409 C2412 1.463 . S
C2409 C2414 1.350 . S
C2409 N2417 1.427 . S
C2410 H2401 0.930 . S
C2410 C2408 1.378 . S
C2410 C2411 1.367 . S
C2411 C2410 1.367 . S
C2411 C2413 1.433 1_554 S
C2412 C2408 1.350 1_556 S
C2412 C2409 1.463 . S
C2412 N2416 1.427 . S
C2413 H2403 0.929 . S
C2413 C2411 1.433 1_556 S
C2413 N2416 1.384 . S
C2414 H2405 0.929 . S
C2414 C2406 1.378 . S
C2414 C2409 1.350 . S
C2415 H2402 0.929 . S
C2415 C2407 1.433 . S
C2415 N2417 1.384 . S
N2416 C2412 1.427 . S
N2416 C2413 1.384 . S
N2417 C2409 1.427 . S
N2417 C2415 1.384 . S
H2418 C2424 0.930 . S
H2419 C2428 0.930 . S
H2420 C2433 0.929 . S
H2421 C2431 0.929 . S
H2422 C2426 0.929 . S
H2423 C2432 0.929 . S
C2424 H2418 0.930 . S
C2424 C2425 1.367 . S
C2424 C2432 1.378 . S
C2425 C2424 1.367 . S
C2425 C2433 1.433 . S
C2426 H2422 0.929 . S
C2426 C2428 1.378 . S
C2426 C2430 1.350 . S
C2427 C2430 1.463 . S
C2427 C2432 1.350 . S
C2427 N2435 1.427 . S
C2428 H2419 0.930 . S
C2428 C2426 1.378 . S
C2428 C2429 1.367 . S
C2429 C2428 1.367 . S
C2429 C2431 1.433 . S
C2430 C2426 1.350 . S
C2430 C2427 1.463 . S
C2430 N2434 1.427 . S
C2431 H2421 0.929 . S
C2431 C2429 1.433 . S
C2431 N2434 1.384 . S
C2432 H2423 0.929 . S
C2432 C2424 1.378 . S
C2432 C2427 1.350 . S
C2433 H2420 0.929 . S
C2433 C2425 1.433 . S
C2433 N2435 1.384 . S
N2434 C2430 1.427 . S
N2434 C2431 1.384 . S
N2435 C2427 1.427 . S
N2435 C2433 1.384 . S
H2436 C2442 0.930 . S
H2437 C2446 0.930 . S
H2438 C2451 0.929 . S
H2439 C2449 0.929 . S
H2440 C2444 0.939 . S
H2441 C2450 0.929 . S
C2442 H2436 0.930 . S
C2442 C2443 1.367 . S
C2442 C2450 1.378 . S
C2443 C2442 1.367 . S
C2443 C2451 1.433 . S
C2444 H2440 0.939 . S
C2444 C2446 1.342 1_545 S
C2444 C2448 1.379 . S
C2445 C2448 1.463 . S
C2445 C2450 1.350 . S
C2445 N2453 1.427 . S
C2446 H2437 0.930 . S
C2446 C2444 1.342 1_565 S
C2446 C2447 1.367 . S
C2447 C2446 1.367 . S
C2447 C2449 1.433 . S
C2448 C2444 1.379 . S
C2448 C2445 1.463 . S
C2448 N2452 1.427 . S
C2449 H2439 0.929 . S
C2449 C2447 1.433 . S
C2449 N2452 1.384 1_565 S
C2450 H2441 0.929 . S
C2450 C2442 1.378 . S
C2450 C2445 1.350 . S
C2451 H2438 0.929 . S
C2451 C2443 1.433 . S
C2451 N2453 1.384 . S
N2452 C2448 1.427 . S
N2452 C2449 1.384 1_545 S
N2453 C2445 1.427 . S
N2453 C2451 1.384 . S
H2454 C2460 0.930 . S
H2455 C2464 0.930 . S
H2456 C2469 0.929 . S
H2457 C2467 0.929 . S
H2458 C2462 0.929 . S
H2459 C2468 0.929 . S
C2460 H2454 0.930 . S
C2460 C2461 1.400 . S
C2460 C2468 1.347 1_556 S
C2461 C2460 1.400 . S
C2461 C2469 1.433 . S
C2462 H2458 0.929 . S
C2462 C2464 1.378 . S
C2462 C2466 1.350 . S
C2463 C2466 1.463 . S
C2463 C2468 1.350 . S
C2463 N2471 1.427 1_554 S
C2464 H2455 0.930 . S
C2464 C2462 1.378 . S
C2464 C2465 1.367 . S
C2465 C2464 1.367 . S
C2465 C2467 1.433 . S
C2466 C2462 1.350 . S
C2466 C2463 1.463 . S
C2466 N2470 1.427 . S
C2467 H2457 0.929 . S
C2467 C2465 1.433 . S
C2467 N2470 1.384 . S
C2468 H2459 0.929 . S
C2468 C2460 1.347 1_554 S
C2468 C2463 1.350 . S
C2469 H2456 0.929 . S
C2469 C2461 1.433 . S
C2469 N2471 1.384 . S
N2470 C2466 1.427 . S
N2470 C2467 1.384 . S
N2471 C2463 1.427 1_556 S
N2471 C2469 1.384 . S
H2472 C2478 0.930 . S
H2473 C2482 0.930 . S
H2474 C2487 0.929 . S
H2475 C2485 0.929 . S
H2476 C2480 0.929 . S
H2477 C2486 0.929 . S
C2478 H2472 0.930 . S
C2478 C2479 1.367 . S
C2478 C2486 1.378 . S
C2479 C2478 1.367 . S
C2479 C2487 1.433 1_554 S
C2480 H2476 0.929 . S
C2480 C2482 1.378 . S
C2480 C2484 1.350 . S
C2481 C2484 1.463 . S
C2481 C2486 1.350 1_556 S
C2481 N2489 1.427 . S
C2482 H2473 0.930 . S
C2482 C2480 1.378 . S
C2482 C2483 1.367 . S
C2483 C2482 1.367 . S
C2483 C2485 1.433 . S
C2484 C2480 1.350 . S
C2484 C2481 1.463 . S
C2484 N2488 1.427 . S
C2485 H2475 0.929 . S
C2485 C2483 1.433 . S
C2485 N2488 1.384 . S
C2486 H2477 0.929 . S
C2486 C2478 1.378 . S
C2486 C2481 1.350 1_554 S
C2487 H2474 0.929 . S
C2487 C2479 1.433 1_556 S
C2487 N2489 1.384 . S
N2488 C2484 1.427 . S
N2488 C2485 1.384 . S
N2489 C2481 1.427 . S
N2489 C2487 1.384 . S
H2490 C2496 0.930 . S
H2491 C2500 0.930 . S
H2492 C2505 0.929 . S
H2493 C2503 0.929 . S
H2494 C2498 0.929 . S
H2495 C2504 0.929 . S
C2496 H2490 0.930 . S
C2496 C2497 1.367 . S
C2496 C2504 1.378 . S
C2497 C2496 1.367 . S
C2497 C2505 1.433 . S
C2498 H2494 0.929 . S
C2498 C2500 1.378 . S
C2498 C2502 1.350 . S
C2499 C2502 1.463 . S
C2499 C2504 1.350 . S
C2499 N2507 1.427 . S
C2500 H2491 0.930 . S
C2500 C2498 1.378 . S
C2500 C2501 1.367 . S
C2501 C2500 1.367 . S
C2501 C2503 1.433 . S
C2502 C2498 1.350 . S
C2502 C2499 1.463 . S
C2502 N2506 1.427 . S
C2503 H2493 0.929 . S
C2503 C2501 1.433 . S
C2503 N2506 1.384 . S
C2504 H2495 0.929 . S
C2504 C2496 1.378 . S
C2504 C2499 1.350 . S
C2505 H2492 0.929 . S
C2505 C2497 1.433 . S
C2505 N2507 1.384 . S
N2506 C2502 1.427 . S
N2506 C2503 1.384 . S
N2507 C2499 1.427 . S
N2507 C2505 1.384 . S
H2508 C2514 0.930 . S
H2509 C2518 0.930 . S
H2510 C2523 0.929 . S
H2511 C2521 0.929 . S
H2512 C2516 0.929 . S
H2513 C2522 0.929 . S
C2514 H2508 0.930 . S
C2514 C2515 1.367 1_545 S
C2514 C2522 1.378 . S
C2515 C2514 1.367 1_565 S
C2515 C2523 1.433 . S
C2516 H2512 0.929 . S
C2516 C2518 1.378 . S
C2516 C2520 1.350 . S
C2517 C2520 1.463 . S
C2517 C2522 1.350 . S
C2517 N2525 1.427 1_545 S
C2518 H2509 0.930 . S
C2518 C2516 1.378 . S
C2518 C2519 1.367 . S
C2519 C2518 1.367 . S
C2519 C2521 1.433 . S
C2520 C2516 1.350 . S
C2520 C2517 1.463 . S
C2520 N2524 1.427 . S
C2521 H2511 0.929 . S
C2521 C2519 1.433 . S
C2521 N2524 1.384 . S
C2522 H2513 0.929 . S
C2522 C2514 1.378 . S
C2522 C2517 1.350 . S
C2523 H2510 0.929 . S
C2523 C2515 1.433 . S
C2523 N2525 1.384 . S
N2524 C2520 1.427 . S
N2524 C2521 1.384 . S
N2525 C2517 1.427 1_565 S
N2525 C2523 1.384 . S
H2526 C2532 0.930 . S
H2527 C2536 0.930 . S
H2528 C2541 0.929 . S
H2529 C2539 0.929 . S
H2530 C2534 0.929 . S
H2531 C2540 0.929 . S
C2532 H2526 0.930 . S
C2532 C2533 1.387 . S
C2532 C2540 1.359 1_455 S
C2533 C2532 1.387 . S
C2533 C2541 1.433 . S
C2534 H2530 0.929 . S
C2534 C2536 1.378 . S
C2534 C2538 1.350 . S
C2535 C2538 1.463 . S
C2535 C2540 1.350 . S
C2535 N2543 1.427 1_655 S
C2536 H2527 0.930 . S
C2536 C2534 1.378 . S
C2536 C2537 1.367 . S
C2537 C2536 1.367 . S
C2537 C2539 1.433 . S
C2538 C2534 1.350 . S
C2538 C2535 1.463 . S
C2538 N2542 1.427 . S
C2539 H2529 0.929 . S
C2539 C2537 1.433 . S
C2539 N2542 1.384 . S
C2540 H2531 0.929 . S
C2540 C2532 1.359 1_655 S
C2540 C2535 1.350 . S
C2541 H2528 0.929 . S
C2541 C2533 1.433 . S
C2541 N2543 1.384 . S
N2542 C2538 1.427 . S
N2542 C2539 1.384 . S
N2543 C2535 1.427 1_455 S
N2543 C2541 1.384 . S
H2544 C2550 0.930 . S
H2545 C2554 0.930 . S
H2546 C2559 0.929 . S
H2547 C2557 0.929 . S
H2548 C2552 0.929 . S
H2549 C2558 0.929 . S
C2550 H2544 0.930 . S
C2550 C2551 1.367 . S
C2550 C2558 1.378 . S
C2551 C2550 1.367 . S
C2551 C2559 1.433 . S
C2552 H2548 0.929 . S
C2552 C2554 1.378 1_455 S
C2552 C2556 1.350 . S
C2553 C2556 1.463 . S
C2553 C2558 1.350 . S
C2553 N2561 1.427 . S
C2554 H2545 0.930 . S
C2554 C2552 1.378 1_655 S
C2554 C2555 1.367 . S
C2555 C2554 1.367 . S
C2555 C2557 1.433 . S
C2556 C2552 1.350 . S
C2556 C2553 1.463 . S
C2556 N2560 1.427 . S
C2557 H2547 0.929 . S
C2557 C2555 1.433 . S
C2557 N2560 1.384 1_655 S
C2558 H2549 0.929 . S
C2558 C2550 1.378 . S
C2558 C2553 1.350 . S
C2559 H2546 0.929 . S
C2559 C2551 1.433 . S
C2559 N2561 1.384 . S
N2560 C2556 1.427 . S
N2560 C2557 1.384 1_455 S
N2561 C2553 1.427 . S
N2561 C2559 1.384 . S
H2562 C2568 0.930 . S
H2563 C2572 0.930 . S
H2564 C2577 0.929 . S
H2565 C2575 0.929 . S
H2566 C2570 0.929 . S
H2567 C2576 0.929 . S
C2568 H2562 0.930 . S
C2568 C2569 1.367 . S
C2568 C2576 1.378 . S
C2569 C2568 1.367 . S
C2569 C2577 1.433 . S
C2570 H2566 0.929 . S
C2570 C2572 1.378 . S
C2570 C2574 1.350 . S
C2571 C2574 1.463 . S
C2571 C2576 1.350 . S
C2571 N2579 1.427 . S
C2572 H2563 0.930 . S
C2572 C2570 1.378 . S
C2572 C2573 1.367 . S
C2573 C2572 1.367 . S
C2573 C2575 1.433 . S
C2574 C2570 1.350 . S
C2574 C2571 1.463 . S
C2574 N2578 1.427 . S
C2575 H2565 0.929 . S
C2575 C2573 1.433 . S
C2575 N2578 1.384 . S
C2576 H2567 0.929 . S
C2576 C2568 1.378 . S
C2576 C2571 1.350 . S
C2577 H2564 0.929 . S
C2577 C2569 1.433 . S
C2577 N2579 1.384 . S
N2578 C2574 1.427 . S
N2578 C2575 1.384 . S
N2579 C2571 1.427 . S
N2579 C2577 1.384 . S
H2580 C2586 0.930 . S
H2581 C2590 0.930 . S
H2582 C2595 0.929 . S
H2583 C2593 0.929 . S
H2584 C2588 0.929 . S
H2585 C2594 0.929 . S
C2586 H2580 0.930 . S
C2586 C2587 1.367 . S
C2586 C2594 1.378 . S
C2587 C2586 1.367 . S
C2587 C2595 1.433 . S
C2588 H2584 0.929 . S
C2588 C2590 1.378 . S
C2588 C2592 1.350 . S
C2589 C2592 1.463 . S
C2589 C2594 1.350 . S
C2589 N2597 1.427 . S
C2590 H2581 0.930 . S
C2590 C2588 1.378 . S
C2590 C2591 1.367 . S
C2591 C2590 1.367 . S
C2591 C2593 1.433 . S
C2592 C2588 1.350 . S
C2592 C2589 1.463 . S
C2592 N2596 1.427 . S
C2593 H2583 0.929 . S
C2593 C2591 1.433 . S
C2593 N2596 1.384 . S
C2594 H2585 0.929 . S
C2594 C2586 1.378 . S
C2594 C2589 1.350 . S
C2595 H2582 0.929 . S
C2595 C2587 1.433 . S
C2595 N2597 1.384 . S
N2596 C2592 1.427 . S
N2596 C2593 1.384 . S
N2597 C2589 1.427 . S
N2597 C2595 1.384 . S
H2598 C2604 0.930 . S
H2599 C2608 0.930 . S
H2600 C2613 0.929 . S
H2601 C2611 0.929 . S
H2602 C2606 0.929 . S
H2603 C2612 0.929 . S
C2604 H2598 0.930 . S
C2604 C2605 1.367 . S
C2604 C2612 1.378 . S
C2605 C2604 1.367 . S
C2605 C2613 1.433 . S
C2606 H2602 0.929 . S
C2606 C2608 1.378 . S
C2606 C2610 1.350 . S
C2607 C2610 1.463 . S
C2607 C2612 1.350 . S
C2607 N2615 1.427 . S
C2608 H2599 0.930 . S
C2608 C2606 1.378 . S
C2608 C2609 1.367 . S
C2609 C2608 1.367 . S
C2609 C2611 1.433 . S
C2610 C2606 1.350 . S
C2610 C2607 1.463 . S
C2610 N2614 1.427 . S
C2611 H2601 0.929 . S
C2611 C2609 1.433 . S
C2611 N2614 1.384 . S
C2612 H2603 0.929 . S
C2612 C2604 1.378 . S
C2612 C2607 1.350 . S
C2613 H2600 0.929 . S
C2613 C2605 1.433 . S
C2613 N2615 1.384 . S
N2614 C2610 1.427 . S
N2614 C2611 1.384 . S
N2615 C2607 1.427 . S
N2615 C2613 1.384 . S
H2616 C2622 0.930 . S
H2617 C2626 0.930 . S
H2618 C2631 0.929 . S
H2619 C2629 0.929 . S
H2620 C2624 0.929 . S
H2621 C2630 0.929 . S
C2622 H2616 0.930 . S
C2622 C2623 1.367 . S
C2622 C2630 1.378 . S
C2623 C2622 1.367 . S
C2623 C2631 1.433 . S
C2624 H2620 0.929 . S
C2624 C2626 1.378 1_554 S
C2624 C2628 1.350 . S
C2625 C2628 1.463 . S
C2625 C2630 1.350 . S
C2625 N2633 1.427 . S
C2626 H2617 0.930 . S
C2626 C2624 1.378 1_556 S
C2626 C2627 1.367 . S
C2627 C2626 1.367 . S
C2627 C2629 1.433 . S
C2628 C2624 1.350 . S
C2628 C2625 1.463 . S
C2628 N2632 1.459 . S
C2629 H2619 0.929 . S
C2629 C2627 1.433 . S
C2629 N2632 1.344 1_556 S
C2630 H2621 0.929 . S
C2630 C2622 1.378 . S
C2630 C2625 1.350 . S
C2631 H2618 0.929 . S
C2631 C2623 1.433 . S
C2631 N2633 1.384 . S
N2632 C2628 1.459 . S
N2632 C2629 1.344 1_554 S
N2633 C2625 1.427 . S
N2633 C2631 1.384 . S
H2634 C2640 0.930 . S
H2635 C2644 0.930 . S
H2636 C2649 0.929 . S
H2637 C2647 0.929 . S
H2638 C2642 0.929 . S
H2639 C2648 0.929 . S
C2640 H2634 0.930 . S
C2640 C2641 1.385 . S
C2640 C2648 1.361 1_565 S
C2641 C2640 1.385 . S
C2641 C2649 1.433 . S
C2642 H2638 0.929 . S
C2642 C2644 1.378 . S
C2642 C2646 1.350 . S
C2643 C2646 1.463 . S
C2643 C2648 1.350 . S
C2643 N2651 1.427 1_545 S
C2644 H2635 0.930 . S
C2644 C2642 1.378 . S
C2644 C2645 1.367 . S
C2645 C2644 1.367 . S
C2645 C2647 1.433 . S
C2646 C2642 1.350 . S
C2646 C2643 1.463 . S
C2646 N2650 1.427 . S
C2647 H2637 0.929 . S
C2647 C2645 1.433 . S
C2647 N2650 1.384 . S
C2648 H2639 0.929 . S
C2648 C2640 1.361 1_545 S
C2648 C2643 1.350 . S
C2649 H2636 0.929 . S
C2649 C2641 1.433 . S
C2649 N2651 1.384 . S
N2650 C2646 1.427 . S
N2650 C2647 1.384 . S
N2651 C2643 1.427 1_565 S
N2651 C2649 1.384 . S
H2652 C2658 0.930 . S
H2653 C2662 0.930 . S
H2654 C2667 0.929 . S
H2655 C2665 0.929 . S
H2656 C2660 0.929 . S
H2657 C2666 0.929 . S
C2658 H2652 0.930 . S
C2658 C2659 1.367 . S
C2658 C2666 1.378 . S
C2659 C2658 1.367 . S
C2659 C2667 1.433 . S
C2660 H2656 0.929 . S
C2660 C2662 1.378 . S
C2660 C2664 1.350 . S
C2661 C2664 1.463 . S
C2661 C2666 1.350 . S
C2661 N2669 1.427 . S
C2662 H2653 0.930 . S
C2662 C2660 1.378 . S
C2662 C2663 1.367 . S
C2663 C2662 1.367 . S
C2663 C2665 1.433 . S
C2664 C2660 1.350 . S
C2664 C2661 1.463 . S
C2664 N2668 1.427 . S
C2665 H2655 0.929 . S
C2665 C2663 1.433 . S
C2665 N2668 1.384 . S
C2666 H2657 0.929 . S
C2666 C2658 1.378 . S
C2666 C2661 1.350 . S
C2667 H2654 0.929 . S
C2667 C2659 1.433 . S
C2667 N2669 1.384 . S
N2668 C2664 1.427 . S
N2668 C2665 1.384 . S
N2669 C2661 1.427 . S
N2669 C2667 1.384 . S
H2670 C2676 0.930 . S
H2671 C2680 0.930 . S
H2672 C2685 0.929 . S
H2673 C2683 0.929 . S
H2674 C2678 0.929 . S
H2675 C2684 0.929 . S
C2676 H2670 0.930 . S
C2676 C2677 1.367 . S
C2676 C2684 1.378 . S
C2677 C2676 1.367 . S
C2677 C2685 1.433 . S
C2678 H2674 0.929 . S
C2678 C2680 1.378 . S
C2678 C2682 1.350 . S
C2679 C2682 1.463 . S
C2679 C2684 1.350 . S
C2679 N2687 1.427 . S
C2680 H2671 0.930 . S
C2680 C2678 1.378 . S
C2680 C2681 1.367 . S
C2681 C2680 1.367 . S
C2681 C2683 1.433 . S
C2682 C2678 1.350 . S
C2682 C2679 1.463 . S
C2682 N2686 1.427 . S
C2683 H2673 0.929 . S
C2683 C2681 1.433 . S
C2683 N2686 1.384 . S
C2684 H2675 0.929 . S
C2684 C2676 1.378 . S
C2684 C2679 1.350 . S
C2685 H2672 0.929 . S
C2685 C2677 1.433 . S
C2685 N2687 1.384 . S
N2686 C2682 1.427 . S
N2686 C2683 1.384 . S
N2687 C2679 1.427 . S
N2687 C2685 1.384 . S
H2688 C2694 0.930 . S
H2689 C2698 0.930 . S
H2690 C2703 0.929 . S
H2691 C2701 0.929 . S
H2692 C2696 0.929 . S
H2693 C2702 0.929 . S
C2694 H2688 0.930 . S
C2694 C2695 1.367 . S
C2694 C2702 1.378 . S
C2695 C2694 1.367 . S
C2695 C2703 1.433 . S
C2696 H2692 0.929 . S
C2696 C2698 1.378 . S
C2696 C2700 1.350 . S
C2697 C2700 1.463 . S
C2697 C2702 1.350 . S
C2697 N2705 1.427 . S
C2698 H2689 0.930 . S
C2698 C2696 1.378 . S
C2698 C2699 1.367 . S
C2699 C2698 1.367 . S
C2699 C2701 1.433 . S
C2700 C2696 1.350 . S
C2700 C2697 1.463 . S
C2700 N2704 1.427 . S
C2701 H2691 0.929 . S
C2701 C2699 1.433 . S
C2701 N2704 1.384 . S
C2702 H2693 0.929 . S
C2702 C2694 1.378 . S
C2702 C2697 1.350 . S
C2703 H2690 0.929 . S
C2703 C2695 1.433 . S
C2703 N2705 1.384 . S
N2704 C2700 1.427 . S
N2704 C2701 1.384 . S
N2705 C2697 1.427 . S
N2705 C2703 1.384 . S
H2706 C2712 0.930 . S
H2707 C2716 0.932 . S
H2708 C2721 0.929 . S
H2709 C2719 0.929 . S
H2710 C2714 0.929 . S
H2711 C2720 0.929 . S
C2712 H2706 0.930 . S
C2712 C2713 1.367 . S
C2712 C2720 1.378 . S
C2713 C2712 1.367 . S
C2713 C2721 1.433 . S
C2714 H2710 0.929 . S
C2714 C2716 1.390 . S
C2714 C2718 1.350 . S
C2715 C2718 1.463 . S
C2715 C2720 1.350 . S
C2715 N2723 1.427 . S
C2716 H2707 0.932 . S
C2716 C2714 1.390 . S
C2716 C2717 1.353 1_565 S
C2717 C2716 1.353 1_545 S
C2717 C2719 1.433 . S
C2718 C2714 1.350 . S
C2718 C2715 1.463 . S
C2718 N2722 1.427 1_565 S
C2719 H2709 0.929 . S
C2719 C2717 1.433 . S
C2719 N2722 1.384 . S
C2720 H2711 0.929 . S
C2720 C2712 1.378 . S
C2720 C2715 1.350 . S
C2721 H2708 0.929 . S
C2721 C2713 1.433 . S
C2721 N2723 1.384 . S
N2722 C2718 1.427 1_545 S
N2722 C2719 1.384 . S
N2723 C2715 1.427 . S
N2723 C2721 1.384 . S
H2724 C2730 0.930 . S
H2725 C2734 0.930 . S
H2726 C2739 0.929 . S
H2727 C2737 0.929 . S
H2728 C2732 0.929 . S
H2729 C2738 0.929 . S
C2730 H2724 0.930 . S
C2730 C2731 1.396 . S
C2730 C2738 1.351 1_554 S
C2731 C2730 1.396 . S
C2731 C2739 1.433 . S
C2732 H2728 0.929 . S
C2732 C2734 1.378 . S
C2732 C2736 1.350 . S
C2733 C2736 1.463 . S
C2733 C2738 1.350 . S
C2733 N2741 1.427 1_556 S
C2734 H2725 0.930 . S
C2734 C2732 1.378 . S
C2734 C2735 1.367 . S
C2735 C2734 1.367 . S
C2735 C2737 1.433 . S
C2736 C2732 1.350 . S
C2736 C2733 1.463 . S
C2736 N2740 1.427 . S
C2737 H2727 0.929 . S
C2737 C2735 1.433 . S
C2737 N2740 1.384 . S
C2738 H2729 0.929 . S
C2738 C2730 1.351 1_556 S
C2738 C2733 1.350 . S
C2739 H2726 0.929 . S
C2739 C2731 1.433 . S
C2739 N2741 1.384 . S
N2740 C2736 1.427 . S
N2740 C2737 1.384 . S
N2741 C2733 1.427 1_554 S
N2741 C2739 1.384 . S
H2742 C2748 0.930 . S
H2743 C2752 0.930 . S
H2744 C2757 0.929 . S
H2745 C2755 0.929 . S
H2746 C2750 0.929 . S
H2747 C2756 0.929 . S
C2748 H2742 0.930 . S
C2748 C2749 1.367 . S
C2748 C2756 1.378 . S
C2749 C2748 1.367 . S
C2749 C2757 1.433 . S
C2750 H2746 0.929 . S
C2750 C2752 1.378 . S
C2750 C2754 1.350 . S
C2751 C2754 1.463 . S
C2751 C2756 1.350 . S
C2751 N2759 1.427 . S
C2752 H2743 0.930 . S
C2752 C2750 1.378 . S
C2752 C2753 1.367 . S
C2753 C2752 1.367 . S
C2753 C2755 1.433 . S
C2754 C2750 1.350 . S
C2754 C2751 1.463 . S
C2754 N2758 1.427 . S
C2755 H2745 0.929 . S
C2755 C2753 1.433 . S
C2755 N2758 1.384 . S
C2756 H2747 0.929 . S
C2756 C2748 1.378 . S
C2756 C2751 1.350 . S
C2757 H2744 0.929 . S
C2757 C2749 1.433 . S
C2757 N2759 1.384 . S
N2758 C2754 1.427 . S
N2758 C2755 1.384 . S
N2759 C2751 1.427 . S
N2759 C2757 1.384 . S
H2760 C2766 0.930 . S
H2761 C2770 0.930 . S
H2762 C2775 0.929 . S
H2763 C2773 0.929 . S
H2764 C2768 0.929 . S
H2765 C2774 0.929 . S
C2766 H2760 0.930 . S
C2766 C2767 1.367 . S
C2766 C2774 1.378 . S
C2767 C2766 1.367 . S
C2767 C2775 1.433 1_556 S
C2768 H2764 0.929 . S
C2768 C2770 1.378 . S
C2768 C2772 1.350 . S
C2769 C2772 1.463 . S
C2769 C2774 1.350 1_554 S
C2769 N2777 1.427 . S
C2770 H2761 0.930 . S
C2770 C2768 1.378 . S
C2770 C2771 1.367 . S
C2771 C2770 1.367 . S
C2771 C2773 1.433 . S
C2772 C2768 1.350 . S
C2772 C2769 1.463 . S
C2772 N2776 1.427 . S
C2773 H2763 0.929 . S
C2773 C2771 1.433 . S
C2773 N2776 1.384 . S
C2774 H2765 0.929 . S
C2774 C2766 1.378 . S
C2774 C2769 1.350 1_556 S
C2775 H2762 0.929 . S
C2775 C2767 1.433 1_554 S
C2775 N2777 1.384 . S
N2776 C2772 1.427 . S
N2776 C2773 1.384 . S
N2777 C2769 1.427 . S
N2777 C2775 1.384 . S
H2778 C2784 0.930 . S
H2779 C2788 0.930 . S
H2780 C2793 0.929 . S
H2781 C2791 0.929 . S
H2782 C2786 0.929 . S
H2783 C2792 0.929 . S
C2784 H2778 0.930 . S
C2784 C2785 1.367 . S
C2784 C2792 1.378 . S
C2785 C2784 1.367 . S
C2785 C2793 1.433 . S
C2786 H2782 0.929 . S
C2786 C2788 1.378 . S
C2786 C2790 1.350 . S
C2787 C2790 1.463 . S
C2787 C2792 1.350 . S
C2787 N2795 1.427 . S
C2788 H2779 0.930 . S
C2788 C2786 1.378 . S
C2788 C2789 1.367 . S
C2789 C2788 1.367 . S
C2789 C2791 1.433 . S
C2790 C2786 1.350 . S
C2790 C2787 1.463 . S
C2790 N2794 1.427 . S
C2791 H2781 0.929 . S
C2791 C2789 1.433 . S
C2791 N2794 1.384 . S
C2792 H2783 0.929 . S
C2792 C2784 1.378 . S
C2792 C2787 1.350 . S
C2793 H2780 0.929 . S
C2793 C2785 1.433 . S
C2793 N2795 1.384 . S
N2794 C2790 1.427 . S
N2794 C2791 1.384 . S
N2795 C2787 1.427 . S
N2795 C2793 1.384 . S
H2796 C2802 0.930 . S
H2797 C2806 0.930 . S
H2798 C2811 0.929 . S
H2799 C2809 0.929 . S
H2800 C2804 0.929 . S
H2801 C2810 0.929 . S
C2802 H2796 0.930 . S
C2802 C2803 1.367 . S
C2802 C2810 1.378 . S
C2803 C2802 1.367 . S
C2803 C2811 1.433 . S
C2804 H2800 0.929 . S
C2804 C2806 1.378 . S
C2804 C2808 1.350 . S
C2805 C2808 1.463 . S
C2805 C2810 1.350 . S
C2805 N2813 1.427 . S
C2806 H2797 0.930 . S
C2806 C2804 1.378 . S
C2806 C2807 1.367 . S
C2807 C2806 1.367 . S
C2807 C2809 1.433 . S
C2808 C2804 1.350 . S
C2808 C2805 1.463 . S
C2808 N2812 1.427 . S
C2809 H2799 0.929 . S
C2809 C2807 1.433 . S
C2809 N2812 1.384 . S
C2810 H2801 0.929 . S
C2810 C2802 1.378 . S
C2810 C2805 1.350 . S
C2811 H2798 0.929 . S
C2811 C2803 1.433 . S
C2811 N2813 1.384 . S
N2812 C2808 1.427 . S
N2812 C2809 1.384 . S
N2813 C2805 1.427 . S
N2813 C2811 1.384 . S
H2814 C2820 0.930 . S
H2815 C2824 0.930 . S
H2816 C2829 0.929 . S
H2817 C2827 0.929 . S
H2818 C2822 0.929 . S
H2819 C2828 0.929 . S
C2820 H2814 0.930 . S
C2820 C2821 1.367 . S
C2820 C2828 1.378 . S
C2821 C2820 1.367 . S
C2821 C2829 1.433 . S
C2822 H2818 0.929 . S
C2822 C2824 1.378 . S
C2822 C2826 1.350 . S
C2823 C2826 1.463 . S
C2823 C2828 1.350 . S
C2823 N2831 1.427 . S
C2824 H2815 0.930 . S
C2824 C2822 1.378 . S
C2824 C2825 1.367 . S
C2825 C2824 1.367 . S
C2825 C2827 1.433 . S
C2826 C2822 1.350 . S
C2826 C2823 1.463 . S
C2826 N2830 1.427 . S
C2827 H2817 0.929 . S
C2827 C2825 1.433 . S
C2827 N2830 1.384 . S
C2828 H2819 0.929 . S
C2828 C2820 1.378 . S
C2828 C2823 1.350 . S
C2829 H2816 0.929 . S
C2829 C2821 1.433 . S
C2829 N2831 1.384 . S
N2830 C2826 1.427 . S
N2830 C2827 1.384 . S
N2831 C2823 1.427 . S
N2831 C2829 1.384 . S
H2832 C2838 0.930 . S
H2833 C2842 0.930 . S
H2834 C2847 0.929 . S
H2835 C2845 0.929 . S
H2836 C2840 0.929 . S
H2837 C2846 0.927 1_565 S
C2838 H2832 0.930 . S
C2838 C2839 1.367 . S
C2838 C2846 1.398 . S
C2839 C2838 1.367 . S
C2839 C2847 1.433 . S
C2840 H2836 0.929 . S
C2840 C2842 1.378 . S
C2840 C2844 1.350 . S
C2841 C2844 1.463 . S
C2841 C2846 1.332 1_565 S
C2841 N2849 1.427 . S
C2842 H2833 0.930 . S
C2842 C2840 1.378 . S
C2842 C2843 1.367 . S
C2843 C2842 1.367 . S
C2843 C2845 1.433 . S
C2844 C2840 1.350 . S
C2844 C2841 1.463 . S
C2844 N2848 1.427 . S
C2845 H2835 0.929 . S
C2845 C2843 1.433 . S
C2845 N2848 1.384 . S
C2846 H2837 0.927 1_545 S
C2846 C2838 1.398 . S
C2846 C2841 1.332 1_545 S
C2847 H2834 0.929 . S
C2847 C2839 1.433 . S
C2847 N2849 1.384 1_545 S
N2848 C2844 1.427 . S
N2848 C2845 1.384 . S
N2849 C2841 1.427 . S
N2849 C2847 1.384 1_565 S
H2850 C2856 0.930 . S
H2851 C2860 0.930 . S
H2852 C2865 0.929 . S
H2853 C2863 0.929 . S
H2854 C2858 0.929 . S
H2855 C2864 0.929 . S
C2856 H2850 0.930 . S
C2856 C2857 1.367 . S
C2856 C2864 1.378 . S
C2857 C2856 1.367 . S
C2857 C2865 1.433 . S
C2858 H2854 0.929 . S
C2858 C2860 1.378 . S
C2858 C2862 1.350 . S
C2859 C2862 1.463 . S
C2859 C2864 1.350 . S
C2859 N2867 1.427 . S
C2860 H2851 0.930 . S
C2860 C2858 1.378 . S
C2860 C2861 1.367 . S
C2861 C2860 1.367 . S
C2861 C2863 1.433 . S
C2862 C2858 1.350 . S
C2862 C2859 1.463 . S
C2862 N2866 1.427 . S
C2863 H2853 0.929 . S
C2863 C2861 1.433 . S
C2863 N2866 1.384 . S
C2864 H2855 0.929 . S
C2864 C2856 1.378 . S
C2864 C2859 1.350 . S
C2865 H2852 0.929 . S
C2865 C2857 1.433 . S
C2865 N2867 1.384 . S
N2866 C2862 1.427 . S
N2866 C2863 1.384 . S
N2867 C2859 1.427 . S
N2867 C2865 1.384 . S
H2868 C2874 0.930 . S
H2869 C2878 0.930 . S
H2870 C2883 0.929 . S
H2871 C2881 0.929 . S
H2872 C2876 0.929 . S
H2873 C2882 0.929 . S
C2874 H2868 0.930 . S
C2874 C2875 1.367 . S
C2874 C2882 1.378 . S
C2875 C2874 1.367 . S
C2875 C2883 1.433 . S
C2876 H2872 0.929 . S
C2876 C2878 1.378 . S
C2876 C2880 1.350 . S
C2877 C2880 1.463 . S
C2877 C2882 1.350 . S
C2877 N2885 1.427 . S
C2878 H2869 0.930 . S
C2878 C2876 1.378 . S
C2878 C2879 1.367 . S
C2879 C2878 1.367 . S
C2879 C2881 1.433 . S
C2880 C2876 1.350 . S
C2880 C2877 1.463 . S
C2880 N2884 1.427 . S
C2881 H2871 0.929 . S
C2881 C2879 1.433 . S
C2881 N2884 1.384 . S
C2882 H2873 0.929 . S
C2882 C2874 1.378 . S
C2882 C2877 1.350 . S
C2883 H2870 0.929 . S
C2883 C2875 1.433 . S
C2883 N2885 1.384 . S
N2884 C2880 1.427 . S
N2884 C2881 1.384 . S
N2885 C2877 1.427 . S
N2885 C2883 1.384 . S
H2886 C2892 0.930 . S
H2887 C2896 0.930 . S
H2888 C2901 0.929 . S
H2889 C2899 0.929 . S
H2890 C2894 0.929 . S
H2891 C2900 0.929 . S
C2892 H2886 0.930 . S
C2892 C2893 1.367 . S
C2892 C2900 1.378 . S
C2893 C2892 1.367 . S
C2893 C2901 1.433 . S
C2894 H2890 0.929 . S
C2894 C2896 1.378 . S
C2894 C2898 1.350 . S
C2895 C2898 1.463 . S
C2895 C2900 1.350 . S
C2895 N2903 1.427 . S
C2896 H2887 0.930 . S
C2896 C2894 1.378 . S
C2896 C2897 1.367 . S
C2897 C2896 1.367 . S
C2897 C2899 1.433 . S
C2898 C2894 1.350 . S
C2898 C2895 1.463 . S
C2898 N2902 1.427 . S
C2899 H2889 0.929 . S
C2899 C2897 1.433 . S
C2899 N2902 1.384 . S
C2900 H2891 0.929 . S
C2900 C2892 1.378 . S
C2900 C2895 1.350 . S
C2901 H2888 0.929 . S
C2901 C2893 1.433 . S
C2901 N2903 1.384 . S
N2902 C2898 1.427 . S
N2902 C2899 1.384 . S
N2903 C2895 1.427 . S
N2903 C2901 1.384 . S
H2904 C2910 0.930 . S
H2905 C2914 0.930 . S
H2906 C2919 0.929 . S
H2907 C2917 0.929 . S
H2908 C2912 0.929 . S
H2909 C2918 0.929 . S
C2910 H2904 0.930 . S
C2910 C2911 1.367 . S
C2910 C2918 1.378 . S
C2911 C2910 1.367 . S
C2911 C2919 1.433 . S
C2912 H2908 0.929 . S
C2912 C2914 1.378 . S
C2912 C2916 1.350 . S
C2913 C2916 1.463 . S
C2913 C2918 1.350 . S
C2913 N2921 1.427 . S
C2914 H2905 0.930 . S
C2914 C2912 1.378 . S
C2914 C2915 1.367 . S
C2915 C2914 1.367 . S
C2915 C2917 1.433 . S
C2916 C2912 1.350 . S
C2916 C2913 1.463 . S
C2916 N2920 1.427 . S
C2917 H2907 0.929 . S
C2917 C2915 1.433 . S
C2917 N2920 1.384 . S
C2918 H2909 0.929 . S
C2918 C2910 1.378 . S
C2918 C2913 1.350 . S
C2919 H2906 0.929 . S
C2919 C2911 1.433 . S
C2919 N2921 1.384 . S
N2920 C2916 1.427 . S
N2920 C2917 1.384 . S
N2921 C2913 1.427 . S
N2921 C2919 1.384 . S
H2922 C2928 0.930 . S
H2923 C2932 0.930 . S
H2924 C2937 0.929 . S
H2925 C2935 0.929 . S
H2926 C2930 0.929 . S
H2927 C2936 0.929 . S
C2928 H2922 0.930 . S
C2928 C2929 1.367 . S
C2928 C2936 1.378 . S
C2929 C2928 1.367 . S
C2929 C2937 1.433 . S
C2930 H2926 0.929 . S
C2930 C2932 1.378 . S
C2930 C2934 1.350 . S
C2931 C2934 1.463 . S
C2931 C2936 1.350 . S
C2931 N2939 1.427 . S
C2932 H2923 0.930 . S
C2932 C2930 1.378 . S
C2932 C2933 1.367 . S
C2933 C2932 1.367 . S
C2933 C2935 1.433 . S
C2934 C2930 1.350 . S
C2934 C2931 1.463 . S
C2934 N2938 1.427 . S
C2935 H2925 0.929 . S
C2935 C2933 1.433 . S
C2935 N2938 1.384 . S
C2936 H2927 0.929 . S
C2936 C2928 1.378 . S
C2936 C2931 1.350 . S
C2937 H2924 0.929 . S
C2937 C2929 1.433 . S
C2937 N2939 1.384 . S
N2938 C2934 1.427 . S
N2938 C2935 1.384 . S
N2939 C2931 1.427 . S
N2939 C2937 1.384 . S
H2940 C2946 0.930 . S
H2941 C2950 0.940 . S
H2942 C2955 0.929 . S
H2943 C2953 0.929 . S
H2944 C2948 0.929 . S
H2945 C2954 0.929 . S
C2946 H2940 0.930 . S
C2946 C2947 1.367 . S
C2946 C2954 1.378 . S
C2947 C2946 1.367 . S
C2947 C2955 1.433 . S
C2948 H2944 0.929 . S
C2948 C2950 1.415 . S
C2948 C2952 1.350 . S
C2949 C2952 1.463 . S
C2949 C2954 1.350 . S
C2949 N2957 1.427 . S
C2950 H2941 0.940 . S
C2950 C2948 1.415 . S
C2950 C2951 1.323 1_565 S
C2951 C2950 1.323 1_545 S
C2951 C2953 1.433 . S
C2952 C2948 1.350 . S
C2952 C2949 1.463 . S
C2952 N2956 1.427 1_565 S
C2953 H2943 0.929 . S
C2953 C2951 1.433 . S
C2953 N2956 1.384 . S
C2954 H2945 0.929 . S
C2954 C2946 1.378 . S
C2954 C2949 1.350 . S
C2955 H2942 0.929 . S
C2955 C2947 1.433 . S
C2955 N2957 1.384 . S
N2956 C2952 1.427 1_545 S
N2956 C2953 1.384 . S
N2957 C2949 1.427 . S
N2957 C2955 1.384 . S
H2958 C2964 0.930 . S
H2959 C2968 0.930 . S
H2960 C2973 0.929 . S
H2961 C2971 0.929 . S
H2962 C2966 0.929 . S
H2963 C2972 0.929 . S
C2964 H2958 0.930 . S
C2964 C2965 1.367 . S
C2964 C2972 1.378 . S
C2965 C2964 1.367 . S
C2965 C2973 1.433 . S
C2966 H2962 0.929 . S
C2966 C2968 1.378 . S
C2966 C2970 1.350 . S
C2967 C2970 1.463 . S
C2967 C2972 1.350 . S
C2967 N2975 1.427 . S
C2968 H2959 0.930 . S
C2968 C2966 1.378 . S
C2968 C2969 1.367 . S
C2969 C2968 1.367 . S
C2969 C2971 1.433 . S
C2970 C2966 1.350 . S
C2970 C2967 1.463 . S
C2970 N2974 1.427 . S
C2971 H2961 0.929 . S
C2971 C2969 1.433 . S
C2971 N2974 1.384 . S
C2972 H2963 0.929 . S
C2972 C2964 1.378 . S
C2972 C2967 1.350 . S
C2973 H2960 0.929 . S
C2973 C2965 1.433 . S
C2973 N2975 1.384 . S
N2974 C2970 1.427 . S
N2974 C2971 1.384 . S
N2975 C2967 1.427 . S
N2975 C2973 1.384 . S
H2976 C2982 0.930 . S
H2977 C2986 0.930 . S
H2978 C2991 0.929 . S
H2979 C2989 0.929 . S
H2980 C2984 0.929 . S
H2981 C2990 0.929 . S
C2982 H2976 0.930 . S
C2982 C2983 1.367 . S
C2982 C2990 1.378 . S
C2983 C2982 1.367 . S
C2983 C2991 1.433 . S
C2984 H2980 0.929 . S
C2984 C2986 1.378 . S
C2984 C2988 1.350 . S
C2985 C2988 1.463 . S
C2985 C2990 1.350 . S
C2985 N2993 1.427 . S
C2986 H2977 0.930 . S
C2986 C2984 1.378 . S
C2986 C2987 1.367 . S
C2987 C2986 1.367 . S
C2987 C2989 1.433 . S
C2988 C2984 1.350 . S
C2988 C2985 1.463 . S
C2988 N2992 1.427 . S
C2989 H2979 0.929 . S
C2989 C2987 1.433 . S
C2989 N2992 1.384 . S
C2990 H2981 0.929 . S
C2990 C2982 1.378 . S
C2990 C2985 1.350 . S
C2991 H2978 0.929 . S
C2991 C2983 1.433 . S
C2991 N2993 1.384 . S
N2992 C2988 1.427 . S
N2992 C2989 1.384 . S
N2993 C2985 1.427 . S
N2993 C2991 1.384 . S
H2994 C3000 0.930 . S
H2995 C3004 0.930 . S
H2996 C3009 0.929 . S
H2997 C3007 0.929 . S
H2998 C3002 0.929 . S
H2999 C3008 0.929 . S
C3000 H2994 0.930 . S
C3000 C3001 1.367 . S
C3000 C3008 1.378 . S
C3001 C3000 1.367 . S
C3001 C3009 1.433 . S
C3002 H2998 0.929 . S
C3002 C3004 1.378 . S
C3002 C3006 1.350 . S
C3003 C3006 1.463 . S
C3003 C3008 1.350 . S
C3003 N3011 1.427 . S
C3004 H2995 0.930 . S
C3004 C3002 1.378 . S
C3004 C3005 1.367 . S
C3005 C3004 1.367 . S
C3005 C3007 1.433 . S
C3006 C3002 1.350 . S
C3006 C3003 1.463 . S
C3006 N3010 1.427 . S
C3007 H2997 0.929 . S
C3007 C3005 1.433 . S
C3007 N3010 1.384 . S
C3008 H2999 0.929 . S
C3008 C3000 1.378 . S
C3008 C3003 1.350 . S
C3009 H2996 0.929 . S
C3009 C3001 1.433 . S
C3009 N3011 1.384 . S
N3010 C3006 1.427 . S
N3010 C3007 1.384 . S
N3011 C3003 1.427 . S
N3011 C3009 1.384 . S
H3012 C3018 0.930 . S
H3013 C3022 0.930 . S
H3014 C3027 0.929 . S
H3015 C3025 0.929 . S
H3016 C3020 0.929 . S
H3017 C3026 0.929 . S
C3018 H3012 0.930 . S
C3018 C3019 1.367 . S
C3018 C3026 1.378 . S
C3019 C3018 1.367 . S
C3019 C3027 1.433 . S
C3020 H3016 0.929 . S
C3020 C3022 1.378 . S
C3020 C3024 1.350 . S
C3021 C3024 1.463 . S
C3021 C3026 1.350 . S
C3021 N3029 1.427 . S
C3022 H3013 0.930 . S
C3022 C3020 1.378 . S
C3022 C3023 1.367 . S
C3023 C3022 1.367 . S
C3023 C3025 1.433 . S
C3024 C3020 1.350 . S
C3024 C3021 1.463 . S
C3024 N3028 1.427 . S
C3025 H3015 0.929 . S
C3025 C3023 1.433 . S
C3025 N3028 1.384 . S
C3026 H3017 0.929 . S
C3026 C3018 1.378 . S
C3026 C3021 1.350 . S
C3027 H3014 0.929 . S
C3027 C3019 1.433 . S
C3027 N3029 1.384 . S
N3028 C3024 1.427 . S
N3028 C3025 1.384 . S
N3029 C3021 1.427 . S
N3029 C3027 1.384 . S
H3030 C3036 0.930 . S
H3031 C3040 0.930 . S
H3032 C3045 0.929 . S
H3033 C3043 0.929 . S
H3034 C3038 0.929 . S
H3035 C3044 0.929 . S
C3036 H3030 0.930 . S
C3036 C3037 1.367 . S
C3036 C3044 1.378 . S
C3037 C3036 1.367 . S
C3037 C3045 1.433 . S
C3038 H3034 0.929 . S
C3038 C3040 1.378 . S
C3038 C3042 1.350 . S
C3039 C3042 1.463 . S
C3039 C3044 1.350 . S
C3039 N3047 1.427 . S
C3040 H3031 0.930 . S
C3040 C3038 1.378 . S
C3040 C3041 1.367 . S
C3041 C3040 1.367 . S
C3041 C3043 1.433 . S
C3042 C3038 1.350 . S
C3042 C3039 1.463 . S
C3042 N3046 1.427 . S
C3043 H3033 0.929 . S
C3043 C3041 1.433 . S
C3043 N3046 1.384 . S
C3044 H3035 0.929 . S
C3044 C3036 1.378 . S
C3044 C3039 1.350 . S
C3045 H3032 0.929 . S
C3045 C3037 1.433 . S
C3045 N3047 1.384 . S
N3046 C3042 1.427 . S
N3046 C3043 1.384 . S
N3047 C3039 1.427 . S
N3047 C3045 1.384 . S
H3048 C3054 0.930 . S
H3049 C3058 0.930 . S
H3050 C3063 0.929 . S
H3051 C3061 0.929 . S
H3052 C3056 0.929 . S
H3053 C3062 0.929 . S
C3054 H3048 0.930 . S
C3054 C3055 1.367 . S
C3054 C3062 1.378 . S
C3055 C3054 1.367 . S
C3055 C3063 1.433 . S
C3056 H3052 0.929 . S
C3056 C3058 1.378 . S
C3056 C3060 1.350 . S
C3057 C3060 1.463 . S
C3057 C3062 1.350 . S
C3057 N3065 1.427 . S
C3058 H3049 0.930 . S
C3058 C3056 1.378 . S
C3058 C3059 1.367 . S
C3059 C3058 1.367 . S
C3059 C3061 1.433 . S
C3060 C3056 1.350 . S
C3060 C3057 1.463 . S
C3060 N3064 1.427 . S
C3061 H3051 0.929 . S
C3061 C3059 1.433 . S
C3061 N3064 1.384 . S
C3062 H3053 0.929 . S
C3062 C3054 1.378 . S
C3062 C3057 1.350 . S
C3063 H3050 0.929 . S
C3063 C3055 1.433 . S
C3063 N3065 1.384 . S
N3064 C3060 1.427 . S
N3064 C3061 1.384 . S
N3065 C3057 1.427 . S
N3065 C3063 1.384 . S
H3066 C3072 0.930 . S
H3067 C3076 0.930 . S
H3068 C3081 0.929 . S
H3069 C3079 0.929 . S
H3070 C3074 0.929 . S
H3071 C3080 0.929 . S
C3072 H3066 0.930 . S
C3072 C3073 1.367 . S
C3072 C3080 1.378 . S
C3073 C3072 1.367 . S
C3073 C3081 1.433 . S
C3074 H3070 0.929 . S
C3074 C3076 1.378 . S
C3074 C3078 1.350 . S
C3075 C3078 1.463 . S
C3075 C3080 1.350 . S
C3075 N3083 1.427 . S
C3076 H3067 0.930 . S
C3076 C3074 1.378 . S
C3076 C3077 1.367 . S
C3077 C3076 1.367 . S
C3077 C3079 1.433 . S
C3078 C3074 1.350 . S
C3078 C3075 1.463 . S
C3078 N3082 1.427 . S
C3079 H3069 0.929 . S
C3079 C3077 1.433 . S
C3079 N3082 1.384 . S
C3080 H3071 0.929 . S
C3080 C3072 1.378 . S
C3080 C3075 1.350 . S
C3081 H3068 0.929 . S
C3081 C3073 1.433 . S
C3081 N3083 1.384 . S
N3082 C3078 1.427 . S
N3082 C3079 1.384 . S
N3083 C3075 1.427 . S
N3083 C3081 1.384 . S
H3084 C3090 0.930 . S
H3085 C3094 0.930 . S
H3086 C3099 0.929 . S
H3087 C3097 0.929 . S
H3088 C3092 0.929 . S
H3089 C3098 0.929 . S
C3090 H3084 0.930 . S
C3090 C3091 1.367 . S
C3090 C3098 1.378 . S
C3091 C3090 1.367 . S
C3091 C3099 1.433 . S
C3092 H3088 0.929 . S
C3092 C3094 1.378 . S
C3092 C3096 1.350 . S
C3093 C3096 1.463 . S
C3093 C3098 1.350 . S
C3093 N3101 1.427 . S
C3094 H3085 0.930 . S
C3094 C3092 1.378 . S
C3094 C3095 1.367 . S
C3095 C3094 1.367 . S
C3095 C3097 1.433 . S
C3096 C3092 1.350 . S
C3096 C3093 1.463 . S
C3096 N3100 1.427 . S
C3097 H3087 0.929 . S
C3097 C3095 1.433 . S
C3097 N3100 1.384 . S
C3098 H3089 0.929 . S
C3098 C3090 1.378 . S
C3098 C3093 1.350 . S
C3099 H3086 0.929 . S
C3099 C3091 1.433 . S
C3099 N3101 1.384 . S
N3100 C3096 1.427 . S
N3100 C3097 1.384 . S
N3101 C3093 1.427 . S
N3101 C3099 1.384 . S
H3102 C3108 0.930 . S
H3103 C3112 0.930 . S
H3104 C3117 0.929 . S
H3105 C3115 0.929 . S
H3106 C3110 0.929 . S
H3107 C3116 0.929 . S
C3108 H3102 0.930 . S
C3108 C3109 1.367 . S
C3108 C3116 1.378 . S
C3109 C3108 1.367 . S
C3109 C3117 1.433 . S
C3110 H3106 0.929 . S
C3110 C3112 1.378 . S
C3110 C3114 1.350 . S
C3111 C3114 1.463 . S
C3111 C3116 1.350 . S
C3111 N3119 1.427 . S
C3112 H3103 0.930 . S
C3112 C3110 1.378 . S
C3112 C3113 1.367 . S
C3113 C3112 1.367 . S
C3113 C3115 1.433 . S
C3114 C3110 1.350 . S
C3114 C3111 1.463 . S
C3114 N3118 1.427 . S
C3115 H3105 0.929 . S
C3115 C3113 1.433 . S
C3115 N3118 1.384 . S
C3116 H3107 0.929 . S
C3116 C3108 1.378 . S
C3116 C3111 1.350 . S
C3117 H3104 0.929 . S
C3117 C3109 1.433 . S
C3117 N3119 1.384 . S
N3118 C3114 1.427 . S
N3118 C3115 1.384 . S
N3119 C3111 1.427 . S
N3119 C3117 1.384 . S
H3120 C3126 0.930 . S
H3121 C3130 0.930 . S
H3122 C3135 0.929 . S
H3123 C3133 0.929 . S
H3124 C3128 0.929 . S
H3125 C3134 0.929 . S
C3126 H3120 0.930 . S
C3126 C3127 1.367 . S
C3126 C3134 1.378 . S
C3127 C3126 1.367 . S
C3127 C3135 1.433 . S
C3128 H3124 0.929 . S
C3128 C3130 1.378 . S
C3128 C3132 1.350 . S
C3129 C3132 1.463 . S
C3129 C3134 1.350 . S
C3129 N3137 1.427 . S
C3130 H3121 0.930 . S
C3130 C3128 1.378 . S
C3130 C3131 1.367 . S
C3131 C3130 1.367 . S
C3131 C3133 1.433 . S
C3132 C3128 1.350 . S
C3132 C3129 1.463 . S
C3132 N3136 1.427 . S
C3133 H3123 0.929 . S
C3133 C3131 1.433 . S
C3133 N3136 1.384 . S
C3134 H3125 0.929 . S
C3134 C3126 1.378 . S
C3134 C3129 1.350 . S
C3135 H3122 0.929 . S
C3135 C3127 1.433 . S
C3135 N3137 1.384 . S
N3136 C3132 1.427 . S
N3136 C3133 1.384 . S
N3137 C3129 1.427 . S
N3137 C3135 1.384 . S
H3138 C3144 0.930 . S
H3139 C3148 0.930 . S
H3140 C3153 0.929 . S
H3141 C3151 0.929 . S
H3142 C3146 0.929 . S
H3143 C3152 0.929 . S
C3144 H3138 0.930 . S
C3144 C3145 1.367 . S
C3144 C3152 1.378 . S
C3145 C3144 1.367 . S
C3145 C3153 1.433 . S
C3146 H3142 0.929 . S
C3146 C3148 1.378 . S
C3146 C3150 1.350 . S
C3147 C3150 1.463 . S
C3147 C3152 1.350 . S
C3147 N3155 1.427 . S
C3148 H3139 0.930 . S
C3148 C3146 1.378 . S
C3148 C3149 1.367 . S
C3149 C3148 1.367 . S
C3149 C3151 1.433 . S
C3150 C3146 1.350 . S
C3150 C3147 1.463 . S
C3150 N3154 1.427 . S
C3151 H3141 0.929 . S
C3151 C3149 1.433 . S
C3151 N3154 1.384 . S
C3152 H3143 0.929 . S
C3152 C3144 1.378 . S
C3152 C3147 1.350 . S
C3153 H3140 0.929 . S
C3153 C3145 1.433 . S
C3153 N3155 1.384 . S
N3154 C3150 1.427 . S
N3154 C3151 1.384 . S
N3155 C3147 1.427 . S
N3155 C3153 1.384 . S
H3156 C3162 0.930 . S
H3157 C3166 0.930 . S
H3158 C3171 0.929 . S
H3159 C3169 0.929 . S
H3160 C3164 0.929 . S
H3161 C3170 0.929 . S
C3162 H3156 0.930 . S
C3162 C3163 1.367 . S
C3162 C3170 1.378 . S
C3163 C3162 1.367 . S
C3163 C3171 1.433 . S
C3164 H3160 0.929 . S
C3164 C3166 1.378 . S
C3164 C3168 1.350 . S
C3165 C3168 1.463 . S
C3165 C3170 1.350 . S
C3165 N3173 1.427 . S
C3166 H3157 0.930 . S
C3166 C3164 1.378 . S
C3166 C3167 1.367 . S
C3167 C3166 1.367 . S
C3167 C3169 1.433 . S
C3168 C3164 1.350 . S
C3168 C3165 1.463 . S
C3168 N3172 1.427 . S
C3169 H3159 0.929 . S
C3169 C3167 1.433 . S
C3169 N3172 1.384 . S
C3170 H3161 0.929 . S
C3170 C3162 1.378 . S
C3170 C3165 1.350 . S
C3171 H3158 0.929 . S
C3171 C3163 1.433 . S
C3171 N3173 1.384 . S
N3172 C3168 1.427 . S
N3172 C3169 1.384 . S
N3173 C3165 1.427 . S
N3173 C3171 1.384 . S
H3174 C3180 0.930 . S
H3175 C3184 0.930 . S
H3176 C3189 0.929 . S
H3177 C3187 0.929 . S
H3178 C3182 0.929 . S
H3179 C3188 0.929 . S
C3180 H3174 0.930 . S
C3180 C3181 1.367 . S
C3180 C3188 1.378 . S
C3181 C3180 1.367 . S
C3181 C3189 1.433 . S
C3182 H3178 0.929 . S
C3182 C3184 1.378 . S
C3182 C3186 1.350 . S
C3183 C3186 1.463 . S
C3183 C3188 1.350 . S
C3183 N3191 1.427 . S
C3184 H3175 0.930 . S
C3184 C3182 1.378 . S
C3184 C3185 1.367 . S
C3185 C3184 1.367 . S
C3185 C3187 1.433 . S
C3186 C3182 1.350 . S
C3186 C3183 1.463 . S
C3186 N3190 1.427 . S
C3187 H3177 0.929 . S
C3187 C3185 1.433 . S
C3187 N3190 1.384 . S
C3188 H3179 0.929 . S
C3188 C3180 1.378 . S
C3188 C3183 1.350 . S
C3189 H3176 0.929 . S
C3189 C3181 1.433 . S
C3189 N3191 1.384 . S
N3190 C3186 1.427 . S
N3190 C3187 1.384 . S
N3191 C3183 1.427 . S
N3191 C3189 1.384 . S
H3192 C3198 0.930 . S
H3193 C3202 0.930 . S
H3194 C3207 0.929 . S
H3195 C3205 0.929 . S
H3196 C3200 0.929 . S
H3197 C3206 0.929 . S
C3198 H3192 0.930 . S
C3198 C3199 1.367 . S
C3198 C3206 1.378 . S
C3199 C3198 1.367 . S
C3199 C3207 1.433 . S
C3200 H3196 0.929 . S
C3200 C3202 1.378 . S
C3200 C3204 1.350 . S
C3201 C3204 1.463 . S
C3201 C3206 1.350 . S
C3201 N3209 1.427 . S
C3202 H3193 0.930 . S
C3202 C3200 1.378 . S
C3202 C3203 1.367 . S
C3203 C3202 1.367 . S
C3203 C3205 1.433 . S
C3204 C3200 1.350 . S
C3204 C3201 1.463 . S
C3204 N3208 1.427 . S
C3205 H3195 0.929 . S
C3205 C3203 1.433 . S
C3205 N3208 1.384 . S
C3206 H3197 0.929 . S
C3206 C3198 1.378 . S
C3206 C3201 1.350 . S
C3207 H3194 0.929 . S
C3207 C3199 1.433 . S
C3207 N3209 1.384 . S
N3208 C3204 1.427 . S
N3208 C3205 1.384 . S
N3209 C3201 1.427 . S
N3209 C3207 1.384 . S
H3210 C3216 0.930 . S
H3211 C3220 0.930 . S
H3212 C3225 0.929 . S
H3213 C3223 0.929 . S
H3214 C3218 0.929 . S
H3215 C3224 0.929 . S
C3216 H3210 0.930 . S
C3216 C3217 1.367 . S
C3216 C3224 1.378 . S
C3217 C3216 1.367 . S
C3217 C3225 1.433 . S
C3218 H3214 0.929 . S
C3218 C3220 1.378 . S
C3218 C3222 1.350 . S
C3219 C3222 1.463 . S
C3219 C3224 1.350 . S
C3219 N3227 1.427 . S
C3220 H3211 0.930 . S
C3220 C3218 1.378 . S
C3220 C3221 1.367 . S
C3221 C3220 1.367 . S
C3221 C3223 1.433 . S
C3222 C3218 1.350 . S
C3222 C3219 1.463 . S
C3222 N3226 1.427 . S
C3223 H3213 0.929 . S
C3223 C3221 1.433 . S
C3223 N3226 1.384 . S
C3224 H3215 0.929 . S
C3224 C3216 1.378 . S
C3224 C3219 1.350 . S
C3225 H3212 0.929 . S
C3225 C3217 1.433 . S
C3225 N3227 1.384 . S
N3226 C3222 1.427 . S
N3226 C3223 1.384 . S
N3227 C3219 1.427 . S
N3227 C3225 1.384 . S
H3228 C3234 0.930 . S
H3229 C3238 0.930 . S
H3230 C3243 0.929 . S
H3231 C3241 0.929 . S
H3232 C3236 0.929 . S
H3233 C3242 0.929 . S
C3234 H3228 0.930 . S
C3234 C3235 1.367 . S
C3234 C3242 1.378 . S
C3235 C3234 1.367 . S
C3235 C3243 1.433 . S
C3236 H3232 0.929 . S
C3236 C3238 1.378 . S
C3236 C3240 1.350 . S
C3237 C3240 1.463 . S
C3237 C3242 1.350 . S
C3237 N3245 1.427 . S
C3238 H3229 0.930 . S
C3238 C3236 1.378 . S
C3238 C3239 1.367 . S
C3239 C3238 1.367 . S
C3239 C3241 1.433 . S
C3240 C3236 1.350 . S
C3240 C3237 1.463 . S
C3240 N3244 1.427 . S
C3241 H3231 0.929 . S
C3241 C3239 1.433 . S
C3241 N3244 1.384 . S
C3242 H3233 0.929 . S
C3242 C3234 1.378 . S
C3242 C3237 1.350 . S
C3243 H3230 0.929 . S
C3243 C3235 1.433 . S
C3243 N3245 1.384 . S
N3244 C3240 1.427 . S
N3244 C3241 1.384 . S
N3245 C3237 1.427 . S
N3245 C3243 1.384 . S
H3246 C3252 0.930 . S
H3247 C3256 0.930 . S
H3248 C3261 0.929 . S
H3249 C3259 0.929 . S
H3250 C3254 0.929 . S
H3251 C3260 0.929 . S
C3252 H3246 0.930 . S
C3252 C3253 1.367 . S
C3252 C3260 1.378 . S
C3253 C3252 1.367 . S
C3253 C3261 1.433 . S
C3254 H3250 0.929 . S
C3254 C3256 1.378 . S
C3254 C3258 1.350 . S
C3255 C3258 1.463 . S
C3255 C3260 1.350 . S
C3255 N3263 1.427 . S
C3256 H3247 0.930 . S
C3256 C3254 1.378 . S
C3256 C3257 1.367 . S
C3257 C3256 1.367 . S
C3257 C3259 1.433 . S
C3258 C3254 1.350 . S
C3258 C3255 1.463 . S
C3258 N3262 1.427 . S
C3259 H3249 0.929 . S
C3259 C3257 1.433 . S
C3259 N3262 1.384 . S
C3260 H3251 0.929 . S
C3260 C3252 1.378 . S
C3260 C3255 1.350 . S
C3261 H3248 0.929 . S
C3261 C3253 1.433 . S
C3261 N3263 1.384 . S
N3262 C3258 1.427 . S
N3262 C3259 1.384 . S
N3263 C3255 1.427 . S
N3263 C3261 1.384 . S
H3264 C3270 0.930 . S
H3265 C3274 0.930 . S
H3266 C3279 0.929 . S
H3267 C3277 0.929 . S
H3268 C3272 0.929 . S
H3269 C3278 0.929 . S
C3270 H3264 0.930 . S
C3270 C3271 1.367 . S
C3270 C3278 1.378 . S
C3271 C3270 1.367 . S
C3271 C3279 1.433 . S
C3272 H3268 0.929 . S
C3272 C3274 1.378 . S
C3272 C3276 1.350 . S
C3273 C3276 1.463 . S
C3273 C3278 1.350 . S
C3273 N3281 1.427 . S
C3274 H3265 0.930 . S
C3274 C3272 1.378 . S
C3274 C3275 1.367 . S
C3275 C3274 1.367 . S
C3275 C3277 1.433 . S
C3276 C3272 1.350 . S
C3276 C3273 1.463 . S
C3276 N3280 1.427 . S
C3277 H3267 0.929 . S
C3277 C3275 1.433 . S
C3277 N3280 1.384 . S
C3278 H3269 0.929 . S
C3278 C3270 1.378 . S
C3278 C3273 1.350 . S
C3279 H3266 0.929 . S
C3279 C3271 1.433 . S
C3279 N3281 1.384 . S
N3280 C3276 1.427 . S
N3280 C3277 1.384 . S
N3281 C3273 1.427 . S
N3281 C3279 1.384 . S
H3282 C3288 0.930 . S
H3283 C3292 0.930 . S
H3284 C3297 0.929 . S
H3285 C3295 0.929 . S
H3286 C3290 0.929 . S
H3287 C3296 0.929 . S
C3288 H3282 0.930 . S
C3288 C3289 1.367 . S
C3288 C3296 1.378 . S
C3289 C3288 1.367 . S
C3289 C3297 1.433 . S
C3290 H3286 0.929 . S
C3290 C3292 1.378 . S
C3290 C3294 1.350 . S
C3291 C3294 1.463 . S
C3291 C3296 1.350 . S
C3291 N3299 1.427 . S
C3292 H3283 0.930 . S
C3292 C3290 1.378 . S
C3292 C3293 1.367 . S
C3293 C3292 1.367 . S
C3293 C3295 1.433 . S
C3294 C3290 1.350 . S
C3294 C3291 1.463 . S
C3294 N3298 1.427 . S
C3295 H3285 0.929 . S
C3295 C3293 1.433 . S
C3295 N3298 1.384 . S
C3296 H3287 0.929 . S
C3296 C3288 1.378 . S
C3296 C3291 1.350 . S
C3297 H3284 0.929 . S
C3297 C3289 1.433 . S
C3297 N3299 1.384 . S
N3298 C3294 1.427 . S
N3298 C3295 1.384 . S
N3299 C3291 1.427 . S
N3299 C3297 1.384 . S
H3300 C3306 0.930 . S
H3301 C3310 0.930 . S
H3302 C3315 0.929 . S
H3303 C3313 0.929 . S
H3304 C3308 0.929 . S
H3305 C3314 0.929 . S
C3306 H3300 0.930 . S
C3306 C3307 1.367 . S
C3306 C3314 1.378 . S
C3307 C3306 1.367 . S
C3307 C3315 1.433 . S
C3308 H3304 0.929 . S
C3308 C3310 1.378 . S
C3308 C3312 1.350 . S
C3309 C3312 1.463 . S
C3309 C3314 1.350 . S
C3309 N3317 1.427 . S
C3310 H3301 0.930 . S
C3310 C3308 1.378 . S
C3310 C3311 1.367 . S
C3311 C3310 1.367 . S
C3311 C3313 1.433 . S
C3312 C3308 1.350 . S
C3312 C3309 1.463 . S
C3312 N3316 1.427 . S
C3313 H3303 0.929 . S
C3313 C3311 1.433 . S
C3313 N3316 1.384 . S
C3314 H3305 0.929 . S
C3314 C3306 1.378 . S
C3314 C3309 1.350 . S
C3315 H3302 0.929 . S
C3315 C3307 1.433 . S
C3315 N3317 1.384 . S
N3316 C3312 1.427 . S
N3316 C3313 1.384 . S
N3317 C3309 1.427 . S
N3317 C3315 1.384 . S
H3318 C3324 0.930 . S
H3319 C3328 0.930 . S
H3320 C3333 0.929 . S
H3321 C3331 0.929 . S
H3322 C3326 0.929 . S
H3323 C3332 0.929 . S
C3324 H3318 0.930 . S
C3324 C3325 1.367 . S
C3324 C3332 1.378 . S
C3325 C3324 1.367 . S
C3325 C3333 1.433 . S
C3326 H3322 0.929 . S
C3326 C3328 1.378 . S
C3326 C3330 1.350 . S
C3327 C3330 1.463 . S
C3327 C3332 1.350 . S
C3327 N3335 1.427 . S
C3328 H3319 0.930 . S
C3328 C3326 1.378 . S
C3328 C3329 1.367 . S
C3329 C3328 1.367 . S
C3329 C3331 1.433 . S
C3330 C3326 1.350 . S
C3330 C3327 1.463 . S
C3330 N3334 1.427 . S
C3331 H3321 0.929 . S
C3331 C3329 1.433 . S
C3331 N3334 1.384 . S
C3332 H3323 0.929 . S
C3332 C3324 1.378 . S
C3332 C3327 1.350 . S
C3333 H3320 0.929 . S
C3333 C3325 1.433 . S
C3333 N3335 1.384 . S
N3334 C3330 1.427 . S
N3334 C3331 1.384 . S
N3335 C3327 1.427 . S
N3335 C3333 1.384 . S
H3336 C3342 0.930 . S
H3337 C3346 0.930 . S
H3338 C3351 0.929 . S
H3339 C3349 0.929 . S
H3340 C3344 0.929 . S
H3341 C3350 0.929 . S
C3342 H3336 0.930 . S
C3342 C3343 1.367 . S
C3342 C3350 1.378 . S
C3343 C3342 1.367 . S
C3343 C3351 1.433 . S
C3344 H3340 0.929 . S
C3344 C3346 1.378 . S
C3344 C3348 1.350 . S
C3345 C3348 1.463 . S
C3345 C3350 1.350 . S
C3345 N3353 1.427 . S
C3346 H3337 0.930 . S
C3346 C3344 1.378 . S
C3346 C3347 1.367 . S
C3347 C3346 1.367 . S
C3347 C3349 1.433 . S
C3348 C3344 1.350 . S
C3348 C3345 1.463 . S
C3348 N3352 1.427 . S
C3349 H3339 0.929 . S
C3349 C3347 1.433 . S
C3349 N3352 1.384 . S
C3350 H3341 0.929 . S
C3350 C3342 1.378 . S
C3350 C3345 1.350 . S
C3351 H3338 0.929 . S
C3351 C3343 1.433 . S
C3351 N3353 1.384 . S
N3352 C3348 1.427 . S
N3352 C3349 1.384 . S
N3353 C3345 1.427 . S
N3353 C3351 1.384 . S
H3354 C3360 0.930 . S
H3355 C3364 0.930 . S
H3356 C3369 0.929 . S
H3357 C3367 0.929 . S
H3358 C3362 0.929 . S
H3359 C3368 0.929 . S
C3360 H3354 0.930 . S
C3360 C3361 1.367 . S
C3360 C3368 1.378 . S
C3361 C3360 1.367 . S
C3361 C3369 1.433 . S
C3362 H3358 0.929 . S
C3362 C3364 1.378 . S
C3362 C3366 1.350 . S
C3363 C3366 1.463 . S
C3363 C3368 1.350 . S
C3363 N3371 1.427 . S
C3364 H3355 0.930 . S
C3364 C3362 1.378 . S
C3364 C3365 1.367 . S
C3365 C3364 1.367 . S
C3365 C3367 1.433 . S
C3366 C3362 1.350 . S
C3366 C3363 1.463 . S
C3366 N3370 1.427 . S
C3367 H3357 0.929 . S
C3367 C3365 1.433 . S
C3367 N3370 1.384 . S
C3368 H3359 0.929 . S
C3368 C3360 1.378 . S
C3368 C3363 1.350 . S
C3369 H3356 0.929 . S
C3369 C3361 1.433 . S
C3369 N3371 1.384 . S
N3370 C3366 1.427 . S
N3370 C3367 1.384 . S
N3371 C3363 1.427 . S
N3371 C3369 1.384 . S
H3372 C3378 0.930 . S
H3373 C3382 0.930 . S
H3374 C3387 0.929 . S
H3375 C3385 0.929 . S
H3376 C3380 0.929 . S
H3377 C3386 0.929 . S
C3378 H3372 0.930 . S
C3378 C3379 1.367 . S
C3378 C3386 1.378 . S
C3379 C3378 1.367 . S
C3379 C3387 1.433 . S
C3380 H3376 0.929 . S
C3380 C3382 1.378 . S
C3380 C3384 1.350 . S
C3381 C3384 1.463 . S
C3381 C3386 1.350 . S
C3381 N3389 1.427 . S
C3382 H3373 0.930 . S
C3382 C3380 1.378 . S
C3382 C3383 1.367 . S
C3383 C3382 1.367 . S
C3383 C3385 1.433 . S
C3384 C3380 1.350 . S
C3384 C3381 1.463 . S
C3384 N3388 1.427 . S
C3385 H3375 0.929 . S
C3385 C3383 1.433 . S
C3385 N3388 1.384 . S
C3386 H3377 0.929 . S
C3386 C3378 1.378 . S
C3386 C3381 1.350 . S
C3387 H3374 0.929 . S
C3387 C3379 1.433 . S
C3387 N3389 1.384 . S
N3388 C3384 1.427 . S
N3388 C3385 1.384 . S
N3389 C3381 1.427 . S
N3389 C3387 1.384 . S
H3390 C3396 0.930 . S
H3391 C3400 0.930 . S
H3392 C3405 0.929 . S
H3393 C3403 0.929 . S
H3394 C3398 0.929 . S
H3395 C3404 0.929 . S
C3396 H3390 0.930 . S
C3396 C3397 1.367 . S
C3396 C3404 1.378 . S
C3397 C3396 1.367 . S
C3397 C3405 1.433 . S
C3398 H3394 0.929 . S
C3398 C3400 1.378 . S
C3398 C3402 1.350 . S
C3399 C3402 1.463 . S
C3399 C3404 1.350 . S
C3399 N3407 1.427 . S
C3400 H3391 0.930 . S
C3400 C3398 1.378 . S
C3400 C3401 1.367 . S
C3401 C3400 1.367 . S
C3401 C3403 1.433 . S
C3402 C3398 1.350 . S
C3402 C3399 1.463 . S
C3402 N3406 1.427 . S
C3403 H3393 0.929 . S
C3403 C3401 1.433 . S
C3403 N3406 1.384 . S
C3404 H3395 0.929 . S
C3404 C3396 1.378 . S
C3404 C3399 1.350 . S
C3405 H3392 0.929 . S
C3405 C3397 1.433 . S
C3405 N3407 1.384 . S
N3406 C3402 1.427 . S
N3406 C3403 1.384 . S
N3407 C3399 1.427 . S
N3407 C3405 1.384 . S
H3408 C3414 0.930 . S
H3409 C3418 0.930 . S
H3410 C3423 0.929 . S
H3411 C3421 0.929 . S
H3412 C3416 0.929 . S
H3413 C3422 0.929 . S
C3414 H3408 0.930 . S
C3414 C3415 1.367 . S
C3414 C3422 1.378 . S
C3415 C3414 1.367 . S
C3415 C3423 1.433 . S
C3416 H3412 0.929 . S
C3416 C3418 1.378 . S
C3416 C3420 1.350 . S
C3417 C3420 1.463 . S
C3417 C3422 1.350 . S
C3417 N3425 1.427 . S
C3418 H3409 0.930 . S
C3418 C3416 1.378 . S
C3418 C3419 1.367 . S
C3419 C3418 1.367 . S
C3419 C3421 1.433 . S
C3420 C3416 1.350 . S
C3420 C3417 1.463 . S
C3420 N3424 1.427 . S
C3421 H3411 0.929 . S
C3421 C3419 1.433 . S
C3421 N3424 1.384 . S
C3422 H3413 0.929 . S
C3422 C3414 1.378 . S
C3422 C3417 1.350 . S
C3423 H3410 0.929 . S
C3423 C3415 1.433 . S
C3423 N3425 1.384 . S
N3424 C3420 1.427 . S
N3424 C3421 1.384 . S
N3425 C3417 1.427 . S
N3425 C3423 1.384 . S
H3426 C3432 0.930 . S
H3427 C3436 0.930 . S
H3428 C3441 0.929 . S
H3429 C3439 0.929 . S
H3430 C3434 0.929 . S
H3431 C3440 0.929 . S
C3432 H3426 0.930 . S
C3432 C3433 1.367 . S
C3432 C3440 1.378 . S
C3433 C3432 1.367 . S
C3433 C3441 1.433 . S
C3434 H3430 0.929 . S
C3434 C3436 1.378 . S
C3434 C3438 1.350 . S
C3435 C3438 1.463 . S
C3435 C3440 1.350 . S
C3435 N3443 1.427 . S
C3436 H3427 0.930 . S
C3436 C3434 1.378 . S
C3436 C3437 1.367 . S
C3437 C3436 1.367 . S
C3437 C3439 1.433 . S
C3438 C3434 1.350 . S
C3438 C3435 1.463 . S
C3438 N3442 1.427 . S
C3439 H3429 0.929 . S
C3439 C3437 1.433 . S
C3439 N3442 1.384 . S
C3440 H3431 0.929 . S
C3440 C3432 1.378 . S
C3440 C3435 1.350 . S
C3441 H3428 0.929 . S
C3441 C3433 1.433 . S
C3441 N3443 1.384 . S
N3442 C3438 1.427 . S
N3442 C3439 1.384 . S
N3443 C3435 1.427 . S
N3443 C3441 1.384 . S
H3444 C3450 0.930 . S
H3445 C3454 0.930 . S
H3446 C3459 0.929 . S
H3447 C3457 0.929 . S
H3448 C3452 0.929 . S
H3449 C3458 0.929 . S
C3450 H3444 0.930 . S
C3450 C3451 1.367 . S
C3450 C3458 1.378 . S
C3451 C3450 1.367 . S
C3451 C3459 1.433 . S
C3452 H3448 0.929 . S
C3452 C3454 1.378 . S
C3452 C3456 1.350 . S
C3453 C3456 1.463 . S
C3453 C3458 1.350 . S
C3453 N3461 1.427 . S
C3454 H3445 0.930 . S
C3454 C3452 1.378 . S
C3454 C3455 1.367 . S
C3455 C3454 1.367 . S
C3455 C3457 1.433 . S
C3456 C3452 1.350 . S
C3456 C3453 1.463 . S
C3456 N3460 1.427 . S
C3457 H3447 0.929 . S
C3457 C3455 1.433 . S
C3457 N3460 1.384 . S
C3458 H3449 0.929 . S
C3458 C3450 1.378 . S
C3458 C3453 1.350 . S
C3459 H3446 0.929 . S
C3459 C3451 1.433 . S
C3459 N3461 1.384 . S
N3460 C3456 1.427 . S
N3460 C3457 1.384 . S
N3461 C3453 1.427 . S
N3461 C3459 1.384 . S
H3462 C3468 0.930 . S
H3463 C3472 0.930 . S
H3464 C3477 0.929 . S
H3465 C3475 0.929 . S
H3466 C3470 0.929 . S
H3467 C3476 0.929 . S
C3468 H3462 0.930 . S
C3468 C3469 1.367 . S
C3468 C3476 1.378 . S
C3469 C3468 1.367 . S
C3469 C3477 1.433 . S
C3470 H3466 0.929 . S
C3470 C3472 1.378 . S
C3470 C3474 1.350 . S
C3471 C3474 1.463 . S
C3471 C3476 1.350 . S
C3471 N3479 1.427 . S
C3472 H3463 0.930 . S
C3472 C3470 1.378 . S
C3472 C3473 1.367 . S
C3473 C3472 1.367 . S
C3473 C3475 1.433 . S
C3474 C3470 1.350 . S
C3474 C3471 1.463 . S
C3474 N3478 1.427 . S
C3475 H3465 0.929 . S
C3475 C3473 1.433 . S
C3475 N3478 1.384 . S
C3476 H3467 0.929 . S
C3476 C3468 1.378 . S
C3476 C3471 1.350 . S
C3477 H3464 0.929 . S
C3477 C3469 1.433 . S
C3477 N3479 1.384 . S
N3478 C3474 1.427 . S
N3478 C3475 1.384 . S
N3479 C3471 1.427 . S
N3479 C3477 1.384 . S
H3480 C3486 0.930 . S
H3481 C3490 0.930 . S
H3482 C3495 0.929 . S
H3483 C3493 0.929 . S
H3484 C3488 0.929 . S
H3485 C3494 0.929 . S
C3486 H3480 0.930 . S
C3486 C3487 1.367 . S
C3486 C3494 1.378 . S
C3487 C3486 1.367 . S
C3487 C3495 1.433 . S
C3488 H3484 0.929 . S
C3488 C3490 1.378 . S
C3488 C3492 1.350 . S
C3489 C3492 1.463 . S
C3489 C3494 1.350 . S
C3489 N3497 1.427 . S
C3490 H3481 0.930 . S
C3490 C3488 1.378 . S
C3490 C3491 1.367 . S
C3491 C3490 1.367 . S
C3491 C3493 1.433 . S
C3492 C3488 1.350 . S
C3492 C3489 1.463 . S
C3492 N3496 1.427 . S
C3493 H3483 0.929 . S
C3493 C3491 1.433 . S
C3493 N3496 1.384 . S
C3494 H3485 0.929 . S
C3494 C3486 1.378 . S
C3494 C3489 1.350 . S
C3495 H3482 0.929 . S
C3495 C3487 1.433 . S
C3495 N3497 1.384 . S
N3496 C3492 1.427 . S
N3496 C3493 1.384 . S
N3497 C3489 1.427 . S
N3497 C3495 1.384 . S
H3498 C3504 0.930 . S
H3499 C3508 0.930 . S
H3500 C3513 0.929 . S
H3501 C3511 0.929 . S
H3502 C3506 0.929 . S
H3503 C3512 0.929 . S
C3504 H3498 0.930 . S
C3504 C3505 1.367 . S
C3504 C3512 1.378 . S
C3505 C3504 1.367 . S
C3505 C3513 1.433 . S
C3506 H3502 0.929 . S
C3506 C3508 1.378 . S
C3506 C3510 1.350 . S
C3507 C3510 1.463 . S
C3507 C3512 1.350 . S
C3507 N3515 1.427 . S
C3508 H3499 0.930 . S
C3508 C3506 1.378 . S
C3508 C3509 1.367 . S
C3509 C3508 1.367 . S
C3509 C3511 1.433 . S
C3510 C3506 1.350 . S
C3510 C3507 1.463 . S
C3510 N3514 1.427 . S
C3511 H3501 0.929 . S
C3511 C3509 1.433 . S
C3511 N3514 1.384 . S
C3512 H3503 0.929 . S
C3512 C3504 1.378 . S
C3512 C3507 1.350 . S
C3513 H3500 0.929 . S
C3513 C3505 1.433 . S
C3513 N3515 1.384 . S
N3514 C3510 1.427 . S
N3514 C3511 1.384 . S
N3515 C3507 1.427 . S
N3515 C3513 1.384 . S
H3516 C3522 0.930 . S
H3517 C3526 0.930 . S
H3518 C3531 0.929 . S
H3519 C3529 0.929 . S
H3520 C3524 0.929 . S
H3521 C3530 0.929 . S
C3522 H3516 0.930 . S
C3522 C3523 1.367 . S
C3522 C3530 1.378 . S
C3523 C3522 1.367 . S
C3523 C3531 1.433 . S
C3524 H3520 0.929 . S
C3524 C3526 1.378 . S
C3524 C3528 1.350 . S
C3525 C3528 1.463 . S
C3525 C3530 1.350 . S
C3525 N3533 1.427 . S
C3526 H3517 0.930 . S
C3526 C3524 1.378 . S
C3526 C3527 1.367 . S
C3527 C3526 1.367 . S
C3527 C3529 1.433 . S
C3528 C3524 1.350 . S
C3528 C3525 1.463 . S
C3528 N3532 1.427 . S
C3529 H3519 0.929 . S
C3529 C3527 1.433 . S
C3529 N3532 1.384 . S
C3530 H3521 0.929 . S
C3530 C3522 1.378 . S
C3530 C3525 1.350 . S
C3531 H3518 0.929 . S
C3531 C3523 1.433 . S
C3531 N3533 1.384 . S
N3532 C3528 1.427 . S
N3532 C3529 1.384 . S
N3533 C3525 1.427 . S
N3533 C3531 1.384 . S
H3534 C3540 0.930 . S
H3535 C3544 0.930 . S
H3536 C3549 0.929 . S
H3537 C3547 0.929 . S
H3538 C3542 0.929 . S
H3539 C3548 0.929 . S
C3540 H3534 0.930 . S
C3540 C3541 1.367 . S
C3540 C3548 1.378 . S
C3541 C3540 1.367 . S
C3541 C3549 1.433 . S
C3542 H3538 0.929 . S
C3542 C3544 1.378 . S
C3542 C3546 1.350 . S
C3543 C3546 1.463 . S
C3543 C3548 1.350 . S
C3543 N3551 1.427 . S
C3544 H3535 0.930 . S
C3544 C3542 1.378 . S
C3544 C3545 1.367 . S
C3545 C3544 1.367 . S
C3545 C3547 1.433 . S
C3546 C3542 1.350 . S
C3546 C3543 1.463 . S
C3546 N3550 1.427 . S
C3547 H3537 0.929 . S
C3547 C3545 1.433 . S
C3547 N3550 1.384 . S
C3548 H3539 0.929 . S
C3548 C3540 1.378 . S
C3548 C3543 1.350 . S
C3549 H3536 0.929 . S
C3549 C3541 1.433 . S
C3549 N3551 1.384 . S
N3550 C3546 1.427 . S
N3550 C3547 1.384 . S
N3551 C3543 1.427 . S
N3551 C3549 1.384 . S
H3552 C3558 0.930 . S
H3553 C3562 0.930 . S
H3554 C3567 0.929 . S
H3555 C3565 0.929 . S
H3556 C3560 0.929 . S
H3557 C3566 0.929 . S
C3558 H3552 0.930 . S
C3558 C3559 1.367 . S
C3558 C3566 1.378 . S
C3559 C3558 1.367 . S
C3559 C3567 1.433 . S
C3560 H3556 0.929 . S
C3560 C3562 1.378 . S
C3560 C3564 1.350 . S
C3561 C3564 1.463 . S
C3561 C3566 1.350 . S
C3561 N3569 1.427 . S
C3562 H3553 0.930 . S
C3562 C3560 1.378 . S
C3562 C3563 1.367 . S
C3563 C3562 1.367 . S
C3563 C3565 1.433 . S
C3564 C3560 1.350 . S
C3564 C3561 1.463 . S
C3564 N3568 1.427 . S
C3565 H3555 0.929 . S
C3565 C3563 1.433 . S
C3565 N3568 1.384 . S
C3566 H3557 0.929 . S
C3566 C3558 1.378 . S
C3566 C3561 1.350 . S
C3567 H3554 0.929 . S
C3567 C3559 1.433 . S
C3567 N3569 1.384 . S
N3568 C3564 1.427 . S
N3568 C3565 1.384 . S
N3569 C3561 1.427 . S
N3569 C3567 1.384 . S
H3570 C3576 0.930 . S
H3571 C3580 0.930 . S
H3572 C3585 0.929 . S
H3573 C3583 0.929 . S
H3574 C3578 0.929 . S
H3575 C3584 0.929 . S
C3576 H3570 0.930 . S
C3576 C3577 1.367 . S
C3576 C3584 1.378 . S
C3577 C3576 1.367 . S
C3577 C3585 1.433 . S
C3578 H3574 0.929 . S
C3578 C3580 1.378 . S
C3578 C3582 1.350 . S
C3579 C3582 1.463 . S
C3579 C3584 1.350 . S
C3579 N3587 1.427 . S
C3580 H3571 0.930 . S
C3580 C3578 1.378 . S
C3580 C3581 1.367 . S
C3581 C3580 1.367 . S
C3581 C3583 1.433 . S
C3582 C3578 1.350 . S
C3582 C3579 1.463 . S
C3582 N3586 1.427 . S
C3583 H3573 0.929 . S
C3583 C3581 1.433 . S
C3583 N3586 1.384 . S
C3584 H3575 0.929 . S
C3584 C3576 1.378 . S
C3584 C3579 1.350 . S
C3585 H3572 0.929 . S
C3585 C3577 1.433 . S
C3585 N3587 1.384 . S
N3586 C3582 1.427 . S
N3586 C3583 1.384 . S
N3587 C3579 1.427 . S
N3587 C3585 1.384 . S
H3588 C3594 0.930 . S
H3589 C3598 0.930 . S
H3590 C3603 0.929 . S
H3591 C3601 0.929 . S
H3592 C3596 0.929 . S
H3593 C3602 0.929 . S
C3594 H3588 0.930 . S
C3594 C3595 1.367 . S
C3594 C3602 1.378 . S
C3595 C3594 1.367 . S
C3595 C3603 1.433 . S
C3596 H3592 0.929 . S
C3596 C3598 1.378 . S
C3596 C3600 1.350 . S
C3597 C3600 1.463 . S
C3597 C3602 1.350 . S
C3597 N3605 1.427 . S
C3598 H3589 0.930 . S
C3598 C3596 1.378 . S
C3598 C3599 1.367 . S
C3599 C3598 1.367 . S
C3599 C3601 1.433 . S
C3600 C3596 1.350 . S
C3600 C3597 1.463 . S
C3600 N3604 1.427 . S
C3601 H3591 0.929 . S
C3601 C3599 1.433 . S
C3601 N3604 1.384 . S
C3602 H3593 0.929 . S
C3602 C3594 1.378 . S
C3602 C3597 1.350 . S
C3603 H3590 0.929 . S
C3603 C3595 1.433 . S
C3603 N3605 1.384 . S
N3604 C3600 1.427 . S
N3604 C3601 1.384 . S
N3605 C3597 1.427 . S
N3605 C3603 1.384 . S
H3606 C3612 0.930 . S
H3607 C3616 0.930 . S
H3608 C3621 0.929 . S
H3609 C3619 0.929 . S
H3610 C3614 0.929 . S
H3611 C3620 0.929 . S
C3612 H3606 0.930 . S
C3612 C3613 1.367 . S
C3612 C3620 1.378 . S
C3613 C3612 1.367 . S
C3613 C3621 1.433 . S
C3614 H3610 0.929 . S
C3614 C3616 1.378 . S
C3614 C3618 1.350 . S
C3615 C3618 1.463 . S
C3615 C3620 1.350 . S
C3615 N3623 1.427 . S
C3616 H3607 0.930 . S
C3616 C3614 1.378 . S
C3616 C3617 1.367 . S
C3617 C3616 1.367 . S
C3617 C3619 1.433 . S
C3618 C3614 1.350 . S
C3618 C3615 1.463 . S
C3618 N3622 1.427 . S
C3619 H3609 0.929 . S
C3619 C3617 1.433 . S
C3619 N3622 1.384 . S
C3620 H3611 0.929 . S
C3620 C3612 1.378 . S
C3620 C3615 1.350 . S
C3621 H3608 0.929 . S
C3621 C3613 1.433 . S
C3621 N3623 1.384 . S
N3622 C3618 1.427 . S
N3622 C3619 1.384 . S
N3623 C3615 1.427 . S
N3623 C3621 1.384 . S
H3624 C3630 0.930 . S
H3625 C3634 0.930 . S
H3626 C3639 0.929 . S
H3627 C3637 0.929 . S
H3628 C3632 0.929 . S
H3629 C3638 0.929 . S
C3630 H3624 0.930 . S
C3630 C3631 1.367 . S
C3630 C3638 1.378 . S
C3631 C3630 1.367 . S
C3631 C3639 1.433 . S
C3632 H3628 0.929 . S
C3632 C3634 1.378 . S
C3632 C3636 1.350 . S
C3633 C3636 1.463 . S
C3633 C3638 1.350 . S
C3633 N3641 1.427 . S
C3634 H3625 0.930 . S
C3634 C3632 1.378 . S
C3634 C3635 1.367 . S
C3635 C3634 1.367 . S
C3635 C3637 1.433 . S
C3636 C3632 1.350 . S
C3636 C3633 1.463 . S
C3636 N3640 1.427 . S
C3637 H3627 0.929 . S
C3637 C3635 1.433 . S
C3637 N3640 1.384 . S
C3638 H3629 0.929 . S
C3638 C3630 1.378 . S
C3638 C3633 1.350 . S
C3639 H3626 0.929 . S
C3639 C3631 1.433 . S
C3639 N3641 1.384 . S
N3640 C3636 1.427 . S
N3640 C3637 1.384 . S
N3641 C3633 1.427 . S
N3641 C3639 1.384 . S
H3642 C3648 0.930 . S
H3643 C3652 0.930 . S
H3644 C3657 0.929 . S
H3645 C3655 0.929 . S
H3646 C3650 0.929 . S
H3647 C3656 0.929 . S
C3648 H3642 0.930 . S
C3648 C3649 1.367 . S
C3648 C3656 1.378 . S
C3649 C3648 1.367 . S
C3649 C3657 1.433 . S
C3650 H3646 0.929 . S
C3650 C3652 1.378 . S
C3650 C3654 1.350 . S
C3651 C3654 1.463 . S
C3651 C3656 1.350 . S
C3651 N3659 1.427 . S
C3652 H3643 0.930 . S
C3652 C3650 1.378 . S
C3652 C3653 1.367 . S
C3653 C3652 1.367 . S
C3653 C3655 1.433 . S
C3654 C3650 1.350 . S
C3654 C3651 1.463 . S
C3654 N3658 1.427 . S
C3655 H3645 0.929 . S
C3655 C3653 1.433 . S
C3655 N3658 1.384 . S
C3656 H3647 0.929 . S
C3656 C3648 1.378 . S
C3656 C3651 1.350 . S
C3657 H3644 0.929 . S
C3657 C3649 1.433 . S
C3657 N3659 1.384 . S
N3658 C3654 1.427 . S
N3658 C3655 1.384 . S
N3659 C3651 1.427 . S
N3659 C3657 1.384 . S
H3660 C3666 0.930 . S
H3661 C3670 0.930 . S
H3662 C3675 0.929 . S
H3663 C3673 0.929 . S
H3664 C3668 0.929 . S
H3665 C3674 0.929 . S
C3666 H3660 0.930 . S
C3666 C3667 1.367 . S
C3666 C3674 1.378 . S
C3667 C3666 1.367 . S
C3667 C3675 1.433 . S
C3668 H3664 0.929 . S
C3668 C3670 1.378 . S
C3668 C3672 1.350 . S
C3669 C3672 1.463 . S
C3669 C3674 1.350 . S
C3669 N3677 1.427 . S
C3670 H3661 0.930 . S
C3670 C3668 1.378 . S
C3670 C3671 1.367 . S
C3671 C3670 1.367 . S
C3671 C3673 1.433 . S
C3672 C3668 1.350 . S
C3672 C3669 1.463 . S
C3672 N3676 1.427 . S
C3673 H3663 0.929 . S
C3673 C3671 1.433 . S
C3673 N3676 1.384 . S
C3674 H3665 0.929 . S
C3674 C3666 1.378 . S
C3674 C3669 1.350 . S
C3675 H3662 0.929 . S
C3675 C3667 1.433 . S
C3675 N3677 1.384 . S
N3676 C3672 1.427 . S
N3676 C3673 1.384 . S
N3677 C3669 1.427 . S
N3677 C3675 1.384 . S
H3678 C3684 0.930 . S
H3679 C3688 0.930 . S
H3680 C3693 0.929 . S
H3681 C3691 0.929 . S
H3682 C3686 0.929 . S
H3683 C3692 0.929 . S
C3684 H3678 0.930 . S
C3684 C3685 1.367 . S
C3684 C3692 1.378 . S
C3685 C3684 1.367 . S
C3685 C3693 1.433 . S
C3686 H3682 0.929 . S
C3686 C3688 1.378 . S
C3686 C3690 1.350 . S
C3687 C3690 1.463 . S
C3687 C3692 1.350 . S
C3687 N3695 1.427 . S
C3688 H3679 0.930 . S
C3688 C3686 1.378 . S
C3688 C3689 1.367 . S
C3689 C3688 1.367 . S
C3689 C3691 1.433 . S
C3690 C3686 1.350 . S
C3690 C3687 1.463 . S
C3690 N3694 1.427 . S
C3691 H3681 0.929 . S
C3691 C3689 1.433 . S
C3691 N3694 1.384 . S
C3692 H3683 0.929 . S
C3692 C3684 1.378 . S
C3692 C3687 1.350 . S
C3693 H3680 0.929 . S
C3693 C3685 1.433 . S
C3693 N3695 1.384 . S
N3694 C3690 1.427 . S
N3694 C3691 1.384 . S
N3695 C3687 1.427 . S
N3695 C3693 1.384 . S
H3696 C3702 0.930 . S
H3697 C3706 0.930 . S
H3698 C3711 0.929 . S
H3699 C3709 0.929 . S
H3700 C3704 0.929 . S
H3701 C3710 0.929 . S
C3702 H3696 0.930 . S
C3702 C3703 1.367 . S
C3702 C3710 1.378 . S
C3703 C3702 1.367 . S
C3703 C3711 1.433 . S
C3704 H3700 0.929 . S
C3704 C3706 1.378 . S
C3704 C3708 1.350 . S
C3705 C3708 1.463 . S
C3705 C3710 1.350 . S
C3705 N3713 1.427 . S
C3706 H3697 0.930 . S
C3706 C3704 1.378 . S
C3706 C3707 1.367 . S
C3707 C3706 1.367 . S
C3707 C3709 1.433 . S
C3708 C3704 1.350 . S
C3708 C3705 1.463 . S
C3708 N3712 1.427 . S
C3709 H3699 0.929 . S
C3709 C3707 1.433 . S
C3709 N3712 1.384 . S
C3710 H3701 0.929 . S
C3710 C3702 1.378 . S
C3710 C3705 1.350 . S
C3711 H3698 0.929 . S
C3711 C3703 1.433 . S
C3711 N3713 1.384 . S
N3712 C3708 1.427 . S
N3712 C3709 1.384 . S
N3713 C3705 1.427 . S
N3713 C3711 1.384 . S
H3714 C3720 0.930 . S
H3715 C3724 0.930 . S
H3716 C3729 0.929 . S
H3717 C3727 0.929 . S
H3718 C3722 0.929 . S
H3719 C3728 0.929 . S
C3720 H3714 0.930 . S
C3720 C3721 1.367 . S
C3720 C3728 1.378 . S
C3721 C3720 1.367 . S
C3721 C3729 1.433 . S
C3722 H3718 0.929 . S
C3722 C3724 1.378 . S
C3722 C3726 1.350 . S
C3723 C3726 1.463 . S
C3723 C3728 1.350 . S
C3723 N3731 1.427 . S
C3724 H3715 0.930 . S
C3724 C3722 1.378 . S
C3724 C3725 1.367 . S
C3725 C3724 1.367 . S
C3725 C3727 1.433 . S
C3726 C3722 1.350 . S
C3726 C3723 1.463 . S
C3726 N3730 1.427 . S
C3727 H3717 0.929 . S
C3727 C3725 1.433 . S
C3727 N3730 1.384 . S
C3728 H3719 0.929 . S
C3728 C3720 1.378 . S
C3728 C3723 1.350 . S
C3729 H3716 0.929 . S
C3729 C3721 1.433 . S
C3729 N3731 1.384 . S
N3730 C3726 1.427 . S
N3730 C3727 1.384 . S
N3731 C3723 1.427 . S
N3731 C3729 1.384 . S
H3732 C3738 0.930 . S
H3733 C3742 0.930 . S
H3734 C3747 0.929 . S
H3735 C3745 0.929 . S
H3736 C3740 0.929 . S
H3737 C3746 0.929 . S
C3738 H3732 0.930 . S
C3738 C3739 1.367 . S
C3738 C3746 1.378 . S
C3739 C3738 1.367 . S
C3739 C3747 1.433 . S
C3740 H3736 0.929 . S
C3740 C3742 1.378 . S
C3740 C3744 1.350 . S
C3741 C3744 1.463 . S
C3741 C3746 1.350 . S
C3741 N3749 1.427 . S
C3742 H3733 0.930 . S
C3742 C3740 1.378 . S
C3742 C3743 1.367 . S
C3743 C3742 1.367 . S
C3743 C3745 1.433 . S
C3744 C3740 1.350 . S
C3744 C3741 1.463 . S
C3744 N3748 1.427 . S
C3745 H3735 0.929 . S
C3745 C3743 1.433 . S
C3745 N3748 1.384 . S
C3746 H3737 0.929 . S
C3746 C3738 1.378 . S
C3746 C3741 1.350 . S
C3747 H3734 0.929 . S
C3747 C3739 1.433 . S
C3747 N3749 1.384 . S
N3748 C3744 1.427 . S
N3748 C3745 1.384 . S
N3749 C3741 1.427 . S
N3749 C3747 1.384 . S
H3750 C3756 0.930 . S
H3751 C3760 0.930 . S
H3752 C3765 0.929 . S
H3753 C3763 0.929 . S
H3754 C3758 0.929 . S
H3755 C3764 0.929 . S
C3756 H3750 0.930 . S
C3756 C3757 1.367 . S
C3756 C3764 1.378 . S
C3757 C3756 1.367 . S
C3757 C3765 1.433 . S
C3758 H3754 0.929 . S
C3758 C3760 1.378 . S
C3758 C3762 1.350 . S
C3759 C3762 1.463 . S
C3759 C3764 1.350 . S
C3759 N3767 1.427 . S
C3760 H3751 0.930 . S
C3760 C3758 1.378 . S
C3760 C3761 1.367 . S
C3761 C3760 1.367 . S
C3761 C3763 1.433 . S
C3762 C3758 1.350 . S
C3762 C3759 1.463 . S
C3762 N3766 1.427 . S
C3763 H3753 0.929 . S
C3763 C3761 1.433 . S
C3763 N3766 1.384 . S
C3764 H3755 0.929 . S
C3764 C3756 1.378 . S
C3764 C3759 1.350 . S
C3765 H3752 0.929 . S
C3765 C3757 1.433 . S
C3765 N3767 1.384 . S
N3766 C3762 1.427 . S
N3766 C3763 1.384 . S
N3767 C3759 1.427 . S
N3767 C3765 1.384 . S
H3768 C3774 0.930 . S
H3769 C3778 0.930 . S
H3770 C3783 0.929 . S
H3771 C3781 0.929 . S
H3772 C3776 0.929 . S
H3773 C3782 0.929 . S
C3774 H3768 0.930 . S
C3774 C3775 1.367 . S
C3774 C3782 1.378 . S
C3775 C3774 1.367 . S
C3775 C3783 1.433 . S
C3776 H3772 0.929 . S
C3776 C3778 1.378 . S
C3776 C3780 1.350 . S
C3777 C3780 1.463 . S
C3777 C3782 1.350 . S
C3777 N3785 1.427 . S
C3778 H3769 0.930 . S
C3778 C3776 1.378 . S
C3778 C3779 1.367 . S
C3779 C3778 1.367 . S
C3779 C3781 1.433 . S
C3780 C3776 1.350 . S
C3780 C3777 1.463 . S
C3780 N3784 1.427 . S
C3781 H3771 0.929 . S
C3781 C3779 1.433 . S
C3781 N3784 1.384 . S
C3782 H3773 0.929 . S
C3782 C3774 1.378 . S
C3782 C3777 1.350 . S
C3783 H3770 0.929 . S
C3783 C3775 1.433 . S
C3783 N3785 1.384 . S
N3784 C3780 1.427 . S
N3784 C3781 1.384 . S
N3785 C3777 1.427 . S
N3785 C3783 1.384 . S
H3786 C3792 0.930 . S
H3787 C3796 0.930 . S
H3788 C3801 0.929 . S
H3789 C3799 0.929 . S
H3790 C3794 0.929 . S
H3791 C3800 0.929 . S
C3792 H3786 0.930 . S
C3792 C3793 1.367 . S
C3792 C3800 1.378 . S
C3793 C3792 1.367 . S
C3793 C3801 1.433 . S
C3794 H3790 0.929 . S
C3794 C3796 1.378 . S
C3794 C3798 1.350 . S
C3795 C3798 1.463 . S
C3795 C3800 1.350 . S
C3795 N3803 1.427 . S
C3796 H3787 0.930 . S
C3796 C3794 1.378 . S
C3796 C3797 1.367 . S
C3797 C3796 1.367 . S
C3797 C3799 1.433 . S
C3798 C3794 1.350 . S
C3798 C3795 1.463 . S
C3798 N3802 1.427 . S
C3799 H3789 0.929 . S
C3799 C3797 1.433 . S
C3799 N3802 1.384 . S
C3800 H3791 0.929 . S
C3800 C3792 1.378 . S
C3800 C3795 1.350 . S
C3801 H3788 0.929 . S
C3801 C3793 1.433 . S
C3801 N3803 1.384 . S
N3802 C3798 1.427 . S
N3802 C3799 1.384 . S
N3803 C3795 1.427 . S
N3803 C3801 1.384 . S
H3804 C3810 0.930 . S
H3805 C3814 0.930 . S
H3806 C3819 0.929 . S
H3807 C3817 0.929 . S
H3808 C3812 0.929 . S
H3809 C3818 0.929 . S
C3810 H3804 0.930 . S
C3810 C3811 1.367 . S
C3810 C3818 1.378 . S
C3811 C3810 1.367 . S
C3811 C3819 1.433 . S
C3812 H3808 0.929 . S
C3812 C3814 1.378 . S
C3812 C3816 1.350 . S
C3813 C3816 1.463 . S
C3813 C3818 1.350 . S
C3813 N3821 1.427 . S
C3814 H3805 0.930 . S
C3814 C3812 1.378 . S
C3814 C3815 1.367 . S
C3815 C3814 1.367 . S
C3815 C3817 1.433 . S
C3816 C3812 1.350 . S
C3816 C3813 1.463 . S
C3816 N3820 1.427 . S
C3817 H3807 0.929 . S
C3817 C3815 1.433 . S
C3817 N3820 1.384 . S
C3818 H3809 0.929 . S
C3818 C3810 1.378 . S
C3818 C3813 1.350 . S
C3819 H3806 0.929 . S
C3819 C3811 1.433 . S
C3819 N3821 1.384 . S
N3820 C3816 1.427 . S
N3820 C3817 1.384 . S
N3821 C3813 1.427 . S
N3821 C3819 1.384 . S
H3822 C3828 0.930 . S
H3823 C3832 0.930 . S
H3824 C3837 0.929 . S
H3825 C3835 0.929 . S
H3826 C3830 0.929 . S
H3827 C3836 0.929 . S
C3828 H3822 0.930 . S
C3828 C3829 1.367 . S
C3828 C3836 1.378 . S
C3829 C3828 1.367 . S
C3829 C3837 1.433 . S
C3830 H3826 0.929 . S
C3830 C3832 1.378 . S
C3830 C3834 1.350 . S
C3831 C3834 1.463 . S
C3831 C3836 1.350 . S
C3831 N3839 1.427 . S
C3832 H3823 0.930 . S
C3832 C3830 1.378 . S
C3832 C3833 1.367 . S
C3833 C3832 1.367 . S
C3833 C3835 1.433 . S
C3834 C3830 1.350 . S
C3834 C3831 1.463 . S
C3834 N3838 1.427 . S
C3835 H3825 0.929 . S
C3835 C3833 1.433 . S
C3835 N3838 1.384 . S
C3836 H3827 0.929 . S
C3836 C3828 1.378 . S
C3836 C3831 1.350 . S
C3837 H3824 0.929 . S
C3837 C3829 1.433 . S
C3837 N3839 1.384 . S
N3838 C3834 1.427 . S
N3838 C3835 1.384 . S
N3839 C3831 1.427 . S
N3839 C3837 1.384 . S
H3840 C3846 0.930 . S
H3841 C3850 0.930 . S
H3842 C3855 0.929 . S
H3843 C3853 0.929 . S
H3844 C3848 0.929 . S
H3845 C3854 0.929 . S
C3846 H3840 0.930 . S
C3846 C3847 1.367 . S
C3846 C3854 1.378 . S
C3847 C3846 1.367 . S
C3847 C3855 1.433 . S
C3848 H3844 0.929 . S
C3848 C3850 1.378 . S
C3848 C3852 1.350 . S
C3849 C3852 1.463 . S
C3849 C3854 1.350 . S
C3849 N3857 1.427 . S
C3850 H3841 0.930 . S
C3850 C3848 1.378 . S
C3850 C3851 1.367 . S
C3851 C3850 1.367 . S
C3851 C3853 1.433 . S
C3852 C3848 1.350 . S
C3852 C3849 1.463 . S
C3852 N3856 1.427 . S
C3853 H3843 0.929 . S
C3853 C3851 1.433 . S
C3853 N3856 1.384 . S
C3854 H3845 0.929 . S
C3854 C3846 1.378 . S
C3854 C3849 1.350 . S
C3855 H3842 0.929 . S
C3855 C3847 1.433 . S
C3855 N3857 1.384 . S
N3856 C3852 1.427 . S
N3856 C3853 1.384 . S
N3857 C3849 1.427 . S
N3857 C3855 1.384 . S
H3858 C3864 0.930 . S
H3859 C3868 0.930 . S
H3860 C3873 0.929 . S
H3861 C3871 0.929 . S
H3862 C3866 0.929 . S
H3863 C3872 0.929 . S
C3864 H3858 0.930 . S
C3864 C3865 1.367 . S
C3864 C3872 1.378 . S
C3865 C3864 1.367 . S
C3865 C3873 1.433 . S
C3866 H3862 0.929 . S
C3866 C3868 1.378 . S
C3866 C3870 1.350 . S
C3867 C3870 1.463 . S
C3867 C3872 1.350 . S
C3867 N3875 1.427 . S
C3868 H3859 0.930 . S
C3868 C3866 1.378 . S
C3868 C3869 1.367 . S
C3869 C3868 1.367 . S
C3869 C3871 1.433 . S
C3870 C3866 1.350 . S
C3870 C3867 1.463 . S
C3870 N3874 1.427 . S
C3871 H3861 0.929 . S
C3871 C3869 1.433 . S
C3871 N3874 1.384 . S
C3872 H3863 0.929 . S
C3872 C3864 1.378 . S
C3872 C3867 1.350 . S
C3873 H3860 0.929 . S
C3873 C3865 1.433 . S
C3873 N3875 1.384 . S
N3874 C3870 1.427 . S
N3874 C3871 1.384 . S
N3875 C3867 1.427 . S
N3875 C3873 1.384 . S
H3876 C3882 0.930 . S
H3877 C3886 0.930 . S
H3878 C3891 0.929 . S
H3879 C3889 0.929 . S
H3880 C3884 0.929 . S
H3881 C3890 0.929 . S
C3882 H3876 0.930 . S
C3882 C3883 1.367 . S
C3882 C3890 1.378 . S
C3883 C3882 1.367 . S
C3883 C3891 1.433 . S
C3884 H3880 0.929 . S
C3884 C3886 1.378 . S
C3884 C3888 1.350 . S
C3885 C3888 1.463 . S
C3885 C3890 1.350 . S
C3885 N3893 1.427 . S
C3886 H3877 0.930 . S
C3886 C3884 1.378 . S
C3886 C3887 1.367 . S
C3887 C3886 1.367 . S
C3887 C3889 1.433 . S
C3888 C3884 1.350 . S
C3888 C3885 1.463 . S
C3888 N3892 1.427 . S
C3889 H3879 0.929 . S
C3889 C3887 1.433 . S
C3889 N3892 1.384 . S
C3890 H3881 0.929 . S
C3890 C3882 1.378 . S
C3890 C3885 1.350 . S
C3891 H3878 0.929 . S
C3891 C3883 1.433 . S
C3891 N3893 1.384 . S
N3892 C3888 1.427 . S
N3892 C3889 1.384 . S
N3893 C3885 1.427 . S
N3893 C3891 1.384 . S
H3894 C3900 0.930 . S
H3895 C3904 0.930 . S
H3896 C3909 0.929 . S
H3897 C3907 0.929 . S
H3898 C3902 0.929 . S
H3899 C3908 0.929 . S
C3900 H3894 0.930 . S
C3900 C3901 1.367 . S
C3900 C3908 1.378 . S
C3901 C3900 1.367 . S
C3901 C3909 1.433 . S
C3902 H3898 0.929 . S
C3902 C3904 1.378 . S
C3902 C3906 1.350 . S
C3903 C3906 1.463 . S
C3903 C3908 1.350 . S
C3903 N3911 1.427 . S
C3904 H3895 0.930 . S
C3904 C3902 1.378 . S
C3904 C3905 1.367 . S
C3905 C3904 1.367 . S
C3905 C3907 1.433 . S
C3906 C3902 1.350 . S
C3906 C3903 1.463 . S
C3906 N3910 1.427 . S
C3907 H3897 0.929 . S
C3907 C3905 1.433 . S
C3907 N3910 1.384 . S
C3908 H3899 0.929 . S
C3908 C3900 1.378 . S
C3908 C3903 1.350 . S
C3909 H3896 0.929 . S
C3909 C3901 1.433 . S
C3909 N3911 1.384 . S
N3910 C3906 1.427 . S
N3910 C3907 1.384 . S
N3911 C3903 1.427 . S
N3911 C3909 1.384 . S
H3912 C3918 0.930 . S
H3913 C3922 0.930 . S
H3914 C3927 0.929 . S
H3915 C3925 0.929 . S
H3916 C3920 0.929 . S
H3917 C3926 0.929 . S
C3918 H3912 0.930 . S
C3918 C3919 1.367 . S
C3918 C3926 1.378 . S
C3919 C3918 1.367 . S
C3919 C3927 1.433 . S
C3920 H3916 0.929 . S
C3920 C3922 1.378 . S
C3920 C3924 1.350 . S
C3921 C3924 1.463 . S
C3921 C3926 1.350 . S
C3921 N3929 1.427 . S
C3922 H3913 0.930 . S
C3922 C3920 1.378 . S
C3922 C3923 1.367 . S
C3923 C3922 1.367 . S
C3923 C3925 1.433 . S
C3924 C3920 1.350 . S
C3924 C3921 1.463 . S
C3924 N3928 1.427 . S
C3925 H3915 0.929 . S
C3925 C3923 1.433 . S
C3925 N3928 1.384 . S
C3926 H3917 0.929 . S
C3926 C3918 1.378 . S
C3926 C3921 1.350 . S
C3927 H3914 0.929 . S
C3927 C3919 1.433 . S
C3927 N3929 1.384 . S
N3928 C3924 1.427 . S
N3928 C3925 1.384 . S
N3929 C3921 1.427 . S
N3929 C3927 1.384 . S
H3930 C3936 0.930 . S
H3931 C3940 0.930 . S
H3932 C3945 0.929 . S
H3933 C3943 0.929 . S
H3934 C3938 0.929 . S
H3935 C3944 0.929 . S
C3936 H3930 0.930 . S
C3936 C3937 1.367 . S
C3936 C3944 1.378 . S
C3937 C3936 1.367 . S
C3937 C3945 1.433 . S
C3938 H3934 0.929 . S
C3938 C3940 1.378 . S
C3938 C3942 1.350 . S
C3939 C3942 1.463 . S
C3939 C3944 1.350 . S
C3939 N3947 1.427 . S
C3940 H3931 0.930 . S
C3940 C3938 1.378 . S
C3940 C3941 1.367 . S
C3941 C3940 1.367 . S
C3941 C3943 1.433 . S
C3942 C3938 1.350 . S
C3942 C3939 1.463 . S
C3942 N3946 1.427 . S
C3943 H3933 0.929 . S
C3943 C3941 1.433 . S
C3943 N3946 1.384 . S
C3944 H3935 0.929 . S
C3944 C3936 1.378 . S
C3944 C3939 1.350 . S
C3945 H3932 0.929 . S
C3945 C3937 1.433 . S
C3945 N3947 1.384 . S
N3946 C3942 1.427 . S
N3946 C3943 1.384 . S
N3947 C3939 1.427 . S
N3947 C3945 1.384 . S
H3948 C3954 0.930 . S
H3949 C3958 0.930 . S
H3950 C3963 0.929 . S
H3951 C3961 0.929 . S
H3952 C3956 0.929 . S
H3953 C3962 0.929 . S
C3954 H3948 0.930 . S
C3954 C3955 1.367 . S
C3954 C3962 1.378 . S
C3955 C3954 1.367 . S
C3955 C3963 1.433 . S
C3956 H3952 0.929 . S
C3956 C3958 1.378 . S
C3956 C3960 1.350 . S
C3957 C3960 1.463 . S
C3957 C3962 1.350 . S
C3957 N3965 1.427 . S
C3958 H3949 0.930 . S
C3958 C3956 1.378 . S
C3958 C3959 1.367 . S
C3959 C3958 1.367 . S
C3959 C3961 1.433 . S
C3960 C3956 1.350 . S
C3960 C3957 1.463 . S
C3960 N3964 1.427 . S
C3961 H3951 0.929 . S
C3961 C3959 1.433 . S
C3961 N3964 1.384 . S
C3962 H3953 0.929 . S
C3962 C3954 1.378 . S
C3962 C3957 1.350 . S
C3963 H3950 0.929 . S
C3963 C3955 1.433 . S
C3963 N3965 1.384 . S
N3964 C3960 1.427 . S
N3964 C3961 1.384 . S
N3965 C3957 1.427 . S
N3965 C3963 1.384 . S
H3966 C3972 0.930 . S
H3967 C3976 0.930 . S
H3968 C3981 0.929 . S
H3969 C3979 0.929 . S
H3970 C3974 0.929 . S
H3971 C3980 0.929 . S
C3972 H3966 0.930 . S
C3972 C3973 1.367 . S
C3972 C3980 1.378 . S
C3973 C3972 1.367 . S
C3973 C3981 1.433 . S
C3974 H3970 0.929 . S
C3974 C3976 1.378 . S
C3974 C3978 1.350 . S
C3975 C3978 1.463 . S
C3975 C3980 1.350 . S
C3975 N3983 1.427 . S
C3976 H3967 0.930 . S
C3976 C3974 1.378 . S
C3976 C3977 1.367 . S
C3977 C3976 1.367 . S
C3977 C3979 1.433 . S
C3978 C3974 1.350 . S
C3978 C3975 1.463 . S
C3978 N3982 1.427 . S
C3979 H3969 0.929 . S
C3979 C3977 1.433 . S
C3979 N3982 1.384 . S
C3980 H3971 0.929 . S
C3980 C3972 1.378 . S
C3980 C3975 1.350 . S
C3981 H3968 0.929 . S
C3981 C3973 1.433 . S
C3981 N3983 1.384 . S
N3982 C3978 1.427 . S
N3982 C3979 1.384 . S
N3983 C3975 1.427 . S
N3983 C3981 1.384 . S
H3984 C3990 0.930 . S
H3985 C3994 0.930 . S
H3986 C3999 0.929 . S
H3987 C3997 0.929 . S
H3988 C3992 0.929 . S
H3989 C3998 0.929 . S
C3990 H3984 0.930 . S
C3990 C3991 1.367 . S
C3990 C3998 1.378 . S
C3991 C3990 1.367 . S
C3991 C3999 1.433 . S
C3992 H3988 0.929 . S
C3992 C3994 1.378 . S
C3992 C3996 1.350 . S
C3993 C3996 1.463 . S
C3993 C3998 1.350 . S
C3993 N4001 1.427 . S
C3994 H3985 0.930 . S
C3994 C3992 1.378 . S
C3994 C3995 1.367 . S
C3995 C3994 1.367 . S
C3995 C3997 1.433 . S
C3996 C3992 1.350 . S
C3996 C3993 1.463 . S
C3996 N4000 1.427 . S
C3997 H3987 0.929 . S
C3997 C3995 1.433 . S
C3997 N4000 1.384 . S
C3998 H3989 0.929 . S
C3998 C3990 1.378 . S
C3998 C3993 1.350 . S
C3999 H3986 0.929 . S
C3999 C3991 1.433 . S
C3999 N4001 1.384 . S
N4000 C3996 1.427 . S
N4000 C3997 1.384 . S
N4001 C3993 1.427 . S
N4001 C3999 1.384 . S
H4002 C4008 0.930 . S
H4003 C4012 0.930 . S
H4004 C4017 0.929 . S
H4005 C4015 0.929 . S
H4006 C4010 0.929 . S
H4007 C4016 0.929 . S
C4008 H4002 0.930 . S
C4008 C4009 1.367 . S
C4008 C4016 1.378 . S
C4009 C4008 1.367 . S
C4009 C4017 1.433 . S
C4010 H4006 0.929 . S
C4010 C4012 1.378 . S
C4010 C4014 1.350 . S
C4011 C4014 1.463 . S
C4011 C4016 1.350 . S
C4011 N4019 1.427 . S
C4012 H4003 0.930 . S
C4012 C4010 1.378 . S
C4012 C4013 1.367 . S
C4013 C4012 1.367 . S
C4013 C4015 1.433 . S
C4014 C4010 1.350 . S
C4014 C4011 1.463 . S
C4014 N4018 1.427 . S
C4015 H4005 0.929 . S
C4015 C4013 1.433 . S
C4015 N4018 1.384 . S
C4016 H4007 0.929 . S
C4016 C4008 1.378 . S
C4016 C4011 1.350 . S
C4017 H4004 0.929 . S
C4017 C4009 1.433 . S
C4017 N4019 1.384 . S
N4018 C4014 1.427 . S
N4018 C4015 1.384 . S
N4019 C4011 1.427 . S
N4019 C4017 1.384 . S
H4020 C4026 0.930 . S
H4021 C4030 0.930 . S
H4022 C4035 0.929 . S
H4023 C4033 0.929 . S
H4024 C4028 0.929 . S
H4025 C4034 0.929 . S
C4026 H4020 0.930 . S
C4026 C4027 1.367 . S
C4026 C4034 1.378 . S
C4027 C4026 1.367 . S
C4027 C4035 1.433 . S
C4028 H4024 0.929 . S
C4028 C4030 1.378 . S
C4028 C4032 1.350 . S
C4029 C4032 1.463 . S
C4029 C4034 1.350 . S
C4029 N4037 1.427 . S
C4030 H4021 0.930 . S
C4030 C4028 1.378 . S
C4030 C4031 1.367 . S
C4031 C4030 1.367 . S
C4031 C4033 1.433 . S
C4032 C4028 1.350 . S
C4032 C4029 1.463 . S
C4032 N4036 1.427 . S
C4033 H4023 0.929 . S
C4033 C4031 1.433 . S
C4033 N4036 1.384 . S
C4034 H4025 0.929 . S
C4034 C4026 1.378 . S
C4034 C4029 1.350 . S
C4035 H4022 0.929 . S
C4035 C4027 1.433 . S
C4035 N4037 1.384 . S
N4036 C4032 1.427 . S
N4036 C4033 1.384 . S
N4037 C4029 1.427 . S
N4037 C4035 1.384 . S
H4038 C4044 0.930 . S
H4039 C4048 0.930 . S
H4040 C4053 0.929 . S
H4041 C4051 0.929 . S
H4042 C4046 0.929 . S
H4043 C4052 0.929 . S
C4044 H4038 0.930 . S
C4044 C4045 1.367 . S
C4044 C4052 1.378 . S
C4045 C4044 1.367 . S
C4045 C4053 1.433 . S
C4046 H4042 0.929 . S
C4046 C4048 1.378 . S
C4046 C4050 1.350 . S
C4047 C4050 1.463 . S
C4047 C4052 1.350 . S
C4047 N4055 1.427 . S
C4048 H4039 0.930 . S
C4048 C4046 1.378 . S
C4048 C4049 1.367 . S
C4049 C4048 1.367 . S
C4049 C4051 1.433 . S
C4050 C4046 1.350 . S
C4050 C4047 1.463 . S
C4050 N4054 1.427 . S
C4051 H4041 0.929 . S
C4051 C4049 1.433 . S
C4051 N4054 1.384 . S
C4052 H4043 0.929 . S
C4052 C4044 1.378 . S
C4052 C4047 1.350 . S
C4053 H4040 0.929 . S
C4053 C4045 1.433 . S
C4053 N4055 1.384 . S
N4054 C4050 1.427 . S
N4054 C4051 1.384 . S
N4055 C4047 1.427 . S
N4055 C4053 1.384 . S
H4056 C4062 0.930 . S
H4057 C4066 0.930 . S
H4058 C4071 0.929 . S
H4059 C4069 0.929 . S
H4060 C4064 0.929 . S
H4061 C4070 0.929 . S
C4062 H4056 0.930 . S
C4062 C4063 1.367 . S
C4062 C4070 1.378 . S
C4063 C4062 1.367 . S
C4063 C4071 1.433 . S
C4064 H4060 0.929 . S
C4064 C4066 1.378 . S
C4064 C4068 1.350 . S
C4065 C4068 1.463 . S
C4065 C4070 1.350 . S
C4065 N4073 1.427 . S
C4066 H4057 0.930 . S
C4066 C4064 1.378 . S
C4066 C4067 1.367 . S
C4067 C4066 1.367 . S
C4067 C4069 1.433 . S
C4068 C4064 1.350 . S
C4068 C4065 1.463 . S
C4068 N4072 1.427 . S
C4069 H4059 0.929 . S
C4069 C4067 1.433 . S
C4069 N4072 1.384 . S
C4070 H4061 0.929 . S
C4070 C4062 1.378 . S
C4070 C4065 1.350 . S
C4071 H4058 0.929 . S
C4071 C4063 1.433 . S
C4071 N4073 1.384 . S
N4072 C4068 1.427 . S
N4072 C4069 1.384 . S
N4073 C4065 1.427 . S
N4073 C4071 1.384 . S
H4074 C4080 0.930 . S
H4075 C4084 0.930 . S
H4076 C4089 0.929 . S
H4077 C4087 0.929 . S
H4078 C4082 0.929 . S
H4079 C4088 0.929 . S
C4080 H4074 0.930 . S
C4080 C4081 1.367 . S
C4080 C4088 1.378 . S
C4081 C4080 1.367 . S
C4081 C4089 1.433 . S
C4082 H4078 0.929 . S
C4082 C4084 1.378 . S
C4082 C4086 1.350 . S
C4083 C4086 1.463 . S
C4083 C4088 1.350 . S
C4083 N4091 1.427 . S
C4084 H4075 0.930 . S
C4084 C4082 1.378 . S
C4084 C4085 1.367 . S
C4085 C4084 1.367 . S
C4085 C4087 1.433 . S
C4086 C4082 1.350 . S
C4086 C4083 1.463 . S
C4086 N4090 1.427 . S
C4087 H4077 0.929 . S
C4087 C4085 1.433 . S
C4087 N4090 1.384 . S
C4088 H4079 0.929 . S
C4088 C4080 1.378 . S
C4088 C4083 1.350 . S
C4089 H4076 0.929 . S
C4089 C4081 1.433 . S
C4089 N4091 1.384 . S
N4090 C4086 1.427 . S
N4090 C4087 1.384 . S
N4091 C4083 1.427 . S
N4091 C4089 1.384 . S
H4092 C4098 0.930 . S
H4093 C4102 0.930 . S
H4094 C4107 0.929 . S
H4095 C4105 0.929 . S
H4096 C4100 0.929 . S
H4097 C4106 0.929 . S
C4098 H4092 0.930 . S
C4098 C4099 1.367 . S
C4098 C4106 1.378 . S
C4099 C4098 1.367 . S
C4099 C4107 1.433 . S
C4100 H4096 0.929 . S
C4100 C4102 1.378 . S
C4100 C4104 1.350 . S
C4101 C4104 1.463 . S
C4101 C4106 1.350 . S
C4101 N4109 1.427 . S
C4102 H4093 0.930 . S
C4102 C4100 1.378 . S
C4102 C4103 1.367 . S
C4103 C4102 1.367 . S
C4103 C4105 1.433 . S
C4104 C4100 1.350 . S
C4104 C4101 1.463 . S
C4104 N4108 1.427 . S
C4105 H4095 0.929 . S
C4105 C4103 1.433 . S
C4105 N4108 1.384 . S
C4106 H4097 0.929 . S
C4106 C4098 1.378 . S
C4106 C4101 1.350 . S
C4107 H4094 0.929 . S
C4107 C4099 1.433 . S
C4107 N4109 1.384 . S
N4108 C4104 1.427 . S
N4108 C4105 1.384 . S
N4109 C4101 1.427 . S
N4109 C4107 1.384 . S
H4110 C4116 0.930 . S
H4111 C4120 0.930 . S
H4112 C4125 0.929 . S
H4113 C4123 0.929 . S
H4114 C4118 0.929 . S
H4115 C4124 0.929 . S
C4116 H4110 0.930 . S
C4116 C4117 1.367 . S
C4116 C4124 1.378 . S
C4117 C4116 1.367 . S
C4117 C4125 1.433 . S
C4118 H4114 0.929 . S
C4118 C4120 1.378 . S
C4118 C4122 1.350 . S
C4119 C4122 1.463 . S
C4119 C4124 1.350 . S
C4119 N4127 1.427 . S
C4120 H4111 0.930 . S
C4120 C4118 1.378 . S
C4120 C4121 1.367 . S
C4121 C4120 1.367 . S
C4121 C4123 1.433 . S
C4122 C4118 1.350 . S
C4122 C4119 1.463 . S
C4122 N4126 1.427 . S
C4123 H4113 0.929 . S
C4123 C4121 1.433 . S
C4123 N4126 1.384 . S
C4124 H4115 0.929 . S
C4124 C4116 1.378 . S
C4124 C4119 1.350 . S
C4125 H4112 0.929 . S
C4125 C4117 1.433 . S
C4125 N4127 1.384 . S
N4126 C4122 1.427 . S
N4126 C4123 1.384 . S
N4127 C4119 1.427 . S
N4127 C4125 1.384 . S
H4128 C4134 0.930 . S
H4129 C4138 0.930 . S
H4130 C4143 0.929 . S
H4131 C4141 0.929 . S
H4132 C4136 0.929 . S
H4133 C4142 0.929 . S
C4134 H4128 0.930 . S
C4134 C4135 1.367 . S
C4134 C4142 1.378 . S
C4135 C4134 1.367 . S
C4135 C4143 1.433 . S
C4136 H4132 0.929 . S
C4136 C4138 1.378 . S
C4136 C4140 1.350 . S
C4137 C4140 1.463 . S
C4137 C4142 1.350 . S
C4137 N4145 1.427 . S
C4138 H4129 0.930 . S
C4138 C4136 1.378 . S
C4138 C4139 1.367 . S
C4139 C4138 1.367 . S
C4139 C4141 1.433 . S
C4140 C4136 1.350 . S
C4140 C4137 1.463 . S
C4140 N4144 1.427 . S
C4141 H4131 0.929 . S
C4141 C4139 1.433 . S
C4141 N4144 1.384 . S
C4142 H4133 0.929 . S
C4142 C4134 1.378 . S
C4142 C4137 1.350 . S
C4143 H4130 0.929 . S
C4143 C4135 1.433 . S
C4143 N4145 1.384 . S
N4144 C4140 1.427 . S
N4144 C4141 1.384 . S
N4145 C4137 1.427 . S
N4145 C4143 1.384 . S
H4146 C4152 0.930 . S
H4147 C4156 0.930 . S
H4148 C4161 0.929 . S
H4149 C4159 0.929 . S
H4150 C4154 0.929 . S
H4151 C4160 0.929 . S
C4152 H4146 0.930 . S
C4152 C4153 1.367 . S
C4152 C4160 1.378 . S
C4153 C4152 1.367 . S
C4153 C4161 1.433 . S
C4154 H4150 0.929 . S
C4154 C4156 1.378 . S
C4154 C4158 1.350 . S
C4155 C4158 1.463 . S
C4155 C4160 1.350 . S
C4155 N4163 1.427 . S
C4156 H4147 0.930 . S
C4156 C4154 1.378 . S
C4156 C4157 1.367 . S
C4157 C4156 1.367 . S
C4157 C4159 1.433 . S
C4158 C4154 1.350 . S
C4158 C4155 1.463 . S
C4158 N4162 1.427 . S
C4159 H4149 0.929 . S
C4159 C4157 1.433 . S
C4159 N4162 1.384 . S
C4160 H4151 0.929 . S
C4160 C4152 1.378 . S
C4160 C4155 1.350 . S
C4161 H4148 0.929 . S
C4161 C4153 1.433 . S
C4161 N4163 1.384 . S
N4162 C4158 1.427 . S
N4162 C4159 1.384 . S
N4163 C4155 1.427 . S
N4163 C4161 1.384 . S
H4164 C4170 0.930 . S
H4165 C4174 0.930 . S
H4166 C4179 0.929 . S
H4167 C4177 0.929 . S
H4168 C4172 0.929 . S
H4169 C4178 0.929 . S
C4170 H4164 0.930 . S
C4170 C4171 1.367 . S
C4170 C4178 1.378 . S
C4171 C4170 1.367 . S
C4171 C4179 1.433 . S
C4172 H4168 0.929 . S
C4172 C4174 1.378 . S
C4172 C4176 1.350 . S
C4173 C4176 1.463 . S
C4173 C4178 1.350 . S
C4173 N4181 1.427 . S
C4174 H4165 0.930 . S
C4174 C4172 1.378 . S
C4174 C4175 1.367 . S
C4175 C4174 1.367 . S
C4175 C4177 1.433 . S
C4176 C4172 1.350 . S
C4176 C4173 1.463 . S
C4176 N4180 1.427 . S
C4177 H4167 0.929 . S
C4177 C4175 1.433 . S
C4177 N4180 1.384 . S
C4178 H4169 0.929 . S
C4178 C4170 1.378 . S
C4178 C4173 1.350 . S
C4179 H4166 0.929 . S
C4179 C4171 1.433 . S
C4179 N4181 1.384 . S
N4180 C4176 1.427 . S
N4180 C4177 1.384 . S
N4181 C4173 1.427 . S
N4181 C4179 1.384 . S
H4182 C4188 0.930 . S
H4183 C4192 0.930 . S
H4184 C4197 0.929 . S
H4185 C4195 0.929 . S
H4186 C4190 0.929 . S
H4187 C4196 0.929 . S
C4188 H4182 0.930 . S
C4188 C4189 1.367 . S
C4188 C4196 1.378 . S
C4189 C4188 1.367 . S
C4189 C4197 1.433 . S
C4190 H4186 0.929 . S
C4190 C4192 1.378 . S
C4190 C4194 1.350 . S
C4191 C4194 1.463 . S
C4191 C4196 1.350 . S
C4191 N4199 1.427 . S
C4192 H4183 0.930 . S
C4192 C4190 1.378 . S
C4192 C4193 1.367 . S
C4193 C4192 1.367 . S
C4193 C4195 1.433 . S
C4194 C4190 1.350 . S
C4194 C4191 1.463 . S
C4194 N4198 1.427 . S
C4195 H4185 0.929 . S
C4195 C4193 1.433 . S
C4195 N4198 1.384 . S
C4196 H4187 0.929 . S
C4196 C4188 1.378 . S
C4196 C4191 1.350 . S
C4197 H4184 0.929 . S
C4197 C4189 1.433 . S
C4197 N4199 1.384 . S
N4198 C4194 1.427 . S
N4198 C4195 1.384 . S
N4199 C4191 1.427 . S
N4199 C4197 1.384 . S
H4200 C4206 0.930 . S
H4201 C4210 0.930 . S
H4202 C4215 0.929 . S
H4203 C4213 0.929 . S
H4204 C4208 0.929 . S
H4205 C4214 0.929 . S
C4206 H4200 0.930 . S
C4206 C4207 1.367 . S
C4206 C4214 1.378 . S
C4207 C4206 1.367 . S
C4207 C4215 1.433 . S
C4208 H4204 0.929 . S
C4208 C4210 1.378 . S
C4208 C4212 1.350 . S
C4209 C4212 1.463 . S
C4209 C4214 1.350 . S
C4209 N4217 1.427 . S
C4210 H4201 0.930 . S
C4210 C4208 1.378 . S
C4210 C4211 1.367 . S
C4211 C4210 1.367 . S
C4211 C4213 1.433 . S
C4212 C4208 1.350 . S
C4212 C4209 1.463 . S
C4212 N4216 1.427 . S
C4213 H4203 0.929 . S
C4213 C4211 1.433 . S
C4213 N4216 1.384 . S
C4214 H4205 0.929 . S
C4214 C4206 1.378 . S
C4214 C4209 1.350 . S
C4215 H4202 0.929 . S
C4215 C4207 1.433 . S
C4215 N4217 1.384 . S
N4216 C4212 1.427 . S
N4216 C4213 1.384 . S
N4217 C4209 1.427 . S
N4217 C4215 1.384 . S
H4218 C4224 0.930 . S
H4219 C4228 0.930 . S
H4220 C4233 0.929 . S
H4221 C4231 0.929 . S
H4222 C4226 0.929 . S
H4223 C4232 0.929 . S
C4224 H4218 0.930 . S
C4224 C4225 1.367 . S
C4224 C4232 1.378 . S
C4225 C4224 1.367 . S
C4225 C4233 1.433 . S
C4226 H4222 0.929 . S
C4226 C4228 1.378 . S
C4226 C4230 1.350 . S
C4227 C4230 1.463 . S
C4227 C4232 1.350 . S
C4227 N4235 1.427 . S
C4228 H4219 0.930 . S
C4228 C4226 1.378 . S
C4228 C4229 1.367 . S
C4229 C4228 1.367 . S
C4229 C4231 1.433 . S
C4230 C4226 1.350 . S
C4230 C4227 1.463 . S
C4230 N4234 1.427 . S
C4231 H4221 0.929 . S
C4231 C4229 1.433 . S
C4231 N4234 1.384 . S
C4232 H4223 0.929 . S
C4232 C4224 1.378 . S
C4232 C4227 1.350 . S
C4233 H4220 0.929 . S
C4233 C4225 1.433 . S
C4233 N4235 1.384 . S
N4234 C4230 1.427 . S
N4234 C4231 1.384 . S
N4235 C4227 1.427 . S
N4235 C4233 1.384 . S
H4236 C4242 0.930 . S
H4237 C4246 0.930 . S
H4238 C4251 0.929 . S
H4239 C4249 0.929 . S
H4240 C4244 0.929 . S
H4241 C4250 0.929 . S
C4242 H4236 0.930 . S
C4242 C4243 1.367 . S
C4242 C4250 1.378 . S
C4243 C4242 1.367 . S
C4243 C4251 1.433 . S
C4244 H4240 0.929 . S
C4244 C4246 1.378 . S
C4244 C4248 1.350 . S
C4245 C4248 1.463 . S
C4245 C4250 1.350 . S
C4245 N4253 1.427 . S
C4246 H4237 0.930 . S
C4246 C4244 1.378 . S
C4246 C4247 1.367 . S
C4247 C4246 1.367 . S
C4247 C4249 1.433 . S
C4248 C4244 1.350 . S
C4248 C4245 1.463 . S
C4248 N4252 1.427 . S
C4249 H4239 0.929 . S
C4249 C4247 1.433 . S
C4249 N4252 1.384 . S
C4250 H4241 0.929 . S
C4250 C4242 1.378 . S
C4250 C4245 1.350 . S
C4251 H4238 0.929 . S
C4251 C4243 1.433 . S
C4251 N4253 1.384 . S
N4252 C4248 1.427 . S
N4252 C4249 1.384 . S
N4253 C4245 1.427 . S
N4253 C4251 1.384 . S
H4254 C4260 0.930 . S
H4255 C4264 0.930 . S
H4256 C4269 0.929 . S
H4257 C4267 0.929 . S
H4258 C4262 0.929 . S
H4259 C4268 0.929 . S
C4260 H4254 0.930 . S
C4260 C4261 1.367 . S
C4260 C4268 1.378 . S
C4261 C4260 1.367 . S
C4261 C4269 1.433 . S
C4262 H4258 0.929 . S
C4262 C4264 1.378 . S
C4262 C4266 1.350 . S
C4263 C4266 1.463 . S
C4263 C4268 1.350 . S
C4263 N4271 1.427 . S
C4264 H4255 0.930 . S
C4264 C4262 1.378 . S
C4264 C4265 1.367 . S
C4265 C4264 1.367 . S
C4265 C4267 1.433 . S
C4266 C4262 1.350 . S
C4266 C4263 1.463 . S
C4266 N4270 1.427 . S
C4267 H4257 0.929 . S
C4267 C4265 1.433 . S
C4267 N4270 1.384 . S
C4268 H4259 0.929 . S
C4268 C4260 1.378 . S
C4268 C4263 1.350 . S
C4269 H4256 0.929 . S
C4269 C4261 1.433 . S
C4269 N4271 1.384 . S
N4270 C4266 1.427 . S
N4270 C4267 1.384 . S
N4271 C4263 1.427 . S
N4271 C4269 1.384 . S
H4272 C4278 0.930 . S
H4273 C4282 0.930 . S
H4274 C4287 0.929 . S
H4275 C4285 0.929 . S
H4276 C4280 0.929 . S
H4277 C4286 0.929 . S
C4278 H4272 0.930 . S
C4278 C4279 1.367 . S
C4278 C4286 1.378 . S
C4279 C4278 1.367 . S
C4279 C4287 1.433 . S
C4280 H4276 0.929 . S
C4280 C4282 1.378 . S
C4280 C4284 1.350 . S
C4281 C4284 1.463 . S
C4281 C4286 1.350 . S
C4281 N4289 1.427 . S
C4282 H4273 0.930 . S
C4282 C4280 1.378 . S
C4282 C4283 1.367 . S
C4283 C4282 1.367 . S
C4283 C4285 1.433 . S
C4284 C4280 1.350 . S
C4284 C4281 1.463 . S
C4284 N4288 1.427 . S
C4285 H4275 0.929 . S
C4285 C4283 1.433 . S
C4285 N4288 1.384 . S
C4286 H4277 0.929 . S
C4286 C4278 1.378 . S
C4286 C4281 1.350 . S
C4287 H4274 0.929 . S
C4287 C4279 1.433 . S
C4287 N4289 1.384 . S
N4288 C4284 1.427 . S
N4288 C4285 1.384 . S
N4289 C4281 1.427 . S
N4289 C4287 1.384 . S
H4290 C4296 0.930 . S
H4291 C4300 0.930 . S
H4292 C4305 0.929 . S
H4293 C4303 0.929 . S
H4294 C4298 0.929 . S
H4295 C4304 0.929 . S
C4296 H4290 0.930 . S
C4296 C4297 1.367 . S
C4296 C4304 1.378 . S
C4297 C4296 1.367 . S
C4297 C4305 1.433 . S
C4298 H4294 0.929 . S
C4298 C4300 1.378 . S
C4298 C4302 1.350 . S
C4299 C4302 1.463 . S
C4299 C4304 1.350 . S
C4299 N4307 1.427 . S
C4300 H4291 0.930 . S
C4300 C4298 1.378 . S
C4300 C4301 1.367 . S
C4301 C4300 1.367 . S
C4301 C4303 1.433 . S
C4302 C4298 1.350 . S
C4302 C4299 1.463 . S
C4302 N4306 1.427 . S
C4303 H4293 0.929 . S
C4303 C4301 1.433 . S
C4303 N4306 1.384 . S
C4304 H4295 0.929 . S
C4304 C4296 1.378 . S
C4304 C4299 1.350 . S
C4305 H4292 0.929 . S
C4305 C4297 1.433 . S
C4305 N4307 1.384 . S
N4306 C4302 1.427 . S
N4306 C4303 1.384 . S
N4307 C4299 1.427 . S
N4307 C4305 1.384 . S
H4308 C4314 0.930 . S
H4309 C4318 0.930 . S
H4310 C4323 0.929 . S
H4311 C4321 0.929 . S
H4312 C4316 0.929 . S
H4313 C4322 0.929 . S
C4314 H4308 0.930 . S
C4314 C4315 1.367 . S
C4314 C4322 1.378 . S
C4315 C4314 1.367 . S
C4315 C4323 1.433 . S
C4316 H4312 0.929 . S
C4316 C4318 1.378 . S
C4316 C4320 1.350 . S
C4317 C4320 1.463 . S
C4317 C4322 1.350 . S
C4317 N4325 1.427 . S
C4318 H4309 0.930 . S
C4318 C4316 1.378 . S
C4318 C4319 1.367 . S
C4319 C4318 1.367 . S
C4319 C4321 1.433 . S
C4320 C4316 1.350 . S
C4320 C4317 1.463 . S
C4320 N4324 1.427 . S
C4321 H4311 0.929 . S
C4321 C4319 1.433 . S
C4321 N4324 1.384 . S
C4322 H4313 0.929 . S
C4322 C4314 1.378 . S
C4322 C4317 1.350 . S
C4323 H4310 0.929 . S
C4323 C4315 1.433 . S
C4323 N4325 1.384 . S
N4324 C4320 1.427 . S
N4324 C4321 1.384 . S
N4325 C4317 1.427 . S
N4325 C4323 1.384 . S
H4326 C4332 0.930 . S
H4327 C4336 0.930 . S
H4328 C4341 0.929 . S
H4329 C4339 0.929 . S
H4330 C4334 0.929 . S
H4331 C4340 0.929 . S
C4332 H4326 0.930 . S
C4332 C4333 1.367 . S
C4332 C4340 1.378 . S
C4333 C4332 1.367 . S
C4333 C4341 1.433 . S
C4334 H4330 0.929 . S
C4334 C4336 1.378 . S
C4334 C4338 1.350 . S
C4335 C4338 1.463 . S
C4335 C4340 1.350 . S
C4335 N4343 1.427 . S
C4336 H4327 0.930 . S
C4336 C4334 1.378 . S
C4336 C4337 1.367 . S
C4337 C4336 1.367 . S
C4337 C4339 1.433 . S
C4338 C4334 1.350 . S
C4338 C4335 1.463 . S
C4338 N4342 1.427 . S
C4339 H4329 0.929 . S
C4339 C4337 1.433 . S
C4339 N4342 1.384 . S
C4340 H4331 0.929 . S
C4340 C4332 1.378 . S
C4340 C4335 1.350 . S
C4341 H4328 0.929 . S
C4341 C4333 1.433 . S
C4341 N4343 1.384 . S
N4342 C4338 1.427 . S
N4342 C4339 1.384 . S
N4343 C4335 1.427 . S
N4343 C4341 1.384 . S
H4344 C4350 0.930 . S
H4345 C4354 0.930 . S
H4346 C4359 0.929 . S
H4347 C4357 0.929 . S
H4348 C4352 0.929 . S
H4349 C4358 0.929 . S
C4350 H4344 0.930 . S
C4350 C4351 1.367 . S
C4350 C4358 1.378 . S
C4351 C4350 1.367 . S
C4351 C4359 1.433 . S
C4352 H4348 0.929 . S
C4352 C4354 1.378 . S
C4352 C4356 1.350 . S
C4353 C4356 1.463 . S
C4353 C4358 1.350 . S
C4353 N4361 1.427 . S
C4354 H4345 0.930 . S
C4354 C4352 1.378 . S
C4354 C4355 1.367 . S
C4355 C4354 1.367 . S
C4355 C4357 1.433 . S
C4356 C4352 1.350 . S
C4356 C4353 1.463 . S
C4356 N4360 1.427 . S
C4357 H4347 0.929 . S
C4357 C4355 1.433 . S
C4357 N4360 1.384 . S
C4358 H4349 0.929 . S
C4358 C4350 1.378 . S
C4358 C4353 1.350 . S
C4359 H4346 0.929 . S
C4359 C4351 1.433 . S
C4359 N4361 1.384 . S
N4360 C4356 1.427 . S
N4360 C4357 1.384 . S
N4361 C4353 1.427 . S
N4361 C4359 1.384 . S
H4362 C4368 0.930 . S
H4363 C4372 0.930 . S
H4364 C4377 0.929 . S
H4365 C4375 0.929 . S
H4366 C4370 0.929 . S
H4367 C4376 0.929 . S
C4368 H4362 0.930 . S
C4368 C4369 1.367 . S
C4368 C4376 1.378 . S
C4369 C4368 1.367 . S
C4369 C4377 1.433 . S
C4370 H4366 0.929 . S
C4370 C4372 1.378 . S
C4370 C4374 1.350 . S
C4371 C4374 1.463 . S
C4371 C4376 1.350 . S
C4371 N4379 1.427 . S
C4372 H4363 0.930 . S
C4372 C4370 1.378 . S
C4372 C4373 1.367 . S
C4373 C4372 1.367 . S
C4373 C4375 1.433 . S
C4374 C4370 1.350 . S
C4374 C4371 1.463 . S
C4374 N4378 1.427 . S
C4375 H4365 0.929 . S
C4375 C4373 1.433 . S
C4375 N4378 1.384 . S
C4376 H4367 0.929 . S
C4376 C4368 1.378 . S
C4376 C4371 1.350 . S
C4377 H4364 0.929 . S
C4377 C4369 1.433 . S
C4377 N4379 1.384 . S
N4378 C4374 1.427 . S
N4378 C4375 1.384 . S
N4379 C4371 1.427 . S
N4379 C4377 1.384 . S
H4380 C4386 0.930 . S
H4381 C4390 0.930 . S
H4382 C4395 0.929 . S
H4383 C4393 0.929 . S
H4384 C4388 0.929 . S
H4385 C4394 0.929 . S
C4386 H4380 0.930 . S
C4386 C4387 1.367 . S
C4386 C4394 1.378 . S
C4387 C4386 1.367 . S
C4387 C4395 1.433 . S
C4388 H4384 0.929 . S
C4388 C4390 1.378 . S
C4388 C4392 1.350 . S
C4389 C4392 1.463 . S
C4389 C4394 1.350 . S
C4389 N4397 1.427 . S
C4390 H4381 0.930 . S
C4390 C4388 1.378 . S
C4390 C4391 1.367 . S
C4391 C4390 1.367 . S
C4391 C4393 1.433 . S
C4392 C4388 1.350 . S
C4392 C4389 1.463 . S
C4392 N4396 1.427 . S
C4393 H4383 0.929 . S
C4393 C4391 1.433 . S
C4393 N4396 1.384 . S
C4394 H4385 0.929 . S
C4394 C4386 1.378 . S
C4394 C4389 1.350 . S
C4395 H4382 0.929 . S
C4395 C4387 1.433 . S
C4395 N4397 1.384 . S
N4396 C4392 1.427 . S
N4396 C4393 1.384 . S
N4397 C4389 1.427 . S
N4397 C4395 1.384 . S
H4398 C4404 0.930 . S
H4399 C4408 0.930 . S
H4400 C4413 0.929 . S
H4401 C4411 0.929 . S
H4402 C4406 0.929 . S
H4403 C4412 0.929 . S
C4404 H4398 0.930 . S
C4404 C4405 1.367 . S
C4404 C4412 1.378 . S
C4405 C4404 1.367 . S
C4405 C4413 1.433 . S
C4406 H4402 0.929 . S
C4406 C4408 1.378 . S
C4406 C4410 1.350 . S
C4407 C4410 1.463 . S
C4407 C4412 1.350 . S
C4407 N4415 1.427 . S
C4408 H4399 0.930 . S
C4408 C4406 1.378 . S
C4408 C4409 1.367 . S
C4409 C4408 1.367 . S
C4409 C4411 1.433 . S
C4410 C4406 1.350 . S
C4410 C4407 1.463 . S
C4410 N4414 1.427 . S
C4411 H4401 0.929 . S
C4411 C4409 1.433 . S
C4411 N4414 1.384 . S
C4412 H4403 0.929 . S
C4412 C4404 1.378 . S
C4412 C4407 1.350 . S
C4413 H4400 0.929 . S
C4413 C4405 1.433 . S
C4413 N4415 1.384 . S
N4414 C4410 1.427 . S
N4414 C4411 1.384 . S
N4415 C4407 1.427 . S
N4415 C4413 1.384 . S
H4416 C4422 0.930 . S
H4417 C4426 0.930 . S
H4418 C4431 0.929 . S
H4419 C4429 0.929 . S
H4420 C4424 0.929 . S
H4421 C4430 0.929 . S
C4422 H4416 0.930 . S
C4422 C4423 1.367 . S
C4422 C4430 1.378 . S
C4423 C4422 1.367 . S
C4423 C4431 1.433 . S
C4424 H4420 0.929 . S
C4424 C4426 1.378 . S
C4424 C4428 1.350 . S
C4425 C4428 1.463 . S
C4425 C4430 1.350 . S
C4425 N4433 1.427 . S
C4426 H4417 0.930 . S
C4426 C4424 1.378 . S
C4426 C4427 1.367 . S
C4427 C4426 1.367 . S
C4427 C4429 1.433 . S
C4428 C4424 1.350 . S
C4428 C4425 1.463 . S
C4428 N4432 1.427 . S
C4429 H4419 0.929 . S
C4429 C4427 1.433 . S
C4429 N4432 1.384 . S
C4430 H4421 0.929 . S
C4430 C4422 1.378 . S
C4430 C4425 1.350 . S
C4431 H4418 0.929 . S
C4431 C4423 1.433 . S
C4431 N4433 1.384 . S
N4432 C4428 1.427 . S
N4432 C4429 1.384 . S
N4433 C4425 1.427 . S
N4433 C4431 1.384 . S
H4434 C4440 0.930 . S
H4435 C4444 0.930 . S
H4436 C4449 0.929 . S
H4437 C4447 0.929 . S
H4438 C4442 0.929 . S
H4439 C4448 0.929 . S
C4440 H4434 0.930 . S
C4440 C4441 1.367 . S
C4440 C4448 1.378 . S
C4441 C4440 1.367 . S
C4441 C4449 1.433 . S
C4442 H4438 0.929 . S
C4442 C4444 1.378 . S
C4442 C4446 1.350 . S
C4443 C4446 1.463 . S
C4443 C4448 1.350 . S
C4443 N4451 1.427 . S
C4444 H4435 0.930 . S
C4444 C4442 1.378 . S
C4444 C4445 1.367 . S
C4445 C4444 1.367 . S
C4445 C4447 1.433 . S
C4446 C4442 1.350 . S
C4446 C4443 1.463 . S
C4446 N4450 1.427 . S
C4447 H4437 0.929 . S
C4447 C4445 1.433 . S
C4447 N4450 1.384 . S
C4448 H4439 0.929 . S
C4448 C4440 1.378 . S
C4448 C4443 1.350 . S
C4449 H4436 0.929 . S
C4449 C4441 1.433 . S
C4449 N4451 1.384 . S
N4450 C4446 1.427 . S
N4450 C4447 1.384 . S
N4451 C4443 1.427 . S
N4451 C4449 1.384 . S
H4452 C4458 0.930 . S
H4453 C4462 0.930 . S
H4454 C4467 0.929 . S
H4455 C4465 0.929 . S
H4456 C4460 0.929 . S
H4457 C4466 0.929 . S
C4458 H4452 0.930 . S
C4458 C4459 1.367 . S
C4458 C4466 1.378 . S
C4459 C4458 1.367 . S
C4459 C4467 1.433 . S
C4460 H4456 0.929 . S
C4460 C4462 1.378 . S
C4460 C4464 1.350 . S
C4461 C4464 1.463 . S
C4461 C4466 1.350 . S
C4461 N4469 1.427 . S
C4462 H4453 0.930 . S
C4462 C4460 1.378 . S
C4462 C4463 1.367 . S
C4463 C4462 1.367 . S
C4463 C4465 1.433 . S
C4464 C4460 1.350 . S
C4464 C4461 1.463 . S
C4464 N4468 1.427 . S
C4465 H4455 0.929 . S
C4465 C4463 1.433 . S
C4465 N4468 1.384 . S
C4466 H4457 0.929 . S
C4466 C4458 1.378 . S
C4466 C4461 1.350 . S
C4467 H4454 0.929 . S
C4467 C4459 1.433 . S
C4467 N4469 1.384 . S
N4468 C4464 1.427 . S
N4468 C4465 1.384 . S
N4469 C4461 1.427 . S
N4469 C4467 1.384 . S
H4470 C4476 0.930 . S
H4471 C4480 0.930 . S
H4472 C4485 0.929 . S
H4473 C4483 0.929 . S
H4474 C4478 0.929 . S
H4475 C4484 0.929 . S
C4476 H4470 0.930 . S
C4476 C4477 1.367 . S
C4476 C4484 1.378 . S
C4477 C4476 1.367 . S
C4477 C4485 1.433 . S
C4478 H4474 0.929 . S
C4478 C4480 1.378 . S
C4478 C4482 1.350 . S
C4479 C4482 1.463 . S
C4479 C4484 1.350 . S
C4479 N4487 1.427 . S
C4480 H4471 0.930 . S
C4480 C4478 1.378 . S
C4480 C4481 1.367 . S
C4481 C4480 1.367 . S
C4481 C4483 1.433 . S
C4482 C4478 1.350 . S
C4482 C4479 1.463 . S
C4482 N4486 1.427 . S
C4483 H4473 0.929 . S
C4483 C4481 1.433 . S
C4483 N4486 1.384 . S
C4484 H4475 0.929 . S
C4484 C4476 1.378 . S
C4484 C4479 1.350 . S
C4485 H4472 0.929 . S
C4485 C4477 1.433 . S
C4485 N4487 1.384 . S
N4486 C4482 1.427 . S
N4486 C4483 1.384 . S
N4487 C4479 1.427 . S
N4487 C4485 1.384 . S
H4488 C4494 0.930 . S
H4489 C4498 0.930 . S
H4490 C4503 0.929 . S
H4491 C4501 0.929 . S
H4492 C4496 0.929 . S
H4493 C4502 0.929 . S
C4494 H4488 0.930 . S
C4494 C4495 1.367 . S
C4494 C4502 1.378 . S
C4495 C4494 1.367 . S
C4495 C4503 1.433 . S
C4496 H4492 0.929 . S
C4496 C4498 1.378 . S
C4496 C4500 1.350 . S
C4497 C4500 1.463 . S
C4497 C4502 1.350 . S
C4497 N4505 1.427 . S
C4498 H4489 0.930 . S
C4498 C4496 1.378 . S
C4498 C4499 1.367 . S
C4499 C4498 1.367 . S
C4499 C4501 1.433 . S
C4500 C4496 1.350 . S
C4500 C4497 1.463 . S
C4500 N4504 1.427 . S
C4501 H4491 0.929 . S
C4501 C4499 1.433 . S
C4501 N4504 1.384 . S
C4502 H4493 0.929 . S
C4502 C4494 1.378 . S
C4502 C4497 1.350 . S
C4503 H4490 0.929 . S
C4503 C4495 1.433 . S
C4503 N4505 1.384 . S
N4504 C4500 1.427 . S
N4504 C4501 1.384 . S
N4505 C4497 1.427 . S
N4505 C4503 1.384 . S
H4506 C4512 0.930 . S
H4507 C4516 0.930 . S
H4508 C4521 0.929 . S
H4509 C4519 0.929 . S
H4510 C4514 0.929 . S
H4511 C4520 0.929 . S
C4512 H4506 0.930 . S
C4512 C4513 1.367 . S
C4512 C4520 1.378 . S
C4513 C4512 1.367 . S
C4513 C4521 1.433 . S
C4514 H4510 0.929 . S
C4514 C4516 1.378 . S
C4514 C4518 1.350 . S
C4515 C4518 1.463 . S
C4515 C4520 1.350 . S
C4515 N4523 1.427 . S
C4516 H4507 0.930 . S
C4516 C4514 1.378 . S
C4516 C4517 1.367 . S
C4517 C4516 1.367 . S
C4517 C4519 1.433 . S
C4518 C4514 1.350 . S
C4518 C4515 1.463 . S
C4518 N4522 1.427 . S
C4519 H4509 0.929 . S
C4519 C4517 1.433 . S
C4519 N4522 1.384 . S
C4520 H4511 0.929 . S
C4520 C4512 1.378 . S
C4520 C4515 1.350 . S
C4521 H4508 0.929 . S
C4521 C4513 1.433 . S
C4521 N4523 1.384 . S
N4522 C4518 1.427 . S
N4522 C4519 1.384 . S
N4523 C4515 1.427 . S
N4523 C4521 1.384 . S
H4524 C4530 0.930 . S
H4525 C4534 0.930 . S
H4526 C4539 0.929 . S
H4527 C4537 0.929 . S
H4528 C4532 0.929 . S
H4529 C4538 0.929 . S
C4530 H4524 0.930 . S
C4530 C4531 1.367 . S
C4530 C4538 1.378 . S
C4531 C4530 1.367 . S
C4531 C4539 1.433 . S
C4532 H4528 0.929 . S
C4532 C4534 1.378 . S
C4532 C4536 1.350 . S
C4533 C4536 1.463 . S
C4533 C4538 1.350 . S
C4533 N4541 1.427 . S
C4534 H4525 0.930 . S
C4534 C4532 1.378 . S
C4534 C4535 1.367 . S
C4535 C4534 1.367 . S
C4535 C4537 1.433 . S
C4536 C4532 1.350 . S
C4536 C4533 1.463 . S
C4536 N4540 1.427 . S
C4537 H4527 0.929 . S
C4537 C4535 1.433 . S
C4537 N4540 1.384 . S
C4538 H4529 0.929 . S
C4538 C4530 1.378 . S
C4538 C4533 1.350 . S
C4539 H4526 0.929 . S
C4539 C4531 1.433 . S
C4539 N4541 1.384 . S
N4540 C4536 1.427 . S
N4540 C4537 1.384 . S
N4541 C4533 1.427 . S
N4541 C4539 1.384 . S
H4542 C4548 0.930 . S
H4543 C4552 0.930 . S
H4544 C4557 0.929 . S
H4545 C4555 0.929 . S
H4546 C4550 0.929 . S
H4547 C4556 0.929 . S
C4548 H4542 0.930 . S
C4548 C4549 1.367 . S
C4548 C4556 1.378 . S
C4549 C4548 1.367 . S
C4549 C4557 1.433 . S
C4550 H4546 0.929 . S
C4550 C4552 1.378 . S
C4550 C4554 1.350 . S
C4551 C4554 1.463 . S
C4551 C4556 1.350 . S
C4551 N4559 1.427 . S
C4552 H4543 0.930 . S
C4552 C4550 1.378 . S
C4552 C4553 1.367 . S
C4553 C4552 1.367 . S
C4553 C4555 1.433 . S
C4554 C4550 1.350 . S
C4554 C4551 1.463 . S
C4554 N4558 1.427 . S
C4555 H4545 0.929 . S
C4555 C4553 1.433 . S
C4555 N4558 1.384 . S
C4556 H4547 0.929 . S
C4556 C4548 1.378 . S
C4556 C4551 1.350 . S
C4557 H4544 0.929 . S
C4557 C4549 1.433 . S
C4557 N4559 1.384 . S
N4558 C4554 1.427 . S
N4558 C4555 1.384 . S
N4559 C4551 1.427 . S
N4559 C4557 1.384 . S
H4560 C4566 0.930 . S
H4561 C4570 0.930 . S
H4562 C4575 0.929 . S
H4563 C4573 0.929 . S
H4564 C4568 0.929 . S
H4565 C4574 0.929 . S
C4566 H4560 0.930 . S
C4566 C4567 1.367 . S
C4566 C4574 1.378 . S
C4567 C4566 1.367 . S
C4567 C4575 1.433 . S
C4568 H4564 0.929 . S
C4568 C4570 1.378 . S
C4568 C4572 1.350 . S
C4569 C4572 1.463 . S
C4569 C4574 1.350 . S
C4569 N4577 1.427 . S
C4570 H4561 0.930 . S
C4570 C4568 1.378 . S
C4570 C4571 1.367 . S
C4571 C4570 1.367 . S
C4571 C4573 1.433 . S
C4572 C4568 1.350 . S
C4572 C4569 1.463 . S
C4572 N4576 1.427 . S
C4573 H4563 0.929 . S
C4573 C4571 1.433 . S
C4573 N4576 1.384 . S
C4574 H4565 0.929 . S
C4574 C4566 1.378 . S
C4574 C4569 1.350 . S
C4575 H4562 0.929 . S
C4575 C4567 1.433 . S
C4575 N4577 1.384 . S
N4576 C4572 1.427 . S
N4576 C4573 1.384 . S
N4577 C4569 1.427 . S
N4577 C4575 1.384 . S
H4578 C4584 0.930 . S
H4579 C4588 0.930 . S
H4580 C4593 0.929 . S
H4581 C4591 0.929 . S
H4582 C4586 0.929 . S
H4583 C4592 0.929 . S
C4584 H4578 0.930 . S
C4584 C4585 1.367 . S
C4584 C4592 1.378 . S
C4585 C4584 1.367 . S
C4585 C4593 1.433 . S
C4586 H4582 0.929 . S
C4586 C4588 1.378 . S
C4586 C4590 1.350 . S
C4587 C4590 1.463 . S
C4587 C4592 1.350 . S
C4587 N4595 1.427 . S
C4588 H4579 0.930 . S
C4588 C4586 1.378 . S
C4588 C4589 1.367 . S
C4589 C4588 1.367 . S
C4589 C4591 1.433 . S
C4590 C4586 1.350 . S
C4590 C4587 1.463 . S
C4590 N4594 1.427 . S
C4591 H4581 0.929 . S
C4591 C4589 1.433 . S
C4591 N4594 1.384 . S
C4592 H4583 0.929 . S
C4592 C4584 1.378 . S
C4592 C4587 1.350 . S
C4593 H4580 0.929 . S
C4593 C4585 1.433 . S
C4593 N4595 1.384 . S
N4594 C4590 1.427 . S
N4594 C4591 1.384 . S
N4595 C4587 1.427 . S
N4595 C4593 1.384 . S
H4596 C4602 0.930 . S
H4597 C4606 0.930 . S
H4598 C4611 0.929 . S
H4599 C4609 0.929 . S
H4600 C4604 0.929 . S
H4601 C4610 0.929 . S
C4602 H4596 0.930 . S
C4602 C4603 1.367 . S
C4602 C4610 1.378 . S
C4603 C4602 1.367 . S
C4603 C4611 1.433 . S
C4604 H4600 0.929 . S
C4604 C4606 1.378 . S
C4604 C4608 1.350 . S
C4605 C4608 1.463 . S
C4605 C4610 1.350 . S
C4605 N4613 1.427 . S
C4606 H4597 0.930 . S
C4606 C4604 1.378 . S
C4606 C4607 1.367 . S
C4607 C4606 1.367 . S
C4607 C4609 1.433 . S
C4608 C4604 1.350 . S
C4608 C4605 1.463 . S
C4608 N4612 1.427 . S
C4609 H4599 0.929 . S
C4609 C4607 1.433 . S
C4609 N4612 1.384 . S
C4610 H4601 0.929 . S
C4610 C4602 1.378 . S
C4610 C4605 1.350 . S
C4611 H4598 0.929 . S
C4611 C4603 1.433 . S
C4611 N4613 1.384 . S
N4612 C4608 1.427 . S
N4612 C4609 1.384 . S
N4613 C4605 1.427 . S
N4613 C4611 1.384 . S
H4614 C4620 0.930 . S
H4615 C4624 0.930 . S
H4616 C4629 0.929 . S
H4617 C4627 0.929 . S
H4618 C4622 0.929 . S
H4619 C4628 0.929 . S
C4620 H4614 0.930 . S
C4620 C4621 1.367 . S
C4620 C4628 1.378 . S
C4621 C4620 1.367 . S
C4621 C4629 1.433 . S
C4622 H4618 0.929 . S
C4622 C4624 1.378 . S
C4622 C4626 1.350 . S
C4623 C4626 1.463 . S
C4623 C4628 1.350 . S
C4623 N4631 1.427 . S
C4624 H4615 0.930 . S
C4624 C4622 1.378 . S
C4624 C4625 1.367 . S
C4625 C4624 1.367 . S
C4625 C4627 1.433 . S
C4626 C4622 1.350 . S
C4626 C4623 1.463 . S
C4626 N4630 1.427 . S
C4627 H4617 0.929 . S
C4627 C4625 1.433 . S
C4627 N4630 1.384 . S
C4628 H4619 0.929 . S
C4628 C4620 1.378 . S
C4628 C4623 1.350 . S
C4629 H4616 0.929 . S
C4629 C4621 1.433 . S
C4629 N4631 1.384 . S
N4630 C4626 1.427 . S
N4630 C4627 1.384 . S
N4631 C4623 1.427 . S
N4631 C4629 1.384 . S
H4632 C4638 0.930 . S
H4633 C4642 0.930 . S
H4634 C4647 0.929 . S
H4635 C4645 0.929 . S
H4636 C4640 0.929 . S
H4637 C4646 0.929 . S
C4638 H4632 0.930 . S
C4638 C4639 1.367 . S
C4638 C4646 1.378 . S
C4639 C4638 1.367 . S
C4639 C4647 1.433 . S
C4640 H4636 0.929 . S
C4640 C4642 1.378 . S
C4640 C4644 1.350 . S
C4641 C4644 1.463 . S
C4641 C4646 1.350 . S
C4641 N4649 1.427 . S
C4642 H4633 0.930 . S
C4642 C4640 1.378 . S
C4642 C4643 1.367 . S
C4643 C4642 1.367 . S
C4643 C4645 1.433 . S
C4644 C4640 1.350 . S
C4644 C4641 1.463 . S
C4644 N4648 1.427 . S
C4645 H4635 0.929 . S
C4645 C4643 1.433 . S
C4645 N4648 1.384 . S
C4646 H4637 0.929 . S
C4646 C4638 1.378 . S
C4646 C4641 1.350 . S
C4647 H4634 0.929 . S
C4647 C4639 1.433 . S
C4647 N4649 1.384 . S
N4648 C4644 1.427 . S
N4648 C4645 1.384 . S
N4649 C4641 1.427 . S
N4649 C4647 1.384 . S
H4650 C4656 0.930 . S
H4651 C4660 0.930 . S
H4652 C4665 0.929 . S
H4653 C4663 0.929 . S
H4654 C4658 0.929 . S
H4655 C4664 0.929 . S
C4656 H4650 0.930 . S
C4656 C4657 1.367 . S
C4656 C4664 1.378 . S
C4657 C4656 1.367 . S
C4657 C4665 1.433 . S
C4658 H4654 0.929 . S
C4658 C4660 1.378 . S
C4658 C4662 1.350 . S
C4659 C4662 1.463 . S
C4659 C4664 1.350 . S
C4659 N4667 1.427 . S
C4660 H4651 0.930 . S
C4660 C4658 1.378 . S
C4660 C4661 1.367 . S
C4661 C4660 1.367 . S
C4661 C4663 1.433 . S
C4662 C4658 1.350 . S
C4662 C4659 1.463 . S
C4662 N4666 1.427 . S
C4663 H4653 0.929 . S
C4663 C4661 1.433 . S
C4663 N4666 1.384 . S
C4664 H4655 0.929 . S
C4664 C4656 1.378 . S
C4664 C4659 1.350 . S
C4665 H4652 0.929 . S
C4665 C4657 1.433 . S
C4665 N4667 1.384 . S
N4666 C4662 1.427 . S
N4666 C4663 1.384 . S
N4667 C4659 1.427 . S
N4667 C4665 1.384 . S
H4668 C4674 0.930 . S
H4669 C4678 0.930 . S
H4670 C4683 0.929 . S
H4671 C4681 0.929 . S
H4672 C4676 0.929 . S
H4673 C4682 0.929 . S
C4674 H4668 0.930 . S
C4674 C4675 1.367 . S
C4674 C4682 1.378 . S
C4675 C4674 1.367 . S
C4675 C4683 1.433 . S
C4676 H4672 0.929 . S
C4676 C4678 1.378 . S
C4676 C4680 1.350 . S
C4677 C4680 1.463 . S
C4677 C4682 1.350 . S
C4677 N4685 1.427 . S
C4678 H4669 0.930 . S
C4678 C4676 1.378 . S
C4678 C4679 1.367 . S
C4679 C4678 1.367 . S
C4679 C4681 1.433 . S
C4680 C4676 1.350 . S
C4680 C4677 1.463 . S
C4680 N4684 1.427 . S
C4681 H4671 0.929 . S
C4681 C4679 1.433 . S
C4681 N4684 1.384 . S
C4682 H4673 0.929 . S
C4682 C4674 1.378 . S
C4682 C4677 1.350 . S
C4683 H4670 0.929 . S
C4683 C4675 1.433 . S
C4683 N4685 1.384 . S
N4684 C4680 1.427 . S
N4684 C4681 1.384 . S
N4685 C4677 1.427 . S
N4685 C4683 1.384 . S
H4686 C4692 0.930 . S
H4687 C4696 0.930 . S
H4688 C4701 0.929 . S
H4689 C4699 0.929 . S
H4690 C4694 0.929 . S
H4691 C4700 0.929 . S
C4692 H4686 0.930 . S
C4692 C4693 1.367 . S
C4692 C4700 1.378 . S
C4693 C4692 1.367 . S
C4693 C4701 1.433 . S
C4694 H4690 0.929 . S
C4694 C4696 1.378 . S
C4694 C4698 1.350 . S
C4695 C4698 1.463 . S
C4695 C4700 1.350 . S
C4695 N4703 1.427 . S
C4696 H4687 0.930 . S
C4696 C4694 1.378 . S
C4696 C4697 1.367 . S
C4697 C4696 1.367 . S
C4697 C4699 1.433 . S
C4698 C4694 1.350 . S
C4698 C4695 1.463 . S
C4698 N4702 1.427 . S
C4699 H4689 0.929 . S
C4699 C4697 1.433 . S
C4699 N4702 1.384 . S
C4700 H4691 0.929 . S
C4700 C4692 1.378 . S
C4700 C4695 1.350 . S
C4701 H4688 0.929 . S
C4701 C4693 1.433 . S
C4701 N4703 1.384 . S
N4702 C4698 1.427 . S
N4702 C4699 1.384 . S
N4703 C4695 1.427 . S
N4703 C4701 1.384 . S
C1255 C1 2.072 . S
C1259 C391 2.075 . S
C1273 C716 2.071 . S
C1277 C14 2.075 . S
C1291 C27 2.074 . S
C1295 C365 2.069 . S
C1309 C40 2.073 . S
C1313 C690 2.074 . S
C1327 C339 2.073 . S
C1331 C53 2.074 . S
C1345 C66 2.075 . S
C1349 C664 2.071 . S
C1363 C313 2.070 . S
C1367 C79 2.075 . S
C1381 C92 2.070 . S
C1385 C638 2.075 . S
C1399 C443 2.073 . S
C1403 C105 2.069 . S
C1417 C118 2.071 . S
C1421 C768 2.069 . S
C1435 C131 2.070 . S
C1439 C417 2.075 . S
C1453 C144 2.072 . S
C1457 C742 2.075 . S
C1471 C157 2.069 . S
C1475 C495 2.073 . S
C1489 C820 2.074 . S
C1493 C170 2.069 . S
C1507 C469 2.074 . S
C1511 C183 2.074 . S
C1525 C196 2.073 . S
C1529 C794 2.069 . S
C1543 C846 2.074 . S
C1547 C209 2.073 . S
C1561 C833 2.073 . S
C1565 C222 2.069 . S
C1579 C235 2.070 . S
C1583 C924 2.075 . S
C1597 C1210 2.075 . S
C1601 C248 2.072 . S
C1615 C599 2.075 . S
C1619 C261 2.070 . S
C1633 C274 2.075 . S
C1637 C1184 2.071 . S
C1651 C287 2.069 . S
C1655 C573 2.075 . S
C1669 C300 2.071 . S
C1673 C859 2.075 . S
C1687 C326 2.074 . S
C1691 C1028 2.074 . S
C1705 C352 2.074 . S
C1709 C1002 2.073 . S
C1723 C378 2.069 . S
C1727 C976 2.073 . S
C1741 C404 2.069 . S
C1745 C950 2.075 . S
C1759 C1080 2.071 . S
C1763 C430 2.075 . S
C1777 C456 2.075 . S
C1781 C1054 2.071 . S
C1795 C1132 2.070 . S
C1799 C482 2.075 . S
C1813 C508 2.071 . S
C1817 C1106 2.070 . S
C1831 C521 2.075 . S
C1835 C1158 2.070 . S
C1849 C534 2.070 . S
C1853 C1145 2.071 . S
C1867 C547 2.069 . S
C1871 C1236 2.074 . S
C1885 C898 2.075 . S
C1889 C560 2.069 . S
C1903 C872 2.069 . S
C1907 C586 2.072 . S
C1921 C612 2.075 . S
C1925 C1171 2.073 . S
C1939 C625 2.072 . S
C1943 C1015 2.075 . S
C1957 C989 2.070 . S
C1961 C651 2.075 . S
C1975 C677 2.075 . S
C1979 C963 2.070 . S
C1993 C703 2.069 . S
C1997 C937 2.075 . S
C2011 C1067 2.071 . S
C2015 C729 2.075 . S
C2029 C1041 2.075 . S
C2033 C755 2.069 . S
C2047 C781 2.074 . S
C2051 C1119 2.069 . S
C2065 C1093 2.071 . S
C2069 C807 2.069 . S
C2083 C885 2.073 . S
C2087 C1223 2.069 . S
C2101 C911 2.070 . S
C2105 C1197 2.075 . S
C2119 C5 1.485 . S
C2123 C720 1.478 . S
C2137 C18 1.480 . S
C2141 C369 1.488 . S
C2155 C31 1.486 . S
C2159 C694 1.478 . S
C2173 C395 1.487 . S
C2177 C44 1.478 . S
C2191 C57 1.480 . S
C2195 C330 1.482 . S
C2209 C70 1.484 . S
C2213 C655 1.486 . S
C2227 C83 1.483 . S
C2231 C356 1.487 . S
C2245 C629 1.480 . S
C2249 C96 1.483 . S
C2263 C109 1.488 . S
C2267 C265 1.481 . S
C2281 C122 1.487 . S
C2285 C1162 1.478 . S
C2299 C1175 1.483 . S
C2303 C135 1.487 . S
C2317 C148 1.484 . S
C2321 C1188 1.486 . S
C2335 C928 1.481 . S
C2339 C161 1.488 . S
C2353 C1214 1.479 . S
C2357 C174 1.488 . S
C2371 C187 1.480 . S
C2375 C915 1.488 . S
C2389 C837 1.485 . S
C2393 C200 1.486 . S
C2407 C824 1.488 . S
C2411 C213 1.478 . S
C2425 C1058 1.478 . S
C2429 C226 1.487 . S
C2443 C239 1.488 . S
C2447 C1071 1.482 . S
C2461 C252 1.485 . S
C2465 C1084 1.485 . S
C2479 C278 1.480 . S
C2483 C1110 1.483 . S
C2497 C291 1.478 . S
C2501 C811 1.485 . S
C2515 C785 1.488 . S
C2519 C304 1.479 . S
C2533 C317 1.486 . S
C2537 C1032 1.478 . S
C2551 C1006 1.487 . S
C2555 C343 1.484 . S
C2569 C967 1.479 . S
C2573 C382 1.484 . S
C2587 C408 1.483 . S
C2591 C941 1.479 . S
C2605 C421 1.481 . S
C2609 C577 1.488 . S
C2623 C434 1.486 . S
C2627 C850 1.484 . S
C2641 C447 1.486 . S
C2645 C863 1.478 . S
C2659 C460 1.481 . S
C2663 C876 1.488 . S
C2677 C473 1.486 . S
C2681 C1240 1.478 . S
C2695 C902 1.488 . S
C2699 C486 1.479 . S
C2713 C1227 1.478 . S
C2717 C499 1.486 . S
C2731 C1149 1.485 . S
C2735 C512 1.485 . S
C2749 C1136 1.486 . S
C2753 C525 1.484 . S
C2767 C538 1.479 . S
C2771 C746 1.484 . S
C2785 C551 1.488 . S
C2789 C759 1.481 . S
C2803 C564 1.483 . S
C2807 C772 1.480 . S
C2821 C798 1.479 . S
C2825 C590 1.488 . S
C2839 C1123 1.481 . S
C2843 C603 1.488 . S
C2857 C1097 1.486 . S
C2861 C616 1.485 . S
C2875 C642 1.479 . S
C2879 C993 1.483 . S
C2893 C668 1.478 . S
C2897 C1019 1.487 . S
C2911 C954 1.484 . S
C2915 C681 1.486 . S
C2929 C980 1.479 . S
C2933 C707 1.483 . S
C2947 C889 1.478 . S
C2951 C733 1.486 . S
C2965 C1201 1.479 . S
C2969 C1045 1.488 . S
C2983 C10 1.686 . S
C2987 C1212 1.704 . S
C3001 C23 1.684 . S
C3005 C913 1.703 . S
C3019 C835 1.702 . S
C3023 C36 1.683 . S
C3037 C926 1.698 . S
C3041 C49 1.685 . S
C3055 C62 1.689 . S
C3059 C250 1.702 . S
C3073 C75 1.690 . S
C3077 C1199 1.706 . S
C3091 C224 1.702 . S
C3095 C88 1.689 . S
C3109 C237 1.700 . S
C3113 C101 1.680 . S
C3127 C367 1.706 . S
C3131 C114 1.690 . S
C3145 C127 1.691 . S
C3149 C692 1.706 . S
C3163 C140 1.682 . S
C3167 C393 1.696 . S
C3181 C153 1.678 . S
C3185 C718 1.694 . S
C3199 C315 1.695 . S
C3203 C166 1.681 . S
C3217 C179 1.684 . S
C3221 C640 1.697 . S
C3235 C341 1.706 . S
C3239 C192 1.689 . S
C3253 C205 1.683 . S
C3257 C666 1.702 . S
C3271 C218 1.680 . S
C3275 C1121 1.694 . S
C3289 C445 1.705 . S
C3293 C231 1.691 . S
C3307 C244 1.682 . S
C3311 C770 1.702 . S
C3325 C419 1.701 . S
C3329 C257 1.682 . S
C3343 C270 1.689 . S
C3347 C432 1.701 . S
C3361 C783 1.702 . S
C3365 C283 1.683 . S
C3379 C172 1.694 . S
C3383 C296 1.677 . S
C3397 C198 1.694 . S
C3401 C309 1.677 . S
C3415 C900 1.698 . S
C3419 C322 1.679 . S
C3433 C335 1.691 . S
C3437 C1225 1.705 . S
C3451 C1147 1.705 . S
C3455 C348 1.687 . S
C3469 C361 1.678 . S
C3473 C1238 1.696 . S
C3487 C562 1.698 . S
C3491 C374 1.679 . S
C3505 C887 1.699 . S
C3509 C387 1.686 . S
C3523 C400 1.691 . S
C3527 C536 1.705 . S
C3541 C413 1.690 . S
C3545 C549 1.703 . S
C3559 C426 1.681 . S
C3563 C55 1.695 . S
C3577 C439 1.690 . S
C3581 C1004 1.703 . S
C3595 C81 1.706 . S
C3599 C452 1.690 . S
C3613 C465 1.678 . S
C3617 C1030 1.694 . S
C3631 C3 1.706 . S
C3635 C478 1.691 . S
C3649 C491 1.689 . S
C3653 C952 1.706 . S
C3667 C29 1.706 . S
C3671 C504 1.690 . S
C3685 C978 1.698 . S
C3689 C517 1.685 . S
C3703 C530 1.685 . S
C3707 C809 1.703 . S
C3721 C543 1.677 . S
C3725 C133 1.695 . S
C3739 C1082 1.706 . S
C3743 C556 1.691 . S
C3757 C569 1.677 . S
C3761 C107 1.694 . S
C3775 C120 1.706 . S
C3779 C582 1.691 . S
C3793 C595 1.686 . S
C3797 C1095 1.704 . S
C3811 C484 1.694 . S
C3815 C608 1.677 . S
C3829 C621 1.691 . S
C3833 C510 1.706 . S
C3847 C588 1.706 . S
C3851 C634 1.691 . S
C3865 C647 1.689 . S
C3869 C289 1.702 . S
C3883 C660 1.690 . S
C3887 C211 1.706 . S
C3901 C673 1.689 . S
C3905 C302 1.702 . S
C3919 C686 1.677 . S
C3923 C874 1.696 . S
C3937 C575 1.705 . S
C3941 C699 1.691 . S
C3955 C848 1.703 . S
C3959 C712 1.684 . S
C3973 C725 1.680 . S
C3977 C861 1.699 . S
C3991 C991 1.697 . S
C3995 C738 1.678 . S
C4009 C68 1.701 . S
C4013 C751 1.681 . S
C4027 C1017 1.704 . S
C4031 C764 1.691 . S
C4045 C777 1.684 . S
C4049 C94 1.697 . S
C4063 C939 1.706 . S
C4067 C790 1.689 . S
C4081 C803 1.680 . S
C4085 C16 1.700 . S
C4099 C965 1.706 . S
C4103 C816 1.691 . S
C4117 C42 1.705 . S
C4121 C829 1.687 . S
C4135 C497 1.698 . S
C4139 C842 1.685 . S
C4153 C855 1.680 . S
C4157 C1069 1.699 . S
C4171 C868 1.686 . S
C4175 C146 1.704 . S
C4189 C1043 1.696 . S
C4193 C881 1.678 . S
C4207 C894 1.687 . S
C4211 C1056 1.699 . S
C4225 C159 1.700 . S
C4229 C907 1.688 . S
C4243 C796 1.700 . S
C4247 C920 1.680 . S
C4261 C933 1.686 . S
C4265 C822 1.705 . S
C4279 C946 1.681 . S
C4283 C276 1.700 . S
C4297 C601 1.697 . S
C4301 C959 1.678 . S
C4315 C523 1.700 . S
C4319 C972 1.687 . S
C4333 C985 1.689 . S
C4337 C614 1.706 . S
C4351 C998 1.686 . S
C4355 C1186 1.699 . S
C4369 C263 1.702 . S
C4373 C1011 1.683 . S
C4387 C1160 1.699 . S
C4391 C1024 1.686 . S
C4405 C1173 1.698 . S
C4409 C1037 1.686 . S
C4423 C679 1.706 . S
C4427 C1050 1.689 . S
C4441 C1063 1.677 . S
C4445 C380 1.696 . S
C4459 C1076 1.682 . S
C4463 C705 1.696 . S
C4477 C1089 1.691 . S
C4481 C406 1.706 . S
C4495 C627 1.706 . S
C4499 C1102 1.691 . S
C4513 C1115 1.677 . S
C4517 C328 1.695 . S
C4531 C1128 1.691 . S
C4535 C653 1.706 . S
C4549 C1141 1.691 . S
C4553 C354 1.705 . S
C4567 C185 1.697 . S
C4571 C1154 1.684 . S
C4585 C1167 1.680 . S
C4589 C757 1.700 . S
C4603 C1180 1.680 . S
C4607 C458 1.699 . S
C4621 C1193 1.681 . S
C4625 C731 1.695 . S
C4639 C1206 1.690 . S
C4643 C744 1.703 . S
C4657 C471 1.702 . S
C4661 C1219 1.683 . S
C4675 C1108 1.698 . S
C4679 C1232 1.679 . S
C4693 C1134 1.697 . S
C4697 C1245 1.684 . S
