# Generated by pormake.
# Topology wll, (5)-cn, num edge types: 1
# Building blocks:
#     Node 0, Type 0, BuildingBlock: BEQFEK_clean_sbu_0, # of connection points: 5
#     Node 1, Type 0, BuildingBlock: BEQFEK_clean_sbu_0, # of connection points: 5
#     Node 2, Type 0, BuildingBlock: BEQFEK_clean_sbu_0, # of connection points: 5
#     Node 3, Type 0, BuildingBlock: BEQFEK_clean_sbu_0, # of connection points: 5
#     Node 4, Type 0, BuildingBlock: BEQFEK_clean_sbu_0, # of connection points: 5
#     Node 5, Type 0, BuildingBlock: BEQFEK_clean_sbu_0, # of connection points: 5
#     Node 6, Type 0, BuildingBlock: BEQFEK_clean_sbu_0, # of connection points: 5
#     Node 7, Type 0, BuildingBlock: BEQFEK_clean_sbu_0, # of connection points: 5
#     Node 8, Type 0, BuildingBlock: BEQFEK_clean_sbu_0, # of connection points: 5
#     Node 9, Type 0, BuildingBlock: BEQFEK_clean_sbu_0, # of connection points: 5
#     Node 10, Type 0, BuildingBlock: BEQFEK_clean_sbu_0, # of connection points: 5
#     Node 11, Type 0, BuildingBlock: BEQFEK_clean_sbu_0, # of connection points: 5
#     Node 12, Type 0, BuildingBlock: BEQFEK_clean_sbu_0, # of connection points: 5
#     Node 13, Type 0, BuildingBlock: BEQFEK_clean_sbu_0, # of connection points: 5
#     Node 14, Type 0, BuildingBlock: BEQFEK_clean_sbu_0, # of connection points: 5
#     Node 15, Type 0, BuildingBlock: BEQFEK_clean_sbu_0, # of connection points: 5
#     Node 16, Type 0, BuildingBlock: BEQFEK_clean_sbu_0, # of connection points: 5
#     Node 17, Type 0, BuildingBlock: BEQFEK_clean_sbu_0, # of connection points: 5
#     Edge 18, Type (0, 0), BuildingBlock: EZIPEK_clean_linker_0, # of connection points: 2
#     Edge 19, Type (0, 0), BuildingBlock: EZIPEK_clean_linker_0, # of connection points: 2
#     Edge 20, Type (0, 0), BuildingBlock: EZIPEK_clean_linker_0, # of connection points: 2
#     Edge 21, Type (0, 0), BuildingBlock: EZIPEK_clean_linker_0, # of connection points: 2
#     Edge 22, Type (0, 0), BuildingBlock: EZIPEK_clean_linker_0, # of connection points: 2
#     Edge 23, Type (0, 0), BuildingBlock: EZIPEK_clean_linker_0, # of connection points: 2
#     Edge 24, Type (0, 0), BuildingBlock: EZIPEK_clean_linker_0, # of connection points: 2
#     Edge 25, Type (0, 0), BuildingBlock: EZIPEK_clean_linker_0, # of connection points: 2
#     Edge 26, Type (0, 0), BuildingBlock: EZIPEK_clean_linker_0, # of connection points: 2
#     Edge 27, Type (0, 0), BuildingBlock: EZIPEK_clean_linker_0, # of connection points: 2
#     Edge 28, Type (0, 0), BuildingBlock: EZIPEK_clean_linker_0, # of connection points: 2
#     Edge 29, Type (0, 0), BuildingBlock: EZIPEK_clean_linker_0, # of connection points: 2
#     Edge 30, Type (0, 0), BuildingBlock: EZIPEK_clean_linker_0, # of connection points: 2
#     Edge 31, Type (0, 0), BuildingBlock: EZIPEK_clean_linker_0, # of connection points: 2
#     Edge 32, Type (0, 0), BuildingBlock: EZIPEK_clean_linker_0, # of connection points: 2
#     Edge 33, Type (0, 0), BuildingBlock: EZIPEK_clean_linker_0, # of connection points: 2
#     Edge 34, Type (0, 0), BuildingBlock: EZIPEK_clean_linker_0, # of connection points: 2
#     Edge 35, Type (0, 0), BuildingBlock: EZIPEK_clean_linker_0, # of connection points: 2
#     Edge 36, Type (0, 0), BuildingBlock: EZIPEK_clean_linker_0, # of connection points: 2
#     Edge 37, Type (0, 0), BuildingBlock: EZIPEK_clean_linker_0, # of connection points: 2
#     Edge 38, Type (0, 0), BuildingBlock: EZIPEK_clean_linker_0, # of connection points: 2
#     Edge 39, Type (0, 0), BuildingBlock: EZIPEK_clean_linker_0, # of connection points: 2
#     Edge 40, Type (0, 0), BuildingBlock: EZIPEK_clean_linker_0, # of connection points: 2
#     Edge 41, Type (0, 0), BuildingBlock: EZIPEK_clean_linker_0, # of connection points: 2
#     Edge 42, Type (0, 0), BuildingBlock: EZIPEK_clean_linker_0, # of connection points: 2
#     Edge 43, Type (0, 0), BuildingBlock: EZIPEK_clean_linker_0, # of connection points: 2
#     Edge 44, Type (0, 0), BuildingBlock: EZIPEK_clean_linker_0, # of connection points: 2
#     Edge 45, Type (0, 0), BuildingBlock: EZIPEK_clean_linker_0, # of connection points: 2
#     Edge 46, Type (0, 0), BuildingBlock: EZIPEK_clean_linker_0, # of connection points: 2
#     Edge 47, Type (0, 0), BuildingBlock: EZIPEK_clean_linker_0, # of connection points: 2
#     Edge 48, Type (0, 0), BuildingBlock: EZIPEK_clean_linker_0, # of connection points: 2
#     Edge 49, Type (0, 0), BuildingBlock: EZIPEK_clean_linker_0, # of connection points: 2
#     Edge 50, Type (0, 0), BuildingBlock: EZIPEK_clean_linker_0, # of connection points: 2
#     Edge 51, Type (0, 0), BuildingBlock: EZIPEK_clean_linker_0, # of connection points: 2
#     Edge 52, Type (0, 0), BuildingBlock: EZIPEK_clean_linker_0, # of connection points: 2
#     Edge 53, Type (0, 0), BuildingBlock: EZIPEK_clean_linker_0, # of connection points: 2
#     Edge 54, Type (0, 0), BuildingBlock: EZIPEK_clean_linker_0, # of connection points: 2
#     Edge 55, Type (0, 0), BuildingBlock: EZIPEK_clean_linker_0, # of connection points: 2
#     Edge 56, Type (0, 0), BuildingBlock: EZIPEK_clean_linker_0, # of connection points: 2
#     Edge 57, Type (0, 0), BuildingBlock: EZIPEK_clean_linker_0, # of connection points: 2
#     Edge 58, Type (0, 0), BuildingBlock: EZIPEK_clean_linker_0, # of connection points: 2
#     Edge 59, Type (0, 0), BuildingBlock: EZIPEK_clean_linker_0, # of connection points: 2
#     Edge 60, Type (0, 0), BuildingBlock: EZIPEK_clean_linker_0, # of connection points: 2
#     Edge 61, Type (0, 0), BuildingBlock: EZIPEK_clean_linker_0, # of connection points: 2
#     Edge 62, Type (0, 0), BuildingBlock: EZIPEK_clean_linker_0, # of connection points: 2
# Relax obj value: 0.210
# Max RMSD: 0.164
# Mean RMSD: 0.162
data_MOF--net-wll--node1-BEQFEK_clean_sbu_0--edge1-EZIPEK_clean_linker_0
_symmetry_space_group_name_H-M    P1
_symmetry_Int_Tables_number       1
_symmetry_cell_setting            triclinic
loop_
_symmetry_equiv_pos_as_xyz
'x, y, z'
_cell_length_a     30.425049
_cell_length_b     30.457766
_cell_length_c     50.834516
_cell_angle_alpha  90.016715
_cell_angle_beta   89.878453
_cell_angle_gamma 120.05847
loop_
_atom_site_label
_atom_site_type_symbol
_atom_site_fract_x
_atom_site_fract_y
_atom_site_fract_z
_atom_type_partial_charge
Co0 Co 0.3069 0.32608 0.14025 0.0
Co1 Co 0.36576 0.30531 0.09531 0.0
C2 C 0.33289 0.24305 0.14452 0.0
O3 O 0.31326 0.26821 0.15366 0.0
O4 O 0.35354 0.25241 0.12188 0.0
C5 C 0.21766 0.30319 0.16911 0.0
O6 O 0.19872 0.26254 0.15417 0.0
C7 C 0.36806 0.24402 0.05149 0.0
C8 C 0.4359 0.2977 0.02883 0.0
C9 C 0.39549 0.24834 0.02892 0.0
N10 N 0.39068 0.2888 0.06417 0.0
N11 N 0.43156 0.32066 0.05063 0.0
C12 C 0.32018 0.19831 0.06049 0.0
H13 H 0.29955 0.20927 0.07465 0.0
H14 H 0.29552 0.17826 0.04342 0.0
H15 H 0.32993 0.17182 0.07037 0.0
C16 C 0.24704 0.32765 0.0947 0.0
N17 N 0.28114 0.31707 0.10556 0.0
N18 N 0.30539 0.3081 0.08668 0.0
C19 C 0.28618 0.31144 0.06327 0.0
C20 C 0.24878 0.32398 0.06763 0.0
C21 C 0.21969 0.34943 0.10933 0.0
H22 H 0.24474 0.37544 0.12477 0.0
H23 H 0.1851 0.3183 0.11862 0.0
H24 H 0.20791 0.37055 0.09603 0.0
O25 O 0.37382 0.38729 0.13969 0.0
O26 O 0.41925 0.37255 0.1104 0.0
H27 H 0.28893 0.31783 0.02075 0.0
H28 H 0.29608 0.26727 0.03405 0.0
C29 C 0.30594 0.30716 0.03704 0.0
H30 H 0.34779 0.33177 0.03644 0.0
H31 H 0.45586 0.35838 0.05592 0.0
O32 O 0.26424 0.33626 0.16651 0.0
C33 C 0.41564 0.40088 0.12786 0.0
Co34 Co 0.66987 0.97801 0.14185 0.0
Co35 Co 0.69413 0.05383 0.09424 0.0
C36 C 0.75553 0.08631 0.14382 0.0
O37 O 0.72858 0.04274 0.15415 0.0
O38 O 0.74793 0.09543 0.12035 0.0
C39 C 0.68605 0.93109 0.18752 0.0
O40 O 0.7181 0.97771 0.19495 0.0
C41 C 0.75669 0.11412 0.04986 0.0
C42 C 0.70438 0.1288 0.02645 0.0
C43 C 0.75353 0.13719 0.02706 0.0
N44 N 0.7115 0.09266 0.06222 0.0
N45 N 0.6804 0.1018 0.04816 0.0
C46 C 0.80204 0.11229 0.05967 0.0
H47 H 0.79085 0.0827 0.07505 0.0
H48 H 0.82124 0.10471 0.04316 0.0
H49 H 0.82945 0.14975 0.06816 0.0
C50 C 0.66733 0.91248 0.09849 0.0
N51 N 0.67843 0.95846 0.10766 0.0
N52 N 0.68864 0.98964 0.0877 0.0
C53 C 0.68458 0.96431 0.06519 0.0
C54 C 0.6707 0.91458 0.07126 0.0
C55 C 0.64809 0.86605 0.11527 0.0
H56 H 0.61437 0.86045 0.12653 0.0
H57 H 0.67791 0.87156 0.12959 0.0
H58 H 0.63765 0.83168 0.10336 0.0
O59 O 0.61039 0.98756 0.14178 0.0
O60 O 0.62752 0.04232 0.10866 0.0
H61 H 0.66611 0.00367 0.03632 0.0
H62 H 0.6797 0.95682 0.02271 0.0
C63 C 0.69013 0.98598 0.03823 0.0
H64 H 0.73033 0.01549 0.03529 0.0
H65 H 0.64266 0.08915 0.05324 0.0
O66 O 0.66017 0.92325 0.16667 0.0
C67 C 0.59898 0.01475 0.12745 0.0
Co68 Co 0.01995 0.69794 0.14337 0.0
Co69 Co 0.94694 0.64505 0.09486 0.0
C70 C 0.91218 0.67557 0.14356 0.0
O71 O 0.95512 0.69297 0.15471 0.0
O72 O 0.90478 0.65808 0.12026 0.0
C73 C 0.06917 0.77082 0.18495 0.0
O74 O 0.02469 0.76749 0.1878 0.0
C75 C 0.88258 0.64507 0.05216 0.0
C76 C 0.88759 0.59497 0.02239 0.0
C77 C 0.86821 0.627 0.02674 0.0
N78 N 0.90994 0.62543 0.06225 0.0
N79 N 0.91219 0.59493 0.04445 0.0
C80 C 0.87255 0.68226 0.0663 0.0
H81 H 0.84511 0.66239 0.08248 0.0
H82 H 0.9083 0.71239 0.07521 0.0
H83 H 0.85644 0.69947 0.053 0.0
C84 C 0.08783 0.76126 0.1005 0.0
N85 N 0.04152 0.72571 0.1092 0.0
N86 N 0.01213 0.7029 0.08887 0.0
C87 C 0.03925 0.72287 0.06661 0.0
C88 C 0.08786 0.76059 0.07323 0.0
C89 C 0.13286 0.79096 0.11787 0.0
H90 H 0.14008 0.76443 0.12953 0.0
H91 H 0.1246 0.81398 0.13177 0.0
H92 H 0.1674 0.81645 0.10633 0.0
O93 O 0.00859 0.62799 0.14391 0.0
O94 O 0.95609 0.58945 0.11007 0.0
H95 H 0.01689 0.66348 0.03847 0.0
H96 H 0.04878 0.72641 0.02425 0.0
C97 C 0.02163 0.70199 0.03966 0.0
H98 H 0.98461 0.69887 0.03595 0.0
H99 H 0.93204 0.57553 0.047 0.0
O100 O 0.0745 0.74242 0.16846 0.0
C101 C 0.98214 0.58894 0.12968 0.0
Co102 Co 0.69572 0.67901 0.88029 0.0
Co103 Co 0.6387 0.69632 0.92798 0.0
C104 C 0.66979 0.76146 0.87939 0.0
O105 O 0.6903 0.73816 0.86898 0.0
O106 O 0.64943 0.74984 0.9021 0.0
C107 C 0.77042 0.70459 0.83933 0.0
O108 O 0.7668 0.74555 0.83674 0.0
C109 C 0.63887 0.75652 0.97273 0.0
C110 C 0.57096 0.70322 0.99547 0.0
C111 C 0.61177 0.75236 0.99539 0.0
N112 N 0.61558 0.7119 0.95994 0.0
N113 N 0.57479 0.6802 0.97359 0.0
C114 C 0.68637 0.80227 0.96339 0.0
H115 H 0.70537 0.79175 0.94802 0.0
H116 H 0.71262 0.82093 0.98012 0.0
H117 H 0.6765 0.82987 0.95501 0.0
C118 C 0.75733 0.6755 0.92405 0.0
N119 N 0.72143 0.68502 0.91477 0.0
N120 N 0.69831 0.69256 0.9347 0.0
C121 C 0.71915 0.68827 0.95729 0.0
C122 C 0.75704 0.67727 0.95127 0.0
C123 C 0.78808 0.66042 0.90731 0.0
H124 H 0.81173 0.69177 0.89353 0.0
H125 H 0.81313 0.6517 0.91936 0.0
H126 H 0.76225 0.62661 0.89548 0.0
O127 O 0.62626 0.62019 0.87874 0.0
O128 O 0.58551 0.63027 0.91282 0.0
H129 H 0.71821 0.67829 0.99953 0.0
H130 H 0.71194 0.73079 0.9883 0.0
C131 C 0.70096 0.6909 0.98423 0.0
H132 H 0.65905 0.6671 0.98526 0.0
H133 H 0.54989 0.64271 0.96812 0.0
O134 O 0.74189 0.67035 0.85562 0.0
C135 C 0.58624 0.60573 0.89256 0.0
Co136 Co 0.33007 0.02225 0.88028 0.0
Co137 Co 0.30342 0.94745 0.9284 0.0
C138 C 0.24248 0.91449 0.87891 0.0
O139 O 0.26976 0.95807 0.86866 0.0
O140 O 0.25019 0.90482 0.90225 0.0
C141 C 0.30794 0.0873 0.8509 0.0
O142 O 0.26966 0.06858 0.86754 0.0
C143 C 0.24266 0.88632 0.97337 0.0
C144 C 0.29896 0.87879 0.99737 0.0
C145 C 0.2485 0.86628 0.99668 0.0
N146 N 0.28765 0.91003 0.96081 0.0
N147 N 0.32109 0.90506 0.9752 0.0
C148 C 0.19515 0.88348 0.96333 0.0
H149 H 0.20417 0.91263 0.94792 0.0
H150 H 0.17394 0.88863 0.97969 0.0
H151 H 0.17045 0.84537 0.95471 0.0
C152 C 0.33899 0.09148 0.92397 0.0
N153 N 0.32365 0.04458 0.91444 0.0
N154 N 0.30927 0.01234 0.93423 0.0
C155 C 0.3132 0.0376 0.95676 0.0
C156 C 0.33248 0.08854 0.95105 0.0
C157 C 0.36723 0.13922 0.90828 0.0
H158 H 0.39168 0.13482 0.8936 0.0
H159 H 0.33971 0.14678 0.89787 0.0
H160 H 0.39106 0.17224 0.92108 0.0
O161 O 0.38816 0.011 0.88073 0.0
O162 O 0.37025 0.95838 0.91486 0.0
H163 H 0.32807 0.99879 0.98741 0.0
H164 H 0.30864 0.04255 0.99911 0.0
C165 C 0.30282 0.01455 0.98358 0.0
H166 H 0.26286 0.98345 0.98442 0.0
H167 H 0.35923 0.92029 0.97009 0.0
O168 O 0.34035 0.07279 0.85262 0.0
C169 C 0.39893 0.98428 0.89576 0.0
Co170 Co 0.97937 0.30247 0.88 0.0
Co171 Co 0.05571 0.35639 0.92692 0.0
C172 C 0.08679 0.32519 0.87719 0.0
O173 O 0.04253 0.30582 0.86747 0.0
O174 O 0.09699 0.34547 0.8999 0.0
C175 C 0.92732 0.22687 0.84051 0.0
O176 O 0.97071 0.22755 0.83869 0.0
C177 C 0.11755 0.35398 0.97012 0.0
C178 C 0.13509 0.42198 0.99342 0.0
C179 C 0.14254 0.3807 0.99246 0.0
N180 N 0.09596 0.37799 0.95834 0.0
N181 N 0.10677 0.41881 0.97231 0.0
C182 C 0.1143 0.30629 0.96009 0.0
H183 H 0.1516 0.31543 0.95164 0.0
H184 H 0.0847 0.28864 0.94468 0.0
H185 H 0.10579 0.27914 0.97651 0.0
C186 C 0.91399 0.24153 0.92406 0.0
N187 N 0.95994 0.27589 0.91444 0.0
N188 N 0.9917 0.29737 0.9341 0.0
C189 C 0.96683 0.2768 0.95686 0.0
C190 C 0.91679 0.24092 0.95127 0.0
C191 C 0.86689 0.21449 0.90778 0.0
H192 H 0.86222 0.24253 0.89598 0.0
H193 H 0.87076 0.18844 0.89398 0.0
H194 H 0.83256 0.19231 0.92011 0.0
O195 O 0.99166 0.37254 0.87926 0.0
O196 O 0.04329 0.41097 0.91327 0.0
H197 H 0.00781 0.33528 0.98521 0.0
H198 H 0.9605 0.27547 0.99938 0.0
C199 C 0.98935 0.29345 0.98359 0.0
H200 H 0.01845 0.28223 0.9863 0.0
H201 H 0.09452 0.44427 0.96757 0.0
O202 O 0.92337 0.25778 0.85579 0.0
C203 C 0.01791 0.41177 0.89343 0.0
Co204 Co 0.97432 0.66075 0.47257 0.0
Co205 Co 0.03099 0.63748 0.42677 0.0
C206 C 0.99573 0.57488 0.47626 0.0
O207 O 0.9762 0.60019 0.48535 0.0
O208 O 0.0172 0.58454 0.45379 0.0
C209 C 0.89742 0.63883 0.51164 0.0
O210 O 0.89846 0.59653 0.51456 0.0
C211 C 0.03217 0.57651 0.3823 0.0
C212 C 0.10196 0.62958 0.36077 0.0
C213 C 0.06051 0.58086 0.36007 0.0
N214 N 0.05541 0.62065 0.39555 0.0
N215 N 0.09737 0.65213 0.38264 0.0
C216 C 0.98339 0.53119 0.39069 0.0
H217 H 0.96392 0.54194 0.40569 0.0
H218 H 0.95822 0.5136 0.37347 0.0
H219 H 0.99168 0.50262 0.39928 0.0
C220 C 0.91577 0.66417 0.42737 0.0
N221 N 0.9503 0.65371 0.43769 0.0
N222 N 0.97306 0.64359 0.41853 0.0
C223 C 0.95326 0.64713 0.3954 0.0
C224 C 0.91651 0.66025 0.40028 0.0
C225 C 0.88598 0.6821 0.44292 0.0
H226 H 0.8606 0.65188 0.45682 0.0
H227 H 0.8627 0.69183 0.43002 0.0
H228 H 0.91237 0.71595 0.45458 0.0
O229 O 0.04468 0.71849 0.47428 0.0
O230 O 0.08492 0.70311 0.44178 0.0
H231 H 0.95569 0.65475 0.35299 0.0
H232 H 0.95861 0.60125 0.36567 0.0
C233 C 0.97141 0.64183 0.36894 0.0
H234 H 0.01343 0.66399 0.36813 0.0
H235 H 0.1224 0.68934 0.3885 0.0
O236 O 0.92827 0.67261 0.4958 0.0
C237 C 0.0846 0.73021 0.4609 0.0
Co238 Co 0.34202 0.31283 0.47525 0.0
Co239 Co 0.36475 0.38931 0.42803 0.0
C240 C 0.42715 0.42086 0.47721 0.0
O241 O 0.40151 0.37677 0.48708 0.0
O242 O 0.41797 0.43109 0.45431 0.0
C243 C 0.37007 0.26279 0.5137 0.0
O244 O 0.41385 0.30527 0.51287 0.0
C245 C 0.42636 0.45158 0.38375 0.0
C246 C 0.3721 0.46337 0.36035 0.0
C247 C 0.42198 0.4739 0.36091 0.0
N248 N 0.38116 0.42855 0.39614 0.0
N249 N 0.34892 0.43603 0.38211 0.0
C250 C 0.47278 0.45188 0.3936 0.0
H251 H 0.46234 0.42096 0.40812 0.0
H252 H 0.49421 0.44775 0.37702 0.0
H253 H 0.49786 0.48879 0.40331 0.0
C254 C 0.33505 0.24697 0.4311 0.0
N255 N 0.34814 0.29319 0.44074 0.0
N256 N 0.35992 0.32536 0.42111 0.0
C257 C 0.35605 0.30066 0.39839 0.0
C258 C 0.33999 0.25024 0.40396 0.0
C259 C 0.31121 0.19933 0.44713 0.0
H260 H 0.28135 0.19851 0.46003 0.0
H261 H 0.34041 0.19883 0.45986 0.0
H262 H 0.29433 0.16499 0.43452 0.0
O263 O 0.2839 0.3241 0.47648 0.0
O264 O 0.29798 0.37678 0.44277 0.0
H265 H 0.33964 0.34078 0.36909 0.0
H266 H 0.3559 0.29558 0.35585 0.0
C267 C 0.36412 0.32375 0.37166 0.0
H268 H 0.40435 0.35396 0.36995 0.0
H269 H 0.31091 0.42188 0.38718 0.0
O270 O 0.33304 0.25818 0.5 0.0
C271 C 0.27141 0.3509 0.4625 0.0
Co272 Co 0.68722 0.02691 0.47581 0.0
Co273 Co 0.61006 0.97201 0.42885 0.0
C274 C 0.57834 0.00228 0.47811 0.0
O275 O 0.62223 0.01982 0.48811 0.0
O276 O 0.56852 0.9842 0.45492 0.0
C277 C 0.73462 0.09943 0.51781 0.0
O278 O 0.68879 0.09227 0.5216 0.0
C279 C 0.54915 0.97283 0.38462 0.0
C280 C 0.533 0.90458 0.36193 0.0
C281 C 0.52528 0.94573 0.36215 0.0
N282 N 0.5704 0.94922 0.39716 0.0
N283 N 0.56038 0.90822 0.38354 0.0
C284 C 0.55186 0.02067 0.39395 0.0
H285 H 0.51445 0.01148 0.40227 0.0
H286 H 0.58139 0.03916 0.40934 0.0
H287 H 0.56012 0.04709 0.37721 0.0
C288 C 0.75048 0.08957 0.43172 0.0
N289 N 0.70526 0.05371 0.44137 0.0
N290 N 0.67374 0.03115 0.42171 0.0
C291 C 0.69817 0.05221 0.39894 0.0
C292 C 0.74743 0.08972 0.40455 0.0
C293 C 0.79698 0.11979 0.44804 0.0
H294 H 0.7899 0.14323 0.46225 0.0
H295 H 0.83042 0.14495 0.43571 0.0
H296 H 0.80516 0.09364 0.45943 0.0
O297 O 0.67878 0.95829 0.47611 0.0
O298 O 0.62277 0.91835 0.44376 0.0
H299 H 0.70598 0.05132 0.3566 0.0
H300 H 0.64787 0.04593 0.36847 0.0
C301 C 0.67647 0.03436 0.37215 0.0
H302 H 0.65778 0.99247 0.3711 0.0
H303 H 0.57268 0.88304 0.38883 0.0
O304 O 0.74198 0.07376 0.50038 0.0
C305 C 0.65134 0.91884 0.46233 0.0
Co306 Co 0.36331 0.00683 0.21407 0.0
Co307 Co 0.31003 0.03172 0.26052 0.0
C308 C 0.34503 0.09484 0.21126 0.0
O309 O 0.36304 0.06849 0.20174 0.0
O310 O 0.32418 0.08539 0.23388 0.0
C311 C 0.4218 0.01526 0.16722 0.0
O312 O 0.40205 0.04129 0.15727 0.0
C313 C 0.31042 0.09372 0.30464 0.0
C314 C 0.24152 0.04126 0.32699 0.0
C315 C 0.28275 0.09012 0.32699 0.0
N316 N 0.28701 0.04899 0.29196 0.0
N317 N 0.24563 0.01782 0.30536 0.0
C318 C 0.35862 0.13893 0.29555 0.0
H319 H 0.37852 0.12749 0.28116 0.0
H320 H 0.38374 0.15844 0.31255 0.0
H321 H 0.34946 0.16607 0.28594 0.0
C322 C 0.42187 1.00035 0.25862 0.0
N323 N 0.38844 0.01281 0.24875 0.0
N324 N 0.36731 0.02413 0.26823 0.0
C325 C 0.38718 0.01961 0.29113 0.0
C326 C 0.42224 0.00424 0.28581 0.0
C327 C 0.44864 0.97967 0.24254 0.0
H328 H 0.47589 0.00968 0.2291 0.0
H329 H 0.4695 0.96638 0.25506 0.0
H330 H 0.42058 0.94767 0.23035 0.0
O331 O 0.29242 0.94969 0.21259 0.0
O332 O 0.25465 0.9665 0.24578 0.0
H333 H 0.38837 0.01579 0.33369 0.0
H334 H 0.38236 0.06703 0.32022 0.0
C335 C 0.37071 0.02653 0.31776 0.0
H336 H 0.32881 0.00348 0.31944 0.0
H337 H 0.22053 0.98036 0.29994 0.0
O338 O 0.40868 0.99598 0.19006 0.0
C339 C 0.25331 0.93888 0.22651 0.0
Co340 Co 0.98872 0.35363 0.21165 0.0
Co341 Co 0.96834 0.27943 0.25963 0.0
C342 C 0.9033 0.24663 0.21073 0.0
O343 O 0.9275 0.29052 0.2005 0.0
O344 O 0.91473 0.23742 0.23334 0.0
C345 C 0.96386 0.40442 0.17176 0.0
O346 O 0.92047 0.36152 0.17107 0.0
C347 C 0.90314 0.21388 0.30198 0.0
C348 C 0.95814 0.21903 0.33183 0.0
C349 C 0.90668 0.19955 0.32745 0.0
N350 N 0.9503 0.24149 0.29196 0.0
N351 N 0.98297 0.24373 0.30977 0.0
C352 C 0.85598 0.20375 0.28776 0.0
H353 H 0.8492 0.17717 0.2713 0.0
H354 H 0.86135 0.23963 0.27917 0.0
H355 H 0.82231 0.18673 0.30092 0.0
C356 C 0.99868 0.42219 0.25511 0.0
N357 N 0.98451 0.37528 0.24605 0.0
N358 N 0.97568 0.34465 0.26613 0.0
C359 C 0.98376 0.37138 0.2886 0.0
C360 C 0.99837 0.42118 0.28238 0.0
C361 C 0.01957 0.46853 0.23816 0.0
H362 H 0.0506 0.4708 0.22567 0.0
H363 H 0.98928 0.46567 0.22502 0.0
H364 H 0.03437 0.50367 0.25004 0.0
O365 O 0.04556 0.33965 0.21044 0.0
O366 O 0.03412 0.28992 0.24519 0.0
H367 H 0.01817 0.347 0.31724 0.0
H368 H 0.9863 0.37832 0.33104 0.0
C369 C 0.98461 0.352 0.31546 0.0
H370 H 0.95023 0.31497 0.31837 0.0
H371 H 0.02231 0.26379 0.30728 0.0
O372 O 0.99938 0.40859 0.1866 0.0
C373 C 0.05906 0.3139 0.22469 0.0
Co374 Co 0.64403 0.64357 0.2128 0.0
Co375 Co 0.72135 0.69622 0.25966 0.0
C376 C 0.75002 0.66454 0.20864 0.0
O377 O 0.70545 0.64461 0.19918 0.0
O378 O 0.7606 0.68521 0.23129 0.0
C379 C 0.58848 0.58448 0.1662 0.0
O380 O 0.6325 0.59055 0.15865 0.0
C381 C 0.78919 0.69382 0.29961 0.0
C382 C 0.78817 0.74406 0.33064 0.0
C383 C 0.80594 0.71116 0.32491 0.0
N384 N 0.76181 0.71455 0.291 0.0
N385 N 0.76202 0.74518 0.3095 0.0
C386 C 0.79696 0.65639 0.2842 0.0
H387 H 0.82228 0.6761 0.26725 0.0
H388 H 0.76002 0.62651 0.27625 0.0
H389 H 0.81444 0.63895 0.29636 0.0
C390 C 0.58052 0.57901 0.25698 0.0
N391 N 0.62562 0.61499 0.2472 0.0
N392 N 0.65692 0.63801 0.26687 0.0
C393 C 0.63204 0.61815 0.28973 0.0
C394 C 0.58295 0.58006 0.2842 0.0
C395 C 0.53397 0.54904 0.24083 0.0
H396 H 0.52085 0.57497 0.23378 0.0
H397 H 0.54317 0.53269 0.22362 0.0
H398 H 0.50296 0.51807 0.25237 0.0
O399 O 0.65853 0.71513 0.21368 0.0
O400 O 0.7101 0.75203 0.24791 0.0
H401 H 0.65782 0.6787 0.31744 0.0
H402 H 0.62567 0.61628 0.33225 0.0
C403 C 0.65198 0.63976 0.31633 0.0
H404 H 0.68884 0.64203 0.31935 0.0
H405 H 0.7427 0.76533 0.30811 0.0
O406 O 0.58634 0.60351 0.18815 0.0
C407 C 0.68466 0.75364 0.22835 0.0
Co408 Co 0.632 0.99228 0.80895 0.0
Co409 Co 0.68905 0.96877 0.76421 0.0
C410 C 0.65062 0.90621 0.81387 0.0
O411 O 0.63003 0.93072 0.82251 0.0
O412 O 0.6735 0.91685 0.79185 0.0
C413 C 0.57837 0.99005 0.85603 0.0
O414 O 0.60286 0.96934 0.86676 0.0
C415 C 0.68371 0.90409 0.72033 0.0
C416 C 0.76378 0.93888 0.70774 0.0
C417 C 0.71552 0.89856 0.70259 0.0
N418 N 0.71176 0.94596 0.73486 0.0
N419 N 0.75962 0.96651 0.72727 0.0
C420 C 0.62777 0.86929 0.72412 0.0
H421 H 0.60973 0.88978 0.7327 0.0
H422 H 0.60926 0.85135 0.70523 0.0
H423 H 0.62141 0.83905 0.73832 0.0
C424 C 0.57533 0.99743 0.76336 0.0
N425 N 0.60892 0.98589 0.77385 0.0
N426 N 0.63381 0.97845 0.75479 0.0
C427 C 0.61759 0.9864 0.73148 0.0
C428 C 0.57967 0.99818 0.73619 0.0
C429 C 0.54376 0.01288 0.77917 0.0
H430 H 0.51991 0.98216 0.79324 0.0
H431 H 0.51899 0.02098 0.76651 0.0
H432 H 0.56912 0.04734 0.79071 0.0
O433 O 0.7035 0.04881 0.81103 0.0
O434 O 0.74417 0.03354 0.77867 0.0
H435 H 0.68206 0.00084 0.70768 0.0
H436 H 0.6361 0.01218 0.69114 0.0
C437 C 0.64104 0.98743 0.70536 0.0
H438 H 0.6221 0.94864 0.69698 0.0
H439 H 0.78958 0.99881 0.73578 0.0
O440 O 0.58669 0.00435 0.83216 0.0
C441 C 0.74367 0.06041 0.79785 0.0
Co442 Co 0.00489 0.6468 0.81014 0.0
Co443 Co 0.03171 0.72418 0.76318 0.0
C444 C 0.09349 0.75348 0.81266 0.0
O445 O 0.06685 0.70912 0.82219 0.0
O446 O 0.08479 0.76462 0.78985 0.0
C447 C 0.02499 0.57961 0.83877 0.0
O448 O 0.06441 0.59983 0.82286 0.0
C449 C 0.09408 0.78605 0.71887 0.0
C450 C 0.03993 0.79808 0.69547 0.0
C451 C 0.0896 0.80804 0.69594 0.0
N452 N 0.04902 0.76359 0.73138 0.0
N453 N 0.01688 0.77126 0.71737 0.0
C454 C 0.14031 0.78583 0.72858 0.0
H455 H 0.1296 0.75456 0.7429 0.0
H456 H 0.16169 0.78192 0.7119 0.0
H457 H 0.16549 0.82246 0.73851 0.0
C458 C 0.99728 0.57978 0.76531 0.0
N459 N 0.01065 0.62581 0.77549 0.0
N460 N 0.02431 0.65892 0.75613 0.0
C461 C 0.02128 0.63501 0.73322 0.0
C462 C 0.00408 0.58424 0.73828 0.0
C463 C 0.97157 0.53114 0.78042 0.0
H464 H 0.94653 0.53316 0.7956 0.0
H465 H 0.00062 0.52495 0.79012 0.0
H466 H 0.94869 0.49838 0.76728 0.0
O467 O 0.94855 0.66132 0.81093 0.0
O468 O 0.96617 0.71502 0.77734 0.0
H469 H 0.02305 0.63138 0.69067 0.0
H470 H 0.0717 0.68877 0.70546 0.0
C471 C 0.03117 0.65915 0.70668 0.0
H472 H 0.00747 0.67699 0.70391 0.0
H473 H 0.97897 0.75746 0.72251 0.0
O474 O 0.99263 0.59416 0.83696 0.0
C475 C 0.93814 0.6893 0.79666 0.0
Co476 Co 0.35298 0.36029 0.80665 0.0
Co477 Co 0.27689 0.30748 0.75963 0.0
C478 C 0.24639 0.34034 0.80883 0.0
O479 O 0.29065 0.3594 0.81853 0.0
O480 O 0.23583 0.31933 0.7863 0.0
C481 C 0.42024 0.44781 0.83517 0.0
O482 O 0.40106 0.46731 0.81887 0.0
C483 C 0.21449 0.30812 0.71601 0.0
C484 C 0.20007 0.24105 0.69269 0.0
C485 C 0.19094 0.28125 0.69345 0.0
N486 N 0.237 0.28529 0.72809 0.0
N487 N 0.22794 0.24496 0.71412 0.0
C488 C 0.21605 0.35519 0.72576 0.0
H489 H 0.24613 0.37428 0.74083 0.0
H490 H 0.22279 0.38147 0.70913 0.0
H491 H 0.17873 0.34484 0.73463 0.0
C492 C 0.42066 0.41859 0.76182 0.0
N493 N 0.37433 0.38639 0.77195 0.0
N494 N 0.34163 0.36615 0.7525 0.0
C495 C 0.36601 0.38619 0.72955 0.0
C496 C 0.41684 0.4199 0.7347 0.0
C497 C 0.46905 0.44136 0.77713 0.0
H498 H 0.46626 0.41446 0.79255 0.0
H499 H 0.47561 0.47699 0.78652 0.0
H500 H 0.50201 0.45053 0.76421 0.0
O501 O 0.33879 0.28996 0.80773 0.0
O502 O 0.28784 0.25196 0.77352 0.0
H503 H 0.3703 0.38987 0.68695 0.0
H504 H 0.31218 0.38058 0.7012 0.0
C505 C 0.34231 0.37051 0.70297 0.0
H506 H 0.32497 0.32889 0.7007 0.0
H507 H 0.24129 0.22045 0.71903 0.0
O508 O 0.4051 0.40077 0.83356 0.0
C509 C 0.31254 0.25084 0.79357 0.0
Co510 Co 0.02264 0.3373 0.5459 0.0
Co511 Co 0.97372 0.3655 0.59331 0.0
C512 C 0.00512 0.42609 0.54354 0.0
O513 O 0.02118 0.39833 0.53372 0.0
O514 O 0.98667 0.41861 0.56668 0.0
C515 C 0.11027 0.35795 0.5173 0.0
O516 O 0.12928 0.39656 0.53365 0.0
C517 C 0.97574 0.42931 0.6373 0.0
C518 C 0.90995 0.37617 0.66141 0.0
C519 C 0.94977 0.42575 0.66035 0.0
N520 N 0.95274 0.38384 0.62527 0.0
N521 N 0.91317 0.35232 0.63973 0.0
C522 C 0.02211 0.47512 0.62703 0.0
H523 H 0.01059 0.50038 0.61728 0.0
H524 H 0.04202 0.46403 0.61247 0.0
H525 H 0.04807 0.49655 0.64345 0.0
C526 C 0.08259 0.32979 0.59019 0.0
N527 N 0.05019 0.34371 0.58031 0.0
N528 N 0.03164 0.35804 0.59983 0.0
C529 C 0.05304 0.35511 0.62254 0.0
C530 C 0.08588 0.3371 0.61717 0.0
C531 C 0.10395 0.30272 0.57497 0.0
H532 H 0.07649 0.27853 0.55977 0.0
H533 H 0.13985 0.33092 0.56533 0.0
H534 H 0.1125 0.27878 0.58806 0.0
O535 O 0.95213 0.28079 0.54591 0.0
O536 O 0.91675 0.29946 0.5795 0.0
H537 H 0.9981 0.34164 0.65245 0.0
H538 H 0.05993 0.35782 0.66503 0.0
C539 C 0.03959 0.36546 0.64921 0.0
H540 H 0.05023 0.40588 0.65028 0.0
H541 H 0.88877 0.31431 0.635 0.0
O542 O 0.06318 0.32571 0.51881 0.0
C543 C 0.91402 0.27084 0.56039 0.0
Co544 Co 0.65336 0.68781 0.54905 0.0
Co545 Co 0.64118 0.60883 0.59267 0.0
C546 C 0.57314 0.58128 0.54424 0.0
O547 O 0.59378 0.62656 0.53581 0.0
O548 O 0.58752 0.57016 0.5655 0.0
C549 C 0.65321 0.74309 0.50274 0.0
O550 O 0.64008 0.70092 0.48986 0.0
C551 C 0.58028 0.55092 0.63771 0.0
C552 C 0.6236 0.51783 0.65505 0.0
C553 C 0.57953 0.52026 0.65803 0.0
N554 N 0.62263 0.56603 0.62331 0.0
N555 N 0.64848 0.54615 0.63381 0.0
C556 C 0.54095 0.56528 0.63197 0.0
H557 H 0.50275 0.53077 0.63162 0.0
H558 H 0.5488 0.58565 0.61293 0.0
H559 H 0.54099 0.59023 0.64789 0.0
C560 C 0.65087 0.74362 0.59605 0.0
N561 N 0.64559 0.7014 0.5845 0.0
N562 N 0.64762 0.67173 0.60257 0.0
C563 C 0.65851 0.6959 0.62588 0.0
C564 C 0.66007 0.74204 0.62278 0.0
C565 C 0.64902 0.78535 0.58146 0.0
H566 H 0.61713 0.76879 0.56725 0.0
H567 H 0.64412 0.81103 0.59512 0.0
H568 H 0.6847 0.80757 0.57012 0.0
O569 O 0.7134 0.67739 0.54525 0.0
O570 O 0.70596 0.62251 0.57671 0.0
H571 H 0.70194 0.71148 0.66166 0.0
H572 H 0.6407 0.65496 0.66182 0.0
C573 C 0.67458 0.67868 0.64965 0.0
H574 H 0.69206 0.65575 0.64381 0.0
H575 H 0.68299 0.5518 0.62647 0.0
O576 O 0.66198 0.74554 0.52729 0.0
C577 C 0.72946 0.65111 0.55716 0.0
Co578 Co 0.31264 0.97131 0.54706 0.0
Co579 Co 0.38857 0.02596 0.59419 0.0
C580 C 0.42074 0.99299 0.54612 0.0
O581 O 0.37736 0.97621 0.53558 0.0
O582 O 0.42983 0.01118 0.56928 0.0
C583 C 0.26432 0.89805 0.50573 0.0
O584 O 0.30929 0.90255 0.50285 0.0
C585 C 0.45007 0.02701 0.63832 0.0
C586 C 0.46422 0.09447 0.66118 0.0
C587 C 0.47365 0.05442 0.66076 0.0
N588 N 0.42755 0.04951 0.62596 0.0
N589 N 0.43632 0.09002 0.63966 0.0
C590 C 0.44906 0.98012 0.62866 0.0
H591 H 0.48486 0.9912 0.61785 0.0
H592 H 0.4166 0.95877 0.61511 0.0
H593 H 0.44654 0.95554 0.64537 0.0
C594 C 0.2468 0.91118 0.59122 0.0
N595 N 0.29266 0.94586 0.58166 0.0
N596 N 0.32403 0.96806 0.60139 0.0
C597 C 0.29905 0.94772 0.62412 0.0
C598 C 0.24931 0.91127 0.61847 0.0
C599 C 0.2003 0.88232 0.5747 0.0
H600 H 0.19458 0.90927 0.56252 0.0
H601 H 0.20586 0.85686 0.5612 0.0
H602 H 0.16597 0.85934 0.5869 0.0
O603 O 0.32347 0.04056 0.54524 0.0
O604 O 0.37869 0.08049 0.57784 0.0
H605 H 0.33914 0.00613 0.65261 0.0
H606 H 0.29275 0.94579 0.66666 0.0
C607 C 0.32146 0.96439 0.65086 0.0
H608 H 0.35115 0.95392 0.65341 0.0
H609 H 0.4229 0.11435 0.63447 0.0
O610 O 0.25791 0.92534 0.52249 0.0
C611 C 0.35147 0.08032 0.55865 0.0
C612 C 0.4036 0.17782 1.00803 0.0
C613 C 0.38217 0.20977 1.00788 0.0
C614 C 0.32728 0.16164 0.97094 0.0
C615 C 0.35079 0.13152 0.97007 0.0
N616 N 0.4201 0.11941 0.98341 0.0
N617 N 0.33308 0.24024 0.98529 0.0
C618 C 0.39158 0.14207 0.98736 0.0
C619 C 0.34682 0.20414 0.98813 0.0
N620 N 0.43464 0.18087 0.0282 0.0
N621 N 0.28522 0.14871 0.95599 0.0
H622 H 0.34808 0.27269 0.99696 0.0
H623 H 0.31115 0.24078 0.96973 0.0
H624 H 0.26978 0.11792 0.94312 0.0
H625 H 0.26318 0.16588 0.95796 0.0
H626 H 0.4467 0.15467 0.03098 0.0
H627 H 0.44534 0.20746 0.04331 0.0
H628 H 0.45327 0.12928 0.99377 0.0
H629 H 0.4135 0.09426 0.96799 0.0
C630 C 0.82087 0.21758 1.00577 0.0
C631 C 0.79365 0.16383 1.0068 0.0
C632 C 0.84881 0.16069 0.97247 0.0
C633 C 0.87381 0.21426 0.97017 0.0
N634 N 0.87562 0.29264 0.98019 0.0
N635 N 0.77342 0.08413 0.98685 0.0
C636 C 0.85751 0.24247 0.98554 0.0
C637 C 0.80521 0.1353 0.98889 0.0
N638 N 0.81272 0.24492 0.02451 0.0
N639 N 0.86746 0.13411 0.95952 0.0
H640 H 0.74004 0.0648 0.99778 0.0
H641 H 0.77717 0.06188 0.97245 0.0
H642 H 0.89919 0.15133 0.94723 0.0
H643 H 0.85409 0.09567 0.96267 0.0
H644 H 0.83547 0.28407 0.02652 0.0
H645 H 0.7857 0.22805 0.03941 0.0
H646 H 0.8613 0.31382 0.98894 0.0
H647 H 0.90162 0.31199 0.96515 0.0
C648 C 0.86329 0.68886 0.99544 0.0
C649 C 0.83964 0.63996 1.00738 0.0
C650 C 0.76159 0.61525 0.98227 0.0
C651 C 0.78592 0.66363 0.96992 0.0
N652 N 0.86104 0.74409 0.96166 0.0
N653 N 0.76792 0.55526 0.01132 0.0
C654 C 0.83711 0.69971 0.97563 0.0
C655 C 0.78922 0.60273 1.00049 0.0
N656 N 0.91048 0.7254 1.00343 0.0
N657 N 0.71171 0.58163 0.9768 0.0
H658 H 0.78525 0.54574 0.02616 0.0
H659 H 0.73395 0.52439 1.00507 0.0
H660 H 0.69135 0.58801 0.9623 0.0
H661 H 0.68944 0.54821 0.98716 0.0
H662 H 0.92727 0.76347 0.9982 0.0
H663 H 0.93202 0.71858 0.01685 0.0
H664 H 0.89995 0.76938 0.9623 0.0
H665 H 0.84257 0.75444 0.94785 0.0
C666 C 0.68265 0.84632 0.05033 0.0
C667 C 0.65401 0.87122 0.0527 0.0
C668 C 0.59781 0.81861 0.01714 0.0
C669 C 0.62452 0.79162 0.01596 0.0
N670 N 0.68369 0.77103 0.03593 0.0
N671 N 0.57718 0.87278 0.04294 0.0
C672 C 0.66446 0.80291 0.0339 0.0
C673 C 0.60939 0.8549 0.03745 0.0
N674 N 0.72792 0.8649 0.06321 0.0
N675 N 0.56236 0.81065 0.99844 0.0
H676 H 0.58372 0.8985 0.05806 0.0
H677 H 0.54165 0.85849 0.03424 0.0
H678 H 0.55232 0.78388 0.98347 0.0
H679 H 0.54585 0.8333 0.99655 0.0
H680 H 0.75303 0.85159 0.05997 0.0
H681 H 0.74239 0.89647 0.07554 0.0
H682 H 0.70968 0.7747 0.0503 0.0
H683 H 0.66939 0.73763 0.02508 0.0
C684 C 0.19586 0.86759 0.03447 0.0
C685 C 0.20994 0.83957 0.01759 0.0
C686 C 0.15142 0.76151 0.04113 0.0
C687 C 0.13193 0.78842 0.05516 0.0
N688 N 0.13149 0.86629 0.0631 0.0
N689 N 0.19772 0.75897 1.00283 0.0
C690 C 0.15311 0.84133 0.05132 0.0
C691 C 0.1869 0.78623 0.02041 0.0
N692 N 0.22449 0.91929 0.0351 0.0
N693 N 0.13711 0.71281 0.04811 0.0
H694 H 0.22396 0.77581 0.98759 0.0
H695 H 0.17785 0.71949 1.00211 0.0
H696 H 0.11204 0.69391 0.06356 0.0
H697 H 0.15371 0.69293 0.04031 0.0
H698 H 0.21892 0.94161 0.04871 0.0
H699 H 0.25736 0.93944 0.02388 0.0
H700 H 0.14183 0.90364 0.05868 0.0
H701 H 0.1004 0.84853 0.07578 0.0
C702 C 0.1685 0.30874 0.04565 0.0
C703 C 0.22204 0.33847 0.04795 0.0
C704 C 0.22389 0.39445 0.01271 0.0
C705 C 0.17006 0.36723 0.01205 0.0
N706 N 0.09103 0.30643 0.03236 0.0
N707 N 0.29957 0.41625 0.03792 0.0
C708 C 0.14227 0.32655 0.02979 0.0
C709 C 0.24952 0.38327 0.03267 0.0
N710 N 0.14275 0.26295 0.05818 0.0
N711 N 0.2506 0.43017 0.99392 0.0
H712 H 0.31948 0.41009 0.05276 0.0
H713 H 0.32005 0.45194 0.02924 0.0
H714 H 0.23315 0.43977 0.97915 0.0
H715 H 0.28982 0.44722 0.99171 0.0
H716 H 0.10441 0.2373 0.05501 0.0
H717 H 0.16067 0.24854 0.06995 0.0
H718 H 0.06936 0.27985 0.0467 0.0
H719 H 0.07116 0.32051 0.02207 0.0
C720 C 0.07348 0.51508 0.33688 0.0
C721 C 0.04767 0.5429 0.33874 0.0
C722 C 0.9896 0.49116 0.30364 0.0
C723 C 0.01699 0.46505 0.30079 0.0
N724 N 0.09305 0.46159 0.30976 0.0
N725 N 0.99148 0.56744 0.31876 0.0
C726 C 0.06145 0.47986 0.31594 0.0
C727 C 0.00874 0.53393 0.32057 0.0
N728 N 0.10845 0.5212 0.35548 0.0
N729 N 0.94451 0.4743 0.29082 0.0
H730 H 0.00709 0.60075 0.32975 0.0
H731 H 0.96623 0.56532 0.30433 0.0
H732 H 0.92918 0.44318 0.27817 0.0
H733 H 0.92033 0.4886 0.29443 0.0
H734 H 0.12429 0.49786 0.35678 0.0
H735 H 0.11876 0.54713 0.37089 0.0
H736 H 0.12837 0.47468 0.31851 0.0
H737 H 0.08626 0.43701 0.29403 0.0
C738 C 0.51847 0.49961 0.30667 0.0
C739 C 0.54012 0.55265 0.3031 0.0
C740 C 0.48536 0.55457 0.33811 0.0
C741 C 0.46134 0.50105 0.34035 0.0
N742 N 0.44577 0.42168 0.32185 0.0
N743 N 0.53587 0.6286 0.31094 0.0
C744 C 0.47522 0.47323 0.32319 0.0
C745 C 0.52111 0.57961 0.31751 0.0
N746 N 0.53989 0.47456 0.2948 0.0
N747 N 0.47513 0.58167 0.35607 0.0
H748 H 0.56104 0.64781 0.29557 0.0
H749 H 0.51952 0.64851 0.319 0.0
H750 H 0.44881 0.56463 0.37126 0.0
H751 H 0.49562 0.62112 0.35716 0.0
H752 H 0.529 0.43697 0.29898 0.0
H753 H 0.57143 0.49248 0.28241 0.0
H754 H 0.45136 0.39967 0.30804 0.0
H755 H 0.41222 0.4016 0.33256 0.0
C756 C 0.52742 0.99816 0.32348 0.0
C757 C 0.49871 0.95887 0.3418 0.0
C758 C 0.42007 0.94445 0.32081 0.0
C759 C 0.44862 0.98823 0.30495 0.0
N760 N 0.52927 0.06117 0.2937 0.0
N761 N 0.41747 0.89841 0.36024 0.0
C762 C 0.5023 0.01636 0.30698 0.0
C763 C 0.4449 0.933 0.34111 0.0
N764 N 0.57846 0.01672 0.32112 0.0
N765 N 0.36962 0.91277 0.31586 0.0
H766 H 0.43428 0.88848 0.3752 0.0
H767 H 0.37838 0.88258 0.36247 0.0
H768 H 0.35028 0.91924 0.30082 0.0
H769 H 0.34808 0.87769 0.325 0.0
H770 H 0.60072 0.04209 0.30646 0.0
H771 H 0.59751 0.00248 0.33204 0.0
H772 H 0.56789 0.08595 0.29663 0.0
H773 H 0.51226 0.07574 0.28139 0.0
C774 C 0.28107 0.1935 0.36853 0.0
C775 C 0.32386 0.20767 0.38494 0.0
C776 C 0.33351 0.13868 0.3664 0.0
C777 C 0.29549 0.12935 0.34754 0.0
N778 N 0.23687 0.1517 0.32845 0.0
N779 N 0.39502 0.198 0.39738 0.0
C780 C 0.27024 0.15781 0.34799 0.0
C781 C 0.35124 0.18136 0.38333 0.0
N782 N 0.2497 0.21275 0.37316 0.0
N783 N 0.35138 0.1057 0.36874 0.0
H784 H 0.40918 0.22902 0.41008 0.0
H785 H 0.41949 0.18371 0.39481 0.0
H786 H 0.33776 0.07307 0.3573 0.0
H787 H 0.37557 0.10774 0.38376 0.0
H788 H 0.21523 0.19999 0.36354 0.0
H789 H 0.25563 0.23801 0.38842 0.0
H790 H 0.22169 0.17544 0.32609 0.0
H791 H 0.22737 0.12536 0.3133 0.0
C792 C 0.85252 0.12099 0.3542 0.0
C793 C 0.86516 0.17105 0.34693 0.0
C794 C 0.80404 0.16912 0.37939 0.0
C795 C 0.7894 0.11824 0.38547 0.0
N796 N 0.79691 0.044 0.37857 0.0
N797 N 0.84951 0.2412 0.35044 0.0
C798 C 0.81301 0.09372 0.37289 0.0
C799 C 0.83995 0.19467 0.35894 0.0
N800 N 0.8786 0.09967 0.34328 0.0
N801 N 0.7843 0.19339 0.39363 0.0
H802 H 0.87674 0.26217 0.33635 0.0
H803 H 0.82808 0.25773 0.35586 0.0
H804 H 0.75643 0.17539 0.40803 0.0
H805 H 0.79782 0.23221 0.39264 0.0
H806 H 0.87606 0.06614 0.34983 0.0
H807 H 0.90482 0.1166 0.32805 0.0
H808 H 0.80768 0.02161 0.36806 0.0
H809 H 0.77058 0.02388 0.39335 0.0
C810 C 0.91356 0.72096 0.36775 0.0
C811 C 0.88854 0.67321 0.3807 0.0
C812 C 0.81124 0.64821 0.35516 0.0
C813 C 0.83517 0.69702 0.34314 0.0
N814 N 0.90793 0.78081 0.3383 0.0
N815 N 0.81285 0.59341 0.38938 0.0
C816 C 0.88609 0.73365 0.34953 0.0
C817 C 0.8372 0.63739 0.3751 0.0
N818 N 0.96382 0.75388 0.37272 0.0
N819 N 0.76395 0.61178 0.34721 0.0
H820 H 0.83113 0.58301 0.40328 0.0
H821 H 0.77384 0.56856 0.38886 0.0
H822 H 0.74275 0.6184 0.33348 0.0
H823 H 0.7469 0.57381 0.35267 0.0
H824 H 0.98632 0.78669 0.36194 0.0
H825 H 0.98428 0.74735 0.38709 0.0
H826 H 0.94233 0.81147 0.34425 0.0
H827 H 0.89069 0.79024 0.32336 0.0
C828 C 0.65031 0.77027 0.66811 0.0
C829 C 0.67439 0.7825 0.6431 0.0
C830 C 0.72077 0.87188 0.65603 0.0
C831 C 0.70207 0.85851 0.68217 0.0
N832 N 0.66408 0.79086 0.71423 0.0
N833 N 0.74627 0.84383 0.61754 0.0
C834 C 0.67109 0.80645 0.68865 0.0
C835 C 0.71374 0.83302 0.63822 0.0
N836 N 0.60709 0.72491 0.67228 0.0
N837 N 0.74359 0.92108 0.64771 0.0
H838 H 0.74542 0.81578 0.60543 0.0
H839 H 0.77779 0.87975 0.61458 0.0
H840 H 0.74648 0.95049 0.65942 0.0
H841 H 0.7541 0.93137 0.62815 0.0
H842 H 0.58676 0.71634 0.6899 0.0
H843 H 0.58884 0.69849 0.65733 0.0
H844 H 0.64456 0.75264 0.71955 0.0
H845 H 0.68313 0.81571 0.72969 0.0
C846 C 0.18264 0.83107 0.64027 0.0
C847 C 0.20654 0.88447 0.63742 0.0
C848 C 0.15477 0.88807 0.67355 0.0
C849 C 0.12865 0.83441 0.6752 0.0
N850 N 0.10877 0.75438 0.65576 0.0
N851 N 0.20708 0.9624 0.64694 0.0
C852 C 0.13997 0.80571 0.65726 0.0
C853 C 0.19015 0.91262 0.65277 0.0
N854 N 0.20153 0.8047 0.62734 0.0
N855 N 0.14681 0.91568 0.6922 0.0
H856 H 0.2321 0.98141 0.63149 0.0
H857 H 0.19263 0.98342 0.65574 0.0
H858 H 0.12066 0.899 0.7075 0.0
H859 H 0.16892 0.95498 0.69372 0.0
H860 H 0.18905 0.76655 0.63089 0.0
H861 H 0.2326 0.82189 0.61462 0.0
H862 H 0.11235 0.73193 0.64142 0.0
H863 H 0.07591 0.73504 0.66707 0.0
C864 C 0.16658 0.34878 0.6372 0.0
C865 C 0.11274 0.32176 0.63633 0.0
C866 C 0.11008 0.26935 0.67365 0.0
C867 C 0.16385 0.29405 0.67332 0.0
N868 N 0.24294 0.34946 0.65134 0.0
N869 N 0.03343 0.24914 0.6497 0.0
C870 C 0.19204 0.33152 0.65406 0.0
C871 C 0.08447 0.27993 0.65342 0.0
N872 N 0.19338 0.39186 0.62252 0.0
N873 N 0.0835 0.23666 0.69364 0.0
H874 H 0.01347 0.25502 0.63477 0.0
H875 H 0.01173 0.21517 0.6598 0.0
H876 H 0.1009 0.22724 0.70852 0.0
H877 H 0.04474 0.22196 0.69661 0.0
H878 H 0.23232 0.41624 0.6245 0.0
H879 H 0.17612 0.40564 0.60986 0.0
H880 H 0.26469 0.37304 0.63599 0.0
H881 H 0.26253 0.33677 0.66295 0.0
C882 C 0.93684 0.49327 0.68129 0.0
C883 C 0.96283 0.46551 0.68069 0.0
C884 C 0.01751 0.51722 0.71694 0.0
C885 C 0.98918 0.54255 0.71877 0.0
N886 N 0.91509 0.54729 0.70654 0.0
N887 N 0.02044 0.44351 0.70136 0.0
C888 C 0.94684 0.52845 0.70203 0.0
C889 C 0.00106 0.47531 0.69952 0.0
N890 N 0.90344 0.48689 0.6617 0.0
N891 N 0.06103 0.53416 0.73126 0.0
H892 H 0.00838 0.41182 0.68934 0.0
H893 H 0.04466 0.44559 0.71636 0.0
H894 H 0.07416 0.56451 0.74435 0.0
H895 H 0.08632 0.52088 0.7286 0.0
H896 H 0.88764 0.51009 0.65941 0.0
H897 H 0.89454 0.46088 0.64643 0.0
H898 H 0.88078 0.5345 0.69673 0.0
H899 H 0.92061 0.57241 0.72181 0.0
C900 C 0.47227 0.41614 0.69876 0.0
C901 C 0.45937 0.44545 0.71542 0.0
C902 C 0.53122 0.52317 0.69766 0.0
C903 C 0.53936 0.49419 0.67843 0.0
N904 N 0.51223 0.41295 0.65811 0.0
N905 N 0.47217 0.52733 0.72818 0.0
C906 C 0.50844 0.44056 0.67828 0.0
C907 C 0.48762 0.49916 0.71415 0.0
N908 N 0.45139 0.36523 0.70305 0.0
N909 N 0.56643 0.57318 0.70104 0.0
H910 H 0.44039 0.51117 0.74047 0.0
H911 H 0.48821 0.56638 0.72584 0.0
H912 H 0.60024 0.59089 0.69041 0.0
H913 H 0.56489 0.59525 0.71628 0.0
H914 H 0.46327 0.34298 0.69319 0.0
H915 H 0.42578 0.34613 0.71826 0.0
H916 H 0.48682 0.37438 0.65554 0.0
H917 H 0.53792 0.42934 0.64262 0.0
C918 C 0.57976 0.06026 0.70327 0.0
C919 C 0.55295 0.01334 0.7169 0.0
C920 C 0.47337 0.99946 0.6976 0.0
C921 C 0.50103 0.04214 0.68102 0.0
N922 N 0.58166 0.11014 0.66569 0.0
N923 N 0.47506 0.93436 0.72411 0.0
C924 C 0.55461 0.07183 0.6832 0.0
C925 C 0.49994 0.98173 0.71319 0.0
N926 N 0.62862 0.09452 0.71011 0.0
N927 N 0.4218 0.97727 0.69935 0.0
H928 H 0.49324 0.9199 0.73563 0.0
H929 H 0.43745 0.90783 0.71979 0.0
H930 H 0.4017 0.99165 0.68954 0.0
H931 H 0.39995 0.94874 0.71282 0.0
H932 H 0.64822 0.13135 0.7027 0.0
H933 H 0.64807 0.08772 0.72496 0.0
H934 H 0.62116 0.12937 0.66457 0.0
H935 H 0.56457 0.12 0.65085 0.0
C936 C 0.49776 0.48369 0.11719 0.0
C937 C 0.46055 0.45047 0.1357 0.0
C938 C 0.49566 0.51948 0.16747 0.0
C939 C 0.54058 0.54634 0.15255 0.0
N940 N 0.58115 0.55761 0.11024 0.0
N941 N 0.43585 0.43566 0.18187 0.0
C942 C 0.54095 0.5293 0.12648 0.0
C943 C 0.4629 0.46795 0.16187 0.0
N944 N 0.49053 0.474 0.09083 0.0
N945 N 0.48223 0.54319 0.18582 0.0
H946 H 0.41611 0.39631 0.17975 0.0
H947 H 0.43922 0.4481 0.20129 0.0
H948 H 0.50122 0.5826 0.18759 0.0
H949 H 0.44801 0.52415 0.19618 0.0
H950 H 0.51436 0.49919 0.07652 0.0
H951 H 0.45777 0.44376 0.08297 0.0
H952 H 0.58695 0.54392 0.09256 0.0
H953 H 0.60869 0.59487 0.11462 0.0
C954 C 0.50612 0.98607 0.12378 0.0
C955 C 0.55424 0.01875 0.13516 0.0
C956 C 0.51582 0.0516 0.16618 0.0
C957 C 0.46753 0.01862 0.15494 0.0
N958 N 0.41674 0.96094 0.12069 0.0
N959 N 0.60728 0.08773 0.16415 0.0
C960 C 0.46274 0.98796 0.13289 0.0
C961 C 0.55975 0.05313 0.15546 0.0
N962 N 0.50186 0.9521 0.10493 0.0
N963 N 0.5194 0.08087 0.18742 0.0
H964 H 0.6401 0.08872 0.15735 0.0
H965 H 0.615 0.11755 0.17682 0.0
H966 H 0.48885 0.08383 0.19461 0.0
H967 H 0.55193 0.10074 0.19878 0.0
H968 H 0.46741 0.92335 0.09771 0.0
H969 H 0.53318 0.95101 0.09731 0.0
H970 H 0.41129 0.94154 0.10306 0.0
H971 H 0.38411 0.96058 0.12737 0.0
C972 C 0.00131 0.47534 0.13868 0.0
C973 C 0.9674 0.45046 0.1599 0.0
C974 C 0.93909 0.51296 0.15867 0.0
C975 C 0.9757 0.54 0.13884 0.0
N976 N 0.04487 0.55081 0.1113 0.0
N977 N 0.90883 0.44862 0.19266 0.0
C978 C 0.00767 0.52219 0.12912 0.0
C979 C 0.93726 0.46984 0.17047 0.0
N980 N 0.0262 0.45331 0.12723 0.0
N981 N 0.90569 0.52839 0.16607 0.0
H982 H 0.90622 0.41699 0.20206 0.0
H983 H 0.89106 0.4647 0.20321 0.0
H984 H 0.90761 0.56138 0.15894 0.0
H985 H 0.87398 0.50695 0.17786 0.0
H986 H 0.04755 0.46659 0.11005 0.0
H987 H 0.02257 0.41925 0.13391 0.0
H988 H 0.07311 0.54307 0.10549 0.0
H989 H 0.04936 0.58442 0.10338 0.0
C990 C 0.45207 0.5198 0.867 0.0
C991 C 0.4584 0.48114 0.8551 0.0
C992 C 0.54071 0.51574 0.87735 0.0
C993 C 0.53908 0.56025 0.88354 0.0
N994 N 0.49415 0.60708 0.88112 0.0
N995 N 0.51224 0.4441 0.8483 0.0
C996 C 0.49478 0.56284 0.87789 0.0
C997 C 0.50328 0.47891 0.8604 0.0
N998 N 0.40499 0.51497 0.86838 0.0
N999 N 0.57787 0.50849 0.8879 0.0
H1000 H 0.48652 0.41538 0.83615 0.0
H1001 H 0.54734 0.4459 0.84893 0.0
H1002 H 0.60516 0.53438 0.90084 0.0
H1003 H 0.57819 0.47456 0.88615 0.0
H1004 H 0.39778 0.54022 0.87878 0.0
H1005 H 0.37229 0.48251 0.86197 0.0
H1006 H 0.46442 0.61185 0.87445 0.0
H1007 H 0.52494 0.64046 0.88809 0.0
C1008 C 0.48488 0.94285 0.86423 0.0
C1009 C 0.53322 0.98581 0.86933 0.0
C1010 C 0.49369 0.02504 0.89495 0.0
C1011 C 0.44535 0.98212 0.88979 0.0
N1012 N 0.39468 0.89628 0.87414 0.0
N1013 N 0.58555 0.06311 0.89309 0.0
C1014 C 0.44094 0.93963 0.876 0.0
C1015 C 0.53822 0.02546 0.8859 0.0
N1016 N 0.48091 0.90603 0.84734 0.0
N1017 N 0.49671 0.0658 0.90794 0.0
H1018 H 0.61874 0.06466 0.88639 0.0
H1019 H 0.59214 0.09071 0.90705 0.0
H1020 H 0.46506 0.0655 0.91611 0.0
H1021 H 0.52997 0.10063 0.90972 0.0
H1022 H 0.44659 0.87706 0.84011 0.0
H1023 H 0.51234 0.9059 0.83918 0.0
H1024 H 0.38955 0.86219 0.86671 0.0
H1025 H 0.36143 0.89299 0.88192 0.0
C1026 C 0.97307 0.49528 0.86307 0.0
C1027 C 0.01993 0.54092 0.85846 0.0
C1028 C 0.06577 0.5049 0.88109 0.0
C1029 C 0.01912 0.4594 0.88566 0.0
N1030 N 0.92818 0.41903 0.88949 0.0
N1031 N 0.10621 0.59509 0.87293 0.0
C1032 C 0.97269 0.45725 0.87944 0.0
C1033 C 0.06477 0.54763 0.87072 0.0
N1034 N 0.92938 0.48626 0.85086 0.0
N1035 N 0.11118 0.50689 0.88489 0.0
H1036 H 0.1058 0.62761 0.86684 0.0
H1037 H 0.1384 0.60257 0.88365 0.0
H1038 H 0.11452 0.47664 0.89194 0.0
H1039 H 0.1457 0.53756 0.87883 0.0
H1040 H 0.89647 0.45079 0.85089 0.0
H1041 H 0.92615 0.51251 0.83927 0.0
H1042 H 0.8936 0.41809 0.88769 0.0
H1043 H 0.92692 0.39144 0.90215 0.0
C1044 C 0.18981 0.8653 0.47506 0.0
C1045 C 0.21966 0.8555 0.49292 0.0
C1046 C 0.16572 0.76405 0.48574 0.0
C1047 C 0.13304 0.77361 0.46995 0.0
N1048 N 0.11046 0.83216 0.45109 0.0
N1049 N 0.2309 0.79579 0.51921 0.0
C1050 C 0.14408 0.82398 0.46503 0.0
C1051 C 0.20651 0.80493 0.4992 0.0
N1052 N 0.20607 0.91395 0.4671 0.0
N1053 N 0.15766 0.7158 0.48801 0.0
H1054 H 0.26008 0.82449 0.53017 0.0
H1055 H 0.21909 0.75976 0.52673 0.0
H1056 H 0.12713 0.68437 0.47929 0.0
H1057 H 0.18348 0.70737 0.49677 0.0
H1058 H 0.18891 0.92329 0.45212 0.0
H1059 H 0.23938 0.94501 0.47407 0.0
H1060 H 0.11315 0.86749 0.44938 0.0
H1061 H 0.07794 0.80285 0.44237 0.0
C1062 C 0.18381 0.39865 0.48623 0.0
C1063 C 0.14439 0.35339 0.49767 0.0
C1064 C 0.18021 0.30627 0.47596 0.0
C1065 C 0.22531 0.35254 0.4705 0.0
N1066 N 0.27204 0.44427 0.47343 0.0
N1067 N 0.10689 0.26234 0.50404 0.0
C1068 C 0.22757 0.39929 0.47605 0.0
C1069 C 0.1424 0.30643 0.49238 0.0
N1070 N 0.17908 0.44087 0.48465 0.0
N1071 N 0.17338 0.26212 0.46525 0.0
H1072 H 0.07752 0.259 0.51583 0.0
H1073 H 0.10872 0.2291 0.50342 0.0
H1074 H 0.19997 0.26107 0.45264 0.0
H1075 H 0.13923 0.22786 0.46648 0.0
H1076 H 0.20499 0.47355 0.47458 0.0
H1077 H 0.14619 0.44085 0.49054 0.0
H1078 H 0.2764 0.47862 0.48006 0.0
H1079 H 0.30585 0.44706 0.46699 0.0
C1080 C 0.67966 0.85463 0.45815 0.0
C1081 C 0.64832 0.87083 0.47043 0.0
C1082 C 0.61321 0.79713 0.49971 0.0
C1083 C 0.64943 0.78479 0.49 0.0
N1084 N 0.71952 0.80282 0.46117 0.0
N1085 N 0.58884 0.8611 0.50458 0.0
C1086 C 0.683 0.81345 0.46929 0.0
C1087 C 0.61597 0.843 0.49165 0.0
N1088 N 0.70607 0.87862 0.43589 0.0
N1089 N 0.57492 0.76395 0.51588 0.0
H1090 H 0.58865 0.89387 0.49886 0.0
H1091 H 0.56947 0.84576 0.52215 0.0
H1092 H 0.57077 0.72918 0.52164 0.0
H1093 H 0.54444 0.76839 0.52148 0.0
H1094 H 0.72569 0.86569 0.42446 0.0
H1095 H 0.70521 0.90959 0.42769 0.0
H1096 H 0.74867 0.82559 0.44821 0.0
H1097 H 0.72279 0.77278 0.46878 0.0
C1098 C 0.12784 0.86414 0.19102 0.0
C1099 C 0.11477 0.81352 0.19716 0.0
C1100 C 0.19295 0.84508 0.22302 0.0
C1101 C 0.20397 0.89551 0.21831 0.0
N1102 N 0.17788 0.95332 0.20189 0.0
N1103 N 0.13007 0.75527 0.22214 0.0
C1104 C 0.16992 0.90506 0.20374 0.0
C1105 C 0.14605 0.80379 0.21404 0.0
N1106 N 0.10221 0.87337 0.17171 0.0
N1107 N 0.22762 0.83675 0.23578 0.0
H1108 H 0.09582 0.72428 0.21605 0.0
H1109 H 0.14849 0.74609 0.23649 0.0
H1110 H 0.26108 0.866 0.24379 0.0
H1111 H 0.22473 0.80129 0.23716 0.0
H1112 H 0.11382 0.90941 0.16426 0.0
H1113 H 0.07223 0.84477 0.16113 0.0
H1114 H 0.15129 0.9617 0.19411 0.0
H1115 H 0.2092 0.98477 0.2101 0.0
C1116 C 0.1033 0.26503 0.21244 0.0
C1117 C 0.1049 0.31196 0.2164 0.0
C1118 C 0.18568 0.35635 0.19249 0.0
C1119 C 0.18424 0.30924 0.1886 0.0
N1120 N 0.15258 0.22398 0.20466 0.0
N1121 N 0.15611 0.40293 0.21873 0.0
C1122 C 0.14653 0.26525 0.20177 0.0
C1123 C 0.149 0.35784 0.20923 0.0
N1124 N 0.05992 0.22001 0.2172 0.0
N1125 N 0.21955 0.39921 0.17928 0.0
H1126 H 0.13053 0.40505 0.23166 0.0
H1127 H 0.18983 0.43724 0.21622 0.0
H1128 H 0.24828 0.40184 0.16722 0.0
H1129 H 0.21687 0.432 0.17893 0.0
H1130 H 0.05562 0.18513 0.21163 0.0
H1131 H 0.02672 0.21728 0.22457 0.0
H1132 H 0.12819 0.19256 0.21602 0.0
H1133 H 0.18532 0.22396 0.19852 0.0
C1134 C 0.64154 0.80495 0.22229 0.0
C1135 C 0.68668 0.80198 0.2215 0.0
C1136 C 0.73131 0.88397 0.19877 0.0
C1137 C 0.68682 0.88791 0.20043 0.0
N1138 N 0.60242 0.85721 0.21733 0.0
N1139 N 0.77723 0.84302 0.21392 0.0
C1140 C 0.64266 0.84978 0.21323 0.0
C1141 C 0.7325 0.84307 0.2115 0.0
N1142 N 0.59752 0.76467 0.23152 0.0
N1143 N 0.77133 0.91743 0.18353 0.0
H1144 H 0.7799 0.81317 0.22214 0.0
H1145 H 0.81254 0.8745 0.20981 0.0
H1146 H 0.77193 0.94746 0.17339 0.0
H1147 H 0.80214 0.91285 0.1789 0.0
H1148 H 0.56201 0.76155 0.22963 0.0
H1149 H 0.59611 0.73295 0.2402 0.0
H1150 H 0.57097 0.83343 0.22879 0.0
H1151 H 0.60218 0.88963 0.21092 0.0
C1152 C 0.80521 0.15384 0.80107 0.0
C1153 C 0.79218 0.10328 0.8071 0.0
C1154 C 0.86568 0.13398 0.83623 0.0
C1155 C 0.88112 0.18456 0.82864 0.0
N1156 N 0.87024 0.24292 0.80117 0.0
N1157 N 0.81347 0.04432 0.8269 0.0
C1158 C 0.85209 0.19465 0.81034 0.0
C1159 C 0.82368 0.09311 0.82348 0.0
N1160 N 0.77245 0.16276 0.78677 0.0
N1161 N 0.88912 0.12496 0.85677 0.0
H1162 H 0.78199 0.01298 0.81871 0.0
H1163 H 0.83834 0.03512 0.83611 0.0
H1164 H 0.91907 0.15369 0.86731 0.0
H1165 H 0.87574 0.08928 0.86515 0.0
H1166 H 0.77683 0.19865 0.78421 0.0
H1167 H 0.73891 0.13368 0.77872 0.0
H1168 H 0.85358 0.25204 0.78585 0.0
H1169 H 0.90452 0.27359 0.80748 0.0
C1170 C 0.8638 0.73939 0.83299 0.0
C1171 C 0.81308 0.70213 0.8267 0.0
C1172 C 0.84441 0.65671 0.79964 0.0
C1173 C 0.89495 0.6957 0.80468 0.0
N1174 N 0.95318 0.77858 0.82213 0.0
N1175 N 0.75461 0.62993 0.80091 0.0
C1176 C 0.90471 0.73862 0.81994 0.0
C1177 C 0.8032 0.66199 0.80913 0.0
N1178 N 0.87306 0.77353 0.85272 0.0
N1179 N 0.83593 0.61432 0.78617 0.0
H1180 H 0.72366 0.63292 0.80741 0.0
H1181 H 0.74535 0.60306 0.78613 0.0
H1182 H 0.86518 0.61046 0.77782 0.0
H1183 H 0.80035 0.5819 0.78448 0.0
H1184 H 0.90911 0.79765 0.86026 0.0
H1185 H 0.84441 0.77461 0.86347 0.0
H1186 H 0.96188 0.81322 0.8305 0.0
H1187 H 0.98455 0.77886 0.81364 0.0
C1188 C 0.26496 0.15831 0.80695 0.0
C1189 C 0.31141 0.20336 0.80146 0.0
C1190 C 0.35844 0.16948 0.82479 0.0
C1191 C 0.3118 0.12432 0.83049 0.0
N1192 N 0.22473 0.06899 0.81753 0.0
N1193 N 0.40212 0.24339 0.79665 0.0
C1194 C 0.26635 0.11655 0.81845 0.0
C1195 C 0.35808 0.20596 0.80753 0.0
N1196 N 0.21948 0.156 0.80289 0.0
N1197 N 0.40261 0.1797 0.8369 0.0
H1198 H 0.40273 0.26995 0.78345 0.0
H1199 H 0.43681 0.24453 0.79838 0.0
H1200 H 0.40617 0.1548 0.84942 0.0
H1201 H 0.43557 0.21506 0.83591 0.0
H1202 H 0.18511 0.12605 0.80963 0.0
H1203 H 0.21605 0.18543 0.79468 0.0
H1204 H 0.192 0.06054 0.80706 0.0
H1205 H 0.22533 0.03707 0.8245 0.0
C1206 C 0.82925 0.2344 0.53882 0.0
C1207 C 0.86456 0.22646 0.55319 0.0
C1208 C 0.81069 0.13437 0.54756 0.0
C1209 C 0.77861 0.14283 0.53066 0.0
N1210 N 0.76192 0.20122 0.50649 0.0
N1211 N 0.89161 0.17002 0.57023 0.0
C1212 C 0.78876 0.19291 0.52548 0.0
C1213 C 0.85598 0.17668 0.55733 0.0
N1214 N 0.83467 0.28173 0.53766 0.0
N1215 N 0.79703 0.08596 0.55485 0.0
H1216 H 0.92366 0.19988 0.57899 0.0
H1217 H 0.89084 0.1355 0.57116 0.0
H1218 H 0.76411 0.05422 0.54804 0.0
H1219 H 0.81594 0.07733 0.56917 0.0
H1220 H 0.80714 0.2888 0.52994 0.0
H1221 H 0.8647 0.3135 0.54645 0.0
H1222 H 0.77144 0.23715 0.49968 0.0
H1223 H 0.73295 0.17219 0.49559 0.0
C1224 C 0.8234 0.68824 0.55041 0.0
C1225 C 0.77296 0.64866 0.54578 0.0
C1226 C 0.80429 0.6065 0.51644 0.0
C1227 C 0.85494 0.64318 0.52315 0.0
N1228 N 0.91335 0.71573 0.54878 0.0
N1229 N 0.71492 0.56659 0.5273 0.0
C1230 C 0.86476 0.68344 0.54065 0.0
C1231 C 0.7633 0.60665 0.52973 0.0
N1232 N 0.83166 0.73046 0.56397 0.0
N1233 N 0.79521 0.57316 0.49632 0.0
H1234 H 0.68336 0.56584 0.53583 0.0
H1235 H 0.70643 0.53236 0.51849 0.0
H1236 H 0.82401 0.57255 0.48547 0.0
H1237 H 0.75926 0.54947 0.48855 0.0
H1238 H 0.86711 0.76307 0.56557 0.0
H1239 H 0.80229 0.73422 0.57224 0.0
H1240 H 0.92254 0.74253 0.56359 0.0
H1241 H 0.94445 0.7132 0.54212 0.0
C1242 C 0.39177 0.15245 0.52712 0.0
C1243 C 0.35844 0.12898 0.54871 0.0
C1244 C 0.3366 0.19634 0.54913 0.0
C1245 C 0.36695 0.21757 0.5263 0.0
N1246 N 0.41947 0.21381 0.49168 0.0
N1247 N 0.29588 0.12475 0.57923 0.0
C1248 C 0.39386 0.19535 0.51491 0.0
C1249 C 0.33007 0.14999 0.55954 0.0
N1250 N 0.42188 0.13383 0.51845 0.0
N1251 N 0.3153 0.22137 0.5612 0.0
H1252 H 0.2914 0.09155 0.58773 0.0
H1253 H 0.26992 0.13479 0.58617 0.0
H1254 H 0.31913 0.25514 0.55392 0.0
H1255 H 0.29694 0.21091 0.57933 0.0
H1256 H 0.45169 0.15268 0.50519 0.0
H1257 H 0.41927 0.1007 0.52582 0.0
H1258 H 0.43441 0.1956 0.4806 0.0
H1259 H 0.42267 0.24558 0.48214 0.0
C1260 C 0.36956 0.18524 0.2011 0.0
C1261 C 0.34254 0.13313 0.19415 0.0
C1262 C 0.30866 0.15288 0.15472 0.0
C1263 C 0.33569 0.20498 0.16166 0.0
N1264 N 0.3978 0.27253 0.18879 0.0
N1265 N 0.28024 0.06563 0.16699 0.0
C1266 C 0.36737 0.22162 0.18431 0.0
C1267 C 0.31082 0.11651 0.1715 0.0
N1268 N 0.39688 0.19975 0.22397 0.0
N1269 N 0.2814 0.13833 0.13183 0.0
H1270 H 0.28025 0.03765 0.17878 0.0
H1271 H 0.25199 0.05045 0.15274 0.0
H1272 H 0.27581 0.16317 0.12009 0.0
H1273 H 0.2663 0.10237 0.1236 0.0
H1274 H 0.41229 0.23578 0.23214 0.0
H1275 H 0.40227 0.1748 0.23572 0.0
H1276 H 0.42566 0.28782 0.20323 0.0
H1277 H 0.39801 0.30038 0.17678 0.0
C1278 C 0.83609 0.12477 0.17035 0.0
C1279 C 0.79428 0.12807 0.16034 0.0
C1280 C 0.82067 0.20562 0.18626 0.0
C1281 C 0.86447 0.20442 0.19456 0.0
N1282 N 0.91905 0.16833 0.19086 0.0
N1283 N 0.74978 0.17496 0.15613 0.0
C1284 C 0.87345 0.16527 0.18578 0.0
C1285 C 0.78761 0.16963 0.16742 0.0
N1286 N 0.84034 0.08305 0.16498 0.0
N1287 N 0.80959 0.23996 0.19725 0.0
H1288 H 0.72303 0.14853 0.14328 0.0
H1289 H 0.74686 0.20744 0.15801 0.0
H1290 H 0.83274 0.26652 0.21126 0.0
H1291 H 0.77546 0.23941 0.19436 0.0
H1292 H 0.86588 0.07518 0.17452 0.0
H1293 H 0.81641 0.05457 0.15199 0.0
H1294 H 0.9303 0.14431 0.18249 0.0
H1295 H 0.94784 0.19771 0.20165 0.0
C1296 C 0.87173 0.71818 0.16796 0.0
C1297 C 0.86913 0.67287 0.15885 0.0
C1298 C 0.79043 0.6222 0.18417 0.0
C1299 C 0.79142 0.66735 0.1919 0.0
N1300 N 0.82699 0.75768 0.18708 0.0
N1301 N 0.82157 0.58137 0.15474 0.0
C1302 C 0.83057 0.71525 0.18279 0.0
C1303 C 0.82699 0.62476 0.16577 0.0
N1304 N 0.91342 0.76414 0.16234 0.0
N1305 N 0.75588 0.57701 0.19536 0.0
H1306 H 0.848 0.58074 0.14197 0.0
H1307 H 0.78881 0.54609 0.1566 0.0
H1308 H 0.72873 0.57374 0.20901 0.0
H1309 H 0.75681 0.54353 0.19299 0.0
H1310 H 0.92073 0.79791 0.17127 0.0
H1311 H 0.94234 0.76837 0.14969 0.0
H1312 H 0.8512 0.7928 0.17857 0.0
H1313 H 0.79689 0.75691 0.1973 0.0
C1314 C 0.63032 0.78102 0.8414 0.0
C1315 C 0.66387 0.7986 0.86326 0.0
C1316 C 0.68421 0.88591 0.85434 0.0
C1317 C 0.65368 0.86877 0.83125 0.0
N1318 N 0.60179 0.80148 0.8011 0.0
N1319 N 0.7266 0.86716 0.88941 0.0
C1320 C 0.62805 0.81673 0.82425 0.0
C1321 C 0.69158 0.85087 0.86957 0.0
N1322 N 0.59892 0.73003 0.83774 0.0
N1323 N 0.7065 0.93579 0.86161 0.0
H1324 H 0.73254 0.84243 0.90106 0.0
H1325 H 0.75233 0.90512 0.89328 0.0
H1326 H 0.70566 0.96366 0.85011 0.0
H1327 H 0.72376 0.94949 0.87975 0.0
H1328 H 0.56973 0.71472 0.82398 0.0
H1329 H 0.59904 0.70259 0.84997 0.0
H1330 H 0.58778 0.76538 0.79318 0.0
H1331 H 0.59643 0.8259 0.78887 0.0
C1332 C 0.11538 0.8103 0.85223 0.0
C1333 C 0.13181 0.79442 0.82973 0.0
C1334 C 0.22069 0.85483 0.84074 0.0
C1335 C 0.20415 0.87283 0.86225 0.0
N1336 N 0.13655 0.87274 0.88693 0.0
N1337 N 0.1991 0.80473 0.80073 0.0
C1338 C 0.15167 0.85167 0.8677 0.0
C1339 C 0.18421 0.81781 0.8234 0.0
N1340 N 0.06493 0.78596 0.85875 0.0
N1341 N 0.27134 0.87144 0.83764 0.0
H1342 H 0.17396 0.77545 0.78847 0.0
H1343 H 0.23583 0.8247 0.79318 0.0
H1344 H 0.29928 0.89836 0.84991 0.0
H1345 H 0.28566 0.85582 0.8243 0.0
H1346 H 0.05106 0.79102 0.87653 0.0
H1347 H 0.03653 0.75849 0.84692 0.0
H1348 H 0.09901 0.8632 0.89014 0.0
H1349 H 0.16209 0.9028 0.89869 0.0
C1350 C 0.16373 0.37697 0.84915 0.0
C1351 C 0.12847 0.32918 0.86031 0.0
C1352 C 0.16966 0.28875 0.83699 0.0
C1353 C 0.20485 0.33652 0.82576 0.0
N1354 N 0.24007 0.42693 0.82305 0.0
N1355 N 0.09327 0.23875 0.86301 0.0
C1356 C 0.2032 0.3809 0.83241 0.0
C1357 C 0.13015 0.28481 0.85368 0.0
N1358 N 0.15747 0.41792 0.85332 0.0
N1359 N 0.17604 0.24784 0.83294 0.0
H1360 H 0.06565 0.23479 0.87652 0.0
H1361 H 0.08805 0.2041 0.85647 0.0
H1362 H 0.20463 0.24913 0.82105 0.0
H1363 H 0.15558 0.21335 0.84271 0.0
H1364 H 0.17804 0.45251 0.84365 0.0
H1365 H 0.12894 0.41657 0.86527 0.0
H1366 H 0.24525 0.46161 0.82952 0.0
H1367 H 0.2677 0.43084 0.80956 0.0
C1368 C 0.96999 0.48448 0.48684 0.0
C1369 C 0.99801 0.53668 0.49347 0.0
C1370 C 0.0334 0.51677 0.53221 0.0
C1371 C 0.00282 0.46441 0.52648 0.0
N1372 N 0.93592 0.39736 0.50108 0.0
N1373 N 0.0536 0.60317 0.52334 0.0
C1374 C 0.96964 0.44795 0.50444 0.0
C1375 C 0.02873 0.55298 0.51651 0.0
N1376 N 0.94375 0.4698 0.46367 0.0
N1377 N 0.06854 0.53189 0.55194 0.0
H1378 H 0.05463 0.63158 0.51148 0.0
H1379 H 0.07121 0.61672 0.54143 0.0
H1380 H 0.07283 0.50638 0.56383 0.0
H1381 H 0.09604 0.56946 0.55542 0.0
H1382 H 0.92795 0.43328 0.45604 0.0
H1383 H 0.94027 0.49494 0.45111 0.0
H1384 H 0.90679 0.38316 0.48727 0.0
H1385 H 0.93415 0.36933 0.51354 0.0
C1386 C 0.55228 0.52882 0.50319 0.0
C1387 C 0.5357 0.53998 0.52721 0.0
C1388 C 0.4477 0.47626 0.51699 0.0
C1389 C 0.46474 0.46235 0.49408 0.0
N1390 N 0.53317 0.47 0.46694 0.0
N1391 N 0.46922 0.52072 0.55877 0.0
C1392 C 0.51702 0.48736 0.4875 0.0
C1393 C 0.48388 0.5124 0.53471 0.0
N1394 N 0.60176 0.55791 0.49534 0.0
N1395 N 0.39679 0.45682 0.52112 0.0
H1396 H 0.49411 0.54882 0.57165 0.0
H1397 H 0.43324 0.49765 0.56674 0.0
H1398 H 0.369 0.4311 0.50835 0.0
H1399 H 0.38202 0.46947 0.53585 0.0
H1400 H 0.61478 0.5559 0.47668 0.0
H1401 H 0.62971 0.58646 0.50691 0.0
H1402 H 0.5712 0.48268 0.46282 0.0
H1403 H 0.50838 0.43978 0.45504 0.0
C1404 C 0.49592 0.95197 0.50249 0.0
C1405 C 0.53707 0.99999 0.49474 0.0
C1406 C 0.50446 0.04326 0.52272 0.0
C1407 C 0.46262 0.99519 0.53 0.0
N1408 N 0.41581 0.90416 0.5258 0.0
N1409 N 0.58335 0.09109 0.49823 0.0
C1410 C 0.45763 0.94968 0.51955 0.0
C1411 C 0.54208 0.04556 0.50511 0.0
N1412 N 0.49523 0.90849 0.49489 0.0
N1413 N 0.50656 0.08683 0.53141 0.0
H1414 H 0.60892 0.09472 0.48352 0.0
H1415 H 0.59377 0.12536 0.50748 0.0
H1416 H 0.48114 0.08735 0.54495 0.0
H1417 H 0.53197 0.12298 0.52449 0.0
H1418 H 0.47023 0.87266 0.50237 0.0
H1419 H 0.52203 0.90811 0.48226 0.0
H1420 H 0.40565 0.8703 0.51612 0.0
H1421 H 0.38954 0.90032 0.54014 0.0
loop_
_geom_bond_atom_site_label_1
_geom_bond_atom_site_label_2
_geom_bond_distance
_geom_bond_site_symmetry_2
_ccdc_geom_bond_type
Co0 O3 1.970 . S
Co0 N17 1.989 . S
Co0 O25 1.967 . S
Co0 O32 1.920 . S
Co1 O4 1.966 . S
Co1 N10 2.022 . S
Co1 N18 1.993 . S
Co1 O26 1.941 . S
C2 O3 1.258 . S
C2 O4 1.263 . S
O3 Co0 1.970 . S
O3 C2 1.258 . S
O4 Co1 1.966 . S
O4 C2 1.263 . S
C5 O6 1.235 . S
C5 O32 1.289 . S
O6 C5 1.235 . S
C7 C9 1.400 . S
C7 N10 1.351 . S
C7 C12 1.501 . S
C8 C9 1.387 . S
C8 N11 1.341 . S
C9 C7 1.400 . S
C9 C8 1.387 . S
N10 Co1 2.022 . S
N10 C7 1.351 . S
N10 N11 1.365 . S
N11 C8 1.341 . S
N11 N10 1.365 . S
N11 H31 0.862 . S
C12 C7 1.501 . S
C12 H13 0.961 . S
C12 H14 0.961 . S
C12 H15 0.960 . S
H13 C12 0.961 . S
H14 C12 0.961 . S
H15 C12 0.960 . S
C16 N17 1.342 . S
C16 C20 1.401 . S
C16 C21 1.499 . S
N17 Co0 1.989 . S
N17 C16 1.342 . S
N17 N18 1.388 . S
N18 Co1 1.993 . S
N18 N17 1.388 . S
N18 C19 1.346 . S
C19 N18 1.346 . S
C19 C20 1.396 . S
C19 C29 1.510 . S
C20 C16 1.401 . S
C20 C19 1.396 . S
C21 C16 1.499 . S
C21 H22 0.959 . S
C21 H23 0.960 . S
C21 H24 0.961 . S
H22 C21 0.959 . S
H23 C21 0.960 . S
H24 C21 0.961 . S
O25 Co0 1.967 . S
O25 C33 1.258 . S
O26 Co1 1.941 . S
O26 C33 1.266 . S
H27 C29 0.959 . S
H28 C29 0.961 . S
C29 C19 1.510 . S
C29 H27 0.959 . S
C29 H28 0.961 . S
C29 H30 0.960 . S
H30 C29 0.960 . S
H31 N11 0.862 . S
O32 Co0 1.920 . S
O32 C5 1.289 . S
C33 O25 1.258 . S
C33 O26 1.266 . S
Co34 O37 1.970 1_565 S
Co34 N51 1.989 . S
Co34 O59 1.967 . S
Co34 O66 1.920 . S
Co35 O38 1.966 . S
Co35 N44 2.022 . S
Co35 N52 1.993 1_545 S
Co35 O60 1.941 . S
C36 O37 1.258 . S
C36 O38 1.263 . S
O37 Co34 1.970 1_545 S
O37 C36 1.258 . S
O38 Co35 1.966 . S
O38 C36 1.263 . S
C39 O40 1.235 . S
C39 O66 1.289 . S
O40 C39 1.235 . S
C41 C43 1.400 . S
C41 N44 1.351 . S
C41 C46 1.501 . S
C42 C43 1.387 . S
C42 N45 1.341 . S
C43 C41 1.400 . S
C43 C42 1.387 . S
N44 Co35 2.022 . S
N44 C41 1.351 . S
N44 N45 1.365 . S
N45 C42 1.341 . S
N45 N44 1.365 . S
N45 H65 0.862 . S
C46 C41 1.501 . S
C46 H47 0.961 . S
C46 H48 0.961 . S
C46 H49 0.960 . S
H47 C46 0.961 . S
H48 C46 0.961 . S
H49 C46 0.960 . S
C50 N51 1.342 . S
C50 C54 1.401 . S
C50 C55 1.499 . S
N51 Co34 1.989 . S
N51 C50 1.342 . S
N51 N52 1.388 . S
N52 Co35 1.993 1_565 S
N52 N51 1.388 . S
N52 C53 1.346 . S
C53 N52 1.346 . S
C53 C54 1.396 . S
C53 C63 1.510 . S
C54 C50 1.401 . S
C54 C53 1.396 . S
C55 C50 1.499 . S
C55 H56 0.959 . S
C55 H57 0.960 . S
C55 H58 0.961 . S
H56 C55 0.959 . S
H57 C55 0.960 . S
H58 C55 0.961 . S
O59 Co34 1.967 . S
O59 C67 1.258 1_565 S
O60 Co35 1.941 . S
O60 C67 1.266 . S
H61 C63 0.959 . S
H62 C63 0.961 . S
C63 C53 1.510 . S
C63 H61 0.959 . S
C63 H62 0.961 . S
C63 H64 0.960 1_565 S
H64 C63 0.960 1_545 S
H65 N45 0.862 . S
O66 Co34 1.920 . S
O66 C39 1.289 . S
C67 O59 1.258 1_545 S
C67 O60 1.266 . S
Co68 O71 1.970 1_455 S
Co68 N85 1.989 . S
Co68 O93 1.967 . S
Co68 O100 1.920 . S
Co69 O72 1.966 . S
Co69 N78 2.022 . S
Co69 N86 1.993 1_655 S
Co69 O94 1.941 . S
C70 O71 1.258 . S
C70 O72 1.263 . S
O71 Co68 1.970 1_655 S
O71 C70 1.258 . S
O72 Co69 1.966 . S
O72 C70 1.263 . S
C73 O74 1.235 . S
C73 O100 1.289 . S
O74 C73 1.235 . S
C75 C77 1.400 . S
C75 N78 1.351 . S
C75 C80 1.501 . S
C76 C77 1.387 . S
C76 N79 1.341 . S
C77 C75 1.400 . S
C77 C76 1.387 . S
N78 Co69 2.022 . S
N78 C75 1.351 . S
N78 N79 1.365 . S
N79 C76 1.341 . S
N79 N78 1.365 . S
N79 H99 0.862 . S
C80 C75 1.501 . S
C80 H81 0.961 . S
C80 H82 0.961 . S
C80 H83 0.960 . S
H81 C80 0.961 . S
H82 C80 0.961 . S
H83 C80 0.960 . S
C84 N85 1.342 . S
C84 C88 1.401 . S
C84 C89 1.499 . S
N85 Co68 1.989 . S
N85 C84 1.342 . S
N85 N86 1.388 . S
N86 Co69 1.993 1_455 S
N86 N85 1.388 . S
N86 C87 1.346 . S
C87 N86 1.346 . S
C87 C88 1.396 . S
C87 C97 1.510 . S
C88 C84 1.401 . S
C88 C87 1.396 . S
C89 C84 1.499 . S
C89 H90 0.959 . S
C89 H91 0.960 . S
C89 H92 0.961 . S
H90 C89 0.959 . S
H91 C89 0.960 . S
H92 C89 0.961 . S
O93 Co68 1.967 . S
O93 C101 1.258 1_455 S
O94 Co69 1.941 . S
O94 C101 1.266 . S
H95 C97 0.959 . S
H96 C97 0.961 . S
C97 C87 1.510 . S
C97 H95 0.959 . S
C97 H96 0.961 . S
C97 H98 0.960 1_455 S
H98 C97 0.960 1_655 S
H99 N79 0.862 . S
O100 Co68 1.920 . S
O100 C73 1.289 . S
C101 O93 1.258 1_655 S
C101 O94 1.266 . S
Co102 O105 1.970 . S
Co102 N119 1.989 . S
Co102 O127 1.967 . S
Co102 O134 1.920 . S
Co103 O106 1.966 . S
Co103 N112 2.022 . S
Co103 N120 1.993 . S
Co103 O128 1.941 . S
C104 O105 1.258 . S
C104 O106 1.263 . S
O105 Co102 1.970 . S
O105 C104 1.258 . S
O106 Co103 1.966 . S
O106 C104 1.263 . S
C107 O108 1.235 . S
C107 O134 1.289 . S
O108 C107 1.235 . S
C109 C111 1.400 . S
C109 N112 1.351 . S
C109 C114 1.501 . S
C110 C111 1.387 . S
C110 N113 1.341 . S
C111 C109 1.400 . S
C111 C110 1.387 . S
N112 Co103 2.022 . S
N112 C109 1.351 . S
N112 N113 1.365 . S
N113 C110 1.341 . S
N113 N112 1.365 . S
N113 H133 0.862 . S
C114 C109 1.501 . S
C114 H115 0.961 . S
C114 H116 0.961 . S
C114 H117 0.960 . S
H115 C114 0.961 . S
H116 C114 0.961 . S
H117 C114 0.960 . S
C118 N119 1.342 . S
C118 C122 1.401 . S
C118 C123 1.499 . S
N119 Co102 1.989 . S
N119 C118 1.342 . S
N119 N120 1.388 . S
N120 Co103 1.993 . S
N120 N119 1.388 . S
N120 C121 1.346 . S
C121 N120 1.346 . S
C121 C122 1.396 . S
C121 C131 1.510 . S
C122 C118 1.401 . S
C122 C121 1.396 . S
C123 C118 1.499 . S
C123 H124 0.959 . S
C123 H125 0.960 . S
C123 H126 0.961 . S
H124 C123 0.959 . S
H125 C123 0.960 . S
H126 C123 0.961 . S
O127 Co102 1.967 . S
O127 C135 1.258 . S
O128 Co103 1.941 . S
O128 C135 1.266 . S
H129 C131 0.959 . S
H130 C131 0.961 . S
C131 C121 1.510 . S
C131 H129 0.959 . S
C131 H130 0.961 . S
C131 H132 0.960 . S
H132 C131 0.960 . S
H133 N113 0.862 . S
O134 Co102 1.920 . S
O134 C107 1.289 . S
C135 O127 1.258 . S
C135 O128 1.266 . S
Co136 O139 1.970 1_545 S
Co136 N153 1.989 . S
Co136 O161 1.967 . S
Co136 O168 1.920 . S
Co137 O140 1.966 . S
Co137 N146 2.022 . S
Co137 N154 1.993 1_565 S
Co137 O162 1.941 . S
C138 O139 1.258 . S
C138 O140 1.263 . S
O139 Co136 1.970 1_565 S
O139 C138 1.258 . S
O140 Co137 1.966 . S
O140 C138 1.263 . S
C141 O142 1.235 . S
C141 O168 1.289 . S
O142 C141 1.235 . S
C143 C145 1.400 . S
C143 N146 1.351 . S
C143 C148 1.501 . S
C144 C145 1.387 . S
C144 N147 1.341 . S
C145 C143 1.400 . S
C145 C144 1.387 . S
N146 Co137 2.022 . S
N146 C143 1.351 . S
N146 N147 1.365 . S
N147 C144 1.341 . S
N147 N146 1.365 . S
N147 H167 0.862 . S
C148 C143 1.501 . S
C148 H149 0.961 . S
C148 H150 0.961 . S
C148 H151 0.960 . S
H149 C148 0.961 . S
H150 C148 0.961 . S
H151 C148 0.960 . S
C152 N153 1.342 . S
C152 C156 1.401 . S
C152 C157 1.499 . S
N153 Co136 1.989 . S
N153 C152 1.342 . S
N153 N154 1.388 . S
N154 Co137 1.993 1_545 S
N154 N153 1.388 . S
N154 C155 1.346 . S
C155 N154 1.346 . S
C155 C156 1.396 . S
C155 C165 1.510 . S
C156 C152 1.401 . S
C156 C155 1.396 . S
C157 C152 1.499 . S
C157 H158 0.959 . S
C157 H159 0.960 . S
C157 H160 0.961 . S
H158 C157 0.959 . S
H159 C157 0.960 . S
H160 C157 0.961 . S
O161 Co136 1.967 . S
O161 C169 1.258 1_545 S
O162 Co137 1.941 . S
O162 C169 1.266 . S
H163 C165 0.959 . S
H164 C165 0.961 . S
C165 C155 1.510 . S
C165 H163 0.959 . S
C165 H164 0.961 . S
C165 H166 0.960 1_545 S
H166 C165 0.960 1_565 S
H167 N147 0.862 . S
O168 Co136 1.920 . S
O168 C141 1.289 . S
C169 O161 1.258 1_565 S
C169 O162 1.266 . S
Co170 O173 1.970 1_655 S
Co170 N187 1.989 . S
Co170 O195 1.967 . S
Co170 O202 1.920 . S
Co171 O174 1.966 . S
Co171 N180 2.022 . S
Co171 N188 1.993 1_455 S
Co171 O196 1.941 . S
C172 O173 1.258 . S
C172 O174 1.263 . S
O173 Co170 1.970 1_455 S
O173 C172 1.258 . S
O174 Co171 1.966 . S
O174 C172 1.263 . S
C175 O176 1.235 . S
C175 O202 1.289 . S
O176 C175 1.235 . S
C177 C179 1.400 . S
C177 N180 1.351 . S
C177 C182 1.501 . S
C178 C179 1.387 . S
C178 N181 1.341 . S
C179 C177 1.400 . S
C179 C178 1.387 . S
N180 Co171 2.022 . S
N180 C177 1.351 . S
N180 N181 1.365 . S
N181 C178 1.341 . S
N181 N180 1.365 . S
N181 H201 0.862 . S
C182 C177 1.501 . S
C182 H183 0.961 . S
C182 H184 0.961 . S
C182 H185 0.960 . S
H183 C182 0.961 . S
H184 C182 0.961 . S
H185 C182 0.960 . S
C186 N187 1.342 . S
C186 C190 1.401 . S
C186 C191 1.499 . S
N187 Co170 1.989 . S
N187 C186 1.342 . S
N187 N188 1.388 . S
N188 Co171 1.993 1_655 S
N188 N187 1.388 . S
N188 C189 1.346 . S
C189 N188 1.346 . S
C189 C190 1.396 . S
C189 C199 1.510 . S
C190 C186 1.401 . S
C190 C189 1.396 . S
C191 C186 1.499 . S
C191 H192 0.959 . S
C191 H193 0.960 . S
C191 H194 0.961 . S
H192 C191 0.959 . S
H193 C191 0.960 . S
H194 C191 0.961 . S
O195 Co170 1.967 . S
O195 C203 1.258 1_655 S
O196 Co171 1.941 . S
O196 C203 1.266 . S
H197 C199 0.959 . S
H198 C199 0.961 . S
C199 C189 1.510 . S
C199 H197 0.959 . S
C199 H198 0.961 . S
C199 H200 0.960 1_655 S
H200 C199 0.960 1_455 S
H201 N181 0.862 . S
O202 Co170 1.920 . S
O202 C175 1.289 . S
C203 O195 1.258 1_455 S
C203 O196 1.266 . S
Co204 O207 1.970 . S
Co204 N221 1.989 . S
Co204 O229 1.967 1_655 S
Co204 O236 1.920 . S
Co205 O208 1.966 . S
Co205 N214 2.022 . S
Co205 N222 1.993 1_455 S
Co205 O230 1.941 . S
C206 O207 1.258 . S
C206 O208 1.263 1_655 S
O207 Co204 1.970 . S
O207 C206 1.258 . S
O208 Co205 1.966 . S
O208 C206 1.263 1_455 S
C209 O210 1.235 . S
C209 O236 1.289 . S
O210 C209 1.235 . S
C211 C213 1.400 . S
C211 N214 1.351 . S
C211 C216 1.501 . S
C212 C213 1.387 . S
C212 N215 1.341 . S
C213 C211 1.400 . S
C213 C212 1.387 . S
N214 Co205 2.022 . S
N214 C211 1.351 . S
N214 N215 1.365 . S
N215 C212 1.341 . S
N215 N214 1.365 . S
N215 H235 0.862 . S
C216 C211 1.501 . S
C216 H217 0.961 . S
C216 H218 0.955 1_455 S
C216 H219 0.960 . S
H217 C216 0.961 . S
H218 C216 0.955 1_655 S
H219 C216 0.960 . S
C220 N221 1.342 . S
C220 C224 1.401 . S
C220 C225 1.499 . S
N221 Co204 1.989 . S
N221 C220 1.342 . S
N221 N222 1.388 . S
N222 Co205 1.993 1_655 S
N222 N221 1.388 . S
N222 C223 1.346 . S
C223 N222 1.346 . S
C223 C224 1.396 . S
C223 C233 1.510 . S
C224 C220 1.401 . S
C224 C223 1.396 . S
C225 C220 1.499 . S
C225 H226 0.959 . S
C225 H227 0.960 . S
C225 H228 0.961 . S
H226 C225 0.959 . S
H227 C225 0.960 . S
H228 C225 0.961 . S
O229 Co204 1.967 1_455 S
O229 C237 1.258 . S
O230 Co205 1.941 . S
O230 C237 1.266 . S
H231 C233 0.959 . S
H232 C233 0.961 . S
C233 C223 1.510 . S
C233 H231 0.959 . S
C233 H232 0.961 . S
C233 H234 0.960 . S
H234 C233 0.960 . S
H235 N215 0.862 . S
O236 Co204 1.920 . S
O236 C209 1.289 . S
C237 O229 1.258 . S
C237 O230 1.266 . S
Co238 O241 1.970 . S
Co238 N255 1.989 . S
Co238 O263 1.967 . S
Co238 O270 1.920 . S
Co239 O242 1.966 . S
Co239 N248 2.022 . S
Co239 N256 1.993 . S
Co239 O264 1.941 . S
C240 O241 1.258 . S
C240 O242 1.263 . S
O241 Co238 1.970 . S
O241 C240 1.258 . S
O242 Co239 1.966 . S
O242 C240 1.263 . S
C243 O244 1.235 . S
C243 O270 1.289 . S
O244 C243 1.235 . S
C245 C247 1.400 . S
C245 N248 1.351 . S
C245 C250 1.501 . S
C246 C247 1.387 . S
C246 N249 1.341 . S
C247 C245 1.400 . S
C247 C246 1.387 . S
N248 Co239 2.022 . S
N248 C245 1.351 . S
N248 N249 1.365 . S
N249 C246 1.341 . S
N249 N248 1.365 . S
N249 H269 0.862 . S
C250 C245 1.501 . S
C250 H251 0.961 . S
C250 H252 0.961 . S
C250 H253 0.960 . S
H251 C250 0.961 . S
H252 C250 0.961 . S
H253 C250 0.960 . S
C254 N255 1.342 . S
C254 C258 1.401 . S
C254 C259 1.499 . S
N255 Co238 1.989 . S
N255 C254 1.342 . S
N255 N256 1.388 . S
N256 Co239 1.993 . S
N256 N255 1.388 . S
N256 C257 1.346 . S
C257 N256 1.346 . S
C257 C258 1.396 . S
C257 C267 1.510 . S
C258 C254 1.401 . S
C258 C257 1.396 . S
C259 C254 1.499 . S
C259 H260 0.959 . S
C259 H261 0.960 . S
C259 H262 0.961 . S
H260 C259 0.959 . S
H261 C259 0.960 . S
H262 C259 0.961 . S
O263 Co238 1.967 . S
O263 C271 1.258 . S
O264 Co239 1.941 . S
O264 C271 1.266 . S
H265 C267 0.959 . S
H266 C267 0.961 . S
C267 C257 1.510 . S
C267 H265 0.959 . S
C267 H266 0.961 . S
C267 H268 0.960 . S
H268 C267 0.960 . S
H269 N249 0.862 . S
O270 Co238 1.920 . S
O270 C243 1.289 . S
C271 O263 1.258 . S
C271 O264 1.266 . S
Co272 O275 1.970 . S
Co272 N289 1.989 . S
Co272 O297 1.967 1_545 S
Co272 O304 1.920 . S
Co273 O276 1.966 . S
Co273 N282 2.022 . S
Co273 N290 1.993 1_565 S
Co273 O298 1.941 . S
C274 O275 1.258 . S
C274 O276 1.263 1_545 S
O275 Co272 1.970 . S
O275 C274 1.258 . S
O276 Co273 1.966 . S
O276 C274 1.263 1_565 S
C277 O278 1.235 . S
C277 O304 1.289 . S
O278 C277 1.235 . S
C279 C281 1.400 . S
C279 N282 1.351 . S
C279 C284 1.501 . S
C280 C281 1.387 . S
C280 N283 1.341 . S
C281 C279 1.400 . S
C281 C280 1.387 . S
N282 Co273 2.022 . S
N282 C279 1.351 . S
N282 N283 1.365 . S
N283 C280 1.341 . S
N283 N282 1.365 . S
N283 H303 0.862 . S
C284 C279 1.501 . S
C284 H285 0.961 . S
C284 H286 0.946 1_565 S
C284 H287 0.960 . S
H285 C284 0.961 . S
H286 C284 0.946 1_545 S
H287 C284 0.960 . S
C288 N289 1.342 . S
C288 C292 1.401 . S
C288 C293 1.499 . S
N289 Co272 1.989 . S
N289 C288 1.342 . S
N289 N290 1.388 . S
N290 Co273 1.993 1_545 S
N290 N289 1.388 . S
N290 C291 1.346 . S
C291 N290 1.346 . S
C291 C292 1.396 . S
C291 C301 1.510 . S
C292 C288 1.401 . S
C292 C291 1.396 . S
C293 C288 1.499 . S
C293 H294 0.959 . S
C293 H295 0.960 . S
C293 H296 0.961 . S
H294 C293 0.959 . S
H295 C293 0.960 . S
H296 C293 0.961 . S
O297 Co272 1.967 1_565 S
O297 C305 1.258 . S
O298 Co273 1.941 . S
O298 C305 1.266 . S
H299 C301 0.959 . S
H300 C301 0.961 . S
C301 C291 1.510 . S
C301 H299 0.959 . S
C301 H300 0.961 . S
C301 H302 0.960 . S
H302 C301 0.960 . S
H303 N283 0.862 . S
O304 Co272 1.920 . S
O304 C277 1.289 . S
C305 O297 1.258 . S
C305 O298 1.266 . S
Co306 O309 1.970 1_565 S
Co306 N323 1.989 . S
Co306 O331 1.967 . S
Co306 O338 1.920 . S
Co307 O310 1.966 . S
Co307 N316 2.022 . S
Co307 N324 1.993 . S
Co307 O332 1.941 1_545 S
C308 O309 1.258 . S
C308 O310 1.263 . S
O309 Co306 1.970 1_545 S
O309 C308 1.258 . S
O310 Co307 1.966 . S
O310 C308 1.263 . S
C311 O312 1.235 1_565 S
C311 O338 1.289 . S
O312 C311 1.235 1_545 S
C313 C315 1.400 . S
C313 N316 1.351 . S
C313 C318 1.501 . S
C314 C315 1.387 . S
C314 N317 1.341 . S
C315 C313 1.400 . S
C315 C314 1.387 . S
N316 Co307 2.022 . S
N316 C313 1.351 . S
N316 N317 1.365 . S
N317 C314 1.341 . S
N317 N316 1.365 . S
N317 H337 0.862 1_545 S
C318 C313 1.501 . S
C318 H319 0.961 . S
C318 H320 0.961 . S
C318 H321 0.960 . S
H319 C318 0.961 . S
H320 C318 0.961 . S
H321 C318 0.960 . S
C322 N323 1.342 . S
C322 C326 1.401 . S
C322 C327 1.499 . S
N323 Co306 1.989 . S
N323 C322 1.342 . S
N323 N324 1.388 1_565 S
N324 Co307 1.993 . S
N324 N323 1.388 1_545 S
N324 C325 1.346 . S
C325 N324 1.346 . S
C325 C326 1.396 1_545 S
C325 C335 1.510 . S
C326 C322 1.401 . S
C326 C325 1.396 1_565 S
C327 C322 1.499 . S
C327 H328 0.959 . S
C327 H329 0.960 . S
C327 H330 0.961 . S
H328 C327 0.959 . S
H329 C327 0.960 . S
H330 C327 0.961 . S
O331 Co306 1.967 . S
O331 C339 1.258 . S
O332 Co307 1.941 1_565 S
O332 C339 1.266 . S
H333 C335 0.959 . S
H334 C335 0.961 . S
C335 C325 1.510 . S
C335 H333 0.959 . S
C335 H334 0.961 . S
C335 H336 0.960 . S
H336 C335 0.960 . S
H337 N317 0.862 1_565 S
O338 Co306 1.920 . S
O338 C311 1.289 . S
C339 O331 1.258 . S
C339 O332 1.266 . S
Co340 O343 1.970 1_455 S
Co340 N357 1.994 . S
Co340 O365 1.967 . S
Co340 O372 1.920 . S
Co341 O344 1.966 . S
Co341 N350 2.022 . S
Co341 N358 1.993 . S
Co341 O366 1.941 1_655 S
C342 O343 1.258 . S
C342 O344 1.263 . S
O343 Co340 1.970 1_655 S
O343 C342 1.258 . S
O344 Co341 1.966 . S
O344 C342 1.263 . S
C345 O346 1.235 1_455 S
C345 O372 1.289 . S
O346 C345 1.235 1_655 S
C347 C349 1.400 . S
C347 N350 1.351 . S
C347 C352 1.501 . S
C348 C349 1.387 . S
C348 N351 1.341 . S
C349 C347 1.400 . S
C349 C348 1.387 . S
N350 Co341 2.022 . S
N350 C347 1.351 . S
N350 N351 1.365 . S
N351 C348 1.341 . S
N351 N350 1.365 . S
N351 H371 0.862 1_655 S
C352 C347 1.501 . S
C352 H353 0.961 . S
C352 H354 0.961 . S
C352 H355 0.960 . S
H353 C352 0.961 . S
H354 C352 0.961 . S
H355 C352 0.960 . S
C356 N357 1.335 . S
C356 C360 1.401 . S
C356 C361 1.499 . S
N357 Co340 1.994 . S
N357 C356 1.335 . S
N357 N358 1.391 1_455 S
N358 Co341 1.993 . S
N358 N357 1.391 1_655 S
N358 C359 1.346 . S
C359 N358 1.346 . S
C359 C360 1.396 1_655 S
C359 C369 1.510 . S
C360 C356 1.401 . S
C360 C359 1.396 1_455 S
C361 C356 1.499 . S
C361 H362 0.959 . S
C361 H363 0.960 . S
C361 H364 0.961 . S
H362 C361 0.959 . S
H363 C361 0.960 . S
H364 C361 0.961 . S
O365 Co340 1.967 . S
O365 C373 1.258 . S
O366 Co341 1.941 1_455 S
O366 C373 1.266 . S
H367 C369 0.959 . S
H368 C369 0.961 . S
C369 C359 1.510 . S
C369 H367 0.959 . S
C369 H368 0.961 . S
C369 H370 0.960 . S
H370 C369 0.960 . S
H371 N351 0.862 1_455 S
O372 Co340 1.920 . S
O372 C345 1.289 . S
C373 O365 1.258 . S
C373 O366 1.266 . S
Co374 O377 1.970 . S
Co374 N391 1.989 . S
Co374 O399 1.967 . S
Co374 O406 1.920 . S
Co375 O378 1.966 . S
Co375 N384 2.022 . S
Co375 N392 1.993 . S
Co375 O400 1.941 . S
C376 O377 1.258 . S
C376 O378 1.263 . S
O377 Co374 1.970 . S
O377 C376 1.258 . S
O378 Co375 1.966 . S
O378 C376 1.263 . S
C379 O380 1.235 . S
C379 O406 1.289 . S
O380 C379 1.235 . S
C381 C383 1.400 . S
C381 N384 1.351 . S
C381 C386 1.501 . S
C382 C383 1.387 . S
C382 N385 1.341 . S
C383 C381 1.400 . S
C383 C382 1.387 . S
N384 Co375 2.022 . S
N384 C381 1.351 . S
N384 N385 1.365 . S
N385 C382 1.341 . S
N385 N384 1.365 . S
N385 H405 0.862 . S
C386 C381 1.501 . S
C386 H387 0.961 . S
C386 H388 0.961 . S
C386 H389 0.960 . S
H387 C386 0.961 . S
H388 C386 0.961 . S
H389 C386 0.960 . S
C390 N391 1.342 . S
C390 C394 1.401 . S
C390 C395 1.499 . S
N391 Co374 1.989 . S
N391 C390 1.342 . S
N391 N392 1.388 . S
N392 Co375 1.993 . S
N392 N391 1.388 . S
N392 C393 1.346 . S
C393 N392 1.346 . S
C393 C394 1.396 . S
C393 C403 1.510 . S
C394 C390 1.401 . S
C394 C393 1.396 . S
C395 C390 1.499 . S
C395 H396 0.959 . S
C395 H397 0.960 . S
C395 H398 0.961 . S
H396 C395 0.959 . S
H397 C395 0.960 . S
H398 C395 0.961 . S
O399 Co374 1.967 . S
O399 C407 1.258 . S
O400 Co375 1.941 . S
O400 C407 1.266 . S
H401 C403 0.959 . S
H402 C403 0.961 . S
C403 C393 1.510 . S
C403 H401 0.959 . S
C403 H402 0.961 . S
C403 H404 0.960 . S
H404 C403 0.960 . S
H405 N385 0.862 . S
O406 Co374 1.920 . S
O406 C379 1.289 . S
C407 O399 1.258 . S
C407 O400 1.266 . S
Co408 O411 1.970 1_545 S
Co408 N425 1.989 . S
Co408 O433 1.967 . S
Co408 O440 1.920 . S
Co409 O412 1.966 . S
Co409 N418 2.022 . S
Co409 N426 1.993 . S
Co409 O434 1.941 1_565 S
C410 O411 1.258 . S
C410 O412 1.263 . S
O411 Co408 1.970 1_565 S
O411 C410 1.258 . S
O412 Co409 1.966 . S
O412 C410 1.263 . S
C413 O414 1.235 1_545 S
C413 O440 1.289 . S
O414 C413 1.235 1_565 S
C415 C417 1.400 . S
C415 N418 1.351 . S
C415 C420 1.501 . S
C416 C417 1.387 . S
C416 N419 1.341 . S
C417 C415 1.400 . S
C417 C416 1.387 . S
N418 Co409 2.022 . S
N418 C415 1.351 . S
N418 N419 1.365 . S
N419 C416 1.341 . S
N419 N418 1.365 . S
N419 H439 0.862 1_565 S
C420 C415 1.501 . S
C420 H421 0.961 . S
C420 H422 0.961 . S
C420 H423 0.960 . S
H421 C420 0.961 . S
H422 C420 0.961 . S
H423 C420 0.960 . S
C424 N425 1.342 . S
C424 C428 1.401 . S
C424 C429 1.499 . S
N425 Co408 1.989 . S
N425 C424 1.342 . S
N425 N426 1.388 1_545 S
N426 Co409 1.993 . S
N426 N425 1.388 1_565 S
N426 C427 1.346 . S
C427 N426 1.346 . S
C427 C428 1.396 1_565 S
C427 C437 1.510 . S
C428 C424 1.401 . S
C428 C427 1.396 1_545 S
C429 C424 1.499 . S
C429 H430 0.959 . S
C429 H431 0.960 . S
C429 H432 0.961 . S
H430 C429 0.959 . S
H431 C429 0.960 . S
H432 C429 0.961 . S
O433 Co408 1.967 . S
O433 C441 1.258 . S
O434 Co409 1.941 1_545 S
O434 C441 1.266 . S
H435 C437 0.959 . S
H436 C437 0.961 . S
C437 C427 1.510 . S
C437 H435 0.959 . S
C437 H436 0.961 . S
C437 H438 0.960 . S
H438 C437 0.960 . S
H439 N419 0.862 1_545 S
O440 Co408 1.920 . S
O440 C413 1.289 . S
C441 O433 1.258 . S
C441 O434 1.266 . S
Co442 O445 1.970 1_655 S
Co442 N459 1.994 . S
Co442 O467 1.967 . S
Co442 O474 1.920 . S
Co443 O446 1.966 . S
Co443 N452 2.022 . S
Co443 N460 1.993 . S
Co443 O468 1.941 1_455 S
C444 O445 1.258 . S
C444 O446 1.263 . S
O445 Co442 1.970 1_455 S
O445 C444 1.258 . S
O446 Co443 1.966 . S
O446 C444 1.263 . S
C447 O448 1.235 1_655 S
C447 O474 1.289 . S
O448 C447 1.235 1_455 S
C449 C451 1.400 . S
C449 N452 1.351 . S
C449 C454 1.501 . S
C450 C451 1.387 . S
C450 N453 1.341 . S
C451 C449 1.400 . S
C451 C450 1.387 . S
N452 Co443 2.022 . S
N452 C449 1.351 . S
N452 N453 1.365 . S
N453 C450 1.341 . S
N453 N452 1.365 . S
N453 H473 0.862 1_455 S
C454 C449 1.501 . S
C454 H455 0.961 . S
C454 H456 0.961 . S
C454 H457 0.960 . S
H455 C454 0.961 . S
H456 C454 0.961 . S
H457 C454 0.960 . S
C458 N459 1.335 . S
C458 C462 1.401 . S
C458 C463 1.499 . S
N459 Co442 1.994 . S
N459 C458 1.335 . S
N459 N460 1.391 1_655 S
N460 Co443 1.993 . S
N460 N459 1.391 1_455 S
N460 C461 1.346 . S
C461 N460 1.346 . S
C461 C462 1.396 1_455 S
C461 C471 1.510 . S
C462 C458 1.401 . S
C462 C461 1.396 1_655 S
C463 C458 1.499 . S
C463 H464 0.959 . S
C463 H465 0.960 . S
C463 H466 0.961 . S
H464 C463 0.959 . S
H465 C463 0.960 . S
H466 C463 0.961 . S
O467 Co442 1.967 . S
O467 C475 1.258 . S
O468 Co443 1.941 1_655 S
O468 C475 1.266 . S
H469 C471 0.959 . S
H470 C471 0.961 . S
C471 C461 1.510 . S
C471 H469 0.959 . S
C471 H470 0.961 . S
C471 H472 0.960 . S
H472 C471 0.960 . S
H473 N453 0.862 1_655 S
O474 Co442 1.920 . S
O474 C447 1.289 . S
C475 O467 1.258 . S
C475 O468 1.266 . S
Co476 O479 1.970 . S
Co476 N493 1.989 . S
Co476 O501 1.967 . S
Co476 O508 1.920 . S
Co477 O480 1.966 . S
Co477 N486 2.022 . S
Co477 N494 1.993 . S
Co477 O502 1.941 . S
C478 O479 1.258 . S
C478 O480 1.263 . S
O479 Co476 1.970 . S
O479 C478 1.258 . S
O480 Co477 1.966 . S
O480 C478 1.263 . S
C481 O482 1.235 . S
C481 O508 1.289 . S
O482 C481 1.235 . S
C483 C485 1.400 . S
C483 N486 1.351 . S
C483 C488 1.501 . S
C484 C485 1.387 . S
C484 N487 1.341 . S
C485 C483 1.400 . S
C485 C484 1.387 . S
N486 Co477 2.022 . S
N486 C483 1.351 . S
N486 N487 1.365 . S
N487 C484 1.341 . S
N487 N486 1.365 . S
N487 H507 0.862 . S
C488 C483 1.501 . S
C488 H489 0.961 . S
C488 H490 0.961 . S
C488 H491 0.960 . S
H489 C488 0.961 . S
H490 C488 0.961 . S
H491 C488 0.960 . S
C492 N493 1.342 . S
C492 C496 1.401 . S
C492 C497 1.499 . S
N493 Co476 1.989 . S
N493 C492 1.342 . S
N493 N494 1.388 . S
N494 Co477 1.993 . S
N494 N493 1.388 . S
N494 C495 1.346 . S
C495 N494 1.346 . S
C495 C496 1.396 . S
C495 C505 1.510 . S
C496 C492 1.401 . S
C496 C495 1.396 . S
C497 C492 1.499 . S
C497 H498 0.959 . S
C497 H499 0.960 . S
C497 H500 0.961 . S
H498 C497 0.959 . S
H499 C497 0.960 . S
H500 C497 0.961 . S
O501 Co476 1.967 . S
O501 C509 1.258 . S
O502 Co477 1.941 . S
O502 C509 1.266 . S
H503 C505 0.959 . S
H504 C505 0.961 . S
C505 C495 1.510 . S
C505 H503 0.959 . S
C505 H504 0.961 . S
C505 H506 0.960 . S
H506 C505 0.960 . S
H507 N487 0.862 . S
O508 Co476 1.920 . S
O508 C481 1.289 . S
C509 O501 1.258 . S
C509 O502 1.266 . S
Co510 O513 1.970 . S
Co510 N527 1.989 . S
Co510 O535 1.967 1_455 S
Co510 O542 1.920 . S
Co511 O514 1.966 . S
Co511 N520 2.022 . S
Co511 N528 1.993 1_655 S
Co511 O536 1.941 . S
C512 O513 1.258 . S
C512 O514 1.263 1_455 S
O513 Co510 1.970 . S
O513 C512 1.258 . S
O514 Co511 1.966 . S
O514 C512 1.263 1_655 S
C515 O516 1.235 . S
C515 O542 1.289 . S
O516 C515 1.235 . S
C517 C519 1.400 . S
C517 N520 1.351 . S
C517 C522 1.501 . S
C518 C519 1.387 . S
C518 N521 1.341 . S
C519 C517 1.400 . S
C519 C518 1.387 . S
N520 Co511 2.022 . S
N520 C517 1.351 . S
N520 N521 1.365 . S
N521 C518 1.341 . S
N521 N520 1.365 . S
N521 H541 0.862 . S
C522 C517 1.501 . S
C522 H523 0.961 . S
C522 H524 0.955 1_655 S
C522 H525 0.960 . S
H523 C522 0.961 . S
H524 C522 0.955 1_455 S
H525 C522 0.960 . S
C526 N527 1.342 . S
C526 C530 1.401 . S
C526 C531 1.499 . S
N527 Co510 1.989 . S
N527 C526 1.342 . S
N527 N528 1.388 . S
N528 Co511 1.993 1_455 S
N528 N527 1.388 . S
N528 C529 1.346 . S
C529 N528 1.346 . S
C529 C530 1.396 . S
C529 C539 1.510 . S
C530 C526 1.401 . S
C530 C529 1.396 . S
C531 C526 1.499 . S
C531 H532 0.959 . S
C531 H533 0.960 . S
C531 H534 0.961 . S
H532 C531 0.959 . S
H533 C531 0.960 . S
H534 C531 0.961 . S
O535 Co510 1.967 1_655 S
O535 C543 1.258 . S
O536 Co511 1.941 . S
O536 C543 1.266 . S
H537 C539 0.959 . S
H538 C539 0.961 . S
C539 C529 1.510 . S
C539 H537 0.959 . S
C539 H538 0.961 . S
C539 H540 0.960 . S
H540 C539 0.960 . S
H541 N521 0.862 . S
O542 Co510 1.920 . S
O542 C515 1.289 . S
C543 O535 1.258 . S
C543 O536 1.266 . S
Co544 O547 1.970 . S
Co544 N561 1.989 . S
Co544 O569 1.967 . S
Co544 O576 1.920 . S
Co545 O548 1.966 . S
Co545 N554 2.022 . S
Co545 N562 1.993 . S
Co545 O570 1.941 . S
C546 O547 1.258 . S
C546 O548 1.263 . S
O547 Co544 1.970 . S
O547 C546 1.258 . S
O548 Co545 1.966 . S
O548 C546 1.263 . S
C549 O550 1.235 . S
C549 O576 1.289 . S
O550 C549 1.235 . S
C551 C553 1.400 . S
C551 N554 1.351 . S
C551 C556 1.501 . S
C552 C553 1.387 . S
C552 N555 1.341 . S
C553 C551 1.400 . S
C553 C552 1.387 . S
N554 Co545 2.022 . S
N554 C551 1.351 . S
N554 N555 1.365 . S
N555 C552 1.341 . S
N555 N554 1.365 . S
N555 H575 0.862 . S
C556 C551 1.501 . S
C556 H557 0.961 . S
C556 H558 0.961 . S
C556 H559 0.960 . S
H557 C556 0.961 . S
H558 C556 0.961 . S
H559 C556 0.960 . S
C560 N561 1.342 . S
C560 C564 1.401 . S
C560 C565 1.499 . S
N561 Co544 1.989 . S
N561 C560 1.342 . S
N561 N562 1.388 . S
N562 Co545 1.993 . S
N562 N561 1.388 . S
N562 C563 1.346 . S
C563 N562 1.346 . S
C563 C564 1.396 . S
C563 C573 1.510 . S
C564 C560 1.401 . S
C564 C563 1.396 . S
C565 C560 1.499 . S
C565 H566 0.959 . S
C565 H567 0.960 . S
C565 H568 0.961 . S
H566 C565 0.959 . S
H567 C565 0.960 . S
H568 C565 0.961 . S
O569 Co544 1.967 . S
O569 C577 1.258 . S
O570 Co545 1.941 . S
O570 C577 1.266 . S
H571 C573 0.959 . S
H572 C573 0.961 . S
C573 C563 1.510 . S
C573 H571 0.959 . S
C573 H572 0.961 . S
C573 H574 0.960 . S
H574 C573 0.960 . S
H575 N555 0.862 . S
O576 Co544 1.920 . S
O576 C549 1.289 . S
C577 O569 1.258 . S
C577 O570 1.266 . S
Co578 O581 1.970 . S
Co578 N595 1.989 . S
Co578 O603 1.967 1_565 S
Co578 O610 1.920 . S
Co579 O582 1.966 . S
Co579 N588 2.022 . S
Co579 N596 1.993 1_545 S
Co579 O604 1.941 . S
C580 O581 1.258 . S
C580 O582 1.263 1_565 S
O581 Co578 1.970 . S
O581 C580 1.258 . S
O582 Co579 1.966 . S
O582 C580 1.263 1_545 S
C583 O584 1.235 . S
C583 O610 1.289 . S
O584 C583 1.235 . S
C585 C587 1.400 . S
C585 N588 1.351 . S
C585 C590 1.501 . S
C586 C587 1.387 . S
C586 N589 1.341 . S
C587 C585 1.400 . S
C587 C586 1.387 . S
N588 Co579 2.022 . S
N588 C585 1.351 . S
N588 N589 1.365 . S
N589 C586 1.341 . S
N589 N588 1.365 . S
N589 H609 0.862 . S
C590 C585 1.501 . S
C590 H591 0.961 . S
C590 H592 0.946 1_545 S
C590 H593 0.960 . S
H591 C590 0.961 . S
H592 C590 0.946 1_565 S
H593 C590 0.960 . S
C594 N595 1.342 . S
C594 C598 1.401 . S
C594 C599 1.499 . S
N595 Co578 1.989 . S
N595 C594 1.342 . S
N595 N596 1.388 . S
N596 Co579 1.993 1_565 S
N596 N595 1.388 . S
N596 C597 1.346 . S
C597 N596 1.346 . S
C597 C598 1.396 . S
C597 C607 1.510 . S
C598 C594 1.401 . S
C598 C597 1.396 . S
C599 C594 1.499 . S
C599 H600 0.959 . S
C599 H601 0.960 . S
C599 H602 0.961 . S
H600 C599 0.959 . S
H601 C599 0.960 . S
H602 C599 0.961 . S
O603 Co578 1.967 1_545 S
O603 C611 1.258 . S
O604 Co579 1.941 . S
O604 C611 1.266 . S
H605 C607 0.959 . S
H606 C607 0.961 . S
C607 C597 1.510 . S
C607 H605 0.959 . S
C607 H606 0.961 . S
C607 H608 0.960 . S
H608 C607 0.960 . S
H609 N589 0.862 . S
O610 Co578 1.920 . S
O610 C583 1.289 . S
C611 O603 1.258 . S
C611 O604 1.266 . S
C612 C613 1.363 . S
C612 C618 1.379 1_554 S
C612 N620 1.356 . S
C613 C612 1.363 . S
C613 C619 1.363 1_554 S
C614 C615 1.363 . S
C614 C619 1.379 . S
C614 N621 1.356 . S
C615 C614 1.363 . S
C615 C618 1.363 . S
N616 C618 1.356 . S
N616 H628 0.984 1_556 S
N616 H629 0.985 . S
N617 C619 1.356 . S
N617 H622 0.984 . S
N617 H623 0.985 . S
C618 C612 1.379 1_556 S
C618 C615 1.363 . S
C618 N616 1.356 . S
C619 C613 1.363 1_556 S
C619 C614 1.379 . S
C619 N617 1.356 . S
N620 C612 1.356 . S
N620 H626 0.984 . S
N620 H627 0.984 . S
N621 C614 1.356 . S
N621 H624 0.984 . S
N621 H625 0.985 . S
H622 N617 0.984 . S
H623 N617 0.985 . S
H624 N621 0.984 . S
H625 N621 0.985 . S
H626 N620 0.984 . S
H627 N620 0.984 . S
H628 N616 0.984 1_554 S
H629 N616 0.985 . S
C630 C631 1.363 1_556 S
C630 C636 1.379 . S
C630 N638 1.356 1_556 S
C631 C630 1.363 1_554 S
C631 C637 1.363 1_554 S
C632 C633 1.363 . S
C632 C637 1.379 . S
C632 N639 1.356 . S
C633 C632 1.363 . S
C633 C636 1.363 . S
N634 C636 1.356 . S
N634 H646 0.984 . S
N634 H647 0.985 . S
N635 C637 1.356 1_554 S
N635 H640 0.984 . S
N635 H641 0.985 1_554 S
C636 C630 1.379 . S
C636 C633 1.363 . S
C636 N634 1.356 . S
C637 C631 1.363 1_556 S
C637 C632 1.379 . S
C637 N635 1.356 1_556 S
N638 C630 1.356 1_554 S
N638 H644 0.984 . S
N638 H645 0.984 . S
N639 C632 1.356 . S
N639 H642 0.984 . S
N639 H643 0.985 . S
H640 N635 0.984 . S
H641 N635 0.985 1_556 S
H642 N639 0.984 . S
H643 N639 0.985 . S
H644 N638 0.984 . S
H645 N638 0.984 . S
H646 N634 0.984 . S
H647 N634 0.985 . S
C648 C649 1.363 . S
C648 C654 1.379 1_554 S
C648 N656 1.356 . S
C649 C648 1.363 . S
C649 C655 1.363 1_554 S
C650 C651 1.363 . S
C650 C655 1.379 . S
C650 N657 1.356 . S
C651 C650 1.363 . S
C651 C654 1.363 . S
N652 C654 1.356 . S
N652 H664 0.984 1_556 S
N652 H665 0.985 . S
N653 C655 1.356 . S
N653 H658 0.984 . S
N653 H659 0.985 . S
C654 C648 1.379 1_556 S
C654 C651 1.363 . S
C654 N652 1.356 . S
C655 C649 1.363 1_556 S
C655 C650 1.379 . S
C655 N653 1.356 . S
N656 C648 1.356 . S
N656 H662 0.984 . S
N656 H663 0.984 . S
N657 C650 1.356 . S
N657 H660 0.984 . S
N657 H661 0.985 . S
H658 N653 0.984 . S
H659 N653 0.985 . S
H660 N657 0.984 . S
H661 N657 0.985 . S
H662 N656 0.984 . S
H663 N656 0.984 . S
H664 N652 0.984 1_554 S
H665 N652 0.985 . S
C666 C667 1.363 . S
C666 C672 1.379 . S
C666 N674 1.356 . S
C667 C666 1.363 . S
C667 C673 1.363 . S
C668 C669 1.363 . S
C668 C673 1.379 1_556 S
C668 N675 1.356 . S
C669 C668 1.363 . S
C669 C672 1.363 1_556 S
N670 C672 1.356 . S
N670 H682 0.984 . S
N670 H683 0.985 . S
N671 C673 1.356 . S
N671 H676 0.984 . S
N671 H677 0.985 1_554 S
C672 C666 1.379 . S
C672 C669 1.363 1_554 S
C672 N670 1.356 . S
C673 C667 1.363 . S
C673 C668 1.379 1_554 S
C673 N671 1.356 . S
N674 C666 1.356 . S
N674 H680 0.984 . S
N674 H681 0.984 . S
N675 C668 1.356 . S
N675 H678 0.984 . S
N675 H679 0.985 . S
H676 N671 0.984 . S
H677 N671 0.985 1_556 S
H678 N675 0.984 . S
H679 N675 0.985 . S
H680 N674 0.984 . S
H681 N674 0.984 . S
H682 N670 0.984 . S
H683 N670 0.985 . S
C684 C685 1.363 1_554 S
C684 C690 1.379 . S
C684 N692 1.356 . S
C685 C684 1.363 1_556 S
C685 C691 1.363 . S
C686 C687 1.363 . S
C686 C691 1.379 1_554 S
C686 N693 1.356 . S
C687 C686 1.363 . S
C687 C690 1.363 . S
N688 C690 1.356 . S
N688 H700 0.984 . S
N688 H701 0.985 . S
N689 C691 1.356 . S
N689 H694 0.984 . S
N689 H695 0.985 . S
C690 C684 1.379 . S
C690 C687 1.363 . S
C690 N688 1.356 . S
C691 C685 1.363 . S
C691 C686 1.379 1_556 S
C691 N689 1.356 . S
N692 C684 1.356 . S
N692 H698 0.984 . S
N692 H699 0.984 . S
N693 C686 1.356 . S
N693 H696 0.984 . S
N693 H697 0.985 1_554 S
H694 N689 0.984 . S
H695 N689 0.985 . S
H696 N693 0.984 . S
H697 N693 0.985 1_556 S
H698 N692 0.984 . S
H699 N692 0.984 . S
H700 N688 0.984 . S
H701 N688 0.985 . S
C702 C703 1.363 . S
C702 C708 1.379 1_554 S
C702 N710 1.356 . S
C703 C702 1.363 . S
C703 C709 1.363 . S
C704 C705 1.363 1_554 S
C704 C709 1.379 . S
C704 N711 1.356 . S
C705 C704 1.363 1_556 S
C705 C708 1.363 . S
N706 C708 1.356 . S
N706 H718 0.984 . S
N706 H719 0.985 . S
N707 C709 1.356 . S
N707 H712 0.984 . S
N707 H713 0.985 . S
C708 C702 1.379 1_556 S
C708 C705 1.363 . S
C708 N706 1.356 . S
C709 C703 1.363 . S
C709 C704 1.379 . S
C709 N707 1.356 . S
N710 C702 1.356 . S
N710 H716 0.957 1_554 S
N710 H717 0.984 . S
N711 C704 1.356 . S
N711 H714 0.984 . S
N711 H715 0.985 . S
H712 N707 0.984 . S
H713 N707 0.985 . S
H714 N711 0.984 . S
H715 N711 0.985 . S
H716 N710 0.957 1_556 S
H717 N710 0.984 . S
H718 N706 0.984 . S
H719 N706 0.985 . S
C720 C721 1.363 . S
C720 C726 1.379 . S
C720 N728 1.356 . S
C721 C720 1.363 . S
C721 C727 1.363 . S
C722 C723 1.363 . S
C722 C727 1.379 . S
C722 N729 1.356 . S
C723 C722 1.363 . S
C723 C726 1.363 . S
N724 C726 1.356 . S
N724 H736 0.984 . S
N724 H737 0.985 1_455 S
N725 C727 1.356 . S
N725 H730 0.984 . S
N725 H731 0.985 . S
C726 C720 1.379 . S
C726 C723 1.363 . S
C726 N724 1.356 . S
C727 C721 1.363 . S
C727 C722 1.379 . S
C727 N725 1.356 . S
N728 C720 1.356 . S
N728 H734 0.984 . S
N728 H735 0.984 . S
N729 C722 1.356 . S
N729 H732 0.984 . S
N729 H733 0.985 . S
H730 N725 0.984 . S
H731 N725 0.985 . S
H732 N729 0.984 . S
H733 N729 0.985 . S
H734 N728 0.984 . S
H735 N728 0.984 . S
H736 N724 0.984 . S
H737 N724 0.985 1_655 S
C738 C739 1.363 . S
C738 C744 1.379 . S
C738 N746 1.356 . S
C739 C738 1.363 . S
C739 C745 1.363 . S
C740 C741 1.363 . S
C740 C745 1.379 . S
C740 N747 1.356 . S
C741 C740 1.363 . S
C741 C744 1.363 . S
N742 C744 1.356 . S
N742 H754 0.984 . S
N742 H755 0.985 . S
N743 C745 1.356 . S
N743 H748 0.984 . S
N743 H749 0.985 . S
C744 C738 1.379 . S
C744 C741 1.363 . S
C744 N742 1.356 . S
C745 C739 1.363 . S
C745 C740 1.379 . S
C745 N743 1.356 . S
N746 C738 1.356 . S
N746 H752 0.984 . S
N746 H753 0.984 . S
N747 C740 1.356 . S
N747 H750 0.984 . S
N747 H751 0.985 . S
H748 N743 0.984 . S
H749 N743 0.985 . S
H750 N747 0.984 . S
H751 N747 0.985 . S
H752 N746 0.984 . S
H753 N746 0.984 . S
H754 N742 0.984 . S
H755 N742 0.985 . S
C756 C757 1.363 . S
C756 C762 1.379 . S
C756 N764 1.356 . S
C757 C756 1.363 . S
C757 C763 1.363 . S
C758 C759 1.363 . S
C758 C763 1.379 . S
C758 N765 1.356 . S
C759 C758 1.363 . S
C759 C762 1.363 . S
N760 C762 1.356 1_545 S
N760 H772 0.984 . S
N760 H773 0.985 . S
N761 C763 1.356 . S
N761 H766 0.984 . S
N761 H767 0.985 . S
C762 C756 1.379 . S
C762 C759 1.363 . S
C762 N760 1.356 1_565 S
C763 C757 1.363 . S
C763 C758 1.379 . S
C763 N761 1.356 . S
N764 C756 1.356 . S
N764 H770 0.984 1_565 S
N764 H771 0.984 . S
N765 C758 1.356 . S
N765 H768 0.984 . S
N765 H769 0.985 . S
H766 N761 0.984 . S
H767 N761 0.985 . S
H768 N765 0.984 . S
H769 N765 0.985 . S
H770 N764 0.984 1_545 S
H771 N764 0.984 . S
H772 N760 0.984 . S
H773 N760 0.985 . S
C774 C775 1.363 . S
C774 C780 1.379 . S
C774 N782 1.356 . S
C775 C774 1.363 . S
C775 C781 1.363 . S
C776 C777 1.363 . S
C776 C781 1.379 . S
C776 N783 1.356 . S
C777 C776 1.363 . S
C777 C780 1.363 . S
N778 C780 1.356 . S
N778 H790 0.984 . S
N778 H791 0.985 . S
N779 C781 1.356 . S
N779 H784 0.984 . S
N779 H785 0.985 . S
C780 C774 1.379 . S
C780 C777 1.363 . S
C780 N778 1.356 . S
C781 C775 1.363 . S
C781 C776 1.379 . S
C781 N779 1.356 . S
N782 C774 1.356 . S
N782 H788 0.984 . S
N782 H789 0.984 . S
N783 C776 1.356 . S
N783 H786 0.984 . S
N783 H787 0.985 . S
H784 N779 0.984 . S
H785 N779 0.985 . S
H786 N783 0.984 . S
H787 N783 0.985 . S
H788 N782 0.984 . S
H789 N782 0.984 . S
H790 N778 0.984 . S
H791 N778 0.985 . S
C792 C793 1.363 . S
C792 C798 1.379 . S
C792 N800 1.356 . S
C793 C792 1.363 . S
C793 C799 1.363 . S
C794 C795 1.363 . S
C794 C799 1.379 . S
C794 N801 1.356 . S
C795 C794 1.363 . S
C795 C798 1.363 . S
N796 C798 1.356 . S
N796 H808 0.984 . S
N796 H809 0.985 . S
N797 C799 1.356 . S
N797 H802 0.984 . S
N797 H803 0.985 . S
C798 C792 1.379 . S
C798 C795 1.363 . S
C798 N796 1.356 . S
C799 C793 1.363 . S
C799 C794 1.379 . S
C799 N797 1.356 . S
N800 C792 1.356 . S
N800 H806 0.984 . S
N800 H807 0.984 . S
N801 C794 1.356 . S
N801 H804 0.984 . S
N801 H805 0.985 . S
H802 N797 0.984 . S
H803 N797 0.985 . S
H804 N801 0.984 . S
H805 N801 0.985 . S
H806 N800 0.984 . S
H807 N800 0.984 . S
H808 N796 0.984 . S
H809 N796 0.985 . S
C810 C811 1.363 . S
C810 C816 1.379 . S
C810 N818 1.356 . S
C811 C810 1.363 . S
C811 C817 1.363 . S
C812 C813 1.363 . S
C812 C817 1.379 . S
C812 N819 1.356 . S
C813 C812 1.363 . S
C813 C816 1.363 . S
N814 C816 1.356 . S
N814 H826 0.984 . S
N814 H827 0.985 . S
N815 C817 1.356 . S
N815 H820 0.984 . S
N815 H821 0.985 . S
C816 C810 1.379 . S
C816 C813 1.363 . S
C816 N814 1.356 . S
C817 C811 1.363 . S
C817 C812 1.379 . S
C817 N815 1.356 . S
N818 C810 1.356 . S
N818 H824 0.984 . S
N818 H825 0.984 . S
N819 C812 1.356 . S
N819 H822 0.984 . S
N819 H823 0.985 . S
H820 N815 0.984 . S
H821 N815 0.985 . S
H822 N819 0.984 . S
H823 N819 0.985 . S
H824 N818 0.984 . S
H825 N818 0.984 . S
H826 N814 0.984 . S
H827 N814 0.985 . S
C828 C829 1.363 . S
C828 C834 1.379 . S
C828 N836 1.356 . S
C829 C828 1.363 . S
C829 C835 1.363 . S
C830 C831 1.363 . S
C830 C835 1.379 . S
C830 N837 1.356 . S
C831 C830 1.363 . S
C831 C834 1.363 . S
N832 C834 1.356 . S
N832 H844 0.984 . S
N832 H845 0.985 . S
N833 C835 1.356 . S
N833 H838 0.984 . S
N833 H839 0.985 . S
C834 C828 1.379 . S
C834 C831 1.363 . S
C834 N832 1.356 . S
C835 C829 1.363 . S
C835 C830 1.379 . S
C835 N833 1.356 . S
N836 C828 1.356 . S
N836 H842 0.984 . S
N836 H843 0.984 . S
N837 C830 1.356 . S
N837 H840 0.984 . S
N837 H841 0.985 . S
H838 N833 0.984 . S
H839 N833 0.985 . S
H840 N837 0.984 . S
H841 N837 0.985 . S
H842 N836 0.984 . S
H843 N836 0.984 . S
H844 N832 0.984 . S
H845 N832 0.985 . S
C846 C847 1.363 . S
C846 C852 1.379 . S
C846 N854 1.356 . S
C847 C846 1.363 . S
C847 C853 1.363 . S
C848 C849 1.363 . S
C848 C853 1.379 . S
C848 N855 1.356 . S
C849 C848 1.363 . S
C849 C852 1.363 . S
N850 C852 1.356 . S
N850 H862 0.984 . S
N850 H863 0.985 . S
N851 C853 1.356 . S
N851 H856 0.984 . S
N851 H857 0.985 . S
C852 C846 1.379 . S
C852 C849 1.363 . S
C852 N850 1.356 . S
C853 C847 1.363 . S
C853 C848 1.379 . S
C853 N851 1.356 . S
N854 C846 1.356 . S
N854 H860 0.984 . S
N854 H861 0.984 . S
N855 C848 1.356 . S
N855 H858 0.984 . S
N855 H859 0.985 . S
H856 N851 0.984 . S
H857 N851 0.985 . S
H858 N855 0.984 . S
H859 N855 0.985 . S
H860 N854 0.984 . S
H861 N854 0.984 . S
H862 N850 0.984 . S
H863 N850 0.985 . S
C864 C865 1.363 . S
C864 C870 1.379 . S
C864 N872 1.356 . S
C865 C864 1.363 . S
C865 C871 1.363 . S
C866 C867 1.363 . S
C866 C871 1.379 . S
C866 N873 1.356 . S
C867 C866 1.363 . S
C867 C870 1.363 . S
N868 C870 1.356 . S
N868 H880 0.984 . S
N868 H881 0.985 . S
N869 C871 1.356 . S
N869 H874 0.984 . S
N869 H875 0.985 . S
C870 C864 1.379 . S
C870 C867 1.363 . S
C870 N868 1.356 . S
C871 C865 1.363 . S
C871 C866 1.379 . S
C871 N869 1.356 . S
N872 C864 1.356 . S
N872 H878 0.984 . S
N872 H879 0.984 . S
N873 C866 1.356 . S
N873 H876 0.984 . S
N873 H877 0.985 . S
H874 N869 0.984 . S
H875 N869 0.985 . S
H876 N873 0.984 . S
H877 N873 0.985 . S
H878 N872 0.984 . S
H879 N872 0.984 . S
H880 N868 0.984 . S
H881 N868 0.985 . S
C882 C883 1.363 . S
C882 C888 1.379 . S
C882 N890 1.356 . S
C883 C882 1.363 . S
C883 C889 1.363 . S
C884 C885 1.363 1_455 S
C884 C889 1.379 1_455 S
C884 N891 1.356 . S
C885 C884 1.363 1_655 S
C885 C888 1.363 . S
N886 C888 1.356 . S
N886 H898 0.984 . S
N886 H899 0.985 . S
N887 C889 1.363 . S
N887 H892 0.987 . S
N887 H893 0.975 1_655 S
C888 C882 1.379 . S
C888 C885 1.363 . S
C888 N886 1.356 . S
C889 C883 1.363 . S
C889 C884 1.379 1_655 S
C889 N887 1.363 . S
N890 C882 1.356 . S
N890 H896 0.984 . S
N890 H897 0.984 . S
N891 C884 1.356 . S
N891 H894 0.984 . S
N891 H895 0.985 . S
H892 N887 0.987 . S
H893 N887 0.975 1_455 S
H894 N891 0.984 . S
H895 N891 0.985 . S
H896 N890 0.984 . S
H897 N890 0.984 . S
H898 N886 0.984 . S
H899 N886 0.985 . S
C900 C901 1.363 . S
C900 C906 1.379 . S
C900 N908 1.356 . S
C901 C900 1.363 . S
C901 C907 1.363 . S
C902 C903 1.363 . S
C902 C907 1.379 . S
C902 N909 1.356 . S
C903 C902 1.363 . S
C903 C906 1.363 . S
N904 C906 1.356 . S
N904 H916 0.984 . S
N904 H917 0.985 . S
N905 C907 1.356 . S
N905 H910 0.984 . S
N905 H911 0.985 . S
C906 C900 1.379 . S
C906 C903 1.363 . S
C906 N904 1.356 . S
C907 C901 1.363 . S
C907 C902 1.379 . S
C907 N905 1.356 . S
N908 C900 1.356 . S
N908 H914 0.984 . S
N908 H915 0.984 . S
N909 C902 1.356 . S
N909 H912 0.984 . S
N909 H913 0.985 . S
H910 N905 0.984 . S
H911 N905 0.985 . S
H912 N909 0.984 . S
H913 N909 0.985 . S
H914 N908 0.984 . S
H915 N908 0.984 . S
H916 N904 0.984 . S
H917 N904 0.985 . S
C918 C919 1.363 . S
C918 C924 1.379 . S
C918 N926 1.356 . S
C919 C918 1.363 . S
C919 C925 1.363 1_545 S
C920 C921 1.363 . S
C920 C925 1.379 1_545 S
C920 N927 1.356 1_545 S
C921 C920 1.363 . S
C921 C924 1.363 . S
N922 C924 1.356 . S
N922 H934 0.984 . S
N922 H935 0.985 . S
N923 C925 1.356 . S
N923 H928 0.984 . S
N923 H929 0.985 . S
C924 C918 1.379 . S
C924 C921 1.363 . S
C924 N922 1.356 . S
C925 C919 1.363 1_565 S
C925 C920 1.379 1_565 S
C925 N923 1.356 . S
N926 C918 1.356 . S
N926 H932 0.984 . S
N926 H933 0.984 . S
N927 C920 1.356 1_565 S
N927 H930 0.984 1_565 S
N927 H931 0.985 . S
H928 N923 0.984 . S
H929 N923 0.985 . S
H930 N927 0.984 1_545 S
H931 N927 0.985 . S
H932 N926 0.984 . S
H933 N926 0.984 . S
H934 N922 0.984 . S
H935 N922 0.985 . S
C936 C937 1.363 . S
C936 C942 1.379 . S
C936 N944 1.356 . S
C937 C936 1.363 . S
C937 C943 1.363 . S
C938 C939 1.363 . S
C938 C943 1.379 . S
C938 N945 1.356 . S
C939 C938 1.363 . S
C939 C942 1.363 . S
N940 C942 1.356 . S
N940 H952 0.984 . S
N940 H953 0.985 . S
N941 C943 1.356 . S
N941 H946 0.984 . S
N941 H947 0.985 . S
C942 C936 1.379 . S
C942 C939 1.363 . S
C942 N940 1.356 . S
C943 C937 1.363 . S
C943 C938 1.379 . S
C943 N941 1.356 . S
N944 C936 1.356 . S
N944 H950 0.984 . S
N944 H951 0.984 . S
N945 C938 1.356 . S
N945 H948 0.984 . S
N945 H949 0.985 . S
H946 N941 0.984 . S
H947 N941 0.985 . S
H948 N945 0.984 . S
H949 N945 0.985 . S
H950 N944 0.984 . S
H951 N944 0.984 . S
H952 N940 0.984 . S
H953 N940 0.985 . S
C954 C955 1.363 1_565 S
C954 C960 1.379 . S
C954 N962 1.356 . S
C955 C954 1.363 1_545 S
C955 C961 1.363 . S
C956 C957 1.363 1_545 S
C956 C961 1.379 . S
C956 N963 1.356 . S
C957 C956 1.363 1_565 S
C957 C960 1.363 . S
N958 C960 1.356 . S
N958 H970 0.984 . S
N958 H971 0.985 . S
N959 C961 1.356 . S
N959 H964 0.984 . S
N959 H965 0.985 . S
C960 C954 1.379 . S
C960 C957 1.363 . S
C960 N958 1.356 . S
C961 C955 1.363 . S
C961 C956 1.379 . S
C961 N959 1.356 . S
N962 C954 1.356 . S
N962 H968 0.984 . S
N962 H969 0.984 . S
N963 C956 1.356 . S
N963 H966 0.984 . S
N963 H967 0.985 . S
H964 N959 0.984 . S
H965 N959 0.985 . S
H966 N963 0.984 . S
H967 N963 0.985 . S
H968 N962 0.984 . S
H969 N962 0.984 . S
H970 N958 0.984 . S
H971 N958 0.985 . S
C972 C973 1.363 . S
C972 C978 1.379 . S
C972 N980 1.356 . S
C973 C972 1.363 . S
C973 C979 1.363 1_455 S
C974 C975 1.363 . S
C974 C979 1.379 . S
C974 N981 1.356 . S
C975 C974 1.363 . S
C975 C978 1.363 1_655 S
N976 C978 1.356 . S
N976 H988 0.984 . S
N976 H989 0.985 . S
N977 C979 1.356 . S
N977 H982 0.983 . S
N977 H983 0.985 . S
C978 C972 1.379 . S
C978 C975 1.363 1_455 S
C978 N976 1.356 . S
C979 C973 1.363 1_655 S
C979 C974 1.379 . S
C979 N977 1.356 . S
N980 C972 1.356 . S
N980 H986 0.984 . S
N980 H987 0.984 . S
N981 C974 1.356 . S
N981 H984 0.984 . S
N981 H985 0.985 . S
H982 N977 0.983 . S
H983 N977 0.985 . S
H984 N981 0.984 . S
H985 N981 0.985 . S
H986 N980 0.984 . S
H987 N980 0.984 . S
H988 N976 0.984 . S
H989 N976 0.985 . S
C990 C991 1.363 . S
C990 C996 1.379 . S
C990 N998 1.356 . S
C991 C990 1.363 . S
C991 C997 1.363 . S
C992 C993 1.363 . S
C992 C997 1.379 . S
C992 N999 1.356 . S
C993 C992 1.363 . S
C993 C996 1.363 . S
N994 C996 1.356 . S
N994 H1006 0.984 . S
N994 H1007 0.985 . S
N995 C997 1.356 . S
N995 H1000 0.984 . S
N995 H1001 0.985 . S
C996 C990 1.379 . S
C996 C993 1.363 . S
C996 N994 1.356 . S
C997 C991 1.363 . S
C997 C992 1.379 . S
C997 N995 1.356 . S
N998 C990 1.356 . S
N998 H1004 0.984 . S
N998 H1005 0.984 . S
N999 C992 1.356 . S
N999 H1002 0.984 . S
N999 H1003 0.985 . S
H1000 N995 0.984 . S
H1001 N995 0.985 . S
H1002 N999 0.984 . S
H1003 N999 0.985 . S
H1004 N998 0.984 . S
H1005 N998 0.984 . S
H1006 N994 0.984 . S
H1007 N994 0.985 . S
C1008 C1009 1.363 1_565 S
C1008 C1014 1.379 . S
C1008 N1016 1.356 . S
C1009 C1008 1.363 1_545 S
C1009 C1015 1.363 . S
C1010 C1011 1.363 1_545 S
C1010 C1015 1.379 . S
C1010 N1017 1.356 . S
C1011 C1010 1.363 1_565 S
C1011 C1014 1.363 . S
N1012 C1014 1.356 . S
N1012 H1024 0.984 . S
N1012 H1025 0.985 . S
N1013 C1015 1.356 . S
N1013 H1018 0.984 . S
N1013 H1019 0.985 . S
C1014 C1008 1.379 . S
C1014 C1011 1.363 . S
C1014 N1012 1.356 . S
C1015 C1009 1.363 . S
C1015 C1010 1.379 . S
C1015 N1013 1.356 . S
N1016 C1008 1.356 . S
N1016 H1022 0.984 . S
N1016 H1023 0.984 . S
N1017 C1010 1.356 . S
N1017 H1020 0.984 . S
N1017 H1021 0.985 . S
H1018 N1013 0.984 . S
H1019 N1013 0.985 . S
H1020 N1017 0.984 . S
H1021 N1017 0.985 . S
H1022 N1016 0.984 . S
H1023 N1016 0.984 . S
H1024 N1012 0.984 . S
H1025 N1012 0.985 . S
C1026 C1027 1.363 . S
C1026 C1032 1.379 . S
C1026 N1034 1.356 . S
C1027 C1026 1.363 . S
C1027 C1033 1.363 1_655 S
C1028 C1029 1.363 . S
C1028 C1033 1.379 . S
C1028 N1035 1.356 . S
C1029 C1028 1.363 . S
C1029 C1032 1.363 1_455 S
N1030 C1032 1.356 . S
N1030 H1042 0.984 . S
N1030 H1043 0.985 . S
N1031 C1033 1.356 . S
N1031 H1036 0.984 . S
N1031 H1037 0.985 . S
C1032 C1026 1.379 . S
C1032 C1029 1.363 1_655 S
C1032 N1030 1.356 . S
C1033 C1027 1.363 1_455 S
C1033 C1028 1.379 . S
C1033 N1031 1.356 . S
N1034 C1026 1.356 . S
N1034 H1040 0.984 . S
N1034 H1041 0.984 . S
N1035 C1028 1.356 . S
N1035 H1038 0.984 . S
N1035 H1039 0.985 . S
H1036 N1031 0.984 . S
H1037 N1031 0.985 . S
H1038 N1035 0.984 . S
H1039 N1035 0.985 . S
H1040 N1034 0.984 . S
H1041 N1034 0.984 . S
H1042 N1030 0.984 . S
H1043 N1030 0.985 . S
C1044 C1045 1.363 . S
C1044 C1050 1.379 . S
C1044 N1052 1.356 . S
C1045 C1044 1.363 . S
C1045 C1051 1.363 . S
C1046 C1047 1.363 . S
C1046 C1051 1.379 . S
C1046 N1053 1.356 . S
C1047 C1046 1.363 . S
C1047 C1050 1.363 . S
N1048 C1050 1.356 . S
N1048 H1060 0.984 . S
N1048 H1061 0.985 . S
N1049 C1051 1.356 . S
N1049 H1054 0.984 . S
N1049 H1055 0.985 . S
C1050 C1044 1.379 . S
C1050 C1047 1.363 . S
C1050 N1048 1.356 . S
C1051 C1045 1.363 . S
C1051 C1046 1.379 . S
C1051 N1049 1.356 . S
N1052 C1044 1.356 . S
N1052 H1058 0.984 . S
N1052 H1059 0.984 . S
N1053 C1046 1.356 . S
N1053 H1056 0.984 . S
N1053 H1057 0.985 . S
H1054 N1049 0.984 . S
H1055 N1049 0.985 . S
H1056 N1053 0.984 . S
H1057 N1053 0.985 . S
H1058 N1052 0.984 . S
H1059 N1052 0.984 . S
H1060 N1048 0.984 . S
H1061 N1048 0.985 . S
C1062 C1063 1.363 . S
C1062 C1068 1.379 . S
C1062 N1070 1.356 . S
C1063 C1062 1.363 . S
C1063 C1069 1.363 . S
C1064 C1065 1.363 . S
C1064 C1069 1.379 . S
C1064 N1071 1.356 . S
C1065 C1064 1.363 . S
C1065 C1068 1.363 . S
N1066 C1068 1.356 . S
N1066 H1078 0.984 . S
N1066 H1079 0.985 . S
N1067 C1069 1.356 . S
N1067 H1072 0.984 . S
N1067 H1073 0.985 . S
C1068 C1062 1.379 . S
C1068 C1065 1.363 . S
C1068 N1066 1.356 . S
C1069 C1063 1.363 . S
C1069 C1064 1.379 . S
C1069 N1067 1.356 . S
N1070 C1062 1.356 . S
N1070 H1076 0.984 . S
N1070 H1077 0.984 . S
N1071 C1064 1.356 . S
N1071 H1074 0.984 . S
N1071 H1075 0.985 . S
H1072 N1067 0.984 . S
H1073 N1067 0.985 . S
H1074 N1071 0.984 . S
H1075 N1071 0.985 . S
H1076 N1070 0.984 . S
H1077 N1070 0.984 . S
H1078 N1066 0.984 . S
H1079 N1066 0.985 . S
C1080 C1081 1.363 . S
C1080 C1086 1.379 . S
C1080 N1088 1.356 . S
C1081 C1080 1.363 . S
C1081 C1087 1.363 . S
C1082 C1083 1.363 . S
C1082 C1087 1.379 . S
C1082 N1089 1.356 . S
C1083 C1082 1.363 . S
C1083 C1086 1.363 . S
N1084 C1086 1.356 . S
N1084 H1096 0.984 . S
N1084 H1097 0.985 . S
N1085 C1087 1.356 . S
N1085 H1090 0.984 . S
N1085 H1091 0.985 . S
C1086 C1080 1.379 . S
C1086 C1083 1.363 . S
C1086 N1084 1.356 . S
C1087 C1081 1.363 . S
C1087 C1082 1.379 . S
C1087 N1085 1.356 . S
N1088 C1080 1.356 . S
N1088 H1094 0.984 . S
N1088 H1095 0.984 . S
N1089 C1082 1.356 . S
N1089 H1092 0.984 . S
N1089 H1093 0.985 . S
H1090 N1085 0.984 . S
H1091 N1085 0.985 . S
H1092 N1089 0.984 . S
H1093 N1089 0.985 . S
H1094 N1088 0.984 . S
H1095 N1088 0.984 . S
H1096 N1084 0.984 . S
H1097 N1084 0.985 . S
C1098 C1099 1.363 . S
C1098 C1104 1.379 . S
C1098 N1106 1.356 . S
C1099 C1098 1.363 . S
C1099 C1105 1.363 . S
C1100 C1101 1.363 . S
C1100 C1105 1.379 . S
C1100 N1107 1.356 . S
C1101 C1100 1.363 . S
C1101 C1104 1.363 . S
N1102 C1104 1.356 . S
N1102 H1114 0.984 . S
N1102 H1115 0.985 . S
N1103 C1105 1.356 . S
N1103 H1108 0.984 . S
N1103 H1109 0.985 . S
C1104 C1098 1.379 . S
C1104 C1101 1.363 . S
C1104 N1102 1.356 . S
C1105 C1099 1.363 . S
C1105 C1100 1.379 . S
C1105 N1103 1.356 . S
N1106 C1098 1.356 . S
N1106 H1112 0.984 . S
N1106 H1113 0.984 . S
N1107 C1100 1.356 . S
N1107 H1110 0.984 . S
N1107 H1111 0.985 . S
H1108 N1103 0.984 . S
H1109 N1103 0.985 . S
H1110 N1107 0.984 . S
H1111 N1107 0.985 . S
H1112 N1106 0.984 . S
H1113 N1106 0.984 . S
H1114 N1102 0.984 . S
H1115 N1102 0.985 . S
C1116 C1117 1.363 . S
C1116 C1122 1.379 . S
C1116 N1124 1.356 . S
C1117 C1116 1.363 . S
C1117 C1123 1.363 . S
C1118 C1119 1.363 . S
C1118 C1123 1.379 . S
C1118 N1125 1.356 . S
C1119 C1118 1.363 . S
C1119 C1122 1.363 . S
N1120 C1122 1.356 . S
N1120 H1132 0.984 . S
N1120 H1133 0.985 . S
N1121 C1123 1.356 . S
N1121 H1126 0.984 . S
N1121 H1127 0.985 . S
C1122 C1116 1.379 . S
C1122 C1119 1.363 . S
C1122 N1120 1.356 . S
C1123 C1117 1.363 . S
C1123 C1118 1.379 . S
C1123 N1121 1.356 . S
N1124 C1116 1.356 . S
N1124 H1130 0.984 . S
N1124 H1131 0.984 . S
N1125 C1118 1.356 . S
N1125 H1128 0.984 . S
N1125 H1129 0.985 . S
H1126 N1121 0.984 . S
H1127 N1121 0.985 . S
H1128 N1125 0.984 . S
H1129 N1125 0.985 . S
H1130 N1124 0.984 . S
H1131 N1124 0.984 . S
H1132 N1120 0.984 . S
H1133 N1120 0.985 . S
C1134 C1135 1.363 . S
C1134 C1140 1.379 . S
C1134 N1142 1.356 . S
C1135 C1134 1.363 . S
C1135 C1141 1.363 . S
C1136 C1137 1.363 . S
C1136 C1141 1.379 . S
C1136 N1143 1.356 . S
C1137 C1136 1.363 . S
C1137 C1140 1.363 . S
N1138 C1140 1.356 . S
N1138 H1150 0.984 . S
N1138 H1151 0.985 . S
N1139 C1141 1.356 . S
N1139 H1144 0.984 . S
N1139 H1145 0.985 . S
C1140 C1134 1.379 . S
C1140 C1137 1.363 . S
C1140 N1138 1.356 . S
C1141 C1135 1.363 . S
C1141 C1136 1.379 . S
C1141 N1139 1.356 . S
N1142 C1134 1.356 . S
N1142 H1148 0.984 . S
N1142 H1149 0.984 . S
N1143 C1136 1.356 . S
N1143 H1146 0.984 . S
N1143 H1147 0.985 . S
H1144 N1139 0.984 . S
H1145 N1139 0.985 . S
H1146 N1143 0.984 . S
H1147 N1143 0.985 . S
H1148 N1142 0.984 . S
H1149 N1142 0.984 . S
H1150 N1138 0.984 . S
H1151 N1138 0.985 . S
C1152 C1153 1.363 . S
C1152 C1158 1.379 . S
C1152 N1160 1.356 . S
C1153 C1152 1.363 . S
C1153 C1159 1.363 . S
C1154 C1155 1.363 . S
C1154 C1159 1.379 . S
C1154 N1161 1.356 . S
C1155 C1154 1.363 . S
C1155 C1158 1.363 . S
N1156 C1158 1.356 . S
N1156 H1168 0.984 . S
N1156 H1169 0.985 . S
N1157 C1159 1.356 . S
N1157 H1162 0.984 . S
N1157 H1163 0.985 . S
C1158 C1152 1.379 . S
C1158 C1155 1.363 . S
C1158 N1156 1.356 . S
C1159 C1153 1.363 . S
C1159 C1154 1.379 . S
C1159 N1157 1.356 . S
N1160 C1152 1.356 . S
N1160 H1166 0.984 . S
N1160 H1167 0.984 . S
N1161 C1154 1.356 . S
N1161 H1164 0.984 . S
N1161 H1165 0.985 . S
H1162 N1157 0.984 . S
H1163 N1157 0.985 . S
H1164 N1161 0.984 . S
H1165 N1161 0.985 . S
H1166 N1160 0.984 . S
H1167 N1160 0.984 . S
H1168 N1156 0.984 . S
H1169 N1156 0.985 . S
C1170 C1171 1.363 . S
C1170 C1176 1.379 . S
C1170 N1178 1.356 . S
C1171 C1170 1.363 . S
C1171 C1177 1.363 . S
C1172 C1173 1.363 . S
C1172 C1177 1.379 . S
C1172 N1179 1.356 . S
C1173 C1172 1.363 . S
C1173 C1176 1.363 . S
N1174 C1176 1.356 . S
N1174 H1186 0.984 . S
N1174 H1187 0.985 . S
N1175 C1177 1.356 . S
N1175 H1180 0.984 . S
N1175 H1181 0.985 . S
C1176 C1170 1.379 . S
C1176 C1173 1.363 . S
C1176 N1174 1.356 . S
C1177 C1171 1.363 . S
C1177 C1172 1.379 . S
C1177 N1175 1.356 . S
N1178 C1170 1.356 . S
N1178 H1184 0.984 . S
N1178 H1185 0.984 . S
N1179 C1172 1.356 . S
N1179 H1182 0.984 . S
N1179 H1183 0.985 . S
H1180 N1175 0.984 . S
H1181 N1175 0.985 . S
H1182 N1179 0.984 . S
H1183 N1179 0.985 . S
H1184 N1178 0.984 . S
H1185 N1178 0.984 . S
H1186 N1174 0.984 . S
H1187 N1174 0.985 . S
C1188 C1189 1.363 . S
C1188 C1194 1.379 . S
C1188 N1196 1.356 . S
C1189 C1188 1.363 . S
C1189 C1195 1.363 . S
C1190 C1191 1.363 . S
C1190 C1195 1.379 . S
C1190 N1197 1.356 . S
C1191 C1190 1.363 . S
C1191 C1194 1.363 . S
N1192 C1194 1.356 . S
N1192 H1204 0.984 . S
N1192 H1205 0.985 . S
N1193 C1195 1.356 . S
N1193 H1198 0.984 . S
N1193 H1199 0.985 . S
C1194 C1188 1.379 . S
C1194 C1191 1.363 . S
C1194 N1192 1.356 . S
C1195 C1189 1.363 . S
C1195 C1190 1.379 . S
C1195 N1193 1.356 . S
N1196 C1188 1.356 . S
N1196 H1202 0.984 . S
N1196 H1203 0.984 . S
N1197 C1190 1.356 . S
N1197 H1200 0.984 . S
N1197 H1201 0.985 . S
H1198 N1193 0.984 . S
H1199 N1193 0.985 . S
H1200 N1197 0.984 . S
H1201 N1197 0.985 . S
H1202 N1196 0.984 . S
H1203 N1196 0.984 . S
H1204 N1192 0.984 . S
H1205 N1192 0.985 . S
C1206 C1207 1.363 . S
C1206 C1212 1.379 . S
C1206 N1214 1.356 . S
C1207 C1206 1.363 . S
C1207 C1213 1.363 . S
C1208 C1209 1.363 . S
C1208 C1213 1.379 . S
C1208 N1215 1.356 . S
C1209 C1208 1.363 . S
C1209 C1212 1.363 . S
N1210 C1212 1.356 . S
N1210 H1222 0.984 . S
N1210 H1223 0.985 . S
N1211 C1213 1.356 . S
N1211 H1216 0.984 . S
N1211 H1217 0.985 . S
C1212 C1206 1.379 . S
C1212 C1209 1.363 . S
C1212 N1210 1.356 . S
C1213 C1207 1.363 . S
C1213 C1208 1.379 . S
C1213 N1211 1.356 . S
N1214 C1206 1.356 . S
N1214 H1220 0.984 . S
N1214 H1221 0.984 . S
N1215 C1208 1.356 . S
N1215 H1218 0.984 . S
N1215 H1219 0.985 . S
H1216 N1211 0.984 . S
H1217 N1211 0.985 . S
H1218 N1215 0.984 . S
H1219 N1215 0.985 . S
H1220 N1214 0.984 . S
H1221 N1214 0.984 . S
H1222 N1210 0.984 . S
H1223 N1210 0.985 . S
C1224 C1225 1.363 . S
C1224 C1230 1.379 . S
C1224 N1232 1.356 . S
C1225 C1224 1.363 . S
C1225 C1231 1.363 . S
C1226 C1227 1.363 . S
C1226 C1231 1.379 . S
C1226 N1233 1.356 . S
C1227 C1226 1.363 . S
C1227 C1230 1.363 . S
N1228 C1230 1.356 . S
N1228 H1240 0.984 . S
N1228 H1241 0.985 . S
N1229 C1231 1.356 . S
N1229 H1234 0.984 . S
N1229 H1235 0.985 . S
C1230 C1224 1.379 . S
C1230 C1227 1.363 . S
C1230 N1228 1.356 . S
C1231 C1225 1.363 . S
C1231 C1226 1.379 . S
C1231 N1229 1.356 . S
N1232 C1224 1.356 . S
N1232 H1238 0.984 . S
N1232 H1239 0.984 . S
N1233 C1226 1.356 . S
N1233 H1236 0.984 . S
N1233 H1237 0.985 . S
H1234 N1229 0.984 . S
H1235 N1229 0.985 . S
H1236 N1233 0.984 . S
H1237 N1233 0.985 . S
H1238 N1232 0.984 . S
H1239 N1232 0.984 . S
H1240 N1228 0.984 . S
H1241 N1228 0.985 . S
C1242 C1243 1.363 . S
C1242 C1248 1.379 . S
C1242 N1250 1.356 . S
C1243 C1242 1.363 . S
C1243 C1249 1.363 . S
C1244 C1245 1.363 . S
C1244 C1249 1.379 . S
C1244 N1251 1.356 . S
C1245 C1244 1.363 . S
C1245 C1248 1.363 . S
N1246 C1248 1.356 . S
N1246 H1258 0.984 . S
N1246 H1259 0.985 . S
N1247 C1249 1.356 . S
N1247 H1252 0.984 . S
N1247 H1253 0.985 . S
C1248 C1242 1.379 . S
C1248 C1245 1.363 . S
C1248 N1246 1.356 . S
C1249 C1243 1.363 . S
C1249 C1244 1.379 . S
C1249 N1247 1.356 . S
N1250 C1242 1.356 . S
N1250 H1256 0.984 . S
N1250 H1257 0.984 . S
N1251 C1244 1.356 . S
N1251 H1254 0.984 . S
N1251 H1255 0.985 . S
H1252 N1247 0.984 . S
H1253 N1247 0.985 . S
H1254 N1251 0.984 . S
H1255 N1251 0.985 . S
H1256 N1250 0.984 . S
H1257 N1250 0.984 . S
H1258 N1246 0.984 . S
H1259 N1246 0.985 . S
C1260 C1261 1.363 . S
C1260 C1266 1.379 . S
C1260 N1268 1.356 . S
C1261 C1260 1.363 . S
C1261 C1267 1.363 . S
C1262 C1263 1.363 . S
C1262 C1267 1.379 . S
C1262 N1269 1.356 . S
C1263 C1262 1.363 . S
C1263 C1266 1.363 . S
N1264 C1266 1.356 . S
N1264 H1276 0.984 . S
N1264 H1277 0.985 . S
N1265 C1267 1.356 . S
N1265 H1270 0.984 . S
N1265 H1271 0.985 . S
C1266 C1260 1.379 . S
C1266 C1263 1.363 . S
C1266 N1264 1.356 . S
C1267 C1261 1.363 . S
C1267 C1262 1.379 . S
C1267 N1265 1.356 . S
N1268 C1260 1.356 . S
N1268 H1274 0.984 . S
N1268 H1275 0.984 . S
N1269 C1262 1.356 . S
N1269 H1272 0.984 . S
N1269 H1273 0.985 . S
H1270 N1265 0.984 . S
H1271 N1265 0.985 . S
H1272 N1269 0.984 . S
H1273 N1269 0.985 . S
H1274 N1268 0.984 . S
H1275 N1268 0.984 . S
H1276 N1264 0.984 . S
H1277 N1264 0.985 . S
C1278 C1279 1.363 . S
C1278 C1284 1.379 . S
C1278 N1286 1.356 . S
C1279 C1278 1.363 . S
C1279 C1285 1.363 . S
C1280 C1281 1.363 . S
C1280 C1285 1.379 . S
C1280 N1287 1.356 . S
C1281 C1280 1.363 . S
C1281 C1284 1.363 . S
N1282 C1284 1.356 . S
N1282 H1294 0.984 . S
N1282 H1295 0.985 . S
N1283 C1285 1.356 . S
N1283 H1288 0.984 . S
N1283 H1289 0.985 . S
C1284 C1278 1.379 . S
C1284 C1281 1.363 . S
C1284 N1282 1.356 . S
C1285 C1279 1.363 . S
C1285 C1280 1.379 . S
C1285 N1283 1.356 . S
N1286 C1278 1.356 . S
N1286 H1292 0.984 . S
N1286 H1293 0.984 . S
N1287 C1280 1.356 . S
N1287 H1290 0.984 . S
N1287 H1291 0.985 . S
H1288 N1283 0.984 . S
H1289 N1283 0.985 . S
H1290 N1287 0.984 . S
H1291 N1287 0.985 . S
H1292 N1286 0.984 . S
H1293 N1286 0.984 . S
H1294 N1282 0.984 . S
H1295 N1282 0.985 . S
C1296 C1297 1.363 . S
C1296 C1302 1.379 . S
C1296 N1304 1.356 . S
C1297 C1296 1.363 . S
C1297 C1303 1.363 . S
C1298 C1299 1.363 . S
C1298 C1303 1.379 . S
C1298 N1305 1.356 . S
C1299 C1298 1.363 . S
C1299 C1302 1.363 . S
N1300 C1302 1.356 . S
N1300 H1312 0.984 . S
N1300 H1313 0.985 . S
N1301 C1303 1.356 . S
N1301 H1306 0.984 . S
N1301 H1307 0.985 . S
C1302 C1296 1.379 . S
C1302 C1299 1.363 . S
C1302 N1300 1.356 . S
C1303 C1297 1.363 . S
C1303 C1298 1.379 . S
C1303 N1301 1.356 . S
N1304 C1296 1.356 . S
N1304 H1310 0.984 . S
N1304 H1311 0.984 . S
N1305 C1298 1.356 . S
N1305 H1308 0.984 . S
N1305 H1309 0.985 . S
H1306 N1301 0.984 . S
H1307 N1301 0.985 . S
H1308 N1305 0.984 . S
H1309 N1305 0.985 . S
H1310 N1304 0.984 . S
H1311 N1304 0.984 . S
H1312 N1300 0.984 . S
H1313 N1300 0.985 . S
C1314 C1315 1.363 . S
C1314 C1320 1.379 . S
C1314 N1322 1.356 . S
C1315 C1314 1.363 . S
C1315 C1321 1.363 . S
C1316 C1317 1.363 . S
C1316 C1321 1.379 . S
C1316 N1323 1.356 . S
C1317 C1316 1.363 . S
C1317 C1320 1.363 . S
N1318 C1320 1.356 . S
N1318 H1330 0.984 . S
N1318 H1331 0.985 . S
N1319 C1321 1.356 . S
N1319 H1324 0.984 . S
N1319 H1325 0.985 . S
C1320 C1314 1.379 . S
C1320 C1317 1.363 . S
C1320 N1318 1.356 . S
C1321 C1315 1.363 . S
C1321 C1316 1.379 . S
C1321 N1319 1.356 . S
N1322 C1314 1.356 . S
N1322 H1328 0.984 . S
N1322 H1329 0.984 . S
N1323 C1316 1.356 . S
N1323 H1326 0.984 . S
N1323 H1327 0.985 . S
H1324 N1319 0.984 . S
H1325 N1319 0.985 . S
H1326 N1323 0.984 . S
H1327 N1323 0.985 . S
H1328 N1322 0.984 . S
H1329 N1322 0.984 . S
H1330 N1318 0.984 . S
H1331 N1318 0.985 . S
C1332 C1333 1.363 . S
C1332 C1338 1.379 . S
C1332 N1340 1.356 . S
C1333 C1332 1.363 . S
C1333 C1339 1.363 . S
C1334 C1335 1.363 . S
C1334 C1339 1.379 . S
C1334 N1341 1.356 . S
C1335 C1334 1.363 . S
C1335 C1338 1.363 . S
N1336 C1338 1.356 . S
N1336 H1348 0.984 . S
N1336 H1349 0.985 . S
N1337 C1339 1.356 . S
N1337 H1342 0.984 . S
N1337 H1343 0.985 . S
C1338 C1332 1.379 . S
C1338 C1335 1.363 . S
C1338 N1336 1.356 . S
C1339 C1333 1.363 . S
C1339 C1334 1.379 . S
C1339 N1337 1.356 . S
N1340 C1332 1.356 . S
N1340 H1346 0.984 . S
N1340 H1347 0.984 . S
N1341 C1334 1.356 . S
N1341 H1344 0.984 . S
N1341 H1345 0.985 . S
H1342 N1337 0.984 . S
H1343 N1337 0.985 . S
H1344 N1341 0.984 . S
H1345 N1341 0.985 . S
H1346 N1340 0.984 . S
H1347 N1340 0.984 . S
H1348 N1336 0.984 . S
H1349 N1336 0.985 . S
C1350 C1351 1.363 . S
C1350 C1356 1.379 . S
C1350 N1358 1.356 . S
C1351 C1350 1.363 . S
C1351 C1357 1.363 . S
C1352 C1353 1.363 . S
C1352 C1357 1.379 . S
C1352 N1359 1.356 . S
C1353 C1352 1.363 . S
C1353 C1356 1.363 . S
N1354 C1356 1.356 . S
N1354 H1366 0.984 . S
N1354 H1367 0.985 . S
N1355 C1357 1.356 . S
N1355 H1360 0.984 . S
N1355 H1361 0.985 . S
C1356 C1350 1.379 . S
C1356 C1353 1.363 . S
C1356 N1354 1.356 . S
C1357 C1351 1.363 . S
C1357 C1352 1.379 . S
C1357 N1355 1.356 . S
N1358 C1350 1.356 . S
N1358 H1364 0.984 . S
N1358 H1365 0.984 . S
N1359 C1352 1.356 . S
N1359 H1362 0.984 . S
N1359 H1363 0.985 . S
H1360 N1355 0.984 . S
H1361 N1355 0.985 . S
H1362 N1359 0.984 . S
H1363 N1359 0.985 . S
H1364 N1358 0.984 . S
H1365 N1358 0.984 . S
H1366 N1354 0.984 . S
H1367 N1354 0.985 . S
C1368 C1369 1.363 . S
C1368 C1374 1.379 . S
C1368 N1376 1.356 . S
C1369 C1368 1.363 . S
C1369 C1375 1.363 1_655 S
C1370 C1371 1.363 . S
C1370 C1375 1.379 . S
C1370 N1377 1.356 . S
C1371 C1370 1.363 . S
C1371 C1374 1.363 1_455 S
N1372 C1374 1.356 . S
N1372 H1384 0.984 . S
N1372 H1385 0.985 . S
N1373 C1375 1.356 . S
N1373 H1378 0.984 . S
N1373 H1379 0.985 . S
C1374 C1368 1.379 . S
C1374 C1371 1.363 1_655 S
C1374 N1372 1.356 . S
C1375 C1369 1.363 1_455 S
C1375 C1370 1.379 . S
C1375 N1373 1.356 . S
N1376 C1368 1.356 . S
N1376 H1382 0.984 . S
N1376 H1383 0.984 . S
N1377 C1370 1.356 . S
N1377 H1380 0.984 . S
N1377 H1381 0.985 . S
H1378 N1373 0.984 . S
H1379 N1373 0.985 . S
H1380 N1377 0.984 . S
H1381 N1377 0.985 . S
H1382 N1376 0.984 . S
H1383 N1376 0.984 . S
H1384 N1372 0.984 . S
H1385 N1372 0.985 . S
C1386 C1387 1.363 . S
C1386 C1392 1.379 . S
C1386 N1394 1.356 . S
C1387 C1386 1.363 . S
C1387 C1393 1.363 . S
C1388 C1389 1.363 . S
C1388 C1393 1.379 . S
C1388 N1395 1.356 . S
C1389 C1388 1.363 . S
C1389 C1392 1.363 . S
N1390 C1392 1.356 . S
N1390 H1402 0.984 . S
N1390 H1403 0.985 . S
N1391 C1393 1.356 . S
N1391 H1396 0.984 . S
N1391 H1397 0.985 . S
C1392 C1386 1.379 . S
C1392 C1389 1.363 . S
C1392 N1390 1.356 . S
C1393 C1387 1.363 . S
C1393 C1388 1.379 . S
C1393 N1391 1.356 . S
N1394 C1386 1.356 . S
N1394 H1400 0.984 . S
N1394 H1401 0.984 . S
N1395 C1388 1.356 . S
N1395 H1398 0.984 . S
N1395 H1399 0.985 . S
H1396 N1391 0.984 . S
H1397 N1391 0.985 . S
H1398 N1395 0.984 . S
H1399 N1395 0.985 . S
H1400 N1394 0.984 . S
H1401 N1394 0.984 . S
H1402 N1390 0.984 . S
H1403 N1390 0.985 . S
C1404 C1405 1.363 1_565 S
C1404 C1410 1.379 . S
C1404 N1412 1.356 . S
C1405 C1404 1.363 1_545 S
C1405 C1411 1.363 . S
C1406 C1407 1.363 1_545 S
C1406 C1411 1.379 . S
C1406 N1413 1.356 . S
C1407 C1406 1.363 1_565 S
C1407 C1410 1.363 . S
N1408 C1410 1.356 . S
N1408 H1420 0.984 . S
N1408 H1421 0.985 . S
N1409 C1411 1.356 . S
N1409 H1414 0.984 . S
N1409 H1415 0.985 . S
C1410 C1404 1.379 . S
C1410 C1407 1.363 . S
C1410 N1408 1.356 . S
C1411 C1405 1.363 . S
C1411 C1406 1.379 . S
C1411 N1409 1.356 . S
N1412 C1404 1.356 . S
N1412 H1418 0.984 . S
N1412 H1419 0.984 . S
N1413 C1406 1.356 . S
N1413 H1416 0.984 . S
N1413 H1417 0.985 . S
H1414 N1409 0.984 . S
H1415 N1409 0.985 . S
H1416 N1413 0.984 . S
H1417 N1413 0.985 . S
H1418 N1412 0.984 . S
H1419 N1412 0.984 . S
H1420 N1408 0.984 . S
H1421 N1408 0.985 . S
C613 C9 1.410 . S
C615 C156 1.414 . S
C631 C43 1.454 . S
C633 C190 1.456 . S
C649 C77 1.503 . S
C651 C122 1.506 . S
C667 C54 1.416 . S
C669 C111 1.407 . S
C685 C145 1.454 . S
C687 C88 1.456 . S
C703 C20 1.504 . S
C705 C179 1.505 . S
C721 C213 1.482 . S
C723 C360 1.488 . S
C739 C394 1.480 . S
C741 C247 1.475 . S
C757 C281 1.462 . S
C759 C326 1.466 . S
C775 C258 1.474 . S
C777 C315 1.470 . S
C793 C349 1.458 . S
C795 C292 1.464 . S
C811 C224 1.463 . S
C813 C383 1.457 . S
C829 C564 1.474 . S
C831 C417 1.470 . S
C847 C598 1.464 . S
C849 C451 1.458 . S
C865 C530 1.463 . S
C867 C485 1.457 . S
C883 C519 1.482 . S
C885 C462 1.488 . S
C901 C496 1.480 . S
C903 C553 1.475 . S
C919 C428 1.466 . S
C921 C587 1.462 . S
C937 C33 1.442 . S
C939 C379 1.397 . S
C955 C67 1.415 . S
C957 C311 1.377 . S
C973 C345 1.419 . S
C975 C101 1.459 . S
C991 C481 1.397 . S
C993 C135 1.442 . S
C1009 C413 1.375 . S
C1011 C169 1.417 . S
C1027 C447 1.419 . S
C1029 C203 1.459 . S
C1045 C583 1.401 . S
C1047 C237 1.450 . S
C1063 C515 1.404 . S
C1065 C271 1.451 . S
C1081 C305 1.447 . S
C1083 C549 1.397 . S
C1099 C73 1.346 . S
C1101 C339 1.391 . S
C1117 C373 1.422 . S
C1119 C5 1.375 . S
C1135 C407 1.402 . S
C1137 C39 1.350 . S
C1153 C441 1.392 . S
C1155 C175 1.345 . S
C1171 C107 1.375 . S
C1173 C475 1.422 . S
C1189 C509 1.402 . S
C1191 C141 1.350 . S
C1207 C543 1.450 . S
C1209 C277 1.401 . S
C1225 C577 1.451 . S
C1227 C209 1.404 . S
C1243 C611 1.447 . S
C1245 C243 1.397 . S
C1261 C308 2.052 . S
C1263 C2 2.053 . S
C1279 C36 2.096 . S
C1281 C342 2.097 . S
C1297 C70 2.078 . S
C1299 C376 2.081 . S
C1315 C104 2.053 . S
C1317 C410 2.052 . S
C1333 C444 2.096 . S
C1335 C138 2.098 . S
C1351 C172 2.078 . S
C1353 C478 2.081 . S
C1369 C206 2.015 . S
C1371 C512 2.015 . S
C1387 C546 2.024 . S
C1389 C240 2.024 . S
C1405 C274 2.018 . S
C1407 C580 2.018 . S
