# Generated by pormake.
# Topology mon, (4)-cn, num edge types: 1
# Building blocks:
#     Node 0, Type 0, BuildingBlock: TATPOV_clean_sbu_0, # of connection points: 4
#     Node 1, Type 0, BuildingBlock: TATPOV_clean_sbu_0, # of connection points: 4
#     Node 2, Type 0, BuildingBlock: TATPOV_clean_sbu_0, # of connection points: 4
#     Node 3, Type 0, BuildingBlock: TATPOV_clean_sbu_0, # of connection points: 4
#     Node 4, Type 0, BuildingBlock: TATPOV_clean_sbu_0, # of connection points: 4
#     Node 5, Type 0, BuildingBlock: TATPOV_clean_sbu_0, # of connection points: 4
#     Node 6, Type 0, BuildingBlock: TATPOV_clean_sbu_0, # of connection points: 4
#     Node 7, Type 0, BuildingBlock: TATPOV_clean_sbu_0, # of connection points: 4
#     Node 8, Type 0, BuildingBlock: TATPOV_clean_sbu_0, # of connection points: 4
#     Node 9, Type 0, BuildingBlock: TATPOV_clean_sbu_0, # of connection points: 4
#     Node 10, Type 0, BuildingBlock: TATPOV_clean_sbu_0, # of connection points: 4
#     Node 11, Type 0, BuildingBlock: TATPOV_clean_sbu_0, # of connection points: 4
#     Node 12, Type 0, BuildingBlock: TATPOV_clean_sbu_0, # of connection points: 4
#     Node 13, Type 0, BuildingBlock: TATPOV_clean_sbu_0, # of connection points: 4
#     Node 14, Type 0, BuildingBlock: TATPOV_clean_sbu_0, # of connection points: 4
#     Node 15, Type 0, BuildingBlock: TATPOV_clean_sbu_0, # of connection points: 4
#     Edge 16, Type (0, 0), BuildingBlock: CIFDUS_clean_linker_0, # of connection points: 2
#     Edge 17, Type (0, 0), BuildingBlock: CIFDUS_clean_linker_0, # of connection points: 2
#     Edge 18, Type (0, 0), BuildingBlock: CIFDUS_clean_linker_0, # of connection points: 2
#     Edge 19, Type (0, 0), BuildingBlock: CIFDUS_clean_linker_0, # of connection points: 2
#     Edge 20, Type (0, 0), BuildingBlock: CIFDUS_clean_linker_0, # of connection points: 2
#     Edge 21, Type (0, 0), BuildingBlock: CIFDUS_clean_linker_0, # of connection points: 2
#     Edge 22, Type (0, 0), BuildingBlock: CIFDUS_clean_linker_0, # of connection points: 2
#     Edge 23, Type (0, 0), BuildingBlock: CIFDUS_clean_linker_0, # of connection points: 2
#     Edge 24, Type (0, 0), BuildingBlock: CIFDUS_clean_linker_0, # of connection points: 2
#     Edge 25, Type (0, 0), BuildingBlock: CIFDUS_clean_linker_0, # of connection points: 2
#     Edge 26, Type (0, 0), BuildingBlock: CIFDUS_clean_linker_0, # of connection points: 2
#     Edge 27, Type (0, 0), BuildingBlock: CIFDUS_clean_linker_0, # of connection points: 2
#     Edge 28, Type (0, 0), BuildingBlock: CIFDUS_clean_linker_0, # of connection points: 2
#     Edge 29, Type (0, 0), BuildingBlock: CIFDUS_clean_linker_0, # of connection points: 2
#     Edge 30, Type (0, 0), BuildingBlock: CIFDUS_clean_linker_0, # of connection points: 2
#     Edge 31, Type (0, 0), BuildingBlock: CIFDUS_clean_linker_0, # of connection points: 2
#     Edge 32, Type (0, 0), BuildingBlock: CIFDUS_clean_linker_0, # of connection points: 2
#     Edge 33, Type (0, 0), BuildingBlock: CIFDUS_clean_linker_0, # of connection points: 2
#     Edge 34, Type (0, 0), BuildingBlock: CIFDUS_clean_linker_0, # of connection points: 2
#     Edge 35, Type (0, 0), BuildingBlock: CIFDUS_clean_linker_0, # of connection points: 2
#     Edge 36, Type (0, 0), BuildingBlock: CIFDUS_clean_linker_0, # of connection points: 2
#     Edge 37, Type (0, 0), BuildingBlock: CIFDUS_clean_linker_0, # of connection points: 2
#     Edge 38, Type (0, 0), BuildingBlock: CIFDUS_clean_linker_0, # of connection points: 2
#     Edge 39, Type (0, 0), BuildingBlock: CIFDUS_clean_linker_0, # of connection points: 2
#     Edge 40, Type (0, 0), BuildingBlock: CIFDUS_clean_linker_0, # of connection points: 2
#     Edge 41, Type (0, 0), BuildingBlock: CIFDUS_clean_linker_0, # of connection points: 2
#     Edge 42, Type (0, 0), BuildingBlock: CIFDUS_clean_linker_0, # of connection points: 2
#     Edge 43, Type (0, 0), BuildingBlock: CIFDUS_clean_linker_0, # of connection points: 2
#     Edge 44, Type (0, 0), BuildingBlock: CIFDUS_clean_linker_0, # of connection points: 2
#     Edge 45, Type (0, 0), BuildingBlock: CIFDUS_clean_linker_0, # of connection points: 2
#     Edge 46, Type (0, 0), BuildingBlock: CIFDUS_clean_linker_0, # of connection points: 2
#     Edge 47, Type (0, 0), BuildingBlock: CIFDUS_clean_linker_0, # of connection points: 2
# Relax obj value: 0.115
# Max RMSD: 0.120
# Mean RMSD: 0.120
data_MOF--net-mon--node1-TATPOV_clean_sbu_0--edge1-CIFDUS_clean_linker_0
_symmetry_space_group_name_H-M    P1
_symmetry_Int_Tables_number       1
_symmetry_cell_setting            triclinic
loop_
_symmetry_equiv_pos_as_xyz
'x, y, z'
_cell_length_a     29.148352
_cell_length_b     29.414206
_cell_length_c     76.416279
_cell_angle_alpha  90.174146
_cell_angle_beta   90.012463
_cell_angle_gamma 90.5086
loop_
_atom_site_label
_atom_site_type_symbol
_atom_site_fract_x
_atom_site_fract_y
_atom_site_fract_z
_atom_type_partial_charge
Zn0 Zn 0.98438 0.01677 0.56172 0.0
Zn1 Zn 0.98584 0.10521 0.5589 0.0
O2 O 0.03901 0.09224 0.5762 0.0
O3 O 0.03902 0.0174 0.57745 0.0
O4 O 0.98687 0.1744 0.55761 0.0
O5 O 0.99451 0.00689 0.5367 0.0
O6 O 0.99773 0.08114 0.53322 0.0
C7 C 0.05623 0.05537 0.58177 0.0
C8 C 0.9005 0.0544 0.573 0.0
O9 O 0.92109 0.09173 0.56951 0.0
O10 O 0.92047 0.01689 0.57075 0.0
C11 C 0.02417 0.19696 0.55911 0.0
O12 O 0.06305 0.17488 0.56017 0.0
C13 C 1.00007 0.04086 0.52686 0.0
Zn14 Zn 0.38633 0.67517 0.80136 0.0
Zn15 Zn 0.30604 0.70742 0.812 0.0
O16 O 0.34584 0.74569 0.82859 0.0
O17 O 0.4112 0.7122 0.8219 0.0
O18 O 0.23916 0.72385 0.81525 0.0
O19 O 0.38373 0.70317 0.77758 0.0
O20 O 0.31667 0.72734 0.78671 0.0
C21 C 0.38876 0.74054 0.83099 0.0
C22 C 0.3325 0.60518 0.81484 0.0
O23 O 0.30823 0.6396 0.81872 0.0
O24 O 0.36731 0.61027 0.80514 0.0
C25 C 0.21194 0.70322 0.82561 0.0
O26 O 0.22834 0.67234 0.83624 0.0
C27 C 0.34738 0.72515 0.7749 0.0
Zn28 Zn 0.48092 0.0983 0.05503 0.0
Zn29 Zn 0.46016 0.01578 0.06606 0.0
O30 O 0.40022 0.05051 0.0713 0.0
O31 O 0.41804 0.11886 0.06169 0.0
O32 O 0.44495 0.94947 0.07003 0.0
O33 O 0.49506 0.08106 0.03066 0.0
O34 O 0.48301 0.01183 0.04046 0.0
C35 C 0.38951 0.09193 0.06876 0.0
C36 C 0.53685 0.06802 0.08393 0.0
O37 O 0.51041 0.03329 0.08382 0.0
O38 O 0.53208 0.09914 0.07267 0.0
C39 C 0.459 0.92442 0.08242 0.0
O40 O 0.48365 0.94253 0.09508 0.0
C41 C 0.49493 0.03863 0.02815 0.0
Zn42 Zn 0.24257 0.11626 0.30628 0.0
Zn43 Zn 0.33269 0.13035 0.30615 0.0
O44 O 0.32454 0.06697 0.31726 0.0
O45 O 0.2505 0.05286 0.31537 0.0
O46 O 0.40151 0.13701 0.30533 0.0
O47 O 0.23629 0.12702 0.28082 0.0
O48 O 0.31033 0.14268 0.28066 0.0
C49 C 0.29034 0.04057 0.31976 0.0
C50 C 0.27371 0.19122 0.32839 0.0
O51 O 0.31355 0.17978 0.32337 0.0
O52 O 0.23839 0.1701 0.32296 0.0
C53 C 0.4232 0.13269 0.31967 0.0
O54 O 0.39986 0.12488 0.33408 0.0
C55 C 0.27182 0.13988 0.27269 0.0
Zn56 Zn 0.09 0.96115 0.39753 0.0
Zn57 Zn 0.07381 0.87578 0.40164 0.0
O58 O 0.13568 0.8815 0.38835 0.0
O59 O 0.15636 0.95281 0.39183 0.0
O60 O 0.06898 0.80794 0.40505 0.0
O61 O 0.07157 0.97847 0.42161 0.0
O62 O 0.06607 0.90491 0.42646 0.0
C63 C 0.16528 0.91322 0.38644 0.0
C64 C 0.01562 0.92552 0.37617 0.0
O65 O 0.02017 0.88986 0.38532 0.0
O66 O 0.04263 0.95911 0.37815 0.0
C67 C 0.07117 0.78343 0.39132 0.0
O68 O 0.07509 0.80349 0.37604 0.0
C69 C 0.06418 0.94595 0.43201 0.0
Zn70 Zn 0.20043 0.86645 0.66508 0.0
Zn71 Zn 0.28381 0.85369 0.65127 0.0
O72 O 0.26179 0.9124 0.63915 0.0
O73 O 0.19464 0.92414 0.65151 0.0
O74 O 0.35086 0.84715 0.64484 0.0
O75 O 0.22167 0.86857 0.68972 0.0
O76 O 0.28842 0.85165 0.67813 0.0
C77 C 0.22562 0.93613 0.64084 0.0
C78 C 0.2103 0.78283 0.6445 0.0
O79 O 0.25075 0.79752 0.64139 0.0
O80 O 0.1835 0.80529 0.65426 0.0
C81 C 0.36951 0.85794 0.63039 0.0
O82 O 0.34391 0.87396 0.61771 0.0
C83 C 0.26335 0.85828 0.69154 0.0
Zn84 Zn 0.62236 0.92416 0.90759 0.0
Zn85 Zn 0.59483 0.00283 0.89337 0.0
O86 O 0.54599 0.96095 0.88239 0.0
O87 O 0.57104 0.89611 0.89302 0.0
O88 O 0.58149 0.06742 0.88646 0.0
O89 O 0.6083 0.94382 0.9321 0.0
O90 O 0.58813 0.00823 0.9199 0.0
C91 C 0.54262 0.91783 0.88373 0.0
C92 C 0.69116 0.96463 0.8861 0.0
O93 O 0.65873 0.99218 0.88302 0.0
O94 O 0.68553 0.93321 0.89721 0.0
C95 C 0.61121 0.09563 0.89227 0.0
O96 O 0.64678 0.07994 0.90085 0.0
C97 C 0.59335 0.98387 0.93347 0.0
Zn98 Zn 0.28038 0.32301 0.15254 0.0
Zn99 Zn 0.19694 0.30138 0.15265 0.0
O100 O 0.21671 0.25881 0.13282 0.0
O101 O 0.28426 0.2914 0.12893 0.0
O102 O 0.12831 0.29235 0.15491 0.0
O103 O 0.29769 0.29035 0.17409 0.0
O104 O 0.22322 0.27967 0.17666 0.0
C105 C 0.25356 0.26334 0.12405 0.0
C106 C 0.23285 0.40019 0.14715 0.0
O107 O 0.20273 0.36912 0.14461 0.0
O108 O 0.27078 0.38985 0.15396 0.0
C109 C 0.10181 0.30239 0.1423 0.0
O110 O 0.11984 0.31747 0.12764 0.0
C111 C 0.26385 0.27564 0.18276 0.0
Zn112 Zn 0.65413 0.29218 0.17024 0.0
Zn113 Zn 0.74205 0.29415 0.15925 0.0
O114 O 0.71577 0.35298 0.14884 0.0
O115 O 0.64496 0.35313 0.15896 0.0
O116 O 0.81009 0.29639 0.15417 0.0
O117 O 0.67026 0.28803 0.19543 0.0
O118 O 0.74146 0.28537 0.18596 0.0
C119 C 0.6766 0.37168 0.15007 0.0
C120 C 0.67953 0.21846 0.14654 0.0
O121 O 0.71831 0.23864 0.14591 0.0
O122 O 0.64761 0.23392 0.15607 0.0
C123 C 0.8273 0.30586 0.13933 0.0
O124 O 0.79982 0.31516 0.12621 0.0
C125 C 0.71259 0.28376 0.19848 0.0
Zn126 Zn 0.8243 0.84638 0.64609 0.0
Zn127 Zn 0.73761 0.83421 0.64696 0.0
O128 O 0.75464 0.78807 0.62768 0.0
O129 O 0.82697 0.80862 0.62415 0.0
O130 O 0.66833 0.8291 0.64885 0.0
O131 O 0.83678 0.81779 0.6689 0.0
O132 O 0.76169 0.81475 0.67168 0.0
C133 C 0.79261 0.78485 0.61956 0.0
C134 C 0.78185 0.92867 0.64008 0.0
O135 O 0.74748 0.90164 0.63894 0.0
O136 O 0.82029 0.91372 0.6449 0.0
C137 C 0.64312 0.83936 0.63586 0.0
O138 O 0.66278 0.85243 0.62122 0.0
C139 C 0.80181 0.80841 0.67798 0.0
Zn140 Zn 0.87208 0.15164 0.31213 0.0
Zn141 Zn 0.78409 0.14566 0.32123 0.0
O142 O 0.80504 0.19244 0.33944 0.0
O143 O 0.87662 0.20103 0.33049 0.0
O144 O 0.71549 0.14156 0.32357 0.0
O145 O 0.86195 0.1693 0.2875 0.0
O146 O 0.78967 0.16851 0.29576 0.0
C147 C 0.84411 0.21179 0.34065 0.0
C148 C 0.84651 0.06355 0.32527 0.0
O149 O 0.80744 0.08178 0.32749 0.0
O150 O 0.87908 0.08609 0.31847 0.0
C151 C 0.69337 0.13567 0.33771 0.0
O152 O 0.71597 0.13124 0.35247 0.0
C153 C 0.82019 0.1761 0.28414 0.0
Zn154 Zn 0.77255 0.75815 0.81078 0.0
Zn155 Zn 0.85196 0.73115 0.81203 0.0
O156 O 0.81952 0.68038 0.82647 0.0
O157 O 0.75605 0.71854 0.83109 0.0
O158 O 0.91979 0.71657 0.81269 0.0
O159 O 0.75904 0.73803 0.78662 0.0
O160 O 0.83421 0.73419 0.78542 0.0
C161 C 0.7813 0.6849 0.83435 0.0
C162 C 0.82554 0.82652 0.82428 0.0
O163 O 0.85145 0.79209 0.82567 0.0
O164 O 0.78944 0.82333 0.81519 0.0
C165 C 0.93745 0.70264 0.82691 0.0
O166 O 0.91069 0.69532 0.84046 0.0
C167 C 0.79523 0.73405 0.7777 0.0
Zn168 Zn 0.44757 0.47652 0.06563 0.0
Zn169 Zn 0.44893 0.56648 0.07016 0.0
O170 O 0.49907 0.54561 0.0873 0.0
O171 O 0.49806 0.47124 0.08346 0.0
O172 O 0.44964 0.63494 0.07284 0.0
O173 O 0.46492 0.4811 0.04072 0.0
O174 O 0.46434 0.55558 0.04379 0.0
C175 C 0.51451 0.50636 0.09082 0.0
C176 C 0.36155 0.51117 0.07779 0.0
O177 O 0.38371 0.54867 0.07838 0.0
O178 O 0.38081 0.47545 0.07232 0.0
C179 C 0.45512 0.65307 0.08785 0.0
O180 O 0.46025 0.62675 0.10156 0.0
C181 C 0.47012 0.52028 0.03426 0.0
Zn182 Zn 0.02582 0.63618 0.54899 0.0
Zn183 Zn 0.0214 0.55437 0.56485 0.0
O184 O 0.95904 0.58206 0.57155 0.0
O185 O 0.96189 0.64784 0.55786 0.0
O186 O 0.01785 0.48778 0.57157 0.0
O187 O 0.03579 0.61182 0.52504 0.0
O188 O 0.03541 0.54622 0.53872 0.0
C189 C 0.94063 0.61979 0.56753 0.0
C190 C 0.09432 0.62203 0.57629 0.0
O191 O 0.07397 0.58411 0.57895 0.0
O192 O 0.08105 0.64844 0.56428 0.0
C193 C 0.98339 0.46523 0.56591 0.0
O194 O 0.95029 0.48704 0.55795 0.0
C195 C 0.04002 0.56914 0.52472 0.0
Zn196 Zn 0.52721 0.5338 0.89986 0.0
Zn197 Zn 0.55158 0.44809 0.8972 0.0
O198 O 0.60809 0.48051 0.8864 0.0
O199 O 0.58708 0.55203 0.88881 0.0
O200 O 0.5669 0.38164 0.89595 0.0
O201 O 0.52294 0.53256 0.92559 0.0
O202 O 0.54014 0.45996 0.92383 0.0
C203 C 0.61632 0.52273 0.88423 0.0
C204 C 0.46544 0.48149 0.8787 0.0
O205 O 0.49485 0.45051 0.88124 0.0
O206 O 0.47069 0.52025 0.88567 0.0
C207 C 0.60584 0.36613 0.9002 0.0
O208 O 0.63771 0.39431 0.90594 0.0
C209 C 0.52969 0.49487 0.93297 0.0
Zn210 Zn 0.0833 0.34336 0.41737 0.0
Zn211 Zn 0.08195 0.42801 0.40267 0.0
O212 O 0.02159 0.40245 0.3937 0.0
O213 O 0.01987 0.33524 0.40643 0.0
O214 O 0.08147 0.49446 0.39662 0.0
O215 O 0.08875 0.36652 0.44207 0.0
O216 O 0.08598 0.433 0.42913 0.0
C217 C 1.00142 0.36469 0.39664 0.0
C218 C 0.15444 0.36088 0.39118 0.0
O219 O 0.13548 0.39948 0.38956 0.0
O220 O 0.13988 0.33261 0.40244 0.0
C221 C 0.08041 0.51293 0.38164 0.0
O222 O 0.08032 0.48723 0.36754 0.0
C223 C 0.08833 0.40941 0.44301 0.0
H224 H 0.95035 0.25358 0.55803 0.0
H225 H 0.09751 0.25369 0.56447 0.0
H226 H 0.09759 0.33599 0.56838 0.0
H227 H 0.05623 0.40848 0.56943 0.0
H228 H 0.90951 0.40878 0.56203 0.0
H229 H 0.90892 0.32602 0.55928 0.0
C230 C 0.98246 0.27158 0.56026 0.0
C231 C 0.02385 0.24729 0.56089 0.0
C232 C 0.98236 0.31911 0.56247 0.0
C233 C 0.0651 0.27134 0.56383 0.0
C234 C 0.06522 0.31851 0.56614 0.0
C235 C 0.02406 0.39038 0.56745 0.0
C236 C 0.98295 0.41481 0.56604 0.0
C237 C 0.02408 0.34278 0.56548 0.0
C238 C 0.94165 0.39083 0.5632 0.0
C239 C 0.94129 0.34348 0.56156 0.0
H240 H 1.00444 0.74072 0.8067 0.0
H241 H 0.98338 0.65386 0.85144 0.0
H242 H 0.06624 0.64739 0.8553 0.0
H243 H 0.14473 0.66615 0.84597 0.0
H244 H 0.16594 0.75502 0.80179 0.0
H245 H 0.08314 0.76135 0.79789 0.0
C246 C 0.01802 0.72014 0.81722 0.0
C247 C 0.98776 0.69753 0.82868 0.0
C248 C 0.06577 0.71724 0.81958 0.0
C249 C 0.0059 0.67155 0.84241 0.0
C250 C 0.0533 0.66788 0.84465 0.0
C251 C 0.1313 0.68713 0.83554 0.0
C252 C 0.16166 0.70998 0.82419 0.0
C253 C 0.08357 0.69067 0.83335 0.0
C254 C 0.14349 0.73711 0.81077 0.0
C255 C 0.09607 0.7406 0.80846 0.0
H256 H 0.42864 0.71677 0.06424 0.0
H257 H 0.48479 0.70189 0.11615 0.0
H258 H 0.48951 0.78442 0.11935 0.0
H259 H 0.47989 0.86095 0.10706 0.0
H260 H 0.42203 0.87553 0.05538 0.0
H261 H 0.41548 0.79319 0.05255 0.0
C262 C 0.44188 0.73158 0.07626 0.0
C263 C 0.45663 0.70316 0.08988 0.0
C264 C 0.44413 0.7791 0.07809 0.0
C265 C 0.47323 0.72294 0.10544 0.0
C266 C 0.47599 0.77017 0.10729 0.0
C267 C 0.46558 0.84615 0.09522 0.0
C268 C 0.45171 0.87451 0.08144 0.0
C269 C 0.46182 0.79861 0.09366 0.0
C270 C 0.433 0.85464 0.06623 0.0
C271 C 0.42936 0.80746 0.06455 0.0
H272 H 0.63773 0.14632 0.30949 0.0
H273 H 0.63465 0.12177 0.36517 0.0
H274 H 0.55085 0.11919 0.36448 0.0
H275 H 0.4786 0.12341 0.34805 0.0
H276 H 0.48196 0.14795 0.29238 0.0
H277 H 0.56566 0.15111 0.29314 0.0
C278 C 0.61882 0.14038 0.32151 0.0
C279 C 0.64254 0.13416 0.33736 0.0
C280 C 0.57069 0.13897 0.32102 0.0
C281 C 0.61734 0.12662 0.35278 0.0
C282 C 0.5694 0.12515 0.3524 0.0
C283 C 0.49758 0.12952 0.33607 0.0
C284 C 0.47395 0.13539 0.32018 0.0
C285 C 0.54573 0.13122 0.33659 0.0
C286 C 0.4992 0.14329 0.30479 0.0
C287 C 0.5471 0.14508 0.30521 0.0
H288 H 0.07579 0.72284 0.36443 0.0
H289 H 0.06649 0.73091 0.42075 0.0
H290 H 0.06852 0.64809 0.42261 0.0
H291 H 0.0738 0.57368 0.40835 0.0
H292 H 0.08283 0.56522 0.35203 0.0
H293 H 0.08009 0.6481 0.3501 0.0
C294 C 0.0741 0.70654 0.37712 0.0
C295 C 0.07105 0.73314 0.39243 0.0
C296 C 0.07535 0.65888 0.37811 0.0
C297 C 0.06884 0.71135 0.40876 0.0
C298 C 0.07006 0.66396 0.40984 0.0
C299 C 0.07521 0.58986 0.39562 0.0
C300 C 0.07865 0.56316 0.38034 0.0
C301 C 0.07349 0.63744 0.39461 0.0
C302 C 0.08022 0.58485 0.36399 0.0
C303 C 0.07865 0.63227 0.36288 0.0
H304 H 0.43194 0.83017 0.65459 0.0
H305 H 0.42093 0.87832 0.60145 0.0
H306 H 0.50426 0.87572 0.59835 0.0
H307 H 0.58042 0.86174 0.61094 0.0
H308 H 0.59138 0.81434 0.66418 0.0
H309 H 0.50793 0.81464 0.66697 0.0
C310 C 0.44767 0.83994 0.64228 0.0
C311 C 0.42004 0.85453 0.62828 0.0
C312 C 0.49569 0.83862 0.64061 0.0
C313 C 0.44121 0.86702 0.61246 0.0
C314 C 0.48894 0.86558 0.61067 0.0
C315 C 0.56462 0.85132 0.62315 0.0
C316 C 0.59231 0.83815 0.63734 0.0
C317 C 0.51654 0.85175 0.6247 0.0
C318 C 0.57106 0.82472 0.65305 0.0
C319 C 0.52327 0.8249 0.65466 0.0
H320 H 0.54919 0.3002 0.88709 0.0
H321 H 0.68288 0.32104 0.91029 0.0
H322 H 0.69696 0.23946 0.90901 0.0
H323 H 0.67039 0.16222 0.90235 0.0
H324 H 0.53673 0.14074 0.87927 0.0
H325 H 0.52378 0.22279 0.87932 0.0
C326 C 0.58146 0.28695 0.89184 0.0
C327 C 0.6148 0.31675 0.8989 0.0
C328 C 0.58937 0.23994 0.89107 0.0
C329 C 0.65654 0.29895 0.90487 0.0
C330 C 0.66464 0.25227 0.90414 0.0
C331 C 0.63847 0.1754 0.89723 0.0
C332 C 0.60448 0.14532 0.8909 0.0
C333 C 0.63115 0.22246 0.89742 0.0
C334 C 0.56347 0.1631 0.88422 0.0
C335 C 0.55598 0.21001 0.8843 0.0
H336 H 0.03642 0.32163 0.11801 0.0
H337 H 0.0534 0.27561 0.1712 0.0
H338 H 0.97025 0.27236 0.17489 0.0
H339 H 0.89273 0.28372 0.16323 0.0
H340 H 0.87564 0.32955 0.11002 0.0
H341 H 0.9588 0.3317 0.10617 0.0
C342 C 0.02199 0.31076 0.1304 0.0
C343 C 0.05126 0.29898 0.14431 0.0
C344 C 0.97408 0.30903 0.13246 0.0
C345 C 0.03181 0.28491 0.16026 0.0
C346 C 0.9842 0.28308 0.1624 0.0
C347 C 0.90712 0.29417 0.15077 0.0
C348 C 0.87784 0.30658 0.13695 0.0
C349 C 0.95501 0.29528 0.14862 0.0
C350 C 0.89724 0.31985 0.12089 0.0
C351 C 0.94486 0.32111 0.11867 0.0
H352 H 0.055 0.02952 0.44696 0.0
H353 H 0.04566 0.88593 0.4584 0.0
H354 H 0.02391 0.90344 0.48851 0.0
H355 H 0.00786 0.95873 0.51131 0.0
H356 H 0.01749 0.10258 0.50049 0.0
H357 H 0.03859 0.08549 0.47011 0.0
C358 C 0.04832 0.00196 0.45603 0.0
C359 C 0.05207 0.95636 0.45041 0.0
C360 C 0.03572 0.01228 0.47331 0.0
C361 C 0.04315 0.92122 0.46235 0.0
C362 C 0.03063 0.93122 0.47956 0.0
C363 C 0.01441 0.98662 0.50237 0.0
C364 C 0.01105 0.03202 0.50822 0.0
C365 C 0.0268 0.97655 0.48512 0.0
C366 C 0.01973 0.06741 0.49636 0.0
C367 C 0.0319 0.05761 0.47901 0.0
H368 H 0.28526 0.7905 0.76837 0.0
H369 H 0.39656 0.71661 0.74462 0.0
H370 H 0.38453 0.75697 0.71712 0.0
H371 H 0.33814 0.80821 0.6993 0.0
H372 H 0.22545 0.88016 0.72301 0.0
H373 H 0.24322 0.84634 0.75128 0.0
C374 C 0.30692 0.78319 0.75718 0.0
C375 C 0.34119 0.75009 0.7584 0.0
C376 C 0.29988 0.80644 0.7415 0.0
C377 C 0.36961 0.74166 0.74393 0.0
C378 C 0.36285 0.76478 0.72823 0.0
C379 C 0.31811 0.8173 0.71073 0.0
C380 C 0.28028 0.84626 0.70906 0.0
C381 C 0.3276 0.79669 0.7268 0.0
C382 C 0.25456 0.85765 0.72396 0.0
C383 C 0.26449 0.83813 0.7401 0.0
H384 H 0.51944 0.08704 -0.00043 0.0
H385 H 0.50829 0.94964 0.01901 0.0
H386 H 0.54032 0.92073 -0.00836 0.0
H387 H 0.57133 0.9347 0.96225 0.0
H388 H 0.58048 0.07216 0.94279 0.0
H389 H 0.54987 0.10095 0.97036 0.0
C390 C 0.52383 0.05072 -0.00216 0.0
C391 C 0.51148 0.02054 0.0113 0.0
C392 C 0.5423 0.03443 0.98217 0.0
C393 C 0.51736 0.97359 0.00881 0.0
C394 C 0.53587 0.95706 -0.00679 0.0
C395 C 0.56707 0.97099 0.96412 0.0
C396 C 0.57831 0.00131 0.95058 0.0
C397 C 0.54863 0.98721 0.97985 0.0
C398 C 0.57205 0.04818 0.95306 0.0
C399 C 0.55446 0.06464 0.96878 0.0
H400 H 0.20731 0.21704 0.20007 0.0
H401 H 0.34041 0.28207 0.20299 0.0
H402 H 0.35653 0.24275 0.23031 0.0
H403 H 0.33188 0.19183 0.25395 0.0
H404 H 0.19893 0.1264 0.25092 0.0
H405 H 0.18423 0.16317 0.22299 0.0
C406 C 0.23971 0.22274 0.20675 0.0
C407 C 0.27237 0.25271 0.1996 0.0
C408 C 0.24908 0.19956 0.22236 0.0
C409 C 0.31455 0.25924 0.20825 0.0
C410 C 0.32391 0.23668 0.22386 0.0
C411 C 0.30003 0.18503 0.24704 0.0
C412 C 0.26656 0.15657 0.25457 0.0
C413 C 0.2914 0.20684 0.23107 0.0
C414 C 0.22529 0.14834 0.24547 0.0
C415 C 0.21668 0.16953 0.22952 0.0
H416 H 0.79643 0.25364 0.20811 0.0
H417 H 0.66207 0.28453 0.22855 0.0
H418 H 0.68356 0.25341 0.25691 0.0
H419 H 0.73901 0.21398 0.27538 0.0
H420 H 0.87311 0.1826 0.25484 0.0
H421 H 0.85286 0.21701 0.22692 0.0
C422 C 0.77203 0.25418 0.21883 0.0
C423 C 0.7277 0.27118 0.21621 0.0
C424 C 0.78425 0.2355 0.23498 0.0
C425 C 0.69643 0.27148 0.23021 0.0
C426 C 0.70856 0.25349 0.24641 0.0
C427 C 0.76372 0.21446 0.26476 0.0
C428 C 0.80729 0.19542 0.2671 0.0
C429 C 0.75206 0.23462 0.24882 0.0
C430 C 0.83921 0.19687 0.25332 0.0
C431 C 0.82776 0.21665 0.23738 0.0
H432 H 0.73785 0.77094 0.69986 0.0
H433 H 0.88167 0.8063 0.69638 0.0
H434 H 0.89371 0.78094 0.72627 0.0
H435 H 0.86249 0.75447 0.75425 0.0
H436 H 0.71868 0.71967 0.75796 0.0
H437 H 0.70797 0.73805 0.72716 0.0
C438 C 0.77181 0.77294 0.70563 0.0
C439 C 0.80855 0.79103 0.69594 0.0
C440 C 0.7787 0.75815 0.7229 0.0
C441 C 0.85256 0.79279 0.70355 0.0
C442 C 0.85962 0.77822 0.72067 0.0
C443 C 0.82905 0.74997 0.74823 0.0
C444 C 0.79144 0.73616 0.75843 0.0
C445 C 0.82283 0.7615 0.73057 0.0
C446 C 0.74823 0.73063 0.75042 0.0
C447 C 0.74194 0.74135 0.73282 0.0
H448 H 0.51362 0.56448 0.95537 0.0
H449 H 0.53162 0.4189 0.95368 0.0
H450 H 0.51594 0.41457 -0.01492 0.0
H451 H 0.49416 0.45167 0.01249 0.0
H452 H 0.4756 0.59719 0.01414 0.0
H453 H 0.49463 0.60193 -0.01699 0.0
C454 C 0.51431 0.53172 0.96183 0.0
C455 C 0.52347 0.49196 0.95214 0.0
C456 C 0.50498 0.52949 0.97978 0.0
C457 C 0.52459 0.44995 0.9608 0.0
C458 C 0.51551 0.44747 0.97873 0.0
C459 C 0.49426 0.48454 0.00609 0.0
C460 C 0.48307 0.52405 0.01561 0.0
C461 C 0.50513 0.48696 -0.01173 0.0
C462 C 0.4839 0.56629 0.00711 0.0
C463 C 0.49475 0.56899 -0.01067 0.0
H464 H 0.0562 0.47919 0.51985 0.0
H465 H 0.0498 0.60733 0.49247 0.0
H466 H 0.06812 0.56923 0.46504 0.0
H467 H 0.08269 0.49978 0.44875 0.0
H468 H 0.08745 0.37095 0.47565 0.0
H469 H 0.07383 0.40951 0.50354 0.0
C470 C 0.05884 0.49881 0.50789 0.0
C471 C 0.05131 0.54596 0.50818 0.0
C472 C 0.06935 0.47673 0.49215 0.0
C473 C 0.05518 0.57095 0.49259 0.0
C474 C 0.06576 0.54924 0.47691 0.0
C475 C 0.08119 0.48003 0.46071 0.0
C476 C 0.08578 0.43254 0.46012 0.0
C477 C 0.07253 0.50217 0.47654 0.0
C478 C 0.08393 0.40758 0.47576 0.0
C479 C 0.07593 0.42955 0.49168 0.0
H480 H 0.17247 0.00971 0.64634 0.0
H481 H 0.25224 0.94173 0.60677 0.0
H482 H 0.21071 0.982 0.58388 0.0
H483 H 0.13952 0.02097 0.57554 0.0
H484 H 0.05869 0.08763 0.615 0.0
H485 H 0.11308 0.06406 0.63762 0.0
C486 C 0.18187 0.00507 0.63272 0.0
C487 C 0.21447 0.97208 0.62818 0.0
C488 C 0.15703 0.02744 0.61966 0.0
C489 C 0.22705 0.96677 0.61056 0.0
C490 C 0.2029 0.98938 0.59746 0.0
C491 C 0.13504 0.0318 0.58902 0.0
C492 C 0.09537 0.05551 0.59379 0.0
C493 C 0.16597 0.01747 0.60188 0.0
C494 C 0.08931 0.0695 0.61117 0.0
C495 C 0.12013 0.05565 0.62407 0.0
H496 H 0.38539 0.83203 0.83641 0.0
H497 H 0.44995 0.70927 0.85426 0.0
H498 H 0.50114 0.75356 0.87312 0.0
H499 H 0.53162 0.82658 0.88258 0.0
H500 H 0.47198 0.95087 0.86359 0.0
H501 H 0.41483 0.90669 0.84707 0.0
C502 C 0.41009 0.8152 0.84473 0.0
C503 C 0.41392 0.7676 0.84411 0.0
C504 C 0.44068 0.8411 0.85508 0.0
C505 C 0.44651 0.74593 0.85462 0.0
C506 C 0.47586 0.7712 0.86532 0.0
C507 C 0.50602 0.84425 0.87494 0.0
C508 C 0.50635 0.89203 0.87426 0.0
C509 C 0.47396 0.81877 0.86532 0.0
C510 C 0.47273 0.91411 0.86427 0.0
C511 C 0.43999 0.88886 0.85484 0.0
H512 H 0.35257 0.17353 0.06158 0.0
H513 H 0.33286 0.05472 0.09377 0.0
H514 H 0.27909 0.09657 0.11225 0.0
H515 H 0.25137 0.17132 0.12267 0.0
H516 H 0.27986 0.29102 0.09202 0.0
H517 H 0.31597 0.24464 0.06942 0.0
C518 C 0.33571 0.15638 0.0724 0.0
C519 C 0.34753 0.11145 0.07655 0.0
C520 C 0.30678 0.18121 0.08339 0.0
C521 C 0.32469 0.08945 0.09038 0.0
C522 C 0.29424 0.11352 0.10105 0.0
C523 C 0.26411 0.18678 0.11073 0.0
C524 C 0.26321 0.23427 0.10888 0.0
C525 C 0.287 0.16008 0.09822 0.0
C526 C 0.28037 0.25441 0.09359 0.0
C527 C 0.30119 0.22797 0.08076 0.0
H528 H 0.25105 0.94904 0.38849 0.0
H529 H 0.16164 0.86951 0.35526 0.0
H530 H 0.20378 0.89492 0.32948 0.0
H531 H 0.24863 0.95825 0.31683 0.0
H532 H 0.33826 0.03759 0.35003 0.0
H533 H 0.31474 0.99282 0.37536 0.0
C534 C 0.24249 0.93539 0.37567 0.0
C535 C 0.20267 0.90866 0.37364 0.0
C536 C 0.26628 0.951 0.36087 0.0
C537 C 0.19202 0.8905 0.3571 0.0
C538 C 0.21571 0.90558 0.3423 0.0
C539 C 0.26474 0.96403 0.32946 0.0
C540 C 0.29402 0.00175 0.33175 0.0
C541 C 0.25037 0.93867 0.34401 0.0
C542 C 0.31532 0.00885 0.34803 0.0
C543 C 0.3014 0.98362 0.36257 0.0
H544 H 0.92538 0.93939 0.38173 0.0
H545 H 0.02682 0.92244 0.34133 0.0
H546 H 0.97441 0.9539 0.31965 0.0
H547 H 0.90918 0.0033 0.31431 0.0
H548 H 0.81063 0.02744 0.35525 0.0
H549 H 0.85106 0.97476 0.37443 0.0
C550 C 0.93494 0.94086 0.36802 0.0
C551 C 0.97952 0.92893 0.36296 0.0
C552 C 0.90533 0.96095 0.35582 0.0
C553 C 0.99239 0.93145 0.34533 0.0
C554 C 0.96261 0.94972 0.33301 0.0
C555 C 0.89563 0.99562 0.3272 0.0
C556 C 0.85786 0.01991 0.33356 0.0
C557 C 0.92027 0.96718 0.33836 0.0
C558 C 0.83993 0.0093 0.35013 0.0
C559 C 0.86343 0.97966 0.36118 0.0
H560 H 0.62145 0.10475 0.08159 0.0
H561 H 0.52302 0.05197 0.11856 0.0
H562 H 0.5643 0.08946 0.14257 0.0
H563 H 0.61861 0.14971 0.15168 0.0
H564 H 0.71697 0.20229 0.11455 0.0
H565 H 0.68609 0.15172 0.09195 0.0
C566 C 0.61005 0.10026 0.095 0.0
C567 C 0.56905 0.07647 0.09838 0.0
C568 C 0.63346 0.12248 0.1086 0.0
C569 C 0.55459 0.07023 0.11573 0.0
C570 C 0.57787 0.09209 0.1294 0.0
C571 C 0.63396 0.1492 0.13875 0.0
C572 C 0.66917 0.18033 0.1346 0.0
C573 C 0.61583 0.12029 0.12582 0.0
C574 C 0.68955 0.17885 0.11797 0.0
C575 C 0.67174 0.15015 0.10502 0.0
H576 H 0.7946 0.9122 0.82 0.0
H577 H 0.86256 0.82532 0.85701 0.0
H578 H 0.83433 0.87157 0.88117 0.0
H579 H 0.7715 0.92034 0.89124 0.0
H580 H 0.70028 0.00429 0.85403 0.0
H581 H 0.74941 0.97666 0.8306 0.0
C582 C 0.80492 0.90471 0.83332 0.0
C583 C 0.829 0.86457 0.83682 0.0
C584 C 0.78689 0.93028 0.84716 0.0
C585 C 0.84333 0.85568 0.85402 0.0
C586 C 0.82662 0.88179 0.86788 0.0
C587 C 0.76786 0.93381 0.87812 0.0
C588 C 0.73108 0.96271 0.87421 0.0
C589 C 0.7953 0.91668 0.86459 0.0
C590 C 0.72763 0.98113 0.85731 0.0
C591 C 0.75555 0.96508 0.84385 0.0
H592 H 0.74888 0.94989 0.60829 0.0
H593 H 0.8182 0.00697 0.6531 0.0
H594 H 0.85241 0.06618 0.63485 0.0
H595 H 0.88185 0.08356 0.60551 0.0
H596 H 0.82162 0.01766 0.56061 0.0
H597 H 0.76387 0.98133 0.57916 0.0
C598 C 0.76938 0.97687 0.61416 0.0
C599 C 0.78168 0.97388 0.63188 0.0
C600 C 0.79169 0.00864 0.60333 0.0
C601 C 0.80858 0.00863 0.63942 0.0
C602 C 0.82867 0.0421 0.62893 0.0
C603 C 0.85437 0.06336 0.59976 0.0
C604 C 0.85582 0.05299 0.58184 0.0
C605 C 0.82348 0.03997 0.6107 0.0
C606 C 0.82081 0.02611 0.57442 0.0
C607 C 0.78822 0.00482 0.58508 0.0
H608 H 0.61548 0.43825 0.15674 0.0
H609 H 0.70884 0.38906 0.11737 0.0
H610 H 0.66993 0.43409 0.09514 0.0
H611 H 0.59946 0.47361 0.08617 0.0
H612 H 0.50668 0.52365 0.12546 0.0
H613 H 0.55543 0.49261 0.14858 0.0
C614 C 0.62821 0.4387 0.1434 0.0
C615 C 0.66427 0.40981 0.13858 0.0
C616 C 0.60527 0.46416 0.13067 0.0
C617 C 0.68102 0.41098 0.12136 0.0
C618 C 0.65845 0.43631 0.1086 0.0
C619 C 0.59099 0.479 0.09985 0.0
C620 C 0.54971 0.50032 0.10427 0.0
C621 C 0.61905 0.46095 0.11297 0.0
C622 C 0.53857 0.50738 0.12191 0.0
C623 C 0.56621 0.48934 0.13507 0.0
H624 H 0.87478 0.29721 0.33668 0.0
H625 H 0.83809 0.19781 0.3756 0.0
H626 H 0.8788 0.24209 0.39807 0.0
H627 H 0.93744 0.30046 0.40477 0.0
H628 H 0.97357 0.39985 0.36556 0.0
H629 H 0.9194 0.36501 0.34514 0.0
C630 C 0.87435 0.28633 0.35024 0.0
C631 C 0.8541 0.2445 0.35462 0.0
C632 C 0.89821 0.31158 0.36291 0.0
C633 C 0.85342 0.23022 0.3721 0.0
C634 C 0.87709 0.25525 0.38485 0.0
C635 C 0.9325 0.31516 0.39191 0.0
C636 C 0.96025 0.35185 0.3865 0.0
C637 C 0.90159 0.29469 0.38017 0.0
C638 C 0.95294 0.37129 0.36997 0.0
C639 C 0.92218 0.35122 0.35823 0.0
H640 H 0.88618 0.68934 0.55786 0.0
H641 H 0.89964 0.5845 0.59685 0.0
H642 H 0.84372 0.62303 0.6154 0.0
H643 H 0.80543 0.69498 0.62311 0.0
H644 H 0.79861 0.80234 0.58506 0.0
H645 H 0.83664 0.75428 0.56341 0.0
C646 C 0.87603 0.67428 0.57023 0.0
C647 C 0.89792 0.6348 0.57618 0.0
C648 C 0.84524 0.69745 0.58106 0.0
C649 C 0.8837 0.61516 0.59205 0.0
C650 C 0.85195 0.63738 0.60273 0.0
C651 C 0.81054 0.70684 0.60982 0.0
C652 C 0.79914 0.75169 0.60549 0.0
C653 C 0.8345 0.67978 0.59777 0.0
C654 C 0.80674 0.76758 0.58846 0.0
C655 C 0.82892 0.74031 0.57619 0.0
H656 H 0.76355 0.59401 0.83112 0.0
H657 H 0.76193 0.70618 0.86753 0.0
H658 H 0.71579 0.66167 0.88796 0.0
H659 H 0.66483 0.59703 0.89291 0.0
H660 H 0.66216 0.48501 0.85649 0.0
H661 H 0.72149 0.52261 0.8387 0.0
C662 C 0.75438 0.60781 0.84382 0.0
C663 C 0.76585 0.65311 0.84793 0.0
C664 C 0.72638 0.5824 0.85529 0.0
C665 C 0.75336 0.67126 0.86422 0.0
C666 C 0.72675 0.64599 0.87582 0.0
C667 C 0.67804 0.58042 0.88128 0.0
C668 C 0.65886 0.53888 0.87579 0.0
C669 C 0.71128 0.60247 0.87111 0.0
C670 C 0.6765 0.51717 0.86089 0.0
C671 C 0.71013 0.53882 0.85068 0.0
H672 H 0.37768 0.50859 0.88111 0.0
H673 H 0.47367 0.44412 0.84634 0.0
H674 H 0.42756 0.46634 0.82111 0.0
H675 H 0.37577 0.52459 0.80968 0.0
H676 H 0.28278 0.59255 0.84481 0.0
H677 H 0.30992 0.54656 0.86902 0.0
C678 C 0.38718 0.49762 0.86804 0.0
C679 C 0.42941 0.47612 0.8654 0.0
C680 C 0.36131 0.51179 0.85364 0.0
C681 C 0.44138 0.46117 0.84857 0.0
C682 C 0.41526 0.47432 0.83414 0.0
C683 C 0.35998 0.52791 0.82247 0.0
C684 C 0.32935 0.56371 0.82569 0.0
C685 C 0.37739 0.50283 0.83653 0.0
C686 C 0.30765 0.56633 0.84209 0.0
C687 C 0.32358 0.54035 0.85604 0.0
H688 H 0.08929 0.62802 0.6114 0.0
H689 H 0.17722 0.65707 0.56748 0.0
H690 H 0.22682 0.70438 0.58603 0.0
H691 H 0.23697 0.74771 0.61328 0.0
H692 H 0.14309 0.72577 0.65611 0.0
H693 H 0.1043 0.6654 0.63966 0.0
C694 C 0.12027 0.64346 0.60612 0.0
C695 C 0.13005 0.639 0.58824 0.0
C696 C 0.14695 0.67272 0.61662 0.0
C697 C 0.16946 0.65996 0.58131 0.0
C698 C 0.19751 0.68728 0.59186 0.0
C699 C 0.20873 0.72893 0.61915 0.0
C700 C 0.19259 0.7414 0.63578 0.0
C701 C 0.1854 0.69555 0.60933 0.0
C702 C 0.15575 0.71707 0.64321 0.0
C703 C 0.13355 0.68256 0.63382 0.0
H704 H 0.222 0.29922 0.39544 0.0
H705 H 0.15902 0.38575 0.357 0.0
H706 H 0.19599 0.34324 0.33349 0.0
H707 H 0.23438 0.27288 0.32399 0.0
H708 H 0.29917 0.18769 0.3623 0.0
H709 H 0.2737 0.23834 0.38583 0.0
C710 C 0.21754 0.30954 0.38193 0.0
C711 C 0.18729 0.34493 0.3779 0.0
C712 C 0.23859 0.28473 0.3685 0.0
C713 C 0.18213 0.35852 0.36041 0.0
C714 C 0.20287 0.33393 0.34694 0.0
C715 C 0.24391 0.26636 0.33747 0.0
C716 C 0.26805 0.22682 0.34161 0.0
C717 C 0.22933 0.29567 0.35083 0.0
C718 C 0.28057 0.21823 0.35898 0.0
C719 C 0.26582 0.24697 0.37239 0.0
H720 H 0.33483 0.54662 0.10872 0.0
H721 H 0.28847 0.46255 0.06587 0.0
H722 H 0.22765 0.43055 0.08414 0.0
H723 H 0.20548 0.40994 0.11388 0.0
H724 H 0.26206 0.48426 0.15758 0.0
H725 H 0.29896 0.538 0.13763 0.0
C726 C 0.30998 0.5229 0.10322 0.0
C727 C 0.31628 0.50634 0.08614 0.0
C728 C 0.27717 0.50234 0.11418 0.0
C729 C 0.28433 0.47534 0.07908 0.0
C730 C 0.24978 0.45682 0.08957 0.0
C731 C 0.22376 0.43939 0.11902 0.0
C732 C 0.23188 0.44279 0.13709 0.0
C733 C 0.24823 0.46753 0.10745 0.0
C734 C 0.25571 0.48091 0.14366 0.0
C735 C 0.27749 0.51115 0.13223 0.0
loop_
_geom_bond_atom_site_label_1
_geom_bond_atom_site_label_2
_geom_bond_distance
_geom_bond_site_symmetry_2
_ccdc_geom_bond_type
Zn0 O3 2.031 . S
Zn0 O5 2.049 . S
Zn0 O10 2.067 1_455 S
Zn1 O2 1.962 . S
Zn1 O4 1.986 . S
Zn1 O6 1.996 . S
Zn1 O9 1.943 1_455 S
O2 Zn1 1.962 . S
O2 C7 1.254 1_545 S
O3 Zn0 2.031 . S
O3 C7 1.269 . S
O4 Zn1 1.986 . S
O4 C11 1.262 . S
O5 Zn0 2.049 . S
O5 C13 1.260 . S
O6 Zn1 1.996 . S
O6 C13 1.257 1_545 S
C7 O2 1.254 1_565 S
C7 O3 1.269 . S
C8 O9 1.249 1_565 S
C8 O10 1.270 . S
O9 Zn1 1.943 1_655 S
O9 C8 1.249 1_545 S
O10 Zn0 2.067 1_655 S
O10 C8 1.270 . S
C11 O4 1.262 . S
C11 O12 1.232 . S
O12 C11 1.232 . S
C13 O5 1.260 . S
C13 O6 1.257 1_565 S
Zn14 O17 2.031 . S
Zn14 O19 2.049 . S
Zn14 O24 2.067 . S
Zn15 O16 1.962 . S
Zn15 O18 1.986 . S
Zn15 O20 1.996 . S
Zn15 O23 1.943 . S
O16 Zn15 1.962 . S
O16 C21 1.254 . S
O17 Zn14 2.031 . S
O17 C21 1.269 . S
O18 Zn15 1.986 . S
O18 C25 1.262 . S
O19 Zn14 2.049 . S
O19 C27 1.260 . S
O20 Zn15 1.996 . S
O20 C27 1.257 . S
C21 O16 1.254 . S
C21 O17 1.269 . S
C22 O23 1.249 . S
C22 O24 1.270 . S
O23 Zn15 1.943 . S
O23 C22 1.249 . S
O24 Zn14 2.067 . S
O24 C22 1.270 . S
C25 O18 1.262 . S
C25 O26 1.232 . S
O26 C25 1.232 . S
C27 O19 1.260 . S
C27 O20 1.257 . S
Zn28 O31 2.031 . S
Zn28 O33 2.049 . S
Zn28 O38 2.067 . S
Zn29 O30 1.962 . S
Zn29 O32 1.986 . S
Zn29 O34 1.996 . S
Zn29 O37 1.943 . S
O30 Zn29 1.962 . S
O30 C35 1.254 1_565 S
O31 Zn28 2.031 . S
O31 C35 1.269 . S
O32 Zn29 1.986 . S
O32 C39 1.262 . S
O33 Zn28 2.049 . S
O33 C41 1.260 . S
O34 Zn29 1.996 . S
O34 C41 1.257 1_565 S
C35 O30 1.254 1_545 S
C35 O31 1.269 . S
C36 O37 1.249 1_545 S
C36 O38 1.270 . S
O37 Zn29 1.943 . S
O37 C36 1.249 1_565 S
O38 Zn28 2.067 . S
O38 C36 1.270 . S
C39 O32 1.262 . S
C39 O40 1.232 . S
O40 C39 1.232 . S
C41 O33 1.260 . S
C41 O34 1.257 1_545 S
Zn42 O45 2.031 . S
Zn42 O47 2.049 . S
Zn42 O52 2.067 . S
Zn43 O44 1.962 . S
Zn43 O46 1.986 . S
Zn43 O48 1.996 . S
Zn43 O51 1.943 . S
O44 Zn43 1.962 . S
O44 C49 1.254 . S
O45 Zn42 2.031 . S
O45 C49 1.269 . S
O46 Zn43 1.986 . S
O46 C53 1.262 . S
O47 Zn42 2.049 . S
O47 C55 1.260 . S
O48 Zn43 1.996 . S
O48 C55 1.257 . S
C49 O44 1.254 . S
C49 O45 1.269 . S
C50 O51 1.249 . S
C50 O52 1.270 . S
O51 Zn43 1.943 . S
O51 C50 1.249 . S
O52 Zn42 2.067 . S
O52 C50 1.270 . S
C53 O46 1.262 . S
C53 O54 1.232 . S
O54 C53 1.232 . S
C55 O47 1.260 . S
C55 O48 1.257 . S
Zn56 O59 2.031 . S
Zn56 O61 2.049 . S
Zn56 O66 2.067 1_455 S
Zn57 O58 1.962 . S
Zn57 O60 1.986 . S
Zn57 O62 1.996 . S
Zn57 O65 1.943 1_455 S
O58 Zn57 1.962 . S
O58 C63 1.254 1_565 S
O59 Zn56 2.031 . S
O59 C63 1.269 . S
O60 Zn57 1.986 . S
O60 C67 1.262 . S
O61 Zn56 2.049 . S
O61 C69 1.260 . S
O62 Zn57 1.996 . S
O62 C69 1.257 1_565 S
C63 O58 1.254 1_545 S
C63 O59 1.269 . S
C64 O65 1.249 1_545 S
C64 O66 1.270 . S
O65 Zn57 1.943 1_655 S
O65 C64 1.249 1_565 S
O66 Zn56 2.067 1_655 S
O66 C64 1.270 . S
C67 O60 1.262 . S
C67 O68 1.232 . S
O68 C67 1.232 . S
C69 O61 1.260 . S
C69 O62 1.257 1_545 S
Zn70 O73 2.031 . S
Zn70 O75 2.049 . S
Zn70 O80 2.067 . S
Zn71 O72 1.962 . S
Zn71 O74 1.986 . S
Zn71 O76 1.996 . S
Zn71 O79 1.943 . S
O72 Zn71 1.962 . S
O72 C77 1.254 . S
O73 Zn70 2.031 . S
O73 C77 1.269 . S
O74 Zn71 1.986 . S
O74 C81 1.262 . S
O75 Zn70 2.049 . S
O75 C83 1.260 . S
O76 Zn71 1.996 . S
O76 C83 1.257 . S
C77 O72 1.254 . S
C77 O73 1.269 . S
C78 O79 1.249 . S
C78 O80 1.270 . S
O79 Zn71 1.943 . S
O79 C78 1.249 . S
O80 Zn70 2.067 . S
O80 C78 1.270 . S
C81 O74 1.262 . S
C81 O82 1.232 . S
O82 C81 1.232 . S
C83 O75 1.260 . S
C83 O76 1.257 . S
Zn84 O87 2.031 . S
Zn84 O89 2.049 . S
Zn84 O94 2.067 . S
Zn85 O86 1.962 . S
Zn85 O88 1.986 . S
Zn85 O90 1.996 . S
Zn85 O93 1.943 . S
O86 Zn85 1.962 . S
O86 C91 1.254 1_545 S
O87 Zn84 2.031 . S
O87 C91 1.269 . S
O88 Zn85 1.986 . S
O88 C95 1.262 . S
O89 Zn84 2.049 . S
O89 C97 1.260 . S
O90 Zn85 1.996 . S
O90 C97 1.257 1_545 S
C91 O86 1.254 1_565 S
C91 O87 1.269 . S
C92 O93 1.249 1_565 S
C92 O94 1.270 . S
O93 Zn85 1.943 . S
O93 C92 1.249 1_545 S
O94 Zn84 2.067 . S
O94 C92 1.270 . S
C95 O88 1.262 . S
C95 O96 1.232 . S
O96 C95 1.232 . S
C97 O89 1.260 . S
C97 O90 1.257 1_565 S
Zn98 O101 2.031 . S
Zn98 O103 2.049 . S
Zn98 O108 2.067 . S
Zn99 O100 1.962 . S
Zn99 O102 1.986 . S
Zn99 O104 1.996 . S
Zn99 O107 1.943 . S
O100 Zn99 1.962 . S
O100 C105 1.254 . S
O101 Zn98 2.031 . S
O101 C105 1.269 . S
O102 Zn99 1.986 . S
O102 C109 1.262 . S
O103 Zn98 2.049 . S
O103 C111 1.260 . S
O104 Zn99 1.996 . S
O104 C111 1.257 . S
C105 O100 1.254 . S
C105 O101 1.269 . S
C106 O107 1.249 . S
C106 O108 1.270 . S
O107 Zn99 1.943 . S
O107 C106 1.249 . S
O108 Zn98 2.067 . S
O108 C106 1.270 . S
C109 O102 1.262 . S
C109 O110 1.232 . S
O110 C109 1.232 . S
C111 O103 1.260 . S
C111 O104 1.257 . S
Zn112 O115 2.031 . S
Zn112 O117 2.049 . S
Zn112 O122 2.067 . S
Zn113 O114 1.962 . S
Zn113 O116 1.986 . S
Zn113 O118 1.996 . S
Zn113 O121 1.943 . S
O114 Zn113 1.962 . S
O114 C119 1.254 . S
O115 Zn112 2.031 . S
O115 C119 1.269 . S
O116 Zn113 1.986 . S
O116 C123 1.262 . S
O117 Zn112 2.049 . S
O117 C125 1.260 . S
O118 Zn113 1.996 . S
O118 C125 1.257 . S
C119 O114 1.254 . S
C119 O115 1.269 . S
C120 O121 1.249 . S
C120 O122 1.270 . S
O121 Zn113 1.943 . S
O121 C120 1.249 . S
O122 Zn112 2.067 . S
O122 C120 1.270 . S
C123 O116 1.262 . S
C123 O124 1.232 . S
O124 C123 1.232 . S
C125 O117 1.260 . S
C125 O118 1.257 . S
Zn126 O129 2.031 . S
Zn126 O131 2.049 . S
Zn126 O136 2.067 . S
Zn127 O128 1.962 . S
Zn127 O130 1.986 . S
Zn127 O132 1.996 . S
Zn127 O135 1.943 . S
O128 Zn127 1.962 . S
O128 C133 1.254 . S
O129 Zn126 2.031 . S
O129 C133 1.269 . S
O130 Zn127 1.986 . S
O130 C137 1.262 . S
O131 Zn126 2.049 . S
O131 C139 1.260 . S
O132 Zn127 1.996 . S
O132 C139 1.257 . S
C133 O128 1.254 . S
C133 O129 1.269 . S
C134 O135 1.249 . S
C134 O136 1.270 . S
O135 Zn127 1.943 . S
O135 C134 1.249 . S
O136 Zn126 2.067 . S
O136 C134 1.270 . S
C137 O130 1.262 . S
C137 O138 1.232 . S
O138 C137 1.232 . S
C139 O131 1.260 . S
C139 O132 1.257 . S
Zn140 O143 2.031 . S
Zn140 O145 2.049 . S
Zn140 O150 2.067 . S
Zn141 O142 1.962 . S
Zn141 O144 1.986 . S
Zn141 O146 1.996 . S
Zn141 O149 1.943 . S
O142 Zn141 1.962 . S
O142 C147 1.254 . S
O143 Zn140 2.031 . S
O143 C147 1.269 . S
O144 Zn141 1.986 . S
O144 C151 1.262 . S
O145 Zn140 2.049 . S
O145 C153 1.260 . S
O146 Zn141 1.996 . S
O146 C153 1.257 . S
C147 O142 1.254 . S
C147 O143 1.269 . S
C148 O149 1.249 . S
C148 O150 1.270 . S
O149 Zn141 1.943 . S
O149 C148 1.249 . S
O150 Zn140 2.067 . S
O150 C148 1.270 . S
C151 O144 1.262 . S
C151 O152 1.232 . S
O152 C151 1.232 . S
C153 O145 1.260 . S
C153 O146 1.257 . S
Zn154 O157 2.031 . S
Zn154 O159 2.049 . S
Zn154 O164 2.067 . S
Zn155 O156 1.962 . S
Zn155 O158 1.986 . S
Zn155 O160 1.996 . S
Zn155 O163 1.943 . S
O156 Zn155 1.962 . S
O156 C161 1.254 . S
O157 Zn154 2.031 . S
O157 C161 1.269 . S
O158 Zn155 1.986 . S
O158 C165 1.262 . S
O159 Zn154 2.049 . S
O159 C167 1.260 . S
O160 Zn155 1.996 . S
O160 C167 1.257 . S
C161 O156 1.254 . S
C161 O157 1.269 . S
C162 O163 1.249 . S
C162 O164 1.270 . S
O163 Zn155 1.943 . S
O163 C162 1.249 . S
O164 Zn154 2.067 . S
O164 C162 1.270 . S
C165 O158 1.262 . S
C165 O166 1.232 . S
O166 C165 1.232 . S
C167 O159 1.260 . S
C167 O160 1.257 . S
Zn168 O171 2.031 . S
Zn168 O173 2.049 . S
Zn168 O178 2.067 . S
Zn169 O170 1.962 . S
Zn169 O172 1.986 . S
Zn169 O174 1.996 . S
Zn169 O177 1.943 . S
O170 Zn169 1.962 . S
O170 C175 1.254 . S
O171 Zn168 2.031 . S
O171 C175 1.269 . S
O172 Zn169 1.986 . S
O172 C179 1.262 . S
O173 Zn168 2.049 . S
O173 C181 1.260 . S
O174 Zn169 1.996 . S
O174 C181 1.257 . S
C175 O170 1.254 . S
C175 O171 1.269 . S
C176 O177 1.249 . S
C176 O178 1.270 . S
O177 Zn169 1.943 . S
O177 C176 1.249 . S
O178 Zn168 2.067 . S
O178 C176 1.270 . S
C179 O172 1.262 . S
C179 O180 1.232 . S
O180 C179 1.232 . S
C181 O173 1.260 . S
C181 O174 1.257 . S
Zn182 O185 2.031 . S
Zn182 O187 2.049 . S
Zn182 O192 2.067 . S
Zn183 O184 1.962 1_455 S
Zn183 O186 1.986 . S
Zn183 O188 1.996 . S
Zn183 O191 1.943 . S
O184 Zn183 1.962 1_655 S
O184 C189 1.254 . S
O185 Zn182 2.031 . S
O185 C189 1.269 1_455 S
O186 Zn183 1.986 . S
O186 C193 1.262 . S
O187 Zn182 2.049 . S
O187 C195 1.260 . S
O188 Zn183 1.996 . S
O188 C195 1.257 . S
C189 O184 1.254 . S
C189 O185 1.269 1_655 S
C190 O191 1.249 . S
C190 O192 1.270 . S
O191 Zn183 1.943 . S
O191 C190 1.249 . S
O192 Zn182 2.067 . S
O192 C190 1.270 . S
C193 O186 1.262 . S
C193 O194 1.232 . S
O194 C193 1.232 . S
C195 O187 1.260 . S
C195 O188 1.257 . S
Zn196 O199 2.031 . S
Zn196 O201 2.049 . S
Zn196 O206 2.067 . S
Zn197 O198 1.962 . S
Zn197 O200 1.986 . S
Zn197 O202 1.996 . S
Zn197 O205 1.943 . S
O198 Zn197 1.962 . S
O198 C203 1.254 . S
O199 Zn196 2.031 . S
O199 C203 1.269 . S
O200 Zn197 1.986 . S
O200 C207 1.262 . S
O201 Zn196 2.049 . S
O201 C209 1.260 . S
O202 Zn197 1.996 . S
O202 C209 1.257 . S
C203 O198 1.254 . S
C203 O199 1.269 . S
C204 O205 1.249 . S
C204 O206 1.270 . S
O205 Zn197 1.943 . S
O205 C204 1.249 . S
O206 Zn196 2.067 . S
O206 C204 1.270 . S
C207 O200 1.262 . S
C207 O208 1.232 . S
O208 C207 1.232 . S
C209 O201 1.260 . S
C209 O202 1.257 . S
Zn210 O213 2.031 . S
Zn210 O215 2.049 . S
Zn210 O220 2.067 . S
Zn211 O212 1.962 1_455 S
Zn211 O214 1.986 . S
Zn211 O216 1.996 . S
Zn211 O219 1.943 . S
O212 Zn211 1.962 1_655 S
O212 C217 1.254 . S
O213 Zn210 2.031 . S
O213 C217 1.269 1_455 S
O214 Zn211 1.986 . S
O214 C221 1.262 . S
O215 Zn210 2.049 . S
O215 C223 1.260 . S
O216 Zn211 1.996 . S
O216 C223 1.257 . S
C217 O212 1.254 . S
C217 O213 1.269 1_655 S
C218 O219 1.249 . S
C218 O220 1.270 . S
O219 Zn211 1.943 . S
O219 C218 1.249 . S
O220 Zn210 2.067 . S
O220 C218 1.270 . S
C221 O214 1.262 . S
C221 O222 1.232 . S
O222 C221 1.232 . S
C223 O215 1.260 . S
C223 O216 1.257 . S
H224 C230 0.930 . S
H225 C233 0.930 . S
H226 C234 0.930 . S
H227 C235 0.930 . S
H228 C238 0.930 . S
H229 C239 0.930 . S
C230 H224 0.930 . S
C230 C231 1.355 1_655 S
C230 C232 1.415 1_655 S
C231 C230 1.355 1_455 S
C231 C233 1.419 . S
C232 C230 1.415 1_455 S
C232 C237 1.425 . S
C232 C239 1.409 1_455 S
C233 H225 0.930 . S
C233 C231 1.419 . S
C233 C234 1.362 . S
C234 H226 0.930 . S
C234 C233 1.362 . S
C234 C237 1.409 . S
C235 H227 0.930 . S
C235 C236 1.355 . S
C235 C237 1.415 . S
C236 C235 1.355 . S
C236 C238 1.419 1_455 S
C237 C232 1.425 . S
C237 C234 1.409 . S
C237 C235 1.415 . S
C238 H228 0.930 . S
C238 C236 1.419 1_655 S
C238 C239 1.362 . S
C239 H229 0.930 . S
C239 C232 1.409 1_655 S
C239 C238 1.362 . S
H240 C246 0.930 . S
H241 C249 0.930 . S
H242 C250 0.930 1_455 S
H243 C251 0.930 . S
H244 C254 0.930 . S
H245 C255 0.930 . S
C246 H240 0.930 . S
C246 C247 1.355 . S
C246 C248 1.415 1_655 S
C247 C246 1.355 . S
C247 C249 1.419 . S
C248 C246 1.415 1_455 S
C248 C253 1.425 . S
C248 C255 1.409 . S
C249 H241 0.930 . S
C249 C247 1.419 . S
C249 C250 1.362 . S
C250 H242 0.930 1_655 S
C250 C249 1.362 . S
C250 C253 1.409 1_655 S
C251 H243 0.930 . S
C251 C252 1.355 . S
C251 C253 1.415 . S
C252 C251 1.355 . S
C252 C254 1.419 . S
C253 C248 1.425 . S
C253 C250 1.409 1_455 S
C253 C251 1.415 . S
C254 H244 0.930 . S
C254 C252 1.419 . S
C254 C255 1.362 . S
C255 H245 0.930 . S
C255 C248 1.409 . S
C255 C254 1.362 . S
H256 C262 0.930 . S
H257 C265 0.930 . S
H258 C266 0.930 . S
H259 C267 0.930 . S
H260 C270 0.930 . S
H261 C271 0.930 . S
C262 H256 0.930 . S
C262 C263 1.355 . S
C262 C264 1.415 . S
C263 C262 1.355 . S
C263 C265 1.419 . S
C264 C262 1.415 . S
C264 C269 1.425 . S
C264 C271 1.409 . S
C265 H257 0.930 . S
C265 C263 1.419 . S
C265 C266 1.362 . S
C266 H258 0.930 . S
C266 C265 1.362 . S
C266 C269 1.409 . S
C267 H259 0.930 . S
C267 C268 1.355 . S
C267 C269 1.415 . S
C268 C267 1.355 . S
C268 C270 1.419 . S
C269 C264 1.425 . S
C269 C266 1.409 . S
C269 C267 1.415 . S
C270 H260 0.930 . S
C270 C268 1.419 . S
C270 C271 1.362 . S
C271 H261 0.930 . S
C271 C264 1.409 . S
C271 C270 1.362 . S
H272 C278 0.930 . S
H273 C281 0.930 . S
H274 C282 0.930 . S
H275 C283 0.930 . S
H276 C286 0.930 . S
H277 C287 0.930 . S
C278 H272 0.930 . S
C278 C279 1.355 . S
C278 C280 1.415 . S
C279 C278 1.355 . S
C279 C281 1.419 . S
C280 C278 1.415 . S
C280 C285 1.425 . S
C280 C287 1.409 . S
C281 H273 0.930 . S
C281 C279 1.419 . S
C281 C282 1.362 . S
C282 H274 0.930 . S
C282 C281 1.362 . S
C282 C285 1.409 . S
C283 H275 0.930 . S
C283 C284 1.355 . S
C283 C285 1.415 . S
C284 C283 1.355 . S
C284 C286 1.419 . S
C285 C280 1.425 . S
C285 C282 1.409 . S
C285 C283 1.415 . S
C286 H276 0.930 . S
C286 C284 1.419 . S
C286 C287 1.362 . S
C287 H277 0.930 . S
C287 C280 1.409 . S
C287 C286 1.362 . S
H288 C294 0.930 . S
H289 C297 0.930 . S
H290 C298 0.930 . S
H291 C299 0.930 . S
H292 C302 0.930 . S
H293 C303 0.930 . S
C294 H288 0.930 . S
C294 C295 1.355 . S
C294 C296 1.415 . S
C295 C294 1.355 . S
C295 C297 1.419 . S
C296 C294 1.415 . S
C296 C301 1.425 . S
C296 C303 1.409 . S
C297 H289 0.930 . S
C297 C295 1.419 . S
C297 C298 1.362 . S
C298 H290 0.930 . S
C298 C297 1.362 . S
C298 C301 1.409 . S
C299 H291 0.930 . S
C299 C300 1.355 . S
C299 C301 1.415 . S
C300 C299 1.355 . S
C300 C302 1.419 . S
C301 C296 1.425 . S
C301 C298 1.409 . S
C301 C299 1.415 . S
C302 H292 0.930 . S
C302 C300 1.419 . S
C302 C303 1.362 . S
C303 H293 0.930 . S
C303 C296 1.409 . S
C303 C302 1.362 . S
H304 C310 0.930 . S
H305 C313 0.930 . S
H306 C314 0.930 . S
H307 C315 0.930 . S
H308 C318 0.930 . S
H309 C319 0.930 . S
C310 H304 0.930 . S
C310 C311 1.355 . S
C310 C312 1.415 . S
C311 C310 1.355 . S
C311 C313 1.419 . S
C312 C310 1.415 . S
C312 C317 1.425 . S
C312 C319 1.409 . S
C313 H305 0.930 . S
C313 C311 1.419 . S
C313 C314 1.362 . S
C314 H306 0.930 . S
C314 C313 1.362 . S
C314 C317 1.409 . S
C315 H307 0.930 . S
C315 C316 1.355 . S
C315 C317 1.415 . S
C316 C315 1.355 . S
C316 C318 1.419 . S
C317 C312 1.425 . S
C317 C314 1.409 . S
C317 C315 1.415 . S
C318 H308 0.930 . S
C318 C316 1.419 . S
C318 C319 1.362 . S
C319 H309 0.930 . S
C319 C312 1.409 . S
C319 C318 1.362 . S
H320 C326 0.930 . S
H321 C329 0.930 . S
H322 C330 0.930 . S
H323 C331 0.930 . S
H324 C334 0.930 . S
H325 C335 0.930 . S
C326 H320 0.930 . S
C326 C327 1.355 . S
C326 C328 1.415 . S
C327 C326 1.355 . S
C327 C329 1.419 . S
C328 C326 1.415 . S
C328 C333 1.425 . S
C328 C335 1.409 . S
C329 H321 0.930 . S
C329 C327 1.419 . S
C329 C330 1.362 . S
C330 H322 0.930 . S
C330 C329 1.362 . S
C330 C333 1.409 . S
C331 H323 0.930 . S
C331 C332 1.355 . S
C331 C333 1.415 . S
C332 C331 1.355 . S
C332 C334 1.419 . S
C333 C328 1.425 . S
C333 C330 1.409 . S
C333 C331 1.415 . S
C334 H324 0.930 . S
C334 C332 1.419 . S
C334 C335 1.362 . S
C335 H325 0.930 . S
C335 C328 1.409 . S
C335 C334 1.362 . S
H336 C342 0.930 . S
H337 C345 0.930 . S
H338 C346 0.930 . S
H339 C347 0.930 . S
H340 C350 0.930 . S
H341 C351 0.930 . S
C342 H336 0.930 . S
C342 C343 1.355 . S
C342 C344 1.415 . S
C343 C342 1.355 . S
C343 C345 1.419 . S
C344 C342 1.415 . S
C344 C349 1.425 . S
C344 C351 1.409 . S
C345 H337 0.930 . S
C345 C343 1.419 . S
C345 C346 1.362 . S
C346 H338 0.930 . S
C346 C345 1.362 . S
C346 C349 1.409 . S
C347 H339 0.930 . S
C347 C348 1.355 . S
C347 C349 1.415 1_655 S
C348 C347 1.355 . S
C348 C350 1.419 . S
C349 C344 1.425 . S
C349 C346 1.409 . S
C349 C347 1.415 1_455 S
C350 H340 0.930 . S
C350 C348 1.419 . S
C350 C351 1.362 1_655 S
C351 H341 0.930 . S
C351 C344 1.409 . S
C351 C350 1.362 1_455 S
H352 C358 0.930 . S
H353 C361 0.930 . S
H354 C362 0.930 . S
H355 C363 0.930 . S
H356 C366 0.930 1_655 S
H357 C367 0.932 . S
C358 H352 0.930 . S
C358 C359 1.355 1_545 S
C358 C360 1.415 . S
C359 C358 1.355 1_565 S
C359 C361 1.419 . S
C360 C358 1.415 . S
C360 C365 1.425 1_545 S
C360 C367 1.408 1_455 S
C361 H353 0.930 . S
C361 C359 1.419 . S
C361 C362 1.362 . S
C362 H354 0.930 . S
C362 C361 1.362 . S
C362 C365 1.409 . S
C363 H355 0.930 . S
C363 C364 1.355 1_565 S
C363 C365 1.415 . S
C364 C363 1.355 1_545 S
C364 C366 1.419 . S
C365 C360 1.425 1_565 S
C365 C362 1.409 . S
C365 C363 1.415 . S
C366 H356 0.930 1_455 S
C366 C364 1.419 . S
C366 C367 1.362 1_455 S
C367 H357 0.932 . S
C367 C360 1.408 1_655 S
C367 C366 1.362 1_655 S
H368 C374 0.930 . S
H369 C377 0.930 . S
H370 C378 0.930 . S
H371 C379 0.930 . S
H372 C382 0.930 . S
H373 C383 0.930 . S
C374 H368 0.930 . S
C374 C375 1.355 . S
C374 C376 1.415 . S
C375 C374 1.355 . S
C375 C377 1.419 . S
C376 C374 1.415 . S
C376 C381 1.425 . S
C376 C383 1.409 . S
C377 H369 0.930 . S
C377 C375 1.419 . S
C377 C378 1.362 . S
C378 H370 0.930 . S
C378 C377 1.362 . S
C378 C381 1.409 . S
C379 H371 0.930 . S
C379 C380 1.355 . S
C379 C381 1.415 . S
C380 C379 1.355 . S
C380 C382 1.419 . S
C381 C376 1.425 . S
C381 C378 1.409 . S
C381 C379 1.415 . S
C382 H372 0.930 . S
C382 C380 1.419 . S
C382 C383 1.362 . S
C383 H373 0.930 . S
C383 C376 1.409 . S
C383 C382 1.362 . S
H384 C390 0.930 . S
H385 C393 0.930 . S
H386 C394 0.930 . S
H387 C395 0.930 . S
H388 C398 0.930 . S
H389 C399 0.930 . S
C390 H384 0.930 . S
C390 C391 1.355 1_545 S
C390 C392 1.415 . S
C391 C390 1.355 1_565 S
C391 C393 1.419 . S
C392 C390 1.415 . S
C392 C397 1.425 1_544 S
C392 C399 1.409 1_554 S
C393 H385 0.930 . S
C393 C391 1.419 . S
C393 C394 1.362 . S
C394 H386 0.930 . S
C394 C393 1.362 . S
C394 C397 1.409 1_554 S
C395 H387 0.930 . S
C395 C396 1.355 1_565 S
C395 C397 1.415 . S
C396 C395 1.355 1_545 S
C396 C398 1.419 . S
C397 C392 1.425 1_566 S
C397 C394 1.409 1_556 S
C397 C395 1.415 . S
C398 H388 0.930 . S
C398 C396 1.419 . S
C398 C399 1.362 . S
C399 H389 0.930 . S
C399 C392 1.409 1_556 S
C399 C398 1.362 . S
H400 C406 0.930 . S
H401 C409 0.930 . S
H402 C410 0.930 . S
H403 C411 0.930 . S
H404 C414 0.930 . S
H405 C415 0.930 . S
C406 H400 0.930 . S
C406 C407 1.355 . S
C406 C408 1.415 . S
C407 C406 1.355 . S
C407 C409 1.419 . S
C408 C406 1.415 . S
C408 C413 1.425 . S
C408 C415 1.409 . S
C409 H401 0.930 . S
C409 C407 1.419 . S
C409 C410 1.362 . S
C410 H402 0.930 . S
C410 C409 1.362 . S
C410 C413 1.409 . S
C411 H403 0.930 . S
C411 C412 1.355 . S
C411 C413 1.415 . S
C412 C411 1.355 . S
C412 C414 1.419 . S
C413 C408 1.425 . S
C413 C410 1.409 . S
C413 C411 1.415 . S
C414 H404 0.930 . S
C414 C412 1.419 . S
C414 C415 1.362 . S
C415 H405 0.930 . S
C415 C408 1.409 . S
C415 C414 1.362 . S
H416 C422 0.930 . S
H417 C425 0.930 . S
H418 C426 0.930 . S
H419 C427 0.930 . S
H420 C430 0.930 . S
H421 C431 0.930 . S
C422 H416 0.930 . S
C422 C423 1.355 . S
C422 C424 1.415 . S
C423 C422 1.355 . S
C423 C425 1.419 . S
C424 C422 1.415 . S
C424 C429 1.425 . S
C424 C431 1.409 . S
C425 H417 0.930 . S
C425 C423 1.419 . S
C425 C426 1.362 . S
C426 H418 0.930 . S
C426 C425 1.362 . S
C426 C429 1.409 . S
C427 H419 0.930 . S
C427 C428 1.355 . S
C427 C429 1.415 . S
C428 C427 1.355 . S
C428 C430 1.419 . S
C429 C424 1.425 . S
C429 C426 1.409 . S
C429 C427 1.415 . S
C430 H420 0.930 . S
C430 C428 1.419 . S
C430 C431 1.362 . S
C431 H421 0.930 . S
C431 C424 1.409 . S
C431 C430 1.362 . S
H432 C438 0.930 . S
H433 C441 0.930 . S
H434 C442 0.930 . S
H435 C443 0.930 . S
H436 C446 0.930 . S
H437 C447 0.930 . S
C438 H432 0.930 . S
C438 C439 1.355 . S
C438 C440 1.415 . S
C439 C438 1.355 . S
C439 C441 1.419 . S
C440 C438 1.415 . S
C440 C445 1.425 . S
C440 C447 1.409 . S
C441 H433 0.930 . S
C441 C439 1.419 . S
C441 C442 1.362 . S
C442 H434 0.930 . S
C442 C441 1.362 . S
C442 C445 1.409 . S
C443 H435 0.930 . S
C443 C444 1.355 . S
C443 C445 1.415 . S
C444 C443 1.355 . S
C444 C446 1.419 . S
C445 C440 1.425 . S
C445 C442 1.409 . S
C445 C443 1.415 . S
C446 H436 0.930 . S
C446 C444 1.419 . S
C446 C447 1.362 . S
C447 H437 0.930 . S
C447 C440 1.409 . S
C447 C446 1.362 . S
H448 C454 0.930 . S
H449 C457 0.930 . S
H450 C458 0.930 . S
H451 C459 0.930 . S
H452 C462 0.930 . S
H453 C463 0.930 . S
C454 H448 0.930 . S
C454 C455 1.355 . S
C454 C456 1.415 . S
C455 C454 1.355 . S
C455 C457 1.419 . S
C456 C454 1.415 . S
C456 C461 1.425 1_556 S
C456 C463 1.409 1_556 S
C457 H449 0.930 . S
C457 C455 1.419 . S
C457 C458 1.362 . S
C458 H450 0.930 . S
C458 C457 1.362 . S
C458 C461 1.409 1_556 S
C459 H451 0.930 . S
C459 C460 1.355 . S
C459 C461 1.415 . S
C460 C459 1.355 . S
C460 C462 1.419 . S
C461 C456 1.425 1_554 S
C461 C458 1.409 1_554 S
C461 C459 1.415 . S
C462 H452 0.930 . S
C462 C460 1.419 . S
C462 C463 1.362 . S
C463 H453 0.930 . S
C463 C456 1.409 1_554 S
C463 C462 1.362 . S
H464 C470 0.930 . S
H465 C473 0.930 . S
H466 C474 0.930 . S
H467 C475 0.930 . S
H468 C478 0.930 . S
H469 C479 0.930 . S
C470 H464 0.930 . S
C470 C471 1.355 . S
C470 C472 1.415 . S
C471 C470 1.355 . S
C471 C473 1.419 . S
C472 C470 1.415 . S
C472 C477 1.425 . S
C472 C479 1.409 . S
C473 H465 0.930 . S
C473 C471 1.419 . S
C473 C474 1.362 . S
C474 H466 0.930 . S
C474 C473 1.362 . S
C474 C477 1.409 . S
C475 H467 0.930 . S
C475 C476 1.355 . S
C475 C477 1.415 . S
C476 C475 1.355 . S
C476 C478 1.419 . S
C477 C472 1.425 . S
C477 C474 1.409 . S
C477 C475 1.415 . S
C478 H468 0.930 . S
C478 C476 1.419 . S
C478 C479 1.362 . S
C479 H469 0.930 . S
C479 C472 1.409 . S
C479 C478 1.362 . S
H480 C486 0.930 . S
H481 C489 0.930 . S
H482 C490 0.930 . S
H483 C491 0.930 . S
H484 C494 0.930 1_545 S
H485 C495 0.930 . S
C486 H480 0.930 . S
C486 C487 1.355 . S
C486 C488 1.415 . S
C487 C486 1.355 . S
C487 C489 1.419 . S
C488 C486 1.415 . S
C488 C493 1.425 . S
C488 C495 1.409 . S
C489 H481 0.930 . S
C489 C487 1.419 . S
C489 C490 1.362 . S
C490 H482 0.930 . S
C490 C489 1.362 . S
C490 C493 1.409 . S
C491 H483 0.930 . S
C491 C492 1.355 . S
C491 C493 1.415 . S
C492 C491 1.355 . S
C492 C494 1.419 . S
C493 C488 1.425 . S
C493 C490 1.409 . S
C493 C491 1.415 . S
C494 H484 0.930 1_565 S
C494 C492 1.419 . S
C494 C495 1.362 . S
C495 H485 0.930 . S
C495 C488 1.409 . S
C495 C494 1.362 . S
H496 C502 0.930 . S
H497 C505 0.930 . S
H498 C506 0.930 . S
H499 C507 0.930 . S
H500 C510 0.930 . S
H501 C511 0.930 . S
C502 H496 0.930 . S
C502 C503 1.355 . S
C502 C504 1.415 . S
C503 C502 1.355 . S
C503 C505 1.419 . S
C504 C502 1.415 . S
C504 C509 1.425 . S
C504 C511 1.409 . S
C505 H497 0.930 . S
C505 C503 1.419 . S
C505 C506 1.362 . S
C506 H498 0.930 . S
C506 C505 1.362 . S
C506 C509 1.409 . S
C507 H499 0.930 . S
C507 C508 1.355 . S
C507 C509 1.415 . S
C508 C507 1.355 . S
C508 C510 1.419 . S
C509 C504 1.425 . S
C509 C506 1.409 . S
C509 C507 1.415 . S
C510 H500 0.930 . S
C510 C508 1.419 . S
C510 C511 1.362 . S
C511 H501 0.930 . S
C511 C504 1.409 . S
C511 C510 1.362 . S
H512 C518 0.930 . S
H513 C521 0.930 . S
H514 C522 0.930 . S
H515 C523 0.930 . S
H516 C526 0.930 . S
H517 C527 0.930 . S
C518 H512 0.930 . S
C518 C519 1.355 . S
C518 C520 1.415 . S
C519 C518 1.355 . S
C519 C521 1.419 . S
C520 C518 1.415 . S
C520 C525 1.425 . S
C520 C527 1.409 . S
C521 H513 0.930 . S
C521 C519 1.419 . S
C521 C522 1.362 . S
C522 H514 0.930 . S
C522 C521 1.362 . S
C522 C525 1.409 . S
C523 H515 0.930 . S
C523 C524 1.355 . S
C523 C525 1.415 . S
C524 C523 1.355 . S
C524 C526 1.419 . S
C525 C520 1.425 . S
C525 C522 1.409 . S
C525 C523 1.415 . S
C526 H516 0.930 . S
C526 C524 1.419 . S
C526 C527 1.362 . S
C527 H517 0.930 . S
C527 C520 1.409 . S
C527 C526 1.362 . S
H528 C534 0.930 . S
H529 C537 0.930 . S
H530 C538 0.930 . S
H531 C539 0.930 . S
H532 C542 0.930 . S
H533 C543 0.930 . S
C534 H528 0.930 . S
C534 C535 1.355 . S
C534 C536 1.415 . S
C535 C534 1.355 . S
C535 C537 1.419 . S
C536 C534 1.415 . S
C536 C541 1.425 . S
C536 C543 1.409 . S
C537 H529 0.930 . S
C537 C535 1.419 . S
C537 C538 1.362 . S
C538 H530 0.930 . S
C538 C537 1.362 . S
C538 C541 1.409 . S
C539 H531 0.930 . S
C539 C540 1.355 . S
C539 C541 1.415 . S
C540 C539 1.355 . S
C540 C542 1.419 . S
C541 C536 1.425 . S
C541 C538 1.409 . S
C541 C539 1.415 . S
C542 H532 0.930 . S
C542 C540 1.419 . S
C542 C543 1.362 . S
C543 H533 0.930 . S
C543 C536 1.409 . S
C543 C542 1.362 . S
H544 C550 0.930 . S
H545 C553 0.930 . S
H546 C554 0.930 . S
H547 C555 0.930 . S
H548 C558 0.930 . S
H549 C559 0.930 . S
C550 H544 0.930 . S
C550 C551 1.355 . S
C550 C552 1.415 . S
C551 C550 1.355 . S
C551 C553 1.419 . S
C552 C550 1.415 . S
C552 C557 1.425 . S
C552 C559 1.409 . S
C553 H545 0.930 . S
C553 C551 1.419 . S
C553 C554 1.362 . S
C554 H546 0.930 . S
C554 C553 1.362 . S
C554 C557 1.409 . S
C555 H547 0.930 . S
C555 C556 1.355 . S
C555 C557 1.415 . S
C556 C555 1.355 . S
C556 C558 1.419 . S
C557 C552 1.425 . S
C557 C554 1.409 . S
C557 C555 1.415 . S
C558 H548 0.930 . S
C558 C556 1.419 . S
C558 C559 1.362 . S
C559 H549 0.930 . S
C559 C552 1.409 . S
C559 C558 1.362 . S
H560 C566 0.930 . S
H561 C569 0.930 . S
H562 C570 0.930 . S
H563 C571 0.930 . S
H564 C574 0.930 . S
H565 C575 0.930 . S
C566 H560 0.930 . S
C566 C567 1.355 . S
C566 C568 1.415 . S
C567 C566 1.355 . S
C567 C569 1.419 . S
C568 C566 1.415 . S
C568 C573 1.425 . S
C568 C575 1.409 . S
C569 H561 0.930 . S
C569 C567 1.419 . S
C569 C570 1.362 . S
C570 H562 0.930 . S
C570 C569 1.362 . S
C570 C573 1.409 . S
C571 H563 0.930 . S
C571 C572 1.355 . S
C571 C573 1.415 . S
C572 C571 1.355 . S
C572 C574 1.419 . S
C573 C568 1.425 . S
C573 C570 1.409 . S
C573 C571 1.415 . S
C574 H564 0.930 . S
C574 C572 1.419 . S
C574 C575 1.362 . S
C575 H565 0.930 . S
C575 C568 1.409 . S
C575 C574 1.362 . S
H576 C582 0.930 . S
H577 C585 0.930 . S
H578 C586 0.930 . S
H579 C587 0.930 . S
H580 C590 0.930 . S
H581 C591 0.930 . S
C582 H576 0.930 . S
C582 C583 1.355 . S
C582 C584 1.415 . S
C583 C582 1.355 . S
C583 C585 1.419 . S
C584 C582 1.415 . S
C584 C589 1.425 . S
C584 C591 1.409 . S
C585 H577 0.930 . S
C585 C583 1.419 . S
C585 C586 1.362 . S
C586 H578 0.930 . S
C586 C585 1.362 . S
C586 C589 1.409 . S
C587 H579 0.930 . S
C587 C588 1.355 . S
C587 C589 1.415 . S
C588 C587 1.355 . S
C588 C590 1.419 . S
C589 C584 1.425 . S
C589 C586 1.409 . S
C589 C587 1.415 . S
C590 H580 0.930 . S
C590 C588 1.419 . S
C590 C591 1.362 . S
C591 H581 0.930 . S
C591 C584 1.409 . S
C591 C590 1.362 . S
H592 C598 0.930 . S
H593 C601 0.930 . S
H594 C602 0.930 . S
H595 C603 0.930 . S
H596 C606 0.930 . S
H597 C607 0.930 . S
C598 H592 0.930 . S
C598 C599 1.355 . S
C598 C600 1.415 . S
C599 C598 1.355 . S
C599 C601 1.419 . S
C600 C598 1.415 . S
C600 C605 1.425 . S
C600 C607 1.409 . S
C601 H593 0.930 . S
C601 C599 1.419 . S
C601 C602 1.362 . S
C602 H594 0.930 . S
C602 C601 1.362 . S
C602 C605 1.409 . S
C603 H595 0.930 . S
C603 C604 1.355 . S
C603 C605 1.415 . S
C604 C603 1.355 . S
C604 C606 1.419 . S
C605 C600 1.425 . S
C605 C602 1.409 . S
C605 C603 1.415 . S
C606 H596 0.930 . S
C606 C604 1.419 . S
C606 C607 1.362 . S
C607 H597 0.930 . S
C607 C600 1.409 . S
C607 C606 1.362 . S
H608 C614 0.930 . S
H609 C617 0.930 . S
H610 C618 0.930 . S
H611 C619 0.930 . S
H612 C622 0.930 . S
H613 C623 0.930 . S
C614 H608 0.930 . S
C614 C615 1.355 . S
C614 C616 1.415 . S
C615 C614 1.355 . S
C615 C617 1.419 . S
C616 C614 1.415 . S
C616 C621 1.425 . S
C616 C623 1.409 . S
C617 H609 0.930 . S
C617 C615 1.419 . S
C617 C618 1.362 . S
C618 H610 0.930 . S
C618 C617 1.362 . S
C618 C621 1.409 . S
C619 H611 0.930 . S
C619 C620 1.355 . S
C619 C621 1.415 . S
C620 C619 1.355 . S
C620 C622 1.419 . S
C621 C616 1.425 . S
C621 C618 1.409 . S
C621 C619 1.415 . S
C622 H612 0.930 . S
C622 C620 1.419 . S
C622 C623 1.362 . S
C623 H613 0.930 . S
C623 C616 1.409 . S
C623 C622 1.362 . S
H624 C630 0.930 . S
H625 C633 0.930 . S
H626 C634 0.930 . S
H627 C635 0.930 . S
H628 C638 0.930 . S
H629 C639 0.930 . S
C630 H624 0.930 . S
C630 C631 1.355 . S
C630 C632 1.415 . S
C631 C630 1.355 . S
C631 C633 1.419 . S
C632 C630 1.415 . S
C632 C637 1.425 . S
C632 C639 1.409 . S
C633 H625 0.930 . S
C633 C631 1.419 . S
C633 C634 1.362 . S
C634 H626 0.930 . S
C634 C633 1.362 . S
C634 C637 1.409 . S
C635 H627 0.930 . S
C635 C636 1.355 . S
C635 C637 1.415 . S
C636 C635 1.355 . S
C636 C638 1.419 . S
C637 C632 1.425 . S
C637 C634 1.409 . S
C637 C635 1.415 . S
C638 H628 0.930 . S
C638 C636 1.419 . S
C638 C639 1.362 . S
C639 H629 0.930 . S
C639 C632 1.409 . S
C639 C638 1.362 . S
H640 C646 0.930 . S
H641 C649 0.930 . S
H642 C650 0.930 . S
H643 C651 0.930 . S
H644 C654 0.930 . S
H645 C655 0.930 . S
C646 H640 0.930 . S
C646 C647 1.355 . S
C646 C648 1.415 . S
C647 C646 1.355 . S
C647 C649 1.419 . S
C648 C646 1.415 . S
C648 C653 1.425 . S
C648 C655 1.409 . S
C649 H641 0.930 . S
C649 C647 1.419 . S
C649 C650 1.362 . S
C650 H642 0.930 . S
C650 C649 1.362 . S
C650 C653 1.409 . S
C651 H643 0.930 . S
C651 C652 1.355 . S
C651 C653 1.415 . S
C652 C651 1.355 . S
C652 C654 1.419 . S
C653 C648 1.425 . S
C653 C650 1.409 . S
C653 C651 1.415 . S
C654 H644 0.930 . S
C654 C652 1.419 . S
C654 C655 1.362 . S
C655 H645 0.930 . S
C655 C648 1.409 . S
C655 C654 1.362 . S
H656 C662 0.930 . S
H657 C665 0.930 . S
H658 C666 0.930 . S
H659 C667 0.930 . S
H660 C670 0.930 . S
H661 C671 0.930 . S
C662 H656 0.930 . S
C662 C663 1.355 . S
C662 C664 1.415 . S
C663 C662 1.355 . S
C663 C665 1.419 . S
C664 C662 1.415 . S
C664 C669 1.425 . S
C664 C671 1.409 . S
C665 H657 0.930 . S
C665 C663 1.419 . S
C665 C666 1.362 . S
C666 H658 0.930 . S
C666 C665 1.362 . S
C666 C669 1.409 . S
C667 H659 0.930 . S
C667 C668 1.355 . S
C667 C669 1.415 . S
C668 C667 1.355 . S
C668 C670 1.419 . S
C669 C664 1.425 . S
C669 C666 1.409 . S
C669 C667 1.415 . S
C670 H660 0.930 . S
C670 C668 1.419 . S
C670 C671 1.362 . S
C671 H661 0.930 . S
C671 C664 1.409 . S
C671 C670 1.362 . S
H672 C678 0.930 . S
H673 C681 0.930 . S
H674 C682 0.930 . S
H675 C683 0.930 . S
H676 C686 0.930 . S
H677 C687 0.930 . S
C678 H672 0.930 . S
C678 C679 1.355 . S
C678 C680 1.415 . S
C679 C678 1.355 . S
C679 C681 1.419 . S
C680 C678 1.415 . S
C680 C685 1.425 . S
C680 C687 1.409 . S
C681 H673 0.930 . S
C681 C679 1.419 . S
C681 C682 1.362 . S
C682 H674 0.930 . S
C682 C681 1.362 . S
C682 C685 1.409 . S
C683 H675 0.930 . S
C683 C684 1.355 . S
C683 C685 1.415 . S
C684 C683 1.355 . S
C684 C686 1.419 . S
C685 C680 1.425 . S
C685 C682 1.409 . S
C685 C683 1.415 . S
C686 H676 0.930 . S
C686 C684 1.419 . S
C686 C687 1.362 . S
C687 H677 0.930 . S
C687 C680 1.409 . S
C687 C686 1.362 . S
H688 C694 0.930 . S
H689 C697 0.930 . S
H690 C698 0.930 . S
H691 C699 0.930 . S
H692 C702 0.930 . S
H693 C703 0.930 . S
C694 H688 0.930 . S
C694 C695 1.355 . S
C694 C696 1.415 . S
C695 C694 1.355 . S
C695 C697 1.419 . S
C696 C694 1.415 . S
C696 C701 1.425 . S
C696 C703 1.409 . S
C697 H689 0.930 . S
C697 C695 1.419 . S
C697 C698 1.362 . S
C698 H690 0.930 . S
C698 C697 1.362 . S
C698 C701 1.409 . S
C699 H691 0.930 . S
C699 C700 1.355 . S
C699 C701 1.415 . S
C700 C699 1.355 . S
C700 C702 1.419 . S
C701 C696 1.425 . S
C701 C698 1.409 . S
C701 C699 1.415 . S
C702 H692 0.930 . S
C702 C700 1.419 . S
C702 C703 1.362 . S
C703 H693 0.930 . S
C703 C696 1.409 . S
C703 C702 1.362 . S
H704 C710 0.930 . S
H705 C713 0.930 . S
H706 C714 0.930 . S
H707 C715 0.930 . S
H708 C718 0.930 . S
H709 C719 0.930 . S
C710 H704 0.930 . S
C710 C711 1.355 . S
C710 C712 1.415 . S
C711 C710 1.355 . S
C711 C713 1.419 . S
C712 C710 1.415 . S
C712 C717 1.425 . S
C712 C719 1.409 . S
C713 H705 0.930 . S
C713 C711 1.419 . S
C713 C714 1.362 . S
C714 H706 0.930 . S
C714 C713 1.362 . S
C714 C717 1.409 . S
C715 H707 0.930 . S
C715 C716 1.355 . S
C715 C717 1.415 . S
C716 C715 1.355 . S
C716 C718 1.419 . S
C717 C712 1.425 . S
C717 C714 1.409 . S
C717 C715 1.415 . S
C718 H708 0.930 . S
C718 C716 1.419 . S
C718 C719 1.362 . S
C719 H709 0.930 . S
C719 C712 1.409 . S
C719 C718 1.362 . S
H720 C726 0.930 . S
H721 C729 0.930 . S
H722 C730 0.930 . S
H723 C731 0.930 . S
H724 C734 0.930 . S
H725 C735 0.930 . S
C726 H720 0.930 . S
C726 C727 1.355 . S
C726 C728 1.415 . S
C727 C726 1.355 . S
C727 C729 1.419 . S
C728 C726 1.415 . S
C728 C733 1.425 . S
C728 C735 1.409 . S
C729 H721 0.930 . S
C729 C727 1.419 . S
C729 C730 1.362 . S
C730 H722 0.930 . S
C730 C729 1.362 . S
C730 C733 1.409 . S
C731 H723 0.930 . S
C731 C732 1.355 . S
C731 C733 1.415 . S
C732 C731 1.355 . S
C732 C734 1.419 . S
C733 C728 1.425 . S
C733 C730 1.409 . S
C733 C731 1.415 . S
C734 H724 0.930 . S
C734 C732 1.419 . S
C734 C735 1.362 . S
C735 H725 0.930 . S
C735 C728 1.409 . S
C735 C734 1.362 . S
C231 C11 1.097 . S
C236 C193 1.100 . S
C247 C165 1.103 . S
C252 C25 1.097 . S
C263 C179 1.120 . S
C268 C39 1.107 . S
C279 C151 1.128 . S
C284 C53 1.121 . S
C295 C67 1.114 . S
C300 C221 1.125 . S
C311 C81 1.122 . S
C316 C137 1.109 . S
C327 C207 1.098 . S
C332 C95 1.098 . S
C343 C109 1.128 . S
C348 C123 1.128 . S
C359 C69 1.507 1_565 S
C364 C13 1.517 1_545 S
C375 C27 1.479 . S
C380 C83 1.454 . S
C391 C41 1.515 1_565 S
C396 C97 1.501 1_545 S
C407 C111 1.437 . S
C412 C55 1.458 . S
C423 C125 1.431 . S
C428 C153 1.427 . S
C439 C139 1.457 . S
C444 C167 1.437 . S
C455 C209 1.478 . S
C460 C181 1.501 . S
C471 C195 1.430 . S
C476 C223 1.427 . S
C487 C77 1.372 . S
C492 C7 1.415 . S
C503 C21 1.360 . S
C508 C91 1.370 . S
C519 C35 1.395 . S
C524 C105 1.424 . S
C535 C63 1.380 . S
C540 C49 1.420 . S
C551 C64 1.319 . S
C556 C148 1.301 . S
C567 C36 1.271 . S
C572 C120 1.317 . S
C583 C162 1.285 . S
C588 C92 1.240 . S
C599 C134 1.242 . S
C604 C8 1.251 . S
C615 C119 1.423 . S
C620 C175 1.390 . S
C631 C147 1.377 . S
C636 C217 1.418 . S
C647 C189 1.422 . S
C652 C133 1.406 . S
C663 C161 1.374 . S
C668 C203 1.416 . S
C679 C204 1.286 . S
C684 C22 1.240 . S
C695 C190 1.237 . S
C700 C78 1.276 . S
C711 C218 1.272 . S
C716 C50 1.317 . S
C727 C176 1.256 . S
C732 C106 1.307 . S
