# Generated by pormake.
# Topology ske, (6)-cn, num edge types: 1
# Building blocks:
#     Node 0, Type 0, BuildingBlock: PAMTOO_clean_sbu_0, # of connection points: 6
#     Node 1, Type 0, BuildingBlock: PAMTOO_clean_sbu_0, # of connection points: 6
#     Node 2, Type 0, BuildingBlock: PAMTOO_clean_sbu_0, # of connection points: 6
#     Node 3, Type 0, BuildingBlock: PAMTOO_clean_sbu_0, # of connection points: 6
#     Node 4, Type 0, BuildingBlock: PAMTOO_clean_sbu_0, # of connection points: 6
#     Node 5, Type 0, BuildingBlock: PAMTOO_clean_sbu_0, # of connection points: 6
#     Node 6, Type 0, BuildingBlock: PAMTOO_clean_sbu_0, # of connection points: 6
#     Node 7, Type 0, BuildingBlock: PAMTOO_clean_sbu_0, # of connection points: 6
#     Edge 8, Type (0, 0), BuildingBlock: KIFKEQ_clean_linker_1, # of connection points: 2
#     Edge 9, Type (0, 0), BuildingBlock: KIFKEQ_clean_linker_1, # of connection points: 2
#     Edge 10, Type (0, 0), BuildingBlock: KIFKEQ_clean_linker_1, # of connection points: 2
#     Edge 11, Type (0, 0), BuildingBlock: KIFKEQ_clean_linker_1, # of connection points: 2
#     Edge 12, Type (0, 0), BuildingBlock: KIFKEQ_clean_linker_1, # of connection points: 2
#     Edge 13, Type (0, 0), BuildingBlock: KIFKEQ_clean_linker_1, # of connection points: 2
#     Edge 14, Type (0, 0), BuildingBlock: KIFKEQ_clean_linker_1, # of connection points: 2
#     Edge 15, Type (0, 0), BuildingBlock: KIFKEQ_clean_linker_1, # of connection points: 2
#     Edge 16, Type (0, 0), BuildingBlock: KIFKEQ_clean_linker_1, # of connection points: 2
#     Edge 17, Type (0, 0), BuildingBlock: KIFKEQ_clean_linker_1, # of connection points: 2
#     Edge 18, Type (0, 0), BuildingBlock: KIFKEQ_clean_linker_1, # of connection points: 2
#     Edge 19, Type (0, 0), BuildingBlock: KIFKEQ_clean_linker_1, # of connection points: 2
#     Edge 20, Type (0, 0), BuildingBlock: KIFKEQ_clean_linker_1, # of connection points: 2
#     Edge 21, Type (0, 0), BuildingBlock: KIFKEQ_clean_linker_1, # of connection points: 2
#     Edge 22, Type (0, 0), BuildingBlock: KIFKEQ_clean_linker_1, # of connection points: 2
#     Edge 23, Type (0, 0), BuildingBlock: KIFKEQ_clean_linker_1, # of connection points: 2
#     Edge 24, Type (0, 0), BuildingBlock: KIFKEQ_clean_linker_1, # of connection points: 2
#     Edge 25, Type (0, 0), BuildingBlock: KIFKEQ_clean_linker_1, # of connection points: 2
#     Edge 26, Type (0, 0), BuildingBlock: KIFKEQ_clean_linker_1, # of connection points: 2
#     Edge 27, Type (0, 0), BuildingBlock: KIFKEQ_clean_linker_1, # of connection points: 2
#     Edge 28, Type (0, 0), BuildingBlock: KIFKEQ_clean_linker_1, # of connection points: 2
#     Edge 29, Type (0, 0), BuildingBlock: KIFKEQ_clean_linker_1, # of connection points: 2
#     Edge 30, Type (0, 0), BuildingBlock: KIFKEQ_clean_linker_1, # of connection points: 2
#     Edge 31, Type (0, 0), BuildingBlock: KIFKEQ_clean_linker_1, # of connection points: 2
# Relax obj value: 0.158
# Max RMSD: 0.179
# Mean RMSD: 0.173
data_MOF--net-ske--node1-PAMTOO_clean_sbu_0--edge1-KIFKEQ_clean_linker_1
_symmetry_space_group_name_H-M    P1
_symmetry_Int_Tables_number       1
_symmetry_cell_setting            triclinic
loop_
_symmetry_equiv_pos_as_xyz
'x, y, z'
_cell_length_a     104.61936
_cell_length_b     30.787443
_cell_length_c     15.61971
_cell_angle_alpha  89.988345
_cell_angle_beta   89.976192
_cell_angle_gamma 90.002616
loop_
_atom_site_label
_atom_site_type_symbol
_atom_site_fract_x
_atom_site_fract_y
_atom_site_fract_z
_atom_type_partial_charge
Dy0 Dy 0.16052 0.24287 0.48067 0.0
Dy1 Dy 0.12872 0.24149 0.48185 0.0
C2 C 0.14467 0.15531 0.48566 0.0
O3 O 0.15495 0.22877 0.34556 0.0
O4 O 0.13399 0.25206 0.3449 0.0
O5 O 0.17872 0.21098 0.45936 0.0
O6 O 0.17804 0.27882 0.49658 0.0
O7 O 0.13552 0.3066 0.52409 0.0
O8 O 0.1534 0.30829 0.44157 0.0
O9 O 0.13465 0.22811 0.61654 0.0
O10 O 0.15513 0.25551 0.6167 0.0
O11 O 0.11102 0.27521 0.45628 0.0
O12 O 0.11076 0.21175 0.51758 0.0
C13 C 0.14447 0.24008 0.3047 0.0
O14 O 0.15389 0.17724 0.52287 0.0
O15 O 0.13536 0.17516 0.44509 0.0
C16 C 0.19693 0.24008 0.53379 0.0
C17 C 0.22089 0.23213 0.61734 0.0
C18 C 0.21358 0.19502 0.59737 0.0
C19 C 0.20176 0.19892 0.55565 0.0
C20 C 0.20406 0.27707 0.55548 0.0
C21 C 0.21587 0.27321 0.59638 0.0
C22 C 0.18531 0.24537 0.48047 0.0
C23 C 0.14439 0.32862 0.48387 0.0
C24 C 0.14489 0.24168 0.65727 0.0
C25 C 0.09114 0.23612 0.45276 0.0
C26 C 0.06463 0.22892 0.41994 0.0
C27 C 0.07143 0.2661 0.39424 0.0
C28 C 0.08453 0.26971 0.41073 0.0
C29 C 0.08449 0.19794 0.47392 0.0
C30 C 0.0714 0.19434 0.45745 0.0
C31 C 0.104 0.24433 0.48899 0.0
H32 H 0.217 0.16285 0.61344 0.0
H33 H 0.19656 0.16969 0.53916 0.0
H34 H 0.2007 0.3092 0.53824 0.0
H35 H 0.22123 0.3026 0.60871 0.0
H36 H 0.06651 0.29349 0.36585 0.0
H37 H 0.08931 0.29987 0.39485 0.0
H38 H 0.08924 0.17163 0.50719 0.0
H39 H 0.06648 0.16496 0.47673 0.0
Dy40 Dy 0.8717 0.24621 0.48011 0.0
Dy41 Dy 0.90371 0.2423 0.4821 0.0
C42 C 0.88843 0.33008 0.48355 0.0
O43 O 0.87712 0.23274 0.34466 0.0
O44 O 0.89853 0.25133 0.34442 0.0
O45 O 0.85493 0.28583 0.49675 0.0
O46 O 0.85289 0.21835 0.45963 0.0
O47 O 0.89703 0.17547 0.45048 0.0
O48 O 0.87722 0.17827 0.5146 0.0
O49 O 0.89766 0.22836 0.61615 0.0
O50 O 0.87733 0.25713 0.61634 0.0
O51 O 0.9218 0.21137 0.51122 0.0
O52 O 0.92129 0.27763 0.46282 0.0
C53 C 0.88784 0.24155 0.30422 0.0
O54 O 0.87942 0.3104 0.44049 0.0
O55 O 0.89722 0.30782 0.52371 0.0
C56 C 0.83533 0.25132 0.53486 0.0
C57 C 0.81107 0.25062 0.61583 0.0
C58 C 0.81897 0.28753 0.62012 0.0
C59 C 0.83091 0.28797 0.57976 0.0
C60 C 0.82765 0.21393 0.53288 0.0
C61 C 0.81567 0.21356 0.57286 0.0
C62 C 0.847 0.25415 0.48109 0.0
C63 C 0.88698 0.15621 0.48404 0.0
C64 C 0.88747 0.24241 0.65678 0.0
C65 C 0.94132 0.24059 0.45212 0.0
C66 C 0.96775 0.23352 0.41505 0.0
C67 C 0.95998 0.19614 0.42069 0.0
C68 C 0.94693 0.19962 0.43976 0.0
C69 C 0.94888 0.27787 0.44177 0.0
C70 C 0.9619 0.27445 0.42385 0.0
C71 C 0.92841 0.24562 0.48946 0.0
H72 H 0.8159 0.31643 0.65384 0.0
H73 H 0.83649 0.31757 0.58181 0.0
H74 H 0.83067 0.1854 0.49775 0.0
H75 H 0.80984 0.18468 0.56702 0.0
H76 H 0.96403 0.16405 0.41254 0.0
H77 H 0.94137 0.17023 0.44787 0.0
H78 H 0.94485 0.30987 0.45228 0.0
H79 H 0.96747 0.30406 0.4216 0.0
Dy80 Dy 0.16026 0.74571 0.55091 0.0
Dy81 Dy 0.12849 0.74067 0.55454 0.0
C82 C 0.14312 0.82905 0.54779 0.0
O83 O 0.15552 0.73009 0.68691 0.0
O84 O 0.13453 0.75274 0.68966 0.0
O85 O 0.17675 0.78562 0.52541 0.0
O86 O 0.17925 0.72027 0.57462 0.0
O87 O 0.13575 0.6741 0.5823 0.0
O88 O 0.15516 0.67784 0.5138 0.0
O89 O 0.13328 0.72952 0.41668 0.0
O90 O 0.15413 0.75447 0.41477 0.0
O91 O 0.1105 0.70633 0.54132 0.0
O92 O 0.11084 0.77444 0.58412 0.0
C93 C 0.14506 0.74063 0.72841 0.0
O94 O 0.15214 0.80951 0.5913 0.0
O95 O 0.13434 0.80618 0.50866 0.0
C96 C 0.19655 0.75055 0.49307 0.0
C97 C 0.22091 0.74799 0.41374 0.0
C98 C 0.21252 0.78294 0.399 0.0
C99 C 0.2005 0.78422 0.43818 0.0
C100 C 0.20472 0.71493 0.50549 0.0
C101 C 0.21671 0.71352 0.46594 0.0
C102 C 0.18489 0.75531 0.54631 0.0
C103 C 0.14555 0.65533 0.54497 0.0
C104 C 0.14365 0.7417 0.37526 0.0
C105 C 0.09002 0.73957 0.57499 0.0
C106 C 0.06327 0.73975 0.59533 0.0
C107 C 0.07044 0.70259 0.61604 0.0
C108 C 0.08371 0.70241 0.60528 0.0
C109 C 0.08292 0.77692 0.55563 0.0
C110 C 0.06964 0.7769 0.56501 0.0
C111 C 0.10402 0.74003 0.56751 0.0
H112 H 0.21543 0.81033 0.36009 0.0
H113 H 0.19453 0.81248 0.42801 0.0
H114 H 0.20204 0.6887 0.54808 0.0
H115 H 0.22278 0.68565 0.47753 0.0
H116 H 0.06576 0.67345 0.63905 0.0
H117 H 0.08905 0.67343 0.62165 0.0
H118 H 0.08763 0.80605 0.53276 0.0
H119 H 0.06435 0.80606 0.54918 0.0
Dy120 Dy 0.87132 0.74401 0.54912 0.0
Dy121 Dy 0.90291 0.74237 0.54702 0.0
C122 C 0.88692 0.65596 0.54636 0.0
O123 O 0.87705 0.72837 0.68392 0.0
O124 O 0.89756 0.75565 0.68366 0.0
O125 O 0.85311 0.71235 0.56958 0.0
O126 O 0.85382 0.78069 0.53574 0.0
O127 O 0.89614 0.80693 0.50172 0.0
O128 O 0.87864 0.80932 0.5874 0.0
O129 O 0.89695 0.72778 0.41227 0.0
O130 O 0.87664 0.75658 0.41222 0.0
O131 O 0.92064 0.77598 0.57253 0.0
O132 O 0.92085 0.71245 0.5117 0.0
C133 C 0.88733 0.74181 0.72447 0.0
O134 O 0.87768 0.67787 0.50923 0.0
O135 O 0.89639 0.67608 0.58484 0.0
C136 C 0.83469 0.74296 0.50119 0.0
C137 C 0.81055 0.73396 0.42168 0.0
C138 C 0.82011 0.70227 0.40976 0.0
C139 C 0.83209 0.70666 0.44942 0.0
C140 C 0.82533 0.77516 0.51047 0.0
C141 C 0.81343 0.77082 0.47115 0.0
C142 C 0.84656 0.74726 0.55174 0.0
C143 C 0.88745 0.82936 0.5427 0.0
C144 C 0.88678 0.74201 0.37148 0.0
C145 C 0.94042 0.73632 0.57736 0.0
C146 C 0.96691 0.72928 0.61013 0.0
C147 C 0.95999 0.76555 0.63918 0.0
C148 C 0.94689 0.76909 0.62271 0.0
C149 C 0.94717 0.69879 0.55345 0.0
C150 C 0.96025 0.69525 0.56993 0.0
C151 C 0.92764 0.74492 0.54033 0.0
H152 H 0.8182 0.67345 0.37215 0.0
H153 H 0.83917 0.68133 0.44115 0.0
H154 H 0.82713 0.80345 0.54997 0.0
H155 H 0.80643 0.79633 0.48018 0.0
H156 H 0.96484 0.79249 0.66976 0.0
H157 H 0.94201 0.79872 0.64099 0.0
H158 H 0.94253 0.67313 0.51765 0.0
H159 H 0.96527 0.66655 0.548 0.0
Dy160 Dy 0.66023 0.74062 0.04617 0.0
Dy161 Dy 0.6284 0.74018 0.04724 0.0
C162 C 0.64432 0.65307 0.03961 0.0
O163 O 0.65483 0.72872 0.90987 0.0
O164 O 0.6335 0.74841 0.90929 0.0
O165 O 0.67845 0.70868 0.02695 0.0
O166 O 0.67776 0.77689 0.06221 0.0
O167 O 0.63536 0.80628 0.08263 0.0
O168 O 0.65322 0.80495 1.00003 0.0
O169 O 0.63452 0.72484 0.18076 0.0
O170 O 0.6546 0.75507 0.18107 0.0
O171 O 0.61089 0.77531 0.02467 0.0
O172 O 0.61028 0.71095 0.0818 0.0
C173 C 0.64417 0.7382 0.86924 0.0
O174 O 0.65359 0.67351 0.07968 0.0
O175 O 0.63478 0.67441 1.00461 0.0
C176 C 0.69706 0.73937 0.09322 0.0
C177 C 0.72143 0.73086 0.1698 0.0
C178 C 0.71176 0.70003 0.18605 0.0
C179 C 0.69967 0.70416 0.14782 0.0
C180 C 0.70657 0.77064 0.07919 0.0
C181 C 0.71858 0.76654 0.117 0.0
C182 C 0.685 0.74359 0.04491 0.0
C183 C 0.64411 0.82676 0.03833 0.0
C184 C 0.64455 0.73992 0.22172 0.0
C185 C 0.59094 0.7372 0.01586 0.0
C186 C 0.5646 0.73232 0.97471 0.0
C187 C 0.572 0.7681 0.94844 0.0
C188 C 0.58499 0.77061 0.96909 0.0
C189 C 0.58372 0.70039 0.03805 0.0
C190 C 0.57073 0.69793 0.01761 0.0
C191 C 0.60368 0.74429 0.05487 0.0
H192 H 0.71365 0.6721 0.22627 0.0
H193 H 0.69248 0.67956 0.15964 0.0
H194 H 0.70477 0.79806 0.03735 0.0
H195 H 0.72566 0.7914 0.10452 0.0
H196 H 0.56767 0.79487 0.91401 0.0
H197 H 0.59021 0.7997 0.9518 0.0
H198 H 0.58795 0.67442 0.07532 0.0
H199 H 0.56535 0.67006 0.03977 0.0
Dy200 Dy 0.37218 0.74417 0.04378 0.0
Dy201 Dy 0.40398 0.74099 0.04474 0.0
C202 C 0.38875 0.82857 0.03532 0.0
O203 O 0.37754 0.73155 0.90757 0.0
O204 O 0.39896 0.75025 0.9069 0.0
O205 O 0.35519 0.7821 0.06473 0.0
O206 O 0.35354 0.71535 0.02121 0.0
O207 O 0.39702 0.67589 1.002 0.0
O208 O 0.37818 0.67645 0.07709 0.0
O209 O 0.39785 0.72519 0.17801 0.0
O210 O 0.37805 0.7574 0.17872 0.0
O211 O 0.42206 0.70903 0.07061 0.0
O212 O 0.42159 0.77672 0.03085 0.0
C213 C 0.38826 0.74047 0.86684 0.0
O214 O 0.37967 0.8073 0.99602 0.0
O215 O 0.39732 0.80754 0.0801 0.0
C216 C 0.33564 0.74549 0.09671 0.0
C217 C 0.31114 0.74482 0.17405 0.0
C218 C 0.32076 0.77303 0.20386 0.0
C219 C 0.33287 0.77337 0.16565 0.0
C220 C 0.32622 0.71628 0.06905 0.0
C221 C 0.31415 0.71575 0.10746 0.0
C222 C 0.34747 0.75034 0.04541 0.0
C223 C 0.38732 0.65535 0.03695 0.0
C224 C 0.38795 0.74101 0.21921 0.0
C225 C 0.44158 0.74011 1.01475 0.0
C226 C 0.46791 0.73462 0.97337 0.0
C227 C 0.46023 0.69699 0.97594 0.0
C228 C 0.44722 0.69966 0.99693 0.0
C229 C 0.44909 0.77775 1.00818 0.0
C230 C 0.46206 0.7751 0.98798 0.0
C231 C 0.42871 0.74387 0.05328 0.0
H232 H 0.31879 0.79613 0.25443 0.0
H233 H 0.33988 0.79659 0.18815 0.0
H234 H 0.32805 0.69473 0.01561 0.0
H235 H 0.30711 0.69292 0.08391 0.0
H236 H 0.46433 0.66531 0.96368 0.0
H237 H 0.4417 0.67 1.00207 0.0
H238 H 0.44507 0.8093 0.02305 0.0
H239 H 0.46762 0.80477 0.98823 0.0
Dy240 Dy 0.65998 0.2384 0.98597 0.0
Dy241 Dy 0.62805 0.23938 0.98432 0.0
C242 C 0.64411 0.32653 0.99301 0.0
O243 O 0.65478 0.24823 0.12291 0.0
O244 O 0.63301 0.23359 0.12299 0.0
O245 O 0.67837 0.26916 1.00644 0.0
O246 O 0.67727 0.20166 0.96651 0.0
O247 O 0.6353 0.17379 0.94712 0.0
O248 O 0.65276 0.17452 0.03328 0.0
O249 O 0.63405 0.25462 0.85073 0.0
O250 O 0.6543 0.22552 0.85053 0.0
O251 O 0.61073 0.20334 1.00715 0.0
O252 O 0.60979 0.26778 0.95027 0.0
C253 C 0.64388 0.24137 0.16268 0.0
O254 O 0.65357 0.30606 0.95486 0.0
O255 O 0.63434 0.30543 0.02571 0.0
C256 C 0.69653 0.23896 0.93275 0.0
C257 C 0.72097 0.24585 0.85635 0.0
C258 C 0.71324 0.28292 0.86683 0.0
C259 C 0.70114 0.27955 0.90513 0.0
C260 C 0.70406 0.20188 0.9191 0.0
C261 C 0.7161 0.20523 0.88124 0.0
C262 C 0.68472 0.2344 0.98427 0.0
C263 C 0.64382 0.15318 0.99276 0.0
C264 C 0.64419 0.24026 0.80998 0.0
C265 C 0.59065 0.24039 0.01733 0.0
C266 C 0.56434 0.24413 0.05946 0.0
C267 C 0.57172 0.2076 0.08132 0.0
C268 C 0.58469 0.2057 0.06031 0.0
C269 C 0.58345 0.27791 0.99973 0.0
C270 C 0.57046 0.27983 0.02083 0.0
C271 C 0.60337 0.23406 0.9774 0.0
H272 H 0.71674 0.3147 0.84855 0.0
H273 H 0.69559 0.30879 0.91529 0.0
H274 H 0.7008 0.17024 0.94025 0.0
H275 H 0.72169 0.17595 0.87269 0.0
H276 H 0.56736 0.17982 0.11231 0.0
H277 H 0.58989 0.17608 0.07402 0.0
H278 H 0.58768 0.30494 0.96552 0.0
H279 H 0.56506 0.30834 1.00239 0.0
Dy280 Dy 0.37171 0.24106 0.98719 0.0
Dy281 Dy 0.40398 0.24742 0.98434 0.0
C282 C 0.38927 0.1557 0.99168 0.0
O283 O 0.37753 0.22897 0.12209 0.0
O284 O 0.39837 0.25417 0.12187 0.0
O285 O 0.35363 0.20822 1.00778 0.0
O286 O 0.35406 0.27647 0.97279 0.0
O287 O 0.39581 0.31149 0.94643 0.0
O288 O 0.37804 0.30678 0.02994 0.0
O289 O 0.39861 0.23779 0.84804 0.0
O290 O 0.37665 0.24786 0.8489 0.0
O291 O 0.42081 0.28483 0.01576 0.0
O292 O 0.42262 0.22382 0.94663 0.0
C293 C 0.388 0.24101 0.16216 0.0
O294 O 0.37869 0.1738 0.96334 0.0
O295 O 0.39934 0.17831 0.01539 0.0
C296 C 0.33502 0.2382 0.93909 0.0
C297 C 0.31064 0.23013 0.86263 0.0
C298 C 0.31938 0.19534 0.86005 0.0
C299 C 0.33147 0.19924 0.89845 0.0
C300 C 0.32647 0.27328 0.93853 0.0
C301 C 0.31445 0.26935 0.90079 0.0
C302 C 0.34693 0.24276 0.98924 0.0
C303 C 0.38652 0.32996 0.98887 0.0
C304 C 0.38759 0.2424 0.80892 0.0
C305 C 0.44132 0.25003 0.01999 0.0
C306 C 0.46764 0.24537 0.06085 0.0
C307 C 0.46049 0.28274 0.0804 0.0
C308 C 0.44751 0.28509 0.05995 0.0
C309 C 0.44827 0.21166 1.005 0.0
C310 C 0.46128 0.20931 0.0255 0.0
C311 C 0.42859 0.25683 0.98069 0.0
H312 H 0.31669 0.16469 0.83117 0.0
H313 H 0.33786 0.17158 0.89812 0.0
H314 H 0.32896 0.3036 0.96957 0.0
H315 H 0.30805 0.29698 0.90254 0.0
H316 H 0.46504 0.31083 0.10896 0.0
H317 H 0.44248 0.31528 0.07154 0.0
H318 H 0.44385 0.18421 0.97335 0.0
H319 H 0.46651 0.18011 1.00905 0.0
H320 H 0.23912 0.16848 0.59317 0.0
H321 H 0.23223 0.28756 0.73239 0.0
H322 H 0.26037 0.164 0.65577 0.0
H323 H 0.25374 0.28528 0.78812 0.0
H324 H 0.28859 0.25512 0.94058 0.0
H325 H 0.26696 0.25198 0.88534 0.0
H326 H 0.28102 0.193 0.65223 0.0
H327 H 0.30273 0.19472 0.70996 0.0
C328 C 0.24207 0.19368 0.63724 0.0
C329 C 0.23384 0.22842 0.65737 0.0
C330 C 0.2544 0.19151 0.67208 0.0
C331 C 0.2589 0.22427 0.72725 0.0
C332 C 0.25064 0.25889 0.74734 0.0
C333 C 0.23828 0.26065 0.71384 0.0
C334 C 0.28706 0.24146 0.8775 0.0
C335 C 0.2974 0.22566 0.82921 0.0
C336 C 0.27463 0.23984 0.8454 0.0
C337 C 0.27214 0.22291 0.76338 0.0
C338 C 0.28247 0.20597 0.71589 0.0
C339 C 0.29495 0.20708 0.74873 0.0
H340 H 0.72982 0.29411 0.72058 0.0
H341 H 0.74225 0.2055 0.91795 0.0
H342 H 0.75152 0.29615 0.66303 0.0
H343 H 0.7639 0.20828 0.8625 0.0
H344 H 0.79813 0.1839 0.6944 0.0
H345 H 0.77645 0.18394 0.7493 0.0
H346 H 0.77268 0.31967 0.68303 0.0
H347 H 0.79403 0.31868 0.62176 0.0
C348 C 0.73721 0.27543 0.75217 0.0
C349 C 0.73426 0.24918 0.82308 0.0
C350 C 0.74968 0.27666 0.71941 0.0
C351 C 0.75952 0.252 0.75739 0.0
C352 C 0.75657 0.22678 0.82987 0.0
C353 C 0.74413 0.22527 0.86198 0.0
C354 C 0.79265 0.21365 0.69033 0.0
C355 C 0.79793 0.25125 0.65337 0.0
C356 C 0.78023 0.21389 0.72322 0.0
C357 C 0.77275 0.25191 0.72136 0.0
C358 C 0.77805 0.28962 0.68489 0.0
C359 C 0.79043 0.28923 0.65096 0.0
H360 H 0.28847 0.73585 0.08785 0.0
H361 H 0.30373 0.7587 0.34095 0.0
H362 H 0.26694 0.73656 0.14561 0.0
H363 H 0.2821 0.76246 0.3979 0.0
H364 H 0.24294 0.71894 0.48989 0.0
H365 H 0.26446 0.7185 0.43194 0.0
H366 H 0.25075 0.78098 0.20174 0.0
H367 H 0.22905 0.77853 0.25727 0.0
C368 C 0.28726 0.74097 0.15595 0.0
C369 C 0.29791 0.74665 0.20976 0.0
C370 C 0.27484 0.74215 0.18895 0.0
C371 C 0.2727 0.74953 0.27664 0.0
C372 C 0.28334 0.75597 0.33029 0.0
C373 C 0.29578 0.75439 0.29736 0.0
C374 C 0.24444 0.73188 0.42622 0.0
C375 C 0.23415 0.74833 0.37806 0.0
C376 C 0.25687 0.73235 0.3935 0.0
C377 C 0.25943 0.74975 0.312 0.0
C378 C 0.24917 0.76669 0.26419 0.0
C379 C 0.2367 0.76582 0.29659 0.0
H380 H 0.74426 0.7464 0.09008 0.0
H381 H 0.72834 0.70418 0.33135 0.0
H382 H 0.76562 0.74398 0.15111 0.0
H383 H 0.74984 0.69979 0.39155 0.0
H384 H 0.7877 0.75224 0.49842 0.0
H385 H 0.76639 0.74821 0.43718 0.0
H386 H 0.78228 0.69726 0.20237 0.0
H387 H 0.80375 0.70321 0.26265 0.0
C388 C 0.74532 0.73641 0.15619 0.0
C389 C 0.73454 0.726 0.20608 0.0
C390 C 0.75762 0.73444 0.19088 0.0
C391 C 0.7595 0.72178 0.27641 0.0
C392 C 0.74875 0.71024 0.32576 0.0
C393 C 0.73642 0.71228 0.29099 0.0
C394 C 0.78668 0.74046 0.43345 0.0
C395 C 0.79748 0.72856 0.38513 0.0
C396 C 0.77441 0.73755 0.3987 0.0
C397 C 0.77256 0.72243 0.31471 0.0
C398 C 0.78334 0.70956 0.26692 0.0
C399 C 0.79565 0.71253 0.30176 0.0
H400 H 0.16065 0.88614 0.61204 0.0
H401 H 0.12549 0.88038 0.46737 0.0
H402 H 0.16105 0.96465 0.59563 0.0
H403 H 0.12563 0.95913 0.45347 0.0
H404 H 0.13661 0.09591 0.36815 0.0
H405 H 0.13633 0.01688 0.38306 0.0
H406 H 0.15101 0.0292 0.64078 0.0
H407 H 0.15192 0.10781 0.62348 0.0
C408 C 0.15294 0.90167 0.57735 0.0
C409 C 0.14305 0.87697 0.54089 0.0
C410 C 0.15312 0.9468 0.56834 0.0
C411 C 0.14338 0.9684 0.52315 0.0
C412 C 0.13341 0.94363 0.48747 0.0
C413 C 0.13327 0.89844 0.49605 0.0
C414 C 0.13978 0.0815 0.42776 0.0
C415 C 0.14435 0.10771 0.49449 0.0
C416 C 0.13955 0.0363 0.43665 0.0
C417 C 0.14364 0.01651 0.51323 0.0
C418 C 0.14805 0.0431 0.58026 0.0
C419 C 0.14853 0.08816 0.57061 0.0
H420 H 0.90873 0.38506 0.48987 0.0
H421 H 0.86752 0.38161 0.49784 0.0
H422 H 0.90827 0.46394 0.50621 0.0
H423 H 0.86698 0.46003 0.51928 0.0
H424 H 0.86988 0.60432 0.46205 0.0
H425 H 0.87032 0.52593 0.44682 0.0
H426 H 0.90408 0.52006 0.60607 0.0
H427 H 0.90391 0.59894 0.61857 0.0
C428 C 0.89958 0.40132 0.49589 0.0
C429 C 0.88816 0.37759 0.49204 0.0
C430 C 0.8993 0.4464 0.50598 0.0
C431 C 0.88758 0.46848 0.51434 0.0
C432 C 0.87616 0.44435 0.51127 0.0
C433 C 0.87645 0.39943 0.49925 0.0
C434 C 0.87741 0.58638 0.49393 0.0
C435 C 0.88691 0.60798 0.5411 0.0
C436 C 0.87761 0.54126 0.48568 0.0
C437 C 0.88725 0.5165 0.52501 0.0
C438 C 0.89664 0.53809 0.57357 0.0
C439 C 0.89649 0.58334 0.58131 0.0
H440 H 0.8717 0.88722 0.62432 0.0
H441 H 0.903 0.87996 0.44425 0.0
H442 H 0.87158 0.96615 0.61064 0.0
H443 H 0.90262 0.95841 0.42847 0.0
H444 H 0.90755 0.10192 0.48542 0.0
H445 H 0.90764 0.02336 0.50254 0.0
H446 H 0.86634 0.02341 0.51307 0.0
H447 H 0.86632 0.1024 0.4994 0.0
C448 C 0.87852 0.90243 0.5816 0.0
C449 C 0.88737 0.87729 0.53551 0.0
C450 C 0.87839 0.94768 0.57325 0.0
C451 C 0.88708 0.96876 0.51836 0.0
C452 C 0.89592 0.94345 0.47236 0.0
C453 C 0.89609 0.89833 0.48106 0.0
C454 C 0.89849 0.08513 0.49098 0.0
C455 C 0.88693 0.10831 0.49097 0.0
C456 C 0.89853 0.04002 0.50053 0.0
C457 C 0.88699 0.01691 0.50905 0.0
C458 C 0.87541 0.04017 0.5082 0.0
C459 C 0.87539 0.08541 0.49981 0.0
H460 H 0.16605 0.60039 0.54113 0.0
H461 H 0.12486 0.60289 0.52657 0.0
H462 H 0.16576 0.5214 0.52584 0.0
H463 H 0.12453 0.52443 0.50697 0.0
H464 H 0.12731 0.38052 0.56743 0.0
H465 H 0.12778 0.45899 0.58235 0.0
H466 H 0.16187 0.46439 0.42613 0.0
H467 H 0.16163 0.38545 0.41362 0.0
C468 C 0.15695 0.584 0.53382 0.0
C469 C 0.14548 0.60762 0.53554 0.0
C470 C 0.15677 0.5388 0.52449 0.0
C471 C 0.14512 0.51638 0.51509 0.0
C472 C 0.13367 0.54035 0.51584 0.0
C473 C 0.13384 0.58537 0.52675 0.0
C474 C 0.13492 0.39838 0.5362 0.0
C475 C 0.14446 0.37664 0.48956 0.0
C476 C 0.13514 0.44354 0.54427 0.0
C477 C 0.14487 0.46822 0.5055 0.0
C478 C 0.15434 0.44645 0.458 0.0
C479 C 0.15415 0.40118 0.45022 0.0
H480 H 0.63459 0.60286 0.91175 0.0
H481 H 0.65487 0.59532 0.15209 0.0
H482 H 0.6352 0.5235 0.89989 0.0
H483 H 0.65508 0.51576 0.14128 0.0
H484 H 0.63394 0.37687 0.11919 0.0
H485 H 0.63465 0.45622 0.1314 0.0
H486 H 0.65555 0.46365 0.89375 0.0
H487 H 0.65522 0.38413 0.88266 0.0
C488 C 0.63911 0.58421 0.96221 0.0
C489 C 0.64466 0.60518 0.03295 0.0
C490 C 0.63951 0.53894 0.95512 0.0
C491 C 0.64518 0.51377 0.0197 0.0
C492 C 0.65064 0.53461 0.09079 0.0
C493 C 0.65054 0.57999 0.0968 0.0
C494 C 0.6387 0.39545 0.06964 0.0
C495 C 0.6445 0.37441 0.99986 0.0
C496 C 0.63916 0.44071 0.07693 0.0
C497 C 0.64515 0.4658 1.01348 0.0
C498 C 0.65086 0.44488 0.94335 0.0
C499 C 0.6507 0.39951 0.93719 0.0
H500 H 0.37093 0.88227 0.96463 0.0
H501 H 0.40762 0.88331 0.09169 0.0
H502 H 0.37153 0.96094 0.9539 0.0
H503 H 0.40808 0.9625 0.08275 0.0
H504 H 0.40984 0.10169 0.97285 0.0
H505 H 0.41005 0.02232 0.9828 0.0
H506 H 0.36972 0.02347 0.04336 0.0
H507 H 0.36946 0.10224 0.02971 0.0
C508 C 0.37912 0.8993 0.99055 0.0
C509 C 0.3892 0.87651 0.02934 0.0
C510 C 0.37942 0.94452 0.98495 0.0
C511 C 0.38981 0.96816 0.01803 0.0
C512 C 0.39997 0.94532 0.05606 0.0
C513 C 0.39966 0.89996 0.0618 0.0
C514 C 0.40105 0.0848 0.98829 0.0
C515 C 0.38961 0.10795 0.99959 0.0
C516 C 0.40117 0.03942 0.99443 0.0
C517 C 0.38988 0.01644 1.01331 0.0
C518 C 0.37852 0.03995 0.02659 0.0
C519 C 0.37837 0.08511 0.01907 0.0
H520 H 0.39678 0.37909 0.11456 0.0
H521 H 0.37539 0.38673 0.87921 0.0
H522 H 0.39626 0.45866 0.12698 0.0
H523 H 0.37494 0.46642 0.89094 0.0
H524 H 0.39532 0.6053 0.90395 0.0
H525 H 0.3943 0.52602 0.89174 0.0
H526 H 0.37704 0.5185 0.14222 0.0
H527 H 0.37766 0.59802 0.15343 0.0
C528 C 0.39195 0.398 0.06582 0.0
C529 C 0.38616 0.37739 0.99589 0.0
C530 C 0.39161 0.44325 0.07301 0.0
C531 C 0.38555 0.46843 1.00993 0.0
C532 C 0.37973 0.44762 0.93998 0.0
C533 C 0.37999 0.40231 0.93323 0.0
C534 C 0.39128 0.58668 0.95626 0.0
C535 C 0.38661 0.60763 0.02977 0.0
C536 C 0.39064 0.54148 0.94902 0.0
C537 C 0.38562 0.51638 0.01611 0.0
C538 C 0.38098 0.53727 0.08979 0.0
C539 C 0.3813 0.5826 0.09605 0.0
H540 H 0.63772 0.10439 0.13113 0.0
H541 H 0.64888 0.09575 0.86602 0.0
H542 H 0.63695 0.02484 0.14017 0.0
H543 H 0.64835 0.0162 0.87479 0.0
H544 H 0.66175 0.88012 0.96358 0.0
H545 H 0.66105 0.95896 0.95059 0.0
H546 H 0.62464 0.96104 0.08083 0.0
H547 H 0.62534 0.88197 0.09451 0.0
C548 C 0.64003 0.08524 0.075 0.0
C549 C 0.64339 0.10565 0.99802 0.0
C550 C 0.6395 0.0399 0.07986 0.0
C551 C 0.64262 0.01431 1.00822 0.0
C552 C 0.64599 0.03505 0.93115 0.0
C553 C 0.64626 0.08039 0.92594 0.0
C554 C 0.65356 0.89728 0.9893 0.0
C555 C 0.64363 0.87471 0.03045 0.0
C556 C 0.65314 0.94247 0.98141 0.0
C557 C 0.64279 0.96617 1.01466 0.0
C558 C 0.63281 0.94366 0.05546 0.0
C559 C 0.63321 0.89838 0.06315 0.0
H560 H 0.16454 0.22208 0.19767 0.0
H561 H 0.12451 0.25697 0.19635 0.0
H562 H 0.16461 0.2215 0.04189 0.0
H563 H 0.12469 0.25758 0.04064 0.0
H564 H 0.12603 0.21204 0.76375 0.0
H565 H 0.12602 0.21051 0.91939 0.0
H566 H 0.16352 0.26948 0.9216 0.0
H567 H 0.16369 0.26986 0.76579 0.0
C568 C 0.15575 0.22972 0.16428 0.0
C569 C 0.14451 0.23954 0.20976 0.0
C570 C 0.15583 0.22972 0.07479 0.0
C571 C 0.14467 0.23958 0.02853 0.0
C572 C 0.13342 0.24927 0.07407 0.0
C573 C 0.13334 0.24922 0.16354 0.0
C574 C 0.13429 0.22463 0.79731 0.0
C575 C 0.14487 0.24105 0.7521 0.0
C576 C 0.13425 0.224 0.88674 0.0
C577 C 0.14476 0.23993 0.93324 0.0
C578 C 0.15533 0.25637 0.88795 0.0
C579 C 0.1554 0.25685 0.79847 0.0
H580 H 0.86727 0.23329 0.19708 0.0
H581 H 0.90834 0.24874 0.19604 0.0
H582 H 0.8672 0.23275 0.04138 0.0
H583 H 0.90822 0.24946 0.04028 0.0
H584 H 0.90507 0.20497 0.76322 0.0
H585 H 0.90507 0.2039 0.91892 0.0
H586 H 0.87019 0.27916 0.92092 0.0
H587 H 0.86997 0.27902 0.76512 0.0
C588 C 0.87629 0.23662 0.16374 0.0
C589 C 0.88782 0.24101 0.20929 0.0
C590 C 0.87624 0.23669 0.07427 0.0
C591 C 0.8877 0.24116 0.02804 0.0
C592 C 0.89923 0.24541 0.07365 0.0
C593 C 0.89928 0.24533 0.16314 0.0
C594 C 0.89739 0.22125 0.7968 0.0
C595 C 0.88749 0.24196 0.75158 0.0
C596 C 0.89743 0.22086 0.88625 0.0
C597 C 0.88763 0.24145 0.93272 0.0
C598 C 0.87778 0.26234 0.88735 0.0
C599 C 0.87768 0.26246 0.79788 0.0
H600 H 0.12666 0.70176 0.26672 0.0
H601 H 0.16059 0.78181 0.26832 0.0
H602 H 0.12693 0.70158 0.11032 0.0
H603 H 0.161 0.78094 0.11278 0.0
H604 H 0.1507 0.80765 0.83376 0.0
H605 H 0.14993 0.8085 0.99037 0.0
H606 H 0.13883 0.67318 0.99012 0.0
H607 H 0.13936 0.67313 0.83319 0.0
C608 C 0.13417 0.71935 0.2338 0.0
C609 C 0.14361 0.74174 0.2802 0.0
C610 C 0.13439 0.71896 0.14408 0.0
C611 C 0.144 0.74121 0.09868 0.0
C612 C 0.15337 0.76385 0.14534 0.0
C613 C 0.15319 0.76404 0.23479 0.0
C614 C 0.14816 0.77818 0.8677 0.0
C615 C 0.14518 0.74027 0.82241 0.0
C616 C 0.14776 0.77851 0.95723 0.0
C617 C 0.14433 0.74086 1.00317 0.0
C618 C 0.14135 0.70288 0.95702 0.0
C619 C 0.14176 0.70263 0.8674 0.0
H620 H 0.89544 0.80606 0.83118 0.0
H621 H 0.87914 0.67738 0.83091 0.0
H622 H 0.8951 0.80645 0.98845 0.0
H623 H 0.8793 0.67703 0.98824 0.0
H624 H 0.89851 0.68393 0.26519 0.0
H625 H 0.89852 0.68349 0.10809 0.0
H626 H 0.87573 0.80023 0.10664 0.0
H627 H 0.87533 0.79992 0.26372 0.0
C628 C 0.8919 0.77776 0.86491 0.0
C629 C 0.88733 0.74167 0.8192 0.0
C630 C 0.89166 0.77805 0.95463 0.0
C631 C 0.88721 0.74173 1.00029 0.0
C632 C 0.88281 0.70538 0.95451 0.0
C633 C 0.88268 0.70563 0.86476 0.0
C634 C 0.89347 0.7094 0.23126 0.0
C635 C 0.88685 0.74182 0.2766 0.0
C636 C 0.89345 0.70905 0.14154 0.0
C637 C 0.88712 0.74181 0.09543 0.0
C638 C 0.88069 0.77464 0.14073 0.0
C639 C 0.88041 0.77432 0.23043 0.0
H640 H 0.62762 0.69899 0.32801 0.0
H641 H 0.66133 0.78013 0.33021 0.0
H642 H 0.62766 0.69757 0.48373 0.0
H643 H 0.66112 0.77993 0.48612 0.0
H644 H 0.66486 0.73422 0.76218 0.0
H645 H 0.66494 0.73395 0.60636 0.0
H646 H 0.6237 0.74204 0.60551 0.0
H647 H 0.6236 0.74112 0.7613 0.0
C648 C 0.635 0.71679 0.3617 0.0
C649 C 0.6445 0.73955 0.31655 0.0
C650 C 0.63497 0.71618 0.45116 0.0
C651 C 0.64439 0.73863 0.49775 0.0
C652 C 0.65385 0.76163 0.45246 0.0
C653 C 0.65393 0.76195 0.36295 0.0
C654 C 0.6558 0.73568 0.72881 0.0
C655 C 0.64422 0.73769 0.77436 0.0
C656 C 0.65585 0.73593 0.63931 0.0
C657 C 0.64433 0.7381 0.59311 0.0
C658 C 0.63275 0.73984 0.63881 0.0
C659 C 0.6327 0.73968 0.7283 0.0
H660 H 0.40876 0.74648 0.75858 0.0
H661 H 0.36764 0.73289 0.7599 0.0
H662 H 0.40865 0.74676 0.60281 0.0
H663 H 0.36756 0.73196 0.60414 0.0
H664 H 0.3706 0.77839 0.3277 0.0
H665 H 0.37077 0.77826 0.48348 0.0
H666 H 0.40528 0.7011 0.48155 0.0
H667 H 0.40534 0.70238 0.32576 0.0
C668 C 0.39969 0.74341 0.72573 0.0
C669 C 0.38821 0.73976 0.77193 0.0
C670 C 0.39964 0.74321 0.63624 0.0
C671 C 0.38809 0.73938 0.59067 0.0
C672 C 0.37662 0.73555 0.63699 0.0
C673 C 0.37667 0.73572 0.72648 0.0
C674 C 0.37823 0.76137 0.36044 0.0
C675 C 0.38796 0.74042 0.31409 0.0
C676 C 0.37828 0.76108 0.44992 0.0
C677 C 0.38803 0.73961 0.49532 0.0
C678 C 0.39773 0.71852 0.44884 0.0
C679 C 0.39772 0.71903 0.35935 0.0
H680 H 0.6272 0.28231 0.26863 0.0
H681 H 0.66071 0.20093 0.26756 0.0
H682 H 0.62756 0.28408 0.42446 0.0
H683 H 0.66054 0.19888 0.42317 0.0
H684 H 0.66461 0.23131 0.70236 0.0
H685 H 0.66467 0.23344 0.54725 0.0
H686 H 0.62352 0.24869 0.54811 0.0
H687 H 0.62369 0.24972 0.70324 0.0
C688 C 0.63453 0.26424 0.30232 0.0
C689 C 0.64393 0.24159 0.25678 0.0
C690 C 0.6347 0.26481 0.39181 0.0
C691 C 0.64405 0.24144 0.43784 0.0
C692 C 0.65336 0.21825 0.39114 0.0
C693 C 0.65342 0.21898 0.3017 0.0
C694 C 0.65559 0.23534 0.66926 0.0
C695 C 0.64416 0.24054 0.71522 0.0
C696 C 0.65558 0.23614 0.5798 0.0
C697 C 0.64409 0.24116 0.53369 0.0
C698 C 0.63263 0.2458 0.5803 0.0
C699 C 0.63269 0.24597 0.66976 0.0
H700 H 0.36758 0.2298 0.26927 0.0
H701 H 0.4084 0.25136 0.26984 0.0
H702 H 0.36741 0.2312 0.42432 0.0
H703 H 0.40842 0.25001 0.42508 0.0
H704 H 0.4037 0.28571 0.7033 0.0
H705 H 0.40359 0.28658 0.54749 0.0
H706 H 0.37205 0.19538 0.54802 0.0
H707 H 0.3716 0.19796 0.70391 0.0
C708 C 0.37657 0.23433 0.30254 0.0
C709 C 0.38801 0.24051 0.25696 0.0
C710 C 0.3765 0.23476 0.39195 0.0
C711 C 0.38791 0.24059 0.43837 0.0
C712 C 0.39937 0.2463 0.39235 0.0
C713 C 0.3994 0.24666 0.3029 0.0
C714 C 0.39673 0.26612 0.66953 0.0
C715 C 0.3876 0.242 0.71489 0.0
C716 C 0.39671 0.26619 0.58012 0.0
C717 C 0.38783 0.24093 0.53404 0.0
C718 C 0.37884 0.21616 0.58042 0.0
C719 C 0.37861 0.21726 0.66986 0.0
H720 H 0.04935 0.2567 0.28773 0.0
H721 H 0.04777 0.19926 0.53974 0.0
H722 H 0.02607 0.25589 0.2806 0.0
H723 H 0.02461 0.19943 0.534 0.0
H724 H 0.98365 0.17036 0.47965 0.0
H725 H 1.00675 0.16704 0.4734 0.0
H726 H 1.00746 0.28806 0.33307 0.0
H727 H 0.98428 0.28924 0.33207 0.0
C728 C 0.04403 0.24399 0.34169 0.0
C729 C 0.05044 0.22755 0.41382 0.0
C730 C 0.03066 0.24369 0.33787 0.0
C731 C 0.02336 0.22733 0.4065 0.0
C732 C 0.02983 0.21123 0.47883 0.0
C733 C 0.04316 0.21117 0.48226 0.0
C734 C 0.98865 0.19571 0.44525 0.0
C735 C 0.98195 0.2301 0.40642 0.0
C736 C 1.002 0.19426 0.4432 0.0
C737 C 1.00909 0.22755 0.40367 0.0
C738 C 1.0024 0.26154 0.36345 0.0
C739 C 0.98903 0.26257 0.36411 0.0
H740 H 0.98258 0.75522 0.74213 0.0
H741 H 0.98339 0.70352 0.48497 0.0
H742 H 1.00598 0.75861 0.74215 0.0
H743 H 1.00661 0.7059 0.48605 0.0
H744 H 0.04609 0.76716 0.4766 0.0
H745 H 0.02283 0.76476 0.48488 0.0
H746 H 0.02525 0.70832 0.73754 0.0
H747 H 0.04864 0.71119 0.72951 0.0
C748 C 0.98773 0.74432 0.68598 0.0
C749 C 0.98111 0.72886 0.61377 0.0
C750 C 1.00111 0.74599 0.68623 0.0
C751 C 1.0081 0.7327 0.61394 0.0
C752 C 1.00148 0.7168 0.54234 0.0
C753 C 0.98817 0.7149 0.54223 0.0
C754 C 0.04165 0.75464 0.53422 0.0
C755 C 0.04915 0.73931 0.60233 0.0
C756 C 0.02835 0.75291 0.5387 0.0
C757 C 0.02223 0.73608 0.61163 0.0
C758 C 0.02971 0.72159 0.68069 0.0
C759 C 0.04307 0.72291 0.67583 0.0
H760 H 0.54806 0.80098 0.99011 0.0
H761 H 0.54894 0.66342 0.93517 0.0
H762 H 0.52486 0.80023 0.98113 0.0
H763 H 0.52565 0.66268 0.92734 0.0
H764 H 0.4843 0.67176 0.03293 0.0
H765 H 0.50751 0.67053 0.02474 0.0
H766 H 0.50702 0.7907 0.8822 0.0
H767 H 0.48377 0.79159 0.88853 0.0
C768 C 0.54335 0.77068 0.97456 0.0
C769 C 0.55044 0.73224 0.96322 0.0
C770 C 0.53 0.77026 0.96965 0.0
C771 C 0.52338 0.73137 0.95366 0.0
C772 C 0.53045 0.69307 0.94094 0.0
C773 C 0.54381 0.69351 0.94546 0.0
C774 C 0.48907 0.69746 0.99806 0.0
C775 C 0.48206 0.73184 0.96161 0.0
C776 C 0.50243 0.69681 0.99367 0.0
C777 C 0.50914 0.73063 0.95321 0.0
C778 C 0.50216 0.76448 0.91503 0.0
C779 C 0.4888 0.76497 0.91881 0.0
H780 H 0.48316 0.17944 0.11839 0.0
H781 H 0.48425 0.31113 0.02326 0.0
H782 H 0.50645 0.17891 0.12675 0.0
H783 H 0.50742 0.3105 0.03041 0.0
H784 H 0.54872 0.31046 0.11306 0.0
H785 H 0.52545 0.3106 0.12186 0.0
H786 H 0.5247 0.17705 0.03666 0.0
H787 H 0.5479 0.17684 0.02905 0.0
C788 C 0.48836 0.20826 0.09928 0.0
C789 C 0.48181 0.24539 0.07065 0.0
C790 C 0.50173 0.20796 0.10382 0.0
C791 C 0.50888 0.24469 0.07934 0.0
C792 C 0.50228 0.28191 0.05154 0.0
C793 C 0.48895 0.28227 0.04739 0.0
C794 C 0.54358 0.28112 0.09649 0.0
C795 C 0.5502 0.24364 0.07055 0.0
C796 C 0.53022 0.28119 0.10128 0.0
C797 C 0.52314 0.24387 0.07971 0.0
C798 C 0.5298 0.20618 0.05524 0.0
C799 C 0.54314 0.20606 0.05084 0.0
loop_
_geom_bond_atom_site_label_1
_geom_bond_atom_site_label_2
_geom_bond_distance
_geom_bond_site_symmetry_2
_ccdc_geom_bond_type
Dy0 O3 2.307 . S
Dy0 O5 2.395 . S
Dy0 O6 2.379 . S
Dy0 O8 2.339 . S
Dy0 O10 2.298 . S
Dy0 O14 2.275 . S
Dy0 C22 2.738 . S
Dy1 O4 2.298 . S
Dy1 O7 2.275 . S
Dy1 O9 2.307 . S
Dy1 O11 2.395 . S
Dy1 O12 2.379 . S
Dy1 O15 2.339 . S
Dy1 C31 2.738 . S
C2 O14 1.254 . S
C2 O15 1.257 . S
O3 Dy0 2.307 . S
O3 C13 1.266 . S
O4 Dy1 2.298 . S
O4 C13 1.236 . S
O5 Dy0 2.395 . S
O5 C22 1.255 . S
O6 Dy0 2.379 . S
O6 C22 1.249 . S
O7 Dy1 2.275 . S
O7 C23 1.254 . S
O8 Dy0 2.339 . S
O8 C23 1.257 . S
O9 Dy1 2.307 . S
O9 C24 1.266 . S
O10 Dy0 2.298 . S
O10 C24 1.236 . S
O11 Dy1 2.395 . S
O11 C31 1.255 . S
O12 Dy1 2.379 . S
O12 C31 1.249 . S
C13 O3 1.266 . S
C13 O4 1.236 . S
O14 Dy0 2.275 . S
O14 C2 1.254 . S
O15 Dy1 2.339 . S
O15 C2 1.257 . S
C16 C19 1.344 . S
C16 C20 1.328 . S
C16 C22 1.516 . S
C17 C18 1.304 . S
C17 C21 1.323 . S
C18 C17 1.304 . S
C18 C19 1.371 . S
C18 H32 0.930 . S
C19 C16 1.344 . S
C19 C18 1.371 . S
C19 H33 0.931 . S
C20 C16 1.328 . S
C20 C21 1.433 . S
C20 H34 0.931 . S
C21 C17 1.323 . S
C21 C20 1.433 . S
C21 H35 0.933 . S
C22 Dy0 2.738 . S
C22 O5 1.255 . S
C22 O6 1.249 . S
C22 C16 1.516 . S
C23 O7 1.254 . S
C23 O8 1.257 . S
C24 O9 1.266 . S
C24 O10 1.236 . S
C25 C28 1.344 . S
C25 C29 1.328 . S
C25 C31 1.516 . S
C26 C27 1.304 . S
C26 C30 1.323 . S
C27 C26 1.304 . S
C27 C28 1.371 . S
C27 H36 0.930 . S
C28 C25 1.344 . S
C28 C27 1.371 . S
C28 H37 0.931 . S
C29 C25 1.328 . S
C29 C30 1.433 . S
C29 H38 0.931 . S
C30 C26 1.323 . S
C30 C29 1.433 . S
C30 H39 0.933 . S
C31 Dy1 2.738 . S
C31 O11 1.255 . S
C31 O12 1.249 . S
C31 C25 1.516 . S
H32 C18 0.930 . S
H33 C19 0.931 . S
H34 C20 0.931 . S
H35 C21 0.933 . S
H36 C27 0.930 . S
H37 C28 0.931 . S
H38 C29 0.931 . S
H39 C30 0.933 . S
Dy40 O43 2.307 . S
Dy40 O45 2.395 . S
Dy40 O46 2.379 . S
Dy40 O48 2.339 . S
Dy40 O50 2.298 . S
Dy40 O54 2.275 . S
Dy40 C62 2.738 . S
Dy41 O44 2.298 . S
Dy41 O47 2.275 . S
Dy41 O49 2.307 . S
Dy41 O51 2.395 . S
Dy41 O52 2.379 . S
Dy41 O55 2.339 . S
Dy41 C71 2.738 . S
C42 O54 1.254 . S
C42 O55 1.257 . S
O43 Dy40 2.307 . S
O43 C53 1.266 . S
O44 Dy41 2.298 . S
O44 C53 1.236 . S
O45 Dy40 2.395 . S
O45 C62 1.255 . S
O46 Dy40 2.379 . S
O46 C62 1.249 . S
O47 Dy41 2.275 . S
O47 C63 1.254 . S
O48 Dy40 2.339 . S
O48 C63 1.257 . S
O49 Dy41 2.307 . S
O49 C64 1.266 . S
O50 Dy40 2.298 . S
O50 C64 1.236 . S
O51 Dy41 2.395 . S
O51 C71 1.255 . S
O52 Dy41 2.379 . S
O52 C71 1.249 . S
C53 O43 1.266 . S
C53 O44 1.236 . S
O54 Dy40 2.275 . S
O54 C42 1.254 . S
O55 Dy41 2.339 . S
O55 C42 1.257 . S
C56 C59 1.344 . S
C56 C60 1.328 . S
C56 C62 1.516 . S
C57 C58 1.304 . S
C57 C61 1.323 . S
C58 C57 1.304 . S
C58 C59 1.371 . S
C58 H72 0.930 . S
C59 C56 1.344 . S
C59 C58 1.371 . S
C59 H73 0.931 . S
C60 C56 1.328 . S
C60 C61 1.433 . S
C60 H74 0.931 . S
C61 C57 1.323 . S
C61 C60 1.433 . S
C61 H75 0.933 . S
C62 Dy40 2.738 . S
C62 O45 1.255 . S
C62 O46 1.249 . S
C62 C56 1.516 . S
C63 O47 1.254 . S
C63 O48 1.257 . S
C64 O49 1.266 . S
C64 O50 1.236 . S
C65 C68 1.344 . S
C65 C69 1.328 . S
C65 C71 1.516 . S
C66 C67 1.304 . S
C66 C70 1.323 . S
C67 C66 1.304 . S
C67 C68 1.371 . S
C67 H76 0.930 . S
C68 C65 1.344 . S
C68 C67 1.371 . S
C68 H77 0.931 . S
C69 C65 1.328 . S
C69 C70 1.433 . S
C69 H78 0.931 . S
C70 C66 1.323 . S
C70 C69 1.433 . S
C70 H79 0.933 . S
C71 Dy41 2.738 . S
C71 O51 1.255 . S
C71 O52 1.249 . S
C71 C65 1.516 . S
H72 C58 0.930 . S
H73 C59 0.931 . S
H74 C60 0.931 . S
H75 C61 0.933 . S
H76 C67 0.930 . S
H77 C68 0.931 . S
H78 C69 0.931 . S
H79 C70 0.933 . S
Dy80 O83 2.307 . S
Dy80 O85 2.395 . S
Dy80 O86 2.379 . S
Dy80 O88 2.339 . S
Dy80 O90 2.298 . S
Dy80 O94 2.275 . S
Dy80 C102 2.738 . S
Dy81 O84 2.298 . S
Dy81 O87 2.275 . S
Dy81 O89 2.307 . S
Dy81 O91 2.395 . S
Dy81 O92 2.379 . S
Dy81 O95 2.339 . S
Dy81 C111 2.738 . S
C82 O94 1.254 . S
C82 O95 1.257 . S
O83 Dy80 2.307 . S
O83 C93 1.266 . S
O84 Dy81 2.298 . S
O84 C93 1.236 . S
O85 Dy80 2.395 . S
O85 C102 1.255 . S
O86 Dy80 2.379 . S
O86 C102 1.249 . S
O87 Dy81 2.275 . S
O87 C103 1.254 . S
O88 Dy80 2.339 . S
O88 C103 1.257 . S
O89 Dy81 2.307 . S
O89 C104 1.266 . S
O90 Dy80 2.298 . S
O90 C104 1.236 . S
O91 Dy81 2.395 . S
O91 C111 1.255 . S
O92 Dy81 2.379 . S
O92 C111 1.249 . S
C93 O83 1.266 . S
C93 O84 1.236 . S
O94 Dy80 2.275 . S
O94 C82 1.254 . S
O95 Dy81 2.339 . S
O95 C82 1.257 . S
C96 C99 1.344 . S
C96 C100 1.328 . S
C96 C102 1.516 . S
C97 C98 1.304 . S
C97 C101 1.323 . S
C98 C97 1.304 . S
C98 C99 1.371 . S
C98 H112 0.930 . S
C99 C96 1.344 . S
C99 C98 1.371 . S
C99 H113 0.931 . S
C100 C96 1.328 . S
C100 C101 1.433 . S
C100 H114 0.931 . S
C101 C97 1.323 . S
C101 C100 1.433 . S
C101 H115 0.933 . S
C102 Dy80 2.738 . S
C102 O85 1.255 . S
C102 O86 1.249 . S
C102 C96 1.516 . S
C103 O87 1.254 . S
C103 O88 1.257 . S
C104 O89 1.266 . S
C104 O90 1.236 . S
C105 C108 1.344 . S
C105 C109 1.328 . S
C105 C111 1.516 . S
C106 C107 1.304 . S
C106 C110 1.323 . S
C107 C106 1.304 . S
C107 C108 1.371 . S
C107 H116 0.930 . S
C108 C105 1.344 . S
C108 C107 1.371 . S
C108 H117 0.931 . S
C109 C105 1.328 . S
C109 C110 1.433 . S
C109 H118 0.931 . S
C110 C106 1.323 . S
C110 C109 1.433 . S
C110 H119 0.933 . S
C111 Dy81 2.738 . S
C111 O91 1.255 . S
C111 O92 1.249 . S
C111 C105 1.516 . S
H112 C98 0.930 . S
H113 C99 0.931 . S
H114 C100 0.931 . S
H115 C101 0.933 . S
H116 C107 0.930 . S
H117 C108 0.931 . S
H118 C109 0.931 . S
H119 C110 0.933 . S
Dy120 O123 2.307 . S
Dy120 O125 2.395 . S
Dy120 O126 2.379 . S
Dy120 O128 2.339 . S
Dy120 O130 2.298 . S
Dy120 O134 2.275 . S
Dy120 C142 2.738 . S
Dy121 O124 2.298 . S
Dy121 O127 2.275 . S
Dy121 O129 2.307 . S
Dy121 O131 2.395 . S
Dy121 O132 2.379 . S
Dy121 O135 2.339 . S
Dy121 C151 2.738 . S
C122 O134 1.254 . S
C122 O135 1.257 . S
O123 Dy120 2.307 . S
O123 C133 1.266 . S
O124 Dy121 2.298 . S
O124 C133 1.236 . S
O125 Dy120 2.395 . S
O125 C142 1.255 . S
O126 Dy120 2.379 . S
O126 C142 1.249 . S
O127 Dy121 2.275 . S
O127 C143 1.254 . S
O128 Dy120 2.339 . S
O128 C143 1.257 . S
O129 Dy121 2.307 . S
O129 C144 1.266 . S
O130 Dy120 2.298 . S
O130 C144 1.236 . S
O131 Dy121 2.395 . S
O131 C151 1.255 . S
O132 Dy121 2.379 . S
O132 C151 1.249 . S
C133 O123 1.266 . S
C133 O124 1.236 . S
O134 Dy120 2.275 . S
O134 C122 1.254 . S
O135 Dy121 2.339 . S
O135 C122 1.257 . S
C136 C139 1.344 . S
C136 C140 1.328 . S
C136 C142 1.516 . S
C137 C138 1.304 . S
C137 C141 1.323 . S
C138 C137 1.304 . S
C138 C139 1.371 . S
C138 H152 0.930 . S
C139 C136 1.344 . S
C139 C138 1.371 . S
C139 H153 0.931 . S
C140 C136 1.328 . S
C140 C141 1.433 . S
C140 H154 0.931 . S
C141 C137 1.323 . S
C141 C140 1.433 . S
C141 H155 0.933 . S
C142 Dy120 2.738 . S
C142 O125 1.255 . S
C142 O126 1.249 . S
C142 C136 1.516 . S
C143 O127 1.254 . S
C143 O128 1.257 . S
C144 O129 1.266 . S
C144 O130 1.236 . S
C145 C148 1.344 . S
C145 C149 1.328 . S
C145 C151 1.516 . S
C146 C147 1.304 . S
C146 C150 1.323 . S
C147 C146 1.304 . S
C147 C148 1.371 . S
C147 H156 0.930 . S
C148 C145 1.344 . S
C148 C147 1.371 . S
C148 H157 0.931 . S
C149 C145 1.328 . S
C149 C150 1.433 . S
C149 H158 0.931 . S
C150 C146 1.323 . S
C150 C149 1.433 . S
C150 H159 0.933 . S
C151 Dy121 2.738 . S
C151 O131 1.255 . S
C151 O132 1.249 . S
C151 C145 1.516 . S
H152 C138 0.930 . S
H153 C139 0.931 . S
H154 C140 0.931 . S
H155 C141 0.933 . S
H156 C147 0.930 . S
H157 C148 0.931 . S
H158 C149 0.931 . S
H159 C150 0.933 . S
Dy160 O163 2.307 . S
Dy160 O165 2.395 1_556 S
Dy160 O166 2.379 1_556 S
Dy160 O168 2.339 . S
Dy160 O170 2.298 1_556 S
Dy160 O174 2.275 . S
Dy160 C182 2.738 1_556 S
Dy161 O164 2.298 1_554 S
Dy161 O167 2.275 . S
Dy161 O169 2.307 . S
Dy161 O171 2.395 1_554 S
Dy161 O172 2.379 1_554 S
Dy161 O175 2.339 . S
Dy161 C191 2.738 1_554 S
C162 O174 1.254 1_554 S
C162 O175 1.257 . S
O163 Dy160 2.307 . S
O163 C173 1.266 . S
O164 Dy161 2.298 1_556 S
O164 C173 1.236 . S
O165 Dy160 2.395 1_554 S
O165 C182 1.255 . S
O166 Dy160 2.379 1_554 S
O166 C182 1.249 . S
O167 Dy161 2.275 . S
O167 C183 1.254 1_554 S
O168 Dy160 2.339 . S
O168 C183 1.257 . S
O169 Dy161 2.307 . S
O169 C184 1.266 . S
O170 Dy160 2.298 1_554 S
O170 C184 1.236 . S
O171 Dy161 2.395 1_556 S
O171 C191 1.255 . S
O172 Dy161 2.379 1_556 S
O172 C191 1.249 . S
C173 O163 1.266 . S
C173 O164 1.236 . S
O174 Dy160 2.275 . S
O174 C162 1.254 1_556 S
O175 Dy161 2.339 . S
O175 C162 1.257 . S
C176 C179 1.344 . S
C176 C180 1.328 . S
C176 C182 1.516 . S
C177 C178 1.304 . S
C177 C181 1.323 . S
C178 C177 1.304 . S
C178 C179 1.371 . S
C178 H192 0.930 . S
C179 C176 1.344 . S
C179 C178 1.371 . S
C179 H193 0.931 . S
C180 C176 1.328 . S
C180 C181 1.433 . S
C180 H194 0.931 . S
C181 C177 1.323 . S
C181 C180 1.433 . S
C181 H195 0.933 . S
C182 Dy160 2.738 1_554 S
C182 O165 1.255 . S
C182 O166 1.249 . S
C182 C176 1.516 . S
C183 O167 1.254 1_556 S
C183 O168 1.257 . S
C184 O169 1.266 . S
C184 O170 1.236 . S
C185 C188 1.344 . S
C185 C189 1.328 . S
C185 C191 1.516 . S
C186 C187 1.304 . S
C186 C190 1.323 . S
C187 C186 1.304 . S
C187 C188 1.371 . S
C187 H196 0.930 . S
C188 C185 1.344 . S
C188 C187 1.371 . S
C188 H197 0.931 . S
C189 C185 1.328 . S
C189 C190 1.433 . S
C189 H198 0.931 . S
C190 C186 1.323 . S
C190 C189 1.433 . S
C190 H199 0.933 . S
C191 Dy161 2.738 1_556 S
C191 O171 1.255 . S
C191 O172 1.249 . S
C191 C185 1.516 . S
H192 C178 0.930 . S
H193 C179 0.931 . S
H194 C180 0.931 . S
H195 C181 0.933 . S
H196 C187 0.930 . S
H197 C188 0.931 . S
H198 C189 0.931 . S
H199 C190 0.933 . S
Dy200 O203 2.307 . S
Dy200 O205 2.395 1_556 S
Dy200 O206 2.379 1_556 S
Dy200 O208 2.339 . S
Dy200 O210 2.298 1_556 S
Dy200 O214 2.275 . S
Dy200 C222 2.738 1_556 S
Dy201 O204 2.298 1_554 S
Dy201 O207 2.275 . S
Dy201 O209 2.307 . S
Dy201 O211 2.395 1_554 S
Dy201 O212 2.379 1_554 S
Dy201 O215 2.339 . S
Dy201 C231 2.738 1_554 S
C202 O214 1.254 1_554 S
C202 O215 1.257 . S
O203 Dy200 2.307 . S
O203 C213 1.266 . S
O204 Dy201 2.298 1_556 S
O204 C213 1.236 . S
O205 Dy200 2.395 1_554 S
O205 C222 1.255 . S
O206 Dy200 2.379 1_554 S
O206 C222 1.249 . S
O207 Dy201 2.275 . S
O207 C223 1.254 1_554 S
O208 Dy200 2.339 . S
O208 C223 1.257 . S
O209 Dy201 2.307 . S
O209 C224 1.266 . S
O210 Dy200 2.298 1_554 S
O210 C224 1.236 . S
O211 Dy201 2.395 1_556 S
O211 C231 1.255 . S
O212 Dy201 2.379 1_556 S
O212 C231 1.249 . S
C213 O203 1.266 . S
C213 O204 1.236 . S
O214 Dy200 2.275 . S
O214 C202 1.254 1_556 S
O215 Dy201 2.339 . S
O215 C202 1.257 . S
C216 C219 1.344 . S
C216 C220 1.328 . S
C216 C222 1.516 . S
C217 C218 1.304 . S
C217 C221 1.323 . S
C218 C217 1.304 . S
C218 C219 1.371 . S
C218 H232 0.930 . S
C219 C216 1.344 . S
C219 C218 1.371 . S
C219 H233 0.931 . S
C220 C216 1.328 . S
C220 C221 1.433 . S
C220 H234 0.931 . S
C221 C217 1.323 . S
C221 C220 1.433 . S
C221 H235 0.933 . S
C222 Dy200 2.738 1_554 S
C222 O205 1.255 . S
C222 O206 1.249 . S
C222 C216 1.516 . S
C223 O207 1.254 1_556 S
C223 O208 1.257 . S
C224 O209 1.266 . S
C224 O210 1.236 . S
C225 C228 1.344 . S
C225 C229 1.328 . S
C225 C231 1.516 . S
C226 C227 1.304 . S
C226 C230 1.323 . S
C227 C226 1.304 . S
C227 C228 1.371 . S
C227 H236 0.930 . S
C228 C225 1.344 . S
C228 C227 1.371 . S
C228 H237 0.931 . S
C229 C225 1.328 . S
C229 C230 1.433 . S
C229 H238 0.931 . S
C230 C226 1.323 . S
C230 C229 1.433 . S
C230 H239 0.933 . S
C231 Dy201 2.738 1_556 S
C231 O211 1.255 . S
C231 O212 1.249 . S
C231 C225 1.516 . S
H232 C218 0.930 . S
H233 C219 0.931 . S
H234 C220 0.931 . S
H235 C221 0.933 . S
H236 C227 0.930 . S
H237 C228 0.931 . S
H238 C229 0.931 . S
H239 C230 0.933 . S
Dy240 O243 2.307 . S
Dy240 O245 2.395 1_554 S
Dy240 O246 2.379 1_554 S
Dy240 O248 2.339 . S
Dy240 O250 2.298 1_554 S
Dy240 O254 2.275 . S
Dy240 C262 2.738 1_554 S
Dy241 O244 2.298 1_556 S
Dy241 O247 2.275 . S
Dy241 O249 2.307 . S
Dy241 O251 2.395 1_556 S
Dy241 O252 2.379 1_556 S
Dy241 O255 2.339 . S
Dy241 C271 2.738 1_556 S
C242 O254 1.254 1_556 S
C242 O255 1.257 . S
O243 Dy240 2.307 . S
O243 C253 1.266 . S
O244 Dy241 2.298 1_554 S
O244 C253 1.236 . S
O245 Dy240 2.395 1_556 S
O245 C262 1.255 . S
O246 Dy240 2.379 1_556 S
O246 C262 1.249 . S
O247 Dy241 2.275 . S
O247 C263 1.254 1_556 S
O248 Dy240 2.339 . S
O248 C263 1.257 . S
O249 Dy241 2.307 . S
O249 C264 1.266 . S
O250 Dy240 2.298 1_556 S
O250 C264 1.236 . S
O251 Dy241 2.395 1_554 S
O251 C271 1.255 . S
O252 Dy241 2.379 1_554 S
O252 C271 1.249 . S
C253 O243 1.266 . S
C253 O244 1.236 . S
O254 Dy240 2.275 . S
O254 C242 1.254 1_554 S
O255 Dy241 2.339 . S
O255 C242 1.257 . S
C256 C259 1.344 . S
C256 C260 1.328 . S
C256 C262 1.516 . S
C257 C258 1.304 . S
C257 C261 1.323 . S
C258 C257 1.304 . S
C258 C259 1.371 . S
C258 H272 0.930 . S
C259 C256 1.344 . S
C259 C258 1.371 . S
C259 H273 0.931 . S
C260 C256 1.328 . S
C260 C261 1.433 . S
C260 H274 0.931 . S
C261 C257 1.323 . S
C261 C260 1.433 . S
C261 H275 0.933 . S
C262 Dy240 2.738 1_556 S
C262 O245 1.255 . S
C262 O246 1.249 . S
C262 C256 1.516 . S
C263 O247 1.254 1_554 S
C263 O248 1.257 . S
C264 O249 1.266 . S
C264 O250 1.236 . S
C265 C268 1.344 . S
C265 C269 1.328 . S
C265 C271 1.516 . S
C266 C267 1.304 . S
C266 C270 1.323 . S
C267 C266 1.304 . S
C267 C268 1.371 . S
C267 H276 0.930 . S
C268 C265 1.344 . S
C268 C267 1.371 . S
C268 H277 0.931 . S
C269 C265 1.328 . S
C269 C270 1.433 . S
C269 H278 0.931 . S
C270 C266 1.323 . S
C270 C269 1.433 . S
C270 H279 0.933 . S
C271 Dy241 2.738 1_554 S
C271 O251 1.255 . S
C271 O252 1.249 . S
C271 C265 1.516 . S
H272 C258 0.930 . S
H273 C259 0.931 . S
H274 C260 0.931 . S
H275 C261 0.933 . S
H276 C267 0.930 . S
H277 C268 0.931 . S
H278 C269 0.931 . S
H279 C270 0.933 . S
Dy280 O283 2.307 . S
Dy280 O285 2.395 1_554 S
Dy280 O286 2.379 1_554 S
Dy280 O288 2.339 . S
Dy280 O290 2.298 1_554 S
Dy280 O294 2.275 . S
Dy280 C302 2.738 1_554 S
Dy281 O284 2.298 1_556 S
Dy281 O287 2.275 . S
Dy281 O289 2.307 . S
Dy281 O291 2.395 1_556 S
Dy281 O292 2.379 1_556 S
Dy281 O295 2.339 . S
Dy281 C311 2.738 1_556 S
C282 O294 1.254 1_556 S
C282 O295 1.257 . S
O283 Dy280 2.307 . S
O283 C293 1.266 . S
O284 Dy281 2.298 1_554 S
O284 C293 1.236 . S
O285 Dy280 2.395 1_556 S
O285 C302 1.255 . S
O286 Dy280 2.379 1_556 S
O286 C302 1.249 . S
O287 Dy281 2.275 . S
O287 C303 1.254 1_556 S
O288 Dy280 2.339 . S
O288 C303 1.257 . S
O289 Dy281 2.307 . S
O289 C304 1.266 . S
O290 Dy280 2.298 1_556 S
O290 C304 1.236 . S
O291 Dy281 2.395 1_554 S
O291 C311 1.255 . S
O292 Dy281 2.379 1_554 S
O292 C311 1.249 . S
C293 O283 1.266 . S
C293 O284 1.236 . S
O294 Dy280 2.275 . S
O294 C282 1.254 1_554 S
O295 Dy281 2.339 . S
O295 C282 1.257 . S
C296 C299 1.344 . S
C296 C300 1.328 . S
C296 C302 1.516 . S
C297 C298 1.304 . S
C297 C301 1.323 . S
C298 C297 1.304 . S
C298 C299 1.371 . S
C298 H312 0.930 . S
C299 C296 1.344 . S
C299 C298 1.371 . S
C299 H313 0.931 . S
C300 C296 1.328 . S
C300 C301 1.433 . S
C300 H314 0.931 . S
C301 C297 1.323 . S
C301 C300 1.433 . S
C301 H315 0.933 . S
C302 Dy280 2.738 1_556 S
C302 O285 1.255 . S
C302 O286 1.249 . S
C302 C296 1.516 . S
C303 O287 1.254 1_554 S
C303 O288 1.257 . S
C304 O289 1.266 . S
C304 O290 1.236 . S
C305 C308 1.344 . S
C305 C309 1.328 . S
C305 C311 1.516 . S
C306 C307 1.304 . S
C306 C310 1.323 . S
C307 C306 1.304 . S
C307 C308 1.371 . S
C307 H316 0.930 . S
C308 C305 1.344 . S
C308 C307 1.371 . S
C308 H317 0.931 . S
C309 C305 1.328 . S
C309 C310 1.433 . S
C309 H318 0.931 . S
C310 C306 1.323 . S
C310 C309 1.433 . S
C310 H319 0.933 . S
C311 Dy281 2.738 1_554 S
C311 O291 1.255 . S
C311 O292 1.249 . S
C311 C305 1.516 . S
H312 C298 0.930 . S
H313 C299 0.931 . S
H314 C300 0.931 . S
H315 C301 0.933 . S
H316 C307 0.930 . S
H317 C308 0.931 . S
H318 C309 0.931 . S
H319 C310 0.933 . S
H320 C328 0.950 . S
H321 C333 0.950 . S
H322 C330 0.950 . S
H323 C332 0.950 . S
H324 C334 0.950 . S
H325 C336 0.950 . S
H326 C338 0.950 . S
H327 C339 0.950 . S
C328 H320 0.950 . S
C328 C329 1.386 . S
C328 C330 1.391 . S
C329 C328 1.386 . S
C329 C333 1.393 . S
C330 H322 0.950 . S
C330 C328 1.391 . S
C330 C331 1.400 . S
C331 C330 1.400 . S
C331 C332 1.398 . S
C331 C337 1.491 . S
C332 H323 0.950 . S
C332 C331 1.398 . S
C332 C333 1.391 . S
C333 H321 0.950 . S
C333 C329 1.393 . S
C333 C332 1.391 . S
C334 H324 0.950 . S
C334 C335 1.386 . S
C334 C336 1.391 . S
C335 C334 1.386 . S
C335 C339 1.393 . S
C336 H325 0.950 . S
C336 C334 1.391 . S
C336 C337 1.400 . S
C337 C331 1.491 . S
C337 C336 1.400 . S
C337 C338 1.398 . S
C338 H326 0.950 . S
C338 C337 1.398 . S
C338 C339 1.391 . S
C339 H327 0.950 . S
C339 C335 1.393 . S
C339 C338 1.391 . S
H340 C348 0.950 . S
H341 C353 0.950 . S
H342 C350 0.950 . S
H343 C352 0.950 . S
H344 C354 0.950 . S
H345 C356 0.950 . S
H346 C358 0.950 . S
H347 C359 0.950 . S
C348 H340 0.950 . S
C348 C349 1.386 . S
C348 C350 1.391 . S
C349 C348 1.386 . S
C349 C353 1.393 . S
C350 H342 0.950 . S
C350 C348 1.391 . S
C350 C351 1.400 . S
C351 C350 1.400 . S
C351 C352 1.398 . S
C351 C357 1.491 . S
C352 H343 0.950 . S
C352 C351 1.398 . S
C352 C353 1.391 . S
C353 H341 0.950 . S
C353 C349 1.393 . S
C353 C352 1.391 . S
C354 H344 0.950 . S
C354 C355 1.386 . S
C354 C356 1.391 . S
C355 C354 1.386 . S
C355 C359 1.393 . S
C356 H345 0.950 . S
C356 C354 1.391 . S
C356 C357 1.400 . S
C357 C351 1.491 . S
C357 C356 1.400 . S
C357 C358 1.398 . S
C358 H346 0.950 . S
C358 C357 1.398 . S
C358 C359 1.391 . S
C359 H347 0.950 . S
C359 C355 1.393 . S
C359 C358 1.391 . S
H360 C368 0.950 . S
H361 C373 0.950 . S
H362 C370 0.950 . S
H363 C372 0.950 . S
H364 C374 0.950 . S
H365 C376 0.950 . S
H366 C378 0.950 . S
H367 C379 0.950 . S
C368 H360 0.950 . S
C368 C369 1.386 . S
C368 C370 1.391 . S
C369 C368 1.386 . S
C369 C373 1.393 . S
C370 H362 0.950 . S
C370 C368 1.391 . S
C370 C371 1.400 . S
C371 C370 1.400 . S
C371 C372 1.398 . S
C371 C377 1.491 . S
C372 H363 0.950 . S
C372 C371 1.398 . S
C372 C373 1.391 . S
C373 H361 0.950 . S
C373 C369 1.393 . S
C373 C372 1.391 . S
C374 H364 0.950 . S
C374 C375 1.386 . S
C374 C376 1.391 . S
C375 C374 1.386 . S
C375 C379 1.393 . S
C376 H365 0.950 . S
C376 C374 1.391 . S
C376 C377 1.400 . S
C377 C371 1.491 . S
C377 C376 1.400 . S
C377 C378 1.398 . S
C378 H366 0.950 . S
C378 C377 1.398 . S
C378 C379 1.391 . S
C379 H367 0.950 . S
C379 C375 1.393 . S
C379 C378 1.391 . S
H380 C388 0.950 . S
H381 C393 0.950 . S
H382 C390 0.950 . S
H383 C392 0.950 . S
H384 C394 0.950 . S
H385 C396 0.950 . S
H386 C398 0.950 . S
H387 C399 0.950 . S
C388 H380 0.950 . S
C388 C389 1.386 . S
C388 C390 1.391 . S
C389 C388 1.386 . S
C389 C393 1.393 . S
C390 H382 0.950 . S
C390 C388 1.391 . S
C390 C391 1.400 . S
C391 C390 1.400 . S
C391 C392 1.398 . S
C391 C397 1.491 . S
C392 H383 0.950 . S
C392 C391 1.398 . S
C392 C393 1.391 . S
C393 H381 0.950 . S
C393 C389 1.393 . S
C393 C392 1.391 . S
C394 H384 0.950 . S
C394 C395 1.386 . S
C394 C396 1.391 . S
C395 C394 1.386 . S
C395 C399 1.393 . S
C396 H385 0.950 . S
C396 C394 1.391 . S
C396 C397 1.400 . S
C397 C391 1.491 . S
C397 C396 1.400 . S
C397 C398 1.398 . S
C398 H386 0.950 . S
C398 C397 1.398 . S
C398 C399 1.391 . S
C399 H387 0.950 . S
C399 C395 1.393 . S
C399 C398 1.391 . S
H400 C408 0.950 . S
H401 C413 0.950 . S
H402 C410 0.950 . S
H403 C412 0.950 . S
H404 C414 0.950 . S
H405 C416 0.950 . S
H406 C418 0.950 . S
H407 C419 0.950 . S
C408 H400 0.950 . S
C408 C409 1.386 . S
C408 C410 1.391 . S
C409 C408 1.386 . S
C409 C413 1.393 . S
C410 H402 0.950 . S
C410 C408 1.391 . S
C410 C411 1.400 . S
C411 C410 1.400 . S
C411 C412 1.398 . S
C411 C417 1.491 1_565 S
C412 H403 0.950 . S
C412 C411 1.398 . S
C412 C413 1.391 . S
C413 H401 0.950 . S
C413 C409 1.393 . S
C413 C412 1.391 . S
C414 H404 0.950 . S
C414 C415 1.386 . S
C414 C416 1.391 . S
C415 C414 1.386 . S
C415 C419 1.393 . S
C416 H405 0.950 . S
C416 C414 1.391 . S
C416 C417 1.400 . S
C417 C411 1.491 1_545 S
C417 C416 1.400 . S
C417 C418 1.398 . S
C418 H406 0.950 . S
C418 C417 1.398 . S
C418 C419 1.391 . S
C419 H407 0.950 . S
C419 C415 1.393 . S
C419 C418 1.391 . S
H420 C428 0.950 . S
H421 C433 0.950 . S
H422 C430 0.950 . S
H423 C432 0.950 . S
H424 C434 0.950 . S
H425 C436 0.950 . S
H426 C438 0.950 . S
H427 C439 0.950 . S
C428 H420 0.950 . S
C428 C429 1.386 . S
C428 C430 1.391 . S
C429 C428 1.386 . S
C429 C433 1.393 . S
C430 H422 0.950 . S
C430 C428 1.391 . S
C430 C431 1.400 . S
C431 C430 1.400 . S
C431 C432 1.398 . S
C431 C437 1.491 . S
C432 H423 0.950 . S
C432 C431 1.398 . S
C432 C433 1.391 . S
C433 H421 0.950 . S
C433 C429 1.393 . S
C433 C432 1.391 . S
C434 H424 0.950 . S
C434 C435 1.386 . S
C434 C436 1.391 . S
C435 C434 1.386 . S
C435 C439 1.393 . S
C436 H425 0.950 . S
C436 C434 1.391 . S
C436 C437 1.400 . S
C437 C431 1.491 . S
C437 C436 1.400 . S
C437 C438 1.398 . S
C438 H426 0.950 . S
C438 C437 1.398 . S
C438 C439 1.391 . S
C439 H427 0.950 . S
C439 C435 1.393 . S
C439 C438 1.391 . S
H440 C448 0.950 . S
H441 C453 0.950 . S
H442 C450 0.950 . S
H443 C452 0.950 . S
H444 C454 0.950 . S
H445 C456 0.950 . S
H446 C458 0.950 . S
H447 C459 0.950 . S
C448 H440 0.950 . S
C448 C449 1.386 . S
C448 C450 1.391 . S
C449 C448 1.386 . S
C449 C453 1.393 . S
C450 H442 0.950 . S
C450 C448 1.391 . S
C450 C451 1.400 . S
C451 C450 1.400 . S
C451 C452 1.398 . S
C451 C457 1.491 1_565 S
C452 H443 0.950 . S
C452 C451 1.398 . S
C452 C453 1.391 . S
C453 H441 0.950 . S
C453 C449 1.393 . S
C453 C452 1.391 . S
C454 H444 0.950 . S
C454 C455 1.386 . S
C454 C456 1.391 . S
C455 C454 1.386 . S
C455 C459 1.393 . S
C456 H445 0.950 . S
C456 C454 1.391 . S
C456 C457 1.400 . S
C457 C451 1.491 1_545 S
C457 C456 1.400 . S
C457 C458 1.398 . S
C458 H446 0.950 . S
C458 C457 1.398 . S
C458 C459 1.391 . S
C459 H447 0.950 . S
C459 C455 1.393 . S
C459 C458 1.391 . S
H460 C468 0.950 . S
H461 C473 0.950 . S
H462 C470 0.950 . S
H463 C472 0.950 . S
H464 C474 0.950 . S
H465 C476 0.950 . S
H466 C478 0.950 . S
H467 C479 0.950 . S
C468 H460 0.950 . S
C468 C469 1.386 . S
C468 C470 1.391 . S
C469 C468 1.386 . S
C469 C473 1.393 . S
C470 H462 0.950 . S
C470 C468 1.391 . S
C470 C471 1.400 . S
C471 C470 1.400 . S
C471 C472 1.398 . S
C471 C477 1.491 . S
C472 H463 0.950 . S
C472 C471 1.398 . S
C472 C473 1.391 . S
C473 H461 0.950 . S
C473 C469 1.393 . S
C473 C472 1.391 . S
C474 H464 0.950 . S
C474 C475 1.386 . S
C474 C476 1.391 . S
C475 C474 1.386 . S
C475 C479 1.393 . S
C476 H465 0.950 . S
C476 C474 1.391 . S
C476 C477 1.400 . S
C477 C471 1.491 . S
C477 C476 1.400 . S
C477 C478 1.398 . S
C478 H466 0.950 . S
C478 C477 1.398 . S
C478 C479 1.391 . S
C479 H467 0.950 . S
C479 C475 1.393 . S
C479 C478 1.391 . S
H480 C488 0.950 . S
H481 C493 0.950 . S
H482 C490 0.950 . S
H483 C492 0.950 . S
H484 C494 0.950 . S
H485 C496 0.950 . S
H486 C498 0.950 . S
H487 C499 0.950 . S
C488 H480 0.950 . S
C488 C489 1.386 1_556 S
C488 C490 1.391 . S
C489 C488 1.386 1_554 S
C489 C493 1.393 . S
C490 H482 0.950 . S
C490 C488 1.391 . S
C490 C491 1.400 1_556 S
C491 C490 1.400 1_554 S
C491 C492 1.398 . S
C491 C497 1.491 1_554 S
C492 H483 0.950 . S
C492 C491 1.398 . S
C492 C493 1.391 . S
C493 H481 0.950 . S
C493 C489 1.393 . S
C493 C492 1.391 . S
C494 H484 0.950 . S
C494 C495 1.386 1_554 S
C494 C496 1.391 . S
C495 C494 1.386 1_556 S
C495 C499 1.393 . S
C496 H485 0.950 . S
C496 C494 1.391 . S
C496 C497 1.400 1_554 S
C497 C491 1.491 1_556 S
C497 C496 1.400 1_556 S
C497 C498 1.398 . S
C498 H486 0.950 . S
C498 C497 1.398 . S
C498 C499 1.391 . S
C499 H487 0.950 . S
C499 C495 1.393 . S
C499 C498 1.391 . S
H500 C508 0.950 . S
H501 C513 0.950 . S
H502 C510 0.950 . S
H503 C512 0.950 . S
H504 C514 0.950 . S
H505 C516 0.950 . S
H506 C518 0.950 . S
H507 C519 0.950 . S
C508 H500 0.950 . S
C508 C509 1.386 . S
C508 C510 1.391 . S
C509 C508 1.386 . S
C509 C513 1.393 1_554 S
C510 H502 0.950 . S
C510 C508 1.391 . S
C510 C511 1.400 . S
C511 C510 1.400 . S
C511 C512 1.398 1_554 S
C511 C517 1.491 1_564 S
C512 H503 0.950 . S
C512 C511 1.398 1_556 S
C512 C513 1.391 . S
C513 H501 0.950 . S
C513 C509 1.393 1_556 S
C513 C512 1.391 . S
C514 H504 0.950 . S
C514 C515 1.386 . S
C514 C516 1.391 . S
C515 C514 1.386 . S
C515 C519 1.393 1_556 S
C516 H505 0.950 . S
C516 C514 1.391 . S
C516 C517 1.400 . S
C517 C511 1.491 1_546 S
C517 C516 1.400 . S
C517 C518 1.398 1_556 S
C518 H506 0.950 . S
C518 C517 1.398 1_554 S
C518 C519 1.391 . S
C519 H507 0.950 . S
C519 C515 1.393 1_554 S
C519 C518 1.391 . S
H520 C528 0.950 . S
H521 C533 0.950 . S
H522 C530 0.950 . S
H523 C532 0.950 . S
H524 C534 0.950 . S
H525 C536 0.950 . S
H526 C538 0.950 . S
H527 C539 0.950 . S
C528 H520 0.950 . S
C528 C529 1.386 . S
C528 C530 1.391 . S
C529 C528 1.386 . S
C529 C533 1.393 1_554 S
C530 H522 0.950 . S
C530 C528 1.391 . S
C530 C531 1.400 . S
C531 C530 1.400 . S
C531 C532 1.398 1_554 S
C531 C537 1.491 1_554 S
C532 H523 0.950 . S
C532 C531 1.398 1_556 S
C532 C533 1.391 . S
C533 H521 0.950 . S
C533 C529 1.393 1_556 S
C533 C532 1.391 . S
C534 H524 0.950 . S
C534 C535 1.386 . S
C534 C536 1.391 . S
C535 C534 1.386 . S
C535 C539 1.393 1_556 S
C536 H525 0.950 . S
C536 C534 1.391 . S
C536 C537 1.400 . S
C537 C531 1.491 1_556 S
C537 C536 1.400 . S
C537 C538 1.398 1_556 S
C538 H526 0.950 . S
C538 C537 1.398 1_554 S
C538 C539 1.391 . S
C539 H527 0.950 . S
C539 C535 1.393 1_554 S
C539 C538 1.391 . S
H540 C548 0.950 . S
H541 C553 0.950 . S
H542 C550 0.950 . S
H543 C552 0.950 . S
H544 C554 0.950 . S
H545 C556 0.950 . S
H546 C558 0.950 . S
H547 C559 0.950 . S
C548 H540 0.950 . S
C548 C549 1.386 . S
C548 C550 1.391 . S
C549 C548 1.386 . S
C549 C553 1.393 1_554 S
C550 H542 0.950 . S
C550 C548 1.391 . S
C550 C551 1.407 . S
C551 C550 1.407 . S
C551 C552 1.392 1_554 S
C551 C557 1.490 1_544 S
C552 H543 0.950 . S
C552 C551 1.392 1_556 S
C552 C553 1.391 . S
C553 H541 0.950 . S
C553 C549 1.393 1_556 S
C553 C552 1.391 . S
C554 H544 0.950 . S
C554 C555 1.386 . S
C554 C556 1.391 . S
C555 C554 1.386 . S
C555 C559 1.393 1_556 S
C556 H545 0.950 . S
C556 C554 1.391 . S
C556 C557 1.409 . S
C557 C551 1.490 1_566 S
C557 C556 1.409 . S
C557 C558 1.390 1_556 S
C558 H546 0.950 . S
C558 C557 1.390 1_554 S
C558 C559 1.391 . S
C559 H547 0.950 . S
C559 C555 1.393 1_554 S
C559 C558 1.391 . S
H560 C568 0.950 . S
H561 C573 0.950 . S
H562 C570 0.950 . S
H563 C572 0.950 . S
H564 C574 0.950 . S
H565 C576 0.950 . S
H566 C578 0.950 . S
H567 C579 0.950 . S
C568 H560 0.950 . S
C568 C569 1.386 . S
C568 C570 1.391 . S
C569 C568 1.386 . S
C569 C573 1.393 . S
C570 H562 0.950 . S
C570 C568 1.391 . S
C570 C571 1.400 1_554 S
C571 C570 1.400 1_556 S
C571 C572 1.398 1_556 S
C571 C577 1.491 . S
C572 H563 0.950 . S
C572 C571 1.398 1_554 S
C572 C573 1.391 . S
C573 H561 0.950 . S
C573 C569 1.393 . S
C573 C572 1.391 . S
C574 H564 0.950 . S
C574 C575 1.386 . S
C574 C576 1.391 . S
C575 C574 1.386 . S
C575 C579 1.393 . S
C576 H565 0.950 . S
C576 C574 1.391 . S
C576 C577 1.400 . S
C577 C571 1.491 . S
C577 C576 1.400 . S
C577 C578 1.398 . S
C578 H566 0.950 . S
C578 C577 1.398 . S
C578 C579 1.391 . S
C579 H567 0.950 . S
C579 C575 1.393 . S
C579 C578 1.391 . S
H580 C588 0.950 . S
H581 C593 0.950 . S
H582 C590 0.950 . S
H583 C592 0.950 1_556 S
H584 C594 0.950 . S
H585 C596 0.950 . S
H586 C598 0.950 . S
H587 C599 0.950 . S
C588 H580 0.950 . S
C588 C589 1.386 . S
C588 C590 1.391 . S
C589 C588 1.386 . S
C589 C593 1.393 . S
C590 H582 0.950 . S
C590 C588 1.391 . S
C590 C591 1.400 1_554 S
C591 C590 1.400 1_556 S
C591 C592 1.398 1_556 S
C591 C597 1.491 . S
C592 H583 0.950 1_554 S
C592 C591 1.398 1_554 S
C592 C593 1.391 . S
C593 H581 0.950 . S
C593 C589 1.393 . S
C593 C592 1.391 . S
C594 H584 0.950 . S
C594 C595 1.386 . S
C594 C596 1.391 . S
C595 C594 1.386 . S
C595 C599 1.393 . S
C596 H585 0.950 . S
C596 C594 1.391 . S
C596 C597 1.400 . S
C597 C591 1.491 . S
C597 C596 1.400 . S
C597 C598 1.398 . S
C598 H586 0.950 . S
C598 C597 1.398 . S
C598 C599 1.391 . S
C599 H587 0.950 . S
C599 C595 1.393 . S
C599 C598 1.391 . S
H600 C608 0.950 . S
H601 C613 0.950 . S
H602 C610 0.950 . S
H603 C612 0.950 . S
H604 C614 0.950 . S
H605 C616 0.950 . S
H606 C618 0.950 . S
H607 C619 0.950 . S
C608 H600 0.950 . S
C608 C609 1.386 . S
C608 C610 1.391 . S
C609 C608 1.386 . S
C609 C613 1.393 . S
C610 H602 0.950 . S
C610 C608 1.391 . S
C610 C611 1.400 . S
C611 C610 1.400 . S
C611 C612 1.398 . S
C611 C617 1.504 . S
C612 H603 0.950 . S
C612 C611 1.398 . S
C612 C613 1.391 . S
C613 H601 0.950 . S
C613 C609 1.393 . S
C613 C612 1.391 . S
C614 H604 0.950 . S
C614 C615 1.386 . S
C614 C616 1.391 . S
C615 C614 1.386 . S
C615 C619 1.393 . S
C616 H605 0.950 . S
C616 C614 1.391 . S
C616 C617 1.392 1_556 S
C617 C611 1.504 . S
C617 C616 1.392 1_554 S
C617 C618 1.392 1_554 S
C618 H606 0.950 . S
C618 C617 1.392 1_556 S
C618 C619 1.391 . S
C619 H607 0.950 . S
C619 C615 1.393 . S
C619 C618 1.391 . S
H620 C628 0.950 . S
H621 C633 0.950 . S
H622 C630 0.950 . S
H623 C632 0.950 . S
H624 C634 0.950 . S
H625 C636 0.950 . S
H626 C638 0.950 . S
H627 C639 0.950 . S
C628 H620 0.950 . S
C628 C629 1.386 . S
C628 C630 1.391 . S
C629 C628 1.386 . S
C629 C633 1.393 . S
C630 H622 0.950 . S
C630 C628 1.391 . S
C630 C631 1.394 1_556 S
C631 C630 1.394 1_554 S
C631 C632 1.391 1_554 S
C631 C637 1.504 . S
C632 H623 0.950 . S
C632 C631 1.391 1_556 S
C632 C633 1.391 . S
C633 H621 0.950 . S
C633 C629 1.393 . S
C633 C632 1.391 . S
C634 H624 0.950 . S
C634 C635 1.386 . S
C634 C636 1.391 . S
C635 C634 1.386 . S
C635 C639 1.393 . S
C636 H625 0.950 . S
C636 C634 1.391 . S
C636 C637 1.400 . S
C637 C631 1.504 . S
C637 C636 1.400 . S
C637 C638 1.398 . S
C638 H626 0.950 . S
C638 C637 1.398 . S
C638 C639 1.391 . S
C639 H627 0.950 . S
C639 C635 1.393 . S
C639 C638 1.391 . S
H640 C648 0.950 . S
H641 C653 0.950 . S
H642 C650 0.950 . S
H643 C652 0.950 . S
H644 C654 0.950 . S
H645 C656 0.950 . S
H646 C658 0.950 . S
H647 C659 0.950 . S
C648 H640 0.950 . S
C648 C649 1.386 . S
C648 C650 1.391 . S
C649 C648 1.386 . S
C649 C653 1.393 . S
C650 H642 0.950 . S
C650 C648 1.391 . S
C650 C651 1.400 . S
C651 C650 1.400 . S
C651 C652 1.398 . S
C651 C657 1.491 . S
C652 H643 0.950 . S
C652 C651 1.398 . S
C652 C653 1.391 . S
C653 H641 0.950 . S
C653 C649 1.393 . S
C653 C652 1.391 . S
C654 H644 0.950 . S
C654 C655 1.386 . S
C654 C656 1.391 . S
C655 C654 1.386 . S
C655 C659 1.393 . S
C656 H645 0.950 . S
C656 C654 1.391 . S
C656 C657 1.400 . S
C657 C651 1.491 . S
C657 C656 1.400 . S
C657 C658 1.398 . S
C658 H646 0.950 . S
C658 C657 1.398 . S
C658 C659 1.391 . S
C659 H647 0.950 . S
C659 C655 1.393 . S
C659 C658 1.391 . S
H660 C668 0.950 . S
H661 C673 0.950 . S
H662 C670 0.950 . S
H663 C672 0.950 . S
H664 C674 0.950 . S
H665 C676 0.950 . S
H666 C678 0.950 . S
H667 C679 0.950 . S
C668 H660 0.950 . S
C668 C669 1.386 . S
C668 C670 1.391 . S
C669 C668 1.386 . S
C669 C673 1.393 . S
C670 H662 0.950 . S
C670 C668 1.391 . S
C670 C671 1.400 . S
C671 C670 1.400 . S
C671 C672 1.398 . S
C671 C677 1.491 . S
C672 H663 0.950 . S
C672 C671 1.398 . S
C672 C673 1.391 . S
C673 H661 0.950 . S
C673 C669 1.393 . S
C673 C672 1.391 . S
C674 H664 0.950 . S
C674 C675 1.386 . S
C674 C676 1.391 . S
C675 C674 1.386 . S
C675 C679 1.393 . S
C676 H665 0.950 . S
C676 C674 1.391 . S
C676 C677 1.400 . S
C677 C671 1.491 . S
C677 C676 1.400 . S
C677 C678 1.398 . S
C678 H666 0.950 . S
C678 C677 1.398 . S
C678 C679 1.391 . S
C679 H667 0.950 . S
C679 C675 1.393 . S
C679 C678 1.391 . S
H680 C688 0.950 . S
H681 C693 0.950 . S
H682 C690 0.950 . S
H683 C692 0.950 . S
H684 C694 0.950 . S
H685 C696 0.950 . S
H686 C698 0.950 . S
H687 C699 0.950 . S
C688 H680 0.950 . S
C688 C689 1.386 . S
C688 C690 1.391 . S
C689 C688 1.386 . S
C689 C693 1.393 . S
C690 H682 0.950 . S
C690 C688 1.391 . S
C690 C691 1.400 . S
C691 C690 1.400 . S
C691 C692 1.398 . S
C691 C697 1.491 . S
C692 H683 0.950 . S
C692 C691 1.398 . S
C692 C693 1.391 . S
C693 H681 0.950 . S
C693 C689 1.393 . S
C693 C692 1.391 . S
C694 H684 0.950 . S
C694 C695 1.386 . S
C694 C696 1.391 . S
C695 C694 1.386 . S
C695 C699 1.393 . S
C696 H685 0.950 . S
C696 C694 1.391 . S
C696 C697 1.400 . S
C697 C691 1.491 . S
C697 C696 1.400 . S
C697 C698 1.398 . S
C698 H686 0.950 . S
C698 C697 1.398 . S
C698 C699 1.391 . S
C699 H687 0.950 . S
C699 C695 1.393 . S
C699 C698 1.391 . S
H700 C708 0.950 . S
H701 C713 0.950 . S
H702 C710 0.950 . S
H703 C712 0.950 . S
H704 C714 0.950 . S
H705 C716 0.950 . S
H706 C718 0.950 . S
H707 C719 0.950 . S
C708 H700 0.950 . S
C708 C709 1.386 . S
C708 C710 1.391 . S
C709 C708 1.386 . S
C709 C713 1.393 . S
C710 H702 0.950 . S
C710 C708 1.391 . S
C710 C711 1.400 . S
C711 C710 1.400 . S
C711 C712 1.398 . S
C711 C717 1.491 . S
C712 H703 0.950 . S
C712 C711 1.398 . S
C712 C713 1.391 . S
C713 H701 0.950 . S
C713 C709 1.393 . S
C713 C712 1.391 . S
C714 H704 0.950 . S
C714 C715 1.386 . S
C714 C716 1.391 . S
C715 C714 1.386 . S
C715 C719 1.393 . S
C716 H705 0.950 . S
C716 C714 1.391 . S
C716 C717 1.400 . S
C717 C711 1.491 . S
C717 C716 1.400 . S
C717 C718 1.398 . S
C718 H706 0.950 . S
C718 C717 1.398 . S
C718 C719 1.391 . S
C719 H707 0.950 . S
C719 C715 1.393 . S
C719 C718 1.391 . S
H720 C728 0.950 . S
H721 C733 0.950 . S
H722 C730 0.950 . S
H723 C732 0.950 . S
H724 C734 0.950 . S
H725 C736 0.950 . S
H726 C738 0.950 . S
H727 C739 0.950 . S
C728 H720 0.950 . S
C728 C729 1.386 . S
C728 C730 1.391 . S
C729 C728 1.386 . S
C729 C733 1.393 . S
C730 H722 0.950 . S
C730 C728 1.391 . S
C730 C731 1.400 . S
C731 C730 1.400 . S
C731 C732 1.398 . S
C731 C737 1.491 1_455 S
C732 H723 0.950 . S
C732 C731 1.398 . S
C732 C733 1.391 . S
C733 H721 0.950 . S
C733 C729 1.393 . S
C733 C732 1.391 . S
C734 H724 0.950 . S
C734 C735 1.386 . S
C734 C736 1.391 . S
C735 C734 1.386 . S
C735 C739 1.393 . S
C736 H725 0.950 . S
C736 C734 1.391 . S
C736 C737 1.400 . S
C737 C731 1.491 1_655 S
C737 C736 1.400 . S
C737 C738 1.398 . S
C738 H726 0.950 . S
C738 C737 1.398 . S
C738 C739 1.391 . S
C739 H727 0.950 . S
C739 C735 1.393 . S
C739 C738 1.391 . S
H740 C748 0.950 . S
H741 C753 0.950 . S
H742 C750 0.950 . S
H743 C752 0.950 . S
H744 C754 0.950 . S
H745 C756 0.950 . S
H746 C758 0.950 . S
H747 C759 0.950 . S
C748 H740 0.950 . S
C748 C749 1.386 . S
C748 C750 1.391 . S
C749 C748 1.386 . S
C749 C753 1.393 . S
C750 H742 0.950 . S
C750 C748 1.391 . S
C750 C751 1.400 . S
C751 C750 1.400 . S
C751 C752 1.398 . S
C751 C757 1.491 1_655 S
C752 H743 0.950 . S
C752 C751 1.398 . S
C752 C753 1.391 . S
C753 H741 0.950 . S
C753 C749 1.393 . S
C753 C752 1.391 . S
C754 H744 0.950 . S
C754 C755 1.386 . S
C754 C756 1.391 . S
C755 C754 1.386 . S
C755 C759 1.393 . S
C756 H745 0.950 . S
C756 C754 1.391 . S
C756 C757 1.400 . S
C757 C751 1.491 1_455 S
C757 C756 1.400 . S
C757 C758 1.398 . S
C758 H746 0.950 . S
C758 C757 1.398 . S
C758 C759 1.391 . S
C759 H747 0.950 . S
C759 C755 1.393 . S
C759 C758 1.391 . S
H760 C768 0.950 . S
H761 C773 0.950 . S
H762 C770 0.950 . S
H763 C772 0.950 . S
H764 C774 0.950 . S
H765 C776 0.950 . S
H766 C778 0.950 . S
H767 C779 0.950 . S
C768 H760 0.950 . S
C768 C769 1.386 . S
C768 C770 1.391 . S
C769 C768 1.386 . S
C769 C773 1.393 . S
C770 H762 0.950 . S
C770 C768 1.391 . S
C770 C771 1.400 . S
C771 C770 1.400 . S
C771 C772 1.398 . S
C771 C777 1.491 . S
C772 H763 0.950 . S
C772 C771 1.398 . S
C772 C773 1.391 . S
C773 H761 0.950 . S
C773 C769 1.393 . S
C773 C772 1.391 . S
C774 H764 0.950 . S
C774 C775 1.386 . S
C774 C776 1.391 . S
C775 C774 1.386 . S
C775 C779 1.393 . S
C776 H765 0.950 . S
C776 C774 1.391 . S
C776 C777 1.400 . S
C777 C771 1.491 . S
C777 C776 1.400 . S
C777 C778 1.398 . S
C778 H766 0.950 . S
C778 C777 1.398 . S
C778 C779 1.391 . S
C779 H767 0.950 . S
C779 C775 1.393 . S
C779 C778 1.391 . S
H780 C788 0.950 . S
H781 C793 0.950 . S
H782 C790 0.950 . S
H783 C792 0.950 . S
H784 C794 0.950 . S
H785 C796 0.950 . S
H786 C798 0.950 . S
H787 C799 0.950 . S
C788 H780 0.950 . S
C788 C789 1.386 . S
C788 C790 1.391 . S
C789 C788 1.386 . S
C789 C793 1.393 . S
C790 H782 0.950 . S
C790 C788 1.391 . S
C790 C791 1.400 . S
C791 C790 1.400 . S
C791 C792 1.398 . S
C791 C797 1.491 . S
C792 H783 0.950 . S
C792 C791 1.398 . S
C792 C793 1.391 . S
C793 H781 0.950 . S
C793 C789 1.393 . S
C793 C792 1.391 . S
C794 H784 0.950 . S
C794 C795 1.386 . S
C794 C796 1.391 . S
C795 C794 1.386 . S
C795 C799 1.393 . S
C796 H785 0.950 . S
C796 C794 1.391 . S
C796 C797 1.400 . S
C797 C791 1.491 . S
C797 C796 1.400 . S
C797 C798 1.398 . S
C798 H786 0.950 . S
C798 C797 1.398 . S
C798 C799 1.391 . S
C799 H787 0.950 . S
C799 C795 1.393 . S
C799 C798 1.391 . S
C329 C17 1.659 . S
C335 C297 1.658 . S
C349 C257 1.659 . S
C355 C57 1.659 . S
C369 C217 1.659 . S
C375 C97 1.658 . S
C389 C177 1.659 . S
C395 C137 1.658 . S
C409 C82 1.095 . S
C415 C2 1.065 . S
C429 C42 1.085 . S
C435 C122 1.077 . S
C449 C143 1.964 . S
C455 C63 1.958 . S
C469 C103 1.963 . S
C475 C23 1.959 . S
C489 C162 1.057 . S
C495 C242 1.025 . S
C509 C202 1.037 . S
C515 C282 1.052 . S
C529 C303 1.895 . S
C535 C223 1.878 . S
C549 C263 1.891 . S
C555 C183 1.879 . S
C569 C13 1.885 . S
C575 C24 1.885 . S
C589 C53 1.891 . S
C595 C64 1.891 . S
C609 C104 1.885 . S
C615 C93 1.885 . S
C629 C133 1.883 . S
C635 C144 1.883 . S
C649 C184 1.896 . S
C655 C173 1.896 . S
C669 C213 1.887 . S
C675 C224 1.887 . S
C689 C253 1.897 . S
C695 C264 1.897 . S
C709 C293 1.894 . S
C715 C304 1.894 . S
C729 C26 2.146 . S
C735 C66 2.143 . S
C749 C146 2.144 . S
C755 C106 2.145 . S
C769 C186 2.150 . S
C775 C226 2.141 . S
C789 C306 2.141 . S
C795 C266 2.150 . S
