# Generated by pormake.
# Topology mon, (4)-cn, num edge types: 1
# Building blocks:
#     Node 0, Type 0, BuildingBlock: QUQFOY_clean_sbu_1, # of connection points: 4
#     Node 1, Type 0, BuildingBlock: QUQFOY_clean_sbu_1, # of connection points: 4
#     Node 2, Type 0, BuildingBlock: QUQFOY_clean_sbu_1, # of connection points: 4
#     Node 3, Type 0, BuildingBlock: QUQFOY_clean_sbu_1, # of connection points: 4
#     Node 4, Type 0, BuildingBlock: QUQFOY_clean_sbu_1, # of connection points: 4
#     Node 5, Type 0, BuildingBlock: QUQFOY_clean_sbu_1, # of connection points: 4
#     Node 6, Type 0, BuildingBlock: QUQFOY_clean_sbu_1, # of connection points: 4
#     Node 7, Type 0, BuildingBlock: QUQFOY_clean_sbu_1, # of connection points: 4
#     Node 8, Type 0, BuildingBlock: QUQFOY_clean_sbu_1, # of connection points: 4
#     Node 9, Type 0, BuildingBlock: QUQFOY_clean_sbu_1, # of connection points: 4
#     Node 10, Type 0, BuildingBlock: QUQFOY_clean_sbu_1, # of connection points: 4
#     Node 11, Type 0, BuildingBlock: QUQFOY_clean_sbu_1, # of connection points: 4
#     Node 12, Type 0, BuildingBlock: QUQFOY_clean_sbu_1, # of connection points: 4
#     Node 13, Type 0, BuildingBlock: QUQFOY_clean_sbu_1, # of connection points: 4
#     Node 14, Type 0, BuildingBlock: QUQFOY_clean_sbu_1, # of connection points: 4
#     Node 15, Type 0, BuildingBlock: QUQFOY_clean_sbu_1, # of connection points: 4
#     Edge 16, Type (0, 0), BuildingBlock: MIFKUJ_clean_linker_0, # of connection points: 2
#     Edge 17, Type (0, 0), BuildingBlock: MIFKUJ_clean_linker_0, # of connection points: 2
#     Edge 18, Type (0, 0), BuildingBlock: MIFKUJ_clean_linker_0, # of connection points: 2
#     Edge 19, Type (0, 0), BuildingBlock: MIFKUJ_clean_linker_0, # of connection points: 2
#     Edge 20, Type (0, 0), BuildingBlock: MIFKUJ_clean_linker_0, # of connection points: 2
#     Edge 21, Type (0, 0), BuildingBlock: MIFKUJ_clean_linker_0, # of connection points: 2
#     Edge 22, Type (0, 0), BuildingBlock: MIFKUJ_clean_linker_0, # of connection points: 2
#     Edge 23, Type (0, 0), BuildingBlock: MIFKUJ_clean_linker_0, # of connection points: 2
#     Edge 24, Type (0, 0), BuildingBlock: MIFKUJ_clean_linker_0, # of connection points: 2
#     Edge 25, Type (0, 0), BuildingBlock: MIFKUJ_clean_linker_0, # of connection points: 2
#     Edge 26, Type (0, 0), BuildingBlock: MIFKUJ_clean_linker_0, # of connection points: 2
#     Edge 27, Type (0, 0), BuildingBlock: MIFKUJ_clean_linker_0, # of connection points: 2
#     Edge 28, Type (0, 0), BuildingBlock: MIFKUJ_clean_linker_0, # of connection points: 2
#     Edge 29, Type (0, 0), BuildingBlock: MIFKUJ_clean_linker_0, # of connection points: 2
#     Edge 30, Type (0, 0), BuildingBlock: MIFKUJ_clean_linker_0, # of connection points: 2
#     Edge 31, Type (0, 0), BuildingBlock: MIFKUJ_clean_linker_0, # of connection points: 2
#     Edge 32, Type (0, 0), BuildingBlock: MIFKUJ_clean_linker_0, # of connection points: 2
#     Edge 33, Type (0, 0), BuildingBlock: MIFKUJ_clean_linker_0, # of connection points: 2
#     Edge 34, Type (0, 0), BuildingBlock: MIFKUJ_clean_linker_0, # of connection points: 2
#     Edge 35, Type (0, 0), BuildingBlock: MIFKUJ_clean_linker_0, # of connection points: 2
#     Edge 36, Type (0, 0), BuildingBlock: MIFKUJ_clean_linker_0, # of connection points: 2
#     Edge 37, Type (0, 0), BuildingBlock: MIFKUJ_clean_linker_0, # of connection points: 2
#     Edge 38, Type (0, 0), BuildingBlock: MIFKUJ_clean_linker_0, # of connection points: 2
#     Edge 39, Type (0, 0), BuildingBlock: MIFKUJ_clean_linker_0, # of connection points: 2
#     Edge 40, Type (0, 0), BuildingBlock: MIFKUJ_clean_linker_0, # of connection points: 2
#     Edge 41, Type (0, 0), BuildingBlock: MIFKUJ_clean_linker_0, # of connection points: 2
#     Edge 42, Type (0, 0), BuildingBlock: MIFKUJ_clean_linker_0, # of connection points: 2
#     Edge 43, Type (0, 0), BuildingBlock: MIFKUJ_clean_linker_0, # of connection points: 2
#     Edge 44, Type (0, 0), BuildingBlock: MIFKUJ_clean_linker_0, # of connection points: 2
#     Edge 45, Type (0, 0), BuildingBlock: MIFKUJ_clean_linker_0, # of connection points: 2
#     Edge 46, Type (0, 0), BuildingBlock: MIFKUJ_clean_linker_0, # of connection points: 2
#     Edge 47, Type (0, 0), BuildingBlock: MIFKUJ_clean_linker_0, # of connection points: 2
# Relax obj value: 0.206
# Max RMSD: 0.222
# Mean RMSD: 0.222
data_MOF--net-mon--node1-QUQFOY_clean_sbu_1--edge1-MIFKUJ_clean_linker_0
_symmetry_space_group_name_H-M    P1
_symmetry_Int_Tables_number       1
_symmetry_cell_setting            triclinic
loop_
_symmetry_equiv_pos_as_xyz
'x, y, z'
_cell_length_a     46.577517
_cell_length_b     46.570634
_cell_length_c     108.56004
_cell_angle_alpha  90.011903
_cell_angle_beta   90.034563
_cell_angle_gamma 89.987615
loop_
_atom_site_label
_atom_site_type_symbol
_atom_site_fract_x
_atom_site_fract_y
_atom_site_fract_z
_atom_type_partial_charge
O0 O 0.01291 0.04455 0.56687 0.0
Cd1 Cd 0.00814 0.05664 0.58499 0.0
Cd2 Cd 0.04809 0.01248 0.58914 0.0
O3 O 0.04737 0.01293 0.57014 0.0
O4 O 0.99364 0.09669 0.5847 0.0
O5 O 0.03531 0.08433 0.59306 0.0
C6 C 0.01689 0.10411 0.59033 0.0
C7 C 0.09185 0.99616 0.59733 0.0
C8 C 0.03099 0.02648 0.56281 0.0
C9 C 0.98741 0.00819 0.60012 0.0
O10 O 0.01231 0.99763 0.5985 0.0
O11 O 0.98093 0.03247 0.5956 0.0
O12 O 0.07421 0.97934 0.59179 0.0
O13 O 0.08477 0.02285 0.59832 0.0
O14 O 0.25708 0.71883 0.81893 0.0
Cd15 Cd 0.25155 0.72114 0.83782 0.0
Cd16 Cd 0.29208 0.76157 0.83635 0.0
O17 O 0.28232 0.75871 0.81799 0.0
O18 O 0.21296 0.70529 0.84163 0.0
O19 O 0.22476 0.75089 0.84459 0.0
C20 C 0.2056 0.73081 0.84502 0.0
C21 C 0.30099 0.80748 0.84406 0.0
C22 C 0.26962 0.7381 0.81263 0.0
C23 C 0.30768 0.70632 0.84885 0.0
O24 O 0.31683 0.72893 0.84361 0.0
O25 O 0.2811 0.70024 0.84875 0.0
O26 O 0.31802 0.79544 0.8363 0.0
O27 O 0.27848 0.79352 0.84756 0.0
O28 O 0.57139 0.96091 0.06798 0.0
Cd29 Cd 0.5752 0.9518 0.0865 0.0
Cd30 Cd 0.53994 0.99958 0.089 0.0
O31 O 0.54513 3e-05 0.0702 0.0
O32 O 0.59034 0.912 0.08746 0.0
O33 O 0.54739 0.9244 0.09439 0.0
C34 C 0.56647 0.90468 0.09258 0.0
C35 C 0.49473 0.01463 0.09596 0.0
C36 C 0.55845 0.98238 0.06337 0.0
C37 C 0.59831 0.00111 0.10119 0.0
O38 O 0.57422 0.01319 0.0994 0.0
O39 O 0.6033 0.97634 0.09677 0.0
O40 O 0.51295 0.03215 0.09122 0.0
O41 O 0.50208 0.98798 0.09682 0.0
O42 O 0.34838 0.27778 0.31819 0.0
Cd43 Cd 0.35239 0.27609 0.33716 0.0
Cd44 Cd 0.3123 0.23584 0.33476 0.0
O45 O 0.32682 0.23582 0.31692 0.0
O46 O 0.39085 0.2915 0.34144 0.0
O47 O 0.3781 0.2462 0.34454 0.0
C48 C 0.39754 0.26599 0.34509 0.0
C49 C 0.29774 0.19176 0.34303 0.0
C50 C 0.33877 0.25713 0.31175 0.0
C51 C 0.29561 0.29273 0.34591 0.0
O52 O 0.28738 0.27041 0.34019 0.0
O53 O 0.32217 0.29785 0.3473 0.0
O54 O 0.28358 0.20431 0.3344 0.0
O55 O 0.32092 0.20399 0.34691 0.0
O56 O 0.02349 0.94698 0.42816 0.0
Cd57 Cd 0.023 0.94264 0.40928 0.0
Cd58 Cd 0.06357 0.98665 0.41053 0.0
O59 O 0.06173 0.97491 0.42882 0.0
O60 O 0.00439 0.90511 0.40588 0.0
O61 O 0.04977 0.91438 0.40127 0.0
C62 C 0.02857 0.89647 0.40145 0.0
C63 C 0.10825 0.00372 0.40377 0.0
C64 C 0.04263 0.9602 0.43427 0.0
C65 C 0.00553 0.99877 0.3987 0.0
O66 O 0.02901 0.00848 0.40298 0.0
O67 O -0.00033 0.97223 0.39952 0.0
O68 O 0.09265 0.01783 0.41144 0.0
O69 O 0.09871 0.97929 0.39993 0.0
O70 O 0.3383 0.72481 0.67724 0.0
Cd71 Cd 0.34493 0.72648 0.65839 0.0
Cd72 Cd 0.30163 0.76636 0.65972 0.0
O73 O 0.31007 0.76274 0.67817 0.0
O74 O 0.38289 0.70825 0.65544 0.0
O75 O 0.37413 0.75417 0.65169 0.0
C76 C 0.39204 0.73296 0.65181 0.0
C77 C 0.28723 0.81187 0.6528 0.0
C78 C 0.32396 0.74287 0.68351 0.0
C79 C 0.28969 0.70997 0.64694 0.0
O80 O 0.2797 0.73256 0.65188 0.0
O81 O 0.31636 0.70445 0.64738 0.0
O82 O 0.27136 0.79642 0.65985 0.0
O83 O 0.31195 0.80167 0.64968 0.0
O84 O 0.57102 0.04241 0.92697 0.0
Cd85 Cd 0.57326 0.04763 0.90812 0.0
Cd86 Cd 0.53609 0.0024 0.90768 0.0
O87 O 0.54003 0.00663 0.92643 0.0
O88 O 0.58866 0.08685 0.90528 0.0
O89 O 0.54471 0.07367 0.8999 0.0
C90 C 0.5641 0.09347 0.90057 0.0
C91 C 0.49022 0.9929 0.90002 0.0
C92 C 0.55569 0.0239 0.93249 0.0
C93 C 0.59357 0.99395 0.89558 0.0
O94 O 0.56957 0.98299 0.89856 0.0
O95 O 0.59922 0.0199 0.89828 0.0
O96 O 0.5042 0.97425 0.90638 0.0
O97 O 0.50223 0.01743 0.89797 0.0
O98 O 0.25629 0.28445 0.1782 0.0
Cd99 Cd 0.24842 0.28599 0.15954 0.0
Cd100 Cd 0.2889 0.24282 0.15844 0.0
O101 O 0.28281 0.24527 0.1772 0.0
O102 O 0.21016 0.30385 0.1571 0.0
O103 O 0.21991 0.25864 0.15221 0.0
C104 C 0.20158 0.27946 0.15282 0.0
C105 C 0.30145 0.19705 0.15116 0.0
C106 C 0.27035 0.2646 0.18349 0.0
C107 C 0.30235 0.30054 0.14658 0.0
O108 O 0.31095 0.27579 0.14986 0.0
O109 O 0.27695 0.30865 0.14898 0.0
O110 O 0.31847 0.21215 0.15786 0.0
O111 O 0.27663 0.20779 0.14857 0.0
O112 O 0.84614 0.22735 0.17986 0.0
Cd113 Cd 0.85475 0.22241 0.16137 0.0
Cd114 Cd 0.80972 0.26048 0.1583 0.0
O115 O 0.81129 0.25882 0.17724 0.0
O116 O 0.89466 0.20792 0.15989 0.0
O117 O 0.88078 0.25045 0.15291 0.0
C118 C 0.90101 0.23179 0.15451 0.0
C119 C 0.79541 0.30499 0.15023 0.0
C120 C 0.82705 0.24384 0.18431 0.0
C121 C 0.80421 0.20051 0.14748 0.0
O122 O 0.79337 0.22525 0.14915 0.0
O123 O 0.82911 0.19469 0.15154 0.0
O124 O 0.77795 0.2884 0.15601 0.0
O125 O 0.82158 0.29638 0.14896 0.0
O126 O 0.75223 0.76959 0.68041 0.0
Cd127 Cd 0.74227 0.77684 0.66214 0.0
Cd128 Cd 0.78843 0.73955 0.6579 0.0
O129 O 0.78815 0.73987 0.67684 0.0
O130 O 0.70276 0.7929 0.66184 0.0
O131 O 0.7142 0.75112 0.65343 0.0
C132 C 0.69491 0.77023 0.65591 0.0
C133 C 0.80351 0.69581 0.64931 0.0
C134 C 0.77226 0.75347 0.68433 0.0
C135 C 0.79214 0.80059 0.64813 0.0
O136 O 0.8034 0.77585 0.64915 0.0
O137 O 0.76744 0.80561 0.6526 0.0
O138 O 0.82091 0.7128 0.65491 0.0
O139 O 0.77701 0.70365 0.64843 0.0
O140 O 0.75331 0.22101 0.31915 0.0
Cd141 Cd 0.74559 0.21578 0.33769 0.0
Cd142 Cd 0.7883 0.2572 0.34036 0.0
O143 O 0.78679 0.25406 0.32144 0.0
O144 O 0.70748 0.19697 0.33915 0.0
O145 O 0.71638 0.24089 0.346 0.0
C146 C 0.69838 0.22008 0.34441 0.0
C147 C 0.79915 0.3033 0.34768 0.0
C148 C 0.77156 0.23817 0.31453 0.0
C149 C 0.79808 0.19863 0.35179 0.0
O150 O 0.80707 0.22405 0.35003 0.0
O151 O 0.77383 0.1908 0.34762 0.0
O152 O 0.8178 0.28766 0.34211 0.0
O153 O 0.77378 0.29276 0.34923 0.0
O154 O 0.84958 0.76991 0.81888 0.0
Cd155 Cd 0.85645 0.77571 0.83747 0.0
Cd156 Cd 0.81293 0.73455 0.83977 0.0
O157 O 0.81712 0.73576 0.8209 0.0
O158 O 0.89444 0.79472 0.83906 0.0
O159 O 0.88557 0.75096 0.84608 0.0
C160 C 0.90353 0.77178 0.84445 0.0
C161 C 0.79964 0.68962 0.8477 0.0
C162 C 0.8324 0.75186 0.81412 0.0
C163 C 0.80271 0.79423 0.85025 0.0
O164 O 0.79336 0.76902 0.84825 0.0
O165 O 0.82785 0.80132 0.84689 0.0
O166 O 0.78241 0.70498 0.84121 0.0
O167 O 0.82498 0.69971 0.84979 0.0
O168 O 0.52479 0.54499 0.06638 0.0
Cd169 Cd 0.52271 0.55433 0.08488 0.0
Cd170 Cd 0.56573 0.51172 0.08659 0.0
O171 O 0.56222 0.51604 0.06773 0.0
O172 O 0.50354 0.59225 0.08641 0.0
O173 O 0.54857 0.58445 0.09209 0.0
C174 C 0.52723 0.60201 0.09093 0.0
C175 C 0.61117 0.4965 0.09338 0.0
C176 C 0.5436 0.5292 0.0613 0.0
C177 C 0.5075 0.5017 0.09888 0.0
O178 O 0.53231 0.49246 0.09605 0.0
O179 O 0.49955 0.52665 0.09565 0.0
O180 O 0.59421 0.48001 0.08729 0.0
O181 O 0.60256 0.52232 0.09561 0.0
O182 O 0.07023 0.45836 0.56595 0.0
Cd183 Cd 0.07231 0.45127 0.58473 0.0
Cd184 Cd 0.032 0.4948 0.58484 0.0
O185 O 0.03368 0.48838 0.56618 0.0
O186 O 0.0901 0.41267 0.58621 0.0
O187 O 0.04628 0.42262 0.59292 0.0
C188 C 0.06659 0.40408 0.59127 0.0
C189 C 0.98696 0.50774 0.59273 0.0
C190 C 0.05206 0.47377 0.56026 0.0
C191 C 0.09031 0.50566 0.59653 0.0
O192 O 0.0665 0.51562 0.59273 0.0
O193 O 0.09657 0.47934 0.59506 0.0
O194 O 0.00178 0.5248 0.58594 0.0
O195 O 0.99764 0.48276 0.5951 0.0
O196 O 0.52108 0.44848 0.92692 0.0
Cd197 Cd 0.52038 0.44228 0.90806 0.0
Cd198 Cd 0.56415 0.48354 0.90912 0.0
O199 O 0.56177 0.47274 0.92744 0.0
O200 O 0.50007 0.40528 0.90532 0.0
O201 O 0.54579 0.41212 0.90056 0.0
C202 C 0.52385 0.39515 0.90106 0.0
C203 C 0.60922 0.50001 0.90252 0.0
C204 C 0.54128 0.46024 0.93297 0.0
C205 C 0.50678 0.49857 0.89708 0.0
O206 O 0.53049 0.50674 0.90168 0.0
O207 O 0.49928 0.4724 0.8976 0.0
O208 O 0.59317 0.51476 0.90976 0.0
O209 O 0.60006 0.47511 0.89909 0.0
O210 O 0.07224 0.53997 0.42445 0.0
Cd211 Cd 0.07264 0.54729 0.40566 0.0
Cd212 Cd 0.03182 0.50383 0.4056 0.0
O213 O 0.03592 0.50962 0.42423 0.0
O214 O 0.0898 0.58592 0.40325 0.0
O215 O 0.04477 0.57551 0.39842 0.0
C216 C 0.06524 0.59421 0.39906 0.0
C217 C 0.9858 0.49013 0.39908 0.0
C218 C 0.05443 0.52413 0.43014 0.0
C219 C 0.08879 0.4934 0.39276 0.0
O220 O 0.06508 0.48342 0.39664 0.0
O221 O 0.09561 0.51939 0.39472 0.0
O222 O 0.00226 0.47314 0.40518 0.0
O223 O 0.99538 0.51548 0.39661 0.0
H224 H 0.05266 0.12626 0.60799 0.0
H225 H 0.06054 0.17708 0.61288 0.0
H226 H 0.00245 0.20112 0.58362 0.0
H227 H 0.99336 0.15071 0.57925 0.0
H228 H 0.08294 0.21833 0.60188 0.0
H229 H 0.96913 0.26182 0.58789 0.0
H230 H 0.9186 0.24658 0.58959 0.0
H231 H 0.94029 0.19142 0.61988 0.0
H232 H 0.99088 0.20662 0.61849 0.0
H233 H 0.09348 0.35848 0.58094 0.0
H234 H 0.08555 0.30779 0.58504 0.0
H235 H 0.0242 0.3297 0.61335 0.0
H236 H 0.03077 0.38077 0.60861 0.0
H237 H 0.00339 0.28914 0.60191 0.0
H238 H 0.09459 0.29981 0.61964 0.0
H239 H 0.1451 0.31482 0.62177 0.0
H240 H 0.16845 0.26153 0.59109 0.0
H241 H 0.11802 0.2465 0.58865 0.0
C242 C 0.04142 0.14248 0.6027 0.0
C243 C 0.02221 0.13458 0.59331 0.0
C244 C 0.04594 0.1715 0.60549 0.0
C245 C 0.03164 0.19308 0.59881 0.0
C246 C 0.01299 0.18503 0.58923 0.0
C247 C 0.00798 0.15614 0.58665 0.0
C248 C 0.03706 0.22404 0.60133 0.0
C249 C 0.06553 0.23379 0.60201 0.0
C250 C 0.01439 0.24428 0.60207 0.0
C251 C 0.98388 0.23526 0.60303 0.0
C252 C 0.96311 0.24658 0.59496 0.0
C253 C 0.93445 0.2379 0.59586 0.0
C254 C 0.92625 0.218 0.60482 0.0
C255 C 0.94668 0.20677 0.61292 0.0
C256 C 0.97536 0.21539 0.61207 0.0
C257 C 0.07847 0.35251 0.58812 0.0
C258 C 0.06279 0.37353 0.59448 0.0
C259 C 0.07413 0.32344 0.59055 0.0
C260 C 0.05477 0.31469 0.59974 0.0
C261 C 0.03933 0.33578 0.60625 0.0
C262 C 0.04311 0.36495 0.60356 0.0
C263 C 0.04934 0.28353 0.60182 0.0
C264 C 0.02083 0.27372 0.60203 0.0
C265 C 0.07197 0.26322 0.60252 0.0
C266 C 0.10243 0.27212 0.60393 0.0
C267 C 0.11045 0.29141 0.61329 0.0
C268 C 0.13909 0.29991 0.61456 0.0
C269 C 0.15996 0.28916 0.60656 0.0
C270 C 0.15225 0.26984 0.59728 0.0
C271 C 0.12365 0.26128 0.59597 0.0
H272 H 0.18212 0.29577 0.60755 0.0
H273 H 0.90406 0.2113 0.60549 0.0
H274 H 0.94286 0.81477 0.84646 0.0
H275 H 0.99438 0.81022 0.85004 0.0
H276 H 0.98512 0.71842 0.85364 0.0
H277 H 0.93324 0.72295 0.85042 0.0
H278 H 0.02467 0.73805 0.86949 0.0
H279 H 0.00532 0.74899 0.82624 0.0
H280 H 0.985 0.77231 0.8078 0.0
H281 H 0.03383 0.84849 0.8154 0.0
H282 H 0.05416 0.82573 0.83399 0.0
H283 H 0.16289 0.69217 0.84951 0.0
H284 H 0.1121 0.70214 0.85304 0.0
H285 H 0.12928 0.79311 0.85194 0.0
H286 H 0.1803 0.7833 0.84839 0.0
H287 H 0.08638 0.77696 0.8362 0.0
H288 H 0.10976 0.76245 0.8786 0.0
H289 H 0.1304 0.73714 0.89647 0.0
H290 H 0.07473 0.66531 0.88984 0.0
H291 H 0.05402 0.69001 0.87181 0.0
C292 C 0.95172 0.79364 0.84816 0.0
C293 C 0.93406 0.76916 0.84801 0.0
C294 C 0.98119 0.79107 0.85018 0.0
C295 C 0.99371 0.76392 0.85184 0.0
C296 C 0.97594 0.73958 0.85233 0.0
C297 C 0.94632 0.74218 0.85046 0.0
C298 C 0.02543 0.76079 0.85222 0.0
C299 C 0.03817 0.74635 0.86217 0.0
C300 C 0.04311 0.77208 0.84278 0.0
C301 C 0.03101 0.78577 0.83157 0.0
C302 C 0.01156 0.77079 0.82403 0.0
C303 C 7e-05 0.78389 0.81354 0.0
C304 C 0.00805 0.8119 0.81045 0.0
C305 C 0.02763 0.82682 0.81782 0.0
C306 C 0.03915 0.81382 0.82833 0.0
C307 C 0.15597 0.71432 0.85021 0.0
C308 C 0.17559 0.73696 0.84861 0.0
C309 C 0.12694 0.71997 0.85229 0.0
C310 C 0.11694 0.74836 0.85281 0.0
C311 C 0.1366 0.77104 0.8516 0.0
C312 C 0.16573 0.7654 0.8496 0.0
C313 C 0.08568 0.75418 0.85345 0.0
C314 C 0.07297 0.769 0.84362 0.0
C315 C 0.06811 0.74294 0.86293 0.0
C316 C 0.08049 0.72801 0.87378 0.0
C317 C 0.10208 0.74116 0.88088 0.0
C318 C 0.11376 0.72694 0.89106 0.0
C319 C 0.10393 0.69961 0.89427 0.0
C320 C 0.08234 0.68647 0.88733 0.0
C321 C 0.07059 0.70059 0.87714 0.0
H322 H 0.113 0.68863 0.90216 0.0
H323 H 0.99913 0.82201 0.80233 0.0
H324 H 0.5763 0.63262 0.09541 0.0
H325 H 0.58038 0.68433 0.09895 0.0
H326 H 0.48808 0.69219 0.09773 0.0
H327 H 0.48396 0.64077 0.09378 0.0
H328 H 0.51026 0.73086 0.08386 0.0
H329 H 0.52792 0.70045 0.12507 0.0
H330 H 0.55067 0.67274 0.14178 0.0
H331 H 0.63256 0.70947 0.13278 0.0
H332 H 0.61037 0.73712 0.11589 0.0
H333 H 0.51525 0.8795 0.09869 0.0
H334 H 0.50601 0.82814 0.10177 0.0
H335 H 0.59603 0.8101 0.09662 0.0
H336 H 0.60542 0.86115 0.09352 0.0
H337 H 0.57112 0.77752 0.1156 0.0
H338 H 0.55284 0.80337 0.07297 0.0
H339 H 0.52932 0.83124 0.0565 0.0
H340 H 0.44669 0.80268 0.06902 0.0
H341 H 0.46974 0.77494 0.08569 0.0
C342 C 0.55688 0.64534 0.09605 0.0
C343 C 0.52983 0.63268 0.09425 0.0
C344 C 0.55922 0.67489 0.09814 0.0
C345 C 0.53451 0.6922 0.09872 0.0
C346 C 0.50745 0.67935 0.0973 0.0
C347 C 0.50513 0.64993 0.09505 0.0
C348 C 0.53692 0.72391 0.09985 0.0
C349 C 0.52308 0.741 0.09099 0.0
C350 C 0.55404 0.73728 0.10899 0.0
C351 C 0.5675 0.72069 0.11914 0.0
C352 C 0.55082 0.70246 0.12659 0.0
C353 C 0.56361 0.68679 0.1361 0.0
C354 C 0.59305 0.68929 0.13832 0.0
C355 C 0.60976 0.70753 0.13104 0.0
C356 C 0.59707 0.72324 0.12151 0.0
C357 C 0.53311 0.86462 0.09839 0.0
C358 C 0.56101 0.87431 0.09574 0.0
C359 C 0.5278 0.83533 0.10013 0.0
C360 C 0.55033 0.81536 0.09933 0.0
C361 C 0.57837 0.82517 0.0973 0.0
C362 C 0.58365 0.85434 0.09545 0.0
C363 C 0.54459 0.78409 0.0996 0.0
C364 C 0.55791 0.76719 0.10865 0.0
C365 C 0.52681 0.77084 0.09071 0.0
C366 C 0.51298 0.78738 0.08066 0.0
C367 C 0.52964 0.80323 0.07227 0.0
C368 C 0.5164 0.81897 0.06289 0.0
C369 C 0.48652 0.81881 0.06174 0.0
C370 C 0.46982 0.80284 0.06994 0.0
C371 C 0.48296 0.7871 0.07936 0.0
H372 H 0.47631 0.831 0.05446 0.0
H373 H 0.60292 0.67715 0.14569 0.0
H374 H 0.66934 0.26873 0.3512 0.0
H375 H 0.61775 0.27356 0.35487 0.0
H376 H 0.60703 0.18236 0.3495 0.0
H377 H 0.65834 0.17755 0.34549 0.0
H378 H 0.56999 0.20984 0.3362 0.0
H379 H 0.59894 0.21493 0.37828 0.0
H380 H 0.6265 0.23219 0.39621 0.0
H381 H 0.59228 0.31699 0.39113 0.0
H382 H 0.5648 0.30033 0.37306 0.0
H383 H 0.42156 0.21319 0.34925 0.0
H384 H 0.47238 0.20252 0.35283 0.0
H385 H 0.4915 0.29312 0.35309 0.0
H386 H 0.44086 0.30399 0.34955 0.0
H387 H 0.52338 0.2624 0.37055 0.0
H388 H 0.49909 0.25753 0.32719 0.0
H389 H 0.47145 0.24001 0.30932 0.0
H390 H 0.49749 0.15352 0.31727 0.0
H391 H 0.52497 0.17052 0.33531 0.0
C392 C 0.65603 0.24967 0.35097 0.0
C393 C 0.66786 0.2228 0.34797 0.0
C394 C 0.62655 0.25242 0.35314 0.0
C395 C 0.60848 0.22828 0.35254 0.0
C396 C 0.6205 0.2013 0.34998 0.0
C397 C 0.64986 0.19859 0.3477 0.0
C398 C 0.57682 0.23145 0.35353 0.0
C399 C 0.55983 0.22081 0.34387 0.0
C400 C 0.5635 0.2463 0.36338 0.0
C401 C 0.57999 0.25642 0.37425 0.0
C402 C 0.59746 0.23731 0.38093 0.0
C403 C 0.61304 0.24698 0.39113 0.0
C404 C 0.6112 0.27568 0.39479 0.0
C405 C 0.59371 0.29477 0.38828 0.0
C406 C 0.5781 0.28521 0.37806 0.0
C407 C 0.4365 0.23085 0.3503 0.0
C408 C 0.42727 0.25942 0.34897 0.0
C409 C 0.46551 0.22471 0.35233 0.0
C410 C 0.4857 0.24704 0.35308 0.0
C411 C 0.47626 0.2756 0.35253 0.0
C412 C 0.44732 0.28174 0.35043 0.0
C413 C 0.51688 0.24079 0.35325 0.0
C414 C 0.53369 0.25101 0.36304 0.0
C415 C 0.53013 0.22545 0.34355 0.0
C416 C 0.51379 0.21525 0.33267 0.0
C417 C 0.49872 0.23475 0.32518 0.0
C418 C 0.48312 0.22493 0.31502 0.0
C419 C 0.48264 0.19566 0.31219 0.0
C420 C 0.49784 0.17617 0.31949 0.0
C421 C 0.51343 0.18589 0.32968 0.0
H422 H 0.47055 0.18809 0.30431 0.0
H423 H 0.62327 0.28312 0.40269 0.0
H424 H 0.98621 0.85863 0.39559 0.0
H425 H 0.99111 0.80739 0.39136 0.0
H426 H 0.08321 0.81468 0.39435 0.0
H427 H 0.07846 0.86633 0.39818 0.0
H428 H 0.06921 0.77672 0.37683 0.0
H429 H 0.042 0.79342 0.41899 0.0
H430 H 0.0121 0.81309 0.43573 0.0
H431 H 0.93915 0.76656 0.42205 0.0
H432 H 0.96856 0.74691 0.40513 0.0
H433 H 0.10537 0.63669 0.39767 0.0
H434 H 0.09728 0.6878 0.39421 0.0
H435 H 0.0067 0.67197 0.38942 0.0
H436 H 0.01461 0.62061 0.39297 0.0
H437 H 0.01712 0.71375 0.40614 0.0
H438 H 0.04759 0.69254 0.36511 0.0
H439 H 0.07923 0.67252 0.34907 0.0
H440 H 0.14812 0.72669 0.36135 0.0
H441 H 0.11702 0.74677 0.37759 0.0
C442 C 0.00754 0.84941 0.39517 0.0
C443 C 0.03195 0.86639 0.39738 0.0
C444 C 0.01031 0.82011 0.39278 0.0
C445 C 0.03748 0.80707 0.39283 0.0
C446 C 0.06201 0.82427 0.39433 0.0
C447 C 0.05928 0.85375 0.39655 0.0
C448 C 0.04012 0.77533 0.39223 0.0
C449 C 0.058 0.76293 0.38328 0.0
C450 C 0.02506 0.75729 0.40051 0.0
C451 C 0.00739 0.76895 0.41072 0.0
C452 C 0.01953 0.78754 0.41951 0.0
C453 C 0.00268 0.79867 0.42903 0.0
C454 C 0.97372 0.79115 0.42993 0.0
C455 C 0.96157 0.77241 0.42133 0.0
C456 C 0.97832 0.76126 0.41177 0.0
C457 C 0.08375 0.64398 0.39572 0.0
C458 C 0.06058 0.62462 0.39566 0.0
C459 C 0.0792 0.67321 0.39366 0.0
C460 C 0.05142 0.68367 0.39147 0.0
C461 C 0.02833 0.6643 0.39106 0.0
C462 C 0.03289 0.63498 0.39307 0.0
C463 C 0.04628 0.71506 0.39076 0.0
C464 C 0.02802 0.72745 0.39954 0.0
C465 C 0.06124 0.73298 0.38242 0.0
C466 C 0.08001 0.72101 0.37264 0.0
C467 C 0.06955 0.70003 0.36446 0.0
C468 C 0.08738 0.6887 0.35531 0.0
C469 C 0.11569 0.69828 0.3542 0.0
C470 C 0.1262 0.71927 0.36222 0.0
C471 C 0.10846 0.73067 0.37139 0.0
H472 H 0.12946 0.68948 0.34712 0.0
H473 H 0.96071 0.79978 0.43731 0.0
H474 H 0.42251 0.78312 0.65071 0.0
H475 H 0.47435 0.78842 0.64799 0.0
H476 H 0.48227 0.6969 0.64261 0.0
H477 H 0.43069 0.69143 0.64581 0.0
H478 H 0.51954 0.71282 0.65843 0.0
H479 H 0.49297 0.74775 0.61874 0.0
H480 H 0.46689 0.77748 0.60364 0.0
H481 H 0.503 0.85382 0.61952 0.0
H482 H 0.52901 0.82457 0.63483 0.0
H483 H 0.66932 0.72192 0.64652 0.0
H484 H 0.61809 0.7146 0.64237 0.0
H485 H 0.60064 0.8019 0.65332 0.0
H486 H 0.65161 0.80942 0.65745 0.0
H487 H 0.56922 0.7854 0.63269 0.0
H488 H 0.59136 0.74952 0.67355 0.0
H489 H 0.61756 0.71926 0.68844 0.0
H490 H 0.5894 0.6434 0.66946 0.0
H491 H 0.56333 0.67326 0.65437 0.0
C492 C 0.43526 0.76421 0.64875 0.0
C493 C 0.42259 0.73685 0.64854 0.0
C494 C 0.46491 0.76726 0.64713 0.0
C495 C 0.4823 0.74307 0.64501 0.0
C496 C 0.46938 0.71588 0.64429 0.0
C497 C 0.43988 0.71278 0.64609 0.0
C498 C 0.51412 0.7457 0.64463 0.0
C499 C 0.53036 0.72829 0.65258 0.0
C500 C 0.52836 0.76627 0.6372 0.0
C501 C 0.51277 0.78395 0.628 0.0
C502 C 0.49519 0.77089 0.61907 0.0
C503 C 0.48044 0.78766 0.61046 0.0
C504 C 0.48324 0.81752 0.61063 0.0
C505 C 0.50084 0.83068 0.6194 0.0
C506 C 0.51562 0.81401 0.62804 0.0
C507 C 0.6546 0.73963 0.64792 0.0
C508 C 0.66446 0.76616 0.65243 0.0
C509 C 0.62537 0.73541 0.64555 0.0
C510 C 0.60558 0.75766 0.64764 0.0
C511 C 0.61555 0.78448 0.65164 0.0
C512 C 0.64469 0.78866 0.65407 0.0
C513 C 0.57428 0.7526 0.64649 0.0
C514 C 0.55824 0.76964 0.63834 0.0
C515 C 0.56015 0.73156 0.65365 0.0
C516 C 0.57569 0.71362 0.66276 0.0
C517 C 0.59095 0.72639 0.6725 0.0
C518 C 0.60574 0.70932 0.68098 0.0
C519 C 0.60522 0.67943 0.67987 0.0
C520 C 0.58983 0.66655 0.6703 0.0
C521 C 0.57504 0.68354 0.66178 0.0
H522 H 0.61668 0.66624 0.68645 0.0
H523 H 0.4718 0.83047 0.60396 0.0
H524 H 0.57226 0.36452 0.89535 0.0
H525 H 0.57584 0.31284 0.89164 0.0
H526 H 0.48383 0.30507 0.89486 0.0
H527 H 0.48018 0.35651 0.89884 0.0
H528 H 0.50868 0.26685 0.9087 0.0
H529 H 0.51889 0.29594 0.86691 0.0
H530 H 0.53845 0.32321 0.84936 0.0
H531 H 0.6219 0.28708 0.8559 0.0
H532 H 0.60293 0.25989 0.87361 0.0
H533 H 0.51199 0.11788 0.89534 0.0
H534 H 0.50202 0.16889 0.89174 0.0
H535 H 0.59259 0.18752 0.89379 0.0
H536 H 0.60272 0.13676 0.89741 0.0
H537 H 0.56415 0.21932 0.87544 0.0
H538 H 0.55399 0.19527 0.9187 0.0
H539 H 0.53397 0.1679 0.93614 0.0
H540 H 0.44892 0.19507 0.92625 0.0
H541 H 0.46844 0.22227 0.90863 0.0
C542 C 0.55277 0.35186 0.89509 0.0
C543 C 0.52597 0.36457 0.89746 0.0
C544 C 0.55482 0.32232 0.89291 0.0
C545 C 0.53007 0.30504 0.89289 0.0
C546 C 0.50322 0.31792 0.89485 0.0
C547 C 0.50118 0.34736 0.89711 0.0
C548 C 0.53239 0.27331 0.89187 0.0
C549 C 0.52029 0.25649 0.90126 0.0
C550 C 0.54798 0.25972 0.88231 0.0
C551 C 0.55952 0.27605 0.87166 0.0
C552 C 0.54147 0.29398 0.86468 0.0
C553 C 0.55244 0.30939 0.85469 0.0
C554 C 0.58142 0.30693 0.85154 0.0
C555 C 0.59947 0.28899 0.85836 0.0
C556 C 0.5886 0.27354 0.86837 0.0
C557 C 0.5298 0.13278 0.89481 0.0
C558 C 0.55811 0.12338 0.89679 0.0
C559 C 0.52407 0.16189 0.89277 0.0
C560 C 0.54657 0.18196 0.89261 0.0
C561 C 0.57495 0.17236 0.89387 0.0
C562 C 0.58066 0.14337 0.89601 0.0
C563 C 0.54058 0.2132 0.89228 0.0
C564 C 0.55212 0.22983 0.88271 0.0
C565 C 0.52435 0.2267 0.90164 0.0
C566 C 0.51263 0.2105 0.91227 0.0
C567 C 0.531 0.1952 0.92018 0.0
C568 C 0.51975 0.17976 0.93011 0.0
C569 C 0.49018 0.17967 0.93228 0.0
C570 C 0.47181 0.1951 0.92454 0.0
C571 C 0.48295 0.21054 0.91459 0.0
H572 H 0.48152 0.16771 0.93997 0.0
H573 H 0.58987 0.31887 0.8438 0.0
H574 H 0.16208 0.32094 0.14779 0.0
H575 H 0.1107 0.31471 0.14424 0.0
H576 H 0.12072 0.22279 0.1469 0.0
H577 H 0.17245 0.22888 0.15001 0.0
H578 H 0.08161 0.23539 0.12998 0.0
H579 H 0.0996 0.26399 0.17189 0.0
H580 H 0.11901 0.29484 0.18838 0.0
H581 H 0.0693 0.36592 0.17495 0.0
H582 H 0.04987 0.33556 0.15827 0.0
H583 H 0.94552 0.19393 0.15343 0.0
H584 H 0.99588 0.20435 0.14918 0.0
H585 H 0.97487 0.29342 0.14304 0.0
H586 H 0.9242 0.28313 0.14727 0.0
H587 H 0.0185 0.28576 0.15979 0.0
H588 H 0.99577 0.25323 0.11923 0.0
H589 H 0.97598 0.2203 0.1036 0.0
H590 H 0.03391 0.15411 0.11546 0.0
H591 H 0.05379 0.1865 0.13128 0.0
C592 C 0.15341 0.29937 0.14747 0.0
C593 C 0.1712 0.27539 0.14933 0.0
C594 C 0.12402 0.29585 0.14547 0.0
C595 C 0.11174 0.26832 0.1456 0.0
C596 C 0.1297 0.24425 0.14682 0.0
C597 C 0.15924 0.24775 0.14863 0.0
C598 C 0.08007 0.26475 0.1453 0.0
C599 C 0.06781 0.24624 0.13654 0.0
C600 C 0.06198 0.27935 0.15372 0.0
C601 C 0.07354 0.2976 0.16376 0.0
C602 C 0.09297 0.28626 0.17241 0.0
C603 C 0.10395 0.30364 0.18179 0.0
C604 C 0.09546 0.33235 0.18269 0.0
C605 C 0.0759 0.3437 0.17422 0.0
C606 C 0.06489 0.32641 0.16481 0.0
C607 C 0.95151 0.21568 0.15102 0.0
C608 C 0.93092 0.23776 0.15075 0.0
C609 C 0.98029 0.22156 0.14852 0.0
C610 C 0.98907 0.24961 0.14572 0.0
C611 C 0.96848 0.27159 0.14513 0.0
C612 C 0.93957 0.26568 0.14754 0.0
C613 C 0.02005 0.25625 0.14454 0.0
C614 C 0.03222 0.27526 0.15309 0.0
C615 C 0.03799 0.24181 0.13604 0.0
C616 C 0.02613 0.22226 0.12651 0.0
C617 C 0.00414 0.23158 0.11858 0.0
C618 C 0.99293 0.21302 0.10967 0.0
C619 C 0.00364 0.18511 0.10855 0.0
C620 C 0.02563 0.17572 0.11633 0.0
C621 C 0.0369 0.19419 0.12527 0.0
H622 H 0.99493 0.17078 0.10165 0.0
H623 H 0.10398 0.34577 0.18996 0.0
H624 H 0.99547 0.95374 0.44889 0.0
H625 H 0.9926 0.96174 0.47119 0.0
H626 H 0.08405 0.97564 0.47255 0.0
H627 H 0.08702 0.96851 0.45022 0.0
H628 H 0.05445 0.93801 0.49276 0.0
H629 H 0.05378 0.03118 0.47166 0.0
H630 H 0.03469 0.06476 0.45611 0.0
H631 H 0.95074 0.05825 0.4722 0.0
H632 H 0.96929 0.02424 0.48773 0.0
H633 H 0.07643 0.00577 0.54977 0.0
H634 H 0.07746 0.99211 0.52806 0.0
H635 H 0.98847 0.01673 0.52439 0.0
H636 H 0.98789 0.03194 0.54595 0.0
H637 H 0.01412 0.0324 0.5051 0.0
H638 H 0.01202 0.94394 0.527 0.0
H639 H 0.02689 0.90779 0.54233 0.0
H640 H 0.10953 0.9012 0.52505 0.0
H641 H 0.0953 0.93761 0.50971 0.0
C642 C 0.01502 0.95797 0.45398 0.0
C643 C 0.04146 0.96066 0.44784 0.0
C644 C 0.01333 0.96258 0.46668 0.0
C645 C 0.03811 0.96933 0.47342 0.0
C646 C 0.06475 0.97038 0.46745 0.0
C647 C 0.06638 0.96642 0.45472 0.0
C648 C 0.03596 0.97768 0.48649 0.0
C649 C 0.0459 0.9587 0.49553 0.0
C650 C 0.02388 0.00426 0.48998 0.0
C651 C 0.01284 0.02493 0.48075 0.0
C652 C 0.0312 0.0367 0.4718 0.0
C653 C 0.02049 0.05585 0.46301 0.0
C654 C 0.9915 0.06356 0.46314 0.0
C655 C 0.97317 0.05221 0.4721 0.0
C656 C 0.98378 0.03302 0.48089 0.0
C657 C 0.05716 0.00843 0.5443 0.0
C658 C 0.03206 0.01982 0.54954 0.0
C659 C 0.05767 0.00037 0.53192 0.0
C660 C 0.03282 0.00265 0.52464 0.0
C661 C 0.0079 0.01463 0.52981 0.0
C662 C 0.00758 0.02334 0.54213 0.0
C663 C 0.03293 0.99284 0.51161 0.0
C664 C 0.02257 0.01156 0.50249 0.0
C665 C 0.04403 0.96567 0.50808 0.0
C666 C 0.05267 0.9437 0.51727 0.0
C667 C 0.03344 0.93493 0.52652 0.0
C668 C 0.04174 0.91437 0.5352 0.0
C669 C 0.06916 0.90226 0.53468 0.0
C670 C 0.08831 0.91062 0.52545 0.0
C671 C 0.08013 0.9312 0.51675 0.0
H672 H 0.07554 0.88634 0.54141 0.0
H673 H 0.98324 0.07839 0.45633 0.0
H674 H 0.25145 0.69379 0.79781 0.0
H675 H 0.26098 0.68777 0.77573 0.0
H676 H 0.30277 0.77037 0.77489 0.0
H677 H 0.29354 0.77657 0.79678 0.0
H678 H 0.24665 0.71965 0.75512 0.0
H679 H 0.3627 0.76534 0.75769 0.0
H680 H 0.40267 0.76749 0.77258 0.0
H681 H 0.37132 0.69144 0.79042 0.0
H682 H 0.33143 0.68857 0.77553 0.0
H683 H 0.29281 0.7763 0.69919 0.0
H684 H 0.28384 0.76834 0.721 0.0
H685 H 0.33895 0.69393 0.72039 0.0
H686 H 0.34819 0.70171 0.6984 0.0
H687 H 0.3476 0.72829 0.74089 0.0
H688 H 0.26968 0.68267 0.72059 0.0
H689 H 0.22993 0.67815 0.70571 0.0
H690 H 0.18557 0.74777 0.72332 0.0
H691 H 0.22527 0.75302 0.73819 0.0
C692 C 0.26237 0.7108 0.79288 0.0
C693 C 0.27195 0.73554 0.79908 0.0
C694 C 0.26783 0.70729 0.78029 0.0
C695 C 0.28309 0.72836 0.77378 0.0
C696 C 0.29149 0.75359 0.77982 0.0
C697 C 0.28604 0.75714 0.79234 0.0
C698 C 0.29078 0.7242 0.76068 0.0
C699 C 0.26871 0.7213 0.752 0.0
C700 C 0.31967 0.72563 0.75667 0.0
C701 C 0.34395 0.72687 0.76553 0.0
C702 C 0.36443 0.74897 0.76474 0.0
C703 C 0.38705 0.75034 0.77319 0.0
C704 C 0.38949 0.72965 0.78245 0.0
C705 C 0.36936 0.7075 0.78326 0.0
C706 C 0.34672 0.70601 0.77482 0.0
C707 C 0.30327 0.75833 0.70366 0.0
C708 C 0.32111 0.73952 0.69701 0.0
C709 C 0.29794 0.75373 0.71613 0.0
C710 C 0.31029 0.73025 0.72222 0.0
C711 C 0.32904 0.71205 0.71579 0.0
C712 C 0.33432 0.71656 0.70325 0.0
C713 C 0.30336 0.72502 0.73532 0.0
C714 C 0.32558 0.72616 0.74401 0.0
C715 C 0.27465 0.72153 0.73933 0.0
C716 C 0.25056 0.71834 0.73047 0.0
C717 C 0.25155 0.69715 0.72124 0.0
C718 C 0.229 0.69444 0.71281 0.0
C719 C 0.20525 0.71268 0.71356 0.0
C720 C 0.20398 0.73365 0.72275 0.0
C721 C 0.22648 0.73647 0.7312 0.0
H722 H 0.18782 0.71055 0.70703 0.0
H723 H 0.407 0.73077 0.78899 0.0
H724 H 0.56513 0.94284 0.045 0.0
H725 H 0.5661 0.95176 0.02281 0.0
H726 H 0.5567 0.04273 0.02945 0.0
H727 H 0.55403 0.03366 0.05156 0.0
H728 H 0.52508 0.03035 0.01155 0.0
H729 H 0.62285 0.00943 0.02058 0.0
H730 H 0.66395 0.98234 0.02895 0.0
H731 H 0.64361 0.91104 0.00544 0.0
H732 H 0.60214 0.93755 0.99703 0.0
H733 H 0.57091 0.06512 0.94927 0.0
H734 H 0.57286 0.06006 0.9718 0.0
H735 H 0.54614 0.97174 0.96861 0.0
H736 H 0.54338 0.97675 0.94623 0.0
H737 H 0.59854 0.98597 0.98449 0.0
H738 H 0.49791 0.01002 0.97675 0.0
H739 H 0.45977 0.04094 0.96823 0.0
H740 H 0.49095 0.11209 0.98954 0.0
H741 H 0.52956 0.08165 0.99805 0.0
C742 C 0.56329 0.96471 0.0417 0.0
C743 C 0.5595 0.98755 0.04998 0.0
C744 C 0.56407 0.96985 0.02902 0.0
C745 C 0.56203 0.99802 0.02443 0.0
C746 C 0.5583 0.02082 0.03274 0.0
C747 C 0.55681 0.01562 0.04537 0.0
C748 C 0.563 0.00368 0.01096 0.0
C749 C 0.54149 0.02097 0.00571 0.0
C750 C 0.58427 0.99143 0.00324 0.0
C751 C 0.60923 0.9754 0.00825 0.0
C752 C 0.62702 0.98789 0.01725 0.0
C753 C 0.6504 0.97265 0.022 0.0
C754 C 0.65635 0.94496 0.01775 0.0
C755 C 0.63896 0.93248 0.00873 0.0
C756 C 0.61553 0.94761 0.00396 0.0
C757 C 0.56542 0.04467 0.9534 0.0
C758 C 0.55687 0.02137 0.94603 0.0
C759 C 0.56654 0.04183 0.96622 0.0
C760 C 0.55968 0.01552 0.97177 0.0
C761 C 0.55154 0.99216 0.96444 0.0
C762 C 0.54983 0.99514 0.95168 0.0
C763 C 0.56061 0.01222 0.98527 0.0
C764 C 0.58244 0.99543 0.99046 0.0
C765 C 0.54012 0.02548 0.99296 0.0
C766 C 0.51681 0.04367 0.98791 0.0
C767 C 0.4968 0.03233 0.97952 0.0
C768 C 0.47506 0.04974 0.97471 0.0
C769 C 0.47299 0.07849 0.97831 0.0
C770 C 0.49261 0.08984 0.98675 0.0
C771 C 0.51441 0.07251 0.99157 0.0
H772 H 0.45615 0.09194 0.97458 0.0
H773 H 0.67446 0.9332 0.02143 0.0
H774 H 0.26567 0.31031 0.19919 0.0
H775 H 0.27759 0.31124 0.2212 0.0
H776 H 0.29558 0.22044 0.22018 0.0
H777 H 0.2842 0.21937 0.1982 0.0
H778 H 0.26174 0.23989 0.24096 0.0
H779 H 0.34942 0.262 0.21864 0.0
H780 H 0.37832 0.28999 0.20388 0.0
H781 H 0.36346 0.36661 0.22495 0.0
H782 H 0.33409 0.33911 0.23974 0.0
H783 H 0.33537 0.21316 0.29531 0.0
H784 H 0.32518 0.21665 0.2733 0.0
H785 H 0.32821 0.30911 0.27567 0.0
H786 H 0.33957 0.30569 0.29764 0.0
H787 H 0.34911 0.29244 0.25433 0.0
H788 H 0.26393 0.27261 0.27707 0.0
H789 H 0.23321 0.24706 0.29196 0.0
H790 H 0.23991 0.16994 0.27046 0.0
H791 H 0.27103 0.19494 0.25553 0.0
C792 C 0.27178 0.29048 0.2037 0.0
C793 C 0.27413 0.26478 0.19698 0.0
C794 C 0.27871 0.2911 0.21623 0.0
C795 C 0.28765 0.26595 0.22223 0.0
C796 C 0.28876 0.24005 0.21567 0.0
C797 C 0.28232 0.2395 0.20313 0.0
C798 C 0.29693 0.26662 0.23523 0.0
C799 C 0.28095 0.25116 0.2439 0.0
C800 C 0.32148 0.28211 0.23904 0.0
C801 C 0.3393 0.29857 0.23021 0.0
C802 C 0.3521 0.28486 0.22006 0.0
C803 C 0.36861 0.30062 0.2117 0.0
C804 C 0.37265 0.33007 0.21345 0.0
C805 C 0.36026 0.3438 0.22359 0.0
C806 C 0.3437 0.32814 0.23197 0.0
C807 C 0.33443 0.23422 0.29109 0.0
C808 C 0.33794 0.25916 0.2982 0.0
C809 C 0.32842 0.2362 0.27853 0.0
C810 C 0.32504 0.26316 0.27293 0.0
C811 C 0.33046 0.28809 0.27983 0.0
C812 C 0.337 0.2861 0.29237 0.0
C813 C 0.31421 0.26522 0.26011 0.0
C814 C 0.32979 0.28127 0.25146 0.0
C815 C 0.28895 0.25066 0.25634 0.0
C816 C 0.27002 0.23559 0.26524 0.0
C817 C 0.259 0.25016 0.27556 0.0
C818 C 0.2415 0.23578 0.284 0.0
C819 C 0.23466 0.20688 0.28217 0.0
C820 C 0.24525 0.19232 0.27187 0.0
C821 C 0.2628 0.20659 0.26341 0.0
H822 H 0.22112 0.19578 0.28872 0.0
H823 H 0.38544 0.34224 0.20698 0.0
H824 H 0.85713 0.21621 0.20253 0.0
H825 H 0.84672 0.21601 0.22461 0.0
H826 H 0.77471 0.27255 0.21852 0.0
H827 H 0.78528 0.27342 0.19655 0.0
H828 H 0.80281 0.28886 0.23818 0.0
H829 H 0.76506 0.2003 0.22288 0.0
H830 H 0.76631 0.15394 0.21192 0.0
H831 H 0.83115 0.12322 0.23677 0.0
H832 H 0.83057 0.16957 0.24779 0.0
H833 H 0.73896 0.21291 0.29649 0.0
H834 H 0.74672 0.2149 0.27421 0.0
H835 H 0.82217 0.26701 0.27989 0.0
H836 H 0.81418 0.2658 0.30205 0.0
H837 H 0.78867 0.19648 0.26012 0.0
H838 H 0.831 0.31349 0.25662 0.0
H839 H 0.82443 0.36008 0.26706 0.0
H840 H 0.74032 0.33436 0.27888 0.0
H841 H 0.74623 0.28778 0.26837 0.0
C842 C 0.83919 0.22874 0.2059 0.0
C843 C 0.82198 0.24473 0.19776 0.0
C844 C 0.83318 0.22848 0.21851 0.0
C845 C 0.80968 0.24394 0.22318 0.0
C846 C 0.79292 0.26044 0.21512 0.0
C847 C 0.79899 0.26085 0.20254 0.0
C848 C 0.8023 0.24278 0.23645 0.0
C849 C 0.79976 0.26866 0.24298 0.0
C850 C 0.79764 0.21645 0.24265 0.0
C851 C 0.79797 0.18851 0.23608 0.0
C852 C 0.77974 0.18373 0.22595 0.0
C853 C 0.7803 0.15744 0.21974 0.0
C854 C 0.79885 0.13567 0.22363 0.0
C855 C 0.81682 0.14012 0.23376 0.0
C856 C 0.81637 0.16639 0.24 0.0
C857 C 0.75712 0.22491 0.29298 0.0
C858 C 0.77583 0.23935 0.30104 0.0
C859 C 0.76157 0.22595 0.28025 0.0
C860 C 0.78482 0.24139 0.27537 0.0
C861 C 0.80374 0.25546 0.28342 0.0
C862 C 0.79917 0.25466 0.29611 0.0
C863 C 0.78961 0.24256 0.26188 0.0
C864 C 0.79171 0.21668 0.25532 0.0
C865 C 0.79311 0.26893 0.25557 0.0
C866 C 0.78919 0.29704 0.2618 0.0
C867 C 0.81106 0.31783 0.2614 0.0
C868 C 0.80746 0.34422 0.26734 0.0
C869 C 0.78201 0.35014 0.27366 0.0
C870 C 0.76006 0.32971 0.27402 0.0
C871 C 0.76354 0.30329 0.26809 0.0
H872 H 0.77928 0.37058 0.27827 0.0
H873 H 0.79925 0.11533 0.21881 0.0
H874 H 0.74133 0.77643 0.70346 0.0
H875 H 0.75324 0.77491 0.72541 0.0
H876 H 0.82915 0.72529 0.71727 0.0
H877 H 0.81708 0.72604 0.69545 0.0
H878 H 0.8045 0.70454 0.73682 0.0
H879 H 0.83277 0.79799 0.72319 0.0
H880 H 0.82647 0.84532 0.71337 0.0
H881 H 0.76091 0.86676 0.7396 0.0
H882 H 0.76656 0.81939 0.74948 0.0
H883 H 0.86329 0.78031 0.79641 0.0
H884 H 0.85578 0.77903 0.7741 0.0
H885 H 0.78561 0.71966 0.779 0.0
H886 H 0.79336 0.72024 0.80118 0.0
H887 H 0.8116 0.79513 0.7607 0.0
H888 H 0.78027 0.67506 0.75481 0.0
H889 H 0.79194 0.62812 0.76408 0.0
H890 H 0.87373 0.66055 0.7759 0.0
H891 H 0.86273 0.70755 0.76656 0.0
C892 C 0.76046 0.76505 0.70636 0.0
C893 C 0.7783 0.75147 0.69769 0.0
C894 C 0.76732 0.76432 0.7189 0.0
C895 C 0.79233 0.75035 0.72296 0.0
C896 C 0.80977 0.73622 0.71435 0.0
C897 C 0.80283 0.73674 0.70186 0.0
C898 C 0.80059 0.75062 0.73615 0.0
C899 C 0.80602 0.72434 0.74204 0.0
C900 C 0.80329 0.7765 0.74289 0.0
C901 C 0.7999 0.80504 0.737 0.0
C902 C 0.81687 0.81272 0.72681 0.0
C903 C 0.81344 0.83957 0.72124 0.0
C904 C 0.79326 0.85901 0.72583 0.0
C905 C 0.77651 0.85167 0.73603 0.0
C906 C 0.77983 0.82483 0.74163 0.0
C907 C 0.84644 0.76678 0.79272 0.0
C908 C 0.829 0.75031 0.80058 0.0
C909 C 0.84211 0.76615 0.77998 0.0
C910 C 0.82031 0.74905 0.77487 0.0
C911 C 0.80291 0.7326 0.7827 0.0
C912 C 0.80733 0.73305 0.79541 0.0
C913 C 0.81506 0.74901 0.7614 0.0
C914 C 0.81013 0.77532 0.75547 0.0
C915 C 0.81358 0.72321 0.75454 0.0
C916 C 0.82054 0.69491 0.76008 0.0
C917 C 0.80079 0.67213 0.75934 0.0
C918 C 0.80729 0.64553 0.76462 0.0
C919 C 0.83353 0.64138 0.7706 0.0
C920 C 0.85337 0.66382 0.7713 0.0
C921 C 0.847 0.69046 0.76603 0.0
H922 H 0.8385 0.62077 0.77469 0.0
H923 H 0.79064 0.87978 0.72151 0.0
H924 H 0.58606 0.46658 0.94884 0.0
H925 H 0.58367 0.47518 0.97105 0.0
H926 H 0.49147 0.46736 0.96987 0.0
H927 H 0.49369 0.4581 0.94763 0.0
H928 H 0.5155 0.52023 0.98105 0.0
H929 H 0.52214 0.41727 0.98332 0.0
H930 H 0.54309 0.36996 0.97852 0.0
H931 H 0.62317 0.39599 0.99463 0.0
H932 H 0.60283 0.44364 -0.00064 0.0
H933 H 0.49758 0.53431 0.04588 0.0
H934 H 0.49511 0.52075 0.02416 0.0
H935 H 0.58544 0.4999 0.02467 0.0
H936 H 0.58763 0.5121 0.04652 0.0
H937 H 0.55898 0.45957 0.01365 0.0
H938 H 0.55641 0.5621 0.01016 0.0
H939 H 0.53902 0.61121 0.01424 0.0
H940 H 0.45619 0.58893 -0.00028 0.0
H941 H 0.47299 0.53956 0.99571 0.0
C942 C 0.56531 0.46622 0.95334 0.0
C943 C 0.54005 0.4617 0.94653 0.0
C944 C 0.564 0.4711 0.96601 0.0
C945 C 0.5374 0.47193 0.97203 0.0
C946 C 0.51217 0.46675 0.96533 0.0
C947 C 0.5135 0.46131 0.95268 0.0
C948 C 0.53608 0.47999 0.98516 0.0
C949 C 0.52449 0.50682 0.98826 0.0
C950 C 0.54876 0.46281 0.99439 0.0
C951 C 0.56102 0.43413 0.99159 0.0
C952 C 0.54429 0.41301 0.98574 0.0
C953 C 0.55604 0.3861 0.98305 0.0
C954 C 0.58446 0.37999 0.98624 0.0
C955 C 0.60117 0.40076 0.99215 0.0
C956 C 0.58953 0.42771 0.99485 0.0
C957 C 0.51697 0.52719 0.0413 0.0
C958 C 0.5428 0.52427 0.04788 0.0
C959 C 0.51557 0.5195 0.02888 0.0
C960 C 0.54015 0.50951 0.02271 0.0
C961 C 0.56614 0.50738 0.02922 0.0
C962 C 0.56742 0.5145 0.04169 0.0
C963 C 0.53866 0.50017 0.00965 0.0
C964 C 0.54976 0.47305 0.00653 0.0
C965 C 0.52604 0.51738 0.00034 0.0
C966 C 0.51587 0.54705 0.00276 0.0
C967 C 0.53442 0.56761 0.00793 0.0
C968 C 0.52468 0.5955 0.01022 0.0
C969 C 0.49649 0.60316 0.00728 0.0
C970 C 0.478 0.58295 0.00202 0.0
C971 C 0.48763 0.55502 -0.00027 0.0
H972 H 0.48899 0.62477 0.00905 0.0
H973 H 0.59352 0.35915 0.98415 0.0
H974 H 0.09254 0.45154 0.54461 0.0
H975 H 0.09723 0.46049 0.52249 0.0
H976 H 0.01962 0.51103 0.52315 0.0
H977 H 0.01497 0.50262 0.54522 0.0
H978 H 0.0643 0.4489 0.50294 0.0
H979 H 0.02647 0.56784 0.50418 0.0
H980 H 0.0273 0.60896 0.5185 0.0
H981 H 0.10153 0.57397 0.53655 0.0
H982 H 0.1014 0.53287 0.52223 0.0
H983 H 0.01794 0.49416 0.44495 0.0
H984 H 0.02199 0.48595 0.46702 0.0
H985 H 0.0983 0.53833 0.46823 0.0
H986 H 0.09428 0.54702 0.44602 0.0
H987 H 0.06313 0.54928 0.48754 0.0
H988 H 0.10508 0.46691 0.46891 0.0
H989 H 0.10813 0.42588 0.45462 0.0
H990 H 0.03386 0.3879 0.47143 0.0
H991 H 0.03011 0.42893 0.48572 0.0
C992 C 0.07635 0.46437 0.54003 0.0
C993 C 0.05351 0.47656 0.5467 0.0
C994 C 0.07909 0.46948 0.52739 0.0
C995 C 0.05909 0.48687 0.52124 0.0
C996 C 0.03565 0.49806 0.52778 0.0
C997 C 0.03294 0.49308 0.54039 0.0
C998 C 0.06267 0.49358 0.508 0.0
C999 C 0.06415 0.47083 0.49957 0.0
C1000 C 0.06323 0.52224 0.50365 0.0
C1001 C 0.06377 0.54715 0.51218 0.0
C1002 C 0.04306 0.569 0.51116 0.0
C1003 C 0.04339 0.59229 0.51929 0.0
C1004 C 0.06441 0.59404 0.52845 0.0
C1005 C 0.0852 0.57254 0.52947 0.0
C1006 C 0.08499 0.54923 0.52136 0.0
C1007 C 0.03555 0.5041 0.44987 0.0
C1008 C 0.05593 0.52109 0.44369 0.0
C1009 C 0.03789 0.49925 0.4625 0.0
C1010 C 0.06074 0.51108 0.4692 0.0
C1011 C 0.08061 0.52886 0.46318 0.0
C1012 C 0.07827 0.53379 0.4505 0.0
C1013 C 0.06373 0.50458 0.48248 0.0
C1014 C 0.06352 0.52736 0.49092 0.0
C1015 C 0.06494 0.47596 0.48685 0.0
C1016 C 0.06721 0.45111 0.47833 0.0
C1017 C 0.08928 0.44991 0.46951 0.0
C1018 C 0.09115 0.42663 0.46142 0.0
C1019 C 0.07117 0.40432 0.4621 0.0
C1020 C 0.04932 0.4052 0.47091 0.0
C1021 C 0.04733 0.42845 0.47902 0.0
H1022 H 0.07265 0.38632 0.45583 0.0
H1023 H 0.0646 0.61207 0.53474 0.0
H1024 H 0.23705 0.83793 0.6588 0.0
H1025 H 0.21535 0.87971 0.64924 0.0
H1026 H 0.29064 0.89117 0.62662 0.0
H1027 H 0.31241 0.84841 0.63602 0.0
H1028 H 0.22497 0.93466 0.64663 0.0
H1029 H 0.26758 0.91415 0.59823 0.0
H1030 H 0.28898 0.87538 0.58571 0.0
H1031 H 0.24324 0.81236 0.60688 0.0
H1032 H 0.22139 0.85079 0.61942 0.0
H1033 H 0.13657 0.02542 0.60832 0.0
H1034 H 0.18073 0.00465 0.61698 0.0
H1035 H 0.15165 0.92 0.60666 0.0
H1036 H 0.10843 0.9404 0.59782 0.0
H1037 H 0.20621 0.92428 0.60189 0.0
H1038 H 0.14346 0.94872 0.63653 0.0
H1039 H 0.11632 0.98246 0.64964 0.0
H1040 H 0.19353 0.02991 0.65693 0.0
H1041 H 0.22105 0.99658 0.64376 0.0
C1042 C 0.24925 0.84944 0.65189 0.0
C1043 C 0.27629 0.83956 0.64803 0.0
C1044 C 0.23686 0.87356 0.64649 0.0
C1045 C 0.25119 0.88848 0.63711 0.0
C1046 C 0.27902 0.87979 0.63374 0.0
C1047 C 0.29145 0.85539 0.63912 0.0
C1048 C 0.23528 0.91092 0.63017 0.0
C1049 C 0.22129 0.93275 0.6368 0.0
C1050 C 0.23038 0.90851 0.61734 0.0
C1051 C 0.24324 0.88528 0.60985 0.0
C1052 C 0.26212 0.89201 0.60019 0.0
C1053 C 0.2743 0.87011 0.59309 0.0
C1054 C 0.26757 0.84142 0.59553 0.0
C1055 C 0.24854 0.83458 0.60503 0.0
C1056 C 0.23627 0.8564 0.61214 0.0
C1057 C 0.13978 0.00242 0.60785 0.0
C1058 C 0.11895 0.98456 0.60243 0.0
C1059 C 0.16499 0.99058 0.6128 0.0
C1060 C 0.16951 0.96072 0.6125 0.0
C1061 C 0.14886 0.94309 0.60691 0.0
C1062 C 0.12397 0.95483 0.60192 0.0
C1063 C 0.19472 0.94698 0.61847 0.0
C1064 C 0.21068 0.92696 0.61163 0.0
C1065 C 0.20072 0.95045 0.63117 0.0
C1066 C 0.1842 0.97045 0.63905 0.0
C1067 C 0.15458 0.96649 0.64087 0.0
C1068 C 0.13915 0.9855 0.64831 0.0
C1069 C 0.15318 0.00838 0.65408 0.0
C1070 C 0.18268 0.01223 0.65243 0.0
C1071 C 0.1982 0.9933 0.64498 0.0
H1072 H 0.1412 0.02307 0.65984 0.0
H1073 H 0.27704 0.8245 0.59003 0.0
H1074 H 0.32019 0.85381 0.83152 0.0
H1075 H 0.34175 0.89721 0.84019 0.0
H1076 H 0.32288 0.86668 0.87686 0.0
H1077 H 0.29942 0.82419 0.86809 0.0
H1078 H 0.32218 0.92234 0.87724 0.0
H1079 H 0.3883 0.85179 0.8616 0.0
H1080 H 0.40952 0.81969 0.84599 0.0
H1081 H 0.42875 0.89231 0.82306 0.0
H1082 H 0.40731 0.92481 0.83849 0.0
H1083 H 0.45155 0.95522 0.90932 0.0
H1084 H 0.40893 0.93612 0.89906 0.0
H1085 H 0.42337 0.99292 0.86832 0.0
H1086 H 0.46586 0.01274 0.87873 0.0
H1087 H 0.42296 0.93219 0.86306 0.0
H1088 H 0.36466 0.00268 0.88284 0.0
H1089 H 0.34646 0.03109 0.90033 0.0
H1090 H 0.31629 0.95414 0.91783 0.0
H1091 H 0.33469 0.92518 0.90053 0.0
C1092 C 0.31991 0.85688 0.84141 0.0
C1093 C 0.30847 0.83572 0.84918 0.0
C1094 C 0.33238 0.88155 0.84637 0.0
C1095 C 0.33485 0.88478 0.85919 0.0
C1096 C 0.32143 0.86463 0.86693 0.0
C1097 C 0.30807 0.84035 0.86194 0.0
C1098 C 0.35415 0.90703 0.86449 0.0
C1099 C 0.34422 0.92447 0.87416 0.0
C1100 C 0.3829 0.91014 0.86039 0.0
C1101 C 0.39589 0.89067 0.85112 0.0
C1102 C 0.39689 0.86087 0.85319 0.0
C1103 C 0.40897 0.84262 0.84438 0.0
C1104 C 0.42039 0.85395 0.83352 0.0
C1105 C 0.41984 0.88357 0.83147 0.0
C1106 C 0.40773 0.90191 0.84024 0.0
C1107 C 0.44522 0.96417 0.90051 0.0
C1108 C 0.46205 0.98529 0.89476 0.0
C1109 C 0.42078 0.95337 0.89471 0.0
C1110 C 0.41299 0.9632 0.88297 0.0
C1111 C 0.42896 0.98527 0.87743 0.0
C1112 C 0.45315 0.99655 0.88337 0.0
C1113 C 0.39109 0.94719 0.87588 0.0
C1114 C 0.40068 0.93065 0.86592 0.0
C1115 C 0.36243 0.94439 0.87998 0.0
C1116 C 0.35123 0.96173 0.8904 0.0
C1117 C 0.35436 0.99177 0.89046 0.0
C1118 C 0.34395 0.00799 0.90034 0.0
C1119 C 0.33026 0.99443 0.91019 0.0
C1120 C 0.32689 0.96462 0.91018 0.0
C1121 C 0.33727 0.94829 0.90033 0.0
H1122 H 0.32222 0.00702 0.91783 0.0
H1123 H 0.42974 0.83978 0.82671 0.0
H1124 H 0.47638 0.06986 0.096 0.0
H1125 H 0.43211 0.08907 0.10434 0.0
H1126 H 0.40454 0.0036 0.11415 0.0
H1127 H 0.44976 0.98405 0.10601 0.0
H1128 H 0.37766 0.08398 0.09943 0.0
H1129 H 0.36378 0.01022 0.14075 0.0
H1130 H 0.39162 0.97679 0.15377 0.0
H1131 H 0.4682 0.02571 0.14708 0.0
H1132 H 0.44072 0.05953 0.13413 0.0
H1133 H 0.2742 0.16146 0.13456 0.0
H1134 H 0.29419 0.11817 0.12486 0.0
H1135 H 0.37097 0.12718 0.1468 0.0
H1136 H 0.35105 0.16942 0.15664 0.0
H1137 H 0.35969 0.07264 0.14418 0.0
H1138 H 0.36391 0.15697 0.11703 0.0
H1139 H 0.34203 0.19581 0.10472 0.0
H1140 H 0.29392 0.13364 0.08402 0.0
H1141 H 0.31536 0.09448 0.0963 0.0
C1142 C 0.46093 0.05499 0.09986 0.0
C1143 C 0.46673 0.02542 0.10044 0.0
C1144 C 0.43543 0.06604 0.10455 0.0
C1145 C 0.41495 0.04784 0.10991 0.0
C1146 C 0.42014 0.0181 0.11016 0.0
C1147 C 0.44595 0.00696 0.10551 0.0
C1148 C 0.38944 0.06096 0.11589 0.0
C1149 C 0.37331 0.08106 0.10917 0.0
C1150 C 0.38359 0.05715 0.12858 0.0
C1151 C 0.4003 0.03708 0.13635 0.0
C1152 C 0.38656 0.01379 0.14207 0.0
C1153 C 0.40226 0.9948 0.14944 0.0
C1154 C 0.43168 0.99905 0.1512 0.0
C1155 C 0.44544 0.02237 0.14566 0.0
C1156 C 0.42982 0.04143 0.1383 0.0
C1157 C 0.2951 0.15381 0.13745 0.0
C1158 C 0.31121 0.16909 0.14624 0.0
C1159 C 0.30651 0.12912 0.1319 0.0
C1160 C 0.33425 0.11958 0.13499 0.0
C1161 C 0.34951 0.13396 0.14427 0.0
C1162 C 0.33815 0.15837 0.14983 0.0
C1163 C 0.34922 0.09684 0.12786 0.0
C1164 C 0.36314 0.07472 0.13434 0.0
C1165 C 0.35378 0.09944 0.11502 0.0
C1166 C 0.3409 0.1229 0.10767 0.0
C1167 C 0.34852 0.15165 0.1099 0.0
C1168 C 0.33623 0.17369 0.10293 0.0
C1169 C 0.31651 0.1672 0.09362 0.0
C1170 C 0.30912 0.13864 0.09125 0.0
C1171 C 0.32133 0.11652 0.09821 0.0
H1172 H 0.30702 0.18429 0.08823 0.0
H1173 H 0.44381 0.98432 0.1569 0.0
H1174 H 0.14017 0.98743 0.38366 0.0
H1175 H 0.18052 0.01377 0.37451 0.0
H1176 H 0.17744 0.07487 0.40435 0.0
H1177 H 0.13715 0.04909 0.41338 0.0
H1178 H 0.17378 0.10101 0.38283 0.0
H1179 H 0.23424 0.02953 0.40101 0.0
H1180 H 0.25114 0.98047 0.40553 0.0
H1181 H 0.26733 0.96628 0.36707 0.0
H1182 H 0.25014 0.01514 0.3623 0.0
H1183 H 0.31669 0.16406 0.36388 0.0
H1184 H 0.29188 0.12534 0.37497 0.0
H1185 H 0.22793 0.12163 0.34629 0.0
H1186 H 0.25233 0.15998 0.33521 0.0
H1187 H 0.26916 0.06671 0.36872 0.0
H1188 H 0.16441 0.12942 0.36132 0.0
H1189 H 0.14849 0.17913 0.35738 0.0
H1190 H 0.22254 0.21152 0.37644 0.0
H1191 H 0.23862 0.16202 0.38065 0.0
C1192 C 0.14851 0.00615 0.38837 0.0
C1193 C 0.13526 0.01641 0.39914 0.0
C1194 C 0.17162 0.02111 0.38317 0.0
C1195 C 0.18192 0.04635 0.38873 0.0
C1196 C 0.16974 0.05556 0.39986 0.0
C1197 C 0.14667 0.04079 0.40501 0.0
C1198 C 0.20297 0.06507 0.38236 0.0
C1199 C 0.19467 0.09343 0.37983 0.0
C1200 C 0.23029 0.0553 0.37845 0.0
C1201 C 0.24064 0.02592 0.38129 0.0
C1202 C 0.24116 0.01587 0.39351 0.0
C1203 C 0.25085 0.98811 0.39612 0.0
C1204 C 0.26024 0.97025 0.38659 0.0
C1205 C 0.26002 0.98013 0.37444 0.0
C1206 C 0.25034 0.00787 0.37178 0.0
C1207 C 0.29773 0.1545 0.35981 0.0
C1208 C 0.28621 0.16537 0.34877 0.0
C1209 C 0.28369 0.13232 0.36612 0.0
C1210 C 0.25798 0.1209 0.36147 0.0
C1211 C 0.24768 0.13031 0.35004 0.0
C1212 C 0.26161 0.15234 0.34375 0.0
C1213 C 0.23964 0.10226 0.36919 0.0
C1214 C 0.24832 0.07408 0.37186 0.0
C1215 C 0.2127 0.11216 0.3734 0.0
C1216 C 0.20284 0.14203 0.37119 0.0
C1217 C 0.1772 0.14716 0.36472 0.0
C1218 C 0.16817 0.17529 0.36243 0.0
C1219 C 0.18454 0.19847 0.36662 0.0
C1220 C 0.20992 0.19355 0.37316 0.0
C1221 C 0.21902 0.16547 0.37549 0.0
H1222 H 0.17753 0.22023 0.36483 0.0
H1223 H 0.26773 0.94877 0.38863 0.0
H1224 H 0.95351 0.98556 0.38841 0.0
H1225 H 0.91713 0.01887 0.38075 0.0
H1226 H 0.97262 0.09038 0.38919 0.0
H1227 H 0.00907 0.05728 0.39697 0.0
H1228 H 0.91844 0.09914 0.39752 0.0
H1229 H 0.96308 0.06929 0.35978 0.0
H1230 H 0.98076 0.03461 0.34439 0.0
H1231 H 0.89538 0.00162 0.33968 0.0
H1232 H 0.87724 0.03587 0.35518 0.0
H1233 H 0.84926 0.20893 0.36329 0.0
H1234 H 0.88238 0.17377 0.37199 0.0
H1235 H 0.82313 0.10563 0.36315 0.0
H1236 H 0.78981 0.14068 0.35433 0.0
H1237 H 0.87747 0.09383 0.35538 0.0
H1238 H 0.83254 0.12521 0.3926 0.0
H1239 H 0.81505 0.16026 0.40787 0.0
H1240 H 0.90108 0.19069 0.41349 0.0
H1241 H 0.91905 0.15608 0.39811 0.0
C1242 C 0.9581 0.00836 0.38856 0.0
C1243 C 0.98423 0.01875 0.39331 0.0
C1244 C 0.93729 0.02735 0.38415 0.0
C1245 C 0.94225 0.05707 0.38435 0.0
C1246 C 0.96837 0.06751 0.38897 0.0
C1247 C 0.98922 0.04853 0.39336 0.0
C1248 C 0.9199 0.07734 0.38002 0.0
C1249 C 0.90972 0.09823 0.38825 0.0
C1250 C 0.908 0.07557 0.36806 0.0
C1251 C 0.91886 0.05494 0.35874 0.0
C1252 C 0.94811 0.05447 0.35555 0.0
C1253 C 0.95821 0.03493 0.34679 0.0
C1254 C 0.93922 0.01587 0.34109 0.0
C1255 C 0.91007 0.01636 0.34412 0.0
C1256 C 0.89987 0.03585 0.35289 0.0
C1257 C 0.84308 0.18651 0.3633 0.0
C1258 C 0.81689 0.17762 0.35809 0.0
C1259 C 0.86202 0.16645 0.36832 0.0
C1260 C 0.85513 0.13712 0.36826 0.0
C1261 C 0.82881 0.12818 0.36328 0.0
C1262 C 0.80976 0.14826 0.3583 0.0
C1263 C 0.87612 0.11575 0.37285 0.0
C1264 C 0.88607 0.09465 0.36467 0.0
C1265 C 0.88783 0.11735 0.38485 0.0
C1266 C 0.87711 0.13821 0.39411 0.0
C1267 C 0.8477 0.13954 0.39701 0.0
C1268 C 0.83771 0.1593 0.4057 0.0
C1269 C 0.85693 0.17774 0.41162 0.0
C1270 C 0.88621 0.17641 0.40888 0.0
C1271 C 0.89632 0.15671 0.40019 0.0
H1272 H 0.84915 0.19302 0.41835 0.0
H1273 H 0.94708 0.00076 0.3343 0.0
H1274 H 0.59556 0.05561 0.11029 0.0
H1275 H 0.63505 0.08494 0.11789 0.0
H1276 H 0.6931 0.01346 0.11381 0.0
H1277 H 0.65355 0.98368 0.10608 0.0
H1278 H 0.70071 0.0477 0.13613 0.0
H1279 H 0.69531 0.05856 0.09228 0.0
H1280 H 0.67068 0.06678 0.07249 0.0
H1281 H 0.64412 0.15035 0.08472 0.0
H1282 H 0.66822 0.14244 0.10468 0.0
H1283 H 0.81898 0.14437 0.14303 0.0
H1284 H 0.78835 0.10648 0.13456 0.0
H1285 H 0.71936 0.16749 0.1302 0.0
H1286 H 0.74982 0.20544 0.13838 0.0
H1287 H 0.72272 0.13346 0.11068 0.0
H1288 H 0.72266 0.12127 0.15494 0.0
H1289 H 0.74505 0.11356 0.17527 0.0
H1290 H 0.7802 0.03345 0.16278 0.0
H1291 H 0.75831 0.04088 0.14231 0.0
C1292 C 0.61659 0.04588 0.11114 0.0
C1293 C 0.62144 0.01735 0.10743 0.0
C1294 C 0.63914 0.06273 0.11548 0.0
C1295 C 0.66698 0.05143 0.11622 0.0
C1296 C 0.67172 0.02252 0.11323 0.0
C1297 C 0.64912 0.0056 0.10881 0.0
C1298 C 0.69115 0.0706 0.11941 0.0
C1299 C 0.706 0.06615 0.13047 0.0
C1300 C 0.69763 0.09482 0.11207 0.0
C1301 C 0.68341 0.09981 0.10001 0.0
C1302 C 0.68404 0.07861 0.09079 0.0
C1303 C 0.6702 0.08323 0.07953 0.0
C1304 C 0.6558 0.10905 0.07736 0.0
C1305 C 0.65528 0.13035 0.08642 0.0
C1306 C 0.66905 0.12583 0.0977 0.0
C1307 C 0.79738 0.14977 0.14015 0.0
C1308 C 0.7868 0.17792 0.14145 0.0
C1309 C 0.77987 0.12806 0.13538 0.0
C1310 C 0.75145 0.13409 0.13191 0.0
C1311 C 0.74121 0.16234 0.13283 0.0
C1312 C 0.75867 0.18402 0.13754 0.0
C1313 C 0.73189 0.11109 0.1276 0.0
C1314 C 0.71787 0.11478 0.11627 0.0
C1315 C 0.72607 0.08632 0.13476 0.0
C1316 C 0.73916 0.0818 0.14706 0.0
C1317 C 0.73536 0.10213 0.1565 0.0
C1318 C 0.74792 0.09779 0.16805 0.0
C1319 C 0.76412 0.07308 0.1703 0.0
C1320 C 0.76771 0.05261 0.16101 0.0
C1321 C 0.75522 0.05686 0.14944 0.0
H1322 H 0.77382 0.06975 0.17925 0.0
H1323 H 0.64509 0.11258 0.06864 0.0
H1324 H 0.81326 0.85144 0.85422 0.0
H1325 H 0.77936 0.88776 0.86155 0.0
H1326 H 0.71448 0.8225 0.86599 0.0
H1327 H 0.74798 0.78617 0.85857 0.0
H1328 H 0.69418 0.86826 0.85353 0.0
H1329 H 0.74824 0.85181 0.8908 0.0
H1330 H 0.79213 0.84884 0.90345 0.0
H1331 H 0.81038 0.93753 0.89599 0.0
H1332 H 0.76676 0.94092 0.88316 0.0
H1333 H 0.58948 0.9371 0.88968 0.0
H1334 H 0.62671 0.90617 0.88121 0.0
H1335 H 0.68472 0.97824 0.87932 0.0
H1336 H 0.64762 0.00941 0.88806 0.0
H1337 H 0.71057 0.93258 0.88928 0.0
H1338 H 0.65495 0.9501 0.85313 0.0
H1339 H 0.61106 0.9533 0.8405 0.0
H1340 H 0.59594 0.86313 0.84558 0.0
H1341 H 0.63954 0.85945 0.85839 0.0
C1342 C 0.79187 0.84476 0.85688 0.0
C1343 C 0.78332 0.81589 0.85577 0.0
C1344 C 0.77255 0.86554 0.86109 0.0
C1345 C 0.74442 0.8578 0.86432 0.0
C1346 C 0.73605 0.82894 0.86348 0.0
C1347 C 0.7553 0.80818 0.85928 0.0
C1348 C 0.72324 0.8798 0.86816 0.0
C1349 C 0.69761 0.88213 0.86143 0.0
C1350 C 0.72821 0.89855 0.87819 0.0
C1351 C 0.75442 0.89653 0.88591 0.0
C1352 C 0.76175 0.87061 0.89177 0.0
C1353 C 0.78654 0.86887 0.89899 0.0
C1354 C 0.80408 0.89296 0.90049 0.0
C1355 C 0.79681 0.91887 0.8948 0.0
C1356 C 0.77204 0.92072 0.88756 0.0
C1357 C 0.61004 0.94652 0.88737 0.0
C1358 C 0.61554 0.97578 0.88955 0.0
C1359 C 0.6313 0.92879 0.88247 0.0
C1360 C 0.65841 0.93995 0.87951 0.0
C1361 C 0.66392 0.9692 0.88153 0.0
C1362 C 0.64266 0.987 0.88648 0.0
C1363 C 0.68124 0.92068 0.87479 0.0
C1364 C 0.70721 0.91889 0.88132 0.0
C1365 C 0.67663 0.90246 0.86455 0.0
C1366 C 0.65042 0.90456 0.8568 0.0
C1367 C 0.64216 0.93099 0.85163 0.0
C1368 C 0.61735 0.93288 0.84442 0.0
C1369 C 0.60069 0.90845 0.84226 0.0
C1370 C 0.60885 0.88205 0.84727 0.0
C1371 C 0.63364 0.88004 0.85449 0.0
H1372 H 0.58149 0.90996 0.83668 0.0
H1373 H 0.82327 0.89156 0.90609 0.0
H1374 H 0.77462 0.85562 0.64298 0.0
H1375 H 0.80435 0.89542 0.6355 0.0
H1376 H 0.87749 0.83883 0.63352 0.0
H1377 H 0.84815 0.79906 0.64088 0.0
H1378 H 0.88813 0.89004 0.64635 0.0
H1379 H 0.84538 0.85817 0.60792 0.0
H1380 H 0.80487 0.84708 0.59407 0.0
H1381 H 0.77469 0.9339 0.59718 0.0
H1382 H 0.81484 0.94541 0.61119 0.0
H1383 H 0.99384 0.95503 0.61031 0.0
H1384 H 0.95705 0.92505 0.61963 0.0
H1385 H 0.89442 0.99221 0.61434 0.0
H1386 H 0.93119 0.02236 0.60471 0.0
H1387 H 0.87358 0.94192 0.60693 0.0
H1388 H 0.91871 0.97596 0.64324 0.0
H1389 H 0.95857 0.98803 0.65726 0.0
H1390 H 0.983 0.89921 0.65891 0.0
H1391 H 0.94353 0.88663 0.64475 0.0
C1392 C 0.79696 0.85159 0.64083 0.0
C1393 C 0.80902 0.82417 0.64256 0.0
C1394 C 0.81388 0.87434 0.63656 0.0
C1395 C 0.84309 0.87001 0.63402 0.0
C1396 C 0.855 0.84259 0.6355 0.0
C1397 C 0.83813 0.81985 0.63965 0.0
C1398 C 0.86174 0.89408 0.63016 0.0
C1399 C 0.88511 0.90131 0.6377 0.0
C1400 C 0.857 0.90948 0.61912 0.0
C1401 C 0.83288 0.90254 0.61072 0.0
C1402 C 0.82994 0.87482 0.60574 0.0
C1403 C 0.80709 0.86847 0.59785 0.0
C1404 C 0.78716 0.88974 0.59478 0.0
C1405 C 0.7901 0.91743 0.59959 0.0
C1406 C 0.81291 0.92388 0.6075 0.0
C1407 C 0.97234 0.96364 0.61122 0.0
C1408 C 0.96548 0.99113 0.60674 0.0
C1409 C 0.95132 0.94648 0.61662 0.0
C1410 C 0.92304 0.9565 0.61782 0.0
C1411 C 0.91614 0.98409 0.61354 0.0
C1412 C 0.9372 0.00131 0.60808 0.0
C1413 C 0.9006 0.93735 0.62294 0.0
C1414 C 0.87644 0.93105 0.61568 0.0
C1415 C 0.90445 0.92297 0.63431 0.0
C1416 C 0.92824 0.93038 0.64286 0.0
C1417 C 0.9327 0.95902 0.64652 0.0
C1418 C 0.95521 0.96595 0.65451 0.0
C1419 C 0.97333 0.94441 0.65896 0.0
C1420 C 0.96895 0.91587 0.65545 0.0
C1421 C 0.94648 0.90883 0.64746 0.0
H1422 H 0.99075 0.94981 0.66514 0.0
H1423 H 0.76949 0.88479 0.58866 0.0
H1424 H 0.74208 0.32766 0.15259 0.0
H1425 H 0.72288 0.37059 0.14302 0.0
H1426 H 0.80554 0.38845 0.12679 0.0
H1427 H 0.82499 0.34459 0.13625 0.0
H1428 H 0.73283 0.42594 0.14411 0.0
H1429 H 0.79203 0.4195 0.09828 0.0
H1430 H 0.81847 0.38471 0.08539 0.0
H1431 H 0.76767 0.31582 0.10008 0.0
H1432 H 0.74077 0.35025 0.11294 0.0
H1433 H 0.65269 0.52443 0.107 0.0
H1434 H 0.69627 0.50318 0.11595 0.0
H1435 H 0.6747 0.42167 0.09943 0.0
H1436 H 0.63221 0.44273 0.09025 0.0
H1437 H 0.72985 0.42811 0.09846 0.0
H1438 H 0.65556 0.44117 0.13009 0.0
H1439 H 0.62328 0.47054 0.14298 0.0
H1440 H 0.69558 0.51787 0.1568 0.0
H1441 H 0.72824 0.48891 0.14388 0.0
C1442 C 0.75636 0.34072 0.14707 0.0
C1443 C 0.78502 0.33252 0.14508 0.0
C1444 C 0.74536 0.36548 0.14166 0.0
C1445 C 0.76268 0.38275 0.13414 0.0
C1446 C 0.7917 0.37531 0.13249 0.0
C1447 C 0.80278 0.35029 0.1379 0.0
C1448 C 0.74912 0.40698 0.1274 0.0
C1449 C 0.73263 0.4268 0.13412 0.0
C1450 C 0.74883 0.40823 0.11438 0.0
C1451 C 0.76475 0.38736 0.10668 0.0
C1452 C 0.78654 0.39692 0.09875 0.0
C1453 C 0.80158 0.37728 0.09145 0.0
C1454 C 0.79484 0.34806 0.09196 0.0
C1455 C 0.77296 0.33843 0.09973 0.0
C1456 C 0.75783 0.35799 0.10703 0.0
C1457 C 0.65757 0.5021 0.10515 0.0
C1458 C 0.63884 0.4852 0.09802 0.0
C1459 C 0.68243 0.48998 0.11028 0.0
C1460 C 0.68866 0.46071 0.10847 0.0
C1461 C 0.67055 0.4443 0.10092 0.0
C1462 C 0.64603 0.45638 0.09574 0.0
C1463 C 0.71228 0.44592 0.11516 0.0
C1464 C 0.7309 0.42808 0.10844 0.0
C1465 C 0.71382 0.44583 0.12819 0.0
C1466 C 0.69424 0.46319 0.13592 0.0
C1467 C 0.66451 0.45797 0.13582 0.0
C1468 C 0.64617 0.47451 0.14314 0.0
C1469 C 0.65736 0.49613 0.15067 0.0
C1470 C 0.68694 0.50118 0.15093 0.0
C1471 C 0.70537 0.48472 0.14362 0.0
H1472 H 0.64313 0.50891 0.15633 0.0
H1473 H 0.80651 0.33288 0.08631 0.0
H1474 H 0.76882 0.33936 0.36304 0.0
H1475 H 0.78556 0.38504 0.37187 0.0
H1476 H 0.86496 0.37679 0.35171 0.0
H1477 H 0.84841 0.33204 0.34282 0.0
H1478 H 0.82881 0.39327 0.38668 0.0
H1479 H 0.89443 0.43698 0.34423 0.0
H1480 H 0.88695 0.44303 0.32191 0.0
H1481 H 0.79563 0.44073 0.32716 0.0
H1482 H 0.80249 0.43513 0.34954 0.0
H1483 H 0.96403 0.43642 0.40131 0.0
H1484 H 0.91876 0.41819 0.39364 0.0
H1485 H 0.89688 0.50236 0.37988 0.0
H1486 H 0.94324 0.52079 0.3873 0.0
H1487 H 0.88532 0.46504 0.36319 0.0
H1488 H 0.85834 0.47172 0.40443 0.0
H1489 H 0.86237 0.46865 0.42703 0.0
H1490 H 0.86909 0.37686 0.42474 0.0
H1491 H 0.86556 0.37935 0.40212 0.0
C1492 C 0.78961 0.34766 0.36035 0.0
C1493 C 0.80736 0.33203 0.35229 0.0
C1494 C 0.79913 0.37372 0.36539 0.0
C1495 C 0.82635 0.38463 0.36232 0.0
C1496 C 0.8436 0.36932 0.354 0.0
C1497 C 0.8342 0.34345 0.34902 0.0
C1498 C 0.83871 0.40999 0.36869 0.0
C1499 C 0.84076 0.40932 0.38158 0.0
C1500 C 0.85318 0.43184 0.36209 0.0
C1501 C 0.849 0.43561 0.3486 0.0
C1502 C 0.87273 0.43803 0.34066 0.0
C1503 C 0.8686 0.4413 0.32798 0.0
C1504 C 0.84084 0.44225 0.32312 0.0
C1505 C 0.81713 0.43995 0.33093 0.0
C1506 C 0.82113 0.43668 0.34361 0.0
C1507 C 0.94956 0.45126 0.39678 0.0
C1508 C 0.95727 0.48009 0.39491 0.0
C1509 C 0.92341 0.44082 0.39249 0.0
C1510 C 0.90397 0.459 0.38643 0.0
C1511 C 0.9114 0.48797 0.38465 0.0
C1512 C 0.93787 0.49846 0.38887 0.0
C1513 C 0.87741 0.44651 0.38104 0.0
C1514 C 0.87261 0.4497 0.36836 0.0
C1515 C 0.85975 0.42756 0.38788 0.0
C1516 C 0.86163 0.42575 0.40154 0.0
C1517 C 0.86079 0.45087 0.40873 0.0
C1518 C 0.86299 0.44923 0.42156 0.0
C1519 C 0.86597 0.42258 0.42732 0.0
C1520 C 0.86672 0.3975 0.42027 0.0
C1521 C 0.86453 0.399 0.40744 0.0
H1522 H 0.8677 0.42136 0.43725 0.0
H1523 H 0.8377 0.44476 0.3133 0.0
H1524 H 0.95151 0.47955 0.60904 0.0
H1525 H 0.90748 0.49831 0.61856 0.0
H1526 H 0.91664 0.57673 0.59776 0.0
H1527 H 0.95971 0.55809 0.58812 0.0
H1528 H 0.90195 0.54172 0.63322 0.0
H1529 H 0.85669 0.60905 0.59165 0.0
H1530 H 0.84906 0.60246 0.56936 0.0
H1531 H 0.84949 0.51093 0.57407 0.0
H1532 H 0.85667 0.51692 0.59642 0.0
H1533 H 0.85842 0.67646 0.64944 0.0
H1534 H 0.87722 0.63249 0.64064 0.0
H1535 H 0.79216 0.60843 0.62872 0.0
H1536 H 0.77301 0.65332 0.6374 0.0
H1537 H 0.82907 0.59946 0.61088 0.0
H1538 H 0.82506 0.57043 0.65204 0.0
H1539 H 0.82967 0.57365 0.67462 0.0
H1540 H 0.92117 0.58138 0.67122 0.0
H1541 H 0.91712 0.57866 0.64862 0.0
C1542 C 0.94376 0.50057 0.60636 0.0
C1543 C 0.95915 0.51737 0.59786 0.0
C1544 C 0.91863 0.51126 0.6118 0.0
C1545 C 0.90843 0.53878 0.60875 0.0
C1546 C 0.92352 0.55516 0.60005 0.0
C1547 C 0.94843 0.54455 0.59462 0.0
C1548 C 0.88407 0.55214 0.61547 0.0
C1549 C 0.8857 0.55396 0.62835 0.0
C1550 C 0.86201 0.56715 0.6092 0.0
C1551 C 0.85728 0.56346 0.59574 0.0
C1552 C 0.85491 0.58751 0.58796 0.0
C1553 C 0.85073 0.58387 0.5753 0.0
C1554 C 0.84881 0.5563 0.5703 0.0
C1555 C 0.85103 0.53228 0.57795 0.0
C1556 C 0.8552 0.53579 0.59062 0.0
C1557 C 0.84354 0.66183 0.64503 0.0
C1558 C 0.81418 0.66841 0.64413 0.0
C1559 C 0.85434 0.63646 0.64009 0.0
C1560 C 0.83605 0.61677 0.63425 0.0
C1561 C 0.80663 0.62319 0.6333 0.0
C1562 C 0.79574 0.64881 0.63824 0.0
C1563 C 0.84861 0.59074 0.62846 0.0
C1564 C 0.84469 0.5865 0.61578 0.0
C1565 C 0.86802 0.57288 0.63497 0.0
C1566 C 0.87075 0.57434 0.6486 0.0
C1567 C 0.84616 0.57295 0.6561 0.0
C1568 C 0.84868 0.57469 0.66891 0.0
C1569 C 0.87569 0.57771 0.67435 0.0
C1570 C 0.90026 0.57898 0.66699 0.0
C1571 C 0.89787 0.57728 0.65417 0.0
H1572 H 0.87759 0.57907 0.68427 0.0
H1573 H 0.8456 0.55354 0.5605 0.0
H1574 H 0.75111 0.66082 0.84162 0.0
H1575 H 0.73097 0.61867 0.85152 0.0
H1576 H 0.80519 0.61292 0.87521 0.0
H1577 H 0.82551 0.65586 0.86534 0.0
H1578 H 0.74444 0.56402 0.85505 0.0
H1579 H 0.77976 0.59284 0.90393 0.0
H1580 H 0.79651 0.63455 0.91601 0.0
H1581 H 0.74927 0.69134 0.89232 0.0
H1582 H 0.73202 0.64995 0.88021 0.0
H1583 H 0.65545 0.47215 0.89209 0.0
H1584 H 0.69972 0.49427 0.88422 0.0
H1585 H 0.66726 0.57792 0.89429 0.0
H1586 H 0.62431 0.55601 0.90264 0.0
H1587 H 0.72022 0.57752 0.89915 0.0
H1588 H 0.66316 0.54582 0.86347 0.0
H1589 H 0.63997 0.50899 0.85048 0.0
H1590 H 0.72073 0.46557 0.84628 0.0
H1591 H 0.7443 0.50205 0.85933 0.0
C1592 C 0.7634 0.65048 0.84884 0.0
C1593 C 0.78973 0.66193 0.85282 0.0
C1594 C 0.75194 0.62615 0.85443 0.0
C1595 C 0.76644 0.61271 0.86417 0.0
C1596 C 0.79353 0.6231 0.86776 0.0
C1597 C 0.80512 0.64759 0.86212 0.0
C1598 C 0.75129 0.58999 0.87121 0.0
C1599 C 0.73954 0.56664 0.86476 0.0
C1600 C 0.74482 0.59338 0.88386 0.0
C1601 C 0.75502 0.61838 0.89108 0.0
C1602 C 0.77299 0.61424 0.90131 0.0
C1603 C 0.78254 0.63782 0.90817 0.0
C1604 C 0.77407 0.66559 0.9049 0.0
C1605 C 0.75593 0.66984 0.89481 0.0
C1606 C 0.74628 0.64634 0.88794 0.0
C1607 C 0.65803 0.49522 0.89269 0.0
C1608 C 0.63642 0.51236 0.89795 0.0
C1609 C 0.68326 0.50786 0.88817 0.0
C1610 C 0.68684 0.53786 0.88855 0.0
C1611 C 0.66532 0.55474 0.89397 0.0
C1612 C 0.64059 0.54216 0.8987 0.0
C1613 C 0.71188 0.55252 0.8828 0.0
C1614 C 0.72584 0.57418 0.88955 0.0
C1615 C 0.71954 0.5482 0.87031 0.0
C1616 C 0.70537 0.52639 0.86248 0.0
C1617 C 0.6759 0.52831 0.85982 0.0
C1618 C 0.6627 0.50753 0.85245 0.0
C1619 C 0.67884 0.4849 0.84759 0.0
C1620 C 0.70824 0.48306 0.85007 0.0
C1621 C 0.72152 0.50378 0.85745 0.0
H1622 H 0.66859 0.46883 0.84189 0.0
H1623 H 0.7815 0.6838 0.91021 0.0
H1624 H 0.50272 0.55477 0.90344 0.0
H1625 H 0.46824 0.59011 0.896 0.0
H1626 H 0.43281 0.52708 0.87107 0.0
H1627 H 0.46619 0.49106 0.87914 0.0
H1628 H 0.45907 0.61539 0.87644 0.0
H1629 H 0.36359 0.5393 0.86488 0.0
H1630 H 0.34273 0.49379 0.87231 0.0
H1631 H 0.38026 0.50768 0.90795 0.0
H1632 H 0.40102 0.55342 0.90079 0.0
H1633 H 0.36102 0.69333 0.8406 0.0
H1634 H 0.3944 0.65803 0.849 0.0
H1635 H 0.33473 0.63965 0.87842 0.0
H1636 H 0.30035 0.67345 0.86939 0.0
H1637 H 0.35546 0.59309 0.87212 0.0
H1638 H 0.39966 0.68223 0.88189 0.0
H1639 H 0.4189 0.73081 0.87822 0.0
H1640 H 0.48122 0.69629 0.85312 0.0
H1641 H 0.4621 0.64753 0.85653 0.0
C1642 C 0.48757 0.54846 0.89636 0.0
C1643 C 0.48701 0.52017 0.89189 0.0
C1644 C 0.46787 0.56871 0.89209 0.0
C1645 C 0.44754 0.56128 0.88308 0.0
C1646 C 0.44767 0.53321 0.87828 0.0
C1647 C 0.46689 0.51268 0.88281 0.0
C1648 C 0.42642 0.58302 0.87873 0.0
C1649 C 0.4364 0.61049 0.87554 0.0
C1650 C 0.39667 0.57704 0.87783 0.0
C1651 C 0.38411 0.54963 0.88224 0.0
C1652 C 0.36731 0.53268 0.87431 0.0
C1653 C 0.35552 0.50684 0.87847 0.0
C1654 C 0.36025 0.4978 0.89058 0.0
C1655 C 0.37671 0.51464 0.89856 0.0
C1656 C 0.38852 0.54051 0.89445 0.0
C1657 C 0.35515 0.68182 0.84889 0.0
C1658 C 0.32828 0.68618 0.85442 0.0
C1659 C 0.37431 0.66176 0.85375 0.0
C1660 C 0.36749 0.64653 0.86454 0.0
C1661 C 0.34059 0.65106 0.8701 0.0
C1662 C 0.32101 0.67046 0.86499 0.0
C1663 C 0.38812 0.62547 0.86984 0.0
C1664 C 0.37809 0.59807 0.87312 0.0
C1665 C 0.41761 0.63198 0.87143 0.0
C1666 C 0.42928 0.66126 0.86939 0.0
C1667 C 0.41735 0.68503 0.87553 0.0
C1668 C 0.42825 0.71259 0.87351 0.0
C1669 C 0.45122 0.71664 0.86542 0.0
C1670 C 0.4634 0.69312 0.85937 0.0
C1671 C 0.45257 0.66551 0.86136 0.0
H1672 H 0.45962 0.738 0.86386 0.0
H1673 H 0.35112 0.47778 0.89378 0.0
H1674 H 0.13039 0.49377 0.61425 0.0
H1675 H 0.16429 0.5275 0.62372 0.0
H1676 H 0.13288 0.59495 0.59996 0.0
H1677 H 0.09791 0.56192 0.59115 0.0
H1678 H 0.20708 0.55605 0.61683 0.0
H1679 H 0.13651 0.65916 0.61231 0.0
H1680 H 0.08529 0.67257 0.61299 0.0
H1681 H 0.06672 0.59742 0.63447 0.0
H1682 H 0.11786 0.58377 0.63405 0.0
H1683 H 0.29736 0.676 0.62666 0.0
H1684 H 0.26369 0.6405 0.61833 0.0
H1685 H 0.20461 0.65922 0.64796 0.0
H1686 H 0.23713 0.69612 0.65559 0.0
H1687 H 0.17506 0.65307 0.62971 0.0
H1688 H 0.25055 0.59579 0.64617 0.0
H1689 H 0.30025 0.57903 0.6493 0.0
H1690 H 0.3063 0.55666 0.61102 0.0
H1691 H 0.25673 0.57362 0.60762 0.0
C1692 C 0.13067 0.51588 0.61116 0.0
C1693 C 0.11129 0.52541 0.60213 0.0
C1694 C 0.1501 0.53511 0.61652 0.0
C1695 C 0.1508 0.564 0.61276 0.0
C1696 C 0.13216 0.5731 0.60336 0.0
C1697 C 0.11225 0.55416 0.59828 0.0
C1698 C 0.17097 0.58471 0.61857 0.0
C1699 C 0.20006 0.57722 0.61971 0.0
C1700 C 0.16179 0.6121 0.62265 0.0
C1701 C 0.13099 0.62032 0.62304 0.0
C1702 C 0.12151 0.64557 0.61722 0.0
C1703 C 0.09249 0.6532 0.61755 0.0
C1704 C 0.07275 0.63581 0.62374 0.0
C1705 C 0.08201 0.61081 0.62964 0.0
C1706 C 0.11101 0.6031 0.62935 0.0
C1707 C 0.27706 0.67255 0.63128 0.0
C1708 C 0.26968 0.68879 0.6417 0.0
C1709 C 0.25794 0.65208 0.62662 0.0
C1710 C 0.2317 0.64666 0.63263 0.0
C1711 C 0.22454 0.66297 0.64308 0.0
C1712 C 0.24316 0.68405 0.64746 0.0
C1713 C 0.21133 0.62455 0.62796 0.0
C1714 C 0.18215 0.63184 0.62695 0.0
C1715 C 0.22022 0.59649 0.62463 0.0
C1716 C 0.25002 0.58623 0.62662 0.0
C1717 C 0.26255 0.58747 0.6384 0.0
C1718 C 0.29068 0.57791 0.64023 0.0
C1719 C 0.30645 0.56685 0.63036 0.0
C1720 C 0.29407 0.56526 0.61865 0.0
C1721 C 0.26595 0.57482 0.61677 0.0
H1722 H 0.32823 0.55947 0.63179 0.0
H1723 H 0.05029 0.64175 0.62397 0.0
H1724 H 0.12959 0.50692 0.37559 0.0
H1725 H 0.16372 0.47411 0.36572 0.0
H1726 H 0.12964 0.40387 0.38718 0.0
H1727 H 0.09451 0.4361 0.39637 0.0
H1728 H 0.20556 0.44523 0.37299 0.0
H1729 H 0.13564 0.34097 0.37386 0.0
H1730 H 0.08479 0.32724 0.37149 0.0
H1731 H 0.06861 0.40435 0.35095 0.0
H1732 H 0.11943 0.41836 0.35305 0.0
H1733 H 0.29788 0.32658 0.36642 0.0
H1734 H 0.26215 0.36173 0.3732 0.0
H1735 H 0.21061 0.34281 0.3411 0.0
H1736 H 0.24519 0.30623 0.33488 0.0
H1737 H 0.17679 0.34879 0.35806 0.0
H1738 H 0.25463 0.4067 0.3448 0.0
H1739 H 0.30459 0.42394 0.34345 0.0
H1740 H 0.30325 0.44576 0.38188 0.0
H1741 H 0.2534 0.4283 0.38349 0.0
C1742 C 0.12925 0.48439 0.37805 0.0
C1743 C 0.10922 0.47394 0.38661 0.0
C1744 C 0.1488 0.46567 0.37246 0.0
C1745 C 0.14899 0.43632 0.37551 0.0
C1746 C 0.12938 0.42614 0.38432 0.0
C1747 C 0.10937 0.44463 0.38963 0.0
C1748 C 0.17012 0.41639 0.36982 0.0
C1749 C 0.19923 0.42422 0.36964 0.0
C1750 C 0.1619 0.38924 0.36511 0.0
C1751 C 0.13132 0.38081 0.36371 0.0
C1752 C 0.12127 0.35493 0.36879 0.0
C1753 C 0.09244 0.34712 0.36751 0.0
C1754 C 0.07347 0.36496 0.36111 0.0
C1755 C 0.08331 0.3906 0.35594 0.0
C1756 C 0.11212 0.3985 0.35719 0.0
C1757 C 0.27881 0.32992 0.36088 0.0
C1758 C 0.27417 0.31374 0.35017 0.0
C1759 C 0.25852 0.3502 0.36468 0.0
C1760 C 0.23384 0.35548 0.35754 0.0
C1761 C 0.22934 0.3392 0.34681 0.0
C1762 C 0.24912 0.3183 0.34325 0.0
C1763 C 0.21236 0.37742 0.36136 0.0
C1764 C 0.18315 0.36992 0.36125 0.0
C1765 C 0.22037 0.40539 0.3652 0.0
C1766 C 0.25035 0.41596 0.36428 0.0
C1767 C 0.26506 0.415 0.35298 0.0
C1768 C 0.29335 0.42484 0.35216 0.0
C1769 C 0.30711 0.43588 0.36258 0.0
C1770 C 0.29258 0.43717 0.37382 0.0
C1771 C 0.26429 0.42734 0.37469 0.0
H1772 H 0.32901 0.44349 0.36193 0.0
H1773 H 0.05115 0.35888 0.36014 0.0
H1774 H 0.45075 0.51154 0.10388 0.0
H1775 H 0.41596 0.47768 0.11233 0.0
H1776 H 0.48283 0.41434 0.1166 0.0
H1777 H 0.51772 0.44786 0.10795 0.0
H1778 H 0.43711 0.39178 0.10555 0.0
H1779 H 0.45376 0.44918 0.14157 0.0
H1780 H 0.45723 0.49396 0.1536 0.0
H1781 H 0.36839 0.51198 0.14636 0.0
H1782 H 0.36449 0.46748 0.13413 0.0
H1783 H 0.35943 0.29211 0.14197 0.0
H1784 H 0.39377 0.32673 0.13381 0.0
H1785 H 0.32593 0.38905 0.12957 0.0
H1786 H 0.29143 0.35471 0.13797 0.0
H1787 H 0.37173 0.41237 0.1405 0.0
H1788 H 0.35508 0.35475 0.10457 0.0
H1789 H 0.35165 0.30982 0.09263 0.0
H1790 H 0.44059 0.29215 0.09977 0.0
H1791 H 0.44447 0.3368 0.1119 0.0
C1792 C 0.45817 0.49054 0.10676 0.0
C1793 C 0.48702 0.48239 0.1052 0.0
C1794 C 0.43824 0.47123 0.11162 0.0
C1795 C 0.44683 0.44353 0.11515 0.0
C1796 C 0.47574 0.43559 0.1139 0.0
C1797 C 0.49566 0.45483 0.10899 0.0
C1798 C 0.42544 0.42237 0.11958 0.0
C1799 C 0.42309 0.39611 0.11331 0.0
C1800 C 0.40663 0.42838 0.12947 0.0
C1801 C 0.40892 0.45513 0.13684 0.0
C1802 C 0.43503 0.46281 0.14246 0.0
C1803 C 0.43706 0.48811 0.14933 0.0
C1804 C 0.41307 0.50584 0.15072 0.0
C1805 C 0.38697 0.49825 0.14526 0.0
C1806 C 0.38483 0.47297 0.13837 0.0
C1807 C 0.3517 0.31307 0.1392 0.0
C1808 C 0.32266 0.32064 0.14063 0.0
C1809 C 0.37138 0.33282 0.13449 0.0
C1810 C 0.36237 0.3604 0.131 0.0
C1811 C 0.33333 0.36788 0.13223 0.0
C1812 C 0.31363 0.34818 0.13698 0.0
C1813 C 0.38346 0.38177 0.12649 0.0
C1814 C 0.38574 0.40807 0.13274 0.0
C1815 C 0.40223 0.3758 0.11658 0.0
C1816 C 0.39999 0.349 0.10923 0.0
C1817 C 0.37385 0.34118 0.10367 0.0
C1818 C 0.37184 0.31578 0.09686 0.0
C1819 C 0.39587 0.29811 0.09547 0.0
C1820 C 0.42199 0.30584 0.10087 0.0
C1821 C 0.42411 0.33121 0.1077 0.0
H1822 H 0.39426 0.27845 0.0902 0.0
H1823 H 0.41468 0.52542 0.15604 0.0
loop_
_geom_bond_atom_site_label_1
_geom_bond_atom_site_label_2
_geom_bond_distance
_geom_bond_site_symmetry_2
_ccdc_geom_bond_type
O0 Cd1 2.229 . S
O0 C8 1.315 1_655 S
Cd1 O0 2.229 . S
Cd1 O4 2.293 1_655 S
Cd1 O5 2.420 1_655 S
Cd1 O11 2.238 1_655 S
Cd2 O3 2.240 1_565 S
Cd2 O10 2.223 . S
Cd2 O12 2.297 . S
Cd2 O13 2.439 1_565 S
O3 Cd2 2.240 1_545 S
O3 C8 1.279 . S
O4 Cd1 2.293 1_455 S
O4 C6 1.247 . S
O5 Cd1 2.420 1_455 S
O5 C6 1.208 . S
C6 O4 1.247 . S
C6 O5 1.208 . S
C7 O12 1.247 . S
C7 O13 1.208 1_565 S
C8 O0 1.315 1_455 S
C8 O3 1.279 . S
C9 O10 1.315 1_655 S
C9 O11 1.279 1_665 S
O10 Cd2 2.223 . S
O10 C9 1.315 1_455 S
O11 Cd1 2.238 1_455 S
O11 C9 1.279 1_445 S
O12 Cd2 2.297 . S
O12 C7 1.247 . S
O13 Cd2 2.439 1_545 S
O13 C7 1.208 1_545 S
O14 Cd15 2.223 . S
O14 C22 1.315 . S
Cd15 O14 2.223 . S
Cd15 O18 2.297 . S
Cd15 O19 2.439 . S
Cd15 O25 2.240 . S
Cd16 O17 2.240 . S
Cd16 O24 2.223 . S
Cd16 O26 2.297 . S
Cd16 O27 2.439 . S
O17 Cd16 2.240 . S
O17 C22 1.279 . S
O18 Cd15 2.297 . S
O18 C20 1.247 . S
O19 Cd15 2.439 . S
O19 C20 1.208 . S
C20 O18 1.247 . S
C20 O19 1.208 . S
C21 O26 1.247 . S
C21 O27 1.208 . S
C22 O14 1.315 . S
C22 O17 1.279 . S
C23 O24 1.315 . S
C23 O25 1.279 . S
O24 Cd16 2.223 . S
O24 C23 1.315 . S
O25 Cd15 2.240 . S
O25 C23 1.279 . S
O26 Cd16 2.297 . S
O26 C21 1.247 . S
O27 Cd16 2.439 . S
O27 C21 1.208 . S
O28 Cd29 2.223 . S
O28 C36 1.315 . S
Cd29 O28 2.223 . S
Cd29 O32 2.297 . S
Cd29 O33 2.439 . S
Cd29 O39 2.240 . S
Cd30 O31 2.240 1_545 S
Cd30 O38 2.223 . S
Cd30 O40 2.297 . S
Cd30 O41 2.439 1_545 S
O31 Cd30 2.240 1_565 S
O31 C36 1.279 . S
O32 Cd29 2.297 . S
O32 C34 1.247 . S
O33 Cd29 2.439 . S
O33 C34 1.208 . S
C34 O32 1.247 . S
C34 O33 1.208 . S
C35 O40 1.247 . S
C35 O41 1.208 1_545 S
C36 O28 1.315 . S
C36 O31 1.279 . S
C37 O38 1.315 . S
C37 O39 1.279 1_545 S
O38 Cd30 2.223 . S
O38 C37 1.315 . S
O39 Cd29 2.240 . S
O39 C37 1.279 1_565 S
O40 Cd30 2.297 . S
O40 C35 1.247 . S
O41 Cd30 2.439 1_565 S
O41 C35 1.208 1_565 S
O42 Cd43 2.223 . S
O42 C50 1.315 . S
Cd43 O42 2.223 . S
Cd43 O46 2.297 . S
Cd43 O47 2.439 . S
Cd43 O53 2.240 . S
Cd44 O45 2.240 . S
Cd44 O52 2.223 . S
Cd44 O54 2.297 . S
Cd44 O55 2.439 . S
O45 Cd44 2.240 . S
O45 C50 1.279 . S
O46 Cd43 2.297 . S
O46 C48 1.247 . S
O47 Cd43 2.439 . S
O47 C48 1.208 . S
C48 O46 1.247 . S
C48 O47 1.208 . S
C49 O54 1.247 . S
C49 O55 1.208 . S
C50 O42 1.315 . S
C50 O45 1.279 . S
C51 O52 1.315 . S
C51 O53 1.279 . S
O52 Cd44 2.223 . S
O52 C51 1.315 . S
O53 Cd43 2.240 . S
O53 C51 1.279 . S
O54 Cd44 2.297 . S
O54 C49 1.247 . S
O55 Cd44 2.439 . S
O55 C49 1.208 . S
O56 Cd57 2.229 . S
O56 C64 1.315 1_655 S
Cd57 O56 2.229 . S
Cd57 O60 2.293 1_655 S
Cd57 O61 2.420 1_655 S
Cd57 O67 2.238 1_655 S
Cd58 O59 2.240 1_545 S
Cd58 O66 2.223 . S
Cd58 O68 2.297 . S
Cd58 O69 2.439 1_545 S
O59 Cd58 2.240 1_565 S
O59 C64 1.279 . S
O60 Cd57 2.293 1_455 S
O60 C62 1.247 . S
O61 Cd57 2.420 1_455 S
O61 C62 1.208 . S
C62 O60 1.247 . S
C62 O61 1.208 . S
C63 O68 1.247 . S
C63 O69 1.208 1_545 S
C64 O56 1.315 1_455 S
C64 O59 1.279 . S
C65 O66 1.315 1_655 S
C65 O67 1.279 1_645 S
O66 Cd58 2.223 . S
O66 C65 1.315 1_455 S
O67 Cd57 2.238 1_455 S
O67 C65 1.279 1_465 S
O68 Cd58 2.297 . S
O68 C63 1.247 . S
O69 Cd58 2.439 1_565 S
O69 C63 1.208 1_565 S
O70 Cd71 2.223 . S
O70 C78 1.315 . S
Cd71 O70 2.223 . S
Cd71 O74 2.297 . S
Cd71 O75 2.439 . S
Cd71 O81 2.240 . S
Cd72 O73 2.240 . S
Cd72 O80 2.223 . S
Cd72 O82 2.297 . S
Cd72 O83 2.439 . S
O73 Cd72 2.240 . S
O73 C78 1.279 . S
O74 Cd71 2.297 . S
O74 C76 1.247 . S
O75 Cd71 2.439 . S
O75 C76 1.208 . S
C76 O74 1.247 . S
C76 O75 1.208 . S
C77 O82 1.247 . S
C77 O83 1.208 . S
C78 O70 1.315 . S
C78 O73 1.279 . S
C79 O80 1.315 . S
C79 O81 1.279 . S
O80 Cd72 2.223 . S
O80 C79 1.315 . S
O81 Cd71 2.240 . S
O81 C79 1.279 . S
O82 Cd72 2.297 . S
O82 C77 1.247 . S
O83 Cd72 2.439 . S
O83 C77 1.208 . S
O84 Cd85 2.223 . S
O84 C92 1.315 . S
Cd85 O84 2.223 . S
Cd85 O88 2.297 . S
Cd85 O89 2.439 . S
Cd85 O95 2.240 . S
Cd86 O87 2.240 1_565 S
Cd86 O94 2.223 . S
Cd86 O96 2.297 . S
Cd86 O97 2.439 1_565 S
O87 Cd86 2.240 1_545 S
O87 C92 1.279 . S
O88 Cd85 2.297 . S
O88 C90 1.247 . S
O89 Cd85 2.439 . S
O89 C90 1.208 . S
C90 O88 1.247 . S
C90 O89 1.208 . S
C91 O96 1.247 . S
C91 O97 1.208 1_565 S
C92 O84 1.315 . S
C92 O87 1.279 . S
C93 O94 1.315 . S
C93 O95 1.279 1_565 S
O94 Cd86 2.223 . S
O94 C93 1.315 . S
O95 Cd85 2.240 . S
O95 C93 1.279 1_545 S
O96 Cd86 2.297 . S
O96 C91 1.247 . S
O97 Cd86 2.439 1_545 S
O97 C91 1.208 1_545 S
O98 Cd99 2.223 . S
O98 C106 1.315 . S
Cd99 O98 2.223 . S
Cd99 O102 2.297 . S
Cd99 O103 2.439 . S
Cd99 O109 2.240 . S
Cd100 O101 2.240 . S
Cd100 O108 2.223 . S
Cd100 O110 2.297 . S
Cd100 O111 2.439 . S
O101 Cd100 2.240 . S
O101 C106 1.279 . S
O102 Cd99 2.297 . S
O102 C104 1.247 . S
O103 Cd99 2.439 . S
O103 C104 1.208 . S
C104 O102 1.247 . S
C104 O103 1.208 . S
C105 O110 1.247 . S
C105 O111 1.208 . S
C106 O98 1.315 . S
C106 O101 1.279 . S
C107 O108 1.315 . S
C107 O109 1.279 . S
O108 Cd100 2.223 . S
O108 C107 1.315 . S
O109 Cd99 2.240 . S
O109 C107 1.279 . S
O110 Cd100 2.297 . S
O110 C105 1.247 . S
O111 Cd100 2.439 . S
O111 C105 1.208 . S
O112 Cd113 2.223 . S
O112 C120 1.315 . S
Cd113 O112 2.223 . S
Cd113 O116 2.297 . S
Cd113 O117 2.439 . S
Cd113 O123 2.240 . S
Cd114 O115 2.240 . S
Cd114 O122 2.223 . S
Cd114 O124 2.297 . S
Cd114 O125 2.439 . S
O115 Cd114 2.240 . S
O115 C120 1.279 . S
O116 Cd113 2.297 . S
O116 C118 1.247 . S
O117 Cd113 2.439 . S
O117 C118 1.208 . S
C118 O116 1.247 . S
C118 O117 1.208 . S
C119 O124 1.247 . S
C119 O125 1.208 . S
C120 O112 1.315 . S
C120 O115 1.279 . S
C121 O122 1.315 . S
C121 O123 1.279 . S
O122 Cd114 2.223 . S
O122 C121 1.315 . S
O123 Cd113 2.240 . S
O123 C121 1.279 . S
O124 Cd114 2.297 . S
O124 C119 1.247 . S
O125 Cd114 2.439 . S
O125 C119 1.208 . S
O126 Cd127 2.223 . S
O126 C134 1.315 . S
Cd127 O126 2.223 . S
Cd127 O130 2.297 . S
Cd127 O131 2.439 . S
Cd127 O137 2.240 . S
Cd128 O129 2.240 . S
Cd128 O136 2.223 . S
Cd128 O138 2.297 . S
Cd128 O139 2.439 . S
O129 Cd128 2.240 . S
O129 C134 1.279 . S
O130 Cd127 2.297 . S
O130 C132 1.247 . S
O131 Cd127 2.439 . S
O131 C132 1.208 . S
C132 O130 1.247 . S
C132 O131 1.208 . S
C133 O138 1.247 . S
C133 O139 1.208 . S
C134 O126 1.315 . S
C134 O129 1.279 . S
C135 O136 1.315 . S
C135 O137 1.279 . S
O136 Cd128 2.223 . S
O136 C135 1.315 . S
O137 Cd127 2.240 . S
O137 C135 1.279 . S
O138 Cd128 2.297 . S
O138 C133 1.247 . S
O139 Cd128 2.439 . S
O139 C133 1.208 . S
O140 Cd141 2.223 . S
O140 C148 1.315 . S
Cd141 O140 2.223 . S
Cd141 O144 2.297 . S
Cd141 O145 2.439 . S
Cd141 O151 2.240 . S
Cd142 O143 2.240 . S
Cd142 O150 2.223 . S
Cd142 O152 2.297 . S
Cd142 O153 2.439 . S
O143 Cd142 2.240 . S
O143 C148 1.279 . S
O144 Cd141 2.297 . S
O144 C146 1.247 . S
O145 Cd141 2.439 . S
O145 C146 1.208 . S
C146 O144 1.247 . S
C146 O145 1.208 . S
C147 O152 1.247 . S
C147 O153 1.208 . S
C148 O140 1.315 . S
C148 O143 1.279 . S
C149 O150 1.315 . S
C149 O151 1.279 . S
O150 Cd142 2.223 . S
O150 C149 1.315 . S
O151 Cd141 2.240 . S
O151 C149 1.279 . S
O152 Cd142 2.297 . S
O152 C147 1.247 . S
O153 Cd142 2.439 . S
O153 C147 1.208 . S
O154 Cd155 2.223 . S
O154 C162 1.315 . S
Cd155 O154 2.223 . S
Cd155 O158 2.297 . S
Cd155 O159 2.439 . S
Cd155 O165 2.240 . S
Cd156 O157 2.240 . S
Cd156 O164 2.223 . S
Cd156 O166 2.297 . S
Cd156 O167 2.439 . S
O157 Cd156 2.240 . S
O157 C162 1.279 . S
O158 Cd155 2.297 . S
O158 C160 1.247 . S
O159 Cd155 2.439 . S
O159 C160 1.208 . S
C160 O158 1.247 . S
C160 O159 1.208 . S
C161 O166 1.247 . S
C161 O167 1.208 . S
C162 O154 1.315 . S
C162 O157 1.279 . S
C163 O164 1.315 . S
C163 O165 1.279 . S
O164 Cd156 2.223 . S
O164 C163 1.315 . S
O165 Cd155 2.240 . S
O165 C163 1.279 . S
O166 Cd156 2.297 . S
O166 C161 1.247 . S
O167 Cd156 2.439 . S
O167 C161 1.208 . S
O168 Cd169 2.223 . S
O168 C176 1.315 . S
Cd169 O168 2.223 . S
Cd169 O172 2.297 . S
Cd169 O173 2.439 . S
Cd169 O179 2.240 . S
Cd170 O171 2.240 . S
Cd170 O178 2.223 . S
Cd170 O180 2.297 . S
Cd170 O181 2.439 . S
O171 Cd170 2.240 . S
O171 C176 1.279 . S
O172 Cd169 2.297 . S
O172 C174 1.247 . S
O173 Cd169 2.439 . S
O173 C174 1.208 . S
C174 O172 1.247 . S
C174 O173 1.208 . S
C175 O180 1.247 . S
C175 O181 1.208 . S
C176 O168 1.315 . S
C176 O171 1.279 . S
C177 O178 1.315 . S
C177 O179 1.279 . S
O178 Cd170 2.223 . S
O178 C177 1.315 . S
O179 Cd169 2.240 . S
O179 C177 1.279 . S
O180 Cd170 2.297 . S
O180 C175 1.247 . S
O181 Cd170 2.439 . S
O181 C175 1.208 . S
O182 Cd183 2.223 . S
O182 C190 1.315 . S
Cd183 O182 2.223 . S
Cd183 O186 2.297 . S
Cd183 O187 2.439 . S
Cd183 O193 2.240 . S
Cd184 O185 2.240 . S
Cd184 O192 2.223 . S
Cd184 O194 2.297 . S
Cd184 O195 2.439 . S
O185 Cd184 2.240 . S
O185 C190 1.279 . S
O186 Cd183 2.297 . S
O186 C188 1.247 . S
O187 Cd183 2.439 . S
O187 C188 1.208 . S
C188 O186 1.247 . S
C188 O187 1.208 . S
C189 O194 1.247 . S
C189 O195 1.208 . S
C190 O182 1.315 . S
C190 O185 1.279 . S
C191 O192 1.315 . S
C191 O193 1.279 . S
O192 Cd184 2.223 . S
O192 C191 1.315 . S
O193 Cd183 2.240 . S
O193 C191 1.279 . S
O194 Cd184 2.297 . S
O194 C189 1.247 . S
O195 Cd184 2.439 . S
O195 C189 1.208 . S
O196 Cd197 2.223 . S
O196 C204 1.315 . S
Cd197 O196 2.223 . S
Cd197 O200 2.297 . S
Cd197 O201 2.439 . S
Cd197 O207 2.240 . S
Cd198 O199 2.240 . S
Cd198 O206 2.223 . S
Cd198 O208 2.297 . S
Cd198 O209 2.439 . S
O199 Cd198 2.240 . S
O199 C204 1.279 . S
O200 Cd197 2.297 . S
O200 C202 1.247 . S
O201 Cd197 2.439 . S
O201 C202 1.208 . S
C202 O200 1.247 . S
C202 O201 1.208 . S
C203 O208 1.247 . S
C203 O209 1.208 . S
C204 O196 1.315 . S
C204 O199 1.279 . S
C205 O206 1.315 . S
C205 O207 1.279 . S
O206 Cd198 2.223 . S
O206 C205 1.315 . S
O207 Cd197 2.240 . S
O207 C205 1.279 . S
O208 Cd198 2.297 . S
O208 C203 1.247 . S
O209 Cd198 2.439 . S
O209 C203 1.208 . S
O210 Cd211 2.223 . S
O210 C218 1.315 . S
Cd211 O210 2.223 . S
Cd211 O214 2.297 . S
Cd211 O215 2.439 . S
Cd211 O221 2.240 . S
Cd212 O213 2.240 . S
Cd212 O220 2.223 . S
Cd212 O222 2.297 . S
Cd212 O223 2.439 . S
O213 Cd212 2.240 . S
O213 C218 1.279 . S
O214 Cd211 2.297 . S
O214 C216 1.247 . S
O215 Cd211 2.439 . S
O215 C216 1.208 . S
C216 O214 1.247 . S
C216 O215 1.208 . S
C217 O222 1.247 . S
C217 O223 1.208 . S
C218 O210 1.315 . S
C218 O213 1.279 . S
C219 O220 1.315 . S
C219 O221 1.279 . S
O220 Cd212 2.223 . S
O220 C219 1.315 . S
O221 Cd211 2.240 . S
O221 C219 1.279 . S
O222 Cd212 2.297 . S
O222 C217 1.247 . S
O223 Cd212 2.439 . S
O223 C217 1.208 . S
H224 C242 0.951 . S
H225 C244 0.951 . S
H226 C246 0.950 . S
H227 C247 0.950 . S
H228 C249 0.950 . S
H229 C252 0.950 . S
H230 C253 0.950 . S
H231 C255 0.950 . S
H232 C256 0.950 1_455 S
H233 C257 0.951 . S
H234 C259 0.951 . S
H235 C261 0.950 . S
H236 C262 0.950 . S
H237 C264 0.950 . S
H238 C267 0.950 . S
H239 C268 0.950 . S
H240 C270 0.950 . S
H241 C271 0.950 . S
C242 H224 0.951 . S
C242 C243 1.366 . S
C242 C244 1.388 . S
C243 C242 1.366 . S
C243 C247 1.385 . S
C244 H225 0.951 . S
C244 C242 1.388 . S
C244 C245 1.366 . S
C245 C244 1.366 . S
C245 C246 1.414 . S
C245 C248 1.499 . S
C246 H226 0.950 . S
C246 C245 1.414 . S
C246 C247 1.374 . S
C247 H227 0.950 . S
C247 C243 1.385 . S
C247 C246 1.374 . S
C248 C245 1.499 . S
C248 C249 1.373 . S
C248 C250 1.389 . S
C249 H228 0.950 . S
C249 C248 1.373 . S
C249 C265 1.377 . S
C250 C248 1.389 . S
C250 C251 1.524 1_455 S
C250 C264 1.377 . S
C251 C250 1.524 1_655 S
C251 C252 1.397 . S
C251 C256 1.363 . S
C252 H229 0.950 . S
C252 C251 1.397 . S
C252 C253 1.334 . S
C253 H230 0.950 . S
C253 C252 1.334 . S
C253 C254 1.287 . S
C254 C253 1.287 . S
C254 C255 1.524 . S
C254 H273 0.913 . S
C255 H231 0.950 . S
C255 C254 1.524 . S
C255 C256 1.415 . S
C256 H232 0.950 1_655 S
C256 C251 1.363 . S
C256 C255 1.415 . S
C257 H233 0.951 . S
C257 C258 1.366 . S
C257 C259 1.388 . S
C258 C257 1.366 . S
C258 C262 1.385 . S
C259 H234 0.951 . S
C259 C257 1.388 . S
C259 C260 1.366 . S
C260 C259 1.366 . S
C260 C261 1.414 . S
C260 C263 1.499 . S
C261 H235 0.950 . S
C261 C260 1.414 . S
C261 C262 1.374 . S
C262 H236 0.950 . S
C262 C258 1.385 . S
C262 C261 1.374 . S
C263 C260 1.499 . S
C263 C264 1.373 . S
C263 C265 1.389 . S
C264 H237 0.950 . S
C264 C250 1.377 . S
C264 C263 1.373 . S
C265 C249 1.377 . S
C265 C263 1.389 . S
C265 C266 1.524 . S
C266 C265 1.524 . S
C266 C267 1.397 . S
C266 C271 1.363 . S
C267 H238 0.950 . S
C267 C266 1.397 . S
C267 C268 1.334 . S
C268 H239 0.950 . S
C268 C267 1.334 . S
C268 C269 1.287 . S
C269 C268 1.287 . S
C269 C270 1.524 . S
C269 H272 0.999 . S
C270 H240 0.950 . S
C270 C269 1.524 . S
C270 C271 1.415 . S
C271 H241 0.950 . S
C271 C266 1.363 . S
C271 C270 1.415 . S
H272 C269 0.999 . S
H273 C254 0.913 . S
H274 C292 0.951 . S
H275 C294 0.951 . S
H276 C296 0.950 . S
H277 C297 0.950 . S
H278 C299 0.950 . S
H279 C302 0.949 1_655 S
H280 C303 0.950 . S
H281 C305 0.950 . S
H282 C306 0.950 . S
H283 C307 0.951 . S
H284 C309 0.951 . S
H285 C311 0.950 . S
H286 C312 0.950 . S
H287 C314 0.950 . S
H288 C317 0.950 . S
H289 C318 0.950 . S
H290 C320 0.950 . S
H291 C321 0.950 . S
C292 H274 0.951 . S
C292 C293 1.366 . S
C292 C294 1.388 . S
C293 C292 1.366 . S
C293 C297 1.385 . S
C294 H275 0.951 . S
C294 C292 1.388 . S
C294 C295 1.366 . S
C295 C294 1.366 . S
C295 C296 1.414 . S
C295 C298 1.499 1_655 S
C296 H276 0.950 . S
C296 C295 1.414 . S
C296 C297 1.374 . S
C297 H277 0.950 . S
C297 C293 1.385 . S
C297 C296 1.374 . S
C298 C295 1.499 1_455 S
C298 C299 1.373 . S
C298 C300 1.389 . S
C299 H278 0.950 . S
C299 C298 1.373 . S
C299 C315 1.377 . S
C300 C298 1.389 . S
C300 C301 1.524 . S
C300 C314 1.377 . S
C301 C300 1.524 . S
C301 C302 1.397 . S
C301 C306 1.363 . S
C302 H279 0.949 1_455 S
C302 C301 1.397 . S
C302 C303 1.334 1_455 S
C303 H280 0.950 . S
C303 C302 1.334 1_655 S
C303 C304 1.286 . S
C304 C303 1.286 . S
C304 C305 1.526 1_655 S
C304 H323 0.912 . S
C305 H281 0.950 . S
C305 C304 1.526 1_455 S
C305 C306 1.415 . S
C306 H282 0.950 . S
C306 C301 1.363 . S
C306 C305 1.415 . S
C307 H283 0.951 . S
C307 C308 1.366 . S
C307 C309 1.388 . S
C308 C307 1.366 . S
C308 C312 1.385 . S
C309 H284 0.951 . S
C309 C307 1.388 . S
C309 C310 1.366 . S
C310 C309 1.366 . S
C310 C311 1.414 . S
C310 C313 1.499 . S
C311 H285 0.950 . S
C311 C310 1.414 . S
C311 C312 1.374 . S
C312 H286 0.950 . S
C312 C308 1.385 . S
C312 C311 1.374 . S
C313 C310 1.499 . S
C313 C314 1.373 . S
C313 C315 1.389 . S
C314 H287 0.950 . S
C314 C300 1.377 . S
C314 C313 1.373 . S
C315 C299 1.377 . S
C315 C313 1.389 . S
C315 C316 1.524 . S
C316 C315 1.524 . S
C316 C317 1.397 . S
C316 C321 1.363 . S
C317 H288 0.950 . S
C317 C316 1.397 . S
C317 C318 1.334 . S
C318 H289 0.950 . S
C318 C317 1.334 . S
C318 C319 1.287 . S
C319 C318 1.287 . S
C319 C320 1.524 . S
C319 H322 0.999 . S
C320 H290 0.950 . S
C320 C319 1.524 . S
C320 C321 1.415 . S
C321 H291 0.950 . S
C321 C316 1.363 . S
C321 C320 1.415 . S
H322 C319 0.999 . S
H323 C304 0.912 . S
H324 C342 0.951 . S
H325 C344 0.951 . S
H326 C346 0.950 . S
H327 C347 0.950 . S
H328 C349 0.950 . S
H329 C352 0.950 . S
H330 C353 0.950 . S
H331 C355 0.950 . S
H332 C356 0.950 . S
H333 C357 0.951 . S
H334 C359 0.951 . S
H335 C361 0.950 . S
H336 C362 0.950 . S
H337 C364 0.950 . S
H338 C367 0.950 . S
H339 C368 0.950 . S
H340 C370 0.950 . S
H341 C371 0.950 . S
C342 H324 0.951 . S
C342 C343 1.366 . S
C342 C344 1.388 . S
C343 C342 1.366 . S
C343 C347 1.385 . S
C344 H325 0.951 . S
C344 C342 1.388 . S
C344 C345 1.366 . S
C345 C344 1.366 . S
C345 C346 1.414 . S
C345 C348 1.499 . S
C346 H326 0.950 . S
C346 C345 1.414 . S
C346 C347 1.374 . S
C347 H327 0.950 . S
C347 C343 1.385 . S
C347 C346 1.374 . S
C348 C345 1.499 . S
C348 C349 1.373 . S
C348 C350 1.389 . S
C349 H328 0.950 . S
C349 C348 1.373 . S
C349 C365 1.377 . S
C350 C348 1.389 . S
C350 C351 1.524 . S
C350 C364 1.377 . S
C351 C350 1.524 . S
C351 C352 1.397 . S
C351 C356 1.363 . S
C352 H329 0.950 . S
C352 C351 1.397 . S
C352 C353 1.334 . S
C353 H330 0.950 . S
C353 C352 1.334 . S
C353 C354 1.287 . S
C354 C353 1.287 . S
C354 C355 1.524 . S
C354 H373 0.913 . S
C355 H331 0.950 . S
C355 C354 1.524 . S
C355 C356 1.415 . S
C356 H332 0.950 . S
C356 C351 1.363 . S
C356 C355 1.415 . S
C357 H333 0.951 . S
C357 C358 1.366 . S
C357 C359 1.388 . S
C358 C357 1.366 . S
C358 C362 1.385 . S
C359 H334 0.951 . S
C359 C357 1.388 . S
C359 C360 1.366 . S
C360 C359 1.366 . S
C360 C361 1.414 . S
C360 C363 1.499 . S
C361 H335 0.950 . S
C361 C360 1.414 . S
C361 C362 1.374 . S
C362 H336 0.950 . S
C362 C358 1.385 . S
C362 C361 1.374 . S
C363 C360 1.499 . S
C363 C364 1.373 . S
C363 C365 1.389 . S
C364 H337 0.950 . S
C364 C350 1.377 . S
C364 C363 1.373 . S
C365 C349 1.377 . S
C365 C363 1.389 . S
C365 C366 1.524 . S
C366 C365 1.524 . S
C366 C367 1.397 . S
C366 C371 1.363 . S
C367 H338 0.950 . S
C367 C366 1.397 . S
C367 C368 1.334 . S
C368 H339 0.950 . S
C368 C367 1.334 . S
C368 C369 1.287 . S
C369 C368 1.287 . S
C369 C370 1.524 . S
C369 H372 0.999 . S
C370 H340 0.950 . S
C370 C369 1.524 . S
C370 C371 1.415 . S
C371 H341 0.950 . S
C371 C366 1.363 . S
C371 C370 1.415 . S
H372 C369 0.999 . S
H373 C354 0.913 . S
H374 C392 0.951 . S
H375 C394 0.951 . S
H376 C396 0.950 . S
H377 C397 0.950 . S
H378 C399 0.950 . S
H379 C402 0.950 . S
H380 C403 0.950 . S
H381 C405 0.950 . S
H382 C406 0.950 . S
H383 C407 0.951 . S
H384 C409 0.951 . S
H385 C411 0.950 . S
H386 C412 0.950 . S
H387 C414 0.950 . S
H388 C417 0.950 . S
H389 C418 0.950 . S
H390 C420 0.950 . S
H391 C421 0.950 . S
C392 H374 0.951 . S
C392 C393 1.366 . S
C392 C394 1.388 . S
C393 C392 1.366 . S
C393 C397 1.385 . S
C394 H375 0.951 . S
C394 C392 1.388 . S
C394 C395 1.366 . S
C395 C394 1.366 . S
C395 C396 1.414 . S
C395 C398 1.499 . S
C396 H376 0.950 . S
C396 C395 1.414 . S
C396 C397 1.374 . S
C397 H377 0.950 . S
C397 C393 1.385 . S
C397 C396 1.374 . S
C398 C395 1.499 . S
C398 C399 1.373 . S
C398 C400 1.389 . S
C399 H378 0.950 . S
C399 C398 1.373 . S
C399 C415 1.377 . S
C400 C398 1.389 . S
C400 C401 1.524 . S
C400 C414 1.377 . S
C401 C400 1.524 . S
C401 C402 1.397 . S
C401 C406 1.363 . S
C402 H379 0.950 . S
C402 C401 1.397 . S
C402 C403 1.334 . S
C403 H380 0.950 . S
C403 C402 1.334 . S
C403 C404 1.287 . S
C404 C403 1.287 . S
C404 C405 1.524 . S
C404 H423 0.913 . S
C405 H381 0.950 . S
C405 C404 1.524 . S
C405 C406 1.415 . S
C406 H382 0.950 . S
C406 C401 1.363 . S
C406 C405 1.415 . S
C407 H383 0.951 . S
C407 C408 1.366 . S
C407 C409 1.388 . S
C408 C407 1.366 . S
C408 C412 1.385 . S
C409 H384 0.951 . S
C409 C407 1.388 . S
C409 C410 1.366 . S
C410 C409 1.366 . S
C410 C411 1.414 . S
C410 C413 1.499 . S
C411 H385 0.950 . S
C411 C410 1.414 . S
C411 C412 1.374 . S
C412 H386 0.950 . S
C412 C408 1.385 . S
C412 C411 1.374 . S
C413 C410 1.499 . S
C413 C414 1.373 . S
C413 C415 1.389 . S
C414 H387 0.950 . S
C414 C400 1.377 . S
C414 C413 1.373 . S
C415 C399 1.377 . S
C415 C413 1.389 . S
C415 C416 1.524 . S
C416 C415 1.524 . S
C416 C417 1.397 . S
C416 C421 1.363 . S
C417 H388 0.950 . S
C417 C416 1.397 . S
C417 C418 1.334 . S
C418 H389 0.950 . S
C418 C417 1.334 . S
C418 C419 1.287 . S
C419 C418 1.287 . S
C419 C420 1.524 . S
C419 H422 0.999 . S
C420 H390 0.950 . S
C420 C419 1.524 . S
C420 C421 1.415 . S
C421 H391 0.950 . S
C421 C416 1.363 . S
C421 C420 1.415 . S
H422 C419 0.999 . S
H423 C404 0.913 . S
H424 C442 0.951 . S
H425 C444 0.951 . S
H426 C446 0.950 . S
H427 C447 0.950 . S
H428 C449 0.950 . S
H429 C452 0.950 1_455 S
H430 C453 0.950 . S
H431 C455 0.950 . S
H432 C456 0.950 . S
H433 C457 0.951 . S
H434 C459 0.951 . S
H435 C461 0.950 . S
H436 C462 0.950 . S
H437 C464 0.950 . S
H438 C467 0.950 . S
H439 C468 0.950 . S
H440 C470 0.950 . S
H441 C471 0.950 . S
C442 H424 0.951 . S
C442 C443 1.366 . S
C442 C444 1.388 . S
C443 C442 1.366 . S
C443 C447 1.385 . S
C444 H425 0.951 . S
C444 C442 1.388 . S
C444 C445 1.366 . S
C445 C444 1.366 . S
C445 C446 1.414 . S
C445 C448 1.499 . S
C446 H426 0.950 . S
C446 C445 1.414 . S
C446 C447 1.374 . S
C447 H427 0.950 . S
C447 C443 1.385 . S
C447 C446 1.374 . S
C448 C445 1.499 . S
C448 C449 1.373 . S
C448 C450 1.389 . S
C449 H428 0.950 . S
C449 C448 1.373 . S
C449 C465 1.377 . S
C450 C448 1.389 . S
C450 C451 1.524 1_455 S
C450 C464 1.377 . S
C451 C450 1.524 1_655 S
C451 C452 1.397 . S
C451 C456 1.363 . S
C452 H429 0.950 1_655 S
C452 C451 1.397 . S
C452 C453 1.334 . S
C453 H430 0.950 . S
C453 C452 1.334 . S
C453 C454 1.287 . S
C454 C453 1.287 . S
C454 C455 1.524 . S
C454 H473 0.913 . S
C455 H431 0.950 . S
C455 C454 1.524 . S
C455 C456 1.415 . S
C456 H432 0.950 . S
C456 C451 1.363 . S
C456 C455 1.415 . S
C457 H433 0.951 . S
C457 C458 1.366 . S
C457 C459 1.388 . S
C458 C457 1.366 . S
C458 C462 1.385 . S
C459 H434 0.951 . S
C459 C457 1.388 . S
C459 C460 1.366 . S
C460 C459 1.366 . S
C460 C461 1.414 . S
C460 C463 1.499 . S
C461 H435 0.950 . S
C461 C460 1.414 . S
C461 C462 1.374 . S
C462 H436 0.950 . S
C462 C458 1.385 . S
C462 C461 1.374 . S
C463 C460 1.499 . S
C463 C464 1.373 . S
C463 C465 1.389 . S
C464 H437 0.950 . S
C464 C450 1.377 . S
C464 C463 1.373 . S
C465 C449 1.377 . S
C465 C463 1.389 . S
C465 C466 1.524 . S
C466 C465 1.524 . S
C466 C467 1.397 . S
C466 C471 1.363 . S
C467 H438 0.950 . S
C467 C466 1.397 . S
C467 C468 1.334 . S
C468 H439 0.950 . S
C468 C467 1.334 . S
C468 C469 1.287 . S
C469 C468 1.287 . S
C469 C470 1.524 . S
C469 H472 0.999 . S
C470 H440 0.950 . S
C470 C469 1.524 . S
C470 C471 1.415 . S
C471 H441 0.950 . S
C471 C466 1.363 . S
C471 C470 1.415 . S
H472 C469 0.999 . S
H473 C454 0.913 . S
H474 C492 0.951 . S
H475 C494 0.951 . S
H476 C496 0.950 . S
H477 C497 0.950 . S
H478 C499 0.950 . S
H479 C502 0.950 . S
H480 C503 0.950 . S
H481 C505 0.950 . S
H482 C506 0.950 . S
H483 C507 0.951 . S
H484 C509 0.951 . S
H485 C511 0.950 . S
H486 C512 0.950 . S
H487 C514 0.950 . S
H488 C517 0.950 . S
H489 C518 0.950 . S
H490 C520 0.950 . S
H491 C521 0.950 . S
C492 H474 0.951 . S
C492 C493 1.366 . S
C492 C494 1.388 . S
C493 C492 1.366 . S
C493 C497 1.385 . S
C494 H475 0.951 . S
C494 C492 1.388 . S
C494 C495 1.366 . S
C495 C494 1.366 . S
C495 C496 1.414 . S
C495 C498 1.499 . S
C496 H476 0.950 . S
C496 C495 1.414 . S
C496 C497 1.374 . S
C497 H477 0.950 . S
C497 C493 1.385 . S
C497 C496 1.374 . S
C498 C495 1.499 . S
C498 C499 1.373 . S
C498 C500 1.389 . S
C499 H478 0.950 . S
C499 C498 1.373 . S
C499 C515 1.377 . S
C500 C498 1.389 . S
C500 C501 1.524 . S
C500 C514 1.377 . S
C501 C500 1.524 . S
C501 C502 1.397 . S
C501 C506 1.363 . S
C502 H479 0.950 . S
C502 C501 1.397 . S
C502 C503 1.334 . S
C503 H480 0.950 . S
C503 C502 1.334 . S
C503 C504 1.287 . S
C504 C503 1.287 . S
C504 C505 1.524 . S
C504 H523 0.913 . S
C505 H481 0.950 . S
C505 C504 1.524 . S
C505 C506 1.415 . S
C506 H482 0.950 . S
C506 C501 1.363 . S
C506 C505 1.415 . S
C507 H483 0.951 . S
C507 C508 1.366 . S
C507 C509 1.388 . S
C508 C507 1.366 . S
C508 C512 1.385 . S
C509 H484 0.951 . S
C509 C507 1.388 . S
C509 C510 1.366 . S
C510 C509 1.366 . S
C510 C511 1.414 . S
C510 C513 1.499 . S
C511 H485 0.950 . S
C511 C510 1.414 . S
C511 C512 1.374 . S
C512 H486 0.950 . S
C512 C508 1.385 . S
C512 C511 1.374 . S
C513 C510 1.499 . S
C513 C514 1.373 . S
C513 C515 1.389 . S
C514 H487 0.950 . S
C514 C500 1.377 . S
C514 C513 1.373 . S
C515 C499 1.377 . S
C515 C513 1.389 . S
C515 C516 1.524 . S
C516 C515 1.524 . S
C516 C517 1.397 . S
C516 C521 1.363 . S
C517 H488 0.950 . S
C517 C516 1.397 . S
C517 C518 1.334 . S
C518 H489 0.950 . S
C518 C517 1.334 . S
C518 C519 1.287 . S
C519 C518 1.287 . S
C519 C520 1.524 . S
C519 H522 0.999 . S
C520 H490 0.950 . S
C520 C519 1.524 . S
C520 C521 1.415 . S
C521 H491 0.950 . S
C521 C516 1.363 . S
C521 C520 1.415 . S
H522 C519 0.999 . S
H523 C504 0.913 . S
H524 C542 0.951 . S
H525 C544 0.951 . S
H526 C546 0.950 . S
H527 C547 0.950 . S
H528 C549 0.950 . S
H529 C552 0.950 . S
H530 C553 0.950 . S
H531 C555 0.950 . S
H532 C556 0.950 . S
H533 C557 0.951 . S
H534 C559 0.951 . S
H535 C561 0.950 . S
H536 C562 0.950 . S
H537 C564 0.950 . S
H538 C567 0.950 . S
H539 C568 0.950 . S
H540 C570 0.950 . S
H541 C571 0.950 . S
C542 H524 0.951 . S
C542 C543 1.366 . S
C542 C544 1.388 . S
C543 C542 1.366 . S
C543 C547 1.385 . S
C544 H525 0.951 . S
C544 C542 1.388 . S
C544 C545 1.366 . S
C545 C544 1.366 . S
C545 C546 1.414 . S
C545 C548 1.499 . S
C546 H526 0.950 . S
C546 C545 1.414 . S
C546 C547 1.374 . S
C547 H527 0.950 . S
C547 C543 1.385 . S
C547 C546 1.374 . S
C548 C545 1.499 . S
C548 C549 1.373 . S
C548 C550 1.389 . S
C549 H528 0.950 . S
C549 C548 1.373 . S
C549 C565 1.377 . S
C550 C548 1.389 . S
C550 C551 1.524 . S
C550 C564 1.377 . S
C551 C550 1.524 . S
C551 C552 1.397 . S
C551 C556 1.363 . S
C552 H529 0.950 . S
C552 C551 1.397 . S
C552 C553 1.334 . S
C553 H530 0.950 . S
C553 C552 1.334 . S
C553 C554 1.287 . S
C554 C553 1.287 . S
C554 C555 1.524 . S
C554 H573 0.913 . S
C555 H531 0.950 . S
C555 C554 1.524 . S
C555 C556 1.415 . S
C556 H532 0.950 . S
C556 C551 1.363 . S
C556 C555 1.415 . S
C557 H533 0.951 . S
C557 C558 1.366 . S
C557 C559 1.388 . S
C558 C557 1.366 . S
C558 C562 1.385 . S
C559 H534 0.951 . S
C559 C557 1.388 . S
C559 C560 1.366 . S
C560 C559 1.366 . S
C560 C561 1.414 . S
C560 C563 1.499 . S
C561 H535 0.950 . S
C561 C560 1.414 . S
C561 C562 1.374 . S
C562 H536 0.950 . S
C562 C558 1.385 . S
C562 C561 1.374 . S
C563 C560 1.499 . S
C563 C564 1.373 . S
C563 C565 1.389 . S
C564 H537 0.950 . S
C564 C550 1.377 . S
C564 C563 1.373 . S
C565 C549 1.377 . S
C565 C563 1.389 . S
C565 C566 1.524 . S
C566 C565 1.524 . S
C566 C567 1.397 . S
C566 C571 1.363 . S
C567 H538 0.950 . S
C567 C566 1.397 . S
C567 C568 1.334 . S
C568 H539 0.950 . S
C568 C567 1.334 . S
C568 C569 1.287 . S
C569 C568 1.287 . S
C569 C570 1.524 . S
C569 H572 0.999 . S
C570 H540 0.950 . S
C570 C569 1.524 . S
C570 C571 1.415 . S
C571 H541 0.950 . S
C571 C566 1.363 . S
C571 C570 1.415 . S
H572 C569 0.999 . S
H573 C554 0.913 . S
H574 C592 0.951 . S
H575 C594 0.951 . S
H576 C596 0.950 . S
H577 C597 0.950 . S
H578 C599 0.950 . S
H579 C602 0.950 . S
H580 C603 0.950 . S
H581 C605 0.950 . S
H582 C606 0.950 . S
H583 C607 0.951 . S
H584 C609 0.951 . S
H585 C611 0.950 . S
H586 C612 0.950 . S
H587 C614 0.950 . S
H588 C617 0.954 . S
H589 C618 0.950 . S
H590 C620 0.950 . S
H591 C621 0.950 . S
C592 H574 0.951 . S
C592 C593 1.366 . S
C592 C594 1.388 . S
C593 C592 1.366 . S
C593 C597 1.385 . S
C594 H575 0.951 . S
C594 C592 1.388 . S
C594 C595 1.366 . S
C595 C594 1.366 . S
C595 C596 1.414 . S
C595 C598 1.499 . S
C596 H576 0.950 . S
C596 C595 1.414 . S
C596 C597 1.374 . S
C597 H577 0.950 . S
C597 C593 1.385 . S
C597 C596 1.374 . S
C598 C595 1.499 . S
C598 C599 1.373 . S
C598 C600 1.389 . S
C599 H578 0.950 . S
C599 C598 1.373 . S
C599 C615 1.377 . S
C600 C598 1.389 . S
C600 C601 1.524 . S
C600 C614 1.377 . S
C601 C600 1.524 . S
C601 C602 1.397 . S
C601 C606 1.363 . S
C602 H579 0.950 . S
C602 C601 1.397 . S
C602 C603 1.334 . S
C603 H580 0.950 . S
C603 C602 1.334 . S
C603 C604 1.287 . S
C604 C603 1.287 . S
C604 C605 1.524 . S
C604 H623 0.913 . S
C605 H581 0.950 . S
C605 C604 1.524 . S
C605 C606 1.415 . S
C606 H582 0.950 . S
C606 C601 1.363 . S
C606 C605 1.415 . S
C607 H583 0.951 . S
C607 C608 1.366 . S
C607 C609 1.388 . S
C608 C607 1.366 . S
C608 C612 1.385 . S
C609 H584 0.951 . S
C609 C607 1.388 . S
C609 C610 1.366 . S
C610 C609 1.366 . S
C610 C611 1.414 . S
C610 C613 1.499 1_655 S
C611 H585 0.950 . S
C611 C610 1.414 . S
C611 C612 1.374 . S
C612 H586 0.950 . S
C612 C608 1.385 . S
C612 C611 1.374 . S
C613 C610 1.499 1_455 S
C613 C614 1.373 . S
C613 C615 1.389 . S
C614 H587 0.950 . S
C614 C600 1.377 . S
C614 C613 1.373 . S
C615 C599 1.377 . S
C615 C613 1.389 . S
C615 C616 1.524 . S
C616 C615 1.524 . S
C616 C617 1.397 . S
C616 C621 1.363 . S
C617 H588 0.954 . S
C617 C616 1.397 . S
C617 C618 1.334 1_455 S
C618 H589 0.950 . S
C618 C617 1.334 1_655 S
C618 C619 1.277 1_655 S
C619 C618 1.277 1_455 S
C619 C620 1.545 . S
C619 H622 0.986 1_455 S
C620 H590 0.950 . S
C620 C619 1.545 . S
C620 C621 1.415 . S
C621 H591 0.950 . S
C621 C616 1.363 . S
C621 C620 1.415 . S
H622 C619 0.986 1_655 S
H623 C604 0.913 . S
H624 C642 0.951 . S
H625 C644 0.951 . S
H626 C646 0.948 1_545 S
H627 C647 0.950 . S
H628 C649 0.950 . S
H629 C652 0.950 . S
H630 C653 0.950 . S
H631 C655 0.950 . S
H632 C656 0.950 . S
H633 C657 0.951 . S
H634 C659 0.951 . S
H635 C661 0.948 1_565 S
H636 C662 0.950 . S
H637 C664 0.950 . S
H638 C667 0.950 . S
H639 C668 0.950 . S
H640 C670 0.950 . S
H641 C671 0.950 . S
C642 H624 0.951 . S
C642 C643 1.366 1_655 S
C642 C644 1.388 . S
C643 C642 1.366 1_455 S
C643 C647 1.385 . S
C644 H625 0.951 . S
C644 C642 1.388 . S
C644 C645 1.366 1_655 S
C645 C644 1.366 1_455 S
C645 C646 1.414 . S
C645 C648 1.499 . S
C646 H626 0.948 1_565 S
C646 C645 1.414 . S
C646 C647 1.374 . S
C647 H627 0.950 . S
C647 C643 1.385 . S
C647 C646 1.374 . S
C648 C645 1.499 . S
C648 C649 1.373 . S
C648 C650 1.389 1_465 S
C649 H628 0.950 . S
C649 C648 1.373 . S
C649 C665 1.377 . S
C650 C648 1.389 1_645 S
C650 C651 1.524 . S
C650 C664 1.377 . S
C651 C650 1.524 . S
C651 C652 1.397 . S
C651 C656 1.363 . S
C652 H629 0.950 . S
C652 C651 1.397 . S
C652 C653 1.334 . S
C653 H630 0.950 . S
C653 C652 1.334 . S
C653 C654 1.287 . S
C654 C653 1.287 . S
C654 C655 1.524 . S
C654 H673 0.913 . S
C655 H631 0.950 . S
C655 C654 1.524 . S
C655 C656 1.415 . S
C656 H632 0.950 . S
C656 C651 1.363 . S
C656 C655 1.415 . S
C657 H633 0.951 . S
C657 C658 1.366 . S
C657 C659 1.388 . S
C658 C657 1.366 . S
C658 C662 1.385 1_455 S
C659 H634 0.951 . S
C659 C657 1.388 . S
C659 C660 1.366 . S
C660 C659 1.366 . S
C660 C661 1.414 1_455 S
C660 C663 1.499 . S
C661 H635 0.948 1_545 S
C661 C660 1.414 1_655 S
C661 C662 1.374 . S
C662 H636 0.950 . S
C662 C658 1.385 1_655 S
C662 C661 1.374 . S
C663 C660 1.499 . S
C663 C664 1.373 1_455 S
C663 C665 1.389 1_545 S
C664 H637 0.950 . S
C664 C650 1.377 . S
C664 C663 1.373 1_655 S
C665 C649 1.377 . S
C665 C663 1.389 1_565 S
C665 C666 1.524 . S
C666 C665 1.524 . S
C666 C667 1.397 . S
C666 C671 1.363 . S
C667 H638 0.950 . S
C667 C666 1.397 . S
C667 C668 1.334 . S
C668 H639 0.950 . S
C668 C667 1.334 . S
C668 C669 1.287 . S
C669 C668 1.287 . S
C669 C670 1.524 . S
C669 H672 0.999 . S
C670 H640 0.950 . S
C670 C669 1.524 . S
C670 C671 1.415 . S
C671 H641 0.950 . S
C671 C666 1.363 . S
C671 C670 1.415 . S
H672 C669 0.999 . S
H673 C654 0.913 . S
H674 C692 0.951 . S
H675 C694 0.951 . S
H676 C696 0.950 . S
H677 C697 0.950 . S
H678 C699 0.950 . S
H679 C702 0.950 . S
H680 C703 0.950 . S
H681 C705 0.950 . S
H682 C706 0.950 . S
H683 C707 0.951 . S
H684 C709 0.951 . S
H685 C711 0.950 . S
H686 C712 0.950 . S
H687 C714 0.950 . S
H688 C717 0.950 . S
H689 C718 0.950 . S
H690 C720 0.950 . S
H691 C721 0.950 . S
C692 H674 0.951 . S
C692 C693 1.366 . S
C692 C694 1.388 . S
C693 C692 1.366 . S
C693 C697 1.385 . S
C694 H675 0.951 . S
C694 C692 1.388 . S
C694 C695 1.366 . S
C695 C694 1.366 . S
C695 C696 1.414 . S
C695 C698 1.499 . S
C696 H676 0.950 . S
C696 C695 1.414 . S
C696 C697 1.374 . S
C697 H677 0.950 . S
C697 C693 1.385 . S
C697 C696 1.374 . S
C698 C695 1.499 . S
C698 C699 1.373 . S
C698 C700 1.389 . S
C699 H678 0.950 . S
C699 C698 1.373 . S
C699 C715 1.377 . S
C700 C698 1.389 . S
C700 C701 1.524 . S
C700 C714 1.377 . S
C701 C700 1.524 . S
C701 C702 1.397 . S
C701 C706 1.363 . S
C702 H679 0.950 . S
C702 C701 1.397 . S
C702 C703 1.334 . S
C703 H680 0.950 . S
C703 C702 1.334 . S
C703 C704 1.287 . S
C704 C703 1.287 . S
C704 C705 1.524 . S
C704 H723 0.913 . S
C705 H681 0.950 . S
C705 C704 1.524 . S
C705 C706 1.415 . S
C706 H682 0.950 . S
C706 C701 1.363 . S
C706 C705 1.415 . S
C707 H683 0.951 . S
C707 C708 1.366 . S
C707 C709 1.388 . S
C708 C707 1.366 . S
C708 C712 1.385 . S
C709 H684 0.951 . S
C709 C707 1.388 . S
C709 C710 1.366 . S
C710 C709 1.366 . S
C710 C711 1.414 . S
C710 C713 1.499 . S
C711 H685 0.950 . S
C711 C710 1.414 . S
C711 C712 1.374 . S
C712 H686 0.950 . S
C712 C708 1.385 . S
C712 C711 1.374 . S
C713 C710 1.499 . S
C713 C714 1.373 . S
C713 C715 1.389 . S
C714 H687 0.950 . S
C714 C700 1.377 . S
C714 C713 1.373 . S
C715 C699 1.377 . S
C715 C713 1.389 . S
C715 C716 1.524 . S
C716 C715 1.524 . S
C716 C717 1.397 . S
C716 C721 1.363 . S
C717 H688 0.950 . S
C717 C716 1.397 . S
C717 C718 1.334 . S
C718 H689 0.950 . S
C718 C717 1.334 . S
C718 C719 1.287 . S
C719 C718 1.287 . S
C719 C720 1.524 . S
C719 H722 0.999 . S
C720 H690 0.950 . S
C720 C719 1.524 . S
C720 C721 1.415 . S
C721 H691 0.950 . S
C721 C716 1.363 . S
C721 C720 1.415 . S
H722 C719 0.999 . S
H723 C704 0.913 . S
H724 C742 0.951 . S
H725 C744 0.951 . S
H726 C746 0.950 . S
H727 C747 0.950 . S
H728 C749 0.950 . S
H729 C752 0.950 . S
H730 C753 0.950 . S
H731 C755 0.950 . S
H732 C756 0.950 1_556 S
H733 C757 0.951 . S
H734 C759 0.951 . S
H735 C761 0.950 . S
H736 C762 0.950 . S
H737 C764 0.950 . S
H738 C767 0.950 . S
H739 C768 0.950 . S
H740 C770 0.950 . S
H741 C771 0.950 1_554 S
C742 H724 0.951 . S
C742 C743 1.366 . S
C742 C744 1.388 . S
C743 C742 1.366 . S
C743 C747 1.385 1_565 S
C744 H725 0.951 . S
C744 C742 1.388 . S
C744 C745 1.366 . S
C745 C744 1.366 . S
C745 C746 1.414 1_565 S
C745 C748 1.499 . S
C746 H726 0.950 . S
C746 C745 1.414 1_545 S
C746 C747 1.374 . S
C747 H727 0.950 . S
C747 C743 1.385 1_545 S
C747 C746 1.374 . S
C748 C745 1.499 . S
C748 C749 1.373 1_565 S
C748 C750 1.389 . S
C749 H728 0.950 . S
C749 C748 1.373 1_545 S
C749 C765 1.377 1_554 S
C750 C748 1.389 . S
C750 C751 1.524 . S
C750 C764 1.377 1_554 S
C751 C750 1.524 . S
C751 C752 1.397 . S
C751 C756 1.363 . S
C752 H729 0.950 . S
C752 C751 1.397 . S
C752 C753 1.334 . S
C753 H730 0.950 . S
C753 C752 1.334 . S
C753 C754 1.287 . S
C754 C753 1.287 . S
C754 C755 1.524 . S
C754 H773 0.913 . S
C755 H731 0.950 . S
C755 C754 1.524 . S
C755 C756 1.415 . S
C756 H732 0.950 1_554 S
C756 C751 1.363 . S
C756 C755 1.415 . S
C757 H733 0.951 . S
C757 C758 1.366 . S
C757 C759 1.388 . S
C758 C757 1.366 . S
C758 C762 1.385 1_545 S
C759 H734 0.951 . S
C759 C757 1.388 . S
C759 C760 1.366 . S
C760 C759 1.366 . S
C760 C761 1.414 1_545 S
C760 C763 1.499 . S
C761 H735 0.950 . S
C761 C760 1.414 1_565 S
C761 C762 1.374 . S
C762 H736 0.950 . S
C762 C758 1.385 1_565 S
C762 C761 1.374 . S
C763 C760 1.499 . S
C763 C764 1.373 1_545 S
C763 C765 1.389 . S
C764 H737 0.950 . S
C764 C750 1.377 1_556 S
C764 C763 1.373 1_565 S
C765 C749 1.377 1_556 S
C765 C763 1.389 . S
C765 C766 1.524 . S
C766 C765 1.524 . S
C766 C767 1.397 . S
C766 C771 1.363 . S
C767 H738 0.950 . S
C767 C766 1.397 . S
C767 C768 1.334 . S
C768 H739 0.950 . S
C768 C767 1.334 . S
C768 C769 1.287 . S
C769 C768 1.287 . S
C769 C770 1.524 . S
C769 H772 0.999 . S
C770 H740 0.950 . S
C770 C769 1.524 . S
C770 C771 1.415 . S
C771 H741 0.950 1_556 S
C771 C766 1.363 . S
C771 C770 1.415 . S
H772 C769 0.999 . S
H773 C754 0.913 . S
H774 C792 0.951 . S
H775 C794 0.951 . S
H776 C796 0.950 . S
H777 C797 0.950 . S
H778 C799 0.950 . S
H779 C802 0.950 . S
H780 C803 0.950 . S
H781 C805 0.950 . S
H782 C806 0.950 . S
H783 C807 0.951 . S
H784 C809 0.951 . S
H785 C811 0.950 . S
H786 C812 0.950 . S
H787 C814 0.950 . S
H788 C817 0.950 . S
H789 C818 0.950 . S
H790 C820 0.950 . S
H791 C821 0.950 . S
C792 H774 0.951 . S
C792 C793 1.366 . S
C792 C794 1.388 . S
C793 C792 1.366 . S
C793 C797 1.385 . S
C794 H775 0.951 . S
C794 C792 1.388 . S
C794 C795 1.366 . S
C795 C794 1.366 . S
C795 C796 1.414 . S
C795 C798 1.499 . S
C796 H776 0.950 . S
C796 C795 1.414 . S
C796 C797 1.374 . S
C797 H777 0.950 . S
C797 C793 1.385 . S
C797 C796 1.374 . S
C798 C795 1.499 . S
C798 C799 1.373 . S
C798 C800 1.389 . S
C799 H778 0.950 . S
C799 C798 1.373 . S
C799 C815 1.377 . S
C800 C798 1.389 . S
C800 C801 1.524 . S
C800 C814 1.377 . S
C801 C800 1.524 . S
C801 C802 1.397 . S
C801 C806 1.363 . S
C802 H779 0.950 . S
C802 C801 1.397 . S
C802 C803 1.334 . S
C803 H780 0.950 . S
C803 C802 1.334 . S
C803 C804 1.287 . S
C804 C803 1.287 . S
C804 C805 1.524 . S
C804 H823 0.913 . S
C805 H781 0.950 . S
C805 C804 1.524 . S
C805 C806 1.415 . S
C806 H782 0.950 . S
C806 C801 1.363 . S
C806 C805 1.415 . S
C807 H783 0.951 . S
C807 C808 1.366 . S
C807 C809 1.388 . S
C808 C807 1.366 . S
C808 C812 1.385 . S
C809 H784 0.951 . S
C809 C807 1.388 . S
C809 C810 1.366 . S
C810 C809 1.366 . S
C810 C811 1.414 . S
C810 C813 1.499 . S
C811 H785 0.950 . S
C811 C810 1.414 . S
C811 C812 1.374 . S
C812 H786 0.950 . S
C812 C808 1.385 . S
C812 C811 1.374 . S
C813 C810 1.499 . S
C813 C814 1.373 . S
C813 C815 1.389 . S
C814 H787 0.950 . S
C814 C800 1.377 . S
C814 C813 1.373 . S
C815 C799 1.377 . S
C815 C813 1.389 . S
C815 C816 1.524 . S
C816 C815 1.524 . S
C816 C817 1.397 . S
C816 C821 1.363 . S
C817 H788 0.950 . S
C817 C816 1.397 . S
C817 C818 1.334 . S
C818 H789 0.950 . S
C818 C817 1.334 . S
C818 C819 1.287 . S
C819 C818 1.287 . S
C819 C820 1.524 . S
C819 H822 0.999 . S
C820 H790 0.950 . S
C820 C819 1.524 . S
C820 C821 1.415 . S
C821 H791 0.950 . S
C821 C816 1.363 . S
C821 C820 1.415 . S
H822 C819 0.999 . S
H823 C804 0.913 . S
H824 C842 0.951 . S
H825 C844 0.951 . S
H826 C846 0.950 . S
H827 C847 0.950 . S
H828 C849 0.950 . S
H829 C852 0.950 . S
H830 C853 0.950 . S
H831 C855 0.950 . S
H832 C856 0.950 . S
H833 C857 0.951 . S
H834 C859 0.951 . S
H835 C861 0.950 . S
H836 C862 0.950 . S
H837 C864 0.950 . S
H838 C867 0.950 . S
H839 C868 0.950 . S
H840 C870 0.950 . S
H841 C871 0.950 . S
C842 H824 0.951 . S
C842 C843 1.366 . S
C842 C844 1.388 . S
C843 C842 1.366 . S
C843 C847 1.385 . S
C844 H825 0.951 . S
C844 C842 1.388 . S
C844 C845 1.366 . S
C845 C844 1.366 . S
C845 C846 1.414 . S
C845 C848 1.499 . S
C846 H826 0.950 . S
C846 C845 1.414 . S
C846 C847 1.374 . S
C847 H827 0.950 . S
C847 C843 1.385 . S
C847 C846 1.374 . S
C848 C845 1.499 . S
C848 C849 1.373 . S
C848 C850 1.389 . S
C849 H828 0.950 . S
C849 C848 1.373 . S
C849 C865 1.377 . S
C850 C848 1.389 . S
C850 C851 1.524 . S
C850 C864 1.377 . S
C851 C850 1.524 . S
C851 C852 1.397 . S
C851 C856 1.363 . S
C852 H829 0.950 . S
C852 C851 1.397 . S
C852 C853 1.334 . S
C853 H830 0.950 . S
C853 C852 1.334 . S
C853 C854 1.287 . S
C854 C853 1.287 . S
C854 C855 1.524 . S
C854 H873 0.913 . S
C855 H831 0.950 . S
C855 C854 1.524 . S
C855 C856 1.415 . S
C856 H832 0.950 . S
C856 C851 1.363 . S
C856 C855 1.415 . S
C857 H833 0.951 . S
C857 C858 1.366 . S
C857 C859 1.388 . S
C858 C857 1.366 . S
C858 C862 1.385 . S
C859 H834 0.951 . S
C859 C857 1.388 . S
C859 C860 1.366 . S
C860 C859 1.366 . S
C860 C861 1.414 . S
C860 C863 1.499 . S
C861 H835 0.950 . S
C861 C860 1.414 . S
C861 C862 1.374 . S
C862 H836 0.950 . S
C862 C858 1.385 . S
C862 C861 1.374 . S
C863 C860 1.499 . S
C863 C864 1.373 . S
C863 C865 1.389 . S
C864 H837 0.950 . S
C864 C850 1.377 . S
C864 C863 1.373 . S
C865 C849 1.377 . S
C865 C863 1.389 . S
C865 C866 1.524 . S
C866 C865 1.524 . S
C866 C867 1.397 . S
C866 C871 1.363 . S
C867 H838 0.950 . S
C867 C866 1.397 . S
C867 C868 1.334 . S
C868 H839 0.950 . S
C868 C867 1.334 . S
C868 C869 1.287 . S
C869 C868 1.287 . S
C869 C870 1.524 . S
C869 H872 0.999 . S
C870 H840 0.950 . S
C870 C869 1.524 . S
C870 C871 1.415 . S
C871 H841 0.950 . S
C871 C866 1.363 . S
C871 C870 1.415 . S
H872 C869 0.999 . S
H873 C854 0.913 . S
H874 C892 0.951 . S
H875 C894 0.951 . S
H876 C896 0.950 . S
H877 C897 0.950 . S
H878 C899 0.950 . S
H879 C902 0.950 . S
H880 C903 0.950 . S
H881 C905 0.950 . S
H882 C906 0.950 . S
H883 C907 0.951 . S
H884 C909 0.951 . S
H885 C911 0.950 . S
H886 C912 0.950 . S
H887 C914 0.950 . S
H888 C917 0.950 . S
H889 C918 0.950 . S
H890 C920 0.950 . S
H891 C921 0.950 . S
C892 H874 0.951 . S
C892 C893 1.366 . S
C892 C894 1.388 . S
C893 C892 1.366 . S
C893 C897 1.385 . S
C894 H875 0.951 . S
C894 C892 1.388 . S
C894 C895 1.366 . S
C895 C894 1.366 . S
C895 C896 1.414 . S
C895 C898 1.499 . S
C896 H876 0.950 . S
C896 C895 1.414 . S
C896 C897 1.374 . S
C897 H877 0.950 . S
C897 C893 1.385 . S
C897 C896 1.374 . S
C898 C895 1.499 . S
C898 C899 1.373 . S
C898 C900 1.389 . S
C899 H878 0.950 . S
C899 C898 1.373 . S
C899 C915 1.377 . S
C900 C898 1.389 . S
C900 C901 1.524 . S
C900 C914 1.377 . S
C901 C900 1.524 . S
C901 C902 1.397 . S
C901 C906 1.363 . S
C902 H879 0.950 . S
C902 C901 1.397 . S
C902 C903 1.334 . S
C903 H880 0.950 . S
C903 C902 1.334 . S
C903 C904 1.287 . S
C904 C903 1.287 . S
C904 C905 1.524 . S
C904 H923 0.913 . S
C905 H881 0.950 . S
C905 C904 1.524 . S
C905 C906 1.415 . S
C906 H882 0.950 . S
C906 C901 1.363 . S
C906 C905 1.415 . S
C907 H883 0.951 . S
C907 C908 1.366 . S
C907 C909 1.388 . S
C908 C907 1.366 . S
C908 C912 1.385 . S
C909 H884 0.951 . S
C909 C907 1.388 . S
C909 C910 1.366 . S
C910 C909 1.366 . S
C910 C911 1.414 . S
C910 C913 1.499 . S
C911 H885 0.950 . S
C911 C910 1.414 . S
C911 C912 1.374 . S
C912 H886 0.950 . S
C912 C908 1.385 . S
C912 C911 1.374 . S
C913 C910 1.499 . S
C913 C914 1.373 . S
C913 C915 1.389 . S
C914 H887 0.950 . S
C914 C900 1.377 . S
C914 C913 1.373 . S
C915 C899 1.377 . S
C915 C913 1.389 . S
C915 C916 1.524 . S
C916 C915 1.524 . S
C916 C917 1.397 . S
C916 C921 1.363 . S
C917 H888 0.950 . S
C917 C916 1.397 . S
C917 C918 1.334 . S
C918 H889 0.950 . S
C918 C917 1.334 . S
C918 C919 1.287 . S
C919 C918 1.287 . S
C919 C920 1.524 . S
C919 H922 0.999 . S
C920 H890 0.950 . S
C920 C919 1.524 . S
C920 C921 1.415 . S
C921 H891 0.950 . S
C921 C916 1.363 . S
C921 C920 1.415 . S
H922 C919 0.999 . S
H923 C904 0.913 . S
H924 C942 0.951 . S
H925 C944 0.951 . S
H926 C946 0.950 . S
H927 C947 0.950 . S
H928 C949 0.950 . S
H929 C952 0.950 . S
H930 C953 0.950 . S
H931 C955 0.950 . S
H932 C956 0.965 . S
H933 C957 0.951 . S
H934 C959 0.951 . S
H935 C961 0.950 . S
H936 C962 0.950 . S
H937 C964 0.950 . S
H938 C967 0.950 . S
H939 C968 0.950 . S
H940 C970 0.950 . S
H941 C971 0.965 . S
C942 H924 0.951 . S
C942 C943 1.366 . S
C942 C944 1.388 . S
C943 C942 1.366 . S
C943 C947 1.385 . S
C944 H925 0.951 . S
C944 C942 1.388 . S
C944 C945 1.366 . S
C945 C944 1.366 . S
C945 C946 1.414 . S
C945 C948 1.499 . S
C946 H926 0.950 . S
C946 C945 1.414 . S
C946 C947 1.374 . S
C947 H927 0.950 . S
C947 C943 1.385 . S
C947 C946 1.374 . S
C948 C945 1.499 . S
C948 C949 1.373 . S
C948 C950 1.389 . S
C949 H928 0.950 . S
C949 C948 1.373 . S
C949 C965 1.377 1_556 S
C950 C948 1.389 . S
C950 C951 1.524 . S
C950 C964 1.377 1_556 S
C951 C950 1.524 . S
C951 C952 1.397 . S
C951 C956 1.363 . S
C952 H929 0.950 . S
C952 C951 1.397 . S
C952 C953 1.334 . S
C953 H930 0.950 . S
C953 C952 1.334 . S
C953 C954 1.287 . S
C954 C953 1.287 . S
C954 C955 1.524 . S
C954 H973 0.913 . S
C955 H931 0.950 . S
C955 C954 1.524 . S
C955 C956 1.415 . S
C956 H932 0.965 . S
C956 C951 1.363 . S
C956 C955 1.415 . S
C957 H933 0.951 . S
C957 C958 1.366 . S
C957 C959 1.388 . S
C958 C957 1.366 . S
C958 C962 1.385 . S
C959 H934 0.951 . S
C959 C957 1.388 . S
C959 C960 1.366 . S
C960 C959 1.366 . S
C960 C961 1.414 . S
C960 C963 1.499 . S
C961 H935 0.950 . S
C961 C960 1.414 . S
C961 C962 1.374 . S
C962 H936 0.950 . S
C962 C958 1.385 . S
C962 C961 1.374 . S
C963 C960 1.499 . S
C963 C964 1.373 . S
C963 C965 1.389 . S
C964 H937 0.950 . S
C964 C950 1.377 1_554 S
C964 C963 1.373 . S
C965 C949 1.377 1_554 S
C965 C963 1.389 . S
C965 C966 1.524 . S
C966 C965 1.524 . S
C966 C967 1.397 . S
C966 C971 1.363 . S
C967 H938 0.950 . S
C967 C966 1.397 . S
C967 C968 1.334 . S
C968 H939 0.950 . S
C968 C967 1.334 . S
C968 C969 1.287 . S
C969 C968 1.287 . S
C969 C970 1.524 . S
C969 H972 0.999 . S
C970 H940 0.950 . S
C970 C969 1.524 . S
C970 C971 1.415 . S
C971 H941 0.965 . S
C971 C966 1.363 . S
C971 C970 1.415 . S
H972 C969 0.999 . S
H973 C954 0.913 . S
H974 C992 0.951 . S
H975 C994 0.951 . S
H976 C996 0.950 . S
H977 C997 0.950 . S
H978 C999 0.950 . S
H979 C1002 0.950 . S
H980 C1003 0.950 . S
H981 C1005 0.950 . S
H982 C1006 0.950 . S
H983 C1007 0.951 . S
H984 C1009 0.951 . S
H985 C1011 0.950 . S
H986 C1012 0.950 . S
H987 C1014 0.950 . S
H988 C1017 0.950 . S
H989 C1018 0.950 . S
H990 C1020 0.950 . S
H991 C1021 0.950 . S
C992 H974 0.951 . S
C992 C993 1.366 . S
C992 C994 1.388 . S
C993 C992 1.366 . S
C993 C997 1.385 . S
C994 H975 0.951 . S
C994 C992 1.388 . S
C994 C995 1.366 . S
C995 C994 1.366 . S
C995 C996 1.414 . S
C995 C998 1.499 . S
C996 H976 0.950 . S
C996 C995 1.414 . S
C996 C997 1.374 . S
C997 H977 0.950 . S
C997 C993 1.385 . S
C997 C996 1.374 . S
C998 C995 1.499 . S
C998 C999 1.373 . S
C998 C1000 1.389 . S
C999 H978 0.950 . S
C999 C998 1.373 . S
C999 C1015 1.377 . S
C1000 C998 1.389 . S
C1000 C1001 1.524 . S
C1000 C1014 1.377 . S
C1001 C1000 1.524 . S
C1001 C1002 1.397 . S
C1001 C1006 1.363 . S
C1002 H979 0.950 . S
C1002 C1001 1.397 . S
C1002 C1003 1.334 . S
C1003 H980 0.950 . S
C1003 C1002 1.334 . S
C1003 C1004 1.287 . S
C1004 C1003 1.287 . S
C1004 C1005 1.524 . S
C1004 H1023 0.913 . S
C1005 H981 0.950 . S
C1005 C1004 1.524 . S
C1005 C1006 1.415 . S
C1006 H982 0.950 . S
C1006 C1001 1.363 . S
C1006 C1005 1.415 . S
C1007 H983 0.951 . S
C1007 C1008 1.366 . S
C1007 C1009 1.388 . S
C1008 C1007 1.366 . S
C1008 C1012 1.385 . S
C1009 H984 0.951 . S
C1009 C1007 1.388 . S
C1009 C1010 1.366 . S
C1010 C1009 1.366 . S
C1010 C1011 1.414 . S
C1010 C1013 1.499 . S
C1011 H985 0.950 . S
C1011 C1010 1.414 . S
C1011 C1012 1.374 . S
C1012 H986 0.950 . S
C1012 C1008 1.385 . S
C1012 C1011 1.374 . S
C1013 C1010 1.499 . S
C1013 C1014 1.373 . S
C1013 C1015 1.389 . S
C1014 H987 0.950 . S
C1014 C1000 1.377 . S
C1014 C1013 1.373 . S
C1015 C999 1.377 . S
C1015 C1013 1.389 . S
C1015 C1016 1.524 . S
C1016 C1015 1.524 . S
C1016 C1017 1.397 . S
C1016 C1021 1.363 . S
C1017 H988 0.950 . S
C1017 C1016 1.397 . S
C1017 C1018 1.334 . S
C1018 H989 0.950 . S
C1018 C1017 1.334 . S
C1018 C1019 1.287 . S
C1019 C1018 1.287 . S
C1019 C1020 1.524 . S
C1019 H1022 0.999 . S
C1020 H990 0.950 . S
C1020 C1019 1.524 . S
C1020 C1021 1.415 . S
C1021 H991 0.950 . S
C1021 C1016 1.363 . S
C1021 C1020 1.415 . S
H1022 C1019 0.999 . S
H1023 C1004 0.913 . S
H1024 C1042 0.951 . S
H1025 C1044 0.951 . S
H1026 C1046 0.950 . S
H1027 C1047 0.950 . S
H1028 C1049 0.950 . S
H1029 C1052 0.950 . S
H1030 C1053 0.950 . S
H1031 C1055 0.950 . S
H1032 C1056 0.950 . S
H1033 C1057 0.951 . S
H1034 C1059 0.951 . S
H1035 C1061 0.950 . S
H1036 C1062 0.950 . S
H1037 C1064 0.950 . S
H1038 C1067 0.950 . S
H1039 C1068 0.950 . S
H1040 C1070 0.950 . S
H1041 C1071 0.950 . S
C1042 H1024 0.951 . S
C1042 C1043 1.366 . S
C1042 C1044 1.388 . S
C1043 C1042 1.366 . S
C1043 C1047 1.385 . S
C1044 H1025 0.951 . S
C1044 C1042 1.388 . S
C1044 C1045 1.366 . S
C1045 C1044 1.366 . S
C1045 C1046 1.414 . S
C1045 C1048 1.499 . S
C1046 H1026 0.950 . S
C1046 C1045 1.414 . S
C1046 C1047 1.374 . S
C1047 H1027 0.950 . S
C1047 C1043 1.385 . S
C1047 C1046 1.374 . S
C1048 C1045 1.499 . S
C1048 C1049 1.373 . S
C1048 C1050 1.389 . S
C1049 H1028 0.950 . S
C1049 C1048 1.373 . S
C1049 C1065 1.377 . S
C1050 C1048 1.389 . S
C1050 C1051 1.524 . S
C1050 C1064 1.377 . S
C1051 C1050 1.524 . S
C1051 C1052 1.397 . S
C1051 C1056 1.363 . S
C1052 H1029 0.950 . S
C1052 C1051 1.397 . S
C1052 C1053 1.334 . S
C1053 H1030 0.950 . S
C1053 C1052 1.334 . S
C1053 C1054 1.287 . S
C1054 C1053 1.287 . S
C1054 C1055 1.524 . S
C1054 H1073 0.913 . S
C1055 H1031 0.950 . S
C1055 C1054 1.524 . S
C1055 C1056 1.415 . S
C1056 H1032 0.950 . S
C1056 C1051 1.363 . S
C1056 C1055 1.415 . S
C1057 H1033 0.951 . S
C1057 C1058 1.366 . S
C1057 C1059 1.388 . S
C1058 C1057 1.366 . S
C1058 C1062 1.385 . S
C1059 H1034 0.951 . S
C1059 C1057 1.388 . S
C1059 C1060 1.366 . S
C1060 C1059 1.366 . S
C1060 C1061 1.414 . S
C1060 C1063 1.499 . S
C1061 H1035 0.950 . S
C1061 C1060 1.414 . S
C1061 C1062 1.374 . S
C1062 H1036 0.950 . S
C1062 C1058 1.385 . S
C1062 C1061 1.374 . S
C1063 C1060 1.499 . S
C1063 C1064 1.373 . S
C1063 C1065 1.389 . S
C1064 H1037 0.950 . S
C1064 C1050 1.377 . S
C1064 C1063 1.373 . S
C1065 C1049 1.377 . S
C1065 C1063 1.389 . S
C1065 C1066 1.524 . S
C1066 C1065 1.524 . S
C1066 C1067 1.397 . S
C1066 C1071 1.363 . S
C1067 H1038 0.950 . S
C1067 C1066 1.397 . S
C1067 C1068 1.334 . S
C1068 H1039 0.950 . S
C1068 C1067 1.334 . S
C1068 C1069 1.287 . S
C1069 C1068 1.287 . S
C1069 C1070 1.524 . S
C1069 H1072 0.999 . S
C1070 H1040 0.950 . S
C1070 C1069 1.524 . S
C1070 C1071 1.415 . S
C1071 H1041 0.950 . S
C1071 C1066 1.363 . S
C1071 C1070 1.415 . S
H1072 C1069 0.999 . S
H1073 C1054 0.913 . S
H1074 C1092 0.951 . S
H1075 C1094 0.951 . S
H1076 C1096 0.950 . S
H1077 C1097 0.950 . S
H1078 C1099 0.950 . S
H1079 C1102 0.950 . S
H1080 C1103 0.950 . S
H1081 C1105 0.950 . S
H1082 C1106 0.950 . S
H1083 C1107 0.951 . S
H1084 C1109 0.951 . S
H1085 C1111 0.950 . S
H1086 C1112 0.950 . S
H1087 C1114 0.950 . S
H1088 C1117 0.950 . S
H1089 C1118 0.950 . S
H1090 C1120 0.950 . S
H1091 C1121 0.950 . S
C1092 H1074 0.951 . S
C1092 C1093 1.366 . S
C1092 C1094 1.388 . S
C1093 C1092 1.366 . S
C1093 C1097 1.385 . S
C1094 H1075 0.951 . S
C1094 C1092 1.388 . S
C1094 C1095 1.366 . S
C1095 C1094 1.366 . S
C1095 C1096 1.414 . S
C1095 C1098 1.499 . S
C1096 H1076 0.950 . S
C1096 C1095 1.414 . S
C1096 C1097 1.374 . S
C1097 H1077 0.950 . S
C1097 C1093 1.385 . S
C1097 C1096 1.374 . S
C1098 C1095 1.499 . S
C1098 C1099 1.373 . S
C1098 C1100 1.389 . S
C1099 H1078 0.950 . S
C1099 C1098 1.373 . S
C1099 C1115 1.377 . S
C1100 C1098 1.389 . S
C1100 C1101 1.524 . S
C1100 C1114 1.377 . S
C1101 C1100 1.524 . S
C1101 C1102 1.397 . S
C1101 C1106 1.363 . S
C1102 H1079 0.950 . S
C1102 C1101 1.397 . S
C1102 C1103 1.334 . S
C1103 H1080 0.950 . S
C1103 C1102 1.334 . S
C1103 C1104 1.287 . S
C1104 C1103 1.287 . S
C1104 C1105 1.524 . S
C1104 H1123 0.913 . S
C1105 H1081 0.950 . S
C1105 C1104 1.524 . S
C1105 C1106 1.415 . S
C1106 H1082 0.950 . S
C1106 C1101 1.363 . S
C1106 C1105 1.415 . S
C1107 H1083 0.951 . S
C1107 C1108 1.366 . S
C1107 C1109 1.388 . S
C1108 C1107 1.366 . S
C1108 C1112 1.385 . S
C1109 H1084 0.951 . S
C1109 C1107 1.388 . S
C1109 C1110 1.366 . S
C1110 C1109 1.366 . S
C1110 C1111 1.414 . S
C1110 C1113 1.499 . S
C1111 H1085 0.950 . S
C1111 C1110 1.414 . S
C1111 C1112 1.374 . S
C1112 H1086 0.950 . S
C1112 C1108 1.385 . S
C1112 C1111 1.374 . S
C1113 C1110 1.499 . S
C1113 C1114 1.373 . S
C1113 C1115 1.389 . S
C1114 H1087 0.950 . S
C1114 C1100 1.377 . S
C1114 C1113 1.373 . S
C1115 C1099 1.377 . S
C1115 C1113 1.389 . S
C1115 C1116 1.524 . S
C1116 C1115 1.524 . S
C1116 C1117 1.397 . S
C1116 C1121 1.363 . S
C1117 H1088 0.950 . S
C1117 C1116 1.397 . S
C1117 C1118 1.334 . S
C1118 H1089 0.950 . S
C1118 C1117 1.334 . S
C1118 C1119 1.287 . S
C1119 C1118 1.287 . S
C1119 C1120 1.524 . S
C1119 H1122 0.999 . S
C1120 H1090 0.950 . S
C1120 C1119 1.524 . S
C1120 C1121 1.415 . S
C1121 H1091 0.950 . S
C1121 C1116 1.363 . S
C1121 C1120 1.415 . S
H1122 C1119 0.999 . S
H1123 C1104 0.913 . S
H1124 C1142 0.951 . S
H1125 C1144 0.951 . S
H1126 C1146 0.950 . S
H1127 C1147 0.950 . S
H1128 C1149 0.950 . S
H1129 C1152 0.950 . S
H1130 C1153 0.950 . S
H1131 C1155 0.950 . S
H1132 C1156 0.950 . S
H1133 C1157 0.951 . S
H1134 C1159 0.951 . S
H1135 C1161 0.950 . S
H1136 C1162 0.950 . S
H1137 C1164 0.950 . S
H1138 C1167 0.950 . S
H1139 C1168 0.950 . S
H1140 C1170 0.950 . S
H1141 C1171 0.950 . S
C1142 H1124 0.951 . S
C1142 C1143 1.366 . S
C1142 C1144 1.388 . S
C1143 C1142 1.366 . S
C1143 C1147 1.385 . S
C1144 H1125 0.951 . S
C1144 C1142 1.388 . S
C1144 C1145 1.366 . S
C1145 C1144 1.366 . S
C1145 C1146 1.414 . S
C1145 C1148 1.499 . S
C1146 H1126 0.950 . S
C1146 C1145 1.414 . S
C1146 C1147 1.374 . S
C1147 H1127 0.950 . S
C1147 C1143 1.385 . S
C1147 C1146 1.374 . S
C1148 C1145 1.499 . S
C1148 C1149 1.373 . S
C1148 C1150 1.389 . S
C1149 H1128 0.950 . S
C1149 C1148 1.373 . S
C1149 C1165 1.377 . S
C1150 C1148 1.389 . S
C1150 C1151 1.524 . S
C1150 C1164 1.377 . S
C1151 C1150 1.524 . S
C1151 C1152 1.397 . S
C1151 C1156 1.363 . S
C1152 H1129 0.950 . S
C1152 C1151 1.397 . S
C1152 C1153 1.334 . S
C1153 H1130 0.950 . S
C1153 C1152 1.334 . S
C1153 C1154 1.287 . S
C1154 C1153 1.287 . S
C1154 C1155 1.524 . S
C1154 H1173 0.913 . S
C1155 H1131 0.950 . S
C1155 C1154 1.524 . S
C1155 C1156 1.415 . S
C1156 H1132 0.950 . S
C1156 C1151 1.363 . S
C1156 C1155 1.415 . S
C1157 H1133 0.951 . S
C1157 C1158 1.366 . S
C1157 C1159 1.388 . S
C1158 C1157 1.366 . S
C1158 C1162 1.385 . S
C1159 H1134 0.951 . S
C1159 C1157 1.388 . S
C1159 C1160 1.366 . S
C1160 C1159 1.366 . S
C1160 C1161 1.414 . S
C1160 C1163 1.499 . S
C1161 H1135 0.950 . S
C1161 C1160 1.414 . S
C1161 C1162 1.374 . S
C1162 H1136 0.950 . S
C1162 C1158 1.385 . S
C1162 C1161 1.374 . S
C1163 C1160 1.499 . S
C1163 C1164 1.373 . S
C1163 C1165 1.389 . S
C1164 H1137 0.950 . S
C1164 C1150 1.377 . S
C1164 C1163 1.373 . S
C1165 C1149 1.377 . S
C1165 C1163 1.389 . S
C1165 C1166 1.524 . S
C1166 C1165 1.524 . S
C1166 C1167 1.397 . S
C1166 C1171 1.363 . S
C1167 H1138 0.950 . S
C1167 C1166 1.397 . S
C1167 C1168 1.334 . S
C1168 H1139 0.950 . S
C1168 C1167 1.334 . S
C1168 C1169 1.287 . S
C1169 C1168 1.287 . S
C1169 C1170 1.524 . S
C1169 H1172 0.999 . S
C1170 H1140 0.950 . S
C1170 C1169 1.524 . S
C1170 C1171 1.415 . S
C1171 H1141 0.950 . S
C1171 C1166 1.363 . S
C1171 C1170 1.415 . S
H1172 C1169 0.999 . S
H1173 C1154 0.913 . S
H1174 C1192 0.951 . S
H1175 C1194 0.951 . S
H1176 C1196 0.950 . S
H1177 C1197 0.950 . S
H1178 C1199 0.950 . S
H1179 C1202 0.950 . S
H1180 C1203 0.950 . S
H1181 C1205 0.950 . S
H1182 C1206 0.950 . S
H1183 C1207 0.951 . S
H1184 C1209 0.951 . S
H1185 C1211 0.950 . S
H1186 C1212 0.950 . S
H1187 C1214 0.950 . S
H1188 C1217 0.950 . S
H1189 C1218 0.950 . S
H1190 C1220 0.950 . S
H1191 C1221 0.950 . S
C1192 H1174 0.951 . S
C1192 C1193 1.366 . S
C1192 C1194 1.388 . S
C1193 C1192 1.366 . S
C1193 C1197 1.385 . S
C1194 H1175 0.951 . S
C1194 C1192 1.388 . S
C1194 C1195 1.366 . S
C1195 C1194 1.366 . S
C1195 C1196 1.414 . S
C1195 C1198 1.499 . S
C1196 H1176 0.950 . S
C1196 C1195 1.414 . S
C1196 C1197 1.374 . S
C1197 H1177 0.950 . S
C1197 C1193 1.385 . S
C1197 C1196 1.374 . S
C1198 C1195 1.499 . S
C1198 C1199 1.373 . S
C1198 C1200 1.389 . S
C1199 H1178 0.950 . S
C1199 C1198 1.373 . S
C1199 C1215 1.377 . S
C1200 C1198 1.389 . S
C1200 C1201 1.524 . S
C1200 C1214 1.377 . S
C1201 C1200 1.524 . S
C1201 C1202 1.397 . S
C1201 C1206 1.363 . S
C1202 H1179 0.950 . S
C1202 C1201 1.397 . S
C1202 C1203 1.334 . S
C1203 H1180 0.950 . S
C1203 C1202 1.334 . S
C1203 C1204 1.287 . S
C1204 C1203 1.287 . S
C1204 C1205 1.524 . S
C1204 H1223 0.913 1_545 S
C1205 H1181 0.950 . S
C1205 C1204 1.524 . S
C1205 C1206 1.415 . S
C1206 H1182 0.950 . S
C1206 C1201 1.363 . S
C1206 C1205 1.415 . S
C1207 H1183 0.951 . S
C1207 C1208 1.366 . S
C1207 C1209 1.388 . S
C1208 C1207 1.366 . S
C1208 C1212 1.385 . S
C1209 H1184 0.951 . S
C1209 C1207 1.388 . S
C1209 C1210 1.366 . S
C1210 C1209 1.366 . S
C1210 C1211 1.414 . S
C1210 C1213 1.499 . S
C1211 H1185 0.950 . S
C1211 C1210 1.414 . S
C1211 C1212 1.374 . S
C1212 H1186 0.950 . S
C1212 C1208 1.385 . S
C1212 C1211 1.374 . S
C1213 C1210 1.499 . S
C1213 C1214 1.373 . S
C1213 C1215 1.389 . S
C1214 H1187 0.950 . S
C1214 C1200 1.377 . S
C1214 C1213 1.373 . S
C1215 C1199 1.377 . S
C1215 C1213 1.389 . S
C1215 C1216 1.524 . S
C1216 C1215 1.524 . S
C1216 C1217 1.397 . S
C1216 C1221 1.363 . S
C1217 H1188 0.950 . S
C1217 C1216 1.397 . S
C1217 C1218 1.334 . S
C1218 H1189 0.950 . S
C1218 C1217 1.334 . S
C1218 C1219 1.287 . S
C1219 C1218 1.287 . S
C1219 C1220 1.524 . S
C1219 H1222 0.999 . S
C1220 H1190 0.950 . S
C1220 C1219 1.524 . S
C1220 C1221 1.415 . S
C1221 H1191 0.950 . S
C1221 C1216 1.363 . S
C1221 C1220 1.415 . S
H1222 C1219 0.999 . S
H1223 C1204 0.913 1_565 S
H1224 C1242 0.962 . S
H1225 C1244 0.951 . S
H1226 C1246 0.950 . S
H1227 C1247 0.950 . S
H1228 C1249 0.950 . S
H1229 C1252 0.950 . S
H1230 C1253 0.953 1_455 S
H1231 C1255 0.950 . S
H1232 C1256 0.950 . S
H1233 C1257 0.951 . S
H1234 C1259 0.951 . S
H1235 C1261 0.950 . S
H1236 C1262 0.950 . S
H1237 C1264 0.950 . S
H1238 C1267 0.950 . S
H1239 C1268 0.950 . S
H1240 C1270 0.950 . S
H1241 C1271 0.950 . S
C1242 H1224 0.962 . S
C1242 C1243 1.366 . S
C1242 C1244 1.388 . S
C1243 C1242 1.366 . S
C1243 C1247 1.385 . S
C1244 H1225 0.951 . S
C1244 C1242 1.388 . S
C1244 C1245 1.366 . S
C1245 C1244 1.366 . S
C1245 C1246 1.414 . S
C1245 C1248 1.499 . S
C1246 H1226 0.950 . S
C1246 C1245 1.414 . S
C1246 C1247 1.374 . S
C1247 H1227 0.950 . S
C1247 C1243 1.385 . S
C1247 C1246 1.374 . S
C1248 C1245 1.499 . S
C1248 C1249 1.373 . S
C1248 C1250 1.389 . S
C1249 H1228 0.950 . S
C1249 C1248 1.373 . S
C1249 C1265 1.377 . S
C1250 C1248 1.389 . S
C1250 C1251 1.524 . S
C1250 C1264 1.377 . S
C1251 C1250 1.524 . S
C1251 C1252 1.397 . S
C1251 C1256 1.363 . S
C1252 H1229 0.950 . S
C1252 C1251 1.397 . S
C1252 C1253 1.331 . S
C1253 H1230 0.953 1_655 S
C1253 C1252 1.331 . S
C1253 C1254 1.286 . S
C1254 C1253 1.286 . S
C1254 C1255 1.546 . S
C1254 H1273 0.890 1_655 S
C1255 H1231 0.950 . S
C1255 C1254 1.546 . S
C1255 C1256 1.415 . S
C1256 H1232 0.950 . S
C1256 C1251 1.363 . S
C1256 C1255 1.415 . S
C1257 H1233 0.951 . S
C1257 C1258 1.366 . S
C1257 C1259 1.388 . S
C1258 C1257 1.366 . S
C1258 C1262 1.385 . S
C1259 H1234 0.951 . S
C1259 C1257 1.388 . S
C1259 C1260 1.366 . S
C1260 C1259 1.366 . S
C1260 C1261 1.414 . S
C1260 C1263 1.499 . S
C1261 H1235 0.950 . S
C1261 C1260 1.414 . S
C1261 C1262 1.374 . S
C1262 H1236 0.950 . S
C1262 C1258 1.385 . S
C1262 C1261 1.374 . S
C1263 C1260 1.499 . S
C1263 C1264 1.373 . S
C1263 C1265 1.389 . S
C1264 H1237 0.950 . S
C1264 C1250 1.377 . S
C1264 C1263 1.373 . S
C1265 C1249 1.377 . S
C1265 C1263 1.389 . S
C1265 C1266 1.524 . S
C1266 C1265 1.524 . S
C1266 C1267 1.397 . S
C1266 C1271 1.363 . S
C1267 H1238 0.950 . S
C1267 C1266 1.397 . S
C1267 C1268 1.334 . S
C1268 H1239 0.950 . S
C1268 C1267 1.334 . S
C1268 C1269 1.287 . S
C1269 C1268 1.287 . S
C1269 C1270 1.524 . S
C1269 H1272 0.999 . S
C1270 H1240 0.950 . S
C1270 C1269 1.524 . S
C1270 C1271 1.415 . S
C1271 H1241 0.950 . S
C1271 C1266 1.363 . S
C1271 C1270 1.415 . S
H1272 C1269 0.999 . S
H1273 C1254 0.890 1_455 S
H1274 C1292 0.951 . S
H1275 C1294 0.951 . S
H1276 C1296 0.950 . S
H1277 C1297 0.958 . S
H1278 C1299 0.950 . S
H1279 C1302 0.950 . S
H1280 C1303 0.950 . S
H1281 C1305 0.950 . S
H1282 C1306 0.950 . S
H1283 C1307 0.951 . S
H1284 C1309 0.951 . S
H1285 C1311 0.950 . S
H1286 C1312 0.950 . S
H1287 C1314 0.950 . S
H1288 C1317 0.950 . S
H1289 C1318 0.950 . S
H1290 C1320 0.950 . S
H1291 C1321 0.950 . S
C1292 H1274 0.951 . S
C1292 C1293 1.366 . S
C1292 C1294 1.388 . S
C1293 C1292 1.366 . S
C1293 C1297 1.385 . S
C1294 H1275 0.951 . S
C1294 C1292 1.388 . S
C1294 C1295 1.366 . S
C1295 C1294 1.366 . S
C1295 C1296 1.414 . S
C1295 C1298 1.499 . S
C1296 H1276 0.950 . S
C1296 C1295 1.414 . S
C1296 C1297 1.374 . S
C1297 H1277 0.958 . S
C1297 C1293 1.385 . S
C1297 C1296 1.374 . S
C1298 C1295 1.499 . S
C1298 C1299 1.373 . S
C1298 C1300 1.389 . S
C1299 H1278 0.950 . S
C1299 C1298 1.373 . S
C1299 C1315 1.377 . S
C1300 C1298 1.389 . S
C1300 C1301 1.524 . S
C1300 C1314 1.377 . S
C1301 C1300 1.524 . S
C1301 C1302 1.397 . S
C1301 C1306 1.363 . S
C1302 H1279 0.950 . S
C1302 C1301 1.397 . S
C1302 C1303 1.334 . S
C1303 H1280 0.950 . S
C1303 C1302 1.334 . S
C1303 C1304 1.287 . S
C1304 C1303 1.287 . S
C1304 C1305 1.524 . S
C1304 H1323 0.913 . S
C1305 H1281 0.950 . S
C1305 C1304 1.524 . S
C1305 C1306 1.415 . S
C1306 H1282 0.950 . S
C1306 C1301 1.363 . S
C1306 C1305 1.415 . S
C1307 H1283 0.951 . S
C1307 C1308 1.366 . S
C1307 C1309 1.388 . S
C1308 C1307 1.366 . S
C1308 C1312 1.385 . S
C1309 H1284 0.951 . S
C1309 C1307 1.388 . S
C1309 C1310 1.366 . S
C1310 C1309 1.366 . S
C1310 C1311 1.414 . S
C1310 C1313 1.499 . S
C1311 H1285 0.950 . S
C1311 C1310 1.414 . S
C1311 C1312 1.374 . S
C1312 H1286 0.950 . S
C1312 C1308 1.385 . S
C1312 C1311 1.374 . S
C1313 C1310 1.499 . S
C1313 C1314 1.373 . S
C1313 C1315 1.389 . S
C1314 H1287 0.950 . S
C1314 C1300 1.377 . S
C1314 C1313 1.373 . S
C1315 C1299 1.377 . S
C1315 C1313 1.389 . S
C1315 C1316 1.524 . S
C1316 C1315 1.524 . S
C1316 C1317 1.397 . S
C1316 C1321 1.363 . S
C1317 H1288 0.950 . S
C1317 C1316 1.397 . S
C1317 C1318 1.334 . S
C1318 H1289 0.950 . S
C1318 C1317 1.334 . S
C1318 C1319 1.287 . S
C1319 C1318 1.287 . S
C1319 C1320 1.524 . S
C1319 H1322 0.999 . S
C1320 H1290 0.950 . S
C1320 C1319 1.524 . S
C1320 C1321 1.415 . S
C1321 H1291 0.950 . S
C1321 C1316 1.363 . S
C1321 C1320 1.415 . S
H1322 C1319 0.999 . S
H1323 C1304 0.913 . S
H1324 C1342 0.951 . S
H1325 C1344 0.951 . S
H1326 C1346 0.950 . S
H1327 C1347 0.950 . S
H1328 C1349 0.950 . S
H1329 C1352 0.950 . S
H1330 C1353 0.950 . S
H1331 C1355 0.950 . S
H1332 C1356 0.950 . S
H1333 C1357 0.951 . S
H1334 C1359 0.951 . S
H1335 C1361 0.950 . S
H1336 C1362 0.950 1_545 S
H1337 C1364 0.950 . S
H1338 C1367 0.950 . S
H1339 C1368 0.950 . S
H1340 C1370 0.950 . S
H1341 C1371 0.950 . S
C1342 H1324 0.951 . S
C1342 C1343 1.366 . S
C1342 C1344 1.388 . S
C1343 C1342 1.366 . S
C1343 C1347 1.385 . S
C1344 H1325 0.951 . S
C1344 C1342 1.388 . S
C1344 C1345 1.366 . S
C1345 C1344 1.366 . S
C1345 C1346 1.414 . S
C1345 C1348 1.499 . S
C1346 H1326 0.950 . S
C1346 C1345 1.414 . S
C1346 C1347 1.374 . S
C1347 H1327 0.950 . S
C1347 C1343 1.385 . S
C1347 C1346 1.374 . S
C1348 C1345 1.499 . S
C1348 C1349 1.373 . S
C1348 C1350 1.389 . S
C1349 H1328 0.950 . S
C1349 C1348 1.373 . S
C1349 C1365 1.377 . S
C1350 C1348 1.389 . S
C1350 C1351 1.524 . S
C1350 C1364 1.377 . S
C1351 C1350 1.524 . S
C1351 C1352 1.397 . S
C1351 C1356 1.363 . S
C1352 H1329 0.950 . S
C1352 C1351 1.397 . S
C1352 C1353 1.334 . S
C1353 H1330 0.950 . S
C1353 C1352 1.334 . S
C1353 C1354 1.287 . S
C1354 C1353 1.287 . S
C1354 C1355 1.524 . S
C1354 H1373 0.913 . S
C1355 H1331 0.950 . S
C1355 C1354 1.524 . S
C1355 C1356 1.415 . S
C1356 H1332 0.950 . S
C1356 C1351 1.363 . S
C1356 C1355 1.415 . S
C1357 H1333 0.951 . S
C1357 C1358 1.366 . S
C1357 C1359 1.388 . S
C1358 C1357 1.366 . S
C1358 C1362 1.385 . S
C1359 H1334 0.951 . S
C1359 C1357 1.388 . S
C1359 C1360 1.366 . S
C1360 C1359 1.366 . S
C1360 C1361 1.414 . S
C1360 C1363 1.499 . S
C1361 H1335 0.950 . S
C1361 C1360 1.414 . S
C1361 C1362 1.374 . S
C1362 H1336 0.950 1_565 S
C1362 C1358 1.385 . S
C1362 C1361 1.374 . S
C1363 C1360 1.499 . S
C1363 C1364 1.373 . S
C1363 C1365 1.389 . S
C1364 H1337 0.950 . S
C1364 C1350 1.377 . S
C1364 C1363 1.373 . S
C1365 C1349 1.377 . S
C1365 C1363 1.389 . S
C1365 C1366 1.524 . S
C1366 C1365 1.524 . S
C1366 C1367 1.397 . S
C1366 C1371 1.363 . S
C1367 H1338 0.950 . S
C1367 C1366 1.397 . S
C1367 C1368 1.334 . S
C1368 H1339 0.950 . S
C1368 C1367 1.334 . S
C1368 C1369 1.287 . S
C1369 C1368 1.287 . S
C1369 C1370 1.524 . S
C1369 H1372 0.999 . S
C1370 H1340 0.950 . S
C1370 C1369 1.524 . S
C1370 C1371 1.415 . S
C1371 H1341 0.950 . S
C1371 C1366 1.363 . S
C1371 C1370 1.415 . S
H1372 C1369 0.999 . S
H1373 C1354 0.913 . S
H1374 C1392 0.951 . S
H1375 C1394 0.951 . S
H1376 C1396 0.950 . S
H1377 C1397 0.950 . S
H1378 C1399 0.950 . S
H1379 C1402 0.950 . S
H1380 C1403 0.950 . S
H1381 C1405 0.950 . S
H1382 C1406 0.950 . S
H1383 C1407 0.951 1_455 S
H1384 C1409 0.951 . S
H1385 C1411 0.950 . S
H1386 C1412 0.950 . S
H1387 C1414 0.950 . S
H1388 C1417 0.950 . S
H1389 C1418 0.946 . S
H1390 C1420 0.950 . S
H1391 C1421 0.950 . S
C1392 H1374 0.951 . S
C1392 C1393 1.366 . S
C1392 C1394 1.388 . S
C1393 C1392 1.366 . S
C1393 C1397 1.385 . S
C1394 H1375 0.951 . S
C1394 C1392 1.388 . S
C1394 C1395 1.366 . S
C1395 C1394 1.366 . S
C1395 C1396 1.414 . S
C1395 C1398 1.499 . S
C1396 H1376 0.950 . S
C1396 C1395 1.414 . S
C1396 C1397 1.374 . S
C1397 H1377 0.950 . S
C1397 C1393 1.385 . S
C1397 C1396 1.374 . S
C1398 C1395 1.499 . S
C1398 C1399 1.373 . S
C1398 C1400 1.389 . S
C1399 H1378 0.950 . S
C1399 C1398 1.373 . S
C1399 C1415 1.377 . S
C1400 C1398 1.389 . S
C1400 C1401 1.524 . S
C1400 C1414 1.377 . S
C1401 C1400 1.524 . S
C1401 C1402 1.397 . S
C1401 C1406 1.363 . S
C1402 H1379 0.950 . S
C1402 C1401 1.397 . S
C1402 C1403 1.334 . S
C1403 H1380 0.950 . S
C1403 C1402 1.334 . S
C1403 C1404 1.287 . S
C1404 C1403 1.287 . S
C1404 C1405 1.524 . S
C1404 H1423 0.913 . S
C1405 H1381 0.950 . S
C1405 C1404 1.524 . S
C1405 C1406 1.415 . S
C1406 H1382 0.950 . S
C1406 C1401 1.363 . S
C1406 C1405 1.415 . S
C1407 H1383 0.951 1_655 S
C1407 C1408 1.366 . S
C1407 C1409 1.388 . S
C1408 C1407 1.366 . S
C1408 C1412 1.385 . S
C1409 H1384 0.951 . S
C1409 C1407 1.388 . S
C1409 C1410 1.366 . S
C1410 C1409 1.366 . S
C1410 C1411 1.414 . S
C1410 C1413 1.499 . S
C1411 H1385 0.950 . S
C1411 C1410 1.414 . S
C1411 C1412 1.374 . S
C1412 H1386 0.950 . S
C1412 C1408 1.385 . S
C1412 C1411 1.374 . S
C1413 C1410 1.499 . S
C1413 C1414 1.373 . S
C1413 C1415 1.389 . S
C1414 H1387 0.950 . S
C1414 C1400 1.377 . S
C1414 C1413 1.373 . S
C1415 C1399 1.377 . S
C1415 C1413 1.389 . S
C1415 C1416 1.524 . S
C1416 C1415 1.524 . S
C1416 C1417 1.397 . S
C1416 C1421 1.363 . S
C1417 H1388 0.950 . S
C1417 C1416 1.397 . S
C1417 C1418 1.334 . S
C1418 H1389 0.946 . S
C1418 C1417 1.334 . S
C1418 C1419 1.287 . S
C1419 C1418 1.287 . S
C1419 C1420 1.524 . S
C1419 H1422 0.999 . S
C1420 H1390 0.950 . S
C1420 C1419 1.524 . S
C1420 C1421 1.415 . S
C1421 H1391 0.950 . S
C1421 C1416 1.363 . S
C1421 C1420 1.415 . S
H1422 C1419 0.999 . S
H1423 C1404 0.913 . S
H1424 C1442 0.951 . S
H1425 C1444 0.951 . S
H1426 C1446 0.950 . S
H1427 C1447 0.950 . S
H1428 C1449 0.950 . S
H1429 C1452 0.950 . S
H1430 C1453 0.950 . S
H1431 C1455 0.950 . S
H1432 C1456 0.950 . S
H1433 C1457 0.951 . S
H1434 C1459 0.951 . S
H1435 C1461 0.950 . S
H1436 C1462 0.950 . S
H1437 C1464 0.950 . S
H1438 C1467 0.950 . S
H1439 C1468 0.950 . S
H1440 C1470 0.950 . S
H1441 C1471 0.950 . S
C1442 H1424 0.951 . S
C1442 C1443 1.366 . S
C1442 C1444 1.388 . S
C1443 C1442 1.366 . S
C1443 C1447 1.385 . S
C1444 H1425 0.951 . S
C1444 C1442 1.388 . S
C1444 C1445 1.366 . S
C1445 C1444 1.366 . S
C1445 C1446 1.414 . S
C1445 C1448 1.499 . S
C1446 H1426 0.950 . S
C1446 C1445 1.414 . S
C1446 C1447 1.374 . S
C1447 H1427 0.950 . S
C1447 C1443 1.385 . S
C1447 C1446 1.374 . S
C1448 C1445 1.499 . S
C1448 C1449 1.373 . S
C1448 C1450 1.389 . S
C1449 H1428 0.950 . S
C1449 C1448 1.373 . S
C1449 C1465 1.377 . S
C1450 C1448 1.389 . S
C1450 C1451 1.524 . S
C1450 C1464 1.377 . S
C1451 C1450 1.524 . S
C1451 C1452 1.397 . S
C1451 C1456 1.363 . S
C1452 H1429 0.950 . S
C1452 C1451 1.397 . S
C1452 C1453 1.334 . S
C1453 H1430 0.950 . S
C1453 C1452 1.334 . S
C1453 C1454 1.287 . S
C1454 C1453 1.287 . S
C1454 C1455 1.524 . S
C1454 H1473 0.913 . S
C1455 H1431 0.950 . S
C1455 C1454 1.524 . S
C1455 C1456 1.415 . S
C1456 H1432 0.950 . S
C1456 C1451 1.363 . S
C1456 C1455 1.415 . S
C1457 H1433 0.951 . S
C1457 C1458 1.366 . S
C1457 C1459 1.388 . S
C1458 C1457 1.366 . S
C1458 C1462 1.385 . S
C1459 H1434 0.951 . S
C1459 C1457 1.388 . S
C1459 C1460 1.366 . S
C1460 C1459 1.366 . S
C1460 C1461 1.414 . S
C1460 C1463 1.499 . S
C1461 H1435 0.950 . S
C1461 C1460 1.414 . S
C1461 C1462 1.374 . S
C1462 H1436 0.950 . S
C1462 C1458 1.385 . S
C1462 C1461 1.374 . S
C1463 C1460 1.499 . S
C1463 C1464 1.373 . S
C1463 C1465 1.389 . S
C1464 H1437 0.950 . S
C1464 C1450 1.377 . S
C1464 C1463 1.373 . S
C1465 C1449 1.377 . S
C1465 C1463 1.389 . S
C1465 C1466 1.524 . S
C1466 C1465 1.524 . S
C1466 C1467 1.397 . S
C1466 C1471 1.363 . S
C1467 H1438 0.950 . S
C1467 C1466 1.397 . S
C1467 C1468 1.334 . S
C1468 H1439 0.950 . S
C1468 C1467 1.334 . S
C1468 C1469 1.287 . S
C1469 C1468 1.287 . S
C1469 C1470 1.524 . S
C1469 H1472 0.999 . S
C1470 H1440 0.950 . S
C1470 C1469 1.524 . S
C1470 C1471 1.415 . S
C1471 H1441 0.950 . S
C1471 C1466 1.363 . S
C1471 C1470 1.415 . S
H1472 C1469 0.999 . S
H1473 C1454 0.913 . S
H1474 C1492 0.951 . S
H1475 C1494 0.951 . S
H1476 C1496 0.950 . S
H1477 C1497 0.950 . S
H1478 C1499 0.950 . S
H1479 C1502 0.950 . S
H1480 C1503 0.950 . S
H1481 C1505 0.950 . S
H1482 C1506 0.950 . S
H1483 C1507 0.951 . S
H1484 C1509 0.951 . S
H1485 C1511 0.950 . S
H1486 C1512 0.950 . S
H1487 C1514 0.950 . S
H1488 C1517 0.950 . S
H1489 C1518 0.950 . S
H1490 C1520 0.950 1_455 S
H1491 C1521 0.950 . S
C1492 H1474 0.951 . S
C1492 C1493 1.366 . S
C1492 C1494 1.388 . S
C1493 C1492 1.366 . S
C1493 C1497 1.385 . S
C1494 H1475 0.951 . S
C1494 C1492 1.388 . S
C1494 C1495 1.366 . S
C1495 C1494 1.366 . S
C1495 C1496 1.414 . S
C1495 C1498 1.499 . S
C1496 H1476 0.950 . S
C1496 C1495 1.414 . S
C1496 C1497 1.374 . S
C1497 H1477 0.950 . S
C1497 C1493 1.385 . S
C1497 C1496 1.374 . S
C1498 C1495 1.499 . S
C1498 C1499 1.373 . S
C1498 C1500 1.389 . S
C1499 H1478 0.950 . S
C1499 C1498 1.373 . S
C1499 C1515 1.377 . S
C1500 C1498 1.389 . S
C1500 C1501 1.524 . S
C1500 C1514 1.377 . S
C1501 C1500 1.524 . S
C1501 C1502 1.397 . S
C1501 C1506 1.363 . S
C1502 H1479 0.950 . S
C1502 C1501 1.397 . S
C1502 C1503 1.334 . S
C1503 H1480 0.950 . S
C1503 C1502 1.334 . S
C1503 C1504 1.287 . S
C1504 C1503 1.287 . S
C1504 C1505 1.524 . S
C1504 H1523 0.913 . S
C1505 H1481 0.950 . S
C1505 C1504 1.524 . S
C1505 C1506 1.415 . S
C1506 H1482 0.950 . S
C1506 C1501 1.363 . S
C1506 C1505 1.415 . S
C1507 H1483 0.951 . S
C1507 C1508 1.366 1_455 S
C1507 C1509 1.388 1_455 S
C1508 C1507 1.366 1_655 S
C1508 C1512 1.385 . S
C1509 H1484 0.951 . S
C1509 C1507 1.388 1_655 S
C1509 C1510 1.366 . S
C1510 C1509 1.366 . S
C1510 C1511 1.414 . S
C1510 C1513 1.499 . S
C1511 H1485 0.950 . S
C1511 C1510 1.414 . S
C1511 C1512 1.374 . S
C1512 H1486 0.950 . S
C1512 C1508 1.385 . S
C1512 C1511 1.374 . S
C1513 C1510 1.499 . S
C1513 C1514 1.373 . S
C1513 C1515 1.389 . S
C1514 H1487 0.950 . S
C1514 C1500 1.377 . S
C1514 C1513 1.373 . S
C1515 C1499 1.377 . S
C1515 C1513 1.389 . S
C1515 C1516 1.524 . S
C1516 C1515 1.524 . S
C1516 C1517 1.397 . S
C1516 C1521 1.363 . S
C1517 H1488 0.950 . S
C1517 C1516 1.397 . S
C1517 C1518 1.334 . S
C1518 H1489 0.950 . S
C1518 C1517 1.334 . S
C1518 C1519 1.287 . S
C1519 C1518 1.287 . S
C1519 C1520 1.524 . S
C1519 H1522 0.999 1_655 S
C1520 H1490 0.950 1_655 S
C1520 C1519 1.524 . S
C1520 C1521 1.415 . S
C1521 H1491 0.950 . S
C1521 C1516 1.363 . S
C1521 C1520 1.415 . S
H1522 C1519 0.999 1_455 S
H1523 C1504 0.913 . S
H1524 C1542 0.951 . S
H1525 C1544 0.951 . S
H1526 C1546 0.950 . S
H1527 C1547 0.950 . S
H1528 C1549 0.950 . S
H1529 C1552 0.950 . S
H1530 C1553 0.950 . S
H1531 C1555 0.950 . S
H1532 C1556 0.950 . S
H1533 C1557 0.951 . S
H1534 C1559 0.951 . S
H1535 C1561 0.950 . S
H1536 C1562 0.950 . S
H1537 C1564 0.950 . S
H1538 C1567 0.950 . S
H1539 C1568 0.950 . S
H1540 C1570 0.950 . S
H1541 C1571 0.950 . S
C1542 H1524 0.951 . S
C1542 C1543 1.366 . S
C1542 C1544 1.388 . S
C1543 C1542 1.366 . S
C1543 C1547 1.385 1_655 S
C1544 H1525 0.951 . S
C1544 C1542 1.388 . S
C1544 C1545 1.366 . S
C1545 C1544 1.366 . S
C1545 C1546 1.414 . S
C1545 C1548 1.499 . S
C1546 H1526 0.950 . S
C1546 C1545 1.414 . S
C1546 C1547 1.374 1_655 S
C1547 H1527 0.950 . S
C1547 C1543 1.385 1_455 S
C1547 C1546 1.374 1_455 S
C1548 C1545 1.499 . S
C1548 C1549 1.373 . S
C1548 C1550 1.389 . S
C1549 H1528 0.950 . S
C1549 C1548 1.373 . S
C1549 C1565 1.377 . S
C1550 C1548 1.389 . S
C1550 C1551 1.524 . S
C1550 C1564 1.377 . S
C1551 C1550 1.524 . S
C1551 C1552 1.397 . S
C1551 C1556 1.363 . S
C1552 H1529 0.950 . S
C1552 C1551 1.397 . S
C1552 C1553 1.334 . S
C1553 H1530 0.950 . S
C1553 C1552 1.334 . S
C1553 C1554 1.287 . S
C1554 C1553 1.287 . S
C1554 C1555 1.524 . S
C1554 H1573 0.913 . S
C1555 H1531 0.950 . S
C1555 C1554 1.524 . S
C1555 C1556 1.415 . S
C1556 H1532 0.950 . S
C1556 C1551 1.363 . S
C1556 C1555 1.415 . S
C1557 H1533 0.951 . S
C1557 C1558 1.366 . S
C1557 C1559 1.388 . S
C1558 C1557 1.366 . S
C1558 C1562 1.385 . S
C1559 H1534 0.951 . S
C1559 C1557 1.388 . S
C1559 C1560 1.366 . S
C1560 C1559 1.366 . S
C1560 C1561 1.414 . S
C1560 C1563 1.499 . S
C1561 H1535 0.950 . S
C1561 C1560 1.414 . S
C1561 C1562 1.374 . S
C1562 H1536 0.950 . S
C1562 C1558 1.385 . S
C1562 C1561 1.374 . S
C1563 C1560 1.499 . S
C1563 C1564 1.373 . S
C1563 C1565 1.389 . S
C1564 H1537 0.950 . S
C1564 C1550 1.377 . S
C1564 C1563 1.373 . S
C1565 C1549 1.377 . S
C1565 C1563 1.389 . S
C1565 C1566 1.524 . S
C1566 C1565 1.524 . S
C1566 C1567 1.397 . S
C1566 C1571 1.363 . S
C1567 H1538 0.950 . S
C1567 C1566 1.397 . S
C1567 C1568 1.334 . S
C1568 H1539 0.950 . S
C1568 C1567 1.334 . S
C1568 C1569 1.287 . S
C1569 C1568 1.287 . S
C1569 C1570 1.524 . S
C1569 H1572 0.999 . S
C1570 H1540 0.950 . S
C1570 C1569 1.524 . S
C1570 C1571 1.415 . S
C1571 H1541 0.950 . S
C1571 C1566 1.363 . S
C1571 C1570 1.415 . S
H1572 C1569 0.999 . S
H1573 C1554 0.913 . S
H1574 C1592 0.951 . S
H1575 C1594 0.951 . S
H1576 C1596 0.950 . S
H1577 C1597 0.950 . S
H1578 C1599 0.950 . S
H1579 C1602 0.950 . S
H1580 C1603 0.950 . S
H1581 C1605 0.950 . S
H1582 C1606 0.950 . S
H1583 C1607 0.951 . S
H1584 C1609 0.951 . S
H1585 C1611 0.950 . S
H1586 C1612 0.950 . S
H1587 C1614 0.950 . S
H1588 C1617 0.950 . S
H1589 C1618 0.950 . S
H1590 C1620 0.950 . S
H1591 C1621 0.950 . S
C1592 H1574 0.951 . S
C1592 C1593 1.366 . S
C1592 C1594 1.388 . S
C1593 C1592 1.366 . S
C1593 C1597 1.385 . S
C1594 H1575 0.951 . S
C1594 C1592 1.388 . S
C1594 C1595 1.366 . S
C1595 C1594 1.366 . S
C1595 C1596 1.414 . S
C1595 C1598 1.499 . S
C1596 H1576 0.950 . S
C1596 C1595 1.414 . S
C1596 C1597 1.374 . S
C1597 H1577 0.950 . S
C1597 C1593 1.385 . S
C1597 C1596 1.374 . S
C1598 C1595 1.499 . S
C1598 C1599 1.373 . S
C1598 C1600 1.389 . S
C1599 H1578 0.950 . S
C1599 C1598 1.373 . S
C1599 C1615 1.377 . S
C1600 C1598 1.389 . S
C1600 C1601 1.524 . S
C1600 C1614 1.377 . S
C1601 C1600 1.524 . S
C1601 C1602 1.397 . S
C1601 C1606 1.363 . S
C1602 H1579 0.950 . S
C1602 C1601 1.397 . S
C1602 C1603 1.334 . S
C1603 H1580 0.950 . S
C1603 C1602 1.334 . S
C1603 C1604 1.287 . S
C1604 C1603 1.287 . S
C1604 C1605 1.524 . S
C1604 H1623 0.913 . S
C1605 H1581 0.950 . S
C1605 C1604 1.524 . S
C1605 C1606 1.415 . S
C1606 H1582 0.950 . S
C1606 C1601 1.363 . S
C1606 C1605 1.415 . S
C1607 H1583 0.951 . S
C1607 C1608 1.366 . S
C1607 C1609 1.388 . S
C1608 C1607 1.366 . S
C1608 C1612 1.385 . S
C1609 H1584 0.951 . S
C1609 C1607 1.388 . S
C1609 C1610 1.366 . S
C1610 C1609 1.366 . S
C1610 C1611 1.414 . S
C1610 C1613 1.499 . S
C1611 H1585 0.950 . S
C1611 C1610 1.414 . S
C1611 C1612 1.374 . S
C1612 H1586 0.950 . S
C1612 C1608 1.385 . S
C1612 C1611 1.374 . S
C1613 C1610 1.499 . S
C1613 C1614 1.373 . S
C1613 C1615 1.389 . S
C1614 H1587 0.950 . S
C1614 C1600 1.377 . S
C1614 C1613 1.373 . S
C1615 C1599 1.377 . S
C1615 C1613 1.389 . S
C1615 C1616 1.524 . S
C1616 C1615 1.524 . S
C1616 C1617 1.397 . S
C1616 C1621 1.363 . S
C1617 H1588 0.950 . S
C1617 C1616 1.397 . S
C1617 C1618 1.334 . S
C1618 H1589 0.950 . S
C1618 C1617 1.334 . S
C1618 C1619 1.287 . S
C1619 C1618 1.287 . S
C1619 C1620 1.524 . S
C1619 H1622 0.999 . S
C1620 H1590 0.950 . S
C1620 C1619 1.524 . S
C1620 C1621 1.415 . S
C1621 H1591 0.950 . S
C1621 C1616 1.363 . S
C1621 C1620 1.415 . S
H1622 C1619 0.999 . S
H1623 C1604 0.913 . S
H1624 C1642 0.951 . S
H1625 C1644 0.951 . S
H1626 C1646 0.950 . S
H1627 C1647 0.950 . S
H1628 C1649 0.950 . S
H1629 C1652 0.950 . S
H1630 C1653 0.950 . S
H1631 C1655 0.950 . S
H1632 C1656 0.950 . S
H1633 C1657 0.951 . S
H1634 C1659 0.951 . S
H1635 C1661 0.950 . S
H1636 C1662 0.950 . S
H1637 C1664 0.950 . S
H1638 C1667 0.950 . S
H1639 C1668 0.950 . S
H1640 C1670 0.950 . S
H1641 C1671 0.950 . S
C1642 H1624 0.951 . S
C1642 C1643 1.366 . S
C1642 C1644 1.388 . S
C1643 C1642 1.366 . S
C1643 C1647 1.385 . S
C1644 H1625 0.951 . S
C1644 C1642 1.388 . S
C1644 C1645 1.366 . S
C1645 C1644 1.366 . S
C1645 C1646 1.414 . S
C1645 C1648 1.499 . S
C1646 H1626 0.950 . S
C1646 C1645 1.414 . S
C1646 C1647 1.374 . S
C1647 H1627 0.950 . S
C1647 C1643 1.385 . S
C1647 C1646 1.374 . S
C1648 C1645 1.499 . S
C1648 C1649 1.373 . S
C1648 C1650 1.389 . S
C1649 H1628 0.950 . S
C1649 C1648 1.373 . S
C1649 C1665 1.377 . S
C1650 C1648 1.389 . S
C1650 C1651 1.524 . S
C1650 C1664 1.377 . S
C1651 C1650 1.524 . S
C1651 C1652 1.397 . S
C1651 C1656 1.363 . S
C1652 H1629 0.950 . S
C1652 C1651 1.397 . S
C1652 C1653 1.334 . S
C1653 H1630 0.950 . S
C1653 C1652 1.334 . S
C1653 C1654 1.287 . S
C1654 C1653 1.287 . S
C1654 C1655 1.524 . S
C1654 H1673 0.913 . S
C1655 H1631 0.950 . S
C1655 C1654 1.524 . S
C1655 C1656 1.415 . S
C1656 H1632 0.950 . S
C1656 C1651 1.363 . S
C1656 C1655 1.415 . S
C1657 H1633 0.951 . S
C1657 C1658 1.366 . S
C1657 C1659 1.388 . S
C1658 C1657 1.366 . S
C1658 C1662 1.385 . S
C1659 H1634 0.951 . S
C1659 C1657 1.388 . S
C1659 C1660 1.366 . S
C1660 C1659 1.366 . S
C1660 C1661 1.414 . S
C1660 C1663 1.499 . S
C1661 H1635 0.950 . S
C1661 C1660 1.414 . S
C1661 C1662 1.374 . S
C1662 H1636 0.950 . S
C1662 C1658 1.385 . S
C1662 C1661 1.374 . S
C1663 C1660 1.499 . S
C1663 C1664 1.373 . S
C1663 C1665 1.389 . S
C1664 H1637 0.950 . S
C1664 C1650 1.377 . S
C1664 C1663 1.373 . S
C1665 C1649 1.377 . S
C1665 C1663 1.389 . S
C1665 C1666 1.524 . S
C1666 C1665 1.524 . S
C1666 C1667 1.397 . S
C1666 C1671 1.363 . S
C1667 H1638 0.950 . S
C1667 C1666 1.397 . S
C1667 C1668 1.334 . S
C1668 H1639 0.950 . S
C1668 C1667 1.334 . S
C1668 C1669 1.287 . S
C1669 C1668 1.287 . S
C1669 C1670 1.524 . S
C1669 H1672 0.999 . S
C1670 H1640 0.950 . S
C1670 C1669 1.524 . S
C1670 C1671 1.415 . S
C1671 H1641 0.950 . S
C1671 C1666 1.363 . S
C1671 C1670 1.415 . S
H1672 C1669 0.999 . S
H1673 C1654 0.913 . S
H1674 C1692 0.951 . S
H1675 C1694 0.951 . S
H1676 C1696 0.950 . S
H1677 C1697 0.950 . S
H1678 C1699 0.950 . S
H1679 C1702 0.950 . S
H1680 C1703 0.950 . S
H1681 C1705 0.950 . S
H1682 C1706 0.950 . S
H1683 C1707 0.951 . S
H1684 C1709 0.951 . S
H1685 C1711 0.950 . S
H1686 C1712 0.950 . S
H1687 C1714 0.950 . S
H1688 C1717 0.950 . S
H1689 C1718 0.950 . S
H1690 C1720 0.950 . S
H1691 C1721 0.950 . S
C1692 H1674 0.951 . S
C1692 C1693 1.366 . S
C1692 C1694 1.388 . S
C1693 C1692 1.366 . S
C1693 C1697 1.385 . S
C1694 H1675 0.951 . S
C1694 C1692 1.388 . S
C1694 C1695 1.366 . S
C1695 C1694 1.366 . S
C1695 C1696 1.414 . S
C1695 C1698 1.499 . S
C1696 H1676 0.950 . S
C1696 C1695 1.414 . S
C1696 C1697 1.374 . S
C1697 H1677 0.950 . S
C1697 C1693 1.385 . S
C1697 C1696 1.374 . S
C1698 C1695 1.499 . S
C1698 C1699 1.373 . S
C1698 C1700 1.389 . S
C1699 H1678 0.950 . S
C1699 C1698 1.373 . S
C1699 C1715 1.377 . S
C1700 C1698 1.389 . S
C1700 C1701 1.524 . S
C1700 C1714 1.377 . S
C1701 C1700 1.524 . S
C1701 C1702 1.397 . S
C1701 C1706 1.363 . S
C1702 H1679 0.950 . S
C1702 C1701 1.397 . S
C1702 C1703 1.334 . S
C1703 H1680 0.950 . S
C1703 C1702 1.334 . S
C1703 C1704 1.287 . S
C1704 C1703 1.287 . S
C1704 C1705 1.524 . S
C1704 H1723 0.913 . S
C1705 H1681 0.950 . S
C1705 C1704 1.524 . S
C1705 C1706 1.415 . S
C1706 H1682 0.950 . S
C1706 C1701 1.363 . S
C1706 C1705 1.415 . S
C1707 H1683 0.951 . S
C1707 C1708 1.366 . S
C1707 C1709 1.388 . S
C1708 C1707 1.366 . S
C1708 C1712 1.385 . S
C1709 H1684 0.951 . S
C1709 C1707 1.388 . S
C1709 C1710 1.366 . S
C1710 C1709 1.366 . S
C1710 C1711 1.414 . S
C1710 C1713 1.499 . S
C1711 H1685 0.950 . S
C1711 C1710 1.414 . S
C1711 C1712 1.374 . S
C1712 H1686 0.950 . S
C1712 C1708 1.385 . S
C1712 C1711 1.374 . S
C1713 C1710 1.499 . S
C1713 C1714 1.373 . S
C1713 C1715 1.389 . S
C1714 H1687 0.950 . S
C1714 C1700 1.377 . S
C1714 C1713 1.373 . S
C1715 C1699 1.377 . S
C1715 C1713 1.389 . S
C1715 C1716 1.524 . S
C1716 C1715 1.524 . S
C1716 C1717 1.397 . S
C1716 C1721 1.363 . S
C1717 H1688 0.950 . S
C1717 C1716 1.397 . S
C1717 C1718 1.334 . S
C1718 H1689 0.950 . S
C1718 C1717 1.334 . S
C1718 C1719 1.287 . S
C1719 C1718 1.287 . S
C1719 C1720 1.524 . S
C1719 H1722 0.999 . S
C1720 H1690 0.950 . S
C1720 C1719 1.524 . S
C1720 C1721 1.415 . S
C1721 H1691 0.950 . S
C1721 C1716 1.363 . S
C1721 C1720 1.415 . S
H1722 C1719 0.999 . S
H1723 C1704 0.913 . S
H1724 C1742 0.951 . S
H1725 C1744 0.951 . S
H1726 C1746 0.950 . S
H1727 C1747 0.950 . S
H1728 C1749 0.950 . S
H1729 C1752 0.950 . S
H1730 C1753 0.950 . S
H1731 C1755 0.950 . S
H1732 C1756 0.950 . S
H1733 C1757 0.951 . S
H1734 C1759 0.951 . S
H1735 C1761 0.950 . S
H1736 C1762 0.950 . S
H1737 C1764 0.950 . S
H1738 C1767 0.950 . S
H1739 C1768 0.950 . S
H1740 C1770 0.950 . S
H1741 C1771 0.950 . S
C1742 H1724 0.951 . S
C1742 C1743 1.366 . S
C1742 C1744 1.388 . S
C1743 C1742 1.366 . S
C1743 C1747 1.385 . S
C1744 H1725 0.951 . S
C1744 C1742 1.388 . S
C1744 C1745 1.366 . S
C1745 C1744 1.366 . S
C1745 C1746 1.414 . S
C1745 C1748 1.499 . S
C1746 H1726 0.950 . S
C1746 C1745 1.414 . S
C1746 C1747 1.374 . S
C1747 H1727 0.950 . S
C1747 C1743 1.385 . S
C1747 C1746 1.374 . S
C1748 C1745 1.499 . S
C1748 C1749 1.373 . S
C1748 C1750 1.389 . S
C1749 H1728 0.950 . S
C1749 C1748 1.373 . S
C1749 C1765 1.377 . S
C1750 C1748 1.389 . S
C1750 C1751 1.524 . S
C1750 C1764 1.377 . S
C1751 C1750 1.524 . S
C1751 C1752 1.397 . S
C1751 C1756 1.363 . S
C1752 H1729 0.950 . S
C1752 C1751 1.397 . S
C1752 C1753 1.334 . S
C1753 H1730 0.950 . S
C1753 C1752 1.334 . S
C1753 C1754 1.287 . S
C1754 C1753 1.287 . S
C1754 C1755 1.524 . S
C1754 H1773 0.913 . S
C1755 H1731 0.950 . S
C1755 C1754 1.524 . S
C1755 C1756 1.415 . S
C1756 H1732 0.950 . S
C1756 C1751 1.363 . S
C1756 C1755 1.415 . S
C1757 H1733 0.951 . S
C1757 C1758 1.366 . S
C1757 C1759 1.388 . S
C1758 C1757 1.366 . S
C1758 C1762 1.385 . S
C1759 H1734 0.951 . S
C1759 C1757 1.388 . S
C1759 C1760 1.366 . S
C1760 C1759 1.366 . S
C1760 C1761 1.414 . S
C1760 C1763 1.499 . S
C1761 H1735 0.950 . S
C1761 C1760 1.414 . S
C1761 C1762 1.374 . S
C1762 H1736 0.950 . S
C1762 C1758 1.385 . S
C1762 C1761 1.374 . S
C1763 C1760 1.499 . S
C1763 C1764 1.373 . S
C1763 C1765 1.389 . S
C1764 H1737 0.950 . S
C1764 C1750 1.377 . S
C1764 C1763 1.373 . S
C1765 C1749 1.377 . S
C1765 C1763 1.389 . S
C1765 C1766 1.524 . S
C1766 C1765 1.524 . S
C1766 C1767 1.397 . S
C1766 C1771 1.363 . S
C1767 H1738 0.950 . S
C1767 C1766 1.397 . S
C1767 C1768 1.334 . S
C1768 H1739 0.950 . S
C1768 C1767 1.334 . S
C1768 C1769 1.287 . S
C1769 C1768 1.287 . S
C1769 C1770 1.524 . S
C1769 H1772 0.999 . S
C1770 H1740 0.950 . S
C1770 C1769 1.524 . S
C1770 C1771 1.415 . S
C1771 H1741 0.950 . S
C1771 C1766 1.363 . S
C1771 C1770 1.415 . S
H1772 C1769 0.999 . S
H1773 C1754 0.913 . S
H1774 C1792 0.951 . S
H1775 C1794 0.951 . S
H1776 C1796 0.950 . S
H1777 C1797 0.950 . S
H1778 C1799 0.950 . S
H1779 C1802 0.950 . S
H1780 C1803 0.950 . S
H1781 C1805 0.950 . S
H1782 C1806 0.950 . S
H1783 C1807 0.951 . S
H1784 C1809 0.951 . S
H1785 C1811 0.950 . S
H1786 C1812 0.950 . S
H1787 C1814 0.950 . S
H1788 C1817 0.950 . S
H1789 C1818 0.950 . S
H1790 C1820 0.950 . S
H1791 C1821 0.950 . S
C1792 H1774 0.951 . S
C1792 C1793 1.366 . S
C1792 C1794 1.388 . S
C1793 C1792 1.366 . S
C1793 C1797 1.385 . S
C1794 H1775 0.951 . S
C1794 C1792 1.388 . S
C1794 C1795 1.366 . S
C1795 C1794 1.366 . S
C1795 C1796 1.414 . S
C1795 C1798 1.499 . S
C1796 H1776 0.950 . S
C1796 C1795 1.414 . S
C1796 C1797 1.374 . S
C1797 H1777 0.950 . S
C1797 C1793 1.385 . S
C1797 C1796 1.374 . S
C1798 C1795 1.499 . S
C1798 C1799 1.373 . S
C1798 C1800 1.389 . S
C1799 H1778 0.950 . S
C1799 C1798 1.373 . S
C1799 C1815 1.377 . S
C1800 C1798 1.389 . S
C1800 C1801 1.524 . S
C1800 C1814 1.377 . S
C1801 C1800 1.524 . S
C1801 C1802 1.397 . S
C1801 C1806 1.363 . S
C1802 H1779 0.950 . S
C1802 C1801 1.397 . S
C1802 C1803 1.334 . S
C1803 H1780 0.950 . S
C1803 C1802 1.334 . S
C1803 C1804 1.287 . S
C1804 C1803 1.287 . S
C1804 C1805 1.524 . S
C1804 H1823 0.913 . S
C1805 H1781 0.950 . S
C1805 C1804 1.524 . S
C1805 C1806 1.415 . S
C1806 H1782 0.950 . S
C1806 C1801 1.363 . S
C1806 C1805 1.415 . S
C1807 H1783 0.951 . S
C1807 C1808 1.366 . S
C1807 C1809 1.388 . S
C1808 C1807 1.366 . S
C1808 C1812 1.385 . S
C1809 H1784 0.951 . S
C1809 C1807 1.388 . S
C1809 C1810 1.366 . S
C1810 C1809 1.366 . S
C1810 C1811 1.414 . S
C1810 C1813 1.499 . S
C1811 H1785 0.950 . S
C1811 C1810 1.414 . S
C1811 C1812 1.374 . S
C1812 H1786 0.950 . S
C1812 C1808 1.385 . S
C1812 C1811 1.374 . S
C1813 C1810 1.499 . S
C1813 C1814 1.373 . S
C1813 C1815 1.389 . S
C1814 H1787 0.950 . S
C1814 C1800 1.377 . S
C1814 C1813 1.373 . S
C1815 C1799 1.377 . S
C1815 C1813 1.389 . S
C1815 C1816 1.524 . S
C1816 C1815 1.524 . S
C1816 C1817 1.397 . S
C1816 C1821 1.363 . S
C1817 H1788 0.950 . S
C1817 C1816 1.397 . S
C1817 C1818 1.334 . S
C1818 H1789 0.950 . S
C1818 C1817 1.334 . S
C1818 C1819 1.287 . S
C1819 C1818 1.287 . S
C1819 C1820 1.524 . S
C1819 H1822 0.999 . S
C1820 H1790 0.950 . S
C1820 C1819 1.524 . S
C1820 C1821 1.415 . S
C1821 H1791 0.950 . S
C1821 C1816 1.363 . S
C1821 C1820 1.415 . S
H1822 C1819 0.999 . S
H1823 C1804 0.913 . S
C243 C6 1.367 . S
C258 C188 1.367 . S
C293 C160 1.367 . S
C308 C20 1.367 . S
C343 C174 1.366 . S
C358 C34 1.366 . S
C393 C146 1.367 . S
C408 C48 1.367 . S
C443 C62 1.367 . S
C458 C216 1.367 . S
C493 C76 1.366 . S
C508 C132 1.366 . S
C543 C202 1.367 . S
C558 C90 1.367 . S
C593 C104 1.367 . S
C608 C118 1.367 . S
C643 C64 1.767 . S
C658 C8 1.767 . S
C693 C22 1.767 . S
C708 C78 1.767 . S
C743 C36 1.767 . S
C758 C92 1.767 . S
C793 C106 1.767 . S
C808 C50 1.767 . S
C843 C120 1.767 . S
C858 C148 1.767 . S
C893 C134 1.767 . S
C908 C162 1.767 . S
C943 C204 1.767 . S
C958 C176 1.767 . S
C993 C190 1.767 . S
C1008 C218 1.767 . S
C1043 C77 1.357 . S
C1058 C7 1.357 . S
C1093 C21 1.359 . S
C1108 C91 1.358 . S
C1143 C35 1.357 . S
C1158 C105 1.357 . S
C1193 C63 1.358 . S
C1208 C49 1.359 . S
C1243 C65 1.255 . S
C1258 C149 1.254 . S
C1293 C37 1.254 . S
C1308 C121 1.254 . S
C1343 C163 1.254 . S
C1358 C93 1.255 . S
C1393 C135 1.255 . S
C1408 C9 1.255 . S
C1443 C119 1.357 . S
C1458 C175 1.357 . S
C1493 C147 1.358 . S
C1508 C217 1.359 1_655 S
C1543 C189 1.359 1_655 S
C1558 C133 1.359 . S
C1593 C161 1.358 . S
C1608 C203 1.357 . S
C1643 C205 1.254 . S
C1658 C23 1.255 . S
C1693 C191 1.255 . S
C1708 C79 1.254 . S
C1743 C219 1.255 . S
C1758 C51 1.254 . S
C1793 C177 1.254 . S
C1808 C107 1.255 . S
