# Generated by pormake.
# Topology zfk, (5)-cn, num edge types: 1
# Building blocks:
#     Node 0, Type 0, BuildingBlock: XOMCOT_clean_sbu_1, # of connection points: 5
#     Node 1, Type 0, BuildingBlock: XOMCOT_clean_sbu_1, # of connection points: 5
#     Node 2, Type 0, BuildingBlock: XOMCOT_clean_sbu_1, # of connection points: 5
#     Node 3, Type 0, BuildingBlock: XOMCOT_clean_sbu_1, # of connection points: 5
#     Node 4, Type 0, BuildingBlock: XOMCOT_clean_sbu_1, # of connection points: 5
#     Node 5, Type 0, BuildingBlock: XOMCOT_clean_sbu_1, # of connection points: 5
#     Node 6, Type 0, BuildingBlock: XOMCOT_clean_sbu_1, # of connection points: 5
#     Node 7, Type 0, BuildingBlock: XOMCOT_clean_sbu_1, # of connection points: 5
#     Node 8, Type 0, BuildingBlock: XOMCOT_clean_sbu_1, # of connection points: 5
#     Node 9, Type 0, BuildingBlock: XOMCOT_clean_sbu_1, # of connection points: 5
#     Node 10, Type 0, BuildingBlock: XOMCOT_clean_sbu_1, # of connection points: 5
#     Node 11, Type 0, BuildingBlock: XOMCOT_clean_sbu_1, # of connection points: 5
#     Node 12, Type 0, BuildingBlock: XOMCOT_clean_sbu_1, # of connection points: 5
#     Node 13, Type 0, BuildingBlock: XOMCOT_clean_sbu_1, # of connection points: 5
#     Node 14, Type 0, BuildingBlock: XOMCOT_clean_sbu_1, # of connection points: 5
#     Node 15, Type 0, BuildingBlock: XOMCOT_clean_sbu_1, # of connection points: 5
#     Edge 16, Type (0, 0), BuildingBlock: OJICUG_clean_linker_0, # of connection points: 2
#     Edge 17, Type (0, 0), BuildingBlock: OJICUG_clean_linker_0, # of connection points: 2
#     Edge 18, Type (0, 0), BuildingBlock: OJICUG_clean_linker_0, # of connection points: 2
#     Edge 19, Type (0, 0), BuildingBlock: OJICUG_clean_linker_0, # of connection points: 2
#     Edge 20, Type (0, 0), BuildingBlock: OJICUG_clean_linker_0, # of connection points: 2
#     Edge 21, Type (0, 0), BuildingBlock: OJICUG_clean_linker_0, # of connection points: 2
#     Edge 22, Type (0, 0), BuildingBlock: OJICUG_clean_linker_0, # of connection points: 2
#     Edge 23, Type (0, 0), BuildingBlock: OJICUG_clean_linker_0, # of connection points: 2
#     Edge 24, Type (0, 0), BuildingBlock: OJICUG_clean_linker_0, # of connection points: 2
#     Edge 25, Type (0, 0), BuildingBlock: OJICUG_clean_linker_0, # of connection points: 2
#     Edge 26, Type (0, 0), BuildingBlock: OJICUG_clean_linker_0, # of connection points: 2
#     Edge 27, Type (0, 0), BuildingBlock: OJICUG_clean_linker_0, # of connection points: 2
#     Edge 28, Type (0, 0), BuildingBlock: OJICUG_clean_linker_0, # of connection points: 2
#     Edge 29, Type (0, 0), BuildingBlock: OJICUG_clean_linker_0, # of connection points: 2
#     Edge 30, Type (0, 0), BuildingBlock: OJICUG_clean_linker_0, # of connection points: 2
#     Edge 31, Type (0, 0), BuildingBlock: OJICUG_clean_linker_0, # of connection points: 2
#     Edge 32, Type (0, 0), BuildingBlock: OJICUG_clean_linker_0, # of connection points: 2
#     Edge 33, Type (0, 0), BuildingBlock: OJICUG_clean_linker_0, # of connection points: 2
#     Edge 34, Type (0, 0), BuildingBlock: OJICUG_clean_linker_0, # of connection points: 2
#     Edge 35, Type (0, 0), BuildingBlock: OJICUG_clean_linker_0, # of connection points: 2
#     Edge 36, Type (0, 0), BuildingBlock: OJICUG_clean_linker_0, # of connection points: 2
#     Edge 37, Type (0, 0), BuildingBlock: OJICUG_clean_linker_0, # of connection points: 2
#     Edge 38, Type (0, 0), BuildingBlock: OJICUG_clean_linker_0, # of connection points: 2
#     Edge 39, Type (0, 0), BuildingBlock: OJICUG_clean_linker_0, # of connection points: 2
#     Edge 40, Type (0, 0), BuildingBlock: OJICUG_clean_linker_0, # of connection points: 2
#     Edge 41, Type (0, 0), BuildingBlock: OJICUG_clean_linker_0, # of connection points: 2
#     Edge 42, Type (0, 0), BuildingBlock: OJICUG_clean_linker_0, # of connection points: 2
#     Edge 43, Type (0, 0), BuildingBlock: OJICUG_clean_linker_0, # of connection points: 2
#     Edge 44, Type (0, 0), BuildingBlock: OJICUG_clean_linker_0, # of connection points: 2
#     Edge 45, Type (0, 0), BuildingBlock: OJICUG_clean_linker_0, # of connection points: 2
#     Edge 46, Type (0, 0), BuildingBlock: OJICUG_clean_linker_0, # of connection points: 2
#     Edge 47, Type (0, 0), BuildingBlock: OJICUG_clean_linker_0, # of connection points: 2
#     Edge 48, Type (0, 0), BuildingBlock: OJICUG_clean_linker_0, # of connection points: 2
#     Edge 49, Type (0, 0), BuildingBlock: OJICUG_clean_linker_0, # of connection points: 2
#     Edge 50, Type (0, 0), BuildingBlock: OJICUG_clean_linker_0, # of connection points: 2
#     Edge 51, Type (0, 0), BuildingBlock: OJICUG_clean_linker_0, # of connection points: 2
#     Edge 52, Type (0, 0), BuildingBlock: OJICUG_clean_linker_0, # of connection points: 2
#     Edge 53, Type (0, 0), BuildingBlock: OJICUG_clean_linker_0, # of connection points: 2
#     Edge 54, Type (0, 0), BuildingBlock: OJICUG_clean_linker_0, # of connection points: 2
#     Edge 55, Type (0, 0), BuildingBlock: OJICUG_clean_linker_0, # of connection points: 2
# Relax obj value: 0.317
# Max RMSD: 0.178
# Mean RMSD: 0.178
data_MOF--net-zfk--node1-XOMCOT_clean_sbu_1--edge1-OJICUG_clean_linker_0
_symmetry_space_group_name_H-M    P1
_symmetry_Int_Tables_number       1
_symmetry_cell_setting            triclinic
loop_
_symmetry_equiv_pos_as_xyz
'x, y, z'
_cell_length_a     22.730295
_cell_length_b     22.727793
_cell_length_c     48.754265
_cell_angle_alpha  90.026606
_cell_angle_beta   90.001256
_cell_angle_gamma 89.995025
loop_
_atom_site_label
_atom_site_type_symbol
_atom_site_fract_x
_atom_site_fract_y
_atom_site_fract_z
_atom_type_partial_charge
C0 C 0.93556 0.41887 0.12461 0.0
C1 C 0.91756 0.39518 0.10001 0.0
N2 N 0.90311 0.33846 0.10409 0.0
N3 N 0.93426 0.37714 0.14438 0.0
C4 C 0.91095 0.32971 0.13128 0.0
H5 H 0.9492 0.46379 0.1272 0.0
Co6 Co 0.95918 0.37885 0.18214 0.0
C7 C 0.99315 0.25379 0.19433 0.0
O8 O 0.03706 0.27589 0.20852 0.0
N9 N 0.97511 0.38105 0.22057 0.0
C10 C 0.96289 0.35889 0.2648 0.0
C11 C 0.95025 0.34283 0.23836 0.0
C12 C 0.99856 0.42289 0.23724 0.0
N13 N 0.99364 0.40946 0.26426 0.0
O14 O 0.96769 0.46756 0.18129 0.0
H15 H 0.92263 0.30613 0.23265 0.0
H16 H 0.01626 0.46401 0.22981 0.0
O17 O 0.95483 0.28913 0.18367 0.0
C18 C 1.00543 0.50198 0.1697 0.0
O19 O 0.04323 0.48019 0.15203 0.0
N20 N 0.04025 0.36864 0.17189 0.0
C21 C 0.15314 0.32539 0.16314 0.0
C22 C 0.10718 0.30866 0.14601 0.0
C23 C 0.05151 0.33065 0.15068 0.0
C24 C 0.08652 0.39058 0.1867 0.0
C25 C 0.14336 0.36911 0.18281 0.0
H26 H 0.0172 0.31076 0.1389 0.0
H27 H 0.08033 0.42359 0.20206 0.0
H28 H 0.90268 0.28811 0.14117 0.0
H29 H 0.91816 0.41745 0.0804 0.0
H30 H 0.94953 0.33501 0.28293 0.0
H31 H 0.1126 0.27442 0.13074 0.0
H32 H 0.17867 0.38452 0.1959 0.0
C33 C 0.09386 0.9373 0.62407 0.0
C34 C 0.1175 0.91915 0.59949 0.0
N35 N 0.17399 0.90393 0.60365 0.0
N36 N 0.1354 0.93527 0.64392 0.0
C37 C 0.18265 0.91148 0.63087 0.0
H38 H 0.04916 0.95166 0.62659 0.0
Co39 Co 0.13368 0.96008 0.68168 0.0
C40 C 0.25874 0.99378 0.69418 0.0
O41 O 0.23648 0.03736 0.70854 0.0
N42 N 0.13136 0.9759 0.72011 0.0
C43 C 0.15318 0.96334 0.76437 0.0
C44 C 0.16925 0.95061 0.73793 0.0
C45 C 0.08965 0.99968 0.73675 0.0
N46 N 0.10291 0.99458 0.76377 0.0
O47 O 0.04491 0.96866 0.68077 0.0
H48 H 0.20577 0.92273 0.73223 0.0
H49 H 0.0487 0.01774 0.7293 0.0
O50 O 0.22351 0.95566 0.68326 0.0
C51 C 0.01048 0.00665 0.66935 0.0
O52 O 0.03232 0.04495 0.65194 0.0
N53 N 0.14415 0.04116 0.67149 0.0
C54 C 0.18826 0.15377 0.66289 0.0
C55 C 0.20471 0.10774 0.64573 0.0
C56 C 0.18229 0.05221 0.65032 0.0
C57 C 0.12251 0.08754 0.68632 0.0
C58 C 0.1444 0.14425 0.6825 0.0
H59 H 0.20199 0.0178 0.63853 0.0
H60 H 0.08942 0.08156 0.70165 0.0
H61 H 0.22408 0.90267 0.64083 0.0
H62 H 0.09542 0.92025 0.57983 0.0
H63 H 0.17686 0.94981 0.78253 0.0
H64 H 0.23904 0.11294 0.6305 0.0
H65 H 0.12919 0.17963 0.6956 0.0
C66 C 0.59195 0.0894 0.12729 0.0
C67 C 0.61036 0.11018 0.1022 0.0
N68 N 0.61291 0.16921 0.10344 0.0
N69 N 0.58039 0.13497 0.14435 0.0
C70 C 0.59716 0.18267 0.12941 0.0
H71 H 0.58872 0.04345 0.13244 0.0
Co72 Co 0.55415 0.13437 0.18198 0.0
C73 C 0.51816 0.25931 0.19315 0.0
O74 O 0.47388 0.23677 0.20694 0.0
N75 N 0.53707 0.13328 0.22032 0.0
C76 C 0.5471 0.15704 0.26453 0.0
C77 C 0.56037 0.1726 0.23808 0.0
C78 C 0.51401 0.0914 0.23707 0.0
N79 N 0.51758 0.10575 0.26402 0.0
O80 O 0.54673 0.04559 0.18172 0.0
H81 H 0.5874 0.20973 0.23239 0.0
H82 H 0.49794 0.04945 0.22985 0.0
O83 O 0.5573 0.2243 0.18287 0.0
C84 C 0.51198 0.01085 0.16844 0.0
O85 O 0.47914 0.03221 0.14862 0.0
N86 N 0.473 0.14212 0.17128 0.0
C87 C 0.35819 0.17966 0.16226 0.0
C88 C 0.40363 0.19945 0.14553 0.0
C89 C 0.46028 0.18024 0.15035 0.0
C90 C 0.42753 0.11686 0.18544 0.0
C91 C 0.36974 0.13553 0.18148 0.0
H92 H 0.49369 0.20233 0.139 0.0
H93 H 0.43501 0.08327 0.20038 0.0
H94 H 0.59433 0.22731 0.1368 0.0
H95 H 0.62086 0.08371 0.0844 0.0
H96 H 0.55912 0.18171 0.28264 0.0
H97 H 0.39684 0.23409 0.1306 0.0
H98 H 0.33498 0.11776 0.19422 0.0
C99 C 0.42307 0.59316 0.62766 0.0
C100 C 0.40215 0.61156 0.60258 0.0
N101 N 0.34311 0.61375 0.60382 0.0
N102 N 0.37758 0.58122 0.64469 0.0
C103 C 0.32976 0.59777 0.62976 0.0
H104 H 0.46903 0.59016 0.63281 0.0
Co105 Co 0.37827 0.55477 0.68228 0.0
C106 C 0.25341 0.51833 0.69312 0.0
O107 O 0.27582 0.47366 0.70668 0.0
N108 N 0.37931 0.53744 0.72061 0.0
C109 C 0.35522 0.54694 0.76479 0.0
C110 C 0.33963 0.56017 0.73836 0.0
C111 C 0.42136 0.51476 0.73738 0.0
N112 N 0.40686 0.51804 0.76432 0.0
O113 O 0.467 0.54759 0.68206 0.0
H114 H 0.30226 0.58687 0.73267 0.0
H115 H 0.46349 0.49914 0.73017 0.0
O116 O 0.28848 0.55773 0.68314 0.0
C117 C 0.50184 0.51308 0.6687 0.0
O118 O 0.48062 0.48052 0.64873 0.0
N119 N 0.3709 0.47364 0.67147 0.0
C120 C 0.33423 0.35862 0.66224 0.0
C121 C 0.31427 0.40401 0.64553 0.0
C122 C 0.33303 0.46078 0.65045 0.0
C123 C 0.39636 0.42826 0.68563 0.0
C124 C 0.37812 0.37036 0.68155 0.0
H125 H 0.31081 0.4941 0.6391 0.0
H126 H 0.42977 0.4359 0.70065 0.0
H127 H 0.28513 0.59459 0.63712 0.0
H128 H 0.42854 0.62231 0.5848 0.0
H129 H 0.33034 0.55865 0.78289 0.0
H130 H 0.27979 0.39707 0.63052 0.0
H131 H 0.396 0.33566 0.6943 0.0
C132 C 0.92041 0.08928 0.99352 0.0
C133 C 0.90226 0.11016 1.01864 0.0
N134 N 0.89991 0.16919 1.01742 0.0
N135 N 0.93204 0.13479 0.97645 0.0
C136 C 0.91554 0.18257 0.99143 0.0
H137 H 0.92342 0.04332 0.98835 0.0
Co138 Co 0.95804 0.13404 0.93877 0.0
C139 C 0.99414 0.25892 0.9276 0.0
O140 O 0.03837 0.23634 0.91378 0.0
N141 N 0.97489 0.13284 0.90038 0.0
C142 C 0.96467 0.15664 0.8562 0.0
C143 C 0.95163 0.17225 0.88267 0.0
C144 C 0.99768 0.09087 0.88357 0.0
N145 N 0.99399 0.10523 0.85663 0.0
O146 O 0.96531 0.04525 0.93902 0.0
H147 H 0.92475 0.20947 0.88842 0.0
H148 H 0.01365 0.04887 0.89077 0.0
O149 O 0.955 0.22394 0.93788 0.0
C150 C 1.00004 0.01051 0.95231 0.0
O151 O 0.03292 0.0319 0.97212 0.0
N152 N 0.03927 0.14163 0.94935 0.0
C153 C 0.15434 0.1783 0.95846 0.0
C154 C 0.10898 0.19844 0.97515 0.0
C155 C 0.0522 0.1797 0.97028 0.0
C156 C 0.08459 0.11613 0.93515 0.0
C157 C 0.14251 0.13437 0.93916 0.0
H158 H 0.01892 0.20204 0.98162 0.0
H159 H 0.0769 0.08264 0.92017 0.0
H160 H 0.91844 0.22719 0.98405 0.0
H161 H 0.89174 0.08373 1.03644 0.0
H162 H 0.95254 0.18137 0.83813 0.0
H163 H 0.11598 0.23301 0.99012 0.0
H164 H 0.17716 0.11639 0.92641 0.0
C165 C 0.42326 0.9206 0.49325 0.0
C166 C 0.40234 0.9022 0.51832 0.0
N167 N 0.3433 0.90021 0.5171 0.0
N168 N 0.37777 0.93274 0.47624 0.0
C169 C 0.32994 0.9163 0.49117 0.0
H170 H 0.46922 0.92344 0.48807 0.0
Co171 Co 0.37854 0.95925 0.43865 0.0
C172 C 0.25368 0.99567 0.42777 0.0
O173 O 0.27608 0.04038 0.41424 0.0
N174 N 0.37967 0.97666 0.40033 0.0
C175 C 0.35567 0.9673 0.35613 0.0
C176 C 0.34004 0.95397 0.38255 0.0
C177 C 0.42173 0.99945 0.38359 0.0
N178 N 0.40726 0.99625 0.35665 0.0
O179 O 0.46726 0.96639 0.43891 0.0
H180 H 0.30267 0.92723 0.3882 0.0
H181 H 0.46385 0.01508 0.39081 0.0
O182 O 0.28876 0.95628 0.43775 0.0
C183 C 0.50209 1.0008 0.45233 0.0
O184 O 0.48087 0.03325 0.47233 0.0
N185 N 0.37117 0.04037 0.44949 0.0
C186 C 0.33464 0.15543 0.45873 0.0
C187 C 0.3145 0.11003 0.47539 0.0
C188 C 0.3332 0.05324 0.47046 0.0
C189 C 0.3968 0.08574 0.43539 0.0
C190 C 0.37863 0.14366 0.43947 0.0
H191 H 0.31086 0.01992 0.48176 0.0
H192 H 0.43031 0.07809 0.42042 0.0
H193 H 0.2853 0.91962 0.48383 0.0
H194 H 0.42873 0.89131 0.53608 0.0
H195 H 0.33082 0.9557 0.33801 0.0
H196 H 0.27993 0.117 0.49035 0.0
H197 H 0.39666 0.17836 0.42677 0.0
C198 C 0.57632 0.4187 0.99654 0.0
C199 C 0.59459 0.39506 1.02109 0.0
N200 N 0.60951 0.33849 1.01692 0.0
N201 N 0.57796 0.37707 0.97671 0.0
C202 C 0.60169 0.32978 0.98973 0.0
H203 H 0.56218 0.46348 0.99402 0.0
Co204 Co 0.55287 0.37866 0.939 0.0
C205 C 0.51908 0.25355 0.92678 0.0
O206 O 0.47514 0.27561 0.91261 0.0
N207 N 0.53675 0.38078 0.90061 0.0
C208 C 0.54879 0.3587 0.85635 0.0
C209 C 0.56167 0.34268 0.88277 0.0
C210 C 0.51301 0.42253 0.88401 0.0
N211 N 0.51781 0.40913 0.85699 0.0
O212 O 0.54421 0.46736 0.93987 0.0
H213 H 0.58946 0.30607 0.88842 0.0
H214 H 0.49518 0.46359 0.89146 0.0
O215 O 0.55737 0.28893 0.93745 0.0
C216 C 0.50639 0.50179 0.95141 0.0
O217 O 0.46847 0.48003 0.96903 0.0
N218 N 0.47187 0.36826 0.94935 0.0
C219 C 0.35932 0.32406 0.95798 0.0
C220 C 0.40535 0.30772 0.97516 0.0
C221 C 0.46085 0.33021 0.97056 0.0
C222 C 0.42545 0.38991 0.93456 0.0
C223 C 0.36878 0.36797 0.93839 0.0
H224 H 0.49529 0.31061 0.98235 0.0
H225 H 0.4314 0.42301 0.91924 0.0
H226 H 0.61025 0.28828 0.97978 0.0
H227 H 0.59377 0.41721 1.04074 0.0
H228 H 0.56203 0.33488 0.83818 0.0
H229 H 0.40017 0.27341 0.99039 0.0
H230 H 0.33339 0.38314 0.9253 0.0
C231 C 0.0937 0.57604 0.49696 0.0
C232 C 0.11732 0.59422 0.52154 0.0
N233 N 0.17367 0.60986 0.51734 0.0
N234 N 0.13513 0.57852 0.47708 0.0
C235 C 0.18227 0.60255 0.49011 0.0
H236 H 0.04912 0.56129 0.49448 0.0
Co237 Co 0.13351 0.55386 0.4393 0.0
C238 C 0.2586 0.52034 0.42681 0.0
O239 O 0.23639 0.47684 0.41238 0.0
N240 N 0.13128 0.5382 0.40086 0.0
C241 C 0.15312 0.55106 0.35663 0.0
C242 C 0.16913 0.56366 0.38308 0.0
C243 C 0.08964 0.51445 0.38418 0.0
N244 N 0.10291 0.51971 0.35716 0.0
O245 O 0.04474 0.54516 0.44018 0.0
H246 H 0.20557 0.5916 0.38883 0.0
H247 H 0.04874 0.49627 0.39162 0.0
O248 O 0.22332 0.55839 0.43776 0.0
C249 C 0.01033 0.50703 0.45151 0.0
O250 O 0.03219 0.46851 0.46881 0.0
N251 N 0.14412 0.47275 0.44944 0.0
C252 C 0.18859 0.36025 0.45798 0.0
C253 C 0.20479 0.40626 0.4752 0.0
C254 C 0.1822 0.46173 0.47064 0.0
C255 C 0.12273 0.42637 0.43453 0.0
C256 C 0.14481 0.36972 0.43832 0.0
H257 H 0.20173 0.49615 0.48248 0.0
H258 H 0.08972 0.43232 0.41916 0.0
H259 H 0.2236 0.61168 0.48012 0.0
H260 H 0.09536 0.5928 0.54122 0.0
H261 H 0.17679 0.56482 0.33851 0.0
H262 H 0.23906 0.4011 0.49047 0.0
H263 H 0.1298 0.33434 0.42517 0.0
C264 C 0.09171 0.58925 0.99353 0.0
C265 C 0.10992 0.61012 1.01865 0.0
N266 N 0.11231 0.66915 1.01742 0.0
N267 N 0.0801 0.63476 0.97647 0.0
C268 C 0.09666 0.68253 0.99144 0.0
H269 H 0.08864 0.54329 0.98837 0.0
Co270 Co 0.05402 0.63403 0.9388 0.0
C271 C 0.01789 0.7589 0.92763 0.0
O272 O 0.97364 0.73632 0.91384 0.0
N273 N 0.03707 0.63283 0.90042 0.0
C274 C 0.0472 0.6566 0.85623 0.0
C275 C 0.0603 0.67222 0.88269 0.0
C276 C 0.01424 0.59086 0.88363 0.0
N277 N 0.01786 0.60521 0.85668 0.0
O278 O 0.04674 0.54524 0.93905 0.0
H279 H 0.0872 0.70943 0.88842 0.0
H280 H 0.99828 0.54887 0.89083 0.0
O281 O 0.05705 0.72393 0.93791 0.0
C282 C 0.01202 0.51049 0.95234 0.0
O283 O 0.97914 0.53187 0.97215 0.0
N284 N 0.97281 0.64164 0.94942 0.0
C285 C 0.8578 0.6785 0.95853 0.0
C286 C 0.90318 0.69856 0.97522 0.0
C287 C 0.95993 0.67972 0.97036 0.0
C288 C 0.92745 0.6162 0.93523 0.0
C289 C 0.86956 0.63453 0.93924 0.0
H290 H 0.99325 0.70201 0.98169 0.0
H291 H 0.93509 0.58269 0.92025 0.0
H292 H 0.09377 0.72716 0.98405 0.0
H293 H 0.12042 0.58369 1.03645 0.0
H294 H 0.05928 0.68132 0.83815 0.0
H295 H 0.89623 0.73314 0.99019 0.0
H296 H 0.83487 0.6166 0.9265 0.0
C297 C 0.91785 0.07633 0.4968 0.0
C298 C 0.8942 0.09447 0.52138 0.0
N299 N 0.83778 0.10989 0.51719 0.0
N300 N 0.87638 0.07859 0.47693 0.0
C301 C 0.82917 0.10248 0.48996 0.0
H302 H 0.96249 0.06178 0.4943 0.0
Co303 Co 0.87804 0.05388 0.43915 0.0
C304 C 0.75299 0.02015 0.42669 0.0
O305 O 0.77525 0.97663 0.41228 0.0
N306 N 0.8803 0.03818 0.40071 0.0
C307 C 0.85842 0.05088 0.35648 0.0
C308 C 0.84237 0.06349 0.38293 0.0
C309 C 0.92201 0.01451 0.38405 0.0
N310 N 0.90872 0.01968 0.35703 0.0
O311 O 0.96683 0.04532 0.44003 0.0
H312 H 0.80584 0.09134 0.38866 0.0
H313 H 0.96296 0.99646 0.3915 0.0
O314 O 0.78822 0.05827 0.43761 0.0
C315 C 1.00128 0.00727 0.4514 0.0
O316 O 0.97946 0.96884 0.46876 0.0
N317 N 0.8676 0.97277 0.4493 0.0
C318 C 0.82355 0.86014 0.45793 0.0
C319 C 0.80718 0.90614 0.47511 0.0
C320 C 0.82956 0.96168 0.47051 0.0
C321 C 0.88914 0.92641 0.43442 0.0
C322 C 0.86728 0.8697 0.43826 0.0
H323 H 0.8099 0.99608 0.48233 0.0
H324 H 0.92213 0.93243 0.41905 0.0
H325 H 0.78779 0.11145 0.47998 0.0
H326 H 0.91619 0.0932 0.54105 0.0
H327 H 0.83471 0.06453 0.33835 0.0
H328 H 0.77293 0.90092 0.49038 0.0
H329 H 0.88242 0.83434 0.42512 0.0
C330 C 0.43566 0.91874 0.99651 0.0
C331 C 0.41744 0.89509 1.02107 0.0
N332 N 0.40263 0.83849 1.01691 0.0
N333 N 0.43411 0.87708 0.9767 0.0
C334 C 0.41047 0.82976 0.98972 0.0
H335 H 0.44968 0.96355 0.99398 0.0
Co336 Co 0.45918 0.87867 0.93898 0.0
C337 C 0.493 0.75355 0.92677 0.0
O338 O 0.53695 0.7756 0.9126 0.0
N339 N 0.47527 0.88079 0.90059 0.0
C340 C 0.46321 0.85868 0.85633 0.0
C341 C 0.45037 0.84266 0.88275 0.0
C342 C 0.49895 0.92255 0.88397 0.0
N343 N 0.49412 0.90914 0.85695 0.0
O344 O 0.46782 0.96737 0.93985 0.0
H345 H 0.42262 0.80603 0.88841 0.0
H346 H 0.51675 0.96363 0.89142 0.0
O347 O 0.45471 0.78894 0.93743 0.0
C348 C 0.50562 1.00179 0.95141 0.0
O349 O 0.54349 0.98002 0.96905 0.0
N350 N 0.5402 0.8683 0.94931 0.0
C351 C 0.65281 0.8243 0.95798 0.0
C352 C 0.6068 0.80789 0.97514 0.0
C353 C 0.55126 0.83027 0.97052 0.0
C354 C 0.58658 0.89001 0.93453 0.0
C355 C 0.64329 0.86817 0.93837 0.0
H356 H 0.51685 0.81061 0.98231 0.0
H357 H 0.58058 0.92309 0.91919 0.0
H358 H 0.40198 0.78824 0.97979 0.0
H359 H 0.41818 0.91728 1.04071 0.0
H360 H 0.44995 0.83485 0.83816 0.0
H361 H 0.61203 0.77359 0.99038 0.0
H362 H 0.67867 0.88338 0.92529 0.0
C363 C 0.58823 0.42083 0.49341 0.0
C364 C 0.60911 0.40241 0.51849 0.0
N365 N 0.66815 0.40023 0.51726 0.0
N366 N 0.63374 0.4328 0.47639 0.0
C367 C 0.68153 0.41623 0.49132 0.0
H368 H 0.54227 0.42382 0.48824 0.0
Co369 Co 0.63302 0.45929 0.4388 0.0
C370 C 0.75791 0.49553 0.42791 0.0
O371 O 0.73554 0.54023 0.41436 0.0
N372 N 0.63193 0.47668 0.40048 0.0
C373 C 0.65593 0.46717 0.35628 0.0
C374 C 0.6715 0.45384 0.38271 0.0
C375 C 0.58994 0.49955 0.38373 0.0
N376 N 0.6044 0.49626 0.35679 0.0
O377 O 0.54432 0.46657 0.43905 0.0
H378 H 0.70881 0.42701 0.38838 0.0
H379 H 0.54785 0.51531 0.39093 0.0
O380 O 0.7228 0.45619 0.43791 0.0
C381 C 0.50951 0.50107 0.45244 0.0
O382 O 0.53075 0.53358 0.47241 0.0
N383 N 0.64052 0.5404 0.44963 0.0
C384 C 0.67748 0.65535 0.45881 0.0
C385 C 0.69743 0.60993 0.4755 0.0
C386 C 0.67851 0.5532 0.47061 0.0
C387 C 0.61505 0.58583 0.43551 0.0
C388 C 0.63343 0.64369 0.43956 0.0
H389 H 0.70073 0.51984 0.48194 0.0
H390 H 0.58152 0.57825 0.42054 0.0
H391 H 0.72618 0.41942 0.48397 0.0
H392 H 0.5827 0.39164 0.53626 0.0
H393 H 0.68075 0.45546 0.33817 0.0
H394 H 0.73201 0.61681 0.49047 0.0
H395 H 0.61553 0.67842 0.42683 0.0
C396 C 0.07644 0.91883 0.12456 0.0
C397 C 0.09449 0.89513 0.09997 0.0
N398 N 0.10906 0.83845 0.10407 0.0
N399 N 0.07784 0.87713 0.14434 0.0
C400 C 0.10124 0.82973 0.13126 0.0
H401 H 0.06267 0.96371 0.12714 0.0
Co402 Co 0.05289 0.87885 0.1821 0.0
C403 C 0.01894 0.7538 0.1943 0.0
O404 O 0.97503 0.77592 0.20849 0.0
N405 N 0.03691 0.88106 0.22052 0.0
C406 C 0.0491 0.85896 0.26476 0.0
C407 C 0.06178 0.84288 0.23832 0.0
C408 C 0.01341 0.9229 0.23717 0.0
N409 N 0.0183 0.90951 0.26419 0.0
O410 O 0.04436 0.96755 0.18124 0.0
H411 H 0.08944 0.80619 0.23263 0.0
H412 H 0.99568 0.964 0.22973 0.0
O413 O 0.05726 0.78912 0.18363 0.0
C414 C 0.0066 1.00199 0.16967 0.0
O415 O 0.96874 0.98022 0.15202 0.0
N416 N 0.97183 0.86861 0.17182 0.0
C417 C 0.85902 0.82513 0.1631 0.0
C418 C 0.90499 0.80849 0.14596 0.0
C419 C 0.96063 0.8306 0.15061 0.0
C420 C 0.92553 0.89048 0.18663 0.0
C421 C 0.86872 0.8689 0.18275 0.0
H422 H 0.99496 0.81076 0.13883 0.0
H423 H 0.93166 0.92352 0.20199 0.0
H424 H 0.10959 0.78815 0.14117 0.0
H425 H 0.09382 0.91737 0.08035 0.0
H426 H 0.06244 0.83511 0.2829 0.0
H427 H 0.89963 0.77423 0.1307 0.0
H428 H 0.8334 0.88426 0.19585 0.0
C429 C 0.58841 0.093 0.62752 0.0
C430 C 0.6093 0.11137 0.60243 0.0
N431 N 0.66834 0.11363 0.60368 0.0
N432 N 0.63391 0.08116 0.64456 0.0
C433 C 0.6817 0.09773 0.62963 0.0
H434 H 0.54245 0.08996 0.63267 0.0
Co435 Co 0.63324 0.05478 0.68217 0.0
C436 C 0.75813 0.01847 0.69303 0.0
O437 O 0.73575 0.97383 0.70662 0.0
N438 N 0.63222 0.03754 0.72051 0.0
C439 C 0.65631 0.04716 0.76468 0.0
C440 C 0.67186 0.06037 0.73824 0.0
C441 C 0.59021 0.01482 0.73729 0.0
N442 N 0.60473 0.01817 0.76422 0.0
O443 O 0.54452 0.04754 0.68195 0.0
H444 H 0.70919 0.08712 0.73253 0.0
H445 H 0.54811 0.99912 0.73009 0.0
O446 O 0.72302 0.05782 0.68303 0.0
C447 C 0.5097 0.01298 0.6686 0.0
O448 O 0.53094 0.98037 0.64866 0.0
N449 N 0.6407 0.97364 0.67139 0.0
C450 C 0.67753 0.85864 0.66222 0.0
C451 C 0.69743 0.90401 0.64549 0.0
C452 C 0.67859 0.96077 0.65038 0.0
C453 C 0.61528 0.92826 0.68557 0.0
C454 C 0.63361 0.87038 0.68152 0.0
H455 H 0.70077 0.99409 0.63902 0.0
H456 H 0.58186 0.9359 0.70058 0.0
H457 H 0.72634 0.09461 0.63699 0.0
H458 H 0.5829 0.12204 0.58464 0.0
H459 H 0.68119 0.05895 0.78277 0.0
H460 H 0.73193 0.89707 0.63049 0.0
H461 H 0.61576 0.83569 0.69428 0.0
C462 C 0.42017 0.58942 0.12732 0.0
C463 C 0.4018 0.61021 0.10222 0.0
N464 N 0.39931 0.66924 0.10346 0.0
N465 N 0.43177 0.63499 0.14437 0.0
C466 C 0.41506 0.6827 0.12943 0.0
H467 H 0.42334 0.54348 0.13248 0.0
Co468 Co 0.45795 0.63439 0.18201 0.0
C469 C 0.49394 0.75933 0.19318 0.0
O470 O 0.5382 0.73679 0.20698 0.0
N471 N 0.47497 0.63331 0.22037 0.0
C472 C 0.46486 0.65711 0.26456 0.0
C473 C 0.45165 0.67265 0.23811 0.0
C474 C 0.49797 0.59143 0.23714 0.0
N475 N 0.49436 0.6058 0.26408 0.0
O476 O 0.46536 0.5456 0.18176 0.0
H477 H 0.42464 0.70979 0.2324 0.0
H478 H 0.51404 0.54946 0.22993 0.0
O479 O 0.45481 0.72431 0.1829 0.0
C480 C 0.50011 0.51086 0.16847 0.0
O481 O 0.53293 0.53224 0.14865 0.0
N482 N 0.53912 0.6421 0.17135 0.0
C483 C 0.65399 0.67941 0.16231 0.0
C484 C 0.60857 0.69929 0.1456 0.0
C485 C 0.55189 0.6802 0.15042 0.0
C486 C 0.58456 0.61678 0.18552 0.0
C487 C 0.64238 0.63535 0.18155 0.0
H488 H 0.51851 0.70234 0.13907 0.0
H489 H 0.57703 0.58322 0.20047 0.0
H490 H 0.41791 0.72734 0.13681 0.0
H491 H 0.39127 0.58374 0.08443 0.0
H492 H 0.45281 0.6818 0.28267 0.0
H493 H 0.61541 0.7339 0.13065 0.0
H494 H 0.67711 0.61752 0.19429 0.0
C495 C 0.91764 0.43706 0.62422 0.0
C496 C 0.89398 0.4189 0.59965 0.0
N497 N 0.83747 0.40379 0.60381 0.0
N498 N 0.87609 0.43513 0.64406 0.0
C499 C 0.82882 0.41139 0.63103 0.0
H500 H 0.96236 0.45135 0.62673 0.0
Co501 Co 0.87784 0.45999 0.68183 0.0
C502 C 0.75279 0.49379 0.69431 0.0
O503 O 0.77506 0.53738 0.70866 0.0
N504 N 0.88018 0.47585 0.72025 0.0
C505 C 0.85839 0.4634 0.76451 0.0
C506 C 0.84227 0.45065 0.73808 0.0
C507 C 0.92193 0.4996 0.73687 0.0
N508 N 0.9087 0.49457 0.76389 0.0
O509 O 0.96661 0.46852 0.6809 0.0
H510 H 0.80572 0.42281 0.7324 0.0
H511 H 0.9629 0.51759 0.7294 0.0
O512 O 0.78801 0.45563 0.68341 0.0
C513 C 1.00104 0.50646 0.66946 0.0
O514 O 0.97921 0.54472 0.65202 0.0
N515 N 0.86741 0.54106 0.67161 0.0
C516 C 0.82344 0.65372 0.66297 0.0
C517 C 0.80692 0.60768 0.64583 0.0
C518 C 0.82927 0.55213 0.65045 0.0
C519 C 0.8891 0.58744 0.68643 0.0
C520 C 0.86729 0.64417 0.68258 0.0
H521 H 0.80952 0.51772 0.63867 0.0
H522 H 0.92219 0.58144 0.70176 0.0
H523 H 0.78738 0.40266 0.64099 0.0
H524 H 0.91606 0.41993 0.57999 0.0
H525 H 0.83471 0.44993 0.78268 0.0
H526 H 0.77259 0.6129 0.6306 0.0
H527 H 0.88254 0.67955 0.69567 0.0
C528 C 0.9078 0.19343 0.06685 0.0
C529 C 0.89249 0.20998 1.03998 0.0
H530 H 0.92392 0.22072 0.10801 0.0
C531 C 0.87488 0.26848 1.03528 0.0
H532 H 0.92225 0.14909 0.07128 0.0
C533 C 0.87547 0.30995 1.05658 0.0
C534 C 0.89393 0.29412 0.08314 0.0
H535 H 0.86178 0.28261 1.01498 0.0
H536 H 0.86281 0.35479 1.05203 0.0
C537 C 0.90864 0.23486 0.08808 0.0
C538 C 0.31909 0.90792 0.56653 0.0
C539 C 0.3025 0.89278 0.53964 0.0
H540 H 0.29176 0.92412 0.60768 0.0
C541 C 0.24395 0.87542 0.53489 0.0
H542 H 0.36348 0.92219 0.57098 0.0
C543 C 0.20246 0.87613 0.55616 0.0
C544 C 0.21833 0.89447 0.58274 0.0
H545 H 0.22979 0.86246 0.51458 0.0
H546 H 0.15757 0.8637 0.55159 0.0
C547 C 0.27763 0.9089 0.58774 0.0
C548 C 0.60516 0.19341 1.05403 0.0
C549 C 0.62046 0.20996 0.0809 0.0
H550 H 0.58895 0.22075 1.01289 0.0
C551 C 0.63808 0.26845 0.08564 0.0
H552 H 0.5907 0.14908 1.04957 0.0
C553 C 0.63743 0.30993 0.06437 0.0
C554 C 0.61892 0.29411 1.03781 0.0
H555 H 0.65118 0.28257 0.10594 0.0
H556 H 0.65004 0.35478 0.06893 0.0
C557 C 0.60427 0.23485 1.03282 0.0
C558 C 0.27734 0.60505 0.53321 0.0
C559 C 0.21804 0.61942 0.53823 0.0
H560 H 0.36323 0.59182 0.54992 0.0
C561 C 0.2022 0.63775 0.56481 0.0
H562 H 0.29143 0.58984 0.51326 0.0
C563 C 0.24372 0.63853 0.58606 0.0
C564 C 0.30229 0.6212 0.58129 0.0
H565 H 0.15729 0.65012 0.56939 0.0
H566 H 0.22959 0.65148 0.60638 0.0
C567 C 0.31884 0.60607 0.5544 0.0
C568 C 0.13674 0.80992 1.05657 0.0
C569 C 0.11829 0.79409 0.08313 0.0
H570 H 0.15044 0.78257 1.01498 0.0
C571 C 0.1036 0.73483 0.08808 0.0
H572 H 0.14939 0.85476 1.05202 0.0
C573 C 0.10446 0.6934 0.06685 0.0
C574 C 0.11975 0.70994 1.03998 0.0
H575 H 0.08833 0.72071 0.10802 0.0
H576 H 0.09002 0.64906 0.07129 0.0
C577 C 0.13735 0.76844 1.03527 0.0
C578 C 0.8092 0.13779 0.56465 0.0
C579 C 0.79339 0.11937 0.53808 0.0
H580 H 0.78179 0.15156 0.60622 0.0
C581 C 0.73412 0.10485 0.53307 0.0
H582 H 0.85408 0.15027 0.56922 0.0
C583 C 0.69263 0.10584 0.55426 0.0
C584 C 0.70915 0.12107 0.58114 0.0
H585 H 0.72006 0.08956 0.51313 0.0
H586 H 0.64827 0.09148 0.54979 0.0
C587 C 0.76768 0.13853 0.5859 0.0
C588 C 0.37477 0.80995 0.06437 0.0
C589 C 0.39327 0.79412 1.03782 0.0
H590 H 0.36103 0.78261 0.10594 0.0
C591 C 0.40795 0.73486 1.03283 0.0
H592 H 0.36213 0.8548 0.06893 0.0
C593 C 0.40707 0.69343 1.05404 0.0
C594 C 0.39177 0.70998 0.08091 0.0
H595 H 0.42326 0.72075 1.0129 0.0
H596 H 0.42154 0.64909 1.04959 0.0
C597 C 0.37413 0.76848 0.08564 0.0
C598 C 0.76745 0.37526 0.53506 0.0
C599 C 0.70893 0.39275 0.5398 0.0
H600 H 0.85381 0.3634 0.55177 0.0
C601 C 0.69238 0.40799 0.56668 0.0
H602 H 0.78158 0.36222 0.51475 0.0
C603 C 0.73384 0.40893 0.58789 0.0
C604 C 0.79311 0.39436 0.5829 0.0
H605 H 0.64802 0.42238 0.57113 0.0
H606 H 0.71975 0.42423 0.60782 0.0
C607 C 0.80894 0.37593 0.55633 0.0
C608 C 0.95531 0.16255 0.16991 0.0
C609 C 0.99366 0.18886 0.18886 0.0
H610 H 0.92972 0.08391 0.14883 0.0
C611 C 0.03634 0.15276 0.20161 0.0
H612 H 0.92211 0.18856 0.15962 0.0
C613 C 0.04094 0.09254 0.19545 0.0
C614 C 1.00316 0.06638 0.17623 0.0
H615 H 0.06694 0.17113 0.21633 0.0
H616 H 0.07424 0.06655 0.20573 0.0
C617 C 0.96006 0.10229 0.16366 0.0
C618 C 0.3598 0.03587 0.70257 0.0
C619 C 0.32368 0.99484 0.6887 0.0
H620 H 0.44575 0.07397 0.70733 0.0
C621 C 0.34984 0.95933 0.66853 0.0
H622 H 0.34157 0.06419 0.71829 0.0
C623 C 0.40986 0.96561 0.66203 0.0
C624 C 0.4457 0.00733 0.67564 0.0
H625 H 0.32382 0.92743 0.65739 0.0
H626 H 0.42811 0.93765 0.64619 0.0
C627 C 0.4198 0.04187 0.69622 0.0
C628 C 0.54748 0.41102 0.1618 0.0
C629 C 0.50551 0.44672 0.17532 0.0
H630 H 0.58552 0.32495 0.15693 0.0
C631 C 0.47038 0.4205 0.19558 0.0
H632 H 0.5759 0.42951 0.14621 0.0
C633 C 0.47605 0.36034 0.20168 0.0
C634 C 0.51733 0.32436 0.18789 0.0
H635 H 0.43805 0.44632 0.20662 0.0
H636 H 0.4473 0.34188 0.21716 0.0
C637 C 0.55344 0.35083 0.16805 0.0
C638 C 0.16172 0.55747 0.66953 0.0
C639 C 0.18837 0.51808 0.68789 0.0
H640 H 0.08264 0.58432 0.64917 0.0
C641 C 0.15247 0.47483 0.70034 0.0
H642 H 0.18755 0.59113 0.65946 0.0
C643 C 0.09207 0.4707 0.69445 0.0
C644 C 0.06556 0.50951 0.6758 0.0
H645 H 0.17109 0.44347 0.71463 0.0
H646 H 0.06626 0.43693 0.70448 0.0
C647 C 0.1013 0.55317 0.66355 0.0
C648 C 0.04194 0.4201 0.92526 0.0
C649 C 0.00669 0.44634 0.94548 0.0
H650 H 0.06515 0.34144 0.9037 0.0
C651 C 0.96466 0.41066 0.95894 0.0
H652 H 0.07431 0.4459 0.91426 0.0
C653 C 0.95876 0.35046 0.95269 0.0
C654 C 0.99497 0.32396 0.93288 0.0
H655 H 0.93615 0.42917 0.97451 0.0
H656 H 0.92661 0.3246 0.96376 0.0
C657 C 0.03632 0.35992 0.91914 0.0
C658 C 0.09232 0.04326 0.42648 0.0
C659 C 0.0658 1.0043 0.44506 0.0
H660 H 0.17134 0.07068 0.40637 0.0
C661 C 0.10156 0.96056 0.45725 0.0
H662 H 0.06649 0.0771 0.4165 0.0
C663 C 0.16199 0.95634 0.45128 0.0
C664 C 0.18864 0.99587 0.43299 0.0
H665 H 0.08291 0.9293 0.47158 0.0
H666 H 0.18783 0.92261 0.4613 0.0
C667 C 0.15272 0.0392 0.4206 0.0
C668 C 0.47595 0.15251 0.91946 0.0
C669 C 0.5186 0.18862 0.93223 0.0
H670 H 0.43806 0.0663 0.91532 0.0
C671 C 0.55692 0.16235 0.9512 0.0
H672 H 0.44538 0.17085 0.90473 0.0
C673 C 0.55216 0.1021 0.95745 0.0
C674 C 0.50908 0.06617 0.94486 0.0
H675 H 0.59008 0.18837 0.96151 0.0
H676 H 0.58246 0.08373 0.97229 0.0
C677 C 0.47134 0.0923 0.92562 0.0
C678 C 0.40965 0.54837 0.45904 0.0
C679 C 0.44551 0.50674 0.4454 0.0
H680 H 0.32357 0.58651 0.4637 0.0
C681 C 0.41966 0.47231 0.42476 0.0
H682 H 0.42786 0.57625 0.47493 0.0
C683 C 0.35968 0.47834 0.4184 0.0
C684 C 0.32352 0.51928 0.43231 0.0
H685 H 0.44563 0.44028 0.41362 0.0
H686 H 0.34149 0.4501 0.40264 0.0
C687 C 0.34963 0.55468 0.45253 0.0
C688 C 0.05329 0.85046 0.9527 0.0
C689 C 0.01707 0.82395 0.9329 0.0
H690 H 0.0759 0.92919 0.9745 0.0
C691 C 0.97572 0.85991 0.91916 0.0
H692 H 0.08543 0.8246 0.96378 0.0
C693 C 0.97011 0.92009 0.92525 0.0
C694 C 1.00537 0.94635 0.94547 0.0
H695 H 0.94689 0.84142 0.90371 0.0
H696 H 0.93774 0.94589 0.91425 0.0
C697 C 0.04739 0.91067 0.95894 0.0
C698 C 0.65194 0.97808 0.41829 0.0
C699 C 0.68807 0.01906 0.43219 0.0
H700 H 0.566 0.93998 0.41352 0.0
C701 C 0.66194 0.05448 0.4524 0.0
H702 H 0.67015 0.94983 0.40254 0.0
C703 C 0.60193 0.04815 0.45891 0.0
C704 C 0.56608 0.00648 0.44528 0.0
H705 H 0.68797 0.08634 0.46356 0.0
H706 H 0.5837 0.07604 0.47479 0.0
C707 C 0.59195 0.97204 0.42465 0.0
C708 C 0.45985 0.60211 0.95742 0.0
C709 C 0.50295 0.56617 0.94486 0.0
H710 H 0.42191 0.68839 0.96146 0.0
C711 C 0.54075 0.59229 0.92565 0.0
H712 H 0.42949 0.58375 0.97224 0.0
C713 C 0.53616 0.65251 0.91949 0.0
C714 C 0.49347 0.68863 0.93223 0.0
H715 H 0.57406 0.56629 0.91537 0.0
H716 H 0.56677 0.67084 0.90477 0.0
C717 C 0.45511 0.66236 0.95117 0.0
C718 C 0.85887 0.53902 0.42074 0.0
C719 C 0.82295 0.4957 0.43313 0.0
H720 H 0.94511 0.57689 0.41663 0.0
C721 C 0.84961 0.45616 0.45142 0.0
H722 H 0.84025 0.57051 0.40651 0.0
C723 C 0.91004 0.46035 0.45738 0.0
C724 C 0.9458 0.50408 0.44518 0.0
H725 H 0.82376 0.42243 0.46143 0.0
H726 H 0.9287 0.42908 0.4717 0.0
C727 C 0.91928 0.54306 0.42661 0.0
C728 C 0.97578 0.65278 0.20163 0.0
C729 C 0.01843 0.68886 0.18885 0.0
H730 H 0.93789 0.56658 0.20579 0.0
C731 C 0.05672 0.66253 0.16988 0.0
H732 H 0.94523 0.67116 0.21637 0.0
C733 C 0.05196 0.60227 0.16364 0.0
C734 C 0.00889 0.56637 0.17624 0.0
H735 H 0.08989 0.68853 0.15956 0.0
H736 H 0.08225 0.58387 0.1488 0.0
C737 C 0.97117 0.59255 0.19549 0.0
C738 C 0.84979 0.05761 0.66942 0.0
C739 C 0.82316 0.01823 0.68779 0.0
H740 H 0.92884 0.08447 0.64905 0.0
C741 C 0.85909 0.975 0.70024 0.0
H742 H 0.82393 0.09127 0.65935 0.0
C743 C 0.91948 0.97087 0.69435 0.0
C744 C 0.94597 0.00969 0.67569 0.0
H745 H 0.84048 0.94364 0.71453 0.0
H746 H 0.94531 0.93711 0.70438 0.0
C747 C 0.91021 0.05333 0.66343 0.0
C748 C 0.45864 0.85082 0.16806 0.0
C749 C 0.49477 0.82437 0.1879 0.0
H750 H 0.43615 0.92949 0.14621 0.0
C751 C 0.53608 0.86035 0.20167 0.0
H752 H 0.42654 0.82494 0.15697 0.0
C753 C 0.54174 0.92051 0.19556 0.0
C754 C 0.50658 0.94671 0.1753 0.0
H755 H 0.56484 0.8419 0.21715 0.0
H756 H 0.57408 0.94633 0.20658 0.0
C757 C 0.46459 0.91101 0.16181 0.0
C758 C 0.60167 0.46568 0.66215 0.0
C759 C 0.56584 0.50741 0.67575 0.0
H760 H 0.68771 0.42745 0.65752 0.0
C761 C 0.59173 0.54194 0.69634 0.0
H762 H 0.58343 0.43771 0.6463 0.0
C763 C 0.65173 0.53591 0.70269 0.0
C764 C 0.68785 0.49486 0.68883 0.0
H765 H 0.56579 0.57405 0.70744 0.0
H766 H 0.66996 0.56423 0.71841 0.0
C767 C 0.66169 0.45936 0.66866 0.0
C768 C 0.02752 0.45287 0.33729 0.0
C769 C 0.07147 0.49576 0.33378 0.0
H770 H 0.96745 0.39334 0.31852 0.0
C771 C 0.0862 0.51252 0.30679 0.0
H772 H 0.01464 0.43835 0.35753 0.0
C773 C 0.05984 0.48544 0.28412 0.0
C774 C 0.01733 0.44113 0.28764 0.0
H775 H 0.11886 0.54601 0.30289 0.0
H776 H 0.07425 0.49842 0.26388 0.0
C777 C 1.00067 0.42627 0.31463 0.0
C778 C 0.02818 0.06225 0.78357 0.0
C779 C 0.07143 0.01865 0.78711 0.0
H780 H 0.96876 0.1225 0.80235 0.0
C781 C 0.08552 1.0013 0.81409 0.0
H782 H 0.01586 0.07721 0.76333 0.0
C783 C 0.05925 0.0285 0.83675 0.0
C784 C 0.01747 0.07351 0.83322 0.0
H785 H 0.11761 0.96725 0.81798 0.0
H786 H 0.07319 0.01508 0.857 0.0
C787 C 1.00142 0.08898 0.80623 0.0
C788 C 0.48332 0.0624 0.33695 0.0
C789 C 0.43904 0.01989 0.33334 0.0
H790 H 0.5439 0.12157 0.31824 0.0
C791 C 0.42425 1.00327 0.30634 0.0
H792 H 0.49613 0.07676 0.35724 0.0
C793 C 0.45091 0.03018 0.28373 0.0
C794 C 0.49373 0.07417 0.28734 0.0
H795 H 0.39132 0.97001 0.30244 0.0
H796 H 0.43646 0.01745 0.26345 0.0
C797 C 0.51044 0.08887 0.31434 0.0
C798 C 0.45009 0.48385 0.83729 0.0
C799 C 0.49369 0.44063 0.83369 0.0
H800 H 0.38975 0.54326 0.81859 0.0
C801 C 0.51098 0.42658 0.8067 0.0
H802 H 0.43517 0.49612 0.85756 0.0
C803 C 0.48371 0.45285 0.78408 0.0
C804 C 0.43867 0.49458 0.78767 0.0
H805 H 0.54505 0.39452 0.80278 0.0
H806 H 0.49705 0.43895 0.7638 0.0
C807 C 0.42327 0.51061 0.81467 0.0
C808 C 0.01034 0.5889 0.8063 0.0
C809 C 0.99431 0.57349 0.83329 0.0
H810 H 0.99583 0.57709 0.7634 0.0
C811 C 0.95249 0.52854 0.83685 0.0
H812 H 0.04304 0.62236 0.8024 0.0
C813 C 0.92616 0.50134 0.81421 0.0
C814 C 0.94023 0.51863 0.78722 0.0
H815 H 0.93856 0.51517 0.85711 0.0
H816 H 0.89403 0.46734 0.81811 0.0
C817 C 0.98353 0.56217 0.78365 0.0
C818 C 0.9519 0.98536 0.28401 0.0
C819 C 0.99454 0.94117 0.28755 0.0
H820 H 0.89271 0.04582 0.30275 0.0
C821 C 0.01123 0.92642 0.31455 0.0
H822 H 0.93746 0.99825 0.26376 0.0
C823 C 0.98431 0.953 0.3372 0.0
C824 C 0.94024 0.99576 0.33366 0.0
H825 H 0.04455 0.89359 0.31846 0.0
H826 H 0.99723 0.93856 0.35744 0.0
C827 C 0.92547 0.01243 0.30666 0.0
C828 C 0.56168 0.98396 0.83722 0.0
C829 C 0.51815 0.94067 0.83364 0.0
H830 H 0.62187 0.04346 0.81849 0.0
C831 C 0.50084 0.92657 0.80665 0.0
H832 H 0.5766 0.99628 0.85748 0.0
C833 C 0.52803 0.95287 0.78402 0.0
C834 C 0.57299 0.99468 0.78759 0.0
H835 H 0.46683 0.89444 0.80275 0.0
H836 H 0.51468 0.93893 0.76375 0.0
C837 C 0.58841 0.01076 0.81459 0.0
C838 C 0.56088 0.53014 0.28384 0.0
C839 C 0.51814 0.57423 0.28743 0.0
H840 H 0.62033 0.46987 0.30259 0.0
C841 C 0.50145 0.58902 0.31441 0.0
H842 H 0.57532 0.51733 0.26357 0.0
C843 C 0.52849 0.56254 0.33705 0.0
C844 C 0.57269 0.51992 0.33346 0.0
H845 H 0.46804 0.6218 0.31829 0.0
H846 H 0.5157 0.57696 0.35732 0.0
C847 C 0.58747 0.50321 0.30647 0.0
C848 C 0.27818 0.23222 0.13757 0.0
C849 C 0.30249 0.21227 0.16233 0.0
H850 H 0.21372 0.28672 0.11843 0.0
C851 C 0.27857 0.23132 0.18734 0.0
H852 H 0.29604 0.21823 0.11802 0.0
C853 C 0.23134 0.27014 0.18757 0.0
C854 C 0.2076 0.29074 0.16281 0.0
H855 H 0.29743 0.21764 0.20672 0.0
H856 H 0.21272 0.2831 0.20712 0.0
C857 C 0.23147 0.27158 0.13781 0.0
C858 C 0.28206 0.27845 0.63746 0.0
C859 C 0.30184 0.30279 0.66225 0.0
H860 H 0.22755 0.21409 0.61823 0.0
C861 C 0.28267 0.27887 0.68723 0.0
H862 H 0.29616 0.2963 0.61793 0.0
C863 C 0.24378 0.23169 0.6874 0.0
C864 C 0.22324 0.20801 0.66261 0.0
H865 H 0.29623 0.29774 0.70663 0.0
H866 H 0.23067 0.21312 0.70693 0.0
C867 C 0.24263 0.23179 0.63763 0.0
C868 C 0.23431 0.22964 0.93353 0.0
C869 C 0.21028 0.21047 0.95848 0.0
H870 H 0.30017 0.28162 0.91389 0.0
C871 C 0.23461 0.23014 0.9833 0.0
H872 H 0.21548 0.21615 0.91411 0.0
C873 C 0.28131 0.2695 0.98317 0.0
C874 C 0.30515 0.28896 0.95822 0.0
H875 H 0.21666 0.21603 1.00281 0.0
H876 H 0.29897 0.28453 1.00259 0.0
C877 C 0.28154 0.26846 0.9334 0.0
C878 C 0.24444 0.28248 0.4335 0.0
C879 C 0.22371 0.30609 0.45828 0.0
H880 H 0.29701 0.21648 0.41431 0.0
C881 C 0.24298 0.28227 0.48327 0.0
H882 H 0.23142 0.30108 0.41397 0.0
C883 C 0.28243 0.23563 0.48348 0.0
C884 C 0.30234 0.21132 0.4587 0.0
H885 H 0.22777 0.29992 0.50266 0.0
H886 H 0.29641 0.21773 0.50301 0.0
C887 C 0.28333 0.23531 0.43371 0.0
C888 C 0.77791 0.72993 0.93358 0.0
C889 C 0.80191 0.71078 0.95854 0.0
H890 H 0.71206 0.78188 0.91391 0.0
C891 C 0.7776 0.73052 0.98335 0.0
H892 H 0.79674 0.71639 0.91416 0.0
C893 C 0.73089 0.7699 0.9832 0.0
C894 C 0.70705 0.78929 0.95824 0.0
H895 H 0.79552 0.71644 1.00286 0.0
H896 H 0.71322 0.78496 1.00261 0.0
C897 C 0.73068 0.76877 0.93343 0.0
C898 C 0.72995 0.73544 0.4835 0.0
C899 C 0.70996 0.71112 0.45874 0.0
H900 H 0.78462 0.79978 0.50264 0.0
C901 C 0.72899 0.73502 0.43373 0.0
H902 H 0.71598 0.7176 0.50305 0.0
C903 C 0.76789 0.78218 0.4335 0.0
C904 C 0.78861 0.80586 0.45826 0.0
H905 H 0.71527 0.71617 0.41435 0.0
H906 H 0.78087 0.80075 0.41395 0.0
C907 C 0.7694 0.78208 0.48326 0.0
C908 C 0.78077 0.77114 0.1378 0.0
C909 C 0.80463 0.79038 0.16279 0.0
H910 H 0.71618 0.71776 0.11805 0.0
C911 C 0.78093 0.76981 0.18757 0.0
H912 H 0.79849 0.78625 0.11842 0.0
C913 C 0.73369 0.73099 0.18735 0.0
C914 C 0.70975 0.71191 0.16236 0.0
H915 H 0.79955 0.78282 0.2071 0.0
H916 H 0.71485 0.71736 0.20675 0.0
C917 C 0.73406 0.73179 0.13759 0.0
C918 C 0.72913 0.77896 0.68725 0.0
C919 C 0.70996 0.80283 0.66226 0.0
H920 H 0.78109 0.71321 0.70698 0.0
C921 C 0.72976 0.77845 0.63748 0.0
H922 H 0.71556 0.79786 0.70665 0.0
C923 C 0.76917 0.73177 0.63768 0.0
C924 C 0.78853 0.70801 0.66266 0.0
H925 H 0.71567 0.79627 0.61795 0.0
H926 H 0.78425 0.71402 0.61829 0.0
C927 C 0.76799 0.73176 0.68745 0.0
loop_
_geom_bond_atom_site_label_1
_geom_bond_atom_site_label_2
_geom_bond_distance
_geom_bond_site_symmetry_2
_ccdc_geom_bond_type
C0 C1 1.351 . S
C0 N3 1.368 1_455 S
C0 H5 0.931 . S
C1 C0 1.351 . S
C1 N2 1.373 1_455 S
C1 H29 0.930 . S
N2 C1 1.373 1_655 S
N2 C4 1.340 . S
N3 C0 1.368 1_655 S
N3 C4 1.321 . S
N3 Co6 2.135 . S
C4 N2 1.340 . S
C4 N3 1.321 . S
C4 H28 0.930 . S
H5 C0 0.931 . S
Co6 N3 2.135 . S
Co6 N9 2.121 1_655 S
Co6 O14 2.055 . S
Co6 O17 2.039 . S
Co6 N20 2.140 1_655 S
C7 O8 1.227 1_655 S
C7 O17 1.265 . S
O8 C7 1.227 1_455 S
N9 Co6 2.121 1_455 S
N9 C11 1.375 . S
N9 C12 1.313 . S
C10 C11 1.338 . S
C10 N13 1.377 . S
C10 H30 0.930 . S
C11 N9 1.375 . S
C11 C10 1.338 . S
C11 H15 0.931 . S
C12 N9 1.313 . S
C12 N13 1.344 . S
C12 H16 0.930 1_455 S
N13 C10 1.377 . S
N13 C12 1.344 . S
O14 Co6 2.055 . S
O14 C18 1.253 . S
H15 C11 0.931 . S
H16 C12 0.930 1_655 S
O17 Co6 2.039 . S
O17 C7 1.265 . S
C18 O14 1.253 . S
C18 O19 1.227 1_655 S
O19 C18 1.227 1_455 S
N20 Co6 2.140 1_455 S
N20 C23 1.346 . S
N20 C24 1.345 . S
C21 C22 1.387 . S
C21 C25 1.391 . S
C22 C21 1.387 . S
C22 C23 1.369 . S
C22 H31 0.929 . S
C23 N20 1.346 . S
C23 C22 1.369 . S
C23 H26 0.928 . S
C24 N20 1.345 . S
C24 C25 1.371 . S
C24 H27 0.931 . S
C25 C21 1.391 . S
C25 C24 1.371 . S
C25 H32 0.930 . S
H26 C23 0.928 . S
H27 C24 0.931 . S
H28 C4 0.930 . S
H29 C1 0.930 . S
H30 C10 0.930 . S
H31 C22 0.929 . S
H32 C25 0.930 . S
C33 C34 1.351 . S
C33 N36 1.368 1_545 S
C33 H38 0.931 . S
C34 C33 1.351 . S
C34 N35 1.373 1_545 S
C34 H62 0.930 . S
N35 C34 1.373 1_565 S
N35 C37 1.340 . S
N36 C33 1.368 1_565 S
N36 C37 1.321 . S
N36 Co39 2.135 . S
C37 N35 1.340 . S
C37 N36 1.321 . S
C37 H61 0.930 . S
H38 C33 0.931 . S
Co39 N36 2.135 . S
Co39 N42 2.121 1_565 S
Co39 O47 2.055 . S
Co39 O50 2.039 . S
Co39 N53 2.140 1_565 S
C40 O41 1.227 1_565 S
C40 O50 1.265 . S
O41 C40 1.227 1_545 S
N42 Co39 2.121 1_545 S
N42 C44 1.375 . S
N42 C45 1.313 . S
C43 C44 1.338 . S
C43 N46 1.377 . S
C43 H63 0.930 . S
C44 N42 1.375 . S
C44 C43 1.338 . S
C44 H48 0.931 . S
C45 N42 1.313 . S
C45 N46 1.344 . S
C45 H49 0.930 1_545 S
N46 C43 1.377 . S
N46 C45 1.344 . S
O47 Co39 2.055 . S
O47 C51 1.253 . S
H48 C44 0.931 . S
H49 C45 0.930 1_565 S
O50 Co39 2.039 . S
O50 C40 1.265 . S
C51 O47 1.253 . S
C51 O52 1.227 1_565 S
O52 C51 1.227 1_545 S
N53 Co39 2.140 1_545 S
N53 C56 1.346 . S
N53 C57 1.345 . S
C54 C55 1.387 . S
C54 C58 1.391 . S
C55 C54 1.387 . S
C55 C56 1.369 . S
C55 H64 0.929 . S
C56 N53 1.346 . S
C56 C55 1.369 . S
C56 H59 0.928 . S
C57 N53 1.345 . S
C57 C58 1.371 . S
C57 H60 0.931 . S
C58 C54 1.391 . S
C58 C57 1.371 . S
C58 H65 0.930 . S
H59 C56 0.928 . S
H60 C57 0.931 . S
H61 C37 0.930 . S
H62 C34 0.930 . S
H63 C43 0.930 . S
H64 C55 0.929 . S
H65 C58 0.930 . S
C66 C67 1.351 . S
C66 N69 1.368 . S
C66 H71 0.931 . S
C67 C66 1.351 . S
C67 N68 1.373 . S
C67 H95 0.930 . S
N68 C67 1.373 . S
N68 C70 1.340 . S
N69 C66 1.368 . S
N69 C70 1.321 . S
N69 Co72 2.135 . S
C70 N68 1.340 . S
C70 N69 1.321 . S
C70 H94 0.930 . S
H71 C66 0.931 . S
Co72 N69 2.135 . S
Co72 N75 2.121 . S
Co72 O80 2.055 . S
Co72 O83 2.039 . S
Co72 N86 2.140 . S
C73 O74 1.227 . S
C73 O83 1.265 . S
O74 C73 1.227 . S
N75 Co72 2.121 . S
N75 C77 1.375 . S
N75 C78 1.313 . S
C76 C77 1.338 . S
C76 N79 1.377 . S
C76 H96 0.930 . S
C77 N75 1.375 . S
C77 C76 1.338 . S
C77 H81 0.931 . S
C78 N75 1.313 . S
C78 N79 1.344 . S
C78 H82 0.930 . S
N79 C76 1.377 . S
N79 C78 1.344 . S
O80 Co72 2.055 . S
O80 C84 1.253 . S
H81 C77 0.931 . S
H82 C78 0.930 . S
O83 Co72 2.039 . S
O83 C73 1.265 . S
C84 O80 1.253 . S
C84 O85 1.227 . S
O85 C84 1.227 . S
N86 Co72 2.140 . S
N86 C89 1.346 . S
N86 C90 1.345 . S
C87 C88 1.387 . S
C87 C91 1.391 . S
C88 C87 1.387 . S
C88 C89 1.369 . S
C88 H97 0.929 . S
C89 N86 1.346 . S
C89 C88 1.369 . S
C89 H92 0.928 . S
C90 N86 1.345 . S
C90 C91 1.371 . S
C90 H93 0.931 . S
C91 C87 1.391 . S
C91 C90 1.371 . S
C91 H98 0.930 . S
H92 C89 0.928 . S
H93 C90 0.931 . S
H94 C70 0.930 . S
H95 C67 0.930 . S
H96 C76 0.930 . S
H97 C88 0.929 . S
H98 C91 0.930 . S
C99 C100 1.351 . S
C99 N102 1.368 . S
C99 H104 0.931 . S
C100 C99 1.351 . S
C100 N101 1.373 . S
C100 H128 0.930 . S
N101 C100 1.373 . S
N101 C103 1.340 . S
N102 C99 1.368 . S
N102 C103 1.321 . S
N102 Co105 2.135 . S
C103 N101 1.340 . S
C103 N102 1.321 . S
C103 H127 0.930 . S
H104 C99 0.931 . S
Co105 N102 2.135 . S
Co105 N108 2.121 . S
Co105 O113 2.055 . S
Co105 O116 2.039 . S
Co105 N119 2.140 . S
C106 O107 1.227 . S
C106 O116 1.265 . S
O107 C106 1.227 . S
N108 Co105 2.121 . S
N108 C110 1.375 . S
N108 C111 1.313 . S
C109 C110 1.338 . S
C109 N112 1.377 . S
C109 H129 0.930 . S
C110 N108 1.375 . S
C110 C109 1.338 . S
C110 H114 0.931 . S
C111 N108 1.313 . S
C111 N112 1.344 . S
C111 H115 0.930 . S
N112 C109 1.377 . S
N112 C111 1.344 . S
O113 Co105 2.055 . S
O113 C117 1.253 . S
H114 C110 0.931 . S
H115 C111 0.930 . S
O116 Co105 2.039 . S
O116 C106 1.265 . S
C117 O113 1.253 . S
C117 O118 1.227 . S
O118 C117 1.227 . S
N119 Co105 2.140 . S
N119 C122 1.346 . S
N119 C123 1.345 . S
C120 C121 1.387 . S
C120 C124 1.391 . S
C121 C120 1.387 . S
C121 C122 1.369 . S
C121 H130 0.929 . S
C122 N119 1.346 . S
C122 C121 1.369 . S
C122 H125 0.928 . S
C123 N119 1.345 . S
C123 C124 1.371 . S
C123 H126 0.931 . S
C124 C120 1.391 . S
C124 C123 1.371 . S
C124 H131 0.930 . S
H125 C122 0.928 . S
H126 C123 0.931 . S
H127 C103 0.930 . S
H128 C100 0.930 . S
H129 C109 0.930 . S
H130 C121 0.929 . S
H131 C124 0.930 . S
C132 C133 1.351 . S
C132 N135 1.368 1_455 S
C132 H137 0.931 . S
C133 C132 1.351 . S
C133 N134 1.373 1_455 S
C133 H161 0.930 . S
N134 C133 1.373 1_655 S
N134 C136 1.340 . S
N135 C132 1.368 1_655 S
N135 C136 1.321 . S
N135 Co138 2.135 . S
C136 N134 1.340 . S
C136 N135 1.321 . S
C136 H160 0.930 . S
H137 C132 0.931 . S
Co138 N135 2.135 . S
Co138 N141 2.121 1_655 S
Co138 O146 2.055 . S
Co138 O149 2.039 . S
Co138 N152 2.140 1_655 S
C139 O140 1.227 1_655 S
C139 O149 1.265 . S
O140 C139 1.227 1_455 S
N141 Co138 2.121 1_455 S
N141 C143 1.375 . S
N141 C144 1.313 . S
C142 C143 1.338 . S
C142 N145 1.377 . S
C142 H162 0.930 . S
C143 N141 1.375 . S
C143 C142 1.338 . S
C143 H147 0.931 . S
C144 N141 1.313 . S
C144 N145 1.344 . S
C144 H148 0.930 1_455 S
N145 C142 1.377 . S
N145 C144 1.344 . S
O146 Co138 2.055 . S
O146 C150 1.253 . S
H147 C143 0.931 . S
H148 C144 0.930 1_655 S
O149 Co138 2.039 . S
O149 C139 1.265 . S
C150 O146 1.253 . S
C150 O151 1.227 1_655 S
O151 C150 1.227 1_455 S
N152 Co138 2.140 1_455 S
N152 C155 1.346 . S
N152 C156 1.345 . S
C153 C154 1.387 . S
C153 C157 1.391 . S
C154 C153 1.387 . S
C154 C155 1.369 . S
C154 H163 0.929 . S
C155 N152 1.346 . S
C155 C154 1.369 . S
C155 H158 0.928 . S
C156 N152 1.345 . S
C156 C157 1.371 . S
C156 H159 0.931 . S
C157 C153 1.391 . S
C157 C156 1.371 . S
C157 H164 0.930 . S
H158 C155 0.928 . S
H159 C156 0.931 . S
H160 C136 0.930 . S
H161 C133 0.930 . S
H162 C142 0.930 . S
H163 C154 0.929 . S
H164 C157 0.930 . S
C165 C166 1.351 . S
C165 N168 1.368 1_545 S
C165 H170 0.931 . S
C166 C165 1.351 . S
C166 N167 1.373 1_545 S
C166 H194 0.930 . S
N167 C166 1.373 1_565 S
N167 C169 1.340 . S
N168 C165 1.368 1_565 S
N168 C169 1.321 . S
N168 Co171 2.135 . S
C169 N167 1.340 . S
C169 N168 1.321 . S
C169 H193 0.930 . S
H170 C165 0.931 . S
Co171 N168 2.135 . S
Co171 N174 2.121 1_565 S
Co171 O179 2.055 . S
Co171 O182 2.039 . S
Co171 N185 2.140 1_565 S
C172 O173 1.227 1_565 S
C172 O182 1.265 . S
O173 C172 1.227 1_545 S
N174 Co171 2.121 1_545 S
N174 C176 1.375 . S
N174 C177 1.313 . S
C175 C176 1.338 . S
C175 N178 1.377 . S
C175 H195 0.930 . S
C176 N174 1.375 . S
C176 C175 1.338 . S
C176 H180 0.931 . S
C177 N174 1.313 . S
C177 N178 1.344 . S
C177 H181 0.930 1_545 S
N178 C175 1.377 . S
N178 C177 1.344 . S
O179 Co171 2.055 . S
O179 C183 1.253 . S
H180 C176 0.931 . S
H181 C177 0.930 1_565 S
O182 Co171 2.039 . S
O182 C172 1.265 . S
C183 O179 1.253 . S
C183 O184 1.227 1_565 S
O184 C183 1.227 1_545 S
N185 Co171 2.140 1_545 S
N185 C188 1.346 . S
N185 C189 1.345 . S
C186 C187 1.387 . S
C186 C190 1.391 . S
C187 C186 1.387 . S
C187 C188 1.369 . S
C187 H196 0.929 . S
C188 N185 1.346 . S
C188 C187 1.369 . S
C188 H191 0.928 . S
C189 N185 1.345 . S
C189 C190 1.371 . S
C189 H192 0.931 . S
C190 C186 1.391 . S
C190 C189 1.371 . S
C190 H197 0.930 . S
H191 C188 0.928 . S
H192 C189 0.931 . S
H193 C169 0.930 . S
H194 C166 0.930 . S
H195 C175 0.930 . S
H196 C187 0.929 . S
H197 C190 0.930 . S
C198 C199 1.351 . S
C198 N201 1.368 . S
C198 H203 0.931 . S
C199 C198 1.351 . S
C199 N200 1.373 . S
C199 H227 0.930 . S
N200 C199 1.373 . S
N200 C202 1.340 . S
N201 C198 1.368 . S
N201 C202 1.321 . S
N201 Co204 2.135 . S
C202 N200 1.340 . S
C202 N201 1.321 . S
C202 H226 0.930 . S
H203 C198 0.931 . S
Co204 N201 2.135 . S
Co204 N207 2.121 . S
Co204 O212 2.055 . S
Co204 O215 2.039 . S
Co204 N218 2.140 . S
C205 O206 1.227 . S
C205 O215 1.265 . S
O206 C205 1.227 . S
N207 Co204 2.121 . S
N207 C209 1.375 . S
N207 C210 1.313 . S
C208 C209 1.338 . S
C208 N211 1.377 . S
C208 H228 0.930 . S
C209 N207 1.375 . S
C209 C208 1.338 . S
C209 H213 0.931 . S
C210 N207 1.313 . S
C210 N211 1.344 . S
C210 H214 0.930 . S
N211 C208 1.377 . S
N211 C210 1.344 . S
O212 Co204 2.055 . S
O212 C216 1.253 . S
H213 C209 0.931 . S
H214 C210 0.930 . S
O215 Co204 2.039 . S
O215 C205 1.265 . S
C216 O212 1.253 . S
C216 O217 1.227 . S
O217 C216 1.227 . S
N218 Co204 2.140 . S
N218 C221 1.346 . S
N218 C222 1.345 . S
C219 C220 1.387 . S
C219 C223 1.391 . S
C220 C219 1.387 . S
C220 C221 1.369 . S
C220 H229 0.929 . S
C221 N218 1.346 . S
C221 C220 1.369 . S
C221 H224 0.928 . S
C222 N218 1.345 . S
C222 C223 1.371 . S
C222 H225 0.931 . S
C223 C219 1.391 . S
C223 C222 1.371 . S
C223 H230 0.930 . S
H224 C221 0.928 . S
H225 C222 0.931 . S
H226 C202 0.930 . S
H227 C199 0.930 . S
H228 C208 0.930 . S
H229 C220 0.929 . S
H230 C223 0.930 . S
C231 C232 1.351 . S
C231 N234 1.368 . S
C231 H236 0.931 . S
C232 C231 1.351 . S
C232 N233 1.373 . S
C232 H260 0.930 . S
N233 C232 1.373 . S
N233 C235 1.340 . S
N234 C231 1.368 . S
N234 C235 1.321 . S
N234 Co237 2.135 . S
C235 N233 1.340 . S
C235 N234 1.321 . S
C235 H259 0.930 . S
H236 C231 0.931 . S
Co237 N234 2.135 . S
Co237 N240 2.121 . S
Co237 O245 2.055 . S
Co237 O248 2.039 . S
Co237 N251 2.140 . S
C238 O239 1.227 . S
C238 O248 1.265 . S
O239 C238 1.227 . S
N240 Co237 2.121 . S
N240 C242 1.375 . S
N240 C243 1.313 . S
C241 C242 1.338 . S
C241 N244 1.377 . S
C241 H261 0.930 . S
C242 N240 1.375 . S
C242 C241 1.338 . S
C242 H246 0.931 . S
C243 N240 1.313 . S
C243 N244 1.344 . S
C243 H247 0.930 . S
N244 C241 1.377 . S
N244 C243 1.344 . S
O245 Co237 2.055 . S
O245 C249 1.253 . S
H246 C242 0.931 . S
H247 C243 0.930 . S
O248 Co237 2.039 . S
O248 C238 1.265 . S
C249 O245 1.253 . S
C249 O250 1.227 . S
O250 C249 1.227 . S
N251 Co237 2.140 . S
N251 C254 1.346 . S
N251 C255 1.345 . S
C252 C253 1.387 . S
C252 C256 1.391 . S
C253 C252 1.387 . S
C253 C254 1.369 . S
C253 H262 0.929 . S
C254 N251 1.346 . S
C254 C253 1.369 . S
C254 H257 0.928 . S
C255 N251 1.345 . S
C255 C256 1.371 . S
C255 H258 0.931 . S
C256 C252 1.391 . S
C256 C255 1.371 . S
C256 H263 0.930 . S
H257 C254 0.928 . S
H258 C255 0.931 . S
H259 C235 0.930 . S
H260 C232 0.930 . S
H261 C241 0.930 . S
H262 C253 0.929 . S
H263 C256 0.930 . S
C264 C265 1.351 . S
C264 N267 1.368 1_655 S
C264 H269 0.931 . S
C265 C264 1.351 . S
C265 N266 1.373 1_655 S
C265 H293 0.930 . S
N266 C265 1.373 1_455 S
N266 C268 1.340 . S
N267 C264 1.368 1_455 S
N267 C268 1.321 . S
N267 Co270 2.135 . S
C268 N266 1.340 . S
C268 N267 1.321 . S
C268 H292 0.930 . S
H269 C264 0.931 . S
Co270 N267 2.135 . S
Co270 N273 2.121 1_455 S
Co270 O278 2.055 . S
Co270 O281 2.039 . S
Co270 N284 2.140 1_455 S
C271 O272 1.227 1_455 S
C271 O281 1.265 . S
O272 C271 1.227 1_655 S
N273 Co270 2.121 1_655 S
N273 C275 1.375 . S
N273 C276 1.313 . S
C274 C275 1.338 . S
C274 N277 1.377 . S
C274 H294 0.930 . S
C275 N273 1.375 . S
C275 C274 1.338 . S
C275 H279 0.931 . S
C276 N273 1.313 . S
C276 N277 1.344 . S
C276 H280 0.930 1_655 S
N277 C274 1.377 . S
N277 C276 1.344 . S
O278 Co270 2.055 . S
O278 C282 1.253 . S
H279 C275 0.931 . S
H280 C276 0.930 1_455 S
O281 Co270 2.039 . S
O281 C271 1.265 . S
C282 O278 1.253 . S
C282 O283 1.227 1_455 S
O283 C282 1.227 1_655 S
N284 Co270 2.140 1_655 S
N284 C287 1.346 . S
N284 C288 1.345 . S
C285 C286 1.387 . S
C285 C289 1.391 . S
C286 C285 1.387 . S
C286 C287 1.369 . S
C286 H295 0.929 . S
C287 N284 1.346 . S
C287 C286 1.369 . S
C287 H290 0.928 . S
C288 N284 1.345 . S
C288 C289 1.371 . S
C288 H291 0.931 . S
C289 C285 1.391 . S
C289 C288 1.371 . S
C289 H296 0.930 . S
H290 C287 0.928 . S
H291 C288 0.931 . S
H292 C268 0.930 . S
H293 C265 0.930 . S
H294 C274 0.930 . S
H295 C286 0.929 . S
H296 C289 0.930 . S
C297 C298 1.351 . S
C297 N300 1.368 1_565 S
C297 H302 0.931 . S
C298 C297 1.351 . S
C298 N299 1.373 1_565 S
C298 H326 0.930 . S
N299 C298 1.373 1_545 S
N299 C301 1.340 . S
N300 C297 1.368 1_545 S
N300 C301 1.321 . S
N300 Co303 2.135 . S
C301 N299 1.340 . S
C301 N300 1.321 . S
C301 H325 0.930 . S
H302 C297 0.931 . S
Co303 N300 2.135 . S
Co303 N306 2.121 1_545 S
Co303 O311 2.055 . S
Co303 O314 2.039 . S
Co303 N317 2.140 1_545 S
C304 O305 1.227 1_545 S
C304 O314 1.265 . S
O305 C304 1.227 1_565 S
N306 Co303 2.121 1_565 S
N306 C308 1.375 . S
N306 C309 1.313 . S
C307 C308 1.338 . S
C307 N310 1.377 . S
C307 H327 0.930 . S
C308 N306 1.375 . S
C308 C307 1.338 . S
C308 H312 0.931 . S
C309 N306 1.313 . S
C309 N310 1.344 . S
C309 H313 0.930 1_565 S
N310 C307 1.377 . S
N310 C309 1.344 . S
O311 Co303 2.055 . S
O311 C315 1.253 . S
H312 C308 0.931 . S
H313 C309 0.930 1_545 S
O314 Co303 2.039 . S
O314 C304 1.265 . S
C315 O311 1.253 . S
C315 O316 1.227 1_545 S
O316 C315 1.227 1_565 S
N317 Co303 2.140 1_565 S
N317 C320 1.346 . S
N317 C321 1.345 . S
C318 C319 1.387 . S
C318 C322 1.391 . S
C319 C318 1.387 . S
C319 C320 1.369 . S
C319 H328 0.929 . S
C320 N317 1.346 . S
C320 C319 1.369 . S
C320 H323 0.928 . S
C321 N317 1.345 . S
C321 C322 1.371 . S
C321 H324 0.931 . S
C322 C318 1.391 . S
C322 C321 1.371 . S
C322 H329 0.930 . S
H323 C320 0.928 . S
H324 C321 0.931 . S
H325 C301 0.930 . S
H326 C298 0.930 . S
H327 C307 0.930 . S
H328 C319 0.929 . S
H329 C322 0.930 . S
C330 C331 1.351 . S
C330 N333 1.368 . S
C330 H335 0.931 . S
C331 C330 1.351 . S
C331 N332 1.373 . S
C331 H359 0.930 . S
N332 C331 1.373 . S
N332 C334 1.340 . S
N333 C330 1.368 . S
N333 C334 1.321 . S
N333 Co336 2.135 . S
C334 N332 1.340 . S
C334 N333 1.321 . S
C334 H358 0.930 . S
H335 C330 0.931 . S
Co336 N333 2.135 . S
Co336 N339 2.121 . S
Co336 O344 2.055 . S
Co336 O347 2.039 . S
Co336 N350 2.140 . S
C337 O338 1.227 . S
C337 O347 1.265 . S
O338 C337 1.227 . S
N339 Co336 2.121 . S
N339 C341 1.375 . S
N339 C342 1.313 . S
C340 C341 1.338 . S
C340 N343 1.377 . S
C340 H360 0.930 . S
C341 N339 1.375 . S
C341 C340 1.338 . S
C341 H345 0.931 . S
C342 N339 1.313 . S
C342 N343 1.344 . S
C342 H346 0.930 . S
N343 C340 1.377 . S
N343 C342 1.344 . S
O344 Co336 2.055 . S
O344 C348 1.253 . S
H345 C341 0.931 . S
H346 C342 0.930 . S
O347 Co336 2.039 . S
O347 C337 1.265 . S
C348 O344 1.253 . S
C348 O349 1.227 . S
O349 C348 1.227 . S
N350 Co336 2.140 . S
N350 C353 1.346 . S
N350 C354 1.345 . S
C351 C352 1.387 . S
C351 C355 1.391 . S
C352 C351 1.387 . S
C352 C353 1.369 . S
C352 H361 0.929 . S
C353 N350 1.346 . S
C353 C352 1.369 . S
C353 H356 0.928 . S
C354 N350 1.345 . S
C354 C355 1.371 . S
C354 H357 0.931 . S
C355 C351 1.391 . S
C355 C354 1.371 . S
C355 H362 0.930 . S
H356 C353 0.928 . S
H357 C354 0.931 . S
H358 C334 0.930 . S
H359 C331 0.930 . S
H360 C340 0.930 . S
H361 C352 0.929 . S
H362 C355 0.930 . S
C363 C364 1.351 . S
C363 N366 1.368 . S
C363 H368 0.931 . S
C364 C363 1.351 . S
C364 N365 1.373 . S
C364 H392 0.930 . S
N365 C364 1.373 . S
N365 C367 1.340 . S
N366 C363 1.368 . S
N366 C367 1.321 . S
N366 Co369 2.135 . S
C367 N365 1.340 . S
C367 N366 1.321 . S
C367 H391 0.930 . S
H368 C363 0.931 . S
Co369 N366 2.135 . S
Co369 N372 2.121 . S
Co369 O377 2.055 . S
Co369 O380 2.039 . S
Co369 N383 2.140 . S
C370 O371 1.227 . S
C370 O380 1.265 . S
O371 C370 1.227 . S
N372 Co369 2.121 . S
N372 C374 1.375 . S
N372 C375 1.313 . S
C373 C374 1.338 . S
C373 N376 1.377 . S
C373 H393 0.930 . S
C374 N372 1.375 . S
C374 C373 1.338 . S
C374 H378 0.931 . S
C375 N372 1.313 . S
C375 N376 1.344 . S
C375 H379 0.930 . S
N376 C373 1.377 . S
N376 C375 1.344 . S
O377 Co369 2.055 . S
O377 C381 1.253 . S
H378 C374 0.931 . S
H379 C375 0.930 . S
O380 Co369 2.039 . S
O380 C370 1.265 . S
C381 O377 1.253 . S
C381 O382 1.227 . S
O382 C381 1.227 . S
N383 Co369 2.140 . S
N383 C386 1.346 . S
N383 C387 1.345 . S
C384 C385 1.387 . S
C384 C388 1.391 . S
C385 C384 1.387 . S
C385 C386 1.369 . S
C385 H394 0.929 . S
C386 N383 1.346 . S
C386 C385 1.369 . S
C386 H389 0.928 . S
C387 N383 1.345 . S
C387 C388 1.371 . S
C387 H390 0.931 . S
C388 C384 1.391 . S
C388 C387 1.371 . S
C388 H395 0.930 . S
H389 C386 0.928 . S
H390 C387 0.931 . S
H391 C367 0.930 . S
H392 C364 0.930 . S
H393 C373 0.930 . S
H394 C385 0.929 . S
H395 C388 0.930 . S
C396 C397 1.351 . S
C396 N399 1.368 1_655 S
C396 H401 0.931 . S
C397 C396 1.351 . S
C397 N398 1.373 1_655 S
C397 H425 0.930 . S
N398 C397 1.373 1_455 S
N398 C400 1.340 . S
N399 C396 1.368 1_455 S
N399 C400 1.321 . S
N399 Co402 2.135 . S
C400 N398 1.340 . S
C400 N399 1.321 . S
C400 H424 0.930 . S
H401 C396 0.931 . S
Co402 N399 2.135 . S
Co402 N405 2.121 1_455 S
Co402 O410 2.055 . S
Co402 O413 2.039 . S
Co402 N416 2.140 1_455 S
C403 O404 1.227 1_455 S
C403 O413 1.265 . S
O404 C403 1.227 1_655 S
N405 Co402 2.121 1_655 S
N405 C407 1.375 . S
N405 C408 1.313 . S
C406 C407 1.338 . S
C406 N409 1.377 . S
C406 H426 0.930 . S
C407 N405 1.375 . S
C407 C406 1.338 . S
C407 H411 0.931 . S
C408 N405 1.313 . S
C408 N409 1.344 . S
C408 H412 0.930 1_655 S
N409 C406 1.377 . S
N409 C408 1.344 . S
O410 Co402 2.055 . S
O410 C414 1.253 . S
H411 C407 0.931 . S
H412 C408 0.930 1_455 S
O413 Co402 2.039 . S
O413 C403 1.265 . S
C414 O410 1.253 . S
C414 O415 1.227 1_455 S
O415 C414 1.227 1_655 S
N416 Co402 2.140 1_655 S
N416 C419 1.346 . S
N416 C420 1.345 . S
C417 C418 1.387 . S
C417 C421 1.391 . S
C418 C417 1.387 . S
C418 C419 1.369 . S
C418 H427 0.929 . S
C419 N416 1.346 . S
C419 C418 1.369 . S
C419 H422 0.928 . S
C420 N416 1.345 . S
C420 C421 1.371 . S
C420 H423 0.931 . S
C421 C417 1.391 . S
C421 C420 1.371 . S
C421 H428 0.930 . S
H422 C419 0.928 . S
H423 C420 0.931 . S
H424 C400 0.930 . S
H425 C397 0.930 . S
H426 C406 0.930 . S
H427 C418 0.929 . S
H428 C421 0.930 . S
C429 C430 1.351 . S
C429 N432 1.368 1_565 S
C429 H434 0.931 . S
C430 C429 1.351 . S
C430 N431 1.373 1_565 S
C430 H458 0.930 . S
N431 C430 1.373 1_545 S
N431 C433 1.340 . S
N432 C429 1.368 1_545 S
N432 C433 1.321 . S
N432 Co435 2.135 . S
C433 N431 1.340 . S
C433 N432 1.321 . S
C433 H457 0.930 . S
H434 C429 0.931 . S
Co435 N432 2.135 . S
Co435 N438 2.121 1_545 S
Co435 O443 2.055 . S
Co435 O446 2.039 . S
Co435 N449 2.140 1_545 S
C436 O437 1.227 1_545 S
C436 O446 1.265 . S
O437 C436 1.227 1_565 S
N438 Co435 2.121 1_565 S
N438 C440 1.375 . S
N438 C441 1.313 . S
C439 C440 1.338 . S
C439 N442 1.377 . S
C439 H459 0.930 . S
C440 N438 1.375 . S
C440 C439 1.338 . S
C440 H444 0.931 . S
C441 N438 1.313 . S
C441 N442 1.344 . S
C441 H445 0.930 1_565 S
N442 C439 1.377 . S
N442 C441 1.344 . S
O443 Co435 2.055 . S
O443 C447 1.253 . S
H444 C440 0.931 . S
H445 C441 0.930 1_545 S
O446 Co435 2.039 . S
O446 C436 1.265 . S
C447 O443 1.253 . S
C447 O448 1.227 1_545 S
O448 C447 1.227 1_565 S
N449 Co435 2.140 1_565 S
N449 C452 1.346 . S
N449 C453 1.345 . S
C450 C451 1.387 . S
C450 C454 1.391 . S
C451 C450 1.387 . S
C451 C452 1.369 . S
C451 H460 0.929 . S
C452 N449 1.346 . S
C452 C451 1.369 . S
C452 H455 0.928 . S
C453 N449 1.345 . S
C453 C454 1.371 . S
C453 H456 0.931 . S
C454 C450 1.391 . S
C454 C453 1.371 . S
C454 H461 0.930 . S
H455 C452 0.928 . S
H456 C453 0.931 . S
H457 C433 0.930 . S
H458 C430 0.930 . S
H459 C439 0.930 . S
H460 C451 0.929 . S
H461 C454 0.930 . S
C462 C463 1.351 . S
C462 N465 1.368 . S
C462 H467 0.931 . S
C463 C462 1.351 . S
C463 N464 1.373 . S
C463 H491 0.930 . S
N464 C463 1.373 . S
N464 C466 1.340 . S
N465 C462 1.368 . S
N465 C466 1.321 . S
N465 Co468 2.135 . S
C466 N464 1.340 . S
C466 N465 1.321 . S
C466 H490 0.930 . S
H467 C462 0.931 . S
Co468 N465 2.135 . S
Co468 N471 2.121 . S
Co468 O476 2.055 . S
Co468 O479 2.039 . S
Co468 N482 2.140 . S
C469 O470 1.227 . S
C469 O479 1.265 . S
O470 C469 1.227 . S
N471 Co468 2.121 . S
N471 C473 1.375 . S
N471 C474 1.313 . S
C472 C473 1.338 . S
C472 N475 1.377 . S
C472 H492 0.930 . S
C473 N471 1.375 . S
C473 C472 1.338 . S
C473 H477 0.931 . S
C474 N471 1.313 . S
C474 N475 1.344 . S
C474 H478 0.930 . S
N475 C472 1.377 . S
N475 C474 1.344 . S
O476 Co468 2.055 . S
O476 C480 1.253 . S
H477 C473 0.931 . S
H478 C474 0.930 . S
O479 Co468 2.039 . S
O479 C469 1.265 . S
C480 O476 1.253 . S
C480 O481 1.227 . S
O481 C480 1.227 . S
N482 Co468 2.140 . S
N482 C485 1.346 . S
N482 C486 1.345 . S
C483 C484 1.387 . S
C483 C487 1.391 . S
C484 C483 1.387 . S
C484 C485 1.369 . S
C484 H493 0.929 . S
C485 N482 1.346 . S
C485 C484 1.369 . S
C485 H488 0.928 . S
C486 N482 1.345 . S
C486 C487 1.371 . S
C486 H489 0.931 . S
C487 C483 1.391 . S
C487 C486 1.371 . S
C487 H494 0.930 . S
H488 C485 0.928 . S
H489 C486 0.931 . S
H490 C466 0.930 . S
H491 C463 0.930 . S
H492 C472 0.930 . S
H493 C484 0.929 . S
H494 C487 0.930 . S
C495 C496 1.351 . S
C495 N498 1.368 . S
C495 H500 0.931 . S
C496 C495 1.351 . S
C496 N497 1.373 . S
C496 H524 0.930 . S
N497 C496 1.373 . S
N497 C499 1.340 . S
N498 C495 1.368 . S
N498 C499 1.321 . S
N498 Co501 2.135 . S
C499 N497 1.340 . S
C499 N498 1.321 . S
C499 H523 0.930 . S
H500 C495 0.931 . S
Co501 N498 2.135 . S
Co501 N504 2.121 . S
Co501 O509 2.055 . S
Co501 O512 2.039 . S
Co501 N515 2.140 . S
C502 O503 1.227 . S
C502 O512 1.265 . S
O503 C502 1.227 . S
N504 Co501 2.121 . S
N504 C506 1.375 . S
N504 C507 1.313 . S
C505 C506 1.338 . S
C505 N508 1.377 . S
C505 H525 0.930 . S
C506 N504 1.375 . S
C506 C505 1.338 . S
C506 H510 0.931 . S
C507 N504 1.313 . S
C507 N508 1.344 . S
C507 H511 0.930 . S
N508 C505 1.377 . S
N508 C507 1.344 . S
O509 Co501 2.055 . S
O509 C513 1.253 . S
H510 C506 0.931 . S
H511 C507 0.930 . S
O512 Co501 2.039 . S
O512 C502 1.265 . S
C513 O509 1.253 . S
C513 O514 1.227 . S
O514 C513 1.227 . S
N515 Co501 2.140 . S
N515 C518 1.346 . S
N515 C519 1.345 . S
C516 C517 1.387 . S
C516 C520 1.391 . S
C517 C516 1.387 . S
C517 C518 1.369 . S
C517 H526 0.929 . S
C518 N515 1.346 . S
C518 C517 1.369 . S
C518 H521 0.928 . S
C519 N515 1.345 . S
C519 C520 1.371 . S
C519 H522 0.931 . S
C520 C516 1.391 . S
C520 C519 1.371 . S
C520 H527 0.930 . S
H521 C518 0.928 . S
H522 C519 0.931 . S
H523 C499 0.930 . S
H524 C496 0.930 . S
H525 C505 0.930 . S
H526 C517 0.929 . S
H527 C520 0.930 . S
C528 C529 1.387 1_455 S
C528 H532 0.950 . S
C528 C537 1.390 1_556 S
C529 C528 1.387 1_655 S
C529 C531 1.387 . S
H530 C537 0.950 . S
C531 C529 1.387 . S
C531 C533 1.390 1_556 S
C531 H535 0.950 . S
H532 C528 0.950 . S
C533 C531 1.390 1_554 S
C533 C534 1.387 . S
C533 H536 0.950 . S
C534 C533 1.387 . S
C534 C537 1.387 1_655 S
H535 C531 0.950 . S
H536 C533 0.950 . S
C537 C528 1.390 1_554 S
C537 H530 0.950 . S
C537 C534 1.387 1_455 S
C538 C539 1.387 1_545 S
C538 H542 0.950 . S
C538 C547 1.390 . S
C539 C538 1.387 1_565 S
C539 C541 1.387 . S
H540 C547 0.950 . S
C541 C539 1.387 . S
C541 C543 1.390 . S
C541 H545 0.950 . S
H542 C538 0.950 . S
C543 C541 1.390 . S
C543 C544 1.387 . S
C543 H546 0.950 . S
C544 C543 1.387 . S
C544 C547 1.387 1_565 S
H545 C541 0.950 . S
H546 C543 0.950 . S
C547 C538 1.390 . S
C547 H540 0.950 . S
C547 C544 1.387 1_545 S
C548 C549 1.387 . S
C548 H552 0.950 . S
C548 C557 1.390 1_554 S
C549 C548 1.387 . S
C549 C551 1.387 . S
H550 C557 0.950 . S
C551 C549 1.387 . S
C551 C553 1.390 1_554 S
C551 H555 0.950 . S
H552 C548 0.950 . S
C553 C551 1.390 1_556 S
C553 C554 1.387 . S
C553 H556 0.950 . S
C554 C553 1.387 . S
C554 C557 1.387 . S
H555 C551 0.950 . S
H556 C553 0.950 . S
C557 C548 1.390 1_556 S
C557 H550 0.950 . S
C557 C554 1.387 . S
C558 C559 1.387 . S
C558 H562 0.950 . S
C558 C567 1.390 . S
C559 C558 1.387 . S
C559 C561 1.387 . S
H560 C567 0.950 . S
C561 C559 1.387 . S
C561 C563 1.390 . S
C561 H565 0.950 . S
H562 C558 0.950 . S
C563 C561 1.390 . S
C563 C564 1.387 . S
C563 H566 0.950 . S
C564 C563 1.387 . S
C564 C567 1.387 . S
H565 C561 0.950 . S
H566 C563 0.950 . S
C567 C558 1.390 . S
C567 H560 0.950 . S
C567 C564 1.387 . S
C568 C569 1.387 . S
C568 H572 0.950 . S
C568 C577 1.390 1_554 S
C569 C568 1.387 . S
C569 C571 1.387 1_455 S
H570 C577 0.950 . S
C571 C569 1.387 1_655 S
C571 C573 1.390 1_554 S
C571 H575 0.950 . S
H572 C568 0.950 . S
C573 C571 1.390 1_556 S
C573 C574 1.387 1_655 S
C573 H576 0.950 . S
C574 C573 1.387 1_455 S
C574 C577 1.387 . S
H575 C571 0.950 . S
H576 C573 0.950 . S
C577 C568 1.390 1_556 S
C577 H570 0.950 . S
C577 C574 1.387 . S
C578 C579 1.387 . S
C578 H582 0.950 . S
C578 C587 1.390 . S
C579 C578 1.387 . S
C579 C581 1.387 1_545 S
H580 C587 0.950 . S
C581 C579 1.387 1_565 S
C581 C583 1.390 . S
C581 H585 0.950 . S
H582 C578 0.950 . S
C583 C581 1.390 . S
C583 C584 1.387 1_565 S
C583 H586 0.950 . S
C584 C583 1.387 1_545 S
C584 C587 1.387 . S
H585 C581 0.950 . S
H586 C583 0.950 . S
C587 C578 1.390 . S
C587 H580 0.950 . S
C587 C584 1.387 . S
C588 C589 1.387 . S
C588 H592 0.950 . S
C588 C597 1.390 1_556 S
C589 C588 1.387 . S
C589 C591 1.387 . S
H590 C597 0.950 . S
C591 C589 1.387 . S
C591 C593 1.390 1_556 S
C591 H595 0.950 . S
H592 C588 0.950 . S
C593 C591 1.390 1_554 S
C593 C594 1.387 . S
C593 H596 0.950 . S
C594 C593 1.387 . S
C594 C597 1.387 . S
H595 C591 0.950 . S
H596 C593 0.950 . S
C597 C588 1.390 1_554 S
C597 H590 0.950 . S
C597 C594 1.387 . S
C598 C599 1.387 . S
C598 H602 0.950 . S
C598 C607 1.390 . S
C599 C598 1.387 . S
C599 C601 1.387 . S
H600 C607 0.950 . S
C601 C599 1.387 . S
C601 C603 1.390 . S
C601 H605 0.950 . S
H602 C598 0.950 . S
C603 C601 1.390 . S
C603 C604 1.387 . S
C603 H606 0.950 . S
C604 C603 1.387 . S
C604 C607 1.387 . S
H605 C601 0.950 . S
H606 C603 0.950 . S
C607 C598 1.390 . S
C607 H600 0.950 . S
C607 C604 1.387 . S
C608 C609 1.387 . S
C608 H612 0.950 . S
C608 C617 1.390 . S
C609 C608 1.387 . S
C609 C611 1.387 . S
H610 C617 0.950 . S
C611 C609 1.387 . S
C611 C613 1.390 1_655 S
C611 H615 0.950 . S
H612 C608 0.950 . S
C613 C611 1.390 1_455 S
C613 C614 1.387 . S
C613 H616 0.950 . S
C614 C613 1.387 . S
C614 C617 1.387 1_455 S
H615 C611 0.950 . S
H616 C613 0.950 . S
C617 C608 1.390 . S
C617 H610 0.950 . S
C617 C614 1.387 1_655 S
C618 C619 1.387 . S
C618 H622 0.950 . S
C618 C627 1.390 1_565 S
C619 C618 1.387 . S
C619 C621 1.387 . S
H620 C627 0.950 . S
C621 C619 1.387 . S
C621 C623 1.390 . S
C621 H625 0.950 . S
H622 C618 0.950 . S
C623 C621 1.390 . S
C623 C624 1.387 1_565 S
C623 H626 0.950 . S
C624 C623 1.387 1_545 S
C624 C627 1.387 . S
H625 C621 0.950 . S
H626 C623 0.950 . S
C627 C618 1.390 1_545 S
C627 H620 0.950 . S
C627 C624 1.387 . S
C628 C629 1.387 . S
C628 H632 0.950 . S
C628 C637 1.390 . S
C629 C628 1.387 . S
C629 C631 1.387 . S
H630 C637 0.950 . S
C631 C629 1.387 . S
C631 C633 1.390 . S
C631 H635 0.950 . S
H632 C628 0.950 . S
C633 C631 1.390 . S
C633 C634 1.387 . S
C633 H636 0.950 . S
C634 C633 1.387 . S
C634 C637 1.387 . S
H635 C631 0.950 . S
H636 C633 0.950 . S
C637 C628 1.390 . S
C637 H630 0.950 . S
C637 C634 1.387 . S
C638 C639 1.387 . S
C638 H642 0.950 . S
C638 C647 1.390 . S
C639 C638 1.387 . S
C639 C641 1.387 . S
H640 C647 0.950 . S
C641 C639 1.387 . S
C641 C643 1.390 . S
C641 H645 0.950 . S
H642 C638 0.950 . S
C643 C641 1.390 . S
C643 C644 1.387 . S
C643 H646 0.950 . S
C644 C643 1.387 . S
C644 C647 1.387 . S
H645 C641 0.950 . S
H646 C643 0.950 . S
C647 C638 1.390 . S
C647 H640 0.950 . S
C647 C644 1.387 . S
C648 C649 1.387 1_655 S
C648 H652 0.950 1_655 S
C648 C657 1.390 . S
C649 C648 1.387 1_455 S
C649 C651 1.388 1_455 S
H650 C657 0.950 . S
C651 C649 1.388 1_655 S
C651 C653 1.389 . S
C651 H655 0.950 1_655 S
H652 C648 0.950 1_455 S
C653 C651 1.389 . S
C653 C654 1.387 . S
C653 H656 0.950 . S
C654 C653 1.387 . S
C654 C657 1.387 . S
H655 C651 0.950 1_455 S
H656 C653 0.950 . S
C657 C648 1.390 . S
C657 H650 0.950 . S
C657 C654 1.387 . S
C658 C659 1.390 . S
C658 H662 0.954 . S
C658 C667 1.383 1_545 S
C659 C658 1.390 . S
C659 C661 1.387 1_545 S
H660 C667 0.950 . S
C661 C659 1.387 1_565 S
C661 C663 1.390 . S
C661 H665 0.950 1_565 S
H662 C658 0.954 . S
C663 C661 1.390 . S
C663 C664 1.387 . S
C663 H666 0.950 . S
C664 C663 1.387 . S
C664 C667 1.387 . S
H665 C661 0.950 1_545 S
H666 C663 0.950 . S
C667 C658 1.383 1_565 S
C667 H660 0.950 . S
C667 C664 1.387 . S
C668 C669 1.387 . S
C668 H672 0.950 . S
C668 C677 1.390 . S
C669 C668 1.387 . S
C669 C671 1.387 . S
H670 C677 0.950 . S
C671 C669 1.387 . S
C671 C673 1.390 . S
C671 H675 0.950 . S
H672 C668 0.950 . S
C673 C671 1.390 . S
C673 C674 1.387 . S
C673 H676 0.950 . S
C674 C673 1.387 . S
C674 C677 1.387 . S
H675 C671 0.950 . S
H676 C673 0.950 . S
C677 C668 1.390 . S
C677 H670 0.950 . S
C677 C674 1.387 . S
C678 C679 1.387 . S
C678 H682 0.950 . S
C678 C687 1.390 . S
C679 C678 1.387 . S
C679 C681 1.387 . S
H680 C687 0.950 . S
C681 C679 1.387 . S
C681 C683 1.390 . S
C681 H685 0.950 . S
H682 C678 0.950 . S
C683 C681 1.390 . S
C683 C684 1.387 . S
C683 H686 0.950 . S
C684 C683 1.387 . S
C684 C687 1.387 . S
H685 C681 0.950 . S
H686 C683 0.950 . S
C687 C678 1.390 . S
C687 H680 0.950 . S
C687 C684 1.387 . S
C688 C689 1.387 . S
C688 H692 0.950 . S
C688 C697 1.390 . S
C689 C688 1.387 . S
C689 C691 1.387 . S
H690 C697 0.950 1_655 S
C691 C689 1.387 . S
C691 C693 1.390 . S
C691 H695 0.950 . S
H692 C688 0.950 . S
C693 C691 1.390 . S
C693 C694 1.387 1_455 S
C693 H696 0.950 1_455 S
C694 C693 1.387 1_655 S
C694 C697 1.387 1_655 S
H695 C691 0.950 . S
H696 C693 0.950 1_655 S
C697 C688 1.390 . S
C697 H690 0.950 1_455 S
C697 C694 1.387 1_455 S
C698 C699 1.387 . S
C698 H702 0.950 . S
C698 C707 1.390 1_545 S
C699 C698 1.387 . S
C699 C701 1.387 . S
H700 C707 0.950 . S
C701 C699 1.387 . S
C701 C703 1.390 . S
C701 H705 0.950 . S
H702 C698 0.950 . S
C703 C701 1.390 . S
C703 C704 1.387 1_545 S
C703 H706 0.950 . S
C704 C703 1.387 1_565 S
C704 C707 1.387 . S
H705 C701 0.950 . S
H706 C703 0.950 . S
C707 C698 1.390 1_565 S
C707 H700 0.950 . S
C707 C704 1.387 . S
C708 C709 1.387 . S
C708 H712 0.950 . S
C708 C717 1.390 . S
C709 C708 1.387 . S
C709 C711 1.387 . S
H710 C717 0.950 . S
C711 C709 1.387 . S
C711 C713 1.390 . S
C711 H715 0.950 . S
H712 C708 0.950 . S
C713 C711 1.390 . S
C713 C714 1.387 . S
C713 H716 0.950 . S
C714 C713 1.387 . S
C714 C717 1.387 . S
H715 C711 0.950 . S
H716 C713 0.950 . S
C717 C708 1.390 . S
C717 H710 0.950 . S
C717 C714 1.387 . S
C718 C719 1.387 . S
C718 H722 0.950 . S
C718 C727 1.390 . S
C719 C718 1.387 . S
C719 C721 1.387 . S
H720 C727 0.950 . S
C721 C719 1.387 . S
C721 C723 1.390 . S
C721 H725 0.950 . S
H722 C718 0.950 . S
C723 C721 1.390 . S
C723 C724 1.387 . S
C723 H726 0.950 . S
C724 C723 1.387 . S
C724 C727 1.387 . S
H725 C721 0.950 . S
H726 C723 0.950 . S
C727 C718 1.390 . S
C727 H720 0.950 . S
C727 C724 1.387 . S
C728 C729 1.387 . S
C728 H732 0.950 . S
C728 C737 1.390 . S
C729 C728 1.387 . S
C729 C731 1.387 . S
H730 C737 0.950 . S
C731 C729 1.387 . S
C731 C733 1.390 1_455 S
C731 H735 0.950 . S
H732 C728 0.950 . S
C733 C731 1.390 1_655 S
C733 C734 1.387 . S
C733 H736 0.950 . S
C734 C733 1.387 . S
C734 C737 1.387 1_655 S
H735 C731 0.950 . S
H736 C733 0.950 . S
C737 C728 1.390 . S
C737 H730 0.950 . S
C737 C734 1.387 1_455 S
C738 C739 1.387 . S
C738 H742 0.950 . S
C738 C747 1.390 . S
C739 C738 1.387 . S
C739 C741 1.387 . S
H740 C747 0.950 . S
C741 C739 1.387 . S
C741 C743 1.390 1_545 S
C741 H745 0.950 . S
H742 C738 0.950 . S
C743 C741 1.390 1_565 S
C743 C744 1.387 . S
C743 H746 0.950 . S
C744 C743 1.387 . S
C744 C747 1.387 1_565 S
H745 C741 0.950 . S
H746 C743 0.950 . S
C747 C738 1.390 . S
C747 H740 0.950 . S
C747 C744 1.387 1_545 S
C748 C749 1.387 . S
C748 H752 0.950 . S
C748 C757 1.390 . S
C749 C748 1.387 . S
C749 C751 1.387 . S
H750 C757 0.950 . S
C751 C749 1.387 . S
C751 C753 1.390 . S
C751 H755 0.950 . S
H752 C748 0.950 . S
C753 C751 1.390 . S
C753 C754 1.387 . S
C753 H756 0.950 . S
C754 C753 1.387 . S
C754 C757 1.387 . S
H755 C751 0.950 . S
H756 C753 0.950 . S
C757 C748 1.390 . S
C757 H750 0.950 . S
C757 C754 1.387 . S
C758 C759 1.387 . S
C758 H762 0.950 . S
C758 C767 1.390 . S
C759 C758 1.387 . S
C759 C761 1.387 . S
H760 C767 0.950 . S
C761 C759 1.387 . S
C761 C763 1.390 . S
C761 H765 0.950 . S
H762 C758 0.950 . S
C763 C761 1.390 . S
C763 C764 1.387 . S
C763 H766 0.950 . S
C764 C763 1.387 . S
C764 C767 1.387 . S
H765 C761 0.950 . S
H766 C763 0.950 . S
C767 C758 1.390 . S
C767 H760 0.950 . S
C767 C764 1.387 . S
C768 C769 1.387 . S
C768 H772 0.950 . S
C768 C777 1.390 . S
C769 C768 1.387 . S
C769 C771 1.387 . S
H770 C777 0.950 . S
C771 C769 1.387 . S
C771 C773 1.390 . S
C771 H775 0.950 . S
H772 C768 0.950 . S
C773 C771 1.390 . S
C773 C774 1.387 . S
C773 H776 0.950 . S
C774 C773 1.387 . S
C774 C777 1.387 . S
H775 C771 0.950 . S
H776 C773 0.950 . S
C777 C768 1.390 . S
C777 H770 0.950 . S
C777 C774 1.387 . S
C778 C779 1.387 . S
C778 H782 0.950 . S
C778 C787 1.390 . S
C779 C778 1.387 . S
C779 C781 1.387 . S
H780 C787 0.950 1_655 S
C781 C779 1.387 . S
C781 C783 1.390 . S
C781 H785 0.950 . S
H782 C778 0.950 . S
C783 C781 1.390 . S
C783 C784 1.387 . S
C783 H786 0.950 . S
C784 C783 1.387 . S
C784 C787 1.387 . S
H785 C781 0.950 . S
H786 C783 0.950 . S
C787 C778 1.390 . S
C787 H780 0.950 1_455 S
C787 C784 1.387 . S
C788 C789 1.387 . S
C788 H792 0.950 . S
C788 C797 1.390 . S
C789 C788 1.387 . S
C789 C791 1.387 . S
H790 C797 0.950 . S
C791 C789 1.387 . S
C791 C793 1.390 . S
C791 H795 0.950 . S
H792 C788 0.950 . S
C793 C791 1.390 . S
C793 C794 1.387 . S
C793 H796 0.950 . S
C794 C793 1.387 . S
C794 C797 1.387 . S
H795 C791 0.950 . S
H796 C793 0.950 . S
C797 C788 1.390 . S
C797 H790 0.950 . S
C797 C794 1.387 . S
C798 C799 1.387 . S
C798 H802 0.950 . S
C798 C807 1.390 . S
C799 C798 1.387 . S
C799 C801 1.387 . S
H800 C807 0.950 . S
C801 C799 1.387 . S
C801 C803 1.390 . S
C801 H805 0.950 . S
H802 C798 0.950 . S
C803 C801 1.390 . S
C803 C804 1.387 . S
C803 H806 0.950 . S
C804 C803 1.387 . S
C804 C807 1.387 . S
H805 C801 0.950 . S
H806 C803 0.950 . S
C807 C798 1.390 . S
C807 H800 0.950 . S
C807 C804 1.387 . S
C808 C809 1.387 . S
C808 H812 0.950 . S
C808 C817 1.390 . S
C809 C808 1.387 . S
C809 C811 1.387 . S
H810 C817 0.950 . S
C811 C809 1.387 . S
C811 C813 1.390 . S
C811 H815 0.950 . S
H812 C808 0.950 . S
C813 C811 1.390 . S
C813 C814 1.387 . S
C813 H816 0.950 . S
C814 C813 1.387 . S
C814 C817 1.387 . S
H815 C811 0.950 . S
H816 C813 0.950 . S
C817 C808 1.390 . S
C817 H810 0.950 . S
C817 C814 1.387 . S
C818 C819 1.387 . S
C818 H822 0.950 . S
C818 C827 1.390 . S
C819 C818 1.387 . S
C819 C821 1.387 . S
H820 C827 0.950 . S
C821 C819 1.387 . S
C821 C823 1.390 . S
C821 H825 0.950 1_655 S
H822 C818 0.950 . S
C823 C821 1.390 . S
C823 C824 1.387 . S
C823 H826 0.950 . S
C824 C823 1.387 . S
C824 C827 1.387 . S
H825 C821 0.950 1_455 S
H826 C823 0.950 . S
C827 C818 1.390 . S
C827 H820 0.950 . S
C827 C824 1.387 . S
C828 C829 1.387 . S
C828 H832 0.950 . S
C828 C837 1.390 . S
C829 C828 1.387 . S
C829 C831 1.387 . S
H830 C837 0.950 1_545 S
C831 C829 1.387 . S
C831 C833 1.390 . S
C831 H835 0.950 . S
H832 C828 0.950 . S
C833 C831 1.390 . S
C833 C834 1.387 . S
C833 H836 0.950 . S
C834 C833 1.387 . S
C834 C837 1.387 . S
H835 C831 0.950 . S
H836 C833 0.950 . S
C837 C828 1.390 . S
C837 H830 0.950 1_565 S
C837 C834 1.387 . S
C838 C839 1.387 . S
C838 H842 0.950 . S
C838 C847 1.390 . S
C839 C838 1.387 . S
C839 C841 1.387 . S
H840 C847 0.950 . S
C841 C839 1.387 . S
C841 C843 1.390 . S
C841 H845 0.950 . S
H842 C838 0.950 . S
C843 C841 1.390 . S
C843 C844 1.387 . S
C843 H846 0.950 . S
C844 C843 1.387 . S
C844 C847 1.387 . S
H845 C841 0.950 . S
H846 C843 0.950 . S
C847 C838 1.390 . S
C847 H840 0.950 . S
C847 C844 1.387 . S
C848 C849 1.387 . S
C848 H852 0.950 . S
C848 C857 1.390 . S
C849 C848 1.387 . S
C849 C851 1.387 . S
H850 C857 0.950 . S
C851 C849 1.387 . S
C851 C853 1.390 . S
C851 H855 0.950 . S
H852 C848 0.950 . S
C853 C851 1.390 . S
C853 C854 1.387 . S
C853 H856 0.950 . S
C854 C853 1.387 . S
C854 C857 1.387 . S
H855 C851 0.950 . S
H856 C853 0.950 . S
C857 C848 1.390 . S
C857 H850 0.950 . S
C857 C854 1.387 . S
C858 C859 1.387 . S
C858 H862 0.950 . S
C858 C867 1.390 . S
C859 C858 1.387 . S
C859 C861 1.387 . S
H860 C867 0.950 . S
C861 C859 1.387 . S
C861 C863 1.390 . S
C861 H865 0.950 . S
H862 C858 0.950 . S
C863 C861 1.390 . S
C863 C864 1.387 . S
C863 H866 0.950 . S
C864 C863 1.387 . S
C864 C867 1.387 . S
H865 C861 0.950 . S
H866 C863 0.950 . S
C867 C858 1.390 . S
C867 H860 0.950 . S
C867 C864 1.387 . S
C868 C869 1.387 . S
C868 H872 0.950 . S
C868 C877 1.390 . S
C869 C868 1.387 . S
C869 C871 1.387 . S
H870 C877 0.950 . S
C871 C869 1.387 . S
C871 C873 1.390 . S
C871 H875 0.950 . S
H872 C868 0.950 . S
C873 C871 1.390 . S
C873 C874 1.387 . S
C873 H876 0.950 . S
C874 C873 1.387 . S
C874 C877 1.387 . S
H875 C871 0.950 . S
H876 C873 0.950 . S
C877 C868 1.390 . S
C877 H870 0.950 . S
C877 C874 1.387 . S
C878 C879 1.387 . S
C878 H882 0.950 . S
C878 C887 1.390 . S
C879 C878 1.387 . S
C879 C881 1.387 . S
H880 C887 0.950 . S
C881 C879 1.387 . S
C881 C883 1.390 . S
C881 H885 0.950 . S
H882 C878 0.950 . S
C883 C881 1.390 . S
C883 C884 1.387 . S
C883 H886 0.950 . S
C884 C883 1.387 . S
C884 C887 1.387 . S
H885 C881 0.950 . S
H886 C883 0.950 . S
C887 C878 1.390 . S
C887 H880 0.950 . S
C887 C884 1.387 . S
C888 C889 1.387 . S
C888 H892 0.950 . S
C888 C897 1.390 . S
C889 C888 1.387 . S
C889 C891 1.387 . S
H890 C897 0.950 . S
C891 C889 1.387 . S
C891 C893 1.390 . S
C891 H895 0.950 . S
H892 C888 0.950 . S
C893 C891 1.390 . S
C893 C894 1.387 . S
C893 H896 0.950 . S
C894 C893 1.387 . S
C894 C897 1.387 . S
H895 C891 0.950 . S
H896 C893 0.950 . S
C897 C888 1.390 . S
C897 H890 0.950 . S
C897 C894 1.387 . S
C898 C899 1.387 . S
C898 H902 0.950 . S
C898 C907 1.390 . S
C899 C898 1.387 . S
C899 C901 1.387 . S
H900 C907 0.950 . S
C901 C899 1.387 . S
C901 C903 1.390 . S
C901 H905 0.950 . S
H902 C898 0.950 . S
C903 C901 1.390 . S
C903 C904 1.387 . S
C903 H906 0.950 . S
C904 C903 1.387 . S
C904 C907 1.387 . S
H905 C901 0.950 . S
H906 C903 0.950 . S
C907 C898 1.390 . S
C907 H900 0.950 . S
C907 C904 1.387 . S
C908 C909 1.387 . S
C908 H912 0.950 . S
C908 C917 1.390 . S
C909 C908 1.387 . S
C909 C911 1.387 . S
H910 C917 0.950 . S
C911 C909 1.387 . S
C911 C913 1.390 . S
C911 H915 0.950 . S
H912 C908 0.950 . S
C913 C911 1.390 . S
C913 C914 1.387 . S
C913 H916 0.950 . S
C914 C913 1.387 . S
C914 C917 1.387 . S
H915 C911 0.950 . S
H916 C913 0.950 . S
C917 C908 1.390 . S
C917 H910 0.950 . S
C917 C914 1.387 . S
C918 C919 1.387 . S
C918 H922 0.950 . S
C918 C927 1.390 . S
C919 C918 1.387 . S
C919 C921 1.387 . S
H920 C927 0.950 . S
C921 C919 1.387 . S
C921 C923 1.390 . S
C921 H925 0.950 . S
H922 C918 0.950 . S
C923 C921 1.390 . S
C923 C924 1.387 . S
C923 H926 0.950 . S
C924 C923 1.387 . S
C924 C927 1.387 . S
H925 C921 0.950 . S
H926 C923 0.950 . S
C927 C918 1.390 . S
C927 H920 0.950 . S
C927 C924 1.387 . S
C529 N134 1.582 . S
C534 N2 1.582 . S
C539 N167 1.583 . S
C544 N35 1.583 . S
C549 N68 1.583 . S
C554 N200 1.583 . S
C559 N233 1.583 . S
C564 N101 1.583 . S
C569 N398 1.583 . S
C574 N266 1.583 . S
C579 N299 1.583 . S
C584 N431 1.583 . S
C589 N332 1.583 . S
C594 N464 1.583 . S
C599 N365 1.583 . S
C604 N497 1.583 . S
C609 C7 1.778 . S
C614 C414 1.914 1_545 S
C619 C40 1.773 . S
C624 C447 1.911 . S
C629 C480 1.914 . S
C634 C73 1.778 . S
C639 C106 1.778 . S
C644 C513 1.914 1_455 S
C649 C282 1.911 . S
C654 C139 1.773 . S
C659 C315 1.910 1_455 S
C664 C172 1.773 . S
C669 C205 1.773 . S
C674 C348 1.911 1_545 S
C679 C381 1.914 . S
C684 C238 1.778 . S
C689 C271 1.773 . S
C694 C150 1.910 1_565 S
C699 C304 1.778 . S
C704 C183 1.914 . S
C709 C216 1.911 . S
C714 C337 1.774 . S
C719 C370 1.778 . S
C724 C249 1.914 1_655 S
C729 C403 1.778 . S
C734 C18 1.914 . S
C739 C436 1.773 . S
C744 C51 1.910 1_655 S
C749 C469 1.774 . S
C754 C84 1.911 1_565 S
C759 C117 1.911 . S
C764 C502 1.773 . S
C769 N244 1.911 . S
C774 N13 1.912 . S
C779 N46 1.910 . S
C784 N145 1.911 . S
C789 N178 1.910 . S
C794 N79 1.911 . S
C799 N211 1.912 . S
C804 N112 1.912 . S
C809 N277 1.910 . S
C814 N508 1.912 . S
C819 N409 1.911 . S
C824 N310 1.910 . S
C829 N343 1.912 . S
C834 N442 1.911 . S
C839 N475 1.912 . S
C844 N376 1.911 . S
C849 C87 0.741 . S
C854 C21 0.741 . S
C859 C120 0.741 . S
C864 C54 0.741 . S
C869 C153 0.752 . S
C874 C219 0.752 . S
C879 C252 0.752 . S
C884 C186 0.752 . S
C889 C285 0.741 . S
C894 C351 0.741 . S
C899 C384 0.752 . S
C904 C318 0.752 . S
C909 C417 0.752 . S
C914 C483 0.752 . S
C919 C450 0.741 . S
C924 C516 0.741 . S
