# Generated by pormake.
# Topology sxc, (6)-cn, num edge types: 1
# Building blocks:
#     Node 0, Type 0, BuildingBlock: INOVEN_clean_sbu_0, # of connection points: 6
#     Node 1, Type 0, BuildingBlock: INOVEN_clean_sbu_0, # of connection points: 6
#     Node 2, Type 0, BuildingBlock: INOVEN_clean_sbu_0, # of connection points: 6
#     Edge 3, Type (0, 0), BuildingBlock: UVAHIK_clean_linker_0, # of connection points: 2
#     Edge 4, Type (0, 0), BuildingBlock: UVAHIK_clean_linker_0, # of connection points: 2
#     Edge 5, Type (0, 0), BuildingBlock: UVAHIK_clean_linker_0, # of connection points: 2
#     Edge 6, Type (0, 0), BuildingBlock: UVAHIK_clean_linker_0, # of connection points: 2
#     Edge 7, Type (0, 0), BuildingBlock: UVAHIK_clean_linker_0, # of connection points: 2
#     Edge 8, Type (0, 0), BuildingBlock: UVAHIK_clean_linker_0, # of connection points: 2
#     Edge 9, Type (0, 0), BuildingBlock: UVAHIK_clean_linker_0, # of connection points: 2
#     Edge 10, Type (0, 0), BuildingBlock: UVAHIK_clean_linker_0, # of connection points: 2
#     Edge 11, Type (0, 0), BuildingBlock: UVAHIK_clean_linker_0, # of connection points: 2
# Relax obj value: 0.204
# Max RMSD: 0.145
# Mean RMSD: 0.081
data_MOF--net-sxc--node1-INOVEN_clean_sbu_0--edge1-UVAHIK_clean_linker_0
_symmetry_space_group_name_H-M    P1
_symmetry_Int_Tables_number       1
_symmetry_cell_setting            triclinic
loop_
_symmetry_equiv_pos_as_xyz
'x, y, z'
_cell_length_a     20.94235
_cell_length_b     20.239113
_cell_length_c     57.68584
_cell_angle_alpha  93.731465
_cell_angle_beta   94.160506
_cell_angle_gamma 93.933291
loop_
_atom_site_label
_atom_site_type_symbol
_atom_site_fract_x
_atom_site_fract_y
_atom_site_fract_z
_atom_type_partial_charge
Gd0 Gd 0.23368 0.07888 0.99326 0.0
Gd1 Gd 1.09602 0.07785 -0.00052 0.0
C2 C 0.16702 0.21973 -0.00092 0.0
C3 C 0.3487 0.09642 0.98002 0.0
C4 C 0.39155 0.15249 0.9745 0.0
C5 C 0.45801 0.14788 0.97707 0.0
C6 C 0.36695 0.21163 0.96774 0.0
C7 C 0.47538 0.26286 0.96773 0.0
C8 C 0.40855 0.26649 0.9644 0.0
C9 C 0.49968 0.20257 0.97366 0.0
C10 C 0.20413 0.06957 0.03801 0.0
C11 C 0.16295 0.93618 0.99362 0.0
C12 C 0.98082 0.05635 0.01195 0.0
C13 C 0.93633 0.99664 0.01087 0.0
C14 C 0.87274 0.99926 0.00176 0.0
C15 C 0.95836 0.93552 0.01675 0.0
C16 C 0.85507 0.8794 0.0028 0.0
C17 C 0.91827 0.87745 0.01266 0.0
C18 C 0.83231 0.94114 -0.00218 0.0
C19 C 1.12471 0.08767 0.9547 0.0
O20 O 0.21371 0.18762 0.99023 0.0
O21 O 1.11849 0.18686 0.00756 0.0
O22 O 0.33623 0.09505 0.00185 0.0
O23 O 0.29795 0.08149 0.96559 0.0
O24 O 0.24628 1.03531 0.02827 0.0
O25 O 0.18017 0.1077 0.02382 0.0
O26 O 1.11388 0.96793 0.00076 0.0
O27 O 0.21406 0.96914 0.98698 0.0
O28 O 0.99323 0.07775 0.99176 0.0
O29 O 1.03207 0.05747 0.02642 0.0
O30 O 1.0816 0.12026 0.96451 0.0
O31 O 0.14941 0.04961 0.96878 0.0
H32 H 0.47767 0.10237 0.98218 0.0
H33 H 0.31567 0.21583 0.96552 0.0
H34 H 0.38833 0.3124 0.96009 0.0
H35 H 0.55094 0.19801 0.97602 0.0
H36 H 0.85489 0.04602 -0.00288 0.0
H37 H 1.00719 0.93226 0.02387 0.0
H38 H 0.9377 0.83077 0.01645 0.0
H39 H 0.78355 0.94447 0.99058 0.0
Gd40 Gd 1.0744 0.08389 0.32851 0.0
Gd41 Gd 0.2068 0.10077 0.33232 0.0
C42 C 0.14283 0.23195 0.32654 0.0
C43 C 0.9564 0.08909 0.338 0.0
C44 C 0.92863 0.07152 0.35955 0.0
C45 C 0.86748 0.08965 0.36423 0.0
C46 C 0.96652 0.04267 0.3767 0.0
C47 C 0.883 0.05231 0.4035 0.0
C48 C 0.94394 1.03308 0.39851 0.0
C49 C 0.84464 0.07977 0.38599 0.0
C50 C 1.11958 0.07038 0.28542 0.0
C51 C 0.14223 0.95215 0.33133 0.0
C52 C 0.32886 0.09162 0.33632 0.0
C53 C 0.3657 0.06233 0.35544 0.0
C54 C 0.40257 0.10431 0.37245 0.0
C55 C 0.35712 0.99409 0.35883 0.0
C56 C 0.41877 1.01136 0.39634 0.0
C57 C 0.3838 0.96883 0.37903 0.0
C58 C 0.42847 0.07918 0.39275 0.0
C59 C 0.15585 0.11063 0.37478 0.0
O60 O 1.09447 0.19656 0.33429 0.0
O61 O 0.19198 0.20112 0.31953 0.0
O62 O 0.99808 0.14038 0.34078 0.0
O63 O 0.97625 0.04008 0.32522 0.0
O64 O 1.07091 1.03582 0.29206 0.0
O65 O 0.14064 0.11382 0.30133 0.0
O66 O 0.18991 0.98904 0.32395 0.0
O67 O 1.09317 0.98167 0.33904 0.0
O68 O 0.30236 0.14588 0.34246 0.0
O69 O 0.29029 0.05092 0.32234 0.0
O70 O 0.19945 0.1517 0.36823 0.0
O71 O 0.14037 0.06697 0.35854 0.0
H72 H 0.83791 0.11243 0.35125 0.0
H73 H 1.01426 1.02905 0.37336 0.0
H74 H 0.97466 1.01203 0.41158 0.0
H75 H 0.79676 0.09359 0.38906 0.0
H76 H 0.40972 0.15706 0.37036 0.0
H77 H 0.32839 0.96033 0.34622 0.0
H78 H 0.37619 0.91624 0.38131 0.0
H79 H 0.45667 0.11274 0.40558 0.0
Gd80 Gd 0.13534 1.00218 0.66687 0.0
Gd81 Gd 0.13805 0.14169 0.6598 0.0
C82 C 0.99548 0.07192 0.66167 0.0
C83 C 1.11337 0.88569 0.68161 0.0
C84 C 1.05606 0.83968 0.67911 0.0
C85 C 1.0058 0.84985 0.66263 0.0
C86 C 1.04978 0.78757 0.69378 0.0
C87 C 0.94254 0.75638 0.67565 0.0
C88 C 0.99325 0.74605 0.69207 0.0
C89 C 0.94951 0.80856 0.6609 0.0
C90 C 0.1328 1.02727 0.62118 0.0
C91 C 0.27795 0.07162 0.6647 0.0
C92 C 0.15974 0.25921 0.64586 0.0
C93 C 0.21582 0.30669 0.64959 0.0
C94 C 0.26514 0.29619 0.66641 0.0
C95 C 0.2216 0.36115 0.63595 0.0
C96 C 0.32656 0.39407 0.65573 0.0
C97 C 0.27676 0.40469 0.63898 0.0
C98 C 0.32006 0.33956 0.66948 0.0
C99 C 0.13879 0.11638 0.70535 0.0
O100 O 1.02729 1.02137 0.66902 0.0
O101 O 1.02873 0.12336 0.65414 0.0
O102 O 0.14043 0.89585 0.66232 0.0
O103 O 1.10801 0.94055 0.69436 0.0
O104 O 0.164 0.98111 0.63032 0.0
O105 O 1.1016 0.05596 0.63629 0.0
O106 O 0.2462 0.1227 0.65778 0.0
O107 O 0.24474 1.01963 0.67185 0.0
O108 O 1.13017 0.24755 0.66451 0.0
O109 O 0.16815 0.20507 0.63317 0.0
O110 O 1.10676 0.16135 0.69587 0.0
O111 O 0.17148 0.08824 0.69054 0.0
H112 H 1.00978 0.89035 0.6513 0.0
H113 H 1.08821 0.77948 0.70666 0.0
H114 H 0.98917 0.70596 0.70355 0.0
H115 H 0.91083 0.81849 0.64839 0.0
H116 H 0.26145 0.25395 0.67698 0.0
H117 H 0.18385 0.3696 0.62285 0.0
H118 H 0.2805 0.44656 0.62826 0.0
H119 H 0.35812 0.32948 0.68222 0.0
C120 C 0.21999 0.33101 0.99102 0.0
C121 C 0.16806 0.29353 -0.00093 0.0
C122 C 0.21961 0.40024 0.99046 0.0
C123 C 1.10893 0.53664 0.99014 0.0
H124 H 0.26425 0.6496 0.00743 0.0
C125 C 1.10878 0.82449 0.0007 0.0
C126 C 0.16167 0.86228 0.99346 0.0
C127 C 1.1091 0.75525 0.00123 0.0
C128 C 0.22053 0.61888 0.00225 0.0
H129 H 1.07511 0.30035 0.01306 0.0
H130 H 1.07468 0.42042 0.01223 0.0
H131 H 0.26637 0.52961 0.00864 0.0
H132 H 0.25618 0.85579 0.98071 0.0
H133 H 0.25636 0.73579 0.98128 0.0
H134 H 1.0631 0.62581 0.98364 0.0
C135 C 1.11549 0.39635 0.00606 0.0
C136 C 0.22178 0.54984 0.00296 0.0
C137 C 1.11597 0.32728 0.0067 0.0
C138 C 0.21458 0.82871 0.98649 0.0
C139 C 0.2149 0.7596 0.987 0.0
C140 C 1.1077 0.60567 0.98937 0.0
C141 C 0.16713 0.43389 -0.00215 0.0
C142 C 0.16599 0.50766 -0.00306 0.0
C143 C 0.16238 0.72176 0.99451 0.0
C144 C 0.16349 0.64792 0.99541 0.0
H145 H 0.26096 0.30694 0.98502 0.0
H146 H 0.26001 0.42724 0.98382 0.0
H147 H 1.06521 0.50584 0.98501 0.0
H148 H 1.06717 0.84834 0.00617 0.0
H149 H 1.06796 0.72816 0.00735 0.0
C150 C 0.48881 0.93186 0.41472 0.0
C151 C 0.44981 0.98486 0.41728 0.0
C152 C 0.53053 0.91682 0.43324 0.0
C153 C 0.61956 1.01682 0.48231 0.0
H154 H 0.73157 0.88132 0.46476 0.0
C155 C 0.86562 0.98325 0.43758 0.0
C156 C 0.85797 0.04243 0.42655 0.0
C157 C 0.82963 0.96823 0.45634 0.0
C158 C 0.70193 0.91968 0.47071 0.0
H159 H 0.41589 0.05696 0.442 0.0
H160 H 0.48669 1.02907 0.47479 0.0
H161 H 0.61756 0.85494 0.46232 0.0
H162 H 0.81596 0.13717 0.42909 0.0
H163 H 0.7511 0.11052 0.46022 0.0
H164 H 0.70404 0.08053 0.49186 0.0
C165 C 0.48804 1.00107 0.45823 0.0
C166 C 0.6356 0.90458 0.46885 0.0
C167 C 0.44715 1.01704 0.43947 0.0
C168 C 0.82058 0.08981 0.43656 0.0
C169 C 0.78407 0.07458 0.45497 0.0
C170 C 0.68598 1.03081 0.48543 0.0
C171 C 0.53401 0.95426 0.45492 0.0
C172 C 0.594 0.95605 0.47086 0.0
C173 C 0.78415 1.01137 0.46399 0.0
C174 C 0.72701 0.98587 0.47586 0.0
H175 H 0.49144 0.9059 0.39783 0.0
H176 H 0.56427 0.88022 0.42947 0.0
H177 H 0.58978 0.05729 0.48586 0.0
H178 H 0.89546 0.94625 0.43065 0.0
H179 H 0.83378 0.92042 0.46346 0.0
C180 C 0.85015 0.69305 0.65245 0.0
C181 C 0.88149 0.71463 0.67425 0.0
C182 C 0.78995 0.65857 0.651 0.0
C183 C 0.67912 0.56083 0.68419 0.0
H184 H 0.54981 0.615 0.63909 0.0
C185 C 0.41554 0.45808 0.68063 0.0
C186 C 0.38642 0.43786 0.65836 0.0
C187 C 0.47468 0.49489 0.68311 0.0
C188 C 0.58557 0.59901 0.65163 0.0
H189 H 0.8752 0.71593 0.71163 0.0
H190 H 0.76981 0.65517 0.70909 0.0
H191 H 0.65741 0.67063 0.64236 0.0
H192 H 0.39566 0.44098 0.62125 0.0
H193 H 0.49907 0.50534 0.62556 0.0
H194 H 0.6074 0.48886 0.69334 0.0
C195 C 0.79211 0.66462 0.69315 0.0
C196 C 0.64711 0.63073 0.65347 0.0
C197 C 0.85241 0.69922 0.6946 0.0
C198 C 0.41664 0.45667 0.63862 0.0
C199 C 0.47582 0.49344 0.6411 0.0
C200 C 0.61756 0.52902 0.68232 0.0
C201 C 0.75994 0.64492 0.67132 0.0
C202 C 0.69456 0.61167 0.66967 0.0
C203 C 0.5058 0.51214 0.66336 0.0
C204 C 0.57029 0.5476 0.66594 0.0
H205 H 0.872 0.70329 0.63648 0.0
H206 H 0.76674 0.64277 0.63396 0.0
H207 H 0.715 0.54475 0.69665 0.0
H208 H 0.39277 0.44503 0.69614 0.0
H209 H 0.49619 0.50965 0.70048 0.0
C210 C 0.88743 0.12507 0.65463 0.0
C211 C 0.92166 0.07094 0.66175 0.0
C212 C 0.81944 0.12509 0.65496 0.0
C213 C 0.66601 1.01205 0.66067 0.0
H214 H 0.58734 0.1789 0.66807 0.0
C215 C 0.38592 1.01818 0.67151 0.0
C216 C 0.35176 0.07256 0.66459 0.0
C217 C 0.45391 1.01812 0.67119 0.0
C218 C 0.60746 0.13134 0.66566 0.0
H219 H 0.90711 0.97361 0.67484 0.0
H220 H 0.79038 0.97359 0.67561 0.0
H221 H 0.70339 0.17819 0.66751 0.0
H222 H 0.36645 0.17028 0.65183 0.0
H223 H 0.48315 0.17022 0.65102 0.0
H224 H 0.5701 0.96519 0.6588 0.0
C225 C 0.8158 1.01651 0.66942 0.0
C226 C 0.67548 0.13091 0.66533 0.0
C227 C 0.88392 1.01658 0.66913 0.0
C228 C 0.38958 0.12712 0.65739 0.0
C229 C 0.4577 0.12713 0.65708 0.0
C230 C 0.59798 1.01248 0.66099 0.0
C231 C 0.78132 0.07089 0.6624 0.0
C232 C 0.70705 0.07125 0.66282 0.0
C233 C 0.49212 0.07252 0.66392 0.0
C234 C 0.5664 0.07214 0.6635 0.0
H235 H 0.91334 0.16818 0.64873 0.0
H236 H 0.79681 0.16799 0.64896 0.0
H237 H 0.68616 0.9645 0.65828 0.0
H238 H 0.35997 0.9749 0.67728 0.0
H239 H 0.47646 0.97504 0.67705 0.0
C240 C 0.81685 0.76427 0.0116 0.0
C241 C 0.81436 0.81683 -0.00313 0.0
C242 C 0.78202 0.70382 0.00529 0.0
C243 C 0.64213 0.62704 0.96987 0.0
H244 H 0.72736 0.46486 0.97777 0.0
C245 C 0.50882 0.36804 0.94954 0.0
C246 C 0.51933 0.32297 0.96672 0.0
C247 C 0.54787 0.42699 0.94982 0.0
C248 C 0.70282 0.50969 0.97555 0.0
H249 H 0.77267 0.8471 0.964 0.0
H250 H 0.7104 0.74167 0.95332 0.0
H251 H 0.78845 0.57199 0.9854 0.0
H252 H 0.57899 0.30428 -0.0024 0.0
H253 H 0.64667 0.40665 -0.00187 0.0
H254 H 0.55596 0.56491 0.96081 0.0
C255 C 0.73957 0.7476 0.96971 0.0
C256 C 0.73778 0.57091 0.97991 0.0
C257 C 0.77493 0.808 0.97592 0.0
C258 C 0.5704 0.33733 0.98385 0.0
C259 C 0.60926 0.39609 0.98415 0.0
C260 C 0.60696 0.56572 0.96565 0.0
C261 C 0.74348 0.69475 0.98422 0.0
C262 C 0.70748 0.63012 0.97758 0.0
C263 C 0.59807 0.44192 0.9673 0.0
C264 C 0.63669 0.50644 0.96895 0.0
H265 H 0.84575 0.76979 0.02805 0.0
H266 H 0.78486 0.66421 0.017 0.0
H267 H 0.61762 0.67206 0.96804 0.0
H268 H 0.47022 0.35791 0.93597 0.0
H269 H 0.53855 0.46103 0.93645 0.0
C270 C 1.09048 0.33913 0.33423 0.0
C271 C 0.14231 0.30572 0.32624 0.0
C272 C 1.09074 0.4086 0.33453 0.0
C273 C 0.20057 0.56172 0.33347 0.0
H274 H 1.04284 0.64442 0.31821 0.0
C275 C 0.19595 0.84597 0.32299 0.0
C276 C 0.14364 0.87839 0.33108 0.0
C277 C 0.19639 0.77645 0.32239 0.0
C278 C 1.08729 0.62239 0.32281 0.0
H279 H 0.23501 0.31995 0.3121 0.0
H280 H 0.23521 0.4406 0.31239 0.0
H281 H 1.04214 0.52383 0.31699 0.0
H282 H 1.05102 0.86244 0.34515 0.0
H283 H 1.05204 0.74198 0.34433 0.0
H284 H 0.24569 0.66036 0.33931 0.0
C285 C 0.19457 0.41327 0.31875 0.0
C286 C 1.08688 0.55289 0.32211 0.0
C287 C 0.19426 0.34379 0.31843 0.0
C288 C 1.09205 0.83938 0.3387 0.0
C289 C 1.09244 0.76997 0.33808 0.0
C290 C 0.20098 0.63127 0.33418 0.0
C291 C 0.1429 0.44689 0.32687 0.0
C292 C 0.14348 0.52134 0.32746 0.0
C293 C 0.14448 0.73726 0.32983 0.0
C294 C 0.14431 0.6628 0.32891 0.0
H295 H 1.04972 0.31167 0.34048 0.0
H296 H 1.0504 0.43237 0.3412 0.0
H297 H 0.245 0.53965 0.33808 0.0
H298 H 0.23653 0.87424 0.31696 0.0
H299 H 0.23706 0.75338 0.31568 0.0
C300 C 0.15481 0.13056 0.25103 0.0
C301 C 0.13337 0.07163 0.26054 0.0
C302 C 0.16244 0.13174 0.22703 0.0
C303 C 1.1202 1.02848 0.17009 0.0
H304 H 0.23904 0.15821 0.14638 0.0
C305 C 0.20831 1.01643 0.07611 0.0
C306 C 0.1934 0.0707 0.06322 0.0
C307 C 0.19966 1.0175 0.10001 0.0
C308 C 0.20549 0.12188 0.1528 0.0
H309 H 1.10594 0.96723 0.25264 0.0
H310 H 1.12337 0.96766 0.21147 0.0
H311 H 0.23007 0.15696 0.18831 0.0
H312 H 0.15816 0.1689 0.06532 0.0
H313 H 0.14548 0.17177 0.10743 0.0
H314 H 1.09864 0.99161 0.1344 0.0
C315 C 0.13122 1.01421 0.22194 0.0
C316 C 0.19981 0.12129 0.17692 0.0
C317 C 1.12192 1.01356 0.24575 0.0
C318 C 0.1699 0.12628 0.07478 0.0
C319 C 0.1629 0.12807 0.09886 0.0
C320 C 1.12721 1.02808 0.14609 0.0
C321 C 0.15042 0.07356 0.21196 0.0
C322 C 0.15695 0.07455 0.18607 0.0
C323 C 0.17752 0.07358 0.11169 0.0
C324 C 0.16972 0.07486 0.13718 0.0
H325 H 0.16354 0.17628 0.26199 0.0
H326 H 0.17625 0.17888 0.22034 0.0
H327 H 1.08519 0.99277 0.17596 0.0
H328 H 0.22635 0.97287 0.06766 0.0
H329 H 0.21129 0.97487 0.10949 0.0
C330 C 1.12763 0.04164 0.4078 0.0
C331 C 0.14324 0.10404 0.39956 0.0
C332 C 1.12072 1.03506 0.43158 0.0
C333 C 0.15873 0.12848 0.49031 0.0
H334 H 1.05531 0.9808 0.51115 0.0
C335 C 1.10365 0.09525 0.58736 0.0
C336 C 1.12709 1.03719 0.59581 0.0
C337 C 1.10134 0.10524 0.56344 0.0
C338 C 1.08425 1.02237 0.50554 0.0
H339 H 0.16133 0.20881 0.40957 0.0
H340 H 0.14568 0.19849 0.45065 0.0
H341 H 1.05621 0.99616 0.46956 0.0
H342 H 0.16461 0.94329 0.58568 0.0
H343 H 0.1579 0.95958 0.54389 0.0
H344 H 0.18442 0.15556 0.52661 0.0
C345 C 0.14142 0.15373 0.43916 0.0
C346 C 1.08544 1.03099 0.48162 0.0
C347 C 0.14978 0.15998 0.41547 0.0
C348 C 0.14647 0.98864 0.57975 0.0
C349 C 0.14248 0.9978 0.55582 0.0
C350 C 0.15615 0.12072 0.51423 0.0
C351 C 1.12795 0.09097 0.44779 0.0
C352 C 1.12351 0.08368 0.4735 0.0
C353 C 1.12058 0.05648 0.54742 0.0
C354 C 1.1196 0.06712 0.52209 0.0
H355 H 1.12279 0.99746 0.39596 0.0
H356 H 1.11151 0.9856 0.43722 0.0
H357 H 0.18987 0.16887 0.48513 0.0
H358 H 1.0881 0.13341 0.59927 0.0
H359 H 1.08414 0.15088 0.5574 0.0
C360 C 0.18247 0.06246 0.74105 0.0
C361 C 0.14381 0.10864 0.73089 0.0
C362 C 0.18682 0.05736 0.76535 0.0
C363 C 0.16061 0.15434 0.82054 0.0
H364 H 0.15351 0.98455 0.84806 0.0
C365 C 1.10308 0.13282 0.91585 0.0
C366 C 0.13483 0.08818 0.92945 0.0
C367 C 1.1104 0.13362 0.89196 0.0
C368 C 0.15648 1.03244 0.8407 0.0
H369 H 1.07849 0.18453 0.73823 0.0
H370 H 1.08582 0.17567 0.78011 0.0
H371 H 0.15488 0.98827 0.80572 0.0
H372 H 0.19961 1.00928 0.92857 0.0
H373 H 0.21276 1.0107 0.8866 0.0
H374 H 0.16165 0.1987 0.85526 0.0
C375 C 1.11372 0.14401 0.76958 0.0
C376 C 0.15724 1.03456 0.81638 0.0
C377 C 1.10919 0.14883 0.74546 0.0
C378 C 0.1745 0.04429 0.91855 0.0
C379 C 0.1817 0.04488 0.89448 0.0
C380 C 0.15992 0.15224 0.84472 0.0
C381 C 0.15295 0.09868 0.77997 0.0
C382 C 0.15795 0.09558 0.80593 0.0
C383 C 0.14979 0.08977 0.88085 0.0
C384 C 0.15648 0.0913 0.85517 0.0
H385 H 0.20956 1.03062 0.73027 0.0
H386 H 0.21762 1.02198 0.77272 0.0
H387 H 0.16282 0.20235 0.81325 0.0
H388 H 1.07203 0.1672 0.92366 0.0
H389 H 1.08413 0.16811 0.88209 0.0
loop_
_geom_bond_atom_site_label_1
_geom_bond_atom_site_label_2
_geom_bond_distance
_geom_bond_site_symmetry_2
_ccdc_geom_bond_type
Gd0 C3 2.818 . S
Gd0 O20 2.377 . S
Gd0 O22 2.448 . S
Gd0 O23 2.506 1_554 S
Gd0 O24 2.435 . S
Gd0 O25 2.718 . S
Gd0 O27 2.395 1_545 S
Gd0 O31 2.327 1_554 S
Gd1 C12 2.818 . S
Gd1 O21 2.395 1_565 S
Gd1 O25 2.328 1_665 S
Gd1 O26 2.384 . S
Gd1 O28 2.448 1_554 S
Gd1 O29 2.506 . S
Gd1 O30 2.435 1_554 S
Gd1 O31 2.717 1_664 S
C2 O20 1.240 . S
C2 O21 1.240 1_455 S
C3 Gd0 2.818 . S
C3 C4 1.510 . S
C3 O22 1.249 . S
C3 O23 1.252 1_554 S
C4 C3 1.510 . S
C4 C5 1.404 . S
C4 C6 1.352 1_554 S
C5 C4 1.404 . S
C5 C9 1.389 . S
C5 H32 0.930 . S
C6 C4 1.352 1_556 S
C6 C8 1.374 . S
C6 H33 0.931 . S
C7 C8 1.359 1_554 S
C7 C9 1.364 . S
C8 C6 1.374 . S
C8 C7 1.359 1_556 S
C8 H34 0.931 . S
C9 C5 1.389 . S
C9 C7 1.364 . S
C9 H35 0.931 . S
C10 O24 1.256 . S
C10 O25 1.258 . S
C11 O26 1.258 1_455 S
C11 O27 1.240 . S
C12 Gd1 2.818 . S
C12 C13 1.510 . S
C12 O28 1.249 1_554 S
C12 O29 1.252 . S
C13 C12 1.510 . S
C13 C14 1.404 1_554 S
C13 C15 1.352 . S
C14 C13 1.404 1_556 S
C14 C18 1.389 . S
C14 H36 0.930 . S
C15 C13 1.352 . S
C15 C17 1.374 . S
C15 H37 0.931 . S
C16 C17 1.359 . S
C16 C18 1.364 1_554 S
C17 C15 1.374 . S
C17 C16 1.359 . S
C17 H38 0.931 . S
C18 C14 1.389 . S
C18 C16 1.364 1_556 S
C18 H39 0.931 . S
C19 O30 1.256 1_445 S
C19 O31 1.257 . S
O20 Gd0 2.377 . S
O20 C2 1.240 . S
O21 Gd1 2.395 1_545 S
O21 C2 1.240 1_655 S
O22 Gd0 2.448 . S
O22 C3 1.249 . S
O23 Gd0 2.506 1_556 S
O23 C3 1.252 1_556 S
O24 Gd0 2.435 . S
O24 C10 1.256 . S
O25 Gd0 2.718 . S
O25 Gd1 2.328 1_445 S
O25 C10 1.258 . S
O26 Gd1 2.384 . S
O26 C11 1.258 1_655 S
O27 Gd0 2.395 1_565 S
O27 C11 1.240 . S
O28 Gd1 2.448 1_556 S
O28 C12 1.249 1_556 S
O29 Gd1 2.506 . S
O29 C12 1.252 . S
O30 Gd1 2.435 1_556 S
O30 C19 1.256 1_665 S
O31 Gd0 2.327 1_556 S
O31 Gd1 2.717 1_446 S
O31 C19 1.257 . S
H32 C5 0.930 . S
H33 C6 0.931 . S
H34 C8 0.931 . S
H35 C9 0.931 . S
H36 C14 0.930 . S
H37 C15 0.931 . S
H38 C17 0.931 . S
H39 C18 0.931 . S
Gd40 C43 2.818 1_565 S
Gd40 O60 2.377 1_565 S
Gd40 O62 2.448 1_565 S
Gd40 O63 2.506 1_565 S
Gd40 O64 2.435 . S
Gd40 O65 2.717 1_665 S
Gd40 O67 2.395 . S
Gd40 O71 2.327 1_565 S
Gd41 C52 2.818 . S
Gd41 O61 2.395 . S
Gd41 O65 2.327 . S
Gd41 O66 2.377 1_545 S
Gd41 O68 2.448 . S
Gd41 O69 2.506 . S
Gd41 O70 2.435 . S
Gd41 O71 2.717 1_455 S
C42 O60 1.240 . S
C42 O61 1.240 1_655 S
C43 Gd40 2.818 1_545 S
C43 C44 1.510 . S
C43 O62 1.249 . S
C43 O63 1.252 . S
C44 C43 1.510 . S
C44 C45 1.404 . S
C44 C46 1.352 . S
C45 C44 1.404 . S
C45 C49 1.389 . S
C45 H72 0.930 . S
C46 C44 1.352 . S
C46 C48 1.374 . S
C46 H73 0.931 . S
C47 C48 1.359 . S
C47 C49 1.364 . S
C48 C46 1.374 . S
C48 C47 1.359 . S
C48 H74 0.931 . S
C49 C45 1.389 . S
C49 C47 1.364 . S
C49 H75 0.931 . S
C50 O64 1.256 1_545 S
C50 O65 1.257 1_655 S
C51 O66 1.240 . S
C51 O67 1.240 1_455 S
C52 Gd41 2.818 . S
C52 C53 1.510 1_545 S
C52 O68 1.249 . S
C52 O69 1.252 . S
C53 C52 1.510 1_565 S
C53 C54 1.404 1_565 S
C53 C55 1.352 . S
C54 C53 1.404 1_545 S
C54 C58 1.389 1_545 S
C54 H76 0.930 . S
C55 C53 1.352 . S
C55 C57 1.374 . S
C55 H77 0.931 . S
C56 C57 1.359 . S
C56 C58 1.364 . S
C57 C55 1.374 . S
C57 C56 1.359 . S
C57 H78 0.931 . S
C58 C54 1.389 1_565 S
C58 C56 1.364 . S
C58 H79 0.931 . S
C59 O70 1.256 . S
C59 O71 1.257 1_455 S
O60 Gd40 2.377 1_545 S
O60 C42 1.240 . S
O61 Gd41 2.395 . S
O61 C42 1.240 1_455 S
O62 Gd40 2.448 1_545 S
O62 C43 1.249 . S
O63 Gd40 2.506 1_545 S
O63 C43 1.252 . S
O64 Gd40 2.435 . S
O64 C50 1.256 1_565 S
O65 Gd40 2.717 1_445 S
O65 Gd41 2.327 . S
O65 C50 1.257 1_455 S
O66 Gd41 2.377 1_565 S
O66 C51 1.240 . S
O67 Gd40 2.395 . S
O67 C51 1.240 1_655 S
O68 Gd41 2.448 . S
O68 C52 1.249 . S
O69 Gd41 2.506 . S
O69 C52 1.252 . S
O70 Gd41 2.435 . S
O70 C59 1.256 . S
O71 Gd40 2.327 1_545 S
O71 Gd41 2.717 1_655 S
O71 C59 1.257 1_655 S
H72 C45 0.930 . S
H73 C46 0.931 . S
H74 C48 0.931 . S
H75 C49 0.931 . S
H76 C54 0.930 . S
H77 C55 0.931 . S
H78 C57 0.931 . S
H79 C58 0.931 . S
Gd80 C83 2.818 . S
Gd80 O100 2.377 1_565 S
Gd80 O102 2.448 . S
Gd80 O103 2.506 . S
Gd80 O104 2.435 . S
Gd80 O105 2.717 1_665 S
Gd80 O107 2.395 1_665 S
Gd80 O111 2.327 1_665 S
Gd81 C92 2.818 . S
Gd81 O101 2.395 1_455 S
Gd81 O105 2.327 . S
Gd81 O106 2.377 . S
Gd81 O108 2.448 . S
Gd81 O109 2.506 . S
Gd81 O110 2.435 . S
Gd81 O111 2.717 . S
C82 O100 1.240 . S
C82 O101 1.240 . S
C83 Gd80 2.818 . S
C83 C84 1.510 . S
C83 O102 1.249 . S
C83 O103 1.252 . S
C84 C83 1.510 . S
C84 C85 1.404 . S
C84 C86 1.352 . S
C85 C84 1.404 . S
C85 C89 1.389 . S
C85 H112 0.930 . S
C86 C84 1.352 . S
C86 C88 1.374 . S
C86 H113 0.931 . S
C87 C88 1.359 . S
C87 C89 1.364 . S
C88 C86 1.374 . S
C88 C87 1.359 . S
C88 H114 0.931 . S
C89 C85 1.389 . S
C89 C87 1.364 . S
C89 H115 0.931 . S
C90 O104 1.256 1_445 S
C90 O105 1.257 . S
C91 O106 1.240 . S
C91 O107 1.240 . S
C92 Gd81 2.818 . S
C92 C93 1.510 . S
C92 O108 1.249 . S
C92 O109 1.252 . S
C93 C92 1.510 . S
C93 C94 1.404 . S
C93 C95 1.352 . S
C94 C93 1.404 . S
C94 C98 1.389 . S
C94 H116 0.930 . S
C95 C93 1.352 . S
C95 C97 1.374 . S
C95 H117 0.931 . S
C96 C97 1.359 . S
C96 C98 1.364 . S
C97 C95 1.374 . S
C97 C96 1.359 . S
C97 H118 0.931 . S
C98 C94 1.389 . S
C98 C96 1.364 . S
C98 H119 0.931 . S
C99 O110 1.256 . S
C99 O111 1.257 . S
O100 Gd80 2.377 1_545 S
O100 C82 1.240 . S
O101 Gd81 2.395 1_655 S
O101 C82 1.240 . S
O102 Gd80 2.448 . S
O102 C83 1.249 . S
O103 Gd80 2.506 . S
O103 C83 1.252 . S
O104 Gd80 2.435 . S
O104 C90 1.256 1_665 S
O105 Gd80 2.717 1_445 S
O105 Gd81 2.327 . S
O105 C90 1.257 . S
O106 Gd81 2.377 . S
O106 C91 1.240 . S
O107 Gd80 2.395 1_445 S
O107 C91 1.240 . S
O108 Gd81 2.448 . S
O108 C92 1.249 . S
O109 Gd81 2.506 . S
O109 C92 1.252 . S
O110 Gd81 2.435 . S
O110 C99 1.256 . S
O111 Gd80 2.327 1_445 S
O111 Gd81 2.717 . S
O111 C99 1.257 . S
H112 C85 0.930 . S
H113 C86 0.931 . S
H114 C88 0.931 . S
H115 C89 0.931 . S
H116 C94 0.930 . S
H117 C95 0.931 . S
H118 C97 0.931 . S
H119 C98 0.931 . S
C120 C121 1.349 . S
C120 C122 1.327 . S
C120 H145 0.950 . S
C121 C120 1.349 . S
C121 C137 1.349 1_554 S
C122 C120 1.327 . S
C122 C141 1.429 . S
C122 H146 0.950 . S
C123 C140 1.574 . S
C123 C142 1.368 1_556 S
C123 H147 0.949 1_455 S
H124 C128 0.949 . S
C125 C126 1.349 1_556 S
C125 C127 1.327 . S
C125 H148 0.950 1_455 S
C126 C125 1.349 1_554 S
C126 C138 1.349 . S
C127 C125 1.327 . S
C127 C143 1.429 1_556 S
C127 H149 0.950 1_455 S
C128 H124 0.949 . S
C128 C136 1.574 . S
C128 C144 1.368 . S
H129 C137 0.950 1_655 S
H130 C135 0.950 1_655 S
H131 C136 0.949 . S
H132 C138 0.950 . S
H133 C139 0.950 . S
H134 C140 0.949 1_655 S
C135 H130 0.950 1_455 S
C135 C137 1.327 . S
C135 C141 1.429 1_556 S
C136 C128 1.574 . S
C136 H131 0.949 . S
C136 C142 1.368 . S
C137 C121 1.349 1_556 S
C137 H129 0.950 1_455 S
C137 C135 1.327 . S
C138 C126 1.349 . S
C138 H132 0.950 . S
C138 C139 1.327 . S
C139 H133 0.950 . S
C139 C138 1.327 . S
C139 C143 1.429 . S
C140 C123 1.574 . S
C140 H134 0.949 1_455 S
C140 C144 1.368 1_556 S
C141 C122 1.429 . S
C141 C135 1.429 1_554 S
C141 C142 1.523 . S
C142 C123 1.368 1_554 S
C142 C136 1.368 . S
C142 C141 1.523 . S
C143 C127 1.429 1_554 S
C143 C139 1.429 . S
C143 C144 1.523 . S
C144 C128 1.368 . S
C144 C140 1.368 1_554 S
C144 C143 1.523 . S
H145 C120 0.950 . S
H146 C122 0.950 . S
H147 C123 0.949 1_655 S
H148 C125 0.950 1_655 S
H149 C127 0.950 1_655 S
C150 C151 1.349 . S
C150 C152 1.327 . S
C150 H175 0.950 . S
C151 C150 1.349 . S
C151 C167 1.349 . S
C152 C150 1.327 . S
C152 C171 1.429 . S
C152 H176 0.950 . S
C153 C170 1.576 . S
C153 C172 1.371 . S
C153 H177 0.945 1_545 S
H154 C158 0.949 . S
C155 C156 1.349 . S
C155 C157 1.327 . S
C155 H178 0.950 . S
C156 C155 1.349 . S
C156 C168 1.349 . S
C157 C155 1.327 . S
C157 C173 1.429 . S
C157 H179 0.950 . S
C158 H154 0.949 . S
C158 C166 1.574 . S
C158 C174 1.368 . S
H159 C167 0.950 . S
H160 C165 0.950 . S
H161 C166 0.949 . S
H162 C168 0.950 . S
H163 C169 0.950 . S
H164 C170 0.949 . S
C165 H160 0.950 . S
C165 C167 1.327 . S
C165 C171 1.429 . S
C166 C158 1.574 . S
C166 H161 0.949 . S
C166 C172 1.369 . S
C167 C151 1.349 . S
C167 H159 0.950 . S
C167 C165 1.327 . S
C168 C156 1.349 . S
C168 H162 0.950 . S
C168 C169 1.327 . S
C169 H163 0.950 . S
C169 C168 1.327 . S
C169 C173 1.429 . S
C170 C153 1.576 . S
C170 H164 0.949 . S
C170 C174 1.368 . S
C171 C152 1.429 . S
C171 C165 1.429 . S
C171 C172 1.523 1_565 S
C172 C153 1.371 . S
C172 C166 1.369 . S
C172 C171 1.523 1_545 S
C173 C157 1.429 . S
C173 C169 1.429 . S
C173 C174 1.523 . S
C174 C158 1.368 . S
C174 C170 1.368 . S
C174 C173 1.523 . S
H175 C150 0.950 . S
H176 C152 0.950 . S
H177 C153 0.945 1_565 S
H178 C155 0.950 . S
H179 C157 0.950 . S
C180 C181 1.349 . S
C180 C182 1.327 . S
C180 H205 0.950 . S
C181 C180 1.349 . S
C181 C197 1.349 . S
C182 C180 1.327 . S
C182 C201 1.429 . S
C182 H206 0.950 . S
C183 C200 1.574 . S
C183 C202 1.368 . S
C183 H207 0.949 . S
H184 C188 0.949 . S
C185 C186 1.349 . S
C185 C187 1.327 . S
C185 H208 0.950 . S
C186 C185 1.349 . S
C186 C198 1.349 . S
C187 C185 1.327 . S
C187 C203 1.429 . S
C187 H209 0.950 . S
C188 H184 0.949 . S
C188 C196 1.574 . S
C188 C204 1.368 . S
H189 C197 0.950 . S
H190 C195 0.950 . S
H191 C196 0.949 . S
H192 C198 0.950 . S
H193 C199 0.950 . S
H194 C200 0.949 . S
C195 H190 0.950 . S
C195 C197 1.327 . S
C195 C201 1.429 . S
C196 C188 1.574 . S
C196 H191 0.949 . S
C196 C202 1.368 . S
C197 C181 1.349 . S
C197 H189 0.950 . S
C197 C195 1.327 . S
C198 C186 1.349 . S
C198 H192 0.950 . S
C198 C199 1.327 . S
C199 H193 0.950 . S
C199 C198 1.327 . S
C199 C203 1.429 . S
C200 C183 1.574 . S
C200 H194 0.949 . S
C200 C204 1.368 . S
C201 C182 1.429 . S
C201 C195 1.429 . S
C201 C202 1.523 . S
C202 C183 1.368 . S
C202 C196 1.368 . S
C202 C201 1.523 . S
C203 C187 1.429 . S
C203 C199 1.429 . S
C203 C204 1.523 . S
C204 C188 1.368 . S
C204 C200 1.368 . S
C204 C203 1.523 . S
H205 C180 0.950 . S
H206 C182 0.950 . S
H207 C183 0.949 . S
H208 C185 0.950 . S
H209 C187 0.950 . S
C210 C211 1.349 . S
C210 C212 1.327 . S
C210 H235 0.950 . S
C211 C210 1.349 . S
C211 C227 1.349 . S
C212 C210 1.327 . S
C212 C231 1.429 . S
C212 H236 0.950 . S
C213 C230 1.574 . S
C213 C232 1.368 . S
C213 H237 0.949 1_545 S
H214 C218 0.949 . S
C215 C216 1.349 . S
C215 C217 1.327 . S
C215 H238 0.950 1_545 S
C216 C215 1.349 . S
C216 C228 1.349 . S
C217 C215 1.327 . S
C217 C233 1.429 . S
C217 H239 0.950 1_545 S
C218 H214 0.949 . S
C218 C226 1.574 . S
C218 C234 1.368 . S
H219 C227 0.950 1_565 S
H220 C225 0.950 1_565 S
H221 C226 0.949 . S
H222 C228 0.950 . S
H223 C229 0.950 . S
H224 C230 0.949 1_565 S
C225 H220 0.950 1_545 S
C225 C227 1.327 . S
C225 C231 1.429 . S
C226 C218 1.574 . S
C226 H221 0.949 . S
C226 C232 1.368 . S
C227 C211 1.349 . S
C227 H219 0.950 1_545 S
C227 C225 1.327 . S
C228 C216 1.349 . S
C228 H222 0.950 . S
C228 C229 1.327 . S
C229 H223 0.950 . S
C229 C228 1.327 . S
C229 C233 1.429 . S
C230 C213 1.574 . S
C230 H224 0.949 1_545 S
C230 C234 1.368 . S
C231 C212 1.429 . S
C231 C225 1.429 . S
C231 C232 1.523 . S
C232 C213 1.368 . S
C232 C226 1.368 . S
C232 C231 1.523 . S
C233 C217 1.429 . S
C233 C229 1.429 . S
C233 C234 1.523 . S
C234 C218 1.368 . S
C234 C230 1.368 . S
C234 C233 1.523 . S
H235 C210 0.950 . S
H236 C212 0.950 . S
H237 C213 0.949 1_565 S
H238 C215 0.950 1_565 S
H239 C217 0.950 1_565 S
C240 C241 1.349 . S
C240 C242 1.327 . S
C240 H265 0.950 . S
C241 C240 1.349 . S
C241 C257 1.349 1_554 S
C242 C240 1.327 . S
C242 C261 1.429 . S
C242 H266 0.950 . S
C243 C260 1.574 . S
C243 C262 1.368 1_556 S
C243 H267 0.949 . S
H244 C248 0.949 . S
C245 C246 1.349 1_556 S
C245 C247 1.327 . S
C245 H268 0.950 . S
C246 C245 1.349 1_554 S
C246 C258 1.349 . S
C247 C245 1.327 . S
C247 C263 1.429 1_556 S
C247 H269 0.950 . S
C248 H244 0.949 . S
C248 C256 1.574 . S
C248 C264 1.368 . S
H249 C257 0.950 . S
H250 C255 0.950 . S
H251 C256 0.949 . S
H252 C258 0.950 . S
H253 C259 0.950 . S
H254 C260 0.949 . S
C255 H250 0.950 . S
C255 C257 1.327 . S
C255 C261 1.429 1_556 S
C256 C248 1.574 . S
C256 H251 0.949 . S
C256 C262 1.368 . S
C257 C241 1.349 1_556 S
C257 H249 0.950 . S
C257 C255 1.327 . S
C258 C246 1.349 . S
C258 H252 0.950 . S
C258 C259 1.327 . S
C259 H253 0.950 . S
C259 C258 1.327 . S
C259 C263 1.429 . S
C260 C243 1.574 . S
C260 H254 0.949 . S
C260 C264 1.368 1_556 S
C261 C242 1.429 . S
C261 C255 1.429 1_554 S
C261 C262 1.523 . S
C262 C243 1.368 1_554 S
C262 C256 1.368 . S
C262 C261 1.523 . S
C263 C247 1.429 1_554 S
C263 C259 1.429 . S
C263 C264 1.523 . S
C264 C248 1.368 . S
C264 C260 1.368 1_554 S
C264 C263 1.523 . S
H265 C240 0.950 . S
H266 C242 0.950 . S
H267 C243 0.949 . S
H268 C245 0.950 . S
H269 C247 0.950 . S
C270 C271 1.349 . S
C270 C272 1.327 . S
C270 H295 0.950 . S
C271 C270 1.349 . S
C271 C287 1.349 1_655 S
C272 C270 1.327 . S
C272 C291 1.429 1_655 S
C272 H296 0.950 . S
C273 C290 1.574 . S
C273 C292 1.368 . S
C273 H297 0.949 . S
H274 C278 0.949 . S
C275 C276 1.349 . S
C275 C277 1.327 . S
C275 H298 0.950 . S
C276 C275 1.349 . S
C276 C288 1.349 1_455 S
C277 C275 1.327 . S
C277 C293 1.429 . S
C277 H299 0.950 . S
C278 H274 0.949 . S
C278 C286 1.574 . S
C278 C294 1.368 1_655 S
H279 C287 0.950 . S
H280 C285 0.950 . S
H281 C286 0.949 . S
H282 C288 0.950 . S
H283 C289 0.950 . S
H284 C290 0.949 . S
C285 H280 0.950 . S
C285 C287 1.327 . S
C285 C291 1.429 . S
C286 C278 1.574 . S
C286 H281 0.949 . S
C286 C292 1.368 1_655 S
C287 C271 1.349 1_455 S
C287 H279 0.950 . S
C287 C285 1.327 . S
C288 C276 1.349 1_655 S
C288 H282 0.950 . S
C288 C289 1.327 . S
C289 H283 0.950 . S
C289 C288 1.327 . S
C289 C293 1.429 1_655 S
C290 C273 1.574 . S
C290 H284 0.949 . S
C290 C294 1.368 . S
C291 C272 1.429 1_455 S
C291 C285 1.429 . S
C291 C292 1.523 . S
C292 C273 1.368 . S
C292 C286 1.368 1_455 S
C292 C291 1.523 . S
C293 C277 1.429 . S
C293 C289 1.429 1_455 S
C293 C294 1.523 . S
C294 C278 1.368 1_455 S
C294 C290 1.368 . S
C294 C293 1.523 . S
H295 C270 0.950 . S
H296 C272 0.950 . S
H297 C273 0.949 . S
H298 C275 0.950 . S
H299 C277 0.950 . S
C300 C301 1.349 . S
C300 C302 1.327 . S
C300 H325 0.950 . S
C301 C300 1.349 . S
C301 C317 1.349 1_445 S
C302 C300 1.327 . S
C302 C321 1.429 . S
C302 H326 0.950 . S
C303 C320 1.574 . S
C303 C322 1.368 1_665 S
C303 H327 0.949 . S
H304 C308 0.949 . S
C305 C306 1.349 1_665 S
C305 C307 1.327 . S
C305 H328 0.950 . S
C306 C305 1.349 1_445 S
C306 C318 1.349 . S
C307 C305 1.327 . S
C307 C323 1.429 1_665 S
C307 H329 0.950 . S
C308 H304 0.949 . S
C308 C316 1.574 . S
C308 C324 1.368 . S
H309 C317 0.950 . S
H310 C315 0.950 . S
H311 C316 0.949 . S
H312 C318 0.950 . S
H313 C319 0.950 . S
H314 C320 0.949 . S
C315 H310 0.950 . S
C315 C317 1.327 . S
C315 C321 1.429 1_665 S
C316 C308 1.574 . S
C316 H311 0.949 . S
C316 C322 1.368 . S
C317 C301 1.349 1_665 S
C317 H309 0.950 . S
C317 C315 1.327 . S
C318 C306 1.349 . S
C318 H312 0.950 . S
C318 C319 1.327 . S
C319 H313 0.950 . S
C319 C318 1.327 . S
C319 C323 1.429 . S
C320 C303 1.574 . S
C320 H314 0.949 . S
C320 C324 1.368 1_665 S
C321 C302 1.429 . S
C321 C315 1.429 1_445 S
C321 C322 1.523 . S
C322 C303 1.368 1_445 S
C322 C316 1.368 . S
C322 C321 1.523 . S
C323 C307 1.429 1_445 S
C323 C319 1.429 . S
C323 C324 1.523 . S
C324 C308 1.368 . S
C324 C320 1.368 1_445 S
C324 C323 1.523 . S
H325 C300 0.950 . S
H326 C302 0.950 . S
H327 C303 0.949 . S
H328 C305 0.950 . S
H329 C307 0.950 . S
C330 C331 1.349 1_565 S
C330 C332 1.327 . S
C330 H355 0.950 . S
C331 C330 1.349 1_545 S
C331 C347 1.354 . S
C332 C330 1.327 . S
C332 C351 1.429 1_565 S
C332 H356 0.950 . S
C333 C350 1.574 . S
C333 C352 1.366 1_655 S
C333 H357 0.950 . S
H334 C338 0.949 . S
C335 C336 1.352 . S
C335 C337 1.328 . S
C335 H358 0.946 1_455 S
C336 C335 1.352 . S
C336 C348 1.349 . S
C337 C335 1.328 . S
C337 C353 1.430 . S
C337 H359 0.949 1_455 S
C338 H334 0.949 . S
C338 C346 1.574 . S
C338 C354 1.368 1_565 S
H339 C347 0.946 1_655 S
H340 C345 0.947 1_655 S
H341 C346 0.949 . S
H342 C348 0.950 1_565 S
H343 C349 0.950 1_565 S
H344 C350 0.951 . S
C345 H340 0.947 1_455 S
C345 C347 1.326 . S
C345 C351 1.430 . S
C346 C338 1.574 . S
C346 H341 0.949 . S
C346 C352 1.368 1_565 S
C347 C331 1.354 . S
C347 H339 0.946 1_455 S
C347 C345 1.326 . S
C348 C336 1.349 . S
C348 H342 0.950 1_545 S
C348 C349 1.327 . S
C349 H343 0.950 1_545 S
C349 C348 1.327 . S
C349 C353 1.429 . S
C350 C333 1.574 . S
C350 H344 0.951 . S
C350 C354 1.367 1_655 S
C351 C332 1.429 1_545 S
C351 C345 1.430 . S
C351 C352 1.523 . S
C352 C333 1.366 1_455 S
C352 C346 1.368 1_545 S
C352 C351 1.523 . S
C353 C337 1.430 . S
C353 C349 1.429 . S
C353 C354 1.523 . S
C354 C338 1.368 1_545 S
C354 C350 1.367 1_455 S
C354 C353 1.523 . S
H355 C330 0.950 . S
H356 C332 0.950 . S
H357 C333 0.950 . S
H358 C335 0.946 1_655 S
H359 C337 0.949 1_655 S
C360 C361 1.349 . S
C360 C362 1.327 . S
C360 H385 0.950 1_545 S
C361 C360 1.349 . S
C361 C377 1.349 . S
C362 C360 1.327 . S
C362 C381 1.429 . S
C362 H386 0.950 1_545 S
C363 C380 1.574 . S
C363 C382 1.368 . S
C363 H387 0.949 . S
H364 C368 0.949 . S
C365 C366 1.349 . S
C365 C367 1.327 . S
C365 H388 0.950 . S
C366 C365 1.349 . S
C366 C378 1.349 1_545 S
C367 C365 1.327 . S
C367 C383 1.429 . S
C367 H389 0.950 . S
C368 H364 0.949 . S
C368 C376 1.574 . S
C368 C384 1.368 1_565 S
H369 C377 0.950 1_655 S
H370 C375 0.950 . S
H371 C376 0.949 . S
H372 C378 0.950 . S
H373 C379 0.950 . S
H374 C380 0.949 . S
C375 H370 0.950 . S
C375 C377 1.327 . S
C375 C381 1.429 . S
C376 C368 1.574 . S
C376 H371 0.949 . S
C376 C382 1.368 1_565 S
C377 C361 1.349 . S
C377 H369 0.950 1_455 S
C377 C375 1.327 . S
C378 C366 1.349 1_565 S
C378 H372 0.950 . S
C378 C379 1.327 . S
C379 H373 0.950 . S
C379 C378 1.327 . S
C379 C383 1.429 1_565 S
C380 C363 1.574 . S
C380 H374 0.949 . S
C380 C384 1.368 . S
C381 C362 1.429 . S
C381 C375 1.429 . S
C381 C382 1.523 . S
C382 C363 1.368 . S
C382 C376 1.368 1_545 S
C382 C381 1.523 . S
C383 C367 1.429 . S
C383 C379 1.429 1_545 S
C383 C384 1.523 . S
C384 C368 1.368 1_545 S
C384 C380 1.368 . S
C384 C383 1.523 . S
H385 C360 0.950 1_565 S
H386 C362 0.950 1_565 S
H387 C363 0.949 . S
H388 C365 0.950 . S
H389 C367 0.950 . S
C121 C2 2.987 . S
C126 C11 2.987 . S
C151 C56 0.856 . S
C156 C47 0.856 . S
C181 C87 0.606 . S
C186 C96 0.606 . S
C211 C82 4.838 . S
C216 C91 4.838 . S
C241 C16 0.594 . S
C246 C7 0.594 . S
C271 C42 3.034 . S
C276 C51 3.034 . S
C301 C50 1.476 1_455 S
C306 C10 1.476 . S
C331 C59 1.467 . S
C336 C90 1.456 . S
C361 C99 1.481 . S
C366 C19 1.468 . S
