# Generated by pormake.
# Topology vck, (7)-cn, num edge types: 1
# Building blocks:
#     Node 0, Type 0, BuildingBlock: NUHQUE_clean_sbu_2, # of connection points: 7
#     Node 1, Type 0, BuildingBlock: NUHQUE_clean_sbu_2, # of connection points: 7
#     Node 2, Type 0, BuildingBlock: NUHQUE_clean_sbu_2, # of connection points: 7
#     Node 3, Type 0, BuildingBlock: NUHQUE_clean_sbu_2, # of connection points: 7
#     Node 4, Type 0, BuildingBlock: NUHQUE_clean_sbu_2, # of connection points: 7
#     Node 5, Type 0, BuildingBlock: NUHQUE_clean_sbu_2, # of connection points: 7
#     Node 6, Type 0, BuildingBlock: NUHQUE_clean_sbu_2, # of connection points: 7
#     Node 7, Type 0, BuildingBlock: NUHQUE_clean_sbu_2, # of connection points: 7
#     Node 8, Type 0, BuildingBlock: NUHQUE_clean_sbu_2, # of connection points: 7
#     Node 9, Type 0, BuildingBlock: NUHQUE_clean_sbu_2, # of connection points: 7
#     Node 10, Type 0, BuildingBlock: NUHQUE_clean_sbu_2, # of connection points: 7
#     Node 11, Type 0, BuildingBlock: NUHQUE_clean_sbu_2, # of connection points: 7
#     Node 12, Type 0, BuildingBlock: NUHQUE_clean_sbu_2, # of connection points: 7
#     Node 13, Type 0, BuildingBlock: NUHQUE_clean_sbu_2, # of connection points: 7
#     Node 14, Type 0, BuildingBlock: NUHQUE_clean_sbu_2, # of connection points: 7
#     Node 15, Type 0, BuildingBlock: NUHQUE_clean_sbu_2, # of connection points: 7
#     Edge 16, Type (0, 0), None
#     Edge 17, Type (0, 0), None
#     Edge 18, Type (0, 0), None
#     Edge 19, Type (0, 0), None
#     Edge 20, Type (0, 0), None
#     Edge 21, Type (0, 0), None
#     Edge 22, Type (0, 0), None
#     Edge 23, Type (0, 0), None
#     Edge 24, Type (0, 0), None
#     Edge 25, Type (0, 0), None
#     Edge 26, Type (0, 0), None
#     Edge 27, Type (0, 0), None
#     Edge 28, Type (0, 0), None
#     Edge 29, Type (0, 0), None
#     Edge 30, Type (0, 0), None
#     Edge 31, Type (0, 0), None
#     Edge 32, Type (0, 0), None
#     Edge 33, Type (0, 0), None
#     Edge 34, Type (0, 0), None
#     Edge 35, Type (0, 0), None
#     Edge 36, Type (0, 0), None
#     Edge 37, Type (0, 0), None
#     Edge 38, Type (0, 0), None
#     Edge 39, Type (0, 0), None
#     Edge 40, Type (0, 0), None
#     Edge 41, Type (0, 0), None
#     Edge 42, Type (0, 0), None
#     Edge 43, Type (0, 0), None
#     Edge 44, Type (0, 0), None
#     Edge 45, Type (0, 0), None
#     Edge 46, Type (0, 0), None
#     Edge 47, Type (0, 0), None
#     Edge 48, Type (0, 0), None
#     Edge 49, Type (0, 0), None
#     Edge 50, Type (0, 0), None
#     Edge 51, Type (0, 0), None
#     Edge 52, Type (0, 0), None
#     Edge 53, Type (0, 0), None
#     Edge 54, Type (0, 0), None
#     Edge 55, Type (0, 0), None
#     Edge 56, Type (0, 0), None
#     Edge 57, Type (0, 0), None
#     Edge 58, Type (0, 0), None
#     Edge 59, Type (0, 0), None
#     Edge 60, Type (0, 0), None
#     Edge 61, Type (0, 0), None
#     Edge 62, Type (0, 0), None
#     Edge 63, Type (0, 0), None
#     Edge 64, Type (0, 0), None
#     Edge 65, Type (0, 0), None
#     Edge 66, Type (0, 0), None
#     Edge 67, Type (0, 0), None
#     Edge 68, Type (0, 0), None
#     Edge 69, Type (0, 0), None
#     Edge 70, Type (0, 0), None
#     Edge 71, Type (0, 0), None
# Relax obj value: 0.173
# Max RMSD: 0.191
# Mean RMSD: 0.191
data_MOF--net-vck--node1-NUHQUE_clean_sbu_2--edge1-none
_symmetry_space_group_name_H-M    P1
_symmetry_Int_Tables_number       1
_symmetry_cell_setting            triclinic
loop_
_symmetry_equiv_pos_as_xyz
'x, y, z'
_cell_length_a     40.346443
_cell_length_b     25.059641
_cell_length_c     11.569352
_cell_angle_alpha  90.001004
_cell_angle_beta   89.999429
_cell_angle_gamma 90.000278
loop_
_atom_site_label
_atom_site_type_symbol
_atom_site_fract_x
_atom_site_fract_y
_atom_site_fract_z
_atom_type_partial_charge
O0 O 0.49637 0.20649 0.18182 0.0
Tb1 Tb 0.52142 0.13308 0.22786 0.0
Eu2 Eu 0.56923 0.05201 0.05407 0.0
C3 C 0.49883 0.24848 0.24981 0.0
O4 O 0.51721 0.24616 0.34337 0.0
C5 C 0.59685 0.15492 0.18268 0.0
O6 O 0.60713 0.99099 0.99801 0.0
C7 C 0.54282 0.10091 0.88018 0.0
C8 C 0.59922 0.94219 0.96551 0.0
O9 O 0.56809 0.92691 0.9655 0.0
C10 C 0.49993 0.02047 0.14811 0.0
C11 C 0.52702 0.13059 0.7842 0.0
C12 C 0.50777 0.17582 0.81066 0.0
C13 C 0.49238 0.20513 0.72307 0.0
C14 C 0.49516 0.18833 0.60894 0.0
C15 C 0.51353 0.14273 0.57998 0.0
C16 C 0.5301 0.11422 0.66763 0.0
O17 O 0.5666 0.17401 0.17667 0.0
O18 O 0.60366 0.10485 0.1574 0.0
O19 O 0.49294 0.14573 0.38359 0.0
O20 O 0.54075 0.11098 0.39994 0.0
C21 C 0.51487 0.12833 0.45648 0.0
O22 O 0.53069 0.00347 0.14585 0.0
O23 O 0.49309 0.07147 0.1398 0.0
O24 O 0.56098 0.05785 0.86608 0.0
O25 O 0.53991 0.11736 0.98748 0.0
H26 H 0.50524 0.18911 0.89944 0.0
H27 H 0.48282 0.21129 0.54208 0.0
H28 H 0.54463 0.07931 0.6456 0.0
O29 O 0.47625 0.7959 0.18182 0.0
Tb30 Tb 0.4512 0.86931 0.22786 0.0
Eu31 Eu 0.40339 0.95037 0.05407 0.0
C32 C 0.4738 0.75392 0.24981 0.0
O33 O 0.45543 0.75624 0.34337 0.0
C34 C 0.37577 0.84746 0.18268 0.0
O35 O 0.36549 0.01139 0.99801 0.0
C36 C 0.4298 0.90148 0.88018 0.0
C37 C 0.3734 0.0602 0.96551 0.0
O38 O 0.40453 0.07547 0.96551 0.0
C39 C 0.47269 0.98192 0.14813 0.0
C40 C 0.4456 0.8718 0.7842 0.0
C41 C 0.46485 0.82657 0.81066 0.0
C42 C 0.48024 0.79727 0.72306 0.0
C43 C 0.47747 0.81407 0.60893 0.0
C44 C 0.45909 0.85966 0.57998 0.0
C45 C 0.44252 0.88817 0.66763 0.0
O46 O 0.40603 0.82837 0.17668 0.0
O47 O 0.36896 0.89754 0.1574 0.0
O48 O 0.47969 0.85667 0.38358 0.0
O49 O 0.43188 0.89141 0.39994 0.0
C50 C 0.45775 0.87406 0.45648 0.0
O51 O 0.44192 0.99892 0.14585 0.0
O52 O 0.47953 0.93092 0.13979 0.0
O53 O 0.41164 0.94454 0.86608 0.0
O54 O 0.43271 0.88502 0.98748 0.0
H55 H 0.46738 0.81328 0.89943 0.0
H56 H 0.48981 0.7911 0.54207 0.0
H57 H 0.42799 0.92308 0.6456 0.0
O58 O 0.72625 0.45643 0.43221 0.0
Tb59 Tb 0.7012 0.38302 0.4782 0.0
Eu60 Eu 0.65339 0.30196 0.30436 0.0
C61 C 0.7238 0.49841 0.50022 0.0
O62 O 0.70542 0.49608 0.59377 0.0
C63 C 0.62578 0.40489 0.43286 0.0
O64 O 0.61549 0.24096 0.24818 0.0
C65 C 0.67982 0.35084 0.13051 0.0
C66 C 0.6234 0.19219 0.21548 0.0
O67 O 0.65453 0.17692 0.21539 0.0
C68 C 0.72268 0.27041 0.39849 0.0
C69 C 0.69563 0.38052 1.03454 0.0
C70 C 0.71488 0.42574 0.06101 0.0
C71 C 0.73027 0.45506 0.97342 0.0
C72 C 0.72749 0.43826 0.85928 0.0
C73 C 0.70911 0.39267 0.83032 0.0
C74 C 0.69254 0.36416 0.91797 0.0
O75 O 0.65603 0.42397 0.42696 0.0
O76 O 0.61896 0.35481 0.40763 0.0
O77 O 0.72969 0.39565 0.63392 0.0
O78 O 0.68187 0.36094 0.6503 0.0
C79 C 0.70776 0.37827 0.70682 0.0
O80 O 0.69192 0.25341 0.3962 0.0
O81 O 0.72953 0.3214 0.39015 0.0
O82 O 0.66167 0.30778 0.11639 0.0
O83 O 0.68272 0.36731 0.23781 0.0
H84 H 0.71741 0.43903 0.14978 0.0
H85 H 0.73982 0.46123 0.79241 0.0
H86 H 0.678 0.32926 0.89594 0.0
O87 O 0.24637 0.54595 0.4322 0.0
Tb88 Tb 0.27142 0.61936 0.4782 0.0
Eu89 Eu 0.31923 0.70042 0.30436 0.0
C90 C 0.24881 0.50397 0.50021 0.0
O91 O 0.2672 0.5063 0.59376 0.0
C92 C 0.34684 0.59749 0.43286 0.0
O93 O 0.35713 0.76142 0.24818 0.0
C94 C 0.2928 0.65154 0.1305 0.0
C95 C 0.34922 0.81019 0.21547 0.0
O96 O 0.31809 0.82546 0.21538 0.0
C97 C 0.24994 0.73197 0.39848 0.0
C98 C 0.27699 0.62185 1.03453 0.0
C99 C 0.25774 0.57664 0.061 0.0
C100 C 0.24235 0.54733 0.97341 0.0
C101 C 0.24513 0.56412 0.85927 0.0
C102 C 0.26351 0.60971 0.83031 0.0
C103 C 0.28008 0.63822 0.91796 0.0
O104 O 0.31659 0.57841 0.42695 0.0
O105 O 0.35366 0.64757 0.40763 0.0
O106 O 0.24293 0.60673 0.63391 0.0
O107 O 0.29075 0.64144 0.65029 0.0
C108 C 0.26486 0.62411 0.70682 0.0
O109 O 0.2807 0.74897 0.39619 0.0
O110 O 0.24309 0.68098 0.39014 0.0
O111 O 0.31096 0.6946 0.11639 0.0
O112 O 0.2899 0.63507 0.2378 0.0
H113 H 0.25521 0.56335 0.14977 0.0
H114 H 0.2328 0.54115 0.79241 0.0
H115 H 0.29462 0.67312 0.89593 0.0
O116 O 0.49637 0.70649 0.68181 0.0
Tb117 Tb 0.52142 0.63308 0.72785 0.0
Eu118 Eu 0.56923 0.55201 0.55406 0.0
C119 C 0.49883 0.74848 0.7498 0.0
O120 O 0.51721 0.74616 0.84336 0.0
C121 C 0.59685 0.65492 0.68268 0.0
O122 O 0.60713 0.49099 0.498 0.0
C123 C 0.54283 0.60091 0.38017 0.0
C124 C 0.59922 0.44219 0.46549 0.0
O125 O 0.56809 0.42692 0.46547 0.0
C126 C 0.49993 0.52047 0.64811 0.0
C127 C 0.52702 0.6306 0.28419 0.0
C128 C 0.50778 0.67582 0.31066 0.0
C129 C 0.49239 0.70513 0.22306 0.0
C130 C 0.49516 0.68833 0.10893 0.0
C131 C 0.51354 0.64273 0.07997 0.0
C132 C 0.53011 0.61422 0.16762 0.0
O133 O 0.5666 0.67401 0.67666 0.0
O134 O 0.60366 0.60485 0.6574 0.0
O135 O 0.49294 0.64573 0.88359 0.0
O136 O 0.54075 0.61098 0.89993 0.0
C137 C 0.51487 0.62833 0.95648 0.0
O138 O 0.5307 0.50347 0.64584 0.0
O139 O 0.49309 0.57147 0.6398 0.0
O140 O 0.56099 0.55785 0.36607 0.0
O141 O 0.53991 0.61736 0.48747 0.0
H142 H 0.50525 0.68911 0.39943 0.0
H143 H 0.48283 0.7113 1.04207 0.0
H144 H 0.54464 0.57931 0.14559 0.0
O145 O 0.47625 0.2959 0.68182 0.0
Tb146 Tb 0.4512 0.36931 0.72787 0.0
Eu147 Eu 0.40339 0.45037 0.55408 0.0
C148 C 0.4738 0.25391 0.74982 0.0
O149 O 0.45542 0.25624 0.84338 0.0
C150 C 0.37577 0.34746 0.68269 0.0
O151 O 0.36549 0.51139 0.49801 0.0
C152 C 0.4298 0.40148 0.38019 0.0
C153 C 0.3734 0.5602 0.4655 0.0
O154 O 0.40453 0.57547 0.46549 0.0
C155 C 0.47269 0.48192 0.64813 0.0
C156 C 0.44561 0.3718 0.28421 0.0
C157 C 0.46485 0.32657 0.31067 0.0
C158 C 0.48025 0.29727 0.22307 0.0
C159 C 0.47747 0.31407 0.10894 0.0
C160 C 0.4591 0.35966 0.07999 0.0
C161 C 0.44253 0.38817 0.16764 0.0
O162 O 0.40603 0.32837 0.6767 0.0
O163 O 0.36896 0.39754 0.65741 0.0
O164 O 0.47969 0.35667 0.88359 0.0
O165 O 0.43188 0.39141 0.89995 0.0
C166 C 0.45776 0.37406 0.95649 0.0
O167 O 0.44192 0.49892 0.64586 0.0
O168 O 0.47953 0.43092 0.6398 0.0
O169 O 0.41164 0.44454 0.36609 0.0
O170 O 0.43271 0.38502 0.48749 0.0
H171 H 0.46738 0.31328 0.39944 0.0
H172 H 0.48981 0.2911 1.04207 0.0
H173 H 0.42799 0.42308 0.14561 0.0
O174 O 0.72625 0.95643 0.93222 0.0
Tb175 Tb 0.7012 0.88301 0.97822 0.0
Eu176 Eu 0.65339 0.80196 0.80438 0.0
C177 C 0.7238 0.99841 1.00023 0.0
O178 O 0.70542 0.99608 0.09378 0.0
C179 C 0.62578 0.90489 0.93289 0.0
O180 O 0.61549 0.74096 0.74819 0.0
C181 C 0.67981 0.85085 0.63053 0.0
C182 C 0.6234 0.69219 0.71548 0.0
O183 O 0.65454 0.67692 0.71541 0.0
C184 C 0.72268 0.7704 0.8985 0.0
C185 C 0.69563 0.88053 0.53456 0.0
C186 C 0.71488 0.92575 0.56103 0.0
C187 C 0.73026 0.95506 0.47343 0.0
C188 C 0.72749 0.93826 0.35929 0.0
C189 C 0.7091 0.89267 0.33033 0.0
C190 C 0.69254 0.86416 0.41798 0.0
O191 O 0.65603 0.92397 0.92697 0.0
O192 O 0.61896 0.85481 0.90764 0.0
O193 O 0.72969 0.89566 0.13393 0.0
O194 O 0.68187 0.86094 0.15031 0.0
C195 C 0.70776 0.87828 0.20684 0.0
O196 O 0.69191 0.75341 0.8962 0.0
O197 O 0.72953 0.8214 0.89016 0.0
O198 O 0.66166 0.80779 0.61641 0.0
O199 O 0.68272 0.86731 0.73782 0.0
H200 H 0.71741 0.93903 0.6498 0.0
H201 H 0.73982 0.96123 0.29243 0.0
H202 H 0.678 0.82926 0.39595 0.0
O203 O 0.24636 0.04595 0.93222 0.0
Tb204 Tb 0.27142 0.11937 0.97821 0.0
Eu205 Eu 0.31923 0.20043 0.80438 0.0
C206 C 0.24881 0.00397 1.00023 0.0
O207 O 0.26719 0.0063 0.09378 0.0
C208 C 0.34684 0.09749 0.93289 0.0
O209 O 0.35713 0.26142 0.7482 0.0
C210 C 0.2928 0.15154 0.63052 0.0
C211 C 0.34922 0.31019 0.71548 0.0
O212 O 0.31809 0.32546 0.71539 0.0
C213 C 0.24993 0.23198 0.89849 0.0
C214 C 0.27699 0.12185 0.53455 0.0
C215 C 0.25774 0.07663 0.56102 0.0
C216 C 0.24235 0.04732 0.47342 0.0
C217 C 0.24513 0.06412 0.35929 0.0
C218 C 0.26351 0.10971 0.33033 0.0
C219 C 0.28008 0.13822 0.41798 0.0
O220 O 0.31658 0.07842 0.92696 0.0
O221 O 0.35366 0.14757 0.90764 0.0
O222 O 0.24292 0.10673 0.13393 0.0
O223 O 0.29074 0.14144 0.15031 0.0
C224 C 0.26486 0.12411 0.20683 0.0
O225 O 0.2807 0.24897 0.8962 0.0
O226 O 0.24309 0.18098 0.89016 0.0
O227 O 0.31096 0.1946 0.6164 0.0
O228 O 0.2899 0.13508 0.73782 0.0
H229 H 0.25521 0.06335 0.64979 0.0
H230 H 0.2328 0.04115 0.29242 0.0
H231 H 0.29462 0.17313 0.39595 0.0
O232 O -0.00363 0.20648 0.68259 0.0
Tb233 Tb 0.02142 0.13306 0.72862 0.0
Eu234 Eu 0.06922 0.052 0.5548 0.0
C235 C -0.00117 0.24846 0.75057 0.0
O236 O 0.01722 0.24614 0.84412 0.0
C237 C 0.09684 0.15494 0.6833 0.0
O238 O 0.10713 0.99101 0.49862 0.0
C239 C 0.04281 0.1009 0.38094 0.0
C240 C 0.09921 0.94223 0.46594 0.0
O241 O 0.06808 0.92696 0.46587 0.0
C242 C -7e-05 0.02046 0.64889 0.0
C243 C 0.027 0.13058 0.28497 0.0
C244 C 0.00775 0.1758 0.31143 0.0
C245 C -0.00764 0.20511 0.22383 0.0
C246 C -0.00486 0.18832 0.1097 0.0
C247 C 0.01352 0.14272 0.08074 0.0
C248 C 0.03008 0.11421 0.1684 0.0
O249 O 0.06659 0.17401 0.67738 0.0
O250 O 0.10366 0.10486 0.65807 0.0
O251 O -0.00707 0.14572 0.88434 0.0
O252 O 0.04075 0.11098 0.90071 0.0
C253 C 0.01487 0.12833 0.95724 0.0
O254 O 0.03069 0.00346 0.64661 0.0
O255 O -0.00691 0.07146 0.64058 0.0
O256 O 0.06096 0.05783 0.36683 0.0
O257 O 0.0399 0.11736 0.48824 0.0
H258 H 0.00521 0.18909 0.40021 0.0
H259 H 0.98281 0.21128 1.04283 0.0
H260 H 0.04462 0.0793 0.14637 0.0
O261 O 0.97624 0.79588 0.6826 0.0
Tb262 Tb 0.95119 0.8693 0.72863 0.0
Eu263 Eu 0.90339 0.95036 0.55482 0.0
C264 C 0.97377 0.7539 0.75058 0.0
O265 O 0.95539 0.75622 0.84412 0.0
C266 C 0.87577 0.84744 0.68332 0.0
O267 O 0.86549 0.01137 0.49864 0.0
C268 C 0.9298 0.90147 0.38095 0.0
C269 C 0.8734 0.06014 0.46595 0.0
O270 O 0.90454 0.07541 0.46588 0.0
C271 C 0.97269 0.98191 0.64891 0.0
C272 C 0.94561 0.87178 0.28498 0.0
C273 C 0.96486 0.82656 0.31144 0.0
C274 C 0.98025 0.79725 0.22384 0.0
C275 C 0.97747 0.81404 0.10971 0.0
C276 C 0.95909 0.85964 0.08075 0.0
C277 C 0.94252 0.88815 0.16841 0.0
O278 O 0.90602 0.82836 0.67738 0.0
O279 O 0.86895 0.89752 0.6581 0.0
O280 O 0.97968 0.85664 0.88435 0.0
O281 O 0.93186 0.89138 0.90073 0.0
C282 C 0.95774 0.87403 0.95726 0.0
O283 O 0.94192 0.99891 0.64662 0.0
O284 O 0.97953 0.93091 0.6406 0.0
O285 O 0.91165 0.94453 0.36684 0.0
O286 O 0.93271 0.88501 0.48825 0.0
H287 H 0.96739 0.81327 0.40021 0.0
H288 H -0.01021 0.79107 1.04284 0.0
H289 H 0.92799 0.92306 0.14638 0.0
O290 O 0.22623 0.45655 0.9322 0.0
Tb291 Tb 0.20119 0.38313 0.97827 0.0
Eu292 Eu 0.15339 0.30206 0.80449 0.0
C293 C 0.22377 0.49854 1.00016 0.0
O294 O 0.20539 0.49622 0.09372 0.0
C295 C 0.12577 0.40497 0.93311 0.0
O296 O 0.11549 0.24104 0.74843 0.0
C297 C 0.17979 0.35096 0.6306 0.0
C298 C 0.1234 0.19223 0.71595 0.0
O299 O 0.15453 0.17695 0.71596 0.0
C300 C 0.22269 0.27053 0.89853 0.0
C301 C 0.1956 0.38065 0.53462 0.0
C302 C 0.21484 0.42588 0.56108 0.0
C303 C 0.23023 0.45518 0.47348 0.0
C304 C 0.22746 0.43838 0.35935 0.0
C305 C 0.20908 0.39279 0.33039 0.0
C306 C 0.19251 0.36427 0.41805 0.0
O307 O 0.15602 0.42406 0.9271 0.0
O308 O 0.11896 0.35489 0.90783 0.0
O309 O 0.22967 0.39579 0.134 0.0
O310 O 0.18187 0.36103 0.15035 0.0
C311 C 0.20774 0.37839 0.20689 0.0
O312 O 0.19193 0.25352 0.89626 0.0
O313 O 0.22953 0.32153 0.89022 0.0
O314 O 0.16164 0.3079 0.6165 0.0
O315 O 0.18271 0.36742 0.7379 0.0
H316 H 0.21737 0.43917 0.64985 0.0
H317 H 0.23979 0.46135 0.29248 0.0
H318 H 0.17798 0.32936 0.39602 0.0
O319 O 0.74638 0.54584 0.93222 0.0
Tb320 Tb 0.77142 0.61925 0.97829 0.0
Eu321 Eu 0.81923 0.70031 0.80452 0.0
C322 C 0.74884 0.50384 1.00017 0.0
O323 O 0.76722 0.50616 0.09373 0.0
C324 C 0.84685 0.59741 0.93314 0.0
O325 O 0.85712 0.76134 0.74846 0.0
C326 C 0.79282 0.65142 0.63063 0.0
C327 C 0.84921 0.81014 0.71597 0.0
O328 O 0.81808 0.82542 0.71599 0.0
C329 C 0.74992 0.73185 0.89855 0.0
C330 C 0.77702 0.62173 0.53465 0.0
C331 C 0.75777 0.5765 0.5611 0.0
C332 C 0.74238 0.5472 0.4735 0.0
C333 C 0.74516 0.564 0.35937 0.0
C334 C 0.76353 0.6096 0.33042 0.0
C335 C 0.7801 0.63811 0.41807 0.0
O336 O 0.8166 0.57832 0.92713 0.0
O337 O 0.85366 0.64748 0.90786 0.0
O338 O 0.74294 0.60659 0.13402 0.0
O339 O 0.79074 0.64136 0.15038 0.0
C340 C 0.76487 0.62399 0.20692 0.0
O341 O 0.78069 0.74886 0.89629 0.0
O342 O 0.74308 0.68085 0.89025 0.0
O343 O 0.81098 0.69447 0.61653 0.0
O344 O 0.78991 0.63496 0.73793 0.0
H345 H 0.75524 0.56321 0.64987 0.0
H346 H 0.73283 0.54103 0.2925 0.0
H347 H 0.79463 0.67302 0.39605 0.0
O348 O -0.00363 0.70648 0.1826 0.0
Tb349 Tb 0.02142 0.63306 0.22863 0.0
Eu350 Eu 0.06922 0.55201 0.0548 0.0
C351 C -0.00117 0.74846 0.25058 0.0
O352 O 0.01721 0.74614 0.34413 0.0
C353 C 0.09684 0.65494 0.18331 0.0
O354 O 0.10712 0.49101 0.99861 0.0
C355 C 0.0428 0.6009 0.88095 0.0
C356 C 0.09921 0.44223 0.96591 0.0
O357 O 0.06808 0.42696 0.96584 0.0
C358 C -7e-05 0.52046 0.1489 0.0
C359 C 0.02699 0.63058 0.78497 0.0
C360 C 0.00774 0.6758 0.81144 0.0
C361 C -0.00765 0.70511 0.72384 0.0
C362 C -0.00487 0.68831 0.6097 0.0
C363 C 0.01351 0.64272 0.58075 0.0
C364 C 0.03008 0.61421 0.6684 0.0
O365 O 0.06659 0.67401 0.1774 0.0
O366 O 0.10366 0.60486 0.15807 0.0
O367 O -0.00707 0.64572 0.38434 0.0
O368 O 0.04074 0.61098 0.40072 0.0
C369 C 0.01486 0.62833 0.45725 0.0
O370 O 0.03069 0.50346 0.14662 0.0
O371 O -0.00691 0.57146 0.14058 0.0
O372 O 0.06095 0.55784 0.86683 0.0
O373 O 0.0399 0.61736 0.98824 0.0
H374 H 0.0052 0.68909 0.90021 0.0
H375 H 0.9828 0.71128 0.54284 0.0
H376 H 0.04461 0.57931 0.64637 0.0
O377 O 0.97624 0.29588 0.18259 0.0
Tb378 Tb 0.95119 0.3693 0.22863 0.0
Eu379 Eu 0.90339 0.45036 0.0548 0.0
C380 C 0.97378 0.2539 0.25058 0.0
O381 O 0.9554 0.25622 0.34412 0.0
C382 C 0.87577 0.34743 0.18331 0.0
O383 O 0.86549 0.51136 0.99863 0.0
C384 C 0.92981 0.40147 0.88095 0.0
C385 C 0.87341 0.56014 0.96593 0.0
O386 O 0.90454 0.57541 0.96586 0.0
C387 C 0.97269 0.48191 0.14891 0.0
C388 C 0.94562 0.37178 0.78497 0.0
C389 C 0.96487 0.32656 0.81143 0.0
C390 C 0.98025 0.29725 0.72383 0.0
C391 C 0.97747 0.31405 0.6097 0.0
C392 C 0.95909 0.35964 0.58075 0.0
C393 C 0.94253 0.38815 0.6684 0.0
O394 O 0.90603 0.32836 0.17738 0.0
O395 O 0.86896 0.39751 0.15808 0.0
O396 O 0.97968 0.35664 0.38434 0.0
O397 O 0.93187 0.39138 0.40072 0.0
C398 C 0.95775 0.37403 0.45725 0.0
O399 O 0.94192 0.49891 0.14661 0.0
O400 O 0.97953 0.43091 0.14059 0.0
O401 O 0.91165 0.44453 0.86683 0.0
O402 O 0.93271 0.38501 0.98824 0.0
H403 H 0.9674 0.31328 0.90021 0.0
H404 H -0.0102 0.29108 0.54283 0.0
H405 H 0.928 0.42306 0.64637 0.0
O406 O 0.22624 0.95654 0.43221 0.0
Tb407 Tb 0.2012 0.88313 0.47829 0.0
Eu408 Eu 0.15339 0.80206 0.30451 0.0
C409 C 0.22377 0.99854 0.50018 0.0
O410 O 0.2054 0.99622 0.59373 0.0
C411 C 0.12577 0.90496 0.43314 0.0
O412 O 0.11549 0.74103 0.24845 0.0
C413 C 0.17979 0.85096 0.13062 0.0
C414 C 0.1234 0.69223 0.21595 0.0
O415 O 0.15453 0.67695 0.21595 0.0
C416 C 0.2227 0.77052 0.39854 0.0
C417 C 0.1956 0.88065 1.03464 0.0
C418 C 0.21484 0.92588 0.0611 0.0
C419 C 0.23023 0.95519 0.9735 0.0
C420 C 0.22746 0.93838 0.85937 0.0
C421 C 0.20908 0.89279 0.83041 0.0
C422 C 0.19252 0.86427 0.91806 0.0
O423 O 0.15602 0.92406 0.42712 0.0
O424 O 0.11896 0.85489 0.40786 0.0
O425 O 0.22968 0.89579 0.63402 0.0
O426 O 0.18187 0.86102 0.65037 0.0
C427 C 0.20775 0.87839 0.70691 0.0
O428 O 0.19193 0.75352 0.39627 0.0
O429 O 0.22954 0.82152 0.39023 0.0
O430 O 0.16164 0.8079 0.11652 0.0
O431 O 0.18271 0.86742 0.23792 0.0
H432 H 0.21737 0.93917 0.14987 0.0
H433 H 0.23979 0.96135 0.7925 0.0
H434 H 0.17799 0.82936 0.89604 0.0
O435 O 0.74638 0.04584 0.43223 0.0
Tb436 Tb 0.77142 0.11926 0.47831 0.0
Eu437 Eu 0.81923 0.20031 0.30453 0.0
C438 C 0.74884 0.00385 0.50019 0.0
O439 O 0.76722 0.00617 0.59374 0.0
C440 C 0.84685 0.09741 0.43316 0.0
O441 O 0.85713 0.26134 0.24847 0.0
C442 C 0.79282 0.15142 0.13064 0.0
C443 C 0.84921 0.31014 0.21596 0.0
O444 O 0.81808 0.32542 0.21597 0.0
C445 C 0.74992 0.23186 0.39855 0.0
C446 C 0.77702 0.12173 1.03465 0.0
C447 C 0.75777 0.0765 0.06111 0.0
C448 C 0.74238 0.0472 0.97351 0.0
C449 C 0.74516 0.064 0.85938 0.0
C450 C 0.76353 0.1096 0.83043 0.0
C451 C 0.7801 0.13811 0.91808 0.0
O452 O 0.8166 0.07832 0.42714 0.0
O453 O 0.85366 0.14749 0.40787 0.0
O454 O 0.74294 0.10659 0.63404 0.0
O455 O 0.79074 0.14136 0.65039 0.0
C456 C 0.76487 0.124 0.70693 0.0
O457 O 0.78069 0.24886 0.39629 0.0
O458 O 0.74308 0.18086 0.39025 0.0
O459 O 0.81098 0.19447 0.11654 0.0
O460 O 0.78991 0.13496 0.23794 0.0
H461 H 0.75524 0.06321 0.14988 0.0
H462 H 0.73283 0.04103 0.79251 0.0
H463 H 0.79463 0.17302 0.89606 0.0
loop_
_geom_bond_atom_site_label_1
_geom_bond_atom_site_label_2
_geom_bond_distance
_geom_bond_site_symmetry_2
_ccdc_geom_bond_type
O0 Tb1 2.292 . S
O0 C3 1.255 . S
Tb1 O0 2.292 . S
Tb1 O17 2.326 . S
Tb1 O19 2.500 . S
Tb1 O20 2.473 . S
Tb1 O23 2.324 . S
Eu2 O6 2.292 1_545 S
Eu2 C7 2.852 . S
Eu2 O18 2.324 1_556 S
Eu2 O22 2.326 . S
Eu2 O24 2.500 . S
Eu2 O25 2.473 . S
C3 O0 1.255 . S
C3 O4 1.247 . S
O4 C3 1.247 . S
C5 O17 1.242 . S
C5 O18 1.258 . S
O6 Eu2 2.292 1_565 S
O6 C8 1.255 . S
C7 Eu2 2.852 . S
C7 C11 1.503 . S
C7 O24 1.273 . S
C7 O25 1.257 . S
C8 O6 1.255 . S
C8 O9 1.247 1_556 S
O9 C8 1.247 1_554 S
C10 O22 1.242 1_554 S
C10 O23 1.258 . S
C11 C7 1.503 . S
C11 C12 1.379 . S
C11 C16 1.392 . S
C12 C11 1.379 . S
C12 C13 1.404 . S
C12 H26 0.929 . S
C13 C12 1.404 . S
C13 C14 1.389 . S
C14 C13 1.389 . S
C14 C15 1.399 . S
C14 H27 0.931 . S
C15 C14 1.399 . S
C15 C16 1.390 . S
C16 C11 1.392 . S
C16 C15 1.390 . S
C16 H28 0.929 . S
O17 Tb1 2.326 . S
O17 C5 1.242 . S
O18 Eu2 2.324 1_554 S
O18 C5 1.258 . S
O19 Tb1 2.500 . S
O19 C21 1.273 . S
O20 Tb1 2.473 . S
O20 C21 1.257 . S
C21 O19 1.273 . S
C21 O20 1.257 . S
O22 Eu2 2.326 . S
O22 C10 1.242 1_556 S
O23 Tb1 2.324 . S
O23 C10 1.258 . S
O24 Eu2 2.500 . S
O24 C7 1.273 . S
O25 Eu2 2.473 . S
O25 C7 1.257 . S
H26 C12 0.929 . S
H27 C14 0.931 . S
H28 C16 0.929 . S
O29 Tb30 2.292 . S
O29 C32 1.255 . S
Tb30 O29 2.292 . S
Tb30 O46 2.326 . S
Tb30 O48 2.500 . S
Tb30 O49 2.473 . S
Tb30 O52 2.324 . S
Eu31 O35 2.292 1_565 S
Eu31 C36 2.852 . S
Eu31 O47 2.324 1_556 S
Eu31 O51 2.326 . S
Eu31 O53 2.500 . S
Eu31 O54 2.473 . S
C32 O29 1.255 . S
C32 O33 1.247 . S
O33 C32 1.247 . S
C34 O46 1.242 . S
C34 O47 1.258 . S
O35 Eu31 2.292 1_545 S
O35 C37 1.255 . S
C36 Eu31 2.852 . S
C36 C40 1.503 . S
C36 O53 1.273 . S
C36 O54 1.257 . S
C37 O35 1.255 . S
C37 O38 1.247 1_556 S
O38 C37 1.247 1_554 S
C39 O51 1.242 1_554 S
C39 O52 1.258 . S
C40 C36 1.503 . S
C40 C41 1.379 . S
C40 C45 1.392 . S
C41 C40 1.379 . S
C41 C42 1.404 . S
C41 H55 0.929 . S
C42 C41 1.404 . S
C42 C43 1.389 . S
C43 C42 1.389 . S
C43 C44 1.399 . S
C43 H56 0.931 . S
C44 C43 1.399 . S
C44 C45 1.390 . S
C45 C40 1.392 . S
C45 C44 1.390 . S
C45 H57 0.929 . S
O46 Tb30 2.326 . S
O46 C34 1.242 . S
O47 Eu31 2.324 1_554 S
O47 C34 1.258 . S
O48 Tb30 2.500 . S
O48 C50 1.273 . S
O49 Tb30 2.473 . S
O49 C50 1.257 . S
C50 O48 1.273 . S
C50 O49 1.257 . S
O51 Eu31 2.326 . S
O51 C39 1.242 1_556 S
O52 Tb30 2.324 . S
O52 C39 1.258 . S
O53 Eu31 2.500 . S
O53 C36 1.273 . S
O54 Eu31 2.473 . S
O54 C36 1.257 . S
H55 C41 0.929 . S
H56 C43 0.931 . S
H57 C45 0.929 . S
O58 Tb59 2.292 . S
O58 C61 1.255 . S
Tb59 O58 2.292 . S
Tb59 O75 2.326 . S
Tb59 O77 2.500 . S
Tb59 O78 2.473 . S
Tb59 O81 2.324 . S
Eu60 O64 2.292 . S
Eu60 C65 2.852 . S
Eu60 O76 2.324 . S
Eu60 O80 2.326 . S
Eu60 O82 2.500 . S
Eu60 O83 2.473 . S
C61 O58 1.255 . S
C61 O62 1.247 . S
O62 C61 1.247 . S
C63 O75 1.242 . S
C63 O76 1.258 . S
O64 Eu60 2.292 . S
O64 C66 1.255 . S
C65 Eu60 2.852 . S
C65 C69 1.503 1_554 S
C65 O82 1.273 . S
C65 O83 1.257 . S
C66 O64 1.255 . S
C66 O67 1.247 . S
O67 C66 1.247 . S
C68 O80 1.242 . S
C68 O81 1.258 . S
C69 C65 1.503 1_556 S
C69 C70 1.379 . S
C69 C74 1.392 . S
C70 C69 1.379 . S
C70 C71 1.404 . S
C70 H84 0.929 1_556 S
C71 C70 1.404 . S
C71 C72 1.389 . S
C72 C71 1.389 . S
C72 C73 1.399 . S
C72 H85 0.931 . S
C73 C72 1.399 . S
C73 C74 1.390 . S
C74 C69 1.392 . S
C74 C73 1.390 . S
C74 H86 0.929 . S
O75 Tb59 2.326 . S
O75 C63 1.242 . S
O76 Eu60 2.324 . S
O76 C63 1.258 . S
O77 Tb59 2.500 . S
O77 C79 1.273 . S
O78 Tb59 2.473 . S
O78 C79 1.257 . S
C79 O77 1.273 . S
C79 O78 1.257 . S
O80 Eu60 2.326 . S
O80 C68 1.242 . S
O81 Tb59 2.324 . S
O81 C68 1.258 . S
O82 Eu60 2.500 . S
O82 C65 1.273 . S
O83 Eu60 2.473 . S
O83 C65 1.257 . S
H84 C70 0.929 1_554 S
H85 C72 0.931 . S
H86 C74 0.929 . S
O87 Tb88 2.292 . S
O87 C90 1.255 . S
Tb88 O87 2.292 . S
Tb88 O104 2.326 . S
Tb88 O106 2.500 . S
Tb88 O107 2.473 . S
Tb88 O110 2.324 . S
Eu89 O93 2.292 . S
Eu89 C94 2.852 . S
Eu89 O105 2.324 . S
Eu89 O109 2.326 . S
Eu89 O111 2.500 . S
Eu89 O112 2.473 . S
C90 O87 1.255 . S
C90 O91 1.247 . S
O91 C90 1.247 . S
C92 O104 1.242 . S
C92 O105 1.258 . S
O93 Eu89 2.292 . S
O93 C95 1.255 . S
C94 Eu89 2.852 . S
C94 C98 1.503 1_554 S
C94 O111 1.273 . S
C94 O112 1.257 . S
C95 O93 1.255 . S
C95 O96 1.247 . S
O96 C95 1.247 . S
C97 O109 1.242 . S
C97 O110 1.258 . S
C98 C94 1.503 1_556 S
C98 C99 1.379 . S
C98 C103 1.392 . S
C99 C98 1.379 . S
C99 C100 1.404 . S
C99 H113 0.929 1_556 S
C100 C99 1.404 . S
C100 C101 1.389 . S
C101 C100 1.389 . S
C101 C102 1.399 . S
C101 H114 0.931 . S
C102 C101 1.399 . S
C102 C103 1.390 . S
C103 C98 1.392 . S
C103 C102 1.390 . S
C103 H115 0.929 . S
O104 Tb88 2.326 . S
O104 C92 1.242 . S
O105 Eu89 2.324 . S
O105 C92 1.258 . S
O106 Tb88 2.500 . S
O106 C108 1.273 . S
O107 Tb88 2.473 . S
O107 C108 1.257 . S
C108 O106 1.273 . S
C108 O107 1.257 . S
O109 Eu89 2.326 . S
O109 C97 1.242 . S
O110 Tb88 2.324 . S
O110 C97 1.258 . S
O111 Eu89 2.500 . S
O111 C94 1.273 . S
O112 Eu89 2.473 . S
O112 C94 1.257 . S
H113 C99 0.929 1_554 S
H114 C101 0.931 . S
H115 C103 0.929 . S
O116 Tb117 2.292 . S
O116 C119 1.255 . S
Tb117 O116 2.292 . S
Tb117 O133 2.326 . S
Tb117 O135 2.500 . S
Tb117 O136 2.473 . S
Tb117 O139 2.324 . S
Eu118 O122 2.292 . S
Eu118 C123 2.852 . S
Eu118 O134 2.324 . S
Eu118 O138 2.326 . S
Eu118 O140 2.500 . S
Eu118 O141 2.473 . S
C119 O116 1.255 . S
C119 O120 1.247 . S
O120 C119 1.247 . S
C121 O133 1.242 . S
C121 O134 1.258 . S
O122 Eu118 2.292 . S
O122 C124 1.255 . S
C123 Eu118 2.852 . S
C123 C127 1.503 . S
C123 O140 1.273 . S
C123 O141 1.257 . S
C124 O122 1.255 . S
C124 O125 1.247 . S
O125 C124 1.247 . S
C126 O138 1.242 . S
C126 O139 1.258 . S
C127 C123 1.503 . S
C127 C128 1.379 . S
C127 C132 1.392 . S
C128 C127 1.379 . S
C128 C129 1.404 . S
C128 H142 0.929 . S
C129 C128 1.404 . S
C129 C130 1.389 . S
C130 C129 1.389 . S
C130 C131 1.399 . S
C130 H143 0.931 . S
C131 C130 1.399 . S
C131 C132 1.390 . S
C132 C127 1.392 . S
C132 C131 1.390 . S
C132 H144 0.929 . S
O133 Tb117 2.326 . S
O133 C121 1.242 . S
O134 Eu118 2.324 . S
O134 C121 1.258 . S
O135 Tb117 2.500 . S
O135 C137 1.273 . S
O136 Tb117 2.473 . S
O136 C137 1.257 . S
C137 O135 1.273 . S
C137 O136 1.257 . S
O138 Eu118 2.326 . S
O138 C126 1.242 . S
O139 Tb117 2.324 . S
O139 C126 1.258 . S
O140 Eu118 2.500 . S
O140 C123 1.273 . S
O141 Eu118 2.473 . S
O141 C123 1.257 . S
H142 C128 0.929 . S
H143 C130 0.931 . S
H144 C132 0.929 . S
O145 Tb146 2.292 . S
O145 C148 1.255 . S
Tb146 O145 2.292 . S
Tb146 O162 2.326 . S
Tb146 O164 2.500 . S
Tb146 O165 2.473 . S
Tb146 O168 2.324 . S
Eu147 O151 2.292 . S
Eu147 C152 2.852 . S
Eu147 O163 2.324 . S
Eu147 O167 2.326 . S
Eu147 O169 2.500 . S
Eu147 O170 2.473 . S
C148 O145 1.255 . S
C148 O149 1.247 . S
O149 C148 1.247 . S
C150 O162 1.242 . S
C150 O163 1.258 . S
O151 Eu147 2.292 . S
O151 C153 1.255 . S
C152 Eu147 2.852 . S
C152 C156 1.503 . S
C152 O169 1.273 . S
C152 O170 1.257 . S
C153 O151 1.255 . S
C153 O154 1.247 . S
O154 C153 1.247 . S
C155 O167 1.242 . S
C155 O168 1.258 . S
C156 C152 1.503 . S
C156 C157 1.379 . S
C156 C161 1.392 . S
C157 C156 1.379 . S
C157 C158 1.404 . S
C157 H171 0.929 . S
C158 C157 1.404 . S
C158 C159 1.389 . S
C159 C158 1.389 . S
C159 C160 1.399 . S
C159 H172 0.931 . S
C160 C159 1.399 . S
C160 C161 1.390 . S
C161 C156 1.392 . S
C161 C160 1.390 . S
C161 H173 0.929 . S
O162 Tb146 2.326 . S
O162 C150 1.242 . S
O163 Eu147 2.324 . S
O163 C150 1.258 . S
O164 Tb146 2.500 . S
O164 C166 1.273 . S
O165 Tb146 2.473 . S
O165 C166 1.257 . S
C166 O164 1.273 . S
C166 O165 1.257 . S
O167 Eu147 2.326 . S
O167 C155 1.242 . S
O168 Tb146 2.324 . S
O168 C155 1.258 . S
O169 Eu147 2.500 . S
O169 C152 1.273 . S
O170 Eu147 2.473 . S
O170 C152 1.257 . S
H171 C157 0.929 . S
H172 C159 0.931 . S
H173 C161 0.929 . S
O174 Tb175 2.292 1_554 S
O174 C177 1.255 1_554 S
Tb175 O174 2.292 1_556 S
Tb175 O191 2.326 . S
Tb175 O193 2.500 1_556 S
Tb175 O194 2.473 1_556 S
Tb175 O197 2.324 . S
Eu176 O180 2.292 . S
Eu176 C181 2.852 . S
Eu176 O192 2.324 . S
Eu176 O196 2.326 . S
Eu176 O198 2.500 . S
Eu176 O199 2.473 . S
C177 O174 1.255 1_556 S
C177 O178 1.247 1_565 S
O178 C177 1.247 1_545 S
C179 O191 1.242 . S
C179 O192 1.258 . S
O180 Eu176 2.292 . S
O180 C182 1.255 . S
C181 Eu176 2.852 . S
C181 C185 1.503 . S
C181 O198 1.273 . S
C181 O199 1.257 . S
C182 O180 1.255 . S
C182 O183 1.247 . S
O183 C182 1.247 . S
C184 O196 1.242 . S
C184 O197 1.258 . S
C185 C181 1.503 . S
C185 C186 1.379 . S
C185 C190 1.392 . S
C186 C185 1.379 . S
C186 C187 1.404 . S
C186 H200 0.929 . S
C187 C186 1.404 . S
C187 C188 1.389 . S
C188 C187 1.389 . S
C188 C189 1.399 . S
C188 H201 0.931 . S
C189 C188 1.399 . S
C189 C190 1.390 . S
C190 C185 1.392 . S
C190 C189 1.390 . S
C190 H202 0.929 . S
O191 Tb175 2.326 . S
O191 C179 1.242 . S
O192 Eu176 2.324 . S
O192 C179 1.258 . S
O193 Tb175 2.500 1_554 S
O193 C195 1.273 . S
O194 Tb175 2.473 1_554 S
O194 C195 1.257 . S
C195 O193 1.273 . S
C195 O194 1.257 . S
O196 Eu176 2.326 . S
O196 C184 1.242 . S
O197 Tb175 2.324 . S
O197 C184 1.258 . S
O198 Eu176 2.500 . S
O198 C181 1.273 . S
O199 Eu176 2.473 . S
O199 C181 1.257 . S
H200 C186 0.929 . S
H201 C188 0.931 . S
H202 C190 0.929 . S
O203 Tb204 2.292 1_554 S
O203 C206 1.255 1_554 S
Tb204 O203 2.292 1_556 S
Tb204 O220 2.326 . S
Tb204 O222 2.500 1_556 S
Tb204 O223 2.473 1_556 S
Tb204 O226 2.324 . S
Eu205 O209 2.292 . S
Eu205 C210 2.852 . S
Eu205 O221 2.324 . S
Eu205 O225 2.326 . S
Eu205 O227 2.500 . S
Eu205 O228 2.473 . S
C206 O203 1.255 1_556 S
C206 O207 1.247 1_545 S
O207 C206 1.247 1_565 S
C208 O220 1.242 . S
C208 O221 1.258 . S
O209 Eu205 2.292 . S
O209 C211 1.255 . S
C210 Eu205 2.852 . S
C210 C214 1.503 . S
C210 O227 1.273 . S
C210 O228 1.257 . S
C211 O209 1.255 . S
C211 O212 1.247 . S
O212 C211 1.247 . S
C213 O225 1.242 . S
C213 O226 1.258 . S
C214 C210 1.503 . S
C214 C215 1.379 . S
C214 C219 1.392 . S
C215 C214 1.379 . S
C215 C216 1.404 . S
C215 H229 0.929 . S
C216 C215 1.404 . S
C216 C217 1.389 . S
C217 C216 1.389 . S
C217 C218 1.399 . S
C217 H230 0.931 . S
C218 C217 1.399 . S
C218 C219 1.390 . S
C219 C214 1.392 . S
C219 C218 1.390 . S
C219 H231 0.929 . S
O220 Tb204 2.326 . S
O220 C208 1.242 . S
O221 Eu205 2.324 . S
O221 C208 1.258 . S
O222 Tb204 2.500 1_554 S
O222 C224 1.273 . S
O223 Tb204 2.473 1_554 S
O223 C224 1.257 . S
C224 O222 1.273 . S
C224 O223 1.257 . S
O225 Eu205 2.326 . S
O225 C213 1.242 . S
O226 Tb204 2.324 . S
O226 C213 1.258 . S
O227 Eu205 2.500 . S
O227 C210 1.273 . S
O228 Eu205 2.473 . S
O228 C210 1.257 . S
H229 C215 0.929 . S
H230 C217 0.931 . S
H231 C219 0.929 . S
O232 Tb233 2.292 . S
O232 C235 1.255 . S
Tb233 O232 2.292 . S
Tb233 O249 2.326 . S
Tb233 O251 2.500 . S
Tb233 O252 2.473 . S
Tb233 O255 2.324 . S
Eu234 O238 2.292 1_545 S
Eu234 C239 2.852 . S
Eu234 O250 2.324 . S
Eu234 O254 2.326 . S
Eu234 O256 2.500 . S
Eu234 O257 2.473 . S
C235 O232 1.255 . S
C235 O236 1.247 . S
O236 C235 1.247 . S
C237 O249 1.242 . S
C237 O250 1.258 . S
O238 Eu234 2.292 1_565 S
O238 C240 1.255 . S
C239 Eu234 2.852 . S
C239 C243 1.503 . S
C239 O256 1.273 . S
C239 O257 1.257 . S
C240 O238 1.255 . S
C240 O241 1.247 . S
O241 C240 1.247 . S
C242 O254 1.242 . S
C242 O255 1.258 . S
C243 C239 1.503 . S
C243 C244 1.379 . S
C243 C248 1.392 . S
C244 C243 1.379 . S
C244 C245 1.404 . S
C244 H258 0.929 . S
C245 C244 1.404 . S
C245 C246 1.389 . S
C246 C245 1.389 . S
C246 C247 1.399 . S
C246 H259 0.931 1_455 S
C247 C246 1.399 . S
C247 C248 1.390 . S
C248 C243 1.392 . S
C248 C247 1.390 . S
C248 H260 0.929 . S
O249 Tb233 2.326 . S
O249 C237 1.242 . S
O250 Eu234 2.324 . S
O250 C237 1.258 . S
O251 Tb233 2.500 . S
O251 C253 1.273 . S
O252 Tb233 2.473 . S
O252 C253 1.257 . S
C253 O251 1.273 . S
C253 O252 1.257 . S
O254 Eu234 2.326 . S
O254 C242 1.242 . S
O255 Tb233 2.324 . S
O255 C242 1.258 . S
O256 Eu234 2.500 . S
O256 C239 1.273 . S
O257 Eu234 2.473 . S
O257 C239 1.257 . S
H258 C244 0.929 . S
H259 C246 0.931 1_655 S
H260 C248 0.929 . S
O261 Tb262 2.292 . S
O261 C264 1.255 . S
Tb262 O261 2.292 . S
Tb262 O278 2.326 . S
Tb262 O280 2.500 . S
Tb262 O281 2.473 . S
Tb262 O284 2.324 . S
Eu263 O267 2.292 1_565 S
Eu263 C268 2.852 . S
Eu263 O279 2.324 . S
Eu263 O283 2.326 . S
Eu263 O285 2.500 . S
Eu263 O286 2.473 . S
C264 O261 1.255 . S
C264 O265 1.247 . S
O265 C264 1.247 . S
C266 O278 1.242 . S
C266 O279 1.258 . S
O267 Eu263 2.292 1_545 S
O267 C269 1.255 . S
C268 Eu263 2.852 . S
C268 C272 1.503 . S
C268 O285 1.273 . S
C268 O286 1.257 . S
C269 O267 1.255 . S
C269 O270 1.247 . S
O270 C269 1.247 . S
C271 O283 1.242 . S
C271 O284 1.258 . S
C272 C268 1.503 . S
C272 C273 1.379 . S
C272 C277 1.392 . S
C273 C272 1.379 . S
C273 C274 1.404 . S
C273 H287 0.929 . S
C274 C273 1.404 . S
C274 C275 1.389 . S
C275 C274 1.389 . S
C275 C276 1.399 . S
C275 H288 0.931 1_655 S
C276 C275 1.399 . S
C276 C277 1.390 . S
C277 C272 1.392 . S
C277 C276 1.390 . S
C277 H289 0.929 . S
O278 Tb262 2.326 . S
O278 C266 1.242 . S
O279 Eu263 2.324 . S
O279 C266 1.258 . S
O280 Tb262 2.500 . S
O280 C282 1.273 . S
O281 Tb262 2.473 . S
O281 C282 1.257 . S
C282 O280 1.273 . S
C282 O281 1.257 . S
O283 Eu263 2.326 . S
O283 C271 1.242 . S
O284 Tb262 2.324 . S
O284 C271 1.258 . S
O285 Eu263 2.500 . S
O285 C268 1.273 . S
O286 Eu263 2.473 . S
O286 C268 1.257 . S
H287 C273 0.929 . S
H288 C275 0.931 1_455 S
H289 C277 0.929 . S
O290 Tb291 2.292 1_554 S
O290 C293 1.255 1_554 S
Tb291 O290 2.292 1_556 S
Tb291 O307 2.326 . S
Tb291 O309 2.500 1_556 S
Tb291 O310 2.473 1_556 S
Tb291 O313 2.324 . S
Eu292 O296 2.292 . S
Eu292 C297 2.852 . S
Eu292 O308 2.324 . S
Eu292 O312 2.326 . S
Eu292 O314 2.500 . S
Eu292 O315 2.473 . S
C293 O290 1.255 1_556 S
C293 O294 1.247 . S
O294 C293 1.247 . S
C295 O307 1.242 . S
C295 O308 1.258 . S
O296 Eu292 2.292 . S
O296 C298 1.255 . S
C297 Eu292 2.852 . S
C297 C301 1.503 . S
C297 O314 1.273 . S
C297 O315 1.257 . S
C298 O296 1.255 . S
C298 O299 1.247 . S
O299 C298 1.247 . S
C300 O312 1.242 . S
C300 O313 1.258 . S
C301 C297 1.503 . S
C301 C302 1.379 . S
C301 C306 1.392 . S
C302 C301 1.379 . S
C302 C303 1.404 . S
C302 H316 0.929 . S
C303 C302 1.404 . S
C303 C304 1.389 . S
C304 C303 1.389 . S
C304 C305 1.399 . S
C304 H317 0.931 . S
C305 C304 1.399 . S
C305 C306 1.390 . S
C306 C301 1.392 . S
C306 C305 1.390 . S
C306 H318 0.929 . S
O307 Tb291 2.326 . S
O307 C295 1.242 . S
O308 Eu292 2.324 . S
O308 C295 1.258 . S
O309 Tb291 2.500 1_554 S
O309 C311 1.273 . S
O310 Tb291 2.473 1_554 S
O310 C311 1.257 . S
C311 O309 1.273 . S
C311 O310 1.257 . S
O312 Eu292 2.326 . S
O312 C300 1.242 . S
O313 Tb291 2.324 . S
O313 C300 1.258 . S
O314 Eu292 2.500 . S
O314 C297 1.273 . S
O315 Eu292 2.473 . S
O315 C297 1.257 . S
H316 C302 0.929 . S
H317 C304 0.931 . S
H318 C306 0.929 . S
O319 Tb320 2.292 1_554 S
O319 C322 1.255 1_554 S
Tb320 O319 2.292 1_556 S
Tb320 O336 2.326 . S
Tb320 O338 2.500 1_556 S
Tb320 O339 2.473 1_556 S
Tb320 O342 2.324 . S
Eu321 O325 2.292 . S
Eu321 C326 2.852 . S
Eu321 O337 2.324 . S
Eu321 O341 2.326 . S
Eu321 O343 2.500 . S
Eu321 O344 2.473 . S
C322 O319 1.255 1_556 S
C322 O323 1.247 . S
O323 C322 1.247 . S
C324 O336 1.242 . S
C324 O337 1.258 . S
O325 Eu321 2.292 . S
O325 C327 1.255 . S
C326 Eu321 2.852 . S
C326 C330 1.503 . S
C326 O343 1.273 . S
C326 O344 1.257 . S
C327 O325 1.255 . S
C327 O328 1.247 . S
O328 C327 1.247 . S
C329 O341 1.242 . S
C329 O342 1.258 . S
C330 C326 1.503 . S
C330 C331 1.379 . S
C330 C335 1.392 . S
C331 C330 1.379 . S
C331 C332 1.404 . S
C331 H345 0.929 . S
C332 C331 1.404 . S
C332 C333 1.389 . S
C333 C332 1.389 . S
C333 C334 1.399 . S
C333 H346 0.931 . S
C334 C333 1.399 . S
C334 C335 1.390 . S
C335 C330 1.392 . S
C335 C334 1.390 . S
C335 H347 0.929 . S
O336 Tb320 2.326 . S
O336 C324 1.242 . S
O337 Eu321 2.324 . S
O337 C324 1.258 . S
O338 Tb320 2.500 1_554 S
O338 C340 1.273 . S
O339 Tb320 2.473 1_554 S
O339 C340 1.257 . S
C340 O338 1.273 . S
C340 O339 1.257 . S
O341 Eu321 2.326 . S
O341 C329 1.242 . S
O342 Tb320 2.324 . S
O342 C329 1.258 . S
O343 Eu321 2.500 . S
O343 C326 1.273 . S
O344 Eu321 2.473 . S
O344 C326 1.257 . S
H345 C331 0.929 . S
H346 C333 0.931 . S
H347 C335 0.929 . S
O348 Tb349 2.292 . S
O348 C351 1.255 . S
Tb349 O348 2.292 . S
Tb349 O365 2.326 . S
Tb349 O367 2.500 . S
Tb349 O368 2.473 . S
Tb349 O371 2.324 . S
Eu350 O354 2.292 . S
Eu350 C355 2.852 . S
Eu350 O366 2.324 1_556 S
Eu350 O370 2.326 . S
Eu350 O372 2.500 . S
Eu350 O373 2.473 . S
C351 O348 1.255 . S
C351 O352 1.247 . S
O352 C351 1.247 . S
C353 O365 1.242 . S
C353 O366 1.258 . S
O354 Eu350 2.292 . S
O354 C356 1.255 . S
C355 Eu350 2.852 . S
C355 C359 1.503 . S
C355 O372 1.273 . S
C355 O373 1.257 . S
C356 O354 1.255 . S
C356 O357 1.247 1_556 S
O357 C356 1.247 1_554 S
C358 O370 1.242 1_554 S
C358 O371 1.258 . S
C359 C355 1.503 . S
C359 C360 1.379 . S
C359 C364 1.392 . S
C360 C359 1.379 . S
C360 C361 1.404 . S
C360 H374 0.929 . S
C361 C360 1.404 . S
C361 C362 1.389 . S
C362 C361 1.389 . S
C362 C363 1.399 . S
C362 H375 0.931 1_455 S
C363 C362 1.399 . S
C363 C364 1.390 . S
C364 C359 1.392 . S
C364 C363 1.390 . S
C364 H376 0.929 . S
O365 Tb349 2.326 . S
O365 C353 1.242 . S
O366 Eu350 2.324 1_554 S
O366 C353 1.258 . S
O367 Tb349 2.500 . S
O367 C369 1.273 . S
O368 Tb349 2.473 . S
O368 C369 1.257 . S
C369 O367 1.273 . S
C369 O368 1.257 . S
O370 Eu350 2.326 . S
O370 C358 1.242 1_556 S
O371 Tb349 2.324 . S
O371 C358 1.258 . S
O372 Eu350 2.500 . S
O372 C355 1.273 . S
O373 Eu350 2.473 . S
O373 C355 1.257 . S
H374 C360 0.929 . S
H375 C362 0.931 1_655 S
H376 C364 0.929 . S
O377 Tb378 2.292 . S
O377 C380 1.255 . S
Tb378 O377 2.292 . S
Tb378 O394 2.326 . S
Tb378 O396 2.500 . S
Tb378 O397 2.473 . S
Tb378 O400 2.324 . S
Eu379 O383 2.292 . S
Eu379 C384 2.852 . S
Eu379 O395 2.324 1_556 S
Eu379 O399 2.326 . S
Eu379 O401 2.500 . S
Eu379 O402 2.473 . S
C380 O377 1.255 . S
C380 O381 1.247 . S
O381 C380 1.247 . S
C382 O394 1.242 . S
C382 O395 1.258 . S
O383 Eu379 2.292 . S
O383 C385 1.255 . S
C384 Eu379 2.852 . S
C384 C388 1.503 . S
C384 O401 1.273 . S
C384 O402 1.257 . S
C385 O383 1.255 . S
C385 O386 1.247 1_556 S
O386 C385 1.247 1_554 S
C387 O399 1.242 1_554 S
C387 O400 1.258 . S
C388 C384 1.503 . S
C388 C389 1.379 . S
C388 C393 1.392 . S
C389 C388 1.379 . S
C389 C390 1.404 . S
C389 H403 0.929 . S
C390 C389 1.404 . S
C390 C391 1.389 . S
C391 C390 1.389 . S
C391 C392 1.399 . S
C391 H404 0.931 1_655 S
C392 C391 1.399 . S
C392 C393 1.390 . S
C393 C388 1.392 . S
C393 C392 1.390 . S
C393 H405 0.929 . S
O394 Tb378 2.326 . S
O394 C382 1.242 . S
O395 Eu379 2.324 1_554 S
O395 C382 1.258 . S
O396 Tb378 2.500 . S
O396 C398 1.273 . S
O397 Tb378 2.473 . S
O397 C398 1.257 . S
C398 O396 1.273 . S
C398 O397 1.257 . S
O399 Eu379 2.326 . S
O399 C387 1.242 1_556 S
O400 Tb378 2.324 . S
O400 C387 1.258 . S
O401 Eu379 2.500 . S
O401 C384 1.273 . S
O402 Eu379 2.473 . S
O402 C384 1.257 . S
H403 C389 0.929 . S
H404 C391 0.931 1_455 S
H405 C393 0.929 . S
O406 Tb407 2.292 . S
O406 C409 1.255 . S
Tb407 O406 2.292 . S
Tb407 O423 2.326 . S
Tb407 O425 2.500 . S
Tb407 O426 2.473 . S
Tb407 O429 2.324 . S
Eu408 O412 2.292 . S
Eu408 C413 2.852 . S
Eu408 O424 2.324 . S
Eu408 O428 2.326 . S
Eu408 O430 2.500 . S
Eu408 O431 2.473 . S
C409 O406 1.255 . S
C409 O410 1.247 1_565 S
O410 C409 1.247 1_545 S
C411 O423 1.242 . S
C411 O424 1.258 . S
O412 Eu408 2.292 . S
O412 C414 1.255 . S
C413 Eu408 2.852 . S
C413 C417 1.503 1_554 S
C413 O430 1.273 . S
C413 O431 1.257 . S
C414 O412 1.255 . S
C414 O415 1.247 . S
O415 C414 1.247 . S
C416 O428 1.242 . S
C416 O429 1.258 . S
C417 C413 1.503 1_556 S
C417 C418 1.379 . S
C417 C422 1.392 . S
C418 C417 1.379 . S
C418 C419 1.404 . S
C418 H432 0.929 1_556 S
C419 C418 1.404 . S
C419 C420 1.389 . S
C420 C419 1.389 . S
C420 C421 1.399 . S
C420 H433 0.931 . S
C421 C420 1.399 . S
C421 C422 1.390 . S
C422 C417 1.392 . S
C422 C421 1.390 . S
C422 H434 0.929 . S
O423 Tb407 2.326 . S
O423 C411 1.242 . S
O424 Eu408 2.324 . S
O424 C411 1.258 . S
O425 Tb407 2.500 . S
O425 C427 1.273 . S
O426 Tb407 2.473 . S
O426 C427 1.257 . S
C427 O425 1.273 . S
C427 O426 1.257 . S
O428 Eu408 2.326 . S
O428 C416 1.242 . S
O429 Tb407 2.324 . S
O429 C416 1.258 . S
O430 Eu408 2.500 . S
O430 C413 1.273 . S
O431 Eu408 2.473 . S
O431 C413 1.257 . S
H432 C418 0.929 1_554 S
H433 C420 0.931 . S
H434 C422 0.929 . S
O435 Tb436 2.292 . S
O435 C438 1.255 . S
Tb436 O435 2.292 . S
Tb436 O452 2.326 . S
Tb436 O454 2.500 . S
Tb436 O455 2.473 . S
Tb436 O458 2.324 . S
Eu437 O441 2.292 . S
Eu437 C442 2.852 . S
Eu437 O453 2.324 . S
Eu437 O457 2.326 . S
Eu437 O459 2.500 . S
Eu437 O460 2.473 . S
C438 O435 1.255 . S
C438 O439 1.247 1_545 S
O439 C438 1.247 1_565 S
C440 O452 1.242 . S
C440 O453 1.258 . S
O441 Eu437 2.292 . S
O441 C443 1.255 . S
C442 Eu437 2.852 . S
C442 C446 1.503 1_554 S
C442 O459 1.273 . S
C442 O460 1.257 . S
C443 O441 1.255 . S
C443 O444 1.247 . S
O444 C443 1.247 . S
C445 O457 1.242 . S
C445 O458 1.258 . S
C446 C442 1.503 1_556 S
C446 C447 1.379 . S
C446 C451 1.392 . S
C447 C446 1.379 . S
C447 C448 1.404 . S
C447 H461 0.929 1_556 S
C448 C447 1.404 . S
C448 C449 1.389 . S
C449 C448 1.389 . S
C449 C450 1.399 . S
C449 H462 0.931 . S
C450 C449 1.399 . S
C450 C451 1.390 . S
C451 C446 1.392 . S
C451 C450 1.390 . S
C451 H463 0.929 . S
O452 Tb436 2.326 . S
O452 C440 1.242 . S
O453 Eu437 2.324 . S
O453 C440 1.258 . S
O454 Tb436 2.500 . S
O454 C456 1.273 . S
O455 Tb436 2.473 . S
O455 C456 1.257 . S
C456 O454 1.273 . S
C456 O455 1.257 . S
O457 Eu437 2.326 . S
O457 C445 1.242 . S
O458 Tb436 2.324 . S
O458 C445 1.258 . S
O459 Eu437 2.500 . S
O459 C442 1.273 . S
O460 Eu437 2.473 . S
O460 C442 1.257 . S
H461 C447 0.929 1_554 S
H462 C449 0.931 . S
H463 C451 0.929 . S
C3 C158 1.900 . S
C32 C129 1.900 . S
C61 C332 1.900 . S
C90 C303 1.900 . S
C42 C119 1.899 . S
C148 C13 1.899 . S
C177 C448 1.900 1_565 S
C419 C206 1.900 1_565 S
C390 C235 1.899 1_655 S
C361 C264 1.899 1_455 S
C100 C293 1.900 . S
C322 C71 1.900 . S
C351 C274 1.900 1_455 S
C380 C245 1.900 1_655 S
C409 C216 1.900 1_565 S
C187 C438 1.900 1_565 S
C15 C21 2.646 . S
C50 C44 2.646 . S
C79 C73 2.646 . S
C108 C102 2.646 . S
C131 C137 2.646 1_554 S
C160 C166 2.646 1_554 S
C189 C195 2.646 . S
C224 C218 2.646 . S
C247 C253 2.646 1_554 S
C276 C282 2.646 1_554 S
C311 C305 2.646 . S
C334 C340 2.646 . S
C369 C363 2.646 . S
C398 C392 2.646 . S
C421 C427 2.646 . S
C450 C456 2.646 . S
C10 C39 2.243 1_545 S
C68 C445 2.243 . S
C97 C416 2.243 . S
C155 C126 2.243 . S
C329 C184 2.243 . S
C213 C300 2.243 . S
C271 C242 2.243 1_665 S
C387 C358 2.243 1_655 S
C8 C179 1.657 . S
C37 C208 1.657 . S
C66 C5 1.656 . S
C34 C95 1.656 . S
C63 C124 1.657 . S
C92 C153 1.657 . S
C182 C121 1.657 . S
C150 C211 1.657 . S
C411 C240 1.657 . S
C269 C440 1.657 . S
C237 C298 1.657 . S
C327 C266 1.657 . S
C356 C295 1.657 . S
C324 C385 1.657 . S
C414 C353 1.656 . S
C443 C382 1.656 . S
