# Generated by pormake.
# Topology unf, (4)-cn, num edge types: 1
# Building blocks:
#     Node 0, Type 0, BuildingBlock: UXUYUI_clean_sbu_0, # of connection points: 4
#     Node 1, Type 0, BuildingBlock: UXUYUI_clean_sbu_0, # of connection points: 4
#     Node 2, Type 0, BuildingBlock: UXUYUI_clean_sbu_0, # of connection points: 4
#     Node 3, Type 0, BuildingBlock: UXUYUI_clean_sbu_0, # of connection points: 4
#     Node 4, Type 0, BuildingBlock: UXUYUI_clean_sbu_0, # of connection points: 4
#     Node 5, Type 0, BuildingBlock: UXUYUI_clean_sbu_0, # of connection points: 4
#     Node 6, Type 0, BuildingBlock: UXUYUI_clean_sbu_0, # of connection points: 4
#     Node 7, Type 0, BuildingBlock: UXUYUI_clean_sbu_0, # of connection points: 4
#     Node 8, Type 0, BuildingBlock: UXUYUI_clean_sbu_0, # of connection points: 4
#     Node 9, Type 0, BuildingBlock: UXUYUI_clean_sbu_0, # of connection points: 4
#     Node 10, Type 0, BuildingBlock: UXUYUI_clean_sbu_0, # of connection points: 4
#     Node 11, Type 0, BuildingBlock: UXUYUI_clean_sbu_0, # of connection points: 4
#     Edge 12, Type (0, 0), BuildingBlock: KIFKEQ_clean_linker_1, # of connection points: 2
#     Edge 13, Type (0, 0), BuildingBlock: KIFKEQ_clean_linker_1, # of connection points: 2
#     Edge 14, Type (0, 0), BuildingBlock: KIFKEQ_clean_linker_1, # of connection points: 2
#     Edge 15, Type (0, 0), BuildingBlock: KIFKEQ_clean_linker_1, # of connection points: 2
#     Edge 16, Type (0, 0), BuildingBlock: KIFKEQ_clean_linker_1, # of connection points: 2
#     Edge 17, Type (0, 0), BuildingBlock: KIFKEQ_clean_linker_1, # of connection points: 2
#     Edge 18, Type (0, 0), BuildingBlock: KIFKEQ_clean_linker_1, # of connection points: 2
#     Edge 19, Type (0, 0), BuildingBlock: KIFKEQ_clean_linker_1, # of connection points: 2
#     Edge 20, Type (0, 0), BuildingBlock: KIFKEQ_clean_linker_1, # of connection points: 2
#     Edge 21, Type (0, 0), BuildingBlock: KIFKEQ_clean_linker_1, # of connection points: 2
#     Edge 22, Type (0, 0), BuildingBlock: KIFKEQ_clean_linker_1, # of connection points: 2
#     Edge 23, Type (0, 0), BuildingBlock: KIFKEQ_clean_linker_1, # of connection points: 2
#     Edge 24, Type (0, 0), BuildingBlock: KIFKEQ_clean_linker_1, # of connection points: 2
#     Edge 25, Type (0, 0), BuildingBlock: KIFKEQ_clean_linker_1, # of connection points: 2
#     Edge 26, Type (0, 0), BuildingBlock: KIFKEQ_clean_linker_1, # of connection points: 2
#     Edge 27, Type (0, 0), BuildingBlock: KIFKEQ_clean_linker_1, # of connection points: 2
#     Edge 28, Type (0, 0), BuildingBlock: KIFKEQ_clean_linker_1, # of connection points: 2
#     Edge 29, Type (0, 0), BuildingBlock: KIFKEQ_clean_linker_1, # of connection points: 2
#     Edge 30, Type (0, 0), BuildingBlock: KIFKEQ_clean_linker_1, # of connection points: 2
#     Edge 31, Type (0, 0), BuildingBlock: KIFKEQ_clean_linker_1, # of connection points: 2
#     Edge 32, Type (0, 0), BuildingBlock: KIFKEQ_clean_linker_1, # of connection points: 2
#     Edge 33, Type (0, 0), BuildingBlock: KIFKEQ_clean_linker_1, # of connection points: 2
#     Edge 34, Type (0, 0), BuildingBlock: KIFKEQ_clean_linker_1, # of connection points: 2
#     Edge 35, Type (0, 0), BuildingBlock: KIFKEQ_clean_linker_1, # of connection points: 2
# Relax obj value: 0.347
# Max RMSD: 0.227
# Mean RMSD: 0.226
data_MOF--net-unf--node1-UXUYUI_clean_sbu_0--edge1-KIFKEQ_clean_linker_1
_symmetry_space_group_name_H-M    P1
_symmetry_Int_Tables_number       1
_symmetry_cell_setting            triclinic
loop_
_symmetry_equiv_pos_as_xyz
'x, y, z'
_cell_length_a     55.821151
_cell_length_b     55.84225
_cell_length_c     53.476819
_cell_angle_alpha  90.044799
_cell_angle_beta   89.896436
_cell_angle_gamma 120.03169
loop_
_atom_site_label
_atom_site_type_symbol
_atom_site_fract_x
_atom_site_fract_y
_atom_site_fract_z
_atom_type_partial_charge
Li0 Li 0.0284 0.36706 0.09196 0.0
Li1 Li 0.052 0.35429 0.12348 0.0
Li2 Li 0.04932 0.33913 0.08088 0.0
Li3 Li 0.00833 0.3206 0.10814 0.0
C4 C 0.08227 0.39549 0.07417 0.0
N5 N 0.11081 0.43173 0.03571 0.0
C6 C 0.10861 0.41814 0.07838 0.0
C7 C 0.07047 0.39119 0.05036 0.0
C8 C 0.1227 0.43625 0.05869 0.0
C9 C 0.08522 0.40978 0.03118 0.0
C10 C 0.99293 0.34775 0.13959 0.0
C11 C 0.96111 0.324 0.17344 0.0
N12 N 0.94389 0.33259 0.16444 0.0
C13 C 0.97509 0.35667 0.13091 0.0
C14 C 0.98606 0.33159 0.16123 0.0
C15 C 0.95033 0.34867 0.14365 0.0
C16 C 0.99785 0.38448 0.06449 0.0
N17 N 0.02091 0.3941 0.0788 0.0
C18 C 0.03357 0.44083 0.06963 0.0
C19 C 0.03855 0.42164 0.08188 0.0
C20 C 0.01022 0.43145 0.05413 0.0
C21 C 0.99209 0.40283 0.05189 0.0
H22 H 0.98412 0.36246 0.0626 0.0
H23 H 0.05678 0.42868 0.09338 0.0
C24 C 0.10325 0.37248 0.14487 0.0
N25 N 0.07711 0.36643 0.15067 0.0
C26 C 0.12256 0.37814 0.16373 0.0
C27 C 0.08808 0.3726 0.19418 0.0
C28 C 0.0693 0.3668 0.17467 0.0
C29 C 0.11501 0.37787 0.18886 0.0
H30 H 0.10872 0.37175 0.12559 0.0
H31 H 0.04833 0.36185 0.1787 0.0
C32 C 0.99788 0.30993 0.05704 0.0
N33 N 0.96873 0.2639 0.02701 0.0
C34 C -0.00057 0.286 0.06124 0.0
C35 C 0.98162 0.31042 0.03742 0.0
C36 C 0.98448 0.26295 0.04592 0.0
C37 C 0.96705 0.28696 0.02246 0.0
C38 C 0.0516 0.30726 0.12989 0.0
C39 C 0.07578 0.30618 0.1258 0.0
C40 C 0.0384 0.29937 0.15311 0.0
C41 C 0.08674 0.29792 0.14523 0.0
C42 C 0.04999 0.29124 0.17208 0.0
N43 N 0.07376 0.29074 0.1678 0.0
C44 C 0.09685 0.3423 0.06366 0.0
C45 C 0.06183 0.3231 0.03274 0.0
C46 C 0.1152 0.33936 0.0481 0.0
N47 N 0.07056 0.33357 0.05609 0.0
C48 C 0.07961 0.31982 0.01644 0.0
C49 C 0.10653 0.32757 0.0243 0.0
H50 H 0.10355 0.35161 0.08191 0.0
H51 H 0.04122 0.31733 0.02665 0.0
C52 C 0.95067 0.28947 0.10694 0.0
N53 N 0.9735 0.28819 0.11357 0.0
C54 C 0.92515 0.26532 0.10459 0.0
C55 C 0.94697 0.23891 0.11622 0.0
C56 C 0.97203 0.26366 0.1188 0.0
C57 C 0.92335 0.23961 0.10837 0.0
H58 H 0.95267 0.30905 0.10164 0.0
H59 H 0.99066 0.26311 0.12306 0.0
O60 O 0.06833 0.3776 0.09332 0.0
O61 O 0.01722 0.35528 0.12728 0.0
O62 O 0.01153 0.3325 0.07236 0.0
O63 O 0.041 0.31618 0.11136 0.0
H64 H 0.11804 0.42167 0.09668 0.0
H65 H 0.05016 0.37374 0.04669 0.0
H66 H 0.1431 0.45389 0.06169 0.0
H67 H 0.07632 0.40673 0.01269 0.0
H68 H 0.95548 0.31134 0.1901 0.0
H69 H 0.98017 0.3695 0.11445 0.0
H70 H -0.00018 0.325 0.1686 0.0
H71 H 0.93625 0.35526 0.137 0.0
H72 H 0.0479 0.4627 0.07214 0.0
H73 H 0.97405 0.3946 0.03994 0.0
H74 H 0.14282 0.38155 0.15865 0.0
H75 H 0.08143 0.37255 0.21322 0.0
H76 H 0.012 0.28513 0.07613 0.0
H77 H 0.98023 0.32872 0.03373 0.0
H78 H 0.98542 0.2443 0.04906 0.0
H79 H 0.95437 0.28709 0.00725 0.0
H80 H 0.08605 0.31167 0.10787 0.0
H81 H 0.01946 0.29962 0.15647 0.0
H82 H 0.10556 0.29721 0.14236 0.0
H83 H 0.04009 0.28533 0.19021 0.0
H84 H 0.13604 0.34639 0.05461 0.0
H85 H 0.07225 0.31089 0.99812 0.0
H86 H 0.90755 0.26665 0.09789 0.0
H87 H 0.94637 0.21941 0.119 0.0
Li88 Li 0.6427 0.70206 0.11777 0.0
Li89 Li 0.62735 0.6636 0.0888 0.0
Li90 Li 0.67488 0.6906 0.10127 0.0
Li91 Li 0.65359 0.71116 0.0735 0.0
C92 C 0.6546 0.6572 0.1395 0.0
N93 N 0.68016 0.63856 0.17202 0.0
C94 C 0.64576 0.629 0.14101 0.0
C95 C 0.67606 0.67583 0.15492 0.0
C96 C 0.65903 0.62 0.15747 0.0
C97 C 0.68884 0.66605 0.17112 0.0
C98 C 0.5906 0.68344 0.09871 0.0
C99 C 0.54944 0.68699 0.10292 0.0
N100 N 0.53865 0.66513 0.11892 0.0
C101 C 0.57913 0.66109 0.11532 0.0
C102 C 0.57567 0.69658 0.09254 0.0
C103 C 0.55283 0.6521 0.12527 0.0
C104 C 0.62678 0.73704 0.13993 0.0
N105 N 0.63316 0.71713 0.14542 0.0
C106 C 0.6296 0.72345 0.18917 0.0
C107 C 0.63406 0.70971 0.16943 0.0
C108 C 0.62438 0.74517 0.18409 0.0
C109 C 0.62258 0.75155 0.15899 0.0
H110 H 0.62595 0.74233 0.12063 0.0
H111 H 0.63874 0.6935 0.17329 0.0
C112 C 0.60501 0.60693 0.07705 0.0
N113 N 0.60017 0.62848 0.07615 0.0
C114 C 0.58887 0.58313 0.06294 0.0
C115 C 0.56309 0.60415 0.04732 0.0
C116 C 0.57943 0.62735 0.06196 0.0
C117 C 0.56814 0.58196 0.04735 0.0
H118 H 0.62262 0.609 0.08725 0.0
H119 H 0.57678 0.64518 0.06062 0.0
C120 C 0.68706 0.75265 0.11394 0.0
N121 N 0.70182 0.80193 0.13807 0.0
C122 C 0.68141 0.77202 0.10298 0.0
C123 C 0.70063 0.75858 0.137 0.0
C124 C 0.68895 0.79676 0.11551 0.0
C125 C 0.70777 0.78353 0.14896 0.0
C126 C 0.65287 0.66495 0.04552 0.0
C127 C 0.66246 0.64656 0.04083 0.0
C128 C 0.63487 0.66684 0.02854 0.0
C129 C 0.65369 0.63019 0.0193 0.0
C130 C 0.62655 0.65009 0.00725 0.0
N131 N 0.63604 0.63225 0.00312 0.0
C132 C 0.70787 0.6657 0.10043 0.0
C133 C 0.73222 0.71398 0.1082 0.0
C134 C 0.73268 0.66574 0.09704 0.0
N135 N 0.70816 0.68977 0.10497 0.0
C136 C 0.75752 0.71494 0.10519 0.0
C137 C 0.75794 0.69083 0.09836 0.0
H138 H 0.68835 0.6468 0.09782 0.0
H139 H 0.73178 0.73283 0.11161 0.0
C140 C 0.63819 0.73817 0.03847 0.0
N141 N 0.65924 0.73424 0.04578 0.0
C142 C 0.64173 0.75551 0.01839 0.0
C143 C 0.68843 0.76399 0.01338 0.0
C144 C 0.68396 0.74645 0.03365 0.0
C145 C 0.66719 0.76887 0.00564 0.0
H146 H 0.61875 0.72802 0.04844 0.0
H147 H 0.70023 0.74271 0.03988 0.0
O148 O 0.64208 0.66648 0.12328 0.0
O149 O 0.6166 0.69302 0.08909 0.0
O150 O 0.67937 0.72807 0.10215 0.0
O151 O 0.66039 0.6804 0.06697 0.0
H152 H 0.62867 0.61415 0.1298 0.0
H153 H 0.68292 0.69764 0.15419 0.0
H154 H 0.65247 0.59823 0.15874 0.0
H155 H 0.70566 0.68032 0.18297 0.0
H156 H 0.53769 0.69699 0.0983 0.0
H157 H 0.59033 0.6507 0.12051 0.0
H158 H 0.58432 0.71416 0.08004 0.0
H159 H 0.54371 0.63479 0.13808 0.0
H160 H 0.63058 0.71734 0.20817 0.0
H161 H 0.61903 0.7683 0.15401 0.0
H162 H 0.59366 0.56657 0.06302 0.0
H163 H 0.54732 0.60396 0.0354 0.0
H164 H 0.67093 0.76786 0.08519 0.0
H165 H 0.70559 0.74413 0.14563 0.0
H166 H 0.68447 0.8118 0.10733 0.0
H167 H 0.71809 0.78827 0.16689 0.0
H168 H 0.67635 0.64476 0.05374 0.0
H169 H 0.62681 0.68055 0.03206 0.0
H170 H 0.66085 0.61578 0.0155 0.0
H171 H 0.61239 0.65114 0.99411 0.0
H172 H 0.73189 0.64669 0.09154 0.0
H173 H 0.77649 0.73463 0.10679 0.0
H174 H 0.62495 0.75904 0.01342 0.0
H175 H 0.70828 0.77369 0.00397 0.0
Li176 Li 0.29175 0.93646 0.11782 0.0
Li177 Li 0.33316 0.95766 0.08693 0.0
Li178 Li 0.3108 0.98276 0.10084 0.0
Li179 Li 0.28544 0.94448 0.07345 0.0
C180 C 0.3405 0.98635 0.14209 0.0
N181 N 0.36051 0.02258 0.18201 0.0
C182 C 0.36861 0.00616 0.14345 0.0
C183 C 0.3227 0.98463 0.16127 0.0
C184 C 0.37829 0.0244 0.16371 0.0
C185 C 0.33316 0.0032 0.18124 0.0
C186 C 0.28487 0.89713 0.07256 0.0
C187 C 0.27745 0.87476 0.03243 0.0
N188 N 0.25452 0.85225 0.04167 0.0
C189 C 0.26131 0.87375 0.08169 0.0
C190 C 0.29311 0.89763 0.04777 0.0
C191 C 0.24623 0.85127 0.06577 0.0
C192 C 0.24506 0.8989 0.14355 0.0
N193 N 0.27311 0.91177 0.1446 0.0
C194 C 0.27091 0.88828 0.18265 0.0
C195 C 0.28628 0.90685 0.16355 0.0
C196 C 0.24184 0.87499 0.18218 0.0
C197 C 0.22897 0.88047 0.16224 0.0
H198 H 0.23516 0.9029 0.12803 0.0
H199 H 0.30865 0.91739 0.16386 0.0
C200 C 0.38919 0.98811 0.07633 0.0
N201 N 0.36728 0.96195 0.07566 0.0
C202 C 0.41362 0.99464 0.06378 0.0
C203 C 0.39285 0.9469 0.05077 0.0
C204 C 0.36885 0.94123 0.06384 0.0
C205 C 0.41538 0.97413 0.05 0.0
H206 H 0.38713 0.00427 0.08541 0.0
H207 H 0.35103 0.92062 0.06348 0.0
C208 C 0.2517 0.95981 0.10987 0.0
N209 N 0.21139 0.97248 0.12307 0.0
C210 C 0.23618 0.96359 0.09141 0.0
C211 C 0.24633 0.962 0.13506 0.0
C212 C 0.21601 0.97012 0.09845 0.0
C213 C 0.22598 0.96854 0.14135 0.0
C214 C 0.32469 -0.00016 0.05193 0.0
C215 C 0.30289 0.00475 0.04733 0.0
C216 C 0.35093 0.01791 0.04219 0.0
C217 C 0.30776 0.02787 0.03332 0.0
C218 C 0.35496 0.04076 0.0282 0.0
N219 N 0.33348 0.04524 0.02411 0.0
C220 C 0.34816 0.03875 0.10137 0.0
C221 C 0.30218 0.02943 0.1071 0.0
C222 C 0.35712 0.06639 0.09603 0.0
N223 N 0.32091 0.02066 0.10565 0.0
C224 C 0.31026 0.05694 0.10183 0.0
C225 C 0.33777 0.0754 0.09488 0.0
H226 H 0.3625 0.03117 0.09961 0.0
H227 H 0.28061 0.01485 0.11015 0.0
C228 C 0.23356 0.90997 0.05255 0.0
N229 N 0.25998 0.92925 0.04671 0.0
C230 C 0.21427 0.89638 0.03367 0.0
C231 C 0.24968 0.92307 0.00305 0.0
C232 C 0.26833 0.93617 0.02259 0.0
C233 C 0.22228 0.90272 0.0085 0.0
H234 H 0.2277 0.9047 0.07193 0.0
H235 H 0.28962 0.95137 0.01853 0.0
O236 O 0.3305 0.96843 0.1223 0.0
O237 O 0.29937 0.9197 0.08762 0.0
O238 O 0.27143 0.95321 0.10331 0.0
O239 O 0.32043 0.97762 0.06608 0.0
H240 H 0.38281 0.00751 0.12903 0.0
H241 H 0.30109 0.96902 0.16081 0.0
H242 H 0.39996 0.03996 0.1649 0.0
H243 H 0.31955 0.00216 0.19616 0.0
H244 H 0.28342 0.87497 0.01314 0.0
H245 H 0.25463 0.87302 0.1008 0.0
H246 H 0.31103 0.91575 0.04028 0.0
H247 H 0.22788 0.83308 0.07255 0.0
H248 H 0.28159 0.88466 0.19778 0.0
H249 H 0.20664 0.87032 0.16093 0.0
H250 H 0.4306 0.01578 0.06418 0.0
H251 H 0.39311 0.93042 0.04031 0.0
H252 H 0.23952 0.96143 0.07183 0.0
H253 H 0.2576 0.95855 0.14965 0.0
H254 H 0.20397 0.97323 0.08434 0.0
H255 H 0.22171 0.9704 0.16078 0.0
H256 H 0.28252 0.99101 0.05471 0.0
H257 H 0.36804 0.0144 0.04543 0.0
H258 H 0.2911 0.03201 0.0298 0.0
H259 H 0.37519 0.05497 0.02064 0.0
H260 H 0.37857 0.08001 0.09094 0.0
H261 H 0.29461 0.06297 0.10093 0.0
H262 H 0.19355 0.88044 0.03874 0.0
H263 H 0.25667 0.92865 0.98393 0.0
Li264 Li 0.65318 0.94329 0.42589 0.0
Li265 Li 0.67478 0.98294 0.39961 0.0
Li266 Li 0.62677 0.96402 0.41013 0.0
Li267 Li 0.64348 0.93869 0.38081 0.0
C268 C 0.67639 0.99289 0.45214 0.0
N269 N 0.71341 0.01959 0.49051 0.0
C270 C 0.70202 0.99416 0.45226 0.0
C271 C 0.66956 0.00521 0.47152 0.0
C272 C 0.72047 0.00777 0.4718 0.0
C273 C 0.68856 0.01859 0.49077 0.0
C274 C 0.70208 0.95124 0.38948 0.0
C275 C 0.73153 0.95381 0.35528 0.0
N276 N 0.74988 0.95373 0.37193 0.0
C277 C 0.72106 0.9508 0.40623 0.0
C278 C 0.7072 0.95244 0.36378 0.0
C279 C 0.74518 0.95225 0.39699 0.0
C280 C 0.65972 0.90147 0.44566 0.0
N281 N 0.65641 0.92299 0.45274 0.0
C282 C 0.65205 0.90933 0.49562 0.0
C283 C 0.65292 0.92747 0.47715 0.0
C284 C 0.65422 0.8863 0.48859 0.0
C285 C 0.65849 0.88265 0.46336 0.0
H286 H 0.66216 0.89833 0.42607 0.0
H287 H 0.64973 0.94441 0.48219 0.0
C288 C 0.70552 0.03913 0.40756 0.0
N289 N 0.70742 0.01843 0.39609 0.0
C290 C 0.72893 0.06501 0.41077 0.0
C291 C 0.75564 0.04866 0.38845 0.0
C292 C 0.73162 0.02295 0.38578 0.0
C293 C 0.75466 0.06981 0.4019 0.0
H294 H 0.68599 0.03505 0.41548 0.0
H295 H 0.73273 0.00647 0.3764 0.0
C296 C 0.60182 0.90214 0.42459 0.0
N297 N 0.57521 0.85811 0.45717 0.0
C298 C 0.59793 0.87619 0.41809 0.0
C299 C 0.59196 0.90566 0.44754 0.0
C300 C 0.58448 0.85419 0.43485 0.0
C301 C 0.57861 0.88315 0.46378 0.0
C302 C 0.65683 0.99713 0.36062 0.0
C303 C 0.65519 0.02081 0.36573 0.0
C304 C 0.67233 0.9969 0.34018 0.0
C305 C 0.66959 0.04413 0.35056 0.0
C306 C 0.68643 0.02062 0.32545 0.0
N307 N 0.68482 0.04357 0.33092 0.0
C308 C 0.60949 -0.00097 0.42795 0.0
C309 C 0.57231 0.9535 0.42103 0.0
C310 C 0.59181 0.00654 0.43942 0.0
N311 N 0.59959 0.97284 0.41941 0.0
C312 C 0.55384 0.96009 0.43255 0.0
C313 C 0.5637 0.98678 0.44237 0.0
H314 H 0.63144 0.01371 0.42692 0.0
H315 H 0.56516 0.9327 0.41442 0.0
C316 C 0.64467 0.89528 0.35813 0.0
N317 N 0.63594 0.91371 0.35413 0.0
C318 C 0.64196 0.87668 0.33951 0.0
C319 C 0.62005 0.89541 0.31322 0.0
C320 C 0.62361 0.91407 0.33233 0.0
C321 C 0.62973 0.87675 0.31666 0.0
H322 H 0.65418 0.89537 0.37576 0.0
H323 H 0.6169 0.92902 0.32971 0.0
O324 O 0.65802 0.97989 0.4331 0.0
O325 O 0.67812 0.94933 0.39822 0.0
O326 O 0.61585 0.92418 0.40886 0.0
O327 O 0.64342 0.97433 0.37561 0.0
H328 H 0.70769 0.98498 0.4373 0.0
H329 H 0.64978 0.00441 0.47169 0.0
H330 H 0.74042 0.00898 0.47207 0.0
H331 H 0.68355 0.02821 0.50591 0.0
H332 H 0.7358 0.9549 0.33545 0.0
H333 H 0.71716 0.94919 0.42616 0.0
H334 H 0.69261 0.9524 0.35052 0.0
H335 H 0.7601 0.95206 0.40975 0.0
H336 H 0.64856 0.91256 0.51495 0.0
H337 H 0.66038 0.86512 0.45737 0.0
H338 H 0.72709 0.08044 0.42153 0.0
H339 H 0.77495 0.0516 0.38091 0.0
H340 H 0.60549 0.87314 0.40042 0.0
H341 H 0.59508 0.92571 0.45295 0.0
H342 H 0.58151 0.83404 0.43016 0.0
H343 H 0.57109 0.88563 0.4817 0.0
H344 H 0.64313 0.02127 0.38138 0.0
H345 H 0.67345 0.9786 0.33575 0.0
H346 H 0.6687 0.06268 0.35442 0.0
H347 H 0.69864 0.02079 0.30965 0.0
H348 H 0.60038 0.02717 0.4471 0.0
H349 H 0.53227 0.94431 0.43436 0.0
H350 H 0.64937 0.86238 0.34292 0.0
H351 H 0.61058 0.89602 0.29575 0.0
Li352 Li 0.04999 0.70556 0.42071 0.0
Li353 Li 0.00916 0.68477 0.39285 0.0
Li354 Li 0.02822 0.65683 0.40733 0.0
Li355 Li 0.05258 0.69512 0.37742 0.0
C356 C 0.99776 0.6811 0.44453 0.0
N357 N 0.96717 0.69373 0.47713 0.0
C358 C 0.99622 0.70514 0.4411 0.0
C359 C 0.98388 0.66362 0.46466 0.0
C360 C 0.98056 0.71109 0.45772 0.0
C361 C 0.96855 0.67037 0.48094 0.0
C362 C 0.05598 0.7439 0.37549 0.0
C363 C 0.06094 0.7653 0.33518 0.0
N364 N 0.08504 0.78751 0.3429 0.0
C365 C 0.08061 0.7671 0.38312 0.0
C366 C 0.04587 0.74314 0.35143 0.0
C367 C 0.09505 0.78889 0.36634 0.0
C368 C 0.09882 0.74399 0.44297 0.0
N369 N 0.07108 0.73012 0.44723 0.0
C370 C 0.07792 0.75038 0.48792 0.0
C371 C 0.06043 0.73275 0.46932 0.0
C372 C 0.10659 0.76476 0.48394 0.0
C373 C 0.11704 0.76138 0.46118 0.0
H374 H 0.10681 0.74131 0.42539 0.0
H375 H 0.03853 0.72103 0.47287 0.0
C376 C 0.95214 0.65908 0.39741 0.0
N377 N 0.9742 0.68227 0.3881 0.0
C378 C 0.92685 0.65795 0.40076 0.0
C379 C 0.94694 0.70398 0.38334 0.0
C380 C 0.97195 0.70424 0.38038 0.0
C381 C 0.92429 0.68102 0.39459 0.0
H382 H 0.95479 0.64227 0.40407 0.0
H383 H 0.98999 0.72267 0.3736 0.0
C384 C 0.0818 0.68042 0.42529 0.0
N385 N 0.1093 0.6697 0.46262 0.0
C386 C 0.10771 0.68324 0.42057 0.0
C387 C 0.0699 0.67224 0.44904 0.0
C388 C 0.12128 0.67771 0.43969 0.0
C389 C 0.08413 0.66688 0.46764 0.0
C390 C 0.99312 0.64519 0.3598 0.0
C391 C 0.97424 0.61792 0.36656 0.0
C392 C 0.98679 0.65758 0.34017 0.0
C393 C 0.94906 0.60367 0.35386 0.0
C394 C 0.96139 0.64266 0.32795 0.0
N395 N 0.94319 0.61625 0.33501 0.0
C396 C 0.99474 0.60807 0.43224 0.0
C397 C 0.037 0.6116 0.41912 0.0
C398 C 0.98805 0.58444 0.4461 0.0
N399 N 0.01915 0.62149 0.4197 0.0
C400 C 0.03111 0.58791 0.43277 0.0
C401 C 0.00669 0.57452 0.44706 0.0
H402 H 0.98085 0.61629 0.43207 0.0
H403 H 0.05635 0.6228 0.40906 0.0
C404 C 0.10438 0.72835 0.35608 0.0
N405 N 0.07785 0.70939 0.35018 0.0
C406 C 0.12335 0.74345 0.33729 0.0
C407 C 0.08774 0.71806 0.30658 0.0
C408 C 0.06937 0.70352 0.32602 0.0
C409 C 0.11497 0.73885 0.31214 0.0
H410 H 0.11039 0.73274 0.3755 0.0
H411 H 0.04812 0.68838 0.32189 0.0
O412 O 0.01199 0.67419 0.42788 0.0
O413 O 0.04194 0.72202 0.39143 0.0
O414 O 0.06842 0.68596 0.40672 0.0
O415 O 0.01771 0.65959 0.37226 0.0
H416 H 0.00701 0.71911 0.42583 0.0
H417 H 0.98495 0.64503 0.46773 0.0
H418 H 0.97909 0.72953 0.4552 0.0
H419 H 0.9577 0.657 0.49658 0.0
H420 H 0.0535 0.76481 0.31642 0.0
H421 H 0.08857 0.76826 0.40174 0.0
H422 H 0.02679 0.72546 0.34525 0.0
H423 H 0.11425 0.80687 0.37195 0.0
H424 H 0.0692 0.75237 0.50538 0.0
H425 H 0.13907 0.77236 0.45738 0.0
H426 H 0.91024 0.64003 0.40994 0.0
H427 H 0.94581 0.72213 0.37816 0.0
H428 H 0.11723 0.68967 0.40231 0.0
H429 H 0.04991 0.67002 0.45312 0.0
H430 H 0.14135 0.67978 0.43629 0.0
H431 H 0.07515 0.6605 0.48608 0.0
H432 H 0.9789 0.60786 0.38148 0.0
H433 H 0.0012 0.67856 0.33455 0.0
H434 H 0.93419 0.58261 0.35901 0.0
H435 H 0.95613 0.65209 0.31287 0.0
H436 H 0.96875 0.57437 0.45642 0.0
H437 H 0.04606 0.58095 0.43308 0.0
H438 H 0.14393 0.75949 0.34255 0.0
H439 H 0.08048 0.7135 0.28746 0.0
Li440 Li 0.30781 0.32431 0.39263 0.0
Li441 Li 0.2872 0.34038 0.42247 0.0
Li442 Li 0.29157 0.35469 0.37896 0.0
Li443 Li 0.33426 0.37166 0.4072 0.0
C444 C 0.25024 0.29567 0.37928 0.0
N445 N 0.21141 0.2517 0.35135 0.0
C446 C 0.22832 0.27291 0.39113 0.0
C447 C 0.25218 0.2962 0.35322 0.0
C448 C 0.20897 0.25084 0.37669 0.0
C449 C 0.2324 0.27375 0.33943 0.0
C450 C 0.31688 0.31592 0.44159 0.0
C451 C 0.33554 0.29331 0.46682 0.0
N452 N 0.30991 0.27057 0.46847 0.0
C453 C 0.2907 0.29233 0.44361 0.0
C454 C 0.33949 0.31645 0.45336 0.0
C455 C 0.2876 0.26964 0.45728 0.0
C456 C 0.34076 0.30036 0.38862 0.0
N457 N 0.31392 0.29396 0.38675 0.0
C458 C 0.29851 0.246 0.39273 0.0
C459 C 0.29294 0.26726 0.38764 0.0
C460 C 0.32594 0.25235 0.39683 0.0
C461 C 0.34729 0.27974 0.39314 0.0
H462 H 0.35704 0.32175 0.38895 0.0
H463 H 0.27175 0.26256 0.38699 0.0
C464 C 0.23623 0.32133 0.44615 0.0
N465 N 0.26366 0.33217 0.4507 0.0
C466 C 0.21802 0.31691 0.46577 0.0
C467 C 0.25663 0.33481 0.49447 0.0
C468 C 0.27409 0.33855 0.47427 0.0
C469 C 0.22823 0.32405 0.49026 0.0
H470 H 0.22867 0.31692 0.42715 0.0
H471 H 0.29608 0.34731 0.47725 0.0
C472 C 0.34506 0.35331 0.356 0.0
N473 N 0.37833 0.34274 0.3249 0.0
C474 C 0.37387 0.36921 0.35779 0.0
C475 C 0.33321 0.33234 0.33804 0.0
C476 C 0.39032 0.36348 0.342 0.0
C477 C 0.35037 0.32722 0.32261 0.0
C478 C 0.29307 0.38968 0.42692 0.0
C479 C 0.26759 0.38829 0.42346 0.0
C480 C 0.30795 0.40106 0.44894 0.0
C481 C 0.2573 0.39814 0.44222 0.0
C482 C 0.29697 0.41072 0.46724 0.0
N483 N 0.27207 0.40903 0.46354 0.0
C484 C 0.24584 0.35329 0.35764 0.0
C485 C 0.28675 0.38003 0.33402 0.0
C486 C 0.2303 0.35841 0.34037 0.0
N487 N 0.27344 0.36398 0.35415 0.0
C488 C 0.27198 0.38585 0.31625 0.0
C489 C 0.2433 0.37494 0.31931 0.0
H490 H 0.23583 0.34051 0.37382 0.0
H491 H 0.30877 0.38826 0.33177 0.0
C492 C 0.38738 0.39065 0.4239 0.0
N493 N 0.36981 0.39972 0.41732 0.0
C494 C 0.41261 0.40853 0.43521 0.0
C495 C 0.40183 0.44529 0.43164 0.0
C496 C 0.37664 0.42655 0.42047 0.0
C497 C 0.41995 0.43618 0.4397 0.0
H498 H 0.38137 0.36921 0.42099 0.0
H499 H 0.36216 0.43314 0.41512 0.0
O500 O 0.26924 0.31746 0.39325 0.0
O501 O 0.32066 0.33781 0.42714 0.0
O502 O 0.32872 0.35871 0.37143 0.0
O503 O 0.30305 0.37929 0.40916 0.0
H504 H 0.22642 0.2722 0.4113 0.0
H505 H 0.26853 0.31389 0.3437 0.0
H506 H 0.19202 0.23303 0.38562 0.0
H507 H 0.23368 0.2739 0.31923 0.0
H508 H 0.3529 0.29339 0.47588 0.0
H509 H 0.27303 0.29127 0.43433 0.0
H510 H 0.35993 0.33442 0.45196 0.0
H511 H 0.26749 0.2512 0.45881 0.0
H512 H 0.28129 0.22531 0.39571 0.0
H513 H 0.36878 0.28559 0.39569 0.0
H514 H 0.19635 0.30905 0.46169 0.0
H515 H 0.26524 0.34056 0.5131 0.0
H516 H 0.38346 0.38592 0.37115 0.0
H517 H 0.31105 0.31985 0.33624 0.0
H518 H 0.41264 0.37556 0.34329 0.0
H519 H 0.34145 0.31087 0.30882 0.0
H520 H 0.25576 0.37945 0.40659 0.0
H521 H 0.32751 0.40193 0.45207 0.0
H522 H 0.23753 0.39703 0.43986 0.0
H523 H 0.30816 0.41938 0.48445 0.0
H524 H 0.20821 0.34904 0.3433 0.0
H525 H 0.28291 0.39888 0.30042 0.0
H526 H 0.4256 0.40038 0.44132 0.0
H527 H 0.40679 0.46649 0.43436 0.0
Li528 Li 0.94161 0.6546 0.9294 0.0
Li529 Li 0.95766 0.6258 0.91287 0.0
Li530 Li 0.98458 0.67557 0.90632 0.0
Li531 Li 0.93796 0.64597 0.88506 0.0
C532 C 0.97419 0.64374 0.96127 0.0
N533 N 0.97053 0.61929 0.00712 0.0
C534 C 0.94902 0.6214 0.96927 0.0
C535 C 0.99744 0.65369 0.97667 0.0
C536 C 0.94761 0.60931 0.99248 0.0
C537 C 0.99518 0.64105 -0.00023 0.0
C538 C 0.89982 0.59381 0.90302 0.0
C539 C 0.88619 0.55732 0.87267 0.0
N540 N 0.86089 0.54319 0.88374 0.0
C541 C 0.8737 0.57895 0.91411 0.0
C542 C 0.90613 0.58295 0.88216 0.0
C543 C 0.85429 0.55339 0.90408 0.0
C544 C 0.89533 0.65066 0.95278 0.0
N545 N 0.92283 0.66065 0.95607 0.0
C546 C 0.92181 0.68044 0.99541 0.0
C547 C 0.93626 0.67521 0.97685 0.0
C548 C 0.89349 0.6709 0.99219 0.0
C549 C 0.88019 0.65566 0.97065 0.0
H550 H 0.88533 0.63935 0.93594 0.0
H551 H 0.95826 0.68322 0.97878 0.0
C552 C 0.98934 0.60166 0.92581 0.0
N553 N 0.96278 0.59538 0.92169 0.0
C554 C 0.99494 0.58272 0.9376 0.0
C555 C 0.94576 0.55101 0.94066 0.0
C556 C 0.9411 0.57047 0.92866 0.0
C557 C 0.97294 0.55732 0.94577 0.0
H558 H 0.00616 0.62213 0.92161 0.0
H559 H 0.92015 0.56621 0.92656 0.0
C560 C 0.94608 0.70033 0.91198 0.0
N561 N 0.93056 0.73526 0.93401 0.0
C562 C 0.92036 0.69761 0.90651 0.0
C563 C 0.96401 0.72093 0.92848 0.0
C564 C 0.91287 0.71544 0.91789 0.0
C565 C 0.95576 0.73837 0.93946 0.0
C566 C 0.98848 0.63663 0.86772 0.0
C567 C 0.01565 0.64507 0.87478 0.0
C568 C 0.97718 0.61965 0.84675 0.0
C569 C 0.03076 0.63562 0.86131 0.0
C570 C 0.99296 0.61067 0.83373 0.0
N571 N 0.01918 0.61872 0.84125 0.0
C572 C 0.03999 0.70691 0.91907 0.0
C573 C 0.0249 0.73001 0.89163 0.0
C574 C 0.06556 0.73085 0.92191 0.0
N575 N 0.02019 0.70709 0.90452 0.0
C576 C 0.05028 0.75453 0.89394 0.0
C577 C 0.07079 0.75531 0.90972 0.0
H578 H 0.03548 0.68841 0.92927 0.0
H579 H 0.00856 0.72956 0.88043 0.0
C580 C 0.88871 0.63182 0.86018 0.0
N581 N 0.91628 0.64219 0.85656 0.0
C582 C 0.87174 0.62968 0.84021 0.0
C583 C 0.91193 0.64953 0.8132 0.0
C584 C 0.92812 0.65093 0.83369 0.0
C585 C 0.88336 0.63882 0.81641 0.0
H586 H 0.87998 0.62568 0.87871 0.0
H587 H 0.95017 0.65937 0.83147 0.0
O588 O 0.97635 0.65556 0.93832 0.0
O589 O 0.91884 0.61905 0.91244 0.0
O590 O 0.95342 0.68252 0.90169 0.0
O591 O 0.97347 0.64598 0.88049 0.0
H592 H 0.93077 0.61332 0.95769 0.0
H593 H 0.01708 0.67095 0.97083 0.0
H594 H 0.9283 0.59195 0.99883 0.0
H595 H 0.01303 0.64851 0.01185 0.0
H596 H 0.89084 0.54866 0.85654 0.0
H597 H 0.86848 0.58711 0.93029 0.0
H598 H 0.92626 0.5941 0.87356 0.0
H599 H 0.83399 0.54166 0.91246 0.0
H600 H 0.93278 0.69248 0.01168 0.0
H601 H 0.85832 0.64779 0.96763 0.0
H602 H 0.01619 0.58862 0.94172 0.0
H603 H 0.92823 0.53164 0.94676 0.0
H604 H 0.90623 0.68168 0.89384 0.0
H605 H 0.98391 0.72315 0.93305 0.0
H606 H 0.89295 0.71346 0.91398 0.0
H607 H 0.96933 0.75428 0.95241 0.0
H608 H 0.02497 0.65868 0.89057 0.0
H609 H 0.95656 0.6137 0.84037 0.0
H610 H 0.05172 0.6418 0.86676 0.0
H611 H 0.98441 0.59741 0.81756 0.0
H612 H 0.08045 0.73052 0.93464 0.0
H613 H 0.05349 0.77285 0.8841 0.0
H614 H 0.84989 0.62174 0.84351 0.0
H615 H 0.9216 0.65674 0.79509 0.0
Li616 Li 0.33352 0.3103 0.90488 0.0
Li617 Li 0.38305 0.33632 0.90622 0.0
Li618 Li 0.35828 0.29617 0.87653 0.0
Li619 Li 0.35918 0.28964 0.9226 0.0
C620 C 0.34526 0.3401 0.86065 0.0
N621 N 0.31816 0.35604 0.82718 0.0
C622 C 0.34789 0.36629 0.86249 0.0
C623 C 0.32898 0.3221 0.84166 0.0
C624 C 0.33398 0.37394 0.84543 0.0
C625 C 0.31541 0.33052 0.82496 0.0
C626 C 0.36747 0.34224 0.95199 0.0
C627 C 0.40042 0.36843 0.9843 0.0
N628 N 0.38952 0.38539 0.9859 0.0
C629 C 0.35653 0.35987 0.95404 0.0
C630 C 0.38948 0.34645 0.96735 0.0
C631 C 0.36797 0.38156 0.97129 0.0
C632 C 0.29255 0.30443 0.93607 0.0
N633 N 0.30063 0.31175 0.91198 0.0
C634 C 0.26344 0.32074 0.90533 0.0
C635 C 0.28623 0.31921 0.89636 0.0
C636 C 0.2556 0.31452 0.93051 0.0
C637 C 0.27009 0.30566 0.94575 0.0
H638 H 0.30396 0.29802 0.94798 0.0
H639 H 0.29239 0.32424 0.87711 0.0
C640 C 0.43953 0.37561 0.91581 0.0
N641 N 0.41395 0.37217 0.91187 0.0
C642 C 0.46056 0.40041 0.92573 0.0
C643 C 0.42896 0.41815 0.92576 0.0
C644 C 0.40873 0.39318 0.91559 0.0
C645 C 0.45506 0.42172 0.93178 0.0
H646 H 0.44327 0.3587 0.91236 0.0
H647 H 0.38818 0.38984 0.91242 0.0
C648 C 0.29965 0.25668 0.90272 0.0
N649 N 0.24316 0.22696 0.91071 0.0
C650 C 0.2891 0.24259 0.92526 0.0
C651 C 0.28146 0.25551 0.88419 0.0
C652 C 0.26048 0.2277 0.92895 0.0
C653 C 0.25298 0.24043 0.88861 0.0
C654 C 0.40614 0.29415 0.90558 0.0
C655 C 0.40588 0.27331 0.89087 0.0
C656 C 0.42146 0.30216 0.92773 0.0
C657 C 0.42086 0.26076 0.89863 0.0
C658 C 0.43613 0.28907 0.93487 0.0
N659 N 0.43553 0.26881 0.9203 0.0
C660 C 0.38288 0.28997 0.8322 0.0
C661 C 0.33627 0.25543 0.83971 0.0
C662 C 0.38444 0.27497 0.81191 0.0
N663 N 0.35917 0.27969 0.84583 0.0
C664 C 0.33674 0.24008 0.81939 0.0
C665 C 0.36121 0.24951 0.80555 0.0
H666 H 0.40092 0.30911 0.83782 0.0
H667 H 0.31793 0.24745 0.85119 0.0
C668 C 0.35635 0.26973 0.97198 0.0
N669 N 0.35855 0.26502 0.94737 0.0
C670 C 0.35483 0.25099 0.99008 0.0
C671 C 0.35795 0.22304 0.9571 0.0
C672 C 0.35889 0.24202 0.93967 0.0
C673 C 0.35564 0.22721 0.98274 0.0
H674 H 0.35519 0.28772 0.97753 0.0
H675 H 0.35974 0.23834 0.91994 0.0
O676 O 0.35908 0.33245 0.87696 0.0
O677 O 0.35689 0.32117 0.93487 0.0
O678 O 0.32764 0.27198 0.89902 0.0
O679 O 0.39134 0.3065 0.89844 0.0
H680 H 0.36048 0.38057 0.87695 0.0
H681 H 0.3267 0.30181 0.83987 0.0
H682 H 0.33577 0.3941 0.8467 0.0
H683 H 0.30268 0.31674 0.81024 0.0
H684 H 0.41759 0.37204 0.99615 0.0
H685 H 0.33976 0.35724 0.9421 0.0
H686 H 0.39819 0.33302 0.96607 0.0
H687 H 0.35984 0.39547 0.97294 0.0
H688 H 0.25263 0.32747 0.89295 0.0
H689 H 0.26429 0.29998 0.96511 0.0
H690 H 0.48056 0.40246 0.92945 0.0
H691 H 0.4235 0.43371 0.93031 0.0
H692 H 0.30282 0.24334 0.93986 0.0
H693 H 0.28923 0.26651 0.86673 0.0
H694 H 0.25203 0.21681 0.94635 0.0
H695 H 0.23868 0.23954 0.87451 0.0
H696 H 0.39394 0.26658 0.87382 0.0
H697 H 0.42182 0.31812 0.93942 0.0
H698 H 0.42072 0.24452 0.88748 0.0
H699 H 0.44795 0.29498 0.95204 0.0
H700 H 0.40367 0.28286 0.80164 0.0
H701 H 0.31854 0.22034 0.81531 0.0
H702 H 0.35244 0.25483 0.00951 0.0
H703 H 0.35905 0.2053 0.95044 0.0
Li704 Li 0.71015 0.06113 0.88573 0.0
Li705 Li 0.71361 0.06256 0.93242 0.0
Li706 Li 0.69492 0.0203 0.90989 0.0
Li707 Li 0.66769 0.04195 0.91317 0.0
C708 C 0.74757 0.03852 0.90432 0.0
N709 N 0.77571 0.00993 0.89783 0.0
C710 C 0.75947 0.03291 0.92482 0.0
C711 C 0.75011 0.0297 0.88049 0.0
C712 C 0.77354 0.01836 0.92116 0.0
C713 C 0.76443 0.0153 0.87759 0.0
C714 C 0.71552 0.10904 0.90693 0.0
C715 C 0.72199 0.15477 0.90141 0.0
N716 N 0.74965 0.16502 0.89854 0.0
C717 C 0.74403 0.12003 0.90388 0.0
C718 C 0.70439 0.12652 0.90559 0.0
C719 C 0.76093 0.14838 0.89967 0.0
C720 C 0.7145 0.08976 0.84019 0.0
N721 N 0.72794 0.08173 0.85635 0.0
C722 C 0.76965 0.10574 0.83259 0.0
C723 C 0.75506 0.08965 0.85308 0.0
C724 C 0.7564 0.11435 0.81557 0.0
C725 C 0.72851 0.10637 0.81957 0.0
H726 H 0.69305 0.08358 0.84354 0.0
H727 H 0.76562 0.08402 0.86671 0.0
C728 C 0.73928 0.0661 0.97822 0.0
N729 N 0.73462 0.08164 0.96149 0.0
C730 C 0.75512 0.07822 0.9996 0.0
C731 C 0.76013 0.12194 0.98674 0.0
C732 C 0.74391 0.10889 0.96582 0.0
C733 C 0.76629 0.10669 0.00387 0.0
H734 H 0.73065 0.0442 0.97491 0.0
H735 H 0.73892 0.12072 0.95316 0.0
C736 C 0.66578 0.00431 0.86664 0.0
N737 N 0.64823 0.95965 0.83481 0.0
C738 C 0.6428 0.97883 0.87289 0.0
C739 C 0.67963 0.00718 0.84406 0.0
C740 C 0.63433 0.95646 0.8566 0.0
C741 C 0.67047 0.98433 0.82824 0.0
C742 C 0.66919 0.03115 0.96249 0.0
C743 C 0.6556 0.00936 0.97948 0.0
C744 C 0.6707 0.05649 0.96741 0.0
C745 C 0.64408 0.01338 0.00118 0.0
C746 C 0.65892 0.05969 0.98932 0.0
N747 N 0.64597 0.03825 0.00561 0.0
C748 C 0.68699 0.97371 0.93498 0.0
C749 C 0.6953 0.97085 0.89192 0.0
C750 C 0.68362 0.94765 0.93926 0.0
N751 N 0.69219 0.98462 0.91158 0.0
C752 C 0.69261 0.9448 0.89545 0.0
C753 C 0.68626 0.93285 0.91932 0.0
H754 H 0.68559 0.98535 0.95044 0.0
H755 H 0.69997 0.98 0.87353 0.0
C756 C 0.62428 0.05485 0.92016 0.0
N757 N 0.63119 0.03474 0.9191 0.0
C758 C 0.59874 0.04899 0.93021 0.0
C759 C 0.58786 0.0018 0.93705 0.0
C760 C 0.6134 0.00851 0.92678 0.0
C761 C 0.58044 0.02231 0.93946 0.0
H762 H 0.63907 0.07566 0.9144 0.0
H763 H 0.61989 0.99323 0.92652 0.0
O764 O 0.73343 0.05249 0.90756 0.0
O765 O 0.69844 0.08118 0.91012 0.0
O766 O 0.67427 0.02654 0.88219 0.0
O767 O 0.6799 0.02717 0.94079 0.0
H768 H 0.7579 0.03967 0.94335 0.0
H769 H 0.74066 0.03342 0.86445 0.0
H770 H 0.78276 0.0138 0.93689 0.0
H771 H 0.76637 0.0082 0.85928 0.0
H772 H 0.71364 0.16854 0.90035 0.0
H773 H 0.75306 0.10687 0.90495 0.0
H774 H 0.68237 0.11836 0.90768 0.0
H775 H 0.78301 0.15714 0.89733 0.0
H776 H 0.7913 0.11199 0.8304 0.0
H777 H 0.71769 0.11275 0.80683 0.0
H778 H 0.75859 0.0654 0.01257 0.0
H779 H 0.7683 0.14394 0.98902 0.0
H780 H 0.6318 0.97628 0.89024 0.0
H781 H 0.69732 0.02681 0.83884 0.0
H782 H 0.61672 0.93656 0.86128 0.0
H783 H 0.68106 0.9862 0.81077 0.0
H784 H 0.65366 0.98941 0.97589 0.0
H785 H 0.68067 0.07355 0.95447 0.0
H786 H 0.63352 0.99668 0.01445 0.0
H787 H 0.65999 0.07919 0.99331 0.0
H788 H 0.6793 0.93923 0.95804 0.0
H789 H 0.69499 0.93394 0.87972 0.0
H790 H 0.59379 0.06539 0.93148 0.0
H791 H 0.57484 0.98115 0.94438 0.0
Li792 Li 0.3493 0.0613 0.56967 0.0
Li793 Li 0.3506 0.05509 0.61578 0.0
Li794 Li 0.37836 0.04344 0.58807 0.0
Li795 Li 0.3297 0.01568 0.58965 0.0
C796 C 0.39847 0.10143 0.60776 0.0
N797 N 0.43095 0.14339 0.64073 0.0
C798 C 0.39303 0.12295 0.61218 0.0
C799 C 0.42044 0.10127 0.6201 0.0
C800 C 0.40966 0.14394 0.62895 0.0
C801 C 0.43666 0.12271 0.63666 0.0
C802 C 0.29059 0.02772 0.59746 0.0
C803 C 0.25129 0.00109 0.62435 0.0
N804 N 0.23443 0.99271 0.60401 0.0
C805 C 0.27287 0.01896 0.57684 0.0
C806 C 0.27975 0.01876 0.62143 0.0
C807 C 0.24454 0.0012 0.58053 0.0
C808 C 0.32789 0.07164 0.52544 0.0
N809 N 0.34712 0.08316 0.54387 0.0
C810 C 0.36434 0.12816 0.52651 0.0
C811 C 0.36553 0.11072 0.54443 0.0
C812 C 0.34414 0.11707 0.5077 0.0
C813 C 0.32603 0.08835 0.50698 0.0
H814 H 0.31391 0.04954 0.5252 0.0
H815 H 0.38109 0.11919 0.55886 0.0
C816 C 0.36841 0.07865 0.66455 0.0
N817 N 0.3501 0.0732 0.64565 0.0
C818 C 0.37037 0.09617 0.68413 0.0
C819 C 0.33366 0.10077 0.66496 0.0
C820 C 0.33276 0.08367 0.64562 0.0
C821 C 0.35297 0.10762 0.68427 0.0
H822 H 0.38226 0.07038 0.66383 0.0
H823 H 0.31898 0.07964 0.63001 0.0
C824 C 0.36663 0.02467 0.5412 0.0
N825 N 0.39735 0.01618 0.5054 0.0
C826 C 0.36756 0.00011 0.54106 0.0
C827 C 0.38112 0.04481 0.523 0.0
C828 C 0.38328 0.99625 0.52284 0.0
C829 C 0.39658 0.04014 0.50509 0.0
C830 C 0.34338 -0.00075 0.63143 0.0
C831 C 0.3425 0.97517 0.62284 0.0
C832 C 0.33116 -0.00101 0.65434 0.0
C833 C 0.32918 0.95112 0.63727 0.0
C834 C 0.31807 0.97453 0.66823 0.0
N835 N 0.31735 0.9513 0.65947 0.0
C836 C 0.43026 0.06444 0.56618 0.0
C837 C 0.41409 0.02112 0.58615 0.0
C838 C 0.45086 0.06181 0.55386 0.0
N839 N 0.41177 0.0437 0.58109 0.0
C840 C 0.43433 0.01757 0.57415 0.0
C841 C 0.45223 0.03753 0.55688 0.0
H842 H 0.42762 0.08199 0.56228 0.0
H843 H 0.39891 0.00484 0.59786 0.0
C844 C 0.29556 0.97017 0.56065 0.0
N845 N 0.29938 0.97874 0.58483 0.0
C846 C 0.27431 0.94396 0.55421 0.0
C847 C 0.26028 0.93579 0.59757 0.0
C848 C 0.28198 0.96232 0.6032 0.0
C849 C 0.25648 0.92626 0.57278 0.0
H850 H 0.30882 0.98384 0.54617 0.0
H851 H 0.28477 0.96976 0.62221 0.0
O852 O 0.38188 0.08021 0.59202 0.0
O853 O 0.31846 0.04462 0.59418 0.0
O854 O 0.35187 0.02909 0.55925 0.0
O855 O 0.35669 0.02314 0.61781 0.0
H856 H 0.37578 0.12313 0.60318 0.0
H857 H 0.42475 0.08463 0.61717 0.0
H858 H 0.40552 0.16056 0.63272 0.0
H859 H 0.45368 0.1228 0.64639 0.0
H860 H 0.24264 0.99388 0.64277 0.0
H861 H 0.28093 0.02556 0.55817 0.0
H862 H 0.2932 0.02505 0.63757 0.0
H863 H 0.23061 0.99411 0.56473 0.0
H864 H 0.37906 0.15013 0.52738 0.0
H865 H 0.31019 0.07905 0.49275 0.0
H866 H 0.38554 0.10105 0.69874 0.0
H867 H 0.32023 0.10958 0.66422 0.0
H868 H 0.35655 0.98438 0.55509 0.0
H869 H 0.38073 0.06398 0.52291 0.0
H870 H 0.38439 0.97746 0.52264 0.0
H871 H 0.40807 0.05562 0.49101 0.0
H872 H 0.35153 0.97489 0.60501 0.0
H873 H 0.3317 0.01745 0.6613 0.0
H874 H 0.32815 0.93228 0.63076 0.0
H875 H 0.30845 0.97401 0.68596 0.0
H876 H 0.46455 0.07791 0.54105 0.0
H877 H 0.43451 0.99846 0.57692 0.0
H878 H 0.27159 0.93781 0.53473 0.0
H879 H 0.24684 0.92285 0.61242 0.0
Li880 Li 0.98581 0.311 0.59183 0.0
Li881 Li 0.95839 0.33197 0.58737 0.0
Li882 Li 0.94287 0.29101 0.61594 0.0
Li883 Li 0.94273 0.28723 0.56912 0.0
C884 C 0.99767 0.33781 0.63504 0.0
N885 N 0.04197 0.35555 0.66731 0.0
C886 C 0.02318 0.36088 0.629 0.0
C887 C 0.99465 0.32383 0.65754 0.0
C888 C 0.04534 0.36949 0.64555 0.0
C889 C 0.01731 0.33312 0.6736 0.0
C890 C 0.98522 0.3448 0.54533 0.0
C891 C 0.9776 0.36989 0.51251 0.0
N892 N 0.00346 0.39173 0.51625 0.0
C893 C 0.01172 0.36756 0.54887 0.0
C894 C 0.96803 0.34599 0.52699 0.0
C895 C 0.02057 0.39104 0.53394 0.0
C896 C 0.03371 0.32144 0.56697 0.0
N897 N 0.02249 0.31584 0.59029 0.0
C898 C 0.06175 0.31419 0.60623 0.0
C899 C 0.03581 0.31188 0.60981 0.0
C900 C 0.074 0.3209 0.58244 0.0
C901 C 0.05966 0.3245 0.56269 0.0
H902 H 0.02225 0.32295 0.55143 0.0
H903 H 0.0261 0.3063 0.62799 0.0
C904 C 0.93721 0.36504 0.56958 0.0
N905 N 0.95888 0.36599 0.58197 0.0
C906 C 0.93991 0.38885 0.55849 0.0
C907 C 0.98615 0.41474 0.57542 0.0
C908 C 0.98253 0.39036 0.58617 0.0
C909 C 0.96512 0.41383 0.56035 0.0
H910 H 0.91853 0.3455 0.56678 0.0
H911 H -0.00052 0.39053 0.59602 0.0
C912 C 0.97092 0.25802 0.59337 0.0
N913 N 0.00255 0.23275 0.5904 0.0
C914 C 0.97827 0.25232 0.57005 0.0
C915 C 0.97956 0.2508 0.61519 0.0
C916 C 0.99431 0.23957 0.56895 0.0
C917 C 0.99555 0.23803 0.61329 0.0
C918 C 0.89472 0.28291 0.58149 0.0
C919 C 0.8743 0.26155 0.59592 0.0
C920 C 0.88827 0.28759 0.55738 0.0
C921 C 0.84785 0.24514 0.58594 0.0
C922 C 0.8616 0.2707 0.54805 0.0
N923 N 0.84211 0.24999 0.56241 0.0
C924 C 0.91162 0.28348 0.66017 0.0
C925 C 0.91561 0.24501 0.64723 0.0
C926 C 0.89299 0.26768 0.67904 0.0
N927 N 0.92219 0.27181 0.64461 0.0
C928 C 0.89734 0.22859 0.66591 0.0
C929 C 0.88523 0.23965 0.68182 0.0
H930 H 0.91682 0.30472 0.65728 0.0
H931 H 0.92379 0.23608 0.63422 0.0
C932 C 0.93175 0.26853 0.51853 0.0
N933 N 0.924 0.26188 0.5428 0.0
C934 C 0.91747 0.24943 0.49957 0.0
C935 C 0.88817 0.21681 0.5311 0.0
C936 C 0.90303 0.23647 0.54939 0.0
C937 C 0.89529 0.22319 0.50578 0.0
H938 H 0.94916 0.28852 0.51389 0.0
H939 H 0.89773 0.2316 0.5689 0.0
O940 O 0.97564 0.32916 0.61922 0.0
O941 O 0.97601 0.32173 0.56005 0.0
O942 O 0.95589 0.2712 0.59482 0.0
O943 O 0.92086 0.29904 0.59087 0.0
H944 H 0.02599 0.37178 0.61157 0.0
H945 H 0.97507 0.30596 0.66253 0.0
H946 H 0.06525 0.38719 0.64104 0.0
H947 H 0.01529 0.32247 0.69104 0.0
H948 H 0.96441 0.37114 0.4984 0.0
H949 H 0.02516 0.36735 0.56329 0.0
H950 H 0.94732 0.32886 0.5242 0.0
H951 H 0.04096 0.40882 0.53658 0.0
H952 H 0.07211 0.31081 0.62179 0.0
H953 H 0.06813 0.32886 0.54392 0.0
H954 H 0.92299 0.38743 0.54747 0.0
H955 H 0.00594 0.43356 0.57727 0.0
H956 H 0.97195 0.25802 0.553 0.0
H957 H 0.97441 0.25546 0.63339 0.0
H958 H 0.0003 0.23517 0.55104 0.0
H959 H 0.00254 0.23249 0.63 0.0
H960 H 0.87873 0.25755 0.6146 0.0
H961 H 0.90382 0.30371 0.54576 0.0
H962 H 0.8319 0.2285 0.5969 0.0
H963 H 0.85645 0.27397 0.52935 0.0
H964 H 0.88398 0.27703 0.69064 0.0
H965 H 0.89243 0.20728 0.66759 0.0
H966 H 0.92397 0.255 0.48033 0.0
H967 H 0.87105 0.19695 0.53674 0.0
Li968 Li 0.70691 0.64549 0.6141 0.0
Li969 Li 0.68788 0.67047 0.59414 0.0
Li970 Li 0.66693 0.62143 0.58457 0.0
Li971 Li 0.71286 0.65495 0.56875 0.0
C972 C 0.65815 0.65011 0.63427 0.0
N973 N 0.63773 0.67488 0.6659 0.0
C974 C 0.67619 0.67259 0.64908 0.0
C975 C 0.62969 0.64003 0.63576 0.0
C976 C 0.66549 0.68488 0.66489 0.0
C977 C 0.61977 0.65288 0.65181 0.0
C978 C 0.74256 0.70849 0.60375 0.0
C979 C 0.76371 0.75709 0.594 0.0
N980 N 0.77356 0.76337 0.61777 0.0
C981 C 0.75307 0.71545 0.62803 0.0
C982 C 0.74803 0.72948 0.58654 0.0
C983 C 0.76861 0.7433 0.63477 0.0
C984 C 0.74878 0.64015 0.63538 0.0
N985 N 0.72584 0.6414 0.64162 0.0
C986 C 0.73445 0.6394 0.6851 0.0
C987 C 0.71818 0.64068 0.66587 0.0
C988 C 0.75861 0.63854 0.67924 0.0
C989 C 0.76539 0.63848 0.65392 0.0
H990 H 0.75426 0.64068 0.6159 0.0
H991 H 0.69973 0.64154 0.67031 0.0
C992 C 0.65368 0.69008 0.5816 0.0
N993 N 0.67672 0.69775 0.59552 0.0
C994 C 0.64547 0.70916 0.57579 0.0
C995 C 0.68325 0.74316 0.60078 0.0
C996 C 0.69051 0.72315 0.60645 0.0
C997 C 0.66128 0.73654 0.58421 0.0
H998 H 0.64249 0.66945 0.57386 0.0
H999 H 0.70793 0.72843 0.61852 0.0
C1000 C 0.69694 0.59459 0.59512 0.0
N1001 N 0.68827 0.54506 0.61458 0.0
C1002 C 0.71192 0.58256 0.58593 0.0
C1003 C 0.67757 0.58147 0.61423 0.0
C1004 C 0.70723 0.5575 0.59601 0.0
C1005 C 0.67348 0.55643 0.62381 0.0
C1006 C 0.67877 0.6578 0.53675 0.0
C1007 C 0.66868 0.63631 0.5193 0.0
C1008 C 0.69101 0.68519 0.52855 0.0
C1009 C 0.67127 0.64263 0.49381 0.0
C1010 C 0.6932 0.69065 0.50291 0.0
N1011 N 0.68339 0.66945 0.48622 0.0
C1012 C 0.61069 0.59263 0.57442 0.0
C1013 C 0.63382 0.56872 0.56185 0.0
C1014 C 0.58658 0.57326 0.56233 0.0
N1015 N 0.63366 0.59011 0.57388 0.0
C1016 C 0.61022 0.54903 0.54922 0.0
C1017 C 0.58639 0.55151 0.549 0.0
H1018 H 0.61164 0.61064 0.5829 0.0
H1019 H 0.65268 0.5678 0.5608 0.0
C1020 C 0.75967 0.68728 0.53821 0.0
N1021 N 0.73696 0.66189 0.54118 0.0
C1022 C 0.77816 0.6922 0.5187 0.0
C1023 C 0.74953 0.64471 0.50552 0.0
C1024 C 0.73151 0.64074 0.52529 0.0
C1025 C 0.77344 0.67066 0.50224 0.0
H1026 H 0.76381 0.70359 0.55128 0.0
H1027 H 0.71341 0.62065 0.5283 0.0
O1028 O 0.6684 0.63821 0.61832 0.0
O1029 O 0.72776 0.68131 0.59672 0.0
O1030 O 0.7016 0.61928 0.58558 0.0
O1031 O 0.67692 0.65207 0.56175 0.0
H1032 H 0.69826 0.68067 0.64814 0.0
H1033 H 0.61535 0.62239 0.62479 0.0
H1034 H 0.67927 0.70243 0.6763 0.0
H1035 H 0.59779 0.64534 0.65309 0.0
H1036 H 0.76791 0.77352 0.58092 0.0
H1037 H 0.74936 0.69952 0.64151 0.0
H1038 H 0.73989 0.72454 0.56775 0.0
H1039 H 0.7768 0.74897 0.65352 0.0
H1040 H 0.72849 0.63976 0.70431 0.0
H1041 H 0.78337 0.63719 0.64838 0.0
H1042 H 0.62778 0.7029 0.56368 0.0
H1043 H 0.69579 0.76395 0.60798 0.0
H1044 H 0.72704 0.59254 0.57119 0.0
H1045 H 0.6658 0.59046 0.62161 0.0
H1046 H 0.71867 0.54794 0.58909 0.0
H1047 H 0.65856 0.54603 0.6386 0.0
H1048 H 0.65919 0.615 0.52535 0.0
H1049 H 0.69876 0.70203 0.54185 0.0
H1050 H 0.66369 0.62623 0.48008 0.0
H1051 H 0.70269 0.71176 0.49628 0.0
H1052 H 0.56885 0.57625 0.56212 0.0
H1053 H 0.61088 0.53258 0.53905 0.0
H1054 H 0.79618 0.7126 0.51674 0.0
H1055 H 0.74528 0.62741 0.49351 0.0
H1056 H 0.11671 0.33826 0.97405 0.0
H1057 H 0.13944 0.307 0.03819 0.0
H1058 H 0.15195 0.33518 0.94896 0.0
H1059 H 0.17441 0.30408 0.01335 0.0
H1060 H 0.25669 0.33884 0.97469 0.0
H1061 H 0.21898 0.34095 0.99531 0.0
H1062 H 0.16603 0.30074 0.93192 0.0
H1063 H 0.20412 0.29846 0.9111 0.0
C1064 C 0.12894 0.33039 0.98266 0.0
C1065 C 0.1257 0.32333 0.00817 0.0
C1066 C 0.14906 0.32866 0.96833 0.0
C1067 C 0.1662 0.31988 0.97936 0.0
C1068 C 0.16194 0.31157 0.00452 0.0
C1069 C 0.14194 0.31325 0.01874 0.0
C1070 C 0.237 0.33037 0.96514 0.0
C1071 C 0.23316 0.318 0.94151 0.0
C1072 C 0.21542 0.33159 0.97694 0.0
C1073 C 0.18945 0.32052 0.96541 0.0
C1074 C 0.18587 0.30937 0.94122 0.0
C1075 C 0.20761 0.30809 0.92934 0.0
H1076 H 0.71363 0.81896 0.99728 0.0
H1077 H 0.63129 0.76488 0.96884 0.0
H1078 H 0.71842 0.85541 0.96922 0.0
H1079 H 0.63599 0.80167 0.94106 0.0
H1080 H 0.64146 0.88892 0.93962 0.0
H1081 H 0.63767 0.84574 0.95397 0.0
H1082 H 0.71925 0.87157 0.92468 0.0
H1083 H 0.72288 0.91501 0.91017 0.0
C1084 C 0.69684 0.81455 0.98456 0.0
C1085 C 0.67189 0.78916 0.98561 0.0
C1086 C 0.69962 0.83547 0.96844 0.0
C1087 C 0.67746 0.83143 0.95316 0.0
C1088 C 0.65325 0.80542 0.95291 0.0
C1089 C 0.65053 0.78445 0.96891 0.0
C1090 C 0.65828 0.88503 0.93578 0.0
C1091 C 0.68249 0.90516 0.92398 0.0
C1092 C 0.65608 0.86028 0.94381 0.0
C1093 C 0.6782 0.85534 0.94046 0.0
C1094 C 0.70195 0.87495 0.92755 0.0
C1095 C 0.70398 0.89964 0.91917 0.0
H1096 H 0.16752 0.88713 0.0061 0.0
H1097 H 0.23197 0.88265 0.96521 0.0
H1098 H 0.13342 0.8557 0.97637 0.0
H1099 H 0.19797 0.8522 0.93459 0.0
H1100 H 0.12339 0.76452 0.91646 0.0
H1101 H 0.16204 0.8048 0.93556 0.0
H1102 H 0.11487 0.84695 0.93509 0.0
H1103 H 0.07561 0.80602 0.91732 0.0
C1104 C 0.17446 0.87976 0.99051 0.0
C1105 C 0.20237 0.88705 0.98825 0.0
C1106 C 0.15496 0.86203 0.9732 0.0
C1107 C 0.16291 0.85126 0.9531 0.0
C1108 C 0.1911 0.85982 0.95003 0.0
C1109 C 0.21063 0.87751 0.96744 0.0
C1110 C 0.12136 0.78248 0.92021 0.0
C1111 C 0.0962 0.7818 0.91583 0.0
C1112 C 0.14368 0.80577 0.93089 0.0
C1113 C 0.14143 0.829 0.93725 0.0
C1114 C 0.11708 0.82918 0.9309 0.0
C1115 C 0.09468 0.80581 0.92038 0.0
H1116 H 0.66301 0.78161 0.60739 0.0
H1117 H 0.65082 0.74151 0.53562 0.0
H1118 H 0.65781 0.81839 0.58753 0.0
H1119 H 0.6457 0.77767 0.51611 0.0
H1120 H 0.61651 0.8318 0.4873 0.0
H1121 H 0.6144 0.79541 0.51397 0.0
H1122 H 0.68296 0.85683 0.55743 0.0
H1123 H 0.68427 0.8934 0.53103 0.0
C1124 C 0.65906 0.78056 0.58748 0.0
C1125 C 0.65686 0.7584 0.57317 0.0
C1126 C 0.65611 0.80157 0.57614 0.0
C1127 C 0.65092 0.80072 0.55032 0.0
C1128 C 0.64883 0.77857 0.53615 0.0
C1129 C 0.65175 0.75776 0.54739 0.0
C1130 C 0.6308 0.83746 0.50282 0.0
C1131 C 0.65081 0.86519 0.507 0.0
C1132 C 0.62969 0.8167 0.51803 0.0
C1133 C 0.6489 0.8232 0.53748 0.0
C1134 C 0.66783 0.85117 0.54264 0.0
C1135 C 0.6687 0.87206 0.52753 0.0
H1136 H 0.10387 0.8064 0.50782 0.0
H1137 H 0.15238 0.76599 0.50285 0.0
H1138 H 0.13906 0.84205 0.53451 0.0
H1139 H 0.18715 0.80089 0.53038 0.0
H1140 H 0.25924 0.8898 0.54083 0.0
H1141 H 0.22121 0.84752 0.52409 0.0
H1142 H 0.16427 0.85637 0.57292 0.0
H1143 H 0.20251 0.8998 0.58878 0.0
C1144 C 0.12177 0.80481 0.51303 0.0
C1145 C 0.12572 0.7838 0.50305 0.0
C1146 C 0.14188 0.82512 0.52844 0.0
C1147 C 0.16616 0.82456 0.53436 0.0
C1148 C 0.16906 0.80235 0.5257 0.0
C1149 C 0.14915 0.78231 0.51002 0.0
C1150 C 0.23862 0.88268 0.54808 0.0
C1151 C 0.23379 0.89837 0.56578 0.0
C1152 C 0.2168 0.85816 0.53874 0.0
C1153 C 0.18957 0.84853 0.54705 0.0
C1154 C 0.18493 0.86342 0.56585 0.0
C1155 C 0.20686 0.88813 0.57513 0.0
H1156 H 0.08905 0.28212 0.59127 0.0
H1157 H 0.11907 0.36394 0.56118 0.0
H1158 H 0.13023 0.28221 0.57499 0.0
H1159 H 0.16002 0.36415 0.54496 0.0
H1160 H 0.177 0.28066 0.5011 0.0
H1161 H 0.1431 0.28031 0.53021 0.0
H1162 H 0.20301 0.36266 0.55466 0.0
H1163 H 0.23685 0.36313 0.52525 0.0
C1164 C 0.10487 0.30039 0.58182 0.0
C1165 C 0.10098 0.32298 0.57733 0.0
C1166 C 0.12827 0.30039 0.57237 0.0
C1167 C 0.14826 0.32313 0.55861 0.0
C1168 C 0.14516 0.34644 0.55569 0.0
C1169 C 0.12168 0.34629 0.56484 0.0
C1170 C 0.18304 0.29848 0.51302 0.0
C1171 C 0.20943 0.32201 0.51077 0.0
C1172 C 0.16374 0.29819 0.52986 0.0
C1173 C 0.17039 0.32152 0.54463 0.0
C1174 C 0.1973 0.34446 0.54339 0.0
C1175 C 0.2167 0.34465 0.52669 0.0
H1176 H 0.79792 0.73141 0.06942 0.0
H1177 H 0.77605 0.65358 0.10502 0.0
H1178 H 0.83528 0.73022 0.04726 0.0
H1179 H 0.81302 0.65196 0.08189 0.0
H1180 H 0.89247 0.66538 0.04314 0.0
H1181 H 0.86423 0.67396 0.07312 0.0
H1182 H 0.83107 0.69941 0.01236 0.0
H1183 H 0.85933 0.69122 0.98274 0.0
C1184 C 0.80148 0.71438 0.07308 0.0
C1185 C 0.78375 0.69244 0.08888 0.0
C1186 C 0.82273 0.71356 0.06009 0.0
C1187 C 0.82673 0.69078 0.0625 0.0
C1188 C 0.81041 0.6698 0.07967 0.0
C1189 C 0.78909 0.67061 0.09273 0.0
C1190 C 0.87936 0.67314 0.03636 0.0
C1191 C 0.87786 0.67746 0.01066 0.0
C1192 C 0.86315 0.6779 0.05344 0.0
C1193 C 0.84555 0.68745 0.04508 0.0
C1194 C 0.84471 0.69243 0.01943 0.0
C1195 C 0.86063 0.68744 0.00242 0.0
H1196 H 0.37672 0.23647 0.03061 0.0
H1197 H 0.32947 0.17089 0.97764 0.0
H1198 H 0.37409 0.20212 0.06064 0.0
H1199 H 0.3284 0.13724 0.00712 0.0
H1200 H 0.36746 0.09558 0.05213 0.0
H1201 H 0.37277 0.13423 0.027 0.0
H1202 H 0.3291 0.15338 0.08289 0.0
H1203 H 0.32334 0.11413 0.10829 0.0
C1204 C 0.36565 0.21485 0.02537 0.0
C1205 C 0.35358 0.20657 0.0015 0.0
C1206 C 0.3643 0.19529 0.04254 0.0
C1207 C 0.3513 0.16726 0.03595 0.0
C1208 C 0.33887 0.15887 0.0124 0.0
C1209 C 0.33974 0.17824 0.99547 0.0
C1210 C 0.35954 0.10834 0.05946 0.0
C1211 C 0.34493 0.10176 0.08221 0.0
C1212 C 0.36244 0.13034 0.04495 0.0
C1213 C 0.35119 0.1465 0.05304 0.0
C1214 C 0.33797 0.14112 0.0764 0.0
C1215 C 0.33463 0.1187 0.09081 0.0
H1216 H 0.86943 0.22203 0.12059 0.0
H1217 H 0.9209 0.20059 0.07671 0.0
H1218 H 0.82818 0.18453 0.10091 0.0
H1219 H 0.88021 0.16416 0.05619 0.0
H1220 H 0.80472 0.09541 0.02425 0.0
H1221 H 0.83928 0.12174 0.05575 0.0
H1222 H 0.80719 0.17774 0.06188 0.0
H1223 H 0.77119 0.15004 0.0321 0.0
C1224 C 0.87181 0.20897 0.107 0.0
C1225 C 0.89826 0.21411 0.10016 0.0
C1226 C 0.84826 0.18765 0.09555 0.0
C1227 C 0.85075 0.17144 0.07665 0.0
C1228 C 0.87726 0.17578 0.07089 0.0
C1229 C 0.90071 0.19676 0.08262 0.0
C1230 C 0.80444 0.11282 0.03286 0.0
C1231 C 0.78533 0.1208 0.02523 0.0
C1232 C 0.8246 0.12822 0.05072 0.0
C1233 C 0.82649 0.15226 0.06112 0.0
C1234 C 0.80642 0.15932 0.0545 0.0
C1235 C 0.78599 0.14366 0.03697 0.0
H1236 H 0.33714 0.11105 0.45681 0.0
H1237 H 0.34484 0.16498 0.51798 0.0
H1238 H 0.3346 0.14327 0.42728 0.0
H1239 H 0.34191 0.19672 0.48884 0.0
H1240 H 0.36417 0.26221 0.43303 0.0
H1241 H 0.36995 0.2289 0.45713 0.0
H1242 H 0.30505 0.16225 0.41463 0.0
H1243 H 0.30036 0.19598 0.3891 0.0
C1244 C 0.33809 0.12967 0.46392 0.0
C1245 C 0.34155 0.13573 0.48963 0.0
C1246 C 0.33663 0.14808 0.44706 0.0
C1247 C 0.3385 0.17277 0.45567 0.0
C1248 C 0.34122 0.17831 0.48148 0.0
C1249 C 0.34282 0.16008 0.49821 0.0
C1250 C 0.35171 0.24057 0.42808 0.0
C1251 C 0.33178 0.23186 0.40899 0.0
C1252 C 0.3547 0.22138 0.44231 0.0
C1253 C 0.33757 0.1929 0.43816 0.0
C1254 C 0.31856 0.18408 0.4183 0.0
C1255 C 0.31571 0.20339 0.40383 0.0
H1256 H 0.87635 0.16769 0.50681 0.0
H1257 H 0.8784 0.23189 0.46026 0.0
H1258 H 0.84643 0.13302 0.47678 0.0
H1259 H 0.84941 0.19716 0.42941 0.0
H1260 H 0.76363 0.12273 0.40552 0.0
H1261 H 0.80163 0.16152 0.42701 0.0
H1262 H 0.84262 0.11382 0.43614 0.0
H1263 H 0.80388 0.0745 0.41608 0.0
C1264 C 0.87062 0.17443 0.49001 0.0
C1265 C 0.87945 0.20251 0.4861 0.0
C1266 C 0.8538 0.15456 0.47255 0.0
C1267 C 0.8455 0.16228 0.45062 0.0
C1268 C 0.85521 0.1905 0.44622 0.0
C1269 C 0.87202 0.21042 0.46378 0.0
C1270 C 0.78087 0.1206 0.41192 0.0
C1271 C 0.7804 0.09529 0.40948 0.0
C1272 C 0.80285 0.14299 0.42399 0.0
C1273 C 0.82497 0.14062 0.43371 0.0
C1274 C 0.8256 0.11611 0.42937 0.0
C1275 C 0.80352 0.09366 0.4175 0.0
H1276 H 0.92346 0.7253 0.41533 0.0
H1277 H 0.86973 0.63982 0.3946 0.0
H1278 H 0.88533 0.72536 0.43722 0.0
H1279 H 0.83186 0.63951 0.41769 0.0
H1280 H 0.76455 0.65138 0.45386 0.0
H1281 H 0.79932 0.65646 0.4231 0.0
H1282 H 0.86398 0.70396 0.47652 0.0
H1283 H 0.82956 0.69889 0.50701 0.0
C1284 C 0.90336 0.70669 0.41487 0.0
C1285 C 0.89976 0.68245 0.40339 0.0
C1286 C 0.88157 0.70663 0.42777 0.0
C1287 C 0.85573 0.68229 0.42965 0.0
C1288 C 0.8515 0.65862 0.41661 0.0
C1289 C 0.87329 0.65872 0.40357 0.0
C1290 C 0.78622 0.66296 0.45895 0.0
C1291 C 0.79428 0.67481 0.48286 0.0
C1292 C 0.8061 0.66591 0.44133 0.0
C1293 C 0.83442 0.6808 0.44728 0.0
C1294 C 0.8424 0.69294 0.47107 0.0
C1295 C 0.82262 0.68999 0.48861 0.0
H1296 H 0.24867 0.37706 0.2682 0.0
H1297 H 0.20016 0.38417 0.3278 0.0
H1298 H 0.2188 0.38138 0.23745 0.0
H1299 H 0.16996 0.38773 0.29699 0.0
H1300 H 0.10325 0.35092 0.23389 0.0
H1301 H 0.13567 0.35398 0.26585 0.0
H1302 H 0.20383 0.41484 0.22173 0.0
H1303 H 0.17139 0.41252 0.18997 0.0
C1304 C 0.23194 0.37997 0.27477 0.0
C1305 C 0.22669 0.37998 0.30051 0.0
C1306 C 0.2148 0.38239 0.25714 0.0
C1307 C 0.19194 0.38466 0.26486 0.0
C1308 C 0.18719 0.38556 0.29053 0.0
C1309 C 0.20445 0.38341 0.30815 0.0
C1310 C 0.12506 0.36547 0.2312 0.0
C1311 C 0.13464 0.38143 0.20926 0.0
C1312 C 0.14365 0.36713 0.2495 0.0
C1313 C 0.17227 0.38457 0.24621 0.0
C1314 C 0.18189 0.40097 0.22459 0.0
C1315 C 0.16328 0.39955 0.20639 0.0
H1316 H 0.59148 0.76888 0.18657 0.0
H1317 H 0.65315 0.76041 0.22823 0.0
H1318 H 0.59248 0.80096 0.21784 0.0
H1319 H 0.65243 0.79059 0.26044 0.0
H1320 H 0.67134 0.87021 0.29821 0.0
H1321 H 0.66863 0.83769 0.26651 0.0
H1322 H 0.58082 0.80689 0.25886 0.0
H1323 H 0.58406 0.84057 0.28995 0.0
C1324 C 0.60509 0.77363 0.20248 0.0
C1325 C 0.62246 0.76219 0.20463 0.0
C1326 C 0.60537 0.79178 0.22065 0.0
C1327 C 0.62276 0.79869 0.24162 0.0
C1328 C 0.63924 0.78632 0.24428 0.0
C1329 C 0.63926 0.76851 0.22596 0.0
C1330 C 0.6515 0.85651 0.28965 0.0
C1331 C 0.62789 0.85776 0.29651 0.0
C1332 C 0.64985 0.83768 0.27163 0.0
C1333 C 0.62441 0.81928 0.2603 0.0
C1334 C 0.60081 0.82087 0.26697 0.0
C1335 C 0.60259 0.84008 0.28479 0.0
H1336 H 0.24732 0.83326 0.20323 0.0
H1337 H 0.19766 0.87261 0.20624 0.0
H1338 H 0.21691 0.79918 0.23405 0.0
H1339 H 0.16767 0.83909 0.23728 0.0
H1340 H 0.10199 0.75954 0.27127 0.0
H1341 H 0.13316 0.79143 0.23993 0.0
H1342 H 0.20253 0.79293 0.27719 0.0
H1343 H 0.17106 0.7597 0.30783 0.0
C1344 C 0.23013 0.83482 0.21074 0.0
C1345 C 0.22473 0.85544 0.20218 0.0
C1346 C 0.21269 0.81532 0.22839 0.0
C1347 C 0.18961 0.81616 0.23796 0.0
C1348 C 0.18479 0.83734 0.22986 0.0
C1349 C 0.20206 0.85665 0.21215 0.0
C1350 C 0.12379 0.76615 0.27252 0.0
C1351 C 0.13396 0.75698 0.29212 0.0
C1352 C 0.14177 0.78485 0.25475 0.0
C1353 C 0.17044 0.79506 0.25617 0.0
C1354 C 0.18057 0.7854 0.27542 0.0
C1355 C 0.16254 0.76656 0.29315 0.0
H1356 H 0.89355 0.68031 0.78376 0.0
H1357 H 0.83338 0.59584 0.80198 0.0
H1358 H 0.86336 0.68026 0.75089 0.0
H1359 H 0.80347 0.59525 0.7685 0.0
H1360 H 0.74382 0.61234 0.72486 0.0
H1361 H 0.77413 0.61274 0.75768 0.0
H1362 H 0.84533 0.66294 0.71107 0.0
H1363 H 0.81526 0.66428 0.67913 0.0
C1364 C 0.87403 0.66158 0.7804 0.0
C1365 C 0.86578 0.63809 0.79538 0.0
C1366 C 0.85671 0.66148 0.76153 0.0
C1367 C 0.83087 0.63775 0.75698 0.0
C1368 C 0.82292 0.61408 0.77175 0.0
C1369 C 0.84011 0.61432 0.79083 0.0
C1370 C 0.76596 0.6238 0.72174 0.0
C1371 C 0.777 0.63825 0.69925 0.0
C1372 C 0.78337 0.62368 0.74045 0.0
C1373 C 0.81226 0.63778 0.73707 0.0
C1374 C 0.82325 0.65212 0.71454 0.0
C1375 C 0.80589 0.65251 0.69598 0.0
H1376 H 0.40086 0.23508 0.79948 0.0
H1377 H 0.32461 0.22319 0.7678 0.0
H1378 H 0.40001 0.20067 0.77071 0.0
H1379 H 0.32404 0.18944 0.73853 0.0
H1380 H 0.31182 0.1077 0.71149 0.0
H1381 H 0.31546 0.14326 0.74018 0.0
H1382 H 0.40393 0.18963 0.72811 0.0
H1383 H 0.40019 0.15344 0.69989 0.0
C1384 C 0.38427 0.22553 0.78595 0.0
C1385 C 0.36273 0.23164 0.7859 0.0
C1386 C 0.38373 0.2058 0.76948 0.0
C1387 C 0.36174 0.19196 0.75253 0.0
C1388 C 0.3409 0.19912 0.75179 0.0
C1389 C 0.3413 0.2186 0.76839 0.0
C1390 C 0.33204 0.12542 0.71516 0.0
C1391 C 0.35571 0.12788 0.70352 0.0
C1392 C 0.33414 0.14593 0.73141 0.0
C1393 C 0.35995 0.16957 0.73617 0.0
C1394 C 0.38376 0.17163 0.72502 0.0
C1395 C 0.38166 0.15091 0.7089 0.0
H1396 H 0.78752 0.10513 0.78207 0.0
H1397 H 0.7611 0.16347 0.80115 0.0
H1398 H 0.81677 0.13584 0.74881 0.0
H1399 H 0.79058 0.19443 0.76777 0.0
H1400 H 0.87729 0.25304 0.72947 0.0
H1401 H 0.84334 0.22269 0.76039 0.0
H1402 H 0.81147 0.15523 0.70758 0.0
H1403 H 0.84465 0.18554 0.67644 0.0
C1404 C 0.78786 0.12447 0.77897 0.0
C1405 C 0.77212 0.13199 0.79412 0.0
C1406 C 0.80446 0.14196 0.75989 0.0
C1407 C 0.80596 0.16752 0.75577 0.0
C1408 C 0.7899 0.17491 0.77068 0.0
C1409 C 0.77292 0.15716 0.78958 0.0
C1410 C 0.86277 0.23187 0.72429 0.0
C1411 C 0.86401 0.22169 0.70053 0.0
C1412 C 0.84335 0.21451 0.74201 0.0
C1413 C 0.82493 0.18658 0.7364 0.0
C1414 C 0.82571 0.17657 0.71252 0.0
C1415 C 0.84488 0.19394 0.69475 0.0
H1416 H 0.04824 0.47882 0.0302 0.0
H1417 H 0.96061 0.42856 0.04497 0.0
H1418 H 0.03953 0.50982 0.00474 0.0
H1419 H 0.95176 0.45855 0.01838 0.0
H1420 H 0.94736 0.53254 0.98934 0.0
H1421 H 0.95699 0.5034 0.01645 0.0
H1422 H 0.02028 0.51096 0.96502 0.0
H1423 H 0.01097 0.54076 0.93819 0.0
C1424 C 0.02714 0.47446 0.02815 0.0
C1425 C 0.00512 0.45116 0.03962 0.0
C1426 C 0.0221 0.49201 0.01323 0.0
C1427 C 0.99492 0.4866 0.00934 0.0
C1428 C 0.97297 0.46353 0.02113 0.0
C1429 C 0.97802 0.44611 0.03616 0.0
C1430 C 0.96311 0.52771 0.98371 0.0
C1431 C 0.97825 0.53868 0.96155 0.0
C1432 C 0.96867 0.51102 0.99925 0.0
C1433 C 0.98937 0.50474 0.99292 0.0
C1434 C 0.00449 0.51571 0.97068 0.0
C1435 C -0.00093 0.53263 0.95522 0.0
H1436 H 0.56259 0.58513 0.99725 0.0
H1437 H 0.54085 0.52672 0.05771 0.0
H1438 H 0.53845 0.54718 0.96775 0.0
H1439 H 0.51552 0.48857 0.02853 0.0
H1440 H 0.48975 0.42398 0.96907 0.0
H1441 H 0.51949 0.46307 0.99546 0.0
H1442 H 0.49378 0.51373 0.95556 0.0
H1443 H 0.46579 0.47526 0.92788 0.0
C1444 C 0.5523 0.56408 0.0042 0.0
C1445 C 0.5533 0.55874 0.02971 0.0
C1446 C 0.5384 0.54232 0.98735 0.0
C1447 C 0.52485 0.51472 0.99569 0.0
C1448 C 0.52609 0.50948 0.0213 0.0
C1449 C 0.54038 0.53128 0.03809 0.0
C1450 C 0.49102 0.44365 0.96541 0.0
C1451 C 0.47525 0.44636 0.94629 0.0
C1452 C 0.50772 0.46599 0.98091 0.0
C1453 C 0.50883 0.49155 0.97794 0.0
C1454 C 0.4937 0.49449 0.95835 0.0
C1455 C 0.4773 0.47225 0.94263 0.0
H1456 H 0.44464 0.02109 0.02199 0.0
H1457 H 0.44095 0.94388 0.04025 0.0
H1458 H 0.48382 0.03316 0.99447 0.0
H1459 H 0.47981 0.9558 0.01205 0.0
H1460 H 0.5298 0.97466 0.93892 0.0
H1461 H 0.48993 0.96305 0.96559 0.0
H1462 H 0.53335 0.04456 0.99841 0.0
H1463 H 0.57352 0.05603 0.97233 0.0
C1464 C 0.45235 0.0068 0.02042 0.0
C1465 C 0.4397 0.98157 0.03358 0.0
C1466 C 0.47472 0.0137 0.00449 0.0
C1467 C 0.48482 0.99542 0.00108 0.0
C1468 C 0.4722 0.97014 0.01408 0.0
C1469 C 0.44995 0.96333 0.03023 0.0
C1470 C 0.53091 0.99012 0.95185 0.0
C1471 C 0.55497 0.01627 0.95349 0.0
C1472 C 0.50806 0.98343 0.96712 0.0
C1473 C 0.50863 0.00283 0.98419 0.0
C1474 C 0.53226 0.02926 0.98528 0.0
C1475 C 0.55522 0.03588 0.97019 0.0
H1476 H 0.56068 0.03416 0.44113 0.0
H1477 H 0.52625 0.95493 0.4781 0.0
H1478 H 0.5345 0.04719 0.46908 0.0
H1479 H 0.49943 0.96764 0.50554 0.0
H1480 H 0.48281 0.01303 0.56877 0.0
H1481 H 0.50884 0.00032 0.54022 0.0
H1482 H 0.48681 0.03532 0.47849 0.0
H1483 H 0.46078 0.04788 0.50686 0.0
C1484 C 0.54732 0.01945 0.45509 0.0
C1485 C 0.54554 0.99354 0.45743 0.0
C1486 C 0.53221 0.02684 0.47098 0.0
C1487 C 0.51506 0.00851 0.48963 0.0
C1488 C 0.51278 0.98235 0.49159 0.0
C1489 C 0.52782 0.97492 0.47563 0.0
C1490 C 0.48357 0.01802 0.54911 0.0
C1491 C 0.46988 0.03163 0.54014 0.0
C1492 C 0.49837 0.01066 0.53275 0.0
C1493 C 0.49978 0.01674 0.50709 0.0
C1494 C 0.48642 0.03068 0.4982 0.0
C1495 C 0.4716 0.03799 0.51451 0.0
H1496 H 0.95215 0.41294 0.51123 0.0
H1497 H 0.9911 0.46872 0.57326 0.0
H1498 H 0.96268 0.45203 0.48413 0.0
H1499 H 0.00226 0.50806 0.54587 0.0
H1500 H 0.98795 0.56663 0.49511 0.0
H1501 H 0.97789 0.52804 0.5228 0.0
H1502 H 0.00389 0.49167 0.46514 0.0
H1503 H 0.01336 0.53006 0.43716 0.0
C1504 C 0.96271 0.43356 0.51914 0.0
C1505 C 0.97053 0.43776 0.54446 0.0
C1506 C 0.96909 0.45597 0.50352 0.0
C1507 C 0.98339 0.4831 0.51284 0.0
C1508 C 0.99104 0.48734 0.53821 0.0
C1509 C 0.98479 0.46488 0.55384 0.0
C1510 C 0.99131 0.55028 0.48827 0.0
C1511 C 0.00119 0.55121 0.46388 0.0
C1512 C 0.98585 0.52836 0.50423 0.0
C1513 C 0.99005 0.50682 0.49613 0.0
C1514 C 0.00018 0.50785 0.4718 0.0
C1515 C 0.00581 0.5299 0.45587 0.0
H1516 H 0.47046 0.43901 0.43759 0.0
H1517 H 0.42715 0.47496 0.47487 0.0
H1518 H 0.5103 0.46546 0.46442 0.0
H1519 H 0.46768 0.50282 0.50053 0.0
H1520 H 0.53162 0.52539 0.56166 0.0
H1521 H 0.49195 0.49791 0.53464 0.0
H1522 H 0.5474 0.51028 0.47314 0.0
H1523 H 0.58691 0.53696 0.50045 0.0
C1524 C 0.46948 0.45271 0.45137 0.0
C1525 C 0.44544 0.45465 0.45413 0.0
C1526 C 0.49251 0.46817 0.46659 0.0
C1527 C 0.49221 0.48618 0.48482 0.0
C1528 C 0.46849 0.48876 0.48704 0.0
C1529 C 0.44537 0.47312 0.47197 0.0
C1530 C 0.53523 0.52203 0.54239 0.0
C1531 C 0.56231 0.53317 0.53318 0.0
C1532 C 0.51254 0.50649 0.52683 0.0
C1533 C 0.51641 0.50202 0.5016 0.0
C1534 C 0.54358 0.51292 0.49253 0.0
C1535 C 0.56625 0.52821 0.50817 0.0
loop_
_geom_bond_atom_site_label_1
_geom_bond_atom_site_label_2
_geom_bond_distance
_geom_bond_site_symmetry_2
_ccdc_geom_bond_type
Li0 N17 1.990 . S
Li0 O60 1.956 . S
Li0 O61 1.970 . S
Li0 O62 1.961 . S
Li1 N25 1.990 . S
Li1 O60 1.970 . S
Li1 O61 1.956 . S
Li1 O63 1.961 . S
Li2 N47 1.990 . S
Li2 O60 1.961 . S
Li2 O62 1.956 . S
Li2 O63 1.970 . S
Li3 N53 1.990 1_455 S
Li3 O61 1.961 . S
Li3 O62 1.970 . S
Li3 O63 1.956 . S
C4 C6 1.348 . S
C4 C7 1.356 . S
C4 O60 1.325 . S
N5 C8 1.314 . S
N5 C9 1.279 . S
C6 C4 1.348 . S
C6 C8 1.353 . S
C6 H64 0.929 . S
C7 C4 1.356 . S
C7 C9 1.358 . S
C7 H65 0.930 . S
C8 N5 1.314 . S
C8 C6 1.353 . S
C8 H66 0.930 . S
C9 N5 1.279 . S
C9 C7 1.358 . S
C9 H67 0.930 . S
C10 C13 1.348 . S
C10 C14 1.356 . S
C10 O61 1.325 1_655 S
C11 N12 1.279 . S
C11 C14 1.358 . S
C11 H68 0.930 . S
N12 C11 1.279 . S
N12 C15 1.314 . S
C13 C10 1.348 . S
C13 C15 1.353 . S
C13 H69 0.929 1_655 S
C14 C10 1.356 . S
C14 C11 1.358 . S
C14 H70 0.930 . S
C15 N12 1.314 . S
C15 C13 1.353 . S
C15 H71 0.930 . S
C16 N17 1.314 . S
C16 C21 1.353 . S
C16 H22 0.930 . S
N17 Li0 1.990 . S
N17 C16 1.314 . S
N17 C19 1.279 . S
C18 C19 1.358 . S
C18 C20 1.356 . S
C18 H72 0.930 . S
C19 N17 1.279 . S
C19 C18 1.358 . S
C19 H23 0.930 . S
C20 C18 1.356 . S
C20 C21 1.348 . S
C21 C16 1.353 . S
C21 C20 1.348 . S
C21 H73 0.929 . S
H22 C16 0.930 . S
H23 C19 0.930 . S
C24 N25 1.314 . S
C24 C26 1.353 . S
C24 H30 0.930 . S
N25 Li1 1.990 . S
N25 C24 1.314 . S
N25 C28 1.279 . S
C26 C24 1.353 . S
C26 C29 1.348 . S
C26 H74 0.929 . S
C27 C28 1.358 . S
C27 C29 1.356 . S
C27 H75 0.930 . S
C28 N25 1.279 . S
C28 C27 1.358 . S
C28 H31 0.930 . S
C29 C26 1.348 . S
C29 C27 1.356 . S
H30 C24 0.930 . S
H31 C28 0.930 . S
C32 C34 1.348 . S
C32 C35 1.356 . S
C32 O62 1.325 . S
N33 C36 1.314 . S
N33 C37 1.279 . S
C34 C32 1.348 . S
C34 C36 1.353 1_554 S
C34 H76 0.929 1_455 S
C35 C32 1.356 . S
C35 C37 1.358 1_554 S
C35 H77 0.930 . S
C36 N33 1.314 . S
C36 C34 1.353 1_556 S
C36 H78 0.930 1_455 S
C37 N33 1.279 . S
C37 C35 1.358 1_556 S
C37 H79 0.930 . S
C38 C39 1.348 . S
C38 C40 1.356 . S
C38 O63 1.325 . S
C39 C38 1.348 . S
C39 C41 1.353 . S
C39 H80 0.929 . S
C40 C38 1.356 . S
C40 C42 1.358 . S
C40 H81 0.930 . S
C41 C39 1.353 . S
C41 N43 1.314 . S
C41 H82 0.930 . S
C42 C40 1.358 . S
C42 N43 1.279 . S
C42 H83 0.930 . S
N43 C41 1.314 . S
N43 C42 1.279 . S
C44 C46 1.353 . S
C44 N47 1.314 . S
C44 H50 0.930 . S
C45 N47 1.279 . S
C45 C48 1.358 . S
C45 H51 0.930 . S
C46 C44 1.353 . S
C46 C49 1.348 . S
C46 H84 0.929 . S
N47 Li2 1.990 . S
N47 C44 1.314 . S
N47 C45 1.279 . S
C48 C45 1.358 . S
C48 C49 1.356 . S
C48 H85 0.930 1_554 S
C49 C46 1.348 . S
C49 C48 1.356 . S
H50 C44 0.930 . S
H51 C45 0.930 . S
C52 N53 1.314 . S
C52 C54 1.353 . S
C52 H58 0.930 . S
N53 Li3 1.990 1_655 S
N53 C52 1.314 . S
N53 C56 1.279 . S
C54 C52 1.353 . S
C54 C57 1.348 . S
C54 H86 0.929 . S
C55 C56 1.358 . S
C55 C57 1.356 . S
C55 H87 0.930 . S
C56 N53 1.279 . S
C56 C55 1.358 . S
C56 H59 0.930 . S
C57 C54 1.348 . S
C57 C55 1.356 . S
H58 C52 0.930 . S
H59 C56 0.930 . S
O60 Li0 1.956 . S
O60 Li1 1.970 . S
O60 Li2 1.961 . S
O60 C4 1.325 . S
O61 Li0 1.970 . S
O61 Li1 1.956 . S
O61 Li3 1.961 . S
O61 C10 1.325 1_455 S
O62 Li0 1.961 . S
O62 Li2 1.956 . S
O62 Li3 1.970 . S
O62 C32 1.325 . S
O63 Li1 1.961 . S
O63 Li2 1.970 . S
O63 Li3 1.956 . S
O63 C38 1.325 . S
H64 C6 0.929 . S
H65 C7 0.930 . S
H66 C8 0.930 . S
H67 C9 0.930 . S
H68 C11 0.930 . S
H69 C13 0.929 1_455 S
H70 C14 0.930 . S
H71 C15 0.930 . S
H72 C18 0.930 . S
H73 C21 0.929 . S
H74 C26 0.929 . S
H75 C27 0.930 . S
H76 C34 0.929 1_655 S
H77 C35 0.930 . S
H78 C36 0.930 1_655 S
H79 C37 0.930 . S
H80 C39 0.929 . S
H81 C40 0.930 . S
H82 C41 0.930 . S
H83 C42 0.930 . S
H84 C46 0.929 . S
H85 C48 0.930 1_556 S
H86 C54 0.929 . S
H87 C55 0.930 . S
Li88 N105 1.990 . S
Li88 O148 1.956 . S
Li88 O149 1.970 . S
Li88 O150 1.961 . S
Li89 N113 1.990 . S
Li89 O148 1.970 . S
Li89 O149 1.956 . S
Li89 O151 1.961 . S
Li90 N135 1.990 . S
Li90 O148 1.961 . S
Li90 O150 1.956 . S
Li90 O151 1.970 . S
Li91 N141 1.990 . S
Li91 O149 1.961 . S
Li91 O150 1.970 . S
Li91 O151 1.956 . S
C92 C94 1.348 . S
C92 C95 1.356 . S
C92 O148 1.325 . S
N93 C96 1.314 . S
N93 C97 1.279 . S
C94 C92 1.348 . S
C94 C96 1.353 . S
C94 H152 0.929 . S
C95 C92 1.356 . S
C95 C97 1.358 . S
C95 H153 0.930 . S
C96 N93 1.314 . S
C96 C94 1.353 . S
C96 H154 0.930 . S
C97 N93 1.279 . S
C97 C95 1.358 . S
C97 H155 0.930 . S
C98 C101 1.348 . S
C98 C102 1.356 . S
C98 O149 1.325 . S
C99 N100 1.279 . S
C99 C102 1.358 . S
C99 H156 0.930 . S
N100 C99 1.279 . S
N100 C103 1.314 . S
C101 C98 1.348 . S
C101 C103 1.353 . S
C101 H157 0.929 . S
C102 C98 1.356 . S
C102 C99 1.358 . S
C102 H158 0.930 . S
C103 N100 1.314 . S
C103 C101 1.353 . S
C103 H159 0.930 . S
C104 N105 1.314 . S
C104 C109 1.353 . S
C104 H110 0.930 . S
N105 Li88 1.990 . S
N105 C104 1.314 . S
N105 C107 1.279 . S
C106 C107 1.358 . S
C106 C108 1.356 . S
C106 H160 0.930 . S
C107 N105 1.279 . S
C107 C106 1.358 . S
C107 H111 0.930 . S
C108 C106 1.356 . S
C108 C109 1.348 . S
C109 C104 1.353 . S
C109 C108 1.348 . S
C109 H161 0.929 . S
H110 C104 0.930 . S
H111 C107 0.930 . S
C112 N113 1.314 . S
C112 C114 1.353 . S
C112 H118 0.930 . S
N113 Li89 1.990 . S
N113 C112 1.314 . S
N113 C116 1.279 . S
C114 C112 1.353 . S
C114 C117 1.348 . S
C114 H162 0.929 . S
C115 C116 1.358 . S
C115 C117 1.356 . S
C115 H163 0.930 . S
C116 N113 1.279 . S
C116 C115 1.358 . S
C116 H119 0.930 . S
C117 C114 1.348 . S
C117 C115 1.356 . S
H118 C112 0.930 . S
H119 C116 0.930 . S
C120 C122 1.348 . S
C120 C123 1.356 . S
C120 O150 1.325 . S
N121 C124 1.314 . S
N121 C125 1.279 . S
C122 C120 1.348 . S
C122 C124 1.353 . S
C122 H164 0.929 . S
C123 C120 1.356 . S
C123 C125 1.358 . S
C123 H165 0.930 . S
C124 N121 1.314 . S
C124 C122 1.353 . S
C124 H166 0.930 . S
C125 N121 1.279 . S
C125 C123 1.358 . S
C125 H167 0.930 . S
C126 C127 1.348 . S
C126 C128 1.356 . S
C126 O151 1.325 . S
C127 C126 1.348 . S
C127 C129 1.353 1_554 S
C127 H168 0.929 . S
C128 C126 1.356 . S
C128 C130 1.358 1_554 S
C128 H169 0.930 . S
C129 C127 1.353 1_556 S
C129 N131 1.314 . S
C129 H170 0.930 . S
C130 C128 1.358 1_556 S
C130 N131 1.279 . S
C130 H171 0.930 . S
N131 C129 1.314 . S
N131 C130 1.279 . S
C132 C134 1.353 . S
C132 N135 1.314 . S
C132 H138 0.930 . S
C133 N135 1.279 . S
C133 C136 1.358 . S
C133 H139 0.930 . S
C134 C132 1.353 . S
C134 C137 1.348 . S
C134 H172 0.929 . S
N135 Li90 1.990 . S
N135 C132 1.314 . S
N135 C133 1.279 . S
C136 C133 1.358 . S
C136 C137 1.356 . S
C136 H173 0.930 . S
C137 C134 1.348 . S
C137 C136 1.356 . S
H138 C132 0.930 . S
H139 C133 0.930 . S
C140 N141 1.314 . S
C140 C142 1.353 . S
C140 H146 0.930 . S
N141 Li91 1.990 . S
N141 C140 1.314 . S
N141 C144 1.279 . S
C142 C140 1.353 . S
C142 C145 1.348 . S
C142 H174 0.929 . S
C143 C144 1.358 . S
C143 C145 1.356 . S
C143 H175 0.930 1_554 S
C144 N141 1.279 . S
C144 C143 1.358 . S
C144 H147 0.930 . S
C145 C142 1.348 . S
C145 C143 1.356 . S
H146 C140 0.930 . S
H147 C144 0.930 . S
O148 Li88 1.956 . S
O148 Li89 1.970 . S
O148 Li90 1.961 . S
O148 C92 1.325 . S
O149 Li88 1.970 . S
O149 Li89 1.956 . S
O149 Li91 1.961 . S
O149 C98 1.325 . S
O150 Li88 1.961 . S
O150 Li90 1.956 . S
O150 Li91 1.970 . S
O150 C120 1.325 . S
O151 Li89 1.961 . S
O151 Li90 1.970 . S
O151 Li91 1.956 . S
O151 C126 1.325 . S
H152 C94 0.929 . S
H153 C95 0.930 . S
H154 C96 0.930 . S
H155 C97 0.930 . S
H156 C99 0.930 . S
H157 C101 0.929 . S
H158 C102 0.930 . S
H159 C103 0.930 . S
H160 C106 0.930 . S
H161 C109 0.929 . S
H162 C114 0.929 . S
H163 C115 0.930 . S
H164 C122 0.929 . S
H165 C123 0.930 . S
H166 C124 0.930 . S
H167 C125 0.930 . S
H168 C127 0.929 . S
H169 C128 0.930 . S
H170 C129 0.930 . S
H171 C130 0.930 . S
H172 C134 0.929 . S
H173 C136 0.930 . S
H174 C142 0.929 . S
H175 C143 0.930 1_556 S
Li176 N193 1.990 . S
Li176 O236 1.956 . S
Li176 O237 1.970 . S
Li176 O238 1.961 . S
Li177 N201 1.990 . S
Li177 O236 1.970 . S
Li177 O237 1.956 . S
Li177 O239 1.961 . S
Li178 N223 1.990 1_565 S
Li178 O236 1.961 . S
Li178 O238 1.956 . S
Li178 O239 1.970 . S
Li179 N229 1.990 . S
Li179 O237 1.961 . S
Li179 O238 1.970 . S
Li179 O239 1.956 . S
C180 C182 1.348 . S
C180 C183 1.356 . S
C180 O236 1.325 1_545 S
N181 C184 1.314 . S
N181 C185 1.279 . S
C182 C180 1.348 . S
C182 C184 1.353 . S
C182 H240 0.929 1_545 S
C183 C180 1.356 . S
C183 C185 1.358 . S
C183 H241 0.930 . S
C184 N181 1.314 . S
C184 C182 1.353 . S
C184 H242 0.930 . S
C185 N181 1.279 . S
C185 C183 1.358 . S
C185 H243 0.930 . S
C186 C189 1.348 . S
C186 C190 1.356 . S
C186 O237 1.325 . S
C187 N188 1.279 . S
C187 C190 1.358 . S
C187 H244 0.930 . S
N188 C187 1.279 . S
N188 C191 1.314 . S
C189 C186 1.348 . S
C189 C191 1.353 . S
C189 H245 0.929 . S
C190 C186 1.356 . S
C190 C187 1.358 . S
C190 H246 0.930 . S
C191 N188 1.314 . S
C191 C189 1.353 . S
C191 H247 0.930 . S
C192 N193 1.314 . S
C192 C197 1.353 . S
C192 H198 0.930 . S
N193 Li176 1.990 . S
N193 C192 1.314 . S
N193 C195 1.279 . S
C194 C195 1.358 . S
C194 C196 1.356 . S
C194 H248 0.930 . S
C195 N193 1.279 . S
C195 C194 1.358 . S
C195 H199 0.930 . S
C196 C194 1.356 . S
C196 C197 1.348 . S
C197 C192 1.353 . S
C197 C196 1.348 . S
C197 H249 0.929 . S
H198 C192 0.930 . S
H199 C195 0.930 . S
C200 N201 1.314 . S
C200 C202 1.353 . S
C200 H206 0.930 . S
N201 Li177 1.990 . S
N201 C200 1.314 . S
N201 C204 1.279 . S
C202 C200 1.353 . S
C202 C205 1.348 . S
C202 H250 0.929 . S
C203 C204 1.358 . S
C203 C205 1.356 . S
C203 H251 0.930 . S
C204 N201 1.279 . S
C204 C203 1.358 . S
C204 H207 0.930 . S
C205 C202 1.348 . S
C205 C203 1.356 . S
H206 C200 0.930 . S
H207 C204 0.930 . S
C208 C210 1.348 . S
C208 C211 1.356 . S
C208 O238 1.325 . S
N209 C212 1.314 . S
N209 C213 1.279 . S
C210 C208 1.348 . S
C210 C212 1.353 . S
C210 H252 0.929 . S
C211 C208 1.356 . S
C211 C213 1.358 . S
C211 H253 0.930 . S
C212 N209 1.314 . S
C212 C210 1.353 . S
C212 H254 0.930 . S
C213 N209 1.279 . S
C213 C211 1.358 . S
C213 H255 0.930 . S
C214 C215 1.348 . S
C214 C216 1.356 . S
C214 O239 1.325 . S
C215 C214 1.348 . S
C215 C217 1.353 1_554 S
C215 H256 0.929 1_565 S
C216 C214 1.356 . S
C216 C218 1.358 1_554 S
C216 H257 0.930 . S
C217 C215 1.353 1_556 S
C217 N219 1.314 . S
C217 H258 0.930 1_565 S
C218 C216 1.358 1_556 S
C218 N219 1.279 . S
C218 H259 0.930 . S
N219 C217 1.314 . S
N219 C218 1.279 . S
C220 C222 1.353 . S
C220 N223 1.314 . S
C220 H226 0.930 . S
C221 N223 1.279 . S
C221 C224 1.358 . S
C221 H227 0.930 . S
C222 C220 1.353 . S
C222 C225 1.348 . S
C222 H260 0.929 . S
N223 Li178 1.990 1_545 S
N223 C220 1.314 . S
N223 C221 1.279 . S
C224 C221 1.358 . S
C224 C225 1.356 . S
C224 H261 0.930 . S
C225 C222 1.348 . S
C225 C224 1.356 . S
H226 C220 0.930 . S
H227 C221 0.930 . S
C228 N229 1.314 . S
C228 C230 1.353 . S
C228 H234 0.930 . S
N229 Li179 1.990 . S
N229 C228 1.314 . S
N229 C232 1.279 . S
C230 C228 1.353 . S
C230 C233 1.348 . S
C230 H262 0.929 . S
C231 C232 1.358 . S
C231 C233 1.356 . S
C231 H263 0.930 1_554 S
C232 N229 1.279 . S
C232 C231 1.358 . S
C232 H235 0.930 . S
C233 C230 1.348 . S
C233 C231 1.356 . S
H234 C228 0.930 . S
H235 C232 0.930 . S
O236 Li176 1.956 . S
O236 Li177 1.970 . S
O236 Li178 1.961 . S
O236 C180 1.325 1_565 S
O237 Li176 1.970 . S
O237 Li177 1.956 . S
O237 Li179 1.961 . S
O237 C186 1.325 . S
O238 Li176 1.961 . S
O238 Li178 1.956 . S
O238 Li179 1.970 . S
O238 C208 1.325 . S
O239 Li177 1.961 . S
O239 Li178 1.970 . S
O239 Li179 1.956 . S
O239 C214 1.325 . S
H240 C182 0.929 1_565 S
H241 C183 0.930 . S
H242 C184 0.930 . S
H243 C185 0.930 . S
H244 C187 0.930 . S
H245 C189 0.929 . S
H246 C190 0.930 . S
H247 C191 0.930 . S
H248 C194 0.930 . S
H249 C197 0.929 . S
H250 C202 0.929 . S
H251 C203 0.930 . S
H252 C210 0.929 . S
H253 C211 0.930 . S
H254 C212 0.930 . S
H255 C213 0.930 . S
H256 C215 0.929 1_545 S
H257 C216 0.930 . S
H258 C217 0.930 1_545 S
H259 C218 0.930 . S
H260 C222 0.929 . S
H261 C224 0.930 . S
H262 C230 0.929 . S
H263 C231 0.930 1_556 S
Li264 N281 1.990 . S
Li264 O324 1.956 . S
Li264 O325 1.970 . S
Li264 O326 1.961 . S
Li265 N289 1.990 1_565 S
Li265 O324 1.970 . S
Li265 O325 1.956 . S
Li265 O327 1.961 . S
Li266 N311 1.990 . S
Li266 O324 1.961 . S
Li266 O326 1.956 . S
Li266 O327 1.970 . S
Li267 N317 1.990 . S
Li267 O325 1.961 . S
Li267 O326 1.970 . S
Li267 O327 1.956 . S
C268 C270 1.348 . S
C268 C271 1.356 . S
C268 O324 1.325 . S
N269 C272 1.314 . S
N269 C273 1.279 . S
C270 C268 1.348 . S
C270 C272 1.353 . S
C270 H328 0.929 1_565 S
C271 C268 1.356 . S
C271 C273 1.358 . S
C271 H329 0.930 . S
C272 N269 1.314 . S
C272 C270 1.353 . S
C272 H330 0.930 1_565 S
C273 N269 1.279 . S
C273 C271 1.358 . S
C273 H331 0.930 . S
C274 C277 1.348 . S
C274 C278 1.356 . S
C274 O325 1.325 . S
C275 N276 1.279 . S
C275 C278 1.358 . S
C275 H332 0.930 . S
N276 C275 1.279 . S
N276 C279 1.314 . S
C277 C274 1.348 . S
C277 C279 1.353 . S
C277 H333 0.929 . S
C278 C274 1.356 . S
C278 C275 1.358 . S
C278 H334 0.930 . S
C279 N276 1.314 . S
C279 C277 1.353 . S
C279 H335 0.930 . S
C280 N281 1.314 . S
C280 C285 1.353 . S
C280 H286 0.930 . S
N281 Li264 1.990 . S
N281 C280 1.314 . S
N281 C283 1.279 . S
C282 C283 1.358 . S
C282 C284 1.356 . S
C282 H336 0.930 . S
C283 N281 1.279 . S
C283 C282 1.358 . S
C283 H287 0.930 . S
C284 C282 1.356 . S
C284 C285 1.348 . S
C285 C280 1.353 . S
C285 C284 1.348 . S
C285 H337 0.929 . S
H286 C280 0.930 . S
H287 C283 0.930 . S
C288 N289 1.314 . S
C288 C290 1.353 . S
C288 H294 0.930 . S
N289 Li265 1.990 1_545 S
N289 C288 1.314 . S
N289 C292 1.279 . S
C290 C288 1.353 . S
C290 C293 1.348 . S
C290 H338 0.929 . S
C291 C292 1.358 . S
C291 C293 1.356 . S
C291 H339 0.930 . S
C292 N289 1.279 . S
C292 C291 1.358 . S
C292 H295 0.930 . S
C293 C290 1.348 . S
C293 C291 1.356 . S
H294 C288 0.930 . S
H295 C292 0.930 . S
C296 C298 1.348 . S
C296 C299 1.356 . S
C296 O326 1.325 . S
N297 C300 1.314 . S
N297 C301 1.279 . S
C298 C296 1.348 . S
C298 C300 1.353 . S
C298 H340 0.929 . S
C299 C296 1.356 . S
C299 C301 1.358 . S
C299 H341 0.930 . S
C300 N297 1.314 . S
C300 C298 1.353 . S
C300 H342 0.930 . S
C301 N297 1.279 . S
C301 C299 1.358 . S
C301 H343 0.930 . S
C302 C303 1.348 . S
C302 C304 1.356 . S
C302 O327 1.325 1_545 S
C303 C302 1.348 . S
C303 C305 1.353 . S
C303 H344 0.929 1_545 S
C304 C302 1.356 . S
C304 C306 1.358 . S
C304 H345 0.930 . S
C305 C303 1.353 . S
C305 N307 1.314 . S
C305 H346 0.930 . S
C306 C304 1.358 . S
C306 N307 1.279 . S
C306 H347 0.930 . S
N307 C305 1.314 . S
N307 C306 1.279 . S
C308 C310 1.353 . S
C308 N311 1.314 . S
C308 H314 0.930 . S
C309 N311 1.279 . S
C309 C312 1.358 . S
C309 H315 0.930 . S
C310 C308 1.353 . S
C310 C313 1.348 . S
C310 H348 0.929 . S
N311 Li266 1.990 . S
N311 C308 1.314 . S
N311 C309 1.279 . S
C312 C309 1.358 . S
C312 C313 1.356 . S
C312 H349 0.930 . S
C313 C310 1.348 . S
C313 C312 1.356 . S
H314 C308 0.930 . S
H315 C309 0.930 . S
C316 N317 1.314 . S
C316 C318 1.353 . S
C316 H322 0.930 . S
N317 Li267 1.990 . S
N317 C316 1.314 . S
N317 C320 1.279 . S
C318 C316 1.353 . S
C318 C321 1.348 . S
C318 H350 0.929 . S
C319 C320 1.358 . S
C319 C321 1.356 . S
C319 H351 0.930 . S
C320 N317 1.279 . S
C320 C319 1.358 . S
C320 H323 0.930 . S
C321 C318 1.348 . S
C321 C319 1.356 . S
H322 C316 0.930 . S
H323 C320 0.930 . S
O324 Li264 1.956 . S
O324 Li265 1.970 . S
O324 Li266 1.961 . S
O324 C268 1.325 . S
O325 Li264 1.970 . S
O325 Li265 1.956 . S
O325 Li267 1.961 . S
O325 C274 1.325 . S
O326 Li264 1.961 . S
O326 Li266 1.956 . S
O326 Li267 1.970 . S
O326 C296 1.325 . S
O327 Li265 1.961 . S
O327 Li266 1.970 . S
O327 Li267 1.956 . S
O327 C302 1.325 1_565 S
H328 C270 0.929 1_545 S
H329 C271 0.930 . S
H330 C272 0.930 1_545 S
H331 C273 0.930 . S
H332 C275 0.930 . S
H333 C277 0.929 . S
H334 C278 0.930 . S
H335 C279 0.930 . S
H336 C282 0.930 . S
H337 C285 0.929 . S
H338 C290 0.929 . S
H339 C291 0.930 . S
H340 C298 0.929 . S
H341 C299 0.930 . S
H342 C300 0.930 . S
H343 C301 0.930 . S
H344 C303 0.929 1_565 S
H345 C304 0.930 . S
H346 C305 0.930 . S
H347 C306 0.930 . S
H348 C310 0.929 . S
H349 C312 0.930 . S
H350 C318 0.929 . S
H351 C319 0.930 . S
Li352 N369 1.990 . S
Li352 O412 1.956 . S
Li352 O413 1.970 . S
Li352 O414 1.961 . S
Li353 N377 1.990 1_455 S
Li353 O412 1.970 . S
Li353 O413 1.956 . S
Li353 O415 1.961 . S
Li354 N399 1.990 . S
Li354 O412 1.961 . S
Li354 O414 1.956 . S
Li354 O415 1.970 . S
Li355 N405 1.990 . S
Li355 O413 1.961 . S
Li355 O414 1.970 . S
Li355 O415 1.956 . S
C356 C358 1.348 . S
C356 C359 1.356 . S
C356 O412 1.325 . S
N357 C360 1.314 . S
N357 C361 1.279 . S
C358 C356 1.348 . S
C358 C360 1.353 . S
C358 H416 0.929 1_455 S
C359 C356 1.356 . S
C359 C361 1.358 . S
C359 H417 0.930 . S
C360 N357 1.314 . S
C360 C358 1.353 . S
C360 H418 0.930 1_455 S
C361 N357 1.279 . S
C361 C359 1.358 . S
C361 H419 0.930 . S
C362 C365 1.348 . S
C362 C366 1.356 . S
C362 O413 1.325 . S
C363 N364 1.279 . S
C363 C366 1.358 . S
C363 H420 0.930 . S
N364 C363 1.279 . S
N364 C367 1.314 . S
C365 C362 1.348 . S
C365 C367 1.353 . S
C365 H421 0.929 . S
C366 C362 1.356 . S
C366 C363 1.358 . S
C366 H422 0.930 . S
C367 N364 1.314 . S
C367 C365 1.353 . S
C367 H423 0.930 . S
C368 N369 1.314 . S
C368 C373 1.353 . S
C368 H374 0.930 . S
N369 Li352 1.990 . S
N369 C368 1.314 . S
N369 C371 1.279 . S
C370 C371 1.358 . S
C370 C372 1.356 . S
C370 H424 0.930 . S
C371 N369 1.279 . S
C371 C370 1.358 . S
C371 H375 0.930 . S
C372 C370 1.356 . S
C372 C373 1.348 . S
C373 C368 1.353 . S
C373 C372 1.348 . S
C373 H425 0.929 . S
H374 C368 0.930 . S
H375 C371 0.930 . S
C376 N377 1.314 . S
C376 C378 1.353 . S
C376 H382 0.930 . S
N377 Li353 1.990 1_655 S
N377 C376 1.314 . S
N377 C380 1.279 . S
C378 C376 1.353 . S
C378 C381 1.348 . S
C378 H426 0.929 . S
C379 C380 1.358 . S
C379 C381 1.356 . S
C379 H427 0.930 . S
C380 N377 1.279 . S
C380 C379 1.358 . S
C380 H383 0.930 . S
C381 C378 1.348 . S
C381 C379 1.356 . S
H382 C376 0.930 . S
H383 C380 0.930 . S
C384 C386 1.348 . S
C384 C387 1.356 . S
C384 O414 1.325 . S
N385 C388 1.314 . S
N385 C389 1.279 . S
C386 C384 1.348 . S
C386 C388 1.353 . S
C386 H428 0.929 . S
C387 C384 1.356 . S
C387 C389 1.358 . S
C387 H429 0.930 . S
C388 N385 1.314 . S
C388 C386 1.353 . S
C388 H430 0.930 . S
C389 N385 1.279 . S
C389 C387 1.358 . S
C389 H431 0.930 . S
C390 C391 1.348 . S
C390 C392 1.356 . S
C390 O415 1.325 1_655 S
C391 C390 1.348 . S
C391 C393 1.353 . S
C391 H432 0.929 1_655 S
C392 C390 1.356 . S
C392 C394 1.358 . S
C392 H433 0.930 . S
C393 C391 1.353 . S
C393 N395 1.314 . S
C393 H434 0.930 . S
C394 C392 1.358 . S
C394 N395 1.279 . S
C394 H435 0.930 . S
N395 C393 1.314 . S
N395 C394 1.279 . S
C396 C398 1.353 . S
C396 N399 1.314 . S
C396 H402 0.930 . S
C397 N399 1.279 . S
C397 C400 1.358 . S
C397 H403 0.930 . S
C398 C396 1.353 . S
C398 C401 1.348 . S
C398 H436 0.929 . S
N399 Li354 1.990 . S
N399 C396 1.314 . S
N399 C397 1.279 . S
C400 C397 1.358 . S
C400 C401 1.356 . S
C400 H437 0.930 . S
C401 C398 1.348 . S
C401 C400 1.356 . S
H402 C396 0.930 . S
H403 C397 0.930 . S
C404 N405 1.314 . S
C404 C406 1.353 . S
C404 H410 0.930 . S
N405 Li355 1.990 . S
N405 C404 1.314 . S
N405 C408 1.279 . S
C406 C404 1.353 . S
C406 C409 1.348 . S
C406 H438 0.929 . S
C407 C408 1.358 . S
C407 C409 1.356 . S
C407 H439 0.930 . S
C408 N405 1.279 . S
C408 C407 1.358 . S
C408 H411 0.930 . S
C409 C406 1.348 . S
C409 C407 1.356 . S
H410 C404 0.930 . S
H411 C408 0.930 . S
O412 Li352 1.956 . S
O412 Li353 1.970 . S
O412 Li354 1.961 . S
O412 C356 1.325 . S
O413 Li352 1.970 . S
O413 Li353 1.956 . S
O413 Li355 1.961 . S
O413 C362 1.325 . S
O414 Li352 1.961 . S
O414 Li354 1.956 . S
O414 Li355 1.970 . S
O414 C384 1.325 . S
O415 Li353 1.961 . S
O415 Li354 1.970 . S
O415 Li355 1.956 . S
O415 C390 1.325 1_455 S
H416 C358 0.929 1_655 S
H417 C359 0.930 . S
H418 C360 0.930 1_655 S
H419 C361 0.930 . S
H420 C363 0.930 . S
H421 C365 0.929 . S
H422 C366 0.930 . S
H423 C367 0.930 . S
H424 C370 0.930 . S
H425 C373 0.929 . S
H426 C378 0.929 . S
H427 C379 0.930 . S
H428 C386 0.929 . S
H429 C387 0.930 . S
H430 C388 0.930 . S
H431 C389 0.930 . S
H432 C391 0.929 1_455 S
H433 C392 0.930 . S
H434 C393 0.930 . S
H435 C394 0.930 . S
H436 C398 0.929 . S
H437 C400 0.930 . S
H438 C406 0.929 . S
H439 C407 0.930 . S
Li440 N457 1.990 . S
Li440 O500 1.956 . S
Li440 O501 1.970 . S
Li440 O502 1.961 . S
Li441 N465 1.990 . S
Li441 O500 1.970 . S
Li441 O501 1.956 . S
Li441 O503 1.961 . S
Li442 N487 1.990 . S
Li442 O500 1.961 . S
Li442 O502 1.956 . S
Li442 O503 1.970 . S
Li443 N493 1.990 . S
Li443 O501 1.961 . S
Li443 O502 1.970 . S
Li443 O503 1.956 . S
C444 C446 1.348 . S
C444 C447 1.356 . S
C444 O500 1.325 . S
N445 C448 1.314 . S
N445 C449 1.279 . S
C446 C444 1.348 . S
C446 C448 1.353 . S
C446 H504 0.929 . S
C447 C444 1.356 . S
C447 C449 1.358 . S
C447 H505 0.930 . S
C448 N445 1.314 . S
C448 C446 1.353 . S
C448 H506 0.930 . S
C449 N445 1.279 . S
C449 C447 1.358 . S
C449 H507 0.930 . S
C450 C453 1.348 . S
C450 C454 1.356 . S
C450 O501 1.325 . S
C451 N452 1.279 . S
C451 C454 1.358 . S
C451 H508 0.930 . S
N452 C451 1.279 . S
N452 C455 1.314 . S
C453 C450 1.348 . S
C453 C455 1.353 . S
C453 H509 0.929 . S
C454 C450 1.356 . S
C454 C451 1.358 . S
C454 H510 0.930 . S
C455 N452 1.314 . S
C455 C453 1.353 . S
C455 H511 0.930 . S
C456 N457 1.314 . S
C456 C461 1.353 . S
C456 H462 0.930 . S
N457 Li440 1.990 . S
N457 C456 1.314 . S
N457 C459 1.279 . S
C458 C459 1.358 . S
C458 C460 1.356 . S
C458 H512 0.930 . S
C459 N457 1.279 . S
C459 C458 1.358 . S
C459 H463 0.930 . S
C460 C458 1.356 . S
C460 C461 1.348 . S
C461 C456 1.353 . S
C461 C460 1.348 . S
C461 H513 0.929 . S
H462 C456 0.930 . S
H463 C459 0.930 . S
C464 N465 1.314 . S
C464 C466 1.353 . S
C464 H470 0.930 . S
N465 Li441 1.990 . S
N465 C464 1.314 . S
N465 C468 1.279 . S
C466 C464 1.353 . S
C466 C469 1.348 . S
C466 H514 0.929 . S
C467 C468 1.358 . S
C467 C469 1.356 . S
C467 H515 0.930 . S
C468 N465 1.279 . S
C468 C467 1.358 . S
C468 H471 0.930 . S
C469 C466 1.348 . S
C469 C467 1.356 . S
H470 C464 0.930 . S
H471 C468 0.930 . S
C472 C474 1.348 . S
C472 C475 1.356 . S
C472 O502 1.325 . S
N473 C476 1.314 . S
N473 C477 1.279 . S
C474 C472 1.348 . S
C474 C476 1.353 . S
C474 H516 0.929 . S
C475 C472 1.356 . S
C475 C477 1.358 . S
C475 H517 0.930 . S
C476 N473 1.314 . S
C476 C474 1.353 . S
C476 H518 0.930 . S
C477 N473 1.279 . S
C477 C475 1.358 . S
C477 H519 0.930 . S
C478 C479 1.348 . S
C478 C480 1.356 . S
C478 O503 1.325 . S
C479 C478 1.348 . S
C479 C481 1.353 . S
C479 H520 0.929 . S
C480 C478 1.356 . S
C480 C482 1.358 . S
C480 H521 0.930 . S
C481 C479 1.353 . S
C481 N483 1.314 . S
C481 H522 0.930 . S
C482 C480 1.358 . S
C482 N483 1.279 . S
C482 H523 0.930 . S
N483 C481 1.314 . S
N483 C482 1.279 . S
C484 C486 1.353 . S
C484 N487 1.314 . S
C484 H490 0.930 . S
C485 N487 1.279 . S
C485 C488 1.358 . S
C485 H491 0.930 . S
C486 C484 1.353 . S
C486 C489 1.348 . S
C486 H524 0.929 . S
N487 Li442 1.990 . S
N487 C484 1.314 . S
N487 C485 1.279 . S
C488 C485 1.358 . S
C488 C489 1.356 . S
C488 H525 0.930 . S
C489 C486 1.348 . S
C489 C488 1.356 . S
H490 C484 0.930 . S
H491 C485 0.930 . S
C492 N493 1.314 . S
C492 C494 1.353 . S
C492 H498 0.930 . S
N493 Li443 1.990 . S
N493 C492 1.314 . S
N493 C496 1.279 . S
C494 C492 1.353 . S
C494 C497 1.348 . S
C494 H526 0.929 . S
C495 C496 1.358 . S
C495 C497 1.356 . S
C495 H527 0.930 . S
C496 N493 1.279 . S
C496 C495 1.358 . S
C496 H499 0.930 . S
C497 C494 1.348 . S
C497 C495 1.356 . S
H498 C492 0.930 . S
H499 C496 0.930 . S
O500 Li440 1.956 . S
O500 Li441 1.970 . S
O500 Li442 1.961 . S
O500 C444 1.325 . S
O501 Li440 1.970 . S
O501 Li441 1.956 . S
O501 Li443 1.961 . S
O501 C450 1.325 . S
O502 Li440 1.961 . S
O502 Li442 1.956 . S
O502 Li443 1.970 . S
O502 C472 1.325 . S
O503 Li441 1.961 . S
O503 Li442 1.970 . S
O503 Li443 1.956 . S
O503 C478 1.325 . S
H504 C446 0.929 . S
H505 C447 0.930 . S
H506 C448 0.930 . S
H507 C449 0.930 . S
H508 C451 0.930 . S
H509 C453 0.929 . S
H510 C454 0.930 . S
H511 C455 0.930 . S
H512 C458 0.930 . S
H513 C461 0.929 . S
H514 C466 0.929 . S
H515 C467 0.930 . S
H516 C474 0.929 . S
H517 C475 0.930 . S
H518 C476 0.930 . S
H519 C477 0.930 . S
H520 C479 0.929 . S
H521 C480 0.930 . S
H522 C481 0.930 . S
H523 C482 0.930 . S
H524 C486 0.929 . S
H525 C488 0.930 . S
H526 C494 0.929 . S
H527 C495 0.930 . S
Li528 N545 1.990 . S
Li528 O588 1.956 . S
Li528 O589 1.970 . S
Li528 O590 1.961 . S
Li529 N553 1.990 . S
Li529 O588 1.970 . S
Li529 O589 1.956 . S
Li529 O591 1.961 . S
Li530 N575 1.990 1_655 S
Li530 O588 1.961 . S
Li530 O590 1.956 . S
Li530 O591 1.970 . S
Li531 N581 1.990 . S
Li531 O589 1.961 . S
Li531 O590 1.970 . S
Li531 O591 1.956 . S
C532 C534 1.348 . S
C532 C535 1.356 . S
C532 O588 1.325 . S
N533 C536 1.314 . S
N533 C537 1.279 . S
C534 C532 1.348 . S
C534 C536 1.353 1_556 S
C534 H592 0.929 . S
C535 C532 1.356 . S
C535 C537 1.358 1_556 S
C535 H593 0.930 . S
C536 N533 1.314 . S
C536 C534 1.353 1_554 S
C536 H594 0.930 . S
C537 N533 1.279 . S
C537 C535 1.358 1_554 S
C537 H595 0.930 . S
C538 C541 1.348 . S
C538 C542 1.356 . S
C538 O589 1.325 . S
C539 N540 1.279 . S
C539 C542 1.358 . S
C539 H596 0.930 . S
N540 C539 1.279 . S
N540 C543 1.314 . S
C541 C538 1.348 . S
C541 C543 1.353 . S
C541 H597 0.929 . S
C542 C538 1.356 . S
C542 C539 1.358 . S
C542 H598 0.930 . S
C543 N540 1.314 . S
C543 C541 1.353 . S
C543 H599 0.930 . S
C544 N545 1.314 . S
C544 C549 1.353 . S
C544 H550 0.930 . S
N545 Li528 1.990 . S
N545 C544 1.314 . S
N545 C547 1.279 . S
C546 C547 1.358 . S
C546 C548 1.356 . S
C546 H600 0.930 1_556 S
C547 N545 1.279 . S
C547 C546 1.358 . S
C547 H551 0.930 . S
C548 C546 1.356 . S
C548 C549 1.348 . S
C549 C544 1.353 . S
C549 C548 1.348 . S
C549 H601 0.929 . S
H550 C544 0.930 . S
H551 C547 0.930 . S
C552 N553 1.314 . S
C552 C554 1.353 . S
C552 H558 0.930 1_655 S
N553 Li529 1.990 . S
N553 C552 1.314 . S
N553 C556 1.279 . S
C554 C552 1.353 . S
C554 C557 1.348 . S
C554 H602 0.929 1_655 S
C555 C556 1.358 . S
C555 C557 1.356 . S
C555 H603 0.930 . S
C556 N553 1.279 . S
C556 C555 1.358 . S
C556 H559 0.930 . S
C557 C554 1.348 . S
C557 C555 1.356 . S
H558 C552 0.930 1_455 S
H559 C556 0.930 . S
C560 C562 1.348 . S
C560 C563 1.356 . S
C560 O590 1.325 . S
N561 C564 1.314 . S
N561 C565 1.279 . S
C562 C560 1.348 . S
C562 C564 1.353 . S
C562 H604 0.929 . S
C563 C560 1.356 . S
C563 C565 1.358 . S
C563 H605 0.930 . S
C564 N561 1.314 . S
C564 C562 1.353 . S
C564 H606 0.930 . S
C565 N561 1.279 . S
C565 C563 1.358 . S
C565 H607 0.930 . S
C566 C567 1.348 . S
C566 C568 1.357 1_455 S
C566 O591 1.325 1_455 S
C567 C566 1.348 . S
C567 C569 1.353 . S
C567 H608 0.929 . S
C568 C566 1.357 1_655 S
C568 C570 1.355 1_655 S
C568 H609 0.932 . S
C569 C567 1.353 . S
C569 N571 1.314 . S
C569 H610 0.930 . S
C570 C568 1.355 1_455 S
C570 N571 1.279 . S
C570 H611 0.930 . S
N571 C569 1.314 . S
N571 C570 1.279 . S
C572 C574 1.353 . S
C572 N575 1.314 . S
C572 H578 0.930 . S
C573 N575 1.279 . S
C573 C576 1.358 . S
C573 H579 0.930 . S
C574 C572 1.353 . S
C574 C577 1.348 . S
C574 H612 0.929 . S
N575 Li530 1.990 1_455 S
N575 C572 1.314 . S
N575 C573 1.279 . S
C576 C573 1.358 . S
C576 C577 1.356 . S
C576 H613 0.930 . S
C577 C574 1.348 . S
C577 C576 1.356 . S
H578 C572 0.930 . S
H579 C573 0.930 . S
C580 N581 1.314 . S
C580 C582 1.353 . S
C580 H586 0.930 . S
N581 Li531 1.990 . S
N581 C580 1.314 . S
N581 C584 1.279 . S
C582 C580 1.353 . S
C582 C585 1.348 . S
C582 H614 0.929 . S
C583 C584 1.358 . S
C583 C585 1.356 . S
C583 H615 0.930 . S
C584 N581 1.279 . S
C584 C583 1.358 . S
C584 H587 0.930 . S
C585 C582 1.348 . S
C585 C583 1.356 . S
H586 C580 0.930 . S
H587 C584 0.930 . S
O588 Li528 1.956 . S
O588 Li529 1.970 . S
O588 Li530 1.961 . S
O588 C532 1.325 . S
O589 Li528 1.970 . S
O589 Li529 1.956 . S
O589 Li531 1.961 . S
O589 C538 1.325 . S
O590 Li528 1.961 . S
O590 Li530 1.956 . S
O590 Li531 1.970 . S
O590 C560 1.325 . S
O591 Li529 1.961 . S
O591 Li530 1.970 . S
O591 Li531 1.956 . S
O591 C566 1.325 1_655 S
H592 C534 0.929 . S
H593 C535 0.930 . S
H594 C536 0.930 . S
H595 C537 0.930 . S
H596 C539 0.930 . S
H597 C541 0.929 . S
H598 C542 0.930 . S
H599 C543 0.930 . S
H600 C546 0.930 1_554 S
H601 C549 0.929 . S
H602 C554 0.929 1_455 S
H603 C555 0.930 . S
H604 C562 0.929 . S
H605 C563 0.930 . S
H606 C564 0.930 . S
H607 C565 0.930 . S
H608 C567 0.929 . S
H609 C568 0.932 . S
H610 C569 0.930 . S
H611 C570 0.930 . S
H612 C574 0.929 . S
H613 C576 0.930 . S
H614 C582 0.929 . S
H615 C583 0.930 . S
Li616 N633 1.990 . S
Li616 O676 1.956 . S
Li616 O677 1.970 . S
Li616 O678 1.961 . S
Li617 N641 1.990 . S
Li617 O676 1.970 . S
Li617 O677 1.956 . S
Li617 O679 1.961 . S
Li618 N663 1.990 . S
Li618 O676 1.961 . S
Li618 O678 1.956 . S
Li618 O679 1.970 . S
Li619 N669 1.990 . S
Li619 O677 1.961 . S
Li619 O678 1.970 . S
Li619 O679 1.956 . S
C620 C622 1.348 . S
C620 C623 1.356 . S
C620 O676 1.325 . S
N621 C624 1.314 . S
N621 C625 1.279 . S
C622 C620 1.348 . S
C622 C624 1.353 . S
C622 H680 0.929 . S
C623 C620 1.356 . S
C623 C625 1.358 . S
C623 H681 0.930 . S
C624 N621 1.314 . S
C624 C622 1.353 . S
C624 H682 0.930 . S
C625 N621 1.279 . S
C625 C623 1.358 . S
C625 H683 0.930 . S
C626 C629 1.348 . S
C626 C630 1.356 . S
C626 O677 1.325 . S
C627 N628 1.279 . S
C627 C630 1.358 1_554 S
C627 H684 0.930 . S
N628 C627 1.279 . S
N628 C631 1.314 . S
C629 C626 1.348 . S
C629 C631 1.353 1_556 S
C629 H685 0.929 . S
C630 C626 1.356 . S
C630 C627 1.358 1_556 S
C630 H686 0.930 . S
C631 N628 1.314 . S
C631 C629 1.353 1_554 S
C631 H687 0.930 . S
C632 N633 1.314 . S
C632 C637 1.353 . S
C632 H638 0.930 . S
N633 Li616 1.990 . S
N633 C632 1.314 . S
N633 C635 1.279 . S
C634 C635 1.358 . S
C634 C636 1.356 . S
C634 H688 0.930 . S
C635 N633 1.279 . S
C635 C634 1.358 . S
C635 H639 0.930 . S
C636 C634 1.356 . S
C636 C637 1.348 . S
C637 C632 1.353 . S
C637 C636 1.348 . S
C637 H689 0.929 . S
H638 C632 0.930 . S
H639 C635 0.930 . S
C640 N641 1.314 . S
C640 C642 1.353 . S
C640 H646 0.930 . S
N641 Li617 1.990 . S
N641 C640 1.314 . S
N641 C644 1.279 . S
C642 C640 1.353 . S
C642 C645 1.348 . S
C642 H690 0.929 . S
C643 C644 1.358 . S
C643 C645 1.356 . S
C643 H691 0.930 . S
C644 N641 1.279 . S
C644 C643 1.358 . S
C644 H647 0.930 . S
C645 C642 1.348 . S
C645 C643 1.356 . S
H646 C640 0.930 . S
H647 C644 0.930 . S
C648 C650 1.348 . S
C648 C651 1.356 . S
C648 O678 1.325 . S
N649 C652 1.314 . S
N649 C653 1.279 . S
C650 C648 1.348 . S
C650 C652 1.353 . S
C650 H692 0.929 . S
C651 C648 1.356 . S
C651 C653 1.358 . S
C651 H693 0.930 . S
C652 N649 1.314 . S
C652 C650 1.353 . S
C652 H694 0.930 . S
C653 N649 1.279 . S
C653 C651 1.358 . S
C653 H695 0.930 . S
C654 C655 1.348 . S
C654 C656 1.356 . S
C654 O679 1.325 . S
C655 C654 1.348 . S
C655 C657 1.353 . S
C655 H696 0.929 . S
C656 C654 1.356 . S
C656 C658 1.358 . S
C656 H697 0.930 . S
C657 C655 1.353 . S
C657 N659 1.314 . S
C657 H698 0.930 . S
C658 C656 1.358 . S
C658 N659 1.279 . S
C658 H699 0.930 . S
N659 C657 1.314 . S
N659 C658 1.279 . S
C660 C662 1.353 . S
C660 N663 1.314 . S
C660 H666 0.930 . S
C661 N663 1.279 . S
C661 C664 1.358 . S
C661 H667 0.930 . S
C662 C660 1.353 . S
C662 C665 1.348 . S
C662 H700 0.929 . S
N663 Li618 1.990 . S
N663 C660 1.314 . S
N663 C661 1.279 . S
C664 C661 1.358 . S
C664 C665 1.356 . S
C664 H701 0.930 . S
C665 C662 1.348 . S
C665 C664 1.356 . S
H666 C660 0.930 . S
H667 C661 0.930 . S
C668 N669 1.314 . S
C668 C670 1.353 . S
C668 H674 0.930 . S
N669 Li619 1.990 . S
N669 C668 1.314 . S
N669 C672 1.279 . S
C670 C668 1.353 . S
C670 C673 1.348 . S
C670 H702 0.929 1_556 S
C671 C672 1.358 . S
C671 C673 1.356 . S
C671 H703 0.930 . S
C672 N669 1.279 . S
C672 C671 1.358 . S
C672 H675 0.930 . S
C673 C670 1.348 . S
C673 C671 1.356 . S
H674 C668 0.930 . S
H675 C672 0.930 . S
O676 Li616 1.956 . S
O676 Li617 1.970 . S
O676 Li618 1.961 . S
O676 C620 1.325 . S
O677 Li616 1.970 . S
O677 Li617 1.956 . S
O677 Li619 1.961 . S
O677 C626 1.325 . S
O678 Li616 1.961 . S
O678 Li618 1.956 . S
O678 Li619 1.970 . S
O678 C648 1.325 . S
O679 Li617 1.961 . S
O679 Li618 1.970 . S
O679 Li619 1.956 . S
O679 C654 1.325 . S
H680 C622 0.929 . S
H681 C623 0.930 . S
H682 C624 0.930 . S
H683 C625 0.930 . S
H684 C627 0.930 . S
H685 C629 0.929 . S
H686 C630 0.930 . S
H687 C631 0.930 . S
H688 C634 0.930 . S
H689 C637 0.929 . S
H690 C642 0.929 . S
H691 C643 0.930 . S
H692 C650 0.929 . S
H693 C651 0.930 . S
H694 C652 0.930 . S
H695 C653 0.930 . S
H696 C655 0.929 . S
H697 C656 0.930 . S
H698 C657 0.930 . S
H699 C658 0.930 . S
H700 C662 0.929 . S
H701 C664 0.930 . S
H702 C670 0.929 1_554 S
H703 C671 0.930 . S
Li704 N721 1.990 . S
Li704 O764 1.956 . S
Li704 O765 1.970 . S
Li704 O766 1.961 . S
Li705 N729 1.990 . S
Li705 O764 1.970 . S
Li705 O765 1.956 . S
Li705 O767 1.961 . S
Li706 N751 1.990 1_545 S
Li706 O764 1.961 . S
Li706 O766 1.956 . S
Li706 O767 1.970 . S
Li707 N757 1.990 . S
Li707 O765 1.961 . S
Li707 O766 1.970 . S
Li707 O767 1.956 . S
C708 C710 1.348 . S
C708 C711 1.356 . S
C708 O764 1.325 . S
N709 C712 1.314 . S
N709 C713 1.279 . S
C710 C708 1.348 . S
C710 C712 1.353 . S
C710 H768 0.929 . S
C711 C708 1.356 . S
C711 C713 1.358 . S
C711 H769 0.930 . S
C712 N709 1.314 . S
C712 C710 1.353 . S
C712 H770 0.930 . S
C713 N709 1.279 . S
C713 C711 1.358 . S
C713 H771 0.930 . S
C714 C717 1.348 . S
C714 C718 1.356 . S
C714 O765 1.325 . S
C715 N716 1.279 . S
C715 C718 1.358 . S
C715 H772 0.930 . S
N716 C715 1.279 . S
N716 C719 1.314 . S
C717 C714 1.348 . S
C717 C719 1.353 . S
C717 H773 0.929 . S
C718 C714 1.356 . S
C718 C715 1.358 . S
C718 H774 0.930 . S
C719 N716 1.314 . S
C719 C717 1.353 . S
C719 H775 0.930 . S
C720 N721 1.314 . S
C720 C725 1.353 . S
C720 H726 0.930 . S
N721 Li704 1.990 . S
N721 C720 1.314 . S
N721 C723 1.279 . S
C722 C723 1.358 . S
C722 C724 1.356 . S
C722 H776 0.930 . S
C723 N721 1.279 . S
C723 C722 1.358 . S
C723 H727 0.930 . S
C724 C722 1.356 . S
C724 C725 1.348 . S
C725 C720 1.353 . S
C725 C724 1.348 . S
C725 H777 0.929 . S
H726 C720 0.930 . S
H727 C723 0.930 . S
C728 N729 1.314 . S
C728 C730 1.353 . S
C728 H734 0.930 . S
N729 Li705 1.990 . S
N729 C728 1.314 . S
N729 C732 1.279 . S
C730 C728 1.353 . S
C730 C733 1.348 . S
C730 H778 0.929 1_556 S
C731 C732 1.358 . S
C731 C733 1.356 . S
C731 H779 0.930 . S
C732 N729 1.279 . S
C732 C731 1.358 . S
C732 H735 0.930 . S
C733 C730 1.348 . S
C733 C731 1.356 . S
H734 C728 0.930 . S
H735 C732 0.930 . S
C736 C738 1.348 . S
C736 C739 1.356 . S
C736 O766 1.325 1_565 S
N737 C740 1.314 . S
N737 C741 1.279 . S
C738 C736 1.348 . S
C738 C740 1.353 . S
C738 H780 0.929 . S
C739 C736 1.356 . S
C739 C741 1.358 . S
C739 H781 0.930 . S
C740 N737 1.314 . S
C740 C738 1.353 . S
C740 H782 0.930 . S
C741 N737 1.279 . S
C741 C739 1.358 . S
C741 H783 0.930 . S
C742 C743 1.346 . S
C742 C744 1.356 . S
C742 O767 1.325 . S
C743 C742 1.346 . S
C743 C745 1.353 1_546 S
C743 H784 0.931 1_545 S
C744 C742 1.356 . S
C744 C746 1.358 1_556 S
C744 H785 0.930 . S
C745 C743 1.353 1_564 S
C745 N747 1.314 1_565 S
C745 H786 0.930 . S
C746 C744 1.358 1_554 S
C746 N747 1.279 . S
C746 H787 0.930 . S
N747 C745 1.314 1_545 S
N747 C746 1.279 . S
C748 C750 1.353 . S
C748 N751 1.314 . S
C748 H754 0.930 . S
C749 N751 1.279 . S
C749 C752 1.358 . S
C749 H755 0.930 . S
C750 C748 1.353 . S
C750 C753 1.348 . S
C750 H788 0.929 . S
N751 Li706 1.990 1_565 S
N751 C748 1.314 . S
N751 C749 1.279 . S
C752 C749 1.358 . S
C752 C753 1.356 . S
C752 H789 0.930 . S
C753 C750 1.348 . S
C753 C752 1.356 . S
H754 C748 0.930 . S
H755 C749 0.930 . S
C756 N757 1.314 . S
C756 C758 1.353 . S
C756 H762 0.930 . S
N757 Li707 1.990 . S
N757 C756 1.314 . S
N757 C760 1.279 . S
C758 C756 1.353 . S
C758 C761 1.348 . S
C758 H790 0.929 . S
C759 C760 1.358 . S
C759 C761 1.356 . S
C759 H791 0.930 . S
C760 N757 1.279 . S
C760 C759 1.358 . S
C760 H763 0.930 . S
C761 C758 1.348 . S
C761 C759 1.356 . S
H762 C756 0.930 . S
H763 C760 0.930 . S
O764 Li704 1.956 . S
O764 Li705 1.970 . S
O764 Li706 1.961 . S
O764 C708 1.325 . S
O765 Li704 1.970 . S
O765 Li705 1.956 . S
O765 Li707 1.961 . S
O765 C714 1.325 . S
O766 Li704 1.961 . S
O766 Li706 1.956 . S
O766 Li707 1.970 . S
O766 C736 1.325 1_545 S
O767 Li705 1.961 . S
O767 Li706 1.970 . S
O767 Li707 1.956 . S
O767 C742 1.325 . S
H768 C710 0.929 . S
H769 C711 0.930 . S
H770 C712 0.930 . S
H771 C713 0.930 . S
H772 C715 0.930 . S
H773 C717 0.929 . S
H774 C718 0.930 . S
H775 C719 0.930 . S
H776 C722 0.930 . S
H777 C725 0.929 . S
H778 C730 0.929 1_554 S
H779 C731 0.930 . S
H780 C738 0.929 . S
H781 C739 0.930 . S
H782 C740 0.930 . S
H783 C741 0.930 . S
H784 C743 0.931 1_565 S
H785 C744 0.930 . S
H786 C745 0.930 . S
H787 C746 0.930 . S
H788 C750 0.929 . S
H789 C752 0.930 . S
H790 C758 0.929 . S
H791 C759 0.930 . S
Li792 N809 1.990 . S
Li792 O852 1.956 . S
Li792 O853 1.970 . S
Li792 O854 1.961 . S
Li793 N817 1.990 . S
Li793 O852 1.970 . S
Li793 O853 1.956 . S
Li793 O855 1.961 . S
Li794 N839 1.990 . S
Li794 O852 1.961 . S
Li794 O854 1.956 . S
Li794 O855 1.970 . S
Li795 N845 1.990 1_545 S
Li795 O853 1.961 . S
Li795 O854 1.970 . S
Li795 O855 1.956 . S
C796 C798 1.348 . S
C796 C799 1.356 . S
C796 O852 1.325 . S
N797 C800 1.314 . S
N797 C801 1.279 . S
C798 C796 1.348 . S
C798 C800 1.353 . S
C798 H856 0.929 . S
C799 C796 1.356 . S
C799 C801 1.358 . S
C799 H857 0.930 . S
C800 N797 1.314 . S
C800 C798 1.353 . S
C800 H858 0.930 . S
C801 N797 1.279 . S
C801 C799 1.358 . S
C801 H859 0.930 . S
C802 C805 1.348 . S
C802 C806 1.356 . S
C802 O853 1.325 . S
C803 N804 1.279 . S
C803 C806 1.358 . S
C803 H860 0.930 . S
N804 C803 1.279 . S
N804 C807 1.314 . S
C805 C802 1.348 . S
C805 C807 1.353 . S
C805 H861 0.929 . S
C806 C802 1.356 . S
C806 C803 1.358 . S
C806 H862 0.930 . S
C807 N804 1.314 . S
C807 C805 1.353 . S
C807 H863 0.930 . S
C808 N809 1.314 . S
C808 C813 1.353 . S
C808 H814 0.930 . S
N809 Li792 1.990 . S
N809 C808 1.314 . S
N809 C811 1.279 . S
C810 C811 1.358 . S
C810 C812 1.356 . S
C810 H864 0.930 . S
C811 N809 1.279 . S
C811 C810 1.358 . S
C811 H815 0.930 . S
C812 C810 1.356 . S
C812 C813 1.348 . S
C813 C808 1.353 . S
C813 C812 1.348 . S
C813 H865 0.929 . S
H814 C808 0.930 . S
H815 C811 0.930 . S
C816 N817 1.314 . S
C816 C818 1.353 . S
C816 H822 0.930 . S
N817 Li793 1.990 . S
N817 C816 1.314 . S
N817 C820 1.279 . S
C818 C816 1.353 . S
C818 C821 1.348 . S
C818 H866 0.929 . S
C819 C820 1.358 . S
C819 C821 1.356 . S
C819 H867 0.930 . S
C820 N817 1.279 . S
C820 C819 1.358 . S
C820 H823 0.930 . S
C821 C818 1.348 . S
C821 C819 1.356 . S
H822 C816 0.930 . S
H823 C820 0.930 . S
C824 C826 1.347 . S
C824 C827 1.356 . S
C824 O854 1.325 . S
N825 C828 1.314 1_545 S
N825 C829 1.279 . S
C826 C824 1.347 . S
C826 C828 1.353 1_545 S
C826 H868 0.930 1_545 S
C827 C824 1.356 . S
C827 C829 1.358 . S
C827 H869 0.930 . S
C828 N825 1.314 1_565 S
C828 C826 1.353 1_565 S
C828 H870 0.930 . S
C829 N825 1.279 . S
C829 C827 1.358 . S
C829 H871 0.930 . S
C830 C831 1.348 . S
C830 C832 1.356 . S
C830 O855 1.325 1_565 S
C831 C830 1.348 . S
C831 C833 1.353 . S
C831 H872 0.929 . S
C832 C830 1.356 . S
C832 C834 1.358 . S
C832 H873 0.930 . S
C833 C831 1.353 . S
C833 N835 1.314 . S
C833 H874 0.930 . S
C834 C832 1.358 . S
C834 N835 1.279 . S
C834 H875 0.930 . S
N835 C833 1.314 . S
N835 C834 1.279 . S
C836 C838 1.353 . S
C836 N839 1.314 . S
C836 H842 0.930 . S
C837 N839 1.279 . S
C837 C840 1.358 . S
C837 H843 0.930 . S
C838 C836 1.353 . S
C838 C841 1.348 . S
C838 H876 0.929 . S
N839 Li794 1.990 . S
N839 C836 1.314 . S
N839 C837 1.279 . S
C840 C837 1.358 . S
C840 C841 1.356 . S
C840 H877 0.930 . S
C841 C838 1.348 . S
C841 C840 1.356 . S
H842 C836 0.930 . S
H843 C837 0.930 . S
C844 N845 1.314 . S
C844 C846 1.353 . S
C844 H850 0.930 . S
N845 Li795 1.990 1_565 S
N845 C844 1.314 . S
N845 C848 1.279 . S
C846 C844 1.353 . S
C846 C849 1.348 . S
C846 H878 0.929 . S
C847 C848 1.358 . S
C847 C849 1.356 . S
C847 H879 0.930 . S
C848 N845 1.279 . S
C848 C847 1.358 . S
C848 H851 0.930 . S
C849 C846 1.348 . S
C849 C847 1.356 . S
H850 C844 0.930 . S
H851 C848 0.930 . S
O852 Li792 1.956 . S
O852 Li793 1.970 . S
O852 Li794 1.961 . S
O852 C796 1.325 . S
O853 Li792 1.970 . S
O853 Li793 1.956 . S
O853 Li795 1.961 . S
O853 C802 1.325 . S
O854 Li792 1.961 . S
O854 Li794 1.956 . S
O854 Li795 1.970 . S
O854 C824 1.325 . S
O855 Li793 1.961 . S
O855 Li794 1.970 . S
O855 Li795 1.956 . S
O855 C830 1.325 1_545 S
H856 C798 0.929 . S
H857 C799 0.930 . S
H858 C800 0.930 . S
H859 C801 0.930 . S
H860 C803 0.930 . S
H861 C805 0.929 . S
H862 C806 0.930 . S
H863 C807 0.930 . S
H864 C810 0.930 . S
H865 C813 0.929 . S
H866 C818 0.929 . S
H867 C819 0.930 . S
H868 C826 0.930 1_565 S
H869 C827 0.930 . S
H870 C828 0.930 . S
H871 C829 0.930 . S
H872 C831 0.929 . S
H873 C832 0.930 . S
H874 C833 0.930 . S
H875 C834 0.930 . S
H876 C838 0.929 . S
H877 C840 0.930 . S
H878 C846 0.929 . S
H879 C847 0.930 . S
Li880 N897 1.990 1_655 S
Li880 O940 1.956 . S
Li880 O941 1.970 . S
Li880 O942 1.961 . S
Li881 N905 1.990 . S
Li881 O940 1.970 . S
Li881 O941 1.956 . S
Li881 O943 1.961 . S
Li882 N927 1.990 . S
Li882 O940 1.961 . S
Li882 O942 1.956 . S
Li882 O943 1.970 . S
Li883 N933 1.990 . S
Li883 O941 1.961 . S
Li883 O942 1.970 . S
Li883 O943 1.956 . S
C884 C886 1.348 . S
C884 C887 1.356 . S
C884 O940 1.325 1_455 S
N885 C888 1.314 . S
N885 C889 1.279 . S
C886 C884 1.348 . S
C886 C888 1.353 . S
C886 H944 0.929 . S
C887 C884 1.356 . S
C887 C889 1.358 . S
C887 H945 0.930 . S
C888 N885 1.314 . S
C888 C886 1.353 . S
C888 H946 0.930 . S
C889 N885 1.279 . S
C889 C887 1.358 . S
C889 H947 0.930 . S
C890 C893 1.348 1_655 S
C890 C894 1.356 . S
C890 O941 1.325 . S
C891 N892 1.279 . S
C891 C894 1.358 . S
C891 H948 0.930 . S
N892 C891 1.279 . S
N892 C895 1.314 1_655 S
C893 C890 1.348 1_455 S
C893 C895 1.353 . S
C893 H949 0.929 . S
C894 C890 1.356 . S
C894 C891 1.358 . S
C894 H950 0.930 . S
C895 N892 1.314 1_455 S
C895 C893 1.353 . S
C895 H951 0.930 . S
C896 N897 1.314 . S
C896 C901 1.353 . S
C896 H902 0.930 . S
N897 Li880 1.990 1_455 S
N897 C896 1.314 . S
N897 C899 1.279 . S
C898 C899 1.358 . S
C898 C900 1.356 . S
C898 H952 0.930 . S
C899 N897 1.279 . S
C899 C898 1.358 . S
C899 H903 0.930 . S
C900 C898 1.356 . S
C900 C901 1.348 . S
C901 C896 1.353 . S
C901 C900 1.348 . S
C901 H953 0.929 . S
H902 C896 0.930 . S
H903 C899 0.930 . S
C904 N905 1.314 . S
C904 C906 1.353 . S
C904 H910 0.930 . S
N905 Li881 1.990 . S
N905 C904 1.314 . S
N905 C908 1.279 . S
C906 C904 1.353 . S
C906 C909 1.348 . S
C906 H954 0.929 . S
C907 C908 1.358 . S
C907 C909 1.356 . S
C907 H955 0.930 . S
C908 N905 1.279 . S
C908 C907 1.358 . S
C908 H911 0.930 . S
C909 C906 1.348 . S
C909 C907 1.356 . S
H910 C904 0.930 . S
H911 C908 0.930 . S
C912 C914 1.348 . S
C912 C915 1.356 . S
C912 O942 1.325 . S
N913 C916 1.314 . S
N913 C917 1.279 . S
C914 C912 1.348 . S
C914 C916 1.353 . S
C914 H956 0.929 . S
C915 C912 1.356 . S
C915 C917 1.358 . S
C915 H957 0.930 . S
C916 N913 1.314 . S
C916 C914 1.353 . S
C916 H958 0.930 . S
C917 N913 1.279 . S
C917 C915 1.358 . S
C917 H959 0.930 . S
C918 C919 1.348 . S
C918 C920 1.356 . S
C918 O943 1.325 . S
C919 C918 1.348 . S
C919 C921 1.353 . S
C919 H960 0.929 . S
C920 C918 1.356 . S
C920 C922 1.358 . S
C920 H961 0.930 . S
C921 C919 1.353 . S
C921 N923 1.314 . S
C921 H962 0.930 . S
C922 C920 1.358 . S
C922 N923 1.279 . S
C922 H963 0.930 . S
N923 C921 1.314 . S
N923 C922 1.279 . S
C924 C926 1.353 . S
C924 N927 1.314 . S
C924 H930 0.930 . S
C925 N927 1.279 . S
C925 C928 1.358 . S
C925 H931 0.930 . S
C926 C924 1.353 . S
C926 C929 1.348 . S
C926 H964 0.929 . S
N927 Li882 1.990 . S
N927 C924 1.314 . S
N927 C925 1.279 . S
C928 C925 1.358 . S
C928 C929 1.356 . S
C928 H965 0.930 . S
C929 C926 1.348 . S
C929 C928 1.356 . S
H930 C924 0.930 . S
H931 C925 0.930 . S
C932 N933 1.314 . S
C932 C934 1.353 . S
C932 H938 0.930 . S
N933 Li883 1.990 . S
N933 C932 1.314 . S
N933 C936 1.279 . S
C934 C932 1.353 . S
C934 C937 1.348 . S
C934 H966 0.929 . S
C935 C936 1.358 . S
C935 C937 1.356 . S
C935 H967 0.930 . S
C936 N933 1.279 . S
C936 C935 1.358 . S
C936 H939 0.930 . S
C937 C934 1.348 . S
C937 C935 1.356 . S
H938 C932 0.930 . S
H939 C936 0.930 . S
O940 Li880 1.956 . S
O940 Li881 1.970 . S
O940 Li882 1.961 . S
O940 C884 1.325 1_655 S
O941 Li880 1.970 . S
O941 Li881 1.956 . S
O941 Li883 1.961 . S
O941 C890 1.325 . S
O942 Li880 1.961 . S
O942 Li882 1.956 . S
O942 Li883 1.970 . S
O942 C912 1.325 . S
O943 Li881 1.961 . S
O943 Li882 1.970 . S
O943 Li883 1.956 . S
O943 C918 1.325 . S
H944 C886 0.929 . S
H945 C887 0.930 . S
H946 C888 0.930 . S
H947 C889 0.930 . S
H948 C891 0.930 . S
H949 C893 0.929 . S
H950 C894 0.930 . S
H951 C895 0.930 . S
H952 C898 0.930 . S
H953 C901 0.929 . S
H954 C906 0.929 . S
H955 C907 0.930 . S
H956 C914 0.929 . S
H957 C915 0.930 . S
H958 C916 0.930 . S
H959 C917 0.930 . S
H960 C919 0.929 . S
H961 C920 0.930 . S
H962 C921 0.930 . S
H963 C922 0.930 . S
H964 C926 0.929 . S
H965 C928 0.930 . S
H966 C934 0.929 . S
H967 C935 0.930 . S
Li968 N985 1.990 . S
Li968 O1028 1.956 . S
Li968 O1029 1.970 . S
Li968 O1030 1.961 . S
Li969 N993 1.990 . S
Li969 O1028 1.970 . S
Li969 O1029 1.956 . S
Li969 O1031 1.961 . S
Li970 N1015 1.990 . S
Li970 O1028 1.961 . S
Li970 O1030 1.956 . S
Li970 O1031 1.970 . S
Li971 N1021 1.990 . S
Li971 O1029 1.961 . S
Li971 O1030 1.970 . S
Li971 O1031 1.956 . S
C972 C974 1.348 . S
C972 C975 1.356 . S
C972 O1028 1.325 . S
N973 C976 1.314 . S
N973 C977 1.279 . S
C974 C972 1.348 . S
C974 C976 1.353 . S
C974 H1032 0.929 . S
C975 C972 1.356 . S
C975 C977 1.358 . S
C975 H1033 0.930 . S
C976 N973 1.314 . S
C976 C974 1.353 . S
C976 H1034 0.930 . S
C977 N973 1.279 . S
C977 C975 1.358 . S
C977 H1035 0.930 . S
C978 C981 1.348 . S
C978 C982 1.356 . S
C978 O1029 1.325 . S
C979 N980 1.279 . S
C979 C982 1.358 . S
C979 H1036 0.930 . S
N980 C979 1.279 . S
N980 C983 1.314 . S
C981 C978 1.348 . S
C981 C983 1.353 . S
C981 H1037 0.929 . S
C982 C978 1.356 . S
C982 C979 1.358 . S
C982 H1038 0.930 . S
C983 N980 1.314 . S
C983 C981 1.353 . S
C983 H1039 0.930 . S
C984 N985 1.314 . S
C984 C989 1.353 . S
C984 H990 0.930 . S
N985 Li968 1.990 . S
N985 C984 1.314 . S
N985 C987 1.279 . S
C986 C987 1.358 . S
C986 C988 1.356 . S
C986 H1040 0.930 . S
C987 N985 1.279 . S
C987 C986 1.358 . S
C987 H991 0.930 . S
C988 C986 1.356 . S
C988 C989 1.348 . S
C989 C984 1.353 . S
C989 C988 1.348 . S
C989 H1041 0.929 . S
H990 C984 0.930 . S
H991 C987 0.930 . S
C992 N993 1.314 . S
C992 C994 1.353 . S
C992 H998 0.930 . S
N993 Li969 1.990 . S
N993 C992 1.314 . S
N993 C996 1.279 . S
C994 C992 1.353 . S
C994 C997 1.348 . S
C994 H1042 0.929 . S
C995 C996 1.358 . S
C995 C997 1.356 . S
C995 H1043 0.930 . S
C996 N993 1.279 . S
C996 C995 1.358 . S
C996 H999 0.930 . S
C997 C994 1.348 . S
C997 C995 1.356 . S
H998 C992 0.930 . S
H999 C996 0.930 . S
C1000 C1002 1.348 . S
C1000 C1003 1.356 . S
C1000 O1030 1.325 . S
N1001 C1004 1.314 . S
N1001 C1005 1.279 . S
C1002 C1000 1.348 . S
C1002 C1004 1.353 . S
C1002 H1044 0.929 . S
C1003 C1000 1.356 . S
C1003 C1005 1.358 . S
C1003 H1045 0.930 . S
C1004 N1001 1.314 . S
C1004 C1002 1.353 . S
C1004 H1046 0.930 . S
C1005 N1001 1.279 . S
C1005 C1003 1.358 . S
C1005 H1047 0.930 . S
C1006 C1007 1.348 . S
C1006 C1008 1.356 . S
C1006 O1031 1.325 . S
C1007 C1006 1.348 . S
C1007 C1009 1.353 . S
C1007 H1048 0.929 . S
C1008 C1006 1.356 . S
C1008 C1010 1.358 . S
C1008 H1049 0.930 . S
C1009 C1007 1.353 . S
C1009 N1011 1.314 . S
C1009 H1050 0.930 . S
C1010 C1008 1.358 . S
C1010 N1011 1.279 . S
C1010 H1051 0.930 . S
N1011 C1009 1.314 . S
N1011 C1010 1.279 . S
C1012 C1014 1.353 . S
C1012 N1015 1.314 . S
C1012 H1018 0.930 . S
C1013 N1015 1.279 . S
C1013 C1016 1.358 . S
C1013 H1019 0.930 . S
C1014 C1012 1.353 . S
C1014 C1017 1.348 . S
C1014 H1052 0.929 . S
N1015 Li970 1.990 . S
N1015 C1012 1.314 . S
N1015 C1013 1.279 . S
C1016 C1013 1.358 . S
C1016 C1017 1.356 . S
C1016 H1053 0.930 . S
C1017 C1014 1.348 . S
C1017 C1016 1.356 . S
H1018 C1012 0.930 . S
H1019 C1013 0.930 . S
C1020 N1021 1.314 . S
C1020 C1022 1.353 . S
C1020 H1026 0.930 . S
N1021 Li971 1.990 . S
N1021 C1020 1.314 . S
N1021 C1024 1.279 . S
C1022 C1020 1.353 . S
C1022 C1025 1.348 . S
C1022 H1054 0.929 . S
C1023 C1024 1.358 . S
C1023 C1025 1.356 . S
C1023 H1055 0.930 . S
C1024 N1021 1.279 . S
C1024 C1023 1.358 . S
C1024 H1027 0.930 . S
C1025 C1022 1.348 . S
C1025 C1023 1.356 . S
H1026 C1020 0.930 . S
H1027 C1024 0.930 . S
O1028 Li968 1.956 . S
O1028 Li969 1.970 . S
O1028 Li970 1.961 . S
O1028 C972 1.325 . S
O1029 Li968 1.970 . S
O1029 Li969 1.956 . S
O1029 Li971 1.961 . S
O1029 C978 1.325 . S
O1030 Li968 1.961 . S
O1030 Li970 1.956 . S
O1030 Li971 1.970 . S
O1030 C1000 1.325 . S
O1031 Li969 1.961 . S
O1031 Li970 1.970 . S
O1031 Li971 1.956 . S
O1031 C1006 1.325 . S
H1032 C974 0.929 . S
H1033 C975 0.930 . S
H1034 C976 0.930 . S
H1035 C977 0.930 . S
H1036 C979 0.930 . S
H1037 C981 0.929 . S
H1038 C982 0.930 . S
H1039 C983 0.930 . S
H1040 C986 0.930 . S
H1041 C989 0.929 . S
H1042 C994 0.929 . S
H1043 C995 0.930 . S
H1044 C1002 0.929 . S
H1045 C1003 0.930 . S
H1046 C1004 0.930 . S
H1047 C1005 0.930 . S
H1048 C1007 0.929 . S
H1049 C1008 0.930 . S
H1050 C1009 0.930 . S
H1051 C1010 0.930 . S
H1052 C1014 0.929 . S
H1053 C1016 0.930 . S
H1054 C1022 0.929 . S
H1055 C1023 0.930 . S
H1056 C1064 0.950 . S
H1057 C1069 0.950 . S
H1058 C1066 0.950 . S
H1059 C1068 0.950 . S
H1060 C1070 0.950 . S
H1061 C1072 0.950 . S
H1062 C1074 0.950 . S
H1063 C1075 0.950 . S
C1064 H1056 0.950 . S
C1064 C1065 1.386 1_556 S
C1064 C1066 1.391 . S
C1065 C1064 1.386 1_554 S
C1065 C1069 1.393 . S
C1066 H1058 0.950 . S
C1066 C1064 1.391 . S
C1066 C1067 1.400 . S
C1067 C1066 1.400 . S
C1067 C1068 1.398 1_556 S
C1067 C1073 1.491 . S
C1068 H1059 0.950 . S
C1068 C1067 1.398 1_554 S
C1068 C1069 1.391 . S
C1069 H1057 0.950 . S
C1069 C1065 1.393 . S
C1069 C1068 1.391 . S
C1070 H1060 0.950 . S
C1070 C1071 1.386 . S
C1070 C1072 1.391 . S
C1071 C1070 1.386 . S
C1071 C1075 1.393 . S
C1072 H1061 0.950 . S
C1072 C1070 1.391 . S
C1072 C1073 1.400 . S
C1073 C1067 1.491 . S
C1073 C1072 1.400 . S
C1073 C1074 1.398 . S
C1074 H1062 0.950 . S
C1074 C1073 1.398 . S
C1074 C1075 1.391 . S
C1075 H1063 0.950 . S
C1075 C1071 1.393 . S
C1075 C1074 1.391 . S
H1076 C1084 0.951 . S
H1077 C1089 0.950 . S
H1078 C1086 0.950 . S
H1079 C1088 0.950 . S
H1080 C1090 0.950 . S
H1081 C1092 0.950 . S
H1082 C1094 0.950 . S
H1083 C1095 0.950 . S
C1084 H1076 0.951 . S
C1084 C1085 1.393 . S
C1084 C1086 1.383 1_554 S
C1085 C1084 1.393 . S
C1085 C1089 1.393 . S
C1086 H1078 0.950 . S
C1086 C1084 1.383 1_556 S
C1086 C1087 1.400 . S
C1087 C1086 1.400 . S
C1087 C1088 1.398 . S
C1087 C1093 1.491 . S
C1088 H1079 0.950 . S
C1088 C1087 1.398 . S
C1088 C1089 1.391 1_556 S
C1089 H1077 0.950 . S
C1089 C1085 1.393 . S
C1089 C1088 1.391 1_554 S
C1090 H1080 0.950 . S
C1090 C1091 1.386 . S
C1090 C1092 1.391 . S
C1091 C1090 1.386 . S
C1091 C1095 1.393 . S
C1092 H1081 0.950 . S
C1092 C1090 1.391 . S
C1092 C1093 1.400 . S
C1093 C1087 1.491 . S
C1093 C1092 1.400 . S
C1093 C1094 1.398 . S
C1094 H1082 0.950 . S
C1094 C1093 1.398 . S
C1094 C1095 1.391 . S
C1095 H1083 0.950 . S
C1095 C1091 1.393 . S
C1095 C1094 1.391 . S
H1096 C1104 0.950 . S
H1097 C1109 0.950 . S
H1098 C1106 0.950 . S
H1099 C1108 0.950 . S
H1100 C1110 0.950 . S
H1101 C1112 0.950 . S
H1102 C1114 0.950 . S
H1103 C1115 0.950 . S
C1104 H1096 0.950 . S
C1104 C1105 1.386 . S
C1104 C1106 1.391 . S
C1105 C1104 1.386 . S
C1105 C1109 1.393 1_554 S
C1106 H1098 0.950 . S
C1106 C1104 1.391 . S
C1106 C1107 1.400 1_554 S
C1107 C1106 1.400 1_556 S
C1107 C1108 1.398 . S
C1107 C1113 1.491 . S
C1108 H1099 0.950 . S
C1108 C1107 1.398 . S
C1108 C1109 1.391 . S
C1109 H1097 0.950 . S
C1109 C1105 1.393 1_556 S
C1109 C1108 1.391 . S
C1110 H1100 0.950 . S
C1110 C1111 1.386 . S
C1110 C1112 1.391 . S
C1111 C1110 1.386 . S
C1111 C1115 1.393 . S
C1112 H1101 0.950 . S
C1112 C1110 1.391 . S
C1112 C1113 1.400 . S
C1113 C1107 1.491 . S
C1113 C1112 1.400 . S
C1113 C1114 1.398 . S
C1114 H1102 0.950 . S
C1114 C1113 1.398 . S
C1114 C1115 1.391 . S
C1115 H1103 0.950 . S
C1115 C1111 1.393 . S
C1115 C1114 1.391 . S
H1116 C1124 0.950 . S
H1117 C1129 0.950 . S
H1118 C1126 0.950 . S
H1119 C1128 0.950 . S
H1120 C1130 0.950 . S
H1121 C1132 0.950 . S
H1122 C1134 0.950 . S
H1123 C1135 0.950 . S
C1124 H1116 0.950 . S
C1124 C1125 1.386 . S
C1124 C1126 1.391 . S
C1125 C1124 1.386 . S
C1125 C1129 1.393 . S
C1126 H1118 0.950 . S
C1126 C1124 1.391 . S
C1126 C1127 1.400 . S
C1127 C1126 1.400 . S
C1127 C1128 1.398 . S
C1127 C1133 1.491 . S
C1128 H1119 0.950 . S
C1128 C1127 1.398 . S
C1128 C1129 1.391 . S
C1129 H1117 0.950 . S
C1129 C1125 1.393 . S
C1129 C1128 1.391 . S
C1130 H1120 0.950 . S
C1130 C1131 1.386 . S
C1130 C1132 1.391 . S
C1131 C1130 1.386 . S
C1131 C1135 1.393 . S
C1132 H1121 0.950 . S
C1132 C1130 1.391 . S
C1132 C1133 1.400 . S
C1133 C1127 1.491 . S
C1133 C1132 1.400 . S
C1133 C1134 1.398 . S
C1134 H1122 0.950 . S
C1134 C1133 1.398 . S
C1134 C1135 1.391 . S
C1135 H1123 0.950 . S
C1135 C1131 1.393 . S
C1135 C1134 1.391 . S
H1136 C1144 0.950 . S
H1137 C1149 0.950 . S
H1138 C1146 0.950 . S
H1139 C1148 0.950 . S
H1140 C1150 0.950 . S
H1141 C1152 0.950 . S
H1142 C1154 0.950 . S
H1143 C1155 0.950 . S
C1144 H1136 0.950 . S
C1144 C1145 1.386 . S
C1144 C1146 1.391 . S
C1145 C1144 1.386 . S
C1145 C1149 1.393 . S
C1146 H1138 0.950 . S
C1146 C1144 1.391 . S
C1146 C1147 1.400 . S
C1147 C1146 1.400 . S
C1147 C1148 1.398 . S
C1147 C1153 1.491 . S
C1148 H1139 0.950 . S
C1148 C1147 1.398 . S
C1148 C1149 1.391 . S
C1149 H1137 0.950 . S
C1149 C1145 1.393 . S
C1149 C1148 1.391 . S
C1150 H1140 0.950 . S
C1150 C1151 1.386 . S
C1150 C1152 1.391 . S
C1151 C1150 1.386 . S
C1151 C1155 1.393 . S
C1152 H1141 0.950 . S
C1152 C1150 1.391 . S
C1152 C1153 1.400 . S
C1153 C1147 1.491 . S
C1153 C1152 1.400 . S
C1153 C1154 1.398 . S
C1154 H1142 0.950 . S
C1154 C1153 1.398 . S
C1154 C1155 1.391 . S
C1155 H1143 0.950 . S
C1155 C1151 1.393 . S
C1155 C1154 1.391 . S
H1156 C1164 0.950 . S
H1157 C1169 0.950 . S
H1158 C1166 0.950 . S
H1159 C1168 0.950 . S
H1160 C1170 0.950 . S
H1161 C1172 0.950 . S
H1162 C1174 0.950 . S
H1163 C1175 0.950 . S
C1164 H1156 0.950 . S
C1164 C1165 1.386 . S
C1164 C1166 1.391 . S
C1165 C1164 1.386 . S
C1165 C1169 1.393 . S
C1166 H1158 0.950 . S
C1166 C1164 1.391 . S
C1166 C1167 1.400 . S
C1167 C1166 1.400 . S
C1167 C1168 1.398 . S
C1167 C1173 1.491 . S
C1168 H1159 0.950 . S
C1168 C1167 1.398 . S
C1168 C1169 1.391 . S
C1169 H1157 0.950 . S
C1169 C1165 1.393 . S
C1169 C1168 1.391 . S
C1170 H1160 0.950 . S
C1170 C1171 1.386 . S
C1170 C1172 1.391 . S
C1171 C1170 1.386 . S
C1171 C1175 1.393 . S
C1172 H1161 0.950 . S
C1172 C1170 1.391 . S
C1172 C1173 1.400 . S
C1173 C1167 1.491 . S
C1173 C1172 1.400 . S
C1173 C1174 1.398 . S
C1174 H1162 0.950 . S
C1174 C1173 1.398 . S
C1174 C1175 1.391 . S
C1175 H1163 0.950 . S
C1175 C1171 1.393 . S
C1175 C1174 1.391 . S
H1176 C1184 0.950 . S
H1177 C1189 0.950 . S
H1178 C1186 0.950 . S
H1179 C1188 0.950 . S
H1180 C1190 0.950 . S
H1181 C1192 0.950 . S
H1182 C1194 0.950 . S
H1183 C1195 0.950 . S
C1184 H1176 0.950 . S
C1184 C1185 1.386 . S
C1184 C1186 1.391 . S
C1185 C1184 1.386 . S
C1185 C1189 1.393 . S
C1186 H1178 0.950 . S
C1186 C1184 1.391 . S
C1186 C1187 1.400 . S
C1187 C1186 1.400 . S
C1187 C1188 1.398 . S
C1187 C1193 1.491 . S
C1188 H1179 0.950 . S
C1188 C1187 1.398 . S
C1188 C1189 1.391 . S
C1189 H1177 0.950 . S
C1189 C1185 1.393 . S
C1189 C1188 1.391 . S
C1190 H1180 0.950 . S
C1190 C1191 1.386 1_554 S
C1190 C1192 1.391 . S
C1191 C1190 1.386 1_556 S
C1191 C1195 1.393 . S
C1192 H1181 0.950 . S
C1192 C1190 1.391 . S
C1192 C1193 1.400 . S
C1193 C1187 1.491 . S
C1193 C1192 1.400 . S
C1193 C1194 1.398 1_554 S
C1194 H1182 0.950 . S
C1194 C1193 1.398 1_556 S
C1194 C1195 1.391 . S
C1195 H1183 0.950 . S
C1195 C1191 1.393 . S
C1195 C1194 1.391 . S
H1196 C1204 0.950 . S
H1197 C1209 0.950 . S
H1198 C1206 0.950 . S
H1199 C1208 0.950 . S
H1200 C1210 0.950 . S
H1201 C1212 0.950 . S
H1202 C1214 0.950 . S
H1203 C1215 0.950 . S
C1204 H1196 0.950 . S
C1204 C1205 1.386 1_554 S
C1204 C1206 1.391 . S
C1205 C1204 1.386 1_556 S
C1205 C1209 1.393 . S
C1206 H1198 0.950 . S
C1206 C1204 1.391 . S
C1206 C1207 1.400 . S
C1207 C1206 1.400 . S
C1207 C1208 1.398 1_554 S
C1207 C1213 1.491 . S
C1208 H1199 0.950 . S
C1208 C1207 1.398 1_556 S
C1208 C1209 1.391 . S
C1209 H1197 0.950 . S
C1209 C1205 1.393 . S
C1209 C1208 1.391 . S
C1210 H1200 0.950 . S
C1210 C1211 1.386 . S
C1210 C1212 1.391 . S
C1211 C1210 1.386 . S
C1211 C1215 1.393 . S
C1212 H1201 0.950 . S
C1212 C1210 1.391 . S
C1212 C1213 1.400 . S
C1213 C1207 1.491 . S
C1213 C1212 1.400 . S
C1213 C1214 1.398 . S
C1214 H1202 0.950 . S
C1214 C1213 1.398 . S
C1214 C1215 1.391 . S
C1215 H1203 0.950 . S
C1215 C1211 1.393 . S
C1215 C1214 1.391 . S
H1216 C1224 0.950 . S
H1217 C1229 0.950 . S
H1218 C1226 0.950 . S
H1219 C1228 0.950 . S
H1220 C1230 0.950 . S
H1221 C1232 0.950 . S
H1222 C1234 0.950 . S
H1223 C1235 0.950 . S
C1224 H1216 0.950 . S
C1224 C1225 1.386 . S
C1224 C1226 1.391 . S
C1225 C1224 1.386 . S
C1225 C1229 1.393 . S
C1226 H1218 0.950 . S
C1226 C1224 1.391 . S
C1226 C1227 1.400 . S
C1227 C1226 1.400 . S
C1227 C1228 1.398 . S
C1227 C1233 1.491 . S
C1228 H1219 0.950 . S
C1228 C1227 1.398 . S
C1228 C1229 1.391 . S
C1229 H1217 0.950 . S
C1229 C1225 1.393 . S
C1229 C1228 1.391 . S
C1230 H1220 0.950 . S
C1230 C1231 1.386 . S
C1230 C1232 1.391 . S
C1231 C1230 1.386 . S
C1231 C1235 1.393 1_556 S
C1232 H1221 0.950 . S
C1232 C1230 1.391 . S
C1232 C1233 1.400 1_556 S
C1233 C1227 1.491 . S
C1233 C1232 1.400 1_554 S
C1233 C1234 1.398 . S
C1234 H1222 0.950 . S
C1234 C1233 1.398 . S
C1234 C1235 1.391 . S
C1235 H1223 0.950 . S
C1235 C1231 1.393 1_554 S
C1235 C1234 1.391 . S
H1236 C1244 0.950 . S
H1237 C1249 0.950 . S
H1238 C1246 0.950 . S
H1239 C1248 0.950 . S
H1240 C1250 0.950 . S
H1241 C1252 0.950 . S
H1242 C1254 0.950 . S
H1243 C1255 0.950 . S
C1244 H1236 0.950 . S
C1244 C1245 1.386 . S
C1244 C1246 1.391 . S
C1245 C1244 1.386 . S
C1245 C1249 1.393 . S
C1246 H1238 0.950 . S
C1246 C1244 1.391 . S
C1246 C1247 1.400 . S
C1247 C1246 1.400 . S
C1247 C1248 1.398 . S
C1247 C1253 1.491 . S
C1248 H1239 0.950 . S
C1248 C1247 1.398 . S
C1248 C1249 1.391 . S
C1249 H1237 0.950 . S
C1249 C1245 1.393 . S
C1249 C1248 1.391 . S
C1250 H1240 0.950 . S
C1250 C1251 1.386 . S
C1250 C1252 1.391 . S
C1251 C1250 1.386 . S
C1251 C1255 1.393 . S
C1252 H1241 0.950 . S
C1252 C1250 1.391 . S
C1252 C1253 1.400 . S
C1253 C1247 1.491 . S
C1253 C1252 1.400 . S
C1253 C1254 1.398 . S
C1254 H1242 0.950 . S
C1254 C1253 1.398 . S
C1254 C1255 1.391 . S
C1255 H1243 0.950 . S
C1255 C1251 1.393 . S
C1255 C1254 1.391 . S
H1256 C1264 0.950 . S
H1257 C1269 0.950 . S
H1258 C1266 0.950 . S
H1259 C1268 0.950 . S
H1260 C1270 0.950 . S
H1261 C1272 0.950 . S
H1262 C1274 0.950 . S
H1263 C1275 0.950 . S
C1264 H1256 0.950 . S
C1264 C1265 1.386 . S
C1264 C1266 1.391 . S
C1265 C1264 1.386 . S
C1265 C1269 1.393 . S
C1266 H1258 0.950 . S
C1266 C1264 1.391 . S
C1266 C1267 1.400 . S
C1267 C1266 1.400 . S
C1267 C1268 1.398 . S
C1267 C1273 1.491 . S
C1268 H1259 0.950 . S
C1268 C1267 1.398 . S
C1268 C1269 1.391 . S
C1269 H1257 0.950 . S
C1269 C1265 1.393 . S
C1269 C1268 1.391 . S
C1270 H1260 0.950 . S
C1270 C1271 1.386 . S
C1270 C1272 1.391 . S
C1271 C1270 1.386 . S
C1271 C1275 1.393 . S
C1272 H1261 0.950 . S
C1272 C1270 1.391 . S
C1272 C1273 1.400 . S
C1273 C1267 1.491 . S
C1273 C1272 1.400 . S
C1273 C1274 1.398 . S
C1274 H1262 0.950 . S
C1274 C1273 1.398 . S
C1274 C1275 1.391 . S
C1275 H1263 0.950 . S
C1275 C1271 1.393 . S
C1275 C1274 1.391 . S
H1276 C1284 0.950 . S
H1277 C1289 0.950 . S
H1278 C1286 0.950 . S
H1279 C1288 0.950 . S
H1280 C1290 0.950 . S
H1281 C1292 0.950 . S
H1282 C1294 0.950 . S
H1283 C1295 0.950 . S
C1284 H1276 0.950 . S
C1284 C1285 1.386 . S
C1284 C1286 1.391 . S
C1285 C1284 1.386 . S
C1285 C1289 1.393 . S
C1286 H1278 0.950 . S
C1286 C1284 1.391 . S
C1286 C1287 1.400 . S
C1287 C1286 1.400 . S
C1287 C1288 1.398 . S
C1287 C1293 1.491 . S
C1288 H1279 0.950 . S
C1288 C1287 1.398 . S
C1288 C1289 1.391 . S
C1289 H1277 0.950 . S
C1289 C1285 1.393 . S
C1289 C1288 1.391 . S
C1290 H1280 0.950 . S
C1290 C1291 1.386 . S
C1290 C1292 1.391 . S
C1291 C1290 1.386 . S
C1291 C1295 1.393 . S
C1292 H1281 0.950 . S
C1292 C1290 1.391 . S
C1292 C1293 1.400 . S
C1293 C1287 1.491 . S
C1293 C1292 1.400 . S
C1293 C1294 1.398 . S
C1294 H1282 0.950 . S
C1294 C1293 1.398 . S
C1294 C1295 1.391 . S
C1295 H1283 0.950 . S
C1295 C1291 1.393 . S
C1295 C1294 1.391 . S
H1296 C1304 0.950 . S
H1297 C1309 0.950 . S
H1298 C1306 0.950 . S
H1299 C1308 0.950 . S
H1300 C1310 0.950 . S
H1301 C1312 0.950 . S
H1302 C1314 0.950 . S
H1303 C1315 0.950 . S
C1304 H1296 0.950 . S
C1304 C1305 1.386 . S
C1304 C1306 1.391 . S
C1305 C1304 1.386 . S
C1305 C1309 1.393 . S
C1306 H1298 0.950 . S
C1306 C1304 1.391 . S
C1306 C1307 1.400 . S
C1307 C1306 1.400 . S
C1307 C1308 1.398 . S
C1307 C1313 1.491 . S
C1308 H1299 0.950 . S
C1308 C1307 1.398 . S
C1308 C1309 1.391 . S
C1309 H1297 0.950 . S
C1309 C1305 1.393 . S
C1309 C1308 1.391 . S
C1310 H1300 0.950 . S
C1310 C1311 1.386 . S
C1310 C1312 1.391 . S
C1311 C1310 1.386 . S
C1311 C1315 1.393 . S
C1312 H1301 0.950 . S
C1312 C1310 1.391 . S
C1312 C1313 1.400 . S
C1313 C1307 1.491 . S
C1313 C1312 1.400 . S
C1313 C1314 1.398 . S
C1314 H1302 0.950 . S
C1314 C1313 1.398 . S
C1314 C1315 1.391 . S
C1315 H1303 0.950 . S
C1315 C1311 1.393 . S
C1315 C1314 1.391 . S
H1316 C1324 0.950 . S
H1317 C1329 0.950 . S
H1318 C1326 0.950 . S
H1319 C1328 0.950 . S
H1320 C1330 0.950 . S
H1321 C1332 0.950 . S
H1322 C1334 0.950 . S
H1323 C1335 0.950 . S
C1324 H1316 0.950 . S
C1324 C1325 1.386 . S
C1324 C1326 1.391 . S
C1325 C1324 1.386 . S
C1325 C1329 1.393 . S
C1326 H1318 0.950 . S
C1326 C1324 1.391 . S
C1326 C1327 1.400 . S
C1327 C1326 1.400 . S
C1327 C1328 1.398 . S
C1327 C1333 1.491 . S
C1328 H1319 0.950 . S
C1328 C1327 1.398 . S
C1328 C1329 1.391 . S
C1329 H1317 0.950 . S
C1329 C1325 1.393 . S
C1329 C1328 1.391 . S
C1330 H1320 0.950 . S
C1330 C1331 1.386 . S
C1330 C1332 1.391 . S
C1331 C1330 1.386 . S
C1331 C1335 1.393 . S
C1332 H1321 0.950 . S
C1332 C1330 1.391 . S
C1332 C1333 1.400 . S
C1333 C1327 1.491 . S
C1333 C1332 1.400 . S
C1333 C1334 1.398 . S
C1334 H1322 0.950 . S
C1334 C1333 1.398 . S
C1334 C1335 1.391 . S
C1335 H1323 0.950 . S
C1335 C1331 1.393 . S
C1335 C1334 1.391 . S
H1336 C1344 0.950 . S
H1337 C1349 0.950 . S
H1338 C1346 0.950 . S
H1339 C1348 0.950 . S
H1340 C1350 0.950 . S
H1341 C1352 0.950 . S
H1342 C1354 0.950 . S
H1343 C1355 0.950 . S
C1344 H1336 0.950 . S
C1344 C1345 1.386 . S
C1344 C1346 1.391 . S
C1345 C1344 1.386 . S
C1345 C1349 1.393 . S
C1346 H1338 0.950 . S
C1346 C1344 1.391 . S
C1346 C1347 1.400 . S
C1347 C1346 1.400 . S
C1347 C1348 1.398 . S
C1347 C1353 1.491 . S
C1348 H1339 0.950 . S
C1348 C1347 1.398 . S
C1348 C1349 1.391 . S
C1349 H1337 0.950 . S
C1349 C1345 1.393 . S
C1349 C1348 1.391 . S
C1350 H1340 0.950 . S
C1350 C1351 1.386 . S
C1350 C1352 1.391 . S
C1351 C1350 1.386 . S
C1351 C1355 1.393 . S
C1352 H1341 0.950 . S
C1352 C1350 1.391 . S
C1352 C1353 1.400 . S
C1353 C1347 1.491 . S
C1353 C1352 1.400 . S
C1353 C1354 1.398 . S
C1354 H1342 0.950 . S
C1354 C1353 1.398 . S
C1354 C1355 1.391 . S
C1355 H1343 0.950 . S
C1355 C1351 1.393 . S
C1355 C1354 1.391 . S
H1356 C1364 0.950 . S
H1357 C1369 0.950 . S
H1358 C1366 0.950 . S
H1359 C1368 0.950 . S
H1360 C1370 0.950 . S
H1361 C1372 0.950 . S
H1362 C1374 0.950 . S
H1363 C1375 0.950 . S
C1364 H1356 0.950 . S
C1364 C1365 1.386 . S
C1364 C1366 1.391 . S
C1365 C1364 1.386 . S
C1365 C1369 1.393 . S
C1366 H1358 0.950 . S
C1366 C1364 1.391 . S
C1366 C1367 1.400 . S
C1367 C1366 1.400 . S
C1367 C1368 1.398 . S
C1367 C1373 1.491 . S
C1368 H1359 0.950 . S
C1368 C1367 1.398 . S
C1368 C1369 1.391 . S
C1369 H1357 0.950 . S
C1369 C1365 1.393 . S
C1369 C1368 1.391 . S
C1370 H1360 0.950 . S
C1370 C1371 1.386 . S
C1370 C1372 1.391 . S
C1371 C1370 1.386 . S
C1371 C1375 1.393 . S
C1372 H1361 0.950 . S
C1372 C1370 1.391 . S
C1372 C1373 1.400 . S
C1373 C1367 1.491 . S
C1373 C1372 1.400 . S
C1373 C1374 1.398 . S
C1374 H1362 0.950 . S
C1374 C1373 1.398 . S
C1374 C1375 1.391 . S
C1375 H1363 0.950 . S
C1375 C1371 1.393 . S
C1375 C1374 1.391 . S
H1376 C1384 0.950 . S
H1377 C1389 0.950 . S
H1378 C1386 0.950 . S
H1379 C1388 0.950 . S
H1380 C1390 0.950 . S
H1381 C1392 0.950 . S
H1382 C1394 0.950 . S
H1383 C1395 0.950 . S
C1384 H1376 0.950 . S
C1384 C1385 1.386 . S
C1384 C1386 1.391 . S
C1385 C1384 1.386 . S
C1385 C1389 1.393 . S
C1386 H1378 0.950 . S
C1386 C1384 1.391 . S
C1386 C1387 1.400 . S
C1387 C1386 1.400 . S
C1387 C1388 1.398 . S
C1387 C1393 1.491 . S
C1388 H1379 0.950 . S
C1388 C1387 1.398 . S
C1388 C1389 1.391 . S
C1389 H1377 0.950 . S
C1389 C1385 1.393 . S
C1389 C1388 1.391 . S
C1390 H1380 0.950 . S
C1390 C1391 1.386 . S
C1390 C1392 1.391 . S
C1391 C1390 1.386 . S
C1391 C1395 1.393 . S
C1392 H1381 0.950 . S
C1392 C1390 1.391 . S
C1392 C1393 1.400 . S
C1393 C1387 1.491 . S
C1393 C1392 1.400 . S
C1393 C1394 1.398 . S
C1394 H1382 0.950 . S
C1394 C1393 1.398 . S
C1394 C1395 1.391 . S
C1395 H1383 0.950 . S
C1395 C1391 1.393 . S
C1395 C1394 1.391 . S
H1396 C1404 0.950 . S
H1397 C1409 0.950 . S
H1398 C1406 0.950 . S
H1399 C1408 0.950 . S
H1400 C1410 0.950 . S
H1401 C1412 0.950 . S
H1402 C1414 0.950 . S
H1403 C1415 0.950 . S
C1404 H1396 0.950 . S
C1404 C1405 1.386 . S
C1404 C1406 1.391 . S
C1405 C1404 1.386 . S
C1405 C1409 1.393 . S
C1406 H1398 0.950 . S
C1406 C1404 1.391 . S
C1406 C1407 1.400 . S
C1407 C1406 1.400 . S
C1407 C1408 1.398 . S
C1407 C1413 1.491 . S
C1408 H1399 0.950 . S
C1408 C1407 1.398 . S
C1408 C1409 1.391 . S
C1409 H1397 0.950 . S
C1409 C1405 1.393 . S
C1409 C1408 1.391 . S
C1410 H1400 0.950 . S
C1410 C1411 1.386 . S
C1410 C1412 1.391 . S
C1411 C1410 1.386 . S
C1411 C1415 1.393 . S
C1412 H1401 0.950 . S
C1412 C1410 1.391 . S
C1412 C1413 1.400 . S
C1413 C1407 1.491 . S
C1413 C1412 1.400 . S
C1413 C1414 1.398 . S
C1414 H1402 0.950 . S
C1414 C1413 1.398 . S
C1414 C1415 1.391 . S
C1415 H1403 0.950 . S
C1415 C1411 1.393 . S
C1415 C1414 1.391 . S
H1416 C1424 0.950 . S
H1417 C1429 0.950 . S
H1418 C1426 0.950 1_556 S
H1419 C1428 0.950 . S
H1420 C1430 0.950 . S
H1421 C1432 0.950 1_554 S
H1422 C1434 0.950 . S
H1423 C1435 0.950 . S
C1424 H1416 0.950 . S
C1424 C1425 1.386 . S
C1424 C1426 1.391 . S
C1425 C1424 1.386 . S
C1425 C1429 1.393 1_455 S
C1426 H1418 0.950 1_554 S
C1426 C1424 1.391 . S
C1426 C1427 1.400 . S
C1427 C1426 1.400 . S
C1427 C1428 1.398 1_455 S
C1427 C1433 1.491 1_454 S
C1428 H1419 0.950 . S
C1428 C1427 1.398 1_655 S
C1428 C1429 1.391 . S
C1429 H1417 0.950 . S
C1429 C1425 1.393 1_655 S
C1429 C1428 1.391 . S
C1430 H1420 0.950 . S
C1430 C1431 1.386 . S
C1430 C1432 1.391 . S
C1431 C1430 1.386 . S
C1431 C1435 1.393 1_655 S
C1432 H1421 0.950 1_556 S
C1432 C1430 1.391 . S
C1432 C1433 1.400 . S
C1433 C1427 1.491 1_656 S
C1433 C1432 1.400 . S
C1433 C1434 1.398 1_655 S
C1434 H1422 0.950 . S
C1434 C1433 1.398 1_455 S
C1434 C1435 1.391 . S
C1435 H1423 0.950 . S
C1435 C1431 1.393 1_455 S
C1435 C1434 1.391 . S
H1436 C1444 0.950 . S
H1437 C1449 0.950 . S
H1438 C1446 0.950 1_556 S
H1439 C1448 0.950 . S
H1440 C1450 0.950 . S
H1441 C1452 0.950 1_554 S
H1442 C1454 0.950 . S
H1443 C1455 0.950 . S
C1444 H1436 0.950 . S
C1444 C1445 1.386 . S
C1444 C1446 1.391 . S
C1445 C1444 1.386 . S
C1445 C1449 1.393 . S
C1446 H1438 0.950 1_554 S
C1446 C1444 1.391 . S
C1446 C1447 1.400 . S
C1447 C1446 1.400 . S
C1447 C1448 1.398 . S
C1447 C1453 1.491 1_554 S
C1448 H1439 0.950 . S
C1448 C1447 1.398 . S
C1448 C1449 1.391 . S
C1449 H1437 0.950 . S
C1449 C1445 1.393 . S
C1449 C1448 1.391 . S
C1450 H1440 0.950 . S
C1450 C1451 1.386 . S
C1450 C1452 1.391 . S
C1451 C1450 1.386 . S
C1451 C1455 1.393 . S
C1452 H1441 0.950 1_556 S
C1452 C1450 1.391 . S
C1452 C1453 1.400 . S
C1453 C1447 1.491 1_556 S
C1453 C1452 1.400 . S
C1453 C1454 1.398 . S
C1454 H1442 0.950 . S
C1454 C1453 1.398 . S
C1454 C1455 1.391 . S
C1455 H1443 0.950 . S
C1455 C1451 1.393 . S
C1455 C1454 1.391 . S
H1456 C1464 0.950 1_545 S
H1457 C1469 0.950 . S
H1458 C1466 0.950 1_556 S
H1459 C1468 0.950 . S
H1460 C1470 0.950 1_565 S
H1461 C1472 0.950 1_554 S
H1462 C1474 0.950 . S
H1463 C1475 0.950 . S
C1464 H1456 0.950 1_565 S
C1464 C1465 1.386 . S
C1464 C1466 1.391 1_565 S
C1465 C1464 1.386 . S
C1465 C1469 1.393 . S
C1466 H1458 0.950 1_554 S
C1466 C1464 1.391 1_545 S
C1466 C1467 1.400 1_545 S
C1467 C1466 1.400 1_565 S
C1467 C1468 1.398 . S
C1467 C1473 1.491 1_564 S
C1468 H1459 0.950 . S
C1468 C1467 1.398 . S
C1468 C1469 1.391 . S
C1469 H1457 0.950 . S
C1469 C1465 1.393 . S
C1469 C1468 1.391 . S
C1470 H1460 0.950 1_545 S
C1470 C1471 1.386 . S
C1470 C1472 1.391 1_545 S
C1471 C1470 1.386 . S
C1471 C1475 1.393 . S
C1472 H1461 0.950 1_556 S
C1472 C1470 1.391 1_565 S
C1472 C1473 1.400 1_565 S
C1473 C1467 1.491 1_546 S
C1473 C1472 1.400 1_545 S
C1473 C1474 1.398 . S
C1474 H1462 0.950 . S
C1474 C1473 1.398 . S
C1474 C1475 1.391 . S
C1475 H1463 0.950 . S
C1475 C1471 1.393 . S
C1475 C1474 1.391 . S
H1476 C1484 0.950 1_545 S
H1477 C1489 0.950 . S
H1478 C1486 0.950 . S
H1479 C1488 0.950 . S
H1480 C1490 0.948 1_565 S
H1481 C1492 0.950 . S
H1482 C1494 0.950 . S
H1483 C1495 0.950 . S
C1484 H1476 0.950 1_565 S
C1484 C1485 1.386 . S
C1484 C1486 1.391 1_565 S
C1485 C1484 1.386 . S
C1485 C1489 1.393 . S
C1486 H1478 0.950 . S
C1486 C1484 1.391 1_545 S
C1486 C1487 1.400 1_545 S
C1487 C1486 1.400 1_565 S
C1487 C1488 1.398 . S
C1487 C1493 1.491 1_565 S
C1488 H1479 0.950 . S
C1488 C1487 1.398 . S
C1488 C1489 1.391 . S
C1489 H1477 0.950 . S
C1489 C1485 1.393 . S
C1489 C1488 1.391 . S
C1490 H1480 0.948 1_545 S
C1490 C1491 1.390 . S
C1490 C1492 1.388 1_545 S
C1491 C1490 1.390 . S
C1491 C1495 1.393 . S
C1492 H1481 0.950 . S
C1492 C1490 1.388 1_565 S
C1492 C1493 1.400 1_565 S
C1493 C1487 1.491 1_545 S
C1493 C1492 1.400 1_545 S
C1493 C1494 1.398 . S
C1494 H1482 0.950 . S
C1494 C1493 1.398 . S
C1494 C1495 1.391 . S
C1495 H1483 0.950 . S
C1495 C1491 1.393 . S
C1495 C1494 1.391 . S
H1496 C1504 0.950 . S
H1497 C1509 0.950 . S
H1498 C1506 0.950 . S
H1499 C1508 0.950 . S
H1500 C1510 0.950 . S
H1501 C1512 0.950 . S
H1502 C1514 0.950 . S
H1503 C1515 0.990 . S
C1504 H1496 0.950 . S
C1504 C1505 1.386 . S
C1504 C1506 1.391 . S
C1505 C1504 1.386 . S
C1505 C1509 1.393 1_655 S
C1506 H1498 0.950 . S
C1506 C1504 1.391 . S
C1506 C1507 1.400 . S
C1507 C1506 1.400 . S
C1507 C1508 1.398 1_655 S
C1507 C1513 1.491 1_655 S
C1508 H1499 0.950 . S
C1508 C1507 1.398 1_455 S
C1508 C1509 1.391 . S
C1509 H1497 0.950 . S
C1509 C1505 1.393 1_455 S
C1509 C1508 1.391 . S
C1510 H1500 0.950 . S
C1510 C1511 1.386 . S
C1510 C1512 1.391 . S
C1511 C1510 1.386 . S
C1511 C1515 1.356 1_455 S
C1512 H1501 0.950 . S
C1512 C1510 1.391 . S
C1512 C1513 1.400 . S
C1513 C1507 1.491 1_455 S
C1513 C1512 1.400 . S
C1513 C1514 1.398 1_455 S
C1514 H1502 0.950 . S
C1514 C1513 1.398 1_655 S
C1514 C1515 1.388 . S
C1515 H1503 0.990 . S
C1515 C1511 1.356 1_655 S
C1515 C1514 1.388 . S
H1516 C1524 0.950 . S
H1517 C1529 0.950 . S
H1518 C1526 0.950 . S
H1519 C1528 0.950 . S
H1520 C1530 0.950 . S
H1521 C1532 0.950 . S
H1522 C1534 0.950 . S
H1523 C1535 0.950 . S
C1524 H1516 0.950 . S
C1524 C1525 1.386 . S
C1524 C1526 1.391 . S
C1525 C1524 1.386 . S
C1525 C1529 1.393 . S
C1526 H1518 0.950 . S
C1526 C1524 1.391 . S
C1526 C1527 1.400 . S
C1527 C1526 1.400 . S
C1527 C1528 1.398 . S
C1527 C1533 1.491 . S
C1528 H1519 0.950 . S
C1528 C1527 1.398 . S
C1528 C1529 1.391 . S
C1529 H1517 0.950 . S
C1529 C1525 1.393 . S
C1529 C1528 1.391 . S
C1530 H1520 0.950 . S
C1530 C1531 1.386 . S
C1530 C1532 1.391 . S
C1531 C1530 1.386 . S
C1531 C1535 1.393 . S
C1532 H1521 0.950 . S
C1532 C1530 1.391 . S
C1532 C1533 1.400 . S
C1533 C1527 1.491 . S
C1533 C1532 1.400 . S
C1533 C1534 1.398 . S
C1534 H1522 0.950 . S
C1534 C1533 1.398 . S
C1534 C1535 1.391 . S
C1535 H1523 0.950 . S
C1535 C1531 1.393 . S
C1535 C1534 1.391 . S
C1065 C49 0.198 . S
C1071 C636 0.348 . S
C1085 C145 0.170 . S
C1091 C753 0.282 . S
C1105 C233 0.113 . S
C1111 C577 0.302 . S
C1125 C997 0.318 . S
C1131 C284 0.170 . S
C1145 C372 0.175 . S
C1151 C849 0.288 . S
C1165 C900 0.331 . S
C1171 C469 0.196 . S
C1185 C137 0.349 . S
C1191 C548 0.228 . S
C1205 C673 0.099 . S
C1211 C225 0.319 . S
C1225 C57 0.273 . S
C1231 C733 0.102 . S
C1245 C812 0.123 . S
C1251 C460 0.340 . S
C1265 C937 0.174 . S
C1271 C293 0.347 . S
C1285 C381 0.327 . S
C1291 C1025 0.228 . S
C1305 C489 2.499 . S
C1311 C29 2.500 . S
C1325 C108 2.504 . S
C1331 C321 2.504 . S
C1345 C196 2.502 . S
C1351 C409 2.501 . S
C1365 C585 2.514 . S
C1371 C988 2.514 . S
C1385 C665 2.469 . S
C1391 C821 2.470 . S
C1405 C724 2.489 . S
C1411 C929 2.486 . S
C1425 C20 1.826 . S
C1431 C557 1.835 . S
C1445 C117 1.817 . S
C1451 C645 1.810 . S
C1465 C205 1.831 . S
C1471 C761 1.824 . S
C1485 C313 1.837 . S
C1491 C841 1.831 . S
C1505 C909 1.826 . S
C1511 C401 1.833 . S
C1525 C497 1.846 . S
C1531 C1017 1.854 . S
