# Generated by pormake.
# Topology wfs, (7)-cn, num edge types: 1
# Building blocks:
#     Node 0, Type 0, BuildingBlock: HICVOG_clean_sbu_0, # of connection points: 7
#     Node 1, Type 0, BuildingBlock: HICVOG_clean_sbu_0, # of connection points: 7
#     Node 2, Type 0, BuildingBlock: HICVOG_clean_sbu_0, # of connection points: 7
#     Node 3, Type 0, BuildingBlock: HICVOG_clean_sbu_0, # of connection points: 7
#     Node 4, Type 0, BuildingBlock: HICVOG_clean_sbu_0, # of connection points: 7
#     Node 5, Type 0, BuildingBlock: HICVOG_clean_sbu_0, # of connection points: 7
#     Node 6, Type 0, BuildingBlock: HICVOG_clean_sbu_0, # of connection points: 7
#     Node 7, Type 0, BuildingBlock: HICVOG_clean_sbu_0, # of connection points: 7
#     Edge 8, Type (0, 0), BuildingBlock: TEMPAE_clean_linker_10, # of connection points: 2
#     Edge 9, Type (0, 0), BuildingBlock: TEMPAE_clean_linker_10, # of connection points: 2
#     Edge 10, Type (0, 0), BuildingBlock: TEMPAE_clean_linker_10, # of connection points: 2
#     Edge 11, Type (0, 0), BuildingBlock: TEMPAE_clean_linker_10, # of connection points: 2
#     Edge 12, Type (0, 0), BuildingBlock: TEMPAE_clean_linker_10, # of connection points: 2
#     Edge 13, Type (0, 0), BuildingBlock: TEMPAE_clean_linker_10, # of connection points: 2
#     Edge 14, Type (0, 0), BuildingBlock: TEMPAE_clean_linker_10, # of connection points: 2
#     Edge 15, Type (0, 0), BuildingBlock: TEMPAE_clean_linker_10, # of connection points: 2
#     Edge 16, Type (0, 0), BuildingBlock: TEMPAE_clean_linker_10, # of connection points: 2
#     Edge 17, Type (0, 0), BuildingBlock: TEMPAE_clean_linker_10, # of connection points: 2
#     Edge 18, Type (0, 0), BuildingBlock: TEMPAE_clean_linker_10, # of connection points: 2
#     Edge 19, Type (0, 0), BuildingBlock: TEMPAE_clean_linker_10, # of connection points: 2
#     Edge 20, Type (0, 0), BuildingBlock: TEMPAE_clean_linker_10, # of connection points: 2
#     Edge 21, Type (0, 0), BuildingBlock: TEMPAE_clean_linker_10, # of connection points: 2
#     Edge 22, Type (0, 0), BuildingBlock: TEMPAE_clean_linker_10, # of connection points: 2
#     Edge 23, Type (0, 0), BuildingBlock: TEMPAE_clean_linker_10, # of connection points: 2
#     Edge 24, Type (0, 0), BuildingBlock: TEMPAE_clean_linker_10, # of connection points: 2
#     Edge 25, Type (0, 0), BuildingBlock: TEMPAE_clean_linker_10, # of connection points: 2
#     Edge 26, Type (0, 0), BuildingBlock: TEMPAE_clean_linker_10, # of connection points: 2
#     Edge 27, Type (0, 0), BuildingBlock: TEMPAE_clean_linker_10, # of connection points: 2
#     Edge 28, Type (0, 0), BuildingBlock: TEMPAE_clean_linker_10, # of connection points: 2
#     Edge 29, Type (0, 0), BuildingBlock: TEMPAE_clean_linker_10, # of connection points: 2
#     Edge 30, Type (0, 0), BuildingBlock: TEMPAE_clean_linker_10, # of connection points: 2
#     Edge 31, Type (0, 0), BuildingBlock: TEMPAE_clean_linker_10, # of connection points: 2
#     Edge 32, Type (0, 0), BuildingBlock: TEMPAE_clean_linker_10, # of connection points: 2
#     Edge 33, Type (0, 0), BuildingBlock: TEMPAE_clean_linker_10, # of connection points: 2
#     Edge 34, Type (0, 0), BuildingBlock: TEMPAE_clean_linker_10, # of connection points: 2
#     Edge 35, Type (0, 0), BuildingBlock: TEMPAE_clean_linker_10, # of connection points: 2
# Relax obj value: 0.538
# Max RMSD: 0.319
# Mean RMSD: 0.319
data_MOF--net-wfs--node1-HICVOG_clean_sbu_0--edge1-TEMPAE_clean_linker_10
_symmetry_space_group_name_H-M    P1
_symmetry_Int_Tables_number       1
_symmetry_cell_setting            triclinic
loop_
_symmetry_equiv_pos_as_xyz
'x, y, z'
_cell_length_a     31.36336
_cell_length_b     30.01629
_cell_length_c     33.039046
_cell_angle_alpha  89.9942
_cell_angle_beta   90.065912
_cell_angle_gamma 89.527926
loop_
_atom_site_label
_atom_site_type_symbol
_atom_site_fract_x
_atom_site_fract_y
_atom_site_fract_z
_atom_type_partial_charge
Zn0 Zn 0.21242 0.14675 0.19594 0.0
C1 C 0.2164 0.26487 0.25194 0.0
N2 N 0.25727 0.25251 0.25801 0.0
C3 C 0.25914 0.21221 0.24091 0.0
N4 N 0.22139 0.20021 0.22535 0.0
N5 N 0.19385 0.2331 0.23205 0.0
C6 C 0.10152 0.21936 0.13736 0.0
O7 O 0.11019 0.17742 0.14524 0.0
O8 O 0.25523 0.09794 0.21176 0.0
Zn9 Zn 0.13189 0.22884 0.22104 0.0
N10 N 0.21824 0.1598 0.1396 0.0
C11 C 0.22313 0.20944 0.08382 0.0
C12 C 0.214 0.20172 0.12453 0.0
C13 C 0.2314 0.1255 0.11613 0.0
N14 N 0.23636 0.17497 0.06015 0.0
C15 C 0.24129 0.13304 0.07538 0.0
O16 O 0.1072 0.166 0.23006 0.0
C17 C 0.11973 0.12658 0.2213 0.0
O18 O 0.15679 0.11921 0.20744 0.0
H19 H 0.20426 0.22887 0.14404 0.0
H20 H 0.23357 0.09267 0.12949 0.0
C21 C 0.06592 0.28649 0.24959 0.0
C22 C 0.04416 0.31289 0.27806 0.0
C23 C 0.09954 0.29943 0.32552 0.0
C24 C 0.11959 0.27101 0.29802 0.0
N25 N 0.10325 0.26641 0.26012 0.0
N26 N 0.06206 0.31927 0.31513 0.0
H27 H 0.05266 0.28066 0.21982 0.0
C28 C 0.25416 0.08125 0.24713 0.0
O29 O 0.22659 0.09743 0.27331 0.0
O30 O 0.11179 0.24871 0.16357 0.0
H31 H 0.14822 0.25312 0.3067 0.0
H32 H 0.2198 0.24251 0.07114 0.0
H33 H 0.11285 0.30447 0.35537 0.0
Zn34 Zn 0.09687 0.76871 0.7733 0.0
C35 C 0.22302 0.79492 0.76776 0.0
N36 N 0.22691 0.75154 0.75917 0.0
C37 C 0.18672 0.73694 0.7625 0.0
N38 N 0.15917 0.77027 0.77249 0.0
N39 N 0.18241 0.80681 0.77556 0.0
C40 C 0.22381 0.92162 0.7467 0.0
O41 O 0.21805 0.89481 0.7158 0.0
O42 O 0.07099 0.74668 0.8272 0.0
Zn43 Zn 0.16169 0.8651 0.78939 0.0
N44 N 0.08086 0.72929 0.72994 0.0
C45 C 0.09118 0.69783 0.66439 0.0
C46 C 0.10496 0.72524 0.69586 0.0
C47 C 0.04293 0.7085 0.7331 0.0
N48 N 0.05239 0.67827 0.66699 0.0
C49 C 0.02794 0.68311 0.70066 0.0
O50 O 0.11099 0.88491 0.7584 0.0
C51 C 0.07402 0.86913 0.7534 0.0
O52 O 0.06577 0.82836 0.76087 0.0
H53 H 0.13439 0.74343 0.69292 0.0
H54 H 0.02326 0.71438 0.75952 0.0
C55 C 0.17348 0.88321 0.87232 0.0
C56 C 0.16364 0.88311 0.91374 0.0
C57 C 0.09876 0.84627 0.89895 0.0
C58 C 0.10879 0.8467 0.85787 0.0
N59 N 0.14622 0.86456 0.84555 0.0
N60 N 0.12626 0.86456 0.92584 0.0
H61 H 0.20148 0.89964 0.86086 0.0
C62 C 0.08953 0.73965 0.861 0.0
O63 O 0.13118 0.74351 0.86314 0.0
O64 O 0.20451 0.91435 0.77987 0.0
H65 H 0.08697 0.83298 0.83606 0.0
H66 H 0.11023 0.69388 0.63734 0.0
H67 H 0.06909 0.83218 0.90935 0.0
Zn68 Zn 0.82448 0.85356 0.17749 0.0
C69 C 0.81298 0.73993 0.23796 0.0
N70 N 0.77502 0.75835 0.24768 0.0
C71 C 0.77797 0.79926 0.23199 0.0
N72 N 0.81507 0.80543 0.21307 0.0
N73 N 0.838 0.76865 0.21707 0.0
C74 C 0.92676 0.72125 0.12652 0.0
O75 O 0.92635 0.68355 0.14666 0.0
O76 O 0.78763 0.90616 0.19572 0.0
Zn77 Zn 0.89879 0.76849 0.20428 0.0
N78 N 0.80442 0.83477 0.12542 0.0
C79 C 0.79318 0.78055 0.07404 0.0
C80 C 0.81317 0.79381 0.10986 0.0
C81 C 0.77579 0.86235 0.10747 0.0
N82 N 0.7648 0.80855 0.05572 0.0
C83 C 0.75493 0.84895 0.07208 0.0
O84 O 0.92392 0.83001 0.21563 0.0
C85 C 0.91767 0.86789 0.19888 0.0
O86 O 0.88434 0.87641 0.17815 0.0
H87 H 0.83467 0.7714 0.12552 0.0
H88 H 0.76971 0.89476 0.12064 0.0
C89 C 0.96504 0.70826 0.23196 0.0
C90 C 0.98551 0.68051 0.26044 0.0
C91 C 0.92813 0.69219 0.30594 0.0
C92 C 0.90951 0.7219 0.27872 0.0
N93 N 0.92716 0.72783 0.24153 0.0
N94 N 0.96586 0.67259 0.2964 0.0
H95 H 0.9797 0.71558 0.20313 0.0
C96 C 0.794 0.92414 0.23001 0.0
O97 O 0.82467 0.90824 0.25314 0.0
O98 O 0.91486 0.757 0.14429 0.0
H99 H 0.88125 0.74025 0.2874 0.0
H100 H 0.80005 0.74823 0.061 0.0
H101 H 0.91364 0.68615 0.3351 0.0
Zn102 Zn 0.87651 0.2365 0.81362 0.0
C103 C 0.74771 0.22483 0.80941 0.0
N104 N 0.74826 0.26783 0.79896 0.0
C105 C 0.7897 0.27816 0.80192 0.0
N106 N 0.81391 0.24251 0.81341 0.0
N107 N 0.78686 0.20902 0.81793 0.0
C108 C 0.75078 0.08579 0.78374 0.0
O109 O 0.77802 0.09821 0.75583 0.0
O110 O 0.90805 0.24893 0.86764 0.0
Zn111 Zn 0.79883 0.14839 0.83296 0.0
N112 N 0.89754 0.27807 0.7744 0.0
C113 C 0.89726 0.31106 0.709 0.0
C114 C 0.87919 0.28242 0.73732 0.0
C115 C 0.93378 0.29991 0.78389 0.0
N116 N 0.93496 0.33088 0.7177 0.0
C117 C 0.95443 0.32524 0.75424 0.0
O118 O 0.85029 0.12345 0.80617 0.0
C119 C 0.88638 0.13494 0.7927 0.0
O120 O 0.89903 0.17521 0.79438 0.0
H121 H 0.8508 0.26388 0.72994 0.0
H122 H 0.94751 0.29522 0.81359 0.0
C123 C 0.77786 0.12305 0.9127 0.0
C124 C 0.78287 0.12063 0.95482 0.0
C125 C 0.84403 0.16645 0.94979 0.0
C126 C 0.83931 0.1677 0.90785 0.0
N127 N 0.80613 0.14644 0.89036 0.0
N128 N 0.81607 0.14255 0.97223 0.0
H129 H 0.75309 0.10478 0.89733 0.0
C130 C 0.89773 0.2658 0.90171 0.0
O131 O 0.85832 0.27947 0.90756 0.0
O132 O 0.75188 0.10467 0.81817 0.0
H133 H 0.86202 0.18465 0.8891 0.0
H134 H 0.8826 0.31574 0.67964 0.0
H135 H 0.87036 0.18313 0.96431 0.0
Zn136 Zn 0.60256 0.73831 0.73701 0.0
C137 C 0.72842 0.71534 0.75374 0.0
N138 N 0.7286 0.75481 0.77261 0.0
C139 C 0.68841 0.76978 0.76736 0.0
N140 N 0.66435 0.74004 0.74651 0.0
N141 N 0.6901 0.70633 0.73764 0.0
C142 C 0.7141 0.58488 0.74253 0.0
O143 O 0.68577 0.5995 0.76874 0.0
O144 O 0.5827 0.75363 0.67902 0.0
Zn145 Zn 0.67786 0.65936 0.70052 0.0
N146 N 0.57627 0.77534 0.77821 0.0
C147 C 0.57693 0.80085 0.84652 0.0
C148 C 0.59468 0.77531 0.81555 0.0
C149 C 0.53949 0.79826 0.77119 0.0
N150 N 0.53962 0.82277 0.83985 0.0
C151 C 0.52036 0.82207 0.80299 0.0
O152 O 0.62084 0.63351 0.70902 0.0
C153 C 0.5855 0.63941 0.72687 0.0
O154 O 0.57636 0.67618 0.74435 0.0
H155 H 0.62288 0.7554 0.82134 0.0
H156 H 0.52399 0.79559 0.742 0.0
C157 C 0.66926 0.65706 0.61528 0.0
C158 C 0.66997 0.67385 0.57553 0.0
C159 C 0.68992 0.7445 0.60131 0.0
C160 C 0.69014 0.72728 0.64049 0.0
N161 N 0.67994 0.68385 0.64659 0.0
N162 N 0.68002 0.71745 0.5698 0.0
H163 H 0.65976 0.62329 0.62185 0.0
C164 C 0.58947 0.78289 0.65185 0.0
O165 O 0.61674 0.81497 0.65872 0.0
O166 O 0.71799 0.60553 0.70907 0.0
H167 H 0.69809 0.74848 0.66579 0.0
H168 H 0.59162 0.80159 0.87615 0.0
H169 H 0.6977 0.77904 0.59594 0.0
Zn170 Zn 0.62345 0.2577 0.29304 0.0
C171 C 0.74713 0.28927 0.31207 0.0
N172 N 0.75332 0.24509 0.31374 0.0
C173 C 0.71411 0.22873 0.30726 0.0
N174 N 0.68494 0.26191 0.30249 0.0
N175 N 0.70624 0.29984 0.30432 0.0
C176 C 0.72356 0.43087 0.25207 0.0
O177 O 0.69315 0.42307 0.22575 0.0
O178 O 0.5915 0.2359 0.34404 0.0
Zn179 Zn 0.68248 0.35792 0.29346 0.0
N180 N 0.61361 0.21703 0.24898 0.0
C181 C 0.63374 0.17626 0.19001 0.0
C182 C 0.64379 0.20605 0.22108 0.0
C183 C 0.57357 0.20097 0.24613 0.0
N184 N 0.59321 0.1609 0.18667 0.0
C185 C 0.56286 0.17289 0.214 0.0
O186 O 0.64263 0.35383 0.24646 0.0
C187 C 0.60431 0.351 0.25813 0.0
O188 O 0.59342 0.31772 0.27967 0.0
H189 H 0.67517 0.22053 0.22267 0.0
H190 H 0.54972 0.21172 0.2678 0.0
C191 C 0.64563 0.42109 0.34674 0.0
C192 C 0.62087 0.43571 0.37954 0.0
C193 C 0.60167 0.3608 0.39301 0.0
C194 C 0.62781 0.3465 0.36148 0.0
N195 N 0.64897 0.37687 0.33894 0.0
N196 N 0.59916 0.40495 0.40157 0.0
H197 H 0.6623 0.44432 0.32754 0.0
C198 C 0.60692 0.23013 0.37942 0.0
O199 O 0.64823 0.23403 0.38484 0.0
O200 O 0.72662 0.40622 0.28329 0.0
H201 H 0.63075 0.31177 0.35429 0.0
H202 H 0.65756 0.16669 0.16794 0.0
H203 H 0.5841 0.33704 0.41094 0.0
Zn204 Zn 0.29328 0.35467 0.68069 0.0
C205 C 0.29823 0.22644 0.70896 0.0
N206 N 0.25653 0.23373 0.71605 0.0
C207 C 0.25369 0.27825 0.71433 0.0
N208 N 0.29106 0.29727 0.70566 0.0
N209 N 0.31963 0.2648 0.70245 0.0
C210 C 0.41168 0.27094 0.62041 0.0
O211 O 0.39181 0.30962 0.62161 0.0
O212 O 0.25031 0.39943 0.703 0.0
Zn213 Zn 0.38084 0.27343 0.70169 0.0
N214 N 0.27726 0.34621 0.62528 0.0
C215 C 0.26659 0.30228 0.5663 0.0
C216 C 0.28262 0.30686 0.60552 0.0
C217 C 0.25615 0.38076 0.6079 0.0
N218 N 0.24592 0.33722 0.5486 0.0
C219 C 0.23973 0.37636 0.56869 0.0
O220 O 0.40021 0.33833 0.70509 0.0
C221 C 0.38701 0.37773 0.69747 0.0
O222 O 0.34899 0.38543 0.68614 0.0
H223 H 0.29878 0.27926 0.62015 0.0
H224 H 0.25324 0.41178 0.62437 0.0
C225 C 0.4355 0.22355 0.75758 0.0
C226 C 0.44688 0.20961 0.79677 0.0
C227 C 0.38434 0.24364 0.82295 0.0
C228 C 0.37392 0.25889 0.78439 0.0
N229 N 0.39935 0.24815 0.75242 0.0
N230 N 0.42099 0.22018 0.82841 0.0
H231 H 0.45626 0.21727 0.73202 0.0
C232 C 0.25973 0.42474 0.73248 0.0
O233 O 0.29619 0.41835 0.75133 0.0
O234 O 0.41025 0.24605 0.65171 0.0
H235 H 0.3456 0.27907 0.77988 0.0
H236 H 0.27074 0.27132 0.54996 0.0
H237 H 0.36423 0.25164 0.84856 0.0
Zn238 Zn 0.40811 0.73255 0.30462 0.0
C239 C 0.28126 0.70971 0.30013 0.0
N240 N 0.27762 0.75269 0.29012 0.0
C241 C 0.31815 0.76685 0.29205 0.0
N242 N 0.34556 0.73349 0.30281 0.0
N243 N 0.3217 0.69765 0.30764 0.0
C244 C 0.29599 0.57064 0.28577 0.0
O245 O 0.3257 0.58081 0.25943 0.0
O246 O 0.43365 0.7504 0.35967 0.0
Zn247 Zn 0.33792 0.64103 0.32904 0.0
N248 N 0.42702 0.77432 0.26422 0.0
C249 C 0.42017 0.81107 0.20066 0.0
C250 C 0.40531 0.78039 0.22896 0.0
C251 C 0.46383 0.79613 0.27151 0.0
N252 N 0.45794 0.83166 0.2073 0.0
C253 C 0.48075 0.82427 0.24175 0.0
O254 O 0.39184 0.61755 0.30585 0.0
C255 C 0.42729 0.63048 0.29193 0.0
O256 O 0.43671 0.67178 0.28994 0.0
H257 H 0.37652 0.7619 0.22305 0.0
H258 H 0.48068 0.78982 0.29955 0.0
C259 C 0.31036 0.63638 0.40941 0.0
C260 C 0.31345 0.63927 0.45169 0.0
C261 C 0.3835 0.66791 0.4447 0.0
C262 C 0.38071 0.66317 0.40279 0.0
N263 N 0.34405 0.64791 0.38618 0.0
N264 N 0.35018 0.65521 0.46814 0.0
H265 H 0.2826 0.62257 0.39478 0.0
C266 C 0.41648 0.7656 0.39183 0.0
O267 O 0.37512 0.77288 0.3925 0.0
O268 O 0.29311 0.59336 0.31819 0.0
H269 H 0.40747 0.67112 0.38363 0.0
H270 H 0.40271 0.81712 0.17292 0.0
H271 H 0.41239 0.6801 0.45859 0.0
C272 C 0.31325 0.02608 0.23263 0.0
C273 C 0.27902 0.04027 0.25693 0.0
C274 C 0.33274 0.9841 0.23873 0.0
C275 C 0.31684 0.95528 0.26907 0.0
C276 C 0.28432 0.97089 0.29539 0.0
C277 C 0.26623 0.01328 0.28927 0.0
C278 C 0.36898 0.96965 0.21161 0.0
C279 C 0.26592 0.94136 0.3279 0.0
C280 C 0.30299 0.83258 0.24975 0.0
C281 C 0.32815 0.81325 0.28025 0.0
C282 C 0.30172 0.87865 0.24372 0.0
C283 C 0.32704 0.90653 0.26835 0.0
C284 C 0.35624 0.88687 0.29618 0.0
C285 C 0.35607 0.84024 0.30226 0.0
C286 C 0.27002 0.89755 0.21361 0.0
C287 C 0.38549 0.915 0.32156 0.0
H288 H 0.32398 0.04722 0.20812 0.0
H289 H 0.24009 0.02406 0.30845 0.0
H290 H 0.39684 0.95963 0.23036 0.0
H291 H 0.35964 0.94012 0.19359 0.0
H292 H 0.37879 0.99646 0.19048 0.0
H293 H 0.243 0.9595 0.34766 0.0
H294 H 0.24908 0.91301 0.31361 0.0
H295 H 0.29173 0.92731 0.34709 0.0
H296 H 0.28193 0.81166 0.23208 0.0
H297 H 0.3759 0.82549 0.32559 0.0
H298 H 0.28585 0.92114 0.19277 0.0
H299 H 0.24471 0.91631 0.22996 0.0
H300 H 0.25461 0.8712 0.19521 0.0
H301 H 0.39507 0.94566 0.30529 0.0
H302 H 0.4146 0.89597 0.33035 0.0
H303 H 0.36875 0.92507 0.34971 0.0
C304 C 0.95446 0.7074 0.69053 0.0
C305 C 0.98268 0.6726 0.69936 0.0
C306 C 0.91099 0.70313 0.6979 0.0
C307 C 0.89541 0.66237 0.71345 0.0
C308 C 0.92359 0.6258 0.71947 0.0
C309 C 0.96742 0.63161 0.71287 0.0
C310 C 0.88243 0.7435 0.69195 0.0
C311 C 0.90849 0.58143 0.73502 0.0
C312 C 0.79933 0.68886 0.77614 0.0
C313 C 0.768 0.69045 0.74601 0.0
C314 C 0.84084 0.67467 0.76709 0.0
C315 C 0.85062 0.66107 0.72711 0.0
C316 C 0.81783 0.65759 0.69801 0.0
C317 C 0.77729 0.67437 0.70727 0.0
C318 C 0.87501 0.67861 0.79908 0.0
C319 C 0.8265 0.63982 0.6561 0.0
H320 H 0.96695 0.7391 0.68035 0.0
H321 H 0.98974 0.60493 0.71991 0.0
H322 H 0.85687 0.73595 0.66986 0.0
H323 H 0.86688 0.75261 0.721 0.0
H324 H 0.90018 0.77291 0.68078 0.0
H325 H 0.92453 0.55392 0.71831 0.0
H326 H 0.91755 0.57795 0.76735 0.0
H327 H 0.87349 0.57748 0.73229 0.0
H328 H 0.79206 0.70153 0.80612 0.0
H329 H 0.75365 0.67672 0.6836 0.0
H330 H 0.89767 0.70521 0.79045 0.0
H331 H 0.89337 0.64699 0.80139 0.0
H332 H 0.8616 0.68675 0.82933 0.0
H333 H 0.84153 0.66607 0.63743 0.0
H334 H 0.79661 0.62936 0.64083 0.0
H335 H 0.84884 0.61096 0.65747 0.0
C336 C 0.74012 0.16789 0.26388 0.0
C337 C 0.70987 0.18255 0.29221 0.0
C338 C 0.74333 0.12318 0.2526 0.0
C339 C 0.71568 0.09171 0.27029 0.0
C340 C 0.68269 0.10671 0.29658 0.0
C341 C 0.68018 0.15226 0.30739 0.0
C342 C 0.77858 0.10931 0.22394 0.0
C343 C 0.65174 0.07451 0.31516 0.0
C344 C 0.73442 0.97991 0.21976 0.0
C345 C 0.76789 0.96286 0.24364 0.0
C346 C 0.71333 0.01984 0.23039 0.0
C347 C 0.72637 0.04342 0.26539 0.0
C348 C 0.75739 0.02411 0.29137 0.0
C349 C 0.77766 0.98414 0.28022 0.0
C350 C 0.67939 0.03835 0.20254 0.0
C351 C 0.77208 0.04769 0.32922 0.0
H352 H 0.76254 0.19152 0.25136 0.0
H353 H 0.6565 0.16355 0.32898 0.0
H354 H 0.80248 0.08869 0.24039 0.0
H355 H 0.76563 0.08877 0.19897 0.0
H356 H 0.79518 0.13835 0.21054 0.0
H357 H 0.62195 0.09169 0.32486 0.0
H358 H 0.64356 0.04746 0.29369 0.0
H359 H 0.66659 0.05894 0.34224 0.0
H360 H 0.72576 0.96305 0.19196 0.0
H361 H 0.80275 0.97076 0.29939 0.0
H362 H 0.69361 0.06394 0.18256 0.0
H363 H 0.65337 0.0546 0.22 0.0
H364 H 0.66558 0.01193 0.18308 0.0
H365 H 0.79109 0.07727 0.32067 0.0
H366 H 0.79213 0.02584 0.34875 0.0
H367 H 0.74434 0.05962 0.34707 0.0
C368 C 0.02745 0.30985 0.78086 0.0
C369 C -0.00027 0.3378 0.7589 0.0
C370 C 0.07153 0.31287 0.77644 0.0
C371 C 0.08841 0.34483 0.74953 0.0
C372 C 0.06112 0.37675 0.73127 0.0
C373 C 0.01682 0.3725 0.73572 0.0
C374 C 0.09942 0.27794 0.79658 0.0
C375 C 0.07833 0.4128 0.70418 0.0
C376 C 0.20778 0.3331 0.74978 0.0
C377 C 0.21337 0.30232 0.71845 0.0
C378 C 0.16758 0.35208 0.75731 0.0
C379 C 0.13224 0.33765 0.73433 0.0
C380 C 0.13839 0.30797 0.70139 0.0
C381 C 0.17911 0.29072 0.69383 0.0
C382 C 0.16242 0.38523 0.79132 0.0
C383 C 0.10145 0.29122 0.67641 0.0
H384 H 0.01513 0.28241 0.79844 0.0
H385 H 0.99562 0.39465 0.71916 0.0
H386 H 0.11134 0.25416 0.77339 0.0
H387 H 0.12751 0.29339 0.8111 0.0
H388 H 0.08191 0.25881 0.81997 0.0
H389 H 0.05576 0.44141 0.70192 0.0
H390 H 0.10945 0.42493 0.71548 0.0
H391 H 0.08337 0.39924 0.67331 0.0
H392 H 0.23456 0.34124 0.76913 0.0
H393 H 0.18389 0.26656 0.6698 0.0
H394 H 0.14516 0.36969 0.8169 0.0
H395 H 0.1431 0.41425 0.78105 0.0
H396 H 0.19364 0.39729 0.80262 0.0
H397 H 0.08052 0.27034 0.69558 0.0
H398 H 0.11219 0.27095 0.65014 0.0
H399 H 0.08198 0.31953 0.665 0.0
C400 C 0.28625 0.96296 0.71861 0.0
C401 C 0.24876 0.96266 0.74168 0.0
C402 C 0.30787 1.00307 0.71112 0.0
C403 C 0.29055 0.0437 0.72581 0.0
C404 C 0.2532 0.04308 0.75002 0.0
C405 C 0.23335 1.00246 0.7583 0.0
C406 C 0.34897 1.00205 0.68744 0.0
C407 C 0.23284 0.08555 0.76564 0.0
C408 C 0.33461 0.15911 0.73693 0.0
C409 C 0.31456 0.1806 0.70437 0.0
C410 C 0.33295 0.11254 0.74107 0.0
C411 C 0.30832 0.08753 0.71337 0.0
C412 C 0.29206 0.10858 0.67814 0.0
C413 C 0.29604 0.15484 0.67383 0.0
C414 C 0.35309 0.0911 0.77777 0.0
C415 C 0.26498 0.08371 0.64797 0.0
H416 H 0.29858 0.93188 0.70645 0.0
H417 H 0.20431 1.00214 0.7761 0.0
H418 H 0.34706 0.02491 0.66113 0.0
H419 H 0.37534 0.01392 0.70698 0.0
H420 H 0.35704 0.96806 0.6764 0.0
H421 H 0.20308 0.07926 0.78285 0.0
H422 H 0.25535 0.10328 0.78576 0.0
H423 H 0.22513 0.10811 0.73998 0.0
H424 H 0.34761 0.17849 0.76141 0.0
H425 H 0.27989 0.17153 0.64896 0.0
H426 H 0.36428 0.05675 0.77094 0.0
H427 H 0.32923 0.08917 0.80244 0.0
H428 H 0.38045 0.11095 0.78895 0.0
H429 H 0.27947 0.05098 0.64038 0.0
H430 H 0.26029 0.10293 0.61955 0.0
H431 H 0.23321 0.07738 0.6615 0.0
C432 C 0.23715 0.65422 0.26497 0.0
C433 C 0.24465 0.68008 0.29941 0.0
C434 C 0.19637 0.63761 0.25698 0.0
C435 C 0.16232 0.64977 0.28283 0.0
C436 C 0.17092 0.67185 0.31987 0.0
C437 C 0.21226 0.68678 0.3277 0.0
C438 C 0.18906 0.6115 0.21866 0.0
C439 C 0.13566 0.685 0.34867 0.0
C440 C 0.06015 0.69595 0.23995 0.0
C441 C 0.03034 0.66608 0.25562 0.0
C442 C 0.10385 0.68887 0.24568 0.0
C443 C 0.11803 0.65059 0.26709 0.0
C444 C 0.0884 0.61782 0.27882 0.0
C445 C 0.04467 0.6263 0.27356 0.0
C446 C 0.13439 0.72474 0.23238 0.0
C447 C 0.10249 0.57545 0.29951 0.0
H448 H 0.26233 0.64974 0.24284 0.0
H449 H 0.21836 0.70726 0.3541 0.0
H450 H 0.16282 0.58728 0.22241 0.0
H451 H 0.18018 0.63471 0.19386 0.0
H452 H 0.21845 0.59324 0.20943 0.0
H453 H 0.14829 0.69693 0.37815 0.0
H454 H 0.11621 0.71215 0.33495 0.0
H455 H 0.11427 0.6565 0.35439 0.0
H456 H 0.04944 0.72701 0.2265 0.0
H457 H 0.02165 0.60287 0.28534 0.0
H458 H 0.16052 0.7101 0.214 0.0
H459 H 0.14902 0.74052 0.25936 0.0
H460 H 0.11839 0.75116 0.2142 0.0
H461 H 0.13378 0.5639 0.28774 0.0
H462 H 0.07876 0.54856 0.29532 0.0
H463 H 0.10598 0.58153 0.33245 0.0
C464 C 0.73844 0.01318 0.74913 0.0
C465 C 0.72561 0.04457 0.77816 0.0
C466 C 0.7209 0.97034 0.74833 0.0
C467 C 0.68884 0.95878 0.7766 0.0
C468 C 0.67284 0.99177 0.80341 0.0
C469 C 0.69193 0.03407 0.80433 0.0
C470 C 0.73939 0.93632 0.71941 0.0
C471 C 0.63748 0.98188 0.83289 0.0
C472 C 0.6492 0.8421 0.75398 0.0
C473 C 0.67749 0.81671 0.77752 0.0
C474 C 0.64883 0.88901 0.75643 0.0
C475 C 0.67829 0.91072 0.78224 0.0
C476 C 0.70361 0.88489 0.80904 0.0
C477 C 0.70247 0.83834 0.80663 0.0
C478 C 0.61927 0.91512 0.72917 0.0
C479 C 0.73528 0.90622 0.83742 0.0
H480 H 0.76435 0.02098 0.7287 0.0
H481 H 0.68138 0.05837 0.82646 0.0
H482 H 0.75622 0.90983 0.73678 0.0
H483 H 0.71361 0.9202 0.70187 0.0
H484 H 0.76234 0.95126 0.69781 0.0
H485 H 0.61959 0.01271 0.84102 0.0
H486 H 0.61485 0.9572 0.82035 0.0
H487 H 0.65133 0.96791 0.86112 0.0
H488 H 0.62928 0.8256 0.73208 0.0
H489 H 0.72383 0.81886 0.8256 0.0
H490 H 0.63643 0.92425 0.70106 0.0
H491 H 0.60832 0.94636 0.744 0.0
H492 H 0.591 0.89515 0.72053 0.0
H493 H 0.76082 0.92238 0.81956 0.0
H494 H 0.75034 0.88163 0.85824 0.0
H495 H 0.71949 0.93244 0.85579 0.0
C496 C 0.79243 0.33996 0.27197 0.0
C497 C 0.78346 0.31934 0.30896 0.0
C498 C 0.83358 0.35539 0.26354 0.0
C499 C 0.8667 0.34688 0.29167 0.0
C500 C 0.85672 0.32992 0.33053 0.0
C501 C 0.81498 0.31661 0.33875 0.0
C502 C 0.8424 0.37643 0.223 0.0
C503 C 0.89097 0.32019 0.36156 0.0
C504 C 0.97025 0.29595 0.25707 0.0
C505 C -0.00041 0.32708 0.27144 0.0
C506 C 0.9264 0.30371 0.26052 0.0
C507 C 0.91161 0.34424 0.27775 0.0
C508 C 0.94109 0.37787 0.28795 0.0
C509 C 0.98496 0.36845 0.28565 0.0
C510 C 0.89624 0.26654 0.24952 0.0
C511 C 0.92658 0.42254 0.30383 0.0
H512 H 0.76833 0.34074 0.24841 0.0
H513 H 0.80793 0.29994 0.36707 0.0
H514 H 0.86726 0.40238 0.22565 0.0
H515 H 0.85415 0.35064 0.20162 0.0
H516 H 0.81305 0.39169 0.20996 0.0
H517 H 0.87741 0.31081 0.39139 0.0
H518 H 0.91145 0.29229 0.35074 0.0
H519 H 0.91162 0.34959 0.3658 0.0
H520 H 0.98145 0.26373 0.2465 0.0
H521 H 0.00773 0.39273 0.29644 0.0
H522 H 0.87137 0.27881 0.22833 0.0
H523 H 0.87988 0.25447 0.27716 0.0
H524 H 0.91293 0.23784 0.23517 0.0
H525 H 0.89509 0.43213 0.2911 0.0
H526 H 0.95003 0.44885 0.29643 0.0
H527 H 0.92362 0.421 0.33724 0.0
C528 C 0.77736 0.53327 0.7326 0.0
C529 C 0.73805 0.54297 0.75106 0.0
C530 C 0.7987 0.49241 0.73994 0.0
C531 C 0.77985 0.46029 0.76571 0.0
C532 C 0.74059 0.47058 0.78496 0.0
C533 C 0.72064 0.51184 0.77785 0.0
C534 C 0.8413 0.48369 0.72016 0.0
C535 C 0.71828 0.43703 0.81152 0.0
C536 C 0.78666 0.33634 0.74995 0.0
C537 C 0.80392 0.32199 0.78694 0.0
C538 C 0.78277 0.38166 0.74057 0.0
C539 C 0.79713 0.41373 0.76872 0.0
C540 C 0.82005 0.39928 0.80353 0.0
C541 C 0.82267 0.35331 0.81266 0.0
C542 C 0.75836 0.39496 0.70296 0.0
C543 C 0.83828 0.4324 0.83296 0.0
H544 H 0.7914 0.55758 0.71245 0.0
H545 H 0.69027 0.519 0.79219 0.0
H546 H 0.86672 0.48602 0.74344 0.0
H547 H 0.84306 0.44964 0.70721 0.0
H548 H 0.84807 0.50811 0.69579 0.0
H549 H 0.6881 0.45037 0.82447 0.0
H550 H 0.71081 0.40676 0.79364 0.0
H551 H 0.7394 0.42667 0.8368 0.0
H552 H 0.77231 0.31202 0.72993 0.0
H553 H 0.83597 0.3424 0.84132 0.0
H554 H 0.77526 0.42153 0.68628 0.0
H555 H 0.72661 0.40841 0.71175 0.0
H556 H 0.75349 0.36636 0.68215 0.0
H557 H 0.85221 0.46113 0.81662 0.0
H558 H 0.86319 0.41688 0.85244 0.0
H559 H 0.81249 0.44536 0.85278 0.0
C560 C 0.32934 0.18806 0.26747 0.0
C561 C 0.29962 0.18789 0.23592 0.0
C562 C 0.37124 0.17327 0.26109 0.0
C563 C 0.38325 0.15754 0.22227 0.0
C564 C 0.35217 0.15315 0.1916 0.0
C565 C 0.31107 0.17004 0.19835 0.0
C566 C 0.40353 0.17871 0.29464 0.0
C567 C 0.36315 0.13423 0.15058 0.0
C568 C 0.49184 0.19938 0.19463 0.0
C569 C 0.51781 0.16377 0.20658 0.0
C570 C 0.44758 0.19653 0.19711 0.0
C571 C 0.42901 0.15664 0.21142 0.0
C572 C 0.45511 0.11903 0.21996 0.0
C573 C 0.49966 0.12323 0.21791 0.0
C574 C 0.42107 0.2376 0.18781 0.0
C575 C 0.43647 0.0755 0.23391 0.0
H576 H 0.32045 0.20218 0.29651 0.0
H577 H 0.28874 0.17124 0.1736 0.0
H578 H 0.42259 0.14773 0.29843 0.0
H579 H 0.4259 0.2058 0.28666 0.0
H580 H 0.38827 0.1871 0.32403 0.0
H581 H 0.33417 0.12324 0.13409 0.0
H582 H 0.37909 0.16007 0.13212 0.0
H583 H 0.38547 0.10551 0.15356 0.0
H584 H 0.5064 0.23065 0.18599 0.0
H585 H 0.52015 0.09584 0.22731 0.0
H586 H 0.4049 0.24936 0.21575 0.0
H587 H 0.396 0.22974 0.16531 0.0
H588 H 0.44058 0.26531 0.17573 0.0
H589 H 0.43377 0.0757 0.26738 0.0
H590 H 0.45735 0.04697 0.2253 0.0
H591 H 0.40421 0.07021 0.2211 0.0
C592 C 0.20076 0.66942 0.72238 0.0
C593 C 0.17682 0.69 0.75301 0.0
C594 C 0.20275 0.62309 0.71874 0.0
C595 C 0.17976 0.59634 0.74628 0.0
C596 C 0.15147 0.61702 0.77423 0.0
C597 C 0.15057 0.66393 0.77755 0.0
C598 C 0.23313 0.60299 0.68812 0.0
C599 C 0.1248 0.58983 0.8028 0.0
C600 C 0.1964 0.4747 0.719 0.0
C601 C 0.2331 0.46459 0.74177 0.0
C602 C 0.17555 0.51621 0.723 0.0
C603 C 0.19211 0.54839 0.75002 0.0
C604 C 0.22699 0.53679 0.77537 0.0
C605 C 0.2468 0.49501 0.77111 0.0
C606 C 0.13734 0.52664 0.69674 0.0
C607 C 0.24603 0.57001 0.80445 0.0
H608 H 0.22045 0.68968 0.70279 0.0
H609 H 0.13173 0.67973 0.80101 0.0
H610 H 0.26082 0.58787 0.70413 0.0
H611 H 0.2174 0.57618 0.67071 0.0
H612 H 0.24524 0.62815 0.66642 0.0
H613 H 0.09634 0.60893 0.81316 0.0
H614 H 0.11422 0.55842 0.78835 0.0
H615 H 0.14408 0.58097 0.82984 0.0
H616 H 0.18509 0.45102 0.69675 0.0
H617 H 0.2747 0.48731 0.78926 0.0
H618 H 0.14399 0.55562 0.67695 0.0
H619 H 0.1098 0.53592 0.71613 0.0
H620 H 0.12826 0.49804 0.67733 0.0
H621 H 0.2611 0.59738 0.78713 0.0
H622 H 0.2706 0.55463 0.82441 0.0
H623 H 0.22083 0.58504 0.82371 0.0
C624 C 0.53831 0.87986 0.22782 0.0
C625 C 0.52548 0.83893 0.24411 0.0
C626 C 0.58185 0.89039 0.2248 0.0
C627 C 0.61269 0.85868 0.2376 0.0
C628 C 0.59959 0.81813 0.25554 0.0
C629 C 0.5563 0.80897 0.25865 0.0
C630 C 0.59469 0.93508 0.20797 0.0
C631 C 0.63118 0.78287 0.2695 0.0
C632 C 0.71617 0.82646 0.19318 0.0
C633 C 0.74106 0.8287 0.22813 0.0
C634 C 0.67475 0.84405 0.19299 0.0
C635 C 0.65859 0.86402 0.22876 0.0
C636 C 0.68652 0.87327 0.26123 0.0
C637 C 0.7272 0.85371 0.26133 0.0
C638 C 0.6464 0.83464 0.15711 0.0
C639 C 0.67152 0.89836 0.29812 0.0
H640 H 0.51437 0.90318 0.21685 0.0
H641 H 0.54679 0.77681 0.27031 0.0
H642 H 0.60523 0.95669 0.23326 0.0
H643 H 0.6219 0.93187 0.18673 0.0
H644 H 0.5678 0.95204 0.19219 0.0
H645 H 0.61532 0.7528 0.28178 0.0
H646 H 0.65184 0.77229 0.24396 0.0
H647 H 0.65199 0.79652 0.29356 0.0
H648 H 0.72744 0.80713 0.16755 0.0
H649 H 0.74722 0.85608 0.28801 0.0
H650 H 0.62582 0.86384 0.1501 0.0
H651 H 0.62531 0.80622 0.16436 0.0
H652 H 0.66524 0.8259 0.12973 0.0
H653 H 0.64832 0.92489 0.28964 0.0
H654 H 0.69873 0.91366 0.31442 0.0
H655 H 0.65543 0.87504 0.3191 0.0
C656 C 0.78784 0.47665 0.26987 0.0
C657 C 0.74997 0.4713 0.2478 0.0
C658 C 0.81022 0.51715 0.26875 0.0
C659 C 0.79393 0.55312 0.24543 0.0
C660 C 0.75663 0.54704 0.22186 0.0
C661 C 0.73552 0.50613 0.22298 0.0
C662 C 0.85088 0.52139 0.29287 0.0
C663 C 0.73714 0.58476 0.19758 0.0
C664 C 0.79982 0.67262 0.27863 0.0
C665 C 0.82092 0.69209 0.24578 0.0
C666 C 0.79422 0.62654 0.2809 0.0
C667 C 0.81109 0.59902 0.24997 0.0
C668 C 0.83741 0.61795 0.21972 0.0
C669 C 0.84145 0.66464 0.2175 0.0
C670 C 0.76647 0.60797 0.31414 0.0
C671 C 0.85837 0.5893 0.18788 0.0
H672 H 0.79962 0.44949 0.28853 0.0
H673 H 0.70627 0.50231 0.20585 0.0
H674 H 0.87841 0.5167 0.27219 0.0
H675 H 0.85389 0.5548 0.30686 0.0
H676 H 0.853 0.49589 0.31717 0.0
H677 H 0.70858 0.57422 0.18024 0.0
H678 H 0.72762 0.6123 0.21819 0.0
H679 H 0.7608 0.59821 0.176 0.0
H680 H 0.78461 0.69385 0.30102 0.0
H681 H 0.85781 0.67962 0.19216 0.0
H682 H 0.78287 0.57973 0.32941 0.0
H683 H 0.73644 0.59507 0.30091 0.0
H684 H 0.75816 0.63341 0.33731 0.0
H685 H 0.86933 0.55711 0.20098 0.0
H686 H 0.886 0.60637 0.17398 0.0
H687 H 0.83502 0.58193 0.16359 0.0
C688 C 0.51653 0.21997 0.8288 0.0
C689 C 0.49011 0.19323 0.80523 0.0
C690 C 0.56006 0.21069 0.83196 0.0
C691 C 0.57712 0.17253 0.81228 0.0
C692 C 0.54949 0.14255 0.79231 0.0
C693 C 0.50618 0.15401 0.78789 0.0
C694 C 0.58813 0.24395 0.85343 0.0
C695 C 0.56561 0.09961 0.77394 0.0
C696 C 0.68334 0.20474 0.77183 0.0
C697 C 0.70871 0.1986 0.80619 0.0
C698 C 0.64087 0.19125 0.77144 0.0
C699 C 0.62386 0.17016 0.80613 0.0
C700 C 0.65117 0.15834 0.83865 0.0
C701 C 0.69316 0.17421 0.83898 0.0
C702 C 0.61316 0.20451 0.73589 0.0
C703 C 0.63541 0.13234 0.8746 0.0
H704 H 0.50363 0.25012 0.84234 0.0
H705 H 0.48521 0.13288 0.77037 0.0
H706 H 0.60532 0.22745 0.87871 0.0
H707 H 0.61235 0.25719 0.83221 0.0
H708 H 0.56968 0.27251 0.86598 0.0
H709 H 0.54181 0.07279 0.77813 0.0
H710 H 0.56997 0.10408 0.74089 0.0
H711 H 0.59639 0.0886 0.78742 0.0
H712 H 0.69582 0.22338 0.74638 0.0
H713 H 0.71285 0.16964 0.86564 0.0
H714 H 0.5884 0.22876 0.74585 0.0
H715 H 0.59664 0.17496 0.72363 0.0
H716 H 0.63179 0.21989 0.71103 0.0
H717 H 0.63026 0.1552 0.90055 0.0
H718 H 0.65987 0.10749 0.88396 0.0
H719 H 0.60527 0.1146 0.86802 0.0
C720 C 0.23093 0.52433 0.30004 0.0
C721 C 0.26946 0.53059 0.27926 0.0
C722 C 0.20832 0.48407 0.29644 0.0
C723 C 0.22512 0.4492 0.27211 0.0
C724 C 0.26313 0.45632 0.24989 0.0
C725 C 0.28435 0.49703 0.25331 0.0
C726 C 0.16694 0.47855 0.31909 0.0
C727 C 0.28323 0.41982 0.22458 0.0
C728 C 0.22063 0.32797 0.29894 0.0
C729 C 0.20248 0.31017 0.26375 0.0
C730 C 0.22408 0.374 0.30438 0.0
C731 C 0.20778 0.40307 0.27429 0.0
C732 C 0.18334 0.3853 0.24197 0.0
C733 C 0.18154 0.3387 0.23657 0.0
C734 C 0.25036 0.39091 0.33948 0.0
C735 C 0.1627 0.41535 0.21098 0.0
H736 H 0.21879 0.55061 0.31947 0.0
H737 H 0.31406 0.50162 0.23714 0.0
H738 H 0.14029 0.47736 0.297 0.0
H739 H 0.16654 0.44671 0.3361 0.0
H740 H 0.16096 0.50631 0.34063 0.0
H741 H 0.31274 0.43088 0.20911 0.0
H742 H 0.29135 0.39083 0.24406 0.0
H743 H 0.26043 0.40825 0.20125 0.0
H744 H 0.23618 0.30574 0.32034 0.0
H745 H 0.16711 0.32502 0.2095 0.0
H746 H 0.23409 0.41914 0.35478 0.0
H747 H 0.28137 0.40322 0.32801 0.0
H748 H 0.25683 0.36451 0.3623 0.0
H749 H 0.15055 0.44642 0.22527 0.0
H750 H 0.13597 0.39837 0.19537 0.0
H751 H 0.18658 0.42475 0.18783 0.0
C752 C 0.28924 0.82074 0.73631 0.0
C753 C 0.26022 0.82401 0.76828 0.0
C754 C 0.33062 0.83705 0.74034 0.0
C755 C 0.34295 0.85676 0.7774 0.0
C756 C 0.31173 0.86628 0.80714 0.0
C757 C 0.27084 0.84825 0.8029 0.0
C758 C 0.36248 0.8277 0.70714 0.0
C759 C 0.32248 0.89105 0.84541 0.0
C760 C 0.44538 0.80512 0.8143 0.0
C761 C 0.4755 0.83518 0.80011 0.0
C762 C 0.40193 0.81319 0.80889 0.0
C763 C 0.38833 0.85303 0.78949 0.0
C764 C 0.41878 0.88515 0.77765 0.0
C765 C 0.46245 0.87541 0.78246 0.0
C766 C 0.37084 0.77776 0.82211 0.0
C767 C 0.40585 0.92896 0.75877 0.0
H768 H 0.28056 0.80229 0.70934 0.0
H769 H 0.24843 0.85046 0.82769 0.0
H770 H 0.38108 0.85803 0.70039 0.0
H771 H 0.38521 0.80139 0.71724 0.0
H772 H 0.34685 0.81633 0.67881 0.0
H773 H 0.29599 0.91419 0.8534 0.0
H774 H 0.32626 0.86699 0.87069 0.0
H775 H 0.35224 0.91054 0.8424 0.0
H776 H 0.45606 0.77423 0.82822 0.0
H777 H 0.4862 0.8988 0.77203 0.0
H778 H 0.35165 0.76638 0.79589 0.0
H779 H 0.34855 0.79165 0.84495 0.0
H780 H 0.38709 0.74824 0.83557 0.0
H781 H 0.40952 0.92665 0.72546 0.0
H782 H 0.42709 0.95601 0.76937 0.0
H783 H 0.37235 0.93831 0.76578 0.0
C784 C 0.10318 0.04672 0.20785 0.0
C785 C 0.09029 0.08807 0.22393 0.0
C786 C 0.07551 0.01038 0.20663 0.0
C787 C 0.03386 0.01494 0.22248 0.0
C788 C 0.02099 0.05594 0.24021 0.0
C789 C 0.04926 0.09221 0.24044 0.0
C790 C 0.09038 0.96763 0.18678 0.0
C791 C 0.97701 0.06179 0.258 0.0
C792 C 0.95019 0.93941 0.17668 0.0
C793 C 0.94853 0.90447 0.20485 0.0
C794 C 0.9774 0.97571 0.18238 0.0
C795 C 0.00313 0.9777 0.21755 0.0
C796 C 0.00136 0.94276 0.24636 0.0
C797 C 0.97439 0.90627 0.23945 0.0
C798 C 0.97908 0.0116 0.15036 0.0
C799 C 0.02786 0.94403 0.28449 0.0
H800 H 0.13476 0.04287 0.19496 0.0
H801 H 0.03904 0.12386 0.25308 0.0
H802 H 0.08623 0.9391 0.20769 0.0
H803 H 0.07069 0.96099 0.15954 0.0
H804 H 0.12438 0.96888 0.17748 0.0
H805 H 0.97327 0.09412 0.27403 0.0
H806 H 0.95278 0.06017 0.23357 0.0
H807 H 0.9702 0.03436 0.27952 0.0
H808 H 0.93037 0.9382 0.14979 0.0
H809 H 0.97283 0.87967 0.26158 0.0
H810 H 0.01184 0.0137 0.13789 0.0
H811 H 0.97128 0.04449 0.16388 0.0
H812 H 0.95661 0.00535 0.12501 0.0
H813 H 0.06225 0.94337 0.27669 0.0
H814 H 0.02114 0.91554 0.30491 0.0
H815 H 0.02161 0.97553 0.30112 0.0
C816 C 0.89737 0.06571 0.7523 0.0
C817 C 0.91451 0.09912 0.77701 0.0
C818 C 0.92124 0.0275 0.74213 0.0
C819 C 0.9627 0.02167 0.75838 0.0
C820 C 0.98056 0.05595 0.78253 0.0
C821 C 0.95647 0.09463 0.791 0.0
C822 C 0.90152 0.99276 0.71505 0.0
C823 C 0.02423 0.05069 0.8013 0.0
C824 C 0.00631 0.90443 0.77621 0.0
C825 C 0.03923 0.90204 0.74767 0.0
C826 C 0.98028 0.94269 0.77926 0.0
C827 C 0.98648 0.9788 0.75224 0.0
C828 C 0.01747 0.97487 0.72125 0.0
C829 C 0.0441 0.93697 0.71991 0.0
C830 C 0.94839 0.94576 0.81338 0.0
C831 C 0.02402 0.01165 0.69079 0.0
H832 H 0.86486 0.06915 0.74148 0.0
H833 H 0.96947 0.1201 0.81063 0.0
H834 H 0.92404 0.98322 0.6906 0.0
H835 H 0.89476 0.96229 0.73282 0.0
H836 H 0.87123 1.00466 0.70112 0.0
H837 H 0.0338 0.08059 0.81882 0.0
H838 H 0.02454 0.02145 0.82188 0.0
H839 H 0.04843 0.04436 0.77752 0.0
H840 H 0.00322 0.87798 0.79835 0.0
H841 H 0.06992 0.93538 0.69814 0.0
H842 H 0.91634 0.95456 0.8015 0.0
H843 H 0.9579 0.97264 0.83454 0.0
H844 H 0.94608 0.91411 0.83064 0.0
H845 H 0.99292 0.0235 0.67866 0.0
H846 H 0.04442 1.00067 0.66513 0.0
H847 H 0.03952 0.04038 0.70571 0.0
C848 C 0.55861 0.57049 0.69414 0.0
C849 C 0.55451 0.60234 0.7251 0.0
C850 C 0.53067 0.53453 0.69108 0.0
C851 C 0.49792 0.52959 0.72005 0.0
C852 C 0.49342 0.56152 0.75149 0.0
C853 C 0.52158 0.59787 0.75343 0.0
C854 C 0.53612 0.50194 0.65654 0.0
C855 C 0.45912 0.55702 0.78317 0.0
C856 C 0.40463 0.45813 0.68722 0.0
C857 C 0.41566 0.41635 0.70349 0.0
C858 C 0.43053 0.49546 0.69324 0.0
C859 C 0.46821 0.49123 0.71659 0.0
C860 C 0.4792 0.44937 0.73371 0.0
C861 C 0.45299 0.41234 0.72669 0.0
C862 C 0.41808 0.53919 0.6737 0.0
C863 C 0.51894 0.4436 0.75906 0.0
H864 H 0.58358 0.57391 0.67172 0.0
H865 H 0.51829 0.62227 0.77743 0.0
H866 H 0.54221 0.46798 0.66857 0.0
H867 H 0.50638 0.50056 0.63838 0.0
H868 H 0.56284 0.51098 0.63616 0.0
H869 H 0.46025 0.58415 0.806 0.0
H870 H 0.42724 0.55742 0.76859 0.0
H871 H 0.46263 0.52455 0.79894 0.0
H872 H 0.37587 0.46164 0.66924 0.0
H873 H 0.46151 0.38037 0.73977 0.0
H874 H 0.44277 0.54898 0.65146 0.0
H875 H 0.41628 0.56592 0.69683 0.0
H876 H 0.38687 0.53741 0.65784 0.0
H877 H 0.54758 0.44912 0.74009 0.0
H878 H 0.52133 0.40985 0.77272 0.0
H879 H 0.51943 0.46875 0.78366 0.0
C880 C 0.54996 0.40083 0.29129 0.0
C881 C 0.57808 0.39256 0.25908 0.0
C882 C 0.52881 0.4421 0.29527 0.0
C883 C 0.53467 0.47565 0.2656 0.0
C884 C 0.56256 0.46727 0.23271 0.0
C885 C 0.58423 0.42608 0.23009 0.0
C886 C 0.50043 0.44994 0.33151 0.0
C887 C 0.56932 0.50172 0.20012 0.0
C888 C 0.44253 0.55835 0.25775 0.0
C889 C 0.45786 0.59519 0.27926 0.0
C890 C 0.46793 0.52026 0.25149 0.0
C891 C 0.50961 0.51829 0.26796 0.0
C892 C 0.52587 0.55601 0.28867 0.0
C893 C 0.49993 0.59431 0.29365 0.0
C894 C 0.44936 0.48131 0.22874 0.0
C895 C 0.56986 0.55507 0.30724 0.0
H896 H 0.54556 0.37553 0.31429 0.0
H897 H 0.60601 0.42002 0.20521 0.0
H898 H 0.50999 0.48084 0.34743 0.0
H899 H 0.46694 0.4546 0.32141 0.0
H900 H 0.50173 0.42183 0.35337 0.0
H901 H 0.59229 0.49025 0.17669 0.0
H902 H 0.53848 0.5098 0.18522 0.0
H903 H 0.58137 0.53298 0.21369 0.0
H904 H 0.40999 0.55888 0.24666 0.0
H905 H 0.51162 0.62243 0.31087 0.0
H906 H 0.44519 0.45277 0.24966 0.0
H907 H 0.47146 0.47033 0.20445 0.0
H908 H 0.41792 0.48951 0.21496 0.0
H909 H 0.57285 0.52645 0.3283 0.0
H910 H 0.57712 0.58615 0.32406 0.0
H911 H 0.59419 0.55028 0.28327 0.0
C912 C 0.2717 0.0566 0.0637 0.0
C913 C 0.25195 0.0953 0.0484 0.0
C914 C 0.27012 0.0165 0.04216 0.0
C915 C 0.24908 0.01571 0.00437 0.0
C916 C 0.23543 0.05607 0.98612 0.0
C917 C 0.23686 0.09556 0.00854 0.0
C918 C 0.28672 0.97441 0.06179 0.0
C919 C 0.2147 0.05675 0.94485 0.0
C920 C 0.23308 0.91702 0.93562 0.0
C921 C 0.18986 0.90819 0.9431 0.0
C922 C 0.25462 0.94983 0.95759 0.0
C923 C 0.23253 0.97332 0.98821 0.0
C924 C 0.19087 0.96028 0.99941 0.0
C925 C 0.16998 0.92791 0.97659 0.0
C926 C 0.29947 0.96159 0.94533 0.0
C927 C 0.1667 0.98346 0.03304 0.0
H928 H 0.28581 0.05679 0.09366 0.0
H929 H 0.22267 0.12564 0.99608 0.0
H930 H 0.25978 0.95651 0.07602 0.0
H931 H 0.30136 0.95181 0.03906 0.0
H932 H 0.31059 0.98173 0.08571 0.0
H933 H 0.21191 0.09109 0.93252 0.0
H934 H 0.23321 0.036 0.92323 0.0
H935 H 0.18221 0.04255 0.94704 0.0
H936 H 0.24963 0.89995 0.91137 0.0
H937 H 0.13695 0.92055 0.98329 0.0
H938 H 0.3176 0.97706 0.97044 0.0
H939 H 0.2981 0.9856 0.91981 0.0
H940 H 0.31711 0.93156 0.93468 0.0
H941 H 0.13679 0.96592 0.04095 0.0
H942 H 0.15833 0.0179 0.02349 0.0
H943 H 0.18675 0.98583 0.06062 0.0
C944 C 0.01925 0.72956 0.89699 0.0
C945 C 0.06388 0.73322 0.89866 0.0
C946 C 0.99456 0.72673 0.93256 0.0
C947 C 0.01478 0.72789 0.97097 0.0
C948 C 0.05982 0.73108 0.9728 0.0
C949 C 0.08373 0.7335 0.9368 0.0
C950 C 0.94674 0.72304 0.92902 0.0
C951 C 0.08284 0.73268 0.01294 0.0
C952 C 0.95281 0.76375 0.06548 0.0
C953 C 0.94575 0.72287 0.08501 0.0
C954 C 0.97433 0.7658 0.02805 0.0
C955 C 0.98905 0.72604 0.0093 0.0
C956 C 0.98078 0.68462 0.02822 0.0
C957 C 0.95942 0.68354 0.06572 0.0
C958 C 0.9824 0.81071 0.00911 0.0
C959 C 0.99551 0.64137 0.00933 0.0
H960 H 0.00345 0.72939 0.86779 0.0
H961 H 0.11807 0.73662 0.93864 0.0
H962 H 0.93555 0.6931 0.94546 0.0
H963 H 0.93124 0.75243 0.9433 0.0
H964 H 0.93596 0.7209 0.89704 0.0
H965 H 0.11797 0.73477 0.00931 0.0
H966 H 0.07169 0.76199 0.03057 0.0
H967 H 0.07542 0.70255 0.03097 0.0
H968 H 0.94248 0.79439 0.07994 0.0
H969 H 0.95412 0.65172 0.08029 0.0
H970 H 0.96988 0.81148 0.9777 0.0
H971 H 0.01723 0.81662 0.00738 0.0
H972 H 0.9674 0.83837 0.02649 0.0
H973 H 0.98365 0.63894 0.97777 0.0
H974 H 0.98445 0.61182 0.02651 0.0
H975 H 0.03086 0.64042 0.00805 0.0
C976 C 0.71603 0.07705 0.96743 0.0
C977 C 0.75762 0.08875 0.97886 0.0
C978 C 0.69691 0.03856 0.98287 0.0
C979 C 0.72008 0.01155 0.01033 0.0
C980 C 0.75973 0.02648 0.0258 0.0
C981 C 0.77784 0.06511 0.00998 0.0
C982 C 0.65356 0.02562 0.96719 0.0
C983 C 0.7853 0.99944 0.0561 0.0
C984 C 0.70156 0.91091 0.07199 0.0
C985 C 0.72777 0.88126 0.05027 0.0
C986 C 0.69116 0.95275 0.05586 0.0
C987 C 0.70808 0.96465 0.01781 0.0
C988 C 0.72657 0.93137 0.99278 0.0
C989 C 0.73624 0.88962 0.00947 0.0
C990 C 0.66797 0.9862 0.08202 0.0
C991 C 0.74261 0.94203 0.95086 0.0
H992 H 0.69925 0.09662 0.94488 0.0
H993 H 0.8096 0.07449 0.01956 0.0
H994 H 0.63741 1.00143 0.98727 0.0
H995 H 0.63289 0.05563 0.96379 0.0
H996 H 0.65706 0.01055 0.93669 0.0
H997 H 0.81472 0.01675 0.06597 0.0
H998 H 0.76586 0.99245 0.08332 0.0
H999 H 0.79471 0.96699 0.04255 0.0
H1000 H 0.69334 0.90356 0.10314 0.0
H1001 H 0.75538 0.86607 0.99227 0.0
H1002 H 0.64958 0.01032 0.06328 0.0
H1003 H 0.69143 1.0051 0.10024 0.0
H1004 H 0.64599 0.96932 0.10335 0.0
H1005 H 0.75106 0.91142 0.93366 0.0
H1006 H 0.77146 0.96308 0.95313 0.0
H1007 H 0.71815 0.96098 0.93361 0.0
C1008 C 0.06695 0.27472 0.08902 0.0
C1009 C 0.07515 0.23053 0.10089 0.0
C1010 C 0.0398 0.28451 0.05591 0.0
C1011 C 0.01959 0.2494 0.0346 0.0
C1012 C 0.02806 0.20482 0.04636 0.0
C1013 C 0.05587 0.19601 0.07886 0.0
C1014 C 0.03241 0.33245 0.04393 0.0
C1015 C 0.00692 0.16623 0.02518 0.0
C1016 C 0.91563 0.2685 0.97608 0.0
C1017 C 0.92926 0.26576 0.93568 0.0
C1018 C 0.94474 0.26448 0.00849 0.0
C1019 C 0.98889 0.25869 1.00053 0.0
C1020 C 0.00303 0.25798 0.95976 0.0
C1021 C 0.97311 0.26098 0.92795 0.0
C1022 C 0.92794 0.26447 0.05128 0.0
C1023 C 0.04973 0.2528 0.94966 0.0
H1024 H 0.0816 0.30167 0.1057 0.0
H1025 H 0.06158 0.1617 0.08768 0.0
H1026 H 0.03975 0.33702 0.01134 0.0
H1027 H -0.00164 0.34147 0.04826 0.0
H1028 H 0.05223 0.35575 0.06189 0.0
H1029 H 0.0165 0.13351 0.0382 0.0
H1030 H 0.97174 0.16968 0.02737 0.0
H1031 H 0.01521 0.16635 0.99256 0.0
H1032 H 0.88189 0.27202 0.98248 0.0
H1033 H 0.98412 0.25926 0.89689 0.0
H1034 H 0.94491 0.28953 0.06981 0.0
H1035 H 0.93397 0.23141 0.06532 0.0
H1036 H 0.89318 0.27172 0.05259 0.0
H1037 H 0.06889 0.27698 0.96724 0.0
H1038 H 0.05609 0.25781 0.9169 0.0
H1039 H 0.06088 0.21892 0.95822 0.0
C1040 C 0.58731 0.49945 0.41605 0.0
C1041 C 0.62168 0.48242 0.39364 0.0
C1042 C 0.59156 0.53864 0.43864 0.0
C1043 C 0.63125 0.56061 0.43912 0.0
C1044 C 0.66413 0.54675 0.41266 0.0
C1045 C 0.65904 0.50762 0.39024 0.0
C1046 C 0.55518 0.55377 0.46527 0.0
C1047 C 0.70642 0.57039 0.41141 0.0
C1048 C 0.64469 0.66395 0.5041 0.0
C1049 C 0.66041 0.64519 0.54017 0.0
C1050 C 0.63558 0.63713 0.4704 0.0
C1051 C 0.64162 0.59053 0.47327 0.0
C1052 C 0.65819 0.57154 0.50927 0.0
C1053 C 0.6679 0.59911 0.54197 0.0
C1054 C 0.61887 0.6587 0.43223 0.0
C1055 C 0.66587 0.52191 0.51332 0.0
H1056 H 0.55799 0.48068 0.41795 0.0
H1057 H 0.68593 0.49502 0.37307 0.0
H1058 H 0.56221 0.54455 0.49714 0.0
H1059 H 0.55141 0.59053 0.46397 0.0
H1060 H 0.52457 0.53816 0.45635 0.0
H1061 H 0.7263 0.55926 0.38545 0.0
H1062 H 0.70147 0.60697 0.40933 0.0
H1063 H 0.7243 0.56352 0.43977 0.0
H1064 H 0.63925 0.6996 0.50224 0.0
H1065 H 0.68195 0.58427 0.56874 0.0
H1066 H 0.5835 0.65829 0.43271 0.0
H1067 H 0.62953 0.64072 0.40466 0.0
H1068 H 0.62931 0.69388 0.42995 0.0
H1069 H 0.63565 0.50373 0.50833 0.0
H1070 H 0.6786 0.51254 0.54357 0.0
H1071 H 0.68888 0.51047 0.48998 0.0
C1072 C 0.44677 0.29211 0.55521 0.0
C1073 C 0.43808 0.25926 0.5843 0.0
C1074 C 0.4734 0.28338 0.52191 0.0
C1075 C 0.49148 0.24036 0.51681 0.0
C1076 C 0.482 0.20658 0.54542 0.0
C1077 C 0.45575 0.21652 0.57902 0.0
C1078 C 0.48305 0.32069 0.4927 0.0
C1079 C 0.49997 0.1601 0.54077 0.0
C1080 C 0.5344 0.21823 0.41037 0.0
C1081 C 0.57801 0.22713 0.41514 0.0
C1082 C 0.5062 0.22 0.44357 0.0
C1083 C 0.52171 0.23183 0.48243 0.0
C1084 C 0.56591 0.23954 0.48758 0.0
C1085 C 0.59347 0.23671 0.45407 0.0
C1086 C 0.45953 0.21074 0.43674 0.0
C1087 C 0.58388 0.25307 0.52814 0.0
H1088 H 0.43353 0.32533 0.55891 0.0
H1089 H 0.44915 0.19085 0.60116 0.0
H1090 H 0.51786 0.32703 0.49226 0.0
H1091 H 0.47361 0.31107 0.46156 0.0
H1092 H 0.46626 0.35219 0.50073 0.0
H1093 H 0.4874 0.13685 0.56395 0.0
H1094 H 0.49229 0.14689 0.51027 0.0
H1095 H 0.53522 0.16085 0.54338 0.0
H1096 H 0.52211 0.21063 0.3805 0.0
H1097 H 0.62699 0.24394 0.45818 0.0
H1098 H 0.4408 0.242 0.44033 0.0
H1099 H 0.44774 0.18677 0.45963 0.0
H1100 H 0.45329 0.1971 0.40605 0.0
H1101 H 0.57078 0.28616 0.53683 0.0
H1102 H 0.61923 0.25505 0.52782 0.0
H1103 H 0.57424 0.22905 0.55187 0.0
C1104 C 0.23579 0.42497 0.50834 0.0
C1105 C 0.22208 0.41579 0.54767 0.0
C1106 C 0.23347 0.46843 0.49311 0.0
C1107 C 0.21667 0.5029 0.51796 0.0
C1108 C 0.19547 0.49192 0.55428 0.0
C1109 C 0.19875 0.44826 0.56904 0.0
C1110 C 0.25455 0.47828 0.45303 0.0
C1111 C 0.17377 0.52687 0.57997 0.0
C1112 C 0.29645 0.5941 0.51215 0.0
C1113 C 0.28183 0.61672 0.47773 0.0
C1114 C 0.27249 0.55986 0.52923 0.0
C1115 C 0.23271 0.54867 0.51166 0.0
C1116 C 0.21462 0.57659 0.48167 0.0
C1117 C 0.23956 0.61044 0.46483 0.0
C1118 C 0.29238 0.53218 0.56266 0.0
C1119 C 0.17083 0.56836 0.46448 0.0
H1120 H 0.25275 0.39955 0.49131 0.0
H1121 H 0.18618 0.4406 0.59878 0.0
H1122 H 0.23344 0.49938 0.43398 0.0
H1123 H 0.28451 0.49688 0.45828 0.0
H1124 H 0.26242 0.44741 0.43593 0.0
H1125 H 0.14538 0.51275 0.59523 0.0
H1126 H 0.19597 0.53809 0.60398 0.0
H1127 H 0.16377 0.55627 0.56181 0.0
H1128 H 0.32854 0.59969 0.52316 0.0
H1129 H 0.22693 0.62969 0.43971 0.0
H1130 H 0.2997 0.49818 0.55126 0.0
H1131 H 0.2699 0.52888 0.5883 0.0
H1132 H 0.32237 0.54692 0.5743 0.0
H1133 H 0.1738 0.54947 0.43574 0.0
H1134 H 0.15465 0.60047 0.4573 0.0
H1135 H 0.15055 0.54915 0.48562 0.0
C1136 C 0.56226 0.81879 0.58786 0.0
C1137 C 0.56559 0.78106 0.61282 0.0
C1138 C 0.53831 0.81796 0.55174 0.0
C1139 C 0.51763 0.77823 0.53978 0.0
C1140 C 0.52169 0.73974 0.56442 0.0
C1141 C 0.5453 0.74171 0.60067 0.0
C1142 C 0.53479 0.85978 0.52655 0.0
C1143 C 0.50111 0.69638 0.55246 0.0
C1144 C 0.4235 0.78348 0.46612 0.0
C1145 C 0.4426 0.77105 0.42932 0.0
C1146 C 0.44752 0.78643 0.5021 0.0
C1147 C 0.49186 0.77682 0.50148 0.0
C1148 C 0.51142 0.76508 0.46432 0.0
C1149 C 0.48666 0.7622 0.42885 0.0
C1150 C 0.42534 0.79933 0.54093 0.0
C1151 C 0.55847 0.75468 0.46216 0.0
H1152 H 0.57772 0.84936 0.59694 0.0
H1153 H 0.54804 0.7122 0.61946 0.0
H1154 H 0.54699 0.8534 0.49557 0.0
H1155 H 0.50082 0.86989 0.52359 0.0
H1156 H 0.55282 0.88792 0.53987 0.0
H1157 H 0.50692 0.66958 0.57505 0.0
H1158 H 0.46619 0.70124 0.54896 0.0
H1159 H 0.51369 0.68517 0.52276 0.0
H1160 H 0.38953 0.79031 0.467 0.0
H1161 H 0.50188 0.75253 0.40072 0.0
H1162 H 0.44102 0.82876 0.55455 0.0
H1163 H 0.42799 0.77169 0.56311 0.0
H1164 H 0.39103 0.80727 0.5362 0.0
H1165 H 0.57721 0.78236 0.47525 0.0
H1166 H 0.56936 0.74887 0.43062 0.0
H1167 H 0.56551 0.72454 0.48047 0.0
loop_
_geom_bond_atom_site_label_1
_geom_bond_atom_site_label_2
_geom_bond_distance
_geom_bond_site_symmetry_2
_ccdc_geom_bond_type
Zn0 N4 2.020 . S
Zn0 O8 2.019 . S
Zn0 N10 2.119 . S
Zn0 O18 1.975 . S
C1 N2 1.334 . S
C1 N5 1.336 . S
N2 C1 1.334 . S
N2 C3 1.334 . S
C3 N2 1.334 . S
C3 N4 1.336 . S
N4 Zn0 2.020 . S
N4 C3 1.336 . S
N4 N5 1.354 . S
N5 C1 1.336 . S
N5 N4 1.354 . S
N5 Zn9 2.020 . S
C6 O7 1.244 . S
C6 O30 1.257 . S
O7 C6 1.244 . S
O8 Zn0 2.019 . S
O8 C28 1.257 . S
Zn9 N5 2.020 . S
Zn9 O16 1.975 . S
Zn9 N25 2.119 . S
Zn9 O30 2.019 . S
N10 Zn0 2.119 . S
N10 C12 1.334 . S
N10 C13 1.328 . S
C11 C12 1.391 . S
C11 N14 1.329 . S
C11 H32 0.930 . S
C12 N10 1.334 . S
C12 C11 1.391 . S
C12 H19 0.930 . S
C13 N10 1.328 . S
C13 C15 1.392 . S
C13 H20 0.930 . S
N14 C11 1.329 . S
N14 C15 1.331 . S
C15 C13 1.392 . S
C15 N14 1.331 . S
O16 Zn9 1.975 . S
O16 C17 1.252 . S
C17 O16 1.252 . S
C17 O18 1.252 . S
O18 Zn0 1.975 . S
O18 C17 1.252 . S
H19 C12 0.930 . S
H20 C13 0.930 . S
C21 C22 1.392 . S
C21 N25 1.328 . S
C21 H27 0.930 . S
C22 C21 1.392 . S
C22 N26 1.331 . S
C23 C24 1.391 . S
C23 N26 1.329 . S
C23 H33 0.930 . S
C24 C23 1.391 . S
C24 N25 1.334 . S
C24 H31 0.930 . S
N25 Zn9 2.119 . S
N25 C21 1.328 . S
N25 C24 1.334 . S
N26 C22 1.331 . S
N26 C23 1.329 . S
H27 C21 0.930 . S
C28 O8 1.257 . S
C28 O29 1.244 . S
O29 C28 1.244 . S
O30 C6 1.257 . S
O30 Zn9 2.019 . S
H31 C24 0.930 . S
H32 C11 0.930 . S
H33 C23 0.930 . S
Zn34 N38 2.020 . S
Zn34 O42 2.019 . S
Zn34 N44 2.119 . S
Zn34 O52 1.975 . S
C35 N36 1.334 . S
C35 N39 1.336 . S
N36 C35 1.334 . S
N36 C37 1.334 . S
C37 N36 1.334 . S
C37 N38 1.336 . S
N38 Zn34 2.020 . S
N38 C37 1.336 . S
N38 N39 1.354 . S
N39 C35 1.336 . S
N39 N38 1.354 . S
N39 Zn43 2.020 . S
C40 O41 1.244 . S
C40 O64 1.257 . S
O41 C40 1.244 . S
O42 Zn34 2.019 . S
O42 C62 1.257 . S
Zn43 N39 2.020 . S
Zn43 O50 1.975 . S
Zn43 N59 2.119 . S
Zn43 O64 2.019 . S
N44 Zn34 2.119 . S
N44 C46 1.334 . S
N44 C47 1.328 . S
C45 C46 1.391 . S
C45 N48 1.329 . S
C45 H66 0.930 . S
C46 N44 1.334 . S
C46 C45 1.391 . S
C46 H53 0.930 . S
C47 N44 1.328 . S
C47 C49 1.392 . S
C47 H54 0.930 . S
N48 C45 1.329 . S
N48 C49 1.331 . S
C49 C47 1.392 . S
C49 N48 1.331 . S
O50 Zn43 1.975 . S
O50 C51 1.252 . S
C51 O50 1.252 . S
C51 O52 1.252 . S
O52 Zn34 1.975 . S
O52 C51 1.252 . S
H53 C46 0.930 . S
H54 C47 0.930 . S
C55 C56 1.392 . S
C55 N59 1.328 . S
C55 H61 0.930 . S
C56 C55 1.392 . S
C56 N60 1.331 . S
C57 C58 1.391 . S
C57 N60 1.329 . S
C57 H67 0.930 . S
C58 C57 1.391 . S
C58 N59 1.334 . S
C58 H65 0.930 . S
N59 Zn43 2.119 . S
N59 C55 1.328 . S
N59 C58 1.334 . S
N60 C56 1.331 . S
N60 C57 1.329 . S
H61 C55 0.930 . S
C62 O42 1.257 . S
C62 O63 1.244 . S
O63 C62 1.244 . S
O64 C40 1.257 . S
O64 Zn43 2.019 . S
H65 C58 0.930 . S
H66 C45 0.930 . S
H67 C57 0.930 . S
Zn68 N72 2.020 . S
Zn68 O76 2.019 . S
Zn68 N78 2.119 . S
Zn68 O86 1.975 . S
C69 N70 1.334 . S
C69 N73 1.336 . S
N70 C69 1.334 . S
N70 C71 1.334 . S
C71 N70 1.334 . S
C71 N72 1.336 . S
N72 Zn68 2.020 . S
N72 C71 1.336 . S
N72 N73 1.354 . S
N73 C69 1.336 . S
N73 N72 1.354 . S
N73 Zn77 2.020 . S
C74 O75 1.244 . S
C74 O98 1.257 . S
O75 C74 1.244 . S
O76 Zn68 2.019 . S
O76 C96 1.257 . S
Zn77 N73 2.020 . S
Zn77 O84 1.975 . S
Zn77 N93 2.119 . S
Zn77 O98 2.019 . S
N78 Zn68 2.119 . S
N78 C80 1.334 . S
N78 C81 1.328 . S
C79 C80 1.391 . S
C79 N82 1.329 . S
C79 H100 0.930 . S
C80 N78 1.334 . S
C80 C79 1.391 . S
C80 H87 0.930 . S
C81 N78 1.328 . S
C81 C83 1.392 . S
C81 H88 0.930 . S
N82 C79 1.329 . S
N82 C83 1.331 . S
C83 C81 1.392 . S
C83 N82 1.331 . S
O84 Zn77 1.975 . S
O84 C85 1.252 . S
C85 O84 1.252 . S
C85 O86 1.252 . S
O86 Zn68 1.975 . S
O86 C85 1.252 . S
H87 C80 0.930 . S
H88 C81 0.930 . S
C89 C90 1.392 . S
C89 N93 1.328 . S
C89 H95 0.930 . S
C90 C89 1.392 . S
C90 N94 1.331 . S
C91 C92 1.391 . S
C91 N94 1.329 . S
C91 H101 0.930 . S
C92 C91 1.391 . S
C92 N93 1.334 . S
C92 H99 0.930 . S
N93 Zn77 2.119 . S
N93 C89 1.328 . S
N93 C92 1.334 . S
N94 C90 1.331 . S
N94 C91 1.329 . S
H95 C89 0.930 . S
C96 O76 1.257 . S
C96 O97 1.244 . S
O97 C96 1.244 . S
O98 C74 1.257 . S
O98 Zn77 2.019 . S
H99 C92 0.930 . S
H100 C79 0.930 . S
H101 C91 0.930 . S
Zn102 N106 2.020 . S
Zn102 O110 2.019 . S
Zn102 N112 2.119 . S
Zn102 O120 1.975 . S
C103 N104 1.334 . S
C103 N107 1.336 . S
N104 C103 1.334 . S
N104 C105 1.334 . S
C105 N104 1.334 . S
C105 N106 1.336 . S
N106 Zn102 2.020 . S
N106 C105 1.336 . S
N106 N107 1.354 . S
N107 C103 1.336 . S
N107 N106 1.354 . S
N107 Zn111 2.020 . S
C108 O109 1.244 . S
C108 O132 1.257 . S
O109 C108 1.244 . S
O110 Zn102 2.019 . S
O110 C130 1.257 . S
Zn111 N107 2.020 . S
Zn111 O118 1.975 . S
Zn111 N127 2.119 . S
Zn111 O132 2.019 . S
N112 Zn102 2.119 . S
N112 C114 1.334 . S
N112 C115 1.328 . S
C113 C114 1.391 . S
C113 N116 1.329 . S
C113 H134 0.930 . S
C114 N112 1.334 . S
C114 C113 1.391 . S
C114 H121 0.930 . S
C115 N112 1.328 . S
C115 C117 1.392 . S
C115 H122 0.930 . S
N116 C113 1.329 . S
N116 C117 1.331 . S
C117 C115 1.392 . S
C117 N116 1.331 . S
O118 Zn111 1.975 . S
O118 C119 1.252 . S
C119 O118 1.252 . S
C119 O120 1.252 . S
O120 Zn102 1.975 . S
O120 C119 1.252 . S
H121 C114 0.930 . S
H122 C115 0.930 . S
C123 C124 1.392 . S
C123 N127 1.328 . S
C123 H129 0.930 . S
C124 C123 1.392 . S
C124 N128 1.331 . S
C125 C126 1.391 . S
C125 N128 1.329 . S
C125 H135 0.930 . S
C126 C125 1.391 . S
C126 N127 1.334 . S
C126 H133 0.930 . S
N127 Zn111 2.119 . S
N127 C123 1.328 . S
N127 C126 1.334 . S
N128 C124 1.331 . S
N128 C125 1.329 . S
H129 C123 0.930 . S
C130 O110 1.257 . S
C130 O131 1.244 . S
O131 C130 1.244 . S
O132 C108 1.257 . S
O132 Zn111 2.019 . S
H133 C126 0.930 . S
H134 C113 0.930 . S
H135 C125 0.930 . S
Zn136 N140 2.020 . S
Zn136 O144 2.019 . S
Zn136 N146 2.119 . S
Zn136 O154 1.975 . S
C137 N138 1.334 . S
C137 N141 1.336 . S
N138 C137 1.334 . S
N138 C139 1.334 . S
C139 N138 1.334 . S
C139 N140 1.336 . S
N140 Zn136 2.020 . S
N140 C139 1.336 . S
N140 N141 1.354 . S
N141 C137 1.336 . S
N141 N140 1.354 . S
N141 Zn145 2.020 . S
C142 O143 1.244 . S
C142 O166 1.257 . S
O143 C142 1.244 . S
O144 Zn136 2.019 . S
O144 C164 1.257 . S
Zn145 N141 2.020 . S
Zn145 O152 1.975 . S
Zn145 N161 2.119 . S
Zn145 O166 2.019 . S
N146 Zn136 2.119 . S
N146 C148 1.334 . S
N146 C149 1.328 . S
C147 C148 1.391 . S
C147 N150 1.329 . S
C147 H168 0.930 . S
C148 N146 1.334 . S
C148 C147 1.391 . S
C148 H155 0.930 . S
C149 N146 1.328 . S
C149 C151 1.392 . S
C149 H156 0.930 . S
N150 C147 1.329 . S
N150 C151 1.331 . S
C151 C149 1.392 . S
C151 N150 1.331 . S
O152 Zn145 1.975 . S
O152 C153 1.252 . S
C153 O152 1.252 . S
C153 O154 1.252 . S
O154 Zn136 1.975 . S
O154 C153 1.252 . S
H155 C148 0.930 . S
H156 C149 0.930 . S
C157 C158 1.392 . S
C157 N161 1.328 . S
C157 H163 0.930 . S
C158 C157 1.392 . S
C158 N162 1.331 . S
C159 C160 1.391 . S
C159 N162 1.329 . S
C159 H169 0.930 . S
C160 C159 1.391 . S
C160 N161 1.334 . S
C160 H167 0.930 . S
N161 Zn145 2.119 . S
N161 C157 1.328 . S
N161 C160 1.334 . S
N162 C158 1.331 . S
N162 C159 1.329 . S
H163 C157 0.930 . S
C164 O144 1.257 . S
C164 O165 1.244 . S
O165 C164 1.244 . S
O166 C142 1.257 . S
O166 Zn145 2.019 . S
H167 C160 0.930 . S
H168 C147 0.930 . S
H169 C159 0.930 . S
Zn170 N174 2.020 . S
Zn170 O178 2.019 . S
Zn170 N180 2.119 . S
Zn170 O188 1.975 . S
C171 N172 1.334 . S
C171 N175 1.336 . S
N172 C171 1.334 . S
N172 C173 1.334 . S
C173 N172 1.334 . S
C173 N174 1.336 . S
N174 Zn170 2.020 . S
N174 C173 1.336 . S
N174 N175 1.354 . S
N175 C171 1.336 . S
N175 N174 1.354 . S
N175 Zn179 2.020 . S
C176 O177 1.244 . S
C176 O200 1.257 . S
O177 C176 1.244 . S
O178 Zn170 2.019 . S
O178 C198 1.257 . S
Zn179 N175 2.020 . S
Zn179 O186 1.975 . S
Zn179 N195 2.119 . S
Zn179 O200 2.019 . S
N180 Zn170 2.119 . S
N180 C182 1.334 . S
N180 C183 1.328 . S
C181 C182 1.391 . S
C181 N184 1.329 . S
C181 H202 0.930 . S
C182 N180 1.334 . S
C182 C181 1.391 . S
C182 H189 0.930 . S
C183 N180 1.328 . S
C183 C185 1.392 . S
C183 H190 0.930 . S
N184 C181 1.329 . S
N184 C185 1.331 . S
C185 C183 1.392 . S
C185 N184 1.331 . S
O186 Zn179 1.975 . S
O186 C187 1.252 . S
C187 O186 1.252 . S
C187 O188 1.252 . S
O188 Zn170 1.975 . S
O188 C187 1.252 . S
H189 C182 0.930 . S
H190 C183 0.930 . S
C191 C192 1.392 . S
C191 N195 1.328 . S
C191 H197 0.930 . S
C192 C191 1.392 . S
C192 N196 1.331 . S
C193 C194 1.391 . S
C193 N196 1.329 . S
C193 H203 0.930 . S
C194 C193 1.391 . S
C194 N195 1.334 . S
C194 H201 0.930 . S
N195 Zn179 2.119 . S
N195 C191 1.328 . S
N195 C194 1.334 . S
N196 C192 1.331 . S
N196 C193 1.329 . S
H197 C191 0.930 . S
C198 O178 1.257 . S
C198 O199 1.244 . S
O199 C198 1.244 . S
O200 C176 1.257 . S
O200 Zn179 2.019 . S
H201 C194 0.930 . S
H202 C181 0.930 . S
H203 C193 0.930 . S
Zn204 N208 2.020 . S
Zn204 O212 2.019 . S
Zn204 N214 2.119 . S
Zn204 O222 1.975 . S
C205 N206 1.334 . S
C205 N209 1.336 . S
N206 C205 1.334 . S
N206 C207 1.334 . S
C207 N206 1.334 . S
C207 N208 1.336 . S
N208 Zn204 2.020 . S
N208 C207 1.336 . S
N208 N209 1.354 . S
N209 C205 1.336 . S
N209 N208 1.354 . S
N209 Zn213 2.020 . S
C210 O211 1.244 . S
C210 O234 1.257 . S
O211 C210 1.244 . S
O212 Zn204 2.019 . S
O212 C232 1.257 . S
Zn213 N209 2.020 . S
Zn213 O220 1.975 . S
Zn213 N229 2.119 . S
Zn213 O234 2.019 . S
N214 Zn204 2.119 . S
N214 C216 1.334 . S
N214 C217 1.328 . S
C215 C216 1.391 . S
C215 N218 1.329 . S
C215 H236 0.930 . S
C216 N214 1.334 . S
C216 C215 1.391 . S
C216 H223 0.930 . S
C217 N214 1.328 . S
C217 C219 1.392 . S
C217 H224 0.930 . S
N218 C215 1.329 . S
N218 C219 1.331 . S
C219 C217 1.392 . S
C219 N218 1.331 . S
O220 Zn213 1.975 . S
O220 C221 1.252 . S
C221 O220 1.252 . S
C221 O222 1.252 . S
O222 Zn204 1.975 . S
O222 C221 1.252 . S
H223 C216 0.930 . S
H224 C217 0.930 . S
C225 C226 1.392 . S
C225 N229 1.328 . S
C225 H231 0.930 . S
C226 C225 1.392 . S
C226 N230 1.331 . S
C227 C228 1.391 . S
C227 N230 1.329 . S
C227 H237 0.930 . S
C228 C227 1.391 . S
C228 N229 1.334 . S
C228 H235 0.930 . S
N229 Zn213 2.119 . S
N229 C225 1.328 . S
N229 C228 1.334 . S
N230 C226 1.331 . S
N230 C227 1.329 . S
H231 C225 0.930 . S
C232 O212 1.257 . S
C232 O233 1.244 . S
O233 C232 1.244 . S
O234 C210 1.257 . S
O234 Zn213 2.019 . S
H235 C228 0.930 . S
H236 C215 0.930 . S
H237 C227 0.930 . S
Zn238 N242 2.020 . S
Zn238 O246 2.019 . S
Zn238 N248 2.119 . S
Zn238 O256 1.975 . S
C239 N240 1.334 . S
C239 N243 1.336 . S
N240 C239 1.334 . S
N240 C241 1.334 . S
C241 N240 1.334 . S
C241 N242 1.336 . S
N242 Zn238 2.020 . S
N242 C241 1.336 . S
N242 N243 1.354 . S
N243 C239 1.336 . S
N243 N242 1.354 . S
N243 Zn247 2.020 . S
C244 O245 1.244 . S
C244 O268 1.257 . S
O245 C244 1.244 . S
O246 Zn238 2.019 . S
O246 C266 1.257 . S
Zn247 N243 2.020 . S
Zn247 O254 1.975 . S
Zn247 N263 2.119 . S
Zn247 O268 2.019 . S
N248 Zn238 2.119 . S
N248 C250 1.334 . S
N248 C251 1.328 . S
C249 C250 1.391 . S
C249 N252 1.329 . S
C249 H270 0.930 . S
C250 N248 1.334 . S
C250 C249 1.391 . S
C250 H257 0.930 . S
C251 N248 1.328 . S
C251 C253 1.392 . S
C251 H258 0.930 . S
N252 C249 1.329 . S
N252 C253 1.331 . S
C253 C251 1.392 . S
C253 N252 1.331 . S
O254 Zn247 1.975 . S
O254 C255 1.252 . S
C255 O254 1.252 . S
C255 O256 1.252 . S
O256 Zn238 1.975 . S
O256 C255 1.252 . S
H257 C250 0.930 . S
H258 C251 0.930 . S
C259 C260 1.392 . S
C259 N263 1.328 . S
C259 H265 0.930 . S
C260 C259 1.392 . S
C260 N264 1.331 . S
C261 C262 1.391 . S
C261 N264 1.329 . S
C261 H271 0.930 . S
C262 C261 1.391 . S
C262 N263 1.334 . S
C262 H269 0.930 . S
N263 Zn247 2.119 . S
N263 C259 1.328 . S
N263 C262 1.334 . S
N264 C260 1.331 . S
N264 C261 1.329 . S
H265 C259 0.930 . S
C266 O246 1.257 . S
C266 O267 1.244 . S
O267 C266 1.244 . S
O268 C244 1.257 . S
O268 Zn247 2.019 . S
H269 C262 0.930 . S
H270 C249 0.930 . S
H271 C261 0.930 . S
C272 C273 1.391 . S
C272 C274 1.394 1_545 S
C272 H288 0.931 . S
C273 C272 1.391 . S
C273 C277 1.376 . S
C274 C272 1.394 1_565 S
C274 C275 1.369 . S
C274 C278 1.531 . S
C275 C274 1.369 . S
C275 C276 1.410 . S
C275 C283 1.503 . S
C276 C275 1.410 . S
C276 C277 1.392 1_565 S
C276 C279 1.511 . S
C277 C273 1.376 . S
C277 C276 1.392 1_545 S
C277 H289 0.929 . S
C278 C274 1.531 . S
C278 H290 0.960 . S
C278 H291 0.962 . S
C278 H292 0.960 . S
C279 C276 1.511 . S
C279 H293 0.961 . S
C279 H294 0.961 . S
C279 H295 0.961 . S
C280 C281 1.370 . S
C280 C282 1.363 . S
C280 H296 0.931 . S
C281 C280 1.370 . S
C281 C285 1.408 . S
C282 C280 1.363 . S
C282 C283 1.370 . S
C282 C286 1.524 . S
C283 C275 1.503 . S
C283 C282 1.370 . S
C283 C284 1.403 . S
C284 C283 1.403 . S
C284 C285 1.404 . S
C284 C287 1.539 . S
C285 C281 1.408 . S
C285 C284 1.404 . S
C285 H297 0.930 . S
C286 C282 1.524 . S
C286 H298 0.956 . S
C286 H299 0.961 . S
C286 H300 0.961 . S
C287 C284 1.539 . S
C287 H301 0.958 . S
C287 H302 0.961 . S
C287 H303 0.960 . S
H288 C272 0.931 . S
H289 C277 0.929 . S
H290 C278 0.960 . S
H291 C278 0.962 . S
H292 C278 0.960 . S
H293 C279 0.961 . S
H294 C279 0.961 . S
H295 C279 0.961 . S
H296 C280 0.931 . S
H297 C285 0.930 . S
H298 C286 0.956 . S
H299 C286 0.961 . S
H300 C286 0.961 . S
H301 C287 0.958 . S
H302 C287 0.961 . S
H303 C287 0.960 . S
C304 C305 1.391 1_655 S
C304 C306 1.394 . S
C304 H320 0.931 1_655 S
C305 C304 1.391 1_455 S
C305 C309 1.376 1_455 S
C306 C304 1.394 . S
C306 C307 1.369 . S
C306 C310 1.531 . S
C307 C306 1.369 . S
C307 C308 1.410 . S
C307 C315 1.503 . S
C308 C307 1.410 . S
C308 C309 1.392 . S
C308 C311 1.511 . S
C309 C305 1.376 1_655 S
C309 C308 1.392 . S
C309 H321 0.929 1_655 S
C310 C306 1.531 . S
C310 H322 0.960 . S
C310 H323 0.962 . S
C310 H324 0.960 . S
C311 C308 1.511 . S
C311 H325 0.961 . S
C311 H326 0.961 . S
C311 H327 0.961 . S
C312 C313 1.370 . S
C312 C314 1.363 . S
C312 H328 0.931 . S
C313 C312 1.370 . S
C313 C317 1.408 . S
C314 C312 1.363 . S
C314 C315 1.370 . S
C314 C318 1.524 . S
C315 C307 1.503 . S
C315 C314 1.370 . S
C315 C316 1.403 . S
C316 C315 1.403 . S
C316 C317 1.404 . S
C316 C319 1.539 . S
C317 C313 1.408 . S
C317 C316 1.404 . S
C317 H329 0.930 . S
C318 C314 1.524 . S
C318 H330 0.956 . S
C318 H331 0.961 . S
C318 H332 0.961 . S
C319 C316 1.539 . S
C319 H333 0.958 . S
C319 H334 0.961 . S
C319 H335 0.960 . S
H320 C304 0.931 1_455 S
H321 C309 0.929 1_455 S
H322 C310 0.960 . S
H323 C310 0.962 . S
H324 C310 0.960 . S
H325 C311 0.961 . S
H326 C311 0.961 . S
H327 C311 0.961 . S
H328 C312 0.931 . S
H329 C317 0.930 . S
H330 C318 0.956 . S
H331 C318 0.961 . S
H332 C318 0.961 . S
H333 C319 0.958 . S
H334 C319 0.961 . S
H335 C319 0.960 . S
C336 C337 1.391 . S
C336 C338 1.394 . S
C336 H352 0.931 . S
C337 C336 1.391 . S
C337 C341 1.376 . S
C338 C336 1.394 . S
C338 C339 1.369 . S
C338 C342 1.531 . S
C339 C338 1.369 . S
C339 C340 1.410 . S
C339 C347 1.503 . S
C340 C339 1.410 . S
C340 C341 1.392 . S
C340 C343 1.511 . S
C341 C337 1.376 . S
C341 C340 1.392 . S
C341 H353 0.929 . S
C342 C338 1.531 . S
C342 H354 0.960 . S
C342 H355 0.962 . S
C342 H356 0.960 . S
C343 C340 1.511 . S
C343 H357 0.961 . S
C343 H358 0.961 . S
C343 H359 0.961 . S
C344 C345 1.370 1_545 S
C344 C346 1.363 . S
C344 H360 0.931 . S
C345 C344 1.370 1_565 S
C345 C349 1.408 . S
C346 C344 1.363 . S
C346 C347 1.370 . S
C346 C350 1.524 . S
C347 C339 1.503 . S
C347 C346 1.370 . S
C347 C348 1.403 . S
C348 C347 1.403 . S
C348 C349 1.404 1_545 S
C348 C351 1.539 . S
C349 C345 1.408 . S
C349 C348 1.404 1_565 S
C349 H361 0.930 . S
C350 C346 1.524 . S
C350 H362 0.956 . S
C350 H363 0.961 . S
C350 H364 0.961 . S
C351 C348 1.539 . S
C351 H365 0.958 . S
C351 H366 0.961 1_545 S
C351 H367 0.960 . S
H352 C336 0.931 . S
H353 C341 0.929 . S
H354 C342 0.960 . S
H355 C342 0.962 . S
H356 C342 0.960 . S
H357 C343 0.961 . S
H358 C343 0.961 . S
H359 C343 0.961 . S
H360 C344 0.931 . S
H361 C349 0.930 . S
H362 C350 0.956 . S
H363 C350 0.961 . S
H364 C350 0.961 . S
H365 C351 0.958 . S
H366 C351 0.961 1_565 S
H367 C351 0.960 . S
C368 C369 1.391 1_455 S
C368 C370 1.394 . S
C368 H384 0.931 . S
C369 C368 1.391 1_655 S
C369 C373 1.376 1_655 S
C370 C368 1.394 . S
C370 C371 1.369 . S
C370 C374 1.531 . S
C371 C370 1.369 . S
C371 C372 1.410 . S
C371 C379 1.503 . S
C372 C371 1.410 . S
C372 C373 1.392 . S
C372 C375 1.511 . S
C373 C369 1.376 1_455 S
C373 C372 1.392 . S
C373 H385 0.929 1_455 S
C374 C370 1.531 . S
C374 H386 0.960 . S
C374 H387 0.962 . S
C374 H388 0.960 . S
C375 C372 1.511 . S
C375 H389 0.961 . S
C375 H390 0.961 . S
C375 H391 0.961 . S
C376 C377 1.370 . S
C376 C378 1.363 . S
C376 H392 0.931 . S
C377 C376 1.370 . S
C377 C381 1.408 . S
C378 C376 1.363 . S
C378 C379 1.370 . S
C378 C382 1.524 . S
C379 C371 1.503 . S
C379 C378 1.370 . S
C379 C380 1.403 . S
C380 C379 1.403 . S
C380 C381 1.404 . S
C380 C383 1.539 . S
C381 C377 1.408 . S
C381 C380 1.404 . S
C381 H393 0.930 . S
C382 C378 1.524 . S
C382 H394 0.956 . S
C382 H395 0.961 . S
C382 H396 0.961 . S
C383 C380 1.539 . S
C383 H397 0.958 . S
C383 H398 0.961 . S
C383 H399 0.960 . S
H384 C368 0.931 . S
H385 C373 0.929 1_655 S
H386 C374 0.960 . S
H387 C374 0.962 . S
H388 C374 0.960 . S
H389 C375 0.961 . S
H390 C375 0.961 . S
H391 C375 0.961 . S
H392 C376 0.931 . S
H393 C381 0.930 . S
H394 C382 0.956 . S
H395 C382 0.961 . S
H396 C382 0.961 . S
H397 C383 0.958 . S
H398 C383 0.961 . S
H399 C383 0.960 . S
C400 C401 1.391 . S
C400 C402 1.394 1_565 S
C400 H416 0.931 . S
C401 C400 1.391 . S
C401 C405 1.376 1_565 S
C402 C400 1.394 1_545 S
C402 C403 1.369 . S
C402 C406 1.531 . S
C403 C402 1.369 . S
C403 C404 1.410 . S
C403 C411 1.503 . S
C404 C403 1.410 . S
C404 C405 1.392 . S
C404 C407 1.511 . S
C405 C401 1.376 1_545 S
C405 C404 1.392 . S
C405 H417 0.929 . S
C406 C402 1.531 . S
C406 H418 0.960 . S
C406 H419 0.962 . S
C406 H420 0.960 1_545 S
C407 C404 1.511 . S
C407 H421 0.961 . S
C407 H422 0.961 . S
C407 H423 0.961 . S
C408 C409 1.370 . S
C408 C410 1.363 . S
C408 H424 0.931 . S
C409 C408 1.370 . S
C409 C413 1.408 . S
C410 C408 1.363 . S
C410 C411 1.370 . S
C410 C414 1.524 . S
C411 C403 1.503 . S
C411 C410 1.370 . S
C411 C412 1.403 . S
C412 C411 1.403 . S
C412 C413 1.404 . S
C412 C415 1.539 . S
C413 C409 1.408 . S
C413 C412 1.404 . S
C413 H425 0.930 . S
C414 C410 1.524 . S
C414 H426 0.956 . S
C414 H427 0.961 . S
C414 H428 0.961 . S
C415 C412 1.539 . S
C415 H429 0.958 . S
C415 H430 0.961 . S
C415 H431 0.960 . S
H416 C400 0.931 . S
H417 C405 0.929 . S
H418 C406 0.960 . S
H419 C406 0.962 . S
H420 C406 0.960 1_565 S
H421 C407 0.961 . S
H422 C407 0.961 . S
H423 C407 0.961 . S
H424 C408 0.931 . S
H425 C413 0.930 . S
H426 C414 0.956 . S
H427 C414 0.961 . S
H428 C414 0.961 . S
H429 C415 0.958 . S
H430 C415 0.961 . S
H431 C415 0.960 . S
C432 C433 1.391 . S
C432 C434 1.394 . S
C432 H448 0.931 . S
C433 C432 1.391 . S
C433 C437 1.376 . S
C434 C432 1.394 . S
C434 C435 1.369 . S
C434 C438 1.531 . S
C435 C434 1.369 . S
C435 C436 1.410 . S
C435 C443 1.503 . S
C436 C435 1.410 . S
C436 C437 1.392 . S
C436 C439 1.511 . S
C437 C433 1.376 . S
C437 C436 1.392 . S
C437 H449 0.929 . S
C438 C434 1.531 . S
C438 H450 0.960 . S
C438 H451 0.962 . S
C438 H452 0.960 . S
C439 C436 1.511 . S
C439 H453 0.961 . S
C439 H454 0.961 . S
C439 H455 0.961 . S
C440 C441 1.370 1_455 S
C440 C442 1.363 . S
C440 H456 0.931 1_455 S
C441 C440 1.370 1_655 S
C441 C445 1.408 1_655 S
C442 C440 1.363 . S
C442 C443 1.370 . S
C442 C446 1.524 . S
C443 C435 1.503 . S
C443 C442 1.370 . S
C443 C444 1.403 . S
C444 C443 1.403 . S
C444 C445 1.404 . S
C444 C447 1.539 . S
C445 C441 1.408 1_455 S
C445 C444 1.404 . S
C445 H457 0.930 . S
C446 C442 1.524 . S
C446 H458 0.956 . S
C446 H459 0.961 . S
C446 H460 0.961 . S
C447 C444 1.539 . S
C447 H461 0.958 . S
C447 H462 0.961 . S
C447 H463 0.960 . S
H448 C432 0.931 . S
H449 C437 0.929 . S
H450 C438 0.960 . S
H451 C438 0.962 . S
H452 C438 0.960 . S
H453 C439 0.961 . S
H454 C439 0.961 . S
H455 C439 0.961 . S
H456 C440 0.931 1_655 S
H457 C445 0.930 . S
H458 C446 0.956 . S
H459 C446 0.961 . S
H460 C446 0.961 . S
H461 C447 0.958 . S
H462 C447 0.961 . S
H463 C447 0.960 . S
C464 C465 1.391 1_565 S
C464 C466 1.394 . S
C464 H480 0.931 . S
C465 C464 1.391 1_545 S
C465 C469 1.376 . S
C466 C464 1.394 . S
C466 C467 1.369 . S
C466 C470 1.531 . S
C467 C466 1.369 . S
C467 C468 1.410 . S
C467 C475 1.503 . S
C468 C467 1.410 . S
C468 C469 1.392 1_565 S
C468 C471 1.511 . S
C469 C465 1.376 . S
C469 C468 1.392 1_545 S
C469 H481 0.929 . S
C470 C466 1.531 . S
C470 H482 0.960 . S
C470 H483 0.962 . S
C470 H484 0.960 . S
C471 C468 1.511 . S
C471 H485 0.961 . S
C471 H486 0.961 . S
C471 H487 0.961 . S
C472 C473 1.370 . S
C472 C474 1.363 . S
C472 H488 0.931 . S
C473 C472 1.370 . S
C473 C477 1.408 . S
C474 C472 1.363 . S
C474 C475 1.370 . S
C474 C478 1.524 . S
C475 C467 1.503 . S
C475 C474 1.370 . S
C475 C476 1.403 . S
C476 C475 1.403 . S
C476 C477 1.404 . S
C476 C479 1.539 . S
C477 C473 1.408 . S
C477 C476 1.404 . S
C477 H489 0.930 . S
C478 C474 1.524 . S
C478 H490 0.956 . S
C478 H491 0.961 . S
C478 H492 0.961 . S
C479 C476 1.539 . S
C479 H493 0.958 . S
C479 H494 0.961 . S
C479 H495 0.960 . S
H480 C464 0.931 . S
H481 C469 0.929 . S
H482 C470 0.960 . S
H483 C470 0.962 . S
H484 C470 0.960 . S
H485 C471 0.961 . S
H486 C471 0.961 . S
H487 C471 0.961 . S
H488 C472 0.931 . S
H489 C477 0.930 . S
H490 C478 0.956 . S
H491 C478 0.961 . S
H492 C478 0.961 . S
H493 C479 0.958 . S
H494 C479 0.961 . S
H495 C479 0.960 . S
C496 C497 1.391 . S
C496 C498 1.394 . S
C496 H512 0.931 . S
C497 C496 1.391 . S
C497 C501 1.376 . S
C498 C496 1.394 . S
C498 C499 1.369 . S
C498 C502 1.531 . S
C499 C498 1.369 . S
C499 C500 1.410 . S
C499 C507 1.503 . S
C500 C499 1.410 . S
C500 C501 1.392 . S
C500 C503 1.511 . S
C501 C497 1.376 . S
C501 C500 1.392 . S
C501 H513 0.929 . S
C502 C498 1.531 . S
C502 H514 0.960 . S
C502 H515 0.962 . S
C502 H516 0.960 . S
C503 C500 1.511 . S
C503 H517 0.961 . S
C503 H518 0.961 . S
C503 H519 0.961 . S
C504 C505 1.370 1_655 S
C504 C506 1.363 . S
C504 H520 0.931 . S
C505 C504 1.370 1_455 S
C505 C509 1.408 1_455 S
C506 C504 1.363 . S
C506 C507 1.370 . S
C506 C510 1.524 . S
C507 C499 1.503 . S
C507 C506 1.370 . S
C507 C508 1.403 . S
C508 C507 1.403 . S
C508 C509 1.404 . S
C508 C511 1.539 . S
C509 C505 1.408 1_655 S
C509 C508 1.404 . S
C509 H521 0.930 1_655 S
C510 C506 1.524 . S
C510 H522 0.956 . S
C510 H523 0.961 . S
C510 H524 0.961 . S
C511 C508 1.539 . S
C511 H525 0.958 . S
C511 H526 0.961 . S
C511 H527 0.960 . S
H512 C496 0.931 . S
H513 C501 0.929 . S
H514 C502 0.960 . S
H515 C502 0.962 . S
H516 C502 0.960 . S
H517 C503 0.961 . S
H518 C503 0.961 . S
H519 C503 0.961 . S
H520 C504 0.931 . S
H521 C509 0.930 1_455 S
H522 C510 0.956 . S
H523 C510 0.961 . S
H524 C510 0.961 . S
H525 C511 0.958 . S
H526 C511 0.961 . S
H527 C511 0.960 . S
C528 C529 1.391 . S
C528 C530 1.394 . S
C528 H544 0.931 . S
C529 C528 1.391 . S
C529 C533 1.376 . S
C530 C528 1.394 . S
C530 C531 1.369 . S
C530 C534 1.531 . S
C531 C530 1.369 . S
C531 C532 1.410 . S
C531 C539 1.503 . S
C532 C531 1.410 . S
C532 C533 1.392 . S
C532 C535 1.511 . S
C533 C529 1.376 . S
C533 C532 1.392 . S
C533 H545 0.929 . S
C534 C530 1.531 . S
C534 H546 0.960 . S
C534 H547 0.962 . S
C534 H548 0.960 . S
C535 C532 1.511 . S
C535 H549 0.961 . S
C535 H550 0.961 . S
C535 H551 0.961 . S
C536 C537 1.370 . S
C536 C538 1.363 . S
C536 H552 0.931 . S
C537 C536 1.370 . S
C537 C541 1.408 . S
C538 C536 1.363 . S
C538 C539 1.370 . S
C538 C542 1.524 . S
C539 C531 1.503 . S
C539 C538 1.370 . S
C539 C540 1.403 . S
C540 C539 1.403 . S
C540 C541 1.404 . S
C540 C543 1.539 . S
C541 C537 1.408 . S
C541 C540 1.404 . S
C541 H553 0.930 . S
C542 C538 1.524 . S
C542 H554 0.956 . S
C542 H555 0.961 . S
C542 H556 0.961 . S
C543 C540 1.539 . S
C543 H557 0.958 . S
C543 H558 0.961 . S
C543 H559 0.960 . S
H544 C528 0.931 . S
H545 C533 0.929 . S
H546 C534 0.960 . S
H547 C534 0.962 . S
H548 C534 0.960 . S
H549 C535 0.961 . S
H550 C535 0.961 . S
H551 C535 0.961 . S
H552 C536 0.931 . S
H553 C541 0.930 . S
H554 C542 0.956 . S
H555 C542 0.961 . S
H556 C542 0.961 . S
H557 C543 0.958 . S
H558 C543 0.961 . S
H559 C543 0.960 . S
C560 C561 1.391 . S
C560 C562 1.394 . S
C560 H576 0.931 . S
C561 C560 1.391 . S
C561 C565 1.376 . S
C562 C560 1.394 . S
C562 C563 1.369 . S
C562 C566 1.531 . S
C563 C562 1.369 . S
C563 C564 1.410 . S
C563 C571 1.503 . S
C564 C563 1.410 . S
C564 C565 1.392 . S
C564 C567 1.511 . S
C565 C561 1.376 . S
C565 C564 1.392 . S
C565 H577 0.929 . S
C566 C562 1.531 . S
C566 H578 0.960 . S
C566 H579 0.962 . S
C566 H580 0.960 . S
C567 C564 1.511 . S
C567 H581 0.961 . S
C567 H582 0.961 . S
C567 H583 0.961 . S
C568 C569 1.370 . S
C568 C570 1.363 . S
C568 H584 0.931 . S
C569 C568 1.370 . S
C569 C573 1.408 . S
C570 C568 1.363 . S
C570 C571 1.370 . S
C570 C574 1.524 . S
C571 C563 1.503 . S
C571 C570 1.370 . S
C571 C572 1.403 . S
C572 C571 1.403 . S
C572 C573 1.404 . S
C572 C575 1.539 . S
C573 C569 1.408 . S
C573 C572 1.404 . S
C573 H585 0.930 . S
C574 C570 1.524 . S
C574 H586 0.956 . S
C574 H587 0.961 . S
C574 H588 0.961 . S
C575 C572 1.539 . S
C575 H589 0.958 . S
C575 H590 0.961 . S
C575 H591 0.960 . S
H576 C560 0.931 . S
H577 C565 0.929 . S
H578 C566 0.960 . S
H579 C566 0.962 . S
H580 C566 0.960 . S
H581 C567 0.961 . S
H582 C567 0.961 . S
H583 C567 0.961 . S
H584 C568 0.931 . S
H585 C573 0.930 . S
H586 C574 0.956 . S
H587 C574 0.961 . S
H588 C574 0.961 . S
H589 C575 0.958 . S
H590 C575 0.961 . S
H591 C575 0.960 . S
C592 C593 1.391 . S
C592 C594 1.394 . S
C592 H608 0.931 . S
C593 C592 1.391 . S
C593 C597 1.376 . S
C594 C592 1.394 . S
C594 C595 1.369 . S
C594 C598 1.531 . S
C595 C594 1.369 . S
C595 C596 1.410 . S
C595 C603 1.503 . S
C596 C595 1.410 . S
C596 C597 1.392 . S
C596 C599 1.511 . S
C597 C593 1.376 . S
C597 C596 1.392 . S
C597 H609 0.929 . S
C598 C594 1.531 . S
C598 H610 0.960 . S
C598 H611 0.962 . S
C598 H612 0.960 . S
C599 C596 1.511 . S
C599 H613 0.961 . S
C599 H614 0.961 . S
C599 H615 0.961 . S
C600 C601 1.370 . S
C600 C602 1.363 . S
C600 H616 0.931 . S
C601 C600 1.370 . S
C601 C605 1.408 . S
C602 C600 1.363 . S
C602 C603 1.370 . S
C602 C606 1.524 . S
C603 C595 1.503 . S
C603 C602 1.370 . S
C603 C604 1.403 . S
C604 C603 1.403 . S
C604 C605 1.404 . S
C604 C607 1.539 . S
C605 C601 1.408 . S
C605 C604 1.404 . S
C605 H617 0.930 . S
C606 C602 1.524 . S
C606 H618 0.956 . S
C606 H619 0.961 . S
C606 H620 0.961 . S
C607 C604 1.539 . S
C607 H621 0.958 . S
C607 H622 0.961 . S
C607 H623 0.960 . S
H608 C592 0.931 . S
H609 C597 0.929 . S
H610 C598 0.960 . S
H611 C598 0.962 . S
H612 C598 0.960 . S
H613 C599 0.961 . S
H614 C599 0.961 . S
H615 C599 0.961 . S
H616 C600 0.931 . S
H617 C605 0.930 . S
H618 C606 0.956 . S
H619 C606 0.961 . S
H620 C606 0.961 . S
H621 C607 0.958 . S
H622 C607 0.961 . S
H623 C607 0.960 . S
C624 C625 1.391 . S
C624 C626 1.394 . S
C624 H640 0.931 . S
C625 C624 1.391 . S
C625 C629 1.376 . S
C626 C624 1.394 . S
C626 C627 1.369 . S
C626 C630 1.531 . S
C627 C626 1.369 . S
C627 C628 1.410 . S
C627 C635 1.503 . S
C628 C627 1.410 . S
C628 C629 1.392 . S
C628 C631 1.511 . S
C629 C625 1.376 . S
C629 C628 1.392 . S
C629 H641 0.929 . S
C630 C626 1.531 . S
C630 H642 0.960 . S
C630 H643 0.962 . S
C630 H644 0.960 . S
C631 C628 1.511 . S
C631 H645 0.961 . S
C631 H646 0.961 . S
C631 H647 0.961 . S
C632 C633 1.370 . S
C632 C634 1.363 . S
C632 H648 0.931 . S
C633 C632 1.370 . S
C633 C637 1.408 . S
C634 C632 1.363 . S
C634 C635 1.370 . S
C634 C638 1.524 . S
C635 C627 1.503 . S
C635 C634 1.370 . S
C635 C636 1.403 . S
C636 C635 1.403 . S
C636 C637 1.404 . S
C636 C639 1.539 . S
C637 C633 1.408 . S
C637 C636 1.404 . S
C637 H649 0.930 . S
C638 C634 1.524 . S
C638 H650 0.956 . S
C638 H651 0.961 . S
C638 H652 0.961 . S
C639 C636 1.539 . S
C639 H653 0.958 . S
C639 H654 0.961 . S
C639 H655 0.960 . S
H640 C624 0.931 . S
H641 C629 0.929 . S
H642 C630 0.960 . S
H643 C630 0.962 . S
H644 C630 0.960 . S
H645 C631 0.961 . S
H646 C631 0.961 . S
H647 C631 0.961 . S
H648 C632 0.931 . S
H649 C637 0.930 . S
H650 C638 0.956 . S
H651 C638 0.961 . S
H652 C638 0.961 . S
H653 C639 0.958 . S
H654 C639 0.961 . S
H655 C639 0.960 . S
C656 C657 1.391 . S
C656 C658 1.394 . S
C656 H672 0.931 . S
C657 C656 1.391 . S
C657 C661 1.376 . S
C658 C656 1.394 . S
C658 C659 1.369 . S
C658 C662 1.531 . S
C659 C658 1.369 . S
C659 C660 1.410 . S
C659 C667 1.503 . S
C660 C659 1.410 . S
C660 C661 1.392 . S
C660 C663 1.511 . S
C661 C657 1.376 . S
C661 C660 1.392 . S
C661 H673 0.929 . S
C662 C658 1.531 . S
C662 H674 0.960 . S
C662 H675 0.962 . S
C662 H676 0.960 . S
C663 C660 1.511 . S
C663 H677 0.961 . S
C663 H678 0.961 . S
C663 H679 0.961 . S
C664 C665 1.370 . S
C664 C666 1.363 . S
C664 H680 0.931 . S
C665 C664 1.370 . S
C665 C669 1.408 . S
C666 C664 1.363 . S
C666 C667 1.370 . S
C666 C670 1.524 . S
C667 C659 1.503 . S
C667 C666 1.370 . S
C667 C668 1.403 . S
C668 C667 1.403 . S
C668 C669 1.404 . S
C668 C671 1.539 . S
C669 C665 1.408 . S
C669 C668 1.404 . S
C669 H681 0.930 . S
C670 C666 1.524 . S
C670 H682 0.956 . S
C670 H683 0.961 . S
C670 H684 0.961 . S
C671 C668 1.539 . S
C671 H685 0.958 . S
C671 H686 0.961 . S
C671 H687 0.960 . S
H672 C656 0.931 . S
H673 C661 0.929 . S
H674 C662 0.960 . S
H675 C662 0.962 . S
H676 C662 0.960 . S
H677 C663 0.961 . S
H678 C663 0.961 . S
H679 C663 0.961 . S
H680 C664 0.931 . S
H681 C669 0.930 . S
H682 C670 0.956 . S
H683 C670 0.961 . S
H684 C670 0.961 . S
H685 C671 0.958 . S
H686 C671 0.961 . S
H687 C671 0.960 . S
C688 C689 1.391 . S
C688 C690 1.394 . S
C688 H704 0.931 . S
C689 C688 1.391 . S
C689 C693 1.376 . S
C690 C688 1.394 . S
C690 C691 1.369 . S
C690 C694 1.531 . S
C691 C690 1.369 . S
C691 C692 1.410 . S
C691 C699 1.503 . S
C692 C691 1.410 . S
C692 C693 1.392 . S
C692 C695 1.511 . S
C693 C689 1.376 . S
C693 C692 1.392 . S
C693 H705 0.929 . S
C694 C690 1.531 . S
C694 H706 0.960 . S
C694 H707 0.962 . S
C694 H708 0.960 . S
C695 C692 1.511 . S
C695 H709 0.961 . S
C695 H710 0.961 . S
C695 H711 0.961 . S
C696 C697 1.370 . S
C696 C698 1.363 . S
C696 H712 0.931 . S
C697 C696 1.370 . S
C697 C701 1.408 . S
C698 C696 1.363 . S
C698 C699 1.370 . S
C698 C702 1.524 . S
C699 C691 1.503 . S
C699 C698 1.370 . S
C699 C700 1.403 . S
C700 C699 1.403 . S
C700 C701 1.404 . S
C700 C703 1.539 . S
C701 C697 1.408 . S
C701 C700 1.404 . S
C701 H713 0.930 . S
C702 C698 1.524 . S
C702 H714 0.956 . S
C702 H715 0.961 . S
C702 H716 0.961 . S
C703 C700 1.539 . S
C703 H717 0.958 . S
C703 H718 0.961 . S
C703 H719 0.960 . S
H704 C688 0.931 . S
H705 C693 0.929 . S
H706 C694 0.960 . S
H707 C694 0.962 . S
H708 C694 0.960 . S
H709 C695 0.961 . S
H710 C695 0.961 . S
H711 C695 0.961 . S
H712 C696 0.931 . S
H713 C701 0.930 . S
H714 C702 0.956 . S
H715 C702 0.961 . S
H716 C702 0.961 . S
H717 C703 0.958 . S
H718 C703 0.961 . S
H719 C703 0.960 . S
C720 C721 1.391 . S
C720 C722 1.394 . S
C720 H736 0.931 . S
C721 C720 1.391 . S
C721 C725 1.376 . S
C722 C720 1.394 . S
C722 C723 1.369 . S
C722 C726 1.531 . S
C723 C722 1.369 . S
C723 C724 1.410 . S
C723 C731 1.503 . S
C724 C723 1.410 . S
C724 C725 1.392 . S
C724 C727 1.511 . S
C725 C721 1.376 . S
C725 C724 1.392 . S
C725 H737 0.929 . S
C726 C722 1.531 . S
C726 H738 0.960 . S
C726 H739 0.962 . S
C726 H740 0.960 . S
C727 C724 1.511 . S
C727 H741 0.961 . S
C727 H742 0.961 . S
C727 H743 0.961 . S
C728 C729 1.370 . S
C728 C730 1.363 . S
C728 H744 0.931 . S
C729 C728 1.370 . S
C729 C733 1.408 . S
C730 C728 1.363 . S
C730 C731 1.370 . S
C730 C734 1.524 . S
C731 C723 1.503 . S
C731 C730 1.370 . S
C731 C732 1.403 . S
C732 C731 1.403 . S
C732 C733 1.404 . S
C732 C735 1.539 . S
C733 C729 1.408 . S
C733 C732 1.404 . S
C733 H745 0.930 . S
C734 C730 1.524 . S
C734 H746 0.956 . S
C734 H747 0.961 . S
C734 H748 0.961 . S
C735 C732 1.539 . S
C735 H749 0.958 . S
C735 H750 0.961 . S
C735 H751 0.960 . S
H736 C720 0.931 . S
H737 C725 0.929 . S
H738 C726 0.960 . S
H739 C726 0.962 . S
H740 C726 0.960 . S
H741 C727 0.961 . S
H742 C727 0.961 . S
H743 C727 0.961 . S
H744 C728 0.931 . S
H745 C733 0.930 . S
H746 C734 0.956 . S
H747 C734 0.961 . S
H748 C734 0.961 . S
H749 C735 0.958 . S
H750 C735 0.961 . S
H751 C735 0.960 . S
C752 C753 1.391 . S
C752 C754 1.394 . S
C752 H768 0.931 . S
C753 C752 1.391 . S
C753 C757 1.376 . S
C754 C752 1.394 . S
C754 C755 1.369 . S
C754 C758 1.531 . S
C755 C754 1.369 . S
C755 C756 1.410 . S
C755 C763 1.503 . S
C756 C755 1.410 . S
C756 C757 1.392 . S
C756 C759 1.511 . S
C757 C753 1.376 . S
C757 C756 1.392 . S
C757 H769 0.929 . S
C758 C754 1.531 . S
C758 H770 0.960 . S
C758 H771 0.962 . S
C758 H772 0.960 . S
C759 C756 1.511 . S
C759 H773 0.961 . S
C759 H774 0.961 . S
C759 H775 0.961 . S
C760 C761 1.370 . S
C760 C762 1.363 . S
C760 H776 0.931 . S
C761 C760 1.370 . S
C761 C765 1.408 . S
C762 C760 1.363 . S
C762 C763 1.370 . S
C762 C766 1.524 . S
C763 C755 1.503 . S
C763 C762 1.370 . S
C763 C764 1.403 . S
C764 C763 1.403 . S
C764 C765 1.404 . S
C764 C767 1.539 . S
C765 C761 1.408 . S
C765 C764 1.404 . S
C765 H777 0.930 . S
C766 C762 1.524 . S
C766 H778 0.956 . S
C766 H779 0.961 . S
C766 H780 0.961 . S
C767 C764 1.539 . S
C767 H781 0.958 . S
C767 H782 0.961 . S
C767 H783 0.960 . S
H768 C752 0.931 . S
H769 C757 0.929 . S
H770 C758 0.960 . S
H771 C758 0.962 . S
H772 C758 0.960 . S
H773 C759 0.961 . S
H774 C759 0.961 . S
H775 C759 0.961 . S
H776 C760 0.931 . S
H777 C765 0.930 . S
H778 C766 0.956 . S
H779 C766 0.961 . S
H780 C766 0.961 . S
H781 C767 0.958 . S
H782 C767 0.961 . S
H783 C767 0.960 . S
C784 C785 1.391 . S
C784 C786 1.394 . S
C784 H800 0.931 . S
C785 C784 1.391 . S
C785 C789 1.376 . S
C786 C784 1.394 . S
C786 C787 1.369 . S
C786 C790 1.531 1_545 S
C787 C786 1.369 . S
C787 C788 1.410 . S
C787 C795 1.503 1_445 S
C788 C787 1.410 . S
C788 C789 1.392 . S
C788 C791 1.511 1_455 S
C789 C785 1.376 . S
C789 C788 1.392 . S
C789 H801 0.929 . S
C790 C786 1.531 1_565 S
C790 H802 0.960 . S
C790 H803 0.962 . S
C790 H804 0.960 . S
C791 C788 1.511 1_655 S
C791 H805 0.961 . S
C791 H806 0.961 . S
C791 H807 0.961 . S
C792 C793 1.370 . S
C792 C794 1.363 . S
C792 H808 0.931 . S
C793 C792 1.370 . S
C793 C797 1.408 . S
C794 C792 1.363 . S
C794 C795 1.370 . S
C794 C798 1.524 1_655 S
C795 C787 1.503 1_665 S
C795 C794 1.370 . S
C795 C796 1.403 . S
C796 C795 1.403 . S
C796 C797 1.404 . S
C796 C799 1.539 . S
C797 C793 1.408 . S
C797 C796 1.404 . S
C797 H809 0.930 . S
C798 C794 1.524 1_455 S
C798 H810 0.957 . S
C798 H811 0.961 1_465 S
C798 H812 0.960 1_455 S
C799 C796 1.539 . S
C799 H813 0.958 . S
C799 H814 0.961 . S
C799 H815 0.960 1_565 S
H800 C784 0.931 . S
H801 C789 0.929 . S
H802 C790 0.960 . S
H803 C790 0.962 . S
H804 C790 0.960 . S
H805 C791 0.961 . S
H806 C791 0.961 . S
H807 C791 0.961 . S
H808 C792 0.931 . S
H809 C797 0.930 . S
H810 C798 0.957 . S
H811 C798 0.961 1_645 S
H812 C798 0.960 1_655 S
H813 C799 0.958 . S
H814 C799 0.961 . S
H815 C799 0.960 1_545 S
C816 C817 1.391 . S
C816 C818 1.394 . S
C816 H832 0.931 . S
C817 C816 1.391 . S
C817 C821 1.376 . S
C818 C816 1.394 . S
C818 C819 1.369 . S
C818 C822 1.531 1_545 S
C819 C818 1.369 . S
C819 C820 1.410 . S
C819 C827 1.503 1_645 S
C820 C819 1.410 . S
C820 C821 1.392 . S
C820 C823 1.511 1_655 S
C821 C817 1.376 . S
C821 C820 1.392 . S
C821 H833 0.929 . S
C822 C818 1.531 1_565 S
C822 H834 0.960 . S
C822 H835 0.962 . S
C822 H836 0.960 . S
C823 C820 1.511 1_455 S
C823 H837 0.961 . S
C823 H838 0.961 . S
C823 H839 0.961 . S
C824 C825 1.370 . S
C824 C826 1.363 . S
C824 H840 0.931 . S
C825 C824 1.370 . S
C825 C829 1.408 . S
C826 C824 1.363 . S
C826 C827 1.370 . S
C826 C830 1.524 . S
C827 C819 1.503 1_465 S
C827 C826 1.370 . S
C827 C828 1.403 . S
C828 C827 1.403 . S
C828 C829 1.404 . S
C828 C831 1.539 . S
C829 C825 1.408 . S
C829 C828 1.404 . S
C829 H841 0.930 . S
C830 C826 1.524 . S
C830 H842 0.956 1_455 S
C830 H843 0.961 1_565 S
C830 H844 0.961 . S
C831 C828 1.539 . S
C831 H845 0.958 . S
C831 H846 0.961 . S
C831 H847 0.960 1_565 S
H832 C816 0.931 . S
H833 C821 0.929 . S
H834 C822 0.960 . S
H835 C822 0.962 . S
H836 C822 0.960 . S
H837 C823 0.961 . S
H838 C823 0.961 . S
H839 C823 0.961 . S
H840 C824 0.931 . S
H841 C829 0.930 . S
H842 C830 0.956 1_655 S
H843 C830 0.961 1_545 S
H844 C830 0.961 . S
H845 C831 0.958 . S
H846 C831 0.961 . S
H847 C831 0.960 1_545 S
C848 C849 1.391 . S
C848 C850 1.394 . S
C848 H864 0.931 . S
C849 C848 1.391 . S
C849 C853 1.376 . S
C850 C848 1.394 . S
C850 C851 1.369 . S
C850 C854 1.531 . S
C851 C850 1.369 . S
C851 C852 1.410 . S
C851 C859 1.503 . S
C852 C851 1.410 . S
C852 C853 1.392 . S
C852 C855 1.511 . S
C853 C849 1.376 . S
C853 C852 1.392 . S
C853 H865 0.929 . S
C854 C850 1.531 . S
C854 H866 0.960 . S
C854 H867 0.962 . S
C854 H868 0.960 . S
C855 C852 1.511 . S
C855 H869 0.961 . S
C855 H870 0.961 . S
C855 H871 0.961 . S
C856 C857 1.370 . S
C856 C858 1.363 . S
C856 H872 0.931 . S
C857 C856 1.370 . S
C857 C861 1.408 . S
C858 C856 1.363 . S
C858 C859 1.370 . S
C858 C862 1.524 . S
C859 C851 1.503 . S
C859 C858 1.370 . S
C859 C860 1.403 . S
C860 C859 1.403 . S
C860 C861 1.404 . S
C860 C863 1.539 . S
C861 C857 1.408 . S
C861 C860 1.404 . S
C861 H873 0.930 . S
C862 C858 1.524 . S
C862 H874 0.956 . S
C862 H875 0.961 . S
C862 H876 0.961 . S
C863 C860 1.539 . S
C863 H877 0.958 . S
C863 H878 0.961 . S
C863 H879 0.960 . S
H864 C848 0.931 . S
H865 C853 0.929 . S
H866 C854 0.960 . S
H867 C854 0.962 . S
H868 C854 0.960 . S
H869 C855 0.961 . S
H870 C855 0.961 . S
H871 C855 0.961 . S
H872 C856 0.931 . S
H873 C861 0.930 . S
H874 C862 0.956 . S
H875 C862 0.961 . S
H876 C862 0.961 . S
H877 C863 0.958 . S
H878 C863 0.961 . S
H879 C863 0.960 . S
C880 C881 1.391 . S
C880 C882 1.394 . S
C880 H896 0.931 . S
C881 C880 1.391 . S
C881 C885 1.376 . S
C882 C880 1.394 . S
C882 C883 1.369 . S
C882 C886 1.531 . S
C883 C882 1.369 . S
C883 C884 1.410 . S
C883 C891 1.503 . S
C884 C883 1.410 . S
C884 C885 1.392 . S
C884 C887 1.511 . S
C885 C881 1.376 . S
C885 C884 1.392 . S
C885 H897 0.929 . S
C886 C882 1.531 . S
C886 H898 0.960 . S
C886 H899 0.962 . S
C886 H900 0.960 . S
C887 C884 1.511 . S
C887 H901 0.961 . S
C887 H902 0.961 . S
C887 H903 0.961 . S
C888 C889 1.370 . S
C888 C890 1.363 . S
C888 H904 0.931 . S
C889 C888 1.370 . S
C889 C893 1.408 . S
C890 C888 1.363 . S
C890 C891 1.370 . S
C890 C894 1.524 . S
C891 C883 1.503 . S
C891 C890 1.370 . S
C891 C892 1.403 . S
C892 C891 1.403 . S
C892 C893 1.404 . S
C892 C895 1.539 . S
C893 C889 1.408 . S
C893 C892 1.404 . S
C893 H905 0.930 . S
C894 C890 1.524 . S
C894 H906 0.956 . S
C894 H907 0.961 . S
C894 H908 0.961 . S
C895 C892 1.539 . S
C895 H909 0.958 . S
C895 H910 0.961 . S
C895 H911 0.960 . S
H896 C880 0.931 . S
H897 C885 0.929 . S
H898 C886 0.960 . S
H899 C886 0.962 . S
H900 C886 0.960 . S
H901 C887 0.961 . S
H902 C887 0.961 . S
H903 C887 0.961 . S
H904 C888 0.931 . S
H905 C893 0.930 . S
H906 C894 0.956 . S
H907 C894 0.961 . S
H908 C894 0.961 . S
H909 C895 0.958 . S
H910 C895 0.961 . S
H911 C895 0.960 . S
C912 C913 1.391 . S
C912 C914 1.394 . S
C912 H928 0.931 . S
C913 C912 1.391 . S
C913 C917 1.376 . S
C914 C912 1.394 . S
C914 C915 1.369 . S
C914 C918 1.531 1_545 S
C915 C914 1.369 . S
C915 C916 1.410 . S
C915 C923 1.503 1_544 S
C916 C915 1.410 . S
C916 C917 1.392 . S
C916 C919 1.511 1_554 S
C917 C913 1.376 . S
C917 C916 1.392 . S
C917 H929 0.929 . S
C918 C914 1.531 1_565 S
C918 H930 0.960 . S
C918 H931 0.962 . S
C918 H932 0.960 . S
C919 C916 1.511 1_556 S
C919 H933 0.961 . S
C919 H934 0.961 . S
C919 H935 0.961 1_556 S
C920 C921 1.370 . S
C920 C922 1.363 . S
C920 H936 0.931 . S
C921 C920 1.370 . S
C921 C925 1.408 . S
C922 C920 1.363 . S
C922 C923 1.370 . S
C922 C926 1.524 1_565 S
C923 C915 1.503 1_566 S
C923 C922 1.370 . S
C923 C924 1.403 . S
C924 C923 1.403 . S
C924 C925 1.404 . S
C924 C927 1.539 1_556 S
C925 C921 1.408 . S
C925 C924 1.404 . S
C925 H937 0.930 . S
C926 C922 1.524 1_545 S
C926 H938 0.956 . S
C926 H939 0.961 . S
C926 H940 0.961 . S
C927 C924 1.539 1_554 S
C927 H941 0.958 . S
C927 H942 0.961 . S
C927 H943 0.960 . S
H928 C912 0.931 . S
H929 C917 0.929 . S
H930 C918 0.960 . S
H931 C918 0.962 . S
H932 C918 0.960 . S
H933 C919 0.961 . S
H934 C919 0.961 . S
H935 C919 0.961 1_554 S
H936 C920 0.931 . S
H937 C925 0.930 . S
H938 C926 0.956 . S
H939 C926 0.961 . S
H940 C926 0.961 . S
H941 C927 0.958 . S
H942 C927 0.961 . S
H943 C927 0.960 . S
C944 C945 1.391 . S
C944 C946 1.394 . S
C944 H960 0.931 . S
C945 C944 1.391 . S
C945 C949 1.376 . S
C946 C944 1.394 . S
C946 C947 1.369 . S
C946 C950 1.531 1_455 S
C947 C946 1.369 . S
C947 C948 1.410 . S
C947 C955 1.503 1_456 S
C948 C947 1.410 . S
C948 C949 1.392 . S
C948 C951 1.511 1_556 S
C949 C945 1.376 . S
C949 C948 1.392 . S
C949 H961 0.929 . S
C950 C946 1.531 1_655 S
C950 H962 0.960 . S
C950 H963 0.962 . S
C950 H964 0.960 . S
C951 C948 1.511 1_554 S
C951 H965 0.961 . S
C951 H966 0.961 . S
C951 H967 0.961 . S
C952 C953 1.370 . S
C952 C954 1.363 . S
C952 H968 0.931 . S
C953 C952 1.370 . S
C953 C957 1.408 . S
C954 C952 1.363 . S
C954 C955 1.370 . S
C954 C958 1.511 1_554 S
C955 C947 1.503 1_654 S
C955 C954 1.370 . S
C955 C956 1.403 . S
C956 C955 1.403 . S
C956 C957 1.404 . S
C956 C959 1.539 1_655 S
C957 C953 1.408 . S
C957 C956 1.404 . S
C957 H969 0.930 . S
C958 C954 1.511 1_556 S
C958 H970 0.977 . S
C958 H971 0.953 1_655 S
C958 H972 0.952 1_556 S
C959 C956 1.539 1_455 S
C959 H973 0.958 1_455 S
C959 H974 0.961 . S
C959 H975 0.960 . S
H960 C944 0.931 . S
H961 C949 0.929 . S
H962 C950 0.960 . S
H963 C950 0.962 . S
H964 C950 0.960 . S
H965 C951 0.961 . S
H966 C951 0.961 . S
H967 C951 0.961 . S
H968 C952 0.931 . S
H969 C957 0.930 . S
H970 C958 0.977 . S
H971 C958 0.953 1_455 S
H972 C958 0.952 1_554 S
H973 C959 0.958 1_655 S
H974 C959 0.961 . S
H975 C959 0.960 . S
C976 C977 1.391 . S
C976 C978 1.394 . S
C976 H992 0.931 . S
C977 C976 1.391 . S
C977 C981 1.376 . S
C978 C976 1.394 . S
C978 C979 1.369 . S
C978 C982 1.531 1_545 S
C979 C978 1.369 . S
C979 C980 1.410 . S
C979 C987 1.503 1_546 S
C980 C979 1.410 . S
C980 C981 1.392 . S
C980 C983 1.511 1_556 S
C981 C977 1.376 . S
C981 C980 1.392 . S
C981 H993 0.929 . S
C982 C978 1.531 1_565 S
C982 H994 0.960 . S
C982 H995 0.962 . S
C982 H996 0.960 . S
C983 C980 1.511 1_554 S
C983 H997 0.961 . S
C983 H998 0.961 . S
C983 H999 0.963 . S
C984 C985 1.370 . S
C984 C986 1.363 . S
C984 H1000 0.931 . S
C985 C984 1.370 . S
C985 C989 1.408 . S
C986 C984 1.363 . S
C986 C987 1.370 . S
C986 C990 1.524 1_565 S
C987 C979 1.503 1_564 S
C987 C986 1.370 . S
C987 C988 1.403 . S
C988 C987 1.403 . S
C988 C989 1.404 . S
C988 C991 1.539 1_554 S
C989 C985 1.408 . S
C989 C988 1.404 . S
C989 H1001 0.930 . S
C990 C986 1.524 1_545 S
C990 H1002 0.956 . S
C990 H1003 0.961 . S
C990 H1004 0.961 . S
C991 C988 1.539 1_556 S
C991 H1005 0.958 . S
C991 H1006 0.961 . S
C991 H1007 0.960 . S
H992 C976 0.931 . S
H993 C981 0.929 . S
H994 C982 0.960 . S
H995 C982 0.962 . S
H996 C982 0.960 . S
H997 C983 0.961 . S
H998 C983 0.961 . S
H999 C983 0.963 . S
H1000 C984 0.931 . S
H1001 C989 0.930 . S
H1002 C990 0.956 . S
H1003 C990 0.961 . S
H1004 C990 0.961 . S
H1005 C991 0.958 . S
H1006 C991 0.961 . S
H1007 C991 0.960 . S
C1008 C1009 1.391 . S
C1008 C1010 1.394 . S
C1008 H1024 0.931 . S
C1009 C1008 1.391 . S
C1009 C1013 1.376 . S
C1010 C1008 1.394 . S
C1010 C1011 1.369 . S
C1010 C1014 1.531 1_455 S
C1011 C1010 1.369 . S
C1011 C1012 1.410 . S
C1011 C1019 1.503 1_454 S
C1012 C1011 1.410 . S
C1012 C1013 1.392 . S
C1012 C1015 1.511 1_554 S
C1013 C1009 1.376 . S
C1013 C1012 1.392 . S
C1013 H1025 0.929 . S
C1014 C1010 1.531 1_655 S
C1014 H1026 0.960 . S
C1014 H1027 0.962 . S
C1014 H1028 0.960 . S
C1015 C1012 1.511 1_556 S
C1015 H1029 0.961 . S
C1015 H1030 0.961 . S
C1015 H1031 0.961 . S
C1016 C1017 1.370 . S
C1016 C1018 1.363 . S
C1016 H1032 0.931 . S
C1017 C1016 1.370 . S
C1017 C1021 1.408 . S
C1018 C1016 1.363 . S
C1018 C1019 1.370 . S
C1018 C1022 1.524 1_556 S
C1019 C1011 1.503 1_656 S
C1019 C1018 1.370 . S
C1019 C1020 1.403 . S
C1020 C1019 1.403 . S
C1020 C1021 1.404 . S
C1020 C1023 1.539 1_655 S
C1021 C1017 1.408 . S
C1021 C1020 1.404 . S
C1021 H1033 0.930 . S
C1022 C1018 1.524 1_554 S
C1022 H1034 0.956 . S
C1022 H1035 0.959 . S
C1022 H1036 0.961 1_554 S
C1023 C1020 1.539 1_455 S
C1023 H1037 0.958 1_455 S
C1023 H1038 0.961 . S
C1023 H1039 0.960 . S
H1024 C1008 0.931 . S
H1025 C1013 0.929 . S
H1026 C1014 0.960 . S
H1027 C1014 0.962 . S
H1028 C1014 0.960 . S
H1029 C1015 0.961 . S
H1030 C1015 0.961 . S
H1031 C1015 0.961 . S
H1032 C1016 0.931 . S
H1033 C1021 0.930 . S
H1034 C1022 0.956 . S
H1035 C1022 0.959 . S
H1036 C1022 0.961 1_556 S
H1037 C1023 0.958 1_655 S
H1038 C1023 0.961 . S
H1039 C1023 0.960 . S
C1040 C1041 1.391 . S
C1040 C1042 1.394 . S
C1040 H1056 0.931 . S
C1041 C1040 1.391 . S
C1041 C1045 1.376 . S
C1042 C1040 1.394 . S
C1042 C1043 1.369 . S
C1042 C1046 1.531 . S
C1043 C1042 1.369 . S
C1043 C1044 1.410 . S
C1043 C1051 1.503 . S
C1044 C1043 1.410 . S
C1044 C1045 1.392 . S
C1044 C1047 1.511 . S
C1045 C1041 1.376 . S
C1045 C1044 1.392 . S
C1045 H1057 0.929 . S
C1046 C1042 1.531 . S
C1046 H1058 0.960 . S
C1046 H1059 0.962 . S
C1046 H1060 0.960 . S
C1047 C1044 1.511 . S
C1047 H1061 0.961 . S
C1047 H1062 0.961 . S
C1047 H1063 0.961 . S
C1048 C1049 1.370 . S
C1048 C1050 1.363 . S
C1048 H1064 0.931 . S
C1049 C1048 1.370 . S
C1049 C1053 1.408 . S
C1050 C1048 1.363 . S
C1050 C1051 1.370 . S
C1050 C1054 1.524 . S
C1051 C1043 1.503 . S
C1051 C1050 1.370 . S
C1051 C1052 1.403 . S
C1052 C1051 1.403 . S
C1052 C1053 1.404 . S
C1052 C1055 1.539 . S
C1053 C1049 1.408 . S
C1053 C1052 1.404 . S
C1053 H1065 0.930 . S
C1054 C1050 1.524 . S
C1054 H1066 0.956 . S
C1054 H1067 0.961 . S
C1054 H1068 0.961 . S
C1055 C1052 1.539 . S
C1055 H1069 0.958 . S
C1055 H1070 0.961 . S
C1055 H1071 0.960 . S
H1056 C1040 0.931 . S
H1057 C1045 0.929 . S
H1058 C1046 0.960 . S
H1059 C1046 0.962 . S
H1060 C1046 0.960 . S
H1061 C1047 0.961 . S
H1062 C1047 0.961 . S
H1063 C1047 0.961 . S
H1064 C1048 0.931 . S
H1065 C1053 0.930 . S
H1066 C1054 0.956 . S
H1067 C1054 0.961 . S
H1068 C1054 0.961 . S
H1069 C1055 0.958 . S
H1070 C1055 0.961 . S
H1071 C1055 0.960 . S
C1072 C1073 1.391 . S
C1072 C1074 1.394 . S
C1072 H1088 0.931 . S
C1073 C1072 1.391 . S
C1073 C1077 1.376 . S
C1074 C1072 1.394 . S
C1074 C1075 1.369 . S
C1074 C1078 1.531 . S
C1075 C1074 1.369 . S
C1075 C1076 1.410 . S
C1075 C1083 1.503 . S
C1076 C1075 1.410 . S
C1076 C1077 1.392 . S
C1076 C1079 1.511 . S
C1077 C1073 1.376 . S
C1077 C1076 1.392 . S
C1077 H1089 0.929 . S
C1078 C1074 1.531 . S
C1078 H1090 0.960 . S
C1078 H1091 0.962 . S
C1078 H1092 0.960 . S
C1079 C1076 1.511 . S
C1079 H1093 0.961 . S
C1079 H1094 0.961 . S
C1079 H1095 0.961 . S
C1080 C1081 1.370 . S
C1080 C1082 1.363 . S
C1080 H1096 0.931 . S
C1081 C1080 1.370 . S
C1081 C1085 1.408 . S
C1082 C1080 1.363 . S
C1082 C1083 1.370 . S
C1082 C1086 1.524 . S
C1083 C1075 1.503 . S
C1083 C1082 1.370 . S
C1083 C1084 1.403 . S
C1084 C1083 1.403 . S
C1084 C1085 1.404 . S
C1084 C1087 1.539 . S
C1085 C1081 1.408 . S
C1085 C1084 1.404 . S
C1085 H1097 0.930 . S
C1086 C1082 1.524 . S
C1086 H1098 0.956 . S
C1086 H1099 0.961 . S
C1086 H1100 0.961 . S
C1087 C1084 1.539 . S
C1087 H1101 0.958 . S
C1087 H1102 0.961 . S
C1087 H1103 0.960 . S
H1088 C1072 0.931 . S
H1089 C1077 0.929 . S
H1090 C1078 0.960 . S
H1091 C1078 0.962 . S
H1092 C1078 0.960 . S
H1093 C1079 0.961 . S
H1094 C1079 0.961 . S
H1095 C1079 0.961 . S
H1096 C1080 0.931 . S
H1097 C1085 0.930 . S
H1098 C1086 0.956 . S
H1099 C1086 0.961 . S
H1100 C1086 0.961 . S
H1101 C1087 0.958 . S
H1102 C1087 0.961 . S
H1103 C1087 0.960 . S
C1104 C1105 1.391 . S
C1104 C1106 1.394 . S
C1104 H1120 0.931 . S
C1105 C1104 1.391 . S
C1105 C1109 1.376 . S
C1106 C1104 1.394 . S
C1106 C1107 1.369 . S
C1106 C1110 1.531 . S
C1107 C1106 1.369 . S
C1107 C1108 1.410 . S
C1107 C1115 1.503 . S
C1108 C1107 1.410 . S
C1108 C1109 1.392 . S
C1108 C1111 1.511 . S
C1109 C1105 1.376 . S
C1109 C1108 1.392 . S
C1109 H1121 0.929 . S
C1110 C1106 1.531 . S
C1110 H1122 0.960 . S
C1110 H1123 0.962 . S
C1110 H1124 0.960 . S
C1111 C1108 1.511 . S
C1111 H1125 0.961 . S
C1111 H1126 0.961 . S
C1111 H1127 0.961 . S
C1112 C1113 1.370 . S
C1112 C1114 1.363 . S
C1112 H1128 0.931 . S
C1113 C1112 1.370 . S
C1113 C1117 1.408 . S
C1114 C1112 1.363 . S
C1114 C1115 1.370 . S
C1114 C1118 1.524 . S
C1115 C1107 1.503 . S
C1115 C1114 1.370 . S
C1115 C1116 1.403 . S
C1116 C1115 1.403 . S
C1116 C1117 1.404 . S
C1116 C1119 1.539 . S
C1117 C1113 1.408 . S
C1117 C1116 1.404 . S
C1117 H1129 0.930 . S
C1118 C1114 1.524 . S
C1118 H1130 0.956 . S
C1118 H1131 0.961 . S
C1118 H1132 0.961 . S
C1119 C1116 1.539 . S
C1119 H1133 0.958 . S
C1119 H1134 0.961 . S
C1119 H1135 0.960 . S
H1120 C1104 0.931 . S
H1121 C1109 0.929 . S
H1122 C1110 0.960 . S
H1123 C1110 0.962 . S
H1124 C1110 0.960 . S
H1125 C1111 0.961 . S
H1126 C1111 0.961 . S
H1127 C1111 0.961 . S
H1128 C1112 0.931 . S
H1129 C1117 0.930 . S
H1130 C1118 0.956 . S
H1131 C1118 0.961 . S
H1132 C1118 0.961 . S
H1133 C1119 0.958 . S
H1134 C1119 0.961 . S
H1135 C1119 0.960 . S
C1136 C1137 1.391 . S
C1136 C1138 1.394 . S
C1136 H1152 0.931 . S
C1137 C1136 1.391 . S
C1137 C1141 1.376 . S
C1138 C1136 1.394 . S
C1138 C1139 1.369 . S
C1138 C1142 1.531 . S
C1139 C1138 1.369 . S
C1139 C1140 1.410 . S
C1139 C1147 1.503 . S
C1140 C1139 1.410 . S
C1140 C1141 1.392 . S
C1140 C1143 1.511 . S
C1141 C1137 1.376 . S
C1141 C1140 1.392 . S
C1141 H1153 0.929 . S
C1142 C1138 1.531 . S
C1142 H1154 0.960 . S
C1142 H1155 0.962 . S
C1142 H1156 0.960 . S
C1143 C1140 1.511 . S
C1143 H1157 0.961 . S
C1143 H1158 0.961 . S
C1143 H1159 0.961 . S
C1144 C1145 1.370 . S
C1144 C1146 1.363 . S
C1144 H1160 0.931 . S
C1145 C1144 1.370 . S
C1145 C1149 1.408 . S
C1146 C1144 1.363 . S
C1146 C1147 1.370 . S
C1146 C1150 1.524 . S
C1147 C1139 1.503 . S
C1147 C1146 1.370 . S
C1147 C1148 1.403 . S
C1148 C1147 1.403 . S
C1148 C1149 1.404 . S
C1148 C1151 1.539 . S
C1149 C1145 1.408 . S
C1149 C1148 1.404 . S
C1149 H1161 0.930 . S
C1150 C1146 1.524 . S
C1150 H1162 0.956 . S
C1150 H1163 0.961 . S
C1150 H1164 0.961 . S
C1151 C1148 1.539 . S
C1151 H1165 0.958 . S
C1151 H1166 0.961 . S
C1151 H1167 0.960 . S
H1152 C1136 0.931 . S
H1153 C1141 0.929 . S
H1154 C1142 0.960 . S
H1155 C1142 0.962 . S
H1156 C1142 0.960 . S
H1157 C1143 0.961 . S
H1158 C1143 0.961 . S
H1159 C1143 0.961 . S
H1160 C1144 0.931 . S
H1161 C1149 0.930 . S
H1162 C1150 0.956 . S
H1163 C1150 0.961 . S
H1164 C1150 0.961 . S
H1165 C1151 0.958 . S
H1166 C1151 0.961 . S
H1167 C1151 0.960 . S
C273 C28 1.752 . S
C281 C241 1.634 . S
C305 C49 1.281 . S
C313 C137 1.272 . S
C337 C173 1.657 . S
C345 C96 1.745 . S
C369 C117 1.234 . S
C377 C207 1.252 . S
C401 C40 1.733 . S
C409 C205 1.614 . S
C433 C239 1.274 . S
C441 C90 1.274 . S
C465 C108 1.726 . S
C473 C139 1.623 . S
C497 C171 1.297 . S
C505 C22 1.282 . S
C529 C142 1.747 . S
C537 C105 1.638 . S
C561 C3 1.296 . S
C569 C185 1.282 . S
C593 C37 1.645 . S
C601 C232 1.745 . S
C625 C253 1.256 . S
C633 C71 1.255 . S
C657 C176 1.751 . S
C665 C69 1.638 . S
C689 C226 1.301 . S
C697 C103 1.278 . S
C721 C244 1.746 . S
C729 C1 1.626 . S
C753 C35 1.266 . S
C761 C151 1.272 . S
C785 C17 1.629 . S
C793 C85 1.637 . S
C817 C119 1.629 . S
C825 C51 1.637 . S
C849 C153 1.630 . S
C857 C221 1.638 . S
C881 C187 1.639 . S
C889 C255 1.642 . S
C913 C15 0.827 . S
C921 C56 0.787 . S
C945 C62 0.777 . S
C953 C74 0.743 . S
C977 C124 0.824 . S
C985 C83 0.787 . S
C1009 C6 0.776 . S
C1017 C130 0.743 . S
C1041 C192 0.917 . S
C1049 C158 0.840 . S
C1073 C210 0.670 . S
C1081 C198 0.694 . S
C1105 C219 0.868 . S
C1113 C260 0.859 . S
C1137 C164 0.649 . S
C1145 C266 0.690 . S
