# Generated by pormake.
# Topology unb, (4)-cn, num edge types: 1
# Building blocks:
#     Node 0, Type 0, BuildingBlock: NAHDIM_clean_sbu_0, # of connection points: 4
#     Node 1, Type 0, BuildingBlock: NAHDIM_clean_sbu_0, # of connection points: 4
#     Node 2, Type 0, BuildingBlock: NAHDIM_clean_sbu_0, # of connection points: 4
#     Node 3, Type 0, BuildingBlock: NAHDIM_clean_sbu_0, # of connection points: 4
#     Node 4, Type 0, BuildingBlock: NAHDIM_clean_sbu_0, # of connection points: 4
#     Node 5, Type 0, BuildingBlock: NAHDIM_clean_sbu_0, # of connection points: 4
#     Node 6, Type 0, BuildingBlock: NAHDIM_clean_sbu_0, # of connection points: 4
#     Node 7, Type 0, BuildingBlock: NAHDIM_clean_sbu_0, # of connection points: 4
#     Node 8, Type 0, BuildingBlock: NAHDIM_clean_sbu_0, # of connection points: 4
#     Node 9, Type 0, BuildingBlock: NAHDIM_clean_sbu_0, # of connection points: 4
#     Node 10, Type 0, BuildingBlock: NAHDIM_clean_sbu_0, # of connection points: 4
#     Node 11, Type 0, BuildingBlock: NAHDIM_clean_sbu_0, # of connection points: 4
#     Node 12, Type 0, BuildingBlock: NAHDIM_clean_sbu_0, # of connection points: 4
#     Node 13, Type 0, BuildingBlock: NAHDIM_clean_sbu_0, # of connection points: 4
#     Node 14, Type 0, BuildingBlock: NAHDIM_clean_sbu_0, # of connection points: 4
#     Node 15, Type 0, BuildingBlock: NAHDIM_clean_sbu_0, # of connection points: 4
#     Node 16, Type 0, BuildingBlock: NAHDIM_clean_sbu_0, # of connection points: 4
#     Node 17, Type 0, BuildingBlock: NAHDIM_clean_sbu_0, # of connection points: 4
#     Edge 18, Type (0, 0), BuildingBlock: OJICUG_clean_linker_0, # of connection points: 2
#     Edge 19, Type (0, 0), BuildingBlock: OJICUG_clean_linker_0, # of connection points: 2
#     Edge 20, Type (0, 0), BuildingBlock: OJICUG_clean_linker_0, # of connection points: 2
#     Edge 21, Type (0, 0), BuildingBlock: OJICUG_clean_linker_0, # of connection points: 2
#     Edge 22, Type (0, 0), BuildingBlock: OJICUG_clean_linker_0, # of connection points: 2
#     Edge 23, Type (0, 0), BuildingBlock: OJICUG_clean_linker_0, # of connection points: 2
#     Edge 24, Type (0, 0), BuildingBlock: OJICUG_clean_linker_0, # of connection points: 2
#     Edge 25, Type (0, 0), BuildingBlock: OJICUG_clean_linker_0, # of connection points: 2
#     Edge 26, Type (0, 0), BuildingBlock: OJICUG_clean_linker_0, # of connection points: 2
#     Edge 27, Type (0, 0), BuildingBlock: OJICUG_clean_linker_0, # of connection points: 2
#     Edge 28, Type (0, 0), BuildingBlock: OJICUG_clean_linker_0, # of connection points: 2
#     Edge 29, Type (0, 0), BuildingBlock: OJICUG_clean_linker_0, # of connection points: 2
#     Edge 30, Type (0, 0), BuildingBlock: OJICUG_clean_linker_0, # of connection points: 2
#     Edge 31, Type (0, 0), BuildingBlock: OJICUG_clean_linker_0, # of connection points: 2
#     Edge 32, Type (0, 0), BuildingBlock: OJICUG_clean_linker_0, # of connection points: 2
#     Edge 33, Type (0, 0), BuildingBlock: OJICUG_clean_linker_0, # of connection points: 2
#     Edge 34, Type (0, 0), BuildingBlock: OJICUG_clean_linker_0, # of connection points: 2
#     Edge 35, Type (0, 0), BuildingBlock: OJICUG_clean_linker_0, # of connection points: 2
#     Edge 36, Type (0, 0), BuildingBlock: OJICUG_clean_linker_0, # of connection points: 2
#     Edge 37, Type (0, 0), BuildingBlock: OJICUG_clean_linker_0, # of connection points: 2
#     Edge 38, Type (0, 0), BuildingBlock: OJICUG_clean_linker_0, # of connection points: 2
#     Edge 39, Type (0, 0), BuildingBlock: OJICUG_clean_linker_0, # of connection points: 2
#     Edge 40, Type (0, 0), BuildingBlock: OJICUG_clean_linker_0, # of connection points: 2
#     Edge 41, Type (0, 0), BuildingBlock: OJICUG_clean_linker_0, # of connection points: 2
#     Edge 42, Type (0, 0), BuildingBlock: OJICUG_clean_linker_0, # of connection points: 2
#     Edge 43, Type (0, 0), BuildingBlock: OJICUG_clean_linker_0, # of connection points: 2
#     Edge 44, Type (0, 0), BuildingBlock: OJICUG_clean_linker_0, # of connection points: 2
#     Edge 45, Type (0, 0), BuildingBlock: OJICUG_clean_linker_0, # of connection points: 2
#     Edge 46, Type (0, 0), BuildingBlock: OJICUG_clean_linker_0, # of connection points: 2
#     Edge 47, Type (0, 0), BuildingBlock: OJICUG_clean_linker_0, # of connection points: 2
#     Edge 48, Type (0, 0), BuildingBlock: OJICUG_clean_linker_0, # of connection points: 2
#     Edge 49, Type (0, 0), BuildingBlock: OJICUG_clean_linker_0, # of connection points: 2
#     Edge 50, Type (0, 0), BuildingBlock: OJICUG_clean_linker_0, # of connection points: 2
#     Edge 51, Type (0, 0), BuildingBlock: OJICUG_clean_linker_0, # of connection points: 2
#     Edge 52, Type (0, 0), BuildingBlock: OJICUG_clean_linker_0, # of connection points: 2
#     Edge 53, Type (0, 0), BuildingBlock: OJICUG_clean_linker_0, # of connection points: 2
# Relax obj value: 0.064
# Max RMSD: 0.063
# Mean RMSD: 0.063
data_MOF--net-unb--node1-NAHDIM_clean_sbu_0--edge1-OJICUG_clean_linker_0
_symmetry_space_group_name_H-M    P1
_symmetry_Int_Tables_number       1
_symmetry_cell_setting            triclinic
loop_
_symmetry_equiv_pos_as_xyz
'x, y, z'
_cell_length_a     47.406003
_cell_length_b     47.483689
_cell_length_c     18.990378
_cell_angle_alpha  89.717614
_cell_angle_beta   90.146165
_cell_angle_gamma 120.11639
loop_
_atom_site_label
_atom_site_type_symbol
_atom_site_fract_x
_atom_site_fract_y
_atom_site_fract_z
_atom_type_partial_charge
C0 C 0.15545 0.2879 0.16613 0.0
O1 O 0.17463 0.27901 0.13582 0.0
O2 O 0.13128 0.22274 0.04309 0.0
Zn3 Zn 0.11314 0.25304 0.0485 0.0
O4 O 0.06391 0.22677 0.04555 0.0
C5 C 0.15597 0.2881 0.93296 0.0
O6 O 0.17429 0.27792 0.96284 0.0
O7 O 0.12804 0.2798 0.138 0.0
C8 C 0.04844 0.22214 0.98794 0.0
O9 O 0.06481 0.23506 0.92961 0.0
C10 C 0.12186 0.20159 0.99446 0.0
O11 O 0.09837 0.19803 0.95207 0.0
O12 O 0.12936 0.28188 0.96232 0.0
C13 C 0.6899 0.86202 0.23182 0.0
O14 O 0.69757 0.88984 0.20125 0.0
O15 O 0.74792 0.90246 0.09084 0.0
Zn16 Zn 0.72152 0.85394 0.10876 0.0
O17 O 0.75018 0.83378 0.10381 0.0
C18 C 0.69193 0.84908 0.97322 0.0
O19 O 0.71808 0.87773 0.96392 0.0
O20 O 0.69815 0.8432 0.20257 0.0
C21 C 0.76005 0.83002 0.04427 0.0
O22 O 0.75189 0.83998 0.9872 0.0
C23 C 0.77877 0.91832 0.08407 0.0
O24 O 0.79551 0.90357 0.09567 0.0
O25 O 0.68787 0.83427 0.03161 0.0
C26 C 0.13257 0.84359 0.20826 0.0
O27 O 0.11939 0.81937 0.16334 0.0
O28 O 0.07504 0.85674 0.08274 0.0
Zn29 Zn 0.12386 0.87885 0.0931 0.0
O30 O 0.14416 0.92715 0.07493 0.0
C31 C 0.13187 0.86135 0.95515 0.0
O32 O 0.11727 0.87794 0.94013 0.0
O33 O 0.13658 0.87117 0.18995 0.0
C34 C 0.16954 0.94302 0.03721 0.0
O35 O 0.18407 0.92802 0.0111 0.0
C36 C 0.06105 0.87032 0.0521 0.0
O37 O 0.0785 0.90083 0.03181 0.0
O38 O 0.13834 0.85872 0.01905 0.0
C39 C 0.30403 0.15334 0.80435 0.0
O40 O 0.31214 0.13553 0.84322 0.0
O41 O 0.22848 0.15691 0.94114 0.0
Zn42 Zn 0.26064 0.14217 0.92134 0.0
O43 O 0.23819 0.09336 0.92539 0.0
C44 C 0.29784 0.18279 0.0372 0.0
O45 O 0.2847 0.20011 0.01671 0.0
O46 O 0.28257 0.15957 0.82722 0.0
C47 C 0.22047 0.07966 0.97903 0.0
O48 O 0.21651 0.09768 0.02583 0.0
C49 C 0.19934 0.14368 0.91881 0.0
O50 O 0.18829 0.11852 0.87653 0.0
O51 O 0.29265 0.15807 1.00152 0.0
C52 C 0.83928 0.1432 0.80295 0.0
O53 O 0.86487 0.16727 0.83351 0.0
O54 O 0.82581 0.06077 0.94399 0.0
Zn55 Zn 0.8432 0.10867 0.92422 0.0
O56 O 0.89249 0.13376 0.92282 0.0
C57 C 0.80602 0.1072 0.04585 0.0
O58 O 0.78847 0.07617 0.03015 0.0
O59 O 0.8254 0.11528 0.83224 0.0
C60 C 0.90779 0.14335 0.9809 0.0
O61 O 0.89116 0.13562 0.04 0.0
C62 C 0.84256 0.04954 0.97206 0.0
O63 O 0.87384 0.0691 0.98304 0.0
O64 O 0.82935 0.12607 0.00551 0.0
C65 C 0.87158 0.69718 0.83883 0.0
O66 O 0.89963 0.70533 0.86895 0.0
O67 O 0.91252 0.76272 0.96667 0.0
Zn68 Zn 0.86425 0.7316 0.9577 0.0
O69 O 0.83992 0.75615 0.96247 0.0
C70 C 0.87179 0.69718 0.07483 0.0
O71 O 0.90121 0.70903 0.04847 0.0
O72 O 0.8528 0.7057 0.86739 0.0
C73 C 0.83574 0.76567 0.02199 0.0
O74 O 0.8479 0.75968 0.07859 0.0
C75 C 0.92598 0.79356 0.96808 0.0
O76 O 0.9083 0.80734 0.95684 0.0
O77 O 0.85112 0.70211 0.04254 0.0
C78 C 0.83508 0.62559 0.57622 0.0
O79 O 0.85571 0.61926 0.54378 0.0
O80 O 0.8127 0.5625 0.44507 0.0
Zn81 Zn 0.79478 0.59293 0.45488 0.0
O82 O 0.74566 0.56707 0.44412 0.0
C83 C 0.84082 0.63472 0.34815 0.0
O84 O 0.86032 0.62595 0.37777 0.0
O85 O 0.80739 0.61645 0.54837 0.0
C86 C 0.73305 0.56528 0.38386 0.0
O87 O 0.75218 0.58072 0.33032 0.0
C88 C 0.81074 0.54986 0.38502 0.0
O89 O 0.79611 0.55602 0.33342 0.0
O90 O 0.81292 0.62521 0.37494 0.0
C91 C 0.36236 0.1987 0.52883 0.0
O92 O 0.35348 0.21534 0.4881 0.0
O93 O 0.43456 0.25163 0.39782 0.0
Zn94 Zn 0.40465 0.2033 0.41035 0.0
O95 O 0.42948 0.1797 0.39791 0.0
C96 C 0.36463 0.20943 0.30477 0.0
O97 O 0.37597 0.23814 0.33393 0.0
O98 O 0.38327 0.1916 0.50637 0.0
C99 C 0.43742 0.17512 0.33696 0.0
O100 O 0.42987 0.18672 0.28163 0.0
C101 C 0.46483 0.26532 0.3839 0.0
O102 O 0.47946 0.24804 0.38463 0.0
O103 O 0.37188 0.18928 0.33159 0.0
C104 C 0.79245 0.16505 0.53719 0.0
O105 O 0.76526 0.14213 0.50908 0.0
O106 O 0.74646 0.18487 0.40679 0.0
Zn107 Zn 0.7951 0.20268 0.41173 0.0
O108 O 0.81855 0.25147 0.39821 0.0
C109 C 0.78787 0.15365 0.31308 0.0
O110 O 0.76189 0.13525 0.35132 0.0
O111 O 0.8086 0.19219 0.50522 0.0
C112 C 0.8278 0.26467 0.33782 0.0
O113 O 0.82202 0.24616 0.28232 0.0
C114 C 0.73432 0.18434 0.34662 0.0
O115 O 0.75388 0.19661 0.29219 0.0
O116 O 0.80682 0.18299 0.33133 0.0
C117 C 0.96457 0.47655 0.12435 0.0
O118 O 0.97001 0.45563 0.15862 0.0
O119 O 0.89207 0.48351 0.2653 0.0
Zn120 Zn 0.92403 0.46803 0.24618 0.0
O121 O 0.90025 0.41877 0.24944 0.0
C122 C 0.96885 0.51316 0.34929 0.0
O123 O 0.96158 0.53362 0.31884 0.0
O124 O 0.94572 0.48534 0.15151 0.0
C125 C 0.89605 0.40493 0.30917 0.0
O126 O 0.90751 0.423 0.36574 0.0
C127 C 0.88308 0.48441 0.32795 0.0
O128 O 0.89397 0.47419 0.37999 0.0
O129 O 0.95722 0.48469 0.32433 0.0
C130 C 0.49644 0.46299 0.13894 0.0
O131 O 0.47092 0.44056 0.17325 0.0
O132 O 0.51622 0.41194 0.26596 0.0
Zn133 Zn 0.5338 0.46039 0.26027 0.0
O134 O 0.58226 0.48505 0.27697 0.0
C135 C 0.48696 0.44944 0.36902 0.0
O136 O 0.47121 0.42031 0.34088 0.0
O137 O 0.52463 0.4743 0.166 0.0
C138 C 0.59376 0.48957 0.33913 0.0
O139 O 0.57363 0.47715 0.39266 0.0
C140 C 0.53252 0.39892 0.28716 0.0
O141 O 0.56398 0.41728 0.29828 0.0
O142 O 0.51317 0.47125 0.34039 0.0
C143 C 0.53937 0.03606 0.11585 0.0
O144 O 0.56671 0.04194 0.14631 0.0
O145 O 0.58289 0.09998 0.24599 0.0
Zn146 Zn 0.53418 0.07 0.23788 0.0
O147 O 0.5121 0.09679 0.24586 0.0
C148 C 0.53707 0.02875 0.34839 0.0
O149 O 0.56547 0.03685 0.32035 0.0
O150 O 0.52174 0.04577 0.14535 0.0
C151 C 0.50247 0.10053 0.30572 0.0
O152 O 0.50695 0.0867 0.36134 0.0
C153 C 0.59477 0.11273 0.30545 0.0
O154 O 0.575 0.10657 0.35899 0.0
O155 O 0.51927 0.0385 0.31951 0.0
C156 C 0.49897 0.96504 0.85278 0.0
O157 O 0.5175 0.95534 0.82251 0.0
O158 O 0.4726 0.89893 0.73347 0.0
Zn159 Zn 0.45668 0.93104 0.7353 0.0
O160 O 0.40751 0.90587 0.73056 0.0
C161 C 0.50196 0.96811 0.62348 0.0
O162 O 0.52124 0.9601 0.65689 0.0
O163 O 0.47177 0.95777 0.82464 0.0
C164 C 0.39284 0.90018 0.67165 0.0
O165 O 0.41004 0.91154 0.61369 0.0
C166 C 0.47172 0.88471 0.67625 0.0
O167 O 0.45959 0.89062 0.61954 0.0
O168 O 0.47411 0.95975 0.64926 0.0
C169 C 0.02658 0.52815 0.8541 0.0
O170 O 0.02192 0.5496 0.81988 0.0
O171 O 0.09878 0.58325 0.73254 0.0
Zn172 Zn 0.06888 0.53437 0.73436 0.0
O173 O 0.09411 0.51108 0.71906 0.0
C174 C 0.03462 0.54416 0.61868 0.0
O175 O 0.04962 0.57431 0.64141 0.0
O176 O 0.04508 0.5188 0.82749 0.0
C177 C 0.09894 0.50386 0.65753 0.0
O178 O 0.0884 0.51291 0.60272 0.0
C179 C 0.1257 0.59673 0.69927 0.0
O180 O 0.13623 0.57847 0.67131 0.0
O181 O 0.03762 0.52266 0.65271 0.0
C182 C 0.48171 0.5112 0.86791 0.0
O183 O 0.50747 0.53347 0.83395 0.0
O184 O 0.40004 0.50142 0.72927 0.0
Zn185 Zn 0.44784 0.51727 0.74637 0.0
O186 O 0.4753 0.56624 0.73951 0.0
C187 C 0.44732 0.47306 0.63959 0.0
O188 O 0.41913 0.45183 0.66737 0.0
O189 O 0.45367 0.50061 0.84061 0.0
C190 C 0.46468 0.58441 0.71674 0.0
O191 O 0.43344 0.57164 0.70343 0.0
C192 C 0.38923 0.49971 0.66707 0.0
O193 O 0.40976 0.50993 0.61395 0.0
O194 O 0.46381 0.501 0.66734 0.0
C195 C 0.61458 0.82398 0.49013 0.0
O196 O 0.61218 0.84594 0.52733 0.0
O197 O 0.54815 0.80664 0.60382 0.0
Zn198 Zn 0.57483 0.78435 0.60313 0.0
O199 O 0.54451 0.73619 0.61644 0.0
C200 C 0.60055 0.78874 0.74481 0.0
O201 O 0.57268 0.76188 0.75591 0.0
O202 O 0.60011 0.79463 0.51184 0.0
C203 C 0.55502 0.71698 0.63148 0.0
O204 O 0.58665 0.72846 0.63411 0.0
C205 C 0.53505 0.80812 0.66097 0.0
O206 O 0.53852 0.79435 0.71788 0.0
O207 O 0.60665 0.80204 0.68419 0.0
C208 C 0.1757 0.82631 0.48282 0.0
O209 O 0.18997 0.85099 0.52639 0.0
O210 O 0.1703 0.74666 0.62052 0.0
Zn211 Zn 0.1879 0.79409 0.59734 0.0
O212 O 0.23717 0.81896 0.59941 0.0
C213 C 0.16515 0.80053 0.73323 0.0
O214 O 0.16765 0.77473 0.74703 0.0
O215 O 0.17196 0.7989 0.50161 0.0
C216 C 0.25217 0.82253 0.65726 0.0
O217 O 0.23525 0.80903 0.71462 0.0
C218 C 0.18667 0.73219 0.61742 0.0
O219 O 0.21683 0.74804 0.59418 0.0
O220 O 0.17191 0.81292 0.67175 0.0
C221 C 0.19425 0.35928 0.42911 0.0
O222 O 0.22143 0.36512 0.46027 0.0
O223 O 0.23827 0.42186 0.55927 0.0
Zn224 Zn 0.18928 0.39322 0.55092 0.0
O225 O 0.16853 0.4213 0.56014 0.0
C226 C 0.1908 0.35065 0.65967 0.0
O227 O 0.21872 0.35785 0.63037 0.0
O228 O 0.17655 0.36906 0.45801 0.0
C229 C 0.15961 0.42544 0.62053 0.0
O230 O 0.16366 0.41098 0.67555 0.0
C231 C 0.25019 0.43452 0.61876 0.0
O232 O 0.23033 0.42927 0.67164 0.0
O233 O 0.17361 0.36146 0.63221 0.0
C234 C 0.20446 0.33136 0.32878 0.0
C235 C 0.18435 0.34133 0.36142 0.0
H236 H 0.21123 0.30685 0.24183 0.0
C237 C 0.15471 0.33383 0.32889 0.0
H238 H 0.22747 0.33673 0.35227 0.0
C239 C 0.14534 0.31661 0.26541 0.0
C240 C 0.16544 0.30655 0.23292 0.0
H241 H 0.13862 0.34114 0.35256 0.0
H242 H 0.1223 0.31114 0.24193 0.0
C243 C 0.19514 0.31422 0.26531 0.0
C244 C 0.64657 0.86515 0.39666 0.0
C245 C 0.63396 0.83354 0.4242 0.0
H246 H 0.67397 0.89887 0.31459 0.0
C247 C 0.6402 0.81141 0.38829 0.0
H248 H 0.64223 0.88282 0.42293 0.0
C249 C 0.65865 0.82073 0.32625 0.0
C250 C 0.67105 0.85229 0.29847 0.0
H251 H 0.63092 0.7869 0.40819 0.0
H252 H 0.66296 0.80308 0.29978 0.0
C253 C 0.66478 0.87437 0.33443 0.0
C254 C 0.14943 0.80442 0.36536 0.0
C255 C 0.16433 0.83054 0.4128 0.0
H256 H 0.12771 0.788 0.26382 0.0
C257 C 0.16839 0.86088 0.39259 0.0
H258 H 0.1459 0.78071 0.37923 0.0
C259 C 0.15794 0.86507 0.32644 0.0
C260 C 0.14318 0.839 0.27885 0.0
H261 H 0.17974 0.88153 0.4278 0.0
H262 H 0.16156 0.88881 0.31258 0.0
C263 C 0.13899 0.80861 0.29915 0.0
C264 C 0.32437 0.19498 0.62522 0.0
C265 C 0.34779 0.18767 0.59981 0.0
H266 H 0.29221 0.18997 0.70956 0.0
C267 C 0.35694 0.16934 0.64268 0.0
H268 H 0.31676 0.20906 0.59364 0.0
C269 C 0.34287 0.15839 0.70908 0.0
C270 C 0.3193 0.1655 0.73434 0.0
H271 H 0.37491 0.16326 0.62487 0.0
H272 H 0.35042 0.14421 0.74046 0.0
C273 C 0.31029 0.18403 0.69173 0.0
C274 C 0.83248 0.18444 0.63723 0.0
C275 C 0.80426 0.15939 0.60534 0.0
H276 H 0.86553 0.19903 0.72428 0.0
C277 C 0.78755 0.12889 0.63917 0.0
H278 H 0.84596 0.20823 0.61273 0.0
C279 C 0.79885 0.12357 0.70327 0.0
C280 C 0.82707 0.14865 0.73511 0.0
H281 H 0.76575 0.10904 0.6161 0.0
H282 H 0.78543 0.09979 0.72784 0.0
C283 C 0.8437 0.17915 0.70134 0.0
C284 C 0.83169 0.66903 0.74062 0.0
C285 C 0.86206 0.67855 0.77204 0.0
H286 H 0.79931 0.64485 0.65451 0.0
C287 C 0.88333 0.67024 0.73877 0.0
H288 H 0.81469 0.675 0.76482 0.0
C289 C 0.87451 0.65298 0.6754 0.0
C290 C 0.8442 0.64355 0.64386 0.0
H291 H 0.9069 0.67716 0.76146 0.0
H292 H 0.89155 0.64709 0.65112 0.0
C293 C 0.82285 0.65171 0.67732 0.0
C294 C 0.00076 0.47964 0.02481 0.0
C295 C 0.9803 0.48976 0.05509 0.0
H296 H 0.03131 0.48369 0.93805 0.0
C297 C 0.97511 0.51263 0.01856 0.0
H298 H 0.00531 0.46207 0.05139 0.0
C299 C 0.99008 0.52508 0.95336 0.0
C300 C 0.01057 0.51496 0.92314 0.0
H301 H 0.95951 0.52098 0.04033 0.0
H302 H 0.98559 0.54267 0.92672 0.0
C303 C 0.0157 0.49207 0.95969 0.0
C304 C 0.46153 0.46293 0.03893 0.0
C305 C 0.49255 0.47518 0.06951 0.0
H306 H 0.43373 0.46461 0.95154 0.0
C307 C 0.5199 0.49931 0.03308 0.0
H308 H 0.43994 0.44434 0.06548 0.0
C309 C 0.51635 0.51092 0.96776 0.0
C310 C 0.48535 0.49872 0.93718 0.0
H311 H 0.54416 0.50932 0.055 0.0
H312 H 0.53797 0.52953 0.94131 0.0
C313 C 0.45797 0.47457 0.97354 0.0
C314 C 0.49955 0.01123 0.01606 0.0
C315 C 0.52913 0.0182 0.04816 0.0
H316 H 0.46683 0.98907 0.9294 0.0
C317 C 0.5488 0.00781 0.01502 0.0
H318 H 0.48381 0.01889 0.04011 0.0
C319 C 0.53907 0.99075 0.95149 0.0
C320 C 0.50942 0.98363 0.91957 0.0
H321 H 0.57174 0.01278 0.03819 0.0
H322 H 0.5548 0.98304 0.9276 0.0
C323 C 0.4898 0.99413 0.95253 0.0
C324 C 0.14455 0.31359 0.82905 0.0
C325 C 0.16496 0.30432 0.86327 0.0
H326 H 0.13648 0.33517 0.73774 0.0
C327 C 0.19351 0.30962 0.82911 0.0
H328 H 0.12227 0.30968 0.85371 0.0
C329 C 0.20157 0.32406 0.76237 0.0
C330 C 0.18126 0.33352 0.72834 0.0
H331 H 0.20969 0.3026 0.85383 0.0
H332 H 0.22389 0.32806 0.73781 0.0
C333 C 0.15261 0.32804 0.76234 0.0
C334 C 0.65254 0.83427 0.79341 0.0
C335 C 0.62405 0.80402 0.80308 0.0
H336 H 0.69618 0.87229 0.83963 0.0
C337 C 0.61795 0.78873 0.86933 0.0
H338 H 0.65791 0.84673 0.74307 0.0
C339 C 0.63992 0.80338 0.92476 0.0
C340 C 0.66837 0.83367 0.9151 0.0
H341 H 0.5962 0.7654 0.8785 0.0
H342 H 0.63457 0.79095 0.97513 0.0
C343 C 0.67444 0.84897 0.84887 0.0
C344 C 0.1398 0.85435 0.82765 0.0
C345 C 0.14051 0.84591 0.8984 0.0
H346 H 0.14724 0.84677 0.71982 0.0
C347 C 0.14915 0.82231 0.91431 0.0
H348 H 0.13328 0.87251 0.81378 0.0
C349 C 0.15674 0.80729 0.86048 0.0
C350 C 0.15627 0.8159 0.78974 0.0
H351 H 0.14978 0.8152 0.96832 0.0
H352 H 0.16332 0.78918 0.87445 0.0
C353 C 0.14782 0.83965 0.77384 0.0
C354 C 0.33768 0.22382 0.20895 0.0
C355 C 0.3467 0.20208 0.23732 0.0
H356 H 0.31541 0.23493 0.12333 0.0
C357 C 0.33997 0.17419 0.19881 0.0
H358 H 0.34264 0.24561 0.23716 0.0
C359 C 0.32468 0.16825 0.13318 0.0
C360 C 0.3156 0.18997 0.10487 0.0
H361 H 0.34682 0.15707 0.21894 0.0
H362 H 0.31973 0.14646 0.10497 0.0
C363 C 0.32221 0.21778 0.14352 0.0
C364 C 0.77546 0.09844 0.15869 0.0
C365 C 0.80087 0.11935 0.11335 0.0
H366 H 0.7516 0.09275 0.25755 0.0
C367 C 0.82228 0.15151 0.13473 0.0
H368 H 0.75863 0.07347 0.14393 0.0
C369 C 0.8184 0.16249 0.20012 0.0
C370 C 0.79298 0.14157 0.24546 0.0
H371 H 0.84223 0.1682 0.10123 0.0
H372 H 0.83523 0.18746 0.21485 0.0
C373 C 0.77153 0.10944 0.22401 0.0
C374 C 0.88657 0.67546 0.18046 0.0
C375 C 0.86376 0.68085 0.14438 0.0
H376 H 0.89737 0.65695 0.27341 0.0
C377 C 0.83373 0.67172 0.1767 0.0
H378 H 0.91 0.68236 0.15716 0.0
C379 C 0.82661 0.65743 0.24354 0.0
C380 C 0.84933 0.65184 0.27948 0.0
H381 H 0.8157 0.67574 0.15056 0.0
H382 H 0.80313 0.65046 0.26665 0.0
C383 C 0.87941 0.66106 0.24728 0.0
C384 C -0.0014 0.55249 0.44677 0.0
C385 C 0.98663 0.5215 0.41709 0.0
H386 H 0.02288 0.58388 0.53394 0.0
C387 C 0.99018 0.49788 0.45475 0.0
H388 H -0.00389 0.57117 0.41931 0.0
C389 C 0.00524 0.50506 0.52072 0.0
C390 C 0.01721 0.53605 0.55044 0.0
H391 H 0.98104 0.47368 0.43362 0.0
H392 H 0.00769 0.48634 0.54815 0.0
C393 C 0.01379 0.55971 0.51268 0.0
C394 C 0.43871 0.43671 0.53667 0.0
C395 C 0.45784 0.46646 0.57141 0.0
H396 H 0.43269 0.40811 0.44512 0.0
C397 C 0.48634 0.49071 0.53849 0.0
H398 H 0.41653 0.41761 0.56041 0.0
C399 C 0.49544 0.4854 0.47223 0.0
C400 C 0.47632 0.45568 0.43743 0.0
H401 H 0.50158 0.51399 0.5636 0.0
H402 H 0.51763 0.50455 0.44859 0.0
C403 C 0.44787 0.43136 0.47038 0.0
C404 C 0.48987 0.99113 0.51631 0.0
C405 C 0.51116 0.98388 0.55338 0.0
H406 H 0.48116 0.0106 0.42241 0.0
C407 C 0.54068 0.99068 0.5216 0.0
H408 H 0.46684 0.98603 0.53907 0.0
C409 C 0.54881 0.00459 0.45434 0.0
C410 C 0.52761 0.01204 0.41751 0.0
H411 H 0.55754 0.9852 0.54856 0.0
H412 H 0.57188 0.00981 0.4316 0.0
C413 C 0.49801 0.00506 0.44918 0.0
C414 C 0.12921 0.16044 0.92723 0.0
C415 C 0.14008 0.18455 0.9795 0.0
H416 H 0.13935 0.12845 0.86712 0.0
C417 C 0.16977 0.19392 0.01373 0.0
H418 H 0.10639 0.15266 0.89995 0.0
C419 C 0.18874 0.18031 0.99445 0.0
C420 C 0.17833 0.15683 0.9409 0.0
H421 H 0.17888 0.21247 0.05412 0.0
H422 H 0.21179 0.18852 0.0211 0.0
C423 C 0.1481 0.14659 0.90832 0.0
C424 C 0.79211 -0.00308 0.00166 0.0
C425 C 0.82631 0.01564 0.99881 0.0
H426 H 0.75032 0.95181 0.03173 0.0
C427 C 0.84478 0.00222 0.02506 0.0
H428 H 0.77713 0.0066 0.98238 0.0
C429 C 0.82938 0.97073 0.05338 0.0
C430 C 0.79519 0.95211 0.05664 0.0
H431 H 0.87118 0.01604 0.02384 0.0
H432 H 0.84431 0.96102 0.07279 0.0
C433 C 0.77673 0.96558 0.03052 0.0
C434 C 0.97709 0.84751 0.98351 0.0
C435 C 0.96065 0.81338 0.98865 0.0
H436 H 0.02176 0.89234 0.99967 0.0
C437 C 0.97729 0.79826 0.0163 0.0
H438 H 0.96489 0.85988 0.96266 0.0
C439 C 0.00963 0.81683 0.0384 0.0
C440 C 0.0262 0.85093 0.03266 0.0
H441 H 0.96528 0.77202 0.02149 0.0
H442 H 0.02175 0.80435 0.05907 0.0
C443 C 0.00962 0.8661 0.00492 0.0
C444 C 0.80624 0.79158 0.96696 0.0
C445 C 0.81703 0.78281 0.02773 0.0
H446 H 0.77995 0.81348 0.92456 0.0
C447 C 0.80941 0.79019 0.09412 0.0
H448 H 0.81177 0.78632 0.91503 0.0
C449 C 0.79103 0.80566 0.09962 0.0
C450 C 0.78005 0.81423 0.03883 0.0
H451 H 0.81736 0.78374 0.14198 0.0
H452 H 0.78537 0.81081 0.15153 0.0
C453 C 0.78803 0.8072 0.97246 0.0
C454 C 0.20546 0.9936 0.96813 0.0
C455 C 0.18208 0.97782 0.02134 0.0
H456 H 0.23558 0.03807 0.91222 0.0
C457 C 0.17066 0.99554 0.05884 0.0
H458 H 0.21457 0.98054 0.93794 0.0
C459 C 0.18286 0.02854 0.04441 0.0
C460 C 0.20641 0.04438 0.99157 0.0
H461 H 0.15259 0.98405 0.10003 0.0
H462 H 0.17389 0.04164 0.07489 0.0
C463 C 0.21736 0.02651 0.95309 0.0
C464 C 0.96057 0.17097 0.04695 0.0
C465 C 0.94379 0.16311 0.98238 0.0
H466 H 0.00671 0.19568 0.09942 0.0
C467 C 0.96172 0.17472 0.91966 0.0
H468 H 0.94748 0.16239 0.09625 0.0
C469 C -0.0043 0.19398 0.92153 0.0
C470 C 0.01247 0.20186 0.98613 0.0
H471 H 0.94952 0.16916 0.86908 0.0
H472 H 0.00879 0.20261 0.87225 0.0
C473 C 0.99454 0.19006 0.0488 0.0
C474 C 0.83059 0.52292 0.30183 0.0
C475 C 0.82731 0.5311 0.37122 0.0
H476 H 0.85083 0.50184 0.23366 0.0
C477 C 0.84125 0.52245 0.42649 0.0
H478 H 0.82016 0.52927 0.258 0.0
C479 C 0.85865 0.5065 0.41251 0.0
C480 C 0.86272 0.49918 0.34291 0.0
H481 H 0.8391 0.52835 0.48051 0.0
H482 H 0.86953 0.50062 0.4562 0.0
C483 C 0.84823 0.50726 0.2878 0.0
C484 C 0.53286 0.3487 0.32751 0.0
C485 C 0.51534 0.36427 0.30865 0.0
H486 H 0.53065 0.30515 0.36625 0.0
C487 C 0.4812 0.34705 0.31502 0.0
H488 H 0.5592 0.36136 0.32341 0.0
C489 C 0.46496 0.31517 0.34066 0.0
C490 C 0.48243 0.29958 0.35969 0.0
H491 H 0.46695 0.35835 0.30139 0.0
H492 H 0.43864 0.30267 0.34496 0.0
C493 C 0.51653 0.31657 0.35235 0.0
C494 C 0.64361 0.1402 0.38409 0.0
C495 C 0.63043 0.13245 0.31578 0.0
H496 H 0.68679 0.16257 0.44756 0.0
C497 C 0.65167 0.14294 0.25782 0.0
H498 H 0.62787 0.13241 0.4299 0.0
C499 C 0.68541 0.16049 0.26798 0.0
C500 C 0.69861 0.16759 0.33633 0.0
H501 H 0.64227 0.13743 0.20456 0.0
H502 H 0.70112 0.16789 0.22216 0.0
C503 C 0.67736 0.15744 0.39428 0.0
C504 C 0.47702 0.12502 0.38015 0.0
C505 C 0.48628 0.12006 0.3132 0.0
H506 H 0.45449 0.14633 0.44016 0.0
C507 C 0.47975 0.13375 0.25399 0.0
H508 H 0.48175 0.11488 0.42689 0.0
C509 C 0.46402 0.15181 0.26164 0.0
C510 C 0.45461 0.15658 0.32863 0.0
H511 H 0.4866 0.13038 0.20169 0.0
H512 H 0.45916 0.16191 0.21501 0.0
C513 C 0.4614 0.1431 0.38779 0.0
C514 C 0.85252 0.31516 0.26302 0.0
C515 C 0.84506 0.30054 0.33014 0.0
H516 H 0.87435 0.35963 0.20355 0.0
C517 C 0.85438 0.32052 0.38993 0.0
H518 H 0.84562 0.30044 0.21586 0.0
C519 C 0.87094 0.35436 0.38284 0.0
C520 C 0.87841 0.36902 0.3158 0.0
H521 H 0.84905 0.31006 0.44238 0.0
H522 H 0.87781 0.369 0.43012 0.0
C523 C 0.86894 0.34908 0.25591 0.0
C524 C 0.65069 0.52377 0.2941 0.0
C525 C 0.62937 0.50865 0.35096 0.0
H526 H 0.69997 0.5535 0.25998 0.0
C527 C 0.64242 0.51221 0.41909 0.0
H528 H 0.64146 0.52155 0.24096 0.0
C529 C 0.67611 0.53054 0.43006 0.0
C530 C 0.69738 0.54577 0.37313 0.0
H531 H 0.62663 0.50085 0.46403 0.0
H532 H 0.68545 0.53286 0.48311 0.0
C533 C 0.68428 0.54216 0.30508 0.0
C534 C 0.50973 0.83436 0.73015 0.0
C535 C 0.5175 0.82644 0.66453 0.0
H536 H 0.48932 0.85914 0.78533 0.0
C537 C 0.50906 0.83688 0.60276 0.0
H538 H 0.51596 0.82671 0.77873 0.0
C539 C 0.49346 0.85518 0.60658 0.0
C540 C 0.4864 0.86374 0.67225 0.0
H541 H 0.51464 0.83106 0.55143 0.0
H542 H 0.48758 0.86318 0.55806 0.0
C543 C 0.49454 0.853 0.73398 0.0
C544 C 0.14179 0.68281 0.67666 0.0
C545 C 0.1719 0.69794 0.64121 0.0
H546 H 0.10388 0.63923 0.72387 0.0
C547 C 0.18761 0.68001 0.62879 0.0
H548 H 0.12918 0.69603 0.68766 0.0
C549 C 0.17304 0.64736 0.6495 0.0
C550 C 0.14261 0.63205 0.68363 0.0
H551 H 0.21089 0.691 0.60191 0.0
H552 H 0.18541 0.63398 0.63775 0.0
C553 C 0.12738 0.65029 0.6979 0.0
C554 C 0.33208 0.47727 0.71065 0.0
C555 C 0.3538 0.48473 0.65418 0.0
H556 H 0.28242 0.45587 0.74364 0.0
C557 C 0.34125 0.47666 0.58542 0.0
H558 H 0.34098 0.48325 0.76421 0.0
C559 C 0.3076 0.46072 0.57359 0.0
C560 C 0.28586 0.45281 0.63024 0.0
H561 H 0.35735 0.48204 0.54076 0.0
H562 H 0.29864 0.45433 0.52017 0.0
C563 C 0.29849 0.46161 0.69878 0.0
C564 C 0.1371 0.45922 0.57084 0.0
C565 C 0.1448 0.44618 0.62945 0.0
H566 H 0.11653 0.48767 0.53369 0.0
C567 C 0.138 0.45292 0.6973 0.0
H568 H 0.14207 0.4545 0.51789 0.0
C569 C 0.12355 0.47203 0.7064 0.0
C570 C 0.11541 0.4847 0.64782 0.0
H571 H 0.14374 0.44336 0.74364 0.0
H572 H 0.11845 0.47654 0.75941 0.0
C573 C 0.12246 0.47822 0.57993 0.0
C574 C 0.47627 0.63885 0.67153 0.0
C575 C 0.48779 0.61875 0.69778 0.0
H576 H 0.48839 0.68548 0.62958 0.0
C577 C 0.52164 0.63122 0.70187 0.0
H578 H 0.45036 0.62998 0.66747 0.0
C579 C 0.54347 0.66297 0.67952 0.0
C580 C 0.53193 0.683 0.65291 0.0
H581 H 0.53135 0.61634 0.72153 0.0
H582 H 0.56938 0.67181 0.68338 0.0
C583 C 0.49809 0.67063 0.64947 0.0
C584 C 0.30437 0.84758 0.72555 0.0
C585 C 0.28817 0.84219 0.66061 0.0
H586 H 0.35003 0.87018 0.78009 0.0
C587 C 0.30668 0.8561 0.59938 0.0
H588 H 0.29085 0.83727 0.77377 0.0
C589 C 0.34065 0.87497 0.60303 0.0
C590 C 0.35684 0.88042 0.66801 0.0
H591 H 0.29494 0.85243 0.54855 0.0
H592 H 0.35419 0.88531 0.55484 0.0
C593 C 0.33833 0.86652 0.72923 0.0
loop_
_geom_bond_atom_site_label_1
_geom_bond_atom_site_label_2
_geom_bond_distance
_geom_bond_site_symmetry_2
_ccdc_geom_bond_type
C0 O1 1.160 . S
C0 O7 1.185 . S
O1 C0 1.160 . S
O2 Zn3 1.899 . S
O2 C10 1.284 . S
Zn3 O2 1.899 . S
Zn3 O4 2.032 . S
Zn3 O7 2.086 . S
Zn3 O12 1.977 1_554 S
O4 Zn3 2.032 . S
O4 C8 1.278 . S
C5 O6 1.203 . S
C5 O12 1.267 . S
O6 C5 1.203 . S
O7 C0 1.185 . S
O7 Zn3 2.086 . S
C8 O4 1.278 . S
C8 O9 1.211 1_554 S
O9 C8 1.211 1_556 S
C10 O2 1.284 . S
C10 O11 1.273 . S
O11 C10 1.273 . S
O12 Zn3 1.977 1_556 S
O12 C5 1.267 . S
C13 O14 1.160 . S
C13 O20 1.185 . S
O14 C13 1.160 . S
O15 Zn16 1.899 . S
O15 C23 1.284 . S
Zn16 O15 1.899 . S
Zn16 O17 2.032 . S
Zn16 O20 2.086 . S
Zn16 O25 1.977 1_554 S
O17 Zn16 2.032 . S
O17 C21 1.278 . S
C18 O19 1.203 . S
C18 O25 1.267 . S
O19 C18 1.203 . S
O20 C13 1.185 . S
O20 Zn16 2.086 . S
C21 O17 1.278 . S
C21 O22 1.211 1_554 S
O22 C21 1.211 1_556 S
C23 O15 1.284 . S
C23 O24 1.273 . S
O24 C23 1.273 . S
O25 Zn16 1.977 1_556 S
O25 C18 1.267 . S
C26 O27 1.160 . S
C26 O33 1.185 . S
O27 C26 1.160 . S
O28 Zn29 1.899 . S
O28 C36 1.284 . S
Zn29 O28 1.899 . S
Zn29 O30 2.032 . S
Zn29 O33 2.086 . S
Zn29 O38 1.977 1_554 S
O30 Zn29 2.032 . S
O30 C34 1.278 . S
C31 O32 1.203 . S
C31 O38 1.267 . S
O32 C31 1.203 . S
O33 C26 1.185 . S
O33 Zn29 2.086 . S
C34 O30 1.278 . S
C34 O35 1.211 1_554 S
O35 C34 1.211 1_556 S
C36 O28 1.284 . S
C36 O37 1.273 . S
O37 C36 1.273 . S
O38 Zn29 1.977 1_556 S
O38 C31 1.267 . S
C39 O40 1.160 . S
C39 O46 1.185 . S
O40 C39 1.160 . S
O41 Zn42 1.899 . S
O41 C49 1.284 . S
Zn42 O41 1.899 . S
Zn42 O43 2.032 . S
Zn42 O46 2.086 . S
Zn42 O51 1.977 1_556 S
O43 Zn42 2.032 . S
O43 C47 1.278 . S
C44 O45 1.203 . S
C44 O51 1.267 . S
O45 C44 1.203 . S
O46 C39 1.185 . S
O46 Zn42 2.086 . S
C47 O43 1.278 . S
C47 O48 1.211 1_556 S
O48 C47 1.211 1_554 S
C49 O41 1.284 . S
C49 O50 1.273 . S
O50 C49 1.273 . S
O51 Zn42 1.977 1_554 S
O51 C44 1.267 . S
C52 O53 1.160 . S
C52 O59 1.185 . S
O53 C52 1.160 . S
O54 Zn55 1.899 . S
O54 C62 1.284 . S
Zn55 O54 1.899 . S
Zn55 O56 2.032 . S
Zn55 O59 2.086 . S
Zn55 O64 1.977 1_556 S
O56 Zn55 2.032 . S
O56 C60 1.278 . S
C57 O58 1.203 . S
C57 O64 1.267 . S
O58 C57 1.203 . S
O59 C52 1.185 . S
O59 Zn55 2.086 . S
C60 O56 1.278 . S
C60 O61 1.211 1_556 S
O61 C60 1.211 1_554 S
C62 O54 1.284 . S
C62 O63 1.273 . S
O63 C62 1.273 . S
O64 Zn55 1.977 1_554 S
O64 C57 1.267 . S
C65 O66 1.160 . S
C65 O72 1.185 . S
O66 C65 1.160 . S
O67 Zn68 1.899 . S
O67 C75 1.284 . S
Zn68 O67 1.899 . S
Zn68 O69 2.032 . S
Zn68 O72 2.086 . S
Zn68 O77 1.977 1_556 S
O69 Zn68 2.032 . S
O69 C73 1.278 . S
C70 O71 1.203 . S
C70 O77 1.267 . S
O71 C70 1.203 . S
O72 C65 1.185 . S
O72 Zn68 2.086 . S
C73 O69 1.278 . S
C73 O74 1.211 1_556 S
O74 C73 1.211 1_554 S
C75 O67 1.284 . S
C75 O76 1.273 . S
O76 C75 1.273 . S
O77 Zn68 1.977 1_554 S
O77 C70 1.267 . S
C78 O79 1.160 . S
C78 O85 1.185 . S
O79 C78 1.160 . S
O80 Zn81 1.899 . S
O80 C88 1.284 . S
Zn81 O80 1.899 . S
Zn81 O82 2.032 . S
Zn81 O85 2.086 . S
Zn81 O90 1.977 . S
O82 Zn81 2.032 . S
O82 C86 1.278 . S
C83 O84 1.203 . S
C83 O90 1.267 . S
O84 C83 1.203 . S
O85 C78 1.185 . S
O85 Zn81 2.086 . S
C86 O82 1.278 . S
C86 O87 1.211 . S
O87 C86 1.211 . S
C88 O80 1.284 . S
C88 O89 1.273 . S
O89 C88 1.273 . S
O90 Zn81 1.977 . S
O90 C83 1.267 . S
C91 O92 1.160 . S
C91 O98 1.185 . S
O92 C91 1.160 . S
O93 Zn94 1.899 . S
O93 C101 1.284 . S
Zn94 O93 1.899 . S
Zn94 O95 2.032 . S
Zn94 O98 2.086 . S
Zn94 O103 1.977 . S
O95 Zn94 2.032 . S
O95 C99 1.278 . S
C96 O97 1.203 . S
C96 O103 1.267 . S
O97 C96 1.203 . S
O98 C91 1.185 . S
O98 Zn94 2.086 . S
C99 O95 1.278 . S
C99 O100 1.211 . S
O100 C99 1.211 . S
C101 O93 1.284 . S
C101 O102 1.273 . S
O102 C101 1.273 . S
O103 Zn94 1.977 . S
O103 C96 1.267 . S
C104 O105 1.160 . S
C104 O111 1.185 . S
O105 C104 1.160 . S
O106 Zn107 1.899 . S
O106 C114 1.284 . S
Zn107 O106 1.899 . S
Zn107 O108 2.032 . S
Zn107 O111 2.086 . S
Zn107 O116 1.977 . S
O108 Zn107 2.032 . S
O108 C112 1.278 . S
C109 O110 1.203 . S
C109 O116 1.267 . S
O110 C109 1.203 . S
O111 C104 1.185 . S
O111 Zn107 2.086 . S
C112 O108 1.278 . S
C112 O113 1.211 . S
O113 C112 1.211 . S
C114 O106 1.284 . S
C114 O115 1.273 . S
O115 C114 1.273 . S
O116 Zn107 1.977 . S
O116 C109 1.267 . S
C117 O118 1.160 . S
C117 O124 1.185 . S
O118 C117 1.160 . S
O119 Zn120 1.899 . S
O119 C127 1.284 . S
Zn120 O119 1.899 . S
Zn120 O121 2.032 . S
Zn120 O124 2.086 . S
Zn120 O129 1.977 . S
O121 Zn120 2.032 . S
O121 C125 1.278 . S
C122 O123 1.203 . S
C122 O129 1.267 . S
O123 C122 1.203 . S
O124 C117 1.185 . S
O124 Zn120 2.086 . S
C125 O121 1.278 . S
C125 O126 1.211 . S
O126 C125 1.211 . S
C127 O119 1.284 . S
C127 O128 1.273 . S
O128 C127 1.273 . S
O129 Zn120 1.977 . S
O129 C122 1.267 . S
C130 O131 1.160 . S
C130 O137 1.185 . S
O131 C130 1.160 . S
O132 Zn133 1.899 . S
O132 C140 1.284 . S
Zn133 O132 1.899 . S
Zn133 O134 2.032 . S
Zn133 O137 2.086 . S
Zn133 O142 1.977 . S
O134 Zn133 2.032 . S
O134 C138 1.278 . S
C135 O136 1.203 . S
C135 O142 1.267 . S
O136 C135 1.203 . S
O137 C130 1.185 . S
O137 Zn133 2.086 . S
C138 O134 1.278 . S
C138 O139 1.211 . S
O139 C138 1.211 . S
C140 O132 1.284 . S
C140 O141 1.273 . S
O141 C140 1.273 . S
O142 Zn133 1.977 . S
O142 C135 1.267 . S
C143 O144 1.160 . S
C143 O150 1.185 . S
O144 C143 1.160 . S
O145 Zn146 1.899 . S
O145 C153 1.284 . S
Zn146 O145 1.899 . S
Zn146 O147 2.032 . S
Zn146 O150 2.086 . S
Zn146 O155 1.977 . S
O147 Zn146 2.032 . S
O147 C151 1.278 . S
C148 O149 1.203 . S
C148 O155 1.267 . S
O149 C148 1.203 . S
O150 C143 1.185 . S
O150 Zn146 2.086 . S
C151 O147 1.278 . S
C151 O152 1.211 . S
O152 C151 1.211 . S
C153 O145 1.284 . S
C153 O154 1.273 . S
O154 C153 1.273 . S
O155 Zn146 1.977 . S
O155 C148 1.267 . S
C156 O157 1.160 . S
C156 O163 1.185 . S
O157 C156 1.160 . S
O158 Zn159 1.899 . S
O158 C166 1.284 . S
Zn159 O158 1.899 . S
Zn159 O160 2.032 . S
Zn159 O163 2.086 . S
Zn159 O168 1.977 . S
O160 Zn159 2.032 . S
O160 C164 1.278 . S
C161 O162 1.203 . S
C161 O168 1.267 . S
O162 C161 1.203 . S
O163 C156 1.185 . S
O163 Zn159 2.086 . S
C164 O160 1.278 . S
C164 O165 1.211 . S
O165 C164 1.211 . S
C166 O158 1.284 . S
C166 O167 1.273 . S
O167 C166 1.273 . S
O168 Zn159 1.977 . S
O168 C161 1.267 . S
C169 O170 1.160 . S
C169 O176 1.185 . S
O170 C169 1.160 . S
O171 Zn172 1.899 . S
O171 C179 1.284 . S
Zn172 O171 1.899 . S
Zn172 O173 2.032 . S
Zn172 O176 2.086 . S
Zn172 O181 1.977 . S
O173 Zn172 2.032 . S
O173 C177 1.278 . S
C174 O175 1.203 . S
C174 O181 1.267 . S
O175 C174 1.203 . S
O176 C169 1.185 . S
O176 Zn172 2.086 . S
C177 O173 1.278 . S
C177 O178 1.211 . S
O178 C177 1.211 . S
C179 O171 1.284 . S
C179 O180 1.273 . S
O180 C179 1.273 . S
O181 Zn172 1.977 . S
O181 C174 1.267 . S
C182 O183 1.160 . S
C182 O189 1.185 . S
O183 C182 1.160 . S
O184 Zn185 1.899 . S
O184 C192 1.284 . S
Zn185 O184 1.899 . S
Zn185 O186 2.032 . S
Zn185 O189 2.086 . S
Zn185 O194 1.977 . S
O186 Zn185 2.032 . S
O186 C190 1.278 . S
C187 O188 1.203 . S
C187 O194 1.267 . S
O188 C187 1.203 . S
O189 C182 1.185 . S
O189 Zn185 2.086 . S
C190 O186 1.278 . S
C190 O191 1.211 . S
O191 C190 1.211 . S
C192 O184 1.284 . S
C192 O193 1.273 . S
O193 C192 1.273 . S
O194 Zn185 1.977 . S
O194 C187 1.267 . S
C195 O196 1.160 . S
C195 O202 1.185 . S
O196 C195 1.160 . S
O197 Zn198 1.899 . S
O197 C205 1.284 . S
Zn198 O197 1.899 . S
Zn198 O199 2.032 . S
Zn198 O202 2.086 . S
Zn198 O207 1.977 . S
O199 Zn198 2.032 . S
O199 C203 1.278 . S
C200 O201 1.203 . S
C200 O207 1.267 . S
O201 C200 1.203 . S
O202 C195 1.185 . S
O202 Zn198 2.086 . S
C203 O199 1.278 . S
C203 O204 1.211 . S
O204 C203 1.211 . S
C205 O197 1.284 . S
C205 O206 1.273 . S
O206 C205 1.273 . S
O207 Zn198 1.977 . S
O207 C200 1.267 . S
C208 O209 1.160 . S
C208 O215 1.185 . S
O209 C208 1.160 . S
O210 Zn211 1.899 . S
O210 C218 1.284 . S
Zn211 O210 1.899 . S
Zn211 O212 2.032 . S
Zn211 O215 2.086 . S
Zn211 O220 1.977 . S
O212 Zn211 2.032 . S
O212 C216 1.278 . S
C213 O214 1.203 . S
C213 O220 1.267 . S
O214 C213 1.203 . S
O215 C208 1.185 . S
O215 Zn211 2.086 . S
C216 O212 1.278 . S
C216 O217 1.211 . S
O217 C216 1.211 . S
C218 O210 1.284 . S
C218 O219 1.273 . S
O219 C218 1.273 . S
O220 Zn211 1.977 . S
O220 C213 1.267 . S
C221 O222 1.160 . S
C221 O228 1.185 . S
O222 C221 1.160 . S
O223 Zn224 1.899 . S
O223 C231 1.284 . S
Zn224 O223 1.899 . S
Zn224 O225 2.032 . S
Zn224 O228 2.086 . S
Zn224 O233 1.977 . S
O225 Zn224 2.032 . S
O225 C229 1.278 . S
C226 O227 1.203 . S
C226 O233 1.267 . S
O227 C226 1.203 . S
O228 C221 1.185 . S
O228 Zn224 2.086 . S
C229 O225 1.278 . S
C229 O230 1.211 . S
O230 C229 1.211 . S
C231 O223 1.284 . S
C231 O232 1.273 . S
O232 C231 1.273 . S
O233 Zn224 1.977 . S
O233 C226 1.267 . S
C234 C235 1.387 . S
C234 H238 0.950 . S
C234 C243 1.390 . S
C235 C234 1.387 . S
C235 C237 1.387 . S
H236 C243 0.950 . S
C237 C235 1.387 . S
C237 C239 1.390 . S
C237 H241 0.950 . S
H238 C234 0.950 . S
C239 C237 1.390 . S
C239 C240 1.387 . S
C239 H242 0.950 . S
C240 C239 1.387 . S
C240 C243 1.387 . S
H241 C237 0.950 . S
H242 C239 0.950 . S
C243 C234 1.390 . S
C243 H236 0.950 . S
C243 C240 1.387 . S
C244 C245 1.387 . S
C244 H248 0.950 . S
C244 C253 1.390 . S
C245 C244 1.387 . S
C245 C247 1.387 . S
H246 C253 0.950 . S
C247 C245 1.387 . S
C247 C249 1.390 . S
C247 H251 0.950 . S
H248 C244 0.950 . S
C249 C247 1.390 . S
C249 C250 1.387 . S
C249 H252 0.950 . S
C250 C249 1.387 . S
C250 C253 1.387 . S
H251 C247 0.950 . S
H252 C249 0.950 . S
C253 C244 1.390 . S
C253 H246 0.950 . S
C253 C250 1.387 . S
C254 C255 1.387 . S
C254 H258 0.950 . S
C254 C263 1.390 . S
C255 C254 1.387 . S
C255 C257 1.387 . S
H256 C263 0.950 . S
C257 C255 1.387 . S
C257 C259 1.390 . S
C257 H261 0.950 . S
H258 C254 0.950 . S
C259 C257 1.390 . S
C259 C260 1.387 . S
C259 H262 0.950 . S
C260 C259 1.387 . S
C260 C263 1.387 . S
H261 C257 0.950 . S
H262 C259 0.950 . S
C263 C254 1.390 . S
C263 H256 0.950 . S
C263 C260 1.387 . S
C264 C265 1.387 . S
C264 H268 0.950 . S
C264 C273 1.390 . S
C265 C264 1.387 . S
C265 C267 1.387 . S
H266 C273 0.950 . S
C267 C265 1.387 . S
C267 C269 1.390 . S
C267 H271 0.950 . S
H268 C264 0.950 . S
C269 C267 1.390 . S
C269 C270 1.387 . S
C269 H272 0.950 . S
C270 C269 1.387 . S
C270 C273 1.387 . S
H271 C267 0.950 . S
H272 C269 0.950 . S
C273 C264 1.390 . S
C273 H266 0.950 . S
C273 C270 1.387 . S
C274 C275 1.387 . S
C274 H278 0.950 . S
C274 C283 1.390 . S
C275 C274 1.387 . S
C275 C277 1.387 . S
H276 C283 0.950 . S
C277 C275 1.387 . S
C277 C279 1.390 . S
C277 H281 0.950 . S
H278 C274 0.950 . S
C279 C277 1.390 . S
C279 C280 1.387 . S
C279 H282 0.950 . S
C280 C279 1.387 . S
C280 C283 1.387 . S
H281 C277 0.950 . S
H282 C279 0.950 . S
C283 C274 1.390 . S
C283 H276 0.950 . S
C283 C280 1.387 . S
C284 C285 1.387 . S
C284 H288 0.950 . S
C284 C293 1.390 . S
C285 C284 1.387 . S
C285 C287 1.387 . S
H286 C293 0.950 . S
C287 C285 1.387 . S
C287 C289 1.390 . S
C287 H291 0.950 . S
H288 C284 0.950 . S
C289 C287 1.390 . S
C289 C290 1.387 . S
C289 H292 0.950 . S
C290 C289 1.387 . S
C290 C293 1.387 . S
H291 C287 0.950 . S
H292 C289 0.950 . S
C293 C284 1.390 . S
C293 H286 0.950 . S
C293 C290 1.387 . S
C294 C295 1.387 1_556 S
C294 H298 0.950 . S
C294 C303 1.390 . S
C295 C294 1.387 1_554 S
C295 C297 1.387 1_655 S
H296 C303 0.950 . S
C297 C295 1.387 1_455 S
C297 C299 1.390 . S
C297 H301 0.950 . S
H298 C294 0.950 . S
C299 C297 1.390 . S
C299 C300 1.387 1_554 S
C299 H302 0.950 . S
C300 C299 1.387 1_556 S
C300 C303 1.387 1_455 S
H301 C297 0.950 . S
H302 C299 0.950 . S
C303 C294 1.390 . S
C303 H296 0.950 . S
C303 C300 1.387 1_655 S
C304 C305 1.387 . S
C304 H308 0.950 . S
C304 C313 1.390 1_554 S
C305 C304 1.387 . S
C305 C307 1.387 . S
H306 C313 0.950 . S
C307 C305 1.387 . S
C307 C309 1.390 1_554 S
C307 H311 0.950 . S
H308 C304 0.950 . S
C309 C307 1.390 1_556 S
C309 C310 1.387 . S
C309 H312 0.950 . S
C310 C309 1.387 . S
C310 C313 1.387 . S
H311 C307 0.950 . S
H312 C309 0.950 . S
C313 C304 1.390 1_556 S
C313 H306 0.950 . S
C313 C310 1.387 . S
C314 C315 1.387 . S
C314 H318 0.950 . S
C314 C323 1.390 1_544 S
C315 C314 1.387 . S
C315 C317 1.387 . S
H316 C323 0.950 . S
C317 C315 1.387 . S
C317 C319 1.390 1_544 S
C317 H321 0.950 . S
H318 C314 0.950 . S
C319 C317 1.390 1_566 S
C319 C320 1.387 . S
C319 H322 0.950 . S
C320 C319 1.387 . S
C320 C323 1.387 . S
H321 C317 0.950 . S
H322 C319 0.950 . S
C323 C314 1.390 1_566 S
C323 H316 0.950 . S
C323 C320 1.387 . S
C324 C325 1.387 . S
C324 H328 0.950 . S
C324 C333 1.390 . S
C325 C324 1.387 . S
C325 C327 1.387 . S
H326 C333 0.950 . S
C327 C325 1.387 . S
C327 C329 1.390 . S
C327 H331 0.950 . S
H328 C324 0.950 . S
C329 C327 1.390 . S
C329 C330 1.387 . S
C329 H332 0.950 . S
C330 C329 1.387 . S
C330 C333 1.387 . S
H331 C327 0.950 . S
H332 C329 0.950 . S
C333 C324 1.390 . S
C333 H326 0.950 . S
C333 C330 1.387 . S
C334 C335 1.387 . S
C334 H338 0.950 . S
C334 C343 1.390 . S
C335 C334 1.387 . S
C335 C337 1.387 . S
H336 C343 0.950 . S
C337 C335 1.387 . S
C337 C339 1.390 . S
C337 H341 0.950 . S
H338 C334 0.950 . S
C339 C337 1.390 . S
C339 C340 1.387 . S
C339 H342 0.950 . S
C340 C339 1.387 . S
C340 C343 1.387 . S
H341 C337 0.950 . S
H342 C339 0.950 . S
C343 C334 1.390 . S
C343 H336 0.950 . S
C343 C340 1.387 . S
C344 C345 1.387 . S
C344 H348 0.950 . S
C344 C353 1.390 . S
C345 C344 1.387 . S
C345 C347 1.387 . S
H346 C353 0.950 . S
C347 C345 1.387 . S
C347 C349 1.390 . S
C347 H351 0.950 . S
H348 C344 0.950 . S
C349 C347 1.390 . S
C349 C350 1.387 . S
C349 H352 0.950 . S
C350 C349 1.387 . S
C350 C353 1.387 . S
H351 C347 0.950 . S
H352 C349 0.950 . S
C353 C344 1.390 . S
C353 H346 0.950 . S
C353 C350 1.387 . S
C354 C355 1.387 . S
C354 H358 0.950 . S
C354 C363 1.390 . S
C355 C354 1.387 . S
C355 C357 1.387 . S
H356 C363 0.950 . S
C357 C355 1.387 . S
C357 C359 1.390 . S
C357 H361 0.950 . S
H358 C354 0.950 . S
C359 C357 1.390 . S
C359 C360 1.387 . S
C359 H362 0.950 . S
C360 C359 1.387 . S
C360 C363 1.387 . S
H361 C357 0.950 . S
H362 C359 0.950 . S
C363 C354 1.390 . S
C363 H356 0.950 . S
C363 C360 1.387 . S
C364 C365 1.387 . S
C364 H368 0.950 . S
C364 C373 1.390 . S
C365 C364 1.387 . S
C365 C367 1.387 . S
H366 C373 0.950 . S
C367 C365 1.387 . S
C367 C369 1.390 . S
C367 H371 0.950 . S
H368 C364 0.950 . S
C369 C367 1.390 . S
C369 C370 1.387 . S
C369 H372 0.950 . S
C370 C369 1.387 . S
C370 C373 1.387 . S
H371 C367 0.950 . S
H372 C369 0.950 . S
C373 C364 1.390 . S
C373 H366 0.950 . S
C373 C370 1.387 . S
C374 C375 1.387 . S
C374 H378 0.950 . S
C374 C383 1.390 . S
C375 C374 1.387 . S
C375 C377 1.387 . S
H376 C383 0.950 . S
C377 C375 1.387 . S
C377 C379 1.390 . S
C377 H381 0.950 . S
H378 C374 0.950 . S
C379 C377 1.390 . S
C379 C380 1.387 . S
C379 H382 0.950 . S
C380 C379 1.387 . S
C380 C383 1.387 . S
H381 C377 0.950 . S
H382 C379 0.950 . S
C383 C374 1.390 . S
C383 H376 0.950 . S
C383 C380 1.387 . S
C384 C385 1.387 . S
C384 H388 0.950 . S
C384 C393 1.390 1_655 S
C385 C384 1.387 . S
C385 C387 1.387 . S
H386 C393 0.950 . S
C387 C385 1.387 . S
C387 C389 1.390 1_655 S
C387 H391 0.950 . S
H388 C384 0.950 . S
C389 C387 1.390 1_455 S
C389 C390 1.387 . S
C389 H392 0.950 . S
C390 C389 1.387 . S
C390 C393 1.387 . S
H391 C387 0.950 . S
H392 C389 0.950 . S
C393 C384 1.390 1_455 S
C393 H386 0.950 . S
C393 C390 1.387 . S
C394 C395 1.387 . S
C394 H398 0.950 . S
C394 C403 1.390 . S
C395 C394 1.387 . S
C395 C397 1.387 . S
H396 C403 0.950 . S
C397 C395 1.387 . S
C397 C399 1.390 . S
C397 H401 0.950 . S
H398 C394 0.950 . S
C399 C397 1.390 . S
C399 C400 1.387 . S
C399 H402 0.950 . S
C400 C399 1.387 . S
C400 C403 1.387 . S
H401 C397 0.950 . S
H402 C399 0.950 . S
C403 C394 1.390 . S
C403 H396 0.950 . S
C403 C400 1.387 . S
C404 C405 1.387 . S
C404 H408 0.950 . S
C404 C413 1.390 1_565 S
C405 C404 1.387 . S
C405 C407 1.387 . S
H406 C413 0.950 . S
C407 C405 1.387 . S
C407 C409 1.390 1_565 S
C407 H411 0.950 . S
H408 C404 0.950 . S
C409 C407 1.390 1_545 S
C409 C410 1.387 . S
C409 H412 0.950 . S
C410 C409 1.387 . S
C410 C413 1.387 . S
H411 C407 0.950 . S
H412 C409 0.950 . S
C413 C404 1.390 1_545 S
C413 H406 0.950 . S
C413 C410 1.387 . S
C414 C415 1.387 . S
C414 H418 0.950 . S
C414 C423 1.390 . S
C415 C414 1.387 . S
C415 C417 1.387 1_554 S
H416 C423 0.950 . S
C417 C415 1.387 1_556 S
C417 C419 1.390 . S
C417 H421 0.950 . S
H418 C414 0.950 . S
C419 C417 1.390 . S
C419 C420 1.387 . S
C419 H422 0.950 . S
C420 C419 1.387 . S
C420 C423 1.387 1_556 S
H421 C417 0.950 . S
H422 C419 0.950 . S
C423 C414 1.390 . S
C423 H416 0.950 . S
C423 C420 1.387 1_554 S
C424 C425 1.387 . S
C424 H428 0.950 . S
C424 C433 1.390 1_546 S
C425 C424 1.387 . S
C425 C427 1.387 . S
H426 C433 0.950 . S
C427 C425 1.387 . S
C427 C429 1.390 1_546 S
C427 H431 0.950 . S
H428 C424 0.950 . S
C429 C427 1.390 1_564 S
C429 C430 1.387 . S
C429 H432 0.950 . S
C430 C429 1.387 . S
C430 C433 1.387 . S
H431 C427 0.950 . S
H432 C429 0.950 . S
C433 C424 1.390 1_564 S
C433 H426 0.950 . S
C433 C430 1.387 . S
C434 C435 1.387 . S
C434 H438 0.950 . S
C434 C443 1.390 1_655 S
C435 C434 1.387 . S
C435 C437 1.387 1_556 S
H436 C443 0.950 . S
C437 C435 1.387 1_554 S
C437 C439 1.390 1_655 S
C437 H441 0.950 . S
H438 C434 0.950 . S
C439 C437 1.390 1_455 S
C439 C440 1.387 . S
C439 H442 0.950 . S
C440 C439 1.387 . S
C440 C443 1.387 1_554 S
H441 C437 0.950 . S
H442 C439 0.950 . S
C443 C434 1.390 1_455 S
C443 H436 0.950 . S
C443 C440 1.387 1_556 S
C444 C445 1.387 . S
C444 H448 0.950 . S
C444 C453 1.390 1_556 S
C445 C444 1.387 . S
C445 C447 1.387 . S
H446 C453 0.950 . S
C447 C445 1.387 . S
C447 C449 1.390 1_556 S
C447 H451 0.950 . S
H448 C444 0.950 . S
C449 C447 1.390 1_554 S
C449 C450 1.387 . S
C449 H452 0.950 . S
C450 C449 1.387 . S
C450 C453 1.387 . S
H451 C447 0.950 . S
H452 C449 0.950 . S
C453 C444 1.390 1_554 S
C453 H446 0.950 . S
C453 C450 1.387 . S
C454 C455 1.387 . S
C454 H458 0.950 . S
C454 C463 1.390 1_564 S
C455 C454 1.387 . S
C455 C457 1.387 . S
H456 C463 0.950 . S
C457 C455 1.387 . S
C457 C459 1.390 1_564 S
C457 H461 0.950 . S
H458 C454 0.950 . S
C459 C457 1.390 1_546 S
C459 C460 1.387 . S
C459 H462 0.950 . S
C460 C459 1.387 . S
C460 C463 1.387 . S
H461 C457 0.950 . S
H462 C459 0.950 . S
C463 C454 1.390 1_546 S
C463 H456 0.950 . S
C463 C460 1.387 . S
C464 C465 1.387 1_554 S
C464 H468 0.950 . S
C464 C473 1.390 1_655 S
C465 C464 1.387 1_556 S
C465 C467 1.387 . S
H466 C473 0.950 . S
C467 C465 1.387 . S
C467 C469 1.390 1_655 S
C467 H471 0.950 . S
H468 C464 0.950 . S
C469 C467 1.390 1_455 S
C469 C470 1.387 1_556 S
C469 H472 0.950 . S
C470 C469 1.387 1_554 S
C470 C473 1.387 . S
H471 C467 0.950 . S
H472 C469 0.950 . S
C473 C464 1.390 1_455 S
C473 H466 0.950 . S
C473 C470 1.387 . S
C474 C475 1.387 . S
C474 H478 0.950 . S
C474 C483 1.390 . S
C475 C474 1.387 . S
C475 C477 1.387 . S
H476 C483 0.950 . S
C477 C475 1.387 . S
C477 C479 1.390 . S
C477 H481 0.950 . S
H478 C474 0.950 . S
C479 C477 1.390 . S
C479 C480 1.387 . S
C479 H482 0.950 . S
C480 C479 1.387 . S
C480 C483 1.387 . S
H481 C477 0.950 . S
H482 C479 0.950 . S
C483 C474 1.390 . S
C483 H476 0.950 . S
C483 C480 1.387 . S
C484 C485 1.387 . S
C484 H488 0.950 . S
C484 C493 1.390 . S
C485 C484 1.387 . S
C485 C487 1.387 . S
H486 C493 0.950 . S
C487 C485 1.387 . S
C487 C489 1.390 . S
C487 H491 0.950 . S
H488 C484 0.950 . S
C489 C487 1.390 . S
C489 C490 1.387 . S
C489 H492 0.950 . S
C490 C489 1.387 . S
C490 C493 1.387 . S
H491 C487 0.950 . S
H492 C489 0.950 . S
C493 C484 1.390 . S
C493 H486 0.950 . S
C493 C490 1.387 . S
C494 C495 1.387 . S
C494 H498 0.950 . S
C494 C503 1.390 . S
C495 C494 1.387 . S
C495 C497 1.387 . S
H496 C503 0.950 . S
C497 C495 1.387 . S
C497 C499 1.390 . S
C497 H501 0.950 . S
H498 C494 0.950 . S
C499 C497 1.390 . S
C499 C500 1.387 . S
C499 H502 0.950 . S
C500 C499 1.387 . S
C500 C503 1.387 . S
H501 C497 0.950 . S
H502 C499 0.950 . S
C503 C494 1.390 . S
C503 H496 0.950 . S
C503 C500 1.387 . S
C504 C505 1.387 . S
C504 H508 0.950 . S
C504 C513 1.390 . S
C505 C504 1.387 . S
C505 C507 1.387 . S
H506 C513 0.950 . S
C507 C505 1.387 . S
C507 C509 1.390 . S
C507 H511 0.950 . S
H508 C504 0.950 . S
C509 C507 1.390 . S
C509 C510 1.387 . S
C509 H512 0.950 . S
C510 C509 1.387 . S
C510 C513 1.387 . S
H511 C507 0.950 . S
H512 C509 0.950 . S
C513 C504 1.390 . S
C513 H506 0.950 . S
C513 C510 1.387 . S
C514 C515 1.387 . S
C514 H518 0.950 . S
C514 C523 1.390 . S
C515 C514 1.387 . S
C515 C517 1.387 . S
H516 C523 0.950 . S
C517 C515 1.387 . S
C517 C519 1.390 . S
C517 H521 0.950 . S
H518 C514 0.950 . S
C519 C517 1.390 . S
C519 C520 1.387 . S
C519 H522 0.950 . S
C520 C519 1.387 . S
C520 C523 1.387 . S
H521 C517 0.950 . S
H522 C519 0.950 . S
C523 C514 1.390 . S
C523 H516 0.950 . S
C523 C520 1.387 . S
C524 C525 1.387 . S
C524 H528 0.950 . S
C524 C533 1.390 . S
C525 C524 1.387 . S
C525 C527 1.387 . S
H526 C533 0.950 . S
C527 C525 1.387 . S
C527 C529 1.390 . S
C527 H531 0.950 . S
H528 C524 0.950 . S
C529 C527 1.390 . S
C529 C530 1.387 . S
C529 H532 0.950 . S
C530 C529 1.387 . S
C530 C533 1.387 . S
H531 C527 0.950 . S
H532 C529 0.950 . S
C533 C524 1.390 . S
C533 H526 0.950 . S
C533 C530 1.387 . S
C534 C535 1.387 . S
C534 H538 0.950 . S
C534 C543 1.390 . S
C535 C534 1.387 . S
C535 C537 1.387 . S
H536 C543 0.950 . S
C537 C535 1.387 . S
C537 C539 1.390 . S
C537 H541 0.950 . S
H538 C534 0.950 . S
C539 C537 1.390 . S
C539 C540 1.387 . S
C539 H542 0.950 . S
C540 C539 1.387 . S
C540 C543 1.387 . S
H541 C537 0.950 . S
H542 C539 0.950 . S
C543 C534 1.390 . S
C543 H536 0.950 . S
C543 C540 1.387 . S
C544 C545 1.387 . S
C544 H548 0.950 . S
C544 C553 1.390 . S
C545 C544 1.387 . S
C545 C547 1.387 . S
H546 C553 0.950 . S
C547 C545 1.387 . S
C547 C549 1.390 . S
C547 H551 0.950 . S
H548 C544 0.950 . S
C549 C547 1.390 . S
C549 C550 1.387 . S
C549 H552 0.950 . S
C550 C549 1.387 . S
C550 C553 1.387 . S
H551 C547 0.950 . S
H552 C549 0.950 . S
C553 C544 1.390 . S
C553 H546 0.950 . S
C553 C550 1.387 . S
C554 C555 1.387 . S
C554 H558 0.950 . S
C554 C563 1.390 . S
C555 C554 1.387 . S
C555 C557 1.387 . S
H556 C563 0.950 . S
C557 C555 1.387 . S
C557 C559 1.390 . S
C557 H561 0.950 . S
H558 C554 0.950 . S
C559 C557 1.390 . S
C559 C560 1.387 . S
C559 H562 0.950 . S
C560 C559 1.387 . S
C560 C563 1.387 . S
H561 C557 0.950 . S
H562 C559 0.950 . S
C563 C554 1.390 . S
C563 H556 0.950 . S
C563 C560 1.387 . S
C564 C565 1.387 . S
C564 H568 0.950 . S
C564 C573 1.390 . S
C565 C564 1.387 . S
C565 C567 1.387 . S
H566 C573 0.950 . S
C567 C565 1.387 . S
C567 C569 1.390 . S
C567 H571 0.950 . S
H568 C564 0.950 . S
C569 C567 1.390 . S
C569 C570 1.387 . S
C569 H572 0.950 . S
C570 C569 1.387 . S
C570 C573 1.387 . S
H571 C567 0.950 . S
H572 C569 0.950 . S
C573 C564 1.390 . S
C573 H566 0.950 . S
C573 C570 1.387 . S
C574 C575 1.387 . S
C574 H578 0.950 . S
C574 C583 1.390 . S
C575 C574 1.387 . S
C575 C577 1.387 . S
H576 C583 0.950 . S
C577 C575 1.387 . S
C577 C579 1.390 . S
C577 H581 0.950 . S
H578 C574 0.950 . S
C579 C577 1.390 . S
C579 C580 1.387 . S
C579 H582 0.950 . S
C580 C579 1.387 . S
C580 C583 1.387 . S
H581 C577 0.950 . S
H582 C579 0.950 . S
C583 C574 1.390 . S
C583 H576 0.950 . S
C583 C580 1.387 . S
C584 C585 1.387 . S
C584 H588 0.950 . S
C584 C593 1.390 . S
C585 C584 1.387 . S
C585 C587 1.387 . S
H586 C593 0.950 . S
C587 C585 1.387 . S
C587 C589 1.390 . S
C587 H591 0.950 . S
H588 C584 0.950 . S
C589 C587 1.390 . S
C589 C590 1.387 . S
C589 H592 0.950 . S
C590 C589 1.387 . S
C590 C593 1.387 . S
H591 C587 0.950 . S
H592 C589 0.950 . S
C593 C584 1.390 . S
C593 H586 0.950 . S
C593 C590 1.387 . S
C235 C221 1.747 . S
C240 C0 1.747 . S
C245 C195 1.747 . S
C250 C13 1.747 . S
C255 C208 1.746 . S
C260 C26 1.748 . S
C265 C91 1.748 . S
C270 C39 1.747 . S
C275 C104 1.746 . S
C280 C52 1.748 . S
C285 C65 1.747 . S
C290 C78 1.747 . S
C295 C117 1.748 . S
C300 C169 1.746 . S
C305 C130 1.748 . S
C310 C182 1.747 . S
C315 C143 1.747 . S
C320 C156 1.747 . S
C325 C5 1.024 . S
C330 C226 1.024 . S
C335 C200 1.027 . S
C340 C18 1.026 . S
C345 C31 1.024 . S
C350 C213 1.026 . S
C355 C96 1.027 . S
C360 C44 1.027 . S
C365 C57 1.027 . S
C370 C109 1.027 . S
C375 C70 1.027 . S
C380 C83 1.027 . S
C385 C122 1.027 . S
C390 C174 1.027 . S
C395 C187 1.027 . S
C400 C135 1.027 . S
C405 C161 1.024 . S
C410 C148 1.024 . S
C415 C10 1.485 . S
C420 C49 1.484 . S
C425 C62 1.483 . S
C430 C23 1.483 . S
C435 C75 1.484 . S
C440 C36 1.484 . S
C445 C73 1.440 . S
C450 C21 1.440 . S
C455 C34 1.436 . S
C460 C47 1.436 . S
C465 C60 1.436 . S
C470 C8 1.437 . S
C475 C88 1.483 . S
C480 C127 1.484 . S
C485 C140 1.484 . S
C490 C101 1.484 . S
C495 C153 1.483 . S
C500 C114 1.484 . S
C505 C151 1.438 . S
C510 C99 1.439 . S
C515 C112 1.440 . S
C520 C125 1.440 . S
C525 C138 1.440 . S
C530 C86 1.439 . S
C535 C205 1.483 . S
C540 C166 1.484 . S
C545 C218 1.483 . S
C550 C179 1.483 . S
C555 C192 1.484 . S
C560 C231 1.483 . S
C565 C229 1.440 . S
C570 C177 1.439 . S
C575 C190 1.436 . S
C580 C203 1.436 . S
C585 C216 1.436 . S
C590 C164 1.437 . S
