# Generated by pormake.
# Topology irl, (4)-cn, num edge types: 1
# Building blocks:
#     Node 0, Type 0, BuildingBlock: ESEHIV_clean_sbu_0, # of connection points: 4
#     Node 1, Type 0, BuildingBlock: ESEHIV_clean_sbu_0, # of connection points: 4
#     Node 2, Type 0, BuildingBlock: ESEHIV_clean_sbu_0, # of connection points: 4
#     Node 3, Type 0, BuildingBlock: ESEHIV_clean_sbu_0, # of connection points: 4
#     Node 4, Type 0, BuildingBlock: ESEHIV_clean_sbu_0, # of connection points: 4
#     Node 5, Type 0, BuildingBlock: ESEHIV_clean_sbu_0, # of connection points: 4
#     Node 6, Type 0, BuildingBlock: ESEHIV_clean_sbu_0, # of connection points: 4
#     Node 7, Type 0, BuildingBlock: ESEHIV_clean_sbu_0, # of connection points: 4
#     Edge 8, Type (0, 0), BuildingBlock: EZIPEK_clean_linker_0, # of connection points: 2
#     Edge 9, Type (0, 0), BuildingBlock: EZIPEK_clean_linker_0, # of connection points: 2
#     Edge 10, Type (0, 0), BuildingBlock: EZIPEK_clean_linker_0, # of connection points: 2
#     Edge 11, Type (0, 0), BuildingBlock: EZIPEK_clean_linker_0, # of connection points: 2
#     Edge 12, Type (0, 0), BuildingBlock: EZIPEK_clean_linker_0, # of connection points: 2
#     Edge 13, Type (0, 0), BuildingBlock: EZIPEK_clean_linker_0, # of connection points: 2
#     Edge 14, Type (0, 0), BuildingBlock: EZIPEK_clean_linker_0, # of connection points: 2
#     Edge 15, Type (0, 0), BuildingBlock: EZIPEK_clean_linker_0, # of connection points: 2
#     Edge 16, Type (0, 0), BuildingBlock: EZIPEK_clean_linker_0, # of connection points: 2
#     Edge 17, Type (0, 0), BuildingBlock: EZIPEK_clean_linker_0, # of connection points: 2
#     Edge 18, Type (0, 0), BuildingBlock: EZIPEK_clean_linker_0, # of connection points: 2
#     Edge 19, Type (0, 0), BuildingBlock: EZIPEK_clean_linker_0, # of connection points: 2
#     Edge 20, Type (0, 0), BuildingBlock: EZIPEK_clean_linker_0, # of connection points: 2
#     Edge 21, Type (0, 0), BuildingBlock: EZIPEK_clean_linker_0, # of connection points: 2
#     Edge 22, Type (0, 0), BuildingBlock: EZIPEK_clean_linker_0, # of connection points: 2
#     Edge 23, Type (0, 0), BuildingBlock: EZIPEK_clean_linker_0, # of connection points: 2
# Relax obj value: 0.079
# Max RMSD: 0.128
# Mean RMSD: 0.128
data_MOF--net-irl--node1-ESEHIV_clean_sbu_0--edge1-EZIPEK_clean_linker_0
_symmetry_space_group_name_H-M    P1
_symmetry_Int_Tables_number       1
_symmetry_cell_setting            triclinic
loop_
_symmetry_equiv_pos_as_xyz
'x, y, z'
_cell_length_a     8.3263211
_cell_length_b     50.869603
_cell_length_c     21.094373
_cell_angle_alpha  90.182764
_cell_angle_beta   90.135679
_cell_angle_gamma 89.716879
loop_
_atom_site_label
_atom_site_type_symbol
_atom_site_fract_x
_atom_site_fract_y
_atom_site_fract_z
_atom_type_partial_charge
Cu0 Cu 0.26944 0.15929 0.99246 0.0
N1 N 0.17056 0.12678 0.97346 0.0
N2 N 0.09944 0.08438 0.97978 0.0
C3 C 0.137 0.10648 1.01245 0.0
C4 C 0.10573 0.09108 0.9182 0.0
C5 C 0.14881 0.11712 0.91447 0.0
O6 O 0.39505 0.15602 0.07148 0.0
C7 C 0.32376 0.17693 0.86893 0.0
O8 O 0.16815 0.18094 0.87253 0.0
H9 H 0.14659 0.1074 0.06333 0.0
H10 H 0.17059 0.12783 0.87127 0.0
N11 N 0.11832 0.18642 1.00432 0.0
N12 N 0.01758 0.22686 1.01769 0.0
C13 C 0.15216 0.21212 1.01271 0.0
C14 C 0.95678 0.18494 1.00413 0.0
C15 C 0.89414 0.20995 1.0124 0.0
C16 C 0.31551 0.15499 0.12308 0.0
O17 O 0.15796 0.15555 0.12027 0.0
H18 H 0.27286 0.21991 1.01441 0.0
H19 H 0.8895 0.16698 0.99781 0.0
O20 O 0.39877 0.16838 0.9177 0.0
H21 H 0.08612 0.07777 0.87881 0.0
H22 H 0.76829 0.21535 1.01404 0.0
Cu23 Cu 0.77416 0.9088 0.0659 0.0
N24 N 0.91703 0.93719 0.07553 0.0
N25 N 0.00086 0.97891 0.06653 0.0
C26 C 0.9351 0.95799 0.03637 0.0
C27 C 0.02787 0.9708 0.12639 0.0
C28 C 0.97733 0.94518 0.13165 0.0
O29 O 0.64258 0.90941 0.14242 0.0
C30 C 0.73699 0.91007 0.93737 0.0
O31 O 0.89012 0.90415 0.94242 0.0
H32 H 0.88895 0.95862 0.98843 0.0
H33 H 0.97282 0.93399 0.17502 0.0
N34 N 0.87405 0.87568 0.06054 0.0
N35 N 0.89661 0.83193 0.05661 0.0
C36 C 0.79499 0.85261 0.05907 0.0
C37 C 0.03126 0.86932 0.05879 0.0
C38 C 0.04553 0.84222 0.05636 0.0
C39 C 0.70594 0.89946 0.19199 0.0
O40 O 0.84207 0.88652 0.18679 0.0
H41 H 0.66545 0.85099 0.06049 0.0
H42 H 0.12829 0.88338 0.05976 0.0
O43 O 0.65437 0.91348 0.98748 0.0
H44 H 0.07443 0.983 0.1643 0.0
H45 H 0.15603 0.83093 0.05506 0.0
Cu46 Cu 0.9079 0.91436 0.56934 0.0
N47 N -0.01111 0.94841 0.57855 0.0
N48 N 0.02774 0.99167 0.57226 0.0
C49 C 0.94684 0.97085 0.54875 0.0
C50 C 0.12356 0.98215 0.61834 0.0
C51 C 0.09902 0.95545 0.6222 0.0
O52 O 0.75487 0.91207 0.49974 0.0
C53 C 0.68878 0.91756 0.67109 0.0
O54 O 0.60553 0.93299 0.63334 0.0
H55 H 0.85826 0.97203 0.51131 0.0
H56 H 0.15642 0.94203 0.65495 0.0
N57 N 0.07816 0.89102 0.55326 0.0
N58 N 0.22105 0.85416 0.53996 0.0
C59 C 0.07686 0.86452 0.55574 0.0
C60 C 0.22804 0.89747 0.53523 0.0
C61 C 0.3166 0.87473 0.52698 0.0
C62 C 0.80642 0.9177 0.44476 0.0
O63 O 0.954 0.92628 0.43851 0.0
H64 H 0.97262 0.85305 0.56842 0.0
H65 H 0.26963 0.91735 0.52813 0.0
O66 O 0.8134 0.90587 0.65031 0.0
H67 H 0.20552 0.99372 0.64681 0.0
H68 H 0.44094 0.87333 0.5124 0.0
Cu69 Cu 0.22891 0.17153 0.49367 0.0
N70 N 0.09957 0.14151 0.48974 0.0
N71 N 0.0219 0.09977 0.5008 0.0
C72 C 0.13285 0.11798 0.51621 0.0
C73 C 0.914 0.11225 0.46366 0.0
C74 C 0.96215 0.13805 0.45697 0.0
O75 O 0.3678 0.17121 0.41889 0.0
C76 C 0.42105 0.18823 0.60371 0.0
O77 O 0.49115 0.20598 0.56829 0.0
H78 H 0.23852 0.11407 0.54473 0.0
H79 H 0.90322 0.15305 0.42897 0.0
N80 N 0.10575 0.20183 0.48046 0.0
N81 N 0.03757 0.24444 0.48231 0.0
C82 C 0.0929 0.22376 0.51643 0.0
C83 C 0.05385 0.2088 0.42245 0.0
C84 C 0.0125 0.23497 0.42334 0.0
C85 C 0.42072 0.15059 0.39161 0.0
O86 O 0.43177 0.12867 0.42412 0.0
H87 H 0.13371 0.22504 0.56502 0.0
H88 H 0.0585 0.19621 0.38105 0.0
O89 O 0.32259 0.1721 0.57889 0.0
H90 H 0.80958 0.10321 0.44225 0.0
H91 H 0.97413 0.24654 0.383 0.0
Cu92 Cu 0.38513 0.66678 0.02327 0.0
N93 N 0.43512 0.63075 0.02362 0.0
N94 N 0.40099 0.58727 0.0285 0.0
C95 C 0.33345 0.61108 0.03811 0.0
C96 C 0.55036 0.59194 1.007 0.0
C97 C 0.57115 0.61884 1.00399 0.0
O98 O 0.22568 0.67337 0.08824 0.0
C99 C 0.20944 0.66193 0.90946 0.0
O100 O 0.13317 0.64322 0.93958 0.0
H101 H 0.21071 0.61413 0.05325 0.0
H102 H 0.67615 0.629 0.98681 0.0
N103 N 0.56406 0.6878 0.04166 0.0
N104 N 0.71384 0.72381 0.0541 0.0
C105 C 0.57189 0.7141 0.03411 0.0
C106 C 0.70599 0.68075 0.06752 0.0
C107 C 0.79894 0.70298 0.07516 0.0
C108 C 0.26709 0.66553 0.1431 0.0
O109 O 0.40499 0.65322 0.15001 0.0
H110 H 0.47466 0.72595 1.01527 0.0
H111 H 0.7386 0.66093 0.08096 0.0
O112 O 0.3134 0.67559 0.93867 0.0
H113 H 0.63638 0.57697 0.99318 0.0
H114 H 0.91833 0.7039 0.09537 0.0
Cu115 Cu 0.23497 0.40643 0.05759 0.0
N116 N 0.14601 0.44048 0.05523 0.0
N117 N 0.14062 0.48435 0.05188 0.0
C118 C 0.23361 0.46272 0.05623 0.0
C119 C -0.01171 0.47563 0.04786 0.0
C120 C -0.00808 0.44845 0.04983 0.0
O121 O 0.35064 0.40189 0.13884 0.0
C122 C 0.34104 0.41522 0.93045 0.0
O123 O 0.25091 0.43636 0.93462 0.0
H124 H 0.3635 0.46299 0.05871 0.0
H125 H 0.88983 0.43551 0.04598 0.0
N126 N 0.0816 0.37963 0.05649 0.0
N127 N -0.00873 0.33838 0.05009 0.0
C128 C 0.11376 0.35479 0.0377 0.0
C129 C 0.93349 0.37882 0.08199 0.0
C130 C 0.87695 0.35333 0.0778 0.0
C131 C 0.32266 0.41699 0.1863 0.0
O132 O 0.22919 0.43757 0.17867 0.0
H133 H 0.22807 0.34857 1.01826 0.0
H134 H 0.87437 0.39519 0.10503 0.0
O135 O 0.36087 0.40071 0.9794 0.0
H136 H 0.8831 0.488 0.04222 0.0
H137 H 0.76438 0.34608 0.09623 0.0
Cu138 Cu 0.70495 0.42062 0.55912 0.0
N139 N 0.7958 0.45433 0.56462 0.0
N140 N 0.80702 0.49834 0.56046 0.0
C141 C 0.73301 0.47643 0.53901 0.0
C142 C 0.92116 0.48974 0.60098 0.0
C143 C 0.91386 0.46261 0.60348 0.0
O144 O 0.58009 0.42174 0.47998 0.0
C145 C 0.57107 0.3967 0.67417 0.0
O146 O 0.61793 0.37363 0.65347 0.0
H147 H 0.62903 0.4766 0.5081 0.0
H148 H 0.9839 0.44992 0.63398 0.0
N149 N 0.86443 0.39432 0.55098 0.0
N150 N 0.97922 0.35496 0.53262 0.0
C151 C 0.8435 0.36802 0.54857 0.0
C152 C 0.02005 0.39795 0.53671 0.0
C153 C 0.09081 0.37381 0.52464 0.0
C154 C 0.53533 0.40209 0.44687 0.0
O155 O 0.54889 0.37825 0.46963 0.0
H156 H 0.72906 0.35847 0.55455 0.0
H157 H 0.07623 0.41697 0.53336 0.0
O158 O 0.58504 0.41702 0.63917 0.0
H159 H -0.00033 0.50226 0.62858 0.0
H160 H 0.2135 0.37041 0.50973 0.0
Cu161 Cu 0.33593 0.66922 0.51324 0.0
N162 N 0.49236 0.64317 0.49672 0.0
N163 N 0.61794 0.60402 0.50006 0.0
C164 C 0.53617 0.62255 0.53337 0.0
C165 C 0.62838 0.61358 0.44069 0.0
C166 C 0.55155 0.63762 0.43882 0.0
O167 O 0.18503 0.66838 0.44274 0.0
C168 C 0.3103 0.6679 0.64277 0.0
O169 O 0.45775 0.67661 0.63743 0.0
H170 H 0.49951 0.62024 0.58211 0.0
H171 H 0.53054 0.64934 0.39695 0.0
N172 N 0.42014 0.70327 0.51854 0.0
N173 N 0.42347 0.74703 0.52533 0.0
C174 C 0.33117 0.72537 0.52385 0.0
C175 C 0.57405 0.71127 0.51674 0.0
C176 C 0.57641 0.73841 0.52099 0.0
C177 C 0.22249 0.68082 0.39274 0.0
O178 O 0.35411 0.69493 0.39284 0.0
H179 H 0.20127 0.7256 0.52591 0.0
H180 H 0.67679 0.69831 0.51221 0.0
O181 O 0.23037 0.66233 0.59316 0.0
H182 H 0.68119 0.60327 0.40081 0.0
H183 H 0.68146 0.75085 0.52041 0.0
C184 C 0.89271 1.0206 1.02053 0.0
C185 C 0.02481 1.00543 0.04317 0.0
C186 C 0.20432 0.04327 0.02797 0.0
C187 C 0.07334 0.05814 1.00384 0.0
N188 N 0.79313 0.06259 0.98019 0.0
N189 N 0.30822 1.0006 0.06066 0.0
C190 C 0.91776 0.04706 1.00019 0.0
C191 C 0.18102 1.01646 0.04535 0.0
N192 N 0.74301 1.00979 1.01968 0.0
N193 N 0.35142 0.05485 0.03345 0.0
H194 H 0.29663 0.98045 0.06808 0.0
H195 H 0.42682 1.00669 0.06232 0.0
H196 H 0.37565 0.07354 1.01594 0.0
H197 H 0.44811 0.04666 0.05774 0.0
H198 H 0.6451 1.01784 0.99599 0.0
H199 H 0.71581 0.99229 0.04266 0.0
H200 H 0.6741 0.0567 0.97734 0.0
H201 H 0.80821 0.08227 0.96794 0.0
C202 C 0.13787 1.02796 0.50903 0.0
C203 C 0.02012 1.01858 0.55143 0.0
C204 C 0.90815 0.06308 0.56263 0.0
C205 C 0.0219 0.07233 0.51815 0.0
N206 N 0.23348 0.0637 0.44352 0.0
N207 N 0.78447 1.0256 0.61451 0.0
C208 C 0.13406 0.05477 0.48996 0.0
C209 C 0.90206 1.03572 0.57686 0.0
N210 N 0.25487 1.01114 0.48807 0.0
N211 N 0.81097 0.08078 0.59299 0.0
H212 H 0.78125 1.00578 0.62696 0.0
H213 H 0.68553 1.03628 0.63042 0.0
H214 H 0.81531 0.10091 0.58396 0.0
H215 H 0.73404 0.07598 0.62993 0.0
H216 H 0.35539 1.01701 0.46267 0.0
H217 H 0.2553 0.99115 0.49891 0.0
H218 H 0.30698 0.05167 0.41599 0.0
H219 H 0.23545 0.08329 0.42987 0.0
C220 C 0.32934 0.54919 0.09501 0.0
C221 C 0.3258 0.56197 0.0355 0.0
C222 C 0.19899 0.52341 0.98693 0.0
C223 C 0.19625 0.51103 0.0469 0.0
N224 N 0.23752 0.51262 0.15942 0.0
N225 N 0.23359 0.56377 0.92777 0.0
C226 C 0.25545 0.52412 0.10148 0.0
C227 C 0.25322 0.54978 0.9823 0.0
N228 N 0.40667 0.56094 0.14466 0.0
N229 N 0.15616 0.50948 0.93412 0.0
H230 H 0.27215 0.5831 0.9238 0.0
H231 H 0.16801 0.55715 0.88885 0.0
H232 H 0.11661 0.49008 0.93614 0.0
H233 H 0.17106 0.51634 0.88808 0.0
H234 H 0.42765 0.55187 0.18805 0.0
H235 H 0.45812 0.57954 0.14105 0.0
H236 H 0.26575 0.52177 0.20216 0.0
H237 H 0.18315 0.49433 0.16488 0.0
C238 C 0.8713 0.54271 0.51878 0.0
C239 C 0.76163 0.52541 0.54828 0.0
C240 C 0.55376 0.55981 0.54424 0.0
C241 C 0.66751 0.57791 0.51998 0.0
N242 N 0.94299 0.58796 0.49676 0.0
N243 N 0.51136 0.51959 0.60313 0.0
C244 C 0.8291 0.56972 0.51102 0.0
C245 C 0.60657 0.53463 0.5653 0.0
N246 N 0.01303 0.53309 0.4958 0.0
N247 N 0.39406 0.56597 0.54375 0.0
H248 H 0.54899 0.50151 0.62115 0.0
H249 H 0.40297 0.52627 0.62197 0.0
H250 H 0.34933 0.58339 0.52474 0.0
H251 H 0.30483 0.55264 0.55592 0.0
H252 H 0.09074 0.5441 0.46795 0.0
H253 H 0.04572 0.51334 0.49969 0.0
H254 H 0.06513 0.58364 0.49439 0.0
H255 H 0.91665 0.60798 0.4935 0.0
C256 C 0.34659 0.12861 0.22077 0.0
C257 C 0.3924 0.15105 0.18637 0.0
C258 C 0.50209 0.16979 0.2851 0.0
C259 C 0.42344 0.14985 0.32055 0.0
N260 N 0.22929 0.11449 0.31848 0.0
N261 N 0.51335 0.19393 0.1857 0.0
C262 C 0.33623 0.13009 0.28753 0.0
C263 C 0.47236 0.17185 0.21833 0.0
N264 N 0.3101 0.10594 0.1894 0.0
N265 N 0.6055 0.18652 0.31497 0.0
H266 H 0.49749 0.19555 0.13679 0.0
H267 H 0.55531 0.21096 0.20756 0.0
H268 H 0.63119 0.18517 0.3633 0.0
H269 H 0.67637 0.20002 0.29091 0.0
H270 H 0.28438 0.08842 0.21275 0.0
H271 H 0.32807 0.1041 0.14069 0.0
H272 H 0.15523 0.10113 0.29503 0.0
H273 H 0.19674 0.11774 0.36541 0.0
C274 C 0.67984 0.88759 0.36428 0.0
C275 C 0.70853 0.91345 0.38683 0.0
C276 C 0.65624 0.93144 0.28115 0.0
C277 C 0.64821 0.90536 0.25709 0.0
N278 N 0.59205 0.85994 0.27651 0.0
N279 N 0.6658 0.95979 0.37418 0.0
C280 C 0.63764 0.88391 0.29945 0.0
C281 C 0.67608 0.93534 0.34754 0.0
N282 N 0.70483 0.86656 0.40327 0.0
N283 N 0.65723 0.95231 0.24058 0.0
H284 H 0.67756 0.96271 0.42297 0.0
H285 H 0.63008 0.97652 0.34947 0.0
H286 H 0.63229 0.95056 0.19241 0.0
H287 H 0.68664 0.97137 0.25434 0.0
H288 H 0.70459 0.84712 0.38773 0.0
H289 H 0.73228 0.86857 0.45126 0.0
H290 H 0.5703 0.84368 0.30503 0.0
H291 H 0.56152 0.85722 0.22887 0.0
C292 C 0.6631 0.93953 0.77804 0.0
C293 C 0.65376 0.9164 0.74 0.0
C294 C 0.65211 0.88914 0.83562 0.0
C295 C 0.66668 0.91218 0.87312 0.0
N296 N 0.63491 0.95898 0.88279 0.0
N297 N 0.59489 0.87023 0.73214 0.0
C298 C 0.65315 0.93729 0.84511 0.0
C299 C 0.63316 0.8915 0.76883 0.0
N300 N 0.69545 0.96331 0.75094 0.0
N301 N 0.66273 0.86505 0.86387 0.0
H302 H 0.57815 0.8716 0.68319 0.0
H303 H 0.56565 0.85191 0.75056 0.0
H304 H 0.6672 0.86281 0.91303 0.0
H305 H 0.67334 0.84745 0.83886 0.0
H306 H 0.72252 0.98012 0.77706 0.0
H307 H 0.70881 0.96601 0.70235 0.0
H308 H 0.61065 0.97769 0.86517 0.0
H309 H 0.62725 0.95771 0.93204 0.0
C310 C 0.38807 0.20681 0.77925 0.0
C311 C 0.40338 0.18155 0.8067 0.0
C312 C 0.49084 0.1639 0.70363 0.0
C313 C 0.44352 0.18778 0.6741 0.0
N314 N 0.34564 0.23247 0.68417 0.0
N315 N 0.47521 0.13578 0.79617 0.0
C316 C 0.39536 0.20962 0.7121 0.0
C317 C 0.45996 0.1601 0.76952 0.0
N318 N 0.36594 0.22813 0.81793 0.0
N319 N 0.56665 0.14497 0.66843 0.0
H320 H 0.46179 0.13248 0.84458 0.0
H321 H 0.49454 0.11865 0.77008 0.0
H322 H 0.59247 0.14747 0.62043 0.0
H323 H 0.61735 0.12803 0.68771 0.0
H324 H 0.36836 0.24748 0.80206 0.0
H325 H 0.36123 0.22646 0.86723 0.0
H326 H 0.28893 0.24768 0.70867 0.0
H327 H 0.35204 0.23584 0.63566 0.0
C328 C 0.15658 0.69636 0.22534 0.0
C329 C 0.16915 0.67055 0.20032 0.0
C330 C 0.11785 0.65175 0.30504 0.0
C331 C 0.13751 0.67726 0.33126 0.0
N332 N 0.10095 0.72363 0.31783 0.0
N333 N 0.10195 0.62496 0.20924 0.0
C334 C 0.12893 0.69952 0.29135 0.0
C335 C 0.12798 0.64864 0.23808 0.0
N336 N 0.18477 0.71755 0.18745 0.0
N337 N 0.09925 0.63058 0.34389 0.0
H338 H 0.107 0.62285 0.16004 0.0
H339 H 0.06293 0.60821 0.23266 0.0
H340 H 0.07252 0.63247 0.39185 0.0
H341 H 0.10698 0.61114 0.3287 0.0
H342 H 0.19639 0.73668 0.20444 0.0
H343 H 0.20134 0.7159 0.13866 0.0
H344 H 0.08276 0.7407 0.29164 0.0
H345 H 0.08141 0.72581 0.36649 0.0
C346 C 0.58939 0.39923 0.3293 0.0
C347 C 0.48363 0.40584 0.37985 0.0
C348 C 0.26858 0.41386 0.30311 0.0
C349 C 0.37863 0.41064 0.25204 0.0
N350 N 0.65247 0.40409 0.21773 0.0
N351 N 0.23309 0.42484 0.41395 0.0
C352 C 0.54135 0.40406 0.26529 0.0
C353 C 0.32657 0.4149 0.36642 0.0
N354 N 0.73699 0.38874 0.34239 0.0
N355 N 0.10714 0.41462 0.29146 0.0
H356 H 0.27338 0.42623 0.46064 0.0
H357 H 0.12303 0.43411 0.40597 0.0
H358 H 0.05842 0.41148 0.24651 0.0
H359 H 0.0214 0.4152 0.32727 0.0
H360 H 0.80962 0.38003 0.30801 0.0
H361 H 0.78345 0.38757 0.38825 0.0
H362 H 0.7753 0.40199 0.22556 0.0
H363 H 0.62438 0.40851 0.17082 0.0
C364 C 0.28961 0.40825 0.81426 0.0
C365 C 0.39894 0.40707 0.86624 0.0
C366 C 0.61362 0.3941 0.79264 0.0
C367 C 0.51001 0.39933 0.74025 0.0
N368 N 0.25013 0.41247 0.70066 0.0
N369 N 0.67087 0.40169 0.90398 0.0
C370 C 0.34838 0.40691 0.75097 0.0
C371 C 0.56219 0.40038 0.85539 0.0
N372 N 0.12811 0.40928 0.82559 0.0
N373 N 0.76191 0.38326 0.78274 0.0
H374 H 0.63984 0.40683 0.95022 0.0
H375 H 0.79434 0.39985 0.89756 0.0
H376 H 0.81158 0.38049 0.73791 0.0
H377 H 0.83169 0.37541 0.81919 0.0
H378 H 0.04149 0.40879 0.79008 0.0
H379 H 0.07951 0.40782 0.87094 0.0
H380 H 0.13748 0.4212 0.70535 0.0
H381 H 0.28448 0.40975 0.65357 0.0
C382 C 0.15433 0.685 0.80647 0.0
C383 C 0.20885 0.66237 0.83936 0.0
C384 C 0.27005 0.64073 0.73847 0.0
C385 C 0.24225 0.66468 0.70672 0.0
N386 N 0.16083 0.71016 0.70876 0.0
N387 N 0.35179 0.62091 0.83703 0.0
C388 C 0.18343 0.68697 0.74014 0.0
C389 C 0.27369 0.64061 0.80551 0.0
N390 N 0.07446 0.70439 0.8386 0.0
N391 N 0.29555 0.61821 0.70451 0.0
H392 H 0.3704 0.6213 0.88584 0.0
H393 H 0.41429 0.60585 0.81414 0.0
H394 H 0.28902 0.61778 0.65514 0.0
H395 H 0.30427 0.59971 0.72536 0.0
H396 H 0.019 0.72031 0.81648 0.0
H397 H 0.05281 0.70344 0.88725 0.0
H398 H 0.13644 0.72794 0.73145 0.0
H399 H 0.17382 0.71177 0.65972 0.0
C400 C 0.96795 0.2991 0.98141 0.0
C401 C -0.00752 0.31016 0.04236 0.0
C402 C 0.02196 0.26593 0.08758 0.0
C403 C 0.00786 0.25499 0.02603 0.0
N404 N 0.98508 0.26043 0.91343 0.0
N405 N 0.06317 0.30502 0.15212 0.0
C406 C 0.98535 0.27142 0.97259 0.0
C407 C 0.02449 0.29378 0.09524 0.0
N408 N 0.92459 0.3152 0.93251 0.0
N409 N 0.02999 0.24952 0.13861 0.0
H410 H 0.06631 0.32533 0.15883 0.0
H411 H 0.10304 0.29444 0.19131 0.0
H412 H 0.03097 0.22909 0.13384 0.0
H413 H 0.02483 0.25593 0.18546 0.0
H414 H 0.8907 0.30845 0.88785 0.0
H415 H 0.91201 0.3355 0.93813 0.0
H416 H 0.98434 0.27127 0.87168 0.0
H417 H -0.00378 0.24021 0.90612 0.0
C418 C 0.75393 0.7656 0.11221 0.0
C419 C 0.76218 0.75102 0.05494 0.0
C420 C 0.85318 0.79031 0.99827 0.0
C421 C 0.85379 0.80447 0.0562 0.0
N422 N 0.82348 0.80563 0.16928 0.0
N423 N 0.83654 0.74784 0.94537 0.0
C424 C 0.80925 0.79208 0.11355 0.0
C425 C 0.81657 0.76296 0.9984 0.0
N426 N 0.68847 0.75421 0.16463 0.0
N427 N 0.88294 0.80337 0.94309 0.0
H428 H 0.80913 0.72785 0.94444 0.0
H429 H 0.88991 0.75451 0.90391 0.0
H430 H 0.91083 0.82334 0.9421 0.0
H431 H 0.86969 0.79503 0.89829 0.0
H432 H 0.66451 0.76426 0.20662 0.0
H433 H 0.64762 0.73485 0.16463 0.0
H434 H 0.80722 0.79728 0.21374 0.0
H435 H 0.86258 0.82508 0.17114 0.0
C436 C 0.31697 0.81364 0.59235 0.0
C437 C 0.26534 0.82676 0.53675 0.0
C438 C 0.32232 0.78729 0.47323 0.0
C439 C 0.3689 0.77392 0.5292 0.0
N440 N 0.39281 0.77234 0.64244 0.0
N441 N 0.20031 0.8262 0.42593 0.0
C442 C 0.36106 0.78657 0.589 0.0
C443 C 0.26273 0.81356 0.47753 0.0
N444 N 0.32758 0.82744 0.64783 0.0
N445 N 0.33872 0.77485 0.41609 0.0
H446 H 0.15734 0.84548 0.42824 0.0
H447 H 0.18178 0.81732 0.38206 0.0
H448 H 0.37973 0.7555 0.41219 0.0
H449 H 0.32028 0.78389 0.3725 0.0
H450 H 0.37783 0.81998 0.68927 0.0
H451 H 0.29363 0.84716 0.65138 0.0
H452 H 0.3757 0.7794 0.68828 0.0
H453 H 0.42733 0.7526 0.64076 0.0
C454 C 0.12603 0.31245 0.54779 0.0
C455 C -0.00433 0.32689 0.52144 0.0
C456 C 0.87875 0.28551 0.48443 0.0
C457 C 0.02092 0.27176 0.50088 0.0
N458 N 0.29846 0.27447 0.53449 0.0
N459 N 0.77448 0.32688 0.44725 0.0
C460 C 0.15021 0.28579 0.52907 0.0
C461 C 0.87866 0.31333 0.48501 0.0
N462 N 0.22357 0.32374 0.5921 0.0
N463 N 0.74312 0.27201 0.46874 0.0
H464 H 0.78464 0.34703 0.44033 0.0
H465 H 0.69422 0.31767 0.41645 0.0
H466 H 0.73715 0.25155 0.4711 0.0
H467 H 0.63303 0.28129 0.46068 0.0
H468 H 0.31245 0.31323 0.61617 0.0
H469 H 0.20346 0.3426 0.60995 0.0
H470 H 0.39894 0.28483 0.55004 0.0
H471 H 0.32524 0.25587 0.5166 0.0
loop_
_geom_bond_atom_site_label_1
_geom_bond_atom_site_label_2
_geom_bond_distance
_geom_bond_site_symmetry_2
_ccdc_geom_bond_type
Cu0 N1 1.999 . S
Cu0 O6 1.974 . S
Cu0 N11 1.985 . S
Cu0 O20 1.959 1_554 S
N1 Cu0 1.999 . S
N1 C3 1.263 . S
N1 C5 1.389 1_554 S
N2 C3 1.358 . S
N2 C4 1.400 1_554 S
C3 N1 1.263 . S
C3 N2 1.358 . S
C3 H9 0.930 1_455 S
C4 N2 1.400 1_556 S
C4 C5 1.351 . S
C4 H21 0.930 . S
C5 N1 1.389 1_556 S
C5 C4 1.351 . S
C5 H10 0.930 . S
O6 Cu0 1.974 . S
O6 C16 1.282 1_455 S
C7 O8 1.261 1_455 S
C7 O20 1.251 . S
O8 C7 1.261 1_655 S
H9 C3 0.930 1_655 S
H10 C5 0.930 . S
N11 Cu0 1.985 . S
N11 C13 1.335 1_554 S
N11 C14 1.390 . S
N12 C13 1.345 . S
N12 C15 1.336 1_556 S
C13 N11 1.335 1_556 S
C13 N12 1.345 . S
C13 H18 0.930 . S
C14 N11 1.390 . S
C14 C15 1.346 . S
C14 H19 0.930 . S
C15 N12 1.336 1_554 S
C15 C14 1.346 . S
C15 H22 0.929 . S
C16 O6 1.282 1_655 S
C16 O17 1.216 . S
O17 C16 1.216 . S
H18 C13 0.930 . S
H19 C14 0.930 . S
O20 Cu0 1.959 1_556 S
O20 C7 1.251 . S
H21 C4 0.930 . S
H22 C15 0.929 . S
Cu23 N24 1.999 . S
Cu23 O29 1.974 . S
Cu23 N34 1.985 . S
Cu23 O43 1.959 1_554 S
N24 Cu23 1.999 . S
N24 C26 1.263 . S
N24 C28 1.389 1_554 S
N25 C26 1.358 . S
N25 C27 1.400 1_554 S
C26 N24 1.263 . S
C26 N25 1.358 . S
C26 H32 0.930 1_655 S
C27 N25 1.400 1_556 S
C27 C28 1.351 . S
C27 H44 0.930 . S
C28 N24 1.389 1_556 S
C28 C27 1.351 . S
C28 H33 0.930 . S
O29 Cu23 1.974 . S
O29 C39 1.282 1_655 S
C30 O31 1.261 1_655 S
C30 O43 1.251 . S
O31 C30 1.261 1_455 S
H32 C26 0.930 1_455 S
H33 C28 0.930 . S
N34 Cu23 1.985 . S
N34 C36 1.335 1_554 S
N34 C37 1.390 . S
N35 C36 1.345 . S
N35 C38 1.336 1_556 S
C36 N34 1.335 1_556 S
C36 N35 1.345 . S
C36 H41 0.930 . S
C37 N34 1.390 . S
C37 C38 1.346 . S
C37 H42 0.930 . S
C38 N35 1.336 1_554 S
C38 C37 1.346 . S
C38 H45 0.929 . S
C39 O29 1.282 1_455 S
C39 O40 1.216 . S
O40 C39 1.216 . S
H41 C36 0.930 . S
H42 C37 0.930 . S
O43 Cu23 1.959 1_556 S
O43 C30 1.251 . S
H44 C27 0.930 . S
H45 C38 0.929 . S
Cu46 N47 1.999 . S
Cu46 O52 1.974 . S
Cu46 N57 1.985 . S
Cu46 O66 1.959 . S
N47 Cu46 1.999 . S
N47 C49 1.263 . S
N47 C51 1.389 . S
N48 C49 1.358 . S
N48 C50 1.400 . S
C49 N47 1.263 . S
C49 N48 1.358 . S
C49 H55 0.930 1_455 S
C50 N48 1.400 . S
C50 C51 1.351 . S
C50 H67 0.930 . S
C51 N47 1.389 . S
C51 C50 1.351 . S
C51 H56 0.930 . S
O52 Cu46 1.974 . S
O52 C62 1.282 1_455 S
C53 O54 1.261 1_455 S
C53 O66 1.251 . S
O54 C53 1.261 1_655 S
H55 C49 0.930 1_655 S
H56 C51 0.930 . S
N57 Cu46 1.985 . S
N57 C59 1.335 . S
N57 C60 1.390 . S
N58 C59 1.345 . S
N58 C61 1.336 . S
C59 N57 1.335 . S
C59 N58 1.345 . S
C59 H64 0.930 . S
C60 N57 1.390 . S
C60 C61 1.346 . S
C60 H65 0.930 . S
C61 N58 1.336 . S
C61 C60 1.346 . S
C61 H68 0.929 . S
C62 O52 1.282 1_655 S
C62 O63 1.216 . S
O63 C62 1.216 . S
H64 C59 0.930 . S
H65 C60 0.930 . S
O66 Cu46 1.959 . S
O66 C53 1.251 . S
H67 C50 0.930 . S
H68 C61 0.929 . S
Cu69 N70 1.999 . S
Cu69 O75 1.974 . S
Cu69 N80 1.985 . S
Cu69 O89 1.959 . S
N70 Cu69 1.999 . S
N70 C72 1.263 . S
N70 C74 1.389 . S
N71 C72 1.358 . S
N71 C73 1.400 . S
C72 N70 1.263 . S
C72 N71 1.358 . S
C72 H78 0.930 1_655 S
C73 N71 1.400 . S
C73 C74 1.351 . S
C73 H90 0.930 . S
C74 N70 1.389 . S
C74 C73 1.351 . S
C74 H79 0.930 . S
O75 Cu69 1.974 . S
O75 C85 1.282 1_655 S
C76 O77 1.261 1_655 S
C76 O89 1.251 . S
O77 C76 1.261 1_455 S
H78 C72 0.930 1_455 S
H79 C74 0.930 . S
N80 Cu69 1.985 . S
N80 C82 1.335 . S
N80 C83 1.390 . S
N81 C82 1.345 . S
N81 C84 1.336 . S
C82 N80 1.335 . S
C82 N81 1.345 . S
C82 H87 0.930 . S
C83 N80 1.390 . S
C83 C84 1.346 . S
C83 H88 0.930 . S
C84 N81 1.336 . S
C84 C83 1.346 . S
C84 H91 0.929 . S
C85 O75 1.282 1_455 S
C85 O86 1.216 . S
O86 C85 1.216 . S
H87 C82 0.930 . S
H88 C83 0.930 . S
O89 Cu69 1.959 . S
O89 C76 1.251 . S
H90 C73 0.930 . S
H91 C84 0.929 . S
Cu92 N93 1.999 . S
Cu92 O98 1.974 . S
Cu92 N103 1.985 . S
Cu92 O112 1.959 1_554 S
N93 Cu92 1.999 . S
N93 C95 1.263 . S
N93 C97 1.389 1_554 S
N94 C95 1.358 . S
N94 C96 1.400 1_554 S
C95 N93 1.263 . S
C95 N94 1.358 . S
C95 H101 0.930 . S
C96 N94 1.400 1_556 S
C96 C97 1.351 . S
C96 H113 0.930 . S
C97 N93 1.389 1_556 S
C97 C96 1.351 . S
C97 H102 0.930 . S
O98 Cu92 1.974 . S
O98 C108 1.282 . S
C99 O100 1.261 . S
C99 O112 1.251 . S
O100 C99 1.261 . S
H101 C95 0.930 . S
H102 C97 0.930 . S
N103 Cu92 1.985 . S
N103 C105 1.335 1_554 S
N103 C106 1.390 . S
N104 C105 1.345 . S
N104 C107 1.336 1_556 S
C105 N103 1.335 1_556 S
C105 N104 1.345 . S
C105 H110 0.930 . S
C106 N103 1.390 . S
C106 C107 1.346 . S
C106 H111 0.930 . S
C107 N104 1.336 1_554 S
C107 C106 1.346 . S
C107 H114 0.929 . S
C108 O98 1.282 . S
C108 O109 1.216 . S
O109 C108 1.216 . S
H110 C105 0.930 . S
H111 C106 0.930 . S
O112 Cu92 1.959 1_556 S
O112 C99 1.251 . S
H113 C96 0.930 . S
H114 C107 0.929 . S
Cu115 N116 1.999 . S
Cu115 O121 1.974 . S
Cu115 N126 1.985 . S
Cu115 O135 1.959 1_554 S
N116 Cu115 1.999 . S
N116 C118 1.263 . S
N116 C120 1.389 1_554 S
N117 C118 1.358 . S
N117 C119 1.400 1_554 S
C118 N116 1.263 . S
C118 N117 1.358 . S
C118 H124 0.930 . S
C119 N117 1.400 1_556 S
C119 C120 1.351 . S
C119 H136 0.930 . S
C120 N116 1.389 1_556 S
C120 C119 1.351 . S
C120 H125 0.930 . S
O121 Cu115 1.974 . S
O121 C131 1.282 . S
C122 O123 1.261 . S
C122 O135 1.251 . S
O123 C122 1.261 . S
H124 C118 0.930 . S
H125 C120 0.930 . S
N126 Cu115 1.985 . S
N126 C128 1.335 1_554 S
N126 C129 1.390 . S
N127 C128 1.345 . S
N127 C130 1.336 1_556 S
C128 N126 1.335 1_556 S
C128 N127 1.345 . S
C128 H133 0.930 . S
C129 N126 1.390 . S
C129 C130 1.346 . S
C129 H134 0.930 . S
C130 N127 1.336 1_554 S
C130 C129 1.346 . S
C130 H137 0.929 . S
C131 O121 1.282 . S
C131 O132 1.216 . S
O132 C131 1.216 . S
H133 C128 0.930 . S
H134 C129 0.930 . S
O135 Cu115 1.959 1_556 S
O135 C122 1.251 . S
H136 C119 0.930 . S
H137 C130 0.929 . S
Cu138 N139 1.999 . S
Cu138 O144 1.974 . S
Cu138 N149 1.985 . S
Cu138 O158 1.959 . S
N139 Cu138 1.999 . S
N139 C141 1.263 . S
N139 C143 1.389 . S
N140 C141 1.358 . S
N140 C142 1.400 . S
C141 N139 1.263 . S
C141 N140 1.358 . S
C141 H147 0.930 . S
C142 N140 1.400 . S
C142 C143 1.351 . S
C142 H159 0.930 . S
C143 N139 1.389 . S
C143 C142 1.351 . S
C143 H148 0.930 . S
O144 Cu138 1.974 . S
O144 C154 1.282 . S
C145 O146 1.261 . S
C145 O158 1.251 . S
O146 C145 1.261 . S
H147 C141 0.930 . S
H148 C143 0.930 . S
N149 Cu138 1.985 . S
N149 C151 1.335 . S
N149 C152 1.390 . S
N150 C151 1.345 . S
N150 C153 1.336 . S
C151 N149 1.335 . S
C151 N150 1.345 . S
C151 H156 0.930 . S
C152 N149 1.390 . S
C152 C153 1.346 . S
C152 H157 0.930 . S
C153 N150 1.336 . S
C153 C152 1.346 . S
C153 H160 0.929 . S
C154 O144 1.282 . S
C154 O155 1.216 . S
O155 C154 1.216 . S
H156 C151 0.930 . S
H157 C152 0.930 . S
O158 Cu138 1.959 . S
O158 C145 1.251 . S
H159 C142 0.930 . S
H160 C153 0.929 . S
Cu161 N162 1.999 . S
Cu161 O167 1.974 . S
Cu161 N172 1.985 . S
Cu161 O181 1.959 . S
N162 Cu161 1.999 . S
N162 C164 1.263 . S
N162 C166 1.389 . S
N163 C164 1.358 . S
N163 C165 1.400 . S
C164 N162 1.263 . S
C164 N163 1.358 . S
C164 H170 0.930 . S
C165 N163 1.400 . S
C165 C166 1.351 . S
C165 H182 0.930 . S
C166 N162 1.389 . S
C166 C165 1.351 . S
C166 H171 0.930 . S
O167 Cu161 1.974 . S
O167 C177 1.282 . S
C168 O169 1.261 . S
C168 O181 1.251 . S
O169 C168 1.261 . S
H170 C164 0.930 . S
H171 C166 0.930 . S
N172 Cu161 1.985 . S
N172 C174 1.335 . S
N172 C175 1.390 . S
N173 C174 1.345 . S
N173 C176 1.336 . S
C174 N172 1.335 . S
C174 N173 1.345 . S
C174 H179 0.930 . S
C175 N172 1.390 . S
C175 C176 1.346 . S
C175 H180 0.930 . S
C176 N173 1.336 . S
C176 C175 1.346 . S
C176 H183 0.929 . S
C177 O167 1.282 . S
C177 O178 1.216 . S
O178 C177 1.216 . S
H179 C174 0.930 . S
H180 C175 0.930 . S
O181 Cu161 1.959 . S
O181 C168 1.251 . S
H182 C165 0.930 . S
H183 C176 0.929 . S
C184 C185 1.363 1_456 S
C184 C190 1.379 1_565 S
C184 N192 1.356 . S
C185 C184 1.363 1_654 S
C185 C191 1.363 . S
C186 C187 1.363 1_655 S
C186 C191 1.379 1_545 S
C186 N193 1.356 . S
C187 C186 1.363 1_455 S
C187 C190 1.363 1_554 S
N188 C190 1.356 . S
N188 H200 0.984 . S
N188 H201 0.985 . S
N189 C191 1.356 . S
N189 H194 0.984 . S
N189 H195 0.985 . S
C190 C184 1.379 1_545 S
C190 C187 1.363 1_556 S
C190 N188 1.356 . S
C191 C185 1.363 . S
C191 C186 1.379 1_565 S
C191 N189 1.356 . S
N192 C184 1.356 . S
N192 H198 0.984 . S
N192 H199 0.984 . S
N193 C186 1.356 . S
N193 H196 0.984 . S
N193 H197 0.985 . S
H194 N189 0.984 . S
H195 N189 0.985 . S
H196 N193 0.984 . S
H197 N193 0.985 . S
H198 N192 0.984 . S
H199 N192 0.984 . S
H200 N188 0.984 . S
H201 N188 0.985 . S
C202 C203 1.363 . S
C202 C208 1.379 1_565 S
C202 N210 1.356 . S
C203 C202 1.363 . S
C203 C209 1.363 1_455 S
C204 C205 1.363 . S
C204 C209 1.379 1_545 S
C204 N211 1.356 . S
C205 C204 1.363 . S
C205 C208 1.363 1_655 S
N206 C208 1.356 . S
N206 H218 0.984 . S
N206 H219 0.985 . S
N207 C209 1.356 . S
N207 H212 0.984 . S
N207 H213 0.985 . S
C208 C202 1.379 1_545 S
C208 C205 1.363 1_455 S
C208 N206 1.356 . S
C209 C203 1.363 1_655 S
C209 C204 1.379 1_565 S
C209 N207 1.356 . S
N210 C202 1.356 . S
N210 H216 0.984 . S
N210 H217 0.984 . S
N211 C204 1.356 . S
N211 H214 0.984 . S
N211 H215 0.985 . S
H212 N207 0.984 . S
H213 N207 0.985 . S
H214 N211 0.984 . S
H215 N211 0.985 . S
H216 N210 0.984 . S
H217 N210 0.984 . S
H218 N206 0.984 . S
H219 N206 0.985 . S
C220 C221 1.363 . S
C220 C226 1.379 . S
C220 N228 1.356 . S
C221 C220 1.363 . S
C221 C227 1.363 1_554 S
C222 C223 1.363 1_556 S
C222 C227 1.379 . S
C222 N229 1.356 . S
C223 C222 1.363 1_554 S
C223 C226 1.363 . S
N224 C226 1.356 . S
N224 H236 0.984 . S
N224 H237 0.985 . S
N225 C227 1.356 . S
N225 H230 0.984 . S
N225 H231 0.985 . S
C226 C220 1.379 . S
C226 C223 1.363 . S
C226 N224 1.356 . S
C227 C221 1.363 1_556 S
C227 C222 1.379 . S
C227 N225 1.356 . S
N228 C220 1.356 . S
N228 H234 0.984 . S
N228 H235 0.984 . S
N229 C222 1.356 . S
N229 H232 0.984 . S
N229 H233 0.985 . S
H230 N225 0.984 . S
H231 N225 0.985 . S
H232 N229 0.984 . S
H233 N229 0.985 . S
H234 N228 0.984 . S
H235 N228 0.984 . S
H236 N224 0.984 . S
H237 N224 0.985 . S
C238 C239 1.363 . S
C238 C244 1.379 . S
C238 N246 1.356 . S
C239 C238 1.363 . S
C239 C245 1.363 . S
C240 C241 1.363 . S
C240 C245 1.379 . S
C240 N247 1.356 . S
C241 C240 1.363 . S
C241 C244 1.363 . S
N242 C244 1.356 . S
N242 H254 0.984 . S
N242 H255 0.985 . S
N243 C245 1.356 . S
N243 H248 0.984 . S
N243 H249 0.985 . S
C244 C238 1.379 . S
C244 C241 1.363 . S
C244 N242 1.356 . S
C245 C239 1.363 . S
C245 C240 1.379 . S
C245 N243 1.356 . S
N246 C238 1.356 . S
N246 H252 0.984 . S
N246 H253 0.984 . S
N247 C240 1.356 . S
N247 H250 0.984 . S
N247 H251 0.985 . S
H248 N243 0.984 . S
H249 N243 0.985 . S
H250 N247 0.984 . S
H251 N247 0.985 . S
H252 N246 0.984 . S
H253 N246 0.984 . S
H254 N242 0.984 . S
H255 N242 0.985 . S
C256 C257 1.363 1_655 S
C256 C262 1.379 . S
C256 N264 1.356 . S
C257 C256 1.363 1_455 S
C257 C263 1.363 . S
C258 C259 1.363 1_455 S
C258 C263 1.379 . S
C258 N265 1.356 . S
C259 C258 1.363 1_655 S
C259 C262 1.363 . S
N260 C262 1.356 . S
N260 H272 0.984 . S
N260 H273 0.985 . S
N261 C263 1.356 . S
N261 H266 0.984 . S
N261 H267 0.985 . S
C262 C256 1.379 . S
C262 C259 1.363 . S
C262 N260 1.356 . S
C263 C257 1.363 . S
C263 C258 1.379 . S
C263 N261 1.356 . S
N264 C256 1.356 . S
N264 H270 0.984 . S
N264 H271 0.984 . S
N265 C258 1.356 . S
N265 H268 0.984 . S
N265 H269 0.985 . S
H266 N261 0.984 . S
H267 N261 0.985 . S
H268 N265 0.984 . S
H269 N265 0.985 . S
H270 N264 0.984 . S
H271 N264 0.984 . S
H272 N260 0.984 . S
H273 N260 0.985 . S
C274 C275 1.363 . S
C274 C280 1.379 . S
C274 N282 1.356 . S
C275 C274 1.363 . S
C275 C281 1.363 1_455 S
C276 C277 1.363 . S
C276 C281 1.379 . S
C276 N283 1.356 . S
C277 C276 1.363 . S
C277 C280 1.363 1_655 S
N278 C280 1.356 . S
N278 H290 0.984 . S
N278 H291 0.985 . S
N279 C281 1.356 . S
N279 H284 0.984 . S
N279 H285 0.985 . S
C280 C274 1.379 . S
C280 C277 1.363 1_455 S
C280 N278 1.356 . S
C281 C275 1.363 1_655 S
C281 C276 1.379 . S
C281 N279 1.356 . S
N282 C274 1.356 . S
N282 H288 0.984 . S
N282 H289 0.984 . S
N283 C276 1.356 . S
N283 H286 0.984 . S
N283 H287 0.985 . S
H284 N279 0.984 . S
H285 N279 0.985 . S
H286 N283 0.984 . S
H287 N283 0.985 . S
H288 N282 0.984 . S
H289 N282 0.984 . S
H290 N278 0.984 . S
H291 N278 0.985 . S
C292 C293 1.363 . S
C292 C298 1.379 . S
C292 N300 1.356 . S
C293 C292 1.363 . S
C293 C299 1.363 1_455 S
C294 C295 1.363 . S
C294 C299 1.379 . S
C294 N301 1.356 . S
C295 C294 1.363 . S
C295 C298 1.363 1_655 S
N296 C298 1.356 . S
N296 H308 0.984 . S
N296 H309 0.985 . S
N297 C299 1.356 . S
N297 H302 0.984 . S
N297 H303 0.985 . S
C298 C292 1.379 . S
C298 C295 1.363 1_455 S
C298 N296 1.356 . S
C299 C293 1.363 1_655 S
C299 C294 1.379 . S
C299 N297 1.356 . S
N300 C292 1.356 . S
N300 H306 0.984 . S
N300 H307 0.984 . S
N301 C294 1.356 . S
N301 H304 0.984 . S
N301 H305 0.985 . S
H302 N297 0.984 . S
H303 N297 0.985 . S
H304 N301 0.984 . S
H305 N301 0.985 . S
H306 N300 0.984 . S
H307 N300 0.984 . S
H308 N296 0.984 . S
H309 N296 0.985 . S
C310 C311 1.363 1_655 S
C310 C316 1.379 . S
C310 N318 1.356 . S
C311 C310 1.363 1_455 S
C311 C317 1.363 . S
C312 C313 1.363 1_455 S
C312 C317 1.379 . S
C312 N319 1.356 . S
C313 C312 1.363 1_655 S
C313 C316 1.363 . S
N314 C316 1.356 . S
N314 H326 0.984 . S
N314 H327 0.985 . S
N315 C317 1.356 . S
N315 H320 0.984 . S
N315 H321 0.985 . S
C316 C310 1.379 . S
C316 C313 1.363 . S
C316 N314 1.356 . S
C317 C311 1.363 . S
C317 C312 1.379 . S
C317 N315 1.356 . S
N318 C310 1.356 . S
N318 H324 0.984 . S
N318 H325 0.984 . S
N319 C312 1.356 . S
N319 H322 0.984 . S
N319 H323 0.985 . S
H320 N315 0.984 . S
H321 N315 0.985 . S
H322 N319 0.984 . S
H323 N319 0.985 . S
H324 N318 0.984 . S
H325 N318 0.984 . S
H326 N314 0.984 . S
H327 N314 0.985 . S
C328 C329 1.363 . S
C328 C334 1.379 . S
C328 N336 1.356 . S
C329 C328 1.363 . S
C329 C335 1.363 . S
C330 C331 1.363 . S
C330 C335 1.379 . S
C330 N337 1.356 . S
C331 C330 1.363 . S
C331 C334 1.363 . S
N332 C334 1.356 . S
N332 H344 0.984 . S
N332 H345 0.985 . S
N333 C335 1.356 . S
N333 H338 0.984 . S
N333 H339 0.985 . S
C334 C328 1.379 . S
C334 C331 1.363 . S
C334 N332 1.356 . S
C335 C329 1.363 . S
C335 C330 1.379 . S
C335 N333 1.356 . S
N336 C328 1.356 . S
N336 H342 0.984 . S
N336 H343 0.984 . S
N337 C330 1.356 . S
N337 H340 0.984 . S
N337 H341 0.985 . S
H338 N333 0.984 . S
H339 N333 0.985 . S
H340 N337 0.984 . S
H341 N337 0.985 . S
H342 N336 0.984 . S
H343 N336 0.984 . S
H344 N332 0.984 . S
H345 N332 0.985 . S
C346 C347 1.363 . S
C346 C352 1.379 . S
C346 N354 1.356 . S
C347 C346 1.363 . S
C347 C353 1.363 . S
C348 C349 1.363 . S
C348 C353 1.379 . S
C348 N355 1.356 . S
C349 C348 1.363 . S
C349 C352 1.363 . S
N350 C352 1.356 . S
N350 H362 0.984 . S
N350 H363 0.985 . S
N351 C353 1.356 . S
N351 H356 0.984 . S
N351 H357 0.985 . S
C352 C346 1.379 . S
C352 C349 1.363 . S
C352 N350 1.356 . S
C353 C347 1.363 . S
C353 C348 1.379 . S
C353 N351 1.356 . S
N354 C346 1.356 . S
N354 H360 0.984 . S
N354 H361 0.984 . S
N355 C348 1.356 . S
N355 H358 0.984 . S
N355 H359 0.985 . S
H356 N351 0.984 . S
H357 N351 0.985 . S
H358 N355 0.984 . S
H359 N355 0.985 . S
H360 N354 0.984 . S
H361 N354 0.984 . S
H362 N350 0.984 . S
H363 N350 0.985 . S
C364 C365 1.363 . S
C364 C370 1.379 . S
C364 N372 1.356 . S
C365 C364 1.363 . S
C365 C371 1.363 . S
C366 C367 1.363 . S
C366 C371 1.379 . S
C366 N373 1.356 . S
C367 C366 1.363 . S
C367 C370 1.363 . S
N368 C370 1.356 . S
N368 H380 0.984 . S
N368 H381 0.985 . S
N369 C371 1.356 . S
N369 H374 0.984 . S
N369 H375 0.985 . S
C370 C364 1.379 . S
C370 C367 1.363 . S
C370 N368 1.356 . S
C371 C365 1.363 . S
C371 C366 1.379 . S
C371 N369 1.356 . S
N372 C364 1.356 . S
N372 H378 0.984 . S
N372 H379 0.984 . S
N373 C366 1.356 . S
N373 H376 0.984 . S
N373 H377 0.985 . S
H374 N369 0.984 . S
H375 N369 0.985 . S
H376 N373 0.984 . S
H377 N373 0.985 . S
H378 N372 0.984 . S
H379 N372 0.984 . S
H380 N368 0.984 . S
H381 N368 0.985 . S
C382 C383 1.363 . S
C382 C388 1.379 . S
C382 N390 1.356 . S
C383 C382 1.363 . S
C383 C389 1.363 . S
C384 C385 1.363 . S
C384 C389 1.379 . S
C384 N391 1.356 . S
C385 C384 1.363 . S
C385 C388 1.363 . S
N386 C388 1.356 . S
N386 H398 0.984 . S
N386 H399 0.985 . S
N387 C389 1.356 . S
N387 H392 0.984 . S
N387 H393 0.985 . S
C388 C382 1.379 . S
C388 C385 1.363 . S
C388 N386 1.356 . S
C389 C383 1.363 . S
C389 C384 1.379 . S
C389 N387 1.356 . S
N390 C382 1.356 . S
N390 H396 0.984 . S
N390 H397 0.984 . S
N391 C384 1.356 . S
N391 H394 0.984 . S
N391 H395 0.985 . S
H392 N387 0.984 . S
H393 N387 0.985 . S
H394 N391 0.984 . S
H395 N391 0.985 . S
H396 N390 0.984 . S
H397 N390 0.984 . S
H398 N386 0.984 . S
H399 N386 0.985 . S
C400 C401 1.363 . S
C400 C406 1.379 . S
C400 N408 1.356 . S
C401 C400 1.363 . S
C401 C407 1.363 1_556 S
C402 C403 1.363 1_554 S
C402 C407 1.379 . S
C402 N409 1.356 . S
C403 C402 1.363 1_556 S
C403 C406 1.363 . S
N404 C406 1.356 . S
N404 H416 0.985 . S
N404 H417 0.985 . S
N405 C407 1.356 . S
N405 H410 0.984 . S
N405 H411 0.985 . S
C406 C400 1.379 . S
C406 C403 1.363 . S
C406 N404 1.356 . S
C407 C401 1.363 1_554 S
C407 C402 1.379 . S
C407 N405 1.356 . S
N408 C400 1.356 . S
N408 H414 0.984 . S
N408 H415 0.984 . S
N409 C402 1.356 . S
N409 H412 0.984 . S
N409 H413 0.985 . S
H410 N405 0.984 . S
H411 N405 0.985 . S
H412 N409 0.984 . S
H413 N409 0.985 . S
H414 N408 0.984 . S
H415 N408 0.984 . S
H416 N404 0.985 . S
H417 N404 0.985 . S
C418 C419 1.363 1_554 S
C418 C424 1.379 . S
C418 N426 1.356 . S
C419 C418 1.363 1_556 S
C419 C425 1.363 . S
C420 C421 1.363 . S
C420 C425 1.379 . S
C420 N427 1.356 . S
C421 C420 1.363 . S
C421 C424 1.363 1_556 S
N422 C424 1.356 . S
N422 H434 0.984 . S
N422 H435 0.985 . S
N423 C425 1.356 . S
N423 H428 0.984 . S
N423 H429 0.985 . S
C424 C418 1.379 . S
C424 C421 1.363 1_554 S
C424 N422 1.356 . S
C425 C419 1.363 . S
C425 C420 1.379 . S
C425 N423 1.356 . S
N426 C418 1.356 . S
N426 H432 0.984 . S
N426 H433 0.984 . S
N427 C420 1.356 . S
N427 H430 0.984 . S
N427 H431 0.985 . S
H428 N423 0.984 . S
H429 N423 0.985 . S
H430 N427 0.984 . S
H431 N427 0.985 . S
H432 N426 0.984 . S
H433 N426 0.984 . S
H434 N422 0.984 . S
H435 N422 0.985 . S
C436 C437 1.363 . S
C436 C442 1.379 . S
C436 N444 1.356 . S
C437 C436 1.363 . S
C437 C443 1.363 . S
C438 C439 1.363 . S
C438 C443 1.379 . S
C438 N445 1.356 . S
C439 C438 1.363 . S
C439 C442 1.363 . S
N440 C442 1.356 . S
N440 H452 0.984 . S
N440 H453 0.985 . S
N441 C443 1.356 . S
N441 H446 0.984 . S
N441 H447 0.985 1_455 S
C442 C436 1.379 . S
C442 C439 1.363 . S
C442 N440 1.356 . S
C443 C437 1.363 . S
C443 C438 1.379 . S
C443 N441 1.356 . S
N444 C436 1.356 . S
N444 H450 0.984 . S
N444 H451 0.984 . S
N445 C438 1.356 . S
N445 H448 0.984 . S
N445 H449 0.985 . S
H446 N441 0.984 . S
H447 N441 0.985 1_655 S
H448 N445 0.984 . S
H449 N445 0.985 . S
H450 N444 0.984 . S
H451 N444 0.984 . S
H452 N440 0.984 . S
H453 N440 0.985 . S
C454 C455 1.363 . S
C454 C460 1.379 . S
C454 N462 1.356 . S
C455 C454 1.363 . S
C455 C461 1.363 . S
C456 C457 1.363 . S
C456 C461 1.379 . S
C456 N463 1.356 . S
C457 C456 1.363 . S
C457 C460 1.363 . S
N458 C460 1.356 . S
N458 H470 0.984 1_655 S
N458 H471 0.985 . S
N459 C461 1.356 . S
N459 H464 0.984 . S
N459 H465 0.985 . S
C460 C454 1.379 . S
C460 C457 1.363 . S
C460 N458 1.356 . S
C461 C455 1.363 . S
C461 C456 1.379 . S
C461 N459 1.356 . S
N462 C454 1.356 . S
N462 H468 0.984 . S
N462 H469 0.984 . S
N463 C456 1.356 . S
N463 H466 0.984 . S
N463 H467 0.985 . S
H464 N459 0.984 . S
H465 N459 0.985 . S
H466 N463 0.984 . S
H467 N463 0.985 . S
H468 N462 0.984 . S
H469 N462 0.984 . S
H470 N458 0.984 1_455 S
H471 N458 0.985 . S
C185 N25 1.467 . S
C187 N2 1.467 . S
C203 N48 1.466 . S
C205 N71 1.466 . S
C221 N94 1.467 . S
C223 N117 1.467 . S
C239 N140 1.467 . S
C241 N163 1.467 . S
C257 C16 1.506 1_455 S
C259 C85 1.506 1_655 S
C275 C62 1.506 1_455 S
C277 C39 1.506 1_655 S
C293 C53 1.512 . S
C295 C30 1.512 . S
C311 C7 1.512 . S
C313 C76 1.512 . S
C329 C108 1.506 . S
C331 C177 1.506 . S
C347 C154 1.506 . S
C349 C131 1.506 . S
C365 C122 1.512 . S
C367 C145 1.512 . S
C383 C99 1.512 . S
C385 C168 1.512 . S
C401 N127 1.489 . S
C403 N12 1.489 . S
C419 N104 1.489 . S
C421 N35 1.489 . S
C437 N58 1.490 . S
C439 N173 1.490 . S
C455 N150 1.490 . S
C457 N81 1.490 . S
