# Generated by pormake.
# Topology wju, (5)-cn, num edge types: 1
# Building blocks:
#     Node 0, Type 0, BuildingBlock: XOMCOT_clean_sbu_0, # of connection points: 5
#     Node 1, Type 0, BuildingBlock: XOMCOT_clean_sbu_0, # of connection points: 5
#     Node 2, Type 0, BuildingBlock: XOMCOT_clean_sbu_0, # of connection points: 5
#     Node 3, Type 0, BuildingBlock: XOMCOT_clean_sbu_0, # of connection points: 5
#     Node 4, Type 0, BuildingBlock: XOMCOT_clean_sbu_0, # of connection points: 5
#     Node 5, Type 0, BuildingBlock: XOMCOT_clean_sbu_0, # of connection points: 5
#     Node 6, Type 0, BuildingBlock: XOMCOT_clean_sbu_0, # of connection points: 5
#     Node 7, Type 0, BuildingBlock: XOMCOT_clean_sbu_0, # of connection points: 5
#     Node 8, Type 0, BuildingBlock: XOMCOT_clean_sbu_0, # of connection points: 5
#     Node 9, Type 0, BuildingBlock: XOMCOT_clean_sbu_0, # of connection points: 5
#     Node 10, Type 0, BuildingBlock: XOMCOT_clean_sbu_0, # of connection points: 5
#     Node 11, Type 0, BuildingBlock: XOMCOT_clean_sbu_0, # of connection points: 5
#     Edge 12, Type (0, 0), BuildingBlock: XUDNAN_clean_linker_2, # of connection points: 2
#     Edge 13, Type (0, 0), BuildingBlock: XUDNAN_clean_linker_2, # of connection points: 2
#     Edge 14, Type (0, 0), BuildingBlock: XUDNAN_clean_linker_2, # of connection points: 2
#     Edge 15, Type (0, 0), BuildingBlock: XUDNAN_clean_linker_2, # of connection points: 2
#     Edge 16, Type (0, 0), BuildingBlock: XUDNAN_clean_linker_2, # of connection points: 2
#     Edge 17, Type (0, 0), BuildingBlock: XUDNAN_clean_linker_2, # of connection points: 2
#     Edge 18, Type (0, 0), BuildingBlock: XUDNAN_clean_linker_2, # of connection points: 2
#     Edge 19, Type (0, 0), BuildingBlock: XUDNAN_clean_linker_2, # of connection points: 2
#     Edge 20, Type (0, 0), BuildingBlock: XUDNAN_clean_linker_2, # of connection points: 2
#     Edge 21, Type (0, 0), BuildingBlock: XUDNAN_clean_linker_2, # of connection points: 2
#     Edge 22, Type (0, 0), BuildingBlock: XUDNAN_clean_linker_2, # of connection points: 2
#     Edge 23, Type (0, 0), BuildingBlock: XUDNAN_clean_linker_2, # of connection points: 2
#     Edge 24, Type (0, 0), BuildingBlock: XUDNAN_clean_linker_2, # of connection points: 2
#     Edge 25, Type (0, 0), BuildingBlock: XUDNAN_clean_linker_2, # of connection points: 2
#     Edge 26, Type (0, 0), BuildingBlock: XUDNAN_clean_linker_2, # of connection points: 2
#     Edge 27, Type (0, 0), BuildingBlock: XUDNAN_clean_linker_2, # of connection points: 2
#     Edge 28, Type (0, 0), BuildingBlock: XUDNAN_clean_linker_2, # of connection points: 2
#     Edge 29, Type (0, 0), BuildingBlock: XUDNAN_clean_linker_2, # of connection points: 2
#     Edge 30, Type (0, 0), BuildingBlock: XUDNAN_clean_linker_2, # of connection points: 2
#     Edge 31, Type (0, 0), BuildingBlock: XUDNAN_clean_linker_2, # of connection points: 2
#     Edge 32, Type (0, 0), BuildingBlock: XUDNAN_clean_linker_2, # of connection points: 2
#     Edge 33, Type (0, 0), BuildingBlock: XUDNAN_clean_linker_2, # of connection points: 2
#     Edge 34, Type (0, 0), BuildingBlock: XUDNAN_clean_linker_2, # of connection points: 2
#     Edge 35, Type (0, 0), BuildingBlock: XUDNAN_clean_linker_2, # of connection points: 2
#     Edge 36, Type (0, 0), BuildingBlock: XUDNAN_clean_linker_2, # of connection points: 2
#     Edge 37, Type (0, 0), BuildingBlock: XUDNAN_clean_linker_2, # of connection points: 2
#     Edge 38, Type (0, 0), BuildingBlock: XUDNAN_clean_linker_2, # of connection points: 2
#     Edge 39, Type (0, 0), BuildingBlock: XUDNAN_clean_linker_2, # of connection points: 2
#     Edge 40, Type (0, 0), BuildingBlock: XUDNAN_clean_linker_2, # of connection points: 2
#     Edge 41, Type (0, 0), BuildingBlock: XUDNAN_clean_linker_2, # of connection points: 2
# Relax obj value: 0.107
# Max RMSD: 0.150
# Mean RMSD: 0.150
data_MOF--net-wju--node1-XOMCOT_clean_sbu_0--edge1-XUDNAN_clean_linker_2
_symmetry_space_group_name_H-M    P1
_symmetry_Int_Tables_number       1
_symmetry_cell_setting            triclinic
loop_
_symmetry_equiv_pos_as_xyz
'x, y, z'
_cell_length_a     27.873302
_cell_length_b     27.869725
_cell_length_c     103.42145
_cell_angle_alpha  90.122291
_cell_angle_beta   90.044447
_cell_angle_gamma 119.973
loop_
_atom_site_label
_atom_site_type_symbol
_atom_site_fract_x
_atom_site_fract_y
_atom_site_fract_z
_atom_type_partial_charge
Co0 Co 0.31995 0.12809 0.0963 0.0
C1 C 0.33521 0.12988 0.1254 0.0
C2 C 0.27891 0.15672 0.11916 0.0
C3 C 0.28503 0.16333 0.13228 0.0
N4 N 0.31009 0.13569 0.11472 0.0
N5 N 0.32069 0.14702 0.13624 0.0
H6 H 0.36547 0.11638 0.12521 0.0
H7 H 0.2553 0.16929 0.11319 0.0
C8 C 0.208 0.10544 0.08451 0.0
O9 O 0.22684 0.11648 0.07263 0.0
N10 N 0.32928 0.12032 0.07792 0.0
C11 C 0.37073 0.15624 0.07028 0.0
C12 C 0.36344 0.13355 0.05809 0.0
C13 C 0.29888 0.0753 0.07044 0.0
N14 N 0.31785 0.08257 0.0581 0.0
C15 C 0.39596 0.23868 0.10218 0.0
C16 C 0.36989 0.29004 0.08285 0.0
C17 C 0.41877 0.3209 0.09004 0.0
C18 C 0.43018 0.29492 0.10013 0.0
C19 C 0.33619 0.23297 0.08526 0.0
N20 N 0.35081 0.20774 0.09454 0.0
H21 H 0.40783 0.21924 0.10955 0.0
H22 H 0.30097 0.20901 0.07912 0.0
H23 H 0.40444 0.196 0.07335 0.0
H24 H 0.26312 0.03846 0.07405 0.0
O25 O 0.38933 0.13061 0.09922 0.0
O26 O 0.30774 0.0536 0.09897 0.0
O27 O 0.23985 0.10983 0.09394 0.0
C28 C 0.36157 0.07705 0.09993 0.0
H29 H 0.26557 0.18018 0.13842 0.0
H30 H 0.39018 0.15356 0.04993 0.0
H31 H 0.35955 0.30903 0.07502 0.0
H32 H 0.46674 0.31754 0.10611 0.0
Co33 Co 0.21842 0.32753 0.43036 0.0
C34 C 0.21884 0.35794 0.45824 0.0
C35 C 0.24308 0.29676 0.45529 0.0
C36 C 0.24246 0.30559 0.46835 0.0
N37 N 0.22803 0.32923 0.44894 0.0
N38 N 0.22703 0.34393 0.47027 0.0
H39 H 0.20551 0.38758 0.45624 0.0
H40 H 0.25232 0.26738 0.45072 0.0
C41 C 0.13086 0.20969 0.42437 0.0
O42 O 0.11269 0.22818 0.415 0.0
N43 N 0.21036 0.32404 0.41147 0.0
C44 C 0.18424 0.34215 0.4035 0.0
C45 C 0.19013 0.32989 0.39092 0.0
C46 C 0.23107 0.30034 0.40345 0.0
N47 N 0.2195 0.30355 0.39088 0.0
C48 C 0.16338 0.38937 0.42927 0.0
C49 C 0.07179 0.32099 0.44396 0.0
C50 C 0.08019 0.37285 0.44003 0.0
C51 C 0.12614 0.40656 0.43248 0.0
C52 C 0.10987 0.30431 0.44014 0.0
N53 N 0.15504 0.33852 0.4328 0.0
H54 H 0.19962 0.41793 0.42391 0.0
H55 H 0.10476 0.26567 0.44374 0.0
H56 H 0.1605 0.36121 0.40625 0.0
H57 H 0.25412 0.28095 0.40678 0.0
O58 O 0.27338 0.40441 0.42936 0.0
O59 O 0.293 0.33707 0.42828 0.0
O60 O 0.17165 0.24358 0.43143 0.0
C61 C 0.31064 0.39019 0.42808 0.0
H62 H 0.2504 0.28342 0.47585 0.0
H63 H 0.17256 0.33824 0.38247 0.0
H64 H 0.03706 0.29436 0.45007 0.0
H65 H 0.13452 0.44728 0.42948 0.0
Co66 Co 0.90256 0.22121 0.76339 0.0
C67 C 0.8715 0.20075 0.79161 0.0
C68 C 0.94958 0.20663 0.78719 0.0
C69 C 0.93957 0.19619 0.80015 0.0
N70 N 0.90674 0.20867 0.78174 0.0
N71 N 0.89052 0.19226 0.80297 0.0
H72 H 0.83245 0.19984 0.79045 0.0
H73 H 0.98593 0.21249 0.78207 0.0
C74 C 0.92399 0.13114 0.75371 0.0
O75 O 0.87683 0.10944 0.74737 0.0
N76 N 0.90258 0.23674 0.74481 0.0
C77 C 0.88428 0.26894 0.73942 0.0
C78 C 0.89979 0.27847 0.72669 0.0
C79 C 0.93114 0.22924 0.73513 0.0
N80 N 0.92941 0.25367 0.72397 0.0
C81 C 0.78881 0.16174 0.75609 0.0
C82 C 0.75691 0.06941 0.77125 0.0
C83 C 0.71603 0.07669 0.76507 0.0
C84 C 0.733 0.12263 0.75709 0.0
C85 C 0.81318 0.1092 0.76965 0.0
N86 N 0.82856 0.15561 0.76235 0.0
H87 H 0.7989 0.19913 0.75108 0.0
H88 H 0.84407 0.10418 0.77484 0.0
H89 H 0.86254 0.28641 0.74444 0.0
H90 H 0.95608 0.2099 0.73631 0.0
O91 O 0.87761 0.27216 0.76752 0.0
O92 O 0.96582 0.29655 0.76545 0.0
O93 O 0.94154 0.17701 0.75983 0.0
C94 C 0.92886 0.31144 0.76768 0.0
H95 H 0.96674 0.19239 0.80704 0.0
H96 H 0.89096 0.30296 0.72002 0.0
H97 H 0.74545 0.03453 0.77761 0.0
H98 H 0.70304 0.13102 0.75247 0.0
Co99 Co 0.68605 0.90714 0.09685 0.0
C100 C 0.67924 0.89205 0.12605 0.0
C101 C 0.74471 0.97085 0.1197 0.0
C102 C 0.74697 0.96896 0.13295 0.0
N103 N 0.70286 0.92242 0.11525 0.0
N104 N 0.70591 0.91936 0.13696 0.0
H105 H 0.64391 0.85093 0.12613 0.0
H106 H 0.77201 1.00554 0.11368 0.0
C107 C 0.80289 0.95702 0.08452 0.0
O108 O 0.78376 0.9407 0.07278 0.0
N109 N 0.66925 0.89363 0.07844 0.0
C110 C 0.63578 0.84389 0.07293 0.0
C111 C 0.62905 0.85124 0.06008 0.0
C112 C 0.68076 0.9309 0.06882 0.0
N113 N 0.65733 0.90588 0.05745 0.0
C114 C 0.63337 0.79396 0.10421 0.0
C115 C 0.69748 0.76395 0.08982 0.0
C116 C 0.64725 0.72225 0.09498 0.0
C117 C 0.61696 0.73828 0.10287 0.0
C118 C 0.71347 0.8199 0.09174 0.0
N119 N 0.68031 0.83442 0.09846 0.0
H120 H 0.60499 0.80353 0.10902 0.0
H121 H 0.74986 0.85052 0.08684 0.0
H122 H 0.61604 0.80466 0.07792 0.0
H123 H 0.70518 0.97531 0.07017 0.0
O124 O 0.60955 0.88317 0.09983 0.0
O125 O 0.67276 0.97006 0.09603 0.0
O126 O 0.76966 0.94594 0.09406 0.0
C127 C 0.62099 0.93383 0.09842 0.0
H128 H 0.77638 1.00187 0.13916 0.0
H129 H 0.60501 0.8186 0.0532 0.0
H130 H 0.72244 0.75365 0.08365 0.0
H131 H 0.57879 0.70791 0.10742 0.0
Co132 Co 0.80659 0.6922 0.43249 0.0
C133 C 0.80438 0.66985 0.46094 0.0
C134 C 0.79756 0.7414 0.45648 0.0
C135 C 0.79853 0.73678 0.46968 0.0
N136 N 0.80138 0.6997 0.45098 0.0
N137 N 0.80286 0.69182 0.47257 0.0
H138 H 0.80832 0.63345 0.4597 0.0
H139 H 0.7958 0.77397 0.45122 0.0
C140 C 0.90832 0.80132 0.42465 0.0
O141 O 0.91775 0.77805 0.41467 0.0
N142 N 0.81074 0.68615 0.41372 0.0
C143 C 0.80897 0.64416 0.40677 0.0
C144 C 0.80457 0.65285 0.39385 0.0
C145 C 0.80655 0.71944 0.40477 0.0
N146 N 0.8032 0.70018 0.39259 0.0
C147 C 0.83449 0.60734 0.43433 0.0
C148 C 0.94203 0.66979 0.44305 0.0
C149 C 0.91951 0.61256 0.44116 0.0
C150 C 0.865 0.58155 0.43685 0.0
C151 C 0.90991 0.6946 0.44013 0.0
N152 N 0.85703 0.66342 0.43547 0.0
H153 H 0.79211 0.58113 0.43141 0.0
H154 H 0.92722 0.73826 0.442 0.0
H155 H 0.80862 0.60814 0.41057 0.0
H156 H 0.80423 0.75606 0.40717 0.0
O157 O 0.73816 0.62241 0.4327 0.0
O158 O 0.7433 0.7033 0.42993 0.0
O159 O 0.86822 0.77266 0.43237 0.0
C160 C 0.71247 0.6496 0.43076 0.0
H161 H 0.79832 0.76595 0.47656 0.0
H162 H 0.80178 0.62594 0.38597 0.0
H163 H 0.98386 0.69496 0.44667 0.0
H164 H 0.84548 0.53705 0.43564 0.0
Co165 Co 0.11882 0.80708 0.76447 0.0
C166 C 0.10893 0.7981 0.79351 0.0
C167 C 0.10575 0.86827 0.78612 0.0
C168 C 0.10751 0.87148 0.79933 0.0
N169 N 0.10687 0.82244 0.7823 0.0
N170 N 0.11024 0.82793 0.80401 0.0
H171 H 0.11375 0.76196 0.794 0.0
H172 H 0.10752 0.90006 0.7799 0.0
C173 C 0.05833 0.8638 0.75591 0.0
O174 O 0.01385 0.81454 0.75623 0.0
N175 N 0.13069 0.79272 0.74674 0.0
C176 C 0.17139 0.78394 0.74256 0.0
C177 C 0.1627 0.7696 0.72967 0.0
C178 C 0.09748 0.78322 0.73636 0.0
N179 N 0.11609 0.76887 0.72576 0.0
C180 C 0.22316 0.84428 0.77602 0.0
C181 C 0.28661 0.93271 0.75997 0.0
C182 C 0.31299 0.91855 0.76963 0.0
C183 C 0.28011 0.87385 0.7777 0.0
C184 C 0.22849 0.90193 0.75869 0.0
N185 N 0.19773 0.85806 0.76667 0.0
H186 H 0.19963 0.80869 0.78207 0.0
H187 H 0.20853 0.91204 0.75105 0.0
H188 H 0.2044 0.78644 0.74855 0.0
H189 H 0.05932 0.7844 0.73669 0.0
O190 O 0.11928 0.7407 0.76959 0.0
O191 O 0.0441 0.74264 0.76377 0.0
O192 O 0.10566 0.86872 0.75833 0.0
C193 C 0.06657 0.71347 0.76737 0.0
H194 H 0.10953 0.90499 0.80507 0.0
H195 H 0.1886 0.75995 0.72369 0.0
H196 H 0.31058 0.96682 0.75346 0.0
H197 H 0.29839 0.86019 0.78503 0.0
Co198 Co 0.90819 0.7124 0.60228 0.0
C199 C 0.88 0.67944 0.57441 0.0
C200 C 0.95105 0.7605 0.57702 0.0
C201 C 0.94124 0.75078 0.564 0.0
N202 N 0.91254 0.7162 0.58357 0.0
N203 N 0.89686 0.70002 0.56239 0.0
H204 H 0.84421 0.63949 0.57647 0.0
H205 H 0.9837 0.79777 0.58145 0.0
C206 C 0.96509 0.83136 0.60784 0.0
O207 O 1.00163 0.82224 0.61368 0.0
N208 N 0.90562 0.71137 0.62117 0.0
C209 C 0.87475 0.72599 0.62842 0.0
C210 C 0.88914 0.72792 0.64123 0.0
C211 C 0.93893 0.70523 0.62976 0.0
N212 N 0.92971 0.71507 0.64209 0.0
C213 C 0.79696 0.63281 0.60752 0.0
C214 C 0.74765 0.67396 0.59116 0.0
C215 C 0.71475 0.6219 0.59694 0.0
C216 C 0.74006 0.60225 0.60546 0.0
C217 C 0.8048 0.70391 0.59367 0.0
N218 N 0.82874 0.68228 0.60148 0.0
H219 H 0.81615 0.61556 0.61358 0.0
H220 H 0.83024 0.7428 0.58877 0.0
H221 H 0.84504 0.73651 0.62461 0.0
H222 H 0.97123 0.69651 0.62705 0.0
O223 O 0.90683 0.64276 0.60182 0.0
O224 O 0.98342 0.72462 0.60256 0.0
O225 O 0.92244 0.79082 0.60266 0.0
C226 C 0.96045 0.67077 0.6019 0.0
H227 H 0.96438 0.77903 0.55626 0.0
H228 H 0.8715 0.73879 0.64926 0.0
H229 H 0.7296 0.69076 0.58457 0.0
H230 H 0.71658 0.56211 0.61002 0.0
Co231 Co 0.20064 0.87675 0.93616 0.0
C232 C 0.18743 0.85769 0.90712 0.0
C233 C 0.21299 0.94085 0.91294 0.0
C234 C 0.20677 0.93728 0.89974 0.0
N235 N 0.20137 0.89117 0.91767 0.0
N236 N 0.19072 0.88496 0.89603 0.0
H237 H 0.1745 0.81434 0.90737 0.0
H238 H 0.22383 0.97715 0.91876 0.0
C239 C 0.10856 0.89728 0.94641 0.0
O240 O 0.1109 0.88077 0.95814 0.0
N241 N 0.20122 0.86425 0.95471 0.0
C242 C 0.19126 0.81678 0.9605 0.0
C243 C 0.19676 0.82492 0.97364 0.0
C244 C 0.21577 0.90158 0.96447 0.0
N245 N 0.21188 0.87806 0.97614 0.0
C246 C 0.17181 0.76775 0.92852 0.0
C247 C 0.06811 0.71289 0.93966 0.0
C248 C 0.09186 0.6823 0.93497 0.0
C249 C 0.14337 0.71025 0.92893 0.0
C250 C 0.09739 0.77082 0.93868 0.0
N251 N 0.14951 0.79775 0.93352 0.0
H252 H 0.21298 0.78823 0.9245 0.0
H253 H 0.07953 0.79344 0.94295 0.0
H254 H 0.18105 0.77856 0.95562 0.0
H255 H 0.22651 0.94431 0.96312 0.0
O256 O 0.26875 0.87511 0.93481 0.0
O257 O 0.26406 0.95086 0.93842 0.0
O258 O 0.13869 0.89504 0.93736 0.0
C259 C 0.29467 0.9281 0.93676 0.0
H260 H 0.21187 0.97044 0.89343 0.0
H261 H 0.19025 0.7941 0.98084 0.0
H262 H 0.02826 0.69239 0.94445 0.0
H263 H 0.16324 0.68802 0.92528 0.0
Co264 Co 0.33954 0.21073 0.26803 0.0
C265 C 0.35643 0.19361 0.23993 0.0
C266 C 0.29076 0.21133 0.24335 0.0
C267 C 0.29551 0.20683 0.23028 0.0
N268 N 0.3286 0.20292 0.24945 0.0
N269 N 0.33661 0.19567 0.2281 0.0
H270 H 0.3908 0.1866 0.24159 0.0
H271 H 0.26221 0.22116 0.24812 0.0
C272 C 0.2237 0.12134 0.27573 0.0
O273 O 0.2446 0.09828 0.28321 0.0
N274 N 0.34963 0.22188 0.28688 0.0
C275 C 0.39871 0.25129 0.29315 0.0
C276 C 0.38957 0.25551 0.30603 0.0
C277 C 0.31124 0.21159 0.29617 0.0
N278 N 0.33474 0.23055 0.30788 0.0
C279 C 0.39186 0.14944 0.27516 0.0
C280 C 0.33524 0.06116 0.25852 0.0
C281 C 0.38277 0.06768 0.26486 0.0
C282 C 0.4096 0.1113 0.27363 0.0
C283 C 0.31727 0.0996 0.26076 0.0
N284 N 0.34689 0.14444 0.26868 0.0
H285 H 0.41802 0.1856 0.28073 0.0
H286 H 0.28212 0.09559 0.2554 0.0
H287 H 0.43914 0.26989 0.28871 0.0
H288 H 0.26732 0.19292 0.2945 0.0
O289 O 0.41651 0.2624 0.2653 0.0
O290 O 0.35203 0.28631 0.26664 0.0
O291 O 0.25566 0.16662 0.26981 0.0
C292 C 0.40427 0.30154 0.26505 0.0
H293 H 0.27052 0.21134 0.22288 0.0
H294 H 0.42072 0.27642 0.31344 0.0
H295 H 0.31348 0.02802 0.25158 0.0
H296 H 0.44724 0.11884 0.27848 0.0
Co297 Co 0.13014 0.34731 0.59958 0.0
C298 C 0.15503 0.36442 0.57115 0.0
C299 C 0.07384 0.29666 0.57549 0.0
C300 C 0.07891 0.30254 0.5623 0.0
N301 N 0.12136 0.33522 0.58106 0.0
N302 N 0.12979 0.34482 0.5596 0.0
H303 H 0.19606 0.39996 0.57235 0.0
H304 H 0.03724 0.26735 0.58071 0.0
C305 C 0.10805 0.23456 0.60767 0.0
O306 O 0.15468 0.25895 0.61424 0.0
N307 N 0.13475 0.35846 0.61845 0.0
C308 C 0.15803 0.40784 0.62469 0.0
C309 C 0.1431 0.3998 0.63747 0.0
C310 C 0.10365 0.32125 0.62769 0.0
N311 N 0.10875 0.34537 0.63938 0.0
C312 C 0.24566 0.39941 0.60462 0.0
C313 C 0.27023 0.33517 0.58865 0.0
C314 C 0.31359 0.38182 0.59474 0.0
C315 C 0.3004 0.41325 0.60297 0.0
C316 C 0.21503 0.32158 0.59092 0.0
N317 N 0.20334 0.35399 0.5988 0.0
H318 H 0.2383 0.42808 0.6099 0.0
H319 H 0.18196 0.28658 0.5859 0.0
H320 H 0.1815 0.44802 0.62021 0.0
H321 H 0.07432 0.27817 0.62581 0.0
O322 O 0.15504 0.42412 0.59689 0.0
O323 O 0.06715 0.36004 0.59958 0.0
O324 O 0.09114 0.26384 0.60183 0.0
C325 C 0.10389 0.41218 0.59773 0.0
H326 H 0.04739 0.27822 0.5552 0.0
H327 H 0.15499 0.43195 0.64469 0.0
H328 H 0.27893 0.31032 0.58204 0.0
H329 H 0.33257 0.45078 0.60747 0.0
Co330 Co 0.78855 0.09967 0.93385 0.0
C331 C 0.79455 0.11927 0.90477 0.0
C332 C 0.78098 0.03934 0.91026 0.0
C333 C 0.78434 0.04309 0.89702 0.0
N334 N 0.78816 0.08723 0.91524 0.0
N335 N 0.79307 0.09338 0.89354 0.0
H336 H 0.80083 0.16062 0.90516 0.0
H337 H 0.77388 1.0038 0.91592 0.0
C338 C 0.85461 0.04783 0.94509 0.0
O339 O 0.85019 0.06179 0.95696 0.0
N340 N 0.78689 0.10955 0.95254 0.0
C341 C 0.81206 0.15673 0.95959 0.0
C342 C 0.79768 0.1442 0.97242 0.0
C343 C 0.75579 0.06949 0.96118 0.0
N344 N 0.76228 0.08933 0.97339 0.0
C345 C 0.84792 0.21351 0.92721 0.0
C346 C 0.94715 0.24117 0.93909 0.0
C347 C 0.93883 0.28321 0.93413 0.0
C348 C 0.8893 0.26859 0.92776 0.0
C349 C 0.90497 0.18564 0.93789 0.0
N350 N 0.8552 0.17243 0.93233 0.0
H351 H 0.80865 0.20482 0.92328 0.0
H352 H 0.91136 0.15445 0.94231 0.0
H353 H 0.83822 0.1978 0.95577 0.0
H354 H 0.73008 0.02624 0.95863 0.0
O355 O 0.73551 0.12377 0.93199 0.0
O356 O 0.71276 0.03641 0.9347 0.0
O357 O 0.83367 0.06071 0.93561 0.0
C358 C 0.69675 0.07286 0.9333 0.0
H359 H 0.78026 0.01097 0.89045 0.0
H360 H 0.81107 0.17341 0.98038 0.0
H361 H 0.98487 0.25127 0.94426 0.0
H362 H 0.8808 0.29999 0.92407 0.0
Co363 Co 0.70928 0.79742 0.26675 0.0
C364 C 0.69275 0.81391 0.23863 0.0
C365 C 0.76812 0.81329 0.24259 0.0
C366 C 0.76664 0.82329 0.22967 0.0
N367 N 0.72233 0.80801 0.24828 0.0
N368 N 0.71954 0.82402 0.22714 0.0
H369 H 0.65364 0.81261 0.24004 0.0
H370 H 0.80085 0.81065 0.24758 0.0
C371 C 0.8149 0.8996 0.27642 0.0
O372 O 0.78762 0.91155 0.28497 0.0
N373 N 0.69753 0.78487 0.2855 0.0
C374 C 0.64845 0.75078 0.29126 0.0
C375 C 0.65694 0.74372 0.304 0.0
C376 C 0.73557 0.79609 0.29499 0.0
N377 N 0.71162 0.77222 0.30638 0.0
C378 C 0.63029 0.83192 0.27114 0.0
C379 C 0.68618 0.93409 0.25933 0.0
C380 C 0.6319 0.91474 0.26377 0.0
C381 C 0.60457 0.8634 0.26991 0.0
C382 C 0.71134 0.90152 0.26112 0.0
N383 N 0.68314 0.85078 0.26695 0.0
H384 H 0.60572 0.79066 0.27474 0.0
H385 H 0.75215 0.91573 0.25718 0.0
H386 H 0.60883 0.72843 0.28647 0.0
H387 H 0.77981 0.81762 0.29349 0.0
O388 O 0.6388 0.73164 0.26347 0.0
O389 O 0.71833 0.73274 0.26572 0.0
O390 O 0.78977 0.8568 0.26919 0.0
C391 C 0.66493 0.70403 0.26383 0.0
H392 H 0.79792 0.82944 0.22263 0.0
H393 H 0.62537 0.71787 0.3109 0.0
H394 H 0.70843 0.97332 0.25434 0.0
H395 H 0.56204 0.84598 0.27308 0.0
H396 H 0.35561 0.09799 0.03295 0.0
H397 H 0.22377 0.98031 0.05796 0.0
H398 H 0.18209 0.91773 0.03952 0.0
H399 H 0.2707 0.07593 1.00489 0.0
H400 H 0.32268 0.08185 0.99362 0.0
H401 H 0.34313 0.11839 1.00882 0.0
H402 H 0.40094 0.07161 1.01421 0.0
H403 H 0.38088 0.03511 0.999 0.0
H404 H 0.36813 0.99712 1.01389 0.0
H405 H 0.15502 0.86603 0.01861 0.0
H406 H 0.14461 0.82921 0.99642 0.0
H407 H 0.29144 0.98013 0.98456 0.0
C408 C 0.31803 0.0593 0.03471 0.0
C409 C 0.2936 0.04494 0.04719 0.0
C410 C 0.24414 0.99321 0.04871 0.0
C411 C 0.21976 0.95701 0.03821 0.0
C412 C 0.24492 0.97273 0.02615 0.0
C413 C 0.29292 0.0226 0.02432 0.0
C414 C 0.3117 0.02917 1.01031 0.0
C415 C 0.31205 0.07932 1.00404 0.0
C416 C 0.36879 0.0335 1.0093 0.0
C417 C 0.2666 0.97514 1.00458 0.0
C418 C 0.22868 0.94319 1.01394 0.0
C419 C 0.18432 0.89075 1.01119 0.0
C420 C 0.17883 0.87012 0.99859 0.0
C421 C 0.21713 0.90185 0.98881 0.0
C422 C 0.26123 0.95539 0.99183 0.0
H423 H 0.23939 0.34595 0.36657 0.0
H424 H 0.232 0.21293 0.38973 0.0
H425 H 0.25455 0.17563 0.37038 0.0
H426 H 0.17926 0.26611 0.33732 0.0
H427 H 0.22429 0.3219 0.32674 0.0
H428 H 0.20588 0.33699 0.34231 0.0
H429 H 0.30974 0.39729 0.34826 0.0
H430 H 0.32845 0.38276 0.33268 0.0
H431 H 0.35427 0.36776 0.3472 0.0
H432 H 0.28006 0.1542 0.34848 0.0
H433 H 0.31208 0.15392 0.32608 0.0
H434 H 0.30239 0.30034 0.31727 0.0
C435 C 0.24192 0.30863 0.36755 0.0
C436 C 0.23372 0.28222 0.37968 0.0
C437 C 0.2386 0.23413 0.38059 0.0
C438 C 0.25092 0.21241 0.36962 0.0
C439 C 0.25842 0.23934 0.35781 0.0
C440 C 0.25448 0.28665 0.35673 0.0
C441 C 0.26675 0.30919 0.34306 0.0
C442 C 0.21601 0.30848 0.33701 0.0
C443 C 0.31784 0.3677 0.34279 0.0
C444 C 0.2785 0.26733 0.33659 0.0
C445 C 0.27307 0.22709 0.34524 0.0
C446 C 0.28386 0.18515 0.34162 0.0
C447 C 0.30165 0.18502 0.32892 0.0
C448 C 0.30825 0.22629 0.32003 0.0
C449 C 0.29609 0.26762 0.32387 0.0
H450 H 0.97159 0.33901 0.70697 0.0
H451 H 0.94902 0.17543 0.71347 0.0
H452 H 0.99139 0.17942 0.6921 0.0
H453 H 0.94011 0.32342 0.67318 0.0
H454 H 0.99156 0.39371 0.66935 0.0
H455 H 0.95997 0.37744 0.6851 0.0
H456 H 0.0569 0.42052 0.69583 0.0
H457 H 0.08881 0.43714 0.68011 0.0
H458 H 0.10343 0.39619 0.69118 0.0
H459 H 0.03379 0.20142 0.66922 0.0
H460 H 0.07862 0.2422 0.6482 0.0
H461 H 0.07317 0.39113 0.65744 0.0
C462 C 0.97519 0.30381 0.70389 0.0
C463 C 0.95653 0.25665 0.71185 0.0
C464 C 0.96325 0.21204 0.70756 0.0
C465 C 0.98694 0.21387 0.6954 0.0
C466 C 1.00415 0.26082 0.68772 0.0
C467 C 0.99899 0.30517 0.69191 0.0
C468 C 0.02142 0.35135 0.68205 0.0
C469 C 0.97552 0.36208 0.67713 0.0
C470 C 0.07056 0.40442 0.68763 0.0
C471 C 0.03997 0.32622 0.6716 0.0
C472 C 0.02941 0.27383 0.67493 0.0
C473 C 0.04244 0.24254 0.66658 0.0
C474 C 0.06756 0.26581 0.65464 0.0
C475 C 0.07989 0.32 0.65123 0.0
C476 C 0.06526 0.35004 0.65984 0.0
H477 H 0.80636 0.10771 0.99769 0.0
H478 H 0.65935 1.00031 0.97532 0.0
H479 H 0.61473 0.94565 0.99492 0.0
H480 H 0.80383 1.00072 0.01713 0.0
H481 H 0.82785 0.04196 0.03166 0.0
H482 H 0.84714 0.07489 0.01608 0.0
H483 H 0.80679 0.13766 0.02234 0.0
H484 H 0.78721 0.10475 0.03794 0.0
H485 H 0.73588 0.10647 0.02765 0.0
H486 H 0.58668 0.90156 0.01663 0.0
H487 H 0.57842 0.86682 0.03885 0.0
H488 H 0.74431 1.0004 0.0475 0.0
C489 C 0.76452 0.07312 0.99698 0.0
C490 C 0.73618 0.05834 0.98497 0.0
C491 C 0.68191 0.01211 0.98438 0.0
C492 C 0.65613 0.98108 0.99548 0.0
C493 C 0.68521 0.99653 1.00714 0.0
C494 C 0.73832 0.04123 1.00799 0.0
C495 C 0.76127 0.04699 0.02161 0.0
C496 C 0.81308 0.04075 0.02161 0.0
C497 C 0.7735 0.10226 0.02775 0.0
C498 C 0.71287 0.9983 0.02825 0.0
C499 C 0.66934 0.97021 0.01971 0.0
C500 C 0.62051 0.92318 0.02339 0.0
C501 C 0.61634 0.90358 0.03604 0.0
C502 C 0.6608 0.93055 0.04494 0.0
C503 C 0.70939 0.97923 0.041 0.0
H504 H 0.68347 0.68489 0.32211 0.0
H505 H 0.79748 0.86072 0.31814 0.0
H506 H 0.83374 0.86295 0.34027 0.0
H507 H 0.64981 0.68494 0.35503 0.0
H508 H 0.64723 0.62056 0.35879 0.0
H509 H 0.63211 0.63315 0.34263 0.0
H510 H 0.70825 0.61513 0.33348 0.0
H511 H 0.72315 0.6018 0.34959 0.0
H512 H 0.77775 0.65383 0.3398 0.0
H513 H 0.85123 0.84552 0.36391 0.0
H514 H 0.85727 0.80819 0.38531 0.0
H515 H 0.73491 0.64329 0.37278 0.0
C516 C 0.71638 0.72377 0.32588 0.0
C517 C 0.73758 0.77276 0.31849 0.0
C518 C 0.78104 0.82276 0.32365 0.0
C519 C 0.80147 0.82437 0.33622 0.0
C520 C 0.77856 0.77537 0.34339 0.0
C521 C 0.73769 0.72582 0.33825 0.0
C522 C 0.72033 0.67863 0.34771 0.0
C523 C 0.65873 0.65283 0.35125 0.0
C524 C 0.73316 0.63477 0.34232 0.0
C525 C 0.75724 0.70922 0.35909 0.0
C526 C 0.79018 0.76512 0.35654 0.0
C527 C 0.82603 0.80171 0.36591 0.0
C528 C 0.82896 0.78036 0.37805 0.0
C529 C 0.79689 0.72292 0.38062 0.0
C530 C 0.76042 0.68727 0.371 0.0
H531 H 0.04992 0.80233 0.7139 0.0
H532 H 0.1238 0.69854 0.7088 0.0
H533 H 0.08341 0.67308 0.68697 0.0
H534 H 0.92138 0.71208 0.69684 0.0
H535 H 0.91689 0.76847 0.6896 0.0
H536 H 0.9509 0.77808 0.70499 0.0
H537 H 0.03951 0.86187 0.6958 0.0
H538 H 1.00581 0.8525 0.68038 0.0
H539 H 0.07071 0.85317 0.68138 0.0
H540 H 0.03612 0.65951 0.66547 0.0
H541 H 0.98485 0.65867 0.64593 0.0
H542 H 0.94183 0.77158 0.6647 0.0
C543 C 0.05714 0.77384 0.70824 0.0
C544 C 0.09049 0.7528 0.71311 0.0
C545 C 0.09931 0.71605 0.70528 0.0
C546 C 0.07619 0.70099 0.69286 0.0
C547 C 0.04411 0.72287 0.68831 0.0
C548 C 0.03445 0.75845 0.69575 0.0
C549 C 0.99912 0.77673 0.68841 0.0
C550 C 0.94379 0.75769 0.69538 0.0
C551 C 0.03069 0.83981 0.68637 0.0
C552 C 0.99058 0.74593 0.67572 0.0
C553 C 0.01685 0.71507 0.67588 0.0
C554 C 0.0154 0.68358 0.66523 0.0
C555 C 0.98639 0.68363 0.65412 0.0
C556 C 0.95911 0.71502 0.65366 0.0
C557 C 0.96141 0.74647 0.6647 0.0
H558 H 0.62633 0.03628 0.09693 0.0
H559 H 0.51211 0.86031 0.10202 0.0
H560 H 0.43441 0.87782 0.10352 0.0
H561 H 0.55682 0.08297 0.11915 0.0
H562 H 0.56895 0.1415 0.1094 0.0
H563 H 0.61677 0.11581 0.10882 0.0
H564 H 0.60405 0.1039 0.08397 0.0
H565 H 0.55631 0.12967 0.08449 0.0
H566 H 0.53537 0.06303 0.07733 0.0
H567 H 0.36762 0.91286 0.1039 0.0
H568 H 0.3171 0.96494 0.10331 0.0
H569 H 0.47328 0.11797 0.0985 0.0
C570 C 0.58501 1.00159 0.09839 0.0
C571 C 0.57562 0.94697 0.09936 0.0
C572 C 0.52074 0.90265 0.10126 0.0
C573 C 0.47604 0.91203 0.10213 0.0
C574 C 0.48647 0.96609 0.10114 0.0
C575 C 0.53949 0.01023 0.09934 0.0
C576 C 0.53872 0.06417 0.09852 0.0
C577 C 0.57231 0.10342 0.10964 0.0
C578 C 0.55986 0.09181 0.08529 0.0
C579 C 0.47718 0.04316 0.10007 0.0
C580 C 0.44777 0.98644 0.10156 0.0
C581 C 0.39019 0.95743 0.10282 0.0
C582 C 0.36181 0.98725 0.10248 0.0
C583 C 0.39112 0.04542 0.10095 0.0
C584 C 0.4496 0.07352 0.09982 0.0
H585 H 0.40673 0.38443 0.43169 0.0
H586 H 0.34704 0.49616 0.42108 0.0
H587 H 0.44258 0.57368 0.42018 0.0
H588 H 0.51524 0.47911 0.45229 0.0
H589 H 0.56424 0.45799 0.44761 0.0
H590 H 0.49106 0.40945 0.44664 0.0
H591 H 0.50088 0.39246 0.42239 0.0
H592 H 0.57421 0.44066 0.42332 0.0
H593 H 0.53242 0.45054 0.4115 0.0
H594 H 0.54388 0.64101 0.42158 0.0
H595 H 0.64577 0.6925 0.42435 0.0
H596 H 0.64118 0.53865 0.43392 0.0
C597 C 0.41398 0.42502 0.42898 0.0
C598 C 0.36928 0.43407 0.42648 0.0
C599 C 0.38047 0.48805 0.42311 0.0
C600 C 0.43471 0.53256 0.42254 0.0
C601 C 0.4778 0.52278 0.42534 0.0
C602 C 0.46833 0.4704 0.4284 0.0
C603 C 0.52248 0.47208 0.43134 0.0
C604 C 0.52327 0.45357 0.4453 0.0
C605 C 0.53312 0.43685 0.42155 0.0
C606 C 0.56329 0.53344 0.42959 0.0
C607 C 0.53664 0.5619 0.42611 0.0
C608 C 0.56541 0.61917 0.42422 0.0
C609 C 0.62319 0.64813 0.42586 0.0
C610 C 0.65144 0.61973 0.42932 0.0
C611 C 0.62084 0.56163 0.43122 0.0
H612 H 0.10923 0.64401 0.76672 0.0
H613 H 0.95424 0.64451 0.76974 0.0
H614 H 0.90368 0.54205 0.77123 0.0
H615 H 0.05655 0.52357 0.74642 0.0
H616 H 0.09859 0.49838 0.75365 0.0
H617 H 0.12262 0.57156 0.7535 0.0
H618 H 0.13412 0.57511 0.7784 0.0
H619 H 0.1099 0.50186 0.77864 0.0
H620 H 0.07587 0.52977 0.78835 0.0
H621 H 0.87062 0.44057 0.77255 0.0
H622 H 0.8547 0.34578 0.7718 0.0
H623 H 0.03105 0.40941 0.76678 0.0
C624 C 0.06464 0.62259 0.76781 0.0
C625 C 0.03554 0.65221 0.76827 0.0
C626 C 0.97724 0.62266 0.76943 0.0
C627 C 0.94832 0.56454 0.77032 0.0
C628 C 0.97832 0.53668 0.76987 0.0
C629 C 0.03513 0.56463 0.7685 0.0
C630 C 0.05713 0.52458 0.76762 0.0
C631 C 0.08538 0.52984 0.75452 0.0
C632 C 0.09659 0.53337 0.77893 0.0
C633 C 1.00374 0.4695 0.76875 0.0
C634 C 0.95899 0.47775 0.77017 0.0
C635 C 0.90531 0.43367 0.77141 0.0
C636 C 0.89683 0.37979 0.77098 0.0
C637 C 0.94162 0.36978 0.76921 0.0
C638 C 0.99598 0.41552 0.7682 0.0
H639 H 1.00231 0.40662 0.60109 0.0
H640 H 0.17643 0.52107 0.59364 0.0
H641 H 0.15909 0.59914 0.59419 0.0
H642 H 0.94985 0.47908 0.58155 0.0
H643 H 0.8943 0.46539 0.59254 0.0
H644 H 0.91999 0.41768 0.59143 0.0
H645 H 0.93871 0.42696 0.61611 0.0
H646 H 0.91342 0.47499 0.61727 0.0
H647 H 0.98182 0.49466 0.62308 0.0
H648 H 0.12448 0.66603 0.59621 0.0
H649 H 0.07238 0.71613 0.5983 0.0
H650 H 0.92079 0.55945 0.60398 0.0
C651 C 0.03658 0.44804 0.59948 0.0
C652 C 0.09069 0.45751 0.59733 0.0
C653 C 0.13453 0.5125 0.59532 0.0
C654 C 0.12523 0.55737 0.59563 0.0
C655 C 0.07176 0.5469 0.59792 0.0
C656 C 0.028 0.49367 0.59971 0.0
C657 C 0.97458 0.49429 0.60195 0.0
C658 C 0.93218 0.46222 0.59122 0.0
C659 C 0.95075 0.47137 0.6154 0.0
C660 C 0.99537 0.55599 0.60116 0.0
C661 C 0.05161 0.58562 0.5989 0.0
C662 C 0.0803 0.6433 0.59793 0.0
C663 C 0.05049 0.67144 0.59917 0.0
C664 C 0.99265 0.64179 0.60126 0.0
C665 C 0.96501 0.58334 0.60233 0.0
H666 H 0.60059 0.96996 0.93427 0.0
H667 H 0.66084 0.14695 0.93378 0.0
H668 H 0.56555 0.12923 0.9352 0.0
H669 H 0.47969 0.93184 0.91455 0.0
H670 H 0.43574 0.86922 0.92336 0.0
H671 H 0.50925 0.89535 0.92263 0.0
H672 H 0.5139 0.8965 0.94767 0.0
H673 H 0.4404 0.87052 0.94847 0.0
H674 H 0.48772 0.93393 0.95669 0.0
H675 H 0.46419 0.09371 0.93679 0.0
H676 H 0.36178 0.04091 0.93743 0.0
H677 H 0.36575 0.88718 0.93636 0.0
C678 C 0.59359 1.00484 0.93447 0.0
C679 C 0.63834 0.05979 0.93391 0.0
C680 C 0.62741 0.10438 0.93415 0.0
C681 C 0.57331 0.09487 0.935 0.0
C682 C 0.53016 0.04047 0.93555 0.0
C683 C 0.53941 0.9961 0.93522 0.0
C684 C 0.48507 0.94174 0.93564 0.0
C685 C 0.47697 0.90753 0.92331 0.0
C686 C 0.48159 0.90874 0.94785 0.0
C687 C 0.44426 0.96276 0.93621 0.0
C688 C 0.47122 0.01986 0.93624 0.0
C689 C 0.44246 0.04889 0.93675 0.0
C690 C 0.38438 0.01865 0.93713 0.0
C691 C 0.35585 0.96009 0.93691 0.0
C692 C 0.38639 0.93199 0.9365 0.0
H693 H 0.39876 0.39861 0.26637 0.0
H694 H 0.51246 0.3367 0.26035 0.0
H695 H 0.5901 0.43193 0.25881 0.0
H696 H 0.4681 0.51673 0.24433 0.0
H697 H 0.45623 0.5624 0.25449 0.0
H698 H 0.40828 0.4889 0.25472 0.0
H699 H 0.42128 0.4878 0.2795 0.0
H700 H 0.46935 0.56123 0.27934 0.0
H701 H 0.48999 0.51464 0.28605 0.0
H702 H 0.65699 0.53337 0.25901 0.0
H703 H 0.70804 0.63571 0.26016 0.0
H704 H 0.55269 0.6339 0.26546 0.0
C705 C 0.43991 0.40521 0.2646 0.0
C706 C 0.44926 0.35992 0.26349 0.0
C707 C 0.50392 0.37044 0.26126 0.0
C708 C 0.54856 0.42454 0.26036 0.0
C709 C 0.53825 0.46821 0.26163 0.0
C710 C 0.48536 0.4594 0.26363 0.0
C711 C 0.48641 0.51423 0.26486 0.0
C712 C 0.45276 0.52095 0.25395 0.0
C713 C 0.46552 0.51978 0.27824 0.0
C714 C 0.548 0.55476 0.26335 0.0
C715 C 0.57709 0.52724 0.26152 0.0
C716 C 0.63465 0.55552 0.26032 0.0
C717 C 0.66335 0.61361 0.26101 0.0
C718 C 0.63444 0.6428 0.26279 0.0
C719 C 0.57595 0.61279 0.26393 0.0
H720 H 0.35045 0.25771 0.20713 0.0
H721 H 0.35816 0.1148 0.22047 0.0
H722 H 0.36835 0.09188 0.19772 0.0
H723 H 0.26684 0.19634 0.18128 0.0
H724 H 0.29892 0.25551 0.17071 0.0
H725 H 0.30285 0.26546 0.18792 0.0
H726 H 0.41003 0.3222 0.18672 0.0
H727 H 0.40645 0.31285 0.16943 0.0
H728 H 0.44723 0.29247 0.17904 0.0
H729 H 0.36256 0.07774 0.1728 0.0
H730 H 0.34339 0.07541 0.14922 0.0
H731 H 0.34143 0.22909 0.15306 0.0
C732 C 0.35597 0.22253 0.20527 0.0
C733 C 0.35381 0.18812 0.21549 0.0
C734 C 0.36059 0.14209 0.21274 0.0
C735 C 0.36614 0.12875 0.19986 0.0
C736 C 0.36582 0.16254 0.1899 0.0
C737 C 0.36183 0.2091 0.19257 0.0
C738 C 0.3575 0.23633 0.18035 0.0
C739 C 0.30332 0.23848 0.18005 0.0
C740 C 0.40834 0.2944 0.1788 0.0
C741 C 0.35715 0.19668 0.17033 0.0
C742 C 0.36275 0.15466 0.17588 0.0
C743 C 0.3592 0.1111 0.16838 0.0
C744 C 0.34848 0.11009 0.155 0.0
C745 C 0.34072 0.15193 0.14934 0.0
C746 C 0.34686 0.19635 0.15711 0.0
H747 H 0.2681 0.33805 0.49383 0.0
H748 H 0.15941 0.38659 0.47511 0.0
H749 H 0.13296 0.40534 0.49647 0.0
H750 H 0.1777 0.26348 0.51863 0.0
H751 H 0.23032 0.28261 0.53086 0.0
H752 H 0.24714 0.28132 0.51413 0.0
H753 H 0.32592 0.38351 0.51584 0.0
H754 H 0.30917 0.38515 0.53261 0.0
H755 H 0.31047 0.43553 0.5215 0.0
H756 H 0.1084 0.40622 0.51983 0.0
H757 H 0.08808 0.38912 0.54323 0.0
H758 H 0.21221 0.34028 0.54692 0.0
C759 C 0.23921 0.35323 0.49415 0.0
C760 C 0.21601 0.36082 0.48266 0.0
C761 C 0.17857 0.38114 0.48365 0.0
C762 C 0.16312 0.39178 0.4958 0.0
C763 C 0.18572 0.38239 0.5069 0.0
C764 C 0.22324 0.36385 0.50617 0.0
C765 C 0.23791 0.35248 0.51953 0.0
C766 C 0.22231 0.29136 0.52086 0.0
C767 C 0.29953 0.39151 0.52254 0.0
C768 C 0.20145 0.36584 0.52789 0.0
C769 C 0.17213 0.38364 0.52041 0.0
C770 C 0.13209 0.39364 0.5258 0.0
C771 C 0.12089 0.38403 0.53906 0.0
C772 C 0.14974 0.36501 0.54682 0.0
C773 C 0.19125 0.35685 0.54122 0.0
H774 H 0.89365 0.12312 0.82076 0.0
H775 H 0.83115 0.23523 0.81393 0.0
H776 H 0.79748 0.22206 0.83663 0.0
H777 H 0.78185 0.02782 0.84175 0.0
H778 H 0.82761 0.01573 0.8518 0.0
H779 H 0.8437 0.03268 0.83497 0.0
H780 H 0.93961 0.11512 0.84139 0.0
H781 H 0.92367 0.09873 0.85823 0.0
H782 H 0.94327 0.16704 0.85242 0.0
H783 H 0.77731 0.20067 0.86108 0.0
H784 H 0.76513 0.16703 0.88372 0.0
H785 H 0.84043 0.06848 0.8737 0.0
C786 C 0.87258 0.14469 0.82401 0.0
C787 C 0.86525 0.18047 0.81562 0.0
C788 C 0.83682 0.20736 0.82018 0.0
C789 C 0.81795 0.20034 0.83308 0.0
C790 C 0.82722 0.16571 0.84121 0.0
C791 C 0.85323 0.13775 0.83672 0.0
C792 C 0.85871 0.10309 0.84723 0.0
C793 C 0.82601 0.04116 0.84373 0.0
C794 C 0.91994 0.12216 0.84998 0.0
C795 C 0.83243 0.11627 0.85846 0.0
C796 C 0.81463 0.15261 0.85489 0.0
C797 C 0.79068 0.1718 0.86389 0.0
C798 C 0.78425 0.1528 0.87675 0.0
C799 C 0.80129 0.11467 0.88049 0.0
C800 C 0.82591 0.09669 0.87114 0.0
H801 H 0.7812 0.94721 0.15628 0.0
H802 H 0.60621 0.84612 0.14761 0.0
H803 H 0.58859 0.81339 0.17033 0.0
H804 H 0.79052 0.85072 0.17695 0.0
H805 H 0.83988 0.90295 0.18775 0.0
H806 H 0.83735 0.91939 0.17103 0.0
H807 H 0.82336 1.00101 0.17798 0.0
H808 H 0.82566 0.98469 0.19473 0.0
H809 H 0.76691 0.98812 0.18859 0.0
H810 H 0.59138 0.79206 0.19457 0.0
H811 H 0.61561 0.77911 0.21694 0.0
H812 H 0.7885 0.89412 0.20898 0.0
C813 C 0.73901 0.91876 0.15916 0.0
C814 C 0.69502 0.89963 0.15016 0.0
C815 C 0.64062 0.8612 0.15431 0.0
C816 C 0.63021 0.84269 0.16722 0.0
C817 C 0.67467 0.86274 0.17586 0.0
C818 C 0.72805 0.8997 0.17192 0.0
C819 C 0.76922 0.91352 0.18281 0.0
C820 C 0.81173 0.89555 0.17943 0.0
C821 C 0.79797 0.97551 0.18623 0.0
C822 C 0.73094 0.87841 0.19352 0.0
C823 C 0.67642 0.84974 0.18945 0.0
C824 C 0.63401 0.8144 0.19781 0.0
C825 C 0.64799 0.80749 0.21052 0.0
C826 C 0.70392 0.83524 0.21467 0.0
C827 C 0.74545 0.87174 0.20605 0.0
H828 H 0.77619 0.72092 0.49554 0.0
H829 H 0.84533 0.62516 0.47909 0.0
H830 H 0.86433 0.60467 0.50111 0.0
H831 H 0.87763 0.7867 0.51893 0.0
H832 H 0.83168 0.78774 0.53104 0.0
H833 H 0.81545 0.78686 0.51419 0.0
H834 H 0.72008 0.69879 0.51786 0.0
H835 H 0.73625 0.69923 0.53476 0.0
H836 H 0.71702 0.63845 0.52505 0.0
H837 H 0.88563 0.60371 0.52509 0.0
H838 H 0.91077 0.62661 0.54826 0.0
H839 H 0.83165 0.72602 0.54857 0.0
C840 C 0.79494 0.69525 0.49645 0.0
C841 C 0.80921 0.67486 0.48541 0.0
C842 C 0.8332 0.64087 0.48728 0.0
C843 C 0.84428 0.62904 0.4998 0.0
C844 C 0.83098 0.6512 0.51041 0.0
C845 C 0.80676 0.68359 0.50882 0.0
C846 C 0.80122 0.70705 0.5216 0.0
C847 C 0.83343 0.77084 0.52142 0.0
C848 C 0.73999 0.68452 0.52502 0.0
C849 C 0.82774 0.68434 0.53064 0.0
C850 C 0.8437 0.65124 0.52408 0.0
C851 C 0.87232 0.62867 0.53033 0.0
C852 C 0.88615 0.64147 0.54347 0.0
C853 C 0.87168 0.67669 0.55015 0.0
C854 C 0.84141 0.69755 0.5437 0.0
H855 H 0.22721 0.94311 0.87363 0.0
H856 H 0.12383 0.77702 0.88858 0.0
H857 H 0.098 0.74161 0.86623 0.0
H858 H 0.13531 0.93469 0.84944 0.0
H859 H 0.18874 0.97554 0.83792 0.0
H860 H 0.20331 0.98605 0.85496 0.0
H861 H 0.28554 0.96833 0.85198 0.0
H862 H 0.27112 0.95764 0.83491 0.0
H863 H 0.2738 0.90496 0.84444 0.0
H864 H 0.0789 0.72572 0.8417 0.0
H865 H 0.06626 0.73285 0.81808 0.0
H866 H 0.18011 0.90952 0.82002 0.0
C867 C 0.1992 0.89924 0.87229 0.0
C868 C 0.17767 0.86307 0.88298 0.0
C869 C 0.14163 0.80573 0.88063 0.0
C870 C 0.12652 0.78517 0.86793 0.0
C871 C 0.14792 0.82234 0.85765 0.0
C872 C 0.18359 0.8782 0.85975 0.0
C873 C 0.19865 0.91042 0.84724 0.0
C874 C 0.18038 0.95423 0.8474 0.0
C875 C 0.26098 0.93688 0.84449 0.0
C876 C 0.1648 0.86433 0.83776 0.0
C877 C 0.13636 0.81354 0.84382 0.0
C878 C 0.10129 0.76533 0.83688 0.0
C879 C 0.09445 0.76957 0.82349 0.0
C880 C 0.12184 0.82171 0.81729 0.0
C881 C 0.15818 0.8692 0.82454 0.0
H882 H 0.53818 0.64525 0.09056 0.0
H883 H 0.70244 0.6639 0.09164 0.0
H884 H 0.66122 0.56369 0.08722 0.0
H885 H 0.47338 0.52232 0.10808 0.0
H886 H 0.40896 0.49287 0.09927 0.0
H887 H 0.45204 0.56684 0.10049 0.0
H888 H 0.45403 0.57431 0.0755 0.0
H889 H 0.41112 0.50014 0.0742 0.0
H890 H 0.47689 0.53516 0.06601 0.0
H891 H 0.60162 0.4607 0.08491 0.0
H892 H 0.52873 0.36244 0.08609 0.0
H893 H 0.40289 0.41034 0.08761 0.0
C894 C 0.56578 0.62854 0.08988 0.0
C895 C 0.62375 0.66268 0.09156 0.0
C896 C 0.65808 0.63892 0.09028 0.0
C897 C 0.63499 0.582 0.08778 0.0
C898 C 0.57756 0.54952 0.08651 0.0
C899 C 0.54344 0.57198 0.08754 0.0
C900 C 0.48282 0.52762 0.08698 0.0
C901 C 0.45255 0.52741 0.09945 0.0
C902 C 0.45456 0.53475 0.07496 0.0
C903 C 0.48795 0.47622 0.08591 0.0
C904 C 0.54301 0.48993 0.0854 0.0
C905 C 0.55847 0.44958 0.08517 0.0
C906 C 0.5168 0.39394 0.08587 0.0
C907 C 0.4603 0.37901 0.08693 0.0
C908 C 0.44565 0.42065 0.08658 0.0
H909 H 0.01534 0.39488 0.42459 0.0
H910 H 0.07166 0.40812 0.46412 0.0
H911 H 0.03718 0.47284 0.46906 0.0
H912 H 0.05689 0.53203 0.42038 0.0
H913 H 0.99896 0.52187 0.41061 0.0
H914 H 0.01978 0.4703 0.41068 0.0
H915 H 0.9213 0.39469 0.41759 0.0
H916 H 0.89951 0.4456 0.41709 0.0
H917 H 0.8898 0.40608 0.43161 0.0
H918 H 1.0067 0.54609 0.46862 0.0
H919 H 0.97024 0.60931 0.46371 0.0
H920 H 0.93576 0.54716 0.42439 0.0
C921 C 0.018 0.40947 0.43443 0.0
C922 C 0.04471 0.39562 0.44408 0.0
C923 C 0.04969 0.41706 0.45673 0.0
C924 C 0.03094 0.45439 0.45955 0.0
C925 C 1.00719 0.46947 0.4496 0.0
C926 C 0.99953 0.44652 0.43736 0.0
C927 C 0.97566 0.47125 0.42815 0.0
C928 C 0.0152 0.50059 0.41679 0.0
C929 C 0.91814 0.42676 0.42333 0.0
C930 C 0.97184 0.51243 0.437 0.0
C931 C 0.99033 0.51121 0.44933 0.0
C932 C 0.99165 0.54691 0.45902 0.0
C933 C 0.97163 0.58316 0.45613 0.0
C934 C 0.95056 0.58315 0.44367 0.0
C935 C 0.95178 0.54802 0.43399 0.0
H936 H 0.39344 0.95123 0.75073 0.0
H937 H 0.3712 0.94979 0.79229 0.0
H938 H 0.47027 0.98196 0.79556 0.0
H939 H 0.49119 0.9047 0.75067 0.0
H940 H 0.53333 0.94974 0.73786 0.0
H941 H 0.46056 0.92746 0.73853 0.0
H942 H 0.48274 0.02952 0.73858 0.0
H943 H 0.55546 0.05203 0.73757 0.0
H944 H 0.53011 0.077 0.75046 0.0
H945 H 0.57062 0.00963 0.7945 0.0
H946 H 0.66919 0.04675 0.789 0.0
H947 H 0.6279 0.03323 0.7482 0.0
C948 C 0.40966 0.9588 0.7605 0.0
C949 C 0.37428 0.94729 0.77126 0.0
C950 C 0.39723 0.95739 0.7839 0.0
C951 C 0.45347 0.97555 0.78587 0.0
C952 C 0.48669 0.98417 0.77511 0.0
C953 C 0.46606 0.97741 0.76266 0.0
C954 C 0.51133 0.99111 0.75279 0.0
C955 C 0.4983 0.94021 0.74447 0.0
C956 C 0.52046 0.04035 0.74436 0.0
C957 C 0.56039 1.00654 0.76166 0.0
C958 C 0.54506 1.0015 0.77449 0.0
C959 C 0.5832 0.01385 0.78448 0.0
C960 C 0.639 0.03422 0.78127 0.0
C961 C 0.65618 0.04254 0.76819 0.0
C962 C 0.61591 0.02703 0.75829 0.0
H963 H 0.62924 0.56163 0.61362 0.0
H964 H 0.66559 0.60045 0.57296 0.0
H965 H 0.56762 0.534 0.56754 0.0
H966 H 0.53292 0.41549 0.60971 0.0
H967 H 0.48812 0.41349 0.62251 0.0
H968 H 0.56114 0.4632 0.6231 0.0
H969 H 0.53993 0.54357 0.62507 0.0
H970 H 0.467 0.49402 0.62477 0.0
H971 H 0.49589 0.54974 0.61321 0.0
H972 H 0.46416 0.46302 0.56676 0.0
H973 H 0.36359 0.4042 0.57101 0.0
H974 H 0.39725 0.41137 0.61208 0.0
C975 C 0.61669 0.55604 0.60356 0.0
C976 C 0.65509 0.58612 0.5937 0.0
C977 C 0.63675 0.57827 0.58068 0.0
C978 C 0.58136 0.54012 0.57751 0.0
C979 C 0.54488 0.51017 0.58746 0.0
C980 C 0.56181 0.51833 0.60024 0.0
C981 C 0.5143 0.48321 0.60923 0.0
C982 C 0.52477 0.44137 0.61657 0.0
C983 C 0.50365 0.51982 0.61862 0.0
C984 C 0.46766 0.45438 0.59956 0.0
C985 C 0.48603 0.46977 0.58702 0.0
C986 C 0.44948 0.45036 0.57654 0.0
C987 C 0.39252 0.41644 0.579 0.0
C988 C 0.37289 0.40285 0.59184 0.0
C989 C 0.4113 0.42055 0.60215 0.0
H990 H 0.06694 0.60041 0.91724 0.0
H991 H 0.06308 0.63015 0.95827 0.0
H992 H 0.03441 0.53211 0.96276 0.0
H993 H 0.94558 0.46431 0.91712 0.0
H994 H 0.97282 0.43803 0.90495 0.0
H995 H 0.99426 0.51056 0.90533 0.0
H996 H 0.09672 0.53412 0.90652 0.0
H997 H 0.07538 0.46149 0.90651 0.0
H998 H 0.11845 0.50571 0.9194 0.0
H999 H 1.00819 0.43121 0.96268 0.0
H1000 H 0.96948 0.33152 0.95782 0.0
H1001 H 0.98773 0.36769 0.91683 0.0
C1002 C 0.05949 0.58596 0.92714 0.0
C1003 C 0.06687 0.62236 0.93743 0.0
C1004 C 0.05684 0.60241 0.95027 0.0
C1005 C 0.04133 0.54714 0.95291 0.0
C1006 C 0.03575 0.51252 0.94256 0.0
C1007 C 0.04332 0.53087 0.92992 0.0
C1008 C 0.03149 0.48466 0.92049 0.0
C1009 C 0.98316 0.47373 0.91145 0.0
C1010 C 0.08363 0.49727 0.91278 0.0
C1011 C 0.0156 0.43723 0.92979 0.0
C1012 C 0.01945 0.45434 0.94249 0.0
C1013 C 1.00525 0.41738 0.95277 0.0
C1014 C 0.98399 0.36102 0.94995 0.0
C1015 C 0.97653 0.3424 0.93698 0.0
C1016 C 0.99413 0.38124 0.92682 0.0
H1017 H 0.57363 0.93906 0.28122 0.0
H1018 H 0.61774 0.95442 0.24066 0.0
H1019 H 0.55252 0.98852 0.23606 0.0
H1020 H 0.43051 0.89054 0.27704 0.0
H1021 H 0.42532 0.9289 0.29049 0.0
H1022 H 0.47683 0.9079 0.29064 0.0
H1023 H 0.55463 0.00972 0.29402 0.0
H1024 H 0.5032 0.03078 0.29422 0.0
H1025 H 0.5601 0.06226 0.283 0.0
H1026 H 0.47774 0.01658 0.23595 0.0
H1027 H 0.41227 0.04999 0.24084 0.0
H1028 H 0.41844 0.01592 0.28148 0.0
C1029 C 0.57013 0.95039 0.27139 0.0
C1030 C 0.60083 0.94435 0.26129 0.0
C1031 C 0.59517 0.95952 0.24856 0.0
C1032 C 0.55772 0.97823 0.24585 0.0
C1033 C 0.52661 0.98186 0.25599 0.0
C1034 C 0.53338 0.96939 0.26855 0.0
C1035 C 0.4961 0.97772 0.27781 0.0
C1036 C 0.45475 0.923 0.28438 0.0
C1037 C 0.53056 0.02281 0.28785 0.0
C1038 C 0.46699 0.99671 0.26852 0.0
C1039 C 0.48455 0.9983 0.25595 0.0
C1040 C 0.46378 0.01544 0.24576 0.0
C1041 C 0.42604 0.03365 0.24859 0.0
C1042 C 0.40988 0.03498 0.26151 0.0
C1043 C 0.42962 0.01478 0.2715 0.0
H1044 H 0.12324 0.07527 0.0668 0.0
H1045 H 0.15725 0.09181 0.10804 0.0
H1046 H 0.05869 0.05899 0.11241 0.0
H1047 H 0.01968 0.11808 0.06709 0.0
H1048 H 0.97688 0.06838 0.05498 0.0
H1049 H 0.05062 0.09529 0.05502 0.0
H1050 H 0.03439 0.9954 0.05602 0.0
H1051 H 0.96065 0.96821 0.05598 0.0
H1052 H 0.99234 0.94985 0.06879 0.0
H1053 H 0.95573 0.02312 0.11239 0.0
H1054 H 0.85608 0.98408 0.10801 0.0
H1055 H 0.88767 0.98849 0.06679 0.0
C1056 C 0.11014 0.07247 0.07675 0.0
C1057 C 0.1485 0.08668 0.08707 0.0
C1058 C 0.12911 0.08157 0.09995 0.0
C1059 C 0.07303 0.06293 0.10254 0.0
C1060 C 0.03642 0.04916 0.09217 0.0
C1061 C 0.0541 0.05348 0.07953 0.0
C1062 C 1.00583 0.03426 0.07017 0.0
C1063 C 0.01374 0.08185 0.06129 0.0
C1064 C 0.99784 0.98394 0.06228 0.0
C1065 C 0.95825 0.01833 0.07953 0.0
C1066 C 0.9769 0.02758 0.09217 0.0
C1067 C 0.94072 0.0158 0.10252 0.0
C1068 C 0.88402 0.99365 0.09992 0.0
C1069 C 0.86359 0.98308 0.08705 0.0
C1070 C 0.90164 0.996 0.07674 0.0
H1071 H 0.07927 0.12432 0.40692 0.0
H1072 H 0.1178 0.15835 0.4477 0.0
H1073 H 0.06586 0.05763 0.45224 0.0
H1074 H 0.94268 0.00873 0.41007 0.0
H1075 H 0.94915 0.97008 0.39686 0.0
H1076 H 0.98894 0.04461 0.39686 0.0
H1077 H 0.07943 0.04074 0.39447 0.0
H1078 H 0.03988 0.96615 0.39443 0.0
H1079 H 0.09495 1.00197 0.40601 0.0
H1080 H 1.00293 0.95301 0.45244 0.0
H1081 H 0.94353 0.85265 0.44805 0.0
H1082 H 0.95377 0.88589 0.40692 0.0
C1083 C 0.07682 0.1105 0.4168 0.0
C1084 C 0.10222 0.14919 0.42699 0.0
C1085 C 0.09875 0.12947 0.43976 0.0
C1086 C 0.06916 0.07235 0.44242 0.0
C1087 C 0.04423 0.03529 0.43217 0.0
C1088 C 0.04865 0.05356 0.41958 0.0
C1089 C 0.01949 1.00509 0.41027 0.0
C1090 C 0.97226 1.00728 0.40309 0.0
C1091 C 0.06092 1.0034 0.40073 0.0
C1092 C 0.99715 0.95668 0.4196 0.0
C1093 C 0.01129 0.97504 0.43221 0.0
C1094 C 0.99246 0.93821 0.44258 0.0
C1095 C 0.95863 0.88131 0.44001 0.0
C1096 C 0.94481 0.86147 0.42715 0.0
C1097 C 0.96468 0.8998 0.41683 0.0
H1098 H 0.88752 0.02247 0.74742 0.0
H1099 H 0.03335 0.1725 0.76048 0.0
H1100 H 0.08583 0.12236 0.76104 0.0
H1101 H 0.90714 0.93081 0.76771 0.0
H1102 H 0.88135 0.87534 0.75602 0.0
H1103 H 0.85702 0.92421 0.75577 0.0
H1104 H 0.88693 0.94673 0.73182 0.0
H1105 H 0.91158 0.89803 0.73201 0.0
H1106 H 0.95752 0.96891 0.72738 0.0
H1107 H 0.12209 0.05401 0.76044 0.0
H1108 H 0.13634 0.97317 0.76039 0.0
H1109 H 0.96533 0.8675 0.74861 0.0
C1110 C 0.93072 0.0451 0.75025 0.0
C1111 C 0.95642 0.10176 0.75377 0.0
C1112 C 0.01274 0.12926 0.75767 0.0
C1113 C 0.04294 0.10109 0.75799 0.0
C1114 C 0.01624 0.04518 0.75448 0.0
C1115 C 0.9612 0.01745 0.75078 0.0
C1116 C 0.94106 0.95667 0.7482 0.0
C1117 C 0.89386 0.91959 0.75748 0.0
C1118 C 0.92323 0.94173 0.73401 0.0
C1119 C 0.9932 0.95429 0.75108 0.0
C1120 C 0.03638 1.00584 0.75454 0.0
C1121 C 0.08847 0.01353 0.75774 0.0
C1122 C 0.09625 0.9673 0.75763 0.0
C1123 C 0.05204 0.91372 0.75451 0.0
C1124 C 1.00012 0.90772 0.75104 0.0
H1125 H 0.05168 0.92631 0.61806 0.0
H1126 H 0.90087 0.867 0.59557 0.0
H1127 H 0.91919 0.9632 0.59359 0.0
H1128 H 0.04153 0.03392 0.63552 0.0
H1129 H 0.11514 0.08135 0.63516 0.0
H1130 H 0.08902 0.00775 0.63511 0.0
H1131 H 0.14369 0.01722 0.61411 0.0
H1132 H 0.16993 0.09079 0.61409 0.0
H1133 H 0.13347 0.04975 0.60015 0.0
H1134 H 0.9563 0.06738 0.59351 0.0
H1135 H 1.00832 0.1695 0.59542 0.0
H1136 H 0.13439 0.15982 0.61807 0.0
C1137 C 0.02221 0.93334 0.61278 0.0
C1138 C 0.9747 0.88884 0.60698 0.0
C1139 C 0.93746 0.90022 0.60012 0.0
C1140 C 0.94755 0.9548 0.59895 0.0
C1141 C 0.99498 0.99767 0.60471 0.0
C1142 C 0.0316 0.98745 0.61152 0.0
C1143 C 0.08006 0.04076 0.61662 0.0
C1144 C 0.0815 0.04094 0.63148 0.0
C1145 C 0.13503 0.05017 0.61089 0.0
C1146 C 0.06536 0.08276 0.61152 0.0
C1147 C 0.01608 0.05717 0.60471 0.0
C1148 C 0.99477 0.08773 0.59889 0.0
C1149 C 0.02467 0.14581 0.60003 0.0
C1150 C 0.07545 0.17296 0.60693 0.0
C1151 C 0.09562 0.1406 0.61278 0.0
H1152 H 0.90315 0.01176 0.96286 0.0
H1153 H 0.88573 0.02631 0.92155 0.0
H1154 H 0.94716 0.98783 0.91736 0.0
H1155 H 0.04589 0.05043 0.96251 0.0
H1156 H 0.03922 1.00206 0.97489 0.0
H1157 H 0.99266 0.02925 0.97463 0.0
H1158 H 0.90867 0.92947 0.97402 0.0
H1159 H 0.95498 0.90194 0.97431 0.0
H1160 H 0.90456 0.88233 0.96153 0.0
H1161 H 0.01417 0.95132 0.91772 0.0
H1162 H 0.07826 0.91664 0.92257 0.0
H1163 H 0.05017 0.92395 0.96364 0.0
C1164 C 0.91192 1.00661 0.95292 0.0
C1165 C 0.88946 0.02219 0.94254 0.0
C1166 C 0.90218 0.01465 0.92968 0.0
C1167 C 0.93716 0.99286 0.9272 0.0
C1168 C 0.95894 0.97843 0.93766 0.0
C1169 C 0.94652 0.98468 0.95026 0.0
C1170 C 0.97562 0.9664 0.95979 0.0
C1171 C 0.01573 0.01493 0.96846 0.0
C1172 C 0.93343 0.9171 0.96789 0.0
C1173 C 1.00668 0.9492 0.95058 0.0
C1174 C 0.99664 0.95659 0.93786 0.0
C1175 C 0.02197 0.94502 0.92765 0.0
C1176 C 0.05843 0.92538 0.93051 0.0
C1177 C 0.06912 0.91715 0.94349 0.0
C1178 C 0.04257 0.92918 0.95361 0.0
H1179 H 0.14039 0.05939 0.29321 0.0
H1180 H 0.16907 0.12141 0.2539 0.0
H1181 H 0.06807 0.07266 0.24999 0.0
H1182 H 0.02303 0.92583 0.28703 0.0
H1183 H 0.98601 0.92442 0.30144 0.0
H1184 H 0.06055 0.96386 0.30121 0.0
H1185 H 0.05784 0.052 0.30795 0.0
H1186 H 0.98325 0.01277 0.30823 0.0
H1187 H 0.01827 0.07415 0.29842 0.0
H1188 H 0.96436 0.01074 0.24975 0.0
H1189 H 0.86441 0.94886 0.25394 0.0
H1190 H 0.90058 0.93427 0.29402 0.0
C1191 C 0.12527 0.06276 0.2838 0.0
C1192 C 0.16269 0.09404 0.27382 0.0
C1193 C 0.14129 0.09796 0.26169 0.0
C1194 C 0.08394 0.0702 0.25937 0.0
C1195 C 0.04817 0.03952 0.26936 0.0
C1196 C 0.06786 0.03645 0.28142 0.0
C1197 C 0.02017 1.00197 0.29057 0.0
C1198 C 0.0226 0.951 0.29534 0.0
C1199 C 0.01988 0.03734 0.30197 0.0
C1200 C 0.9707 0.98527 0.28171 0.0
C1201 C 0.98797 1.00692 0.26946 0.0
C1202 C 0.95036 0.99446 0.25935 0.0
C1203 C 0.89372 0.95925 0.26181 0.0
C1204 C 0.87488 0.93778 0.27433 0.0
C1205 C 0.9139 0.95123 0.28443 0.0
loop_
_geom_bond_atom_site_label_1
_geom_bond_atom_site_label_2
_geom_bond_distance
_geom_bond_site_symmetry_2
_ccdc_geom_bond_type
Co0 N4 2.148 . S
Co0 N10 2.128 . S
Co0 N20 2.194 . S
Co0 O25 2.351 . S
Co0 O26 2.155 . S
Co0 O27 2.096 . S
C1 N4 1.301 . S
C1 N5 1.328 . S
C1 H6 0.930 . S
C2 C3 1.333 . S
C2 N4 1.317 . S
C2 H7 0.930 . S
C3 C2 1.333 . S
C3 N5 1.350 . S
C3 H29 0.931 . S
N4 Co0 2.148 . S
N4 C1 1.301 . S
N4 C2 1.317 . S
N5 C1 1.328 . S
N5 C3 1.350 . S
H6 C1 0.930 . S
H7 C2 0.930 . S
C8 O9 1.224 . S
C8 O27 1.247 . S
O9 C8 1.224 . S
N10 Co0 2.128 . S
N10 C11 1.355 . S
N10 C13 1.311 . S
C11 N10 1.355 . S
C11 C12 1.363 . S
C11 H23 0.929 . S
C12 C11 1.363 . S
C12 N14 1.375 . S
C12 H30 0.931 . S
C13 N10 1.311 . S
C13 N14 1.347 . S
C13 H24 0.929 . S
N14 C12 1.375 . S
N14 C13 1.347 . S
C15 C18 1.365 . S
C15 N20 1.328 . S
C15 H21 0.929 . S
C16 C17 1.362 . S
C16 C19 1.378 . S
C16 H31 0.929 . S
C17 C16 1.362 . S
C17 C18 1.366 . S
C18 C15 1.365 . S
C18 C17 1.366 . S
C18 H32 0.930 . S
C19 C16 1.378 . S
C19 N20 1.315 . S
C19 H22 0.930 . S
N20 Co0 2.194 . S
N20 C15 1.328 . S
N20 C19 1.315 . S
H21 C15 0.929 . S
H22 C19 0.930 . S
H23 C11 0.929 . S
H24 C13 0.929 . S
O25 Co0 2.351 . S
O25 C28 1.244 . S
O26 Co0 2.155 . S
O26 C28 1.240 . S
O27 Co0 2.096 . S
O27 C8 1.247 . S
C28 O25 1.244 . S
C28 O26 1.240 . S
H29 C3 0.931 . S
H30 C12 0.931 . S
H31 C16 0.929 . S
H32 C18 0.930 . S
Co33 N37 2.148 . S
Co33 N43 2.128 . S
Co33 N53 2.194 . S
Co33 O58 2.351 . S
Co33 O59 2.155 . S
Co33 O60 2.096 . S
C34 N37 1.301 . S
C34 N38 1.328 . S
C34 H39 0.930 . S
C35 C36 1.333 . S
C35 N37 1.317 . S
C35 H40 0.930 . S
C36 C35 1.333 . S
C36 N38 1.350 . S
C36 H62 0.931 . S
N37 Co33 2.148 . S
N37 C34 1.301 . S
N37 C35 1.317 . S
N38 C34 1.328 . S
N38 C36 1.350 . S
H39 C34 0.930 . S
H40 C35 0.930 . S
C41 O42 1.224 . S
C41 O60 1.247 . S
O42 C41 1.224 . S
N43 Co33 2.128 . S
N43 C44 1.355 . S
N43 C46 1.311 . S
C44 N43 1.355 . S
C44 C45 1.363 . S
C44 H56 0.929 . S
C45 C44 1.363 . S
C45 N47 1.375 . S
C45 H63 0.931 . S
C46 N43 1.311 . S
C46 N47 1.347 . S
C46 H57 0.929 . S
N47 C45 1.375 . S
N47 C46 1.347 . S
C48 C51 1.365 . S
C48 N53 1.328 . S
C48 H54 0.929 . S
C49 C50 1.362 . S
C49 C52 1.378 . S
C49 H64 0.929 . S
C50 C49 1.362 . S
C50 C51 1.366 . S
C51 C48 1.365 . S
C51 C50 1.366 . S
C51 H65 0.930 . S
C52 C49 1.378 . S
C52 N53 1.315 . S
C52 H55 0.930 . S
N53 Co33 2.194 . S
N53 C48 1.328 . S
N53 C52 1.315 . S
H54 C48 0.929 . S
H55 C52 0.930 . S
H56 C44 0.929 . S
H57 C46 0.929 . S
O58 Co33 2.351 . S
O58 C61 1.244 . S
O59 Co33 2.155 . S
O59 C61 1.240 . S
O60 Co33 2.096 . S
O60 C41 1.247 . S
C61 O58 1.244 . S
C61 O59 1.240 . S
H62 C36 0.931 . S
H63 C45 0.931 . S
H64 C49 0.929 . S
H65 C51 0.930 . S
Co66 N70 2.148 . S
Co66 N76 2.128 . S
Co66 N86 2.194 . S
Co66 O91 2.351 . S
Co66 O92 2.155 . S
Co66 O93 2.096 . S
C67 N70 1.301 . S
C67 N71 1.328 . S
C67 H72 0.930 . S
C68 C69 1.333 . S
C68 N70 1.317 . S
C68 H73 0.930 . S
C69 C68 1.333 . S
C69 N71 1.350 . S
C69 H95 0.931 . S
N70 Co66 2.148 . S
N70 C67 1.301 . S
N70 C68 1.317 . S
N71 C67 1.328 . S
N71 C69 1.350 . S
H72 C67 0.930 . S
H73 C68 0.930 . S
C74 O75 1.224 . S
C74 O93 1.247 . S
O75 C74 1.224 . S
N76 Co66 2.128 . S
N76 C77 1.355 . S
N76 C79 1.311 . S
C77 N76 1.355 . S
C77 C78 1.363 . S
C77 H89 0.929 . S
C78 C77 1.363 . S
C78 N80 1.375 . S
C78 H96 0.931 . S
C79 N76 1.311 . S
C79 N80 1.347 . S
C79 H90 0.929 . S
N80 C78 1.375 . S
N80 C79 1.347 . S
C81 C84 1.365 . S
C81 N86 1.328 . S
C81 H87 0.929 . S
C82 C83 1.362 . S
C82 C85 1.378 . S
C82 H97 0.929 . S
C83 C82 1.362 . S
C83 C84 1.366 . S
C84 C81 1.365 . S
C84 C83 1.366 . S
C84 H98 0.930 . S
C85 C82 1.378 . S
C85 N86 1.315 . S
C85 H88 0.930 . S
N86 Co66 2.194 . S
N86 C81 1.328 . S
N86 C85 1.315 . S
H87 C81 0.929 . S
H88 C85 0.930 . S
H89 C77 0.929 . S
H90 C79 0.929 . S
O91 Co66 2.351 . S
O91 C94 1.244 . S
O92 Co66 2.155 . S
O92 C94 1.240 . S
O93 Co66 2.096 . S
O93 C74 1.247 . S
C94 O91 1.244 . S
C94 O92 1.240 . S
H95 C69 0.931 . S
H96 C78 0.931 . S
H97 C82 0.929 . S
H98 C84 0.930 . S
Co99 N103 2.148 . S
Co99 N109 2.128 . S
Co99 N119 2.194 . S
Co99 O124 2.351 . S
Co99 O125 2.155 . S
Co99 O126 2.096 . S
C100 N103 1.301 . S
C100 N104 1.328 . S
C100 H105 0.930 . S
C101 C102 1.333 . S
C101 N103 1.317 . S
C101 H106 0.930 . S
C102 C101 1.333 . S
C102 N104 1.350 . S
C102 H128 0.931 . S
N103 Co99 2.148 . S
N103 C100 1.301 . S
N103 C101 1.317 . S
N104 C100 1.328 . S
N104 C102 1.350 . S
H105 C100 0.930 . S
H106 C101 0.930 . S
C107 O108 1.224 . S
C107 O126 1.247 . S
O108 C107 1.224 . S
N109 Co99 2.128 . S
N109 C110 1.355 . S
N109 C112 1.311 . S
C110 N109 1.355 . S
C110 C111 1.363 . S
C110 H122 0.929 . S
C111 C110 1.363 . S
C111 N113 1.375 . S
C111 H129 0.931 . S
C112 N109 1.311 . S
C112 N113 1.347 . S
C112 H123 0.929 . S
N113 C111 1.375 . S
N113 C112 1.347 . S
C114 C117 1.365 . S
C114 N119 1.328 . S
C114 H120 0.929 . S
C115 C116 1.362 . S
C115 C118 1.378 . S
C115 H130 0.929 . S
C116 C115 1.362 . S
C116 C117 1.366 . S
C117 C114 1.365 . S
C117 C116 1.366 . S
C117 H131 0.930 . S
C118 C115 1.378 . S
C118 N119 1.315 . S
C118 H121 0.930 . S
N119 Co99 2.194 . S
N119 C114 1.328 . S
N119 C118 1.315 . S
H120 C114 0.929 . S
H121 C118 0.930 . S
H122 C110 0.929 . S
H123 C112 0.929 . S
O124 Co99 2.351 . S
O124 C127 1.244 . S
O125 Co99 2.155 . S
O125 C127 1.240 . S
O126 Co99 2.096 . S
O126 C107 1.247 . S
C127 O124 1.244 . S
C127 O125 1.240 . S
H128 C102 0.931 . S
H129 C111 0.931 . S
H130 C115 0.929 . S
H131 C117 0.930 . S
Co132 N136 2.148 . S
Co132 N142 2.128 . S
Co132 N152 2.194 . S
Co132 O157 2.351 . S
Co132 O158 2.155 . S
Co132 O159 2.096 . S
C133 N136 1.301 . S
C133 N137 1.328 . S
C133 H138 0.930 . S
C134 C135 1.333 . S
C134 N136 1.317 . S
C134 H139 0.930 . S
C135 C134 1.333 . S
C135 N137 1.350 . S
C135 H161 0.931 . S
N136 Co132 2.148 . S
N136 C133 1.301 . S
N136 C134 1.317 . S
N137 C133 1.328 . S
N137 C135 1.350 . S
H138 C133 0.930 . S
H139 C134 0.930 . S
C140 O141 1.224 . S
C140 O159 1.247 . S
O141 C140 1.224 . S
N142 Co132 2.128 . S
N142 C143 1.355 . S
N142 C145 1.311 . S
C143 N142 1.355 . S
C143 C144 1.363 . S
C143 H155 0.929 . S
C144 C143 1.363 . S
C144 N146 1.375 . S
C144 H162 0.931 . S
C145 N142 1.311 . S
C145 N146 1.347 . S
C145 H156 0.929 . S
N146 C144 1.375 . S
N146 C145 1.347 . S
C147 C150 1.365 . S
C147 N152 1.328 . S
C147 H153 0.929 . S
C148 C149 1.362 . S
C148 C151 1.378 . S
C148 H163 0.929 . S
C149 C148 1.362 . S
C149 C150 1.366 . S
C150 C147 1.365 . S
C150 C149 1.366 . S
C150 H164 0.930 . S
C151 C148 1.378 . S
C151 N152 1.315 . S
C151 H154 0.930 . S
N152 Co132 2.194 . S
N152 C147 1.328 . S
N152 C151 1.315 . S
H153 C147 0.929 . S
H154 C151 0.930 . S
H155 C143 0.929 . S
H156 C145 0.929 . S
O157 Co132 2.351 . S
O157 C160 1.244 . S
O158 Co132 2.155 . S
O158 C160 1.240 . S
O159 Co132 2.096 . S
O159 C140 1.247 . S
C160 O157 1.244 . S
C160 O158 1.240 . S
H161 C135 0.931 . S
H162 C144 0.931 . S
H163 C148 0.929 . S
H164 C150 0.930 . S
Co165 N169 2.148 . S
Co165 N175 2.128 . S
Co165 N185 2.194 . S
Co165 O190 2.351 . S
Co165 O191 2.155 . S
Co165 O192 2.096 . S
C166 N169 1.301 . S
C166 N170 1.328 . S
C166 H171 0.930 . S
C167 C168 1.333 . S
C167 N169 1.317 . S
C167 H172 0.930 . S
C168 C167 1.333 . S
C168 N170 1.350 . S
C168 H194 0.931 . S
N169 Co165 2.148 . S
N169 C166 1.301 . S
N169 C167 1.317 . S
N170 C166 1.328 . S
N170 C168 1.350 . S
H171 C166 0.930 . S
H172 C167 0.930 . S
C173 O174 1.224 . S
C173 O192 1.247 . S
O174 C173 1.224 . S
N175 Co165 2.128 . S
N175 C176 1.355 . S
N175 C178 1.311 . S
C176 N175 1.355 . S
C176 C177 1.363 . S
C176 H188 0.929 . S
C177 C176 1.363 . S
C177 N179 1.375 . S
C177 H195 0.931 . S
C178 N175 1.311 . S
C178 N179 1.347 . S
C178 H189 0.929 . S
N179 C177 1.375 . S
N179 C178 1.347 . S
C180 C183 1.365 . S
C180 N185 1.328 . S
C180 H186 0.929 . S
C181 C182 1.362 . S
C181 C184 1.378 . S
C181 H196 0.929 . S
C182 C181 1.362 . S
C182 C183 1.366 . S
C183 C180 1.365 . S
C183 C182 1.366 . S
C183 H197 0.930 . S
C184 C181 1.378 . S
C184 N185 1.315 . S
C184 H187 0.930 . S
N185 Co165 2.194 . S
N185 C180 1.328 . S
N185 C184 1.315 . S
H186 C180 0.929 . S
H187 C184 0.930 . S
H188 C176 0.929 . S
H189 C178 0.929 . S
O190 Co165 2.351 . S
O190 C193 1.244 . S
O191 Co165 2.155 . S
O191 C193 1.240 . S
O192 Co165 2.096 . S
O192 C173 1.247 . S
C193 O190 1.244 . S
C193 O191 1.240 . S
H194 C168 0.931 . S
H195 C177 0.931 . S
H196 C181 0.929 . S
H197 C183 0.930 . S
Co198 N202 2.148 . S
Co198 N208 2.128 . S
Co198 N218 2.194 . S
Co198 O223 2.351 . S
Co198 O224 2.155 . S
Co198 O225 2.096 . S
C199 N202 1.301 . S
C199 N203 1.328 . S
C199 H204 0.930 . S
C200 C201 1.333 . S
C200 N202 1.317 . S
C200 H205 0.930 . S
C201 C200 1.333 . S
C201 N203 1.350 . S
C201 H227 0.931 . S
N202 Co198 2.148 . S
N202 C199 1.301 . S
N202 C200 1.317 . S
N203 C199 1.328 . S
N203 C201 1.350 . S
H204 C199 0.930 . S
H205 C200 0.930 . S
C206 O207 1.224 . S
C206 O225 1.247 . S
O207 C206 1.224 . S
N208 Co198 2.128 . S
N208 C209 1.355 . S
N208 C211 1.311 . S
C209 N208 1.355 . S
C209 C210 1.363 . S
C209 H221 0.929 . S
C210 C209 1.363 . S
C210 N212 1.375 . S
C210 H228 0.931 . S
C211 N208 1.311 . S
C211 N212 1.347 . S
C211 H222 0.929 . S
N212 C210 1.375 . S
N212 C211 1.347 . S
C213 C216 1.365 . S
C213 N218 1.328 . S
C213 H219 0.929 . S
C214 C215 1.362 . S
C214 C217 1.378 . S
C214 H229 0.929 . S
C215 C214 1.362 . S
C215 C216 1.366 . S
C216 C213 1.365 . S
C216 C215 1.366 . S
C216 H230 0.930 . S
C217 C214 1.378 . S
C217 N218 1.315 . S
C217 H220 0.930 . S
N218 Co198 2.194 . S
N218 C213 1.328 . S
N218 C217 1.315 . S
H219 C213 0.929 . S
H220 C217 0.930 . S
H221 C209 0.929 . S
H222 C211 0.929 . S
O223 Co198 2.351 . S
O223 C226 1.244 . S
O224 Co198 2.155 . S
O224 C226 1.240 . S
O225 Co198 2.096 . S
O225 C206 1.247 . S
C226 O223 1.244 . S
C226 O224 1.240 . S
H227 C201 0.931 . S
H228 C210 0.931 . S
H229 C214 0.929 . S
H230 C216 0.930 . S
Co231 N235 2.148 . S
Co231 N241 2.128 . S
Co231 N251 2.194 . S
Co231 O256 2.351 . S
Co231 O257 2.155 . S
Co231 O258 2.096 . S
C232 N235 1.301 . S
C232 N236 1.328 . S
C232 H237 0.930 . S
C233 C234 1.333 . S
C233 N235 1.317 . S
C233 H238 0.930 . S
C234 C233 1.333 . S
C234 N236 1.350 . S
C234 H260 0.931 . S
N235 Co231 2.148 . S
N235 C232 1.301 . S
N235 C233 1.317 . S
N236 C232 1.328 . S
N236 C234 1.350 . S
H237 C232 0.930 . S
H238 C233 0.930 . S
C239 O240 1.224 . S
C239 O258 1.247 . S
O240 C239 1.224 . S
N241 Co231 2.128 . S
N241 C242 1.355 . S
N241 C244 1.311 . S
C242 N241 1.355 . S
C242 C243 1.363 . S
C242 H254 0.929 . S
C243 C242 1.363 . S
C243 N245 1.375 . S
C243 H261 0.931 . S
C244 N241 1.311 . S
C244 N245 1.347 . S
C244 H255 0.929 . S
N245 C243 1.375 . S
N245 C244 1.347 . S
C246 C249 1.365 . S
C246 N251 1.328 . S
C246 H252 0.929 . S
C247 C248 1.362 . S
C247 C250 1.378 . S
C247 H262 0.929 . S
C248 C247 1.362 . S
C248 C249 1.366 . S
C249 C246 1.365 . S
C249 C248 1.366 . S
C249 H263 0.930 . S
C250 C247 1.378 . S
C250 N251 1.315 . S
C250 H253 0.930 . S
N251 Co231 2.194 . S
N251 C246 1.328 . S
N251 C250 1.315 . S
H252 C246 0.929 . S
H253 C250 0.930 . S
H254 C242 0.929 . S
H255 C244 0.929 . S
O256 Co231 2.351 . S
O256 C259 1.244 . S
O257 Co231 2.155 . S
O257 C259 1.240 . S
O258 Co231 2.096 . S
O258 C239 1.247 . S
C259 O256 1.244 . S
C259 O257 1.240 . S
H260 C234 0.931 . S
H261 C243 0.931 . S
H262 C247 0.929 . S
H263 C249 0.930 . S
Co264 N268 2.148 . S
Co264 N274 2.128 . S
Co264 N284 2.194 . S
Co264 O289 2.351 . S
Co264 O290 2.155 . S
Co264 O291 2.096 . S
C265 N268 1.301 . S
C265 N269 1.328 . S
C265 H270 0.930 . S
C266 C267 1.333 . S
C266 N268 1.317 . S
C266 H271 0.930 . S
C267 C266 1.333 . S
C267 N269 1.350 . S
C267 H293 0.931 . S
N268 Co264 2.148 . S
N268 C265 1.301 . S
N268 C266 1.317 . S
N269 C265 1.328 . S
N269 C267 1.350 . S
H270 C265 0.930 . S
H271 C266 0.930 . S
C272 O273 1.224 . S
C272 O291 1.247 . S
O273 C272 1.224 . S
N274 Co264 2.128 . S
N274 C275 1.355 . S
N274 C277 1.311 . S
C275 N274 1.355 . S
C275 C276 1.363 . S
C275 H287 0.929 . S
C276 C275 1.363 . S
C276 N278 1.375 . S
C276 H294 0.931 . S
C277 N274 1.311 . S
C277 N278 1.347 . S
C277 H288 0.929 . S
N278 C276 1.375 . S
N278 C277 1.347 . S
C279 C282 1.365 . S
C279 N284 1.328 . S
C279 H285 0.929 . S
C280 C281 1.362 . S
C280 C283 1.378 . S
C280 H295 0.929 . S
C281 C280 1.362 . S
C281 C282 1.366 . S
C282 C279 1.365 . S
C282 C281 1.366 . S
C282 H296 0.930 . S
C283 C280 1.378 . S
C283 N284 1.315 . S
C283 H286 0.930 . S
N284 Co264 2.194 . S
N284 C279 1.328 . S
N284 C283 1.315 . S
H285 C279 0.929 . S
H286 C283 0.930 . S
H287 C275 0.929 . S
H288 C277 0.929 . S
O289 Co264 2.351 . S
O289 C292 1.244 . S
O290 Co264 2.155 . S
O290 C292 1.240 . S
O291 Co264 2.096 . S
O291 C272 1.247 . S
C292 O289 1.244 . S
C292 O290 1.240 . S
H293 C267 0.931 . S
H294 C276 0.931 . S
H295 C280 0.929 . S
H296 C282 0.930 . S
Co297 N301 2.148 . S
Co297 N307 2.128 . S
Co297 N317 2.194 . S
Co297 O322 2.351 . S
Co297 O323 2.155 . S
Co297 O324 2.096 . S
C298 N301 1.301 . S
C298 N302 1.328 . S
C298 H303 0.930 . S
C299 C300 1.333 . S
C299 N301 1.317 . S
C299 H304 0.930 . S
C300 C299 1.333 . S
C300 N302 1.350 . S
C300 H326 0.931 . S
N301 Co297 2.148 . S
N301 C298 1.301 . S
N301 C299 1.317 . S
N302 C298 1.328 . S
N302 C300 1.350 . S
H303 C298 0.930 . S
H304 C299 0.930 . S
C305 O306 1.224 . S
C305 O324 1.247 . S
O306 C305 1.224 . S
N307 Co297 2.128 . S
N307 C308 1.355 . S
N307 C310 1.311 . S
C308 N307 1.355 . S
C308 C309 1.363 . S
C308 H320 0.929 . S
C309 C308 1.363 . S
C309 N311 1.375 . S
C309 H327 0.931 . S
C310 N307 1.311 . S
C310 N311 1.347 . S
C310 H321 0.929 . S
N311 C309 1.375 . S
N311 C310 1.347 . S
C312 C315 1.365 . S
C312 N317 1.328 . S
C312 H318 0.929 . S
C313 C314 1.362 . S
C313 C316 1.378 . S
C313 H328 0.929 . S
C314 C313 1.362 . S
C314 C315 1.366 . S
C315 C312 1.365 . S
C315 C314 1.366 . S
C315 H329 0.930 . S
C316 C313 1.378 . S
C316 N317 1.315 . S
C316 H319 0.930 . S
N317 Co297 2.194 . S
N317 C312 1.328 . S
N317 C316 1.315 . S
H318 C312 0.929 . S
H319 C316 0.930 . S
H320 C308 0.929 . S
H321 C310 0.929 . S
O322 Co297 2.351 . S
O322 C325 1.244 . S
O323 Co297 2.155 . S
O323 C325 1.240 . S
O324 Co297 2.096 . S
O324 C305 1.247 . S
C325 O322 1.244 . S
C325 O323 1.240 . S
H326 C300 0.931 . S
H327 C309 0.931 . S
H328 C313 0.929 . S
H329 C315 0.930 . S
Co330 N334 2.148 . S
Co330 N340 2.128 . S
Co330 N350 2.194 . S
Co330 O355 2.351 . S
Co330 O356 2.155 . S
Co330 O357 2.096 . S
C331 N334 1.301 . S
C331 N335 1.328 . S
C331 H336 0.930 . S
C332 C333 1.333 . S
C332 N334 1.317 . S
C332 H337 0.930 . S
C333 C332 1.333 . S
C333 N335 1.350 . S
C333 H359 0.931 . S
N334 Co330 2.148 . S
N334 C331 1.301 . S
N334 C332 1.317 . S
N335 C331 1.328 . S
N335 C333 1.350 . S
H336 C331 0.930 . S
H337 C332 0.930 . S
C338 O339 1.224 . S
C338 O357 1.247 . S
O339 C338 1.224 . S
N340 Co330 2.128 . S
N340 C341 1.355 . S
N340 C343 1.311 . S
C341 N340 1.355 . S
C341 C342 1.363 . S
C341 H353 0.929 . S
C342 C341 1.363 . S
C342 N344 1.375 . S
C342 H360 0.931 . S
C343 N340 1.311 . S
C343 N344 1.347 . S
C343 H354 0.929 . S
N344 C342 1.375 . S
N344 C343 1.347 . S
C345 C348 1.365 . S
C345 N350 1.328 . S
C345 H351 0.929 . S
C346 C347 1.362 . S
C346 C349 1.378 . S
C346 H361 0.929 . S
C347 C346 1.362 . S
C347 C348 1.366 . S
C348 C345 1.365 . S
C348 C347 1.366 . S
C348 H362 0.930 . S
C349 C346 1.378 . S
C349 N350 1.315 . S
C349 H352 0.930 . S
N350 Co330 2.194 . S
N350 C345 1.328 . S
N350 C349 1.315 . S
H351 C345 0.929 . S
H352 C349 0.930 . S
H353 C341 0.929 . S
H354 C343 0.929 . S
O355 Co330 2.351 . S
O355 C358 1.244 . S
O356 Co330 2.155 . S
O356 C358 1.240 . S
O357 Co330 2.096 . S
O357 C338 1.247 . S
C358 O355 1.244 . S
C358 O356 1.240 . S
H359 C333 0.931 . S
H360 C342 0.931 . S
H361 C346 0.929 . S
H362 C348 0.930 . S
Co363 N367 2.148 . S
Co363 N373 2.128 . S
Co363 N383 2.194 . S
Co363 O388 2.351 . S
Co363 O389 2.155 . S
Co363 O390 2.096 . S
C364 N367 1.301 . S
C364 N368 1.328 . S
C364 H369 0.930 . S
C365 C366 1.333 . S
C365 N367 1.317 . S
C365 H370 0.930 . S
C366 C365 1.333 . S
C366 N368 1.350 . S
C366 H392 0.931 . S
N367 Co363 2.148 . S
N367 C364 1.301 . S
N367 C365 1.317 . S
N368 C364 1.328 . S
N368 C366 1.350 . S
H369 C364 0.930 . S
H370 C365 0.930 . S
C371 O372 1.224 . S
C371 O390 1.247 . S
O372 C371 1.224 . S
N373 Co363 2.128 . S
N373 C374 1.355 . S
N373 C376 1.311 . S
C374 N373 1.355 . S
C374 C375 1.363 . S
C374 H386 0.929 . S
C375 C374 1.363 . S
C375 N377 1.375 . S
C375 H393 0.931 . S
C376 N373 1.311 . S
C376 N377 1.347 . S
C376 H387 0.929 . S
N377 C375 1.375 . S
N377 C376 1.347 . S
C378 C381 1.365 . S
C378 N383 1.328 . S
C378 H384 0.929 . S
C379 C380 1.362 . S
C379 C382 1.378 . S
C379 H394 0.929 . S
C380 C379 1.362 . S
C380 C381 1.366 . S
C381 C378 1.365 . S
C381 C380 1.366 . S
C381 H395 0.930 . S
C382 C379 1.378 . S
C382 N383 1.315 . S
C382 H385 0.930 . S
N383 Co363 2.194 . S
N383 C378 1.328 . S
N383 C382 1.315 . S
H384 C378 0.929 . S
H385 C382 0.930 . S
H386 C374 0.929 . S
H387 C376 0.929 . S
O388 Co363 2.351 . S
O388 C391 1.244 . S
O389 Co363 2.155 . S
O389 C391 1.240 . S
O390 Co363 2.096 . S
O390 C371 1.247 . S
C391 O388 1.244 . S
C391 O389 1.240 . S
H392 C366 0.931 . S
H393 C375 0.931 . S
H394 C379 0.929 . S
H395 C381 0.930 . S
H396 C408 0.930 . S
H397 C410 0.930 . S
H398 C411 0.930 . S
H399 C415 0.959 . S
H400 C415 0.959 . S
H401 C415 0.961 . S
H402 C416 0.960 . S
H403 C416 0.961 . S
H404 C416 0.959 . S
H405 C419 0.929 1_554 S
H406 C420 0.931 . S
H407 C422 0.930 1_545 S
C408 H396 0.930 . S
C408 C409 1.399 . S
C408 C413 1.399 . S
C409 C408 1.399 . S
C409 C410 1.376 . S
C410 H397 0.930 . S
C410 C409 1.376 . S
C410 C411 1.388 1_545 S
C411 H398 0.930 . S
C411 C410 1.388 1_565 S
C411 C412 1.390 . S
C412 C411 1.390 . S
C412 C413 1.394 1_565 S
C412 C418 1.465 1_554 S
C413 C408 1.399 . S
C413 C412 1.394 1_545 S
C413 C414 1.516 1_554 S
C414 C413 1.516 1_556 S
C414 C415 1.502 . S
C414 C416 1.561 . S
C414 C417 1.526 1_545 S
C415 H399 0.959 . S
C415 H400 0.959 . S
C415 H401 0.961 . S
C415 C414 1.502 . S
C416 H402 0.960 . S
C416 H403 0.961 . S
C416 H404 0.959 . S
C416 C414 1.561 . S
C417 C414 1.526 1_565 S
C417 C418 1.396 . S
C417 C422 1.390 . S
C418 C412 1.465 1_556 S
C418 C417 1.396 . S
C418 C419 1.399 . S
C419 H405 0.929 1_556 S
C419 C418 1.399 . S
C419 C420 1.385 . S
C420 H406 0.931 . S
C420 C419 1.385 . S
C420 C421 1.389 . S
C421 C420 1.389 . S
C421 C422 1.387 . S
C422 H407 0.930 1_565 S
C422 C417 1.390 . S
C422 C421 1.387 . S
H423 C435 0.930 . S
H424 C437 0.930 . S
H425 C438 0.930 . S
H426 C442 0.959 . S
H427 C442 0.959 . S
H428 C442 0.961 . S
H429 C443 0.960 . S
H430 C443 0.961 . S
H431 C443 0.959 . S
H432 C446 0.929 . S
H433 C447 0.931 . S
H434 C449 0.930 . S
C435 H423 0.930 . S
C435 C436 1.399 . S
C435 C440 1.399 . S
C436 C435 1.399 . S
C436 C437 1.376 . S
C437 H424 0.930 . S
C437 C436 1.376 . S
C437 C438 1.388 . S
C438 H425 0.930 . S
C438 C437 1.388 . S
C438 C439 1.390 . S
C439 C438 1.390 . S
C439 C440 1.394 . S
C439 C445 1.465 . S
C440 C435 1.399 . S
C440 C439 1.394 . S
C440 C441 1.516 . S
C441 C440 1.516 . S
C441 C442 1.502 . S
C441 C443 1.561 . S
C441 C444 1.526 . S
C442 H426 0.959 . S
C442 H427 0.959 . S
C442 H428 0.961 . S
C442 C441 1.502 . S
C443 H429 0.960 . S
C443 H430 0.961 . S
C443 H431 0.959 . S
C443 C441 1.561 . S
C444 C441 1.526 . S
C444 C445 1.396 . S
C444 C449 1.390 . S
C445 C439 1.465 . S
C445 C444 1.396 . S
C445 C446 1.399 . S
C446 H432 0.929 . S
C446 C445 1.399 . S
C446 C447 1.385 . S
C447 H433 0.931 . S
C447 C446 1.385 . S
C447 C448 1.389 . S
C448 C447 1.389 . S
C448 C449 1.387 . S
C449 H434 0.930 . S
C449 C444 1.390 . S
C449 C448 1.387 . S
H450 C462 0.930 . S
H451 C464 0.930 . S
H452 C465 0.930 . S
H453 C469 0.959 . S
H454 C469 0.959 1_455 S
H455 C469 0.961 . S
H456 C470 0.960 . S
H457 C470 0.961 . S
H458 C470 0.959 . S
H459 C473 0.929 . S
H460 C474 0.931 . S
H461 C476 0.930 . S
C462 H450 0.930 . S
C462 C463 1.399 . S
C462 C467 1.399 . S
C463 C462 1.399 . S
C463 C464 1.376 . S
C464 H451 0.930 . S
C464 C463 1.376 . S
C464 C465 1.388 . S
C465 H452 0.930 . S
C465 C464 1.388 . S
C465 C466 1.390 . S
C466 C465 1.390 . S
C466 C467 1.394 . S
C466 C472 1.465 1_655 S
C467 C462 1.399 . S
C467 C466 1.394 . S
C467 C468 1.516 1_655 S
C468 C467 1.516 1_455 S
C468 C469 1.502 1_455 S
C468 C470 1.561 . S
C468 C471 1.526 . S
C469 H453 0.959 . S
C469 H454 0.959 1_655 S
C469 H455 0.961 . S
C469 C468 1.502 1_655 S
C470 H456 0.960 . S
C470 H457 0.961 . S
C470 H458 0.959 . S
C470 C468 1.561 . S
C471 C468 1.526 . S
C471 C472 1.396 . S
C471 C476 1.390 . S
C472 C466 1.465 1_455 S
C472 C471 1.396 . S
C472 C473 1.399 . S
C473 H459 0.929 . S
C473 C472 1.399 . S
C473 C474 1.385 . S
C474 H460 0.931 . S
C474 C473 1.385 . S
C474 C475 1.389 . S
C475 C474 1.389 . S
C475 C476 1.387 . S
C476 H461 0.930 . S
C476 C471 1.390 . S
C476 C475 1.387 . S
H477 C489 0.930 . S
H478 C491 0.930 . S
H479 C492 0.930 . S
H480 C496 0.959 . S
H481 C496 0.959 . S
H482 C496 0.961 . S
H483 C497 0.960 . S
H484 C497 0.961 . S
H485 C497 0.959 . S
H486 C500 0.929 . S
H487 C501 0.931 . S
H488 C503 0.930 . S
C489 H477 0.930 . S
C489 C490 1.399 . S
C489 C494 1.399 . S
C490 C489 1.399 . S
C490 C491 1.376 . S
C491 H478 0.930 . S
C491 C490 1.376 . S
C491 C492 1.388 1_545 S
C492 H479 0.930 . S
C492 C491 1.388 1_565 S
C492 C493 1.390 1_565 S
C493 C492 1.390 1_545 S
C493 C494 1.394 . S
C493 C499 1.465 1_546 S
C494 C489 1.399 . S
C494 C493 1.394 . S
C494 C495 1.516 1_556 S
C495 C494 1.516 1_554 S
C495 C496 1.502 . S
C495 C497 1.561 . S
C495 C498 1.526 1_545 S
C496 H480 0.959 . S
C496 H481 0.959 . S
C496 H482 0.961 . S
C496 C495 1.502 . S
C497 H483 0.960 . S
C497 H484 0.961 . S
C497 H485 0.959 . S
C497 C495 1.561 . S
C498 C495 1.526 1_565 S
C498 C499 1.396 . S
C498 C503 1.390 . S
C499 C493 1.465 1_564 S
C499 C498 1.396 . S
C499 C500 1.399 . S
C500 H486 0.929 . S
C500 C499 1.399 . S
C500 C501 1.385 . S
C501 H487 0.931 . S
C501 C500 1.385 . S
C501 C502 1.389 . S
C502 C501 1.389 . S
C502 C503 1.387 . S
C503 H488 0.930 . S
C503 C498 1.390 . S
C503 C502 1.387 . S
H504 C516 0.930 . S
H505 C518 0.930 . S
H506 C519 0.930 . S
H507 C523 0.959 . S
H508 C523 0.959 . S
H509 C523 0.961 . S
H510 C524 0.960 . S
H511 C524 0.961 . S
H512 C524 0.959 . S
H513 C527 0.929 . S
H514 C528 0.931 . S
H515 C530 0.930 . S
C516 H504 0.930 . S
C516 C517 1.399 . S
C516 C521 1.399 . S
C517 C516 1.399 . S
C517 C518 1.376 . S
C518 H505 0.930 . S
C518 C517 1.376 . S
C518 C519 1.388 . S
C519 H506 0.930 . S
C519 C518 1.388 . S
C519 C520 1.390 . S
C520 C519 1.390 . S
C520 C521 1.394 . S
C520 C526 1.465 . S
C521 C516 1.399 . S
C521 C520 1.394 . S
C521 C522 1.516 . S
C522 C521 1.516 . S
C522 C523 1.502 . S
C522 C524 1.561 . S
C522 C525 1.526 . S
C523 H507 0.959 . S
C523 H508 0.959 . S
C523 H509 0.961 . S
C523 C522 1.502 . S
C524 H510 0.960 . S
C524 H511 0.961 . S
C524 H512 0.959 . S
C524 C522 1.561 . S
C525 C522 1.526 . S
C525 C526 1.396 . S
C525 C530 1.390 . S
C526 C520 1.465 . S
C526 C525 1.396 . S
C526 C527 1.399 . S
C527 H513 0.929 . S
C527 C526 1.399 . S
C527 C528 1.385 . S
C528 H514 0.931 . S
C528 C527 1.385 . S
C528 C529 1.389 . S
C529 C528 1.389 . S
C529 C530 1.387 . S
C530 H515 0.930 . S
C530 C525 1.390 . S
C530 C529 1.387 . S
H531 C543 0.930 . S
H532 C545 0.930 . S
H533 C546 0.930 . S
H534 C550 0.959 . S
H535 C550 0.959 . S
H536 C550 0.961 . S
H537 C551 0.960 . S
H538 C551 0.961 . S
H539 C551 0.959 . S
H540 C554 0.929 . S
H541 C555 0.931 . S
H542 C557 0.930 . S
C543 H531 0.930 . S
C543 C544 1.399 . S
C543 C548 1.399 . S
C544 C543 1.399 . S
C544 C545 1.376 . S
C545 H532 0.930 . S
C545 C544 1.376 . S
C545 C546 1.388 . S
C546 H533 0.930 . S
C546 C545 1.388 . S
C546 C547 1.390 . S
C547 C546 1.390 . S
C547 C548 1.394 . S
C547 C553 1.465 1_455 S
C548 C543 1.399 . S
C548 C547 1.394 . S
C548 C549 1.519 . S
C549 C548 1.519 . S
C549 C550 1.497 1_455 S
C549 C551 1.563 . S
C549 C552 1.526 1_455 S
C550 H534 0.959 . S
C550 H535 0.959 . S
C550 H536 0.961 . S
C550 C549 1.497 1_655 S
C551 H537 0.960 . S
C551 H538 0.961 . S
C551 H539 0.959 . S
C551 C549 1.563 . S
C552 C549 1.526 1_655 S
C552 C553 1.396 . S
C552 C557 1.390 . S
C553 C547 1.465 1_655 S
C553 C552 1.396 . S
C553 C554 1.399 . S
C554 H540 0.929 . S
C554 C553 1.399 . S
C554 C555 1.385 . S
C555 H541 0.931 . S
C555 C554 1.385 . S
C555 C556 1.389 . S
C556 C555 1.389 . S
C556 C557 1.387 . S
C557 H542 0.930 . S
C557 C552 1.390 . S
C557 C556 1.387 . S
H558 C570 0.930 . S
H559 C572 0.930 . S
H560 C573 0.930 . S
H561 C577 0.959 . S
H562 C577 0.959 . S
H563 C577 0.961 . S
H564 C578 0.960 . S
H565 C578 0.961 1_545 S
H566 C578 0.959 . S
H567 C581 0.929 . S
H568 C582 0.931 . S
H569 C584 0.930 . S
C570 H558 0.930 . S
C570 C571 1.399 . S
C570 C575 1.399 . S
C571 C570 1.399 . S
C571 C572 1.376 . S
C572 H559 0.930 . S
C572 C571 1.376 . S
C572 C573 1.388 . S
C573 H560 0.930 . S
C573 C572 1.388 . S
C573 C574 1.390 . S
C574 C573 1.390 . S
C574 C575 1.394 . S
C574 C580 1.465 . S
C575 C570 1.399 . S
C575 C574 1.394 . S
C575 C576 1.516 1_565 S
C576 C575 1.516 1_545 S
C576 C577 1.502 . S
C576 C578 1.561 1_545 S
C576 C579 1.526 . S
C577 H561 0.959 . S
C577 H562 0.959 . S
C577 H563 0.961 . S
C577 C576 1.502 . S
C578 H564 0.960 . S
C578 H565 0.961 1_565 S
C578 H566 0.959 . S
C578 C576 1.561 1_565 S
C579 C576 1.526 . S
C579 C580 1.396 1_545 S
C579 C584 1.390 . S
C580 C574 1.465 . S
C580 C579 1.396 1_565 S
C580 C581 1.399 . S
C581 H567 0.929 . S
C581 C580 1.399 . S
C581 C582 1.385 1_565 S
C582 H568 0.931 . S
C582 C581 1.385 1_545 S
C582 C583 1.389 . S
C583 C582 1.389 . S
C583 C584 1.387 . S
C584 H569 0.930 . S
C584 C579 1.390 . S
C584 C583 1.387 . S
H585 C597 0.930 . S
H586 C599 0.930 . S
H587 C600 0.930 . S
H588 C604 0.959 . S
H589 C604 0.959 . S
H590 C604 0.961 . S
H591 C605 0.960 . S
H592 C605 0.961 . S
H593 C605 0.959 . S
H594 C608 0.929 . S
H595 C609 0.931 . S
H596 C611 0.930 . S
C597 H585 0.930 . S
C597 C598 1.399 . S
C597 C602 1.399 . S
C598 C597 1.399 . S
C598 C599 1.376 . S
C599 H586 0.930 . S
C599 C598 1.376 . S
C599 C600 1.388 . S
C600 H587 0.930 . S
C600 C599 1.388 . S
C600 C601 1.390 . S
C601 C600 1.390 . S
C601 C602 1.394 . S
C601 C607 1.465 . S
C602 C597 1.399 . S
C602 C601 1.394 . S
C602 C603 1.516 . S
C603 C602 1.516 . S
C603 C604 1.502 . S
C603 C605 1.561 . S
C603 C606 1.526 . S
C604 H588 0.959 . S
C604 H589 0.959 . S
C604 H590 0.961 . S
C604 C603 1.502 . S
C605 H591 0.960 . S
C605 H592 0.961 . S
C605 H593 0.959 . S
C605 C603 1.561 . S
C606 C603 1.526 . S
C606 C607 1.396 . S
C606 C611 1.390 . S
C607 C601 1.465 . S
C607 C606 1.396 . S
C607 C608 1.399 . S
C608 H594 0.929 . S
C608 C607 1.399 . S
C608 C609 1.385 . S
C609 H595 0.931 . S
C609 C608 1.385 . S
C609 C610 1.389 . S
C610 C609 1.389 . S
C610 C611 1.387 . S
C611 H596 0.930 . S
C611 C606 1.390 . S
C611 C610 1.387 . S
H612 C624 0.930 . S
H613 C626 0.928 1_655 S
H614 C627 0.930 . S
H615 C631 0.959 . S
H616 C631 0.959 . S
H617 C631 0.961 . S
H618 C632 0.960 . S
H619 C632 0.961 . S
H620 C632 0.959 1_655 S
H621 C635 0.929 . S
H622 C636 0.931 . S
H623 C638 0.930 . S
C624 H612 0.930 . S
C624 C625 1.399 . S
C624 C629 1.399 . S
C625 C624 1.399 . S
C625 C626 1.376 . S
C626 H613 0.928 1_455 S
C626 C625 1.376 . S
C626 C627 1.388 1_455 S
C627 H614 0.930 . S
C627 C626 1.388 1_655 S
C627 C628 1.390 . S
C628 C627 1.390 . S
C628 C629 1.394 1_655 S
C628 C634 1.465 . S
C629 C624 1.399 . S
C629 C628 1.394 1_455 S
C629 C630 1.516 . S
C630 C629 1.516 . S
C630 C631 1.502 . S
C630 C632 1.561 . S
C630 C633 1.526 1_455 S
C631 H615 0.959 . S
C631 H616 0.959 . S
C631 H617 0.961 . S
C631 C630 1.502 . S
C632 H618 0.960 . S
C632 H619 0.961 . S
C632 H620 0.959 1_455 S
C632 C630 1.561 . S
C633 C630 1.526 1_655 S
C633 C634 1.396 . S
C633 C638 1.390 . S
C634 C628 1.465 . S
C634 C633 1.396 . S
C634 C635 1.399 . S
C635 H621 0.929 . S
C635 C634 1.399 . S
C635 C636 1.385 . S
C636 H622 0.931 . S
C636 C635 1.385 . S
C636 C637 1.389 . S
C637 C636 1.389 . S
C637 C638 1.387 . S
C638 H623 0.930 . S
C638 C633 1.390 . S
C638 C637 1.387 . S
H639 C651 0.930 1_655 S
H640 C653 0.930 . S
H641 C654 0.930 . S
H642 C658 0.959 . S
H643 C658 0.959 . S
H644 C658 0.961 . S
H645 C659 0.960 . S
H646 C659 0.961 . S
H647 C659 0.965 . S
H648 C662 0.929 . S
H649 C663 0.931 . S
H650 C665 0.930 . S
C651 H639 0.930 1_455 S
C651 C652 1.399 . S
C651 C656 1.398 1_455 S
C652 C651 1.399 . S
C652 C653 1.376 . S
C653 H640 0.930 . S
C653 C652 1.376 . S
C653 C654 1.388 . S
C654 H641 0.930 . S
C654 C653 1.388 . S
C654 C655 1.390 . S
C655 C654 1.390 . S
C655 C656 1.393 1_455 S
C655 C661 1.465 . S
C656 C651 1.398 1_655 S
C656 C655 1.393 1_655 S
C656 C657 1.518 . S
C657 C656 1.518 . S
C657 C658 1.502 . S
C657 C659 1.561 . S
C657 C660 1.526 . S
C658 H642 0.959 . S
C658 H643 0.959 . S
C658 H644 0.961 . S
C658 C657 1.502 . S
C659 H645 0.960 . S
C659 H646 0.961 . S
C659 H647 0.965 . S
C659 C657 1.561 . S
C660 C657 1.526 . S
C660 C661 1.396 1_655 S
C660 C665 1.390 . S
C661 C655 1.465 . S
C661 C660 1.396 1_455 S
C661 C662 1.399 . S
C662 H648 0.929 . S
C662 C661 1.399 . S
C662 C663 1.385 . S
C663 H649 0.931 . S
C663 C662 1.385 . S
C663 C664 1.389 1_455 S
C664 C663 1.389 1_655 S
C664 C665 1.387 . S
C665 H650 0.930 . S
C665 C660 1.390 . S
C665 C664 1.387 . S
H666 C678 0.930 . S
H667 C680 0.930 . S
H668 C681 0.930 . S
H669 C685 0.959 . S
H670 C685 0.959 . S
H671 C685 0.961 . S
H672 C686 0.960 . S
H673 C686 0.961 . S
H674 C686 0.959 . S
H675 C689 0.929 1_545 S
H676 C690 0.931 . S
H677 C692 0.930 . S
C678 H666 0.930 . S
C678 C679 1.399 . S
C678 C683 1.399 . S
C679 C678 1.399 . S
C679 C680 1.376 . S
C680 H667 0.930 . S
C680 C679 1.376 . S
C680 C681 1.388 . S
C681 H668 0.930 . S
C681 C680 1.388 . S
C681 C682 1.390 . S
C682 C681 1.390 . S
C682 C683 1.394 . S
C682 C688 1.465 . S
C683 C678 1.399 . S
C683 C682 1.394 . S
C683 C684 1.516 1_545 S
C684 C683 1.516 1_565 S
C684 C685 1.502 . S
C684 C686 1.561 1_565 S
C684 C687 1.526 . S
C685 H669 0.959 . S
C685 H670 0.959 . S
C685 H671 0.961 . S
C685 C684 1.502 . S
C686 H672 0.960 . S
C686 H673 0.961 . S
C686 H674 0.959 . S
C686 C684 1.561 1_545 S
C687 C684 1.526 . S
C687 C688 1.396 1_565 S
C687 C692 1.390 . S
C688 C682 1.465 . S
C688 C687 1.396 1_545 S
C688 C689 1.399 1_545 S
C689 H675 0.929 1_565 S
C689 C688 1.399 1_565 S
C689 C690 1.385 . S
C690 H676 0.931 . S
C690 C689 1.385 . S
C690 C691 1.389 . S
C691 C690 1.389 . S
C691 C692 1.387 . S
C692 H677 0.930 . S
C692 C687 1.390 . S
C692 C691 1.387 . S
H693 C705 0.930 . S
H694 C707 0.930 . S
H695 C708 0.930 . S
H696 C712 0.959 . S
H697 C712 0.959 . S
H698 C712 0.961 . S
H699 C713 0.960 . S
H700 C713 0.961 . S
H701 C713 0.959 . S
H702 C716 0.929 . S
H703 C717 0.931 . S
H704 C719 0.930 . S
C705 H693 0.930 . S
C705 C706 1.399 . S
C705 C710 1.399 . S
C706 C705 1.399 . S
C706 C707 1.376 . S
C707 H694 0.930 . S
C707 C706 1.376 . S
C707 C708 1.388 . S
C708 H695 0.930 . S
C708 C707 1.388 . S
C708 C709 1.390 . S
C709 C708 1.390 . S
C709 C710 1.394 . S
C709 C715 1.465 . S
C710 C705 1.399 . S
C710 C709 1.394 . S
C710 C711 1.516 . S
C711 C710 1.516 . S
C711 C712 1.502 . S
C711 C713 1.561 . S
C711 C714 1.526 . S
C712 H696 0.959 . S
C712 H697 0.959 . S
C712 H698 0.961 . S
C712 C711 1.502 . S
C713 H699 0.960 . S
C713 H700 0.961 . S
C713 H701 0.959 . S
C713 C711 1.561 . S
C714 C711 1.526 . S
C714 C715 1.396 . S
C714 C719 1.390 . S
C715 C709 1.465 . S
C715 C714 1.396 . S
C715 C716 1.399 . S
C716 H702 0.929 . S
C716 C715 1.399 . S
C716 C717 1.385 . S
C717 H703 0.931 . S
C717 C716 1.385 . S
C717 C718 1.389 . S
C718 C717 1.389 . S
C718 C719 1.387 . S
C719 H704 0.930 . S
C719 C714 1.390 . S
C719 C718 1.387 . S
H720 C732 0.930 . S
H721 C734 0.930 . S
H722 C735 0.930 . S
H723 C739 0.959 . S
H724 C739 0.959 . S
H725 C739 0.961 . S
H726 C740 0.960 . S
H727 C740 0.961 . S
H728 C740 0.959 . S
H729 C743 0.929 . S
H730 C744 0.931 . S
H731 C746 0.930 . S
C732 H720 0.930 . S
C732 C733 1.399 . S
C732 C737 1.399 . S
C733 C732 1.399 . S
C733 C734 1.376 . S
C734 H721 0.930 . S
C734 C733 1.376 . S
C734 C735 1.388 . S
C735 H722 0.930 . S
C735 C734 1.388 . S
C735 C736 1.390 . S
C736 C735 1.390 . S
C736 C737 1.394 . S
C736 C742 1.465 . S
C737 C732 1.399 . S
C737 C736 1.394 . S
C737 C738 1.516 . S
C738 C737 1.516 . S
C738 C739 1.502 . S
C738 C740 1.561 . S
C738 C741 1.526 . S
C739 H723 0.959 . S
C739 H724 0.959 . S
C739 H725 0.961 . S
C739 C738 1.502 . S
C740 H726 0.960 . S
C740 H727 0.961 . S
C740 H728 0.959 . S
C740 C738 1.561 . S
C741 C738 1.526 . S
C741 C742 1.396 . S
C741 C746 1.390 . S
C742 C736 1.465 . S
C742 C741 1.396 . S
C742 C743 1.399 . S
C743 H729 0.929 . S
C743 C742 1.399 . S
C743 C744 1.385 . S
C744 H730 0.931 . S
C744 C743 1.385 . S
C744 C745 1.389 . S
C745 C744 1.389 . S
C745 C746 1.387 . S
C746 H731 0.930 . S
C746 C741 1.390 . S
C746 C745 1.387 . S
H747 C759 0.930 . S
H748 C761 0.930 . S
H749 C762 0.930 . S
H750 C766 0.959 . S
H751 C766 0.959 . S
H752 C766 0.961 . S
H753 C767 0.960 . S
H754 C767 0.961 . S
H755 C767 0.959 . S
H756 C770 0.929 . S
H757 C771 0.931 . S
H758 C773 0.930 . S
C759 H747 0.930 . S
C759 C760 1.399 . S
C759 C764 1.399 . S
C760 C759 1.399 . S
C760 C761 1.376 . S
C761 H748 0.930 . S
C761 C760 1.376 . S
C761 C762 1.388 . S
C762 H749 0.930 . S
C762 C761 1.388 . S
C762 C763 1.390 . S
C763 C762 1.390 . S
C763 C764 1.394 . S
C763 C769 1.465 . S
C764 C759 1.399 . S
C764 C763 1.394 . S
C764 C765 1.516 . S
C765 C764 1.516 . S
C765 C766 1.502 . S
C765 C767 1.561 . S
C765 C768 1.526 . S
C766 H750 0.959 . S
C766 H751 0.959 . S
C766 H752 0.961 . S
C766 C765 1.502 . S
C767 H753 0.960 . S
C767 H754 0.961 . S
C767 H755 0.959 . S
C767 C765 1.561 . S
C768 C765 1.526 . S
C768 C769 1.396 . S
C768 C773 1.390 . S
C769 C763 1.465 . S
C769 C768 1.396 . S
C769 C770 1.399 . S
C770 H756 0.929 . S
C770 C769 1.399 . S
C770 C771 1.385 . S
C771 H757 0.931 . S
C771 C770 1.385 . S
C771 C772 1.389 . S
C772 C771 1.389 . S
C772 C773 1.387 . S
C773 H758 0.930 . S
C773 C768 1.390 . S
C773 C772 1.387 . S
H774 C786 0.930 . S
H775 C788 0.930 . S
H776 C789 0.930 . S
H777 C793 0.959 . S
H778 C793 0.959 . S
H779 C793 0.961 . S
H780 C794 0.960 . S
H781 C794 0.961 . S
H782 C794 0.959 . S
H783 C797 0.929 . S
H784 C798 0.931 . S
H785 C800 0.930 . S
C786 H774 0.930 . S
C786 C787 1.399 . S
C786 C791 1.399 . S
C787 C786 1.399 . S
C787 C788 1.376 . S
C788 H775 0.930 . S
C788 C787 1.376 . S
C788 C789 1.388 . S
C789 H776 0.930 . S
C789 C788 1.388 . S
C789 C790 1.390 . S
C790 C789 1.390 . S
C790 C791 1.394 . S
C790 C796 1.465 . S
C791 C786 1.399 . S
C791 C790 1.394 . S
C791 C792 1.516 . S
C792 C791 1.516 . S
C792 C793 1.502 . S
C792 C794 1.561 . S
C792 C795 1.526 . S
C793 H777 0.959 . S
C793 H778 0.959 . S
C793 H779 0.961 . S
C793 C792 1.502 . S
C794 H780 0.960 . S
C794 H781 0.961 . S
C794 H782 0.959 . S
C794 C792 1.561 . S
C795 C792 1.526 . S
C795 C796 1.396 . S
C795 C800 1.390 . S
C796 C790 1.465 . S
C796 C795 1.396 . S
C796 C797 1.399 . S
C797 H783 0.929 . S
C797 C796 1.399 . S
C797 C798 1.385 . S
C798 H784 0.931 . S
C798 C797 1.385 . S
C798 C799 1.389 . S
C799 C798 1.389 . S
C799 C800 1.387 . S
C800 H785 0.930 . S
C800 C795 1.390 . S
C800 C799 1.387 . S
H801 C813 0.930 . S
H802 C815 0.930 . S
H803 C816 0.930 . S
H804 C820 0.959 . S
H805 C820 0.959 . S
H806 C820 0.961 . S
H807 C821 0.960 . S
H808 C821 0.961 . S
H809 C821 0.959 . S
H810 C824 0.929 . S
H811 C825 0.931 . S
H812 C827 0.930 . S
C813 H801 0.930 . S
C813 C814 1.399 . S
C813 C818 1.399 . S
C814 C813 1.399 . S
C814 C815 1.376 . S
C815 H802 0.930 . S
C815 C814 1.376 . S
C815 C816 1.388 . S
C816 H803 0.930 . S
C816 C815 1.388 . S
C816 C817 1.390 . S
C817 C816 1.390 . S
C817 C818 1.394 . S
C817 C823 1.465 . S
C818 C813 1.399 . S
C818 C817 1.394 . S
C818 C819 1.516 . S
C819 C818 1.516 . S
C819 C820 1.502 . S
C819 C821 1.561 . S
C819 C822 1.526 . S
C820 H804 0.959 . S
C820 H805 0.959 . S
C820 H806 0.961 . S
C820 C819 1.502 . S
C821 H807 0.960 . S
C821 H808 0.961 . S
C821 H809 0.959 . S
C821 C819 1.561 . S
C822 C819 1.526 . S
C822 C823 1.396 . S
C822 C827 1.390 . S
C823 C817 1.465 . S
C823 C822 1.396 . S
C823 C824 1.399 . S
C824 H810 0.929 . S
C824 C823 1.399 . S
C824 C825 1.385 . S
C825 H811 0.931 . S
C825 C824 1.385 . S
C825 C826 1.389 . S
C826 C825 1.389 . S
C826 C827 1.387 . S
C827 H812 0.930 . S
C827 C822 1.390 . S
C827 C826 1.387 . S
H828 C840 0.930 . S
H829 C842 0.930 . S
H830 C843 0.930 . S
H831 C847 0.959 . S
H832 C847 0.959 . S
H833 C847 0.961 . S
H834 C848 0.960 . S
H835 C848 0.961 . S
H836 C848 0.959 . S
H837 C851 0.929 . S
H838 C852 0.931 . S
H839 C854 0.930 . S
C840 H828 0.930 . S
C840 C841 1.399 . S
C840 C845 1.399 . S
C841 C840 1.399 . S
C841 C842 1.376 . S
C842 H829 0.930 . S
C842 C841 1.376 . S
C842 C843 1.388 . S
C843 H830 0.930 . S
C843 C842 1.388 . S
C843 C844 1.390 . S
C844 C843 1.390 . S
C844 C845 1.394 . S
C844 C850 1.465 . S
C845 C840 1.399 . S
C845 C844 1.394 . S
C845 C846 1.516 . S
C846 C845 1.516 . S
C846 C847 1.502 . S
C846 C848 1.561 . S
C846 C849 1.526 . S
C847 H831 0.959 . S
C847 H832 0.959 . S
C847 H833 0.961 . S
C847 C846 1.502 . S
C848 H834 0.960 . S
C848 H835 0.961 . S
C848 H836 0.959 . S
C848 C846 1.561 . S
C849 C846 1.526 . S
C849 C850 1.396 . S
C849 C854 1.390 . S
C850 C844 1.465 . S
C850 C849 1.396 . S
C850 C851 1.399 . S
C851 H837 0.929 . S
C851 C850 1.399 . S
C851 C852 1.385 . S
C852 H838 0.931 . S
C852 C851 1.385 . S
C852 C853 1.389 . S
C853 C852 1.389 . S
C853 C854 1.387 . S
C854 H839 0.930 . S
C854 C849 1.390 . S
C854 C853 1.387 . S
H855 C867 0.930 . S
H856 C869 0.930 . S
H857 C870 0.930 . S
H858 C874 0.959 . S
H859 C874 0.959 . S
H860 C874 0.961 . S
H861 C875 0.960 . S
H862 C875 0.961 . S
H863 C875 0.959 . S
H864 C878 0.929 . S
H865 C879 0.931 . S
H866 C881 0.930 . S
C867 H855 0.930 . S
C867 C868 1.399 . S
C867 C872 1.399 . S
C868 C867 1.399 . S
C868 C869 1.376 . S
C869 H856 0.930 . S
C869 C868 1.376 . S
C869 C870 1.388 . S
C870 H857 0.930 . S
C870 C869 1.388 . S
C870 C871 1.390 . S
C871 C870 1.390 . S
C871 C872 1.394 . S
C871 C877 1.465 . S
C872 C867 1.399 . S
C872 C871 1.394 . S
C872 C873 1.516 . S
C873 C872 1.516 . S
C873 C874 1.502 . S
C873 C875 1.561 . S
C873 C876 1.526 . S
C874 H858 0.959 . S
C874 H859 0.959 . S
C874 H860 0.961 . S
C874 C873 1.502 . S
C875 H861 0.960 . S
C875 H862 0.961 . S
C875 H863 0.959 . S
C875 C873 1.561 . S
C876 C873 1.526 . S
C876 C877 1.396 . S
C876 C881 1.390 . S
C877 C871 1.465 . S
C877 C876 1.396 . S
C877 C878 1.399 . S
C878 H864 0.929 . S
C878 C877 1.399 . S
C878 C879 1.385 . S
C879 H865 0.931 . S
C879 C878 1.385 . S
C879 C880 1.389 . S
C880 C879 1.389 . S
C880 C881 1.387 . S
C881 H866 0.930 . S
C881 C876 1.390 . S
C881 C880 1.387 . S
H882 C894 0.930 . S
H883 C896 0.930 . S
H884 C897 0.930 . S
H885 C901 0.959 . S
H886 C901 0.959 . S
H887 C901 0.961 . S
H888 C902 0.960 . S
H889 C902 0.961 . S
H890 C902 0.959 . S
H891 C905 0.929 . S
H892 C906 0.931 . S
H893 C908 0.930 . S
C894 H882 0.930 . S
C894 C895 1.399 . S
C894 C899 1.399 . S
C895 C894 1.399 . S
C895 C896 1.376 . S
C896 H883 0.930 . S
C896 C895 1.376 . S
C896 C897 1.388 . S
C897 H884 0.930 . S
C897 C896 1.388 . S
C897 C898 1.390 . S
C898 C897 1.390 . S
C898 C899 1.394 . S
C898 C904 1.465 . S
C899 C894 1.399 . S
C899 C898 1.394 . S
C899 C900 1.516 . S
C900 C899 1.516 . S
C900 C901 1.502 . S
C900 C902 1.561 . S
C900 C903 1.526 . S
C901 H885 0.959 . S
C901 H886 0.959 . S
C901 H887 0.961 . S
C901 C900 1.502 . S
C902 H888 0.960 . S
C902 H889 0.961 . S
C902 H890 0.959 . S
C902 C900 1.561 . S
C903 C900 1.526 . S
C903 C904 1.396 . S
C903 C908 1.390 . S
C904 C898 1.465 . S
C904 C903 1.396 . S
C904 C905 1.399 . S
C905 H891 0.929 . S
C905 C904 1.399 . S
C905 C906 1.385 . S
C906 H892 0.931 . S
C906 C905 1.385 . S
C906 C907 1.389 . S
C907 C906 1.389 . S
C907 C908 1.387 . S
C908 H893 0.930 . S
C908 C903 1.390 . S
C908 C907 1.387 . S
H909 C921 0.930 1_655 S
H910 C923 0.930 . S
H911 C924 0.930 . S
H912 C928 0.959 . S
H913 C928 0.959 . S
H914 C928 0.961 . S
H915 C929 0.960 . S
H916 C929 0.961 . S
H917 C929 0.959 . S
H918 C932 0.929 . S
H919 C933 0.930 . S
H920 C935 0.930 . S
C921 H909 0.930 1_455 S
C921 C922 1.399 . S
C921 C926 1.399 1_455 S
C922 C921 1.399 . S
C922 C923 1.376 . S
C923 H910 0.930 . S
C923 C922 1.376 . S
C923 C924 1.388 . S
C924 H911 0.930 . S
C924 C923 1.388 . S
C924 C925 1.390 . S
C925 C924 1.390 . S
C925 C926 1.394 1_455 S
C925 C931 1.465 . S
C926 C921 1.399 1_655 S
C926 C925 1.394 1_655 S
C926 C927 1.516 . S
C927 C926 1.516 . S
C927 C928 1.502 . S
C927 C929 1.561 . S
C927 C930 1.526 . S
C928 H912 0.959 . S
C928 H913 0.959 . S
C928 H914 0.961 . S
C928 C927 1.502 . S
C929 H915 0.960 . S
C929 H916 0.961 . S
C929 H917 0.959 . S
C929 C927 1.561 . S
C930 C927 1.526 . S
C930 C931 1.396 1_655 S
C930 C935 1.390 . S
C931 C925 1.465 . S
C931 C930 1.396 1_455 S
C931 C932 1.399 . S
C932 H918 0.929 . S
C932 C931 1.399 . S
C932 C933 1.385 1_455 S
C933 H919 0.930 . S
C933 C932 1.385 1_655 S
C933 C934 1.389 . S
C934 C933 1.389 . S
C934 C935 1.387 . S
C935 H920 0.930 . S
C935 C930 1.390 . S
C935 C934 1.387 . S
H936 C948 0.930 . S
H937 C950 0.930 . S
H938 C951 0.930 1_545 S
H939 C955 0.959 . S
H940 C955 0.959 . S
H941 C955 0.961 . S
H942 C956 0.960 . S
H943 C956 0.961 . S
H944 C956 0.959 . S
H945 C959 0.929 . S
H946 C960 0.931 . S
H947 C962 0.930 . S
C948 H936 0.930 . S
C948 C949 1.399 . S
C948 C953 1.399 . S
C949 C948 1.399 . S
C949 C950 1.376 . S
C950 H937 0.930 . S
C950 C949 1.376 . S
C950 C951 1.388 . S
C951 H938 0.930 1_565 S
C951 C950 1.388 . S
C951 C952 1.390 . S
C952 C951 1.390 . S
C952 C953 1.394 . S
C952 C958 1.465 1_565 S
C953 C948 1.399 . S
C953 C952 1.394 . S
C953 C954 1.516 . S
C954 C953 1.516 . S
C954 C955 1.502 . S
C954 C956 1.561 1_565 S
C954 C957 1.526 1_565 S
C955 H939 0.959 . S
C955 H940 0.959 . S
C955 H941 0.961 . S
C955 C954 1.502 . S
C956 H942 0.960 . S
C956 H943 0.961 . S
C956 H944 0.959 . S
C956 C954 1.561 1_545 S
C957 C954 1.526 1_545 S
C957 C958 1.396 . S
C957 C962 1.390 . S
C958 C952 1.465 1_545 S
C958 C957 1.396 . S
C958 C959 1.399 . S
C959 H945 0.929 . S
C959 C958 1.399 . S
C959 C960 1.385 . S
C960 H946 0.931 . S
C960 C959 1.385 . S
C960 C961 1.389 . S
C961 C960 1.389 . S
C961 C962 1.387 . S
C962 H947 0.930 . S
C962 C957 1.390 . S
C962 C961 1.387 . S
H963 C975 0.930 . S
H964 C977 0.930 . S
H965 C978 0.930 . S
H966 C982 0.959 . S
H967 C982 0.959 . S
H968 C982 0.961 . S
H969 C983 0.960 . S
H970 C983 0.961 . S
H971 C983 0.959 . S
H972 C986 0.929 . S
H973 C987 0.931 . S
H974 C989 0.930 . S
C975 H963 0.930 . S
C975 C976 1.399 . S
C975 C980 1.399 . S
C976 C975 1.399 . S
C976 C977 1.376 . S
C977 H964 0.930 . S
C977 C976 1.376 . S
C977 C978 1.388 . S
C978 H965 0.930 . S
C978 C977 1.388 . S
C978 C979 1.390 . S
C979 C978 1.390 . S
C979 C980 1.394 . S
C979 C985 1.465 . S
C980 C975 1.399 . S
C980 C979 1.394 . S
C980 C981 1.516 . S
C981 C980 1.516 . S
C981 C982 1.502 . S
C981 C983 1.561 . S
C981 C984 1.526 . S
C982 H966 0.959 . S
C982 H967 0.959 . S
C982 H968 0.961 . S
C982 C981 1.502 . S
C983 H969 0.960 . S
C983 H970 0.961 . S
C983 H971 0.959 . S
C983 C981 1.561 . S
C984 C981 1.526 . S
C984 C985 1.396 . S
C984 C989 1.390 . S
C985 C979 1.465 . S
C985 C984 1.396 . S
C985 C986 1.399 . S
C986 H972 0.929 . S
C986 C985 1.399 . S
C986 C987 1.385 . S
C987 H973 0.931 . S
C987 C986 1.385 . S
C987 C988 1.389 . S
C988 C987 1.389 . S
C988 C989 1.387 . S
C989 H974 0.930 . S
C989 C984 1.390 . S
C989 C988 1.387 . S
H990 C1002 0.930 . S
H991 C1004 0.930 1_655 S
H992 C1005 0.930 . S
H993 C1009 0.959 . S
H994 C1009 0.959 . S
H995 C1009 0.961 . S
H996 C1010 0.960 . S
H997 C1010 0.961 . S
H998 C1010 0.959 . S
H999 C1013 0.929 . S
H1000 C1014 0.931 . S
H1001 C1016 0.930 1_455 S
C1002 H990 0.930 . S
C1002 C1003 1.399 . S
C1002 C1007 1.399 . S
C1003 C1002 1.399 . S
C1003 C1004 1.376 . S
C1004 H991 0.930 1_455 S
C1004 C1003 1.376 . S
C1004 C1005 1.388 1_455 S
C1005 H992 0.930 . S
C1005 C1004 1.388 1_655 S
C1005 C1006 1.390 . S
C1006 C1005 1.390 . S
C1006 C1007 1.394 1_655 S
C1006 C1012 1.465 . S
C1007 C1002 1.399 . S
C1007 C1006 1.394 1_455 S
C1007 C1008 1.516 . S
C1008 C1007 1.516 . S
C1008 C1009 1.502 . S
C1008 C1010 1.561 . S
C1008 C1011 1.526 . S
C1009 H993 0.959 . S
C1009 H994 0.959 . S
C1009 H995 0.961 . S
C1009 C1008 1.502 . S
C1010 H996 0.960 . S
C1010 H997 0.961 . S
C1010 H998 0.959 . S
C1010 C1008 1.561 . S
C1011 C1008 1.526 . S
C1011 C1012 1.396 1_455 S
C1011 C1016 1.390 1_455 S
C1012 C1006 1.465 . S
C1012 C1011 1.396 1_655 S
C1012 C1013 1.399 . S
C1013 H999 0.929 . S
C1013 C1012 1.399 . S
C1013 C1014 1.385 . S
C1014 H1000 0.931 . S
C1014 C1013 1.385 . S
C1014 C1015 1.389 . S
C1015 C1014 1.389 . S
C1015 C1016 1.387 . S
C1016 H1001 0.930 1_655 S
C1016 C1011 1.390 1_655 S
C1016 C1015 1.387 . S
H1017 C1029 0.930 . S
H1018 C1031 0.930 1_545 S
H1019 C1032 0.930 . S
H1020 C1036 0.959 . S
H1021 C1036 0.959 . S
H1022 C1036 0.961 . S
H1023 C1037 0.960 . S
H1024 C1037 0.961 . S
H1025 C1037 0.959 . S
H1026 C1040 0.929 . S
H1027 C1041 0.931 . S
H1028 C1043 0.930 1_565 S
C1029 H1017 0.930 . S
C1029 C1030 1.399 . S
C1029 C1034 1.399 . S
C1030 C1029 1.399 . S
C1030 C1031 1.376 . S
C1031 H1018 0.930 1_565 S
C1031 C1030 1.376 . S
C1031 C1032 1.388 1_565 S
C1032 H1019 0.930 . S
C1032 C1031 1.388 1_545 S
C1032 C1033 1.390 . S
C1033 C1032 1.390 . S
C1033 C1034 1.394 1_545 S
C1033 C1039 1.465 . S
C1034 C1029 1.399 . S
C1034 C1033 1.394 1_565 S
C1034 C1035 1.516 . S
C1035 C1034 1.516 . S
C1035 C1036 1.502 . S
C1035 C1037 1.561 . S
C1035 C1038 1.526 1_565 S
C1036 H1020 0.959 . S
C1036 H1021 0.959 . S
C1036 H1022 0.961 . S
C1036 C1035 1.502 . S
C1037 H1023 0.960 . S
C1037 H1024 0.961 . S
C1037 H1025 0.959 . S
C1037 C1035 1.561 . S
C1038 C1035 1.526 1_545 S
C1038 C1039 1.396 . S
C1038 C1043 1.390 . S
C1039 C1033 1.465 . S
C1039 C1038 1.396 . S
C1039 C1040 1.399 . S
C1040 H1026 0.929 . S
C1040 C1039 1.399 . S
C1040 C1041 1.385 . S
C1041 H1027 0.931 . S
C1041 C1040 1.385 . S
C1041 C1042 1.389 . S
C1042 C1041 1.389 . S
C1042 C1043 1.387 . S
C1043 H1028 0.930 1_545 S
C1043 C1038 1.390 . S
C1043 C1042 1.387 . S
H1044 C1056 0.930 . S
H1045 C1058 0.930 . S
H1046 C1059 0.930 . S
H1047 C1063 0.959 . S
H1048 C1063 0.959 1_655 S
H1049 C1063 0.961 . S
H1050 C1064 0.960 1_455 S
H1051 C1064 0.961 . S
H1052 C1064 0.959 . S
H1053 C1067 0.929 . S
H1054 C1068 0.931 . S
H1055 C1070 0.930 . S
C1056 H1044 0.930 . S
C1056 C1057 1.399 . S
C1056 C1061 1.399 . S
C1057 C1056 1.399 . S
C1057 C1058 1.376 . S
C1058 H1045 0.930 . S
C1058 C1057 1.376 . S
C1058 C1059 1.388 1_545 S
C1059 H1046 0.930 . S
C1059 C1058 1.388 1_565 S
C1059 C1060 1.390 . S
C1060 C1059 1.390 . S
C1060 C1061 1.394 1_565 S
C1060 C1066 1.465 1_455 S
C1061 C1056 1.399 . S
C1061 C1060 1.394 1_545 S
C1061 C1062 1.516 . S
C1062 C1061 1.516 . S
C1062 C1063 1.502 . S
C1062 C1064 1.561 1_445 S
C1062 C1065 1.526 1_445 S
C1063 H1047 0.959 . S
C1063 H1048 0.959 1_455 S
C1063 H1049 0.961 . S
C1063 C1062 1.502 . S
C1064 H1050 0.960 1_655 S
C1064 H1051 0.961 . S
C1064 H1052 0.959 . S
C1064 C1062 1.561 1_665 S
C1065 C1062 1.526 1_665 S
C1065 C1066 1.396 . S
C1065 C1070 1.390 . S
C1066 C1060 1.465 1_655 S
C1066 C1065 1.396 . S
C1066 C1067 1.399 . S
C1067 H1053 0.929 . S
C1067 C1066 1.399 . S
C1067 C1068 1.385 . S
C1068 H1054 0.931 . S
C1068 C1067 1.385 . S
C1068 C1069 1.389 . S
C1069 C1068 1.389 . S
C1069 C1070 1.387 . S
C1070 H1055 0.930 . S
C1070 C1065 1.390 . S
C1070 C1069 1.387 . S
H1071 C1083 0.930 . S
H1072 C1085 0.930 . S
H1073 C1086 0.930 . S
H1074 C1090 0.959 . S
H1075 C1090 0.959 1_565 S
H1076 C1090 0.961 . S
H1077 C1091 0.960 1_545 S
H1078 C1091 0.961 1_655 S
H1079 C1091 0.959 . S
H1080 C1094 0.929 1_455 S
H1081 C1095 0.931 . S
H1082 C1097 0.930 . S
C1083 H1071 0.930 . S
C1083 C1084 1.399 . S
C1083 C1088 1.399 . S
C1084 C1083 1.399 . S
C1084 C1085 1.376 . S
C1085 H1072 0.930 . S
C1085 C1084 1.376 . S
C1085 C1086 1.388 . S
C1086 H1073 0.930 . S
C1086 C1085 1.388 . S
C1086 C1087 1.390 . S
C1087 C1086 1.390 . S
C1087 C1088 1.394 . S
C1087 C1093 1.465 1_445 S
C1088 C1083 1.399 . S
C1088 C1087 1.394 . S
C1088 C1089 1.516 1_455 S
C1089 C1088 1.516 1_655 S
C1089 C1090 1.502 . S
C1089 C1091 1.561 1_645 S
C1089 C1092 1.526 1_545 S
C1090 H1074 0.959 . S
C1090 H1075 0.959 1_545 S
C1090 H1076 0.961 . S
C1090 C1089 1.502 . S
C1091 H1077 0.960 1_565 S
C1091 H1078 0.961 1_455 S
C1091 H1079 0.959 . S
C1091 C1089 1.561 1_465 S
C1092 C1089 1.526 1_565 S
C1092 C1093 1.396 . S
C1092 C1097 1.390 . S
C1093 C1087 1.465 1_665 S
C1093 C1092 1.396 . S
C1093 C1094 1.399 . S
C1094 H1080 0.929 1_655 S
C1094 C1093 1.399 . S
C1094 C1095 1.385 . S
C1095 H1081 0.931 . S
C1095 C1094 1.385 . S
C1095 C1096 1.389 . S
C1096 C1095 1.389 . S
C1096 C1097 1.387 . S
C1097 H1082 0.930 . S
C1097 C1092 1.390 . S
C1097 C1096 1.387 . S
H1098 C1110 0.930 . S
H1099 C1112 0.930 . S
H1100 C1113 0.930 . S
H1101 C1117 0.959 . S
H1102 C1117 0.959 . S
H1103 C1117 0.961 . S
H1104 C1118 0.960 . S
H1105 C1118 0.961 1_565 S
H1106 C1118 0.959 . S
H1107 C1121 0.929 1_545 S
H1108 C1122 0.931 . S
H1109 C1124 0.930 . S
C1110 H1098 0.930 . S
C1110 C1111 1.399 . S
C1110 C1115 1.399 . S
C1111 C1110 1.399 . S
C1111 C1112 1.376 . S
C1112 H1099 0.930 . S
C1112 C1111 1.376 . S
C1112 C1113 1.388 1_655 S
C1113 H1100 0.930 . S
C1113 C1112 1.388 1_455 S
C1113 C1114 1.390 . S
C1114 C1113 1.390 . S
C1114 C1115 1.394 1_455 S
C1114 C1120 1.465 1_545 S
C1115 C1110 1.399 . S
C1115 C1114 1.394 1_655 S
C1115 C1116 1.516 1_545 S
C1116 C1115 1.516 1_565 S
C1116 C1117 1.502 . S
C1116 C1118 1.561 1_665 S
C1116 C1119 1.526 1_655 S
C1117 H1101 0.959 . S
C1117 H1102 0.959 . S
C1117 H1103 0.961 . S
C1117 C1116 1.502 . S
C1118 H1104 0.960 . S
C1118 H1105 0.961 1_545 S
C1118 H1106 0.959 . S
C1118 C1116 1.561 1_445 S
C1119 C1116 1.526 1_455 S
C1119 C1120 1.396 . S
C1119 C1124 1.390 . S
C1120 C1114 1.465 1_565 S
C1120 C1119 1.396 . S
C1120 C1121 1.399 . S
C1121 H1107 0.929 1_565 S
C1121 C1120 1.399 . S
C1121 C1122 1.385 . S
C1122 H1108 0.931 . S
C1122 C1121 1.385 . S
C1122 C1123 1.389 . S
C1123 C1122 1.389 . S
C1123 C1124 1.387 . S
C1124 H1109 0.930 . S
C1124 C1119 1.390 . S
C1124 C1123 1.387 . S
H1125 C1137 0.930 . S
H1126 C1139 0.930 . S
H1127 C1140 0.930 . S
H1128 C1144 0.959 . S
H1129 C1144 0.959 1_545 S
H1130 C1144 0.961 . S
H1131 C1145 0.960 . S
H1132 C1145 0.961 1_545 S
H1133 C1145 0.962 1_545 S
H1134 C1148 0.929 . S
H1135 C1149 0.931 . S
H1136 C1151 0.930 1_655 S
C1137 H1125 0.930 . S
C1137 C1138 1.399 . S
C1137 C1142 1.399 . S
C1138 C1137 1.399 . S
C1138 C1139 1.376 1_655 S
C1139 H1126 0.930 . S
C1139 C1138 1.376 1_455 S
C1139 C1140 1.388 . S
C1140 H1127 0.930 . S
C1140 C1139 1.388 . S
C1140 C1141 1.390 . S
C1141 C1140 1.390 . S
C1141 C1142 1.394 1_455 S
C1141 C1147 1.465 1_565 S
C1142 C1137 1.399 . S
C1142 C1141 1.394 1_655 S
C1142 C1143 1.516 . S
C1143 C1142 1.516 . S
C1143 C1144 1.502 . S
C1143 C1145 1.561 . S
C1143 C1146 1.526 1_565 S
C1144 H1128 0.959 . S
C1144 H1129 0.959 1_565 S
C1144 H1130 0.961 . S
C1144 C1143 1.502 . S
C1145 H1131 0.960 . S
C1145 H1132 0.961 1_565 S
C1145 H1133 0.962 1_565 S
C1145 C1143 1.561 . S
C1146 C1143 1.526 1_545 S
C1146 C1147 1.396 1_655 S
C1146 C1151 1.390 1_655 S
C1147 C1141 1.465 1_545 S
C1147 C1146 1.396 1_455 S
C1147 C1148 1.399 . S
C1148 H1134 0.929 . S
C1148 C1147 1.399 . S
C1148 C1149 1.385 . S
C1149 H1135 0.931 . S
C1149 C1148 1.385 . S
C1149 C1150 1.389 . S
C1150 C1149 1.389 . S
C1150 C1151 1.387 . S
C1151 H1136 0.930 1_455 S
C1151 C1146 1.390 1_455 S
C1151 C1150 1.387 . S
H1152 C1164 0.930 . S
H1153 C1166 0.930 1_565 S
H1154 C1167 0.930 . S
H1155 C1171 0.959 . S
H1156 C1171 0.959 . S
H1157 C1171 0.961 . S
H1158 C1172 0.960 1_655 S
H1159 C1172 0.961 . S
H1160 C1172 0.959 1_665 S
H1161 C1175 0.929 1_655 S
H1162 C1176 0.931 . S
H1163 C1178 0.933 . S
C1164 H1152 0.930 . S
C1164 C1165 1.399 . S
C1164 C1169 1.399 . S
C1165 C1164 1.399 . S
C1165 C1166 1.376 . S
C1166 H1153 0.930 1_545 S
C1166 C1165 1.376 . S
C1166 C1167 1.388 1_545 S
C1167 H1154 0.930 . S
C1167 C1166 1.388 1_565 S
C1167 C1168 1.390 . S
C1168 C1167 1.390 . S
C1168 C1169 1.394 1_565 S
C1168 C1174 1.465 1_655 S
C1169 C1164 1.399 . S
C1169 C1168 1.394 1_545 S
C1169 C1170 1.516 1_655 S
C1170 C1169 1.516 1_455 S
C1170 C1171 1.502 . S
C1170 C1172 1.561 . S
C1170 C1173 1.526 1_545 S
C1171 H1155 0.959 . S
C1171 H1156 0.959 . S
C1171 H1157 0.961 . S
C1171 C1170 1.502 . S
C1172 H1158 0.960 1_455 S
C1172 H1159 0.961 . S
C1172 H1160 0.959 1_445 S
C1172 C1170 1.561 . S
C1173 C1170 1.526 1_565 S
C1173 C1174 1.396 . S
C1173 C1178 1.390 . S
C1174 C1168 1.465 1_455 S
C1174 C1173 1.396 . S
C1174 C1175 1.399 . S
C1175 H1161 0.929 1_455 S
C1175 C1174 1.399 . S
C1175 C1176 1.385 . S
C1176 H1162 0.931 . S
C1176 C1175 1.385 . S
C1176 C1177 1.389 . S
C1177 C1176 1.389 . S
C1177 C1178 1.387 . S
C1178 H1163 0.933 . S
C1178 C1173 1.390 . S
C1178 C1177 1.387 . S
H1179 C1191 0.930 . S
H1180 C1193 0.930 . S
H1181 C1194 0.930 . S
H1182 C1198 0.959 . S
H1183 C1198 0.959 1_655 S
H1184 C1198 0.961 . S
H1185 C1199 0.960 1_455 S
H1186 C1199 0.961 . S
H1187 C1199 0.959 . S
H1188 C1202 0.929 . S
H1189 C1203 0.931 . S
H1190 C1205 0.930 . S
C1191 H1179 0.930 . S
C1191 C1192 1.399 . S
C1191 C1196 1.399 . S
C1192 C1191 1.399 . S
C1192 C1193 1.376 . S
C1193 H1180 0.930 . S
C1193 C1192 1.376 . S
C1193 C1194 1.388 . S
C1194 H1181 0.930 . S
C1194 C1193 1.388 . S
C1194 C1195 1.390 . S
C1195 C1194 1.390 . S
C1195 C1196 1.394 . S
C1195 C1201 1.465 1_445 S
C1196 C1191 1.399 . S
C1196 C1195 1.394 . S
C1196 C1197 1.516 1_545 S
C1197 C1196 1.516 1_565 S
C1197 C1198 1.502 . S
C1197 C1199 1.561 1_465 S
C1197 C1200 1.526 1_455 S
C1198 H1182 0.959 . S
C1198 H1183 0.959 1_455 S
C1198 H1184 0.961 . S
C1198 C1197 1.502 . S
C1199 H1185 0.960 1_655 S
C1199 H1186 0.961 . S
C1199 H1187 0.959 . S
C1199 C1197 1.561 1_645 S
C1200 C1197 1.526 1_655 S
C1200 C1201 1.396 . S
C1200 C1205 1.390 . S
C1201 C1195 1.465 1_665 S
C1201 C1200 1.396 . S
C1201 C1202 1.399 . S
C1202 H1188 0.929 . S
C1202 C1201 1.399 . S
C1202 C1203 1.385 . S
C1203 H1189 0.931 . S
C1203 C1202 1.385 . S
C1203 C1204 1.389 . S
C1204 C1203 1.389 . S
C1204 C1205 1.387 . S
C1205 H1190 0.930 . S
C1205 C1200 1.390 . S
C1205 C1204 1.387 . S
C409 N14 1.604 . S
C421 N245 1.630 . S
C436 N47 1.609 . S
C448 N278 1.637 . S
C463 N80 1.655 . S
C475 N311 1.656 . S
C490 N344 1.598 . S
C502 N113 1.611 . S
C517 N377 1.656 . S
C529 N146 1.655 . S
C544 N179 1.609 . S
C556 N212 1.599 . S
C571 C127 1.683 . S
C583 C28 1.693 . S
C598 C61 1.682 . S
C610 C160 1.692 . S
C625 C193 1.676 . S
C637 C94 1.666 . S
C652 C325 1.677 . S
C664 C226 1.690 . S
C679 C358 1.686 . S
C691 C259 1.693 . S
C706 C292 1.685 . S
C718 C391 1.693 . S
C733 N269 1.534 . S
C745 N5 1.533 . S
C760 N38 1.502 . S
C772 N302 1.502 . S
C787 N71 1.531 . S
C799 N335 1.532 . S
C814 N104 1.570 . S
C826 N368 1.570 . S
C841 N137 1.505 . S
C853 N203 1.505 . S
C868 N236 1.508 . S
C880 N170 1.508 . S
C895 C116 1.072 . S
C907 C17 1.045 . S
C922 C50 1.032 . S
C934 C149 1.050 . S
C949 C182 1.046 . S
C961 C83 1.032 . S
C976 C215 1.048 . S
C988 C314 1.032 . S
C1003 C248 1.079 . S
C1015 C347 1.055 . S
C1030 C380 1.066 . S
C1042 C281 1.039 . S
C1057 C8 1.347 . S
C1069 C107 1.328 . S
C1084 C41 1.348 . S
C1096 C140 1.328 . S
C1111 C74 1.348 . S
C1123 C173 1.328 . S
C1138 C206 1.353 . S
C1150 C305 1.322 . S
C1165 C338 1.351 . S
C1177 C239 1.324 . S
C1192 C272 1.346 . S
C1204 C371 1.329 . S
