# Generated by pormake.
# Topology ukb, (4)-cn, num edge types: 1
# Building blocks:
#     Node 0, Type 0, BuildingBlock: QUQFOY_clean_sbu_1, # of connection points: 4
#     Node 1, Type 0, BuildingBlock: QUQFOY_clean_sbu_1, # of connection points: 4
#     Node 2, Type 0, BuildingBlock: QUQFOY_clean_sbu_1, # of connection points: 4
#     Node 3, Type 0, BuildingBlock: QUQFOY_clean_sbu_1, # of connection points: 4
#     Node 4, Type 0, BuildingBlock: QUQFOY_clean_sbu_1, # of connection points: 4
#     Node 5, Type 0, BuildingBlock: QUQFOY_clean_sbu_1, # of connection points: 4
#     Node 6, Type 0, BuildingBlock: QUQFOY_clean_sbu_1, # of connection points: 4
#     Node 7, Type 0, BuildingBlock: QUQFOY_clean_sbu_1, # of connection points: 4
#     Node 8, Type 0, BuildingBlock: QUQFOY_clean_sbu_1, # of connection points: 4
#     Node 9, Type 0, BuildingBlock: QUQFOY_clean_sbu_1, # of connection points: 4
#     Node 10, Type 0, BuildingBlock: QUQFOY_clean_sbu_1, # of connection points: 4
#     Node 11, Type 0, BuildingBlock: QUQFOY_clean_sbu_1, # of connection points: 4
#     Node 12, Type 0, BuildingBlock: QUQFOY_clean_sbu_1, # of connection points: 4
#     Node 13, Type 0, BuildingBlock: QUQFOY_clean_sbu_1, # of connection points: 4
#     Node 14, Type 0, BuildingBlock: QUQFOY_clean_sbu_1, # of connection points: 4
#     Node 15, Type 0, BuildingBlock: QUQFOY_clean_sbu_1, # of connection points: 4
#     Edge 16, Type (0, 0), BuildingBlock: AJUNOK_clean_linker_0, # of connection points: 2
#     Edge 17, Type (0, 0), BuildingBlock: AJUNOK_clean_linker_0, # of connection points: 2
#     Edge 18, Type (0, 0), BuildingBlock: AJUNOK_clean_linker_0, # of connection points: 2
#     Edge 19, Type (0, 0), BuildingBlock: AJUNOK_clean_linker_0, # of connection points: 2
#     Edge 20, Type (0, 0), BuildingBlock: AJUNOK_clean_linker_0, # of connection points: 2
#     Edge 21, Type (0, 0), BuildingBlock: AJUNOK_clean_linker_0, # of connection points: 2
#     Edge 22, Type (0, 0), BuildingBlock: AJUNOK_clean_linker_0, # of connection points: 2
#     Edge 23, Type (0, 0), BuildingBlock: AJUNOK_clean_linker_0, # of connection points: 2
#     Edge 24, Type (0, 0), BuildingBlock: AJUNOK_clean_linker_0, # of connection points: 2
#     Edge 25, Type (0, 0), BuildingBlock: AJUNOK_clean_linker_0, # of connection points: 2
#     Edge 26, Type (0, 0), BuildingBlock: AJUNOK_clean_linker_0, # of connection points: 2
#     Edge 27, Type (0, 0), BuildingBlock: AJUNOK_clean_linker_0, # of connection points: 2
#     Edge 28, Type (0, 0), BuildingBlock: AJUNOK_clean_linker_0, # of connection points: 2
#     Edge 29, Type (0, 0), BuildingBlock: AJUNOK_clean_linker_0, # of connection points: 2
#     Edge 30, Type (0, 0), BuildingBlock: AJUNOK_clean_linker_0, # of connection points: 2
#     Edge 31, Type (0, 0), BuildingBlock: AJUNOK_clean_linker_0, # of connection points: 2
#     Edge 32, Type (0, 0), BuildingBlock: AJUNOK_clean_linker_0, # of connection points: 2
#     Edge 33, Type (0, 0), BuildingBlock: AJUNOK_clean_linker_0, # of connection points: 2
#     Edge 34, Type (0, 0), BuildingBlock: AJUNOK_clean_linker_0, # of connection points: 2
#     Edge 35, Type (0, 0), BuildingBlock: AJUNOK_clean_linker_0, # of connection points: 2
#     Edge 36, Type (0, 0), BuildingBlock: AJUNOK_clean_linker_0, # of connection points: 2
#     Edge 37, Type (0, 0), BuildingBlock: AJUNOK_clean_linker_0, # of connection points: 2
#     Edge 38, Type (0, 0), BuildingBlock: AJUNOK_clean_linker_0, # of connection points: 2
#     Edge 39, Type (0, 0), BuildingBlock: AJUNOK_clean_linker_0, # of connection points: 2
#     Edge 40, Type (0, 0), BuildingBlock: AJUNOK_clean_linker_0, # of connection points: 2
#     Edge 41, Type (0, 0), BuildingBlock: AJUNOK_clean_linker_0, # of connection points: 2
#     Edge 42, Type (0, 0), BuildingBlock: AJUNOK_clean_linker_0, # of connection points: 2
#     Edge 43, Type (0, 0), BuildingBlock: AJUNOK_clean_linker_0, # of connection points: 2
#     Edge 44, Type (0, 0), BuildingBlock: AJUNOK_clean_linker_0, # of connection points: 2
#     Edge 45, Type (0, 0), BuildingBlock: AJUNOK_clean_linker_0, # of connection points: 2
#     Edge 46, Type (0, 0), BuildingBlock: AJUNOK_clean_linker_0, # of connection points: 2
#     Edge 47, Type (0, 0), BuildingBlock: AJUNOK_clean_linker_0, # of connection points: 2
# Relax obj value: 0.038
# Max RMSD: 0.065
# Mean RMSD: 0.065
data_MOF--net-ukb--node1-QUQFOY_clean_sbu_1--edge1-AJUNOK_clean_linker_0
_symmetry_space_group_name_H-M    P1
_symmetry_Int_Tables_number       1
_symmetry_cell_setting            triclinic
loop_
_symmetry_equiv_pos_as_xyz
'x, y, z'
_cell_length_a     34.161133
_cell_length_b     34.182544
_cell_length_c     32.135094
_cell_angle_alpha  89.96878
_cell_angle_beta   90.025916
_cell_angle_gamma 89.996139
loop_
_atom_site_label
_atom_site_type_symbol
_atom_site_fract_x
_atom_site_fract_y
_atom_site_fract_z
_atom_type_partial_charge
O0 O 0.57621 0.25958 0.20405 0.0
Cd1 Cd 0.57227 0.21024 0.16723 0.0
Cd2 Cd 0.52931 0.18893 0.24093 0.0
O3 O 0.53983 0.2459 0.25904 0.0
O4 O 0.60268 0.2284 0.11773 0.0
O5 O 0.54028 0.21329 0.1137 0.0
C6 C 0.5715 0.22593 0.09553 0.0
C7 C 0.46811 0.15871 0.24736 0.0
C8 C 0.56169 0.26933 0.23897 0.0
C9 C 0.60293 0.14357 0.22019 0.0
O10 O 0.57605 0.15147 0.24618 0.0
O11 O 0.60485 0.1618 0.1857 0.0
O12 O 0.48925 0.16673 0.2795 0.0
O13 O 0.48094 0.16992 0.21144 0.0
O14 O 0.35492 0.57704 0.74714 0.0
Cd15 Cd 0.31731 0.53042 0.74326 0.0
Cd16 Cd 0.29498 0.57216 0.66926 0.0
O17 O 0.34327 0.60558 0.68677 0.0
O18 O 0.34024 0.49044 0.78144 0.0
O19 O 0.33572 0.48206 0.71346 0.0
C20 C 0.34767 0.46931 0.74916 0.0
C21 C 0.27897 0.56804 0.59784 0.0
C22 C 0.36222 0.60384 0.72086 0.0
C23 C 0.23649 0.56181 0.74159 0.0
O24 O 0.24565 0.57575 0.70622 0.0
O25 O 0.26059 0.54117 0.76225 0.0
O26 O 0.27617 0.6002 0.61836 0.0
O27 O 0.29248 0.53796 0.61745 0.0
O28 O 0.93492 0.24688 0.20646 0.0
Cd29 Cd 0.93893 0.29645 0.16993 0.0
Cd30 Cd 0.98003 0.318 0.2448 0.0
O31 O 0.96915 0.26105 0.26292 0.0
O32 O 0.91063 0.27815 0.11902 0.0
O33 O 0.97303 0.29395 0.11803 0.0
C34 C 0.94278 0.28081 0.09844 0.0
C35 C 0.04121 0.34816 0.25157 0.0
C36 C 0.94861 0.23725 0.2418 0.0
C37 C 0.90691 0.36328 0.22184 0.0
O38 O 0.93332 0.3556 0.24848 0.0
O39 O 0.90561 0.34472 0.18752 0.0
O40 O 0.01975 0.34053 0.28358 0.0
O41 O 0.02871 0.33657 0.21565 0.0
O42 O 0.15118 0.93354 0.74625 0.0
Cd43 Cd 0.18915 0.97975 0.74108 0.0
Cd44 Cd 0.21067 0.93497 0.6682 0.0
O45 O 0.16155 0.90329 0.68666 0.0
O46 O 0.16697 0.01962 0.77986 0.0
O47 O 0.17031 0.02838 0.71189 0.0
C48 C 0.15895 0.04092 0.74786 0.0
C49 C 0.22724 0.93519 0.59671 0.0
C50 C 0.143 0.90627 0.72089 0.0
C51 C 0.26924 0.94642 0.74049 0.0
O52 O 0.25961 0.93134 0.7058 0.0
O53 O 0.2459 0.96887 0.75991 0.0
O54 O 0.22923 0.90413 0.61915 0.0
O55 O 0.21447 0.96654 0.61448 0.0
O56 O 0.57449 0.24854 0.81402 0.0
Cd57 Cd 0.57081 0.29741 0.85157 0.0
Cd58 Cd 0.52809 0.31987 0.77698 0.0
O59 O 0.53911 0.26309 0.75848 0.0
O60 O 0.60165 0.27841 0.90046 0.0
O61 O 0.53937 0.29368 0.90541 0.0
C62 C 0.57072 0.28066 0.92305 0.0
C63 C 0.46706 0.34998 0.76795 0.0
C64 C 0.56048 0.2393 0.77871 0.0
C65 C 0.60157 0.36494 0.79972 0.0
O66 O 0.57481 0.3575 0.77341 0.0
O67 O 0.60341 0.34605 0.83382 0.0
O68 O 0.48943 0.34209 0.73678 0.0
O69 O 0.47859 0.33888 0.80442 0.0
O70 O 0.15207 0.5744 0.27471 0.0
Cd71 Cd 0.19027 0.52839 0.2805 0.0
Cd72 Cd 0.20969 0.57237 0.35362 0.0
O73 O 0.16058 0.60397 0.33501 0.0
O74 O 0.16945 0.48897 0.24035 0.0
O75 O 0.17093 0.47913 0.30823 0.0
C76 C 0.1608 0.46705 0.27166 0.0
C77 C 0.22483 0.56809 0.42523 0.0
C78 C 0.14298 0.6013 0.30017 0.0
C79 C 0.26981 0.56302 0.28289 0.0
O80 O 0.25924 0.578 0.31731 0.0
O81 O 0.24731 0.53994 0.26315 0.0
O82 O 0.22665 0.60058 0.40511 0.0
O83 O 0.21273 0.53775 0.40508 0.0
O84 O 0.93322 0.26105 0.81797 0.0
Cd85 Cd 0.93714 0.21143 0.8544 0.0
Cd86 Cd 0.97848 0.18968 0.77938 0.0
O87 O 0.96749 0.24669 0.76161 0.0
O88 O 0.90941 0.22977 0.90562 0.0
O89 O 0.97172 0.21357 0.90598 0.0
C90 C 0.94174 0.22689 0.92589 0.0
C91 C 0.03938 0.15963 0.76932 0.0
C92 C 0.94698 0.27058 0.78265 0.0
C93 C 0.90495 0.14477 0.80243 0.0
O94 O 0.93164 0.1522 0.77605 0.0
O95 O 0.90347 0.16343 0.83668 0.0
O96 O 0.01664 0.16779 0.73851 0.0
O97 O 0.02827 0.17036 0.80604 0.0
O98 O 0.35704 0.93282 0.27344 0.0
Cd99 Cd 0.31883 0.97889 0.27785 0.0
Cd100 Cd 0.29855 0.93511 0.3528 0.0
O101 O 0.34753 0.90348 0.33377 0.0
O102 O 0.33995 0.01767 0.23715 0.0
O103 O 0.33802 0.02852 0.30484 0.0
C104 C 0.34841 0.04004 0.26814 0.0
C105 C 0.28289 0.93529 0.42452 0.0
C106 C 0.36569 0.90604 0.29925 0.0
C107 C 0.2386 0.94585 0.28148 0.0
O108 O 0.24889 0.93147 0.3163 0.0
O109 O 0.26177 0.96731 0.2606 0.0
O110 O 0.28077 0.90421 0.40217 0.0
O111 O 0.29533 0.96669 0.40653 0.0
O112 O 0.43211 0.85764 0.77621 0.0
Cd113 Cd 0.47856 0.81968 0.77978 0.0
Cd114 Cd 0.4364 0.79819 0.854 0.0
O115 O 0.40379 0.84709 0.8369 0.0
O116 O 0.51697 0.84144 0.73905 0.0
O117 O 0.52844 0.83862 0.8066 0.0
C118 C 0.53965 0.84946 0.76994 0.0
C119 C 0.44107 0.78173 0.92528 0.0
C120 C 0.40556 0.8656 0.80256 0.0
C121 C 0.44484 0.7397 0.78156 0.0
O122 O 0.43087 0.74929 0.81678 0.0
O123 O 0.46687 0.76296 0.76147 0.0
O124 O 0.40856 0.77988 0.90521 0.0
O125 O 0.47123 0.79456 0.90531 0.0
O126 O 0.65163 0.43192 0.2738 0.0
Cd127 Cd 0.68964 0.47828 0.27802 0.0
Cd128 Cd 0.71064 0.43543 0.3528 0.0
O129 O 0.66169 0.4035 0.33457 0.0
O130 O 0.66818 0.51726 0.23772 0.0
O131 O 0.67063 0.52774 0.30546 0.0
C132 C 0.66001 0.5395 0.26891 0.0
C133 C 0.72677 0.43572 0.42441 0.0
C134 C 0.64338 0.40541 0.30011 0.0
C135 C 0.76985 0.44505 0.28084 0.0
O136 O 0.7599 0.43097 0.3159 0.0
O137 O 0.74664 0.46687 0.26038 0.0
O138 O 0.7287 0.40462 0.4021 0.0
O139 O 0.71435 0.46713 0.40643 0.0
O140 O 0.07377 0.65208 0.7753 0.0
Cd141 Cd 0.02765 0.69033 0.77879 0.0
Cd142 Cd 0.07063 0.71142 0.8534 0.0
O143 O 0.10292 0.66245 0.83556 0.0
O144 O 0.98936 0.66883 0.7378 0.0
O145 O 0.97762 0.6715 0.80528 0.0
C146 C 0.96654 0.66075 0.76855 0.0
C147 C 0.06681 0.7275 0.92479 0.0
C148 C 0.1005 0.64384 0.80132 0.0
C149 C 0.06079 0.77053 0.78146 0.0
O150 O 0.07498 0.76073 0.81653 0.0
O151 O 0.03941 0.74711 0.76081 0.0
O152 O 0.09907 0.72958 0.90431 0.0
O153 O 0.03647 0.71458 0.90518 0.0
O154 O 0.85776 0.07433 0.27531 0.0
Cd155 Cd 0.81937 0.02831 0.27984 0.0
Cd156 Cd 0.79911 0.07171 0.3535 0.0
O157 O 0.84839 0.10342 0.33572 0.0
O158 O 0.84039 0.98958 0.23907 0.0
O159 O 0.83833 0.97848 0.3067 0.0
C160 C 0.84868 0.96702 0.26998 0.0
C161 C 0.78322 0.06747 0.4249 0.0
C162 C 0.86652 0.10099 0.30119 0.0
C163 C 0.73964 0.06275 0.28198 0.0
O164 O 0.74986 0.07738 0.3167 0.0
O165 O 0.76245 0.04006 0.26215 0.0
O166 O 0.78158 0.09993 0.40473 0.0
O167 O 0.79556 0.03712 0.40495 0.0
O168 O 0.43313 0.65227 0.24803 0.0
Cd169 Cd 0.47994 0.68958 0.24324 0.0
Cd170 Cd 0.43817 0.7105 0.16887 0.0
O171 O 0.40498 0.66231 0.18711 0.0
O172 O 0.52006 0.66714 0.28163 0.0
O173 O 0.52814 0.67055 0.21353 0.0
C174 C 0.54103 0.65913 0.24938 0.0
C175 C 0.44195 0.72606 0.09732 0.0
C176 C 0.40651 0.64426 0.22176 0.0
C177 C 0.44837 0.77015 0.24013 0.0
O178 O 0.43419 0.7602 0.20511 0.0
O179 O 0.4694 0.74662 0.26108 0.0
O180 O 0.40979 0.7286 0.1179 0.0
O181 O 0.47222 0.71294 0.11692 0.0
O182 O 0.85659 0.43362 0.7472 0.0
Cd183 Cd 0.81838 0.4796 0.74132 0.0
Cd184 Cd 0.79809 0.43514 0.66831 0.0
O185 O 0.84717 0.40367 0.68726 0.0
O186 O 0.83993 0.5201 0.77976 0.0
O187 O 0.83704 0.52798 0.71162 0.0
C188 C 0.84798 0.54107 0.74752 0.0
C189 C 0.7822 0.43545 0.59668 0.0
C190 C 0.86526 0.40653 0.72179 0.0
C191 C 0.73852 0.44595 0.73961 0.0
O192 O 0.7487 0.43096 0.70507 0.0
O193 O 0.76148 0.46852 0.75941 0.0
O194 O 0.78028 0.4043 0.61898 0.0
O195 O 0.79459 0.46685 0.61468 0.0
O196 O 0.0751 0.85548 0.24763 0.0
Cd197 Cd 0.0288 0.81764 0.24218 0.0
Cd198 Cd 0.07189 0.79772 0.16858 0.0
O199 O 0.1043 0.84633 0.18723 0.0
O200 O 0.98861 0.83935 0.28088 0.0
O201 O 0.98037 0.83665 0.21278 0.0
C202 C 0.96752 0.84761 0.24877 0.0
C203 C 0.06755 0.78262 0.097 0.0
C204 C 0.10196 0.86416 0.22195 0.0
C205 C 0.06155 0.7375 0.23924 0.0
O206 O 0.0763 0.74788 0.20464 0.0
O207 O 0.03973 0.76058 0.25979 0.0
O208 O 0.09998 0.78028 0.1172 0.0
O209 O 0.03736 0.79533 0.117 0.0
O210 O 0.65016 0.07665 0.74507 0.0
Cd211 Cd 0.68827 0.03032 0.74172 0.0
Cd212 Cd 0.71053 0.07217 0.66798 0.0
O213 O 0.66154 0.10487 0.6845 0.0
O214 O 0.66567 0.99075 0.78063 0.0
O215 O 0.67021 0.98128 0.71284 0.0
C216 C 0.65837 0.96903 0.74876 0.0
C217 C 0.72735 0.06771 0.59681 0.0
C218 C 0.64254 0.10315 0.71853 0.0
C219 C 0.76846 0.0635 0.74103 0.0
O220 O 0.75927 0.07738 0.70563 0.0
O221 O 0.74482 0.04175 0.76098 0.0
O222 O 0.72931 0.10009 0.61704 0.0
O223 O 0.71427 0.03754 0.61658 0.0
C224 C 0.42061 0.12144 0.29157 0.0
C225 C 0.43254 0.13389 0.25172 0.0
C226 C 0.39154 0.09286 0.29669 0.0
C227 C 0.37324 0.07536 0.26217 0.0
H228 H 0.43498 0.13258 0.31917 0.0
H229 H 0.38487 0.08305 0.32795 0.0
S230 S 0.38956 0.10157 0.1513 0.0
N231 N 0.42054 0.12948 0.17723 0.0
N232 N 0.36603 0.07579 0.18681 0.0
C233 C 0.38291 0.08946 0.22225 0.0
C234 C 0.41247 0.1187 0.21703 0.0
C235 C 0.38553 0.42166 0.79266 0.0
C236 C 0.3727 0.43384 0.75302 0.0
C237 C 0.41431 0.39271 0.79729 0.0
C238 C 0.43166 0.37481 0.76248 0.0
H239 H 0.3745 0.43574 0.82048 0.0
H240 H 0.42438 0.38581 0.82842 0.0
S241 S 0.40458 0.39194 0.65196 0.0
N242 N 0.37666 0.42252 0.67839 0.0
N243 N 0.43075 0.36826 0.68706 0.0
C244 C 0.41723 0.38475 0.72275 0.0
C245 C 0.38777 0.41417 0.71803 0.0
C246 C 0.08818 0.38619 0.29574 0.0
C247 C 0.07677 0.37301 0.25598 0.0
C248 C 0.11723 0.41482 0.3007 0.0
C249 C 0.13602 0.43164 0.2661 0.0
H250 H 0.0734 0.37559 0.32334 0.0
H251 H 0.12348 0.42521 0.33183 0.0
S252 S 0.12122 0.40334 0.15558 0.0
N253 N 0.08983 0.37597 0.18162 0.0
N254 N 0.14429 0.42976 0.19089 0.0
C255 C 0.12688 0.4168 0.22634 0.0
C256 C 0.09734 0.38751 0.2213 0.0
C257 C 0.12149 0.08803 0.7923 0.0
C258 C 0.13387 0.07628 0.75238 0.0
C259 C 0.09264 0.11681 0.79758 0.0
C260 C 0.07478 0.13495 0.76316 0.0
H261 H 0.13291 0.07374 0.81983 0.0
H262 H 0.08293 0.12337 0.82889 0.0
S263 S 0.10058 0.11898 0.65215 0.0
N264 N 0.12895 0.08827 0.67792 0.0
N265 N 0.07474 0.14222 0.6878 0.0
C266 C 0.08876 0.12545 0.72316 0.0
C267 C 0.1183 0.0962 0.71778 0.0
C268 C 0.59242 0.89272 0.7984 0.0
C269 C 0.575 0.87426 0.76395 0.0
C270 C 0.62103 0.92175 0.79319 0.0
C271 C 0.63361 0.93344 0.7533 0.0
H272 H 0.58251 0.88623 0.82967 0.0
H273 H 0.6321 0.93629 0.82072 0.0
S274 S 0.60152 0.88993 0.65307 0.0
N275 N 0.57563 0.86662 0.68865 0.0
N276 N 0.62939 0.92103 0.67888 0.0
C277 C 0.61851 0.91319 0.7187 0.0
C278 C 0.58921 0.88369 0.72401 0.0
C279 C 0.5883 0.62111 0.2932 0.0
C280 C 0.57645 0.63404 0.25349 0.0
C281 C 0.61718 0.59228 0.29802 0.0
C282 C 0.63534 0.57499 0.26332 0.0
H283 H 0.57401 0.63208 0.32092 0.0
H284 H 0.62379 0.58211 0.32917 0.0
S285 S 0.61922 0.60245 0.15274 0.0
N286 N 0.58843 0.63031 0.17896 0.0
N287 N 0.64256 0.57614 0.18797 0.0
C288 C 0.62576 0.58955 0.22355 0.0
C289 C 0.59641 0.61906 0.21865 0.0
C290 C 0.9131 0.61823 0.79683 0.0
C291 C 0.93122 0.63597 0.76234 0.0
C292 C 0.88452 0.58917 0.79165 0.0
C293 C 0.87268 0.57673 0.75177 0.0
H294 H 0.92244 0.6253 0.82815 0.0
H295 H 0.8729 0.57521 0.81927 0.0
S296 S 0.90677 0.61815 0.65128 0.0
N297 N 0.93203 0.64212 0.68687 0.0
N298 N 0.87833 0.58764 0.67719 0.0
C299 C 0.88847 0.59626 0.71705 0.0
C300 C 0.91772 0.6258 0.72232 0.0
C301 C 0.89137 0.91373 0.29835 0.0
C302 C 0.87323 0.93154 0.26389 0.0
C303 C 0.92021 0.88494 0.29312 0.0
C304 C 0.93204 0.87257 0.25323 0.0
H305 H 0.88478 0.92347 0.32964 0.0
H306 H 0.93451 0.87357 0.32069 0.0
S307 S 0.88932 0.90564 0.15292 0.0
N308 N 0.866 0.93147 0.18853 0.0
N309 N 0.92007 0.87737 0.17876 0.0
C310 C 0.9121 0.88805 0.2186 0.0
C311 C 0.88277 0.91752 0.22392 0.0
C312 C 0.58414 0.33808 0.2309 0.0
C313 C 0.57435 0.30691 0.25743 0.0
C314 C 0.60402 0.371 0.24577 0.0
C315 C 0.61567 0.37387 0.28775 0.0
H316 H 0.57787 0.33629 0.19789 0.0
H317 H 0.61221 0.3933 0.22346 0.0
S318 S 0.59291 0.30203 0.37105 0.0
N319 N 0.57421 0.28246 0.32847 0.0
N320 N 0.6122 0.34419 0.35656 0.0
C321 C 0.60373 0.34403 0.31524 0.0
C322 C 0.58289 0.31062 0.30007 0.0
C323 C 0.19763 0.58923 0.80058 0.0
C324 C 0.19884 0.57394 0.76001 0.0
C325 C 0.16466 0.60984 0.81487 0.0
C326 C 0.13164 0.6155 0.78918 0.0
H327 H 0.2233 0.58772 0.82033 0.0
H328 H 0.166 0.62316 0.84541 0.0
S329 S 0.11816 0.57422 0.68299 0.0
N330 N 0.16297 0.56124 0.69634 0.0
N331 N 0.10059 0.59869 0.72313 0.0
C332 C 0.13142 0.59705 0.74986 0.0
C333 C 0.16515 0.57666 0.73527 0.0
C334 C 0.90181 0.16435 0.31495 0.0
C335 C 0.8948 0.13206 0.28866 0.0
C336 C 0.9224 0.19735 0.30074 0.0
C337 C 0.93632 0.19936 0.25964 0.0
H338 H 0.88962 0.16509 0.34605 0.0
H339 H 0.925 0.22246 0.32112 0.0
S340 S 0.93207 0.12066 0.18055 0.0
N341 N 0.90873 0.10249 0.22115 0.0
N342 N 0.94625 0.16488 0.19458 0.0
C343 C 0.93222 0.16633 0.23414 0.0
C344 C 0.91182 0.13257 0.24863 0.0
C345 C 0.33839 0.92502 0.73326 0.0
C346 C 0.30672 0.93398 0.7594 0.0
C347 C 0.37139 0.90541 0.74838 0.0
C348 C 0.37383 0.89314 0.79021 0.0
H349 H 0.33698 0.93176 0.70033 0.0
H350 H 0.39415 0.89791 0.72632 0.0
S351 S 0.30031 0.91349 0.87253 0.0
N352 N 0.28114 0.93262 0.82993 0.0
N353 N 0.343 0.89504 0.8585 0.0
C354 C 0.34338 0.90422 0.81736 0.0
C355 C 0.30989 0.92482 0.80193 0.0
C356 C 0.58156 0.1701 0.78638 0.0
C357 C 0.57318 0.20183 0.76006 0.0
C358 C 0.60154 0.13716 0.77173 0.0
C359 C 0.61472 0.13481 0.73024 0.0
H360 H 0.57411 0.17145 0.81913 0.0
H361 H 0.60857 0.11438 0.79396 0.0
S362 S 0.59603 0.20838 0.64745 0.0
N363 N 0.576 0.22747 0.68957 0.0
N364 N 0.61421 0.1657 0.66192 0.0
C365 C 0.60417 0.16527 0.70283 0.0
C366 C 0.58322 0.19871 0.71776 0.0
C367 C 0.37121 0.60628 0.27654 0.0
C368 C 0.37457 0.6171 0.23435 0.0
C369 C 0.33817 0.58658 0.29141 0.0
C370 C 0.30738 0.5761 0.26468 0.0
H371 H 0.39326 0.6149 0.29896 0.0
H372 H 0.33606 0.58084 0.32451 0.0
S373 S 0.30362 0.59274 0.15068 0.0
N374 N 0.34558 0.61244 0.16529 0.0
N375 N 0.28365 0.5747 0.19338 0.0
C376 C 0.31148 0.58399 0.22194 0.0
C377 C 0.345 0.60468 0.20676 0.0
C378 C 0.90067 0.34315 0.70876 0.0
C379 C 0.89338 0.37552 0.73484 0.0
C380 C 0.92118 0.31023 0.72334 0.0
C381 C 0.93471 0.30838 0.7646 0.0
H382 H 0.8888 0.34228 0.67752 0.0
H383 H 0.92401 0.28507 0.70307 0.0
S384 S 0.9296 0.38734 0.84334 0.0
N385 N 0.9066 0.40534 0.8024 0.0
N386 N 0.94399 0.34309 0.82965 0.0
C387 C 0.93032 0.34148 0.78994 0.0
C388 C 0.91001 0.37517 0.77508 0.0
C389 C 0.16522 0.89975 0.2083 0.0
C390 C 0.13322 0.89209 0.23482 0.0
C391 C 0.19827 0.92028 0.22254 0.0
C392 C 0.20063 0.93345 0.2639 0.0
H393 H 0.16567 0.88821 0.17693 0.0
H394 H 0.22314 0.92346 0.20191 0.0
S395 S 0.12288 0.92706 0.34392 0.0
N396 N 0.10437 0.90443 0.30305 0.0
N397 N 0.16685 0.94181 0.32963 0.0
C398 C 0.16793 0.9286 0.28974 0.0
C399 C 0.13411 0.90828 0.27523 0.0
C400 C 0.40259 0.63802 0.77452 0.0
C401 C 0.38978 0.63563 0.73288 0.0
C402 C 0.42269 0.67084 0.78928 0.0
C403 C 0.43157 0.70241 0.76294 0.0
H404 H 0.39526 0.61532 0.79672 0.0
H405 H 0.42994 0.67219 0.82208 0.0
S406 S 0.4095 0.70894 0.65014 0.0
N407 N 0.39092 0.66642 0.66453 0.0
N408 N 0.42938 0.72796 0.69239 0.0
C409 C 0.42174 0.69931 0.72057 0.0
C410 C 0.40065 0.666 0.70553 0.0
C411 C 0.87173 0.40287 0.27538 0.0
C412 C 0.87495 0.39075 0.2336 0.0
C413 C 0.83861 0.42277 0.28971 0.0
C414 C 0.80756 0.43212 0.26282 0.0
H415 H 0.89396 0.39512 0.29797 0.0
H416 H 0.8366 0.42948 0.32261 0.0
S417 S 0.80345 0.41208 0.14948 0.0
N418 N 0.84564 0.39318 0.16455 0.0
N419 N 0.78352 0.43122 0.19163 0.0
C420 C 0.81155 0.42303 0.22035 0.0
C421 C 0.84518 0.40216 0.20573 0.0
C422 C 0.08729 0.80982 0.72227 0.0
C423 C 0.07328 0.8082 0.76334 0.0
C424 C 0.10792 0.84269 0.70777 0.0
C425 C 0.11484 0.87523 0.73374 0.0
H426 H 0.08471 0.78454 0.70214 0.0
H427 H 0.12016 0.84168 0.6767 0.0
S428 S 0.07742 0.88753 0.84169 0.0
N429 N 0.06328 0.84318 0.82807 0.0
N430 N 0.10082 0.90536 0.80096 0.0
C431 C 0.09777 0.87506 0.77376 0.0
C432 C 0.07736 0.84141 0.78855 0.0
C433 C 0.63808 0.10566 0.27517 0.0
C434 C 0.63481 0.11641 0.23296 0.0
C435 C 0.67116 0.08611 0.2902 0.0
C436 C 0.70209 0.07574 0.26361 0.0
H437 H 0.61593 0.11424 0.29748 0.0
H438 H 0.67319 0.08041 0.32331 0.0
S439 S 0.70607 0.09221 0.1496 0.0
N440 N 0.66399 0.11175 0.16402 0.0
N441 N 0.72601 0.07433 0.19241 0.0
C442 C 0.69807 0.08354 0.22085 0.0
C443 C 0.6645 0.10406 0.2055 0.0
C444 C 0.42215 0.81001 0.299 0.0
C445 C 0.436 0.80801 0.25788 0.0
C446 C 0.40134 0.84289 0.31313 0.0
C447 C 0.39404 0.87506 0.28672 0.0
H448 H 0.42496 0.78496 0.31946 0.0
H449 H 0.38923 0.84214 0.34426 0.0
S450 S 0.43096 0.88642 0.17844 0.0
N451 N 0.44551 0.84235 0.19263 0.0
N452 N 0.40759 0.90454 0.21903 0.0
C453 C 0.41098 0.87457 0.24664 0.0
C454 C 0.4316 0.84092 0.23224 0.0
C455 C 0.66962 0.42407 0.7312 0.0
C456 C 0.70085 0.43332 0.75787 0.0
C457 C 0.63647 0.40439 0.74583 0.0
C458 C 0.63345 0.39238 0.78768 0.0
H459 H 0.67151 0.43065 0.69827 0.0
H460 H 0.61409 0.39666 0.72342 0.0
S461 S 0.70561 0.41344 0.87122 0.0
N462 N 0.72535 0.43242 0.82887 0.0
N463 N 0.66322 0.39475 0.85652 0.0
C464 C 0.66344 0.40369 0.81531 0.0
C465 C 0.69708 0.42435 0.80039 0.0
C466 C 0.10671 0.66424 0.31324 0.0
C467 C 0.11499 0.63234 0.28683 0.0
C468 C 0.08628 0.6972 0.29862 0.0
C469 C 0.07385 0.69958 0.257 0.0
H470 H 0.11771 0.66468 0.34485 0.0
H471 H 0.08262 0.722 0.31924 0.0
S472 S 0.08204 0.62205 0.17697 0.0
N473 N 0.10402 0.60358 0.21829 0.0
N474 N 0.06681 0.66591 0.19104 0.0
C475 C 0.0793 0.66696 0.2312 0.0
C476 C 0.09951 0.63322 0.24608 0.0
C477 C 0.87068 0.10448 0.74876 0.0
C478 C 0.87294 0.11747 0.79034 0.0
C479 C 0.83768 0.08475 0.73383 0.0
C480 C 0.80579 0.07642 0.75992 0.0
H481 H 0.89365 0.11139 0.72673 0.0
H482 H 0.83649 0.07735 0.70106 0.0
S483 S 0.79869 0.09915 0.8725 0.0
N484 N 0.84159 0.11708 0.8584 0.0
N485 N 0.77972 0.07931 0.8302 0.0
C486 C 0.8087 0.08641 0.80225 0.0
C487 C 0.84221 0.10712 0.81748 0.0
C488 C 0.53632 0.24657 0.03017 0.0
C489 C 0.57165 0.23877 0.05123 0.0
C490 C 0.53616 0.26077 0.98903 0.0
C491 C 0.57131 0.26734 0.9672 0.0
H492 H 0.50854 0.24219 0.04571 0.0
H493 H 0.50824 0.26626 0.97414 0.0
S494 S 0.67182 0.251 1.00806 0.0
N495 N 0.64276 0.23841 0.0468 0.0
N496 N 0.64248 0.26479 0.96999 0.0
C497 C 0.60681 0.25943 0.98789 0.0
C498 C 0.60698 0.24523 0.02971 0.0
C499 C 0.24417 0.60141 0.49129 0.0
C500 C 0.23763 0.5663 0.4695 0.0
C501 C 0.25779 0.60141 0.5324 0.0
C502 C 0.26589 0.56631 0.55366 0.0
H503 H 0.23871 0.62939 0.47654 0.0
H504 H 0.2621 0.62938 0.54755 0.0
S505 S 0.25383 0.46615 0.51087 0.0
N506 N 0.24028 0.49523 0.47241 0.0
N507 N 0.26617 0.49524 0.54975 0.0
C508 C 0.2596 0.53087 0.53233 0.0
C509 C 0.24534 0.53086 0.49034 0.0
C510 C 0.90903 0.26077 0.03288 0.0
C511 C 0.94429 0.26792 0.05422 0.0
C512 C 0.90878 0.2472 0.99178 0.0
C513 C 0.94378 0.23974 0.97009 0.0
H514 H 0.88112 0.26577 0.04796 0.0
H515 H 0.88069 0.24246 0.97696 0.0
S516 S 0.04428 0.25338 0.01168 0.0
N517 N 0.0154 0.26643 0.05049 0.0
N518 N 0.01493 0.2406 0.97316 0.0
C519 C 0.97938 0.24656 0.991 0.0
C520 C 0.97964 0.26079 0.03298 0.0
C521 C 0.26197 0.97007 0.48997 0.0
C522 C 0.26979 0.93488 0.46874 0.0
C523 C 0.24754 0.97003 0.53101 0.0
C524 C 0.24071 0.93479 0.5526 0.0
H525 H 0.26655 0.99792 0.47464 0.0
H526 H 0.24209 0.99786 0.54602 0.0
S527 S 0.25687 0.83455 0.51121 0.0
N528 N 0.2698 0.86378 0.47274 0.0
N529 N 0.243 0.86368 0.54937 0.0
C530 C 0.2486 0.89941 0.53173 0.0
C531 C 0.26304 0.89946 0.49 0.0
C532 C 0.40805 0.76084 0.99099 0.0
C533 C 0.44307 0.76828 0.96932 0.0
C534 C 0.40826 0.74683 0.03194 0.0
C535 C 0.44349 0.73922 0.05317 0.0
H536 H 0.37997 0.76596 0.97627 0.0
H537 H 0.38033 0.7419 0.04702 0.0
S538 S 0.54353 0.75344 0.01062 0.0
N539 N 0.51422 0.76684 0.97227 0.0
N540 N 0.5146 0.74021 0.04933 0.0
C541 C 0.47886 0.74629 0.03193 0.0
C542 C 0.47866 0.76095 0.9901 0.0
C543 C 0.76202 0.47037 0.53098 0.0
C544 C 0.76895 0.43511 0.5525 0.0
C545 C 0.74764 0.47045 0.48992 0.0
C546 C 0.73996 0.43528 0.4686 0.0
H547 H 0.76733 0.49819 0.54609 0.0
H548 H 0.74295 0.49832 0.47465 0.0
S549 S 0.75323 0.33489 0.51084 0.0
N550 N 0.76697 0.36399 0.54908 0.0
N551 N 0.74022 0.36416 0.47242 0.0
C552 C 0.74683 0.39983 0.48978 0.0
C553 C 0.76125 0.39975 0.53152 0.0
C554 C 0.10065 0.7623 0.03114 0.0
C555 C 0.06561 0.76964 0.05281 0.0
C556 C 0.10047 0.74842 0.99015 0.0
C557 C 0.06525 0.74083 0.96888 0.0
H558 H 0.12871 0.76734 0.04591 0.0
H559 H 0.12841 0.74351 0.97509 0.0
S560 S 0.96518 0.75502 0.01137 0.0
N561 N 0.99447 0.76828 0.04977 0.0
N562 N 0.99413 0.7419 0.97266 0.0
C563 C 0.02986 0.74791 0.99009 0.0
C564 C 0.03004 0.76244 0.03196 0.0
C565 C 0.74891 0.10094 0.53148 0.0
C566 C 0.74088 0.06587 0.55281 0.0
C567 C 0.76295 0.10088 0.49056 0.0
C568 C 0.76998 0.06573 0.469 0.0
H569 H 0.74424 0.12895 0.54643 0.0
H570 H 0.76834 0.12884 0.47575 0.0
S571 S 0.75408 0.96563 0.51062 0.0
N572 N 0.74115 0.99478 0.54921 0.0
N573 N 0.76781 0.99466 0.4722 0.0
C574 C 0.76231 0.03031 0.48991 0.0
C575 C 0.74764 0.03038 0.53172 0.0
loop_
_geom_bond_atom_site_label_1
_geom_bond_atom_site_label_2
_geom_bond_distance
_geom_bond_site_symmetry_2
_ccdc_geom_bond_type
O0 Cd1 2.223 . S
O0 C8 1.315 . S
Cd1 O0 2.223 . S
Cd1 O4 2.297 . S
Cd1 O5 2.439 . S
Cd1 O11 2.240 . S
Cd2 O3 2.240 . S
Cd2 O10 2.223 . S
Cd2 O12 2.297 . S
Cd2 O13 2.439 . S
O3 Cd2 2.240 . S
O3 C8 1.279 . S
O4 Cd1 2.297 . S
O4 C6 1.247 . S
O5 Cd1 2.439 . S
O5 C6 1.208 . S
C6 O4 1.247 . S
C6 O5 1.208 . S
C7 O12 1.247 . S
C7 O13 1.208 . S
C8 O0 1.315 . S
C8 O3 1.279 . S
C9 O10 1.315 . S
C9 O11 1.279 . S
O10 Cd2 2.223 . S
O10 C9 1.315 . S
O11 Cd1 2.240 . S
O11 C9 1.279 . S
O12 Cd2 2.297 . S
O12 C7 1.247 . S
O13 Cd2 2.439 . S
O13 C7 1.208 . S
O14 Cd15 2.223 . S
O14 C22 1.315 . S
Cd15 O14 2.223 . S
Cd15 O18 2.297 . S
Cd15 O19 2.439 . S
Cd15 O25 2.240 . S
Cd16 O17 2.240 . S
Cd16 O24 2.223 . S
Cd16 O26 2.297 . S
Cd16 O27 2.439 . S
O17 Cd16 2.240 . S
O17 C22 1.279 . S
O18 Cd15 2.297 . S
O18 C20 1.247 . S
O19 Cd15 2.439 . S
O19 C20 1.208 . S
C20 O18 1.247 . S
C20 O19 1.208 . S
C21 O26 1.247 . S
C21 O27 1.208 . S
C22 O14 1.315 . S
C22 O17 1.279 . S
C23 O24 1.315 . S
C23 O25 1.279 . S
O24 Cd16 2.223 . S
O24 C23 1.315 . S
O25 Cd15 2.240 . S
O25 C23 1.279 . S
O26 Cd16 2.297 . S
O26 C21 1.247 . S
O27 Cd16 2.439 . S
O27 C21 1.208 . S
O28 Cd29 2.223 . S
O28 C36 1.315 . S
Cd29 O28 2.223 . S
Cd29 O32 2.297 . S
Cd29 O33 2.439 . S
Cd29 O39 2.240 . S
Cd30 O31 2.240 . S
Cd30 O38 2.223 . S
Cd30 O40 2.297 1_655 S
Cd30 O41 2.439 1_655 S
O31 Cd30 2.240 . S
O31 C36 1.279 . S
O32 Cd29 2.297 . S
O32 C34 1.247 . S
O33 Cd29 2.439 . S
O33 C34 1.208 . S
C34 O32 1.247 . S
C34 O33 1.208 . S
C35 O40 1.247 . S
C35 O41 1.208 . S
C36 O28 1.315 . S
C36 O31 1.279 . S
C37 O38 1.315 . S
C37 O39 1.279 . S
O38 Cd30 2.223 . S
O38 C37 1.315 . S
O39 Cd29 2.240 . S
O39 C37 1.279 . S
O40 Cd30 2.297 1_455 S
O40 C35 1.247 . S
O41 Cd30 2.439 1_455 S
O41 C35 1.208 . S
O42 Cd43 2.223 . S
O42 C50 1.315 . S
Cd43 O42 2.223 . S
Cd43 O46 2.297 1_565 S
Cd43 O47 2.439 1_565 S
Cd43 O53 2.240 . S
Cd44 O45 2.240 . S
Cd44 O52 2.223 . S
Cd44 O54 2.297 . S
Cd44 O55 2.439 . S
O45 Cd44 2.240 . S
O45 C50 1.279 . S
O46 Cd43 2.297 1_545 S
O46 C48 1.247 . S
O47 Cd43 2.439 1_545 S
O47 C48 1.208 . S
C48 O46 1.247 . S
C48 O47 1.208 . S
C49 O54 1.247 . S
C49 O55 1.208 . S
C50 O42 1.315 . S
C50 O45 1.279 . S
C51 O52 1.315 . S
C51 O53 1.279 . S
O52 Cd44 2.223 . S
O52 C51 1.315 . S
O53 Cd43 2.240 . S
O53 C51 1.279 . S
O54 Cd44 2.297 . S
O54 C49 1.247 . S
O55 Cd44 2.439 . S
O55 C49 1.208 . S
O56 Cd57 2.223 . S
O56 C64 1.315 . S
Cd57 O56 2.223 . S
Cd57 O60 2.297 . S
Cd57 O61 2.439 . S
Cd57 O67 2.240 . S
Cd58 O59 2.240 . S
Cd58 O66 2.223 . S
Cd58 O68 2.297 . S
Cd58 O69 2.439 . S
O59 Cd58 2.240 . S
O59 C64 1.279 . S
O60 Cd57 2.297 . S
O60 C62 1.247 . S
O61 Cd57 2.439 . S
O61 C62 1.208 . S
C62 O60 1.247 . S
C62 O61 1.208 . S
C63 O68 1.247 . S
C63 O69 1.208 . S
C64 O56 1.315 . S
C64 O59 1.279 . S
C65 O66 1.315 . S
C65 O67 1.279 . S
O66 Cd58 2.223 . S
O66 C65 1.315 . S
O67 Cd57 2.240 . S
O67 C65 1.279 . S
O68 Cd58 2.297 . S
O68 C63 1.247 . S
O69 Cd58 2.439 . S
O69 C63 1.208 . S
O70 Cd71 2.223 . S
O70 C78 1.315 . S
Cd71 O70 2.223 . S
Cd71 O74 2.297 . S
Cd71 O75 2.439 . S
Cd71 O81 2.240 . S
Cd72 O73 2.240 . S
Cd72 O80 2.223 . S
Cd72 O82 2.297 . S
Cd72 O83 2.439 . S
O73 Cd72 2.240 . S
O73 C78 1.279 . S
O74 Cd71 2.297 . S
O74 C76 1.247 . S
O75 Cd71 2.439 . S
O75 C76 1.208 . S
C76 O74 1.247 . S
C76 O75 1.208 . S
C77 O82 1.247 . S
C77 O83 1.208 . S
C78 O70 1.315 . S
C78 O73 1.279 . S
C79 O80 1.315 . S
C79 O81 1.279 . S
O80 Cd72 2.223 . S
O80 C79 1.315 . S
O81 Cd71 2.240 . S
O81 C79 1.279 . S
O82 Cd72 2.297 . S
O82 C77 1.247 . S
O83 Cd72 2.439 . S
O83 C77 1.208 . S
O84 Cd85 2.223 . S
O84 C92 1.315 . S
Cd85 O84 2.223 . S
Cd85 O88 2.297 . S
Cd85 O89 2.439 . S
Cd85 O95 2.240 . S
Cd86 O87 2.240 . S
Cd86 O94 2.223 . S
Cd86 O96 2.297 1_655 S
Cd86 O97 2.439 1_655 S
O87 Cd86 2.240 . S
O87 C92 1.279 . S
O88 Cd85 2.297 . S
O88 C90 1.247 . S
O89 Cd85 2.439 . S
O89 C90 1.208 . S
C90 O88 1.247 . S
C90 O89 1.208 . S
C91 O96 1.247 . S
C91 O97 1.208 . S
C92 O84 1.315 . S
C92 O87 1.279 . S
C93 O94 1.315 . S
C93 O95 1.279 . S
O94 Cd86 2.223 . S
O94 C93 1.315 . S
O95 Cd85 2.240 . S
O95 C93 1.279 . S
O96 Cd86 2.297 1_455 S
O96 C91 1.247 . S
O97 Cd86 2.439 1_455 S
O97 C91 1.208 . S
O98 Cd99 2.223 . S
O98 C106 1.315 . S
Cd99 O98 2.223 . S
Cd99 O102 2.297 1_565 S
Cd99 O103 2.439 1_565 S
Cd99 O109 2.240 . S
Cd100 O101 2.240 . S
Cd100 O108 2.223 . S
Cd100 O110 2.297 . S
Cd100 O111 2.439 . S
O101 Cd100 2.240 . S
O101 C106 1.279 . S
O102 Cd99 2.297 1_545 S
O102 C104 1.247 . S
O103 Cd99 2.439 1_545 S
O103 C104 1.208 . S
C104 O102 1.247 . S
C104 O103 1.208 . S
C105 O110 1.247 . S
C105 O111 1.208 . S
C106 O98 1.315 . S
C106 O101 1.279 . S
C107 O108 1.315 . S
C107 O109 1.279 . S
O108 Cd100 2.223 . S
O108 C107 1.315 . S
O109 Cd99 2.240 . S
O109 C107 1.279 . S
O110 Cd100 2.297 . S
O110 C105 1.247 . S
O111 Cd100 2.439 . S
O111 C105 1.208 . S
O112 Cd113 2.223 . S
O112 C120 1.315 . S
Cd113 O112 2.223 . S
Cd113 O116 2.297 . S
Cd113 O117 2.439 . S
Cd113 O123 2.240 . S
Cd114 O115 2.240 . S
Cd114 O122 2.223 . S
Cd114 O124 2.297 . S
Cd114 O125 2.439 . S
O115 Cd114 2.240 . S
O115 C120 1.279 . S
O116 Cd113 2.297 . S
O116 C118 1.247 . S
O117 Cd113 2.439 . S
O117 C118 1.208 . S
C118 O116 1.247 . S
C118 O117 1.208 . S
C119 O124 1.247 . S
C119 O125 1.208 . S
C120 O112 1.315 . S
C120 O115 1.279 . S
C121 O122 1.315 . S
C121 O123 1.279 . S
O122 Cd114 2.223 . S
O122 C121 1.315 . S
O123 Cd113 2.240 . S
O123 C121 1.279 . S
O124 Cd114 2.297 . S
O124 C119 1.247 . S
O125 Cd114 2.439 . S
O125 C119 1.208 . S
O126 Cd127 2.223 . S
O126 C134 1.315 . S
Cd127 O126 2.223 . S
Cd127 O130 2.297 . S
Cd127 O131 2.439 . S
Cd127 O137 2.240 . S
Cd128 O129 2.240 . S
Cd128 O136 2.223 . S
Cd128 O138 2.297 . S
Cd128 O139 2.439 . S
O129 Cd128 2.240 . S
O129 C134 1.279 . S
O130 Cd127 2.297 . S
O130 C132 1.247 . S
O131 Cd127 2.439 . S
O131 C132 1.208 . S
C132 O130 1.247 . S
C132 O131 1.208 . S
C133 O138 1.247 . S
C133 O139 1.208 . S
C134 O126 1.315 . S
C134 O129 1.279 . S
C135 O136 1.315 . S
C135 O137 1.279 . S
O136 Cd128 2.223 . S
O136 C135 1.315 . S
O137 Cd127 2.240 . S
O137 C135 1.279 . S
O138 Cd128 2.297 . S
O138 C133 1.247 . S
O139 Cd128 2.439 . S
O139 C133 1.208 . S
O140 Cd141 2.223 . S
O140 C148 1.315 . S
Cd141 O140 2.223 . S
Cd141 O144 2.297 1_455 S
Cd141 O145 2.439 1_455 S
Cd141 O151 2.240 . S
Cd142 O143 2.240 . S
Cd142 O150 2.223 . S
Cd142 O152 2.297 . S
Cd142 O153 2.439 . S
O143 Cd142 2.240 . S
O143 C148 1.279 . S
O144 Cd141 2.297 1_655 S
O144 C146 1.247 . S
O145 Cd141 2.439 1_655 S
O145 C146 1.208 . S
C146 O144 1.247 . S
C146 O145 1.208 . S
C147 O152 1.247 . S
C147 O153 1.208 . S
C148 O140 1.315 . S
C148 O143 1.279 . S
C149 O150 1.315 . S
C149 O151 1.279 . S
O150 Cd142 2.223 . S
O150 C149 1.315 . S
O151 Cd141 2.240 . S
O151 C149 1.279 . S
O152 Cd142 2.297 . S
O152 C147 1.247 . S
O153 Cd142 2.439 . S
O153 C147 1.208 . S
O154 Cd155 2.223 . S
O154 C162 1.315 . S
Cd155 O154 2.223 . S
Cd155 O158 2.297 1_545 S
Cd155 O159 2.439 1_545 S
Cd155 O165 2.240 . S
Cd156 O157 2.240 . S
Cd156 O164 2.223 . S
Cd156 O166 2.297 . S
Cd156 O167 2.439 . S
O157 Cd156 2.240 . S
O157 C162 1.279 . S
O158 Cd155 2.297 1_565 S
O158 C160 1.247 . S
O159 Cd155 2.439 1_565 S
O159 C160 1.208 . S
C160 O158 1.247 . S
C160 O159 1.208 . S
C161 O166 1.247 . S
C161 O167 1.208 . S
C162 O154 1.315 . S
C162 O157 1.279 . S
C163 O164 1.315 . S
C163 O165 1.279 . S
O164 Cd156 2.223 . S
O164 C163 1.315 . S
O165 Cd155 2.240 . S
O165 C163 1.279 . S
O166 Cd156 2.297 . S
O166 C161 1.247 . S
O167 Cd156 2.439 . S
O167 C161 1.208 . S
O168 Cd169 2.223 . S
O168 C176 1.315 . S
Cd169 O168 2.223 . S
Cd169 O172 2.297 . S
Cd169 O173 2.439 . S
Cd169 O179 2.240 . S
Cd170 O171 2.240 . S
Cd170 O178 2.223 . S
Cd170 O180 2.297 . S
Cd170 O181 2.439 . S
O171 Cd170 2.240 . S
O171 C176 1.279 . S
O172 Cd169 2.297 . S
O172 C174 1.247 . S
O173 Cd169 2.439 . S
O173 C174 1.208 . S
C174 O172 1.247 . S
C174 O173 1.208 . S
C175 O180 1.247 . S
C175 O181 1.208 . S
C176 O168 1.315 . S
C176 O171 1.279 . S
C177 O178 1.315 . S
C177 O179 1.279 . S
O178 Cd170 2.223 . S
O178 C177 1.315 . S
O179 Cd169 2.240 . S
O179 C177 1.279 . S
O180 Cd170 2.297 . S
O180 C175 1.247 . S
O181 Cd170 2.439 . S
O181 C175 1.208 . S
O182 Cd183 2.223 . S
O182 C190 1.315 . S
Cd183 O182 2.223 . S
Cd183 O186 2.297 . S
Cd183 O187 2.439 . S
Cd183 O193 2.240 . S
Cd184 O185 2.240 . S
Cd184 O192 2.223 . S
Cd184 O194 2.297 . S
Cd184 O195 2.439 . S
O185 Cd184 2.240 . S
O185 C190 1.279 . S
O186 Cd183 2.297 . S
O186 C188 1.247 . S
O187 Cd183 2.439 . S
O187 C188 1.208 . S
C188 O186 1.247 . S
C188 O187 1.208 . S
C189 O194 1.247 . S
C189 O195 1.208 . S
C190 O182 1.315 . S
C190 O185 1.279 . S
C191 O192 1.315 . S
C191 O193 1.279 . S
O192 Cd184 2.223 . S
O192 C191 1.315 . S
O193 Cd183 2.240 . S
O193 C191 1.279 . S
O194 Cd184 2.297 . S
O194 C189 1.247 . S
O195 Cd184 2.439 . S
O195 C189 1.208 . S
O196 Cd197 2.223 . S
O196 C204 1.315 . S
Cd197 O196 2.223 . S
Cd197 O200 2.297 1_455 S
Cd197 O201 2.439 1_455 S
Cd197 O207 2.240 . S
Cd198 O199 2.240 . S
Cd198 O206 2.223 . S
Cd198 O208 2.297 . S
Cd198 O209 2.439 . S
O199 Cd198 2.240 . S
O199 C204 1.279 . S
O200 Cd197 2.297 1_655 S
O200 C202 1.247 . S
O201 Cd197 2.439 1_655 S
O201 C202 1.208 . S
C202 O200 1.247 . S
C202 O201 1.208 . S
C203 O208 1.247 . S
C203 O209 1.208 . S
C204 O196 1.315 . S
C204 O199 1.279 . S
C205 O206 1.315 . S
C205 O207 1.279 . S
O206 Cd198 2.223 . S
O206 C205 1.315 . S
O207 Cd197 2.240 . S
O207 C205 1.279 . S
O208 Cd198 2.297 . S
O208 C203 1.247 . S
O209 Cd198 2.439 . S
O209 C203 1.208 . S
O210 Cd211 2.223 . S
O210 C218 1.315 . S
Cd211 O210 2.223 . S
Cd211 O214 2.297 1_545 S
Cd211 O215 2.439 1_545 S
Cd211 O221 2.240 . S
Cd212 O213 2.240 . S
Cd212 O220 2.223 . S
Cd212 O222 2.297 . S
Cd212 O223 2.439 . S
O213 Cd212 2.240 . S
O213 C218 1.279 . S
O214 Cd211 2.297 1_565 S
O214 C216 1.247 . S
O215 Cd211 2.439 1_565 S
O215 C216 1.208 . S
C216 O214 1.247 . S
C216 O215 1.208 . S
C217 O222 1.247 . S
C217 O223 1.208 . S
C218 O210 1.315 . S
C218 O213 1.279 . S
C219 O220 1.315 . S
C219 O221 1.279 . S
O220 Cd212 2.223 . S
O220 C219 1.315 . S
O221 Cd211 2.240 . S
O221 C219 1.279 . S
O222 Cd212 2.297 . S
O222 C217 1.247 . S
O223 Cd212 2.439 . S
O223 C217 1.208 . S
C224 C225 1.369 . S
C224 C226 1.419 . S
C224 H228 0.930 . S
C225 C224 1.369 . S
C225 C234 1.429 . S
C226 C224 1.419 . S
C226 C227 1.363 . S
C226 H229 0.929 . S
C227 C226 1.363 . S
C227 C233 1.428 . S
H228 C224 0.930 . S
H229 C226 0.929 . S
S230 N231 1.613 . S
S230 N232 1.610 . S
N231 S230 1.613 . S
N231 C234 1.350 . S
N232 S230 1.610 . S
N232 C233 1.351 . S
C233 C227 1.428 . S
C233 N232 1.351 . S
C233 C234 1.434 . S
C234 C225 1.429 . S
C234 N231 1.350 . S
C234 C233 1.434 . S
C235 C236 1.369 . S
C235 C237 1.419 . S
C235 H239 0.930 . S
C236 C235 1.369 . S
C236 C245 1.429 . S
C237 C235 1.419 . S
C237 C238 1.363 . S
C237 H240 0.929 . S
C238 C237 1.363 . S
C238 C244 1.428 . S
H239 C235 0.930 . S
H240 C237 0.929 . S
S241 N242 1.613 . S
S241 N243 1.610 . S
N242 S241 1.613 . S
N242 C245 1.350 . S
N243 S241 1.610 . S
N243 C244 1.351 . S
C244 C238 1.428 . S
C244 N243 1.351 . S
C244 C245 1.434 . S
C245 C236 1.429 . S
C245 N242 1.350 . S
C245 C244 1.434 . S
C246 C247 1.369 . S
C246 C248 1.419 . S
C246 H250 0.930 . S
C247 C246 1.369 . S
C247 C256 1.429 . S
C248 C246 1.419 . S
C248 C249 1.363 . S
C248 H251 0.929 . S
C249 C248 1.363 . S
C249 C255 1.428 . S
H250 C246 0.930 . S
H251 C248 0.929 . S
S252 N253 1.613 . S
S252 N254 1.610 . S
N253 S252 1.613 . S
N253 C256 1.350 . S
N254 S252 1.610 . S
N254 C255 1.351 . S
C255 C249 1.428 . S
C255 N254 1.351 . S
C255 C256 1.434 . S
C256 C247 1.429 . S
C256 N253 1.350 . S
C256 C255 1.434 . S
C257 C258 1.369 . S
C257 C259 1.419 . S
C257 H261 0.930 . S
C258 C257 1.369 . S
C258 C267 1.429 . S
C259 C257 1.419 . S
C259 C260 1.363 . S
C259 H262 0.929 . S
C260 C259 1.363 . S
C260 C266 1.428 . S
H261 C257 0.930 . S
H262 C259 0.929 . S
S263 N264 1.613 . S
S263 N265 1.610 . S
N264 S263 1.613 . S
N264 C267 1.350 . S
N265 S263 1.610 . S
N265 C266 1.351 . S
C266 C260 1.428 . S
C266 N265 1.351 . S
C266 C267 1.434 . S
C267 C258 1.429 . S
C267 N264 1.350 . S
C267 C266 1.434 . S
C268 C269 1.369 . S
C268 C270 1.419 . S
C268 H272 0.930 . S
C269 C268 1.369 . S
C269 C278 1.429 . S
C270 C268 1.419 . S
C270 C271 1.363 . S
C270 H273 0.929 . S
C271 C270 1.363 . S
C271 C277 1.428 . S
H272 C268 0.930 . S
H273 C270 0.929 . S
S274 N275 1.613 . S
S274 N276 1.610 . S
N275 S274 1.613 . S
N275 C278 1.350 . S
N276 S274 1.610 . S
N276 C277 1.351 . S
C277 C271 1.428 . S
C277 N276 1.351 . S
C277 C278 1.434 . S
C278 C269 1.429 . S
C278 N275 1.350 . S
C278 C277 1.434 . S
C279 C280 1.369 . S
C279 C281 1.419 . S
C279 H283 0.930 . S
C280 C279 1.369 . S
C280 C289 1.429 . S
C281 C279 1.419 . S
C281 C282 1.363 . S
C281 H284 0.929 . S
C282 C281 1.363 . S
C282 C288 1.428 . S
H283 C279 0.930 . S
H284 C281 0.929 . S
S285 N286 1.613 . S
S285 N287 1.610 . S
N286 S285 1.613 . S
N286 C289 1.350 . S
N287 S285 1.610 . S
N287 C288 1.351 . S
C288 C282 1.428 . S
C288 N287 1.351 . S
C288 C289 1.434 . S
C289 C280 1.429 . S
C289 N286 1.350 . S
C289 C288 1.434 . S
C290 C291 1.369 . S
C290 C292 1.419 . S
C290 H294 0.930 . S
C291 C290 1.369 . S
C291 C300 1.429 . S
C292 C290 1.419 . S
C292 C293 1.363 . S
C292 H295 0.929 . S
C293 C292 1.363 . S
C293 C299 1.428 . S
H294 C290 0.930 . S
H295 C292 0.929 . S
S296 N297 1.613 . S
S296 N298 1.610 . S
N297 S296 1.613 . S
N297 C300 1.350 . S
N298 S296 1.610 . S
N298 C299 1.351 . S
C299 C293 1.428 . S
C299 N298 1.351 . S
C299 C300 1.434 . S
C300 C291 1.429 . S
C300 N297 1.350 . S
C300 C299 1.434 . S
C301 C302 1.369 . S
C301 C303 1.419 . S
C301 H305 0.930 . S
C302 C301 1.369 . S
C302 C311 1.429 . S
C303 C301 1.419 . S
C303 C304 1.363 . S
C303 H306 0.929 . S
C304 C303 1.363 . S
C304 C310 1.428 . S
H305 C301 0.930 . S
H306 C303 0.929 . S
S307 N308 1.613 . S
S307 N309 1.610 . S
N308 S307 1.613 . S
N308 C311 1.350 . S
N309 S307 1.610 . S
N309 C310 1.351 . S
C310 C304 1.428 . S
C310 N309 1.351 . S
C310 C311 1.434 . S
C311 C302 1.429 . S
C311 N308 1.350 . S
C311 C310 1.434 . S
C312 C313 1.369 . S
C312 C314 1.419 . S
C312 H316 0.930 . S
C313 C312 1.369 . S
C313 C322 1.429 . S
C314 C312 1.419 . S
C314 C315 1.363 . S
C314 H317 0.929 . S
C315 C314 1.363 . S
C315 C321 1.428 . S
H316 C312 0.930 . S
H317 C314 0.929 . S
S318 N319 1.613 . S
S318 N320 1.610 . S
N319 S318 1.613 . S
N319 C322 1.350 . S
N320 S318 1.610 . S
N320 C321 1.351 . S
C321 C315 1.428 . S
C321 N320 1.351 . S
C321 C322 1.434 . S
C322 C313 1.429 . S
C322 N319 1.350 . S
C322 C321 1.434 . S
C323 C324 1.369 . S
C323 C325 1.419 . S
C323 H327 0.930 . S
C324 C323 1.369 . S
C324 C333 1.429 . S
C325 C323 1.419 . S
C325 C326 1.363 . S
C325 H328 0.929 . S
C326 C325 1.363 . S
C326 C332 1.428 . S
H327 C323 0.930 . S
H328 C325 0.929 . S
S329 N330 1.613 . S
S329 N331 1.610 . S
N330 S329 1.613 . S
N330 C333 1.350 . S
N331 S329 1.610 . S
N331 C332 1.351 . S
C332 C326 1.428 . S
C332 N331 1.351 . S
C332 C333 1.434 . S
C333 C324 1.429 . S
C333 N330 1.350 . S
C333 C332 1.434 . S
C334 C335 1.369 . S
C334 C336 1.419 . S
C334 H338 0.930 . S
C335 C334 1.369 . S
C335 C344 1.429 . S
C336 C334 1.419 . S
C336 C337 1.363 . S
C336 H339 0.929 . S
C337 C336 1.363 . S
C337 C343 1.428 . S
H338 C334 0.930 . S
H339 C336 0.929 . S
S340 N341 1.613 . S
S340 N342 1.610 . S
N341 S340 1.613 . S
N341 C344 1.350 . S
N342 S340 1.610 . S
N342 C343 1.351 . S
C343 C337 1.428 . S
C343 N342 1.351 . S
C343 C344 1.434 . S
C344 C335 1.429 . S
C344 N341 1.350 . S
C344 C343 1.434 . S
C345 C346 1.369 . S
C345 C347 1.419 . S
C345 H349 0.930 . S
C346 C345 1.369 . S
C346 C355 1.429 . S
C347 C345 1.419 . S
C347 C348 1.363 . S
C347 H350 0.929 . S
C348 C347 1.363 . S
C348 C354 1.428 . S
H349 C345 0.930 . S
H350 C347 0.929 . S
S351 N352 1.613 . S
S351 N353 1.610 . S
N352 S351 1.613 . S
N352 C355 1.350 . S
N353 S351 1.610 . S
N353 C354 1.351 . S
C354 C348 1.428 . S
C354 N353 1.351 . S
C354 C355 1.434 . S
C355 C346 1.429 . S
C355 N352 1.350 . S
C355 C354 1.434 . S
C356 C357 1.369 . S
C356 C358 1.419 . S
C356 H360 0.930 . S
C357 C356 1.369 . S
C357 C366 1.429 . S
C358 C356 1.419 . S
C358 C359 1.363 . S
C358 H361 0.929 . S
C359 C358 1.363 . S
C359 C365 1.428 . S
H360 C356 0.930 . S
H361 C358 0.929 . S
S362 N363 1.613 . S
S362 N364 1.610 . S
N363 S362 1.613 . S
N363 C366 1.350 . S
N364 S362 1.610 . S
N364 C365 1.351 . S
C365 C359 1.428 . S
C365 N364 1.351 . S
C365 C366 1.434 . S
C366 C357 1.429 . S
C366 N363 1.350 . S
C366 C365 1.434 . S
C367 C368 1.369 . S
C367 C369 1.419 . S
C367 H371 0.930 . S
C368 C367 1.369 . S
C368 C377 1.429 . S
C369 C367 1.419 . S
C369 C370 1.363 . S
C369 H372 0.929 . S
C370 C369 1.363 . S
C370 C376 1.428 . S
H371 C367 0.930 . S
H372 C369 0.929 . S
S373 N374 1.613 . S
S373 N375 1.610 . S
N374 S373 1.613 . S
N374 C377 1.350 . S
N375 S373 1.610 . S
N375 C376 1.351 . S
C376 C370 1.428 . S
C376 N375 1.351 . S
C376 C377 1.434 . S
C377 C368 1.429 . S
C377 N374 1.350 . S
C377 C376 1.434 . S
C378 C379 1.369 . S
C378 C380 1.419 . S
C378 H382 0.930 . S
C379 C378 1.369 . S
C379 C388 1.429 . S
C380 C378 1.419 . S
C380 C381 1.363 . S
C380 H383 0.929 . S
C381 C380 1.363 . S
C381 C387 1.428 . S
H382 C378 0.930 . S
H383 C380 0.929 . S
S384 N385 1.613 . S
S384 N386 1.610 . S
N385 S384 1.613 . S
N385 C388 1.350 . S
N386 S384 1.610 . S
N386 C387 1.351 . S
C387 C381 1.428 . S
C387 N386 1.351 . S
C387 C388 1.434 . S
C388 C379 1.429 . S
C388 N385 1.350 . S
C388 C387 1.434 . S
C389 C390 1.369 . S
C389 C391 1.419 . S
C389 H393 0.930 . S
C390 C389 1.369 . S
C390 C399 1.429 . S
C391 C389 1.419 . S
C391 C392 1.363 . S
C391 H394 0.929 . S
C392 C391 1.363 . S
C392 C398 1.428 . S
H393 C389 0.930 . S
H394 C391 0.929 . S
S395 N396 1.613 . S
S395 N397 1.610 . S
N396 S395 1.613 . S
N396 C399 1.350 . S
N397 S395 1.610 . S
N397 C398 1.351 . S
C398 C392 1.428 . S
C398 N397 1.351 . S
C398 C399 1.434 . S
C399 C390 1.429 . S
C399 N396 1.350 . S
C399 C398 1.434 . S
C400 C401 1.369 . S
C400 C402 1.419 . S
C400 H404 0.930 . S
C401 C400 1.369 . S
C401 C410 1.429 . S
C402 C400 1.419 . S
C402 C403 1.363 . S
C402 H405 0.929 . S
C403 C402 1.363 . S
C403 C409 1.428 . S
H404 C400 0.930 . S
H405 C402 0.929 . S
S406 N407 1.613 . S
S406 N408 1.610 . S
N407 S406 1.613 . S
N407 C410 1.350 . S
N408 S406 1.610 . S
N408 C409 1.351 . S
C409 C403 1.428 . S
C409 N408 1.351 . S
C409 C410 1.434 . S
C410 C401 1.429 . S
C410 N407 1.350 . S
C410 C409 1.434 . S
C411 C412 1.369 . S
C411 C413 1.419 . S
C411 H415 0.930 . S
C412 C411 1.369 . S
C412 C421 1.429 . S
C413 C411 1.419 . S
C413 C414 1.363 . S
C413 H416 0.929 . S
C414 C413 1.363 . S
C414 C420 1.428 . S
H415 C411 0.930 . S
H416 C413 0.929 . S
S417 N418 1.613 . S
S417 N419 1.610 . S
N418 S417 1.613 . S
N418 C421 1.350 . S
N419 S417 1.610 . S
N419 C420 1.351 . S
C420 C414 1.428 . S
C420 N419 1.351 . S
C420 C421 1.434 . S
C421 C412 1.429 . S
C421 N418 1.350 . S
C421 C420 1.434 . S
C422 C423 1.369 . S
C422 C424 1.419 . S
C422 H426 0.930 . S
C423 C422 1.369 . S
C423 C432 1.429 . S
C424 C422 1.419 . S
C424 C425 1.363 . S
C424 H427 0.929 . S
C425 C424 1.363 . S
C425 C431 1.428 . S
H426 C422 0.930 . S
H427 C424 0.929 . S
S428 N429 1.613 . S
S428 N430 1.610 . S
N429 S428 1.613 . S
N429 C432 1.350 . S
N430 S428 1.610 . S
N430 C431 1.351 . S
C431 C425 1.428 . S
C431 N430 1.351 . S
C431 C432 1.434 . S
C432 C423 1.429 . S
C432 N429 1.350 . S
C432 C431 1.434 . S
C433 C434 1.369 . S
C433 C435 1.419 . S
C433 H437 0.930 . S
C434 C433 1.369 . S
C434 C443 1.429 . S
C435 C433 1.419 . S
C435 C436 1.363 . S
C435 H438 0.929 . S
C436 C435 1.363 . S
C436 C442 1.428 . S
H437 C433 0.930 . S
H438 C435 0.929 . S
S439 N440 1.613 . S
S439 N441 1.610 . S
N440 S439 1.613 . S
N440 C443 1.350 . S
N441 S439 1.610 . S
N441 C442 1.351 . S
C442 C436 1.428 . S
C442 N441 1.351 . S
C442 C443 1.434 . S
C443 C434 1.429 . S
C443 N440 1.350 . S
C443 C442 1.434 . S
C444 C445 1.369 . S
C444 C446 1.419 . S
C444 H448 0.930 . S
C445 C444 1.369 . S
C445 C454 1.429 . S
C446 C444 1.419 . S
C446 C447 1.363 . S
C446 H449 0.929 . S
C447 C446 1.363 . S
C447 C453 1.428 . S
H448 C444 0.930 . S
H449 C446 0.929 . S
S450 N451 1.613 . S
S450 N452 1.610 . S
N451 S450 1.613 . S
N451 C454 1.350 . S
N452 S450 1.610 . S
N452 C453 1.351 . S
C453 C447 1.428 . S
C453 N452 1.351 . S
C453 C454 1.434 . S
C454 C445 1.429 . S
C454 N451 1.350 . S
C454 C453 1.434 . S
C455 C456 1.369 . S
C455 C457 1.419 . S
C455 H459 0.930 . S
C456 C455 1.369 . S
C456 C465 1.429 . S
C457 C455 1.419 . S
C457 C458 1.363 . S
C457 H460 0.929 . S
C458 C457 1.363 . S
C458 C464 1.428 . S
H459 C455 0.930 . S
H460 C457 0.929 . S
S461 N462 1.613 . S
S461 N463 1.610 . S
N462 S461 1.613 . S
N462 C465 1.350 . S
N463 S461 1.610 . S
N463 C464 1.351 . S
C464 C458 1.428 . S
C464 N463 1.351 . S
C464 C465 1.434 . S
C465 C456 1.429 . S
C465 N462 1.350 . S
C465 C464 1.434 . S
C466 C467 1.369 . S
C466 C468 1.419 . S
C466 H470 0.930 . S
C467 C466 1.369 . S
C467 C476 1.429 . S
C468 C466 1.419 . S
C468 C469 1.363 . S
C468 H471 0.929 . S
C469 C468 1.363 . S
C469 C475 1.428 . S
H470 C466 0.930 . S
H471 C468 0.929 . S
S472 N473 1.613 . S
S472 N474 1.610 . S
N473 S472 1.613 . S
N473 C476 1.350 . S
N474 S472 1.610 . S
N474 C475 1.351 . S
C475 C469 1.428 . S
C475 N474 1.351 . S
C475 C476 1.434 . S
C476 C467 1.429 . S
C476 N473 1.350 . S
C476 C475 1.434 . S
C477 C478 1.369 . S
C477 C479 1.419 . S
C477 H481 0.930 . S
C478 C477 1.369 . S
C478 C487 1.429 . S
C479 C477 1.419 . S
C479 C480 1.363 . S
C479 H482 0.929 . S
C480 C479 1.363 . S
C480 C486 1.428 . S
H481 C477 0.930 . S
H482 C479 0.929 . S
S483 N484 1.613 . S
S483 N485 1.610 . S
N484 S483 1.613 . S
N484 C487 1.350 . S
N485 S483 1.610 . S
N485 C486 1.351 . S
C486 C480 1.428 . S
C486 N485 1.351 . S
C486 C487 1.434 . S
C487 C478 1.429 . S
C487 N484 1.350 . S
C487 C486 1.434 . S
C488 C489 1.369 . S
C488 C490 1.419 1_554 S
C488 H492 0.930 . S
C489 C488 1.369 . S
C489 C498 1.429 . S
C490 C488 1.419 1_556 S
C490 C491 1.363 . S
C490 H493 0.929 . S
C491 C490 1.363 . S
C491 C497 1.428 . S
H492 C488 0.930 . S
H493 C490 0.929 . S
S494 N495 1.613 . S
S494 N496 1.610 1_554 S
N495 S494 1.613 . S
N495 C498 1.350 . S
N496 S494 1.610 1_556 S
N496 C497 1.351 . S
C497 C491 1.428 . S
C497 N496 1.351 . S
C497 C498 1.434 1_556 S
C498 C489 1.429 . S
C498 N495 1.350 . S
C498 C497 1.434 1_554 S
C499 C500 1.369 . S
C499 C501 1.419 . S
C499 H503 0.930 . S
C500 C499 1.369 . S
C500 C509 1.429 . S
C501 C499 1.419 . S
C501 C502 1.363 . S
C501 H504 0.929 . S
C502 C501 1.363 . S
C502 C508 1.428 . S
H503 C499 0.930 . S
H504 C501 0.929 . S
S505 N506 1.613 . S
S505 N507 1.610 . S
N506 S505 1.613 . S
N506 C509 1.350 . S
N507 S505 1.610 . S
N507 C508 1.351 . S
C508 C502 1.428 . S
C508 N507 1.351 . S
C508 C509 1.434 . S
C509 C500 1.429 . S
C509 N506 1.350 . S
C509 C508 1.434 . S
C510 C511 1.369 . S
C510 C512 1.419 1_554 S
C510 H514 0.930 . S
C511 C510 1.369 . S
C511 C520 1.429 . S
C512 C510 1.419 1_556 S
C512 C513 1.363 . S
C512 H515 0.929 . S
C513 C512 1.363 . S
C513 C519 1.428 . S
H514 C510 0.930 . S
H515 C512 0.929 . S
S516 N517 1.613 . S
S516 N518 1.610 1_554 S
N517 S516 1.613 . S
N517 C520 1.350 1_455 S
N518 S516 1.610 1_556 S
N518 C519 1.351 1_455 S
C519 C513 1.428 . S
C519 N518 1.351 1_655 S
C519 C520 1.434 1_556 S
C520 C511 1.429 . S
C520 N517 1.350 1_655 S
C520 C519 1.434 1_554 S
C521 C522 1.369 . S
C521 C523 1.419 . S
C521 H525 0.930 1_565 S
C522 C521 1.369 . S
C522 C531 1.429 . S
C523 C521 1.419 . S
C523 C524 1.363 . S
C523 H526 0.929 1_565 S
C524 C523 1.363 . S
C524 C530 1.428 . S
H525 C521 0.930 1_545 S
H526 C523 0.929 1_545 S
S527 N528 1.613 . S
S527 N529 1.610 . S
N528 S527 1.613 . S
N528 C531 1.350 . S
N529 S527 1.610 . S
N529 C530 1.351 . S
C530 C524 1.428 . S
C530 N529 1.351 . S
C530 C531 1.434 . S
C531 C522 1.429 . S
C531 N528 1.350 . S
C531 C530 1.434 . S
C532 C533 1.369 . S
C532 C534 1.419 1_556 S
C532 H536 0.930 . S
C533 C532 1.369 . S
C533 C542 1.429 . S
C534 C532 1.419 1_554 S
C534 C535 1.363 . S
C534 H537 0.929 . S
C535 C534 1.363 . S
C535 C541 1.428 . S
H536 C532 0.930 . S
H537 C534 0.929 . S
S538 N539 1.613 1_554 S
S538 N540 1.610 . S
N539 S538 1.613 1_556 S
N539 C542 1.350 . S
N540 S538 1.610 . S
N540 C541 1.351 . S
C541 C535 1.428 . S
C541 N540 1.351 . S
C541 C542 1.434 1_554 S
C542 C533 1.429 . S
C542 N539 1.350 . S
C542 C541 1.434 1_556 S
C543 C544 1.369 . S
C543 C545 1.419 . S
C543 H547 0.930 . S
C544 C543 1.369 . S
C544 C553 1.429 . S
C545 C543 1.419 . S
C545 C546 1.363 . S
C545 H548 0.929 . S
C546 C545 1.363 . S
C546 C552 1.428 . S
H547 C543 0.930 . S
H548 C545 0.929 . S
S549 N550 1.613 . S
S549 N551 1.610 . S
N550 S549 1.613 . S
N550 C553 1.350 . S
N551 S549 1.610 . S
N551 C552 1.351 . S
C552 C546 1.428 . S
C552 N551 1.351 . S
C552 C553 1.434 . S
C553 C544 1.429 . S
C553 N550 1.350 . S
C553 C552 1.434 . S
C554 C555 1.369 . S
C554 C556 1.419 1_554 S
C554 H558 0.930 . S
C555 C554 1.369 . S
C555 C564 1.429 1_455 S
C556 C554 1.419 1_556 S
C556 C557 1.363 . S
C556 H559 0.929 . S
C557 C556 1.363 . S
C557 C563 1.428 1_455 S
H558 C554 0.930 . S
H559 C556 0.929 . S
S560 N561 1.613 . S
S560 N562 1.610 1_554 S
N561 S560 1.613 . S
N561 C564 1.350 . S
N562 S560 1.610 1_556 S
N562 C563 1.351 . S
C563 C557 1.428 1_655 S
C563 N562 1.351 . S
C563 C564 1.434 1_556 S
C564 C555 1.429 1_655 S
C564 N561 1.350 . S
C564 C563 1.434 1_554 S
C565 C566 1.369 . S
C565 C567 1.419 . S
C565 H569 0.930 . S
C566 C565 1.369 . S
C566 C575 1.429 . S
C567 C565 1.419 . S
C567 C568 1.363 . S
C567 H570 0.929 . S
C568 C567 1.363 . S
C568 C574 1.428 . S
H569 C565 0.930 . S
H570 C567 0.929 . S
S571 N572 1.613 . S
S571 N573 1.610 . S
N572 S571 1.613 . S
N572 C575 1.350 1_565 S
N573 S571 1.610 . S
N573 C574 1.351 1_565 S
C574 C568 1.428 . S
C574 N573 1.351 1_545 S
C574 C575 1.434 . S
C575 C566 1.429 . S
C575 N572 1.350 1_545 S
C575 C574 1.434 . S
C225 C7 1.431 . S
C227 C104 1.425 . S
C236 C20 1.431 . S
C238 C63 1.425 . S
C247 C35 1.426 . S
C249 C76 1.428 . S
C258 C48 1.428 . S
C260 C91 1.426 . S
C269 C118 1.423 . S
C271 C216 1.431 . S
C280 C174 1.431 . S
C282 C132 1.424 . S
C291 C146 1.424 . S
C293 C188 1.431 . S
C302 C160 1.424 . S
C304 C202 1.430 . S
C313 C8 1.547 . S
C315 C134 1.580 . S
C324 C23 1.546 . S
C326 C148 1.578 . S
C335 C162 1.578 . S
C337 C36 1.541 . S
C346 C51 1.542 . S
C348 C120 1.580 . S
C357 C64 1.546 . S
C359 C218 1.580 . S
C368 C176 1.581 . S
C370 C79 1.545 . S
C379 C190 1.579 . S
C381 C92 1.541 . S
C390 C204 1.578 . S
C392 C107 1.546 . S
C401 C22 1.580 . S
C403 C121 1.546 . S
C412 C37 1.580 . S
C414 C135 1.545 . S
C423 C149 1.545 . S
C425 C50 1.578 . S
C434 C9 1.580 . S
C436 C163 1.545 . S
C445 C177 1.546 . S
C447 C106 1.578 . S
C456 C191 1.541 . S
C458 C65 1.580 . S
C467 C78 1.579 . S
C469 C205 1.541 . S
C478 C93 1.581 . S
C480 C219 1.542 . S
C489 C6 1.536 . S
C491 C62 1.534 . S
C500 C77 1.541 . S
C502 C21 1.541 . S
C511 C34 1.542 . S
C513 C90 1.539 . S
C522 C105 1.533 . S
C524 C49 1.535 . S
C533 C119 1.542 . S
C535 C175 1.541 . S
C544 C189 1.533 . S
C546 C133 1.534 . S
C555 C203 1.542 . S
C557 C147 1.539 . S
C566 C217 1.540 . S
C568 C161 1.541 . S
