# Generated by pormake.
# Topology wjh, (4)-cn, num edge types: 1
# Building blocks:
#     Node 0, Type 0, BuildingBlock: QUQFOY_clean_sbu_1, # of connection points: 4
#     Node 1, Type 0, BuildingBlock: QUQFOY_clean_sbu_1, # of connection points: 4
#     Node 2, Type 0, BuildingBlock: QUQFOY_clean_sbu_1, # of connection points: 4
#     Node 3, Type 0, BuildingBlock: QUQFOY_clean_sbu_1, # of connection points: 4
#     Node 4, Type 0, BuildingBlock: QUQFOY_clean_sbu_1, # of connection points: 4
#     Node 5, Type 0, BuildingBlock: QUQFOY_clean_sbu_1, # of connection points: 4
#     Node 6, Type 0, BuildingBlock: QUQFOY_clean_sbu_1, # of connection points: 4
#     Node 7, Type 0, BuildingBlock: QUQFOY_clean_sbu_1, # of connection points: 4
#     Node 8, Type 0, BuildingBlock: QUQFOY_clean_sbu_1, # of connection points: 4
#     Node 9, Type 0, BuildingBlock: QUQFOY_clean_sbu_1, # of connection points: 4
#     Node 10, Type 0, BuildingBlock: QUQFOY_clean_sbu_1, # of connection points: 4
#     Node 11, Type 0, BuildingBlock: QUQFOY_clean_sbu_1, # of connection points: 4
#     Edge 12, Type (0, 0), BuildingBlock: XIVTED_clean_linker_0, # of connection points: 2
#     Edge 13, Type (0, 0), BuildingBlock: XIVTED_clean_linker_0, # of connection points: 2
#     Edge 14, Type (0, 0), BuildingBlock: XIVTED_clean_linker_0, # of connection points: 2
#     Edge 15, Type (0, 0), BuildingBlock: XIVTED_clean_linker_0, # of connection points: 2
#     Edge 16, Type (0, 0), BuildingBlock: XIVTED_clean_linker_0, # of connection points: 2
#     Edge 17, Type (0, 0), BuildingBlock: XIVTED_clean_linker_0, # of connection points: 2
#     Edge 18, Type (0, 0), BuildingBlock: XIVTED_clean_linker_0, # of connection points: 2
#     Edge 19, Type (0, 0), BuildingBlock: XIVTED_clean_linker_0, # of connection points: 2
#     Edge 20, Type (0, 0), BuildingBlock: XIVTED_clean_linker_0, # of connection points: 2
#     Edge 21, Type (0, 0), BuildingBlock: XIVTED_clean_linker_0, # of connection points: 2
#     Edge 22, Type (0, 0), BuildingBlock: XIVTED_clean_linker_0, # of connection points: 2
#     Edge 23, Type (0, 0), BuildingBlock: XIVTED_clean_linker_0, # of connection points: 2
#     Edge 24, Type (0, 0), BuildingBlock: XIVTED_clean_linker_0, # of connection points: 2
#     Edge 25, Type (0, 0), BuildingBlock: XIVTED_clean_linker_0, # of connection points: 2
#     Edge 26, Type (0, 0), BuildingBlock: XIVTED_clean_linker_0, # of connection points: 2
#     Edge 27, Type (0, 0), BuildingBlock: XIVTED_clean_linker_0, # of connection points: 2
#     Edge 28, Type (0, 0), BuildingBlock: XIVTED_clean_linker_0, # of connection points: 2
#     Edge 29, Type (0, 0), BuildingBlock: XIVTED_clean_linker_0, # of connection points: 2
#     Edge 30, Type (0, 0), BuildingBlock: XIVTED_clean_linker_0, # of connection points: 2
#     Edge 31, Type (0, 0), BuildingBlock: XIVTED_clean_linker_0, # of connection points: 2
#     Edge 32, Type (0, 0), BuildingBlock: XIVTED_clean_linker_0, # of connection points: 2
#     Edge 33, Type (0, 0), BuildingBlock: XIVTED_clean_linker_0, # of connection points: 2
#     Edge 34, Type (0, 0), BuildingBlock: XIVTED_clean_linker_0, # of connection points: 2
#     Edge 35, Type (0, 0), BuildingBlock: XIVTED_clean_linker_0, # of connection points: 2
# Relax obj value: 0.024
# Max RMSD: 0.076
# Mean RMSD: 0.076
data_MOF--net-wjh--node1-QUQFOY_clean_sbu_1--edge1-XIVTED_clean_linker_0
_symmetry_space_group_name_H-M    P1
_symmetry_Int_Tables_number       1
_symmetry_cell_setting            triclinic
loop_
_symmetry_equiv_pos_as_xyz
'x, y, z'
_cell_length_a     63.337524
_cell_length_b     63.346578
_cell_length_c     28.424684
_cell_angle_alpha  90.012952
_cell_angle_beta   89.994402
_cell_angle_gamma 120.04462
loop_
_atom_site_label
_atom_site_type_symbol
_atom_site_fract_x
_atom_site_fract_y
_atom_site_fract_z
_atom_type_partial_charge
O0 O 0.51077 0.10194 0.0671 0.0
Cd1 Cd 0.53558 0.13894 0.06675 0.0
Cd2 Cd 0.49718 0.1386 0.10602 0.0
O3 O 0.47737 0.10388 0.07864 0.0
O4 O 0.56165 0.14319 0.02157 0.0
O5 O 0.53688 0.15769 1.00842 0.0
C6 C 0.5542 0.15418 0.99372 0.0
C7 C 0.48704 0.16897 0.10215 0.0
C8 C 0.48763 0.0915 0.06942 0.0
C9 C 0.53986 0.15131 0.16796 0.0
O10 O 0.51694 0.14245 0.16575 0.0
O11 O 0.55211 0.15432 0.13055 0.0
O12 O 0.47397 0.14935 0.12612 0.0
O13 O 0.50451 0.17024 0.07652 0.0
O14 O 0.40921 0.5108 0.22754 0.0
Cd15 Cd 0.39771 0.53609 0.22628 0.0
Cd16 Cd 0.35927 0.49822 0.26824 0.0
O17 O 0.374 0.47786 0.24298 0.0
O18 O 0.42013 0.56173 0.18104 0.0
O19 O 0.38069 0.53794 0.16764 0.0
C20 C 0.40179 0.55487 0.15313 0.0
C21 C 0.31837 0.487 0.26612 0.0
C22 C 0.39647 0.48777 0.23235 0.0
C23 C 0.39063 0.54204 0.3273 0.0
O24 O 0.37575 0.51925 0.32634 0.0
O25 O 0.4001 0.55359 0.28935 0.0
O26 O 0.32579 0.47498 0.29105 0.0
O27 O 0.33389 0.50403 0.23878 0.0
O28 O 0.89689 0.41011 0.39117 0.0
Cd29 Cd 0.86036 0.3997 0.38817 0.0
Cd30 Cd 0.85853 0.35986 0.43652 0.0
O31 O 0.89476 0.37619 0.41705 0.0
O32 O 0.8586 0.4222 0.34096 0.0
O33 O 0.84146 0.38248 0.32957 0.0
C34 C 0.84657 0.40365 0.31379 0.0
C35 C 0.83366 0.31759 0.44203 0.0
C36 C 0.90722 0.39795 0.40193 0.0
C37 C 0.84416 0.39312 0.48778 0.0
O38 O 0.84986 0.37657 0.48877 0.0
O39 O 0.84528 0.40405 0.44953 0.0
O40 O 0.85159 0.32955 0.47049 0.0
O41 O 0.83097 0.32939 0.40767 0.0
O42 O 0.4897 0.89869 0.56541 0.0
Cd43 Cd 0.46491 0.86169 0.56552 0.0
Cd44 Cd 0.50324 0.8624 0.60637 0.0
O45 O 0.52311 0.89701 0.57864 0.0
O46 O 0.43863 0.85758 0.52109 0.0
O47 O 0.46305 0.84275 0.50704 0.0
C48 C 0.44571 0.84637 0.49296 0.0
C49 C 0.51336 0.83201 0.60315 0.0
C50 C 0.51282 0.90925 0.56839 0.0
C51 C 0.46021 0.8497 0.66705 0.0
O52 O 0.48317 0.8587 0.66556 0.0
O53 O 0.44822 0.84649 0.62922 0.0
O54 O 0.52634 0.85163 0.62717 0.0
O55 O 0.49597 0.83072 0.57719 0.0
O56 O 0.59137 0.48909 0.7265 0.0
Cd57 Cd 0.60329 0.46412 0.72676 0.0
Cd58 Cd 0.64113 0.50236 0.76883 0.0
O59 O 0.62623 0.52234 0.74246 0.0
O60 O 0.58151 0.43829 0.68115 0.0
O61 O 0.621 0.4625 0.66904 0.0
C62 C 0.60013 0.44541 0.6539 0.0
C63 C 0.68198 0.51343 0.76689 0.0
C64 C 0.60384 0.51215 0.73108 0.0
C65 C 0.6099 0.45874 0.82831 0.0
O66 O 0.62457 0.48158 0.82712 0.0
O67 O 0.60072 0.44698 0.79041 0.0
O68 O 0.67465 0.52569 0.79135 0.0
O69 O 0.66641 0.49626 0.73985 0.0
O70 O 0.10341 0.59031 0.88936 0.0
Cd71 Cd 0.13991 0.60056 0.88684 0.0
Cd72 Cd 0.14169 0.64043 0.93574 0.0
O73 O 0.10551 0.62412 0.91587 0.0
O74 O 0.14169 0.57806 0.83963 0.0
O75 O 0.15906 0.61782 0.82848 0.0
C76 C 0.15389 0.59664 0.81263 0.0
C77 C 0.16634 0.6827 0.94245 0.0
C78 C 0.09308 0.60244 0.90029 0.0
C79 C 0.1558 0.60685 0.98667 0.0
O80 O 0.15023 0.62349 0.98773 0.0
O81 O 0.15469 0.59596 0.94836 0.0
O82 O 0.14831 0.67044 0.97051 0.0
O83 O 0.16928 0.67121 0.90781 0.0
O84 O 0.89939 0.49093 0.90452 0.0
Cd85 Cd 0.86227 0.46658 0.90483 0.0
Cd86 Cd 0.86333 0.50522 0.86614 0.0
O87 O 0.89808 0.52468 0.89352 0.0
O88 O 0.85751 0.4403 0.94995 0.0
O89 O 0.8437 0.46564 0.96319 0.0
C90 C 0.8468 0.44805 0.97784 0.0
C91 C 0.83263 0.5148 0.87162 0.0
C92 C 0.91017 0.51409 0.90248 0.0
C93 C 0.85 0.46271 0.80362 0.0
O94 O 0.85933 0.48569 0.80602 0.0
O95 O 0.84668 0.45032 0.84095 0.0
O96 O 0.85208 0.52822 0.84744 0.0
O97 O 0.83178 0.49734 0.89667 0.0
O98 O 0.40858 0.89793 0.08127 0.0
Cd99 Cd 0.39779 0.8613 0.08338 0.0
Cd100 Cd 0.35868 0.86041 0.03464 0.0
O101 O 0.37496 0.89644 0.05536 0.0
O102 O 0.42049 0.85926 0.12964 0.0
O103 O 0.38085 0.84222 0.14203 0.0
C104 C 0.40209 0.84716 0.1571 0.0
C105 C 0.31649 0.83515 0.0292 0.0
C106 C 0.39668 0.90858 0.07084 0.0
C107 C 0.39176 0.84606 0.9832 0.0
O108 O 0.37563 0.85233 0.98194 0.0
O109 O 0.40207 0.84638 0.02179 0.0
O110 O 0.32821 0.85336 1.00122 0.0
O111 O 0.32847 0.83242 0.06317 0.0
O112 O 0.51169 0.40987 0.24597 0.0
Cd113 Cd 0.53677 0.39807 0.2458 0.0
Cd114 Cd 0.49874 0.3602 0.20403 0.0
O115 O 0.47854 0.37492 0.23011 0.0
O116 O 0.56257 0.41985 0.29148 0.0
O117 O 0.5384 0.38034 0.30345 0.0
C118 C 0.55548 0.4012 0.31865 0.0
C119 C 0.48842 0.3196 0.20712 0.0
C120 C 0.48864 0.39732 0.24138 0.0
C121 C 0.54219 0.39137 0.14428 0.0
O122 O 0.51936 0.37665 0.14553 0.0
O123 O 0.55394 0.40062 0.18216 0.0
O124 O 0.47584 0.32642 0.18231 0.0
O125 O 0.50545 0.33555 0.2339 0.0
O126 O 0.10092 0.50921 0.40451 0.0
Cd127 Cd 0.13805 0.53352 0.40409 0.0
Cd128 Cd 0.13671 0.49478 0.36535 0.0
O129 O 0.10213 0.4754 0.39345 0.0
O130 O 0.14303 0.55994 0.44906 0.0
O131 O 0.15684 0.53459 0.46218 0.0
C132 C 0.15382 0.55222 0.47684 0.0
C133 C 0.16756 0.48542 0.37055 0.0
C134 C 0.09011 0.48604 0.40269 0.0
C135 C 0.14977 0.5371 0.3026 0.0
O136 O 0.14038 0.51411 0.30512 0.0
O137 O 0.15335 0.54958 0.3399 0.0
O138 O 0.14803 0.47183 0.34669 0.0
O139 O 0.16842 0.50294 0.39544 0.0
O140 O 0.59091 0.1027 0.58064 0.0
Cd141 Cd 0.60187 0.13936 0.58353 0.0
Cd142 Cd 0.64132 0.14058 0.53625 0.0
O143 O 0.62484 0.10441 0.55609 0.0
O144 O 0.57962 0.14163 0.63066 0.0
O145 O 0.61929 0.15816 0.64208 0.0
C146 C 0.59822 0.15343 0.65782 0.0
C147 C 0.68355 0.16581 0.53216 0.0
C148 C 0.60294 0.09214 0.57058 0.0
C149 C 0.60872 0.15525 0.48381 0.0
O150 O 0.62491 0.14905 0.48311 0.0
O151 O 0.59797 0.15463 0.52201 0.0
O152 O 0.67205 0.14777 0.50371 0.0
O153 O 0.67131 0.16836 0.56585 0.0
O154 O 0.48972 0.59092 0.74269 0.0
Cd155 Cd 0.46439 0.6024 0.74377 0.0
Cd156 Cd 0.50216 0.64077 0.70252 0.0
O157 O 0.52265 0.62623 0.72787 0.0
O158 O 0.43866 0.58001 0.7889 0.0
O159 O 0.46251 0.61943 0.80233 0.0
C160 C 0.44552 0.59835 0.8168 0.0
C161 C 0.51234 0.68133 0.70635 0.0
C162 C 0.51276 0.60373 0.73825 0.0
C163 C 0.45872 0.60966 0.6427 0.0
O164 O 0.48153 0.62448 0.64391 0.0
O165 O 0.44706 0.60018 0.68055 0.0
O166 O 0.52492 0.67465 0.68117 0.0
O167 O 0.49537 0.66524 0.73304 0.0
H168 H 0.51982 0.15183 0.25276 0.0
H169 H 0.63325 0.16644 0.40038 0.0
H170 H 0.58711 0.16415 0.18979 0.0
H171 H 0.5673 0.15737 0.46395 0.0
H172 H 0.61842 0.17026 0.32362 0.0
H173 H 0.53843 0.15806 0.3303 0.0
C174 C 0.53859 0.15599 0.25517 0.0
C175 C 0.55184 0.15717 0.21463 0.0
C176 C 0.60727 0.1677 0.35434 0.0
C177 C 0.57326 0.1643 0.30365 0.0
C178 C 0.61572 0.16552 0.39828 0.0
C179 C 0.60134 0.16125 0.43865 0.0
C180 C 0.58413 0.16541 0.35049 0.0
C181 C 0.57894 0.16052 0.43377 0.0
C182 C 0.54922 0.15961 0.29955 0.0
C183 C 0.57616 0.16291 0.22004 0.0
N184 N 0.57088 0.16225 0.39036 0.0
N185 N 0.58601 0.16602 0.26377 0.0
H186 H 0.36857 0.52468 0.4122 0.0
H187 H 0.47658 0.63142 0.55773 0.0
H188 H 0.42875 0.58781 0.34752 0.0
H189 H 0.41265 0.57213 0.62231 0.0
H190 H 0.45778 0.61752 0.48071 0.0
H191 H 0.38271 0.54344 0.48917 0.0
C192 C 0.38469 0.5426 0.41414 0.0
C193 C 0.39768 0.55457 0.37334 0.0
C194 C 0.44774 0.60766 0.5117 0.0
C195 C 0.41406 0.57613 0.46164 0.0
C196 C 0.45848 0.61555 0.55577 0.0
C197 C 0.44628 0.60273 0.59656 0.0
C198 C 0.42468 0.58665 0.5082 0.0
C199 C 0.42278 0.58249 0.59181 0.0
C200 C 0.39272 0.55333 0.45817 0.0
C201 C 0.41825 0.57787 0.37803 0.0
N202 N 0.41285 0.5749 0.54836 0.0
N203 N 0.42597 0.58777 0.42147 0.0
H204 H 0.85048 0.48328 0.71885 0.0
H205 H 0.83164 0.36832 0.57092 0.0
H206 H 0.8356 0.4151 0.78157 0.0
H207 H 0.84364 0.43538 0.50754 0.0
H208 H 0.82826 0.38349 0.64765 0.0
H209 H 0.8437 0.46464 0.64124 0.0
C210 C 0.84564 0.46432 0.71637 0.0
C211 C 0.84391 0.45082 0.75686 0.0
C212 C 0.83136 0.39482 0.61697 0.0
C213 C 0.83613 0.42935 0.66776 0.0
C214 C 0.83329 0.38617 0.57305 0.0
C215 C 0.83825 0.40075 0.53276 0.0
C216 C 0.83464 0.41835 0.62089 0.0
C217 C 0.83992 0.42357 0.53767 0.0
C218 C 0.84171 0.45367 0.67195 0.0
C219 C 0.83731 0.42626 0.75136 0.0
N220 N 0.83844 0.43181 0.58107 0.0
N221 N 0.83389 0.41638 0.7076 0.0
H222 H 0.41247 0.83568 0.68663 0.0
H223 H 0.43267 0.84266 0.96564 0.0
H224 H 0.47983 0.85045 0.75309 0.0
H225 H 0.36874 0.83653 0.89826 0.0
H226 H 0.44765 0.83879 0.8885 0.0
H227 H 0.39372 0.8295 0.7644 0.0
C228 C 0.42326 0.83743 0.71749 0.0
C229 C 0.44784 0.8439 0.71331 0.0
C230 C 0.43022 0.83804 0.89073 0.0
C231 C 0.42653 0.83686 0.80239 0.0
C232 C 0.42162 0.84014 0.93478 0.0
C233 C 0.39959 0.84025 0.93835 0.0
C234 C 0.41664 0.83598 0.85009 0.0
C235 C 0.386 0.83689 0.89714 0.0
C236 C 0.41256 0.83392 0.7619 0.0
C237 C 0.4609 0.84577 0.75459 0.0
N238 N 0.39484 0.8351 0.85475 0.0
N239 N 0.45013 0.84244 0.79736 0.0
H240 H 0.52423 0.36966 0.05933 0.0
H241 H 0.63164 0.47663 0.91326 0.0
H242 H 0.58815 0.42907 0.1237 0.0
H243 H 0.57206 0.41286 0.84887 0.0
H244 H 0.61756 0.45806 0.99037 0.0
H245 H 0.54287 0.38363 0.98223 0.0
C246 C 0.54229 0.38557 0.0573 0.0
C247 C 0.55454 0.39839 0.09807 0.0
C248 C 0.60767 0.448 0.95941 0.0
C249 C 0.57596 0.41456 1.0096 0.0
C250 C 0.61566 0.45862 0.91529 0.0
C251 C 0.60283 0.44639 0.87452 0.0
C252 C 0.58652 0.42505 0.96299 0.0
C253 C 0.58244 0.42299 0.87936 0.0
C254 C 0.55295 0.3935 0.01319 0.0
C255 C 0.57799 0.4187 0.09323 0.0
N256 N 0.57474 0.41319 0.92286 0.0
N257 N 0.58784 0.42632 0.04972 0.0
H258 H 0.14856 0.51625 0.21772 0.0
H259 H 0.16847 0.6316 0.06987 0.0
H260 H 0.16452 0.58477 0.28046 0.0
H261 H 0.15581 0.56432 1.00637 0.0
H262 H 0.17164 0.61629 0.14657 0.0
H263 H 0.15525 0.53482 0.14007 0.0
C264 C 0.15361 0.53527 0.21524 0.0
C265 C 0.1557 0.5489 0.25576 0.0
C266 C 0.16843 0.60494 0.11587 0.0
C267 C 0.16337 0.57029 0.16661 0.0
C268 C 0.16663 0.61367 0.07197 0.0
C269 C 0.16155 0.59908 0.03165 0.0
C270 C 0.16491 0.58131 0.11975 0.0
C271 C 0.15963 0.57615 0.03652 0.0
C272 C 0.15749 0.54588 0.17079 0.0
C273 C 0.16255 0.57352 0.25024 0.0
N274 N 0.16099 0.56783 0.0799 0.0
N275 N 0.16591 0.58336 0.20646 0.0
H276 H 0.523 0.30655 0.21945 0.0
H277 H 0.44652 0.17044 0.13085 0.0
H278 H 0.44872 0.27827 0.17335 0.0
H279 H 0.52243 0.21663 0.09535 0.0
H280 H 0.44534 0.20653 0.15915 0.0
H281 H 0.5215 0.26942 0.19037 0.0
C282 C 0.50618 0.29228 0.20428 0.0
C283 C 0.48593 0.29545 0.19881 0.0
C284 C 0.46212 0.20869 0.14459 0.0
C285 C 0.48422 0.25317 0.16529 0.0
C286 C 0.46278 0.18822 0.12824 0.0
C287 C 0.48457 0.19063 0.11045 0.0
C288 C 0.48357 0.23148 0.14447 0.0
C289 C 0.5052 0.21401 0.10828 0.0
C290 C 0.50547 0.2713 0.18713 0.0
C291 C 0.46472 0.2765 0.17821 0.0
N292 N 0.50432 0.2335 0.12587 0.0
N293 N 0.46436 0.25608 0.16222 0.0
H294 H 0.2774 0.44642 0.29826 0.0
H295 H 0.21495 0.52117 0.3808 0.0
H296 H 0.30462 0.52118 0.25689 0.0
H297 H 0.17024 0.44575 0.34024 0.0
H298 H 0.25097 0.5203 0.3522 0.0
H299 H 0.23984 0.44454 0.3268 0.0
C300 C 0.27528 0.46227 0.29444 0.0
C301 C 0.29403 0.48394 0.2749 0.0
C302 C 0.23327 0.5039 0.35009 0.0
C303 C 0.25185 0.48219 0.30916 0.0
C304 C 0.21278 0.50426 0.36698 0.0
C305 C 0.18959 0.48348 0.36288 0.0
C306 C 0.23062 0.48249 0.32989 0.0
C307 C 0.18781 0.46215 0.344 0.0
C308 C 0.25397 0.4612 0.31092 0.0
C309 C 0.29049 0.50404 0.2712 0.0
N310 N 0.20811 0.46217 0.32822 0.0
N311 N 0.26998 0.50281 0.28892 0.0
H312 H 0.71615 0.20222 0.59037 0.0
H313 H 0.79795 0.28405 0.38387 0.0
H314 H 0.7086 0.17298 0.45026 0.0
H315 H 0.82654 0.29335 0.52491 0.0
H316 H 0.76381 0.24412 0.40686 0.0
H317 H 0.75577 0.23694 0.56771 0.0
C318 C 0.723 0.20289 0.55516 0.0
C319 C 0.70905 0.18472 0.52216 0.0
C320 C 0.77781 0.25479 0.43247 0.0
C321 C 0.75388 0.22454 0.49575 0.0
C322 C 0.79725 0.27754 0.41938 0.0
C323 C 0.81508 0.29204 0.45251 0.0
C324 C 0.77591 0.24685 0.47926 0.0
C325 C 0.81324 0.28275 0.49817 0.0
C326 C 0.74557 0.22267 0.54225 0.0
C327 C 0.71876 0.18655 0.47689 0.0
N328 N 0.79376 0.26094 0.51045 0.0
N329 N 0.74036 0.20634 0.46474 0.0
H330 H 0.55387 0.83063 0.6322 0.0
H331 H 0.47766 0.69419 0.71927 0.0
H332 H 0.47803 0.78432 0.59626 0.0
H333 H 0.552 0.72286 0.6732 0.0
H334 H 0.47906 0.73138 0.69091 0.0
H335 H 0.55513 0.79456 0.66031 0.0
C336 C 0.53764 0.81283 0.62948 0.0
C337 C 0.51586 0.81038 0.61159 0.0
C338 C 0.49512 0.72958 0.68754 0.0
C339 C 0.51694 0.76954 0.64538 0.0
C340 C 0.49447 0.70856 0.70428 0.0
C341 C 0.51476 0.70548 0.69858 0.0
C342 C 0.51637 0.74783 0.66589 0.0
C343 C 0.53597 0.72455 0.67821 0.0
C344 C 0.53835 0.79237 0.64571 0.0
C345 C 0.49526 0.78697 0.60927 0.0
N346 N 0.53626 0.74501 0.66263 0.0
N347 N 0.49619 0.76749 0.62673 0.0
H348 H 0.72305 0.55407 0.79863 0.0
H349 H 0.78522 0.47925 0.88268 0.0
H350 H 0.69553 0.47906 0.75861 0.0
H351 H 0.83005 0.55445 0.8409 0.0
H352 H 0.7492 0.48016 0.85421 0.0
H353 H 0.76055 0.55592 0.82745 0.0
C354 C 0.72509 0.53816 0.79517 0.0
C355 C 0.70628 0.51643 0.77591 0.0
C356 C 0.76693 0.49652 0.85182 0.0
C357 C 0.74839 0.51816 0.8105 0.0
C358 C 0.78742 0.49614 0.86864 0.0
C359 C 0.81064 0.51682 0.86413 0.0
C360 C 0.76962 0.51786 0.83128 0.0
C361 C 0.81245 0.53811 0.84497 0.0
C362 C 0.74637 0.5392 0.81182 0.0
C363 C 0.70971 0.49625 0.77269 0.0
N364 N 0.79216 0.53813 0.82925 0.0
N365 N 0.73019 0.49747 0.79055 0.0
H366 H 0.17277 0.70639 0.02584 0.0
H367 H 0.29198 0.82851 0.94675 0.0
H368 H 0.20223 0.71685 0.88533 0.0
H369 H 0.2834 0.79844 0.08635 0.0
H370 H 0.25267 0.79353 0.92459 0.0
H371 H 0.20701 0.74614 0.04827 0.0
C372 C 0.18615 0.71725 0.99938 0.0
C373 C 0.18472 0.70823 0.95362 0.0
C374 C 0.25928 0.79482 0.96022 0.0
C375 C 0.22376 0.75372 0.97922 0.0
C376 C 0.28161 0.81483 0.97309 0.0
C377 C 0.29105 0.81632 0.01848 0.0
C378 C 0.24607 0.77641 0.9932 0.0
C379 C 0.27685 0.79795 0.05096 0.0
C380 C 0.20573 0.73984 0.0124 0.0
C381 C 0.2027 0.72306 0.921 0.0
N382 N 0.25504 0.77869 0.03766 0.0
N383 N 0.22154 0.74511 0.93445 0.0
H384 H 0.6301 0.16663 0.73211 0.0
H385 H 0.53505 0.16641 0.91896 0.0
H386 H 0.55861 0.15389 0.69492 0.0
H387 H 0.59497 0.15572 0.9572 0.0
H388 H 0.5481 0.17099 0.8366 0.0
H389 H 0.62192 0.17168 0.81449 0.0
C390 C 0.61285 0.16527 0.74111 0.0
C391 C 0.59494 0.15964 0.7066 0.0
C392 C 0.55853 0.16791 0.86313 0.0
C393 C 0.58549 0.16543 0.80072 0.0
C394 C 0.55118 0.16543 0.91019 0.0
C395 C 0.56382 0.16049 0.94503 0.0
C396 C 0.57882 0.16567 0.85082 0.0
C397 C 0.58456 0.15933 0.93149 0.0
C398 C 0.60814 0.16803 0.78816 0.0
C399 C 0.57287 0.15802 0.72039 0.0
N400 N 0.59134 0.16178 0.88549 0.0
N401 N 0.56874 0.1608 0.76632 0.0
H402 H 0.40454 0.55882 0.85167 0.0
H403 H 0.44134 0.59582 0.11823 0.0
H404 H 0.46406 0.62921 0.89256 0.0
H405 H 0.37097 0.53626 0.07732 0.0
H406 H 0.44953 0.60896 0.03613 0.0
H407 H 0.39133 0.55068 0.93374 0.0
C408 C 0.41467 0.5727 0.87784 0.0
C409 C 0.43553 0.59469 0.86521 0.0
C410 C 0.43216 0.59321 0.04514 0.0
C411 C 0.42069 0.5853 0.95953 0.0
C412 C 0.42747 0.58567 0.09205 0.0
C413 C 0.40547 0.56481 0.10468 0.0
C414 C 0.41492 0.57958 1.01033 0.0
C415 C 0.38817 0.55243 0.06922 0.0
C416 C 0.40709 0.56804 0.92473 0.0
C417 C 0.44788 0.61202 0.90066 0.0
N418 N 0.3934 0.55979 0.02359 0.0
N419 N 0.44048 0.60682 0.94627 0.0
H420 H 0.83503 0.46762 0.05258 0.0
H421 H 0.83293 0.37172 0.23951 0.0
H422 H 0.8445 0.40694 0.01438 0.0
H423 H 0.84691 0.44364 0.27664 0.0
H424 H 0.82813 0.38006 0.1571 0.0
H425 H 0.83023 0.45455 0.13494 0.0
C426 C 0.8357 0.45133 0.06136 0.0
C427 C 0.84037 0.43847 0.02653 0.0
C428 C 0.83199 0.3939 0.18343 0.0
C429 C 0.83492 0.42344 0.12074 0.0
C430 C 0.83461 0.38911 0.23049 0.0
C431 C 0.84051 0.40708 0.26499 0.0
C432 C 0.83501 0.41672 0.17085 0.0
C433 C 0.84256 0.42932 0.25118 0.0
C434 C 0.83309 0.44396 0.10842 0.0
C435 C 0.84111 0.41752 0.04008 0.0
N436 N 0.8399 0.43354 0.20524 0.0
N437 N 0.83855 0.41073 0.08609 0.0
H438 H 0.40432 0.84422 0.45859 0.0
H439 H 0.44195 0.84648 0.19196 0.0
H440 H 0.46447 0.83461 0.41687 0.0
H441 H 0.371 0.83404 0.23267 0.0
H442 H 0.45006 0.84113 0.27385 0.0
H443 H 0.39113 0.83938 0.37651 0.0
C444 C 0.41458 0.84077 0.43224 0.0
C445 C 0.43563 0.83996 0.44463 0.0
C446 C 0.43258 0.83925 0.26485 0.0
C447 C 0.42082 0.83479 0.35034 0.0
C448 C 0.42795 0.84234 0.21807 0.0
C449 C 0.40581 0.84085 0.20546 0.0
C450 C 0.41514 0.83504 0.29959 0.0
C451 C 0.38832 0.83536 0.2408 0.0
C452 C 0.40701 0.83798 0.38535 0.0
C453 C 0.44815 0.83537 0.40896 0.0
N454 N 0.39349 0.833 0.28635 0.0
N455 N 0.44076 0.83331 0.36337 0.0
H456 H 0.63192 0.46422 0.57957 0.0
H457 H 0.53676 0.36932 0.39284 0.0
H458 H 0.56093 0.40466 0.61733 0.0
H459 H 0.59623 0.44038 0.35525 0.0
H460 H 0.55015 0.37743 0.4751 0.0
H461 H 0.62369 0.45095 0.49726 0.0
C462 C 0.61478 0.44812 0.57072 0.0
C463 C 0.59701 0.43565 0.60536 0.0
C464 C 0.56041 0.39111 0.44871 0.0
C465 C 0.58748 0.4204 0.51127 0.0
C466 C 0.55287 0.38645 0.40172 0.0
C467 C 0.56527 0.40428 0.36714 0.0
C468 C 0.58066 0.41367 0.46117 0.0
C469 C 0.58599 0.42619 0.38078 0.0
C470 C 0.61005 0.44064 0.52369 0.0
C471 C 0.57508 0.41494 0.59175 0.0
N472 N 0.59296 0.43031 0.42669 0.0
N473 N 0.5709 0.40805 0.5458 0.0
H474 H 0.16561 0.53267 0.55154 0.0
H475 H 0.16784 0.62867 0.73848 0.0
H476 H 0.15632 0.59344 0.51333 0.0
H477 H 0.15351 0.55662 0.7755 0.0
H478 H 0.17279 0.62036 0.65611 0.0
H479 H 0.17046 0.54578 0.63389 0.0
C480 C 0.16501 0.549 0.56031 0.0
C481 C 0.16036 0.56186 0.52549 0.0
C482 C 0.16881 0.60649 0.6824 0.0
C483 C 0.16585 0.57693 0.61969 0.0
C484 C 0.16612 0.61126 0.72944 0.0
C485 C 0.16006 0.59324 0.7639 0.0
C486 C 0.16572 0.58364 0.6698 0.0
C487 C 0.15797 0.57097 0.75007 0.0
C488 C 0.16763 0.55639 0.60737 0.0
C489 C 0.15968 0.58286 0.53903 0.0
N490 N 0.1607 0.56678 0.70415 0.0
N491 N 0.16227 0.58966 0.58503 0.0
H492 H 0.43759 0.06207 0.06914 0.0
H493 H 0.44444 0.94011 0.09181 0.0
H494 H 0.50436 0.05945 0.0622 0.0
H495 H 0.37755 0.93866 0.05505 0.0
H496 H 0.46578 0.98442 0.08977 0.0
H497 H 0.41444 0.0173 0.07026 0.0
C498 C 0.44738 0.05213 0.06747 0.0
C499 C 0.47299 0.06458 0.06568 0.0
C500 C 0.44643 0.97445 0.08217 0.0
C501 C 0.44667 0.01354 0.06772 0.0
C502 C 0.43415 0.94908 0.08363 0.0
C503 C 0.40913 0.93555 0.07341 0.0
C504 C 0.43366 0.98656 0.07077 0.0
C505 C 0.39686 0.94833 0.06303 0.0
C506 C 0.43415 0.02662 0.06819 0.0
C507 C 0.48468 0.05073 0.06362 0.0
N508 N 0.40926 0.97317 0.06198 0.0
N509 N 0.47145 0.02603 0.06507 0.0
H510 H 0.50526 0.44559 0.25745 0.0
H511 H 0.37581 0.43785 0.23893 0.0
H512 H 0.43892 0.37744 0.23176 0.0
H513 H 0.44506 0.50412 0.22206 0.0
H514 H 0.39744 0.41479 0.24317 0.0
H515 H 0.48213 0.46672 0.25419 0.0
C516 C 0.48576 0.43498 0.25152 0.0
C517 C 0.47407 0.40966 0.2446 0.0
C518 C 0.4078 0.43436 0.23825 0.0
C519 C 0.44741 0.43395 0.24047 0.0
C520 C 0.39549 0.44753 0.2357 0.0
C521 C 0.40863 0.473 0.23021 0.0
C522 C 0.43338 0.44681 0.23588 0.0
C523 C 0.43412 0.48455 0.22633 0.0
C524 C 0.47258 0.44713 0.24935 0.0
C525 C 0.44871 0.39698 0.23715 0.0
N526 N 0.44562 0.47141 0.22959 0.0
N527 N 0.4362 0.40928 0.23518 0.0
H528 H 0.05991 0.43612 0.40266 0.0
H529 H 0.93941 0.44582 0.38324 0.0
H530 H 0.05883 0.50363 0.41166 0.0
H531 H 0.9366 0.37797 0.41686 0.0
H532 H 0.9837 0.46649 0.38564 0.0
H533 H 0.01513 0.41371 0.40227 0.0
C534 C 0.05031 0.44622 0.40495 0.0
C535 C 0.0632 0.47183 0.40703 0.0
C536 C 0.97343 0.44707 0.39249 0.0
C537 C 0.01213 0.44636 0.40587 0.0
C538 C 0.94808 0.43518 0.39082 0.0
C539 C 0.93418 0.41008 0.39997 0.0
C540 C 0.98516 0.43382 0.40302 0.0
C541 C 0.94657 0.39735 0.40968 0.0
C542 C 0.02478 0.43342 0.40465 0.0
C543 C 0.04977 0.48394 0.40993 0.0
N544 N 0.9714 0.40936 0.41091 0.0
N545 N 0.02505 0.47112 0.40888 0.0
H546 H 0.56281 0.93892 0.57052 0.0
H547 H 0.55478 0.06038 0.58771 0.0
H548 H 0.49594 0.94104 0.55782 0.0
H549 H 0.62251 0.0623 0.557 0.0
H550 H 0.53365 0.01608 0.58496 0.0
H551 H 0.58571 0.98368 0.57133 0.0
C552 C 0.55296 0.94874 0.5675 0.0
C553 C 0.52738 0.93615 0.56426 0.0
C554 C 0.55314 0.02615 0.57883 0.0
C555 C 0.55341 0.9872 0.56592 0.0
C556 C 0.5653 0.05151 0.5807 0.0
C557 C 0.59051 0.06516 0.57246 0.0
C558 C 0.56622 0.01418 0.56901 0.0
C559 C 0.60306 0.05252 0.56347 0.0
C560 C 0.56604 0.97426 0.56804 0.0
C561 C 0.5156 0.94986 0.56046 0.0
N562 N 0.59078 0.02769 0.56203 0.0
N563 N 0.52868 0.97458 0.56178 0.0
H564 H 0.55558 0.49536 0.7144 0.0
H565 H 0.56274 0.62455 0.73252 0.0
H566 H 0.6235 0.56183 0.74075 0.0
H567 H 0.49651 0.55515 0.74815 0.0
H568 H 0.58595 0.60306 0.72873 0.0
H569 H 0.53429 0.51833 0.71716 0.0
C570 C 0.5661 0.51485 0.72038 0.0
C571 C 0.5914 0.52663 0.72762 0.0
C572 C 0.56635 0.59264 0.73327 0.0
C573 C 0.56693 0.55311 0.73117 0.0
C574 C 0.5531 0.60486 0.73556 0.0
C575 C 0.5276 0.59165 0.74058 0.0
C576 C 0.55396 0.56706 0.73545 0.0
C577 C 0.5161 0.56616 0.74425 0.0
C578 C 0.55386 0.52795 0.72226 0.0
C579 C 0.60398 0.55198 0.73511 0.0
N580 N 0.52932 0.55474 0.74127 0.0
N581 N 0.59159 0.5644 0.7368 0.0
H582 H 0.06093 0.5548 0.87963 0.0
H583 H 0.94028 0.56403 0.90301 0.0
H584 H 0.06366 0.62227 0.91654 0.0
H585 H 0.94158 0.49657 0.90949 0.0
H586 H 0.98506 0.58653 0.90187 0.0
H587 H 0.01663 0.53408 0.88199 0.0
C588 C 0.05224 0.56535 0.88793 0.0
C589 C 0.06612 0.59035 0.89806 0.0
C590 C 0.97546 0.56682 0.90385 0.0
C591 C 0.01514 0.56654 0.90105 0.0
C592 C 0.94993 0.55396 0.90457 0.0
C593 C 0.93711 0.52834 0.90623 0.0
C594 C 0.98816 0.55393 0.90417 0.0
C595 C 0.95059 0.51628 0.90816 0.0
C596 C 0.02688 0.55343 0.88956 0.0
C597 C 0.0537 0.60297 0.9086 0.0
N598 N 0.97531 0.52915 0.90671 0.0
N599 N 0.02887 0.59092 0.90982 0.0
loop_
_geom_bond_atom_site_label_1
_geom_bond_atom_site_label_2
_geom_bond_distance
_geom_bond_site_symmetry_2
_ccdc_geom_bond_type
O0 Cd1 2.223 . S
O0 C8 1.315 . S
Cd1 O0 2.223 . S
Cd1 O4 2.297 1_554 S
Cd1 O5 2.439 1_554 S
Cd1 O11 2.240 . S
Cd2 O3 2.240 . S
Cd2 O10 2.223 . S
Cd2 O12 2.297 . S
Cd2 O13 2.439 . S
O3 Cd2 2.240 . S
O3 C8 1.279 . S
O4 Cd1 2.297 1_556 S
O4 C6 1.247 . S
O5 Cd1 2.439 1_556 S
O5 C6 1.208 . S
C6 O4 1.247 . S
C6 O5 1.208 . S
C7 O12 1.247 . S
C7 O13 1.208 . S
C8 O0 1.315 . S
C8 O3 1.279 . S
C9 O10 1.315 . S
C9 O11 1.279 . S
O10 Cd2 2.223 . S
O10 C9 1.315 . S
O11 Cd1 2.240 . S
O11 C9 1.279 . S
O12 Cd2 2.297 . S
O12 C7 1.247 . S
O13 Cd2 2.439 . S
O13 C7 1.208 . S
O14 Cd15 2.223 . S
O14 C22 1.315 . S
Cd15 O14 2.223 . S
Cd15 O18 2.297 . S
Cd15 O19 2.439 . S
Cd15 O25 2.240 . S
Cd16 O17 2.240 . S
Cd16 O24 2.223 . S
Cd16 O26 2.297 . S
Cd16 O27 2.439 . S
O17 Cd16 2.240 . S
O17 C22 1.279 . S
O18 Cd15 2.297 . S
O18 C20 1.247 . S
O19 Cd15 2.439 . S
O19 C20 1.208 . S
C20 O18 1.247 . S
C20 O19 1.208 . S
C21 O26 1.247 . S
C21 O27 1.208 . S
C22 O14 1.315 . S
C22 O17 1.279 . S
C23 O24 1.315 . S
C23 O25 1.279 . S
O24 Cd16 2.223 . S
O24 C23 1.315 . S
O25 Cd15 2.240 . S
O25 C23 1.279 . S
O26 Cd16 2.297 . S
O26 C21 1.247 . S
O27 Cd16 2.439 . S
O27 C21 1.208 . S
O28 Cd29 2.223 . S
O28 C36 1.315 . S
Cd29 O28 2.223 . S
Cd29 O32 2.297 . S
Cd29 O33 2.439 . S
Cd29 O39 2.240 . S
Cd30 O31 2.240 . S
Cd30 O38 2.223 . S
Cd30 O40 2.297 . S
Cd30 O41 2.439 . S
O31 Cd30 2.240 . S
O31 C36 1.279 . S
O32 Cd29 2.297 . S
O32 C34 1.247 . S
O33 Cd29 2.439 . S
O33 C34 1.208 . S
C34 O32 1.247 . S
C34 O33 1.208 . S
C35 O40 1.247 . S
C35 O41 1.208 . S
C36 O28 1.315 . S
C36 O31 1.279 . S
C37 O38 1.315 . S
C37 O39 1.279 . S
O38 Cd30 2.223 . S
O38 C37 1.315 . S
O39 Cd29 2.240 . S
O39 C37 1.279 . S
O40 Cd30 2.297 . S
O40 C35 1.247 . S
O41 Cd30 2.439 . S
O41 C35 1.208 . S
O42 Cd43 2.223 . S
O42 C50 1.315 . S
Cd43 O42 2.223 . S
Cd43 O46 2.297 . S
Cd43 O47 2.439 . S
Cd43 O53 2.240 . S
Cd44 O45 2.240 . S
Cd44 O52 2.223 . S
Cd44 O54 2.297 . S
Cd44 O55 2.439 . S
O45 Cd44 2.240 . S
O45 C50 1.279 . S
O46 Cd43 2.297 . S
O46 C48 1.247 . S
O47 Cd43 2.439 . S
O47 C48 1.208 . S
C48 O46 1.247 . S
C48 O47 1.208 . S
C49 O54 1.247 . S
C49 O55 1.208 . S
C50 O42 1.315 . S
C50 O45 1.279 . S
C51 O52 1.315 . S
C51 O53 1.279 . S
O52 Cd44 2.223 . S
O52 C51 1.315 . S
O53 Cd43 2.240 . S
O53 C51 1.279 . S
O54 Cd44 2.297 . S
O54 C49 1.247 . S
O55 Cd44 2.439 . S
O55 C49 1.208 . S
O56 Cd57 2.223 . S
O56 C64 1.315 . S
Cd57 O56 2.223 . S
Cd57 O60 2.297 . S
Cd57 O61 2.439 . S
Cd57 O67 2.240 . S
Cd58 O59 2.240 . S
Cd58 O66 2.223 . S
Cd58 O68 2.297 . S
Cd58 O69 2.439 . S
O59 Cd58 2.240 . S
O59 C64 1.279 . S
O60 Cd57 2.297 . S
O60 C62 1.247 . S
O61 Cd57 2.439 . S
O61 C62 1.208 . S
C62 O60 1.247 . S
C62 O61 1.208 . S
C63 O68 1.247 . S
C63 O69 1.208 . S
C64 O56 1.315 . S
C64 O59 1.279 . S
C65 O66 1.315 . S
C65 O67 1.279 . S
O66 Cd58 2.223 . S
O66 C65 1.315 . S
O67 Cd57 2.240 . S
O67 C65 1.279 . S
O68 Cd58 2.297 . S
O68 C63 1.247 . S
O69 Cd58 2.439 . S
O69 C63 1.208 . S
O70 Cd71 2.223 . S
O70 C78 1.315 . S
Cd71 O70 2.223 . S
Cd71 O74 2.297 . S
Cd71 O75 2.439 . S
Cd71 O81 2.240 . S
Cd72 O73 2.240 . S
Cd72 O80 2.223 . S
Cd72 O82 2.297 . S
Cd72 O83 2.439 . S
O73 Cd72 2.240 . S
O73 C78 1.279 . S
O74 Cd71 2.297 . S
O74 C76 1.247 . S
O75 Cd71 2.439 . S
O75 C76 1.208 . S
C76 O74 1.247 . S
C76 O75 1.208 . S
C77 O82 1.247 . S
C77 O83 1.208 . S
C78 O70 1.315 . S
C78 O73 1.279 . S
C79 O80 1.315 . S
C79 O81 1.279 . S
O80 Cd72 2.223 . S
O80 C79 1.315 . S
O81 Cd71 2.240 . S
O81 C79 1.279 . S
O82 Cd72 2.297 . S
O82 C77 1.247 . S
O83 Cd72 2.439 . S
O83 C77 1.208 . S
O84 Cd85 2.223 . S
O84 C92 1.315 . S
Cd85 O84 2.223 . S
Cd85 O88 2.297 . S
Cd85 O89 2.439 . S
Cd85 O95 2.240 . S
Cd86 O87 2.240 . S
Cd86 O94 2.223 . S
Cd86 O96 2.297 . S
Cd86 O97 2.439 . S
O87 Cd86 2.240 . S
O87 C92 1.279 . S
O88 Cd85 2.297 . S
O88 C90 1.247 . S
O89 Cd85 2.439 . S
O89 C90 1.208 . S
C90 O88 1.247 . S
C90 O89 1.208 . S
C91 O96 1.247 . S
C91 O97 1.208 . S
C92 O84 1.315 . S
C92 O87 1.279 . S
C93 O94 1.315 . S
C93 O95 1.279 . S
O94 Cd86 2.223 . S
O94 C93 1.315 . S
O95 Cd85 2.240 . S
O95 C93 1.279 . S
O96 Cd86 2.297 . S
O96 C91 1.247 . S
O97 Cd86 2.439 . S
O97 C91 1.208 . S
O98 Cd99 2.223 . S
O98 C106 1.315 . S
Cd99 O98 2.223 . S
Cd99 O102 2.297 . S
Cd99 O103 2.439 . S
Cd99 O109 2.235 1_554 S
Cd100 O101 2.240 . S
Cd100 O108 2.223 1_554 S
Cd100 O110 2.297 1_554 S
Cd100 O111 2.439 . S
O101 Cd100 2.240 . S
O101 C106 1.279 . S
O102 Cd99 2.297 . S
O102 C104 1.247 . S
O103 Cd99 2.439 . S
O103 C104 1.208 . S
C104 O102 1.247 . S
C104 O103 1.208 . S
C105 O110 1.247 1_554 S
C105 O111 1.208 . S
C106 O98 1.315 . S
C106 O101 1.279 . S
C107 O108 1.315 . S
C107 O109 1.284 . S
O108 Cd100 2.223 1_556 S
O108 C107 1.315 . S
O109 Cd99 2.235 1_556 S
O109 C107 1.284 . S
O110 Cd100 2.297 1_556 S
O110 C105 1.247 1_556 S
O111 Cd100 2.439 . S
O111 C105 1.208 . S
O112 Cd113 2.223 . S
O112 C120 1.315 . S
Cd113 O112 2.223 . S
Cd113 O116 2.297 . S
Cd113 O117 2.439 . S
Cd113 O123 2.240 . S
Cd114 O115 2.240 . S
Cd114 O122 2.223 . S
Cd114 O124 2.297 . S
Cd114 O125 2.439 . S
O115 Cd114 2.240 . S
O115 C120 1.279 . S
O116 Cd113 2.297 . S
O116 C118 1.247 . S
O117 Cd113 2.439 . S
O117 C118 1.208 . S
C118 O116 1.247 . S
C118 O117 1.208 . S
C119 O124 1.247 . S
C119 O125 1.208 . S
C120 O112 1.315 . S
C120 O115 1.279 . S
C121 O122 1.315 . S
C121 O123 1.279 . S
O122 Cd114 2.223 . S
O122 C121 1.315 . S
O123 Cd113 2.240 . S
O123 C121 1.279 . S
O124 Cd114 2.297 . S
O124 C119 1.247 . S
O125 Cd114 2.439 . S
O125 C119 1.208 . S
O126 Cd127 2.223 . S
O126 C134 1.315 . S
Cd127 O126 2.223 . S
Cd127 O130 2.297 . S
Cd127 O131 2.439 . S
Cd127 O137 2.240 . S
Cd128 O129 2.240 . S
Cd128 O136 2.223 . S
Cd128 O138 2.297 . S
Cd128 O139 2.439 . S
O129 Cd128 2.240 . S
O129 C134 1.279 . S
O130 Cd127 2.297 . S
O130 C132 1.247 . S
O131 Cd127 2.439 . S
O131 C132 1.208 . S
C132 O130 1.247 . S
C132 O131 1.208 . S
C133 O138 1.247 . S
C133 O139 1.208 . S
C134 O126 1.315 . S
C134 O129 1.279 . S
C135 O136 1.315 . S
C135 O137 1.279 . S
O136 Cd128 2.223 . S
O136 C135 1.315 . S
O137 Cd127 2.240 . S
O137 C135 1.279 . S
O138 Cd128 2.297 . S
O138 C133 1.247 . S
O139 Cd128 2.439 . S
O139 C133 1.208 . S
O140 Cd141 2.223 . S
O140 C148 1.315 . S
Cd141 O140 2.223 . S
Cd141 O144 2.297 . S
Cd141 O145 2.439 . S
Cd141 O151 2.240 . S
Cd142 O143 2.240 . S
Cd142 O150 2.223 . S
Cd142 O152 2.297 . S
Cd142 O153 2.439 . S
O143 Cd142 2.240 . S
O143 C148 1.279 . S
O144 Cd141 2.297 . S
O144 C146 1.247 . S
O145 Cd141 2.439 . S
O145 C146 1.208 . S
C146 O144 1.247 . S
C146 O145 1.208 . S
C147 O152 1.247 . S
C147 O153 1.208 . S
C148 O140 1.315 . S
C148 O143 1.279 . S
C149 O150 1.315 . S
C149 O151 1.279 . S
O150 Cd142 2.223 . S
O150 C149 1.315 . S
O151 Cd141 2.240 . S
O151 C149 1.279 . S
O152 Cd142 2.297 . S
O152 C147 1.247 . S
O153 Cd142 2.439 . S
O153 C147 1.208 . S
O154 Cd155 2.223 . S
O154 C162 1.315 . S
Cd155 O154 2.223 . S
Cd155 O158 2.297 . S
Cd155 O159 2.439 . S
Cd155 O165 2.240 . S
Cd156 O157 2.240 . S
Cd156 O164 2.223 . S
Cd156 O166 2.297 . S
Cd156 O167 2.439 . S
O157 Cd156 2.240 . S
O157 C162 1.279 . S
O158 Cd155 2.297 . S
O158 C160 1.247 . S
O159 Cd155 2.439 . S
O159 C160 1.208 . S
C160 O158 1.247 . S
C160 O159 1.208 . S
C161 O166 1.247 . S
C161 O167 1.208 . S
C162 O154 1.315 . S
C162 O157 1.279 . S
C163 O164 1.315 . S
C163 O165 1.279 . S
O164 Cd156 2.223 . S
O164 C163 1.315 . S
O165 Cd155 2.240 . S
O165 C163 1.279 . S
O166 Cd156 2.297 . S
O166 C161 1.247 . S
O167 Cd156 2.439 . S
O167 C161 1.208 . S
H168 C174 0.930 . S
H169 C178 0.930 . S
H170 C183 0.929 . S
H171 C181 0.929 . S
H172 C176 0.929 . S
H173 C182 0.929 . S
C174 H168 0.930 . S
C174 C175 1.367 . S
C174 C182 1.378 . S
C175 C174 1.367 . S
C175 C183 1.433 . S
C176 H172 0.929 . S
C176 C178 1.378 . S
C176 C180 1.350 . S
C177 C180 1.463 . S
C177 C182 1.350 . S
C177 N185 1.427 . S
C178 H169 0.930 . S
C178 C176 1.378 . S
C178 C179 1.367 . S
C179 C178 1.367 . S
C179 C181 1.433 . S
C180 C176 1.350 . S
C180 C177 1.463 . S
C180 N184 1.427 . S
C181 H171 0.929 . S
C181 C179 1.433 . S
C181 N184 1.384 . S
C182 H173 0.929 . S
C182 C174 1.378 . S
C182 C177 1.350 . S
C183 H170 0.929 . S
C183 C175 1.433 . S
C183 N185 1.384 . S
N184 C180 1.427 . S
N184 C181 1.384 . S
N185 C177 1.427 . S
N185 C183 1.384 . S
H186 C192 0.930 . S
H187 C196 0.930 . S
H188 C201 0.929 . S
H189 C199 0.929 . S
H190 C194 0.929 . S
H191 C200 0.929 . S
C192 H186 0.930 . S
C192 C193 1.367 . S
C192 C200 1.378 . S
C193 C192 1.367 . S
C193 C201 1.433 . S
C194 H190 0.929 . S
C194 C196 1.378 . S
C194 C198 1.350 . S
C195 C198 1.463 . S
C195 C200 1.350 . S
C195 N203 1.427 . S
C196 H187 0.930 . S
C196 C194 1.378 . S
C196 C197 1.367 . S
C197 C196 1.367 . S
C197 C199 1.433 . S
C198 C194 1.350 . S
C198 C195 1.463 . S
C198 N202 1.427 . S
C199 H189 0.929 . S
C199 C197 1.433 . S
C199 N202 1.384 . S
C200 H191 0.929 . S
C200 C192 1.378 . S
C200 C195 1.350 . S
C201 H188 0.929 . S
C201 C193 1.433 . S
C201 N203 1.384 . S
N202 C198 1.427 . S
N202 C199 1.384 . S
N203 C195 1.427 . S
N203 C201 1.384 . S
H204 C210 0.930 . S
H205 C214 0.930 . S
H206 C219 0.929 . S
H207 C217 0.929 . S
H208 C212 0.929 . S
H209 C218 0.929 . S
C210 H204 0.930 . S
C210 C211 1.367 . S
C210 C218 1.378 . S
C211 C210 1.367 . S
C211 C219 1.433 . S
C212 H208 0.929 . S
C212 C214 1.378 . S
C212 C216 1.350 . S
C213 C216 1.463 . S
C213 C218 1.350 . S
C213 N221 1.427 . S
C214 H205 0.930 . S
C214 C212 1.378 . S
C214 C215 1.367 . S
C215 C214 1.367 . S
C215 C217 1.433 . S
C216 C212 1.350 . S
C216 C213 1.463 . S
C216 N220 1.427 . S
C217 H207 0.929 . S
C217 C215 1.433 . S
C217 N220 1.384 . S
C218 H209 0.929 . S
C218 C210 1.378 . S
C218 C213 1.350 . S
C219 H206 0.929 . S
C219 C211 1.433 . S
C219 N221 1.384 . S
N220 C216 1.427 . S
N220 C217 1.384 . S
N221 C213 1.427 . S
N221 C219 1.384 . S
H222 C228 0.930 . S
H223 C232 0.930 . S
H224 C237 0.929 . S
H225 C235 0.929 . S
H226 C230 0.929 . S
H227 C236 0.929 . S
C228 H222 0.930 . S
C228 C229 1.367 . S
C228 C236 1.378 . S
C229 C228 1.367 . S
C229 C237 1.433 . S
C230 H226 0.929 . S
C230 C232 1.378 . S
C230 C234 1.350 . S
C231 C234 1.463 . S
C231 C236 1.350 . S
C231 N239 1.427 . S
C232 H223 0.930 . S
C232 C230 1.378 . S
C232 C233 1.367 . S
C233 C232 1.367 . S
C233 C235 1.433 . S
C234 C230 1.350 . S
C234 C231 1.463 . S
C234 N238 1.427 . S
C235 H225 0.929 . S
C235 C233 1.433 . S
C235 N238 1.384 . S
C236 H227 0.929 . S
C236 C228 1.378 . S
C236 C231 1.350 . S
C237 H224 0.929 . S
C237 C229 1.433 . S
C237 N239 1.384 . S
N238 C234 1.427 . S
N238 C235 1.384 . S
N239 C231 1.427 . S
N239 C237 1.384 . S
H240 C246 0.930 . S
H241 C250 0.930 . S
H242 C255 0.929 . S
H243 C253 0.929 . S
H244 C248 0.929 . S
H245 C254 0.921 1_556 S
C246 H240 0.930 . S
C246 C247 1.367 . S
C246 C254 1.386 . S
C247 C246 1.367 . S
C247 C255 1.433 . S
C248 H244 0.929 . S
C248 C250 1.378 . S
C248 C252 1.350 . S
C249 C252 1.463 . S
C249 C254 1.349 1_556 S
C249 N257 1.427 1_556 S
C250 H241 0.930 . S
C250 C248 1.378 . S
C250 C251 1.367 . S
C251 C250 1.367 . S
C251 C253 1.433 . S
C252 C248 1.350 . S
C252 C249 1.463 . S
C252 N256 1.427 . S
C253 H243 0.929 . S
C253 C251 1.433 . S
C253 N256 1.384 . S
C254 H245 0.921 1_554 S
C254 C246 1.386 . S
C254 C249 1.349 1_554 S
C255 H242 0.929 . S
C255 C247 1.433 . S
C255 N257 1.384 . S
N256 C252 1.427 . S
N256 C253 1.384 . S
N257 C249 1.427 1_554 S
N257 C255 1.384 . S
H258 C264 0.930 . S
H259 C268 0.930 . S
H260 C273 0.929 . S
H261 C271 0.929 . S
H262 C266 0.929 . S
H263 C272 0.929 . S
C264 H258 0.930 . S
C264 C265 1.367 . S
C264 C272 1.378 . S
C265 C264 1.367 . S
C265 C273 1.433 . S
C266 H262 0.929 . S
C266 C268 1.378 . S
C266 C270 1.350 . S
C267 C270 1.463 . S
C267 C272 1.350 . S
C267 N275 1.427 . S
C268 H259 0.930 . S
C268 C266 1.378 . S
C268 C269 1.367 . S
C269 C268 1.367 . S
C269 C271 1.433 . S
C270 C266 1.350 . S
C270 C267 1.463 . S
C270 N274 1.427 . S
C271 H261 0.929 . S
C271 C269 1.433 . S
C271 N274 1.384 . S
C272 H263 0.929 . S
C272 C264 1.378 . S
C272 C267 1.350 . S
C273 H260 0.929 . S
C273 C265 1.433 . S
C273 N275 1.384 . S
N274 C270 1.427 . S
N274 C271 1.384 . S
N275 C267 1.427 . S
N275 C273 1.384 . S
H276 C282 0.930 . S
H277 C286 0.930 . S
H278 C291 0.929 . S
H279 C289 0.929 . S
H280 C284 0.929 . S
H281 C290 0.929 . S
C282 H276 0.930 . S
C282 C283 1.367 . S
C282 C290 1.378 . S
C283 C282 1.367 . S
C283 C291 1.433 . S
C284 H280 0.929 . S
C284 C286 1.378 . S
C284 C288 1.350 . S
C285 C288 1.463 . S
C285 C290 1.350 . S
C285 N293 1.427 . S
C286 H277 0.930 . S
C286 C284 1.378 . S
C286 C287 1.367 . S
C287 C286 1.367 . S
C287 C289 1.433 . S
C288 C284 1.350 . S
C288 C285 1.463 . S
C288 N292 1.427 . S
C289 H279 0.929 . S
C289 C287 1.433 . S
C289 N292 1.384 . S
C290 H281 0.929 . S
C290 C282 1.378 . S
C290 C285 1.350 . S
C291 H278 0.929 . S
C291 C283 1.433 . S
C291 N293 1.384 . S
N292 C288 1.427 . S
N292 C289 1.384 . S
N293 C285 1.427 . S
N293 C291 1.384 . S
H294 C300 0.930 . S
H295 C304 0.930 . S
H296 C309 0.929 . S
H297 C307 0.929 . S
H298 C302 0.929 . S
H299 C308 0.929 . S
C300 H294 0.930 . S
C300 C301 1.367 . S
C300 C308 1.378 . S
C301 C300 1.367 . S
C301 C309 1.433 . S
C302 H298 0.929 . S
C302 C304 1.378 . S
C302 C306 1.350 . S
C303 C306 1.463 . S
C303 C308 1.350 . S
C303 N311 1.427 . S
C304 H295 0.930 . S
C304 C302 1.378 . S
C304 C305 1.367 . S
C305 C304 1.367 . S
C305 C307 1.433 . S
C306 C302 1.350 . S
C306 C303 1.463 . S
C306 N310 1.427 . S
C307 H297 0.929 . S
C307 C305 1.433 . S
C307 N310 1.384 . S
C308 H299 0.929 . S
C308 C300 1.378 . S
C308 C303 1.350 . S
C309 H296 0.929 . S
C309 C301 1.433 . S
C309 N311 1.384 . S
N310 C306 1.427 . S
N310 C307 1.384 . S
N311 C303 1.427 . S
N311 C309 1.384 . S
H312 C318 0.930 . S
H313 C322 0.930 . S
H314 C327 0.929 . S
H315 C325 0.929 . S
H316 C320 0.929 . S
H317 C326 0.929 . S
C318 H312 0.930 . S
C318 C319 1.367 . S
C318 C326 1.378 . S
C319 C318 1.367 . S
C319 C327 1.433 . S
C320 H316 0.929 . S
C320 C322 1.378 . S
C320 C324 1.350 . S
C321 C324 1.463 . S
C321 C326 1.350 . S
C321 N329 1.427 . S
C322 H313 0.930 . S
C322 C320 1.378 . S
C322 C323 1.367 . S
C323 C322 1.367 . S
C323 C325 1.433 . S
C324 C320 1.350 . S
C324 C321 1.463 . S
C324 N328 1.427 . S
C325 H315 0.929 . S
C325 C323 1.433 . S
C325 N328 1.384 . S
C326 H317 0.929 . S
C326 C318 1.378 . S
C326 C321 1.350 . S
C327 H314 0.929 . S
C327 C319 1.433 . S
C327 N329 1.384 . S
N328 C324 1.427 . S
N328 C325 1.384 . S
N329 C321 1.427 . S
N329 C327 1.384 . S
H330 C336 0.930 . S
H331 C340 0.930 . S
H332 C345 0.929 . S
H333 C343 0.929 . S
H334 C338 0.929 . S
H335 C344 0.929 . S
C336 H330 0.930 . S
C336 C337 1.367 . S
C336 C344 1.378 . S
C337 C336 1.367 . S
C337 C345 1.433 . S
C338 H334 0.929 . S
C338 C340 1.378 . S
C338 C342 1.350 . S
C339 C342 1.463 . S
C339 C344 1.350 . S
C339 N347 1.427 . S
C340 H331 0.930 . S
C340 C338 1.378 . S
C340 C341 1.367 . S
C341 C340 1.367 . S
C341 C343 1.433 . S
C342 C338 1.350 . S
C342 C339 1.463 . S
C342 N346 1.427 . S
C343 H333 0.929 . S
C343 C341 1.433 . S
C343 N346 1.384 . S
C344 H335 0.929 . S
C344 C336 1.378 . S
C344 C339 1.350 . S
C345 H332 0.929 . S
C345 C337 1.433 . S
C345 N347 1.384 . S
N346 C342 1.427 . S
N346 C343 1.384 . S
N347 C339 1.427 . S
N347 C345 1.384 . S
H348 C354 0.930 . S
H349 C358 0.930 . S
H350 C363 0.929 . S
H351 C361 0.929 . S
H352 C356 0.929 . S
H353 C362 0.929 . S
C354 H348 0.930 . S
C354 C355 1.367 . S
C354 C362 1.378 . S
C355 C354 1.367 . S
C355 C363 1.433 . S
C356 H352 0.929 . S
C356 C358 1.378 . S
C356 C360 1.350 . S
C357 C360 1.463 . S
C357 C362 1.350 . S
C357 N365 1.427 . S
C358 H349 0.930 . S
C358 C356 1.378 . S
C358 C359 1.367 . S
C359 C358 1.367 . S
C359 C361 1.433 . S
C360 C356 1.350 . S
C360 C357 1.463 . S
C360 N364 1.427 . S
C361 H351 0.929 . S
C361 C359 1.433 . S
C361 N364 1.384 . S
C362 H353 0.929 . S
C362 C354 1.378 . S
C362 C357 1.350 . S
C363 H350 0.929 . S
C363 C355 1.433 . S
C363 N365 1.384 . S
N364 C360 1.427 . S
N364 C361 1.384 . S
N365 C357 1.427 . S
N365 C363 1.384 . S
H366 C372 0.930 1_554 S
H367 C376 0.930 . S
H368 C381 0.929 . S
H369 C379 0.929 . S
H370 C374 0.929 . S
H371 C380 0.929 1_554 S
C372 H366 0.930 1_556 S
C372 C373 1.367 . S
C372 C380 1.378 . S
C373 C372 1.367 . S
C373 C381 1.433 . S
C374 H370 0.929 . S
C374 C376 1.378 . S
C374 C378 1.350 . S
C375 C378 1.463 . S
C375 C380 1.350 . S
C375 N383 1.427 . S
C376 H367 0.930 . S
C376 C374 1.378 . S
C376 C377 1.367 1_556 S
C377 C376 1.367 1_554 S
C377 C379 1.433 . S
C378 C374 1.350 . S
C378 C375 1.463 . S
C378 N382 1.427 1_556 S
C379 H369 0.929 . S
C379 C377 1.433 . S
C379 N382 1.384 . S
C380 H371 0.929 1_556 S
C380 C372 1.378 . S
C380 C375 1.350 . S
C381 H368 0.929 . S
C381 C373 1.433 . S
C381 N383 1.384 . S
N382 C378 1.427 1_554 S
N382 C379 1.384 . S
N383 C375 1.427 . S
N383 C381 1.384 . S
H384 C390 0.930 . S
H385 C394 0.930 . S
H386 C399 0.929 . S
H387 C397 0.929 . S
H388 C392 0.929 . S
H389 C398 0.929 . S
C390 H384 0.930 . S
C390 C391 1.367 . S
C390 C398 1.378 . S
C391 C390 1.367 . S
C391 C399 1.433 . S
C392 H388 0.929 . S
C392 C394 1.378 . S
C392 C396 1.350 . S
C393 C396 1.463 . S
C393 C398 1.350 . S
C393 N401 1.427 . S
C394 H385 0.930 . S
C394 C392 1.378 . S
C394 C395 1.367 . S
C395 C394 1.367 . S
C395 C397 1.433 . S
C396 C392 1.350 . S
C396 C393 1.463 . S
C396 N400 1.427 . S
C397 H387 0.929 . S
C397 C395 1.433 . S
C397 N400 1.384 . S
C398 H389 0.929 . S
C398 C390 1.378 . S
C398 C393 1.350 . S
C399 H386 0.929 . S
C399 C391 1.433 . S
C399 N401 1.384 . S
N400 C396 1.427 . S
N400 C397 1.384 . S
N401 C393 1.427 . S
N401 C399 1.384 . S
H402 C408 0.930 . S
H403 C412 0.930 . S
H404 C417 0.929 . S
H405 C415 0.929 . S
H406 C410 0.929 . S
H407 C416 0.929 . S
C408 H402 0.930 . S
C408 C409 1.367 . S
C408 C416 1.378 . S
C409 C408 1.367 . S
C409 C417 1.433 . S
C410 H406 0.929 . S
C410 C412 1.378 . S
C410 C414 1.350 1_554 S
C411 C414 1.463 . S
C411 C416 1.350 . S
C411 N419 1.427 . S
C412 H403 0.930 . S
C412 C410 1.378 . S
C412 C413 1.367 . S
C413 C412 1.367 . S
C413 C415 1.433 . S
C414 C410 1.350 1_556 S
C414 C411 1.463 . S
C414 N418 1.427 1_556 S
C415 H405 0.929 . S
C415 C413 1.433 . S
C415 N418 1.384 . S
C416 H407 0.929 . S
C416 C408 1.378 . S
C416 C411 1.350 . S
C417 H404 0.929 . S
C417 C409 1.433 . S
C417 N419 1.384 . S
N418 C414 1.427 1_554 S
N418 C415 1.384 . S
N419 C411 1.427 . S
N419 C417 1.384 . S
H420 C426 0.930 . S
H421 C430 0.930 . S
H422 C435 0.929 . S
H423 C433 0.929 . S
H424 C428 0.929 . S
H425 C434 0.929 . S
C426 H420 0.930 . S
C426 C427 1.367 . S
C426 C434 1.378 . S
C427 C426 1.367 . S
C427 C435 1.433 . S
C428 H424 0.929 . S
C428 C430 1.378 . S
C428 C432 1.350 . S
C429 C432 1.463 . S
C429 C434 1.350 . S
C429 N437 1.427 . S
C430 H421 0.930 . S
C430 C428 1.378 . S
C430 C431 1.367 . S
C431 C430 1.367 . S
C431 C433 1.433 . S
C432 C428 1.350 . S
C432 C429 1.463 . S
C432 N436 1.427 . S
C433 H423 0.929 . S
C433 C431 1.433 . S
C433 N436 1.384 . S
C434 H425 0.929 . S
C434 C426 1.378 . S
C434 C429 1.350 . S
C435 H422 0.929 . S
C435 C427 1.433 . S
C435 N437 1.384 . S
N436 C432 1.427 . S
N436 C433 1.384 . S
N437 C429 1.427 . S
N437 C435 1.384 . S
H438 C444 0.930 . S
H439 C448 0.930 . S
H440 C453 0.929 . S
H441 C451 0.929 . S
H442 C446 0.929 . S
H443 C452 0.929 . S
C444 H438 0.930 . S
C444 C445 1.367 . S
C444 C452 1.378 . S
C445 C444 1.367 . S
C445 C453 1.433 . S
C446 H442 0.929 . S
C446 C448 1.378 . S
C446 C450 1.350 . S
C447 C450 1.463 . S
C447 C452 1.350 . S
C447 N455 1.427 . S
C448 H439 0.930 . S
C448 C446 1.378 . S
C448 C449 1.367 . S
C449 C448 1.367 . S
C449 C451 1.433 . S
C450 C446 1.350 . S
C450 C447 1.463 . S
C450 N454 1.427 . S
C451 H441 0.929 . S
C451 C449 1.433 . S
C451 N454 1.384 . S
C452 H443 0.929 . S
C452 C444 1.378 . S
C452 C447 1.350 . S
C453 H440 0.929 . S
C453 C445 1.433 . S
C453 N455 1.384 . S
N454 C450 1.427 . S
N454 C451 1.384 . S
N455 C447 1.427 . S
N455 C453 1.384 . S
H456 C462 0.930 . S
H457 C466 0.930 . S
H458 C471 0.929 . S
H459 C469 0.929 . S
H460 C464 0.929 . S
H461 C470 0.929 . S
C462 H456 0.930 . S
C462 C463 1.367 . S
C462 C470 1.378 . S
C463 C462 1.367 . S
C463 C471 1.433 . S
C464 H460 0.929 . S
C464 C466 1.378 . S
C464 C468 1.350 . S
C465 C468 1.463 . S
C465 C470 1.350 . S
C465 N473 1.427 . S
C466 H457 0.930 . S
C466 C464 1.378 . S
C466 C467 1.367 . S
C467 C466 1.367 . S
C467 C469 1.433 . S
C468 C464 1.350 . S
C468 C465 1.463 . S
C468 N472 1.427 . S
C469 H459 0.929 . S
C469 C467 1.433 . S
C469 N472 1.384 . S
C470 H461 0.929 . S
C470 C462 1.378 . S
C470 C465 1.350 . S
C471 H458 0.929 . S
C471 C463 1.433 . S
C471 N473 1.384 . S
N472 C468 1.427 . S
N472 C469 1.384 . S
N473 C465 1.427 . S
N473 C471 1.384 . S
H474 C480 0.930 . S
H475 C484 0.930 . S
H476 C489 0.929 . S
H477 C487 0.929 . S
H478 C482 0.929 . S
H479 C488 0.929 . S
C480 H474 0.930 . S
C480 C481 1.367 . S
C480 C488 1.378 . S
C481 C480 1.367 . S
C481 C489 1.433 . S
C482 H478 0.929 . S
C482 C484 1.378 . S
C482 C486 1.350 . S
C483 C486 1.463 . S
C483 C488 1.350 . S
C483 N491 1.427 . S
C484 H475 0.930 . S
C484 C482 1.378 . S
C484 C485 1.367 . S
C485 C484 1.367 . S
C485 C487 1.433 . S
C486 C482 1.350 . S
C486 C483 1.463 . S
C486 N490 1.427 . S
C487 H477 0.929 . S
C487 C485 1.433 . S
C487 N490 1.384 . S
C488 H479 0.929 . S
C488 C480 1.378 . S
C488 C483 1.350 . S
C489 H476 0.929 . S
C489 C481 1.433 . S
C489 N491 1.384 . S
N490 C486 1.427 . S
N490 C487 1.384 . S
N491 C483 1.427 . S
N491 C489 1.384 . S
H492 C498 0.930 . S
H493 C502 0.930 . S
H494 C507 0.929 . S
H495 C505 0.929 1_556 S
H496 C500 0.929 . S
H497 C506 0.929 . S
C498 H492 0.930 . S
C498 C499 1.367 . S
C498 C506 1.378 . S
C499 C498 1.367 . S
C499 C507 1.433 . S
C500 H496 0.929 . S
C500 C502 1.378 . S
C500 C504 1.350 . S
C501 C504 1.463 1_545 S
C501 C506 1.350 . S
C501 N509 1.427 . S
C502 H493 0.930 . S
C502 C500 1.378 . S
C502 C503 1.367 . S
C503 C502 1.367 . S
C503 C505 1.433 . S
C504 C500 1.350 . S
C504 C501 1.463 1_565 S
C504 N508 1.427 . S
C505 H495 0.929 1_554 S
C505 C503 1.433 . S
C505 N508 1.384 . S
C506 H497 0.929 . S
C506 C498 1.378 . S
C506 C501 1.350 . S
C507 H494 0.929 . S
C507 C499 1.433 . S
C507 N509 1.384 . S
N508 C504 1.427 . S
N508 C505 1.384 . S
N509 C501 1.427 . S
N509 C507 1.384 . S
H510 C516 0.930 . S
H511 C520 0.930 . S
H512 C525 0.929 . S
H513 C523 0.929 . S
H514 C518 0.929 . S
H515 C524 0.929 . S
C516 H510 0.930 . S
C516 C517 1.367 . S
C516 C524 1.378 . S
C517 C516 1.367 . S
C517 C525 1.433 . S
C518 H514 0.929 . S
C518 C520 1.378 . S
C518 C522 1.350 . S
C519 C522 1.463 . S
C519 C524 1.350 . S
C519 N527 1.427 . S
C520 H511 0.930 . S
C520 C518 1.378 . S
C520 C521 1.367 . S
C521 C520 1.367 . S
C521 C523 1.433 . S
C522 C518 1.350 . S
C522 C519 1.463 . S
C522 N526 1.427 . S
C523 H513 0.929 . S
C523 C521 1.433 . S
C523 N526 1.384 . S
C524 H515 0.929 . S
C524 C516 1.378 . S
C524 C519 1.350 . S
C525 H512 0.929 . S
C525 C517 1.433 . S
C525 N527 1.384 . S
N526 C522 1.427 . S
N526 C523 1.384 . S
N527 C519 1.427 . S
N527 C525 1.384 . S
H528 C534 0.930 . S
H529 C538 0.930 . S
H530 C543 0.929 . S
H531 C541 0.929 . S
H532 C536 0.929 . S
H533 C542 0.929 . S
C534 H528 0.930 . S
C534 C535 1.367 . S
C534 C542 1.378 . S
C535 C534 1.367 . S
C535 C543 1.433 . S
C536 H532 0.929 . S
C536 C538 1.378 . S
C536 C540 1.350 . S
C537 C540 1.463 1_455 S
C537 C542 1.350 . S
C537 N545 1.427 . S
C538 H529 0.930 . S
C538 C536 1.378 . S
C538 C539 1.367 . S
C539 C538 1.367 . S
C539 C541 1.433 . S
C540 C536 1.350 . S
C540 C537 1.463 1_655 S
C540 N544 1.427 . S
C541 H531 0.929 . S
C541 C539 1.433 . S
C541 N544 1.384 . S
C542 H533 0.929 . S
C542 C534 1.378 . S
C542 C537 1.350 . S
C543 H530 0.929 . S
C543 C535 1.433 . S
C543 N545 1.384 . S
N544 C540 1.427 . S
N544 C541 1.384 . S
N545 C537 1.427 . S
N545 C543 1.384 . S
H546 C552 0.930 . S
H547 C556 0.930 . S
H548 C561 0.929 . S
H549 C559 0.929 . S
H550 C554 0.929 . S
H551 C560 0.929 . S
C552 H546 0.930 . S
C552 C553 1.367 . S
C552 C560 1.378 . S
C553 C552 1.367 . S
C553 C561 1.433 . S
C554 H550 0.929 . S
C554 C556 1.378 . S
C554 C558 1.350 . S
C555 C558 1.463 1_565 S
C555 C560 1.350 . S
C555 N563 1.427 . S
C556 H547 0.930 . S
C556 C554 1.378 . S
C556 C557 1.367 . S
C557 C556 1.367 . S
C557 C559 1.433 . S
C558 C554 1.350 . S
C558 C555 1.463 1_545 S
C558 N562 1.427 . S
C559 H549 0.929 . S
C559 C557 1.433 . S
C559 N562 1.384 . S
C560 H551 0.929 . S
C560 C552 1.378 . S
C560 C555 1.350 . S
C561 H548 0.929 . S
C561 C553 1.433 . S
C561 N563 1.384 . S
N562 C558 1.427 . S
N562 C559 1.384 . S
N563 C555 1.427 . S
N563 C561 1.384 . S
H564 C570 0.930 . S
H565 C574 0.930 . S
H566 C579 0.929 . S
H567 C577 0.929 . S
H568 C572 0.929 . S
H569 C578 0.929 . S
C570 H564 0.930 . S
C570 C571 1.367 . S
C570 C578 1.378 . S
C571 C570 1.367 . S
C571 C579 1.433 . S
C572 H568 0.929 . S
C572 C574 1.378 . S
C572 C576 1.350 . S
C573 C576 1.463 . S
C573 C578 1.350 . S
C573 N581 1.427 . S
C574 H565 0.930 . S
C574 C572 1.378 . S
C574 C575 1.367 . S
C575 C574 1.367 . S
C575 C577 1.433 . S
C576 C572 1.350 . S
C576 C573 1.463 . S
C576 N580 1.427 . S
C577 H567 0.929 . S
C577 C575 1.433 . S
C577 N580 1.384 . S
C578 H569 0.929 . S
C578 C570 1.378 . S
C578 C573 1.350 . S
C579 H566 0.929 . S
C579 C571 1.433 . S
C579 N581 1.384 . S
N580 C576 1.427 . S
N580 C577 1.384 . S
N581 C573 1.427 . S
N581 C579 1.384 . S
H582 C588 0.930 . S
H583 C592 0.930 . S
H584 C597 0.929 . S
H585 C595 0.929 . S
H586 C590 0.929 . S
H587 C596 0.929 . S
C588 H582 0.930 . S
C588 C589 1.367 . S
C588 C596 1.378 . S
C589 C588 1.367 . S
C589 C597 1.433 . S
C590 H586 0.929 . S
C590 C592 1.378 . S
C590 C594 1.350 . S
C591 C594 1.463 1_455 S
C591 C596 1.350 . S
C591 N599 1.427 . S
C592 H583 0.930 . S
C592 C590 1.378 . S
C592 C593 1.367 . S
C593 C592 1.367 . S
C593 C595 1.433 . S
C594 C590 1.350 . S
C594 C591 1.463 1_655 S
C594 N598 1.427 . S
C595 H585 0.929 . S
C595 C593 1.433 . S
C595 N598 1.384 . S
C596 H587 0.929 . S
C596 C588 1.378 . S
C596 C591 1.350 . S
C597 H584 0.929 . S
C597 C589 1.433 . S
C597 N599 1.384 . S
N598 C594 1.427 . S
N598 C595 1.384 . S
N599 C591 1.427 . S
N599 C597 1.384 . S
C175 C9 1.634 . S
C179 C149 1.634 . S
C193 C23 1.635 . S
C197 C163 1.637 . S
C211 C93 1.638 . S
C215 C37 1.635 . S
C229 C51 1.642 . S
C233 C107 1.640 . S
C247 C121 1.633 . S
C251 C65 1.633 . S
C265 C135 1.636 . S
C269 C79 1.633 1_554 S
C283 C119 1.403 . S
C287 C7 1.397 . S
C301 C21 1.393 . S
C305 C133 1.399 . S
C319 C147 1.401 . S
C323 C35 1.404 . S
C337 C49 1.399 . S
C341 C161 1.404 . S
C355 C63 1.393 . S
C359 C91 1.398 . S
C373 C77 1.397 . S
C377 C105 1.394 . S
C391 C146 1.365 . S
C395 C6 1.368 . S
C409 C160 1.356 . S
C413 C20 1.360 . S
C427 C90 1.368 1_554 S
C431 C34 1.369 . S
C445 C48 1.356 . S
C449 C104 1.355 . S
C463 C62 1.367 . S
C467 C118 1.369 . S
C481 C132 1.363 . S
C485 C76 1.368 . S
C499 C8 1.305 . S
C503 C106 1.295 . S
C517 C120 1.295 . S
C521 C22 1.306 . S
C535 C134 1.311 . S
C539 C36 1.301 . S
C553 C50 1.310 . S
C557 C148 1.304 . S
C571 C64 1.295 . S
C575 C162 1.303 . S
C589 C78 1.295 . S
C593 C92 1.304 . S
