# Generated by pormake.
# Topology nbo, (4)-cn, num edge types: 1
# Building blocks:
#     Node 0, Type 0, BuildingBlock: KOZSID_clean_sbu_0, # of connection points: 4
#     Node 1, Type 0, BuildingBlock: KOZSID_clean_sbu_0, # of connection points: 4
#     Node 2, Type 0, BuildingBlock: KOZSID_clean_sbu_0, # of connection points: 4
#     Node 3, Type 0, BuildingBlock: KOZSID_clean_sbu_0, # of connection points: 4
#     Node 4, Type 0, BuildingBlock: KOZSID_clean_sbu_0, # of connection points: 4
#     Node 5, Type 0, BuildingBlock: KOZSID_clean_sbu_0, # of connection points: 4
#     Edge 6, Type (0, 0), BuildingBlock: FUNLAD_clean_linker_1, # of connection points: 2
#     Edge 7, Type (0, 0), BuildingBlock: FUNLAD_clean_linker_1, # of connection points: 2
#     Edge 8, Type (0, 0), BuildingBlock: FUNLAD_clean_linker_1, # of connection points: 2
#     Edge 9, Type (0, 0), BuildingBlock: FUNLAD_clean_linker_1, # of connection points: 2
#     Edge 10, Type (0, 0), BuildingBlock: FUNLAD_clean_linker_1, # of connection points: 2
#     Edge 11, Type (0, 0), BuildingBlock: FUNLAD_clean_linker_1, # of connection points: 2
#     Edge 12, Type (0, 0), BuildingBlock: FUNLAD_clean_linker_1, # of connection points: 2
#     Edge 13, Type (0, 0), BuildingBlock: FUNLAD_clean_linker_1, # of connection points: 2
#     Edge 14, Type (0, 0), BuildingBlock: FUNLAD_clean_linker_1, # of connection points: 2
#     Edge 15, Type (0, 0), BuildingBlock: FUNLAD_clean_linker_1, # of connection points: 2
#     Edge 16, Type (0, 0), BuildingBlock: FUNLAD_clean_linker_1, # of connection points: 2
#     Edge 17, Type (0, 0), BuildingBlock: FUNLAD_clean_linker_1, # of connection points: 2
# Relax obj value: 0.000
# Max RMSD: 0.000
# Mean RMSD: 0.000
data_MOF--net-nbo--node1-KOZSID_clean_sbu_0--edge1-FUNLAD_clean_linker_1
_symmetry_space_group_name_H-M    P1
_symmetry_Int_Tables_number       1
_symmetry_cell_setting            triclinic
loop_
_symmetry_equiv_pos_as_xyz
'x, y, z'
_cell_length_a     34.58933
_cell_length_b     40.434868
_cell_length_c     37.521098
_cell_angle_alpha  106.60225
_cell_angle_beta   107.26269
_cell_angle_gamma 107.06028
loop_
_atom_site_label
_atom_site_type_symbol
_atom_site_fract_x
_atom_site_fract_y
_atom_site_fract_z
_atom_type_partial_charge
C0 C 0.90478 0.97021 0.47584 0.0
C1 C 0.86554 0.94442 0.44208 0.0
C2 C 0.87624 0.93473 0.40959 0.0
C3 C 0.92147 0.95384 0.42559 0.0
N4 N 0.9404 0.97434 0.46646 0.0
Co5 Co 0.00566 1.00193 0.50261 0.0
N6 N 0.02133 0.99029 0.45453 0.0
C7 C 0.99258 0.97213 0.41458 0.0
C8 C 0.01277 0.96846 0.38826 0.0
C9 C 0.05706 0.98451 0.41277 0.0
C10 C 0.06143 0.99661 0.45299 0.0
N11 N 0.07126 0.02928 0.5388 0.0
C12 C 0.10707 0.03142 0.52975 0.0
C13 C 0.14623 0.04937 0.56544 0.0
C14 C 0.13501 0.05972 0.59739 0.0
C15 C 0.08985 0.04689 0.58011 0.0
N16 N 0.9895 0.01362 0.55061 0.0
C17 C 0.01811 0.03305 0.59044 0.0
C18 C 0.99789 0.03689 0.61669 0.0
C19 C 0.95352 0.01956 0.59221 0.0
C20 C 0.94908 1.00598 0.552 0.0
N21 N 0.00719 0.95392 0.50656 0.0
C22 C 0.01254 0.8867 0.51233 0.0
C23 C 0.03001 0.92029 0.54713 0.0
C24 C 0.0269 0.95309 0.54367 0.0
C25 C 0.99222 0.88742 0.47439 0.0
C26 C 0.98995 0.92095 0.47229 0.0
N27 N 1.00422 0.04983 0.49863 0.0
C28 C 0.02524 0.11758 0.53021 0.0
C29 C 1.00077 0.11757 0.49296 0.0
C30 C 0.97803 0.08287 0.45883 0.0
C31 C 0.98017 0.04976 0.46223 0.0
C32 C 0.02646 0.08376 0.53227 0.0
H33 H 0.96172 0.02433 0.435 0.0
H34 H 0.04533 0.08575 0.56158 0.0
H35 H 0.04117 0.97753 0.57153 0.0
H36 H 0.97466 0.91956 0.44243 0.0
C37 C 0.94685 0.95486 0.40285 0.0
C38 C 0.90667 0.99019 0.51611 0.0
C39 C 0.10442 0.01342 0.48833 0.0
C40 C 0.06387 0.04784 0.6022 0.0
H41 H 0.83255 0.93373 0.44104 0.0
H42 H 0.85372 0.91624 0.37805 0.0
H43 H 0.99708 0.95448 0.35521 0.0
H44 H 0.08316 0.98633 0.40213 0.0
H45 H 0.17958 0.05318 0.56932 0.0
H46 H 0.157 0.07312 0.62962 0.0
H47 H 0.01356 0.05132 0.64971 0.0
H48 H 0.92782 0.01827 0.60323 0.0
H49 H 0.04629 0.92136 0.57723 0.0
H50 H 0.97889 0.86273 0.44613 0.0
H51 H 0.04306 0.14315 0.55805 0.0
H52 H 0.95837 0.08115 0.42933 0.0
C53 C 0.52511 0.03862 0.08687 0.0
C54 C 0.56595 0.06113 0.12027 0.0
C55 C 0.59769 0.06638 0.10543 0.0
C56 C 0.57476 0.04808 0.06391 0.0
N57 N 0.53013 0.03222 0.05116 0.0
Co58 Co 0.4849 1.00566 0.99277 0.0
N59 N 0.53196 0.01267 0.97112 0.0
C60 C 0.57633 0.0282 0.99354 0.0
C61 C 0.60052 0.02719 0.97058 0.0
C62 C 0.56981 0.01113 0.93106 0.0
C63 C 0.52849 1.00451 0.9322 0.0
N64 N 0.43972 0.97815 0.93435 0.0
C65 C 0.44493 0.97185 0.89878 0.0
C66 C 0.4042 0.94936 0.86513 0.0
C67 C 0.37247 0.94265 0.87989 0.0
C68 C 0.3952 0.96084 0.92145 0.0
N69 N 0.43771 0.9997 0.01433 0.0
C70 C 0.3933 0.98358 0.99151 0.0
C71 C 0.3687 0.98467 0.014 0.0
C72 C 0.39902 1.00204 0.05369 0.0
C73 C 0.44101 1.01058 0.0534 0.0
N74 N 0.48419 0.05482 0.99227 0.0
C75 C 0.48205 0.12376 0.98948 0.0
C76 C 0.44321 0.09059 0.97184 0.0
C77 C 0.44493 0.05693 0.97361 0.0
C78 C 0.52233 0.12168 0.00842 0.0
C79 C 0.5226 0.08721 0.00935 0.0
N80 N 0.48541 0.95625 0.99308 0.0
C81 C 0.44556 0.89029 0.97888 0.0
C82 C 0.48494 0.88536 0.99166 0.0
C83 C 0.5249 0.91703 0.00583 0.0
C84 C 0.52432 0.95182 0.00639 0.0
C85 C 0.44649 0.92543 0.98001 0.0
H86 H 0.55586 0.97476 0.01792 0.0
H87 H 0.41511 0.92685 0.97026 0.0
H88 H 0.41395 0.03283 0.95922 0.0
H89 H 0.55434 0.08729 0.02354 0.0
C90 C 0.59422 0.04479 0.03613 0.0
C91 C 0.48238 0.02483 0.09034 0.0
C92 C 0.48677 0.99028 0.89579 0.0
C93 C 0.37551 0.96522 0.94898 0.0
H94 H 0.57266 0.07303 0.15224 0.0
H95 H 0.6333 0.0818 0.12288 0.0
H96 H 0.63625 0.03724 0.98129 0.0
H97 H 0.57735 1.00515 0.90456 0.0
H98 H 0.3973 0.93946 0.83302 0.0
H99 H 0.33686 0.92746 0.86231 0.0
H100 H 0.33285 0.97315 1.00288 0.0
H101 H 0.39025 1.00655 0.07945 0.0
H102 H 0.41122 0.09052 0.9565 0.0
H103 H 0.55373 0.14608 0.0218 0.0
H104 H 0.41371 0.86692 0.96797 0.0
H105 H 0.5567 0.91547 0.01638 0.0
C106 C 0.10969 0.54296 0.0376 0.0
C107 C 0.14897 0.5759 0.05692 0.0
C108 C 0.13822 0.60558 0.06949 0.0
C109 C 0.0932 0.58975 0.05648 0.0
N110 N 0.07416 0.55151 0.03653 0.0
Co111 Co 0.00837 0.51843 0.00814 0.0
N112 N 0.99322 0.56296 0.02541 0.0
C113 C 0.02218 0.59976 0.04696 0.0
C114 C 1.0026 0.62419 0.055 0.0
C115 C 0.95837 0.60166 0.03825 0.0
C116 C 0.95348 0.56442 0.02125 0.0
N117 N 0.94256 0.48541 0.97927 0.0
C118 C 0.90705 0.49393 0.97829 0.0
C119 C 0.86757 0.46112 0.95741 0.0
C120 C 0.87829 0.43157 0.944 0.0
C121 C 0.92344 0.44733 0.95794 0.0
N122 N 0.02355 0.47383 0.9914 0.0
C123 C 0.99457 0.43698 0.97058 0.0
C124 C 0.01417 0.41238 0.96375 0.0
C125 C 0.05846 0.43478 0.98075 0.0
C126 C 0.0634 0.47216 0.99661 0.0
N127 N 0.00933 0.51228 0.0593 0.0
C128 C 1.00477 0.50518 0.13109 0.0
C129 C 0.98232 0.47408 0.09329 0.0
C130 C 0.9853 0.47808 0.05824 0.0
C131 C 0.03036 0.5399 0.13243 0.0
C132 C 0.03221 0.54272 0.09654 0.0
N133 N 0.00721 0.52461 0.95691 0.0
C134 C 0.98768 0.49697 0.88404 0.0
C135 C 0.00818 0.53262 0.88445 0.0
C136 C 0.02792 0.56405 0.92182 0.0
C137 C 0.0269 0.55954 0.95722 0.0
C138 C 0.98749 0.49373 0.92019 0.0
H139 H 0.04259 0.58476 0.98449 0.0
H140 H 0.9716 0.46577 0.91768 0.0
H141 H 0.9673 0.45317 0.03056 0.0
H142 H 0.05171 0.57006 0.09957 0.0
C143 C 0.06776 0.61044 0.06045 0.0
C144 C 0.10685 0.50468 0.01722 0.0
C145 C 0.91015 0.53184 1.0006 0.0
C146 C 0.94893 0.42649 0.95547 0.0
H147 H 0.18211 0.57933 0.06032 0.0
H148 H 0.16044 0.63539 0.08472 0.0
H149 H 0.01862 0.65471 0.07149 0.0
H150 H 0.93266 0.61168 0.03858 0.0
H151 H 0.83432 0.45755 0.95371 0.0
H152 H 0.85598 0.40179 0.92806 0.0
H153 H 0.99811 0.38181 0.94773 0.0
H154 H 0.08414 0.42454 0.98131 0.0
H155 H 0.96217 0.44656 0.09067 0.0
H156 H 0.04794 0.56523 0.16058 0.0
H157 H 0.97254 0.47133 0.85642 0.0
H158 H 0.04432 0.59226 0.92383 0.0
C159 C 0.56555 0.5097 0.96423 0.0
C160 C 0.561 0.49721 0.92394 0.0
C161 C 0.51693 0.48311 0.89958 0.0
C162 C 0.49713 0.48817 0.92606 0.0
N163 N 0.52578 0.50521 0.96596 0.0
Co164 Co 0.51019 0.51758 0.01408 0.0
N165 N 0.44456 0.49323 0.97791 0.0
C166 C 0.42581 0.47692 0.93654 0.0
C167 C 0.38085 0.46536 0.9194 0.0
C168 C 0.36987 0.47513 0.95155 0.0
C169 C 0.40896 0.49158 0.98715 0.0
N170 N 0.49461 0.52984 0.06224 0.0
C171 C 0.45482 0.52539 0.06395 0.0
C172 C 0.45929 0.53765 0.1042 0.0
C173 C 0.50333 0.55153 0.1286 0.0
C174 C 0.52322 0.5466 0.10216 0.0
N175 N 0.57588 0.54208 0.0503 0.0
C176 C 0.59468 0.55855 0.09169 0.0
C177 C 0.63964 0.57004 0.10877 0.0
C178 C 0.65056 0.56013 0.07659 0.0
C179 C 0.61146 0.54374 0.04103 0.0
N180 N 0.51314 0.56732 0.01245 0.0
C181 C 0.51574 0.63823 0.01225 0.0
C182 C 0.53676 0.63493 0.04828 0.0
C183 C 0.53504 0.59979 0.04776 0.0
C184 C 0.49369 0.60514 0.97594 0.0
C185 C 0.49288 0.57036 0.97678 0.0
N186 N 0.50745 0.46789 0.01578 0.0
C187 C 0.53148 0.43215 0.05289 0.0
C188 C 0.50945 0.3986 0.01749 0.0
C189 C 0.48557 0.4002 0.98109 0.0
C190 C 0.48509 0.43484 0.98096 0.0
C191 C 0.52969 0.46592 0.05151 0.0
H192 H 0.46703 0.43432 0.95215 0.0
H193 H 0.54714 0.49013 0.07979 0.0
H194 H 0.55154 0.59964 0.07653 0.0
H195 H 0.47555 0.54632 0.94818 0.0
C196 C 0.45156 0.47559 0.91436 0.0
C197 C 0.60863 0.52648 0.99943 0.0
C198 C 0.41179 0.50895 0.02874 0.0
C199 C 0.5689 0.55955 0.11396 0.0
H200 H 0.58681 0.49813 0.91306 0.0
H201 H 0.50114 0.47024 0.86649 0.0
H202 H 0.3589 0.45302 0.88723 0.0
H203 H 0.33673 0.47192 0.94792 0.0
H204 H 0.43342 0.53678 0.115 0.0
H205 H 0.51907 0.56431 0.16168 0.0
H206 H 0.66162 0.58228 0.14093 0.0
H207 H 0.68361 0.56309 0.0801 0.0
H208 H 0.55443 0.65956 0.0772 0.0
H209 H 0.4772 0.60562 0.94683 0.0
H210 H 0.55031 0.43241 0.08186 0.0
H211 H 0.46839 0.37531 0.9525 0.0
C212 C 0.04108 0.53054 0.59667 0.0
C213 C 0.08042 0.54676 0.63199 0.0
C214 C 0.11466 0.55777 0.62117 0.0
C215 C 0.09508 0.54678 0.57993 0.0
N216 N 0.05014 0.52957 0.56345 0.0
Co217 Co 0.01006 0.50358 0.50322 0.0
N218 N 0.06151 0.51701 0.48755 0.0
C219 C 0.10499 0.53594 0.51346 0.0
C220 C 0.13307 0.54078 0.49449 0.0
C221 C 0.10595 0.52482 0.45388 0.0
C222 C 0.06237 0.51122 0.45027 0.0
N223 N 0.97011 0.47732 0.4432 0.0
C224 C 0.97952 0.47509 0.4101 0.0
C225 C 0.94239 0.44972 0.37405 0.0
C226 C 0.90773 0.43847 0.38449 0.0
C227 C 0.9258 0.45623 0.42622 0.0
N228 N 0.95847 0.49037 0.51854 0.0
C229 C 0.91492 0.47193 0.4924 0.0
C230 C 0.88669 0.46731 0.51128 0.0
C231 C 0.9137 0.48313 0.55193 0.0
C232 C 0.95733 0.49608 0.55566 0.0
N233 N 0.00519 0.55167 0.50376 0.0
C234 C 0.99824 0.61932 0.50161 0.0
C235 C 0.96112 0.58457 0.4813 0.0
C236 C 0.96525 0.55147 0.4826 0.0
C237 C 0.03903 0.61961 0.52367 0.0
C238 C 0.04169 0.58576 0.52426 0.0
N239 N 0.01481 0.45516 0.5026 0.0
C240 C 0.98003 0.38811 0.48734 0.0
C241 C 0.02136 0.38711 0.50454 0.0
C242 C 0.0592 0.4208 0.52019 0.0
C243 C 0.05529 0.45404 0.51897 0.0
C244 C 0.97762 0.42201 0.4868 0.0
H245 H 0.08561 0.4785 0.53181 0.0
H246 H 0.94508 0.42059 0.4737 0.0
H247 H 0.93566 0.52594 0.4659 0.0
H248 H 0.07369 0.58779 0.54138 0.0
C249 C 0.11839 0.54908 0.55555 0.0
C250 C 0.99618 0.51343 0.59522 0.0
C251 C 0.02296 0.4967 0.41174 0.0
C252 C 0.90172 0.45584 0.45017 0.0
H253 H 0.08525 0.54882 0.66239 0.0
H254 H 0.14984 0.57031 0.64075 0.0
H255 H 0.16902 0.5548 0.50856 0.0
H256 H 0.11764 0.52421 0.43012 0.0
H257 H 0.94018 0.44037 0.34321 0.0
H258 H 0.87333 0.41998 0.36403 0.0
H259 H 0.85075 0.45311 0.49712 0.0
H260 H 0.9023 0.48444 0.576 0.0
H261 H 0.92876 0.58277 0.46396 0.0
H262 H 0.0689 0.64562 0.54081 0.0
H263 H 0.94926 0.3632 0.47426 0.0
H264 H 0.09205 0.42168 0.53375 0.0
C265 C 0.6145 0.05589 0.53019 0.0
C266 C 0.65051 0.09068 0.54611 0.0
C267 C 0.6346 0.11783 0.55293 0.0
C268 C 0.59014 0.09832 0.54131 0.0
N269 N 0.5767 0.06038 0.52855 0.0
Co270 Co 0.51419 0.02166 0.5063 0.0
N271 N 0.49043 0.06162 0.51392 0.0
C272 C 0.5144 0.09952 0.52979 0.0
C273 C 0.48977 0.1203 0.5331 0.0
C274 C 0.44756 0.09424 0.51952 0.0
C275 C 0.44892 0.05879 0.50904 0.0
N276 N 0.45108 0.98281 0.48169 0.0
C277 C 0.41243 0.9869 0.47746 0.0
C278 C 0.37676 0.95164 0.46046 0.0
C279 C 0.39314 0.92489 0.45299 0.0
C280 C 0.43778 0.94481 0.46633 0.0
N281 N 0.53869 0.98193 0.50124 0.0
C282 C 0.51483 0.94437 0.48814 0.0
C283 C 0.53942 0.92349 0.48645 0.0
C284 C 0.58156 0.94906 0.49873 0.0
C285 C 0.5807 0.98471 0.50791 0.0
N286 N 0.52044 0.02537 0.56222 0.0
C287 C 0.52614 0.03095 0.64095 0.0
C288 C 0.50205 0.99624 0.60676 0.0
C289 C 0.49972 0.99413 0.56818 0.0
C290 C 0.54803 0.06257 0.63498 0.0
C291 C 0.54461 0.05929 0.59579 0.0
N292 N 0.50794 0.01785 0.45033 0.0
C293 C 0.49947 0.98165 0.38246 0.0
C294 C 0.50586 0.01316 0.37288 0.0
C295 C 0.51247 0.04703 0.40248 0.0
C296 C 0.51372 0.04881 0.44078 0.0
C297 C 0.49976 0.98435 0.42059 0.0
H298 H 0.52027 0.07576 0.46239 0.0
H299 H 0.49387 0.95894 0.4254 0.0
H300 H 0.48086 0.96681 0.54362 0.0
H301 H 0.5616 0.08468 0.5934 0.0
C302 C 0.56008 0.11481 0.54142 0.0
C303 C 0.61845 0.01966 0.51756 0.0
C304 C 0.40951 0.02346 0.49369 0.0
C305 C 0.46859 0.92893 0.47119 0.0
H306 H 0.68479 0.09592 0.55189 0.0
H307 H 0.6531 0.14814 0.56439 0.0
H308 H 0.50122 0.15079 0.54436 0.0
H309 H 0.419 0.10073 0.51761 0.0
H310 H 0.34267 0.94503 0.4559 0.0
H311 H 0.37508 0.89455 0.44182 0.0
H312 H 0.52758 0.89296 0.47491 0.0
H313 H 0.60845 0.941 0.49818 0.0
H314 H 0.48554 0.97043 0.60946 0.0
H315 H 0.56749 0.09003 0.66052 0.0
H316 H 0.49409 0.95478 0.36043 0.0
H317 H 0.51832 0.07247 0.3968 0.0
H318 H 0.97312 0.14817 0.45907 0.0
C319 C 0.99691 0.15224 0.48821 0.0
H320 H 0.04465 0.19382 0.54693 0.0
H321 H 0.025 0.30013 0.44188 0.0
H322 H 0.0583 0.26771 0.40386 0.0
H323 H 0.07298 0.21464 0.41527 0.0
H324 H 0.05372 0.19319 0.46428 0.0
C325 C 0.02085 0.18805 0.51715 0.0
C326 C 0.01362 0.22117 0.51087 0.0
C327 C 0.02642 0.23428 0.48305 0.0
C328 C 0.0196 0.26601 0.47766 0.0
C329 C 0.0308 0.27716 0.44827 0.0
C330 C 0.04974 0.25865 0.42604 0.0
C331 C 0.05788 0.22868 0.43238 0.0
C332 C 0.04645 0.21653 0.46049 0.0
H333 H 0.06071 0.35454 0.51985 0.0
C334 C 0.02693 0.35227 0.50707 0.0
H335 H 0.95907 0.31511 0.48413 0.0
H336 H 0.98527 0.2038 0.56658 0.0
H337 H 0.95423 0.23751 0.60628 0.0
H338 H 0.94489 0.29367 0.59876 0.0
H339 H 0.96631 0.3164 0.55135 0.0
C340 C 0.99331 0.31859 0.49542 0.0
C341 C 1.00142 0.28558 0.50113 0.0
C342 C 0.98912 0.27269 0.52925 0.0
C343 C 0.99514 0.24055 0.53405 0.0
C344 C 0.982 0.22827 0.56206 0.0
C345 C 0.96403 0.24731 0.585 0.0
C346 C 0.95871 0.27889 0.58072 0.0
C347 C 0.97105 0.29157 0.55327 0.0
H348 H 0.86631 0.99739 0.5497 0.0
C349 C 0.86891 0.99435 0.521 0.0
H350 H 0.83929 1.00003 0.46473 0.0
H351 H 0.64227 0.94784 0.45005 0.0
H352 H 0.63388 0.90433 0.38566 0.0
H353 H 0.69947 0.90528 0.37176 0.0
H354 H 0.77354 0.94965 0.42198 0.0
C355 C 0.83617 0.99886 0.49233 0.0
C356 C 0.7963 1.00186 0.49858 0.0
C357 C 0.75293 0.97616 0.46829 0.0
C358 C 0.71497 0.97573 0.47612 0.0
C359 C 0.67217 0.94935 0.44572 0.0
C360 C 0.66686 0.92423 0.40857 0.0
C361 C 0.70378 0.92474 0.40078 0.0
C362 C 0.74631 0.9503 0.43011 0.0
H363 H 0.67124 0.03962 0.49924 0.0
C364 C 0.65635 0.01938 0.51032 0.0
H365 H 0.67417 0.98581 0.54268 0.0
H366 H 0.87268 0.0627 0.55754 0.0
H367 H 0.88038 0.10773 0.62069 0.0
H368 H 0.81508 0.10402 0.63614 0.0
H369 H 0.74151 0.05562 0.58804 0.0
C370 C 0.68072 0.99945 0.52276 0.0
C371 C 0.7203 1.00115 0.51396 0.0
C372 C 0.76324 0.02846 0.54309 0.0
C373 C 0.80118 0.0295 0.53497 0.0
C374 C 0.84317 0.05907 0.56324 0.0
C375 C 0.84795 0.08546 0.59937 0.0
C376 C 0.81117 0.08345 0.60801 0.0
C377 C 0.76918 0.05547 0.58021 0.0
H378 H 0.95855 0.65169 0.48666 0.0
C379 C 0.9924 0.65405 0.49928 0.0
H380 H 0.06004 0.6907 0.52059 0.0
H381 H 0.02773 0.79997 0.43631 0.0
H382 H 0.05667 0.76547 0.3948 0.0
H383 H 0.06734 0.70982 0.40259 0.0
H384 H 0.0496 0.68854 0.45226 0.0
C385 C 0.02587 0.68756 0.51031 0.0
C386 C 0.01726 0.7204 0.50465 0.0
C387 C 0.02747 0.73248 0.47529 0.0
C388 C 0.02048 0.76422 0.47024 0.0
C389 C 0.03168 0.77577 0.44103 0.0
C390 C 0.04844 0.75627 0.41704 0.0
C391 C 0.05453 0.72498 0.42148 0.0
C392 C 0.04429 0.71313 0.45021 0.0
H393 H 0.04121 0.85683 0.54659 0.0
C394 C 0.01778 0.8525 0.51714 0.0
H395 H 0.9712 0.81096 0.45811 0.0
H396 H 0.99736 0.70713 0.56602 0.0
H397 H 0.96488 0.73953 0.60511 0.0
H398 H 0.94767 0.79138 0.59286 0.0
H399 H 0.96363 0.81168 0.54204 0.0
C400 C 0.99493 0.81675 0.48797 0.0
C401 C 1.00291 0.78389 0.4943 0.0
C402 C 0.99182 0.77133 0.52313 0.0
C403 C 0.99987 0.74015 0.52889 0.0
C404 C 0.99051 0.72963 0.55931 0.0
C405 C 0.97205 0.74813 0.58215 0.0
C406 C 0.9625 0.77742 0.57535 0.0
C407 C 0.97214 0.78896 0.54623 0.0
H408 H 0.37612 0.04955 0.52517 0.0
C409 C 0.37136 0.02615 0.49872 0.0
H410 H 0.32147 0.98726 0.43785 0.0
H411 H 0.19422 0.99357 0.53938 0.0
H412 H 0.22262 0.95292 0.56487 0.0
H413 H 0.28205 0.9386 0.54974 0.0
H414 H 0.31358 0.96506 0.50916 0.0
C415 C 0.32782 1.00509 0.46857 0.0
C416 C 0.29042 0.01215 0.47591 0.0
C417 C 0.27192 0.99606 0.4992 0.0
C418 C 0.23709 1.0038 0.5073 0.0
C419 C 0.22003 0.98806 0.53152 0.0
C420 C 0.23618 0.96478 0.54653 0.0
C421 C 0.26968 0.95676 0.53806 0.0
C422 C 0.28751 0.97217 0.51475 0.0
H423 H 0.13383 0.98246 0.45624 0.0
C424 C 0.14071 1.00812 0.4813 0.0
H425 H 0.19166 0.06501 0.51837 0.0
H426 H 0.31872 0.04749 0.43044 0.0
H427 H 0.28991 0.08778 0.40427 0.0
H428 H 0.22886 0.10056 0.41749 0.0
H429 H 0.19632 0.07328 0.4571 0.0
C430 C 0.18443 0.03584 0.5005 0.0
C431 C 0.22059 0.02738 0.49177 0.0
C432 C 0.23904 0.04337 0.46839 0.0
C433 C 0.27394 0.03567 0.46038 0.0
C434 C 0.29196 0.0522 0.43716 0.0
C435 C 0.27576 0.07539 0.42199 0.0
C436 C 0.24141 0.08262 0.42947 0.0
C437 C 0.2231 0.06685 0.45233 0.0
H438 H 0.52217 0.99156 0.32048 0.0
C439 C 0.5081 1.01031 0.33304 0.0
H440 H 0.47725 0.04669 0.32334 0.0
H441 H 0.54502 0.09449 0.20105 0.0
H442 H 0.57478 0.15445 0.25915 0.0
H443 H 0.56993 0.15655 0.32396 0.0
H444 H 0.535 0.09887 0.331 0.0
C445 C 0.49202 0.0284 0.31129 0.0
C446 C 0.49609 0.02634 0.27194 0.0
C447 C 0.51743 0.0604 0.26844 0.0
C448 C 0.5212 0.05921 0.23127 0.0
C449 C 0.5419 0.09372 0.22864 0.0
C450 C 0.55904 0.12836 0.26175 0.0
C451 C 0.55624 0.12954 0.29821 0.0
C452 C 0.53585 0.09612 0.30174 0.0
H453 H 0.4503 0.02588 0.13236 0.0
C454 C 0.47977 0.02569 0.12796 0.0
H455 H 0.53777 0.01588 0.15537 0.0
H456 H 0.44528 0.95593 0.26399 0.0
H457 H 0.4174 0.89623 0.20625 0.0
H458 H 0.43001 0.89408 0.14445 0.0
H459 H 0.46986 0.95193 0.13975 0.0
C460 C 0.51089 0.02268 0.15955 0.0
C461 C 0.50484 0.02397 0.1978 0.0
C462 C 0.4833 0.98996 0.20103 0.0
C463 C 0.47777 0.99112 0.23756 0.0
C464 C 0.45284 0.95674 0.23823 0.0
C465 C 0.43609 0.92221 0.205 0.0
C466 C 0.44307 0.92101 0.17014 0.0
C467 C 0.4661 0.9544 0.1679 0.0
H468 H 0.9707 0.47575 0.16191 0.0
C469 C 0.99903 0.50043 0.16753 0.0
H470 H 0.056 0.54878 0.2137 0.0
H471 H 0.99398 0.5681 0.35682 0.0
H472 H 0.99633 0.62456 0.34526 0.0
H473 H 0.00802 0.63265 0.28601 0.0
H474 H 0.01796 0.5846 0.2382 0.0
C475 C 0.02717 0.52398 0.2067 0.0
C476 C 0.01899 0.51822 0.242 0.0
C477 C 0.01236 0.54626 0.26936 0.0
C478 C 1.00468 0.54125 0.30314 0.0
C479 C 0.99919 0.57015 0.33034 0.0
C480 C 1.00055 0.60275 0.32412 0.0
C481 C 0.00722 0.60733 0.2908 0.0
C482 C 0.01299 0.57953 0.26362 0.0
H483 H 0.06053 0.5115 0.37703 0.0
C484 C 0.0281 0.5033 0.37765 0.0
H485 H 0.96376 0.50231 0.34634 0.0
H486 H 0.03723 0.46149 0.19985 0.0
H487 H 0.03276 0.40436 0.21034 0.0
H488 H 0.01281 0.3931 0.26502 0.0
H489 H 0.99823 0.43934 0.31011 0.0
C490 C 0.99475 0.50279 0.34481 0.0
C491 C 1.00313 0.50803 0.30947 0.0
C492 C 0.00954 0.47987 0.28205 0.0
C493 C 0.01865 0.48542 0.24902 0.0
C494 C 0.02793 0.45797 0.22404 0.0
C495 C 0.02588 0.42514 0.22995 0.0
C496 C 0.01483 0.41887 0.26084 0.0
C497 C 0.00677 0.4458 0.28668 0.0
H498 H 0.55842 0.05942 0.70886 0.0
C499 C 0.53051 0.035 0.6831 0.0
H500 H 0.47285 0.98632 0.666 0.0
H501 H 0.53243 0.95927 0.82657 0.0
H502 H 0.53838 0.90795 0.77925 0.0
H503 H 0.53061 0.90461 0.71068 0.0
H504 H 0.51707 0.95272 0.68906 0.0
C505 C 0.50135 1.01075 0.69095 0.0
C506 C 0.50797 0.01432 0.7335 0.0
C507 C 0.51534 0.98573 0.74571 0.0
C508 C 0.51937 0.98744 0.78523 0.0
C509 C 0.52804 0.959 0.79672 0.0
C510 C 0.53181 0.92945 0.76991 0.0
C511 C 0.52747 0.92758 0.73132 0.0
C512 C 0.51951 0.95535 0.71925 0.0
H513 H 0.45578 0.97484 0.83033 0.0
C514 C 0.48554 0.99281 0.85824 0.0
H515 H 0.54621 0.04301 0.88063 0.0
H516 H 0.49083 0.07256 0.71961 0.0
H517 H 0.48542 0.1241 0.76724 0.0
H518 H 0.49394 0.12767 0.83604 0.0
H519 H 0.50763 0.07952 0.85758 0.0
C520 C 0.51904 0.01907 0.85393 0.0
C521 C 0.51552 0.01754 0.81261 0.0
C522 C 0.50873 0.0464 0.80068 0.0
C523 C 0.50449 0.04463 0.76104 0.0
C524 C 0.4956 0.07298 0.74956 0.0
C525 C 0.4921 0.10263 0.77655 0.0
C526 C 0.49686 0.10463 0.81528 0.0
C527 C 0.50486 0.07685 0.8273 0.0
H528 H 0.96106 0.4852 0.62459 0.0
C529 C 0.98904 0.50983 0.6297 0.0
H530 H 0.03391 0.56606 0.67594 0.0
H531 H 0.95484 0.56244 0.80638 0.0
H532 H 0.93478 0.60848 0.785 0.0
H533 H 0.94654 0.61934 0.72688 0.0
H534 H 0.97821 0.58406 0.68961 0.0
C535 C 0.01273 0.53753 0.67004 0.0
C536 C 0.00522 0.53048 0.705 0.0
C537 C 0.98729 0.55174 0.72698 0.0
C538 C 0.98093 0.54575 0.76088 0.0
C539 C 0.96148 0.56648 0.78118 0.0
C540 C 0.94952 0.59285 0.76903 0.0
C541 C 0.9561 0.59894 0.73629 0.0
C542 C 0.97454 0.5786 0.71528 0.0
H543 H 0.03485 0.56554 0.85238 0.0
C544 C 0.01127 0.53826 0.8475 0.0
H545 H 0.96249 0.48451 0.80207 0.0
H546 H 0.04396 0.48696 0.67218 0.0
H547 H 0.06321 0.44055 0.69314 0.0
H548 H 0.05053 0.42916 0.75071 0.0
H549 H 0.01881 0.46444 0.78788 0.0
C550 C 0.98654 0.51211 0.80866 0.0
C551 C 0.99307 0.51883 0.77321 0.0
C552 C 0.01068 0.49737 0.75104 0.0
C553 C 0.01722 0.50346 0.71726 0.0
C554 C 0.03684 0.48277 0.69711 0.0
C555 C 0.04842 0.45617 0.70905 0.0
C556 C 0.04134 0.4498 0.74149 0.0
C557 C 0.02294 0.47019 0.76248 0.0
H558 H 0.13859 0.47597 0.98584 0.0
C559 C 0.14397 0.49832 0.01353 0.0
H560 H 0.19227 0.53173 0.07624 0.0
H561 H 0.32052 0.44978 0.06108 0.0
H562 H 0.28812 0.42346 0.10135 0.0
H563 H 0.22598 0.43546 0.1129 0.0
H564 H 0.1959 0.47396 0.08437 0.0
C565 C 0.18669 0.51559 0.04517 0.0
C566 C 0.22404 0.50825 0.03803 0.0
C567 C 0.24118 0.48569 0.05488 0.0
C568 C 0.27669 0.47841 0.04784 0.0
C569 C 0.29328 0.45587 0.06514 0.0
C570 C 0.27505 0.44065 0.08837 0.0
C571 C 0.24009 0.44745 0.09492 0.0
C572 C 0.2232 0.46966 0.07843 0.0
H573 H 0.38199 0.5392 0.06114 0.0
C574 C 0.37541 0.51377 0.03596 0.0
H575 H 0.32481 0.45683 0.99797 0.0
H576 H 0.20049 0.55429 1.00285 0.0
H577 H 0.23235 0.58003 0.96218 0.0
H578 H 0.29295 0.56644 0.94891 0.0
H579 H 0.32216 0.52724 0.97648 0.0
C580 C 0.33183 0.4858 0.01635 0.0
C581 C 0.29516 0.49391 0.02419 0.0
C582 C 0.27818 0.51667 0.00748 0.0
C583 C 0.24268 0.52395 0.01452 0.0
C584 C 0.22687 0.54727 0.998 0.0
C585 C 0.24496 0.56236 0.97463 0.0
C586 C 0.2791 0.55475 0.96721 0.0
C587 C 0.29563 0.5322 0.98333 0.0
H588 H 0.54223 0.36721 0.04569 0.0
C589 C 0.51402 0.36349 0.01987 0.0
H590 H 0.45604 0.32292 0.9674 0.0
H591 H 0.51265 0.18625 0.93783 0.0
H592 H 0.50891 0.19873 0.87773 0.0
H593 H 0.49743 0.25461 0.87171 0.0
H594 H 0.48973 0.29845 0.92574 0.0
C595 C 0.48475 0.32775 0.99337 0.0
C596 C 0.49132 0.29356 0.99738 0.0
C597 C 0.49543 0.26782 0.96535 0.0
C598 C 0.50182 0.23531 0.9687 0.0
C599 C 0.50689 0.21086 0.93661 0.0
C600 C 0.50505 0.2178 0.90199 0.0
C601 C 0.49862 0.24928 0.89861 0.0
C602 C 0.49407 0.27417 0.92985 0.0
H603 H 0.44713 0.15569 0.96469 0.0
C604 C 0.47865 0.15894 0.986 0.0
H605 H 0.54212 0.19947 0.03155 0.0
H606 H 0.47781 0.33303 0.06193 0.0
H607 H 0.48219 0.32066 0.12208 0.0
H608 H 0.49707 0.26635 0.12929 0.0
H609 H 0.50702 0.22372 0.076 0.0
C610 C 0.51107 0.19435 0.00809 0.0
C611 C 0.50394 0.22825 0.00404 0.0
C612 C 0.49972 0.25384 0.03601 0.0
C613 C 0.49252 0.28599 0.03238 0.0
C614 C 0.48548 0.30935 0.06375 0.0
C615 C 0.4874 0.30232 0.09834 0.0
C616 C 0.49568 0.2717 0.10236 0.0
C617 C 0.50148 0.24752 0.07157 0.0
H618 H 0.87971 0.55905 0.03504 0.0
C619 C 0.87356 0.53768 0.00624 0.0
H620 H 0.82434 0.50712 0.94364 0.0
H621 H 0.6999 0.50794 0.04947 0.0
H622 H 0.72825 0.46604 0.0722 0.0
H623 H 0.7864 0.45171 0.05443 0.0
H624 H 0.81675 0.47948 0.01417 0.0
C625 C 0.83058 0.52167 0.97532 0.0
C626 C 0.79406 0.52886 0.98441 0.0
C627 C 0.77609 0.51178 0.00738 0.0
C628 C 0.74176 0.51927 0.01673 0.0
C629 C 0.72527 0.50263 0.04065 0.0
C630 C 0.74138 0.47859 0.05406 0.0
C631 C 0.77417 0.47058 0.04414 0.0
C632 C 0.79142 0.48686 0.02108 0.0
H633 H 0.63891 0.49706 0.96687 0.0
C634 C 0.6452 0.52228 0.99214 0.0
H635 H 0.69519 0.57944 0.03035 0.0
H636 H 0.82142 0.56623 0.94002 0.0
H637 H 0.79193 0.60717 0.91601 0.0
H638 H 0.73129 0.61912 0.931 0.0
H639 H 0.69989 0.59035 0.97027 0.0
C640 C 0.68851 0.55067 0.01161 0.0
C641 C 0.72495 0.54332 1.00249 0.0
C642 C 0.74279 0.56024 0.97939 0.0
C643 C 0.77735 0.55296 0.97029 0.0
C644 C 0.79481 0.57046 0.94742 0.0
C645 C 0.77824 0.59408 0.93351 0.0
C646 C 0.74413 0.60084 0.94199 0.0
C647 C 0.72646 0.5842 0.96463 0.0
H648 H 0.53969 0.70053 0.04397 0.0
C649 C 0.51837 0.67659 0.01461 0.0
H650 H 0.47466 0.66125 0.95358 0.0
H651 H 0.48139 0.83003 0.05351 0.0
H652 H 0.44435 0.79897 0.08804 0.0
H653 H 0.43117 0.73269 0.07649 0.0
H654 H 0.45576 0.69727 0.03096 0.0
C655 C 0.49585 0.68379 0.98372 0.0
C656 C 0.50103 0.72336 0.98897 0.0
C657 C 0.48491 0.74336 0.0145 0.0
C658 C 0.49067 0.78116 0.01969 0.0
C659 C 0.47637 0.8009 0.04711 0.0
C660 C 0.45528 0.78348 0.06737 0.0
C661 C 0.44801 0.7462 0.06099 0.0
C662 C 0.46255 0.72625 0.03492 0.0
H663 H 0.44893 0.82416 0.97548 0.0
C664 C 0.48203 0.84691 0.98925 0.0
H665 H 0.55073 0.85947 0.01601 0.0
H666 H 0.53564 0.69361 0.93772 0.0
H667 H 0.57027 0.72383 0.90119 0.0
H668 H 0.57772 0.78817 0.90813 0.0
H669 H 0.55078 0.82284 0.95179 0.0
C670 C 0.51694 0.83826 1.00291 0.0
C671 C 0.51087 0.79858 0.99801 0.0
C672 C 0.52644 0.77837 0.97212 0.0
C673 C 0.52158 0.74092 0.96765 0.0
C674 C 0.53797 0.72184 0.94189 0.0
C675 C 0.558 0.73888 0.92078 0.0
C676 C 0.56225 0.77513 0.92473 0.0
C677 C 0.54671 0.79476 0.95 0.0
loop_
_geom_bond_atom_site_label_1
_geom_bond_atom_site_label_2
_geom_bond_distance
_geom_bond_site_symmetry_2
_ccdc_geom_bond_type
C0 C1 1.443 . S
C0 N4 1.376 . S
C0 C38 1.388 1_565 S
C1 C0 1.443 . S
C1 C2 1.340 . S
C1 H41 0.951 . S
C2 C1 1.340 . S
C2 C3 1.439 . S
C2 H42 0.950 . S
C3 C2 1.439 . S
C3 N4 1.374 . S
C3 C37 1.395 . S
N4 C0 1.376 . S
N4 C3 1.374 . S
N4 Co5 1.992 1_665 S
Co5 N4 1.992 1_445 S
Co5 N6 2.011 1_545 S
Co5 N11 2.024 . S
Co5 N16 1.979 1_455 S
Co5 N21 2.287 1_445 S
Co5 N27 2.278 . S
N6 Co5 2.011 1_565 S
N6 C7 1.377 . S
N6 C10 1.383 . S
C7 N6 1.377 . S
C7 C8 1.455 . S
C7 C37 1.383 1_455 S
C8 C7 1.455 . S
C8 C9 1.339 . S
C8 H43 0.949 . S
C9 C8 1.339 . S
C9 C10 1.439 . S
C9 H44 0.950 . S
C10 N6 1.383 . S
C10 C9 1.439 . S
C10 C39 1.392 1_565 S
N11 Co5 2.024 . S
N11 C12 1.376 . S
N11 C15 1.374 . S
C12 N11 1.376 . S
C12 C13 1.443 . S
C12 C39 1.389 . S
C13 C12 1.443 . S
C13 C14 1.340 . S
C13 H45 0.951 . S
C14 C13 1.340 . S
C14 C15 1.439 . S
C14 H46 0.950 . S
C15 N11 1.374 . S
C15 C14 1.439 . S
C15 C40 1.395 . S
N16 Co5 1.979 1_655 S
N16 C17 1.376 1_655 S
N16 C20 1.383 . S
C17 N16 1.376 1_455 S
C17 C18 1.446 1_455 S
C17 C40 1.391 . S
C18 C17 1.446 1_655 S
C18 C19 1.339 . S
C18 H47 0.949 . S
C19 C18 1.339 . S
C19 C20 1.439 . S
C19 H48 0.950 . S
C20 N16 1.383 . S
C20 C19 1.439 . S
C20 C38 1.391 . S
N21 Co5 2.287 1_665 S
N21 C24 1.332 1_655 S
N21 C26 1.332 . S
C22 C23 1.389 1_655 S
C22 C25 1.388 . S
C23 C22 1.389 1_455 S
C23 C24 1.384 . S
C23 H49 0.950 . S
C24 N21 1.332 1_455 S
C24 C23 1.384 . S
C24 H35 0.949 . S
C25 C22 1.388 . S
C25 C26 1.382 . S
C25 H50 0.950 . S
C26 N21 1.332 . S
C26 C25 1.382 . S
C26 H36 0.948 . S
N27 Co5 2.278 . S
N27 C31 1.332 . S
N27 C32 1.332 . S
C28 C29 1.388 . S
C28 C32 1.382 . S
C28 H51 0.950 . S
C29 C28 1.388 . S
C29 C30 1.386 1_455 S
C30 C29 1.386 1_655 S
C30 C31 1.382 1_655 S
C30 H52 0.950 . S
C31 N27 1.332 . S
C31 C30 1.382 1_455 S
C31 H33 0.952 1_455 S
C32 N27 1.332 . S
C32 C28 1.382 . S
C32 H34 0.948 . S
H33 C31 0.952 1_655 S
H34 C32 0.948 . S
H35 C24 0.949 . S
H36 C26 0.948 . S
C37 C3 1.395 . S
C37 C7 1.383 1_655 S
C38 C0 1.388 1_545 S
C38 C20 1.391 . S
C39 C10 1.392 1_545 S
C39 C12 1.389 . S
C40 C15 1.395 . S
C40 C17 1.391 . S
H41 C1 0.951 . S
H42 C2 0.950 . S
H43 C8 0.949 . S
H44 C9 0.950 . S
H45 C13 0.951 . S
H46 C14 0.950 . S
H47 C18 0.949 . S
H48 C19 0.950 . S
H49 C23 0.950 . S
H50 C25 0.950 . S
H51 C28 0.950 . S
H52 C30 0.950 . S
C53 C54 1.443 . S
C53 N57 1.376 . S
C53 C91 1.389 . S
C54 C53 1.443 . S
C54 C55 1.340 . S
C54 H94 0.951 . S
C55 C54 1.340 . S
C55 C56 1.439 . S
C55 H95 0.950 . S
C56 C55 1.439 . S
C56 N57 1.374 . S
C56 C90 1.395 . S
N57 C53 1.376 . S
N57 C56 1.374 . S
N57 Co58 2.028 . S
Co58 N57 2.028 . S
Co58 N59 1.975 1_554 S
Co58 N64 1.989 1_544 S
Co58 N69 2.014 1_545 S
Co58 N74 2.277 . S
Co58 N80 2.288 1_544 S
N59 Co58 1.975 1_556 S
N59 C60 1.376 1_556 S
N59 C63 1.383 . S
C60 N59 1.376 1_554 S
C60 C61 1.446 1_554 S
C60 C90 1.391 . S
C61 C60 1.446 1_556 S
C61 C62 1.339 . S
C61 H96 0.949 . S
C62 C61 1.339 . S
C62 C63 1.439 . S
C62 H97 0.950 . S
C63 N59 1.383 . S
C63 C62 1.439 . S
C63 C92 1.392 . S
N64 Co58 1.989 1_566 S
N64 C65 1.376 . S
N64 C68 1.374 . S
C65 N64 1.376 . S
C65 C66 1.443 . S
C65 C92 1.389 1_565 S
C66 C65 1.443 . S
C66 C67 1.340 . S
C66 H98 0.951 . S
C67 C66 1.340 . S
C67 C68 1.439 . S
C67 H99 0.950 . S
C68 N64 1.374 . S
C68 C67 1.439 . S
C68 C93 1.395 . S
N69 Co58 2.014 1_565 S
N69 C70 1.378 . S
N69 C73 1.383 . S
C70 N69 1.378 . S
C70 C71 1.459 . S
C70 C93 1.378 1_554 S
C71 C70 1.459 . S
C71 C72 1.339 . S
C71 H100 0.949 . S
C72 C71 1.339 . S
C72 C73 1.439 . S
C72 H101 0.950 . S
C73 N69 1.383 . S
C73 C72 1.439 . S
C73 C91 1.392 1_565 S
N74 Co58 2.277 . S
N74 C77 1.332 . S
N74 C79 1.332 . S
C75 C76 1.386 1_554 S
C75 C78 1.388 . S
C76 C75 1.386 1_556 S
C76 C77 1.382 1_556 S
C76 H102 0.950 . S
C77 N74 1.332 . S
C77 C76 1.382 1_554 S
C77 H88 0.952 1_554 S
C78 C75 1.388 . S
C78 C79 1.382 . S
C78 H103 0.950 . S
C79 N74 1.332 . S
C79 C78 1.382 . S
C79 H89 0.948 . S
N80 Co58 2.288 1_566 S
N80 C84 1.332 1_556 S
N80 C85 1.332 . S
C81 C82 1.388 . S
C81 C85 1.382 . S
C81 H104 0.950 . S
C82 C81 1.388 . S
C82 C83 1.387 1_556 S
C83 C82 1.387 1_554 S
C83 C84 1.386 . S
C83 H105 0.950 . S
C84 N80 1.332 1_554 S
C84 C83 1.386 . S
C84 H86 0.947 . S
C85 N80 1.332 . S
C85 C81 1.382 . S
C85 H87 0.948 . S
H86 C84 0.947 . S
H87 C85 0.948 . S
H88 C77 0.952 1_556 S
H89 C79 0.948 . S
C90 C56 1.395 . S
C90 C60 1.391 . S
C91 C53 1.389 . S
C91 C73 1.392 1_545 S
C92 C63 1.392 . S
C92 C65 1.389 1_545 S
C93 C68 1.395 . S
C93 C70 1.378 1_556 S
H94 C54 0.951 . S
H95 C55 0.950 . S
H96 C61 0.949 . S
H97 C62 0.950 . S
H98 C66 0.951 . S
H99 C67 0.950 . S
H100 C71 0.949 . S
H101 C72 0.950 . S
H102 C76 0.950 . S
H103 C78 0.950 . S
H104 C81 0.950 . S
H105 C83 0.950 . S
C106 C107 1.443 . S
C106 N110 1.376 . S
C106 C144 1.389 . S
C107 C106 1.443 . S
C107 C108 1.340 . S
C107 H147 0.951 . S
C108 C107 1.340 . S
C108 C109 1.439 . S
C108 H148 0.950 . S
C109 C108 1.439 . S
C109 N110 1.374 . S
C109 C143 1.395 . S
N110 C106 1.376 . S
N110 C109 1.374 . S
N110 Co111 2.018 . S
Co111 N110 2.018 . S
Co111 N112 1.982 1_455 S
Co111 N117 1.999 1_454 S
Co111 N122 2.008 1_554 S
Co111 N127 2.307 . S
Co111 N133 2.258 1_454 S
N112 Co111 1.982 1_655 S
N112 C113 1.376 1_655 S
N112 C116 1.383 . S
C113 N112 1.376 1_455 S
C113 C114 1.446 1_455 S
C113 C143 1.391 . S
C114 C113 1.446 1_655 S
C114 C115 1.339 . S
C114 H149 0.949 . S
C115 C114 1.339 . S
C115 C116 1.439 . S
C115 H150 0.950 . S
C116 N112 1.383 . S
C116 C115 1.439 . S
C116 C145 1.396 1_554 S
N117 Co111 1.999 1_656 S
N117 C118 1.376 . S
N117 C121 1.374 . S
C118 N117 1.376 . S
C118 C119 1.443 . S
C118 C145 1.390 . S
C119 C118 1.443 . S
C119 C120 1.340 . S
C119 H151 0.951 . S
C120 C119 1.340 . S
C120 C121 1.439 . S
C120 H152 0.950 . S
C121 N117 1.374 . S
C121 C120 1.439 . S
C121 C146 1.395 . S
N122 Co111 2.008 1_556 S
N122 C123 1.377 . S
N122 C126 1.383 . S
C123 N122 1.377 . S
C123 C124 1.454 . S
C123 C146 1.383 1_455 S
C124 C123 1.454 . S
C124 C125 1.339 . S
C124 H153 0.949 . S
C125 C124 1.339 . S
C125 C126 1.439 . S
C125 H154 0.950 . S
C126 N122 1.383 . S
C126 C125 1.439 . S
C126 C144 1.392 1_556 S
N127 Co111 2.307 . S
N127 C130 1.332 . S
N127 C132 1.332 . S
C128 C129 1.386 1_455 S
C128 C131 1.388 . S
C129 C128 1.386 1_655 S
C129 C130 1.382 1_655 S
C129 H155 0.950 . S
C130 N127 1.332 . S
C130 C129 1.382 1_455 S
C130 H141 0.952 1_455 S
C131 C128 1.388 . S
C131 C132 1.382 . S
C131 H156 0.950 . S
C132 N127 1.332 . S
C132 C131 1.382 . S
C132 H142 0.948 . S
N133 Co111 2.258 1_656 S
N133 C137 1.332 1_655 S
N133 C138 1.332 . S
C134 C135 1.388 . S
C134 C138 1.382 . S
C134 H157 0.950 . S
C135 C134 1.388 . S
C135 C136 1.390 1_655 S
C136 C135 1.390 1_455 S
C136 C137 1.384 . S
C136 H158 0.950 . S
C137 N133 1.332 1_455 S
C137 C136 1.384 . S
C137 H139 0.949 . S
C138 N133 1.332 . S
C138 C134 1.382 . S
C138 H140 0.948 . S
H139 C137 0.949 . S
H140 C138 0.948 . S
H141 C130 0.952 1_655 S
H142 C132 0.948 . S
C143 C109 1.395 . S
C143 C113 1.391 . S
C144 C106 1.389 . S
C144 C126 1.392 1_554 S
C145 C116 1.396 1_556 S
C145 C118 1.390 . S
C146 C121 1.395 . S
C146 C123 1.383 1_655 S
H147 C107 0.951 . S
H148 C108 0.950 . S
H149 C114 0.949 . S
H150 C115 0.950 . S
H151 C119 0.951 . S
H152 C120 0.950 . S
H153 C124 0.949 . S
H154 C125 0.950 . S
H155 C129 0.950 . S
H156 C131 0.950 . S
H157 C134 0.950 . S
H158 C136 0.950 . S
C159 C160 1.443 . S
C159 N163 1.376 . S
C159 C197 1.383 1_556 S
C160 C159 1.443 . S
C160 C161 1.340 . S
C160 H200 0.951 . S
C161 C160 1.340 . S
C161 C162 1.439 . S
C161 H201 0.950 . S
C162 C161 1.439 . S
C162 N163 1.374 . S
C162 C196 1.395 . S
N163 C159 1.376 . S
N163 C162 1.374 . S
N163 Co164 1.985 1_556 S
Co164 N163 1.985 1_554 S
Co164 N165 1.985 1_554 S
Co164 N170 2.031 . S
Co164 N175 2.005 . S
Co164 N180 2.272 1_554 S
Co164 N186 2.293 . S
N165 Co164 1.985 1_556 S
N165 C166 1.376 . S
N165 C169 1.383 . S
C166 N165 1.376 . S
C166 C167 1.446 . S
C166 C196 1.391 . S
C167 C166 1.446 . S
C167 C168 1.339 . S
C167 H202 0.949 . S
C168 C167 1.339 . S
C168 C169 1.439 . S
C168 H203 0.950 . S
C169 N165 1.383 . S
C169 C168 1.439 . S
C169 C198 1.392 1_556 S
N170 Co164 2.031 . S
N170 C171 1.376 . S
N170 C174 1.374 . S
C171 N170 1.376 . S
C171 C172 1.443 . S
C171 C198 1.389 . S
C172 C171 1.443 . S
C172 C173 1.340 . S
C172 H204 0.951 . S
C173 C172 1.340 . S
C173 C174 1.439 . S
C173 H205 0.950 . S
C174 N170 1.374 . S
C174 C173 1.439 . S
C174 C199 1.395 . S
N175 Co164 2.005 . S
N175 C176 1.376 . S
N175 C179 1.383 . S
C176 N175 1.376 . S
C176 C177 1.446 . S
C176 C199 1.391 . S
C177 C176 1.446 . S
C177 C178 1.339 . S
C177 H206 0.949 . S
C178 C177 1.339 . S
C178 C179 1.439 . S
C178 H207 0.950 . S
C179 N175 1.383 . S
C179 C178 1.439 . S
C179 C197 1.400 . S
N180 Co164 2.272 1_556 S
N180 C183 1.332 1_556 S
N180 C185 1.332 . S
C181 C182 1.395 . S
C181 C184 1.382 1_554 S
C182 C181 1.395 . S
C182 C183 1.382 . S
C182 H208 0.950 . S
C183 N180 1.332 1_554 S
C183 C182 1.382 . S
C183 H194 0.952 . S
C184 C181 1.382 1_556 S
C184 C185 1.382 . S
C184 H209 0.950 . S
C185 N180 1.332 . S
C185 C184 1.382 . S
C185 H195 0.948 . S
N186 Co164 2.293 . S
N186 C190 1.332 1_554 S
N186 C191 1.332 . S
C187 C188 1.388 . S
C187 C191 1.382 . S
C187 H210 0.950 . S
C188 C187 1.388 . S
C188 C189 1.386 1_554 S
C189 C188 1.386 1_556 S
C189 C190 1.382 . S
C189 H211 0.950 . S
C190 N186 1.332 1_556 S
C190 C189 1.382 . S
C190 H192 0.952 . S
C191 N186 1.332 . S
C191 C187 1.382 . S
C191 H193 0.948 . S
H192 C190 0.952 . S
H193 C191 0.948 . S
H194 C183 0.952 . S
H195 C185 0.948 . S
C196 C162 1.395 . S
C196 C166 1.391 . S
C197 C159 1.383 1_554 S
C197 C179 1.400 . S
C198 C169 1.392 1_554 S
C198 C171 1.389 . S
C199 C174 1.395 . S
C199 C176 1.391 . S
H200 C160 0.951 . S
H201 C161 0.950 . S
H202 C167 0.949 . S
H203 C168 0.950 . S
H204 C172 0.951 . S
H205 C173 0.950 . S
H206 C177 0.949 . S
H207 C178 0.950 . S
H208 C182 0.950 . S
H209 C184 0.950 . S
H210 C187 0.950 . S
H211 C189 0.950 . S
C212 C213 1.443 . S
C212 N216 1.376 . S
C212 C250 1.389 . S
C213 C212 1.443 . S
C213 C214 1.340 . S
C213 H253 0.951 . S
C214 C213 1.340 . S
C214 C215 1.439 . S
C214 H254 0.950 . S
C215 C214 1.439 . S
C215 N216 1.374 . S
C215 C249 1.395 . S
N216 C212 1.376 . S
N216 C215 1.374 . S
N216 Co217 2.018 . S
Co217 N216 2.018 . S
Co217 N218 2.014 . S
Co217 N223 1.999 1_455 S
Co217 N228 1.975 1_455 S
Co217 N233 2.276 . S
Co217 N239 2.289 1_455 S
N218 Co217 2.014 . S
N218 C219 1.376 . S
N218 C222 1.383 . S
C219 N218 1.376 . S
C219 C220 1.446 . S
C219 C249 1.391 . S
C220 C219 1.446 . S
C220 C221 1.339 . S
C220 H255 0.949 . S
C221 C220 1.339 . S
C221 C222 1.439 . S
C221 H256 0.950 . S
C222 N218 1.383 . S
C222 C221 1.439 . S
C222 C251 1.394 . S
N223 Co217 1.999 1_655 S
N223 C224 1.376 . S
N223 C227 1.374 . S
C224 N223 1.376 . S
C224 C225 1.443 . S
C224 C251 1.385 1_655 S
C225 C224 1.443 . S
C225 C226 1.340 . S
C225 H257 0.951 . S
C226 C225 1.340 . S
C226 C227 1.439 . S
C226 H258 0.950 . S
C227 N223 1.374 . S
C227 C226 1.439 . S
C227 C252 1.395 . S
N228 Co217 1.975 1_655 S
N228 C229 1.376 . S
N228 C232 1.383 . S
C229 N228 1.376 . S
C229 C230 1.446 . S
C229 C252 1.391 . S
C230 C229 1.446 . S
C230 C231 1.339 . S
C230 H259 0.949 . S
C231 C230 1.339 . S
C231 C232 1.439 . S
C231 H260 0.950 . S
C232 N228 1.383 . S
C232 C231 1.439 . S
C232 C250 1.392 1_655 S
N233 Co217 2.276 . S
N233 C236 1.332 1_455 S
N233 C238 1.332 . S
C234 C235 1.386 1_455 S
C234 C237 1.388 . S
C235 C234 1.386 1_655 S
C235 C236 1.382 . S
C235 H261 0.950 . S
C236 N233 1.332 1_655 S
C236 C235 1.382 . S
C236 H247 0.952 . S
C237 C234 1.388 . S
C237 C238 1.382 . S
C237 H262 0.950 . S
C238 N233 1.332 . S
C238 C237 1.382 . S
C238 H248 0.948 . S
N239 Co217 2.289 1_655 S
N239 C243 1.332 1_655 S
N239 C244 1.332 . S
C240 C241 1.382 1_655 S
C240 C244 1.382 . S
C240 H263 0.950 . S
C241 C240 1.382 1_455 S
C241 C242 1.390 . S
C242 C241 1.390 . S
C242 C243 1.382 . S
C242 H264 0.950 . S
C243 N239 1.332 1_455 S
C243 C242 1.382 . S
C243 H245 0.952 . S
C244 N239 1.332 . S
C244 C240 1.382 . S
C244 H246 0.948 . S
H245 C243 0.952 . S
H246 C244 0.948 . S
H247 C236 0.952 . S
H248 C238 0.948 . S
C249 C215 1.395 . S
C249 C219 1.391 . S
C250 C212 1.389 . S
C250 C232 1.392 1_455 S
C251 C222 1.394 . S
C251 C224 1.385 1_455 S
C252 C227 1.395 . S
C252 C229 1.391 . S
H253 C213 0.951 . S
H254 C214 0.950 . S
H255 C220 0.949 . S
H256 C221 0.950 . S
H257 C225 0.951 . S
H258 C226 0.950 . S
H259 C230 0.949 . S
H260 C231 0.950 . S
H261 C235 0.950 . S
H262 C237 0.950 . S
H263 C240 0.950 . S
H264 C242 0.950 . S
C265 C266 1.443 . S
C265 N269 1.376 . S
C265 C303 1.389 . S
C266 C265 1.443 . S
C266 C267 1.340 . S
C266 H306 0.951 . S
C267 C266 1.340 . S
C267 C268 1.439 . S
C267 H307 0.950 . S
C268 C267 1.439 . S
C268 N269 1.374 . S
C268 C302 1.395 . S
N269 C265 1.376 . S
N269 C268 1.374 . S
N269 Co270 2.008 . S
Co270 N269 2.008 . S
Co270 N271 1.995 . S
Co270 N276 2.008 1_545 S
Co270 N281 1.995 1_545 S
Co270 N286 2.282 . S
Co270 N292 2.282 1_545 S
N271 Co270 1.995 . S
N271 C272 1.376 . S
N271 C275 1.383 . S
C272 N271 1.376 . S
C272 C273 1.446 . S
C272 C302 1.391 . S
C273 C272 1.446 . S
C273 C274 1.339 . S
C273 H308 0.949 . S
C274 C273 1.339 . S
C274 C275 1.439 . S
C274 H309 0.950 . S
C275 N271 1.383 . S
C275 C274 1.439 . S
C275 C304 1.415 . S
N276 Co270 2.008 1_565 S
N276 C277 1.376 . S
N276 C280 1.374 . S
C277 N276 1.376 . S
C277 C278 1.443 . S
C277 C304 1.357 1_565 S
C278 C277 1.443 . S
C278 C279 1.340 . S
C278 H310 0.951 . S
C279 C278 1.340 . S
C279 C280 1.439 . S
C279 H311 0.950 . S
C280 N276 1.374 . S
C280 C279 1.439 . S
C280 C305 1.395 . S
N281 Co270 1.995 1_565 S
N281 C282 1.376 . S
N281 C285 1.383 . S
C282 N281 1.376 . S
C282 C283 1.446 . S
C282 C305 1.391 . S
C283 C282 1.446 . S
C283 C284 1.339 . S
C283 H312 0.949 . S
C284 C283 1.339 . S
C284 C285 1.439 . S
C284 H313 0.950 . S
C285 N281 1.383 . S
C285 C284 1.439 . S
C285 C303 1.392 1_565 S
N286 Co270 2.282 . S
N286 C289 1.332 1_545 S
N286 C291 1.332 . S
C287 C288 1.386 1_545 S
C287 C290 1.388 . S
C288 C287 1.386 1_565 S
C288 C289 1.382 . S
C288 H314 0.950 . S
C289 N286 1.332 1_565 S
C289 C288 1.382 . S
C289 H300 0.952 . S
C290 C287 1.388 . S
C290 C291 1.382 . S
C290 H315 0.950 . S
C291 N286 1.332 . S
C291 C290 1.382 . S
C291 H301 0.948 . S
N292 Co270 2.282 1_565 S
N292 C296 1.332 1_565 S
N292 C297 1.332 . S
C293 C294 1.388 1_565 S
C293 C297 1.382 . S
C293 H316 0.950 . S
C294 C293 1.388 1_545 S
C294 C295 1.386 . S
C295 C294 1.386 . S
C295 C296 1.382 . S
C295 H317 0.950 . S
C296 N292 1.332 1_545 S
C296 C295 1.382 . S
C296 H298 0.952 . S
C297 N292 1.332 . S
C297 C293 1.382 . S
C297 H299 0.948 . S
H298 C296 0.952 . S
H299 C297 0.948 . S
H300 C289 0.952 . S
H301 C291 0.948 . S
C302 C268 1.395 . S
C302 C272 1.391 . S
C303 C265 1.389 . S
C303 C285 1.392 1_545 S
C304 C275 1.415 . S
C304 C277 1.357 1_545 S
C305 C280 1.395 . S
C305 C282 1.391 . S
H306 C266 0.951 . S
H307 C267 0.950 . S
H308 C273 0.949 . S
H309 C274 0.950 . S
H310 C278 0.951 . S
H311 C279 0.950 . S
H312 C283 0.949 . S
H313 C284 0.950 . S
H314 C288 0.950 . S
H315 C290 0.950 . S
H316 C293 0.950 . S
H317 C295 0.950 . S
H318 C319 0.951 . S
C319 H318 0.951 . S
C319 C325 1.265 1_655 S
H320 C325 0.950 . S
H321 C329 0.949 . S
H322 C330 0.950 . S
H323 C331 0.951 . S
H324 C332 0.951 . S
C325 C319 1.265 1_455 S
C325 H320 0.950 . S
C325 C326 1.478 . S
C326 C325 1.478 . S
C326 C327 1.397 . S
C326 C343 1.394 1_455 S
C327 C326 1.397 . S
C327 C328 1.438 . S
C327 C332 1.429 . S
C328 C327 1.438 . S
C328 C329 1.428 . S
C328 C341 1.394 1_455 S
C329 H321 0.949 . S
C329 C328 1.428 . S
C329 C330 1.345 . S
C330 H322 0.950 . S
C330 C329 1.345 . S
C330 C331 1.424 . S
C331 H323 0.951 . S
C331 C330 1.424 . S
C331 C332 1.347 . S
C332 H324 0.951 . S
C332 C327 1.429 . S
C332 C331 1.347 . S
H333 C334 0.951 . S
C334 H333 0.951 . S
C334 C340 1.265 1_455 S
H335 C340 0.950 . S
H336 C344 0.949 . S
H337 C345 0.950 . S
H338 C346 0.951 . S
H339 C347 0.951 . S
C340 C334 1.265 1_655 S
C340 H335 0.950 . S
C340 C341 1.478 . S
C341 C328 1.394 1_655 S
C341 C340 1.478 . S
C341 C342 1.397 . S
C342 C341 1.397 . S
C342 C343 1.438 . S
C342 C347 1.429 . S
C343 C326 1.394 1_655 S
C343 C342 1.438 . S
C343 C344 1.428 . S
C344 H336 0.949 . S
C344 C343 1.428 . S
C344 C345 1.345 . S
C345 H337 0.950 . S
C345 C344 1.345 . S
C345 C346 1.424 . S
C346 H338 0.951 . S
C346 C345 1.424 . S
C346 C347 1.347 . S
C347 H339 0.951 . S
C347 C342 1.429 . S
C347 C346 1.347 . S
H348 C349 0.949 . S
C349 H348 0.949 . S
C349 C355 1.267 1_565 S
H350 C355 0.950 . S
H351 C359 0.949 . S
H352 C360 0.950 . S
H353 C361 0.951 . S
H354 C362 0.951 . S
C355 C349 1.267 1_545 S
C355 H350 0.950 . S
C355 C356 1.478 . S
C356 C355 1.478 . S
C356 C357 1.397 1_545 S
C356 C373 1.394 . S
C357 C356 1.397 1_565 S
C357 C358 1.438 . S
C357 C362 1.429 . S
C358 C357 1.438 . S
C358 C359 1.428 . S
C358 C371 1.398 . S
C359 H351 0.949 . S
C359 C358 1.428 . S
C359 C360 1.345 . S
C360 H352 0.950 . S
C360 C359 1.345 . S
C360 C361 1.424 . S
C361 H353 0.951 . S
C361 C360 1.424 . S
C361 C362 1.347 . S
C362 H354 0.951 . S
C362 C357 1.429 . S
C362 C361 1.347 . S
H363 C364 0.951 . S
C364 H363 0.951 . S
C364 C370 1.265 1_545 S
H365 C370 0.950 . S
H366 C374 0.949 . S
H367 C375 0.950 . S
H368 C376 0.951 . S
H369 C377 0.951 . S
C370 C364 1.265 1_565 S
C370 H365 0.950 . S
C370 C371 1.477 . S
C371 C358 1.398 . S
C371 C370 1.477 . S
C371 C372 1.394 1_565 S
C372 C371 1.394 1_545 S
C372 C373 1.438 . S
C372 C377 1.429 . S
C373 C356 1.394 . S
C373 C372 1.438 . S
C373 C374 1.428 . S
C374 H366 0.949 . S
C374 C373 1.428 . S
C374 C375 1.345 . S
C375 H367 0.950 . S
C375 C374 1.345 . S
C375 C376 1.424 . S
C376 H368 0.951 . S
C376 C375 1.424 . S
C376 C377 1.347 . S
C377 H369 0.951 . S
C377 C372 1.429 . S
C377 C376 1.347 . S
H378 C379 0.951 . S
C379 H378 0.951 . S
C379 C385 1.265 1_655 S
H380 C385 0.950 . S
H381 C389 0.949 . S
H382 C390 0.950 . S
H383 C391 0.951 . S
H384 C392 0.951 . S
C385 C379 1.265 1_455 S
C385 H380 0.950 . S
C385 C386 1.478 . S
C386 C385 1.478 . S
C386 C387 1.397 . S
C386 C403 1.394 1_455 S
C387 C386 1.397 . S
C387 C388 1.438 . S
C387 C392 1.429 . S
C388 C387 1.438 . S
C388 C389 1.428 . S
C388 C401 1.394 1_455 S
C389 H381 0.949 . S
C389 C388 1.428 . S
C389 C390 1.345 . S
C390 H382 0.950 . S
C390 C389 1.345 . S
C390 C391 1.424 . S
C391 H383 0.951 . S
C391 C390 1.424 . S
C391 C392 1.347 . S
C392 H384 0.951 . S
C392 C387 1.429 . S
C392 C391 1.347 . S
H393 C394 0.951 . S
C394 H393 0.951 . S
C394 C400 1.265 1_455 S
H395 C400 0.950 . S
H396 C404 0.949 . S
H397 C405 0.950 . S
H398 C406 0.951 . S
H399 C407 0.951 . S
C400 C394 1.265 1_655 S
C400 H395 0.950 . S
C400 C401 1.478 . S
C401 C388 1.394 1_655 S
C401 C400 1.478 . S
C401 C402 1.397 . S
C402 C401 1.397 . S
C402 C403 1.438 . S
C402 C407 1.429 . S
C403 C386 1.394 1_655 S
C403 C402 1.438 . S
C403 C404 1.428 . S
C404 H396 0.949 . S
C404 C403 1.428 . S
C404 C405 1.345 . S
C405 H397 0.950 . S
C405 C404 1.345 . S
C405 C406 1.424 . S
C406 H398 0.951 . S
C406 C405 1.424 . S
C406 C407 1.347 . S
C407 H399 0.951 . S
C407 C402 1.429 . S
C407 C406 1.347 . S
H408 C409 0.951 . S
C409 H408 0.951 . S
C409 C415 1.265 1_545 S
H410 C415 0.950 . S
H411 C419 0.949 . S
H412 C420 0.950 . S
H413 C421 0.951 . S
H414 C422 0.951 . S
C415 C409 1.265 1_565 S
C415 H410 0.950 . S
C415 C416 1.478 . S
C416 C415 1.478 . S
C416 C417 1.397 . S
C416 C433 1.394 1_565 S
C417 C416 1.397 . S
C417 C418 1.438 . S
C417 C422 1.429 . S
C418 C417 1.438 . S
C418 C419 1.428 . S
C418 C431 1.394 1_565 S
C419 H411 0.949 . S
C419 C418 1.428 . S
C419 C420 1.345 . S
C420 H412 0.950 . S
C420 C419 1.345 . S
C420 C421 1.424 . S
C421 H413 0.951 . S
C421 C420 1.424 . S
C421 C422 1.347 . S
C422 H414 0.951 . S
C422 C417 1.429 . S
C422 C421 1.347 . S
H423 C424 0.951 . S
C424 H423 0.951 . S
C424 C430 1.265 1_565 S
H425 C430 0.950 . S
H426 C434 0.949 . S
H427 C435 0.950 . S
H428 C436 0.951 . S
H429 C437 0.951 . S
C430 C424 1.265 1_545 S
C430 H425 0.950 . S
C430 C431 1.478 . S
C431 C418 1.394 1_545 S
C431 C430 1.478 . S
C431 C432 1.397 . S
C432 C431 1.397 . S
C432 C433 1.438 . S
C432 C437 1.429 . S
C433 C416 1.394 1_545 S
C433 C432 1.438 . S
C433 C434 1.428 . S
C434 H426 0.949 . S
C434 C433 1.428 . S
C434 C435 1.345 . S
C435 H427 0.950 . S
C435 C434 1.345 . S
C435 C436 1.424 . S
C436 H428 0.951 . S
C436 C435 1.424 . S
C436 C437 1.347 . S
C437 H429 0.951 . S
C437 C432 1.429 . S
C437 C436 1.347 . S
H438 C439 0.951 . S
C439 H438 0.951 . S
C439 C445 1.276 1_545 S
H440 C445 0.944 . S
H441 C449 0.949 . S
H442 C450 0.950 . S
H443 C451 0.951 . S
H444 C452 0.951 . S
C445 C439 1.276 1_565 S
C445 H440 0.944 . S
C445 C446 1.471 1_565 S
C446 C445 1.471 1_545 S
C446 C447 1.403 . S
C446 C463 1.389 1_545 S
C447 C446 1.403 . S
C447 C448 1.438 . S
C447 C452 1.429 . S
C448 C447 1.438 . S
C448 C449 1.428 . S
C448 C461 1.394 . S
C449 H441 0.949 . S
C449 C448 1.428 . S
C449 C450 1.345 . S
C450 H442 0.950 . S
C450 C449 1.345 . S
C450 C451 1.424 . S
C451 H443 0.951 . S
C451 C450 1.424 . S
C451 C452 1.347 . S
C452 H444 0.951 . S
C452 C447 1.429 . S
C452 C451 1.347 . S
H453 C454 0.953 1_565 S
C454 H453 0.953 1_545 S
C454 C460 1.261 . S
H455 C460 0.950 . S
H456 C464 0.949 . S
H457 C465 0.950 . S
H458 C466 0.951 . S
H459 C467 0.951 . S
C460 C454 1.261 . S
C460 H455 0.950 . S
C460 C461 1.478 . S
C461 C448 1.394 . S
C461 C460 1.478 . S
C461 C462 1.397 1_545 S
C462 C461 1.397 1_565 S
C462 C463 1.438 . S
C462 C467 1.429 . S
C463 C446 1.389 1_565 S
C463 C462 1.438 . S
C463 C464 1.428 . S
C464 H456 0.949 . S
C464 C463 1.428 . S
C464 C465 1.345 . S
C465 H457 0.950 . S
C465 C464 1.345 . S
C465 C466 1.424 . S
C466 H458 0.951 . S
C466 C465 1.424 . S
C466 C467 1.347 . S
C467 H459 0.951 . S
C467 C462 1.429 . S
C467 C466 1.347 . S
H468 C469 0.951 . S
C469 H468 0.951 . S
C469 C475 1.265 1_655 S
H470 C475 0.950 . S
H471 C479 0.949 . S
H472 C480 0.950 . S
H473 C481 0.951 . S
H474 C482 0.951 . S
C475 C469 1.265 1_455 S
C475 H470 0.950 . S
C475 C476 1.478 . S
C476 C475 1.478 . S
C476 C477 1.397 . S
C476 C493 1.394 1_455 S
C477 C476 1.397 . S
C477 C478 1.438 . S
C477 C482 1.429 . S
C478 C477 1.438 . S
C478 C479 1.428 . S
C478 C491 1.394 1_455 S
C479 H471 0.949 . S
C479 C478 1.428 . S
C479 C480 1.345 . S
C480 H472 0.950 . S
C480 C479 1.345 . S
C480 C481 1.424 . S
C481 H473 0.951 . S
C481 C480 1.424 . S
C481 C482 1.347 . S
C482 H474 0.951 . S
C482 C477 1.429 . S
C482 C481 1.347 . S
H483 C484 0.951 . S
C484 H483 0.951 . S
C484 C490 1.265 1_455 S
H485 C490 0.950 . S
H486 C494 0.949 . S
H487 C495 0.950 . S
H488 C496 0.951 . S
H489 C497 0.951 . S
C490 C484 1.265 1_655 S
C490 H485 0.950 . S
C490 C491 1.478 . S
C491 C478 1.394 1_655 S
C491 C490 1.478 . S
C491 C492 1.397 . S
C492 C491 1.397 . S
C492 C493 1.438 . S
C492 C497 1.429 . S
C493 C476 1.394 1_655 S
C493 C492 1.438 . S
C493 C494 1.428 . S
C494 H486 0.949 . S
C494 C493 1.428 . S
C494 C495 1.345 . S
C495 H487 0.950 . S
C495 C494 1.345 . S
C495 C496 1.424 . S
C496 H488 0.951 . S
C496 C495 1.424 . S
C496 C497 1.347 . S
C497 H489 0.951 . S
C497 C492 1.429 . S
C497 C496 1.347 . S
H498 C499 0.951 . S
C499 H498 0.951 . S
C499 C505 1.265 1_545 S
H500 C505 0.950 . S
H501 C509 0.949 . S
H502 C510 0.950 . S
H503 C511 0.951 . S
H504 C512 0.951 . S
C505 C499 1.265 1_565 S
C505 H500 0.950 . S
C505 C506 1.478 . S
C506 C505 1.478 . S
C506 C507 1.397 . S
C506 C523 1.394 1_565 S
C507 C506 1.397 . S
C507 C508 1.438 . S
C507 C512 1.429 . S
C508 C507 1.438 . S
C508 C509 1.428 . S
C508 C521 1.394 1_565 S
C509 H501 0.949 . S
C509 C508 1.428 . S
C509 C510 1.345 . S
C510 H502 0.950 . S
C510 C509 1.345 . S
C510 C511 1.424 . S
C511 H503 0.951 . S
C511 C510 1.424 . S
C511 C512 1.347 . S
C512 H504 0.951 . S
C512 C507 1.429 . S
C512 C511 1.347 . S
H513 C514 0.951 . S
C514 H513 0.951 . S
C514 C520 1.265 1_565 S
H515 C520 0.950 . S
H516 C524 0.949 . S
H517 C525 0.950 . S
H518 C526 0.951 . S
H519 C527 0.951 . S
C520 C514 1.265 1_545 S
C520 H515 0.950 . S
C520 C521 1.478 . S
C521 C508 1.394 1_545 S
C521 C520 1.478 . S
C521 C522 1.397 . S
C522 C521 1.397 . S
C522 C523 1.438 . S
C522 C527 1.429 . S
C523 C506 1.394 1_545 S
C523 C522 1.438 . S
C523 C524 1.428 . S
C524 H516 0.949 . S
C524 C523 1.428 . S
C524 C525 1.345 . S
C525 H517 0.950 . S
C525 C524 1.345 . S
C525 C526 1.424 . S
C526 H518 0.951 . S
C526 C525 1.424 . S
C526 C527 1.347 . S
C527 H519 0.951 . S
C527 C522 1.429 . S
C527 C526 1.347 . S
H528 C529 0.951 . S
C529 H528 0.951 . S
C529 C535 1.265 1_655 S
H530 C535 0.950 . S
H531 C539 0.949 . S
H532 C540 0.950 . S
H533 C541 0.951 . S
H534 C542 0.951 . S
C535 C529 1.265 1_455 S
C535 H530 0.950 . S
C535 C536 1.478 . S
C536 C535 1.478 . S
C536 C537 1.397 . S
C536 C553 1.394 1_455 S
C537 C536 1.397 . S
C537 C538 1.438 . S
C537 C542 1.429 . S
C538 C537 1.438 . S
C538 C539 1.428 . S
C538 C551 1.394 1_455 S
C539 H531 0.949 . S
C539 C538 1.428 . S
C539 C540 1.345 . S
C540 H532 0.950 . S
C540 C539 1.345 . S
C540 C541 1.424 . S
C541 H533 0.951 . S
C541 C540 1.424 . S
C541 C542 1.347 . S
C542 H534 0.951 . S
C542 C537 1.429 . S
C542 C541 1.347 . S
H543 C544 0.951 . S
C544 H543 0.951 . S
C544 C550 1.265 1_455 S
H545 C550 0.950 . S
H546 C554 0.949 . S
H547 C555 0.950 . S
H548 C556 0.951 . S
H549 C557 0.951 . S
C550 C544 1.265 1_655 S
C550 H545 0.950 . S
C550 C551 1.478 . S
C551 C538 1.394 1_655 S
C551 C550 1.478 . S
C551 C552 1.397 . S
C552 C551 1.397 . S
C552 C553 1.438 . S
C552 C557 1.429 . S
C553 C536 1.394 1_655 S
C553 C552 1.438 . S
C553 C554 1.428 . S
C554 H546 0.949 . S
C554 C553 1.428 . S
C554 C555 1.345 . S
C555 H547 0.950 . S
C555 C554 1.345 . S
C555 C556 1.424 . S
C556 H548 0.951 . S
C556 C555 1.424 . S
C556 C557 1.347 . S
C557 H549 0.951 . S
C557 C552 1.429 . S
C557 C556 1.347 . S
H558 C559 0.951 . S
C559 H558 0.951 . S
C559 C565 1.265 1_556 S
H560 C565 0.950 . S
H561 C569 0.949 . S
H562 C570 0.950 . S
H563 C571 0.951 . S
H564 C572 0.951 . S
C565 C559 1.265 1_554 S
C565 H560 0.950 . S
C565 C566 1.478 . S
C566 C565 1.478 . S
C566 C567 1.397 . S
C566 C583 1.394 1_554 S
C567 C566 1.397 . S
C567 C568 1.438 . S
C567 C572 1.429 . S
C568 C567 1.438 . S
C568 C569 1.428 . S
C568 C581 1.394 1_554 S
C569 H561 0.949 . S
C569 C568 1.428 . S
C569 C570 1.345 . S
C570 H562 0.950 . S
C570 C569 1.345 . S
C570 C571 1.424 . S
C571 H563 0.951 . S
C571 C570 1.424 . S
C571 C572 1.347 . S
C572 H564 0.951 . S
C572 C567 1.429 . S
C572 C571 1.347 . S
H573 C574 0.951 . S
C574 H573 0.951 . S
C574 C580 1.265 1_554 S
H575 C580 0.950 . S
H576 C584 0.949 . S
H577 C585 0.950 . S
H578 C586 0.951 . S
H579 C587 0.951 . S
C580 C574 1.265 1_556 S
C580 H575 0.950 . S
C580 C581 1.478 . S
C581 C568 1.394 1_556 S
C581 C580 1.478 . S
C581 C582 1.397 . S
C582 C581 1.397 . S
C582 C583 1.438 . S
C582 C587 1.429 . S
C583 C566 1.394 1_556 S
C583 C582 1.438 . S
C583 C584 1.428 . S
C584 H576 0.949 . S
C584 C583 1.428 . S
C584 C585 1.345 . S
C585 H577 0.950 . S
C585 C584 1.345 . S
C585 C586 1.424 . S
C586 H578 0.951 . S
C586 C585 1.424 . S
C586 C587 1.347 . S
C587 H579 0.951 . S
C587 C582 1.429 . S
C587 C586 1.347 . S
H588 C589 0.951 . S
C589 H588 0.951 . S
C589 C595 1.265 1_554 S
H590 C595 0.950 . S
H591 C599 0.949 . S
H592 C600 0.950 . S
H593 C601 0.951 . S
H594 C602 0.951 . S
C595 C589 1.265 1_556 S
C595 H590 0.950 . S
C595 C596 1.478 . S
C596 C595 1.478 . S
C596 C597 1.397 . S
C596 C613 1.394 1_556 S
C597 C596 1.397 . S
C597 C598 1.438 . S
C597 C602 1.429 . S
C598 C597 1.438 . S
C598 C599 1.428 . S
C598 C611 1.394 1_556 S
C599 H591 0.949 . S
C599 C598 1.428 . S
C599 C600 1.345 . S
C600 H592 0.950 . S
C600 C599 1.345 . S
C600 C601 1.424 . S
C601 H593 0.951 . S
C601 C600 1.424 . S
C601 C602 1.347 . S
C602 H594 0.951 . S
C602 C597 1.429 . S
C602 C601 1.347 . S
H603 C604 0.950 . S
C604 H603 0.950 . S
C604 C610 1.270 1_556 S
H605 C610 0.950 . S
H606 C614 0.949 . S
H607 C615 0.950 . S
H608 C616 0.951 . S
H609 C617 0.951 . S
C610 C604 1.270 1_554 S
C610 H605 0.950 . S
C610 C611 1.478 . S
C611 C598 1.394 1_554 S
C611 C610 1.478 . S
C611 C612 1.397 . S
C612 C611 1.397 . S
C612 C613 1.438 . S
C612 C617 1.429 . S
C613 C596 1.394 1_554 S
C613 C612 1.438 . S
C613 C614 1.428 . S
C614 H606 0.949 . S
C614 C613 1.428 . S
C614 C615 1.345 . S
C615 H607 0.950 . S
C615 C614 1.345 . S
C615 C616 1.424 . S
C616 H608 0.951 . S
C616 C615 1.424 . S
C616 C617 1.347 . S
C617 H609 0.951 . S
C617 C612 1.429 . S
C617 C616 1.347 . S
H618 C619 0.951 . S
C619 H618 0.951 . S
C619 C625 1.265 1_554 S
H620 C625 0.950 . S
H621 C629 0.949 . S
H622 C630 0.950 . S
H623 C631 0.951 . S
H624 C632 0.951 . S
C625 C619 1.265 1_556 S
C625 H620 0.950 . S
C625 C626 1.478 . S
C626 C625 1.478 . S
C626 C627 1.397 1_556 S
C626 C643 1.394 . S
C627 C626 1.397 1_554 S
C627 C628 1.438 . S
C627 C632 1.429 . S
C628 C627 1.438 . S
C628 C629 1.428 . S
C628 C641 1.394 . S
C629 H621 0.949 . S
C629 C628 1.428 . S
C629 C630 1.345 . S
C630 H622 0.950 . S
C630 C629 1.345 . S
C630 C631 1.424 . S
C631 H623 0.951 . S
C631 C630 1.424 . S
C631 C632 1.347 . S
C632 H624 0.951 . S
C632 C627 1.429 . S
C632 C631 1.347 . S
H633 C634 0.951 . S
C634 H633 0.951 . S
C634 C640 1.265 1_556 S
H635 C640 0.950 . S
H636 C644 0.949 . S
H637 C645 0.950 . S
H638 C646 0.951 . S
H639 C647 0.951 . S
C640 C634 1.265 1_554 S
C640 H635 0.950 . S
C640 C641 1.478 . S
C641 C628 1.394 . S
C641 C640 1.478 . S
C641 C642 1.397 1_554 S
C642 C641 1.397 1_556 S
C642 C643 1.438 . S
C642 C647 1.429 . S
C643 C626 1.394 . S
C643 C642 1.438 . S
C643 C644 1.428 . S
C644 H636 0.949 . S
C644 C643 1.428 . S
C644 C645 1.345 . S
C645 H637 0.950 . S
C645 C644 1.345 . S
C645 C646 1.424 . S
C646 H638 0.951 . S
C646 C645 1.424 . S
C646 C647 1.347 . S
C647 H639 0.951 . S
C647 C642 1.429 . S
C647 C646 1.347 . S
H648 C649 0.951 . S
C649 H648 0.951 . S
C649 C655 1.265 1_554 S
H650 C655 0.950 . S
H651 C659 0.949 . S
H652 C660 0.950 . S
H653 C661 0.951 . S
H654 C662 0.951 . S
C655 C649 1.265 1_556 S
C655 H650 0.950 . S
C655 C656 1.478 . S
C656 C655 1.478 . S
C656 C657 1.397 1_556 S
C656 C673 1.394 . S
C657 C656 1.397 1_554 S
C657 C658 1.438 . S
C657 C662 1.429 . S
C658 C657 1.438 . S
C658 C659 1.428 . S
C658 C671 1.394 . S
C659 H651 0.949 . S
C659 C658 1.428 . S
C659 C660 1.345 . S
C660 H652 0.950 . S
C660 C659 1.345 . S
C660 C661 1.424 . S
C661 H653 0.951 . S
C661 C660 1.424 . S
C661 C662 1.347 . S
C662 H654 0.951 . S
C662 C657 1.429 . S
C662 C661 1.347 . S
H663 C664 0.951 . S
C664 H663 0.951 . S
C664 C670 1.265 1_556 S
H665 C670 0.950 . S
H666 C674 0.949 . S
H667 C675 0.950 . S
H668 C676 0.951 . S
H669 C677 0.951 . S
C670 C664 1.265 1_554 S
C670 H665 0.950 . S
C670 C671 1.478 . S
C671 C658 1.394 . S
C671 C670 1.478 . S
C671 C672 1.397 1_554 S
C672 C671 1.397 1_556 S
C672 C673 1.438 . S
C672 C677 1.429 . S
C673 C656 1.394 . S
C673 C672 1.438 . S
C673 C674 1.428 . S
C674 H666 0.949 . S
C674 C673 1.428 . S
C674 C675 1.345 . S
C675 H667 0.950 . S
C675 C674 1.345 . S
C675 C676 1.424 . S
C676 H668 0.951 . S
C676 C675 1.424 . S
C676 C677 1.347 . S
C677 H669 0.951 . S
C677 C672 1.429 . S
C677 C676 1.347 . S
C319 C29 1.493 1_655 S
C334 C241 1.493 . S
C349 C38 1.487 1_565 S
C364 C303 1.493 . S
C379 C234 1.490 1_655 S
C394 C22 1.489 1_455 S
C409 C304 1.506 . S
C424 C39 1.493 1_565 S
C439 C294 1.493 . S
C454 C91 1.492 . S
C469 C128 1.493 1_655 S
C484 C251 1.491 . S
C499 C287 1.486 . S
C514 C92 1.485 1_565 S
C529 C250 1.490 1_655 S
C544 C135 1.489 1_455 S
C559 C144 1.493 1_556 S
C574 C198 1.490 . S
C589 C188 1.492 . S
C604 C75 1.484 1_556 S
C619 C145 1.487 1_554 S
C634 C197 1.488 1_556 S
C649 C181 1.483 . S
C664 C82 1.486 . S
