# Generated by pormake.
# Topology umu, (4)-cn, num edge types: 1
# Building blocks:
#     Node 0, Type 0, BuildingBlock: QUQFOY_clean_sbu_1, # of connection points: 4
#     Node 1, Type 0, BuildingBlock: QUQFOY_clean_sbu_1, # of connection points: 4
#     Node 2, Type 0, BuildingBlock: QUQFOY_clean_sbu_1, # of connection points: 4
#     Node 3, Type 0, BuildingBlock: QUQFOY_clean_sbu_1, # of connection points: 4
#     Node 4, Type 0, BuildingBlock: QUQFOY_clean_sbu_1, # of connection points: 4
#     Node 5, Type 0, BuildingBlock: QUQFOY_clean_sbu_1, # of connection points: 4
#     Node 6, Type 0, BuildingBlock: QUQFOY_clean_sbu_1, # of connection points: 4
#     Node 7, Type 0, BuildingBlock: QUQFOY_clean_sbu_1, # of connection points: 4
#     Node 8, Type 0, BuildingBlock: QUQFOY_clean_sbu_1, # of connection points: 4
#     Node 9, Type 0, BuildingBlock: QUQFOY_clean_sbu_1, # of connection points: 4
#     Node 10, Type 0, BuildingBlock: QUQFOY_clean_sbu_1, # of connection points: 4
#     Node 11, Type 0, BuildingBlock: QUQFOY_clean_sbu_1, # of connection points: 4
#     Node 12, Type 0, BuildingBlock: QUQFOY_clean_sbu_1, # of connection points: 4
#     Node 13, Type 0, BuildingBlock: QUQFOY_clean_sbu_1, # of connection points: 4
#     Node 14, Type 0, BuildingBlock: QUQFOY_clean_sbu_1, # of connection points: 4
#     Node 15, Type 0, BuildingBlock: QUQFOY_clean_sbu_1, # of connection points: 4
#     Node 16, Type 0, BuildingBlock: QUQFOY_clean_sbu_1, # of connection points: 4
#     Node 17, Type 0, BuildingBlock: QUQFOY_clean_sbu_1, # of connection points: 4
#     Node 18, Type 0, BuildingBlock: QUQFOY_clean_sbu_1, # of connection points: 4
#     Node 19, Type 0, BuildingBlock: QUQFOY_clean_sbu_1, # of connection points: 4
#     Node 20, Type 0, BuildingBlock: QUQFOY_clean_sbu_1, # of connection points: 4
#     Node 21, Type 0, BuildingBlock: QUQFOY_clean_sbu_1, # of connection points: 4
#     Node 22, Type 0, BuildingBlock: QUQFOY_clean_sbu_1, # of connection points: 4
#     Node 23, Type 0, BuildingBlock: QUQFOY_clean_sbu_1, # of connection points: 4
#     Node 24, Type 0, BuildingBlock: QUQFOY_clean_sbu_1, # of connection points: 4
#     Node 25, Type 0, BuildingBlock: QUQFOY_clean_sbu_1, # of connection points: 4
#     Node 26, Type 0, BuildingBlock: QUQFOY_clean_sbu_1, # of connection points: 4
#     Node 27, Type 0, BuildingBlock: QUQFOY_clean_sbu_1, # of connection points: 4
#     Node 28, Type 0, BuildingBlock: QUQFOY_clean_sbu_1, # of connection points: 4
#     Node 29, Type 0, BuildingBlock: QUQFOY_clean_sbu_1, # of connection points: 4
#     Node 30, Type 0, BuildingBlock: QUQFOY_clean_sbu_1, # of connection points: 4
#     Node 31, Type 0, BuildingBlock: QUQFOY_clean_sbu_1, # of connection points: 4
#     Edge 32, Type (0, 0), BuildingBlock: CIFDUS_clean_linker_0, # of connection points: 2
#     Edge 33, Type (0, 0), BuildingBlock: CIFDUS_clean_linker_0, # of connection points: 2
#     Edge 34, Type (0, 0), BuildingBlock: CIFDUS_clean_linker_0, # of connection points: 2
#     Edge 35, Type (0, 0), BuildingBlock: CIFDUS_clean_linker_0, # of connection points: 2
#     Edge 36, Type (0, 0), BuildingBlock: CIFDUS_clean_linker_0, # of connection points: 2
#     Edge 37, Type (0, 0), BuildingBlock: CIFDUS_clean_linker_0, # of connection points: 2
#     Edge 38, Type (0, 0), BuildingBlock: CIFDUS_clean_linker_0, # of connection points: 2
#     Edge 39, Type (0, 0), BuildingBlock: CIFDUS_clean_linker_0, # of connection points: 2
#     Edge 40, Type (0, 0), BuildingBlock: CIFDUS_clean_linker_0, # of connection points: 2
#     Edge 41, Type (0, 0), BuildingBlock: CIFDUS_clean_linker_0, # of connection points: 2
#     Edge 42, Type (0, 0), BuildingBlock: CIFDUS_clean_linker_0, # of connection points: 2
#     Edge 43, Type (0, 0), BuildingBlock: CIFDUS_clean_linker_0, # of connection points: 2
#     Edge 44, Type (0, 0), BuildingBlock: CIFDUS_clean_linker_0, # of connection points: 2
#     Edge 45, Type (0, 0), BuildingBlock: CIFDUS_clean_linker_0, # of connection points: 2
#     Edge 46, Type (0, 0), BuildingBlock: CIFDUS_clean_linker_0, # of connection points: 2
#     Edge 47, Type (0, 0), BuildingBlock: CIFDUS_clean_linker_0, # of connection points: 2
#     Edge 48, Type (0, 0), BuildingBlock: CIFDUS_clean_linker_0, # of connection points: 2
#     Edge 49, Type (0, 0), BuildingBlock: CIFDUS_clean_linker_0, # of connection points: 2
#     Edge 50, Type (0, 0), BuildingBlock: CIFDUS_clean_linker_0, # of connection points: 2
#     Edge 51, Type (0, 0), BuildingBlock: CIFDUS_clean_linker_0, # of connection points: 2
#     Edge 52, Type (0, 0), BuildingBlock: CIFDUS_clean_linker_0, # of connection points: 2
#     Edge 53, Type (0, 0), BuildingBlock: CIFDUS_clean_linker_0, # of connection points: 2
#     Edge 54, Type (0, 0), BuildingBlock: CIFDUS_clean_linker_0, # of connection points: 2
#     Edge 55, Type (0, 0), BuildingBlock: CIFDUS_clean_linker_0, # of connection points: 2
#     Edge 56, Type (0, 0), BuildingBlock: CIFDUS_clean_linker_0, # of connection points: 2
#     Edge 57, Type (0, 0), BuildingBlock: CIFDUS_clean_linker_0, # of connection points: 2
#     Edge 58, Type (0, 0), BuildingBlock: CIFDUS_clean_linker_0, # of connection points: 2
#     Edge 59, Type (0, 0), BuildingBlock: CIFDUS_clean_linker_0, # of connection points: 2
#     Edge 60, Type (0, 0), BuildingBlock: CIFDUS_clean_linker_0, # of connection points: 2
#     Edge 61, Type (0, 0), BuildingBlock: CIFDUS_clean_linker_0, # of connection points: 2
#     Edge 62, Type (0, 0), BuildingBlock: CIFDUS_clean_linker_0, # of connection points: 2
#     Edge 63, Type (0, 0), BuildingBlock: CIFDUS_clean_linker_0, # of connection points: 2
#     Edge 64, Type (0, 0), BuildingBlock: CIFDUS_clean_linker_0, # of connection points: 2
#     Edge 65, Type (0, 0), BuildingBlock: CIFDUS_clean_linker_0, # of connection points: 2
#     Edge 66, Type (0, 0), BuildingBlock: CIFDUS_clean_linker_0, # of connection points: 2
#     Edge 67, Type (0, 0), BuildingBlock: CIFDUS_clean_linker_0, # of connection points: 2
#     Edge 68, Type (0, 0), BuildingBlock: CIFDUS_clean_linker_0, # of connection points: 2
#     Edge 69, Type (0, 0), BuildingBlock: CIFDUS_clean_linker_0, # of connection points: 2
#     Edge 70, Type (0, 0), BuildingBlock: CIFDUS_clean_linker_0, # of connection points: 2
#     Edge 71, Type (0, 0), BuildingBlock: CIFDUS_clean_linker_0, # of connection points: 2
#     Edge 72, Type (0, 0), BuildingBlock: CIFDUS_clean_linker_0, # of connection points: 2
#     Edge 73, Type (0, 0), BuildingBlock: CIFDUS_clean_linker_0, # of connection points: 2
#     Edge 74, Type (0, 0), BuildingBlock: CIFDUS_clean_linker_0, # of connection points: 2
#     Edge 75, Type (0, 0), BuildingBlock: CIFDUS_clean_linker_0, # of connection points: 2
#     Edge 76, Type (0, 0), BuildingBlock: CIFDUS_clean_linker_0, # of connection points: 2
#     Edge 77, Type (0, 0), BuildingBlock: CIFDUS_clean_linker_0, # of connection points: 2
#     Edge 78, Type (0, 0), BuildingBlock: CIFDUS_clean_linker_0, # of connection points: 2
#     Edge 79, Type (0, 0), BuildingBlock: CIFDUS_clean_linker_0, # of connection points: 2
#     Edge 80, Type (0, 0), BuildingBlock: CIFDUS_clean_linker_0, # of connection points: 2
#     Edge 81, Type (0, 0), BuildingBlock: CIFDUS_clean_linker_0, # of connection points: 2
#     Edge 82, Type (0, 0), BuildingBlock: CIFDUS_clean_linker_0, # of connection points: 2
#     Edge 83, Type (0, 0), BuildingBlock: CIFDUS_clean_linker_0, # of connection points: 2
#     Edge 84, Type (0, 0), BuildingBlock: CIFDUS_clean_linker_0, # of connection points: 2
#     Edge 85, Type (0, 0), BuildingBlock: CIFDUS_clean_linker_0, # of connection points: 2
#     Edge 86, Type (0, 0), BuildingBlock: CIFDUS_clean_linker_0, # of connection points: 2
#     Edge 87, Type (0, 0), BuildingBlock: CIFDUS_clean_linker_0, # of connection points: 2
#     Edge 88, Type (0, 0), BuildingBlock: CIFDUS_clean_linker_0, # of connection points: 2
#     Edge 89, Type (0, 0), BuildingBlock: CIFDUS_clean_linker_0, # of connection points: 2
#     Edge 90, Type (0, 0), BuildingBlock: CIFDUS_clean_linker_0, # of connection points: 2
#     Edge 91, Type (0, 0), BuildingBlock: CIFDUS_clean_linker_0, # of connection points: 2
#     Edge 92, Type (0, 0), BuildingBlock: CIFDUS_clean_linker_0, # of connection points: 2
#     Edge 93, Type (0, 0), BuildingBlock: CIFDUS_clean_linker_0, # of connection points: 2
#     Edge 94, Type (0, 0), BuildingBlock: CIFDUS_clean_linker_0, # of connection points: 2
#     Edge 95, Type (0, 0), BuildingBlock: CIFDUS_clean_linker_0, # of connection points: 2
# Relax obj value: 0.029
# Max RMSD: 0.059
# Mean RMSD: 0.059
data_MOF--net-umu--node1-QUQFOY_clean_sbu_1--edge1-CIFDUS_clean_linker_0
_symmetry_space_group_name_H-M    P1
_symmetry_Int_Tables_number       1
_symmetry_cell_setting            triclinic
loop_
_symmetry_equiv_pos_as_xyz
'x, y, z'
_cell_length_a     76.093593
_cell_length_b     76.089706
_cell_length_c     24.659229
_cell_angle_alpha  89.947462
_cell_angle_beta   90.085847
_cell_angle_gamma 90.009524
loop_
_atom_site_label
_atom_site_type_symbol
_atom_site_fract_x
_atom_site_fract_y
_atom_site_fract_z
_atom_type_partial_charge
O0 O 0.20814 0.15593 1.0064 0.0
Cd1 Cd 0.18968 0.16298 0.06295 0.0
Cd2 Cd 0.22101 0.16275 0.12537 0.0
O3 O 0.23177 0.15171 0.05653 0.0
O4 O 0.16839 0.16072 0.01656 0.0
O5 O 0.17272 0.14458 0.08993 0.0
C6 C 0.16332 0.14814 0.04768 0.0
C7 C 0.22728 0.15164 0.21161 0.0
C8 C 0.22407 0.15121 1.01079 0.0
C9 C 0.20179 0.19722 0.10975 0.0
O10 O 0.21585 0.18939 0.12372 0.0
O11 O 0.18914 0.18872 0.08855 0.0
O12 O 0.23901 0.15978 0.18356 0.0
O13 O 0.21206 0.14907 0.18962 0.0
O14 O 0.09193 0.96807 0.24404 0.0
Cd15 Cd 0.08316 0.94923 0.29696 0.0
Cd16 Cd 0.0862 0.98031 0.36409 0.0
O17 O 0.09736 0.9911 0.29558 0.0
O18 O 0.08244 0.92934 0.24461 0.0
O19 O 0.09981 0.92955 0.31641 0.0
C20 C 0.09481 0.92203 0.27208 0.0
C21 C 0.09826 0.98575 0.44955 0.0
C22 C 0.09756 0.98365 0.24953 0.0
C23 C 0.05032 0.96353 0.34846 0.0
O24 O 0.05932 0.97665 0.36432 0.0
O25 O 0.05761 0.95073 0.32422 0.0
O26 O 0.09039 0.99791 0.42243 0.0
O27 O 0.09996 0.97051 0.42709 0.0
O28 O 0.28457 0.84295 0.49354 0.0
Cd29 Cd 0.30407 0.83651 0.54726 0.0
Cd30 Cd 0.27186 0.8332 0.61412 0.0
O31 O 0.2608 0.84369 0.54459 0.0
O32 O 0.3245 0.84052 0.49839 0.0
O33 O 0.32051 0.85542 0.57423 0.0
C34 C 0.32945 0.85287 0.53048 0.0
C35 C 0.25956 0.84113 0.6979 0.0
C36 C 0.26825 0.84579 0.49895 0.0
C37 C 0.29508 0.80098 0.59301 0.0
O38 O 0.28084 0.80755 0.61085 0.0
O39 O 0.30644 0.81053 0.56933 0.0
O40 O 0.2511 0.83165 0.66347 0.0
O41 O 0.27504 0.84656 0.68454 0.0
O42 O 0.40796 0.0448 0.74741 0.0
Cd43 Cd 0.41382 0.0623 0.80758 0.0
Cd44 Cd 0.41498 0.02744 0.86007 0.0
O45 O 0.40449 0.01883 0.78576 0.0
O46 O 0.41353 0.08341 0.7596 0.0
O47 O 0.39495 0.08 0.82727 0.0
C48 C 0.39994 0.08885 0.78535 0.0
C49 C 0.40461 0.02044 0.94763 0.0
C50 C 0.40402 0.02866 0.7438 0.0
C51 C 0.44832 0.04954 0.85218 0.0
O52 O 0.44126 0.03455 0.8596 0.0
O53 O 0.4392 0.06261 0.83656 0.0
O54 O 0.41249 0.00887 0.91808 0.0
O55 O 0.40144 0.0356 0.9259 0.0
O56 O 0.20883 0.84036 0.21396 0.0
Cd57 Cd 0.18867 0.83334 0.16342 0.0
Cd58 Cd 0.22113 0.83103 0.09246 0.0
O59 O 0.23231 0.84157 0.16167 0.0
O60 O 0.16951 0.83503 0.21816 0.0
O61 O 0.17042 0.85171 0.14498 0.0
C62 C 0.16302 0.84779 0.19048 0.0
C63 C 0.23318 0.83947 1.00875 0.0
C64 C 0.22504 0.84358 0.2076 0.0
C65 C 0.19831 0.79839 0.11359 0.0
O66 O 0.21235 0.80528 0.09525 0.0
O67 O 0.18699 0.80759 0.13868 0.0
O68 O 0.24177 0.82987 0.04257 0.0
O69 O 0.21767 0.84466 0.02258 0.0
O70 O 0.4076 0.96259 0.454 0.0
Cd71 Cd 0.41281 0.94651 0.38962 0.0
Cd72 Cd 0.41546 0.98066 0.34357 0.0
O73 O 0.40475 0.98893 0.41785 0.0
O74 O 0.40988 0.92402 0.42987 0.0
O75 O 0.39313 0.9313 0.3603 0.0
C76 C 0.39659 0.9206 0.39951 0.0
C77 C 0.40513 0.98749 0.25583 0.0
C78 C 0.40406 0.97878 0.45904 0.0
C79 C 0.44826 0.95815 0.35205 0.0
O80 O 0.44172 0.97342 0.34563 0.0
O81 O 0.43851 0.94519 0.36449 0.0
O82 O 0.41293 -0.00085 0.28534 0.0
O83 O 0.40207 0.97232 0.27762 0.0
O84 O 0.279 0.15916 0.72147 0.0
Cd85 Cd 0.29828 0.16761 0.66963 0.0
Cd86 Cd 0.26703 0.16416 0.60027 0.0
O87 O 0.25628 0.15304 0.6691 0.0
O88 O 0.31772 0.16855 0.72386 0.0
O89 O 0.31811 0.15081 0.65305 0.0
C90 C 0.32522 0.156 0.69784 0.0
C91 C 0.26121 0.15246 0.51441 0.0
C92 C 0.26352 0.15327 0.71556 0.0
C93 C 0.28413 0.20006 0.61471 0.0
O94 O 0.27095 0.191 0.59966 0.0
O95 O 0.29695 0.19291 0.63952 0.0
O96 O 0.24918 0.16027 0.54213 0.0
O97 O 0.27649 0.15053 0.53656 0.0
O98 O 0.09106 0.03671 0.95685 0.0
Cd99 Cd 0.08303 0.0543 0.89888 0.0
Cd100 Cd 0.08682 0.02353 0.83767 0.0
O101 O 0.0983 0.01376 0.90728 0.0
O102 O 0.08414 0.07615 0.94288 0.0
O103 O 0.10077 0.07166 0.87069 0.0
C104 C 0.09675 0.08129 0.91196 0.0
C105 C 0.09903 0.01825 0.75256 0.0
C106 C 0.09755 0.02141 0.95297 0.0
C107 C 0.05049 0.03939 0.84923 0.0
O108 O 0.05982 0.02617 0.83637 0.0
O109 O 0.05749 0.05278 0.87129 0.0
O110 O 0.09177 0.00585 0.78022 0.0
O111 O 0.10016 0.03363 0.7745 0.0
O112 O 0.78299 0.84801 0.20588 0.0
Cd113 Cd 0.7973 0.84136 0.13866 0.0
Cd114 Cd 0.76291 0.84458 0.09634 0.0
O115 O 0.75724 0.85535 0.17177 0.0
O116 O 0.82082 0.84161 0.1738 0.0
O117 O 0.81349 0.8598 0.1076 0.0
C118 C 0.82467 0.85496 0.14411 0.0
C119 C 0.75311 0.85668 0.01426 0.0
C120 C 0.76763 0.85413 0.21208 0.0
C121 C 0.78045 0.80881 0.09577 0.0
O122 O 0.76631 0.81767 0.0927 0.0
O123 O 0.79483 0.81619 0.10891 0.0
O124 O 0.74239 0.84933 0.04781 0.0
O125 O 0.76937 0.85816 0.02885 0.0
O126 O 0.90359 0.03754 0.94756 0.0
Cd127 Cd 0.91044 0.05649 0.89239 0.0
Cd128 Cd 0.91274 0.02521 0.82906 0.0
O129 O 0.90165 0.01373 0.89708 0.0
O130 O 0.90682 0.07737 0.93951 0.0
O131 O 0.89177 0.07298 0.86408 0.0
C132 C 0.89449 0.08224 0.90714 0.0
C133 C 0.90272 0.01858 0.74162 0.0
C134 C 0.90003 0.02133 0.9427 0.0
C135 C 0.94591 0.04633 0.84987 0.0
O136 O 0.93902 0.03203 0.8336 0.0
O137 O 0.93649 0.0583 0.87094 0.0
O138 O 0.91124 0.00722 0.77019 0.0
O139 O 0.89921 0.03359 0.76357 0.0
O140 O 0.70861 0.16124 0.7164 0.0
Cd141 Cd 0.68969 0.168 0.66096 0.0
Cd142 Cd 0.72172 0.16993 0.59626 0.0
O143 O 0.73235 0.15909 0.66572 0.0
O144 O 0.6686 0.16408 0.70708 0.0
O145 O 0.67361 0.14912 0.6319 0.0
C146 C 0.66412 0.15165 0.67455 0.0
C147 C 0.73349 0.16115 0.51279 0.0
C148 C 0.72478 0.15758 0.71135 0.0
C149 C 0.69993 0.20312 0.61575 0.0
O150 O 0.71403 0.19598 0.599 0.0
O151 O 0.68804 0.19401 0.63855 0.0
O152 O 0.74244 0.17034 0.54678 0.0
O153 O 0.71778 0.15651 0.52646 0.0
O154 O 0.59286 0.9666 0.47309 0.0
Cd155 Cd 0.58464 0.94883 0.41588 0.0
Cd156 Cd 0.58935 0.98041 0.35239 0.0
O157 O 0.60025 0.98946 0.42312 0.0
O158 O 0.58519 0.92713 0.46103 0.0
O159 O 0.60209 0.93097 0.38902 0.0
C160 C 0.59774 0.92158 0.43056 0.0
C161 C 0.60142 0.99065 0.27141 0.0
C162 C 0.5994 0.98187 0.46883 0.0
C163 C 0.55281 0.96413 0.3622 0.0
O164 O 0.56246 0.97708 0.34895 0.0
O165 O 0.55933 0.95083 0.38621 0.0
O166 O 0.59299 0.0009 0.30367 0.0
O167 O 0.60349 0.97446 0.28578 0.0
O168 O 0.78353 0.16088 0.99835 0.0
Cd169 Cd 0.80284 0.16734 0.05276 0.0
Cd170 Cd 0.77089 0.17076 0.11847 0.0
O171 O 0.75972 0.16042 0.04918 0.0
O172 O 0.82351 0.16312 1.00525 0.0
O173 O 0.81887 0.14825 0.08088 0.0
C174 C 0.82811 0.15069 0.03764 0.0
C175 C 0.7589 0.16214 0.20184 0.0
C176 C 0.76719 0.15813 1.00371 0.0
C177 C 0.7941 0.20293 0.0983 0.0
O178 O 0.77979 0.19645 0.11595 0.0
O179 O 0.80539 0.1933 0.07469 0.0
O180 O 0.75031 0.17189 0.1684 0.0
O181 O 0.77439 0.15692 0.18778 0.0
O182 O 0.59395 0.0362 0.75913 0.0
Cd183 Cd 0.58574 0.05414 0.81579 0.0
Cd184 Cd 0.58816 0.0224 0.87939 0.0
O185 O 0.59885 0.01272 0.80926 0.0
O186 O 0.58734 0.07585 0.77106 0.0
O187 O 0.60336 0.07154 0.84477 0.0
C188 C 0.59964 0.08111 0.80301 0.0
C189 C 0.59979 0.01174 0.96057 0.0
C190 C 0.59925 0.02047 0.76376 0.0
C191 C 0.55256 0.04031 0.86578 0.0
O192 O 0.56144 0.02706 0.88125 0.0
O193 O 0.55997 0.05308 0.84159 0.0
O194 O 0.59076 0.00188 0.92863 0.0
O195 O 0.60258 0.02781 0.94603 0.0
O196 O 0.70623 0.84807 0.50511 0.0
Cd197 Cd 0.69162 0.84101 0.57133 0.0
Cd198 Cd 0.72593 0.8449 0.61555 0.0
O199 O 0.73175 0.85574 0.54026 0.0
O200 O 0.66826 0.8411 0.535 0.0
O201 O 0.67508 0.85922 0.6018 0.0
C202 C 0.66416 0.8544 0.56454 0.0
C203 C 0.73569 0.85692 0.69778 0.0
C204 C 0.72152 0.85442 0.49958 0.0
C205 C 0.70893 0.80875 0.61487 0.0
O206 O 0.72283 0.81796 0.61902 0.0
O207 O 0.69447 0.81579 0.60078 0.0
O208 O 0.74643 0.84968 0.66416 0.0
O209 O 0.71942 0.85835 0.68321 0.0
O210 O 0.90403 0.96442 0.23254 0.0
Cd211 Cd 0.91089 0.94535 0.28731 0.0
Cd212 Cd 0.91251 0.97662 0.35197 0.0
O213 O 0.90163 0.9881 0.28344 0.0
O214 O 0.90731 0.92453 0.23977 0.0
O215 O 0.89225 0.92883 0.3152 0.0
C216 C 0.89497 0.91965 0.27201 0.0
C217 C 0.90234 0.98342 0.43906 0.0
C218 C 0.90026 0.98057 0.23761 0.0
C219 C 0.94596 0.95569 0.33275 0.0
O220 O 0.93881 0.96985 0.34904 0.0
O221 O 0.93684 0.94373 0.31027 0.0
O222 O 0.91091 0.99473 0.4105 0.0
O223 O 0.89881 0.96839 0.41721 0.0
O224 O 0.707 0.66412 0.50354 0.0
Cd225 Cd 0.69104 0.66926 0.56834 0.0
Cd226 Cd 0.72574 0.67146 0.61443 0.0
O227 O 0.73341 0.66141 0.53935 0.0
O228 O 0.66843 0.66652 0.5287 0.0
O229 O 0.67603 0.64941 0.59719 0.0
C230 C 0.66519 0.65303 0.55844 0.0
C231 C 0.73701 0.66126 0.69759 0.0
C232 C 0.7232 0.66063 0.49846 0.0
C233 C 0.70285 0.70423 0.61025 0.0
O234 O 0.71807 0.69756 0.61615 0.0
O235 O 0.6899 0.69474 0.5959 0.0
O236 O 0.74659 0.67003 0.66403 0.0
O237 O 0.72117 0.65739 0.68276 0.0
O238 O 0.5899 0.46709 0.74822 0.0
Cd239 Cd 0.58293 0.44741 0.80074 0.0
Cd240 Cd 0.58243 0.47902 0.86809 0.0
O241 O 0.59334 0.49049 0.79986 0.0
O242 O 0.58391 0.42781 0.74732 0.0
O243 O 0.60122 0.42906 0.8191 0.0
C244 C 0.59685 0.42139 0.77439 0.0
C245 C 0.59291 0.48557 0.95506 0.0
C246 C 0.5942 0.48309 0.75374 0.0
C247 C 0.54855 0.45864 0.85001 0.0
O248 O 0.55601 0.47276 0.86532 0.0
O249 O 0.55733 0.44643 0.82756 0.0
O250 O 0.58444 0.49703 0.92673 0.0
O251 O 0.59614 0.4705 0.93308 0.0
O252 O 0.78675 0.34808 1.00122 0.0
Cd253 Cd 0.80468 0.34014 0.05838 0.0
Cd254 Cd 0.77393 0.34387 0.12148 0.0
O255 O 0.76393 0.35513 0.05163 0.0
O256 O 0.82644 0.34156 0.01396 0.0
O257 O 0.82199 0.35794 0.08672 0.0
C258 C 0.83159 0.35408 0.04524 0.0
C259 C 0.76812 0.35571 0.20705 0.0
C260 C 0.77139 0.35437 1.00561 0.0
C261 C 0.79007 0.30756 0.10847 0.0
O262 O 0.77699 0.31691 0.12247 0.0
O263 O 0.8033 0.31453 0.08546 0.0
O264 O 0.75596 0.34833 0.17869 0.0
O265 O 0.78354 0.35722 0.18557 0.0
O266 O 0.90298 0.53855 0.23685 0.0
Cd267 Cd 0.90989 0.55796 0.29034 0.0
Cd268 Cd 0.91148 0.52682 0.35755 0.0
O269 O 0.9013 0.51497 0.28866 0.0
O270 O 0.90646 0.57855 0.24155 0.0
O271 O 0.89142 0.57483 0.31732 0.0
C272 C 0.89426 0.58379 0.27372 0.0
C273 C 0.90096 0.51965 0.44405 0.0
C274 C 0.89964 0.52232 0.2426 0.0
C275 C 0.94483 0.54812 0.33857 0.0
O276 O 0.93765 0.53415 0.35633 0.0
O277 O 0.93582 0.55967 0.31372 0.0
O278 O 0.91001 0.50863 0.41597 0.0
O279 O 0.89718 0.53461 0.42205 0.0
O280 O 0.71625 0.34822 0.71614 0.0
Cd281 Cd 0.6969 0.34015 0.66385 0.0
Cd282 Cd 0.72802 0.34287 0.59465 0.0
O283 O 0.73914 0.35347 0.66377 0.0
O284 O 0.67722 0.33976 0.71701 0.0
O285 O 0.67758 0.35738 0.6458 0.0
C286 C 0.67011 0.35241 0.69023 0.0
C287 C 0.73419 0.35476 0.50924 0.0
C288 C 0.73192 0.35358 0.71019 0.0
C289 C 0.7101 0.30734 0.60928 0.0
O290 O 0.72335 0.31613 0.59337 0.0
O291 O 0.69763 0.31475 0.63481 0.0
O292 O 0.74597 0.34646 0.53674 0.0
O293 O 0.71897 0.35703 0.53132 0.0
O294 O 0.90591 0.46561 0.95359 0.0
Cd295 Cd 0.91369 0.44718 0.89801 0.0
Cd296 Cd 0.91217 0.47825 0.83338 0.0
O297 O 0.90072 0.48878 0.90228 0.0
O298 O 0.91148 0.42581 0.94418 0.0
O299 O 0.89576 0.42993 0.86981 0.0
C300 C 0.89914 0.42059 0.91232 0.0
C301 C 0.90136 0.48444 0.74645 0.0
C302 C 0.90055 0.4813 0.94844 0.0
C303 C 0.94747 0.46032 0.8513 0.0
O304 O 0.93896 0.47379 0.83554 0.0
O305 O 0.93959 0.44753 0.8739 0.0
O306 O 0.90901 0.49632 0.77525 0.0
O307 O 0.89905 0.46913 0.76805 0.0
O308 O 0.78791 0.66572 0.20678 0.0
Cd309 Cd 0.80297 0.67023 0.13948 0.0
Cd310 Cd 0.76855 0.67107 0.0967 0.0
O311 O 0.76164 0.66084 0.17234 0.0
O312 O 0.8262 0.66726 0.17525 0.0
O313 O 0.81699 0.64995 0.10919 0.0
C314 C 0.82857 0.65352 0.14587 0.0
C315 C 0.75759 0.6605 0.01371 0.0
C316 C 0.77199 0.66128 0.21298 0.0
C317 C 0.79017 0.70461 0.09768 0.0
O318 O 0.77508 0.69746 0.09443 0.0
O319 O 0.80361 0.69552 0.11003 0.0
O320 O 0.74766 0.66873 0.04759 0.0
O321 O 0.77359 0.65729 0.02828 0.0
O322 O 0.59075 0.53972 0.46334 0.0
Cd323 Cd 0.58403 0.55868 0.40794 0.0
Cd324 Cd 0.58272 0.52722 0.34424 0.0
O325 O 0.59362 0.51599 0.41296 0.0
O326 O 0.58693 0.5795 0.45593 0.0
O327 O 0.60265 0.57553 0.38166 0.0
C328 C 0.59944 0.58463 0.42469 0.0
C329 C 0.59316 0.52055 0.25747 0.0
C330 C 0.59473 0.52362 0.45869 0.0
C331 C 0.54915 0.54795 0.36156 0.0
O332 O 0.55633 0.53364 0.34675 0.0
O333 O 0.55822 0.56011 0.38315 0.0
O334 O 0.58469 0.50913 0.28586 0.0
O335 O 0.59644 0.53563 0.27934 0.0
O336 O 0.28926 0.34741 0.71104 0.0
Cd337 Cd 0.30783 0.33914 0.65695 0.0
Cd338 Cd 0.27315 0.33796 0.59791 0.0
O339 O 0.26358 0.34902 0.66964 0.0
O340 O 0.32707 0.33813 0.71182 0.0
O341 O 0.32786 0.35601 0.64155 0.0
C342 C 0.33468 0.35079 0.68672 0.0
C343 C 0.26701 0.34839 0.50994 0.0
C344 C 0.27301 0.35103 0.71192 0.0
C345 C 0.29444 0.30436 0.61335 0.0
O346 O 0.27988 0.31162 0.60113 0.0
O347 O 0.30724 0.31336 0.63158 0.0
O348 O 0.25521 0.3404 0.5383 0.0
O349 O 0.28203 0.3514 0.53278 0.0
O350 O 0.40564 0.54448 0.45835 0.0
Cd351 Cd 0.41225 0.55859 0.39074 0.0
Cd352 Cd 0.40846 0.52502 0.34951 0.0
O353 O 0.3969 0.5192 0.42433 0.0
O354 O 0.41201 0.58218 0.42521 0.0
O355 O 0.39372 0.57465 0.35952 0.0
C356 C 0.39852 0.58588 0.3959 0.0
C357 C 0.3964 0.5202 0.2633 0.0
C358 C 0.39879 0.52944 0.4648 0.0
C359 C 0.44467 0.54117 0.35073 0.0
O360 O 0.43555 0.52717 0.34836 0.0
O361 O 0.43744 0.5558 0.36185 0.0
O362 O 0.40218 0.50731 0.29241 0.0
O363 O 0.39619 0.53568 0.28506 0.0
O364 O 0.2125 0.65344 0.21161 0.0
Cd365 Cd 0.19289 0.66155 0.16033 0.0
Cd366 Cd 0.22512 0.65882 0.08865 0.0
O367 O 0.23544 0.64854 0.15907 0.0
O368 O 0.17365 0.66248 0.21506 0.0
O369 O 0.17313 0.64452 0.14483 0.0
C370 C 0.16613 0.64981 0.18961 0.0
C371 C 0.2367 0.64836 1.00686 0.0
C372 C 0.22821 0.64827 0.20542 0.0
C373 C 0.20598 0.69409 0.10307 0.0
O374 O 0.2191 0.68527 0.08644 0.0
O375 O 0.19375 0.68683 0.13018 0.0
O376 O 0.24595 0.6576 0.03991 0.0
O377 O 0.22079 0.64455 0.0207 0.0
O378 O 0.09329 0.46066 0.9827 0.0
Cd379 Cd 0.0862 0.44146 0.9288 0.0
Cd380 Cd 0.08482 0.47357 0.86139 0.0
O381 O 0.09519 0.48431 0.93126 0.0
O382 O 0.08956 0.42073 0.977 0.0
O383 O 0.10465 0.42468 0.90139 0.0
C384 C 0.10183 0.41563 0.94484 0.0
C385 C 0.09395 0.48566 0.77863 0.0
C386 C 0.09686 0.47684 0.97705 0.0
C387 C 0.05148 0.45169 0.87967 0.0
O388 O 0.05884 0.46558 0.86203 0.0
O389 O 0.06029 0.44007 0.90494 0.0
O390 O 0.08438 0.49437 0.81211 0.0
O391 O 0.09876 0.47001 0.79244 0.0
O392 O 0.2849 0.65531 0.49256 0.0
Cd393 Cd 0.30326 0.66388 0.5474 0.0
Cd394 Cd 0.27142 0.66053 0.61463 0.0
O395 O 0.26188 0.6497 0.54398 0.0
O396 O 0.32434 0.66318 0.49973 0.0
O397 O 0.32166 0.64682 0.57346 0.0
C398 C 0.33048 0.651 0.53062 0.0
C399 C 0.26036 0.6494 0.69627 0.0
C400 C 0.26934 0.6496 0.49798 0.0
C401 C 0.28916 0.69645 0.60048 0.0
O402 O 0.27623 0.68725 0.61674 0.0
O403 O 0.30177 0.68944 0.57454 0.0
O404 O 0.25066 0.65819 0.66324 0.0
O405 O 0.27646 0.64645 0.68249 0.0
O406 O 0.0905 0.53459 0.26211 0.0
Cd407 Cd 0.08217 0.5541 0.31309 0.0
Cd408 Cd 0.08407 0.52183 0.38429 0.0
O409 O 0.09523 0.51164 0.31493 0.0
O410 O 0.08177 0.57339 0.25839 0.0
O411 O 0.09928 0.5737 0.32978 0.0
C412 C 0.0944 0.58075 0.28457 0.0
C413 C 0.09387 0.51053 0.46752 0.0
C414 C 0.09573 0.51891 0.26858 0.0
C415 C 0.04895 0.54089 0.36573 0.0
O416 O 0.05755 0.52767 0.38303 0.0
O417 O 0.05658 0.55327 0.34029 0.0
O418 O 0.08509 0.50109 0.43377 0.0
O419 O 0.09754 0.52648 0.45371 0.0
O420 O 0.21103 0.33904 1.00652 0.0
Cd421 Cd 0.19725 0.33403 0.07595 0.0
Cd422 Cd 0.23091 0.33673 0.11451 0.0
O423 O 0.23649 0.34795 0.03871 0.0
O424 O 0.17336 0.33518 0.04351 0.0
O425 O 0.18246 0.35362 0.1068 0.0
C426 C 0.17061 0.34903 0.07206 0.0
C427 C 0.23619 0.34862 0.20072 0.0
C428 C 0.22612 0.34562 0.9987 0.0
C429 C 0.21347 0.30122 0.11668 0.0
O430 O 0.22789 0.3097 0.11646 0.0
O431 O 0.19903 0.30906 0.10722 0.0
O432 O 0.24891 0.34266 0.17134 0.0
O433 O 0.22069 0.3492 0.17912 0.0
O434 O 0.40284 0.46756 0.75517 0.0
Cd435 Cd 0.41181 0.45067 0.81355 0.0
Cd436 Cd 0.40845 0.48534 0.86745 0.0
O437 O 0.39701 0.49298 0.7941 0.0
O438 O 0.41498 0.43043 0.7633 0.0
O439 O 0.39605 0.42997 0.83084 0.0
C440 C 0.40238 0.42259 0.78801 0.0
C441 C 0.39673 0.49055 0.95401 0.0
C442 C 0.39707 0.48315 0.75232 0.0
C443 C 0.44428 0.46789 0.86013 0.0
O444 O 0.43538 0.48182 0.86802 0.0
O445 O 0.43693 0.4539 0.84326 0.0
O446 O 0.40343 0.50312 0.92553 0.0
O447 O 0.39556 0.47521 0.93169 0.0
H448 H 0.10281 0.0929 0.01335 0.0
H449 H 0.11552 0.10318 0.84592 0.0
H450 H 0.13595 0.12639 0.87389 0.0
H451 H 0.15181 0.14193 0.94613 0.0
H452 H 0.14166 0.12906 0.11356 0.0
H453 H 0.11845 0.10865 0.08557 0.0
C454 C 0.10983 0.10044 0.98296 0.0
C455 C 0.10759 0.09651 0.92764 0.0
C456 C 0.12206 0.11315 0.99947 0.0
C457 C 0.11703 0.10607 0.88869 0.0
C458 C 0.12871 0.11927 0.9047 0.0
C459 C 0.14431 0.13486 0.97651 0.0
C460 C 0.14829 0.13705 0.03184 0.0
C461 C 0.13156 0.12267 0.95999 0.0
C462 C 0.13877 0.12757 0.07078 0.0
C463 C 0.12554 0.11591 0.05476 0.0
H464 H 0.11424 0.8977 0.3267 0.0
H465 H 0.09685 0.91245 0.16642 0.0
H466 H 0.11582 0.89015 0.12636 0.0
H467 H 0.13932 0.86813 0.13645 0.0
H468 H 0.15532 0.85208 0.2969 0.0
H469 H 0.13489 0.87301 0.33718 0.0
C470 C 0.11445 0.89583 0.2831 0.0
C471 C 0.10431 0.90678 0.2496 0.0
C472 C 0.12523 0.88281 0.26026 0.0
C473 C 0.10453 0.90414 0.19315 0.0
C474 C 0.11545 0.89146 0.17011 0.0
C475 C 0.13813 0.86908 0.18018 0.0
C476 C 0.1489 0.85873 0.2136 0.0
C477 C 0.12615 0.88098 0.20319 0.0
C478 C 0.14713 0.85991 0.27025 0.0
C479 C 0.13552 0.87194 0.29339 0.0
H480 H 0.39056 0.90775 0.49937 0.0
H481 H 0.37551 0.90137 0.33186 0.0
H482 H 0.35433 0.87857 0.35788 0.0
H483 H 0.33913 0.86171 0.42891 0.0
H484 H 0.35194 0.87065 0.59707 0.0
H485 H 0.37512 0.89126 0.57029 0.0
C486 C 0.38281 0.90118 0.46847 0.0
C487 C 0.38469 0.90602 0.4137 0.0
C488 C 0.37025 0.88868 0.484 0.0
C489 C 0.3743 0.89776 0.37419 0.0
C490 C 0.36221 0.88478 0.3891 0.0
C491 C 0.34715 0.86803 0.45963 0.0
C492 C 0.34402 0.86459 0.51486 0.0
C493 C 0.35994 0.8803 0.44395 0.0
C494 C 0.35419 0.8731 0.55436 0.0
C495 C 0.3674 0.88486 0.53903 0.0
H496 H 0.37727 0.11061 0.83858 0.0
H497 H 0.3982 0.09893 0.68019 0.0
H498 H 0.37744 0.11927 0.63853 0.0
H499 H 0.35156 0.13854 0.64625 0.0
H500 H 0.33204 0.152 0.80494 0.0
H501 H 0.35402 0.13304 0.8472 0.0
C502 C 0.37743 0.11276 0.79509 0.0
C503 C 0.38913 0.1032 0.76254 0.0
C504 C 0.36562 0.12472 0.77131 0.0
C505 C 0.38934 0.10618 0.70623 0.0
C506 C 0.3774 0.11774 0.68224 0.0
C507 C 0.35232 0.13747 0.69007 0.0
C508 C 0.34015 0.14649 0.72238 0.0
C509 C 0.36521 0.12679 0.71423 0.0
C510 C 0.34134 0.1452 0.77917 0.0
C511 C 0.35384 0.13428 0.80342 0.0
H512 H 0.83896 0.85957 0.24274 0.0
H513 H 0.84444 0.87511 0.0754 0.0
H514 H 0.86825 0.8953 0.10037 0.0
H515 H 0.88581 0.91 0.17078 0.0
H516 H 0.87754 0.89707 0.33913 0.0
H517 H 0.85645 0.87424 0.31296 0.0
C518 C 0.8456 0.86716 0.21161 0.0
C519 C 0.84018 0.86575 0.15721 0.0
C520 C 0.85861 0.87925 0.22666 0.0
C521 C 0.84852 0.87595 0.11743 0.0
C522 C 0.86205 0.88749 0.13176 0.0
C523 C 0.87957 0.90199 0.20164 0.0
C524 C 0.88328 0.90502 0.25676 0.0
C525 C 0.86697 0.88946 0.18637 0.0
C526 C 0.87486 0.89488 0.2965 0.0
C527 C 0.86283 0.88187 0.28153 0.0
H528 H 0.88735 0.09374 1.00805 0.0
H529 H 0.87536 0.10339 0.83961 0.0
H530 H 0.85479 0.12666 0.86573 0.0
H531 H 0.83916 0.14302 0.9366 0.0
H532 H 0.84892 0.13118 0.10508 0.0
H533 H 0.87158 0.10995 0.0789 0.0
C534 C 0.88039 0.1011 0.97703 0.0
C535 C 0.88294 0.09702 0.92196 0.0
C536 C 0.86818 0.11395 0.99246 0.0
C537 C 0.87361 0.10637 0.88221 0.0
C538 C 0.86187 0.11963 0.89715 0.0
C539 C 0.84642 0.13594 0.9676 0.0
C540 C 0.84254 0.13873 0.02271 0.0
C541 C 0.85891 0.12337 0.95216 0.0
C542 C 0.85175 0.12925 0.06245 0.0
C543 C 0.86466 0.11713 0.04748 0.0
H544 H 0.65279 0.14385 0.77524 0.0
H545 H 0.64353 0.13215 0.60649 0.0
H546 H 0.62121 0.11046 0.63206 0.0
H547 H 0.60594 0.09351 0.70249 0.0
H548 H 0.61772 0.10291 0.87114 0.0
H549 H 0.63745 0.127 0.84566 0.0
C550 C 0.64569 0.13673 0.74404 0.0
C551 C 0.64964 0.13965 0.68904 0.0
C552 C 0.63344 0.12386 0.75914 0.0
C553 C 0.64064 0.13011 0.64905 0.0
C554 C 0.62793 0.11773 0.66368 0.0
C555 C 0.61263 0.10103 0.7337 0.0
C556 C 0.6103 0.09661 0.78864 0.0
C557 C 0.62443 0.11431 0.7186 0.0
C558 C 0.6193 0.10615 0.82863 0.0
C559 C 0.63058 0.11987 0.81405 0.0
H560 H 0.60472 0.91093 0.53252 0.0
H561 H 0.6146 0.89816 0.36498 0.0
H562 H 0.63436 0.87439 0.39303 0.0
H563 H 0.65071 0.85916 0.46478 0.0
H564 H 0.64393 0.87464 0.63161 0.0
H565 H 0.62086 0.8954 0.60454 0.0
C566 C 0.61097 0.90271 0.50222 0.0
C567 C 0.60814 0.9061 0.44678 0.0
C568 C 0.6229 0.88968 0.51866 0.0
C569 C 0.61658 0.8957 0.40783 0.0
C570 C 0.62788 0.88216 0.42389 0.0
C571 C 0.64392 0.86683 0.49534 0.0
C572 C 0.6488 0.86528 0.55019 0.0
C573 C 0.63139 0.87929 0.47913 0.0
C574 C 0.64027 0.87559 0.58924 0.0
C575 C 0.62716 0.88747 0.57371 0.0
H576 H 0.65278 0.64692 0.45815 0.0
H577 H 0.64595 0.63175 0.62534 0.0
H578 H 0.6236 0.61021 0.59834 0.0
H579 H 0.60741 0.59464 0.52656 0.0
H580 H 0.61697 0.6075 0.35881 0.0
H581 H 0.63692 0.63116 0.3865 0.0
C582 C 0.64619 0.63908 0.48875 0.0
C583 C 0.65077 0.64102 0.54372 0.0
C584 C 0.63399 0.62629 0.47267 0.0
C585 C 0.64252 0.6305 0.58286 0.0
C586 C 0.6298 0.6182 0.56739 0.0
C587 C 0.61371 0.60279 0.49613 0.0
C588 C 0.61065 0.59953 0.44075 0.0
C589 C 0.62563 0.61584 0.51235 0.0
C590 C 0.61914 0.60986 0.40162 0.0
C591 C 0.63051 0.62334 0.41747 0.0
H592 H 0.61757 0.39788 0.82798 0.0
H593 H 0.60023 0.41312 0.66809 0.0
H594 H 0.62079 0.39245 0.62717 0.0
H595 H 0.64551 0.37179 0.63667 0.0
H596 H 0.66148 0.35507 0.79649 0.0
H597 H 0.63961 0.37435 0.83743 0.0
C598 C 0.61816 0.39647 0.78425 0.0
C599 C 0.60754 0.40709 0.75115 0.0
C600 C 0.62984 0.38435 0.76089 0.0
C601 C 0.60826 0.40504 0.69451 0.0
C602 C 0.62009 0.39329 0.67099 0.0
C603 C 0.644 0.37222 0.68039 0.0
C604 C 0.65517 0.36218 0.71348 0.0
C605 C 0.6312 0.38314 0.70374 0.0
C606 C 0.653 0.36267 0.77009 0.0
C607 C 0.64056 0.37377 0.79362 0.0
H608 H 0.89254 0.409 0.0136 0.0
H609 H 0.88039 0.39887 0.84562 0.0
H610 H 0.85979 0.37572 0.87269 0.0
H611 H 0.84362 0.36016 0.94422 0.0
H612 H 0.85326 0.37284 0.11208 0.0
H613 H 0.87664 0.39319 0.08512 0.0
C614 C 0.88559 0.40152 0.98289 0.0
C615 C 0.88805 0.40549 0.92767 0.0
C616 C 0.87329 0.38881 0.99886 0.0
C617 C 0.87871 0.39598 0.88832 0.0
C618 C 0.86694 0.38279 0.90382 0.0
C619 C 0.85106 0.36716 0.97493 0.0
C620 C 0.84688 0.36493 0.03009 0.0
C621 C 0.8639 0.37934 0.95898 0.0
C622 C 0.85632 0.37433 0.06943 0.0
C623 C 0.86963 0.38597 0.054 0.0
H624 H 0.84204 0.64727 0.24472 0.0
H625 H 0.84639 0.63161 0.07728 0.0
H626 H 0.86845 0.6095 0.10222 0.0
H627 H 0.88514 0.59367 0.17251 0.0
H628 H 0.87796 0.6071 0.34089 0.0
H629 H 0.85829 0.63119 0.3149 0.0
C630 C 0.84803 0.63919 0.21359 0.0
C631 C 0.84285 0.64117 0.15915 0.0
C632 C 0.86004 0.62609 0.22859 0.0
C633 C 0.85031 0.63034 0.11935 0.0
C634 C 0.86286 0.61772 0.13365 0.0
C635 C 0.87941 0.60202 0.20342 0.0
C636 C 0.88307 0.5988 0.25849 0.0
C637 C 0.86764 0.61534 0.18824 0.0
C638 C 0.87531 0.60941 0.2983 0.0
C639 C 0.86411 0.62314 0.28343 0.0
H640 H 0.36036 0.37048 0.6392 0.0
H641 H 0.34088 0.35322 0.79455 0.0
H642 H 0.3611 0.37303 0.84082 0.0
H643 H 0.38214 0.39761 0.83683 0.0
H644 H 0.40305 0.41347 0.68182 0.0
H645 H 0.38475 0.39178 0.63604 0.0
C646 C 0.3608 0.37087 0.68315 0.0
C647 C 0.34905 0.36057 0.71333 0.0
C648 C 0.37266 0.38213 0.70969 0.0
C649 C 0.34983 0.36102 0.77033 0.0
C650 C 0.36132 0.37243 0.79692 0.0
C651 C 0.3829 0.39606 0.79318 0.0
C652 C 0.39377 0.40723 0.7628 0.0
C653 C 0.37248 0.38338 0.76699 0.0
C654 C 0.39479 0.405 0.70624 0.0
C655 C 0.38424 0.39267 0.67988 0.0
H656 H 0.34048 0.64374 0.42832 0.0
H657 H 0.35483 0.63509 0.59548 0.0
H658 H 0.37898 0.61594 0.56691 0.0
H659 H 0.39416 0.59974 0.49508 0.0
H660 H 0.37725 0.60521 0.32893 0.0
H661 H 0.35598 0.62775 0.35613 0.0
C662 C 0.34911 0.63788 0.4584 0.0
C663 C 0.34606 0.64088 0.51389 0.0
C664 C 0.36239 0.6263 0.44173 0.0
C665 C 0.35701 0.63296 0.55259 0.0
C666 C 0.37077 0.62202 0.53624 0.0
C667 C 0.38607 0.60614 0.46466 0.0
C668 C 0.38736 0.60103 0.40998 0.0
C669 C 0.37334 0.61834 0.48101 0.0
C670 C 0.37651 0.60905 0.37116 0.0
C671 C 0.36434 0.62185 0.38676 0.0
H672 H 0.11506 0.60507 0.33488 0.0
H673 H 0.09628 0.58879 0.1776 0.0
H674 H 0.11614 0.60948 0.13359 0.0
H675 H 0.14091 0.63024 0.1395 0.0
H676 H 0.1584 0.64791 0.29672 0.0
H677 H 0.13695 0.62887 0.34084 0.0
C678 C 0.11515 0.60628 0.29105 0.0
C679 C 0.10436 0.59531 0.2596 0.0
C680 C 0.12647 0.61839 0.26587 0.0
C681 C 0.10445 0.59712 0.20281 0.0
C682 C 0.11588 0.60888 0.1775 0.0
C683 C 0.13981 0.63009 0.18335 0.0
C684 C 0.15131 0.6403 0.21477 0.0
C685 C 0.12726 0.61928 0.20856 0.0
C686 C 0.14966 0.64016 0.27158 0.0
C687 C 0.13746 0.6292 0.29692 0.0
H688 H 0.11174 0.40659 0.04597 0.0
H689 H 0.11794 0.39206 0.8781 0.0
H690 H 0.13838 0.36864 0.9043 0.0
H691 H 0.15578 0.35369 0.97425 0.0
H692 H 0.15251 0.3707 0.14068 0.0
H693 H 0.12943 0.39178 0.11604 0.0
C694 C 0.11741 0.39812 0.01526 0.0
C695 C 0.11327 0.40084 0.96026 0.0
C696 C 0.12965 0.38523 0.03047 0.0
C697 C 0.12095 0.39011 0.92064 0.0
C698 C 0.13261 0.37677 0.93564 0.0
C699 C 0.14978 0.36181 1.00528 0.0
C700 C 0.15558 0.36053 0.05933 0.0
C701 C 0.13721 0.37438 0.99033 0.0
C702 C 0.14811 0.37142 0.09893 0.0
C703 C 0.13499 0.38347 0.08479 0.0
H704 H 0.21084 0.14638 0.90956 0.0
H705 H 0.25958 0.14663 0.99961 0.0
H706 H 0.2761 0.14492 0.91496 0.0
H707 H 0.27668 0.14727 0.81601 0.0
H708 H 0.22801 0.14818 0.72579 0.0
H709 H 0.21145 0.14525 0.81021 0.0
C710 C 0.22508 0.14582 0.91082 0.0
C711 C 0.23397 0.14696 0.96088 0.0
C712 C 0.23449 0.14518 0.86202 0.0
C713 C 0.2524 0.14592 0.96171 0.0
C714 C 0.26186 0.14502 0.91329 0.0
C715 C 0.26245 0.1466 0.81464 0.0
C716 C 0.25357 0.14827 0.76472 0.0
C717 C 0.25304 0.14527 0.86327 0.0
C718 C 0.23516 0.14705 0.76364 0.0
C719 C 0.22568 0.14546 0.81194 0.0
H720 H 0.10477 0.97021 0.15042 0.0
H721 H 0.10129 0.01926 0.23768 0.0
H722 H 0.10346 0.03548 0.15237 0.0
H723 H 0.102 0.03547 0.05306 0.0
H724 H 0.10432 0.98632 0.96588 0.0
H725 H 0.10718 0.97038 0.05146 0.0
C726 C 0.10475 0.98447 0.15093 0.0
C727 C 0.10251 0.99352 0.20021 0.0
C728 C 0.10562 0.99366 0.10178 0.0
C729 C 0.10287 0.01197 0.20028 0.0
C730 C 0.104 0.02125 0.15148 0.0
C731 C 0.10338 0.02128 0.05266 0.0
C732 C 0.10258 0.01206 1.00322 0.0
C733 C 0.10469 0.0122 0.10195 0.0
C734 C 0.10474 0.99372 1.00336 0.0
C735 C 0.10629 0.9846 0.0523 0.0
H736 H 0.21321 0.84946 0.30976 0.0
H737 H 0.26077 0.84781 0.21444 0.0
H738 H 0.27835 0.8507 0.29693 0.0
H739 H 0.28017 0.85008 0.39601 0.0
H740 H 0.23258 0.85017 0.49136 0.0
H741 H 0.21503 0.85174 0.40851 0.0
C742 C 0.22743 0.84994 0.30678 0.0
C743 C 0.23567 0.84813 0.25595 0.0
C744 C 0.23744 0.8512 0.35436 0.0
C745 C 0.25408 0.84903 0.25299 0.0
C746 C 0.26415 0.85062 0.30018 0.0
C747 C 0.26596 0.85068 0.39888 0.0
C748 C 0.2577 0.84972 0.44992 0.0
C749 C 0.25596 0.85115 0.35112 0.0
C750 C 0.23929 0.85073 0.45268 0.0
C751 C 0.22924 0.85157 0.4053 0.0
H752 H 0.40104 0.99421 0.71071 0.0
H753 H 0.39867 0.04758 0.65153 0.0
H754 H 0.39713 0.03712 0.55868 0.0
H755 H 0.39934 0.01293 0.49279 0.0
H756 H 0.40119 0.95952 0.55185 0.0
H757 H 0.39987 0.96988 0.64486 0.0
C758 C 0.39989 0.00353 0.6776 0.0
C759 C 0.40026 0.02166 0.68854 0.0
C760 C 0.39908 0.99744 0.62359 0.0
C761 C 0.39867 0.03352 0.64475 0.0
C762 C 0.3978 0.02757 0.59128 0.0
C763 C 0.39919 0.00355 0.52592 0.0
C764 C 0.40063 0.98549 0.51483 0.0
C765 C 0.39846 0.00957 0.57999 0.0
C766 C 0.4003 0.97355 0.55869 0.0
C767 C 0.39956 0.97944 0.61226 0.0
H768 H 0.73414 0.85957 0.24828 0.0
H769 H 0.78816 0.85809 0.30178 0.0
H770 H 0.77879 0.86023 0.39587 0.0
H771 H 0.75519 0.8589 0.46367 0.0
H772 H 0.70116 0.85953 0.41016 0.0
H773 H 0.7106 0.86159 0.31609 0.0
C774 C 0.74386 0.86005 0.28044 0.0
C775 C 0.76178 0.8584 0.26787 0.0
C776 C 0.73839 0.86097 0.33484 0.0
C777 C 0.77422 0.85908 0.3102 0.0
C778 C 0.7689 0.8603 0.36419 0.0
C779 C 0.74549 0.85985 0.43151 0.0
C780 C 0.72752 0.8588 0.44402 0.0
C781 C 0.751 0.86069 0.37713 0.0
C782 C 0.71512 0.86005 0.40173 0.0
C783 C 0.72048 0.86122 0.34777 0.0
H784 H 0.89499 0.03406 0.04435 0.0
H785 H 0.89566 0.9857 0.95276 0.0
H786 H 0.89353 0.96884 0.03688 0.0
H787 H 0.89509 0.96786 0.13599 0.0
H788 H 0.89589 0.01622 0.22762 0.0
H789 H 0.8936 0.03308 0.14351 0.0
C790 C 0.89444 0.01983 0.04256 0.0
C791 C 0.89576 0.01115 0.99223 0.0
C792 C 0.89362 0.01023 0.09107 0.0
C793 C 0.8948 0.99272 0.99085 0.0
C794 C 0.89365 0.98307 0.03898 0.0
C795 C 0.89455 0.98209 0.13779 0.0
C796 C 0.89595 0.99077 0.18812 0.0
C797 C 0.89363 0.99169 0.0893 0.0
C798 C 0.89497 0.0092 0.18952 0.0
C799 C 0.89373 0.01885 0.1414 0.0
H800 H 0.77922 0.15222 0.90175 0.0
H801 H 0.73144 0.15464 0.99582 0.0
H802 H 0.71403 0.15237 0.91288 0.0
H803 H 0.71248 0.15335 0.81382 0.0
H804 H 0.7603 0.15233 0.71966 0.0
H805 H 0.7776 0.15016 0.80286 0.0
C806 C 0.765 0.15203 0.90432 0.0
C807 C 0.75665 0.1539 0.95494 0.0
C808 C 0.75508 0.1511 0.85647 0.0
C809 C 0.73821 0.15338 0.95742 0.0
C810 C 0.72824 0.15214 0.90998 0.0
C811 C 0.72668 0.15242 0.81131 0.0
C812 C 0.73509 0.1533 0.76054 0.0
C813 C 0.73655 0.15157 0.85926 0.0
C814 C 0.75349 0.15184 0.75816 0.0
C815 C 0.7634 0.15066 0.80574 0.0
H816 H 0.60577 0.03386 0.66391 0.0
H817 H 0.60355 0.98499 0.75286 0.0
H818 H 0.6059 0.96855 0.66828 0.0
H819 H 0.60427 0.96819 0.56915 0.0
H820 H 0.6056 0.01707 0.48012 0.0
H821 H 0.6082 0.03338 0.56493 0.0
C822 C 0.60606 0.01961 0.6649 0.0
C823 C 0.6041 0.01066 0.71444 0.0
C824 C 0.60711 0.01025 0.61616 0.0
C825 C 0.60486 0.9922 0.71519 0.0
C826 C 0.60612 0.98279 0.66684 0.0
C827 C 0.60538 0.9824 0.56823 0.0
C828 C 0.60436 0.99143 0.51856 0.0
C829 C 0.60656 0.99169 0.61706 0.0
C830 C 0.60619 0.00981 0.51789 0.0
C831 C 0.60759 0.01915 0.56637 0.0
H832 H 0.75743 0.6585 0.46461 0.0
H833 H 0.70394 0.65481 0.40699 0.0
H834 H 0.71422 0.65319 0.31382 0.0
H835 H 0.73821 0.6557 0.24754 0.0
H836 H 0.79169 0.65945 0.30519 0.0
H837 H 0.78159 0.65799 0.39856 0.0
C838 C 0.74804 0.65706 0.43177 0.0
C839 C 0.72994 0.65704 0.44305 0.0
C840 C 0.75401 0.6563 0.37779 0.0
C841 C 0.71798 0.6551 0.39974 0.0
C842 C 0.72382 0.65418 0.3462 0.0
C843 C 0.74767 0.65595 0.28047 0.0
C844 C 0.76564 0.65794 0.26903 0.0
C845 C 0.74179 0.65524 0.33456 0.0
C846 C 0.77772 0.65813 0.31248 0.0
C847 C 0.77198 0.65731 0.36616 0.0
H848 H 0.5994 0.53649 0.56037 0.0
H849 H 0.59943 0.48805 0.46917 0.0
H850 H 0.60154 0.47129 0.55347 0.0
H851 H 0.59976 0.47037 0.65249 0.0
H852 H 0.59835 0.51877 0.74379 0.0
H853 H 0.60065 0.5356 0.65961 0.0
C854 C 0.60009 0.52227 0.55873 0.0
C855 C 0.59896 0.51353 0.50844 0.0
C856 C 0.60093 0.51272 0.60733 0.0
C857 C 0.60013 0.49511 0.50723 0.0
C858 C 0.60127 0.48551 0.55545 0.0
C859 C 0.60017 0.48461 0.6542 0.0
C860 C 0.59859 0.4933 0.70441 0.0
C861 C 0.60111 0.49418 0.60569 0.0
C862 C 0.59942 0.51174 0.70576 0.0
C863 C 0.60066 0.52137 0.6576 0.0
H864 H 0.71903 0.36055 0.81026 0.0
H865 H 0.76761 0.35703 0.72062 0.0
H866 H 0.78429 0.35935 0.80512 0.0
H867 H 0.78484 0.35835 0.90449 0.0
H868 H 0.73617 0.36083 0.99408 0.0
H869 H 0.71975 0.36319 0.9092 0.0
C870 C 0.73329 0.36052 0.80904 0.0
C871 C 0.74207 0.35829 0.75928 0.0
C872 C 0.74275 0.36153 0.85774 0.0
C873 C 0.76052 0.35862 0.75836 0.0
C874 C 0.77006 0.35985 0.8067 0.0
C875 C 0.77064 0.35965 0.90557 0.0
C876 C 0.76171 0.35908 0.95556 0.0
C877 C 0.76128 0.36068 0.85667 0.0
C878 C 0.74337 0.3611 0.95622 0.0
C879 C 0.73396 0.36236 0.90767 0.0
H880 H 0.89305 0.53457 0.14113 0.0
H881 H 0.89732 0.48648 0.23341 0.0
H882 H 0.89572 0.4694 0.14968 0.0
H883 H 0.89681 0.46839 0.05046 0.0
H884 H 0.89384 0.51657 0.95814 0.0
H885 H 0.891 0.53335 0.04209 0.0
C886 C 0.89341 0.52033 0.14315 0.0
C887 C 0.8956 0.51183 0.19353 0.0
C888 C 0.89285 0.51063 0.09485 0.0
C889 C 0.89576 0.49338 0.19527 0.0
C890 C 0.89493 0.4836 0.14735 0.0
C891 C 0.89532 0.48255 0.04851 0.0
C892 C 0.89583 0.49123 0.998 0.0
C893 C 0.89406 0.49213 0.0969 0.0
C894 C 0.89361 0.50955 0.99637 0.0
C895 C 0.89207 0.51917 0.0444 0.0
H896 H 0.23901 0.34711 0.74595 0.0
H897 H 0.29008 0.3648 0.79889 0.0
H898 H 0.27988 0.36607 0.89236 0.0
H899 H 0.25753 0.35867 0.96092 0.0
H900 H 0.20647 0.34087 0.90748 0.0
H901 H 0.21556 0.34324 0.81346 0.0
C902 C 0.24775 0.35168 0.77772 0.0
C903 C 0.26532 0.35563 0.76535 0.0
C904 C 0.24191 0.35207 0.83193 0.0
C905 C 0.27651 0.36148 0.80725 0.0
C906 C 0.27073 0.36214 0.86093 0.0
C907 C 0.24833 0.35553 0.92873 0.0
C908 C 0.23146 0.34932 0.94174 0.0
C909 C 0.25363 0.35686 0.8741 0.0
C910 C 0.21966 0.34548 0.89914 0.0
C911 C 0.22481 0.34684 0.84501 0.0
H912 H 0.39018 0.49653 0.50187 0.0
H913 H 0.39767 0.55008 0.55484 0.0
H914 H 0.39546 0.54094 0.64905 0.0
H915 H 0.39521 0.51726 0.71711 0.0
H916 H 0.38806 0.46369 0.66423 0.0
H917 H 0.38602 0.47335 0.57033 0.0
C918 C 0.391 0.50624 0.53396 0.0
C919 C 0.39442 0.52389 0.521 0.0
C920 C 0.38991 0.50089 0.58858 0.0
C921 C 0.39533 0.53631 0.56336 0.0
C922 C 0.39407 0.53112 0.61752 0.0
C923 C 0.39278 0.50777 0.68519 0.0
C924 C 0.39207 0.48978 0.6978 0.0
C925 C 0.39193 0.51336 0.63075 0.0
C926 C 0.38892 0.47764 0.65573 0.0
C927 C 0.38779 0.48312 0.60181 0.0
H928 H 0.28222 0.64461 0.3966 0.0
H929 H 0.23407 0.64321 0.48909 0.0
H930 H 0.21713 0.64012 0.40552 0.0
H931 H 0.21583 0.64197 0.30655 0.0
H932 H 0.26389 0.64449 0.21393 0.0
H933 H 0.28106 0.64269 0.29751 0.0
C934 C 0.26803 0.64339 0.39862 0.0
C935 C 0.2594 0.6445 0.44895 0.0
C936 C 0.25836 0.64194 0.35044 0.0
C937 C 0.24104 0.64256 0.45088 0.0
C938 C 0.23133 0.64086 0.40309 0.0
C939 C 0.23007 0.64188 0.3045 0.0
C940 C 0.23857 0.64373 0.25417 0.0
C941 C 0.23983 0.6412 0.35265 0.0
C942 C 0.25702 0.64323 0.25217 0.0
C943 C 0.26684 0.64229 0.29996 0.0
H944 H 0.10097 0.53131 0.1668 0.0
H945 H 0.10155 0.48345 0.2611 0.0
H946 H 0.10439 0.4662 0.17807 0.0
H947 H 0.10267 0.46465 0.07903 0.0
H948 H 0.10071 0.51253 0.98488 0.0
H949 H 0.10268 0.52986 0.0679 0.0
C950 C 0.10195 0.51711 0.16937 0.0
C951 C 0.1007 0.50866 0.22005 0.0
C952 C 0.10319 0.50729 0.12153 0.0
C953 C 0.10232 0.49028 0.22263 0.0
C954 C 0.10387 0.48041 0.17514 0.0
C955 C 0.10292 0.47888 0.07649 0.0
C956 C 0.1012 0.48728 0.02582 0.0
C957 C 0.10367 0.48876 0.12437 0.0
C958 C 0.10184 0.50572 0.02332 0.0
C959 C 0.1029 0.51564 0.07081 0.0
H960 H 0.22772 0.21995 0.13889 0.0
H961 H 0.17299 0.218 0.09267 0.0
H962 H 0.1715 0.25002 0.09463 0.0
H963 H 0.18617 0.27853 0.10374 0.0
H964 H 0.24117 0.2805 0.14677 0.0
H965 H 0.24205 0.24848 0.15211 0.0
C966 C 0.21541 0.2265 0.12973 0.0
C967 C 0.20052 0.21656 0.11535 0.0
C968 C 0.2147 0.24493 0.13011 0.0
C969 C 0.18469 0.2253 0.10358 0.0
C970 C 0.18382 0.24363 0.10465 0.0
C971 C 0.19832 0.27199 0.11483 0.0
C972 C 0.2136 0.28193 0.12453 0.0
C973 C 0.19882 0.25357 0.11699 0.0
C974 C 0.22923 0.27319 0.13878 0.0
C975 C 0.22975 0.25487 0.14181 0.0
H976 H 0.02685 0.93851 0.31675 0.0
H977 H 0.03025 0.989 0.3961 0.0
H978 H -0.0017 0.9905 0.40104 0.0
H979 H 0.96941 0.97839 0.37799 0.0
H980 H 0.96596 0.9281 0.29753 0.0
H981 H 0.99792 0.92563 0.29832 0.0
C982 C 0.02063 0.94979 0.33553 0.0
C983 C 0.03099 0.96368 0.3556 0.0
C984 C 0.00222 0.95067 0.33788 0.0
C985 C 0.02265 0.97814 0.38003 0.0
C986 C 0.00435 0.97904 0.38284 0.0
C987 C 0.97561 0.96681 0.36095 0.0
C988 C 0.96526 0.95353 0.33735 0.0
C989 C 0.99401 0.96552 0.3611 0.0
C990 C 0.97357 0.93858 0.31577 0.0
C991 C 0.99187 0.93715 0.3161 0.0
H992 H 0.27373 0.77674 0.64017 0.0
H993 H 0.3227 0.78186 0.55324 0.0
H994 H 0.32575 0.74994 0.55088 0.0
H995 H 0.31349 0.72058 0.56787 0.0
H996 H 0.26426 0.71567 0.65361 0.0
H997 H 0.26245 0.7475 0.66215 0.0
C998 C 0.28516 0.77092 0.62108 0.0
C999 C 0.29787 0.78173 0.59652 0.0
C1000 C 0.28676 0.75256 0.61933 0.0
C1001 C 0.31265 0.77389 0.5723 0.0
C1002 C 0.3144 0.75562 0.57079 0.0
C1003 C 0.30243 0.72645 0.58883 0.0
C1004 C 0.28896 0.7157 0.60958 0.0
C1005 C 0.30137 0.74482 0.59328 0.0
C1006 C 0.27478 0.72357 0.63688 0.0
C1007 C 0.27371 0.74181 0.64179 0.0
H1008 H 0.47152 0.02551 0.89174 0.0
H1009 H 0.46853 0.07802 0.82574 0.0
H1010 H 0.50051 0.0802 0.82711 0.0
H1011 H 0.52937 0.06648 0.8412 0.0
H1012 H 0.53223 0.01392 0.90704 0.0
H1013 H 0.50029 0.0126 0.91178 0.0
C1014 C 0.47783 0.0375 0.87802 0.0
C1015 C 0.4676 0.0515 0.8582 0.0
C1016 C 0.49624 0.03865 0.87861 0.0
C1017 C 0.47604 0.06699 0.84107 0.0
C1018 C 0.49436 0.06825 0.84167 0.0
C1019 C 0.52303 0.05478 0.85699 0.0
C1020 C 0.53324 0.04027 0.87321 0.0
C1021 C 0.5046 0.05404 0.85944 0.0
C1022 C 0.52475 0.02528 0.89398 0.0
C1023 C 0.50645 0.02448 0.89665 0.0
H1024 H 0.21955 0.77472 0.06332 0.0
H1025 H 0.17128 0.77868 0.15442 0.0
H1026 H 0.16872 0.74673 0.15578 0.0
H1027 H 0.18135 0.71766 0.13727 0.0
H1028 H 0.2299 0.71386 0.04741 0.0
H1029 H 0.23105 0.74574 0.03925 0.0
C1030 C 0.20837 0.76864 0.08307 0.0
C1031 C 0.19574 0.77914 0.10918 0.0
C1032 C 0.20705 0.75025 0.08425 0.0
C1033 C 0.18127 0.77096 0.13419 0.0
C1034 C 0.1798 0.75266 0.13514 0.0
C1035 C 0.1921 0.72377 0.11543 0.0
C1036 C 0.2056 0.71333 0.09352 0.0
C1037 C 0.1928 0.74217 0.11125 0.0
C1038 C 0.21937 0.72153 0.06508 0.0
C1039 C 0.22007 0.73979 0.0604 0.0
H1040 H 0.47296 0.98223 0.32289 0.0
H1041 H 0.46701 0.92846 0.37593 0.0
H1042 H 0.49885 0.92528 0.38132 0.0
H1043 H 0.52834 0.93833 0.37681 0.0
H1044 H 0.53416 0.99212 0.32363 0.0
H1045 H 0.50246 0.99462 0.31237 0.0
C1046 C 0.4786 0.96976 0.33517 0.0
C1047 C 0.46755 0.95568 0.34943 0.0
C1048 C 0.49694 0.96802 0.33855 0.0
C1049 C 0.47515 0.93956 0.36486 0.0
C1050 C 0.49339 0.93773 0.36815 0.0
C1051 C 0.5227 0.95057 0.36245 0.0
C1052 C 0.53366 0.96505 0.35163 0.0
C1053 C 0.5044 0.95197 0.35607 0.0
C1054 C 0.52608 0.98076 0.33254 0.0
C1055 C 0.50792 0.98224 0.32612 0.0
H1056 H 0.31038 0.22339 0.6367 0.0
H1057 H 0.2578 0.22006 0.57128 0.0
H1058 H 0.25681 0.25193 0.56175 0.0
H1059 H 0.2701 0.28085 0.5771 0.0
H1060 H 0.32262 0.2842 0.64302 0.0
H1061 H 0.32439 0.25224 0.64665 0.0
C1062 C 0.29873 0.2296 0.62004 0.0
C1063 C 0.28414 0.2193 0.60525 0.0
C1064 C 0.2982 0.24797 0.61482 0.0
C1065 C 0.26922 0.22762 0.5833 0.0
C1066 C 0.26861 0.24588 0.57786 0.0
C1067 C 0.28201 0.27461 0.59184 0.0
C1068 C 0.29613 0.28498 0.61018 0.0
C1069 C 0.28292 0.2562 0.59427 0.0
C1070 C 0.31149 0.27661 0.62881 0.0
C1071 C 0.31252 0.2583 0.63107 0.0
H1072 H 0.97014 0.02304 0.81225 0.0
H1073 H 0.9652 0.07478 0.88248 0.0
H1074 H 0.99711 0.07755 0.88588 0.0
H1075 H 0.02639 0.06464 0.87388 0.0
H1076 H 0.03124 0.01272 0.80485 0.0
H1077 H -0.0006 0.01076 0.79593 0.0
C1078 C 0.97601 0.035 0.82791 0.0
C1079 C 0.96524 0.04862 0.84741 0.0
C1080 C 0.99438 0.03646 0.83028 0.0
C1081 C 0.97313 0.06404 0.86737 0.0
C1082 C 0.99141 0.06564 0.86946 0.0
C1083 C 0.02051 0.05294 0.85654 0.0
C1084 C 0.03123 0.03881 0.84046 0.0
C1085 C 0.00215 0.05182 0.85182 0.0
C1086 C 0.02334 0.02378 0.81785 0.0
C1087 C 0.00511 0.02262 0.81274 0.0
H1088 H 0.76428 0.72795 0.0732 0.0
H1089 H 0.81984 0.7247 0.10788 0.0
H1090 H 0.82195 0.75669 0.10672 0.0
H1091 H 0.80763 0.78556 0.10254 0.0
H1092 H 0.75195 0.78868 0.06942 0.0
H1093 H 0.75038 0.75677 0.06306 0.0
C1094 C 0.7769 0.7342 0.08002 0.0
C1095 C 0.79184 0.72389 0.09111 0.0
C1096 C 0.77801 0.75261 0.07993 0.0
C1097 C 0.8081 0.73227 0.09949 0.0
C1098 C 0.80932 0.75059 0.09898 0.0
C1099 C 0.79517 0.77929 0.09346 0.0
C1100 C 0.77991 0.78955 0.08701 0.0
C1101 C 0.79429 0.76089 0.09031 0.0
C1102 C 0.7639 0.78116 0.07495 0.0
C1103 C 0.76297 0.76288 0.07134 0.0
H1104 H 0.72268 0.22648 0.57065 0.0
H1105 H 0.67276 0.22334 0.65321 0.0
H1106 H 0.671 0.25535 0.65554 0.0
H1107 H 0.68459 0.28418 0.63977 0.0
H1108 H 0.73475 0.28714 0.55844 0.0
H1109 H 0.73536 0.25525 0.54992 0.0
C1110 C 0.71132 0.23276 0.58877 0.0
C1111 C 0.69795 0.22247 0.61212 0.0
C1112 C 0.71047 0.25117 0.59053 0.0
C1113 C 0.68329 0.23089 0.6351 0.0
C1114 C 0.68229 0.24922 0.6366 0.0
C1115 C 0.6956 0.27788 0.61979 0.0
C1116 C 0.70967 0.28809 0.60025 0.0
C1117 C 0.69596 0.25949 0.61533 0.0
C1118 C 0.72377 0.27966 0.5742 0.0
C1119 C 0.72416 0.26139 0.56931 0.0
H1120 H 0.81421 0.28309 0.07718 0.0
H1121 H 0.76421 0.28861 0.15815 0.0
H1122 H 0.76167 0.25679 0.16528 0.0
H1123 H 0.77264 0.22742 0.14363 0.0
H1124 H 0.82237 0.2217 0.06128 0.0
H1125 H 0.82602 0.25356 0.06015 0.0
C1126 C 0.80282 0.27736 0.0968 0.0
C1127 C 0.78937 0.28828 0.11666 0.0
C1128 C 0.80134 0.25899 0.1004 0.0
C1129 C 0.77474 0.28057 0.14215 0.0
C1130 C 0.77325 0.26234 0.14626 0.0
C1131 C 0.78437 0.23309 0.1258 0.0
C1132 C 0.79713 0.22214 0.1022 0.0
C1133 C 0.78632 0.25143 0.12474 0.0
C1134 C 0.81227 0.22979 0.07956 0.0
C1135 C 0.81437 0.24803 0.07877 0.0
H1136 H 0.72747 0.72843 0.63906 0.0
H1137 H 0.67277 0.72334 0.5948 0.0
H1138 H 0.66953 0.75523 0.59589 0.0
H1139 H 0.68272 0.78459 0.60304 0.0
H1140 H 0.73757 0.78955 0.64582 0.0
H1141 H 0.74015 0.7577 0.65193 0.0
C1142 C 0.71478 0.73426 0.63011 0.0
C1143 C 0.70044 0.72346 0.6164 0.0
C1144 C 0.71303 0.75262 0.63023 0.0
C1145 C 0.68408 0.73129 0.60526 0.0
C1146 C 0.68221 0.74956 0.60574 0.0
C1147 C 0.6952 0.77873 0.61419 0.0
C1148 C 0.70995 0.7895 0.62344 0.0
C1149 C 0.69668 0.76035 0.61717 0.0
C1150 C 0.726 0.78163 0.63809 0.0
C1151 C 0.72752 0.76338 0.64157 0.0
H1152 H 0.52529 0.48315 0.88618 0.0
H1153 H 0.52832 0.43002 0.8254 0.0
H1154 H 0.49635 0.42785 0.82659 0.0
H1155 H 0.46757 0.44162 0.8393 0.0
H1156 H 0.46449 0.49501 0.89788 0.0
H1157 H 0.49647 0.4964 0.90338 0.0
C1158 C 0.519 0.47103 0.87364 0.0
C1159 C 0.52924 0.45682 0.85537 0.0
C1160 C 0.50058 0.46993 0.87375 0.0
C1161 C 0.5208 0.44121 0.83938 0.0
C1162 C 0.5025 0.43995 0.83998 0.0
C1163 C 0.47385 0.45353 0.85372 0.0
C1164 C 0.46359 0.46822 0.86776 0.0
C1165 C 0.49226 0.45433 0.85621 0.0
C1166 C 0.47202 0.48352 0.88649 0.0
C1167 C 0.49033 0.48434 0.88963 0.0
H1168 H 0.96782 0.52691 0.39217 0.0
H1169 H 0.96515 0.57479 0.29832 0.0
H1170 H 0.99709 0.57746 0.30187 0.0
H1171 H 0.02586 0.56517 0.32631 0.0
H1172 H 0.0284 0.51703 0.41903 0.0
H1173 H 0.99643 0.51564 0.42148 0.0
C1174 C 0.97418 0.53801 0.37276 0.0
C1175 C 0.96407 0.55052 0.34459 0.0
C1176 C 0.99256 0.53941 0.37458 0.0
C1177 C 0.97258 0.56489 0.3201 0.0
C1178 C 0.99087 0.56643 0.32202 0.0
C1179 C 0.01944 0.55446 0.34755 0.0
C1180 C 0.02958 0.54116 0.37201 0.0
C1181 C 0.00101 0.55361 0.34837 0.0
C1182 C 0.02098 0.52742 0.39951 0.0
C1183 C 0.00267 0.52658 0.40089 0.0
H1184 H 0.97023 0.43542 0.88881 0.0
H1185 H 0.9684 0.48479 0.80233 0.0
H1186 H 0.00039 0.48585 0.80063 0.0
H1187 H 0.0288 0.47381 0.82852 0.0
H1188 H 0.0308 0.42474 0.9165 0.0
H1189 H -0.00117 0.42251 0.91232 0.0
C1190 C 0.97681 0.44634 0.86913 0.0
C1191 C 0.96687 0.46006 0.84612 0.0
C1192 C 0.99526 0.44699 0.86876 0.0
C1193 C 0.97567 0.47408 0.82069 0.0
C1194 C 0.99399 0.47473 0.81972 0.0
C1195 C 0.02229 0.46254 0.84649 0.0
C1196 C 0.03223 0.44955 0.87317 0.0
C1197 C 0.0039 0.46141 0.84443 0.0
C1198 C 0.02352 0.435 0.89589 0.0
C1199 C 0.00521 0.43371 0.89362 0.0
H1200 H 0.46858 0.56717 0.3681 0.0
H1201 H 0.4642 0.51296 0.31806 0.0
H1202 H 0.49614 0.51065 0.3137 0.0
H1203 H 0.52527 0.52344 0.32931 0.0
H1204 H 0.52964 0.57737 0.38211 0.0
H1205 H 0.49773 0.58034 0.37982 0.0
C1206 C 0.47458 0.55488 0.35573 0.0
C1207 C 0.46397 0.54024 0.34372 0.0
C1208 C 0.49297 0.55355 0.35405 0.0
C1209 C 0.47202 0.52443 0.32783 0.0
C1210 C 0.49031 0.52308 0.32535 0.0
C1211 C 0.51928 0.5359 0.33989 0.0
C1212 C 0.52988 0.55012 0.35616 0.0
C1213 C 0.50091 0.53747 0.33921 0.0
C1214 C 0.52183 0.56617 0.36971 0.0
C1215 C 0.50357 0.56789 0.36845 0.0
H1216 H 0.25902 0.14746 0.26051 0.0
H1217 H 0.20327 0.1461 0.29184 0.0
H1218 H 0.20893 0.14436 0.3893 0.0
H1219 H 0.22967 0.14698 0.46561 0.0
H1220 H 0.28543 0.14769 0.43432 0.0
H1221 H 0.27984 0.14567 0.33687 0.0
C1222 C 0.24812 0.14647 0.28865 0.0
C1223 C 0.23075 0.14715 0.26906 0.0
C1224 C 0.25148 0.14549 0.34463 0.0
C1225 C 0.21676 0.14563 0.30588 0.0
C1226 C 0.21999 0.14475 0.36166 0.0
C1227 C 0.2406 0.14638 0.43748 0.0
C1228 C 0.25793 0.14773 0.45708 0.0
C1229 C 0.23728 0.14524 0.38152 0.0
C1230 C 0.27197 0.1467 0.42028 0.0
C1231 C 0.26877 0.14566 0.3645 0.0
H1232 H 0.10345 0.01717 0.499 0.0
H1233 H 0.10422 0.96127 0.5284 0.0
H1234 H 0.10674 0.9665 0.6259 0.0
H1235 H 0.10462 0.98692 0.70288 0.0
H1236 H 0.10403 0.04283 0.67341 0.0
H1237 H 0.10585 0.03764 0.57581 0.0
C1238 C 0.10449 0.00614 0.5267 0.0
C1239 C 0.10337 0.98886 0.50663 0.0
C1240 C 0.10583 0.00924 0.58268 0.0
C1241 C 0.105 0.97469 0.54284 0.0
C1242 C 0.10633 0.97768 0.59864 0.0
C1243 C 0.10522 0.99798 0.67513 0.0
C1244 C 0.10391 0.01523 0.69528 0.0
C1245 C 0.10613 0.99489 0.61907 0.0
C1246 C 0.10496 0.02942 0.65895 0.0
C1247 C 0.10588 0.02646 0.60308 0.0
H1248 H 0.21561 0.84441 0.91392 0.0
H1249 H 0.2677 0.84269 0.98272 0.0
H1250 H 0.28058 0.84543 0.89236 0.0
H1251 H 0.27707 0.84532 0.79309 0.0
H1252 H 0.22501 0.84387 0.72409 0.0
H1253 H 0.21209 0.84554 0.81467 0.0
C1254 C 0.22977 0.84496 0.90907 0.0
C1255 C 0.24069 0.84338 0.9548 0.0
C1256 C 0.23709 0.84583 0.85676 0.0
C1257 C 0.25902 0.84384 0.94801 0.0
C1258 C 0.2664 0.84537 0.89636 0.0
C1259 C 0.26291 0.84571 0.79796 0.0
C1260 C 0.252 0.84452 0.75209 0.0
C1261 C 0.25558 0.84595 0.85032 0.0
C1262 C 0.23367 0.84474 0.75891 0.0
C1263 C 0.22628 0.84566 0.81067 0.0
H1264 H 0.40163 0.98873 0.99949 0.0
H1265 H 0.40039 0.04462 0.02816 0.0
H1266 H 0.39948 0.0395 0.12597 0.0
H1267 H 0.40163 0.01915 0.20397 0.0
H1268 H 0.40116 0.96325 0.17531 0.0
H1269 H 0.39996 0.96835 0.07751 0.0
C1270 C 0.40089 -0.00021 0.02712 0.0
C1271 C 0.40122 0.01706 1.00629 0.0
C1272 C 0.40017 0.99674 0.08359 0.0
C1273 C 0.40011 0.0312 0.04282 0.0
C1274 C 0.3997 0.02828 0.09894 0.0
C1275 C 0.40101 0.00808 0.17634 0.0
C1276 C 0.40163 0.99082 0.19717 0.0
C1277 C 0.40011 0.01112 0.11988 0.0
C1278 C 0.40066 0.97666 0.16065 0.0
C1279 C 0.40007 0.97957 0.10454 0.0
H1280 H 0.77329 0.86219 0.92461 0.0
H1281 H 0.71943 0.86106 0.97887 0.0
H1282 H 0.7092 0.86349 0.88527 0.0
H1283 H 0.7155 0.86222 0.7875 0.0
H1284 H 0.76936 0.86134 0.73324 0.0
H1285 H 0.77958 0.86365 0.82686 0.0
C1286 C 0.75932 0.86287 0.91604 0.0
C1287 C 0.74716 0.86135 0.95874 0.0
C1288 C 0.7535 0.86373 0.86186 0.0
C1289 C 0.72909 0.8621 0.9468 0.0
C1290 C 0.72321 0.86345 0.8932 0.0
C1291 C 0.72946 0.86292 0.79608 0.0
C1292 C 0.74163 0.86152 0.75336 0.0
C1293 C 0.73528 0.86371 0.85027 0.0
C1294 C 0.75969 0.86231 0.76531 0.0
C1295 C 0.76557 0.86357 0.81893 0.0
H1296 H 0.89853 0.98672 0.69359 0.0
H1297 H 0.89817 0.04235 0.66006 0.0
H1298 H 0.89658 0.0364 0.56273 0.0
H1299 H 0.89851 0.01533 0.48706 0.0
H1300 H 0.89759 0.9597 0.52061 0.0
H1301 H 0.89623 0.96567 0.61794 0.0
C1302 C 0.89783 0.99753 0.66497 0.0
C1303 C 0.89868 0.01495 0.68393 0.0
C1304 C 0.89679 0.994 0.60907 0.0
C1305 C 0.89753 0.02883 0.6465 0.0
C1306 C 0.89673 0.02543 0.5908 0.0
C1307 C 0.89772 0.00453 0.51569 0.0
C1308 C 0.89836 0.98709 0.49672 0.0
C1309 C 0.89684 0.00807 0.57159 0.0
C1310 C 0.89711 0.97323 0.53417 0.0
C1311 C 0.89645 0.97664 0.58987 0.0
H1312 H 0.77663 0.15644 0.29588 0.0
H1313 H 0.72439 0.15953 0.22862 0.0
H1314 H 0.71172 0.157 0.3193 0.0
H1315 H 0.71556 0.15715 0.41838 0.0
H1316 H 0.76786 0.15717 0.48584 0.0
H1317 H 0.78043 0.15504 0.39492 0.0
C1318 C 0.76248 0.15621 0.30112 0.0
C1319 C 0.75146 0.15817 0.25577 0.0
C1320 C 0.7553 0.15546 0.35359 0.0
C1321 C 0.73314 0.15811 0.26305 0.0
C1322 C 0.72589 0.15669 0.31488 0.0
C1323 C 0.72968 0.15633 0.4131 0.0
C1324 C 0.74077 0.1573 0.45859 0.0
C1325 C 0.73684 0.15583 0.36057 0.0
C1326 C 0.75907 0.15649 0.45129 0.0
C1327 C 0.76627 0.15532 0.39934 0.0
H1328 H 0.60668 0.97132 0.1806 0.0
H1329 H 0.60737 0.02448 0.24109 0.0
H1330 H 0.60992 0.0358 0.14876 0.0
H1331 H 0.60733 0.03072 0.05077 0.0
H1332 H 0.60398 0.97762 0.99054 0.0
H1333 H 0.60734 0.96615 0.08243 0.0
C1334 C 0.60785 0.98535 0.17358 0.0
C1335 C 0.60669 0.99706 0.21738 0.0
C1336 C 0.6086 0.99179 0.12026 0.0
C1337 C 0.60808 0.01522 0.20782 0.0
C1338 C 0.60948 0.02171 0.15505 0.0
C1339 C 0.60776 0.01664 0.0577 0.0
C1340 C 0.60523 0.00503 0.01416 0.0
C1341 C 0.60905 0.01015 0.11087 0.0
C1342 C 0.60572 0.98682 0.02362 0.0
C1343 C 0.60761 0.98024 0.07614 0.0
H1344 H 0.77693 0.65654 0.92163 0.0
H1345 H 0.72363 0.65632 0.98077 0.0
H1346 H 0.71254 0.65428 0.8879 0.0
H1347 H 0.71787 0.65569 0.7894 0.0
H1348 H 0.77111 0.65855 0.73043 0.0
H1349 H 0.7823 0.65625 0.82312 0.0
C1350 C 0.7629 0.65568 0.91422 0.0
C1351 C 0.75114 0.65655 0.95814 0.0
C1352 C 0.75658 0.65514 0.86047 0.0
C1353 C 0.73298 0.6557 0.94773 0.0
C1354 C 0.72662 0.65458 0.89457 0.0
C1355 C 0.73192 0.65546 0.79679 0.0
C1356 C 0.74363 0.65727 0.75298 0.0
C1357 C 0.73827 0.65475 0.85051 0.0
C1358 C 0.76181 0.6572 0.76337 0.0
C1359 C 0.76822 0.65593 0.81645 0.0
H1360 H 0.59727 0.48868 0.20944 0.0
H1361 H 0.59802 0.54434 0.17614 0.0
H1362 H 0.59954 0.53841 0.07882 0.0
H1363 H 0.59727 0.5174 1.00311 0.0
H1364 H 0.59766 0.46174 0.03639 0.0
H1365 H 0.59931 0.46766 0.13373 0.0
C1366 C 0.59806 0.4995 0.18088 0.0
C1367 C 0.59731 0.51692 0.1999 0.0
C1368 C 0.59901 0.49599 0.12498 0.0
C1369 C 0.59857 0.53081 0.16254 0.0
C1370 C 0.59933 0.52743 0.10684 0.0
C1371 C 0.59801 0.50657 0.03167 0.0
C1372 C 0.59712 0.48916 0.01264 0.0
C1373 C 0.59904 0.51008 0.08757 0.0
C1374 C 0.59831 0.47526 0.05 0.0
C1375 C 0.59915 0.47864 0.1057 0.0
H1376 H 0.76591 0.35942 0.46099 0.0
H1377 H 0.71016 0.3609 0.4292 0.0
H1378 H 0.71584 0.36333 0.33193 0.0
H1379 H 0.73658 0.36116 0.2557 0.0
H1380 H 0.79234 0.36018 0.28757 0.0
H1381 H 0.78673 0.36172 0.38501 0.0
C1382 C 0.75501 0.36059 0.43282 0.0
C1383 C 0.73764 0.35972 0.45219 0.0
C1384 C 0.75837 0.36195 0.37695 0.0
C1385 C 0.72365 0.36149 0.41534 0.0
C1386 C 0.72689 0.36278 0.35966 0.0
C1387 C 0.74751 0.36161 0.28395 0.0
C1388 C 0.76484 0.36031 0.26448 0.0
C1389 C 0.74418 0.36243 0.33994 0.0
C1390 C 0.77887 0.36114 0.30149 0.0
C1391 C 0.77567 0.3619 0.35726 0.0
H1392 H 0.89571 0.51609 0.69824 0.0
H1393 H 0.89801 0.4605 0.66488 0.0
H1394 H 0.89656 0.46643 0.5675 0.0
H1395 H 0.89805 0.48759 0.49191 0.0
H1396 H 0.89465 0.54313 0.5252 0.0
H1397 H 0.89289 0.53705 0.62244 0.0
C1398 C 0.89559 0.50526 0.66965 0.0
C1399 C 0.89718 0.48789 0.68872 0.0
C1400 C 0.89469 0.50877 0.6137 0.0
C1401 C 0.8968 0.47399 0.65127 0.0
C1402 C 0.89608 0.47738 0.59554 0.0
C1403 C 0.89663 0.49834 0.52043 0.0
C1404 C 0.8967 0.51579 0.50144 0.0
C1405 C 0.89555 0.49474 0.57628 0.0
C1406 C 0.89464 0.52958 0.53876 0.0
C1407 C 0.89374 0.52611 0.59442 0.0
H1408 H 0.26727 0.35382 0.25431 0.0
H1409 H 0.21123 0.35153 0.27957 0.0
H1410 H 0.21569 0.35246 0.37761 0.0
H1411 H 0.23563 0.35091 0.45651 0.0
H1412 H 0.29161 0.3543 0.4315 0.0
H1413 H 0.28705 0.35612 0.33352 0.0
C1414 C 0.25602 0.35383 0.28123 0.0
C1415 C 0.23893 0.35245 0.25938 0.0
C1416 C 0.25867 0.35441 0.33785 0.0
C1417 C 0.22452 0.35261 0.29502 0.0
C1418 C 0.22706 0.35303 0.35126 0.0
C1419 C 0.24682 0.35231 0.42967 0.0
C1420 C 0.26396 0.35229 0.45147 0.0
C1421 C 0.24409 0.35346 0.37319 0.0
C1422 C 0.27828 0.35428 0.41602 0.0
C1423 C 0.27568 0.35524 0.35983 0.0
H1424 H 0.39286 0.52165 1.00793 0.0
H1425 H 0.39143 0.46548 0.03168 0.0
H1426 H 0.38955 0.46968 0.1297 0.0
H1427 H 0.39157 0.48924 0.20919 0.0
H1428 H 0.3924 0.54542 0.18534 0.0
H1429 H 0.39102 0.54127 0.08724 0.0
C1430 C 0.39184 0.51032 0.03447 0.0
C1431 C 0.39247 0.49326 0.01231 0.0
C1432 C 0.39078 0.51283 0.091 0.0
C1433 C 0.39099 0.47876 0.04742 0.0
C1434 C 0.39001 0.48115 0.10364 0.0
C1435 C 0.39114 0.50059 0.1826 0.0
C1436 C 0.39227 0.51762 0.20481 0.0
C1437 C 0.39039 0.49811 0.12599 0.0
C1438 C 0.39156 0.53216 0.16959 0.0
C1439 C 0.39088 0.5298 0.11332 0.0
H1440 H 0.21845 0.6423 0.91406 0.0
H1441 H 0.27105 0.64484 0.97893 0.0
H1442 H 0.28324 0.64261 0.88764 0.0
H1443 H 0.27887 0.64395 0.78896 0.0
H1444 H 0.22621 0.6442 0.72412 0.0
H1445 H 0.21414 0.64109 0.81534 0.0
C1446 C 0.23257 0.64195 0.90821 0.0
C1447 C 0.24383 0.64381 0.95301 0.0
C1448 C 0.23949 0.64135 0.85541 0.0
C1449 C 0.26211 0.64353 0.94492 0.0
C1450 C 0.2691 0.6423 0.89274 0.0
C1451 C 0.26478 0.64291 0.79479 0.0
C1452 C 0.25345 0.64438 0.75003 0.0
C1453 C 0.25791 0.6418 0.84756 0.0
C1454 C 0.2352 0.64321 0.7581 0.0
C1455 C 0.22828 0.64147 0.81025 0.0
H1456 H 0.09794 0.52875 0.56134 0.0
H1457 H 0.09895 0.47633 0.49511 0.0
H1458 H 0.1016 0.46397 0.58624 0.0
H1459 H 0.10013 0.4679 0.68511 0.0
H1460 H 0.0962 0.52018 0.75125 0.0
H1461 H 0.0984 0.53276 0.66031 0.0
C1462 C 0.09912 0.51465 0.56691 0.0
C1463 C 0.09823 0.50346 0.52171 0.0
C1464 C 0.09995 0.5076 0.61958 0.0
C1465 C 0.09953 0.4852 0.52941 0.0
C1466 C 0.10101 0.47812 0.5815 0.0
C1467 C 0.10012 0.48204 0.6796 0.0
C1468 C 0.09798 0.4931 0.72469 0.0
C1469 C 0.10071 0.48916 0.62698 0.0
C1470 C 0.09776 0.5114 0.71703 0.0
C1471 C 0.09898 0.5186 0.66504 0.0
loop_
_geom_bond_atom_site_label_1
_geom_bond_atom_site_label_2
_geom_bond_distance
_geom_bond_site_symmetry_2
_ccdc_geom_bond_type
O0 Cd1 2.223 1_556 S
O0 C8 1.315 . S
Cd1 O0 2.223 1_554 S
Cd1 O4 2.297 1_554 S
Cd1 O5 2.439 . S
Cd1 O11 2.240 . S
Cd2 O3 2.240 . S
Cd2 O10 2.223 . S
Cd2 O12 2.297 . S
Cd2 O13 2.439 . S
O3 Cd2 2.240 . S
O3 C8 1.279 1_554 S
O4 Cd1 2.297 1_556 S
O4 C6 1.247 1_556 S
O5 Cd1 2.439 . S
O5 C6 1.208 . S
C6 O4 1.247 1_554 S
C6 O5 1.208 . S
C7 O12 1.247 . S
C7 O13 1.208 . S
C8 O0 1.315 . S
C8 O3 1.279 1_556 S
C9 O10 1.315 . S
C9 O11 1.279 . S
O10 Cd2 2.223 . S
O10 C9 1.315 . S
O11 Cd1 2.240 . S
O11 C9 1.279 . S
O12 Cd2 2.297 . S
O12 C7 1.247 . S
O13 Cd2 2.439 . S
O13 C7 1.208 . S
O14 Cd15 2.223 . S
O14 C22 1.315 . S
Cd15 O14 2.223 . S
Cd15 O18 2.297 . S
Cd15 O19 2.439 . S
Cd15 O25 2.240 . S
Cd16 O17 2.240 . S
Cd16 O24 2.223 . S
Cd16 O26 2.297 1_565 S
Cd16 O27 2.439 . S
O17 Cd16 2.240 . S
O17 C22 1.279 . S
O18 Cd15 2.297 . S
O18 C20 1.247 . S
O19 Cd15 2.439 . S
O19 C20 1.208 . S
C20 O18 1.247 . S
C20 O19 1.208 . S
C21 O26 1.247 1_565 S
C21 O27 1.208 . S
C22 O14 1.315 . S
C22 O17 1.279 . S
C23 O24 1.315 . S
C23 O25 1.279 . S
O24 Cd16 2.223 . S
O24 C23 1.315 . S
O25 Cd15 2.240 . S
O25 C23 1.279 . S
O26 Cd16 2.297 1_545 S
O26 C21 1.247 1_545 S
O27 Cd16 2.439 . S
O27 C21 1.208 . S
O28 Cd29 2.223 . S
O28 C36 1.315 . S
Cd29 O28 2.223 . S
Cd29 O32 2.297 . S
Cd29 O33 2.439 . S
Cd29 O39 2.240 . S
Cd30 O31 2.240 . S
Cd30 O38 2.223 . S
Cd30 O40 2.297 . S
Cd30 O41 2.439 . S
O31 Cd30 2.240 . S
O31 C36 1.279 . S
O32 Cd29 2.297 . S
O32 C34 1.247 . S
O33 Cd29 2.439 . S
O33 C34 1.208 . S
C34 O32 1.247 . S
C34 O33 1.208 . S
C35 O40 1.247 . S
C35 O41 1.208 . S
C36 O28 1.315 . S
C36 O31 1.279 . S
C37 O38 1.315 . S
C37 O39 1.279 . S
O38 Cd30 2.223 . S
O38 C37 1.315 . S
O39 Cd29 2.240 . S
O39 C37 1.279 . S
O40 Cd30 2.297 . S
O40 C35 1.247 . S
O41 Cd30 2.439 . S
O41 C35 1.208 . S
O42 Cd43 2.223 . S
O42 C50 1.315 . S
Cd43 O42 2.223 . S
Cd43 O46 2.297 . S
Cd43 O47 2.439 . S
Cd43 O53 2.240 . S
Cd44 O45 2.240 . S
Cd44 O52 2.223 . S
Cd44 O54 2.297 . S
Cd44 O55 2.439 . S
O45 Cd44 2.240 . S
O45 C50 1.279 . S
O46 Cd43 2.297 . S
O46 C48 1.247 . S
O47 Cd43 2.439 . S
O47 C48 1.208 . S
C48 O46 1.247 . S
C48 O47 1.208 . S
C49 O54 1.247 . S
C49 O55 1.208 . S
C50 O42 1.315 . S
C50 O45 1.279 . S
C51 O52 1.315 . S
C51 O53 1.279 . S
O52 Cd44 2.223 . S
O52 C51 1.315 . S
O53 Cd43 2.240 . S
O53 C51 1.279 . S
O54 Cd44 2.297 . S
O54 C49 1.247 . S
O55 Cd44 2.439 . S
O55 C49 1.208 . S
O56 Cd57 2.223 . S
O56 C64 1.315 . S
Cd57 O56 2.223 . S
Cd57 O60 2.297 . S
Cd57 O61 2.439 . S
Cd57 O67 2.240 . S
Cd58 O59 2.240 . S
Cd58 O66 2.223 . S
Cd58 O68 2.297 . S
Cd58 O69 2.439 . S
O59 Cd58 2.240 . S
O59 C64 1.279 . S
O60 Cd57 2.297 . S
O60 C62 1.247 . S
O61 Cd57 2.439 . S
O61 C62 1.208 . S
C62 O60 1.247 . S
C62 O61 1.208 . S
C63 O68 1.247 1_556 S
C63 O69 1.208 1_556 S
C64 O56 1.315 . S
C64 O59 1.279 . S
C65 O66 1.315 . S
C65 O67 1.279 . S
O66 Cd58 2.223 . S
O66 C65 1.315 . S
O67 Cd57 2.240 . S
O67 C65 1.279 . S
O68 Cd58 2.297 . S
O68 C63 1.247 1_554 S
O69 Cd58 2.439 . S
O69 C63 1.208 1_554 S
O70 Cd71 2.223 . S
O70 C78 1.315 . S
Cd71 O70 2.223 . S
Cd71 O74 2.297 . S
Cd71 O75 2.439 . S
Cd71 O81 2.240 . S
Cd72 O73 2.240 . S
Cd72 O80 2.223 . S
Cd72 O82 2.297 1_565 S
Cd72 O83 2.439 . S
O73 Cd72 2.240 . S
O73 C78 1.279 . S
O74 Cd71 2.297 . S
O74 C76 1.247 . S
O75 Cd71 2.439 . S
O75 C76 1.208 . S
C76 O74 1.247 . S
C76 O75 1.208 . S
C77 O82 1.247 1_565 S
C77 O83 1.208 . S
C78 O70 1.315 . S
C78 O73 1.279 . S
C79 O80 1.315 . S
C79 O81 1.279 . S
O80 Cd72 2.223 . S
O80 C79 1.315 . S
O81 Cd71 2.240 . S
O81 C79 1.279 . S
O82 Cd72 2.297 1_545 S
O82 C77 1.247 1_545 S
O83 Cd72 2.439 . S
O83 C77 1.208 . S
O84 Cd85 2.223 . S
O84 C92 1.315 . S
Cd85 O84 2.223 . S
Cd85 O88 2.297 . S
Cd85 O89 2.439 . S
Cd85 O95 2.240 . S
Cd86 O87 2.240 . S
Cd86 O94 2.223 . S
Cd86 O96 2.297 . S
Cd86 O97 2.439 . S
O87 Cd86 2.240 . S
O87 C92 1.279 . S
O88 Cd85 2.297 . S
O88 C90 1.247 . S
O89 Cd85 2.439 . S
O89 C90 1.208 . S
C90 O88 1.247 . S
C90 O89 1.208 . S
C91 O96 1.247 . S
C91 O97 1.208 . S
C92 O84 1.315 . S
C92 O87 1.279 . S
C93 O94 1.315 . S
C93 O95 1.279 . S
O94 Cd86 2.223 . S
O94 C93 1.315 . S
O95 Cd85 2.240 . S
O95 C93 1.279 . S
O96 Cd86 2.297 . S
O96 C91 1.247 . S
O97 Cd86 2.439 . S
O97 C91 1.208 . S
O98 Cd99 2.223 . S
O98 C106 1.315 . S
Cd99 O98 2.223 . S
Cd99 O102 2.297 . S
Cd99 O103 2.439 . S
Cd99 O109 2.240 . S
Cd100 O101 2.240 . S
Cd100 O108 2.223 . S
Cd100 O110 2.297 . S
Cd100 O111 2.439 . S
O101 Cd100 2.240 . S
O101 C106 1.279 . S
O102 Cd99 2.297 . S
O102 C104 1.247 . S
O103 Cd99 2.439 . S
O103 C104 1.208 . S
C104 O102 1.247 . S
C104 O103 1.208 . S
C105 O110 1.247 . S
C105 O111 1.208 . S
C106 O98 1.315 . S
C106 O101 1.279 . S
C107 O108 1.315 . S
C107 O109 1.279 . S
O108 Cd100 2.223 . S
O108 C107 1.315 . S
O109 Cd99 2.240 . S
O109 C107 1.279 . S
O110 Cd100 2.297 . S
O110 C105 1.247 . S
O111 Cd100 2.439 . S
O111 C105 1.208 . S
O112 Cd113 2.223 . S
O112 C120 1.315 . S
Cd113 O112 2.223 . S
Cd113 O116 2.297 . S
Cd113 O117 2.439 . S
Cd113 O123 2.240 . S
Cd114 O115 2.240 . S
Cd114 O122 2.223 . S
Cd114 O124 2.297 . S
Cd114 O125 2.439 . S
O115 Cd114 2.240 . S
O115 C120 1.279 . S
O116 Cd113 2.297 . S
O116 C118 1.247 . S
O117 Cd113 2.439 . S
O117 C118 1.208 . S
C118 O116 1.247 . S
C118 O117 1.208 . S
C119 O124 1.247 1_556 S
C119 O125 1.208 1_556 S
C120 O112 1.315 . S
C120 O115 1.279 . S
C121 O122 1.315 . S
C121 O123 1.279 . S
O122 Cd114 2.223 . S
O122 C121 1.315 . S
O123 Cd113 2.240 . S
O123 C121 1.279 . S
O124 Cd114 2.297 . S
O124 C119 1.247 1_554 S
O125 Cd114 2.439 . S
O125 C119 1.208 1_554 S
O126 Cd127 2.223 . S
O126 C134 1.315 . S
Cd127 O126 2.223 . S
Cd127 O130 2.297 . S
Cd127 O131 2.439 . S
Cd127 O137 2.240 . S
Cd128 O129 2.240 . S
Cd128 O136 2.223 . S
Cd128 O138 2.297 . S
Cd128 O139 2.439 . S
O129 Cd128 2.240 . S
O129 C134 1.279 . S
O130 Cd127 2.297 . S
O130 C132 1.247 . S
O131 Cd127 2.439 . S
O131 C132 1.208 . S
C132 O130 1.247 . S
C132 O131 1.208 . S
C133 O138 1.247 . S
C133 O139 1.208 . S
C134 O126 1.315 . S
C134 O129 1.279 . S
C135 O136 1.315 . S
C135 O137 1.279 . S
O136 Cd128 2.223 . S
O136 C135 1.315 . S
O137 Cd127 2.240 . S
O137 C135 1.279 . S
O138 Cd128 2.297 . S
O138 C133 1.247 . S
O139 Cd128 2.439 . S
O139 C133 1.208 . S
O140 Cd141 2.223 . S
O140 C148 1.315 . S
Cd141 O140 2.223 . S
Cd141 O144 2.297 . S
Cd141 O145 2.439 . S
Cd141 O151 2.240 . S
Cd142 O143 2.240 . S
Cd142 O150 2.223 . S
Cd142 O152 2.297 . S
Cd142 O153 2.439 . S
O143 Cd142 2.240 . S
O143 C148 1.279 . S
O144 Cd141 2.297 . S
O144 C146 1.247 . S
O145 Cd141 2.439 . S
O145 C146 1.208 . S
C146 O144 1.247 . S
C146 O145 1.208 . S
C147 O152 1.247 . S
C147 O153 1.208 . S
C148 O140 1.315 . S
C148 O143 1.279 . S
C149 O150 1.315 . S
C149 O151 1.279 . S
O150 Cd142 2.223 . S
O150 C149 1.315 . S
O151 Cd141 2.240 . S
O151 C149 1.279 . S
O152 Cd142 2.297 . S
O152 C147 1.247 . S
O153 Cd142 2.439 . S
O153 C147 1.208 . S
O154 Cd155 2.223 . S
O154 C162 1.315 . S
Cd155 O154 2.223 . S
Cd155 O158 2.297 . S
Cd155 O159 2.439 . S
Cd155 O165 2.240 . S
Cd156 O157 2.240 . S
Cd156 O164 2.223 . S
Cd156 O166 2.297 1_565 S
Cd156 O167 2.439 . S
O157 Cd156 2.240 . S
O157 C162 1.279 . S
O158 Cd155 2.297 . S
O158 C160 1.247 . S
O159 Cd155 2.439 . S
O159 C160 1.208 . S
C160 O158 1.247 . S
C160 O159 1.208 . S
C161 O166 1.247 1_565 S
C161 O167 1.208 . S
C162 O154 1.315 . S
C162 O157 1.279 . S
C163 O164 1.315 . S
C163 O165 1.279 . S
O164 Cd156 2.223 . S
O164 C163 1.315 . S
O165 Cd155 2.240 . S
O165 C163 1.279 . S
O166 Cd156 2.297 1_545 S
O166 C161 1.247 1_545 S
O167 Cd156 2.439 . S
O167 C161 1.208 . S
O168 Cd169 2.223 1_556 S
O168 C176 1.315 . S
Cd169 O168 2.223 1_554 S
Cd169 O172 2.297 1_554 S
Cd169 O173 2.439 . S
Cd169 O179 2.240 . S
Cd170 O171 2.240 . S
Cd170 O178 2.223 . S
Cd170 O180 2.297 . S
Cd170 O181 2.439 . S
O171 Cd170 2.240 . S
O171 C176 1.279 1_554 S
O172 Cd169 2.297 1_556 S
O172 C174 1.247 1_556 S
O173 Cd169 2.439 . S
O173 C174 1.208 . S
C174 O172 1.247 1_554 S
C174 O173 1.208 . S
C175 O180 1.247 . S
C175 O181 1.208 . S
C176 O168 1.315 . S
C176 O171 1.279 1_556 S
C177 O178 1.315 . S
C177 O179 1.279 . S
O178 Cd170 2.223 . S
O178 C177 1.315 . S
O179 Cd169 2.240 . S
O179 C177 1.279 . S
O180 Cd170 2.297 . S
O180 C175 1.247 . S
O181 Cd170 2.439 . S
O181 C175 1.208 . S
O182 Cd183 2.223 . S
O182 C190 1.315 . S
Cd183 O182 2.223 . S
Cd183 O186 2.297 . S
Cd183 O187 2.439 . S
Cd183 O193 2.240 . S
Cd184 O185 2.240 . S
Cd184 O192 2.223 . S
Cd184 O194 2.297 . S
Cd184 O195 2.439 . S
O185 Cd184 2.240 . S
O185 C190 1.279 . S
O186 Cd183 2.297 . S
O186 C188 1.247 . S
O187 Cd183 2.439 . S
O187 C188 1.208 . S
C188 O186 1.247 . S
C188 O187 1.208 . S
C189 O194 1.247 . S
C189 O195 1.208 . S
C190 O182 1.315 . S
C190 O185 1.279 . S
C191 O192 1.315 . S
C191 O193 1.279 . S
O192 Cd184 2.223 . S
O192 C191 1.315 . S
O193 Cd183 2.240 . S
O193 C191 1.279 . S
O194 Cd184 2.297 . S
O194 C189 1.247 . S
O195 Cd184 2.439 . S
O195 C189 1.208 . S
O196 Cd197 2.223 . S
O196 C204 1.315 . S
Cd197 O196 2.223 . S
Cd197 O200 2.297 . S
Cd197 O201 2.439 . S
Cd197 O207 2.240 . S
Cd198 O199 2.240 . S
Cd198 O206 2.223 . S
Cd198 O208 2.297 . S
Cd198 O209 2.439 . S
O199 Cd198 2.240 . S
O199 C204 1.279 . S
O200 Cd197 2.297 . S
O200 C202 1.247 . S
O201 Cd197 2.439 . S
O201 C202 1.208 . S
C202 O200 1.247 . S
C202 O201 1.208 . S
C203 O208 1.247 . S
C203 O209 1.208 . S
C204 O196 1.315 . S
C204 O199 1.279 . S
C205 O206 1.315 . S
C205 O207 1.279 . S
O206 Cd198 2.223 . S
O206 C205 1.315 . S
O207 Cd197 2.240 . S
O207 C205 1.279 . S
O208 Cd198 2.297 . S
O208 C203 1.247 . S
O209 Cd198 2.439 . S
O209 C203 1.208 . S
O210 Cd211 2.223 . S
O210 C218 1.315 . S
Cd211 O210 2.223 . S
Cd211 O214 2.297 . S
Cd211 O215 2.439 . S
Cd211 O221 2.240 . S
Cd212 O213 2.240 . S
Cd212 O220 2.223 . S
Cd212 O222 2.297 1_565 S
Cd212 O223 2.439 . S
O213 Cd212 2.240 . S
O213 C218 1.279 . S
O214 Cd211 2.297 . S
O214 C216 1.247 . S
O215 Cd211 2.439 . S
O215 C216 1.208 . S
C216 O214 1.247 . S
C216 O215 1.208 . S
C217 O222 1.247 1_565 S
C217 O223 1.208 . S
C218 O210 1.315 . S
C218 O213 1.279 . S
C219 O220 1.315 . S
C219 O221 1.279 . S
O220 Cd212 2.223 . S
O220 C219 1.315 . S
O221 Cd211 2.240 . S
O221 C219 1.279 . S
O222 Cd212 2.297 1_545 S
O222 C217 1.247 1_545 S
O223 Cd212 2.439 . S
O223 C217 1.208 . S
O224 Cd225 2.223 . S
O224 C232 1.315 . S
Cd225 O224 2.223 . S
Cd225 O228 2.297 . S
Cd225 O229 2.439 . S
Cd225 O235 2.240 . S
Cd226 O227 2.240 . S
Cd226 O234 2.223 . S
Cd226 O236 2.297 . S
Cd226 O237 2.439 . S
O227 Cd226 2.240 . S
O227 C232 1.279 . S
O228 Cd225 2.297 . S
O228 C230 1.247 . S
O229 Cd225 2.439 . S
O229 C230 1.208 . S
C230 O228 1.247 . S
C230 O229 1.208 . S
C231 O236 1.247 . S
C231 O237 1.208 . S
C232 O224 1.315 . S
C232 O227 1.279 . S
C233 O234 1.315 . S
C233 O235 1.279 . S
O234 Cd226 2.223 . S
O234 C233 1.315 . S
O235 Cd225 2.240 . S
O235 C233 1.279 . S
O236 Cd226 2.297 . S
O236 C231 1.247 . S
O237 Cd226 2.439 . S
O237 C231 1.208 . S
O238 Cd239 2.223 . S
O238 C246 1.315 . S
Cd239 O238 2.223 . S
Cd239 O242 2.297 . S
Cd239 O243 2.439 . S
Cd239 O249 2.240 . S
Cd240 O241 2.240 . S
Cd240 O248 2.223 . S
Cd240 O250 2.297 . S
Cd240 O251 2.439 . S
O241 Cd240 2.240 . S
O241 C246 1.279 . S
O242 Cd239 2.297 . S
O242 C244 1.247 . S
O243 Cd239 2.439 . S
O243 C244 1.208 . S
C244 O242 1.247 . S
C244 O243 1.208 . S
C245 O250 1.247 . S
C245 O251 1.208 . S
C246 O238 1.315 . S
C246 O241 1.279 . S
C247 O248 1.315 . S
C247 O249 1.279 . S
O248 Cd240 2.223 . S
O248 C247 1.315 . S
O249 Cd239 2.240 . S
O249 C247 1.279 . S
O250 Cd240 2.297 . S
O250 C245 1.247 . S
O251 Cd240 2.439 . S
O251 C245 1.208 . S
O252 Cd253 2.223 1_556 S
O252 C260 1.315 . S
Cd253 O252 2.223 1_554 S
Cd253 O256 2.297 1_554 S
Cd253 O257 2.439 . S
Cd253 O263 2.240 . S
Cd254 O255 2.240 . S
Cd254 O262 2.223 . S
Cd254 O264 2.297 . S
Cd254 O265 2.439 . S
O255 Cd254 2.240 . S
O255 C260 1.279 1_554 S
O256 Cd253 2.297 1_556 S
O256 C258 1.247 1_556 S
O257 Cd253 2.439 . S
O257 C258 1.208 . S
C258 O256 1.247 1_554 S
C258 O257 1.208 . S
C259 O264 1.247 . S
C259 O265 1.208 . S
C260 O252 1.315 . S
C260 O255 1.279 1_556 S
C261 O262 1.315 . S
C261 O263 1.279 . S
O262 Cd254 2.223 . S
O262 C261 1.315 . S
O263 Cd253 2.240 . S
O263 C261 1.279 . S
O264 Cd254 2.297 . S
O264 C259 1.247 . S
O265 Cd254 2.439 . S
O265 C259 1.208 . S
O266 Cd267 2.223 . S
O266 C274 1.315 . S
Cd267 O266 2.223 . S
Cd267 O270 2.297 . S
Cd267 O271 2.439 . S
Cd267 O277 2.240 . S
Cd268 O269 2.240 . S
Cd268 O276 2.223 . S
Cd268 O278 2.297 . S
Cd268 O279 2.439 . S
O269 Cd268 2.240 . S
O269 C274 1.279 . S
O270 Cd267 2.297 . S
O270 C272 1.247 . S
O271 Cd267 2.439 . S
O271 C272 1.208 . S
C272 O270 1.247 . S
C272 O271 1.208 . S
C273 O278 1.247 . S
C273 O279 1.208 . S
C274 O266 1.315 . S
C274 O269 1.279 . S
C275 O276 1.315 . S
C275 O277 1.279 . S
O276 Cd268 2.223 . S
O276 C275 1.315 . S
O277 Cd267 2.240 . S
O277 C275 1.279 . S
O278 Cd268 2.297 . S
O278 C273 1.247 . S
O279 Cd268 2.439 . S
O279 C273 1.208 . S
O280 Cd281 2.223 . S
O280 C288 1.315 . S
Cd281 O280 2.223 . S
Cd281 O284 2.297 . S
Cd281 O285 2.439 . S
Cd281 O291 2.240 . S
Cd282 O283 2.240 . S
Cd282 O290 2.223 . S
Cd282 O292 2.297 . S
Cd282 O293 2.439 . S
O283 Cd282 2.240 . S
O283 C288 1.279 . S
O284 Cd281 2.297 . S
O284 C286 1.247 . S
O285 Cd281 2.439 . S
O285 C286 1.208 . S
C286 O284 1.247 . S
C286 O285 1.208 . S
C287 O292 1.247 . S
C287 O293 1.208 . S
C288 O280 1.315 . S
C288 O283 1.279 . S
C289 O290 1.315 . S
C289 O291 1.279 . S
O290 Cd282 2.223 . S
O290 C289 1.315 . S
O291 Cd281 2.240 . S
O291 C289 1.279 . S
O292 Cd282 2.297 . S
O292 C287 1.247 . S
O293 Cd282 2.439 . S
O293 C287 1.208 . S
O294 Cd295 2.223 . S
O294 C302 1.315 . S
Cd295 O294 2.223 . S
Cd295 O298 2.297 . S
Cd295 O299 2.439 . S
Cd295 O305 2.240 . S
Cd296 O297 2.240 . S
Cd296 O304 2.223 . S
Cd296 O306 2.297 . S
Cd296 O307 2.439 . S
O297 Cd296 2.240 . S
O297 C302 1.279 . S
O298 Cd295 2.297 . S
O298 C300 1.247 . S
O299 Cd295 2.439 . S
O299 C300 1.208 . S
C300 O298 1.247 . S
C300 O299 1.208 . S
C301 O306 1.247 . S
C301 O307 1.208 . S
C302 O294 1.315 . S
C302 O297 1.279 . S
C303 O304 1.315 . S
C303 O305 1.279 . S
O304 Cd296 2.223 . S
O304 C303 1.315 . S
O305 Cd295 2.240 . S
O305 C303 1.279 . S
O306 Cd296 2.297 . S
O306 C301 1.247 . S
O307 Cd296 2.439 . S
O307 C301 1.208 . S
O308 Cd309 2.223 . S
O308 C316 1.315 . S
Cd309 O308 2.223 . S
Cd309 O312 2.297 . S
Cd309 O313 2.439 . S
Cd309 O319 2.240 . S
Cd310 O311 2.240 . S
Cd310 O318 2.223 . S
Cd310 O320 2.297 . S
Cd310 O321 2.439 . S
O311 Cd310 2.240 . S
O311 C316 1.279 . S
O312 Cd309 2.297 . S
O312 C314 1.247 . S
O313 Cd309 2.439 . S
O313 C314 1.208 . S
C314 O312 1.247 . S
C314 O313 1.208 . S
C315 O320 1.247 1_556 S
C315 O321 1.208 1_556 S
C316 O308 1.315 . S
C316 O311 1.279 . S
C317 O318 1.315 . S
C317 O319 1.279 . S
O318 Cd310 2.223 . S
O318 C317 1.315 . S
O319 Cd309 2.240 . S
O319 C317 1.279 . S
O320 Cd310 2.297 . S
O320 C315 1.247 1_554 S
O321 Cd310 2.439 . S
O321 C315 1.208 1_554 S
O322 Cd323 2.223 . S
O322 C330 1.315 . S
Cd323 O322 2.223 . S
Cd323 O326 2.297 . S
Cd323 O327 2.439 . S
Cd323 O333 2.240 . S
Cd324 O325 2.240 . S
Cd324 O332 2.223 . S
Cd324 O334 2.297 . S
Cd324 O335 2.439 . S
O325 Cd324 2.240 . S
O325 C330 1.279 . S
O326 Cd323 2.297 . S
O326 C328 1.247 . S
O327 Cd323 2.439 . S
O327 C328 1.208 . S
C328 O326 1.247 . S
C328 O327 1.208 . S
C329 O334 1.247 . S
C329 O335 1.208 . S
C330 O322 1.315 . S
C330 O325 1.279 . S
C331 O332 1.315 . S
C331 O333 1.279 . S
O332 Cd324 2.223 . S
O332 C331 1.315 . S
O333 Cd323 2.240 . S
O333 C331 1.279 . S
O334 Cd324 2.297 . S
O334 C329 1.247 . S
O335 Cd324 2.439 . S
O335 C329 1.208 . S
O336 Cd337 2.223 . S
O336 C344 1.315 . S
Cd337 O336 2.223 . S
Cd337 O340 2.297 . S
Cd337 O341 2.439 . S
Cd337 O347 2.240 . S
Cd338 O339 2.240 . S
Cd338 O346 2.223 . S
Cd338 O348 2.297 . S
Cd338 O349 2.439 . S
O339 Cd338 2.240 . S
O339 C344 1.279 . S
O340 Cd337 2.297 . S
O340 C342 1.247 . S
O341 Cd337 2.439 . S
O341 C342 1.208 . S
C342 O340 1.247 . S
C342 O341 1.208 . S
C343 O348 1.247 . S
C343 O349 1.208 . S
C344 O336 1.315 . S
C344 O339 1.279 . S
C345 O346 1.315 . S
C345 O347 1.279 . S
O346 Cd338 2.223 . S
O346 C345 1.315 . S
O347 Cd337 2.240 . S
O347 C345 1.279 . S
O348 Cd338 2.297 . S
O348 C343 1.247 . S
O349 Cd338 2.439 . S
O349 C343 1.208 . S
O350 Cd351 2.223 . S
O350 C358 1.315 . S
Cd351 O350 2.223 . S
Cd351 O354 2.297 . S
Cd351 O355 2.439 . S
Cd351 O361 2.240 . S
Cd352 O353 2.240 . S
Cd352 O360 2.223 . S
Cd352 O362 2.297 . S
Cd352 O363 2.439 . S
O353 Cd352 2.240 . S
O353 C358 1.279 . S
O354 Cd351 2.297 . S
O354 C356 1.247 . S
O355 Cd351 2.439 . S
O355 C356 1.208 . S
C356 O354 1.247 . S
C356 O355 1.208 . S
C357 O362 1.247 . S
C357 O363 1.208 . S
C358 O350 1.315 . S
C358 O353 1.279 . S
C359 O360 1.315 . S
C359 O361 1.279 . S
O360 Cd352 2.223 . S
O360 C359 1.315 . S
O361 Cd351 2.240 . S
O361 C359 1.279 . S
O362 Cd352 2.297 . S
O362 C357 1.247 . S
O363 Cd352 2.439 . S
O363 C357 1.208 . S
O364 Cd365 2.223 . S
O364 C372 1.315 . S
Cd365 O364 2.223 . S
Cd365 O368 2.297 . S
Cd365 O369 2.439 . S
Cd365 O375 2.240 . S
Cd366 O367 2.240 . S
Cd366 O374 2.223 . S
Cd366 O376 2.297 . S
Cd366 O377 2.439 . S
O367 Cd366 2.240 . S
O367 C372 1.279 . S
O368 Cd365 2.297 . S
O368 C370 1.247 . S
O369 Cd365 2.439 . S
O369 C370 1.208 . S
C370 O368 1.247 . S
C370 O369 1.208 . S
C371 O376 1.247 1_556 S
C371 O377 1.208 1_556 S
C372 O364 1.315 . S
C372 O367 1.279 . S
C373 O374 1.315 . S
C373 O375 1.279 . S
O374 Cd366 2.223 . S
O374 C373 1.315 . S
O375 Cd365 2.240 . S
O375 C373 1.279 . S
O376 Cd366 2.297 . S
O376 C371 1.247 1_554 S
O377 Cd366 2.439 . S
O377 C371 1.208 1_554 S
O378 Cd379 2.223 . S
O378 C386 1.315 . S
Cd379 O378 2.223 . S
Cd379 O382 2.297 . S
Cd379 O383 2.439 . S
Cd379 O389 2.240 . S
Cd380 O381 2.240 . S
Cd380 O388 2.223 . S
Cd380 O390 2.297 . S
Cd380 O391 2.439 . S
O381 Cd380 2.240 . S
O381 C386 1.279 . S
O382 Cd379 2.297 . S
O382 C384 1.247 . S
O383 Cd379 2.439 . S
O383 C384 1.208 . S
C384 O382 1.247 . S
C384 O383 1.208 . S
C385 O390 1.247 . S
C385 O391 1.208 . S
C386 O378 1.315 . S
C386 O381 1.279 . S
C387 O388 1.315 . S
C387 O389 1.279 . S
O388 Cd380 2.223 . S
O388 C387 1.315 . S
O389 Cd379 2.240 . S
O389 C387 1.279 . S
O390 Cd380 2.297 . S
O390 C385 1.247 . S
O391 Cd380 2.439 . S
O391 C385 1.208 . S
O392 Cd393 2.223 . S
O392 C400 1.315 . S
Cd393 O392 2.223 . S
Cd393 O396 2.297 . S
Cd393 O397 2.439 . S
Cd393 O403 2.240 . S
Cd394 O395 2.240 . S
Cd394 O402 2.223 . S
Cd394 O404 2.297 . S
Cd394 O405 2.439 . S
O395 Cd394 2.240 . S
O395 C400 1.279 . S
O396 Cd393 2.297 . S
O396 C398 1.247 . S
O397 Cd393 2.439 . S
O397 C398 1.208 . S
C398 O396 1.247 . S
C398 O397 1.208 . S
C399 O404 1.247 . S
C399 O405 1.208 . S
C400 O392 1.315 . S
C400 O395 1.279 . S
C401 O402 1.315 . S
C401 O403 1.279 . S
O402 Cd394 2.223 . S
O402 C401 1.315 . S
O403 Cd393 2.240 . S
O403 C401 1.279 . S
O404 Cd394 2.297 . S
O404 C399 1.247 . S
O405 Cd394 2.439 . S
O405 C399 1.208 . S
O406 Cd407 2.223 . S
O406 C414 1.315 . S
Cd407 O406 2.223 . S
Cd407 O410 2.297 . S
Cd407 O411 2.439 . S
Cd407 O417 2.240 . S
Cd408 O409 2.240 . S
Cd408 O416 2.223 . S
Cd408 O418 2.297 . S
Cd408 O419 2.439 . S
O409 Cd408 2.240 . S
O409 C414 1.279 . S
O410 Cd407 2.297 . S
O410 C412 1.247 . S
O411 Cd407 2.439 . S
O411 C412 1.208 . S
C412 O410 1.247 . S
C412 O411 1.208 . S
C413 O418 1.247 . S
C413 O419 1.208 . S
C414 O406 1.315 . S
C414 O409 1.279 . S
C415 O416 1.315 . S
C415 O417 1.279 . S
O416 Cd408 2.223 . S
O416 C415 1.315 . S
O417 Cd407 2.240 . S
O417 C415 1.279 . S
O418 Cd408 2.297 . S
O418 C413 1.247 . S
O419 Cd408 2.439 . S
O419 C413 1.208 . S
O420 Cd421 2.223 1_556 S
O420 C428 1.315 . S
Cd421 O420 2.223 1_554 S
Cd421 O424 2.297 1_554 S
Cd421 O425 2.439 . S
Cd421 O431 2.240 . S
Cd422 O423 2.240 . S
Cd422 O430 2.223 . S
Cd422 O432 2.297 . S
Cd422 O433 2.439 . S
O423 Cd422 2.240 . S
O423 C428 1.279 1_554 S
O424 Cd421 2.297 1_556 S
O424 C426 1.247 1_556 S
O425 Cd421 2.439 . S
O425 C426 1.208 . S
C426 O424 1.247 1_554 S
C426 O425 1.208 . S
C427 O432 1.247 . S
C427 O433 1.208 . S
C428 O420 1.315 . S
C428 O423 1.279 1_556 S
C429 O430 1.315 . S
C429 O431 1.279 . S
O430 Cd422 2.223 . S
O430 C429 1.315 . S
O431 Cd421 2.240 . S
O431 C429 1.279 . S
O432 Cd422 2.297 . S
O432 C427 1.247 . S
O433 Cd422 2.439 . S
O433 C427 1.208 . S
O434 Cd435 2.223 . S
O434 C442 1.315 . S
Cd435 O434 2.223 . S
Cd435 O438 2.297 . S
Cd435 O439 2.439 . S
Cd435 O445 2.240 . S
Cd436 O437 2.240 . S
Cd436 O444 2.223 . S
Cd436 O446 2.297 . S
Cd436 O447 2.439 . S
O437 Cd436 2.240 . S
O437 C442 1.279 . S
O438 Cd435 2.297 . S
O438 C440 1.247 . S
O439 Cd435 2.439 . S
O439 C440 1.208 . S
C440 O438 1.247 . S
C440 O439 1.208 . S
C441 O446 1.247 . S
C441 O447 1.208 . S
C442 O434 1.315 . S
C442 O437 1.279 . S
C443 O444 1.315 . S
C443 O445 1.279 . S
O444 Cd436 2.223 . S
O444 C443 1.315 . S
O445 Cd435 2.240 . S
O445 C443 1.279 . S
O446 Cd436 2.297 . S
O446 C441 1.247 . S
O447 Cd436 2.439 . S
O447 C441 1.208 . S
H448 C454 0.930 . S
H449 C457 0.930 . S
H450 C458 0.930 . S
H451 C459 0.930 . S
H452 C462 0.930 . S
H453 C463 0.930 . S
C454 H448 0.930 . S
C454 C455 1.355 . S
C454 C456 1.415 . S
C455 C454 1.355 . S
C455 C457 1.419 . S
C456 C454 1.415 . S
C456 C461 1.425 . S
C456 C463 1.409 . S
C457 H449 0.930 . S
C457 C455 1.419 . S
C457 C458 1.362 . S
C458 H450 0.930 . S
C458 C457 1.362 . S
C458 C461 1.409 . S
C459 H451 0.930 . S
C459 C460 1.355 1_556 S
C459 C461 1.415 . S
C460 C459 1.355 1_554 S
C460 C462 1.419 . S
C461 C456 1.425 . S
C461 C458 1.409 . S
C461 C459 1.415 . S
C462 H452 0.930 . S
C462 C460 1.419 . S
C462 C463 1.362 1_554 S
C463 H453 0.930 . S
C463 C456 1.409 . S
C463 C462 1.362 1_556 S
H464 C470 0.930 . S
H465 C473 0.930 . S
H466 C474 0.930 . S
H467 C475 0.930 . S
H468 C478 0.930 . S
H469 C479 0.930 . S
C470 H464 0.930 . S
C470 C471 1.355 . S
C470 C472 1.415 . S
C471 C470 1.355 . S
C471 C473 1.419 . S
C472 C470 1.415 . S
C472 C477 1.425 . S
C472 C479 1.409 . S
C473 H465 0.930 . S
C473 C471 1.419 . S
C473 C474 1.362 . S
C474 H466 0.930 . S
C474 C473 1.362 . S
C474 C477 1.409 . S
C475 H467 0.930 . S
C475 C476 1.355 . S
C475 C477 1.415 . S
C476 C475 1.355 . S
C476 C478 1.419 . S
C477 C472 1.425 . S
C477 C474 1.409 . S
C477 C475 1.415 . S
C478 H468 0.930 . S
C478 C476 1.419 . S
C478 C479 1.362 . S
C479 H469 0.930 . S
C479 C472 1.409 . S
C479 C478 1.362 . S
H480 C486 0.930 . S
H481 C489 0.930 . S
H482 C490 0.930 . S
H483 C491 0.930 . S
H484 C494 0.930 . S
H485 C495 0.930 . S
C486 H480 0.930 . S
C486 C487 1.355 . S
C486 C488 1.415 . S
C487 C486 1.355 . S
C487 C489 1.419 . S
C488 C486 1.415 . S
C488 C493 1.425 . S
C488 C495 1.409 . S
C489 H481 0.930 . S
C489 C487 1.419 . S
C489 C490 1.362 . S
C490 H482 0.930 . S
C490 C489 1.362 . S
C490 C493 1.409 . S
C491 H483 0.930 . S
C491 C492 1.355 . S
C491 C493 1.415 . S
C492 C491 1.355 . S
C492 C494 1.419 . S
C493 C488 1.425 . S
C493 C490 1.409 . S
C493 C491 1.415 . S
C494 H484 0.930 . S
C494 C492 1.419 . S
C494 C495 1.362 . S
C495 H485 0.930 . S
C495 C488 1.409 . S
C495 C494 1.362 . S
H496 C502 0.930 . S
H497 C505 0.930 . S
H498 C506 0.930 . S
H499 C507 0.930 . S
H500 C510 0.930 . S
H501 C511 0.930 . S
C502 H496 0.930 . S
C502 C503 1.355 . S
C502 C504 1.415 . S
C503 C502 1.355 . S
C503 C505 1.419 . S
C504 C502 1.415 . S
C504 C509 1.425 . S
C504 C511 1.409 . S
C505 H497 0.930 . S
C505 C503 1.419 . S
C505 C506 1.362 . S
C506 H498 0.930 . S
C506 C505 1.362 . S
C506 C509 1.409 . S
C507 H499 0.930 . S
C507 C508 1.355 . S
C507 C509 1.415 . S
C508 C507 1.355 . S
C508 C510 1.419 . S
C509 C504 1.425 . S
C509 C506 1.409 . S
C509 C507 1.415 . S
C510 H500 0.930 . S
C510 C508 1.419 . S
C510 C511 1.362 . S
C511 H501 0.930 . S
C511 C504 1.409 . S
C511 C510 1.362 . S
H512 C518 0.930 . S
H513 C521 0.930 . S
H514 C522 0.930 . S
H515 C523 0.930 . S
H516 C526 0.930 . S
H517 C527 0.930 . S
C518 H512 0.930 . S
C518 C519 1.355 . S
C518 C520 1.415 . S
C519 C518 1.355 . S
C519 C521 1.419 . S
C520 C518 1.415 . S
C520 C525 1.425 . S
C520 C527 1.409 . S
C521 H513 0.930 . S
C521 C519 1.419 . S
C521 C522 1.362 . S
C522 H514 0.930 . S
C522 C521 1.362 . S
C522 C525 1.409 . S
C523 H515 0.930 . S
C523 C524 1.355 . S
C523 C525 1.415 . S
C524 C523 1.355 . S
C524 C526 1.419 . S
C525 C520 1.425 . S
C525 C522 1.409 . S
C525 C523 1.415 . S
C526 H516 0.930 . S
C526 C524 1.419 . S
C526 C527 1.362 . S
C527 H517 0.930 . S
C527 C520 1.409 . S
C527 C526 1.362 . S
H528 C534 0.930 . S
H529 C537 0.930 . S
H530 C538 0.930 . S
H531 C539 0.930 . S
H532 C542 0.930 . S
H533 C543 0.930 . S
C534 H528 0.930 . S
C534 C535 1.355 . S
C534 C536 1.415 . S
C535 C534 1.355 . S
C535 C537 1.419 . S
C536 C534 1.415 . S
C536 C541 1.425 . S
C536 C543 1.409 1_556 S
C537 H529 0.930 . S
C537 C535 1.419 . S
C537 C538 1.362 . S
C538 H530 0.930 . S
C538 C537 1.362 . S
C538 C541 1.409 . S
C539 H531 0.930 . S
C539 C540 1.355 1_556 S
C539 C541 1.415 . S
C540 C539 1.355 1_554 S
C540 C542 1.419 . S
C541 C536 1.425 . S
C541 C538 1.409 . S
C541 C539 1.415 . S
C542 H532 0.930 . S
C542 C540 1.419 . S
C542 C543 1.362 . S
C543 H533 0.930 . S
C543 C536 1.409 1_554 S
C543 C542 1.362 . S
H544 C550 0.930 . S
H545 C553 0.930 . S
H546 C554 0.930 . S
H547 C555 0.930 . S
H548 C558 0.930 . S
H549 C559 0.930 . S
C550 H544 0.930 . S
C550 C551 1.355 . S
C550 C552 1.415 . S
C551 C550 1.355 . S
C551 C553 1.419 . S
C552 C550 1.415 . S
C552 C557 1.425 . S
C552 C559 1.409 . S
C553 H545 0.930 . S
C553 C551 1.419 . S
C553 C554 1.362 . S
C554 H546 0.930 . S
C554 C553 1.362 . S
C554 C557 1.409 . S
C555 H547 0.930 . S
C555 C556 1.355 . S
C555 C557 1.415 . S
C556 C555 1.355 . S
C556 C558 1.419 . S
C557 C552 1.425 . S
C557 C554 1.409 . S
C557 C555 1.415 . S
C558 H548 0.930 . S
C558 C556 1.419 . S
C558 C559 1.362 . S
C559 H549 0.930 . S
C559 C552 1.409 . S
C559 C558 1.362 . S
H560 C566 0.930 . S
H561 C569 0.930 . S
H562 C570 0.930 . S
H563 C571 0.930 . S
H564 C574 0.930 . S
H565 C575 0.930 . S
C566 H560 0.930 . S
C566 C567 1.355 . S
C566 C568 1.415 . S
C567 C566 1.355 . S
C567 C569 1.419 . S
C568 C566 1.415 . S
C568 C573 1.425 . S
C568 C575 1.409 . S
C569 H561 0.930 . S
C569 C567 1.419 . S
C569 C570 1.362 . S
C570 H562 0.930 . S
C570 C569 1.362 . S
C570 C573 1.409 . S
C571 H563 0.930 . S
C571 C572 1.355 . S
C571 C573 1.415 . S
C572 C571 1.355 . S
C572 C574 1.419 . S
C573 C568 1.425 . S
C573 C570 1.409 . S
C573 C571 1.415 . S
C574 H564 0.930 . S
C574 C572 1.419 . S
C574 C575 1.362 . S
C575 H565 0.930 . S
C575 C568 1.409 . S
C575 C574 1.362 . S
H576 C582 0.930 . S
H577 C585 0.930 . S
H578 C586 0.930 . S
H579 C587 0.930 . S
H580 C590 0.930 . S
H581 C591 0.930 . S
C582 H576 0.930 . S
C582 C583 1.355 . S
C582 C584 1.415 . S
C583 C582 1.355 . S
C583 C585 1.419 . S
C584 C582 1.415 . S
C584 C589 1.425 . S
C584 C591 1.409 . S
C585 H577 0.930 . S
C585 C583 1.419 . S
C585 C586 1.362 . S
C586 H578 0.930 . S
C586 C585 1.362 . S
C586 C589 1.409 . S
C587 H579 0.930 . S
C587 C588 1.355 . S
C587 C589 1.415 . S
C588 C587 1.355 . S
C588 C590 1.419 . S
C589 C584 1.425 . S
C589 C586 1.409 . S
C589 C587 1.415 . S
C590 H580 0.930 . S
C590 C588 1.419 . S
C590 C591 1.362 . S
C591 H581 0.930 . S
C591 C584 1.409 . S
C591 C590 1.362 . S
H592 C598 0.930 . S
H593 C601 0.930 . S
H594 C602 0.930 . S
H595 C603 0.930 . S
H596 C606 0.930 . S
H597 C607 0.930 . S
C598 H592 0.930 . S
C598 C599 1.355 . S
C598 C600 1.415 . S
C599 C598 1.355 . S
C599 C601 1.419 . S
C600 C598 1.415 . S
C600 C605 1.425 . S
C600 C607 1.409 . S
C601 H593 0.930 . S
C601 C599 1.419 . S
C601 C602 1.362 . S
C602 H594 0.930 . S
C602 C601 1.362 . S
C602 C605 1.409 . S
C603 H595 0.930 . S
C603 C604 1.355 . S
C603 C605 1.415 . S
C604 C603 1.355 . S
C604 C606 1.419 . S
C605 C600 1.425 . S
C605 C602 1.409 . S
C605 C603 1.415 . S
C606 H596 0.930 . S
C606 C604 1.419 . S
C606 C607 1.362 . S
C607 H597 0.930 . S
C607 C600 1.409 . S
C607 C606 1.362 . S
H608 C614 0.930 . S
H609 C617 0.930 . S
H610 C618 0.930 . S
H611 C619 0.930 . S
H612 C622 0.930 . S
H613 C623 0.930 . S
C614 H608 0.930 . S
C614 C615 1.355 . S
C614 C616 1.415 . S
C615 C614 1.355 . S
C615 C617 1.419 . S
C616 C614 1.415 . S
C616 C621 1.425 . S
C616 C623 1.409 1_556 S
C617 H609 0.930 . S
C617 C615 1.419 . S
C617 C618 1.362 . S
C618 H610 0.930 . S
C618 C617 1.362 . S
C618 C621 1.409 . S
C619 H611 0.930 . S
C619 C620 1.355 1_556 S
C619 C621 1.415 . S
C620 C619 1.355 1_554 S
C620 C622 1.419 . S
C621 C616 1.425 . S
C621 C618 1.409 . S
C621 C619 1.415 . S
C622 H612 0.930 . S
C622 C620 1.419 . S
C622 C623 1.362 . S
C623 H613 0.930 . S
C623 C616 1.409 1_554 S
C623 C622 1.362 . S
H624 C630 0.930 . S
H625 C633 0.930 . S
H626 C634 0.930 . S
H627 C635 0.930 . S
H628 C638 0.930 . S
H629 C639 0.930 . S
C630 H624 0.930 . S
C630 C631 1.355 . S
C630 C632 1.415 . S
C631 C630 1.355 . S
C631 C633 1.419 . S
C632 C630 1.415 . S
C632 C637 1.425 . S
C632 C639 1.409 . S
C633 H625 0.930 . S
C633 C631 1.419 . S
C633 C634 1.362 . S
C634 H626 0.930 . S
C634 C633 1.362 . S
C634 C637 1.409 . S
C635 H627 0.930 . S
C635 C636 1.355 . S
C635 C637 1.415 . S
C636 C635 1.355 . S
C636 C638 1.419 . S
C637 C632 1.425 . S
C637 C634 1.409 . S
C637 C635 1.415 . S
C638 H628 0.930 . S
C638 C636 1.419 . S
C638 C639 1.362 . S
C639 H629 0.930 . S
C639 C632 1.409 . S
C639 C638 1.362 . S
H640 C646 0.930 . S
H641 C649 0.930 . S
H642 C650 0.930 . S
H643 C651 0.930 . S
H644 C654 0.930 . S
H645 C655 0.930 . S
C646 H640 0.930 . S
C646 C647 1.355 . S
C646 C648 1.415 . S
C647 C646 1.355 . S
C647 C649 1.419 . S
C648 C646 1.415 . S
C648 C653 1.425 . S
C648 C655 1.409 . S
C649 H641 0.930 . S
C649 C647 1.419 . S
C649 C650 1.362 . S
C650 H642 0.930 . S
C650 C649 1.362 . S
C650 C653 1.409 . S
C651 H643 0.930 . S
C651 C652 1.355 . S
C651 C653 1.415 . S
C652 C651 1.355 . S
C652 C654 1.419 . S
C653 C648 1.425 . S
C653 C650 1.409 . S
C653 C651 1.415 . S
C654 H644 0.930 . S
C654 C652 1.419 . S
C654 C655 1.362 . S
C655 H645 0.930 . S
C655 C648 1.409 . S
C655 C654 1.362 . S
H656 C662 0.930 . S
H657 C665 0.930 . S
H658 C666 0.930 . S
H659 C667 0.930 . S
H660 C670 0.930 . S
H661 C671 0.930 . S
C662 H656 0.930 . S
C662 C663 1.355 . S
C662 C664 1.415 . S
C663 C662 1.355 . S
C663 C665 1.419 . S
C664 C662 1.415 . S
C664 C669 1.425 . S
C664 C671 1.409 . S
C665 H657 0.930 . S
C665 C663 1.419 . S
C665 C666 1.362 . S
C666 H658 0.930 . S
C666 C665 1.362 . S
C666 C669 1.409 . S
C667 H659 0.930 . S
C667 C668 1.355 . S
C667 C669 1.415 . S
C668 C667 1.355 . S
C668 C670 1.419 . S
C669 C664 1.425 . S
C669 C666 1.409 . S
C669 C667 1.415 . S
C670 H660 0.930 . S
C670 C668 1.419 . S
C670 C671 1.362 . S
C671 H661 0.930 . S
C671 C664 1.409 . S
C671 C670 1.362 . S
H672 C678 0.930 . S
H673 C681 0.930 . S
H674 C682 0.930 . S
H675 C683 0.930 . S
H676 C686 0.930 . S
H677 C687 0.930 . S
C678 H672 0.930 . S
C678 C679 1.355 . S
C678 C680 1.415 . S
C679 C678 1.355 . S
C679 C681 1.419 . S
C680 C678 1.415 . S
C680 C685 1.425 . S
C680 C687 1.409 . S
C681 H673 0.930 . S
C681 C679 1.419 . S
C681 C682 1.362 . S
C682 H674 0.930 . S
C682 C681 1.362 . S
C682 C685 1.409 . S
C683 H675 0.930 . S
C683 C684 1.355 . S
C683 C685 1.415 . S
C684 C683 1.355 . S
C684 C686 1.419 . S
C685 C680 1.425 . S
C685 C682 1.409 . S
C685 C683 1.415 . S
C686 H676 0.930 . S
C686 C684 1.419 . S
C686 C687 1.362 . S
C687 H677 0.930 . S
C687 C680 1.409 . S
C687 C686 1.362 . S
H688 C694 0.930 . S
H689 C697 0.930 . S
H690 C698 0.930 1_554 S
H691 C699 0.930 . S
H692 C702 0.930 . S
H693 C703 0.930 . S
C694 H688 0.930 . S
C694 C695 1.355 . S
C694 C696 1.415 . S
C695 C694 1.355 . S
C695 C697 1.419 . S
C696 C694 1.415 . S
C696 C701 1.425 . S
C696 C703 1.409 . S
C697 H689 0.930 . S
C697 C695 1.419 . S
C697 C698 1.362 . S
C698 H690 0.930 1_556 S
C698 C697 1.362 . S
C698 C701 1.409 . S
C699 H691 0.930 . S
C699 C700 1.355 . S
C699 C701 1.415 1_554 S
C700 C699 1.355 . S
C700 C702 1.419 1_554 S
C701 C696 1.425 . S
C701 C698 1.409 . S
C701 C699 1.415 1_556 S
C702 H692 0.930 . S
C702 C700 1.419 1_556 S
C702 C703 1.362 . S
C703 H693 0.930 . S
C703 C696 1.409 . S
C703 C702 1.362 . S
H704 C710 0.930 . S
H705 C713 0.930 . S
H706 C714 0.930 . S
H707 C715 0.930 . S
H708 C718 0.930 . S
H709 C719 0.930 . S
C710 H704 0.930 . S
C710 C711 1.355 . S
C710 C712 1.415 . S
C711 C710 1.355 . S
C711 C713 1.419 . S
C712 C710 1.415 . S
C712 C717 1.425 . S
C712 C719 1.409 . S
C713 H705 0.930 . S
C713 C711 1.419 . S
C713 C714 1.362 . S
C714 H706 0.930 . S
C714 C713 1.362 . S
C714 C717 1.409 . S
C715 H707 0.930 . S
C715 C716 1.355 . S
C715 C717 1.415 . S
C716 C715 1.355 . S
C716 C718 1.419 . S
C717 C712 1.425 . S
C717 C714 1.409 . S
C717 C715 1.415 . S
C718 H708 0.930 . S
C718 C716 1.419 . S
C718 C719 1.362 . S
C719 H709 0.930 . S
C719 C712 1.409 . S
C719 C718 1.362 . S
H720 C726 0.930 . S
H721 C729 0.930 . S
H722 C730 0.930 . S
H723 C731 0.930 . S
H724 C734 0.930 1_556 S
H725 C735 0.930 . S
C726 H720 0.930 . S
C726 C727 1.355 . S
C726 C728 1.415 . S
C727 C726 1.355 . S
C727 C729 1.419 1_565 S
C728 C726 1.415 . S
C728 C733 1.425 1_565 S
C728 C735 1.409 . S
C729 H721 0.930 . S
C729 C727 1.419 1_545 S
C729 C730 1.362 . S
C730 H722 0.930 . S
C730 C729 1.362 . S
C730 C733 1.409 . S
C731 H723 0.930 . S
C731 C732 1.353 1_554 S
C731 C733 1.415 . S
C732 C731 1.353 1_556 S
C732 C734 1.419 1_556 S
C733 C728 1.425 1_545 S
C733 C730 1.409 . S
C733 C731 1.415 . S
C734 H724 0.930 1_554 S
C734 C732 1.419 1_554 S
C734 C735 1.362 1_545 S
C735 H725 0.930 . S
C735 C728 1.409 . S
C735 C734 1.362 1_565 S
H736 C742 0.930 . S
H737 C745 0.930 . S
H738 C746 0.930 . S
H739 C747 0.930 . S
H740 C750 0.930 . S
H741 C751 0.930 . S
C742 H736 0.930 . S
C742 C743 1.355 . S
C742 C744 1.415 . S
C743 C742 1.355 . S
C743 C745 1.419 . S
C744 C742 1.415 . S
C744 C749 1.425 . S
C744 C751 1.409 . S
C745 H737 0.930 . S
C745 C743 1.419 . S
C745 C746 1.362 . S
C746 H738 0.930 . S
C746 C745 1.362 . S
C746 C749 1.409 . S
C747 H739 0.930 . S
C747 C748 1.355 . S
C747 C749 1.415 . S
C748 C747 1.355 . S
C748 C750 1.419 . S
C749 C744 1.425 . S
C749 C746 1.409 . S
C749 C747 1.415 . S
C750 H740 0.930 . S
C750 C748 1.419 . S
C750 C751 1.362 . S
C751 H741 0.930 . S
C751 C744 1.409 . S
C751 C750 1.362 . S
H752 C758 0.930 1_565 S
H753 C761 0.930 . S
H754 C762 0.930 . S
H755 C763 0.930 . S
H756 C766 0.930 . S
H757 C767 0.930 . S
C758 H752 0.930 1_545 S
C758 C759 1.355 . S
C758 C760 1.415 1_545 S
C759 C758 1.355 . S
C759 C761 1.419 . S
C760 C758 1.415 1_565 S
C760 C765 1.425 1_565 S
C760 C767 1.409 . S
C761 H753 0.930 . S
C761 C759 1.419 . S
C761 C762 1.362 . S
C762 H754 0.930 . S
C762 C761 1.362 . S
C762 C765 1.409 . S
C763 H755 0.930 . S
C763 C764 1.355 1_545 S
C763 C765 1.415 . S
C764 C763 1.355 1_565 S
C764 C766 1.419 . S
C765 C760 1.425 1_545 S
C765 C762 1.409 . S
C765 C763 1.415 . S
C766 H756 0.930 . S
C766 C764 1.419 . S
C766 C767 1.362 . S
C767 H757 0.930 . S
C767 C760 1.409 . S
C767 C766 1.362 . S
H768 C774 0.930 . S
H769 C777 0.930 . S
H770 C778 0.930 . S
H771 C779 0.930 . S
H772 C782 0.930 . S
H773 C783 0.930 . S
C774 H768 0.930 . S
C774 C775 1.355 . S
C774 C776 1.415 . S
C775 C774 1.355 . S
C775 C777 1.419 . S
C776 C774 1.415 . S
C776 C781 1.425 . S
C776 C783 1.409 . S
C777 H769 0.930 . S
C777 C775 1.419 . S
C777 C778 1.362 . S
C778 H770 0.930 . S
C778 C777 1.362 . S
C778 C781 1.409 . S
C779 H771 0.930 . S
C779 C780 1.355 . S
C779 C781 1.415 . S
C780 C779 1.355 . S
C780 C782 1.419 . S
C781 C776 1.425 . S
C781 C778 1.409 . S
C781 C779 1.415 . S
C782 H772 0.930 . S
C782 C780 1.419 . S
C782 C783 1.362 . S
C783 H773 0.930 . S
C783 C776 1.409 . S
C783 C782 1.362 . S
H784 C790 0.930 . S
H785 C793 0.930 1_566 S
H786 C794 0.930 . S
H787 C795 0.930 . S
H788 C798 0.930 . S
H789 C799 0.930 . S
C790 H784 0.930 . S
C790 C791 1.364 . S
C790 C792 1.415 . S
C791 C790 1.364 . S
C791 C793 1.420 . S
C792 C790 1.415 . S
C792 C797 1.425 1_545 S
C792 C799 1.409 . S
C793 H785 0.930 1_544 S
C793 C791 1.420 . S
C793 C794 1.362 1_545 S
C794 H786 0.930 . S
C794 C793 1.362 1_565 S
C794 C797 1.409 . S
C795 H787 0.930 . S
C795 C796 1.355 . S
C795 C797 1.415 . S
C796 C795 1.355 . S
C796 C798 1.419 1_565 S
C797 C792 1.425 1_565 S
C797 C794 1.409 . S
C797 C795 1.415 . S
C798 H788 0.930 . S
C798 C796 1.419 1_545 S
C798 C799 1.362 . S
C799 H789 0.930 . S
C799 C792 1.409 . S
C799 C798 1.362 . S
H800 C806 0.930 . S
H801 C809 0.930 . S
H802 C810 0.930 . S
H803 C811 0.930 . S
H804 C814 0.930 . S
H805 C815 0.930 . S
C806 H800 0.930 . S
C806 C807 1.355 . S
C806 C808 1.415 . S
C807 C806 1.355 . S
C807 C809 1.419 . S
C808 C806 1.415 . S
C808 C813 1.425 . S
C808 C815 1.409 . S
C809 H801 0.930 . S
C809 C807 1.419 . S
C809 C810 1.362 . S
C810 H802 0.930 . S
C810 C809 1.362 . S
C810 C813 1.409 . S
C811 H803 0.930 . S
C811 C812 1.355 . S
C811 C813 1.415 . S
C812 C811 1.355 . S
C812 C814 1.419 . S
C813 C808 1.425 . S
C813 C810 1.409 . S
C813 C811 1.415 . S
C814 H804 0.930 . S
C814 C812 1.419 . S
C814 C815 1.362 . S
C815 H805 0.930 . S
C815 C808 1.409 . S
C815 C814 1.362 . S
H816 C822 0.930 . S
H817 C825 0.947 . S
H818 C826 0.930 . S
H819 C827 0.930 . S
H820 C830 0.930 . S
H821 C831 0.930 . S
C822 H816 0.930 . S
C822 C823 1.355 . S
C822 C824 1.415 . S
C823 C822 1.355 . S
C823 C825 1.380 1_545 S
C824 C822 1.415 . S
C824 C829 1.425 1_545 S
C824 C831 1.409 . S
C825 H817 0.947 . S
C825 C823 1.380 1_565 S
C825 C826 1.387 . S
C826 H818 0.930 . S
C826 C825 1.387 . S
C826 C829 1.409 . S
C827 H819 0.930 . S
C827 C828 1.355 . S
C827 C829 1.415 . S
C828 C827 1.355 . S
C828 C830 1.419 1_565 S
C829 C824 1.425 1_565 S
C829 C826 1.409 . S
C829 C827 1.415 . S
C830 H820 0.930 . S
C830 C828 1.419 1_545 S
C830 C831 1.362 . S
C831 H821 0.930 . S
C831 C824 1.409 . S
C831 C830 1.362 . S
H832 C838 0.930 . S
H833 C841 0.930 . S
H834 C842 0.930 . S
H835 C843 0.930 . S
H836 C846 0.930 . S
H837 C847 0.930 . S
C838 H832 0.930 . S
C838 C839 1.355 . S
C838 C840 1.415 . S
C839 C838 1.355 . S
C839 C841 1.419 . S
C840 C838 1.415 . S
C840 C845 1.425 . S
C840 C847 1.409 . S
C841 H833 0.930 . S
C841 C839 1.419 . S
C841 C842 1.362 . S
C842 H834 0.930 . S
C842 C841 1.362 . S
C842 C845 1.409 . S
C843 H835 0.930 . S
C843 C844 1.355 . S
C843 C845 1.415 . S
C844 C843 1.355 . S
C844 C846 1.419 . S
C845 C840 1.425 . S
C845 C842 1.409 . S
C845 C843 1.415 . S
C846 H836 0.930 . S
C846 C844 1.419 . S
C846 C847 1.362 . S
C847 H837 0.930 . S
C847 C840 1.409 . S
C847 C846 1.362 . S
H848 C854 0.930 . S
H849 C857 0.930 . S
H850 C858 0.930 . S
H851 C859 0.930 . S
H852 C862 0.930 . S
H853 C863 0.930 . S
C854 H848 0.930 . S
C854 C855 1.355 . S
C854 C856 1.415 . S
C855 C854 1.355 . S
C855 C857 1.419 . S
C856 C854 1.415 . S
C856 C861 1.425 . S
C856 C863 1.409 . S
C857 H849 0.930 . S
C857 C855 1.419 . S
C857 C858 1.362 . S
C858 H850 0.930 . S
C858 C857 1.362 . S
C858 C861 1.409 . S
C859 H851 0.930 . S
C859 C860 1.355 . S
C859 C861 1.415 . S
C860 C859 1.355 . S
C860 C862 1.419 . S
C861 C856 1.425 . S
C861 C858 1.409 . S
C861 C859 1.415 . S
C862 H852 0.930 . S
C862 C860 1.419 . S
C862 C863 1.362 . S
C863 H853 0.930 . S
C863 C856 1.409 . S
C863 C862 1.362 . S
H864 C870 0.930 . S
H865 C873 0.930 . S
H866 C874 0.930 . S
H867 C875 0.930 . S
H868 C878 0.930 . S
H869 C879 0.930 . S
C870 H864 0.930 . S
C870 C871 1.355 . S
C870 C872 1.415 . S
C871 C870 1.355 . S
C871 C873 1.419 . S
C872 C870 1.415 . S
C872 C877 1.425 . S
C872 C879 1.409 . S
C873 H865 0.930 . S
C873 C871 1.419 . S
C873 C874 1.362 . S
C874 H866 0.930 . S
C874 C873 1.362 . S
C874 C877 1.409 . S
C875 H867 0.930 . S
C875 C876 1.355 . S
C875 C877 1.415 . S
C876 C875 1.355 . S
C876 C878 1.419 . S
C877 C872 1.425 . S
C877 C874 1.409 . S
C877 C875 1.415 . S
C878 H868 0.930 . S
C878 C876 1.419 . S
C878 C879 1.362 . S
C879 H869 0.930 . S
C879 C872 1.409 . S
C879 C878 1.362 . S
H880 C886 0.930 . S
H881 C889 0.930 . S
H882 C890 0.930 . S
H883 C891 0.930 . S
H884 C894 0.930 . S
H885 C895 0.930 . S
C886 H880 0.930 . S
C886 C887 1.355 . S
C886 C888 1.415 . S
C887 C886 1.355 . S
C887 C889 1.419 . S
C888 C886 1.415 . S
C888 C893 1.425 . S
C888 C895 1.409 . S
C889 H881 0.930 . S
C889 C887 1.419 . S
C889 C890 1.362 . S
C890 H882 0.930 . S
C890 C889 1.362 . S
C890 C893 1.409 . S
C891 H883 0.930 . S
C891 C892 1.346 1_554 S
C891 C893 1.415 . S
C892 C891 1.346 1_556 S
C892 C894 1.419 . S
C893 C888 1.425 . S
C893 C890 1.409 . S
C893 C891 1.415 . S
C894 H884 0.930 . S
C894 C892 1.419 . S
C894 C895 1.362 1_556 S
C895 H885 0.930 . S
C895 C888 1.409 . S
C895 C894 1.362 1_554 S
H896 C902 0.930 . S
H897 C905 0.930 . S
H898 C906 0.930 . S
H899 C907 0.930 . S
H900 C910 0.930 . S
H901 C911 0.930 . S
C902 H896 0.930 . S
C902 C903 1.355 . S
C902 C904 1.415 . S
C903 C902 1.355 . S
C903 C905 1.419 . S
C904 C902 1.415 . S
C904 C909 1.425 . S
C904 C911 1.409 . S
C905 H897 0.930 . S
C905 C903 1.419 . S
C905 C906 1.362 . S
C906 H898 0.930 . S
C906 C905 1.362 . S
C906 C909 1.409 . S
C907 H899 0.930 . S
C907 C908 1.355 . S
C907 C909 1.415 . S
C908 C907 1.355 . S
C908 C910 1.419 . S
C909 C904 1.425 . S
C909 C906 1.409 . S
C909 C907 1.415 . S
C910 H900 0.930 . S
C910 C908 1.419 . S
C910 C911 1.362 . S
C911 H901 0.930 . S
C911 C904 1.409 . S
C911 C910 1.362 . S
H912 C918 0.930 . S
H913 C921 0.930 . S
H914 C922 0.930 . S
H915 C923 0.930 . S
H916 C926 0.930 . S
H917 C927 0.930 . S
C918 H912 0.930 . S
C918 C919 1.355 . S
C918 C920 1.415 . S
C919 C918 1.355 . S
C919 C921 1.419 . S
C920 C918 1.415 . S
C920 C925 1.425 . S
C920 C927 1.409 . S
C921 H913 0.930 . S
C921 C919 1.419 . S
C921 C922 1.362 . S
C922 H914 0.930 . S
C922 C921 1.362 . S
C922 C925 1.409 . S
C923 H915 0.930 . S
C923 C924 1.355 . S
C923 C925 1.415 . S
C924 C923 1.355 . S
C924 C926 1.419 . S
C925 C920 1.425 . S
C925 C922 1.409 . S
C925 C923 1.415 . S
C926 H916 0.930 . S
C926 C924 1.419 . S
C926 C927 1.362 . S
C927 H917 0.930 . S
C927 C920 1.409 . S
C927 C926 1.362 . S
H928 C934 0.930 . S
H929 C937 0.930 . S
H930 C938 0.930 . S
H931 C939 0.930 . S
H932 C942 0.930 . S
H933 C943 0.930 . S
C934 H928 0.930 . S
C934 C935 1.355 . S
C934 C936 1.415 . S
C935 C934 1.355 . S
C935 C937 1.419 . S
C936 C934 1.415 . S
C936 C941 1.425 . S
C936 C943 1.409 . S
C937 H929 0.930 . S
C937 C935 1.419 . S
C937 C938 1.362 . S
C938 H930 0.930 . S
C938 C937 1.362 . S
C938 C941 1.409 . S
C939 H931 0.930 . S
C939 C940 1.355 . S
C939 C941 1.415 . S
C940 C939 1.355 . S
C940 C942 1.419 . S
C941 C936 1.425 . S
C941 C938 1.409 . S
C941 C939 1.415 . S
C942 H932 0.930 . S
C942 C940 1.419 . S
C942 C943 1.362 . S
C943 H933 0.930 . S
C943 C936 1.409 . S
C943 C942 1.362 . S
H944 C950 0.930 . S
H945 C953 0.930 . S
H946 C954 0.930 . S
H947 C955 0.930 . S
H948 C958 0.930 . S
H949 C959 0.930 . S
C950 H944 0.930 . S
C950 C951 1.355 . S
C950 C952 1.415 . S
C951 C950 1.355 . S
C951 C953 1.419 . S
C952 C950 1.415 . S
C952 C957 1.425 . S
C952 C959 1.409 . S
C953 H945 0.930 . S
C953 C951 1.419 . S
C953 C954 1.362 . S
C954 H946 0.930 . S
C954 C953 1.362 . S
C954 C957 1.409 . S
C955 H947 0.930 . S
C955 C956 1.355 . S
C955 C957 1.415 . S
C956 C955 1.355 . S
C956 C958 1.419 . S
C957 C952 1.425 . S
C957 C954 1.409 . S
C957 C955 1.415 . S
C958 H948 0.930 . S
C958 C956 1.419 . S
C958 C959 1.362 . S
C959 H949 0.930 . S
C959 C952 1.409 . S
C959 C958 1.362 . S
H960 C966 0.930 . S
H961 C969 0.930 . S
H962 C970 0.930 1_556 S
H963 C971 0.930 . S
H964 C974 0.930 . S
H965 C975 0.930 . S
C966 H960 0.930 . S
C966 C967 1.355 . S
C966 C968 1.415 . S
C967 C966 1.355 . S
C967 C969 1.419 . S
C968 C966 1.415 . S
C968 C973 1.425 . S
C968 C975 1.409 . S
C969 H961 0.930 . S
C969 C967 1.419 . S
C969 C970 1.362 . S
C970 H962 0.930 1_554 S
C970 C969 1.362 . S
C970 C973 1.409 . S
C971 H963 0.930 . S
C971 C972 1.355 . S
C971 C973 1.415 . S
C972 C971 1.355 . S
C972 C974 1.419 . S
C973 C968 1.425 . S
C973 C970 1.409 . S
C973 C971 1.415 . S
C974 H964 0.930 . S
C974 C972 1.419 . S
C974 C975 1.362 . S
C975 H965 0.930 . S
C975 C968 1.409 . S
C975 C974 1.362 . S
H976 C982 0.930 . S
H977 C985 0.930 1_545 S
H978 C986 0.930 1_545 S
H979 C987 0.930 . S
H980 C990 0.930 . S
H981 C991 0.930 . S
C982 H976 0.930 . S
C982 C983 1.355 . S
C982 C984 1.415 . S
C983 C982 1.355 . S
C983 C985 1.419 . S
C984 C982 1.415 . S
C984 C989 1.425 1_455 S
C984 C991 1.409 1_455 S
C985 H977 0.930 1_565 S
C985 C983 1.419 . S
C985 C986 1.362 . S
C986 H978 0.930 1_565 S
C986 C985 1.362 . S
C986 C989 1.409 1_455 S
C987 H979 0.930 . S
C987 C988 1.355 . S
C987 C989 1.415 . S
C988 C987 1.355 . S
C988 C990 1.419 . S
C989 C984 1.425 1_655 S
C989 C986 1.409 1_655 S
C989 C987 1.415 . S
C990 H980 0.930 . S
C990 C988 1.419 . S
C990 C991 1.362 . S
C991 H981 0.930 . S
C991 C984 1.409 1_655 S
C991 C990 1.362 . S
H992 C998 0.930 . S
H993 C1001 0.930 . S
H994 C1002 0.930 . S
H995 C1003 0.930 . S
H996 C1006 0.930 . S
H997 C1007 0.930 . S
C998 H992 0.930 . S
C998 C999 1.355 . S
C998 C1000 1.415 . S
C999 C998 1.355 . S
C999 C1001 1.419 . S
C1000 C998 1.415 . S
C1000 C1005 1.425 . S
C1000 C1007 1.409 . S
C1001 H993 0.930 . S
C1001 C999 1.419 . S
C1001 C1002 1.362 . S
C1002 H994 0.930 . S
C1002 C1001 1.362 . S
C1002 C1005 1.409 . S
C1003 H995 0.930 . S
C1003 C1004 1.355 . S
C1003 C1005 1.415 . S
C1004 C1003 1.355 . S
C1004 C1006 1.419 . S
C1005 C1000 1.425 . S
C1005 C1002 1.409 . S
C1005 C1003 1.415 . S
C1006 H996 0.930 . S
C1006 C1004 1.419 . S
C1006 C1007 1.362 . S
C1007 H997 0.930 . S
C1007 C1000 1.409 . S
C1007 C1006 1.362 . S
H1008 C1014 0.930 . S
H1009 C1017 0.930 . S
H1010 C1018 0.930 . S
H1011 C1019 0.930 . S
H1012 C1022 0.930 . S
H1013 C1023 0.930 . S
C1014 H1008 0.930 . S
C1014 C1015 1.355 . S
C1014 C1016 1.415 . S
C1015 C1014 1.355 . S
C1015 C1017 1.419 . S
C1016 C1014 1.415 . S
C1016 C1021 1.425 . S
C1016 C1023 1.409 . S
C1017 H1009 0.930 . S
C1017 C1015 1.419 . S
C1017 C1018 1.362 . S
C1018 H1010 0.930 . S
C1018 C1017 1.362 . S
C1018 C1021 1.409 . S
C1019 H1011 0.930 . S
C1019 C1020 1.355 . S
C1019 C1021 1.415 . S
C1020 C1019 1.355 . S
C1020 C1022 1.419 . S
C1021 C1016 1.425 . S
C1021 C1018 1.409 . S
C1021 C1019 1.415 . S
C1022 H1012 0.930 . S
C1022 C1020 1.419 . S
C1022 C1023 1.362 . S
C1023 H1013 0.930 . S
C1023 C1016 1.409 . S
C1023 C1022 1.362 . S
H1024 C1030 0.930 . S
H1025 C1033 0.930 . S
H1026 C1034 0.930 . S
H1027 C1035 0.930 . S
H1028 C1038 0.930 . S
H1029 C1039 0.930 . S
C1030 H1024 0.930 . S
C1030 C1031 1.355 . S
C1030 C1032 1.415 . S
C1031 C1030 1.355 . S
C1031 C1033 1.419 . S
C1032 C1030 1.415 . S
C1032 C1037 1.425 . S
C1032 C1039 1.409 . S
C1033 H1025 0.930 . S
C1033 C1031 1.419 . S
C1033 C1034 1.362 . S
C1034 H1026 0.930 . S
C1034 C1033 1.362 . S
C1034 C1037 1.409 . S
C1035 H1027 0.930 . S
C1035 C1036 1.355 . S
C1035 C1037 1.415 . S
C1036 C1035 1.355 . S
C1036 C1038 1.419 . S
C1037 C1032 1.425 . S
C1037 C1034 1.409 . S
C1037 C1035 1.415 . S
C1038 H1028 0.930 . S
C1038 C1036 1.419 . S
C1038 C1039 1.362 . S
C1039 H1029 0.930 . S
C1039 C1032 1.409 . S
C1039 C1038 1.362 . S
H1040 C1046 0.930 . S
H1041 C1049 0.930 . S
H1042 C1050 0.930 . S
H1043 C1051 0.930 . S
H1044 C1054 0.930 . S
H1045 C1055 0.883 1_545 S
C1046 H1040 0.930 . S
C1046 C1047 1.355 . S
C1046 C1048 1.415 . S
C1047 C1046 1.355 . S
C1047 C1049 1.419 . S
C1048 C1046 1.415 . S
C1048 C1053 1.425 . S
C1048 C1055 1.409 . S
C1049 H1041 0.930 . S
C1049 C1047 1.419 . S
C1049 C1050 1.362 . S
C1050 H1042 0.930 . S
C1050 C1049 1.362 . S
C1050 C1053 1.409 . S
C1051 H1043 0.930 . S
C1051 C1052 1.355 . S
C1051 C1053 1.415 . S
C1052 C1051 1.355 . S
C1052 C1054 1.419 . S
C1053 C1048 1.425 . S
C1053 C1050 1.409 . S
C1053 C1051 1.415 . S
C1054 H1044 0.930 . S
C1054 C1052 1.419 . S
C1054 C1055 1.362 . S
C1055 H1045 0.883 1_565 S
C1055 C1048 1.409 . S
C1055 C1054 1.362 . S
H1056 C1062 0.930 . S
H1057 C1065 0.930 . S
H1058 C1066 0.930 . S
H1059 C1067 0.930 . S
H1060 C1070 0.930 . S
H1061 C1071 0.930 . S
C1062 H1056 0.930 . S
C1062 C1063 1.355 . S
C1062 C1064 1.415 . S
C1063 C1062 1.355 . S
C1063 C1065 1.419 . S
C1064 C1062 1.415 . S
C1064 C1069 1.425 . S
C1064 C1071 1.409 . S
C1065 H1057 0.930 . S
C1065 C1063 1.419 . S
C1065 C1066 1.362 . S
C1066 H1058 0.930 . S
C1066 C1065 1.362 . S
C1066 C1069 1.409 . S
C1067 H1059 0.930 . S
C1067 C1068 1.355 . S
C1067 C1069 1.415 . S
C1068 C1067 1.355 . S
C1068 C1070 1.419 . S
C1069 C1064 1.425 . S
C1069 C1066 1.409 . S
C1069 C1067 1.415 . S
C1070 H1060 0.930 . S
C1070 C1068 1.419 . S
C1070 C1071 1.362 . S
C1071 H1061 0.930 . S
C1071 C1064 1.409 . S
C1071 C1070 1.362 . S
H1072 C1078 0.930 . S
H1073 C1081 0.930 . S
H1074 C1082 0.930 . S
H1075 C1083 0.930 . S
H1076 C1086 0.930 . S
H1077 C1087 0.937 1_565 S
C1078 H1072 0.930 . S
C1078 C1079 1.355 . S
C1078 C1080 1.415 . S
C1079 C1078 1.355 . S
C1079 C1081 1.419 . S
C1080 C1078 1.415 . S
C1080 C1085 1.425 1_655 S
C1080 C1087 1.409 1_655 S
C1081 H1073 0.930 . S
C1081 C1079 1.419 . S
C1081 C1082 1.362 . S
C1082 H1074 0.930 . S
C1082 C1081 1.362 . S
C1082 C1085 1.409 1_655 S
C1083 H1075 0.930 . S
C1083 C1084 1.355 . S
C1083 C1085 1.415 . S
C1084 C1083 1.355 . S
C1084 C1086 1.419 . S
C1085 C1080 1.425 1_455 S
C1085 C1082 1.409 1_455 S
C1085 C1083 1.415 . S
C1086 H1076 0.930 . S
C1086 C1084 1.419 . S
C1086 C1087 1.362 . S
C1087 H1077 0.937 1_545 S
C1087 C1080 1.409 1_455 S
C1087 C1086 1.362 . S
H1088 C1094 0.930 . S
H1089 C1097 0.930 . S
H1090 C1098 0.930 . S
H1091 C1099 0.930 . S
H1092 C1102 0.930 . S
H1093 C1103 0.930 . S
C1094 H1088 0.930 . S
C1094 C1095 1.355 . S
C1094 C1096 1.415 . S
C1095 C1094 1.355 . S
C1095 C1097 1.419 . S
C1096 C1094 1.415 . S
C1096 C1101 1.425 . S
C1096 C1103 1.409 . S
C1097 H1089 0.930 . S
C1097 C1095 1.419 . S
C1097 C1098 1.362 . S
C1098 H1090 0.930 . S
C1098 C1097 1.362 . S
C1098 C1101 1.409 . S
C1099 H1091 0.930 . S
C1099 C1100 1.355 . S
C1099 C1101 1.415 . S
C1100 C1099 1.355 . S
C1100 C1102 1.419 . S
C1101 C1096 1.425 . S
C1101 C1098 1.409 . S
C1101 C1099 1.415 . S
C1102 H1092 0.930 . S
C1102 C1100 1.419 . S
C1102 C1103 1.362 . S
C1103 H1093 0.930 . S
C1103 C1096 1.409 . S
C1103 C1102 1.362 . S
H1104 C1110 0.930 . S
H1105 C1113 0.930 . S
H1106 C1114 0.930 . S
H1107 C1115 0.930 . S
H1108 C1118 0.930 . S
H1109 C1119 0.930 . S
C1110 H1104 0.930 . S
C1110 C1111 1.355 . S
C1110 C1112 1.415 . S
C1111 C1110 1.355 . S
C1111 C1113 1.419 . S
C1112 C1110 1.415 . S
C1112 C1117 1.425 . S
C1112 C1119 1.409 . S
C1113 H1105 0.930 . S
C1113 C1111 1.419 . S
C1113 C1114 1.362 . S
C1114 H1106 0.930 . S
C1114 C1113 1.362 . S
C1114 C1117 1.409 . S
C1115 H1107 0.930 . S
C1115 C1116 1.355 . S
C1115 C1117 1.415 . S
C1116 C1115 1.355 . S
C1116 C1118 1.419 . S
C1117 C1112 1.425 . S
C1117 C1114 1.409 . S
C1117 C1115 1.415 . S
C1118 H1108 0.930 . S
C1118 C1116 1.419 . S
C1118 C1119 1.362 . S
C1119 H1109 0.930 . S
C1119 C1112 1.409 . S
C1119 C1118 1.362 . S
H1120 C1126 0.930 . S
H1121 C1129 0.930 . S
H1122 C1130 0.930 . S
H1123 C1131 0.930 . S
H1124 C1134 0.930 1_556 S
H1125 C1135 0.930 1_556 S
C1126 H1120 0.930 . S
C1126 C1127 1.355 . S
C1126 C1128 1.415 . S
C1127 C1126 1.355 . S
C1127 C1129 1.419 . S
C1128 C1126 1.415 . S
C1128 C1133 1.425 . S
C1128 C1135 1.409 . S
C1129 H1121 0.930 . S
C1129 C1127 1.419 . S
C1129 C1130 1.362 . S
C1130 H1122 0.930 . S
C1130 C1129 1.362 . S
C1130 C1133 1.409 . S
C1131 H1123 0.930 . S
C1131 C1132 1.355 . S
C1131 C1133 1.415 . S
C1132 C1131 1.355 . S
C1132 C1134 1.419 . S
C1133 C1128 1.425 . S
C1133 C1130 1.409 . S
C1133 C1131 1.415 . S
C1134 H1124 0.930 1_554 S
C1134 C1132 1.419 . S
C1134 C1135 1.362 . S
C1135 H1125 0.930 1_554 S
C1135 C1128 1.409 . S
C1135 C1134 1.362 . S
H1136 C1142 0.930 . S
H1137 C1145 0.930 . S
H1138 C1146 0.930 . S
H1139 C1147 0.930 . S
H1140 C1150 0.930 . S
H1141 C1151 0.930 . S
C1142 H1136 0.930 . S
C1142 C1143 1.355 . S
C1142 C1144 1.415 . S
C1143 C1142 1.355 . S
C1143 C1145 1.419 . S
C1144 C1142 1.415 . S
C1144 C1149 1.425 . S
C1144 C1151 1.409 . S
C1145 H1137 0.930 . S
C1145 C1143 1.419 . S
C1145 C1146 1.362 . S
C1146 H1138 0.930 . S
C1146 C1145 1.362 . S
C1146 C1149 1.409 . S
C1147 H1139 0.930 . S
C1147 C1148 1.355 . S
C1147 C1149 1.415 . S
C1148 C1147 1.355 . S
C1148 C1150 1.419 . S
C1149 C1144 1.425 . S
C1149 C1146 1.409 . S
C1149 C1147 1.415 . S
C1150 H1140 0.930 . S
C1150 C1148 1.419 . S
C1150 C1151 1.362 . S
C1151 H1141 0.930 . S
C1151 C1144 1.409 . S
C1151 C1150 1.362 . S
H1152 C1158 0.930 . S
H1153 C1161 0.930 . S
H1154 C1162 0.930 . S
H1155 C1163 0.930 . S
H1156 C1166 0.930 . S
H1157 C1167 0.930 . S
C1158 H1152 0.930 . S
C1158 C1159 1.355 . S
C1158 C1160 1.415 . S
C1159 C1158 1.355 . S
C1159 C1161 1.419 . S
C1160 C1158 1.415 . S
C1160 C1165 1.425 . S
C1160 C1167 1.409 . S
C1161 H1153 0.930 . S
C1161 C1159 1.419 . S
C1161 C1162 1.362 . S
C1162 H1154 0.930 . S
C1162 C1161 1.362 . S
C1162 C1165 1.409 . S
C1163 H1155 0.930 . S
C1163 C1164 1.355 . S
C1163 C1165 1.415 . S
C1164 C1163 1.355 . S
C1164 C1166 1.419 . S
C1165 C1160 1.425 . S
C1165 C1162 1.409 . S
C1165 C1163 1.415 . S
C1166 H1156 0.930 . S
C1166 C1164 1.419 . S
C1166 C1167 1.362 . S
C1167 H1157 0.930 . S
C1167 C1160 1.409 . S
C1167 C1166 1.362 . S
H1168 C1174 0.930 . S
H1169 C1177 0.930 . S
H1170 C1178 0.930 . S
H1171 C1179 0.930 . S
H1172 C1182 0.930 . S
H1173 C1183 0.930 . S
C1174 H1168 0.930 . S
C1174 C1175 1.355 . S
C1174 C1176 1.415 . S
C1175 C1174 1.355 . S
C1175 C1177 1.419 . S
C1176 C1174 1.415 . S
C1176 C1181 1.425 1_655 S
C1176 C1183 1.409 1_655 S
C1177 H1169 0.930 . S
C1177 C1175 1.419 . S
C1177 C1178 1.362 . S
C1178 H1170 0.930 . S
C1178 C1177 1.362 . S
C1178 C1181 1.409 1_655 S
C1179 H1171 0.930 . S
C1179 C1180 1.355 . S
C1179 C1181 1.415 . S
C1180 C1179 1.355 . S
C1180 C1182 1.419 . S
C1181 C1176 1.425 1_455 S
C1181 C1178 1.409 1_455 S
C1181 C1179 1.415 . S
C1182 H1172 0.930 . S
C1182 C1180 1.419 . S
C1182 C1183 1.362 . S
C1183 H1173 0.930 . S
C1183 C1176 1.409 1_455 S
C1183 C1182 1.362 . S
H1184 C1190 0.930 . S
H1185 C1193 0.930 . S
H1186 C1194 0.930 . S
H1187 C1195 0.930 . S
H1188 C1198 0.930 . S
H1189 C1199 0.930 . S
C1190 H1184 0.930 . S
C1190 C1191 1.355 . S
C1190 C1192 1.415 . S
C1191 C1190 1.355 . S
C1191 C1193 1.419 . S
C1192 C1190 1.415 . S
C1192 C1197 1.425 1_655 S
C1192 C1199 1.409 1_655 S
C1193 H1185 0.930 . S
C1193 C1191 1.419 . S
C1193 C1194 1.362 . S
C1194 H1186 0.930 . S
C1194 C1193 1.362 . S
C1194 C1197 1.409 1_655 S
C1195 H1187 0.930 . S
C1195 C1196 1.355 . S
C1195 C1197 1.415 . S
C1196 C1195 1.355 . S
C1196 C1198 1.419 . S
C1197 C1192 1.425 1_455 S
C1197 C1194 1.409 1_455 S
C1197 C1195 1.415 . S
C1198 H1188 0.930 . S
C1198 C1196 1.419 . S
C1198 C1199 1.362 . S
C1199 H1189 0.930 . S
C1199 C1192 1.409 1_455 S
C1199 C1198 1.362 . S
H1200 C1206 0.930 . S
H1201 C1209 0.930 . S
H1202 C1210 0.930 . S
H1203 C1211 0.930 . S
H1204 C1214 0.930 . S
H1205 C1215 0.930 . S
C1206 H1200 0.930 . S
C1206 C1207 1.355 . S
C1206 C1208 1.415 . S
C1207 C1206 1.355 . S
C1207 C1209 1.419 . S
C1208 C1206 1.415 . S
C1208 C1213 1.425 . S
C1208 C1215 1.409 . S
C1209 H1201 0.930 . S
C1209 C1207 1.419 . S
C1209 C1210 1.362 . S
C1210 H1202 0.930 . S
C1210 C1209 1.362 . S
C1210 C1213 1.409 . S
C1211 H1203 0.930 . S
C1211 C1212 1.355 . S
C1211 C1213 1.415 . S
C1212 C1211 1.355 . S
C1212 C1214 1.419 . S
C1213 C1208 1.425 . S
C1213 C1210 1.409 . S
C1213 C1211 1.415 . S
C1214 H1204 0.930 . S
C1214 C1212 1.419 . S
C1214 C1215 1.362 . S
C1215 H1205 0.930 . S
C1215 C1208 1.409 . S
C1215 C1214 1.362 . S
H1216 C1222 0.930 . S
H1217 C1225 0.930 . S
H1218 C1226 0.930 . S
H1219 C1227 0.930 . S
H1220 C1230 0.930 . S
H1221 C1231 0.930 . S
C1222 H1216 0.930 . S
C1222 C1223 1.355 . S
C1222 C1224 1.415 . S
C1223 C1222 1.355 . S
C1223 C1225 1.419 . S
C1224 C1222 1.415 . S
C1224 C1229 1.425 . S
C1224 C1231 1.409 . S
C1225 H1217 0.930 . S
C1225 C1223 1.419 . S
C1225 C1226 1.362 . S
C1226 H1218 0.930 . S
C1226 C1225 1.362 . S
C1226 C1229 1.409 . S
C1227 H1219 0.930 . S
C1227 C1228 1.355 . S
C1227 C1229 1.415 . S
C1228 C1227 1.355 . S
C1228 C1230 1.419 . S
C1229 C1224 1.425 . S
C1229 C1226 1.409 . S
C1229 C1227 1.415 . S
C1230 H1220 0.930 . S
C1230 C1228 1.419 . S
C1230 C1231 1.362 . S
C1231 H1221 0.930 . S
C1231 C1224 1.409 . S
C1231 C1230 1.362 . S
H1232 C1238 0.929 . S
H1233 C1241 0.930 . S
H1234 C1242 0.930 . S
H1235 C1243 0.930 . S
H1236 C1246 0.930 . S
H1237 C1247 0.930 . S
C1238 H1232 0.929 . S
C1238 C1239 1.358 1_545 S
C1238 C1240 1.412 . S
C1239 C1238 1.358 1_565 S
C1239 C1241 1.419 . S
C1240 C1238 1.412 . S
C1240 C1245 1.425 . S
C1240 C1247 1.409 . S
C1241 H1233 0.930 . S
C1241 C1239 1.419 . S
C1241 C1242 1.362 . S
C1242 H1234 0.930 . S
C1242 C1241 1.362 . S
C1242 C1245 1.409 1_565 S
C1243 H1235 0.930 . S
C1243 C1244 1.355 . S
C1243 C1245 1.415 . S
C1244 C1243 1.355 . S
C1244 C1246 1.419 . S
C1245 C1240 1.425 . S
C1245 C1242 1.409 1_545 S
C1245 C1243 1.415 . S
C1246 H1236 0.930 . S
C1246 C1244 1.419 . S
C1246 C1247 1.362 . S
C1247 H1237 0.930 . S
C1247 C1240 1.409 . S
C1247 C1246 1.362 . S
H1248 C1254 0.930 . S
H1249 C1257 0.930 . S
H1250 C1258 0.930 . S
H1251 C1259 0.930 . S
H1252 C1262 0.930 . S
H1253 C1263 0.930 . S
C1254 H1248 0.930 . S
C1254 C1255 1.355 . S
C1254 C1256 1.415 . S
C1255 C1254 1.355 . S
C1255 C1257 1.419 . S
C1256 C1254 1.415 . S
C1256 C1261 1.425 . S
C1256 C1263 1.409 . S
C1257 H1249 0.930 . S
C1257 C1255 1.419 . S
C1257 C1258 1.362 . S
C1258 H1250 0.930 . S
C1258 C1257 1.362 . S
C1258 C1261 1.409 . S
C1259 H1251 0.930 . S
C1259 C1260 1.355 . S
C1259 C1261 1.415 . S
C1260 C1259 1.355 . S
C1260 C1262 1.419 . S
C1261 C1256 1.425 . S
C1261 C1258 1.409 . S
C1261 C1259 1.415 . S
C1262 H1252 0.930 . S
C1262 C1260 1.419 . S
C1262 C1263 1.362 . S
C1263 H1253 0.930 . S
C1263 C1256 1.409 . S
C1263 C1262 1.362 . S
H1264 C1270 0.930 . S
H1265 C1273 0.926 1_556 S
H1266 C1274 0.930 . S
H1267 C1275 0.930 . S
H1268 C1278 0.930 . S
H1269 C1279 0.930 . S
C1270 H1264 0.930 . S
C1270 C1271 1.355 . S
C1270 C1272 1.415 . S
C1271 C1270 1.355 . S
C1271 C1273 1.419 . S
C1272 C1270 1.415 . S
C1272 C1277 1.425 . S
C1272 C1279 1.409 1_545 S
C1273 H1265 0.926 1_554 S
C1273 C1271 1.419 . S
C1273 C1274 1.362 . S
C1274 H1266 0.930 . S
C1274 C1273 1.362 . S
C1274 C1277 1.409 . S
C1275 H1267 0.930 . S
C1275 C1276 1.355 . S
C1275 C1277 1.415 1_565 S
C1276 C1275 1.355 . S
C1276 C1278 1.419 . S
C1277 C1272 1.425 . S
C1277 C1274 1.409 . S
C1277 C1275 1.415 1_545 S
C1278 H1268 0.930 . S
C1278 C1276 1.419 . S
C1278 C1279 1.362 . S
C1279 H1269 0.930 . S
C1279 C1272 1.409 1_565 S
C1279 C1278 1.362 . S
H1280 C1286 0.930 . S
H1281 C1289 0.930 . S
H1282 C1290 0.930 . S
H1283 C1291 0.930 . S
H1284 C1294 0.930 . S
H1285 C1295 0.930 . S
C1286 H1280 0.930 . S
C1286 C1287 1.355 . S
C1286 C1288 1.415 . S
C1287 C1286 1.355 . S
C1287 C1289 1.419 . S
C1288 C1286 1.415 . S
C1288 C1293 1.425 . S
C1288 C1295 1.409 . S
C1289 H1281 0.930 . S
C1289 C1287 1.419 . S
C1289 C1290 1.362 . S
C1290 H1282 0.930 . S
C1290 C1289 1.362 . S
C1290 C1293 1.409 . S
C1291 H1283 0.930 . S
C1291 C1292 1.355 . S
C1291 C1293 1.415 . S
C1292 C1291 1.355 . S
C1292 C1294 1.419 . S
C1293 C1288 1.425 . S
C1293 C1290 1.409 . S
C1293 C1291 1.415 . S
C1294 H1284 0.930 . S
C1294 C1292 1.419 . S
C1294 C1295 1.362 . S
C1295 H1285 0.930 . S
C1295 C1288 1.409 . S
C1295 C1294 1.362 . S
H1296 C1302 0.930 1_565 S
H1297 C1305 0.930 . S
H1298 C1306 0.930 . S
H1299 C1307 0.930 . S
H1300 C1310 0.930 . S
H1301 C1311 0.930 . S
C1302 H1296 0.930 1_545 S
C1302 C1303 1.355 . S
C1302 C1304 1.415 1_545 S
C1303 C1302 1.355 . S
C1303 C1305 1.419 . S
C1304 C1302 1.415 1_565 S
C1304 C1309 1.425 1_565 S
C1304 C1311 1.409 . S
C1305 H1297 0.930 . S
C1305 C1303 1.419 . S
C1305 C1306 1.362 . S
C1306 H1298 0.930 . S
C1306 C1305 1.362 . S
C1306 C1309 1.409 . S
C1307 H1299 0.930 . S
C1307 C1308 1.355 1_545 S
C1307 C1309 1.415 . S
C1308 C1307 1.355 1_565 S
C1308 C1310 1.419 . S
C1309 C1304 1.425 1_545 S
C1309 C1306 1.409 . S
C1309 C1307 1.415 . S
C1310 H1300 0.930 . S
C1310 C1308 1.419 . S
C1310 C1311 1.362 . S
C1311 H1301 0.930 . S
C1311 C1304 1.409 . S
C1311 C1310 1.362 . S
H1312 C1318 0.930 . S
H1313 C1321 0.930 . S
H1314 C1322 0.930 . S
H1315 C1323 0.930 . S
H1316 C1326 0.930 . S
H1317 C1327 0.930 . S
C1318 H1312 0.930 . S
C1318 C1319 1.355 . S
C1318 C1320 1.415 . S
C1319 C1318 1.355 . S
C1319 C1321 1.419 . S
C1320 C1318 1.415 . S
C1320 C1325 1.425 . S
C1320 C1327 1.409 . S
C1321 H1313 0.930 . S
C1321 C1319 1.419 . S
C1321 C1322 1.362 . S
C1322 H1314 0.930 . S
C1322 C1321 1.362 . S
C1322 C1325 1.409 . S
C1323 H1315 0.930 . S
C1323 C1324 1.355 . S
C1323 C1325 1.415 . S
C1324 C1323 1.355 . S
C1324 C1326 1.419 . S
C1325 C1320 1.425 . S
C1325 C1322 1.409 . S
C1325 C1323 1.415 . S
C1326 H1316 0.930 . S
C1326 C1324 1.419 . S
C1326 C1327 1.362 . S
C1327 H1317 0.930 . S
C1327 C1320 1.409 . S
C1327 C1326 1.362 . S
H1328 C1334 0.930 . S
H1329 C1337 0.930 . S
H1330 C1338 0.930 . S
H1331 C1339 0.930 . S
H1332 C1342 0.930 1_556 S
H1333 C1343 0.930 . S
C1334 H1328 0.930 . S
C1334 C1335 1.355 . S
C1334 C1336 1.415 . S
C1335 C1334 1.355 . S
C1335 C1337 1.419 1_565 S
C1336 C1334 1.415 . S
C1336 C1341 1.425 1_565 S
C1336 C1343 1.409 . S
C1337 H1329 0.930 . S
C1337 C1335 1.419 1_545 S
C1337 C1338 1.362 . S
C1338 H1330 0.930 . S
C1338 C1337 1.362 . S
C1338 C1341 1.409 . S
C1339 H1331 0.930 . S
C1339 C1340 1.341 1_554 S
C1339 C1341 1.415 . S
C1340 C1339 1.341 1_556 S
C1340 C1342 1.419 1_546 S
C1341 C1336 1.425 1_545 S
C1341 C1338 1.409 . S
C1341 C1339 1.415 . S
C1342 H1332 0.930 1_554 S
C1342 C1340 1.419 1_564 S
C1342 C1343 1.363 . S
C1343 H1333 0.930 . S
C1343 C1336 1.409 . S
C1343 C1342 1.363 . S
H1344 C1350 0.930 . S
H1345 C1353 0.930 . S
H1346 C1354 0.930 . S
H1347 C1355 0.930 . S
H1348 C1358 0.930 . S
H1349 C1359 0.930 . S
C1350 H1344 0.930 . S
C1350 C1351 1.355 . S
C1350 C1352 1.415 . S
C1351 C1350 1.355 . S
C1351 C1353 1.419 . S
C1352 C1350 1.415 . S
C1352 C1357 1.425 . S
C1352 C1359 1.409 . S
C1353 H1345 0.930 . S
C1353 C1351 1.419 . S
C1353 C1354 1.362 . S
C1354 H1346 0.930 . S
C1354 C1353 1.362 . S
C1354 C1357 1.409 . S
C1355 H1347 0.930 . S
C1355 C1356 1.355 . S
C1355 C1357 1.415 . S
C1356 C1355 1.355 . S
C1356 C1358 1.419 . S
C1357 C1352 1.425 . S
C1357 C1354 1.409 . S
C1357 C1355 1.415 . S
C1358 H1348 0.930 . S
C1358 C1356 1.419 . S
C1358 C1359 1.362 . S
C1359 H1349 0.930 . S
C1359 C1352 1.409 . S
C1359 C1358 1.362 . S
H1360 C1366 0.930 . S
H1361 C1369 0.930 . S
H1362 C1370 0.930 . S
H1363 C1371 0.930 . S
H1364 C1374 0.930 . S
H1365 C1375 0.930 . S
C1366 H1360 0.930 . S
C1366 C1367 1.355 . S
C1366 C1368 1.415 . S
C1367 C1366 1.355 . S
C1367 C1369 1.419 . S
C1368 C1366 1.415 . S
C1368 C1373 1.425 . S
C1368 C1375 1.409 . S
C1369 H1361 0.930 . S
C1369 C1367 1.419 . S
C1369 C1370 1.362 . S
C1370 H1362 0.930 . S
C1370 C1369 1.362 . S
C1370 C1373 1.409 . S
C1371 H1363 0.930 . S
C1371 C1372 1.355 . S
C1371 C1373 1.415 . S
C1372 C1371 1.355 . S
C1372 C1374 1.419 . S
C1373 C1368 1.425 . S
C1373 C1370 1.409 . S
C1373 C1371 1.415 . S
C1374 H1364 0.930 . S
C1374 C1372 1.419 . S
C1374 C1375 1.362 . S
C1375 H1365 0.930 . S
C1375 C1368 1.409 . S
C1375 C1374 1.362 . S
H1376 C1382 0.930 . S
H1377 C1385 0.930 . S
H1378 C1386 0.930 . S
H1379 C1387 0.930 . S
H1380 C1390 0.930 . S
H1381 C1391 0.930 . S
C1382 H1376 0.930 . S
C1382 C1383 1.355 . S
C1382 C1384 1.415 . S
C1383 C1382 1.355 . S
C1383 C1385 1.419 . S
C1384 C1382 1.415 . S
C1384 C1389 1.425 . S
C1384 C1391 1.409 . S
C1385 H1377 0.930 . S
C1385 C1383 1.419 . S
C1385 C1386 1.362 . S
C1386 H1378 0.930 . S
C1386 C1385 1.362 . S
C1386 C1389 1.409 . S
C1387 H1379 0.930 . S
C1387 C1388 1.355 . S
C1387 C1389 1.415 . S
C1388 C1387 1.355 . S
C1388 C1390 1.419 . S
C1389 C1384 1.425 . S
C1389 C1386 1.409 . S
C1389 C1387 1.415 . S
C1390 H1380 0.930 . S
C1390 C1388 1.419 . S
C1390 C1391 1.362 . S
C1391 H1381 0.930 . S
C1391 C1384 1.409 . S
C1391 C1390 1.362 . S
H1392 C1398 0.930 . S
H1393 C1401 0.930 . S
H1394 C1402 0.930 . S
H1395 C1403 0.930 . S
H1396 C1406 0.930 . S
H1397 C1407 0.930 . S
C1398 H1392 0.930 . S
C1398 C1399 1.355 . S
C1398 C1400 1.415 . S
C1399 C1398 1.355 . S
C1399 C1401 1.419 . S
C1400 C1398 1.415 . S
C1400 C1405 1.425 . S
C1400 C1407 1.409 . S
C1401 H1393 0.930 . S
C1401 C1399 1.419 . S
C1401 C1402 1.362 . S
C1402 H1394 0.930 . S
C1402 C1401 1.362 . S
C1402 C1405 1.409 . S
C1403 H1395 0.930 . S
C1403 C1404 1.355 . S
C1403 C1405 1.415 . S
C1404 C1403 1.355 . S
C1404 C1406 1.419 . S
C1405 C1400 1.425 . S
C1405 C1402 1.409 . S
C1405 C1403 1.415 . S
C1406 H1396 0.930 . S
C1406 C1404 1.419 . S
C1406 C1407 1.362 . S
C1407 H1397 0.930 . S
C1407 C1400 1.409 . S
C1407 C1406 1.362 . S
H1408 C1414 0.930 . S
H1409 C1417 0.930 . S
H1410 C1418 0.930 . S
H1411 C1419 0.930 . S
H1412 C1422 0.930 . S
H1413 C1423 0.930 . S
C1414 H1408 0.930 . S
C1414 C1415 1.355 . S
C1414 C1416 1.415 . S
C1415 C1414 1.355 . S
C1415 C1417 1.419 . S
C1416 C1414 1.415 . S
C1416 C1421 1.425 . S
C1416 C1423 1.409 . S
C1417 H1409 0.930 . S
C1417 C1415 1.419 . S
C1417 C1418 1.362 . S
C1418 H1410 0.930 . S
C1418 C1417 1.362 . S
C1418 C1421 1.409 . S
C1419 H1411 0.930 . S
C1419 C1420 1.355 . S
C1419 C1421 1.415 . S
C1420 C1419 1.355 . S
C1420 C1422 1.419 . S
C1421 C1416 1.425 . S
C1421 C1418 1.409 . S
C1421 C1419 1.415 . S
C1422 H1412 0.930 . S
C1422 C1420 1.419 . S
C1422 C1423 1.362 . S
C1423 H1413 0.930 . S
C1423 C1416 1.409 . S
C1423 C1422 1.362 . S
H1424 C1430 0.930 . S
H1425 C1433 0.930 . S
H1426 C1434 0.930 . S
H1427 C1435 0.930 . S
H1428 C1438 0.930 . S
H1429 C1439 0.930 . S
C1430 H1424 0.930 . S
C1430 C1431 1.355 . S
C1430 C1432 1.415 . S
C1431 C1430 1.355 . S
C1431 C1433 1.419 . S
C1432 C1430 1.415 . S
C1432 C1437 1.425 . S
C1432 C1439 1.409 . S
C1433 H1425 0.930 . S
C1433 C1431 1.419 . S
C1433 C1434 1.362 . S
C1434 H1426 0.930 . S
C1434 C1433 1.362 . S
C1434 C1437 1.409 . S
C1435 H1427 0.930 . S
C1435 C1436 1.355 . S
C1435 C1437 1.415 . S
C1436 C1435 1.355 . S
C1436 C1438 1.419 . S
C1437 C1432 1.425 . S
C1437 C1434 1.409 . S
C1437 C1435 1.415 . S
C1438 H1428 0.930 . S
C1438 C1436 1.419 . S
C1438 C1439 1.362 . S
C1439 H1429 0.930 . S
C1439 C1432 1.409 . S
C1439 C1438 1.362 . S
H1440 C1446 0.930 . S
H1441 C1449 0.930 . S
H1442 C1450 0.930 . S
H1443 C1451 0.930 . S
H1444 C1454 0.930 . S
H1445 C1455 0.930 . S
C1446 H1440 0.930 . S
C1446 C1447 1.355 . S
C1446 C1448 1.415 . S
C1447 C1446 1.355 . S
C1447 C1449 1.419 . S
C1448 C1446 1.415 . S
C1448 C1453 1.425 . S
C1448 C1455 1.409 . S
C1449 H1441 0.930 . S
C1449 C1447 1.419 . S
C1449 C1450 1.362 . S
C1450 H1442 0.930 . S
C1450 C1449 1.362 . S
C1450 C1453 1.409 . S
C1451 H1443 0.930 . S
C1451 C1452 1.355 . S
C1451 C1453 1.415 . S
C1452 C1451 1.355 . S
C1452 C1454 1.419 . S
C1453 C1448 1.425 . S
C1453 C1450 1.409 . S
C1453 C1451 1.415 . S
C1454 H1444 0.930 . S
C1454 C1452 1.419 . S
C1454 C1455 1.362 . S
C1455 H1445 0.930 . S
C1455 C1448 1.409 . S
C1455 C1454 1.362 . S
H1456 C1462 0.930 . S
H1457 C1465 0.930 . S
H1458 C1466 0.930 . S
H1459 C1467 0.930 . S
H1460 C1470 0.930 . S
H1461 C1471 0.930 . S
C1462 H1456 0.930 . S
C1462 C1463 1.355 . S
C1462 C1464 1.415 . S
C1463 C1462 1.355 . S
C1463 C1465 1.419 . S
C1464 C1462 1.415 . S
C1464 C1469 1.425 . S
C1464 C1471 1.409 . S
C1465 H1457 0.930 . S
C1465 C1463 1.419 . S
C1465 C1466 1.362 . S
C1466 H1458 0.930 . S
C1466 C1465 1.362 . S
C1466 C1469 1.409 . S
C1467 H1459 0.930 . S
C1467 C1468 1.355 . S
C1467 C1469 1.415 . S
C1468 C1467 1.355 . S
C1468 C1470 1.419 . S
C1469 C1464 1.425 . S
C1469 C1466 1.409 . S
C1469 C1467 1.415 . S
C1470 H1460 0.930 . S
C1470 C1468 1.419 . S
C1470 C1471 1.362 . S
C1471 H1461 0.930 . S
C1471 C1464 1.409 . S
C1471 C1470 1.362 . S
C455 C104 1.471 . S
C460 C6 1.516 . S
C471 C20 1.497 . S
C476 C62 1.466 . S
C487 C76 1.496 . S
C492 C34 1.534 . S
C503 C48 1.494 . S
C508 C90 1.466 . S
C519 C118 1.483 . S
C524 C216 1.469 . S
C535 C132 1.532 . S
C540 C174 1.490 . S
C551 C146 1.505 . S
C556 C188 1.534 . S
C567 C160 1.506 . S
C572 C202 1.467 . S
C583 C230 1.497 . S
C588 C328 1.534 . S
C599 C244 1.481 . S
C604 C286 1.470 . S
C615 C300 1.501 . S
C620 C258 1.534 . S
C631 C314 1.534 . S
C636 C272 1.508 . S
C647 C342 1.466 . S
C652 C440 1.496 . S
C663 C398 1.481 . S
C668 C356 1.526 . S
C679 C412 1.467 . S
C684 C370 1.508 . S
C695 C384 1.469 . S
C700 C426 1.512 . S
C711 C8 1.002 . S
C716 C92 1.005 . S
C727 C22 1.071 . S
C732 C106 1.070 . S
C743 C64 1.021 . S
C748 C36 1.026 . S
C759 C50 1.002 . S
C764 C78 0.999 . S
C775 C120 0.994 . S
C780 C204 0.994 . S
C791 C134 1.047 1_554 S
C796 C218 1.051 . S
C807 C176 1.066 . S
C812 C148 1.063 . S
C823 C190 1.075 . S
C828 C162 1.076 . S
C839 C232 0.997 . S
C844 C316 0.999 . S
C855 C330 1.044 . S
C860 C246 1.049 . S
C871 C288 1.011 . S
C876 C260 1.015 . S
C887 C274 1.075 . S
C892 C302 1.083 . S
C903 C344 1.015 . S
C908 C428 1.019 . S
C919 C358 1.008 . S
C924 C442 1.011 . S
C935 C400 1.076 . S
C940 C372 1.077 . S
C951 C414 1.039 . S
C956 C386 1.044 1_554 S
C967 C9 1.566 . S
C972 C429 1.523 . S
C983 C23 1.537 . S
C988 C219 1.552 . S
C999 C37 1.564 . S
C1004 C401 1.525 . S
C1015 C51 1.553 . S
C1020 C191 1.536 . S
C1031 C65 1.566 . S
C1036 C373 1.523 . S
C1047 C79 1.544 . S
C1052 C163 1.545 . S
C1063 C93 1.526 . S
C1068 C345 1.562 . S
C1079 C135 1.566 . S
C1084 C107 1.523 . S
C1095 C317 1.561 . S
C1100 C121 1.527 . S
C1111 C149 1.560 . S
C1116 C289 1.529 . S
C1127 C261 1.522 . S
C1132 C177 1.567 . S
C1143 C233 1.543 . S
C1148 C205 1.546 . S
C1159 C247 1.562 . S
C1164 C443 1.527 . S
C1175 C275 1.566 . S
C1180 C415 1.522 . S
C1191 C303 1.527 . S
C1196 C387 1.561 . S
C1207 C359 1.523 . S
C1212 C331 1.566 . S
C1223 C7 1.529 . S
C1228 C91 1.546 . S
C1239 C21 1.530 . S
C1244 C105 1.547 . S
C1255 C63 1.495 . S
C1260 C35 1.496 . S
C1271 C49 1.524 1_554 S
C1276 C77 1.544 . S
C1287 C119 1.506 . S
C1292 C203 1.494 . S
C1303 C133 1.550 . S
C1308 C217 1.546 . S
C1319 C175 1.495 . S
C1324 C147 1.495 . S
C1335 C161 1.510 . S
C1340 C189 1.511 . S
C1351 C315 1.501 . S
C1356 C231 1.493 . S
C1367 C329 1.538 . S
C1372 C245 1.518 1_554 S
C1383 C287 1.547 . S
C1388 C259 1.531 . S
C1399 C301 1.528 . S
C1404 C273 1.507 . S
C1415 C427 1.550 . S
C1420 C343 1.538 . S
C1431 C441 1.550 1_554 S
C1436 C357 1.545 . S
C1447 C371 1.500 . S
C1452 C399 1.493 . S
C1463 C413 1.507 . S
C1468 C385 1.494 . S
