# Generated by pormake.
# Topology lcy-a, (4)-cn, num edge types: 1
# Building blocks:
#     Node 0, Type 0, BuildingBlock: NAHDIM_clean_sbu_0, # of connection points: 4
#     Node 1, Type 0, BuildingBlock: NAHDIM_clean_sbu_0, # of connection points: 4
#     Node 2, Type 0, BuildingBlock: NAHDIM_clean_sbu_0, # of connection points: 4
#     Node 3, Type 0, BuildingBlock: NAHDIM_clean_sbu_0, # of connection points: 4
#     Node 4, Type 0, BuildingBlock: NAHDIM_clean_sbu_0, # of connection points: 4
#     Node 5, Type 0, BuildingBlock: NAHDIM_clean_sbu_0, # of connection points: 4
#     Node 6, Type 0, BuildingBlock: NAHDIM_clean_sbu_0, # of connection points: 4
#     Node 7, Type 0, BuildingBlock: NAHDIM_clean_sbu_0, # of connection points: 4
#     Node 8, Type 0, BuildingBlock: NAHDIM_clean_sbu_0, # of connection points: 4
#     Node 9, Type 0, BuildingBlock: NAHDIM_clean_sbu_0, # of connection points: 4
#     Node 10, Type 0, BuildingBlock: NAHDIM_clean_sbu_0, # of connection points: 4
#     Node 11, Type 0, BuildingBlock: NAHDIM_clean_sbu_0, # of connection points: 4
#     Node 12, Type 0, BuildingBlock: NAHDIM_clean_sbu_0, # of connection points: 4
#     Node 13, Type 0, BuildingBlock: NAHDIM_clean_sbu_0, # of connection points: 4
#     Node 14, Type 0, BuildingBlock: NAHDIM_clean_sbu_0, # of connection points: 4
#     Node 15, Type 0, BuildingBlock: NAHDIM_clean_sbu_0, # of connection points: 4
#     Node 16, Type 0, BuildingBlock: NAHDIM_clean_sbu_0, # of connection points: 4
#     Node 17, Type 0, BuildingBlock: NAHDIM_clean_sbu_0, # of connection points: 4
#     Node 18, Type 0, BuildingBlock: NAHDIM_clean_sbu_0, # of connection points: 4
#     Node 19, Type 0, BuildingBlock: NAHDIM_clean_sbu_0, # of connection points: 4
#     Node 20, Type 0, BuildingBlock: NAHDIM_clean_sbu_0, # of connection points: 4
#     Node 21, Type 0, BuildingBlock: NAHDIM_clean_sbu_0, # of connection points: 4
#     Node 22, Type 0, BuildingBlock: NAHDIM_clean_sbu_0, # of connection points: 4
#     Node 23, Type 0, BuildingBlock: NAHDIM_clean_sbu_0, # of connection points: 4
#     Edge 24, Type (0, 0), BuildingBlock: XIVTED_clean_linker_0, # of connection points: 2
#     Edge 25, Type (0, 0), BuildingBlock: XIVTED_clean_linker_0, # of connection points: 2
#     Edge 26, Type (0, 0), BuildingBlock: XIVTED_clean_linker_0, # of connection points: 2
#     Edge 27, Type (0, 0), BuildingBlock: XIVTED_clean_linker_0, # of connection points: 2
#     Edge 28, Type (0, 0), BuildingBlock: XIVTED_clean_linker_0, # of connection points: 2
#     Edge 29, Type (0, 0), BuildingBlock: XIVTED_clean_linker_0, # of connection points: 2
#     Edge 30, Type (0, 0), BuildingBlock: XIVTED_clean_linker_0, # of connection points: 2
#     Edge 31, Type (0, 0), BuildingBlock: XIVTED_clean_linker_0, # of connection points: 2
#     Edge 32, Type (0, 0), BuildingBlock: XIVTED_clean_linker_0, # of connection points: 2
#     Edge 33, Type (0, 0), BuildingBlock: XIVTED_clean_linker_0, # of connection points: 2
#     Edge 34, Type (0, 0), BuildingBlock: XIVTED_clean_linker_0, # of connection points: 2
#     Edge 35, Type (0, 0), BuildingBlock: XIVTED_clean_linker_0, # of connection points: 2
#     Edge 36, Type (0, 0), BuildingBlock: XIVTED_clean_linker_0, # of connection points: 2
#     Edge 37, Type (0, 0), BuildingBlock: XIVTED_clean_linker_0, # of connection points: 2
#     Edge 38, Type (0, 0), BuildingBlock: XIVTED_clean_linker_0, # of connection points: 2
#     Edge 39, Type (0, 0), BuildingBlock: XIVTED_clean_linker_0, # of connection points: 2
#     Edge 40, Type (0, 0), BuildingBlock: XIVTED_clean_linker_0, # of connection points: 2
#     Edge 41, Type (0, 0), BuildingBlock: XIVTED_clean_linker_0, # of connection points: 2
#     Edge 42, Type (0, 0), BuildingBlock: XIVTED_clean_linker_0, # of connection points: 2
#     Edge 43, Type (0, 0), BuildingBlock: XIVTED_clean_linker_0, # of connection points: 2
#     Edge 44, Type (0, 0), BuildingBlock: XIVTED_clean_linker_0, # of connection points: 2
#     Edge 45, Type (0, 0), BuildingBlock: XIVTED_clean_linker_0, # of connection points: 2
#     Edge 46, Type (0, 0), BuildingBlock: XIVTED_clean_linker_0, # of connection points: 2
#     Edge 47, Type (0, 0), BuildingBlock: XIVTED_clean_linker_0, # of connection points: 2
#     Edge 48, Type (0, 0), BuildingBlock: XIVTED_clean_linker_0, # of connection points: 2
#     Edge 49, Type (0, 0), BuildingBlock: XIVTED_clean_linker_0, # of connection points: 2
#     Edge 50, Type (0, 0), BuildingBlock: XIVTED_clean_linker_0, # of connection points: 2
#     Edge 51, Type (0, 0), BuildingBlock: XIVTED_clean_linker_0, # of connection points: 2
#     Edge 52, Type (0, 0), BuildingBlock: XIVTED_clean_linker_0, # of connection points: 2
#     Edge 53, Type (0, 0), BuildingBlock: XIVTED_clean_linker_0, # of connection points: 2
#     Edge 54, Type (0, 0), BuildingBlock: XIVTED_clean_linker_0, # of connection points: 2
#     Edge 55, Type (0, 0), BuildingBlock: XIVTED_clean_linker_0, # of connection points: 2
#     Edge 56, Type (0, 0), BuildingBlock: XIVTED_clean_linker_0, # of connection points: 2
#     Edge 57, Type (0, 0), BuildingBlock: XIVTED_clean_linker_0, # of connection points: 2
#     Edge 58, Type (0, 0), BuildingBlock: XIVTED_clean_linker_0, # of connection points: 2
#     Edge 59, Type (0, 0), BuildingBlock: XIVTED_clean_linker_0, # of connection points: 2
#     Edge 60, Type (0, 0), BuildingBlock: XIVTED_clean_linker_0, # of connection points: 2
#     Edge 61, Type (0, 0), BuildingBlock: XIVTED_clean_linker_0, # of connection points: 2
#     Edge 62, Type (0, 0), BuildingBlock: XIVTED_clean_linker_0, # of connection points: 2
#     Edge 63, Type (0, 0), BuildingBlock: XIVTED_clean_linker_0, # of connection points: 2
#     Edge 64, Type (0, 0), BuildingBlock: XIVTED_clean_linker_0, # of connection points: 2
#     Edge 65, Type (0, 0), BuildingBlock: XIVTED_clean_linker_0, # of connection points: 2
#     Edge 66, Type (0, 0), BuildingBlock: XIVTED_clean_linker_0, # of connection points: 2
#     Edge 67, Type (0, 0), BuildingBlock: XIVTED_clean_linker_0, # of connection points: 2
#     Edge 68, Type (0, 0), BuildingBlock: XIVTED_clean_linker_0, # of connection points: 2
#     Edge 69, Type (0, 0), BuildingBlock: XIVTED_clean_linker_0, # of connection points: 2
#     Edge 70, Type (0, 0), BuildingBlock: XIVTED_clean_linker_0, # of connection points: 2
#     Edge 71, Type (0, 0), BuildingBlock: XIVTED_clean_linker_0, # of connection points: 2
# Relax obj value: 0.396
# Max RMSD: 0.213
# Mean RMSD: 0.213
data_MOF--net-lcy-a--node1-NAHDIM_clean_sbu_0--edge1-XIVTED_clean_linker_0
_symmetry_space_group_name_H-M    P1
_symmetry_Int_Tables_number       1
_symmetry_cell_setting            triclinic
loop_
_symmetry_equiv_pos_as_xyz
'x, y, z'
_cell_length_a     56.387738
_cell_length_b     56.407922
_cell_length_c     56.424926
_cell_angle_alpha  89.938727
_cell_angle_beta   90.05993
_cell_angle_gamma 89.914824
loop_
_atom_site_label
_atom_site_type_symbol
_atom_site_fract_x
_atom_site_fract_y
_atom_site_fract_z
_atom_type_partial_charge
C0 C 0.15907 0.25652 0.40433 0.0
O1 O 0.1706 0.24732 0.38633 0.0
O2 O 0.2159 0.26946 0.38883 0.0
Zn3 Zn 0.19142 0.2942 0.39634 0.0
O4 O 0.20537 0.31595 0.42061 0.0
C5 C 0.18273 0.30118 0.34707 0.0
O6 O 0.18234 0.27791 0.34754 0.0
O7 O 0.16359 0.27765 0.4106 0.0
C8 C 0.22476 0.32627 0.41577 0.0
O9 O 0.23444 0.32293 0.39486 0.0
C10 C 0.22648 0.25817 0.40523 0.0
O11 O 0.22164 0.26314 0.42745 0.0
O12 O 0.18455 0.3124 0.36649 0.0
C13 C 0.93085 0.8899 0.66489 0.0
O14 O 0.91178 0.90048 0.67307 0.0
O15 O 0.94889 0.93648 0.60847 0.0
Zn16 Zn 0.92228 0.91983 0.62502 0.0
O17 O 0.90721 0.94252 0.64786 0.0
C18 C 0.90271 0.90723 0.57971 0.0
O19 O 0.92512 0.90476 0.57384 0.0
O20 O 0.93685 0.89325 0.64346 0.0
C21 C 0.89316 0.95883 0.64117 0.0
O22 O 0.88894 0.96168 0.61844 0.0
C23 C 0.96658 0.9437 0.6204 0.0
O24 O 0.96682 0.94054 0.64348 0.0
O25 O 0.89747 0.91086 0.60128 0.0
C26 C 0.30905 0.73208 0.9395 0.0
O27 O 0.28936 0.72304 0.94798 0.0
O28 O 0.26795 0.73972 0.88647 0.0
Zn29 Zn 0.29034 0.71381 0.89637 0.0
O30 O 0.27175 0.68835 0.91304 0.0
C31 C 0.30936 0.67987 0.86187 0.0
O32 O 0.30672 0.66397 0.87866 0.0
O33 O 0.31413 0.72903 0.91778 0.0
C34 C 0.28093 0.67332 0.92712 0.0
O35 O 0.30391 0.6738 0.93103 0.0
C36 C 0.25204 0.7481 0.90002 0.0
O37 O 0.24939 0.73921 0.92137 0.0
O38 O 0.30478 0.70148 0.86629 0.0
C39 C 0.5243 0.1016 0.17269 0.0
O40 O 0.51023 0.09894 0.15431 0.0
O41 O 0.52187 0.05415 0.13367 0.0
Zn42 Zn 0.55175 0.0666 0.14849 0.0
O43 O 0.56642 0.03912 0.16551 0.0
C44 C 0.56869 0.08048 0.10237 0.0
O45 O 0.54596 0.08227 0.09755 0.0
O46 O 0.54425 0.09116 0.17289 0.0
C47 C 0.58638 0.04147 0.17564 0.0
O48 O 0.59706 0.06215 0.17495 0.0
C49 C 0.50681 0.04406 0.14702 0.0
O50 O 0.51092 0.04302 0.16992 0.0
O51 O 0.57506 0.07645 0.12359 0.0
C52 C 0.65525 0.27676 0.5975 0.0
O53 O 0.66491 0.28431 0.6173 0.0
O54 O 0.70373 0.25145 0.6262 0.0
Zn55 Zn 0.67724 0.23312 0.61113 0.0
O56 O 0.6929 0.21017 0.58913 0.0
C57 C 0.66136 0.21912 0.65743 0.0
O58 O 0.66956 0.24008 0.66336 0.0
O59 O 0.65678 0.25495 0.59216 0.0
C60 C 0.70888 0.19701 0.59809 0.0
O61 O 0.71369 0.19892 0.6208 0.0
C62 C 0.71865 0.26174 0.61285 0.0
O63 O 0.71551 0.26109 0.58977 0.0
O64 O 0.66048 0.21359 0.63563 0.0
C65 C 0.05753 0.42186 0.76663 0.0
O66 O 0.05431 0.44247 0.75624 0.0
O67 O 0.04507 0.46734 0.81235 0.0
Zn68 Zn 0.07554 0.45189 0.80214 0.0
O69 O 0.093 0.47333 0.77998 0.0
C70 C 0.08535 0.43984 0.85016 0.0
O71 O 0.06273 0.43429 0.84966 0.0
O72 O 0.06763 0.42117 0.78673 0.0
C73 C 0.09784 0.49405 0.78728 0.0
O74 O 0.09129 0.5003 0.80873 0.0
C75 C 0.03329 0.48219 0.80012 0.0
O76 O 0.04093 0.48832 0.77901 0.0
O77 O 0.09527 0.44693 0.83124 0.0
C78 C 0.84363 0.75295 0.06993 0.0
O79 O 0.83068 0.76904 0.05913 0.0
O80 O 0.79286 0.74228 0.11924 0.0
Zn81 Zn 0.81607 0.76733 0.10977 0.0
O82 O 0.79869 0.79016 0.08863 0.0
C83 C 0.83124 0.80606 0.13928 0.0
O84 O 0.8326 0.81737 0.11896 0.0
O85 O 0.84192 0.75058 0.09225 0.0
C86 C 0.7808 0.80149 0.09629 0.0
O87 O 0.77422 0.79865 0.11845 0.0
C88 C 0.78137 0.73126 0.10332 0.0
O89 O 0.78496 0.73659 0.08094 0.0
O90 O 0.82656 0.78404 0.13924 0.0
C91 C 0.44158 0.61031 0.31666 0.0
O92 O 0.45024 0.60818 0.33818 0.0
O93 O 0.44168 0.55952 0.34921 0.0
Zn94 Zn 0.41279 0.57294 0.33316 0.0
O95 O 0.39816 0.54678 0.31424 0.0
C96 C 0.39796 0.59151 0.37767 0.0
O97 O 0.42055 0.59697 0.37907 0.0
O98 O 0.42336 0.59841 0.31101 0.0
C99 C 0.39481 0.52679 0.32407 0.0
O100 O 0.40042 0.5241 0.34652 0.0
C101 C 0.458 0.54942 0.33743 0.0
O102 O 0.45588 0.54763 0.31431 0.0
O103 O 0.38998 0.58312 0.35836 0.0
C104 C 0.45318 0.15907 0.32352 0.0
O105 O 0.46516 0.17561 0.33467 0.0
O106 O 0.40154 0.20404 0.31026 0.0
Zn107 Zn 0.41394 0.18683 0.33884 0.0
O108 O 0.43622 0.20851 0.35617 0.0
C109 C 0.36698 0.1725 0.34867 0.0
O110 O 0.3681 0.16695 0.32608 0.0
O111 O 0.43074 0.15859 0.32552 0.0
C112 C 0.43132 0.23045 0.35737 0.0
O113 O 0.41129 0.23816 0.34824 0.0
C114 C 0.41512 0.21319 0.29482 0.0
O115 O 0.43821 0.21221 0.29785 0.0
O116 O 0.38571 0.17944 0.35906 0.0
C117 C 0.08537 0.14827 0.52326 0.0
O118 O 0.07791 0.15668 0.54363 0.0
O119 O 0.02717 0.10313 0.51049 0.0
Zn120 Zn 0.05227 0.11164 0.53404 0.0
O121 O 0.03737 0.1338 0.55742 0.0
C122 C 0.06216 0.06261 0.53915 0.0
O123 O 0.06036 0.06357 0.51595 0.0
O124 O 0.07822 0.12806 0.51642 0.0
C125 C 0.01908 0.12769 0.569 0.0
O126 O 0.01028 0.10635 0.56594 0.0
C127 C 0.01481 0.11898 0.50029 0.0
O128 O 0.01885 0.14141 0.50505 0.0
O129 O 0.06184 0.08185 0.55081 0.0
C130 C 0.0594 0.84963 0.77974 0.0
O131 O 0.08074 0.84585 0.77122 0.0
O132 O 0.09072 0.79891 0.78718 0.0
Zn133 Zn 0.07588 0.81695 0.81405 0.0
O134 O 0.05668 0.79429 0.83346 0.0
C135 C 0.12198 0.83444 0.82513 0.0
O136 O 0.12344 0.83563 0.80193 0.0
O137 O 0.05405 0.84107 0.79986 0.0
C138 C 0.06494 0.77386 0.83818 0.0
O139 O 0.08604 0.76799 0.83024 0.0
C140 C 0.07846 0.78826 0.7716 0.0
O141 O 0.05522 0.78824 0.77335 0.0
O142 O 0.10212 0.82947 0.83449 0.0
C143 C 0.39386 0.85506 0.03399 0.0
O144 O 0.40504 0.87203 0.02262 0.0
O145 O 0.4507 0.87344 0.04297 0.0
Zn146 Zn 0.42732 0.86743 0.06913 0.0
O147 O 0.44417 0.8457 0.09163 0.0
C148 C 0.4185 0.91705 0.07278 0.0
O149 O 0.4194 0.91542 0.04957 0.0
O150 O 0.39921 0.85086 0.05545 0.0
C151 C 0.46478 0.85194 0.09825 0.0
O152 O 0.47279 0.87286 0.09188 0.0
C153 C 0.46074 0.85591 0.03301 0.0
O154 O 0.45499 0.8343 0.03954 0.0
O155 O 0.41984 0.89823 0.0851 0.0
C156 C 0.9548 0.28417 0.72935 0.0
O157 O 0.96047 0.26213 0.73433 0.0
O158 O 0.90431 0.24457 0.74481 0.0
Zn159 Zn 0.91202 0.26206 0.71483 0.0
O160 O 0.92671 0.23941 0.69156 0.0
C161 C 0.8785 0.28176 0.68076 0.0
O162 O 0.89696 0.28311 0.66664 0.0
O163 O 0.93434 0.28874 0.7211 0.0
C164 C 0.94187 0.24627 0.6764 0.0
O165 O 0.94784 0.26876 0.67561 0.0
C166 C 0.91515 0.22591 0.75135 0.0
O167 O 0.93328 0.21831 0.73887 0.0
O168 O 0.8812 0.27405 0.70174 0.0
C169 C 0.91477 0.62048 0.97684 0.0
O170 O 0.92333 0.60176 0.98778 0.0
O171 O 0.9698 0.59507 0.96961 0.0
Zn172 Zn 0.95104 0.6096 0.94307 0.0
O173 O 0.97165 0.63399 0.92706 0.0
C174 C 0.94064 0.58941 0.89767 0.0
O175 O 0.93959 0.61182 0.89137 0.0
O176 O 0.92245 0.62571 0.95636 0.0
C177 C 0.96776 0.65611 0.92894 0.0
O178 O 0.94991 0.66352 0.94191 0.0
C179 C 0.98019 0.60789 0.98493 0.0
O180 O 0.97862 0.63108 0.98333 0.0
O181 O 0.94353 0.58428 0.91941 0.0
C182 C 0.55109 0.65965 0.18742 0.0
O183 O 0.54324 0.67141 0.1689 0.0
O184 O 0.60928 0.70258 0.20616 0.0
Zn185 Zn 0.59351 0.68612 0.17894 0.0
O186 O 0.57333 0.71021 0.16223 0.0
C187 C 0.63669 0.66362 0.16729 0.0
O188 O 0.63575 0.65864 0.19003 0.0
O189 O 0.5728 0.66136 0.19319 0.0
C190 C 0.58008 0.73156 0.15994 0.0
O191 O 0.60133 0.73762 0.16731 0.0
C192 C 0.59688 0.71352 0.22144 0.0
O193 O 0.57368 0.71379 0.21923 0.0
O194 O 0.61904 0.67382 0.15767 0.0
C195 C 0.59419 0.39104 0.47704 0.0
O196 O 0.58451 0.41085 0.48455 0.0
O197 O 0.53541 0.40373 0.46901 0.0
Zn198 Zn 0.55775 0.39522 0.44267 0.0
O199 O 0.54126 0.37004 0.42371 0.0
C200 C 0.56046 0.44442 0.43071 0.0
O201 O 0.55917 0.44668 0.45384 0.0
O202 O 0.58719 0.38223 0.45756 0.0
C203 C 0.5453 0.34799 0.426 0.0
O204 O 0.56205 0.34083 0.44055 0.0
C205 C 0.52805 0.38794 0.48331 0.0
O206 O 0.53536 0.36597 0.48082 0.0
O207 O 0.56226 0.42378 0.4219 0.0
C208 C 0.28406 0.36939 0.14746 0.0
O209 O 0.27512 0.35015 0.15705 0.0
O210 O 0.28607 0.35605 0.20664 0.0
Zn211 Zn 0.31426 0.36666 0.18772 0.0
O212 O 0.32934 0.39356 0.20524 0.0
C213 C 0.32955 0.31855 0.18552 0.0
O214 O 0.30669 0.31512 0.18257 0.0
O215 O 0.30256 0.3785 0.15649 0.0
C216 C 0.33446 0.39083 0.227 0.0
O217 O 0.33034 0.37026 0.23714 0.0
C218 C 0.27155 0.37068 0.21572 0.0
O219 O 0.27497 0.39353 0.21281 0.0
O220 O 0.33736 0.33965 0.1861 0.0
C221 C 0.74763 0.04329 0.80406 0.0
O222 O 0.74075 0.04008 0.78205 0.0
O223 O 0.74128 0.10137 0.77128 0.0
Zn224 Zn 0.76972 0.08373 0.78362 0.0
O225 O 0.78613 0.06586 0.75735 0.0
C226 C 0.81203 0.10323 0.80623 0.0
O227 O 0.81795 0.08101 0.80993 0.0
O228 O 0.76013 0.06127 0.80919 0.0
C229 C 0.79891 0.048 0.76252 0.0
O230 O 0.80045 0.04118 0.78473 0.0
C231 C 0.72873 0.09464 0.75384 0.0
O232 O 0.73394 0.07463 0.74313 0.0
O233 O 0.79239 0.10802 0.79623 0.0
C234 C 0.17259 0.47822 0.06406 0.0
O235 O 0.15392 0.47047 0.0525 0.0
O236 O 0.1479 0.50234 0.01386 0.0
Zn237 Zn 0.16004 0.52157 0.04112 0.0
O238 O 0.18206 0.54596 0.02773 0.0
C239 C 0.11286 0.52655 0.0583 0.0
O240 O 0.11307 0.50349 0.05506 0.0
O241 O 0.17788 0.50009 0.063 0.0
C242 C 0.17383 0.55966 0.01184 0.0
O243 O 0.15145 0.55767 0.00565 0.0
C244 C 0.16193 0.49375 -0.00148 0.0
O245 O 0.18483 0.49752 0.00061 0.0
O246 O 0.13205 0.53801 0.05565 0.0
C247 C 0.70269 0.91963 0.32631 0.0
O248 O 0.68155 0.92514 0.31817 0.0
O249 O 0.72754 0.87131 0.27261 0.0
Zn250 Zn 0.6999 0.88414 0.29071 0.0
O251 O 0.68349 0.90832 0.2704 0.0
C252 C 0.68629 0.83709 0.30313 0.0
O253 O 0.70937 0.83465 0.30528 0.0
O254 O 0.71294 0.9011 0.3187 0.0
C255 C 0.6639 0.90516 0.25975 0.0
O256 O 0.65325 0.88451 0.26126 0.0
C257 C 0.7428 0.88523 0.26366 0.0
O258 O 0.74009 0.90824 0.2661 0.0
O259 O 0.67783 0.85749 0.29864 0.0
C260 C 0.3024 0.48687 0.56954 0.0
O261 O 0.29105 0.47781 0.55136 0.0
O262 O 0.34895 0.49404 0.52357 0.0
Zn263 Zn 0.34218 0.46709 0.54578 0.0
O264 O 0.32389 0.44288 0.52724 0.0
C265 C 0.37841 0.43225 0.55793 0.0
O266 O 0.36099 0.41687 0.55674 0.0
O267 O 0.3242 0.48193 0.57242 0.0
C268 C 0.30918 0.42761 0.53474 0.0
O269 O 0.30448 0.4263 0.5575 0.0
C270 C 0.3334 0.5017 0.50913 0.0
O271 O 0.31261 0.49129 0.50816 0.0
O272 O 0.37388 0.45418 0.55546 0.0
C273 C 0.24402 0.63801 0.63985 0.0
O274 O 0.25896 0.65174 0.65125 0.0
O275 O 0.23984 0.65968 0.6969 0.0
Zn276 Zn 0.21182 0.65358 0.67579 0.0
O277 O 0.1912 0.63036 0.69337 0.0
C278 C 0.17099 0.68252 0.66868 0.0
O279 O 0.16133 0.66183 0.66411 0.0
O280 O 0.22225 0.63844 0.64552 0.0
C281 C 0.18847 0.60899 0.68683 0.0
O282 O 0.19916 0.60144 0.66759 0.0
C283 C 0.2511 0.6423 0.70585 0.0
O284 O 0.24479 0.6206 0.70027 0.0
O285 O 0.19325 0.68362 0.67202 0.0
C286 C 0.68845 0.94879 0.93983 0.0
O287 O 0.69841 0.95106 0.96076 0.0
O288 O 0.64354 0.96659 0.98385 0.0
Zn289 Zn 0.65047 0.93498 0.96902 0.0
O290 O 0.67036 0.91516 0.9911 0.0
C291 C 0.61482 0.89757 0.96462 0.0
O292 O 0.63257 0.88281 0.96782 0.0
O293 O 0.66736 0.94105 0.93852 0.0
C294 C 0.68445 0.89942 0.98325 0.0
O295 O 0.68587 0.89588 0.96028 0.0
C296 C 0.6568 0.97723 -0.0014 0.0
O297 O 0.67683 0.96733 0.00528 0.0
O298 O 0.61885 0.9197 0.96365 0.0
C299 C 0.80148 0.04131 0.40698 0.0
O300 O 0.82452 0.04187 0.40369 0.0
O301 O 0.81741 0.02837 0.47473 0.0
Zn302 Zn 0.81235 0.0576 0.45462 0.0
O303 O 0.79405 0.08108 0.47378 0.0
C304 C 0.86209 0.05886 0.44253 0.0
O305 O 0.85945 0.03575 0.44163 0.0
O306 O 0.79293 0.04849 0.42649 0.0
C307 C 0.80065 0.08537 0.49486 0.0
O308 O 0.81943 0.07444 0.50335 0.0
C309 C 0.81941 0.00755 0.46628 0.0
O310 O 0.81797 0.00431 0.44329 0.0
O311 O 0.84411 0.07183 0.4466 0.0
H312 H 0.098 0.19461 0.52956 0.0
H313 H 0.14809 0.20976 0.39795 0.0
H314 H 0.10105 0.13756 0.47864 0.0
H315 H 0.13895 0.26783 0.44696 0.0
H316 H 0.13063 0.183 0.4271 0.0
H317 H 0.1143 0.22142 0.49982 0.0
C318 C 0.10234 0.18765 0.51221 0.0
C319 C 0.09809 0.16382 0.50655 0.0
C320 C 0.13228 0.20164 0.4314 0.0
C321 C 0.11643 0.19449 0.47234 0.0
C322 C 0.14213 0.21695 0.41472 0.0
C323 C 0.14513 0.24104 0.42009 0.0
C324 C 0.1255 0.21046 0.45365 0.0
C325 C 0.13705 0.24937 0.44208 0.0
C326 C 0.11147 0.20302 0.49518 0.0
C327 C 0.104 0.15581 0.48376 0.0
N328 N 0.12779 0.23406 0.45814 0.0
N329 N 0.1128 0.17115 0.46746 0.0
H330 H 0.97524 0.87304 0.65492 0.0
H331 H 0.01279 0.85808 0.7907 0.0
H332 H 0.92685 0.88484 0.71303 0.0
H333 H 0.06244 0.85969 0.73249 0.0
H334 H 0.98051 0.86581 0.76277 0.0
H335 H 0.00653 0.864 0.68333 0.0
C336 C 0.97106 0.87336 0.67365 0.0
C337 C 0.9484 0.87991 0.6816 0.0
C338 C -0.0015 0.86464 0.75617 0.0
C339 C 0.98432 0.86996 0.71425 0.0
C340 C 0.01696 0.86038 0.77211 0.0
C341 C 0.04036 0.85817 0.76391 0.0
C342 C 0.00348 0.86651 0.73187 0.0
C343 C 0.04469 0.86127 0.73963 0.0
C344 C 0.98903 0.86843 0.68988 0.0
C345 C 0.94408 0.88 0.7061 0.0
N346 N 0.0264 0.86508 0.72444 0.0
N347 N 0.96194 0.87527 0.72159 0.0
H348 H 0.34459 0.76155 0.92491 0.0
H349 H 0.36631 0.81934 0.05188 0.0
H350 H 0.30498 0.74072 0.98699 0.0
H351 H 0.38791 0.85203 0.98611 0.0
H352 H 0.34599 0.78845 0.02925 0.0
H353 H 0.36422 0.79216 0.94826 0.0
C354 C 0.3402 0.76323 0.94352 0.0
C355 C 0.32305 0.74865 0.95402 0.0
C356 C 0.35503 0.80251 0.01983 0.0
C357 C 0.34528 0.78375 0.98073 0.0
C358 C 0.36655 0.82017 0.0327 0.0
C359 C 0.37886 0.83823 0.02084 0.0
C360 C 0.35611 0.80281 0.99498 0.0
C361 C 0.37862 0.83846 -0.00401 0.0
C362 C 0.35126 0.78084 0.95677 0.0
C363 C 0.31803 0.75167 0.97818 0.0
N364 N 0.36762 0.82086 0.98387 0.0
N365 N 0.32909 0.76894 0.99075 0.0
H366 H 0.54905 0.11311 0.21282 0.0
H367 H 0.43164 0.13265 0.28907 0.0
H368 H 0.47833 0.11234 0.18339 0.0
H369 H 0.50044 0.15659 0.3127 0.0
H370 H 0.44963 0.11861 0.25241 0.0
H371 H 0.5324 0.12453 0.25122 0.0
C372 C 0.53007 0.11561 0.21437 0.0
C373 C 0.51505 0.1118 0.19488 0.0
C374 C 0.46081 0.12677 0.26571 0.0
C375 C 0.49594 0.12425 0.23876 0.0
C376 C 0.45061 0.13456 0.28678 0.0
C377 C 0.46453 0.14605 0.30389 0.0
C378 C 0.48512 0.1303 0.2618 0.0
C379 C 0.48902 0.148 0.2999 0.0
C380 C 0.5206 0.122 0.23628 0.0
C381 C 0.49059 0.11521 0.19788 0.0
N382 N 0.49854 0.14034 0.27916 0.0
N383 N 0.48178 0.12104 0.21947 0.0
H384 H 0.63967 0.26753 0.5526 0.0
H385 H 0.60906 0.40216 0.5219 0.0
H386 H 0.65051 0.32492 0.60203 0.0
H387 H 0.61022 0.34579 0.47017 0.0
H388 H 0.62499 0.37469 0.55143 0.0
H389 H 0.62801 0.29623 0.52248 0.0
C390 C 0.63942 0.28617 0.5572 0.0
C391 C 0.64606 0.29384 0.5799 0.0
C392 C 0.62201 0.36843 0.53354 0.0
C393 C 0.63294 0.32685 0.54535 0.0
C394 C 0.61304 0.38413 0.51663 0.0
C395 C 0.60807 0.37621 0.49358 0.0
C396 C 0.62585 0.34463 0.52737 0.0
C397 C 0.61362 0.35266 0.48775 0.0
C398 C 0.63294 0.30258 0.53991 0.0
C399 C 0.6455 0.31823 0.58477 0.0
N400 N 0.62195 0.33764 0.50462 0.0
N401 N 0.63903 0.33389 0.56762 0.0
H402 H -0.00248 0.28201 0.75226 0.0
H403 H 0.02713 0.41859 0.72903 0.0
H404 H 0.95185 0.32982 0.71348 0.0
H405 H 0.06206 0.37625 0.78253 0.0
H406 H 0.00423 0.38386 0.71717 0.0
H407 H 0.02572 0.31441 0.75805 0.0
C408 C 0.99347 0.29929 0.7449 0.0
C409 C 0.97222 0.30332 0.73258 0.0
C410 C 0.01707 0.38215 0.73136 0.0
C411 C 0.00441 0.34028 0.73894 0.0
C412 C 0.03024 0.40192 0.73806 0.0
C413 C 0.04629 0.40036 0.757 0.0
C414 C 0.02008 0.36068 0.74362 0.0
C415 C 0.04966 0.37828 0.76801 0.0
C416 C 0.00956 0.31774 0.7482 0.0
C417 C 0.9679 0.32601 0.72331 0.0
N418 N 0.03651 0.35932 0.76126 0.0
N419 N 0.98385 0.34366 0.72672 0.0
H420 H 0.8497 0.75143 0.02188 0.0
H421 H 0.9029 0.61995 0.02385 0.0
H422 H 0.86509 0.71249 0.08604 0.0
H423 H 0.89579 0.66191 0.96014 0.0
H424 H 0.88605 0.65265 0.04661 0.0
H425 H 0.8652 0.71834 -0.00128 0.0
C426 C 0.85659 0.73605 0.03111 0.0
C427 C 0.85604 0.7347 0.05593 0.0
C428 C 0.88805 0.65463 0.02762 0.0
C429 C 0.8734 0.69663 0.02954 0.0
C430 C 0.89747 0.63589 0.01458 0.0
C431 C 0.90091 0.63826 0.99008 0.0
C432 C 0.88199 0.67586 0.01607 0.0
C433 C 0.89357 0.65935 0.97903 0.0
C434 C 0.86531 0.7171 0.01787 0.0
C435 C 0.86518 0.71431 0.06694 0.0
N436 N 0.88459 0.6774 0.99214 0.0
N437 N 0.87334 0.69601 0.05366 0.0
H438 H 0.50287 0.6549 0.18291 0.0
H439 H 0.48631 0.62825 0.3206 0.0
H440 H 0.56076 0.64247 0.23161 0.0
H441 H 0.4301 0.61669 0.26984 0.0
H442 H 0.51259 0.63947 0.28826 0.0
H443 H 0.47487 0.64468 0.21448 0.0
C444 C 0.50971 0.6497 0.2001 0.0
C445 C 0.53419 0.64965 0.20466 0.0
C446 C 0.49446 0.6346 0.28421 0.0
C447 C 0.50234 0.63857 0.24081 0.0
C448 C 0.47936 0.62843 0.30269 0.0
C449 C 0.45604 0.6213 0.29789 0.0
C450 C 0.48614 0.63382 0.26078 0.0
C451 C 0.44802 0.62192 0.27431 0.0
C452 C 0.49373 0.64402 0.2181 0.0
C453 C 0.54205 0.64282 0.22726 0.0
N454 N 0.46312 0.62794 0.25656 0.0
N455 N 0.52617 0.6378 0.24455 0.0
H456 H 0.29482 0.41248 0.12804 0.0
H457 H 0.16629 0.43059 0.07084 0.0
H458 H 0.24077 0.35831 0.12844 0.0
H459 H 0.21621 0.48727 0.08312 0.0
H460 H 0.19476 0.40253 0.08777 0.0
H461 H 0.26806 0.43839 0.10604 0.0
C462 C 0.27746 0.40588 0.12319 0.0
C463 C 0.26991 0.38329 0.13036 0.0
C464 C 0.19944 0.42112 0.08676 0.0
C465 C 0.23908 0.413 0.10545 0.0
C466 C 0.18318 0.43715 0.0772 0.0
C467 C 0.18885 0.46132 0.07566 0.0
C468 C 0.22156 0.42931 0.09469 0.0
C469 C 0.21102 0.46882 0.08408 0.0
C470 C 0.26212 0.42076 0.11077 0.0
C471 C 0.24726 0.37566 0.12344 0.0
N472 N 0.22658 0.45286 0.09318 0.0
N473 N 0.23253 0.39059 0.11155 0.0
H474 H 0.73138 0.97097 0.93731 0.0
H475 H 0.71613 0.00653 0.801 0.0
H476 H 0.67274 0.94776 0.89389 0.0
H477 H 0.76445 0.04096 0.84936 0.0
H478 H 0.70438 0.97951 0.83283 0.0
H479 H 0.74837 0.99086 0.90291 0.0
C480 C 0.72221 0.96981 0.92048 0.0
C481 C 0.70043 0.958 0.91853 0.0
C482 C 0.71765 0.99291 0.83639 0.0
C483 C 0.71971 0.98082 0.87917 0.0
C484 C 0.72435 0.00832 0.81826 0.0
C485 C 0.74107 0.02618 0.82265 0.0
C486 C 0.72787 0.99531 0.85895 0.0
C487 C 0.75127 0.02763 0.84529 0.0
C488 C 0.73188 0.98125 0.90087 0.0
C489 C 0.68943 0.95692 0.89623 0.0
N490 N 0.74444 0.01244 0.86262 0.0
N491 N 0.6991 0.9684 0.87743 0.0
H492 H 0.74982 0.91796 0.33728 0.0
H493 H 0.75312 0.04137 0.40461 0.0
H494 H 0.68735 0.96163 0.34531 0.0
H495 H 0.81518 0.00798 0.37469 0.0
H496 H 0.72825 0.01193 0.38482 0.0
H497 H 0.77363 0.94952 0.35454 0.0
C498 C 0.74103 0.93408 0.34294 0.0
C499 C 0.71654 0.9372 0.33979 0.0
C500 C 0.74728 0.01127 0.38235 0.0
C501 C 0.74381 0.97349 0.3593 0.0
C502 C 0.76147 0.02809 0.39354 0.0
C503 C 0.78625 0.02699 0.39139 0.0
C504 C 0.75801 0.99306 0.36926 0.0
C505 C 0.79616 0.00949 0.37681 0.0
C506 C 0.75471 0.95219 0.35255 0.0
C507 C 0.70618 0.95851 0.34739 0.0
N508 N 0.78201 0.99297 0.36657 0.0
N509 N 0.7199 0.9759 0.35682 0.0
H510 H 0.29006 0.62399 0.63394 0.0
H511 H 0.25703 0.50397 0.56673 0.0
H512 H 0.21827 0.60542 0.6148 0.0
H513 H 0.32454 0.51675 0.60061 0.0
H514 H 0.24265 0.54186 0.58207 0.0
H515 H 0.3037 0.58633 0.61767 0.0
C516 C 0.2772 0.6122 0.62594 0.0
C517 C 0.25296 0.61779 0.62589 0.0
C518 C 0.26054 0.53625 0.5863 0.0
C519 C 0.26842 0.57449 0.60763 0.0
C520 C 0.26871 0.51455 0.57769 0.0
C521 C 0.29206 0.50723 0.58228 0.0
C522 C 0.27592 0.55077 0.59939 0.0
C523 C 0.30641 0.52167 0.59657 0.0
C524 C 0.28498 0.59057 0.6169 0.0
C525 C 0.23712 0.60177 0.61533 0.0
N526 N 0.29818 0.54287 0.60441 0.0
N527 N 0.24511 0.58075 0.60674 0.0
H528 H 0.31843 0.42325 0.48754 0.0
H529 H 0.21205 0.33331 0.46213 0.0
H530 H 0.27244 0.39656 0.54257 0.0
H531 H 0.26479 0.35295 0.4103 0.0
H532 H 0.2327 0.35746 0.4916 0.0
H533 H 0.29788 0.39854 0.45884 0.0
C534 C 0.30401 0.41215 0.49363 0.0
C535 C 0.29712 0.41201 0.51752 0.0
C536 C 0.23974 0.35646 0.47378 0.0
C537 C 0.27339 0.38363 0.48459 0.0
C538 C 0.22793 0.34275 0.45692 0.0
C539 C 0.2367 0.34114 0.43369 0.0
C540 C 0.26039 0.36874 0.46733 0.0
C541 C 0.25739 0.35367 0.42797 0.0
C542 C 0.29228 0.398 0.47719 0.0
C543 C 0.27835 0.3972 0.52433 0.0
N544 N 0.26849 0.36696 0.44466 0.0
N545 N 0.26705 0.38364 0.5079 0.0
H546 H 0.89656 0.95587 0.68938 0.0
H547 H 0.79907 0.05606 0.71449 0.0
H548 H 0.86074 0.99443 0.63367 0.0
H549 H 0.8302 0.01155 0.76854 0.0
H550 H 0.82276 0.03534 0.6846 0.0
H551 H 0.87397 0.97811 0.71866 0.0
C552 C 0.88401 0.9691 0.68328 0.0
C553 C 0.88048 0.97322 0.659 0.0
C554 C 0.82437 0.03013 0.70301 0.0
C555 C 0.85442 -0.00126 0.69254 0.0
C556 C 0.81085 0.04193 0.72007 0.0
C557 C 0.81263 0.0355 0.74405 0.0
C558 C 0.83982 0.01186 0.71002 0.0
C559 C 0.82819 0.01708 0.75027 0.0
C560 C 0.87105 0.98177 0.70004 0.0
C561 C 0.86399 0.99063 0.6522 0.0
N562 N 0.84118 0.00595 0.73338 0.0
N563 N 0.85151 0.00273 0.66889 0.0
H564 H 0.29395 0.6401 0.96021 0.0
H565 H 0.16162 0.59187 0.97772 0.0
H566 H 0.23304 0.66746 0.92257 0.0
H567 H 0.22152 0.56655 0.01827 0.0
H568 H 0.18776 0.61939 0.95705 0.0
H569 H 0.26797 0.6125 0.98122 0.0
C570 C 0.27514 0.64027 0.95632 0.0
C571 C 0.26566 0.65612 0.93961 0.0
C572 C 0.1952 0.60785 0.9705 0.0
C573 C 0.23585 0.62464 0.96361 0.0
C574 C 0.18027 0.59213 0.98232 0.0
C575 C 0.18939 0.57688 -0.00025 0.0
C576 C 0.21948 0.60832 0.97606 0.0
C577 C 0.21372 0.57802 0.00496 0.0
C578 C 0.26031 0.62455 0.96835 0.0
C579 C 0.24114 0.65557 0.93531 0.0
N580 N 0.22793 0.59343 0.99314 0.0
N581 N 0.2271 0.64011 0.94723 0.0
H582 H 0.56936 -0.0038 0.17971 0.0
H583 H 0.68097 0.95014 0.25442 0.0
H584 H 0.62885 0.04024 0.19913 0.0
H585 H 0.62176 0.90556 0.23535 0.0
H586 H 0.66223 0.98315 0.23375 0.0
H587 H 0.58829 0.96268 0.19965 0.0
C588 C 0.5864 -0.00116 0.18818 0.0
C589 C 0.59754 0.02108 0.18776 0.0
C590 C 0.65333 0.96615 0.23403 0.0
C591 C 0.6193 0.98276 0.21058 0.0
C592 C 0.66404 0.94725 0.24582 0.0
C593 C 0.65291 0.92502 0.24664 0.0
C594 C 0.63128 0.96288 0.22294 0.0
C595 C 0.63097 0.92239 0.23518 0.0
C596 C 0.5972 0.97968 0.19954 0.0
C597 C 0.61961 0.02343 0.19901 0.0
N598 N 0.62085 0.94111 0.22382 0.0
N599 N 0.62975 0.00451 0.20996 0.0
H600 H 0.74554 0.16813 0.61134 0.0
H601 H 0.76208 0.11205 0.48223 0.0
H602 H 0.7029 0.18781 0.5508 0.0
H603 H 0.80828 0.0967 0.54139 0.0
H604 H 0.73956 0.13916 0.50731 0.0
H605 H 0.76801 0.14101 0.58624 0.0
C606 C 0.74087 0.16673 0.59277 0.0
C607 C 0.72232 0.18027 0.58314 0.0
C608 C 0.75465 0.12989 0.5148 0.0
C609 C 0.748 0.14925 0.55431 0.0
C610 C 0.76751 0.11439 0.50049 0.0
C611 C 0.7871 0.10208 0.50974 0.0
C612 C 0.76135 0.13306 0.53856 0.0
C613 C 0.79332 0.10583 0.53352 0.0
C614 C 0.75374 0.15126 0.57844 0.0
C615 C 0.71708 0.17772 0.55896 0.0
N616 N 0.78046 0.12096 0.54712 0.0
N617 N 0.72985 0.16251 0.54537 0.0
H618 H 0.1659 0.61814 0.72875 0.0
H619 H 0.11555 0.4863 0.74279 0.0
H620 H 0.1783 0.56242 0.6778 0.0
H621 H 0.10902 0.54026 0.79664 0.0
H622 H 0.13684 0.51449 0.71778 0.0
H623 H 0.14315 0.59039 0.75288 0.0
C624 C 0.16379 0.60009 0.7226 0.0
C625 C 0.17407 0.59257 0.70124 0.0
C626 C 0.13074 0.52016 0.73507 0.0
C627 C 0.14806 0.5607 0.72881 0.0
C628 C 0.11857 0.50408 0.74935 0.0
C629 C 0.11056 0.51092 0.77187 0.0
C630 C 0.13487 0.54327 0.74332 0.0
C631 C 0.11495 0.53419 0.77943 0.0
C632 C 0.15082 0.58424 0.73641 0.0
C633 C 0.17073 0.56897 0.69416 0.0
N634 N 0.12681 0.54953 0.76519 0.0
N635 N 0.15803 0.55387 0.70793 0.0
H636 H 0.71914 0.86728 0.9724 0.0
H637 H 0.74354 0.8307 0.10724 0.0
H638 H 0.68313 0.89941 0.03178 0.0
H639 H 0.7867 0.80732 0.04855 0.0
H640 H 0.72029 0.85506 0.07986 0.0
H641 H 0.74308 0.84404 3e-05 0.0
C642 C 0.71625 0.86945 0.99125 0.0
C643 C 0.69909 0.88529 -0.00021 0.0
C644 C 0.7349 0.84465 0.073 0.0
C645 C 0.72644 0.85871 0.03153 0.0
C646 C 0.74817 0.83073 0.08862 0.0
C647 C 0.76707 0.81693 0.08016 0.0
C648 C 0.74049 0.84465 0.04874 0.0
C649 C 0.77229 0.81769 0.05586 0.0
C650 C 0.72998 0.85621 0.00702 0.0
C651 C 0.69617 0.8874 0.02441 0.0
N652 N 0.75901 0.83124 0.041 0.0
N653 N 0.70967 0.87421 0.03942 0.0
H654 H 0.34393 0.43592 0.21177 0.0
H655 H 0.38613 0.48154 0.33933 0.0
H656 H 0.34642 0.39139 0.27404 0.0
H657 H 0.38264 0.52606 0.27711 0.0
H658 H 0.37175 0.44823 0.31573 0.0
H659 H 0.35852 0.46904 0.23541 0.0
C660 C 0.34761 0.43308 0.23041 0.0
C661 C 0.34394 0.41084 0.24095 0.0
C662 C 0.37411 0.4653 0.30725 0.0
C663 C 0.36059 0.44874 0.26815 0.0
C664 C 0.38229 0.48433 0.32072 0.0
C665 C 0.38559 0.50663 0.31018 0.0
C666 C 0.36919 0.46856 0.28306 0.0
C667 C 0.38034 0.50919 0.28599 0.0
C668 C 0.35591 0.45202 0.24391 0.0
C669 C 0.34899 0.40822 0.26517 0.0
N670 N 0.37243 0.49039 0.27325 0.0
N671 N 0.35704 0.42695 0.27796 0.0
H672 H 0.50692 0.35705 0.39774 0.0
H673 H 0.47367 0.2205 0.37914 0.0
H674 H 0.54781 0.29944 0.42749 0.0
H675 H 0.4283 0.27879 0.3587 0.0
H676 H 0.50237 0.24891 0.39484 0.0
H677 H 0.47957 0.32834 0.38067 0.0
C678 C 0.51025 0.33834 0.40058 0.0
C679 C 0.52966 0.33065 0.41416 0.0
C680 C 0.48611 0.25546 0.38695 0.0
C681 C 0.49826 0.29763 0.39472 0.0
C682 C 0.46971 0.23926 0.37801 0.0
C683 C 0.44852 0.24729 0.36764 0.0
C684 C 0.48135 0.27985 0.3854 0.0
C685 C 0.44436 0.27179 0.3666 0.0
C686 C 0.49455 0.32195 0.39088 0.0
C687 C 0.53305 0.30617 0.41719 0.0
N688 N 0.46064 0.28719 0.37533 0.0
N689 N 0.51746 0.29052 0.40759 0.0
H690 H 0.98089 0.12021 0.59805 0.0
H691 H 0.97694 0.25438 0.64396 0.0
H692 H 0.03082 0.17407 0.57657 0.0
H693 H 0.9323 0.19889 0.67196 0.0
H694 H 0.99567 0.22548 0.61779 0.0
H695 H 0.96172 0.14906 0.62409 0.0
C696 C 0.98784 0.13808 0.59883 0.0
C697 C 0.0075 0.14473 0.58513 0.0
C698 C 0.98178 0.21961 0.62966 0.0
C699 C 0.98561 0.17783 0.6148 0.0
C700 C 0.97104 0.23612 0.64458 0.0
C701 C 0.95304 0.22904 0.66019 0.0
C702 C 0.97443 0.19584 0.63028 0.0
C703 C 0.94614 0.20513 0.66022 0.0
C704 C 0.9769 0.15454 0.6137 0.0
C705 C 0.01574 0.16814 0.58685 0.0
N706 N 0.95684 0.18939 0.64549 0.0
N707 N 0.00473 0.18384 0.60137 0.0
H708 H 0.00795 0.64725 0.90318 0.0
H709 H 0.02265 0.78165 0.86062 0.0
H710 H 0.96187 0.70414 0.92564 0.0
H711 H 0.07508 0.72733 0.84768 0.0
H712 H -0.00062 0.75312 0.88332 0.0
H713 H 0.03208 0.67598 0.88157 0.0
C714 C 0.00292 0.66578 0.9036 0.0
C715 C 0.98283 0.6733 0.91621 0.0
C716 C 0.016 0.74745 0.87557 0.0
C717 C 0.01033 0.70625 0.89146 0.0
C718 C 0.02928 0.76372 0.86256 0.0
C719 C 0.05084 0.75685 0.85221 0.0
C720 C 0.02424 0.72409 0.87814 0.0
C721 C 0.05858 0.7334 0.85536 0.0
C722 C 0.01673 0.68218 0.89129 0.0
C723 C 0.9772 0.69754 0.91617 0.0
N724 N 0.04524 0.71783 0.86799 0.0
N725 N 0.99082 0.71314 0.90391 0.0
H726 H 0.58811 0.77901 0.15336 0.0
H727 H 0.45546 0.80578 0.11005 0.0
H728 H 0.53392 0.72544 0.14634 0.0
H729 H 0.51059 0.85877 0.11271 0.0
H730 H 0.48341 0.7766 0.12569 0.0
H731 H 0.55959 0.80887 0.14007 0.0
C732 C 0.57025 0.7735 0.14894 0.0
C733 C 0.56342 0.74968 0.15091 0.0
C734 C 0.48937 0.79464 0.12296 0.0
C735 C 0.53065 0.78378 0.13588 0.0
C736 C 0.47338 0.81134 0.11413 0.0
C737 C 0.48072 0.83474 0.10997 0.0
C738 C 0.51289 0.80136 0.12767 0.0
C739 C 0.50417 0.84092 0.11558 0.0
C740 C 0.55396 0.79057 0.14141 0.0
C741 C 0.54001 0.74359 0.14502 0.0
N742 N 0.51945 0.8243 0.12404 0.0
N743 N 0.52448 0.76053 0.1378 0.0
H744 H 0.18855 0.34892 0.33968 0.0
H745 H 0.25415 0.32567 0.21835 0.0
H746 H 0.1869 0.2819 0.30284 0.0
H747 H 0.24495 0.39569 0.24775 0.0
H748 H 0.22548 0.31037 0.24678 0.0
H749 H 0.20435 0.36764 0.304 0.0
C750 C 0.19104 0.33822 0.32395 0.0
C751 C 0.18688 0.31369 0.32442 0.0
C752 C 0.22945 0.32915 0.24686 0.0
C753 C 0.20528 0.33493 0.28366 0.0
C754 C 0.24591 0.33788 0.23067 0.0
C755 C 0.2522 0.36191 0.23095 0.0
C756 C 0.21946 0.34449 0.26373 0.0
C757 C 0.24074 0.37698 0.24707 0.0
C758 C 0.20012 0.34892 0.30358 0.0
C759 C 0.19021 0.30078 0.30343 0.0
N760 N 0.22519 0.36795 0.2631 0.0
N761 N 0.19963 0.31147 0.28405 0.0
H762 H 0.81262 0.00417 0.51401 0.0
H763 H 0.90768 0.90496 0.53138 0.0
H764 H 0.84132 0.96595 0.45434 0.0
H765 H 0.85743 0.92351 0.58604 0.0
H766 H 0.88226 0.92459 0.50218 0.0
H767 H 0.82766 0.97329 0.54043 0.0
C768 C 0.82188 0.98912 0.50647 0.0
C769 C 0.82596 0.9877 0.48202 0.0
C770 C 0.87656 0.92387 0.52048 0.0
C771 C 0.84346 0.95246 0.51211 0.0
C772 C 0.89105 0.91263 0.53717 0.0
C773 C 0.88495 0.91303 0.56128 0.0
C774 C 0.8561 0.93586 0.52808 0.0
C775 C 0.86307 0.92307 0.56771 0.0
C776 C 0.83034 0.97143 0.52152 0.0
C777 C 0.83788 0.96774 0.47312 0.0
N778 N 0.8497 0.93456 0.5513 0.0
N779 N 0.84662 0.95108 0.48822 0.0
H780 H 0.27202 0.6842 0.71815 0.0
H781 H 0.309 0.63471 0.8438 0.0
H782 H 0.27032 0.60994 0.7366 0.0
H783 H 0.31521 0.70808 0.8229 0.0
H784 H 0.30317 0.62393 0.80229 0.0
H785 H 0.29563 0.69194 0.75351 0.0
C786 C 0.2769 0.66946 0.72948 0.0
C787 C 0.26875 0.64648 0.72472 0.0
C788 C 0.30628 0.64233 0.80673 0.0
C789 C 0.29556 0.65524 0.76542 0.0
C790 C 0.3097 0.6485 0.83045 0.0
C791 C 0.31193 0.67241 0.8369 0.0
C792 C 0.30497 0.66025 0.78944 0.0
C793 C 0.31298 0.68947 0.8188 0.0
C794 C 0.29044 0.67388 0.74967 0.0
C795 C 0.27594 0.628 0.73979 0.0
N796 N 0.30902 0.68311 0.79596 0.0
N797 N 0.28856 0.63285 0.75973 0.0
H798 H 0.56005 0.07802 0.05461 0.0
H799 H 0.67692 0.00168 0.03552 0.0
H800 H 0.6164 0.07193 0.10615 0.0
H801 H 0.61761 0.00341 0.98708 0.0
H802 H 0.65956 0.03506 0.05703 0.0
H803 H 0.58569 0.05943 0.02518 0.0
C804 C 0.578 0.07332 0.05961 0.0
C805 C 0.58584 0.07592 0.08307 0.0
C806 C 0.65053 0.02835 0.04148 0.0
C807 C 0.61514 0.05427 0.04958 0.0
C808 C 0.66042 0.00927 0.0292 0.0
C809 C 0.64843 -0.0006 0.00979 0.0
C810 C 0.62848 0.03756 0.03431 0.0
C811 C 0.62725 0.01015 0.00223 0.0
C812 C 0.59262 0.06257 0.04281 0.0
C813 C 0.60941 0.06979 0.0884 0.0
N814 N 0.61781 0.02843 0.01469 0.0
N815 N 0.62306 0.05879 0.07192 0.0
H816 H 0.65073 0.17221 0.65055 0.0
H817 H 0.71395 0.13736 0.77148 0.0
H818 H 0.66971 0.22227 0.70518 0.0
H819 H 0.70202 0.08877 0.71361 0.0
H820 H 0.68868 0.16643 0.75171 0.0
H821 H 0.65957 0.13979 0.6778 0.0
C822 C 0.65621 0.17643 0.66845 0.0
C823 C 0.66009 0.20003 0.67538 0.0
C824 C 0.69131 0.14929 0.74349 0.0
C825 C 0.67053 0.16293 0.70656 0.0
C826 C 0.70577 0.13266 0.75475 0.0
C827 C 0.71055 0.11077 0.74392 0.0
C828 C 0.68163 0.14407 0.72116 0.0
C829 C 0.69914 0.10556 0.72244 0.0
C830 C 0.66137 0.15787 0.68398 0.0
C831 C 0.6669 0.20436 0.69891 0.0
N832 N 0.6855 0.12224 0.71158 0.0
N833 N 0.67235 0.18598 0.71351 0.0
H834 H 0.18547 0.47969 0.95847 0.0
H835 H 0.06739 0.43381 0.89479 0.0
H836 H 0.11651 0.47841 0.99164 0.0
H837 H 0.13229 0.44977 0.85753 0.0
H838 H 0.08739 0.44231 0.93224 0.0
H839 H 0.16825 0.46131 0.92318 0.0
C840 C 0.16677 0.47534 0.95842 0.0
C841 C 0.15234 0.48086 0.97789 0.0
C842 C 0.09731 0.44371 0.91587 0.0
C843 C 0.13259 0.45981 0.93768 0.0
C844 C 0.08594 0.43877 0.89449 0.0
C845 C 0.0981 0.44141 0.87297 0.0
C846 C 0.12102 0.45128 0.91574 0.0
C847 C 0.12216 0.44778 0.87368 0.0
C848 C 0.15695 0.46489 0.93827 0.0
C849 C 0.12824 0.47473 0.97691 0.0
N850 N 0.13278 0.4527 0.89472 0.0
N851 N 0.1191 0.46466 0.95708 0.0
H852 H 0.77216 0.90893 0.23305 0.0
H853 H 0.82738 0.78836 0.18423 0.0
H854 H 0.75832 0.83945 0.26199 0.0
H855 H 0.82803 0.85423 0.14519 0.0
H856 H 0.8122 0.80947 0.21871 0.0
H857 H 0.80166 0.89138 0.20645 0.0
C858 C 0.77555 0.89005 0.23404 0.0
C859 C 0.76248 0.87554 0.24943 0.0
C860 C 0.81605 0.81939 0.20273 0.0
C861 C 0.79623 0.85547 0.21928 0.0
C862 C 0.82483 0.80736 0.18304 0.0
C863 C 0.82841 0.81945 0.16159 0.0
C864 C 0.81073 0.84363 0.20092 0.0
C865 C 0.82516 0.84413 0.16125 0.0
C866 C 0.79238 0.88007 0.21887 0.0
C867 C 0.7677 0.85123 0.2501 0.0
N868 N 0.81605 0.85537 0.1805 0.0
N869 N 0.78402 0.84194 0.2351 0.0
H870 H 0.30651 0.51894 0.47252 0.0
H871 H 0.41251 0.59808 0.4235 0.0
H872 H 0.37329 0.52924 0.50857 0.0
H873 H 0.35172 0.57726 0.38187 0.0
H874 H 0.39316 0.58234 0.4588 0.0
H875 H 0.3182 0.54868 0.44326 0.0
C876 C 0.32352 0.52762 0.47443 0.0
C877 C 0.33916 0.52126 0.49274 0.0
C878 C 0.38388 0.58161 0.44201 0.0
C879 C 0.35255 0.55535 0.45942 0.0
C880 C 0.39485 0.59073 0.42184 0.0
C881 C 0.38398 0.5884 0.39958 0.0
C882 C 0.36192 0.5701 0.43986 0.0
C883 C 0.36096 0.57899 0.3986 0.0
C884 C 0.33016 0.54462 0.45774 0.0
C885 C 0.36085 0.53329 0.4945 0.0
N886 N 0.35087 0.56977 0.4184 0.0
N887 N 0.36701 0.54958 0.47789 0.0
H888 H 0.25949 0.23782 0.43458 0.0
H889 H 0.32303 0.16908 0.32837 0.0
H890 H 0.23453 0.23754 0.36223 0.0
H891 H 0.35779 0.18603 0.39443 0.0
H892 H 0.28601 0.18489 0.34425 0.0
H893 H 0.2913 0.21046 0.42326 0.0
C894 C 0.26055 0.23182 0.41639 0.0
C895 C 0.24458 0.24023 0.39923 0.0
C896 C 0.30167 0.18481 0.35539 0.0
C897 C 0.28069 0.20886 0.38628 0.0
C898 C 0.3228 0.17565 0.3464 0.0
C899 C 0.34367 0.17667 0.35992 0.0
C900 C 0.30139 0.19497 0.37808 0.0
C901 C 0.3422 0.18522 0.38325 0.0
C902 C 0.27869 0.21623 0.40996 0.0
C903 C 0.24669 0.23178 0.37595 0.0
N904 N 0.32148 0.19436 0.39149 0.0
N905 N 0.2645 0.21667 0.37013 0.0
H906 H 0.97557 0.94661 0.57292 0.0
H907 H 0.06351 0.05409 0.58696 0.0
H908 H 0.00202 0.9698 0.64086 0.0
H909 H 0.04925 0.02 0.51998 0.0
H910 H 0.04544 0.02051 0.60739 0.0
H911 H 0.00569 0.97069 0.55343 0.0
C912 C 0.98784 0.95665 0.58375 0.0
C913 C 0.98606 0.9565 0.60854 0.0
C914 C 0.0467 0.02014 0.58825 0.0
C915 C 0.02056 0.9842 0.58633 0.0
C916 C 0.05708 0.0393 0.57656 0.0
C917 C 0.05741 0.04011 0.55169 0.0
C918 C 0.03631 0.00186 0.57494 0.0
C919 C 0.04906 0.02032 0.53916 0.0
C920 C 0.00514 0.9703 0.57261 0.0
C921 C 0.00263 0.96959 0.62168 0.0
N922 N 0.03839 0.00223 0.5509 0.0
N923 N 0.01897 0.98321 0.61041 0.0
H924 H 0.25444 0.77231 0.85805 0.0
H925 H 0.12579 0.82742 0.87308 0.0
H926 H 0.21318 0.76699 0.92224 0.0
H927 H 0.16798 0.83427 0.80964 0.0
H928 H 0.1605 0.81216 0.89398 0.0
H929 H 0.22583 0.80082 0.8425 0.0
C930 C 0.23944 0.77726 0.86896 0.0
C931 C 0.23597 0.76692 0.89132 0.0
C932 C 0.16229 0.8174 0.8756 0.0
C933 C 0.20309 0.7996 0.87359 0.0
C934 C 0.14248 0.82624 0.86367 0.0
C935 C 0.14382 0.83159 0.8394 0.0
C936 C 0.18352 0.81374 0.86313 0.0
C937 C 0.166 0.82998 0.82823 0.0
C938 C 0.22314 0.79363 0.8601 0.0
C939 C 0.2164 0.77428 0.90479 0.0
N940 N 0.18486 0.82075 0.84006 0.0
N941 N 0.20053 0.78994 0.89559 0.0
H942 H 0.49232 0.04349 0.10068 0.0
H943 H 0.41726 0.9271 0.12023 0.0
H944 H 0.4752 0.01512 0.16966 0.0
H945 H 0.42759 0.95986 0.05184 0.0
H946 H 0.43191 0.96306 0.13917 0.0
H947 H 0.46291 0.01715 0.08303 0.0
C948 C 0.48215 0.03194 0.11216 0.0
C949 C 0.48657 0.03113 0.13662 0.0
C950 C 0.43057 0.96258 0.12003 0.0
C951 C 0.45301 0.0008 0.11652 0.0
C952 C 0.42216 0.94203 0.1092 0.0
C953 C 0.42174 0.94027 0.0844 0.0
C954 C 0.4389 0.98135 0.10594 0.0
C955 C 0.42798 0.96029 0.07101 0.0
C956 C 0.4653 0.01693 0.10208 0.0
C957 C 0.47263 0.01608 0.15067 0.0
N958 N 0.43677 0.97984 0.08195 0.0
N959 N 0.45676 0.00122 0.14037 0.0
H960 H 0.75687 0.27995 0.58911 0.0
H961 H 0.83697 0.28215 0.70567 0.0
H962 H 0.73077 0.26573 0.65962 0.0
H963 H 0.86483 0.29078 0.63494 0.0
H964 H 0.79688 0.28333 0.68956 0.0
H965 H 0.79519 0.291 0.60606 0.0
C966 C 0.75908 0.27945 0.60818 0.0
C967 C 0.7407 0.27156 0.62296 0.0
C968 C 0.81173 0.28522 0.67757 0.0
C969 C 0.78451 0.28409 0.64242 0.0
C970 C 0.83466 0.28456 0.68675 0.0
C971 C 0.85431 0.28597 0.67157 0.0
C972 C 0.80837 0.28716 0.65299 0.0
C973 C 0.85021 0.28939 0.64727 0.0
C974 C 0.78098 0.28573 0.61783 0.0
C975 C 0.74453 0.27142 0.64753 0.0
N976 N 0.82768 0.28955 0.63868 0.0
N977 N 0.76608 0.27734 0.65646 0.0
H978 H 0.00953 0.46986 0.84041 0.0
H979 H 0.94607 0.59492 0.84967 0.0
H980 H 0.01 0.52189 0.78426 0.0
H981 H 0.94459 0.54157 0.90457 0.0
H982 H 0.96219 0.56554 0.82228 0.0
H983 H 0.9792 0.49283 0.86084 0.0
C984 C 0.00306 0.48601 0.83225 0.0
C985 C 0.01263 0.49422 0.81082 0.0
C986 C 0.95792 0.56015 0.84019 0.0
C987 C 0.978 0.52077 0.83425 0.0
C988 C 0.94861 0.5769 0.85584 0.0
C989 C 0.94453 0.57084 0.87962 0.0
C990 C 0.96325 0.53725 0.84845 0.0
C991 C 0.94794 0.54717 0.88653 0.0
C992 C 0.98567 0.49911 0.8439 0.0
C993 C 0.00331 0.51506 0.80089 0.0
N994 N 0.9575 0.53136 0.87114 0.0
N995 N 0.98677 0.52785 0.81289 0.0
H996 H 0.68052 0.65388 0.18578 0.0
H997 H 0.7465 0.71239 0.07533 0.0
H998 H 0.64546 0.67342 0.12054 0.0
H999 H 0.77411 0.711 0.14671 0.0
H1000 H 0.71322 0.68774 0.08824 0.0
H1001 H 0.71862 0.66356 0.16771 0.0
C1002 C 0.68084 0.65966 0.16747 0.0
C1003 C 0.65972 0.6634 0.15483 0.0
C1004 C 0.72676 0.69258 0.10096 0.0
C1005 C 0.70322 0.67467 0.13417 0.0
C1006 C 0.74575 0.70663 0.09363 0.0
C1007 C 0.76284 0.7141 0.11009 0.0
C1008 C 0.72501 0.68584 0.12486 0.0
C1009 C 0.76109 0.70598 0.13353 0.0
C1010 C 0.70261 0.6653 0.15722 0.0
C1011 C 0.66128 0.6707 0.13108 0.0
N1012 N 0.74238 0.69245 0.14026 0.0
N1013 N 0.68265 0.67647 0.12163 0.0
H1014 H 0.47103 0.55527 0.3837 0.0
H1015 H 0.55878 0.4456 0.38214 0.0
H1016 H 0.49129 0.51886 0.31957 0.0
H1017 H 0.5461 0.48882 0.44396 0.0
H1018 H 0.53876 0.47535 0.35782 0.0
H1019 H 0.50219 0.53414 0.40504 0.0
C1020 C 0.48217 0.54295 0.37406 0.0
C1021 C 0.47833 0.53853 0.3499 0.0
C1022 C 0.54072 0.47853 0.37664 0.0
C1023 C 0.51402 0.51416 0.37427 0.0
C1024 C 0.55222 0.46157 0.39055 0.0
C1025 C 0.55369 0.46448 0.41522 0.0
C1026 C 0.53042 0.49842 0.38753 0.0
C1027 C 0.54509 0.48564 0.42508 0.0
C1028 C 0.50005 0.53095 0.38624 0.0
C1029 C 0.4935 0.52263 0.33825 0.0
N1030 N 0.53344 0.50159 0.41127 0.0
N1031 N 0.51047 0.51075 0.35062 0.0
H1032 H 0.43706 0.24371 0.264 0.0
H1033 H 0.31655 0.27286 0.19514 0.0
H1034 H 0.36975 0.21027 0.27829 0.0
H1035 H 0.37713 0.31961 0.19564 0.0
H1036 H 0.33954 0.24365 0.21738 0.0
H1037 H 0.41849 0.26591 0.23151 0.0
C1038 C 0.41846 0.24086 0.26016 0.0
C1039 C 0.40483 0.2254 0.27406 0.0
C1040 C 0.3479 0.26017 0.2123 0.0
C1041 C 0.38365 0.25045 0.23689 0.0
C1042 C 0.33483 0.27681 0.19948 0.0
C1043 C 0.34477 0.29892 0.19394 0.0
C1044 C 0.37107 0.26563 0.21955 0.0
C1045 C 0.36863 0.30293 0.19986 0.0
C1046 C 0.4079 0.25352 0.24164 0.0
C1047 C 0.38084 0.22228 0.26824 0.0
N1048 N 0.3809 0.28657 0.21265 0.0
N1049 N 0.371 0.23478 0.25017 0.0
H1050 H 0.86026 0.09909 0.8106 0.0
H1051 H 0.87661 0.23544 0.77919 0.0
H1052 H 0.80382 0.15082 0.80848 0.0
H1053 H 0.92912 0.18144 0.76528 0.0
H1054 H 0.85406 0.20686 0.80247 0.0
H1055 H 0.88916 0.13118 0.8065 0.0
C1056 C 0.85397 0.11723 0.80988 0.0
C1057 C 0.82961 0.12231 0.80932 0.0
C1058 C 0.87074 0.20138 0.79468 0.0
C1059 C 0.86247 0.15893 0.80457 0.0
C1060 C 0.88365 0.2177 0.78139 0.0
C1061 C 0.90445 0.21061 0.7697 0.0
C1062 C 0.87861 0.17781 0.79619 0.0
C1063 C 0.91292 0.18752 0.77358 0.0
C1064 C 0.87047 0.13551 0.80744 0.0
C1065 C 0.82244 0.14611 0.80848 0.0
N1066 N 0.89972 0.17178 0.78613 0.0
N1067 N 0.83879 0.16352 0.80579 0.0
H1068 H 0.98139 0.56132 -0.00191 0.0
H1069 H 0.10561 0.57457 0.06094 0.0
H1070 H 0.01352 0.62904 0.01322 0.0
H1071 H 0.06811 0.50818 0.05479 0.0
H1072 H 0.06933 0.59557 0.05005 0.0
H1073 H 0.00999 0.54229 0.02439 0.0
C1074 C 0.99434 0.57222 0.00714 0.0
C1075 C 0.99539 0.59673 0.00311 0.0
C1076 C 0.06889 0.57644 0.05155 0.0
C1077 C 0.02834 0.57504 0.03315 0.0
C1078 C 0.08962 0.56442 0.05784 0.0
C1079 C 0.09006 0.53953 0.05818 0.0
C1080 C 0.04859 0.56345 0.04533 0.0
C1081 C 0.06873 0.52735 0.05431 0.0
C1082 C 0.01062 0.56136 0.02226 0.0
C1083 C 0.01227 0.61004 0.01561 0.0
N1084 N 0.04898 0.53941 0.04756 0.0
N1085 N 0.02837 0.59896 0.02976 0.0
H1086 H 0.6379 0.83547 0.29924 0.0
H1087 H 0.64317 0.71135 0.23557 0.0
H1088 H 0.70006 0.79069 0.29972 0.0
H1089 H 0.57743 0.74808 0.24941 0.0
H1090 H 0.66345 0.73822 0.26267 0.0
H1091 H 0.61437 0.80191 0.28541 0.0
C1092 C 0.64652 0.81846 0.29689 0.0
C1093 C 0.67108 0.816 0.30018 0.0
C1094 C 0.64452 0.74022 0.26007 0.0
C1095 C 0.64434 0.77765 0.28399 0.0
C1096 C 0.63295 0.72493 0.24451 0.0
C1097 C 0.60865 0.72773 0.23996 0.0
C1098 C 0.63179 0.75869 0.27087 0.0
C1099 C 0.59623 0.74543 0.25226 0.0
C1100 C 0.63307 0.79929 0.28897 0.0
C1101 C 0.68124 0.79349 0.29712 0.0
N1102 N 0.60802 0.76051 0.26687 0.0
N1103 N 0.66791 0.7753 0.28874 0.0
H1104 H 0.3952 0.38667 0.55446 0.0
H1105 H 0.51528 0.43192 0.49888 0.0
H1106 H 0.41845 0.45951 0.5574 0.0
H1107 H 0.49943 0.35766 0.50817 0.0
H1108 H 0.482 0.44185 0.52459 0.0
H1109 H 0.43519 0.37489 0.54258 0.0
C1110 C 0.40881 0.40013 0.55311 0.0
C1111 C 0.40332 0.42418 0.55638 0.0
C1112 C 0.48596 0.42335 0.52131 0.0
C1113 C 0.44897 0.41087 0.54249 0.0
C1114 C 0.50491 0.41769 0.50653 0.0
C1115 C 0.50987 0.39395 0.50109 0.0
C1116 C 0.47158 0.40517 0.5304 0.0
C1117 C 0.49607 0.37621 0.51175 0.0
C1118 C 0.43164 0.39339 0.54627 0.0
C1119 C 0.42174 0.44081 0.55461 0.0
N1120 N 0.47728 0.38219 0.5256 0.0
N1121 N 0.44361 0.43389 0.54736 0.0
H1122 H 0.18514 0.72679 0.6825 0.0
H1123 H 0.05906 0.75777 0.73908 0.0
H1124 H 0.12251 0.68408 0.67209 0.0
H1125 H 0.12507 0.79101 0.75896 0.0
H1126 H 0.08009 0.73583 0.70808 0.0
H1127 H 0.16109 0.75616 0.70317 0.0
C1128 C 0.16625 0.72378 0.68415 0.0
C1129 C 0.15592 0.70269 0.67598 0.0
C1130 C 0.08989 0.74809 0.71911 0.0
C1131 C 0.12835 0.73612 0.69993 0.0
C1132 C 0.07792 0.76059 0.73681 0.0
C1133 C 0.09041 0.77596 0.75184 0.0
C1134 C 0.11446 0.75114 0.71636 0.0
C1135 C 0.11479 0.77908 0.74801 0.0
C1136 C 0.15254 0.74051 0.69608 0.0
C1137 C 0.13129 0.69992 0.67839 0.0
N1138 N 0.12602 0.76667 0.73075 0.0
N1139 N 0.11838 0.71627 0.69049 0.0
H1140 H 0.49248 0.82335 0.01593 0.0
H1141 H 0.57425 0.9235 0.95879 0.0
H1142 H 0.47399 0.89756 0.01217 0.0
H1143 H 0.59888 0.8528 0.97504 0.0
H1144 H 0.53411 0.91155 0.96931 0.0
H1145 H 0.52806 0.83148 0.99252 0.0
C1146 C 0.49571 0.84129 0.0099 0.0
C1147 C 0.48047 0.85989 0.01632 0.0
C1148 C 0.54823 0.89856 0.97029 0.0
C1149 C 0.52104 0.86926 0.98957 0.0
C1150 C 0.57118 0.90534 0.96423 0.0
C1151 C 0.59006 0.88925 0.96651 0.0
C1152 C 0.54411 0.87554 0.97877 0.0
C1153 C 0.58492 0.86587 0.97332 0.0
C1154 C 0.51604 0.84591 -0.00342 0.0
C1155 C 0.48545 0.88275 0.00792 0.0
N1156 N 0.56245 0.8598 0.97956 0.0
N1157 N 0.50542 0.88682 0.99515 0.0
H1158 H 0.90449 0.0358 0.43769 0.0
H1159 H 0.97915 0.14711 0.4828 0.0
H1160 H 0.87455 0.10544 0.4486 0.0
H1161 H 0.00454 0.07486 0.48331 0.0
H1162 H 0.94344 0.13397 0.46194 0.0
H1163 H 0.94383 0.0519 0.44557 0.0
C1164 C 0.9062 0.05456 0.44139 0.0
C1165 C 0.88614 0.06921 0.44295 0.0
C1166 C 0.95698 0.12106 0.46638 0.0
C1167 C 0.93113 0.08769 0.45217 0.0
C1168 C 0.97737 0.12855 0.47825 0.0
C1169 C 0.99465 0.11198 0.48514 0.0
C1170 C 0.95394 0.09688 0.46132 0.0
C1171 C 0.9915 0.08819 0.47866 0.0
C1172 C 0.92869 0.06373 0.44595 0.0
C1173 C 0.8895 0.09343 0.44753 0.0
N1174 N 0.97144 0.08132 0.4673 0.0
N1175 N 0.91155 0.10187 0.45231 0.0
loop_
_geom_bond_atom_site_label_1
_geom_bond_atom_site_label_2
_geom_bond_distance
_geom_bond_site_symmetry_2
_ccdc_geom_bond_type
C0 O1 1.160 . S
C0 O7 1.185 . S
O1 C0 1.160 . S
O2 Zn3 1.899 . S
O2 C10 1.284 . S
Zn3 O2 1.899 . S
Zn3 O4 2.032 . S
Zn3 O7 2.086 . S
Zn3 O12 1.977 . S
O4 Zn3 2.032 . S
O4 C8 1.278 . S
C5 O6 1.203 . S
C5 O12 1.267 . S
O6 C5 1.203 . S
O7 C0 1.185 . S
O7 Zn3 2.086 . S
C8 O4 1.278 . S
C8 O9 1.211 . S
O9 C8 1.211 . S
C10 O2 1.284 . S
C10 O11 1.273 . S
O11 C10 1.273 . S
O12 Zn3 1.977 . S
O12 C5 1.267 . S
C13 O14 1.160 . S
C13 O20 1.185 . S
O14 C13 1.160 . S
O15 Zn16 1.899 . S
O15 C23 1.284 . S
Zn16 O15 1.899 . S
Zn16 O17 2.032 . S
Zn16 O20 2.086 . S
Zn16 O25 1.977 . S
O17 Zn16 2.032 . S
O17 C21 1.278 . S
C18 O19 1.203 . S
C18 O25 1.267 . S
O19 C18 1.203 . S
O20 C13 1.185 . S
O20 Zn16 2.086 . S
C21 O17 1.278 . S
C21 O22 1.211 . S
O22 C21 1.211 . S
C23 O15 1.284 . S
C23 O24 1.273 . S
O24 C23 1.273 . S
O25 Zn16 1.977 . S
O25 C18 1.267 . S
C26 O27 1.160 . S
C26 O33 1.185 . S
O27 C26 1.160 . S
O28 Zn29 1.899 . S
O28 C36 1.284 . S
Zn29 O28 1.899 . S
Zn29 O30 2.032 . S
Zn29 O33 2.086 . S
Zn29 O38 1.977 . S
O30 Zn29 2.032 . S
O30 C34 1.278 . S
C31 O32 1.203 . S
C31 O38 1.267 . S
O32 C31 1.203 . S
O33 C26 1.185 . S
O33 Zn29 2.086 . S
C34 O30 1.278 . S
C34 O35 1.211 . S
O35 C34 1.211 . S
C36 O28 1.284 . S
C36 O37 1.273 . S
O37 C36 1.273 . S
O38 Zn29 1.977 . S
O38 C31 1.267 . S
C39 O40 1.160 . S
C39 O46 1.185 . S
O40 C39 1.160 . S
O41 Zn42 1.899 . S
O41 C49 1.284 . S
Zn42 O41 1.899 . S
Zn42 O43 2.032 . S
Zn42 O46 2.086 . S
Zn42 O51 1.977 . S
O43 Zn42 2.032 . S
O43 C47 1.278 . S
C44 O45 1.203 . S
C44 O51 1.267 . S
O45 C44 1.203 . S
O46 C39 1.185 . S
O46 Zn42 2.086 . S
C47 O43 1.278 . S
C47 O48 1.211 . S
O48 C47 1.211 . S
C49 O41 1.284 . S
C49 O50 1.273 . S
O50 C49 1.273 . S
O51 Zn42 1.977 . S
O51 C44 1.267 . S
C52 O53 1.160 . S
C52 O59 1.185 . S
O53 C52 1.160 . S
O54 Zn55 1.899 . S
O54 C62 1.284 . S
Zn55 O54 1.899 . S
Zn55 O56 2.032 . S
Zn55 O59 2.086 . S
Zn55 O64 1.977 . S
O56 Zn55 2.032 . S
O56 C60 1.278 . S
C57 O58 1.203 . S
C57 O64 1.267 . S
O58 C57 1.203 . S
O59 C52 1.185 . S
O59 Zn55 2.086 . S
C60 O56 1.278 . S
C60 O61 1.211 . S
O61 C60 1.211 . S
C62 O54 1.284 . S
C62 O63 1.273 . S
O63 C62 1.273 . S
O64 Zn55 1.977 . S
O64 C57 1.267 . S
C65 O66 1.160 . S
C65 O72 1.185 . S
O66 C65 1.160 . S
O67 Zn68 1.899 . S
O67 C75 1.284 . S
Zn68 O67 1.899 . S
Zn68 O69 2.032 . S
Zn68 O72 2.086 . S
Zn68 O77 1.977 . S
O69 Zn68 2.032 . S
O69 C73 1.278 . S
C70 O71 1.203 . S
C70 O77 1.267 . S
O71 C70 1.203 . S
O72 C65 1.185 . S
O72 Zn68 2.086 . S
C73 O69 1.278 . S
C73 O74 1.211 . S
O74 C73 1.211 . S
C75 O67 1.284 . S
C75 O76 1.273 . S
O76 C75 1.273 . S
O77 Zn68 1.977 . S
O77 C70 1.267 . S
C78 O79 1.160 . S
C78 O85 1.185 . S
O79 C78 1.160 . S
O80 Zn81 1.899 . S
O80 C88 1.284 . S
Zn81 O80 1.899 . S
Zn81 O82 2.032 . S
Zn81 O85 2.086 . S
Zn81 O90 1.977 . S
O82 Zn81 2.032 . S
O82 C86 1.278 . S
C83 O84 1.203 . S
C83 O90 1.267 . S
O84 C83 1.203 . S
O85 C78 1.185 . S
O85 Zn81 2.086 . S
C86 O82 1.278 . S
C86 O87 1.211 . S
O87 C86 1.211 . S
C88 O80 1.284 . S
C88 O89 1.273 . S
O89 C88 1.273 . S
O90 Zn81 1.977 . S
O90 C83 1.267 . S
C91 O92 1.160 . S
C91 O98 1.185 . S
O92 C91 1.160 . S
O93 Zn94 1.899 . S
O93 C101 1.284 . S
Zn94 O93 1.899 . S
Zn94 O95 2.032 . S
Zn94 O98 2.086 . S
Zn94 O103 1.977 . S
O95 Zn94 2.032 . S
O95 C99 1.278 . S
C96 O97 1.203 . S
C96 O103 1.267 . S
O97 C96 1.203 . S
O98 C91 1.185 . S
O98 Zn94 2.086 . S
C99 O95 1.278 . S
C99 O100 1.211 . S
O100 C99 1.211 . S
C101 O93 1.284 . S
C101 O102 1.273 . S
O102 C101 1.273 . S
O103 Zn94 1.977 . S
O103 C96 1.267 . S
C104 O105 1.160 . S
C104 O111 1.185 . S
O105 C104 1.160 . S
O106 Zn107 1.899 . S
O106 C114 1.284 . S
Zn107 O106 1.899 . S
Zn107 O108 2.032 . S
Zn107 O111 2.086 . S
Zn107 O116 1.977 . S
O108 Zn107 2.032 . S
O108 C112 1.278 . S
C109 O110 1.203 . S
C109 O116 1.267 . S
O110 C109 1.203 . S
O111 C104 1.185 . S
O111 Zn107 2.086 . S
C112 O108 1.278 . S
C112 O113 1.211 . S
O113 C112 1.211 . S
C114 O106 1.284 . S
C114 O115 1.273 . S
O115 C114 1.273 . S
O116 Zn107 1.977 . S
O116 C109 1.267 . S
C117 O118 1.160 . S
C117 O124 1.185 . S
O118 C117 1.160 . S
O119 Zn120 1.899 . S
O119 C127 1.284 . S
Zn120 O119 1.899 . S
Zn120 O121 2.032 . S
Zn120 O124 2.086 . S
Zn120 O129 1.977 . S
O121 Zn120 2.032 . S
O121 C125 1.278 . S
C122 O123 1.203 . S
C122 O129 1.267 . S
O123 C122 1.203 . S
O124 C117 1.185 . S
O124 Zn120 2.086 . S
C125 O121 1.278 . S
C125 O126 1.211 . S
O126 C125 1.211 . S
C127 O119 1.284 . S
C127 O128 1.273 . S
O128 C127 1.273 . S
O129 Zn120 1.977 . S
O129 C122 1.267 . S
C130 O131 1.160 . S
C130 O137 1.185 . S
O131 C130 1.160 . S
O132 Zn133 1.899 . S
O132 C140 1.284 . S
Zn133 O132 1.899 . S
Zn133 O134 2.032 . S
Zn133 O137 2.086 . S
Zn133 O142 1.977 . S
O134 Zn133 2.032 . S
O134 C138 1.278 . S
C135 O136 1.203 . S
C135 O142 1.267 . S
O136 C135 1.203 . S
O137 C130 1.185 . S
O137 Zn133 2.086 . S
C138 O134 1.278 . S
C138 O139 1.211 . S
O139 C138 1.211 . S
C140 O132 1.284 . S
C140 O141 1.273 . S
O141 C140 1.273 . S
O142 Zn133 1.977 . S
O142 C135 1.267 . S
C143 O144 1.160 . S
C143 O150 1.185 . S
O144 C143 1.160 . S
O145 Zn146 1.899 . S
O145 C153 1.284 . S
Zn146 O145 1.899 . S
Zn146 O147 2.032 . S
Zn146 O150 2.086 . S
Zn146 O155 1.977 . S
O147 Zn146 2.032 . S
O147 C151 1.278 . S
C148 O149 1.203 . S
C148 O155 1.267 . S
O149 C148 1.203 . S
O150 C143 1.185 . S
O150 Zn146 2.086 . S
C151 O147 1.278 . S
C151 O152 1.211 . S
O152 C151 1.211 . S
C153 O145 1.284 . S
C153 O154 1.273 . S
O154 C153 1.273 . S
O155 Zn146 1.977 . S
O155 C148 1.267 . S
C156 O157 1.160 . S
C156 O163 1.185 . S
O157 C156 1.160 . S
O158 Zn159 1.899 . S
O158 C166 1.284 . S
Zn159 O158 1.899 . S
Zn159 O160 2.032 . S
Zn159 O163 2.086 . S
Zn159 O168 1.977 . S
O160 Zn159 2.032 . S
O160 C164 1.278 . S
C161 O162 1.203 . S
C161 O168 1.267 . S
O162 C161 1.203 . S
O163 C156 1.185 . S
O163 Zn159 2.086 . S
C164 O160 1.278 . S
C164 O165 1.211 . S
O165 C164 1.211 . S
C166 O158 1.284 . S
C166 O167 1.273 . S
O167 C166 1.273 . S
O168 Zn159 1.977 . S
O168 C161 1.267 . S
C169 O170 1.160 . S
C169 O176 1.185 . S
O170 C169 1.160 . S
O171 Zn172 1.899 . S
O171 C179 1.284 . S
Zn172 O171 1.899 . S
Zn172 O173 2.032 . S
Zn172 O176 2.086 . S
Zn172 O181 1.977 . S
O173 Zn172 2.032 . S
O173 C177 1.278 . S
C174 O175 1.203 . S
C174 O181 1.267 . S
O175 C174 1.203 . S
O176 C169 1.185 . S
O176 Zn172 2.086 . S
C177 O173 1.278 . S
C177 O178 1.211 . S
O178 C177 1.211 . S
C179 O171 1.284 . S
C179 O180 1.273 . S
O180 C179 1.273 . S
O181 Zn172 1.977 . S
O181 C174 1.267 . S
C182 O183 1.160 . S
C182 O189 1.185 . S
O183 C182 1.160 . S
O184 Zn185 1.899 . S
O184 C192 1.284 . S
Zn185 O184 1.899 . S
Zn185 O186 2.032 . S
Zn185 O189 2.086 . S
Zn185 O194 1.977 . S
O186 Zn185 2.032 . S
O186 C190 1.278 . S
C187 O188 1.203 . S
C187 O194 1.267 . S
O188 C187 1.203 . S
O189 C182 1.185 . S
O189 Zn185 2.086 . S
C190 O186 1.278 . S
C190 O191 1.211 . S
O191 C190 1.211 . S
C192 O184 1.284 . S
C192 O193 1.273 . S
O193 C192 1.273 . S
O194 Zn185 1.977 . S
O194 C187 1.267 . S
C195 O196 1.160 . S
C195 O202 1.185 . S
O196 C195 1.160 . S
O197 Zn198 1.899 . S
O197 C205 1.284 . S
Zn198 O197 1.899 . S
Zn198 O199 2.032 . S
Zn198 O202 2.086 . S
Zn198 O207 1.977 . S
O199 Zn198 2.032 . S
O199 C203 1.278 . S
C200 O201 1.203 . S
C200 O207 1.267 . S
O201 C200 1.203 . S
O202 C195 1.185 . S
O202 Zn198 2.086 . S
C203 O199 1.278 . S
C203 O204 1.211 . S
O204 C203 1.211 . S
C205 O197 1.284 . S
C205 O206 1.273 . S
O206 C205 1.273 . S
O207 Zn198 1.977 . S
O207 C200 1.267 . S
C208 O209 1.160 . S
C208 O215 1.185 . S
O209 C208 1.160 . S
O210 Zn211 1.899 . S
O210 C218 1.284 . S
Zn211 O210 1.899 . S
Zn211 O212 2.032 . S
Zn211 O215 2.086 . S
Zn211 O220 1.977 . S
O212 Zn211 2.032 . S
O212 C216 1.278 . S
C213 O214 1.203 . S
C213 O220 1.267 . S
O214 C213 1.203 . S
O215 C208 1.185 . S
O215 Zn211 2.086 . S
C216 O212 1.278 . S
C216 O217 1.211 . S
O217 C216 1.211 . S
C218 O210 1.284 . S
C218 O219 1.273 . S
O219 C218 1.273 . S
O220 Zn211 1.977 . S
O220 C213 1.267 . S
C221 O222 1.160 . S
C221 O228 1.185 . S
O222 C221 1.160 . S
O223 Zn224 1.899 . S
O223 C231 1.284 . S
Zn224 O223 1.899 . S
Zn224 O225 2.032 . S
Zn224 O228 2.086 . S
Zn224 O233 1.977 . S
O225 Zn224 2.032 . S
O225 C229 1.278 . S
C226 O227 1.203 . S
C226 O233 1.267 . S
O227 C226 1.203 . S
O228 C221 1.185 . S
O228 Zn224 2.086 . S
C229 O225 1.278 . S
C229 O230 1.211 . S
O230 C229 1.211 . S
C231 O223 1.284 . S
C231 O232 1.273 . S
O232 C231 1.273 . S
O233 Zn224 1.977 . S
O233 C226 1.267 . S
C234 O235 1.160 . S
C234 O241 1.185 . S
O235 C234 1.160 . S
O236 Zn237 1.899 . S
O236 C244 1.284 . S
Zn237 O236 1.899 . S
Zn237 O238 2.032 . S
Zn237 O241 2.086 . S
Zn237 O246 1.977 . S
O238 Zn237 2.032 . S
O238 C242 1.278 . S
C239 O240 1.203 . S
C239 O246 1.267 . S
O240 C239 1.203 . S
O241 C234 1.185 . S
O241 Zn237 2.086 . S
C242 O238 1.278 . S
C242 O243 1.211 . S
O243 C242 1.211 . S
C244 O236 1.284 . S
C244 O245 1.273 . S
O245 C244 1.273 . S
O246 Zn237 1.977 . S
O246 C239 1.267 . S
C247 O248 1.160 . S
C247 O254 1.185 . S
O248 C247 1.160 . S
O249 Zn250 1.899 . S
O249 C257 1.284 . S
Zn250 O249 1.899 . S
Zn250 O251 2.032 . S
Zn250 O254 2.086 . S
Zn250 O259 1.977 . S
O251 Zn250 2.032 . S
O251 C255 1.278 . S
C252 O253 1.203 . S
C252 O259 1.267 . S
O253 C252 1.203 . S
O254 C247 1.185 . S
O254 Zn250 2.086 . S
C255 O251 1.278 . S
C255 O256 1.211 . S
O256 C255 1.211 . S
C257 O249 1.284 . S
C257 O258 1.273 . S
O258 C257 1.273 . S
O259 Zn250 1.977 . S
O259 C252 1.267 . S
C260 O261 1.160 . S
C260 O267 1.185 . S
O261 C260 1.160 . S
O262 Zn263 1.899 . S
O262 C270 1.284 . S
Zn263 O262 1.899 . S
Zn263 O264 2.032 . S
Zn263 O267 2.086 . S
Zn263 O272 1.977 . S
O264 Zn263 2.032 . S
O264 C268 1.278 . S
C265 O266 1.203 . S
C265 O272 1.267 . S
O266 C265 1.203 . S
O267 C260 1.185 . S
O267 Zn263 2.086 . S
C268 O264 1.278 . S
C268 O269 1.211 . S
O269 C268 1.211 . S
C270 O262 1.284 . S
C270 O271 1.273 . S
O271 C270 1.273 . S
O272 Zn263 1.977 . S
O272 C265 1.267 . S
C273 O274 1.160 . S
C273 O280 1.185 . S
O274 C273 1.160 . S
O275 Zn276 1.899 . S
O275 C283 1.284 . S
Zn276 O275 1.899 . S
Zn276 O277 2.032 . S
Zn276 O280 2.086 . S
Zn276 O285 1.977 . S
O277 Zn276 2.032 . S
O277 C281 1.278 . S
C278 O279 1.203 . S
C278 O285 1.267 . S
O279 C278 1.203 . S
O280 C273 1.185 . S
O280 Zn276 2.086 . S
C281 O277 1.278 . S
C281 O282 1.211 . S
O282 C281 1.211 . S
C283 O275 1.284 . S
C283 O284 1.273 . S
O284 C283 1.273 . S
O285 Zn276 1.977 . S
O285 C278 1.267 . S
C286 O287 1.160 . S
C286 O293 1.185 . S
O287 C286 1.160 . S
O288 Zn289 1.899 . S
O288 C296 1.284 . S
Zn289 O288 1.899 . S
Zn289 O290 2.032 . S
Zn289 O293 2.086 . S
Zn289 O298 1.977 . S
O290 Zn289 2.032 . S
O290 C294 1.278 . S
C291 O292 1.203 . S
C291 O298 1.267 . S
O292 C291 1.203 . S
O293 C286 1.185 . S
O293 Zn289 2.086 . S
C294 O290 1.278 . S
C294 O295 1.211 . S
O295 C294 1.211 . S
C296 O288 1.284 . S
C296 O297 1.273 . S
O297 C296 1.273 . S
O298 Zn289 1.977 . S
O298 C291 1.267 . S
C299 O300 1.160 . S
C299 O306 1.185 . S
O300 C299 1.160 . S
O301 Zn302 1.899 . S
O301 C309 1.284 . S
Zn302 O301 1.899 . S
Zn302 O303 2.032 . S
Zn302 O306 2.086 . S
Zn302 O311 1.977 . S
O303 Zn302 2.032 . S
O303 C307 1.278 . S
C304 O305 1.203 . S
C304 O311 1.267 . S
O305 C304 1.203 . S
O306 C299 1.185 . S
O306 Zn302 2.086 . S
C307 O303 1.278 . S
C307 O308 1.211 . S
O308 C307 1.211 . S
C309 O301 1.284 . S
C309 O310 1.273 . S
O310 C309 1.273 . S
O311 Zn302 1.977 . S
O311 C304 1.267 . S
H312 C318 0.930 . S
H313 C322 0.930 . S
H314 C327 0.929 . S
H315 C325 0.929 . S
H316 C320 0.929 . S
H317 C326 0.929 . S
C318 H312 0.930 . S
C318 C319 1.367 . S
C318 C326 1.378 . S
C319 C318 1.367 . S
C319 C327 1.433 . S
C320 H316 0.929 . S
C320 C322 1.378 . S
C320 C324 1.350 . S
C321 C324 1.463 . S
C321 C326 1.350 . S
C321 N329 1.427 . S
C322 H313 0.930 . S
C322 C320 1.378 . S
C322 C323 1.367 . S
C323 C322 1.367 . S
C323 C325 1.433 . S
C324 C320 1.350 . S
C324 C321 1.463 . S
C324 N328 1.427 . S
C325 H315 0.929 . S
C325 C323 1.433 . S
C325 N328 1.384 . S
C326 H317 0.929 . S
C326 C318 1.378 . S
C326 C321 1.350 . S
C327 H314 0.929 . S
C327 C319 1.433 . S
C327 N329 1.384 . S
N328 C324 1.427 . S
N328 C325 1.384 . S
N329 C321 1.427 . S
N329 C327 1.384 . S
H330 C336 0.930 . S
H331 C340 0.930 . S
H332 C345 0.929 . S
H333 C343 0.929 . S
H334 C338 0.929 . S
H335 C344 0.929 . S
C336 H330 0.930 . S
C336 C337 1.367 1_455 S
C336 C344 1.378 . S
C337 C336 1.367 1_655 S
C337 C345 1.433 . S
C338 H334 0.929 . S
C338 C340 1.378 . S
C338 C342 1.350 . S
C339 C342 1.463 . S
C339 C344 1.350 . S
C339 N347 1.438 . S
C340 H331 0.930 . S
C340 C338 1.378 . S
C340 C341 1.367 . S
C341 C340 1.367 . S
C341 C343 1.433 . S
C342 C338 1.350 . S
C342 C339 1.463 . S
C342 N346 1.427 . S
C343 H333 0.929 . S
C343 C341 1.433 . S
C343 N346 1.384 . S
C344 H335 0.929 . S
C344 C336 1.378 . S
C344 C339 1.350 . S
C345 H332 0.929 . S
C345 C337 1.433 . S
C345 N347 1.374 1_655 S
N346 C342 1.427 . S
N346 C343 1.384 . S
N347 C339 1.438 . S
N347 C345 1.374 1_455 S
H348 C354 0.930 . S
H349 C358 0.930 . S
H350 C363 0.929 . S
H351 C361 0.929 . S
H352 C356 0.929 . S
H353 C362 0.929 . S
C354 H348 0.930 . S
C354 C355 1.367 . S
C354 C362 1.378 . S
C355 C354 1.367 . S
C355 C363 1.433 . S
C356 H352 0.929 . S
C356 C358 1.378 . S
C356 C360 1.350 1_554 S
C357 C360 1.463 . S
C357 C362 1.350 . S
C357 N365 1.427 . S
C358 H349 0.930 . S
C358 C356 1.378 . S
C358 C359 1.367 . S
C359 C358 1.367 . S
C359 C361 1.433 1_554 S
C360 C356 1.350 1_556 S
C360 C357 1.463 . S
C360 N364 1.427 . S
C361 H351 0.929 . S
C361 C359 1.433 1_556 S
C361 N364 1.384 . S
C362 H353 0.929 . S
C362 C354 1.378 . S
C362 C357 1.350 . S
C363 H350 0.929 . S
C363 C355 1.433 . S
C363 N365 1.384 . S
N364 C360 1.427 . S
N364 C361 1.384 . S
N365 C357 1.427 . S
N365 C363 1.384 . S
H366 C372 0.930 . S
H367 C376 0.930 . S
H368 C381 0.929 . S
H369 C379 0.929 . S
H370 C374 0.929 . S
H371 C380 0.929 . S
C372 H366 0.930 . S
C372 C373 1.367 . S
C372 C380 1.378 . S
C373 C372 1.367 . S
C373 C381 1.433 . S
C374 H370 0.929 . S
C374 C376 1.378 . S
C374 C378 1.350 . S
C375 C378 1.463 . S
C375 C380 1.350 . S
C375 N383 1.427 . S
C376 H367 0.930 . S
C376 C374 1.378 . S
C376 C377 1.367 . S
C377 C376 1.367 . S
C377 C379 1.433 . S
C378 C374 1.350 . S
C378 C375 1.463 . S
C378 N382 1.427 . S
C379 H369 0.929 . S
C379 C377 1.433 . S
C379 N382 1.384 . S
C380 H371 0.929 . S
C380 C372 1.378 . S
C380 C375 1.350 . S
C381 H368 0.929 . S
C381 C373 1.433 . S
C381 N383 1.384 . S
N382 C378 1.427 . S
N382 C379 1.384 . S
N383 C375 1.427 . S
N383 C381 1.384 . S
H384 C390 0.930 . S
H385 C394 0.930 . S
H386 C399 0.929 . S
H387 C397 0.929 . S
H388 C392 0.929 . S
H389 C398 0.929 . S
C390 H384 0.930 . S
C390 C391 1.367 . S
C390 C398 1.378 . S
C391 C390 1.367 . S
C391 C399 1.433 . S
C392 H388 0.929 . S
C392 C394 1.378 . S
C392 C396 1.350 . S
C393 C396 1.463 . S
C393 C398 1.350 . S
C393 N401 1.427 . S
C394 H385 0.930 . S
C394 C392 1.378 . S
C394 C395 1.367 . S
C395 C394 1.367 . S
C395 C397 1.433 . S
C396 C392 1.350 . S
C396 C393 1.463 . S
C396 N400 1.427 . S
C397 H387 0.929 . S
C397 C395 1.433 . S
C397 N400 1.384 . S
C398 H389 0.929 . S
C398 C390 1.378 . S
C398 C393 1.350 . S
C399 H386 0.929 . S
C399 C391 1.433 . S
C399 N401 1.384 . S
N400 C396 1.427 . S
N400 C397 1.384 . S
N401 C393 1.427 . S
N401 C399 1.384 . S
H402 C408 0.930 . S
H403 C412 0.930 . S
H404 C417 0.929 . S
H405 C415 0.929 . S
H406 C410 0.929 . S
H407 C416 0.929 . S
C408 H402 0.930 . S
C408 C409 1.367 . S
C408 C416 1.378 . S
C409 C408 1.367 . S
C409 C417 1.433 . S
C410 H406 0.929 . S
C410 C412 1.378 . S
C410 C414 1.350 . S
C411 C414 1.463 . S
C411 C416 1.350 . S
C411 N419 1.427 . S
C412 H403 0.930 . S
C412 C410 1.378 . S
C412 C413 1.367 1_655 S
C413 C412 1.367 1_455 S
C413 C415 1.433 . S
C414 C410 1.350 . S
C414 C411 1.463 . S
C414 N418 1.427 . S
C415 H405 0.929 . S
C415 C413 1.433 . S
C415 N418 1.384 1_455 S
C416 H407 0.929 . S
C416 C408 1.378 . S
C416 C411 1.350 . S
C417 H404 0.929 . S
C417 C409 1.433 . S
C417 N419 1.384 . S
N418 C414 1.427 . S
N418 C415 1.384 1_655 S
N419 C411 1.427 . S
N419 C417 1.384 . S
H420 C426 0.930 . S
H421 C430 0.930 . S
H422 C435 0.929 . S
H423 C433 0.929 . S
H424 C428 0.929 . S
H425 C434 0.929 . S
C426 H420 0.930 . S
C426 C427 1.367 . S
C426 C434 1.378 . S
C427 C426 1.367 . S
C427 C435 1.433 . S
C428 H424 0.929 . S
C428 C430 1.378 1_554 S
C428 C432 1.350 . S
C429 C432 1.463 . S
C429 C434 1.350 . S
C429 N437 1.427 . S
C430 H421 0.930 . S
C430 C428 1.378 1_556 S
C430 C431 1.367 . S
C431 C430 1.367 . S
C431 C433 1.433 . S
C432 C428 1.350 . S
C432 C429 1.463 . S
C432 N436 1.427 . S
C433 H423 0.929 . S
C433 C431 1.433 . S
C433 N436 1.384 1_556 S
C434 H425 0.929 . S
C434 C426 1.378 . S
C434 C429 1.350 . S
C435 H422 0.929 . S
C435 C427 1.433 . S
C435 N437 1.384 . S
N436 C432 1.427 . S
N436 C433 1.384 1_554 S
N437 C429 1.427 . S
N437 C435 1.384 . S
H438 C444 0.930 . S
H439 C448 0.930 . S
H440 C453 0.929 . S
H441 C451 0.929 . S
H442 C446 0.929 . S
H443 C452 0.929 . S
C444 H438 0.930 . S
C444 C445 1.367 . S
C444 C452 1.378 . S
C445 C444 1.367 . S
C445 C453 1.433 . S
C446 H442 0.929 . S
C446 C448 1.378 . S
C446 C450 1.350 . S
C447 C450 1.463 . S
C447 C452 1.350 . S
C447 N455 1.427 . S
C448 H439 0.930 . S
C448 C446 1.378 . S
C448 C449 1.367 . S
C449 C448 1.367 . S
C449 C451 1.433 . S
C450 C446 1.350 . S
C450 C447 1.463 . S
C450 N454 1.427 . S
C451 H441 0.929 . S
C451 C449 1.433 . S
C451 N454 1.384 . S
C452 H443 0.929 . S
C452 C444 1.378 . S
C452 C447 1.350 . S
C453 H440 0.929 . S
C453 C445 1.433 . S
C453 N455 1.384 . S
N454 C450 1.427 . S
N454 C451 1.384 . S
N455 C447 1.427 . S
N455 C453 1.384 . S
H456 C462 0.930 . S
H457 C466 0.930 . S
H458 C471 0.929 . S
H459 C469 0.929 . S
H460 C464 0.929 . S
H461 C470 0.929 . S
C462 H456 0.930 . S
C462 C463 1.367 . S
C462 C470 1.378 . S
C463 C462 1.367 . S
C463 C471 1.433 . S
C464 H460 0.929 . S
C464 C466 1.378 . S
C464 C468 1.350 . S
C465 C468 1.463 . S
C465 C470 1.350 . S
C465 N473 1.427 . S
C466 H457 0.930 . S
C466 C464 1.378 . S
C466 C467 1.367 . S
C467 C466 1.367 . S
C467 C469 1.433 . S
C468 C464 1.350 . S
C468 C465 1.463 . S
C468 N472 1.427 . S
C469 H459 0.929 . S
C469 C467 1.433 . S
C469 N472 1.384 . S
C470 H461 0.929 . S
C470 C462 1.378 . S
C470 C465 1.350 . S
C471 H458 0.929 . S
C471 C463 1.433 . S
C471 N473 1.384 . S
N472 C468 1.427 . S
N472 C469 1.384 . S
N473 C465 1.427 . S
N473 C471 1.384 . S
H474 C480 0.930 . S
H475 C484 0.930 . S
H476 C489 0.934 . S
H477 C487 0.929 . S
H478 C482 0.929 . S
H479 C488 0.929 . S
C480 H474 0.930 . S
C480 C481 1.367 . S
C480 C488 1.378 1_565 S
C481 C480 1.367 . S
C481 C489 1.433 1_565 S
C482 H478 0.929 . S
C482 C484 1.378 . S
C482 C486 1.350 . S
C483 C486 1.463 . S
C483 C488 1.350 . S
C483 N491 1.427 . S
C484 H475 0.930 . S
C484 C482 1.378 . S
C484 C485 1.367 . S
C485 C484 1.367 . S
C485 C487 1.433 . S
C486 C482 1.350 . S
C486 C483 1.463 . S
C486 N490 1.427 . S
C487 H477 0.929 . S
C487 C485 1.433 . S
C487 N490 1.384 . S
C488 H479 0.929 . S
C488 C480 1.378 1_545 S
C488 C483 1.350 . S
C489 H476 0.934 . S
C489 C481 1.433 1_545 S
C489 N491 1.384 . S
N490 C486 1.427 . S
N490 C487 1.384 . S
N491 C483 1.427 . S
N491 C489 1.384 . S
H492 C498 0.930 . S
H493 C502 0.930 . S
H494 C507 0.929 . S
H495 C505 0.929 . S
H496 C500 0.929 . S
H497 C506 0.929 . S
C498 H492 0.930 . S
C498 C499 1.367 . S
C498 C506 1.378 . S
C499 C498 1.367 . S
C499 C507 1.433 . S
C500 H496 0.929 . S
C500 C502 1.378 . S
C500 C504 1.350 1_545 S
C501 C504 1.463 . S
C501 C506 1.350 . S
C501 N509 1.427 . S
C502 H493 0.930 . S
C502 C500 1.378 . S
C502 C503 1.367 . S
C503 C502 1.367 . S
C503 C505 1.433 1_545 S
C504 C500 1.350 1_565 S
C504 C501 1.463 . S
C504 N508 1.427 . S
C505 H495 0.929 . S
C505 C503 1.433 1_565 S
C505 N508 1.384 . S
C506 H497 0.929 . S
C506 C498 1.378 . S
C506 C501 1.350 . S
C507 H494 0.929 . S
C507 C499 1.433 . S
C507 N509 1.384 . S
N508 C504 1.427 . S
N508 C505 1.384 . S
N509 C501 1.427 . S
N509 C507 1.384 . S
H510 C516 0.930 . S
H511 C520 0.930 . S
H512 C525 0.929 . S
H513 C523 0.929 . S
H514 C518 0.929 . S
H515 C524 0.929 . S
C516 H510 0.930 . S
C516 C517 1.367 . S
C516 C524 1.378 . S
C517 C516 1.367 . S
C517 C525 1.433 . S
C518 H514 0.929 . S
C518 C520 1.378 . S
C518 C522 1.350 . S
C519 C522 1.463 . S
C519 C524 1.350 . S
C519 N527 1.427 . S
C520 H511 0.930 . S
C520 C518 1.378 . S
C520 C521 1.367 . S
C521 C520 1.367 . S
C521 C523 1.433 . S
C522 C518 1.350 . S
C522 C519 1.463 . S
C522 N526 1.427 . S
C523 H513 0.929 . S
C523 C521 1.433 . S
C523 N526 1.384 . S
C524 H515 0.929 . S
C524 C516 1.378 . S
C524 C519 1.350 . S
C525 H512 0.929 . S
C525 C517 1.433 . S
C525 N527 1.384 . S
N526 C522 1.427 . S
N526 C523 1.384 . S
N527 C519 1.427 . S
N527 C525 1.384 . S
H528 C534 0.930 . S
H529 C538 0.930 . S
H530 C543 0.929 . S
H531 C541 0.929 . S
H532 C536 0.929 . S
H533 C542 0.929 . S
C534 H528 0.930 . S
C534 C535 1.367 . S
C534 C542 1.378 . S
C535 C534 1.367 . S
C535 C543 1.433 . S
C536 H532 0.929 . S
C536 C538 1.378 . S
C536 C540 1.350 . S
C537 C540 1.463 . S
C537 C542 1.350 . S
C537 N545 1.427 . S
C538 H529 0.930 . S
C538 C536 1.378 . S
C538 C539 1.367 . S
C539 C538 1.367 . S
C539 C541 1.433 . S
C540 C536 1.350 . S
C540 C537 1.463 . S
C540 N544 1.427 . S
C541 H531 0.929 . S
C541 C539 1.433 . S
C541 N544 1.384 . S
C542 H533 0.929 . S
C542 C534 1.378 . S
C542 C537 1.350 . S
C543 H530 0.929 . S
C543 C535 1.433 . S
C543 N545 1.384 . S
N544 C540 1.427 . S
N544 C541 1.384 . S
N545 C537 1.427 . S
N545 C543 1.384 . S
H546 C552 0.930 . S
H547 C556 0.930 . S
H548 C561 0.929 . S
H549 C559 0.929 . S
H550 C554 0.929 . S
H551 C560 0.929 . S
C552 H546 0.930 . S
C552 C553 1.367 . S
C552 C560 1.378 1_565 S
C553 C552 1.367 . S
C553 C561 1.433 . S
C554 H550 0.929 . S
C554 C556 1.378 . S
C554 C558 1.350 . S
C555 C558 1.463 . S
C555 C560 1.350 . S
C555 N563 1.414 1_545 S
C556 H547 0.930 . S
C556 C554 1.378 . S
C556 C557 1.367 . S
C557 C556 1.367 . S
C557 C559 1.433 . S
C558 C554 1.350 . S
C558 C555 1.463 . S
C558 N562 1.427 . S
C559 H549 0.929 . S
C559 C557 1.433 . S
C559 N562 1.384 . S
C560 H551 0.929 . S
C560 C552 1.378 1_545 S
C560 C555 1.350 . S
C561 H548 0.929 . S
C561 C553 1.433 . S
C561 N563 1.403 . S
N562 C558 1.427 . S
N562 C559 1.384 . S
N563 C555 1.414 1_565 S
N563 C561 1.403 . S
H564 C570 0.930 . S
H565 C574 0.930 . S
H566 C579 0.929 . S
H567 C577 0.932 . S
H568 C572 0.929 . S
H569 C578 0.929 . S
C570 H564 0.930 . S
C570 C571 1.367 . S
C570 C578 1.378 . S
C571 C570 1.367 . S
C571 C579 1.433 . S
C572 H568 0.929 . S
C572 C574 1.378 . S
C572 C576 1.350 1_554 S
C573 C576 1.463 . S
C573 C578 1.350 . S
C573 N581 1.427 . S
C574 H565 0.930 . S
C574 C572 1.378 . S
C574 C575 1.367 . S
C575 C574 1.367 . S
C575 C577 1.433 . S
C576 C572 1.350 1_556 S
C576 C573 1.463 . S
C576 N580 1.427 . S
C577 H567 0.932 . S
C577 C575 1.433 . S
C577 N580 1.384 1_554 S
C578 H569 0.929 . S
C578 C570 1.378 . S
C578 C573 1.350 . S
C579 H566 0.929 . S
C579 C571 1.433 . S
C579 N581 1.384 . S
N580 C576 1.427 . S
N580 C577 1.384 1_556 S
N581 C573 1.427 . S
N581 C579 1.384 . S
H582 C588 0.928 1_565 S
H583 C592 0.930 . S
H584 C597 0.929 . S
H585 C595 0.929 . S
H586 C590 0.929 . S
H587 C596 0.929 . S
C588 H582 0.928 1_545 S
C588 C589 1.380 . S
C588 C596 1.367 1_545 S
C589 C588 1.380 . S
C589 C597 1.433 . S
C590 H586 0.929 . S
C590 C592 1.378 . S
C590 C594 1.350 . S
C591 C594 1.463 . S
C591 C596 1.350 . S
C591 N599 1.427 1_565 S
C592 H583 0.930 . S
C592 C590 1.378 . S
C592 C593 1.367 . S
C593 C592 1.367 . S
C593 C595 1.433 . S
C594 C590 1.350 . S
C594 C591 1.463 . S
C594 N598 1.427 . S
C595 H585 0.929 . S
C595 C593 1.433 . S
C595 N598 1.384 . S
C596 H587 0.929 . S
C596 C588 1.367 1_565 S
C596 C591 1.350 . S
C597 H584 0.929 . S
C597 C589 1.433 . S
C597 N599 1.384 . S
N598 C594 1.427 . S
N598 C595 1.384 . S
N599 C591 1.427 1_545 S
N599 C597 1.384 . S
H600 C606 0.930 . S
H601 C610 0.930 . S
H602 C615 0.929 . S
H603 C613 0.929 . S
H604 C608 0.929 . S
H605 C614 0.929 . S
C606 H600 0.930 . S
C606 C607 1.367 . S
C606 C614 1.378 . S
C607 C606 1.367 . S
C607 C615 1.433 . S
C608 H604 0.929 . S
C608 C610 1.378 . S
C608 C612 1.350 . S
C609 C612 1.463 . S
C609 C614 1.350 . S
C609 N617 1.427 . S
C610 H601 0.930 . S
C610 C608 1.378 . S
C610 C611 1.367 . S
C611 C610 1.367 . S
C611 C613 1.433 . S
C612 C608 1.350 . S
C612 C609 1.463 . S
C612 N616 1.427 . S
C613 H603 0.929 . S
C613 C611 1.433 . S
C613 N616 1.384 . S
C614 H605 0.929 . S
C614 C606 1.378 . S
C614 C609 1.350 . S
C615 H602 0.929 . S
C615 C607 1.433 . S
C615 N617 1.384 . S
N616 C612 1.427 . S
N616 C613 1.384 . S
N617 C609 1.427 . S
N617 C615 1.384 . S
H618 C624 0.930 . S
H619 C628 0.930 . S
H620 C633 0.929 . S
H621 C631 0.929 . S
H622 C626 0.929 . S
H623 C632 0.929 . S
C624 H618 0.930 . S
C624 C625 1.367 . S
C624 C632 1.378 . S
C625 C624 1.367 . S
C625 C633 1.433 . S
C626 H622 0.929 . S
C626 C628 1.378 . S
C626 C630 1.350 . S
C627 C630 1.463 . S
C627 C632 1.350 . S
C627 N635 1.427 . S
C628 H619 0.930 . S
C628 C626 1.378 . S
C628 C629 1.367 . S
C629 C628 1.367 . S
C629 C631 1.433 . S
C630 C626 1.350 . S
C630 C627 1.463 . S
C630 N634 1.427 . S
C631 H621 0.929 . S
C631 C629 1.433 . S
C631 N634 1.384 . S
C632 H623 0.929 . S
C632 C624 1.378 . S
C632 C627 1.350 . S
C633 H620 0.929 . S
C633 C625 1.433 . S
C633 N635 1.384 . S
N634 C630 1.427 . S
N634 C631 1.384 . S
N635 C627 1.427 . S
N635 C633 1.384 . S
H636 C642 0.930 . S
H637 C646 0.930 . S
H638 C651 0.929 . S
H639 C649 0.929 . S
H640 C644 0.929 . S
H641 C650 0.927 1_554 S
C642 H636 0.930 . S
C642 C643 1.367 . S
C642 C650 1.378 . S
C643 C642 1.367 . S
C643 C651 1.433 . S
C644 H640 0.929 . S
C644 C646 1.378 . S
C644 C648 1.350 . S
C645 C648 1.463 . S
C645 C650 1.350 1_554 S
C645 N653 1.427 . S
C646 H637 0.930 . S
C646 C644 1.378 . S
C646 C647 1.367 . S
C647 C646 1.367 . S
C647 C649 1.433 . S
C648 C644 1.350 . S
C648 C645 1.463 . S
C648 N652 1.427 . S
C649 H639 0.929 . S
C649 C647 1.433 . S
C649 N652 1.384 . S
C650 H641 0.927 1_556 S
C650 C642 1.378 . S
C650 C645 1.350 1_556 S
C651 H638 0.929 . S
C651 C643 1.433 . S
C651 N653 1.384 1_556 S
N652 C648 1.427 . S
N652 C649 1.384 . S
N653 C645 1.427 . S
N653 C651 1.384 1_554 S
H654 C660 0.930 . S
H655 C664 0.930 . S
H656 C669 0.929 . S
H657 C667 0.929 . S
H658 C662 0.929 . S
H659 C668 0.929 . S
C660 H654 0.930 . S
C660 C661 1.367 . S
C660 C668 1.378 . S
C661 C660 1.367 . S
C661 C669 1.433 . S
C662 H658 0.929 . S
C662 C664 1.378 . S
C662 C666 1.350 . S
C663 C666 1.463 . S
C663 C668 1.350 . S
C663 N671 1.427 . S
C664 H655 0.930 . S
C664 C662 1.378 . S
C664 C665 1.367 . S
C665 C664 1.367 . S
C665 C667 1.433 . S
C666 C662 1.350 . S
C666 C663 1.463 . S
C666 N670 1.427 . S
C667 H657 0.929 . S
C667 C665 1.433 . S
C667 N670 1.384 . S
C668 H659 0.929 . S
C668 C660 1.378 . S
C668 C663 1.350 . S
C669 H656 0.929 . S
C669 C661 1.433 . S
C669 N671 1.384 . S
N670 C666 1.427 . S
N670 C667 1.384 . S
N671 C663 1.427 . S
N671 C669 1.384 . S
H672 C678 0.930 . S
H673 C682 0.930 . S
H674 C687 0.929 . S
H675 C685 0.929 . S
H676 C680 0.929 . S
H677 C686 0.929 . S
C678 H672 0.930 . S
C678 C679 1.367 . S
C678 C686 1.378 . S
C679 C678 1.367 . S
C679 C687 1.433 . S
C680 H676 0.929 . S
C680 C682 1.378 . S
C680 C684 1.350 . S
C681 C684 1.463 . S
C681 C686 1.350 . S
C681 N689 1.427 . S
C682 H673 0.930 . S
C682 C680 1.378 . S
C682 C683 1.367 . S
C683 C682 1.367 . S
C683 C685 1.433 . S
C684 C680 1.350 . S
C684 C681 1.463 . S
C684 N688 1.427 . S
C685 H675 0.929 . S
C685 C683 1.433 . S
C685 N688 1.384 . S
C686 H677 0.929 . S
C686 C678 1.378 . S
C686 C681 1.350 . S
C687 H674 0.929 . S
C687 C679 1.433 . S
C687 N689 1.384 . S
N688 C684 1.427 . S
N688 C685 1.384 . S
N689 C681 1.427 . S
N689 C687 1.384 . S
H690 C696 0.930 . S
H691 C700 0.930 . S
H692 C705 0.929 . S
H693 C703 0.929 . S
H694 C698 0.929 . S
H695 C704 0.929 . S
C696 H690 0.930 . S
C696 C697 1.367 . S
C696 C704 1.378 . S
C697 C696 1.367 . S
C697 C705 1.433 . S
C698 H694 0.929 . S
C698 C700 1.378 . S
C698 C702 1.350 . S
C699 C702 1.463 . S
C699 C704 1.350 1_655 S
C699 N707 1.427 . S
C700 H691 0.930 . S
C700 C698 1.378 . S
C700 C701 1.367 . S
C701 C700 1.367 . S
C701 C703 1.433 . S
C702 C698 1.350 . S
C702 C699 1.463 . S
C702 N706 1.427 . S
C703 H693 0.929 . S
C703 C701 1.433 . S
C703 N706 1.384 . S
C704 H695 0.929 . S
C704 C696 1.378 . S
C704 C699 1.350 1_455 S
C705 H692 0.929 . S
C705 C697 1.433 . S
C705 N707 1.384 1_455 S
N706 C702 1.427 . S
N706 C703 1.384 . S
N707 C699 1.427 . S
N707 C705 1.384 1_655 S
H708 C714 0.930 1_455 S
H709 C718 0.930 . S
H710 C723 0.929 . S
H711 C721 0.929 . S
H712 C716 0.929 . S
H713 C722 0.929 . S
C714 H708 0.930 1_655 S
C714 C715 1.367 . S
C714 C722 1.377 1_655 S
C715 C714 1.367 . S
C715 C723 1.433 . S
C716 H712 0.929 . S
C716 C718 1.378 . S
C716 C720 1.350 . S
C717 C720 1.463 . S
C717 C722 1.350 . S
C717 N725 1.427 1_455 S
C718 H709 0.930 . S
C718 C716 1.378 . S
C718 C719 1.367 . S
C719 C718 1.367 . S
C719 C721 1.433 . S
C720 C716 1.350 . S
C720 C717 1.463 . S
C720 N724 1.427 . S
C721 H711 0.929 . S
C721 C719 1.433 . S
C721 N724 1.384 . S
C722 H713 0.929 . S
C722 C714 1.377 1_455 S
C722 C717 1.350 . S
C723 H710 0.929 . S
C723 C715 1.433 . S
C723 N725 1.384 . S
N724 C720 1.427 . S
N724 C721 1.384 . S
N725 C717 1.427 1_655 S
N725 C723 1.384 . S
H726 C732 0.930 . S
H727 C736 0.930 . S
H728 C741 0.929 . S
H729 C739 0.929 . S
H730 C734 0.929 . S
H731 C740 0.929 . S
C732 H726 0.930 . S
C732 C733 1.367 . S
C732 C740 1.378 . S
C733 C732 1.367 . S
C733 C741 1.433 . S
C734 H730 0.929 . S
C734 C736 1.378 . S
C734 C738 1.350 . S
C735 C738 1.463 . S
C735 C740 1.350 . S
C735 N743 1.427 . S
C736 H727 0.930 . S
C736 C734 1.378 . S
C736 C737 1.367 . S
C737 C736 1.367 . S
C737 C739 1.433 . S
C738 C734 1.350 . S
C738 C735 1.463 . S
C738 N742 1.427 . S
C739 H729 0.929 . S
C739 C737 1.433 . S
C739 N742 1.384 . S
C740 H731 0.929 . S
C740 C732 1.378 . S
C740 C735 1.350 . S
C741 H728 0.929 . S
C741 C733 1.433 . S
C741 N743 1.384 . S
N742 C738 1.427 . S
N742 C739 1.384 . S
N743 C735 1.427 . S
N743 C741 1.384 . S
H744 C750 0.930 . S
H745 C754 0.930 . S
H746 C759 0.929 . S
H747 C757 0.929 . S
H748 C752 0.929 . S
H749 C758 0.929 . S
C750 H744 0.930 . S
C750 C751 1.367 . S
C750 C758 1.378 . S
C751 C750 1.367 . S
C751 C759 1.433 . S
C752 H748 0.929 . S
C752 C754 1.378 . S
C752 C756 1.350 . S
C753 C756 1.463 . S
C753 C758 1.350 . S
C753 N761 1.427 . S
C754 H745 0.930 . S
C754 C752 1.378 . S
C754 C755 1.367 . S
C755 C754 1.367 . S
C755 C757 1.433 . S
C756 C752 1.350 . S
C756 C753 1.463 . S
C756 N760 1.427 . S
C757 H747 0.929 . S
C757 C755 1.433 . S
C757 N760 1.384 . S
C758 H749 0.929 . S
C758 C750 1.378 . S
C758 C753 1.350 . S
C759 H746 0.929 . S
C759 C751 1.433 . S
C759 N761 1.384 . S
N760 C756 1.427 . S
N760 C757 1.384 . S
N761 C753 1.427 . S
N761 C759 1.384 . S
H762 C768 0.930 . S
H763 C772 0.930 . S
H764 C777 0.929 . S
H765 C775 0.929 . S
H766 C770 0.929 . S
H767 C776 0.929 . S
C768 H762 0.930 . S
C768 C769 1.367 . S
C768 C776 1.378 . S
C769 C768 1.367 . S
C769 C777 1.433 1_545 S
C770 H766 0.929 . S
C770 C772 1.378 . S
C770 C774 1.350 . S
C771 C774 1.463 . S
C771 C776 1.350 1_565 S
C771 N779 1.427 . S
C772 H763 0.930 . S
C772 C770 1.378 . S
C772 C773 1.367 . S
C773 C772 1.367 . S
C773 C775 1.433 . S
C774 C770 1.350 . S
C774 C771 1.463 . S
C774 N778 1.427 . S
C775 H765 0.929 . S
C775 C773 1.433 . S
C775 N778 1.384 . S
C776 H767 0.929 . S
C776 C768 1.378 . S
C776 C771 1.350 1_545 S
C777 H764 0.929 . S
C777 C769 1.433 1_565 S
C777 N779 1.384 . S
N778 C774 1.427 . S
N778 C775 1.384 . S
N779 C771 1.427 . S
N779 C777 1.384 . S
H780 C786 0.930 . S
H781 C790 0.930 . S
H782 C795 0.929 . S
H783 C793 0.929 . S
H784 C788 0.929 . S
H785 C794 0.929 . S
C786 H780 0.930 . S
C786 C787 1.367 . S
C786 C794 1.378 . S
C787 C786 1.367 . S
C787 C795 1.433 . S
C788 H784 0.929 . S
C788 C790 1.378 . S
C788 C792 1.350 . S
C789 C792 1.463 . S
C789 C794 1.350 . S
C789 N797 1.427 . S
C790 H781 0.930 . S
C790 C788 1.378 . S
C790 C791 1.367 . S
C791 C790 1.367 . S
C791 C793 1.433 . S
C792 C788 1.350 . S
C792 C789 1.463 . S
C792 N796 1.427 . S
C793 H783 0.929 . S
C793 C791 1.433 . S
C793 N796 1.384 . S
C794 H785 0.929 . S
C794 C786 1.378 . S
C794 C789 1.350 . S
C795 H782 0.929 . S
C795 C787 1.433 . S
C795 N797 1.384 . S
N796 C792 1.427 . S
N796 C793 1.384 . S
N797 C789 1.427 . S
N797 C795 1.384 . S
H798 C804 0.930 . S
H799 C808 0.930 . S
H800 C813 0.929 . S
H801 C811 0.929 . S
H802 C806 0.929 . S
H803 C812 0.929 . S
C804 H798 0.930 . S
C804 C805 1.367 . S
C804 C812 1.378 . S
C805 C804 1.367 . S
C805 C813 1.433 . S
C806 H802 0.929 . S
C806 C808 1.378 . S
C806 C810 1.350 1_565 S
C807 C810 1.463 . S
C807 C812 1.350 . S
C807 N815 1.427 . S
C808 H799 0.930 . S
C808 C806 1.378 . S
C808 C809 1.367 1_554 S
C809 C808 1.367 1_556 S
C809 C811 1.433 1_565 S
C810 C806 1.350 1_545 S
C810 C807 1.463 . S
C810 N814 1.427 . S
C811 H801 0.929 . S
C811 C809 1.433 1_545 S
C811 N814 1.384 1_556 S
C812 H803 0.929 . S
C812 C804 1.378 . S
C812 C807 1.350 . S
C813 H800 0.929 . S
C813 C805 1.433 . S
C813 N815 1.384 . S
N814 C810 1.427 . S
N814 C811 1.384 1_554 S
N815 C807 1.427 . S
N815 C813 1.384 . S
H816 C822 0.930 . S
H817 C826 0.930 . S
H818 C831 0.929 . S
H819 C829 0.929 . S
H820 C824 0.929 . S
H821 C830 0.929 . S
C822 H816 0.930 . S
C822 C823 1.367 . S
C822 C830 1.378 . S
C823 C822 1.367 . S
C823 C831 1.433 . S
C824 H820 0.929 . S
C824 C826 1.378 . S
C824 C828 1.350 . S
C825 C828 1.463 . S
C825 C830 1.350 . S
C825 N833 1.427 . S
C826 H817 0.930 . S
C826 C824 1.378 . S
C826 C827 1.367 . S
C827 C826 1.367 . S
C827 C829 1.433 . S
C828 C824 1.350 . S
C828 C825 1.463 . S
C828 N832 1.427 . S
C829 H819 0.929 . S
C829 C827 1.433 . S
C829 N832 1.384 . S
C830 H821 0.929 . S
C830 C822 1.378 . S
C830 C825 1.350 . S
C831 H818 0.929 . S
C831 C823 1.433 . S
C831 N833 1.384 . S
N832 C828 1.427 . S
N832 C829 1.384 . S
N833 C825 1.427 . S
N833 C831 1.384 . S
H834 C840 0.930 . S
H835 C844 0.930 . S
H836 C849 0.929 . S
H837 C847 0.929 . S
H838 C842 0.929 . S
H839 C848 0.929 . S
C840 H834 0.930 . S
C840 C841 1.367 1_556 S
C840 C848 1.378 . S
C841 C840 1.367 1_554 S
C841 C849 1.433 . S
C842 H838 0.929 . S
C842 C844 1.378 . S
C842 C846 1.350 . S
C843 C846 1.463 . S
C843 C848 1.350 . S
C843 N851 1.427 . S
C844 H835 0.930 . S
C844 C842 1.378 . S
C844 C845 1.367 . S
C845 C844 1.367 . S
C845 C847 1.433 . S
C846 C842 1.350 . S
C846 C843 1.463 . S
C846 N850 1.427 . S
C847 H837 0.929 . S
C847 C845 1.433 . S
C847 N850 1.384 . S
C848 H839 0.929 . S
C848 C840 1.378 . S
C848 C843 1.350 . S
C849 H836 0.929 . S
C849 C841 1.433 . S
C849 N851 1.384 1_554 S
N850 C846 1.427 . S
N850 C847 1.384 . S
N851 C843 1.427 . S
N851 C849 1.384 1_556 S
H852 C858 0.930 . S
H853 C862 0.930 . S
H854 C867 0.929 . S
H855 C865 0.929 . S
H856 C860 0.929 . S
H857 C866 0.929 . S
C858 H852 0.930 . S
C858 C859 1.367 . S
C858 C866 1.378 . S
C859 C858 1.367 . S
C859 C867 1.433 . S
C860 H856 0.929 . S
C860 C862 1.378 . S
C860 C864 1.350 . S
C861 C864 1.463 . S
C861 C866 1.350 . S
C861 N869 1.427 . S
C862 H853 0.930 . S
C862 C860 1.378 . S
C862 C863 1.367 . S
C863 C862 1.367 . S
C863 C865 1.433 . S
C864 C860 1.350 . S
C864 C861 1.463 . S
C864 N868 1.427 . S
C865 H855 0.929 . S
C865 C863 1.433 . S
C865 N868 1.384 . S
C866 H857 0.929 . S
C866 C858 1.378 . S
C866 C861 1.350 . S
C867 H854 0.929 . S
C867 C859 1.433 . S
C867 N869 1.384 . S
N868 C864 1.427 . S
N868 C865 1.384 . S
N869 C861 1.427 . S
N869 C867 1.384 . S
H870 C876 0.930 . S
H871 C880 0.930 . S
H872 C885 0.929 . S
H873 C883 0.929 . S
H874 C878 0.929 . S
H875 C884 0.929 . S
C876 H870 0.930 . S
C876 C877 1.367 . S
C876 C884 1.378 . S
C877 C876 1.367 . S
C877 C885 1.433 . S
C878 H874 0.929 . S
C878 C880 1.378 . S
C878 C882 1.350 . S
C879 C882 1.463 . S
C879 C884 1.350 . S
C879 N887 1.427 . S
C880 H871 0.930 . S
C880 C878 1.378 . S
C880 C881 1.367 . S
C881 C880 1.367 . S
C881 C883 1.433 . S
C882 C878 1.350 . S
C882 C879 1.463 . S
C882 N886 1.427 . S
C883 H873 0.929 . S
C883 C881 1.433 . S
C883 N886 1.384 . S
C884 H875 0.929 . S
C884 C876 1.378 . S
C884 C879 1.350 . S
C885 H872 0.929 . S
C885 C877 1.433 . S
C885 N887 1.384 . S
N886 C882 1.427 . S
N886 C883 1.384 . S
N887 C879 1.427 . S
N887 C885 1.384 . S
H888 C894 0.930 . S
H889 C898 0.930 . S
H890 C903 0.929 . S
H891 C901 0.929 . S
H892 C896 0.929 . S
H893 C902 0.929 . S
C894 H888 0.930 . S
C894 C895 1.367 . S
C894 C902 1.378 . S
C895 C894 1.367 . S
C895 C903 1.433 . S
C896 H892 0.929 . S
C896 C898 1.378 . S
C896 C900 1.350 . S
C897 C900 1.463 . S
C897 C902 1.350 . S
C897 N905 1.427 . S
C898 H889 0.930 . S
C898 C896 1.378 . S
C898 C899 1.367 . S
C899 C898 1.367 . S
C899 C901 1.433 . S
C900 C896 1.350 . S
C900 C897 1.463 . S
C900 N904 1.427 . S
C901 H891 0.929 . S
C901 C899 1.433 . S
C901 N904 1.384 . S
C902 H893 0.929 . S
C902 C894 1.378 . S
C902 C897 1.350 . S
C903 H890 0.929 . S
C903 C895 1.433 . S
C903 N905 1.384 . S
N904 C900 1.427 . S
N904 C901 1.384 . S
N905 C897 1.427 . S
N905 C903 1.384 . S
H906 C912 0.930 . S
H907 C916 0.930 . S
H908 C921 0.929 . S
H909 C919 0.929 . S
H910 C914 0.929 . S
H911 C920 0.929 . S
C912 H906 0.930 . S
C912 C913 1.367 1_545 S
C912 C920 1.378 . S
C913 C912 1.367 1_565 S
C913 C921 1.433 1_655 S
C914 H910 0.929 . S
C914 C916 1.378 . S
C914 C918 1.350 . S
C915 C918 1.463 . S
C915 C920 1.350 1_455 S
C915 N923 1.427 . S
C916 H907 0.930 . S
C916 C914 1.378 . S
C916 C917 1.367 . S
C917 C916 1.367 . S
C917 C919 1.433 . S
C918 C914 1.350 . S
C918 C915 1.463 . S
C918 N922 1.427 . S
C919 H909 0.929 . S
C919 C917 1.433 . S
C919 N922 1.384 . S
C920 H911 0.929 . S
C920 C912 1.378 . S
C920 C915 1.350 1_655 S
C921 H908 0.929 . S
C921 C913 1.433 1_455 S
C921 N923 1.384 1_565 S
N922 C918 1.427 . S
N922 C919 1.384 . S
N923 C915 1.427 . S
N923 C921 1.384 1_545 S
H924 C930 0.930 . S
H925 C934 0.930 . S
H926 C939 0.929 . S
H927 C937 0.929 . S
H928 C932 0.929 . S
H929 C938 0.929 . S
C930 H924 0.930 . S
C930 C931 1.367 . S
C930 C938 1.378 . S
C931 C930 1.367 . S
C931 C939 1.433 . S
C932 H928 0.929 . S
C932 C934 1.378 . S
C932 C936 1.350 . S
C933 C936 1.463 . S
C933 C938 1.350 . S
C933 N941 1.427 . S
C934 H925 0.930 . S
C934 C932 1.378 . S
C934 C935 1.367 . S
C935 C934 1.367 . S
C935 C937 1.433 . S
C936 C932 1.350 . S
C936 C933 1.463 . S
C936 N940 1.427 . S
C937 H927 0.929 . S
C937 C935 1.433 . S
C937 N940 1.384 . S
C938 H929 0.929 . S
C938 C930 1.378 . S
C938 C933 1.350 . S
C939 H926 0.929 . S
C939 C931 1.433 . S
C939 N941 1.384 . S
N940 C936 1.427 . S
N940 C937 1.384 . S
N941 C933 1.427 . S
N941 C939 1.384 . S
H942 C948 0.930 . S
H943 C952 0.930 . S
H944 C957 0.929 . S
H945 C955 0.929 . S
H946 C950 0.929 . S
H947 C956 0.929 . S
C948 H942 0.930 . S
C948 C949 1.367 . S
C948 C956 1.378 1_545 S
C949 C948 1.367 . S
C949 C957 1.433 1_545 S
C950 H946 0.929 . S
C950 C952 1.378 . S
C950 C954 1.350 . S
C951 C954 1.463 . S
C951 C956 1.350 . S
C951 N959 1.427 . S
C952 H943 0.930 . S
C952 C950 1.378 . S
C952 C953 1.367 . S
C953 C952 1.367 . S
C953 C955 1.433 . S
C954 C950 1.350 . S
C954 C951 1.463 . S
C954 N958 1.427 . S
C955 H945 0.929 . S
C955 C953 1.433 . S
C955 N958 1.384 . S
C956 H947 0.929 . S
C956 C948 1.378 1_565 S
C956 C951 1.350 . S
C957 H944 0.929 . S
C957 C949 1.433 1_565 S
C957 N959 1.384 . S
N958 C954 1.427 . S
N958 C955 1.384 . S
N959 C951 1.427 . S
N959 C957 1.384 . S
H960 C966 0.930 . S
H961 C970 0.930 . S
H962 C975 0.929 . S
H963 C973 0.929 . S
H964 C968 0.929 . S
H965 C974 0.929 . S
C966 H960 0.930 . S
C966 C967 1.367 . S
C966 C974 1.378 . S
C967 C966 1.367 . S
C967 C975 1.433 . S
C968 H964 0.929 . S
C968 C970 1.378 . S
C968 C972 1.350 . S
C969 C972 1.463 . S
C969 C974 1.350 . S
C969 N977 1.427 . S
C970 H961 0.930 . S
C970 C968 1.378 . S
C970 C971 1.367 . S
C971 C970 1.367 . S
C971 C973 1.433 . S
C972 C968 1.350 . S
C972 C969 1.463 . S
C972 N976 1.427 . S
C973 H963 0.929 . S
C973 C971 1.433 . S
C973 N976 1.384 . S
C974 H965 0.929 . S
C974 C966 1.378 . S
C974 C969 1.350 . S
C975 H962 0.929 . S
C975 C967 1.433 . S
C975 N977 1.384 . S
N976 C972 1.427 . S
N976 C973 1.384 . S
N977 C969 1.427 . S
N977 C975 1.384 . S
H978 C984 0.928 1_455 S
H979 C988 0.930 . S
H980 C993 0.929 . S
H981 C991 0.929 . S
H982 C986 0.929 . S
H983 C992 0.929 . S
C984 H978 0.928 1_655 S
C984 C985 1.361 1_655 S
C984 C992 1.387 . S
C985 C984 1.361 1_455 S
C985 C993 1.433 . S
C986 H982 0.929 . S
C986 C988 1.378 . S
C986 C990 1.350 . S
C987 C990 1.463 . S
C987 C992 1.350 . S
C987 N995 1.427 . S
C988 H979 0.930 . S
C988 C986 1.378 . S
C988 C989 1.367 . S
C989 C988 1.367 . S
C989 C991 1.433 . S
C990 C986 1.350 . S
C990 C987 1.463 . S
C990 N994 1.427 . S
C991 H981 0.929 . S
C991 C989 1.433 . S
C991 N994 1.384 . S
C992 H983 0.929 . S
C992 C984 1.387 . S
C992 C987 1.350 . S
C993 H980 0.929 . S
C993 C985 1.433 . S
C993 N995 1.384 1_455 S
N994 C990 1.427 . S
N994 C991 1.384 . S
N995 C987 1.427 . S
N995 C993 1.384 1_655 S
H996 C1002 0.930 . S
H997 C1006 0.930 . S
H998 C1011 0.929 . S
H999 C1009 0.929 . S
H1000 C1004 0.929 . S
H1001 C1010 0.929 . S
C1002 H996 0.930 . S
C1002 C1003 1.367 . S
C1002 C1010 1.378 . S
C1003 C1002 1.367 . S
C1003 C1011 1.433 . S
C1004 H1000 0.929 . S
C1004 C1006 1.378 . S
C1004 C1008 1.350 . S
C1005 C1008 1.463 . S
C1005 C1010 1.350 . S
C1005 N1013 1.427 . S
C1006 H997 0.930 . S
C1006 C1004 1.378 . S
C1006 C1007 1.367 . S
C1007 C1006 1.367 . S
C1007 C1009 1.433 . S
C1008 C1004 1.350 . S
C1008 C1005 1.463 . S
C1008 N1012 1.427 . S
C1009 H999 0.929 . S
C1009 C1007 1.433 . S
C1009 N1012 1.384 . S
C1010 H1001 0.929 . S
C1010 C1002 1.378 . S
C1010 C1005 1.350 . S
C1011 H998 0.929 . S
C1011 C1003 1.433 . S
C1011 N1013 1.384 . S
N1012 C1008 1.427 . S
N1012 C1009 1.384 . S
N1013 C1005 1.427 . S
N1013 C1011 1.384 . S
H1014 C1020 0.930 . S
H1015 C1024 0.930 . S
H1016 C1029 0.929 . S
H1017 C1027 0.929 . S
H1018 C1022 0.929 . S
H1019 C1028 0.929 . S
C1020 H1014 0.930 . S
C1020 C1021 1.367 . S
C1020 C1028 1.378 . S
C1021 C1020 1.367 . S
C1021 C1029 1.433 . S
C1022 H1018 0.929 . S
C1022 C1024 1.378 . S
C1022 C1026 1.350 . S
C1023 C1026 1.463 . S
C1023 C1028 1.350 . S
C1023 N1031 1.427 . S
C1024 H1015 0.930 . S
C1024 C1022 1.378 . S
C1024 C1025 1.367 . S
C1025 C1024 1.367 . S
C1025 C1027 1.433 . S
C1026 C1022 1.350 . S
C1026 C1023 1.463 . S
C1026 N1030 1.427 . S
C1027 H1017 0.929 . S
C1027 C1025 1.433 . S
C1027 N1030 1.384 . S
C1028 H1019 0.929 . S
C1028 C1020 1.378 . S
C1028 C1023 1.350 . S
C1029 H1016 0.929 . S
C1029 C1021 1.433 . S
C1029 N1031 1.384 . S
N1030 C1026 1.427 . S
N1030 C1027 1.384 . S
N1031 C1023 1.427 . S
N1031 C1029 1.384 . S
H1032 C1038 0.930 . S
H1033 C1042 0.930 . S
H1034 C1047 0.929 . S
H1035 C1045 0.929 . S
H1036 C1040 0.929 . S
H1037 C1046 0.929 . S
C1038 H1032 0.930 . S
C1038 C1039 1.367 . S
C1038 C1046 1.378 . S
C1039 C1038 1.367 . S
C1039 C1047 1.433 . S
C1040 H1036 0.929 . S
C1040 C1042 1.378 . S
C1040 C1044 1.350 . S
C1041 C1044 1.463 . S
C1041 C1046 1.350 . S
C1041 N1049 1.427 . S
C1042 H1033 0.930 . S
C1042 C1040 1.378 . S
C1042 C1043 1.367 . S
C1043 C1042 1.367 . S
C1043 C1045 1.433 . S
C1044 C1040 1.350 . S
C1044 C1041 1.463 . S
C1044 N1048 1.427 . S
C1045 H1035 0.929 . S
C1045 C1043 1.433 . S
C1045 N1048 1.384 . S
C1046 H1037 0.929 . S
C1046 C1038 1.378 . S
C1046 C1041 1.350 . S
C1047 H1034 0.929 . S
C1047 C1039 1.433 . S
C1047 N1049 1.384 . S
N1048 C1044 1.427 . S
N1048 C1045 1.384 . S
N1049 C1041 1.427 . S
N1049 C1047 1.384 . S
H1050 C1056 0.930 . S
H1051 C1060 0.930 . S
H1052 C1065 0.929 . S
H1053 C1063 0.929 . S
H1054 C1058 0.929 . S
H1055 C1064 0.929 . S
C1056 H1050 0.930 . S
C1056 C1057 1.367 . S
C1056 C1064 1.378 . S
C1057 C1056 1.367 . S
C1057 C1065 1.433 . S
C1058 H1054 0.929 . S
C1058 C1060 1.378 . S
C1058 C1062 1.350 . S
C1059 C1062 1.463 . S
C1059 C1064 1.350 . S
C1059 N1067 1.427 . S
C1060 H1051 0.930 . S
C1060 C1058 1.378 . S
C1060 C1061 1.367 . S
C1061 C1060 1.367 . S
C1061 C1063 1.433 . S
C1062 C1058 1.350 . S
C1062 C1059 1.463 . S
C1062 N1066 1.427 . S
C1063 H1053 0.929 . S
C1063 C1061 1.433 . S
C1063 N1066 1.384 . S
C1064 H1055 0.929 . S
C1064 C1056 1.378 . S
C1064 C1059 1.350 . S
C1065 H1052 0.929 . S
C1065 C1057 1.433 . S
C1065 N1067 1.384 . S
N1066 C1062 1.427 . S
N1066 C1063 1.384 . S
N1067 C1059 1.427 . S
N1067 C1065 1.384 . S
H1068 C1074 0.930 . S
H1069 C1078 0.930 . S
H1070 C1083 0.941 . S
H1071 C1081 0.929 . S
H1072 C1076 0.929 . S
H1073 C1082 0.929 . S
C1074 H1068 0.930 . S
C1074 C1075 1.367 . S
C1074 C1082 1.378 1_656 S
C1075 C1074 1.367 . S
C1075 C1083 1.447 1_655 S
C1076 H1072 0.929 . S
C1076 C1078 1.378 . S
C1076 C1080 1.350 . S
C1077 C1080 1.463 . S
C1077 C1082 1.350 . S
C1077 N1085 1.427 . S
C1078 H1069 0.930 . S
C1078 C1076 1.378 . S
C1078 C1079 1.367 . S
C1079 C1078 1.367 . S
C1079 C1081 1.433 . S
C1080 C1076 1.350 . S
C1080 C1077 1.463 . S
C1080 N1084 1.427 . S
C1081 H1071 0.929 . S
C1081 C1079 1.433 . S
C1081 N1084 1.384 . S
C1082 H1073 0.929 . S
C1082 C1074 1.378 1_454 S
C1082 C1077 1.350 . S
C1083 H1070 0.941 . S
C1083 C1075 1.447 1_455 S
C1083 N1085 1.360 1_556 S
N1084 C1080 1.427 . S
N1084 C1081 1.384 . S
N1085 C1077 1.427 . S
N1085 C1083 1.360 1_554 S
H1086 C1092 0.930 . S
H1087 C1096 0.930 . S
H1088 C1101 0.929 . S
H1089 C1099 0.929 . S
H1090 C1094 0.929 . S
H1091 C1100 0.929 . S
C1092 H1086 0.930 . S
C1092 C1093 1.367 . S
C1092 C1100 1.378 . S
C1093 C1092 1.367 . S
C1093 C1101 1.433 . S
C1094 H1090 0.929 . S
C1094 C1096 1.378 . S
C1094 C1098 1.350 . S
C1095 C1098 1.463 . S
C1095 C1100 1.350 . S
C1095 N1103 1.427 . S
C1096 H1087 0.930 . S
C1096 C1094 1.378 . S
C1096 C1097 1.367 . S
C1097 C1096 1.367 . S
C1097 C1099 1.433 . S
C1098 C1094 1.350 . S
C1098 C1095 1.463 . S
C1098 N1102 1.427 . S
C1099 H1089 0.929 . S
C1099 C1097 1.433 . S
C1099 N1102 1.384 . S
C1100 H1091 0.929 . S
C1100 C1092 1.378 . S
C1100 C1095 1.350 . S
C1101 H1088 0.929 . S
C1101 C1093 1.433 . S
C1101 N1103 1.384 . S
N1102 C1098 1.427 . S
N1102 C1099 1.384 . S
N1103 C1095 1.427 . S
N1103 C1101 1.384 . S
H1104 C1110 0.930 . S
H1105 C1114 0.930 . S
H1106 C1119 0.929 . S
H1107 C1117 0.929 . S
H1108 C1112 0.929 . S
H1109 C1118 0.929 . S
C1110 H1104 0.930 . S
C1110 C1111 1.367 . S
C1110 C1118 1.378 . S
C1111 C1110 1.367 . S
C1111 C1119 1.433 . S
C1112 H1108 0.929 . S
C1112 C1114 1.378 . S
C1112 C1116 1.350 . S
C1113 C1116 1.463 . S
C1113 C1118 1.350 . S
C1113 N1121 1.427 . S
C1114 H1105 0.930 . S
C1114 C1112 1.378 . S
C1114 C1115 1.367 . S
C1115 C1114 1.367 . S
C1115 C1117 1.433 . S
C1116 C1112 1.350 . S
C1116 C1113 1.463 . S
C1116 N1120 1.427 . S
C1117 H1107 0.929 . S
C1117 C1115 1.433 . S
C1117 N1120 1.384 . S
C1118 H1109 0.929 . S
C1118 C1110 1.378 . S
C1118 C1113 1.350 . S
C1119 H1106 0.929 . S
C1119 C1111 1.433 . S
C1119 N1121 1.384 . S
N1120 C1116 1.427 . S
N1120 C1117 1.384 . S
N1121 C1113 1.427 . S
N1121 C1119 1.384 . S
H1122 C1128 0.930 . S
H1123 C1132 0.930 . S
H1124 C1137 0.929 . S
H1125 C1135 0.929 . S
H1126 C1130 0.929 . S
H1127 C1136 0.929 . S
C1128 H1122 0.930 . S
C1128 C1129 1.367 . S
C1128 C1136 1.378 . S
C1129 C1128 1.367 . S
C1129 C1137 1.433 . S
C1130 H1126 0.929 . S
C1130 C1132 1.378 . S
C1130 C1134 1.350 . S
C1131 C1134 1.463 . S
C1131 C1136 1.350 . S
C1131 N1139 1.427 . S
C1132 H1123 0.930 . S
C1132 C1130 1.378 . S
C1132 C1133 1.367 . S
C1133 C1132 1.367 . S
C1133 C1135 1.433 . S
C1134 C1130 1.350 . S
C1134 C1131 1.463 . S
C1134 N1138 1.427 . S
C1135 H1125 0.929 . S
C1135 C1133 1.433 . S
C1135 N1138 1.384 . S
C1136 H1127 0.929 . S
C1136 C1128 1.378 . S
C1136 C1131 1.350 . S
C1137 H1124 0.929 . S
C1137 C1129 1.433 . S
C1137 N1139 1.384 . S
N1138 C1134 1.427 . S
N1138 C1135 1.384 . S
N1139 C1131 1.427 . S
N1139 C1137 1.384 . S
H1140 C1146 0.930 . S
H1141 C1150 0.930 . S
H1142 C1155 0.929 . S
H1143 C1153 0.929 . S
H1144 C1148 0.929 . S
H1145 C1154 0.929 . S
C1146 H1140 0.930 . S
C1146 C1147 1.367 1_556 S
C1146 C1154 1.378 . S
C1147 C1146 1.367 1_554 S
C1147 C1155 1.433 . S
C1148 H1144 0.929 . S
C1148 C1150 1.378 . S
C1148 C1152 1.350 . S
C1149 C1152 1.463 . S
C1149 C1154 1.350 . S
C1149 N1157 1.428 1_556 S
C1150 H1141 0.930 . S
C1150 C1148 1.378 . S
C1150 C1151 1.367 . S
C1151 C1150 1.367 . S
C1151 C1153 1.433 . S
C1152 C1148 1.350 . S
C1152 C1149 1.463 . S
C1152 N1156 1.427 . S
C1153 H1143 0.929 . S
C1153 C1151 1.433 . S
C1153 N1156 1.384 . S
C1154 H1145 0.929 . S
C1154 C1146 1.378 . S
C1154 C1149 1.350 . S
C1155 H1142 0.929 . S
C1155 C1147 1.433 . S
C1155 N1157 1.383 . S
N1156 C1152 1.427 . S
N1156 C1153 1.384 . S
N1157 C1149 1.428 1_554 S
N1157 C1155 1.383 . S
H1158 C1164 0.930 . S
H1159 C1168 0.930 . S
H1160 C1173 0.929 . S
H1161 C1171 0.929 . S
H1162 C1166 0.929 . S
H1163 C1172 0.929 . S
C1164 H1158 0.930 . S
C1164 C1165 1.367 . S
C1164 C1172 1.378 . S
C1165 C1164 1.367 . S
C1165 C1173 1.433 . S
C1166 H1162 0.929 . S
C1166 C1168 1.378 . S
C1166 C1170 1.350 . S
C1167 C1170 1.463 . S
C1167 C1172 1.350 . S
C1167 N1175 1.427 . S
C1168 H1159 0.930 . S
C1168 C1166 1.378 . S
C1168 C1169 1.367 1_655 S
C1169 C1168 1.367 1_455 S
C1169 C1171 1.433 . S
C1170 C1166 1.350 . S
C1170 C1167 1.463 . S
C1170 N1174 1.427 . S
C1171 H1161 0.929 . S
C1171 C1169 1.433 . S
C1171 N1174 1.384 1_455 S
C1172 H1163 0.929 . S
C1172 C1164 1.378 . S
C1172 C1167 1.350 . S
C1173 H1160 0.929 . S
C1173 C1165 1.433 . S
C1173 N1175 1.384 . S
N1174 C1170 1.427 . S
N1174 C1171 1.384 1_655 S
N1175 C1167 1.427 . S
N1175 C1173 1.384 . S
C319 C117 1.146 . S
C323 C0 1.136 . S
C337 C13 1.142 . S
C341 C130 1.150 . S
C355 C26 1.145 . S
C359 C143 1.152 . S
C373 C39 1.148 . S
C377 C104 1.139 . S
C391 C52 1.147 . S
C395 C195 1.138 . S
C409 C156 1.129 . S
C413 C65 1.127 . S
C427 C78 1.127 . S
C431 C169 1.129 . S
C445 C182 1.154 . S
C449 C91 1.149 . S
C463 C208 1.143 . S
C467 C234 1.133 . S
C481 C286 1.134 . S
C485 C221 1.128 . S
C499 C247 1.141 . S
C503 C299 1.150 . S
C517 C273 1.129 . S
C521 C260 1.127 . S
C535 C268 1.523 . S
C539 C8 1.532 . S
C553 C21 1.530 . S
C557 C229 1.527 . S
C571 C34 1.522 . S
C575 C242 1.523 . S
C589 C47 1.527 . S
C593 C255 1.530 . S
C607 C60 1.519 . S
C611 C307 1.528 . S
C625 C281 1.531 . S
C629 C73 1.525 . S
C643 C294 1.522 . S
C647 C86 1.524 . S
C661 C216 1.532 . S
C665 C99 1.521 . S
C679 C203 1.527 . S
C683 C112 1.529 . S
C697 C125 1.523 . S
C701 C164 1.523 . S
C715 C177 1.527 . S
C719 C138 1.530 . S
C733 C190 1.523 . S
C737 C151 1.532 . S
C751 C5 0.853 . S
C755 C218 0.970 . S
C769 C309 0.957 . S
C773 C18 0.893 . S
C787 C283 0.961 . S
C791 C31 0.890 . S
C805 C44 0.885 . S
C809 C296 0.955 . S
C823 C57 0.868 . S
C827 C231 0.969 . S
C841 C244 0.955 . S
C845 C70 0.890 . S
C859 C257 0.965 . S
C863 C83 0.850 . S
C877 C270 0.955 . S
C881 C96 0.882 . S
C895 C10 0.955 . S
C899 C109 0.876 . S
C913 C23 0.958 . S
C917 C122 0.892 . S
C931 C36 0.970 . S
C935 C135 0.852 . S
C949 C49 0.970 . S
C953 C148 0.857 . S
C967 C62 0.965 . S
C971 C161 0.850 . S
C985 C75 0.968 . S
C989 C174 0.875 . S
C1003 C187 0.880 . S
C1007 C88 0.955 . S
C1021 C101 0.962 . S
C1025 C200 0.889 . S
C1039 C114 0.955 . S
C1043 C213 0.887 . S
C1057 C226 0.878 . S
C1061 C166 0.967 . S
C1075 C179 0.967 . S
C1079 C239 0.878 . S
C1093 C252 0.891 . S
C1097 C192 0.960 . S
C1111 C265 0.887 . S
C1115 C205 0.963 . S
C1129 C278 0.859 . S
C1133 C140 0.960 . S
C1147 C153 0.963 . S
C1151 C291 0.853 . S
C1165 C304 0.867 . S
C1169 C127 0.957 . S
