# Generated by pormake.
# Topology wkj, (6)-cn, num edge types: 1
# Building blocks:
#     Node 0, Type 0, BuildingBlock: INOVEN_clean_sbu_0, # of connection points: 6
#     Node 1, Type 0, BuildingBlock: INOVEN_clean_sbu_0, # of connection points: 6
#     Node 2, Type 0, BuildingBlock: INOVEN_clean_sbu_0, # of connection points: 6
#     Node 3, Type 0, BuildingBlock: INOVEN_clean_sbu_0, # of connection points: 6
#     Node 4, Type 0, BuildingBlock: INOVEN_clean_sbu_0, # of connection points: 6
#     Node 5, Type 0, BuildingBlock: INOVEN_clean_sbu_0, # of connection points: 6
#     Node 6, Type 0, BuildingBlock: INOVEN_clean_sbu_0, # of connection points: 6
#     Node 7, Type 0, BuildingBlock: INOVEN_clean_sbu_0, # of connection points: 6
#     Node 8, Type 0, BuildingBlock: INOVEN_clean_sbu_0, # of connection points: 6
#     Node 9, Type 0, BuildingBlock: INOVEN_clean_sbu_0, # of connection points: 6
#     Node 10, Type 0, BuildingBlock: INOVEN_clean_sbu_0, # of connection points: 6
#     Node 11, Type 0, BuildingBlock: INOVEN_clean_sbu_0, # of connection points: 6
#     Edge 12, Type (0, 0), BuildingBlock: XUDNAN_clean_linker_2, # of connection points: 2
#     Edge 13, Type (0, 0), BuildingBlock: XUDNAN_clean_linker_2, # of connection points: 2
#     Edge 14, Type (0, 0), BuildingBlock: XUDNAN_clean_linker_2, # of connection points: 2
#     Edge 15, Type (0, 0), BuildingBlock: XUDNAN_clean_linker_2, # of connection points: 2
#     Edge 16, Type (0, 0), BuildingBlock: XUDNAN_clean_linker_2, # of connection points: 2
#     Edge 17, Type (0, 0), BuildingBlock: XUDNAN_clean_linker_2, # of connection points: 2
#     Edge 18, Type (0, 0), BuildingBlock: XUDNAN_clean_linker_2, # of connection points: 2
#     Edge 19, Type (0, 0), BuildingBlock: XUDNAN_clean_linker_2, # of connection points: 2
#     Edge 20, Type (0, 0), BuildingBlock: XUDNAN_clean_linker_2, # of connection points: 2
#     Edge 21, Type (0, 0), BuildingBlock: XUDNAN_clean_linker_2, # of connection points: 2
#     Edge 22, Type (0, 0), BuildingBlock: XUDNAN_clean_linker_2, # of connection points: 2
#     Edge 23, Type (0, 0), BuildingBlock: XUDNAN_clean_linker_2, # of connection points: 2
#     Edge 24, Type (0, 0), BuildingBlock: XUDNAN_clean_linker_2, # of connection points: 2
#     Edge 25, Type (0, 0), BuildingBlock: XUDNAN_clean_linker_2, # of connection points: 2
#     Edge 26, Type (0, 0), BuildingBlock: XUDNAN_clean_linker_2, # of connection points: 2
#     Edge 27, Type (0, 0), BuildingBlock: XUDNAN_clean_linker_2, # of connection points: 2
#     Edge 28, Type (0, 0), BuildingBlock: XUDNAN_clean_linker_2, # of connection points: 2
#     Edge 29, Type (0, 0), BuildingBlock: XUDNAN_clean_linker_2, # of connection points: 2
#     Edge 30, Type (0, 0), BuildingBlock: XUDNAN_clean_linker_2, # of connection points: 2
#     Edge 31, Type (0, 0), BuildingBlock: XUDNAN_clean_linker_2, # of connection points: 2
#     Edge 32, Type (0, 0), BuildingBlock: XUDNAN_clean_linker_2, # of connection points: 2
#     Edge 33, Type (0, 0), BuildingBlock: XUDNAN_clean_linker_2, # of connection points: 2
#     Edge 34, Type (0, 0), BuildingBlock: XUDNAN_clean_linker_2, # of connection points: 2
#     Edge 35, Type (0, 0), BuildingBlock: XUDNAN_clean_linker_2, # of connection points: 2
#     Edge 36, Type (0, 0), BuildingBlock: XUDNAN_clean_linker_2, # of connection points: 2
#     Edge 37, Type (0, 0), BuildingBlock: XUDNAN_clean_linker_2, # of connection points: 2
#     Edge 38, Type (0, 0), BuildingBlock: XUDNAN_clean_linker_2, # of connection points: 2
#     Edge 39, Type (0, 0), BuildingBlock: XUDNAN_clean_linker_2, # of connection points: 2
#     Edge 40, Type (0, 0), BuildingBlock: XUDNAN_clean_linker_2, # of connection points: 2
#     Edge 41, Type (0, 0), BuildingBlock: XUDNAN_clean_linker_2, # of connection points: 2
#     Edge 42, Type (0, 0), BuildingBlock: XUDNAN_clean_linker_2, # of connection points: 2
#     Edge 43, Type (0, 0), BuildingBlock: XUDNAN_clean_linker_2, # of connection points: 2
#     Edge 44, Type (0, 0), BuildingBlock: XUDNAN_clean_linker_2, # of connection points: 2
#     Edge 45, Type (0, 0), BuildingBlock: XUDNAN_clean_linker_2, # of connection points: 2
#     Edge 46, Type (0, 0), BuildingBlock: XUDNAN_clean_linker_2, # of connection points: 2
#     Edge 47, Type (0, 0), BuildingBlock: XUDNAN_clean_linker_2, # of connection points: 2
# Relax obj value: 0.719
# Max RMSD: 0.170
# Mean RMSD: 0.170
data_MOF--net-wkj--node1-INOVEN_clean_sbu_0--edge1-XUDNAN_clean_linker_2
_symmetry_space_group_name_H-M    P1
_symmetry_Int_Tables_number       1
_symmetry_cell_setting            triclinic
loop_
_symmetry_equiv_pos_as_xyz
'x, y, z'
_cell_length_a     48.815022
_cell_length_b     48.677265
_cell_length_c     30.054747
_cell_angle_alpha  89.737698
_cell_angle_beta   89.958146
_cell_angle_gamma 119.99325
loop_
_atom_site_label
_atom_site_type_symbol
_atom_site_fract_x
_atom_site_fract_y
_atom_site_fract_z
_atom_type_partial_charge
Gd0 Gd 0.47774 0.09396 0.37841 0.0
Gd1 Gd 0.54248 0.11573 0.35848 0.0
C2 C 0.52819 0.11381 0.46692 0.0
C3 C 0.41989 0.07499 0.4023 0.0
C4 C 0.39315 0.05192 0.42917 0.0
C5 C 0.36274 0.0369 0.41045 0.0
C6 C 0.39722 0.04524 0.47323 0.0
C7 C 0.3409 0.00812 0.47915 0.0
C8 C 0.37128 0.02317 0.4979 0.0
C9 C 0.33662 0.01524 0.43548 0.0
C10 C 0.50583 0.1515 0.33333 0.0
C11 C 0.48894 0.06711 0.28287 0.0
C12 C 0.59783 0.15282 0.32571 0.0
C13 C 0.60616 0.1779 0.2922 0.0
C14 C 0.58491 0.17291 0.25765 0.0
C15 C 0.63135 0.20873 0.29998 0.0
C16 C 0.61218 0.22947 0.24154 0.0
C17 C 0.63449 0.23439 0.27457 0.0
C18 C 0.588 0.19835 0.2325 0.0
C19 C 0.51547 0.06001 0.4021 0.0
O20 O 0.49793 0.10094 0.45315 0.0
O21 O 0.55033 0.12387 0.43501 0.0
O22 O 0.44457 0.09705 0.42307 0.0
O23 O 0.42738 0.06383 0.36796 0.0
O24 O 0.47854 0.12744 0.32512 0.0
O25 O 0.51777 0.14366 0.36491 0.0
O26 O 0.51866 0.09088 0.2901 0.0
O27 O 0.46835 0.06083 0.3162 0.0
O28 O 0.58022 0.12338 0.31266 0.0
O29 O 0.58796 0.15848 0.36301 0.0
O30 O 0.5457 0.08007 0.40321 0.0
O31 O 0.50312 0.0683 0.3722 0.0
H32 H 0.35921 0.04214 0.37656 0.0
H33 H 0.42037 0.05698 0.48855 0.0
H34 H 0.37481 0.01816 0.53192 0.0
H35 H 0.31325 0.00401 0.42084 0.0
H36 H 0.56492 0.14956 0.25137 0.0
H37 H 0.6476 0.21316 0.32714 0.0
H38 H 0.65353 0.2581 0.28179 0.0
H39 H 0.57099 0.19365 0.20631 0.0
Gd40 Gd 0.36506 0.46144 0.69517 0.0
Gd41 Gd 0.41774 0.52209 0.67374 0.0
C42 C 0.39999 0.50908 0.78262 0.0
C43 C 0.31907 0.40406 0.70771 0.0
C44 C 0.29636 0.38921 0.74424 0.0
C45 C 0.27132 0.35801 0.74071 0.0
C46 C 0.30301 0.40442 0.78547 0.0
C47 C 0.26473 0.35495 0.82146 0.0
C48 C 0.28773 0.38745 0.82371 0.0
C49 C 0.25517 0.34115 0.77898 0.0
C50 C 0.34713 0.50582 0.68242 0.0
C51 C 0.403 0.46856 0.59562 0.0
C52 C 0.44876 0.58044 0.64758 0.0
C53 C 0.44101 0.59848 0.61588 0.0
C54 C 0.42084 0.58295 0.58012 0.0
C55 C 0.44823 0.62942 0.62665 0.0
C56 C 0.41319 0.62819 0.56828 0.0
C57 C 0.43449 0.64424 0.60295 0.0
C58 C 0.4073 0.59776 0.55631 0.0
C59 C 0.43367 0.48478 0.71999 0.0
O60 O 0.38007 0.4793 0.76901 0.0
O61 O 0.41517 0.53084 0.75069 0.0
O62 O 0.31624 0.42465 0.683 0.0
O63 O 0.34828 0.41396 0.71923 0.0
O64 O 0.34092 0.48814 0.71738 0.0
O65 O 0.36593 0.50173 0.65759 0.0
O66 O 0.42267 0.49852 0.60824 0.0
O67 O 0.37842 0.45077 0.62318 0.0
O68 O 0.45433 0.55859 0.63178 0.0
O69 O 0.42985 0.5707 0.68201 0.0
O70 O 0.44893 0.51546 0.72327 0.0
O71 O 0.41438 0.4767 0.68869 0.0
H72 H 0.2656 0.34606 0.70889 0.0
H73 H 0.32212 0.42867 0.78874 0.0
H74 H 0.29641 0.39949 0.85506 0.0
H75 H 0.23672 0.31668 0.77535 0.0
H76 H 0.41445 0.55883 0.57178 0.0
H77 H 0.46321 0.64147 0.65486 0.0
H78 H 0.43961 0.66771 0.61279 0.0
H79 H 0.3918 0.58509 0.52884 0.0
Gd80 Gd 0.89184 0.3647 1.05269 0.0
Gd81 Gd 0.88106 0.41505 1.03578 0.0
C82 C 0.87291 0.39707 0.14103 0.0
C83 C 0.90322 0.32064 1.07978 0.0
C84 C 0.92546 0.31611 1.10691 0.0
C85 C 0.92904 0.28968 1.09921 0.0
C86 C 0.94335 0.33788 0.13994 0.0
C87 C 0.96821 0.30667 0.15774 0.0
C88 C 0.96482 0.33337 0.16491 0.0
C89 C 0.95011 0.28479 1.12479 0.0
C90 C 0.83377 0.34275 1.01193 0.0
C91 C 0.92563 0.40397 0.95788 0.0
C92 C 0.85759 0.4481 1.0036 0.0
C93 C 0.8262 0.44485 1.00736 0.0
C94 C 0.81967 0.4658 0.98406 0.0
C95 C 0.80143 0.41787 1.02789 0.0
C96 C 0.76322 0.42906 0.99282 0.0
C97 C 0.77006 0.40999 1.02065 0.0
C98 C 0.78838 0.45811 0.9771 0.0
C99 C 0.93574 0.43298 1.07811 0.0
O100 O 0.88788 0.38138 1.1276 0.0
O101 O 0.86223 0.40776 1.10829 0.0
O102 O 0.88439 0.32812 1.10055 0.0
O103 O 0.91473 0.33685 1.04323 0.0
O104 O 0.85467 0.33499 1.00225 0.0
O105 O 0.84505 0.36322 1.04283 0.0
O106 O 0.90985 0.41884 0.97021 0.0
O107 O 0.92384 0.38196 0.98677 0.0
O108 O 0.858 0.42502 0.98206 0.0
O109 O 0.87465 0.45605 1.03969 0.0
O110 O 0.91893 0.44644 1.08452 0.0
O111 O 0.92497 0.41435 1.04609 0.0
H112 H 0.91529 0.27267 1.07371 0.0
H113 H 0.94031 0.35798 0.14689 0.0
H114 H 0.978 0.35021 0.19089 0.0
H115 H 0.95219 0.26395 1.11905 0.0
H116 H 0.83857 0.48674 0.9681 0.0
H117 H 0.80621 0.40151 1.04625 0.0
H118 H 0.75121 0.38754 1.03322 0.0
H119 H 0.78405 0.47322 0.95512 0.0
Gd120 Gd 0.50937 0.89882 0.38295 0.0
Gd121 Gd 0.44453 0.87289 0.36437 0.0
C122 C 0.45991 0.8747 0.47404 0.0
C123 C 0.56694 0.91988 0.40818 0.0
C124 C 0.5895 0.93225 0.44488 0.0
C125 C 0.61083 0.92108 0.44997 0.0
C126 C 0.59085 0.95535 0.47385 0.0
C127 C 0.63504 0.95618 0.51247 0.0
C128 C 0.61355 0.96729 0.50739 0.0
C129 C 0.63337 0.93284 0.48367 0.0
C130 C 0.4865 0.84456 0.33195 0.0
C131 C 0.49551 0.92454 0.28915 0.0
C132 C 0.38551 0.8314 0.3502 0.0
C133 C 0.36847 0.80109 0.32659 0.0
C134 C 0.33966 0.77663 0.34355 0.0
C135 C 0.3818 0.79559 0.28882 0.0
C136 C 0.33815 0.74133 0.28559 0.0
C137 C 0.36698 0.76586 0.26883 0.0
C138 C 0.3243 0.74697 0.32274 0.0
C139 C 0.46611 0.9303 0.40052 0.0
O140 O 0.48962 0.88607 0.45797 0.0
O141 O 0.43751 0.86805 0.44319 0.0
O142 O 0.54507 0.88999 0.41075 0.0
O143 O 0.55689 0.93815 0.39131 0.0
O144 O 0.51217 0.87088 0.3243 0.0
O145 O 0.473 0.84875 0.36501 0.0
O146 O 0.46716 0.89798 0.29445 0.0
O147 O 0.51476 0.93274 0.32416 0.0
O148 O 0.40156 0.85695 0.32596 0.0
O149 O 0.40121 0.83098 0.38491 0.0
O150 O 0.44527 0.91925 0.36893 0.0
O151 O 0.47548 0.91115 0.40819 0.0
H152 H 0.61009 0.90328 0.42767 0.0
H153 H 0.57444 0.96411 0.4706 0.0
H154 H 0.61395 0.98483 0.52987 0.0
H155 H 0.64962 0.9239 0.48704 0.0
H156 H 0.32906 0.7805 0.37279 0.0
H157 H 0.40397 0.81414 0.27514 0.0
H158 H 0.3776 0.76228 0.23936 0.0
H159 H 0.30168 0.72858 0.3354 0.0
Gd160 Gd 0.60872 0.53205 0.69604 0.0
Gd161 Gd 0.58238 0.47181 0.66281 0.0
C162 C 0.58702 0.47953 0.77807 0.0
C163 C 0.6331 0.59152 0.71574 0.0
C164 C 0.66096 0.61308 0.74175 0.0
C165 C 0.68368 0.60455 0.75268 0.0
C166 C 0.66306 0.6404 0.76016 0.0
C167 C 0.70684 0.64713 0.80641 0.0
C168 C 0.686 0.65747 0.79218 0.0
C169 C 0.7065 0.62147 0.78481 0.0
C170 C 0.65333 0.51739 0.66499 0.0
C171 C 0.57556 0.52108 0.5949 0.0
C172 C 0.58493 0.42102 0.64679 0.0
C173 C 0.60433 0.41344 0.61786 0.0
C174 C 0.60983 0.38861 0.62918 0.0
C175 C 0.62027 0.43316 0.58166 0.0
C176 C 0.64657 0.40276 0.56716 0.0
C177 C 0.64108 0.42785 0.55649 0.0
C178 C 0.6307 0.38316 0.60382 0.0
C179 C 0.53428 0.47471 0.69766 0.0
O180 O 0.60008 0.51055 0.76905 0.0
O181 O 0.57933 0.46077 0.74172 0.0
O182 O 0.63879 0.5816 0.67861 0.0
O183 O 0.61018 0.5687 0.73845 0.0
O184 O 0.6537 0.52825 0.70438 0.0
O185 O 0.62842 0.51285 0.64598 0.0
O186 O 0.57766 0.49464 0.59557 0.0
O187 O 0.58149 0.53641 0.63379 0.0
O188 O 0.56452 0.42726 0.62751 0.0
O189 O 0.60108 0.44112 0.67814 0.0
O190 O 0.53237 0.46019 0.66049 0.0
O191 O 0.56251 0.49037 0.71092 0.0
H192 H 0.68257 0.58364 0.73854 0.0
H193 H 0.64571 0.6473 0.752 0.0
H194 H 0.68539 0.67687 0.80877 0.0
H195 H 0.72223 0.61301 0.79532 0.0
H196 H 0.59814 0.3736 0.65776 0.0
H197 H 0.61664 0.45272 0.57291 0.0
H198 H 0.65211 0.44292 0.52774 0.0
H199 H 0.6343 0.3636 0.61267 0.0
Gd200 Gd 0.07009 0.61472 1.05606 0.0
Gd201 Gd 0.10527 0.58857 1.03016 0.0
C202 C 0.09726 0.59321 0.14341 0.0
C203 C 0.03322 0.6375 1.07299 0.0
C204 C 0.03023 0.65627 1.10859 0.0
C205 C 0.01691 0.67539 1.0996 0.0
C206 C 0.0412 0.65574 0.1514 0.0
C207 C 0.02383 0.69199 0.17696 0.0
C208 C 0.03784 0.67323 0.18531 0.0
C209 C 0.0137 0.69316 1.13356 0.0
C210 C 0.13181 0.65977 1.03703 0.0
C211 C 0.05371 0.58395 0.95337 0.0
C212 C 0.15735 0.58733 1.01969 0.0
C213 C 0.18686 0.60113 0.99328 0.0
C214 C 0.19222 0.58135 0.96534 0.0
C215 C 0.21059 0.63318 0.99745 0.0
C216 C 0.24354 0.62568 0.94354 0.0
C217 C 0.23865 0.64533 0.9728 0.0
C218 C 0.22007 0.59346 0.9406 0.0
C219 C 0.05214 0.54019 1.06002 0.0
O220 O 0.08013 0.60641 1.13033 0.0
O221 O 0.10967 0.58448 1.10989 0.0
O222 O 0.05884 0.6523 1.04903 0.0
O223 O 0.02626 0.60861 1.08334 0.0
O224 O 0.11732 0.65773 1.07408 0.0
O225 O 0.11373 0.63629 1.01299 0.0
O226 O 0.07986 0.58193 0.9607 0.0
O227 O 0.04387 0.59399 0.98778 0.0
O228 O 0.13086 0.56743 0.99997 0.0
O229 O 0.15414 0.60627 1.04716 0.0
O230 O 0.06605 0.53913 1.02373 0.0
O231 O 0.06434 0.56822 1.07445 0.0
H232 H 0.00869 0.67631 1.06644 0.0
H233 H 0.05181 0.64132 0.15886 0.0
H234 H 0.04516 0.67098 0.21849 0.0
H235 H 0.00292 0.7074 1.12602 0.0
H236 H 0.17459 0.55649 0.96208 0.0
H237 H 0.20745 0.64899 1.01942 0.0
H238 H 0.25623 0.6702 0.976 0.0
H239 H 0.22247 0.57769 0.91768 0.0
Gd240 Gd 0.90509 0.51524 0.55378 0.0
Gd241 Gd 0.85513 0.46404 0.5846 0.0
C242 C 0.8716 0.46799 0.47272 0.0
C243 C 0.95334 0.56974 0.5331 0.0
C244 C 0.95744 0.59701 0.50691 0.0
C245 C 0.98245 0.62744 0.51639 0.0
C246 C 0.93591 0.59298 0.47329 0.0
C247 C 0.9661 0.64938 0.45583 0.0
C248 C 0.94027 0.61888 0.44784 0.0
C249 C 0.98675 0.65349 0.49108 0.0
C250 C 0.85015 0.51978 0.56053 0.0
C251 C 0.91298 0.50729 0.66048 0.0
C252 C 0.80007 0.42285 0.61579 0.0
C253 C 0.77744 0.41799 0.65119 0.0
C254 C 0.7473 0.39078 0.65062 0.0
C255 C 0.78559 0.4399 0.6857 0.0
C256 C 0.73379 0.40705 0.71946 0.0
C257 C 0.76394 0.43431 0.71979 0.0
C258 C 0.72561 0.38521 0.68476 0.0
C259 C 0.8925 0.44357 0.55552 0.0
O260 O 0.89986 0.48969 0.48672 0.0
O261 O 0.84851 0.45838 0.50415 0.0
O262 O 0.9371 0.56451 0.56965 0.0
O263 O 0.94549 0.54373 0.51113 0.0
O264 O 0.86523 0.52272 0.52376 0.0
O265 O 0.86289 0.51157 0.58943 0.0
O266 O 0.8839 0.48181 0.6537 0.0
O267 O 0.92758 0.52346 0.62411 0.0
O268 O 0.8264 0.42406 0.62787 0.0
O269 O 0.80434 0.44405 0.58553 0.0
O270 O 0.86298 0.43063 0.54604 0.0
O271 O 0.90232 0.46943 0.57708 0.0
H272 H -0.00108 0.63098 0.54288 0.0
H273 H 0.91615 0.56968 0.46599 0.0
H274 H 0.92424 0.61461 0.42047 0.0
H275 H 0.00672 0.67667 0.49828 0.0
H276 H 0.74073 0.37364 0.62407 0.0
H277 H 0.80876 0.46101 0.68657 0.0
H278 H 0.77099 0.45096 0.74705 0.0
H279 H 0.70269 0.36377 0.68441 0.0
Gd280 Gd 0.3792 0.90569 0.89354 0.0
Gd281 Gd 0.40462 0.86925 0.92507 0.0
C282 C 0.3977 0.87426 0.80978 0.0
C283 C 0.35841 0.94325 0.8713 0.0
C284 C 0.34221 0.9446 0.83087 0.0
C285 C 0.31174 0.94069 0.83399 0.0
C286 C 0.35534 0.94608 0.7888 0.0
C287 C 0.30708 0.93793 0.75348 0.0
C288 C 0.33806 0.94301 0.75058 0.0
C289 C 0.29426 0.93738 0.79553 0.0
C290 C 0.33406 0.84664 0.92501 0.0
C291 C 0.41341 0.92551 0.99479 0.0
C292 C 0.4003 0.81471 0.93879 0.0
C293 C 0.38148 0.78714 0.96742 0.0
C294 C 0.3666 0.79013 1.00534 0.0
C295 C 0.3758 0.75705 0.95454 0.0
C296 C 0.34122 0.73319 1.0185 0.0
C297 C 0.35594 0.73022 0.9801 0.0
C298 C 0.34669 0.76345 1.03065 0.0
C299 C 0.4522 0.9207 0.88942 0.0
O300 O 0.38582 0.89294 0.82008 0.0
O301 O 0.40571 0.8624 0.84529 0.0
O302 O 0.34221 0.91785 0.8955 0.0
O303 O 0.38808 0.95096 0.86717 0.0
O304 O 0.33318 0.85787 0.88615 0.0
O305 O 0.3597 0.86632 0.94357 0.0
O306 O 0.41272 0.89759 0.99239 0.0
O307 O 0.40466 0.93466 0.95796 0.0
O308 O 0.42172 0.84087 0.95796 0.0
O309 O 0.38359 0.81967 0.90931 0.0
O310 O 0.45531 0.90681 0.92467 0.0
O311 O 0.42378 0.90732 0.87686 0.0
H312 H 0.30111 0.93923 0.86622 0.0
H313 H 0.37871 0.94891 0.78526 0.0
H314 H 0.3491 0.94468 0.71863 0.0
H315 H 0.27058 0.93376 0.79871 0.0
H316 H 0.37046 0.81314 1.01541 0.0
H317 H 0.38666 0.75434 0.92469 0.0
H318 H 0.35227 0.70726 0.97012 0.0
H319 H 0.3364 0.76677 1.06067 0.0
Gd320 Gd 0.46712 0.36961 0.19996 0.0
Gd321 Gd 0.52812 0.42071 0.21817 0.0
C322 C 0.51672 0.40649 1.11051 0.0
C323 C 0.4116 0.32637 0.17298 0.0
C324 C 0.38761 0.32054 0.13944 0.0
C325 C 0.35741 0.29384 0.14406 0.0
C326 C 0.39385 0.34188 1.10427 0.0
C327 C 0.33939 0.31039 1.07956 0.0
C328 C 0.36974 0.33709 1.07485 0.0
C329 C 0.33349 0.28858 1.114 0.0
C330 C 0.5013 0.34754 0.24526 0.0
C331 C 0.47228 0.40576 0.29708 0.0
C332 C 0.58565 0.45283 0.24719 0.0
C333 C 0.60567 0.44269 0.27006 0.0
C334 C 0.59179 0.41533 0.2967 0.0
C335 C 0.63822 0.45792 0.26096 0.0
C336 C 0.64289 0.41864 0.30562 0.0
C337 C 0.65678 0.4461 0.27885 0.0
C338 C 0.6102 0.40346 0.31435 0.0
C339 C 0.49113 0.43866 0.17551 0.0
O340 O 0.48756 0.38512 1.12563 0.0
O341 O 0.53829 0.4228 0.14153 0.0
O342 O 0.43794 0.32843 0.15921 0.0
O343 O 0.41616 0.34761 0.20273 0.0
O344 O 0.47256 0.34035 0.2531 0.0
O345 O 0.51207 0.36826 0.21406 0.0
O346 O 0.5033 0.42198 0.28644 0.0
O347 O 0.45315 0.38475 0.26678 0.0
O348 O 0.56132 0.4502 0.26918 0.0
O349 O 0.57845 0.44236 0.20673 0.0
O350 O 0.52163 0.45361 0.17108 0.0
O351 O 0.48343 0.41921 0.20667 0.0
H352 H 0.35227 0.27715 0.17112 0.0
H353 H 0.41726 0.36217 1.09967 0.0
H354 H 0.37488 0.35394 1.04801 0.0
H355 H 0.31029 0.2678 1.118 0.0
H356 H 0.56659 0.40286 0.30344 0.0
H357 H 0.64918 0.47874 0.23969 0.0
H358 H 0.68194 0.45846 0.27199 0.0
H359 H 0.59886 0.38279 0.33586 0.0
Gd360 Gd 0.08934 0.46972 0.55827 0.0
Gd361 Gd 0.10899 0.53325 0.58751 0.0
C362 C 0.10192 0.52116 0.47452 0.0
C363 C 0.06617 0.4099 0.54148 0.0
C364 C 0.063 0.39107 0.50206 0.0
C365 C 0.06348 0.36263 0.50644 0.0
C366 C 0.0607 0.40192 0.45979 0.0
C367 C 0.05911 0.35577 0.42626 0.0
C368 C 0.05859 0.38435 0.42227 0.0
C369 C 0.06148 0.345 0.46875 0.0
C370 C 0.15243 0.50364 0.57922 0.0
C371 C 0.06952 0.47856 0.665 0.0
C372 C 0.15125 0.59201 0.59881 0.0
C373 C 0.18195 0.60853 0.62218 0.0
C374 C 0.18537 0.62695 0.65963 0.0
C375 C 0.20785 0.60548 0.60802 0.0
C376 C 0.23902 0.63667 0.6708 0.0
C377 C 0.23606 0.61941 0.63206 0.0
C378 C 0.21348 0.64071 0.68381 0.0
C379 C 0.04767 0.50056 0.5696 0.0
O380 O 0.09293 0.49073 0.48476 0.0
O381 O 0.10886 0.54087 0.50937 0.0
O382 O 0.09505 0.42838 0.55484 0.0
O383 O 0.0493 0.42386 0.54215 0.0
O384 O 0.14111 0.48727 0.54323 0.0
O385 O 0.12979 0.5027 0.60131 0.0
O386 O 0.08877 0.50967 0.65689 0.0
O387 O 0.06538 0.45877 0.63108 0.0
O388 O 0.12551 0.57766 0.62322 0.0
O389 O 0.1504 0.57536 0.56434 0.0
O390 O 0.0593 0.52335 0.5988 0.0
O391 O 0.06964 0.50046 0.54814 0.0
H392 H 0.06549 0.35413 0.53898 0.0
H393 H 0.06041 0.4239 0.45578 0.0
H394 H 0.05585 0.39288 0.39016 0.0
H395 H 0.06185 0.32307 0.47278 0.0
H396 H 0.16592 0.62985 0.67108 0.0
H397 H 0.20619 0.59164 0.57898 0.0
H398 H 0.25521 0.61589 0.62101 0.0
H399 H 0.21445 0.65315 0.71408 0.0
Gd400 Gd 0.60597 0.09286 0.90328 0.0
Gd401 Gd 0.55599 0.10564 0.91097 0.0
C402 C 0.57721 0.10767 0.80689 0.0
C403 C 0.65292 0.08365 0.88642 0.0
C404 C 0.66344 0.07037 0.85136 0.0
C405 C 0.68555 0.06083 0.86113 0.0
C406 C 0.65246 0.06822 0.80781 0.0
C407 C 0.68648 0.04804 0.78349 0.0
C408 C 0.6639 0.05715 0.77413 0.0
C409 C 0.69693 0.04952 0.82735 0.0
C410 C 0.62613 0.14935 0.9465 0.0
C411 C 0.56274 0.06191 0.99445 0.0
C412 C 0.52477 0.13374 0.93309 0.0
C413 C 0.53594 0.16412 0.95557 0.0
C414 C 0.51842 0.1798 0.95449 0.0
C415 C 0.56618 0.17916 0.97431 0.0
C416 C 0.5613 0.22518 0.99201 0.0
C417 C 0.57879 0.20936 0.99218 0.0
C418 C 0.53091 0.21009 0.97307 0.0
C419 C 0.53782 0.05041 0.86893 0.0
O420 O 0.59636 0.09844 0.82619 0.0
O421 O 0.56 0.11446 0.83428 0.0
O422 O 0.65255 0.10948 0.87592 0.0
O423 O 0.62807 0.06367 0.90914 0.0
O424 O 0.62868 0.12578 0.96088 0.0
O425 O 0.60865 0.14018 0.91201 0.0
O426 O 0.5514 0.08087 0.98142 0.0
O427 O 0.58346 0.06043 0.96675 0.0
O428 O 0.52435 0.11092 0.95674 0.0
O429 O 0.53764 0.13659 0.8942 0.0
O430 O 0.52405 0.06701 0.86297 0.0
O431 O 0.55559 0.06096 0.902 0.0
H432 H 0.69417 0.0624 0.89476 0.0
H433 H 0.63523 0.07529 0.79978 0.0
H434 H 0.65478 0.05536 0.74076 0.0
H435 H 0.71407 0.04231 0.8353 0.0
H436 H 0.4952 0.16864 0.93939 0.0
H437 H 0.5801 0.16747 0.9751 0.0
H438 H 0.60181 0.21977 1.0078 0.0
H439 H 0.51675 0.22154 0.97322 0.0
Gd440 Gd 0.51631 0.61303 0.19884 0.0
Gd441 Gd 0.45182 0.58141 0.22464 0.0
C442 C 0.46317 0.58367 1.11339 0.0
C443 C 0.57398 0.64027 0.17059 0.0
C444 C 0.59819 0.64379 0.13817 0.0
C445 C 0.60807 0.667 1.10464 0.0
C446 C 0.6149 0.62748 0.14453 0.0
C447 C 0.65117 0.65789 1.08482 0.0
C448 C 0.64106 0.63437 1.11795 0.0
C449 C 0.63419 0.67388 1.07812 0.0
C450 C 0.49814 0.65271 0.24013 0.0
C451 C 0.50385 0.58489 0.30039 0.0
C452 C 0.39571 0.57197 0.24256 0.0
C453 C 0.38509 0.59053 0.26812 0.0
C454 C 0.35577 0.58831 0.25949 0.0
C455 C 0.40542 0.61229 0.29952 0.0
C456 C 0.3672 0.62923 0.31427 0.0
C457 C 0.3967 0.6316 0.32207 0.0
C458 C 0.34664 0.6073 0.28296 0.0
C459 C 0.4658 0.53743 0.19804 0.0
O460 O 0.49409 0.59975 1.12506 0.0
O461 O 0.44234 0.57397 0.14734 0.0
O462 O 0.55421 0.65 0.1597 0.0
O463 O 0.56154 0.61529 0.19671 0.0
O464 O 0.52387 0.65239 0.24838 0.0
O465 O 0.48349 0.63197 0.21121 0.0
O466 O 0.47734 0.58651 0.29402 0.0
O467 O 0.52144 0.58964 0.26421 0.0
O468 O 0.40927 0.55912 0.26528 0.0
O469 O 0.41125 0.58582 0.20638 0.0
O470 O 0.44775 0.5338 0.23183 0.0
O471 O 0.47792 0.56536 0.18371 0.0
H472 H 0.59605 0.68038 1.09946 0.0
H473 H 0.60831 0.60997 0.17081 0.0
H474 H 0.65369 0.62167 1.12381 0.0
H475 H 0.64095 0.6916 1.0521 0.0
H476 H 0.3399 0.57171 0.23504 0.0
H477 H 0.42827 0.61456 0.30637 0.0
H478 H 0.41261 0.64756 0.34708 0.0
H479 H 0.32347 0.60452 0.27735 0.0
H480 H 0.46506 0.17118 0.30411 0.0
H481 H 0.56392 0.208 0.33507 0.0
H482 H 0.57524 0.26218 0.31336 0.0
H483 H 0.47417 0.22151 0.21005 0.0
H484 H 0.44067 0.22538 0.22572 0.0
H485 H 0.44201 0.19027 0.24115 0.0
H486 H 0.4338 0.19983 0.32385 0.0
H487 H 0.43293 0.23512 0.30818 0.0
H488 H 0.46084 0.23725 0.34919 0.0
H489 H 0.57492 0.31386 0.28124 0.0
H490 H 0.56173 0.35485 0.25642 0.0
H491 H 0.46247 0.28344 0.25591 0.0
C492 C 0.48923 0.19052 0.30614 0.0
C493 C 0.51363 0.18491 0.32107 0.0
C494 C 0.54473 0.21136 0.32381 0.0
C495 C 0.55134 0.24234 0.31138 0.0
C496 C 0.52662 0.24691 0.29645 0.0
C497 C 0.49605 0.2215 0.29469 0.0
C498 C 0.473 0.23229 0.28056 0.0
C499 C 0.4565 0.2164 0.23678 0.0
C500 C 0.44871 0.22574 0.31765 0.0
C501 C 0.4951 0.26768 0.27398 0.0
C502 C 0.52611 0.27593 0.28238 0.0
C503 C 0.55052 0.3074 0.27578 0.0
C504 C 0.54287 0.33073 0.26155 0.0
C505 C 0.511 0.32298 0.25517 0.0
C506 C 0.48711 0.29072 0.26116 0.0
H507 H 0.31262 0.49309 0.60295 0.0
H508 H 0.32601 0.53805 0.73129 0.0
H509 H 0.28058 0.54599 0.71692 0.0
H510 H 0.28423 0.54235 0.54329 0.0
H511 H 0.25587 0.50924 0.5109 0.0
H512 H 0.29199 0.51099 0.52869 0.0
H513 H 0.25915 0.45584 0.56633 0.0
H514 H 0.22303 0.45419 0.54915 0.0
H515 H 0.22958 0.44993 0.60717 0.0
H516 H 0.22976 0.5445 0.69173 0.0
H517 H 0.17961 0.53474 0.65727 0.0
H518 H 0.19735 0.48988 0.54532 0.0
C519 C 0.30668 0.50563 0.62727 0.0
C520 C 0.32373 0.51576 0.66795 0.0
C521 C 0.314 0.53073 0.69959 0.0
C522 C 0.28798 0.53519 0.69177 0.0
C523 C 0.27116 0.52425 0.65207 0.0
C524 C 0.28025 0.50995 0.62013 0.0
C525 C 0.25678 0.4986 0.58157 0.0
C526 C 0.2732 0.51632 0.53852 0.0
C527 C 0.24122 0.4625 0.57572 0.0
C528 C 0.23276 0.50794 0.59728 0.0
C529 C 0.24171 0.52304 0.63788 0.0
C530 C 0.22284 0.53299 0.65971 0.0
C531 C 0.19421 0.52726 0.63988 0.0
C532 C 0.1842 0.51159 0.59842 0.0
C533 C 0.20419 0.50216 0.57683 0.0
H534 H 0.80401 0.27781 1.01699 0.0
H535 H 0.78474 0.35372 0.98836 0.0
H536 H 0.72929 0.3137 0.96857 0.0
H537 H 0.75831 0.22543 0.93075 0.0
H538 H 0.74468 0.18998 0.96389 0.0
H539 H 0.782 0.22469 0.97624 0.0
H540 H 0.7636 0.22409 1.05725 0.0
H541 H 0.7263 0.18922 1.04523 0.0
H542 H 0.72714 0.22402 1.06721 0.0
H543 H 0.67503 0.262 0.94455 0.0
H544 H 0.62985 0.20788 0.92944 0.0
H545 H 0.68488 0.16739 0.98087 0.0
C546 C 0.7881 0.28615 1.00697 0.0
C547 C 0.79905 0.31922 1.0045 0.0
C548 C 0.77713 0.32874 0.99116 0.0
C549 C 0.74552 0.306 0.97944 0.0
C550 C 0.73569 0.27352 0.98169 0.0
C551 C 0.75646 0.26383 0.99607 0.0
C552 C 0.74054 0.22782 0.99683 0.0
C553 C 0.75739 0.21632 0.96504 0.0
C554 C 0.73932 0.21557 1.04446 0.0
C555 C 0.70759 0.21839 0.98014 0.0
C556 C 0.70505 0.24487 0.97088 0.0
C557 C 0.67697 0.24134 0.9526 0.0
C558 C 0.65122 0.21036 0.94408 0.0
C559 C 0.65307 0.18287 0.95467 0.0
C560 C 0.68196 0.1875 0.97301 0.0
H561 H 0.53821 0.71333 0.27515 0.0
H562 H 0.44215 0.65196 0.23061 0.0
H563 H 0.42806 0.69218 0.25288 0.0
H564 H 0.52257 0.75156 0.36723 0.0
H565 H 0.55536 0.79054 0.35521 0.0
H566 H 0.55738 0.75586 0.33981 0.0
H567 H 0.56886 0.77555 0.25817 0.0
H568 H 0.56699 0.81034 0.27337 0.0
H569 H 0.542 0.78489 0.22974 0.0
H570 H 0.42361 0.7389 0.28522 0.0
H571 H 0.43133 0.79012 0.31296 0.0
H572 H 0.53196 0.82621 0.32221 0.0
C573 C 0.51413 0.70824 0.27048 0.0
C574 C 0.49088 0.67851 0.25279 0.0
C575 C 0.46008 0.67371 0.24566 0.0
C576 C 0.45189 0.69667 0.25799 0.0
C577 C 0.4751 0.7254 0.2759 0.0
C578 C 0.50586 0.73166 0.28089 0.0
C579 C 0.5269 0.76566 0.29706 0.0
C580 C 0.54141 0.76591 0.34253 0.0
C581 C 0.55272 0.78527 0.26253 0.0
C582 C 0.50316 0.77733 0.30098 0.0
C583 C 0.47324 0.75342 0.28959 0.0
C584 C 0.4471 0.7578 0.29346 0.0
C585 C 0.45163 0.78718 0.30884 0.0
C586 C 0.48216 0.81278 0.31819 0.0
C587 C 0.50828 0.8075 0.31427 0.0
H588 H 0.70931 0.52359 0.70084 0.0
H589 H 0.66028 0.51084 0.57584 0.0
H590 H 0.7048 0.51139 0.53582 0.0
H591 H 0.78913 0.57602 0.65735 0.0
H592 H 0.80733 0.55922 0.69179 0.0
H593 H 0.77207 0.55882 0.71066 0.0
H594 H 0.74399 0.49802 0.72103 0.0
H595 H 0.77941 0.49869 0.70266 0.0
H596 H 0.74228 0.47355 0.675 0.0
H597 H 0.75791 0.51737 0.50806 0.0
H598 H 0.80872 0.51841 0.49699 0.0
H599 H 0.82244 0.52324 0.63975 0.0
C600 C 0.70794 0.52096 0.66503 0.0
C601 C 0.68087 0.51721 0.64174 0.0
C602 C 0.68037 0.51367 0.5948 0.0
C603 C 0.70581 0.51413 0.57159 0.0
C604 C 0.73213 0.51806 0.59537 0.0
C605 C 0.73321 0.52107 0.64118 0.0
C606 C 0.76391 0.52403 0.65885 0.0
C607 C 0.78431 0.55645 0.68097 0.0
C608 C 0.75694 0.4969 0.69131 0.0
C609 C 0.77957 0.52145 0.61619 0.0
C610 C 0.76123 0.5189 0.57975 0.0
C611 C 0.77174 0.51823 0.53659 0.0
C612 C 0.80096 0.51916 0.5305 0.0
C613 C 0.81973 0.52049 0.56726 0.0
C614 C 0.80866 0.5218 0.61073 0.0
H615 H 0.27578 0.79943 0.89008 0.0
H616 H 0.3293 0.82931 1.01273 0.0
H617 H 0.28501 0.78477 1.05265 0.0
H618 H 0.19885 0.77475 0.93935 0.0
H619 H 0.17745 0.7408 0.9039 0.0
H620 H 0.21346 0.77467 0.88427 0.0
H621 H 0.2368 0.73856 0.86783 0.0
H622 H 0.20093 0.7045 0.88744 0.0
H623 H 0.23834 0.71382 0.91169 0.0
H624 H 0.23248 0.73936 1.08138 0.0
H625 H 0.17953 0.69325 1.09502 0.0
H626 H 0.15883 0.68876 0.95418 0.0
C627 C 0.27823 0.79655 0.92533 0.0
C628 C 0.30658 0.81833 0.94801 0.0
C629 C 0.30835 0.81327 0.9942 0.0
C630 C 0.28306 0.78794 1.01735 0.0
C631 C 0.25553 0.76721 0.99428 0.0
C632 C 0.253 0.77099 0.94915 0.0
C633 C 0.22061 0.74502 0.93259 0.0
C634 C 0.20146 0.75969 0.91392 0.0
C635 C 0.22441 0.72423 0.89778 0.0
C636 C 0.20542 0.72607 0.97521 0.0
C637 C 0.22598 0.73971 1.01047 0.0
C638 C 0.2168 0.728 1.0537 0.0
C639 C 0.18635 0.70175 1.06119 0.0
C640 C 0.16478 0.68663 1.02586 0.0
C641 C 0.17478 0.69907 0.98201 0.0
H642 H 0.5291 0.23667 1.05472 0.0
H643 H 0.6206 0.27768 0.99139 0.0
H644 H 0.64567 0.30784 1.0588 0.0
H645 H 0.55898 0.30904 0.15056 0.0
H646 H 0.53143 0.27806 0.18709 0.0
H647 H 0.52097 0.27918 1.13001 0.0
H648 H 0.50815 0.22096 1.12381 0.0
H649 H 0.52065 0.22097 0.1793 0.0
H650 H 0.53897 0.21148 0.13437 0.0
H651 H 0.6614 0.30608 1.13336 0.0
H652 H 0.66381 0.27708 0.19886 0.0
H653 H 0.56413 0.23961 0.22195 0.0
C654 C 0.55407 0.25403 1.05432 0.0
C655 C 0.57305 0.25437 1.01884 0.0
C656 C 0.6057 0.27684 1.01874 0.0
C657 C 0.62013 0.29419 1.05711 0.0
C658 C 0.60149 0.28913 1.09495 0.0
C659 C 0.56867 0.27085 1.09315 0.0
C660 C 0.55458 0.26236 0.13957 0.0
C661 C 0.54074 0.28347 0.15257 0.0
C662 C 0.52922 0.22686 0.14445 0.0
C663 C 0.58422 0.27123 0.16611 0.0
C664 C 0.61127 0.28904 0.14067 0.0
C665 C 0.64062 0.29332 0.15414 0.0
C666 C 0.64188 0.27664 0.19149 0.0
C667 C 0.61393 0.25594 0.21482 0.0
C668 C 0.58566 0.25564 0.20443 0.0
H669 H 0.31828 0.60101 0.37028 0.0
H670 H 0.39501 0.69251 0.33129 0.0
H671 H 0.40015 0.7113 0.40779 0.0
H672 H 0.29756 0.6317 0.48792 0.0
H673 H 0.29042 0.59482 0.51236 0.0
H674 H 0.27738 0.59554 0.45643 0.0
H675 H 0.30727 0.5678 0.4296 0.0
H676 H 0.32224 0.5681 0.48359 0.0
H677 H 0.34949 0.58649 0.43811 0.0
H678 H 0.41802 0.70928 0.48096 0.0
H679 H 0.43939 0.6898 0.53912 0.0
H680 H 0.35225 0.5996 0.54021 0.0
C681 C 0.33414 0.62575 0.37778 0.0
C682 C 0.35663 0.6452 0.34582 0.0
C683 C 0.37758 0.67736 0.35565 0.0
C684 C 0.38075 0.68806 0.39944 0.0
C685 C 0.36261 0.66628 0.43264 0.0
C686 C 0.33829 0.63598 0.42208 0.0
C687 C 0.32833 0.61434 0.46262 0.0
C688 C 0.29655 0.60879 0.48092 0.0
C689 C 0.32684 0.58241 0.45285 0.0
C690 C 0.35491 0.6348 0.4941 0.0
C691 C 0.37329 0.66532 0.47748 0.0
C692 C 0.40307 0.68601 0.49532 0.0
C693 C 0.41521 0.67471 0.52841 0.0
C694 C 0.39757 0.64298 0.54343 0.0
C695 C 0.36623 0.62385 0.52858 0.0
H696 H 0.73148 0.37121 0.95601 0.0
H697 H 0.72788 0.45735 0.97376 0.0
H698 H 0.69596 0.4458 0.90606 0.0
H699 H 0.75478 0.38143 0.86306 0.0
H700 H 0.73298 0.34283 0.83775 0.0
H701 H 0.73727 0.34574 0.89657 0.0
H702 H 0.67673 0.31417 0.9073 0.0
H703 H 0.67206 0.31036 0.84771 0.0
H704 H 0.65208 0.32658 0.87923 0.0
H705 H 0.69056 0.44138 0.82675 0.0
H706 H 0.70841 0.4421 0.74997 0.0
H707 H 0.71532 0.35869 0.77737 0.0
C708 C 0.72183 0.38626 0.94734 0.0
C709 C 0.73241 0.41531 0.96953 0.0
C710 C 0.72009 0.43499 0.95702 0.0
C711 C 0.70186 0.42849 0.91843 0.0
C712 C 0.69592 0.40208 0.89308 0.0
C713 C 0.70451 0.38041 0.90798 0.0
C714 C 0.70311 0.35889 0.87058 0.0
C715 C 0.73388 0.35726 0.86678 0.0
C716 C 0.67427 0.32553 0.87655 0.0
C717 C 0.69856 0.37571 0.83119 0.0
C718 C 0.69234 0.39923 0.84504 0.0
C719 C 0.69403 0.42226 0.81544 0.0
C720 C 0.70441 0.42272 0.77187 0.0
C721 C 0.71284 0.40024 0.75827 0.0
C722 C 0.7079 0.37536 0.7872 0.0
H723 H 0.28604 0.71648 1.0609 0.0
H724 H 0.35846 0.69082 1.04779 0.0
H725 H 0.34394 0.66448 1.12052 0.0
H726 H 0.30796 0.74955 0.1508 0.0
H727 H 0.27052 0.73854 0.17702 0.0
H728 H 0.27295 0.73746 1.11812 0.0
H729 H 0.22814 0.67806 1.12072 0.0
H730 H 0.22719 0.67967 0.18065 0.0
H731 H 0.23326 0.65004 0.15395 0.0
H732 H 0.34331 0.66704 0.19961 0.0
H733 H 0.35626 0.69777 0.2686 0.0
H734 H 0.28468 0.7225 0.24038 0.0
C735 C 0.29745 0.70369 1.07284 0.0
C736 C 0.32369 0.70622 1.04963 0.0
C737 C 0.3382 0.68915 1.06505 0.0
C738 C 0.33002 0.6741 1.10669 0.0
C739 C 0.3074 0.67642 1.13244 0.0
C740 C 0.2905 0.69007 1.11544 0.0
C741 C 0.27453 0.69809 0.15234 0.0
C742 C 0.28201 0.73293 0.1494 0.0
C743 C 0.23865 0.67508 0.1519 0.0
C744 C 0.28962 0.69229 0.19268 0.0
C745 C 0.30682 0.67774 0.18075 0.0
C746 C 0.32902 0.67722 0.20966 0.0
C747 C 0.3363 0.69472 0.24903 0.0
C748 C 0.32111 0.71208 0.25933 0.0
C749 C 0.29564 0.70839 0.23322 0.0
H750 H 0.69678 0.45566 0.35034 0.0
H751 H 0.63143 0.35793 0.31812 0.0
H752 H 0.64853 0.34056 0.3838 0.0
H753 H 0.75492 0.43561 0.42775 0.0
H754 H 0.75982 0.46716 0.46386 0.0
H755 H 0.75913 0.47167 0.40432 0.0
H756 H 0.71494 0.48508 0.41331 0.0
H757 H 0.71358 0.47979 0.47191 0.0
H758 H 0.67822 0.45693 0.44005 0.0
H759 H 0.64814 0.33562 0.46254 0.0
H760 H 0.63236 0.34441 0.53586 0.0
H761 H 0.7019 0.44402 0.52677 0.0
C762 C 0.68797 0.43062 0.35565 0.0
C763 C 0.66246 0.40818 0.33015 0.0
C764 C 0.65076 0.37555 0.33785 0.0
C765 C 0.66061 0.3655 0.37511 0.0
C766 C 0.68237 0.38837 0.40409 0.0
C767 C 0.6972 0.4205 0.39364 0.0
C768 C 0.71277 0.44055 0.43439 0.0
C769 C 0.74879 0.45456 0.43244 0.0
C770 C 0.7043 0.46703 0.44022 0.0
C771 C 0.69842 0.41532 0.47038 0.0
C772 C 0.68289 0.38512 0.45218 0.0
C773 C 0.66117 0.35892 0.47727 0.0
C774 C 0.65228 0.36407 0.51933 0.0
C775 C 0.66542 0.39518 0.53602 0.0
C776 C 0.69134 0.42019 0.51373 0.0
H777 H 0.26786 0.68165 0.89861 0.0
H778 H 0.27818 0.59894 0.91376 0.0
H779 H 0.30279 0.60873 0.83997 0.0
H780 H 0.23909 0.67267 0.81168 0.0
H781 H 0.25961 0.7106 0.78348 0.0
H782 H 0.26104 0.70909 0.84238 0.0
H783 H 0.32153 0.73898 0.84165 0.0
H784 H 0.32086 0.74127 0.78175 0.0
H785 H 0.34246 0.72469 0.80833 0.0
H786 H 0.29818 0.60938 0.76059 0.0
H787 H 0.26974 0.60405 0.69147 0.0
H788 H 0.26866 0.69042 0.72046 0.0
C789 C 0.27746 0.66705 0.88762 0.0
C790 C 0.27021 0.63904 0.91109 0.0
C791 C 0.28271 0.62012 0.89571 0.0
C792 C 0.29713 0.62578 0.85386 0.0
C793 C 0.29991 0.65111 0.82838 0.0
C794 C 0.29204 0.67266 0.8457 0.0
C795 C 0.29083 0.69361 0.80913 0.0
C796 C 0.26076 0.69647 0.81176 0.0
C797 C 0.3207 0.72658 0.81027 0.0
C798 C 0.29122 0.67544 0.7686 0.0
C799 C 0.2989 0.65247 0.78011 0.0
C800 C 0.29344 0.62802 0.75085 0.0
C801 C 0.27706 0.62508 0.71131 0.0
C802 C 0.26632 0.64653 0.70129 0.0
C803 C 0.27633 0.67358 0.72804 0.0
H804 H 0.40017 0.91904 1.09236 0.0
H805 H 0.45909 0.98882 0.99354 0.0
H806 H 0.48225 0.02938 1.05225 0.0
H807 H 0.38663 0.97644 0.15969 0.0
H808 H 0.38683 0.95909 0.21272 0.0
H809 H 0.37436 0.93488 0.16342 0.0
H810 H 0.41528 0.91803 0.17935 0.0
H811 H 0.42932 0.94299 0.22791 0.0
H812 H 0.45629 0.94769 0.18381 0.0
H813 H 0.49968 0.06569 1.12441 0.0
H814 H 0.51238 0.09037 0.19866 0.0
H815 H 0.44228 0.00101 0.25712 0.0
C816 C 0.41809 0.94278 1.08273 0.0
C817 C 0.42751 0.94943 1.03599 0.0
C818 C 0.45086 0.98173 1.02738 0.0
C819 C 0.46441 0.00547 1.0613 0.0
C820 C 0.45474 -0.00173 1.10608 0.0
C821 C 0.43184 0.96755 1.11698 0.0
C822 C 0.42554 0.96675 0.16815 0.0
C823 C 0.39129 0.9588 0.1765 0.0
C824 C 0.43194 0.94238 0.19126 0.0
C825 C 0.44914 0.00111 0.18451 0.0
C826 C 0.46525 0.01888 0.14751 0.0
C827 C 0.48744 0.0513 0.15318 0.0
C828 C 0.4946 0.06552 0.19645 0.0
C829 C 0.47913 0.04879 0.23622 0.0
C830 C 0.45535 0.01556 0.2289 0.0
H831 H 0.49714 0.45511 0.36724 0.0
H832 H 0.41219 0.36761 0.33408 0.0
H833 H 0.38644 0.3721 0.40233 0.0
H834 H 0.49202 0.44604 0.49135 0.0
H835 H 0.50497 0.48712 0.50067 0.0
H836 H 0.51739 0.47509 0.45152 0.0
H837 H 0.49384 0.50471 0.40473 0.0
H838 H 0.47747 0.51297 0.4541 0.0
H839 H 0.45241 0.49119 0.40889 0.0
H840 H 0.36833 0.38752 0.48241 0.0
H841 H 0.36204 0.4116 0.55139 0.0
H842 H 0.4567 0.49107 0.53375 0.0
C843 C 0.47322 0.43645 0.37418 0.0
C844 C 0.45766 0.41042 0.34275 0.0
C845 C 0.42582 0.38779 0.35542 0.0
C846 C 0.4106 0.39016 0.39525 0.0
C847 C 0.42647 0.41576 0.42495 0.0
C848 C 0.45723 0.43856 0.41444 0.0
C849 C 0.46821 0.46482 0.45023 0.0
C850 C 0.49748 0.46867 0.47472 0.0
C851 C 0.47362 0.49541 0.42811 0.0
C852 C 0.44026 0.45343 0.48334 0.0
C853 C 0.41603 0.42484 0.46809 0.0
C854 C 0.38773 0.41002 0.49335 0.0
C855 C 0.38424 0.42423 0.53351 0.0
C856 C 0.40837 0.45408 0.55054 0.0
C857 C 0.43701 0.46851 0.52359 0.0
H858 H 0.04146 0.42094 0.72844 0.0
H859 H 0.04842 0.51238 0.70916 0.0
H860 H 0.01511 0.50275 0.77065 0.0
H861 H 0.95958 0.37586 0.77502 0.0
H862 H 0.96819 0.35597 0.81891 0.0
H863 H -0.00805 0.36828 0.76891 0.0
H864 H 0.04218 0.39991 0.81573 0.0
H865 H 0.0186 0.3876 0.86588 0.0
H866 H 0.04441 0.42919 0.85433 0.0
H867 H 0.96488 0.47502 0.83802 0.0
H868 H 0.93618 0.45318 0.90419 0.0
H869 H 0.9631 0.38083 0.90199 0.0
C870 C 0.03551 0.43885 0.73725 0.0
C871 C 0.04825 0.46795 0.70984 0.0
C872 C 0.03981 0.48989 0.72628 0.0
C873 C 0.01943 0.48389 0.76318 0.0
C874 C 0.00625 0.45543 0.78853 0.0
C875 C 0.01547 0.43371 0.77731 0.0
C876 C 0.00131 0.40702 0.81436 0.0
C877 C 0.97894 0.37485 0.79304 0.0
C878 C 0.02823 0.40583 0.83903 0.0
C879 C 0.9824 0.41664 0.84737 0.0
C880 C 0.9847 0.4441 0.83012 0.0
C881 C 0.96641 0.45553 0.85109 0.0
C882 C 0.94869 0.44196 0.89061 0.0
C883 C 0.94659 0.41516 0.91259 0.0
C884 C 0.96397 0.40198 0.88891 0.0
H885 H 0.50193 0.91663 0.19204 0.0
H886 H 0.51355 0.98808 0.28739 0.0
H887 H 0.5312 0.02786 0.22684 0.0
H888 H 0.57254 0.97185 1.12244 0.0
H889 H 0.55457 0.95396 1.07015 0.0
H890 H 0.54268 0.93048 1.12053 0.0
H891 H 0.48512 0.91473 1.1051 0.0
H892 H 0.49632 0.9389 1.05533 0.0
H893 H 0.47466 0.94506 1.09886 0.0
H894 H 0.55036 0.0632 0.15273 0.0
H895 H 0.56236 0.08667 1.0772 0.0
H896 H 0.54245 -0.00388 1.02371 0.0
C897 C 0.50796 0.94057 0.20053 0.0
C898 C 0.50528 0.94793 0.24689 0.0
C899 C 0.51453 0.98045 0.25393 0.0
C900 C 0.52491 0.00375 0.21894 0.0
C901 C 0.52726 -0.00415 0.17455 0.0
C902 C 0.51914 0.96487 0.16517 0.0
C903 C 0.52434 0.96319 1.1141 0.0
C904 C 0.55005 0.95432 1.10633 0.0
C905 C 0.49327 0.93899 1.09197 0.0
C906 C 0.5356 -0.00258 1.09611 0.0
C907 C 0.53745 0.01586 1.13213 0.0
C908 C 0.54794 0.04827 1.12474 0.0
C909 C 0.55507 0.06179 1.08077 0.0
C910 C 0.55374 0.04436 1.042 0.0
C911 C 0.54402 0.01118 1.05109 0.0
H912 H 0.59107 0.52882 0.49794 0.0
H913 H 0.53223 0.54177 0.59379 0.0
H914 H 0.5114 0.5608 0.53365 0.0
H915 H 0.60656 0.60376 0.43429 0.0
H916 H 0.60977 0.58941 0.38054 0.0
H917 H 0.62091 0.5762 0.42995 0.0
H918 H 0.58026 0.51625 0.4126 0.0
H919 H 0.57533 0.53237 0.36109 0.0
H920 H 0.54149 0.50685 0.39377 0.0
H921 H 0.49265 0.57631 0.4595 0.0
H922 H 0.47973 0.58624 0.38389 0.0
H923 H 0.55191 0.56877 0.32991 0.0
C924 C 0.57357 0.53535 0.50655 0.0
C925 C 0.56337 0.53258 0.55297 0.0
C926 C 0.54097 0.54284 0.56034 0.0
C927 C 0.52882 0.55403 0.52558 0.0
C928 C 0.53922 0.5565 0.48119 0.0
C929 C 0.56143 0.54761 0.47142 0.0
C930 C 0.56976 0.55478 0.42075 0.0
C931 C 0.60377 0.58268 0.41609 0.0
C932 C 0.56649 0.52581 0.3958 0.0
C933 C 0.54597 0.56486 0.40279 0.0
C934 C 0.52966 0.56702 0.43902 0.0
C935 C 0.506 0.57512 0.43155 0.0
C936 C 0.4984 0.58055 0.38744 0.0
C937 C 0.51408 0.57867 0.34843 0.0
C938 C 0.53881 0.57081 0.3575 0.0
H939 H 0.01452 0.60299 0.89657 0.0
H940 H 0.04628 0.5346 0.90255 0.0
H941 H 0.01661 0.50975 0.83827 0.0
H942 H 0.93436 0.55257 0.85086 0.0
H943 H 0.93571 0.58134 0.81163 0.0
H944 H 0.95937 0.59434 0.86143 0.0
H945 H 0.00953 0.62678 0.81407 0.0
H946 H 0.98598 0.61401 0.76417 0.0
H947 H 0.01896 0.60742 0.7706 0.0
H948 H 0.96448 0.47968 0.76894 0.0
H949 H 0.93255 0.47094 0.7049 0.0
H950 H 0.9383 0.5615 0.72496 0.0
C951 C 0.01473 0.58224 0.88432 0.0
C952 C 0.03349 0.57086 0.90828 0.0
C953 C 0.03281 0.54448 0.88783 0.0
C954 C 0.01463 0.52938 0.84928 0.0
C955 C -0.00471 0.53943 0.8273 0.0
C956 C -0.00331 0.56673 0.84336 0.0
C957 C 0.97734 0.5755 0.81021 0.0
C958 C 0.95008 0.576 0.83502 0.0
C959 C -0.00076 0.60787 0.78849 0.0
C960 C 0.96395 0.54871 0.77406 0.0
C961 C 0.97354 0.52728 0.78576 0.0
C962 C 0.96052 0.49873 0.76052 0.0
C963 C 0.94071 0.49299 0.72268 0.0
C964 C 0.93202 0.51488 0.70667 0.0
C965 C 0.94421 0.54357 0.7341 0.0
H966 H 0.53891 0.04912 0.47726 0.0
H967 H 0.4531 0.03724 0.41921 0.0
H968 H 0.42305 0.00582 0.4828 0.0
H969 H 0.54157 0.00288 0.48476 0.0
H970 H 0.54067 0.98176 0.53446 0.0
H971 H 0.55623 0.02396 0.536 0.0
H972 H 0.52022 0.01783 0.59916 0.0
H973 H 0.50405 0.97537 0.59872 0.0
H974 H 0.47824 0.99173 0.59639 0.0
H975 H 0.40159 0.95005 0.49215 0.0
H976 H 0.41051 0.92768 0.42465 0.0
H977 H 0.50296 0.95187 0.47177 0.0
C978 C 0.5136 0.03961 0.47904 0.0
C979 C 0.49789 0.04327 0.44237 0.0
C980 C 0.46547 0.03303 0.44581 0.0
C981 C 0.44848 0.01616 0.4831 0.0
C982 C 0.46264 0.00444 0.51212 0.0
C983 C 0.49579 0.01906 0.51398 0.0
C984 C 0.50424 -0.00419 0.53371 0.0
C985 C 0.53757 0.00141 0.52129 0.0
C986 C 0.50141 -0.00485 0.58493 0.0
C987 C 0.47672 0.96645 0.51417 0.0
C988 C 0.44988 0.96997 0.51468 0.0
C989 C 0.42367 0.9501 0.48835 0.0
C990 C 0.42926 0.93867 0.44897 0.0
C991 C 0.45929 0.94237 0.4411 0.0
C992 C 0.4811 0.95213 0.47637 0.0
H993 H 0.45527 0.50041 0.80409 0.0
H994 H 0.401 0.42024 0.7196 0.0
H995 H 0.4043 0.3855 0.77463 0.0
H996 H 0.50732 0.51718 0.8126 0.0
H997 H 0.52885 0.51311 0.85802 0.0
H998 H 0.49386 0.5156 0.86866 0.0
H999 H 0.4724 0.46519 0.91527 0.0
H1000 H 0.50755 0.46335 0.90293 0.0
H1001 H 0.46933 0.4296 0.89293 0.0
H1002 H 0.45098 0.38281 0.75722 0.0
H1003 H 0.48813 0.41194 0.69736 0.0
H1004 H 0.53382 0.49473 0.78032 0.0
C1005 C 0.44433 0.47521 0.79818 0.0
C1006 C 0.42993 0.46325 0.75685 0.0
C1007 C 0.413 0.43033 0.75057 0.0
C1008 C 0.41492 0.41047 0.78231 0.0
C1009 C 0.44028 0.42459 0.81207 0.0
C1010 C 0.45121 0.45603 0.82599 0.0
C1011 C 0.48425 0.46915 0.84413 0.0
C1012 C 0.50473 0.50589 0.8457 0.0
C1013 C 0.48323 0.45593 0.89145 0.0
C1014 C 0.49472 0.45326 0.81068 0.0
C1015 C 0.46905 0.42327 0.80114 0.0
C1016 C 0.46977 0.40683 0.76332 0.0
C1017 C 0.49001 0.42397 0.72839 0.0
C1018 C 0.51165 0.45652 0.73334 0.0
C1019 C 0.51576 0.4702 0.77578 0.0
H1020 H 0.97058 0.40468 1.07056 0.0
H1021 H 0.93939 0.44879 0.16588 0.0
H1022 H 0.97918 0.45246 0.2182 0.0
H1023 H 0.0502 0.42418 0.17117 0.0
H1024 H 0.07365 0.42983 1.1223 0.0
H1025 H 0.03689 0.39324 1.13047 0.0
H1026 H 0.01793 0.39949 1.05394 0.0
H1027 H 0.05539 0.43522 1.04639 0.0
H1028 H 0.01931 0.43592 1.0384 0.0
H1029 H 0.02552 0.502 0.20373 0.0
H1030 H 0.0346 0.54034 0.14558 0.0
H1031 H 0.05934 0.48827 1.0538 0.0
C1032 C 0.97294 0.41526 1.10293 0.0
C1033 C 0.9544 0.42906 1.11303 0.0
C1034 C 0.95483 0.43982 0.1563 0.0
C1035 C 0.97723 0.44136 0.18633 0.0
C1036 C 0.00324 0.44036 0.16844 0.0
C1037 C -0.00084 0.42224 1.13004 0.0
C1038 C 0.0312 0.43325 1.10916 0.0
C1039 C 0.049 0.41938 0.13489 0.0
C1040 C 0.03084 0.42558 1.05901 0.0
C1041 C 0.04504 0.46797 1.11967 0.0
C1042 C 0.03246 0.47066 0.16026 0.0
C1043 C 0.03387 0.49921 0.17161 0.0
C1044 C 0.03807 0.52058 0.13786 0.0
C1045 C 0.04569 0.51598 1.09441 0.0
C1046 C 0.05196 0.49112 1.08657 0.0
H1047 H 0.01733 0.45407 0.51065 0.0
H1048 H 0.01277 0.48099 0.6454 0.0
H1049 H 0.96971 0.42784 0.66195 0.0
H1050 H 0.96375 0.43719 0.47519 0.0
H1051 H 0.94118 0.39844 0.45045 0.0
H1052 H 0.98334 0.41661 0.45553 0.0
H1053 H 0.98033 0.37065 0.4975 0.0
H1054 H 0.93795 0.3497 0.49057 0.0
H1055 H 0.95483 0.35365 0.54497 0.0
H1056 H 0.91543 0.38734 0.65642 0.0
H1057 H 0.89031 0.41835 0.63619 0.0
H1058 H 0.91051 0.41369 0.4983 0.0
C1059 C 0.00719 0.44786 0.54377 0.0
C1060 C 0.01861 0.47074 0.57735 0.0
C1061 C 0.00484 0.46321 0.61977 0.0
C1062 C 0.98075 0.43262 0.62942 0.0
C1063 C 0.96773 0.41052 0.59482 0.0
C1064 C 0.98137 0.41779 0.55247 0.0
C1065 C 0.95733 0.39738 0.51844 0.0
C1066 C 0.96162 0.41344 0.47226 0.0
C1067 C 0.9576 0.36601 0.51266 0.0
C1068 C 0.92829 0.39167 0.54435 0.0
C1069 C 0.93358 0.38987 0.59007 0.0
C1070 C 0.91374 0.39214 0.62162 0.0
C1071 C 0.90053 0.41072 0.61041 0.0
C1072 C 0.90265 0.42109 0.56629 0.0
C1073 C 0.91178 0.4075 0.53258 0.0
H1074 H 0.44676 0.93888 0.80755 0.0
H1075 H 0.50918 0.92192 0.88961 0.0
H1076 H 0.54958 0.94414 0.83142 0.0
H1077 H 0.51856 0.96357 0.69546 0.0
H1078 H 0.50479 0.9896 0.67666 0.0
H1079 H 0.47705 0.9481 0.68673 0.0
H1080 H 0.47233 0.00459 0.72591 0.0
H1081 H 0.46209 0.98936 0.78177 0.0
H1082 H 0.44496 0.96313 0.73537 0.0
H1083 H 0.58647 -0.00203 0.81206 0.0
H1084 H 0.58235 0.03272 0.8656 0.0
H1085 H 0.51001 0.03523 0.78784 0.0
C1086 C 0.46882 0.93908 0.81196 0.0
C1087 C 0.47594 0.93104 0.85373 0.0
C1088 C 0.50402 0.93007 0.85884 0.0
C1089 C 0.52661 0.94158 0.8249 0.0
C1090 C 0.52194 0.95651 0.78788 0.0
C1091 C 0.49181 0.95163 0.77837 0.0
C1092 C 0.4948 0.97714 0.74685 0.0
C1093 C 0.49911 0.96906 0.69867 0.0
C1094 C 0.46695 0.98399 0.74775 0.0
C1095 C 0.52587 0.00326 0.76461 0.0
C1096 C 0.54457 0.98987 0.77701 0.0
C1097 C 0.57022 0.00653 0.80547 0.0
C1098 C 0.56758 0.02606 0.83665 0.0
C1099 C 0.54395 0.03426 0.83225 0.0
C1100 C 0.52658 0.02684 0.79258 0.0
H1101 H 0.41001 0.48118 0.1977 0.0
H1102 H 0.49127 0.54214 1.11668 0.0
H1103 H 0.46905 0.50585 1.05491 0.0
H1104 H 0.4035 0.42991 0.21075 0.0
H1105 H 0.37211 0.39238 0.19113 0.0
H1106 H 0.3652 0.42497 0.19979 0.0
H1107 H 0.34541 0.42237 1.12211 0.0
H1108 H 0.34936 0.38789 1.1136 0.0
H1109 H 0.36666 0.42036 1.07463 0.0
H1110 H 0.46834 0.45801 1.03372 0.0
H1111 H 0.50515 0.45735 1.08794 0.0
H1112 H 0.42809 0.40555 0.17917 0.0
C1113 C 0.4228 0.48637 0.16653 0.0
C1114 C 0.45305 0.51341 0.16275 0.0
C1115 C 0.46865 0.52072 1.1213 0.0
C1116 C 0.45541 0.50052 1.08537 0.0
C1117 C 0.42902 0.47049 1.09275 0.0
C1118 C 0.41087 0.46439 1.13151 0.0
C1119 C 0.39213 0.4291 0.1389 0.0
C1120 C 0.38285 0.41853 0.18806 0.0
C1121 C 0.36171 0.41414 1.1105 0.0
C1122 C 0.41624 0.42179 1.1189 0.0
C1123 C 0.43042 0.44177 1.08179 0.0
C1124 C 0.45909 0.4459 1.06517 0.0
C1125 C 0.48029 0.44608 1.09632 0.0
C1126 C 0.46927 0.43385 0.13908 0.0
C1127 C 0.43653 0.41706 0.14725 0.0
H1128 H 0.30442 0.9049 0.67967 0.0
H1129 H 0.27147 0.96555 0.73369 0.0
H1130 H 0.25685 0.97372 0.65863 0.0
H1131 H 0.34841 0.95286 0.60709 0.0
H1132 H 0.3433 0.92635 0.56207 0.0
H1133 H 0.33567 0.91168 0.61781 0.0
H1134 H 0.27891 0.86873 0.59609 0.0
H1135 H 0.28649 0.88337 0.53957 0.0
H1136 H 0.25291 0.88003 0.56945 0.0
H1137 H 0.26448 0.99139 0.58193 0.0
H1138 H 0.29592 0.01838 0.51503 0.0
H1139 H 0.32852 0.9508 0.50817 0.0
C1140 C 0.29286 0.9188 0.67561 0.0
C1141 C 0.28939 0.93489 0.71211 0.0
C1142 C 0.27409 0.95275 0.70617 0.0
C1143 C 0.26563 0.95744 0.66347 0.0
C1144 C 0.2726 0.94407 0.62723 0.0
C1145 C 0.28553 0.9246 0.63302 0.0
C1146 C 0.29867 0.92001 0.58982 0.0
C1147 C 0.33354 0.92829 0.59453 0.0
C1148 C 0.27799 0.88601 0.57272 0.0
C1149 C 0.29526 0.94344 0.5605 0.0
C1150 C 0.27825 0.95546 0.58165 0.0
C1151 C 0.27675 0.98136 0.56434 0.0
C1152 C 0.29465 -0.00339 0.52636 0.0
C1153 C 0.31402 0.9861 0.50682 0.0
C1154 C 0.31296 0.95832 0.52238 0.0
H1155 H 0.31733 0.35027 1.05896 0.0
H1156 H 0.30647 0.25877 1.02698 0.0
H1157 H 0.27133 0.25354 0.96446 0.0
H1158 H 0.23352 0.33021 1.02109 0.0
H1159 H 0.24898 0.37011 1.00044 0.0
H1160 H 0.26621 0.36283 1.04896 0.0
H1161 H 0.32131 0.39183 1.01115 0.0
H1162 H 0.30444 0.39914 0.96276 0.0
H1163 H 0.32649 0.37868 0.95742 0.0
H1164 H 0.25157 0.26529 0.89591 0.0
H1165 H 0.24826 0.29187 0.82898 0.0
H1166 H 0.26311 0.37254 0.90859 0.0
C1167 C 0.30652 0.32869 1.0397 0.0
C1168 C 0.31436 0.3049 1.04749 0.0
C1169 C 0.30034 0.27706 1.02156 0.0
C1170 C 0.28027 0.27386 0.98621 0.0
C1171 C 0.2738 0.29832 0.97824 0.0
C1172 C 0.28594 0.32492 1.00494 0.0
C1173 C 0.27894 0.34961 0.98602 0.0
C1174 C 0.2555 0.35339 1.01591 0.0
C1175 C 0.30961 0.38166 0.97889 0.0
C1176 C 0.26375 0.3341 0.94234 0.0
C1177 C 0.26037 0.30424 0.93893 0.0
C1178 C 0.25286 0.28806 0.89869 0.0
C1179 C 0.2508 0.30351 0.8605 0.0
C1180 C 0.25594 0.3349 0.8627 0.0
C1181 C 0.25981 0.34899 0.90504 0.0
H1182 H 0.02904 0.34766 0.17953 0.0
H1183 H 0.95162 0.25296 0.20557 0.0
H1184 H 0.979 0.24938 0.27223 0.0
H1185 H 0.09542 0.3362 0.23864 0.0
H1186 H 0.11304 0.37631 0.25873 0.0
H1187 H 0.09487 0.36647 0.20453 0.0
H1188 H 0.05965 0.38994 0.22687 0.0
H1189 H 0.07701 0.39937 0.2809 0.0
H1190 H 0.03473 0.37471 0.27554 0.0
H1191 H 0.00265 0.26302 0.34595 0.0
H1192 H 0.02111 0.29157 0.41674 0.0
H1193 H 0.08595 0.37714 0.34492 0.0
C1194 C 0.01888 0.32563 0.19814 0.0
C1195 C 0.98847 0.30064 0.18781 0.0
C1196 C 0.9752 0.27219 0.2128 0.0
C1197 C 0.99067 0.26998 0.2507 0.0
C1198 C 0.01957 0.29619 0.26247 0.0
C1199 C 0.03405 0.32326 0.2361 0.0
C1200 C 0.06133 0.3504 0.26008 0.0
C1201 C 0.09305 0.35776 0.23926 0.0
C1202 C 0.0579 0.38029 0.26094 0.0
C1203 C 0.05726 0.33572 0.30578 0.0
C1204 C 0.03397 0.30404 0.30612 0.0
C1205 C 0.02183 0.28736 0.34591 0.0
C1206 C 0.03245 0.30379 0.38611 0.0
C1207 C 0.05484 0.33659 0.38608 0.0
C1208 C 0.0688 0.35203 0.34563 0.0
H1209 H 0.70692 0.07417 0.70215 0.0
H1210 H 0.68832 0.9929 0.78306 0.0
H1211 H 0.69018 0.96483 0.71611 0.0
H1212 H 0.65483 0.0366 0.62999 0.0
H1213 H 0.67471 0.05832 0.58025 0.0
H1214 H 0.68649 0.07723 0.63315 0.0
H1215 H 0.7441 0.09018 0.61924 0.0
H1216 H 0.7326 0.07162 0.56542 0.0
H1217 H 0.75197 0.05889 0.60466 0.0
H1218 H 0.67562 0.9399 0.64305 0.0
H1219 H 0.647 0.92108 0.57216 0.0
H1220 H 0.67315 0.01743 0.53658 0.0
C1221 C 0.70488 0.05107 0.7057 0.0
C1222 C 0.69743 0.03554 0.74727 0.0
C1223 C 0.69446 0.00526 0.75136 0.0
C1224 C 0.69553 0.9892 0.71344 0.0
C1225 C 0.69998 0.004 0.67202 0.0
C1226 C 0.70533 0.03468 0.66804 0.0
C1227 C 0.70226 0.04277 0.62032 0.0
C1228 C 0.67812 0.05434 0.61573 0.0
C1229 C 0.73467 0.06731 0.60129 0.0
C1230 C 0.69053 0.01076 0.5991 0.0
C1231 C 0.69085 0.9891 0.62884 0.0
C1232 C 0.67634 0.95685 0.61897 0.0
C1233 C 0.66003 0.94632 0.57869 0.0
C1234 C 0.65799 0.96796 0.54928 0.0
C1235 C 0.67467 0.00061 0.55867 0.0
H1236 H 0.66282 0.61476 1.04518 0.0
H1237 H 0.69868 0.71572 1.0559 0.0
H1238 H 0.7342 0.72536 0.99229 0.0
H1239 H 0.74131 0.62246 0.99352 0.0
H1240 H 0.71726 0.58853 0.95918 0.0
H1241 H 0.70463 0.59042 1.01496 0.0
H1242 H 0.65129 0.58149 0.98417 0.0
H1243 H 0.66363 0.57954 0.92899 0.0
H1244 H 0.65142 0.608 0.94189 0.0
H1245 H 0.7497 0.72279 0.9164 0.0
H1246 H 0.7433 0.7079 0.83723 0.0
H1247 H 0.7011 0.60909 0.87487 0.0
C1248 C 0.67951 0.63897 1.03565 0.0
C1249 C 0.67796 0.66444 1.05509 0.0
C1250 C 0.69933 0.69582 1.04104 0.0
C1251 C 0.7199 0.70153 1.00528 0.0
C1252 C 0.71923 0.67567 0.98442 0.0
C1253 C 0.70006 0.64492 0.99982 0.0
C1254 C 0.69871 0.6209 0.96682 0.0
C1255 C 0.71656 0.60463 0.98469 0.0
C1256 C 0.66426 0.59613 0.95475 0.0
C1257 C 0.71638 0.64267 0.92812 0.0
C1258 C 0.72936 0.6743 0.93958 0.0
C1259 C 0.7409 0.6983 0.90734 0.0
C1260 C 0.73716 0.68971 0.86239 0.0
C1261 C 0.72208 0.65742 0.85029 0.0
C1262 C 0.71372 0.63399 0.88349 0.0
H1263 H 0.06096 0.72114 0.24879 0.0
H1264 H 0.96981 0.69473 0.19148 0.0
H1265 H 0.95137 0.70241 0.26369 0.0
H1266 H 0.03477 0.67359 0.3282 0.0
H1267 H 0.06189 0.69651 0.37184 0.0
H1268 H 0.07373 0.70605 0.31513 0.0
H1269 H 0.08601 0.76368 0.32781 0.0
H1270 H 0.0741 0.75416 0.38526 0.0
H1271 H 0.05603 0.77093 0.35051 0.0
H1272 H 0.93609 0.69255 0.34139 0.0
H1273 H 0.92533 0.66416 0.41284 0.0
H1274 H 0.02416 0.69131 0.42293 0.0
C1275 C 0.03759 0.71837 0.25127 0.0
C1276 C 0.01675 0.70699 0.21479 0.0
C1277 C 0.98642 0.70379 0.21878 0.0
C1278 C 0.97572 0.70815 0.25995 0.0
C1279 C -0.0044 0.71575 0.29677 0.0
C1280 C 0.0263 0.72144 0.29261 0.0
C1281 C 0.04005 0.72082 0.33753 0.0
C1282 C 0.05329 0.69784 0.33816 0.0
C1283 C 0.06555 0.7544 0.35107 0.0
C1284 C 0.01089 0.70917 0.36647 0.0
C1285 C 0.98614 0.70852 0.34306 0.0
C1286 C 0.95549 0.69377 0.36038 0.0
C1287 C 0.94949 0.67738 0.40087 0.0
C1288 C 0.9739 0.67522 0.42308 0.0
C1289 C 0.00522 0.69314 0.40714 0.0
H1290 H 0.49549 0.10203 0.55513 0.0
H1291 H 0.58596 0.12467 0.4978 0.0
H1292 H 0.60616 0.1242 0.57246 0.0
H1293 H 0.52837 0.15122 0.65606 0.0
H1294 H 0.49807 0.12377 0.69353 0.0
H1295 H 0.48929 0.12434 0.63537 0.0
H1296 H 0.47059 0.06463 0.62995 0.0
H1297 H 0.47931 0.06394 0.68814 0.0
H1298 H 0.49679 0.05051 0.64703 0.0
H1299 H 0.61808 0.11963 0.65797 0.0
H1300 H 0.62061 0.11624 0.73994 0.0
H1301 H 0.52548 0.10097 0.74978 0.0
C1302 C 0.51967 0.10709 0.5579 0.0
C1303 C 0.53868 0.1137 0.51755 0.0
C1304 C 0.57012 0.11981 0.52571 0.0
C1305 C 0.58211 0.11945 0.56907 0.0
C1306 C 0.56323 0.11323 0.60731 0.0
C1307 C 0.53257 0.10739 0.60225 0.0
C1308 C 0.51778 0.10212 0.6498 0.0
C1309 C 0.50776 0.12682 0.65925 0.0
C1310 C 0.48941 0.0683 0.65397 0.0
C1311 C 0.54479 0.10653 0.682 0.0
C1312 C 0.57061 0.11223 0.65628 0.0
C1313 C 0.59785 0.1156 0.67774 0.0
C1314 C 0.59916 0.11359 0.72534 0.0
C1315 C 0.57387 0.10892 0.75406 0.0
C1316 C 0.54604 0.10524 0.73065 0.0
H1317 H 0.45342 0.55944 0.8324 0.0
H1318 H 0.36061 0.47762 0.85449 0.0
H1319 H 0.36667 0.48799 0.9353 0.0
H1320 H 0.48916 0.54632 0.9351 0.0
H1321 H 0.51428 0.58793 0.94638 0.0
H1322 H 0.50268 0.5747 0.88999 0.0
H1323 H 0.4805 0.61282 0.88249 0.0
H1324 H 0.49171 0.62566 0.93909 0.0
H1325 H 0.45128 0.61004 0.92178 0.0
H1326 H 0.38189 0.50881 1.01817 0.0
H1327 H 0.40499 0.5337 1.08982 0.0
H1328 H 0.49137 0.60133 1.02221 0.0
C1329 C 0.4341 0.54368 0.85399 0.0
C1330 C 0.4058 0.51746 0.83437 0.0
C1331 C 0.38228 0.49781 0.86616 0.0
C1332 C 0.38562 0.50368 0.91313 0.0
C1333 C 0.41324 0.52939 0.9309 0.0
C1334 C 0.43743 0.54889 0.90217 0.0
C1335 C 0.46524 0.57412 0.93092 0.0
C1336 C 0.4946 0.57058 0.92523 0.0
C1337 C 0.47264 0.60766 0.91777 0.0
C1338 C 0.45285 0.56635 0.97986 0.0
C1339 C 0.42255 0.54039 0.97854 0.0
C1340 C 0.40564 0.529 1.01867 0.0
C1341 C 0.41927 0.54378 1.06021 0.0
C1342 C 0.45058 0.57029 1.06452 0.0
C1343 C 0.4675 0.58136 1.02231 0.0
H1344 H 0.91097 0.41102 0.22501 0.0
H1345 H 0.82302 0.40145 0.17689 0.0
H1346 H 0.81266 0.41542 0.25139 0.0
H1347 H 0.88665 0.38471 0.34134 0.0
H1348 H 0.92312 0.41434 0.36611 0.0
H1349 H 0.92308 0.40111 0.31014 0.0
H1350 H 0.94921 0.45875 0.28185 0.0
H1351 H 0.94939 0.47218 0.3377 0.0
H1352 H 0.93087 0.48217 0.29354 0.0
H1353 H 0.81014 0.42991 0.33799 0.0
H1354 H 0.81901 0.44791 0.41638 0.0
H1355 H 0.91185 0.45709 0.41108 0.0
C1356 C 0.88943 0.4118 0.22948 0.0
C1357 C 0.86779 0.40421 0.1919 0.0
C1358 C 0.84032 0.40632 0.20267 0.0
C1359 C 0.83412 0.41452 0.24598 0.0
C1360 C 0.85575 0.42213 0.28126 0.0
C1361 C 0.88333 0.42141 0.27313 0.0
C1362 C 0.90366 0.4329 0.31644 0.0
C1363 C 0.9095 0.40671 0.33457 0.0
C1364 C 0.93517 0.4633 0.30681 0.0
C1365 C 0.88335 0.43973 0.35006 0.0
C1366 C 0.85542 0.43271 0.32903 0.0
C1367 C 0.83232 0.43569 0.35368 0.0
C1368 C 0.83757 0.44608 0.39932 0.0
C1369 C 0.86629 0.45486 0.42258 0.0
C1370 C 0.88948 0.45133 0.39607 0.0
H1371 H 0.41497 0.88475 0.52756 0.0
H1372 H 0.48975 0.86227 0.54359 0.0
H1373 H 0.48159 0.85917 0.62508 0.0
H1374 H 0.43664 0.93541 0.62833 0.0
H1375 H 0.39678 0.92394 0.64467 0.0
H1376 H 0.40617 0.92302 0.58687 0.0
H1377 H 0.36355 0.86453 0.58126 0.0
H1378 H 0.35306 0.86492 0.63869 0.0
H1379 H 0.36346 0.83613 0.6201 0.0
H1380 H 0.46335 0.85578 0.70971 0.0
H1381 H 0.4418 0.8575 0.78323 0.0
H1382 H 0.38095 0.88717 0.7202 0.0
C1383 C 0.42959 0.87887 0.54795 0.0
C1384 C 0.45305 0.87308 0.52639 0.0
C1385 C 0.47154 0.8665 0.55674 0.0
C1386 C 0.46694 0.86467 0.6041 0.0
C1387 C 0.44389 0.87019 0.62381 0.0
C1388 C 0.42579 0.87777 0.5965 0.0
C1389 C 0.4037 0.88419 0.6271 0.0
C1390 C 0.41126 0.91869 0.62141 0.0
C1391 C 0.36887 0.86107 0.61612 0.0
C1392 C 0.4115 0.8783 0.67543 0.0
C1393 C 0.43472 0.86999 0.67228 0.0
C1394 C 0.44531 0.86246 0.71165 0.0
C1395 C 0.4325 0.86334 0.75427 0.0
C1396 C 0.40889 0.87216 0.76033 0.0
C1397 C 0.39867 0.88004 0.7189 0.0
H1398 H 0.60294 0.50555 0.87 0.0
H1399 H 0.54124 0.41811 0.80099 0.0
H1400 H 0.51767 0.39235 0.87276 0.0
H1401 H 0.61654 0.46614 0.9677 0.0
H1402 H 0.61727 0.49366 1.00826 0.0
H1403 H 0.62901 0.50644 0.95156 0.0
H1404 H 0.58782 0.52464 0.94649 0.0
H1405 H 0.57632 0.51219 1.00335 0.0
H1406 H 0.54705 0.49707 0.95998 0.0
H1407 H 0.49702 0.37468 0.95683 0.0
H1408 H 0.48698 0.36695 1.03789 0.0
H1409 H 0.56416 0.46236 1.05998 0.0
C1410 C 0.58462 0.48085 0.86958 0.0
C1411 C 0.57472 0.46455 0.82687 0.0
C1412 C 0.55036 0.43207 0.8309 0.0
C1413 C 0.53638 0.4169 0.87256 0.0
C1414 C 0.5466 0.43334 0.91317 0.0
C1415 C 0.57068 0.4647 0.91208 0.0
C1416 C 0.57789 0.4764 0.96131 0.0
C1417 C 0.61223 0.48626 0.97289 0.0
C1418 C 0.57193 0.50424 0.96817 0.0
C1419 C 0.5543 0.44712 0.99003 0.0
C1420 C 0.53609 0.42271 0.96108 0.0
C1421 C 0.5118 0.39386 0.97905 0.0
C1422 C 0.50609 0.38953 1.02624 0.0
C1423 C 0.52457 0.41323 1.05825 0.0
C1424 C 0.54933 0.44279 1.03838 0.0
H1425 H 0.10383 0.49966 0.38127 0.0
H1426 H 0.09782 0.5739 0.45201 0.0
H1427 H 0.09595 0.59775 0.38069 0.0
H1428 H 0.15515 0.55239 0.28976 0.0
H1429 H 0.13694 0.5237 0.24598 0.0
H1430 H 0.13657 0.51061 0.30234 0.0
H1431 H 0.07573 0.47626 0.2999 0.0
H1432 H 0.07629 0.48911 0.24338 0.0
H1433 H 0.05261 0.49437 0.28478 0.0
H1434 H 0.09254 0.61474 0.29795 0.0
H1435 H 0.09215 0.62411 0.21728 0.0
H1436 H 0.10486 0.5437 0.19144 0.0
C1437 C 0.10202 0.5209 0.38218 0.0
C1438 C 0.10086 0.53408 0.4254 0.0
C1439 C 0.09883 0.56234 0.42187 0.0
C1440 C 0.09765 0.57642 0.38044 0.0
C1441 C 0.09892 0.56319 0.33947 0.0
C1442 C 0.10139 0.53607 0.33984 0.0
C1443 C 0.10343 0.52773 0.29006 0.0
C1444 C 0.13489 0.52864 0.28153 0.0
C1445 C 0.07535 0.49491 0.27888 0.0
C1446 C 0.10175 0.5541 0.26212 0.0
C1447 C 0.09867 0.57397 0.29191 0.0
C1448 C 0.09534 0.59923 0.27504 0.0
C1449 C 0.09519 0.60455 0.22805 0.0
C1450 C 0.09901 0.58563 0.19513 0.0
C1451 C 0.10246 0.55971 0.21383 0.0
loop_
_geom_bond_atom_site_label_1
_geom_bond_atom_site_label_2
_geom_bond_distance
_geom_bond_site_symmetry_2
_ccdc_geom_bond_type
Gd0 C3 2.818 . S
Gd0 O20 2.377 . S
Gd0 O22 2.448 . S
Gd0 O23 2.506 . S
Gd0 O24 2.435 . S
Gd0 O25 2.717 . S
Gd0 O27 2.395 . S
Gd0 O31 2.327 . S
Gd1 C12 2.818 . S
Gd1 O21 2.395 . S
Gd1 O25 2.327 . S
Gd1 O26 2.377 . S
Gd1 O28 2.448 . S
Gd1 O29 2.506 . S
Gd1 O30 2.435 . S
Gd1 O31 2.717 . S
C2 O20 1.240 . S
C2 O21 1.240 . S
C3 Gd0 2.818 . S
C3 C4 1.510 . S
C3 O22 1.249 . S
C3 O23 1.252 . S
C4 C3 1.510 . S
C4 C5 1.404 . S
C4 C6 1.352 . S
C5 C4 1.404 . S
C5 C9 1.389 . S
C5 H32 0.930 . S
C6 C4 1.352 . S
C6 C8 1.374 . S
C6 H33 0.931 . S
C7 C8 1.359 . S
C7 C9 1.364 . S
C8 C6 1.374 . S
C8 C7 1.359 . S
C8 H34 0.931 . S
C9 C5 1.389 . S
C9 C7 1.364 . S
C9 H35 0.931 . S
C10 O24 1.256 . S
C10 O25 1.257 . S
C11 O26 1.240 . S
C11 O27 1.240 . S
C12 Gd1 2.818 . S
C12 C13 1.510 . S
C12 O28 1.249 . S
C12 O29 1.252 . S
C13 C12 1.510 . S
C13 C14 1.404 . S
C13 C15 1.352 . S
C14 C13 1.404 . S
C14 C18 1.389 . S
C14 H36 0.930 . S
C15 C13 1.352 . S
C15 C17 1.374 . S
C15 H37 0.931 . S
C16 C17 1.359 . S
C16 C18 1.364 . S
C17 C15 1.374 . S
C17 C16 1.359 . S
C17 H38 0.931 . S
C18 C14 1.389 . S
C18 C16 1.364 . S
C18 H39 0.931 . S
C19 O30 1.256 . S
C19 O31 1.257 . S
O20 Gd0 2.377 . S
O20 C2 1.240 . S
O21 Gd1 2.395 . S
O21 C2 1.240 . S
O22 Gd0 2.448 . S
O22 C3 1.249 . S
O23 Gd0 2.506 . S
O23 C3 1.252 . S
O24 Gd0 2.435 . S
O24 C10 1.256 . S
O25 Gd0 2.717 . S
O25 Gd1 2.327 . S
O25 C10 1.257 . S
O26 Gd1 2.377 . S
O26 C11 1.240 . S
O27 Gd0 2.395 . S
O27 C11 1.240 . S
O28 Gd1 2.448 . S
O28 C12 1.249 . S
O29 Gd1 2.506 . S
O29 C12 1.252 . S
O30 Gd1 2.435 . S
O30 C19 1.256 . S
O31 Gd0 2.327 . S
O31 Gd1 2.717 . S
O31 C19 1.257 . S
H32 C5 0.930 . S
H33 C6 0.931 . S
H34 C8 0.931 . S
H35 C9 0.931 . S
H36 C14 0.930 . S
H37 C15 0.931 . S
H38 C17 0.931 . S
H39 C18 0.931 . S
Gd40 C43 2.818 . S
Gd40 O60 2.377 . S
Gd40 O62 2.448 . S
Gd40 O63 2.506 . S
Gd40 O64 2.435 . S
Gd40 O65 2.717 . S
Gd40 O67 2.395 . S
Gd40 O71 2.327 . S
Gd41 C52 2.818 . S
Gd41 O61 2.395 . S
Gd41 O65 2.327 . S
Gd41 O66 2.377 . S
Gd41 O68 2.448 . S
Gd41 O69 2.506 . S
Gd41 O70 2.435 . S
Gd41 O71 2.717 . S
C42 O60 1.240 . S
C42 O61 1.240 . S
C43 Gd40 2.818 . S
C43 C44 1.510 . S
C43 O62 1.249 . S
C43 O63 1.252 . S
C44 C43 1.510 . S
C44 C45 1.404 . S
C44 C46 1.352 . S
C45 C44 1.404 . S
C45 C49 1.389 . S
C45 H72 0.930 . S
C46 C44 1.352 . S
C46 C48 1.374 . S
C46 H73 0.931 . S
C47 C48 1.359 . S
C47 C49 1.364 . S
C48 C46 1.374 . S
C48 C47 1.359 . S
C48 H74 0.931 . S
C49 C45 1.389 . S
C49 C47 1.364 . S
C49 H75 0.931 . S
C50 O64 1.256 . S
C50 O65 1.257 . S
C51 O66 1.240 . S
C51 O67 1.240 . S
C52 Gd41 2.818 . S
C52 C53 1.510 . S
C52 O68 1.249 . S
C52 O69 1.252 . S
C53 C52 1.510 . S
C53 C54 1.404 . S
C53 C55 1.352 . S
C54 C53 1.404 . S
C54 C58 1.389 . S
C54 H76 0.930 . S
C55 C53 1.352 . S
C55 C57 1.374 . S
C55 H77 0.931 . S
C56 C57 1.359 . S
C56 C58 1.364 . S
C57 C55 1.374 . S
C57 C56 1.359 . S
C57 H78 0.931 . S
C58 C54 1.389 . S
C58 C56 1.364 . S
C58 H79 0.931 . S
C59 O70 1.256 . S
C59 O71 1.257 . S
O60 Gd40 2.377 . S
O60 C42 1.240 . S
O61 Gd41 2.395 . S
O61 C42 1.240 . S
O62 Gd40 2.448 . S
O62 C43 1.249 . S
O63 Gd40 2.506 . S
O63 C43 1.252 . S
O64 Gd40 2.435 . S
O64 C50 1.256 . S
O65 Gd40 2.717 . S
O65 Gd41 2.327 . S
O65 C50 1.257 . S
O66 Gd41 2.377 . S
O66 C51 1.240 . S
O67 Gd40 2.395 . S
O67 C51 1.240 . S
O68 Gd41 2.448 . S
O68 C52 1.249 . S
O69 Gd41 2.506 . S
O69 C52 1.252 . S
O70 Gd41 2.435 . S
O70 C59 1.256 . S
O71 Gd40 2.327 . S
O71 Gd41 2.717 . S
O71 C59 1.257 . S
H72 C45 0.930 . S
H73 C46 0.931 . S
H74 C48 0.931 . S
H75 C49 0.931 . S
H76 C54 0.930 . S
H77 C55 0.931 . S
H78 C57 0.931 . S
H79 C58 0.931 . S
Gd80 C83 2.818 1_556 S
Gd80 O100 2.377 . S
Gd80 O102 2.448 . S
Gd80 O103 2.506 . S
Gd80 O104 2.435 . S
Gd80 O105 2.717 . S
Gd80 O107 2.395 . S
Gd80 O111 2.327 . S
Gd81 C92 2.818 . S
Gd81 O101 2.395 . S
Gd81 O105 2.327 . S
Gd81 O106 2.377 . S
Gd81 O108 2.448 . S
Gd81 O109 2.506 . S
Gd81 O110 2.435 . S
Gd81 O111 2.717 . S
C82 O100 1.240 . S
C82 O101 1.240 . S
C83 Gd80 2.818 1_554 S
C83 C84 1.510 . S
C83 O102 1.249 1_554 S
C83 O103 1.252 1_554 S
C84 C83 1.510 . S
C84 C85 1.404 . S
C84 C86 1.352 . S
C85 C84 1.404 . S
C85 C89 1.389 . S
C85 H112 0.930 . S
C86 C84 1.352 . S
C86 C88 1.374 . S
C86 H113 0.931 . S
C87 C88 1.359 . S
C87 C89 1.364 . S
C88 C86 1.374 . S
C88 C87 1.359 . S
C88 H114 0.931 . S
C89 C85 1.389 . S
C89 C87 1.364 . S
C89 H115 0.931 . S
C90 O104 1.256 . S
C90 O105 1.257 . S
C91 O106 1.240 . S
C91 O107 1.240 . S
C92 Gd81 2.818 . S
C92 C93 1.510 . S
C92 O108 1.249 . S
C92 O109 1.252 . S
C93 C92 1.510 . S
C93 C94 1.404 . S
C93 C95 1.352 . S
C94 C93 1.404 . S
C94 C98 1.389 . S
C94 H116 0.930 . S
C95 C93 1.352 . S
C95 C97 1.374 . S
C95 H117 0.931 . S
C96 C97 1.359 . S
C96 C98 1.364 . S
C97 C95 1.374 . S
C97 C96 1.359 . S
C97 H118 0.931 . S
C98 C94 1.389 . S
C98 C96 1.364 . S
C98 H119 0.931 . S
C99 O110 1.256 . S
C99 O111 1.257 . S
O100 Gd80 2.377 . S
O100 C82 1.240 . S
O101 Gd81 2.395 . S
O101 C82 1.240 . S
O102 Gd80 2.448 . S
O102 C83 1.249 1_556 S
O103 Gd80 2.506 . S
O103 C83 1.252 1_556 S
O104 Gd80 2.435 . S
O104 C90 1.256 . S
O105 Gd80 2.717 . S
O105 Gd81 2.327 . S
O105 C90 1.257 . S
O106 Gd81 2.377 . S
O106 C91 1.240 . S
O107 Gd80 2.395 . S
O107 C91 1.240 . S
O108 Gd81 2.448 . S
O108 C92 1.249 . S
O109 Gd81 2.506 . S
O109 C92 1.252 . S
O110 Gd81 2.435 . S
O110 C99 1.256 . S
O111 Gd80 2.327 . S
O111 Gd81 2.717 . S
O111 C99 1.257 . S
H112 C85 0.930 . S
H113 C86 0.931 . S
H114 C88 0.931 . S
H115 C89 0.931 . S
H116 C94 0.930 . S
H117 C95 0.931 . S
H118 C97 0.931 . S
H119 C98 0.931 . S
Gd120 C123 2.818 . S
Gd120 O140 2.377 . S
Gd120 O142 2.448 . S
Gd120 O143 2.506 . S
Gd120 O144 2.435 . S
Gd120 O145 2.717 . S
Gd120 O147 2.395 . S
Gd120 O151 2.327 . S
Gd121 C132 2.818 . S
Gd121 O141 2.395 . S
Gd121 O145 2.327 . S
Gd121 O146 2.377 . S
Gd121 O148 2.448 . S
Gd121 O149 2.506 . S
Gd121 O150 2.435 . S
Gd121 O151 2.717 . S
C122 O140 1.240 . S
C122 O141 1.240 . S
C123 Gd120 2.818 . S
C123 C124 1.510 . S
C123 O142 1.249 . S
C123 O143 1.252 . S
C124 C123 1.510 . S
C124 C125 1.404 . S
C124 C126 1.352 . S
C125 C124 1.404 . S
C125 C129 1.389 . S
C125 H152 0.930 . S
C126 C124 1.352 . S
C126 C128 1.374 . S
C126 H153 0.931 . S
C127 C128 1.359 . S
C127 C129 1.364 . S
C128 C126 1.374 . S
C128 C127 1.359 . S
C128 H154 0.931 . S
C129 C125 1.389 . S
C129 C127 1.364 . S
C129 H155 0.931 . S
C130 O144 1.256 . S
C130 O145 1.257 . S
C131 O146 1.240 . S
C131 O147 1.240 . S
C132 Gd121 2.818 . S
C132 C133 1.510 . S
C132 O148 1.249 . S
C132 O149 1.252 . S
C133 C132 1.510 . S
C133 C134 1.404 . S
C133 C135 1.352 . S
C134 C133 1.404 . S
C134 C138 1.389 . S
C134 H156 0.930 . S
C135 C133 1.352 . S
C135 C137 1.374 . S
C135 H157 0.931 . S
C136 C137 1.359 . S
C136 C138 1.364 . S
C137 C135 1.374 . S
C137 C136 1.359 . S
C137 H158 0.931 . S
C138 C134 1.389 . S
C138 C136 1.364 . S
C138 H159 0.931 . S
C139 O150 1.256 . S
C139 O151 1.257 . S
O140 Gd120 2.377 . S
O140 C122 1.240 . S
O141 Gd121 2.395 . S
O141 C122 1.240 . S
O142 Gd120 2.448 . S
O142 C123 1.249 . S
O143 Gd120 2.506 . S
O143 C123 1.252 . S
O144 Gd120 2.435 . S
O144 C130 1.256 . S
O145 Gd120 2.717 . S
O145 Gd121 2.327 . S
O145 C130 1.257 . S
O146 Gd121 2.377 . S
O146 C131 1.240 . S
O147 Gd120 2.395 . S
O147 C131 1.240 . S
O148 Gd121 2.448 . S
O148 C132 1.249 . S
O149 Gd121 2.506 . S
O149 C132 1.252 . S
O150 Gd121 2.435 . S
O150 C139 1.256 . S
O151 Gd120 2.327 . S
O151 Gd121 2.717 . S
O151 C139 1.257 . S
H152 C125 0.930 . S
H153 C126 0.931 . S
H154 C128 0.931 . S
H155 C129 0.931 . S
H156 C134 0.930 . S
H157 C135 0.931 . S
H158 C137 0.931 . S
H159 C138 0.931 . S
Gd160 C163 2.818 . S
Gd160 O180 2.377 . S
Gd160 O182 2.448 . S
Gd160 O183 2.506 . S
Gd160 O184 2.435 . S
Gd160 O185 2.717 . S
Gd160 O187 2.395 . S
Gd160 O191 2.327 . S
Gd161 C172 2.818 . S
Gd161 O181 2.395 . S
Gd161 O185 2.327 . S
Gd161 O186 2.377 . S
Gd161 O188 2.448 . S
Gd161 O189 2.506 . S
Gd161 O190 2.435 . S
Gd161 O191 2.717 . S
C162 O180 1.240 . S
C162 O181 1.240 . S
C163 Gd160 2.818 . S
C163 C164 1.510 . S
C163 O182 1.249 . S
C163 O183 1.252 . S
C164 C163 1.510 . S
C164 C165 1.404 . S
C164 C166 1.352 . S
C165 C164 1.404 . S
C165 C169 1.389 . S
C165 H192 0.930 . S
C166 C164 1.352 . S
C166 C168 1.374 . S
C166 H193 0.931 . S
C167 C168 1.359 . S
C167 C169 1.364 . S
C168 C166 1.374 . S
C168 C167 1.359 . S
C168 H194 0.931 . S
C169 C165 1.389 . S
C169 C167 1.364 . S
C169 H195 0.931 . S
C170 O184 1.256 . S
C170 O185 1.257 . S
C171 O186 1.240 . S
C171 O187 1.240 . S
C172 Gd161 2.818 . S
C172 C173 1.510 . S
C172 O188 1.249 . S
C172 O189 1.252 . S
C173 C172 1.510 . S
C173 C174 1.404 . S
C173 C175 1.352 . S
C174 C173 1.404 . S
C174 C178 1.389 . S
C174 H196 0.930 . S
C175 C173 1.352 . S
C175 C177 1.374 . S
C175 H197 0.931 . S
C176 C177 1.359 . S
C176 C178 1.364 . S
C177 C175 1.374 . S
C177 C176 1.359 . S
C177 H198 0.931 . S
C178 C174 1.389 . S
C178 C176 1.364 . S
C178 H199 0.931 . S
C179 O190 1.256 . S
C179 O191 1.257 . S
O180 Gd160 2.377 . S
O180 C162 1.240 . S
O181 Gd161 2.395 . S
O181 C162 1.240 . S
O182 Gd160 2.448 . S
O182 C163 1.249 . S
O183 Gd160 2.506 . S
O183 C163 1.252 . S
O184 Gd160 2.435 . S
O184 C170 1.256 . S
O185 Gd160 2.717 . S
O185 Gd161 2.327 . S
O185 C170 1.257 . S
O186 Gd161 2.377 . S
O186 C171 1.240 . S
O187 Gd160 2.395 . S
O187 C171 1.240 . S
O188 Gd161 2.448 . S
O188 C172 1.249 . S
O189 Gd161 2.506 . S
O189 C172 1.252 . S
O190 Gd161 2.435 . S
O190 C179 1.256 . S
O191 Gd160 2.327 . S
O191 Gd161 2.717 . S
O191 C179 1.257 . S
H192 C165 0.930 . S
H193 C166 0.931 . S
H194 C168 0.931 . S
H195 C169 0.931 . S
H196 C174 0.930 . S
H197 C175 0.931 . S
H198 C177 0.931 . S
H199 C178 0.931 . S
Gd200 C203 2.818 1_556 S
Gd200 O220 2.377 . S
Gd200 O222 2.448 . S
Gd200 O223 2.506 . S
Gd200 O224 2.435 . S
Gd200 O225 2.717 . S
Gd200 O227 2.395 . S
Gd200 O231 2.327 . S
Gd201 C212 2.818 . S
Gd201 O221 2.395 . S
Gd201 O225 2.327 . S
Gd201 O226 2.377 . S
Gd201 O228 2.448 . S
Gd201 O229 2.506 . S
Gd201 O230 2.435 . S
Gd201 O231 2.717 . S
C202 O220 1.240 . S
C202 O221 1.240 . S
C203 Gd200 2.818 1_554 S
C203 C204 1.510 . S
C203 O222 1.249 1_554 S
C203 O223 1.252 1_554 S
C204 C203 1.510 . S
C204 C205 1.404 . S
C204 C206 1.352 . S
C205 C204 1.404 . S
C205 C209 1.389 . S
C205 H232 0.930 . S
C206 C204 1.352 . S
C206 C208 1.374 . S
C206 H233 0.931 . S
C207 C208 1.359 . S
C207 C209 1.364 . S
C208 C206 1.374 . S
C208 C207 1.359 . S
C208 H234 0.931 . S
C209 C205 1.389 . S
C209 C207 1.364 . S
C209 H235 0.931 . S
C210 O224 1.256 . S
C210 O225 1.257 . S
C211 O226 1.240 . S
C211 O227 1.240 . S
C212 Gd201 2.818 . S
C212 C213 1.510 . S
C212 O228 1.249 . S
C212 O229 1.252 . S
C213 C212 1.510 . S
C213 C214 1.404 . S
C213 C215 1.352 . S
C214 C213 1.404 . S
C214 C218 1.389 . S
C214 H236 0.930 . S
C215 C213 1.352 . S
C215 C217 1.374 . S
C215 H237 0.931 . S
C216 C217 1.359 . S
C216 C218 1.364 . S
C217 C215 1.374 . S
C217 C216 1.359 . S
C217 H238 0.931 . S
C218 C214 1.389 . S
C218 C216 1.364 . S
C218 H239 0.931 . S
C219 O230 1.256 . S
C219 O231 1.257 . S
O220 Gd200 2.377 . S
O220 C202 1.240 . S
O221 Gd201 2.395 . S
O221 C202 1.240 . S
O222 Gd200 2.448 . S
O222 C203 1.249 1_556 S
O223 Gd200 2.506 . S
O223 C203 1.252 1_556 S
O224 Gd200 2.435 . S
O224 C210 1.256 . S
O225 Gd200 2.717 . S
O225 Gd201 2.327 . S
O225 C210 1.257 . S
O226 Gd201 2.377 . S
O226 C211 1.240 . S
O227 Gd200 2.395 . S
O227 C211 1.240 . S
O228 Gd201 2.448 . S
O228 C212 1.249 . S
O229 Gd201 2.506 . S
O229 C212 1.252 . S
O230 Gd201 2.435 . S
O230 C219 1.256 . S
O231 Gd200 2.327 . S
O231 Gd201 2.717 . S
O231 C219 1.257 . S
H232 C205 0.930 . S
H233 C206 0.931 . S
H234 C208 0.931 . S
H235 C209 0.931 . S
H236 C214 0.930 . S
H237 C215 0.931 . S
H238 C217 0.931 . S
H239 C218 0.931 . S
Gd240 C243 2.818 . S
Gd240 O260 2.377 . S
Gd240 O262 2.448 . S
Gd240 O263 2.506 . S
Gd240 O264 2.435 . S
Gd240 O265 2.717 . S
Gd240 O267 2.395 . S
Gd240 O271 2.327 . S
Gd241 C252 2.818 . S
Gd241 O261 2.395 . S
Gd241 O265 2.327 . S
Gd241 O266 2.377 . S
Gd241 O268 2.448 . S
Gd241 O269 2.506 . S
Gd241 O270 2.435 . S
Gd241 O271 2.717 . S
C242 O260 1.240 . S
C242 O261 1.240 . S
C243 Gd240 2.818 . S
C243 C244 1.510 . S
C243 O262 1.249 . S
C243 O263 1.252 . S
C244 C243 1.510 . S
C244 C245 1.404 . S
C244 C246 1.352 . S
C245 C244 1.404 . S
C245 C249 1.389 . S
C245 H272 0.930 . S
C246 C244 1.352 . S
C246 C248 1.374 . S
C246 H273 0.931 . S
C247 C248 1.359 . S
C247 C249 1.364 . S
C248 C246 1.374 . S
C248 C247 1.359 . S
C248 H274 0.931 . S
C249 C245 1.389 . S
C249 C247 1.364 . S
C249 H275 0.931 . S
C250 O264 1.256 . S
C250 O265 1.257 . S
C251 O266 1.240 . S
C251 O267 1.240 . S
C252 Gd241 2.818 . S
C252 C253 1.510 . S
C252 O268 1.249 . S
C252 O269 1.252 . S
C253 C252 1.510 . S
C253 C254 1.404 . S
C253 C255 1.352 . S
C254 C253 1.404 . S
C254 C258 1.389 . S
C254 H276 0.930 . S
C255 C253 1.352 . S
C255 C257 1.374 . S
C255 H277 0.931 . S
C256 C257 1.359 . S
C256 C258 1.364 . S
C257 C255 1.374 . S
C257 C256 1.359 . S
C257 H278 0.931 . S
C258 C254 1.389 . S
C258 C256 1.364 . S
C258 H279 0.931 . S
C259 O270 1.256 . S
C259 O271 1.257 . S
O260 Gd240 2.377 . S
O260 C242 1.240 . S
O261 Gd241 2.395 . S
O261 C242 1.240 . S
O262 Gd240 2.448 . S
O262 C243 1.249 . S
O263 Gd240 2.506 . S
O263 C243 1.252 . S
O264 Gd240 2.435 . S
O264 C250 1.256 . S
O265 Gd240 2.717 . S
O265 Gd241 2.327 . S
O265 C250 1.257 . S
O266 Gd241 2.377 . S
O266 C251 1.240 . S
O267 Gd240 2.395 . S
O267 C251 1.240 . S
O268 Gd241 2.448 . S
O268 C252 1.249 . S
O269 Gd241 2.506 . S
O269 C252 1.252 . S
O270 Gd241 2.435 . S
O270 C259 1.256 . S
O271 Gd240 2.327 . S
O271 Gd241 2.717 . S
O271 C259 1.257 . S
H272 C245 0.930 . S
H273 C246 0.931 . S
H274 C248 0.931 . S
H275 C249 0.931 . S
H276 C254 0.930 . S
H277 C255 0.931 . S
H278 C257 0.931 . S
H279 C258 0.931 . S
Gd280 C283 2.818 . S
Gd280 O300 2.377 . S
Gd280 O302 2.448 . S
Gd280 O303 2.506 . S
Gd280 O304 2.435 . S
Gd280 O305 2.717 . S
Gd280 O307 2.395 . S
Gd280 O311 2.327 . S
Gd281 C292 2.818 . S
Gd281 O301 2.395 . S
Gd281 O305 2.327 . S
Gd281 O306 2.377 . S
Gd281 O308 2.448 . S
Gd281 O309 2.506 . S
Gd281 O310 2.435 . S
Gd281 O311 2.717 . S
C282 O300 1.240 . S
C282 O301 1.240 . S
C283 Gd280 2.818 . S
C283 C284 1.510 . S
C283 O302 1.249 . S
C283 O303 1.252 . S
C284 C283 1.510 . S
C284 C285 1.404 . S
C284 C286 1.352 . S
C285 C284 1.404 . S
C285 C289 1.389 . S
C285 H312 0.930 . S
C286 C284 1.352 . S
C286 C288 1.374 . S
C286 H313 0.931 . S
C287 C288 1.359 . S
C287 C289 1.364 . S
C288 C286 1.374 . S
C288 C287 1.359 . S
C288 H314 0.931 . S
C289 C285 1.389 . S
C289 C287 1.364 . S
C289 H315 0.931 . S
C290 O304 1.256 . S
C290 O305 1.257 . S
C291 O306 1.240 . S
C291 O307 1.240 . S
C292 Gd281 2.818 . S
C292 C293 1.510 . S
C292 O308 1.249 . S
C292 O309 1.252 . S
C293 C292 1.510 . S
C293 C294 1.404 . S
C293 C295 1.352 . S
C294 C293 1.404 . S
C294 C298 1.389 . S
C294 H316 0.930 . S
C295 C293 1.352 . S
C295 C297 1.374 . S
C295 H317 0.931 . S
C296 C297 1.359 . S
C296 C298 1.364 . S
C297 C295 1.374 . S
C297 C296 1.359 . S
C297 H318 0.931 . S
C298 C294 1.389 . S
C298 C296 1.364 . S
C298 H319 0.931 . S
C299 O310 1.256 . S
C299 O311 1.257 . S
O300 Gd280 2.377 . S
O300 C282 1.240 . S
O301 Gd281 2.395 . S
O301 C282 1.240 . S
O302 Gd280 2.448 . S
O302 C283 1.249 . S
O303 Gd280 2.506 . S
O303 C283 1.252 . S
O304 Gd280 2.435 . S
O304 C290 1.256 . S
O305 Gd280 2.717 . S
O305 Gd281 2.327 . S
O305 C290 1.257 . S
O306 Gd281 2.377 . S
O306 C291 1.240 . S
O307 Gd280 2.395 . S
O307 C291 1.240 . S
O308 Gd281 2.448 . S
O308 C292 1.249 . S
O309 Gd281 2.506 . S
O309 C292 1.252 . S
O310 Gd281 2.435 . S
O310 C299 1.256 . S
O311 Gd280 2.327 . S
O311 Gd281 2.717 . S
O311 C299 1.257 . S
H312 C285 0.930 . S
H313 C286 0.931 . S
H314 C288 0.931 . S
H315 C289 0.931 . S
H316 C294 0.930 . S
H317 C295 0.931 . S
H318 C297 0.931 . S
H319 C298 0.931 . S
Gd320 C323 2.818 1_554 S
Gd320 O340 2.377 . S
Gd320 O342 2.448 . S
Gd320 O343 2.506 . S
Gd320 O344 2.435 . S
Gd320 O345 2.717 . S
Gd320 O347 2.395 . S
Gd320 O351 2.327 . S
Gd321 C332 2.818 . S
Gd321 O341 2.395 . S
Gd321 O345 2.327 . S
Gd321 O346 2.377 . S
Gd321 O348 2.448 . S
Gd321 O349 2.506 . S
Gd321 O350 2.435 . S
Gd321 O351 2.717 . S
C322 O340 1.240 . S
C322 O341 1.240 . S
C323 Gd320 2.818 1_556 S
C323 C324 1.510 . S
C323 O342 1.249 1_556 S
C323 O343 1.252 1_556 S
C324 C323 1.510 . S
C324 C325 1.404 . S
C324 C326 1.352 . S
C325 C324 1.404 . S
C325 C329 1.389 . S
C325 H352 0.930 . S
C326 C324 1.352 . S
C326 C328 1.374 . S
C326 H353 0.931 . S
C327 C328 1.359 . S
C327 C329 1.364 . S
C328 C326 1.374 . S
C328 C327 1.359 . S
C328 H354 0.931 . S
C329 C325 1.389 . S
C329 C327 1.364 . S
C329 H355 0.931 . S
C330 O344 1.256 . S
C330 O345 1.257 . S
C331 O346 1.240 . S
C331 O347 1.240 . S
C332 Gd321 2.818 . S
C332 C333 1.510 . S
C332 O348 1.249 . S
C332 O349 1.252 . S
C333 C332 1.510 . S
C333 C334 1.404 . S
C333 C335 1.352 . S
C334 C333 1.404 . S
C334 C338 1.389 . S
C334 H356 0.930 . S
C335 C333 1.352 . S
C335 C337 1.374 . S
C335 H357 0.931 . S
C336 C337 1.359 . S
C336 C338 1.364 . S
C337 C335 1.374 . S
C337 C336 1.359 . S
C337 H358 0.931 . S
C338 C334 1.389 . S
C338 C336 1.364 . S
C338 H359 0.931 . S
C339 O350 1.256 . S
C339 O351 1.257 . S
O340 Gd320 2.377 . S
O340 C322 1.240 . S
O341 Gd321 2.395 . S
O341 C322 1.240 . S
O342 Gd320 2.448 . S
O342 C323 1.249 1_554 S
O343 Gd320 2.506 . S
O343 C323 1.252 1_554 S
O344 Gd320 2.435 . S
O344 C330 1.256 . S
O345 Gd320 2.717 . S
O345 Gd321 2.327 . S
O345 C330 1.257 . S
O346 Gd321 2.377 . S
O346 C331 1.240 . S
O347 Gd320 2.395 . S
O347 C331 1.240 . S
O348 Gd321 2.448 . S
O348 C332 1.249 . S
O349 Gd321 2.506 . S
O349 C332 1.252 . S
O350 Gd321 2.435 . S
O350 C339 1.256 . S
O351 Gd320 2.327 . S
O351 Gd321 2.717 . S
O351 C339 1.257 . S
H352 C325 0.930 . S
H353 C326 0.931 . S
H354 C328 0.931 . S
H355 C329 0.931 . S
H356 C334 0.930 . S
H357 C335 0.931 . S
H358 C337 0.931 . S
H359 C338 0.931 . S
Gd360 C363 2.818 . S
Gd360 O380 2.377 . S
Gd360 O382 2.448 . S
Gd360 O383 2.506 . S
Gd360 O384 2.435 . S
Gd360 O385 2.717 . S
Gd360 O387 2.395 . S
Gd360 O391 2.327 . S
Gd361 C372 2.818 . S
Gd361 O381 2.395 . S
Gd361 O385 2.327 . S
Gd361 O386 2.377 . S
Gd361 O388 2.448 . S
Gd361 O389 2.506 . S
Gd361 O390 2.435 . S
Gd361 O391 2.717 . S
C362 O380 1.240 . S
C362 O381 1.240 . S
C363 Gd360 2.818 . S
C363 C364 1.510 . S
C363 O382 1.249 . S
C363 O383 1.252 . S
C364 C363 1.510 . S
C364 C365 1.404 . S
C364 C366 1.352 . S
C365 C364 1.404 . S
C365 C369 1.389 . S
C365 H392 0.930 . S
C366 C364 1.352 . S
C366 C368 1.374 . S
C366 H393 0.931 . S
C367 C368 1.359 . S
C367 C369 1.364 . S
C368 C366 1.374 . S
C368 C367 1.359 . S
C368 H394 0.931 . S
C369 C365 1.389 . S
C369 C367 1.364 . S
C369 H395 0.931 . S
C370 O384 1.256 . S
C370 O385 1.257 . S
C371 O386 1.240 . S
C371 O387 1.240 . S
C372 Gd361 2.818 . S
C372 C373 1.510 . S
C372 O388 1.249 . S
C372 O389 1.252 . S
C373 C372 1.510 . S
C373 C374 1.404 . S
C373 C375 1.352 . S
C374 C373 1.404 . S
C374 C378 1.389 . S
C374 H396 0.930 . S
C375 C373 1.352 . S
C375 C377 1.374 . S
C375 H397 0.931 . S
C376 C377 1.359 . S
C376 C378 1.364 . S
C377 C375 1.374 . S
C377 C376 1.359 . S
C377 H398 0.931 . S
C378 C374 1.389 . S
C378 C376 1.364 . S
C378 H399 0.931 . S
C379 O390 1.256 . S
C379 O391 1.257 . S
O380 Gd360 2.377 . S
O380 C362 1.240 . S
O381 Gd361 2.395 . S
O381 C362 1.240 . S
O382 Gd360 2.448 . S
O382 C363 1.249 . S
O383 Gd360 2.506 . S
O383 C363 1.252 . S
O384 Gd360 2.435 . S
O384 C370 1.256 . S
O385 Gd360 2.717 . S
O385 Gd361 2.327 . S
O385 C370 1.257 . S
O386 Gd361 2.377 . S
O386 C371 1.240 . S
O387 Gd360 2.395 . S
O387 C371 1.240 . S
O388 Gd361 2.448 . S
O388 C372 1.249 . S
O389 Gd361 2.506 . S
O389 C372 1.252 . S
O390 Gd361 2.435 . S
O390 C379 1.256 . S
O391 Gd360 2.327 . S
O391 Gd361 2.717 . S
O391 C379 1.257 . S
H392 C365 0.930 . S
H393 C366 0.931 . S
H394 C368 0.931 . S
H395 C369 0.931 . S
H396 C374 0.930 . S
H397 C375 0.931 . S
H398 C377 0.931 . S
H399 C378 0.931 . S
Gd400 C403 2.818 . S
Gd400 O420 2.377 . S
Gd400 O422 2.448 . S
Gd400 O423 2.506 . S
Gd400 O424 2.435 . S
Gd400 O425 2.717 . S
Gd400 O427 2.395 . S
Gd400 O431 2.327 . S
Gd401 C412 2.818 . S
Gd401 O421 2.395 . S
Gd401 O425 2.327 . S
Gd401 O426 2.377 . S
Gd401 O428 2.448 . S
Gd401 O429 2.506 . S
Gd401 O430 2.435 . S
Gd401 O431 2.717 . S
C402 O420 1.240 . S
C402 O421 1.240 . S
C403 Gd400 2.818 . S
C403 C404 1.510 . S
C403 O422 1.249 . S
C403 O423 1.252 . S
C404 C403 1.510 . S
C404 C405 1.404 . S
C404 C406 1.352 . S
C405 C404 1.404 . S
C405 C409 1.389 . S
C405 H432 0.930 . S
C406 C404 1.352 . S
C406 C408 1.374 . S
C406 H433 0.931 . S
C407 C408 1.359 . S
C407 C409 1.364 . S
C408 C406 1.374 . S
C408 C407 1.359 . S
C408 H434 0.931 . S
C409 C405 1.389 . S
C409 C407 1.364 . S
C409 H435 0.931 . S
C410 O424 1.256 . S
C410 O425 1.257 . S
C411 O426 1.240 . S
C411 O427 1.240 . S
C412 Gd401 2.818 . S
C412 C413 1.510 . S
C412 O428 1.249 . S
C412 O429 1.252 . S
C413 C412 1.510 . S
C413 C414 1.404 . S
C413 C415 1.352 . S
C414 C413 1.404 . S
C414 C418 1.389 . S
C414 H436 0.930 . S
C415 C413 1.352 . S
C415 C417 1.374 . S
C415 H437 0.931 . S
C416 C417 1.359 . S
C416 C418 1.364 . S
C417 C415 1.374 . S
C417 C416 1.359 . S
C417 H438 0.931 . S
C418 C414 1.389 . S
C418 C416 1.364 . S
C418 H439 0.931 . S
C419 O430 1.256 . S
C419 O431 1.257 . S
O420 Gd400 2.377 . S
O420 C402 1.240 . S
O421 Gd401 2.395 . S
O421 C402 1.240 . S
O422 Gd400 2.448 . S
O422 C403 1.249 . S
O423 Gd400 2.506 . S
O423 C403 1.252 . S
O424 Gd400 2.435 . S
O424 C410 1.256 . S
O425 Gd400 2.717 . S
O425 Gd401 2.327 . S
O425 C410 1.257 . S
O426 Gd401 2.377 . S
O426 C411 1.240 . S
O427 Gd400 2.395 . S
O427 C411 1.240 . S
O428 Gd401 2.448 . S
O428 C412 1.249 . S
O429 Gd401 2.506 . S
O429 C412 1.252 . S
O430 Gd401 2.435 . S
O430 C419 1.256 . S
O431 Gd400 2.327 . S
O431 Gd401 2.717 . S
O431 C419 1.257 . S
H432 C405 0.930 . S
H433 C406 0.931 . S
H434 C408 0.931 . S
H435 C409 0.931 . S
H436 C414 0.930 . S
H437 C415 0.931 . S
H438 C417 0.931 . S
H439 C418 0.931 . S
Gd440 C443 2.818 1_554 S
Gd440 O460 2.377 . S
Gd440 O462 2.448 . S
Gd440 O463 2.506 . S
Gd440 O464 2.435 . S
Gd440 O465 2.717 . S
Gd440 O467 2.395 . S
Gd440 O471 2.327 . S
Gd441 C452 2.818 . S
Gd441 O461 2.395 . S
Gd441 O465 2.327 . S
Gd441 O466 2.377 . S
Gd441 O468 2.448 . S
Gd441 O469 2.506 . S
Gd441 O470 2.435 . S
Gd441 O471 2.717 . S
C442 O460 1.240 . S
C442 O461 1.240 . S
C443 Gd440 2.818 1_556 S
C443 C444 1.510 . S
C443 O462 1.249 1_556 S
C443 O463 1.252 1_556 S
C444 C443 1.510 . S
C444 C445 1.404 . S
C444 C446 1.352 . S
C445 C444 1.404 . S
C445 C449 1.389 . S
C445 H472 0.930 . S
C446 C444 1.352 . S
C446 C448 1.374 . S
C446 H473 0.931 . S
C447 C448 1.359 . S
C447 C449 1.364 . S
C448 C446 1.374 . S
C448 C447 1.359 . S
C448 H474 0.931 . S
C449 C445 1.389 . S
C449 C447 1.364 . S
C449 H475 0.931 . S
C450 O464 1.256 . S
C450 O465 1.257 . S
C451 O466 1.240 . S
C451 O467 1.240 . S
C452 Gd441 2.818 . S
C452 C453 1.510 . S
C452 O468 1.249 . S
C452 O469 1.252 . S
C453 C452 1.510 . S
C453 C454 1.404 . S
C453 C455 1.352 . S
C454 C453 1.404 . S
C454 C458 1.389 . S
C454 H476 0.930 . S
C455 C453 1.352 . S
C455 C457 1.374 . S
C455 H477 0.931 . S
C456 C457 1.359 . S
C456 C458 1.364 . S
C457 C455 1.374 . S
C457 C456 1.359 . S
C457 H478 0.931 . S
C458 C454 1.389 . S
C458 C456 1.364 . S
C458 H479 0.931 . S
C459 O470 1.256 . S
C459 O471 1.257 . S
O460 Gd440 2.377 . S
O460 C442 1.240 . S
O461 Gd441 2.395 . S
O461 C442 1.240 . S
O462 Gd440 2.448 . S
O462 C443 1.249 1_554 S
O463 Gd440 2.506 . S
O463 C443 1.252 1_554 S
O464 Gd440 2.435 . S
O464 C450 1.256 . S
O465 Gd440 2.717 . S
O465 Gd441 2.327 . S
O465 C450 1.257 . S
O466 Gd441 2.377 . S
O466 C451 1.240 . S
O467 Gd440 2.395 . S
O467 C451 1.240 . S
O468 Gd441 2.448 . S
O468 C452 1.249 . S
O469 Gd441 2.506 . S
O469 C452 1.252 . S
O470 Gd441 2.435 . S
O470 C459 1.256 . S
O471 Gd440 2.327 . S
O471 Gd441 2.717 . S
O471 C459 1.257 . S
H472 C445 0.930 . S
H473 C446 0.931 . S
H474 C448 0.931 . S
H475 C449 0.931 . S
H476 C454 0.930 . S
H477 C455 0.931 . S
H478 C457 0.931 . S
H479 C458 0.931 . S
H480 C492 0.930 . S
H481 C494 0.930 . S
H482 C495 0.930 . S
H483 C499 0.959 . S
H484 C499 0.959 . S
H485 C499 0.961 . S
H486 C500 0.960 . S
H487 C500 0.961 . S
H488 C500 0.959 . S
H489 C503 0.929 . S
H490 C504 0.931 . S
H491 C506 0.930 . S
C492 H480 0.930 . S
C492 C493 1.399 . S
C492 C497 1.399 . S
C493 C492 1.399 . S
C493 C494 1.376 . S
C494 H481 0.930 . S
C494 C493 1.376 . S
C494 C495 1.388 . S
C495 H482 0.930 . S
C495 C494 1.388 . S
C495 C496 1.390 . S
C496 C495 1.390 . S
C496 C497 1.394 . S
C496 C502 1.465 . S
C497 C492 1.399 . S
C497 C496 1.394 . S
C497 C498 1.516 . S
C498 C497 1.516 . S
C498 C499 1.502 . S
C498 C500 1.561 . S
C498 C501 1.526 . S
C499 H483 0.959 . S
C499 H484 0.959 . S
C499 H485 0.961 . S
C499 C498 1.502 . S
C500 H486 0.960 . S
C500 H487 0.961 . S
C500 H488 0.959 . S
C500 C498 1.561 . S
C501 C498 1.526 . S
C501 C502 1.396 . S
C501 C506 1.390 . S
C502 C496 1.465 . S
C502 C501 1.396 . S
C502 C503 1.399 . S
C503 H489 0.929 . S
C503 C502 1.399 . S
C503 C504 1.385 . S
C504 H490 0.931 . S
C504 C503 1.385 . S
C504 C505 1.389 . S
C505 C504 1.389 . S
C505 C506 1.387 . S
C506 H491 0.930 . S
C506 C501 1.390 . S
C506 C505 1.387 . S
H507 C519 0.930 . S
H508 C521 0.930 . S
H509 C522 0.930 . S
H510 C526 0.959 . S
H511 C526 0.959 . S
H512 C526 0.961 . S
H513 C527 0.960 . S
H514 C527 0.961 . S
H515 C527 0.959 . S
H516 C530 0.929 . S
H517 C531 0.931 . S
H518 C533 0.930 . S
C519 H507 0.930 . S
C519 C520 1.399 . S
C519 C524 1.399 . S
C520 C519 1.399 . S
C520 C521 1.376 . S
C521 H508 0.930 . S
C521 C520 1.376 . S
C521 C522 1.388 . S
C522 H509 0.930 . S
C522 C521 1.388 . S
C522 C523 1.390 . S
C523 C522 1.390 . S
C523 C524 1.394 . S
C523 C529 1.465 . S
C524 C519 1.399 . S
C524 C523 1.394 . S
C524 C525 1.516 . S
C525 C524 1.516 . S
C525 C526 1.502 . S
C525 C527 1.561 . S
C525 C528 1.526 . S
C526 H510 0.959 . S
C526 H511 0.959 . S
C526 H512 0.961 . S
C526 C525 1.502 . S
C527 H513 0.960 . S
C527 H514 0.961 . S
C527 H515 0.959 . S
C527 C525 1.561 . S
C528 C525 1.526 . S
C528 C529 1.396 . S
C528 C533 1.390 . S
C529 C523 1.465 . S
C529 C528 1.396 . S
C529 C530 1.399 . S
C530 H516 0.929 . S
C530 C529 1.399 . S
C530 C531 1.385 . S
C531 H517 0.931 . S
C531 C530 1.385 . S
C531 C532 1.389 . S
C532 C531 1.389 . S
C532 C533 1.387 . S
C533 H518 0.930 . S
C533 C528 1.390 . S
C533 C532 1.387 . S
H534 C546 0.930 . S
H535 C548 0.930 . S
H536 C549 0.930 . S
H537 C553 0.959 . S
H538 C553 0.959 . S
H539 C553 0.961 . S
H540 C554 0.960 . S
H541 C554 0.961 . S
H542 C554 0.959 . S
H543 C557 0.929 . S
H544 C558 0.931 . S
H545 C560 0.930 . S
C546 H534 0.930 . S
C546 C547 1.399 . S
C546 C551 1.399 . S
C547 C546 1.399 . S
C547 C548 1.376 . S
C548 H535 0.930 . S
C548 C547 1.376 . S
C548 C549 1.388 . S
C549 H536 0.930 . S
C549 C548 1.388 . S
C549 C550 1.390 . S
C550 C549 1.390 . S
C550 C551 1.394 . S
C550 C556 1.465 . S
C551 C546 1.399 . S
C551 C550 1.394 . S
C551 C552 1.516 . S
C552 C551 1.516 . S
C552 C553 1.502 . S
C552 C554 1.561 . S
C552 C555 1.526 . S
C553 H537 0.959 . S
C553 H538 0.959 . S
C553 H539 0.961 . S
C553 C552 1.502 . S
C554 H540 0.960 . S
C554 H541 0.961 . S
C554 H542 0.959 . S
C554 C552 1.561 . S
C555 C552 1.526 . S
C555 C556 1.396 . S
C555 C560 1.390 . S
C556 C550 1.465 . S
C556 C555 1.396 . S
C556 C557 1.399 . S
C557 H543 0.929 . S
C557 C556 1.399 . S
C557 C558 1.385 . S
C558 H544 0.931 . S
C558 C557 1.385 . S
C558 C559 1.389 . S
C559 C558 1.389 . S
C559 C560 1.387 . S
C560 H545 0.930 . S
C560 C555 1.390 . S
C560 C559 1.387 . S
H561 C573 0.930 . S
H562 C575 0.930 . S
H563 C576 0.930 . S
H564 C580 0.959 . S
H565 C580 0.959 . S
H566 C580 0.961 . S
H567 C581 0.960 . S
H568 C581 0.961 . S
H569 C581 0.959 . S
H570 C584 0.929 . S
H571 C585 0.931 . S
H572 C587 0.930 . S
C573 H561 0.930 . S
C573 C574 1.399 . S
C573 C578 1.399 . S
C574 C573 1.399 . S
C574 C575 1.376 . S
C575 H562 0.930 . S
C575 C574 1.376 . S
C575 C576 1.388 . S
C576 H563 0.930 . S
C576 C575 1.388 . S
C576 C577 1.390 . S
C577 C576 1.390 . S
C577 C578 1.394 . S
C577 C583 1.465 . S
C578 C573 1.399 . S
C578 C577 1.394 . S
C578 C579 1.516 . S
C579 C578 1.516 . S
C579 C580 1.502 . S
C579 C581 1.561 . S
C579 C582 1.526 . S
C580 H564 0.959 . S
C580 H565 0.959 . S
C580 H566 0.961 . S
C580 C579 1.502 . S
C581 H567 0.960 . S
C581 H568 0.961 . S
C581 H569 0.959 . S
C581 C579 1.561 . S
C582 C579 1.526 . S
C582 C583 1.396 . S
C582 C587 1.390 . S
C583 C577 1.465 . S
C583 C582 1.396 . S
C583 C584 1.399 . S
C584 H570 0.929 . S
C584 C583 1.399 . S
C584 C585 1.385 . S
C585 H571 0.931 . S
C585 C584 1.385 . S
C585 C586 1.389 . S
C586 C585 1.389 . S
C586 C587 1.387 . S
C587 H572 0.930 . S
C587 C582 1.390 . S
C587 C586 1.387 . S
H588 C600 0.930 . S
H589 C602 0.930 . S
H590 C603 0.930 . S
H591 C607 0.959 . S
H592 C607 0.959 . S
H593 C607 0.961 . S
H594 C608 0.960 . S
H595 C608 0.961 . S
H596 C608 0.959 . S
H597 C611 0.929 . S
H598 C612 0.931 . S
H599 C614 0.930 . S
C600 H588 0.930 . S
C600 C601 1.399 . S
C600 C605 1.399 . S
C601 C600 1.399 . S
C601 C602 1.376 . S
C602 H589 0.930 . S
C602 C601 1.376 . S
C602 C603 1.388 . S
C603 H590 0.930 . S
C603 C602 1.388 . S
C603 C604 1.390 . S
C604 C603 1.390 . S
C604 C605 1.394 . S
C604 C610 1.465 . S
C605 C600 1.399 . S
C605 C604 1.394 . S
C605 C606 1.516 . S
C606 C605 1.516 . S
C606 C607 1.502 . S
C606 C608 1.561 . S
C606 C609 1.526 . S
C607 H591 0.959 . S
C607 H592 0.959 . S
C607 H593 0.961 . S
C607 C606 1.502 . S
C608 H594 0.960 . S
C608 H595 0.961 . S
C608 H596 0.959 . S
C608 C606 1.561 . S
C609 C606 1.526 . S
C609 C610 1.396 . S
C609 C614 1.390 . S
C610 C604 1.465 . S
C610 C609 1.396 . S
C610 C611 1.399 . S
C611 H597 0.929 . S
C611 C610 1.399 . S
C611 C612 1.385 . S
C612 H598 0.931 . S
C612 C611 1.385 . S
C612 C613 1.389 . S
C613 C612 1.389 . S
C613 C614 1.387 . S
C614 H599 0.930 . S
C614 C609 1.390 . S
C614 C613 1.387 . S
H615 C627 0.930 . S
H616 C629 0.930 . S
H617 C630 0.930 . S
H618 C634 0.959 . S
H619 C634 0.959 . S
H620 C634 0.961 . S
H621 C635 0.960 . S
H622 C635 0.961 . S
H623 C635 0.959 . S
H624 C638 0.929 . S
H625 C639 0.931 . S
H626 C641 0.930 . S
C627 H615 0.930 . S
C627 C628 1.399 . S
C627 C632 1.399 . S
C628 C627 1.399 . S
C628 C629 1.376 . S
C629 H616 0.930 . S
C629 C628 1.376 . S
C629 C630 1.388 . S
C630 H617 0.930 . S
C630 C629 1.388 . S
C630 C631 1.390 . S
C631 C630 1.390 . S
C631 C632 1.394 . S
C631 C637 1.465 . S
C632 C627 1.399 . S
C632 C631 1.394 . S
C632 C633 1.516 . S
C633 C632 1.516 . S
C633 C634 1.502 . S
C633 C635 1.561 . S
C633 C636 1.526 . S
C634 H618 0.959 . S
C634 H619 0.959 . S
C634 H620 0.961 . S
C634 C633 1.502 . S
C635 H621 0.960 . S
C635 H622 0.961 . S
C635 H623 0.959 . S
C635 C633 1.561 . S
C636 C633 1.526 . S
C636 C637 1.396 . S
C636 C641 1.390 . S
C637 C631 1.465 . S
C637 C636 1.396 . S
C637 C638 1.399 . S
C638 H624 0.929 . S
C638 C637 1.399 . S
C638 C639 1.385 . S
C639 H625 0.931 . S
C639 C638 1.385 . S
C639 C640 1.389 . S
C640 C639 1.389 . S
C640 C641 1.387 . S
C641 H626 0.930 . S
C641 C636 1.390 . S
C641 C640 1.387 . S
H642 C654 0.930 . S
H643 C656 0.930 . S
H644 C657 0.930 . S
H645 C661 0.959 . S
H646 C661 0.959 . S
H647 C661 0.961 . S
H648 C662 0.960 1_556 S
H649 C662 0.961 . S
H650 C662 0.959 . S
H651 C665 0.929 . S
H652 C666 0.931 . S
H653 C668 0.930 . S
C654 H642 0.930 . S
C654 C655 1.399 . S
C654 C659 1.399 . S
C655 C654 1.399 . S
C655 C656 1.376 . S
C656 H643 0.930 . S
C656 C655 1.376 . S
C656 C657 1.388 . S
C657 H644 0.930 . S
C657 C656 1.388 . S
C657 C658 1.390 . S
C658 C657 1.390 . S
C658 C659 1.394 . S
C658 C664 1.465 1_556 S
C659 C654 1.399 . S
C659 C658 1.394 . S
C659 C660 1.516 . S
C660 C659 1.516 . S
C660 C661 1.502 . S
C660 C662 1.561 1_556 S
C660 C663 1.526 1_556 S
C661 H645 0.959 . S
C661 H646 0.959 . S
C661 H647 0.961 . S
C661 C660 1.502 . S
C662 H648 0.960 1_554 S
C662 H649 0.961 . S
C662 H650 0.959 . S
C662 C660 1.561 1_554 S
C663 C660 1.526 1_554 S
C663 C664 1.396 . S
C663 C668 1.390 . S
C664 C658 1.465 1_554 S
C664 C663 1.396 . S
C664 C665 1.399 . S
C665 H651 0.929 . S
C665 C664 1.399 . S
C665 C666 1.385 . S
C666 H652 0.931 . S
C666 C665 1.385 . S
C666 C667 1.389 . S
C667 C666 1.389 . S
C667 C668 1.387 . S
C668 H653 0.930 . S
C668 C663 1.390 . S
C668 C667 1.387 . S
H669 C681 0.930 . S
H670 C683 0.930 . S
H671 C684 0.930 . S
H672 C688 0.959 . S
H673 C688 0.959 . S
H674 C688 0.961 . S
H675 C689 0.960 . S
H676 C689 0.961 . S
H677 C689 0.959 . S
H678 C692 0.929 . S
H679 C693 0.931 . S
H680 C695 0.930 . S
C681 H669 0.930 . S
C681 C682 1.399 . S
C681 C686 1.399 . S
C682 C681 1.399 . S
C682 C683 1.376 . S
C683 H670 0.930 . S
C683 C682 1.376 . S
C683 C684 1.388 . S
C684 H671 0.930 . S
C684 C683 1.388 . S
C684 C685 1.390 . S
C685 C684 1.390 . S
C685 C686 1.394 . S
C685 C691 1.465 . S
C686 C681 1.399 . S
C686 C685 1.394 . S
C686 C687 1.516 . S
C687 C686 1.516 . S
C687 C688 1.502 . S
C687 C689 1.561 . S
C687 C690 1.526 . S
C688 H672 0.959 . S
C688 H673 0.959 . S
C688 H674 0.961 . S
C688 C687 1.502 . S
C689 H675 0.960 . S
C689 H676 0.961 . S
C689 H677 0.959 . S
C689 C687 1.561 . S
C690 C687 1.526 . S
C690 C691 1.396 . S
C690 C695 1.390 . S
C691 C685 1.465 . S
C691 C690 1.396 . S
C691 C692 1.399 . S
C692 H678 0.929 . S
C692 C691 1.399 . S
C692 C693 1.385 . S
C693 H679 0.931 . S
C693 C692 1.385 . S
C693 C694 1.389 . S
C694 C693 1.389 . S
C694 C695 1.387 . S
C695 H680 0.930 . S
C695 C690 1.390 . S
C695 C694 1.387 . S
H696 C708 0.930 . S
H697 C710 0.930 . S
H698 C711 0.930 . S
H699 C715 0.959 . S
H700 C715 0.959 . S
H701 C715 0.961 . S
H702 C716 0.960 . S
H703 C716 0.961 . S
H704 C716 0.959 . S
H705 C719 0.929 . S
H706 C720 0.931 . S
H707 C722 0.930 . S
C708 H696 0.930 . S
C708 C709 1.399 . S
C708 C713 1.399 . S
C709 C708 1.399 . S
C709 C710 1.376 . S
C710 H697 0.930 . S
C710 C709 1.376 . S
C710 C711 1.388 . S
C711 H698 0.930 . S
C711 C710 1.388 . S
C711 C712 1.390 . S
C712 C711 1.390 . S
C712 C713 1.394 . S
C712 C718 1.465 . S
C713 C708 1.399 . S
C713 C712 1.394 . S
C713 C714 1.516 . S
C714 C713 1.516 . S
C714 C715 1.502 . S
C714 C716 1.561 . S
C714 C717 1.526 . S
C715 H699 0.959 . S
C715 H700 0.959 . S
C715 H701 0.961 . S
C715 C714 1.502 . S
C716 H702 0.960 . S
C716 H703 0.961 . S
C716 H704 0.959 . S
C716 C714 1.561 . S
C717 C714 1.526 . S
C717 C718 1.396 . S
C717 C722 1.390 . S
C718 C712 1.465 . S
C718 C717 1.396 . S
C718 C719 1.399 . S
C719 H705 0.929 . S
C719 C718 1.399 . S
C719 C720 1.385 . S
C720 H706 0.931 . S
C720 C719 1.385 . S
C720 C721 1.389 . S
C721 C720 1.389 . S
C721 C722 1.387 . S
C722 H707 0.930 . S
C722 C717 1.390 . S
C722 C721 1.387 . S
H723 C735 0.930 . S
H724 C737 0.930 . S
H725 C738 0.930 . S
H726 C742 0.959 1_556 S
H727 C742 0.959 . S
H728 C742 0.961 1_556 S
H729 C743 0.960 . S
H730 C743 0.961 . S
H731 C743 0.959 . S
H732 C746 0.929 . S
H733 C747 0.931 . S
H734 C749 0.930 . S
C735 H723 0.930 . S
C735 C736 1.399 . S
C735 C740 1.399 . S
C736 C735 1.399 . S
C736 C737 1.376 . S
C737 H724 0.930 . S
C737 C736 1.376 . S
C737 C738 1.388 . S
C738 H725 0.930 . S
C738 C737 1.388 . S
C738 C739 1.390 . S
C739 C738 1.390 . S
C739 C740 1.394 . S
C739 C745 1.465 1_556 S
C740 C735 1.399 . S
C740 C739 1.394 . S
C740 C741 1.516 1_556 S
C741 C740 1.516 1_554 S
C741 C742 1.502 . S
C741 C743 1.561 . S
C741 C744 1.526 . S
C742 H726 0.959 1_554 S
C742 H727 0.959 . S
C742 H728 0.961 1_554 S
C742 C741 1.502 . S
C743 H729 0.960 . S
C743 H730 0.961 . S
C743 H731 0.959 . S
C743 C741 1.561 . S
C744 C741 1.526 . S
C744 C745 1.396 . S
C744 C749 1.390 . S
C745 C739 1.465 1_554 S
C745 C744 1.396 . S
C745 C746 1.399 . S
C746 H732 0.929 . S
C746 C745 1.399 . S
C746 C747 1.385 . S
C747 H733 0.931 . S
C747 C746 1.385 . S
C747 C748 1.389 . S
C748 C747 1.389 . S
C748 C749 1.387 . S
C749 H734 0.930 . S
C749 C744 1.390 . S
C749 C748 1.387 . S
H750 C762 0.930 . S
H751 C764 0.930 . S
H752 C765 0.930 . S
H753 C769 0.959 . S
H754 C769 0.959 . S
H755 C769 0.961 . S
H756 C770 0.960 . S
H757 C770 0.961 . S
H758 C770 0.959 . S
H759 C773 0.929 . S
H760 C774 0.931 . S
H761 C776 0.930 . S
C762 H750 0.930 . S
C762 C763 1.399 . S
C762 C767 1.399 . S
C763 C762 1.399 . S
C763 C764 1.376 . S
C764 H751 0.930 . S
C764 C763 1.376 . S
C764 C765 1.388 . S
C765 H752 0.930 . S
C765 C764 1.388 . S
C765 C766 1.390 . S
C766 C765 1.390 . S
C766 C767 1.394 . S
C766 C772 1.465 . S
C767 C762 1.399 . S
C767 C766 1.394 . S
C767 C768 1.516 . S
C768 C767 1.516 . S
C768 C769 1.502 . S
C768 C770 1.561 . S
C768 C771 1.526 . S
C769 H753 0.959 . S
C769 H754 0.959 . S
C769 H755 0.961 . S
C769 C768 1.502 . S
C770 H756 0.960 . S
C770 H757 0.961 . S
C770 H758 0.959 . S
C770 C768 1.561 . S
C771 C768 1.526 . S
C771 C772 1.396 . S
C771 C776 1.390 . S
C772 C766 1.465 . S
C772 C771 1.396 . S
C772 C773 1.399 . S
C773 H759 0.929 . S
C773 C772 1.399 . S
C773 C774 1.385 . S
C774 H760 0.931 . S
C774 C773 1.385 . S
C774 C775 1.389 . S
C775 C774 1.389 . S
C775 C776 1.387 . S
C776 H761 0.930 . S
C776 C771 1.390 . S
C776 C775 1.387 . S
H777 C789 0.930 . S
H778 C791 0.930 . S
H779 C792 0.930 . S
H780 C796 0.959 . S
H781 C796 0.959 . S
H782 C796 0.961 . S
H783 C797 0.960 . S
H784 C797 0.961 . S
H785 C797 0.959 . S
H786 C800 0.929 . S
H787 C801 0.931 . S
H788 C803 0.930 . S
C789 H777 0.930 . S
C789 C790 1.399 . S
C789 C794 1.399 . S
C790 C789 1.399 . S
C790 C791 1.376 . S
C791 H778 0.930 . S
C791 C790 1.376 . S
C791 C792 1.388 . S
C792 H779 0.930 . S
C792 C791 1.388 . S
C792 C793 1.390 . S
C793 C792 1.390 . S
C793 C794 1.394 . S
C793 C799 1.465 . S
C794 C789 1.399 . S
C794 C793 1.394 . S
C794 C795 1.516 . S
C795 C794 1.516 . S
C795 C796 1.502 . S
C795 C797 1.561 . S
C795 C798 1.526 . S
C796 H780 0.959 . S
C796 H781 0.959 . S
C796 H782 0.961 . S
C796 C795 1.502 . S
C797 H783 0.960 . S
C797 H784 0.961 . S
C797 H785 0.959 . S
C797 C795 1.561 . S
C798 C795 1.526 . S
C798 C799 1.396 . S
C798 C803 1.390 . S
C799 C793 1.465 . S
C799 C798 1.396 . S
C799 C800 1.399 . S
C800 H786 0.929 . S
C800 C799 1.399 . S
C800 C801 1.385 . S
C801 H787 0.931 . S
C801 C800 1.385 . S
C801 C802 1.389 . S
C802 C801 1.389 . S
C802 C803 1.387 . S
C803 H788 0.930 . S
C803 C798 1.390 . S
C803 C802 1.387 . S
H804 C816 0.930 . S
H805 C818 0.930 1_545 S
H806 C819 0.930 . S
H807 C823 0.959 . S
H808 C823 0.959 . S
H809 C823 0.961 . S
H810 C824 0.960 . S
H811 C824 0.961 . S
H812 C824 0.959 . S
H813 C827 0.910 1_556 S
H814 C828 0.931 . S
H815 C830 0.930 1_565 S
C816 H804 0.930 . S
C816 C817 1.399 . S
C816 C821 1.399 . S
C817 C816 1.399 . S
C817 C818 1.376 . S
C818 H805 0.930 1_565 S
C818 C817 1.376 . S
C818 C819 1.388 1_565 S
C819 H806 0.930 . S
C819 C818 1.388 1_545 S
C819 C820 1.390 . S
C820 C819 1.390 . S
C820 C821 1.394 1_545 S
C820 C826 1.465 1_556 S
C821 C816 1.399 . S
C821 C820 1.394 1_565 S
C821 C822 1.516 1_556 S
C822 C821 1.516 1_554 S
C822 C823 1.502 . S
C822 C824 1.561 . S
C822 C825 1.523 . S
C823 H807 0.959 . S
C823 H808 0.959 . S
C823 H809 0.961 . S
C823 C822 1.502 . S
C824 H810 0.960 . S
C824 H811 0.961 . S
C824 H812 0.959 . S
C824 C822 1.561 . S
C825 C822 1.523 . S
C825 C826 1.398 1_565 S
C825 C830 1.391 1_565 S
C826 C820 1.465 1_554 S
C826 C825 1.398 1_545 S
C826 C827 1.399 . S
C827 H813 0.910 1_554 S
C827 C826 1.399 . S
C827 C828 1.385 . S
C828 H814 0.931 . S
C828 C827 1.385 . S
C828 C829 1.389 . S
C829 C828 1.389 . S
C829 C830 1.387 . S
C830 H815 0.930 1_545 S
C830 C825 1.391 1_545 S
C830 C829 1.387 . S
H831 C843 0.930 . S
H832 C845 0.930 . S
H833 C846 0.930 . S
H834 C850 0.959 . S
H835 C850 0.959 . S
H836 C850 0.961 . S
H837 C851 0.960 . S
H838 C851 0.961 . S
H839 C851 0.959 . S
H840 C854 0.929 . S
H841 C855 0.931 . S
H842 C857 0.930 . S
C843 H831 0.930 . S
C843 C844 1.399 . S
C843 C848 1.399 . S
C844 C843 1.399 . S
C844 C845 1.376 . S
C845 H832 0.930 . S
C845 C844 1.376 . S
C845 C846 1.388 . S
C846 H833 0.930 . S
C846 C845 1.388 . S
C846 C847 1.390 . S
C847 C846 1.390 . S
C847 C848 1.394 . S
C847 C853 1.465 . S
C848 C843 1.399 . S
C848 C847 1.394 . S
C848 C849 1.516 . S
C849 C848 1.516 . S
C849 C850 1.502 . S
C849 C851 1.561 . S
C849 C852 1.526 . S
C850 H834 0.959 . S
C850 H835 0.959 . S
C850 H836 0.961 . S
C850 C849 1.502 . S
C851 H837 0.960 . S
C851 H838 0.961 . S
C851 H839 0.959 . S
C851 C849 1.561 . S
C852 C849 1.526 . S
C852 C853 1.396 . S
C852 C857 1.390 . S
C853 C847 1.465 . S
C853 C852 1.396 . S
C853 C854 1.399 . S
C854 H840 0.929 . S
C854 C853 1.399 . S
C854 C855 1.385 . S
C855 H841 0.931 . S
C855 C854 1.385 . S
C855 C856 1.389 . S
C856 C855 1.389 . S
C856 C857 1.387 . S
C857 H842 0.930 . S
C857 C852 1.390 . S
C857 C856 1.387 . S
H858 C870 0.930 . S
H859 C872 0.930 . S
H860 C873 0.930 . S
H861 C877 0.959 . S
H862 C877 0.959 . S
H863 C877 0.961 . S
H864 C878 0.960 . S
H865 C878 0.961 . S
H866 C878 0.959 1_455 S
H867 C881 0.929 . S
H868 C882 0.931 . S
H869 C884 0.930 . S
C870 H858 0.930 . S
C870 C871 1.399 . S
C870 C875 1.399 . S
C871 C870 1.399 . S
C871 C872 1.376 . S
C872 H859 0.930 . S
C872 C871 1.376 . S
C872 C873 1.388 . S
C873 H860 0.930 . S
C873 C872 1.388 . S
C873 C874 1.390 . S
C874 C873 1.390 . S
C874 C875 1.394 . S
C874 C880 1.465 . S
C875 C870 1.399 . S
C875 C874 1.394 . S
C875 C876 1.516 1_455 S
C876 C875 1.516 1_655 S
C876 C877 1.502 . S
C876 C878 1.561 . S
C876 C879 1.526 . S
C877 H861 0.959 . S
C877 H862 0.959 . S
C877 H863 0.961 . S
C877 C876 1.502 . S
C878 H864 0.960 . S
C878 H865 0.961 . S
C878 H866 0.959 1_655 S
C878 C876 1.561 . S
C879 C876 1.526 . S
C879 C880 1.396 1_655 S
C879 C884 1.390 . S
C880 C874 1.465 . S
C880 C879 1.396 1_455 S
C880 C881 1.399 . S
C881 H867 0.929 . S
C881 C880 1.399 . S
C881 C882 1.385 1_455 S
C882 H868 0.931 . S
C882 C881 1.385 1_655 S
C882 C883 1.389 . S
C883 C882 1.389 . S
C883 C884 1.387 . S
C884 H869 0.930 . S
C884 C879 1.390 . S
C884 C883 1.387 . S
H885 C897 0.930 . S
H886 C899 0.930 1_545 S
H887 C900 0.930 . S
H888 C904 0.959 . S
H889 C904 0.959 . S
H890 C904 0.961 . S
H891 C905 0.960 . S
H892 C905 0.961 . S
H893 C905 0.959 . S
H894 C908 0.922 1_554 S
H895 C909 0.931 . S
H896 C911 0.930 1_565 S
C897 H885 0.930 . S
C897 C898 1.399 . S
C897 C902 1.399 . S
C898 C897 1.399 . S
C898 C899 1.376 . S
C899 H886 0.930 1_565 S
C899 C898 1.376 . S
C899 C900 1.388 1_565 S
C900 H887 0.930 . S
C900 C899 1.388 1_545 S
C900 C901 1.390 . S
C901 C900 1.390 . S
C901 C902 1.394 1_545 S
C901 C907 1.465 1_554 S
C902 C897 1.399 . S
C902 C901 1.394 1_565 S
C902 C903 1.516 1_554 S
C903 C902 1.516 1_556 S
C903 C904 1.502 . S
C903 C905 1.561 . S
C903 C906 1.530 1_565 S
C904 H888 0.959 . S
C904 H889 0.959 . S
C904 H890 0.961 . S
C904 C903 1.502 . S
C905 H891 0.960 . S
C905 H892 0.961 . S
C905 H893 0.959 . S
C905 C903 1.561 . S
C906 C903 1.530 1_545 S
C906 C907 1.393 . S
C906 C911 1.389 . S
C907 C901 1.465 1_556 S
C907 C906 1.393 . S
C907 C908 1.399 . S
C908 H894 0.922 1_556 S
C908 C907 1.399 . S
C908 C909 1.385 . S
C909 H895 0.931 . S
C909 C908 1.385 . S
C909 C910 1.389 . S
C910 C909 1.389 . S
C910 C911 1.387 . S
C911 H896 0.930 1_545 S
C911 C906 1.389 . S
C911 C910 1.387 . S
H912 C924 0.930 . S
H913 C926 0.930 . S
H914 C927 0.930 . S
H915 C931 0.959 . S
H916 C931 0.959 . S
H917 C931 0.961 . S
H918 C932 0.960 . S
H919 C932 0.961 . S
H920 C932 0.959 . S
H921 C935 0.929 . S
H922 C936 0.931 . S
H923 C938 0.930 . S
C924 H912 0.930 . S
C924 C925 1.399 . S
C924 C929 1.399 . S
C925 C924 1.399 . S
C925 C926 1.376 . S
C926 H913 0.930 . S
C926 C925 1.376 . S
C926 C927 1.388 . S
C927 H914 0.930 . S
C927 C926 1.388 . S
C927 C928 1.390 . S
C928 C927 1.390 . S
C928 C929 1.394 . S
C928 C934 1.465 . S
C929 C924 1.399 . S
C929 C928 1.394 . S
C929 C930 1.516 . S
C930 C929 1.516 . S
C930 C931 1.502 . S
C930 C932 1.561 . S
C930 C933 1.526 . S
C931 H915 0.959 . S
C931 H916 0.959 . S
C931 H917 0.961 . S
C931 C930 1.502 . S
C932 H918 0.960 . S
C932 H919 0.961 . S
C932 H920 0.959 . S
C932 C930 1.561 . S
C933 C930 1.526 . S
C933 C934 1.396 . S
C933 C938 1.390 . S
C934 C928 1.465 . S
C934 C933 1.396 . S
C934 C935 1.399 . S
C935 H921 0.929 . S
C935 C934 1.399 . S
C935 C936 1.385 . S
C936 H922 0.931 . S
C936 C935 1.385 . S
C936 C937 1.389 . S
C937 C936 1.389 . S
C937 C938 1.387 . S
C938 H923 0.930 . S
C938 C933 1.390 . S
C938 C937 1.387 . S
H939 C951 0.930 . S
H940 C953 0.930 . S
H941 C954 0.930 . S
H942 C958 0.959 . S
H943 C958 0.959 . S
H944 C958 0.961 . S
H945 C959 0.960 . S
H946 C959 0.961 . S
H947 C959 0.959 . S
H948 C962 0.929 . S
H949 C963 0.931 . S
H950 C965 0.930 . S
C951 H939 0.930 . S
C951 C952 1.399 . S
C951 C956 1.399 . S
C952 C951 1.399 . S
C952 C953 1.376 . S
C953 H940 0.930 . S
C953 C952 1.376 . S
C953 C954 1.388 . S
C954 H941 0.930 . S
C954 C953 1.388 . S
C954 C955 1.390 . S
C955 C954 1.390 . S
C955 C956 1.394 . S
C955 C961 1.465 1_455 S
C956 C951 1.399 . S
C956 C955 1.394 . S
C956 C957 1.516 . S
C957 C956 1.516 . S
C957 C958 1.502 1_455 S
C957 C959 1.561 . S
C957 C960 1.526 1_455 S
C958 H942 0.959 . S
C958 H943 0.959 . S
C958 H944 0.961 . S
C958 C957 1.502 1_655 S
C959 H945 0.960 . S
C959 H946 0.961 . S
C959 H947 0.959 . S
C959 C957 1.561 . S
C960 C957 1.526 1_655 S
C960 C961 1.396 . S
C960 C965 1.390 . S
C961 C955 1.465 1_655 S
C961 C960 1.396 . S
C961 C962 1.399 . S
C962 H948 0.929 . S
C962 C961 1.399 . S
C962 C963 1.385 . S
C963 H949 0.931 . S
C963 C962 1.385 . S
C963 C964 1.389 . S
C964 C963 1.389 . S
C964 C965 1.387 . S
C965 H950 0.930 . S
C965 C960 1.390 . S
C965 C964 1.387 . S
H966 C978 0.930 . S
H967 C980 0.930 . S
H968 C981 0.929 1_565 S
H969 C985 0.959 . S
H970 C985 0.959 . S
H971 C985 0.961 . S
H972 C986 0.960 1_545 S
H973 C986 0.961 . S
H974 C986 0.959 . S
H975 C989 0.929 . S
H976 C990 0.931 . S
H977 C992 0.930 . S
C978 H966 0.930 . S
C978 C979 1.399 . S
C978 C983 1.399 . S
C979 C978 1.399 . S
C979 C980 1.376 . S
C980 H967 0.930 . S
C980 C979 1.376 . S
C980 C981 1.388 . S
C981 H968 0.929 1_545 S
C981 C980 1.388 . S
C981 C982 1.390 . S
C982 C981 1.390 . S
C982 C983 1.394 . S
C982 C988 1.465 1_545 S
C983 C978 1.399 . S
C983 C982 1.394 . S
C983 C984 1.516 . S
C984 C983 1.516 . S
C984 C985 1.502 . S
C984 C986 1.561 1_545 S
C984 C987 1.526 1_545 S
C985 H969 0.959 . S
C985 H970 0.959 . S
C985 H971 0.961 . S
C985 C984 1.502 . S
C986 H972 0.960 1_565 S
C986 H973 0.961 . S
C986 H974 0.959 . S
C986 C984 1.561 1_565 S
C987 C984 1.526 1_565 S
C987 C988 1.396 . S
C987 C992 1.390 . S
C988 C982 1.465 1_565 S
C988 C987 1.396 . S
C988 C989 1.399 . S
C989 H975 0.929 . S
C989 C988 1.399 . S
C989 C990 1.385 . S
C990 H976 0.931 . S
C990 C989 1.385 . S
C990 C991 1.389 . S
C991 C990 1.389 . S
C991 C992 1.387 . S
C992 H977 0.930 . S
C992 C987 1.390 . S
C992 C991 1.387 . S
H993 C1005 0.930 . S
H994 C1007 0.930 . S
H995 C1008 0.930 . S
H996 C1012 0.959 . S
H997 C1012 0.959 . S
H998 C1012 0.961 . S
H999 C1013 0.960 . S
H1000 C1013 0.961 . S
H1001 C1013 0.959 . S
H1002 C1016 0.929 . S
H1003 C1017 0.931 . S
H1004 C1019 0.930 . S
C1005 H993 0.930 . S
C1005 C1006 1.399 . S
C1005 C1010 1.399 . S
C1006 C1005 1.399 . S
C1006 C1007 1.376 . S
C1007 H994 0.930 . S
C1007 C1006 1.376 . S
C1007 C1008 1.388 . S
C1008 H995 0.930 . S
C1008 C1007 1.388 . S
C1008 C1009 1.390 . S
C1009 C1008 1.390 . S
C1009 C1010 1.394 . S
C1009 C1015 1.465 . S
C1010 C1005 1.399 . S
C1010 C1009 1.394 . S
C1010 C1011 1.516 . S
C1011 C1010 1.516 . S
C1011 C1012 1.502 . S
C1011 C1013 1.561 . S
C1011 C1014 1.526 . S
C1012 H996 0.959 . S
C1012 H997 0.959 . S
C1012 H998 0.961 . S
C1012 C1011 1.502 . S
C1013 H999 0.960 . S
C1013 H1000 0.961 . S
C1013 H1001 0.959 . S
C1013 C1011 1.561 . S
C1014 C1011 1.526 . S
C1014 C1015 1.396 . S
C1014 C1019 1.390 . S
C1015 C1009 1.465 . S
C1015 C1014 1.396 . S
C1015 C1016 1.399 . S
C1016 H1002 0.929 . S
C1016 C1015 1.399 . S
C1016 C1017 1.385 . S
C1017 H1003 0.931 . S
C1017 C1016 1.385 . S
C1017 C1018 1.389 . S
C1018 C1017 1.389 . S
C1018 C1019 1.387 . S
C1019 H1004 0.930 . S
C1019 C1014 1.390 . S
C1019 C1018 1.387 . S
H1020 C1032 0.930 . S
H1021 C1034 0.930 . S
H1022 C1035 0.930 . S
H1023 C1039 0.959 . S
H1024 C1039 0.959 . S
H1025 C1039 0.961 . S
H1026 C1040 0.960 . S
H1027 C1040 0.961 1_455 S
H1028 C1040 0.959 . S
H1029 C1043 0.944 . S
H1030 C1044 0.931 . S
H1031 C1046 0.930 . S
C1032 H1020 0.930 . S
C1032 C1033 1.399 . S
C1032 C1037 1.399 . S
C1033 C1032 1.399 . S
C1033 C1034 1.376 . S
C1034 H1021 0.930 . S
C1034 C1033 1.376 . S
C1034 C1035 1.388 . S
C1035 H1022 0.930 . S
C1035 C1034 1.388 . S
C1035 C1036 1.390 . S
C1036 C1035 1.390 . S
C1036 C1037 1.394 . S
C1036 C1042 1.465 1_655 S
C1037 C1032 1.399 . S
C1037 C1036 1.394 . S
C1037 C1038 1.516 1_655 S
C1038 C1037 1.516 1_455 S
C1038 C1039 1.502 . S
C1038 C1040 1.561 1_455 S
C1038 C1041 1.526 . S
C1039 H1023 0.959 . S
C1039 H1024 0.959 . S
C1039 H1025 0.961 . S
C1039 C1038 1.502 . S
C1040 H1026 0.960 . S
C1040 H1027 0.961 1_655 S
C1040 H1028 0.959 . S
C1040 C1038 1.561 1_655 S
C1041 C1038 1.526 . S
C1041 C1042 1.396 . S
C1041 C1046 1.390 . S
C1042 C1036 1.465 1_455 S
C1042 C1041 1.396 . S
C1042 C1043 1.399 . S
C1043 H1029 0.944 . S
C1043 C1042 1.399 . S
C1043 C1044 1.385 . S
C1044 H1030 0.931 . S
C1044 C1043 1.385 . S
C1044 C1045 1.389 . S
C1045 C1044 1.389 . S
C1045 C1046 1.387 . S
C1046 H1031 0.930 . S
C1046 C1041 1.390 . S
C1046 C1045 1.387 . S
H1047 C1059 0.930 . S
H1048 C1061 0.930 . S
H1049 C1062 0.930 . S
H1050 C1066 0.959 . S
H1051 C1066 0.959 . S
H1052 C1066 0.961 . S
H1053 C1067 0.960 . S
H1054 C1067 0.961 . S
H1055 C1067 0.959 . S
H1056 C1070 0.929 . S
H1057 C1071 0.931 . S
H1058 C1073 0.930 . S
C1059 H1047 0.930 . S
C1059 C1060 1.399 . S
C1059 C1064 1.399 . S
C1060 C1059 1.399 . S
C1060 C1061 1.376 . S
C1061 H1048 0.930 . S
C1061 C1060 1.376 . S
C1061 C1062 1.388 . S
C1062 H1049 0.930 . S
C1062 C1061 1.388 . S
C1062 C1063 1.390 . S
C1063 C1062 1.390 . S
C1063 C1064 1.394 . S
C1063 C1069 1.465 1_455 S
C1064 C1059 1.399 . S
C1064 C1063 1.394 . S
C1064 C1065 1.544 . S
C1065 C1064 1.544 . S
C1065 C1066 1.511 . S
C1065 C1067 1.552 1_455 S
C1065 C1068 1.498 1_455 S
C1066 H1050 0.959 . S
C1066 H1051 0.959 . S
C1066 H1052 0.961 . S
C1066 C1065 1.511 . S
C1067 H1053 0.960 . S
C1067 H1054 0.961 . S
C1067 H1055 0.959 . S
C1067 C1065 1.552 1_655 S
C1068 C1065 1.498 1_655 S
C1068 C1069 1.396 . S
C1068 C1073 1.390 . S
C1069 C1063 1.465 1_655 S
C1069 C1068 1.396 . S
C1069 C1070 1.399 . S
C1070 H1056 0.929 . S
C1070 C1069 1.399 . S
C1070 C1071 1.385 . S
C1071 H1057 0.931 . S
C1071 C1070 1.385 . S
C1071 C1072 1.389 . S
C1072 C1071 1.389 . S
C1072 C1073 1.387 . S
C1073 H1058 0.930 . S
C1073 C1068 1.390 . S
C1073 C1072 1.387 . S
H1074 C1086 0.930 . S
H1075 C1088 0.930 . S
H1076 C1089 0.930 . S
H1077 C1093 0.959 . S
H1078 C1093 0.959 . S
H1079 C1093 0.961 . S
H1080 C1094 0.960 . S
H1081 C1094 0.961 . S
H1082 C1094 0.959 . S
H1083 C1097 0.929 1_565 S
H1084 C1098 0.931 . S
H1085 C1100 0.930 . S
C1086 H1074 0.930 . S
C1086 C1087 1.399 . S
C1086 C1091 1.399 . S
C1087 C1086 1.399 . S
C1087 C1088 1.376 . S
C1088 H1075 0.930 . S
C1088 C1087 1.376 . S
C1088 C1089 1.388 . S
C1089 H1076 0.930 . S
C1089 C1088 1.388 . S
C1089 C1090 1.390 . S
C1090 C1089 1.390 . S
C1090 C1091 1.394 . S
C1090 C1096 1.465 1_565 S
C1091 C1086 1.399 . S
C1091 C1090 1.394 . S
C1091 C1092 1.516 1_565 S
C1092 C1091 1.516 1_545 S
C1092 C1093 1.502 . S
C1092 C1094 1.561 . S
C1092 C1095 1.526 . S
C1093 H1077 0.959 . S
C1093 H1078 0.959 . S
C1093 H1079 0.961 . S
C1093 C1092 1.502 . S
C1094 H1080 0.960 . S
C1094 H1081 0.961 . S
C1094 H1082 0.959 . S
C1094 C1092 1.561 . S
C1095 C1092 1.526 . S
C1095 C1096 1.396 . S
C1095 C1100 1.390 . S
C1096 C1090 1.465 1_545 S
C1096 C1095 1.396 . S
C1096 C1097 1.399 . S
C1097 H1083 0.929 1_545 S
C1097 C1096 1.399 . S
C1097 C1098 1.385 . S
C1098 H1084 0.931 . S
C1098 C1097 1.385 . S
C1098 C1099 1.389 . S
C1099 C1098 1.389 . S
C1099 C1100 1.387 . S
C1100 H1085 0.930 . S
C1100 C1095 1.390 . S
C1100 C1099 1.387 . S
H1101 C1113 0.930 . S
H1102 C1115 0.930 . S
H1103 C1116 0.930 . S
H1104 C1120 0.959 . S
H1105 C1120 0.959 . S
H1106 C1120 0.961 . S
H1107 C1121 0.960 . S
H1108 C1121 0.961 . S
H1109 C1121 0.959 . S
H1110 C1124 0.929 . S
H1111 C1125 0.931 . S
H1112 C1127 0.930 . S
C1113 H1101 0.930 . S
C1113 C1114 1.399 . S
C1113 C1118 1.399 . S
C1114 C1113 1.399 . S
C1114 C1115 1.376 . S
C1115 H1102 0.930 . S
C1115 C1114 1.376 . S
C1115 C1116 1.388 . S
C1116 H1103 0.930 . S
C1116 C1115 1.388 . S
C1116 C1117 1.390 . S
C1117 C1116 1.390 . S
C1117 C1118 1.394 . S
C1117 C1123 1.465 . S
C1118 C1113 1.399 . S
C1118 C1117 1.394 . S
C1118 C1119 1.516 . S
C1119 C1118 1.516 . S
C1119 C1120 1.502 . S
C1119 C1121 1.561 . S
C1119 C1122 1.526 . S
C1120 H1104 0.959 . S
C1120 H1105 0.959 . S
C1120 H1106 0.961 . S
C1120 C1119 1.502 . S
C1121 H1107 0.960 . S
C1121 H1108 0.961 . S
C1121 H1109 0.959 . S
C1121 C1119 1.561 . S
C1122 C1119 1.526 . S
C1122 C1123 1.396 . S
C1122 C1127 1.390 . S
C1123 C1117 1.465 . S
C1123 C1122 1.396 . S
C1123 C1124 1.399 . S
C1124 H1110 0.929 . S
C1124 C1123 1.399 . S
C1124 C1125 1.385 . S
C1125 H1111 0.931 . S
C1125 C1124 1.385 . S
C1125 C1126 1.389 . S
C1126 C1125 1.389 . S
C1126 C1127 1.387 . S
C1127 H1112 0.930 . S
C1127 C1122 1.390 . S
C1127 C1126 1.387 . S
H1128 C1140 0.930 . S
H1129 C1142 0.930 . S
H1130 C1143 0.930 1_545 S
H1131 C1147 0.959 . S
H1132 C1147 0.959 . S
H1133 C1147 0.961 . S
H1134 C1148 0.960 . S
H1135 C1148 0.961 . S
H1136 C1148 0.959 . S
H1137 C1151 0.929 . S
H1138 C1152 0.931 . S
H1139 C1154 0.930 . S
C1140 H1128 0.930 . S
C1140 C1141 1.399 . S
C1140 C1145 1.399 . S
C1141 C1140 1.399 . S
C1141 C1142 1.376 . S
C1142 H1129 0.930 . S
C1142 C1141 1.376 . S
C1142 C1143 1.388 . S
C1143 H1130 0.930 1_565 S
C1143 C1142 1.388 . S
C1143 C1144 1.390 . S
C1144 C1143 1.390 . S
C1144 C1145 1.394 . S
C1144 C1150 1.465 1_565 S
C1145 C1140 1.399 . S
C1145 C1144 1.394 . S
C1145 C1146 1.516 . S
C1146 C1145 1.516 . S
C1146 C1147 1.502 . S
C1146 C1148 1.561 . S
C1146 C1149 1.526 1_565 S
C1147 H1131 0.959 . S
C1147 H1132 0.959 . S
C1147 H1133 0.961 . S
C1147 C1146 1.502 . S
C1148 H1134 0.960 . S
C1148 H1135 0.961 . S
C1148 H1136 0.959 . S
C1148 C1146 1.561 . S
C1149 C1146 1.526 1_545 S
C1149 C1150 1.396 . S
C1149 C1154 1.390 . S
C1150 C1144 1.465 1_545 S
C1150 C1149 1.396 . S
C1150 C1151 1.399 . S
C1151 H1137 0.929 . S
C1151 C1150 1.399 . S
C1151 C1152 1.385 . S
C1152 H1138 0.931 . S
C1152 C1151 1.385 . S
C1152 C1153 1.389 . S
C1153 C1152 1.389 . S
C1153 C1154 1.387 . S
C1154 H1139 0.930 . S
C1154 C1149 1.390 . S
C1154 C1153 1.387 . S
H1155 C1167 0.930 . S
H1156 C1169 0.930 . S
H1157 C1170 0.930 . S
H1158 C1174 0.959 . S
H1159 C1174 0.959 . S
H1160 C1174 0.961 . S
H1161 C1175 0.960 . S
H1162 C1175 0.961 . S
H1163 C1175 0.959 . S
H1164 C1178 0.929 . S
H1165 C1179 0.931 . S
H1166 C1181 0.930 . S
C1167 H1155 0.930 . S
C1167 C1168 1.399 . S
C1167 C1172 1.399 . S
C1168 C1167 1.399 . S
C1168 C1169 1.376 . S
C1169 H1156 0.930 . S
C1169 C1168 1.376 . S
C1169 C1170 1.388 . S
C1170 H1157 0.930 . S
C1170 C1169 1.388 . S
C1170 C1171 1.390 . S
C1171 C1170 1.390 . S
C1171 C1172 1.394 . S
C1171 C1177 1.465 . S
C1172 C1167 1.399 . S
C1172 C1171 1.394 . S
C1172 C1173 1.516 . S
C1173 C1172 1.516 . S
C1173 C1174 1.502 . S
C1173 C1175 1.561 . S
C1173 C1176 1.526 . S
C1174 H1158 0.959 . S
C1174 H1159 0.959 . S
C1174 H1160 0.961 . S
C1174 C1173 1.502 . S
C1175 H1161 0.960 . S
C1175 H1162 0.961 . S
C1175 H1163 0.959 . S
C1175 C1173 1.561 . S
C1176 C1173 1.526 . S
C1176 C1177 1.396 . S
C1176 C1181 1.390 . S
C1177 C1171 1.465 . S
C1177 C1176 1.396 . S
C1177 C1178 1.399 . S
C1178 H1164 0.929 . S
C1178 C1177 1.399 . S
C1178 C1179 1.385 . S
C1179 H1165 0.931 . S
C1179 C1178 1.385 . S
C1179 C1180 1.389 . S
C1180 C1179 1.389 . S
C1180 C1181 1.387 . S
C1181 H1166 0.930 . S
C1181 C1176 1.390 . S
C1181 C1180 1.387 . S
H1182 C1194 0.930 . S
H1183 C1196 0.930 . S
H1184 C1197 0.930 . S
H1185 C1201 0.959 . S
H1186 C1201 0.959 . S
H1187 C1201 0.961 . S
H1188 C1202 0.960 1_655 S
H1189 C1202 0.961 . S
H1190 C1202 0.959 1_655 S
H1191 C1205 0.929 1_655 S
H1192 C1206 0.931 . S
H1193 C1208 0.930 . S
C1194 H1182 0.930 . S
C1194 C1195 1.399 . S
C1194 C1199 1.399 . S
C1195 C1194 1.399 . S
C1195 C1196 1.376 . S
C1196 H1183 0.930 . S
C1196 C1195 1.376 . S
C1196 C1197 1.388 . S
C1197 H1184 0.930 . S
C1197 C1196 1.388 . S
C1197 C1198 1.390 . S
C1198 C1197 1.390 . S
C1198 C1199 1.394 . S
C1198 C1204 1.465 1_655 S
C1199 C1194 1.399 . S
C1199 C1198 1.394 . S
C1199 C1200 1.516 1_655 S
C1200 C1199 1.516 1_455 S
C1200 C1201 1.502 . S
C1200 C1202 1.561 . S
C1200 C1203 1.526 . S
C1201 H1185 0.959 . S
C1201 H1186 0.959 . S
C1201 H1187 0.961 . S
C1201 C1200 1.502 . S
C1202 H1188 0.960 1_455 S
C1202 H1189 0.961 . S
C1202 H1190 0.959 1_455 S
C1202 C1200 1.561 . S
C1203 C1200 1.526 . S
C1203 C1204 1.396 . S
C1203 C1208 1.390 . S
C1204 C1198 1.465 1_455 S
C1204 C1203 1.396 . S
C1204 C1205 1.399 . S
C1205 H1191 0.929 1_455 S
C1205 C1204 1.399 . S
C1205 C1206 1.385 . S
C1206 H1192 0.931 . S
C1206 C1205 1.385 . S
C1206 C1207 1.389 . S
C1207 C1206 1.389 . S
C1207 C1208 1.387 . S
C1208 H1193 0.930 . S
C1208 C1203 1.390 . S
C1208 C1207 1.387 . S
H1209 C1221 0.930 . S
H1210 C1223 0.930 . S
H1211 C1224 0.930 1_565 S
H1212 C1228 0.959 . S
H1213 C1228 0.959 . S
H1214 C1228 0.961 . S
H1215 C1229 0.960 . S
H1216 C1229 0.961 . S
H1217 C1229 0.959 . S
H1218 C1232 0.929 . S
H1219 C1233 0.931 . S
H1220 C1235 0.930 . S
C1221 H1209 0.930 . S
C1221 C1222 1.399 . S
C1221 C1226 1.399 . S
C1222 C1221 1.399 . S
C1222 C1223 1.376 . S
C1223 H1210 0.930 . S
C1223 C1222 1.376 . S
C1223 C1224 1.388 . S
C1224 H1211 0.930 1_545 S
C1224 C1223 1.388 . S
C1224 C1225 1.390 . S
C1225 C1224 1.390 . S
C1225 C1226 1.394 . S
C1225 C1231 1.465 1_545 S
C1226 C1221 1.399 . S
C1226 C1225 1.394 . S
C1226 C1227 1.516 . S
C1227 C1226 1.516 . S
C1227 C1228 1.502 . S
C1227 C1229 1.561 . S
C1227 C1230 1.526 1_545 S
C1228 H1212 0.959 . S
C1228 H1213 0.959 . S
C1228 H1214 0.961 . S
C1228 C1227 1.502 . S
C1229 H1215 0.960 . S
C1229 H1216 0.961 . S
C1229 H1217 0.959 . S
C1229 C1227 1.561 . S
C1230 C1227 1.526 1_565 S
C1230 C1231 1.396 . S
C1230 C1235 1.390 . S
C1231 C1225 1.465 1_565 S
C1231 C1230 1.396 . S
C1231 C1232 1.399 . S
C1232 H1218 0.929 . S
C1232 C1231 1.399 . S
C1232 C1233 1.385 . S
C1233 H1219 0.931 . S
C1233 C1232 1.385 . S
C1233 C1234 1.389 . S
C1234 C1233 1.389 . S
C1234 C1235 1.387 . S
C1235 H1220 0.930 . S
C1235 C1230 1.390 . S
C1235 C1234 1.387 . S
H1236 C1248 0.930 . S
H1237 C1250 0.930 . S
H1238 C1251 0.930 . S
H1239 C1255 0.959 . S
H1240 C1255 0.959 . S
H1241 C1255 0.961 . S
H1242 C1256 0.960 . S
H1243 C1256 0.961 . S
H1244 C1256 0.959 . S
H1245 C1259 0.929 . S
H1246 C1260 0.931 . S
H1247 C1262 0.930 . S
C1248 H1236 0.930 . S
C1248 C1249 1.399 . S
C1248 C1253 1.399 . S
C1249 C1248 1.399 . S
C1249 C1250 1.376 . S
C1250 H1237 0.930 . S
C1250 C1249 1.376 . S
C1250 C1251 1.388 . S
C1251 H1238 0.930 . S
C1251 C1250 1.388 . S
C1251 C1252 1.390 . S
C1252 C1251 1.390 . S
C1252 C1253 1.394 . S
C1252 C1258 1.465 . S
C1253 C1248 1.399 . S
C1253 C1252 1.394 . S
C1253 C1254 1.516 . S
C1254 C1253 1.516 . S
C1254 C1255 1.502 . S
C1254 C1256 1.561 . S
C1254 C1257 1.526 . S
C1255 H1239 0.959 . S
C1255 H1240 0.959 . S
C1255 H1241 0.961 . S
C1255 C1254 1.502 . S
C1256 H1242 0.960 . S
C1256 H1243 0.961 . S
C1256 H1244 0.959 . S
C1256 C1254 1.561 . S
C1257 C1254 1.526 . S
C1257 C1258 1.396 . S
C1257 C1262 1.390 . S
C1258 C1252 1.465 . S
C1258 C1257 1.396 . S
C1258 C1259 1.399 . S
C1259 H1245 0.929 . S
C1259 C1258 1.399 . S
C1259 C1260 1.385 . S
C1260 H1246 0.931 . S
C1260 C1259 1.385 . S
C1260 C1261 1.389 . S
C1261 C1260 1.389 . S
C1261 C1262 1.387 . S
C1262 H1247 0.930 . S
C1262 C1257 1.390 . S
C1262 C1261 1.387 . S
H1263 C1275 0.930 . S
H1264 C1277 0.930 . S
H1265 C1278 0.930 . S
H1266 C1282 0.957 . S
H1267 C1282 0.959 . S
H1268 C1282 0.961 . S
H1269 C1283 0.960 . S
H1270 C1283 0.961 . S
H1271 C1283 0.959 . S
H1272 C1286 0.929 . S
H1273 C1287 0.931 . S
H1274 C1289 0.930 . S
C1275 H1263 0.930 . S
C1275 C1276 1.399 . S
C1275 C1280 1.399 . S
C1276 C1275 1.399 . S
C1276 C1277 1.376 . S
C1277 H1264 0.930 . S
C1277 C1276 1.376 . S
C1277 C1278 1.388 . S
C1278 H1265 0.930 . S
C1278 C1277 1.388 . S
C1278 C1279 1.390 . S
C1279 C1278 1.390 . S
C1279 C1280 1.394 . S
C1279 C1285 1.465 1_455 S
C1280 C1275 1.399 . S
C1280 C1279 1.394 . S
C1280 C1281 1.516 . S
C1281 C1280 1.516 . S
C1281 C1282 1.502 . S
C1281 C1283 1.561 . S
C1281 C1284 1.526 1_455 S
C1282 H1266 0.957 . S
C1282 H1267 0.959 . S
C1282 H1268 0.961 . S
C1282 C1281 1.502 . S
C1283 H1269 0.960 . S
C1283 H1270 0.961 . S
C1283 H1271 0.959 . S
C1283 C1281 1.561 . S
C1284 C1281 1.526 1_655 S
C1284 C1285 1.396 . S
C1284 C1289 1.390 . S
C1285 C1279 1.465 1_655 S
C1285 C1284 1.396 . S
C1285 C1286 1.399 . S
C1286 H1272 0.929 . S
C1286 C1285 1.399 . S
C1286 C1287 1.385 . S
C1287 H1273 0.931 . S
C1287 C1286 1.385 . S
C1287 C1288 1.389 . S
C1288 C1287 1.389 . S
C1288 C1289 1.387 . S
C1289 H1274 0.930 . S
C1289 C1284 1.390 . S
C1289 C1288 1.387 . S
H1290 C1302 0.930 . S
H1291 C1304 0.930 . S
H1292 C1305 0.930 . S
H1293 C1309 0.959 . S
H1294 C1309 0.959 . S
H1295 C1309 0.961 . S
H1296 C1310 0.960 . S
H1297 C1310 0.961 . S
H1298 C1310 0.959 . S
H1299 C1313 0.929 . S
H1300 C1314 0.931 . S
H1301 C1316 0.930 . S
C1302 H1290 0.930 . S
C1302 C1303 1.399 . S
C1302 C1307 1.399 . S
C1303 C1302 1.399 . S
C1303 C1304 1.376 . S
C1304 H1291 0.930 . S
C1304 C1303 1.376 . S
C1304 C1305 1.388 . S
C1305 H1292 0.930 . S
C1305 C1304 1.388 . S
C1305 C1306 1.390 . S
C1306 C1305 1.390 . S
C1306 C1307 1.394 . S
C1306 C1312 1.465 . S
C1307 C1302 1.399 . S
C1307 C1306 1.394 . S
C1307 C1308 1.516 . S
C1308 C1307 1.516 . S
C1308 C1309 1.502 . S
C1308 C1310 1.561 . S
C1308 C1311 1.526 . S
C1309 H1293 0.959 . S
C1309 H1294 0.959 . S
C1309 H1295 0.961 . S
C1309 C1308 1.502 . S
C1310 H1296 0.960 . S
C1310 H1297 0.961 . S
C1310 H1298 0.959 . S
C1310 C1308 1.561 . S
C1311 C1308 1.526 . S
C1311 C1312 1.396 . S
C1311 C1316 1.390 . S
C1312 C1306 1.465 . S
C1312 C1311 1.396 . S
C1312 C1313 1.399 . S
C1313 H1299 0.929 . S
C1313 C1312 1.399 . S
C1313 C1314 1.385 . S
C1314 H1300 0.931 . S
C1314 C1313 1.385 . S
C1314 C1315 1.389 . S
C1315 C1314 1.389 . S
C1315 C1316 1.387 . S
C1316 H1301 0.930 . S
C1316 C1311 1.390 . S
C1316 C1315 1.387 . S
H1317 C1329 0.930 . S
H1318 C1331 0.930 . S
H1319 C1332 0.930 . S
H1320 C1336 0.959 . S
H1321 C1336 0.959 . S
H1322 C1336 0.961 . S
H1323 C1337 0.960 . S
H1324 C1337 0.961 . S
H1325 C1337 0.959 . S
H1326 C1340 0.929 . S
H1327 C1341 0.931 . S
H1328 C1343 0.930 . S
C1329 H1317 0.930 . S
C1329 C1330 1.399 . S
C1329 C1334 1.399 . S
C1330 C1329 1.399 . S
C1330 C1331 1.376 . S
C1331 H1318 0.930 . S
C1331 C1330 1.376 . S
C1331 C1332 1.388 . S
C1332 H1319 0.930 . S
C1332 C1331 1.388 . S
C1332 C1333 1.390 . S
C1333 C1332 1.390 . S
C1333 C1334 1.394 . S
C1333 C1339 1.465 . S
C1334 C1329 1.399 . S
C1334 C1333 1.394 . S
C1334 C1335 1.516 . S
C1335 C1334 1.516 . S
C1335 C1336 1.502 . S
C1335 C1337 1.561 . S
C1335 C1338 1.526 . S
C1336 H1320 0.959 . S
C1336 H1321 0.959 . S
C1336 H1322 0.961 . S
C1336 C1335 1.502 . S
C1337 H1323 0.960 . S
C1337 H1324 0.961 . S
C1337 H1325 0.959 . S
C1337 C1335 1.561 . S
C1338 C1335 1.526 . S
C1338 C1339 1.396 . S
C1338 C1343 1.390 . S
C1339 C1333 1.465 . S
C1339 C1338 1.396 . S
C1339 C1340 1.399 . S
C1340 H1326 0.929 . S
C1340 C1339 1.399 . S
C1340 C1341 1.385 . S
C1341 H1327 0.931 . S
C1341 C1340 1.385 . S
C1341 C1342 1.389 . S
C1342 C1341 1.389 . S
C1342 C1343 1.387 . S
C1343 H1328 0.930 . S
C1343 C1338 1.390 . S
C1343 C1342 1.387 . S
H1344 C1356 0.930 . S
H1345 C1358 0.930 . S
H1346 C1359 0.930 . S
H1347 C1363 0.959 . S
H1348 C1363 0.959 . S
H1349 C1363 0.961 . S
H1350 C1364 0.960 . S
H1351 C1364 0.961 . S
H1352 C1364 0.959 . S
H1353 C1367 0.929 . S
H1354 C1368 0.931 . S
H1355 C1370 0.930 . S
C1356 H1344 0.930 . S
C1356 C1357 1.399 . S
C1356 C1361 1.399 . S
C1357 C1356 1.399 . S
C1357 C1358 1.376 . S
C1358 H1345 0.930 . S
C1358 C1357 1.376 . S
C1358 C1359 1.388 . S
C1359 H1346 0.930 . S
C1359 C1358 1.388 . S
C1359 C1360 1.390 . S
C1360 C1359 1.390 . S
C1360 C1361 1.394 . S
C1360 C1366 1.465 . S
C1361 C1356 1.399 . S
C1361 C1360 1.394 . S
C1361 C1362 1.516 . S
C1362 C1361 1.516 . S
C1362 C1363 1.502 . S
C1362 C1364 1.561 . S
C1362 C1365 1.526 . S
C1363 H1347 0.959 . S
C1363 H1348 0.959 . S
C1363 H1349 0.961 . S
C1363 C1362 1.502 . S
C1364 H1350 0.960 . S
C1364 H1351 0.961 . S
C1364 H1352 0.959 . S
C1364 C1362 1.561 . S
C1365 C1362 1.526 . S
C1365 C1366 1.396 . S
C1365 C1370 1.390 . S
C1366 C1360 1.465 . S
C1366 C1365 1.396 . S
C1366 C1367 1.399 . S
C1367 H1353 0.929 . S
C1367 C1366 1.399 . S
C1367 C1368 1.385 . S
C1368 H1354 0.931 . S
C1368 C1367 1.385 . S
C1368 C1369 1.389 . S
C1369 C1368 1.389 . S
C1369 C1370 1.387 . S
C1370 H1355 0.930 . S
C1370 C1365 1.390 . S
C1370 C1369 1.387 . S
H1371 C1383 0.930 . S
H1372 C1385 0.930 . S
H1373 C1386 0.930 . S
H1374 C1390 0.959 . S
H1375 C1390 0.959 . S
H1376 C1390 0.961 . S
H1377 C1391 0.960 . S
H1378 C1391 0.961 . S
H1379 C1391 0.959 . S
H1380 C1394 0.929 . S
H1381 C1395 0.931 . S
H1382 C1397 0.930 . S
C1383 H1371 0.930 . S
C1383 C1384 1.399 . S
C1383 C1388 1.399 . S
C1384 C1383 1.399 . S
C1384 C1385 1.376 . S
C1385 H1372 0.930 . S
C1385 C1384 1.376 . S
C1385 C1386 1.388 . S
C1386 H1373 0.930 . S
C1386 C1385 1.388 . S
C1386 C1387 1.390 . S
C1387 C1386 1.390 . S
C1387 C1388 1.394 . S
C1387 C1393 1.465 . S
C1388 C1383 1.399 . S
C1388 C1387 1.394 . S
C1388 C1389 1.516 . S
C1389 C1388 1.516 . S
C1389 C1390 1.502 . S
C1389 C1391 1.561 . S
C1389 C1392 1.526 . S
C1390 H1374 0.959 . S
C1390 H1375 0.959 . S
C1390 H1376 0.961 . S
C1390 C1389 1.502 . S
C1391 H1377 0.960 . S
C1391 H1378 0.961 . S
C1391 H1379 0.959 . S
C1391 C1389 1.561 . S
C1392 C1389 1.526 . S
C1392 C1393 1.396 . S
C1392 C1397 1.390 . S
C1393 C1387 1.465 . S
C1393 C1392 1.396 . S
C1393 C1394 1.399 . S
C1394 H1380 0.929 . S
C1394 C1393 1.399 . S
C1394 C1395 1.385 . S
C1395 H1381 0.931 . S
C1395 C1394 1.385 . S
C1395 C1396 1.389 . S
C1396 C1395 1.389 . S
C1396 C1397 1.387 . S
C1397 H1382 0.930 . S
C1397 C1392 1.390 . S
C1397 C1396 1.387 . S
H1398 C1410 0.930 . S
H1399 C1412 0.930 . S
H1400 C1413 0.930 . S
H1401 C1417 0.959 . S
H1402 C1417 0.959 . S
H1403 C1417 0.961 . S
H1404 C1418 0.960 . S
H1405 C1418 0.961 . S
H1406 C1418 0.959 . S
H1407 C1421 0.929 . S
H1408 C1422 0.931 . S
H1409 C1424 0.930 . S
C1410 H1398 0.930 . S
C1410 C1411 1.399 . S
C1410 C1415 1.399 . S
C1411 C1410 1.399 . S
C1411 C1412 1.376 . S
C1412 H1399 0.930 . S
C1412 C1411 1.376 . S
C1412 C1413 1.388 . S
C1413 H1400 0.930 . S
C1413 C1412 1.388 . S
C1413 C1414 1.390 . S
C1414 C1413 1.390 . S
C1414 C1415 1.394 . S
C1414 C1420 1.465 . S
C1415 C1410 1.399 . S
C1415 C1414 1.394 . S
C1415 C1416 1.516 . S
C1416 C1415 1.516 . S
C1416 C1417 1.502 . S
C1416 C1418 1.561 . S
C1416 C1419 1.526 . S
C1417 H1401 0.959 . S
C1417 H1402 0.959 . S
C1417 H1403 0.961 . S
C1417 C1416 1.502 . S
C1418 H1404 0.960 . S
C1418 H1405 0.961 . S
C1418 H1406 0.959 . S
C1418 C1416 1.561 . S
C1419 C1416 1.526 . S
C1419 C1420 1.396 . S
C1419 C1424 1.390 . S
C1420 C1414 1.465 . S
C1420 C1419 1.396 . S
C1420 C1421 1.399 . S
C1421 H1407 0.929 . S
C1421 C1420 1.399 . S
C1421 C1422 1.385 . S
C1422 H1408 0.931 . S
C1422 C1421 1.385 . S
C1422 C1423 1.389 . S
C1423 C1422 1.389 . S
C1423 C1424 1.387 . S
C1424 H1409 0.930 . S
C1424 C1419 1.390 . S
C1424 C1423 1.387 . S
H1425 C1437 0.930 . S
H1426 C1439 0.930 . S
H1427 C1440 0.930 . S
H1428 C1444 0.959 . S
H1429 C1444 0.959 . S
H1430 C1444 0.961 . S
H1431 C1445 0.960 . S
H1432 C1445 0.961 . S
H1433 C1445 0.959 . S
H1434 C1448 0.929 . S
H1435 C1449 0.931 . S
H1436 C1451 0.930 . S
C1437 H1425 0.930 . S
C1437 C1438 1.399 . S
C1437 C1442 1.399 . S
C1438 C1437 1.399 . S
C1438 C1439 1.376 . S
C1439 H1426 0.930 . S
C1439 C1438 1.376 . S
C1439 C1440 1.388 . S
C1440 H1427 0.930 . S
C1440 C1439 1.388 . S
C1440 C1441 1.390 . S
C1441 C1440 1.390 . S
C1441 C1442 1.394 . S
C1441 C1447 1.465 . S
C1442 C1437 1.399 . S
C1442 C1441 1.394 . S
C1442 C1443 1.516 . S
C1443 C1442 1.516 . S
C1443 C1444 1.502 . S
C1443 C1445 1.561 . S
C1443 C1446 1.526 . S
C1444 H1428 0.959 . S
C1444 H1429 0.959 . S
C1444 H1430 0.961 . S
C1444 C1443 1.502 . S
C1445 H1431 0.960 . S
C1445 H1432 0.961 . S
C1445 H1433 0.959 . S
C1445 C1443 1.561 . S
C1446 C1443 1.526 . S
C1446 C1447 1.396 . S
C1446 C1451 1.390 . S
C1447 C1441 1.465 . S
C1447 C1446 1.396 . S
C1447 C1448 1.399 . S
C1448 H1434 0.929 . S
C1448 C1447 1.399 . S
C1448 C1449 1.385 . S
C1449 H1435 0.931 . S
C1449 C1448 1.385 . S
C1449 C1450 1.389 . S
C1450 C1449 1.389 . S
C1450 C1451 1.387 . S
C1451 H1436 0.930 . S
C1451 C1446 1.390 . S
C1451 C1450 1.387 . S
C493 C10 1.098 . S
C505 C330 1.048 . S
C520 C50 1.041 . S
C532 C370 1.064 . S
C547 C90 1.083 . S
C559 C410 1.116 . S
C574 C450 1.087 . S
C586 C130 1.115 . S
C601 C170 1.044 . S
C613 C250 1.058 . S
C628 C290 1.042 . S
C640 C210 1.064 . S
C655 C416 1.489 . S
C667 C16 1.457 . S
C682 C456 1.490 . S
C694 C56 1.450 . S
C709 C96 1.476 . S
C721 C256 1.476 . S
C736 C296 1.475 . S
C748 C136 1.477 . S
C763 C336 1.443 . S
C775 C176 1.430 . S
C790 C216 1.447 . S
C802 C376 1.489 . S
C817 C291 4.310 . S
C829 C11 4.326 . S
C844 C331 4.326 . S
C856 C51 4.331 . S
C871 C371 4.325 . S
C883 C91 4.310 . S
C898 C131 4.310 . S
C910 C411 4.325 . S
C925 C171 4.315 . S
C937 C451 4.332 . S
C952 C211 4.315 . S
C964 C251 4.312 . S
C979 C19 0.559 . S
C991 C139 0.396 . S
C1006 C59 0.598 . S
C1018 C179 0.384 . S
C1033 C99 0.510 . S
C1045 C219 0.641 . S
C1060 C379 0.525 . S
C1072 C259 0.418 . S
C1087 C299 0.408 . S
C1099 C419 0.537 . S
C1114 C459 0.557 . S
C1126 C339 0.620 . S
C1141 C287 0.758 . S
C1153 C7 0.876 . S
C1168 C327 0.878 . S
C1180 C47 0.754 . S
C1195 C87 0.878 . S
C1207 C367 0.747 . S
C1222 C407 0.756 . S
C1234 C127 0.876 . S
C1249 C447 0.877 . S
C1261 C167 0.779 . S
C1276 C207 0.807 . S
C1288 C247 0.867 . S
C1303 C2 4.654 . S
C1315 C402 4.651 . S
C1330 C42 4.651 . S
C1342 C442 4.651 1_556 S
C1357 C82 4.650 1_554 S
C1369 C242 4.652 . S
C1384 C122 4.653 . S
C1396 C282 4.650 . S
C1411 C162 4.652 . S
C1423 C322 4.657 1_556 S
C1438 C362 4.650 . S
C1450 C202 4.654 1_554 S
