# Generated by pormake.
# Topology wkj, (6)-cn, num edge types: 1
# Building blocks:
#     Node 0, Type 0, BuildingBlock: BETFEN_clean_sbu_0, # of connection points: 6
#     Node 1, Type 0, BuildingBlock: BETFEN_clean_sbu_0, # of connection points: 6
#     Node 2, Type 0, BuildingBlock: BETFEN_clean_sbu_0, # of connection points: 6
#     Node 3, Type 0, BuildingBlock: BETFEN_clean_sbu_0, # of connection points: 6
#     Node 4, Type 0, BuildingBlock: BETFEN_clean_sbu_0, # of connection points: 6
#     Node 5, Type 0, BuildingBlock: BETFEN_clean_sbu_0, # of connection points: 6
#     Node 6, Type 0, BuildingBlock: BETFEN_clean_sbu_0, # of connection points: 6
#     Node 7, Type 0, BuildingBlock: BETFEN_clean_sbu_0, # of connection points: 6
#     Node 8, Type 0, BuildingBlock: BETFEN_clean_sbu_0, # of connection points: 6
#     Node 9, Type 0, BuildingBlock: BETFEN_clean_sbu_0, # of connection points: 6
#     Node 10, Type 0, BuildingBlock: BETFEN_clean_sbu_0, # of connection points: 6
#     Node 11, Type 0, BuildingBlock: BETFEN_clean_sbu_0, # of connection points: 6
#     Edge 12, Type (0, 0), BuildingBlock: TEMPAE_clean_linker_10, # of connection points: 2
#     Edge 13, Type (0, 0), BuildingBlock: TEMPAE_clean_linker_10, # of connection points: 2
#     Edge 14, Type (0, 0), BuildingBlock: TEMPAE_clean_linker_10, # of connection points: 2
#     Edge 15, Type (0, 0), BuildingBlock: TEMPAE_clean_linker_10, # of connection points: 2
#     Edge 16, Type (0, 0), BuildingBlock: TEMPAE_clean_linker_10, # of connection points: 2
#     Edge 17, Type (0, 0), BuildingBlock: TEMPAE_clean_linker_10, # of connection points: 2
#     Edge 18, Type (0, 0), BuildingBlock: TEMPAE_clean_linker_10, # of connection points: 2
#     Edge 19, Type (0, 0), BuildingBlock: TEMPAE_clean_linker_10, # of connection points: 2
#     Edge 20, Type (0, 0), BuildingBlock: TEMPAE_clean_linker_10, # of connection points: 2
#     Edge 21, Type (0, 0), BuildingBlock: TEMPAE_clean_linker_10, # of connection points: 2
#     Edge 22, Type (0, 0), BuildingBlock: TEMPAE_clean_linker_10, # of connection points: 2
#     Edge 23, Type (0, 0), BuildingBlock: TEMPAE_clean_linker_10, # of connection points: 2
#     Edge 24, Type (0, 0), BuildingBlock: TEMPAE_clean_linker_10, # of connection points: 2
#     Edge 25, Type (0, 0), BuildingBlock: TEMPAE_clean_linker_10, # of connection points: 2
#     Edge 26, Type (0, 0), BuildingBlock: TEMPAE_clean_linker_10, # of connection points: 2
#     Edge 27, Type (0, 0), BuildingBlock: TEMPAE_clean_linker_10, # of connection points: 2
#     Edge 28, Type (0, 0), BuildingBlock: TEMPAE_clean_linker_10, # of connection points: 2
#     Edge 29, Type (0, 0), BuildingBlock: TEMPAE_clean_linker_10, # of connection points: 2
#     Edge 30, Type (0, 0), BuildingBlock: TEMPAE_clean_linker_10, # of connection points: 2
#     Edge 31, Type (0, 0), BuildingBlock: TEMPAE_clean_linker_10, # of connection points: 2
#     Edge 32, Type (0, 0), BuildingBlock: TEMPAE_clean_linker_10, # of connection points: 2
#     Edge 33, Type (0, 0), BuildingBlock: TEMPAE_clean_linker_10, # of connection points: 2
#     Edge 34, Type (0, 0), BuildingBlock: TEMPAE_clean_linker_10, # of connection points: 2
#     Edge 35, Type (0, 0), BuildingBlock: TEMPAE_clean_linker_10, # of connection points: 2
#     Edge 36, Type (0, 0), BuildingBlock: TEMPAE_clean_linker_10, # of connection points: 2
#     Edge 37, Type (0, 0), BuildingBlock: TEMPAE_clean_linker_10, # of connection points: 2
#     Edge 38, Type (0, 0), BuildingBlock: TEMPAE_clean_linker_10, # of connection points: 2
#     Edge 39, Type (0, 0), BuildingBlock: TEMPAE_clean_linker_10, # of connection points: 2
#     Edge 40, Type (0, 0), BuildingBlock: TEMPAE_clean_linker_10, # of connection points: 2
#     Edge 41, Type (0, 0), BuildingBlock: TEMPAE_clean_linker_10, # of connection points: 2
#     Edge 42, Type (0, 0), BuildingBlock: TEMPAE_clean_linker_10, # of connection points: 2
#     Edge 43, Type (0, 0), BuildingBlock: TEMPAE_clean_linker_10, # of connection points: 2
#     Edge 44, Type (0, 0), BuildingBlock: TEMPAE_clean_linker_10, # of connection points: 2
#     Edge 45, Type (0, 0), BuildingBlock: TEMPAE_clean_linker_10, # of connection points: 2
#     Edge 46, Type (0, 0), BuildingBlock: TEMPAE_clean_linker_10, # of connection points: 2
#     Edge 47, Type (0, 0), BuildingBlock: TEMPAE_clean_linker_10, # of connection points: 2
# Relax obj value: 0.762
# Max RMSD: 0.175
# Mean RMSD: 0.175
data_MOF--net-wkj--node1-BETFEN_clean_sbu_0--edge1-TEMPAE_clean_linker_10
_symmetry_space_group_name_H-M    P1
_symmetry_Int_Tables_number       1
_symmetry_cell_setting            triclinic
loop_
_symmetry_equiv_pos_as_xyz
'x, y, z'
_cell_length_a     50.123135
_cell_length_b     49.986507
_cell_length_c     31.277579
_cell_angle_alpha  89.836309
_cell_angle_beta   90.109773
_cell_angle_gamma 120.09929
loop_
_atom_site_label
_atom_site_type_symbol
_atom_site_fract_x
_atom_site_fract_y
_atom_site_fract_z
_atom_type_partial_charge
Pr0 Pr 0.4538 0.08803 0.35493 0.0
Pr1 Pr 0.50516 0.08807 0.34321 0.0
C2 C 0.39621 0.07881 0.36442 0.0
C3 C 0.37848 0.07978 0.40093 0.0
C4 C 0.34627 0.06146 0.40129 0.0
C5 C 0.32978 0.05908 0.43851 0.0
C6 C 0.34542 0.07502 0.47572 0.0
C7 C 0.37756 0.09484 0.47416 0.0
C8 C 0.39395 0.09709 0.43716 0.0
C9 C 0.49672 0.14868 0.33011 0.0
C10 C 0.50013 0.10631 0.44617 0.0
C11 C 0.56603 0.11038 0.33175 0.0
C12 C 0.58857 0.14096 0.31493 0.0
C13 C 0.61439 0.14533 0.29193 0.0
C14 C 0.63123 0.17211 0.26728 0.0
C15 C 0.62189 0.19442 0.26454 0.0
C16 C 0.59789 0.19118 0.29127 0.0
C17 C 0.58144 0.16474 0.31616 0.0
C18 C 0.46265 0.03374 0.38876 0.0
C19 C 0.45838 0.04782 0.26383 0.0
O20 O 0.40238 0.05637 0.3648 0.0
O21 O 0.41982 0.10519 0.35321 0.0
O22 O 0.49304 0.12425 0.31126 0.0
O23 O 0.48112 0.14135 0.36533 0.0
O24 O 0.51961 0.10833 0.41589 0.0
O25 O 0.47126 0.09674 0.4319 0.0
O26 O 0.55405 0.11053 0.36858 0.0
O27 O 0.54526 0.09216 0.30428 0.0
O28 O 0.46822 0.06063 0.39461 0.0
O29 O 0.47973 0.03377 0.35745 0.0
O30 O 0.44179 0.05758 0.28597 0.0
O31 O 0.48586 0.05634 0.28003 0.0
H32 H 0.33404 0.04796 0.37348 0.0
H33 H 0.30505 0.04364 0.43885 0.0
H34 H 0.39043 0.1069 0.50246 0.0
H35 H 0.41887 0.1112 0.43755 0.0
H36 H 0.62029 0.12725 0.29078 0.0
H37 H 0.65 0.17416 0.24779 0.0
H38 H 0.58964 0.20746 0.28993 0.0
H39 H 0.56156 0.16182 0.33375 0.0
Pr40 Pr 0.35402 0.4584 0.6941 0.0
Pr41 Pr 0.40656 0.51001 0.67881 0.0
C42 C 0.30555 0.40089 0.70626 0.0
C43 C 0.2924 0.38197 0.74455 0.0
C44 C 0.26652 0.35222 0.74212 0.0
C45 C 0.25512 0.33411 0.77913 0.0
C46 C 0.26946 0.34579 0.81883 0.0
C47 C 0.29511 0.37589 0.82081 0.0
C48 C 0.30641 0.39376 0.78409 0.0
C49 C 0.33811 0.50181 0.66535 0.0
C50 C 0.38554 0.50519 0.78392 0.0
C51 C 0.44894 0.57035 0.66943 0.0
C52 C 0.45447 0.59449 0.63795 0.0
C53 C 0.45254 0.58823 0.59406 0.0
C54 C 0.45044 0.60821 0.56489 0.0
C55 C 0.45001 0.63473 0.57903 0.0
C56 C 0.45413 0.64207 0.62274 0.0
C57 C 0.45646 0.62211 0.65197 0.0
C58 C 0.41617 0.46556 0.72291 0.0
C59 C 0.39357 0.46297 0.59769 0.0
O60 O 0.33304 0.40637 0.69582 0.0
O61 O 0.30302 0.42556 0.7042 0.0
O62 O 0.35814 0.49683 0.64732 0.0
O63 O 0.3295 0.48718 0.70133 0.0
O64 O 0.40294 0.52421 0.75291 0.0
O65 O 0.36518 0.47639 0.77047 0.0
O66 O 0.42348 0.56038 0.69121 0.0
O67 O 0.45385 0.54808 0.65754 0.0
O68 O 0.39674 0.47328 0.73062 0.0
O69 O 0.43247 0.4813 0.6901 0.0
O70 O 0.37226 0.44465 0.62668 0.0
O71 O 0.40955 0.49255 0.60808 0.0
H72 H 0.25549 0.34288 0.71165 0.0
H73 H 0.23547 0.31095 0.77668 0.0
H74 H 0.30735 0.3853 0.85056 0.0
H75 H 0.32657 0.4166 0.78641 0.0
H76 H 0.45061 0.56694 0.58241 0.0
H77 H 0.44676 0.60152 0.53154 0.0
H78 H 0.45405 0.66238 0.63451 0.0
H79 H 0.45782 0.62725 0.6858 0.0
Pr80 Pr 0.88144 0.37766 1.01316 0.0
Pr81 Pr 0.88026 0.43159 0.99906 0.0
C82 C 0.87918 0.3246 1.03733 0.0
C83 C 0.8821 0.31073 1.07706 0.0
C84 C 0.89624 0.29264 1.07659 0.0
C85 C 0.90074 0.28086 1.11477 0.0
C86 C 0.89091 0.28689 0.15375 0.0
C87 C 0.87591 0.30426 0.15382 0.0
C88 C 0.87166 0.31621 1.11583 0.0
C89 C 0.82812 0.36373 0.96579 0.0
C90 C 0.87131 0.41431 1.10382 0.0
C91 C 0.86317 0.4718 0.97063 0.0
C92 C 0.83341 0.46488 0.95255 0.0
C93 C 0.83052 0.48674 0.92802 0.0
C94 C 0.80389 0.47758 0.9036 0.0
C95 C 0.78031 0.44628 0.90267 0.0
C96 C 0.78207 0.42541 0.93122 0.0
C97 C 0.80842 0.43464 0.9558 0.0
C98 C 0.93387 0.44301 1.04214 0.0
C99 C 0.91793 0.41398 0.92015 0.0
O100 O 0.90417 0.34853 1.02303 0.0
O101 O 0.85501 0.32781 1.03424 0.0
O102 O 0.83715 0.38085 0.99902 0.0
O103 O 0.84984 0.3589 0.95288 0.0
O104 O 0.86941 0.43239 1.07429 0.0
O105 O 0.87668 0.39207 1.08904 0.0
O106 O 0.86238 0.46447 1.01074 0.0
O107 O 0.87893 0.46292 0.94741 0.0
O108 O 0.92223 0.42576 1.01043 0.0
O109 O 0.92042 0.45903 1.04853 0.0
O110 O 0.91357 0.39177 0.94811 0.0
O111 O 0.90571 0.43152 0.93114 0.0
H112 H 0.90445 0.28827 1.04687 0.0
H113 H 0.91257 0.26772 1.11401 0.0
H114 H 0.86882 0.30994 0.18353 0.0
H115 H 0.86094 0.33037 0.11693 0.0
H116 H 0.84953 0.51028 0.92558 0.0
H117 H 0.80299 0.49435 0.88255 0.0
H118 H 0.76471 0.4011 0.93134 0.0
H119 H 0.8102 0.41747 0.97487 0.0
Pr120 Pr 0.5213 0.90574 0.3546 0.0
Pr121 Pr 0.46511 0.89516 0.34036 0.0
C122 C 0.57718 0.91775 0.38303 0.0
C123 C 0.59049 0.91768 0.42465 0.0
C124 C 0.62211 0.93709 0.43157 0.0
C125 C 0.6344 0.93974 0.47245 0.0
C126 C 0.61513 0.92298 0.5068 0.0
C127 C 0.58371 0.90232 0.49921 0.0
C128 C 0.57145 0.89976 0.45841 0.0
C129 C 0.4908 0.84946 0.30952 0.0
C130 C 0.47052 0.88331 0.44383 0.0
C131 C 0.40774 0.87073 0.30765 0.0
C132 C 0.38545 0.83865 0.29649 0.0
C133 C 0.35608 0.83039 0.28116 0.0
C134 C 0.33752 0.8012 0.26294 0.0
C135 C 0.34854 0.7803 0.25887 0.0
C136 C 0.37679 0.78779 0.27834 0.0
C137 C 0.39496 0.81666 0.29706 0.0
C138 C 0.49897 0.95084 0.38488 0.0
C139 C 0.51572 0.94066 0.26223 0.0
O140 O 0.56991 0.93915 0.37732 0.0
O141 O 0.55616 0.89088 0.36885 0.0
O142 O 0.47915 0.85631 0.34115 0.0
O143 O 0.51574 0.87389 0.29691 0.0
O144 O 0.4502 0.87865 0.41346 0.0
O145 O 0.49949 0.89366 0.42961 0.0
O146 O 0.4137 0.87633 0.34823 0.0
O147 O 0.43265 0.88337 0.28425 0.0
O148 O 0.50898 0.94322 0.35322 0.0
O149 O 0.47029 0.93099 0.39174 0.0
O150 O 0.53483 0.93559 0.28654 0.0
O151 O 0.48685 0.92791 0.27656 0.0
H152 H 0.63706 0.95101 0.40575 0.0
H153 H 0.6587 0.95582 0.47762 0.0
H154 H 0.56828 0.88956 0.52527 0.0
H155 H 0.54692 0.88465 0.4536 0.0
H156 H 0.34823 0.84702 0.28108 0.0
H157 H 0.31557 0.79593 0.24921 0.0
H158 H 0.38636 0.77267 0.27568 0.0
H159 H 0.41754 0.82275 0.3092 0.0
Pr160 Pr 0.60606 0.52309 0.69254 0.0
Pr161 Pr 0.56289 0.46523 0.67425 0.0
C162 C 0.64578 0.57965 0.72391 0.0
C163 C 0.66874 0.59146 0.75826 0.0
C164 C 0.68306 0.57492 0.77189 0.0
C165 C 0.69993 0.58293 0.80998 0.0
C166 C 0.7022 0.6072 0.83534 0.0
C167 C 0.68973 0.62508 0.81951 0.0
C168 C 0.67322 0.61727 0.78131 0.0
C169 C 0.63582 0.49555 0.64938 0.0
C170 C 0.57661 0.47112 0.77986 0.0
C171 C 0.53192 0.40643 0.64535 0.0
C172 C 0.54021 0.38681 0.61982 0.0
C173 C 0.53181 0.38137 0.57668 0.0
C174 C 0.54316 0.36677 0.5507 0.0
C175 C 0.56295 0.35679 0.56732 0.0
C176 C 0.56947 0.36021 0.61131 0.0
C177 C 0.55823 0.37507 0.63731 0.0
C178 C 0.53683 0.49754 0.71344 0.0
C179 C 0.5697 0.51624 0.59648 0.0
O180 O 0.61722 0.56323 0.7365 0.0
O181 O 0.65188 0.56784 0.69085 0.0
O182 O 0.61607 0.48242 0.67932 0.0
O183 O 0.63735 0.52132 0.6388 0.0
O184 O 0.55916 0.45188 0.74942 0.0
O185 O 0.59801 0.49943 0.76602 0.0
O186 O 0.54424 0.41412 0.68322 0.0
O187 O 0.53156 0.42935 0.62564 0.0
O188 O 0.5561 0.50783 0.68372 0.0
O189 O 0.52899 0.46918 0.72134 0.0
O190 O 0.58508 0.53579 0.6285 0.0
O191 O 0.56144 0.48678 0.60396 0.0
H192 H 0.67977 0.5548 0.7544 0.0
H193 H 0.70954 0.56894 0.82084 0.0
H194 H 0.69035 0.64357 0.83823 0.0
H195 H 0.66217 0.63015 0.7713 0.0
H196 H 0.5177 0.38983 0.56243 0.0
H197 H 0.53796 0.36529 0.51689 0.0
H198 H 0.58425 0.35252 0.62538 0.0
H199 H 0.56474 0.37842 0.67074 0.0
Pr200 Pr 0.06917 0.60262 1.02587 0.0
Pr201 Pr 0.09879 0.57443 1.00035 0.0
C202 C 0.03146 0.62541 1.04193 0.0
C203 C 0.00899 0.62362 1.07319 0.0
C204 C -0.00186 0.64449 1.07036 0.0
C205 C 0.97776 0.64412 1.10104 0.0
C206 C 0.96805 0.62285 0.13503 0.0
C207 C 0.97841 0.60138 0.13701 0.0
C208 C -0.00118 0.60182 1.10634 0.0
C209 C 0.1302 0.648 0.99974 0.0
C210 C 0.09477 0.58041 1.1119 0.0
C211 C 0.14699 0.56527 0.98814 0.0
C212 C 0.17523 0.57661 0.96253 0.0
C213 C 0.18297 0.55553 0.94543 0.0
C214 C 0.20815 0.56573 0.91784 0.0
C215 C 0.22568 0.59719 0.9064 0.0
C216 C 0.21942 0.6185 0.9268 0.0
C217 C 0.19446 0.60831 0.9546 0.0
C218 C 0.04455 0.52704 1.03284 0.0
C219 C 0.05068 0.57453 0.9227 0.0
O220 O 0.02335 0.60072 1.01898 0.0
O221 O 0.06011 0.63878 1.05464 0.0
O222 O 0.11194 0.62383 0.97902 0.0
O223 O 0.11761 0.64815 1.03576 0.0
O224 O 0.10882 0.57511 1.07918 0.0
O225 O 0.07509 0.58966 1.09997 0.0
O226 O 0.1468 0.58459 1.01595 0.0
O227 O 0.12057 0.54908 0.9685 0.0
O228 O 0.05846 0.5541 1.04807 0.0
O229 O 0.05584 0.52558 0.99615 0.0
O230 O 0.04335 0.5861 0.95602 0.0
O231 O 0.07389 0.56902 0.92971 0.0
H232 H 0.00587 0.66146 1.04484 0.0
H233 H 0.97043 0.66111 1.09896 0.0
H234 H 0.97098 0.58446 0.16255 0.0
H235 H 0.00698 0.58548 1.10878 0.0
H236 H 0.16888 0.53103 0.95215 0.0
H237 H 0.21276 0.54876 0.90351 0.0
H238 H 0.23233 0.64286 0.91897 0.0
H239 H 0.18952 0.62513 0.96853 0.0
Pr240 Pr 0.88975 0.52382 0.52579 0.0
Pr241 Pr 0.87798 0.46606 0.54564 0.0
C242 C 0.90638 0.58338 0.51165 0.0
C243 C 0.89579 0.59898 0.48218 0.0
C244 C 0.86542 0.58359 0.46663 0.0
C245 C 0.85807 0.5939 0.42926 0.0
C246 C 0.8812 0.61922 0.40644 0.0
C247 C 0.9106 0.63663 0.42524 0.0
C248 C 0.91778 0.62654 0.46282 0.0
C249 C 0.8263 0.48688 0.54667 0.0
C250 C 0.86742 0.47418 0.43898 0.0
C251 C 0.85136 0.40667 0.57121 0.0
C252 C 0.83057 0.38759 0.60583 0.0
C253 C 0.83851 0.3953 0.64885 0.0
C254 C 0.81611 0.3815 0.68056 0.0
C255 C 0.78532 0.36 0.66981 0.0
C256 C 0.77799 0.35053 0.62716 0.0
C257 C 0.80055 0.36405 0.59546 0.0
C258 C 0.93093 0.4972 0.49433 0.0
C259 C 0.92044 0.51622 0.62356 0.0
O260 O 0.91946 0.56958 0.49291 0.0
O261 O 0.88763 0.56688 0.54234 0.0
O262 O 0.84856 0.48824 0.56811 0.0
O263 O 0.83665 0.50135 0.51075 0.0
O264 O 0.86141 0.45402 0.47066 0.0
O265 O 0.8799 0.50381 0.45127 0.0
O266 O 0.8388 0.41703 0.54403 0.0
O267 O 0.87994 0.42724 0.58087 0.0
O268 O 0.92544 0.50885 0.52625 0.0
O269 O 0.90998 0.46857 0.49007 0.0
O270 O 0.91827 0.53547 0.59541 0.0
O271 O 0.90572 0.48647 0.61272 0.0
H272 H 0.84804 0.56222 0.48124 0.0
H273 H 0.83504 0.58038 0.4162 0.0
H274 H 0.92917 0.65611 0.40872 0.0
H275 H 0.94135 0.63863 0.47437 0.0
H276 H 0.86142 0.41338 0.65783 0.0
H277 H 0.82243 0.38966 0.7131 0.0
H278 H 0.75451 0.33402 0.61806 0.0
H279 H 0.79399 0.35764 0.56241 0.0
Pr280 Pr 0.37363 0.90167 0.86181 0.0
Pr281 Pr 0.40065 0.86923 0.88664 0.0
C282 C 0.34937 0.9384 0.84725 0.0
C283 C 0.34663 0.95936 0.81679 0.0
C284 C 0.31758 0.95059 0.79935 0.0
C285 C 0.31413 0.9695 0.76973 0.0
C286 C 0.33966 -0.00223 0.75724 0.0
C287 C 0.36857 0.00712 0.77601 0.0
C288 C 0.37206 0.98805 0.80549 0.0
C289 C 0.32788 0.8404 0.88685 0.0
C290 C 0.39832 0.87837 0.77471 0.0
C291 C 0.4074 0.81943 0.89867 0.0
C292 C 0.39695 0.79239 0.92696 0.0
C293 C 0.36576 0.774 0.93807 0.0
C294 C 0.35685 0.75113 0.96933 0.0
C295 C 0.37895 0.74611 0.98997 0.0
C296 C 0.40967 0.76244 0.97547 0.0
C297 C 0.41861 0.78555 0.94445 0.0
C298 C 0.44795 0.92395 0.85602 0.0
C299 C 0.40221 0.91781 0.96478 0.0
O300 O 0.37564 0.94788 0.86692 0.0
O301 O 0.33562 0.90922 0.83691 0.0
O302 O 0.35207 0.85827 0.90775 0.0
O303 O 0.32827 0.85327 0.8507 0.0
O304 O 0.40202 0.86248 0.80683 0.0
O305 O 0.38899 0.89793 0.78761 0.0
O306 O 0.38672 0.81962 0.87329 0.0
O307 O 0.42613 0.84655 0.91525 0.0
O308 O 0.42099 0.91067 0.84113 0.0
O309 O 0.44995 0.91123 0.89131 0.0
O310 O 0.39354 0.92782 0.93089 0.0
O311 O 0.40432 0.89243 0.95811 0.0
H312 H 0.29756 0.92873 0.80807 0.0
H313 H 0.29166 0.96139 0.75545 0.0
H314 H 0.3886 0.02896 0.76737 0.0
H315 H 0.39466 -0.0044 0.81895 0.0
H316 H 0.34845 0.77819 0.92408 0.0
H317 H 0.33301 0.73912 0.97953 0.0
H318 H 0.42717 0.7587 0.98998 0.0
H319 H 0.4427 0.799 0.93548 0.0
Pr320 Pr 0.46157 0.36979 0.20337 0.0
Pr321 Pr 0.51819 0.41819 0.21908 0.0
C322 C 0.40599 0.32405 0.17634 0.0
C323 C 0.3856 0.31686 0.13954 0.0
C324 C 0.35925 0.28757 0.13577 0.0
C325 C 0.33946 0.28085 1.10084 0.0
C326 C 0.34579 0.30349 1.06951 0.0
C327 C 0.37222 0.33291 1.07392 0.0
C328 C 0.39216 0.33936 1.10831 0.0
C329 C 0.49423 0.34562 0.24734 0.0
C330 C 0.511 0.40584 1.11373 0.0
C331 C 0.57623 0.45521 0.2479 0.0
C332 C 0.59778 0.44762 0.26881 0.0
C333 C 0.62348 0.47024 0.29096 0.0
C334 C 0.64084 0.46166 0.31666 0.0
C335 C 0.63236 0.4303 0.32084 0.0
C336 C 0.6083 0.40821 0.29531 0.0
C337 C 0.59108 0.41681 0.26966 0.0
C338 C 0.47833 0.43583 0.18062 0.0
C339 C 0.46512 0.40442 0.2997 0.0
O340 O 0.40968 0.34715 0.19984 0.0
O341 O 0.43173 0.32424 0.16952 0.0
O342 O 0.50564 0.36542 0.21688 0.0
O343 O 0.46815 0.3426 0.25895 0.0
O344 O 0.53137 0.4213 0.14413 0.0
O345 O 0.48223 0.38566 0.12782 0.0
O346 O 0.56969 0.4462 0.2084 0.0
O347 O 0.55178 0.44907 0.27006 0.0
O348 O 0.47301 0.41869 0.21213 0.0
O349 O 0.50688 0.44739 0.1694 0.0
O350 O 0.44608 0.38398 0.27081 0.0
O351 O 0.49502 0.41969 0.28862 0.0
H352 H 0.35403 0.26995 0.15977 0.0
H353 H 0.31942 0.25796 1.0982 0.0
H354 H 0.37733 0.35114 1.05102 0.0
H355 H 0.41255 0.36197 1.11085 0.0
H356 H 0.62906 0.49417 0.29029 0.0
H357 H 0.65937 0.47918 0.33582 0.0
H358 H 0.60081 0.38384 0.29818 0.0
H359 H 0.5713 0.39905 0.25256 0.0
Pr360 Pr 0.08205 0.46464 0.53084 0.0
Pr361 Pr 0.09376 0.52072 0.54696 0.0
C362 C 0.06683 0.40793 0.50161 0.0
C363 C 0.03969 0.38285 0.48099 0.0
C364 C 0.04219 0.35993 0.45887 0.0
C365 C 0.01781 0.33878 0.43347 0.0
C366 C -0.00928 0.34046 0.42987 0.0
C367 C -0.01236 0.36227 0.45444 0.0
C368 C 0.01205 0.38347 0.47964 0.0
C369 C 0.13976 0.49447 0.57363 0.0
C370 C 0.10252 0.51571 0.44268 0.0
C371 C 0.11848 0.57896 0.57717 0.0
C372 C 0.14862 0.59896 0.59678 0.0
C373 C 0.16898 0.58771 0.60243 0.0
C374 C 0.19682 0.60536 0.62384 0.0
C375 C 0.2048 0.63466 0.64011 0.0
C376 C 0.18522 0.64672 0.63168 0.0
C377 C 0.15723 0.6289 0.61023 0.0
C378 C 0.03747 0.48781 0.50211 0.0
C379 C 0.04947 0.46955 0.62435 0.0
O380 O 0.06344 0.41346 0.54126 0.0
O381 O 0.08168 0.43308 0.4789 0.0
O382 O 0.13215 0.50662 0.54363 0.0
O383 O 0.11622 0.46846 0.58461 0.0
O384 O 0.10743 0.53583 0.47332 0.0
O385 O 0.09281 0.48668 0.45639 0.0
O386 O 0.1196 0.57253 0.53723 0.0
O387 O 0.0995 0.55461 0.59931 0.0
O388 O 0.045 0.47729 0.53332 0.0
O389 O 0.05756 0.51655 0.49625 0.0
O390 O 0.04659 0.45026 0.59279 0.0
O391 O 0.06966 0.4992 0.61662 0.0
H392 H 0.06352 0.35935 0.45955 0.0
H393 H 0.02101 0.32251 0.41447 0.0
H394 H 0.96692 0.36392 0.45251 0.0
H395 H 0.00988 0.4012 0.49651 0.0
H396 H 0.16274 0.56469 0.59176 0.0
H397 H 0.21092 0.59502 0.63032 0.0
H398 H 0.19083 0.66928 0.64358 0.0
H399 H 0.14191 0.63806 0.60542 0.0
Pr400 Pr 0.60409 0.10162 0.86983 0.0
Pr401 Pr 0.55736 0.11184 0.88465 0.0
C402 C 0.64841 0.0901 0.84217 0.0
C403 C 0.65174 0.06461 0.8254 0.0
C404 C 0.67091 0.07003 0.79004 0.0
C405 C 0.67142 0.04543 0.76999 0.0
C406 C 0.65274 0.01516 0.78516 0.0
C407 C 0.63528 0.01002 0.82232 0.0
C408 C 0.63466 0.03463 0.84235 0.0
C409 C 0.62981 0.16063 0.90902 0.0
C410 C 0.56826 0.1134 0.77925 0.0
C411 C 0.524 0.1363 0.91532 0.0
C412 C 0.53556 0.16409 0.94188 0.0
C413 C 0.51566 0.17058 0.96515 0.0
C414 C 0.52771 0.19471 0.99503 0.0
C415 C 0.5598 0.21224 1.00244 0.0
C416 C 0.57953 0.20688 0.97644 0.0
C417 C 0.56751 0.18313 0.94657 0.0
C418 C 0.53722 0.05223 0.8519 0.0
C419 C 0.57026 0.07187 0.96555 0.0
O420 O 0.64047 0.08845 0.88213 0.0
O421 O 0.63448 0.10025 0.81732 0.0
O422 O 0.60981 0.15119 0.8791 0.0
O423 O 0.63388 0.13833 0.92119 0.0
O424 O 0.55446 0.12088 0.80915 0.0
O425 O 0.58725 0.10366 0.79416 0.0
O426 O 0.53513 0.14135 0.8767 0.0
O427 O 0.5244 0.11298 0.93345 0.0
O428 O 0.55516 0.06514 0.88217 0.0
O429 O 0.52712 0.06983 0.83727 0.0
O430 O 0.58691 0.06906 0.93441 0.0
O431 O 0.55841 0.09003 0.95605 0.0
H432 H 0.68433 0.09307 0.77669 0.0
H433 H 0.68471 0.04977 0.7409 0.0
H434 H 0.62118 0.98681 0.83452 0.0
H435 H 0.61998 0.03009 0.86994 0.0
H436 H 0.49091 0.15624 0.9616 0.0
H437 H 0.51183 0.1985 1.01391 0.0
H438 H 0.60425 0.21926 0.98132 0.0
H439 H 0.58325 0.1785 0.92875 0.0
Pr440 Pr 0.5021 0.60285 0.19904 0.0
Pr441 Pr 0.44468 0.57354 0.22523 0.0
C442 C 0.56299 0.62857 0.18283 0.0
C443 C 0.58339 0.62302 0.15572 0.0
C444 C 0.61518 0.64389 0.15632 0.0
C445 C 0.63478 0.6394 0.1294 0.0
C446 C 0.62272 0.61398 1.10153 0.0
C447 C 0.59088 0.59253 1.1022 0.0
C448 C 0.57133 0.59705 0.12909 0.0
C449 C 0.48379 0.64654 0.22318 0.0
C450 C 0.4538 0.57546 1.11373 0.0
C451 C 0.38886 0.56744 0.24 0.0
C452 C 0.37818 0.58436 0.26664 0.0
C453 C 0.34858 0.56924 0.28452 0.0
C454 C 0.34043 0.58426 0.31513 0.0
C455 C 0.36199 0.61445 0.3285 0.0
C456 C 0.39056 0.63035 0.30733 0.0
C457 C 0.39858 0.61536 0.27692 0.0
C458 C 0.45194 0.5262 0.19461 0.0
C459 C 0.49325 0.5733 0.30127 0.0
O460 O 0.54876 0.60822 0.21294 0.0
O461 O 0.54527 0.63695 0.16338 0.0
O462 O 0.48034 0.62372 0.24521 0.0
O463 O 0.49463 0.64565 0.18606 0.0
O464 O 0.43441 0.57087 0.1462 0.0
O465 O 0.48295 0.58599 0.12585 0.0
O466 O 0.4066 0.58316 0.20804 0.0
O467 O 0.39884 0.55128 0.26044 0.0
O468 O 0.4662 0.55339 0.17986 0.0
O469 O 0.43659 0.52394 0.22921 0.0
O470 O 0.51202 0.58557 0.26789 0.0
O471 O 0.46439 0.56739 0.29492 0.0
H472 H 0.62474 0.66396 0.17698 0.0
H473 H 0.65914 0.65645 0.12916 0.0
H474 H 0.58104 0.57258 1.08131 0.0
H475 H 0.54679 0.58059 0.12865 0.0
H476 H 0.33241 0.54537 0.27654 0.0
H477 H 0.31815 0.57149 0.33057 0.0
H478 H 0.40802 0.65338 0.31704 0.0
H479 H 0.42147 0.62744 0.26334 0.0
C480 C 0.51995 0.20648 0.33604 0.0
C481 C 0.50619 0.1799 0.31008 0.0
C482 C 0.52276 0.23499 0.32284 0.0
C483 C 0.51069 0.23747 0.2828 0.0
C484 C 0.49812 0.2111 0.25545 0.0
C485 C 0.49627 0.18293 0.26914 0.0
C486 C 0.53717 0.26208 0.35311 0.0
C487 C 0.48474 0.21199 0.21265 0.0
C488 C 0.47846 0.29335 0.28 0.0
C489 C 0.50048 0.31922 0.25653 0.0
C490 C 0.48136 0.26699 0.28768 0.0
C491 C 0.50744 0.2658 0.27264 0.0
C492 C 0.53024 0.29205 0.24961 0.0
C493 C 0.52639 0.31812 0.24142 0.0
C494 C 0.45607 0.24008 0.31199 0.0
C495 C 0.55882 0.29261 0.23362 0.0
H496 H 0.52752 0.20464 0.36785 0.0
H497 H 0.48507 0.16267 0.24887 0.0
H498 H 0.55353 0.28352 0.33578 0.0
H499 H 0.51895 0.26583 0.36696 0.0
H500 H 0.54964 0.25832 0.37974 0.0
H501 H 0.47759 0.19064 0.19381 0.0
H502 H 0.46432 0.21477 0.21744 0.0
H503 H 0.50181 0.23218 0.19383 0.0
H504 H 0.45821 0.29333 0.29211 0.0
H505 H 0.5437 0.33761 0.22332 0.0
H506 H 0.46538 0.23647 0.34228 0.0
H507 H 0.44718 0.21857 0.29295 0.0
H508 H 0.43648 0.24369 0.31976 0.0
H509 H 0.57066 0.28823 0.26045 0.0
H510 H 0.57525 0.31502 0.21835 0.0
H511 H 0.55234 0.27385 0.20998 0.0
C512 C 0.30442 0.50021 0.6029 0.0
C513 C 0.31673 0.51082 0.64387 0.0
C514 C 0.27826 0.50154 0.5879 0.0
C515 C 0.26397 0.51409 0.61409 0.0
C516 C 0.27788 0.5269 0.65412 0.0
C517 C 0.30353 0.52473 0.66856 0.0
C518 C 0.2646 0.48748 0.54513 0.0
C519 C 0.26445 0.54119 0.68319 0.0
C520 C 0.19905 0.52764 0.5695 0.0
C521 C 0.17215 0.50124 0.58413 0.0
C522 C 0.22899 0.53235 0.57883 0.0
C523 C 0.23244 0.50995 0.6028 0.0
C524 C 0.20528 0.4834 0.61752 0.0
C525 C 0.17594 0.47959 0.60845 0.0
C526 C 0.25699 0.56143 0.56326 0.0
C527 C 0.20712 0.45866 0.643 0.0
H528 H 0.31383 0.48887 0.58371 0.0
H529 H 0.31252 0.53279 0.70041 0.0
H530 H 0.24242 0.46569 0.55011 0.0
H531 H 0.25956 0.50328 0.52629 0.0
H532 H 0.28015 0.48222 0.52625 0.0
H533 H 0.28046 0.55456 0.70957 0.0
H534 H 0.25879 0.55675 0.6649 0.0
H535 H 0.24269 0.52269 0.69744 0.0
H536 H 0.19675 0.54467 0.55082 0.0
H537 H 0.15567 0.45904 0.62017 0.0
H538 H 0.27148 0.55549 0.54316 0.0
H539 H 0.27126 0.57484 0.59096 0.0
H540 H 0.25074 0.57637 0.54443 0.0
H541 H 0.22015 0.4499 0.6248 0.0
H542 H 0.184 0.43882 0.65085 0.0
H543 H 0.21976 0.46855 0.67331 0.0
C544 C 0.76988 0.33267 0.98158 0.0
C545 C 0.79504 0.34022 0.95436 0.0
C546 C 0.74022 0.30642 0.97375 0.0
C547 C 0.73531 0.28673 0.93809 0.0
C548 C 0.76022 0.29551 0.9093 0.0
C549 C 0.78932 0.32187 0.9176 0.0
C550 C 0.71448 0.29894 1.00487 0.0
C551 C 0.75678 0.2759 0.87079 0.0
C552 C 0.67874 0.19909 0.94656 0.0
C553 C 0.65444 0.1938 0.91864 0.0
C554 C 0.70427 0.22891 0.95382 0.0
C555 C 0.706 0.25517 0.93357 0.0
C556 C 0.68084 0.25036 0.90689 0.0
C557 C 0.65564 0.21989 0.89941 0.0
C558 C 0.73015 0.23207 0.98209 0.0
C559 C 0.68081 0.27738 0.88548 0.0
H560 H 0.77364 0.34641 1.01007 0.0
H561 H 0.80824 0.32734 0.89593 0.0
H562 H 0.69267 0.29229 0.98757 0.0
H563 H 0.7105 0.27896 1.02499 0.0
H564 H 0.7199 0.31876 1.02622 0.0
H565 H 0.7775 0.2867 0.84993 0.0
H566 H 0.75276 0.25297 0.88147 0.0
H567 H 0.73651 0.27189 0.85153 0.0
H568 H 0.67837 0.17951 0.96211 0.0
H569 H 0.63718 0.21653 0.87803 0.0
H570 H 0.73443 0.24864 1.0083 0.0
H571 H 0.75173 0.24142 0.96316 0.0
H572 H 0.72517 0.20967 0.99641 0.0
H573 H 0.65779 0.27097 0.87223 0.0
H574 H 0.69775 0.286 0.85893 0.0
H575 H 0.68786 0.29665 0.90847 0.0
C576 C 0.47353 0.69078 0.20964 0.0
C577 C 0.48037 0.67347 0.2387 0.0
C578 C 0.4714 0.71688 0.22261 0.0
C579 C 0.47756 0.72738 0.26566 0.0
C580 C 0.48403 0.70967 0.29534 0.0
C581 C 0.48479 0.68285 0.28179 0.0
C582 C 0.46306 0.73361 0.18973 0.0
C583 C 0.4915 0.71982 0.34127 0.0
C584 C 0.51059 0.81517 0.28125 0.0
C585 C 0.48604 0.8175 0.2993 0.0
C586 C 0.50825 0.7864 0.27153 0.0
C587 C 0.4802 0.75829 0.27833 0.0
C588 C 0.45506 0.76028 0.29619 0.0
C589 C 0.45842 0.78957 0.30715 0.0
C590 C 0.5362 0.78621 0.254 0.0
C591 C 0.42425 0.73145 0.30271 0.0
H592 H 0.46966 0.68378 0.17639 0.0
H593 H 0.49005 0.66988 0.30475 0.0
H594 H 0.44561 0.73883 0.20282 0.0
H595 H 0.4838 0.75596 0.18148 0.0
H596 H 0.45383 0.71995 0.15993 0.0
H597 H 0.49488 0.70321 0.36092 0.0
H598 H 0.51288 0.74275 0.34264 0.0
H599 H 0.47278 0.72252 0.35562 0.0
H600 H 0.53229 0.83615 0.2752 0.0
H601 H 0.43922 0.79053 0.32123 0.0
H602 H 0.53151 0.77697 0.22096 0.0
H603 H 0.54134 0.77079 0.27361 0.0
H604 H 0.55699 0.80965 0.25343 0.0
H605 H 0.41416 0.72126 0.27115 0.0
H606 H 0.40774 0.73615 0.32013 0.0
H607 H 0.42712 0.71391 0.32069 0.0
C608 C 0.69074 0.51533 0.62541 0.0
C609 C 0.66224 0.49006 0.63836 0.0
C610 C 0.71616 0.512 0.61351 0.0
C611 C 0.71356 0.48239 0.61316 0.0
C612 C 0.68484 0.4566 0.62624 0.0
C613 C 0.6598 0.46074 0.63913 0.0
C614 C 0.74595 0.54047 0.60087 0.0
C615 C 0.68026 0.42444 0.62536 0.0
C616 C 0.77227 0.47835 0.53719 0.0
C617 C 0.79577 0.48121 0.56486 0.0
C618 C 0.74487 0.47675 0.55253 0.0
C619 C 0.74052 0.47886 0.59706 0.0
C620 C 0.7638 0.48087 0.62535 0.0
C621 C 0.79074 0.48162 0.60909 0.0
C622 C 0.72126 0.47434 0.5204 0.0
C623 C 0.7609 0.48356 0.67291 0.0
H624 H 0.69339 0.53822 0.62476 0.0
H625 H 0.63807 0.4409 0.64862 0.0
H626 H 0.76543 0.54182 0.6196 0.0
H627 H 0.75079 0.53908 0.56661 0.0
H628 H 0.74527 0.5621 0.60595 0.0
H629 H 0.65691 0.40672 0.63643 0.0
H630 H 0.68371 0.41877 0.59233 0.0
H631 H 0.69775 0.42329 0.64578 0.0
H632 H 0.77556 0.47799 0.50299 0.0
H633 H 0.80853 0.48396 0.63106 0.0
H634 H 0.69747 0.4604 0.53301 0.0
H635 H 0.72295 0.46388 0.48996 0.0
H636 H 0.72534 0.49784 0.51318 0.0
H637 H 0.75791 0.50365 0.67993 0.0
H638 H 0.78138 0.4864 0.69065 0.0
H639 H 0.74014 0.4626 0.68503 0.0
C640 C 0.30087 0.79503 0.93949 0.0
C641 C 0.29952 0.81186 0.90419 0.0
C642 C 0.27429 0.76772 0.95453 0.0
C643 C 0.24489 0.75725 0.93523 0.0
C644 C 0.24337 0.77482 0.90043 0.0
C645 C 0.27047 0.80116 0.88496 0.0
C646 C 0.27796 0.74964 0.99049 0.0
C647 C 0.21283 0.76618 0.87987 0.0
C648 C 0.1756 0.67341 0.94721 0.0
C649 C 0.15947 0.67564 0.98256 0.0
C650 C 0.20363 0.6992 0.93242 0.0
C651 C 0.21565 0.72876 0.95199 0.0
C652 C 0.1989 0.73123 0.98695 0.0
C653 C 0.17172 0.70483 1.00214 0.0
C654 C 0.22074 0.6946 0.89622 0.0
C655 C 0.2094 0.76206 1.00803 0.0
H656 H 0.32289 0.80294 0.95505 0.0
H657 H 0.26872 0.81389 0.85804 0.0
H658 H 0.26047 0.74424 1.01574 0.0
H659 H 0.2742 0.72727 0.97788 0.0
H660 H 0.30124 0.76227 1.00526 0.0
H661 H 0.21504 0.78297 0.85482 0.0
H662 H 0.20269 0.74295 0.86514 0.0
H663 H 0.19637 0.76499 0.90453 0.0
H664 H 0.16656 0.65126 0.93144 0.0
H665 H 0.15962 0.70727 1.02918 0.0
H666 H 0.24378 0.69959 0.90761 0.0
H667 H 0.22462 0.71094 0.86974 0.0
H668 H 0.20815 0.67068 0.88342 0.0
H669 H 0.23249 0.77079 1.02258 0.0
H670 H 0.19322 0.76068 1.03331 0.0
H671 H 0.21157 0.77926 0.98371 0.0
C672 C 0.55669 0.21946 1.08078 0.0
C673 C 0.57254 0.23092 1.04207 0.0
C674 C 0.57248 0.228 0.11979 0.0
C675 C 0.60487 0.24801 0.11975 0.0
C676 C 0.61963 0.26425 1.08205 0.0
C677 C 0.60319 0.25557 1.04335 0.0
C678 C 0.55525 0.21188 0.16011 0.0
C679 C 0.6535 0.28797 1.08173 0.0
C680 C 0.6311 0.24416 0.23079 0.0
C681 C 0.63108 0.21609 0.22756 0.0
C682 C 0.62687 0.25814 0.19433 0.0
C683 C 0.62288 0.24374 0.15414 0.0
C684 C 0.62845 0.21871 0.15002 0.0
C685 C 0.63243 0.20517 0.18684 0.0
C686 C 0.62441 0.28683 0.19919 0.0
C687 C 0.62571 0.20322 1.10747 0.0
H688 H 0.53284 0.20104 1.0807 0.0
H689 H 0.61524 0.26592 1.01376 0.0
H690 H 0.56124 0.1941 0.16957 0.0
H691 H 0.56189 0.22862 0.18678 0.0
H692 H 0.52987 0.20028 0.15572 0.0
H693 H 0.65978 0.30335 1.05331 0.0
H694 H 0.65998 0.30225 1.11114 0.0
H695 H 0.66719 0.27611 1.08094 0.0
H696 H 0.63169 0.25369 0.2621 0.0
H697 H 0.63286 0.18383 0.18356 0.0
H698 H 0.60421 0.28465 0.18153 0.0
H699 H 0.64526 0.30677 0.18523 0.0
H700 H 0.62269 0.29206 0.23324 0.0
H701 H 0.60117 0.19051 1.09732 0.0
H702 H 0.63416 0.18651 1.10907 0.0
H703 H 0.639 0.22063 1.08249 0.0
C704 C 0.35059 0.60625 0.40591 0.0
C705 C 0.35891 0.62621 0.37066 0.0
C706 C 0.36197 0.61784 0.44664 0.0
C707 C 0.38185 0.65011 0.45182 0.0
C708 C 0.38427 0.67042 0.41856 0.0
C709 C 0.37274 0.65816 0.37793 0.0
C710 C 0.35692 0.59514 0.48206 0.0
C711 C 0.40242 0.70502 0.42402 0.0
C712 C 0.4167 0.65718 0.5599 0.0
C713 C 0.44042 0.65127 0.54879 0.0
C714 C 0.39989 0.66225 0.52811 0.0
C715 C 0.40647 0.66031 0.48467 0.0
C716 C 0.43348 0.65936 0.47388 0.0
C717 C 0.45038 0.65527 0.50629 0.0
C718 C 0.37321 0.6663 0.54128 0.0
C719 C 0.44221 0.6582 0.42795 0.0
H720 H 0.33905 0.58147 0.40102 0.0
H721 H 0.37768 0.67368 0.35108 0.0
H722 H 0.37876 0.59527 0.48871 0.0
H723 H 0.34981 0.60179 0.51183 0.0
H724 H 0.33893 0.57115 0.47376 0.0
H725 H 0.39146 0.71606 0.40575 0.0
H726 H 0.40426 0.71177 0.45815 0.0
H727 H 0.42599 0.71414 0.41098 0.0
H728 H 0.40925 0.65494 0.59287 0.0
H729 H 0.46955 0.65202 0.49789 0.0
H730 H 0.35371 0.64376 0.55197 0.0
H731 H 0.3652 0.67541 0.51485 0.0
H732 H 0.37997 0.68234 0.56888 0.0
H733 H 0.42479 0.63606 0.41318 0.0
H734 H 0.46516 0.66001 0.42523 0.0
H735 H 0.44268 0.67726 0.40922 0.0
C736 C 0.77252 0.44327 0.82434 0.0
C737 C 0.75955 0.43348 0.86503 0.0
C738 C 0.76103 0.4233 0.78938 0.0
C739 C 0.73543 0.3931 0.79532 0.0
C740 C 0.71844 0.38584 0.83382 0.0
C741 C 0.73083 0.40618 0.8686 0.0
C742 C 0.77965 0.43295 0.74845 0.0
C743 C 0.68925 0.35534 0.84038 0.0
C744 C 0.73698 0.35872 0.69211 0.0
C745 C 0.76086 0.35269 0.7018 0.0
C746 C 0.72256 0.36597 0.72485 0.0
C747 C 0.7333 0.36823 0.76718 0.0
C748 C 0.75217 0.35544 0.77757 0.0
C749 C 0.76579 0.34773 0.74443 0.0
C750 C 0.69934 0.37563 0.71363 0.0
C751 C 0.76214 0.35475 0.82298 0.0
H752 H 0.79428 0.46462 0.82074 0.0
H753 H 0.71976 0.3991 0.89958 0.0
H754 H 0.79156 0.41945 0.74447 0.0
H755 H 0.7645 0.42842 0.72038 0.0
H756 H 0.79742 0.4579 0.74829 0.0
H757 H 0.67124 0.35939 0.8544 0.0
H758 H 0.68028 0.34207 0.81027 0.0
H759 H 0.69357 0.34124 0.86378 0.0
H760 H 0.73218 0.36153 0.65911 0.0
H761 H 0.7832 0.3416 0.75185 0.0
H762 H 0.711 0.40117 0.71108 0.0
H763 H 0.68156 0.36828 0.73903 0.0
H764 H 0.68793 0.36565 0.68257 0.0
H765 H 0.77793 0.3787 0.83416 0.0
H766 H 0.77431 0.34139 0.82586 0.0
H767 H 0.74186 0.34423 0.84452 0.0
C768 C 0.34141 0.70479 1.03993 0.0
C769 C 0.37116 0.7297 1.03181 0.0
C770 C 0.33011 0.69756 1.08195 0.0
C771 C 0.34882 0.71615 0.11591 0.0
C772 C 0.38054 0.7371 1.10842 0.0
C773 C 0.39133 0.74361 1.06635 0.0
C774 C 0.29714 0.6726 1.08912 0.0
C775 C 0.40204 0.75643 0.14393 0.0
C776 C 0.32663 0.76131 0.18656 0.0
C777 C 0.33527 0.75516 0.22643 0.0
C778 C 0.32624 0.74499 0.15014 0.0
C779 C 0.33458 0.72183 0.15384 0.0
C780 C 0.33754 0.71168 0.1949 0.0
C781 C 0.33805 0.72866 0.23094 0.0
C782 C 0.32144 0.75586 1.1071 0.0
C783 C 0.34357 0.68523 0.20082 0.0
H784 H 0.32605 0.6928 1.01345 0.0
H785 H 0.41457 0.76243 1.06076 0.0
H786 H 0.29293 0.66451 0.12283 0.0
H787 H 0.28151 0.68157 1.0809 0.0
H788 H 0.29112 0.65261 1.06782 0.0
H789 H 0.42653 0.76897 0.13354 0.0
H790 H 0.3958 0.77372 0.15478 0.0
H791 H 0.39995 0.74171 0.17169 0.0
H792 H 0.32388 0.78132 0.18249 0.0
H793 H 0.34333 0.72277 0.262 0.0
H794 H 0.3044 0.73598 1.08793 0.0
H795 H 0.34349 0.76726 1.08908 0.0
H796 H 0.3131 0.77259 1.11013 0.0
H797 H 0.33733 0.67035 0.17201 0.0
H798 H 0.33026 0.67083 0.22858 0.0
H799 H 0.36834 0.69444 0.20807 0.0
C800 C 0.64611 0.39366 0.35648 0.0
C801 C 0.64207 0.41945 0.35876 0.0
C802 C 0.64323 0.37619 0.39326 0.0
C803 C 0.63503 0.38423 0.43247 0.0
C804 C 0.63555 0.41286 0.43577 0.0
C805 C 0.63958 0.43028 0.39889 0.0
C806 C 0.64642 0.3479 0.38879 0.0
C807 C 0.62747 0.42328 0.47673 0.0
C808 C 0.56713 0.33503 0.49759 0.0
C809 C 0.58031 0.34807 0.53721 0.0
C810 C 0.58578 0.34183 0.46136 0.0
C811 C 0.61816 0.36052 0.466 0.0
C812 C 0.63119 0.36496 0.5072 0.0
C813 C 0.61216 0.35982 0.54284 0.0
C814 C 0.57061 0.33362 0.41794 0.0
C815 C 0.66552 0.3796 0.51304 0.0
H816 H 0.64911 0.38574 0.32557 0.0
H817 H 0.63676 0.45037 0.40099 0.0
H818 H 0.64519 0.3366 0.41989 0.0
H819 H 0.62817 0.331 0.36719 0.0
H820 H 0.66887 0.35451 0.37346 0.0
H821 H 0.62969 0.44646 0.47363 0.0
H822 H 0.60332 0.40658 0.48593 0.0
H823 H 0.64275 0.42446 0.50315 0.0
H824 H 0.5423 0.32344 0.49375 0.0
H825 H 0.62284 0.3684 0.57369 0.0
H826 H 0.58123 0.32321 0.39796 0.0
H827 H 0.57403 0.35485 0.40152 0.0
H828 H 0.54544 0.31702 0.42008 0.0
H829 H 0.67578 0.37286 0.48669 0.0
H830 H 0.67105 0.37273 0.54415 0.0
H831 H 0.67635 0.40511 0.51255 0.0
C832 C 0.27028 0.63698 0.86288 0.0
C833 C 0.24498 0.60687 0.86712 0.0
C834 C 0.28024 0.65035 0.82224 0.0
C835 C 0.26398 0.63334 0.78572 0.0
C836 C 0.2427 0.60123 0.78975 0.0
C837 C 0.23352 0.58839 0.83053 0.0
C838 C 0.30568 0.68359 0.81914 0.0
C839 C 0.22585 0.58138 0.75155 0.0
C840 C 0.22219 0.65748 0.71209 0.0
C841 C 0.22925 0.64864 0.67321 0.0
C842 C 0.23757 0.65788 0.74961 0.0
C843 C 0.26068 0.64944 0.74782 0.0
C844 C 0.27215 0.64705 0.70762 0.0
C845 C 0.25594 0.64621 0.6705 0.0
C846 C 0.22561 0.66253 0.79164 0.0
C847 C 0.29911 0.64173 0.7038 0.0
H848 H 0.28046 0.65103 0.89111 0.0
H849 H 0.21449 0.56488 0.83319 0.0
H850 H 0.31443 0.69024 0.78598 0.0
H851 H 0.29717 0.69896 0.83057 0.0
H852 H 0.3251 0.68749 0.84036 0.0
H853 H 0.21169 0.5565 0.76006 0.0
H854 H 0.21036 0.58901 0.73763 0.0
H855 H 0.24248 0.5837 0.72654 0.0
H856 H 0.20207 0.66013 0.71445 0.0
H857 H 0.26246 0.64079 0.64009 0.0
H858 H 0.24496 0.6797 0.81142 0.0
H859 H 0.21392 0.64042 0.80972 0.0
H860 H 0.20892 0.67078 0.78716 0.0
H861 H 0.31466 0.65637 0.67776 0.0
H862 H 0.29075 0.61731 0.6949 0.0
H863 H 0.31251 0.64702 0.73398 0.0
C864 C 0.43164 0.96772 1.01429 0.0
C865 C 0.4096 0.93568 1.00968 0.0
C866 C 0.43842 0.98468 1.05449 0.0
C867 C 0.42219 0.97083 1.0938 0.0
C868 C 0.39855 0.93877 1.08852 0.0
C869 C 0.39351 0.92201 1.0484 0.0
C870 C 0.46347 0.01815 1.05406 0.0
C871 C 0.37641 0.92149 0.12434 0.0
C872 C 0.45228 0.0021 0.21382 0.0
C873 C 0.44683 0.02708 0.22126 0.0
C874 C 0.44366 0.9836 0.1749 0.0
C875 C 0.4296 -0.01033 0.13865 0.0
C876 C 0.4231 0.01436 0.14661 0.0
C877 C 0.43144 0.03203 0.1864 0.0
C878 C 0.45031 0.95739 0.17295 0.0
C879 C 0.40646 0.02249 1.11352 0.0
H880 H 0.44444 0.97991 0.98598 0.0
H881 H 0.37554 0.89793 1.04718 0.0
H882 H 0.4529 0.03281 1.04931 0.0
H883 H 0.47648 0.0249 1.08457 0.0
H884 H 0.4799 0.02315 1.02738 0.0
H885 H 0.35238 0.91196 1.11271 0.0
H886 H 0.37887 0.90143 0.13392 0.0
H887 H 0.37966 0.93603 0.15275 0.0
H888 H 0.46348 -0.00336 0.23924 0.0
H889 H 0.42619 0.05048 0.18964 0.0
H890 H 0.46828 0.96256 0.1487 0.0
H891 H 0.42962 0.93564 0.16335 0.0
H892 H 0.45808 0.95318 0.20421 0.0
H893 H 0.42298 0.04503 1.09873 0.0
H894 H 0.3882 0.02548 0.12901 0.0
H895 H 0.3957 0.00482 1.08807 0.0
C896 C 0.47285 0.43151 0.37584 0.0
C897 C 0.45293 0.41097 0.34379 0.0
C898 C 0.4623 0.43803 0.41579 0.0
C899 C 0.43021 0.42452 0.42694 0.0
C900 C 0.40991 0.40329 0.39489 0.0
C901 C 0.42112 0.39718 0.35509 0.0
C902 C 0.48681 0.4608 0.44517 0.0
C903 C 0.37559 0.38637 0.40213 0.0
C904 C 0.41332 0.43113 0.55207 0.0
C905 C 0.40053 0.45093 0.55399 0.0
C906 C 0.42204 0.42214 0.51245 0.0
C907 C 0.41846 0.43254 0.47084 0.0
C908 C 0.40409 0.45135 0.47266 0.0
C909 C 0.39636 0.46058 0.51283 0.0
C910 C 0.43525 0.40097 0.51572 0.0
C911 C 0.39585 0.46188 0.43205 0.0
H912 H 0.49744 0.44303 0.36982 0.0
H913 H 0.40438 0.38119 0.33243 0.0
H914 H 0.49898 0.48318 0.4282 0.0
H915 H 0.47808 0.46449 0.47574 0.0
H916 H 0.50373 0.45322 0.45216 0.0
H917 H 0.36969 0.38306 0.43665 0.0
H918 H 0.36586 0.39994 0.38773 0.0
H919 H 0.36435 0.36338 0.38633 0.0
H920 H 0.41726 0.42288 0.58216 0.0
H921 H 0.38644 0.47547 0.51168 0.0
H922 H 0.46078 0.41497 0.51494 0.0
H923 H 0.4276 0.38451 0.48855 0.0
H924 H 0.42846 0.38763 0.54611 0.0
H925 H 0.39997 0.48577 0.43564 0.0
H926 H 0.37086 0.44663 0.42578 0.0
H927 H 0.40884 0.46115 0.40385 0.0
C928 C -0.00222 0.43739 0.66964 0.0
C929 C 0.03011 0.45851 0.66782 0.0
C930 C 0.97986 0.42832 0.70905 0.0
C931 C -0.00655 0.43977 0.75053 0.0
C932 C 0.02653 0.45955 0.74891 0.0
C933 C 0.04362 0.46906 0.70888 0.0
C934 C 0.94574 0.40587 0.70565 0.0
C935 C 0.0451 0.47066 0.78959 0.0
C936 C 0.93668 0.43883 0.84293 0.0
C937 C 0.93687 0.41971 0.87656 0.0
C938 C 0.95365 0.44451 0.8031 0.0
C939 C 0.97336 0.43199 0.79401 0.0
C940 C 0.97319 0.41205 0.82763 0.0
C941 C 0.95561 0.40642 0.86711 0.0
C942 C 0.95048 0.46533 0.77153 0.0
C943 C -0.00845 0.39595 0.82245 0.0
H944 H -0.01406 0.42811 0.63961 0.0
H945 H 0.06834 0.48459 0.71009 0.0
H946 H 0.93695 0.39063 0.7342 0.0
H947 H 0.93329 0.41893 0.70308 0.0
H948 H 0.94021 0.3912 0.67669 0.0
H949 H 0.06435 0.49483 0.78587 0.0
H950 H 0.03108 0.46944 0.81769 0.0
H951 H 0.05558 0.45608 0.79617 0.0
H952 H 0.92283 0.44969 0.84745 0.0
H953 H 0.95686 0.39138 0.89105 0.0
H954 H 0.9632 0.46885 0.74125 0.0
H955 H 0.95959 0.488 0.78706 0.0
H956 H 0.92574 0.4563 0.7642 0.0
H957 H -0.00485 0.39258 0.78834 0.0
H958 H 0.97993 0.37305 0.83863 0.0
H959 H 0.01441 0.41009 0.83781 0.0
C960 C 0.54025 0.95513 0.18393 0.0
C961 C 0.52628 0.9611 0.21948 0.0
C962 C 0.54826 0.9726 0.14401 0.0
C963 C 0.54269 -0.00208 0.13673 0.0
C964 C 0.52999 0.00493 0.17339 0.0
C965 C 0.52183 0.98679 0.21268 0.0
C966 C 0.56322 0.96341 1.10983 0.0
C967 C 0.52447 0.03185 0.17107 0.0
C968 C 0.58273 0.0644 1.04605 0.0
C969 C 0.5633 0.05314 1.00944 0.0
C970 C 0.57694 0.04724 1.08593 0.0
C971 C 0.55027 0.01701 1.09231 0.0
C972 C 0.53095 0.00535 1.05493 0.0
C973 C 0.53748 0.02299 1.01537 0.0
C974 C 0.6006 0.0622 0.12086 0.0
C975 C 0.50269 0.97372 1.05645 0.0
H976 H 0.54467 0.93609 0.18684 0.0
H977 H 0.51179 -0.00698 0.23869 0.0
H978 H 0.54542 0.94175 1.09447 0.0
H979 H 0.57473 0.9814 1.08484 0.0
H980 H 0.58054 0.95843 0.12429 0.0
H981 H 0.51642 0.03612 0.20196 0.0
H982 H 0.54596 0.0532 0.16201 0.0
H983 H 0.50714 0.02749 0.14592 0.0
H984 H 0.60316 0.08707 1.04365 0.0
H985 H 0.52191 0.01282 0.98853 0.0
H986 H 0.59776 0.04606 0.14716 0.0
H987 H 0.59903 0.0819 0.13425 0.0
H988 H 0.62416 0.07185 1.10738 0.0
H989 H 0.49041 0.96688 1.0253 0.0
H990 H 0.48673 0.97343 1.08103 0.0
H991 H 0.50899 0.95621 1.06574 0.0
C992 C 0.54894 0.54754 0.55163 0.0
C993 C 0.56052 0.52672 0.55317 0.0
C994 C 0.53936 0.55623 0.51248 0.0
C995 C 0.541 0.5446 0.47092 0.0
C996 C 0.55462 0.52506 0.47225 0.0
C997 C 0.56292 0.51594 0.51209 0.0
C998 C 0.52773 0.5787 0.51639 0.0
C999 C 0.5621 0.51412 0.4315 0.0
C1000 C 0.48568 0.5488 0.37959 0.0
C1001 C 0.50524 0.56639 0.34521 0.0
C1002 C 0.49659 0.54196 0.41908 0.0
C1003 C 0.52874 0.55271 0.42753 0.0
C1004 C 0.54868 0.57141 0.39327 0.0
C1005 C 0.53702 0.57726 0.35374 0.0
C1006 C 0.47223 0.52156 0.45066 0.0
C1007 C 0.58316 0.58624 0.39763 0.0
H1008 H 0.54674 0.55695 0.58171 0.0
H1009 H 0.57236 0.50063 0.51068 0.0
H1010 H 0.53219 0.59278 0.48697 0.0
H1011 H 0.5025 0.56568 0.52224 0.0
H1012 H 0.53867 0.59453 0.54389 0.0
H1013 H 0.55767 0.49013 0.43517 0.0
H1014 H 0.54911 0.51512 0.40343 0.0
H1015 H 0.5871 0.52897 0.42484 0.0
H1016 H 0.46112 0.53958 0.37557 0.0
H1017 H 0.55348 0.59111 0.32923 0.0
H1018 H 0.4813 0.51745 0.48071 0.0
H1019 H 0.4577 0.49894 0.4352 0.0
H1020 H 0.45724 0.53137 0.45827 0.0
H1021 H 0.59069 0.58779 0.43135 0.0
H1022 H 0.59476 0.6099 0.38373 0.0
H1023 H 0.59107 0.57257 0.3792 0.0
C1024 C 0.01051 0.57772 0.86958 0.0
C1025 C 0.03235 0.56797 0.87812 0.0
C1026 C -0.00656 0.5721 0.82961 0.0
C1027 C -0.0039 0.55477 0.79463 0.0
C1028 C 0.0186 0.54536 0.80303 0.0
C1029 C 0.03579 0.55187 0.84305 0.0
C1030 C 0.97283 0.58585 0.82555 0.0
C1031 C 0.02435 0.52662 0.77084 0.0
C1032 C 0.92602 0.51688 0.70835 0.0
C1033 C 0.93955 0.5277 0.66737 0.0
C1034 C 0.94295 0.52641 0.7486 0.0
C1035 C 0.97607 0.54659 0.75068 0.0
C1036 C -0.01041 0.55851 0.70918 0.0
C1037 C 0.97179 0.54922 0.66956 0.0
C1038 C 0.92406 0.51467 0.78896 0.0
C1039 C 0.02345 0.58198 0.70567 0.0
H1040 H 0.00676 0.59049 0.89449 0.0
H1041 H 0.05191 0.54358 0.84687 0.0
H1042 H 0.96669 0.58738 0.7919 0.0
H1043 H 0.95138 0.5715 0.84404 0.0
H1044 H -0.0158 0.6094 0.83963 0.0
H1045 H 0.01665 0.50378 0.78535 0.0
H1046 H 0.01179 0.52281 0.74035 0.0
H1047 H 0.04943 0.53749 0.76428 0.0
H1048 H 0.90137 0.50098 0.70933 0.0
H1049 H -0.01631 0.55881 0.63965 0.0
H1050 H 0.91329 0.52895 0.79555 0.0
H1051 H 0.93787 0.51566 0.81725 0.0
H1052 H 0.90496 0.4905 0.78482 0.0
H1053 H 0.03299 0.5949 0.73588 0.0
H1054 H 0.02759 0.59882 0.67968 0.0
H1055 H 0.0363 0.57 0.69728 0.0
C1056 C 0.4601 0.02717 0.46813 0.0
C1057 C 0.45572 0.01384 0.42686 0.0
C1058 C 0.46961 0.01529 0.50189 0.0
C1059 C 0.47551 -0.00848 0.49244 0.0
C1060 C 0.45572 0.97079 0.4609 0.0
C1061 C 0.44981 0.98342 0.42435 0.0
C1062 C 0.47837 0.0307 0.54463 0.0
C1063 C 0.43977 0.93665 0.46824 0.0
C1064 C 0.52454 0.00407 0.41337 0.0
C1065 C 0.51813 0.97356 0.41759 0.0
C1066 C 0.52336 0.01953 0.45011 0.0
C1067 C 0.50901 0.00145 0.48707 0.0
C1068 C 0.51581 0.97797 0.49482 0.0
C1069 C 0.51925 0.96297 0.4591 0.0
C1070 C 0.534 0.05337 0.44813 0.0
C1071 C 0.51193 0.96471 0.53891 0.0
H1072 H 0.45938 0.0481 0.47318 0.0
H1073 H 0.44083 0.97007 0.39532 0.0
H1074 H 0.47961 0.01523 0.56917 0.0
H1075 H 0.50134 0.05176 0.54233 0.0
H1076 H 0.46128 0.03733 0.55468 0.0
H1077 H 0.42609 0.93092 0.49818 0.0
H1078 H 0.42421 0.92345 0.44139 0.0
H1079 H 0.45709 0.92957 0.47312 0.0
H1080 H 0.5277 0.01462 0.38208 0.0
H1081 H 0.51911 0.94164 0.46391 0.0
H1082 H 0.53028 0.06202 0.47876 0.0
H1083 H 0.52219 0.05801 0.42175 0.0
H1084 H 0.55901 0.06633 0.44059 0.0
H1085 H 0.51891 0.98312 0.56336 0.0
H1086 H 0.52586 0.95325 0.54289 0.0
H1087 H 0.48725 0.94757 0.54421 0.0
C1088 C 0.42172 0.46204 0.80163 0.0
C1089 C 0.4291 0.45734 0.75956 0.0
C1090 C 0.44405 0.47105 0.83395 0.0
C1091 C 0.47293 0.4757 0.8224 0.0
C1092 C 0.47198 0.45557 0.78993 0.0
C1093 C 0.45258 0.45034 0.75478 0.0
C1094 C 0.43934 0.48102 0.87702 0.0
C1095 C 0.48925 0.43867 0.79477 0.0
C1096 C 0.51004 0.52387 0.74248 0.0
C1097 C 0.5336 0.51679 0.74632 0.0
C1098 C 0.49414 0.52357 0.77961 0.0
C1099 C 0.49755 0.50889 0.81653 0.0
C1100 C 0.52751 0.51452 0.82362 0.0
C1101 C 0.54559 0.518 0.78753 0.0
C1102 C 0.47208 0.53557 0.77814 0.0
C1103 C 0.53678 0.50907 0.86697 0.0
H1104 H 0.40075 0.46225 0.8083 0.0
H1105 H 0.45568 0.44122 0.725 0.0
H1106 H 0.41584 0.46457 0.88889 0.0
H1107 H 0.4567 0.48236 0.9004 0.0
H1108 H 0.44177 0.5042 0.87425 0.0
H1109 H 0.48104 0.4243 0.82408 0.0
H1110 H 0.48596 0.4235 0.767 0.0
H1111 H 0.51389 0.4554 0.79939 0.0
H1112 H 0.50261 0.52715 0.71131 0.0
H1113 H 0.5667 0.5179 0.79183 0.0
H1114 H 0.45679 0.52629 0.74995 0.0
H1115 H 0.48546 0.56105 0.77404 0.0
H1116 H 0.45837 0.53037 0.80783 0.0
H1117 H 0.52563 0.5155 0.89247 0.0
H1118 H 0.56222 0.5225 0.87093 0.0
H1119 H 0.52899 0.48414 0.87063 0.0
C1120 C 0.95111 0.44716 0.11831 0.0
C1121 C 0.9482 0.4348 1.07703 0.0
C1122 C 0.96484 0.43835 0.15046 0.0
C1123 C -0.0163 0.42636 0.13675 0.0
C1124 C 0.96759 0.40281 1.10652 0.0
C1125 C 0.95396 0.41004 1.07233 0.0
C1126 C 0.95877 0.44092 0.19681 0.0
C1127 C 0.96586 0.37202 1.10987 0.0
C1128 C 0.03295 0.47338 1.05021 0.0
C1129 C 0.03419 0.50085 1.0631 0.0
C1130 C 0.02589 0.44963 1.07984 0.0
C1131 C 0.01537 0.45161 0.12136 0.0
C1132 C 0.02645 0.48197 0.13663 0.0
C1133 C 0.03276 0.5056 1.10717 0.0
C1134 C 0.02981 0.42291 1.06653 0.0
C1135 C 0.03085 0.48915 0.18355 0.0
H1136 H 0.94161 0.46175 0.12584 0.0
H1137 H 0.94779 0.39661 1.04339 0.0
H1138 H 0.97139 0.43318 0.21804 0.0
H1139 H 0.96496 0.46502 0.20444 0.0
H1140 H 0.93367 0.42626 0.20305 0.0
H1141 H 0.96758 0.36347 1.07785 0.0
H1142 H -0.01615 0.37302 0.13168 0.0
H1143 H 0.94306 0.35508 0.12332 0.0
H1144 H 0.03841 0.47069 1.01755 0.0
H1145 H 0.03725 0.5278 0.11897 0.0
H1146 H 0.01151 0.40819 1.04336 0.0
H1147 H 0.02947 0.40903 1.09448 0.0
H1148 H 0.05218 0.43167 1.0497 0.0
H1149 H 0.05573 0.50497 0.18941 0.0
H1150 H 0.02369 0.4682 0.20337 0.0
H1151 H 0.01857 0.50142 0.19341 0.0
C1152 C 0.02622 0.47077 0.42591 0.0
C1153 C 0.01558 0.46902 0.46821 0.0
C1154 C 0.00892 0.47194 0.39149 0.0
C1155 C 0.98233 0.47282 0.40118 0.0
C1156 C 0.96638 0.45544 0.43785 0.0
C1157 C -0.01605 0.45706 0.47386 0.0
C1158 C 0.02212 0.47965 0.34729 0.0
C1159 C 0.93215 0.43463 0.43723 0.0
C1160 C -0.01509 0.52606 0.46652 0.0
C1161 C 0.95332 0.51419 0.45997 0.0
C1162 C 0.00237 0.52467 0.43227 0.0
C1163 C -0.01388 0.50446 0.39796 0.0
C1164 C 0.95954 0.50461 0.38543 0.0
C1165 C 0.94282 0.50938 0.41729 0.0
C1166 C 0.03671 0.54544 0.4305 0.0
C1167 C 0.94616 0.49352 0.34181 0.0
H1168 H 0.04842 0.47401 0.4192 0.0
H1169 H 0.97356 0.45052 0.50529 0.0
H1170 H 0.00414 0.47562 0.32323 0.0
H1171 H 0.04018 0.50438 0.34622 0.0
H1172 H 0.03273 0.46546 0.3392 0.0
H1173 H 0.92663 0.41407 0.41748 0.0
H1174 H 0.9227 0.42647 0.46978 0.0
H1175 H 0.92095 0.44631 0.42175 0.0
H1176 H -0.00466 0.53483 0.49748 0.0
H1177 H 0.92093 0.50648 0.40909 0.0
H1178 H 0.04831 0.53285 0.41942 0.0
H1179 H 0.04624 0.55673 0.46174 0.0
H1180 H 0.0421 0.56385 0.40648 0.0
H1181 H 0.92783 0.49916 0.33487 0.0
H1182 H 0.93628 0.46813 0.33994 0.0
H1183 H 0.96457 0.50421 0.31723 0.0
C1184 C 0.48934 0.91812 0.82099 0.0
C1185 C 0.47218 0.9334 0.8239 0.0
C1186 C 0.51211 0.92718 0.78915 0.0
C1187 C 0.5202 0.95455 0.76635 0.0
C1188 C 0.49443 0.95794 0.7564 0.0
C1189 C 0.47244 0.95083 0.78851 0.0
C1190 C 0.52923 0.91001 0.78265 0.0
C1191 C 0.49166 0.97149 0.71483 0.0
C1192 C 0.54442 0.00721 0.85086 0.0
C1193 C 0.54001 0.02868 0.82768 0.0
C1194 C 0.54997 0.98593 0.82966 0.0
C1195 C 0.54699 0.98373 0.78433 0.0
C1196 C 0.55371 0.01134 0.76304 0.0
C1197 C 0.54661 0.03195 0.78376 0.0
C1198 C 0.55808 0.96582 0.85625 0.0
C1199 C 0.5653 0.01719 0.71777 0.0
H1200 H 0.48502 0.89946 0.84276 0.0
H1201 H 0.45506 0.95754 0.78506 0.0
H1202 H 0.51644 0.89133 0.75899 0.0
H1203 H 0.55271 0.92542 0.76982 0.0
H1204 H 0.53066 0.89906 0.81287 0.0
H1205 H 0.46742 0.95893 0.70358 0.0
H1206 H 0.49769 -0.00413 0.71965 0.0
H1207 H 0.50664 0.97014 0.68985 0.0
H1208 H 0.54401 0.00731 0.88555 0.0
H1209 H 0.54698 0.05064 0.76605 0.0
H1210 H 0.5752 0.97992 0.88111 0.0
H1211 H 0.56783 0.95444 0.83657 0.0
H1212 H 0.53752 0.94826 0.87388 0.0
H1213 H 0.56467 -0.00344 0.70347 0.0
H1214 H 0.58954 0.03651 0.71764 0.0
H1215 H 0.55183 0.02455 0.69783 0.0
C1216 C 0.40574 0.48353 0.15898 0.0
C1217 C 0.43805 0.50181 0.16219 0.0
C1218 C 0.39233 0.46354 0.12406 0.0
C1219 C 0.41156 0.4583 1.09651 0.0
C1220 C 0.44197 0.48389 1.09177 0.0
C1221 C 0.45577 0.50361 0.12657 0.0
C1222 C 0.35812 0.44788 0.11681 0.0
C1223 C 0.45994 0.49049 1.05082 0.0
C1224 C 0.45695 0.4301 1.10626 0.0
C1225 C 0.45315 0.42988 0.15085 0.0
C1226 C 0.43214 0.42401 1.07906 0.0
C1227 C 0.40752 0.42609 1.09708 0.0
C1228 C 0.39909 0.41168 0.13778 0.0
C1229 C 0.42291 0.41734 0.16645 0.0
C1230 C 0.43327 0.41839 1.03211 0.0
C1231 C 0.36609 0.39178 0.15114 0.0
H1232 H 0.39103 0.48593 0.18217 0.0
H1233 H 0.47989 0.52143 0.12487 0.0
H1234 H 0.35047 0.43036 1.09096 0.0
H1235 H 0.34542 0.43724 0.14687 0.0
H1236 H 0.35213 0.46564 1.1073 0.0
H1237 H 0.47273 0.51569 1.04444 0.0
H1238 H 0.4777 0.4836 1.05405 0.0
H1239 H 0.44458 0.4786 1.02324 0.0
H1240 H 0.47818 0.43387 1.09294 0.0
H1241 H 0.41771 0.41089 0.19981 0.0
H1242 H 0.45666 0.43386 1.01893 0.0
H1243 H 0.41574 0.42121 1.01401 0.0
H1244 H 0.42849 0.39437 1.02767 0.0
H1245 H 0.36074 0.40317 0.17747 0.0
H1246 H 0.36264 0.36955 0.16409 0.0
H1247 H 0.35003 0.38679 0.12394 0.0
C1248 C 0.31028 0.01857 0.71751 0.0
C1249 C 0.33661 0.01565 0.72159 0.0
C1250 C 0.30525 0.03139 0.68049 0.0
C1251 C 0.32699 0.04121 0.64687 0.0
C1252 C 0.35447 0.03999 0.65198 0.0
C1253 C 0.3589 0.02722 0.68924 0.0
C1254 C 0.27593 0.03271 0.67662 0.0
C1255 C 0.37846 0.05044 0.61701 0.0
C1256 C 0.31249 0.03551 0.52936 0.0
C1257 C 0.33001 0.06679 0.51795 0.0
C1258 C 0.30744 0.02664 0.57239 0.0
C1259 C 0.32028 0.04967 0.60439 0.0
C1260 C 0.33358 0.08119 0.59297 0.0
C1261 C 0.33837 0.08945 0.54962 0.0
C1262 C 0.29235 -0.00732 0.58332 0.0
C1263 C 0.34631 0.10633 0.6263 0.0
H1264 H 0.29316 0.01006 0.74276 0.0
H1265 H 0.3791 0.02472 0.69191 0.0
H1266 H 0.27962 0.05327 0.65811 0.0
H1267 H 0.25833 0.01182 0.65958 0.0
H1268 H 0.2665 0.03317 0.70856 0.0
H1269 H 0.39899 0.04901 0.62697 0.0
H1270 H 0.36838 0.03579 0.58825 0.0
H1271 H 0.38616 0.07466 0.60769 0.0
H1272 H 0.30572 0.01782 0.50509 0.0
H1273 H 0.35117 0.11369 0.54076 0.0
H1274 H 0.27676 0.987 0.61117 0.0
H1275 H 0.31041 0.98698 0.59198 0.0
H1276 H 0.27893 0.97786 0.55597 0.0
H1277 H 0.33132 0.09921 0.65504 0.0
H1278 H 0.34872 0.12821 0.61357 0.0
H1279 H 0.36946 0.11089 0.6364 0.0
C1280 C 0.33769 0.30943 0.99237 0.0
C1281 C 0.32501 0.2971 1.03242 0.0
C1282 C 0.31908 0.30864 0.95857 0.0
C1283 C 0.28673 0.29412 0.96451 0.0
C1284 C 0.27344 0.27876 1.00345 0.0
C1285 C 0.29283 0.28082 1.03732 0.0
C1286 C 0.33445 0.32534 0.91754 0.0
C1287 C 0.23905 0.26169 1.0106 0.0
C1288 C 0.26228 0.33961 0.8976 0.0
C1289 C 0.26068 0.32621 0.85769 0.0
C1290 C 0.26665 0.32681 0.9349 0.0
C1291 C 0.26836 0.29947 0.93199 0.0
C1292 C 0.26054 0.28274 0.89321 0.0
C1293 C 0.25729 0.29662 0.85601 0.0
C1294 C 0.27406 0.34504 0.97592 0.0
C1295 C 0.25955 0.25218 0.8899 0.0
H1296 H 0.36246 0.32097 0.98795 0.0
H1297 H 0.28277 0.27093 1.0681 0.0
H1298 H 0.32518 0.30924 0.89008 0.0
H1299 H 0.32955 0.34436 0.91165 0.0
H1300 H 0.35987 0.33537 0.91834 0.0
H1301 H 0.23208 0.24132 1.03168 0.0
H1302 H 0.23245 0.27718 1.02699 0.0
H1303 H 0.22597 0.25379 0.98017 0.0
H1304 H 0.26356 0.3619 0.89908 0.0
H1305 H 0.25527 0.28568 0.82536 0.0
H1306 H 0.29907 0.35566 0.98291 0.0
H1307 H 0.26125 0.32965 1.00306 0.0
H1308 H 0.26832 0.36379 0.97399 0.0
H1309 H 0.28321 0.25631 0.88459 0.0
H1310 H 0.24493 0.23836 0.86264 0.0
H1311 H 0.25056 0.23858 0.91984 0.0
C1312 C 0.87911 0.268 0.22912 0.0
C1313 C 0.89998 0.27927 0.19492 0.0
C1314 C 0.88956 0.26917 0.27103 0.0
C1315 C 0.92153 0.28229 0.27852 0.0
C1316 C 0.94208 0.29016 0.24358 0.0
C1317 C 0.931 0.2885 0.20203 0.0
C1318 C 0.86685 0.2596 0.30742 0.0
C1319 C 0.97636 0.304 0.25022 0.0
C1320 C 0.95845 0.33891 0.36865 0.0
C1321 C 0.96821 0.3231 0.39571 0.0
C1322 C 0.94166 0.32506 0.33158 0.0
C1323 C 0.93432 0.29452 0.32138 0.0
C1324 C 0.94223 0.27762 0.34997 0.0
C1325 C 0.95937 0.29225 0.3868 0.0
C1326 C 0.93369 0.34399 0.30191 0.0
C1327 C 0.93421 0.24483 0.34059 0.0
H1328 H 0.85498 0.26029 0.22342 0.0
H1329 H 0.94718 0.29725 0.17563 0.0
H1330 H 0.87281 0.24827 0.33331 0.0
H1331 H 0.86762 0.28043 0.32111 0.0
H1332 H 0.8429 0.24357 0.29652 0.0
H1333 H -0.01168 0.30422 0.22023 0.0
H1334 H -0.01367 0.32819 0.26152 0.0
H1335 H 0.98109 0.291 0.27497 0.0
H1336 H 0.96561 0.3629 0.37499 0.0
H1337 H 0.96667 0.2799 0.40793 0.0
H1338 H 0.90873 0.33122 0.29421 0.0
H1339 H 0.9465 0.34824 0.2714 0.0
H1340 H 0.9395 0.3667 0.31587 0.0
H1341 H 0.91093 0.23147 0.32611 0.0
H1342 H 0.93505 0.2327 0.36994 0.0
H1343 H 0.95104 0.24508 0.31737 0.0
C1344 C 0.61763 0.97298 0.73762 0.0
C1345 C 0.64665 0.98928 0.75696 0.0
C1346 C 0.61342 0.95557 0.70073 0.0
C1347 C 0.63878 0.95399 0.68378 0.0
C1348 C 0.66692 0.96699 0.70665 0.0
C1349 C 0.6708 0.9852 0.74269 0.0
C1350 C 0.58308 0.94228 0.67708 0.0
C1351 C 0.69391 0.96446 0.69053 0.0
C1352 C 0.61886 0.90727 0.58173 0.0
C1353 C 0.62639 0.93058 0.55119 0.0
C1354 C 0.62495 0.91459 0.62527 0.0
C1355 C 0.638 0.94578 0.6382 0.0
C1356 C 0.64712 0.96947 0.60713 0.0
C1357 C 0.64144 0.96154 0.56397 0.0
C1358 C 0.61581 0.88883 0.6573 0.0
C1359 C 0.66069 0.00304 0.61955 0.0
H1360 H 0.59913 0.9765 0.74871 0.0
H1361 H 0.69318 -0.00218 0.758 0.0
H1362 H 0.58655 0.95471 0.64629 0.0
H1363 H 0.57423 0.91758 0.66958 0.0
H1364 H 0.56526 0.94425 0.6956 0.0
H1365 H 0.7109 0.969 0.71637 0.0
H1366 H 0.68606 0.94118 0.67696 0.0
H1367 H 0.70576 0.98171 0.66474 0.0
H1368 H 0.60736 0.88329 0.57171 0.0
H1369 H 0.64687 0.97953 0.54044 0.0
H1370 H 0.59258 0.88179 0.67008 0.0
H1371 H 0.63214 0.89635 0.68462 0.0
H1372 H 0.61481 0.86822 0.64231 0.0
H1373 H 0.64359 0.00597 0.63843 0.0
H1374 H 0.66741 0.01861 0.59129 0.0
H1375 H 0.68135 0.01055 0.63991 0.0
C1376 C 0.67211 0.61655 1.07918 0.0
C1377 C 0.64268 0.61153 1.06888 0.0
C1378 C 0.69159 0.616 1.04735 0.0
C1379 C 0.68152 0.61109 1.0043 0.0
C1380 C 0.65157 0.60554 0.99402 0.0
C1381 C 0.63257 0.60572 1.02644 0.0
C1382 C 0.72296 0.62145 1.06012 0.0
C1383 C 0.63956 0.59989 0.94856 0.0
C1384 C 0.72346 0.63875 0.90178 0.0
C1385 C 0.71121 0.61005 0.88117 0.0
C1386 C 0.71841 0.64019 0.94554 0.0
C1387 C 0.7017 0.61233 0.96882 0.0
C1388 C 0.69613 0.58424 0.9504 0.0
C1389 C 0.7004 0.58321 0.9063 0.0
C1390 C 0.7264 0.67091 0.96489 0.0
C1391 C 0.68112 0.5546 0.97585 0.0
H1392 H 0.67991 0.62091 1.11211 0.0
H1393 H 0.61003 0.60229 1.01831 0.0
H1394 H 0.73209 0.61113 1.03717 0.0
H1395 H 0.73934 0.64671 1.06157 0.0
H1396 H 0.72218 0.61182 1.09245 0.0
H1397 H 0.61626 0.59729 0.94606 0.0
H1398 H 0.65547 0.61934 0.92761 0.0
H1399 H 0.63818 0.57849 0.93604 0.0
H1400 H 0.73353 0.6598 0.88291 0.0
H1401 H 0.69171 0.56086 0.89127 0.0
H1402 H 0.73503 0.67268 0.99802 0.0
H1403 H 0.70533 0.67291 0.96621 0.0
H1404 H 0.74409 0.69056 0.94575 0.0
H1405 H 0.692 0.55841 1.00788 0.0
H1406 H 0.68282 0.53586 0.95933 0.0
H1407 H 0.6564 0.54695 0.98078 0.0
C1408 C 0.95636 0.6224 0.21234 0.0
C1409 C 0.94878 0.62427 0.1698 0.0
C1410 C 0.93882 0.62379 0.24601 0.0
C1411 C 0.91299 0.62727 0.23697 0.0
C1412 C 0.90545 0.62976 0.19408 0.0
C1413 C 0.92345 0.62813 0.16089 0.0
C1414 C 0.94784 0.62111 0.29133 0.0
C1415 C 0.87804 0.63323 0.18296 0.0
C1416 C 0.8641 0.59621 0.334 0.0
C1417 C 0.87776 0.62276 0.35983 0.0
C1418 C 0.87173 0.59798 0.29065 0.0
C1419 C 0.8937 0.62683 0.27319 0.0
C1420 C 0.90306 0.65417 0.29692 0.0
C1421 C 0.89473 0.65183 0.34014 0.0
C1422 C 0.86005 0.56845 0.26555 0.0
C1423 C 0.92544 0.68553 0.27871 0.0
H1424 H 0.97631 0.6201 0.21939 0.0
H1425 H 0.91741 0.62941 0.12794 0.0
H1426 H 0.9517 0.64147 0.31031 0.0
H1427 H 0.92892 0.60021 0.30686 0.0
H1428 H 0.96912 0.61947 0.29274 0.0
H1429 H 0.85701 0.61003 0.18231 0.0
H1430 H 0.87438 0.64739 0.20696 0.0
H1431 H 0.88069 0.64393 0.15092 0.0
H1432 H 0.85049 0.57355 0.34837 0.0
H1433 H 0.9043 0.67258 0.35949 0.0
H1434 H 0.8787 0.56272 0.26288 0.0
H1435 H 0.85357 0.57138 0.23268 0.0
H1436 H 0.83981 0.54872 0.2811 0.0
H1437 H 0.94917 0.68924 0.28085 0.0
H1438 H 0.92478 0.70434 0.29664 0.0
H1439 H 0.92042 0.68706 0.24451 0.0
C1440 C 0.54099 0.12034 0.50854 0.0
C1441 C 0.5101 0.11018 0.4955 0.0
C1442 C 0.55083 0.12227 0.55276 0.0
C1443 C 0.52967 0.11277 0.58825 0.0
C1444 C 0.49838 0.10302 0.57528 0.0
C1445 C 0.48944 0.10235 0.53065 0.0
C1446 C 0.58472 0.13491 0.56073 0.0
C1447 C 0.47315 0.09199 0.60824 0.0
C1448 C 0.56246 0.09537 0.69726 0.0
C1449 C 0.55994 0.11389 0.72977 0.0
C1450 C 0.55215 0.09397 0.65325 0.0
C1451 C 0.54016 0.11309 0.6374 0.0
C1452 C 0.5389 0.13286 0.66991 0.0
C1453 C 0.54755 0.13224 0.71421 0.0
C1454 C 0.55338 0.07035 0.62475 0.0
C1455 C 0.52877 0.15576 0.6588 0.0
H1456 H 0.55817 0.12694 0.48363 0.0
H1457 H 0.46548 0.09441 0.52336 0.0
H1458 H 0.59196 0.14576 0.59272 0.0
H1459 H 0.58986 0.1158 0.5585 0.0
H1460 H 0.59886 0.15235 0.5361 0.0
H1461 H 0.45105 0.07332 0.59506 0.0
H1462 H 0.47869 0.08329 0.63766 0.0
H1463 H 0.46944 0.11139 0.61682 0.0
H1464 H 0.5719 0.08089 0.70629 0.0
H1465 H 0.54504 0.14715 0.73695 0.0
H1466 H 0.5775 0.07515 0.62269 0.0
H1467 H 0.54446 0.06946 0.59211 0.0
H1468 H 0.53944 0.04705 0.63923 0.0
H1469 H 0.54344 0.178 0.6756 0.0
H1470 H 0.50481 0.14673 0.67021 0.0
H1471 H 0.52978 0.16051 0.62401 0.0
C1472 C 0.37993 0.49466 0.86841 0.0
C1473 C 0.39283 0.51524 0.83303 0.0
C1474 C 0.38895 0.50358 0.9128 0.0
C1475 C 0.41127 0.53479 0.92526 0.0
C1476 C 0.42336 0.55584 0.88955 0.0
C1477 C 0.41469 0.546 0.84555 0.0
C1478 C 0.37471 0.47852 0.94623 0.0
C1479 C 0.44591 0.58963 0.89685 0.0
C1480 C 0.4122 0.55523 1.05069 0.0
C1481 C 0.44269 0.56543 1.06552 0.0
C1482 C 0.4021 0.54602 1.00676 0.0
C1483 C 0.42201 0.54517 0.97412 0.0
C1484 C 0.45276 0.55502 0.98938 0.0
C1485 C 0.46244 0.56522 1.03306 0.0
C1486 C 0.36951 0.53762 0.99608 0.0
C1487 C 0.47646 0.55488 0.95995 0.0
H1488 H 0.3632 0.47076 0.86145 0.0
H1489 H 0.42551 0.56306 0.82041 0.0
H1490 H 0.39013 0.48338 0.97421 0.0
H1491 H 0.35284 0.47663 0.95737 0.0
H1492 H 0.36897 0.45571 0.93276 0.0
H1493 H 0.44142 0.6041 0.87423 0.0
H1494 H 0.445 0.5971 0.92991 0.0
H1495 H 0.46958 0.59416 0.89033 0.0
H1496 H 0.39578 0.55475 1.0736 0.0
H1497 H 0.48604 0.57262 1.04195 0.0
H1498 H 0.35354 0.51393 1.00806 0.0
H1499 H 0.36572 0.53849 0.96129 0.0
H1500 H 0.36338 0.55344 1.01262 0.0
H1501 H 0.49109 0.5476 0.9774 0.0
H1502 H 0.49193 0.57874 0.94818 0.0
H1503 H 0.46597 0.53941 0.93216 0.0
C1504 C 0.88805 0.45176 0.17069 0.0
C1505 C 0.87005 0.42153 0.15343 0.0
C1506 C 0.88813 0.4596 0.21543 0.0
C1507 C 0.86714 0.43782 0.24662 0.0
C1508 C 0.84746 0.40741 0.22846 0.0
C1509 C 0.85003 0.39967 0.1842 0.0
C1510 C 0.91204 0.49196 0.22809 0.0
C1511 C 0.82214 0.38221 0.25475 0.0
C1512 C 0.86827 0.43849 0.37653 0.0
C1513 C 0.86493 0.46391 0.38975 0.0
C1514 C 0.87025 0.43084 0.33217 0.0
C1515 C 0.8658 0.44658 0.2964 0.0
C1516 C 0.86021 0.47106 0.30991 0.0
C1517 C 0.86122 0.47994 0.3546 0.0
C1518 C 0.87862 0.40616 0.32484 0.0
C1519 C 0.85248 0.48846 0.27748 0.0
H1520 H 0.9032 0.46997 0.14898 0.0
H1521 H 0.8349 0.37625 0.17325 0.0
H1522 H 0.90559 0.50852 0.21468 0.0
H1523 H 0.91492 0.49514 0.26303 0.0
H1524 H 0.93472 0.49797 0.21401 0.0
H1525 H 0.82903 0.36507 0.26396 0.0
H1526 H 0.81664 0.39106 0.28391 0.0
H1527 H 0.80078 0.36968 0.23534 0.0
H1528 H 0.87067 0.42475 0.4014 0.0
H1529 H 0.85825 0.49946 0.36192 0.0
H1530 H 0.88759 0.40692 0.29221 0.0
H1531 H 0.85802 0.38313 0.33052 0.0
H1532 H 0.89645 0.40861 0.34816 0.0
H1533 H 0.87324 0.51132 0.27166 0.0
H1534 H 0.83435 0.49287 0.29013 0.0
H1535 H 0.84432 0.47594 0.24672 0.0
C1536 C 0.48123 0.88828 0.52887 0.0
C1537 C 0.46059 0.87965 0.49341 0.0
C1538 C 0.47206 0.88788 0.5734 0.0
C1539 C 0.44073 0.87796 0.58597 0.0
C1540 C 0.41969 0.86805 0.55033 0.0
C1541 C 0.42958 0.86924 0.50629 0.0
C1542 C 0.49669 0.89936 0.60734 0.0
C1543 C 0.38584 0.85592 0.55776 0.0
C1544 C 0.41625 0.85559 0.71036 0.0
C1545 C 0.40878 0.87776 0.72628 0.0
C1546 C 0.42597 0.85508 0.66653 0.0
C1547 C 0.43017 0.87803 0.63498 0.0
C1548 C 0.4233 0.90086 0.65123 0.0
C1549 C 0.41257 0.90013 0.6948 0.0
C1550 C 0.43153 0.82909 0.65474 0.0
C1551 C 0.42789 0.92704 0.62244 0.0
H1552 H 0.50526 0.89645 0.52183 0.0
H1553 H 0.41237 0.86219 0.48129 0.0
H1554 H 0.49539 0.91687 0.62763 0.0
H1555 H 0.49288 0.87986 0.62836 0.0
H1556 H 0.52022 0.90972 0.59353 0.0
H1557 H 0.37174 0.83648 0.53567 0.0
H1558 H 0.37866 0.84784 0.59105 0.0
H1559 H 0.38056 0.87454 0.5506 0.0
H1560 H 0.41414 0.83784 0.73235 0.0
H1561 H 0.4077 0.91803 0.70453 0.0
H1562 H 0.4543 0.83425 0.66745 0.0
H1563 H 0.43119 0.82555 0.61971 0.0
H1564 H 0.41388 0.80714 0.66981 0.0
H1565 H 0.45055 0.93717 0.60607 0.0
H1566 H 0.42675 0.94563 0.64027 0.0
H1567 H 0.40974 0.91816 0.59748 0.0
C1568 C 0.58689 0.4798 0.86459 0.0
C1569 C 0.56963 0.46113 0.82933 0.0
C1570 C 0.57912 0.47084 0.90935 0.0
C1571 C 0.55175 0.44257 0.92254 0.0
C1572 C 0.53433 0.42375 0.88671 0.0
C1573 C 0.54392 0.4324 0.84254 0.0
C1574 C 0.60157 0.49239 0.94213 0.0
C1575 C 0.50451 0.3939 0.89396 0.0
C1576 C 0.52628 0.39586 1.03571 0.0
C1577 C 0.52035 0.41434 1.06437 0.0
C1578 C 0.53744 0.40496 0.99198 0.0
C1579 C 0.54138 0.43294 0.97206 0.0
C1580 C 0.53488 0.45138 1.00106 0.0
C1581 C 0.52659 0.44297 1.04563 0.0
C1582 C 0.54612 0.38421 0.96837 0.0
C1583 C 0.53609 0.48059 0.98584 0.0
H1584 H 0.60713 0.50189 0.8574 0.0
H1585 H 0.52997 0.41646 0.81764 0.0
H1586 H 0.59817 0.48163 0.97419 0.0
H1587 H 0.62553 0.50025 0.93161 0.0
H1588 H 0.59929 0.51331 0.94446 0.0
H1589 H 0.50907 0.37438 0.89278 0.0
H1590 H 0.49366 0.39345 0.92503 0.0
H1591 H 0.48768 0.38982 0.86815 0.0
H1592 H 0.52343 0.3743 1.04803 0.0
H1593 H 0.52471 0.45946 1.0659 0.0
H1594 H 0.5597 0.37766 0.98963 0.0
H1595 H 0.55988 0.39508 0.93917 0.0
H1596 H 0.52483 0.36247 0.95967 0.0
H1597 H 0.55801 0.50084 0.99664 0.0
H1598 H 0.51703 0.48276 1.0003 0.0
H1599 H 0.53432 0.48145 0.95065 0.0
C1600 C 0.10982 0.55525 0.38081 0.0
C1601 C 0.10408 0.52541 0.39345 0.0
C1602 C 0.10962 0.56459 0.33681 0.0
C1603 C 0.10267 0.54391 0.30115 0.0
C1604 C 0.09722 0.51371 0.31371 0.0
C1605 C 0.0983 0.50529 0.35813 0.0
C1606 C 0.11712 0.59743 0.32935 0.0
C1607 C 0.08926 0.48913 0.2804 0.0
C1608 C 0.07693 0.56991 0.19323 0.0
C1609 C 0.09762 0.572 0.16049 0.0
C1610 C 0.07783 0.56059 0.23709 0.0
C1611 C 0.10095 0.55366 0.25226 0.0
C1612 C 0.12252 0.55669 0.21939 0.0
C1613 C 0.1202 0.56485 0.17532 0.0
C1614 C 0.05266 0.55757 0.26645 0.0
C1615 C 0.1491 0.5518 0.22995 0.0
H1616 H 0.1144 0.57193 0.40589 0.0
H1617 H 0.09365 0.4821 0.36515 0.0
H1618 H 0.12607 0.60575 0.29669 0.0
H1619 H 0.09593 0.59884 0.33416 0.0
H1620 H 0.13448 0.61326 0.35286 0.0
H1621 H 0.07375 0.46571 0.29369 0.0
H1622 H 0.07802 0.49253 0.252 0.0
H1623 H 0.11071 0.48976 0.27003 0.0
H1624 H 0.05885 0.57472 0.18432 0.0
H1625 H 0.13685 0.566 0.15226 0.0
H1626 H 0.05739 0.58102 0.27541 0.0
H1627 H 0.05053 0.54436 0.29594 0.0
H1628 H 0.0301 0.54601 0.2496 0.0
H1629 H 0.17029 0.56923 0.21317 0.0
H1630 H 0.14379 0.52874 0.21813 0.0
H1631 H 0.15404 0.55325 0.2647 0.0
loop_
_geom_bond_atom_site_label_1
_geom_bond_atom_site_label_2
_geom_bond_distance
_geom_bond_site_symmetry_2
_ccdc_geom_bond_type
Pr0 C2 2.880 . S
Pr0 O20 2.562 . S
Pr0 O21 2.490 . S
Pr0 O22 2.695 . S
Pr0 O23 2.512 . S
Pr0 O25 2.437 . S
Pr0 O28 2.436 . S
Pr0 O30 2.438 . S
Pr1 C11 2.880 . S
Pr1 O22 2.436 . S
Pr1 O24 2.438 . S
Pr1 O26 2.562 . S
Pr1 O27 2.490 . S
Pr1 O28 2.695 . S
Pr1 O29 2.512 . S
Pr1 O31 2.437 . S
C2 Pr0 2.880 . S
C2 C3 1.491 . S
C2 O20 1.254 . S
C2 O21 1.225 . S
C3 C2 1.491 . S
C3 C4 1.392 . S
C3 C8 1.356 . S
C4 C3 1.392 . S
C4 C5 1.368 . S
C4 H32 0.929 . S
C5 C4 1.368 . S
C5 C6 1.386 . S
C5 H33 0.929 . S
C6 C5 1.386 . S
C6 C7 1.373 . S
C7 C6 1.373 . S
C7 C8 1.409 . S
C7 H34 0.931 . S
C8 C3 1.356 . S
C8 C7 1.409 . S
C8 H35 0.930 . S
C9 O22 1.270 . S
C9 O23 1.248 . S
C10 O24 1.267 . S
C10 O25 1.278 . S
C11 Pr1 2.880 . S
C11 C12 1.491 . S
C11 O26 1.254 . S
C11 O27 1.225 . S
C12 C11 1.491 . S
C12 C13 1.392 . S
C12 C17 1.356 . S
C13 C12 1.392 . S
C13 C14 1.368 . S
C13 H36 0.929 . S
C14 C13 1.368 . S
C14 C15 1.386 . S
C14 H37 0.929 . S
C15 C14 1.386 . S
C15 C16 1.373 . S
C16 C15 1.373 . S
C16 C17 1.409 . S
C16 H38 0.931 . S
C17 C12 1.356 . S
C17 C16 1.409 . S
C17 H39 0.930 . S
C18 O28 1.270 . S
C18 O29 1.248 . S
C19 O30 1.267 . S
C19 O31 1.278 . S
O20 Pr0 2.562 . S
O20 C2 1.254 . S
O21 Pr0 2.490 . S
O21 C2 1.225 . S
O22 Pr0 2.695 . S
O22 Pr1 2.436 . S
O22 C9 1.270 . S
O23 Pr0 2.512 . S
O23 C9 1.248 . S
O24 Pr1 2.438 . S
O24 C10 1.267 . S
O25 Pr0 2.437 . S
O25 C10 1.278 . S
O26 Pr1 2.562 . S
O26 C11 1.254 . S
O27 Pr1 2.490 . S
O27 C11 1.225 . S
O28 Pr0 2.436 . S
O28 Pr1 2.695 . S
O28 C18 1.270 . S
O29 Pr1 2.512 . S
O29 C18 1.248 . S
O30 Pr0 2.438 . S
O30 C19 1.267 . S
O31 Pr1 2.437 . S
O31 C19 1.278 . S
H32 C4 0.929 . S
H33 C5 0.929 . S
H34 C7 0.931 . S
H35 C8 0.930 . S
H36 C13 0.929 . S
H37 C14 0.929 . S
H38 C16 0.931 . S
H39 C17 0.930 . S
Pr40 C42 2.880 . S
Pr40 O60 2.562 . S
Pr40 O61 2.490 . S
Pr40 O62 2.695 . S
Pr40 O63 2.512 . S
Pr40 O65 2.437 . S
Pr40 O68 2.436 . S
Pr40 O70 2.438 . S
Pr41 C51 2.880 . S
Pr41 O62 2.436 . S
Pr41 O64 2.438 . S
Pr41 O66 2.562 . S
Pr41 O67 2.490 . S
Pr41 O68 2.695 . S
Pr41 O69 2.512 . S
Pr41 O71 2.437 . S
C42 Pr40 2.880 . S
C42 C43 1.491 . S
C42 O60 1.254 . S
C42 O61 1.225 . S
C43 C42 1.491 . S
C43 C44 1.392 . S
C43 C48 1.356 . S
C44 C43 1.392 . S
C44 C45 1.368 . S
C44 H72 0.929 . S
C45 C44 1.368 . S
C45 C46 1.386 . S
C45 H73 0.929 . S
C46 C45 1.386 . S
C46 C47 1.373 . S
C47 C46 1.373 . S
C47 C48 1.409 . S
C47 H74 0.931 . S
C48 C43 1.356 . S
C48 C47 1.409 . S
C48 H75 0.930 . S
C49 O62 1.270 . S
C49 O63 1.248 . S
C50 O64 1.267 . S
C50 O65 1.278 . S
C51 Pr41 2.880 . S
C51 C52 1.491 . S
C51 O66 1.254 . S
C51 O67 1.225 . S
C52 C51 1.491 . S
C52 C53 1.392 . S
C52 C57 1.356 . S
C53 C52 1.392 . S
C53 C54 1.368 . S
C53 H76 0.929 . S
C54 C53 1.368 . S
C54 C55 1.386 . S
C54 H77 0.929 . S
C55 C54 1.386 . S
C55 C56 1.373 . S
C56 C55 1.373 . S
C56 C57 1.409 . S
C56 H78 0.931 . S
C57 C52 1.356 . S
C57 C56 1.409 . S
C57 H79 0.930 . S
C58 O68 1.270 . S
C58 O69 1.248 . S
C59 O70 1.267 . S
C59 O71 1.278 . S
O60 Pr40 2.562 . S
O60 C42 1.254 . S
O61 Pr40 2.490 . S
O61 C42 1.225 . S
O62 Pr40 2.695 . S
O62 Pr41 2.436 . S
O62 C49 1.270 . S
O63 Pr40 2.512 . S
O63 C49 1.248 . S
O64 Pr41 2.438 . S
O64 C50 1.267 . S
O65 Pr40 2.437 . S
O65 C50 1.278 . S
O66 Pr41 2.562 . S
O66 C51 1.254 . S
O67 Pr41 2.490 . S
O67 C51 1.225 . S
O68 Pr40 2.436 . S
O68 Pr41 2.695 . S
O68 C58 1.270 . S
O69 Pr41 2.512 . S
O69 C58 1.248 . S
O70 Pr40 2.438 . S
O70 C59 1.267 . S
O71 Pr41 2.437 . S
O71 C59 1.278 . S
H72 C44 0.929 . S
H73 C45 0.929 . S
H74 C47 0.931 . S
H75 C48 0.930 . S
H76 C53 0.929 . S
H77 C54 0.929 . S
H78 C56 0.931 . S
H79 C57 0.930 . S
Pr80 C82 2.880 1_556 S
Pr80 O100 2.562 . S
Pr80 O101 2.490 . S
Pr80 O102 2.695 . S
Pr80 O103 2.512 . S
Pr80 O105 2.437 . S
Pr80 O108 2.436 . S
Pr80 O110 2.438 . S
Pr81 C91 2.880 . S
Pr81 O102 2.436 . S
Pr81 O104 2.438 . S
Pr81 O106 2.562 . S
Pr81 O107 2.490 . S
Pr81 O108 2.695 . S
Pr81 O109 2.512 . S
Pr81 O111 2.437 . S
C82 Pr80 2.880 1_554 S
C82 C83 1.491 . S
C82 O100 1.254 1_554 S
C82 O101 1.225 1_554 S
C83 C82 1.491 . S
C83 C84 1.392 . S
C83 C88 1.356 . S
C84 C83 1.392 . S
C84 C85 1.368 . S
C84 H112 0.929 . S
C85 C84 1.368 . S
C85 C86 1.386 . S
C85 H113 0.929 . S
C86 C85 1.386 . S
C86 C87 1.373 . S
C87 C86 1.373 . S
C87 C88 1.409 . S
C87 H114 0.931 . S
C88 C83 1.356 . S
C88 C87 1.409 . S
C88 H115 0.930 . S
C89 O102 1.270 . S
C89 O103 1.248 . S
C90 O104 1.267 . S
C90 O105 1.278 . S
C91 Pr81 2.880 . S
C91 C92 1.491 . S
C91 O106 1.254 . S
C91 O107 1.225 . S
C92 C91 1.491 . S
C92 C93 1.392 . S
C92 C97 1.356 . S
C93 C92 1.392 . S
C93 C94 1.368 . S
C93 H116 0.929 . S
C94 C93 1.368 . S
C94 C95 1.386 . S
C94 H117 0.929 . S
C95 C94 1.386 . S
C95 C96 1.373 . S
C96 C95 1.373 . S
C96 C97 1.409 . S
C96 H118 0.931 . S
C97 C92 1.356 . S
C97 C96 1.409 . S
C97 H119 0.930 . S
C98 O108 1.270 . S
C98 O109 1.248 . S
C99 O110 1.267 . S
C99 O111 1.278 . S
O100 Pr80 2.562 . S
O100 C82 1.254 1_556 S
O101 Pr80 2.490 . S
O101 C82 1.225 1_556 S
O102 Pr80 2.695 . S
O102 Pr81 2.436 . S
O102 C89 1.270 . S
O103 Pr80 2.512 . S
O103 C89 1.248 . S
O104 Pr81 2.438 . S
O104 C90 1.267 . S
O105 Pr80 2.437 . S
O105 C90 1.278 . S
O106 Pr81 2.562 . S
O106 C91 1.254 . S
O107 Pr81 2.490 . S
O107 C91 1.225 . S
O108 Pr80 2.436 . S
O108 Pr81 2.695 . S
O108 C98 1.270 . S
O109 Pr81 2.512 . S
O109 C98 1.248 . S
O110 Pr80 2.438 . S
O110 C99 1.267 . S
O111 Pr81 2.437 . S
O111 C99 1.278 . S
H112 C84 0.929 . S
H113 C85 0.929 . S
H114 C87 0.931 . S
H115 C88 0.930 . S
H116 C93 0.929 . S
H117 C94 0.929 . S
H118 C96 0.931 . S
H119 C97 0.930 . S
Pr120 C122 2.880 . S
Pr120 O140 2.562 . S
Pr120 O141 2.490 . S
Pr120 O142 2.695 . S
Pr120 O143 2.512 . S
Pr120 O145 2.437 . S
Pr120 O148 2.436 . S
Pr120 O150 2.438 . S
Pr121 C131 2.880 . S
Pr121 O142 2.436 . S
Pr121 O144 2.438 . S
Pr121 O146 2.562 . S
Pr121 O147 2.490 . S
Pr121 O148 2.695 . S
Pr121 O149 2.512 . S
Pr121 O151 2.437 . S
C122 Pr120 2.880 . S
C122 C123 1.491 . S
C122 O140 1.254 . S
C122 O141 1.225 . S
C123 C122 1.491 . S
C123 C124 1.392 . S
C123 C128 1.356 . S
C124 C123 1.392 . S
C124 C125 1.368 . S
C124 H152 0.929 . S
C125 C124 1.368 . S
C125 C126 1.386 . S
C125 H153 0.929 . S
C126 C125 1.386 . S
C126 C127 1.373 . S
C127 C126 1.373 . S
C127 C128 1.409 . S
C127 H154 0.931 . S
C128 C123 1.356 . S
C128 C127 1.409 . S
C128 H155 0.930 . S
C129 O142 1.270 . S
C129 O143 1.248 . S
C130 O144 1.267 . S
C130 O145 1.278 . S
C131 Pr121 2.880 . S
C131 C132 1.491 . S
C131 O146 1.254 . S
C131 O147 1.225 . S
C132 C131 1.491 . S
C132 C133 1.392 . S
C132 C137 1.356 . S
C133 C132 1.392 . S
C133 C134 1.368 . S
C133 H156 0.929 . S
C134 C133 1.368 . S
C134 C135 1.386 . S
C134 H157 0.929 . S
C135 C134 1.386 . S
C135 C136 1.373 . S
C136 C135 1.373 . S
C136 C137 1.409 . S
C136 H158 0.931 . S
C137 C132 1.356 . S
C137 C136 1.409 . S
C137 H159 0.930 . S
C138 O148 1.270 . S
C138 O149 1.248 . S
C139 O150 1.267 . S
C139 O151 1.278 . S
O140 Pr120 2.562 . S
O140 C122 1.254 . S
O141 Pr120 2.490 . S
O141 C122 1.225 . S
O142 Pr120 2.695 . S
O142 Pr121 2.436 . S
O142 C129 1.270 . S
O143 Pr120 2.512 . S
O143 C129 1.248 . S
O144 Pr121 2.438 . S
O144 C130 1.267 . S
O145 Pr120 2.437 . S
O145 C130 1.278 . S
O146 Pr121 2.562 . S
O146 C131 1.254 . S
O147 Pr121 2.490 . S
O147 C131 1.225 . S
O148 Pr120 2.436 . S
O148 Pr121 2.695 . S
O148 C138 1.270 . S
O149 Pr121 2.512 . S
O149 C138 1.248 . S
O150 Pr120 2.438 . S
O150 C139 1.267 . S
O151 Pr121 2.437 . S
O151 C139 1.278 . S
H152 C124 0.929 . S
H153 C125 0.929 . S
H154 C127 0.931 . S
H155 C128 0.930 . S
H156 C133 0.929 . S
H157 C134 0.929 . S
H158 C136 0.931 . S
H159 C137 0.930 . S
Pr160 C162 2.880 . S
Pr160 O180 2.562 . S
Pr160 O181 2.490 . S
Pr160 O182 2.695 . S
Pr160 O183 2.512 . S
Pr160 O185 2.437 . S
Pr160 O188 2.436 . S
Pr160 O190 2.438 . S
Pr161 C171 2.880 . S
Pr161 O182 2.436 . S
Pr161 O184 2.438 . S
Pr161 O186 2.562 . S
Pr161 O187 2.490 . S
Pr161 O188 2.695 . S
Pr161 O189 2.512 . S
Pr161 O191 2.437 . S
C162 Pr160 2.880 . S
C162 C163 1.491 . S
C162 O180 1.254 . S
C162 O181 1.225 . S
C163 C162 1.491 . S
C163 C164 1.392 . S
C163 C168 1.356 . S
C164 C163 1.392 . S
C164 C165 1.368 . S
C164 H192 0.929 . S
C165 C164 1.368 . S
C165 C166 1.386 . S
C165 H193 0.929 . S
C166 C165 1.386 . S
C166 C167 1.373 . S
C167 C166 1.373 . S
C167 C168 1.409 . S
C167 H194 0.931 . S
C168 C163 1.356 . S
C168 C167 1.409 . S
C168 H195 0.930 . S
C169 O182 1.270 . S
C169 O183 1.248 . S
C170 O184 1.267 . S
C170 O185 1.278 . S
C171 Pr161 2.880 . S
C171 C172 1.491 . S
C171 O186 1.254 . S
C171 O187 1.225 . S
C172 C171 1.491 . S
C172 C173 1.392 . S
C172 C177 1.356 . S
C173 C172 1.392 . S
C173 C174 1.368 . S
C173 H196 0.929 . S
C174 C173 1.368 . S
C174 C175 1.386 . S
C174 H197 0.929 . S
C175 C174 1.386 . S
C175 C176 1.373 . S
C176 C175 1.373 . S
C176 C177 1.409 . S
C176 H198 0.931 . S
C177 C172 1.356 . S
C177 C176 1.409 . S
C177 H199 0.930 . S
C178 O188 1.270 . S
C178 O189 1.248 . S
C179 O190 1.267 . S
C179 O191 1.278 . S
O180 Pr160 2.562 . S
O180 C162 1.254 . S
O181 Pr160 2.490 . S
O181 C162 1.225 . S
O182 Pr160 2.695 . S
O182 Pr161 2.436 . S
O182 C169 1.270 . S
O183 Pr160 2.512 . S
O183 C169 1.248 . S
O184 Pr161 2.438 . S
O184 C170 1.267 . S
O185 Pr160 2.437 . S
O185 C170 1.278 . S
O186 Pr161 2.562 . S
O186 C171 1.254 . S
O187 Pr161 2.490 . S
O187 C171 1.225 . S
O188 Pr160 2.436 . S
O188 Pr161 2.695 . S
O188 C178 1.270 . S
O189 Pr161 2.512 . S
O189 C178 1.248 . S
O190 Pr160 2.438 . S
O190 C179 1.267 . S
O191 Pr161 2.437 . S
O191 C179 1.278 . S
H192 C164 0.929 . S
H193 C165 0.929 . S
H194 C167 0.931 . S
H195 C168 0.930 . S
H196 C173 0.929 . S
H197 C174 0.929 . S
H198 C176 0.931 . S
H199 C177 0.930 . S
Pr200 C202 2.880 1_556 S
Pr200 O220 2.562 . S
Pr200 O221 2.490 . S
Pr200 O222 2.695 . S
Pr200 O223 2.512 . S
Pr200 O225 2.437 . S
Pr200 O228 2.436 . S
Pr200 O230 2.438 . S
Pr201 C211 2.880 . S
Pr201 O222 2.436 . S
Pr201 O224 2.438 . S
Pr201 O226 2.562 . S
Pr201 O227 2.490 . S
Pr201 O228 2.695 . S
Pr201 O229 2.512 . S
Pr201 O231 2.437 . S
C202 Pr200 2.880 1_554 S
C202 C203 1.491 . S
C202 O220 1.254 1_554 S
C202 O221 1.225 1_554 S
C203 C202 1.491 . S
C203 C204 1.392 . S
C203 C208 1.356 . S
C204 C203 1.392 . S
C204 C205 1.368 . S
C204 H232 0.929 . S
C205 C204 1.368 . S
C205 C206 1.386 . S
C205 H233 0.929 . S
C206 C205 1.386 . S
C206 C207 1.373 . S
C207 C206 1.373 . S
C207 C208 1.409 . S
C207 H234 0.931 . S
C208 C203 1.356 . S
C208 C207 1.409 . S
C208 H235 0.930 . S
C209 O222 1.270 . S
C209 O223 1.248 . S
C210 O224 1.267 . S
C210 O225 1.278 . S
C211 Pr201 2.880 . S
C211 C212 1.491 . S
C211 O226 1.254 . S
C211 O227 1.225 . S
C212 C211 1.491 . S
C212 C213 1.392 . S
C212 C217 1.356 . S
C213 C212 1.392 . S
C213 C214 1.368 . S
C213 H236 0.929 . S
C214 C213 1.368 . S
C214 C215 1.386 . S
C214 H237 0.929 . S
C215 C214 1.386 . S
C215 C216 1.373 . S
C216 C215 1.373 . S
C216 C217 1.409 . S
C216 H238 0.931 . S
C217 C212 1.356 . S
C217 C216 1.409 . S
C217 H239 0.930 . S
C218 O228 1.270 . S
C218 O229 1.248 . S
C219 O230 1.267 . S
C219 O231 1.278 . S
O220 Pr200 2.562 . S
O220 C202 1.254 1_556 S
O221 Pr200 2.490 . S
O221 C202 1.225 1_556 S
O222 Pr200 2.695 . S
O222 Pr201 2.436 . S
O222 C209 1.270 . S
O223 Pr200 2.512 . S
O223 C209 1.248 . S
O224 Pr201 2.438 . S
O224 C210 1.267 . S
O225 Pr200 2.437 . S
O225 C210 1.278 . S
O226 Pr201 2.562 . S
O226 C211 1.254 . S
O227 Pr201 2.490 . S
O227 C211 1.225 . S
O228 Pr200 2.436 . S
O228 Pr201 2.695 . S
O228 C218 1.270 . S
O229 Pr201 2.512 . S
O229 C218 1.248 . S
O230 Pr200 2.438 . S
O230 C219 1.267 . S
O231 Pr201 2.437 . S
O231 C219 1.278 . S
H232 C204 0.929 . S
H233 C205 0.929 . S
H234 C207 0.931 . S
H235 C208 0.930 . S
H236 C213 0.929 . S
H237 C214 0.929 . S
H238 C216 0.931 . S
H239 C217 0.930 . S
Pr240 C242 2.880 . S
Pr240 O260 2.562 . S
Pr240 O261 2.490 . S
Pr240 O262 2.695 . S
Pr240 O263 2.512 . S
Pr240 O265 2.437 . S
Pr240 O268 2.436 . S
Pr240 O270 2.438 . S
Pr241 C251 2.880 . S
Pr241 O262 2.436 . S
Pr241 O264 2.438 . S
Pr241 O266 2.562 . S
Pr241 O267 2.490 . S
Pr241 O268 2.695 . S
Pr241 O269 2.512 . S
Pr241 O271 2.437 . S
C242 Pr240 2.880 . S
C242 C243 1.491 . S
C242 O260 1.254 . S
C242 O261 1.225 . S
C243 C242 1.491 . S
C243 C244 1.392 . S
C243 C248 1.356 . S
C244 C243 1.392 . S
C244 C245 1.368 . S
C244 H272 0.929 . S
C245 C244 1.368 . S
C245 C246 1.386 . S
C245 H273 0.929 . S
C246 C245 1.386 . S
C246 C247 1.373 . S
C247 C246 1.373 . S
C247 C248 1.409 . S
C247 H274 0.931 . S
C248 C243 1.356 . S
C248 C247 1.409 . S
C248 H275 0.930 . S
C249 O262 1.270 . S
C249 O263 1.248 . S
C250 O264 1.267 . S
C250 O265 1.278 . S
C251 Pr241 2.880 . S
C251 C252 1.491 . S
C251 O266 1.254 . S
C251 O267 1.225 . S
C252 C251 1.491 . S
C252 C253 1.392 . S
C252 C257 1.356 . S
C253 C252 1.392 . S
C253 C254 1.368 . S
C253 H276 0.929 . S
C254 C253 1.368 . S
C254 C255 1.386 . S
C254 H277 0.929 . S
C255 C254 1.386 . S
C255 C256 1.373 . S
C256 C255 1.373 . S
C256 C257 1.409 . S
C256 H278 0.931 . S
C257 C252 1.356 . S
C257 C256 1.409 . S
C257 H279 0.930 . S
C258 O268 1.270 . S
C258 O269 1.248 . S
C259 O270 1.267 . S
C259 O271 1.278 . S
O260 Pr240 2.562 . S
O260 C242 1.254 . S
O261 Pr240 2.490 . S
O261 C242 1.225 . S
O262 Pr240 2.695 . S
O262 Pr241 2.436 . S
O262 C249 1.270 . S
O263 Pr240 2.512 . S
O263 C249 1.248 . S
O264 Pr241 2.438 . S
O264 C250 1.267 . S
O265 Pr240 2.437 . S
O265 C250 1.278 . S
O266 Pr241 2.562 . S
O266 C251 1.254 . S
O267 Pr241 2.490 . S
O267 C251 1.225 . S
O268 Pr240 2.436 . S
O268 Pr241 2.695 . S
O268 C258 1.270 . S
O269 Pr241 2.512 . S
O269 C258 1.248 . S
O270 Pr240 2.438 . S
O270 C259 1.267 . S
O271 Pr241 2.437 . S
O271 C259 1.278 . S
H272 C244 0.929 . S
H273 C245 0.929 . S
H274 C247 0.931 . S
H275 C248 0.930 . S
H276 C253 0.929 . S
H277 C254 0.929 . S
H278 C256 0.931 . S
H279 C257 0.930 . S
Pr280 C282 2.880 . S
Pr280 O300 2.562 . S
Pr280 O301 2.490 . S
Pr280 O302 2.695 . S
Pr280 O303 2.512 . S
Pr280 O305 2.437 . S
Pr280 O308 2.436 . S
Pr280 O310 2.438 . S
Pr281 C291 2.880 . S
Pr281 O302 2.436 . S
Pr281 O304 2.438 . S
Pr281 O306 2.562 . S
Pr281 O307 2.490 . S
Pr281 O308 2.695 . S
Pr281 O309 2.512 . S
Pr281 O311 2.437 . S
C282 Pr280 2.880 . S
C282 C283 1.491 . S
C282 O300 1.254 . S
C282 O301 1.225 . S
C283 C282 1.491 . S
C283 C284 1.392 . S
C283 C288 1.356 . S
C284 C283 1.392 . S
C284 C285 1.368 . S
C284 H312 0.929 . S
C285 C284 1.368 . S
C285 C286 1.386 . S
C285 H313 0.929 . S
C286 C285 1.386 . S
C286 C287 1.373 . S
C287 C286 1.373 . S
C287 C288 1.409 . S
C287 H314 0.931 . S
C288 C283 1.356 . S
C288 C287 1.409 . S
C288 H315 0.930 . S
C289 O302 1.270 . S
C289 O303 1.248 . S
C290 O304 1.267 . S
C290 O305 1.278 . S
C291 Pr281 2.880 . S
C291 C292 1.491 . S
C291 O306 1.254 . S
C291 O307 1.225 . S
C292 C291 1.491 . S
C292 C293 1.392 . S
C292 C297 1.356 . S
C293 C292 1.392 . S
C293 C294 1.368 . S
C293 H316 0.929 . S
C294 C293 1.368 . S
C294 C295 1.386 . S
C294 H317 0.929 . S
C295 C294 1.386 . S
C295 C296 1.373 . S
C296 C295 1.373 . S
C296 C297 1.409 . S
C296 H318 0.931 . S
C297 C292 1.356 . S
C297 C296 1.409 . S
C297 H319 0.930 . S
C298 O308 1.270 . S
C298 O309 1.248 . S
C299 O310 1.267 . S
C299 O311 1.278 . S
O300 Pr280 2.562 . S
O300 C282 1.254 . S
O301 Pr280 2.490 . S
O301 C282 1.225 . S
O302 Pr280 2.695 . S
O302 Pr281 2.436 . S
O302 C289 1.270 . S
O303 Pr280 2.512 . S
O303 C289 1.248 . S
O304 Pr281 2.438 . S
O304 C290 1.267 . S
O305 Pr280 2.437 . S
O305 C290 1.278 . S
O306 Pr281 2.562 . S
O306 C291 1.254 . S
O307 Pr281 2.490 . S
O307 C291 1.225 . S
O308 Pr280 2.436 . S
O308 Pr281 2.695 . S
O308 C298 1.270 . S
O309 Pr281 2.512 . S
O309 C298 1.248 . S
O310 Pr280 2.438 . S
O310 C299 1.267 . S
O311 Pr281 2.437 . S
O311 C299 1.278 . S
H312 C284 0.929 . S
H313 C285 0.929 . S
H314 C287 0.931 . S
H315 C288 0.930 . S
H316 C293 0.929 . S
H317 C294 0.929 . S
H318 C296 0.931 . S
H319 C297 0.930 . S
Pr320 C322 2.880 1_554 S
Pr320 O340 2.562 . S
Pr320 O341 2.490 . S
Pr320 O342 2.695 . S
Pr320 O343 2.512 . S
Pr320 O345 2.437 . S
Pr320 O348 2.436 . S
Pr320 O350 2.438 . S
Pr321 C331 2.880 . S
Pr321 O342 2.436 . S
Pr321 O344 2.438 . S
Pr321 O346 2.562 . S
Pr321 O347 2.490 . S
Pr321 O348 2.695 . S
Pr321 O349 2.512 . S
Pr321 O351 2.437 . S
C322 Pr320 2.880 1_556 S
C322 C323 1.491 . S
C322 O340 1.254 1_556 S
C322 O341 1.225 1_556 S
C323 C322 1.491 . S
C323 C324 1.392 . S
C323 C328 1.356 . S
C324 C323 1.392 . S
C324 C325 1.368 . S
C324 H352 0.929 . S
C325 C324 1.368 . S
C325 C326 1.386 . S
C325 H353 0.929 . S
C326 C325 1.386 . S
C326 C327 1.373 . S
C327 C326 1.373 . S
C327 C328 1.409 . S
C327 H354 0.931 . S
C328 C323 1.356 . S
C328 C327 1.409 . S
C328 H355 0.930 . S
C329 O342 1.270 . S
C329 O343 1.248 . S
C330 O344 1.267 . S
C330 O345 1.278 . S
C331 Pr321 2.880 . S
C331 C332 1.491 . S
C331 O346 1.254 . S
C331 O347 1.225 . S
C332 C331 1.491 . S
C332 C333 1.392 . S
C332 C337 1.356 . S
C333 C332 1.392 . S
C333 C334 1.368 . S
C333 H356 0.929 . S
C334 C333 1.368 . S
C334 C335 1.386 . S
C334 H357 0.929 . S
C335 C334 1.386 . S
C335 C336 1.373 . S
C336 C335 1.373 . S
C336 C337 1.409 . S
C336 H358 0.931 . S
C337 C332 1.356 . S
C337 C336 1.409 . S
C337 H359 0.930 . S
C338 O348 1.270 . S
C338 O349 1.248 . S
C339 O350 1.267 . S
C339 O351 1.278 . S
O340 Pr320 2.562 . S
O340 C322 1.254 1_554 S
O341 Pr320 2.490 . S
O341 C322 1.225 1_554 S
O342 Pr320 2.695 . S
O342 Pr321 2.436 . S
O342 C329 1.270 . S
O343 Pr320 2.512 . S
O343 C329 1.248 . S
O344 Pr321 2.438 . S
O344 C330 1.267 . S
O345 Pr320 2.437 . S
O345 C330 1.278 . S
O346 Pr321 2.562 . S
O346 C331 1.254 . S
O347 Pr321 2.490 . S
O347 C331 1.225 . S
O348 Pr320 2.436 . S
O348 Pr321 2.695 . S
O348 C338 1.270 . S
O349 Pr321 2.512 . S
O349 C338 1.248 . S
O350 Pr320 2.438 . S
O350 C339 1.267 . S
O351 Pr321 2.437 . S
O351 C339 1.278 . S
H352 C324 0.929 . S
H353 C325 0.929 . S
H354 C327 0.931 . S
H355 C328 0.930 . S
H356 C333 0.929 . S
H357 C334 0.929 . S
H358 C336 0.931 . S
H359 C337 0.930 . S
Pr360 C362 2.880 . S
Pr360 O380 2.562 . S
Pr360 O381 2.490 . S
Pr360 O382 2.695 . S
Pr360 O383 2.512 . S
Pr360 O385 2.437 . S
Pr360 O388 2.436 . S
Pr360 O390 2.438 . S
Pr361 C371 2.880 . S
Pr361 O382 2.436 . S
Pr361 O384 2.438 . S
Pr361 O386 2.562 . S
Pr361 O387 2.490 . S
Pr361 O388 2.695 . S
Pr361 O389 2.512 . S
Pr361 O391 2.437 . S
C362 Pr360 2.880 . S
C362 C363 1.491 . S
C362 O380 1.254 . S
C362 O381 1.225 . S
C363 C362 1.491 . S
C363 C364 1.392 . S
C363 C368 1.356 . S
C364 C363 1.392 . S
C364 C365 1.368 . S
C364 H392 0.929 . S
C365 C364 1.368 . S
C365 C366 1.386 . S
C365 H393 0.929 . S
C366 C365 1.386 . S
C366 C367 1.373 . S
C367 C366 1.373 . S
C367 C368 1.409 . S
C367 H394 0.931 . S
C368 C363 1.356 . S
C368 C367 1.409 . S
C368 H395 0.930 . S
C369 O382 1.270 . S
C369 O383 1.248 . S
C370 O384 1.267 . S
C370 O385 1.278 . S
C371 Pr361 2.880 . S
C371 C372 1.491 . S
C371 O386 1.254 . S
C371 O387 1.225 . S
C372 C371 1.491 . S
C372 C373 1.392 . S
C372 C377 1.356 . S
C373 C372 1.392 . S
C373 C374 1.368 . S
C373 H396 0.929 . S
C374 C373 1.368 . S
C374 C375 1.386 . S
C374 H397 0.929 . S
C375 C374 1.386 . S
C375 C376 1.373 . S
C376 C375 1.373 . S
C376 C377 1.409 . S
C376 H398 0.931 . S
C377 C372 1.356 . S
C377 C376 1.409 . S
C377 H399 0.930 . S
C378 O388 1.270 . S
C378 O389 1.248 . S
C379 O390 1.267 . S
C379 O391 1.278 . S
O380 Pr360 2.562 . S
O380 C362 1.254 . S
O381 Pr360 2.490 . S
O381 C362 1.225 . S
O382 Pr360 2.695 . S
O382 Pr361 2.436 . S
O382 C369 1.270 . S
O383 Pr360 2.512 . S
O383 C369 1.248 . S
O384 Pr361 2.438 . S
O384 C370 1.267 . S
O385 Pr360 2.437 . S
O385 C370 1.278 . S
O386 Pr361 2.562 . S
O386 C371 1.254 . S
O387 Pr361 2.490 . S
O387 C371 1.225 . S
O388 Pr360 2.436 . S
O388 Pr361 2.695 . S
O388 C378 1.270 . S
O389 Pr361 2.512 . S
O389 C378 1.248 . S
O390 Pr360 2.438 . S
O390 C379 1.267 . S
O391 Pr361 2.437 . S
O391 C379 1.278 . S
H392 C364 0.929 . S
H393 C365 0.929 . S
H394 C367 0.931 . S
H395 C368 0.930 . S
H396 C373 0.929 . S
H397 C374 0.929 . S
H398 C376 0.931 . S
H399 C377 0.930 . S
Pr400 C402 2.880 . S
Pr400 O420 2.562 . S
Pr400 O421 2.490 . S
Pr400 O422 2.695 . S
Pr400 O423 2.512 . S
Pr400 O425 2.437 . S
Pr400 O428 2.436 . S
Pr400 O430 2.438 . S
Pr401 C411 2.880 . S
Pr401 O422 2.436 . S
Pr401 O424 2.438 . S
Pr401 O426 2.562 . S
Pr401 O427 2.490 . S
Pr401 O428 2.695 . S
Pr401 O429 2.512 . S
Pr401 O431 2.437 . S
C402 Pr400 2.880 . S
C402 C403 1.491 . S
C402 O420 1.254 . S
C402 O421 1.225 . S
C403 C402 1.491 . S
C403 C404 1.392 . S
C403 C408 1.356 . S
C404 C403 1.392 . S
C404 C405 1.368 . S
C404 H432 0.929 . S
C405 C404 1.368 . S
C405 C406 1.386 . S
C405 H433 0.929 . S
C406 C405 1.386 . S
C406 C407 1.373 . S
C407 C406 1.373 . S
C407 C408 1.409 . S
C407 H434 0.931 . S
C408 C403 1.356 . S
C408 C407 1.409 . S
C408 H435 0.930 . S
C409 O422 1.270 . S
C409 O423 1.248 . S
C410 O424 1.267 . S
C410 O425 1.278 . S
C411 Pr401 2.880 . S
C411 C412 1.491 . S
C411 O426 1.254 . S
C411 O427 1.225 . S
C412 C411 1.491 . S
C412 C413 1.392 . S
C412 C417 1.356 . S
C413 C412 1.392 . S
C413 C414 1.368 . S
C413 H436 0.929 . S
C414 C413 1.368 . S
C414 C415 1.386 . S
C414 H437 0.929 . S
C415 C414 1.386 . S
C415 C416 1.373 . S
C416 C415 1.373 . S
C416 C417 1.409 . S
C416 H438 0.931 . S
C417 C412 1.356 . S
C417 C416 1.409 . S
C417 H439 0.930 . S
C418 O428 1.270 . S
C418 O429 1.248 . S
C419 O430 1.267 . S
C419 O431 1.278 . S
O420 Pr400 2.562 . S
O420 C402 1.254 . S
O421 Pr400 2.490 . S
O421 C402 1.225 . S
O422 Pr400 2.695 . S
O422 Pr401 2.436 . S
O422 C409 1.270 . S
O423 Pr400 2.512 . S
O423 C409 1.248 . S
O424 Pr401 2.438 . S
O424 C410 1.267 . S
O425 Pr400 2.437 . S
O425 C410 1.278 . S
O426 Pr401 2.562 . S
O426 C411 1.254 . S
O427 Pr401 2.490 . S
O427 C411 1.225 . S
O428 Pr400 2.436 . S
O428 Pr401 2.695 . S
O428 C418 1.270 . S
O429 Pr401 2.512 . S
O429 C418 1.248 . S
O430 Pr400 2.438 . S
O430 C419 1.267 . S
O431 Pr401 2.437 . S
O431 C419 1.278 . S
H432 C404 0.929 . S
H433 C405 0.929 . S
H434 C407 0.931 . S
H435 C408 0.930 . S
H436 C413 0.929 . S
H437 C414 0.929 . S
H438 C416 0.931 . S
H439 C417 0.930 . S
Pr440 C442 2.880 1_554 S
Pr440 O460 2.562 . S
Pr440 O461 2.490 . S
Pr440 O462 2.695 . S
Pr440 O463 2.512 . S
Pr440 O465 2.437 . S
Pr440 O468 2.436 . S
Pr440 O470 2.438 . S
Pr441 C451 2.880 . S
Pr441 O462 2.436 . S
Pr441 O464 2.438 . S
Pr441 O466 2.562 . S
Pr441 O467 2.490 . S
Pr441 O468 2.695 . S
Pr441 O469 2.512 . S
Pr441 O471 2.437 . S
C442 Pr440 2.880 1_556 S
C442 C443 1.491 . S
C442 O460 1.254 1_556 S
C442 O461 1.225 1_556 S
C443 C442 1.491 . S
C443 C444 1.392 . S
C443 C448 1.356 . S
C444 C443 1.392 . S
C444 C445 1.368 . S
C444 H472 0.929 . S
C445 C444 1.368 . S
C445 C446 1.386 . S
C445 H473 0.929 . S
C446 C445 1.386 . S
C446 C447 1.373 . S
C447 C446 1.373 . S
C447 C448 1.409 . S
C447 H474 0.931 . S
C448 C443 1.356 . S
C448 C447 1.409 . S
C448 H475 0.930 . S
C449 O462 1.270 . S
C449 O463 1.248 . S
C450 O464 1.267 . S
C450 O465 1.278 . S
C451 Pr441 2.880 . S
C451 C452 1.491 . S
C451 O466 1.254 . S
C451 O467 1.225 . S
C452 C451 1.491 . S
C452 C453 1.392 . S
C452 C457 1.356 . S
C453 C452 1.392 . S
C453 C454 1.368 . S
C453 H476 0.929 . S
C454 C453 1.368 . S
C454 C455 1.386 . S
C454 H477 0.929 . S
C455 C454 1.386 . S
C455 C456 1.373 . S
C456 C455 1.373 . S
C456 C457 1.409 . S
C456 H478 0.931 . S
C457 C452 1.356 . S
C457 C456 1.409 . S
C457 H479 0.930 . S
C458 O468 1.270 . S
C458 O469 1.248 . S
C459 O470 1.267 . S
C459 O471 1.278 . S
O460 Pr440 2.562 . S
O460 C442 1.254 1_554 S
O461 Pr440 2.490 . S
O461 C442 1.225 1_554 S
O462 Pr440 2.695 . S
O462 Pr441 2.436 . S
O462 C449 1.270 . S
O463 Pr440 2.512 . S
O463 C449 1.248 . S
O464 Pr441 2.438 . S
O464 C450 1.267 . S
O465 Pr440 2.437 . S
O465 C450 1.278 . S
O466 Pr441 2.562 . S
O466 C451 1.254 . S
O467 Pr441 2.490 . S
O467 C451 1.225 . S
O468 Pr440 2.436 . S
O468 Pr441 2.695 . S
O468 C458 1.270 . S
O469 Pr441 2.512 . S
O469 C458 1.248 . S
O470 Pr440 2.438 . S
O470 C459 1.267 . S
O471 Pr441 2.437 . S
O471 C459 1.278 . S
H472 C444 0.929 . S
H473 C445 0.929 . S
H474 C447 0.931 . S
H475 C448 0.930 . S
H476 C453 0.929 . S
H477 C454 0.929 . S
H478 C456 0.931 . S
H479 C457 0.930 . S
C480 C481 1.391 . S
C480 C482 1.394 . S
C480 H496 0.931 . S
C481 C480 1.391 . S
C481 C485 1.376 . S
C482 C480 1.394 . S
C482 C483 1.369 . S
C482 C486 1.531 . S
C483 C482 1.369 . S
C483 C484 1.410 . S
C483 C491 1.503 . S
C484 C483 1.410 . S
C484 C485 1.392 . S
C484 C487 1.511 . S
C485 C481 1.376 . S
C485 C484 1.392 . S
C485 H497 0.929 . S
C486 C482 1.531 . S
C486 H498 0.960 . S
C486 H499 0.962 . S
C486 H500 0.960 . S
C487 C484 1.511 . S
C487 H501 0.961 . S
C487 H502 0.961 . S
C487 H503 0.961 . S
C488 C489 1.370 . S
C488 C490 1.363 . S
C488 H504 0.931 . S
C489 C488 1.370 . S
C489 C493 1.408 . S
C490 C488 1.363 . S
C490 C491 1.370 . S
C490 C494 1.524 . S
C491 C483 1.503 . S
C491 C490 1.370 . S
C491 C492 1.403 . S
C492 C491 1.403 . S
C492 C493 1.404 . S
C492 C495 1.539 . S
C493 C489 1.408 . S
C493 C492 1.404 . S
C493 H505 0.930 . S
C494 C490 1.524 . S
C494 H506 0.956 . S
C494 H507 0.961 . S
C494 H508 0.961 . S
C495 C492 1.539 . S
C495 H509 0.958 . S
C495 H510 0.961 . S
C495 H511 0.960 . S
H496 C480 0.931 . S
H497 C485 0.929 . S
H498 C486 0.960 . S
H499 C486 0.962 . S
H500 C486 0.960 . S
H501 C487 0.961 . S
H502 C487 0.961 . S
H503 C487 0.961 . S
H504 C488 0.931 . S
H505 C493 0.930 . S
H506 C494 0.956 . S
H507 C494 0.961 . S
H508 C494 0.961 . S
H509 C495 0.958 . S
H510 C495 0.961 . S
H511 C495 0.960 . S
C512 C513 1.391 . S
C512 C514 1.394 . S
C512 H528 0.931 . S
C513 C512 1.391 . S
C513 C517 1.376 . S
C514 C512 1.394 . S
C514 C515 1.369 . S
C514 C518 1.531 . S
C515 C514 1.369 . S
C515 C516 1.410 . S
C515 C523 1.503 . S
C516 C515 1.410 . S
C516 C517 1.392 . S
C516 C519 1.511 . S
C517 C513 1.376 . S
C517 C516 1.392 . S
C517 H529 0.929 . S
C518 C514 1.531 . S
C518 H530 0.960 . S
C518 H531 0.962 . S
C518 H532 0.960 . S
C519 C516 1.511 . S
C519 H533 0.961 . S
C519 H534 0.961 . S
C519 H535 0.961 . S
C520 C521 1.370 . S
C520 C522 1.363 . S
C520 H536 0.931 . S
C521 C520 1.370 . S
C521 C525 1.408 . S
C522 C520 1.363 . S
C522 C523 1.370 . S
C522 C526 1.524 . S
C523 C515 1.503 . S
C523 C522 1.370 . S
C523 C524 1.403 . S
C524 C523 1.403 . S
C524 C525 1.404 . S
C524 C527 1.539 . S
C525 C521 1.408 . S
C525 C524 1.404 . S
C525 H537 0.930 . S
C526 C522 1.524 . S
C526 H538 0.956 . S
C526 H539 0.961 . S
C526 H540 0.961 . S
C527 C524 1.539 . S
C527 H541 0.958 . S
C527 H542 0.961 . S
C527 H543 0.960 . S
H528 C512 0.931 . S
H529 C517 0.929 . S
H530 C518 0.960 . S
H531 C518 0.962 . S
H532 C518 0.960 . S
H533 C519 0.961 . S
H534 C519 0.961 . S
H535 C519 0.961 . S
H536 C520 0.931 . S
H537 C525 0.930 . S
H538 C526 0.956 . S
H539 C526 0.961 . S
H540 C526 0.961 . S
H541 C527 0.958 . S
H542 C527 0.961 . S
H543 C527 0.960 . S
C544 C545 1.391 . S
C544 C546 1.394 . S
C544 H560 0.931 . S
C545 C544 1.391 . S
C545 C549 1.376 . S
C546 C544 1.394 . S
C546 C547 1.369 . S
C546 C550 1.531 . S
C547 C546 1.369 . S
C547 C548 1.410 . S
C547 C555 1.503 . S
C548 C547 1.410 . S
C548 C549 1.392 . S
C548 C551 1.511 . S
C549 C545 1.376 . S
C549 C548 1.392 . S
C549 H561 0.929 . S
C550 C546 1.531 . S
C550 H562 0.960 . S
C550 H563 0.962 . S
C550 H564 0.960 . S
C551 C548 1.511 . S
C551 H565 0.961 . S
C551 H566 0.961 . S
C551 H567 0.961 . S
C552 C553 1.370 . S
C552 C554 1.363 . S
C552 H568 0.931 . S
C553 C552 1.370 . S
C553 C557 1.408 . S
C554 C552 1.363 . S
C554 C555 1.370 . S
C554 C558 1.524 . S
C555 C547 1.503 . S
C555 C554 1.370 . S
C555 C556 1.403 . S
C556 C555 1.403 . S
C556 C557 1.404 . S
C556 C559 1.539 . S
C557 C553 1.408 . S
C557 C556 1.404 . S
C557 H569 0.930 . S
C558 C554 1.524 . S
C558 H570 0.956 . S
C558 H571 0.961 . S
C558 H572 0.961 . S
C559 C556 1.539 . S
C559 H573 0.958 . S
C559 H574 0.961 . S
C559 H575 0.960 . S
H560 C544 0.931 . S
H561 C549 0.929 . S
H562 C550 0.960 . S
H563 C550 0.962 . S
H564 C550 0.960 . S
H565 C551 0.961 . S
H566 C551 0.961 . S
H567 C551 0.961 . S
H568 C552 0.931 . S
H569 C557 0.930 . S
H570 C558 0.956 . S
H571 C558 0.961 . S
H572 C558 0.961 . S
H573 C559 0.958 . S
H574 C559 0.961 . S
H575 C559 0.960 . S
C576 C577 1.391 . S
C576 C578 1.394 . S
C576 H592 0.931 . S
C577 C576 1.391 . S
C577 C581 1.376 . S
C578 C576 1.394 . S
C578 C579 1.369 . S
C578 C582 1.531 . S
C579 C578 1.369 . S
C579 C580 1.410 . S
C579 C587 1.503 . S
C580 C579 1.410 . S
C580 C581 1.392 . S
C580 C583 1.511 . S
C581 C577 1.376 . S
C581 C580 1.392 . S
C581 H593 0.929 . S
C582 C578 1.531 . S
C582 H594 0.960 . S
C582 H595 0.962 . S
C582 H596 0.960 . S
C583 C580 1.511 . S
C583 H597 0.961 . S
C583 H598 0.961 . S
C583 H599 0.961 . S
C584 C585 1.370 . S
C584 C586 1.363 . S
C584 H600 0.931 . S
C585 C584 1.370 . S
C585 C589 1.408 . S
C586 C584 1.363 . S
C586 C587 1.370 . S
C586 C590 1.524 . S
C587 C579 1.503 . S
C587 C586 1.370 . S
C587 C588 1.403 . S
C588 C587 1.403 . S
C588 C589 1.404 . S
C588 C591 1.539 . S
C589 C585 1.408 . S
C589 C588 1.404 . S
C589 H601 0.930 . S
C590 C586 1.524 . S
C590 H602 0.956 . S
C590 H603 0.961 . S
C590 H604 0.961 . S
C591 C588 1.539 . S
C591 H605 0.958 . S
C591 H606 0.961 . S
C591 H607 0.960 . S
H592 C576 0.931 . S
H593 C581 0.929 . S
H594 C582 0.960 . S
H595 C582 0.962 . S
H596 C582 0.960 . S
H597 C583 0.961 . S
H598 C583 0.961 . S
H599 C583 0.961 . S
H600 C584 0.931 . S
H601 C589 0.930 . S
H602 C590 0.956 . S
H603 C590 0.961 . S
H604 C590 0.961 . S
H605 C591 0.958 . S
H606 C591 0.961 . S
H607 C591 0.960 . S
C608 C609 1.391 . S
C608 C610 1.394 . S
C608 H624 0.931 . S
C609 C608 1.391 . S
C609 C613 1.376 . S
C610 C608 1.394 . S
C610 C611 1.369 . S
C610 C614 1.531 . S
C611 C610 1.369 . S
C611 C612 1.410 . S
C611 C619 1.503 . S
C612 C611 1.410 . S
C612 C613 1.392 . S
C612 C615 1.511 . S
C613 C609 1.376 . S
C613 C612 1.392 . S
C613 H625 0.929 . S
C614 C610 1.531 . S
C614 H626 0.960 . S
C614 H627 0.962 . S
C614 H628 0.960 . S
C615 C612 1.511 . S
C615 H629 0.961 . S
C615 H630 0.961 . S
C615 H631 0.961 . S
C616 C617 1.370 . S
C616 C618 1.363 . S
C616 H632 0.931 . S
C617 C616 1.370 . S
C617 C621 1.408 . S
C618 C616 1.363 . S
C618 C619 1.370 . S
C618 C622 1.524 . S
C619 C611 1.503 . S
C619 C618 1.370 . S
C619 C620 1.403 . S
C620 C619 1.403 . S
C620 C621 1.404 . S
C620 C623 1.539 . S
C621 C617 1.408 . S
C621 C620 1.404 . S
C621 H633 0.930 . S
C622 C618 1.524 . S
C622 H634 0.956 . S
C622 H635 0.961 . S
C622 H636 0.961 . S
C623 C620 1.539 . S
C623 H637 0.958 . S
C623 H638 0.961 . S
C623 H639 0.960 . S
H624 C608 0.931 . S
H625 C613 0.929 . S
H626 C614 0.960 . S
H627 C614 0.962 . S
H628 C614 0.960 . S
H629 C615 0.961 . S
H630 C615 0.961 . S
H631 C615 0.961 . S
H632 C616 0.931 . S
H633 C621 0.930 . S
H634 C622 0.956 . S
H635 C622 0.961 . S
H636 C622 0.961 . S
H637 C623 0.958 . S
H638 C623 0.961 . S
H639 C623 0.960 . S
C640 C641 1.391 . S
C640 C642 1.394 . S
C640 H656 0.931 . S
C641 C640 1.391 . S
C641 C645 1.376 . S
C642 C640 1.394 . S
C642 C643 1.369 . S
C642 C646 1.531 . S
C643 C642 1.369 . S
C643 C644 1.410 . S
C643 C651 1.503 . S
C644 C643 1.410 . S
C644 C645 1.392 . S
C644 C647 1.511 . S
C645 C641 1.376 . S
C645 C644 1.392 . S
C645 H657 0.929 . S
C646 C642 1.531 . S
C646 H658 0.960 . S
C646 H659 0.962 . S
C646 H660 0.960 . S
C647 C644 1.511 . S
C647 H661 0.961 . S
C647 H662 0.961 . S
C647 H663 0.961 . S
C648 C649 1.370 . S
C648 C650 1.363 . S
C648 H664 0.931 . S
C649 C648 1.370 . S
C649 C653 1.408 . S
C650 C648 1.363 . S
C650 C651 1.370 . S
C650 C654 1.524 . S
C651 C643 1.503 . S
C651 C650 1.370 . S
C651 C652 1.403 . S
C652 C651 1.403 . S
C652 C653 1.404 . S
C652 C655 1.539 . S
C653 C649 1.408 . S
C653 C652 1.404 . S
C653 H665 0.930 . S
C654 C650 1.524 . S
C654 H666 0.956 . S
C654 H667 0.961 . S
C654 H668 0.961 . S
C655 C652 1.539 . S
C655 H669 0.958 . S
C655 H670 0.961 . S
C655 H671 0.960 . S
H656 C640 0.931 . S
H657 C645 0.929 . S
H658 C646 0.960 . S
H659 C646 0.962 . S
H660 C646 0.960 . S
H661 C647 0.961 . S
H662 C647 0.961 . S
H663 C647 0.961 . S
H664 C648 0.931 . S
H665 C653 0.930 . S
H666 C654 0.956 . S
H667 C654 0.961 . S
H668 C654 0.961 . S
H669 C655 0.958 . S
H670 C655 0.961 . S
H671 C655 0.960 . S
C672 C673 1.391 . S
C672 C674 1.394 . S
C672 H688 0.931 . S
C673 C672 1.391 . S
C673 C677 1.376 . S
C674 C672 1.394 . S
C674 C675 1.369 . S
C674 C678 1.531 . S
C675 C674 1.369 . S
C675 C676 1.410 . S
C675 C683 1.503 1_556 S
C676 C675 1.410 . S
C676 C677 1.392 . S
C676 C679 1.511 1_556 S
C677 C673 1.376 . S
C677 C676 1.392 . S
C677 H689 0.929 . S
C678 C674 1.531 . S
C678 H690 0.960 . S
C678 H691 0.962 . S
C678 H692 0.960 . S
C679 C676 1.511 1_554 S
C679 H693 0.961 . S
C679 H694 0.961 . S
C679 H695 0.961 . S
C680 C681 1.370 . S
C680 C682 1.363 . S
C680 H696 0.931 . S
C681 C680 1.370 . S
C681 C685 1.408 . S
C682 C680 1.363 . S
C682 C683 1.370 . S
C682 C686 1.524 1_554 S
C683 C675 1.503 1_554 S
C683 C682 1.370 . S
C683 C684 1.403 . S
C684 C683 1.403 . S
C684 C685 1.404 . S
C684 C687 1.539 . S
C685 C681 1.408 . S
C685 C684 1.404 . S
C685 H697 0.930 . S
C686 C682 1.524 1_556 S
C686 H698 0.956 . S
C686 H699 0.961 . S
C686 H700 0.961 . S
C687 C684 1.539 . S
C687 H701 0.958 . S
C687 H702 0.961 . S
C687 H703 0.960 . S
H688 C672 0.931 . S
H689 C677 0.929 . S
H690 C678 0.960 . S
H691 C678 0.962 . S
H692 C678 0.960 . S
H693 C679 0.961 . S
H694 C679 0.961 . S
H695 C679 0.961 . S
H696 C680 0.931 . S
H697 C685 0.930 . S
H698 C686 0.956 . S
H699 C686 0.961 . S
H700 C686 0.961 . S
H701 C687 0.958 . S
H702 C687 0.961 . S
H703 C687 0.960 . S
C704 C705 1.391 . S
C704 C706 1.394 . S
C704 H720 0.931 . S
C705 C704 1.391 . S
C705 C709 1.376 . S
C706 C704 1.394 . S
C706 C707 1.369 . S
C706 C710 1.531 . S
C707 C706 1.369 . S
C707 C708 1.410 . S
C707 C715 1.503 . S
C708 C707 1.410 . S
C708 C709 1.392 . S
C708 C711 1.511 . S
C709 C705 1.376 . S
C709 C708 1.392 . S
C709 H721 0.929 . S
C710 C706 1.531 . S
C710 H722 0.960 . S
C710 H723 0.962 . S
C710 H724 0.960 . S
C711 C708 1.511 . S
C711 H725 0.961 . S
C711 H726 0.961 . S
C711 H727 0.961 . S
C712 C713 1.370 . S
C712 C714 1.363 . S
C712 H728 0.931 . S
C713 C712 1.370 . S
C713 C717 1.408 . S
C714 C712 1.363 . S
C714 C715 1.370 . S
C714 C718 1.524 . S
C715 C707 1.503 . S
C715 C714 1.370 . S
C715 C716 1.403 . S
C716 C715 1.403 . S
C716 C717 1.404 . S
C716 C719 1.539 . S
C717 C713 1.408 . S
C717 C716 1.404 . S
C717 H729 0.930 . S
C718 C714 1.524 . S
C718 H730 0.956 . S
C718 H731 0.961 . S
C718 H732 0.961 . S
C719 C716 1.539 . S
C719 H733 0.958 . S
C719 H734 0.961 . S
C719 H735 0.960 . S
H720 C704 0.931 . S
H721 C709 0.929 . S
H722 C710 0.960 . S
H723 C710 0.962 . S
H724 C710 0.960 . S
H725 C711 0.961 . S
H726 C711 0.961 . S
H727 C711 0.961 . S
H728 C712 0.931 . S
H729 C717 0.930 . S
H730 C718 0.956 . S
H731 C718 0.961 . S
H732 C718 0.961 . S
H733 C719 0.958 . S
H734 C719 0.961 . S
H735 C719 0.960 . S
C736 C737 1.391 . S
C736 C738 1.394 . S
C736 H752 0.931 . S
C737 C736 1.391 . S
C737 C741 1.376 . S
C738 C736 1.394 . S
C738 C739 1.369 . S
C738 C742 1.531 . S
C739 C738 1.369 . S
C739 C740 1.410 . S
C739 C747 1.503 . S
C740 C739 1.410 . S
C740 C741 1.392 . S
C740 C743 1.511 . S
C741 C737 1.376 . S
C741 C740 1.392 . S
C741 H753 0.929 . S
C742 C738 1.531 . S
C742 H754 0.960 . S
C742 H755 0.962 . S
C742 H756 0.960 . S
C743 C740 1.511 . S
C743 H757 0.961 . S
C743 H758 0.961 . S
C743 H759 0.961 . S
C744 C745 1.370 . S
C744 C746 1.363 . S
C744 H760 0.931 . S
C745 C744 1.370 . S
C745 C749 1.408 . S
C746 C744 1.363 . S
C746 C747 1.370 . S
C746 C750 1.524 . S
C747 C739 1.503 . S
C747 C746 1.370 . S
C747 C748 1.403 . S
C748 C747 1.403 . S
C748 C749 1.404 . S
C748 C751 1.539 . S
C749 C745 1.408 . S
C749 C748 1.404 . S
C749 H761 0.930 . S
C750 C746 1.524 . S
C750 H762 0.956 . S
C750 H763 0.961 . S
C750 H764 0.961 . S
C751 C748 1.539 . S
C751 H765 0.958 . S
C751 H766 0.961 . S
C751 H767 0.960 . S
H752 C736 0.931 . S
H753 C741 0.929 . S
H754 C742 0.960 . S
H755 C742 0.962 . S
H756 C742 0.960 . S
H757 C743 0.961 . S
H758 C743 0.961 . S
H759 C743 0.961 . S
H760 C744 0.931 . S
H761 C749 0.930 . S
H762 C750 0.956 . S
H763 C750 0.961 . S
H764 C750 0.961 . S
H765 C751 0.958 . S
H766 C751 0.961 . S
H767 C751 0.960 . S
C768 C769 1.391 . S
C768 C770 1.394 . S
C768 H784 0.931 . S
C769 C768 1.391 . S
C769 C773 1.376 . S
C770 C768 1.394 . S
C770 C771 1.369 . S
C770 C774 1.531 1_556 S
C771 C770 1.369 . S
C771 C772 1.410 . S
C771 C779 1.503 1_556 S
C772 C771 1.410 . S
C772 C773 1.392 . S
C772 C775 1.511 . S
C773 C769 1.376 . S
C773 C772 1.392 . S
C773 H785 0.929 . S
C774 C770 1.531 1_554 S
C774 H786 0.960 . S
C774 H787 0.962 . S
C774 H788 0.960 . S
C775 C772 1.511 . S
C775 H789 0.961 . S
C775 H790 0.961 . S
C775 H791 0.961 . S
C776 C777 1.370 . S
C776 C778 1.363 . S
C776 H792 0.931 . S
C777 C776 1.370 . S
C777 C781 1.408 . S
C778 C776 1.363 . S
C778 C779 1.370 . S
C778 C782 1.524 . S
C779 C771 1.503 1_554 S
C779 C778 1.370 . S
C779 C780 1.403 . S
C780 C779 1.403 . S
C780 C781 1.404 . S
C780 C783 1.539 1_554 S
C781 C777 1.408 . S
C781 C780 1.404 . S
C781 H793 0.930 . S
C782 C778 1.524 . S
C782 H794 0.956 . S
C782 H795 0.944 1_554 S
C782 H796 0.961 . S
C783 C780 1.539 1_556 S
C783 H797 0.958 1_556 S
C783 H798 0.961 . S
C783 H799 0.960 . S
H784 C768 0.931 . S
H785 C773 0.929 . S
H786 C774 0.960 . S
H787 C774 0.962 . S
H788 C774 0.960 . S
H789 C775 0.961 . S
H790 C775 0.961 . S
H791 C775 0.961 . S
H792 C776 0.931 . S
H793 C781 0.930 . S
H794 C782 0.956 . S
H795 C782 0.944 1_556 S
H796 C782 0.961 . S
H797 C783 0.958 1_554 S
H798 C783 0.961 . S
H799 C783 0.960 . S
C800 C801 1.391 . S
C800 C802 1.394 . S
C800 H816 0.931 . S
C801 C800 1.391 . S
C801 C805 1.376 . S
C802 C800 1.394 . S
C802 C803 1.369 . S
C802 C806 1.531 . S
C803 C802 1.369 . S
C803 C804 1.410 . S
C803 C811 1.503 . S
C804 C803 1.410 . S
C804 C805 1.392 . S
C804 C807 1.511 . S
C805 C801 1.376 . S
C805 C804 1.392 . S
C805 H817 0.929 . S
C806 C802 1.531 . S
C806 H818 0.960 . S
C806 H819 0.962 . S
C806 H820 0.960 . S
C807 C804 1.511 . S
C807 H821 0.961 . S
C807 H822 0.961 . S
C807 H823 0.961 . S
C808 C809 1.370 . S
C808 C810 1.363 . S
C808 H824 0.931 . S
C809 C808 1.370 . S
C809 C813 1.408 . S
C810 C808 1.363 . S
C810 C811 1.370 . S
C810 C814 1.524 . S
C811 C803 1.503 . S
C811 C810 1.370 . S
C811 C812 1.403 . S
C812 C811 1.403 . S
C812 C813 1.404 . S
C812 C815 1.539 . S
C813 C809 1.408 . S
C813 C812 1.404 . S
C813 H825 0.930 . S
C814 C810 1.524 . S
C814 H826 0.956 . S
C814 H827 0.961 . S
C814 H828 0.961 . S
C815 C812 1.539 . S
C815 H829 0.958 . S
C815 H830 0.961 . S
C815 H831 0.960 . S
H816 C800 0.931 . S
H817 C805 0.929 . S
H818 C806 0.960 . S
H819 C806 0.962 . S
H820 C806 0.960 . S
H821 C807 0.961 . S
H822 C807 0.961 . S
H823 C807 0.961 . S
H824 C808 0.931 . S
H825 C813 0.930 . S
H826 C814 0.956 . S
H827 C814 0.961 . S
H828 C814 0.961 . S
H829 C815 0.958 . S
H830 C815 0.961 . S
H831 C815 0.960 . S
C832 C833 1.391 . S
C832 C834 1.394 . S
C832 H848 0.931 . S
C833 C832 1.391 . S
C833 C837 1.376 . S
C834 C832 1.394 . S
C834 C835 1.369 . S
C834 C838 1.531 . S
C835 C834 1.369 . S
C835 C836 1.410 . S
C835 C843 1.503 . S
C836 C835 1.410 . S
C836 C837 1.392 . S
C836 C839 1.511 . S
C837 C833 1.376 . S
C837 C836 1.392 . S
C837 H849 0.929 . S
C838 C834 1.531 . S
C838 H850 0.960 . S
C838 H851 0.962 . S
C838 H852 0.960 . S
C839 C836 1.511 . S
C839 H853 0.961 . S
C839 H854 0.961 . S
C839 H855 0.961 . S
C840 C841 1.370 . S
C840 C842 1.363 . S
C840 H856 0.931 . S
C841 C840 1.370 . S
C841 C845 1.408 . S
C842 C840 1.363 . S
C842 C843 1.370 . S
C842 C846 1.524 . S
C843 C835 1.503 . S
C843 C842 1.370 . S
C843 C844 1.403 . S
C844 C843 1.403 . S
C844 C845 1.404 . S
C844 C847 1.539 . S
C845 C841 1.408 . S
C845 C844 1.404 . S
C845 H857 0.930 . S
C846 C842 1.524 . S
C846 H858 0.956 . S
C846 H859 0.961 . S
C846 H860 0.961 . S
C847 C844 1.539 . S
C847 H861 0.958 . S
C847 H862 0.961 . S
C847 H863 0.960 . S
H848 C832 0.931 . S
H849 C837 0.929 . S
H850 C838 0.960 . S
H851 C838 0.962 . S
H852 C838 0.960 . S
H853 C839 0.961 . S
H854 C839 0.961 . S
H855 C839 0.961 . S
H856 C840 0.931 . S
H857 C845 0.930 . S
H858 C846 0.956 . S
H859 C846 0.961 . S
H860 C846 0.961 . S
H861 C847 0.958 . S
H862 C847 0.961 . S
H863 C847 0.960 . S
C864 C865 1.391 . S
C864 C866 1.394 1_565 S
C864 H880 0.931 1_565 S
C865 C864 1.391 . S
C865 C869 1.376 . S
C866 C864 1.394 1_545 S
C866 C867 1.369 1_545 S
C866 C870 1.531 . S
C867 C866 1.369 1_565 S
C867 C868 1.410 . S
C867 C875 1.503 1_566 S
C868 C867 1.410 . S
C868 C869 1.392 . S
C868 C871 1.511 1_556 S
C869 C865 1.376 . S
C869 C868 1.392 . S
C869 H881 0.929 . S
C870 C866 1.531 . S
C870 H882 0.960 . S
C870 H883 0.962 . S
C870 H884 0.960 . S
C871 C868 1.511 1_554 S
C871 H885 0.961 . S
C871 H886 0.961 . S
C871 H887 0.961 . S
C872 C873 1.370 . S
C872 C874 1.363 . S
C872 H888 0.931 . S
C873 C872 1.370 . S
C873 C877 1.408 . S
C874 C872 1.363 . S
C874 C875 1.370 . S
C874 C878 1.524 1_545 S
C875 C867 1.503 1_544 S
C875 C874 1.370 . S
C875 C876 1.403 . S
C876 C875 1.403 . S
C876 C877 1.404 . S
C876 C879 1.539 . S
C877 C873 1.408 . S
C877 C876 1.404 . S
C877 H889 0.930 . S
C878 C874 1.524 1_565 S
C878 H890 0.956 . S
C878 H891 0.961 . S
C878 H892 0.961 . S
C879 C876 1.539 . S
C879 H893 0.958 1_554 S
C879 H894 0.961 . S
C879 H895 0.960 1_554 S
H880 C864 0.931 1_545 S
H881 C869 0.929 . S
H882 C870 0.960 . S
H883 C870 0.962 . S
H884 C870 0.960 . S
H885 C871 0.961 . S
H886 C871 0.961 . S
H887 C871 0.961 . S
H888 C872 0.931 . S
H889 C877 0.930 . S
H890 C878 0.956 . S
H891 C878 0.961 . S
H892 C878 0.961 . S
H893 C879 0.958 1_556 S
H894 C879 0.961 . S
H895 C879 0.960 1_556 S
C896 C897 1.391 . S
C896 C898 1.394 . S
C896 H912 0.931 . S
C897 C896 1.391 . S
C897 C901 1.376 . S
C898 C896 1.394 . S
C898 C899 1.369 . S
C898 C902 1.531 . S
C899 C898 1.369 . S
C899 C900 1.410 . S
C899 C907 1.503 . S
C900 C899 1.410 . S
C900 C901 1.392 . S
C900 C903 1.511 . S
C901 C897 1.376 . S
C901 C900 1.392 . S
C901 H913 0.929 . S
C902 C898 1.531 . S
C902 H914 0.960 . S
C902 H915 0.962 . S
C902 H916 0.960 . S
C903 C900 1.511 . S
C903 H917 0.961 . S
C903 H918 0.961 . S
C903 H919 0.961 . S
C904 C905 1.370 . S
C904 C906 1.363 . S
C904 H920 0.931 . S
C905 C904 1.370 . S
C905 C909 1.408 . S
C906 C904 1.363 . S
C906 C907 1.370 . S
C906 C910 1.524 . S
C907 C899 1.503 . S
C907 C906 1.370 . S
C907 C908 1.403 . S
C908 C907 1.403 . S
C908 C909 1.404 . S
C908 C911 1.539 . S
C909 C905 1.408 . S
C909 C908 1.404 . S
C909 H921 0.930 . S
C910 C906 1.524 . S
C910 H922 0.956 . S
C910 H923 0.961 . S
C910 H924 0.961 . S
C911 C908 1.539 . S
C911 H925 0.958 . S
C911 H926 0.961 . S
C911 H927 0.960 . S
H912 C896 0.931 . S
H913 C901 0.929 . S
H914 C902 0.960 . S
H915 C902 0.962 . S
H916 C902 0.960 . S
H917 C903 0.961 . S
H918 C903 0.961 . S
H919 C903 0.961 . S
H920 C904 0.931 . S
H921 C909 0.930 . S
H922 C910 0.956 . S
H923 C910 0.961 . S
H924 C910 0.961 . S
H925 C911 0.958 . S
H926 C911 0.961 . S
H927 C911 0.960 . S
C928 C929 1.391 . S
C928 C930 1.394 1_455 S
C928 H944 0.931 1_455 S
C929 C928 1.391 . S
C929 C933 1.376 . S
C930 C928 1.394 1_655 S
C930 C931 1.369 1_655 S
C930 C934 1.531 . S
C931 C930 1.369 1_455 S
C931 C932 1.410 . S
C931 C939 1.503 1_455 S
C932 C931 1.410 . S
C932 C933 1.392 . S
C932 C935 1.511 . S
C933 C929 1.376 . S
C933 C932 1.392 . S
C933 H945 0.929 . S
C934 C930 1.531 . S
C934 H946 0.960 . S
C934 H947 0.962 . S
C934 H948 0.960 . S
C935 C932 1.511 . S
C935 H949 0.961 . S
C935 H950 0.961 . S
C935 H951 0.961 . S
C936 C937 1.370 . S
C936 C938 1.363 . S
C936 H952 0.931 . S
C937 C936 1.370 . S
C937 C941 1.408 . S
C938 C936 1.363 . S
C938 C939 1.370 . S
C938 C942 1.524 . S
C939 C931 1.503 1_655 S
C939 C938 1.370 . S
C939 C940 1.403 . S
C940 C939 1.403 . S
C940 C941 1.404 . S
C940 C943 1.538 . S
C941 C937 1.408 . S
C941 C940 1.404 . S
C941 H953 0.930 . S
C942 C938 1.524 . S
C942 H954 0.956 . S
C942 H955 0.961 1_655 S
C942 H956 0.961 . S
C943 C940 1.538 . S
C943 H957 0.958 . S
C943 H958 0.962 1_655 S
C943 H959 0.961 1_655 S
H944 C928 0.931 1_655 S
H945 C933 0.929 . S
H946 C934 0.960 . S
H947 C934 0.962 . S
H948 C934 0.960 . S
H949 C935 0.961 . S
H950 C935 0.961 . S
H951 C935 0.961 . S
H952 C936 0.931 . S
H953 C941 0.930 . S
H954 C942 0.956 . S
H955 C942 0.961 1_455 S
H956 C942 0.961 . S
H957 C943 0.958 . S
H958 C943 0.962 1_455 S
H959 C943 0.961 1_455 S
C960 C961 1.391 . S
C960 C962 1.394 . S
C960 H976 0.931 . S
C961 C960 1.391 . S
C961 C965 1.376 . S
C962 C960 1.394 . S
C962 C963 1.369 . S
C962 C966 1.531 1_554 S
C963 C962 1.369 . S
C963 C964 1.410 . S
C963 C971 1.503 1_564 S
C964 C963 1.410 . S
C964 C965 1.392 . S
C964 C967 1.511 1_565 S
C965 C961 1.376 . S
C965 C964 1.392 . S
C965 H977 0.929 . S
C966 C962 1.531 1_556 S
C966 H978 0.960 . S
C966 H979 0.962 . S
C966 H980 0.960 . S
C967 C964 1.511 1_545 S
C967 H981 0.961 . S
C967 H982 0.961 . S
C967 H983 0.961 . S
C968 C969 1.370 . S
C968 C970 1.363 . S
C968 H984 0.931 . S
C969 C968 1.370 . S
C969 C973 1.408 . S
C970 C968 1.363 . S
C970 C971 1.370 . S
C970 C974 1.524 1_556 S
C971 C963 1.503 1_546 S
C971 C970 1.370 . S
C971 C972 1.403 1_545 S
C972 C971 1.403 1_565 S
C972 C973 1.404 1_565 S
C972 C975 1.539 . S
C973 C969 1.408 . S
C973 C972 1.404 1_545 S
C973 H985 0.930 . S
C974 C970 1.524 1_554 S
C974 H986 0.956 . S
C974 H987 0.961 . S
C974 H988 0.957 1_554 S
C975 C972 1.539 . S
C975 H989 0.958 . S
C975 H990 0.961 . S
C975 H991 0.960 . S
H976 C960 0.931 . S
H977 C965 0.929 . S
H978 C966 0.960 . S
H979 C966 0.962 . S
H980 C966 0.960 . S
H981 C967 0.961 . S
H982 C967 0.961 . S
H983 C967 0.961 . S
H984 C968 0.931 . S
H985 C973 0.930 . S
H986 C974 0.956 . S
H987 C974 0.961 . S
H988 C974 0.957 1_556 S
H989 C975 0.958 . S
H990 C975 0.961 . S
H991 C975 0.960 . S
C992 C993 1.391 . S
C992 C994 1.394 . S
C992 H1008 0.931 . S
C993 C992 1.391 . S
C993 C997 1.376 . S
C994 C992 1.394 . S
C994 C995 1.369 . S
C994 C998 1.531 . S
C995 C994 1.369 . S
C995 C996 1.410 . S
C995 C1003 1.503 . S
C996 C995 1.410 . S
C996 C997 1.392 . S
C996 C999 1.511 . S
C997 C993 1.376 . S
C997 C996 1.392 . S
C997 H1009 0.929 . S
C998 C994 1.531 . S
C998 H1010 0.960 . S
C998 H1011 0.962 . S
C998 H1012 0.960 . S
C999 C996 1.511 . S
C999 H1013 0.961 . S
C999 H1014 0.961 . S
C999 H1015 0.961 . S
C1000 C1001 1.370 . S
C1000 C1002 1.363 . S
C1000 H1016 0.931 . S
C1001 C1000 1.370 . S
C1001 C1005 1.408 . S
C1002 C1000 1.363 . S
C1002 C1003 1.370 . S
C1002 C1006 1.524 . S
C1003 C995 1.503 . S
C1003 C1002 1.370 . S
C1003 C1004 1.403 . S
C1004 C1003 1.403 . S
C1004 C1005 1.404 . S
C1004 C1007 1.539 . S
C1005 C1001 1.408 . S
C1005 C1004 1.404 . S
C1005 H1017 0.930 . S
C1006 C1002 1.524 . S
C1006 H1018 0.956 . S
C1006 H1019 0.961 . S
C1006 H1020 0.961 . S
C1007 C1004 1.539 . S
C1007 H1021 0.958 . S
C1007 H1022 0.961 . S
C1007 H1023 0.960 . S
H1008 C992 0.931 . S
H1009 C997 0.929 . S
H1010 C998 0.960 . S
H1011 C998 0.962 . S
H1012 C998 0.960 . S
H1013 C999 0.961 . S
H1014 C999 0.961 . S
H1015 C999 0.961 . S
H1016 C1000 0.931 . S
H1017 C1005 0.930 . S
H1018 C1006 0.956 . S
H1019 C1006 0.961 . S
H1020 C1006 0.961 . S
H1021 C1007 0.958 . S
H1022 C1007 0.961 . S
H1023 C1007 0.960 . S
C1024 C1025 1.391 . S
C1024 C1026 1.394 . S
C1024 H1040 0.931 . S
C1025 C1024 1.391 . S
C1025 C1029 1.376 . S
C1026 C1024 1.394 . S
C1026 C1027 1.369 . S
C1026 C1030 1.531 1_455 S
C1027 C1026 1.369 . S
C1027 C1028 1.410 . S
C1027 C1035 1.503 1_455 S
C1028 C1027 1.410 . S
C1028 C1029 1.392 . S
C1028 C1031 1.511 . S
C1029 C1025 1.376 . S
C1029 C1028 1.392 . S
C1029 H1041 0.929 . S
C1030 C1026 1.531 1_655 S
C1030 H1042 0.960 . S
C1030 H1043 0.962 . S
C1030 H1044 0.960 . S
C1031 C1028 1.511 . S
C1031 H1045 0.961 . S
C1031 H1046 0.961 . S
C1031 H1047 0.961 . S
C1032 C1033 1.370 . S
C1032 C1034 1.363 . S
C1032 H1048 0.931 . S
C1033 C1032 1.370 . S
C1033 C1037 1.408 . S
C1034 C1032 1.363 . S
C1034 C1035 1.370 . S
C1034 C1038 1.524 . S
C1035 C1027 1.503 1_655 S
C1035 C1034 1.370 . S
C1035 C1036 1.403 1_655 S
C1036 C1035 1.403 1_455 S
C1036 C1037 1.404 1_455 S
C1036 C1039 1.539 . S
C1037 C1033 1.408 . S
C1037 C1036 1.404 1_655 S
C1037 H1049 0.930 . S
C1038 C1034 1.524 . S
C1038 H1050 0.956 . S
C1038 H1051 0.961 . S
C1038 H1052 0.961 . S
C1039 C1036 1.539 . S
C1039 H1053 0.958 . S
C1039 H1054 0.961 . S
C1039 H1055 0.960 . S
H1040 C1024 0.931 . S
H1041 C1029 0.929 . S
H1042 C1030 0.960 . S
H1043 C1030 0.962 . S
H1044 C1030 0.960 . S
H1045 C1031 0.961 . S
H1046 C1031 0.961 . S
H1047 C1031 0.961 . S
H1048 C1032 0.931 . S
H1049 C1037 0.930 . S
H1050 C1038 0.956 . S
H1051 C1038 0.961 . S
H1052 C1038 0.961 . S
H1053 C1039 0.958 . S
H1054 C1039 0.961 . S
H1055 C1039 0.960 . S
C1056 C1057 1.391 . S
C1056 C1058 1.394 . S
C1056 H1072 0.931 . S
C1057 C1056 1.391 . S
C1057 C1061 1.376 . S
C1058 C1056 1.394 . S
C1058 C1059 1.369 . S
C1058 C1062 1.531 . S
C1059 C1058 1.369 . S
C1059 C1060 1.412 1_545 S
C1059 C1067 1.503 1_545 S
C1060 C1059 1.412 1_565 S
C1060 C1061 1.378 1_565 S
C1060 C1063 1.522 . S
C1061 C1057 1.376 . S
C1061 C1060 1.378 1_545 S
C1061 H1073 0.929 . S
C1062 C1058 1.531 . S
C1062 H1074 0.960 . S
C1062 H1075 0.962 . S
C1062 H1076 0.960 . S
C1063 C1060 1.522 . S
C1063 H1077 0.961 . S
C1063 H1078 0.961 . S
C1063 H1079 0.961 . S
C1064 C1065 1.370 . S
C1064 C1066 1.363 . S
C1064 H1080 0.931 . S
C1065 C1064 1.370 . S
C1065 C1069 1.408 . S
C1066 C1064 1.363 . S
C1066 C1067 1.370 . S
C1066 C1070 1.524 1_565 S
C1067 C1059 1.503 1_565 S
C1067 C1066 1.370 . S
C1067 C1068 1.403 . S
C1068 C1067 1.403 . S
C1068 C1069 1.404 . S
C1068 C1071 1.539 . S
C1069 C1065 1.408 . S
C1069 C1068 1.404 . S
C1069 H1081 0.930 . S
C1070 C1066 1.524 1_545 S
C1070 H1082 0.956 . S
C1070 H1083 0.961 . S
C1070 H1084 0.961 . S
C1071 C1068 1.539 . S
C1071 H1085 0.958 . S
C1071 H1086 0.961 . S
C1071 H1087 0.960 . S
H1072 C1056 0.931 . S
H1073 C1061 0.929 . S
H1074 C1062 0.960 . S
H1075 C1062 0.962 . S
H1076 C1062 0.960 . S
H1077 C1063 0.961 . S
H1078 C1063 0.961 . S
H1079 C1063 0.961 . S
H1080 C1064 0.931 . S
H1081 C1069 0.930 . S
H1082 C1070 0.956 . S
H1083 C1070 0.961 . S
H1084 C1070 0.961 . S
H1085 C1071 0.958 . S
H1086 C1071 0.961 . S
H1087 C1071 0.960 . S
C1088 C1089 1.391 . S
C1088 C1090 1.394 . S
C1088 H1104 0.931 . S
C1089 C1088 1.391 . S
C1089 C1093 1.376 . S
C1090 C1088 1.394 . S
C1090 C1091 1.369 . S
C1090 C1094 1.531 . S
C1091 C1090 1.369 . S
C1091 C1092 1.410 . S
C1091 C1099 1.503 . S
C1092 C1091 1.410 . S
C1092 C1093 1.392 . S
C1092 C1095 1.511 . S
C1093 C1089 1.376 . S
C1093 C1092 1.392 . S
C1093 H1105 0.929 . S
C1094 C1090 1.531 . S
C1094 H1106 0.960 . S
C1094 H1107 0.962 . S
C1094 H1108 0.960 . S
C1095 C1092 1.511 . S
C1095 H1109 0.961 . S
C1095 H1110 0.961 . S
C1095 H1111 0.961 . S
C1096 C1097 1.370 . S
C1096 C1098 1.363 . S
C1096 H1112 0.931 . S
C1097 C1096 1.370 . S
C1097 C1101 1.408 . S
C1098 C1096 1.363 . S
C1098 C1099 1.370 . S
C1098 C1102 1.524 . S
C1099 C1091 1.503 . S
C1099 C1098 1.370 . S
C1099 C1100 1.403 . S
C1100 C1099 1.403 . S
C1100 C1101 1.404 . S
C1100 C1103 1.539 . S
C1101 C1097 1.408 . S
C1101 C1100 1.404 . S
C1101 H1113 0.930 . S
C1102 C1098 1.524 . S
C1102 H1114 0.956 . S
C1102 H1115 0.961 . S
C1102 H1116 0.961 . S
C1103 C1100 1.539 . S
C1103 H1117 0.958 . S
C1103 H1118 0.961 . S
C1103 H1119 0.960 . S
H1104 C1088 0.931 . S
H1105 C1093 0.929 . S
H1106 C1094 0.960 . S
H1107 C1094 0.962 . S
H1108 C1094 0.960 . S
H1109 C1095 0.961 . S
H1110 C1095 0.961 . S
H1111 C1095 0.961 . S
H1112 C1096 0.931 . S
H1113 C1101 0.930 . S
H1114 C1102 0.956 . S
H1115 C1102 0.961 . S
H1116 C1102 0.961 . S
H1117 C1103 0.958 . S
H1118 C1103 0.961 . S
H1119 C1103 0.960 . S
C1120 C1121 1.391 . S
C1120 C1122 1.394 . S
C1120 H1136 0.931 . S
C1121 C1120 1.391 . S
C1121 C1125 1.376 . S
C1122 C1120 1.394 . S
C1122 C1123 1.369 . S
C1122 C1126 1.531 . S
C1123 C1122 1.369 . S
C1123 C1124 1.410 . S
C1123 C1131 1.503 1_655 S
C1124 C1123 1.410 . S
C1124 C1125 1.392 . S
C1124 C1127 1.511 1_655 S
C1125 C1121 1.376 . S
C1125 C1124 1.392 . S
C1125 H1137 0.929 . S
C1126 C1122 1.531 . S
C1126 H1138 0.960 . S
C1126 H1139 0.962 . S
C1126 H1140 0.960 1_556 S
C1127 C1124 1.511 1_455 S
C1127 H1141 0.961 . S
C1127 H1142 0.961 . S
C1127 H1143 0.961 . S
C1128 C1129 1.370 . S
C1128 C1130 1.363 . S
C1128 H1144 0.931 . S
C1129 C1128 1.370 . S
C1129 C1133 1.408 . S
C1130 C1128 1.363 . S
C1130 C1131 1.370 . S
C1130 C1134 1.524 1_455 S
C1131 C1123 1.503 1_455 S
C1131 C1130 1.370 . S
C1131 C1132 1.403 . S
C1132 C1131 1.403 . S
C1132 C1133 1.404 . S
C1132 C1135 1.539 . S
C1133 C1129 1.408 . S
C1133 C1132 1.404 . S
C1133 H1145 0.930 . S
C1134 C1130 1.524 1_655 S
C1134 H1146 0.956 . S
C1134 H1147 0.961 . S
C1134 H1148 0.961 . S
C1135 C1132 1.539 . S
C1135 H1149 0.958 . S
C1135 H1150 0.961 . S
C1135 H1151 0.960 . S
H1136 C1120 0.931 . S
H1137 C1125 0.929 . S
H1138 C1126 0.960 . S
H1139 C1126 0.962 . S
H1140 C1126 0.960 1_554 S
H1141 C1127 0.961 . S
H1142 C1127 0.961 . S
H1143 C1127 0.961 . S
H1144 C1128 0.931 . S
H1145 C1133 0.930 . S
H1146 C1134 0.956 . S
H1147 C1134 0.961 . S
H1148 C1134 0.961 . S
H1149 C1135 0.958 . S
H1150 C1135 0.961 . S
H1151 C1135 0.960 . S
C1152 C1153 1.391 . S
C1152 C1154 1.394 . S
C1152 H1168 0.931 . S
C1153 C1152 1.391 . S
C1153 C1157 1.376 . S
C1154 C1152 1.394 . S
C1154 C1155 1.369 . S
C1154 C1158 1.531 . S
C1155 C1154 1.369 . S
C1155 C1156 1.403 . S
C1155 C1163 1.503 1_455 S
C1156 C1155 1.403 . S
C1156 C1157 1.424 . S
C1156 C1159 1.488 1_455 S
C1157 C1153 1.376 . S
C1157 C1156 1.424 . S
C1157 H1169 0.929 . S
C1158 C1154 1.531 . S
C1158 H1170 0.960 . S
C1158 H1171 0.962 . S
C1158 H1172 0.960 . S
C1159 C1156 1.488 1_655 S
C1159 H1173 0.961 . S
C1159 H1174 0.961 . S
C1159 H1175 0.961 . S
C1160 C1161 1.370 . S
C1160 C1162 1.363 . S
C1160 H1176 0.931 . S
C1161 C1160 1.370 . S
C1161 C1165 1.408 . S
C1162 C1160 1.363 . S
C1162 C1163 1.370 . S
C1162 C1166 1.524 1_655 S
C1163 C1155 1.503 1_655 S
C1163 C1162 1.370 . S
C1163 C1164 1.403 . S
C1164 C1163 1.403 . S
C1164 C1165 1.404 . S
C1164 C1167 1.539 . S
C1165 C1161 1.408 . S
C1165 C1164 1.404 . S
C1165 H1177 0.930 . S
C1166 C1162 1.524 1_455 S
C1166 H1178 0.956 . S
C1166 H1179 0.961 . S
C1166 H1180 0.961 . S
C1167 C1164 1.539 . S
C1167 H1181 0.958 . S
C1167 H1182 0.961 . S
C1167 H1183 0.960 . S
H1168 C1152 0.931 . S
H1169 C1157 0.929 . S
H1170 C1158 0.960 . S
H1171 C1158 0.962 . S
H1172 C1158 0.960 . S
H1173 C1159 0.961 . S
H1174 C1159 0.961 . S
H1175 C1159 0.961 . S
H1176 C1160 0.931 . S
H1177 C1165 0.930 . S
H1178 C1166 0.956 . S
H1179 C1166 0.961 . S
H1180 C1166 0.961 . S
H1181 C1167 0.958 . S
H1182 C1167 0.961 . S
H1183 C1167 0.960 . S
C1184 C1185 1.391 . S
C1184 C1186 1.394 . S
C1184 H1200 0.931 . S
C1185 C1184 1.391 . S
C1185 C1189 1.376 . S
C1186 C1184 1.394 . S
C1186 C1187 1.369 . S
C1186 C1190 1.531 . S
C1187 C1186 1.369 . S
C1187 C1188 1.419 . S
C1187 C1195 1.503 1_565 S
C1188 C1187 1.419 . S
C1188 C1189 1.396 . S
C1188 C1191 1.498 1_565 S
C1189 C1185 1.376 . S
C1189 C1188 1.396 . S
C1189 H1201 0.929 . S
C1190 C1186 1.531 . S
C1190 H1202 0.960 . S
C1190 H1203 0.962 . S
C1190 H1204 0.960 . S
C1191 C1188 1.498 1_545 S
C1191 H1205 0.961 . S
C1191 H1206 0.961 . S
C1191 H1207 0.961 . S
C1192 C1193 1.370 . S
C1192 C1194 1.363 . S
C1192 H1208 0.931 . S
C1193 C1192 1.370 . S
C1193 C1197 1.408 . S
C1194 C1192 1.363 . S
C1194 C1195 1.370 . S
C1194 C1198 1.524 1_545 S
C1195 C1187 1.503 1_545 S
C1195 C1194 1.370 . S
C1195 C1196 1.403 . S
C1196 C1195 1.403 . S
C1196 C1197 1.404 . S
C1196 C1199 1.539 . S
C1197 C1193 1.408 . S
C1197 C1196 1.404 . S
C1197 H1209 0.930 . S
C1198 C1194 1.524 1_565 S
C1198 H1210 0.956 . S
C1198 H1211 0.961 . S
C1198 H1212 0.961 . S
C1199 C1196 1.539 . S
C1199 H1213 0.958 . S
C1199 H1214 0.961 . S
C1199 H1215 0.960 . S
H1200 C1184 0.931 . S
H1201 C1189 0.929 . S
H1202 C1190 0.960 . S
H1203 C1190 0.962 . S
H1204 C1190 0.960 . S
H1205 C1191 0.961 . S
H1206 C1191 0.961 . S
H1207 C1191 0.961 . S
H1208 C1192 0.931 . S
H1209 C1197 0.930 . S
H1210 C1198 0.956 . S
H1211 C1198 0.961 . S
H1212 C1198 0.961 . S
H1213 C1199 0.958 . S
H1214 C1199 0.961 . S
H1215 C1199 0.960 . S
C1216 C1217 1.391 . S
C1216 C1218 1.394 . S
C1216 H1232 0.931 . S
C1217 C1216 1.391 . S
C1217 C1221 1.376 . S
C1218 C1216 1.394 . S
C1218 C1219 1.369 . S
C1218 C1222 1.531 . S
C1219 C1218 1.369 . S
C1219 C1220 1.410 . S
C1219 C1227 1.503 . S
C1220 C1219 1.410 . S
C1220 C1221 1.392 . S
C1220 C1223 1.511 . S
C1221 C1217 1.376 . S
C1221 C1220 1.392 . S
C1221 H1233 0.929 . S
C1222 C1218 1.531 . S
C1222 H1234 0.960 . S
C1222 H1235 0.962 . S
C1222 H1236 0.960 . S
C1223 C1220 1.511 . S
C1223 H1237 0.961 . S
C1223 H1238 0.961 . S
C1223 H1239 0.961 . S
C1224 C1225 1.370 . S
C1224 C1226 1.363 . S
C1224 H1240 0.931 . S
C1225 C1224 1.370 . S
C1225 C1229 1.408 . S
C1226 C1224 1.363 . S
C1226 C1227 1.370 . S
C1226 C1230 1.524 . S
C1227 C1219 1.503 . S
C1227 C1226 1.370 . S
C1227 C1228 1.403 . S
C1228 C1227 1.403 . S
C1228 C1229 1.404 . S
C1228 C1231 1.539 . S
C1229 C1225 1.408 . S
C1229 C1228 1.404 . S
C1229 H1241 0.930 . S
C1230 C1226 1.524 . S
C1230 H1242 0.956 . S
C1230 H1243 0.961 . S
C1230 H1244 0.961 . S
C1231 C1228 1.539 . S
C1231 H1245 0.958 . S
C1231 H1246 0.961 . S
C1231 H1247 0.960 . S
H1232 C1216 0.931 . S
H1233 C1221 0.929 . S
H1234 C1222 0.960 . S
H1235 C1222 0.962 . S
H1236 C1222 0.960 . S
H1237 C1223 0.961 . S
H1238 C1223 0.961 . S
H1239 C1223 0.961 . S
H1240 C1224 0.931 . S
H1241 C1229 0.930 . S
H1242 C1230 0.956 . S
H1243 C1230 0.961 . S
H1244 C1230 0.961 . S
H1245 C1231 0.958 . S
H1246 C1231 0.961 . S
H1247 C1231 0.960 . S
C1248 C1249 1.391 . S
C1248 C1250 1.394 . S
C1248 H1264 0.931 . S
C1249 C1248 1.391 . S
C1249 C1253 1.376 . S
C1250 C1248 1.394 . S
C1250 C1251 1.369 . S
C1250 C1254 1.531 . S
C1251 C1250 1.369 . S
C1251 C1252 1.410 . S
C1251 C1259 1.503 1_565 S
C1252 C1251 1.410 . S
C1252 C1253 1.392 . S
C1252 C1255 1.511 1_565 S
C1253 C1249 1.376 . S
C1253 C1252 1.392 . S
C1253 H1265 0.929 . S
C1254 C1250 1.531 . S
C1254 H1266 0.960 . S
C1254 H1267 0.962 . S
C1254 H1268 0.960 . S
C1255 C1252 1.511 1_545 S
C1255 H1269 0.961 1_545 S
C1255 H1270 0.961 . S
C1255 H1271 0.961 . S
C1256 C1257 1.370 . S
C1256 C1258 1.363 . S
C1256 H1272 0.931 . S
C1257 C1256 1.370 . S
C1257 C1261 1.408 . S
C1258 C1256 1.363 . S
C1258 C1259 1.370 . S
C1258 C1262 1.524 1_545 S
C1259 C1251 1.503 1_545 S
C1259 C1258 1.370 . S
C1259 C1260 1.403 . S
C1260 C1259 1.403 . S
C1260 C1261 1.404 . S
C1260 C1263 1.539 . S
C1261 C1257 1.408 . S
C1261 C1260 1.404 . S
C1261 H1273 0.930 . S
C1262 C1258 1.524 1_565 S
C1262 H1274 0.956 . S
C1262 H1275 0.961 . S
C1262 H1276 0.961 . S
C1263 C1260 1.539 . S
C1263 H1277 0.958 . S
C1263 H1278 0.961 . S
C1263 H1279 0.960 . S
H1264 C1248 0.931 . S
H1265 C1253 0.929 . S
H1266 C1254 0.960 . S
H1267 C1254 0.962 . S
H1268 C1254 0.960 . S
H1269 C1255 0.961 1_565 S
H1270 C1255 0.961 . S
H1271 C1255 0.961 . S
H1272 C1256 0.931 . S
H1273 C1261 0.930 . S
H1274 C1262 0.956 . S
H1275 C1262 0.961 . S
H1276 C1262 0.961 . S
H1277 C1263 0.958 . S
H1278 C1263 0.961 . S
H1279 C1263 0.960 . S
C1280 C1281 1.391 . S
C1280 C1282 1.394 . S
C1280 H1296 0.931 . S
C1281 C1280 1.391 . S
C1281 C1285 1.376 . S
C1282 C1280 1.394 . S
C1282 C1283 1.369 . S
C1282 C1286 1.531 . S
C1283 C1282 1.369 . S
C1283 C1284 1.410 . S
C1283 C1291 1.503 . S
C1284 C1283 1.410 . S
C1284 C1285 1.392 . S
C1284 C1287 1.511 . S
C1285 C1281 1.376 . S
C1285 C1284 1.392 . S
C1285 H1297 0.929 . S
C1286 C1282 1.531 . S
C1286 H1298 0.960 . S
C1286 H1299 0.962 . S
C1286 H1300 0.960 . S
C1287 C1284 1.511 . S
C1287 H1301 0.961 . S
C1287 H1302 0.961 . S
C1287 H1303 0.961 . S
C1288 C1289 1.370 . S
C1288 C1290 1.363 . S
C1288 H1304 0.931 . S
C1289 C1288 1.370 . S
C1289 C1293 1.408 . S
C1290 C1288 1.363 . S
C1290 C1291 1.370 . S
C1290 C1294 1.524 . S
C1291 C1283 1.503 . S
C1291 C1290 1.370 . S
C1291 C1292 1.403 . S
C1292 C1291 1.403 . S
C1292 C1293 1.404 . S
C1292 C1295 1.539 . S
C1293 C1289 1.408 . S
C1293 C1292 1.404 . S
C1293 H1305 0.930 . S
C1294 C1290 1.524 . S
C1294 H1306 0.956 . S
C1294 H1307 0.961 . S
C1294 H1308 0.961 . S
C1295 C1292 1.539 . S
C1295 H1309 0.958 . S
C1295 H1310 0.961 . S
C1295 H1311 0.960 . S
H1296 C1280 0.931 . S
H1297 C1285 0.929 . S
H1298 C1286 0.960 . S
H1299 C1286 0.962 . S
H1300 C1286 0.960 . S
H1301 C1287 0.961 . S
H1302 C1287 0.961 . S
H1303 C1287 0.961 . S
H1304 C1288 0.931 . S
H1305 C1293 0.930 . S
H1306 C1294 0.956 . S
H1307 C1294 0.961 . S
H1308 C1294 0.961 . S
H1309 C1295 0.958 . S
H1310 C1295 0.961 . S
H1311 C1295 0.960 . S
C1312 C1313 1.391 . S
C1312 C1314 1.394 . S
C1312 H1328 0.931 . S
C1313 C1312 1.391 . S
C1313 C1317 1.376 . S
C1314 C1312 1.394 . S
C1314 C1315 1.369 . S
C1314 C1318 1.531 . S
C1315 C1314 1.369 . S
C1315 C1316 1.410 . S
C1315 C1323 1.503 1_655 S
C1316 C1315 1.410 . S
C1316 C1317 1.392 . S
C1316 C1319 1.511 1_655 S
C1317 C1313 1.376 . S
C1317 C1316 1.392 . S
C1317 H1329 0.929 . S
C1318 C1314 1.531 . S
C1318 H1330 0.960 . S
C1318 H1331 0.962 . S
C1318 H1332 0.960 . S
C1319 C1316 1.511 1_455 S
C1319 H1333 0.961 . S
C1319 H1334 0.961 . S
C1319 H1335 0.961 . S
C1320 C1321 1.370 . S
C1320 C1322 1.363 . S
C1320 H1336 0.931 . S
C1321 C1320 1.370 . S
C1321 C1325 1.408 . S
C1322 C1320 1.363 . S
C1322 C1323 1.370 . S
C1322 C1326 1.524 . S
C1323 C1315 1.503 1_455 S
C1323 C1322 1.370 . S
C1323 C1324 1.403 . S
C1324 C1323 1.403 . S
C1324 C1325 1.404 . S
C1324 C1327 1.539 . S
C1325 C1321 1.408 . S
C1325 C1324 1.404 . S
C1325 H1337 0.930 . S
C1326 C1322 1.524 . S
C1326 H1338 0.956 1_455 S
C1326 H1339 0.961 . S
C1326 H1340 0.961 . S
C1327 C1324 1.539 . S
C1327 H1341 0.958 . S
C1327 H1342 0.961 . S
C1327 H1343 0.960 . S
H1328 C1312 0.931 . S
H1329 C1317 0.929 . S
H1330 C1318 0.960 . S
H1331 C1318 0.962 . S
H1332 C1318 0.960 . S
H1333 C1319 0.961 . S
H1334 C1319 0.961 . S
H1335 C1319 0.961 . S
H1336 C1320 0.931 . S
H1337 C1325 0.930 . S
H1338 C1326 0.956 1_655 S
H1339 C1326 0.961 . S
H1340 C1326 0.961 . S
H1341 C1327 0.958 . S
H1342 C1327 0.961 . S
H1343 C1327 0.960 . S
C1344 C1345 1.391 . S
C1344 C1346 1.394 . S
C1344 H1360 0.931 . S
C1345 C1344 1.391 . S
C1345 C1349 1.376 . S
C1346 C1344 1.394 . S
C1346 C1347 1.369 . S
C1346 C1350 1.531 . S
C1347 C1346 1.369 . S
C1347 C1348 1.410 . S
C1347 C1355 1.503 1_545 S
C1348 C1347 1.410 . S
C1348 C1349 1.392 . S
C1348 C1351 1.511 . S
C1349 C1345 1.376 . S
C1349 C1348 1.392 . S
C1349 H1361 0.929 . S
C1350 C1346 1.531 . S
C1350 H1362 0.960 . S
C1350 H1363 0.962 . S
C1350 H1364 0.960 . S
C1351 C1348 1.511 . S
C1351 H1365 0.961 . S
C1351 H1366 0.961 1_545 S
C1351 H1367 0.961 . S
C1352 C1353 1.370 . S
C1352 C1354 1.363 . S
C1352 H1368 0.931 . S
C1353 C1352 1.370 . S
C1353 C1357 1.408 . S
C1354 C1352 1.363 . S
C1354 C1355 1.370 . S
C1354 C1358 1.524 . S
C1355 C1347 1.503 1_565 S
C1355 C1354 1.370 . S
C1355 C1356 1.403 . S
C1356 C1355 1.403 . S
C1356 C1357 1.404 . S
C1356 C1359 1.539 1_565 S
C1357 C1353 1.408 . S
C1357 C1356 1.404 . S
C1357 H1369 0.930 . S
C1358 C1354 1.524 . S
C1358 H1370 0.956 . S
C1358 H1371 0.961 . S
C1358 H1372 0.961 . S
C1359 C1356 1.539 1_545 S
C1359 H1373 0.958 . S
C1359 H1374 0.961 . S
C1359 H1375 0.960 . S
H1360 C1344 0.931 . S
H1361 C1349 0.929 . S
H1362 C1350 0.960 . S
H1363 C1350 0.962 . S
H1364 C1350 0.960 . S
H1365 C1351 0.961 . S
H1366 C1351 0.961 1_565 S
H1367 C1351 0.961 . S
H1368 C1352 0.931 . S
H1369 C1357 0.930 . S
H1370 C1358 0.956 . S
H1371 C1358 0.961 . S
H1372 C1358 0.961 . S
H1373 C1359 0.958 . S
H1374 C1359 0.961 . S
H1375 C1359 0.960 . S
C1376 C1377 1.391 . S
C1376 C1378 1.394 . S
C1376 H1392 0.931 . S
C1377 C1376 1.391 . S
C1377 C1381 1.376 . S
C1378 C1376 1.394 . S
C1378 C1379 1.369 . S
C1378 C1382 1.531 . S
C1379 C1378 1.369 . S
C1379 C1380 1.410 . S
C1379 C1387 1.503 . S
C1380 C1379 1.410 . S
C1380 C1381 1.392 . S
C1380 C1383 1.511 . S
C1381 C1377 1.376 . S
C1381 C1380 1.392 . S
C1381 H1393 0.929 . S
C1382 C1378 1.531 . S
C1382 H1394 0.960 . S
C1382 H1395 0.962 . S
C1382 H1396 0.960 . S
C1383 C1380 1.511 . S
C1383 H1397 0.961 . S
C1383 H1398 0.961 . S
C1383 H1399 0.961 . S
C1384 C1385 1.370 . S
C1384 C1386 1.363 . S
C1384 H1400 0.931 . S
C1385 C1384 1.370 . S
C1385 C1389 1.408 . S
C1386 C1384 1.363 . S
C1386 C1387 1.370 . S
C1386 C1390 1.524 . S
C1387 C1379 1.503 . S
C1387 C1386 1.370 . S
C1387 C1388 1.403 . S
C1388 C1387 1.403 . S
C1388 C1389 1.404 . S
C1388 C1391 1.539 . S
C1389 C1385 1.408 . S
C1389 C1388 1.404 . S
C1389 H1401 0.930 . S
C1390 C1386 1.524 . S
C1390 H1402 0.956 . S
C1390 H1403 0.961 . S
C1390 H1404 0.961 . S
C1391 C1388 1.539 . S
C1391 H1405 0.958 . S
C1391 H1406 0.961 . S
C1391 H1407 0.960 . S
H1392 C1376 0.931 . S
H1393 C1381 0.929 . S
H1394 C1382 0.960 . S
H1395 C1382 0.962 . S
H1396 C1382 0.960 . S
H1397 C1383 0.961 . S
H1398 C1383 0.961 . S
H1399 C1383 0.961 . S
H1400 C1384 0.931 . S
H1401 C1389 0.930 . S
H1402 C1390 0.956 . S
H1403 C1390 0.961 . S
H1404 C1390 0.961 . S
H1405 C1391 0.958 . S
H1406 C1391 0.961 . S
H1407 C1391 0.960 . S
C1408 C1409 1.391 . S
C1408 C1410 1.394 . S
C1408 H1424 0.931 . S
C1409 C1408 1.391 . S
C1409 C1413 1.376 . S
C1410 C1408 1.394 . S
C1410 C1411 1.369 . S
C1410 C1414 1.531 . S
C1411 C1410 1.369 . S
C1411 C1412 1.410 . S
C1411 C1419 1.503 1_455 S
C1412 C1411 1.410 . S
C1412 C1413 1.392 . S
C1412 C1415 1.511 1_455 S
C1413 C1409 1.376 . S
C1413 C1412 1.392 . S
C1413 H1425 0.929 . S
C1414 C1410 1.531 . S
C1414 H1426 0.960 . S
C1414 H1427 0.962 . S
C1414 H1428 0.960 . S
C1415 C1412 1.511 1_655 S
C1415 H1429 0.961 . S
C1415 H1430 0.961 . S
C1415 H1431 0.961 . S
C1416 C1417 1.370 . S
C1416 C1418 1.363 . S
C1416 H1432 0.931 . S
C1417 C1416 1.370 . S
C1417 C1421 1.408 . S
C1418 C1416 1.363 . S
C1418 C1419 1.370 . S
C1418 C1422 1.524 1_655 S
C1419 C1411 1.503 1_655 S
C1419 C1418 1.370 . S
C1419 C1420 1.403 . S
C1420 C1419 1.403 . S
C1420 C1421 1.404 . S
C1420 C1423 1.539 . S
C1421 C1417 1.408 . S
C1421 C1420 1.404 . S
C1421 H1433 0.930 . S
C1422 C1418 1.524 1_455 S
C1422 H1434 0.956 . S
C1422 H1435 0.961 . S
C1422 H1436 0.959 . S
C1423 C1420 1.539 . S
C1423 H1437 0.958 . S
C1423 H1438 0.961 . S
C1423 H1439 0.960 . S
H1424 C1408 0.931 . S
H1425 C1413 0.929 . S
H1426 C1414 0.960 . S
H1427 C1414 0.962 . S
H1428 C1414 0.960 . S
H1429 C1415 0.961 . S
H1430 C1415 0.961 . S
H1431 C1415 0.961 . S
H1432 C1416 0.931 . S
H1433 C1421 0.930 . S
H1434 C1422 0.956 . S
H1435 C1422 0.961 . S
H1436 C1422 0.959 . S
H1437 C1423 0.958 . S
H1438 C1423 0.961 . S
H1439 C1423 0.960 . S
C1440 C1441 1.391 . S
C1440 C1442 1.394 . S
C1440 H1456 0.931 . S
C1441 C1440 1.391 . S
C1441 C1445 1.376 . S
C1442 C1440 1.394 . S
C1442 C1443 1.369 . S
C1442 C1446 1.531 . S
C1443 C1442 1.369 . S
C1443 C1444 1.410 . S
C1443 C1451 1.503 . S
C1444 C1443 1.410 . S
C1444 C1445 1.392 . S
C1444 C1447 1.511 . S
C1445 C1441 1.376 . S
C1445 C1444 1.392 . S
C1445 H1457 0.929 . S
C1446 C1442 1.531 . S
C1446 H1458 0.960 . S
C1446 H1459 0.962 . S
C1446 H1460 0.960 . S
C1447 C1444 1.511 . S
C1447 H1461 0.961 . S
C1447 H1462 0.961 . S
C1447 H1463 0.961 . S
C1448 C1449 1.370 . S
C1448 C1450 1.363 . S
C1448 H1464 0.931 . S
C1449 C1448 1.370 . S
C1449 C1453 1.408 . S
C1450 C1448 1.363 . S
C1450 C1451 1.370 . S
C1450 C1454 1.524 . S
C1451 C1443 1.503 . S
C1451 C1450 1.370 . S
C1451 C1452 1.403 . S
C1452 C1451 1.403 . S
C1452 C1453 1.404 . S
C1452 C1455 1.539 . S
C1453 C1449 1.408 . S
C1453 C1452 1.404 . S
C1453 H1465 0.930 . S
C1454 C1450 1.524 . S
C1454 H1466 0.956 . S
C1454 H1467 0.961 . S
C1454 H1468 0.961 . S
C1455 C1452 1.539 . S
C1455 H1469 0.958 . S
C1455 H1470 0.961 . S
C1455 H1471 0.960 . S
H1456 C1440 0.931 . S
H1457 C1445 0.929 . S
H1458 C1446 0.960 . S
H1459 C1446 0.962 . S
H1460 C1446 0.960 . S
H1461 C1447 0.961 . S
H1462 C1447 0.961 . S
H1463 C1447 0.961 . S
H1464 C1448 0.931 . S
H1465 C1453 0.930 . S
H1466 C1454 0.956 . S
H1467 C1454 0.961 . S
H1468 C1454 0.961 . S
H1469 C1455 0.958 . S
H1470 C1455 0.961 . S
H1471 C1455 0.960 . S
C1472 C1473 1.391 . S
C1472 C1474 1.394 . S
C1472 H1488 0.931 . S
C1473 C1472 1.391 . S
C1473 C1477 1.376 . S
C1474 C1472 1.394 . S
C1474 C1475 1.369 . S
C1474 C1478 1.531 . S
C1475 C1474 1.369 . S
C1475 C1476 1.410 . S
C1475 C1483 1.503 . S
C1476 C1475 1.410 . S
C1476 C1477 1.392 . S
C1476 C1479 1.511 . S
C1477 C1473 1.376 . S
C1477 C1476 1.392 . S
C1477 H1489 0.929 . S
C1478 C1474 1.531 . S
C1478 H1490 0.960 . S
C1478 H1491 0.962 . S
C1478 H1492 0.960 . S
C1479 C1476 1.511 . S
C1479 H1493 0.961 . S
C1479 H1494 0.961 . S
C1479 H1495 0.961 . S
C1480 C1481 1.370 . S
C1480 C1482 1.363 . S
C1480 H1496 0.931 . S
C1481 C1480 1.370 . S
C1481 C1485 1.408 . S
C1482 C1480 1.363 . S
C1482 C1483 1.370 . S
C1482 C1486 1.524 . S
C1483 C1475 1.503 . S
C1483 C1482 1.370 . S
C1483 C1484 1.403 . S
C1484 C1483 1.403 . S
C1484 C1485 1.404 . S
C1484 C1487 1.539 . S
C1485 C1481 1.408 . S
C1485 C1484 1.404 . S
C1485 H1497 0.930 . S
C1486 C1482 1.524 . S
C1486 H1498 0.956 . S
C1486 H1499 0.961 . S
C1486 H1500 0.961 . S
C1487 C1484 1.539 . S
C1487 H1501 0.958 . S
C1487 H1502 0.961 . S
C1487 H1503 0.960 . S
H1488 C1472 0.931 . S
H1489 C1477 0.929 . S
H1490 C1478 0.960 . S
H1491 C1478 0.962 . S
H1492 C1478 0.960 . S
H1493 C1479 0.961 . S
H1494 C1479 0.961 . S
H1495 C1479 0.961 . S
H1496 C1480 0.931 . S
H1497 C1485 0.930 . S
H1498 C1486 0.956 . S
H1499 C1486 0.961 . S
H1500 C1486 0.961 . S
H1501 C1487 0.958 . S
H1502 C1487 0.961 . S
H1503 C1487 0.960 . S
C1504 C1505 1.391 . S
C1504 C1506 1.394 . S
C1504 H1520 0.931 . S
C1505 C1504 1.391 . S
C1505 C1509 1.376 . S
C1506 C1504 1.394 . S
C1506 C1507 1.369 . S
C1506 C1510 1.531 . S
C1507 C1506 1.369 . S
C1507 C1508 1.410 . S
C1507 C1515 1.503 . S
C1508 C1507 1.410 . S
C1508 C1509 1.392 . S
C1508 C1511 1.511 . S
C1509 C1505 1.376 . S
C1509 C1508 1.392 . S
C1509 H1521 0.929 . S
C1510 C1506 1.531 . S
C1510 H1522 0.960 . S
C1510 H1523 0.962 . S
C1510 H1524 0.960 . S
C1511 C1508 1.511 . S
C1511 H1525 0.961 . S
C1511 H1526 0.961 . S
C1511 H1527 0.961 . S
C1512 C1513 1.370 . S
C1512 C1514 1.363 . S
C1512 H1528 0.931 . S
C1513 C1512 1.370 . S
C1513 C1517 1.408 . S
C1514 C1512 1.363 . S
C1514 C1515 1.370 . S
C1514 C1518 1.524 . S
C1515 C1507 1.503 . S
C1515 C1514 1.370 . S
C1515 C1516 1.403 . S
C1516 C1515 1.403 . S
C1516 C1517 1.404 . S
C1516 C1519 1.539 . S
C1517 C1513 1.408 . S
C1517 C1516 1.404 . S
C1517 H1529 0.930 . S
C1518 C1514 1.524 . S
C1518 H1530 0.956 . S
C1518 H1531 0.961 . S
C1518 H1532 0.961 . S
C1519 C1516 1.539 . S
C1519 H1533 0.958 . S
C1519 H1534 0.961 . S
C1519 H1535 0.960 . S
H1520 C1504 0.931 . S
H1521 C1509 0.929 . S
H1522 C1510 0.960 . S
H1523 C1510 0.962 . S
H1524 C1510 0.960 . S
H1525 C1511 0.961 . S
H1526 C1511 0.961 . S
H1527 C1511 0.961 . S
H1528 C1512 0.931 . S
H1529 C1517 0.930 . S
H1530 C1518 0.956 . S
H1531 C1518 0.961 . S
H1532 C1518 0.961 . S
H1533 C1519 0.958 . S
H1534 C1519 0.961 . S
H1535 C1519 0.960 . S
C1536 C1537 1.391 . S
C1536 C1538 1.394 . S
C1536 H1552 0.931 . S
C1537 C1536 1.391 . S
C1537 C1541 1.376 . S
C1538 C1536 1.394 . S
C1538 C1539 1.369 . S
C1538 C1542 1.531 . S
C1539 C1538 1.369 . S
C1539 C1540 1.410 . S
C1539 C1547 1.503 . S
C1540 C1539 1.410 . S
C1540 C1541 1.392 . S
C1540 C1543 1.511 . S
C1541 C1537 1.376 . S
C1541 C1540 1.392 . S
C1541 H1553 0.929 . S
C1542 C1538 1.531 . S
C1542 H1554 0.960 . S
C1542 H1555 0.962 . S
C1542 H1556 0.960 . S
C1543 C1540 1.511 . S
C1543 H1557 0.961 . S
C1543 H1558 0.961 . S
C1543 H1559 0.961 . S
C1544 C1545 1.370 . S
C1544 C1546 1.363 . S
C1544 H1560 0.931 . S
C1545 C1544 1.370 . S
C1545 C1549 1.408 . S
C1546 C1544 1.363 . S
C1546 C1547 1.370 . S
C1546 C1550 1.524 . S
C1547 C1539 1.503 . S
C1547 C1546 1.370 . S
C1547 C1548 1.403 . S
C1548 C1547 1.403 . S
C1548 C1549 1.404 . S
C1548 C1551 1.539 . S
C1549 C1545 1.408 . S
C1549 C1548 1.404 . S
C1549 H1561 0.930 . S
C1550 C1546 1.524 . S
C1550 H1562 0.956 . S
C1550 H1563 0.961 . S
C1550 H1564 0.961 . S
C1551 C1548 1.539 . S
C1551 H1565 0.958 . S
C1551 H1566 0.961 . S
C1551 H1567 0.960 . S
H1552 C1536 0.931 . S
H1553 C1541 0.929 . S
H1554 C1542 0.960 . S
H1555 C1542 0.962 . S
H1556 C1542 0.960 . S
H1557 C1543 0.961 . S
H1558 C1543 0.961 . S
H1559 C1543 0.961 . S
H1560 C1544 0.931 . S
H1561 C1549 0.930 . S
H1562 C1550 0.956 . S
H1563 C1550 0.961 . S
H1564 C1550 0.961 . S
H1565 C1551 0.958 . S
H1566 C1551 0.961 . S
H1567 C1551 0.960 . S
C1568 C1569 1.391 . S
C1568 C1570 1.394 . S
C1568 H1584 0.931 . S
C1569 C1568 1.391 . S
C1569 C1573 1.376 . S
C1570 C1568 1.394 . S
C1570 C1571 1.369 . S
C1570 C1574 1.531 . S
C1571 C1570 1.369 . S
C1571 C1572 1.410 . S
C1571 C1579 1.503 . S
C1572 C1571 1.410 . S
C1572 C1573 1.392 . S
C1572 C1575 1.511 . S
C1573 C1569 1.376 . S
C1573 C1572 1.392 . S
C1573 H1585 0.929 . S
C1574 C1570 1.531 . S
C1574 H1586 0.960 . S
C1574 H1587 0.962 . S
C1574 H1588 0.960 . S
C1575 C1572 1.511 . S
C1575 H1589 0.961 . S
C1575 H1590 0.961 . S
C1575 H1591 0.961 . S
C1576 C1577 1.370 . S
C1576 C1578 1.363 . S
C1576 H1592 0.931 . S
C1577 C1576 1.370 . S
C1577 C1581 1.408 . S
C1578 C1576 1.363 . S
C1578 C1579 1.370 . S
C1578 C1582 1.524 . S
C1579 C1571 1.503 . S
C1579 C1578 1.370 . S
C1579 C1580 1.403 . S
C1580 C1579 1.403 . S
C1580 C1581 1.404 . S
C1580 C1583 1.539 . S
C1581 C1577 1.408 . S
C1581 C1580 1.404 . S
C1581 H1593 0.930 . S
C1582 C1578 1.524 . S
C1582 H1594 0.956 . S
C1582 H1595 0.961 . S
C1582 H1596 0.961 . S
C1583 C1580 1.539 . S
C1583 H1597 0.958 . S
C1583 H1598 0.961 . S
C1583 H1599 0.960 . S
H1584 C1568 0.931 . S
H1585 C1573 0.929 . S
H1586 C1574 0.960 . S
H1587 C1574 0.962 . S
H1588 C1574 0.960 . S
H1589 C1575 0.961 . S
H1590 C1575 0.961 . S
H1591 C1575 0.961 . S
H1592 C1576 0.931 . S
H1593 C1581 0.930 . S
H1594 C1582 0.956 . S
H1595 C1582 0.961 . S
H1596 C1582 0.961 . S
H1597 C1583 0.958 . S
H1598 C1583 0.961 . S
H1599 C1583 0.960 . S
C1600 C1601 1.391 . S
C1600 C1602 1.394 . S
C1600 H1616 0.931 . S
C1601 C1600 1.391 . S
C1601 C1605 1.376 . S
C1602 C1600 1.394 . S
C1602 C1603 1.369 . S
C1602 C1606 1.531 . S
C1603 C1602 1.369 . S
C1603 C1604 1.410 . S
C1603 C1611 1.503 . S
C1604 C1603 1.410 . S
C1604 C1605 1.392 . S
C1604 C1607 1.511 . S
C1605 C1601 1.376 . S
C1605 C1604 1.392 . S
C1605 H1617 0.929 . S
C1606 C1602 1.531 . S
C1606 H1618 0.960 . S
C1606 H1619 0.962 . S
C1606 H1620 0.960 . S
C1607 C1604 1.511 . S
C1607 H1621 0.961 . S
C1607 H1622 0.961 . S
C1607 H1623 0.961 . S
C1608 C1609 1.370 . S
C1608 C1610 1.363 . S
C1608 H1624 0.931 . S
C1609 C1608 1.370 . S
C1609 C1613 1.408 . S
C1610 C1608 1.363 . S
C1610 C1611 1.370 . S
C1610 C1614 1.524 . S
C1611 C1603 1.503 . S
C1611 C1610 1.370 . S
C1611 C1612 1.403 . S
C1612 C1611 1.403 . S
C1612 C1613 1.404 . S
C1612 C1615 1.539 . S
C1613 C1609 1.408 . S
C1613 C1612 1.404 . S
C1613 H1625 0.930 . S
C1614 C1610 1.524 . S
C1614 H1626 0.956 . S
C1614 H1627 0.961 . S
C1614 H1628 0.961 . S
C1615 C1612 1.539 . S
C1615 H1629 0.958 . S
C1615 H1630 0.961 . S
C1615 H1631 0.960 . S
H1616 C1600 0.931 . S
H1617 C1605 0.929 . S
H1618 C1606 0.960 . S
H1619 C1606 0.962 . S
H1620 C1606 0.960 . S
H1621 C1607 0.961 . S
H1622 C1607 0.961 . S
H1623 C1607 0.961 . S
H1624 C1608 0.931 . S
H1625 C1613 0.930 . S
H1626 C1614 0.956 . S
H1627 C1614 0.961 . S
H1628 C1614 0.961 . S
H1629 C1615 0.958 . S
H1630 C1615 0.961 . S
H1631 C1615 0.960 . S
C481 C9 1.057 . S
C489 C329 1.094 . S
C513 C49 1.104 . S
C521 C369 1.072 . S
C545 C89 1.117 . S
C553 C409 1.085 . S
C577 C449 1.117 . S
C585 C129 1.082 . S
C609 C169 1.059 . S
C617 C249 1.071 . S
C641 C289 1.045 . S
C649 C209 1.080 . S
C673 C415 1.552 . S
C681 C15 1.524 . S
C705 C455 1.574 . S
C713 C55 1.535 . S
C737 C95 1.570 . S
C745 C255 1.539 . S
C769 C295 1.553 . S
C777 C135 1.546 . S
C801 C335 1.518 . S
C809 C175 1.541 . S
C833 C215 1.520 . S
C841 C375 1.544 . S
C865 C299 4.244 . S
C873 C19 4.250 . S
C897 C339 4.230 . S
C905 C59 4.248 . S
C929 C379 4.248 . S
C937 C99 4.248 . S
C961 C139 4.239 . S
C969 C419 4.242 . S
C993 C179 4.250 . S
C1001 C459 4.247 . S
C1025 C219 4.250 . S
C1033 C259 4.245 . S
C1057 C18 0.621 . S
C1065 C138 0.531 . S
C1089 C58 0.579 . S
C1097 C178 0.555 . S
C1121 C98 0.641 . S
C1129 C218 0.503 . S
C1153 C378 0.632 . S
C1161 C258 0.521 . S
C1185 C298 0.630 . S
C1193 C418 0.523 . S
C1217 C458 0.440 . S
C1225 C338 0.536 . S
C1249 C286 0.685 . S
C1257 C6 0.748 . S
C1281 C326 0.800 . S
C1289 C46 0.690 . S
C1313 C86 0.752 . S
C1321 C366 0.741 . S
C1345 C406 0.803 . S
C1353 C126 0.694 . S
C1377 C446 0.644 . S
C1385 C166 0.727 . S
C1409 C206 0.723 . S
C1417 C246 0.747 . S
C1441 C10 4.752 . S
C1449 C410 4.757 . S
C1473 C50 4.750 . S
C1481 C450 4.758 1_556 S
C1505 C90 4.749 1_554 S
C1513 C250 4.757 . S
C1537 C130 4.747 . S
C1545 C290 4.756 . S
C1569 C170 4.749 . S
C1577 C330 4.755 1_556 S
C1601 C370 4.751 . S
C1609 C210 4.755 1_554 S
