# Generated by pormake.
# Topology zff, (5)-cn, num edge types: 1
# Building blocks:
#     Node 0, Type 0, BuildingBlock: BEQFEK_clean_sbu_0, # of connection points: 5
#     Node 1, Type 0, BuildingBlock: BEQFEK_clean_sbu_0, # of connection points: 5
#     Node 2, Type 0, BuildingBlock: BEQFEK_clean_sbu_0, # of connection points: 5
#     Node 3, Type 0, BuildingBlock: BEQFEK_clean_sbu_0, # of connection points: 5
#     Node 4, Type 0, BuildingBlock: BEQFEK_clean_sbu_0, # of connection points: 5
#     Node 5, Type 0, BuildingBlock: BEQFEK_clean_sbu_0, # of connection points: 5
#     Node 6, Type 0, BuildingBlock: BEQFEK_clean_sbu_0, # of connection points: 5
#     Node 7, Type 0, BuildingBlock: BEQFEK_clean_sbu_0, # of connection points: 5
#     Node 8, Type 0, BuildingBlock: BEQFEK_clean_sbu_0, # of connection points: 5
#     Node 9, Type 0, BuildingBlock: BEQFEK_clean_sbu_0, # of connection points: 5
#     Node 10, Type 0, BuildingBlock: BEQFEK_clean_sbu_0, # of connection points: 5
#     Node 11, Type 0, BuildingBlock: BEQFEK_clean_sbu_0, # of connection points: 5
#     Node 12, Type 0, BuildingBlock: BEQFEK_clean_sbu_0, # of connection points: 5
#     Node 13, Type 0, BuildingBlock: BEQFEK_clean_sbu_0, # of connection points: 5
#     Node 14, Type 0, BuildingBlock: BEQFEK_clean_sbu_0, # of connection points: 5
#     Node 15, Type 0, BuildingBlock: BEQFEK_clean_sbu_0, # of connection points: 5
#     Edge 16, Type (0, 0), BuildingBlock: CIFDUS_clean_linker_0, # of connection points: 2
#     Edge 17, Type (0, 0), BuildingBlock: CIFDUS_clean_linker_0, # of connection points: 2
#     Edge 18, Type (0, 0), BuildingBlock: CIFDUS_clean_linker_0, # of connection points: 2
#     Edge 19, Type (0, 0), BuildingBlock: CIFDUS_clean_linker_0, # of connection points: 2
#     Edge 20, Type (0, 0), BuildingBlock: CIFDUS_clean_linker_0, # of connection points: 2
#     Edge 21, Type (0, 0), BuildingBlock: CIFDUS_clean_linker_0, # of connection points: 2
#     Edge 22, Type (0, 0), BuildingBlock: CIFDUS_clean_linker_0, # of connection points: 2
#     Edge 23, Type (0, 0), BuildingBlock: CIFDUS_clean_linker_0, # of connection points: 2
#     Edge 24, Type (0, 0), BuildingBlock: CIFDUS_clean_linker_0, # of connection points: 2
#     Edge 25, Type (0, 0), BuildingBlock: CIFDUS_clean_linker_0, # of connection points: 2
#     Edge 26, Type (0, 0), BuildingBlock: CIFDUS_clean_linker_0, # of connection points: 2
#     Edge 27, Type (0, 0), BuildingBlock: CIFDUS_clean_linker_0, # of connection points: 2
#     Edge 28, Type (0, 0), BuildingBlock: CIFDUS_clean_linker_0, # of connection points: 2
#     Edge 29, Type (0, 0), BuildingBlock: CIFDUS_clean_linker_0, # of connection points: 2
#     Edge 30, Type (0, 0), BuildingBlock: CIFDUS_clean_linker_0, # of connection points: 2
#     Edge 31, Type (0, 0), BuildingBlock: CIFDUS_clean_linker_0, # of connection points: 2
#     Edge 32, Type (0, 0), BuildingBlock: CIFDUS_clean_linker_0, # of connection points: 2
#     Edge 33, Type (0, 0), BuildingBlock: CIFDUS_clean_linker_0, # of connection points: 2
#     Edge 34, Type (0, 0), BuildingBlock: CIFDUS_clean_linker_0, # of connection points: 2
#     Edge 35, Type (0, 0), BuildingBlock: CIFDUS_clean_linker_0, # of connection points: 2
#     Edge 36, Type (0, 0), BuildingBlock: CIFDUS_clean_linker_0, # of connection points: 2
#     Edge 37, Type (0, 0), BuildingBlock: CIFDUS_clean_linker_0, # of connection points: 2
#     Edge 38, Type (0, 0), BuildingBlock: CIFDUS_clean_linker_0, # of connection points: 2
#     Edge 39, Type (0, 0), BuildingBlock: CIFDUS_clean_linker_0, # of connection points: 2
#     Edge 40, Type (0, 0), BuildingBlock: CIFDUS_clean_linker_0, # of connection points: 2
#     Edge 41, Type (0, 0), BuildingBlock: CIFDUS_clean_linker_0, # of connection points: 2
#     Edge 42, Type (0, 0), BuildingBlock: CIFDUS_clean_linker_0, # of connection points: 2
#     Edge 43, Type (0, 0), BuildingBlock: CIFDUS_clean_linker_0, # of connection points: 2
#     Edge 44, Type (0, 0), BuildingBlock: CIFDUS_clean_linker_0, # of connection points: 2
#     Edge 45, Type (0, 0), BuildingBlock: CIFDUS_clean_linker_0, # of connection points: 2
#     Edge 46, Type (0, 0), BuildingBlock: CIFDUS_clean_linker_0, # of connection points: 2
#     Edge 47, Type (0, 0), BuildingBlock: CIFDUS_clean_linker_0, # of connection points: 2
#     Edge 48, Type (0, 0), BuildingBlock: CIFDUS_clean_linker_0, # of connection points: 2
#     Edge 49, Type (0, 0), BuildingBlock: CIFDUS_clean_linker_0, # of connection points: 2
#     Edge 50, Type (0, 0), BuildingBlock: CIFDUS_clean_linker_0, # of connection points: 2
#     Edge 51, Type (0, 0), BuildingBlock: CIFDUS_clean_linker_0, # of connection points: 2
#     Edge 52, Type (0, 0), BuildingBlock: CIFDUS_clean_linker_0, # of connection points: 2
#     Edge 53, Type (0, 0), BuildingBlock: CIFDUS_clean_linker_0, # of connection points: 2
#     Edge 54, Type (0, 0), BuildingBlock: CIFDUS_clean_linker_0, # of connection points: 2
#     Edge 55, Type (0, 0), BuildingBlock: CIFDUS_clean_linker_0, # of connection points: 2
# Relax obj value: 0.059
# Max RMSD: 0.098
# Mean RMSD: 0.098
data_MOF--net-zff--node1-BEQFEK_clean_sbu_0--edge1-CIFDUS_clean_linker_0
_symmetry_space_group_name_H-M    P1
_symmetry_Int_Tables_number       1
_symmetry_cell_setting            triclinic
loop_
_symmetry_equiv_pos_as_xyz
'x, y, z'
_cell_length_a     32.899482
_cell_length_b     32.895741
_cell_length_c     65.888345
_cell_angle_alpha  90.472397
_cell_angle_beta   89.66247
_cell_angle_gamma 90.214697
loop_
_atom_site_label
_atom_site_type_symbol
_atom_site_fract_x
_atom_site_fract_y
_atom_site_fract_z
_atom_type_partial_charge
Co0 Co 0.04487 0.26254 0.41376 0.0
Co1 Co 0.03991 0.2742 0.36583 0.0
C2 C 0.10095 0.21867 0.38592 0.0
O3 O 0.09015 0.22754 0.40406 0.0
O4 O 0.08341 0.23424 0.37067 0.0
C5 C 0.05666 0.26818 0.4599 0.0
O6 O 0.09412 0.28181 0.45844 0.0
C7 C 0.07467 0.30208 0.32649 0.0
C8 C 0.02027 0.3015 0.30705 0.0
C9 C 0.06155 0.31031 0.30683 0.0
N10 N 0.0425 0.2896 0.33765 0.0
N11 N 0.01018 0.28922 0.32585 0.0
C12 C 0.11714 0.30433 0.33444 0.0
H13 H 0.12039 0.28534 0.34813 0.0
H14 H 0.12432 0.33619 0.33878 0.0
H15 H 0.1392 0.29435 0.32261 0.0
C16 C 0.04922 0.35264 0.412 0.0
N17 N 0.04882 0.3157 0.40302 0.0
N18 N 0.04627 0.32031 0.38318 0.0
C19 C 0.04499 0.36026 0.379 0.0
C20 C 0.04729 0.38192 0.39706 0.0
C21 C 0.04927 0.35964 0.43445 0.0
H22 H 0.02421 0.34205 0.44155 0.0
H23 H 0.07845 0.34875 0.44064 0.0
H24 H 0.04601 0.3923 0.43842 0.0
O25 O -0.00618 0.2386 0.40433 0.0
O26 O 0.98643 0.24746 0.37125 0.0
H27 H 0.01172 0.35872 0.3511 0.0
H28 H 0.02529 0.4092 0.35951 0.0
C29 C 0.03571 0.37721 0.35851 0.0
H30 H 0.06349 0.37615 0.34895 0.0
H31 H 0.98113 0.28068 0.33066 0.0
O32 O 0.03632 0.26044 0.44396 0.0
C33 C 0.97315 0.2345 0.38823 0.0
Co34 Co 0.73704 0.02869 0.40557 0.0
Co35 Co 0.72516 0.03139 0.35772 0.0
C36 C 0.77926 0.09061 0.38007 0.0
O37 O 0.7707 0.07624 0.39753 0.0
O38 O 0.764 0.07554 0.36396 0.0
C39 C 0.73035 0.04134 0.45095 0.0
O40 O 0.71722 0.07858 0.44832 0.0
C41 C 0.69959 0.06729 0.31847 0.0
C42 C 0.69475 0.01214 0.29928 0.0
C43 C 0.68942 0.05389 0.29903 0.0
N44 N 0.70968 0.03477 0.32968 0.0
N45 N 0.70703 0.00202 0.31801 0.0
C46 C 0.70073 0.11024 0.32617 0.0
H47 H 0.72329 0.11369 0.33844 0.0
H48 H 0.67051 0.11841 0.3325 0.0
H49 H 0.70824 0.13152 0.3137 0.0
C50 C 0.64714 0.02706 0.40412 0.0
N51 N 0.68371 0.03187 0.39512 0.0
N52 N 0.67885 0.03354 0.37529 0.0
C53 C 0.63895 0.03045 0.37112 0.0
C54 C 0.61763 0.02603 0.3892 0.0
C55 C 0.64137 0.01751 0.42613 0.0
H56 H 0.6643 -0.00503 0.43089 0.0
H57 H 0.64574 0.04568 0.43521 0.0
H58 H 0.61059 0.00517 0.42932 0.0
O59 O 0.76203 0.97936 0.39448 0.0
O60 O 0.75343 0.97857 0.36112 0.0
H61 H 0.6333 0.00286 0.34173 0.0
H62 H 0.58804 0.02932 0.35024 0.0
C63 C 0.62174 0.02984 0.35012 0.0
H64 H 0.63174 0.05744 0.34201 0.0
H65 H 0.71319 0.9726 0.3229 0.0
O66 O 0.73879 0.01921 0.43557 0.0
C67 C 0.76643 0.9622 0.37726 0.0
Co68 Co 0.96627 0.72506 0.41933 0.0
Co69 Co 0.9605 0.71285 0.37169 0.0
C70 C 0.90511 0.76933 0.39559 0.0
O71 O 0.92003 0.75984 0.41269 0.0
O72 O 0.91869 0.75409 0.37907 0.0
C73 C 0.95503 0.72359 0.46427 0.0
O74 O 0.91642 0.71459 0.46183 0.0
C75 C 0.91612 0.68232 0.3357 0.0
C76 C 0.96512 0.6773 0.3128 0.0
C77 C 0.92404 0.66961 0.31582 0.0
N78 N 0.95104 0.6958 0.34404 0.0
N79 N 0.98006 0.69315 0.33015 0.0
C80 C 0.87609 0.6823 0.34664 0.0
H81 H 0.87528 0.70657 0.35836 0.0
H82 H 0.8718 0.65281 0.35441 0.0
H83 H 0.85072 0.68672 0.33586 0.0
C84 C 0.96189 0.63577 0.41822 0.0
N85 N 0.95904 0.67212 0.40912 0.0
N86 N 0.95778 0.66679 0.38928 0.0
C87 C 0.96014 0.62668 0.38517 0.0
C88 C 0.9626 0.60585 0.40334 0.0
C89 C 0.97013 0.63043 0.44035 0.0
H90 H -0.00373 0.6498 0.44486 0.0
H91 H 0.94315 0.64035 0.4492 0.0
H92 H 0.97687 0.59834 0.44409 0.0
O93 O 0.01584 0.74726 0.40727 0.0
O94 O 0.01554 0.73884 0.37382 0.0
H95 H 0.98805 0.62489 0.3557 0.0
H96 H 0.97042 0.57585 0.36447 0.0
C97 C 0.96378 0.60885 0.36424 0.0
H98 H 0.93471 0.6129 0.35617 0.0
H99 H 0.01032 0.7013 0.33266 0.0
O100 O 0.97802 0.72765 0.44886 0.0
C101 C 0.03294 0.75096 0.39005 0.0
Co102 Co 0.2753 0.94853 0.40427 0.0
Co103 Co 0.27676 0.95899 0.35667 0.0
C104 C 0.2257 0.89482 0.3779 0.0
O105 O 0.23833 0.90424 0.39562 0.0
O106 O 0.23802 0.91377 0.3622 0.0
C107 C 0.25554 0.96159 0.4459 0.0
O108 O 0.21861 0.96433 0.43856 0.0
C109 C 0.3018 0.92884 0.31662 0.0
C110 C 0.30283 0.98491 0.29844 0.0
C111 C 0.31231 0.94387 0.29767 0.0
N112 N 0.28726 0.95962 0.32807 0.0
N113 N 0.28709 -0.00713 0.31696 0.0
C114 C 0.31022 0.88728 0.32462 0.0
H115 H 0.30855 0.88717 0.34144 0.0
H116 H 0.34061 0.87672 0.31946 0.0
H117 H 0.28715 0.86575 0.31858 0.0
C118 C 0.36329 0.94291 0.39766 0.0
N119 N 0.32522 0.94534 0.39049 0.0
N120 N 0.32651 0.95151 0.37078 0.0
C121 C 0.36576 0.95389 0.36486 0.0
C122 C 0.39018 0.94812 0.38167 0.0
C123 C 0.37354 0.93788 0.41959 0.0
H124 H 0.35345 0.91448 0.42642 0.0
H125 H 0.40577 0.92892 0.42151 0.0
H126 H 0.36822 0.96708 0.4277 0.0
O127 O 0.24972 0.00081 0.39846 0.0
O128 O 0.25121 0.01127 0.36525 0.0
H129 H 0.35863 0.99034 0.33824 0.0
H130 H 0.41073 0.98071 0.34485 0.0
C131 C 0.37973 0.96736 0.3443 0.0
H132 H 0.38046 0.94078 0.33386 0.0
H133 H 0.27839 0.02146 0.32239 0.0
O134 O 0.28448 0.9514 0.43406 0.0
C135 C 0.24209 0.02286 0.38322 0.0
Co136 Co 0.01658 0.73416 0.62521 0.0
Co137 Co 0.02119 0.73323 0.67306 0.0
C138 C 0.07577 0.78561 0.64648 0.0
O139 O 0.06148 0.77267 0.62967 0.0
O140 O 0.06234 0.77276 0.66342 0.0
C141 C 0.02003 0.74185 0.58082 0.0
O142 O 0.04874 0.76917 0.58359 0.0
C143 C 0.06626 0.70369 0.70762 0.0
C144 C 0.02602 0.71684 0.73375 0.0
C145 C 0.06256 0.69875 0.72838 0.0
N146 N 0.03325 0.72323 0.70089 0.0
N147 N 0.00949 0.73155 0.71662 0.0
C148 C 0.10109 0.69074 0.69436 0.0
H149 H 0.10042 0.70689 0.67965 0.0
H150 H 0.09928 0.65762 0.69131 0.0
H151 H 0.1303 0.69684 0.70219 0.0
C152 C 0.02679 0.64676 0.63093 0.0
N153 N 0.0261 0.6849 0.63834 0.0
N154 N 0.02433 0.68384 0.65828 0.0
C155 C 0.0222 0.64479 0.66417 0.0
C156 C 0.02456 0.62021 0.64706 0.0
C157 C 0.02612 0.63618 0.6088 0.0
H158 H 0.04718 0.65649 0.6004 0.0
H159 H 0.03496 0.60403 0.60616 0.0
H160 H -0.00501 0.64086 0.60289 0.0
O161 O 0.96637 0.75831 0.6361 0.0
O162 O 0.96646 0.75711 0.66981 0.0
H163 H 0.98849 0.60498 0.68398 0.0
H164 H 0.03672 0.62127 0.69341 0.0
C165 C 0.00962 0.63131 0.68496 0.0
H166 H -0.00564 0.65623 0.6934 0.0
H167 H 0.98149 0.74617 0.7156 0.0
O168 O 0.00458 0.72407 0.59608 0.0
C169 C 0.94922 0.7656 0.6531 0.0
Co170 Co 0.25079 0.04628 0.60339 0.0
Co171 Co 0.25906 0.04738 0.65144 0.0
C172 C 0.21468 0.11245 0.62816 0.0
O173 O 0.22346 0.09743 0.6108 0.0
O174 O 0.226 0.09557 0.64451 0.0
C175 C 0.26163 0.05503 0.55802 0.0
O176 O 0.28148 0.08949 0.5601 0.0
C177 C 0.28822 0.08113 0.69093 0.0
C178 C 0.27821 0.0287 0.71107 0.0
C179 C 0.29256 0.0684 0.71098 0.0
N180 N 0.27254 0.05018 0.67988 0.0
N181 N 0.26654 0.01906 0.69209 0.0
C182 C 0.29703 0.12228 0.68242 0.0
H183 H 0.2798 0.12707 0.66825 0.0
H184 H 0.32988 0.1246 0.6787 0.0
H185 H 0.2893 0.14638 0.69367 0.0
C186 C 0.33956 0.03431 0.60655 0.0
N187 N 0.30312 0.04298 0.61488 0.0
N188 N 0.30648 0.04346 0.63483 0.0
C189 C 0.34519 0.03513 0.63976 0.0
C190 C 0.36727 0.02925 0.62202 0.0
C191 C 0.34718 0.02943 0.58425 0.0
H192 H 0.3249 0.00767 0.57773 0.0
H193 H 0.34316 0.05925 0.57689 0.0
H194 H 0.37845 0.01883 0.58087 0.0
O195 O 0.21858 0.00082 0.61365 0.0
O196 O 0.22549 -0.00213 0.64706 0.0
H197 H 0.33733 0.00694 0.66872 0.0
H198 H 0.38972 0.01283 0.66115 0.0
C199 C 0.3593 0.02722 0.66093 0.0
H200 H 0.36078 0.05637 0.66945 0.0
H201 H 0.25451 0.99112 0.68745 0.0
O202 O 0.2489 0.03602 0.57353 0.0
C203 C 0.21121 0.98379 0.6305 0.0
Co204 Co 0.95846 0.28028 0.617 0.0
Co205 Co 0.94624 0.28168 0.66516 0.0
C206 C 0.89567 0.22884 0.63728 0.0
O207 O 0.91347 0.2415 0.62125 0.0
O208 O 0.90548 0.24177 0.65493 0.0
C209 C 0.96868 0.26285 0.57357 0.0
O210 O 0.95224 0.22737 0.57766 0.0
C211 C 0.90627 0.2996 0.70547 0.0
C212 C 0.96047 0.3019 0.72505 0.0
C213 C 0.91866 0.30668 0.72544 0.0
N214 N 0.93945 0.29171 0.69394 0.0
N215 N 0.97157 0.29288 0.70588 0.0
C216 C 0.86373 0.29884 0.69756 0.0
H217 H 0.86194 0.27991 0.68358 0.0
H218 H 0.85429 0.33015 0.69371 0.0
H219 H 0.84247 0.28694 0.70925 0.0
C220 C 0.94685 0.36748 0.623 0.0
N221 N 0.94679 0.32951 0.63032 0.0
N222 N 0.94284 0.33079 0.65023 0.0
C223 C 0.9408 0.36996 0.65621 0.0
C224 C 0.94315 0.39435 0.63916 0.0
C225 C 0.95642 0.3775 0.60136 0.0
H226 H 0.9877 0.36718 0.59768 0.0
H227 H 0.93512 0.36085 0.59125 0.0
H228 H 0.95429 0.41052 0.59838 0.0
O229 O 0.00834 0.25765 0.62811 0.0
O230 O 0.00136 0.25789 0.66161 0.0
H231 H 0.96606 0.37079 0.68609 0.0
H232 H 0.94065 0.41748 0.6793 0.0
C233 C 0.93989 0.38387 0.6779 0.0
H234 H 0.91159 0.37286 0.68518 0.0
H235 H 0.00132 0.28805 0.70086 0.0
O236 O 0.9718 0.28934 0.58766 0.0
C237 C 0.02217 0.25041 0.64567 0.0
Co238 Co 0.71834 0.97495 0.61213 0.0
Co239 Co 0.70916 0.96302 0.6598 0.0
C240 C 0.76063 0.90822 0.63291 0.0
O241 O 0.75158 0.92559 0.6163 0.0
O242 O 0.7465 0.92067 0.64986 0.0
C243 C 0.73249 0.97404 0.56773 0.0
O244 O 0.75689 0.94317 0.57073 0.0
C245 C 0.68042 0.91592 0.69504 0.0
C246 C 0.68097 0.96219 0.71949 0.0
C247 C 0.67076 0.92198 0.71547 0.0
N248 N 0.69465 0.9511 0.6874 0.0
N249 N 0.69532 0.97848 0.70218 0.0
C250 C 0.67688 0.87742 0.68287 0.0
H251 H 0.69907 0.87718 0.67019 0.0
H252 H 0.64602 0.87537 0.67623 0.0
H253 H 0.68196 0.85052 0.69258 0.0
C254 C 0.62938 0.97592 0.61554 0.0
N255 N 0.66611 0.96916 0.62369 0.0
N256 N 0.6622 0.96566 0.64351 0.0
C257 C 0.62289 0.97074 0.64862 0.0
C258 C 0.60094 0.9774 0.6311 0.0
C259 C 0.62288 0.98702 0.59382 0.0
H260 H 0.6376 0.96406 0.58381 0.0
H261 H 0.59011 0.98891 0.59011 0.0
H262 H 0.63741 0.0169 0.59085 0.0
O263 O 0.74558 0.02161 0.62537 0.0
O264 O 0.73806 0.01574 0.65878 0.0
H265 H 0.62561 -0.00435 0.67873 0.0
H266 H 0.57479 0.98196 0.6707 0.0
C267 C 0.6073 0.97327 0.67 0.0
H268 H 0.61038 0.9432 0.67722 0.0
H269 H 0.70481 0.00853 0.70034 0.0
O270 O 0.71399 0.98999 0.5828 0.0
C271 C 0.7511 0.03501 0.64334 0.0
Co272 Co 0.52726 0.75141 0.912 0.0
Co273 Co 0.53239 0.76228 0.86433 0.0
C274 C 0.58773 0.70611 0.88748 0.0
O275 O 0.57292 0.71542 0.90482 0.0
O276 O 0.5743 0.7218 0.87125 0.0
C277 C 0.54134 0.74697 0.95603 0.0
O278 O 0.57959 0.73956 0.95155 0.0
C279 C 0.575 0.79597 0.829 0.0
C280 C 0.52847 0.79184 0.80506 0.0
C281 C 0.56766 0.80569 0.80879 0.0
N282 N 0.54152 0.77815 0.83675 0.0
N283 N 0.51397 0.7754 0.8223 0.0
C284 C 0.6132 0.80226 0.84086 0.0
H285 H 0.61479 0.78031 0.85351 0.0
H286 H 0.61327 0.83329 0.84757 0.0
H287 H 0.64032 0.7988 0.83091 0.0
C288 C 0.53138 0.84026 0.9106 0.0
N289 N 0.53501 0.80375 0.90148 0.0
N290 N 0.53478 0.80845 0.88165 0.0
C291 C 0.52976 0.84808 0.87752 0.0
C292 C 0.5278 0.86952 0.89572 0.0
C293 C 0.52757 0.84632 0.93305 0.0
H294 H 0.49739 0.83513 0.9382 0.0
H295 H 0.55126 0.82842 0.94082 0.0
H296 H 0.53088 0.87886 0.93734 0.0
O297 O 0.47702 0.72883 0.90046 0.0
O298 O 0.47808 0.73684 0.86702 0.0
H299 H 0.49994 0.84073 0.84877 0.0
H300 H 0.50049 0.89213 0.85808 0.0
C301 C 0.51838 0.8637 0.857 0.0
H302 H 0.54639 0.87 0.84812 0.0
H303 H 0.48497 0.76309 0.82433 0.0
O304 O 0.5163 0.75311 0.94178 0.0
C305 C 0.46034 0.725 0.88318 0.0
Co306 Co 0.22359 0.51533 0.91518 0.0
Co307 Co 0.21759 0.53215 0.86817 0.0
C308 C 0.2661 0.5853 0.8965 0.0
O309 O 0.25658 0.56536 0.91232 0.0
O310 O 0.25296 0.57495 0.87911 0.0
C311 C 0.21169 0.52631 0.95859 0.0
O312 O 0.20551 0.56456 0.95395 0.0
C313 C 0.18995 0.58237 0.83472 0.0
C314 C 0.20074 0.54295 0.80799 0.0
C315 C 0.18572 0.58086 0.81366 0.0
N316 N 0.20615 0.54714 0.8409 0.0
N317 N 0.21297 0.52386 0.82485 0.0
C318 C 0.17656 0.61494 0.84926 0.0
H319 H 0.17591 0.60332 0.86502 0.0
H320 H 0.1459 0.62611 0.8452 0.0
H321 H 0.19842 0.64067 0.84867 0.0
C322 C 0.13493 0.50973 0.91052 0.0
N323 N 0.17179 0.5203 0.9033 0.0
N324 N 0.16931 0.52626 0.88359 0.0
C325 C 0.13084 0.51934 0.87762 0.0
C326 C 0.10794 0.50871 0.89447 0.0
C327 C 0.12749 0.49412 0.93151 0.0
H328 H 0.1497 0.46986 0.93489 0.0
H329 H 0.13198 0.51927 0.94258 0.0
H330 H 0.09633 0.48173 0.9334 0.0
O331 O 0.25144 0.46957 0.9015 0.0
O332 O 0.24701 0.47995 0.86826 0.0
H333 H 0.13818 0.50005 0.84665 0.0
H334 H 0.08574 0.50779 0.85422 0.0
C335 C 0.11731 0.51908 0.85594 0.0
H336 H 0.11836 0.55047 0.85005 0.0
H337 H 0.22542 0.49477 0.82544 0.0
O338 O 0.21952 0.50091 0.94446 0.0
C339 C 0.25829 0.45852 0.88321 0.0
Co340 Co 0.45766 0.21284 0.90583 0.0
Co341 Co 0.4474 0.21017 0.85779 0.0
C342 C 0.39234 0.25896 0.88564 0.0
O343 O 0.40989 0.24711 0.90172 0.0
O344 O 0.40405 0.24731 0.86803 0.0
C345 C 0.4498 0.21058 0.95093 0.0
O346 O 0.41053 0.21644 0.94904 0.0
C347 C 0.40757 0.18849 0.81838 0.0
C348 C 0.46028 0.19211 0.79758 0.0
C349 C 0.41909 0.18312 0.79809 0.0
N350 N 0.44062 0.1995 0.82917 0.0
N351 N 0.47187 0.20179 0.81655 0.0
C352 C 0.36594 0.18443 0.82741 0.0
H353 H 0.3635 0.20254 0.84163 0.0
H354 H 0.36018 0.15211 0.83119 0.0
H355 H 0.34255 0.19443 0.81648 0.0
C356 C 0.45912 0.12523 0.89988 0.0
N357 N 0.4517 0.16253 0.89271 0.0
N358 N 0.44846 0.16087 0.87279 0.0
C359 C 0.45397 0.12213 0.86666 0.0
C360 C 0.46111 0.09844 0.88359 0.0
C361 C 0.47155 0.11741 0.92134 0.0
H362 H 0.49975 0.13475 0.92468 0.0
H363 H 0.4474 0.12846 0.9318 0.0
H364 H 0.47715 0.0848 0.92422 0.0
O365 O 0.50532 0.23958 0.8944 0.0
O366 O 0.50077 0.23812 0.86084 0.0
H367 H 0.48144 0.12533 0.83719 0.0
H368 H 0.46128 0.07558 0.8434 0.0
C369 C 0.45636 0.10881 0.84491 0.0
H370 H 0.42756 0.11643 0.83725 0.0
H371 H 0.50133 0.20961 0.82092 0.0
O372 O 0.47194 0.2076 0.93511 0.0
C373 C 0.51985 0.24748 0.87698 0.0
Co374 Co 0.75925 0.4412 0.92263 0.0
Co375 Co 0.76622 0.44358 0.87441 0.0
C376 C 0.71571 0.3813 0.89722 0.0
O377 O 0.72588 0.39408 0.9148 0.0
O378 O 0.72878 0.39819 0.88109 0.0
C379 C 0.75461 0.42436 0.96674 0.0
O380 O 0.74433 0.38685 0.96201 0.0
C381 C 0.79336 0.40934 0.83462 0.0
C382 C 0.78355 0.46146 0.81438 0.0
C383 C 0.797 0.42154 0.81443 0.0
N384 N 0.77882 0.44071 0.84577 0.0
N385 N 0.77301 0.47169 0.83351 0.0
C386 C 0.80147 0.36819 0.84318 0.0
H387 H 0.78472 0.36407 0.85767 0.0
H388 H 0.83441 0.36531 0.84634 0.0
H389 H 0.79263 0.34405 0.83218 0.0
C390 C 0.84763 0.44202 0.91864 0.0
N391 N 0.81067 0.4386 0.91029 0.0
N392 N 0.81397 0.44123 0.8904 0.0
C393 C 0.85328 0.44727 0.8855 0.0
C394 C 0.87581 0.44789 0.90326 0.0
C395 C 0.85516 0.44258 0.94101 0.0
H396 H 0.83741 0.41792 0.94832 0.0
H397 H 0.88789 0.43857 0.94441 0.0
H398 H 0.84472 0.47202 0.94749 0.0
O399 O 0.73235 0.49076 0.9137 0.0
O400 O 0.73788 0.49567 0.88022 0.0
H401 H 0.84534 0.47957 0.85765 0.0
H402 H 0.89764 0.47462 0.8652 0.0
C403 C 0.86771 0.45906 0.86475 0.0
H404 H 0.8705 0.43134 0.85516 0.0
H405 H 0.76171 0.49986 0.8382 0.0
O406 O 0.76275 0.44935 0.95266 0.0
C407 C 0.72605 0.5098 0.89733 0.0
Co408 Co 0.51403 0.21469 0.11227 0.0
Co409 Co 0.52685 0.20676 0.15975 0.0
C410 C 0.57685 0.26369 0.13377 0.0
O411 O 0.55923 0.25317 0.11732 0.0
O412 O 0.56696 0.24815 0.15078 0.0
C413 C 0.52081 0.21528 0.06713 0.0
O414 O 0.55989 0.2227 0.06897 0.0
C415 C 0.57007 0.18241 0.19726 0.0
C416 C 0.52 0.18601 0.21969 0.0
C417 C 0.56086 0.17664 0.21771 0.0
N418 N 0.53603 0.19421 0.18772 0.0
N419 N 0.50635 0.19641 0.20127 0.0
C420 C 0.6107 0.17902 0.18708 0.0
H421 H 0.61154 0.19743 0.17306 0.0
H422 H 0.61632 0.14688 0.18276 0.0
H423 H 0.63516 0.18904 0.19754 0.0
C424 C 0.52531 0.12633 0.11447 0.0
N425 N 0.52573 0.16337 0.12321 0.0
N426 N 0.52949 0.15951 0.14301 0.0
C427 C 0.53074 0.11966 0.14749 0.0
C428 C 0.52845 0.09744 0.12953 0.0
C429 C 0.51965 0.11892 0.09223 0.0
H430 H 0.48829 0.12755 0.08794 0.0
H431 H 0.54117 0.13827 0.08359 0.0
H432 H 0.52492 0.08659 0.08809 0.0
O433 O 0.46423 0.23577 0.12511 0.0
O434 O 0.47188 0.23044 0.15838 0.0
H435 H 0.50663 0.1223 0.17782 0.0
H436 H 0.5161 0.07146 0.16862 0.0
C437 C 0.5275 0.10323 0.16858 0.0
H438 H 0.55792 0.10384 0.17571 0.0
H439 H 0.47661 0.20488 0.19793 0.0
O440 O 0.49907 0.21073 0.08297 0.0
C441 C 0.45075 0.24025 0.14311 0.0
Co442 Co 0.75032 0.52162 0.11966 0.0
Co443 Co 0.76438 0.52593 0.16731 0.0
C444 C 0.71141 0.58562 0.14467 0.0
O445 O 0.71881 0.57044 0.12717 0.0
O446 O 0.72656 0.57061 0.16069 0.0
C447 C 0.74887 0.53569 0.0754 0.0
O448 O 0.74724 0.57472 0.07972 0.0
C449 C 0.8015 0.5678 0.20229 0.0
C450 C 0.79644 0.52194 0.22644 0.0
C451 C 0.8113 0.56065 0.22251 0.0
N452 N 0.78253 0.53469 0.19471 0.0
N453 N 0.77937 0.50751 0.20929 0.0
C454 C 0.80855 0.60575 0.19037 0.0
H455 H 0.83963 0.60524 0.18377 0.0
H456 H 0.80558 0.63303 0.20028 0.0
H457 H 0.78677 0.60765 0.17766 0.0
C458 C 0.83938 0.52032 0.11987 0.0
N459 N 0.80362 0.52514 0.12955 0.0
N460 N 0.80965 0.52506 0.1493 0.0
C461 C 0.84951 0.51933 0.15279 0.0
C462 C 0.86952 0.51646 0.13426 0.0
C463 C 0.84409 0.51672 0.09733 0.0
H464 H 0.82847 0.54251 0.09003 0.0
H465 H 0.87655 0.51691 0.09266 0.0
H466 H 0.82961 0.48807 0.09202 0.0
O467 O 0.72413 0.47366 0.13169 0.0
O468 O 0.73439 0.47345 0.16501 0.0
H469 H 0.89567 0.49235 0.17173 0.0
H470 H 0.87338 0.53838 0.18145 0.0
C471 C 0.86691 0.50967 0.17315 0.0
H472 H 0.84488 0.49152 0.1821 0.0
H473 H 0.766 0.4789 0.20746 0.0
O474 O 0.75026 0.51023 0.08979 0.0
C475 C 0.71988 0.4571 0.14897 0.0
Co476 Co 0.45027 0.75351 0.10884 0.0
Co477 Co 0.45207 0.76706 0.15647 0.0
C478 C 0.39598 0.70644 0.13634 0.0
O479 O 0.40776 0.71527 0.11841 0.0
O480 O 0.41082 0.72416 0.1519 0.0
C481 C 0.43076 0.75077 0.06466 0.0
O482 O 0.39193 0.74847 0.06929 0.0
C483 C 0.4148 0.79243 0.19514 0.0
C484 C 0.46836 0.80986 0.21333 0.0
C485 C 0.42624 0.8091 0.21368 0.0
N486 N 0.44859 0.78409 0.1843 0.0
N487 N 0.48051 0.79386 0.19543 0.0
C488 C 0.3727 0.7892 0.1868 0.0
H489 H 0.37353 0.78905 0.16995 0.0
H490 H 0.3536 0.81475 0.19237 0.0
H491 H 0.35872 0.76032 0.19198 0.0
C492 C 0.44204 0.84248 0.1099 0.0
N493 N 0.44214 0.80627 0.11927 0.0
N494 N 0.44331 0.81211 0.13906 0.0
C495 C 0.44379 0.85238 0.14287 0.0
C496 C 0.44326 0.87284 0.12456 0.0
C497 C 0.44721 0.84755 0.08748 0.0
H498 H 0.47555 0.83223 0.08244 0.0
H499 H 0.42134 0.83276 0.07959 0.0
H500 H 0.44862 0.88004 0.08314 0.0
O501 O 0.503 0.73419 0.11804 0.0
O502 O 0.50703 0.74364 0.15135 0.0
H503 H 0.47707 0.86025 0.17045 0.0
H504 H 0.4489 0.90477 0.16299 0.0
C505 C 0.4485 0.87108 0.16353 0.0
H506 H 0.42264 0.8617 0.17325 0.0
H507 H 0.51057 0.79128 0.19044 0.0
O508 O 0.45684 0.75328 0.07877 0.0
C509 C 0.52257 0.73187 0.13454 0.0
Co510 Co 0.21335 0.44074 0.11164 0.0
Co511 Co 0.21704 0.44362 0.15984 0.0
C512 C 0.25553 0.37668 0.13431 0.0
O513 O 0.24246 0.39032 0.11756 0.0
O514 O 0.24831 0.3949 0.15109 0.0
C515 C 0.21768 0.42347 0.06815 0.0
O516 O 0.23679 0.39018 0.07335 0.0
C517 C 0.19458 0.41045 0.20016 0.0
C518 C 0.20491 0.46345 0.22024 0.0
C519 C 0.19091 0.42361 0.22027 0.0
N520 N 0.20909 0.44137 0.18888 0.0
N521 N 0.21558 0.47278 0.20107 0.0
C522 C 0.18512 0.3691 0.19173 0.0
H523 H 0.20361 0.36287 0.17797 0.0
H524 H 0.15266 0.36769 0.18733 0.0
H525 H 0.1909 0.34534 0.20321 0.0
C526 C 0.12712 0.45323 0.1202 0.0
N527 N 0.16481 0.44455 0.12655 0.0
N528 N 0.166 0.4465 0.14651 0.0
C529 C 0.12887 0.45678 0.15352 0.0
C530 C 0.10319 0.4615 0.13709 0.0
C531 C 0.11651 0.45961 0.09839 0.0
H532 H 0.13514 0.48497 0.09231 0.0
H533 H 0.12411 0.43183 0.08951 0.0
H534 H 0.08395 0.46695 0.09635 0.0
O535 O 0.24779 0.48698 0.11905 0.0
O536 O 0.2495 0.49307 0.15266 0.0
H537 H 0.13972 0.48788 0.18167 0.0
H538 H 0.08697 0.47411 0.17773 0.0
C539 C 0.11889 0.46439 0.17544 0.0
H540 H 0.12325 0.43601 0.18402 0.0
H541 H 0.22657 0.5009 0.19623 0.0
O542 O 0.20426 0.44722 0.08193 0.0
C543 C 0.25951 0.50548 0.135 0.0
H544 H 0.03154 0.57099 0.39023 0.0
H545 H 0.9203 0.54664 0.42274 0.0
H546 H 0.93881 0.47464 0.42552 0.0
H547 H 0.98453 0.41817 0.41624 0.0
H548 H 0.09439 0.4426 0.38254 0.0
H549 H 0.07886 0.5154 0.38258 0.0
C550 C 0.01153 0.54972 0.39792 0.0
C551 C 0.97444 0.56328 0.40597 0.0
C552 C 0.02221 0.50875 0.39921 0.0
C553 C 0.94881 0.53622 0.41628 0.0
C554 C 0.95939 0.49531 0.41785 0.0
C555 C 0.00534 0.43974 0.40934 0.0
C556 C 0.04065 0.42573 0.39959 0.0
C557 C -0.00429 0.48116 0.40907 0.0
C558 C 0.06723 0.45329 0.39025 0.0
C559 C 0.05826 0.49466 0.3902 0.0
H560 H 0.57923 0.96354 0.37086 0.0
H561 H 0.5607 0.06224 0.41325 0.0
H562 H 0.48837 0.04451 0.41604 0.0
H563 H 0.42995 0.00351 0.40452 0.0
H564 H 0.44821 0.90745 0.36061 0.0
H565 H 0.5214 0.92165 0.36001 0.0
C566 C 0.55917 0.98121 0.3806 0.0
C567 C 0.57464 0.01445 0.3916 0.0
C568 C 0.51786 0.97132 0.38176 0.0
C569 C 0.54899 0.03667 0.40459 0.0
C570 C 0.50782 0.0266 0.40613 0.0
C571 C 0.45022 0.98537 0.39512 0.0
C572 C 0.43433 0.95436 0.38274 0.0
C573 C 0.49186 -0.00567 0.39457 0.0
C574 C 0.46028 0.93136 0.37027 0.0
C575 C 0.50189 0.93953 0.36991 0.0
H576 H 0.00628 0.43167 0.65682 0.0
H577 H 0.90097 0.45326 0.61995 0.0
H578 H 0.91843 0.52575 0.61807 0.0
H579 H 0.96321 0.58266 0.62765 0.0
H580 H 0.0669 0.56123 0.66568 0.0
H581 H 0.05063 0.48848 0.6666 0.0
C582 C 0.98705 0.45251 0.64858 0.0
C583 C 0.95231 0.43792 0.63871 0.0
C584 C -0.00283 0.4937 0.64773 0.0
C585 C 0.92774 0.46446 0.62773 0.0
C586 C 0.93776 0.50562 0.62664 0.0
C587 C 0.98247 0.56177 0.63582 0.0
C588 C 0.01647 0.57647 0.6463 0.0
C589 C 0.97241 0.5205 0.63658 0.0
C590 C 0.04082 0.5499 0.65737 0.0
C591 C 0.03145 0.5086 0.65795 0.0
H592 H 0.53645 0.94237 0.61301 0.0
H593 H 0.5743 0.04882 0.64647 0.0
H594 H 0.50492 0.07542 0.64588 0.0
H595 H 0.43316 0.06695 0.6368 0.0
H596 H 0.39459 0.95985 0.60407 0.0
H597 H 0.46463 0.93478 0.6031 0.0
C598 C 0.52922 0.97143 0.62003 0.0
C599 C 0.55966 -0.00635 0.62992 0.0
C600 C 0.48941 0.98628 0.61968 0.0
C601 C 0.55073 0.03131 0.63897 0.0
C602 C 0.51129 0.04645 0.6386 0.0
C603 C 0.44041 0.0383 0.62937 0.0
C604 C 0.40945 0.01531 0.62035 0.0
C605 C 0.48036 0.024 0.62917 0.0
C606 C 0.41849 0.97813 0.61082 0.0
C607 C 0.45831 0.96376 0.61038 0.0
H608 H 0.56008 0.93582 0.87847 0.0
H609 H 0.46252 0.89598 0.91753 0.0
H610 H 0.43301 0.96407 0.91728 0.0
H611 H 0.43279 0.03376 0.90404 0.0
H612 H 0.52973 0.07319 0.86451 0.0
H613 H 0.56122 0.00605 0.86623 0.0
C614 C 0.5327 0.94245 0.88713 0.0
C615 C 0.51363 0.91153 0.89817 0.0
C616 C 0.51535 0.98111 0.88637 0.0
C617 C 0.47806 0.91983 0.90928 0.0
C618 C 0.46092 0.95849 0.90891 0.0
C619 C 0.46077 0.02735 0.89583 0.0
C620 C 0.47878 0.05761 0.88394 0.0
C621 C 0.47889 0.98909 0.89718 0.0
C622 C 0.51511 0.04969 0.87342 0.0
C623 C 0.53326 0.01161 0.87457 0.0
H624 H 0.9417 0.41623 0.88487 0.0
H625 H 0.90324 0.51116 0.92606 0.0
H626 H 0.97262 0.53788 0.92752 0.0
H627 H 0.04353 0.53611 0.91558 0.0
H628 H 0.082 0.44149 0.87427 0.0
H629 H 0.01323 0.41276 0.87405 0.0
C630 C 0.94885 0.44254 0.89426 0.0
C631 C 0.91801 0.46167 0.90544 0.0
C632 C 0.98849 0.45798 0.89474 0.0
C633 C 0.92699 0.49574 0.91758 0.0
C634 C 0.96644 0.51117 0.91828 0.0
C635 C 0.03658 0.50918 0.90661 0.0
C636 C 0.06694 0.49119 0.89466 0.0
C637 C -0.00272 0.49284 0.90671 0.0
C638 C 0.0584 0.45608 0.88322 0.0
C639 C 0.01934 0.43961 0.88319 0.0
H640 H 0.51315 0.90792 0.13588 0.0
H641 H 0.39948 0.93203 0.1063 0.0
H642 H 0.41756 0.00434 0.10369 0.0
H643 H 0.46367 0.06091 0.11237 0.0
H644 H 0.57622 0.03668 0.14305 0.0
H645 H 0.56074 0.96373 0.14292 0.0
C646 C 0.49254 0.92917 0.12881 0.0
C647 C 0.45496 0.91543 0.12151 0.0
C648 C 0.50292 0.97031 0.1277 0.0
C649 C 0.42847 0.94252 0.11209 0.0
C650 C 0.43876 0.98363 0.11067 0.0
C651 C 0.48505 0.03942 0.11863 0.0
C652 C 0.52108 0.05355 0.12758 0.0
C653 C 0.47561 -0.00209 0.11874 0.0
C654 C 0.54839 0.02598 0.13606 0.0
C655 C 0.53951 0.98452 0.13601 0.0
H656 H 0.93716 0.55331 0.14774 0.0
H657 H 0.89463 0.44895 0.11402 0.0
H658 H 0.96407 0.42283 0.11146 0.0
H659 H 0.03627 0.42813 0.12059 0.0
H660 H 0.07907 0.53334 0.15357 0.0
H661 H 0.01005 0.56079 0.15496 0.0
C662 C 0.94345 0.52512 0.13966 0.0
C663 C 0.91148 0.50304 0.13097 0.0
C664 C 0.98318 0.51033 0.13841 0.0
C665 C 0.91928 0.4665 0.12057 0.0
C666 C 0.95877 0.45149 0.11925 0.0
C667 C 0.03028 0.45717 0.12792 0.0
C668 C 0.06203 0.47852 0.13726 0.0
C669 C 0.99083 0.47289 0.12836 0.0
C670 C 0.05453 0.5162 0.14666 0.0
C671 C 0.01529 0.53193 0.14734 0.0
H672 H 0.12786 0.36201 0.30552 0.0
H673 H 0.0454 0.29437 0.26722 0.0
H674 H 0.07842 0.32205 0.23711 0.0
H675 H 0.1283 0.36801 0.22167 0.0
H676 H 0.21251 0.43381 0.25975 0.0
H677 H 0.18124 0.40409 0.28993 0.0
C678 C 0.11782 0.35218 0.29067 0.0
C679 C 0.08451 0.32538 0.2888 0.0
C680 C 0.13711 0.36816 0.2733 0.0
C681 C 0.07099 0.31481 0.26922 0.0
C682 C 0.0899 0.3306 0.25193 0.0
C683 C 0.14089 0.37486 0.23644 0.0
C684 C 0.1735 0.40248 0.23828 0.0
C685 C 0.1228 0.35755 0.25377 0.0
C686 C 0.18766 0.41246 0.25781 0.0
C687 C 0.16978 0.39546 0.27511 0.0
H688 H 0.62142 0.11956 0.21627 0.0
H689 H 0.55652 0.1994 0.25726 0.0
H690 H 0.59223 0.17042 0.28605 0.0
H691 H 0.63755 0.11875 0.29976 0.0
H692 H 0.70298 0.03903 0.25896 0.0
H693 H 0.6714 0.07171 0.22987 0.0
C694 C 0.61601 0.13158 0.23138 0.0
C695 C 0.5867 0.16205 0.23452 0.0
C696 C 0.63643 0.11448 0.24795 0.0
C697 C 0.57898 0.176 0.2544 0.0
C698 C 0.59936 0.15943 0.2709 0.0
C699 C 0.6461 0.1094 0.28455 0.0
C700 C 0.67328 0.07698 0.28158 0.0
C701 C 0.62766 0.12819 0.26789 0.0
C702 C 0.68229 0.06407 0.26167 0.0
C703 C 0.66425 0.08274 0.24501 0.0
H704 H 0.80267 0.56255 0.26344 0.0
H705 H 0.87349 0.61516 0.21493 0.0
H706 H 0.91188 0.65538 0.23936 0.0
H707 H 0.92773 0.67367 0.27475 0.0
H708 H 0.86111 0.61613 0.32332 0.0
H709 H 0.81897 0.58025 0.29879 0.0
C710 C 0.82633 0.58302 0.25818 0.0
C711 C 0.83409 0.58659 0.23723 0.0
C712 C 0.84922 0.60536 0.27243 0.0
C713 C 0.86531 0.61291 0.23077 0.0
C714 C 0.88787 0.63559 0.24483 0.0
C715 C 0.90376 0.65352 0.27998 0.0
C716 C 0.89687 0.64888 0.30095 0.0
C717 C 0.88025 0.6319 0.2657 0.0
C718 C 0.86608 0.62206 0.3074 0.0
C719 C 0.84226 0.60087 0.29331 0.0
H720 H 0.43698 0.88256 0.23121 0.0
H721 H 0.35708 0.77852 0.23116 0.0
H722 H 0.31452 0.81071 0.2574 0.0
H723 H 0.30037 0.86891 0.28048 0.0
H724 H 0.37882 0.97413 0.27876 0.0
H725 H 0.4215 0.9413 0.25304 0.0
C726 C 0.4103 0.86694 0.23702 0.0
C727 C 0.40013 0.82828 0.22938 0.0
C728 C 0.38571 0.88595 0.25174 0.0
C729 C 0.36525 0.80847 0.23677 0.0
C730 C 0.34105 0.82681 0.25179 0.0
C731 C 0.32691 0.88444 0.27449 0.0
C732 C 0.3367 0.9237 0.28159 0.0
C733 C 0.351 0.86558 0.25941 0.0
C734 C 0.37066 0.94394 0.27346 0.0
C735 C 0.39516 0.92513 0.25882 0.0
H736 H 0.1549 0.56385 0.77662 0.0
H737 H 0.1742 0.66451 0.81798 0.0
H738 H 0.13664 0.70903 0.79573 0.0
H739 H 0.09665 0.71945 0.76446 0.0
H740 H 0.08332 0.62009 0.72196 0.0
H741 H 0.12091 0.57544 0.74441 0.0
C742 C 0.1512 0.59556 0.78083 0.0
C743 C 0.16593 0.60994 0.7996 0.0
C744 C 0.13083 0.62152 0.76756 0.0
C745 C 0.16133 0.65148 0.80439 0.0
C746 C 0.14032 0.67738 0.79142 0.0
C747 C 0.10233 0.68808 0.76015 0.0
C748 C 0.08761 0.67306 0.74158 0.0
C749 C 0.12446 0.66262 0.77308 0.0
C750 C 0.09504 0.63247 0.73603 0.0
C751 C 0.11626 0.60685 0.74893 0.0
H752 H 0.35413 0.12988 0.79661 0.0
H753 H 0.43215 0.20331 0.75876 0.0
H754 H 0.39941 0.17591 0.72848 0.0
H755 H 0.35193 0.1278 0.71269 0.0
H756 H 0.27202 0.05624 0.75046 0.0
H757 H 0.30221 0.08638 0.7808 0.0
C758 C 0.36316 0.14103 0.78186 0.0
C759 C 0.39529 0.16922 0.78013 0.0
C760 C 0.34413 0.12512 0.76439 0.0
C761 C 0.4075 0.18171 0.76063 0.0
C762 C 0.38879 0.16604 0.74325 0.0
C763 C 0.33999 0.11969 0.72744 0.0
C764 C 0.30909 0.09015 0.72911 0.0
C765 C 0.3574 0.13731 0.74492 0.0
C766 C 0.2957 0.0789 0.74861 0.0
C767 C 0.31293 0.09617 0.76603 0.0
H768 H 0.85582 0.36219 0.81187 0.0
H769 H 0.7733 0.43181 0.77539 0.0
H770 H 0.80109 0.40057 0.74462 0.0
H771 H 0.85215 0.35706 0.7279 0.0
H772 H 0.93399 0.28695 0.76451 0.0
H773 H 0.90263 0.31425 0.79534 0.0
C774 C 0.84287 0.36965 0.79733 0.0
C775 C 0.81195 0.39899 0.79613 0.0
C776 C 0.85909 0.35157 0.77959 0.0
C777 C 0.79706 0.40934 0.77686 0.0
C778 C 0.81292 0.39143 0.7592 0.0
C779 C 0.86231 0.34668 0.74255 0.0
C780 C 0.89513 0.31948 0.74378 0.0
C781 C 0.84433 0.36288 0.76034 0.0
C782 C 0.90875 0.30777 0.76307 0.0
C783 C 0.89087 0.32344 0.78075 0.0
H784 H 0.56622 0.79918 0.76783 0.0
H785 H 0.62493 0.86564 0.81628 0.0
H786 H 0.6642 0.90418 0.7917 0.0
H787 H 0.6795 0.92195 0.75631 0.0
H788 H 0.61473 0.86103 0.70802 0.0
H789 H 0.58067 0.81768 0.7325 0.0
C790 C 0.58784 0.82188 0.77304 0.0
C791 C 0.5934 0.82828 0.79401 0.0
C792 C 0.60938 0.84516 0.75875 0.0
C793 C 0.62116 0.85833 0.8004 0.0
C794 C 0.64327 0.88105 0.78627 0.0
C795 C 0.65816 0.89896 0.75112 0.0
C796 C 0.65099 0.894 0.73019 0.0
C797 C 0.6374 0.87496 0.76541 0.0
C798 C 0.62267 0.86446 0.72381 0.0
C799 C 0.6025 0.83997 0.73791 0.0
H800 H 0.13992 0.17281 0.41388 0.0
H801 H 0.13231 0.19367 0.34939 0.0
H802 H 0.17746 0.13645 0.3428 0.0
H803 H 0.21481 0.07706 0.35519 0.0
H804 H 0.22137 0.05633 0.41977 0.0
H805 H 0.18123 0.11687 0.42634 0.0
C806 C 0.14847 0.16519 0.39839 0.0
C807 C 0.13229 0.18726 0.38219 0.0
C808 C 0.17409 0.13196 0.39465 0.0
C809 C 0.14397 0.17701 0.3622 0.0
C810 C 0.16977 0.1442 0.35838 0.0
C811 C 0.20777 0.08598 0.37069 0.0
C812 C 0.22074 0.0618 0.38688 0.0
C813 C 0.1843 0.12088 0.37446 0.0
C814 C 0.21152 0.07404 0.40692 0.0
C815 C 0.18852 0.10876 0.41076 0.0
H816 H 0.92336 0.20902 0.3574 0.0
H817 H 0.934 0.21157 0.42275 0.0
H818 H 0.87301 0.17042 0.42599 0.0
H819 H 0.81989 0.12902 0.41049 0.0
H820 H 0.80875 0.12504 0.34523 0.0
H821 H 0.8661 0.17174 0.34188 0.0
C822 C 0.91207 0.20092 0.37234 0.0
C823 C 0.93368 0.21294 0.38974 0.0
C824 C 0.87688 0.1768 0.37419 0.0
C825 C 0.91841 0.20236 0.40901 0.0
C826 C 0.88341 0.1788 0.41095 0.0
C827 C 0.82964 0.13867 0.39552 0.0
C828 C 0.81032 0.12306 0.37818 0.0
C829 C 0.86292 0.16511 0.39365 0.0
C830 C 0.82324 0.13628 0.3589 0.0
C831 C 0.85616 0.16294 0.35693 0.0
H832 H 0.87567 0.80777 0.36225 0.0
H833 H 0.86304 0.80186 0.4275 0.0
H834 H 0.81645 0.85912 0.42711 0.0
H835 H 0.78397 0.91387 0.40887 0.0
H836 H 0.79724 0.92217 0.3438 0.0
H837 H 0.8387 0.86046 0.34352 0.0
C838 C 0.86237 0.81869 0.37636 0.0
C839 C 0.87326 0.80084 0.3949 0.0
C840 C 0.836 0.85214 0.3761 0.0
C841 C 0.85557 0.81528 0.41303 0.0
C842 C 0.82892 0.84805 0.41285 0.0
C843 C 0.79574 0.9022 0.39456 0.0
C844 C 0.78806 0.92294 0.37641 0.0
C845 C 0.81975 0.86725 0.39455 0.0
C846 C 0.80293 0.9069 0.358 0.0
C847 C 0.82671 0.8717 0.35784 0.0
H848 H 0.07243 0.786 0.35776 0.0
H849 H 0.08467 0.7599 0.42158 0.0
H850 H 0.14723 0.79905 0.42296 0.0
H851 H 0.19511 0.84566 0.40712 0.0
H852 H 0.18367 0.87369 0.34353 0.0
H853 H 0.12479 0.82853 0.34099 0.0
C854 C 0.08915 0.78844 0.37186 0.0
C855 C 0.07347 0.77056 0.38957 0.0
C856 C 0.12521 0.8116 0.37268 0.0
C857 C 0.0956 0.77389 0.40775 0.0
C858 C 0.13151 0.79626 0.40859 0.0
C859 C 0.18007 0.84165 0.39263 0.0
C860 C 0.19352 0.86351 0.37565 0.0
C861 C 0.14601 0.81609 0.39131 0.0
C862 C 0.17384 0.85747 0.35694 0.0
C863 C 0.14003 0.83171 0.35546 0.0
H864 H 0.1941 0.93343 0.66219 0.0
H865 H 0.17236 0.9499 0.59815 0.0
H866 H 0.13132 0.88845 0.59721 0.0
H867 H 0.09947 0.83148 0.61456 0.0
H868 H 0.11948 0.81481 0.67866 0.0
H869 H 0.16372 0.87454 0.67944 0.0
C870 C 0.18035 0.92358 0.64805 0.0
C871 C 0.18618 0.94644 0.63034 0.0
C872 C 0.15662 0.88805 0.64754 0.0
C873 C 0.16836 0.93304 0.61208 0.0
C874 C 0.14488 0.8978 0.61147 0.0
C875 C 0.11384 0.84057 0.62867 0.0
C876 C 0.10603 0.81883 0.64651 0.0
C877 C 0.13862 0.87522 0.62911 0.0
C878 C 0.12484 0.83116 0.66469 0.0
C879 C 0.15005 0.86538 0.66518 0.0
H880 H 0.17417 0.14054 0.6615 0.0
H881 H 0.19134 0.16213 0.59741 0.0
H882 H 0.13568 0.21081 0.59797 0.0
H883 H 0.07733 0.2403 0.6155 0.0
H884 H 0.05736 0.21643 0.67914 0.0
H885 H 0.11945 0.17583 0.67993 0.0
C886 C 0.16627 0.15644 0.64772 0.0
C887 C 0.18649 0.14724 0.62937 0.0
C888 C 0.13349 0.18356 0.64801 0.0
C889 C 0.17597 0.16827 0.61169 0.0
C890 C 0.14407 0.19603 0.61198 0.0
C891 C 0.08666 0.22656 0.62963 0.0
C892 C 0.06233 0.23073 0.64714 0.0
C893 C 0.12177 0.20274 0.62987 0.0
C894 C 0.07534 0.21337 0.66539 0.0
C895 C 0.11077 0.19007 0.66584 0.0
H896 H 0.77824 0.08527 0.61387 0.0
H897 H 0.77598 0.07078 0.67897 0.0
H898 H 0.8183 0.13155 0.68292 0.0
H899 H 0.85928 0.18611 0.66768 0.0
H900 H 0.86231 0.19872 0.60244 0.0
H901 H 0.81596 0.14131 0.59885 0.0
C902 C 0.78678 0.09538 0.62897 0.0
C903 C 0.77426 0.07323 0.64608 0.0
C904 C 0.81131 0.12995 0.63111 0.0
C905 C 0.78535 0.08713 0.66552 0.0
C906 C 0.80958 0.12185 0.66779 0.0
C907 C 0.84952 0.17657 0.65268 0.0
C908 C 0.86456 0.19653 0.63536 0.0
C909 C 0.82324 0.14312 0.65066 0.0
C910 C 0.85149 0.18378 0.61604 0.0
C911 C 0.82499 0.15091 0.61395 0.0
H912 H 0.90623 0.78808 0.62013 0.0
H913 H 0.90288 0.79011 0.68571 0.0
H914 H 0.84095 0.8309 0.68499 0.0
H915 H 0.79207 0.87091 0.66583 0.0
H916 H 0.798 0.8718 0.60029 0.0
H917 H 0.85473 0.8242 0.60098 0.0
C918 C 0.89189 0.79709 0.63433 0.0
C919 C 0.90952 0.78648 0.65298 0.0
C920 C 0.85694 0.82111 0.6338 0.0
C921 C 0.89017 0.79812 0.67116 0.0
C922 C 0.85481 0.82148 0.67075 0.0
C923 C 0.80539 0.86041 0.65164 0.0
C924 C 0.79109 0.87532 0.63302 0.0
C925 C 0.83856 0.83392 0.65216 0.0
C926 C 0.80859 0.86108 0.61482 0.0
C927 C 0.84109 0.83396 0.61521 0.0
H928 H 0.62132 0.66399 0.91829 0.0
H929 H 0.62382 0.67561 0.85305 0.0
H930 H 0.66875 0.61695 0.85028 0.0
H931 H 0.70322 0.55925 0.86628 0.0
H932 H 0.69918 0.54808 0.93159 0.0
H933 H 0.65905 0.60962 0.9343 0.0
C934 C 0.63196 0.65402 0.90345 0.0
C935 C 0.61881 0.67391 0.88593 0.0
C936 C 0.65728 0.62004 0.90192 0.0
C937 C 0.63322 0.66069 0.86683 0.0
C938 C 0.65884 0.62705 0.8652 0.0
C939 C 0.69376 0.57042 0.88109 0.0
C940 C 0.70385 0.54871 0.89863 0.0
C941 C 0.67037 0.60594 0.88263 0.0
C942 C 0.69159 0.56385 0.91776 0.0
C943 C 0.66862 0.59915 0.91938 0.0
H944 H 0.4139 0.70006 0.91481 0.0
H945 H 0.41618 0.7053 0.8493 0.0
H946 H 0.3527 0.66659 0.84795 0.0
H947 H 0.3008 0.62598 0.86519 0.0
H948 H 0.30081 0.61793 0.93063 0.0
H949 H 0.35915 0.66389 0.93214 0.0
C950 C 0.40049 0.69303 0.90019 0.0
C951 C 0.42012 0.70503 0.88216 0.0
C952 C 0.3645 0.6703 0.89952 0.0
C953 C 0.40191 0.69611 0.8634 0.0
C954 C 0.36565 0.67397 0.86262 0.0
C955 C 0.31313 0.63466 0.87984 0.0
C956 C 0.29678 0.61809 0.89777 0.0
C957 C 0.34727 0.66013 0.88057 0.0
C958 C 0.31302 0.62995 0.91659 0.0
C959 C 0.34646 0.6561 0.91746 0.0
H960 H 0.36321 0.30765 0.85593 0.0
H961 H 0.3505 0.28096 0.91976 0.0
H962 H 0.30584 0.33928 0.92423 0.0
H963 H 0.27545 0.40072 0.91079 0.0
H964 H 0.28923 0.42927 0.84725 0.0
H965 H 0.32846 0.36708 0.84191 0.0
C966 C 0.35014 0.31419 0.87075 0.0
C967 C 0.36048 0.29023 0.88752 0.0
C968 C 0.32516 0.34832 0.87333 0.0
C969 C 0.34332 0.29914 0.90663 0.0
C970 C 0.31787 0.33254 0.90922 0.0
C971 C 0.2869 0.39339 0.89573 0.0
C972 C 0.27993 0.4199 0.87951 0.0
C973 C 0.30952 0.3579 0.89281 0.0
C974 C 0.29444 0.40952 0.86004 0.0
C975 C 0.31686 0.37398 0.85697 0.0
H976 H 0.67356 0.35847 0.86359 0.0
H977 H 0.68864 0.33112 0.92715 0.0
H978 H 0.63124 0.28422 0.92568 0.0
H979 H 0.57337 0.25649 0.90747 0.0
H980 H 0.55551 0.28535 0.84434 0.0
H981 H 0.61804 0.32604 0.84449 0.0
C982 C 0.66469 0.3418 0.87706 0.0
C983 C 0.68503 0.34867 0.89553 0.0
C984 C 0.63107 0.31556 0.87623 0.0
C985 C 0.67323 0.32674 0.91281 0.0
C986 C 0.64039 0.29997 0.912 0.0
C987 C 0.58313 0.2715 0.89366 0.0
C988 C 0.55946 0.26855 0.87601 0.0
C989 C 0.61847 0.29512 0.89397 0.0
C990 C 0.57305 0.28746 0.85817 0.0
C991 C 0.6087 0.31076 0.85827 0.0
H992 H 0.61272 0.30146 0.16605 0.0
H993 H 0.61002 0.30012 0.10046 0.0
H994 H 0.65585 0.35841 0.09965 0.0
H995 H 0.69305 0.41183 0.11731 0.0
H996 H 0.69507 0.41522 0.18285 0.0
H997 H 0.65315 0.35359 0.18386 0.0
C998 C 0.62242 0.31365 0.15155 0.0
C999 C 0.60763 0.29656 0.13334 0.0
C1000 C 0.64839 0.34759 0.15117 0.0
C1001 C 0.62065 0.31276 0.11472 0.0
C1002 C 0.64684 0.34615 0.11422 0.0
C1003 C 0.68451 0.39917 0.13188 0.0
C1004 C 0.69686 0.41842 0.15 0.0
C1005 C 0.66026 0.36417 0.13234 0.0
C1006 C 0.68584 0.40115 0.16868 0.0
C1007 C 0.66183 0.36596 0.16926 0.0
H1008 H 0.56778 0.70427 0.16624 0.0
H1009 H 0.56834 0.71596 0.10097 0.0
H1010 H 0.62949 0.67502 0.09857 0.0
H1011 H 0.67822 0.6298 0.11443 0.0
H1012 H 0.6779 0.61669 0.17959 0.0
H1013 H 0.62179 0.66468 0.18253 0.0
C1014 C 0.58168 0.69841 0.15154 0.0
C1015 C 0.56303 0.71253 0.13382 0.0
C1016 C 0.61675 0.67428 0.15017 0.0
C1017 C 0.58161 0.70489 0.11487 0.0
C1018 C 0.61665 0.68146 0.11344 0.0
C1019 C 0.66623 0.63775 0.12931 0.0
C1020 C 0.68177 0.6191 0.14669 0.0
C1021 C 0.63371 0.66496 0.13091 0.0
C1022 C 0.66627 0.6303 0.16589 0.0
C1023 C 0.63406 0.65768 0.16761 0.0
H1024 H 0.28286 0.56113 0.16391 0.0
H1025 H 0.29284 0.53302 0.09987 0.0
H1026 H 0.33346 0.59369 0.09456 0.0
H1027 H 0.36765 0.65379 0.10787 0.0
H1028 H 0.35931 0.68271 0.17179 0.0
H1029 H 0.31629 0.62307 0.17722 0.0
C1030 C 0.29401 0.56826 0.14882 0.0
C1031 C 0.28481 0.54238 0.13238 0.0
C1032 C 0.31751 0.60351 0.14576 0.0
C1033 C 0.29933 0.55228 0.11288 0.0
C1034 C 0.32261 0.58707 0.10976 0.0
C1035 C 0.35616 0.64736 0.12298 0.0
C1036 C 0.36683 0.67265 0.13937 0.0
C1037 C 0.33196 0.61283 0.12606 0.0
C1038 C 0.35169 0.66367 0.15886 0.0
C1039 C 0.32716 0.62949 0.16202 0.0
H1040 H 0.29938 0.34715 0.16578 0.0
H1041 H 0.27602 0.32856 0.10189 0.0
H1042 H 0.33228 0.2808 0.09967 0.0
H1043 H 0.39295 0.25148 0.1147 0.0
H1044 H 0.41828 0.27166 0.17823 0.0
H1045 H 0.35598 0.31141 0.18176 0.0
C1046 C 0.30609 0.33213 0.15144 0.0
C1047 C 0.28398 0.34204 0.13395 0.0
C1048 C 0.3391 0.3054 0.15013 0.0
C1049 C 0.29287 0.32195 0.11554 0.0
C1050 C 0.32513 0.2947 0.11423 0.0
C1051 C 0.38471 0.26424 0.12939 0.0
C1052 C 0.4106 0.25934 0.14608 0.0
C1053 C 0.34931 0.28743 0.13124 0.0
C1054 C 0.39905 0.27533 0.16509 0.0
C1055 C 0.36349 0.29814 0.16711 0.0
H1056 H 0.07024 0.31032 0.49514 0.0
H1057 H -0.0016 0.21287 0.46959 0.0
H1058 H 0.96468 0.20268 0.50229 0.0
H1059 H 0.95564 0.22114 0.53827 0.0
H1060 H 0.02409 0.3215 0.56341 0.0
H1061 H 0.05861 0.3311 0.53086 0.0
C1062 C 0.04737 0.28674 0.49681 0.0
C1063 C 0.03715 0.26212 0.48001 0.0
C1064 C 0.02722 0.28174 0.51558 0.0
C1065 C 0.00689 0.23218 0.48229 0.0
C1066 C 0.98755 0.22633 0.50099 0.0
C1067 C 0.97799 0.24521 0.53661 0.0
C1068 C 0.98731 0.2704 0.55333 0.0
C1069 C -0.00258 0.25093 0.51774 0.0
C1070 C 0.01616 0.3017 0.55082 0.0
C1071 C 0.03611 0.30711 0.5322 0.0
H1072 H 0.76355 0.94519 0.53194 0.0
H1073 H 0.69038 0.04213 0.55707 0.0
H1074 H 0.68387 0.07196 0.52345 0.0
H1075 H 0.69921 0.07088 0.48674 0.0
H1076 H 0.77079 0.97269 0.46166 0.0
H1077 H 0.77765 0.94331 0.4953 0.0
C1078 C 0.74613 0.97282 0.53009 0.0
C1079 C 0.72764 0.99136 0.5471 0.0
C1080 C 0.74227 0.98978 0.51065 0.0
C1081 C 0.70501 0.02711 0.54431 0.0
C1082 C 0.7013 0.04429 0.52505 0.0
C1083 C 0.71642 0.04315 0.48865 0.0
C1084 C 0.73456 0.0242 0.47164 0.0
C1085 C 0.7199 0.02599 0.5081 0.0
C1086 C 0.75643 0.988 0.47442 0.0
C1087 C 0.76042 0.9711 0.49369 0.0
H1088 H 0.05 0.76789 0.54452 0.0
H1089 H 0.95301 0.69675 0.57094 0.0
H1090 H 0.9239 0.68527 0.53741 0.0
H1091 H 0.92525 0.69626 0.50045 0.0
H1092 H 0.02387 0.7651 0.47405 0.0
H1093 H 0.05281 0.77665 0.50759 0.0
C1094 C 0.02255 0.7498 0.54295 0.0
C1095 C 0.00368 0.73344 0.56027 0.0
C1096 C 0.00608 0.74297 0.52358 0.0
C1097 C 0.96824 0.70979 0.5579 0.0
C1098 C 0.95145 0.70325 0.53871 0.0
C1099 C 0.95302 0.71384 0.50207 0.0
C1100 C 0.97222 0.72993 0.48478 0.0
C1101 C 0.96995 0.71989 0.52143 0.0
C1102 C 0.00848 0.75226 0.4871 0.0
C1103 C 0.02508 0.75896 0.50629 0.0
H1104 H 0.31576 0.04577 0.52704 0.0
H1105 H 0.1912 0.02301 0.54418 0.0
H1106 H 0.17827 0.99113 0.51115 0.0
H1107 H 0.20228 0.97025 0.47727 0.0
H1108 H 0.32827 0.98799 0.46099 0.0
H1109 H 0.34099 0.02054 0.49382 0.0
C1110 C 0.28579 0.03407 0.52339 0.0
C1111 C 0.25424 0.03725 0.53776 0.0
C1112 C 0.27899 0.01444 0.50463 0.0
C1113 C 0.21577 0.02111 0.53319 0.0
C1114 C 0.20842 0.0028 0.51437 0.0
C1115 C 0.23259 0.98095 0.48097 0.0
C1116 C 0.26419 0.9768 0.46666 0.0
C1117 C 0.2398 -0.00075 0.49997 0.0
C1118 C 0.3034 0.99056 0.47176 0.0
C1119 C 0.31066 0.00948 0.49049 0.0
H1120 H 0.46331 0.75243 0.96992 0.0
H1121 H 0.58738 0.74352 0.99039 0.0
H1122 H 0.56404 0.74443 0.02564 0.0
H1123 H 0.5086 0.7472 0.05064 0.0
H1124 H 0.38434 0.75452 0.03032 0.0
H1125 H 0.40767 0.75475 0.99501 0.0
C1126 C 0.48532 0.75077 0.98208 0.0
C1127 C 0.52712 0.74795 0.97746 0.0
C1128 C 0.47165 0.75096 1.00235 0.0
C1129 C 0.55508 0.74566 0.99345 0.0
C1130 C 0.54175 0.74619 0.01364 0.0
C1131 C 0.48652 0.74891 0.03851 0.0
C1132 C 0.4447 0.75087 0.04318 0.0
C1133 C 0.50013 0.74874 0.01826 0.0
C1134 C 0.41666 0.7529 0.02721 0.0
C1135 C 0.43 0.75308 1.007 0.0
H1136 H 0.19412 0.49635 0.05289 0.0
H1137 H 0.23677 0.37748 0.03471 0.0
H1138 H 0.23762 0.39846 0.99923 0.0
H1139 H 0.22862 0.45123 0.97348 0.0
H1140 H 0.18805 0.57073 0.99182 0.0
H1141 H 0.18411 0.54877 0.02709 0.0
C1142 C 0.20329 0.47487 0.04117 0.0
C1143 C 0.21537 0.43535 0.0465 0.0
C1144 C 0.20436 0.48733 0.02081 0.0
C1145 C 0.22737 0.40808 0.03108 0.0
C1146 C 0.22794 0.42007 1.01076 0.0
C1147 C 0.2188 0.47248 0.98517 0.0
C1148 C 0.20878 0.51265 0.97996 0.0
C1149 C 0.21691 0.45975 1.00547 0.0
C1150 C 0.19614 0.53971 0.99536 0.0
C1151 C 0.19381 0.52716 0.01555 0.0
H1152 H 0.55818 0.21351 0.02998 0.0
H1153 H 0.43979 0.21128 0.05855 0.0
H1154 H 0.40741 0.20904 0.02537 0.0
H1155 H 0.4124 0.20913 0.98809 0.0
H1156 H 0.53086 0.20977 0.95955 0.0
H1157 H 0.56321 0.21106 0.99273 0.0
C1158 C 0.52531 0.21249 0.02896 0.0
C1159 C 0.50157 0.21278 0.0468 0.0
C1160 C 0.50674 0.21093 1.00977 0.0
C1161 C 0.45895 0.21113 0.04513 0.0
C1162 C 0.44031 0.20989 0.02612 0.0
C1163 C 0.44528 0.20944 0.98911 0.0
C1164 C 0.46903 0.20953 0.97128 0.0
C1165 C 0.46386 0.20999 1.00832 0.0
C1166 C 0.51168 0.20969 0.97297 0.0
C1167 C 0.53031 0.21051 0.99198 0.0
H1168 H 0.76007 0.50225 0.98084 0.0
H1169 H 0.74849 0.37822 1.00103 0.0
H1170 H 0.74615 0.40165 0.03632 0.0
H1171 H 0.74639 0.45741 0.06144 0.0
H1172 H 0.75596 0.58151 0.04109 0.0
H1173 H 0.75996 0.55792 1.0059 0.0
C1174 C 0.75724 0.48025 0.99294 0.0
C1175 C 0.75456 0.43845 0.98823 0.0
C1176 C 0.75535 0.49398 0.0132 0.0
C1177 C 0.7506 0.41052 1.00416 0.0
C1178 C 0.74923 0.42392 0.02437 0.0
C1179 C 0.74936 0.47935 0.04933 0.0
C1180 C 0.75084 0.52125 0.05398 0.0
C1181 C 0.75138 0.46559 0.02907 0.0
C1182 C 0.75462 0.54914 0.03802 0.0
C1183 C 0.75699 0.53566 0.01786 0.0
loop_
_geom_bond_atom_site_label_1
_geom_bond_atom_site_label_2
_geom_bond_distance
_geom_bond_site_symmetry_2
_ccdc_geom_bond_type
Co0 O3 1.970 . S
Co0 N17 1.989 . S
Co0 O25 1.967 1_455 S
Co0 O32 1.920 . S
Co1 O4 1.966 . S
Co1 N10 2.022 . S
Co1 N18 1.993 . S
Co1 O26 1.941 1_455 S
C2 O3 1.258 . S
C2 O4 1.263 . S
O3 Co0 1.970 . S
O3 C2 1.258 . S
O4 Co1 1.966 . S
O4 C2 1.263 . S
C5 O6 1.235 . S
C5 O32 1.289 . S
O6 C5 1.235 . S
C7 C9 1.400 . S
C7 N10 1.351 . S
C7 C12 1.501 . S
C8 C9 1.387 . S
C8 N11 1.341 . S
C9 C7 1.400 . S
C9 C8 1.387 . S
N10 Co1 2.022 . S
N10 C7 1.351 . S
N10 N11 1.365 . S
N11 C8 1.341 . S
N11 N10 1.365 . S
N11 H31 0.862 1_455 S
C12 C7 1.501 . S
C12 H13 0.961 . S
C12 H14 0.961 . S
C12 H15 0.960 . S
H13 C12 0.961 . S
H14 C12 0.961 . S
H15 C12 0.960 . S
C16 N17 1.342 . S
C16 C20 1.401 . S
C16 C21 1.499 . S
N17 Co0 1.989 . S
N17 C16 1.342 . S
N17 N18 1.388 . S
N18 Co1 1.993 . S
N18 N17 1.388 . S
N18 C19 1.346 . S
C19 N18 1.346 . S
C19 C20 1.396 . S
C19 C29 1.510 . S
C20 C16 1.401 . S
C20 C19 1.396 . S
C21 C16 1.499 . S
C21 H22 0.959 . S
C21 H23 0.960 . S
C21 H24 0.961 1_455 S
H22 C21 0.959 . S
H23 C21 0.960 . S
H24 C21 0.961 1_655 S
O25 Co0 1.967 1_655 S
O25 C33 1.258 . S
O26 Co1 1.941 1_655 S
O26 C33 1.266 . S
H27 C29 0.959 . S
H28 C29 0.961 . S
C29 C19 1.510 . S
C29 H27 0.959 . S
C29 H28 0.961 . S
C29 H30 0.960 . S
H30 C29 0.960 . S
H31 N11 0.862 1_655 S
O32 Co0 1.920 . S
O32 C5 1.289 . S
C33 O25 1.258 . S
C33 O26 1.266 . S
Co34 O37 1.970 . S
Co34 N51 1.989 . S
Co34 O59 1.967 1_545 S
Co34 O66 1.920 . S
Co35 O38 1.966 . S
Co35 N44 2.022 . S
Co35 N52 1.993 . S
Co35 O60 1.941 1_545 S
C36 O37 1.258 . S
C36 O38 1.263 . S
O37 Co34 1.970 . S
O37 C36 1.258 . S
O38 Co35 1.966 . S
O38 C36 1.263 . S
C39 O40 1.235 . S
C39 O66 1.289 . S
O40 C39 1.235 . S
C41 C43 1.400 . S
C41 N44 1.351 . S
C41 C46 1.501 . S
C42 C43 1.387 . S
C42 N45 1.341 . S
C43 C41 1.400 . S
C43 C42 1.387 . S
N44 Co35 2.022 . S
N44 C41 1.351 . S
N44 N45 1.365 . S
N45 C42 1.341 . S
N45 N44 1.365 . S
N45 H65 0.862 1_545 S
C46 C41 1.501 . S
C46 H47 0.961 . S
C46 H48 0.961 . S
C46 H49 0.960 . S
H47 C46 0.961 . S
H48 C46 0.961 . S
H49 C46 0.960 . S
C50 N51 1.342 . S
C50 C54 1.401 . S
C50 C55 1.499 . S
N51 Co34 1.989 . S
N51 C50 1.342 . S
N51 N52 1.388 . S
N52 Co35 1.993 . S
N52 N51 1.388 . S
N52 C53 1.346 . S
C53 N52 1.346 . S
C53 C54 1.396 . S
C53 C63 1.510 . S
C54 C50 1.401 . S
C54 C53 1.396 . S
C55 C50 1.499 . S
C55 H56 0.959 . S
C55 H57 0.960 . S
C55 H58 0.961 1_545 S
H56 C55 0.959 . S
H57 C55 0.960 . S
H58 C55 0.961 1_565 S
O59 Co34 1.967 1_565 S
O59 C67 1.258 . S
O60 Co35 1.941 1_565 S
O60 C67 1.266 . S
H61 C63 0.959 . S
H62 C63 0.961 . S
C63 C53 1.510 . S
C63 H61 0.959 . S
C63 H62 0.961 . S
C63 H64 0.960 . S
H64 C63 0.960 . S
H65 N45 0.862 1_565 S
O66 Co34 1.920 . S
O66 C39 1.289 . S
C67 O59 1.258 . S
C67 O60 1.266 . S
Co68 O71 1.970 . S
Co68 N85 1.989 . S
Co68 O93 1.967 1_655 S
Co68 O100 1.920 . S
Co69 O72 1.966 . S
Co69 N78 2.022 . S
Co69 N86 1.993 . S
Co69 O94 1.941 1_655 S
C70 O71 1.258 . S
C70 O72 1.263 . S
O71 Co68 1.970 . S
O71 C70 1.258 . S
O72 Co69 1.966 . S
O72 C70 1.263 . S
C73 O74 1.235 . S
C73 O100 1.289 . S
O74 C73 1.235 . S
C75 C77 1.400 . S
C75 N78 1.351 . S
C75 C80 1.501 . S
C76 C77 1.387 . S
C76 N79 1.341 . S
C77 C75 1.400 . S
C77 C76 1.387 . S
N78 Co69 2.022 . S
N78 C75 1.351 . S
N78 N79 1.365 . S
N79 C76 1.341 . S
N79 N78 1.365 . S
N79 H99 0.862 1_655 S
C80 C75 1.501 . S
C80 H81 0.961 . S
C80 H82 0.961 . S
C80 H83 0.960 . S
H81 C80 0.961 . S
H82 C80 0.961 . S
H83 C80 0.960 . S
C84 N85 1.342 . S
C84 C88 1.401 . S
C84 C89 1.499 . S
N85 Co68 1.989 . S
N85 C84 1.342 . S
N85 N86 1.388 . S
N86 Co69 1.993 . S
N86 N85 1.388 . S
N86 C87 1.346 . S
C87 N86 1.346 . S
C87 C88 1.396 . S
C87 C97 1.510 . S
C88 C84 1.401 . S
C88 C87 1.396 . S
C89 C84 1.499 . S
C89 H90 0.959 . S
C89 H91 0.960 . S
C89 H92 0.961 1_655 S
H90 C89 0.959 . S
H91 C89 0.960 . S
H92 C89 0.961 1_455 S
O93 Co68 1.967 1_455 S
O93 C101 1.258 . S
O94 Co69 1.941 1_455 S
O94 C101 1.266 . S
H95 C97 0.959 . S
H96 C97 0.961 . S
C97 C87 1.510 . S
C97 H95 0.959 . S
C97 H96 0.961 . S
C97 H98 0.960 . S
H98 C97 0.960 . S
H99 N79 0.862 1_455 S
O100 Co68 1.920 . S
O100 C73 1.289 . S
C101 O93 1.258 . S
C101 O94 1.266 . S
Co102 O105 1.970 . S
Co102 N119 1.989 . S
Co102 O127 1.967 1_565 S
Co102 O134 1.920 . S
Co103 O106 1.966 . S
Co103 N112 2.022 . S
Co103 N120 1.993 . S
Co103 O128 1.941 1_565 S
C104 O105 1.258 . S
C104 O106 1.263 . S
O105 Co102 1.970 . S
O105 C104 1.258 . S
O106 Co103 1.966 . S
O106 C104 1.263 . S
C107 O108 1.235 . S
C107 O134 1.289 . S
O108 C107 1.235 . S
C109 C111 1.400 . S
C109 N112 1.351 . S
C109 C114 1.501 . S
C110 C111 1.387 . S
C110 N113 1.341 . S
C111 C109 1.400 . S
C111 C110 1.387 . S
N112 Co103 2.022 . S
N112 C109 1.351 . S
N112 N113 1.365 . S
N113 C110 1.341 . S
N113 N112 1.365 . S
N113 H133 0.862 1_565 S
C114 C109 1.501 . S
C114 H115 0.961 . S
C114 H116 0.961 . S
C114 H117 0.960 . S
H115 C114 0.961 . S
H116 C114 0.961 . S
H117 C114 0.960 . S
C118 N119 1.342 . S
C118 C122 1.401 . S
C118 C123 1.499 . S
N119 Co102 1.989 . S
N119 C118 1.342 . S
N119 N120 1.388 . S
N120 Co103 1.993 . S
N120 N119 1.388 . S
N120 C121 1.346 . S
C121 N120 1.346 . S
C121 C122 1.396 . S
C121 C131 1.510 . S
C122 C118 1.401 . S
C122 C121 1.396 . S
C123 C118 1.499 . S
C123 H124 0.959 . S
C123 H125 0.960 . S
C123 H126 0.961 1_565 S
H124 C123 0.959 . S
H125 C123 0.960 . S
H126 C123 0.961 1_545 S
O127 Co102 1.967 1_545 S
O127 C135 1.258 . S
O128 Co103 1.941 1_545 S
O128 C135 1.266 . S
H129 C131 0.959 . S
H130 C131 0.961 . S
C131 C121 1.510 . S
C131 H129 0.959 . S
C131 H130 0.961 . S
C131 H132 0.960 . S
H132 C131 0.960 . S
H133 N113 0.862 1_545 S
O134 Co102 1.920 . S
O134 C107 1.289 . S
C135 O127 1.258 . S
C135 O128 1.266 . S
Co136 O139 1.970 . S
Co136 N153 1.989 . S
Co136 O161 1.967 1_455 S
Co136 O168 1.920 . S
Co137 O140 1.966 . S
Co137 N146 2.022 . S
Co137 N154 1.993 . S
Co137 O162 1.941 1_455 S
C138 O139 1.258 . S
C138 O140 1.263 . S
O139 Co136 1.970 . S
O139 C138 1.258 . S
O140 Co137 1.966 . S
O140 C138 1.263 . S
C141 O142 1.235 . S
C141 O168 1.289 . S
O142 C141 1.235 . S
C143 C145 1.400 . S
C143 N146 1.351 . S
C143 C148 1.501 . S
C144 C145 1.387 . S
C144 N147 1.341 . S
C145 C143 1.400 . S
C145 C144 1.387 . S
N146 Co137 2.022 . S
N146 C143 1.351 . S
N146 N147 1.365 . S
N147 C144 1.341 . S
N147 N146 1.365 . S
N147 H167 0.862 1_455 S
C148 C143 1.501 . S
C148 H149 0.961 . S
C148 H150 0.961 . S
C148 H151 0.960 . S
H149 C148 0.961 . S
H150 C148 0.961 . S
H151 C148 0.960 . S
C152 N153 1.342 . S
C152 C156 1.401 . S
C152 C157 1.499 . S
N153 Co136 1.989 . S
N153 C152 1.342 . S
N153 N154 1.388 . S
N154 Co137 1.993 . S
N154 N153 1.388 . S
N154 C155 1.346 . S
C155 N154 1.346 . S
C155 C156 1.396 . S
C155 C165 1.510 . S
C156 C152 1.401 . S
C156 C155 1.396 . S
C157 C152 1.499 . S
C157 H158 0.959 . S
C157 H159 0.960 . S
C157 H160 0.961 1_455 S
H158 C157 0.959 . S
H159 C157 0.960 . S
H160 C157 0.961 1_655 S
O161 Co136 1.967 1_655 S
O161 C169 1.258 . S
O162 Co137 1.941 1_655 S
O162 C169 1.266 . S
H163 C165 0.959 . S
H164 C165 0.961 . S
C165 C155 1.510 . S
C165 H163 0.959 . S
C165 H164 0.961 . S
C165 H166 0.960 . S
H166 C165 0.960 . S
H167 N147 0.862 1_655 S
O168 Co136 1.920 . S
O168 C141 1.289 . S
C169 O161 1.258 . S
C169 O162 1.266 . S
Co170 O173 1.970 . S
Co170 N187 1.989 . S
Co170 O195 1.967 1_545 S
Co170 O202 1.920 . S
Co171 O174 1.966 . S
Co171 N180 2.022 . S
Co171 N188 1.993 . S
Co171 O196 1.941 1_545 S
C172 O173 1.258 . S
C172 O174 1.263 . S
O173 Co170 1.970 . S
O173 C172 1.258 . S
O174 Co171 1.966 . S
O174 C172 1.263 . S
C175 O176 1.235 . S
C175 O202 1.289 . S
O176 C175 1.235 . S
C177 C179 1.400 . S
C177 N180 1.351 . S
C177 C182 1.501 . S
C178 C179 1.387 . S
C178 N181 1.341 . S
C179 C177 1.400 . S
C179 C178 1.387 . S
N180 Co171 2.022 . S
N180 C177 1.351 . S
N180 N181 1.365 . S
N181 C178 1.341 . S
N181 N180 1.365 . S
N181 H201 0.862 1_545 S
C182 C177 1.501 . S
C182 H183 0.961 . S
C182 H184 0.961 . S
C182 H185 0.960 . S
H183 C182 0.961 . S
H184 C182 0.961 . S
H185 C182 0.960 . S
C186 N187 1.342 . S
C186 C190 1.401 . S
C186 C191 1.499 . S
N187 Co170 1.989 . S
N187 C186 1.342 . S
N187 N188 1.388 . S
N188 Co171 1.993 . S
N188 N187 1.388 . S
N188 C189 1.346 . S
C189 N188 1.346 . S
C189 C190 1.396 . S
C189 C199 1.510 . S
C190 C186 1.401 . S
C190 C189 1.396 . S
C191 C186 1.499 . S
C191 H192 0.959 . S
C191 H193 0.960 . S
C191 H194 0.961 1_545 S
H192 C191 0.959 . S
H193 C191 0.960 . S
H194 C191 0.961 1_565 S
O195 Co170 1.967 1_565 S
O195 C203 1.258 . S
O196 Co171 1.941 1_565 S
O196 C203 1.266 . S
H197 C199 0.959 . S
H198 C199 0.961 . S
C199 C189 1.510 . S
C199 H197 0.959 . S
C199 H198 0.961 . S
C199 H200 0.960 . S
H200 C199 0.960 . S
H201 N181 0.862 1_565 S
O202 Co170 1.920 . S
O202 C175 1.289 . S
C203 O195 1.258 . S
C203 O196 1.266 . S
Co204 O207 1.970 . S
Co204 N221 1.989 . S
Co204 O229 1.967 1_655 S
Co204 O236 1.920 . S
Co205 O208 1.966 . S
Co205 N214 2.022 . S
Co205 N222 1.993 . S
Co205 O230 1.941 1_655 S
C206 O207 1.258 . S
C206 O208 1.263 . S
O207 Co204 1.970 . S
O207 C206 1.258 . S
O208 Co205 1.966 . S
O208 C206 1.263 . S
C209 O210 1.235 . S
C209 O236 1.289 . S
O210 C209 1.235 . S
C211 C213 1.400 . S
C211 N214 1.351 . S
C211 C216 1.501 . S
C212 C213 1.387 . S
C212 N215 1.341 . S
C213 C211 1.400 . S
C213 C212 1.387 . S
N214 Co205 2.022 . S
N214 C211 1.351 . S
N214 N215 1.365 . S
N215 C212 1.341 . S
N215 N214 1.365 . S
N215 H235 0.862 1_655 S
C216 C211 1.501 . S
C216 H217 0.961 . S
C216 H218 0.961 . S
C216 H219 0.960 . S
H217 C216 0.961 . S
H218 C216 0.961 . S
H219 C216 0.960 . S
C220 N221 1.342 . S
C220 C224 1.401 . S
C220 C225 1.499 . S
N221 Co204 1.989 . S
N221 C220 1.342 . S
N221 N222 1.388 . S
N222 Co205 1.993 . S
N222 N221 1.388 . S
N222 C223 1.346 . S
C223 N222 1.346 . S
C223 C224 1.396 . S
C223 C233 1.510 . S
C224 C220 1.401 . S
C224 C223 1.396 . S
C225 C220 1.499 . S
C225 H226 0.959 . S
C225 H227 0.960 . S
C225 H228 0.961 1_655 S
H226 C225 0.959 . S
H227 C225 0.960 . S
H228 C225 0.961 1_455 S
O229 Co204 1.967 1_455 S
O229 C237 1.258 . S
O230 Co205 1.941 1_455 S
O230 C237 1.266 . S
H231 C233 0.959 . S
H232 C233 0.961 . S
C233 C223 1.510 . S
C233 H231 0.959 . S
C233 H232 0.961 . S
C233 H234 0.960 . S
H234 C233 0.960 . S
H235 N215 0.862 1_455 S
O236 Co204 1.920 . S
O236 C209 1.289 . S
C237 O229 1.258 . S
C237 O230 1.266 . S
Co238 O241 1.970 . S
Co238 N255 1.989 . S
Co238 O263 1.967 1_565 S
Co238 O270 1.920 . S
Co239 O242 1.966 . S
Co239 N248 2.022 . S
Co239 N256 1.993 . S
Co239 O264 1.941 1_565 S
C240 O241 1.258 . S
C240 O242 1.263 . S
O241 Co238 1.970 . S
O241 C240 1.258 . S
O242 Co239 1.966 . S
O242 C240 1.263 . S
C243 O244 1.235 . S
C243 O270 1.289 . S
O244 C243 1.235 . S
C245 C247 1.400 . S
C245 N248 1.351 . S
C245 C250 1.501 . S
C246 C247 1.387 . S
C246 N249 1.341 . S
C247 C245 1.400 . S
C247 C246 1.387 . S
N248 Co239 2.022 . S
N248 C245 1.351 . S
N248 N249 1.365 . S
N249 C246 1.341 . S
N249 N248 1.365 . S
N249 H269 0.862 1_565 S
C250 C245 1.501 . S
C250 H251 0.961 . S
C250 H252 0.961 . S
C250 H253 0.960 . S
H251 C250 0.961 . S
H252 C250 0.961 . S
H253 C250 0.960 . S
C254 N255 1.342 . S
C254 C258 1.401 . S
C254 C259 1.499 . S
N255 Co238 1.989 . S
N255 C254 1.342 . S
N255 N256 1.388 . S
N256 Co239 1.993 . S
N256 N255 1.388 . S
N256 C257 1.346 . S
C257 N256 1.346 . S
C257 C258 1.396 . S
C257 C267 1.510 . S
C258 C254 1.401 . S
C258 C257 1.396 . S
C259 C254 1.499 . S
C259 H260 0.959 . S
C259 H261 0.960 . S
C259 H262 0.961 1_565 S
H260 C259 0.959 . S
H261 C259 0.960 . S
H262 C259 0.961 1_545 S
O263 Co238 1.967 1_545 S
O263 C271 1.258 . S
O264 Co239 1.941 1_545 S
O264 C271 1.266 . S
H265 C267 0.959 . S
H266 C267 0.961 . S
C267 C257 1.510 . S
C267 H265 0.959 . S
C267 H266 0.961 . S
C267 H268 0.960 . S
H268 C267 0.960 . S
H269 N249 0.862 1_545 S
O270 Co238 1.920 . S
O270 C243 1.289 . S
C271 O263 1.258 . S
C271 O264 1.266 . S
Co272 O275 1.970 . S
Co272 N289 1.989 . S
Co272 O297 1.967 . S
Co272 O304 1.920 . S
Co273 O276 1.966 . S
Co273 N282 2.022 . S
Co273 N290 1.993 . S
Co273 O298 1.941 . S
C274 O275 1.258 . S
C274 O276 1.263 . S
O275 Co272 1.970 . S
O275 C274 1.258 . S
O276 Co273 1.966 . S
O276 C274 1.263 . S
C277 O278 1.235 . S
C277 O304 1.289 . S
O278 C277 1.235 . S
C279 C281 1.400 . S
C279 N282 1.351 . S
C279 C284 1.501 . S
C280 C281 1.387 . S
C280 N283 1.341 . S
C281 C279 1.400 . S
C281 C280 1.387 . S
N282 Co273 2.022 . S
N282 C279 1.351 . S
N282 N283 1.365 . S
N283 C280 1.341 . S
N283 N282 1.365 . S
N283 H303 0.862 . S
C284 C279 1.501 . S
C284 H285 0.961 . S
C284 H286 0.961 . S
C284 H287 0.960 . S
H285 C284 0.961 . S
H286 C284 0.961 . S
H287 C284 0.960 . S
C288 N289 1.342 . S
C288 C292 1.401 . S
C288 C293 1.499 . S
N289 Co272 1.989 . S
N289 C288 1.342 . S
N289 N290 1.388 . S
N290 Co273 1.993 . S
N290 N289 1.388 . S
N290 C291 1.346 . S
C291 N290 1.346 . S
C291 C292 1.396 . S
C291 C301 1.510 . S
C292 C288 1.401 . S
C292 C291 1.396 . S
C293 C288 1.499 . S
C293 H294 0.959 . S
C293 H295 0.960 . S
C293 H296 0.961 . S
H294 C293 0.959 . S
H295 C293 0.960 . S
H296 C293 0.961 . S
O297 Co272 1.967 . S
O297 C305 1.258 . S
O298 Co273 1.941 . S
O298 C305 1.266 . S
H299 C301 0.959 . S
H300 C301 0.961 . S
C301 C291 1.510 . S
C301 H299 0.959 . S
C301 H300 0.961 . S
C301 H302 0.960 . S
H302 C301 0.960 . S
H303 N283 0.862 . S
O304 Co272 1.920 . S
O304 C277 1.289 . S
C305 O297 1.258 . S
C305 O298 1.266 . S
Co306 O309 1.970 . S
Co306 N323 1.989 . S
Co306 O331 1.967 . S
Co306 O338 1.920 . S
Co307 O310 1.966 . S
Co307 N316 2.022 . S
Co307 N324 1.993 . S
Co307 O332 1.941 . S
C308 O309 1.258 . S
C308 O310 1.263 . S
O309 Co306 1.970 . S
O309 C308 1.258 . S
O310 Co307 1.966 . S
O310 C308 1.263 . S
C311 O312 1.235 . S
C311 O338 1.289 . S
O312 C311 1.235 . S
C313 C315 1.400 . S
C313 N316 1.351 . S
C313 C318 1.501 . S
C314 C315 1.387 . S
C314 N317 1.341 . S
C315 C313 1.400 . S
C315 C314 1.387 . S
N316 Co307 2.022 . S
N316 C313 1.351 . S
N316 N317 1.365 . S
N317 C314 1.341 . S
N317 N316 1.365 . S
N317 H337 0.862 . S
C318 C313 1.501 . S
C318 H319 0.961 . S
C318 H320 0.961 . S
C318 H321 0.960 . S
H319 C318 0.961 . S
H320 C318 0.961 . S
H321 C318 0.960 . S
C322 N323 1.342 . S
C322 C326 1.401 . S
C322 C327 1.499 . S
N323 Co306 1.989 . S
N323 C322 1.342 . S
N323 N324 1.388 . S
N324 Co307 1.993 . S
N324 N323 1.388 . S
N324 C325 1.346 . S
C325 N324 1.346 . S
C325 C326 1.396 . S
C325 C335 1.510 . S
C326 C322 1.401 . S
C326 C325 1.396 . S
C327 C322 1.499 . S
C327 H328 0.959 . S
C327 H329 0.960 . S
C327 H330 0.961 . S
H328 C327 0.959 . S
H329 C327 0.960 . S
H330 C327 0.961 . S
O331 Co306 1.967 . S
O331 C339 1.258 . S
O332 Co307 1.941 . S
O332 C339 1.266 . S
H333 C335 0.959 . S
H334 C335 0.961 . S
C335 C325 1.510 . S
C335 H333 0.959 . S
C335 H334 0.961 . S
C335 H336 0.960 . S
H336 C335 0.960 . S
H337 N317 0.862 . S
O338 Co306 1.920 . S
O338 C311 1.289 . S
C339 O331 1.258 . S
C339 O332 1.266 . S
Co340 O343 1.970 . S
Co340 N357 1.989 . S
Co340 O365 1.967 . S
Co340 O372 1.920 . S
Co341 O344 1.966 . S
Co341 N350 2.022 . S
Co341 N358 1.993 . S
Co341 O366 1.941 . S
C342 O343 1.258 . S
C342 O344 1.263 . S
O343 Co340 1.970 . S
O343 C342 1.258 . S
O344 Co341 1.966 . S
O344 C342 1.263 . S
C345 O346 1.235 . S
C345 O372 1.289 . S
O346 C345 1.235 . S
C347 C349 1.400 . S
C347 N350 1.351 . S
C347 C352 1.501 . S
C348 C349 1.387 . S
C348 N351 1.341 . S
C349 C347 1.400 . S
C349 C348 1.387 . S
N350 Co341 2.022 . S
N350 C347 1.351 . S
N350 N351 1.365 . S
N351 C348 1.341 . S
N351 N350 1.365 . S
N351 H371 0.862 . S
C352 C347 1.501 . S
C352 H353 0.961 . S
C352 H354 0.961 . S
C352 H355 0.960 . S
H353 C352 0.961 . S
H354 C352 0.961 . S
H355 C352 0.960 . S
C356 N357 1.342 . S
C356 C360 1.401 . S
C356 C361 1.499 . S
N357 Co340 1.989 . S
N357 C356 1.342 . S
N357 N358 1.388 . S
N358 Co341 1.993 . S
N358 N357 1.388 . S
N358 C359 1.346 . S
C359 N358 1.346 . S
C359 C360 1.396 . S
C359 C369 1.510 . S
C360 C356 1.401 . S
C360 C359 1.396 . S
C361 C356 1.499 . S
C361 H362 0.959 . S
C361 H363 0.960 . S
C361 H364 0.961 . S
H362 C361 0.959 . S
H363 C361 0.960 . S
H364 C361 0.961 . S
O365 Co340 1.967 . S
O365 C373 1.258 . S
O366 Co341 1.941 . S
O366 C373 1.266 . S
H367 C369 0.959 . S
H368 C369 0.961 . S
C369 C359 1.510 . S
C369 H367 0.959 . S
C369 H368 0.961 . S
C369 H370 0.960 . S
H370 C369 0.960 . S
H371 N351 0.862 . S
O372 Co340 1.920 . S
O372 C345 1.289 . S
C373 O365 1.258 . S
C373 O366 1.266 . S
Co374 O377 1.970 . S
Co374 N391 1.989 . S
Co374 O399 1.967 . S
Co374 O406 1.920 . S
Co375 O378 1.966 . S
Co375 N384 2.022 . S
Co375 N392 1.993 . S
Co375 O400 1.941 . S
C376 O377 1.258 . S
C376 O378 1.263 . S
O377 Co374 1.970 . S
O377 C376 1.258 . S
O378 Co375 1.966 . S
O378 C376 1.263 . S
C379 O380 1.235 . S
C379 O406 1.289 . S
O380 C379 1.235 . S
C381 C383 1.400 . S
C381 N384 1.351 . S
C381 C386 1.501 . S
C382 C383 1.387 . S
C382 N385 1.341 . S
C383 C381 1.400 . S
C383 C382 1.387 . S
N384 Co375 2.022 . S
N384 C381 1.351 . S
N384 N385 1.365 . S
N385 C382 1.341 . S
N385 N384 1.365 . S
N385 H405 0.862 . S
C386 C381 1.501 . S
C386 H387 0.961 . S
C386 H388 0.961 . S
C386 H389 0.960 . S
H387 C386 0.961 . S
H388 C386 0.961 . S
H389 C386 0.960 . S
C390 N391 1.342 . S
C390 C394 1.401 . S
C390 C395 1.499 . S
N391 Co374 1.989 . S
N391 C390 1.342 . S
N391 N392 1.388 . S
N392 Co375 1.993 . S
N392 N391 1.388 . S
N392 C393 1.346 . S
C393 N392 1.346 . S
C393 C394 1.396 . S
C393 C403 1.510 . S
C394 C390 1.401 . S
C394 C393 1.396 . S
C395 C390 1.499 . S
C395 H396 0.959 . S
C395 H397 0.960 . S
C395 H398 0.961 . S
H396 C395 0.959 . S
H397 C395 0.960 . S
H398 C395 0.961 . S
O399 Co374 1.967 . S
O399 C407 1.258 . S
O400 Co375 1.941 . S
O400 C407 1.266 . S
H401 C403 0.959 . S
H402 C403 0.961 . S
C403 C393 1.510 . S
C403 H401 0.959 . S
C403 H402 0.961 . S
C403 H404 0.960 . S
H404 C403 0.960 . S
H405 N385 0.862 . S
O406 Co374 1.920 . S
O406 C379 1.289 . S
C407 O399 1.258 . S
C407 O400 1.266 . S
Co408 O411 1.970 . S
Co408 N425 1.989 . S
Co408 O433 1.967 . S
Co408 O440 1.920 . S
Co409 O412 1.966 . S
Co409 N418 2.022 . S
Co409 N426 1.993 . S
Co409 O434 1.941 . S
C410 O411 1.258 . S
C410 O412 1.263 . S
O411 Co408 1.970 . S
O411 C410 1.258 . S
O412 Co409 1.966 . S
O412 C410 1.263 . S
C413 O414 1.235 . S
C413 O440 1.289 . S
O414 C413 1.235 . S
C415 C417 1.400 . S
C415 N418 1.351 . S
C415 C420 1.501 . S
C416 C417 1.387 . S
C416 N419 1.341 . S
C417 C415 1.400 . S
C417 C416 1.387 . S
N418 Co409 2.022 . S
N418 C415 1.351 . S
N418 N419 1.365 . S
N419 C416 1.341 . S
N419 N418 1.365 . S
N419 H439 0.862 . S
C420 C415 1.501 . S
C420 H421 0.961 . S
C420 H422 0.961 . S
C420 H423 0.960 . S
H421 C420 0.961 . S
H422 C420 0.961 . S
H423 C420 0.960 . S
C424 N425 1.342 . S
C424 C428 1.401 . S
C424 C429 1.499 . S
N425 Co408 1.989 . S
N425 C424 1.342 . S
N425 N426 1.388 . S
N426 Co409 1.993 . S
N426 N425 1.388 . S
N426 C427 1.346 . S
C427 N426 1.346 . S
C427 C428 1.396 . S
C427 C437 1.510 . S
C428 C424 1.401 . S
C428 C427 1.396 . S
C429 C424 1.499 . S
C429 H430 0.959 . S
C429 H431 0.960 . S
C429 H432 0.961 . S
H430 C429 0.959 . S
H431 C429 0.960 . S
H432 C429 0.961 . S
O433 Co408 1.967 . S
O433 C441 1.258 . S
O434 Co409 1.941 . S
O434 C441 1.266 . S
H435 C437 0.959 . S
H436 C437 0.961 . S
C437 C427 1.510 . S
C437 H435 0.959 . S
C437 H436 0.961 . S
C437 H438 0.960 . S
H438 C437 0.960 . S
H439 N419 0.862 . S
O440 Co408 1.920 . S
O440 C413 1.289 . S
C441 O433 1.258 . S
C441 O434 1.266 . S
Co442 O445 1.970 . S
Co442 N459 1.989 . S
Co442 O467 1.967 . S
Co442 O474 1.920 . S
Co443 O446 1.966 . S
Co443 N452 2.022 . S
Co443 N460 1.993 . S
Co443 O468 1.941 . S
C444 O445 1.258 . S
C444 O446 1.263 . S
O445 Co442 1.970 . S
O445 C444 1.258 . S
O446 Co443 1.966 . S
O446 C444 1.263 . S
C447 O448 1.235 . S
C447 O474 1.289 . S
O448 C447 1.235 . S
C449 C451 1.400 . S
C449 N452 1.351 . S
C449 C454 1.501 . S
C450 C451 1.387 . S
C450 N453 1.341 . S
C451 C449 1.400 . S
C451 C450 1.387 . S
N452 Co443 2.022 . S
N452 C449 1.351 . S
N452 N453 1.365 . S
N453 C450 1.341 . S
N453 N452 1.365 . S
N453 H473 0.862 . S
C454 C449 1.501 . S
C454 H455 0.961 . S
C454 H456 0.961 . S
C454 H457 0.960 . S
H455 C454 0.961 . S
H456 C454 0.961 . S
H457 C454 0.960 . S
C458 N459 1.342 . S
C458 C462 1.401 . S
C458 C463 1.499 . S
N459 Co442 1.989 . S
N459 C458 1.342 . S
N459 N460 1.388 . S
N460 Co443 1.993 . S
N460 N459 1.388 . S
N460 C461 1.346 . S
C461 N460 1.346 . S
C461 C462 1.396 . S
C461 C471 1.510 . S
C462 C458 1.401 . S
C462 C461 1.396 . S
C463 C458 1.499 . S
C463 H464 0.959 . S
C463 H465 0.960 . S
C463 H466 0.961 . S
H464 C463 0.959 . S
H465 C463 0.960 . S
H466 C463 0.961 . S
O467 Co442 1.967 . S
O467 C475 1.258 . S
O468 Co443 1.941 . S
O468 C475 1.266 . S
H469 C471 0.959 . S
H470 C471 0.961 . S
C471 C461 1.510 . S
C471 H469 0.959 . S
C471 H470 0.961 . S
C471 H472 0.960 . S
H472 C471 0.960 . S
H473 N453 0.862 . S
O474 Co442 1.920 . S
O474 C447 1.289 . S
C475 O467 1.258 . S
C475 O468 1.266 . S
Co476 O479 1.970 . S
Co476 N493 1.989 . S
Co476 O501 1.967 . S
Co476 O508 1.920 . S
Co477 O480 1.966 . S
Co477 N486 2.022 . S
Co477 N494 1.993 . S
Co477 O502 1.941 . S
C478 O479 1.258 . S
C478 O480 1.263 . S
O479 Co476 1.970 . S
O479 C478 1.258 . S
O480 Co477 1.966 . S
O480 C478 1.263 . S
C481 O482 1.235 . S
C481 O508 1.289 . S
O482 C481 1.235 . S
C483 C485 1.400 . S
C483 N486 1.351 . S
C483 C488 1.501 . S
C484 C485 1.387 . S
C484 N487 1.341 . S
C485 C483 1.400 . S
C485 C484 1.387 . S
N486 Co477 2.022 . S
N486 C483 1.351 . S
N486 N487 1.365 . S
N487 C484 1.341 . S
N487 N486 1.365 . S
N487 H507 0.862 . S
C488 C483 1.501 . S
C488 H489 0.961 . S
C488 H490 0.961 . S
C488 H491 0.960 . S
H489 C488 0.961 . S
H490 C488 0.961 . S
H491 C488 0.960 . S
C492 N493 1.342 . S
C492 C496 1.401 . S
C492 C497 1.499 . S
N493 Co476 1.989 . S
N493 C492 1.342 . S
N493 N494 1.388 . S
N494 Co477 1.993 . S
N494 N493 1.388 . S
N494 C495 1.346 . S
C495 N494 1.346 . S
C495 C496 1.396 . S
C495 C505 1.510 . S
C496 C492 1.401 . S
C496 C495 1.396 . S
C497 C492 1.499 . S
C497 H498 0.959 . S
C497 H499 0.960 . S
C497 H500 0.961 . S
H498 C497 0.959 . S
H499 C497 0.960 . S
H500 C497 0.961 . S
O501 Co476 1.967 . S
O501 C509 1.258 . S
O502 Co477 1.941 . S
O502 C509 1.266 . S
H503 C505 0.959 . S
H504 C505 0.961 . S
C505 C495 1.510 . S
C505 H503 0.959 . S
C505 H504 0.961 . S
C505 H506 0.960 . S
H506 C505 0.960 . S
H507 N487 0.862 . S
O508 Co476 1.920 . S
O508 C481 1.289 . S
C509 O501 1.258 . S
C509 O502 1.266 . S
Co510 O513 1.970 . S
Co510 N527 1.989 . S
Co510 O535 1.967 . S
Co510 O542 1.920 . S
Co511 O514 1.966 . S
Co511 N520 2.022 . S
Co511 N528 1.993 . S
Co511 O536 1.941 . S
C512 O513 1.258 . S
C512 O514 1.263 . S
O513 Co510 1.970 . S
O513 C512 1.258 . S
O514 Co511 1.966 . S
O514 C512 1.263 . S
C515 O516 1.235 . S
C515 O542 1.289 . S
O516 C515 1.235 . S
C517 C519 1.400 . S
C517 N520 1.351 . S
C517 C522 1.501 . S
C518 C519 1.387 . S
C518 N521 1.341 . S
C519 C517 1.400 . S
C519 C518 1.387 . S
N520 Co511 2.022 . S
N520 C517 1.351 . S
N520 N521 1.365 . S
N521 C518 1.341 . S
N521 N520 1.365 . S
N521 H541 0.862 . S
C522 C517 1.501 . S
C522 H523 0.961 . S
C522 H524 0.961 . S
C522 H525 0.960 . S
H523 C522 0.961 . S
H524 C522 0.961 . S
H525 C522 0.960 . S
C526 N527 1.342 . S
C526 C530 1.401 . S
C526 C531 1.499 . S
N527 Co510 1.989 . S
N527 C526 1.342 . S
N527 N528 1.388 . S
N528 Co511 1.993 . S
N528 N527 1.388 . S
N528 C529 1.346 . S
C529 N528 1.346 . S
C529 C530 1.396 . S
C529 C539 1.510 . S
C530 C526 1.401 . S
C530 C529 1.396 . S
C531 C526 1.499 . S
C531 H532 0.959 . S
C531 H533 0.960 . S
C531 H534 0.961 . S
H532 C531 0.959 . S
H533 C531 0.960 . S
H534 C531 0.961 . S
O535 Co510 1.967 . S
O535 C543 1.258 . S
O536 Co511 1.941 . S
O536 C543 1.266 . S
H537 C539 0.959 . S
H538 C539 0.961 . S
C539 C529 1.510 . S
C539 H537 0.959 . S
C539 H538 0.961 . S
C539 H540 0.960 . S
H540 C539 0.960 . S
H541 N521 0.862 . S
O542 Co510 1.920 . S
O542 C515 1.289 . S
C543 O535 1.258 . S
C543 O536 1.266 . S
H544 C550 0.930 . S
H545 C553 0.930 . S
H546 C554 0.930 . S
H547 C555 0.930 . S
H548 C558 0.930 . S
H549 C559 0.930 . S
C550 H544 0.930 . S
C550 C551 1.355 1_455 S
C550 C552 1.415 . S
C551 C550 1.355 1_655 S
C551 C553 1.419 . S
C552 C550 1.415 . S
C552 C557 1.425 1_455 S
C552 C559 1.409 . S
C553 H545 0.930 . S
C553 C551 1.419 . S
C553 C554 1.362 . S
C554 H546 0.930 . S
C554 C553 1.362 . S
C554 C557 1.409 . S
C555 H547 0.930 . S
C555 C556 1.355 1_655 S
C555 C557 1.415 . S
C556 C555 1.355 1_455 S
C556 C558 1.419 . S
C557 C552 1.425 1_655 S
C557 C554 1.409 . S
C557 C555 1.415 . S
C558 H548 0.930 . S
C558 C556 1.419 . S
C558 C559 1.362 . S
C559 H549 0.930 . S
C559 C552 1.409 . S
C559 C558 1.362 . S
H560 C566 0.930 . S
H561 C569 0.930 . S
H562 C570 0.930 . S
H563 C571 0.930 . S
H564 C574 0.930 . S
H565 C575 0.930 . S
C566 H560 0.930 . S
C566 C567 1.355 1_565 S
C566 C568 1.415 . S
C567 C566 1.355 1_545 S
C567 C569 1.419 . S
C568 C566 1.415 . S
C568 C573 1.425 1_565 S
C568 C575 1.409 . S
C569 H561 0.930 . S
C569 C567 1.419 . S
C569 C570 1.362 . S
C570 H562 0.930 . S
C570 C569 1.362 . S
C570 C573 1.409 . S
C571 H563 0.930 . S
C571 C572 1.355 1_545 S
C571 C573 1.415 . S
C572 C571 1.355 1_565 S
C572 C574 1.419 . S
C573 C568 1.425 1_545 S
C573 C570 1.409 . S
C573 C571 1.415 . S
C574 H564 0.930 . S
C574 C572 1.419 . S
C574 C575 1.362 . S
C575 H565 0.930 . S
C575 C568 1.409 . S
C575 C574 1.362 . S
H576 C582 0.929 1_455 S
H577 C585 0.930 . S
H578 C586 0.930 . S
H579 C587 0.929 1_655 S
H580 C590 0.930 . S
H581 C591 0.930 . S
C582 H576 0.929 1_655 S
C582 C583 1.356 . S
C582 C584 1.414 1_655 S
C583 C582 1.356 . S
C583 C585 1.419 . S
C584 C582 1.414 1_455 S
C584 C589 1.425 1_455 S
C584 C591 1.409 . S
C585 H577 0.930 . S
C585 C583 1.419 . S
C585 C586 1.362 . S
C586 H578 0.930 . S
C586 C585 1.362 . S
C586 C589 1.409 . S
C587 H579 0.929 1_455 S
C587 C588 1.356 . S
C587 C589 1.414 1_455 S
C588 C587 1.356 . S
C588 C590 1.419 . S
C589 C584 1.425 1_655 S
C589 C586 1.409 . S
C589 C587 1.414 1_655 S
C590 H580 0.930 . S
C590 C588 1.419 . S
C590 C591 1.362 . S
C591 H581 0.930 . S
C591 C584 1.409 . S
C591 C590 1.362 . S
H592 C598 0.930 . S
H593 C601 0.930 . S
H594 C602 0.930 . S
H595 C603 0.930 . S
H596 C606 0.930 . S
H597 C607 0.930 . S
C598 H592 0.930 . S
C598 C599 1.355 . S
C598 C600 1.415 . S
C599 C598 1.355 . S
C599 C601 1.419 1_565 S
C600 C598 1.415 . S
C600 C605 1.425 1_565 S
C600 C607 1.409 . S
C601 H593 0.930 . S
C601 C599 1.419 1_545 S
C601 C602 1.362 . S
C602 H594 0.930 . S
C602 C601 1.362 . S
C602 C605 1.409 . S
C603 H595 0.930 . S
C603 C604 1.355 . S
C603 C605 1.415 . S
C604 C603 1.355 . S
C604 C606 1.419 1_545 S
C605 C600 1.425 1_545 S
C605 C602 1.409 . S
C605 C603 1.415 . S
C606 H596 0.930 . S
C606 C604 1.419 1_565 S
C606 C607 1.362 . S
C607 H597 0.930 . S
C607 C600 1.409 . S
C607 C606 1.362 . S
H608 C614 0.930 . S
H609 C617 0.930 . S
H610 C618 0.930 . S
H611 C619 0.930 . S
H612 C622 0.930 . S
H613 C623 0.930 . S
C614 H608 0.930 . S
C614 C615 1.355 . S
C614 C616 1.415 . S
C615 C614 1.355 . S
C615 C617 1.419 . S
C616 C614 1.415 . S
C616 C621 1.425 1_565 S
C616 C623 1.409 1_565 S
C617 H609 0.930 . S
C617 C615 1.419 . S
C617 C618 1.362 . S
C618 H610 0.930 . S
C618 C617 1.362 . S
C618 C621 1.409 1_565 S
C619 H611 0.930 . S
C619 C620 1.355 . S
C619 C621 1.415 . S
C620 C619 1.355 . S
C620 C622 1.419 . S
C621 C616 1.425 1_545 S
C621 C618 1.409 1_545 S
C621 C619 1.415 . S
C622 H612 0.930 . S
C622 C620 1.419 . S
C622 C623 1.362 . S
C623 H613 0.930 . S
C623 C616 1.409 1_545 S
C623 C622 1.362 . S
H624 C630 0.930 . S
H625 C633 0.930 . S
H626 C634 0.930 . S
H627 C635 0.930 . S
H628 C638 0.930 . S
H629 C639 0.930 . S
C630 H624 0.930 . S
C630 C631 1.355 . S
C630 C632 1.415 . S
C631 C630 1.355 . S
C631 C633 1.419 . S
C632 C630 1.415 . S
C632 C637 1.425 1_655 S
C632 C639 1.409 1_655 S
C633 H625 0.930 . S
C633 C631 1.419 . S
C633 C634 1.362 . S
C634 H626 0.930 . S
C634 C633 1.362 . S
C634 C637 1.409 1_655 S
C635 H627 0.930 . S
C635 C636 1.355 . S
C635 C637 1.415 . S
C636 C635 1.355 . S
C636 C638 1.419 . S
C637 C632 1.425 1_455 S
C637 C634 1.409 1_455 S
C637 C635 1.415 . S
C638 H628 0.930 . S
C638 C636 1.419 . S
C638 C639 1.362 . S
C639 H629 0.930 . S
C639 C632 1.409 1_455 S
C639 C638 1.362 . S
H640 C646 0.930 . S
H641 C649 0.930 . S
H642 C650 0.930 1_545 S
H643 C651 0.930 . S
H644 C654 0.930 . S
H645 C655 0.930 1_565 S
C646 H640 0.930 . S
C646 C647 1.355 . S
C646 C648 1.415 . S
C647 C646 1.355 . S
C647 C649 1.419 . S
C648 C646 1.415 . S
C648 C653 1.425 1_565 S
C648 C655 1.409 1_565 S
C649 H641 0.930 . S
C649 C647 1.419 . S
C649 C650 1.362 . S
C650 H642 0.930 1_565 S
C650 C649 1.362 . S
C650 C653 1.409 1_565 S
C651 H643 0.930 . S
C651 C652 1.355 . S
C651 C653 1.415 . S
C652 C651 1.355 . S
C652 C654 1.419 . S
C653 C648 1.425 1_545 S
C653 C650 1.409 1_545 S
C653 C651 1.415 . S
C654 H644 0.930 . S
C654 C652 1.419 . S
C654 C655 1.362 . S
C655 H645 0.930 1_545 S
C655 C648 1.409 1_545 S
C655 C654 1.362 . S
H656 C662 0.930 . S
H657 C665 0.930 . S
H658 C666 0.930 . S
H659 C667 0.930 . S
H660 C670 0.930 . S
H661 C671 0.930 . S
C662 H656 0.930 . S
C662 C663 1.355 . S
C662 C664 1.415 . S
C663 C662 1.355 . S
C663 C665 1.419 . S
C664 C662 1.415 . S
C664 C669 1.425 1_655 S
C664 C671 1.409 1_655 S
C665 H657 0.930 . S
C665 C663 1.419 . S
C665 C666 1.362 . S
C666 H658 0.930 . S
C666 C665 1.362 . S
C666 C669 1.409 1_655 S
C667 H659 0.930 . S
C667 C668 1.355 . S
C667 C669 1.415 . S
C668 C667 1.355 . S
C668 C670 1.419 . S
C669 C664 1.425 1_455 S
C669 C666 1.409 1_455 S
C669 C667 1.415 . S
C670 H660 0.930 . S
C670 C668 1.419 . S
C670 C671 1.362 . S
C671 H661 0.930 . S
C671 C664 1.409 1_455 S
C671 C670 1.362 . S
H672 C678 0.930 . S
H673 C681 0.930 . S
H674 C682 0.930 . S
H675 C683 0.930 . S
H676 C686 0.930 . S
H677 C687 0.930 . S
C678 H672 0.930 . S
C678 C679 1.355 . S
C678 C680 1.415 . S
C679 C678 1.355 . S
C679 C681 1.419 . S
C680 C678 1.415 . S
C680 C685 1.425 . S
C680 C687 1.409 . S
C681 H673 0.930 . S
C681 C679 1.419 . S
C681 C682 1.362 . S
C682 H674 0.930 . S
C682 C681 1.362 . S
C682 C685 1.409 . S
C683 H675 0.930 . S
C683 C684 1.355 . S
C683 C685 1.415 . S
C684 C683 1.355 . S
C684 C686 1.419 . S
C685 C680 1.425 . S
C685 C682 1.409 . S
C685 C683 1.415 . S
C686 H676 0.930 . S
C686 C684 1.419 . S
C686 C687 1.362 . S
C687 H677 0.930 . S
C687 C680 1.409 . S
C687 C686 1.362 . S
H688 C694 0.930 . S
H689 C697 0.930 . S
H690 C698 0.930 . S
H691 C699 0.930 . S
H692 C702 0.930 . S
H693 C703 0.930 . S
C694 H688 0.930 . S
C694 C695 1.355 . S
C694 C696 1.415 . S
C695 C694 1.355 . S
C695 C697 1.419 . S
C696 C694 1.415 . S
C696 C701 1.425 . S
C696 C703 1.409 . S
C697 H689 0.930 . S
C697 C695 1.419 . S
C697 C698 1.362 . S
C698 H690 0.930 . S
C698 C697 1.362 . S
C698 C701 1.409 . S
C699 H691 0.930 . S
C699 C700 1.355 . S
C699 C701 1.415 . S
C700 C699 1.355 . S
C700 C702 1.419 . S
C701 C696 1.425 . S
C701 C698 1.409 . S
C701 C699 1.415 . S
C702 H692 0.930 . S
C702 C700 1.419 . S
C702 C703 1.362 . S
C703 H693 0.930 . S
C703 C696 1.409 . S
C703 C702 1.362 . S
H704 C710 0.930 . S
H705 C713 0.930 . S
H706 C714 0.930 . S
H707 C715 0.930 . S
H708 C718 0.930 . S
H709 C719 0.930 . S
C710 H704 0.930 . S
C710 C711 1.355 . S
C710 C712 1.415 . S
C711 C710 1.355 . S
C711 C713 1.419 . S
C712 C710 1.415 . S
C712 C717 1.425 . S
C712 C719 1.409 . S
C713 H705 0.930 . S
C713 C711 1.419 . S
C713 C714 1.362 . S
C714 H706 0.930 . S
C714 C713 1.362 . S
C714 C717 1.409 . S
C715 H707 0.930 . S
C715 C716 1.355 . S
C715 C717 1.415 . S
C716 C715 1.355 . S
C716 C718 1.419 . S
C717 C712 1.425 . S
C717 C714 1.409 . S
C717 C715 1.415 . S
C718 H708 0.930 . S
C718 C716 1.419 . S
C718 C719 1.362 . S
C719 H709 0.930 . S
C719 C712 1.409 . S
C719 C718 1.362 . S
H720 C726 0.930 . S
H721 C729 0.930 . S
H722 C730 0.930 . S
H723 C731 0.930 . S
H724 C734 0.930 . S
H725 C735 0.930 . S
C726 H720 0.930 . S
C726 C727 1.355 . S
C726 C728 1.415 . S
C727 C726 1.355 . S
C727 C729 1.419 . S
C728 C726 1.415 . S
C728 C733 1.425 . S
C728 C735 1.409 . S
C729 H721 0.930 . S
C729 C727 1.419 . S
C729 C730 1.362 . S
C730 H722 0.930 . S
C730 C729 1.362 . S
C730 C733 1.409 . S
C731 H723 0.930 . S
C731 C732 1.355 . S
C731 C733 1.415 . S
C732 C731 1.355 . S
C732 C734 1.419 . S
C733 C728 1.425 . S
C733 C730 1.409 . S
C733 C731 1.415 . S
C734 H724 0.930 . S
C734 C732 1.419 . S
C734 C735 1.362 . S
C735 H725 0.930 . S
C735 C728 1.409 . S
C735 C734 1.362 . S
H736 C742 0.930 . S
H737 C745 0.930 . S
H738 C746 0.930 . S
H739 C747 0.930 . S
H740 C750 0.930 . S
H741 C751 0.930 . S
C742 H736 0.930 . S
C742 C743 1.355 . S
C742 C744 1.415 . S
C743 C742 1.355 . S
C743 C745 1.419 . S
C744 C742 1.415 . S
C744 C749 1.425 . S
C744 C751 1.409 . S
C745 H737 0.930 . S
C745 C743 1.419 . S
C745 C746 1.362 . S
C746 H738 0.930 . S
C746 C745 1.362 . S
C746 C749 1.409 . S
C747 H739 0.930 . S
C747 C748 1.355 . S
C747 C749 1.415 . S
C748 C747 1.355 . S
C748 C750 1.419 . S
C749 C744 1.425 . S
C749 C746 1.409 . S
C749 C747 1.415 . S
C750 H740 0.930 . S
C750 C748 1.419 . S
C750 C751 1.362 . S
C751 H741 0.930 . S
C751 C744 1.409 . S
C751 C750 1.362 . S
H752 C758 0.930 . S
H753 C761 0.930 . S
H754 C762 0.930 . S
H755 C763 0.930 . S
H756 C766 0.930 . S
H757 C767 0.930 . S
C758 H752 0.930 . S
C758 C759 1.355 . S
C758 C760 1.415 . S
C759 C758 1.355 . S
C759 C761 1.419 . S
C760 C758 1.415 . S
C760 C765 1.425 . S
C760 C767 1.409 . S
C761 H753 0.930 . S
C761 C759 1.419 . S
C761 C762 1.362 . S
C762 H754 0.930 . S
C762 C761 1.362 . S
C762 C765 1.409 . S
C763 H755 0.930 . S
C763 C764 1.355 . S
C763 C765 1.415 . S
C764 C763 1.355 . S
C764 C766 1.419 . S
C765 C760 1.425 . S
C765 C762 1.409 . S
C765 C763 1.415 . S
C766 H756 0.930 . S
C766 C764 1.419 . S
C766 C767 1.362 . S
C767 H757 0.930 . S
C767 C760 1.409 . S
C767 C766 1.362 . S
H768 C774 0.930 . S
H769 C777 0.930 . S
H770 C778 0.930 . S
H771 C779 0.930 . S
H772 C782 0.930 . S
H773 C783 0.930 . S
C774 H768 0.930 . S
C774 C775 1.355 . S
C774 C776 1.415 . S
C775 C774 1.355 . S
C775 C777 1.419 . S
C776 C774 1.415 . S
C776 C781 1.425 . S
C776 C783 1.409 . S
C777 H769 0.930 . S
C777 C775 1.419 . S
C777 C778 1.362 . S
C778 H770 0.930 . S
C778 C777 1.362 . S
C778 C781 1.409 . S
C779 H771 0.930 . S
C779 C780 1.355 . S
C779 C781 1.415 . S
C780 C779 1.355 . S
C780 C782 1.419 . S
C781 C776 1.425 . S
C781 C778 1.409 . S
C781 C779 1.415 . S
C782 H772 0.930 . S
C782 C780 1.419 . S
C782 C783 1.362 . S
C783 H773 0.930 . S
C783 C776 1.409 . S
C783 C782 1.362 . S
H784 C790 0.930 . S
H785 C793 0.930 . S
H786 C794 0.930 . S
H787 C795 0.930 . S
H788 C798 0.930 . S
H789 C799 0.930 . S
C790 H784 0.930 . S
C790 C791 1.355 . S
C790 C792 1.415 . S
C791 C790 1.355 . S
C791 C793 1.419 . S
C792 C790 1.415 . S
C792 C797 1.425 . S
C792 C799 1.409 . S
C793 H785 0.930 . S
C793 C791 1.419 . S
C793 C794 1.362 . S
C794 H786 0.930 . S
C794 C793 1.362 . S
C794 C797 1.409 . S
C795 H787 0.930 . S
C795 C796 1.355 . S
C795 C797 1.415 . S
C796 C795 1.355 . S
C796 C798 1.419 . S
C797 C792 1.425 . S
C797 C794 1.409 . S
C797 C795 1.415 . S
C798 H788 0.930 . S
C798 C796 1.419 . S
C798 C799 1.362 . S
C799 H789 0.930 . S
C799 C792 1.409 . S
C799 C798 1.362 . S
H800 C806 0.930 . S
H801 C809 0.930 . S
H802 C810 0.930 . S
H803 C811 0.930 . S
H804 C814 0.930 . S
H805 C815 0.930 . S
C806 H800 0.930 . S
C806 C807 1.355 . S
C806 C808 1.415 . S
C807 C806 1.355 . S
C807 C809 1.419 . S
C808 C806 1.415 . S
C808 C813 1.425 . S
C808 C815 1.409 . S
C809 H801 0.930 . S
C809 C807 1.419 . S
C809 C810 1.362 . S
C810 H802 0.930 . S
C810 C809 1.362 . S
C810 C813 1.409 . S
C811 H803 0.930 . S
C811 C812 1.355 . S
C811 C813 1.415 . S
C812 C811 1.355 . S
C812 C814 1.419 . S
C813 C808 1.425 . S
C813 C810 1.409 . S
C813 C811 1.415 . S
C814 H804 0.930 . S
C814 C812 1.419 . S
C814 C815 1.362 . S
C815 H805 0.930 . S
C815 C808 1.409 . S
C815 C814 1.362 . S
H816 C822 0.930 . S
H817 C825 0.930 . S
H818 C826 0.930 . S
H819 C827 0.930 . S
H820 C830 0.930 . S
H821 C831 0.930 . S
C822 H816 0.930 . S
C822 C823 1.355 . S
C822 C824 1.415 . S
C823 C822 1.355 . S
C823 C825 1.419 . S
C824 C822 1.415 . S
C824 C829 1.425 . S
C824 C831 1.409 . S
C825 H817 0.930 . S
C825 C823 1.419 . S
C825 C826 1.362 . S
C826 H818 0.930 . S
C826 C825 1.362 . S
C826 C829 1.409 . S
C827 H819 0.930 . S
C827 C828 1.355 . S
C827 C829 1.415 . S
C828 C827 1.355 . S
C828 C830 1.419 . S
C829 C824 1.425 . S
C829 C826 1.409 . S
C829 C827 1.415 . S
C830 H820 0.930 . S
C830 C828 1.419 . S
C830 C831 1.362 . S
C831 H821 0.930 . S
C831 C824 1.409 . S
C831 C830 1.362 . S
H832 C838 0.930 . S
H833 C841 0.930 . S
H834 C842 0.930 . S
H835 C843 0.930 . S
H836 C846 0.930 . S
H837 C847 0.930 . S
C838 H832 0.930 . S
C838 C839 1.355 . S
C838 C840 1.415 . S
C839 C838 1.355 . S
C839 C841 1.419 . S
C840 C838 1.415 . S
C840 C845 1.425 . S
C840 C847 1.409 . S
C841 H833 0.930 . S
C841 C839 1.419 . S
C841 C842 1.362 . S
C842 H834 0.930 . S
C842 C841 1.362 . S
C842 C845 1.409 . S
C843 H835 0.930 . S
C843 C844 1.355 . S
C843 C845 1.415 . S
C844 C843 1.355 . S
C844 C846 1.419 . S
C845 C840 1.425 . S
C845 C842 1.409 . S
C845 C843 1.415 . S
C846 H836 0.930 . S
C846 C844 1.419 . S
C846 C847 1.362 . S
C847 H837 0.930 . S
C847 C840 1.409 . S
C847 C846 1.362 . S
H848 C854 0.930 . S
H849 C857 0.930 . S
H850 C858 0.930 . S
H851 C859 0.930 . S
H852 C862 0.930 . S
H853 C863 0.930 . S
C854 H848 0.930 . S
C854 C855 1.355 . S
C854 C856 1.415 . S
C855 C854 1.355 . S
C855 C857 1.419 . S
C856 C854 1.415 . S
C856 C861 1.425 . S
C856 C863 1.409 . S
C857 H849 0.930 . S
C857 C855 1.419 . S
C857 C858 1.362 . S
C858 H850 0.930 . S
C858 C857 1.362 . S
C858 C861 1.409 . S
C859 H851 0.930 . S
C859 C860 1.355 . S
C859 C861 1.415 . S
C860 C859 1.355 . S
C860 C862 1.419 . S
C861 C856 1.425 . S
C861 C858 1.409 . S
C861 C859 1.415 . S
C862 H852 0.930 . S
C862 C860 1.419 . S
C862 C863 1.362 . S
C863 H853 0.930 . S
C863 C856 1.409 . S
C863 C862 1.362 . S
H864 C870 0.930 . S
H865 C873 0.930 . S
H866 C874 0.930 . S
H867 C875 0.930 . S
H868 C878 0.930 . S
H869 C879 0.930 . S
C870 H864 0.930 . S
C870 C871 1.355 . S
C870 C872 1.415 . S
C871 C870 1.355 . S
C871 C873 1.419 . S
C872 C870 1.415 . S
C872 C877 1.425 . S
C872 C879 1.409 . S
C873 H865 0.930 . S
C873 C871 1.419 . S
C873 C874 1.362 . S
C874 H866 0.930 . S
C874 C873 1.362 . S
C874 C877 1.409 . S
C875 H867 0.930 . S
C875 C876 1.355 . S
C875 C877 1.415 . S
C876 C875 1.355 . S
C876 C878 1.419 . S
C877 C872 1.425 . S
C877 C874 1.409 . S
C877 C875 1.415 . S
C878 H868 0.930 . S
C878 C876 1.419 . S
C878 C879 1.362 . S
C879 H869 0.930 . S
C879 C872 1.409 . S
C879 C878 1.362 . S
H880 C886 0.930 . S
H881 C889 0.930 . S
H882 C890 0.930 . S
H883 C891 0.930 . S
H884 C894 0.930 . S
H885 C895 0.930 . S
C886 H880 0.930 . S
C886 C887 1.355 . S
C886 C888 1.415 . S
C887 C886 1.355 . S
C887 C889 1.419 . S
C888 C886 1.415 . S
C888 C893 1.425 . S
C888 C895 1.409 . S
C889 H881 0.930 . S
C889 C887 1.419 . S
C889 C890 1.362 . S
C890 H882 0.930 . S
C890 C889 1.362 . S
C890 C893 1.409 . S
C891 H883 0.930 . S
C891 C892 1.355 . S
C891 C893 1.415 . S
C892 C891 1.355 . S
C892 C894 1.419 . S
C893 C888 1.425 . S
C893 C890 1.409 . S
C893 C891 1.415 . S
C894 H884 0.930 . S
C894 C892 1.419 . S
C894 C895 1.362 . S
C895 H885 0.930 . S
C895 C888 1.409 . S
C895 C894 1.362 . S
H896 C902 0.930 . S
H897 C905 0.930 . S
H898 C906 0.930 . S
H899 C907 0.930 . S
H900 C910 0.930 . S
H901 C911 0.930 . S
C902 H896 0.930 . S
C902 C903 1.355 . S
C902 C904 1.415 . S
C903 C902 1.355 . S
C903 C905 1.419 . S
C904 C902 1.415 . S
C904 C909 1.425 . S
C904 C911 1.409 . S
C905 H897 0.930 . S
C905 C903 1.419 . S
C905 C906 1.362 . S
C906 H898 0.930 . S
C906 C905 1.362 . S
C906 C909 1.409 . S
C907 H899 0.930 . S
C907 C908 1.355 . S
C907 C909 1.415 . S
C908 C907 1.355 . S
C908 C910 1.419 . S
C909 C904 1.425 . S
C909 C906 1.409 . S
C909 C907 1.415 . S
C910 H900 0.930 . S
C910 C908 1.419 . S
C910 C911 1.362 . S
C911 H901 0.930 . S
C911 C904 1.409 . S
C911 C910 1.362 . S
H912 C918 0.930 . S
H913 C921 0.930 . S
H914 C922 0.930 . S
H915 C923 0.930 . S
H916 C926 0.930 . S
H917 C927 0.930 . S
C918 H912 0.930 . S
C918 C919 1.355 . S
C918 C920 1.415 . S
C919 C918 1.355 . S
C919 C921 1.419 . S
C920 C918 1.415 . S
C920 C925 1.425 . S
C920 C927 1.409 . S
C921 H913 0.930 . S
C921 C919 1.419 . S
C921 C922 1.362 . S
C922 H914 0.930 . S
C922 C921 1.362 . S
C922 C925 1.409 . S
C923 H915 0.930 . S
C923 C924 1.355 . S
C923 C925 1.415 . S
C924 C923 1.355 . S
C924 C926 1.419 . S
C925 C920 1.425 . S
C925 C922 1.409 . S
C925 C923 1.415 . S
C926 H916 0.930 . S
C926 C924 1.419 . S
C926 C927 1.362 . S
C927 H917 0.930 . S
C927 C920 1.409 . S
C927 C926 1.362 . S
H928 C934 0.930 . S
H929 C937 0.930 . S
H930 C938 0.930 . S
H931 C939 0.930 . S
H932 C942 0.930 . S
H933 C943 0.930 . S
C934 H928 0.930 . S
C934 C935 1.355 . S
C934 C936 1.415 . S
C935 C934 1.355 . S
C935 C937 1.419 . S
C936 C934 1.415 . S
C936 C941 1.425 . S
C936 C943 1.409 . S
C937 H929 0.930 . S
C937 C935 1.419 . S
C937 C938 1.362 . S
C938 H930 0.930 . S
C938 C937 1.362 . S
C938 C941 1.409 . S
C939 H931 0.930 . S
C939 C940 1.355 . S
C939 C941 1.415 . S
C940 C939 1.355 . S
C940 C942 1.419 . S
C941 C936 1.425 . S
C941 C938 1.409 . S
C941 C939 1.415 . S
C942 H932 0.930 . S
C942 C940 1.419 . S
C942 C943 1.362 . S
C943 H933 0.930 . S
C943 C936 1.409 . S
C943 C942 1.362 . S
H944 C950 0.930 . S
H945 C953 0.930 . S
H946 C954 0.930 . S
H947 C955 0.930 . S
H948 C958 0.930 . S
H949 C959 0.930 . S
C950 H944 0.930 . S
C950 C951 1.355 . S
C950 C952 1.415 . S
C951 C950 1.355 . S
C951 C953 1.419 . S
C952 C950 1.415 . S
C952 C957 1.425 . S
C952 C959 1.409 . S
C953 H945 0.930 . S
C953 C951 1.419 . S
C953 C954 1.362 . S
C954 H946 0.930 . S
C954 C953 1.362 . S
C954 C957 1.409 . S
C955 H947 0.930 . S
C955 C956 1.355 . S
C955 C957 1.415 . S
C956 C955 1.355 . S
C956 C958 1.419 . S
C957 C952 1.425 . S
C957 C954 1.409 . S
C957 C955 1.415 . S
C958 H948 0.930 . S
C958 C956 1.419 . S
C958 C959 1.362 . S
C959 H949 0.930 . S
C959 C952 1.409 . S
C959 C958 1.362 . S
H960 C966 0.930 . S
H961 C969 0.930 . S
H962 C970 0.930 . S
H963 C971 0.930 . S
H964 C974 0.930 . S
H965 C975 0.930 . S
C966 H960 0.930 . S
C966 C967 1.355 . S
C966 C968 1.415 . S
C967 C966 1.355 . S
C967 C969 1.419 . S
C968 C966 1.415 . S
C968 C973 1.425 . S
C968 C975 1.409 . S
C969 H961 0.930 . S
C969 C967 1.419 . S
C969 C970 1.362 . S
C970 H962 0.930 . S
C970 C969 1.362 . S
C970 C973 1.409 . S
C971 H963 0.930 . S
C971 C972 1.355 . S
C971 C973 1.415 . S
C972 C971 1.355 . S
C972 C974 1.419 . S
C973 C968 1.425 . S
C973 C970 1.409 . S
C973 C971 1.415 . S
C974 H964 0.930 . S
C974 C972 1.419 . S
C974 C975 1.362 . S
C975 H965 0.930 . S
C975 C968 1.409 . S
C975 C974 1.362 . S
H976 C982 0.930 . S
H977 C985 0.930 . S
H978 C986 0.930 . S
H979 C987 0.930 . S
H980 C990 0.930 . S
H981 C991 0.930 . S
C982 H976 0.930 . S
C982 C983 1.355 . S
C982 C984 1.415 . S
C983 C982 1.355 . S
C983 C985 1.419 . S
C984 C982 1.415 . S
C984 C989 1.425 . S
C984 C991 1.409 . S
C985 H977 0.930 . S
C985 C983 1.419 . S
C985 C986 1.362 . S
C986 H978 0.930 . S
C986 C985 1.362 . S
C986 C989 1.409 . S
C987 H979 0.930 . S
C987 C988 1.355 . S
C987 C989 1.415 . S
C988 C987 1.355 . S
C988 C990 1.419 . S
C989 C984 1.425 . S
C989 C986 1.409 . S
C989 C987 1.415 . S
C990 H980 0.930 . S
C990 C988 1.419 . S
C990 C991 1.362 . S
C991 H981 0.930 . S
C991 C984 1.409 . S
C991 C990 1.362 . S
H992 C998 0.930 . S
H993 C1001 0.930 . S
H994 C1002 0.930 . S
H995 C1003 0.930 . S
H996 C1006 0.930 . S
H997 C1007 0.930 . S
C998 H992 0.930 . S
C998 C999 1.355 . S
C998 C1000 1.415 . S
C999 C998 1.355 . S
C999 C1001 1.419 . S
C1000 C998 1.415 . S
C1000 C1005 1.425 . S
C1000 C1007 1.409 . S
C1001 H993 0.930 . S
C1001 C999 1.419 . S
C1001 C1002 1.362 . S
C1002 H994 0.930 . S
C1002 C1001 1.362 . S
C1002 C1005 1.409 . S
C1003 H995 0.930 . S
C1003 C1004 1.355 . S
C1003 C1005 1.415 . S
C1004 C1003 1.355 . S
C1004 C1006 1.419 . S
C1005 C1000 1.425 . S
C1005 C1002 1.409 . S
C1005 C1003 1.415 . S
C1006 H996 0.930 . S
C1006 C1004 1.419 . S
C1006 C1007 1.362 . S
C1007 H997 0.930 . S
C1007 C1000 1.409 . S
C1007 C1006 1.362 . S
H1008 C1014 0.930 . S
H1009 C1017 0.930 . S
H1010 C1018 0.930 . S
H1011 C1019 0.930 . S
H1012 C1022 0.930 . S
H1013 C1023 0.930 . S
C1014 H1008 0.930 . S
C1014 C1015 1.355 . S
C1014 C1016 1.415 . S
C1015 C1014 1.355 . S
C1015 C1017 1.419 . S
C1016 C1014 1.415 . S
C1016 C1021 1.425 . S
C1016 C1023 1.409 . S
C1017 H1009 0.930 . S
C1017 C1015 1.419 . S
C1017 C1018 1.362 . S
C1018 H1010 0.930 . S
C1018 C1017 1.362 . S
C1018 C1021 1.409 . S
C1019 H1011 0.930 . S
C1019 C1020 1.355 . S
C1019 C1021 1.415 . S
C1020 C1019 1.355 . S
C1020 C1022 1.419 . S
C1021 C1016 1.425 . S
C1021 C1018 1.409 . S
C1021 C1019 1.415 . S
C1022 H1012 0.930 . S
C1022 C1020 1.419 . S
C1022 C1023 1.362 . S
C1023 H1013 0.930 . S
C1023 C1016 1.409 . S
C1023 C1022 1.362 . S
H1024 C1030 0.930 . S
H1025 C1033 0.930 . S
H1026 C1034 0.930 . S
H1027 C1035 0.930 . S
H1028 C1038 0.930 . S
H1029 C1039 0.930 . S
C1030 H1024 0.930 . S
C1030 C1031 1.355 . S
C1030 C1032 1.415 . S
C1031 C1030 1.355 . S
C1031 C1033 1.419 . S
C1032 C1030 1.415 . S
C1032 C1037 1.425 . S
C1032 C1039 1.409 . S
C1033 H1025 0.930 . S
C1033 C1031 1.419 . S
C1033 C1034 1.362 . S
C1034 H1026 0.930 . S
C1034 C1033 1.362 . S
C1034 C1037 1.409 . S
C1035 H1027 0.930 . S
C1035 C1036 1.355 . S
C1035 C1037 1.415 . S
C1036 C1035 1.355 . S
C1036 C1038 1.419 . S
C1037 C1032 1.425 . S
C1037 C1034 1.409 . S
C1037 C1035 1.415 . S
C1038 H1028 0.930 . S
C1038 C1036 1.419 . S
C1038 C1039 1.362 . S
C1039 H1029 0.930 . S
C1039 C1032 1.409 . S
C1039 C1038 1.362 . S
H1040 C1046 0.930 . S
H1041 C1049 0.930 . S
H1042 C1050 0.930 . S
H1043 C1051 0.930 . S
H1044 C1054 0.930 . S
H1045 C1055 0.930 . S
C1046 H1040 0.930 . S
C1046 C1047 1.355 . S
C1046 C1048 1.415 . S
C1047 C1046 1.355 . S
C1047 C1049 1.419 . S
C1048 C1046 1.415 . S
C1048 C1053 1.425 . S
C1048 C1055 1.409 . S
C1049 H1041 0.930 . S
C1049 C1047 1.419 . S
C1049 C1050 1.362 . S
C1050 H1042 0.930 . S
C1050 C1049 1.362 . S
C1050 C1053 1.409 . S
C1051 H1043 0.930 . S
C1051 C1052 1.355 . S
C1051 C1053 1.415 . S
C1052 C1051 1.355 . S
C1052 C1054 1.419 . S
C1053 C1048 1.425 . S
C1053 C1050 1.409 . S
C1053 C1051 1.415 . S
C1054 H1044 0.930 . S
C1054 C1052 1.419 . S
C1054 C1055 1.362 . S
C1055 H1045 0.930 . S
C1055 C1048 1.409 . S
C1055 C1054 1.362 . S
H1056 C1062 0.930 . S
H1057 C1065 0.930 . S
H1058 C1066 0.930 . S
H1059 C1067 0.930 . S
H1060 C1070 0.930 . S
H1061 C1071 0.930 . S
C1062 H1056 0.930 . S
C1062 C1063 1.355 . S
C1062 C1064 1.415 . S
C1063 C1062 1.355 . S
C1063 C1065 1.419 . S
C1064 C1062 1.415 . S
C1064 C1069 1.425 1_455 S
C1064 C1071 1.409 . S
C1065 H1057 0.930 . S
C1065 C1063 1.419 . S
C1065 C1066 1.362 1_455 S
C1066 H1058 0.930 . S
C1066 C1065 1.362 1_655 S
C1066 C1069 1.409 . S
C1067 H1059 0.930 . S
C1067 C1068 1.355 . S
C1067 C1069 1.415 . S
C1068 C1067 1.355 . S
C1068 C1070 1.419 . S
C1069 C1064 1.425 1_655 S
C1069 C1066 1.409 . S
C1069 C1067 1.415 . S
C1070 H1060 0.930 . S
C1070 C1068 1.419 . S
C1070 C1071 1.362 1_655 S
C1071 H1061 0.930 . S
C1071 C1064 1.409 . S
C1071 C1070 1.362 1_455 S
H1072 C1078 0.930 . S
H1073 C1081 0.930 . S
H1074 C1082 0.930 . S
H1075 C1083 0.930 . S
H1076 C1086 0.930 . S
H1077 C1087 0.930 . S
C1078 H1072 0.930 . S
C1078 C1079 1.355 . S
C1078 C1080 1.415 . S
C1079 C1078 1.355 . S
C1079 C1081 1.419 1_565 S
C1080 C1078 1.415 . S
C1080 C1085 1.425 1_565 S
C1080 C1087 1.409 . S
C1081 H1073 0.930 . S
C1081 C1079 1.419 1_545 S
C1081 C1082 1.362 . S
C1082 H1074 0.930 . S
C1082 C1081 1.362 . S
C1082 C1085 1.409 . S
C1083 H1075 0.930 . S
C1083 C1084 1.355 . S
C1083 C1085 1.415 . S
C1084 C1083 1.355 . S
C1084 C1086 1.419 1_545 S
C1085 C1080 1.425 1_545 S
C1085 C1082 1.409 . S
C1085 C1083 1.415 . S
C1086 H1076 0.930 . S
C1086 C1084 1.419 1_565 S
C1086 C1087 1.362 . S
C1087 H1077 0.930 . S
C1087 C1080 1.409 . S
C1087 C1086 1.362 . S
H1088 C1094 0.930 . S
H1089 C1097 0.930 . S
H1090 C1098 0.930 . S
H1091 C1099 0.930 . S
H1092 C1102 0.930 . S
H1093 C1103 0.930 . S
C1094 H1088 0.930 . S
C1094 C1095 1.355 . S
C1094 C1096 1.415 . S
C1095 C1094 1.355 . S
C1095 C1097 1.419 . S
C1096 C1094 1.415 . S
C1096 C1101 1.425 1_455 S
C1096 C1103 1.409 1_455 S
C1097 H1089 0.930 . S
C1097 C1095 1.419 . S
C1097 C1098 1.362 . S
C1098 H1090 0.930 . S
C1098 C1097 1.362 . S
C1098 C1101 1.409 1_455 S
C1099 H1091 0.930 . S
C1099 C1100 1.355 . S
C1099 C1101 1.415 . S
C1100 C1099 1.355 . S
C1100 C1102 1.419 . S
C1101 C1096 1.425 1_655 S
C1101 C1098 1.409 1_655 S
C1101 C1099 1.415 . S
C1102 H1092 0.930 . S
C1102 C1100 1.419 . S
C1102 C1103 1.362 . S
C1103 H1093 0.930 . S
C1103 C1096 1.409 1_655 S
C1103 C1102 1.362 . S
H1104 C1110 0.930 . S
H1105 C1113 0.930 . S
H1106 C1114 0.930 . S
H1107 C1115 0.930 . S
H1108 C1118 0.930 . S
H1109 C1119 0.930 . S
C1110 H1104 0.930 . S
C1110 C1111 1.355 . S
C1110 C1112 1.415 . S
C1111 C1110 1.355 . S
C1111 C1113 1.419 1_545 S
C1112 C1110 1.415 . S
C1112 C1117 1.425 1_545 S
C1112 C1119 1.409 . S
C1113 H1105 0.930 . S
C1113 C1111 1.419 1_565 S
C1113 C1114 1.362 . S
C1114 H1106 0.930 . S
C1114 C1113 1.362 . S
C1114 C1117 1.409 . S
C1115 H1107 0.930 . S
C1115 C1116 1.355 . S
C1115 C1117 1.415 . S
C1116 C1115 1.355 . S
C1116 C1118 1.419 1_565 S
C1117 C1112 1.425 1_565 S
C1117 C1114 1.409 . S
C1117 C1115 1.415 . S
C1118 H1108 0.930 . S
C1118 C1116 1.419 1_545 S
C1118 C1119 1.362 . S
C1119 H1109 0.930 . S
C1119 C1112 1.409 . S
C1119 C1118 1.362 . S
H1120 C1126 0.930 . S
H1121 C1129 0.930 . S
H1122 C1130 0.930 . S
H1123 C1131 0.930 . S
H1124 C1134 0.930 . S
H1125 C1135 0.930 . S
C1126 H1120 0.930 . S
C1126 C1127 1.355 . S
C1126 C1128 1.415 . S
C1127 C1126 1.355 . S
C1127 C1129 1.419 . S
C1128 C1126 1.415 . S
C1128 C1133 1.425 1_556 S
C1128 C1135 1.409 1_556 S
C1129 H1121 0.930 . S
C1129 C1127 1.419 . S
C1129 C1130 1.362 . S
C1130 H1122 0.930 . S
C1130 C1129 1.362 . S
C1130 C1133 1.409 1_556 S
C1131 H1123 0.930 . S
C1131 C1132 1.355 . S
C1131 C1133 1.415 . S
C1132 C1131 1.355 . S
C1132 C1134 1.419 . S
C1133 C1128 1.425 1_554 S
C1133 C1130 1.409 1_554 S
C1133 C1131 1.415 . S
C1134 H1124 0.930 . S
C1134 C1132 1.419 . S
C1134 C1135 1.362 . S
C1135 H1125 0.930 . S
C1135 C1128 1.409 1_554 S
C1135 C1134 1.362 . S
H1136 C1142 0.930 . S
H1137 C1145 0.930 . S
H1138 C1146 0.930 . S
H1139 C1147 0.930 . S
H1140 C1150 0.930 . S
H1141 C1151 0.930 . S
C1142 H1136 0.930 . S
C1142 C1143 1.355 . S
C1142 C1144 1.415 . S
C1143 C1142 1.355 . S
C1143 C1145 1.419 . S
C1144 C1142 1.415 . S
C1144 C1149 1.425 1_554 S
C1144 C1151 1.409 1_554 S
C1145 H1137 0.930 . S
C1145 C1143 1.419 . S
C1145 C1146 1.362 . S
C1146 H1138 0.930 . S
C1146 C1145 1.362 . S
C1146 C1149 1.409 1_554 S
C1147 H1139 0.930 . S
C1147 C1148 1.355 . S
C1147 C1149 1.415 . S
C1148 C1147 1.355 . S
C1148 C1150 1.419 . S
C1149 C1144 1.425 1_556 S
C1149 C1146 1.409 1_556 S
C1149 C1147 1.415 . S
C1150 H1140 0.930 . S
C1150 C1148 1.419 . S
C1150 C1151 1.362 . S
C1151 H1141 0.930 . S
C1151 C1144 1.409 1_556 S
C1151 C1150 1.362 . S
H1152 C1158 0.930 . S
H1153 C1161 0.930 . S
H1154 C1162 0.930 . S
H1155 C1163 0.930 . S
H1156 C1166 0.930 . S
H1157 C1167 0.930 . S
C1158 H1152 0.930 . S
C1158 C1159 1.355 . S
C1158 C1160 1.423 . S
C1159 C1158 1.355 . S
C1159 C1161 1.419 . S
C1160 C1158 1.423 . S
C1160 C1165 1.425 1_554 S
C1160 C1167 1.401 1_554 S
C1161 H1153 0.930 . S
C1161 C1159 1.419 . S
C1161 C1162 1.362 . S
C1162 H1154 0.930 . S
C1162 C1161 1.362 . S
C1162 C1165 1.401 1_554 S
C1163 H1155 0.930 . S
C1163 C1164 1.355 . S
C1163 C1165 1.423 . S
C1164 C1163 1.355 . S
C1164 C1166 1.419 . S
C1165 C1160 1.425 1_556 S
C1165 C1162 1.401 1_556 S
C1165 C1163 1.423 . S
C1166 H1156 0.930 . S
C1166 C1164 1.419 . S
C1166 C1167 1.362 . S
C1167 H1157 0.930 . S
C1167 C1160 1.401 1_556 S
C1167 C1166 1.362 . S
H1168 C1174 0.930 . S
H1169 C1177 0.930 . S
H1170 C1178 0.930 1_554 S
H1171 C1179 0.930 . S
H1172 C1182 0.930 . S
H1173 C1183 0.930 1_556 S
C1174 H1168 0.930 . S
C1174 C1175 1.355 . S
C1174 C1176 1.415 . S
C1175 C1174 1.355 . S
C1175 C1177 1.419 . S
C1176 C1174 1.415 . S
C1176 C1181 1.425 1_556 S
C1176 C1183 1.409 1_556 S
C1177 H1169 0.930 . S
C1177 C1175 1.419 . S
C1177 C1178 1.362 . S
C1178 H1170 0.930 1_556 S
C1178 C1177 1.362 . S
C1178 C1181 1.409 1_556 S
C1179 H1171 0.930 . S
C1179 C1180 1.355 . S
C1179 C1181 1.415 . S
C1180 C1179 1.355 . S
C1180 C1182 1.419 . S
C1181 C1176 1.425 1_554 S
C1181 C1178 1.409 1_554 S
C1181 C1179 1.415 . S
C1182 H1172 0.930 . S
C1182 C1180 1.419 . S
C1182 C1183 1.362 . S
C1183 H1173 0.930 1_554 S
C1183 C1176 1.409 1_554 S
C1183 C1182 1.362 . S
C551 C88 1.071 . S
C556 C20 1.072 . S
C567 C54 1.072 . S
C572 C122 1.072 . S
C583 C224 1.071 . S
C588 C156 1.070 . S
C599 C258 1.055 . S
C604 C190 1.055 . S
C615 C292 1.055 . S
C620 C360 1.055 . S
C631 C394 1.060 . S
C636 C326 1.058 . S
C647 C496 1.071 . S
C652 C428 1.071 . S
C663 C462 1.060 . S
C668 C530 1.059 . S
C679 C9 1.551 . S
C684 C519 1.574 . S
C695 C417 1.565 . S
C700 C43 1.557 . S
C711 C451 1.597 . S
C716 C77 1.575 . S
C727 C485 1.578 . S
C732 C111 1.549 . S
C743 C315 1.601 . S
C748 C145 1.552 . S
C759 C349 1.562 . S
C764 C179 1.560 . S
C775 C383 1.547 . S
C780 C213 1.580 . S
C791 C281 1.601 . S
C796 C247 1.567 . S
C807 C2 1.422 . S
C812 C135 1.428 . S
C823 C33 1.430 . S
C828 C36 1.436 . S
C839 C70 1.447 . S
C844 C67 1.441 . S
C855 C101 1.434 . S
C860 C104 1.442 . S
C871 C203 1.429 . S
C876 C138 1.419 . S
C887 C172 1.427 . S
C892 C237 1.443 . S
C903 C271 1.445 . S
C908 C206 1.432 . S
C919 C169 1.443 . S
C924 C240 1.427 . S
C935 C274 1.421 . S
C940 C407 1.428 . S
C951 C305 1.438 . S
C956 C308 1.420 . S
C967 C342 1.446 . S
C972 C339 1.445 . S
C983 C376 1.448 . S
C988 C373 1.441 . S
C999 C410 1.446 . S
C1004 C475 1.445 . S
C1015 C509 1.428 . S
C1020 C444 1.427 . S
C1031 C543 1.429 . S
C1036 C478 1.433 . S
C1047 C512 1.421 . S
C1052 C441 1.439 . S
C1063 C5 1.612 . S
C1068 C209 1.597 . S
C1079 C243 1.603 . S
C1084 C39 1.606 . S
C1095 C141 1.598 . S
C1100 C73 1.612 . S
C1111 C175 1.611 . S
C1116 C107 1.598 . S
C1127 C277 1.612 . S
C1132 C481 1.598 . S
C1143 C515 1.612 . S
C1148 C311 1.598 . S
C1159 C413 1.604 . S
C1164 C345 1.605 . S
C1175 C379 1.599 . S
C1180 C447 1.611 . S
