# Generated by pormake.
# Topology lon, (4)-cn, num edge types: 1
# Building blocks:
#     Node 0, Type 0, BuildingBlock: ICAMEG_clean_sbu_1, # of connection points: 4
#     Node 1, Type 0, BuildingBlock: ICAMEG_clean_sbu_1, # of connection points: 4
#     Node 2, Type 0, BuildingBlock: ICAMEG_clean_sbu_1, # of connection points: 4
#     Node 3, Type 0, BuildingBlock: ICAMEG_clean_sbu_1, # of connection points: 4
#     Edge 4, Type (0, 0), BuildingBlock: FUNLAD_clean_linker_0, # of connection points: 2
#     Edge 5, Type (0, 0), BuildingBlock: FUNLAD_clean_linker_0, # of connection points: 2
#     Edge 6, Type (0, 0), BuildingBlock: FUNLAD_clean_linker_0, # of connection points: 2
#     Edge 7, Type (0, 0), BuildingBlock: FUNLAD_clean_linker_0, # of connection points: 2
#     Edge 8, Type (0, 0), BuildingBlock: FUNLAD_clean_linker_0, # of connection points: 2
#     Edge 9, Type (0, 0), BuildingBlock: FUNLAD_clean_linker_0, # of connection points: 2
#     Edge 10, Type (0, 0), BuildingBlock: FUNLAD_clean_linker_0, # of connection points: 2
#     Edge 11, Type (0, 0), BuildingBlock: FUNLAD_clean_linker_0, # of connection points: 2
# Relax obj value: 0.243
# Max RMSD: 0.269
# Mean RMSD: 0.258
data_MOF--net-lon--node1-ICAMEG_clean_sbu_1--edge1-FUNLAD_clean_linker_0
_symmetry_space_group_name_H-M    P1
_symmetry_Int_Tables_number       1
_symmetry_cell_setting            triclinic
loop_
_symmetry_equiv_pos_as_xyz
'x, y, z'
_cell_length_a     25.827663
_cell_length_b     30.373153
_cell_length_c     51.034358
_cell_angle_alpha  92.850249
_cell_angle_beta   89.97539
_cell_angle_gamma 115.27748
loop_
_atom_site_label
_atom_site_type_symbol
_atom_site_fract_x
_atom_site_fract_y
_atom_site_fract_z
_atom_type_partial_charge
Co0 Co 0.34872 0.70737 0.04915 0.0
Co1 Co 0.35131 0.64695 0.10361 0.0
O2 O 0.36522 0.70763 0.08674 0.0
C3 C 0.45569 0.78727 0.03171 0.0
O4 O 0.46133 0.75491 0.01536 0.0
C5 C 0.31654 0.70628 0.14345 0.0
O6 O 0.31453 0.73483 0.12544 0.0
O7 O 0.26989 0.61849 0.09121 0.0
O8 O 0.28217 0.64129 0.04966 0.0
H9 H 0.27368 0.46486 0.10672 0.0
H10 H 0.3592 0.79373 0.08257 0.0
O11 O 0.4146 0.77386 0.04782 0.0
H12 H 0.16302 0.7241 0.04482 0.0
H13 H 0.32457 0.78161 0.96647 0.0
H14 H 0.32192 0.63449 1.00439 0.0
H15 H 0.22831 0.68627 0.03382 0.0
H16 H 0.34325 0.78105 0.0138 0.0
O17 O 0.32938 0.67096 0.13747 0.0
H18 H 0.29362 0.54225 0.08633 0.0
H19 H 0.37662 0.62213 0.15662 0.0
H20 H 0.30289 0.63344 0.95697 0.0
H21 H 0.29562 0.83327 0.09368 0.0
H22 H 0.30416 0.70739 0.93771 0.0
H23 H 0.19662 0.79829 0.07486 0.0
O24 O 0.40054 0.67581 0.04082 0.0
H25 H 0.53168 0.77986 0.14354 0.0
H26 H 0.44371 0.61249 0.10339 0.0
H27 H 0.54519 0.64856 0.1177 0.0
H28 H 0.58979 0.73277 0.13807 0.0
H29 H 0.43053 0.74259 0.12867 0.0
H30 H 0.35709 0.54559 0.17783 0.0
H31 H 0.3055 0.46623 0.1528 0.0
O32 O 0.37346 0.61972 0.07098 0.0
C33 C 0.2519 0.61476 0.06757 0.0
C34 C 0.29633 0.49922 0.11781 0.0
C35 C 0.34307 0.54452 0.15772 0.0
N36 N 0.33656 0.58669 0.12019 0.0
C37 C 0.30785 0.54317 0.10635 0.0
C38 C 0.35386 0.58774 0.14562 0.0
C39 C 0.31415 0.50001 0.14367 0.0
C40 C 0.31639 0.77853 0.07409 0.0
N41 N 0.29755 0.73762 0.05764 0.0
C42 C 0.28048 0.80098 0.08055 0.0
C43 C 0.22492 0.78129 0.07002 0.0
C44 C 0.20601 0.73962 0.0532 0.0
C45 C 0.24311 0.71817 0.04718 0.0
C46 C 0.32383 0.74914 0.97463 0.0
C47 C 0.32242 0.66678 0.99618 0.0
C48 C 0.33436 0.74859 1.00142 0.0
N49 N 0.3335 0.7077 1.01188 0.0
C50 C 0.31166 0.66598 0.9693 0.0
C51 C 0.31239 0.70749 0.95851 0.0
C52 C 0.39887 0.6369 0.04983 0.0
C53 C 0.51266 0.74304 0.13481 0.0
C54 C 0.46278 0.6492 0.11216 0.0
C55 C 0.52027 0.6694 0.12027 0.0
C56 C 0.54526 0.71664 0.1317 0.0
N57 N 0.43091 0.67519 0.11546 0.0
C58 C 0.45527 0.72165 0.12646 0.0
Co59 Co 0.62492 0.31599 0.55076 0.0
Co60 Co 0.69694 0.28983 0.59961 0.0
O61 O 0.64463 0.31702 0.58797 0.0
C62 C 0.64417 0.41818 0.54475 0.0
O63 O 0.68204 0.42039 0.52707 0.0
C64 C 0.60507 0.26479 0.64068 0.0
O65 O 0.57229 0.27586 0.62529 0.0
O66 O 0.64826 0.22619 0.58087 0.0
O67 O 0.62875 0.25207 0.54334 0.0
H68 H 0.81575 0.19601 0.5867 0.0
H69 H 0.54859 0.3319 0.58988 0.0
O70 O 0.61962 0.37979 0.55749 0.0
H71 H 0.42554 0.18122 0.53852 0.0
H72 H 0.51521 0.33802 0.47469 0.0
H73 H 0.67012 0.29409 0.50088 0.0
H74 H 0.52756 0.22575 0.52838 0.0
H75 H 0.53897 0.33783 0.52147 0.0
O76 O 0.65291 0.26702 0.63275 0.0
H77 H 0.75141 0.23201 0.57293 0.0
H78 H 0.7515 0.28783 0.65094 0.0
H79 H 0.64767 0.2937 0.45389 0.0
H80 H 0.44643 0.28901 0.60033 0.0
H81 H 0.56971 0.31579 0.44053 0.0
H82 H 0.3842 0.21292 0.57466 0.0
O83 O 0.7077 0.35096 0.54295 0.0
H84 H 0.73277 0.44061 0.65655 0.0
H85 H 0.82256 0.35368 0.6031 0.0
H86 H 0.88327 0.43344 0.62504 0.0
H87 H 0.83845 0.47739 0.65214 0.0
H88 H 0.67365 0.36115 0.63399 0.0
H89 H 0.81542 0.25206 0.66557 0.0
H90 H 0.84821 0.20594 0.63332 0.0
O91 O 0.74462 0.31204 0.56766 0.0
C92 C 0.63107 0.21873 0.5569 0.0
C93 C 0.80189 0.21614 0.60092 0.0
C94 C 0.80164 0.24753 0.64519 0.0
N95 N 0.74797 0.26227 0.61105 0.0
C96 C 0.76555 0.2367 0.59323 0.0
C97 C 0.76529 0.26758 0.63679 0.0
C98 C 0.82004 0.22168 0.62709 0.0
C99 C 0.52174 0.29906 0.57845 0.0
N100 N 0.54428 0.28127 0.55865 0.0
C101 C 0.46394 0.27481 0.58454 0.0
C102 C 0.42907 0.23209 0.57016 0.0
C103 C 0.45226 0.21424 0.54992 0.0
C104 C 0.51024 0.23945 0.54439 0.0
C105 C 0.54923 0.32827 0.48026 0.0
C106 C 0.63607 0.30366 0.49523 0.0
C107 C 0.56289 0.3281 0.50672 0.0
N108 N 0.60582 0.31582 0.51392 0.0
C109 C 0.62357 0.3034 0.46859 0.0
C110 C 0.57983 0.31581 0.46111 0.0
C111 C 0.74856 0.34042 0.54938 0.0
C112 C 0.75285 0.42168 0.64493 0.0
C113 C 0.80264 0.37255 0.61479 0.0
C114 C 0.83729 0.41771 0.62721 0.0
C115 C 0.81213 0.44234 0.64241 0.0
N116 N 0.74452 0.35226 0.61753 0.0
C117 C 0.71955 0.37645 0.63221 0.0
Co118 Co 0.31275 0.69587 0.47639 0.0
Co119 Co 0.40048 0.71699 0.42368 0.0
O120 O 0.32297 0.69175 0.43825 0.0
C121 C 0.2158 0.59947 0.4572 0.0
O122 O 0.23717 0.60136 0.43375 0.0
C123 C 0.32839 0.74007 0.38454 0.0
O124 O 0.2883 0.73295 0.40176 0.0
O125 O 0.41888 0.78246 0.44091 0.0
O126 O 0.3835 0.7588 0.48043 0.0
H127 H 0.61475 0.81009 0.42883 0.0
H128 H 0.21547 0.68316 0.44079 0.0
O129 O 0.24108 0.63323 0.4748 0.0
H130 H 0.25862 0.83543 0.49369 0.0
H131 H 0.20116 0.68154 0.55907 0.0
H132 H 0.3917 0.7207 0.52257 0.0
H133 H 0.31403 0.78794 0.50054 0.0
H134 H 0.21338 0.67785 0.51122 0.0
O135 O 0.37416 0.73655 0.39086 0.0
H136 H 0.51701 0.77668 0.4461 0.0
H137 H 0.4482 0.71288 0.37068 0.0
H138 H 0.38144 0.72523 0.57054 0.0
H139 H 0.15833 0.72902 0.43363 0.0
H140 H 0.28562 0.70558 0.58909 0.0
H141 H 0.1799 0.80594 0.4601 0.0
O142 O 0.35847 0.65835 0.48164 0.0
H143 H 0.27804 0.56324 0.37041 0.0
H144 H 0.45983 0.6514 0.42031 0.0
H145 H 0.43688 0.56978 0.39997 0.0
H146 H 0.34549 0.52514 0.37469 0.0
H147 H 0.30225 0.64456 0.39144 0.0
H148 H 0.54517 0.74595 0.35257 0.0
H149 H 0.62932 0.79478 0.38174 0.0
O150 O 0.43106 0.69788 0.45527 0.0
C151 C 0.41497 0.79147 0.46533 0.0
C152 C 0.57844 0.78878 0.41593 0.0
C153 C 0.53938 0.75283 0.37313 0.0
N154 N 0.47692 0.74261 0.40948 0.0
C155 C 0.52298 0.76968 0.42561 0.0
C156 C 0.48454 0.73431 0.38349 0.0
C157 C 0.58658 0.7802 0.38951 0.0
C158 C 0.22477 0.71618 0.45263 0.0
N159 N 0.26806 0.73262 0.4711 0.0
C160 C 0.19241 0.7422 0.44837 0.0
C161 C 0.2046 0.78539 0.4632 0.0
C162 C 0.2488 0.80198 0.48201 0.0
C163 C 0.28024 0.77501 0.48571 0.0
C164 C 0.24315 0.69027 0.55123 0.0
C165 C 0.3499 0.7123 0.53047 0.0
C166 C 0.25034 0.68815 0.52414 0.0
N167 N 0.30331 0.69938 0.51408 0.0
C168 C 0.34433 0.71484 0.55766 0.0
C169 C 0.29056 0.70377 0.56806 0.0
C170 C 0.40892 0.66894 0.47364 0.0
C171 C 0.31806 0.58236 0.38132 0.0
C172 C 0.41975 0.63214 0.40955 0.0
C173 C 0.40711 0.58597 0.39796 0.0
C174 C 0.35588 0.56097 0.38376 0.0
N175 N 0.38246 0.65295 0.40707 0.0
C176 C 0.33215 0.6286 0.39319 0.0
Co177 Co 0.65543 0.29358 0.96903 0.0
Co178 Co 0.71938 0.3752 0.92211 0.0
O179 O 0.67827 0.30768 0.93264 0.0
C180 C 0.69569 0.21836 0.98007 0.0
O181 O 0.72941 0.24901 0.99842 0.0
C182 C 0.63045 0.32515 0.87941 0.0
O183 O 0.59494 0.29799 0.89663 0.0
O184 O 0.65694 0.39104 0.93601 0.0
O185 O 0.64252 0.35409 0.97401 0.0
H186 H 0.79717 0.55744 0.93522 0.0
H187 H 0.59684 0.21584 0.92762 0.0
O188 O 0.66643 0.23183 0.96492 0.0
H189 H 0.4436 0.24857 0.96926 0.0
H190 H 0.55258 0.18656 0.04234 0.0
H191 H 0.6844 0.35259 0.01938 0.0
H192 H 0.54386 0.29378 0.98471 0.0
H193 H 0.57962 0.20436 0.99641 0.0
O194 O 0.68013 0.35697 0.8866 0.0
H195 H 0.74764 0.47249 0.94815 0.0
H196 H 0.77567 0.4208 0.87306 0.0
H197 H 0.65828 0.33644 0.06556 0.0
H198 H 0.49691 0.16905 0.91191 0.0
H199 H 0.59194 0.2529 0.0773 0.0
H200 H 0.41949 0.18549 0.93269 0.0
O201 O 0.73676 0.33106 0.98081 0.0
H202 H 0.79849 0.27217 0.87171 0.0
H203 H 0.84706 0.42239 0.92749 0.0
H204 H 0.92439 0.40179 0.91129 0.0
H205 H 0.90031 0.32629 0.88309 0.0
H206 H 0.72243 0.29391 0.88858 0.0
H207 H 0.8251 0.50518 0.85925 0.0
H208 H 0.83632 0.57423 0.89047 0.0
O209 O 0.76152 0.39663 0.95692 0.0
C210 C 0.63712 0.38452 0.95911 0.0
C211 C 0.79271 0.52767 0.92146 0.0
C212 C 0.80832 0.49834 0.87882 0.0
N213 N 0.7591 0.44171 0.91146 0.0
C214 C 0.76482 0.47948 0.9287 0.0
C215 C 0.78016 0.45062 0.88673 0.0
C216 C 0.81461 0.53706 0.89635 0.0
C217 C 0.56333 0.22282 0.93697 0.0
N218 N 0.57629 0.25754 0.95706 0.0
C219 C 0.50685 0.19638 0.9279 0.0
C220 C 0.46345 0.20568 0.93953 0.0
C221 C 0.47696 0.24113 0.96002 0.0
C222 C 0.53392 0.26684 0.96858 0.0
C223 C 0.5815 0.22312 0.03748 0.0
C224 C 0.65544 0.31616 0.02432 0.0
C225 C 0.59701 0.23342 1.0115 0.0
N226 N 0.63355 0.27951 1.00519 0.0
C227 C 0.64082 0.30723 0.05051 0.0
C228 C 0.60361 0.26035 0.05708 0.0
C229 C 0.77029 0.3747 0.97591 0.0
C230 C 0.80953 0.30524 0.88392 0.0
C231 C 0.83619 0.38936 0.91533 0.0
C232 C 0.88019 0.37795 0.90616 0.0
C233 C 0.86665 0.33559 0.89033 0.0
N234 N 0.78026 0.3595 0.90885 0.0
C235 C 0.76666 0.31781 0.89345 0.0
C236 C 0.29594 0.6814 0.18975 0.0
C237 C 0.31062 0.71787 0.17154 0.0
C238 C 0.29575 0.69287 0.21663 0.0
C239 C 0.31114 0.74129 0.22597 0.0
C240 C 0.32509 0.77763 0.20776 0.0
C241 C 0.32402 0.76596 0.18078 0.0
C242 C 0.31821 0.75519 0.25458 0.0
C243 C 0.28493 0.72593 0.27275 0.0
C244 C 0.29648 0.73639 0.30151 0.0
C245 C 0.2507 0.71879 0.31886 0.0
C246 C 0.26083 0.72284 0.34604 0.0
C247 C 0.31713 0.74341 0.35639 0.0
H248 H 0.38912 0.77209 0.29917 0.0
C249 C 0.36291 0.76221 0.33906 0.0
C250 C 0.35274 0.75907 0.31195 0.0
H251 H 0.4068 0.77803 0.34643 0.0
H252 H 0.28565 0.64403 0.18325 0.0
H253 H 0.28604 0.66412 0.23013 0.0
H254 H 0.33765 0.81528 0.21446 0.0
H255 H 0.33608 0.79495 0.16727 0.0
H256 H 0.35194 0.79057 0.26079 0.0
H257 H 0.24784 0.69277 0.26638 0.0
H258 H 0.20698 0.7008 0.31132 0.0
H259 H 0.22466 0.70753 0.35882 0.0
C260 C 0.55819 0.27795 0.68156 0.0
C261 C 0.59193 0.25765 0.66887 0.0
C262 C 0.55278 0.27735 0.70888 0.0
C263 C 0.58028 0.2557 0.72399 0.0
C264 C 0.61114 0.23293 0.71113 0.0
C265 C 0.61759 0.23446 0.68391 0.0
C266 C 0.57926 0.25775 0.75318 0.0
C267 C 0.58325 0.29779 0.76733 0.0
C268 C 0.59218 0.30382 0.79632 0.0
C269 C 0.62846 0.34994 0.80755 0.0
C270 C 0.64025 0.35679 0.83455 0.0
C271 C 0.61464 0.31794 0.8511 0.0
H272 H 0.53672 0.22915 0.80482 0.0
C273 C 0.57645 0.27211 0.84007 0.0
C274 C 0.56575 0.26495 0.81286 0.0
H275 H 0.55617 0.24151 0.85236 0.0
H276 H 0.53796 0.29617 0.67053 0.0
H277 H 0.52765 0.2943 0.71818 0.0
H278 H 0.63237 0.21569 0.72228 0.0
H279 H 0.64371 0.21835 0.67471 0.0
H280 H 0.58216 0.22808 0.76318 0.0
H281 H 0.58662 0.32945 0.75713 0.0
H282 H 0.64906 0.38056 0.79529 0.0
H283 H 0.66964 0.39259 0.84249 0.0
C284 C 0.42287 0.56533 0.04415 0.0
C285 C 0.42631 0.60944 0.03506 0.0
C286 C 0.44919 0.53949 0.03074 0.0
C287 C 0.48035 0.5573 1.00795 0.0
C288 C 0.48258 0.60068 0.99844 0.0
C289 C 0.45607 0.62661 1.01187 0.0
C290 C 0.50958 0.53076 0.99345 0.0
C291 C 0.52859 0.50165 1.00543 0.0
C292 C 0.55596 0.47235 0.99219 0.0
C293 C 0.56268 0.43696 1.00666 0.0
C294 C 0.58842 0.40848 0.99577 0.0
C295 C 0.60863 0.41461 0.97 0.0
H296 H 0.57272 0.50598 0.95452 0.0
C297 C 0.60214 0.45009 0.95537 0.0
C298 C 0.57607 0.4787 0.96632 0.0
H299 H 0.61756 0.45604 0.93552 0.0
H300 H 0.3996 0.55043 0.06167 0.0
H301 H 0.44413 0.50518 0.03817 0.0
H302 H 0.50553 0.61492 0.98074 0.0
H303 H 0.45916 0.66017 1.00412 0.0
H304 H 0.51595 0.53617 0.97265 0.0
H305 H 0.52349 0.49841 0.02647 0.0
H306 H 0.54784 0.43114 0.02661 0.0
H307 H 0.59268 0.38175 1.00779 0.0
C308 C 0.14184 0.55406 0.48938 0.0
C309 C 0.15875 0.5609 0.46314 0.0
C310 C 0.08656 0.52126 0.49548 0.0
C311 C 0.04651 0.49423 0.47547 0.0
C312 C 0.0634 0.50065 0.44922 0.0
C313 C 0.11922 0.53333 0.44309 0.0
C314 C 0.98619 0.46177 0.48168 0.0
C315 C 0.97232 0.4385 0.50424 0.0
C316 C 0.91276 0.41016 0.51299 0.0
C317 C 0.9037 0.37639 0.53224 0.0
C318 C 0.85002 0.35269 0.5433 0.0
C319 C 0.80391 0.36263 0.53568 0.0
H320 H 0.8718 0.44554 0.49018 0.0
C321 C 0.81241 0.39545 0.51583 0.0
C322 C 0.8663 0.41903 0.5046 0.0
H323 H 0.77789 0.4039 0.5094 0.0
H324 H 0.17109 0.57484 0.50533 0.0
H325 H 0.07485 0.51857 0.5159 0.0
H326 H 0.03322 0.48065 0.43342 0.0
H327 H 0.13076 0.53813 0.42267 0.0
H328 H 0.95294 0.45685 0.4673 0.0
H329 H 1.00652 0.44005 0.51719 0.0
H330 H 0.93866 0.36893 0.53916 0.0
H331 H 0.84526 0.32737 0.55834 0.0
C332 C 0.62784 0.13061 0.97134 0.0
C333 C 0.68105 0.16573 0.98127 0.0
C334 C 0.60921 0.08151 0.97658 0.0
C335 C 0.64374 0.06635 0.99155 0.0
C336 C 0.69848 0.1008 0.99993 0.0
C337 C 0.7167 0.15017 0.99515 0.0
C338 C 0.62269 0.01509 0.99916 0.0
C339 C 0.56847 0.98986 1.00689 0.0
C340 C 0.54497 0.93888 0.01526 0.0
C341 C 0.49857 0.92309 0.03228 0.0
C342 C 0.47161 0.87438 0.03878 0.0
C343 C 0.48977 0.83998 0.02798 0.0
H344 H 0.59971 0.91559 0.99168 0.0
C345 C 0.53723 0.85597 1.01146 0.0
C346 C 0.56474 0.90496 1.00523 0.0
H347 H 0.55214 0.83036 1.00272 0.0
H348 H 0.59925 0.14129 0.96059 0.0
H349 H 0.56735 0.05552 0.96928 0.0
H350 H 0.72613 0.08988 1.01122 0.0
H351 H 0.75799 0.17632 1.00298 0.0
H352 H 0.65329 0.99941 1.00032 0.0
H353 H 0.54027 0.0081 1.00815 0.0
H354 H 0.48234 0.9484 0.04022 0.0
H355 H 0.43497 0.86338 0.05141 0.0
C356 C 0.64881 0.49855 0.53248 0.0
C357 C 0.62124 0.4554 0.54573 0.0
C358 C 0.62274 0.53007 0.52968 0.0
C359 C 0.56793 0.51874 0.53974 0.0
C360 C 0.54221 0.4773 0.5545 0.0
C361 C 0.56848 0.4459 0.55746 0.0
C362 C 0.53547 0.54801 0.53444 0.0
C363 C 0.54453 0.57498 0.51324 0.0
C364 C 0.50983 0.6011 0.50567 0.0
C365 C 0.53285 0.63743 0.48754 0.0
C366 C 0.50066 0.66026 0.47785 0.0
C367 C 0.44406 0.64708 0.48582 0.0
H368 H 0.43373 0.56017 0.52783 0.0
C369 C 0.42122 0.61152 0.5045 0.0
C370 C 0.45368 0.58866 0.51431 0.0
H371 H 0.37775 0.60041 0.51105 0.0
H372 H 0.68992 0.50737 0.5236 0.0
H373 H 0.6455 0.56281 0.51928 0.0
H374 H 0.50047 0.46799 0.56283 0.0
H375 H 0.54606 0.41304 0.56787 0.0
H376 H 0.50115 0.54476 0.54759 0.0
H377 H 0.57845 0.57747 0.50002 0.0
H378 H 0.57584 0.64776 0.48048 0.0
H379 H 0.52003 0.68767 0.46364 0.0
C380 C 0.1478 0.56606 0.07668 0.0
C381 C 0.1943 0.57701 0.05988 0.0
C382 C 0.09257 0.53287 0.0682 0.0
C383 C 0.08341 0.50928 0.04305 0.0
C384 C 0.13034 0.51881 0.02679 0.0
C385 C 0.18505 0.55291 0.03492 0.0
C386 C 0.02546 0.47512 0.033 0.0
C387 C 0.97949 0.48464 0.03634 0.0
C388 C 0.92409 0.45517 0.02232 0.0
C389 C 0.89393 0.47909 1.01144 0.0
C390 C 0.8437 0.4528 0.99656 0.0
C391 C 0.82161 0.40181 0.99294 0.0
H392 H 0.92355 0.38458 0.02767 0.0
C393 C 0.85044 0.37755 1.00478 0.0
C394 C 0.9016 0.40404 0.01912 0.0
H395 H 0.83443 0.33829 1.00228 0.0
H396 H 0.15386 0.58422 0.096 0.0
H397 H 0.05716 0.52561 0.08129 0.0
H398 H 0.12438 0.50091 1.00739 0.0
H399 H 0.22025 0.56045 0.02165 0.0
H400 H 0.02201 0.44464 0.01987 0.0
H401 H 0.9845 0.51814 0.04703 0.0
H402 H 0.91026 0.51841 0.01374 0.0
H403 H 0.8222 0.47245 0.98781 0.0
C404 C 0.61628 0.13102 0.55671 0.0
C405 C 0.61357 0.16966 0.54362 0.0
C406 C 0.5987 0.08482 0.54392 0.0
C407 C 0.57755 0.07617 0.51776 0.0
C408 C 0.57638 0.11518 0.50459 0.0
C409 C 0.594 0.16118 0.51729 0.0
C410 C 0.55573 0.02738 0.50343 0.0
C411 C 0.53798 0.98501 0.51543 0.0
C412 C 0.5092 0.9359 0.50158 0.0
C413 C 0.47633 0.89636 0.51653 0.0
C414 C 0.44649 0.84983 0.50469 0.0
C415 C 0.4488 0.84122 0.47745 0.0
H416 H 0.53918 0.9564 0.46217 0.0
C417 C 0.48297 0.88044 0.46243 0.0
C418 C 0.51299 0.92733 0.47436 0.0
H419 H 0.4863 0.87502 0.44147 0.0
H420 H 0.63197 0.1364 0.57684 0.0
H421 H 0.60226 0.05637 0.55462 0.0
H422 H 0.56089 0.10993 0.48442 0.0
H423 H 0.59182 0.19003 0.50636 0.0
H424 H 0.54979 0.02652 0.48233 0.0
H425 H 0.54003 0.98583 0.53669 0.0
H426 H 0.47285 0.90155 0.53751 0.0
H427 H 0.42118 0.82065 0.51707 0.0
loop_
_geom_bond_atom_site_label_1
_geom_bond_atom_site_label_2
_geom_bond_distance
_geom_bond_site_symmetry_2
_ccdc_geom_bond_type
Co0 O2 2.143 . S
Co0 O8 2.074 . S
Co0 O11 2.093 . S
Co0 O24 2.097 . S
Co0 N41 2.151 . S
Co0 N49 2.214 1_554 S
Co1 O2 2.160 . S
Co1 O7 2.058 . S
Co1 O17 2.057 . S
Co1 O32 2.037 . S
Co1 N36 2.145 . S
Co1 N57 2.257 . S
O2 Co0 2.143 . S
O2 Co1 2.160 . S
C3 O4 1.278 . S
C3 O11 1.224 . S
O4 C3 1.278 . S
C5 O6 1.245 . S
C5 O17 1.232 . S
O6 C5 1.245 . S
O7 Co1 2.058 . S
O7 C33 1.269 . S
O8 Co0 2.074 . S
O8 C33 1.257 . S
H9 C34 0.930 . S
H10 C40 0.930 . S
O11 Co0 2.093 . S
O11 C3 1.224 . S
H12 C44 0.929 . S
H13 C46 0.930 . S
H14 C47 0.930 . S
H15 C45 0.929 . S
H16 C48 0.928 . S
O17 Co1 2.057 . S
O17 C5 1.232 . S
H18 C37 0.929 . S
H19 C38 0.929 . S
H20 C50 0.931 . S
H21 C42 0.929 . S
H22 C51 0.930 . S
H23 C43 0.931 . S
O24 Co0 2.097 . S
O24 C52 1.214 . S
H25 C53 0.929 . S
H26 C54 0.929 . S
H27 C55 0.930 . S
H28 C56 0.929 . S
H29 C58 0.930 . S
H30 C35 0.930 . S
H31 C39 0.930 . S
O32 Co1 2.037 . S
O32 C52 1.234 . S
C33 O7 1.269 . S
C33 O8 1.257 . S
C34 H9 0.930 . S
C34 C37 1.388 . S
C34 C39 1.418 . S
C35 H30 0.930 . S
C35 C38 1.404 . S
C35 C39 1.353 . S
N36 Co1 2.145 . S
N36 C37 1.397 . S
N36 C38 1.334 . S
C37 H18 0.929 . S
C37 C34 1.388 . S
C37 N36 1.397 . S
C38 H19 0.929 . S
C38 C35 1.404 . S
C38 N36 1.334 . S
C39 H31 0.930 . S
C39 C34 1.418 . S
C39 C35 1.353 . S
C40 H10 0.930 . S
C40 N41 1.330 . S
C40 C42 1.446 . S
N41 Co0 2.151 . S
N41 C40 1.330 . S
N41 C45 1.418 . S
C42 H21 0.929 . S
C42 C40 1.446 . S
C42 C43 1.332 . S
C43 H23 0.931 . S
C43 C42 1.332 . S
C43 C44 1.267 . S
C44 H12 0.929 . S
C44 C43 1.267 . S
C44 C45 1.251 . S
C45 H15 0.929 . S
C45 N41 1.418 . S
C45 C44 1.251 . S
C46 H13 0.930 . S
C46 C48 1.406 . S
C46 C51 1.261 . S
C47 H14 0.930 . S
C47 N49 1.325 . S
C47 C50 1.357 . S
C48 H16 0.928 . S
C48 C46 1.406 . S
C48 N49 1.261 . S
N49 Co0 2.214 1_556 S
N49 C47 1.325 . S
N49 C48 1.261 . S
C50 H20 0.931 . S
C50 C47 1.357 . S
C50 C51 1.312 . S
C51 H22 0.930 . S
C51 C46 1.261 . S
C51 C50 1.312 . S
C52 O24 1.214 . S
C52 O32 1.234 . S
C53 H25 0.929 . S
C53 C56 1.391 . S
C53 C58 1.391 . S
C54 H26 0.929 . S
C54 C55 1.390 . S
C54 N57 1.391 . S
C55 H27 0.930 . S
C55 C54 1.390 . S
C55 C56 1.392 . S
C56 H28 0.929 . S
C56 C53 1.391 . S
C56 C55 1.392 . S
N57 Co1 2.257 . S
N57 C54 1.391 . S
N57 C58 1.388 . S
C58 H29 0.930 . S
C58 C53 1.391 . S
C58 N57 1.388 . S
Co59 O61 2.143 . S
Co59 O67 2.074 . S
Co59 O70 2.093 . S
Co59 O83 2.097 . S
Co59 N100 2.151 . S
Co59 N108 2.214 . S
Co60 O61 2.160 . S
Co60 O66 2.058 . S
Co60 O76 2.057 . S
Co60 O91 2.037 . S
Co60 N95 2.145 . S
Co60 N116 2.257 . S
O61 Co59 2.143 . S
O61 Co60 2.160 . S
C62 O63 1.278 . S
C62 O70 1.224 . S
O63 C62 1.278 . S
C64 O65 1.245 . S
C64 O76 1.232 . S
O65 C64 1.245 . S
O66 Co60 2.058 . S
O66 C92 1.269 . S
O67 Co59 2.074 . S
O67 C92 1.257 . S
H68 C93 0.930 . S
H69 C99 0.930 . S
O70 Co59 2.093 . S
O70 C62 1.224 . S
H71 C103 0.929 . S
H72 C105 0.930 . S
H73 C106 0.930 . S
H74 C104 0.929 . S
H75 C107 0.928 . S
O76 Co60 2.057 . S
O76 C64 1.232 . S
H77 C96 0.929 . S
H78 C97 0.929 . S
H79 C109 0.931 . S
H80 C101 0.929 . S
H81 C110 0.930 . S
H82 C102 0.931 . S
O83 Co59 2.097 . S
O83 C111 1.214 . S
H84 C112 0.929 . S
H85 C113 0.929 . S
H86 C114 0.930 . S
H87 C115 0.929 . S
H88 C117 0.930 . S
H89 C94 0.930 . S
H90 C98 0.930 . S
O91 Co60 2.037 . S
O91 C111 1.234 . S
C92 O66 1.269 . S
C92 O67 1.257 . S
C93 H68 0.930 . S
C93 C96 1.388 . S
C93 C98 1.418 . S
C94 H89 0.930 . S
C94 C97 1.404 . S
C94 C98 1.353 . S
N95 Co60 2.145 . S
N95 C96 1.397 . S
N95 C97 1.334 . S
C96 H77 0.929 . S
C96 C93 1.388 . S
C96 N95 1.397 . S
C97 H78 0.929 . S
C97 C94 1.404 . S
C97 N95 1.334 . S
C98 H90 0.930 . S
C98 C93 1.418 . S
C98 C94 1.353 . S
C99 H69 0.930 . S
C99 N100 1.330 . S
C99 C101 1.446 . S
N100 Co59 2.151 . S
N100 C99 1.330 . S
N100 C104 1.418 . S
C101 H80 0.929 . S
C101 C99 1.446 . S
C101 C102 1.332 . S
C102 H82 0.931 . S
C102 C101 1.332 . S
C102 C103 1.267 . S
C103 H71 0.929 . S
C103 C102 1.267 . S
C103 C104 1.251 . S
C104 H74 0.929 . S
C104 N100 1.418 . S
C104 C103 1.251 . S
C105 H72 0.930 . S
C105 C107 1.406 . S
C105 C110 1.261 . S
C106 H73 0.930 . S
C106 N108 1.325 . S
C106 C109 1.357 . S
C107 H75 0.928 . S
C107 C105 1.406 . S
C107 N108 1.261 . S
N108 Co59 2.214 . S
N108 C106 1.325 . S
N108 C107 1.261 . S
C109 H79 0.931 . S
C109 C106 1.357 . S
C109 C110 1.312 . S
C110 H81 0.930 . S
C110 C105 1.261 . S
C110 C109 1.312 . S
C111 O83 1.214 . S
C111 O91 1.234 . S
C112 H84 0.929 . S
C112 C115 1.391 . S
C112 C117 1.391 . S
C113 H85 0.929 . S
C113 C114 1.390 . S
C113 N116 1.391 . S
C114 H86 0.930 . S
C114 C113 1.390 . S
C114 C115 1.392 . S
C115 H87 0.929 . S
C115 C112 1.391 . S
C115 C114 1.392 . S
N116 Co60 2.257 . S
N116 C113 1.391 . S
N116 C117 1.388 . S
C117 H88 0.930 . S
C117 C112 1.391 . S
C117 N116 1.388 . S
Co118 O120 2.143 . S
Co118 O126 2.074 . S
Co118 O129 2.093 . S
Co118 O142 2.097 . S
Co118 N159 2.151 . S
Co118 N167 2.214 . S
Co119 O120 2.160 . S
Co119 O125 2.058 . S
Co119 O135 2.057 . S
Co119 O150 2.037 . S
Co119 N154 2.145 . S
Co119 N175 2.257 . S
O120 Co118 2.143 . S
O120 Co119 2.160 . S
C121 O122 1.278 . S
C121 O129 1.224 . S
O122 C121 1.278 . S
C123 O124 1.245 . S
C123 O135 1.232 . S
O124 C123 1.245 . S
O125 Co119 2.058 . S
O125 C151 1.269 . S
O126 Co118 2.074 . S
O126 C151 1.257 . S
H127 C152 0.930 . S
H128 C158 0.930 . S
O129 Co118 2.093 . S
O129 C121 1.224 . S
H130 C162 0.929 . S
H131 C164 0.930 . S
H132 C165 0.930 . S
H133 C163 0.929 . S
H134 C166 0.928 . S
O135 Co119 2.057 . S
O135 C123 1.232 . S
H136 C155 0.929 . S
H137 C156 0.929 . S
H138 C168 0.931 . S
H139 C160 0.929 . S
H140 C169 0.930 . S
H141 C161 0.931 . S
O142 Co118 2.097 . S
O142 C170 1.214 . S
H143 C171 0.929 . S
H144 C172 0.929 . S
H145 C173 0.930 . S
H146 C174 0.929 . S
H147 C176 0.930 . S
H148 C153 0.930 . S
H149 C157 0.930 . S
O150 Co119 2.037 . S
O150 C170 1.234 . S
C151 O125 1.269 . S
C151 O126 1.257 . S
C152 H127 0.930 . S
C152 C155 1.388 . S
C152 C157 1.418 . S
C153 H148 0.930 . S
C153 C156 1.404 . S
C153 C157 1.353 . S
N154 Co119 2.145 . S
N154 C155 1.397 . S
N154 C156 1.334 . S
C155 H136 0.929 . S
C155 C152 1.388 . S
C155 N154 1.397 . S
C156 H137 0.929 . S
C156 C153 1.404 . S
C156 N154 1.334 . S
C157 H149 0.930 . S
C157 C152 1.418 . S
C157 C153 1.353 . S
C158 H128 0.930 . S
C158 N159 1.330 . S
C158 C160 1.446 . S
N159 Co118 2.151 . S
N159 C158 1.330 . S
N159 C163 1.418 . S
C160 H139 0.929 . S
C160 C158 1.446 . S
C160 C161 1.332 . S
C161 H141 0.931 . S
C161 C160 1.332 . S
C161 C162 1.267 . S
C162 H130 0.929 . S
C162 C161 1.267 . S
C162 C163 1.251 . S
C163 H133 0.929 . S
C163 N159 1.418 . S
C163 C162 1.251 . S
C164 H131 0.930 . S
C164 C166 1.406 . S
C164 C169 1.261 . S
C165 H132 0.930 . S
C165 N167 1.325 . S
C165 C168 1.357 . S
C166 H134 0.928 . S
C166 C164 1.406 . S
C166 N167 1.261 . S
N167 Co118 2.214 . S
N167 C165 1.325 . S
N167 C166 1.261 . S
C168 H138 0.931 . S
C168 C165 1.357 . S
C168 C169 1.312 . S
C169 H140 0.930 . S
C169 C164 1.261 . S
C169 C168 1.312 . S
C170 O142 1.214 . S
C170 O150 1.234 . S
C171 H143 0.929 . S
C171 C174 1.391 . S
C171 C176 1.391 . S
C172 H144 0.929 . S
C172 C173 1.390 . S
C172 N175 1.391 . S
C173 H145 0.930 . S
C173 C172 1.390 . S
C173 C174 1.392 . S
C174 H146 0.929 . S
C174 C171 1.391 . S
C174 C173 1.392 . S
N175 Co119 2.257 . S
N175 C172 1.391 . S
N175 C176 1.388 . S
C176 H147 0.930 . S
C176 C171 1.391 . S
C176 N175 1.388 . S
Co177 O179 2.143 . S
Co177 O185 2.074 . S
Co177 O188 2.093 . S
Co177 O201 2.097 . S
Co177 N218 2.151 . S
Co177 N226 2.214 1_556 S
Co178 O179 2.160 . S
Co178 O184 2.058 . S
Co178 O194 2.057 . S
Co178 O209 2.037 . S
Co178 N213 2.145 . S
Co178 N234 2.257 . S
O179 Co177 2.143 . S
O179 Co178 2.160 . S
C180 O181 1.278 . S
C180 O188 1.224 . S
O181 C180 1.278 . S
C182 O183 1.245 . S
C182 O194 1.232 . S
O183 C182 1.245 . S
O184 Co178 2.058 . S
O184 C210 1.269 . S
O185 Co177 2.074 . S
O185 C210 1.257 . S
H186 C211 0.930 . S
H187 C217 0.930 . S
O188 Co177 2.093 . S
O188 C180 1.224 . S
H189 C221 0.929 . S
H190 C223 0.930 . S
H191 C224 0.930 . S
H192 C222 0.929 . S
H193 C225 0.928 . S
O194 Co178 2.057 . S
O194 C182 1.232 . S
H195 C214 0.929 . S
H196 C215 0.929 . S
H197 C227 0.931 . S
H198 C219 0.929 . S
H199 C228 0.930 . S
H200 C220 0.931 . S
O201 Co177 2.097 . S
O201 C229 1.214 . S
H202 C230 0.929 . S
H203 C231 0.929 . S
H204 C232 0.930 . S
H205 C233 0.929 . S
H206 C235 0.930 . S
H207 C212 0.930 . S
H208 C216 0.930 . S
O209 Co178 2.037 . S
O209 C229 1.234 . S
C210 O184 1.269 . S
C210 O185 1.257 . S
C211 H186 0.930 . S
C211 C214 1.388 . S
C211 C216 1.418 . S
C212 H207 0.930 . S
C212 C215 1.404 . S
C212 C216 1.353 . S
N213 Co178 2.145 . S
N213 C214 1.397 . S
N213 C215 1.334 . S
C214 H195 0.929 . S
C214 C211 1.388 . S
C214 N213 1.397 . S
C215 H196 0.929 . S
C215 C212 1.404 . S
C215 N213 1.334 . S
C216 H208 0.930 . S
C216 C211 1.418 . S
C216 C212 1.353 . S
C217 H187 0.930 . S
C217 N218 1.330 . S
C217 C219 1.446 . S
N218 Co177 2.151 . S
N218 C217 1.330 . S
N218 C222 1.418 . S
C219 H198 0.929 . S
C219 C217 1.446 . S
C219 C220 1.332 . S
C220 H200 0.931 . S
C220 C219 1.332 . S
C220 C221 1.267 . S
C221 H189 0.929 . S
C221 C220 1.267 . S
C221 C222 1.251 . S
C222 H192 0.929 . S
C222 N218 1.418 . S
C222 C221 1.251 . S
C223 H190 0.930 . S
C223 C225 1.406 . S
C223 C228 1.261 . S
C224 H191 0.930 . S
C224 N226 1.325 . S
C224 C227 1.357 . S
C225 H193 0.928 . S
C225 C223 1.406 . S
C225 N226 1.261 . S
N226 Co177 2.214 1_554 S
N226 C224 1.325 . S
N226 C225 1.261 . S
C227 H197 0.931 . S
C227 C224 1.357 . S
C227 C228 1.312 . S
C228 H199 0.930 . S
C228 C223 1.261 . S
C228 C227 1.312 . S
C229 O201 1.214 . S
C229 O209 1.234 . S
C230 H202 0.929 . S
C230 C233 1.391 . S
C230 C235 1.391 . S
C231 H203 0.929 . S
C231 C232 1.390 . S
C231 N234 1.391 . S
C232 H204 0.930 . S
C232 C231 1.390 . S
C232 C233 1.392 . S
C233 H205 0.929 . S
C233 C230 1.391 . S
C233 C232 1.392 . S
N234 Co178 2.257 . S
N234 C231 1.391 . S
N234 C235 1.388 . S
C235 H206 0.930 . S
C235 C230 1.391 . S
C235 N234 1.388 . S
C236 C237 1.386 . S
C236 C238 1.383 . S
C236 H252 0.951 . S
C237 C236 1.386 . S
C237 C241 1.383 . S
C238 C236 1.383 . S
C238 C239 1.402 . S
C238 H253 0.951 . S
C239 C238 1.402 . S
C239 C240 1.375 . S
C239 C242 1.481 . S
C240 C239 1.375 . S
C240 C241 1.367 . S
C240 H254 0.951 . S
C241 C237 1.383 . S
C241 C240 1.367 . S
C241 H255 0.950 . S
C242 C239 1.481 . S
C242 C243 1.297 . S
C242 H256 0.950 . S
C243 C242 1.297 . S
C243 C244 1.479 . S
C243 H257 0.950 . S
C244 C243 1.479 . S
C244 C245 1.375 . S
C244 C250 1.404 . S
C245 C244 1.375 . S
C245 C246 1.369 . S
C245 H258 0.950 . S
C246 C245 1.369 . S
C246 C247 1.392 . S
C246 H259 0.951 . S
C247 C246 1.392 . S
C247 C249 1.384 . S
H248 C250 0.949 . S
C249 C247 1.384 . S
C249 C250 1.385 . S
C249 H251 0.950 . S
C250 C244 1.404 . S
C250 H248 0.949 . S
C250 C249 1.385 . S
H251 C249 0.950 . S
H252 C236 0.951 . S
H253 C238 0.951 . S
H254 C240 0.951 . S
H255 C241 0.950 . S
H256 C242 0.950 . S
H257 C243 0.950 . S
H258 C245 0.950 . S
H259 C246 0.951 . S
C260 C261 1.386 . S
C260 C262 1.383 . S
C260 H276 0.951 . S
C261 C260 1.386 . S
C261 C265 1.383 . S
C262 C260 1.383 . S
C262 C263 1.402 . S
C262 H277 0.951 . S
C263 C262 1.402 . S
C263 C264 1.375 . S
C263 C266 1.481 . S
C264 C263 1.375 . S
C264 C265 1.367 . S
C264 H278 0.951 . S
C265 C261 1.383 . S
C265 C264 1.367 . S
C265 H279 0.950 . S
C266 C263 1.481 . S
C266 C267 1.297 . S
C266 H280 0.950 . S
C267 C266 1.297 . S
C267 C268 1.479 . S
C267 H281 0.950 . S
C268 C267 1.479 . S
C268 C269 1.375 . S
C268 C274 1.404 . S
C269 C268 1.375 . S
C269 C270 1.369 . S
C269 H282 0.950 . S
C270 C269 1.369 . S
C270 C271 1.392 . S
C270 H283 0.951 . S
C271 C270 1.392 . S
C271 C273 1.384 . S
H272 C274 0.949 . S
C273 C271 1.384 . S
C273 C274 1.385 . S
C273 H275 0.950 . S
C274 C268 1.404 . S
C274 H272 0.949 . S
C274 C273 1.385 . S
H275 C273 0.950 . S
H276 C260 0.951 . S
H277 C262 0.951 . S
H278 C264 0.951 . S
H279 C265 0.950 . S
H280 C266 0.950 . S
H281 C267 0.950 . S
H282 C269 0.950 . S
H283 C270 0.951 . S
C284 C285 1.386 . S
C284 C286 1.383 . S
C284 H300 0.951 . S
C285 C284 1.386 . S
C285 C289 1.383 1_554 S
C286 C284 1.383 . S
C286 C287 1.402 1_554 S
C286 H301 0.951 . S
C287 C286 1.402 1_556 S
C287 C288 1.375 . S
C287 C290 1.481 . S
C288 C287 1.375 . S
C288 C289 1.367 . S
C288 H302 0.951 . S
C289 C285 1.383 1_556 S
C289 C288 1.367 . S
C289 H303 0.950 . S
C290 C287 1.481 . S
C290 C291 1.297 . S
C290 H304 0.950 . S
C291 C290 1.297 . S
C291 C292 1.479 . S
C291 H305 0.950 . S
C292 C291 1.479 . S
C292 C293 1.375 . S
C292 C298 1.404 . S
C293 C292 1.375 . S
C293 C294 1.369 . S
C293 H306 0.933 1_556 S
C294 C293 1.369 . S
C294 C295 1.392 . S
C294 H307 0.951 . S
C295 C294 1.392 . S
C295 C297 1.384 . S
H296 C298 0.949 . S
C297 C295 1.384 . S
C297 C298 1.385 . S
C297 H299 0.950 . S
C298 C292 1.404 . S
C298 H296 0.949 . S
C298 C297 1.385 . S
H299 C297 0.950 . S
H300 C284 0.951 . S
H301 C286 0.951 . S
H302 C288 0.951 . S
H303 C289 0.950 . S
H304 C290 0.950 . S
H305 C291 0.950 . S
H306 C293 0.933 1_554 S
H307 C294 0.951 . S
C308 C309 1.386 . S
C308 C310 1.383 . S
C308 H324 0.951 . S
C309 C308 1.386 . S
C309 C313 1.383 . S
C310 C308 1.383 . S
C310 C311 1.402 . S
C310 H325 0.951 . S
C311 C310 1.402 . S
C311 C312 1.375 . S
C311 C314 1.481 1_455 S
C312 C311 1.375 . S
C312 C313 1.367 . S
C312 H326 0.951 . S
C313 C309 1.383 . S
C313 C312 1.367 . S
C313 H327 0.950 . S
C314 C311 1.481 1_655 S
C314 C315 1.297 . S
C314 H328 0.950 . S
C315 C314 1.297 . S
C315 C316 1.479 . S
C315 H329 0.950 . S
C316 C315 1.479 . S
C316 C317 1.375 . S
C316 C322 1.404 . S
C317 C316 1.375 . S
C317 C318 1.369 . S
C317 H330 0.950 . S
C318 C317 1.369 . S
C318 C319 1.392 . S
C318 H331 0.951 . S
C319 C318 1.392 . S
C319 C321 1.384 . S
H320 C322 0.949 . S
C321 C319 1.384 . S
C321 C322 1.385 . S
C321 H323 0.950 . S
C322 C316 1.404 . S
C322 H320 0.949 . S
C322 C321 1.385 . S
H323 C321 0.950 . S
H324 C308 0.951 . S
H325 C310 0.951 . S
H326 C312 0.951 . S
H327 C313 0.950 . S
H328 C314 0.950 . S
H329 C315 0.950 . S
H330 C317 0.950 . S
H331 C318 0.951 . S
C332 C333 1.386 . S
C332 C334 1.383 . S
C332 H348 0.951 . S
C333 C332 1.386 . S
C333 C337 1.383 . S
C334 C332 1.383 . S
C334 C335 1.402 . S
C334 H349 0.951 . S
C335 C334 1.402 . S
C335 C336 1.375 . S
C335 C338 1.481 . S
C336 C335 1.375 . S
C336 C337 1.367 . S
C336 H350 0.951 . S
C337 C333 1.383 . S
C337 C336 1.367 . S
C337 H351 0.950 . S
C338 C335 1.481 . S
C338 C339 1.297 1_545 S
C338 H352 0.950 . S
C339 C338 1.297 1_565 S
C339 C340 1.479 1_556 S
C339 H353 0.950 . S
C340 C339 1.479 1_554 S
C340 C341 1.375 . S
C340 C346 1.404 . S
C341 C340 1.375 . S
C341 C342 1.369 . S
C341 H354 0.950 . S
C342 C341 1.369 . S
C342 C343 1.392 . S
C342 H355 0.951 . S
C343 C342 1.392 . S
C343 C345 1.384 . S
H344 C346 0.949 . S
C345 C343 1.384 . S
C345 C346 1.385 . S
C345 H347 0.950 . S
C346 C340 1.404 . S
C346 H344 0.949 . S
C346 C345 1.385 . S
H347 C345 0.950 . S
H348 C332 0.951 . S
H349 C334 0.951 . S
H350 C336 0.951 . S
H351 C337 0.950 . S
H352 C338 0.950 . S
H353 C339 0.950 . S
H354 C341 0.950 . S
H355 C342 0.951 . S
C356 C357 1.386 . S
C356 C358 1.383 . S
C356 H372 0.951 . S
C357 C356 1.386 . S
C357 C361 1.383 . S
C358 C356 1.383 . S
C358 C359 1.402 . S
C358 H373 0.951 . S
C359 C358 1.402 . S
C359 C360 1.375 . S
C359 C362 1.481 . S
C360 C359 1.375 . S
C360 C361 1.367 . S
C360 H374 0.951 . S
C361 C357 1.383 . S
C361 C360 1.367 . S
C361 H375 0.950 . S
C362 C359 1.481 . S
C362 C363 1.297 . S
C362 H376 0.950 . S
C363 C362 1.297 . S
C363 C364 1.479 . S
C363 H377 0.950 . S
C364 C363 1.479 . S
C364 C365 1.375 . S
C364 C370 1.404 . S
C365 C364 1.375 . S
C365 C366 1.369 . S
C365 H378 0.950 . S
C366 C365 1.369 . S
C366 C367 1.392 . S
C366 H379 0.951 . S
C367 C366 1.392 . S
C367 C369 1.384 . S
H368 C370 0.949 . S
C369 C367 1.384 . S
C369 C370 1.385 . S
C369 H371 0.950 . S
C370 C364 1.404 . S
C370 H368 0.949 . S
C370 C369 1.385 . S
H371 C369 0.950 . S
H372 C356 0.951 . S
H373 C358 0.951 . S
H374 C360 0.951 . S
H375 C361 0.950 . S
H376 C362 0.950 . S
H377 C363 0.950 . S
H378 C365 0.950 . S
H379 C366 0.951 . S
C380 C381 1.386 . S
C380 C382 1.383 . S
C380 H396 0.951 . S
C381 C380 1.386 . S
C381 C385 1.383 . S
C382 C380 1.383 . S
C382 C383 1.402 . S
C382 H397 0.951 . S
C383 C382 1.402 . S
C383 C384 1.375 . S
C383 C386 1.481 . S
C384 C383 1.375 . S
C384 C385 1.367 . S
C384 H398 0.951 . S
C385 C381 1.383 . S
C385 C384 1.367 . S
C385 H399 0.950 . S
C386 C383 1.481 . S
C386 C387 1.291 1_454 S
C386 H400 0.950 . S
C387 C386 1.291 1_656 S
C387 C388 1.486 . S
C387 H401 0.951 1_556 S
C388 C387 1.486 . S
C388 C389 1.375 . S
C388 C394 1.404 . S
C389 C388 1.375 . S
C389 C390 1.369 . S
C389 H402 0.950 . S
C390 C389 1.369 . S
C390 C391 1.392 . S
C390 H403 0.951 . S
C391 C390 1.392 . S
C391 C393 1.384 . S
H392 C394 0.949 . S
C393 C391 1.384 . S
C393 C394 1.385 . S
C393 H395 0.950 . S
C394 C388 1.404 . S
C394 H392 0.949 . S
C394 C393 1.385 . S
H395 C393 0.950 . S
H396 C380 0.951 . S
H397 C382 0.951 . S
H398 C384 0.951 . S
H399 C385 0.950 . S
H400 C386 0.950 . S
H401 C387 0.951 1_554 S
H402 C389 0.950 . S
H403 C390 0.951 . S
C404 C405 1.386 . S
C404 C406 1.383 . S
C404 H420 0.951 . S
C405 C404 1.386 . S
C405 C409 1.383 . S
C406 C404 1.383 . S
C406 C407 1.402 . S
C406 H421 0.951 . S
C407 C406 1.402 . S
C407 C408 1.375 . S
C407 C410 1.481 . S
C408 C407 1.375 . S
C408 C409 1.367 . S
C408 H422 0.951 . S
C409 C405 1.383 . S
C409 C408 1.367 . S
C409 H423 0.950 . S
C410 C407 1.481 . S
C410 C411 1.297 1_545 S
C410 H424 0.950 . S
C411 C410 1.297 1_565 S
C411 C412 1.479 . S
C411 H425 0.950 . S
C412 C411 1.479 . S
C412 C413 1.375 . S
C412 C418 1.404 . S
C413 C412 1.375 . S
C413 C414 1.369 . S
C413 H426 0.950 . S
C414 C413 1.369 . S
C414 C415 1.392 . S
C414 H427 0.951 . S
C415 C414 1.392 . S
C415 C417 1.384 . S
H416 C418 0.949 . S
C417 C415 1.384 . S
C417 C418 1.385 . S
C417 H419 0.950 . S
C418 C412 1.404 . S
C418 H416 0.949 . S
C418 C417 1.385 . S
H419 C417 0.950 . S
H420 C404 0.951 . S
H421 C406 0.951 . S
H422 C408 0.951 . S
H423 C409 0.950 . S
H424 C410 0.950 . S
H425 C411 0.950 . S
H426 C413 0.950 . S
H427 C414 0.951 . S
C237 C5 1.612 . S
C247 C123 1.589 . S
C261 C64 1.616 . S
C271 C182 1.623 . S
C285 C52 1.748 . S
C295 C210 1.729 . S
C309 C121 1.491 . S
C319 C111 1.434 . S
C333 C180 1.355 . S
C343 C3 1.292 . S
C357 C62 1.465 . S
C367 C170 1.473 . S
C381 C33 1.746 . S
C391 C229 1.705 . S
C405 C92 1.952 . S
C415 C151 1.938 . S
