# Generated by pormake.
# Topology ghw, (5)-cn, num edge types: 1
# Building blocks:
#     Node 0, Type 0, BuildingBlock: BEQFEK_clean_sbu_0, # of connection points: 5
#     Node 1, Type 0, BuildingBlock: BEQFEK_clean_sbu_0, # of connection points: 5
#     Node 2, Type 0, BuildingBlock: BEQFEK_clean_sbu_0, # of connection points: 5
#     Node 3, Type 0, BuildingBlock: BEQFEK_clean_sbu_0, # of connection points: 5
#     Node 4, Type 0, BuildingBlock: BEQFEK_clean_sbu_0, # of connection points: 5
#     Node 5, Type 0, BuildingBlock: BEQFEK_clean_sbu_0, # of connection points: 5
#     Node 6, Type 0, BuildingBlock: BEQFEK_clean_sbu_0, # of connection points: 5
#     Node 7, Type 0, BuildingBlock: BEQFEK_clean_sbu_0, # of connection points: 5
#     Node 8, Type 0, BuildingBlock: BEQFEK_clean_sbu_0, # of connection points: 5
#     Node 9, Type 0, BuildingBlock: BEQFEK_clean_sbu_0, # of connection points: 5
#     Node 10, Type 0, BuildingBlock: BEQFEK_clean_sbu_0, # of connection points: 5
#     Node 11, Type 0, BuildingBlock: BEQFEK_clean_sbu_0, # of connection points: 5
#     Node 12, Type 0, BuildingBlock: BEQFEK_clean_sbu_0, # of connection points: 5
#     Node 13, Type 0, BuildingBlock: BEQFEK_clean_sbu_0, # of connection points: 5
#     Node 14, Type 0, BuildingBlock: BEQFEK_clean_sbu_0, # of connection points: 5
#     Node 15, Type 0, BuildingBlock: BEQFEK_clean_sbu_0, # of connection points: 5
#     Edge 16, Type (0, 0), BuildingBlock: KIFKEQ_clean_linker_1, # of connection points: 2
#     Edge 17, Type (0, 0), BuildingBlock: KIFKEQ_clean_linker_1, # of connection points: 2
#     Edge 18, Type (0, 0), BuildingBlock: KIFKEQ_clean_linker_1, # of connection points: 2
#     Edge 19, Type (0, 0), BuildingBlock: KIFKEQ_clean_linker_1, # of connection points: 2
#     Edge 20, Type (0, 0), BuildingBlock: KIFKEQ_clean_linker_1, # of connection points: 2
#     Edge 21, Type (0, 0), BuildingBlock: KIFKEQ_clean_linker_1, # of connection points: 2
#     Edge 22, Type (0, 0), BuildingBlock: KIFKEQ_clean_linker_1, # of connection points: 2
#     Edge 23, Type (0, 0), BuildingBlock: KIFKEQ_clean_linker_1, # of connection points: 2
#     Edge 24, Type (0, 0), BuildingBlock: KIFKEQ_clean_linker_1, # of connection points: 2
#     Edge 25, Type (0, 0), BuildingBlock: KIFKEQ_clean_linker_1, # of connection points: 2
#     Edge 26, Type (0, 0), BuildingBlock: KIFKEQ_clean_linker_1, # of connection points: 2
#     Edge 27, Type (0, 0), BuildingBlock: KIFKEQ_clean_linker_1, # of connection points: 2
#     Edge 28, Type (0, 0), BuildingBlock: KIFKEQ_clean_linker_1, # of connection points: 2
#     Edge 29, Type (0, 0), BuildingBlock: KIFKEQ_clean_linker_1, # of connection points: 2
#     Edge 30, Type (0, 0), BuildingBlock: KIFKEQ_clean_linker_1, # of connection points: 2
#     Edge 31, Type (0, 0), BuildingBlock: KIFKEQ_clean_linker_1, # of connection points: 2
#     Edge 32, Type (0, 0), BuildingBlock: KIFKEQ_clean_linker_1, # of connection points: 2
#     Edge 33, Type (0, 0), BuildingBlock: KIFKEQ_clean_linker_1, # of connection points: 2
#     Edge 34, Type (0, 0), BuildingBlock: KIFKEQ_clean_linker_1, # of connection points: 2
#     Edge 35, Type (0, 0), BuildingBlock: KIFKEQ_clean_linker_1, # of connection points: 2
#     Edge 36, Type (0, 0), BuildingBlock: KIFKEQ_clean_linker_1, # of connection points: 2
#     Edge 37, Type (0, 0), BuildingBlock: KIFKEQ_clean_linker_1, # of connection points: 2
#     Edge 38, Type (0, 0), BuildingBlock: KIFKEQ_clean_linker_1, # of connection points: 2
#     Edge 39, Type (0, 0), BuildingBlock: KIFKEQ_clean_linker_1, # of connection points: 2
#     Edge 40, Type (0, 0), BuildingBlock: KIFKEQ_clean_linker_1, # of connection points: 2
#     Edge 41, Type (0, 0), BuildingBlock: KIFKEQ_clean_linker_1, # of connection points: 2
#     Edge 42, Type (0, 0), BuildingBlock: KIFKEQ_clean_linker_1, # of connection points: 2
#     Edge 43, Type (0, 0), BuildingBlock: KIFKEQ_clean_linker_1, # of connection points: 2
#     Edge 44, Type (0, 0), BuildingBlock: KIFKEQ_clean_linker_1, # of connection points: 2
#     Edge 45, Type (0, 0), BuildingBlock: KIFKEQ_clean_linker_1, # of connection points: 2
#     Edge 46, Type (0, 0), BuildingBlock: KIFKEQ_clean_linker_1, # of connection points: 2
#     Edge 47, Type (0, 0), BuildingBlock: KIFKEQ_clean_linker_1, # of connection points: 2
#     Edge 48, Type (0, 0), BuildingBlock: KIFKEQ_clean_linker_1, # of connection points: 2
#     Edge 49, Type (0, 0), BuildingBlock: KIFKEQ_clean_linker_1, # of connection points: 2
#     Edge 50, Type (0, 0), BuildingBlock: KIFKEQ_clean_linker_1, # of connection points: 2
#     Edge 51, Type (0, 0), BuildingBlock: KIFKEQ_clean_linker_1, # of connection points: 2
#     Edge 52, Type (0, 0), BuildingBlock: KIFKEQ_clean_linker_1, # of connection points: 2
#     Edge 53, Type (0, 0), BuildingBlock: KIFKEQ_clean_linker_1, # of connection points: 2
#     Edge 54, Type (0, 0), BuildingBlock: KIFKEQ_clean_linker_1, # of connection points: 2
#     Edge 55, Type (0, 0), BuildingBlock: KIFKEQ_clean_linker_1, # of connection points: 2
# Relax obj value: 0.438
# Max RMSD: 0.283
# Mean RMSD: 0.283
data_MOF--net-ghw--node1-BEQFEK_clean_sbu_0--edge1-KIFKEQ_clean_linker_1
_symmetry_space_group_name_H-M    P1
_symmetry_Int_Tables_number       1
_symmetry_cell_setting            triclinic
loop_
_symmetry_equiv_pos_as_xyz
'x, y, z'
_cell_length_a     35.102537
_cell_length_b     45.333496
_cell_length_c     30.229358
_cell_angle_alpha  117.27588
_cell_angle_beta   90.006128
_cell_angle_gamma 89.962107
loop_
_atom_site_label
_atom_site_type_symbol
_atom_site_fract_x
_atom_site_fract_y
_atom_site_fract_z
_atom_type_partial_charge
Co0 Co 0.11811 0.1136 0.36152 0.0
Co1 Co 0.05837 0.17013 0.41636 0.0
C2 C 0.06825 0.13654 0.30413 0.0
O3 O 0.09301 0.1164 0.30527 0.0
O4 O 0.05337 0.15874 0.34405 0.0
C5 C 0.17515 0.07284 0.2973 0.0
O6 O 0.16237 0.08677 0.2705 0.0
C7 C 0.98089 0.19523 0.43904 0.0
C8 C 0.98719 0.24129 0.50965 0.0
C9 C 0.96067 0.22131 0.47506 0.0
N10 N 0.01791 0.19956 0.45121 0.0
N11 N 0.02164 0.22736 0.49321 0.0
C12 C 0.96511 0.16592 0.3947 0.0
H13 H 0.98634 0.14551 0.3794 0.0
H14 H 0.93858 0.15711 0.40479 0.0
H15 H 0.95785 0.17349 0.36562 0.0
C16 C 0.07561 0.08254 0.41365 0.0
N17 N 0.0815 0.10766 0.40244 0.0
N18 N 0.05679 0.13154 0.4268 0.0
C19 C 0.03502 0.12254 0.45547 0.0
C20 C 0.04608 0.09113 0.44765 0.0
C21 C 0.09862 0.05137 0.39287 0.0
H22 H 0.12687 0.05666 0.41139 0.0
H23 H 0.10338 0.04299 0.35267 0.0
H24 H 0.0844 0.03153 0.3986 0.0
O25 O 0.14811 0.15442 0.40034 0.0
O26 O 0.10655 0.19429 0.44274 0.0
H27 H 0.01397 0.16971 0.51 0.0
H28 H 0.99677 0.13465 0.51752 0.0
C29 C 0.00443 0.14354 0.49005 0.0
H30 H 0.97862 0.14236 0.46818 0.0
H31 H 0.04755 0.23634 0.51134 0.0
O32 O 0.15761 0.07826 0.33711 0.0
C33 C 0.14071 0.18428 0.43143 0.0
Co34 Co 0.12081 0.15584 0.91271 0.0
Co35 Co 0.05683 0.1027 0.86148 0.0
C36 C 0.06962 0.1352 0.97255 0.0
O37 O 0.09629 0.15332 0.96979 0.0
O38 O 0.05224 0.11436 0.93368 0.0
C39 C 0.18048 0.19498 0.97512 0.0
O40 O 0.16764 0.18273 1.00411 0.0
C41 C 0.97851 0.07755 0.83774 0.0
C42 C 0.98614 0.03167 0.76714 0.0
C43 C 0.95897 0.05114 0.80112 0.0
N44 N 0.01571 0.07396 0.82618 0.0
N45 N 0.02014 0.04628 0.78416 0.0
C46 C 0.96214 0.10554 0.88338 0.0
H47 H 0.9833 0.12579 0.90117 0.0
H48 H 0.93599 0.11524 0.87396 0.0
H49 H 0.95401 0.09618 0.91015 0.0
C50 C 0.08022 0.18923 0.86261 0.0
N51 N 0.08417 0.16395 0.87395 0.0
N52 N 0.05735 0.14174 0.85157 0.0
C53 C 0.03555 0.15218 0.82463 0.0
C54 C 0.04922 0.18274 0.83088 0.0
C55 C 0.10722 0.21792 0.88002 0.0
H56 H 0.13673 0.20844 0.86983 0.0
H57 H 0.10591 0.23189 0.9212 0.0
H58 H 0.10081 0.23478 0.86361 0.0
O59 O 0.14847 0.11432 0.87127 0.0
O60 O 0.10394 0.07633 0.83422 0.0
H61 H 0.00906 0.10751 0.77079 0.0
H62 H 0.98953 0.14494 0.77233 0.0
C63 C 0.00143 0.1338 0.79517 0.0
H64 H 0.97887 0.1344 0.82112 0.0
H65 H 0.04633 0.03765 0.7666 0.0
O66 O 0.16211 0.18934 0.9358 0.0
C67 C 0.13883 0.0847 0.84187 0.0
Co68 Co 0.87156 0.91084 0.66388 0.0
Co69 Co 0.93393 0.85835 0.60426 0.0
C70 C 0.92556 0.88506 0.71492 0.0
O71 O 0.89898 0.90453 0.71597 0.0
O72 O 0.94148 0.86503 0.6741 0.0
C73 C 0.80983 0.93999 0.72421 0.0
O74 O 0.82011 0.91808 0.73905 0.0
C75 C 0.008 0.82433 0.57046 0.0
C76 C -0.00084 0.79832 0.48898 0.0
C77 C 0.02586 0.80412 0.52573 0.0
N78 N 0.97223 0.83009 0.56058 0.0
N79 N 0.96695 0.81399 0.51189 0.0
C80 C 0.02567 0.84081 0.62111 0.0
H81 H 0.01281 0.86567 0.64339 0.0
H82 H 0.05696 0.84328 0.61873 0.0
H83 H 0.01996 0.82553 0.64042 0.0
C84 C 0.91032 0.94844 0.61847 0.0
N85 N 0.90632 0.92147 0.62584 0.0
N86 N 0.9335 0.9 0.60206 0.0
C87 C 0.9561 0.91292 0.57922 0.0
C88 C 0.94205 0.94397 0.58848 0.0
C89 C 0.88321 0.97716 0.63835 0.0
H90 H 0.85359 0.96808 0.63584 0.0
H91 H 0.88974 0.99341 0.67817 0.0
H92 H 0.88531 0.99189 0.61758 0.0
O93 O 0.84226 0.87063 0.62168 0.0
O94 O 0.88582 0.83373 0.57713 0.0
H95 H 0.98443 0.87597 0.51518 0.0
H96 H 0.01038 0.91456 0.54616 0.0
C97 C 0.99189 0.89678 0.55188 0.0
H98 H 0.00808 0.88667 0.57333 0.0
H99 H 0.94174 0.81475 0.49415 0.0
O100 O 0.83116 0.9444 0.69382 0.0
C101 C 0.85118 0.84183 0.58842 0.0
Co102 Co 0.87511 0.85217 0.09379 0.0
Co103 Co 0.93565 0.90686 0.14974 0.0
C104 C 0.92574 0.87546 0.03774 0.0
O105 O 0.90027 0.85558 0.03799 0.0
O106 O 0.94096 0.89681 0.07809 0.0
C107 C 0.81298 0.82017 0.03747 0.0
O108 O 0.82157 0.84103 0.01992 0.0
C109 C 0.01285 0.9332 0.17319 0.0
C110 C 0.00519 0.97794 0.24531 0.0
C111 C 0.03248 0.9596 0.21026 0.0
N112 N 0.97589 0.93603 0.18578 0.0
N113 N 0.97138 0.96294 0.22869 0.0
C114 C 0.02875 0.90416 0.12844 0.0
H115 H 0.00865 0.88292 0.11505 0.0
H116 H 0.05665 0.89657 0.13725 0.0
H117 H 0.03288 0.9112 0.09813 0.0
C118 C 0.91657 0.81821 0.14252 0.0
N119 N 0.91135 0.84418 0.13305 0.0
N120 N 0.93698 0.86715 0.15733 0.0
C121 C 0.95916 0.85655 0.18372 0.0
C122 C 0.94701 0.82516 0.17508 0.0
C123 C 0.8936 0.78696 0.11913 0.0
H124 H 0.86524 0.79158 0.13731 0.0
H125 H 0.88909 0.77963 0.0791 0.0
H126 H 0.90783 0.76638 0.12296 0.0
O127 O 0.84537 0.89288 0.13421 0.0
O128 O 0.88771 0.93153 0.17748 0.0
H129 H 0.98059 0.90313 0.23945 0.0
H130 H 0.99661 0.8675 0.24617 0.0
C131 C 0.98974 0.87687 0.21902 0.0
H132 H 0.01587 0.87566 0.19764 0.0
H133 H 0.94531 0.97079 0.24699 0.0
O134 O 0.83532 0.81781 0.06873 0.0
C135 C 0.85332 0.92232 0.16632 0.0
Co136 Co 0.11665 0.60986 0.84911 0.0
Co137 Co 0.05535 0.66461 0.90456 0.0
C138 C 0.06587 0.63162 0.79194 0.0
O139 O 0.09155 0.61202 0.79262 0.0
O140 O 0.05052 0.65315 0.83209 0.0
C141 C 0.17736 0.57313 0.78903 0.0
O142 O 0.16643 0.58874 0.76377 0.0
C143 C 0.97629 0.68574 0.92857 0.0
C144 C 0.98156 0.73626 0.9911 0.0
C145 C 0.95529 0.71277 0.96143 0.0
N146 N 0.01341 0.69272 0.93835 0.0
N147 N 0.01644 0.72304 0.97561 0.0
C148 C 0.96145 0.65444 0.88676 0.0
H149 H 0.98494 0.63651 0.86858 0.0
H150 H 0.93968 0.64299 0.90064 0.0
H151 H 0.9474 0.66043 0.85897 0.0
C152 C 0.07547 0.57634 0.89853 0.0
N153 N 0.08044 0.60217 0.88866 0.0
N154 N 0.05576 0.62572 0.9145 0.0
C155 C 0.03535 0.61603 0.94346 0.0
C156 C 0.04686 0.58433 0.93375 0.0
C157 C 0.09866 0.54519 0.87562 0.0
H158 H 0.12825 0.55088 0.88999 0.0
H159 H 0.09989 0.53582 0.83468 0.0
H160 H 0.08677 0.52575 0.88428 0.0
O161 O 0.14507 0.65153 0.88892 0.0
O162 O 0.1026 0.69035 0.93186 0.0
H163 H 0.01365 0.66345 0.99678 0.0
H164 H 0.00316 0.62961 0.0109 0.0
C165 C 0.00601 0.63682 0.9806 0.0
H166 H 0.97802 0.63295 0.96181 0.0
H167 H 0.0423 0.73466 0.99063 0.0
O168 O 0.15748 0.57603 0.82593 0.0
C169 C 0.13699 0.68115 0.92041 0.0
Co170 Co 0.11987 0.65716 0.40809 0.0
Co171 Co 0.05928 0.602 0.35212 0.0
C172 C 0.06826 0.63465 0.46434 0.0
O173 O 0.09444 0.65387 0.46373 0.0
O174 O 0.05269 0.6134 0.42417 0.0
C175 C 0.17944 0.6947 0.46999 0.0
O176 O 0.16754 0.68008 0.49622 0.0
C177 C 0.9817 0.57729 0.32403 0.0
C178 C 0.99079 0.52831 0.25912 0.0
C179 C 0.96287 0.54971 0.28892 0.0
N180 N 0.01925 0.57258 0.31562 0.0
N181 N 0.02458 0.54317 0.27693 0.0
C182 C 0.96435 0.60721 0.36586 0.0
H183 H 0.98599 0.62699 0.38405 0.0
H184 H 0.94041 0.61667 0.35197 0.0
H185 H 0.95256 0.60009 0.39368 0.0
C186 C 0.07846 0.69062 0.35889 0.0
N187 N 0.08375 0.66466 0.36834 0.0
N188 N 0.0593 0.64099 0.34227 0.0
C189 C 0.03857 0.65086 0.31373 0.0
C190 C 0.04976 0.68273 0.32385 0.0
C191 C 0.10143 0.72183 0.38215 0.0
H192 H 0.13082 0.71651 0.36698 0.0
H193 H 0.10332 0.73044 0.42284 0.0
H194 H 0.08892 0.74165 0.37482 0.0
O195 O 0.14945 0.61638 0.36764 0.0
O196 O 0.10716 0.57693 0.32721 0.0
H197 H 0.01712 0.60373 0.25936 0.0
H198 H 0.00433 0.63839 0.24812 0.0
C199 C 0.00879 0.63027 0.27721 0.0
H200 H 0.98143 0.63313 0.29704 0.0
H201 H 0.05126 0.53331 0.26243 0.0
O202 O 0.16006 0.69144 0.43251 0.0
C203 C 0.14151 0.5865 0.3373 0.0
Co204 Co 0.87947 0.40993 0.16384 0.0
Co205 Co 0.94171 0.35674 0.10494 0.0
C206 C 0.93323 0.38504 0.21618 0.0
O207 O 0.90686 0.4046 0.2169 0.0
O208 O 0.94891 0.36458 0.17543 0.0
C209 C 0.81815 0.44153 0.22543 0.0
O210 O 0.82904 0.42183 0.24413 0.0
C211 C 0.01656 0.3237 0.07337 0.0
C212 C 0.00841 0.29567 0.99195 0.0
C213 C 0.03501 0.30302 0.02932 0.0
N214 N 0.98059 0.32826 0.06251 0.0
N215 N 0.97574 0.31094 0.01388 0.0
C216 C 0.03384 0.34179 0.1241 0.0
H217 H 0.02003 0.36639 0.1451 0.0
H218 H 0.06498 0.34508 0.12181 0.0
H219 H 0.02896 0.3272 0.14467 0.0
C220 C 0.91771 0.44581 0.1153 0.0
N221 N 0.9141 0.41953 0.12447 0.0
N222 N 0.9412 0.39786 0.10104 0.0
C223 C 0.96338 0.41 0.07672 0.0
C224 C 0.94912 0.4407 0.08456 0.0
C225 C 0.8903 0.47429 0.13383 0.0
H226 H 0.86078 0.46506 0.13161 0.0
H227 H 0.89665 0.49122 0.17345 0.0
H228 H 0.89221 0.48834 0.11202 0.0
O229 O 0.85051 0.3694 0.12296 0.0
O230 O 0.8935 0.33188 0.07823 0.0
H231 H 0.99111 0.37194 0.01326 0.0
H232 H 0.01704 0.41067 0.0416 0.0
C233 C -0.00109 0.39343 0.04908 0.0
H234 H 0.01565 0.38425 0.07129 0.0
H235 H 0.9505 0.31063 0.99542 0.0
O236 O 0.83866 0.44346 0.19224 0.0
C237 C 0.859 0.34035 0.09013 0.0
Co238 Co 0.88143 0.35054 0.59229 0.0
Co239 Co 0.94113 0.40592 0.651 0.0
C240 C 0.93315 0.37412 0.5381 0.0
O241 O 0.90762 0.35396 0.53731 0.0
O242 O 0.94763 0.39551 0.57907 0.0
C243 C 0.81972 0.31804 0.5337 0.0
O244 O 0.83033 0.33686 0.51338 0.0
C245 C 0.01892 0.43017 0.68045 0.0
C246 C 0.00959 0.47991 0.74356 0.0
C247 C 0.03768 0.45801 0.71518 0.0
N248 N 0.98128 0.4352 0.6879 0.0
N249 N 0.97585 0.46504 0.72557 0.0
C250 C 0.03637 0.40002 0.63916 0.0
H251 H 0.01441 0.38077 0.61964 0.0
H252 H 0.05895 0.38983 0.65395 0.0
H253 H 0.05002 0.40709 0.61228 0.0
C254 C 0.92188 0.31669 0.64198 0.0
N255 N 0.9169 0.34276 0.63265 0.0
N256 N 0.94115 0.36643 0.65945 0.0
C257 C 0.96138 0.35644 0.68822 0.0
C258 C 0.95012 0.32453 0.67756 0.0
C259 C 0.89905 0.28543 0.61831 0.0
H260 H 0.87101 0.2897 0.63722 0.0
H261 H 0.89382 0.27871 0.57866 0.0
H262 H 0.91372 0.26472 0.62131 0.0
O263 O 0.85182 0.3914 0.63179 0.0
O264 O 0.89303 0.4306 0.67691 0.0
H265 H 0.98174 0.40375 0.7435 0.0
H266 H 0.99289 0.36925 0.75591 0.0
C267 C 0.99006 0.37722 0.7264 0.0
H268 H 0.01821 0.37425 0.70827 0.0
H269 H 0.94911 0.47526 0.73907 0.0
O270 O 0.8407 0.3168 0.56707 0.0
C271 C 0.85897 0.42095 0.66413 0.0
Co272 Co 0.62067 0.10892 0.85592 0.0
Co273 Co 0.56049 0.16509 0.91138 0.0
C274 C 0.56991 0.13159 0.79902 0.0
O275 O 0.59554 0.11203 0.79996 0.0
O276 O 0.55452 0.15323 0.83903 0.0
C277 C 0.67775 0.06768 0.79123 0.0
O278 O 0.6647 0.08079 0.76345 0.0
C279 C 0.48229 0.18821 0.93858 0.0
C280 C 0.48978 0.23891 0.99992 0.0
C281 C 0.46254 0.21589 0.97187 0.0
N282 N 0.51972 0.19435 0.9464 0.0
N283 N 0.52408 0.22477 0.98299 0.0
C284 C 0.46582 0.15677 0.89898 0.0
H285 H 0.4884 0.13785 0.88095 0.0
H286 H 0.44375 0.14705 0.91516 0.0
H287 H 0.45169 0.16208 0.87055 0.0
C288 C 0.57915 0.07721 0.90744 0.0
N289 N 0.58431 0.10252 0.89653 0.0
N290 N 0.56024 0.12657 0.92239 0.0
C291 C 0.53988 0.11767 0.95231 0.0
C292 C 0.55088 0.08586 0.94347 0.0
C293 C 0.59983 0.0449 0.88156 0.0
H294 H 0.60578 0.03946 0.84256 0.0
H295 H 0.58296 0.0243 0.88183 0.0
H296 H 0.62744 0.04674 0.90054 0.0
O297 O 0.65041 0.14976 0.89576 0.0
O298 O 0.60861 0.18987 0.9361 0.0
H299 H 0.51267 0.1343 0.02381 0.0
H300 H 0.4842 0.13761 0.97685 0.0
C301 C 0.51339 0.14042 0.99222 0.0
H302 H 0.52249 0.16657 0.00616 0.0
H303 H 0.55044 0.23584 0.9966 0.0
O304 O 0.66049 0.07387 0.83151 0.0
C305 C 0.64285 0.17982 0.92579 0.0
Co306 Co 0.61929 0.15448 0.41004 0.0
Co307 Co 0.55653 0.10048 0.3579 0.0
C308 C 0.56943 0.13275 0.46927 0.0
O309 O 0.59537 0.15164 0.4671 0.0
O310 O 0.55267 0.11166 0.43005 0.0
C311 C 0.67976 0.19125 0.47027 0.0
O312 O 0.66869 0.17559 0.49538 0.0
C313 C 0.47748 0.07854 0.33518 0.0
C314 C 0.48312 0.02887 0.27072 0.0
C315 C 0.45669 0.0516 0.30168 0.0
N316 N 0.51462 0.0722 0.32452 0.0
N317 N 0.51787 0.04236 0.28614 0.0
C318 C 0.46249 0.10917 0.37817 0.0
H319 H 0.45042 0.10241 0.40623 0.0
H320 H 0.48555 0.12768 0.39557 0.0
H321 H 0.43918 0.12023 0.36588 0.0
C322 C 0.57754 0.1881 0.3614 0.0
N323 N 0.58221 0.16254 0.37195 0.0
N324 N 0.55602 0.13983 0.34872 0.0
C325 C 0.53407 0.15028 0.32187 0.0
C326 C 0.54685 0.18122 0.32937 0.0
C327 C 0.60181 0.21862 0.38241 0.0
H328 H 0.6304 0.21231 0.36485 0.0
H329 H 0.60559 0.22757 0.42301 0.0
H330 H 0.58909 0.23863 0.3757 0.0
O331 O 0.64728 0.11324 0.36799 0.0
O332 O 0.60382 0.07443 0.32951 0.0
H333 H 0.5106 0.10345 0.26929 0.0
H334 H 0.49916 0.13788 0.25696 0.0
C335 C 0.50336 0.1302 0.2866 0.0
H336 H 0.47621 0.13428 0.30728 0.0
H337 H 0.54378 0.03131 0.27019 0.0
O338 O 0.66011 0.18832 0.43318 0.0
C339 C 0.63849 0.08354 0.33782 0.0
Co340 Co 0.37475 0.91022 0.16318 0.0
Co341 Co 0.43591 0.85574 0.10753 0.0
C342 C 0.42458 0.88538 0.21861 0.0
O343 O 0.39897 0.90516 0.21826 0.0
O344 O 0.4407 0.8647 0.17852 0.0
C345 C 0.31302 0.94257 0.22063 0.0
O346 O 0.32166 0.92165 0.23805 0.0
C347 C 0.51301 0.82895 0.08406 0.0
C348 C 0.50543 0.78505 0.01094 0.0
C349 C 0.53264 0.8027 0.04659 0.0
N350 N 0.47617 0.82667 0.07108 0.0
N351 N 0.47171 0.80026 0.02756 0.0
C352 C 0.5288 0.85733 0.12972 0.0
H353 H 0.50881 0.87868 0.14381 0.0
H354 H 0.55686 0.86511 0.12171 0.0
H355 H 0.53255 0.84948 0.15924 0.0
C356 C 0.41703 0.9453 0.11746 0.0
N357 N 0.41165 0.91889 0.12575 0.0
N358 N 0.43762 0.89616 0.10163 0.0
C359 C 0.46039 0.90756 0.07679 0.0
C360 C 0.44809 0.93904 0.08619 0.0
C361 C 0.39321 0.9761 0.14012 0.0
H362 H 0.39035 0.98457 0.18072 0.0
H363 H 0.40575 0.99628 0.1337 0.0
H364 H 0.36422 0.97031 0.1237 0.0
O365 O 0.34524 0.87021 0.12024 0.0
O366 O 0.38788 0.83114 0.07941 0.0
H367 H 0.50032 0.89884 0.01759 0.0
H368 H 0.51727 0.88884 0.06533 0.0
C369 C 0.49209 0.8882 0.04277 0.0
H370 H 0.48337 0.86198 0.02029 0.0
H371 H 0.44573 0.79286 0.0089 0.0
O372 O 0.33521 0.94484 0.18916 0.0
C373 C 0.35342 0.84067 0.08875 0.0
Co374 Co 0.36735 0.84749 0.59115 0.0
Co375 Co 0.42908 0.90049 0.6504 0.0
C376 C 0.41948 0.87199 0.5385 0.0
O377 O 0.39318 0.8523 0.53718 0.0
O378 O 0.43499 0.89214 0.57949 0.0
C379 C 0.30781 0.81151 0.52679 0.0
O380 O 0.32109 0.82608 0.50115 0.0
C381 C 0.50722 0.92438 0.67556 0.0
C382 C 0.50018 0.96862 0.74843 0.0
C383 C 0.52733 0.94988 0.71347 0.0
N384 N 0.47012 0.92809 0.6876 0.0
N385 N 0.46601 0.95469 0.731 0.0
C386 C 0.52271 0.89539 0.63044 0.0
H387 H 0.50206 0.87453 0.61647 0.0
H388 H 0.55026 0.88711 0.63901 0.0
H389 H 0.52742 0.90281 0.60062 0.0
C390 C 0.40859 0.8098 0.63443 0.0
N391 N 0.40327 0.83716 0.62846 0.0
N392 N 0.42835 0.85988 0.65536 0.0
C393 C 0.44956 0.84811 0.68104 0.0
C394 C 0.43806 0.81576 0.66831 0.0
C395 C 0.38733 0.77805 0.60554 0.0
H396 H 0.37966 0.77541 0.56834 0.0
H397 H 0.40459 0.75632 0.601 0.0
H398 H 0.3606 0.77859 0.62549 0.0
O399 O 0.3389 0.88868 0.63387 0.0
O400 O 0.38205 0.92595 0.67882 0.0
H401 H 0.48163 0.85922 0.74794 0.0
H402 H 0.50587 0.86739 0.70209 0.0
C403 C 0.47799 0.8685 0.72004 0.0
H404 H 0.46857 0.89472 0.73947 0.0
H405 H 0.43994 0.96309 0.74902 0.0
O406 O 0.32599 0.81442 0.56493 0.0
C407 C 0.34752 0.9176 0.66722 0.0
Co408 Co 0.62189 0.60457 0.34579 0.0
Co409 Co 0.55938 0.65867 0.3987 0.0
C410 C 0.57052 0.62579 0.28715 0.0
O411 O 0.59688 0.60714 0.28913 0.0
O412 O 0.55399 0.64699 0.32653 0.0
C413 C 0.68216 0.56848 0.28505 0.0
O414 O 0.67082 0.58488 0.26116 0.0
C415 C 0.48105 0.68229 0.4249 0.0
C416 C 0.489 0.7317 0.48926 0.0
C417 C 0.46158 0.70972 0.45939 0.0
N418 N 0.5185 0.68764 0.43377 0.0
N419 N 0.52312 0.71732 0.47212 0.0
C420 C 0.46437 0.65184 0.3834 0.0
H421 H 0.48643 0.63232 0.3659 0.0
H422 H 0.44059 0.64233 0.39744 0.0
H423 H 0.45249 0.65834 0.35497 0.0
C424 C 0.5809 0.57134 0.3958 0.0
N425 N 0.58548 0.59683 0.38506 0.0
N426 N 0.55962 0.61976 0.40888 0.0
C427 C 0.5382 0.6097 0.4366 0.0
C428 C 0.5508 0.57862 0.42892 0.0
C429 C 0.60425 0.54025 0.37323 0.0
H430 H 0.63207 0.54498 0.39272 0.0
H431 H 0.60986 0.53306 0.33348 0.0
H432 H 0.58968 0.51954 0.37627 0.0
O433 O 0.65039 0.64587 0.38656 0.0
O434 O 0.60674 0.68452 0.42492 0.0
H435 H 0.51607 0.65706 0.48955 0.0
H436 H 0.50504 0.62321 0.50329 0.0
C437 C 0.5084 0.63043 0.47303 0.0
H438 H 0.48071 0.62661 0.45357 0.0
H439 H 0.54955 0.72766 0.48689 0.0
O440 O 0.66267 0.57066 0.32186 0.0
C441 C 0.64143 0.67564 0.41621 0.0
Co442 Co 0.61695 0.64776 0.89709 0.0
Co443 Co 0.55608 0.59178 0.84445 0.0
C444 C 0.56748 0.62457 0.9556 0.0
O445 O 0.59258 0.64413 0.95344 0.0
O446 O 0.55149 0.60276 0.91634 0.0
C447 C 0.67379 0.68874 0.96181 0.0
O448 O 0.66087 0.67504 0.98884 0.0
C449 C 0.47887 0.56538 0.82237 0.0
C450 C 0.48466 0.52325 0.74714 0.0
C451 C 0.45847 0.54079 0.78417 0.0
N452 N 0.51566 0.56242 0.809 0.0
N453 N 0.5191 0.53684 0.76428 0.0
C454 C 0.46328 0.59287 0.86918 0.0
H455 H 0.46035 0.58389 0.89754 0.0
H456 H 0.48289 0.61447 0.8838 0.0
H457 H 0.43466 0.60052 0.86257 0.0
C458 C 0.57457 0.67872 0.84481 0.0
N459 N 0.5799 0.65403 0.85714 0.0
N460 N 0.55389 0.63093 0.83509 0.0
C461 C 0.53099 0.64051 0.80805 0.0
C462 C 0.54337 0.67107 0.81347 0.0
C463 C 0.59881 0.70911 0.8633 0.0
H464 H 0.62634 0.70271 0.843 0.0
H465 H 0.60494 0.71792 0.9033 0.0
H466 H 0.58474 0.72913 0.85781 0.0
O467 O 0.6466 0.6074 0.85643 0.0
O468 O 0.60452 0.56734 0.81756 0.0
H469 H 0.48921 0.63016 0.75009 0.0
H470 H 0.47502 0.62008 0.79881 0.0
C471 C 0.49924 0.62011 0.77531 0.0
H472 H 0.50892 0.59418 0.75271 0.0
H473 H 0.54469 0.52951 0.74463 0.0
O474 O 0.65647 0.68307 0.92175 0.0
C475 C 0.63884 0.57741 0.82648 0.0
Co476 Co 0.38048 0.41258 0.66683 0.0
Co477 Co 0.44121 0.35743 0.61015 0.0
C478 C 0.43157 0.38905 0.72231 0.0
O479 O 0.40563 0.40863 0.72215 0.0
O480 O 0.44717 0.36805 0.68195 0.0
C481 C 0.31928 0.44662 0.72666 0.0
O482 O 0.33044 0.42911 0.74893 0.0
C483 C 0.51923 0.33352 0.58167 0.0
C484 C 0.51044 0.28376 0.51842 0.0
C485 C 0.53829 0.30582 0.54703 0.0
N486 N 0.48166 0.32828 0.57389 0.0
N487 N 0.47654 0.29842 0.53617 0.0
C488 C 0.5363 0.36375 0.62322 0.0
H489 H 0.51414 0.38286 0.64254 0.0
H490 H 0.55891 0.37413 0.60879 0.0
H491 H 0.54984 0.3567 0.6502 0.0
C492 C 0.42198 0.44659 0.61847 0.0
N493 N 0.4168 0.42056 0.62776 0.0
N494 N 0.44121 0.39688 0.60138 0.0
C495 C 0.46175 0.40683 0.57283 0.0
C496 C 0.45054 0.43875 0.58329 0.0
C497 C 0.39869 0.47765 0.64129 0.0
H498 H 0.37118 0.47318 0.62116 0.0
H499 H 0.39242 0.48421 0.68065 0.0
H500 H 0.41354 0.49853 0.63907 0.0
O501 O 0.35137 0.37192 0.62539 0.0
O502 O 0.39341 0.33233 0.58423 0.0
H503 H 0.48264 0.35952 0.51813 0.0
H504 H 0.49398 0.39389 0.50558 0.0
C505 C 0.49081 0.38607 0.53519 0.0
H506 H 0.51878 0.38922 0.55381 0.0
H507 H 0.44991 0.28806 0.52241 0.0
O508 O 0.33962 0.4464 0.69174 0.0
C509 C 0.35913 0.34213 0.59449 0.0
Co510 Co 0.37682 0.35382 0.09735 0.0
Co511 Co 0.43782 0.40786 0.15638 0.0
C512 C 0.42859 0.37757 0.04373 0.0
O513 O 0.40261 0.35768 0.04261 0.0
O514 O 0.44369 0.39823 0.08473 0.0
C515 C 0.31704 0.31675 0.03387 0.0
O516 O 0.32996 0.33064 0.00709 0.0
C517 C 0.51646 0.42944 0.18507 0.0
C518 C 0.50912 0.48018 0.24646 0.0
C519 C 0.53632 0.45693 0.21879 0.0
N520 N 0.47905 0.43593 0.19253 0.0
N521 N 0.47481 0.46634 0.2292 0.0
C522 C 0.53271 0.39836 0.14426 0.0
H523 H 0.50972 0.38059 0.12344 0.0
H524 H 0.55268 0.38661 0.15991 0.0
H525 H 0.54921 0.40468 0.11845 0.0
C526 C 0.41767 0.31786 0.14363 0.0
N527 N 0.41263 0.34462 0.13604 0.0
N528 N 0.43691 0.36795 0.16353 0.0
C529 C 0.45699 0.35729 0.19156 0.0
C530 C 0.44591 0.32492 0.17945 0.0
C531 C 0.39709 0.28571 0.11482 0.0
H532 H 0.37006 0.28615 0.13412 0.0
H533 H 0.39002 0.28244 0.07708 0.0
H534 H 0.4146 0.2644 0.11151 0.0
O535 O 0.3483 0.39527 0.13863 0.0
O536 O 0.39067 0.43335 0.18376 0.0
H537 H 0.48265 0.37164 0.26339 0.0
H538 H 0.51256 0.37628 0.21874 0.0
C539 C 0.48303 0.37895 0.23302 0.0
H540 H 0.47433 0.4053 0.24833 0.0
H541 H 0.44849 0.4777 0.24238 0.0
O542 O 0.3354 0.32059 0.07237 0.0
C543 C 0.35635 0.42451 0.17148 0.0
H544 H 0.21546 0.04919 0.3523 0.0
H545 H 0.22326 0.0649 0.22192 0.0
H546 H 0.28393 0.03835 0.3476 0.0
H547 H 0.2913 0.05374 0.21709 0.0
H548 H 0.40944 1.00573 0.30741 0.0
H549 H 0.33962 1.00349 0.30002 0.0
H550 H 0.34183 0.0891 0.27278 0.0
H551 H 0.41099 0.09148 0.281 0.0
C552 C 0.23158 0.04963 0.32205 0.0
C553 C 0.21407 0.05869 0.28819 0.0
C554 C 0.27078 0.04332 0.3193 0.0
C555 C 0.29308 0.04603 0.28271 0.0
C556 C 0.27497 0.05235 0.24649 0.0
C557 C 0.23591 0.05855 0.24913 0.0
C558 C 0.39472 0.02388 0.29967 0.0
C559 C 0.41511 0.04909 0.2955 0.0
C560 C 0.35495 0.02257 0.29534 0.0
C561 C 0.33529 0.04586 0.28521 0.0
C562 C 0.35614 0.07048 0.27981 0.0
C563 C 0.39563 0.07214 0.28509 0.0
H564 H 0.91137 0.25582 0.44684 0.0
H565 H 0.9175 0.19096 0.51535 0.0
H566 H 0.84165 0.25552 0.45113 0.0
H567 H 0.84822 0.19015 0.51955 0.0
H568 H 0.72552 0.20721 0.55077 0.0
H569 H 0.79301 0.22081 0.55769 0.0
H570 H 0.7893 0.21984 0.41405 0.0
H571 H 0.72146 0.20762 0.40824 0.0
C572 C 0.89756 0.24186 0.46333 0.0
C573 C 0.91922 0.22354 0.48102 0.0
C574 C 0.85777 0.24154 0.4657 0.0
C575 C 0.83917 0.22311 0.48622 0.0
C576 C 0.86139 0.20529 0.50464 0.0
C577 C 0.90102 0.20548 0.50198 0.0
C578 C 0.739 0.21048 0.52109 0.0
C579 C 0.71834 0.2058 0.47861 0.0
C580 C 0.77779 0.21794 0.52479 0.0
C581 C 0.79691 0.22053 0.48583 0.0
C582 C 0.77561 0.21806 0.44483 0.0
C583 C 0.73665 0.21097 0.44141 0.0
H584 H 0.41816 0.18565 0.01163 0.0
H585 H 0.41446 0.25329 0.94773 0.0
H586 H 0.34873 0.18769 0.01875 0.0
H587 H 0.34466 0.25495 0.95367 0.0
H588 H 0.22421 0.20452 0.90794 0.0
H589 H 0.2925 0.21498 0.91262 0.0
H590 H 0.29458 0.22468 0.06154 0.0
H591 H 0.22624 0.21359 0.0566 0.0
C592 C 0.40226 0.2012 0.99961 0.0
C593 C 0.42114 0.21925 0.9791 0.0
C594 C 0.36265 0.2026 1.00395 0.0
C595 C 0.34121 0.22169 0.9871 0.0
C596 C 0.3604 0.24014 0.96713 0.0
C597 C 0.40018 0.23922 0.9637 0.0
C598 C 0.23905 0.20947 0.94206 0.0
C599 C 0.21989 0.20782 0.9817 0.0
C600 C 0.27822 0.21552 0.94475 0.0
C601 C 0.29899 0.22019 0.98719 0.0
C602 C 0.27941 0.22054 0.02798 0.0
C603 C 0.24026 0.21439 0.02525 0.0
H604 H 0.91259 0.08959 0.7787 0.0
H605 H 0.91294 1.00459 0.8069 0.0
H606 H 0.84355 0.08537 0.76817 0.0
H607 H 0.84325 1.00058 0.79748 0.0
H608 H 0.71811 0.04524 0.84766 0.0
H609 H 0.78666 0.03508 0.84389 0.0
H610 H 0.79413 0.04816 0.71139 0.0
H611 H 0.72592 0.05866 0.71529 0.0
C612 C 0.89764 0.06994 0.78247 0.0
C613 C 0.91757 0.04759 0.79395 0.0
C614 C 0.85827 0.06727 0.776 0.0
C615 C 0.83801 0.04236 0.78141 0.0
C616 C 0.85814 0.01984 0.79274 0.0
C617 C 0.89781 0.02216 0.79827 0.0
C618 C 0.73424 0.04529 0.81715 0.0
C619 C 0.71672 0.05361 0.78251 0.0
C620 C 0.7735 0.03936 0.81493 0.0
C621 C 0.79584 0.04167 0.77806 0.0
C622 C 0.77773 0.04707 0.74097 0.0
C623 C 0.73858 0.0529 0.74309 0.0
H624 H 0.75893 0.93815 0.7907 0.0
H625 H 0.7712 0.9695 0.67635 0.0
H626 H 0.69066 0.9466 0.79181 0.0
H627 H 0.7028 0.97929 0.67875 0.0
H628 H 0.58007 0.93985 0.64079 0.0
H629 H 0.64884 0.94478 0.64975 0.0
H630 H 0.63728 0.98084 0.80858 0.0
H631 H 0.56844 0.97394 0.79888 0.0
C632 C 0.74712 0.94771 0.76671 0.0
C633 C 0.77036 0.95266 0.73292 0.0
C634 C 0.70788 0.95279 0.76753 0.0
C635 C 0.69098 0.96311 0.73472 0.0
C636 C 0.71469 0.97043 0.70353 0.0
C637 C 0.75399 0.96523 0.7026 0.0
C638 C 0.59222 0.94834 0.67748 0.0
C639 C 0.56895 0.95544 0.7189 0.0
C640 C 0.63171 0.95193 0.68288 0.0
C641 C 0.64879 0.96311 0.72996 0.0
C642 C 0.62522 0.97167 0.77167 0.0
C643 C 0.58574 0.96793 0.76619 0.0
H644 H 0.07326 0.81911 0.46884 0.0
H645 H 0.06979 0.77174 0.56405 0.0
H646 H 0.14204 0.81314 0.46281 0.0
H647 H 0.13876 0.7632 0.55532 0.0
H648 H 0.26464 0.79284 0.44322 0.0
H649 H 0.19644 0.78188 0.43496 0.0
H650 H 0.19319 0.79431 0.58566 0.0
H651 H 0.26145 0.80292 0.59229 0.0
C652 C 0.08738 0.80661 0.48743 0.0
C653 C 0.06667 0.79627 0.5174 0.0
C654 C 0.12685 0.80285 0.48369 0.0
C655 C 0.14638 0.78786 0.50889 0.0
C656 C 0.12499 0.77566 0.53647 0.0
C657 C 0.08552 0.78026 0.54124 0.0
C658 C 0.24934 0.79253 0.47412 0.0
C659 C 0.26828 0.79908 0.51854 0.0
C660 C 0.21013 0.78662 0.46966 0.0
C661 C 0.18884 0.78797 0.51004 0.0
C662 C 0.20836 0.79272 0.55349 0.0
C663 C 0.24767 0.79787 0.55748 0.0
H664 H 0.76098 0.81726 0.96902 0.0
H665 H 0.77755 0.79114 0.08832 0.0
H666 H 0.69363 0.80537 0.96754 0.0
H667 H 0.71003 0.77793 0.08571 0.0
H668 H 0.58501 0.8131 0.1201 0.0
H669 H 0.65378 0.8092 0.11188 0.0
H670 H 0.64284 0.76901 0.95226 0.0
H671 H 0.57395 0.77542 0.96114 0.0
C672 C 0.75034 0.80815 0.99413 0.0
C673 C 0.77442 0.80571 0.02935 0.0
C674 C 0.71163 0.80105 0.99307 0.0
C675 C 0.6961 0.79114 0.02706 0.0
C676 C 0.7208 0.78637 0.0599 0.0
C677 C 0.7596 0.79358 0.06103 0.0
C678 C 0.59724 0.80399 0.08336 0.0
C679 C 0.57412 0.79605 0.04154 0.0
C680 C 0.63679 0.80092 0.07842 0.0
C681 C 0.65406 0.78922 0.03137 0.0
C682 C 0.63061 0.77888 0.98917 0.0
C683 C 0.59109 0.78232 0.99423 0.0
H684 H 0.07354 0.98637 0.2958 0.0
H685 H 0.0851 0.94852 0.13689 0.0
H686 H 0.14245 0.9927 0.30502 0.0
H687 H 0.1539 0.95249 0.14546 0.0
H688 H 0.27745 0.97171 0.16998 0.0
H689 H 0.20978 0.98444 0.1722 0.0
H690 H 0.19354 0.95658 0.28994 0.0
H691 H 0.26102 0.94518 0.28888 0.0
C692 C 0.09081 0.97946 0.26282 0.0
C693 C 0.07399 0.96585 0.21545 0.0
C694 C 0.13032 0.98285 0.26805 0.0
C695 C 0.1539 0.97259 0.22599 0.0
C696 C 0.13679 0.96078 0.17882 0.0
C697 C 0.09725 0.95772 0.1737 0.0
C698 C 0.2595 0.96909 0.19711 0.0
C699 C 0.2744 0.95696 0.22876 0.0
C700 C 0.22062 0.97602 0.198 0.0
C701 C 0.19594 0.97095 0.23056 0.0
C702 C 0.21153 0.96109 0.26459 0.0
C703 C 0.25032 0.95429 0.26379 0.0
H704 H 0.22317 0.55578 0.70812 0.0
H705 H 0.21919 0.55856 0.85277 0.0
H706 H 0.29056 0.54176 0.70144 0.0
H707 H 0.2869 0.54627 0.84744 0.0
H708 H 0.41595 0.56849 0.73913 0.0
H709 H 0.34674 0.57041 0.73557 0.0
H710 H 0.33875 0.5108 0.81342 0.0
H711 H 0.40838 0.51007 0.818 0.0
C712 C 0.23668 0.55318 0.73837 0.0
C713 C 0.21602 0.55872 0.78124 0.0
C714 C 0.27545 0.54553 0.73485 0.0
C715 C 0.2946 0.54371 0.77444 0.0
C716 C 0.27328 0.54731 0.81606 0.0
C717 C 0.23435 0.55447 0.81923 0.0
C718 C 0.39915 0.55553 0.75485 0.0
C719 C 0.41696 0.53904 0.77861 0.0
C720 C 0.35952 0.55634 0.75255 0.0
C721 C 0.33687 0.54051 0.77384 0.0
C722 C 0.35512 0.52348 0.79693 0.0
C723 C 0.39488 0.52283 0.79938 0.0
H724 H 0.7213 0.69763 0.03819 0.0
H725 H 0.71447 0.7118 0.90641 0.0
H726 H 0.78919 0.7094 0.04403 0.0
H727 H 0.78279 0.72317 0.91202 0.0
H728 H 0.90732 0.75716 0.95274 0.0
H729 H 0.83747 0.75846 0.95879 0.0
H730 H 0.841 0.6751 0.9914 0.0
H731 H 0.91023 0.67366 0.98449 0.0
C732 C 0.73413 0.70373 0.01084 0.0
C733 C 0.7126 0.70306 0.97119 0.0
C734 C 0.77313 0.71026 0.01404 0.0
C735 C 0.7915 0.71635 0.97775 0.0
C736 C 0.76947 0.71841 0.94042 0.0
C737 C 0.73034 0.7118 0.93714 0.0
C738 C 0.89289 0.73935 0.96146 0.0
C739 C 0.91369 0.71502 0.96752 0.0
C740 C 0.85308 0.7401 0.96502 0.0
C741 C 0.83374 0.71717 0.9762 0.0
C742 C 0.85501 0.69347 0.98355 0.0
C743 C 0.89455 0.69235 0.97905 0.0
H744 H 0.41433 0.75017 0.44059 0.0
H745 H 0.41665 0.67735 0.49498 0.0
H746 H 0.34462 0.75333 0.44859 0.0
H747 H 0.34736 0.68084 0.50414 0.0
H748 H 0.22662 0.71017 0.54928 0.0
H749 H 0.29528 0.71964 0.55227 0.0
H750 H 0.29084 0.71442 0.40611 0.0
H751 H 0.22225 0.70553 0.40335 0.0
C752 C 0.39977 0.7352 0.45479 0.0
C753 C 0.42027 0.71338 0.46694 0.0
C754 C 0.36008 0.73698 0.4594 0.0
C755 C 0.3406 0.71756 0.47742 0.0
C756 C 0.36159 0.69649 0.4909 0.0
C757 C 0.40108 0.69426 0.48536 0.0
C758 C 0.24021 0.71166 0.51819 0.0
C759 C 0.21909 0.70684 0.47594 0.0
C760 C 0.2795 0.71689 0.51981 0.0
C761 C 0.29844 0.71728 0.47913 0.0
C762 C 0.277 0.71436 0.43809 0.0
C763 C 0.23769 0.70923 0.43653 0.0
H764 H 0.72814 0.55535 0.20567 0.0
H765 H 0.72385 0.54938 0.34419 0.0
H766 H 0.79618 0.54354 0.19942 0.0
H767 H 0.79215 0.53843 0.33857 0.0
H768 H 0.91711 0.5833 0.25639 0.0
H769 H 0.84796 0.5795 0.24758 0.0
H770 H 0.84696 0.50341 0.29614 0.0
H771 H 0.91663 0.50697 0.30382 0.0
C772 C 0.74162 0.55105 0.23443 0.0
C773 C 0.72083 0.55402 0.27596 0.0
C774 C 0.78063 0.54448 0.23099 0.0
C775 C 0.79971 0.54095 0.26916 0.0
C776 C 0.77832 0.54115 0.30863 0.0
C777 C 0.73917 0.54751 0.3119 0.0
C778 C 0.90196 0.56548 0.26443 0.0
C779 C 0.92165 0.54552 0.28089 0.0
C780 C 0.8625 0.56304 0.25901 0.0
C781 C 0.84195 0.5408 0.27052 0.0
C782 C 0.86197 0.52051 0.28653 0.0
C783 C 0.90167 0.52256 0.29104 0.0
H784 H 0.58279 0.41929 0.24342 0.0
H785 H 0.58243 0.50267 0.21132 0.0
H786 H 0.65192 0.42327 0.25293 0.0
H787 H 0.65205 0.50633 0.21959 0.0
H788 H 0.77625 0.46253 0.16888 0.0
H789 H 0.70762 0.47196 0.17351 0.0
H790 H 0.70258 0.45977 0.30694 0.0
H791 H 0.77109 0.44967 0.30178 0.0
C792 C 0.59772 0.43848 0.23848 0.0
C793 C 0.57774 0.46045 0.22618 0.0
C794 C 0.63716 0.44107 0.24447 0.0
C795 C 0.65742 0.46543 0.23766 0.0
C796 C 0.63721 0.48757 0.22559 0.0
C797 C 0.59753 0.48543 0.22069 0.0
C798 C 0.76063 0.46258 0.19981 0.0
C799 C 0.77891 0.45479 0.23451 0.0
C800 C 0.7213 0.46803 0.20249 0.0
C801 C 0.69963 0.46593 0.24002 0.0
C802 C 0.71846 0.4608 0.27696 0.0
C803 C 0.75769 0.4552 0.27416 0.0
H804 H 0.27082 0.30934 0.10056 0.0
H805 H 0.27433 0.29519 0.94935 0.0
H806 H 0.20283 0.2992 0.0934 0.0
H807 H 0.20647 0.28274 0.94066 0.0
H808 H 0.08185 0.31654 0.97022 0.0
H809 H 0.1508 0.31215 0.96538 0.0
H810 H 0.14933 0.26689 0.06422 0.0
H811 H 0.08015 0.27388 0.07162 0.0
C812 C 0.25719 0.30308 0.06522 0.0
C813 C 0.27779 0.30358 0.02576 0.0
C814 C 0.21802 0.29705 0.06092 0.0
C815 C 0.19861 0.29069 0.01666 0.0
C816 C 0.21998 0.28871 0.97594 0.0
C817 C 0.25903 0.29547 0.98066 0.0
C818 C 0.09642 0.30541 0.99049 0.0
C819 C 0.07608 0.296 0.02184 0.0
C820 C 0.13601 0.30254 0.98744 0.0
C821 C 0.15611 0.28942 0.0148 0.0
C822 C 0.13515 0.27801 0.04372 0.0
C823 C 0.09554 0.28172 0.04776 0.0
H824 H 0.58488 0.34265 0.5212 0.0
H825 H 0.58388 0.25927 0.55331 0.0
H826 H 0.65386 0.33755 0.50992 0.0
H827 H 0.65345 0.25451 0.54328 0.0
H828 H 0.77207 0.30825 0.45722 0.0
H829 H 0.70347 0.29872 0.45367 0.0
H830 H 0.70952 0.29038 0.59014 0.0
H831 H 0.77823 0.29953 0.59349 0.0
C832 C 0.59964 0.3232 0.52574 0.0
C833 C 0.57956 0.30159 0.53863 0.0
C834 C 0.63896 0.32001 0.51877 0.0
C835 C 0.65899 0.29538 0.52519 0.0
C836 C 0.63869 0.2735 0.53767 0.0
C837 C 0.59909 0.27626 0.54357 0.0
C838 C 0.75887 0.30371 0.48592 0.0
C839 C 0.78039 0.3051 0.52599 0.0
C840 C 0.71962 0.29838 0.48396 0.0
C841 C 0.70113 0.29443 0.52211 0.0
C842 C 0.72304 0.29335 0.56023 0.0
C843 C 0.76237 0.29864 0.56215 0.0
H844 H 0.08474 0.42247 0.74299 0.0
H845 H 0.08275 0.50393 0.70651 0.0
H846 H 0.15378 0.42792 0.75376 0.0
H847 H 0.15235 0.50898 0.71593 0.0
H848 H 0.27698 0.46329 0.66539 0.0
H849 H 0.20824 0.47241 0.66922 0.0
H850 H 0.20361 0.46761 0.80849 0.0
H851 H 0.27226 0.4582 0.80454 0.0
C852 C 0.09929 0.44161 0.73747 0.0
C853 C 0.07892 0.46258 0.72353 0.0
C854 C 0.13864 0.44499 0.74409 0.0
C855 C 0.1584 0.46913 0.73618 0.0
C856 C 0.1378 0.49038 0.72266 0.0
C857 C 0.09818 0.48745 0.71713 0.0
C858 C 0.26144 0.46496 0.69741 0.0
C859 C 0.27989 0.45952 0.7343 0.0
C860 C 0.22208 0.47022 0.69962 0.0
C861 C 0.20056 0.47013 0.73872 0.0
C862 C 0.21947 0.46719 0.77746 0.0
C863 C 0.25875 0.46192 0.77527 0.0
H864 H 0.03644 0.18552 0.28682 0.0
H865 H 0.07998 0.08529 0.21149 0.0
H866 H 0.02954 0.186 0.20656 0.0
H867 H 0.07276 0.08578 0.13162 0.0
H868 H 0.08797 0.18476 0.06442 0.0
H869 H 0.07983 0.18504 0.14473 0.0
H870 H 0.02358 0.08995 0.07251 0.0
H871 H 0.03141 0.08966 0.99188 0.0
C872 C 0.04385 0.1634 0.25315 0.0
C873 C 0.05902 0.13546 0.25556 0.0
C874 C 0.04007 0.16376 0.20728 0.0
C875 C 0.05073 0.13598 0.16289 0.0
C876 C 0.06402 0.10746 0.16514 0.0
C877 C 0.06835 0.10727 0.21096 0.0
C878 C 0.07337 0.1641 0.06567 0.0
C879 C 0.06059 0.13706 0.02167 0.0
C880 C 0.06849 0.16439 0.11175 0.0
C881 C 0.05118 0.13747 0.11484 0.0
C882 C 0.03723 0.11094 0.07113 0.0
C883 C 0.04159 0.11086 0.02504 0.0
H884 H 0.96295 0.9234 0.02308 0.0
H885 H 0.91061 0.82681 0.94387 0.0
H886 H 0.97155 0.92568 0.94442 0.0
H887 H 0.9194 0.82914 0.86555 0.0
H888 H 0.9601 0.83503 0.72731 0.0
H889 H 0.96849 0.83181 0.80547 0.0
H890 H 0.92243 0.93068 0.88686 0.0
H891 H 0.91382 0.93388 0.80925 0.0
C892 C 0.95389 0.90243 0.98888 0.0
C893 C 0.93571 0.87509 0.98982 0.0
C894 C 0.95871 0.9038 0.94389 0.0
C895 C 0.946 0.87766 0.89889 0.0
C896 C 0.92977 0.84955 0.89955 0.0
C897 C 0.92449 0.84834 0.94452 0.0
C898 C 0.95243 0.85628 0.76199 0.0
C899 C 0.93597 0.88458 0.76207 0.0
C900 C 0.95707 0.85436 0.80665 0.0
C901 C 0.94599 0.88094 0.85222 0.0
C902 C 0.93154 0.9099 0.85243 0.0
C903 C 0.92637 0.91163 0.80788 0.0
H904 H 0.08224 0.68441 0.55756 0.0
H905 H 0.03149 0.58703 0.48025 0.0
H906 H 0.07305 0.6833 0.63668 0.0
H907 H 0.02249 0.58595 0.55978 0.0
H908 H 0.07913 0.58148 0.69881 0.0
H909 H 0.07117 0.58277 0.61963 0.0
H910 H 0.0233 0.68126 0.69627 0.0
H911 H 0.03106 0.68 0.77586 0.0
C912 C 0.06861 0.66296 0.5575 0.0
C913 C 0.05791 0.63567 0.51254 0.0
C914 C 0.06311 0.66245 0.60291 0.0
C915 C 0.04719 0.63448 0.60438 0.0
C916 C 0.03506 0.60773 0.55967 0.0
C917 C 0.04007 0.60843 0.51421 0.0
C918 C 0.06632 0.60323 0.69879 0.0
C919 C 0.05603 0.63077 0.7437 0.0
C920 C 0.06153 0.60385 0.65335 0.0
C921 C 0.04677 0.63217 0.65181 0.0
C922 C 0.03499 0.6592 0.69645 0.0
C923 C 0.03928 0.6584 0.74194 0.0
H924 H 0.9209 0.32514 0.44368 0.0
H925 H 0.9685 0.42349 0.52503 0.0
H926 H 0.92964 0.32817 0.36589 0.0
H927 H 0.97709 0.42647 0.44686 0.0
H928 H 0.91955 0.43335 0.31054 0.0
H929 H 0.92826 0.43014 0.38814 0.0
H930 H 0.97812 0.33272 0.30719 0.0
H931 H 0.96958 0.33593 0.2291 0.0
C932 C 0.93379 0.34721 0.44491 0.0
C933 C 0.94367 0.37421 0.49065 0.0
C934 C 0.93903 0.34884 0.40024 0.0
C935 C 0.95387 0.37763 0.40029 0.0
C936 C 0.96533 0.40406 0.44576 0.0
C937 C 0.96056 0.40228 0.49047 0.0
C938 C 0.93294 0.41143 0.30926 0.0
C939 C 0.94356 0.38476 0.26355 0.0
C940 C 0.93816 0.40971 0.35383 0.0
C941 C 0.95373 0.38112 0.35374 0.0
C942 C 0.96581 0.35497 0.3083 0.0
C943 C 0.96107 0.35689 0.26366 0.0
H944 H 0.53285 0.08598 0.48735 0.0
H945 H 0.58647 0.18231 0.56169 0.0
H946 H 0.52532 0.0855 0.56748 0.0
H947 H 0.57864 0.18182 0.6415 0.0
H948 H 0.58264 0.08103 0.70608 0.0
H949 H 0.57487 0.08198 0.6266 0.0
H950 H 0.52875 0.18115 0.70259 0.0
H951 H 0.53623 0.18021 0.78246 0.0
C952 C 0.54244 0.10727 0.52079 0.0
C953 C 0.56055 0.13406 0.51808 0.0
C954 C 0.53825 0.10692 0.5666 0.0
C955 C 0.55149 0.13358 0.61068 0.0
C956 C 0.56787 0.16105 0.60823 0.0
C957 C 0.57257 0.16121 0.56243 0.0
C958 C 0.57025 0.10286 0.70585 0.0
C959 C 0.56028 0.13064 0.75064 0.0
C960 C 0.56561 0.1033 0.66026 0.0
C961 C 0.55135 0.13168 0.65843 0.0
C962 C 0.54004 0.15902 0.70299 0.0
C963 C 0.54414 0.15839 0.74863 0.0
H964 H 0.46047 0.8365 0.23227 0.0
H965 H 0.40857 0.93326 0.31265 0.0
H966 H 0.46749 0.83301 0.31025 0.0
H967 H 0.41585 0.92974 0.3903 0.0
H968 H 0.45529 0.92189 0.52741 0.0
H969 H 0.4647 0.92579 0.45 0.0
H970 H 0.41676 0.82789 0.36664 0.0
H971 H 0.40709 0.82399 0.44362 0.0
C972 C 0.4512 0.85726 0.26661 0.0
C973 C 0.43361 0.88501 0.26621 0.0
C974 C 0.4551 0.85518 0.31117 0.0
C975 C 0.44209 0.88105 0.35625 0.0
C976 C 0.42643 0.90955 0.35619 0.0
C977 C 0.42203 0.91144 0.31163 0.0
C978 C 0.44737 0.90099 0.49247 0.0
C979 C 0.43011 0.87276 0.49166 0.0
C980 C 0.45262 0.90329 0.44826 0.0
C981 C 0.44133 0.87719 0.40239 0.0
C982 C 0.42601 0.84828 0.40138 0.0
C983 C 0.42025 0.84616 0.44554 0.0
H984 H 0.5337 0.57684 0.97407 0.0
H985 H 0.58256 0.67516 0.04785 0.0
H986 H 0.52716 0.57661 0.05451 0.0
H987 H 0.57567 0.67492 0.12795 0.0
H988 H 0.53426 0.67269 0.26897 0.0
H989 H 0.52624 0.67272 0.18856 0.0
H990 H 0.57771 0.57554 0.11475 0.0
H991 H 0.58605 0.57551 0.19482 0.0
C992 C 0.54242 0.5986 0.00745 0.0
C993 C 0.55894 0.62591 1.00451 0.0
C994 C 0.53882 0.59839 0.05343 0.0
C995 C 0.55101 0.6257 0.09743 0.0
C996 C 0.56574 0.65363 0.09473 0.0
C997 C 0.56989 0.65366 0.04877 0.0
C998 C 0.5433 0.65111 0.23551 0.0
C999 C 0.56106 0.6242 0.23832 0.0
C1000 C 0.53886 0.65122 0.18955 0.0
C1001 C 0.55146 0.62419 0.14546 0.0
C1002 C 0.56745 0.5966 0.14805 0.0
C1003 C 0.57243 0.5967 0.19398 0.0
H1004 H 0.4679 0.34047 0.73634 0.0
H1005 H 0.41666 0.43753 0.81632 0.0
H1006 H 0.47553 0.33748 0.81462 0.0
H1007 H 0.42448 0.4345 0.89427 0.0
H1008 H 0.46389 0.42739 0.03184 0.0
H1009 H 0.47296 0.4309 0.9541 0.0
H1010 H 0.42571 0.33263 0.87172 0.0
H1011 H 0.41645 0.32911 0.94904 0.0
C1012 C 0.45894 0.36141 0.77065 0.0
C1013 C 0.44134 0.3891 0.77004 0.0
C1014 C 0.46317 0.35962 0.8154 0.0
C1015 C 0.45044 0.38569 0.86048 0.0
C1016 C 0.43484 0.41414 0.86019 0.0
C1017 C 0.43013 0.41576 0.81545 0.0
C1018 C 0.45608 0.40632 0.99705 0.0
C1019 C 0.43915 0.37809 0.99664 0.0
C1020 C 0.46111 0.40841 0.95262 0.0
C1021 C 0.44992 0.38209 0.9069 0.0
C1022 C 0.43492 0.3532 0.9063 0.0
C1023 C 0.42938 0.35129 0.95068 0.0
H1024 H 0.28486 0.35737 0.58832 0.0
H1025 H 0.36173 0.27425 0.54548 0.0
H1026 H 0.23252 0.31947 0.54804 0.0
H1027 H 0.30892 0.23609 0.50712 0.0
H1028 H 0.21461 0.17736 0.40031 0.0
H1029 H 0.26723 0.21548 0.43874 0.0
H1030 H 0.19192 0.28112 0.55583 0.0
H1031 H 0.13893 0.24366 0.51591 0.0
C1032 C 0.29051 0.33093 0.57066 0.0
C1033 C 0.32745 0.31879 0.57007 0.0
C1034 C 0.26038 0.30914 0.54782 0.0
C1035 C 0.2663 0.27462 0.52443 0.0
C1036 C 0.30333 0.2625 0.52401 0.0
C1037 C 0.33362 0.28436 0.54627 0.0
C1038 C 0.20929 0.19999 0.43421 0.0
C1039 C 0.17259 0.20755 0.45501 0.0
C1040 C 0.23957 0.22177 0.4565 0.0
C1041 C 0.23399 0.25144 0.50055 0.0
C1042 C 0.19722 0.25885 0.52146 0.0
C1043 C 0.16682 0.23728 0.49874 0.0
H1044 H 0.96249 0.92733 0.49317 0.0
H1045 H 0.9544 0.01094 0.63926 0.0
H1046 H 0.98799 0.9632 0.46033 0.0
H1047 H 0.97732 0.04761 0.60593 0.0
H1048 H 0.05683 0.09811 0.5409 0.0
H1049 H 0.03164 0.06287 0.57577 0.0
H1050 H 0.97156 1.00432 0.43786 0.0
H1051 H -0.00144 0.03875 0.40287 0.0
C1052 C 0.96609 0.95349 0.51822 0.0
C1053 C 0.95664 0.96632 0.56876 0.0
C1054 C 0.98018 0.97423 0.49928 0.0
C1055 C 0.9846 0.00851 0.53028 0.0
C1056 C 0.97482 0.02135 0.58095 0.0
C1057 C 0.96119 1.00044 0.60001 0.0
C1058 C 0.03819 0.07764 0.51839 0.0
C1059 C 0.02954 0.07086 0.46942 0.0
C1060 C 0.02351 0.05757 0.53832 0.0
C1061 C -0.00046 0.03055 0.5097 0.0
C1062 C 0.99049 0.02438 0.46077 0.0
C1063 C 0.0056 0.0442 0.44076 0.0
H1064 H 0.27284 0.91393 0.63958 0.0
H1065 H 0.35256 0.97595 0.75307 0.0
H1066 H 0.22243 0.95409 0.68103 0.0
H1067 H 0.30184 0.01543 0.79577 0.0
H1068 H 0.21386 0.09628 0.8324 0.0
H1069 H 0.2636 0.05593 0.78963 0.0
H1070 H 0.18226 0.97634 0.75154 0.0
H1071 H 0.13203 0.01698 0.79262 0.0
C1072 C 0.27953 0.93603 0.67365 0.0
C1073 C 0.31676 0.94181 0.69292 0.0
C1074 C 0.25052 0.95898 0.69765 0.0
C1075 C 0.25793 0.98811 0.74184 0.0
C1076 C 0.29516 0.99364 0.76133 0.0
C1077 C 0.32426 0.97089 0.73699 0.0
C1078 C 0.20655 0.07016 0.8149 0.0
C1079 C 0.16896 0.05984 0.81597 0.0
C1080 C 0.23519 0.04696 0.7906 0.0
C1081 C 0.22714 0.01277 0.76727 0.0
C1082 C 0.18948 1.00245 0.76842 0.0
C1083 C 0.16067 0.02574 0.79224 0.0
H1084 H 0.00093 0.27404 0.63768 0.0
H1085 H 0.93126 0.32864 0.76718 0.0
H1086 H 0.02587 0.2402 0.675 0.0
H1087 H 0.95444 0.29399 0.8041 0.0
H1088 H 0.0299 0.24819 0.87842 0.0
H1089 H 0.00714 0.28285 0.84152 0.0
H1090 H 0.01102 0.19788 0.6957 0.0
H1091 H 0.03636 0.16416 0.7327 0.0
C1092 C 0.99086 0.2785 0.6741 0.0
C1093 C 0.96446 0.3038 0.69986 0.0
C1094 C 0.00482 0.25901 0.69542 0.0
C1095 C 0.99224 0.2642 0.74275 0.0
C1096 C 0.9654 0.28956 0.76812 0.0
C1097 C 0.95183 0.30926 0.74695 0.0
C1098 C 0.02611 0.23713 0.83845 0.0
C1099 C 0.03459 0.2035 0.8084 0.0
C1100 C 0.01264 0.25685 0.81724 0.0
C1101 C 0.00694 0.24327 0.76546 0.0
C1102 C 0.01547 0.20946 0.73556 0.0
C1103 C 0.02945 0.18993 0.75676 0.0
H1104 H 0.85627 0.7836 0.50215 0.0
H1105 H 0.77685 0.84503 0.6167 0.0
H1106 H 0.80551 0.74407 0.45955 0.0
H1107 H 0.72653 0.80493 0.57545 0.0
H1108 H 0.71676 0.66334 0.42313 0.0
H1109 H 0.7671 0.70329 0.4649 0.0
H1110 H 0.68614 0.78351 0.50557 0.0
H1111 H 0.63543 0.74334 0.46559 0.0
C1112 C 0.82804 0.78851 0.51846 0.0
C1113 C 0.8206 0.81747 0.56275 0.0
C1114 C 0.79893 0.76575 0.49419 0.0
C1115 C 0.76179 0.7712 0.51399 0.0
C1116 C 0.75452 0.80014 0.55851 0.0
C1117 C 0.78349 0.82307 0.58241 0.0
C1118 C 0.70968 0.68951 0.441 0.0
C1119 C 0.67205 0.70016 0.4411 0.0
C1120 C 0.73866 0.71249 0.46472 0.0
C1121 C 0.73085 0.74673 0.48861 0.0
C1122 C 0.69318 0.75735 0.48834 0.0
C1123 C 0.66408 0.73432 0.46514 0.0
H1124 H 0.71281 0.09735 0.32899 0.0
H1125 H 0.63435 0.01559 0.28808 0.0
H1126 H 0.76407 0.05863 0.28684 0.0
H1127 H 0.68616 0.97653 0.24766 0.0
H1128 H 0.77875 0.9165 0.13773 0.0
H1129 H 0.72692 0.95523 0.17812 0.0
H1130 H 0.80446 0.01957 0.29304 0.0
H1131 H 0.85661 0.98148 0.25124 0.0
C1132 C 0.70656 0.07103 0.31135 0.0
C1133 C 0.66946 0.05956 0.31196 0.0
C1134 C 0.7361 0.04874 0.28741 0.0
C1135 C 0.7295 0.01432 0.26398 0.0
C1136 C 0.6923 1.00285 0.26461 0.0
C1137 C 0.66257 0.02522 0.28805 0.0
C1138 C 0.78474 0.93897 0.17158 0.0
C1139 C 0.82186 0.94597 0.19118 0.0
C1140 C 0.7549 0.96111 0.19501 0.0
C1141 C 0.76131 0.99063 0.239 0.0
C1142 C 0.79847 0.99744 0.25874 0.0
C1143 C 0.82842 0.9755 0.23493 0.0
H1144 H 0.90808 0.79937 0.22705 0.0
H1145 H 0.02007 0.80426 0.17216 0.0
H1146 H 0.93321 0.76498 0.26366 0.0
H1147 H 0.04528 0.76953 0.20826 0.0
H1148 H 0.05982 0.67407 0.22962 0.0
H1149 H 0.03525 0.70901 0.19347 0.0
H1150 H 0.98128 0.77299 0.33346 0.0
H1151 H 0.00641 0.73818 0.36954 0.0
C1152 C 0.93805 0.79293 0.22277 0.0
C1153 C 0.96223 0.80432 0.19691 0.0
C1154 C 0.95245 0.77347 0.24388 0.0
C1155 C 0.99117 0.76462 0.23877 0.0
C1156 C 0.01528 0.77584 0.21249 0.0
C1157 C 0.00098 0.79577 0.1921 0.0
C1158 C 0.0427 0.69564 0.25242 0.0
C1159 C 0.03473 0.70356 0.30206 0.0
C1160 C 0.02883 0.71566 0.23195 0.0
C1161 C 0.00633 0.74365 0.26068 0.0
C1162 C -0.00172 0.75141 0.3104 0.0
C1163 C 0.01266 0.73166 0.33104 0.0
H1164 H 0.2791 0.8556 0.08182 0.0
H1165 H 0.3567 0.77285 0.03735 0.0
H1166 H 0.22718 0.81754 0.04 0.0
H1167 H 0.30434 0.73451 0.9974 0.0
H1168 H 0.21091 0.67556 0.88967 0.0
H1169 H 0.26294 0.71418 0.92889 0.0
H1170 H 0.1867 0.77844 0.04592 0.0
H1171 H 0.13426 0.74044 0.00522 0.0
C1172 C 0.28502 0.8292 0.06341 0.0
C1173 C 0.32206 0.81724 0.0629 0.0
C1174 C 0.25512 0.80731 0.03968 0.0
C1175 C 0.26134 0.77283 0.0154 0.0
C1176 C 0.29848 0.76089 0.01495 0.0
C1177 C 0.32854 0.78285 0.03812 0.0
C1178 C 0.20523 0.698 0.92372 0.0
C1179 C 0.16842 0.70496 0.9443 0.0
C1180 C 0.23519 0.72008 0.94646 0.0
C1181 C 0.22924 0.74949 0.99079 0.0
C1182 C 0.19233 0.75637 0.01138 0.0
C1183 C 0.16223 0.73449 0.98821 0.0
H1184 H 0.00149 0.5302 0.89039 0.0
H1185 H 0.05958 0.59251 0.02725 0.0
H1186 H 0.97644 0.49627 0.9274 0.0
H1187 H 0.03641 0.55784 0.06412 0.0
H1188 H 0.96113 0.50776 0.13219 0.0
H1189 H 0.98303 0.54307 0.09599 0.0
H1190 H 0.99333 0.4566 0.95254 0.0
H1191 H 0.9687 0.42205 0.98824 0.0
C1192 C 0.00901 0.53636 0.92841 0.0
C1193 C 0.0322 0.5638 0.95623 0.0
C1194 C 0.99499 0.51685 0.94961 0.0
C1195 C 0.00441 0.52411 0.9989 0.0
C1196 C 0.02792 0.55172 0.02647 0.0
C1197 C 0.04148 0.57146 0.00538 0.0
C1198 C 0.96762 0.4965 0.09279 0.0
C1199 C 0.96321 0.46219 0.063 0.0
C1200 C 0.9807 0.51663 0.07208 0.0
C1201 C 0.99011 0.50282 0.02116 0.0
C1202 C 0.98582 0.46836 0.99162 0.0
C1203 C 0.97224 0.44838 0.01221 0.0
H1204 H 0.21655 0.60049 0.33237 0.0
H1205 H 0.13756 0.51874 0.28771 0.0
H1206 H 0.26818 0.56164 0.29175 0.0
H1207 H 0.18952 0.47969 0.24898 0.0
H1208 H 0.28249 0.41985 0.14076 0.0
H1209 H 0.23097 0.45907 0.18026 0.0
H1210 H 0.30748 0.52175 0.29809 0.0
H1211 H 0.35943 0.48315 0.25721 0.0
C1212 C 0.21027 0.57416 0.31427 0.0
C1213 C 0.17292 0.5627 0.3132 0.0
C1214 C 0.23997 0.55183 0.29121 0.0
C1215 C 0.23318 0.51743 0.26707 0.0
C1216 C 0.19579 0.50599 0.26639 0.0
C1217 C 0.16597 0.52837 0.28889 0.0
C1218 C 0.28833 0.44204 0.17507 0.0
C1219 C 0.32508 0.44841 0.19581 0.0
C1220 C 0.25867 0.46446 0.19796 0.0
C1221 C 0.2649 0.49363 0.24255 0.0
C1222 C 0.3017 0.49988 0.26337 0.0
C1223 C 0.3315 0.47765 0.24009 0.0
H1224 H 0.86217 0.28162 1.00414 0.0
H1225 H 0.78537 0.3448 0.12103 0.0
H1226 H 0.81001 0.24316 0.96319 0.0
H1227 H 0.73381 0.30587 0.08152 0.0
H1228 H 0.63987 0.24764 0.97495 0.0
H1229 H 0.6924 0.2861 0.01284 0.0
H1230 H 0.77006 0.20334 0.96935 0.0
H1231 H 0.71783 0.16504 0.92962 0.0
C1232 C 0.83425 0.28712 0.02132 0.0
C1233 C 0.8279 0.3163 0.0657 0.0
C1234 C 0.80435 0.265 0.998 0.0
C1235 C 0.76754 0.27138 0.0189 0.0
C1236 C 0.76147 0.30042 0.06368 0.0
C1237 C 0.79118 0.32268 0.08659 0.0
C1238 C 0.66818 0.23769 0.97343 0.0
C1239 C 0.67465 0.20329 0.94926 0.0
C1240 C 0.69833 0.25974 0.99543 0.0
C1241 C 0.73559 0.2479 0.99438 0.0
C1242 C 0.74195 0.21344 0.97021 0.0
C1243 C 0.7119 0.19142 0.94768 0.0
H1244 H 0.86 0.48045 0.74864 0.0
H1245 H 0.78519 0.41363 0.63238 0.0
H1246 H 0.80653 0.51752 0.78812 0.0
H1247 H 0.7321 0.45129 0.67051 0.0
H1248 H 0.63692 0.5094 0.77752 0.0
H1249 H 0.69014 0.47159 0.73912 0.0
H1250 H 0.76545 0.55547 0.77936 0.0
H1251 H 0.71278 0.59302 0.81945 0.0
C1252 C 0.83222 0.47386 0.73123 0.0
C1253 C 0.82686 0.4441 0.68742 0.0
C1254 C 0.80153 0.49519 0.75371 0.0
C1255 C 0.76486 0.48749 0.73254 0.0
C1256 C 0.75969 0.4578 0.68844 0.0
C1257 C 0.79025 0.43629 0.66633 0.0
C1258 C 0.66487 0.5197 0.77812 0.0
C1259 C 0.67063 0.55419 0.80172 0.0
C1260 C 0.69539 0.49804 0.75587 0.0
C1261 C 0.73225 0.51041 0.75618 0.0
C1262 C 0.73774 0.54496 0.77926 0.0
C1263 C 0.7074 0.56655 0.802 0.0
H1264 H 0.41384 0.95618 0.02105 0.0
H1265 H 0.51655 0.97025 0.10632 0.0
H1266 H 0.43893 0.9916 0.98682 0.0
H1267 H 0.54111 0.00768 0.07525 0.0
H1268 H 0.59128 0.04762 0.97541 0.0
H1269 H 0.56674 0.01144 0.00809 0.0
H1270 H 0.45231 0.0451 1.0023 0.0
H1271 H 0.47685 0.07859 0.96479 0.0
C1272 C 0.44175 0.96725 0.03268 0.0
C1273 C 0.46348 0.96058 0.06591 0.0
C1274 C 0.45607 0.98786 0.01359 0.0
C1275 C 0.49215 1.00287 0.02825 0.0
C1276 C 0.51362 0.9962 0.06212 0.0
C1277 C 0.49956 0.97497 0.08031 0.0
C1278 C 0.56082 0.04681 0.98031 0.0
C1279 C 0.536 0.0657 0.96695 0.0
C1280 C 0.54669 0.02647 1.0 0.0
C1281 C 0.50735 0.02507 0.00799 0.0
C1282 C 0.48267 0.0448 0.99583 0.0
C1283 C 0.49679 0.06458 0.97512 0.0
H1284 H 0.51964 0.31734 0.20149 0.0
H1285 H 0.40543 0.28343 0.20521 0.0
H1286 H 0.54357 0.28394 0.23929 0.0
H1287 H 0.42962 0.24717 0.23802 0.0
H1288 H 0.4769 0.20949 0.34239 0.0
H1289 H 0.45263 0.24467 0.30718 0.0
H1290 H 0.55876 0.23171 0.22727 0.0
H1291 H 0.58344 0.19864 0.26579 0.0
C1292 C 0.49961 0.30262 0.21022 0.0
C1293 C 0.46058 0.30324 0.20054 0.0
C1294 C 0.51345 0.28285 0.2311 0.0
C1295 C 0.48872 0.26249 0.24182 0.0
C1296 C 0.44965 0.26281 0.23129 0.0
C1297 C 0.43575 0.28318 0.21146 0.0
C1298 C 0.49486 0.21443 0.31739 0.0
C1299 C 0.53195 0.20168 0.3068 0.0
C1300 C 0.48094 0.23433 0.29675 0.0
C1301 C 0.50356 0.24125 0.26404 0.0
C1302 C 0.54064 0.22778 0.25305 0.0
C1303 C 0.55479 0.20855 0.27468 0.0
H1304 H 0.51251 0.80546 0.68381 0.0
H1305 H 0.39822 0.77474 0.69542 0.0
H1306 H 0.53748 0.77103 0.71938 0.0
H1307 H 0.4232 0.73755 0.72613 0.0
H1308 H 0.47405 0.70064 0.82991 0.0
H1309 H 0.44868 0.73538 0.79456 0.0
H1310 H 0.55143 0.71836 0.70685 0.0
H1311 H 0.57733 0.68569 0.74537 0.0
C1312 C 0.49271 0.79116 0.69373 0.0
C1313 C 0.45336 0.79309 0.6872 0.0
C1314 C 0.50708 0.77084 0.71334 0.0
C1315 C 0.48251 0.75124 0.72585 0.0
C1316 C 0.44312 0.75264 0.71803 0.0
C1317 C 0.42874 0.77356 0.69947 0.0
C1318 C 0.49099 0.70453 0.80308 0.0
C1319 C 0.52751 0.69078 0.79027 0.0
C1320 C 0.47644 0.72418 0.78238 0.0
C1321 C 0.49784 0.72988 0.74754 0.0
C1322 C 0.53429 0.71534 0.73425 0.0
C1323 C 0.54911 0.69633 0.75587 0.0
H1324 H 0.59082 0.55191 0.47902 0.0
H1325 H 0.47747 0.5597 0.43027 0.0
H1326 H 0.56625 0.5182 0.51701 0.0
H1327 H 0.45277 0.52588 0.46805 0.0
H1328 H 0.4363 0.43143 0.49061 0.0
H1329 H 0.46033 0.46578 0.45324 0.0
H1330 H 0.52134 0.52669 0.58893 0.0
H1331 H 0.49685 0.49239 0.62617 0.0
C1332 C 0.56067 0.54626 0.47638 0.0
C1333 C 0.53597 0.55825 0.45178 0.0
C1334 C 0.54658 0.52722 0.49834 0.0
C1335 C 0.50761 0.51944 0.49546 0.0
C1336 C 0.48297 0.53132 0.47054 0.0
C1337 C 0.497 0.55078 0.44923 0.0
C1338 C 0.45481 0.45222 0.51221 0.0
C1339 C 0.46497 0.45942 0.56095 0.0
C1340 C 0.4684 0.47191 0.49106 0.0
C1341 C 0.49274 0.49885 0.51818 0.0
C1342 C 0.50291 0.5059 0.56705 0.0
C1343 C 0.48888 0.48646 0.58838 0.0
loop_
_geom_bond_atom_site_label_1
_geom_bond_atom_site_label_2
_geom_bond_distance
_geom_bond_site_symmetry_2
_ccdc_geom_bond_type
Co0 O3 1.970 . S
Co0 N17 1.989 . S
Co0 O25 1.967 . S
Co0 O32 1.920 . S
Co1 O4 1.966 . S
Co1 N10 2.022 . S
Co1 N18 1.993 . S
Co1 O26 1.941 . S
C2 O3 1.258 . S
C2 O4 1.263 . S
O3 Co0 1.970 . S
O3 C2 1.258 . S
O4 Co1 1.966 . S
O4 C2 1.263 . S
C5 O6 1.235 . S
C5 O32 1.289 . S
O6 C5 1.235 . S
C7 C9 1.400 . S
C7 N10 1.351 1_655 S
C7 C12 1.501 . S
C8 C9 1.387 . S
C8 N11 1.341 . S
C9 C7 1.400 . S
C9 C8 1.387 . S
N10 Co1 2.022 . S
N10 C7 1.351 1_455 S
N10 N11 1.365 1_455 S
N11 C8 1.341 . S
N11 N10 1.365 1_655 S
N11 H31 0.862 1_655 S
C12 C7 1.501 . S
C12 H13 0.961 1_655 S
C12 H14 0.961 . S
C12 H15 0.960 . S
H13 C12 0.961 1_455 S
H14 C12 0.961 . S
H15 C12 0.960 . S
C16 N17 1.342 . S
C16 C20 1.401 . S
C16 C21 1.499 . S
N17 Co0 1.989 . S
N17 C16 1.342 . S
N17 N18 1.388 . S
N18 Co1 1.993 . S
N18 N17 1.388 . S
N18 C19 1.346 . S
C19 N18 1.346 . S
C19 C20 1.396 . S
C19 C29 1.510 . S
C20 C16 1.401 . S
C20 C19 1.396 . S
C21 C16 1.499 . S
C21 H22 0.959 . S
C21 H23 0.960 . S
C21 H24 0.961 . S
H22 C21 0.959 . S
H23 C21 0.960 . S
H24 C21 0.961 . S
O25 Co0 1.967 . S
O25 C33 1.258 . S
O26 Co1 1.941 . S
O26 C33 1.266 . S
H27 C29 0.959 . S
H28 C29 0.961 . S
C29 C19 1.510 . S
C29 H27 0.959 . S
C29 H28 0.961 . S
C29 H30 0.960 . S
H30 C29 0.960 . S
H31 N11 0.862 1_455 S
O32 Co0 1.920 . S
O32 C5 1.289 . S
C33 O25 1.258 . S
C33 O26 1.266 . S
Co34 O37 1.970 . S
Co34 N51 1.989 . S
Co34 O59 1.967 . S
Co34 O66 1.920 . S
Co35 O38 1.966 . S
Co35 N44 2.022 . S
Co35 N52 1.993 . S
Co35 O60 1.941 . S
C36 O37 1.258 . S
C36 O38 1.263 . S
O37 Co34 1.970 . S
O37 C36 1.258 . S
O38 Co35 1.966 . S
O38 C36 1.263 . S
C39 O40 1.235 . S
C39 O66 1.289 . S
O40 C39 1.235 . S
C41 C43 1.400 . S
C41 N44 1.351 1_655 S
C41 C46 1.501 . S
C42 C43 1.387 . S
C42 N45 1.341 . S
C43 C41 1.400 . S
C43 C42 1.387 . S
N44 Co35 2.022 . S
N44 C41 1.351 1_455 S
N44 N45 1.365 1_455 S
N45 C42 1.341 . S
N45 N44 1.365 1_655 S
N45 H65 0.862 1_655 S
C46 C41 1.501 . S
C46 H47 0.961 1_655 S
C46 H48 0.961 . S
C46 H49 0.960 . S
H47 C46 0.961 1_455 S
H48 C46 0.961 . S
H49 C46 0.960 . S
C50 N51 1.342 . S
C50 C54 1.401 . S
C50 C55 1.499 . S
N51 Co34 1.989 . S
N51 C50 1.342 . S
N51 N52 1.388 . S
N52 Co35 1.993 . S
N52 N51 1.388 . S
N52 C53 1.346 . S
C53 N52 1.346 . S
C53 C54 1.396 . S
C53 C63 1.510 . S
C54 C50 1.401 . S
C54 C53 1.396 . S
C55 C50 1.499 . S
C55 H56 0.959 . S
C55 H57 0.960 . S
C55 H58 0.961 . S
H56 C55 0.959 . S
H57 C55 0.960 . S
H58 C55 0.961 . S
O59 Co34 1.967 . S
O59 C67 1.258 . S
O60 Co35 1.941 . S
O60 C67 1.266 . S
H61 C63 0.959 . S
H62 C63 0.961 . S
C63 C53 1.510 . S
C63 H61 0.959 . S
C63 H62 0.961 . S
C63 H64 0.960 . S
H64 C63 0.960 . S
H65 N45 0.862 1_455 S
O66 Co34 1.920 . S
O66 C39 1.289 . S
C67 O59 1.258 . S
C67 O60 1.266 . S
Co68 O71 1.970 . S
Co68 N85 1.989 . S
Co68 O93 1.967 . S
Co68 O100 1.920 . S
Co69 O72 1.966 . S
Co69 N78 2.022 . S
Co69 N86 1.993 . S
Co69 O94 1.941 . S
C70 O71 1.258 . S
C70 O72 1.263 . S
O71 Co68 1.970 . S
O71 C70 1.258 . S
O72 Co69 1.966 . S
O72 C70 1.263 . S
C73 O74 1.235 . S
C73 O100 1.289 . S
O74 C73 1.235 . S
C75 C77 1.400 . S
C75 N78 1.351 1_455 S
C75 C80 1.501 . S
C76 C77 1.387 . S
C76 N79 1.341 . S
C77 C75 1.400 . S
C77 C76 1.387 . S
N78 Co69 2.022 . S
N78 C75 1.351 1_655 S
N78 N79 1.365 1_655 S
N79 C76 1.341 . S
N79 N78 1.365 1_455 S
N79 H99 0.862 1_455 S
C80 C75 1.501 . S
C80 H81 0.961 1_455 S
C80 H82 0.961 . S
C80 H83 0.960 . S
H81 C80 0.961 1_655 S
H82 C80 0.961 . S
H83 C80 0.960 . S
C84 N85 1.342 . S
C84 C88 1.401 . S
C84 C89 1.499 . S
N85 Co68 1.989 . S
N85 C84 1.342 . S
N85 N86 1.388 . S
N86 Co69 1.993 . S
N86 N85 1.388 . S
N86 C87 1.346 . S
C87 N86 1.346 . S
C87 C88 1.396 . S
C87 C97 1.510 . S
C88 C84 1.401 . S
C88 C87 1.396 . S
C89 C84 1.499 . S
C89 H90 0.959 . S
C89 H91 0.960 . S
C89 H92 0.961 . S
H90 C89 0.959 . S
H91 C89 0.960 . S
H92 C89 0.961 . S
O93 Co68 1.967 . S
O93 C101 1.258 . S
O94 Co69 1.941 . S
O94 C101 1.266 . S
H95 C97 0.959 . S
H96 C97 0.961 . S
C97 C87 1.510 . S
C97 H95 0.959 . S
C97 H96 0.961 . S
C97 H98 0.960 . S
H98 C97 0.960 . S
H99 N79 0.862 1_655 S
O100 Co68 1.920 . S
O100 C73 1.289 . S
C101 O93 1.258 . S
C101 O94 1.266 . S
Co102 O105 1.970 . S
Co102 N119 1.989 . S
Co102 O127 1.967 . S
Co102 O134 1.920 . S
Co103 O106 1.966 . S
Co103 N112 2.022 . S
Co103 N120 1.993 . S
Co103 O128 1.941 . S
C104 O105 1.258 . S
C104 O106 1.263 . S
O105 Co102 1.970 . S
O105 C104 1.258 . S
O106 Co103 1.966 . S
O106 C104 1.263 . S
C107 O108 1.235 . S
C107 O134 1.289 . S
O108 C107 1.235 . S
C109 C111 1.400 . S
C109 N112 1.351 1_455 S
C109 C114 1.501 . S
C110 C111 1.387 . S
C110 N113 1.341 . S
C111 C109 1.400 . S
C111 C110 1.387 . S
N112 Co103 2.022 . S
N112 C109 1.351 1_655 S
N112 N113 1.365 1_655 S
N113 C110 1.341 . S
N113 N112 1.365 1_455 S
N113 H133 0.862 1_455 S
C114 C109 1.501 . S
C114 H115 0.961 1_455 S
C114 H116 0.961 . S
C114 H117 0.960 . S
H115 C114 0.961 1_655 S
H116 C114 0.961 . S
H117 C114 0.960 . S
C118 N119 1.342 . S
C118 C122 1.401 . S
C118 C123 1.499 . S
N119 Co102 1.989 . S
N119 C118 1.342 . S
N119 N120 1.388 . S
N120 Co103 1.993 . S
N120 N119 1.388 . S
N120 C121 1.346 . S
C121 N120 1.346 . S
C121 C122 1.396 . S
C121 C131 1.510 . S
C122 C118 1.401 . S
C122 C121 1.396 . S
C123 C118 1.499 . S
C123 H124 0.959 . S
C123 H125 0.960 . S
C123 H126 0.961 . S
H124 C123 0.959 . S
H125 C123 0.960 . S
H126 C123 0.961 . S
O127 Co102 1.967 . S
O127 C135 1.258 . S
O128 Co103 1.941 . S
O128 C135 1.266 . S
H129 C131 0.959 . S
H130 C131 0.961 . S
C131 C121 1.510 . S
C131 H129 0.959 . S
C131 H130 0.961 . S
C131 H132 0.960 . S
H132 C131 0.960 . S
H133 N113 0.862 1_655 S
O134 Co102 1.920 . S
O134 C107 1.289 . S
C135 O127 1.258 . S
C135 O128 1.266 . S
Co136 O139 1.970 . S
Co136 N153 1.989 . S
Co136 O161 1.967 . S
Co136 O168 1.920 . S
Co137 O140 1.966 . S
Co137 N146 2.022 . S
Co137 N154 1.993 . S
Co137 O162 1.941 . S
C138 O139 1.258 . S
C138 O140 1.263 . S
O139 Co136 1.970 . S
O139 C138 1.258 . S
O140 Co137 1.966 . S
O140 C138 1.263 . S
C141 O142 1.235 . S
C141 O168 1.289 . S
O142 C141 1.235 . S
C143 C145 1.400 . S
C143 N146 1.351 1_655 S
C143 C148 1.501 . S
C144 C145 1.387 . S
C144 N147 1.341 . S
C145 C143 1.400 . S
C145 C144 1.387 . S
N146 Co137 2.022 . S
N146 C143 1.351 1_455 S
N146 N147 1.365 1_455 S
N147 C144 1.341 . S
N147 N146 1.365 1_655 S
N147 H167 0.862 1_655 S
C148 C143 1.501 . S
C148 H149 0.961 1_655 S
C148 H150 0.961 . S
C148 H151 0.960 . S
H149 C148 0.961 1_455 S
H150 C148 0.961 . S
H151 C148 0.960 . S
C152 N153 1.342 . S
C152 C156 1.401 . S
C152 C157 1.499 . S
N153 Co136 1.989 . S
N153 C152 1.342 . S
N153 N154 1.388 . S
N154 Co137 1.993 . S
N154 N153 1.388 . S
N154 C155 1.346 . S
C155 N154 1.346 . S
C155 C156 1.396 . S
C155 C165 1.510 . S
C156 C152 1.401 . S
C156 C155 1.396 . S
C157 C152 1.499 . S
C157 H158 0.959 . S
C157 H159 0.960 . S
C157 H160 0.961 . S
H158 C157 0.959 . S
H159 C157 0.960 . S
H160 C157 0.961 . S
O161 Co136 1.967 . S
O161 C169 1.258 . S
O162 Co137 1.941 . S
O162 C169 1.266 . S
H163 C165 0.959 . S
H164 C165 0.961 . S
C165 C155 1.510 . S
C165 H163 0.959 . S
C165 H164 0.961 . S
C165 H166 0.960 . S
H166 C165 0.960 . S
H167 N147 0.862 1_455 S
O168 Co136 1.920 . S
O168 C141 1.289 . S
C169 O161 1.258 . S
C169 O162 1.266 . S
Co170 O173 1.970 . S
Co170 N187 1.989 . S
Co170 O195 1.967 . S
Co170 O202 1.920 . S
Co171 O174 1.966 . S
Co171 N180 2.022 . S
Co171 N188 1.993 . S
Co171 O196 1.941 . S
C172 O173 1.258 . S
C172 O174 1.263 . S
O173 Co170 1.970 . S
O173 C172 1.258 . S
O174 Co171 1.966 . S
O174 C172 1.263 . S
C175 O176 1.235 . S
C175 O202 1.289 . S
O176 C175 1.235 . S
C177 C179 1.400 . S
C177 N180 1.351 1_655 S
C177 C182 1.501 . S
C178 C179 1.387 . S
C178 N181 1.341 . S
C179 C177 1.400 . S
C179 C178 1.387 . S
N180 Co171 2.022 . S
N180 C177 1.351 1_455 S
N180 N181 1.365 1_455 S
N181 C178 1.341 . S
N181 N180 1.365 1_655 S
N181 H201 0.862 1_655 S
C182 C177 1.501 . S
C182 H183 0.961 1_655 S
C182 H184 0.961 . S
C182 H185 0.960 . S
H183 C182 0.961 1_455 S
H184 C182 0.961 . S
H185 C182 0.960 . S
C186 N187 1.342 . S
C186 C190 1.401 . S
C186 C191 1.499 . S
N187 Co170 1.989 . S
N187 C186 1.342 . S
N187 N188 1.388 . S
N188 Co171 1.993 . S
N188 N187 1.388 . S
N188 C189 1.346 . S
C189 N188 1.346 . S
C189 C190 1.396 . S
C189 C199 1.510 . S
C190 C186 1.401 . S
C190 C189 1.396 . S
C191 C186 1.499 . S
C191 H192 0.959 . S
C191 H193 0.960 . S
C191 H194 0.961 . S
H192 C191 0.959 . S
H193 C191 0.960 . S
H194 C191 0.961 . S
O195 Co170 1.967 . S
O195 C203 1.258 . S
O196 Co171 1.941 . S
O196 C203 1.266 . S
H197 C199 0.959 . S
H198 C199 0.961 . S
C199 C189 1.510 . S
C199 H197 0.959 . S
C199 H198 0.961 . S
C199 H200 0.960 . S
H200 C199 0.960 . S
H201 N181 0.862 1_455 S
O202 Co170 1.920 . S
O202 C175 1.289 . S
C203 O195 1.258 . S
C203 O196 1.266 . S
Co204 O207 1.970 . S
Co204 N221 1.989 . S
Co204 O229 1.967 . S
Co204 O236 1.920 . S
Co205 O208 1.966 . S
Co205 N214 2.022 . S
Co205 N222 1.993 . S
Co205 O230 1.941 . S
C206 O207 1.258 . S
C206 O208 1.263 . S
O207 Co204 1.970 . S
O207 C206 1.258 . S
O208 Co205 1.966 . S
O208 C206 1.263 . S
C209 O210 1.235 . S
C209 O236 1.289 . S
O210 C209 1.235 . S
C211 C213 1.400 . S
C211 N214 1.351 1_455 S
C211 C216 1.501 . S
C212 C213 1.387 . S
C212 N215 1.341 . S
C213 C211 1.400 . S
C213 C212 1.387 . S
N214 Co205 2.022 . S
N214 C211 1.351 1_655 S
N214 N215 1.365 1_655 S
N215 C212 1.341 . S
N215 N214 1.365 1_455 S
N215 H235 0.862 1_455 S
C216 C211 1.501 . S
C216 H217 0.961 1_455 S
C216 H218 0.961 . S
C216 H219 0.960 . S
H217 C216 0.961 1_655 S
H218 C216 0.961 . S
H219 C216 0.960 . S
C220 N221 1.342 . S
C220 C224 1.401 . S
C220 C225 1.499 . S
N221 Co204 1.989 . S
N221 C220 1.342 . S
N221 N222 1.388 . S
N222 Co205 1.993 . S
N222 N221 1.388 . S
N222 C223 1.346 . S
C223 N222 1.346 . S
C223 C224 1.396 . S
C223 C233 1.510 . S
C224 C220 1.401 . S
C224 C223 1.396 . S
C225 C220 1.499 . S
C225 H226 0.959 . S
C225 H227 0.960 . S
C225 H228 0.961 . S
H226 C225 0.959 . S
H227 C225 0.960 . S
H228 C225 0.961 . S
O229 Co204 1.967 . S
O229 C237 1.258 . S
O230 Co205 1.941 . S
O230 C237 1.266 . S
H231 C233 0.959 . S
H232 C233 0.961 . S
C233 C223 1.510 . S
C233 H231 0.959 . S
C233 H232 0.961 . S
C233 H234 0.960 . S
H234 C233 0.960 . S
H235 N215 0.862 1_655 S
O236 Co204 1.920 . S
O236 C209 1.289 . S
C237 O229 1.258 . S
C237 O230 1.266 . S
Co238 O241 1.970 . S
Co238 N255 1.989 . S
Co238 O263 1.967 . S
Co238 O270 1.920 . S
Co239 O242 1.966 . S
Co239 N248 2.022 . S
Co239 N256 1.993 . S
Co239 O264 1.941 . S
C240 O241 1.258 . S
C240 O242 1.263 . S
O241 Co238 1.970 . S
O241 C240 1.258 . S
O242 Co239 1.966 . S
O242 C240 1.263 . S
C243 O244 1.235 . S
C243 O270 1.289 . S
O244 C243 1.235 . S
C245 C247 1.400 . S
C245 N248 1.351 1_455 S
C245 C250 1.501 . S
C246 C247 1.387 . S
C246 N249 1.341 . S
C247 C245 1.400 . S
C247 C246 1.387 . S
N248 Co239 2.022 . S
N248 C245 1.351 1_655 S
N248 N249 1.365 1_655 S
N249 C246 1.341 . S
N249 N248 1.365 1_455 S
N249 H269 0.862 1_455 S
C250 C245 1.501 . S
C250 H251 0.961 1_455 S
C250 H252 0.961 . S
C250 H253 0.960 . S
H251 C250 0.961 1_655 S
H252 C250 0.961 . S
H253 C250 0.960 . S
C254 N255 1.342 . S
C254 C258 1.401 . S
C254 C259 1.499 . S
N255 Co238 1.989 . S
N255 C254 1.342 . S
N255 N256 1.388 . S
N256 Co239 1.993 . S
N256 N255 1.388 . S
N256 C257 1.346 . S
C257 N256 1.346 . S
C257 C258 1.396 . S
C257 C267 1.510 . S
C258 C254 1.401 . S
C258 C257 1.396 . S
C259 C254 1.499 . S
C259 H260 0.959 . S
C259 H261 0.960 . S
C259 H262 0.961 . S
H260 C259 0.959 . S
H261 C259 0.960 . S
H262 C259 0.961 . S
O263 Co238 1.967 . S
O263 C271 1.258 . S
O264 Co239 1.941 . S
O264 C271 1.266 . S
H265 C267 0.959 . S
H266 C267 0.961 . S
C267 C257 1.510 . S
C267 H265 0.959 . S
C267 H266 0.961 . S
C267 H268 0.960 . S
H268 C267 0.960 . S
H269 N249 0.862 1_655 S
O270 Co238 1.920 . S
O270 C243 1.289 . S
C271 O263 1.258 . S
C271 O264 1.266 . S
Co272 O275 1.970 . S
Co272 N289 1.989 . S
Co272 O297 1.967 . S
Co272 O304 1.920 . S
Co273 O276 1.966 . S
Co273 N282 2.022 . S
Co273 N290 1.993 . S
Co273 O298 1.941 . S
C274 O275 1.258 . S
C274 O276 1.263 . S
O275 Co272 1.970 . S
O275 C274 1.258 . S
O276 Co273 1.966 . S
O276 C274 1.263 . S
C277 O278 1.235 . S
C277 O304 1.289 . S
O278 C277 1.235 . S
C279 C281 1.400 . S
C279 N282 1.351 . S
C279 C284 1.501 . S
C280 C281 1.387 . S
C280 N283 1.341 . S
C281 C279 1.400 . S
C281 C280 1.387 . S
N282 Co273 2.022 . S
N282 C279 1.351 . S
N282 N283 1.365 . S
N283 C280 1.341 . S
N283 N282 1.365 . S
N283 H303 0.862 . S
C284 C279 1.501 . S
C284 H285 0.961 . S
C284 H286 0.961 . S
C284 H287 0.960 . S
H285 C284 0.961 . S
H286 C284 0.961 . S
H287 C284 0.960 . S
C288 N289 1.342 . S
C288 C292 1.401 . S
C288 C293 1.499 . S
N289 Co272 1.989 . S
N289 C288 1.342 . S
N289 N290 1.388 . S
N290 Co273 1.993 . S
N290 N289 1.388 . S
N290 C291 1.346 . S
C291 N290 1.346 . S
C291 C292 1.396 . S
C291 C301 1.510 . S
C292 C288 1.401 . S
C292 C291 1.396 . S
C293 C288 1.499 . S
C293 H294 0.959 . S
C293 H295 0.960 . S
C293 H296 0.961 . S
H294 C293 0.959 . S
H295 C293 0.960 . S
H296 C293 0.961 . S
O297 Co272 1.967 . S
O297 C305 1.258 . S
O298 Co273 1.941 . S
O298 C305 1.266 . S
H299 C301 0.959 . S
H300 C301 0.961 . S
C301 C291 1.510 . S
C301 H299 0.959 . S
C301 H300 0.961 . S
C301 H302 0.960 . S
H302 C301 0.960 . S
H303 N283 0.862 . S
O304 Co272 1.920 . S
O304 C277 1.289 . S
C305 O297 1.258 . S
C305 O298 1.266 . S
Co306 O309 1.970 . S
Co306 N323 1.989 . S
Co306 O331 1.967 . S
Co306 O338 1.920 . S
Co307 O310 1.966 . S
Co307 N316 2.022 . S
Co307 N324 1.993 . S
Co307 O332 1.941 . S
C308 O309 1.258 . S
C308 O310 1.263 . S
O309 Co306 1.970 . S
O309 C308 1.258 . S
O310 Co307 1.966 . S
O310 C308 1.263 . S
C311 O312 1.235 . S
C311 O338 1.289 . S
O312 C311 1.235 . S
C313 C315 1.400 . S
C313 N316 1.351 . S
C313 C318 1.501 . S
C314 C315 1.387 . S
C314 N317 1.341 . S
C315 C313 1.400 . S
C315 C314 1.387 . S
N316 Co307 2.022 . S
N316 C313 1.351 . S
N316 N317 1.365 . S
N317 C314 1.341 . S
N317 N316 1.365 . S
N317 H337 0.862 . S
C318 C313 1.501 . S
C318 H319 0.961 . S
C318 H320 0.961 . S
C318 H321 0.960 . S
H319 C318 0.961 . S
H320 C318 0.961 . S
H321 C318 0.960 . S
C322 N323 1.342 . S
C322 C326 1.401 . S
C322 C327 1.499 . S
N323 Co306 1.989 . S
N323 C322 1.342 . S
N323 N324 1.388 . S
N324 Co307 1.993 . S
N324 N323 1.388 . S
N324 C325 1.346 . S
C325 N324 1.346 . S
C325 C326 1.396 . S
C325 C335 1.510 . S
C326 C322 1.401 . S
C326 C325 1.396 . S
C327 C322 1.499 . S
C327 H328 0.959 . S
C327 H329 0.960 . S
C327 H330 0.961 . S
H328 C327 0.959 . S
H329 C327 0.960 . S
H330 C327 0.961 . S
O331 Co306 1.967 . S
O331 C339 1.258 . S
O332 Co307 1.941 . S
O332 C339 1.266 . S
H333 C335 0.959 . S
H334 C335 0.961 . S
C335 C325 1.510 . S
C335 H333 0.959 . S
C335 H334 0.961 . S
C335 H336 0.960 . S
H336 C335 0.960 . S
H337 N317 0.862 . S
O338 Co306 1.920 . S
O338 C311 1.289 . S
C339 O331 1.258 . S
C339 O332 1.266 . S
Co340 O343 1.970 . S
Co340 N357 1.989 . S
Co340 O365 1.967 . S
Co340 O372 1.920 . S
Co341 O344 1.966 . S
Co341 N350 2.022 . S
Co341 N358 1.993 . S
Co341 O366 1.941 . S
C342 O343 1.258 . S
C342 O344 1.263 . S
O343 Co340 1.970 . S
O343 C342 1.258 . S
O344 Co341 1.966 . S
O344 C342 1.263 . S
C345 O346 1.235 . S
C345 O372 1.289 . S
O346 C345 1.235 . S
C347 C349 1.400 . S
C347 N350 1.351 . S
C347 C352 1.501 . S
C348 C349 1.387 . S
C348 N351 1.341 . S
C349 C347 1.400 . S
C349 C348 1.387 . S
N350 Co341 2.022 . S
N350 C347 1.351 . S
N350 N351 1.365 . S
N351 C348 1.341 . S
N351 N350 1.365 . S
N351 H371 0.862 . S
C352 C347 1.501 . S
C352 H353 0.961 . S
C352 H354 0.961 . S
C352 H355 0.960 . S
H353 C352 0.961 . S
H354 C352 0.961 . S
H355 C352 0.960 . S
C356 N357 1.342 . S
C356 C360 1.401 . S
C356 C361 1.499 . S
N357 Co340 1.989 . S
N357 C356 1.342 . S
N357 N358 1.388 . S
N358 Co341 1.993 . S
N358 N357 1.388 . S
N358 C359 1.346 . S
C359 N358 1.346 . S
C359 C360 1.396 . S
C359 C369 1.510 . S
C360 C356 1.401 . S
C360 C359 1.396 . S
C361 C356 1.499 . S
C361 H362 0.959 . S
C361 H363 0.960 . S
C361 H364 0.961 . S
H362 C361 0.959 . S
H363 C361 0.960 . S
H364 C361 0.961 . S
O365 Co340 1.967 . S
O365 C373 1.258 . S
O366 Co341 1.941 . S
O366 C373 1.266 . S
H367 C369 0.959 . S
H368 C369 0.961 . S
C369 C359 1.510 . S
C369 H367 0.959 . S
C369 H368 0.961 . S
C369 H370 0.960 . S
H370 C369 0.960 . S
H371 N351 0.862 . S
O372 Co340 1.920 . S
O372 C345 1.289 . S
C373 O365 1.258 . S
C373 O366 1.266 . S
Co374 O377 1.970 . S
Co374 N391 1.989 . S
Co374 O399 1.967 . S
Co374 O406 1.920 . S
Co375 O378 1.966 . S
Co375 N384 2.022 . S
Co375 N392 1.993 . S
Co375 O400 1.941 . S
C376 O377 1.258 . S
C376 O378 1.263 . S
O377 Co374 1.970 . S
O377 C376 1.258 . S
O378 Co375 1.966 . S
O378 C376 1.263 . S
C379 O380 1.235 . S
C379 O406 1.289 . S
O380 C379 1.235 . S
C381 C383 1.400 . S
C381 N384 1.351 . S
C381 C386 1.501 . S
C382 C383 1.387 . S
C382 N385 1.341 . S
C383 C381 1.400 . S
C383 C382 1.387 . S
N384 Co375 2.022 . S
N384 C381 1.351 . S
N384 N385 1.365 . S
N385 C382 1.341 . S
N385 N384 1.365 . S
N385 H405 0.862 . S
C386 C381 1.501 . S
C386 H387 0.961 . S
C386 H388 0.961 . S
C386 H389 0.960 . S
H387 C386 0.961 . S
H388 C386 0.961 . S
H389 C386 0.960 . S
C390 N391 1.342 . S
C390 C394 1.401 . S
C390 C395 1.499 . S
N391 Co374 1.989 . S
N391 C390 1.342 . S
N391 N392 1.388 . S
N392 Co375 1.993 . S
N392 N391 1.388 . S
N392 C393 1.346 . S
C393 N392 1.346 . S
C393 C394 1.396 . S
C393 C403 1.510 . S
C394 C390 1.401 . S
C394 C393 1.396 . S
C395 C390 1.499 . S
C395 H396 0.959 . S
C395 H397 0.960 . S
C395 H398 0.961 . S
H396 C395 0.959 . S
H397 C395 0.960 . S
H398 C395 0.961 . S
O399 Co374 1.967 . S
O399 C407 1.258 . S
O400 Co375 1.941 . S
O400 C407 1.266 . S
H401 C403 0.959 . S
H402 C403 0.961 . S
C403 C393 1.510 . S
C403 H401 0.959 . S
C403 H402 0.961 . S
C403 H404 0.960 . S
H404 C403 0.960 . S
H405 N385 0.862 . S
O406 Co374 1.920 . S
O406 C379 1.289 . S
C407 O399 1.258 . S
C407 O400 1.266 . S
Co408 O411 1.970 . S
Co408 N425 1.989 . S
Co408 O433 1.967 . S
Co408 O440 1.920 . S
Co409 O412 1.966 . S
Co409 N418 2.022 . S
Co409 N426 1.993 . S
Co409 O434 1.941 . S
C410 O411 1.258 . S
C410 O412 1.263 . S
O411 Co408 1.970 . S
O411 C410 1.258 . S
O412 Co409 1.966 . S
O412 C410 1.263 . S
C413 O414 1.235 . S
C413 O440 1.289 . S
O414 C413 1.235 . S
C415 C417 1.400 . S
C415 N418 1.351 . S
C415 C420 1.501 . S
C416 C417 1.387 . S
C416 N419 1.341 . S
C417 C415 1.400 . S
C417 C416 1.387 . S
N418 Co409 2.022 . S
N418 C415 1.351 . S
N418 N419 1.365 . S
N419 C416 1.341 . S
N419 N418 1.365 . S
N419 H439 0.862 . S
C420 C415 1.501 . S
C420 H421 0.961 . S
C420 H422 0.961 . S
C420 H423 0.960 . S
H421 C420 0.961 . S
H422 C420 0.961 . S
H423 C420 0.960 . S
C424 N425 1.342 . S
C424 C428 1.401 . S
C424 C429 1.499 . S
N425 Co408 1.989 . S
N425 C424 1.342 . S
N425 N426 1.388 . S
N426 Co409 1.993 . S
N426 N425 1.388 . S
N426 C427 1.346 . S
C427 N426 1.346 . S
C427 C428 1.396 . S
C427 C437 1.510 . S
C428 C424 1.401 . S
C428 C427 1.396 . S
C429 C424 1.499 . S
C429 H430 0.959 . S
C429 H431 0.960 . S
C429 H432 0.961 . S
H430 C429 0.959 . S
H431 C429 0.960 . S
H432 C429 0.961 . S
O433 Co408 1.967 . S
O433 C441 1.258 . S
O434 Co409 1.941 . S
O434 C441 1.266 . S
H435 C437 0.959 . S
H436 C437 0.961 . S
C437 C427 1.510 . S
C437 H435 0.959 . S
C437 H436 0.961 . S
C437 H438 0.960 . S
H438 C437 0.960 . S
H439 N419 0.862 . S
O440 Co408 1.920 . S
O440 C413 1.289 . S
C441 O433 1.258 . S
C441 O434 1.266 . S
Co442 O445 1.970 . S
Co442 N459 1.989 . S
Co442 O467 1.967 . S
Co442 O474 1.920 . S
Co443 O446 1.966 . S
Co443 N452 2.022 . S
Co443 N460 1.993 . S
Co443 O468 1.941 . S
C444 O445 1.258 . S
C444 O446 1.263 . S
O445 Co442 1.970 . S
O445 C444 1.258 . S
O446 Co443 1.966 . S
O446 C444 1.263 . S
C447 O448 1.235 . S
C447 O474 1.289 . S
O448 C447 1.235 . S
C449 C451 1.400 . S
C449 N452 1.351 . S
C449 C454 1.501 . S
C450 C451 1.387 . S
C450 N453 1.341 . S
C451 C449 1.400 . S
C451 C450 1.387 . S
N452 Co443 2.022 . S
N452 C449 1.351 . S
N452 N453 1.365 . S
N453 C450 1.341 . S
N453 N452 1.365 . S
N453 H473 0.862 . S
C454 C449 1.501 . S
C454 H455 0.961 . S
C454 H456 0.961 . S
C454 H457 0.960 . S
H455 C454 0.961 . S
H456 C454 0.961 . S
H457 C454 0.960 . S
C458 N459 1.342 . S
C458 C462 1.401 . S
C458 C463 1.499 . S
N459 Co442 1.989 . S
N459 C458 1.342 . S
N459 N460 1.388 . S
N460 Co443 1.993 . S
N460 N459 1.388 . S
N460 C461 1.346 . S
C461 N460 1.346 . S
C461 C462 1.396 . S
C461 C471 1.510 . S
C462 C458 1.401 . S
C462 C461 1.396 . S
C463 C458 1.499 . S
C463 H464 0.959 . S
C463 H465 0.960 . S
C463 H466 0.961 . S
H464 C463 0.959 . S
H465 C463 0.960 . S
H466 C463 0.961 . S
O467 Co442 1.967 . S
O467 C475 1.258 . S
O468 Co443 1.941 . S
O468 C475 1.266 . S
H469 C471 0.959 . S
H470 C471 0.961 . S
C471 C461 1.510 . S
C471 H469 0.959 . S
C471 H470 0.961 . S
C471 H472 0.960 . S
H472 C471 0.960 . S
H473 N453 0.862 . S
O474 Co442 1.920 . S
O474 C447 1.289 . S
C475 O467 1.258 . S
C475 O468 1.266 . S
Co476 O479 1.970 . S
Co476 N493 1.989 . S
Co476 O501 1.967 . S
Co476 O508 1.920 . S
Co477 O480 1.966 . S
Co477 N486 2.022 . S
Co477 N494 1.993 . S
Co477 O502 1.941 . S
C478 O479 1.258 . S
C478 O480 1.263 . S
O479 Co476 1.970 . S
O479 C478 1.258 . S
O480 Co477 1.966 . S
O480 C478 1.263 . S
C481 O482 1.235 . S
C481 O508 1.289 . S
O482 C481 1.235 . S
C483 C485 1.400 . S
C483 N486 1.351 . S
C483 C488 1.501 . S
C484 C485 1.387 . S
C484 N487 1.341 . S
C485 C483 1.400 . S
C485 C484 1.387 . S
N486 Co477 2.022 . S
N486 C483 1.351 . S
N486 N487 1.365 . S
N487 C484 1.341 . S
N487 N486 1.365 . S
N487 H507 0.862 . S
C488 C483 1.501 . S
C488 H489 0.961 . S
C488 H490 0.961 . S
C488 H491 0.960 . S
H489 C488 0.961 . S
H490 C488 0.961 . S
H491 C488 0.960 . S
C492 N493 1.342 . S
C492 C496 1.401 . S
C492 C497 1.499 . S
N493 Co476 1.989 . S
N493 C492 1.342 . S
N493 N494 1.388 . S
N494 Co477 1.993 . S
N494 N493 1.388 . S
N494 C495 1.346 . S
C495 N494 1.346 . S
C495 C496 1.396 . S
C495 C505 1.510 . S
C496 C492 1.401 . S
C496 C495 1.396 . S
C497 C492 1.499 . S
C497 H498 0.959 . S
C497 H499 0.960 . S
C497 H500 0.961 . S
H498 C497 0.959 . S
H499 C497 0.960 . S
H500 C497 0.961 . S
O501 Co476 1.967 . S
O501 C509 1.258 . S
O502 Co477 1.941 . S
O502 C509 1.266 . S
H503 C505 0.959 . S
H504 C505 0.961 . S
C505 C495 1.510 . S
C505 H503 0.959 . S
C505 H504 0.961 . S
C505 H506 0.960 . S
H506 C505 0.960 . S
H507 N487 0.862 . S
O508 Co476 1.920 . S
O508 C481 1.289 . S
C509 O501 1.258 . S
C509 O502 1.266 . S
Co510 O513 1.970 . S
Co510 N527 1.989 . S
Co510 O535 1.967 . S
Co510 O542 1.920 . S
Co511 O514 1.966 . S
Co511 N520 2.022 . S
Co511 N528 1.993 . S
Co511 O536 1.941 . S
C512 O513 1.258 . S
C512 O514 1.263 . S
O513 Co510 1.970 . S
O513 C512 1.258 . S
O514 Co511 1.966 . S
O514 C512 1.263 . S
C515 O516 1.235 . S
C515 O542 1.289 . S
O516 C515 1.235 . S
C517 C519 1.400 . S
C517 N520 1.351 . S
C517 C522 1.501 . S
C518 C519 1.387 . S
C518 N521 1.341 . S
C519 C517 1.400 . S
C519 C518 1.387 . S
N520 Co511 2.022 . S
N520 C517 1.351 . S
N520 N521 1.365 . S
N521 C518 1.341 . S
N521 N520 1.365 . S
N521 H541 0.862 . S
C522 C517 1.501 . S
C522 H523 0.961 . S
C522 H524 0.961 . S
C522 H525 0.960 . S
H523 C522 0.961 . S
H524 C522 0.961 . S
H525 C522 0.960 . S
C526 N527 1.342 . S
C526 C530 1.401 . S
C526 C531 1.499 . S
N527 Co510 1.989 . S
N527 C526 1.342 . S
N527 N528 1.388 . S
N528 Co511 1.993 . S
N528 N527 1.388 . S
N528 C529 1.346 . S
C529 N528 1.346 . S
C529 C530 1.396 . S
C529 C539 1.510 . S
C530 C526 1.401 . S
C530 C529 1.396 . S
C531 C526 1.499 . S
C531 H532 0.959 . S
C531 H533 0.960 . S
C531 H534 0.961 . S
H532 C531 0.959 . S
H533 C531 0.960 . S
H534 C531 0.961 . S
O535 Co510 1.967 . S
O535 C543 1.258 . S
O536 Co511 1.941 . S
O536 C543 1.266 . S
H537 C539 0.959 . S
H538 C539 0.961 . S
C539 C529 1.510 . S
C539 H537 0.959 . S
C539 H538 0.961 . S
C539 H540 0.960 . S
H540 C539 0.960 . S
H541 N521 0.862 . S
O542 Co510 1.920 . S
O542 C515 1.289 . S
C543 O535 1.258 . S
C543 O536 1.266 . S
H544 C552 0.950 . S
H545 C557 0.950 . S
H546 C554 0.950 . S
H547 C556 0.950 . S
H548 C558 0.950 . S
H549 C560 0.950 . S
H550 C562 0.950 . S
H551 C563 0.950 . S
C552 H544 0.950 . S
C552 C553 1.386 . S
C552 C554 1.391 . S
C553 C552 1.386 . S
C553 C557 1.393 . S
C554 H546 0.950 . S
C554 C552 1.391 . S
C554 C555 1.400 . S
C555 C554 1.400 . S
C555 C556 1.398 . S
C555 C561 1.491 . S
C556 H547 0.950 . S
C556 C555 1.398 . S
C556 C557 1.391 . S
C557 H545 0.950 . S
C557 C553 1.393 . S
C557 C556 1.391 . S
C558 H548 0.950 . S
C558 C559 1.386 . S
C558 C560 1.391 . S
C559 C558 1.386 . S
C559 C563 1.393 . S
C560 H549 0.950 . S
C560 C558 1.391 . S
C560 C561 1.400 . S
C561 C555 1.491 . S
C561 C560 1.400 . S
C561 C562 1.398 . S
C562 H550 0.950 . S
C562 C561 1.398 . S
C562 C563 1.391 . S
C563 H551 0.950 . S
C563 C559 1.393 . S
C563 C562 1.391 . S
H564 C572 0.950 . S
H565 C577 0.950 . S
H566 C574 0.950 . S
H567 C576 0.950 . S
H568 C578 0.950 . S
H569 C580 0.950 . S
H570 C582 0.950 . S
H571 C583 0.950 . S
C572 H564 0.950 . S
C572 C573 1.386 . S
C572 C574 1.391 . S
C573 C572 1.386 . S
C573 C577 1.393 . S
C574 H566 0.950 . S
C574 C572 1.391 . S
C574 C575 1.400 . S
C575 C574 1.400 . S
C575 C576 1.398 . S
C575 C581 1.491 . S
C576 H567 0.950 . S
C576 C575 1.398 . S
C576 C577 1.391 . S
C577 H565 0.950 . S
C577 C573 1.393 . S
C577 C576 1.391 . S
C578 H568 0.950 . S
C578 C579 1.386 . S
C578 C580 1.391 . S
C579 C578 1.386 . S
C579 C583 1.393 . S
C580 H569 0.950 . S
C580 C578 1.391 . S
C580 C581 1.400 . S
C581 C575 1.491 . S
C581 C580 1.400 . S
C581 C582 1.398 . S
C582 H570 0.950 . S
C582 C581 1.398 . S
C582 C583 1.391 . S
C583 H571 0.950 . S
C583 C579 1.393 . S
C583 C582 1.391 . S
H584 C592 0.950 . S
H585 C597 0.950 . S
H586 C594 0.950 . S
H587 C596 0.950 . S
H588 C598 0.950 . S
H589 C600 0.950 . S
H590 C602 0.950 . S
H591 C603 0.950 . S
C592 H584 0.950 . S
C592 C593 1.386 . S
C592 C594 1.391 . S
C593 C592 1.386 . S
C593 C597 1.393 . S
C594 H586 0.950 . S
C594 C592 1.391 . S
C594 C595 1.400 . S
C595 C594 1.400 . S
C595 C596 1.398 . S
C595 C601 1.491 . S
C596 H587 0.950 . S
C596 C595 1.398 . S
C596 C597 1.391 . S
C597 H585 0.950 . S
C597 C593 1.393 . S
C597 C596 1.391 . S
C598 H588 0.950 . S
C598 C599 1.386 . S
C598 C600 1.391 . S
C599 C598 1.386 . S
C599 C603 1.393 . S
C600 H589 0.950 . S
C600 C598 1.391 . S
C600 C601 1.400 . S
C601 C595 1.491 . S
C601 C600 1.400 . S
C601 C602 1.398 . S
C602 H590 0.950 . S
C602 C601 1.398 . S
C602 C603 1.391 . S
C603 H591 0.950 . S
C603 C599 1.393 . S
C603 C602 1.391 . S
H604 C612 0.950 . S
H605 C617 0.950 . S
H606 C614 0.950 . S
H607 C616 0.950 . S
H608 C618 0.950 . S
H609 C620 0.950 . S
H610 C622 0.950 . S
H611 C623 0.950 . S
C612 H604 0.950 . S
C612 C613 1.386 . S
C612 C614 1.391 . S
C613 C612 1.386 . S
C613 C617 1.393 . S
C614 H606 0.950 . S
C614 C612 1.391 . S
C614 C615 1.400 . S
C615 C614 1.400 . S
C615 C616 1.398 . S
C615 C621 1.491 . S
C616 H607 0.950 . S
C616 C615 1.398 . S
C616 C617 1.391 . S
C617 H605 0.950 . S
C617 C613 1.393 . S
C617 C616 1.391 . S
C618 H608 0.950 . S
C618 C619 1.386 . S
C618 C620 1.391 . S
C619 C618 1.386 . S
C619 C623 1.393 . S
C620 H609 0.950 . S
C620 C618 1.391 . S
C620 C621 1.400 . S
C621 C615 1.491 . S
C621 C620 1.400 . S
C621 C622 1.398 . S
C622 H610 0.950 . S
C622 C621 1.398 . S
C622 C623 1.391 . S
C623 H611 0.950 . S
C623 C619 1.393 . S
C623 C622 1.391 . S
H624 C632 0.950 . S
H625 C637 0.950 . S
H626 C634 0.950 . S
H627 C636 0.950 . S
H628 C638 0.950 . S
H629 C640 0.950 . S
H630 C642 0.950 . S
H631 C643 0.950 . S
C632 H624 0.950 . S
C632 C633 1.386 . S
C632 C634 1.391 . S
C633 C632 1.386 . S
C633 C637 1.393 . S
C634 H626 0.950 . S
C634 C632 1.391 . S
C634 C635 1.400 . S
C635 C634 1.400 . S
C635 C636 1.398 . S
C635 C641 1.491 . S
C636 H627 0.950 . S
C636 C635 1.398 . S
C636 C637 1.391 . S
C637 H625 0.950 . S
C637 C633 1.393 . S
C637 C636 1.391 . S
C638 H628 0.950 . S
C638 C639 1.386 . S
C638 C640 1.391 . S
C639 C638 1.386 . S
C639 C643 1.393 . S
C640 H629 0.950 . S
C640 C638 1.391 . S
C640 C641 1.400 . S
C641 C635 1.491 . S
C641 C640 1.400 . S
C641 C642 1.398 . S
C642 H630 0.950 . S
C642 C641 1.398 . S
C642 C643 1.391 . S
C643 H631 0.950 . S
C643 C639 1.393 . S
C643 C642 1.391 . S
H644 C652 0.950 . S
H645 C657 0.950 . S
H646 C654 0.950 . S
H647 C656 0.950 . S
H648 C658 0.950 . S
H649 C660 0.950 . S
H650 C662 0.950 . S
H651 C663 0.950 . S
C652 H644 0.950 . S
C652 C653 1.386 . S
C652 C654 1.391 . S
C653 C652 1.386 . S
C653 C657 1.393 . S
C654 H646 0.950 . S
C654 C652 1.391 . S
C654 C655 1.400 . S
C655 C654 1.400 . S
C655 C656 1.398 . S
C655 C661 1.491 . S
C656 H647 0.950 . S
C656 C655 1.398 . S
C656 C657 1.391 . S
C657 H645 0.950 . S
C657 C653 1.393 . S
C657 C656 1.391 . S
C658 H648 0.950 . S
C658 C659 1.386 . S
C658 C660 1.391 . S
C659 C658 1.386 . S
C659 C663 1.393 . S
C660 H649 0.950 . S
C660 C658 1.391 . S
C660 C661 1.400 . S
C661 C655 1.491 . S
C661 C660 1.400 . S
C661 C662 1.398 . S
C662 H650 0.950 . S
C662 C661 1.398 . S
C662 C663 1.391 . S
C663 H651 0.950 . S
C663 C659 1.393 . S
C663 C662 1.391 . S
H664 C672 0.950 . S
H665 C677 0.950 . S
H666 C674 0.950 . S
H667 C676 0.950 . S
H668 C678 0.950 . S
H669 C680 0.950 . S
H670 C682 0.950 . S
H671 C683 0.950 . S
C672 H664 0.950 . S
C672 C673 1.386 . S
C672 C674 1.391 . S
C673 C672 1.386 . S
C673 C677 1.393 . S
C674 H666 0.950 . S
C674 C672 1.391 . S
C674 C675 1.400 . S
C675 C674 1.400 . S
C675 C676 1.398 . S
C675 C681 1.491 . S
C676 H667 0.950 . S
C676 C675 1.398 . S
C676 C677 1.391 . S
C677 H665 0.950 . S
C677 C673 1.393 . S
C677 C676 1.391 . S
C678 H668 0.950 . S
C678 C679 1.386 . S
C678 C680 1.391 . S
C679 C678 1.386 . S
C679 C683 1.393 . S
C680 H669 0.950 . S
C680 C678 1.391 . S
C680 C681 1.400 . S
C681 C675 1.491 . S
C681 C680 1.400 . S
C681 C682 1.398 . S
C682 H670 0.950 . S
C682 C681 1.398 . S
C682 C683 1.391 . S
C683 H671 0.950 . S
C683 C679 1.393 . S
C683 C682 1.391 . S
H684 C692 0.950 . S
H685 C697 0.950 . S
H686 C694 0.950 . S
H687 C696 0.950 . S
H688 C698 0.950 . S
H689 C700 0.950 . S
H690 C702 0.950 . S
H691 C703 0.950 . S
C692 H684 0.950 . S
C692 C693 1.386 . S
C692 C694 1.391 . S
C693 C692 1.386 . S
C693 C697 1.393 . S
C694 H686 0.950 . S
C694 C692 1.391 . S
C694 C695 1.400 . S
C695 C694 1.400 . S
C695 C696 1.398 . S
C695 C701 1.491 . S
C696 H687 0.950 . S
C696 C695 1.398 . S
C696 C697 1.391 . S
C697 H685 0.950 . S
C697 C693 1.393 . S
C697 C696 1.391 . S
C698 H688 0.950 . S
C698 C699 1.386 . S
C698 C700 1.391 . S
C699 C698 1.386 . S
C699 C703 1.393 . S
C700 H689 0.950 . S
C700 C698 1.391 . S
C700 C701 1.400 . S
C701 C695 1.491 . S
C701 C700 1.400 . S
C701 C702 1.398 . S
C702 H690 0.950 . S
C702 C701 1.398 . S
C702 C703 1.391 . S
C703 H691 0.950 . S
C703 C699 1.393 . S
C703 C702 1.391 . S
H704 C712 0.950 . S
H705 C717 0.950 . S
H706 C714 0.950 . S
H707 C716 0.950 . S
H708 C718 0.950 . S
H709 C720 0.950 . S
H710 C722 0.950 . S
H711 C723 0.950 . S
C712 H704 0.950 . S
C712 C713 1.386 . S
C712 C714 1.391 . S
C713 C712 1.386 . S
C713 C717 1.393 . S
C714 H706 0.950 . S
C714 C712 1.391 . S
C714 C715 1.400 . S
C715 C714 1.400 . S
C715 C716 1.398 . S
C715 C721 1.491 . S
C716 H707 0.950 . S
C716 C715 1.398 . S
C716 C717 1.391 . S
C717 H705 0.950 . S
C717 C713 1.393 . S
C717 C716 1.391 . S
C718 H708 0.950 . S
C718 C719 1.386 . S
C718 C720 1.391 . S
C719 C718 1.386 . S
C719 C723 1.393 . S
C720 H709 0.950 . S
C720 C718 1.391 . S
C720 C721 1.400 . S
C721 C715 1.491 . S
C721 C720 1.400 . S
C721 C722 1.398 . S
C722 H710 0.950 . S
C722 C721 1.398 . S
C722 C723 1.391 . S
C723 H711 0.950 . S
C723 C719 1.393 . S
C723 C722 1.391 . S
H724 C732 0.950 . S
H725 C737 0.950 . S
H726 C734 0.950 . S
H727 C736 0.950 . S
H728 C738 0.950 . S
H729 C740 0.950 . S
H730 C742 0.950 . S
H731 C743 0.950 . S
C732 H724 0.950 . S
C732 C733 1.386 . S
C732 C734 1.391 . S
C733 C732 1.386 . S
C733 C737 1.393 . S
C734 H726 0.950 . S
C734 C732 1.391 . S
C734 C735 1.400 . S
C735 C734 1.400 . S
C735 C736 1.398 . S
C735 C741 1.491 . S
C736 H727 0.950 . S
C736 C735 1.398 . S
C736 C737 1.391 . S
C737 H725 0.950 . S
C737 C733 1.393 . S
C737 C736 1.391 . S
C738 H728 0.950 . S
C738 C739 1.386 . S
C738 C740 1.391 . S
C739 C738 1.386 . S
C739 C743 1.393 . S
C740 H729 0.950 . S
C740 C738 1.391 . S
C740 C741 1.400 . S
C741 C735 1.491 . S
C741 C740 1.400 . S
C741 C742 1.398 . S
C742 H730 0.950 . S
C742 C741 1.398 . S
C742 C743 1.391 . S
C743 H731 0.950 . S
C743 C739 1.393 . S
C743 C742 1.391 . S
H744 C752 0.950 . S
H745 C757 0.950 . S
H746 C754 0.950 . S
H747 C756 0.950 . S
H748 C758 0.950 . S
H749 C760 0.950 . S
H750 C762 0.950 . S
H751 C763 0.950 . S
C752 H744 0.950 . S
C752 C753 1.386 . S
C752 C754 1.391 . S
C753 C752 1.386 . S
C753 C757 1.393 . S
C754 H746 0.950 . S
C754 C752 1.391 . S
C754 C755 1.400 . S
C755 C754 1.400 . S
C755 C756 1.398 . S
C755 C761 1.491 . S
C756 H747 0.950 . S
C756 C755 1.398 . S
C756 C757 1.391 . S
C757 H745 0.950 . S
C757 C753 1.393 . S
C757 C756 1.391 . S
C758 H748 0.950 . S
C758 C759 1.386 . S
C758 C760 1.391 . S
C759 C758 1.386 . S
C759 C763 1.393 . S
C760 H749 0.950 . S
C760 C758 1.391 . S
C760 C761 1.400 . S
C761 C755 1.491 . S
C761 C760 1.400 . S
C761 C762 1.398 . S
C762 H750 0.950 . S
C762 C761 1.398 . S
C762 C763 1.391 . S
C763 H751 0.950 . S
C763 C759 1.393 . S
C763 C762 1.391 . S
H764 C772 0.950 . S
H765 C777 0.950 . S
H766 C774 0.950 . S
H767 C776 0.950 . S
H768 C778 0.950 . S
H769 C780 0.950 . S
H770 C782 0.950 . S
H771 C783 0.950 . S
C772 H764 0.950 . S
C772 C773 1.386 . S
C772 C774 1.391 . S
C773 C772 1.386 . S
C773 C777 1.393 . S
C774 H766 0.950 . S
C774 C772 1.391 . S
C774 C775 1.400 . S
C775 C774 1.400 . S
C775 C776 1.398 . S
C775 C781 1.491 . S
C776 H767 0.950 . S
C776 C775 1.398 . S
C776 C777 1.391 . S
C777 H765 0.950 . S
C777 C773 1.393 . S
C777 C776 1.391 . S
C778 H768 0.950 . S
C778 C779 1.386 . S
C778 C780 1.391 . S
C779 C778 1.386 . S
C779 C783 1.393 . S
C780 H769 0.950 . S
C780 C778 1.391 . S
C780 C781 1.400 . S
C781 C775 1.491 . S
C781 C780 1.400 . S
C781 C782 1.398 . S
C782 H770 0.950 . S
C782 C781 1.398 . S
C782 C783 1.391 . S
C783 H771 0.950 . S
C783 C779 1.393 . S
C783 C782 1.391 . S
H784 C792 0.950 . S
H785 C797 0.950 . S
H786 C794 0.950 . S
H787 C796 0.950 . S
H788 C798 0.950 . S
H789 C800 0.950 . S
H790 C802 0.950 . S
H791 C803 0.950 . S
C792 H784 0.950 . S
C792 C793 1.386 . S
C792 C794 1.391 . S
C793 C792 1.386 . S
C793 C797 1.393 . S
C794 H786 0.950 . S
C794 C792 1.391 . S
C794 C795 1.400 . S
C795 C794 1.400 . S
C795 C796 1.398 . S
C795 C801 1.491 . S
C796 H787 0.950 . S
C796 C795 1.398 . S
C796 C797 1.391 . S
C797 H785 0.950 . S
C797 C793 1.393 . S
C797 C796 1.391 . S
C798 H788 0.950 . S
C798 C799 1.386 . S
C798 C800 1.391 . S
C799 C798 1.386 . S
C799 C803 1.393 . S
C800 H789 0.950 . S
C800 C798 1.391 . S
C800 C801 1.400 . S
C801 C795 1.491 . S
C801 C800 1.400 . S
C801 C802 1.398 . S
C802 H790 0.950 . S
C802 C801 1.398 . S
C802 C803 1.391 . S
C803 H791 0.950 . S
C803 C799 1.393 . S
C803 C802 1.391 . S
H804 C812 0.950 . S
H805 C817 0.950 . S
H806 C814 0.950 . S
H807 C816 0.950 . S
H808 C818 0.950 . S
H809 C820 0.950 . S
H810 C822 0.950 . S
H811 C823 0.950 . S
C812 H804 0.950 . S
C812 C813 1.386 . S
C812 C814 1.391 . S
C813 C812 1.386 . S
C813 C817 1.393 . S
C814 H806 0.950 . S
C814 C812 1.391 . S
C814 C815 1.400 . S
C815 C814 1.400 . S
C815 C816 1.398 . S
C815 C821 1.491 . S
C816 H807 0.950 . S
C816 C815 1.398 . S
C816 C817 1.391 . S
C817 H805 0.950 . S
C817 C813 1.393 . S
C817 C816 1.391 . S
C818 H808 0.950 . S
C818 C819 1.386 . S
C818 C820 1.391 . S
C819 C818 1.386 . S
C819 C823 1.393 . S
C820 H809 0.950 . S
C820 C818 1.391 . S
C820 C821 1.400 . S
C821 C815 1.491 . S
C821 C820 1.400 . S
C821 C822 1.398 . S
C822 H810 0.950 . S
C822 C821 1.398 . S
C822 C823 1.391 . S
C823 H811 0.950 . S
C823 C819 1.393 . S
C823 C822 1.391 . S
H824 C832 0.950 . S
H825 C837 0.950 . S
H826 C834 0.950 . S
H827 C836 0.950 . S
H828 C838 0.950 . S
H829 C840 0.950 . S
H830 C842 0.950 . S
H831 C843 0.950 . S
C832 H824 0.950 . S
C832 C833 1.386 . S
C832 C834 1.391 . S
C833 C832 1.386 . S
C833 C837 1.393 . S
C834 H826 0.950 . S
C834 C832 1.391 . S
C834 C835 1.400 . S
C835 C834 1.400 . S
C835 C836 1.398 . S
C835 C841 1.491 . S
C836 H827 0.950 . S
C836 C835 1.398 . S
C836 C837 1.391 . S
C837 H825 0.950 . S
C837 C833 1.393 . S
C837 C836 1.391 . S
C838 H828 0.950 . S
C838 C839 1.386 . S
C838 C840 1.391 . S
C839 C838 1.386 . S
C839 C843 1.393 . S
C840 H829 0.950 . S
C840 C838 1.391 . S
C840 C841 1.400 . S
C841 C835 1.491 . S
C841 C840 1.400 . S
C841 C842 1.398 . S
C842 H830 0.950 . S
C842 C841 1.398 . S
C842 C843 1.391 . S
C843 H831 0.950 . S
C843 C839 1.393 . S
C843 C842 1.391 . S
H844 C852 0.950 . S
H845 C857 0.950 . S
H846 C854 0.950 . S
H847 C856 0.950 . S
H848 C858 0.950 . S
H849 C860 0.950 . S
H850 C862 0.950 . S
H851 C863 0.950 . S
C852 H844 0.950 . S
C852 C853 1.386 . S
C852 C854 1.391 . S
C853 C852 1.386 . S
C853 C857 1.393 . S
C854 H846 0.950 . S
C854 C852 1.391 . S
C854 C855 1.400 . S
C855 C854 1.400 . S
C855 C856 1.398 . S
C855 C861 1.491 . S
C856 H847 0.950 . S
C856 C855 1.398 . S
C856 C857 1.391 . S
C857 H845 0.950 . S
C857 C853 1.393 . S
C857 C856 1.391 . S
C858 H848 0.950 . S
C858 C859 1.386 . S
C858 C860 1.391 . S
C859 C858 1.386 . S
C859 C863 1.393 . S
C860 H849 0.950 . S
C860 C858 1.391 . S
C860 C861 1.400 . S
C861 C855 1.491 . S
C861 C860 1.400 . S
C861 C862 1.398 . S
C862 H850 0.950 . S
C862 C861 1.398 . S
C862 C863 1.391 . S
C863 H851 0.950 . S
C863 C859 1.393 . S
C863 C862 1.391 . S
H864 C872 0.950 . S
H865 C877 0.950 . S
H866 C874 0.950 . S
H867 C876 0.950 . S
H868 C878 0.950 . S
H869 C880 0.950 . S
H870 C882 0.950 . S
H871 C883 0.950 . S
C872 H864 0.950 . S
C872 C873 1.386 . S
C872 C874 1.391 . S
C873 C872 1.386 . S
C873 C877 1.393 . S
C874 H866 0.950 . S
C874 C872 1.391 . S
C874 C875 1.400 . S
C875 C874 1.400 . S
C875 C876 1.398 . S
C875 C881 1.491 . S
C876 H867 0.950 . S
C876 C875 1.398 . S
C876 C877 1.391 . S
C877 H865 0.950 . S
C877 C873 1.393 . S
C877 C876 1.391 . S
C878 H868 0.950 . S
C878 C879 1.386 . S
C878 C880 1.391 . S
C879 C878 1.386 . S
C879 C883 1.393 . S
C880 H869 0.950 . S
C880 C878 1.391 . S
C880 C881 1.400 . S
C881 C875 1.491 . S
C881 C880 1.400 . S
C881 C882 1.398 . S
C882 H870 0.950 . S
C882 C881 1.398 . S
C882 C883 1.391 . S
C883 H871 0.950 . S
C883 C879 1.393 . S
C883 C882 1.391 . S
H884 C892 0.950 1_554 S
H885 C897 0.950 . S
H886 C894 0.950 . S
H887 C896 0.950 . S
H888 C898 0.950 . S
H889 C900 0.950 . S
H890 C902 0.950 . S
H891 C903 0.950 . S
C892 H884 0.950 1_556 S
C892 C893 1.386 . S
C892 C894 1.391 . S
C893 C892 1.386 . S
C893 C897 1.393 . S
C894 H886 0.950 . S
C894 C892 1.391 . S
C894 C895 1.400 . S
C895 C894 1.400 . S
C895 C896 1.398 . S
C895 C901 1.491 . S
C896 H887 0.950 . S
C896 C895 1.398 . S
C896 C897 1.391 . S
C897 H885 0.950 . S
C897 C893 1.393 . S
C897 C896 1.391 . S
C898 H888 0.950 . S
C898 C899 1.386 . S
C898 C900 1.391 . S
C899 C898 1.386 . S
C899 C903 1.393 . S
C900 H889 0.950 . S
C900 C898 1.391 . S
C900 C901 1.400 . S
C901 C895 1.491 . S
C901 C900 1.400 . S
C901 C902 1.398 . S
C902 H890 0.950 . S
C902 C901 1.398 . S
C902 C903 1.391 . S
C903 H891 0.950 . S
C903 C899 1.393 . S
C903 C902 1.391 . S
H904 C912 0.950 . S
H905 C917 0.950 . S
H906 C914 0.950 . S
H907 C916 0.950 . S
H908 C918 0.950 . S
H909 C920 0.950 . S
H910 C922 0.950 . S
H911 C923 0.950 . S
C912 H904 0.950 . S
C912 C913 1.386 . S
C912 C914 1.391 . S
C913 C912 1.386 . S
C913 C917 1.393 . S
C914 H906 0.950 . S
C914 C912 1.391 . S
C914 C915 1.400 . S
C915 C914 1.400 . S
C915 C916 1.398 . S
C915 C921 1.491 . S
C916 H907 0.950 . S
C916 C915 1.398 . S
C916 C917 1.391 . S
C917 H905 0.950 . S
C917 C913 1.393 . S
C917 C916 1.391 . S
C918 H908 0.950 . S
C918 C919 1.386 . S
C918 C920 1.391 . S
C919 C918 1.386 . S
C919 C923 1.393 . S
C920 H909 0.950 . S
C920 C918 1.391 . S
C920 C921 1.400 . S
C921 C915 1.491 . S
C921 C920 1.400 . S
C921 C922 1.398 . S
C922 H910 0.950 . S
C922 C921 1.398 . S
C922 C923 1.391 . S
C923 H911 0.950 . S
C923 C919 1.393 . S
C923 C922 1.391 . S
H924 C932 0.950 . S
H925 C937 0.950 . S
H926 C934 0.950 . S
H927 C936 0.950 . S
H928 C938 0.950 . S
H929 C940 0.950 . S
H930 C942 0.950 . S
H931 C943 0.950 . S
C932 H924 0.950 . S
C932 C933 1.386 . S
C932 C934 1.391 . S
C933 C932 1.386 . S
C933 C937 1.393 . S
C934 H926 0.950 . S
C934 C932 1.391 . S
C934 C935 1.400 . S
C935 C934 1.400 . S
C935 C936 1.398 . S
C935 C941 1.491 . S
C936 H927 0.950 . S
C936 C935 1.398 . S
C936 C937 1.391 . S
C937 H925 0.950 . S
C937 C933 1.393 . S
C937 C936 1.391 . S
C938 H928 0.950 . S
C938 C939 1.386 . S
C938 C940 1.391 . S
C939 C938 1.386 . S
C939 C943 1.393 . S
C940 H929 0.950 . S
C940 C938 1.391 . S
C940 C941 1.400 . S
C941 C935 1.491 . S
C941 C940 1.400 . S
C941 C942 1.398 . S
C942 H930 0.950 . S
C942 C941 1.398 . S
C942 C943 1.391 . S
C943 H931 0.950 . S
C943 C939 1.393 . S
C943 C942 1.391 . S
H944 C952 0.950 . S
H945 C957 0.950 . S
H946 C954 0.950 . S
H947 C956 0.950 . S
H948 C958 0.950 . S
H949 C960 0.950 . S
H950 C962 0.950 . S
H951 C963 0.950 . S
C952 H944 0.950 . S
C952 C953 1.386 . S
C952 C954 1.391 . S
C953 C952 1.386 . S
C953 C957 1.393 . S
C954 H946 0.950 . S
C954 C952 1.391 . S
C954 C955 1.400 . S
C955 C954 1.400 . S
C955 C956 1.398 . S
C955 C961 1.491 . S
C956 H947 0.950 . S
C956 C955 1.398 . S
C956 C957 1.391 . S
C957 H945 0.950 . S
C957 C953 1.393 . S
C957 C956 1.391 . S
C958 H948 0.950 . S
C958 C959 1.386 . S
C958 C960 1.391 . S
C959 C958 1.386 . S
C959 C963 1.393 . S
C960 H949 0.950 . S
C960 C958 1.391 . S
C960 C961 1.400 . S
C961 C955 1.491 . S
C961 C960 1.400 . S
C961 C962 1.398 . S
C962 H950 0.950 . S
C962 C961 1.398 . S
C962 C963 1.391 . S
C963 H951 0.950 . S
C963 C959 1.393 . S
C963 C962 1.391 . S
H964 C972 0.950 . S
H965 C977 0.950 . S
H966 C974 0.950 . S
H967 C976 0.950 . S
H968 C978 0.950 . S
H969 C980 0.950 . S
H970 C982 0.950 . S
H971 C983 0.950 . S
C972 H964 0.950 . S
C972 C973 1.386 . S
C972 C974 1.391 . S
C973 C972 1.386 . S
C973 C977 1.393 . S
C974 H966 0.950 . S
C974 C972 1.391 . S
C974 C975 1.400 . S
C975 C974 1.400 . S
C975 C976 1.398 . S
C975 C981 1.491 . S
C976 H967 0.950 . S
C976 C975 1.398 . S
C976 C977 1.391 . S
C977 H965 0.950 . S
C977 C973 1.393 . S
C977 C976 1.391 . S
C978 H968 0.950 . S
C978 C979 1.386 . S
C978 C980 1.391 . S
C979 C978 1.386 . S
C979 C983 1.393 . S
C980 H969 0.950 . S
C980 C978 1.391 . S
C980 C981 1.400 . S
C981 C975 1.491 . S
C981 C980 1.400 . S
C981 C982 1.398 . S
C982 H970 0.950 . S
C982 C981 1.398 . S
C982 C983 1.391 . S
C983 H971 0.950 . S
C983 C979 1.393 . S
C983 C982 1.391 . S
H984 C992 0.950 1_556 S
H985 C997 0.950 . S
H986 C994 0.950 . S
H987 C996 0.950 . S
H988 C998 0.950 . S
H989 C1000 0.950 . S
H990 C1002 0.950 . S
H991 C1003 0.950 . S
C992 H984 0.950 1_554 S
C992 C993 1.386 . S
C992 C994 1.391 . S
C993 C992 1.386 . S
C993 C997 1.393 . S
C994 H986 0.950 . S
C994 C992 1.391 . S
C994 C995 1.400 . S
C995 C994 1.400 . S
C995 C996 1.398 . S
C995 C1001 1.491 . S
C996 H987 0.950 . S
C996 C995 1.398 . S
C996 C997 1.391 . S
C997 H985 0.950 . S
C997 C993 1.393 . S
C997 C996 1.391 . S
C998 H988 0.950 . S
C998 C999 1.386 . S
C998 C1000 1.391 . S
C999 C998 1.386 . S
C999 C1003 1.393 . S
C1000 H989 0.950 . S
C1000 C998 1.391 . S
C1000 C1001 1.400 . S
C1001 C995 1.491 . S
C1001 C1000 1.400 . S
C1001 C1002 1.398 . S
C1002 H990 0.950 . S
C1002 C1001 1.398 . S
C1002 C1003 1.391 . S
C1003 H991 0.950 . S
C1003 C999 1.393 . S
C1003 C1002 1.391 . S
H1004 C1012 0.950 . S
H1005 C1017 0.950 . S
H1006 C1014 0.950 . S
H1007 C1016 0.950 . S
H1008 C1018 0.950 1_554 S
H1009 C1020 0.950 . S
H1010 C1022 0.950 . S
H1011 C1023 0.950 . S
C1012 H1004 0.950 . S
C1012 C1013 1.386 . S
C1012 C1014 1.391 . S
C1013 C1012 1.386 . S
C1013 C1017 1.393 . S
C1014 H1006 0.950 . S
C1014 C1012 1.391 . S
C1014 C1015 1.400 . S
C1015 C1014 1.400 . S
C1015 C1016 1.398 . S
C1015 C1021 1.491 . S
C1016 H1007 0.950 . S
C1016 C1015 1.398 . S
C1016 C1017 1.391 . S
C1017 H1005 0.950 . S
C1017 C1013 1.393 . S
C1017 C1016 1.391 . S
C1018 H1008 0.950 1_556 S
C1018 C1019 1.386 . S
C1018 C1020 1.391 . S
C1019 C1018 1.386 . S
C1019 C1023 1.393 . S
C1020 H1009 0.950 . S
C1020 C1018 1.391 . S
C1020 C1021 1.400 . S
C1021 C1015 1.491 . S
C1021 C1020 1.400 . S
C1021 C1022 1.398 . S
C1022 H1010 0.950 . S
C1022 C1021 1.398 . S
C1022 C1023 1.391 . S
C1023 H1011 0.950 . S
C1023 C1019 1.393 . S
C1023 C1022 1.391 . S
H1024 C1032 0.950 . S
H1025 C1037 0.950 . S
H1026 C1034 0.950 . S
H1027 C1036 0.950 . S
H1028 C1038 0.950 . S
H1029 C1040 0.950 . S
H1030 C1042 0.950 . S
H1031 C1043 0.950 . S
C1032 H1024 0.950 . S
C1032 C1033 1.386 . S
C1032 C1034 1.391 . S
C1033 C1032 1.386 . S
C1033 C1037 1.393 . S
C1034 H1026 0.950 . S
C1034 C1032 1.391 . S
C1034 C1035 1.400 . S
C1035 C1034 1.400 . S
C1035 C1036 1.398 . S
C1035 C1041 1.491 . S
C1036 H1027 0.950 . S
C1036 C1035 1.398 . S
C1036 C1037 1.391 . S
C1037 H1025 0.950 . S
C1037 C1033 1.393 . S
C1037 C1036 1.391 . S
C1038 H1028 0.950 . S
C1038 C1039 1.386 . S
C1038 C1040 1.391 . S
C1039 C1038 1.386 . S
C1039 C1043 1.393 . S
C1040 H1029 0.950 . S
C1040 C1038 1.391 . S
C1040 C1041 1.400 . S
C1041 C1035 1.491 . S
C1041 C1040 1.400 . S
C1041 C1042 1.398 . S
C1042 H1030 0.950 . S
C1042 C1041 1.398 . S
C1042 C1043 1.391 . S
C1043 H1031 0.950 . S
C1043 C1039 1.393 . S
C1043 C1042 1.391 . S
H1044 C1052 0.950 . S
H1045 C1057 0.950 1_545 S
H1046 C1054 0.950 1_455 S
H1047 C1056 0.950 . S
H1048 C1058 0.950 . S
H1049 C1060 0.950 1_655 S
H1050 C1062 0.950 . S
H1051 C1063 0.950 1_565 S
C1052 H1044 0.950 . S
C1052 C1053 1.386 . S
C1052 C1054 1.391 . S
C1053 C1052 1.386 . S
C1053 C1057 1.393 . S
C1054 H1046 0.950 1_655 S
C1054 C1052 1.391 . S
C1054 C1055 1.400 . S
C1055 C1054 1.400 . S
C1055 C1056 1.398 1_565 S
C1055 C1061 1.491 1_665 S
C1056 H1047 0.950 . S
C1056 C1055 1.398 1_545 S
C1056 C1057 1.391 1_545 S
C1057 H1045 0.950 1_565 S
C1057 C1053 1.393 . S
C1057 C1056 1.391 1_565 S
C1058 H1048 0.950 . S
C1058 C1059 1.386 . S
C1058 C1060 1.391 . S
C1059 C1058 1.386 . S
C1059 C1063 1.393 . S
C1060 H1049 0.950 1_455 S
C1060 C1058 1.391 . S
C1060 C1061 1.400 . S
C1061 C1055 1.491 1_445 S
C1061 C1060 1.400 . S
C1061 C1062 1.398 1_545 S
C1062 H1050 0.950 . S
C1062 C1061 1.398 1_565 S
C1062 C1063 1.391 1_565 S
C1063 H1051 0.950 1_545 S
C1063 C1059 1.393 . S
C1063 C1062 1.391 1_545 S
H1064 C1072 0.950 . S
H1065 C1077 0.950 1_545 S
H1066 C1074 0.950 . S
H1067 C1076 0.950 . S
H1068 C1078 0.950 . S
H1069 C1080 0.950 . S
H1070 C1082 0.950 . S
H1071 C1083 0.950 1_565 S
C1072 H1064 0.950 . S
C1072 C1073 1.386 . S
C1072 C1074 1.391 . S
C1073 C1072 1.386 . S
C1073 C1077 1.393 . S
C1074 H1066 0.950 . S
C1074 C1072 1.391 . S
C1074 C1075 1.400 . S
C1075 C1074 1.400 . S
C1075 C1076 1.398 1_565 S
C1075 C1081 1.491 1_565 S
C1076 H1067 0.950 . S
C1076 C1075 1.398 1_545 S
C1076 C1077 1.391 1_545 S
C1077 H1065 0.950 1_565 S
C1077 C1073 1.393 . S
C1077 C1076 1.391 1_565 S
C1078 H1068 0.950 . S
C1078 C1079 1.386 . S
C1078 C1080 1.391 . S
C1079 C1078 1.386 . S
C1079 C1083 1.393 . S
C1080 H1069 0.950 . S
C1080 C1078 1.391 . S
C1080 C1081 1.400 . S
C1081 C1075 1.491 1_545 S
C1081 C1080 1.400 . S
C1081 C1082 1.398 1_545 S
C1082 H1070 0.950 . S
C1082 C1081 1.398 1_565 S
C1082 C1083 1.391 1_565 S
C1083 H1071 0.950 1_545 S
C1083 C1079 1.393 . S
C1083 C1082 1.391 1_545 S
H1084 C1092 0.950 . S
H1085 C1097 0.950 . S
H1086 C1094 0.950 . S
H1087 C1096 0.950 1_455 S
H1088 C1098 0.950 . S
H1089 C1100 0.950 . S
H1090 C1102 0.950 1_655 S
H1091 C1103 0.950 . S
C1092 H1084 0.950 . S
C1092 C1093 1.386 . S
C1092 C1094 1.391 . S
C1093 C1092 1.386 . S
C1093 C1097 1.393 . S
C1094 H1086 0.950 . S
C1094 C1092 1.391 . S
C1094 C1095 1.400 . S
C1095 C1094 1.400 . S
C1095 C1096 1.398 . S
C1095 C1101 1.491 1_655 S
C1096 H1087 0.950 1_655 S
C1096 C1095 1.398 . S
C1096 C1097 1.391 . S
C1097 H1085 0.950 . S
C1097 C1093 1.393 . S
C1097 C1096 1.391 . S
C1098 H1088 0.950 . S
C1098 C1099 1.386 . S
C1098 C1100 1.391 . S
C1099 C1098 1.386 . S
C1099 C1103 1.393 . S
C1100 H1089 0.950 . S
C1100 C1098 1.391 . S
C1100 C1101 1.400 . S
C1101 C1095 1.491 1_455 S
C1101 C1100 1.400 . S
C1101 C1102 1.398 . S
C1102 H1090 0.950 1_455 S
C1102 C1101 1.398 . S
C1102 C1103 1.391 . S
C1103 H1091 0.950 . S
C1103 C1099 1.393 . S
C1103 C1102 1.391 . S
H1104 C1112 0.950 . S
H1105 C1117 0.950 . S
H1106 C1114 0.950 . S
H1107 C1116 0.950 . S
H1108 C1118 0.950 . S
H1109 C1120 0.950 . S
H1110 C1122 0.950 . S
H1111 C1123 0.950 . S
C1112 H1104 0.950 . S
C1112 C1113 1.386 . S
C1112 C1114 1.391 . S
C1113 C1112 1.386 . S
C1113 C1117 1.393 . S
C1114 H1106 0.950 . S
C1114 C1112 1.391 . S
C1114 C1115 1.400 . S
C1115 C1114 1.400 . S
C1115 C1116 1.398 . S
C1115 C1121 1.491 . S
C1116 H1107 0.950 . S
C1116 C1115 1.398 . S
C1116 C1117 1.391 . S
C1117 H1105 0.950 . S
C1117 C1113 1.393 . S
C1117 C1116 1.391 . S
C1118 H1108 0.950 . S
C1118 C1119 1.386 . S
C1118 C1120 1.391 . S
C1119 C1118 1.386 . S
C1119 C1123 1.393 . S
C1120 H1109 0.950 . S
C1120 C1118 1.391 . S
C1120 C1121 1.400 . S
C1121 C1115 1.491 . S
C1121 C1120 1.400 . S
C1121 C1122 1.398 . S
C1122 H1110 0.950 . S
C1122 C1121 1.398 . S
C1122 C1123 1.391 . S
C1123 H1111 0.950 . S
C1123 C1119 1.393 . S
C1123 C1122 1.391 . S
H1124 C1132 0.950 . S
H1125 C1137 0.950 1_565 S
H1126 C1134 0.950 . S
H1127 C1136 0.950 . S
H1128 C1138 0.950 . S
H1129 C1140 0.950 . S
H1130 C1142 0.950 . S
H1131 C1143 0.950 1_545 S
C1132 H1124 0.950 . S
C1132 C1133 1.386 . S
C1132 C1134 1.391 . S
C1133 C1132 1.386 . S
C1133 C1137 1.393 . S
C1134 H1126 0.950 . S
C1134 C1132 1.391 . S
C1134 C1135 1.400 . S
C1135 C1134 1.400 . S
C1135 C1136 1.398 1_545 S
C1135 C1141 1.491 1_545 S
C1136 H1127 0.950 . S
C1136 C1135 1.398 1_565 S
C1136 C1137 1.391 1_565 S
C1137 H1125 0.950 1_545 S
C1137 C1133 1.393 . S
C1137 C1136 1.391 1_545 S
C1138 H1128 0.950 . S
C1138 C1139 1.386 . S
C1138 C1140 1.391 . S
C1139 C1138 1.386 . S
C1139 C1143 1.393 . S
C1140 H1129 0.950 . S
C1140 C1138 1.391 . S
C1140 C1141 1.400 . S
C1141 C1135 1.491 1_565 S
C1141 C1140 1.400 . S
C1141 C1142 1.398 1_565 S
C1142 H1130 0.950 . S
C1142 C1141 1.398 1_545 S
C1142 C1143 1.391 1_545 S
C1143 H1131 0.950 1_565 S
C1143 C1139 1.393 . S
C1143 C1142 1.391 1_565 S
H1144 C1152 0.950 . S
H1145 C1157 0.950 . S
H1146 C1154 0.950 . S
H1147 C1156 0.950 1_455 S
H1148 C1158 0.950 . S
H1149 C1160 0.950 . S
H1150 C1162 0.950 1_655 S
H1151 C1163 0.950 . S
C1152 H1144 0.950 . S
C1152 C1153 1.386 . S
C1152 C1154 1.391 . S
C1153 C1152 1.386 . S
C1153 C1157 1.393 . S
C1154 H1146 0.950 . S
C1154 C1152 1.391 . S
C1154 C1155 1.400 . S
C1155 C1154 1.400 . S
C1155 C1156 1.398 . S
C1155 C1161 1.491 1_655 S
C1156 H1147 0.950 1_655 S
C1156 C1155 1.398 . S
C1156 C1157 1.391 . S
C1157 H1145 0.950 . S
C1157 C1153 1.393 . S
C1157 C1156 1.391 . S
C1158 H1148 0.950 . S
C1158 C1159 1.386 . S
C1158 C1160 1.391 . S
C1159 C1158 1.386 . S
C1159 C1163 1.393 . S
C1160 H1149 0.950 . S
C1160 C1158 1.391 . S
C1160 C1161 1.400 . S
C1161 C1155 1.491 1_455 S
C1161 C1160 1.400 . S
C1161 C1162 1.398 . S
C1162 H1150 0.950 1_455 S
C1162 C1161 1.398 . S
C1162 C1163 1.391 . S
C1163 H1151 0.950 . S
C1163 C1159 1.393 . S
C1163 C1162 1.391 . S
H1164 C1172 0.950 . S
H1165 C1177 0.950 . S
H1166 C1174 0.947 1_556 S
H1167 C1176 0.950 . S
H1168 C1178 0.950 . S
H1169 C1180 0.947 1_554 S
H1170 C1182 0.950 . S
H1171 C1183 0.950 . S
C1172 H1164 0.950 . S
C1172 C1173 1.386 . S
C1172 C1174 1.391 . S
C1173 C1172 1.386 . S
C1173 C1177 1.393 . S
C1174 H1166 0.947 1_554 S
C1174 C1172 1.391 . S
C1174 C1175 1.400 . S
C1175 C1174 1.400 . S
C1175 C1176 1.398 . S
C1175 C1181 1.491 1_554 S
C1176 H1167 0.950 . S
C1176 C1175 1.398 . S
C1176 C1177 1.391 . S
C1177 H1165 0.950 . S
C1177 C1173 1.393 . S
C1177 C1176 1.391 . S
C1178 H1168 0.950 . S
C1178 C1179 1.386 . S
C1178 C1180 1.391 . S
C1179 C1178 1.386 . S
C1179 C1183 1.393 . S
C1180 H1169 0.947 1_556 S
C1180 C1178 1.391 . S
C1180 C1181 1.400 . S
C1181 C1175 1.491 1_556 S
C1181 C1180 1.400 . S
C1181 C1182 1.398 . S
C1182 H1170 0.950 . S
C1182 C1181 1.398 . S
C1182 C1183 1.391 . S
C1183 H1171 0.950 . S
C1183 C1179 1.393 . S
C1183 C1182 1.391 . S
H1184 C1192 0.950 . S
H1185 C1197 0.950 . S
H1186 C1194 0.950 . S
H1187 C1196 0.950 . S
H1188 C1198 0.950 . S
H1189 C1200 0.950 . S
H1190 C1202 0.950 . S
H1191 C1203 0.950 . S
C1192 H1184 0.950 . S
C1192 C1193 1.386 . S
C1192 C1194 1.391 . S
C1193 C1192 1.386 . S
C1193 C1197 1.393 . S
C1194 H1186 0.950 . S
C1194 C1192 1.391 . S
C1194 C1195 1.400 . S
C1195 C1194 1.400 . S
C1195 C1196 1.398 1_455 S
C1195 C1201 1.491 1_456 S
C1196 H1187 0.950 . S
C1196 C1195 1.398 1_655 S
C1196 C1197 1.391 1_655 S
C1197 H1185 0.950 . S
C1197 C1193 1.393 . S
C1197 C1196 1.391 1_455 S
C1198 H1188 0.950 . S
C1198 C1199 1.386 . S
C1198 C1200 1.391 . S
C1199 C1198 1.386 . S
C1199 C1203 1.393 . S
C1200 H1189 0.950 . S
C1200 C1198 1.391 . S
C1200 C1201 1.400 . S
C1201 C1195 1.491 1_654 S
C1201 C1200 1.400 . S
C1201 C1202 1.398 1_655 S
C1202 H1190 0.950 . S
C1202 C1201 1.398 1_455 S
C1202 C1203 1.391 1_455 S
C1203 H1191 0.950 . S
C1203 C1199 1.393 . S
C1203 C1202 1.391 1_655 S
H1204 C1212 0.950 . S
H1205 C1217 0.950 . S
H1206 C1214 0.950 . S
H1207 C1216 0.950 . S
H1208 C1218 0.950 . S
H1209 C1220 0.950 . S
H1210 C1222 0.950 . S
H1211 C1223 0.950 . S
C1212 H1204 0.950 . S
C1212 C1213 1.386 . S
C1212 C1214 1.391 . S
C1213 C1212 1.386 . S
C1213 C1217 1.393 . S
C1214 H1206 0.950 . S
C1214 C1212 1.391 . S
C1214 C1215 1.400 . S
C1215 C1214 1.400 . S
C1215 C1216 1.398 . S
C1215 C1221 1.491 . S
C1216 H1207 0.950 . S
C1216 C1215 1.398 . S
C1216 C1217 1.391 . S
C1217 H1205 0.950 . S
C1217 C1213 1.393 . S
C1217 C1216 1.391 . S
C1218 H1208 0.950 . S
C1218 C1219 1.386 . S
C1218 C1220 1.391 . S
C1219 C1218 1.386 . S
C1219 C1223 1.393 . S
C1220 H1209 0.950 . S
C1220 C1218 1.391 . S
C1220 C1221 1.400 . S
C1221 C1215 1.491 . S
C1221 C1220 1.400 . S
C1221 C1222 1.398 . S
C1222 H1210 0.950 . S
C1222 C1221 1.398 . S
C1222 C1223 1.391 . S
C1223 H1211 0.950 . S
C1223 C1219 1.393 . S
C1223 C1222 1.391 . S
H1224 C1232 0.950 1_556 S
H1225 C1237 0.950 . S
H1226 C1234 0.950 . S
H1227 C1236 0.950 . S
H1228 C1238 0.950 1_554 S
H1229 C1240 0.950 . S
H1230 C1242 0.950 . S
H1231 C1243 0.950 . S
C1232 H1224 0.950 1_554 S
C1232 C1233 1.386 . S
C1232 C1234 1.391 1_554 S
C1233 C1232 1.386 . S
C1233 C1237 1.393 . S
C1234 H1226 0.950 . S
C1234 C1232 1.391 1_556 S
C1234 C1235 1.400 1_556 S
C1235 C1234 1.400 1_554 S
C1235 C1236 1.398 . S
C1235 C1241 1.491 1_554 S
C1236 H1227 0.950 . S
C1236 C1235 1.398 . S
C1236 C1237 1.391 . S
C1237 H1225 0.950 . S
C1237 C1233 1.393 . S
C1237 C1236 1.391 . S
C1238 H1228 0.950 1_556 S
C1238 C1239 1.386 . S
C1238 C1240 1.391 1_556 S
C1239 C1238 1.386 . S
C1239 C1243 1.393 . S
C1240 H1229 0.950 . S
C1240 C1238 1.391 1_554 S
C1240 C1241 1.400 1_554 S
C1241 C1235 1.491 1_556 S
C1241 C1240 1.400 1_556 S
C1241 C1242 1.398 . S
C1242 H1230 0.950 . S
C1242 C1241 1.398 . S
C1242 C1243 1.391 . S
C1243 H1231 0.950 . S
C1243 C1239 1.393 . S
C1243 C1242 1.391 . S
H1244 C1252 0.950 . S
H1245 C1257 0.950 . S
H1246 C1254 0.950 . S
H1247 C1256 0.950 . S
H1248 C1258 0.950 . S
H1249 C1260 0.950 . S
H1250 C1262 0.950 . S
H1251 C1263 0.950 . S
C1252 H1244 0.950 . S
C1252 C1253 1.386 . S
C1252 C1254 1.391 . S
C1253 C1252 1.386 . S
C1253 C1257 1.393 . S
C1254 H1246 0.950 . S
C1254 C1252 1.391 . S
C1254 C1255 1.400 . S
C1255 C1254 1.400 . S
C1255 C1256 1.398 . S
C1255 C1261 1.491 . S
C1256 H1247 0.950 . S
C1256 C1255 1.398 . S
C1256 C1257 1.391 . S
C1257 H1245 0.950 . S
C1257 C1253 1.393 . S
C1257 C1256 1.391 . S
C1258 H1248 0.950 . S
C1258 C1259 1.386 . S
C1258 C1260 1.391 . S
C1259 C1258 1.386 . S
C1259 C1263 1.393 . S
C1260 H1249 0.950 . S
C1260 C1258 1.391 . S
C1260 C1261 1.400 . S
C1261 C1255 1.491 . S
C1261 C1260 1.400 . S
C1261 C1262 1.398 . S
C1262 H1250 0.950 . S
C1262 C1261 1.398 . S
C1262 C1263 1.391 . S
C1263 H1251 0.950 . S
C1263 C1259 1.393 . S
C1263 C1262 1.391 . S
H1264 C1272 0.950 . S
H1265 C1277 0.950 . S
H1266 C1274 0.979 1_556 S
H1267 C1276 0.950 . S
H1268 C1278 0.950 . S
H1269 C1280 0.979 1_554 S
H1270 C1282 0.950 . S
H1271 C1283 0.950 . S
C1272 H1264 0.950 . S
C1272 C1273 1.386 . S
C1272 C1274 1.391 . S
C1273 C1272 1.386 . S
C1273 C1277 1.393 . S
C1274 H1266 0.979 1_554 S
C1274 C1272 1.391 . S
C1274 C1275 1.400 . S
C1275 C1274 1.400 . S
C1275 C1276 1.398 . S
C1275 C1281 1.491 1_564 S
C1276 H1267 0.950 . S
C1276 C1275 1.398 . S
C1276 C1277 1.391 . S
C1277 H1265 0.950 . S
C1277 C1273 1.393 . S
C1277 C1276 1.391 . S
C1278 H1268 0.950 . S
C1278 C1279 1.386 . S
C1278 C1280 1.391 . S
C1279 C1278 1.386 . S
C1279 C1283 1.393 . S
C1280 H1269 0.979 1_556 S
C1280 C1278 1.391 . S
C1280 C1281 1.400 . S
C1281 C1275 1.491 1_546 S
C1281 C1280 1.400 . S
C1281 C1282 1.398 . S
C1282 H1270 0.950 . S
C1282 C1281 1.398 . S
C1282 C1283 1.391 . S
C1283 H1271 0.950 . S
C1283 C1279 1.393 . S
C1283 C1282 1.391 . S
H1284 C1292 0.950 . S
H1285 C1297 0.950 . S
H1286 C1294 0.950 . S
H1287 C1296 0.950 . S
H1288 C1298 0.950 . S
H1289 C1300 0.950 . S
H1290 C1302 0.950 . S
H1291 C1303 0.950 . S
C1292 H1284 0.950 . S
C1292 C1293 1.386 . S
C1292 C1294 1.391 . S
C1293 C1292 1.386 . S
C1293 C1297 1.393 . S
C1294 H1286 0.950 . S
C1294 C1292 1.391 . S
C1294 C1295 1.400 . S
C1295 C1294 1.400 . S
C1295 C1296 1.398 . S
C1295 C1301 1.491 . S
C1296 H1287 0.950 . S
C1296 C1295 1.398 . S
C1296 C1297 1.391 . S
C1297 H1285 0.950 . S
C1297 C1293 1.393 . S
C1297 C1296 1.391 . S
C1298 H1288 0.950 . S
C1298 C1299 1.386 . S
C1298 C1300 1.391 . S
C1299 C1298 1.386 . S
C1299 C1303 1.393 . S
C1300 H1289 0.950 . S
C1300 C1298 1.391 . S
C1300 C1301 1.400 . S
C1301 C1295 1.491 . S
C1301 C1300 1.400 . S
C1301 C1302 1.398 . S
C1302 H1290 0.950 . S
C1302 C1301 1.398 . S
C1302 C1303 1.391 . S
C1303 H1291 0.950 . S
C1303 C1299 1.393 . S
C1303 C1302 1.391 . S
H1304 C1312 0.950 . S
H1305 C1317 0.950 . S
H1306 C1314 0.950 . S
H1307 C1316 0.950 . S
H1308 C1318 0.950 . S
H1309 C1320 0.950 . S
H1310 C1322 0.950 . S
H1311 C1323 0.950 . S
C1312 H1304 0.950 . S
C1312 C1313 1.386 . S
C1312 C1314 1.391 . S
C1313 C1312 1.386 . S
C1313 C1317 1.393 . S
C1314 H1306 0.950 . S
C1314 C1312 1.391 . S
C1314 C1315 1.400 . S
C1315 C1314 1.400 . S
C1315 C1316 1.398 . S
C1315 C1321 1.491 . S
C1316 H1307 0.950 . S
C1316 C1315 1.398 . S
C1316 C1317 1.391 . S
C1317 H1305 0.950 . S
C1317 C1313 1.393 . S
C1317 C1316 1.391 . S
C1318 H1308 0.950 . S
C1318 C1319 1.386 . S
C1318 C1320 1.391 . S
C1319 C1318 1.386 . S
C1319 C1323 1.393 . S
C1320 H1309 0.950 . S
C1320 C1318 1.391 . S
C1320 C1321 1.400 . S
C1321 C1315 1.491 . S
C1321 C1320 1.400 . S
C1321 C1322 1.398 . S
C1322 H1310 0.950 . S
C1322 C1321 1.398 . S
C1322 C1323 1.391 . S
C1323 H1311 0.950 . S
C1323 C1319 1.393 . S
C1323 C1322 1.391 . S
H1324 C1332 0.950 . S
H1325 C1337 0.950 . S
H1326 C1334 0.950 . S
H1327 C1336 0.950 . S
H1328 C1338 0.950 . S
H1329 C1340 0.950 . S
H1330 C1342 0.950 . S
H1331 C1343 0.950 . S
C1332 H1324 0.950 . S
C1332 C1333 1.386 . S
C1332 C1334 1.391 . S
C1333 C1332 1.386 . S
C1333 C1337 1.393 . S
C1334 H1326 0.950 . S
C1334 C1332 1.391 . S
C1334 C1335 1.400 . S
C1335 C1334 1.400 . S
C1335 C1336 1.398 . S
C1335 C1341 1.491 . S
C1336 H1327 0.950 . S
C1336 C1335 1.398 . S
C1336 C1337 1.391 . S
C1337 H1325 0.950 . S
C1337 C1333 1.393 . S
C1337 C1336 1.391 . S
C1338 H1328 0.950 . S
C1338 C1339 1.386 . S
C1338 C1340 1.391 . S
C1339 C1338 1.386 . S
C1339 C1343 1.393 . S
C1340 H1329 0.950 . S
C1340 C1338 1.391 . S
C1340 C1341 1.400 . S
C1341 C1335 1.491 . S
C1341 C1340 1.400 . S
C1341 C1342 1.398 . S
C1342 H1330 0.950 . S
C1342 C1341 1.398 . S
C1342 C1343 1.391 . S
C1343 H1331 0.950 . S
C1343 C1339 1.393 . S
C1343 C1342 1.391 . S
C553 C5 0.611 . S
C559 C315 0.630 . S
C573 C9 0.662 . S
C579 C311 0.607 . S
C593 C281 0.588 . S
C599 C39 0.577 . S
C613 C43 0.598 . S
C619 C277 0.569 . S
C633 C73 0.591 . S
C639 C383 0.654 . S
C653 C77 0.636 . S
C659 C379 0.579 . S
C673 C107 0.597 . S
C679 C349 0.658 . S
C693 C111 0.650 . S
C699 C345 0.588 . S
C713 C141 0.575 . S
C719 C451 0.627 . S
C733 C447 0.570 . S
C739 C145 0.595 . S
C753 C417 0.661 . S
C759 C175 0.601 . S
C773 C413 0.577 . S
C779 C179 0.633 . S
C793 C519 0.653 . S
C799 C209 0.614 . S
C813 C515 0.578 . S
C819 C213 0.588 . S
C833 C485 0.632 . S
C839 C243 0.577 . S
C853 C247 0.661 . S
C859 C481 0.601 . S
C873 C2 1.634 . S
C879 C36 1.633 1_554 S
C893 C104 1.633 1_556 S
C899 C70 1.631 . S
C913 C172 1.633 . S
C919 C138 1.631 . S
C933 C240 1.633 . S
C939 C206 1.634 . S
C953 C308 1.634 . S
C959 C274 1.633 . S
C973 C342 1.633 . S
C979 C376 1.632 . S
C993 C444 1.631 1_554 S
C999 C410 1.632 . S
C1013 C478 1.632 . S
C1019 C512 1.631 1_556 S
C1033 C509 1.510 . S
C1039 C33 1.510 . S
C1053 C88 1.860 . S
C1059 C20 1.860 . S
C1073 C407 1.506 . S
C1079 C67 1.506 . S
C1093 C258 1.845 . S
C1099 C54 1.845 . S
C1113 C101 1.513 . S
C1119 C441 1.513 . S
C1133 C339 1.491 . S
C1139 C135 1.491 . S
C1153 C122 1.856 . S
C1159 C190 1.856 . S
C1173 C373 1.510 . S
C1179 C169 1.510 . S
C1193 C156 1.856 . S
C1199 C224 1.856 . S
C1213 C203 1.495 . S
C1219 C543 1.495 . S
C1233 C237 1.497 . S
C1239 C305 1.497 . S
C1253 C271 1.488 . S
C1259 C475 1.488 . S
C1273 C360 1.851 . S
C1279 C292 1.851 . S
C1293 C530 1.850 . S
C1299 C326 1.850 . S
C1313 C394 1.854 . S
C1319 C462 1.854 . S
C1333 C428 1.847 . S
C1339 C496 1.847 . S
