# Generated by pormake.
# Topology ske, (6)-cn, num edge types: 1
# Building blocks:
#     Node 0, Type 0, BuildingBlock: GEDQOX_clean_sbu_0, # of connection points: 6
#     Node 1, Type 0, BuildingBlock: GEDQOX_clean_sbu_0, # of connection points: 6
#     Node 2, Type 0, BuildingBlock: GEDQOX_clean_sbu_0, # of connection points: 6
#     Node 3, Type 0, BuildingBlock: GEDQOX_clean_sbu_0, # of connection points: 6
#     Node 4, Type 0, BuildingBlock: GEDQOX_clean_sbu_0, # of connection points: 6
#     Node 5, Type 0, BuildingBlock: GEDQOX_clean_sbu_0, # of connection points: 6
#     Node 6, Type 0, BuildingBlock: GEDQOX_clean_sbu_0, # of connection points: 6
#     Node 7, Type 0, BuildingBlock: GEDQOX_clean_sbu_0, # of connection points: 6
#     Edge 8, Type (0, 0), BuildingBlock: OJICUG_clean_linker_0, # of connection points: 2
#     Edge 9, Type (0, 0), BuildingBlock: OJICUG_clean_linker_0, # of connection points: 2
#     Edge 10, Type (0, 0), BuildingBlock: OJICUG_clean_linker_0, # of connection points: 2
#     Edge 11, Type (0, 0), BuildingBlock: OJICUG_clean_linker_0, # of connection points: 2
#     Edge 12, Type (0, 0), BuildingBlock: OJICUG_clean_linker_0, # of connection points: 2
#     Edge 13, Type (0, 0), BuildingBlock: OJICUG_clean_linker_0, # of connection points: 2
#     Edge 14, Type (0, 0), BuildingBlock: OJICUG_clean_linker_0, # of connection points: 2
#     Edge 15, Type (0, 0), BuildingBlock: OJICUG_clean_linker_0, # of connection points: 2
#     Edge 16, Type (0, 0), BuildingBlock: OJICUG_clean_linker_0, # of connection points: 2
#     Edge 17, Type (0, 0), BuildingBlock: OJICUG_clean_linker_0, # of connection points: 2
#     Edge 18, Type (0, 0), BuildingBlock: OJICUG_clean_linker_0, # of connection points: 2
#     Edge 19, Type (0, 0), BuildingBlock: OJICUG_clean_linker_0, # of connection points: 2
#     Edge 20, Type (0, 0), BuildingBlock: OJICUG_clean_linker_0, # of connection points: 2
#     Edge 21, Type (0, 0), BuildingBlock: OJICUG_clean_linker_0, # of connection points: 2
#     Edge 22, Type (0, 0), BuildingBlock: OJICUG_clean_linker_0, # of connection points: 2
#     Edge 23, Type (0, 0), BuildingBlock: OJICUG_clean_linker_0, # of connection points: 2
#     Edge 24, Type (0, 0), BuildingBlock: OJICUG_clean_linker_0, # of connection points: 2
#     Edge 25, Type (0, 0), BuildingBlock: OJICUG_clean_linker_0, # of connection points: 2
#     Edge 26, Type (0, 0), BuildingBlock: OJICUG_clean_linker_0, # of connection points: 2
#     Edge 27, Type (0, 0), BuildingBlock: OJICUG_clean_linker_0, # of connection points: 2
#     Edge 28, Type (0, 0), BuildingBlock: OJICUG_clean_linker_0, # of connection points: 2
#     Edge 29, Type (0, 0), BuildingBlock: OJICUG_clean_linker_0, # of connection points: 2
#     Edge 30, Type (0, 0), BuildingBlock: OJICUG_clean_linker_0, # of connection points: 2
#     Edge 31, Type (0, 0), BuildingBlock: OJICUG_clean_linker_0, # of connection points: 2
# Relax obj value: 0.225
# Max RMSD: 0.261
# Mean RMSD: 0.261
data_MOF--net-ske--node1-GEDQOX_clean_sbu_0--edge1-OJICUG_clean_linker_0
_symmetry_space_group_name_H-M    P1
_symmetry_Int_Tables_number       1
_symmetry_cell_setting            triclinic
loop_
_symmetry_equiv_pos_as_xyz
'x, y, z'
_cell_length_a     38.131338
_cell_length_b     20.09082
_cell_length_c     20.739085
_cell_angle_alpha  90.015663
_cell_angle_beta   90.006906
_cell_angle_gamma 95.065549
loop_
_atom_site_label
_atom_site_type_symbol
_atom_site_fract_x
_atom_site_fract_y
_atom_site_fract_z
_atom_type_partial_charge
Nd0 Nd 0.16989 0.27178 0.55576 0.0
Nd1 Nd 0.1253 0.24112 0.66637 0.0
C2 C 0.19766 0.31466 0.44407 0.0
C3 C 0.18873 0.30115 0.37585 0.0
C4 C 0.21107 0.32733 0.32663 0.0
C5 C 0.20203 0.31603 0.26174 0.0
C6 C 0.17041 0.27836 0.24491 0.0
C7 C 0.14842 0.25144 0.29476 0.0
C8 C 0.15749 0.2627 0.35947 0.0
C9 C 0.15841 0.13544 0.57364 0.0
C10 C 0.08291 0.2515 0.5403 0.0
C11 C 0.09715 0.20297 0.77886 0.0
C12 C 0.10808 0.21409 0.84653 0.0
C13 C 0.0871 0.18617 0.89678 0.0
C14 C 0.09743 0.19655 0.96111 0.0
C15 C 0.12906 0.23497 0.97644 0.0
C16 C 0.15008 0.26265 0.92563 0.0
C17 C 0.13961 0.2525 0.86138 0.0
C18 C 0.13565 0.37613 0.63544 0.0
C19 C 0.20922 0.26466 0.69257 0.0
O20 O 0.17503 0.34636 0.47666 0.0
O21 O 0.2088 0.2651 0.47663 0.0
O22 O 0.18887 0.16753 0.56385 0.0
O23 O 0.135 0.17613 0.57859 0.0
O24 O 0.11227 0.28661 0.52187 0.0
O25 O 0.08315 0.21367 0.59184 0.0
O26 O 0.11665 0.16599 0.74453 0.0
O27 O 0.0887 0.25559 0.74744 0.0
O28 O 0.10535 0.34608 0.65083 0.0
O29 O 0.15894 0.33576 0.63886 0.0
O30 O 0.18016 0.22797 0.70743 0.0
O31 O 0.21117 0.29714 0.63687 0.0
H32 H 0.23533 0.35705 0.33834 0.0
H33 H 0.21948 0.33801 0.22481 0.0
H34 H 0.12422 0.2212 0.28381 0.0
H35 H 0.14001 0.24163 0.39684 0.0
H36 H 0.06272 0.15625 0.88629 0.0
H37 H 0.08081 0.17376 0.99884 0.0
H38 H 0.17434 0.29313 0.93549 0.0
H39 H 0.15608 0.27491 0.82325 0.0
Nd40 Nd 0.85625 0.29622 0.5571 0.0
Nd41 Nd 0.90141 0.32633 0.66776 0.0
C42 C 0.8284 0.25441 0.44526 0.0
C43 C 0.83814 0.26331 0.37637 0.0
C44 C 0.87144 0.2491 0.3537 0.0
C45 C 0.88054 0.25917 0.28884 0.0
C46 C 0.85672 0.2842 0.24517 0.0
C47 C 0.82338 0.29829 0.2679 0.0
C48 C 0.81416 0.28769 0.33276 0.0
C49 C 0.86795 0.43229 0.57612 0.0
C50 C 0.94317 0.3157 0.54069 0.0
C51 C 0.93053 0.36425 0.77945 0.0
C52 C 0.92019 0.35616 0.8482 0.0
C53 C 0.88839 0.37767 0.87116 0.0
C54 C 0.87799 0.3663 0.93525 0.0
C55 C 0.89935 0.33382 0.97837 0.0
C56 C 0.93157 0.31361 0.95551 0.0
C57 C 0.94179 0.32453 0.89121 0.0
C58 C 0.89094 0.19166 0.63592 0.0
C59 C 0.81702 0.30344 0.69419 0.0
O60 O 0.84821 0.21914 0.48067 0.0
O61 O 0.81922 0.30715 0.47548 0.0
O62 O 0.83736 0.40038 0.56692 0.0
O63 O 0.89133 0.39143 0.58032 0.0
O64 O 0.91366 0.28109 0.52225 0.0
O65 O 0.94326 0.35314 0.59254 0.0
O66 O 0.91252 0.40289 0.74386 0.0
O67 O 0.93766 0.31002 0.74916 0.0
O68 O 0.92132 0.22158 0.65112 0.0
O69 O 0.86764 0.23202 0.63985 0.0
O70 O 0.84662 0.33799 0.71031 0.0
O71 O 0.81458 0.27247 0.6377 0.0
H72 H 0.89067 0.23074 0.38611 0.0
H73 H 0.90656 0.24858 0.27314 0.0
H74 H 0.80429 0.317 0.23542 0.0
H75 H 0.78832 0.29892 0.34896 0.0
H76 H 0.87133 0.40282 0.83946 0.0
H77 H 0.85285 0.38197 0.95055 0.0
H78 H 0.94909 0.28963 0.98738 0.0
H79 H 0.96655 0.30782 0.87492 0.0
Nd80 Nd 0.12522 0.741 0.41944 0.0
Nd81 Nd 0.17014 0.77144 0.53041 0.0
C82 C 0.09695 0.70272 0.30709 0.0
C83 C 0.10781 0.71393 0.2394 0.0
C84 C 0.13927 0.75254 0.22456 0.0
C85 C 0.14977 0.76258 0.16033 0.0
C86 C 0.1288 0.73472 0.10954 0.0
C87 C 0.09718 0.69627 0.12482 0.0
C88 C 0.08685 0.68588 0.18914 0.0
C89 C 0.13575 0.87589 0.45047 0.0
C90 C 0.20934 0.76439 0.39336 0.0
C91 C 0.19805 0.81368 0.64222 0.0
C92 C 0.18892 0.80036 0.71037 0.0
C93 C 0.15726 0.76324 0.72659 0.0
C94 C 0.14809 0.752 0.79125 0.0
C95 C 0.1704 0.77766 0.84122 0.0
C96 C 0.20244 0.81399 0.82453 0.0
C97 C 0.21157 0.82522 0.7597 0.0
C98 C 0.15838 0.6353 0.5117 0.0
C99 C 0.08307 0.75163 0.54579 0.0
O100 O 0.11656 0.66582 0.3413 0.0
O101 O 0.08847 0.75528 0.33858 0.0
O102 O 0.10546 0.84609 0.43463 0.0
O103 O 0.15901 0.83538 0.44744 0.0
O104 O 0.1801 0.72834 0.37819 0.0
O105 O 0.2115 0.79637 0.44936 0.0
O106 O 0.17576 0.84607 0.60949 0.0
O107 O 0.20884 0.76373 0.60973 0.0
O108 O 0.18891 0.66713 0.52146 0.0
O109 O 0.13504 0.67624 0.50727 0.0
O110 O 0.11251 0.78651 0.56429 0.0
O111 O 0.08319 0.71381 0.4942 0.0
H112 H 0.15567 0.77517 0.2627 0.0
H113 H 0.17402 0.79308 0.15045 0.0
H114 H 0.08059 0.67345 0.08704 0.0
H115 H 0.06252 0.65586 0.19963 0.0
H116 H 0.13954 0.74312 0.68914 0.0
H117 H 0.12357 0.72276 0.80204 0.0
H118 H 0.22016 0.83497 0.86153 0.0
H119 H 0.23618 0.85385 0.74809 0.0
Nd120 Nd 0.9009 0.82615 0.42066 0.0
Nd121 Nd 0.85607 0.79586 0.53164 0.0
C122 C 0.92925 0.86411 0.30831 0.0
C123 C 0.91844 0.85273 0.24062 0.0
C124 C 0.88657 0.81542 0.22581 0.0
C125 C 0.87611 0.80528 0.16158 0.0
C126 C 0.89753 0.83164 0.11077 0.0
C127 C 0.92958 0.86867 0.126 0.0
C128 C 0.93986 0.87923 0.19033 0.0
C129 C 0.89036 0.69127 0.45177 0.0
C130 C 0.81679 0.8031 0.39469 0.0
C131 C 0.82819 0.75363 0.64341 0.0
C132 C 0.83739 0.76664 0.71158 0.0
C133 C 0.8696 0.80178 0.72792 0.0
C134 C 0.87879 0.81278 0.7926 0.0
C135 C 0.85595 0.7889 0.84247 0.0
C136 C 0.82338 0.75459 0.82566 0.0
C137 C 0.81422 0.74358 0.7608 0.0
C138 C 0.86783 0.932 0.51295 0.0
C139 C 0.94315 0.81572 0.54684 0.0
O140 O 0.90963 0.9011 0.34239 0.0
O141 O 0.93769 0.81161 0.33992 0.0
O142 O 0.92065 0.72107 0.43595 0.0
O143 O 0.86711 0.73179 0.4487 0.0
O144 O 0.84604 0.83911 0.37952 0.0
O145 O 0.81465 0.77105 0.45063 0.0
O146 O 0.85034 0.72109 0.6105 0.0
O147 O 0.8175 0.80379 0.61113 0.0
O148 O 0.8373 0.90017 0.52274 0.0
O149 O 0.89116 0.89107 0.50846 0.0
O150 O 0.91375 0.78074 0.56535 0.0
O151 O 0.94293 0.85362 0.49535 0.0
H152 H 0.86984 0.79389 0.26397 0.0
H153 H 0.85151 0.77586 0.15171 0.0
H154 H 0.94654 0.89028 0.08817 0.0
H155 H 0.96454 0.90819 0.2008 0.0
H156 H 0.88772 0.82054 0.69055 0.0
H157 H 0.90374 0.84049 0.80348 0.0
H158 H 0.80522 0.73503 0.86259 0.0
H159 H 0.78918 0.71655 0.74909 0.0
Nd160 Nd 0.66995 0.77198 0.05697 0.0
Nd161 Nd 0.62529 0.74193 0.1675 0.0
C162 C 0.69782 0.81424 0.94517 0.0
C163 C 0.68864 0.80124 0.87697 0.0
C164 C 0.65635 0.76648 0.86054 0.0
C165 C 0.64717 0.75559 0.79583 0.0
C166 C 0.67012 0.77918 0.74601 0.0
C167 C 0.70278 0.81309 0.76291 0.0
C168 C 0.71192 0.824 0.8278 0.0
C169 C 0.65821 0.63572 0.07513 0.0
C170 C 0.58297 0.75222 1.04137 0.0
C171 C 0.59689 0.70445 0.27998 0.0
C172 C 0.60769 0.71584 0.34768 0.0
C173 C 0.63966 0.75278 0.36251 0.0
C174 C 0.65012 0.76289 0.42677 0.0
C175 C 0.62858 0.73688 0.47757 0.0
C176 C 0.59643 0.70023 0.46231 0.0
C177 C 0.58615 0.6897 0.39797 0.0
C178 C 0.63583 0.87682 0.13632 0.0
C179 C 0.70933 0.76457 0.19368 0.0
O180 O 0.67565 0.84672 0.97808 0.0
O181 O 0.70853 0.76412 0.97747 0.0
O182 O 0.68874 0.66763 0.06553 0.0
O183 O 0.63486 0.67658 0.07991 0.0
O184 O 0.61238 0.78717 1.02296 0.0
O185 O 0.58315 0.71444 0.09295 0.0
O186 O 0.6164 0.66722 0.24596 0.0
O187 O 0.58858 0.75698 0.24826 0.0
O188 O 0.6055 0.8469 0.15169 0.0
O189 O 0.6591 0.83639 0.13985 0.0
O190 O 0.68008 0.72855 0.20874 0.0
O191 O 0.71146 0.79673 0.13782 0.0
H192 H 0.63814 0.74795 0.89786 0.0
H193 H 0.62214 0.72819 0.78489 0.0
H194 H 0.72102 0.83242 0.72602 0.0
H195 H 0.73703 0.85074 0.83956 0.0
H196 H 0.65649 0.77405 0.32436 0.0
H197 H 0.6748 0.79201 0.43665 0.0
H198 H 0.57938 0.67889 0.50013 0.0
H199 H 0.56139 0.66104 0.38749 0.0
Nd200 Nd 0.35609 0.79652 0.05553 0.0
Nd201 Nd 0.40068 0.82666 0.16616 0.0
C202 C 0.32827 0.75415 0.94369 0.0
C203 C 0.33728 0.76765 0.87552 0.0
C204 C 0.3689 0.80487 0.85921 0.0
C205 C 0.37801 0.81608 0.79451 0.0
C206 C 0.35568 0.79033 0.74462 0.0
C207 C 0.32367 0.75397 0.7614 0.0
C208 C 0.31459 0.74274 0.82626 0.0
C209 C 0.36778 0.93282 0.07365 0.0
C210 C 0.44309 0.81639 1.04021 0.0
C211 C 0.429 0.86447 0.27862 0.0
C212 C 0.41816 0.8533 0.34631 0.0
C213 C 0.38666 0.81484 0.3612 0.0
C214 C 0.37617 0.80491 0.42545 0.0
C215 C 0.39719 0.83272 0.47621 0.0
C216 C 0.42884 0.87103 0.46087 0.0
C217 C 0.43916 0.8813 0.39653 0.0
C218 C 0.39024 0.69173 0.13485 0.0
C219 C 0.31668 0.80365 0.19228 0.0
O220 O 0.35074 0.72209 0.97628 0.0
O221 O 0.31729 0.80383 0.9763 0.0
O222 O 0.33728 0.90088 0.06388 0.0
O223 O 0.39112 0.89197 0.07855 0.0
O224 O 0.41371 0.78136 1.02171 0.0
O225 O 0.44282 0.85427 0.09172 0.0
O226 O 0.40948 0.90158 0.24449 0.0
O227 O 0.43734 0.81186 0.24704 0.0
O228 O 0.42054 0.7217 0.15037 0.0
O229 O 0.36695 0.73212 0.13836 0.0
O230 O 0.34588 0.83979 0.2074 0.0
O231 O 0.3146 0.77154 0.13637 0.0
H232 H 0.38664 0.82501 0.8966 0.0
H233 H 0.40251 0.84536 0.78365 0.0
H234 H 0.30593 0.73293 0.72445 0.0
H235 H 0.29002 0.71404 0.83794 0.0
H236 H 0.37022 0.79227 0.32309 0.0
H237 H 0.35189 0.77451 0.43538 0.0
H238 H 0.44547 0.89383 0.49861 0.0
H239 H 0.46352 0.91123 0.386 0.0
Nd240 Nd 0.62509 0.2415 0.92048 0.0
Nd241 Nd 0.66999 0.27235 1.03148 0.0
C242 C 0.59695 0.20295 0.8081 0.0
C243 C 0.60786 0.21417 0.74044 0.0
C244 C 0.58719 0.18537 0.69016 0.0
C245 C 0.59754 0.19581 0.62586 0.0
C246 C 0.62888 0.23517 0.61059 0.0
C247 C 0.64958 0.26374 0.66142 0.0
C248 C 0.6391 0.25353 0.72564 0.0
C249 C 0.6355 0.37646 0.95137 0.0
C250 C 0.70913 0.26524 0.89436 0.0
C251 C 0.69781 0.3151 0.1432 0.0
C252 C 0.6888 0.30171 0.21139 0.0
C253 C 0.71088 0.32856 0.26071 0.0
C254 C 0.70179 0.31726 0.32556 0.0
C255 C 0.67036 0.27888 0.34226 0.0
C256 C 0.64862 0.25132 0.29232 0.0
C257 C 0.65775 0.26262 0.22764 0.0
C258 C 0.65845 0.13616 1.01292 0.0
C259 C 0.58291 0.25206 0.04681 0.0
O260 O 0.61657 0.16619 0.84242 0.0
O261 O 0.58835 0.25548 0.83953 0.0
O262 O 0.60523 0.34656 0.93556 0.0
O263 O 0.65877 0.336 0.94837 0.0
O264 O 0.67997 0.22887 0.87931 0.0
O265 O 0.71121 0.29746 0.95024 0.0
O266 O 0.67532 0.34705 0.11053 0.0
O267 O 0.70881 0.26535 0.1107 0.0
O268 O 0.68893 0.16815 1.02282 0.0
O269 O 0.63504 0.17695 1.0084 0.0
O270 O 0.61231 0.28709 0.06529 0.0
O271 O 0.58308 0.21419 0.99526 0.0
H272 H 0.56305 0.1547 0.70062 0.0
H273 H 0.58118 0.17234 0.5881 0.0
H274 H 0.67361 0.29494 0.6516 0.0
H275 H 0.65532 0.27662 0.7638 0.0
H276 H 0.735 0.3588 0.24909 0.0
H277 H 0.71904 0.33975 0.36255 0.0
H278 H 0.62459 0.22054 0.30315 0.0
H279 H 0.64047 0.24103 0.1902 0.0
Nd280 Nd 0.40146 0.32704 0.91903 0.0
Nd281 Nd 0.35615 0.29673 1.03018 0.0
C282 C 0.43069 0.36532 0.80756 0.0
C283 C 0.42041 0.35739 0.7388 0.0
C284 C 0.38772 0.37533 0.71665 0.0
C285 C 0.37743 0.36397 0.65251 0.0
C286 C 0.39979 0.33507 0.60854 0.0
C287 C 0.43286 0.31841 0.63063 0.0
C288 C 0.44298 0.32928 0.69502 0.0
C289 C 0.39095 0.19242 0.95072 0.0
C290 C 0.31693 0.30377 0.89299 0.0
C291 C 0.32832 0.25508 0.14203 0.0
C292 C 0.33824 0.26395 0.21077 0.0
C293 C 0.3723 0.2536 0.23236 0.0
C294 C 0.38157 0.26375 0.29714 0.0
C295 C 0.35713 0.28506 0.34178 0.0
C296 C 0.32304 0.29537 0.32009 0.0
C297 C 0.31368 0.28468 0.25531 0.0
C298 C 0.36788 0.43265 1.01058 0.0
C299 C 0.44314 0.31616 0.04629 0.0
O300 O 0.41257 0.4038 0.84317 0.0
O301 O 0.43777 0.31097 0.83766 0.0
O302 O 0.4213 0.22219 0.93514 0.0
O303 O 0.36768 0.23289 0.94729 0.0
O304 O 0.34652 0.33829 0.87669 0.0
O305 O 0.31453 0.27284 0.9495 0.0
O306 O 0.34798 0.21961 0.10651 0.0
O307 O 0.31927 0.30799 0.11195 0.0
O308 O 0.33728 0.40083 1.01992 0.0
O309 O 0.39125 0.39171 1.00671 0.0
O310 O 0.41362 0.28162 0.06479 0.0
O311 O 0.44324 0.35364 0.99447 0.0
H312 H 0.36991 0.39765 0.74905 0.0
H313 H 0.35162 0.37679 0.63784 0.0
H314 H 0.45112 0.29724 0.59813 0.0
H315 H 0.46841 0.3153 0.71075 0.0
H316 H 0.39197 0.23822 0.19913 0.0
H317 H 0.40815 0.25618 0.31202 0.0
H318 H 0.30349 0.31118 0.35332 0.0
H319 H 0.28727 0.29301 0.23987 0.0
C320 C 0.26589 0.32254 0.73639 0.0
C321 C 0.23742 0.27379 0.74285 0.0
H322 H 0.31207 0.37189 0.77932 0.0
C323 C 0.23456 0.23643 0.80069 0.0
H324 H 0.26873 0.35303 0.69333 0.0
C325 C 0.2596 0.24705 0.85023 0.0
C326 C 0.28825 0.29545 0.8435 0.0
H327 H 0.21284 0.19869 0.80795 0.0
H328 H 0.25675 0.21667 0.89336 0.0
C329 C 0.29078 0.33338 0.78607 0.0
C330 C 0.76653 0.32115 0.85161 0.0
C331 C 0.73736 0.27412 0.84414 0.0
H332 H 0.81348 0.36866 0.8098 0.0
C333 C 0.73397 0.23811 0.78553 0.0
H334 H 0.76987 0.35047 0.89536 0.0
C335 C 0.7591 0.2485 0.73613 0.0
C336 C 0.78841 0.29524 0.7438 0.0
H337 H 0.71175 0.20165 0.77751 0.0
H338 H 0.75575 0.21927 0.69232 0.0
C339 C 0.79155 0.33167 0.80212 0.0
C340 C 0.29242 0.82916 0.30196 0.0
C341 C 0.28843 0.79481 0.2425 0.0
H342 H 0.27136 0.84622 0.3961 0.0
C343 C 0.25859 0.74954 0.23412 0.0
H344 H 0.31508 0.86442 0.31061 0.0
C345 C 0.23359 0.73887 0.28367 0.0
C346 C 0.23758 0.77322 0.34313 0.0
H347 H 0.25466 0.72181 0.18953 0.0
H348 H 0.21093 0.70359 0.27502 0.0
C349 C 0.26742 0.81849 0.35151 0.0
C350 C 0.73377 0.7383 0.30303 0.0
C351 C 0.73762 0.77319 0.24387 0.0
H352 H 0.75497 0.72065 0.39695 0.0
C353 C 0.76734 0.8188 0.23578 0.0
H354 H 0.71121 0.70272 0.31143 0.0
C355 C 0.79235 0.82931 0.28534 0.0
C356 C 0.7885 0.79443 0.3445 0.0
H357 H 0.77116 0.84696 0.19143 0.0
H358 H 0.81491 0.8649 0.27693 0.0
C359 C 0.75878 0.74881 0.35259 0.0
C360 C 0.17454 0.9663 0.50448 0.0
C361 C 0.14083 0.94163 0.4836 0.0
H362 H 0.20621 0.04573 0.55065 0.0
C363 C 0.11221 0.97922 0.4968 0.0
H364 H 0.19708 0.93834 0.49563 0.0
C365 C 0.1174 0.0409 0.52901 0.0
C366 C 0.15135 0.06623 0.54844 0.0
H367 H 0.08585 0.96123 0.48181 0.0
H368 H 0.09503 0.06959 0.53695 0.0
C369 C 0.17971 1.02768 0.53651 0.0
C370 C 0.84658 0.53996 0.53881 0.0
C371 C 0.87496 0.50143 0.55069 0.0
H372 H 0.82912 0.62907 0.49762 0.0
C373 C 0.90886 0.52663 0.53088 0.0
H374 H 0.82011 0.52201 0.55322 0.0
C375 C 0.91398 0.58813 0.49836 0.0
C376 C 0.88534 0.62568 0.4852 0.0
H377 H 0.93124 0.49797 0.53876 0.0
H378 H 0.9403 0.606 0.48308 0.0
C379 C 0.85168 0.60114 0.50643 0.0
C380 C 0.84662 0.03963 0.55074 0.0
C381 C 0.87497 1.00124 0.53809 0.0
H382 H 0.82936 0.12876 0.59229 0.0
C383 C 0.90901 1.02675 0.55681 0.0
H384 H 0.82004 1.02145 0.53719 0.0
C385 C 0.91432 0.08845 0.58897 0.0
C386 C 0.88572 0.12588 0.60286 0.0
H387 H 0.93137 0.99819 0.54834 0.0
H388 H 0.94075 0.10656 0.6034 0.0
C389 C 0.85191 0.10098 0.58281 0.0
C390 C 0.11731 0.54093 0.55649 0.0
C391 C 0.15126 0.56613 0.53694 0.0
H392 H 0.08576 0.46146 0.60393 0.0
C393 C 0.1796 0.52754 0.54892 0.0
H394 H 0.09496 0.56965 0.54853 0.0
C395 C 0.17442 0.46631 0.58117 0.0
C396 C 0.14072 0.44177 0.60215 0.0
H397 H 0.2061 0.54548 0.53469 0.0
H398 H 0.19696 0.43835 0.59007 0.0
C399 C 0.11211 0.47935 0.58886 0.0
C400 C 0.67944 0.52797 1.03785 0.0
C401 C 0.65109 0.56658 0.04978 0.0
H402 H 0.69679 0.43872 0.99681 0.0
C403 C 0.61715 0.54139 1.03017 0.0
H404 H 0.70593 0.54591 0.05213 0.0
C405 C 0.61195 0.47978 0.99781 0.0
C406 C 0.64055 0.44215 0.98462 0.0
H407 H 0.5948 0.57012 1.03809 0.0
H408 H 0.5856 0.46188 0.9827 0.0
C409 C 0.67425 0.4667 1.00565 0.0
C410 C 0.3466 0.04039 1.03572 0.0
C411 C 0.37494 1.00199 0.04841 0.0
H412 H 0.32938 0.12954 0.99423 0.0
C413 C 0.40899 1.02746 1.02972 0.0
H414 H 0.32002 1.02223 0.04925 0.0
C415 C 0.41432 0.08915 0.99759 0.0
C416 C 0.38574 0.12662 0.98371 0.0
H417 H 0.43134 0.99889 1.03823 0.0
H418 H 0.44076 0.10725 0.9832 0.0
C419 C 0.35191 0.10174 1.00371 0.0
C420 C 0.40878 0.52708 0.05575 0.0
C421 C 0.37489 0.50186 1.03586 0.0
H422 H 0.44018 0.60646 0.10363 0.0
C423 C 0.3465 0.54043 0.04761 0.0
H424 H 0.43116 0.49839 0.04797 0.0
C425 C 0.35158 0.60163 0.08 0.0
C426 C 0.38522 0.62616 0.10135 0.0
H427 H 0.32004 0.52248 1.03312 0.0
H428 H 0.32902 0.62958 0.08874 0.0
C429 C 0.41387 0.5886 0.08826 0.0
C430 C 0.61745 0.0416 0.05747 0.0
C431 C 0.6514 0.06694 1.03806 0.0
H432 H 0.58593 0.962 0.10473 0.0
C433 C 0.67978 1.02844 0.05007 0.0
H434 H 0.59508 0.07024 0.04948 0.0
C435 C 0.67463 0.96714 0.08222 0.0
C436 C 0.64092 0.94248 0.10308 0.0
H437 H 0.70628 0.0465 1.03594 0.0
H438 H 0.69718 0.93923 0.09115 0.0
C439 C 0.61229 0.97998 0.08975 0.0
C440 C 0.18524 0.25591 0.12857 0.0
C441 C 0.16006 0.26779 0.17588 0.0
H442 H 0.19527 0.23533 1.02915 0.0
C443 C 0.12473 0.26938 0.15674 0.0
H444 H 0.21261 0.25349 0.14154 0.0
C445 C 0.11478 0.25885 0.09232 0.0
C446 C 0.13987 0.24654 0.04508 0.0
H447 H 0.1047 0.27972 0.19144 0.0
H448 H 0.08741 0.26136 0.0794 0.0
C449 C 0.17528 0.24546 0.06402 0.0
C450 C 0.88505 0.24956 0.14223 0.0
C451 C 0.86691 0.29628 0.17645 0.0
H452 H 0.90869 0.22375 0.05314 0.0
C453 C 0.8592 0.35518 0.14488 0.0
H454 H 0.89095 0.20323 0.16479 0.0
C455 C 0.86973 0.36741 0.08095 0.0
C456 C 0.88803 0.32081 0.04664 0.0
H457 H 0.84569 0.39262 0.1701 0.0
H458 H 0.86406 0.41409 0.05887 0.0
C459 C 0.89534 0.26152 0.07817 0.0
C460 C 0.175 0.74408 1.02203 0.0
C461 C 0.13966 0.74612 1.04096 0.0
H462 H 0.21232 0.7511 0.94454 0.0
C463 C 0.11469 0.75924 0.99378 0.0
H464 H 0.19487 0.73333 0.05691 0.0
C465 C 0.1247 0.76971 0.92941 0.0
C466 C 0.15997 0.76714 0.91023 0.0
H467 H 0.08738 0.76243 1.00676 0.0
H468 H 0.10478 0.78079 0.89477 0.0
C469 C 0.18502 0.75436 0.95751 0.0
C470 C 0.90139 0.79444 0.93107 0.0
C471 C 0.86635 0.79924 0.9115 0.0
H472 H 0.93854 0.80004 1.00876 0.0
C473 C 0.84152 0.81415 0.9584 0.0
H474 H 0.92112 0.78168 0.89674 0.0
C475 C 0.85154 0.82438 1.02293 0.0
C476 C 0.88667 0.82018 1.04222 0.0
H477 H 0.81441 0.81913 0.94511 0.0
H478 H 0.83186 0.8368 0.05752 0.0
C479 C 0.91141 0.80491 0.99545 0.0
C480 C 0.67453 0.74367 0.56553 0.0
C481 C 0.63945 0.74827 0.54614 0.0
H482 H 0.7116 0.74848 0.64343 0.0
C483 C 0.61473 0.76384 0.59287 0.0
H484 H 0.69418 0.73101 0.53098 0.0
C485 C 0.62474 0.77419 0.65728 0.0
C486 C 0.65974 0.76898 0.67693 0.0
H487 H 0.58765 0.76903 0.57951 0.0
H488 H 0.60504 0.78719 0.69156 0.0
C489 C 0.68453 0.75378 0.63008 0.0
C490 C 0.34102 0.81347 0.62832 0.0
C491 C 0.36607 0.80072 0.67559 0.0
H492 H 0.33114 0.83434 0.5289 0.0
C493 C 0.40133 0.79802 0.65638 0.0
H494 H 0.31372 0.81679 0.64133 0.0
C495 C 0.41132 0.80835 0.59198 0.0
C496 C 0.38634 0.82144 0.54481 0.0
H497 H 0.42126 0.78696 0.69101 0.0
H498 H 0.43862 0.80506 0.57898 0.0
C499 C 0.35102 0.82361 0.56378 0.0
C500 C 0.6852 0.25725 0.45877 0.0
C501 C 0.65997 0.2682 0.41125 0.0
H502 H 0.69524 0.23735 0.55831 0.0
C503 C 0.62454 0.26876 0.43016 0.0
H504 H 0.71265 0.25561 0.44598 0.0
C505 C 0.61456 0.25814 0.49454 0.0
C506 C 0.63971 0.24679 0.54198 0.0
H507 H 0.60446 0.27838 0.39531 0.0
H508 H 0.58711 0.25983 0.50728 0.0
C509 C 0.6752 0.24672 0.52327 0.0
C510 C 0.38744 0.25256 0.44344 0.0
C511 C 0.36744 0.29724 0.41043 0.0
H512 H 0.41255 0.22835 0.53158 0.0
C513 C 0.35792 0.35424 0.44316 0.0
H514 H 0.39479 0.20768 0.41996 0.0
C515 C 0.36845 0.3666 0.50708 0.0
C516 C 0.38857 0.32201 0.54021 0.0
H517 H 0.34294 0.39014 0.41889 0.0
H518 H 0.36131 0.41186 0.53008 0.0
C519 C 0.39775 0.26462 0.50749 0.0
C520 C 0.02026 0.21658 0.51278 0.0
C521 C 0.04819 0.26708 0.51569 0.0
H522 H 0.96431 0.19306 0.5147 0.0
C523 C 0.04066 0.33411 0.51132 0.0
H524 H 0.02539 0.16453 0.51666 0.0
C525 C 1.0057 0.35046 0.51251 0.0
C526 C 0.97777 0.29998 0.51565 0.0
H527 H 0.06165 0.374 0.5143 0.0
H528 H 1.00058 0.40253 0.51624 0.0
C529 C 0.98529 0.23293 0.51154 0.0
C530 C 0.98548 0.73298 0.57514 0.0
C531 C 0.97791 0.80002 0.57123 0.0
H532 H 0.02559 0.66464 0.56966 0.0
C533 C 1.00584 0.85053 0.57415 0.0
H534 H 0.9645 0.69309 0.57211 0.0
C535 C 0.04082 0.83422 0.57502 0.0
C536 C 0.04837 0.7672 0.57059 0.0
H537 H 1.00069 0.90258 0.57057 0.0
H538 H 0.06179 0.87415 0.57191 0.0
C539 C 0.02046 0.71668 0.57363 0.0
C540 C 0.52037 0.71728 1.01359 0.0
C541 C 0.54828 0.76779 1.01662 0.0
H542 H 0.46441 0.69371 1.01505 0.0
C543 C 0.54074 0.83481 1.01215 0.0
H544 H 0.5255 0.66524 1.01757 0.0
C545 C 0.50577 0.85115 1.01298 0.0
C546 C 0.47784 0.80065 1.0159 0.0
H547 H 0.56172 0.87472 1.01523 0.0
H548 H 0.50063 0.90321 1.01654 0.0
C549 C 0.4854 0.7336 1.01202 0.0
C550 C 0.48529 0.23349 0.07558 0.0
C551 C 0.47776 0.30052 0.07138 0.0
H552 H 0.5254 0.1651 0.07061 0.0
C553 C 0.50568 0.35102 0.07448 0.0
H554 H 0.46431 0.19361 0.07245 0.0
C555 C 0.54065 0.33469 0.07572 0.0
C556 C 0.5482 0.26765 0.07147 0.0
H557 H 0.50055 0.40307 0.07067 0.0
H558 H 0.56163 0.37459 0.07269 0.0
C559 C 0.52027 0.21715 0.07442 0.0
loop_
_geom_bond_atom_site_label_1
_geom_bond_atom_site_label_2
_geom_bond_distance
_geom_bond_site_symmetry_2
_ccdc_geom_bond_type
Nd0 C2 2.836 . S
Nd0 O20 2.500 . S
Nd0 O21 2.492 . S
Nd0 O22 2.487 . S
Nd0 O23 2.682 . S
Nd0 O24 2.410 . S
Nd0 O29 2.414 . S
Nd0 O31 2.424 . S
Nd1 C11 2.836 . S
Nd1 O23 2.414 . S
Nd1 O25 2.424 . S
Nd1 O26 2.500 . S
Nd1 O27 2.492 . S
Nd1 O28 2.487 . S
Nd1 O29 2.682 . S
Nd1 O30 2.410 . S
C2 Nd0 2.836 . S
C2 C3 1.498 . S
C2 O20 1.258 . S
C2 O21 1.239 . S
C3 C2 1.498 . S
C3 C4 1.366 . S
C3 C8 1.407 . S
C4 C3 1.366 . S
C4 C5 1.392 . S
C4 H32 0.930 . S
C5 C4 1.392 . S
C5 C6 1.398 . S
C5 H33 0.929 . S
C6 C5 1.398 . S
C6 C7 1.352 . S
C7 C6 1.352 . S
C7 C8 1.384 . S
C7 H34 0.930 . S
C8 C3 1.407 . S
C8 C7 1.384 . S
C8 H35 0.929 . S
C9 O22 1.241 . S
C9 O23 1.273 . S
C10 O24 1.251 . S
C10 O25 1.268 . S
C11 Nd1 2.836 . S
C11 C12 1.498 . S
C11 O26 1.258 . S
C11 O27 1.239 . S
C12 C11 1.498 . S
C12 C13 1.366 . S
C12 C17 1.407 . S
C13 C12 1.366 . S
C13 C14 1.392 . S
C13 H36 0.930 . S
C14 C13 1.392 . S
C14 C15 1.398 . S
C14 H37 0.929 . S
C15 C14 1.398 . S
C15 C16 1.352 . S
C16 C15 1.352 . S
C16 C17 1.384 . S
C16 H38 0.930 . S
C17 C12 1.407 . S
C17 C16 1.384 . S
C17 H39 0.929 . S
C18 O28 1.241 . S
C18 O29 1.273 . S
C19 O30 1.251 . S
C19 O31 1.268 . S
O20 Nd0 2.500 . S
O20 C2 1.258 . S
O21 Nd0 2.492 . S
O21 C2 1.239 . S
O22 Nd0 2.487 . S
O22 C9 1.241 . S
O23 Nd0 2.682 . S
O23 Nd1 2.414 . S
O23 C9 1.273 . S
O24 Nd0 2.410 . S
O24 C10 1.251 . S
O25 Nd1 2.424 . S
O25 C10 1.268 . S
O26 Nd1 2.500 . S
O26 C11 1.258 . S
O27 Nd1 2.492 . S
O27 C11 1.239 . S
O28 Nd1 2.487 . S
O28 C18 1.241 . S
O29 Nd0 2.414 . S
O29 Nd1 2.682 . S
O29 C18 1.273 . S
O30 Nd1 2.410 . S
O30 C19 1.251 . S
O31 Nd0 2.424 . S
O31 C19 1.268 . S
H32 C4 0.930 . S
H33 C5 0.929 . S
H34 C7 0.930 . S
H35 C8 0.929 . S
H36 C13 0.930 . S
H37 C14 0.929 . S
H38 C16 0.930 . S
H39 C17 0.929 . S
Nd40 C42 2.836 . S
Nd40 O60 2.500 . S
Nd40 O61 2.492 . S
Nd40 O62 2.487 . S
Nd40 O63 2.682 . S
Nd40 O64 2.410 . S
Nd40 O69 2.414 . S
Nd40 O71 2.424 . S
Nd41 C51 2.836 . S
Nd41 O63 2.414 . S
Nd41 O65 2.424 . S
Nd41 O66 2.500 . S
Nd41 O67 2.492 . S
Nd41 O68 2.487 . S
Nd41 O69 2.682 . S
Nd41 O70 2.410 . S
C42 Nd40 2.836 . S
C42 C43 1.498 . S
C42 O60 1.258 . S
C42 O61 1.239 . S
C43 C42 1.498 . S
C43 C44 1.366 . S
C43 C48 1.407 . S
C44 C43 1.366 . S
C44 C45 1.392 . S
C44 H72 0.930 . S
C45 C44 1.392 . S
C45 C46 1.398 . S
C45 H73 0.929 . S
C46 C45 1.398 . S
C46 C47 1.352 . S
C47 C46 1.352 . S
C47 C48 1.384 . S
C47 H74 0.930 . S
C48 C43 1.407 . S
C48 C47 1.384 . S
C48 H75 0.929 . S
C49 O62 1.241 . S
C49 O63 1.273 . S
C50 O64 1.251 . S
C50 O65 1.268 . S
C51 Nd41 2.836 . S
C51 C52 1.498 . S
C51 O66 1.258 . S
C51 O67 1.239 . S
C52 C51 1.498 . S
C52 C53 1.366 . S
C52 C57 1.407 . S
C53 C52 1.366 . S
C53 C54 1.392 . S
C53 H76 0.930 . S
C54 C53 1.392 . S
C54 C55 1.398 . S
C54 H77 0.929 . S
C55 C54 1.398 . S
C55 C56 1.352 . S
C56 C55 1.352 . S
C56 C57 1.384 . S
C56 H78 0.930 . S
C57 C52 1.407 . S
C57 C56 1.384 . S
C57 H79 0.929 . S
C58 O68 1.241 . S
C58 O69 1.273 . S
C59 O70 1.251 . S
C59 O71 1.268 . S
O60 Nd40 2.500 . S
O60 C42 1.258 . S
O61 Nd40 2.492 . S
O61 C42 1.239 . S
O62 Nd40 2.487 . S
O62 C49 1.241 . S
O63 Nd40 2.682 . S
O63 Nd41 2.414 . S
O63 C49 1.273 . S
O64 Nd40 2.410 . S
O64 C50 1.251 . S
O65 Nd41 2.424 . S
O65 C50 1.268 . S
O66 Nd41 2.500 . S
O66 C51 1.258 . S
O67 Nd41 2.492 . S
O67 C51 1.239 . S
O68 Nd41 2.487 . S
O68 C58 1.241 . S
O69 Nd40 2.414 . S
O69 Nd41 2.682 . S
O69 C58 1.273 . S
O70 Nd41 2.410 . S
O70 C59 1.251 . S
O71 Nd40 2.424 . S
O71 C59 1.268 . S
H72 C44 0.930 . S
H73 C45 0.929 . S
H74 C47 0.930 . S
H75 C48 0.929 . S
H76 C53 0.930 . S
H77 C54 0.929 . S
H78 C56 0.930 . S
H79 C57 0.929 . S
Nd80 C82 2.836 . S
Nd80 O100 2.500 . S
Nd80 O101 2.492 . S
Nd80 O102 2.487 . S
Nd80 O103 2.682 . S
Nd80 O104 2.410 . S
Nd80 O109 2.414 . S
Nd80 O111 2.424 . S
Nd81 C91 2.836 . S
Nd81 O103 2.414 . S
Nd81 O105 2.424 . S
Nd81 O106 2.500 . S
Nd81 O107 2.492 . S
Nd81 O108 2.487 . S
Nd81 O109 2.682 . S
Nd81 O110 2.410 . S
C82 Nd80 2.836 . S
C82 C83 1.498 . S
C82 O100 1.258 . S
C82 O101 1.239 . S
C83 C82 1.498 . S
C83 C84 1.366 . S
C83 C88 1.407 . S
C84 C83 1.366 . S
C84 C85 1.392 . S
C84 H112 0.930 . S
C85 C84 1.392 . S
C85 C86 1.398 . S
C85 H113 0.929 . S
C86 C85 1.398 . S
C86 C87 1.352 . S
C87 C86 1.352 . S
C87 C88 1.384 . S
C87 H114 0.930 . S
C88 C83 1.407 . S
C88 C87 1.384 . S
C88 H115 0.929 . S
C89 O102 1.241 . S
C89 O103 1.273 . S
C90 O104 1.251 . S
C90 O105 1.268 . S
C91 Nd81 2.836 . S
C91 C92 1.498 . S
C91 O106 1.258 . S
C91 O107 1.239 . S
C92 C91 1.498 . S
C92 C93 1.366 . S
C92 C97 1.407 . S
C93 C92 1.366 . S
C93 C94 1.392 . S
C93 H116 0.930 . S
C94 C93 1.392 . S
C94 C95 1.398 . S
C94 H117 0.929 . S
C95 C94 1.398 . S
C95 C96 1.352 . S
C96 C95 1.352 . S
C96 C97 1.384 . S
C96 H118 0.930 . S
C97 C92 1.407 . S
C97 C96 1.384 . S
C97 H119 0.929 . S
C98 O108 1.241 . S
C98 O109 1.273 . S
C99 O110 1.251 . S
C99 O111 1.268 . S
O100 Nd80 2.500 . S
O100 C82 1.258 . S
O101 Nd80 2.492 . S
O101 C82 1.239 . S
O102 Nd80 2.487 . S
O102 C89 1.241 . S
O103 Nd80 2.682 . S
O103 Nd81 2.414 . S
O103 C89 1.273 . S
O104 Nd80 2.410 . S
O104 C90 1.251 . S
O105 Nd81 2.424 . S
O105 C90 1.268 . S
O106 Nd81 2.500 . S
O106 C91 1.258 . S
O107 Nd81 2.492 . S
O107 C91 1.239 . S
O108 Nd81 2.487 . S
O108 C98 1.241 . S
O109 Nd80 2.414 . S
O109 Nd81 2.682 . S
O109 C98 1.273 . S
O110 Nd81 2.410 . S
O110 C99 1.251 . S
O111 Nd80 2.424 . S
O111 C99 1.268 . S
H112 C84 0.930 . S
H113 C85 0.929 . S
H114 C87 0.930 . S
H115 C88 0.929 . S
H116 C93 0.930 . S
H117 C94 0.929 . S
H118 C96 0.930 . S
H119 C97 0.929 . S
Nd120 C122 2.836 . S
Nd120 O140 2.500 . S
Nd120 O141 2.492 . S
Nd120 O142 2.487 . S
Nd120 O143 2.682 . S
Nd120 O144 2.410 . S
Nd120 O149 2.414 . S
Nd120 O151 2.424 . S
Nd121 C131 2.836 . S
Nd121 O143 2.414 . S
Nd121 O145 2.424 . S
Nd121 O146 2.500 . S
Nd121 O147 2.492 . S
Nd121 O148 2.487 . S
Nd121 O149 2.682 . S
Nd121 O150 2.410 . S
C122 Nd120 2.836 . S
C122 C123 1.498 . S
C122 O140 1.258 . S
C122 O141 1.239 . S
C123 C122 1.498 . S
C123 C124 1.366 . S
C123 C128 1.407 . S
C124 C123 1.366 . S
C124 C125 1.392 . S
C124 H152 0.930 . S
C125 C124 1.392 . S
C125 C126 1.398 . S
C125 H153 0.929 . S
C126 C125 1.398 . S
C126 C127 1.352 . S
C127 C126 1.352 . S
C127 C128 1.384 . S
C127 H154 0.930 . S
C128 C123 1.407 . S
C128 C127 1.384 . S
C128 H155 0.929 . S
C129 O142 1.241 . S
C129 O143 1.273 . S
C130 O144 1.251 . S
C130 O145 1.268 . S
C131 Nd121 2.836 . S
C131 C132 1.498 . S
C131 O146 1.258 . S
C131 O147 1.239 . S
C132 C131 1.498 . S
C132 C133 1.366 . S
C132 C137 1.407 . S
C133 C132 1.366 . S
C133 C134 1.392 . S
C133 H156 0.930 . S
C134 C133 1.392 . S
C134 C135 1.398 . S
C134 H157 0.929 . S
C135 C134 1.398 . S
C135 C136 1.352 . S
C136 C135 1.352 . S
C136 C137 1.384 . S
C136 H158 0.930 . S
C137 C132 1.407 . S
C137 C136 1.384 . S
C137 H159 0.929 . S
C138 O148 1.241 . S
C138 O149 1.273 . S
C139 O150 1.251 . S
C139 O151 1.268 . S
O140 Nd120 2.500 . S
O140 C122 1.258 . S
O141 Nd120 2.492 . S
O141 C122 1.239 . S
O142 Nd120 2.487 . S
O142 C129 1.241 . S
O143 Nd120 2.682 . S
O143 Nd121 2.414 . S
O143 C129 1.273 . S
O144 Nd120 2.410 . S
O144 C130 1.251 . S
O145 Nd121 2.424 . S
O145 C130 1.268 . S
O146 Nd121 2.500 . S
O146 C131 1.258 . S
O147 Nd121 2.492 . S
O147 C131 1.239 . S
O148 Nd121 2.487 . S
O148 C138 1.241 . S
O149 Nd120 2.414 . S
O149 Nd121 2.682 . S
O149 C138 1.273 . S
O150 Nd121 2.410 . S
O150 C139 1.251 . S
O151 Nd120 2.424 . S
O151 C139 1.268 . S
H152 C124 0.930 . S
H153 C125 0.929 . S
H154 C127 0.930 . S
H155 C128 0.929 . S
H156 C133 0.930 . S
H157 C134 0.929 . S
H158 C136 0.930 . S
H159 C137 0.929 . S
Nd160 C162 2.836 . S
Nd160 O180 2.500 . S
Nd160 O181 2.492 . S
Nd160 O182 2.487 . S
Nd160 O183 2.682 1_556 S
Nd160 O184 2.410 . S
Nd160 O189 2.414 1_556 S
Nd160 O191 2.424 1_556 S
Nd161 C171 2.836 . S
Nd161 O183 2.414 . S
Nd161 O185 2.424 . S
Nd161 O186 2.500 . S
Nd161 O187 2.492 . S
Nd161 O188 2.487 . S
Nd161 O189 2.682 . S
Nd161 O190 2.410 . S
C162 Nd160 2.836 . S
C162 C163 1.498 . S
C162 O180 1.258 . S
C162 O181 1.239 . S
C163 C162 1.498 . S
C163 C164 1.366 . S
C163 C168 1.407 . S
C164 C163 1.366 . S
C164 C165 1.392 . S
C164 H192 0.930 . S
C165 C164 1.392 . S
C165 C166 1.398 . S
C165 H193 0.929 . S
C166 C165 1.398 . S
C166 C167 1.352 . S
C167 C166 1.352 . S
C167 C168 1.384 . S
C167 H194 0.930 . S
C168 C163 1.407 . S
C168 C167 1.384 . S
C168 H195 0.929 . S
C169 O182 1.241 1_554 S
C169 O183 1.273 . S
C170 O184 1.251 . S
C170 O185 1.268 1_556 S
C171 Nd161 2.836 . S
C171 C172 1.498 . S
C171 O186 1.258 . S
C171 O187 1.239 . S
C172 C171 1.498 . S
C172 C173 1.366 . S
C172 C177 1.407 . S
C173 C172 1.366 . S
C173 C174 1.392 . S
C173 H196 0.930 . S
C174 C173 1.392 . S
C174 C175 1.398 . S
C174 H197 0.929 . S
C175 C174 1.398 . S
C175 C176 1.352 . S
C176 C175 1.352 . S
C176 C177 1.384 . S
C176 H198 0.930 . S
C177 C172 1.407 . S
C177 C176 1.384 . S
C177 H199 0.929 . S
C178 O188 1.241 . S
C178 O189 1.273 . S
C179 O190 1.251 . S
C179 O191 1.268 . S
O180 Nd160 2.500 . S
O180 C162 1.258 . S
O181 Nd160 2.492 . S
O181 C162 1.239 . S
O182 Nd160 2.487 . S
O182 C169 1.241 1_556 S
O183 Nd160 2.682 1_554 S
O183 Nd161 2.414 . S
O183 C169 1.273 . S
O184 Nd160 2.410 . S
O184 C170 1.251 . S
O185 Nd161 2.424 . S
O185 C170 1.268 1_554 S
O186 Nd161 2.500 . S
O186 C171 1.258 . S
O187 Nd161 2.492 . S
O187 C171 1.239 . S
O188 Nd161 2.487 . S
O188 C178 1.241 . S
O189 Nd160 2.414 1_554 S
O189 Nd161 2.682 . S
O189 C178 1.273 . S
O190 Nd161 2.410 . S
O190 C179 1.251 . S
O191 Nd160 2.424 1_554 S
O191 C179 1.268 . S
H192 C164 0.930 . S
H193 C165 0.929 . S
H194 C167 0.930 . S
H195 C168 0.929 . S
H196 C173 0.930 . S
H197 C174 0.929 . S
H198 C176 0.930 . S
H199 C177 0.929 . S
Nd200 C202 2.836 . S
Nd200 O220 2.500 . S
Nd200 O221 2.492 . S
Nd200 O222 2.487 . S
Nd200 O223 2.682 1_556 S
Nd200 O224 2.410 . S
Nd200 O229 2.414 1_556 S
Nd200 O231 2.424 1_556 S
Nd201 C211 2.836 . S
Nd201 O223 2.414 . S
Nd201 O225 2.424 . S
Nd201 O226 2.500 . S
Nd201 O227 2.492 . S
Nd201 O228 2.487 . S
Nd201 O229 2.682 . S
Nd201 O230 2.410 . S
C202 Nd200 2.836 . S
C202 C203 1.498 . S
C202 O220 1.258 . S
C202 O221 1.239 . S
C203 C202 1.498 . S
C203 C204 1.366 . S
C203 C208 1.407 . S
C204 C203 1.366 . S
C204 C205 1.392 . S
C204 H232 0.930 . S
C205 C204 1.392 . S
C205 C206 1.398 . S
C205 H233 0.929 . S
C206 C205 1.398 . S
C206 C207 1.352 . S
C207 C206 1.352 . S
C207 C208 1.384 . S
C207 H234 0.930 . S
C208 C203 1.407 . S
C208 C207 1.384 . S
C208 H235 0.929 . S
C209 O222 1.241 1_554 S
C209 O223 1.273 . S
C210 O224 1.251 . S
C210 O225 1.268 1_556 S
C211 Nd201 2.836 . S
C211 C212 1.498 . S
C211 O226 1.258 . S
C211 O227 1.239 . S
C212 C211 1.498 . S
C212 C213 1.366 . S
C212 C217 1.407 . S
C213 C212 1.366 . S
C213 C214 1.392 . S
C213 H236 0.930 . S
C214 C213 1.392 . S
C214 C215 1.398 . S
C214 H237 0.929 . S
C215 C214 1.398 . S
C215 C216 1.352 . S
C216 C215 1.352 . S
C216 C217 1.384 . S
C216 H238 0.930 . S
C217 C212 1.407 . S
C217 C216 1.384 . S
C217 H239 0.929 . S
C218 O228 1.241 . S
C218 O229 1.273 . S
C219 O230 1.251 . S
C219 O231 1.268 . S
O220 Nd200 2.500 . S
O220 C202 1.258 . S
O221 Nd200 2.492 . S
O221 C202 1.239 . S
O222 Nd200 2.487 . S
O222 C209 1.241 1_556 S
O223 Nd200 2.682 1_554 S
O223 Nd201 2.414 . S
O223 C209 1.273 . S
O224 Nd200 2.410 . S
O224 C210 1.251 . S
O225 Nd201 2.424 . S
O225 C210 1.268 1_554 S
O226 Nd201 2.500 . S
O226 C211 1.258 . S
O227 Nd201 2.492 . S
O227 C211 1.239 . S
O228 Nd201 2.487 . S
O228 C218 1.241 . S
O229 Nd200 2.414 1_554 S
O229 Nd201 2.682 . S
O229 C218 1.273 . S
O230 Nd201 2.410 . S
O230 C219 1.251 . S
O231 Nd200 2.424 1_554 S
O231 C219 1.268 . S
H232 C204 0.930 . S
H233 C205 0.929 . S
H234 C207 0.930 . S
H235 C208 0.929 . S
H236 C213 0.930 . S
H237 C214 0.929 . S
H238 C216 0.930 . S
H239 C217 0.929 . S
Nd240 C242 2.836 . S
Nd240 O260 2.500 . S
Nd240 O261 2.492 . S
Nd240 O262 2.487 . S
Nd240 O263 2.682 . S
Nd240 O264 2.410 . S
Nd240 O269 2.414 . S
Nd240 O271 2.424 . S
Nd241 C251 2.836 . S
Nd241 O263 2.414 1_554 S
Nd241 O265 2.424 1_554 S
Nd241 O266 2.500 . S
Nd241 O267 2.492 . S
Nd241 O268 2.487 . S
Nd241 O269 2.682 1_554 S
Nd241 O270 2.410 . S
C242 Nd240 2.836 . S
C242 C243 1.498 . S
C242 O260 1.258 . S
C242 O261 1.239 . S
C243 C242 1.498 . S
C243 C244 1.366 . S
C243 C248 1.407 . S
C244 C243 1.366 . S
C244 C245 1.392 . S
C244 H272 0.930 . S
C245 C244 1.392 . S
C245 C246 1.398 . S
C245 H273 0.929 . S
C246 C245 1.398 . S
C246 C247 1.352 . S
C247 C246 1.352 . S
C247 C248 1.384 . S
C247 H274 0.930 . S
C248 C243 1.407 . S
C248 C247 1.384 . S
C248 H275 0.929 . S
C249 O262 1.241 . S
C249 O263 1.273 . S
C250 O264 1.251 . S
C250 O265 1.268 . S
C251 Nd241 2.836 . S
C251 C252 1.498 . S
C251 O266 1.258 . S
C251 O267 1.239 . S
C252 C251 1.498 . S
C252 C253 1.366 . S
C252 C257 1.407 . S
C253 C252 1.366 . S
C253 C254 1.392 . S
C253 H276 0.930 . S
C254 C253 1.392 . S
C254 C255 1.398 . S
C254 H277 0.929 . S
C255 C254 1.398 . S
C255 C256 1.352 . S
C256 C255 1.352 . S
C256 C257 1.384 . S
C256 H278 0.930 . S
C257 C252 1.407 . S
C257 C256 1.384 . S
C257 H279 0.929 . S
C258 O268 1.241 1_556 S
C258 O269 1.273 . S
C259 O270 1.251 . S
C259 O271 1.268 1_554 S
O260 Nd240 2.500 . S
O260 C242 1.258 . S
O261 Nd240 2.492 . S
O261 C242 1.239 . S
O262 Nd240 2.487 . S
O262 C249 1.241 . S
O263 Nd240 2.682 . S
O263 Nd241 2.414 1_556 S
O263 C249 1.273 . S
O264 Nd240 2.410 . S
O264 C250 1.251 . S
O265 Nd241 2.424 1_556 S
O265 C250 1.268 . S
O266 Nd241 2.500 . S
O266 C251 1.258 . S
O267 Nd241 2.492 . S
O267 C251 1.239 . S
O268 Nd241 2.487 . S
O268 C258 1.241 1_554 S
O269 Nd240 2.414 . S
O269 Nd241 2.682 1_556 S
O269 C258 1.273 . S
O270 Nd241 2.410 . S
O270 C259 1.251 . S
O271 Nd240 2.424 . S
O271 C259 1.268 1_556 S
H272 C244 0.930 . S
H273 C245 0.929 . S
H274 C247 0.930 . S
H275 C248 0.929 . S
H276 C253 0.930 . S
H277 C254 0.929 . S
H278 C256 0.930 . S
H279 C257 0.929 . S
Nd280 C282 2.836 . S
Nd280 O300 2.500 . S
Nd280 O301 2.492 . S
Nd280 O302 2.487 . S
Nd280 O303 2.682 . S
Nd280 O304 2.410 . S
Nd280 O309 2.414 . S
Nd280 O311 2.424 . S
Nd281 C291 2.836 . S
Nd281 O303 2.414 1_554 S
Nd281 O305 2.424 1_554 S
Nd281 O306 2.500 . S
Nd281 O307 2.492 . S
Nd281 O308 2.487 . S
Nd281 O309 2.682 1_554 S
Nd281 O310 2.410 . S
C282 Nd280 2.836 . S
C282 C283 1.498 . S
C282 O300 1.258 . S
C282 O301 1.239 . S
C283 C282 1.498 . S
C283 C284 1.366 . S
C283 C288 1.407 . S
C284 C283 1.366 . S
C284 C285 1.392 . S
C284 H312 0.930 . S
C285 C284 1.392 . S
C285 C286 1.398 . S
C285 H313 0.929 . S
C286 C285 1.398 . S
C286 C287 1.352 . S
C287 C286 1.352 . S
C287 C288 1.384 . S
C287 H314 0.930 . S
C288 C283 1.407 . S
C288 C287 1.384 . S
C288 H315 0.929 . S
C289 O302 1.241 . S
C289 O303 1.273 . S
C290 O304 1.251 . S
C290 O305 1.268 . S
C291 Nd281 2.836 . S
C291 C292 1.498 . S
C291 O306 1.258 . S
C291 O307 1.239 . S
C292 C291 1.498 . S
C292 C293 1.366 . S
C292 C297 1.407 . S
C293 C292 1.366 . S
C293 C294 1.392 . S
C293 H316 0.930 . S
C294 C293 1.392 . S
C294 C295 1.398 . S
C294 H317 0.929 . S
C295 C294 1.398 . S
C295 C296 1.352 . S
C296 C295 1.352 . S
C296 C297 1.384 . S
C296 H318 0.930 . S
C297 C292 1.407 . S
C297 C296 1.384 . S
C297 H319 0.929 . S
C298 O308 1.241 1_556 S
C298 O309 1.273 . S
C299 O310 1.251 . S
C299 O311 1.268 1_554 S
O300 Nd280 2.500 . S
O300 C282 1.258 . S
O301 Nd280 2.492 . S
O301 C282 1.239 . S
O302 Nd280 2.487 . S
O302 C289 1.241 . S
O303 Nd280 2.682 . S
O303 Nd281 2.414 1_556 S
O303 C289 1.273 . S
O304 Nd280 2.410 . S
O304 C290 1.251 . S
O305 Nd281 2.424 1_556 S
O305 C290 1.268 . S
O306 Nd281 2.500 . S
O306 C291 1.258 . S
O307 Nd281 2.492 . S
O307 C291 1.239 . S
O308 Nd281 2.487 . S
O308 C298 1.241 1_554 S
O309 Nd280 2.414 . S
O309 Nd281 2.682 1_556 S
O309 C298 1.273 . S
O310 Nd281 2.410 . S
O310 C299 1.251 . S
O311 Nd280 2.424 . S
O311 C299 1.268 1_556 S
H312 C284 0.930 . S
H313 C285 0.929 . S
H314 C287 0.930 . S
H315 C288 0.929 . S
H316 C293 0.930 . S
H317 C294 0.929 . S
H318 C296 0.930 . S
H319 C297 0.929 . S
C320 C321 1.387 . S
C320 H324 0.950 . S
C320 C329 1.390 . S
C321 C320 1.387 . S
C321 C323 1.387 . S
H322 C329 0.950 . S
C323 C321 1.387 . S
C323 C325 1.390 . S
C323 H327 0.950 . S
H324 C320 0.950 . S
C325 C323 1.390 . S
C325 C326 1.387 . S
C325 H328 0.950 . S
C326 C325 1.387 . S
C326 C329 1.387 . S
H327 C323 0.950 . S
H328 C325 0.950 . S
C329 C320 1.390 . S
C329 H322 0.950 . S
C329 C326 1.387 . S
C330 C331 1.387 . S
C330 H334 0.950 . S
C330 C339 1.390 . S
C331 C330 1.387 . S
C331 C333 1.387 . S
H332 C339 0.950 . S
C333 C331 1.387 . S
C333 C335 1.390 . S
C333 H337 0.950 . S
H334 C330 0.950 . S
C335 C333 1.390 . S
C335 C336 1.387 . S
C335 H338 0.950 . S
C336 C335 1.387 . S
C336 C339 1.387 . S
H337 C333 0.950 . S
H338 C335 0.950 . S
C339 C330 1.390 . S
C339 H332 0.950 . S
C339 C336 1.387 . S
C340 C341 1.387 . S
C340 H344 0.950 . S
C340 C349 1.390 . S
C341 C340 1.387 . S
C341 C343 1.387 . S
H342 C349 0.950 . S
C343 C341 1.387 . S
C343 C345 1.390 . S
C343 H347 0.950 . S
H344 C340 0.950 . S
C345 C343 1.390 . S
C345 C346 1.387 . S
C345 H348 0.950 . S
C346 C345 1.387 . S
C346 C349 1.387 . S
H347 C343 0.950 . S
H348 C345 0.950 . S
C349 C340 1.390 . S
C349 H342 0.950 . S
C349 C346 1.387 . S
C350 C351 1.387 . S
C350 H354 0.950 . S
C350 C359 1.390 . S
C351 C350 1.387 . S
C351 C353 1.387 . S
H352 C359 0.950 . S
C353 C351 1.387 . S
C353 C355 1.390 . S
C353 H357 0.950 . S
H354 C350 0.950 . S
C355 C353 1.390 . S
C355 C356 1.387 . S
C355 H358 0.950 . S
C356 C355 1.387 . S
C356 C359 1.387 . S
H357 C353 0.950 . S
H358 C355 0.950 . S
C359 C350 1.390 . S
C359 H352 0.950 . S
C359 C356 1.387 . S
C360 C361 1.387 . S
C360 H364 0.950 . S
C360 C369 1.390 1_565 S
C361 C360 1.387 . S
C361 C363 1.387 . S
H362 C369 0.950 . S
C363 C361 1.387 . S
C363 C365 1.390 1_565 S
C363 H367 0.950 . S
H364 C360 0.950 . S
C365 C363 1.390 1_545 S
C365 C366 1.387 . S
C365 H368 0.950 . S
C366 C365 1.387 . S
C366 C369 1.387 . S
H367 C363 0.950 . S
H368 C365 0.950 . S
C369 C360 1.390 1_545 S
C369 H362 0.950 . S
C369 C366 1.387 . S
C370 C371 1.387 . S
C370 H374 0.950 . S
C370 C379 1.390 . S
C371 C370 1.387 . S
C371 C373 1.387 . S
H372 C379 0.950 . S
C373 C371 1.387 . S
C373 C375 1.390 . S
C373 H377 0.950 . S
H374 C370 0.950 . S
C375 C373 1.390 . S
C375 C376 1.387 . S
C375 H378 0.950 . S
C376 C375 1.387 . S
C376 C379 1.387 . S
H377 C373 0.950 . S
H378 C375 0.950 . S
C379 C370 1.390 . S
C379 H372 0.950 . S
C379 C376 1.387 . S
C380 C381 1.387 . S
C380 H384 0.950 . S
C380 C389 1.390 1_565 S
C381 C380 1.387 . S
C381 C383 1.387 . S
H382 C389 0.950 . S
C383 C381 1.387 . S
C383 C385 1.390 1_565 S
C383 H387 0.950 . S
H384 C380 0.950 . S
C385 C383 1.390 1_545 S
C385 C386 1.387 . S
C385 H388 0.950 . S
C386 C385 1.387 . S
C386 C389 1.387 . S
H387 C383 0.950 . S
H388 C385 0.950 . S
C389 C380 1.390 1_545 S
C389 H382 0.950 . S
C389 C386 1.387 . S
C390 C391 1.387 . S
C390 H394 0.950 . S
C390 C399 1.390 . S
C391 C390 1.387 . S
C391 C393 1.387 . S
H392 C399 0.950 . S
C393 C391 1.387 . S
C393 C395 1.390 . S
C393 H397 0.950 . S
H394 C390 0.950 . S
C395 C393 1.390 . S
C395 C396 1.387 . S
C395 H398 0.950 . S
C396 C395 1.387 . S
C396 C399 1.387 . S
H397 C393 0.950 . S
H398 C395 0.950 . S
C399 C390 1.390 . S
C399 H392 0.950 . S
C399 C396 1.387 . S
C400 C401 1.387 . S
C400 H404 0.950 . S
C400 C409 1.390 . S
C401 C400 1.387 . S
C401 C403 1.387 1_554 S
H402 C409 0.950 . S
C403 C401 1.387 1_556 S
C403 C405 1.390 . S
C403 H407 0.950 . S
H404 C400 0.950 . S
C405 C403 1.390 . S
C405 C406 1.387 . S
C405 H408 0.950 . S
C406 C405 1.387 . S
C406 C409 1.387 1_556 S
H407 C403 0.950 . S
H408 C405 0.950 . S
C409 C400 1.390 . S
C409 H402 0.950 . S
C409 C406 1.387 1_554 S
C410 C411 1.387 1_556 S
C410 H414 0.950 . S
C410 C419 1.390 1_565 S
C411 C410 1.387 1_554 S
C411 C413 1.387 . S
H412 C419 0.950 . S
C413 C411 1.387 . S
C413 C415 1.390 1_565 S
C413 H417 0.950 . S
H414 C410 0.950 . S
C415 C413 1.390 1_545 S
C415 C416 1.387 1_554 S
C415 H418 0.950 . S
C416 C415 1.387 1_556 S
C416 C419 1.387 . S
H417 C413 0.950 . S
H418 C415 0.950 . S
C419 C410 1.390 1_545 S
C419 H412 0.950 . S
C419 C416 1.387 . S
C420 C421 1.387 . S
C420 H424 0.950 . S
C420 C429 1.390 1_556 S
C421 C420 1.387 . S
C421 C423 1.387 . S
H422 C429 0.950 . S
C423 C421 1.387 . S
C423 C425 1.390 . S
C423 H427 0.950 . S
H424 C420 0.950 . S
C425 C423 1.390 . S
C425 C426 1.387 1_556 S
C425 H428 0.951 . S
C426 C425 1.387 1_554 S
C426 C429 1.387 . S
H427 C423 0.950 . S
H428 C425 0.951 . S
C429 C420 1.390 1_554 S
C429 H422 0.950 . S
C429 C426 1.387 . S
C430 C431 1.387 1_554 S
C430 H434 0.950 . S
C430 C439 1.390 1_545 S
C431 C430 1.387 1_556 S
C431 C433 1.387 . S
H432 C439 0.950 . S
C433 C431 1.387 . S
C433 C435 1.390 1_545 S
C433 H437 0.950 . S
H434 C430 0.950 . S
C435 C433 1.390 1_565 S
C435 C436 1.387 1_556 S
C435 H438 0.950 . S
C436 C435 1.387 1_554 S
C436 C439 1.387 . S
H437 C433 0.950 . S
H438 C435 0.950 . S
C439 C430 1.390 1_565 S
C439 H432 0.950 . S
C439 C436 1.387 . S
C440 C441 1.387 . S
C440 H444 0.950 . S
C440 C449 1.390 . S
C441 C440 1.387 . S
C441 C443 1.387 . S
H442 C449 0.950 . S
C443 C441 1.387 . S
C443 C445 1.390 1_554 S
C443 H447 0.950 . S
H444 C440 0.950 . S
C445 C443 1.390 1_556 S
C445 C446 1.387 . S
C445 H448 0.950 . S
C446 C445 1.387 . S
C446 C449 1.387 1_556 S
H447 C443 0.950 . S
H448 C445 0.950 . S
C449 C440 1.390 . S
C449 H442 0.950 . S
C449 C446 1.387 1_554 S
C450 C451 1.387 . S
C450 H454 0.950 . S
C450 C459 1.390 1_554 S
C451 C450 1.387 . S
C451 C453 1.387 . S
H452 C459 0.950 . S
C453 C451 1.387 . S
C453 C455 1.390 . S
C453 H457 0.950 . S
H454 C450 0.950 . S
C455 C453 1.390 . S
C455 C456 1.387 1_554 S
C455 H458 0.950 . S
C456 C455 1.387 1_556 S
C456 C459 1.387 . S
H457 C453 0.950 . S
H458 C455 0.950 . S
C459 C450 1.390 1_556 S
C459 H452 0.950 . S
C459 C456 1.387 . S
C460 C461 1.387 1_556 S
C460 H464 0.950 . S
C460 C469 1.390 . S
C461 C460 1.387 1_554 S
C461 C463 1.387 . S
H462 C469 0.950 . S
C463 C461 1.387 . S
C463 C465 1.390 1_554 S
C463 H467 0.950 . S
H464 C460 0.950 . S
C465 C463 1.390 1_556 S
C465 C466 1.387 . S
C465 H468 0.950 . S
C466 C465 1.387 . S
C466 C469 1.387 . S
H467 C463 0.950 . S
H468 C465 0.950 . S
C469 C460 1.390 . S
C469 H462 0.950 . S
C469 C466 1.387 . S
C470 C471 1.387 . S
C470 H474 0.950 . S
C470 C479 1.390 1_556 S
C471 C470 1.387 . S
C471 C473 1.387 . S
H472 C479 0.950 . S
C473 C471 1.387 . S
C473 C475 1.390 . S
C473 H477 0.950 . S
H474 C470 0.950 . S
C475 C473 1.390 . S
C475 C476 1.387 1_556 S
C475 H478 0.950 . S
C476 C475 1.387 1_554 S
C476 C479 1.387 . S
H477 C473 0.950 . S
H478 C475 0.950 . S
C479 C470 1.390 1_554 S
C479 H472 0.950 . S
C479 C476 1.387 . S
C480 C481 1.387 . S
C480 H484 0.950 . S
C480 C489 1.390 . S
C481 C480 1.387 . S
C481 C483 1.387 . S
H482 C489 0.950 . S
C483 C481 1.387 . S
C483 C485 1.390 . S
C483 H487 0.950 . S
H484 C480 0.950 . S
C485 C483 1.390 . S
C485 C486 1.387 . S
C485 H488 0.950 . S
C486 C485 1.387 . S
C486 C489 1.387 . S
H487 C483 0.950 . S
H488 C485 0.950 . S
C489 C480 1.390 . S
C489 H482 0.950 . S
C489 C486 1.387 . S
C490 C491 1.387 . S
C490 H494 0.950 . S
C490 C499 1.390 . S
C491 C490 1.387 . S
C491 C493 1.387 . S
H492 C499 0.950 . S
C493 C491 1.387 . S
C493 C495 1.390 . S
C493 H497 0.950 . S
H494 C490 0.950 . S
C495 C493 1.390 . S
C495 C496 1.387 . S
C495 H498 0.950 . S
C496 C495 1.387 . S
C496 C499 1.387 . S
H497 C493 0.950 . S
H498 C495 0.950 . S
C499 C490 1.390 . S
C499 H492 0.950 . S
C499 C496 1.387 . S
C500 C501 1.387 . S
C500 H504 0.950 . S
C500 C509 1.390 . S
C501 C500 1.387 . S
C501 C503 1.387 . S
H502 C509 0.950 . S
C503 C501 1.387 . S
C503 C505 1.390 . S
C503 H507 0.950 . S
H504 C500 0.950 . S
C505 C503 1.390 . S
C505 C506 1.387 . S
C505 H508 0.950 . S
C506 C505 1.387 . S
C506 C509 1.387 . S
H507 C503 0.950 . S
H508 C505 0.950 . S
C509 C500 1.390 . S
C509 H502 0.950 . S
C509 C506 1.387 . S
C510 C511 1.387 . S
C510 H514 0.950 . S
C510 C519 1.390 . S
C511 C510 1.387 . S
C511 C513 1.387 . S
H512 C519 0.950 . S
C513 C511 1.387 . S
C513 C515 1.390 . S
C513 H517 0.950 . S
H514 C510 0.950 . S
C515 C513 1.390 . S
C515 C516 1.387 . S
C515 H518 0.950 . S
C516 C515 1.387 . S
C516 C519 1.387 . S
H517 C513 0.950 . S
H518 C515 0.950 . S
C519 C510 1.390 . S
C519 H512 0.950 . S
C519 C516 1.387 . S
C520 C521 1.387 . S
C520 H524 0.950 . S
C520 C529 1.390 1_455 S
C521 C520 1.387 . S
C521 C523 1.387 . S
H522 C529 0.950 . S
C523 C521 1.387 . S
C523 C525 1.390 1_455 S
C523 H527 0.950 . S
H524 C520 0.950 . S
C525 C523 1.390 1_655 S
C525 C526 1.387 . S
C525 H528 0.950 . S
C526 C525 1.387 . S
C526 C529 1.387 . S
H527 C523 0.950 . S
H528 C525 0.950 . S
C529 C520 1.390 1_655 S
C529 H522 0.950 . S
C529 C526 1.387 . S
C530 C531 1.387 . S
C530 H534 0.950 . S
C530 C539 1.390 1_655 S
C531 C530 1.387 . S
C531 C533 1.387 . S
H532 C539 0.950 . S
C533 C531 1.387 . S
C533 C535 1.390 1_655 S
C533 H537 0.950 . S
H534 C530 0.950 . S
C535 C533 1.390 1_455 S
C535 C536 1.387 . S
C535 H538 0.950 . S
C536 C535 1.387 . S
C536 C539 1.387 . S
H537 C533 0.950 . S
H538 C535 0.950 . S
C539 C530 1.390 1_455 S
C539 H532 0.950 . S
C539 C536 1.387 . S
C540 C541 1.387 1_554 S
C540 H544 0.950 . S
C540 C549 1.390 . S
C541 C540 1.387 1_556 S
C541 C543 1.387 . S
H542 C549 0.950 . S
C543 C541 1.387 . S
C543 C545 1.390 . S
C543 H547 0.950 . S
H544 C540 0.950 . S
C545 C543 1.390 . S
C545 C546 1.387 . S
C545 H548 0.950 . S
C546 C545 1.387 . S
C546 C549 1.387 1_556 S
H547 C543 0.950 . S
H548 C545 0.950 . S
C549 C540 1.390 . S
C549 H542 0.950 . S
C549 C546 1.387 1_554 S
C550 C551 1.387 1_556 S
C550 H554 0.950 . S
C550 C559 1.390 . S
C551 C550 1.387 1_554 S
C551 C553 1.387 . S
H552 C559 0.950 . S
C553 C551 1.387 . S
C553 C555 1.390 . S
C553 H557 0.950 . S
H554 C550 0.950 . S
C555 C553 1.390 . S
C555 C556 1.387 . S
C555 H558 0.950 . S
C556 C555 1.387 . S
C556 C559 1.387 1_554 S
H557 C553 0.950 . S
H558 C555 0.950 . S
C559 C550 1.390 . S
C559 H552 0.950 . S
C559 C556 1.387 1_556 S
C321 C19 2.427 . S
C326 C290 2.427 . S
C331 C250 2.429 . S
C336 C59 2.429 . S
C341 C219 2.427 . S
C346 C90 2.427 . S
C351 C179 2.429 . S
C356 C130 2.429 . S
C361 C89 1.607 . S
C366 C9 1.467 . S
C371 C49 1.466 . S
C376 C129 1.607 . S
C381 C138 1.470 . S
C386 C58 1.607 . S
C391 C98 1.467 . S
C396 C18 1.606 . S
C401 C169 1.466 . S
C406 C249 1.607 . S
C411 C209 1.468 . S
C416 C289 1.608 . S
C421 C298 1.465 . S
C426 C218 1.608 . S
C431 C258 1.466 . S
C436 C178 1.607 . S
C441 C6 1.452 . S
C446 C15 1.452 . S
C451 C46 1.452 . S
C456 C55 1.452 . S
C461 C86 1.451 . S
C466 C95 1.451 . S
C471 C135 1.448 . S
C476 C126 1.448 . S
C481 C175 1.448 . S
C486 C166 1.448 . S
C491 C206 1.448 . S
C496 C215 1.448 . S
C501 C255 1.448 . S
C506 C246 1.448 . S
C511 C295 1.448 . S
C516 C286 1.448 . S
C521 C10 2.148 . S
C526 C50 2.148 . S
C531 C139 2.148 . S
C536 C99 2.148 . S
C541 C170 2.148 . S
C546 C210 2.148 . S
C551 C299 2.149 . S
C556 C259 2.149 . S
