# Generated by pormake.
# Topology vch, (7)-cn, num edge types: 1
# Building blocks:
#     Node 0, Type 0, BuildingBlock: HICVOG_clean_sbu_0, # of connection points: 7
#     Node 1, Type 0, BuildingBlock: HICVOG_clean_sbu_0, # of connection points: 7
#     Node 2, Type 0, BuildingBlock: HICVOG_clean_sbu_0, # of connection points: 7
#     Node 3, Type 0, BuildingBlock: HICVOG_clean_sbu_0, # of connection points: 7
#     Node 4, Type 0, BuildingBlock: HICVOG_clean_sbu_0, # of connection points: 7
#     Node 5, Type 0, BuildingBlock: HICVOG_clean_sbu_0, # of connection points: 7
#     Node 6, Type 0, BuildingBlock: HICVOG_clean_sbu_0, # of connection points: 7
#     Node 7, Type 0, BuildingBlock: HICVOG_clean_sbu_0, # of connection points: 7
#     Node 8, Type 0, BuildingBlock: HICVOG_clean_sbu_0, # of connection points: 7
#     Node 9, Type 0, BuildingBlock: HICVOG_clean_sbu_0, # of connection points: 7
#     Node 10, Type 0, BuildingBlock: HICVOG_clean_sbu_0, # of connection points: 7
#     Node 11, Type 0, BuildingBlock: HICVOG_clean_sbu_0, # of connection points: 7
#     Node 12, Type 0, BuildingBlock: HICVOG_clean_sbu_0, # of connection points: 7
#     Node 13, Type 0, BuildingBlock: HICVOG_clean_sbu_0, # of connection points: 7
#     Node 14, Type 0, BuildingBlock: HICVOG_clean_sbu_0, # of connection points: 7
#     Node 15, Type 0, BuildingBlock: HICVOG_clean_sbu_0, # of connection points: 7
#     Edge 16, Type (0, 0), BuildingBlock: AJUNOK_clean_linker_0, # of connection points: 2
#     Edge 17, Type (0, 0), BuildingBlock: AJUNOK_clean_linker_0, # of connection points: 2
#     Edge 18, Type (0, 0), BuildingBlock: AJUNOK_clean_linker_0, # of connection points: 2
#     Edge 19, Type (0, 0), BuildingBlock: AJUNOK_clean_linker_0, # of connection points: 2
#     Edge 20, Type (0, 0), BuildingBlock: AJUNOK_clean_linker_0, # of connection points: 2
#     Edge 21, Type (0, 0), BuildingBlock: AJUNOK_clean_linker_0, # of connection points: 2
#     Edge 22, Type (0, 0), BuildingBlock: AJUNOK_clean_linker_0, # of connection points: 2
#     Edge 23, Type (0, 0), BuildingBlock: AJUNOK_clean_linker_0, # of connection points: 2
#     Edge 24, Type (0, 0), BuildingBlock: AJUNOK_clean_linker_0, # of connection points: 2
#     Edge 25, Type (0, 0), BuildingBlock: AJUNOK_clean_linker_0, # of connection points: 2
#     Edge 26, Type (0, 0), BuildingBlock: AJUNOK_clean_linker_0, # of connection points: 2
#     Edge 27, Type (0, 0), BuildingBlock: AJUNOK_clean_linker_0, # of connection points: 2
#     Edge 28, Type (0, 0), BuildingBlock: AJUNOK_clean_linker_0, # of connection points: 2
#     Edge 29, Type (0, 0), BuildingBlock: AJUNOK_clean_linker_0, # of connection points: 2
#     Edge 30, Type (0, 0), BuildingBlock: AJUNOK_clean_linker_0, # of connection points: 2
#     Edge 31, Type (0, 0), BuildingBlock: AJUNOK_clean_linker_0, # of connection points: 2
#     Edge 32, Type (0, 0), BuildingBlock: AJUNOK_clean_linker_0, # of connection points: 2
#     Edge 33, Type (0, 0), BuildingBlock: AJUNOK_clean_linker_0, # of connection points: 2
#     Edge 34, Type (0, 0), BuildingBlock: AJUNOK_clean_linker_0, # of connection points: 2
#     Edge 35, Type (0, 0), BuildingBlock: AJUNOK_clean_linker_0, # of connection points: 2
#     Edge 36, Type (0, 0), BuildingBlock: AJUNOK_clean_linker_0, # of connection points: 2
#     Edge 37, Type (0, 0), BuildingBlock: AJUNOK_clean_linker_0, # of connection points: 2
#     Edge 38, Type (0, 0), BuildingBlock: AJUNOK_clean_linker_0, # of connection points: 2
#     Edge 39, Type (0, 0), BuildingBlock: AJUNOK_clean_linker_0, # of connection points: 2
#     Edge 40, Type (0, 0), BuildingBlock: AJUNOK_clean_linker_0, # of connection points: 2
#     Edge 41, Type (0, 0), BuildingBlock: AJUNOK_clean_linker_0, # of connection points: 2
#     Edge 42, Type (0, 0), BuildingBlock: AJUNOK_clean_linker_0, # of connection points: 2
#     Edge 43, Type (0, 0), BuildingBlock: AJUNOK_clean_linker_0, # of connection points: 2
#     Edge 44, Type (0, 0), BuildingBlock: AJUNOK_clean_linker_0, # of connection points: 2
#     Edge 45, Type (0, 0), BuildingBlock: AJUNOK_clean_linker_0, # of connection points: 2
#     Edge 46, Type (0, 0), BuildingBlock: AJUNOK_clean_linker_0, # of connection points: 2
#     Edge 47, Type (0, 0), BuildingBlock: AJUNOK_clean_linker_0, # of connection points: 2
#     Edge 48, Type (0, 0), BuildingBlock: AJUNOK_clean_linker_0, # of connection points: 2
#     Edge 49, Type (0, 0), BuildingBlock: AJUNOK_clean_linker_0, # of connection points: 2
#     Edge 50, Type (0, 0), BuildingBlock: AJUNOK_clean_linker_0, # of connection points: 2
#     Edge 51, Type (0, 0), BuildingBlock: AJUNOK_clean_linker_0, # of connection points: 2
#     Edge 52, Type (0, 0), BuildingBlock: AJUNOK_clean_linker_0, # of connection points: 2
#     Edge 53, Type (0, 0), BuildingBlock: AJUNOK_clean_linker_0, # of connection points: 2
#     Edge 54, Type (0, 0), BuildingBlock: AJUNOK_clean_linker_0, # of connection points: 2
#     Edge 55, Type (0, 0), BuildingBlock: AJUNOK_clean_linker_0, # of connection points: 2
#     Edge 56, Type (0, 0), BuildingBlock: AJUNOK_clean_linker_0, # of connection points: 2
#     Edge 57, Type (0, 0), BuildingBlock: AJUNOK_clean_linker_0, # of connection points: 2
#     Edge 58, Type (0, 0), BuildingBlock: AJUNOK_clean_linker_0, # of connection points: 2
#     Edge 59, Type (0, 0), BuildingBlock: AJUNOK_clean_linker_0, # of connection points: 2
#     Edge 60, Type (0, 0), BuildingBlock: AJUNOK_clean_linker_0, # of connection points: 2
#     Edge 61, Type (0, 0), BuildingBlock: AJUNOK_clean_linker_0, # of connection points: 2
#     Edge 62, Type (0, 0), BuildingBlock: AJUNOK_clean_linker_0, # of connection points: 2
#     Edge 63, Type (0, 0), BuildingBlock: AJUNOK_clean_linker_0, # of connection points: 2
#     Edge 64, Type (0, 0), BuildingBlock: AJUNOK_clean_linker_0, # of connection points: 2
#     Edge 65, Type (0, 0), BuildingBlock: AJUNOK_clean_linker_0, # of connection points: 2
#     Edge 66, Type (0, 0), BuildingBlock: AJUNOK_clean_linker_0, # of connection points: 2
#     Edge 67, Type (0, 0), BuildingBlock: AJUNOK_clean_linker_0, # of connection points: 2
#     Edge 68, Type (0, 0), BuildingBlock: AJUNOK_clean_linker_0, # of connection points: 2
#     Edge 69, Type (0, 0), BuildingBlock: AJUNOK_clean_linker_0, # of connection points: 2
#     Edge 70, Type (0, 0), BuildingBlock: AJUNOK_clean_linker_0, # of connection points: 2
#     Edge 71, Type (0, 0), BuildingBlock: AJUNOK_clean_linker_0, # of connection points: 2
# Relax obj value: 0.118
# Max RMSD: 0.206
# Mean RMSD: 0.206
data_MOF--net-vch--node1-HICVOG_clean_sbu_0--edge1-AJUNOK_clean_linker_0
_symmetry_space_group_name_H-M    P1
_symmetry_Int_Tables_number       1
_symmetry_cell_setting            triclinic
loop_
_symmetry_equiv_pos_as_xyz
'x, y, z'
_cell_length_a     14.230708
_cell_length_b     62.766753
_cell_length_c     37.015217
_cell_angle_alpha  89.832051
_cell_angle_beta   90.007272
_cell_angle_gamma 90.024859
loop_
_atom_site_label
_atom_site_type_symbol
_atom_site_fract_x
_atom_site_fract_y
_atom_site_fract_z
_atom_type_partial_charge
Zn0 Zn 0.9469 0.15858 0.14081 0.0
C1 C 0.12881 0.14298 0.07137 0.0
N2 N 0.05963 0.14691 0.04776 0.0
C3 C 0.98358 0.14611 0.06896 0.0
N4 N 0.00557 0.14221 0.10369 0.0
N5 N 0.09715 0.13941 0.1051 0.0
C6 C 0.3484 0.14403 0.13547 0.0
O7 O 0.30366 0.16196 0.12951 0.0
O8 O 0.80613 0.16125 0.13135 0.0
Zn9 Zn 0.15747 0.12541 0.14591 0.0
N10 N 0.01538 0.18563 0.14292 0.0
C11 C 0.16797 0.20013 0.15309 0.0
C12 C 0.10764 0.18275 0.15111 0.0
C13 C 0.98018 0.20561 0.13755 0.0
N14 N 0.13344 0.21995 0.14772 0.0
C15 C 0.04109 0.22337 0.14035 0.0
O16 O 0.10925 0.13391 0.19647 0.0
C17 C 0.0287 0.1387 0.20952 0.0
O18 O 0.96219 0.14567 0.18982 0.0
H19 H 0.13428 0.16697 0.15614 0.0
H20 H 0.90643 0.20763 0.13129 0.0
C21 C 0.17945 0.07909 0.13857 0.0
C22 C 0.14374 0.05808 0.1391 0.0
C23 C 0.9896 0.07196 0.14629 0.0
C24 C 0.02552 0.09256 0.14678 0.0
N25 N 0.11931 0.09579 0.14276 0.0
N26 N 0.04927 0.05528 0.1426 0.0
H27 H 0.25352 0.08225 0.13483 0.0
C28 C 0.75923 0.14431 0.13745 0.0
O29 O 0.80472 0.12738 0.14886 0.0
O30 O 0.30112 0.12733 0.14295 0.0
H31 H 0.97905 0.10599 0.15051 0.0
H32 H 0.24152 0.19796 0.15945 0.0
H33 H 0.91496 0.0692 0.14928 0.0
Zn34 Zn 0.33878 0.9128 0.14318 0.0
C35 C 0.51105 0.89607 0.06718 0.0
N36 N 0.43847 0.90134 0.04604 0.0
C37 C 0.36745 0.90168 0.06968 0.0
N38 N 0.39561 0.89732 0.10359 0.0
N39 N 0.48612 0.893 0.10188 0.0
C40 C 0.73822 0.89156 0.12925 0.0
O41 O 0.6937 0.90981 0.1264 0.0
O42 O 0.19513 0.91094 0.138 0.0
Zn43 Zn 0.54727 0.87748 0.14017 0.0
N44 N 0.38114 0.94203 0.13607 0.0
C45 C 0.51606 0.96395 0.1277 0.0
C46 C 0.47573 0.94393 0.132 0.0
C47 C 0.3248 0.9596 0.1365 0.0
N48 N 0.46045 0.98145 0.12846 0.0
C49 C 0.36573 0.98001 0.13295 0.0
O50 O 0.53096 0.89196 0.18799 0.0
C51 C 0.46694 0.9004 0.20725 0.0
O52 O 0.38701 0.9057 0.19417 0.0
H53 H 0.51983 0.92995 0.13259 0.0
H54 H 0.24996 0.95772 0.14063 0.0
C55 C 0.50534 0.8301 0.13968 0.0
C56 C 0.44053 0.81322 0.14557 0.0
C57 C 0.32444 0.8385 0.16212 0.0
C58 C 0.388 0.85492 0.15647 0.0
N59 N 0.47705 0.85064 0.14542 0.0
N60 N 0.35197 0.8182 0.15644 0.0
H61 H 0.57687 0.827 0.13133 0.0
C62 C 0.14433 0.89636 0.15199 0.0
O63 O 0.18424 0.88232 0.17341 0.0
O64 O 0.69024 0.87457 0.13381 0.0
H65 H 0.36607 0.87113 0.16056 0.0
H66 H 0.59123 0.96561 0.1243 0.0
H67 H 0.25344 0.84181 0.17086 0.0
Zn68 Zn 0.65711 0.91376 0.42744 0.0
C69 C 0.48007 0.89895 0.5032 0.0
N70 N 0.55195 0.90411 0.52474 0.0
C71 C 0.62418 0.90412 0.50165 0.0
N72 N 0.59733 0.89962 0.46767 0.0
N73 N 0.50646 0.89567 0.46873 0.0
C74 C 0.25687 0.89355 0.44079 0.0
O75 O 0.30088 0.91191 0.44266 0.0
O76 O 0.79973 0.91153 0.43324 0.0
Zn77 Zn 0.44731 0.87994 0.4303 0.0
N78 N 0.61816 0.94317 0.43217 0.0
C79 C 0.48783 0.96678 0.43581 0.0
C80 C 0.52367 0.94624 0.43305 0.0
C81 C 0.67881 0.95991 0.43371 0.0
N82 N 0.54794 0.98353 0.43675 0.0
C83 C 0.64284 0.98084 0.43537 0.0
O84 O 0.4639 0.89391 0.38171 0.0
C85 C 0.5317 0.90108 0.36276 0.0
O86 O 0.61097 0.90597 0.37672 0.0
H87 H 0.47653 0.93278 0.43147 0.0
H88 H 0.75355 0.95683 0.43385 0.0
C89 C 0.48636 0.83282 0.43224 0.0
C90 C 0.55051 0.81561 0.42882 0.0
C91 C 0.67078 0.84018 0.41318 0.0
C92 C 0.60823 0.85693 0.41713 0.0
N93 N 0.51752 0.85315 0.4266 0.0
N94 N 0.64072 0.82009 0.41925 0.0
H95 H 0.41303 0.83024 0.43839 0.0
C96 C 0.85103 0.89732 0.4187 0.0
O97 O 0.81198 0.88365 0.39651 0.0
O98 O 0.3052 0.87661 0.43682 0.0
H99 H 0.63226 0.87299 0.41298 0.0
H100 H 0.41276 0.96943 0.43679 0.0
H101 H 0.74301 0.84308 0.40553 0.0
Zn102 Zn 0.04975 0.15984 0.43351 0.0
C103 C 0.86968 0.13433 0.50351 0.0
N104 N 0.94055 0.13414 0.52723 0.0
C105 C 0.01342 0.13998 0.5066 0.0
N106 N 0.98872 0.14393 0.47202 0.0
N107 N 0.89824 0.1396 0.47003 0.0
C108 C 0.64656 0.14193 0.42223 0.0
O109 O 0.68621 0.15631 0.40139 0.0
O110 O 0.19252 0.16263 0.43963 0.0
Zn111 Zn 0.84048 0.1256 0.42943 0.0
N112 N 0.98139 0.18701 0.42947 0.0
C113 C 0.82817 0.2 0.41595 0.0
C114 C 0.89036 0.18323 0.42054 0.0
C115 C 0.0134 0.20741 0.4337 0.0
N116 N 0.85896 0.22014 0.4207 0.0
C117 C 0.9496 0.22469 0.42953 0.0
O118 O 0.88543 0.1344 0.37912 0.0
C119 C 0.96489 0.13935 0.36534 0.0
O120 O 0.03268 0.14624 0.38457 0.0
H121 H 0.86592 0.16715 0.41713 0.0
H122 H 0.08706 0.20997 0.43921 0.0
C123 C 0.82702 0.07892 0.43402 0.0
C124 C 0.86792 0.05846 0.43527 0.0
C125 C 0.01942 0.07427 0.43604 0.0
C126 C 0.97886 0.0944 0.43421 0.0
N127 N 0.88378 0.0964 0.43333 0.0
N128 N 0.96327 0.05684 0.43636 0.0
H129 H 0.75156 0.08094 0.43264 0.0
C130 C 0.24082 0.14582 0.44524 0.0
O131 O 0.19677 0.12756 0.4491 0.0
O132 O 0.69742 0.12712 0.4354 0.0
H133 H 0.02292 0.1084 0.43309 0.0
H134 H 0.75566 0.19709 0.40874 0.0
H135 H 0.09502 0.07249 0.43681 0.0
Zn136 Zn 0.84416 0.9112 0.92893 0.0
C137 C 0.015 0.88514 1.00245 0.0
N138 N 0.93958 0.88393 1.02382 0.0
C139 C 0.87045 0.88967 1.00133 0.0
N140 N 0.90168 0.89459 0.96789 0.0
N141 N 0.9929 0.89102 0.9686 0.0
C142 C 0.24417 0.89079 0.93078 0.0
O143 O 0.20124 0.90776 0.91811 0.0
O144 O 0.69991 0.9092 0.93023 0.0
Zn145 Zn 0.05356 0.87717 0.92925 0.0
N146 N 0.88539 0.94035 0.93724 0.0
C147 C 0.01697 0.96268 0.94918 0.0
C148 C 0.97927 0.9426 0.94282 0.0
C149 C 0.82767 0.95766 0.93652 0.0
N150 N 0.95961 0.97991 0.94884 0.0
C151 C 0.86568 0.97813 0.94254 0.0
O152 O 0.03844 0.89236 0.88218 0.0
C153 C 0.97308 0.90083 0.86367 0.0
O154 O 0.89324 0.90544 0.87746 0.0
H155 H 0.02474 0.92887 0.94195 0.0
H156 H 0.75333 0.95541 0.9317 0.0
C157 C 0.01981 0.83016 0.92895 0.0
C158 C 0.95845 0.81258 0.92497 0.0
C159 C 0.83369 0.83622 0.91115 0.0
C160 C 0.89448 0.85344 0.91444 0.0
N161 N 0.98595 0.85026 0.92358 0.0
N162 N 0.86693 0.81626 0.91647 0.0
H163 H 0.09266 0.82795 0.93646 0.0
C164 C 0.65478 0.89214 0.9374 0.0
O165 O 0.70194 0.87455 0.94364 0.0
O166 O 0.19483 0.87442 0.93855 0.0
H167 H 0.86854 0.86937 0.91014 0.0
H168 H 0.09151 0.96462 0.95394 0.0
H169 H 0.76064 0.83866 0.90419 0.0
Zn170 Zn 0.6633 0.12318 0.92707 0.0
C171 C 0.48961 0.13379 1.00744 0.0
N172 N 0.56239 0.12666 1.02699 0.0
C173 C 0.63218 0.12691 1.00275 0.0
N174 N 0.6028 0.13348 0.97011 0.0
N175 N 0.51329 0.13849 0.97303 0.0
C176 C 0.26276 0.14235 0.94674 0.0
O177 O 0.30627 0.12392 0.94846 0.0
O178 O 0.80606 0.12501 0.93363 0.0
Zn179 Zn 0.45419 0.15665 0.93717 0.0
N180 N 0.62403 0.09369 0.92573 0.0
C181 C 0.49235 0.07053 0.92063 0.0
C182 C 0.52999 0.09097 0.92128 0.0
C183 C 0.68245 0.0767 0.92999 0.0
N184 N 0.55021 0.05355 0.92479 0.0
C185 C 0.64444 0.05593 0.92976 0.0
O186 O 0.47019 0.14548 0.8869 0.0
C187 C 0.53644 0.13957 0.86617 0.0
O188 O 0.61797 0.13487 0.87831 0.0
H189 H 0.48458 0.10466 0.91836 0.0
H190 H 0.75713 0.07938 0.93301 0.0
C191 C 0.48616 0.20389 0.93955 0.0
C192 C 0.5475 0.22169 0.93963 0.0
C193 C 0.67808 0.19831 0.93742 0.0
C194 C 0.61766 0.18095 0.93597 0.0
N195 N 0.52311 0.18383 0.93798 0.0
N196 N 0.64178 0.2182 0.93909 0.0
H197 H 0.41072 0.20594 0.94062 0.0
C198 C 0.85651 0.14083 0.92412 0.0
O199 O 0.81667 0.15672 0.90679 0.0
O200 O 0.31155 0.15928 0.94327 0.0
H201 H 0.64625 0.16519 0.93301 0.0
H202 H 0.41766 0.06815 0.91696 0.0
H203 H 0.7534 0.19605 0.93654 0.0
Zn204 Zn 0.34411 0.12683 0.64484 0.0
C205 C 0.51733 0.1511 0.57105 0.0
N206 N 0.44162 0.15273 0.54986 0.0
C207 C 0.37224 0.14776 0.57275 0.0
N208 N 0.40366 0.14281 0.60606 0.0
N209 N 0.49536 0.14569 0.60516 0.0
C210 C 0.74313 0.14697 0.63936 0.0
O211 O 0.69837 0.1296 0.64927 0.0
O212 O 0.20006 0.12878 0.6422 0.0
Zn213 Zn 0.55408 0.16122 0.64334 0.0
N214 N 0.38421 0.09754 0.63755 0.0
C215 C 0.51681 0.07465 0.63225 0.0
C216 C 0.47895 0.09493 0.6363 0.0
C217 C 0.32517 0.08049 0.63517 0.0
N218 N 0.4584 0.05764 0.63 0.0
C219 C 0.36329 0.05985 0.63121 0.0
O220 O 0.53646 0.14775 0.69192 0.0
C221 C 0.47019 0.13958 0.71044 0.0
O222 O 0.39265 0.13368 0.69605 0.0
H223 H 0.52486 0.10853 0.63899 0.0
H224 H 0.25015 0.08296 0.63736 0.0
C225 C 0.51772 0.2081 0.63738 0.0
C226 C 0.45503 0.22557 0.639 0.0
C227 C 0.33316 0.20231 0.65771 0.0
C228 C 0.39487 0.18519 0.65618 0.0
N229 N 0.48554 0.18821 0.64579 0.0
N230 N 0.36451 0.22202 0.64908 0.0
H231 H 0.59017 0.21026 0.62926 0.0
C232 C 0.15387 0.14596 0.6373 0.0
O233 O 0.19985 0.16398 0.63422 0.0
O234 O 0.69568 0.16399 0.63467 0.0
H235 H 0.37029 0.16943 0.66289 0.0
H236 H 0.59215 0.0724 0.63128 0.0
H237 H 0.26091 0.20003 0.6659 0.0
Zn238 Zn 0.15641 0.91431 0.64113 0.0
C239 C 0.97733 0.88892 0.56974 0.0
N240 N 0.0522 0.88742 0.54807 0.0
C241 C 0.12203 0.89316 0.57015 0.0
N242 N 0.09168 0.89844 0.60341 0.0
N243 N 0.00026 0.89499 0.60339 0.0
C244 C 0.75849 0.89493 0.64822 0.0
O245 O 0.81033 0.91095 0.65931 0.0
O246 O 0.29979 0.90986 0.63586 0.0
Zn247 Zn 0.94422 0.87952 0.6424 0.0
N248 N 0.1192 0.94395 0.63388 0.0
C249 C 0.98665 0.96662 0.62611 0.0
C250 C 0.02461 0.94644 0.63106 0.0
C251 C 0.17786 0.96115 0.63281 0.0
N252 N 0.04468 0.9837 0.6247 0.0
C253 C 0.13962 0.98178 0.62788 0.0
O254 O 0.96916 0.89283 0.69049 0.0
C255 C 0.03447 0.90188 0.70817 0.0
O256 O 0.11036 0.90819 0.69301 0.0
H257 H 0.97876 0.93278 0.63301 0.0
H258 H 0.25283 0.95868 0.63527 0.0
C259 C 0.9835 0.83218 0.63776 0.0
C260 C 0.04924 0.81515 0.63895 0.0
C261 C 0.17022 0.83988 0.65287 0.0
C262 C 0.10574 0.85642 0.65182 0.0
N263 N 0.01392 0.85249 0.64405 0.0
N264 N 0.14059 0.81977 0.64652 0.0
H265 H 0.90973 0.8294 0.63267 0.0
C266 C 0.35237 0.9068 0.66323 0.0
O267 O 0.3138 0.90678 0.69543 0.0
O268 O 0.79962 0.87807 0.63722 0.0
H269 H 0.12918 0.87245 0.65702 0.0
H270 H 0.91146 0.96874 0.62369 0.0
H271 H 0.24339 0.84296 0.65882 0.0
Zn272 Zn 0.4474 0.65812 0.1361 0.0
C273 C 0.62038 0.62789 0.06966 0.0
N274 N 0.5464 0.62597 0.04762 0.0
C275 C 0.47581 0.63275 0.06849 0.0
N276 N 0.50473 0.63904 0.10141 0.0
N277 N 0.59558 0.63507 0.10249 0.0
C278 C 0.8477 0.64173 0.14608 0.0
O279 O 0.8042 0.65862 0.15852 0.0
O280 O 0.30485 0.6601 0.13011 0.0
Zn281 Zn 0.6566 0.62408 0.14516 0.0
N282 N 0.51408 0.68552 0.13198 0.0
C283 C 0.66811 0.70042 0.12903 0.0
C284 C 0.60888 0.68294 0.13248 0.0
C285 C 0.47582 0.70546 0.13024 0.0
N286 N 0.63055 0.72018 0.1273 0.0
C287 C 0.53614 0.72342 0.12847 0.0
O288 O 0.61434 0.63652 0.19344 0.0
C289 C 0.53613 0.64257 0.2069 0.0
O290 O 0.46772 0.64854 0.18717 0.0
H291 H 0.63851 0.66735 0.13609 0.0
H292 H 0.40023 0.70728 0.13061 0.0
C293 C 0.66656 0.5773 0.14247 0.0
C294 C 0.62515 0.55687 0.14482 0.0
C295 C 0.47798 0.57306 0.15753 0.0
C296 C 0.51921 0.5931 0.15525 0.0
N297 N 0.61245 0.59489 0.14794 0.0
N298 N 0.53167 0.55551 0.15237 0.0
H299 H 0.74011 0.5793 0.13586 0.0
C300 C 0.25709 0.64302 0.13363 0.0
O301 O 0.30229 0.62509 0.13944 0.0
O302 O 0.80008 0.62498 0.13952 0.0
H303 H 0.47714 0.60722 0.15911 0.0
H304 H 0.74358 0.69837 0.12868 0.0
H305 H 0.40379 0.57144 0.16333 0.0
Zn306 Zn 0.84642 0.41175 0.13699 0.0
C307 C 0.02879 0.38582 0.06726 0.0
N308 N 0.95477 0.38453 0.04508 0.0
C309 C 0.88445 0.39061 0.06661 0.0
N310 N 0.91363 0.3959 0.09999 0.0
N311 N 0.0047 0.3921 0.1007 0.0
C312 C 0.24149 0.39343 0.14554 0.0
O313 O 0.18685 0.40931 0.15509 0.0
O314 O 0.70543 0.40501 0.13217 0.0
Zn315 Zn 0.05832 0.37731 0.14091 0.0
N316 N 0.8751 0.44169 0.12742 0.0
C317 C 0.99462 0.46597 0.10896 0.0
C318 C 0.96459 0.44531 0.11603 0.0
C319 C 0.81449 0.4582 0.13282 0.0
N320 N 0.93449 0.48238 0.11413 0.0
C321 C 0.84489 0.47924 0.12585 0.0
O322 O 0.03304 0.3915 0.18805 0.0
C323 C 0.96776 0.401 0.20496 0.0
O324 O 0.8925 0.40715 0.18921 0.0
H325 H 0.01306 0.43228 0.11293 0.0
H326 H 0.74479 0.45498 0.14312 0.0
C327 C 0.0136 0.32999 0.14069 0.0
C328 C 0.94521 0.31356 0.14317 0.0
C329 C 0.8266 0.33968 0.15138 0.0
C330 C 0.89387 0.35561 0.14998 0.0
N331 N 0.98576 0.35073 0.14408 0.0
N332 N 0.85374 0.31918 0.14798 0.0
H333 H 0.08726 0.32643 0.13681 0.0
C334 C 0.6457 0.41025 0.15612 0.0
O335 O 0.67519 0.42071 0.18465 0.0
O336 O 0.20284 0.37588 0.1363 0.0
H337 H 0.87245 0.37192 0.15342 0.0
H338 H 0.06562 0.46898 0.09979 0.0
H339 H 0.75328 0.34354 0.15549 0.0
Zn340 Zn 0.15202 0.41411 0.42516 0.0
C341 C 0.97403 0.39149 0.50007 0.0
N342 N 0.04805 0.39095 0.52221 0.0
C343 C 0.11862 0.39575 0.49977 0.0
N344 N 0.08974 0.39953 0.46563 0.0
N345 N 0.99844 0.39596 0.46579 0.0
C346 C 0.75107 0.39256 0.4264 0.0
O347 O 0.79327 0.4085 0.41002 0.0
O348 O 0.2962 0.41174 0.42738 0.0
Zn349 Zn 0.94218 0.37956 0.42815 0.0
N350 N 0.1131 0.44383 0.42816 0.0
C351 C 0.97839 0.46627 0.42716 0.0
C352 C 0.01826 0.44607 0.4269 0.0
C353 C 0.1706 0.46124 0.42857 0.0
N354 N 0.03511 0.48359 0.4278 0.0
C355 C 0.13046 0.48186 0.42824 0.0
O356 O 0.95928 0.39275 0.37946 0.0
C357 C 0.02487 0.40087 0.36061 0.0
O358 O 0.10391 0.40622 0.37438 0.0
H359 H 0.97405 0.43214 0.42491 0.0
H360 H 0.24601 0.45904 0.42809 0.0
C361 C 0.97954 0.3324 0.43271 0.0
C362 C 0.04349 0.31512 0.43196 0.0
C363 C 0.1675 0.3391 0.41882 0.0
C364 C 0.10455 0.35602 0.41928 0.0
N365 N 0.01222 0.35259 0.42675 0.0
N366 N 0.13568 0.31914 0.42517 0.0
H367 H 0.90565 0.32984 0.43813 0.0
C368 C 0.34145 0.3952 0.43738 0.0
O369 O 0.29458 0.37808 0.44681 0.0
O370 O 0.80086 0.3769 0.43726 0.0
H371 H 0.12933 0.37194 0.41385 0.0
H372 H 0.90292 0.46822 0.42621 0.0
H373 H 0.2411 0.34175 0.41308 0.0
Zn374 Zn 0.55387 0.66137 0.43162 0.0
C375 C 0.3776 0.64271 0.50223 0.0
N376 N 0.44805 0.64696 0.52501 0.0
C377 C 0.52172 0.64757 0.50272 0.0
N378 N 0.49726 0.64419 0.46814 0.0
N379 N 0.40619 0.64042 0.4677 0.0
C380 C 0.15431 0.64603 0.43996 0.0
O381 O 0.20093 0.6628 0.45106 0.0
O382 O 0.6949 0.66391 0.44102 0.0
Zn383 Zn 0.34382 0.62744 0.42595 0.0
N384 N 0.48369 0.68819 0.43134 0.0
C385 C 0.3285 0.70198 0.42473 0.0
C386 C 0.39082 0.68494 0.42466 0.0
C387 C 0.51758 0.70827 0.43679 0.0
N388 N 0.36158 0.72187 0.43058 0.0
C389 C 0.45438 0.72566 0.43641 0.0
O390 O 0.39231 0.63681 0.3757 0.0
C391 C 0.47193 0.64237 0.36263 0.0
O392 O 0.53765 0.64955 0.38236 0.0
H393 H 0.36521 0.66912 0.41925 0.0
H394 H 0.59197 0.71067 0.44132 0.0
C395 C 0.31968 0.5808 0.4281 0.0
C396 C 0.35553 0.5598 0.42775 0.0
C397 C 0.51053 0.57382 0.42577 0.0
C398 C 0.47472 0.59443 0.42551 0.0
N399 N 0.38042 0.59759 0.42714 0.0
N400 N 0.45042 0.55707 0.42691 0.0
H401 H 0.24503 0.58386 0.42963 0.0
C402 C 0.7447 0.64845 0.42953 0.0
O403 O 0.70254 0.63279 0.41254 0.0
O404 O 0.19976 0.62993 0.42838 0.0
H405 H 0.52165 0.60793 0.42377 0.0
H406 H 0.25447 0.69951 0.41962 0.0
H407 H 0.58556 0.57112 0.42475 0.0
Zn408 Zn 0.55755 0.37591 0.92869 0.0
C409 C 0.38136 0.40144 0.99901 0.0
N410 N 0.4541 0.40179 1.02188 0.0
C411 C 0.52528 0.39606 1.00044 0.0
N412 N 0.49796 0.3921 0.96633 0.0
N413 N 0.4073 0.39632 0.96518 0.0
C414 C 0.15456 0.39435 0.91647 0.0
O415 O 0.19431 0.38042 0.89496 0.0
O416 O 0.70031 0.37295 0.93502 0.0
Zn417 Zn 0.34851 0.41129 0.92536 0.0
N418 N 0.48679 0.3491 0.92461 0.0
C419 C 0.33331 0.33697 0.90926 0.0
C420 C 0.39712 0.35339 0.91431 0.0
C421 C 0.51569 0.32853 0.9299 0.0
N422 N 0.36137 0.31666 0.91459 0.0
C423 C 0.4507 0.31164 0.92452 0.0
O424 O 0.39733 0.40405 0.87458 0.0
C425 C 0.47636 0.3983 0.86132 0.0
O426 O 0.5405 0.38981 0.88052 0.0
H427 H 0.37502 0.36961 0.91023 0.0
H428 H 0.58788 0.32543 0.93739 0.0
C429 C 0.3265 0.45773 0.93275 0.0
C430 C 0.36291 0.4785 0.93738 0.0
C431 C 0.51699 0.46408 0.94027 0.0
C432 C 0.48082 0.44368 0.93559 0.0
N433 N 0.38658 0.44082 0.93207 0.0
N434 N 0.45754 0.48094 0.94087 0.0
H435 H 0.25211 0.45504 0.92883 0.0
C436 C 0.74801 0.3901 0.93772 0.0
O437 O 0.70318 0.40838 0.93844 0.0
O438 O 0.20537 0.40884 0.93056 0.0
H439 H 0.52769 0.43018 0.93444 0.0
H440 H 0.26177 0.34028 0.90116 0.0
H441 H 0.59189 0.46653 0.94311 0.0
Zn442 Zn 0.94506 0.65844 0.92955 0.0
C443 C 0.11615 0.63961 1.00291 0.0
N444 N 0.04464 0.64435 1.02489 0.0
C445 C 0.97244 0.64526 1.00187 0.0
N446 N 0.99901 0.64168 0.96755 0.0
N447 N 0.08967 0.63735 0.96814 0.0
C448 C 0.34394 0.6424 0.94171 0.0
O449 O 0.29739 0.65904 0.95332 0.0
O450 O 0.80347 0.6615 0.93838 0.0
Zn451 Zn 0.15394 0.6237 0.9274 0.0
N452 N 0.01868 0.68498 0.92748 0.0
C453 C 0.17671 0.69653 0.91913 0.0
C454 C 0.11077 0.68036 0.92173 0.0
C455 C 0.98927 0.70569 0.92967 0.0
N456 N 0.14811 0.71697 0.92156 0.0
C457 C 0.05638 0.72235 0.92629 0.0
O458 O 0.10783 0.63262 0.87667 0.0
C459 C 0.03021 0.63841 0.86223 0.0
O460 O 0.96226 0.64563 0.88082 0.0
H461 H 0.13304 0.66409 0.91883 0.0
H462 H 0.91523 0.70903 0.93299 0.0
C463 C 0.17451 0.57678 0.93229 0.0
C464 C 0.13597 0.55602 0.9337 0.0
C465 C 0.98311 0.57087 0.92814 0.0
C466 C 0.02144 0.59124 0.92689 0.0
N467 N 0.11591 0.5939 0.92948 0.0
N468 N 0.04094 0.55384 0.93156 0.0
H469 H 0.24955 0.57937 0.93395 0.0
C470 C 0.75273 0.6463 0.92638 0.0
O471 O 0.79392 0.63083 0.90856 0.0
O472 O 0.29834 0.62629 0.9301 0.0
H473 H 0.97632 0.60496 0.92367 0.0
H474 H 0.2501 0.69297 0.91459 0.0
H475 H 0.90794 0.56858 0.92621 0.0
Zn476 Zn 0.84122 0.6251 0.64448 0.0
C477 C 0.01846 0.63601 0.56784 0.0
N478 N 0.94705 0.62938 0.54726 0.0
C479 C 0.87428 0.63097 0.56991 0.0
N480 N 0.90023 0.63788 0.60274 0.0
N481 N 0.99107 0.64186 0.60118 0.0
C482 C 0.24024 0.64511 0.63362 0.0
O483 O 0.19448 0.62723 0.63935 0.0
O484 O 0.69708 0.62649 0.64004 0.0
Zn485 Zn 0.05019 0.66022 0.63636 0.0
N486 N 0.88315 0.59579 0.64194 0.0
C487 C 0.01731 0.57322 0.63965 0.0
C488 C 0.97805 0.59342 0.64265 0.0
C489 C 0.8253 0.57863 0.63877 0.0
N490 N 0.95999 0.55607 0.63658 0.0
C491 C 0.86473 0.55806 0.63616 0.0
O492 O 0.0312 0.64921 0.68663 0.0
C493 C 0.96746 0.64126 0.70664 0.0
O494 O 0.88908 0.63475 0.6939 0.0
H495 H 0.02286 0.60722 0.64536 0.0
H496 H 0.75003 0.58103 0.63792 0.0
C497 C 0.01758 0.7076 0.62973 0.0
C498 C 0.95464 0.72508 0.62788 0.0
C499 C 0.82632 0.70134 0.63479 0.0
C500 C 0.88829 0.68433 0.63762 0.0
N501 N 0.98231 0.68749 0.63409 0.0
N502 N 0.8608 0.72123 0.63015 0.0
H503 H 0.09275 0.70996 0.62776 0.0
C504 C 0.64957 0.64314 0.64737 0.0
O505 O 0.69319 0.65983 0.66046 0.0
O506 O 0.19292 0.66225 0.63007 0.0
H507 H 0.86161 0.66859 0.64277 0.0
H508 H 0.09278 0.57115 0.63994 0.0
H509 H 0.75132 0.69886 0.63689 0.0
Zn510 Zn 0.65842 0.41345 0.64188 0.0
C511 C 0.47732 0.40209 0.56585 0.0
N512 N 0.54836 0.40835 0.54464 0.0
C513 C 0.62118 0.40754 0.56738 0.0
N514 N 0.59565 0.40142 0.60071 0.0
N515 N 0.505 0.39728 0.59972 0.0
C516 C 0.25853 0.39354 0.62892 0.0
O517 O 0.30275 0.41191 0.62847 0.0
O518 O 0.80095 0.41139 0.63514 0.0
Zn519 Zn 0.44937 0.37957 0.63676 0.0
N520 N 0.61847 0.44287 0.64053 0.0
C521 C 0.48587 0.46593 0.64007 0.0
C522 C 0.52374 0.44554 0.64159 0.0
C523 C 0.67752 0.45987 0.63824 0.0
N524 N 0.54435 0.48292 0.63776 0.0
C525 C 0.63945 0.4806 0.63663 0.0
O526 O 0.46851 0.3914 0.68657 0.0
C527 C 0.53706 0.39799 0.70564 0.0
O528 O 0.61552 0.40339 0.69161 0.0
H529 H 0.47799 0.43185 0.64369 0.0
H530 H 0.75261 0.45721 0.63845 0.0
C531 C 0.48905 0.3325 0.6326 0.0
C532 C 0.55429 0.31539 0.63183 0.0
C533 C 0.67932 0.34017 0.6379 0.0
C534 C 0.61519 0.35675 0.63947 0.0
N535 N 0.52163 0.35288 0.63596 0.0
N536 N 0.6475 0.32001 0.63426 0.0
H537 H 0.41411 0.32978 0.63171 0.0
C538 C 0.85144 0.3964 0.64795 0.0
O539 O 0.8115 0.38189 0.66844 0.0
O540 O 0.30672 0.37644 0.63124 0.0
H541 H 0.64018 0.37271 0.64371 0.0
H542 H 0.41058 0.46827 0.64087 0.0
H543 H 0.75392 0.3432 0.64009 0.0
C544 C 0.60318 0.16273 0.13052 0.0
C545 C 0.65487 0.14373 0.134 0.0
C546 C 0.50441 0.1626 0.13033 0.0
C547 C 0.45302 0.14347 0.13355 0.0
H548 H 0.63911 0.17792 0.12888 0.0
H549 H 0.46821 0.17774 0.12839 0.0
S550 S 0.5546 0.08906 0.13851 0.0
N551 N 0.64672 0.10502 0.13753 0.0
N552 N 0.46194 0.10482 0.13686 0.0
C553 C 0.50385 0.12427 0.13533 0.0
C554 C 0.60438 0.1244 0.13563 0.0
C555 C 0.98676 0.87876 0.1605 0.0
C556 C 0.04176 0.89463 0.14357 0.0
C557 C 0.88946 0.87715 0.15434 0.0
C558 C 0.84271 0.89147 0.13127 0.0
H559 H 0.01865 0.86764 0.17926 0.0
H560 H 0.85004 0.86512 0.16892 0.0
S561 S 0.95473 0.93404 0.07632 0.0
N562 N 0.04242 0.92351 0.0995 0.0
N563 N 0.85977 0.92082 0.08885 0.0
C564 C 0.89709 0.90683 0.11297 0.0
C565 C 0.9964 0.90832 0.11884 0.0
C566 C 0.00854 0.87971 0.41105 0.0
C567 C 0.95344 0.89576 0.4272 0.0
C568 C 0.10592 0.87838 0.41706 0.0
C569 C 0.15252 0.89321 0.43912 0.0
H570 H 0.97667 0.86823 0.39302 0.0
H571 H 0.14548 0.86618 0.4031 0.0
S572 S 0.04023 0.9365 0.4918 0.0
N573 N 0.95249 0.92539 0.46954 0.0
N574 N 0.13537 0.92324 0.47982 0.0
C575 C 0.09803 0.90874 0.4567 0.0
C576 C 0.99866 0.90993 0.45104 0.0
C577 C 0.48862 0.15928 0.41414 0.0
C578 C 0.54416 0.14344 0.43082 0.0
C579 C 0.39134 0.16065 0.42034 0.0
C580 C 0.34522 0.14611 0.44324 0.0
H581 H 0.52002 0.17055 0.39549 0.0
H582 H 0.35147 0.17266 0.40593 0.0
S583 S 0.45909 0.10365 0.4978 0.0
N584 N 0.5462 0.1144 0.47458 0.0
N585 N 0.36357 0.11672 0.48552 0.0
C586 C 0.40022 0.13084 0.46143 0.0
C587 C 0.49949 0.12957 0.45543 0.0
C588 C 0.40085 0.90752 0.91837 0.0
C589 C 0.34846 0.89101 0.93468 0.0
C590 C 0.49936 0.90801 0.92009 0.0
C591 C 0.5501 0.89193 0.93801 0.0
H592 H 0.36573 0.92009 0.90349 0.0
H593 H 0.53602 0.92085 0.90648 0.0
S594 S 0.44672 0.84664 0.98928 0.0
N595 N 0.3549 0.85925 0.97231 0.0
N596 N 0.53992 0.85995 0.97517 0.0
C597 C 0.49864 0.87571 0.95557 0.0
C598 C 0.39803 0.8753 0.954 0.0
C599 C 0.1129 0.15875 0.92428 0.0
C600 C 0.15839 0.14292 0.94478 0.0
C601 C 0.01545 0.15804 0.9182 0.0
C602 C 0.95912 0.14157 0.93258 0.0
H603 H 0.15333 0.17136 0.91165 0.0
H604 H 0.98451 0.17033 0.9014 0.0
S605 S 0.04246 0.09809 0.99295 0.0
N606 N 0.13868 0.11148 0.9825 0.0
N607 N 0.95579 0.11029 0.97164 0.0
C608 C 0.00326 0.12627 0.95477 0.0
C609 C 0.10267 0.12691 0.9607 0.0
C610 C 0.89998 0.16549 0.63831 0.0
C611 C 0.84737 0.1466 0.63549 0.0
C612 C 0.9988 0.16514 0.63821 0.0
C613 C 0.04921 0.14587 0.6352 0.0
H614 H 0.86471 0.18064 0.64175 0.0
H615 H 0.03583 0.18009 0.64139 0.0
S616 S 0.94478 0.09232 0.6213 0.0
N617 N 0.85337 0.10828 0.62571 0.0
N618 N 0.03834 0.10768 0.62531 0.0
C619 C 0.9974 0.12699 0.63049 0.0
C620 C 0.89684 0.12734 0.63068 0.0
C621 C 0.49514 0.89534 0.62709 0.0
C622 C 0.45588 0.90339 0.65936 0.0
C623 C 0.59284 0.89169 0.62379 0.0
C624 C 0.65474 0.89642 0.65235 0.0
H625 H 0.45009 0.89171 0.60432 0.0
H626 H 0.62029 0.88572 0.59846 0.0
S627 S 0.58893 0.91787 0.74214 0.0
N628 N 0.48818 0.91578 0.72035 0.0
N629 N 0.67005 0.90945 0.71372 0.0
C630 C 0.61641 0.90448 0.68452 0.0
C631 C 0.51756 0.90782 0.68814 0.0
C632 C 0.00405 0.62345 0.14093 0.0
C633 C 0.95104 0.64233 0.13988 0.0
C634 C 0.10247 0.62385 0.13793 0.0
C635 C 0.15217 0.64314 0.13336 0.0
H636 H 0.9696 0.60825 0.14523 0.0
H637 H 0.13985 0.60887 0.13995 0.0
S638 S 0.04475 0.69674 0.12347 0.0
N639 N 0.9546 0.68068 0.13036 0.0
N640 N 0.13901 0.68142 0.12431 0.0
C641 C 0.09941 0.66202 0.13028 0.0
C642 C 0.99917 0.66162 0.13368 0.0
C643 C 0.38133 0.41218 0.17076 0.0
C644 C 0.34535 0.39649 0.1474 0.0
C645 C 0.47787 0.41632 0.17323 0.0
C646 C 0.54358 0.4052 0.15208 0.0
H647 H 0.33441 0.42138 0.18768 0.0
H648 H 0.50091 0.42856 0.19181 0.0
S649 S 0.48661 0.36252 0.08619 0.0
N650 N 0.38331 0.36969 0.1025 0.0
N651 N 0.56534 0.37762 0.10669 0.0
C652 C 0.50886 0.38949 0.1283 0.0
C653 C 0.40986 0.38506 0.12614 0.0
C654 C 0.59391 0.40841 0.41202 0.0
C655 C 0.64718 0.39321 0.43128 0.0
C656 C 0.49567 0.40927 0.41487 0.0
C657 C 0.44608 0.39488 0.43692 0.0
H658 H 0.6281 0.41961 0.394 0.0
H659 H 0.45821 0.421 0.3989 0.0
S660 S 0.55249 0.35382 0.49679 0.0
N661 N 0.64316 0.36478 0.476 0.0
N662 N 0.4585 0.36606 0.48081 0.0
C663 C 0.49852 0.38005 0.45733 0.0
C664 C 0.59891 0.3793 0.45466 0.0
C665 C 0.00029 0.63236 0.41671 0.0
C666 C 0.04968 0.64627 0.43957 0.0
C667 C 0.90201 0.63315 0.41403 0.0
C668 C 0.84856 0.64779 0.43427 0.0
H669 H 0.03789 0.62107 0.40001 0.0
H670 H 0.86793 0.62235 0.39538 0.0
S671 S 0.94265 0.68566 0.50203 0.0
N672 N 0.03684 0.67397 0.4852 0.0
N673 N 0.85213 0.67509 0.48069 0.0
C674 C 0.89662 0.66118 0.45842 0.0
C675 C 0.99702 0.66051 0.46093 0.0
C676 C 0.99765 0.37628 0.90935 0.0
C677 C 0.05191 0.39277 0.9247 0.0
C678 C 0.90016 0.37485 0.91517 0.0
C679 C 0.85251 0.39001 0.93621 0.0
H680 H 0.03031 0.36449 0.89212 0.0
H681 H 0.86134 0.36227 0.90185 0.0
S682 S 0.9622 0.43469 0.98641 0.0
N683 N 0.05081 0.4233 0.96515 0.0
N684 N 0.86781 0.42097 0.97498 0.0
C685 C 0.90612 0.40605 0.95292 0.0
C686 C 0.00561 0.40733 0.9475 0.0
C687 C 0.49683 0.62961 0.91603 0.0
C688 C 0.44856 0.64298 0.94011 0.0
C689 C 0.59476 0.63085 0.91206 0.0
C690 C 0.6491 0.64542 0.93213 0.0
H691 H 0.45853 0.61841 0.89937 0.0
H692 H 0.62783 0.62042 0.89259 0.0
S693 S 0.55849 0.68196 1.00262 0.0
N694 N 0.46366 0.67011 0.98661 0.0
N695 N 0.64776 0.67207 0.97964 0.0
C696 C 0.60228 0.6583 0.95743 0.0
C697 C 0.50217 0.65716 0.96128 0.0
C698 C 0.49254 0.62512 0.64183 0.0
C699 C 0.54626 0.64391 0.641 0.0
C700 C 0.39418 0.62569 0.63849 0.0
C701 C 0.34523 0.64506 0.63374 0.0
H702 H 0.52638 0.60987 0.64621 0.0
H703 H 0.35623 0.61077 0.64037 0.0
S704 S 0.45488 0.69848 0.62432 0.0
N705 N 0.54427 0.68226 0.63155 0.0
N706 N 0.36003 0.68332 0.62479 0.0
C707 C 0.39877 0.66386 0.6309 0.0
C708 C 0.49894 0.66329 0.63469 0.0
C709 C 0.10648 0.37759 0.65011 0.0
C710 C 0.15411 0.39318 0.62985 0.0
C711 C 0.00873 0.37864 0.65531 0.0
C712 C 0.95427 0.39518 0.6401 0.0
H713 H 0.14542 0.36495 0.66331 0.0
H714 H 0.97605 0.36654 0.67203 0.0
S715 S 0.04416 0.43814 0.58003 0.0
N716 N 0.13882 0.42455 0.59166 0.0
N717 N 0.95532 0.42624 0.6005 0.0
C718 C 0.00067 0.41019 0.61801 0.0
C719 C 0.1004 0.40927 0.61316 0.0
C720 C 0.27014 0.12167 0.05909 0.0
C721 C 0.22528 0.14147 0.05948 0.0
C722 C 0.3564 0.1194 0.04166 0.0
C723 C 0.39822 0.13678 1.02384 0.0
H724 H 0.2371 0.10784 0.07123 0.0
H725 H 0.38986 0.10389 0.04151 0.0
S726 S 0.31222 0.19228 1.02095 0.0
N727 N 0.22981 0.17895 0.0429 0.0
N728 N 0.39446 0.17468 1.01093 0.0
C729 C 0.35587 0.1568 1.02541 0.0
C730 C 0.268 0.15911 0.04293 0.0
C731 C 0.24098 0.91165 1.02789 0.0
C732 C 0.27175 0.89897 0.05679 0.0
C733 C 0.15927 0.90646 1.00912 0.0
C734 C 0.10741 0.88821 1.01829 0.0
H735 H 0.28145 0.92539 1.01931 0.0
H736 H 0.13582 0.91701 0.98779 0.0
S737 S 0.16086 0.84931 0.09057 0.0
N738 N 0.24667 0.86698 0.09277 0.0
N739 N 0.09103 0.85754 0.05777 0.0
C740 C 0.13697 0.8755 0.0472 0.0
C741 C 0.21999 0.88078 0.06637 0.0
C742 C 0.74849 0.91424 0.54443 0.0
C743 C 0.71943 0.90156 0.51533 0.0
C744 C 0.83024 0.90934 0.56351 0.0
C745 C 0.88414 0.89146 0.55428 0.0
H746 H 0.7068 0.92779 0.55284 0.0
H747 H 0.8525 0.91991 0.58496 0.0
S748 S 0.8342 0.85228 0.48244 0.0
N749 N 0.74727 0.86964 0.47982 0.0
N750 N 0.90302 0.86081 0.51523 0.0
C751 C 0.85571 0.87861 0.52548 0.0
C752 C 0.77258 0.88356 0.50609 0.0
C753 C 0.74043 0.12375 0.54397 0.0
C754 C 0.77381 0.13713 0.51643 0.0
C755 C 0.65845 0.12882 0.56276 0.0
C756 C 0.60924 0.14766 0.55502 0.0
H757 H 0.77894 0.10951 0.55141 0.0
H758 H 0.63271 0.11778 0.58302 0.0
S759 S 0.66867 0.18823 0.48624 0.0
N760 N 0.75277 0.17022 0.48298 0.0
N761 N 0.59712 0.17945 0.51804 0.0
C762 C 0.64097 0.16099 0.52732 0.0
C763 C 0.72405 0.15583 0.50812 0.0
C764 C 0.73526 0.87349 1.0316 0.0
C765 C 0.77516 0.89141 1.01461 0.0
C766 C 0.65028 0.8751 0.05014 0.0
C767 C 0.60493 0.89477 0.05258 0.0
H768 H 0.77053 0.8582 1.03072 0.0
H769 H 0.61941 0.86097 0.06214 0.0
S770 S 0.68466 0.94655 1.01558 0.0
N771 N 0.76683 0.92943 1.00342 0.0
N772 N 0.6052 0.93251 0.03781 0.0
C773 C 0.64438 0.91279 0.03605 0.0
C774 C 0.73059 0.91113 1.0172 0.0
C775 C 0.77362 0.14916 1.00821 0.0
C776 C 0.72841 0.12966 1.01512 0.0
C777 C 0.85532 0.15474 1.02673 0.0
C778 C 0.89249 0.14119 0.0532 0.0
H779 H 0.74373 0.16054 0.98945 0.0
H780 H 0.88913 0.1698 1.02059 0.0
S781 S 0.80753 0.08714 0.07725 0.0
N782 N 0.73008 0.0961 0.04765 0.0
N783 N 0.88577 0.10637 0.08212 0.0
C784 C 0.85022 0.12127 0.05923 0.0
C785 C 0.7672 0.11559 0.04033 0.0
C786 C 0.14504 0.12488 0.54076 0.0
C787 C 0.10605 0.14234 0.52221 0.0
C788 C 0.23003 0.12688 0.5592 0.0
C789 C 0.27624 0.14653 0.56007 0.0
H790 H 0.10989 0.10955 0.54068 0.0
H791 H 0.26092 0.11296 0.57189 0.0
S792 S 0.1979 0.19735 0.51887 0.0
N793 N 0.11502 0.18004 0.50813 0.0
N794 N 0.27665 0.18387 0.54245 0.0
C795 C 0.23663 0.1642 0.54247 0.0
C796 C 0.15039 0.16213 0.5237 0.0
C797 C 0.34214 0.87795 0.52202 0.0
C798 C 0.38572 0.89773 0.51742 0.0
C799 C 0.25797 0.8765 0.54122 0.0
C800 C 0.21737 0.8947 0.55682 0.0
H801 H 0.37377 0.86362 0.51118 0.0
H802 H 0.22375 0.86113 0.5436 0.0
S803 S 0.30328 0.95013 0.55019 0.0
N804 N 0.38291 0.93581 0.52872 0.0
N805 N 0.22314 0.93302 0.56447 0.0
C806 C 0.2603 0.9145 0.55215 0.0
C807 C 0.34542 0.91601 0.53253 0.0
C808 C 0.76565 0.64911 0.06352 0.0
C809 C 0.71369 0.6309 0.05424 0.0
C810 C 0.84708 0.65451 0.04465 0.0
C811 C 0.87738 0.64218 1.01539 0.0
H812 H 0.74223 0.65956 0.08486 0.0
H813 H 0.88736 0.66825 0.05328 0.0
S814 S 0.76637 0.59282 0.9809 0.0
N815 N 0.69733 0.60059 1.01418 0.0
N816 N 0.85194 0.61056 0.97886 0.0
C817 C 0.82581 0.62401 1.00572 0.0
C818 C 0.74328 0.61845 1.02508 0.0
C819 C 0.66314 0.37511 1.01942 0.0
C820 C 0.61997 0.39488 1.01428 0.0
C821 C 0.74782 0.3738 0.03832 0.0
C822 C 0.78948 0.39216 0.05292 0.0
H823 H 0.63056 0.36068 1.00941 0.0
H824 H 0.78138 0.3584 0.04135 0.0
S825 S 0.70658 0.44766 0.04345 0.0
N826 N 0.62524 0.43315 1.02332 0.0
N827 N 0.78603 0.43063 0.05845 0.0
C828 C 0.74736 0.41198 0.04744 0.0
C829 C 0.66166 0.41333 1.02818 0.0
C830 C 0.25236 0.37954 0.53082 0.0
C831 C 0.21336 0.39739 0.5134 0.0
C832 C 0.33737 0.38114 0.54934 0.0
C833 C 0.38303 0.4008 0.55162 0.0
H834 H 0.21669 0.36428 0.5301 0.0
H835 H 0.36815 0.36701 0.56135 0.0
S836 S 0.30482 0.45242 0.51356 0.0
N837 N 0.22272 0.43529 0.50131 0.0
N838 N 0.38345 0.43848 0.53637 0.0
C839 C 0.344 0.41878 0.5348 0.0
C840 C 0.25827 0.41707 0.51566 0.0
C841 C 0.15864 0.65693 0.55158 0.0
C842 C 0.11236 0.63733 0.55324 0.0
C843 C 0.24402 0.65865 0.5334 0.0
C844 C 0.28268 0.64097 0.51555 0.0
H845 H 0.12804 0.67098 0.56381 0.0
H846 H 0.2802 0.67385 0.53326 0.0
S847 S 0.1885 0.58618 0.51312 0.0
N848 N 0.11028 0.59991 0.53638 0.0
N849 N 0.27179 0.60332 0.50193 0.0
C850 C 0.23695 0.62136 0.51699 0.0
C851 C 0.15078 0.61953 0.5358 0.0
C852 C 0.17587 0.4063 0.06125 0.0
C853 C 0.1225 0.38828 0.05222 0.0
C854 C 0.2575 0.41127 0.04216 0.0
C855 C 0.28672 0.39859 1.01312 0.0
H856 H 0.15315 0.41696 0.08245 0.0
H857 H 0.29868 0.42495 0.0504 0.0
S858 S 0.17298 0.3491 0.98042 0.0
N859 N 0.1043 0.35754 1.01331 0.0
N860 N 0.25945 0.36659 0.9777 0.0
C861 C 0.2341 0.38047 1.00403 0.0
C862 C 0.1513 0.3754 1.02353 0.0
C863 C 0.2504 0.65549 1.03398 0.0
C864 C 0.2103 0.63766 1.01704 0.0
C865 C 0.33622 0.65381 0.0519 0.0
C866 C 0.38134 0.63409 0.05435 0.0
H867 H 0.21538 0.67081 1.03309 0.0
H868 H 0.36812 0.66797 0.06326 0.0
S869 S 0.30037 0.58251 1.01734 0.0
N870 N 0.21811 0.59973 1.00548 0.0
N871 N 0.38017 0.59638 0.03958 0.0
C872 C 0.34108 0.61612 0.03807 0.0
C873 C 0.25458 0.61791 1.01944 0.0
C874 C 0.72802 0.65169 0.56463 0.0
C875 C 0.78003 0.63349 0.55546 0.0
C876 C 0.64612 0.65686 0.54591 0.0
C877 C 0.61566 0.64427 0.51698 0.0
H878 H 0.75212 0.66235 0.58562 0.0
H879 H 0.60606 0.6707 0.55418 0.0
S880 S 0.72536 0.59451 0.48371 0.0
N881 N 0.79533 0.60269 0.51644 0.0
N882 N 0.63974 0.61221 0.48144 0.0
C883 C 0.66662 0.62596 0.50777 0.0
C884 C 0.74958 0.62064 0.52694 0.0
C885 C 0.76858 0.38728 0.56264 0.0
C886 C 0.71593 0.40539 0.55337 0.0
C887 C 0.8505 0.38226 0.54386 0.0
C888 C 0.88065 0.39499 0.51491 0.0
H889 H 0.74483 0.37655 0.58371 0.0
H890 H 0.8907 0.36841 0.55206 0.0
S891 S 0.77073 0.44508 0.48252 0.0
N892 N 0.70047 0.43652 0.51493 0.0
N893 N 0.85653 0.42744 0.48003 0.0
C894 C 0.82963 0.4134 0.50601 0.0
C895 C 0.74641 0.41849 0.52515 0.0
C896 C 0.17017 0.02058 0.11881 0.0
C897 C 0.20444 0.03883 0.13664 0.0
C898 C 0.22176 1.00154 0.11794 0.0
C899 C 0.30984 0.99996 0.13491 0.0
H900 H 0.10264 0.02101 0.1053 0.0
H901 H 0.19293 0.98807 0.10343 0.0
S902 S 0.42826 0.04234 0.18791 0.0
N903 N 0.32993 0.0535 0.17371 0.0
N904 N 0.42759 1.01795 0.17139 0.0
C905 C 0.34485 1.01801 0.15301 0.0
C906 C 0.2921 0.03737 0.15409 0.0
C907 C 0.72807 0.037 0.45512 0.0
C908 C 0.81088 0.03869 0.43463 0.0
C909 C 0.67563 1.01807 0.45555 0.0
C910 C 0.70381 1.00009 0.43556 0.0
H911 H 0.70431 0.05026 0.4714 0.0
H912 H 0.61252 1.01751 0.4719 0.0
S913 S 0.9113 0.99711 0.37491 0.0
N914 N 0.91662 0.0212 0.39254 0.0
N915 N 0.81699 0.98588 0.3926 0.0
C916 C 0.78584 1.00172 0.41448 0.0
C917 C 0.83957 0.02095 0.41426 0.0
C918 C 0.73324 0.99958 0.91612 0.0
C919 C 0.80766 0.99782 0.94097 0.0
C920 C 0.68179 1.0185 0.91274 0.0
C921 C 0.70303 0.03653 0.93376 0.0
H922 H 0.71575 0.98646 0.89843 0.0
H923 H 0.62557 0.01911 0.89301 0.0
S924 S 0.88601 0.03975 1.00497 0.0
N925 N 0.89686 1.01547 0.98839 0.0
N926 N 0.79962 0.05098 0.98205 0.0
C927 C 0.77619 0.03494 0.95915 0.0
C928 C 0.8286 1.01562 0.96268 0.0
C929 C 0.28164 1.00296 0.64725 0.0
C930 C 0.19822 1.00151 0.62695 0.0
C931 C 0.33376 0.02193 0.64841 0.0
C932 C 0.30428 0.04034 0.62976 0.0
H933 H 0.30606 0.98958 0.66318 0.0
H934 H 0.39715 0.02227 0.66462 0.0
S935 S 0.09546 0.04466 0.57024 0.0
N936 N 0.09166 0.02002 0.58596 0.0
N937 N 0.18959 0.05558 0.58853 0.0
C938 C 0.22201 0.0391 0.60891 0.0
C939 C 0.16911 0.01974 0.60747 0.0
C940 C 0.82626 0.51684 0.14598 0.0
C941 C 0.78496 0.49826 0.13185 0.0
C942 C 0.77476 0.5357 0.15001 0.0
C943 C 0.6798 0.53688 0.13961 0.0
H944 H 0.89931 0.5168 0.15425 0.0
H945 H 0.8097 0.54931 0.16186 0.0
S946 S 0.53958 0.49298 0.09922 0.0
N947 N 0.64399 0.48237 0.10648 0.0
N948 N 0.54706 0.5178 0.11357 0.0
C949 C 0.63755 0.51838 0.12533 0.0
C950 C 0.69003 0.4991 0.12152 0.0
C951 C 0.27277 0.50321 0.4466 0.0
C952 C 0.18781 0.50173 0.42737 0.0
C953 C 0.32501 0.52218 0.44699 0.0
C954 C 0.29457 0.54051 0.42825 0.0
H955 H 0.29866 0.48975 0.46196 0.0
H956 H 0.38985 0.52251 0.46232 0.0
S957 S 0.08089 0.54443 0.37106 0.0
N958 N 0.07785 0.51999 0.38758 0.0
N959 N 0.1767 0.55542 0.38786 0.0
C960 C 0.21039 0.53917 0.40847 0.0
C961 C 0.15699 0.51987 0.40817 0.0
C962 C 0.33573 0.51645 0.9197 0.0
C963 C 0.30295 0.4979 0.93716 0.0
C964 C 0.28276 0.53529 0.91926 0.0
C965 C 0.19492 0.53646 0.93658 0.0
H966 H 0.40253 0.51631 0.90565 0.0
H967 H 0.31007 0.54883 0.9044 0.0
S968 S 0.08176 0.49309 0.98962 0.0
N969 N 0.18015 0.48239 0.97455 0.0
N970 N 0.08029 0.5177 0.97375 0.0
C971 C 0.16228 0.51815 0.95492 0.0
C972 C 0.21624 0.49893 0.95525 0.0
C973 C 0.72298 0.53693 0.6546 0.0
C974 C 0.80603 0.53855 0.63421 0.0
C975 C 0.6703 0.51808 0.65506 0.0
C976 C 0.69867 0.50004 0.63538 0.0
H977 H 0.69955 0.55009 0.67116 0.0
H978 H 0.60747 0.51754 0.67157 0.0
S979 S 0.90606 0.49667 0.57487 0.0
N980 N 0.91149 0.52087 0.59212 0.0
N981 N 0.81162 0.48553 0.59269 0.0
C982 C 0.78045 0.50155 0.6142 0.0
C983 C 0.8343 0.52077 0.61375 0.0
C984 C 0.06431 0.26088 0.11956 0.0
C985 C 0.00873 0.24575 0.13794 0.0
C986 C 0.04401 0.28275 0.12113 0.0
C987 C 0.96801 0.29038 0.14167 0.0
H988 H 0.12486 0.25575 0.10411 0.0
H989 H 0.08809 0.29364 0.10602 0.0
S990 S 0.80429 0.25726 0.19668 0.0
N991 N 0.87649 0.23989 0.17811 0.0
N992 N 0.83837 0.28081 0.18171 0.0
C993 C 0.91178 0.27529 0.16015 0.0
C994 C 0.93206 0.25305 0.15817 0.0
C995 C 0.52827 0.78338 0.11457 0.0
C996 C 0.46404 0.7902 0.141 0.0
C997 C 0.54759 0.76163 0.10962 0.0
C998 C 0.5027 0.74579 0.1305 0.0
H999 H 0.5635 0.79484 0.09735 0.0
H1000 H 0.59906 0.75715 0.08945 0.0
S1001 S 0.33241 0.75512 0.20455 0.0
N1002 N 0.35774 0.77915 0.18921 0.0
N1003 N 0.39394 0.7385 0.1795 0.0
C1004 C 0.43797 0.75233 0.1568 0.0
C1005 C 0.41876 0.77444 0.16212 0.0
C1006 C 0.55702 0.75557 0.41625 0.0
C1007 C 0.48527 0.7481 0.43889 0.0
C1008 C 0.57617 0.77738 0.41337 0.0
C1009 C 0.52494 0.7927 0.43318 0.0
H1010 H 0.59587 0.74459 0.39937 0.0
H1011 H 0.63067 0.78226 0.39467 0.0
S1012 S 0.33718 0.78068 0.49992 0.0
N1013 N 0.36653 0.75721 0.48334 0.0
N1014 N 0.40518 0.79822 0.47925 0.0
C1015 C 0.45544 0.78526 0.45718 0.0
C1016 C 0.43509 0.76298 0.4597 0.0
C1017 C 0.94077 0.28466 0.41417 0.0
C1018 C 0.01412 0.29255 0.43553 0.0
C1019 C 0.92218 0.26276 0.41249 0.0
C1020 C 0.97551 0.24773 0.43232 0.0
H1021 H 0.89992 0.29537 0.39737 0.0
H1022 H 0.86614 0.2576 0.39474 0.0
S1023 S 0.169 0.26088 0.49584 0.0
N1024 N 0.13728 0.28411 0.47868 0.0
N1025 N 0.09975 0.243 0.47689 0.0
C1026 C 0.04699 0.2556 0.45497 0.0
C1027 C 0.06678 0.27796 0.45623 0.0
C1028 C 0.93287 0.77515 0.94605 0.0
C1029 C 0.98976 0.79014 0.92794 0.0
C1030 C 0.95401 0.75329 0.94558 0.0
C1031 C 0.03214 0.7455 0.92639 0.0
H1032 H 0.87098 0.78038 0.96057 0.0
H1033 H 0.90902 0.74253 0.96057 0.0
S1034 S 0.19938 0.77828 0.87221 0.0
N1035 N 0.12513 0.79572 0.88928 0.0
N1036 N 0.16466 0.75485 0.88753 0.0
C1037 C 0.08927 0.76048 0.90796 0.0
C1038 C 0.0682 0.7827 0.90892 0.0
C1039 C 0.56209 0.25983 0.95819 0.0
C1040 C 0.51472 0.24412 0.93802 0.0
C1041 C 0.54214 0.28162 0.95375 0.0
C1042 C 0.47481 0.28859 0.92852 0.0
H1043 H 0.61579 0.25524 0.97745 0.0
H1044 H 0.5793 0.29297 0.97046 0.0
S1045 S 0.3361 0.25383 0.867 0.0
N1046 N 0.40044 0.23708 0.8909 0.0
N1047 N 0.36318 0.27778 0.88203 0.0
C1048 C 0.42725 0.27294 0.90805 0.0
C1049 C 0.44707 0.2508 0.91289 0.0
C1050 C 0.56546 0.2558 0.64958 0.0
C1051 C 0.48465 0.24788 0.63266 0.0
C1052 C 0.58622 0.2776 0.64891 0.0
C1053 C 0.52741 0.29244 0.63114 0.0
H1054 H 0.61087 0.24525 0.66485 0.0
H1055 H 0.64816 0.2829 0.66334 0.0
S1056 S 0.31327 0.27908 0.57857 0.0
N1057 N 0.34879 0.25604 0.59532 0.0
N1058 N 0.38957 0.29699 0.59292 0.0
C1059 C 0.44831 0.28453 0.61272 0.0
C1060 C 0.42665 0.26228 0.61376 0.0
C1061 C 0.05666 0.75488 0.64971 0.0
C1062 C 0.98564 0.74765 0.62649 0.0
C1063 C 0.07544 0.77669 0.65339 0.0
C1064 C 0.02423 0.79226 0.63401 0.0
H1065 H 0.0953 0.7437 0.66638 0.0
H1066 H 0.12953 0.7814 0.67236 0.0
S1067 S 0.83881 0.78123 0.56604 0.0
N1068 N 0.86836 0.75749 0.5817 0.0
N1069 N 0.90555 0.79846 0.58783 0.0
C1070 C 0.95551 0.78515 0.60953 0.0
C1071 C 0.93591 0.76288 0.60598 0.0
C1072 C 0.07083 0.13907 0.31103 0.0
C1073 C 0.97926 0.13776 0.32556 0.0
C1074 C 0.08671 0.13865 0.27361 0.0
C1075 C 0.01164 0.13715 0.24907 0.0
H1076 H 0.13113 0.14063 0.32869 0.0
H1077 H 0.15819 0.14013 0.26386 0.0
S1078 S 0.75879 0.13187 0.27276 0.0
N1079 N 0.81276 0.13382 0.31208 0.0
N1080 N 0.84245 0.13309 0.24196 0.0
C1081 C 0.91992 0.13523 0.26317 0.0
C1082 C 0.90379 0.1355 0.30128 0.0
C1083 C 0.40983 0.90263 0.27123 0.0
C1084 C 0.48499 0.9026 0.2466 0.0
C1085 C 0.42584 0.90257 0.30863 0.0
C1086 C 0.51768 0.90277 0.32301 0.0
H1087 H 0.33798 0.90197 0.26162 0.0
H1088 H 0.3654 0.90211 0.3264 0.0
S1089 S 0.73896 0.90456 0.26993 0.0
N1090 N 0.65493 0.90409 0.2392 0.0
N1091 N 0.68482 0.90408 0.30936 0.0
C1092 C 0.59347 0.90361 0.29864 0.0
C1093 C 0.57719 0.90348 0.26054 0.0
C1094 C 0.92955 0.90305 0.76249 0.0
C1095 C 0.02106 0.90412 0.74785 0.0
C1096 C 0.91411 0.90302 0.79992 0.0
C1097 C 0.98964 0.90376 0.82433 0.0
H1098 H 0.86898 0.90183 0.74487 0.0
H1099 H 0.84268 0.90153 0.80973 0.0
S1100 S 0.24241 0.90866 0.80029 0.0
N1101 N 0.18776 0.90748 0.76101 0.0
N1102 N 0.15915 0.90726 0.83125 0.0
C1103 C 0.08127 0.90574 0.81013 0.0
C1104 C 0.09688 0.906 0.77197 0.0
C1105 C 0.59243 0.13883 0.80188 0.0
C1106 C 0.51758 0.13844 0.82665 0.0
C1107 C 0.5761 0.13874 0.76451 0.0
C1108 C 0.48425 0.13798 0.75021 0.0
H1109 H 0.66436 0.13969 0.81136 0.0
H1110 H 0.63639 0.13945 0.74668 0.0
S1111 S 0.26357 0.13533 0.80346 0.0
N1112 N 0.34766 0.13625 0.83413 0.0
N1113 N 0.31744 0.13599 0.76398 0.0
C1114 C 0.40875 0.1369 0.77464 0.0
C1115 C 0.42528 0.1372 0.81277 0.0
C1116 C 0.43035 0.64315 0.26115 0.0
C1117 C 0.52208 0.64205 0.24673 0.0
C1118 C 0.41425 0.64264 0.29855 0.0
C1119 C 0.48927 0.6413 0.32312 0.0
H1120 H 0.37 0.64436 0.24343 0.0
H1121 H 0.34262 0.6438 0.30825 0.0
S1122 S 0.74271 0.6371 0.29966 0.0
N1123 N 0.68877 0.63885 0.2603 0.0
N1124 N 0.6588 0.63799 0.33037 0.0
C1125 C 0.58128 0.63986 0.30911 0.0
C1126 C 0.5976 0.6402 0.27104 0.0
C1127 C 0.07089 0.40292 0.2596 0.0
C1128 C 0.97977 0.40359 0.24458 0.0
C1129 C 0.08518 0.40289 0.29708 0.0
C1130 C 0.00888 0.40323 0.32114 0.0
H1131 H 0.13206 0.402 0.24224 0.0
H1132 H 0.15645 0.4018 0.30721 0.0
S1133 S 0.75643 0.40693 0.29591 0.0
N1134 N 0.81237 0.40608 0.25687 0.0
N1135 N 0.83881 0.4059 0.32727 0.0
C1136 C 0.91747 0.40478 0.30653 0.0
C1137 C 0.90303 0.40504 0.26831 0.0
C1138 C 0.43249 0.39902 0.76012 0.0
C1139 C 0.52397 0.39927 0.74542 0.0
C1140 C 0.41741 0.39951 0.79755 0.0
C1141 C 0.49321 0.4 0.82186 0.0
H1142 H 0.37162 0.39831 0.74259 0.0
H1143 H 0.34585 0.39884 0.80748 0.0
S1144 S 0.74651 0.40209 0.79761 0.0
N1145 N 0.69144 0.40102 0.75841 0.0
N1146 N 0.66324 0.40183 0.82863 0.0
C1147 C 0.58503 0.4008 0.8076 0.0
C1148 C 0.60037 0.40048 0.76946 0.0
C1149 C 0.91038 0.63845 0.77049 0.0
C1150 C 0.98577 0.63954 0.74605 0.0
C1151 C 0.92591 0.63766 0.80785 0.0
C1152 C 0.01754 0.63763 0.82241 0.0
H1153 H 0.83857 0.63867 0.76077 0.0
H1154 H 0.86518 0.63721 0.82549 0.0
S1155 S 0.2396 0.6388 0.76991 0.0
N1156 N 0.15604 0.6395 0.739 0.0
N1157 N 0.18489 0.63789 0.80922 0.0
C1158 C 0.09373 0.63803 0.79826 0.0
C1159 C 0.07794 0.63906 0.76014 0.0
loop_
_geom_bond_atom_site_label_1
_geom_bond_atom_site_label_2
_geom_bond_distance
_geom_bond_site_symmetry_2
_ccdc_geom_bond_type
Zn0 N4 2.020 1_655 S
Zn0 O8 2.019 . S
Zn0 N10 2.118 1_655 S
Zn0 O18 1.975 1_655 S
C1 N2 1.334 . S
C1 N5 1.336 . S
N2 C1 1.334 . S
N2 C3 1.334 . S
C3 N2 1.334 . S
C3 N4 1.336 . S
N4 Zn0 2.020 1_455 S
N4 C3 1.336 . S
N4 N5 1.354 . S
N5 C1 1.336 . S
N5 N4 1.354 . S
N5 Zn9 2.020 . S
C6 O7 1.244 . S
C6 O30 1.257 . S
O7 C6 1.244 . S
O8 Zn0 2.019 . S
O8 C28 1.257 . S
Zn9 N5 2.020 . S
Zn9 O16 1.975 . S
Zn9 N25 2.119 . S
Zn9 O30 2.019 . S
N10 Zn0 2.118 1_455 S
N10 C12 1.337 . S
N10 C13 1.325 1_455 S
C11 C12 1.391 . S
C11 N14 1.329 . S
C11 H32 0.930 . S
C12 N10 1.337 . S
C12 C11 1.391 . S
C12 H19 0.930 . S
C13 N10 1.325 1_655 S
C13 C15 1.392 . S
C13 H20 0.930 . S
N14 C11 1.329 . S
N14 C15 1.331 1_455 S
C15 C13 1.392 . S
C15 N14 1.331 1_655 S
O16 Zn9 1.975 . S
O16 C17 1.252 . S
C17 O16 1.252 . S
C17 O18 1.252 . S
O18 Zn0 1.975 1_455 S
O18 C17 1.252 . S
H19 C12 0.930 . S
H20 C13 0.930 . S
C21 C22 1.392 . S
C21 N25 1.328 . S
C21 H27 0.930 . S
C22 C21 1.392 . S
C22 N26 1.331 . S
C23 C24 1.391 . S
C23 N26 1.329 . S
C23 H33 0.930 1_455 S
C24 C23 1.391 . S
C24 N25 1.334 . S
C24 H31 0.930 . S
N25 Zn9 2.119 . S
N25 C21 1.328 . S
N25 C24 1.334 . S
N26 C22 1.331 . S
N26 C23 1.329 . S
H27 C21 0.930 . S
C28 O8 1.257 . S
C28 O29 1.244 . S
O29 C28 1.244 . S
O30 C6 1.257 . S
O30 Zn9 2.019 . S
H31 C24 0.930 . S
H32 C11 0.930 . S
H33 C23 0.930 1_655 S
Zn34 N38 2.020 . S
Zn34 O42 2.019 . S
Zn34 N44 2.119 . S
Zn34 O52 1.975 . S
C35 N36 1.334 . S
C35 N39 1.336 . S
N36 C35 1.334 . S
N36 C37 1.334 . S
C37 N36 1.334 . S
C37 N38 1.336 . S
N38 Zn34 2.020 . S
N38 C37 1.336 . S
N38 N39 1.354 . S
N39 C35 1.336 . S
N39 N38 1.354 . S
N39 Zn43 2.020 . S
C40 O41 1.244 . S
C40 O64 1.257 . S
O41 C40 1.244 . S
O42 Zn34 2.019 . S
O42 C62 1.257 . S
Zn43 N39 2.020 . S
Zn43 O50 1.975 . S
Zn43 N59 2.119 . S
Zn43 O64 2.019 . S
N44 Zn34 2.119 . S
N44 C46 1.334 . S
N44 C47 1.328 . S
C45 C46 1.391 . S
C45 N48 1.329 . S
C45 H66 0.930 . S
C46 N44 1.334 . S
C46 C45 1.391 . S
C46 H53 0.930 . S
C47 N44 1.328 . S
C47 C49 1.392 . S
C47 H54 0.930 . S
N48 C45 1.329 . S
N48 C49 1.331 . S
C49 C47 1.392 . S
C49 N48 1.331 . S
O50 Zn43 1.975 . S
O50 C51 1.252 . S
C51 O50 1.252 . S
C51 O52 1.252 . S
O52 Zn34 1.975 . S
O52 C51 1.252 . S
H53 C46 0.930 . S
H54 C47 0.930 . S
C55 C56 1.392 . S
C55 N59 1.328 . S
C55 H61 0.930 . S
C56 C55 1.392 . S
C56 N60 1.331 . S
C57 C58 1.391 . S
C57 N60 1.329 . S
C57 H67 0.930 . S
C58 C57 1.391 . S
C58 N59 1.334 . S
C58 H65 0.930 . S
N59 Zn43 2.119 . S
N59 C55 1.328 . S
N59 C58 1.334 . S
N60 C56 1.331 . S
N60 C57 1.329 . S
H61 C55 0.930 . S
C62 O42 1.257 . S
C62 O63 1.244 . S
O63 C62 1.244 . S
O64 C40 1.257 . S
O64 Zn43 2.019 . S
H65 C58 0.930 . S
H66 C45 0.930 . S
H67 C57 0.930 . S
Zn68 N72 2.020 . S
Zn68 O76 2.019 . S
Zn68 N78 2.119 . S
Zn68 O86 1.975 . S
C69 N70 1.334 . S
C69 N73 1.336 . S
N70 C69 1.334 . S
N70 C71 1.334 . S
C71 N70 1.334 . S
C71 N72 1.336 . S
N72 Zn68 2.020 . S
N72 C71 1.336 . S
N72 N73 1.354 . S
N73 C69 1.336 . S
N73 N72 1.354 . S
N73 Zn77 2.020 . S
C74 O75 1.244 . S
C74 O98 1.257 . S
O75 C74 1.244 . S
O76 Zn68 2.019 . S
O76 C96 1.257 . S
Zn77 N73 2.020 . S
Zn77 O84 1.975 . S
Zn77 N93 2.119 . S
Zn77 O98 2.019 . S
N78 Zn68 2.119 . S
N78 C80 1.334 . S
N78 C81 1.328 . S
C79 C80 1.391 . S
C79 N82 1.329 . S
C79 H100 0.930 . S
C80 N78 1.334 . S
C80 C79 1.391 . S
C80 H87 0.930 . S
C81 N78 1.328 . S
C81 C83 1.392 . S
C81 H88 0.930 . S
N82 C79 1.329 . S
N82 C83 1.331 . S
C83 C81 1.392 . S
C83 N82 1.331 . S
O84 Zn77 1.975 . S
O84 C85 1.252 . S
C85 O84 1.252 . S
C85 O86 1.252 . S
O86 Zn68 1.975 . S
O86 C85 1.252 . S
H87 C80 0.930 . S
H88 C81 0.930 . S
C89 C90 1.392 . S
C89 N93 1.328 . S
C89 H95 0.930 . S
C90 C89 1.392 . S
C90 N94 1.331 . S
C91 C92 1.391 . S
C91 N94 1.329 . S
C91 H101 0.930 . S
C92 C91 1.391 . S
C92 N93 1.334 . S
C92 H99 0.930 . S
N93 Zn77 2.119 . S
N93 C89 1.328 . S
N93 C92 1.334 . S
N94 C90 1.331 . S
N94 C91 1.329 . S
H95 C89 0.930 . S
C96 O76 1.257 . S
C96 O97 1.244 . S
O97 C96 1.244 . S
O98 C74 1.257 . S
O98 Zn77 2.019 . S
H99 C92 0.930 . S
H100 C79 0.930 . S
H101 C91 0.930 . S
Zn102 N106 2.020 1_455 S
Zn102 O110 2.019 . S
Zn102 N112 2.118 1_455 S
Zn102 O120 1.975 1_455 S
C103 N104 1.334 . S
C103 N107 1.336 . S
N104 C103 1.334 . S
N104 C105 1.334 . S
C105 N104 1.334 . S
C105 N106 1.336 . S
N106 Zn102 2.020 1_655 S
N106 C105 1.336 . S
N106 N107 1.354 . S
N107 C103 1.336 . S
N107 N106 1.354 . S
N107 Zn111 2.020 . S
C108 O109 1.244 . S
C108 O132 1.257 . S
O109 C108 1.244 . S
O110 Zn102 2.019 . S
O110 C130 1.257 . S
Zn111 N107 2.020 . S
Zn111 O118 1.975 . S
Zn111 N127 2.119 . S
Zn111 O132 2.019 . S
N112 Zn102 2.118 1_655 S
N112 C114 1.337 . S
N112 C115 1.325 1_655 S
C113 C114 1.391 . S
C113 N116 1.329 . S
C113 H134 0.930 . S
C114 N112 1.337 . S
C114 C113 1.391 . S
C114 H121 0.930 . S
C115 N112 1.325 1_455 S
C115 C117 1.392 . S
C115 H122 0.930 . S
N116 C113 1.329 . S
N116 C117 1.331 1_655 S
C117 C115 1.392 . S
C117 N116 1.331 1_455 S
O118 Zn111 1.975 . S
O118 C119 1.252 . S
C119 O118 1.252 . S
C119 O120 1.252 . S
O120 Zn102 1.975 1_655 S
O120 C119 1.252 . S
H121 C114 0.930 . S
H122 C115 0.930 . S
C123 C124 1.392 . S
C123 N127 1.328 . S
C123 H129 0.930 . S
C124 C123 1.392 . S
C124 N128 1.331 . S
C125 C126 1.391 . S
C125 N128 1.329 . S
C125 H135 0.930 1_655 S
C126 C125 1.391 . S
C126 N127 1.334 . S
C126 H133 0.930 . S
N127 Zn111 2.119 . S
N127 C123 1.328 . S
N127 C126 1.334 . S
N128 C124 1.331 . S
N128 C125 1.329 . S
H129 C123 0.930 . S
C130 O110 1.257 . S
C130 O131 1.244 . S
O131 C130 1.244 . S
O132 C108 1.257 . S
O132 Zn111 2.019 . S
H133 C126 0.930 . S
H134 C113 0.930 . S
H135 C125 0.930 1_455 S
Zn136 N140 2.020 . S
Zn136 O144 2.019 . S
Zn136 N146 2.119 . S
Zn136 O154 1.975 . S
C137 N138 1.334 . S
C137 N141 1.336 . S
N138 C137 1.334 . S
N138 C139 1.334 . S
C139 N138 1.334 . S
C139 N140 1.336 . S
N140 Zn136 2.020 . S
N140 C139 1.336 . S
N140 N141 1.354 . S
N141 C137 1.336 . S
N141 N140 1.354 . S
N141 Zn145 2.020 1_655 S
C142 O143 1.244 . S
C142 O166 1.257 . S
O143 C142 1.244 . S
O144 Zn136 2.019 . S
O144 C164 1.257 . S
Zn145 N141 2.020 1_455 S
Zn145 O152 1.975 1_455 S
Zn145 N161 2.118 1_455 S
Zn145 O166 2.019 . S
N146 Zn136 2.119 . S
N146 C148 1.334 . S
N146 C149 1.328 . S
C147 C148 1.391 . S
C147 N150 1.329 . S
C147 H168 0.930 1_655 S
C148 N146 1.334 . S
C148 C147 1.391 . S
C148 H155 0.930 . S
C149 N146 1.328 . S
C149 C151 1.392 . S
C149 H156 0.930 . S
N150 C147 1.329 . S
N150 C151 1.331 . S
C151 C149 1.392 . S
C151 N150 1.331 . S
O152 Zn145 1.975 1_655 S
O152 C153 1.252 . S
C153 O152 1.252 . S
C153 O154 1.252 . S
O154 Zn136 1.975 . S
O154 C153 1.252 . S
H155 C148 0.930 . S
H156 C149 0.930 . S
C157 C158 1.392 . S
C157 N161 1.325 1_455 S
C157 H163 0.930 . S
C158 C157 1.392 . S
C158 N162 1.331 1_455 S
C159 C160 1.391 . S
C159 N162 1.329 . S
C159 H169 0.930 . S
C160 C159 1.391 . S
C160 N161 1.337 . S
C160 H167 0.930 . S
N161 Zn145 2.118 1_655 S
N161 C157 1.325 1_655 S
N161 C160 1.337 . S
N162 C158 1.331 1_655 S
N162 C159 1.329 . S
H163 C157 0.930 . S
C164 O144 1.257 . S
C164 O165 1.244 . S
O165 C164 1.244 . S
O166 C142 1.257 . S
O166 Zn145 2.019 . S
H167 C160 0.930 . S
H168 C147 0.930 1_455 S
H169 C159 0.930 . S
Zn170 N174 2.020 . S
Zn170 O178 2.019 . S
Zn170 N180 2.119 . S
Zn170 O188 1.975 . S
C171 N172 1.334 . S
C171 N175 1.336 . S
N172 C171 1.334 . S
N172 C173 1.334 . S
C173 N172 1.334 . S
C173 N174 1.336 . S
N174 Zn170 2.020 . S
N174 C173 1.336 . S
N174 N175 1.354 . S
N175 C171 1.336 . S
N175 N174 1.354 . S
N175 Zn179 2.020 . S
C176 O177 1.244 . S
C176 O200 1.257 . S
O177 C176 1.244 . S
O178 Zn170 2.019 . S
O178 C198 1.257 . S
Zn179 N175 2.020 . S
Zn179 O186 1.975 . S
Zn179 N195 2.119 . S
Zn179 O200 2.019 . S
N180 Zn170 2.119 . S
N180 C182 1.334 . S
N180 C183 1.328 . S
C181 C182 1.391 . S
C181 N184 1.329 . S
C181 H202 0.930 . S
C182 N180 1.334 . S
C182 C181 1.391 . S
C182 H189 0.930 . S
C183 N180 1.328 . S
C183 C185 1.392 . S
C183 H190 0.930 . S
N184 C181 1.329 . S
N184 C185 1.331 . S
C185 C183 1.392 . S
C185 N184 1.331 . S
O186 Zn179 1.975 . S
O186 C187 1.252 . S
C187 O186 1.252 . S
C187 O188 1.252 . S
O188 Zn170 1.975 . S
O188 C187 1.252 . S
H189 C182 0.930 . S
H190 C183 0.930 . S
C191 C192 1.392 . S
C191 N195 1.328 . S
C191 H197 0.930 . S
C192 C191 1.392 . S
C192 N196 1.331 . S
C193 C194 1.391 . S
C193 N196 1.329 . S
C193 H203 0.930 . S
C194 C193 1.391 . S
C194 N195 1.334 . S
C194 H201 0.930 . S
N195 Zn179 2.119 . S
N195 C191 1.328 . S
N195 C194 1.334 . S
N196 C192 1.331 . S
N196 C193 1.329 . S
H197 C191 0.930 . S
C198 O178 1.257 . S
C198 O199 1.244 . S
O199 C198 1.244 . S
O200 C176 1.257 . S
O200 Zn179 2.019 . S
H201 C194 0.930 . S
H202 C181 0.930 . S
H203 C193 0.930 . S
Zn204 N208 2.020 . S
Zn204 O212 2.019 . S
Zn204 N214 2.119 . S
Zn204 O222 1.975 . S
C205 N206 1.334 . S
C205 N209 1.336 . S
N206 C205 1.334 . S
N206 C207 1.334 . S
C207 N206 1.334 . S
C207 N208 1.336 . S
N208 Zn204 2.020 . S
N208 C207 1.336 . S
N208 N209 1.354 . S
N209 C205 1.336 . S
N209 N208 1.354 . S
N209 Zn213 2.020 . S
C210 O211 1.244 . S
C210 O234 1.257 . S
O211 C210 1.244 . S
O212 Zn204 2.019 . S
O212 C232 1.257 . S
Zn213 N209 2.020 . S
Zn213 O220 1.975 . S
Zn213 N229 2.119 . S
Zn213 O234 2.019 . S
N214 Zn204 2.119 . S
N214 C216 1.334 . S
N214 C217 1.328 . S
C215 C216 1.391 . S
C215 N218 1.329 . S
C215 H236 0.930 . S
C216 N214 1.334 . S
C216 C215 1.391 . S
C216 H223 0.930 . S
C217 N214 1.328 . S
C217 C219 1.392 . S
C217 H224 0.930 . S
N218 C215 1.329 . S
N218 C219 1.331 . S
C219 C217 1.392 . S
C219 N218 1.331 . S
O220 Zn213 1.975 . S
O220 C221 1.252 . S
C221 O220 1.252 . S
C221 O222 1.252 . S
O222 Zn204 1.975 . S
O222 C221 1.252 . S
H223 C216 0.930 . S
H224 C217 0.930 . S
C225 C226 1.392 . S
C225 N229 1.328 . S
C225 H231 0.930 . S
C226 C225 1.392 . S
C226 N230 1.331 . S
C227 C228 1.391 . S
C227 N230 1.329 . S
C227 H237 0.930 . S
C228 C227 1.391 . S
C228 N229 1.334 . S
C228 H235 0.930 . S
N229 Zn213 2.119 . S
N229 C225 1.328 . S
N229 C228 1.334 . S
N230 C226 1.331 . S
N230 C227 1.329 . S
H231 C225 0.930 . S
C232 O212 1.257 . S
C232 O233 1.244 . S
O233 C232 1.244 . S
O234 C210 1.257 . S
O234 Zn213 2.019 . S
H235 C228 0.930 . S
H236 C215 0.930 . S
H237 C227 0.930 . S
Zn238 N242 2.020 . S
Zn238 O246 2.019 . S
Zn238 N248 2.119 . S
Zn238 O256 1.975 . S
C239 N240 1.334 . S
C239 N243 1.336 . S
N240 C239 1.334 . S
N240 C241 1.334 . S
C241 N240 1.334 . S
C241 N242 1.336 . S
N242 Zn238 2.020 . S
N242 C241 1.336 . S
N242 N243 1.354 . S
N243 C239 1.336 . S
N243 N242 1.354 . S
N243 Zn247 2.020 1_455 S
C244 O245 1.244 . S
C244 O268 1.257 . S
O245 C244 1.244 . S
O246 Zn238 2.019 . S
O246 C266 1.257 . S
Zn247 N243 2.020 1_655 S
Zn247 O254 1.975 1_655 S
Zn247 N263 2.118 1_655 S
Zn247 O268 2.019 . S
N248 Zn238 2.119 . S
N248 C250 1.334 . S
N248 C251 1.328 . S
C249 C250 1.391 . S
C249 N252 1.329 . S
C249 H270 0.930 1_455 S
C250 N248 1.334 . S
C250 C249 1.391 . S
C250 H257 0.930 . S
C251 N248 1.328 . S
C251 C253 1.392 . S
C251 H258 0.930 . S
N252 C249 1.329 . S
N252 C253 1.331 . S
C253 C251 1.392 . S
C253 N252 1.331 . S
O254 Zn247 1.975 1_455 S
O254 C255 1.252 . S
C255 O254 1.252 . S
C255 O256 1.252 . S
O256 Zn238 1.975 . S
O256 C255 1.252 . S
H257 C250 0.930 . S
H258 C251 0.930 . S
C259 C260 1.392 . S
C259 N263 1.325 1_655 S
C259 H265 0.930 . S
C260 C259 1.392 . S
C260 N264 1.331 1_655 S
C261 C262 1.391 . S
C261 N264 1.329 . S
C261 H271 0.930 . S
C262 C261 1.391 . S
C262 N263 1.337 . S
C262 H269 0.930 . S
N263 Zn247 2.118 1_455 S
N263 C259 1.325 1_455 S
N263 C262 1.337 . S
N264 C260 1.331 1_455 S
N264 C261 1.329 . S
H265 C259 0.930 . S
C266 O246 1.257 . S
C266 O267 1.244 . S
O267 C266 1.244 . S
O268 C244 1.257 . S
O268 Zn247 2.019 . S
H269 C262 0.930 . S
H270 C249 0.930 1_655 S
H271 C261 0.930 . S
Zn272 N276 2.020 . S
Zn272 O280 2.019 . S
Zn272 N282 2.119 . S
Zn272 O290 1.975 . S
C273 N274 1.334 . S
C273 N277 1.336 . S
N274 C273 1.334 . S
N274 C275 1.334 . S
C275 N274 1.334 . S
C275 N276 1.336 . S
N276 Zn272 2.020 . S
N276 C275 1.336 . S
N276 N277 1.354 . S
N277 C273 1.336 . S
N277 N276 1.354 . S
N277 Zn281 2.020 . S
C278 O279 1.244 . S
C278 O302 1.257 . S
O279 C278 1.244 . S
O280 Zn272 2.019 . S
O280 C300 1.257 . S
Zn281 N277 2.020 . S
Zn281 O288 1.975 . S
Zn281 N297 2.119 . S
Zn281 O302 2.019 . S
N282 Zn272 2.119 . S
N282 C284 1.334 . S
N282 C285 1.328 . S
C283 C284 1.391 . S
C283 N286 1.329 . S
C283 H304 0.930 . S
C284 N282 1.334 . S
C284 C283 1.391 . S
C284 H291 0.930 . S
C285 N282 1.328 . S
C285 C287 1.392 . S
C285 H292 0.930 . S
N286 C283 1.329 . S
N286 C287 1.331 . S
C287 C285 1.392 . S
C287 N286 1.331 . S
O288 Zn281 1.975 . S
O288 C289 1.252 . S
C289 O288 1.252 . S
C289 O290 1.252 . S
O290 Zn272 1.975 . S
O290 C289 1.252 . S
H291 C284 0.930 . S
H292 C285 0.930 . S
C293 C294 1.392 . S
C293 N297 1.328 . S
C293 H299 0.930 . S
C294 C293 1.392 . S
C294 N298 1.331 . S
C295 C296 1.391 . S
C295 N298 1.329 . S
C295 H305 0.930 . S
C296 C295 1.391 . S
C296 N297 1.334 . S
C296 H303 0.930 . S
N297 Zn281 2.119 . S
N297 C293 1.328 . S
N297 C296 1.334 . S
N298 C294 1.331 . S
N298 C295 1.329 . S
H299 C293 0.930 . S
C300 O280 1.257 . S
C300 O301 1.244 . S
O301 C300 1.244 . S
O302 C278 1.257 . S
O302 Zn281 2.019 . S
H303 C296 0.930 . S
H304 C283 0.930 . S
H305 C295 0.930 . S
Zn306 N310 2.020 . S
Zn306 O314 2.019 . S
Zn306 N316 2.119 . S
Zn306 O324 1.975 . S
C307 N308 1.334 . S
C307 N311 1.336 . S
N308 C307 1.334 . S
N308 C309 1.334 . S
C309 N308 1.334 . S
C309 N310 1.336 . S
N310 Zn306 2.020 . S
N310 C309 1.336 . S
N310 N311 1.354 . S
N311 C307 1.336 . S
N311 N310 1.354 . S
N311 Zn315 2.020 1_655 S
C312 O313 1.244 . S
C312 O336 1.257 . S
O313 C312 1.244 . S
O314 Zn306 2.019 . S
O314 C334 1.257 . S
Zn315 N311 2.020 1_455 S
Zn315 O322 1.975 1_455 S
Zn315 N331 2.118 1_455 S
Zn315 O336 2.019 . S
N316 Zn306 2.119 . S
N316 C318 1.334 . S
N316 C319 1.328 . S
C317 C318 1.391 . S
C317 N320 1.329 . S
C317 H338 0.930 1_655 S
C318 N316 1.334 . S
C318 C317 1.391 . S
C318 H325 0.930 . S
C319 N316 1.328 . S
C319 C321 1.392 . S
C319 H326 0.930 . S
N320 C317 1.329 . S
N320 C321 1.331 . S
C321 C319 1.392 . S
C321 N320 1.331 . S
O322 Zn315 1.975 1_655 S
O322 C323 1.252 . S
C323 O322 1.252 . S
C323 O324 1.252 . S
O324 Zn306 1.975 . S
O324 C323 1.252 . S
H325 C318 0.930 . S
H326 C319 0.930 . S
C327 C328 1.392 . S
C327 N331 1.325 1_455 S
C327 H333 0.930 . S
C328 C327 1.392 . S
C328 N332 1.331 1_455 S
C329 C330 1.391 . S
C329 N332 1.329 . S
C329 H339 0.930 . S
C330 C329 1.391 . S
C330 N331 1.337 . S
C330 H337 0.930 . S
N331 Zn315 2.118 1_655 S
N331 C327 1.325 1_655 S
N331 C330 1.337 . S
N332 C328 1.331 1_655 S
N332 C329 1.329 . S
H333 C327 0.930 . S
C334 O314 1.257 . S
C334 O335 1.244 . S
O335 C334 1.244 . S
O336 C312 1.257 . S
O336 Zn315 2.019 . S
H337 C330 0.930 . S
H338 C317 0.930 1_455 S
H339 C329 0.930 . S
Zn340 N344 2.020 . S
Zn340 O348 2.019 . S
Zn340 N350 2.119 . S
Zn340 O358 1.975 . S
C341 N342 1.334 . S
C341 N345 1.336 . S
N342 C341 1.334 . S
N342 C343 1.334 . S
C343 N342 1.334 . S
C343 N344 1.336 . S
N344 Zn340 2.020 . S
N344 C343 1.336 . S
N344 N345 1.354 . S
N345 C341 1.336 . S
N345 N344 1.354 . S
N345 Zn349 2.020 1_455 S
C346 O347 1.244 . S
C346 O370 1.257 . S
O347 C346 1.244 . S
O348 Zn340 2.019 . S
O348 C368 1.257 . S
Zn349 N345 2.020 1_655 S
Zn349 O356 1.975 1_655 S
Zn349 N365 2.118 1_655 S
Zn349 O370 2.019 . S
N350 Zn340 2.119 . S
N350 C352 1.334 . S
N350 C353 1.328 . S
C351 C352 1.391 . S
C351 N354 1.329 . S
C351 H372 0.930 1_455 S
C352 N350 1.334 . S
C352 C351 1.391 . S
C352 H359 0.930 . S
C353 N350 1.328 . S
C353 C355 1.392 . S
C353 H360 0.930 . S
N354 C351 1.329 . S
N354 C355 1.331 . S
C355 C353 1.392 . S
C355 N354 1.331 . S
O356 Zn349 1.975 1_455 S
O356 C357 1.252 . S
C357 O356 1.252 . S
C357 O358 1.252 . S
O358 Zn340 1.975 . S
O358 C357 1.252 . S
H359 C352 0.930 . S
H360 C353 0.930 . S
C361 C362 1.392 . S
C361 N365 1.325 1_655 S
C361 H367 0.930 . S
C362 C361 1.392 . S
C362 N366 1.331 1_655 S
C363 C364 1.391 . S
C363 N366 1.329 . S
C363 H373 0.930 . S
C364 C363 1.391 . S
C364 N365 1.337 . S
C364 H371 0.930 . S
N365 Zn349 2.118 1_455 S
N365 C361 1.325 1_455 S
N365 C364 1.337 . S
N366 C362 1.331 1_455 S
N366 C363 1.329 . S
H367 C361 0.930 . S
C368 O348 1.257 . S
C368 O369 1.244 . S
O369 C368 1.244 . S
O370 C346 1.257 . S
O370 Zn349 2.019 . S
H371 C364 0.930 . S
H372 C351 0.930 1_655 S
H373 C363 0.930 . S
Zn374 N378 2.020 . S
Zn374 O382 2.019 . S
Zn374 N384 2.119 . S
Zn374 O392 1.975 . S
C375 N376 1.334 . S
C375 N379 1.336 . S
N376 C375 1.334 . S
N376 C377 1.334 . S
C377 N376 1.334 . S
C377 N378 1.336 . S
N378 Zn374 2.020 . S
N378 C377 1.336 . S
N378 N379 1.354 . S
N379 C375 1.336 . S
N379 N378 1.354 . S
N379 Zn383 2.020 . S
C380 O381 1.244 . S
C380 O404 1.257 . S
O381 C380 1.244 . S
O382 Zn374 2.019 . S
O382 C402 1.257 . S
Zn383 N379 2.020 . S
Zn383 O390 1.975 . S
Zn383 N399 2.119 . S
Zn383 O404 2.019 . S
N384 Zn374 2.119 . S
N384 C386 1.334 . S
N384 C387 1.328 . S
C385 C386 1.391 . S
C385 N388 1.329 . S
C385 H406 0.930 . S
C386 N384 1.334 . S
C386 C385 1.391 . S
C386 H393 0.930 . S
C387 N384 1.328 . S
C387 C389 1.392 . S
C387 H394 0.930 . S
N388 C385 1.329 . S
N388 C389 1.331 . S
C389 C387 1.392 . S
C389 N388 1.331 . S
O390 Zn383 1.975 . S
O390 C391 1.252 . S
C391 O390 1.252 . S
C391 O392 1.252 . S
O392 Zn374 1.975 . S
O392 C391 1.252 . S
H393 C386 0.930 . S
H394 C387 0.930 . S
C395 C396 1.392 . S
C395 N399 1.328 . S
C395 H401 0.930 . S
C396 C395 1.392 . S
C396 N400 1.331 . S
C397 C398 1.391 . S
C397 N400 1.329 . S
C397 H407 0.930 . S
C398 C397 1.391 . S
C398 N399 1.334 . S
C398 H405 0.930 . S
N399 Zn383 2.119 . S
N399 C395 1.328 . S
N399 C398 1.334 . S
N400 C396 1.331 . S
N400 C397 1.329 . S
H401 C395 0.930 . S
C402 O382 1.257 . S
C402 O403 1.244 . S
O403 C402 1.244 . S
O404 C380 1.257 . S
O404 Zn383 2.019 . S
H405 C398 0.930 . S
H406 C385 0.930 . S
H407 C397 0.930 . S
Zn408 N412 2.020 . S
Zn408 O416 2.019 . S
Zn408 N418 2.119 . S
Zn408 O426 1.975 . S
C409 N410 1.334 . S
C409 N413 1.336 . S
N410 C409 1.334 . S
N410 C411 1.334 . S
C411 N410 1.334 . S
C411 N412 1.336 . S
N412 Zn408 2.020 . S
N412 C411 1.336 . S
N412 N413 1.354 . S
N413 C409 1.336 . S
N413 N412 1.354 . S
N413 Zn417 2.020 . S
C414 O415 1.244 . S
C414 O438 1.257 . S
O415 C414 1.244 . S
O416 Zn408 2.019 . S
O416 C436 1.257 . S
Zn417 N413 2.020 . S
Zn417 O424 1.975 . S
Zn417 N433 2.119 . S
Zn417 O438 2.019 . S
N418 Zn408 2.119 . S
N418 C420 1.334 . S
N418 C421 1.328 . S
C419 C420 1.391 . S
C419 N422 1.329 . S
C419 H440 0.930 . S
C420 N418 1.334 . S
C420 C419 1.391 . S
C420 H427 0.930 . S
C421 N418 1.328 . S
C421 C423 1.392 . S
C421 H428 0.930 . S
N422 C419 1.329 . S
N422 C423 1.331 . S
C423 C421 1.392 . S
C423 N422 1.331 . S
O424 Zn417 1.975 . S
O424 C425 1.252 . S
C425 O424 1.252 . S
C425 O426 1.252 . S
O426 Zn408 1.975 . S
O426 C425 1.252 . S
H427 C420 0.930 . S
H428 C421 0.930 . S
C429 C430 1.392 . S
C429 N433 1.328 . S
C429 H435 0.930 . S
C430 C429 1.392 . S
C430 N434 1.331 . S
C431 C432 1.391 . S
C431 N434 1.329 . S
C431 H441 0.930 . S
C432 C431 1.391 . S
C432 N433 1.334 . S
C432 H439 0.930 . S
N433 Zn417 2.119 . S
N433 C429 1.328 . S
N433 C432 1.334 . S
N434 C430 1.331 . S
N434 C431 1.329 . S
H435 C429 0.930 . S
C436 O416 1.257 . S
C436 O437 1.244 . S
O437 C436 1.244 . S
O438 C414 1.257 . S
O438 Zn417 2.019 . S
H439 C432 0.930 . S
H440 C419 0.930 . S
H441 C431 0.930 . S
Zn442 N446 2.020 1_655 S
Zn442 O450 2.019 . S
Zn442 N452 2.118 1_655 S
Zn442 O460 1.975 1_655 S
C443 N444 1.334 . S
C443 N447 1.336 . S
N444 C443 1.334 . S
N444 C445 1.334 . S
C445 N444 1.334 . S
C445 N446 1.336 . S
N446 Zn442 2.020 1_455 S
N446 C445 1.336 . S
N446 N447 1.354 . S
N447 C443 1.336 . S
N447 N446 1.354 . S
N447 Zn451 2.020 . S
C448 O449 1.244 . S
C448 O472 1.257 . S
O449 C448 1.244 . S
O450 Zn442 2.019 . S
O450 C470 1.257 . S
Zn451 N447 2.020 . S
Zn451 O458 1.975 . S
Zn451 N467 2.119 . S
Zn451 O472 2.019 . S
N452 Zn442 2.118 1_455 S
N452 C454 1.337 . S
N452 C455 1.325 1_455 S
C453 C454 1.391 . S
C453 N456 1.329 . S
C453 H474 0.930 . S
C454 N452 1.337 . S
C454 C453 1.391 . S
C454 H461 0.930 . S
C455 N452 1.325 1_655 S
C455 C457 1.392 . S
C455 H462 0.930 . S
N456 C453 1.329 . S
N456 C457 1.331 1_455 S
C457 C455 1.392 . S
C457 N456 1.331 1_655 S
O458 Zn451 1.975 . S
O458 C459 1.252 . S
C459 O458 1.252 . S
C459 O460 1.252 . S
O460 Zn442 1.975 1_455 S
O460 C459 1.252 . S
H461 C454 0.930 . S
H462 C455 0.930 . S
C463 C464 1.392 . S
C463 N467 1.328 . S
C463 H469 0.930 . S
C464 C463 1.392 . S
C464 N468 1.331 . S
C465 C466 1.391 . S
C465 N468 1.329 . S
C465 H475 0.930 1_455 S
C466 C465 1.391 . S
C466 N467 1.334 . S
C466 H473 0.930 . S
N467 Zn451 2.119 . S
N467 C463 1.328 . S
N467 C466 1.334 . S
N468 C464 1.331 . S
N468 C465 1.329 . S
H469 C463 0.930 . S
C470 O450 1.257 . S
C470 O471 1.244 . S
O471 C470 1.244 . S
O472 C448 1.257 . S
O472 Zn451 2.019 . S
H473 C466 0.930 . S
H474 C453 0.930 . S
H475 C465 0.930 1_655 S
Zn476 N480 2.020 . S
Zn476 O484 2.019 . S
Zn476 N486 2.119 . S
Zn476 O494 1.975 . S
C477 N478 1.334 . S
C477 N481 1.336 . S
N478 C477 1.334 . S
N478 C479 1.334 . S
C479 N478 1.334 . S
C479 N480 1.336 . S
N480 Zn476 2.020 . S
N480 C479 1.336 . S
N480 N481 1.354 . S
N481 C477 1.336 . S
N481 N480 1.354 . S
N481 Zn485 2.020 1_655 S
C482 O483 1.244 . S
C482 O506 1.257 . S
O483 C482 1.244 . S
O484 Zn476 2.019 . S
O484 C504 1.257 . S
Zn485 N481 2.020 1_455 S
Zn485 O492 1.975 1_455 S
Zn485 N501 2.118 1_455 S
Zn485 O506 2.019 . S
N486 Zn476 2.119 . S
N486 C488 1.334 . S
N486 C489 1.328 . S
C487 C488 1.391 . S
C487 N490 1.329 . S
C487 H508 0.930 1_655 S
C488 N486 1.334 . S
C488 C487 1.391 . S
C488 H495 0.930 . S
C489 N486 1.328 . S
C489 C491 1.392 . S
C489 H496 0.930 . S
N490 C487 1.329 . S
N490 C491 1.331 . S
C491 C489 1.392 . S
C491 N490 1.331 . S
O492 Zn485 1.975 1_655 S
O492 C493 1.252 . S
C493 O492 1.252 . S
C493 O494 1.252 . S
O494 Zn476 1.975 . S
O494 C493 1.252 . S
H495 C488 0.930 . S
H496 C489 0.930 . S
C497 C498 1.392 . S
C497 N501 1.325 1_455 S
C497 H503 0.930 . S
C498 C497 1.392 . S
C498 N502 1.331 1_455 S
C499 C500 1.391 . S
C499 N502 1.329 . S
C499 H509 0.930 . S
C500 C499 1.391 . S
C500 N501 1.337 . S
C500 H507 0.930 . S
N501 Zn485 2.118 1_655 S
N501 C497 1.325 1_655 S
N501 C500 1.337 . S
N502 C498 1.331 1_655 S
N502 C499 1.329 . S
H503 C497 0.930 . S
C504 O484 1.257 . S
C504 O505 1.244 . S
O505 C504 1.244 . S
O506 C482 1.257 . S
O506 Zn485 2.019 . S
H507 C500 0.930 . S
H508 C487 0.930 1_455 S
H509 C499 0.930 . S
Zn510 N514 2.020 . S
Zn510 O518 2.019 . S
Zn510 N520 2.119 . S
Zn510 O528 1.975 . S
C511 N512 1.334 . S
C511 N515 1.336 . S
N512 C511 1.334 . S
N512 C513 1.334 . S
C513 N512 1.334 . S
C513 N514 1.336 . S
N514 Zn510 2.020 . S
N514 C513 1.336 . S
N514 N515 1.354 . S
N515 C511 1.336 . S
N515 N514 1.354 . S
N515 Zn519 2.020 . S
C516 O517 1.244 . S
C516 O540 1.257 . S
O517 C516 1.244 . S
O518 Zn510 2.019 . S
O518 C538 1.257 . S
Zn519 N515 2.020 . S
Zn519 O526 1.975 . S
Zn519 N535 2.119 . S
Zn519 O540 2.019 . S
N520 Zn510 2.119 . S
N520 C522 1.334 . S
N520 C523 1.328 . S
C521 C522 1.391 . S
C521 N524 1.329 . S
C521 H542 0.930 . S
C522 N520 1.334 . S
C522 C521 1.391 . S
C522 H529 0.930 . S
C523 N520 1.328 . S
C523 C525 1.392 . S
C523 H530 0.930 . S
N524 C521 1.329 . S
N524 C525 1.331 . S
C525 C523 1.392 . S
C525 N524 1.331 . S
O526 Zn519 1.975 . S
O526 C527 1.252 . S
C527 O526 1.252 . S
C527 O528 1.252 . S
O528 Zn510 1.975 . S
O528 C527 1.252 . S
H529 C522 0.930 . S
H530 C523 0.930 . S
C531 C532 1.392 . S
C531 N535 1.328 . S
C531 H537 0.930 . S
C532 C531 1.392 . S
C532 N536 1.331 . S
C533 C534 1.391 . S
C533 N536 1.329 . S
C533 H543 0.930 . S
C534 C533 1.391 . S
C534 N535 1.334 . S
C534 H541 0.930 . S
N535 Zn519 2.119 . S
N535 C531 1.328 . S
N535 C534 1.334 . S
N536 C532 1.331 . S
N536 C533 1.329 . S
H537 C531 0.930 . S
C538 O518 1.257 . S
C538 O539 1.244 . S
O539 C538 1.244 . S
O540 C516 1.257 . S
O540 Zn519 2.019 . S
H541 C534 0.930 . S
H542 C521 0.930 . S
H543 C533 0.930 . S
C544 C545 1.369 . S
C544 C546 1.419 . S
C544 H548 0.930 . S
C545 C544 1.369 . S
C545 C554 1.429 . S
C546 C544 1.419 . S
C546 C547 1.363 . S
C546 H549 0.929 . S
C547 C546 1.363 . S
C547 C553 1.428 . S
H548 C544 0.930 . S
H549 C546 0.929 . S
S550 N551 1.613 . S
S550 N552 1.610 . S
N551 S550 1.613 . S
N551 C554 1.350 . S
N552 S550 1.610 . S
N552 C553 1.351 . S
C553 C547 1.428 . S
C553 N552 1.351 . S
C553 C554 1.434 . S
C554 C545 1.429 . S
C554 N551 1.350 . S
C554 C553 1.434 . S
C555 C556 1.369 1_655 S
C555 C557 1.419 . S
C555 H559 0.930 1_655 S
C556 C555 1.369 1_455 S
C556 C565 1.429 1_455 S
C557 C555 1.419 . S
C557 C558 1.363 . S
C557 H560 0.929 . S
C558 C557 1.363 . S
C558 C564 1.428 . S
H559 C555 0.930 1_455 S
H560 C557 0.929 . S
S561 N562 1.613 . S
S561 N563 1.610 . S
N562 S561 1.613 . S
N562 C565 1.350 . S
N563 S561 1.610 . S
N563 C564 1.351 . S
C564 C558 1.428 . S
C564 N563 1.351 . S
C564 C565 1.434 . S
C565 C556 1.429 1_655 S
C565 N562 1.350 . S
C565 C564 1.434 . S
C566 C567 1.369 1_455 S
C566 C568 1.419 . S
C566 H570 0.930 1_455 S
C567 C566 1.369 1_655 S
C567 C576 1.429 1_655 S
C568 C566 1.419 . S
C568 C569 1.363 . S
C568 H571 0.929 . S
C569 C568 1.363 . S
C569 C575 1.428 . S
H570 C566 0.930 1_655 S
H571 C568 0.929 . S
S572 N573 1.613 . S
S572 N574 1.610 . S
N573 S572 1.613 . S
N573 C576 1.350 . S
N574 S572 1.610 . S
N574 C575 1.351 . S
C575 C569 1.428 . S
C575 N574 1.351 . S
C575 C576 1.434 . S
C576 C567 1.429 1_455 S
C576 N573 1.350 . S
C576 C575 1.434 . S
C577 C578 1.369 . S
C577 C579 1.419 . S
C577 H581 0.930 . S
C578 C577 1.369 . S
C578 C587 1.429 . S
C579 C577 1.419 . S
C579 C580 1.363 . S
C579 H582 0.929 . S
C580 C579 1.363 . S
C580 C586 1.428 . S
H581 C577 0.930 . S
H582 C579 0.929 . S
S583 N584 1.613 . S
S583 N585 1.610 . S
N584 S583 1.613 . S
N584 C587 1.350 . S
N585 S583 1.610 . S
N585 C586 1.351 . S
C586 C580 1.428 . S
C586 N585 1.351 . S
C586 C587 1.434 . S
C587 C578 1.429 . S
C587 N584 1.350 . S
C587 C586 1.434 . S
C588 C589 1.369 . S
C588 C590 1.419 . S
C588 H592 0.930 . S
C589 C588 1.369 . S
C589 C598 1.429 . S
C590 C588 1.419 . S
C590 C591 1.363 . S
C590 H593 0.929 . S
C591 C590 1.363 . S
C591 C597 1.428 . S
H592 C588 0.930 . S
H593 C590 0.929 . S
S594 N595 1.613 . S
S594 N596 1.610 . S
N595 S594 1.613 . S
N595 C598 1.350 . S
N596 S594 1.610 . S
N596 C597 1.351 . S
C597 C591 1.428 . S
C597 N596 1.351 . S
C597 C598 1.434 . S
C598 C589 1.429 . S
C598 N595 1.350 . S
C598 C597 1.434 . S
C599 C600 1.369 . S
C599 C601 1.419 . S
C599 H603 0.930 . S
C600 C599 1.369 . S
C600 C609 1.429 . S
C601 C599 1.419 . S
C601 C602 1.363 1_455 S
C601 H604 0.929 . S
C602 C601 1.363 1_655 S
C602 C608 1.428 1_655 S
H603 C599 0.930 . S
H604 C601 0.929 . S
S605 N606 1.613 . S
S605 N607 1.610 1_455 S
N606 S605 1.613 . S
N606 C609 1.350 . S
N607 S605 1.610 1_655 S
N607 C608 1.351 1_655 S
C608 C602 1.428 1_455 S
C608 N607 1.351 1_455 S
C608 C609 1.434 . S
C609 C600 1.429 . S
C609 N606 1.350 . S
C609 C608 1.434 . S
C610 C611 1.369 . S
C610 C612 1.419 . S
C610 H614 0.930 . S
C611 C610 1.369 . S
C611 C620 1.429 . S
C612 C610 1.419 . S
C612 C613 1.363 1_655 S
C612 H615 0.929 1_655 S
C613 C612 1.363 1_455 S
C613 C619 1.428 1_455 S
H614 C610 0.930 . S
H615 C612 0.929 1_455 S
S616 N617 1.613 . S
S616 N618 1.610 . S
N617 S616 1.613 . S
N617 C620 1.350 . S
N618 S616 1.610 . S
N618 C619 1.351 . S
C619 C613 1.428 1_655 S
C619 N618 1.351 . S
C619 C620 1.434 . S
C620 C611 1.429 . S
C620 N617 1.350 . S
C620 C619 1.434 . S
C621 C622 1.369 . S
C621 C623 1.419 . S
C621 H625 0.930 . S
C622 C621 1.369 . S
C622 C631 1.429 . S
C623 C621 1.419 . S
C623 C624 1.363 . S
C623 H626 0.929 . S
C624 C623 1.363 . S
C624 C630 1.428 . S
H625 C621 0.930 . S
H626 C623 0.929 . S
S627 N628 1.613 . S
S627 N629 1.610 . S
N628 S627 1.613 . S
N628 C631 1.350 . S
N629 S627 1.610 . S
N629 C630 1.351 . S
C630 C624 1.428 . S
C630 N629 1.351 . S
C630 C631 1.434 . S
C631 C622 1.429 . S
C631 N628 1.350 . S
C631 C630 1.434 . S
C632 C633 1.369 1_455 S
C632 C634 1.419 . S
C632 H636 0.930 . S
C633 C632 1.369 1_655 S
C633 C642 1.429 1_655 S
C634 C632 1.419 . S
C634 C635 1.363 . S
C634 H637 0.929 . S
C635 C634 1.363 . S
C635 C641 1.428 . S
H636 C632 0.930 . S
H637 C634 0.929 . S
S638 N639 1.613 1_455 S
S638 N640 1.610 . S
N639 S638 1.613 1_655 S
N639 C642 1.350 1_655 S
N640 S638 1.610 . S
N640 C641 1.351 . S
C641 C635 1.428 . S
C641 N640 1.351 . S
C641 C642 1.434 . S
C642 C633 1.429 1_455 S
C642 N639 1.350 1_455 S
C642 C641 1.434 . S
C643 C644 1.369 . S
C643 C645 1.419 . S
C643 H647 0.930 . S
C644 C643 1.369 . S
C644 C653 1.429 . S
C645 C643 1.419 . S
C645 C646 1.363 . S
C645 H648 0.929 . S
C646 C645 1.363 . S
C646 C652 1.428 . S
H647 C643 0.930 . S
H648 C645 0.929 . S
S649 N650 1.613 . S
S649 N651 1.610 . S
N650 S649 1.613 . S
N650 C653 1.350 . S
N651 S649 1.610 . S
N651 C652 1.351 . S
C652 C646 1.428 . S
C652 N651 1.351 . S
C652 C653 1.434 . S
C653 C644 1.429 . S
C653 N650 1.350 . S
C653 C652 1.434 . S
C654 C655 1.369 . S
C654 C656 1.419 . S
C654 H658 0.930 . S
C655 C654 1.369 . S
C655 C664 1.429 . S
C656 C654 1.419 . S
C656 C657 1.363 . S
C656 H659 0.929 . S
C657 C656 1.363 . S
C657 C663 1.428 . S
H658 C654 0.930 . S
H659 C656 0.929 . S
S660 N661 1.613 . S
S660 N662 1.610 . S
N661 S660 1.613 . S
N661 C664 1.350 . S
N662 S660 1.610 . S
N662 C663 1.351 . S
C663 C657 1.428 . S
C663 N662 1.351 . S
C663 C664 1.434 . S
C664 C655 1.429 . S
C664 N661 1.350 . S
C664 C663 1.434 . S
C665 C666 1.369 1_655 S
C665 C667 1.419 . S
C665 H669 0.930 . S
C666 C665 1.369 1_455 S
C666 C675 1.429 1_455 S
C667 C665 1.419 . S
C667 C668 1.363 . S
C667 H670 0.929 . S
C668 C667 1.363 . S
C668 C674 1.428 . S
H669 C665 0.930 . S
H670 C667 0.929 . S
S671 N672 1.613 1_655 S
S671 N673 1.610 . S
N672 S671 1.613 1_455 S
N672 C675 1.350 1_455 S
N673 S671 1.610 . S
N673 C674 1.351 . S
C674 C668 1.428 . S
C674 N673 1.351 . S
C674 C675 1.434 . S
C675 C666 1.429 1_655 S
C675 N672 1.350 1_655 S
C675 C674 1.434 . S
C676 C677 1.369 1_655 S
C676 C678 1.419 . S
C676 H680 0.930 1_655 S
C677 C676 1.369 1_455 S
C677 C686 1.429 1_455 S
C678 C676 1.419 . S
C678 C679 1.363 . S
C678 H681 0.929 . S
C679 C678 1.363 . S
C679 C685 1.428 . S
H680 C676 0.930 1_455 S
H681 C678 0.929 . S
S682 N683 1.613 . S
S682 N684 1.610 . S
N683 S682 1.613 . S
N683 C686 1.350 . S
N684 S682 1.610 . S
N684 C685 1.351 . S
C685 C679 1.428 . S
C685 N684 1.351 . S
C685 C686 1.434 . S
C686 C677 1.429 1_655 S
C686 N683 1.350 . S
C686 C685 1.434 . S
C687 C688 1.369 . S
C687 C689 1.419 . S
C687 H691 0.930 . S
C688 C687 1.369 . S
C688 C697 1.429 . S
C689 C687 1.419 . S
C689 C690 1.363 . S
C689 H692 0.929 . S
C690 C689 1.363 . S
C690 C696 1.428 . S
H691 C687 0.930 . S
H692 C689 0.929 . S
S693 N694 1.613 . S
S693 N695 1.610 . S
N694 S693 1.613 . S
N694 C697 1.350 . S
N695 S693 1.610 . S
N695 C696 1.351 . S
C696 C690 1.428 . S
C696 N695 1.351 . S
C696 C697 1.434 . S
C697 C688 1.429 . S
C697 N694 1.350 . S
C697 C696 1.434 . S
C698 C699 1.369 . S
C698 C700 1.419 . S
C698 H702 0.930 . S
C699 C698 1.369 . S
C699 C708 1.429 . S
C700 C698 1.419 . S
C700 C701 1.363 . S
C700 H703 0.929 . S
C701 C700 1.363 . S
C701 C707 1.428 . S
H702 C698 0.930 . S
H703 C700 0.929 . S
S704 N705 1.613 . S
S704 N706 1.610 . S
N705 S704 1.613 . S
N705 C708 1.350 . S
N706 S704 1.610 . S
N706 C707 1.351 . S
C707 C701 1.428 . S
C707 N706 1.351 . S
C707 C708 1.434 . S
C708 C699 1.429 . S
C708 N705 1.350 . S
C708 C707 1.434 . S
C709 C710 1.369 . S
C709 C711 1.419 . S
C709 H713 0.930 . S
C710 C709 1.369 . S
C710 C719 1.429 . S
C711 C709 1.419 . S
C711 C712 1.363 1_455 S
C711 H714 0.929 1_455 S
C712 C711 1.363 1_655 S
C712 C718 1.428 1_655 S
H713 C709 0.930 . S
H714 C711 0.929 1_655 S
S715 N716 1.613 . S
S715 N717 1.610 . S
N716 S715 1.613 . S
N716 C719 1.350 . S
N717 S715 1.610 . S
N717 C718 1.351 . S
C718 C712 1.428 1_455 S
C718 N717 1.351 . S
C718 C719 1.434 . S
C719 C710 1.429 . S
C719 N716 1.350 . S
C719 C718 1.434 . S
C720 C721 1.369 . S
C720 C722 1.419 1_554 S
C720 H724 0.930 . S
C721 C720 1.369 . S
C721 C730 1.429 . S
C722 C720 1.419 1_556 S
C722 C723 1.363 . S
C722 H725 0.929 . S
C723 C722 1.363 . S
C723 C729 1.428 . S
H724 C720 0.930 . S
H725 C722 0.929 . S
S726 N727 1.613 . S
S726 N728 1.610 1_554 S
N727 S726 1.613 . S
N727 C730 1.350 . S
N728 S726 1.610 1_556 S
N728 C729 1.351 . S
C729 C723 1.428 . S
C729 N728 1.351 . S
C729 C730 1.434 1_556 S
C730 C721 1.429 . S
C730 N727 1.350 . S
C730 C729 1.434 1_554 S
C731 C732 1.369 1_556 S
C731 C733 1.419 . S
C731 H735 0.930 . S
C732 C731 1.369 1_554 S
C732 C741 1.429 . S
C733 C731 1.419 . S
C733 C734 1.363 . S
C733 H736 0.929 . S
C734 C733 1.363 . S
C734 C740 1.428 1_556 S
H735 C731 0.930 . S
H736 C733 0.929 . S
S737 N738 1.613 1_655 S
S737 N739 1.610 . S
N738 S737 1.613 1_455 S
N738 C741 1.350 . S
N739 S737 1.610 . S
N739 C740 1.351 1_655 S
C740 C734 1.428 1_554 S
C740 N739 1.351 1_455 S
C740 C741 1.434 . S
C741 C732 1.429 . S
C741 N738 1.350 . S
C741 C740 1.434 . S
C742 C743 1.369 . S
C742 C744 1.419 . S
C742 H746 0.930 . S
C743 C742 1.369 . S
C743 C752 1.429 . S
C744 C742 1.419 . S
C744 C745 1.363 . S
C744 H747 0.929 . S
C745 C744 1.363 . S
C745 C751 1.428 . S
H746 C742 0.930 . S
H747 C744 0.929 . S
S748 N749 1.613 . S
S748 N750 1.610 . S
N749 S748 1.613 . S
N749 C752 1.350 . S
N750 S748 1.610 . S
N750 C751 1.351 . S
C751 C745 1.428 . S
C751 N750 1.351 . S
C751 C752 1.434 . S
C752 C743 1.429 . S
C752 N749 1.350 . S
C752 C751 1.434 . S
C753 C754 1.369 . S
C753 C755 1.419 . S
C753 H757 0.930 . S
C754 C753 1.369 . S
C754 C763 1.429 . S
C755 C753 1.419 . S
C755 C756 1.363 . S
C755 H758 0.929 . S
C756 C755 1.363 . S
C756 C762 1.428 . S
H757 C753 0.930 . S
H758 C755 0.929 . S
S759 N760 1.613 . S
S759 N761 1.610 . S
N760 S759 1.613 . S
N760 C763 1.350 . S
N761 S759 1.610 . S
N761 C762 1.351 . S
C762 C756 1.428 . S
C762 N761 1.351 . S
C762 C763 1.434 . S
C763 C754 1.429 . S
C763 N760 1.350 . S
C763 C762 1.434 . S
C764 C765 1.369 1_554 S
C764 C766 1.419 . S
C764 H768 0.930 . S
C765 C764 1.369 1_556 S
C765 C774 1.429 . S
C766 C764 1.419 . S
C766 C767 1.363 . S
C766 H769 0.929 . S
C767 C766 1.363 . S
C767 C773 1.428 1_554 S
H768 C764 0.930 . S
H769 C766 0.929 . S
S770 N771 1.613 . S
S770 N772 1.610 . S
N771 S770 1.613 . S
N771 C774 1.350 . S
N772 S770 1.610 . S
N772 C773 1.351 . S
C773 C767 1.428 1_556 S
C773 N772 1.351 . S
C773 C774 1.434 . S
C774 C765 1.429 . S
C774 N771 1.350 . S
C774 C773 1.434 . S
C775 C776 1.369 . S
C775 C777 1.419 . S
C775 H779 0.930 . S
C776 C775 1.369 . S
C776 C785 1.429 1_556 S
C777 C775 1.419 . S
C777 C778 1.363 1_556 S
C777 H780 0.929 . S
C778 C777 1.363 1_554 S
C778 C784 1.428 . S
H779 C775 0.930 . S
H780 C777 0.929 . S
S781 N782 1.613 . S
S781 N783 1.610 . S
N782 S781 1.613 . S
N782 C785 1.350 . S
N783 S781 1.610 . S
N783 C784 1.351 . S
C784 C778 1.428 . S
C784 N783 1.351 . S
C784 C785 1.434 . S
C785 C776 1.429 1_554 S
C785 N782 1.350 . S
C785 C784 1.434 . S
C786 C787 1.369 . S
C786 C788 1.419 . S
C786 H790 0.930 . S
C787 C786 1.369 . S
C787 C796 1.429 . S
C788 C786 1.419 . S
C788 C789 1.363 . S
C788 H791 0.929 . S
C789 C788 1.363 . S
C789 C795 1.428 . S
H790 C786 0.930 . S
H791 C788 0.929 . S
S792 N793 1.613 . S
S792 N794 1.610 . S
N793 S792 1.613 . S
N793 C796 1.350 . S
N794 S792 1.610 . S
N794 C795 1.351 . S
C795 C789 1.428 . S
C795 N794 1.351 . S
C795 C796 1.434 . S
C796 C787 1.429 . S
C796 N793 1.350 . S
C796 C795 1.434 . S
C797 C798 1.369 . S
C797 C799 1.419 . S
C797 H801 0.930 . S
C798 C797 1.369 . S
C798 C807 1.429 . S
C799 C797 1.419 . S
C799 C800 1.363 . S
C799 H802 0.929 . S
C800 C799 1.363 . S
C800 C806 1.428 . S
H801 C797 0.930 . S
H802 C799 0.929 . S
S803 N804 1.613 . S
S803 N805 1.610 . S
N804 S803 1.613 . S
N804 C807 1.350 . S
N805 S803 1.610 . S
N805 C806 1.351 . S
C806 C800 1.428 . S
C806 N805 1.351 . S
C806 C807 1.434 . S
C807 C798 1.429 . S
C807 N804 1.350 . S
C807 C806 1.434 . S
C808 C809 1.369 . S
C808 C810 1.419 . S
C808 H812 0.930 . S
C809 C808 1.369 . S
C809 C818 1.429 1_554 S
C810 C808 1.419 . S
C810 C811 1.363 1_554 S
C810 H813 0.929 . S
C811 C810 1.363 1_556 S
C811 C817 1.428 . S
H812 C808 0.930 . S
H813 C810 0.929 . S
S814 N815 1.613 . S
S814 N816 1.610 . S
N815 S814 1.613 . S
N815 C818 1.350 . S
N816 S814 1.610 . S
N816 C817 1.351 . S
C817 C811 1.428 . S
C817 N816 1.351 . S
C817 C818 1.434 . S
C818 C809 1.429 1_556 S
C818 N815 1.350 . S
C818 C817 1.434 . S
C819 C820 1.369 . S
C819 C821 1.419 . S
C819 H823 0.930 . S
C820 C819 1.369 . S
C820 C829 1.429 1_556 S
C821 C819 1.419 . S
C821 C822 1.363 1_556 S
C821 H824 0.929 . S
C822 C821 1.363 1_554 S
C822 C828 1.428 . S
H823 C819 0.930 . S
H824 C821 0.929 . S
S825 N826 1.613 . S
S825 N827 1.610 . S
N826 S825 1.613 . S
N826 C829 1.350 . S
N827 S825 1.610 . S
N827 C828 1.351 . S
C828 C822 1.428 . S
C828 N827 1.351 . S
C828 C829 1.434 . S
C829 C820 1.429 1_554 S
C829 N826 1.350 . S
C829 C828 1.434 . S
C830 C831 1.369 . S
C830 C832 1.419 . S
C830 H834 0.930 . S
C831 C830 1.369 . S
C831 C840 1.429 . S
C832 C830 1.419 . S
C832 C833 1.363 . S
C832 H835 0.929 . S
C833 C832 1.363 . S
C833 C839 1.428 . S
H834 C830 0.930 . S
H835 C832 0.929 . S
S836 N837 1.613 . S
S836 N838 1.610 . S
N837 S836 1.613 . S
N837 C840 1.350 . S
N838 S836 1.610 . S
N838 C839 1.351 . S
C839 C833 1.428 . S
C839 N838 1.351 . S
C839 C840 1.434 . S
C840 C831 1.429 . S
C840 N837 1.350 . S
C840 C839 1.434 . S
C841 C842 1.369 . S
C841 C843 1.419 . S
C841 H845 0.930 . S
C842 C841 1.369 . S
C842 C851 1.429 . S
C843 C841 1.419 . S
C843 C844 1.363 . S
C843 H846 0.929 . S
C844 C843 1.363 . S
C844 C850 1.428 . S
H845 C841 0.930 . S
H846 C843 0.929 . S
S847 N848 1.613 1_455 S
S847 N849 1.610 . S
N848 S847 1.613 1_655 S
N848 C851 1.350 1_655 S
N849 S847 1.610 . S
N849 C850 1.351 . S
C850 C844 1.428 . S
C850 N849 1.351 . S
C850 C851 1.434 . S
C851 C842 1.429 . S
C851 N848 1.350 1_455 S
C851 C850 1.434 . S
C852 C853 1.369 1_556 S
C852 C854 1.419 . S
C852 H856 0.930 . S
C853 C852 1.369 1_554 S
C853 C862 1.429 . S
C854 C852 1.419 . S
C854 C855 1.363 . S
C854 H857 0.929 . S
C855 C854 1.363 . S
C855 C861 1.428 1_556 S
H856 C852 0.930 . S
H857 C854 0.929 . S
S858 N859 1.613 . S
S858 N860 1.610 . S
N859 S858 1.613 . S
N859 C862 1.350 . S
N860 S858 1.610 . S
N860 C861 1.351 . S
C861 C855 1.428 1_554 S
C861 N860 1.351 . S
C861 C862 1.434 . S
C862 C853 1.429 . S
C862 N859 1.350 . S
C862 C861 1.434 . S
C863 C864 1.377 . S
C863 C865 1.411 1_556 S
C863 H867 0.929 1_556 S
C864 C863 1.377 . S
C864 C873 1.429 . S
C865 C863 1.411 1_554 S
C865 C866 1.363 . S
C865 H868 0.929 . S
C866 C865 1.363 . S
C866 C872 1.428 1_554 S
H867 C863 0.929 1_554 S
H868 C865 0.929 . S
S869 N870 1.613 . S
S869 N871 1.610 . S
N870 S869 1.613 . S
N870 C873 1.350 . S
N871 S869 1.610 . S
N871 C872 1.351 . S
C872 C866 1.428 1_556 S
C872 N871 1.351 . S
C872 C873 1.434 . S
C873 C864 1.429 . S
C873 N870 1.350 . S
C873 C872 1.434 . S
C874 C875 1.369 . S
C874 C876 1.419 . S
C874 H878 0.930 . S
C875 C874 1.369 . S
C875 C884 1.429 . S
C876 C874 1.419 . S
C876 C877 1.363 . S
C876 H879 0.929 . S
C877 C876 1.363 . S
C877 C883 1.428 . S
H878 C874 0.930 . S
H879 C876 0.929 . S
S880 N881 1.613 . S
S880 N882 1.610 . S
N881 S880 1.613 . S
N881 C884 1.350 . S
N882 S880 1.610 . S
N882 C883 1.351 . S
C883 C877 1.428 . S
C883 N882 1.351 . S
C883 C884 1.434 . S
C884 C875 1.429 . S
C884 N881 1.350 . S
C884 C883 1.434 . S
C885 C886 1.369 . S
C885 C887 1.419 . S
C885 H889 0.930 . S
C886 C885 1.369 . S
C886 C895 1.429 . S
C887 C885 1.419 . S
C887 C888 1.363 . S
C887 H890 0.929 . S
C888 C887 1.363 . S
C888 C894 1.428 . S
H889 C885 0.930 . S
H890 C887 0.929 . S
S891 N892 1.613 . S
S891 N893 1.610 . S
N892 S891 1.613 . S
N892 C895 1.350 . S
N893 S891 1.610 . S
N893 C894 1.351 . S
C894 C888 1.428 . S
C894 N893 1.351 . S
C894 C895 1.434 . S
C895 C886 1.429 . S
C895 N892 1.350 . S
C895 C894 1.434 . S
C896 C897 1.369 . S
C896 C898 1.419 1_545 S
C896 H900 0.930 . S
C897 C896 1.369 . S
C897 C906 1.429 . S
C898 C896 1.419 1_565 S
C898 C899 1.363 . S
C898 H901 0.929 . S
C899 C898 1.363 . S
C899 C905 1.428 . S
H900 C896 0.930 . S
H901 C898 0.929 . S
S902 N903 1.630 . S
S902 N904 1.594 1_545 S
N903 S902 1.630 . S
N903 C906 1.350 . S
N904 S902 1.594 1_565 S
N904 C905 1.351 . S
C905 C899 1.428 . S
C905 N904 1.351 . S
C905 C906 1.434 1_565 S
C906 C897 1.429 . S
C906 N903 1.350 . S
C906 C905 1.434 1_545 S
C907 C908 1.369 . S
C907 C909 1.419 1_545 S
C907 H911 0.930 . S
C908 C907 1.369 . S
C908 C917 1.429 . S
C909 C907 1.419 1_565 S
C909 C910 1.363 . S
C909 H912 0.929 . S
C910 C909 1.363 . S
C910 C916 1.428 . S
H911 C907 0.930 . S
H912 C909 0.929 . S
S913 N914 1.613 1_565 S
S913 N915 1.610 . S
N914 S913 1.613 1_545 S
N914 C917 1.350 . S
N915 S913 1.610 . S
N915 C916 1.351 . S
C916 C910 1.428 . S
C916 N915 1.351 . S
C916 C917 1.434 1_565 S
C917 C908 1.429 . S
C917 N914 1.350 . S
C917 C916 1.434 1_545 S
C918 C919 1.369 . S
C918 C920 1.419 1_565 S
C918 H922 0.930 . S
C919 C918 1.369 . S
C919 C928 1.429 . S
C920 C918 1.419 1_545 S
C920 C921 1.363 . S
C920 H923 0.929 . S
C921 C920 1.363 . S
C921 C927 1.428 . S
H922 C918 0.930 . S
H923 C920 0.929 . S
S924 N925 1.602 1_545 S
S924 N926 1.621 . S
N925 S924 1.602 1_565 S
N925 C928 1.350 . S
N926 S924 1.621 . S
N926 C927 1.351 . S
C927 C921 1.428 . S
C927 N926 1.351 . S
C927 C928 1.434 1_545 S
C928 C919 1.429 . S
C928 N925 1.350 . S
C928 C927 1.434 1_565 S
C929 C930 1.369 . S
C929 C931 1.419 1_565 S
C929 H933 0.930 . S
C930 C929 1.369 . S
C930 C939 1.429 . S
C931 C929 1.419 1_545 S
C931 C932 1.363 . S
C931 H934 0.929 . S
C932 C931 1.363 . S
C932 C938 1.428 . S
H933 C929 0.930 . S
H934 C931 0.929 . S
S935 N936 1.586 1_545 S
S935 N937 1.637 . S
N936 S935 1.586 1_565 S
N936 C939 1.350 . S
N937 S935 1.637 . S
N937 C938 1.351 . S
C938 C932 1.428 . S
C938 N937 1.351 . S
C938 C939 1.434 1_545 S
C939 C930 1.429 . S
C939 N936 1.350 . S
C939 C938 1.434 1_565 S
C940 C941 1.369 . S
C940 C942 1.419 . S
C940 H944 0.930 . S
C941 C940 1.369 . S
C941 C950 1.429 . S
C942 C940 1.419 . S
C942 C943 1.363 . S
C942 H945 0.929 . S
C943 C942 1.363 . S
C943 C949 1.428 . S
H944 C940 0.930 . S
H945 C942 0.929 . S
S946 N947 1.613 . S
S946 N948 1.610 . S
N947 S946 1.613 . S
N947 C950 1.350 . S
N948 S946 1.610 . S
N948 C949 1.351 . S
C949 C943 1.428 . S
C949 N948 1.351 . S
C949 C950 1.434 . S
C950 C941 1.429 . S
C950 N947 1.350 . S
C950 C949 1.434 . S
C951 C952 1.369 . S
C951 C953 1.419 . S
C951 H955 0.930 . S
C952 C951 1.369 . S
C952 C961 1.429 . S
C953 C951 1.419 . S
C953 C954 1.363 . S
C953 H956 0.929 . S
C954 C953 1.363 . S
C954 C960 1.428 . S
H955 C951 0.930 . S
H956 C953 0.929 . S
S957 N958 1.613 . S
S957 N959 1.610 . S
N958 S957 1.613 . S
N958 C961 1.350 . S
N959 S957 1.610 . S
N959 C960 1.351 . S
C960 C954 1.428 . S
C960 N959 1.351 . S
C960 C961 1.434 . S
C961 C952 1.429 . S
C961 N958 1.350 . S
C961 C960 1.434 . S
C962 C963 1.369 . S
C962 C964 1.419 . S
C962 H966 0.930 . S
C963 C962 1.369 . S
C963 C972 1.429 . S
C964 C962 1.419 . S
C964 C965 1.363 . S
C964 H967 0.929 . S
C965 C964 1.363 . S
C965 C971 1.428 . S
H966 C962 0.930 . S
H967 C964 0.929 . S
S968 N969 1.613 . S
S968 N970 1.610 . S
N969 S968 1.613 . S
N969 C972 1.350 . S
N970 S968 1.610 . S
N970 C971 1.351 . S
C971 C965 1.428 . S
C971 N970 1.351 . S
C971 C972 1.434 . S
C972 C963 1.429 . S
C972 N969 1.350 . S
C972 C971 1.434 . S
C973 C974 1.369 . S
C973 C975 1.419 . S
C973 H977 0.930 . S
C974 C973 1.369 . S
C974 C983 1.429 . S
C975 C973 1.419 . S
C975 C976 1.363 . S
C975 H978 0.929 . S
C976 C975 1.363 . S
C976 C982 1.428 . S
H977 C973 0.930 . S
H978 C975 0.929 . S
S979 N980 1.613 . S
S979 N981 1.610 . S
N980 S979 1.613 . S
N980 C983 1.350 . S
N981 S979 1.610 . S
N981 C982 1.351 . S
C982 C976 1.428 . S
C982 N981 1.351 . S
C982 C983 1.434 . S
C983 C974 1.429 . S
C983 N980 1.350 . S
C983 C982 1.434 . S
C984 C985 1.369 1_455 S
C984 C986 1.419 . S
C984 H988 0.930 . S
C985 C984 1.369 1_655 S
C985 C994 1.429 . S
C986 C984 1.419 . S
C986 C987 1.363 . S
C986 H989 0.929 . S
C987 C986 1.363 . S
C987 C993 1.428 1_455 S
H988 C984 0.930 . S
H989 C986 0.929 . S
S990 N991 1.613 . S
S990 N992 1.610 . S
N991 S990 1.613 . S
N991 C994 1.350 . S
N992 S990 1.610 . S
N992 C993 1.351 . S
C993 C987 1.428 1_655 S
C993 N992 1.351 . S
C993 C994 1.434 . S
C994 C985 1.429 . S
C994 N991 1.350 . S
C994 C993 1.434 . S
C995 C996 1.369 . S
C995 C997 1.419 . S
C995 H999 0.930 . S
C996 C995 1.369 . S
C996 C1005 1.429 . S
C997 C995 1.419 . S
C997 C998 1.363 . S
C997 H1000 0.929 . S
C998 C997 1.363 . S
C998 C1004 1.428 . S
H999 C995 0.930 . S
H1000 C997 0.929 . S
S1001 N1002 1.613 . S
S1001 N1003 1.610 . S
N1002 S1001 1.613 . S
N1002 C1005 1.350 . S
N1003 S1001 1.610 . S
N1003 C1004 1.351 . S
C1004 C998 1.428 . S
C1004 N1003 1.351 . S
C1004 C1005 1.434 . S
C1005 C996 1.429 . S
C1005 N1002 1.350 . S
C1005 C1004 1.434 . S
C1006 C1007 1.369 . S
C1006 C1008 1.419 . S
C1006 H1010 0.930 . S
C1007 C1006 1.369 . S
C1007 C1016 1.429 . S
C1008 C1006 1.419 . S
C1008 C1009 1.363 . S
C1008 H1011 0.929 . S
C1009 C1008 1.363 . S
C1009 C1015 1.428 . S
H1010 C1006 0.930 . S
H1011 C1008 0.929 . S
S1012 N1013 1.613 . S
S1012 N1014 1.610 . S
N1013 S1012 1.613 . S
N1013 C1016 1.350 . S
N1014 S1012 1.610 . S
N1014 C1015 1.351 . S
C1015 C1009 1.428 . S
C1015 N1014 1.351 . S
C1015 C1016 1.434 . S
C1016 C1007 1.429 . S
C1016 N1013 1.350 . S
C1016 C1015 1.434 . S
C1017 C1018 1.369 . S
C1017 C1019 1.419 . S
C1017 H1021 0.930 . S
C1018 C1017 1.369 . S
C1018 C1027 1.429 1_655 S
C1019 C1017 1.419 . S
C1019 C1020 1.363 1_655 S
C1019 H1022 0.929 . S
C1020 C1019 1.363 1_455 S
C1020 C1026 1.428 . S
H1021 C1017 0.930 . S
H1022 C1019 0.929 . S
S1023 N1024 1.613 . S
S1023 N1025 1.610 . S
N1024 S1023 1.613 . S
N1024 C1027 1.350 . S
N1025 S1023 1.610 . S
N1025 C1026 1.351 . S
C1026 C1020 1.428 . S
C1026 N1025 1.351 . S
C1026 C1027 1.434 . S
C1027 C1018 1.429 1_455 S
C1027 N1024 1.350 . S
C1027 C1026 1.434 . S
C1028 C1029 1.369 1_655 S
C1028 C1030 1.419 . S
C1028 H1032 0.930 . S
C1029 C1028 1.369 1_455 S
C1029 C1038 1.429 . S
C1030 C1028 1.419 . S
C1030 C1031 1.363 . S
C1030 H1033 0.929 . S
C1031 C1030 1.363 . S
C1031 C1037 1.428 1_655 S
H1032 C1028 0.930 . S
H1033 C1030 0.929 . S
S1034 N1035 1.613 . S
S1034 N1036 1.610 . S
N1035 S1034 1.613 . S
N1035 C1038 1.350 . S
N1036 S1034 1.610 . S
N1036 C1037 1.351 . S
C1037 C1031 1.428 1_455 S
C1037 N1036 1.351 . S
C1037 C1038 1.434 . S
C1038 C1029 1.429 . S
C1038 N1035 1.350 . S
C1038 C1037 1.434 . S
C1039 C1040 1.369 . S
C1039 C1041 1.419 . S
C1039 H1043 0.930 . S
C1040 C1039 1.369 . S
C1040 C1049 1.429 . S
C1041 C1039 1.419 . S
C1041 C1042 1.363 . S
C1041 H1044 0.929 . S
C1042 C1041 1.363 . S
C1042 C1048 1.428 . S
H1043 C1039 0.930 . S
H1044 C1041 0.929 . S
S1045 N1046 1.613 . S
S1045 N1047 1.610 . S
N1046 S1045 1.613 . S
N1046 C1049 1.350 . S
N1047 S1045 1.610 . S
N1047 C1048 1.351 . S
C1048 C1042 1.428 . S
C1048 N1047 1.351 . S
C1048 C1049 1.434 . S
C1049 C1040 1.429 . S
C1049 N1046 1.350 . S
C1049 C1048 1.434 . S
C1050 C1051 1.369 . S
C1050 C1052 1.419 . S
C1050 H1054 0.930 . S
C1051 C1050 1.369 . S
C1051 C1060 1.429 . S
C1052 C1050 1.419 . S
C1052 C1053 1.363 . S
C1052 H1055 0.929 . S
C1053 C1052 1.363 . S
C1053 C1059 1.428 . S
H1054 C1050 0.930 . S
H1055 C1052 0.929 . S
S1056 N1057 1.613 . S
S1056 N1058 1.610 . S
N1057 S1056 1.613 . S
N1057 C1060 1.350 . S
N1058 S1056 1.610 . S
N1058 C1059 1.351 . S
C1059 C1053 1.428 . S
C1059 N1058 1.351 . S
C1059 C1060 1.434 . S
C1060 C1051 1.429 . S
C1060 N1057 1.350 . S
C1060 C1059 1.434 . S
C1061 C1062 1.369 . S
C1061 C1063 1.419 . S
C1061 H1065 0.930 . S
C1062 C1061 1.369 . S
C1062 C1071 1.429 1_455 S
C1063 C1061 1.419 . S
C1063 C1064 1.363 1_455 S
C1063 H1066 0.929 . S
C1064 C1063 1.363 1_655 S
C1064 C1070 1.428 . S
H1065 C1061 0.930 . S
H1066 C1063 0.929 . S
S1067 N1068 1.613 . S
S1067 N1069 1.610 . S
N1068 S1067 1.613 . S
N1068 C1071 1.350 . S
N1069 S1067 1.610 . S
N1069 C1070 1.351 . S
C1070 C1064 1.428 . S
C1070 N1069 1.351 . S
C1070 C1071 1.434 . S
C1071 C1062 1.429 1_655 S
C1071 N1068 1.350 . S
C1071 C1070 1.434 . S
C1072 C1073 1.369 1_455 S
C1072 C1074 1.419 . S
C1072 H1076 0.930 . S
C1073 C1072 1.369 1_655 S
C1073 C1082 1.429 . S
C1074 C1072 1.419 . S
C1074 C1075 1.363 . S
C1074 H1077 0.929 . S
C1075 C1074 1.363 . S
C1075 C1081 1.428 1_455 S
H1076 C1072 0.930 . S
H1077 C1074 0.929 . S
S1078 N1079 1.613 . S
S1078 N1080 1.610 . S
N1079 S1078 1.613 . S
N1079 C1082 1.350 . S
N1080 S1078 1.610 . S
N1080 C1081 1.351 . S
C1081 C1075 1.428 1_655 S
C1081 N1080 1.351 . S
C1081 C1082 1.434 . S
C1082 C1073 1.429 . S
C1082 N1079 1.350 . S
C1082 C1081 1.434 . S
C1083 C1084 1.369 . S
C1083 C1085 1.419 . S
C1083 H1087 0.930 . S
C1084 C1083 1.369 . S
C1084 C1093 1.429 . S
C1085 C1083 1.419 . S
C1085 C1086 1.363 . S
C1085 H1088 0.929 . S
C1086 C1085 1.363 . S
C1086 C1092 1.428 . S
H1087 C1083 0.930 . S
H1088 C1085 0.929 . S
S1089 N1090 1.613 . S
S1089 N1091 1.610 . S
N1090 S1089 1.613 . S
N1090 C1093 1.350 . S
N1091 S1089 1.610 . S
N1091 C1092 1.351 . S
C1092 C1086 1.428 . S
C1092 N1091 1.351 . S
C1092 C1093 1.434 . S
C1093 C1084 1.429 . S
C1093 N1090 1.350 . S
C1093 C1092 1.434 . S
C1094 C1095 1.369 1_655 S
C1094 C1096 1.419 . S
C1094 H1098 0.930 . S
C1095 C1094 1.369 1_455 S
C1095 C1104 1.429 . S
C1096 C1094 1.419 . S
C1096 C1097 1.363 . S
C1096 H1099 0.929 . S
C1097 C1096 1.363 . S
C1097 C1103 1.428 1_655 S
H1098 C1094 0.930 . S
H1099 C1096 0.929 . S
S1100 N1101 1.613 . S
S1100 N1102 1.610 . S
N1101 S1100 1.613 . S
N1101 C1104 1.350 . S
N1102 S1100 1.610 . S
N1102 C1103 1.351 . S
C1103 C1097 1.428 1_455 S
C1103 N1102 1.351 . S
C1103 C1104 1.434 . S
C1104 C1095 1.429 . S
C1104 N1101 1.350 . S
C1104 C1103 1.434 . S
C1105 C1106 1.369 . S
C1105 C1107 1.419 . S
C1105 H1109 0.930 . S
C1106 C1105 1.369 . S
C1106 C1115 1.429 . S
C1107 C1105 1.419 . S
C1107 C1108 1.363 . S
C1107 H1110 0.929 . S
C1108 C1107 1.363 . S
C1108 C1114 1.428 . S
H1109 C1105 0.930 . S
H1110 C1107 0.929 . S
S1111 N1112 1.613 . S
S1111 N1113 1.610 . S
N1112 S1111 1.613 . S
N1112 C1115 1.350 . S
N1113 S1111 1.610 . S
N1113 C1114 1.351 . S
C1114 C1108 1.428 . S
C1114 N1113 1.351 . S
C1114 C1115 1.434 . S
C1115 C1106 1.429 . S
C1115 N1112 1.350 . S
C1115 C1114 1.434 . S
C1116 C1117 1.369 . S
C1116 C1118 1.419 . S
C1116 H1120 0.930 . S
C1117 C1116 1.369 . S
C1117 C1126 1.429 . S
C1118 C1116 1.419 . S
C1118 C1119 1.363 . S
C1118 H1121 0.929 . S
C1119 C1118 1.363 . S
C1119 C1125 1.428 . S
H1120 C1116 0.930 . S
H1121 C1118 0.929 . S
S1122 N1123 1.613 . S
S1122 N1124 1.610 . S
N1123 S1122 1.613 . S
N1123 C1126 1.350 . S
N1124 S1122 1.610 . S
N1124 C1125 1.351 . S
C1125 C1119 1.428 . S
C1125 N1124 1.351 . S
C1125 C1126 1.434 . S
C1126 C1117 1.429 . S
C1126 N1123 1.350 . S
C1126 C1125 1.434 . S
C1127 C1128 1.369 1_455 S
C1127 C1129 1.419 . S
C1127 H1131 0.930 . S
C1128 C1127 1.369 1_655 S
C1128 C1137 1.429 . S
C1129 C1127 1.419 . S
C1129 C1130 1.363 . S
C1129 H1132 0.929 . S
C1130 C1129 1.363 . S
C1130 C1136 1.428 1_455 S
H1131 C1127 0.930 . S
H1132 C1129 0.929 . S
S1133 N1134 1.613 . S
S1133 N1135 1.610 . S
N1134 S1133 1.613 . S
N1134 C1137 1.350 . S
N1135 S1133 1.610 . S
N1135 C1136 1.351 . S
C1136 C1130 1.428 1_655 S
C1136 N1135 1.351 . S
C1136 C1137 1.434 . S
C1137 C1128 1.429 . S
C1137 N1134 1.350 . S
C1137 C1136 1.434 . S
C1138 C1139 1.369 . S
C1138 C1140 1.419 . S
C1138 H1142 0.930 . S
C1139 C1138 1.369 . S
C1139 C1148 1.429 . S
C1140 C1138 1.419 . S
C1140 C1141 1.363 . S
C1140 H1143 0.929 . S
C1141 C1140 1.363 . S
C1141 C1147 1.428 . S
H1142 C1138 0.930 . S
H1143 C1140 0.929 . S
S1144 N1145 1.613 . S
S1144 N1146 1.610 . S
N1145 S1144 1.613 . S
N1145 C1148 1.350 . S
N1146 S1144 1.610 . S
N1146 C1147 1.351 . S
C1147 C1141 1.428 . S
C1147 N1146 1.351 . S
C1147 C1148 1.434 . S
C1148 C1139 1.429 . S
C1148 N1145 1.350 . S
C1148 C1147 1.434 . S
C1149 C1150 1.369 . S
C1149 C1151 1.419 . S
C1149 H1153 0.930 . S
C1150 C1149 1.369 . S
C1150 C1159 1.429 1_655 S
C1151 C1149 1.419 . S
C1151 C1152 1.363 1_655 S
C1151 H1154 0.929 . S
C1152 C1151 1.363 1_455 S
C1152 C1158 1.428 . S
H1153 C1149 0.930 . S
H1154 C1151 0.929 . S
S1155 N1156 1.613 . S
S1155 N1157 1.610 . S
N1156 S1155 1.613 . S
N1156 C1159 1.350 . S
N1157 S1155 1.610 . S
N1157 C1158 1.351 . S
C1158 C1152 1.428 . S
C1158 N1157 1.351 . S
C1158 C1159 1.434 . S
C1159 C1150 1.429 1_455 S
C1159 N1156 1.350 . S
C1159 C1158 1.434 . S
C545 C28 1.447 . S
C547 C6 1.439 . S
C556 C62 1.439 . S
C558 C40 1.447 . S
C567 C96 1.439 . S
C569 C74 1.447 . S
C578 C108 1.438 . S
C580 C130 1.447 . S
C589 C142 1.447 . S
C591 C164 1.439 . S
C600 C176 1.447 . S
C602 C198 1.437 . S
C611 C210 1.447 . S
C613 C232 1.440 . S
C622 C266 1.440 . S
C624 C244 1.447 . S
C633 C278 1.437 . S
C635 C300 1.447 . S
C644 C312 1.447 . S
C646 C334 1.437 . S
C655 C346 1.447 . S
C657 C368 1.439 . S
C666 C380 1.436 . S
C668 C402 1.447 . S
C677 C414 1.439 . S
C679 C436 1.447 . S
C688 C448 1.436 . S
C690 C470 1.447 . S
C699 C504 1.437 . S
C701 C482 1.447 . S
C710 C516 1.447 . S
C712 C538 1.438 . S
C721 C1 1.878 . S
C723 C171 1.898 . S
C732 C37 1.883 . S
C734 C137 1.894 1_455 S
C743 C71 1.881 . S
C745 C239 1.896 1_655 S
C754 C103 1.878 . S
C756 C205 1.898 . S
C765 C139 1.888 . S
C767 C35 1.891 . S
C776 C173 1.882 . S
C778 C3 1.894 1_655 S
C787 C105 1.899 1_455 S
C789 C207 1.879 . S
C798 C69 1.890 . S
C800 C241 1.886 . S
C809 C273 1.884 . S
C811 C445 1.893 1_655 S
C820 C411 1.890 . S
C822 C309 1.886 . S
C831 C343 1.886 . S
C833 C511 1.892 . S
C842 C477 1.891 1_455 S
C844 C375 1.885 . S
C853 C307 1.896 1_455 S
C855 C409 1.881 . S
C864 C443 1.888 . S
C866 C275 1.890 . S
C875 C479 1.879 . S
C877 C377 1.897 . S
C886 C513 1.881 . S
C888 C341 1.895 1_655 S
C897 C22 1.516 . S
C899 C49 1.509 . S
C908 C124 1.510 . S
C910 C83 1.514 . S
C919 C151 1.512 . S
C921 C185 1.511 . S
C930 C253 1.511 . S
C932 C219 1.512 . S
C941 C321 1.509 . S
C943 C294 1.512 . S
C952 C355 1.514 . S
C954 C396 1.511 . S
C963 C430 1.516 . S
C965 C464 1.508 . S
C974 C491 1.510 . S
C976 C525 1.512 . S
C985 C15 1.811 . S
C987 C328 1.800 . S
C996 C56 1.807 . S
C998 C287 1.803 . S
C1007 C389 1.798 . S
C1009 C90 1.810 . S
C1018 C362 1.798 . S
C1020 C117 1.809 . S
C1029 C158 1.807 . S
C1031 C457 1.802 . S
C1040 C192 1.809 . S
C1042 C423 1.801 . S
C1051 C226 1.807 . S
C1053 C532 1.803 . S
C1062 C498 1.798 . S
C1064 C260 1.809 . S
C1073 C119 1.656 . S
C1075 C17 1.654 . S
C1084 C51 1.653 . S
C1086 C85 1.656 . S
C1095 C255 1.657 . S
C1097 C153 1.653 . S
C1106 C187 1.653 . S
C1108 C221 1.656 . S
C1117 C289 1.658 . S
C1119 C391 1.653 . S
C1128 C323 1.655 . S
C1130 C357 1.655 . S
C1139 C527 1.656 . S
C1141 C425 1.654 . S
C1150 C493 1.653 . S
C1152 C459 1.657 . S
