# Generated by pormake.
# Topology mer, (4)-cn, num edge types: 1
# Building blocks:
#     Node 0, Type 0, BuildingBlock: GALJAG_clean_sbu_0, # of connection points: 4
#     Node 1, Type 0, BuildingBlock: GALJAG_clean_sbu_0, # of connection points: 4
#     Node 2, Type 0, BuildingBlock: GALJAG_clean_sbu_0, # of connection points: 4
#     Node 3, Type 0, BuildingBlock: GALJAG_clean_sbu_0, # of connection points: 4
#     Node 4, Type 0, BuildingBlock: GALJAG_clean_sbu_0, # of connection points: 4
#     Node 5, Type 0, BuildingBlock: GALJAG_clean_sbu_0, # of connection points: 4
#     Node 6, Type 0, BuildingBlock: GALJAG_clean_sbu_0, # of connection points: 4
#     Node 7, Type 0, BuildingBlock: GALJAG_clean_sbu_0, # of connection points: 4
#     Node 8, Type 0, BuildingBlock: GALJAG_clean_sbu_0, # of connection points: 4
#     Node 9, Type 0, BuildingBlock: GALJAG_clean_sbu_0, # of connection points: 4
#     Node 10, Type 0, BuildingBlock: GALJAG_clean_sbu_0, # of connection points: 4
#     Node 11, Type 0, BuildingBlock: GALJAG_clean_sbu_0, # of connection points: 4
#     Node 12, Type 0, BuildingBlock: GALJAG_clean_sbu_0, # of connection points: 4
#     Node 13, Type 0, BuildingBlock: GALJAG_clean_sbu_0, # of connection points: 4
#     Node 14, Type 0, BuildingBlock: GALJAG_clean_sbu_0, # of connection points: 4
#     Node 15, Type 0, BuildingBlock: GALJAG_clean_sbu_0, # of connection points: 4
#     Node 16, Type 0, BuildingBlock: GALJAG_clean_sbu_0, # of connection points: 4
#     Node 17, Type 0, BuildingBlock: GALJAG_clean_sbu_0, # of connection points: 4
#     Node 18, Type 0, BuildingBlock: GALJAG_clean_sbu_0, # of connection points: 4
#     Node 19, Type 0, BuildingBlock: GALJAG_clean_sbu_0, # of connection points: 4
#     Node 20, Type 0, BuildingBlock: GALJAG_clean_sbu_0, # of connection points: 4
#     Node 21, Type 0, BuildingBlock: GALJAG_clean_sbu_0, # of connection points: 4
#     Node 22, Type 0, BuildingBlock: GALJAG_clean_sbu_0, # of connection points: 4
#     Node 23, Type 0, BuildingBlock: GALJAG_clean_sbu_0, # of connection points: 4
#     Node 24, Type 0, BuildingBlock: GALJAG_clean_sbu_0, # of connection points: 4
#     Node 25, Type 0, BuildingBlock: GALJAG_clean_sbu_0, # of connection points: 4
#     Node 26, Type 0, BuildingBlock: GALJAG_clean_sbu_0, # of connection points: 4
#     Node 27, Type 0, BuildingBlock: GALJAG_clean_sbu_0, # of connection points: 4
#     Node 28, Type 0, BuildingBlock: GALJAG_clean_sbu_0, # of connection points: 4
#     Node 29, Type 0, BuildingBlock: GALJAG_clean_sbu_0, # of connection points: 4
#     Node 30, Type 0, BuildingBlock: GALJAG_clean_sbu_0, # of connection points: 4
#     Node 31, Type 0, BuildingBlock: GALJAG_clean_sbu_0, # of connection points: 4
#     Edge 32, Type (0, 0), BuildingBlock: OJICUG_clean_linker_0, # of connection points: 2
#     Edge 33, Type (0, 0), BuildingBlock: OJICUG_clean_linker_0, # of connection points: 2
#     Edge 34, Type (0, 0), BuildingBlock: OJICUG_clean_linker_0, # of connection points: 2
#     Edge 35, Type (0, 0), BuildingBlock: OJICUG_clean_linker_0, # of connection points: 2
#     Edge 36, Type (0, 0), BuildingBlock: OJICUG_clean_linker_0, # of connection points: 2
#     Edge 37, Type (0, 0), BuildingBlock: OJICUG_clean_linker_0, # of connection points: 2
#     Edge 38, Type (0, 0), BuildingBlock: OJICUG_clean_linker_0, # of connection points: 2
#     Edge 39, Type (0, 0), BuildingBlock: OJICUG_clean_linker_0, # of connection points: 2
#     Edge 40, Type (0, 0), BuildingBlock: OJICUG_clean_linker_0, # of connection points: 2
#     Edge 41, Type (0, 0), BuildingBlock: OJICUG_clean_linker_0, # of connection points: 2
#     Edge 42, Type (0, 0), BuildingBlock: OJICUG_clean_linker_0, # of connection points: 2
#     Edge 43, Type (0, 0), BuildingBlock: OJICUG_clean_linker_0, # of connection points: 2
#     Edge 44, Type (0, 0), BuildingBlock: OJICUG_clean_linker_0, # of connection points: 2
#     Edge 45, Type (0, 0), BuildingBlock: OJICUG_clean_linker_0, # of connection points: 2
#     Edge 46, Type (0, 0), BuildingBlock: OJICUG_clean_linker_0, # of connection points: 2
#     Edge 47, Type (0, 0), BuildingBlock: OJICUG_clean_linker_0, # of connection points: 2
#     Edge 48, Type (0, 0), BuildingBlock: OJICUG_clean_linker_0, # of connection points: 2
#     Edge 49, Type (0, 0), BuildingBlock: OJICUG_clean_linker_0, # of connection points: 2
#     Edge 50, Type (0, 0), BuildingBlock: OJICUG_clean_linker_0, # of connection points: 2
#     Edge 51, Type (0, 0), BuildingBlock: OJICUG_clean_linker_0, # of connection points: 2
#     Edge 52, Type (0, 0), BuildingBlock: OJICUG_clean_linker_0, # of connection points: 2
#     Edge 53, Type (0, 0), BuildingBlock: OJICUG_clean_linker_0, # of connection points: 2
#     Edge 54, Type (0, 0), BuildingBlock: OJICUG_clean_linker_0, # of connection points: 2
#     Edge 55, Type (0, 0), BuildingBlock: OJICUG_clean_linker_0, # of connection points: 2
#     Edge 56, Type (0, 0), BuildingBlock: OJICUG_clean_linker_0, # of connection points: 2
#     Edge 57, Type (0, 0), BuildingBlock: OJICUG_clean_linker_0, # of connection points: 2
#     Edge 58, Type (0, 0), BuildingBlock: OJICUG_clean_linker_0, # of connection points: 2
#     Edge 59, Type (0, 0), BuildingBlock: OJICUG_clean_linker_0, # of connection points: 2
#     Edge 60, Type (0, 0), BuildingBlock: OJICUG_clean_linker_0, # of connection points: 2
#     Edge 61, Type (0, 0), BuildingBlock: OJICUG_clean_linker_0, # of connection points: 2
#     Edge 62, Type (0, 0), BuildingBlock: OJICUG_clean_linker_0, # of connection points: 2
#     Edge 63, Type (0, 0), BuildingBlock: OJICUG_clean_linker_0, # of connection points: 2
#     Edge 64, Type (0, 0), BuildingBlock: OJICUG_clean_linker_0, # of connection points: 2
#     Edge 65, Type (0, 0), BuildingBlock: OJICUG_clean_linker_0, # of connection points: 2
#     Edge 66, Type (0, 0), BuildingBlock: OJICUG_clean_linker_0, # of connection points: 2
#     Edge 67, Type (0, 0), BuildingBlock: OJICUG_clean_linker_0, # of connection points: 2
#     Edge 68, Type (0, 0), BuildingBlock: OJICUG_clean_linker_0, # of connection points: 2
#     Edge 69, Type (0, 0), BuildingBlock: OJICUG_clean_linker_0, # of connection points: 2
#     Edge 70, Type (0, 0), BuildingBlock: OJICUG_clean_linker_0, # of connection points: 2
#     Edge 71, Type (0, 0), BuildingBlock: OJICUG_clean_linker_0, # of connection points: 2
#     Edge 72, Type (0, 0), BuildingBlock: OJICUG_clean_linker_0, # of connection points: 2
#     Edge 73, Type (0, 0), BuildingBlock: OJICUG_clean_linker_0, # of connection points: 2
#     Edge 74, Type (0, 0), BuildingBlock: OJICUG_clean_linker_0, # of connection points: 2
#     Edge 75, Type (0, 0), BuildingBlock: OJICUG_clean_linker_0, # of connection points: 2
#     Edge 76, Type (0, 0), BuildingBlock: OJICUG_clean_linker_0, # of connection points: 2
#     Edge 77, Type (0, 0), BuildingBlock: OJICUG_clean_linker_0, # of connection points: 2
#     Edge 78, Type (0, 0), BuildingBlock: OJICUG_clean_linker_0, # of connection points: 2
#     Edge 79, Type (0, 0), BuildingBlock: OJICUG_clean_linker_0, # of connection points: 2
#     Edge 80, Type (0, 0), BuildingBlock: OJICUG_clean_linker_0, # of connection points: 2
#     Edge 81, Type (0, 0), BuildingBlock: OJICUG_clean_linker_0, # of connection points: 2
#     Edge 82, Type (0, 0), BuildingBlock: OJICUG_clean_linker_0, # of connection points: 2
#     Edge 83, Type (0, 0), BuildingBlock: OJICUG_clean_linker_0, # of connection points: 2
#     Edge 84, Type (0, 0), BuildingBlock: OJICUG_clean_linker_0, # of connection points: 2
#     Edge 85, Type (0, 0), BuildingBlock: OJICUG_clean_linker_0, # of connection points: 2
#     Edge 86, Type (0, 0), BuildingBlock: OJICUG_clean_linker_0, # of connection points: 2
#     Edge 87, Type (0, 0), BuildingBlock: OJICUG_clean_linker_0, # of connection points: 2
#     Edge 88, Type (0, 0), BuildingBlock: OJICUG_clean_linker_0, # of connection points: 2
#     Edge 89, Type (0, 0), BuildingBlock: OJICUG_clean_linker_0, # of connection points: 2
#     Edge 90, Type (0, 0), BuildingBlock: OJICUG_clean_linker_0, # of connection points: 2
#     Edge 91, Type (0, 0), BuildingBlock: OJICUG_clean_linker_0, # of connection points: 2
#     Edge 92, Type (0, 0), BuildingBlock: OJICUG_clean_linker_0, # of connection points: 2
#     Edge 93, Type (0, 0), BuildingBlock: OJICUG_clean_linker_0, # of connection points: 2
#     Edge 94, Type (0, 0), BuildingBlock: OJICUG_clean_linker_0, # of connection points: 2
#     Edge 95, Type (0, 0), BuildingBlock: OJICUG_clean_linker_0, # of connection points: 2
# Relax obj value: 0.054
# Max RMSD: 0.080
# Mean RMSD: 0.080
data_MOF--net-mer--node1-GALJAG_clean_sbu_0--edge1-OJICUG_clean_linker_0
_symmetry_space_group_name_H-M    P1
_symmetry_Int_Tables_number       1
_symmetry_cell_setting            triclinic
loop_
_symmetry_equiv_pos_as_xyz
'x, y, z'
_cell_length_a     47.166194
_cell_length_b     47.144515
_cell_length_c     39.945547
_cell_angle_alpha  89.999254
_cell_angle_beta   89.998451
_cell_angle_gamma 89.918352
loop_
_atom_site_label
_atom_site_type_symbol
_atom_site_fract_x
_atom_site_fract_y
_atom_site_fract_z
_atom_type_partial_charge
In0 In 0.11099 0.27366 0.35918 0.0
O1 O 0.13217 0.31252 0.33565 0.0
O2 O 0.11644 0.28014 0.30343 0.0
C3 C 0.10763 0.28262 0.42559 0.0
C4 C 0.14982 0.23187 0.36007 0.0
C5 C 0.05504 0.27396 0.34792 0.0
O6 O 0.11942 0.3005 0.40646 0.0
O7 O 0.09787 0.261 0.41104 0.0
O8 O 0.06969 0.25154 0.34557 0.0
O9 O 0.06881 0.29608 0.35528 0.0
C10 C 0.12878 0.30375 0.30596 0.0
O11 O 0.12466 0.22763 0.35034 0.0
O12 O 0.15517 0.25703 0.36868 0.0
In13 In 0.70832 0.11021 0.35809 0.0
O14 O 0.75402 0.1229 0.34609 0.0
O15 O 0.72468 0.15514 0.36026 0.0
C16 C 0.70771 0.0538 0.35014 0.0
C17 C 0.6763 0.12624 0.30564 0.0
C18 C 0.70304 0.11111 0.42532 0.0
O19 O 0.72981 0.06837 0.34513 0.0
O20 O 0.68605 0.06781 0.35873 0.0
O21 O 0.68292 0.11904 0.40649 0.0
O22 O 0.72503 0.10302 0.41009 0.0
C23 C 0.7497 0.14894 0.35177 0.0
O24 O 0.66911 0.13162 0.33554 0.0
O25 O 0.69913 0.11252 0.3026 0.0
In26 In 0.87445 0.70927 0.35794 0.0
O27 O 0.854 0.6696 0.33543 0.0
O28 O 0.8725 0.69997 0.3025 0.0
C29 C 0.87338 0.70431 0.42518 0.0
C30 C 0.83499 0.74999 0.3511 0.0
C31 C 0.93085 0.70913 0.35019 0.0
O32 O 0.86579 0.684 0.40645 0.0
O33 O 0.88122 0.72632 0.40986 0.0
O34 O 0.91607 0.73113 0.3451 0.0
O35 O 0.91705 0.68738 0.35881 0.0
C36 C 0.85933 0.67685 0.30554 0.0
O37 O 0.86098 0.75476 0.34574 0.0
O38 O 0.82922 0.72486 0.35955 0.0
In39 In 0.27515 0.87641 0.35837 0.0
O40 O 0.31462 0.85535 0.33583 0.0
O41 O 0.28334 0.8723 0.30287 0.0
C42 C 0.28145 0.87806 0.42558 0.0
C43 C 0.23421 0.83704 0.35369 0.0
C44 C 0.27533 0.93234 0.3467 0.0
O45 O 0.30084 0.86837 0.40683 0.0
O46 O 0.25969 0.88667 0.41031 0.0
O47 O 0.25287 0.91776 0.34502 0.0
O48 O 0.29747 0.91861 0.35416 0.0
C49 C 0.30671 0.85953 0.30591 0.0
O50 O 0.22961 0.86285 0.34696 0.0
O51 O 0.25925 0.8314 0.3626 0.0
In52 In 0.10892 0.70942 0.6376 0.0
O53 O 0.12203 0.75504 0.64941 0.0
O54 O 0.15391 0.7255 0.63474 0.0
C55 C 0.05255 0.70931 0.64568 0.0
C56 C 0.12457 0.67726 0.6901 0.0
C57 C 0.10943 0.70388 0.57041 0.0
O58 O 0.0673 0.73132 0.65055 0.0
O59 O 0.06638 0.6875 0.63719 0.0
O60 O 0.1177 0.68391 0.58927 0.0
O61 O 0.1012 0.72585 0.58559 0.0
C62 C 0.14796 0.75057 0.64327 0.0
O63 O 0.1297 0.66988 0.66021 0.0
O64 O 0.11139 0.70041 0.69313 0.0
In65 In 0.27997 0.10982 0.63499 0.0
O66 O 0.32089 0.12162 0.66314 0.0
O67 O 0.281 0.12999 0.68617 0.0
C68 C 0.29365 0.10654 0.56947 0.0
C69 C 0.23647 0.14639 0.63085 0.0
C70 C 0.27726 0.05467 0.65128 0.0
O71 O 0.30645 0.12339 0.58893 0.0
O72 O 0.27471 0.09179 0.58323 0.0
O73 O 0.25524 0.06969 0.6477 0.0
O74 O 0.30037 0.06777 0.64765 0.0
C75 C 0.30759 0.13119 0.68821 0.0
O76 O 0.23344 0.12162 0.64251 0.0
O77 O 0.26119 0.15225 0.62086 0.0
In78 In 0.8765 0.27524 0.63735 0.0
O79 O 0.86272 0.22983 0.64931 0.0
O80 O 0.83125 0.25986 0.63478 0.0
C81 C 0.93274 0.27494 0.6466 0.0
C82 C 0.86094 0.30759 0.68971 0.0
C83 C 0.87653 0.28058 0.57007 0.0
O84 O 0.91784 0.2529 0.65059 0.0
O85 O 0.91915 0.29694 0.63822 0.0
O86 O 0.86828 0.30066 0.58879 0.0
O87 O 0.8845 0.25861 0.58543 0.0
C88 C 0.83682 0.23473 0.64342 0.0
O89 O 0.85605 0.31505 0.65979 0.0
O90 O 0.87383 0.28428 0.69282 0.0
In91 In 0.70673 0.87557 0.6374 0.0
O92 O 0.66718 0.85477 0.65984 0.0
O93 O 0.69727 0.8736 0.69283 0.0
C94 C 0.70173 0.87443 0.57013 0.0
C95 C 0.74775 0.83641 0.64425 0.0
C96 C 0.70676 0.93202 0.64519 0.0
O97 O 0.6814 0.86698 0.58889 0.0
O98 O 0.72376 0.88219 0.58543 0.0
O99 O 0.72865 0.91713 0.65038 0.0
O100 O 0.68498 0.91832 0.63646 0.0
C101 C 0.6743 0.86019 0.68975 0.0
O102 O 0.75229 0.86245 0.64962 0.0
O103 O 0.72268 0.83042 0.63581 0.0
In104 In 0.8741 0.70958 0.63726 0.0
O105 O 0.86064 0.75507 0.64942 0.0
O106 O 0.82888 0.7252 0.63559 0.0
C107 C 0.93049 0.70949 0.64518 0.0
C108 C 0.85891 0.67719 0.68967 0.0
C109 C 0.87316 0.70449 0.57003 0.0
O110 O 0.91569 0.73149 0.65015 0.0
O111 O 0.91672 0.68771 0.63658 0.0
O112 O 0.86556 0.68421 0.5888 0.0
O113 O 0.88093 0.72655 0.58531 0.0
C114 C 0.83465 0.75032 0.64404 0.0
O115 O 0.85358 0.66994 0.65978 0.0
O116 O 0.87211 0.70029 0.6927 0.0
In117 In 0.27468 0.87697 0.63767 0.0
O118 O 0.22911 0.86342 0.64898 0.0
O119 O 0.25879 0.83196 0.63351 0.0
C120 C 0.27479 0.93293 0.64921 0.0
C121 C 0.30618 0.86017 0.69022 0.0
C122 C 0.28121 0.8784 0.57048 0.0
O123 O 0.25233 0.91835 0.65078 0.0
O124 O 0.29696 0.91919 0.64191 0.0
O125 O 0.30052 0.86876 0.58937 0.0
O126 O 0.25942 0.8871 0.58561 0.0
C127 C 0.23373 0.8376 0.64233 0.0
O128 O 0.31416 0.85604 0.66031 0.0
O129 O 0.28275 0.87285 0.69321 0.0
In130 In 0.11066 0.2742 0.63628 0.0
O131 O 0.12435 0.22817 0.64517 0.0
O132 O 0.15485 0.25757 0.62682 0.0
C133 C 0.05471 0.27454 0.64748 0.0
C134 C 0.12841 0.30434 0.68947 0.0
C135 C 0.10739 0.28295 0.56983 0.0
O136 O 0.06937 0.25212 0.64996 0.0
O137 O 0.06848 0.29663 0.64001 0.0
O138 O 0.11918 0.30088 0.58889 0.0
O139 O 0.09757 0.2614 0.58446 0.0
C140 C 0.1495 0.23241 0.63543 0.0
O141 O 0.13179 0.3131 0.65978 0.0
O142 O 0.11611 0.2807 0.69202 0.0
In143 In 0.7081 0.11057 0.63742 0.0
O144 O 0.66889 0.132 0.65993 0.0
O145 O 0.69887 0.11287 0.69289 0.0
C146 C 0.70294 0.11134 0.57018 0.0
C147 C 0.74944 0.14934 0.64372 0.0
C148 C 0.70746 0.05416 0.64539 0.0
O149 O 0.68277 0.1193 0.58893 0.0
O150 O 0.7249 0.1033 0.58548 0.0
O151 O 0.72956 0.06872 0.65043 0.0
O152 O 0.68581 0.06818 0.63677 0.0
C153 C 0.67605 0.1266 0.68983 0.0
O154 O 0.75377 0.12331 0.64948 0.0
O155 O 0.72443 0.1555 0.63516 0.0
In156 In 0.87681 0.2748 0.35791 0.0
O157 O 0.86303 0.22936 0.3461 0.0
O158 O 0.83156 0.25944 0.36048 0.0
C159 C 0.93307 0.27442 0.34872 0.0
C160 C 0.86131 0.30708 0.30546 0.0
C161 C 0.87673 0.28035 0.42517 0.0
O162 O 0.91815 0.25238 0.34482 0.0
O163 O 0.91949 0.29645 0.35699 0.0
O164 O 0.8685 0.30037 0.40635 0.0
O165 O 0.88475 0.25834 0.40994 0.0
C166 C 0.83713 0.23428 0.35194 0.0
O167 O 0.85646 0.31461 0.33538 0.0
O168 O 0.87412 0.28372 0.30241 0.0
In169 In 0.70702 0.87521 0.35798 0.0
O170 O 0.66753 0.85432 0.33552 0.0
O171 O 0.69756 0.87325 0.30254 0.0
C172 C 0.70191 0.87416 0.42524 0.0
C173 C 0.74807 0.83607 0.35113 0.0
C174 C 0.70704 0.93166 0.35017 0.0
O175 O 0.68161 0.86671 0.40645 0.0
O176 O 0.72399 0.88184 0.40997 0.0
O177 O 0.72895 0.91678 0.34505 0.0
O178 O 0.68525 0.91794 0.35883 0.0
C179 C 0.67463 0.85977 0.30562 0.0
O180 O 0.75259 0.86211 0.34575 0.0
O181 O 0.72301 0.83007 0.35961 0.0
In182 In 0.10926 0.709 0.35839 0.0
O183 O 0.12245 0.75458 0.3465 0.0
O184 O 0.15427 0.72502 0.36132 0.0
C185 C 0.05291 0.7089 0.35015 0.0
C186 C 0.12496 0.67676 0.30598 0.0
C187 C 0.10961 0.70366 0.42559 0.0
O188 O 0.06768 0.7309 0.34525 0.0
O189 O 0.06671 0.6871 0.35876 0.0
O190 O 0.11791 0.68361 0.40685 0.0
O191 O 0.10144 0.72558 0.4103 0.0
C192 C 0.14837 0.75009 0.35271 0.0
O193 O 0.13007 0.66943 0.33589 0.0
O194 O 0.11177 0.6999 0.3029 0.0
In195 In 0.28031 0.10929 0.36025 0.0
O196 O 0.32116 0.12121 0.33201 0.0
O197 O 0.28121 0.12909 0.30888 0.0
C198 C 0.29388 0.10621 0.4258 0.0
C199 C 0.23684 0.14589 0.36437 0.0
C200 C 0.27775 0.05408 0.34425 0.0
O201 O 0.30676 0.12297 0.40628 0.0
O202 O 0.27495 0.09143 0.41207 0.0
O203 O 0.25569 0.06909 0.34758 0.0
O204 O 0.30083 0.06722 0.34799 0.0
C205 C 0.30779 0.1305 0.30684 0.0
O206 O 0.23375 0.12107 0.35289 0.0
O207 O 0.2616 0.1518 0.37418 0.0
In208 In 0.60818 0.77621 0.85793 0.0
O209 O 0.6288 0.81585 0.83551 0.0
O210 O 0.60983 0.78584 0.80252 0.0
C211 C 0.60983 0.7809 0.92522 0.0
C212 C 0.64757 0.73549 0.85049 0.0
C213 C 0.55171 0.77629 0.85064 0.0
O214 O 0.61679 0.80144 0.9065 0.0
O215 O 0.60229 0.7588 0.90986 0.0
O216 O 0.56652 0.75437 0.84516 0.0
O217 O 0.56551 0.79799 0.85942 0.0
C218 C 0.62325 0.80882 0.80562 0.0
O219 O 0.62152 0.7307 0.84555 0.0
O220 O 0.65342 0.76063 0.85881 0.0
In221 In 0.20725 0.6091 0.85828 0.0
O222 O 0.16783 0.63028 0.83587 0.0
O223 O 0.19814 0.61174 0.80284 0.0
C224 C 0.20199 0.60926 0.92556 0.0
C225 C 0.2481 0.6484 0.85208 0.0
C226 C 0.20711 0.55281 0.84914 0.0
O227 O 0.18183 0.61728 0.90684 0.0
O228 O 0.224 0.60142 0.91021 0.0
O229 O 0.22919 0.56759 0.8449 0.0
O230 O 0.18526 0.56654 0.8577 0.0
C231 C 0.17515 0.62518 0.80594 0.0
O232 O 0.25278 0.62243 0.84634 0.0
O233 O 0.22302 0.65422 0.86066 0.0
In234 In 0.37637 0.20902 0.85963 0.0
O235 O 0.36341 0.16827 0.83191 0.0
O236 O 0.3598 0.20804 0.80678 0.0
C237 C 0.37919 0.19724 0.92558 0.0
C238 C 0.33828 0.25122 0.86241 0.0
C239 C 0.43183 0.21061 0.84512 0.0
O240 O 0.36394 0.18253 0.90611 0.0
O241 O 0.39252 0.21711 0.9116 0.0
O242 O 0.41699 0.23292 0.84693 0.0
O243 O 0.41843 0.18778 0.84969 0.0
C244 C 0.35659 0.18155 0.80556 0.0
O245 O 0.3634 0.25528 0.85235 0.0
O246 O 0.3328 0.22613 0.87142 0.0
In247 In 0.77818 0.37543 0.85796 0.0
O248 O 0.81751 0.35419 0.83546 0.0
O249 O 0.78766 0.3735 0.8025 0.0
C250 C 0.78335 0.3741 0.9252 0.0
C251 C 0.73698 0.33656 0.85132 0.0
C252 C 0.77789 0.4319 0.85045 0.0
O253 O 0.80377 0.367 0.90634 0.0
O254 O 0.76117 0.38161 0.91 0.0
O255 O 0.7561 0.41697 0.84511 0.0
O256 O 0.79973 0.41822 0.85914 0.0
C257 C 0.81047 0.35975 0.80557 0.0
O258 O 0.73258 0.36261 0.8458 0.0
O259 O 0.76203 0.3304 0.85975 0.0
In260 In 0.60991 0.2107 0.13753 0.0
O261 O 0.63042 0.1709 0.1599 0.0
O262 O 0.6131 0.2019 0.19299 0.0
C263 C 0.60922 0.20506 0.07024 0.0
C264 C 0.64971 0.25109 0.14339 0.0
C265 C 0.55385 0.21112 0.14809 0.0
O266 O 0.61779 0.18512 0.08897 0.0
O267 O 0.60123 0.22702 0.08557 0.0
O268 O 0.56869 0.23334 0.15068 0.0
O269 O 0.56738 0.18893 0.14029 0.0
C270 C 0.62583 0.1785 0.18985 0.0
O271 O 0.62385 0.25605 0.14944 0.0
O272 O 0.65518 0.22597 0.13461 0.0
In273 In 0.7761 0.61014 0.1373 0.0
O274 O 0.73046 0.62295 0.14967 0.0
O275 O 0.76002 0.65523 0.13652 0.0
C276 C 0.77687 0.55365 0.14453 0.0
C277 C 0.80853 0.62545 0.1896 0.0
C278 C 0.78073 0.6119 0.07005 0.0
O279 O 0.75481 0.5682 0.15011 0.0
O280 O 0.79837 0.56772 0.13566 0.0
O281 O 0.80119 0.61911 0.08876 0.0
O282 O 0.75874 0.60407 0.0854 0.0
C283 C 0.73495 0.64908 0.1448 0.0
O284 O 0.81549 0.63115 0.15971 0.0
O285 O 0.78571 0.61179 0.19269 0.0
In286 In 0.37355 0.77566 0.13767 0.0
O287 O 0.35245 0.81506 0.16019 0.0
O288 O 0.37157 0.78508 0.19316 0.0
C289 C 0.37235 0.78084 0.07043 0.0
C290 C 0.33451 0.73461 0.14431 0.0
C291 C 0.43 0.7758 0.14521 0.0
O292 O 0.36493 0.80115 0.08927 0.0
O293 O 0.38009 0.75872 0.08564 0.0
O294 O 0.41527 0.75383 0.15045 0.0
O295 O 0.41612 0.79755 0.13661 0.0
C296 C 0.35794 0.80797 0.19009 0.0
O297 O 0.36053 0.73005 0.1498 0.0
O298 O 0.3285 0.7597 0.13588 0.0
In299 In 0.2085 0.37424 0.13652 0.0
O300 O 0.17015 0.35197 0.15983 0.0
O301 O 0.20158 0.36925 0.19223 0.0
C302 C 0.20019 0.37704 0.06993 0.0
C303 C 0.2508 0.33598 0.13664 0.0
C304 C 0.20772 0.43027 0.14747 0.0
O305 O 0.18185 0.36591 0.08901 0.0
O306 O 0.2219 0.38641 0.08461 0.0
O307 O 0.23013 0.41569 0.15041 0.0
O308 O 0.18578 0.41639 0.13967 0.0
C309 C 0.17853 0.35594 0.18958 0.0
O310 O 0.25467 0.36138 0.14572 0.0
O311 O 0.22575 0.33011 0.12811 0.0
In312 In 0.37662 0.2085 0.13555 0.0
O313 O 0.36377 0.16765 0.16316 0.0
O314 O 0.35981 0.20739 0.18829 0.0
C315 C 0.37941 0.19689 0.06955 0.0
C316 C 0.33857 0.25073 0.13282 0.0
C317 C 0.43206 0.21011 0.15018 0.0
O318 O 0.36413 0.18216 0.08898 0.0
O319 O 0.39282 0.21667 0.08361 0.0
O320 O 0.41719 0.23241 0.14843 0.0
O321 O 0.4187 0.18728 0.14549 0.0
C322 C 0.35675 0.18088 0.18947 0.0
O323 O 0.36367 0.25475 0.14297 0.0
O324 O 0.33309 0.22567 0.12372 0.0
In325 In 0.77851 0.37504 0.13732 0.0
O326 O 0.81783 0.35368 0.15972 0.0
O327 O 0.78813 0.37314 0.19274 0.0
C328 C 0.78352 0.37383 0.07007 0.0
C329 C 0.7373 0.3362 0.14405 0.0
C330 C 0.7783 0.43151 0.14487 0.0
O331 O 0.80399 0.36672 0.08883 0.0
O332 O 0.76136 0.38129 0.08537 0.0
O333 O 0.7565 0.4166 0.15029 0.0
O334 O 0.80011 0.41781 0.1361 0.0
C335 C 0.81087 0.35929 0.18962 0.0
O336 O 0.73294 0.36225 0.14964 0.0
O337 O 0.76232 0.33003 0.13551 0.0
In338 In 0.60857 0.77578 0.13739 0.0
O339 O 0.6292 0.8154 0.15984 0.0
O340 O 0.61025 0.78537 0.19281 0.0
C341 C 0.61008 0.78065 0.07011 0.0
C342 C 0.64797 0.73506 0.14473 0.0
C343 C 0.5521 0.77578 0.14481 0.0
O344 O 0.61706 0.80115 0.08889 0.0
O345 O 0.60262 0.75849 0.08541 0.0
O346 O 0.56694 0.75387 0.15015 0.0
O347 O 0.56588 0.79753 0.13609 0.0
C348 C 0.62366 0.80834 0.18973 0.0
O349 O 0.62192 0.73027 0.1497 0.0
O350 O 0.65381 0.7602 0.13641 0.0
In351 In 0.20757 0.60863 0.13773 0.0
O352 O 0.16816 0.62974 0.16023 0.0
O353 O 0.19854 0.61126 0.19321 0.0
C354 C 0.20215 0.60897 0.07046 0.0
C355 C 0.24846 0.6479 0.14391 0.0
C356 C 0.20746 0.55232 0.14675 0.0
O357 O 0.18204 0.61696 0.08928 0.0
O358 O 0.22418 0.60106 0.08571 0.0
O359 O 0.22954 0.5671 0.15096 0.0
O360 O 0.18559 0.56607 0.13828 0.0
C361 C 0.17553 0.62466 0.19014 0.0
O362 O 0.25314 0.62191 0.14956 0.0
O363 O 0.22336 0.65375 0.13542 0.0
In364 In 0.37317 0.77618 0.85827 0.0
O365 O 0.36012 0.7306 0.84603 0.0
O366 O 0.32812 0.76022 0.86014 0.0
C367 C 0.4296 0.77635 0.85058 0.0
C368 C 0.35748 0.80859 0.80599 0.0
C369 C 0.37214 0.78112 0.92555 0.0
O370 O 0.41486 0.7544 0.84527 0.0
O371 O 0.41574 0.79807 0.85932 0.0
O372 O 0.36469 0.80151 0.90683 0.0
O373 O 0.37983 0.75905 0.91019 0.0
C374 C 0.33411 0.73515 0.85161 0.0
O375 O 0.35198 0.8156 0.83591 0.0
O376 O 0.37116 0.78574 0.80283 0.0
In377 In 0.20818 0.3747 0.85893 0.0
O378 O 0.16979 0.35251 0.83561 0.0
O379 O 0.20123 0.3698 0.80321 0.0
C380 C 0.19999 0.37733 0.92555 0.0
C381 C 0.25048 0.33644 0.85865 0.0
C382 C 0.20737 0.43075 0.84814 0.0
O383 O 0.18162 0.36624 0.90647 0.0
O384 O 0.22166 0.38676 0.91084 0.0
O385 O 0.22978 0.41618 0.84507 0.0
O386 O 0.18545 0.41686 0.85597 0.0
C387 C 0.17815 0.35651 0.80586 0.0
O388 O 0.25435 0.36186 0.84967 0.0
O389 O 0.22542 0.33055 0.86715 0.0
In390 In 0.60968 0.21098 0.85802 0.0
O391 O 0.63017 0.17119 0.83559 0.0
O392 O 0.61286 0.20222 0.80255 0.0
C393 C 0.60908 0.2052 0.92531 0.0
C394 C 0.64945 0.2514 0.85216 0.0
C395 C 0.55361 0.21146 0.84748 0.0
O396 O 0.61762 0.1853 0.9065 0.0
O397 O 0.60106 0.22719 0.91005 0.0
O398 O 0.56849 0.23367 0.84495 0.0
O399 O 0.56712 0.18926 0.85524 0.0
C400 C 0.62558 0.17882 0.80566 0.0
O401 O 0.62358 0.25634 0.84618 0.0
O402 O 0.65495 0.22627 0.86089 0.0
In403 In 0.77567 0.61053 0.85796 0.0
O404 O 0.81502 0.63157 0.83551 0.0
O405 O 0.78525 0.61218 0.80256 0.0
C406 C 0.78047 0.61219 0.9252 0.0
C407 C 0.73452 0.64947 0.85053 0.0
C408 C 0.77642 0.55404 0.8507 0.0
O409 O 0.80088 0.6194 0.90643 0.0
O410 O 0.75842 0.60443 0.90991 0.0
O411 O 0.75434 0.56859 0.84522 0.0
O412 O 0.79795 0.56811 0.85947 0.0
C413 C 0.80806 0.62586 0.80563 0.0
O414 O 0.73002 0.62335 0.84563 0.0
O415 O 0.75958 0.65561 0.85881 0.0
C416 C 0.21937 0.19471 0.37623 0.0
C417 C 0.21388 0.16718 0.36455 0.0
H418 H 0.20347 0.23664 0.38381 0.0
C419 C 0.18683 0.16075 0.35191 0.0
H420 H 0.24 0.20032 0.38611 0.0
C421 C 0.16577 0.18169 0.35057 0.0
C422 C 0.17151 0.20934 0.36177 0.0
H423 H 0.18205 0.13969 0.3427 0.0
H424 H 0.14514 0.17631 0.3405 0.0
C425 C 0.19844 0.21556 0.37481 0.0
C426 C 0.80038 0.16324 0.34269 0.0
C427 C 0.77216 0.17063 0.34994 0.0
H428 H 0.84328 0.17771 0.33755 0.0
C429 C 0.76548 0.19911 0.35659 0.0
H430 H 0.80609 0.14142 0.33746 0.0
C431 C 0.78661 0.21972 0.35666 0.0
C432 C 0.81491 0.21235 0.35007 0.0
H433 H 0.74393 0.20549 0.36219 0.0
H434 H 0.78076 0.24143 0.36229 0.0
C435 C 0.82162 0.18396 0.34275 0.0
C436 C 0.78448 0.76489 0.35518 0.0
C437 C 0.81288 0.77209 0.34903 0.0
H438 H 0.74184 0.77945 0.36051 0.0
C439 C 0.8198 0.80048 0.34212 0.0
H440 H 0.77846 0.74318 0.36049 0.0
C441 C 0.79868 0.82139 0.34213 0.0
C442 C 0.77038 0.81417 0.34905 0.0
H443 H 0.84154 0.80659 0.33727 0.0
H444 H 0.80457 0.8432 0.33728 0.0
C445 C 0.76348 0.78569 0.35519 0.0
C446 C 0.19846 0.76568 0.359 0.0
C447 C 0.1702 0.77243 0.35133 0.0
H448 H 0.24072 0.78079 0.36568 0.0
C449 C 0.16312 0.80062 0.34345 0.0
H450 H 0.20459 0.74414 0.36513 0.0
C451 C 0.18395 0.82175 0.34377 0.0
C452 C 0.21213 0.81496 0.35199 0.0
H453 H 0.14147 0.8064 0.33745 0.0
H454 H 0.17796 0.84338 0.33797 0.0
C455 C 0.21918 0.7867 0.35934 0.0
C456 C 0.16264 0.80114 0.65243 0.0
C457 C 0.16976 0.77294 0.64465 0.0
H458 H 0.17743 0.84393 0.65785 0.0
C459 C 0.19805 0.7662 0.63708 0.0
H460 H 0.14098 0.80691 0.65835 0.0
C461 C 0.21875 0.78724 0.63676 0.0
C462 C 0.21166 0.81551 0.64401 0.0
H463 H 0.20421 0.74466 0.63102 0.0
H464 H 0.24032 0.78133 0.6305 0.0
C465 C 0.18346 0.82228 0.65213 0.0
C466 C 0.21898 0.1952 0.61898 0.0
C467 C 0.21352 0.16768 0.63073 0.0
H468 H 0.20307 0.23712 0.61141 0.0
C469 C 0.18651 0.16129 0.64354 0.0
H470 H 0.23957 0.20078 0.60897 0.0
C471 C 0.16547 0.18224 0.64495 0.0
C472 C 0.17118 0.20987 0.63368 0.0
H473 H 0.18175 0.14024 0.65281 0.0
H474 H 0.14488 0.17688 0.65514 0.0
C475 C 0.19807 0.21606 0.62048 0.0
C476 C 0.80009 0.16368 0.65285 0.0
C477 C 0.77188 0.17105 0.64553 0.0
H478 H 0.84298 0.17819 0.658 0.0
C479 C 0.7652 0.19951 0.63878 0.0
H480 H 0.80582 0.14188 0.65816 0.0
C481 C 0.78631 0.22013 0.63869 0.0
C482 C 0.81461 0.21279 0.64533 0.0
H483 H 0.74364 0.20587 0.63313 0.0
H484 H 0.78045 0.24183 0.63297 0.0
C485 C 0.82132 0.18442 0.65276 0.0
C486 C 0.81948 0.8008 0.6531 0.0
C487 C 0.81255 0.77242 0.64615 0.0
H488 H 0.80426 0.84352 0.65803 0.0
C489 C 0.78414 0.76523 0.64004 0.0
H490 H 0.84123 0.80691 0.65793 0.0
C491 C 0.76314 0.78603 0.6401 0.0
C492 C 0.77005 0.81451 0.64628 0.0
H493 H 0.77812 0.74353 0.63471 0.0
H494 H 0.7415 0.7798 0.63481 0.0
C495 C 0.79836 0.82171 0.65316 0.0
C496 C 0.69814 0.72068 0.85365 0.0
C497 C 0.66966 0.71339 0.8482 0.0
H498 H 0.74084 0.70621 0.85846 0.0
C499 C 0.66267 0.68491 0.84191 0.0
H500 H 0.70421 0.74245 0.85844 0.0
C501 C 0.6838 0.664 0.84192 0.0
C502 C 0.71218 0.67132 0.84823 0.0
H503 H 0.64087 0.67872 0.83761 0.0
H504 H 0.67786 0.64212 0.83763 0.0
C505 C 0.71915 0.69989 0.85366 0.0
C506 C 0.26305 0.69885 0.8564 0.0
C507 C 0.2702 0.67044 0.85005 0.0
H508 H 0.27761 0.74146 0.86168 0.0
C509 C 0.29853 0.66347 0.84282 0.0
H510 H 0.24139 0.70491 0.86194 0.0
C511 C 0.31942 0.68455 0.84267 0.0
C512 C 0.31225 0.71287 0.84973 0.0
H513 H 0.30461 0.64172 0.8378 0.0
H514 H 0.34119 0.67862 0.83755 0.0
C515 C 0.28382 0.71981 0.85624 0.0
C516 C 0.32245 0.30112 0.85091 0.0
C517 C 0.31636 0.27358 0.86227 0.0
H518 H 0.30624 0.34281 0.84078 0.0
C519 C 0.28868 0.2671 0.87262 0.0
H520 H 0.34362 0.30667 0.84273 0.0
C521 C 0.26741 0.2876 0.87138 0.0
C522 C 0.27334 0.31508 0.8598 0.0
H523 H 0.28332 0.24605 0.88147 0.0
H524 H 0.24626 0.28184 0.87944 0.0
C525 C 0.30108 0.32175 0.84972 0.0
C526 C 0.70002 0.26584 0.85656 0.0
C527 C 0.67171 0.27326 0.85011 0.0
H528 H 0.74276 0.28001 0.86179 0.0
C529 C 0.66503 0.30163 0.84268 0.0
H530 H 0.70585 0.24413 0.86225 0.0
C531 C 0.68631 0.32231 0.84242 0.0
C532 C 0.71453 0.31488 0.84956 0.0
H533 H 0.64336 0.30791 0.83758 0.0
H534 H 0.6806 0.34412 0.83714 0.0
C535 C 0.72119 0.28641 0.85627 0.0
C536 C 0.70029 0.2655 0.13887 0.0
C537 C 0.67199 0.27294 0.14541 0.0
H538 H 0.74302 0.27965 0.13352 0.0
C539 C 0.66535 0.3013 0.1529 0.0
H540 H 0.70609 0.2438 0.13314 0.0
C541 C 0.68664 0.32197 0.15312 0.0
C542 C 0.71484 0.31452 0.14588 0.0
H543 H 0.6437 0.30759 0.15808 0.0
H544 H 0.68096 0.34378 0.15844 0.0
C545 C 0.72147 0.28606 0.13911 0.0
C546 C 0.71956 0.69949 0.14161 0.0
C547 C 0.71261 0.67092 0.14708 0.0
H548 H 0.70461 0.74204 0.13677 0.0
C549 C 0.68423 0.6636 0.15337 0.0
H550 H 0.74126 0.70582 0.13682 0.0
C551 C 0.66309 0.6845 0.15335 0.0
C552 C 0.67007 0.71297 0.14703 0.0
H553 H 0.6783 0.64172 0.15769 0.0
H554 H 0.64129 0.6783 0.15765 0.0
C555 C 0.69854 0.72027 0.14159 0.0
C556 C 0.29892 0.66292 0.15302 0.0
C557 C 0.27058 0.66992 0.14592 0.0
H558 H 0.3416 0.67805 0.15817 0.0
C559 C 0.26342 0.69834 0.13967 0.0
H560 H 0.305 0.64116 0.15796 0.0
C561 C 0.2842 0.7193 0.13981 0.0
C562 C 0.31264 0.71233 0.14619 0.0
H563 H 0.24175 0.70443 0.13422 0.0
H564 H 0.27798 0.74096 0.13445 0.0
C565 C 0.31982 0.68399 0.15315 0.0
C566 C 0.30139 0.32125 0.14564 0.0
C567 C 0.27366 0.31462 0.13545 0.0
H568 H 0.3439 0.30613 0.15271 0.0
C569 C 0.26775 0.28718 0.12376 0.0
H570 H 0.30654 0.34228 0.15468 0.0
C571 C 0.28901 0.26666 0.1225 0.0
C572 C 0.31667 0.2731 0.13297 0.0
H573 H 0.24661 0.28145 0.11561 0.0
H574 H 0.28365 0.24565 0.11357 0.0
C575 C 0.32275 0.30061 0.14444 0.0
C576 C 0.97913 0.24899 0.34003 0.0
C577 C 0.9642 0.27437 0.3455 0.0
H578 H 0.01984 0.22894 0.33636 0.0
C579 C 0.97935 0.29976 0.34946 0.0
H580 H 0.96796 0.22912 0.33684 0.0
C581 C 0.0089 0.29967 0.3491 0.0
C582 C 0.0239 0.27418 0.34484 0.0
H583 H 0.9684 0.31968 0.35354 0.0
H584 H 0.01997 0.31951 0.35299 0.0
C585 C 0.00879 0.24889 0.33973 0.0
C586 C 0.68219 0.00769 0.35419 0.0
C587 C 0.70735 0.0226 0.34774 0.0
H588 H 0.66239 0.96723 0.35984 0.0
C589 C 0.73222 0.00738 0.34043 0.0
H590 H 0.66267 0.01885 0.35981 0.0
C591 C 0.73206 0.97772 0.34044 0.0
C592 C 0.70703 0.96286 0.34778 0.0
H593 H 0.75192 0.01836 0.33533 0.0
H594 H 0.75163 0.96647 0.33536 0.0
C595 C 0.68203 0.97812 0.3542 0.0
C596 C 0.00672 0.73385 0.34056 0.0
C597 C 0.02174 0.70881 0.34769 0.0
H598 H 0.96596 0.7536 0.33567 0.0
C599 C 0.00665 0.68371 0.35394 0.0
H600 H 0.01784 0.75349 0.33562 0.0
C601 C 0.9771 0.68378 0.35397 0.0
C602 C 0.96203 0.70894 0.34776 0.0
H603 H 0.01765 0.66407 0.35941 0.0
H604 H 0.96608 0.66418 0.35946 0.0
C605 C 0.97707 0.73391 0.34059 0.0
C606 C 0.30163 0.97785 0.34133 0.0
C607 C 0.27567 0.96334 0.34207 0.0
H608 H 0.32258 0.01798 0.34085 0.0
C609 C 0.25028 0.97887 0.34025 0.0
H610 H 0.32155 0.96641 0.34241 0.0
C611 C 0.25086 0.00852 0.33945 0.0
C612 C 0.27685 0.02302 0.34026 0.0
H613 H 0.22997 0.96818 0.34068 0.0
H614 H 0.23098 0.02006 0.33937 0.0
C615 C 0.30222 0.00739 0.34033 0.0
C616 C 0.00631 0.68409 0.6418 0.0
C617 C 0.02137 0.70921 0.64803 0.0
H618 H 0.96576 0.66453 0.63618 0.0
C619 C 0.00632 0.73426 0.655 0.0
H620 H 0.01734 0.66444 0.63643 0.0
C621 C 0.97667 0.73431 0.65485 0.0
C622 C 0.96166 0.70931 0.64772 0.0
H623 H 0.01742 0.75392 0.65992 0.0
H624 H 0.96554 0.754 0.65967 0.0
C625 C 0.97676 0.68415 0.64165 0.0
C626 C 0.30107 0.97844 0.65471 0.0
C627 C 0.27511 0.96394 0.65376 0.0
H628 H 0.32204 0.01856 0.65526 0.0
C629 C 0.24971 0.97949 0.65529 0.0
H630 H 0.32099 0.96698 0.65386 0.0
C631 C 0.25031 0.00914 0.656 0.0
C632 C 0.27631 0.02362 0.6554 0.0
H633 H 0.2294 0.9688 0.6547 0.0
H634 H 0.23044 0.02069 0.65585 0.0
C635 C 0.30167 0.00798 0.65562 0.0
C636 C 0.00856 0.30022 0.64611 0.0
C637 C 0.02357 0.27476 0.65054 0.0
H638 H 0.96806 0.3202 0.64153 0.0
C639 C 0.00846 0.24949 0.65579 0.0
H640 H 0.01963 0.32005 0.64211 0.0
C641 C 0.97881 0.24957 0.65548 0.0
C642 C 0.96387 0.27493 0.64984 0.0
H643 H 0.01952 0.22955 0.65929 0.0
H644 H 0.96764 0.22971 0.65878 0.0
C645 C 0.97901 0.3003 0.64574 0.0
C646 C 0.73195 0.00773 0.65509 0.0
C647 C 0.70709 0.02296 0.64775 0.0
H648 H 0.75134 0.96681 0.66014 0.0
C649 C 0.68193 0.00806 0.64123 0.0
H650 H 0.75163 0.0187 0.66024 0.0
C651 C 0.68177 0.97849 0.64117 0.0
C652 C 0.70675 0.96322 0.64762 0.0
H653 H 0.66243 0.01923 0.63558 0.0
H654 H 0.66213 0.96761 0.63547 0.0
C655 C 0.73178 0.97807 0.65503 0.0
C656 C 0.50551 0.75154 0.84079 0.0
C657 C 0.52051 0.77644 0.84837 0.0
H658 H 0.46476 0.73197 0.83543 0.0
C659 C 0.50541 0.80148 0.85509 0.0
H660 H 0.51664 0.73194 0.83548 0.0
C661 C 0.47585 0.80151 0.85505 0.0
C662 C 0.46079 0.77648 0.8483 0.0
H663 H 0.5164 0.82103 0.86092 0.0
H664 H 0.46482 0.82106 0.86087 0.0
C665 C 0.47585 0.75156 0.84076 0.0
C666 C 0.18173 0.47696 0.85049 0.0
C667 C 0.20706 0.46192 0.84523 0.0
H668 H 0.16193 0.51752 0.85572 0.0
C669 C 0.23221 0.47702 0.83921 0.0
H670 H 0.16201 0.46589 0.85511 0.0
C671 C 0.23217 0.50667 0.83955 0.0
C672 C 0.20698 0.52166 0.84597 0.0
H673 H 0.25204 0.46595 0.83505 0.0
H674 H 0.25195 0.51782 0.83561 0.0
C675 C 0.1817 0.50653 0.85087 0.0
C676 C 0.47776 0.2368 0.83968 0.0
C677 C 0.46292 0.21103 0.84154 0.0
H678 H 0.51838 0.25717 0.83994 0.0
C679 C 0.4782 0.18547 0.84279 0.0
H680 H 0.46649 0.25681 0.83868 0.0
C681 C 0.50773 0.18568 0.84374 0.0
C682 C 0.52259 0.21145 0.84327 0.0
H683 H 0.46735 0.16526 0.84415 0.0
H684 H 0.51889 0.16564 0.84563 0.0
C685 C 0.50741 0.237 0.84044 0.0
C686 C 0.80251 0.47845 0.85513 0.0
C687 C 0.77769 0.46311 0.84826 0.0
H688 H 0.82153 0.51924 0.86115 0.0
C689 C 0.75263 0.4779 0.84065 0.0
H690 H 0.82216 0.46763 0.86101 0.0
C691 C 0.75226 0.50755 0.84073 0.0
C692 C 0.77695 0.52284 0.84843 0.0
H693 H 0.73319 0.46658 0.83522 0.0
H694 H 0.73255 0.51847 0.83536 0.0
C695 C 0.80214 0.50802 0.85522 0.0
C696 C 0.47846 0.18502 0.15259 0.0
C697 C 0.46315 0.21056 0.15385 0.0
H698 H 0.51917 0.16525 0.1498 0.0
C699 C 0.47795 0.23635 0.15581 0.0
H700 H 0.46763 0.16481 0.15116 0.0
C701 C 0.5076 0.23659 0.15511 0.0
C702 C 0.52281 0.21106 0.15227 0.0
H703 H 0.46665 0.25635 0.15682 0.0
H704 H 0.51854 0.25677 0.15569 0.0
C705 C 0.50799 0.18527 0.15172 0.0
C706 C 0.75273 0.50718 0.15465 0.0
C707 C 0.7774 0.52246 0.14682 0.0
H708 H 0.73367 0.46621 0.1603 0.0
C709 C 0.80256 0.50762 0.13992 0.0
H710 H 0.73305 0.5181 0.16011 0.0
C711 C 0.80292 0.47805 0.14004 0.0
C712 C 0.77813 0.46272 0.14705 0.0
H713 H 0.82193 0.51883 0.13388 0.0
H714 H 0.82255 0.46721 0.13407 0.0
C715 C 0.75309 0.47752 0.15477 0.0
C716 C 0.47623 0.80098 0.14074 0.0
C717 C 0.46119 0.77593 0.14739 0.0
H718 H 0.51676 0.82054 0.13486 0.0
C719 C 0.47628 0.75098 0.15475 0.0
H720 H 0.46518 0.82056 0.13506 0.0
C721 C 0.50593 0.75097 0.15464 0.0
C722 C 0.52091 0.77591 0.14715 0.0
H723 H 0.4652 0.73137 0.16 0.0
H724 H 0.51708 0.73135 0.1598 0.0
C725 C 0.50578 0.80097 0.14062 0.0
C726 C 0.23258 0.47652 0.15642 0.0
C727 C 0.20742 0.46143 0.15046 0.0
H728 H 0.25233 0.51731 0.16004 0.0
C729 C 0.18208 0.47647 0.14533 0.0
H730 H 0.25242 0.46544 0.16048 0.0
C731 C 0.18204 0.50605 0.14501 0.0
C732 C 0.20733 0.52116 0.14985 0.0
H733 H 0.16234 0.46541 0.14074 0.0
H734 H 0.16226 0.51704 0.14025 0.0
C735 C 0.23253 0.50617 0.15615 0.0
C736 C 0.0891 0.26621 0.48032 0.0
C737 C 0.10591 0.28547 0.46238 0.0
H738 H 0.07624 0.25066 0.52801 0.0
C739 C 0.12181 0.30576 0.48007 0.0
H740 H 0.07635 0.25051 0.46748 0.0
C741 C 0.12175 0.30585 0.51526 0.0
C742 C 0.10578 0.28565 0.53302 0.0
H743 H 0.13494 0.32088 0.46681 0.0
H744 H 0.13483 0.32103 0.52849 0.0
C745 C 0.08903 0.2663 0.51512 0.0
C746 C 0.72532 0.1012 0.5152 0.0
C747 C 0.70177 0.11126 0.53314 0.0
H748 H 0.74402 0.09326 0.46759 0.0
C749 C 0.67799 0.12114 0.51531 0.0
H750 H 0.74397 0.09337 0.52806 0.0
C751 C 0.67802 0.12108 0.48009 0.0
C752 C 0.70182 0.11114 0.46236 0.0
H753 H 0.65953 0.12901 0.52851 0.0
H754 H 0.65958 0.12891 0.46682 0.0
C755 C 0.72534 0.10114 0.48038 0.0
C756 C 0.86386 0.67926 0.48003 0.0
C757 C 0.87326 0.70323 0.46222 0.0
H758 H 0.8564 0.6607 0.52848 0.0
C759 C 0.88267 0.72702 0.48018 0.0
H760 H 0.85649 0.66062 0.46681 0.0
C761 C 0.88261 0.72706 0.515 0.0
C762 C 0.87314 0.70332 0.533 0.0
H763 H 0.8901 0.74583 0.46733 0.0
H764 H 0.89 0.74591 0.52781 0.0
C765 C 0.86381 0.67931 0.51523 0.0
C766 C 0.3056 0.86678 0.51573 0.0
C767 C 0.28295 0.87916 0.53345 0.0
H768 H 0.32306 0.85664 0.46736 0.0
C769 C 0.26083 0.89193 0.51536 0.0
H770 H 0.32296 0.85679 0.52903 0.0
C771 C 0.26088 0.89184 0.48052 0.0
C772 C 0.28307 0.87899 0.46262 0.0
H773 H 0.24312 0.90181 0.52813 0.0
H774 H 0.24322 0.90166 0.4676 0.0
C775 C 0.30566 0.86669 0.48051 0.0
C776 C 0.09869 0.72572 0.48053 0.0
C777 C 0.10938 0.70242 0.46262 0.0
H778 H 0.09031 0.74427 0.52812 0.0
C779 C 0.11984 0.6789 0.48047 0.0
H780 H 0.09038 0.74417 0.46765 0.0
C781 C 0.11979 0.67896 0.51568 0.0
C782 C 0.1093 0.70254 0.53339 0.0
H783 H 0.1282 0.66064 0.46729 0.0
H784 H 0.12813 0.66074 0.52897 0.0
C785 C 0.09865 0.72578 0.51534 0.0
C786 C 0.28677 0.08212 0.48029 0.0
C787 C 0.29855 0.10481 0.46234 0.0
H788 H 0.27646 0.06481 0.52805 0.0
C789 C 0.312 0.12682 0.48001 0.0
H790 H 0.27658 0.06466 0.4674 0.0
C791 C 0.31194 0.1269 0.51521 0.0
C792 C 0.29842 0.10498 0.53296 0.0
H793 H 0.32127 0.14457 0.46674 0.0
H794 H 0.32115 0.14471 0.5284 0.0
C795 C 0.2867 0.0822 0.5151 0.0
C796 C 0.86659 0.30534 0.47994 0.0
C797 C 0.87697 0.28171 0.46222 0.0
H798 H 0.85823 0.32368 0.52833 0.0
C799 C 0.88754 0.25843 0.48028 0.0
H800 H 0.85832 0.32358 0.46666 0.0
C801 C 0.88749 0.25849 0.51511 0.0
C802 C 0.87687 0.28182 0.53302 0.0
H803 H 0.89579 0.23991 0.4675 0.0
H804 H 0.8957 0.24 0.528 0.0
C805 C 0.86654 0.30539 0.51516 0.0
C806 C 0.67663 0.86503 0.51527 0.0
C807 C 0.70064 0.87427 0.53308 0.0
H808 H 0.65802 0.85768 0.46681 0.0
C809 C 0.72449 0.88349 0.51511 0.0
H810 H 0.65794 0.8578 0.52849 0.0
C811 C 0.72454 0.88342 0.48029 0.0
C812 C 0.70074 0.87412 0.46229 0.0
H813 H 0.74335 0.89079 0.52795 0.0
H814 H 0.74343 0.89067 0.46748 0.0
C815 C 0.67667 0.86495 0.48006 0.0
C816 C 0.60205 0.75756 0.01504 0.0
C817 C 0.61035 0.78173 0.03306 0.0
H818 H 0.59542 0.73849 0.96736 0.0
C819 C 0.61863 0.80613 0.01531 0.0
H820 H 0.59554 0.73839 0.02784 0.0
C821 C 0.61857 0.8062 0.9801 0.0
C822 C 0.61021 0.78186 0.96227 0.0
H823 H 0.62513 0.82507 0.02857 0.0
H824 H 0.62502 0.82518 0.9669 0.0
C825 C 0.60198 0.75762 0.98022 0.0
C826 C 0.17704 0.61891 0.98047 0.0
C827 C 0.20079 0.60899 0.96261 0.0
H828 H 0.15868 0.62675 0.02897 0.0
C829 C 0.2243 0.59882 0.98054 0.0
H830 H 0.15861 0.62688 0.96729 0.0
C831 C 0.22434 0.59874 0.01536 0.0
C832 C 0.20086 0.60885 0.03342 0.0
H833 H 0.24293 0.59095 0.96765 0.0
H834 H 0.243 0.59082 0.02815 0.0
C835 C 0.17708 0.61884 0.01569 0.0
C836 C 0.40197 0.20743 0.01495 0.0
C837 C 0.38086 0.193 0.03287 0.0
H838 H 0.41808 0.21965 0.96728 0.0
C839 C 0.36048 0.17723 0.01514 0.0
H840 H 0.41819 0.21949 0.02784 0.0
C841 C 0.36043 0.17732 0.97994 0.0
C842 C 0.38074 0.19319 0.96223 0.0
H843 H 0.34397 0.1659 0.02839 0.0
H844 H 0.34387 0.16605 0.96669 0.0
C845 C 0.40191 0.20753 0.98015 0.0
C846 C 0.76044 0.38226 0.0151 0.0
C847 C 0.78458 0.37368 0.03302 0.0
H848 H 0.74129 0.38908 0.96751 0.0
C849 C 0.80887 0.36517 0.01518 0.0
H850 H 0.74136 0.38896 0.02797 0.0
C851 C 0.80883 0.36524 0.97997 0.0
C852 C 0.7845 0.37382 0.96224 0.0
H853 H 0.82778 0.35846 0.02837 0.0
H854 H 0.82772 0.35857 0.96668 0.0
C855 C 0.76041 0.38233 0.98029 0.0
C856 C 0.59777 0.22688 0.01524 0.0
C857 C 0.60871 0.20371 0.03318 0.0
H858 H 0.58928 0.24533 0.96759 0.0
C859 C 0.61931 0.18025 0.01533 0.0
H860 H 0.58934 0.24527 0.02811 0.0
C861 C 0.61928 0.18028 0.98012 0.0
C862 C 0.60864 0.20378 0.96236 0.0
H863 H 0.62787 0.16208 0.02853 0.0
H864 H 0.62781 0.16214 0.96686 0.0
C865 C 0.59773 0.22691 0.9804 0.0
C866 C 0.75752 0.60389 0.01507 0.0
C867 C 0.78167 0.61234 0.03301 0.0
H868 H 0.73835 0.59727 0.96745 0.0
C869 C 0.80592 0.62093 0.01519 0.0
H870 H 0.73847 0.59714 0.02793 0.0
C871 C 0.80585 0.62101 0.97998 0.0
C872 C 0.78154 0.61249 0.96224 0.0
H873 H 0.82484 0.62756 0.02839 0.0
H874 H 0.82472 0.62769 0.96672 0.0
C875 C 0.75746 0.60397 0.98025 0.0
C876 C 0.36299 0.80625 0.98047 0.0
C877 C 0.37208 0.78217 0.96259 0.0
H878 H 0.35588 0.82488 0.02898 0.0
C879 C 0.38126 0.75824 0.9805 0.0
H880 H 0.3558 0.825 0.9673 0.0
C881 C 0.38131 0.75817 0.01532 0.0
C882 C 0.37218 0.78203 0.03338 0.0
H883 H 0.38844 0.73933 0.9676 0.0
H884 H 0.38853 0.73921 0.02808 0.0
C885 C 0.36304 0.80618 0.01568 0.0
C886 C 0.21776 0.39438 0.98035 0.0
C887 C 0.19755 0.37871 0.96241 0.0
H888 H 0.23412 0.40625 0.028 0.0
C889 C 0.1766 0.36373 0.98015 0.0
H890 H 0.23403 0.40638 0.96751 0.0
C891 C 0.17665 0.36366 0.01535 0.0
C892 C 0.19766 0.37856 0.03308 0.0
H893 H 0.16074 0.3515 0.9669 0.0
H894 H 0.16083 0.35137 0.02859 0.0
C895 C 0.21781 0.3943 0.01515 0.0
C896 C 0.14298 0.3234 0.21568 0.0
C897 C 0.16369 0.34453 0.21919 0.0
H898 H 0.11581 0.29379 0.24056 0.0
C899 C 0.17146 0.35348 0.25149 0.0
H900 H 0.13662 0.31607 0.19111 0.0
C901 C 0.15934 0.34098 0.2798 0.0
C902 C 0.13954 0.31901 0.2763 0.0
H903 H 0.18731 0.36984 0.25492 0.0
H904 H 0.16618 0.34787 0.30437 0.0
C905 C 0.13116 0.31061 0.24399 0.0
C906 C 0.65616 0.14074 0.21558 0.0
C907 C 0.63619 0.16259 0.21927 0.0
H908 H 0.68455 0.11206 0.24021 0.0
C909 C 0.62763 0.17062 0.25165 0.0
H910 H 0.66313 0.13411 0.19095 0.0
C911 C 0.63969 0.15786 0.27986 0.0
C912 C 0.66074 0.13705 0.27618 0.0
H913 H 0.61213 0.18732 0.25525 0.0
H914 H 0.63333 0.1651 0.30448 0.0
C915 C 0.66844 0.12818 0.2438 0.0
C916 C 0.8455 0.65652 0.21546 0.0
C917 C 0.82429 0.63591 0.21906 0.0
H918 H 0.87327 0.68564 0.24018 0.0
C919 C 0.8166 0.62696 0.2514 0.0
H920 H 0.85186 0.6638 0.19086 0.0
C921 C 0.82897 0.63931 0.27965 0.0
C922 C 0.84907 0.661 0.27606 0.0
H923 H 0.80039 0.61098 0.25493 0.0
H924 H 0.82196 0.63266 0.30425 0.0
C925 C 0.85768 0.66905 0.24371 0.0
C926 C 0.35639 0.81619 0.2519 0.0
C927 C 0.34736 0.82372 0.21953 0.0
H928 H 0.35087 0.82193 0.30476 0.0
C929 C 0.32659 0.84482 0.21585 0.0
H930 H 0.37247 0.80005 0.25549 0.0
C931 C 0.31408 0.85714 0.24405 0.0
C932 C 0.32231 0.8488 0.27645 0.0
H933 H 0.31922 0.85104 0.19124 0.0
H934 H 0.29743 0.87269 0.24046 0.0
C935 C 0.34409 0.82874 0.28012 0.0
C936 C 0.13837 0.65665 0.78016 0.0
C937 C 0.15955 0.63595 0.7765 0.0
H938 H 0.11068 0.68598 0.75552 0.0
C939 C 0.16735 0.62717 0.74412 0.0
H940 H 0.13195 0.66382 0.80479 0.0
C941 C 0.15505 0.63968 0.71591 0.0
C942 C 0.13494 0.66141 0.71957 0.0
H943 H 0.18355 0.61114 0.74055 0.0
H944 H 0.1621 0.63311 0.69129 0.0
C945 C 0.12628 0.66937 0.75194 0.0
C946 C 0.31057 0.16953 0.73016 0.0
C947 C 0.32141 0.14405 0.71739 0.0
H948 H 0.31379 0.20154 0.7679 0.0
C949 C 0.34395 0.1305 0.73391 0.0
H950 H 0.2931 0.18022 0.71782 0.0
C951 C 0.3551 0.14216 0.76341 0.0
C952 C 0.34441 0.16792 0.77581 0.0
H953 H 0.35234 0.11063 0.72454 0.0
H954 H 0.37232 0.13141 0.77612 0.0
C955 C 0.32232 0.18163 0.75876 0.0
C956 C 0.8307 0.3454 0.71551 0.0
C957 C 0.85065 0.32353 0.71916 0.0
H958 H 0.80233 0.37408 0.74016 0.0
C959 C 0.8592 0.31547 0.75154 0.0
H960 H 0.82374 0.35206 0.69089 0.0
C961 C 0.84714 0.3282 0.77976 0.0
C962 C 0.82609 0.34903 0.77611 0.0
H963 H 0.87468 0.29874 0.75512 0.0
H964 H 0.85347 0.32092 0.80437 0.0
C965 C 0.81842 0.35795 0.74373 0.0
C966 C 0.6664 0.85845 0.75158 0.0
C967 C 0.65852 0.84974 0.7192 0.0
H968 H 0.66111 0.85258 0.80441 0.0
C969 C 0.63707 0.82938 0.71557 0.0
H970 H 0.68279 0.87423 0.75514 0.0
C971 C 0.62481 0.81687 0.7438 0.0
C972 C 0.63359 0.82468 0.77617 0.0
H973 H 0.63056 0.82228 0.69095 0.0
H974 H 0.60904 0.80047 0.74023 0.0
C975 C 0.65395 0.84612 0.7798 0.0
C976 C 0.85723 0.66941 0.7515 0.0
C977 C 0.84861 0.66137 0.71915 0.0
H978 H 0.85142 0.66417 0.80435 0.0
C979 C 0.82848 0.63971 0.71557 0.0
H980 H 0.87284 0.68597 0.75502 0.0
C981 C 0.81609 0.62738 0.74382 0.0
C982 C 0.82381 0.63631 0.77616 0.0
H983 H 0.82145 0.63307 0.69097 0.0
H984 H 0.79986 0.61142 0.7403 0.0
C985 C 0.84504 0.6569 0.77975 0.0
C986 C 0.32596 0.84534 0.78029 0.0
C987 C 0.34686 0.82437 0.77659 0.0
H988 H 0.29667 0.87309 0.75571 0.0
C989 C 0.356 0.81699 0.74421 0.0
H990 H 0.3185 0.85144 0.80491 0.0
C991 C 0.34367 0.82953 0.71601 0.0
C992 C 0.32177 0.84945 0.7197 0.0
H993 H 0.37219 0.80095 0.74061 0.0
H994 H 0.35054 0.82284 0.69137 0.0
C995 C 0.31342 0.85765 0.7521 0.0
C996 C 0.13076 0.31122 0.75144 0.0
C997 C 0.13915 0.31961 0.71913 0.0
H998 H 0.13622 0.31667 0.80432 0.0
C999 C 0.15895 0.34158 0.71564 0.0
H1000 H 0.11541 0.2944 0.75486 0.0
C1001 C 0.17107 0.35409 0.74395 0.0
C1002 C 0.16329 0.34513 0.77625 0.0
H1003 H 0.16579 0.34847 0.69106 0.0
H1004 H 0.18692 0.37044 0.74052 0.0
C1005 C 0.14258 0.324 0.77975 0.0
C1006 C 0.66815 0.12849 0.75167 0.0
C1007 C 0.66049 0.1374 0.71929 0.0
H1008 H 0.66281 0.13437 0.80452 0.0
C1009 C 0.63947 0.15825 0.71563 0.0
H1010 H 0.68423 0.11234 0.75525 0.0
C1011 C 0.62741 0.171 0.74384 0.0
C1012 C 0.63593 0.16292 0.77622 0.0
H1013 H 0.63314 0.16552 0.69101 0.0
H1014 H 0.61193 0.18773 0.74025 0.0
C1015 C 0.65587 0.14104 0.77989 0.0
C1016 C 0.84741 0.32757 0.2154 0.0
C1017 C 0.82651 0.34854 0.21905 0.0
H1018 H 0.87483 0.29798 0.24003 0.0
C1019 C 0.81898 0.35757 0.25143 0.0
H1020 H 0.85364 0.3202 0.19078 0.0
C1021 C 0.83124 0.34501 0.27965 0.0
C1022 C 0.85104 0.323 0.27599 0.0
H1023 H 0.80299 0.37381 0.25501 0.0
H1024 H 0.82438 0.35177 0.30427 0.0
C1025 C 0.85947 0.31482 0.24361 0.0
C1026 C 0.62524 0.81636 0.25156 0.0
C1027 C 0.634 0.8242 0.21919 0.0
H1028 H 0.63098 0.82176 0.3044 0.0
C1029 C 0.65432 0.84568 0.21556 0.0
H1030 H 0.6095 0.79992 0.25512 0.0
C1031 C 0.66674 0.85802 0.24379 0.0
C1032 C 0.65888 0.84929 0.27616 0.0
H1033 H 0.66146 0.85217 0.19095 0.0
H1034 H 0.68311 0.87383 0.24023 0.0
C1035 C 0.63748 0.82888 0.27979 0.0
C1036 C 0.15552 0.63924 0.2802 0.0
C1037 C 0.13533 0.66089 0.27653 0.0
H1038 H 0.18409 0.61075 0.25557 0.0
C1039 C 0.12659 0.66876 0.24416 0.0
H1040 H 0.16263 0.63273 0.30482 0.0
C1041 C 0.13869 0.65604 0.21594 0.0
C1042 C 0.15995 0.63542 0.2196 0.0
H1043 H 0.11093 0.68531 0.24058 0.0
H1044 H 0.1322 0.66315 0.19132 0.0
C1045 C 0.16783 0.62672 0.25199 0.0
C1046 C 0.34446 0.1301 0.26147 0.0
C1047 C 0.32151 0.14332 0.27757 0.0
H1048 H 0.37319 0.13127 0.2196 0.0
C1049 C 0.31024 0.16845 0.26434 0.0
H1050 H 0.35321 0.11051 0.2712 0.0
C1051 C 0.32198 0.18055 0.23574 0.0
C1052 C 0.34452 0.16717 0.21913 0.0
H1053 H 0.29245 0.17889 0.27635 0.0
H1054 H 0.31314 0.2002 0.22626 0.0
C1055 C 0.35562 0.14174 0.23196 0.0
loop_
_geom_bond_atom_site_label_1
_geom_bond_atom_site_label_2
_geom_bond_distance
_geom_bond_site_symmetry_2
_ccdc_geom_bond_type
In0 O1 2.294 . S
In0 O2 2.326 . S
In0 O6 2.266 . S
In0 O7 2.326 . S
In0 O8 2.266 . S
In0 O9 2.326 . S
In0 O11 2.294 . S
In0 O12 2.326 . S
O1 In0 2.294 . S
O1 C10 1.240 . S
O2 In0 2.326 . S
O2 C10 1.252 . S
C3 O6 1.252 . S
C3 O7 1.260 . S
C4 O11 1.240 . S
C4 O12 1.252 . S
C5 O8 1.252 . S
C5 O9 1.260 . S
O6 In0 2.266 . S
O6 C3 1.252 . S
O7 In0 2.326 . S
O7 C3 1.260 . S
O8 In0 2.266 . S
O8 C5 1.252 . S
O9 In0 2.326 . S
O9 C5 1.260 . S
C10 O1 1.240 . S
C10 O2 1.252 . S
O11 In0 2.294 . S
O11 C4 1.240 . S
O12 In0 2.326 . S
O12 C4 1.252 . S
In13 O14 2.294 . S
In13 O15 2.326 . S
In13 O19 2.266 . S
In13 O20 2.326 . S
In13 O21 2.266 . S
In13 O22 2.326 . S
In13 O24 2.294 . S
In13 O25 2.326 . S
O14 In13 2.294 . S
O14 C23 1.240 . S
O15 In13 2.326 . S
O15 C23 1.252 . S
C16 O19 1.252 . S
C16 O20 1.260 . S
C17 O24 1.240 . S
C17 O25 1.252 . S
C18 O21 1.252 . S
C18 O22 1.260 . S
O19 In13 2.266 . S
O19 C16 1.252 . S
O20 In13 2.326 . S
O20 C16 1.260 . S
O21 In13 2.266 . S
O21 C18 1.252 . S
O22 In13 2.326 . S
O22 C18 1.260 . S
C23 O14 1.240 . S
C23 O15 1.252 . S
O24 In13 2.294 . S
O24 C17 1.240 . S
O25 In13 2.326 . S
O25 C17 1.252 . S
In26 O27 2.294 . S
In26 O28 2.326 . S
In26 O32 2.266 . S
In26 O33 2.326 . S
In26 O34 2.266 . S
In26 O35 2.326 . S
In26 O37 2.294 . S
In26 O38 2.326 . S
O27 In26 2.294 . S
O27 C36 1.240 . S
O28 In26 2.326 . S
O28 C36 1.252 . S
C29 O32 1.252 . S
C29 O33 1.260 . S
C30 O37 1.240 . S
C30 O38 1.252 . S
C31 O34 1.252 . S
C31 O35 1.260 . S
O32 In26 2.266 . S
O32 C29 1.252 . S
O33 In26 2.326 . S
O33 C29 1.260 . S
O34 In26 2.266 . S
O34 C31 1.252 . S
O35 In26 2.326 . S
O35 C31 1.260 . S
C36 O27 1.240 . S
C36 O28 1.252 . S
O37 In26 2.294 . S
O37 C30 1.240 . S
O38 In26 2.326 . S
O38 C30 1.252 . S
In39 O40 2.294 . S
In39 O41 2.326 . S
In39 O45 2.266 . S
In39 O46 2.326 . S
In39 O47 2.266 . S
In39 O48 2.326 . S
In39 O50 2.294 . S
In39 O51 2.326 . S
O40 In39 2.294 . S
O40 C49 1.240 . S
O41 In39 2.326 . S
O41 C49 1.252 . S
C42 O45 1.252 . S
C42 O46 1.260 . S
C43 O50 1.240 . S
C43 O51 1.252 . S
C44 O47 1.252 . S
C44 O48 1.260 . S
O45 In39 2.266 . S
O45 C42 1.252 . S
O46 In39 2.326 . S
O46 C42 1.260 . S
O47 In39 2.266 . S
O47 C44 1.252 . S
O48 In39 2.326 . S
O48 C44 1.260 . S
C49 O40 1.240 . S
C49 O41 1.252 . S
O50 In39 2.294 . S
O50 C43 1.240 . S
O51 In39 2.326 . S
O51 C43 1.252 . S
In52 O53 2.294 . S
In52 O54 2.326 . S
In52 O58 2.266 . S
In52 O59 2.326 . S
In52 O60 2.266 . S
In52 O61 2.326 . S
In52 O63 2.294 . S
In52 O64 2.326 . S
O53 In52 2.294 . S
O53 C62 1.240 . S
O54 In52 2.326 . S
O54 C62 1.252 . S
C55 O58 1.252 . S
C55 O59 1.260 . S
C56 O63 1.240 . S
C56 O64 1.252 . S
C57 O60 1.252 . S
C57 O61 1.260 . S
O58 In52 2.266 . S
O58 C55 1.252 . S
O59 In52 2.326 . S
O59 C55 1.260 . S
O60 In52 2.266 . S
O60 C57 1.252 . S
O61 In52 2.326 . S
O61 C57 1.260 . S
C62 O53 1.240 . S
C62 O54 1.252 . S
O63 In52 2.294 . S
O63 C56 1.240 . S
O64 In52 2.326 . S
O64 C56 1.252 . S
In65 O66 2.294 . S
In65 O67 2.326 . S
In65 O71 2.266 . S
In65 O72 2.326 . S
In65 O73 2.266 . S
In65 O74 2.326 . S
In65 O76 2.294 . S
In65 O77 2.326 . S
O66 In65 2.294 . S
O66 C75 1.240 . S
O67 In65 2.326 . S
O67 C75 1.252 . S
C68 O71 1.252 . S
C68 O72 1.260 . S
C69 O76 1.240 . S
C69 O77 1.252 . S
C70 O73 1.252 . S
C70 O74 1.260 . S
O71 In65 2.266 . S
O71 C68 1.252 . S
O72 In65 2.326 . S
O72 C68 1.260 . S
O73 In65 2.266 . S
O73 C70 1.252 . S
O74 In65 2.326 . S
O74 C70 1.260 . S
C75 O66 1.240 . S
C75 O67 1.252 . S
O76 In65 2.294 . S
O76 C69 1.240 . S
O77 In65 2.326 . S
O77 C69 1.252 . S
In78 O79 2.294 . S
In78 O80 2.326 . S
In78 O84 2.266 . S
In78 O85 2.326 . S
In78 O86 2.266 . S
In78 O87 2.326 . S
In78 O89 2.294 . S
In78 O90 2.326 . S
O79 In78 2.294 . S
O79 C88 1.240 . S
O80 In78 2.326 . S
O80 C88 1.252 . S
C81 O84 1.252 . S
C81 O85 1.260 . S
C82 O89 1.240 . S
C82 O90 1.252 . S
C83 O86 1.252 . S
C83 O87 1.260 . S
O84 In78 2.266 . S
O84 C81 1.252 . S
O85 In78 2.326 . S
O85 C81 1.260 . S
O86 In78 2.266 . S
O86 C83 1.252 . S
O87 In78 2.326 . S
O87 C83 1.260 . S
C88 O79 1.240 . S
C88 O80 1.252 . S
O89 In78 2.294 . S
O89 C82 1.240 . S
O90 In78 2.326 . S
O90 C82 1.252 . S
In91 O92 2.294 . S
In91 O93 2.326 . S
In91 O97 2.266 . S
In91 O98 2.326 . S
In91 O99 2.266 . S
In91 O100 2.326 . S
In91 O102 2.294 . S
In91 O103 2.326 . S
O92 In91 2.294 . S
O92 C101 1.240 . S
O93 In91 2.326 . S
O93 C101 1.252 . S
C94 O97 1.252 . S
C94 O98 1.260 . S
C95 O102 1.240 . S
C95 O103 1.252 . S
C96 O99 1.252 . S
C96 O100 1.260 . S
O97 In91 2.266 . S
O97 C94 1.252 . S
O98 In91 2.326 . S
O98 C94 1.260 . S
O99 In91 2.266 . S
O99 C96 1.252 . S
O100 In91 2.326 . S
O100 C96 1.260 . S
C101 O92 1.240 . S
C101 O93 1.252 . S
O102 In91 2.294 . S
O102 C95 1.240 . S
O103 In91 2.326 . S
O103 C95 1.252 . S
In104 O105 2.294 . S
In104 O106 2.326 . S
In104 O110 2.266 . S
In104 O111 2.326 . S
In104 O112 2.266 . S
In104 O113 2.326 . S
In104 O115 2.294 . S
In104 O116 2.326 . S
O105 In104 2.294 . S
O105 C114 1.240 . S
O106 In104 2.326 . S
O106 C114 1.252 . S
C107 O110 1.252 . S
C107 O111 1.260 . S
C108 O115 1.240 . S
C108 O116 1.252 . S
C109 O112 1.252 . S
C109 O113 1.260 . S
O110 In104 2.266 . S
O110 C107 1.252 . S
O111 In104 2.326 . S
O111 C107 1.260 . S
O112 In104 2.266 . S
O112 C109 1.252 . S
O113 In104 2.326 . S
O113 C109 1.260 . S
C114 O105 1.240 . S
C114 O106 1.252 . S
O115 In104 2.294 . S
O115 C108 1.240 . S
O116 In104 2.326 . S
O116 C108 1.252 . S
In117 O118 2.294 . S
In117 O119 2.326 . S
In117 O123 2.266 . S
In117 O124 2.326 . S
In117 O125 2.266 . S
In117 O126 2.326 . S
In117 O128 2.294 . S
In117 O129 2.326 . S
O118 In117 2.294 . S
O118 C127 1.240 . S
O119 In117 2.326 . S
O119 C127 1.252 . S
C120 O123 1.252 . S
C120 O124 1.260 . S
C121 O128 1.240 . S
C121 O129 1.252 . S
C122 O125 1.252 . S
C122 O126 1.260 . S
O123 In117 2.266 . S
O123 C120 1.252 . S
O124 In117 2.326 . S
O124 C120 1.260 . S
O125 In117 2.266 . S
O125 C122 1.252 . S
O126 In117 2.326 . S
O126 C122 1.260 . S
C127 O118 1.240 . S
C127 O119 1.252 . S
O128 In117 2.294 . S
O128 C121 1.240 . S
O129 In117 2.326 . S
O129 C121 1.252 . S
In130 O131 2.294 . S
In130 O132 2.326 . S
In130 O136 2.266 . S
In130 O137 2.326 . S
In130 O138 2.266 . S
In130 O139 2.326 . S
In130 O141 2.294 . S
In130 O142 2.326 . S
O131 In130 2.294 . S
O131 C140 1.240 . S
O132 In130 2.326 . S
O132 C140 1.252 . S
C133 O136 1.252 . S
C133 O137 1.260 . S
C134 O141 1.240 . S
C134 O142 1.252 . S
C135 O138 1.252 . S
C135 O139 1.260 . S
O136 In130 2.266 . S
O136 C133 1.252 . S
O137 In130 2.326 . S
O137 C133 1.260 . S
O138 In130 2.266 . S
O138 C135 1.252 . S
O139 In130 2.326 . S
O139 C135 1.260 . S
C140 O131 1.240 . S
C140 O132 1.252 . S
O141 In130 2.294 . S
O141 C134 1.240 . S
O142 In130 2.326 . S
O142 C134 1.252 . S
In143 O144 2.294 . S
In143 O145 2.326 . S
In143 O149 2.266 . S
In143 O150 2.326 . S
In143 O151 2.266 . S
In143 O152 2.326 . S
In143 O154 2.294 . S
In143 O155 2.326 . S
O144 In143 2.294 . S
O144 C153 1.240 . S
O145 In143 2.326 . S
O145 C153 1.252 . S
C146 O149 1.252 . S
C146 O150 1.260 . S
C147 O154 1.240 . S
C147 O155 1.252 . S
C148 O151 1.252 . S
C148 O152 1.260 . S
O149 In143 2.266 . S
O149 C146 1.252 . S
O150 In143 2.326 . S
O150 C146 1.260 . S
O151 In143 2.266 . S
O151 C148 1.252 . S
O152 In143 2.326 . S
O152 C148 1.260 . S
C153 O144 1.240 . S
C153 O145 1.252 . S
O154 In143 2.294 . S
O154 C147 1.240 . S
O155 In143 2.326 . S
O155 C147 1.252 . S
In156 O157 2.294 . S
In156 O158 2.326 . S
In156 O162 2.266 . S
In156 O163 2.326 . S
In156 O164 2.266 . S
In156 O165 2.326 . S
In156 O167 2.294 . S
In156 O168 2.326 . S
O157 In156 2.294 . S
O157 C166 1.240 . S
O158 In156 2.326 . S
O158 C166 1.252 . S
C159 O162 1.252 . S
C159 O163 1.260 . S
C160 O167 1.240 . S
C160 O168 1.252 . S
C161 O164 1.252 . S
C161 O165 1.260 . S
O162 In156 2.266 . S
O162 C159 1.252 . S
O163 In156 2.326 . S
O163 C159 1.260 . S
O164 In156 2.266 . S
O164 C161 1.252 . S
O165 In156 2.326 . S
O165 C161 1.260 . S
C166 O157 1.240 . S
C166 O158 1.252 . S
O167 In156 2.294 . S
O167 C160 1.240 . S
O168 In156 2.326 . S
O168 C160 1.252 . S
In169 O170 2.294 . S
In169 O171 2.326 . S
In169 O175 2.266 . S
In169 O176 2.326 . S
In169 O177 2.266 . S
In169 O178 2.326 . S
In169 O180 2.294 . S
In169 O181 2.326 . S
O170 In169 2.294 . S
O170 C179 1.240 . S
O171 In169 2.326 . S
O171 C179 1.252 . S
C172 O175 1.252 . S
C172 O176 1.260 . S
C173 O180 1.240 . S
C173 O181 1.252 . S
C174 O177 1.252 . S
C174 O178 1.260 . S
O175 In169 2.266 . S
O175 C172 1.252 . S
O176 In169 2.326 . S
O176 C172 1.260 . S
O177 In169 2.266 . S
O177 C174 1.252 . S
O178 In169 2.326 . S
O178 C174 1.260 . S
C179 O170 1.240 . S
C179 O171 1.252 . S
O180 In169 2.294 . S
O180 C173 1.240 . S
O181 In169 2.326 . S
O181 C173 1.252 . S
In182 O183 2.294 . S
In182 O184 2.326 . S
In182 O188 2.266 . S
In182 O189 2.326 . S
In182 O190 2.266 . S
In182 O191 2.326 . S
In182 O193 2.294 . S
In182 O194 2.326 . S
O183 In182 2.294 . S
O183 C192 1.240 . S
O184 In182 2.326 . S
O184 C192 1.252 . S
C185 O188 1.252 . S
C185 O189 1.260 . S
C186 O193 1.240 . S
C186 O194 1.252 . S
C187 O190 1.252 . S
C187 O191 1.260 . S
O188 In182 2.266 . S
O188 C185 1.252 . S
O189 In182 2.326 . S
O189 C185 1.260 . S
O190 In182 2.266 . S
O190 C187 1.252 . S
O191 In182 2.326 . S
O191 C187 1.260 . S
C192 O183 1.240 . S
C192 O184 1.252 . S
O193 In182 2.294 . S
O193 C186 1.240 . S
O194 In182 2.326 . S
O194 C186 1.252 . S
In195 O196 2.294 . S
In195 O197 2.326 . S
In195 O201 2.266 . S
In195 O202 2.326 . S
In195 O203 2.266 . S
In195 O204 2.326 . S
In195 O206 2.294 . S
In195 O207 2.326 . S
O196 In195 2.294 . S
O196 C205 1.240 . S
O197 In195 2.326 . S
O197 C205 1.252 . S
C198 O201 1.252 . S
C198 O202 1.260 . S
C199 O206 1.240 . S
C199 O207 1.252 . S
C200 O203 1.252 . S
C200 O204 1.260 . S
O201 In195 2.266 . S
O201 C198 1.252 . S
O202 In195 2.326 . S
O202 C198 1.260 . S
O203 In195 2.266 . S
O203 C200 1.252 . S
O204 In195 2.326 . S
O204 C200 1.260 . S
C205 O196 1.240 . S
C205 O197 1.252 . S
O206 In195 2.294 . S
O206 C199 1.240 . S
O207 In195 2.326 . S
O207 C199 1.252 . S
In208 O209 2.294 . S
In208 O210 2.326 . S
In208 O214 2.266 . S
In208 O215 2.326 . S
In208 O216 2.266 . S
In208 O217 2.326 . S
In208 O219 2.294 . S
In208 O220 2.326 . S
O209 In208 2.294 . S
O209 C218 1.240 . S
O210 In208 2.326 . S
O210 C218 1.252 . S
C211 O214 1.252 . S
C211 O215 1.260 . S
C212 O219 1.240 . S
C212 O220 1.252 . S
C213 O216 1.252 . S
C213 O217 1.260 . S
O214 In208 2.266 . S
O214 C211 1.252 . S
O215 In208 2.326 . S
O215 C211 1.260 . S
O216 In208 2.266 . S
O216 C213 1.252 . S
O217 In208 2.326 . S
O217 C213 1.260 . S
C218 O209 1.240 . S
C218 O210 1.252 . S
O219 In208 2.294 . S
O219 C212 1.240 . S
O220 In208 2.326 . S
O220 C212 1.252 . S
In221 O222 2.294 . S
In221 O223 2.326 . S
In221 O227 2.266 . S
In221 O228 2.326 . S
In221 O229 2.266 . S
In221 O230 2.326 . S
In221 O232 2.294 . S
In221 O233 2.326 . S
O222 In221 2.294 . S
O222 C231 1.240 . S
O223 In221 2.326 . S
O223 C231 1.252 . S
C224 O227 1.252 . S
C224 O228 1.260 . S
C225 O232 1.240 . S
C225 O233 1.252 . S
C226 O229 1.252 . S
C226 O230 1.260 . S
O227 In221 2.266 . S
O227 C224 1.252 . S
O228 In221 2.326 . S
O228 C224 1.260 . S
O229 In221 2.266 . S
O229 C226 1.252 . S
O230 In221 2.326 . S
O230 C226 1.260 . S
C231 O222 1.240 . S
C231 O223 1.252 . S
O232 In221 2.294 . S
O232 C225 1.240 . S
O233 In221 2.326 . S
O233 C225 1.252 . S
In234 O235 2.294 . S
In234 O236 2.326 . S
In234 O240 2.266 . S
In234 O241 2.326 . S
In234 O242 2.266 . S
In234 O243 2.326 . S
In234 O245 2.294 . S
In234 O246 2.326 . S
O235 In234 2.294 . S
O235 C244 1.240 . S
O236 In234 2.326 . S
O236 C244 1.252 . S
C237 O240 1.252 . S
C237 O241 1.260 . S
C238 O245 1.240 . S
C238 O246 1.252 . S
C239 O242 1.252 . S
C239 O243 1.260 . S
O240 In234 2.266 . S
O240 C237 1.252 . S
O241 In234 2.326 . S
O241 C237 1.260 . S
O242 In234 2.266 . S
O242 C239 1.252 . S
O243 In234 2.326 . S
O243 C239 1.260 . S
C244 O235 1.240 . S
C244 O236 1.252 . S
O245 In234 2.294 . S
O245 C238 1.240 . S
O246 In234 2.326 . S
O246 C238 1.252 . S
In247 O248 2.294 . S
In247 O249 2.326 . S
In247 O253 2.266 . S
In247 O254 2.326 . S
In247 O255 2.266 . S
In247 O256 2.326 . S
In247 O258 2.294 . S
In247 O259 2.326 . S
O248 In247 2.294 . S
O248 C257 1.240 . S
O249 In247 2.326 . S
O249 C257 1.252 . S
C250 O253 1.252 . S
C250 O254 1.260 . S
C251 O258 1.240 . S
C251 O259 1.252 . S
C252 O255 1.252 . S
C252 O256 1.260 . S
O253 In247 2.266 . S
O253 C250 1.252 . S
O254 In247 2.326 . S
O254 C250 1.260 . S
O255 In247 2.266 . S
O255 C252 1.252 . S
O256 In247 2.326 . S
O256 C252 1.260 . S
C257 O248 1.240 . S
C257 O249 1.252 . S
O258 In247 2.294 . S
O258 C251 1.240 . S
O259 In247 2.326 . S
O259 C251 1.252 . S
In260 O261 2.294 . S
In260 O262 2.326 . S
In260 O266 2.266 . S
In260 O267 2.326 . S
In260 O268 2.266 . S
In260 O269 2.326 . S
In260 O271 2.294 . S
In260 O272 2.326 . S
O261 In260 2.294 . S
O261 C270 1.240 . S
O262 In260 2.326 . S
O262 C270 1.252 . S
C263 O266 1.252 . S
C263 O267 1.260 . S
C264 O271 1.240 . S
C264 O272 1.252 . S
C265 O268 1.252 . S
C265 O269 1.260 . S
O266 In260 2.266 . S
O266 C263 1.252 . S
O267 In260 2.326 . S
O267 C263 1.260 . S
O268 In260 2.266 . S
O268 C265 1.252 . S
O269 In260 2.326 . S
O269 C265 1.260 . S
C270 O261 1.240 . S
C270 O262 1.252 . S
O271 In260 2.294 . S
O271 C264 1.240 . S
O272 In260 2.326 . S
O272 C264 1.252 . S
In273 O274 2.294 . S
In273 O275 2.326 . S
In273 O279 2.266 . S
In273 O280 2.326 . S
In273 O281 2.266 . S
In273 O282 2.326 . S
In273 O284 2.294 . S
In273 O285 2.326 . S
O274 In273 2.294 . S
O274 C283 1.240 . S
O275 In273 2.326 . S
O275 C283 1.252 . S
C276 O279 1.252 . S
C276 O280 1.260 . S
C277 O284 1.240 . S
C277 O285 1.252 . S
C278 O281 1.252 . S
C278 O282 1.260 . S
O279 In273 2.266 . S
O279 C276 1.252 . S
O280 In273 2.326 . S
O280 C276 1.260 . S
O281 In273 2.266 . S
O281 C278 1.252 . S
O282 In273 2.326 . S
O282 C278 1.260 . S
C283 O274 1.240 . S
C283 O275 1.252 . S
O284 In273 2.294 . S
O284 C277 1.240 . S
O285 In273 2.326 . S
O285 C277 1.252 . S
In286 O287 2.294 . S
In286 O288 2.326 . S
In286 O292 2.266 . S
In286 O293 2.326 . S
In286 O294 2.266 . S
In286 O295 2.326 . S
In286 O297 2.294 . S
In286 O298 2.326 . S
O287 In286 2.294 . S
O287 C296 1.240 . S
O288 In286 2.326 . S
O288 C296 1.252 . S
C289 O292 1.252 . S
C289 O293 1.260 . S
C290 O297 1.240 . S
C290 O298 1.252 . S
C291 O294 1.252 . S
C291 O295 1.260 . S
O292 In286 2.266 . S
O292 C289 1.252 . S
O293 In286 2.326 . S
O293 C289 1.260 . S
O294 In286 2.266 . S
O294 C291 1.252 . S
O295 In286 2.326 . S
O295 C291 1.260 . S
C296 O287 1.240 . S
C296 O288 1.252 . S
O297 In286 2.294 . S
O297 C290 1.240 . S
O298 In286 2.326 . S
O298 C290 1.252 . S
In299 O300 2.294 . S
In299 O301 2.326 . S
In299 O305 2.266 . S
In299 O306 2.326 . S
In299 O307 2.266 . S
In299 O308 2.326 . S
In299 O310 2.294 . S
In299 O311 2.326 . S
O300 In299 2.294 . S
O300 C309 1.240 . S
O301 In299 2.326 . S
O301 C309 1.252 . S
C302 O305 1.252 . S
C302 O306 1.260 . S
C303 O310 1.240 . S
C303 O311 1.252 . S
C304 O307 1.252 . S
C304 O308 1.260 . S
O305 In299 2.266 . S
O305 C302 1.252 . S
O306 In299 2.326 . S
O306 C302 1.260 . S
O307 In299 2.266 . S
O307 C304 1.252 . S
O308 In299 2.326 . S
O308 C304 1.260 . S
C309 O300 1.240 . S
C309 O301 1.252 . S
O310 In299 2.294 . S
O310 C303 1.240 . S
O311 In299 2.326 . S
O311 C303 1.252 . S
In312 O313 2.294 . S
In312 O314 2.326 . S
In312 O318 2.266 . S
In312 O319 2.326 . S
In312 O320 2.266 . S
In312 O321 2.326 . S
In312 O323 2.294 . S
In312 O324 2.326 . S
O313 In312 2.294 . S
O313 C322 1.240 . S
O314 In312 2.326 . S
O314 C322 1.252 . S
C315 O318 1.252 . S
C315 O319 1.260 . S
C316 O323 1.240 . S
C316 O324 1.252 . S
C317 O320 1.252 . S
C317 O321 1.260 . S
O318 In312 2.266 . S
O318 C315 1.252 . S
O319 In312 2.326 . S
O319 C315 1.260 . S
O320 In312 2.266 . S
O320 C317 1.252 . S
O321 In312 2.326 . S
O321 C317 1.260 . S
C322 O313 1.240 . S
C322 O314 1.252 . S
O323 In312 2.294 . S
O323 C316 1.240 . S
O324 In312 2.326 . S
O324 C316 1.252 . S
In325 O326 2.294 . S
In325 O327 2.326 . S
In325 O331 2.266 . S
In325 O332 2.326 . S
In325 O333 2.266 . S
In325 O334 2.326 . S
In325 O336 2.294 . S
In325 O337 2.326 . S
O326 In325 2.294 . S
O326 C335 1.240 . S
O327 In325 2.326 . S
O327 C335 1.252 . S
C328 O331 1.252 . S
C328 O332 1.260 . S
C329 O336 1.240 . S
C329 O337 1.252 . S
C330 O333 1.252 . S
C330 O334 1.260 . S
O331 In325 2.266 . S
O331 C328 1.252 . S
O332 In325 2.326 . S
O332 C328 1.260 . S
O333 In325 2.266 . S
O333 C330 1.252 . S
O334 In325 2.326 . S
O334 C330 1.260 . S
C335 O326 1.240 . S
C335 O327 1.252 . S
O336 In325 2.294 . S
O336 C329 1.240 . S
O337 In325 2.326 . S
O337 C329 1.252 . S
In338 O339 2.294 . S
In338 O340 2.326 . S
In338 O344 2.266 . S
In338 O345 2.326 . S
In338 O346 2.266 . S
In338 O347 2.326 . S
In338 O349 2.294 . S
In338 O350 2.326 . S
O339 In338 2.294 . S
O339 C348 1.240 . S
O340 In338 2.326 . S
O340 C348 1.252 . S
C341 O344 1.252 . S
C341 O345 1.260 . S
C342 O349 1.240 . S
C342 O350 1.252 . S
C343 O346 1.252 . S
C343 O347 1.260 . S
O344 In338 2.266 . S
O344 C341 1.252 . S
O345 In338 2.326 . S
O345 C341 1.260 . S
O346 In338 2.266 . S
O346 C343 1.252 . S
O347 In338 2.326 . S
O347 C343 1.260 . S
C348 O339 1.240 . S
C348 O340 1.252 . S
O349 In338 2.294 . S
O349 C342 1.240 . S
O350 In338 2.326 . S
O350 C342 1.252 . S
In351 O352 2.294 . S
In351 O353 2.326 . S
In351 O357 2.266 . S
In351 O358 2.326 . S
In351 O359 2.266 . S
In351 O360 2.326 . S
In351 O362 2.294 . S
In351 O363 2.326 . S
O352 In351 2.294 . S
O352 C361 1.240 . S
O353 In351 2.326 . S
O353 C361 1.252 . S
C354 O357 1.252 . S
C354 O358 1.260 . S
C355 O362 1.240 . S
C355 O363 1.252 . S
C356 O359 1.252 . S
C356 O360 1.260 . S
O357 In351 2.266 . S
O357 C354 1.252 . S
O358 In351 2.326 . S
O358 C354 1.260 . S
O359 In351 2.266 . S
O359 C356 1.252 . S
O360 In351 2.326 . S
O360 C356 1.260 . S
C361 O352 1.240 . S
C361 O353 1.252 . S
O362 In351 2.294 . S
O362 C355 1.240 . S
O363 In351 2.326 . S
O363 C355 1.252 . S
In364 O365 2.294 . S
In364 O366 2.326 . S
In364 O370 2.266 . S
In364 O371 2.326 . S
In364 O372 2.266 . S
In364 O373 2.326 . S
In364 O375 2.294 . S
In364 O376 2.326 . S
O365 In364 2.294 . S
O365 C374 1.240 . S
O366 In364 2.326 . S
O366 C374 1.252 . S
C367 O370 1.252 . S
C367 O371 1.260 . S
C368 O375 1.240 . S
C368 O376 1.252 . S
C369 O372 1.252 . S
C369 O373 1.260 . S
O370 In364 2.266 . S
O370 C367 1.252 . S
O371 In364 2.326 . S
O371 C367 1.260 . S
O372 In364 2.266 . S
O372 C369 1.252 . S
O373 In364 2.326 . S
O373 C369 1.260 . S
C374 O365 1.240 . S
C374 O366 1.252 . S
O375 In364 2.294 . S
O375 C368 1.240 . S
O376 In364 2.326 . S
O376 C368 1.252 . S
In377 O378 2.294 . S
In377 O379 2.326 . S
In377 O383 2.266 . S
In377 O384 2.326 . S
In377 O385 2.266 . S
In377 O386 2.326 . S
In377 O388 2.294 . S
In377 O389 2.326 . S
O378 In377 2.294 . S
O378 C387 1.240 . S
O379 In377 2.326 . S
O379 C387 1.252 . S
C380 O383 1.252 . S
C380 O384 1.260 . S
C381 O388 1.240 . S
C381 O389 1.252 . S
C382 O385 1.252 . S
C382 O386 1.260 . S
O383 In377 2.266 . S
O383 C380 1.252 . S
O384 In377 2.326 . S
O384 C380 1.260 . S
O385 In377 2.266 . S
O385 C382 1.252 . S
O386 In377 2.326 . S
O386 C382 1.260 . S
C387 O378 1.240 . S
C387 O379 1.252 . S
O388 In377 2.294 . S
O388 C381 1.240 . S
O389 In377 2.326 . S
O389 C381 1.252 . S
In390 O391 2.294 . S
In390 O392 2.326 . S
In390 O396 2.266 . S
In390 O397 2.326 . S
In390 O398 2.266 . S
In390 O399 2.326 . S
In390 O401 2.294 . S
In390 O402 2.326 . S
O391 In390 2.294 . S
O391 C400 1.240 . S
O392 In390 2.326 . S
O392 C400 1.252 . S
C393 O396 1.252 . S
C393 O397 1.260 . S
C394 O401 1.240 . S
C394 O402 1.252 . S
C395 O398 1.252 . S
C395 O399 1.260 . S
O396 In390 2.266 . S
O396 C393 1.252 . S
O397 In390 2.326 . S
O397 C393 1.260 . S
O398 In390 2.266 . S
O398 C395 1.252 . S
O399 In390 2.326 . S
O399 C395 1.260 . S
C400 O391 1.240 . S
C400 O392 1.252 . S
O401 In390 2.294 . S
O401 C394 1.240 . S
O402 In390 2.326 . S
O402 C394 1.252 . S
In403 O404 2.294 . S
In403 O405 2.326 . S
In403 O409 2.266 . S
In403 O410 2.326 . S
In403 O411 2.266 . S
In403 O412 2.326 . S
In403 O414 2.294 . S
In403 O415 2.326 . S
O404 In403 2.294 . S
O404 C413 1.240 . S
O405 In403 2.326 . S
O405 C413 1.252 . S
C406 O409 1.252 . S
C406 O410 1.260 . S
C407 O414 1.240 . S
C407 O415 1.252 . S
C408 O411 1.252 . S
C408 O412 1.260 . S
O409 In403 2.266 . S
O409 C406 1.252 . S
O410 In403 2.326 . S
O410 C406 1.260 . S
O411 In403 2.266 . S
O411 C408 1.252 . S
O412 In403 2.326 . S
O412 C408 1.260 . S
C413 O404 1.240 . S
C413 O405 1.252 . S
O414 In403 2.294 . S
O414 C407 1.240 . S
O415 In403 2.326 . S
O415 C407 1.252 . S
C416 C417 1.387 . S
C416 H420 0.950 . S
C416 C425 1.390 . S
C417 C416 1.387 . S
C417 C419 1.387 . S
H418 C425 0.950 . S
C419 C417 1.387 . S
C419 C421 1.390 . S
C419 H423 0.950 . S
H420 C416 0.950 . S
C421 C419 1.390 . S
C421 C422 1.387 . S
C421 H424 0.950 . S
C422 C421 1.387 . S
C422 C425 1.387 . S
H423 C419 0.950 . S
H424 C421 0.950 . S
C425 C416 1.390 . S
C425 H418 0.950 . S
C425 C422 1.387 . S
C426 C427 1.387 . S
C426 H430 0.950 . S
C426 C435 1.390 . S
C427 C426 1.387 . S
C427 C429 1.387 . S
H428 C435 0.950 . S
C429 C427 1.387 . S
C429 C431 1.390 . S
C429 H433 0.950 . S
H430 C426 0.950 . S
C431 C429 1.390 . S
C431 C432 1.387 . S
C431 H434 0.950 . S
C432 C431 1.387 . S
C432 C435 1.387 . S
H433 C429 0.950 . S
H434 C431 0.950 . S
C435 C426 1.390 . S
C435 H428 0.950 . S
C435 C432 1.387 . S
C436 C437 1.387 . S
C436 H440 0.950 . S
C436 C445 1.390 . S
C437 C436 1.387 . S
C437 C439 1.387 . S
H438 C445 0.950 . S
C439 C437 1.387 . S
C439 C441 1.390 . S
C439 H443 0.950 . S
H440 C436 0.950 . S
C441 C439 1.390 . S
C441 C442 1.387 . S
C441 H444 0.950 . S
C442 C441 1.387 . S
C442 C445 1.387 . S
H443 C439 0.950 . S
H444 C441 0.950 . S
C445 C436 1.390 . S
C445 H438 0.950 . S
C445 C442 1.387 . S
C446 C447 1.387 . S
C446 H450 0.950 . S
C446 C455 1.390 . S
C447 C446 1.387 . S
C447 C449 1.387 . S
H448 C455 0.950 . S
C449 C447 1.387 . S
C449 C451 1.390 . S
C449 H453 0.950 . S
H450 C446 0.950 . S
C451 C449 1.390 . S
C451 C452 1.387 . S
C451 H454 0.950 . S
C452 C451 1.387 . S
C452 C455 1.387 . S
H453 C449 0.950 . S
H454 C451 0.950 . S
C455 C446 1.390 . S
C455 H448 0.950 . S
C455 C452 1.387 . S
C456 C457 1.387 . S
C456 H460 0.950 . S
C456 C465 1.390 . S
C457 C456 1.387 . S
C457 C459 1.387 . S
H458 C465 0.950 . S
C459 C457 1.387 . S
C459 C461 1.390 . S
C459 H463 0.950 . S
H460 C456 0.950 . S
C461 C459 1.390 . S
C461 C462 1.387 . S
C461 H464 0.950 . S
C462 C461 1.387 . S
C462 C465 1.387 . S
H463 C459 0.950 . S
H464 C461 0.950 . S
C465 C456 1.390 . S
C465 H458 0.950 . S
C465 C462 1.387 . S
C466 C467 1.387 . S
C466 H470 0.950 . S
C466 C475 1.390 . S
C467 C466 1.387 . S
C467 C469 1.387 . S
H468 C475 0.950 . S
C469 C467 1.387 . S
C469 C471 1.390 . S
C469 H473 0.950 . S
H470 C466 0.950 . S
C471 C469 1.390 . S
C471 C472 1.387 . S
C471 H474 0.950 . S
C472 C471 1.387 . S
C472 C475 1.387 . S
H473 C469 0.950 . S
H474 C471 0.950 . S
C475 C466 1.390 . S
C475 H468 0.950 . S
C475 C472 1.387 . S
C476 C477 1.387 . S
C476 H480 0.950 . S
C476 C485 1.390 . S
C477 C476 1.387 . S
C477 C479 1.387 . S
H478 C485 0.950 . S
C479 C477 1.387 . S
C479 C481 1.390 . S
C479 H483 0.950 . S
H480 C476 0.950 . S
C481 C479 1.390 . S
C481 C482 1.387 . S
C481 H484 0.950 . S
C482 C481 1.387 . S
C482 C485 1.387 . S
H483 C479 0.950 . S
H484 C481 0.950 . S
C485 C476 1.390 . S
C485 H478 0.950 . S
C485 C482 1.387 . S
C486 C487 1.387 . S
C486 H490 0.950 . S
C486 C495 1.390 . S
C487 C486 1.387 . S
C487 C489 1.387 . S
H488 C495 0.950 . S
C489 C487 1.387 . S
C489 C491 1.390 . S
C489 H493 0.950 . S
H490 C486 0.950 . S
C491 C489 1.390 . S
C491 C492 1.387 . S
C491 H494 0.950 . S
C492 C491 1.387 . S
C492 C495 1.387 . S
H493 C489 0.950 . S
H494 C491 0.950 . S
C495 C486 1.390 . S
C495 H488 0.950 . S
C495 C492 1.387 . S
C496 C497 1.387 . S
C496 H500 0.950 . S
C496 C505 1.390 . S
C497 C496 1.387 . S
C497 C499 1.387 . S
H498 C505 0.950 . S
C499 C497 1.387 . S
C499 C501 1.390 . S
C499 H503 0.950 . S
H500 C496 0.950 . S
C501 C499 1.390 . S
C501 C502 1.387 . S
C501 H504 0.950 . S
C502 C501 1.387 . S
C502 C505 1.387 . S
H503 C499 0.950 . S
H504 C501 0.950 . S
C505 C496 1.390 . S
C505 H498 0.950 . S
C505 C502 1.387 . S
C506 C507 1.387 . S
C506 H510 0.950 . S
C506 C515 1.390 . S
C507 C506 1.387 . S
C507 C509 1.387 . S
H508 C515 0.950 . S
C509 C507 1.387 . S
C509 C511 1.390 . S
C509 H513 0.950 . S
H510 C506 0.950 . S
C511 C509 1.390 . S
C511 C512 1.387 . S
C511 H514 0.950 . S
C512 C511 1.387 . S
C512 C515 1.387 . S
H513 C509 0.950 . S
H514 C511 0.950 . S
C515 C506 1.390 . S
C515 H508 0.950 . S
C515 C512 1.387 . S
C516 C517 1.387 . S
C516 H520 0.950 . S
C516 C525 1.390 . S
C517 C516 1.387 . S
C517 C519 1.387 . S
H518 C525 0.950 . S
C519 C517 1.387 . S
C519 C521 1.390 . S
C519 H523 0.950 . S
H520 C516 0.950 . S
C521 C519 1.390 . S
C521 C522 1.387 . S
C521 H524 0.950 . S
C522 C521 1.387 . S
C522 C525 1.387 . S
H523 C519 0.950 . S
H524 C521 0.950 . S
C525 C516 1.390 . S
C525 H518 0.950 . S
C525 C522 1.387 . S
C526 C527 1.387 . S
C526 H530 0.950 . S
C526 C535 1.390 . S
C527 C526 1.387 . S
C527 C529 1.387 . S
H528 C535 0.950 . S
C529 C527 1.387 . S
C529 C531 1.390 . S
C529 H533 0.950 . S
H530 C526 0.950 . S
C531 C529 1.390 . S
C531 C532 1.387 . S
C531 H534 0.950 . S
C532 C531 1.387 . S
C532 C535 1.387 . S
H533 C529 0.950 . S
H534 C531 0.950 . S
C535 C526 1.390 . S
C535 H528 0.950 . S
C535 C532 1.387 . S
C536 C537 1.387 . S
C536 H540 0.950 . S
C536 C545 1.390 . S
C537 C536 1.387 . S
C537 C539 1.387 . S
H538 C545 0.950 . S
C539 C537 1.387 . S
C539 C541 1.390 . S
C539 H543 0.950 . S
H540 C536 0.950 . S
C541 C539 1.390 . S
C541 C542 1.387 . S
C541 H544 0.950 . S
C542 C541 1.387 . S
C542 C545 1.387 . S
H543 C539 0.950 . S
H544 C541 0.950 . S
C545 C536 1.390 . S
C545 H538 0.950 . S
C545 C542 1.387 . S
C546 C547 1.387 . S
C546 H550 0.950 . S
C546 C555 1.390 . S
C547 C546 1.387 . S
C547 C549 1.387 . S
H548 C555 0.950 . S
C549 C547 1.387 . S
C549 C551 1.390 . S
C549 H553 0.950 . S
H550 C546 0.950 . S
C551 C549 1.390 . S
C551 C552 1.387 . S
C551 H554 0.950 . S
C552 C551 1.387 . S
C552 C555 1.387 . S
H553 C549 0.950 . S
H554 C551 0.950 . S
C555 C546 1.390 . S
C555 H548 0.950 . S
C555 C552 1.387 . S
C556 C557 1.387 . S
C556 H560 0.950 . S
C556 C565 1.390 . S
C557 C556 1.387 . S
C557 C559 1.387 . S
H558 C565 0.950 . S
C559 C557 1.387 . S
C559 C561 1.390 . S
C559 H563 0.950 . S
H560 C556 0.950 . S
C561 C559 1.390 . S
C561 C562 1.387 . S
C561 H564 0.950 . S
C562 C561 1.387 . S
C562 C565 1.387 . S
H563 C559 0.950 . S
H564 C561 0.950 . S
C565 C556 1.390 . S
C565 H558 0.950 . S
C565 C562 1.387 . S
C566 C567 1.387 . S
C566 H570 0.950 . S
C566 C575 1.390 . S
C567 C566 1.387 . S
C567 C569 1.387 . S
H568 C575 0.950 . S
C569 C567 1.387 . S
C569 C571 1.390 . S
C569 H573 0.950 . S
H570 C566 0.950 . S
C571 C569 1.390 . S
C571 C572 1.387 . S
C571 H574 0.950 . S
C572 C571 1.387 . S
C572 C575 1.387 . S
H573 C569 0.950 . S
H574 C571 0.950 . S
C575 C566 1.390 . S
C575 H568 0.950 . S
C575 C572 1.387 . S
C576 C577 1.387 . S
C576 H580 0.950 . S
C576 C585 1.390 1_655 S
C577 C576 1.387 . S
C577 C579 1.387 . S
H578 C585 0.950 . S
C579 C577 1.387 . S
C579 C581 1.390 1_655 S
C579 H583 0.950 . S
H580 C576 0.950 . S
C581 C579 1.390 1_455 S
C581 C582 1.387 . S
C581 H584 0.950 . S
C582 C581 1.387 . S
C582 C585 1.387 . S
H583 C579 0.950 . S
H584 C581 0.950 . S
C585 C576 1.390 1_455 S
C585 H578 0.950 . S
C585 C582 1.387 . S
C586 C587 1.387 . S
C586 H590 0.950 . S
C586 C595 1.390 1_545 S
C587 C586 1.387 . S
C587 C589 1.387 . S
H588 C595 0.950 . S
C589 C587 1.387 . S
C589 C591 1.390 1_545 S
C589 H593 0.950 . S
H590 C586 0.950 . S
C591 C589 1.390 1_565 S
C591 C592 1.387 . S
C591 H594 0.950 . S
C592 C591 1.387 . S
C592 C595 1.387 . S
H593 C589 0.950 . S
H594 C591 0.950 . S
C595 C586 1.390 1_565 S
C595 H588 0.950 . S
C595 C592 1.387 . S
C596 C597 1.387 . S
C596 H600 0.950 . S
C596 C605 1.390 1_455 S
C597 C596 1.387 . S
C597 C599 1.387 . S
H598 C605 0.950 . S
C599 C597 1.387 . S
C599 C601 1.390 1_455 S
C599 H603 0.950 . S
H600 C596 0.950 . S
C601 C599 1.390 1_655 S
C601 C602 1.387 . S
C601 H604 0.950 . S
C602 C601 1.387 . S
C602 C605 1.387 . S
H603 C599 0.950 . S
H604 C601 0.950 . S
C605 C596 1.390 1_655 S
C605 H598 0.950 . S
C605 C602 1.387 . S
C606 C607 1.387 . S
C606 H610 0.950 . S
C606 C615 1.390 1_565 S
C607 C606 1.387 . S
C607 C609 1.387 . S
H608 C615 0.950 . S
C609 C607 1.387 . S
C609 C611 1.390 1_565 S
C609 H613 0.950 . S
H610 C606 0.950 . S
C611 C609 1.390 1_545 S
C611 C612 1.387 . S
C611 H614 0.950 . S
C612 C611 1.387 . S
C612 C615 1.387 . S
H613 C609 0.950 . S
H614 C611 0.950 . S
C615 C606 1.390 1_545 S
C615 H608 0.950 . S
C615 C612 1.387 . S
C616 C617 1.387 . S
C616 H620 0.950 . S
C616 C625 1.390 1_455 S
C617 C616 1.387 . S
C617 C619 1.387 . S
H618 C625 0.950 . S
C619 C617 1.387 . S
C619 C621 1.390 1_455 S
C619 H623 0.950 . S
H620 C616 0.950 . S
C621 C619 1.390 1_655 S
C621 C622 1.387 . S
C621 H624 0.950 . S
C622 C621 1.387 . S
C622 C625 1.387 . S
H623 C619 0.950 . S
H624 C621 0.950 . S
C625 C616 1.390 1_655 S
C625 H618 0.950 . S
C625 C622 1.387 . S
C626 C627 1.387 . S
C626 H630 0.950 . S
C626 C635 1.390 1_565 S
C627 C626 1.387 . S
C627 C629 1.387 . S
H628 C635 0.950 . S
C629 C627 1.387 . S
C629 C631 1.390 1_565 S
C629 H633 0.950 . S
H630 C626 0.950 . S
C631 C629 1.390 1_545 S
C631 C632 1.387 . S
C631 H634 0.950 . S
C632 C631 1.387 . S
C632 C635 1.387 . S
H633 C629 0.950 . S
H634 C631 0.950 . S
C635 C626 1.390 1_545 S
C635 H628 0.950 . S
C635 C632 1.387 . S
C636 C637 1.387 . S
C636 H640 0.950 . S
C636 C645 1.390 1_455 S
C637 C636 1.387 . S
C637 C639 1.387 . S
H638 C645 0.950 . S
C639 C637 1.387 . S
C639 C641 1.390 1_455 S
C639 H643 0.950 . S
H640 C636 0.950 . S
C641 C639 1.390 1_655 S
C641 C642 1.387 . S
C641 H644 0.950 . S
C642 C641 1.387 . S
C642 C645 1.387 . S
H643 C639 0.950 . S
H644 C641 0.950 . S
C645 C636 1.390 1_655 S
C645 H638 0.950 . S
C645 C642 1.387 . S
C646 C647 1.387 . S
C646 H650 0.950 . S
C646 C655 1.390 1_545 S
C647 C646 1.387 . S
C647 C649 1.387 . S
H648 C655 0.950 . S
C649 C647 1.387 . S
C649 C651 1.390 1_545 S
C649 H653 0.950 . S
H650 C646 0.950 . S
C651 C649 1.390 1_565 S
C651 C652 1.387 . S
C651 H654 0.950 . S
C652 C651 1.387 . S
C652 C655 1.387 . S
H653 C649 0.950 . S
H654 C651 0.950 . S
C655 C646 1.390 1_565 S
C655 H648 0.950 . S
C655 C652 1.387 . S
C656 C657 1.387 . S
C656 H660 0.950 . S
C656 C665 1.390 . S
C657 C656 1.387 . S
C657 C659 1.387 . S
H658 C665 0.950 . S
C659 C657 1.387 . S
C659 C661 1.390 . S
C659 H663 0.950 . S
H660 C656 0.950 . S
C661 C659 1.390 . S
C661 C662 1.387 . S
C661 H664 0.950 . S
C662 C661 1.387 . S
C662 C665 1.387 . S
H663 C659 0.950 . S
H664 C661 0.950 . S
C665 C656 1.390 . S
C665 H658 0.950 . S
C665 C662 1.387 . S
C666 C667 1.387 . S
C666 H670 0.950 . S
C666 C675 1.390 . S
C667 C666 1.387 . S
C667 C669 1.387 . S
H668 C675 0.950 . S
C669 C667 1.387 . S
C669 C671 1.390 . S
C669 H673 0.950 . S
H670 C666 0.950 . S
C671 C669 1.390 . S
C671 C672 1.387 . S
C671 H674 0.950 . S
C672 C671 1.387 . S
C672 C675 1.387 . S
H673 C669 0.950 . S
H674 C671 0.950 . S
C675 C666 1.390 . S
C675 H668 0.950 . S
C675 C672 1.387 . S
C676 C677 1.387 . S
C676 H680 0.950 . S
C676 C685 1.390 . S
C677 C676 1.387 . S
C677 C679 1.387 . S
H678 C685 0.950 . S
C679 C677 1.387 . S
C679 C681 1.390 . S
C679 H683 0.950 . S
H680 C676 0.950 . S
C681 C679 1.390 . S
C681 C682 1.387 . S
C681 H684 0.950 . S
C682 C681 1.387 . S
C682 C685 1.387 . S
H683 C679 0.950 . S
H684 C681 0.950 . S
C685 C676 1.390 . S
C685 H678 0.950 . S
C685 C682 1.387 . S
C686 C687 1.387 . S
C686 H690 0.950 . S
C686 C695 1.390 . S
C687 C686 1.387 . S
C687 C689 1.387 . S
H688 C695 0.950 . S
C689 C687 1.387 . S
C689 C691 1.390 . S
C689 H693 0.950 . S
H690 C686 0.950 . S
C691 C689 1.390 . S
C691 C692 1.387 . S
C691 H694 0.950 . S
C692 C691 1.387 . S
C692 C695 1.387 . S
H693 C689 0.950 . S
H694 C691 0.950 . S
C695 C686 1.390 . S
C695 H688 0.950 . S
C695 C692 1.387 . S
C696 C697 1.387 . S
C696 H700 0.950 . S
C696 C705 1.390 . S
C697 C696 1.387 . S
C697 C699 1.387 . S
H698 C705 0.950 . S
C699 C697 1.387 . S
C699 C701 1.390 . S
C699 H703 0.950 . S
H700 C696 0.950 . S
C701 C699 1.390 . S
C701 C702 1.387 . S
C701 H704 0.950 . S
C702 C701 1.387 . S
C702 C705 1.387 . S
H703 C699 0.950 . S
H704 C701 0.950 . S
C705 C696 1.390 . S
C705 H698 0.950 . S
C705 C702 1.387 . S
C706 C707 1.387 . S
C706 H710 0.950 . S
C706 C715 1.390 . S
C707 C706 1.387 . S
C707 C709 1.387 . S
H708 C715 0.950 . S
C709 C707 1.387 . S
C709 C711 1.390 . S
C709 H713 0.950 . S
H710 C706 0.950 . S
C711 C709 1.390 . S
C711 C712 1.387 . S
C711 H714 0.950 . S
C712 C711 1.387 . S
C712 C715 1.387 . S
H713 C709 0.950 . S
H714 C711 0.950 . S
C715 C706 1.390 . S
C715 H708 0.950 . S
C715 C712 1.387 . S
C716 C717 1.387 . S
C716 H720 0.950 . S
C716 C725 1.390 . S
C717 C716 1.387 . S
C717 C719 1.387 . S
H718 C725 0.950 . S
C719 C717 1.387 . S
C719 C721 1.390 . S
C719 H723 0.950 . S
H720 C716 0.950 . S
C721 C719 1.390 . S
C721 C722 1.387 . S
C721 H724 0.950 . S
C722 C721 1.387 . S
C722 C725 1.387 . S
H723 C719 0.950 . S
H724 C721 0.950 . S
C725 C716 1.390 . S
C725 H718 0.950 . S
C725 C722 1.387 . S
C726 C727 1.387 . S
C726 H730 0.950 . S
C726 C735 1.390 . S
C727 C726 1.387 . S
C727 C729 1.387 . S
H728 C735 0.950 . S
C729 C727 1.387 . S
C729 C731 1.390 . S
C729 H733 0.950 . S
H730 C726 0.950 . S
C731 C729 1.390 . S
C731 C732 1.387 . S
C731 H734 0.950 . S
C732 C731 1.387 . S
C732 C735 1.387 . S
H733 C729 0.950 . S
H734 C731 0.950 . S
C735 C726 1.390 . S
C735 H728 0.950 . S
C735 C732 1.387 . S
C736 C737 1.387 . S
C736 H740 0.950 . S
C736 C745 1.390 . S
C737 C736 1.387 . S
C737 C739 1.387 . S
H738 C745 0.950 . S
C739 C737 1.387 . S
C739 C741 1.390 . S
C739 H743 0.950 . S
H740 C736 0.950 . S
C741 C739 1.390 . S
C741 C742 1.387 . S
C741 H744 0.950 . S
C742 C741 1.387 . S
C742 C745 1.387 . S
H743 C739 0.950 . S
H744 C741 0.950 . S
C745 C736 1.390 . S
C745 H738 0.950 . S
C745 C742 1.387 . S
C746 C747 1.387 . S
C746 H750 0.950 . S
C746 C755 1.390 . S
C747 C746 1.387 . S
C747 C749 1.387 . S
H748 C755 0.950 . S
C749 C747 1.387 . S
C749 C751 1.390 . S
C749 H753 0.950 . S
H750 C746 0.950 . S
C751 C749 1.390 . S
C751 C752 1.387 . S
C751 H754 0.950 . S
C752 C751 1.387 . S
C752 C755 1.387 . S
H753 C749 0.950 . S
H754 C751 0.950 . S
C755 C746 1.390 . S
C755 H748 0.950 . S
C755 C752 1.387 . S
C756 C757 1.387 . S
C756 H760 0.950 . S
C756 C765 1.390 . S
C757 C756 1.387 . S
C757 C759 1.387 . S
H758 C765 0.950 . S
C759 C757 1.387 . S
C759 C761 1.390 . S
C759 H763 0.950 . S
H760 C756 0.950 . S
C761 C759 1.390 . S
C761 C762 1.387 . S
C761 H764 0.950 . S
C762 C761 1.387 . S
C762 C765 1.387 . S
H763 C759 0.950 . S
H764 C761 0.950 . S
C765 C756 1.390 . S
C765 H758 0.950 . S
C765 C762 1.387 . S
C766 C767 1.387 . S
C766 H770 0.950 . S
C766 C775 1.390 . S
C767 C766 1.387 . S
C767 C769 1.387 . S
H768 C775 0.950 . S
C769 C767 1.387 . S
C769 C771 1.390 . S
C769 H773 0.950 . S
H770 C766 0.950 . S
C771 C769 1.390 . S
C771 C772 1.387 . S
C771 H774 0.950 . S
C772 C771 1.387 . S
C772 C775 1.387 . S
H773 C769 0.950 . S
H774 C771 0.950 . S
C775 C766 1.390 . S
C775 H768 0.950 . S
C775 C772 1.387 . S
C776 C777 1.387 . S
C776 H780 0.950 . S
C776 C785 1.390 . S
C777 C776 1.387 . S
C777 C779 1.387 . S
H778 C785 0.950 . S
C779 C777 1.387 . S
C779 C781 1.390 . S
C779 H783 0.950 . S
H780 C776 0.950 . S
C781 C779 1.390 . S
C781 C782 1.387 . S
C781 H784 0.950 . S
C782 C781 1.387 . S
C782 C785 1.387 . S
H783 C779 0.950 . S
H784 C781 0.950 . S
C785 C776 1.390 . S
C785 H778 0.950 . S
C785 C782 1.387 . S
C786 C787 1.387 . S
C786 H790 0.950 . S
C786 C795 1.390 . S
C787 C786 1.387 . S
C787 C789 1.387 . S
H788 C795 0.950 . S
C789 C787 1.387 . S
C789 C791 1.390 . S
C789 H793 0.950 . S
H790 C786 0.950 . S
C791 C789 1.390 . S
C791 C792 1.387 . S
C791 H794 0.950 . S
C792 C791 1.387 . S
C792 C795 1.387 . S
H793 C789 0.950 . S
H794 C791 0.950 . S
C795 C786 1.390 . S
C795 H788 0.950 . S
C795 C792 1.387 . S
C796 C797 1.387 . S
C796 H800 0.950 . S
C796 C805 1.390 . S
C797 C796 1.387 . S
C797 C799 1.387 . S
H798 C805 0.950 . S
C799 C797 1.387 . S
C799 C801 1.390 . S
C799 H803 0.950 . S
H800 C796 0.950 . S
C801 C799 1.390 . S
C801 C802 1.387 . S
C801 H804 0.950 . S
C802 C801 1.387 . S
C802 C805 1.387 . S
H803 C799 0.950 . S
H804 C801 0.950 . S
C805 C796 1.390 . S
C805 H798 0.950 . S
C805 C802 1.387 . S
C806 C807 1.387 . S
C806 H810 0.950 . S
C806 C815 1.390 . S
C807 C806 1.387 . S
C807 C809 1.387 . S
H808 C815 0.950 . S
C809 C807 1.387 . S
C809 C811 1.390 . S
C809 H813 0.950 . S
H810 C806 0.950 . S
C811 C809 1.390 . S
C811 C812 1.387 . S
C811 H814 0.950 . S
C812 C811 1.387 . S
C812 C815 1.387 . S
H813 C809 0.950 . S
H814 C811 0.950 . S
C815 C806 1.390 . S
C815 H808 0.950 . S
C815 C812 1.387 . S
C816 C817 1.387 . S
C816 H820 0.950 . S
C816 C825 1.390 1_554 S
C817 C816 1.387 . S
C817 C819 1.387 . S
H818 C825 0.950 . S
C819 C817 1.387 . S
C819 C821 1.390 1_554 S
C819 H823 0.950 . S
H820 C816 0.950 . S
C821 C819 1.390 1_556 S
C821 C822 1.387 . S
C821 H824 0.950 . S
C822 C821 1.387 . S
C822 C825 1.387 . S
H823 C819 0.950 . S
H824 C821 0.950 . S
C825 C816 1.390 1_556 S
C825 H818 0.950 . S
C825 C822 1.387 . S
C826 C827 1.387 . S
C826 H830 0.950 . S
C826 C835 1.390 1_556 S
C827 C826 1.387 . S
C827 C829 1.387 . S
H828 C835 0.950 . S
C829 C827 1.387 . S
C829 C831 1.390 1_556 S
C829 H833 0.950 . S
H830 C826 0.950 . S
C831 C829 1.390 1_554 S
C831 C832 1.387 . S
C831 H834 0.950 . S
C832 C831 1.387 . S
C832 C835 1.387 . S
H833 C829 0.950 . S
H834 C831 0.950 . S
C835 C826 1.390 1_554 S
C835 H828 0.950 . S
C835 C832 1.387 . S
C836 C837 1.387 . S
C836 H840 0.950 . S
C836 C845 1.390 1_554 S
C837 C836 1.387 . S
C837 C839 1.387 . S
H838 C845 0.950 . S
C839 C837 1.387 . S
C839 C841 1.390 1_554 S
C839 H843 0.950 . S
H840 C836 0.950 . S
C841 C839 1.390 1_556 S
C841 C842 1.387 . S
C841 H844 0.950 . S
C842 C841 1.387 . S
C842 C845 1.387 . S
H843 C839 0.950 . S
H844 C841 0.950 . S
C845 C836 1.390 1_556 S
C845 H838 0.950 . S
C845 C842 1.387 . S
C846 C847 1.387 . S
C846 H850 0.950 . S
C846 C855 1.390 1_554 S
C847 C846 1.387 . S
C847 C849 1.387 . S
H848 C855 0.950 . S
C849 C847 1.387 . S
C849 C851 1.390 1_554 S
C849 H853 0.950 . S
H850 C846 0.950 . S
C851 C849 1.390 1_556 S
C851 C852 1.387 . S
C851 H854 0.950 . S
C852 C851 1.387 . S
C852 C855 1.387 . S
H853 C849 0.950 . S
H854 C851 0.950 . S
C855 C846 1.390 1_556 S
C855 H848 0.950 . S
C855 C852 1.387 . S
C856 C857 1.387 . S
C856 H860 0.950 . S
C856 C865 1.390 1_554 S
C857 C856 1.387 . S
C857 C859 1.387 . S
H858 C865 0.950 . S
C859 C857 1.387 . S
C859 C861 1.390 1_554 S
C859 H863 0.950 . S
H860 C856 0.950 . S
C861 C859 1.390 1_556 S
C861 C862 1.387 . S
C861 H864 0.950 . S
C862 C861 1.387 . S
C862 C865 1.387 . S
H863 C859 0.950 . S
H864 C861 0.950 . S
C865 C856 1.390 1_556 S
C865 H858 0.950 . S
C865 C862 1.387 . S
C866 C867 1.387 . S
C866 H870 0.950 . S
C866 C875 1.390 1_554 S
C867 C866 1.387 . S
C867 C869 1.387 . S
H868 C875 0.950 . S
C869 C867 1.387 . S
C869 C871 1.390 1_554 S
C869 H873 0.950 . S
H870 C866 0.950 . S
C871 C869 1.390 1_556 S
C871 C872 1.387 . S
C871 H874 0.950 . S
C872 C871 1.387 . S
C872 C875 1.387 . S
H873 C869 0.950 . S
H874 C871 0.950 . S
C875 C866 1.390 1_556 S
C875 H868 0.950 . S
C875 C872 1.387 . S
C876 C877 1.387 . S
C876 H880 0.950 . S
C876 C885 1.390 1_556 S
C877 C876 1.387 . S
C877 C879 1.387 . S
H878 C885 0.950 . S
C879 C877 1.387 . S
C879 C881 1.390 1_556 S
C879 H883 0.950 . S
H880 C876 0.950 . S
C881 C879 1.390 1_554 S
C881 C882 1.387 . S
C881 H884 0.950 . S
C882 C881 1.387 . S
C882 C885 1.387 . S
H883 C879 0.950 . S
H884 C881 0.950 . S
C885 C876 1.390 1_554 S
C885 H878 0.950 . S
C885 C882 1.387 . S
C886 C887 1.387 . S
C886 H890 0.950 . S
C886 C895 1.390 1_556 S
C887 C886 1.387 . S
C887 C889 1.387 . S
H888 C895 0.950 . S
C889 C887 1.387 . S
C889 C891 1.390 1_556 S
C889 H893 0.950 . S
H890 C886 0.950 . S
C891 C889 1.390 1_554 S
C891 C892 1.387 . S
C891 H894 0.950 . S
C892 C891 1.387 . S
C892 C895 1.387 . S
H893 C889 0.950 . S
H894 C891 0.950 . S
C895 C886 1.390 1_554 S
C895 H888 0.950 . S
C895 C892 1.387 . S
C896 C897 1.387 . S
C896 H900 0.950 . S
C896 C905 1.390 . S
C897 C896 1.387 . S
C897 C899 1.387 . S
H898 C905 0.950 . S
C899 C897 1.387 . S
C899 C901 1.390 . S
C899 H903 0.950 . S
H900 C896 0.950 . S
C901 C899 1.390 . S
C901 C902 1.387 . S
C901 H904 0.950 . S
C902 C901 1.387 . S
C902 C905 1.387 . S
H903 C899 0.950 . S
H904 C901 0.950 . S
C905 C896 1.390 . S
C905 H898 0.950 . S
C905 C902 1.387 . S
C906 C907 1.387 . S
C906 H910 0.950 . S
C906 C915 1.390 . S
C907 C906 1.387 . S
C907 C909 1.387 . S
H908 C915 0.950 . S
C909 C907 1.387 . S
C909 C911 1.390 . S
C909 H913 0.950 . S
H910 C906 0.950 . S
C911 C909 1.390 . S
C911 C912 1.387 . S
C911 H914 0.950 . S
C912 C911 1.387 . S
C912 C915 1.387 . S
H913 C909 0.950 . S
H914 C911 0.950 . S
C915 C906 1.390 . S
C915 H908 0.950 . S
C915 C912 1.387 . S
C916 C917 1.387 . S
C916 H920 0.950 . S
C916 C925 1.390 . S
C917 C916 1.387 . S
C917 C919 1.387 . S
H918 C925 0.950 . S
C919 C917 1.387 . S
C919 C921 1.390 . S
C919 H923 0.950 . S
H920 C916 0.950 . S
C921 C919 1.390 . S
C921 C922 1.387 . S
C921 H924 0.950 . S
C922 C921 1.387 . S
C922 C925 1.387 . S
H923 C919 0.950 . S
H924 C921 0.950 . S
C925 C916 1.390 . S
C925 H918 0.950 . S
C925 C922 1.387 . S
C926 C927 1.387 . S
C926 H930 0.950 . S
C926 C935 1.390 . S
C927 C926 1.387 . S
C927 C929 1.387 . S
H928 C935 0.950 . S
C929 C927 1.387 . S
C929 C931 1.390 . S
C929 H933 0.950 . S
H930 C926 0.950 . S
C931 C929 1.390 . S
C931 C932 1.387 . S
C931 H934 0.950 . S
C932 C931 1.387 . S
C932 C935 1.387 . S
H933 C929 0.950 . S
H934 C931 0.950 . S
C935 C926 1.390 . S
C935 H928 0.950 . S
C935 C932 1.387 . S
C936 C937 1.387 . S
C936 H940 0.950 . S
C936 C945 1.390 . S
C937 C936 1.387 . S
C937 C939 1.387 . S
H938 C945 0.950 . S
C939 C937 1.387 . S
C939 C941 1.390 . S
C939 H943 0.950 . S
H940 C936 0.950 . S
C941 C939 1.390 . S
C941 C942 1.387 . S
C941 H944 0.950 . S
C942 C941 1.387 . S
C942 C945 1.387 . S
H943 C939 0.950 . S
H944 C941 0.950 . S
C945 C936 1.390 . S
C945 H938 0.950 . S
C945 C942 1.387 . S
C946 C947 1.387 . S
C946 H950 0.950 . S
C946 C955 1.390 . S
C947 C946 1.387 . S
C947 C949 1.387 . S
H948 C955 0.950 . S
C949 C947 1.387 . S
C949 C951 1.390 . S
C949 H953 0.950 . S
H950 C946 0.950 . S
C951 C949 1.390 . S
C951 C952 1.387 . S
C951 H954 0.950 . S
C952 C951 1.387 . S
C952 C955 1.387 . S
H953 C949 0.950 . S
H954 C951 0.950 . S
C955 C946 1.390 . S
C955 H948 0.950 . S
C955 C952 1.387 . S
C956 C957 1.387 . S
C956 H960 0.950 . S
C956 C965 1.390 . S
C957 C956 1.387 . S
C957 C959 1.387 . S
H958 C965 0.950 . S
C959 C957 1.387 . S
C959 C961 1.390 . S
C959 H963 0.950 . S
H960 C956 0.950 . S
C961 C959 1.390 . S
C961 C962 1.387 . S
C961 H964 0.950 . S
C962 C961 1.387 . S
C962 C965 1.387 . S
H963 C959 0.950 . S
H964 C961 0.950 . S
C965 C956 1.390 . S
C965 H958 0.950 . S
C965 C962 1.387 . S
C966 C967 1.387 . S
C966 H970 0.950 . S
C966 C975 1.390 . S
C967 C966 1.387 . S
C967 C969 1.387 . S
H968 C975 0.950 . S
C969 C967 1.387 . S
C969 C971 1.390 . S
C969 H973 0.950 . S
H970 C966 0.950 . S
C971 C969 1.390 . S
C971 C972 1.387 . S
C971 H974 0.950 . S
C972 C971 1.387 . S
C972 C975 1.387 . S
H973 C969 0.950 . S
H974 C971 0.950 . S
C975 C966 1.390 . S
C975 H968 0.950 . S
C975 C972 1.387 . S
C976 C977 1.387 . S
C976 H980 0.950 . S
C976 C985 1.390 . S
C977 C976 1.387 . S
C977 C979 1.387 . S
H978 C985 0.950 . S
C979 C977 1.387 . S
C979 C981 1.390 . S
C979 H983 0.950 . S
H980 C976 0.950 . S
C981 C979 1.390 . S
C981 C982 1.387 . S
C981 H984 0.950 . S
C982 C981 1.387 . S
C982 C985 1.387 . S
H983 C979 0.950 . S
H984 C981 0.950 . S
C985 C976 1.390 . S
C985 H978 0.950 . S
C985 C982 1.387 . S
C986 C987 1.387 . S
C986 H990 0.950 . S
C986 C995 1.390 . S
C987 C986 1.387 . S
C987 C989 1.387 . S
H988 C995 0.950 . S
C989 C987 1.387 . S
C989 C991 1.390 . S
C989 H993 0.950 . S
H990 C986 0.950 . S
C991 C989 1.390 . S
C991 C992 1.387 . S
C991 H994 0.950 . S
C992 C991 1.387 . S
C992 C995 1.387 . S
H993 C989 0.950 . S
H994 C991 0.950 . S
C995 C986 1.390 . S
C995 H988 0.950 . S
C995 C992 1.387 . S
C996 C997 1.387 . S
C996 H1000 0.950 . S
C996 C1005 1.390 . S
C997 C996 1.387 . S
C997 C999 1.387 . S
H998 C1005 0.950 . S
C999 C997 1.387 . S
C999 C1001 1.390 . S
C999 H1003 0.950 . S
H1000 C996 0.950 . S
C1001 C999 1.390 . S
C1001 C1002 1.387 . S
C1001 H1004 0.950 . S
C1002 C1001 1.387 . S
C1002 C1005 1.387 . S
H1003 C999 0.950 . S
H1004 C1001 0.950 . S
C1005 C996 1.390 . S
C1005 H998 0.950 . S
C1005 C1002 1.387 . S
C1006 C1007 1.387 . S
C1006 H1010 0.950 . S
C1006 C1015 1.390 . S
C1007 C1006 1.387 . S
C1007 C1009 1.387 . S
H1008 C1015 0.950 . S
C1009 C1007 1.387 . S
C1009 C1011 1.390 . S
C1009 H1013 0.950 . S
H1010 C1006 0.950 . S
C1011 C1009 1.390 . S
C1011 C1012 1.387 . S
C1011 H1014 0.950 . S
C1012 C1011 1.387 . S
C1012 C1015 1.387 . S
H1013 C1009 0.950 . S
H1014 C1011 0.950 . S
C1015 C1006 1.390 . S
C1015 H1008 0.950 . S
C1015 C1012 1.387 . S
C1016 C1017 1.387 . S
C1016 H1020 0.950 . S
C1016 C1025 1.390 . S
C1017 C1016 1.387 . S
C1017 C1019 1.387 . S
H1018 C1025 0.950 . S
C1019 C1017 1.387 . S
C1019 C1021 1.390 . S
C1019 H1023 0.950 . S
H1020 C1016 0.950 . S
C1021 C1019 1.390 . S
C1021 C1022 1.387 . S
C1021 H1024 0.950 . S
C1022 C1021 1.387 . S
C1022 C1025 1.387 . S
H1023 C1019 0.950 . S
H1024 C1021 0.950 . S
C1025 C1016 1.390 . S
C1025 H1018 0.950 . S
C1025 C1022 1.387 . S
C1026 C1027 1.387 . S
C1026 H1030 0.950 . S
C1026 C1035 1.390 . S
C1027 C1026 1.387 . S
C1027 C1029 1.387 . S
H1028 C1035 0.950 . S
C1029 C1027 1.387 . S
C1029 C1031 1.390 . S
C1029 H1033 0.950 . S
H1030 C1026 0.950 . S
C1031 C1029 1.390 . S
C1031 C1032 1.387 . S
C1031 H1034 0.950 . S
C1032 C1031 1.387 . S
C1032 C1035 1.387 . S
H1033 C1029 0.950 . S
H1034 C1031 0.950 . S
C1035 C1026 1.390 . S
C1035 H1028 0.950 . S
C1035 C1032 1.387 . S
C1036 C1037 1.387 . S
C1036 H1040 0.950 . S
C1036 C1045 1.390 . S
C1037 C1036 1.387 . S
C1037 C1039 1.387 . S
H1038 C1045 0.950 . S
C1039 C1037 1.387 . S
C1039 C1041 1.390 . S
C1039 H1043 0.950 . S
H1040 C1036 0.950 . S
C1041 C1039 1.390 . S
C1041 C1042 1.387 . S
C1041 H1044 0.950 . S
C1042 C1041 1.387 . S
C1042 C1045 1.387 . S
H1043 C1039 0.950 . S
H1044 C1041 0.950 . S
C1045 C1036 1.390 . S
C1045 H1038 0.950 . S
C1045 C1042 1.387 . S
C1046 C1047 1.387 . S
C1046 H1050 0.950 . S
C1046 C1055 1.390 . S
C1047 C1046 1.387 . S
C1047 C1049 1.387 . S
H1048 C1055 0.950 . S
C1049 C1047 1.387 . S
C1049 C1051 1.390 . S
C1049 H1053 0.950 . S
H1050 C1046 0.950 . S
C1051 C1049 1.390 . S
C1051 C1052 1.387 . S
C1051 H1054 0.950 . S
C1052 C1051 1.387 . S
C1052 C1055 1.387 . S
H1053 C1049 0.950 . S
H1054 C1051 0.950 . S
C1055 C1046 1.390 . S
C1055 H1048 0.950 . S
C1055 C1052 1.387 . S
C417 C199 1.546 . S
C422 C4 1.546 . S
C427 C23 1.546 . S
C432 C166 1.546 . S
C437 C30 1.546 . S
C442 C173 1.546 . S
C447 C192 1.546 . S
C452 C43 1.546 . S
C457 C62 1.546 . S
C462 C127 1.546 . S
C467 C69 1.546 . S
C472 C140 1.546 . S
C477 C147 1.546 . S
C482 C88 1.546 . S
C487 C114 1.546 . S
C492 C95 1.546 . S
C497 C212 1.546 . S
C502 C407 1.546 . S
C507 C225 1.546 . S
C512 C374 1.546 . S
C517 C238 1.546 . S
C522 C381 1.546 . S
C527 C394 1.546 . S
C532 C251 1.546 . S
C537 C264 1.546 . S
C542 C329 1.546 . S
C547 C283 1.546 . S
C552 C342 1.546 . S
C557 C355 1.546 . S
C562 C290 1.546 . S
C567 C303 1.546 . S
C572 C316 1.546 . S
C577 C159 1.481 . S
C582 C5 1.481 . S
C587 C16 1.481 . S
C592 C174 1.481 . S
C597 C185 1.481 . S
C602 C31 1.481 . S
C607 C44 1.481 . S
C612 C200 1.481 . S
C617 C55 1.481 . S
C622 C107 1.481 . S
C627 C120 1.481 . S
C632 C70 1.481 . S
C637 C133 1.481 . S
C642 C81 1.481 . S
C647 C148 1.481 . S
C652 C96 1.481 . S
C657 C213 1.481 . S
C662 C367 1.481 . S
C667 C382 1.481 . S
C672 C226 1.481 . S
C677 C239 1.481 . S
C682 C395 1.481 . S
C687 C252 1.480 . S
C692 C408 1.481 . S
C697 C317 1.481 . S
C702 C265 1.481 . S
C707 C276 1.481 . S
C712 C330 1.481 . S
C717 C291 1.481 . S
C722 C343 1.481 . S
C727 C304 1.481 . S
C732 C356 1.481 . S
C737 C3 1.471 . S
C742 C135 1.470 . S
C747 C146 1.470 . S
C752 C18 1.471 . S
C757 C29 1.470 . S
C762 C109 1.471 . S
C767 C122 1.471 . S
C772 C42 1.470 . S
C777 C187 1.470 . S
C782 C57 1.471 . S
C787 C198 1.470 . S
C792 C68 1.471 . S
C797 C161 1.471 . S
C802 C83 1.470 . S
C807 C94 1.470 . S
C812 C172 1.471 . S
C817 C341 1.471 . S
C822 C211 1.471 . S
C827 C224 1.470 . S
C832 C354 1.471 . S
C837 C315 1.471 . S
C842 C237 1.471 . S
C847 C328 1.470 . S
C852 C250 1.471 . S
C857 C263 1.470 . S
C862 C393 1.471 . S
C867 C278 1.471 . S
C872 C406 1.470 . S
C877 C369 1.471 . S
C882 C289 1.470 . S
C887 C380 1.471 . S
C892 C302 1.470 . S
C897 C309 1.389 . S
C902 C10 1.389 . S
C907 C270 1.389 . S
C912 C17 1.389 . S
C917 C277 1.389 . S
C922 C36 1.389 . S
C927 C296 1.389 . S
C932 C49 1.389 . S
C937 C231 1.389 . S
C942 C56 1.389 . S
C947 C75 1.389 . S
C952 C244 1.389 . S
C957 C82 1.389 . S
C962 C257 1.388 . S
C967 C101 1.388 . S
C972 C218 1.389 . S
C977 C108 1.389 . S
C982 C413 1.388 . S
C987 C368 1.389 . S
C992 C121 1.389 . S
C997 C134 1.389 . S
C1002 C387 1.388 . S
C1007 C153 1.389 . S
C1012 C400 1.389 . S
C1017 C335 1.388 . S
C1022 C160 1.389 . S
C1027 C348 1.389 . S
C1032 C179 1.388 . S
C1037 C186 1.388 . S
C1042 C361 1.389 . S
C1047 C205 1.389 . S
C1052 C322 1.389 . S
