# Generated by pormake.
# Topology xfh, (7)-cn, num edge types: 1
# Building blocks:
#     Node 0, Type 0, BuildingBlock: HICVOG_clean_sbu_0, # of connection points: 7
#     Node 1, Type 0, BuildingBlock: HICVOG_clean_sbu_0, # of connection points: 7
#     Node 2, Type 0, BuildingBlock: HICVOG_clean_sbu_0, # of connection points: 7
#     Node 3, Type 0, BuildingBlock: HICVOG_clean_sbu_0, # of connection points: 7
#     Node 4, Type 0, BuildingBlock: HICVOG_clean_sbu_0, # of connection points: 7
#     Node 5, Type 0, BuildingBlock: HICVOG_clean_sbu_0, # of connection points: 7
#     Node 6, Type 0, BuildingBlock: HICVOG_clean_sbu_0, # of connection points: 7
#     Node 7, Type 0, BuildingBlock: HICVOG_clean_sbu_0, # of connection points: 7
#     Node 8, Type 0, BuildingBlock: HICVOG_clean_sbu_0, # of connection points: 7
#     Node 9, Type 0, BuildingBlock: HICVOG_clean_sbu_0, # of connection points: 7
#     Node 10, Type 0, BuildingBlock: HICVOG_clean_sbu_0, # of connection points: 7
#     Node 11, Type 0, BuildingBlock: HICVOG_clean_sbu_0, # of connection points: 7
#     Node 12, Type 0, BuildingBlock: HICVOG_clean_sbu_0, # of connection points: 7
#     Node 13, Type 0, BuildingBlock: HICVOG_clean_sbu_0, # of connection points: 7
#     Node 14, Type 0, BuildingBlock: HICVOG_clean_sbu_0, # of connection points: 7
#     Node 15, Type 0, BuildingBlock: HICVOG_clean_sbu_0, # of connection points: 7
#     Edge 16, Type (0, 0), BuildingBlock: KIFKEQ_clean_linker_1, # of connection points: 2
#     Edge 17, Type (0, 0), BuildingBlock: KIFKEQ_clean_linker_1, # of connection points: 2
#     Edge 18, Type (0, 0), BuildingBlock: KIFKEQ_clean_linker_1, # of connection points: 2
#     Edge 19, Type (0, 0), BuildingBlock: KIFKEQ_clean_linker_1, # of connection points: 2
#     Edge 20, Type (0, 0), BuildingBlock: KIFKEQ_clean_linker_1, # of connection points: 2
#     Edge 21, Type (0, 0), BuildingBlock: KIFKEQ_clean_linker_1, # of connection points: 2
#     Edge 22, Type (0, 0), BuildingBlock: KIFKEQ_clean_linker_1, # of connection points: 2
#     Edge 23, Type (0, 0), BuildingBlock: KIFKEQ_clean_linker_1, # of connection points: 2
#     Edge 24, Type (0, 0), BuildingBlock: KIFKEQ_clean_linker_1, # of connection points: 2
#     Edge 25, Type (0, 0), BuildingBlock: KIFKEQ_clean_linker_1, # of connection points: 2
#     Edge 26, Type (0, 0), BuildingBlock: KIFKEQ_clean_linker_1, # of connection points: 2
#     Edge 27, Type (0, 0), BuildingBlock: KIFKEQ_clean_linker_1, # of connection points: 2
#     Edge 28, Type (0, 0), BuildingBlock: KIFKEQ_clean_linker_1, # of connection points: 2
#     Edge 29, Type (0, 0), BuildingBlock: KIFKEQ_clean_linker_1, # of connection points: 2
#     Edge 30, Type (0, 0), BuildingBlock: KIFKEQ_clean_linker_1, # of connection points: 2
#     Edge 31, Type (0, 0), BuildingBlock: KIFKEQ_clean_linker_1, # of connection points: 2
#     Edge 32, Type (0, 0), BuildingBlock: KIFKEQ_clean_linker_1, # of connection points: 2
#     Edge 33, Type (0, 0), BuildingBlock: KIFKEQ_clean_linker_1, # of connection points: 2
#     Edge 34, Type (0, 0), BuildingBlock: KIFKEQ_clean_linker_1, # of connection points: 2
#     Edge 35, Type (0, 0), BuildingBlock: KIFKEQ_clean_linker_1, # of connection points: 2
#     Edge 36, Type (0, 0), BuildingBlock: KIFKEQ_clean_linker_1, # of connection points: 2
#     Edge 37, Type (0, 0), BuildingBlock: KIFKEQ_clean_linker_1, # of connection points: 2
#     Edge 38, Type (0, 0), BuildingBlock: KIFKEQ_clean_linker_1, # of connection points: 2
#     Edge 39, Type (0, 0), BuildingBlock: KIFKEQ_clean_linker_1, # of connection points: 2
#     Edge 40, Type (0, 0), BuildingBlock: KIFKEQ_clean_linker_1, # of connection points: 2
#     Edge 41, Type (0, 0), BuildingBlock: KIFKEQ_clean_linker_1, # of connection points: 2
#     Edge 42, Type (0, 0), BuildingBlock: KIFKEQ_clean_linker_1, # of connection points: 2
#     Edge 43, Type (0, 0), BuildingBlock: KIFKEQ_clean_linker_1, # of connection points: 2
#     Edge 44, Type (0, 0), BuildingBlock: KIFKEQ_clean_linker_1, # of connection points: 2
#     Edge 45, Type (0, 0), BuildingBlock: KIFKEQ_clean_linker_1, # of connection points: 2
#     Edge 46, Type (0, 0), BuildingBlock: KIFKEQ_clean_linker_1, # of connection points: 2
#     Edge 47, Type (0, 0), BuildingBlock: KIFKEQ_clean_linker_1, # of connection points: 2
#     Edge 48, Type (0, 0), BuildingBlock: KIFKEQ_clean_linker_1, # of connection points: 2
#     Edge 49, Type (0, 0), BuildingBlock: KIFKEQ_clean_linker_1, # of connection points: 2
#     Edge 50, Type (0, 0), BuildingBlock: KIFKEQ_clean_linker_1, # of connection points: 2
#     Edge 51, Type (0, 0), BuildingBlock: KIFKEQ_clean_linker_1, # of connection points: 2
#     Edge 52, Type (0, 0), BuildingBlock: KIFKEQ_clean_linker_1, # of connection points: 2
#     Edge 53, Type (0, 0), BuildingBlock: KIFKEQ_clean_linker_1, # of connection points: 2
#     Edge 54, Type (0, 0), BuildingBlock: KIFKEQ_clean_linker_1, # of connection points: 2
#     Edge 55, Type (0, 0), BuildingBlock: KIFKEQ_clean_linker_1, # of connection points: 2
#     Edge 56, Type (0, 0), BuildingBlock: KIFKEQ_clean_linker_1, # of connection points: 2
#     Edge 57, Type (0, 0), BuildingBlock: KIFKEQ_clean_linker_1, # of connection points: 2
#     Edge 58, Type (0, 0), BuildingBlock: KIFKEQ_clean_linker_1, # of connection points: 2
#     Edge 59, Type (0, 0), BuildingBlock: KIFKEQ_clean_linker_1, # of connection points: 2
#     Edge 60, Type (0, 0), BuildingBlock: KIFKEQ_clean_linker_1, # of connection points: 2
#     Edge 61, Type (0, 0), BuildingBlock: KIFKEQ_clean_linker_1, # of connection points: 2
#     Edge 62, Type (0, 0), BuildingBlock: KIFKEQ_clean_linker_1, # of connection points: 2
#     Edge 63, Type (0, 0), BuildingBlock: KIFKEQ_clean_linker_1, # of connection points: 2
#     Edge 64, Type (0, 0), BuildingBlock: KIFKEQ_clean_linker_1, # of connection points: 2
#     Edge 65, Type (0, 0), BuildingBlock: KIFKEQ_clean_linker_1, # of connection points: 2
#     Edge 66, Type (0, 0), BuildingBlock: KIFKEQ_clean_linker_1, # of connection points: 2
#     Edge 67, Type (0, 0), BuildingBlock: KIFKEQ_clean_linker_1, # of connection points: 2
#     Edge 68, Type (0, 0), BuildingBlock: KIFKEQ_clean_linker_1, # of connection points: 2
#     Edge 69, Type (0, 0), BuildingBlock: KIFKEQ_clean_linker_1, # of connection points: 2
#     Edge 70, Type (0, 0), BuildingBlock: KIFKEQ_clean_linker_1, # of connection points: 2
#     Edge 71, Type (0, 0), BuildingBlock: KIFKEQ_clean_linker_1, # of connection points: 2
# Relax obj value: 0.240
# Max RMSD: 0.229
# Mean RMSD: 0.229
data_MOF--net-xfh--node1-HICVOG_clean_sbu_0--edge1-KIFKEQ_clean_linker_1
_symmetry_space_group_name_H-M    P1
_symmetry_Int_Tables_number       1
_symmetry_cell_setting            triclinic
loop_
_symmetry_equiv_pos_as_xyz
'x, y, z'
_cell_length_a     30.853825
_cell_length_b     30.652494
_cell_length_c     66.768488
_cell_angle_alpha  89.86974
_cell_angle_beta   90.02657
_cell_angle_gamma 89.838257
loop_
_atom_site_label
_atom_site_type_symbol
_atom_site_fract_x
_atom_site_fract_y
_atom_site_fract_z
_atom_type_partial_charge
Zn0 Zn 0.3967 0.0648 0.08522 0.0
C1 C 0.45544 0.13312 0.04326 0.0
N2 N 0.48748 0.13613 0.05697 0.0
C3 C 0.4698 0.11956 0.0736 0.0
N4 N 0.42861 0.10762 0.07056 0.0
N5 N 0.41749 0.12039 0.05239 0.0
C6 C 0.32576 0.15232 0.01873 0.0
O7 O 0.31565 0.11461 0.02685 0.0
O8 O 0.41411 0.0644 0.11387 0.0
Zn9 Zn 0.36438 0.15982 0.05627 0.0
N10 N 0.40727 1.00823 0.07349 0.0
C11 C 0.44456 0.96015 0.05146 0.0
C12 C 0.43901 1.00153 0.05973 0.0
C13 C 0.38103 0.97527 0.07943 0.0
N14 N 0.41838 0.92705 0.05747 0.0
C15 C 0.38641 0.93343 0.07122 0.0
O16 O 0.30861 0.13062 0.06891 0.0
C17 C 0.30152 0.09711 0.0799 0.0
O18 O 0.33265 0.07309 0.08571 0.0
H19 H 0.46024 1.02788 0.05546 0.0
H20 H 0.35707 0.98177 0.09086 0.0
C21 C 0.34567 0.2392 0.08139 0.0
C22 C 0.35811 0.27512 0.09357 0.0
C23 C 0.43193 0.2574 0.08747 0.0
C24 C 0.41958 0.22275 0.07535 0.0
N25 N 0.37697 0.21312 0.0728 0.0
N26 N 0.40118 0.28245 0.09627 0.0
H27 H 0.31177 0.23184 0.07905 0.0
C28 C 0.41204 0.09903 0.1242 0.0
O29 O 0.39857 0.13538 0.11575 0.0
O30 O 0.34749 0.17951 0.02888 0.0
H31 H 0.4441 0.20387 0.06797 0.0
H32 H 0.46975 0.95426 0.04053 0.0
H33 H 0.46588 0.26462 0.08974 0.0
Zn34 Zn 0.69097 0.62336 0.30664 0.0
C35 C 0.75473 0.72015 0.32484 0.0
N36 N 0.73816 0.74353 0.30978 0.0
C37 C 0.72917 0.71344 0.29568 0.0
N38 N 0.73626 0.67197 0.3032 0.0
N39 N 0.75555 0.67753 0.32065 0.0
C40 C 0.77596 0.66087 0.37284 0.0
O41 O 0.73678 0.65269 0.36611 0.0
O42 O 0.67073 0.60833 0.27917 0.0
Zn43 Zn 0.79114 0.6351 0.33394 0.0
N44 N 0.64004 0.64345 0.32287 0.0
C45 C 0.60486 0.70443 0.33792 0.0
C46 C 0.63841 0.68698 0.32661 0.0
C47 C 0.60833 0.61628 0.33031 0.0
N48 N 0.5734 0.67785 0.34499 0.0
C49 C 0.57342 0.63406 0.34164 0.0
O50 O 0.76521 0.57795 0.33973 0.0
C51 C 0.73688 0.55158 0.33352 0.0
O52 O 0.70967 0.56289 0.31997 0.0
H53 H 0.66288 0.70836 0.32083 0.0
H54 H 0.60976 0.58172 0.32712 0.0
C55 C 0.87653 0.60644 0.32673 0.0
C56 C 0.91171 0.59238 0.31513 0.0
C57 C 0.87372 0.61213 0.28568 0.0
C58 C 0.83794 0.62401 0.29727 0.0
N59 N 0.84066 0.62231 0.31756 0.0
N60 N 0.90982 0.59634 0.29486 0.0
H61 H 0.87702 0.60362 0.3429 0.0
C62 C 0.69665 0.58403 0.26951 0.0
O63 O 0.73301 0.57167 0.27811 0.0
O64 O 0.80796 0.6565 0.36105 0.0
H65 H 0.80788 0.63307 0.29018 0.0
H66 H 0.60355 0.73907 0.34094 0.0
H67 H 0.87226 0.61402 0.26952 0.0
Zn68 Zn 0.20373 1.04505 0.58689 0.0
C69 C 0.13639 0.97678 0.54767 0.0
N70 N 0.106 0.97813 0.56223 0.0
C71 C 0.12706 0.99463 0.57793 0.0
N72 N 0.1685 1.00303 0.5735 0.0
N73 N 0.17628 0.98833 0.55529 0.0
C74 C 0.26718 0.95623 0.5205 0.0
O75 O 0.27737 0.9937 0.52876 0.0
O76 O 0.18341 1.05214 0.61486 0.0
Zn77 Zn 0.22898 0.948 0.55807 0.0
N78 N 0.19926 0.09992 0.5729 0.0
C79 C 0.16797 0.14662 0.54829 0.0
C80 C 0.17025 0.10617 0.55784 0.0
C81 C 0.22612 0.13235 0.5788 0.0
N82 N 0.19449 0.17933 0.55436 0.0
C83 C 0.22386 0.17326 0.56934 0.0
O84 O 0.2862 0.97439 0.57084 0.0
C85 C 0.29547 1.00465 0.58332 0.0
O86 O 0.26635 1.03029 0.58974 0.0
H87 H 0.14851 0.0803 0.55359 0.0
H88 H 0.24791 0.12641 0.59122 0.0
C89 C 0.24722 0.86746 0.58236 0.0
C90 C 0.23499 0.83204 0.59494 0.0
C91 C 0.16121 0.85243 0.59065 0.0
C92 C 0.17333 0.8868 0.57824 0.0
N93 N 0.2159 0.89468 0.57451 0.0
N94 N 0.19207 0.82622 0.5987 0.0
H95 H 0.28104 0.87374 0.57923 0.0
C96 C 0.18433 1.01848 0.62595 0.0
O97 O 0.19803 0.98133 0.61843 0.0
O98 O 0.24495 0.92905 0.53049 0.0
H99 H 0.14866 0.90705 0.57171 0.0
H100 H 0.14485 0.15218 0.53636 0.0
H101 H 0.12736 0.84652 0.59384 0.0
Zn102 Zn 0.80887 0.4675 0.8347 0.0
C103 C 0.87148 0.39902 0.79423 0.0
N104 N 0.87207 0.36796 0.80861 0.0
C105 C 0.85808 0.38891 0.82493 0.0
N106 N 0.84956 0.43088 0.82105 0.0
N107 N 0.86252 0.43913 0.80265 0.0
C108 C 0.8968 0.5336 0.76984 0.0
O109 O 0.86091 0.54609 0.77876 0.0
O110 O 0.79756 0.4445 0.86201 0.0
Zn111 Zn 0.90527 0.48981 0.80633 0.0
N112 N 0.75658 0.47152 0.81905 0.0
C113 C 0.72147 0.48388 0.78782 0.0
C114 C 0.75928 0.47875 0.799 0.0
C115 C 0.71773 0.47101 0.82853 0.0
N116 N 0.68258 0.48387 0.7973 0.0
C117 C 0.67946 0.47779 0.81747 0.0
O118 O 0.88348 0.54763 0.82088 0.0
C119 C 0.85448 0.55665 0.83396 0.0
O120 O 0.82775 0.52798 0.83966 0.0
H121 H 0.79053 0.48085 0.79178 0.0
H122 H 0.71731 0.46794 0.84466 0.0
C123 C 0.98832 0.49995 0.8294 0.0
C124 C 1.02719 0.48364 0.83815 0.0
C125 C 1.00506 0.4117 0.82977 0.0
C126 C 0.96782 0.42794 0.8207 0.0
N127 N 0.95945 0.47148 0.82069 0.0
N128 N 1.03374 0.43971 0.83804 0.0
H129 H 0.98197 0.53466 0.82887 0.0
C130 C 0.83064 0.44452 0.87332 0.0
O131 O 0.86785 0.45815 0.86608 0.0
O132 O 0.92255 0.50817 0.77901 0.0
H133 H 0.94629 0.40572 0.81336 0.0
H134 H 0.72307 0.48915 0.77181 0.0
H135 H 1.01167 0.37702 0.82985 0.0
Zn136 Zn 0.7099 0.05588 0.90151 0.0
C137 C 0.63808 0.98318 0.93758 0.0
N138 N 0.60855 0.9894 0.92289 0.0
C139 C 0.63108 1.00875 0.90837 0.0
N140 N 0.67261 1.01379 0.91347 0.0
N141 N 0.67896 0.99434 0.93089 0.0
C142 C 0.76962 0.9603 0.96483 0.0
O143 O 0.78035 0.99751 0.9564 0.0
O144 O 0.6918 0.06647 0.87321 0.0
Zn145 Zn 0.73078 0.95249 0.92739 0.0
N146 N 0.7079 0.10901 0.91679 0.0
C147 C 0.68086 0.15342 0.9432 0.0
C148 C 0.68152 0.11381 0.93294 0.0
C149 C 0.73389 0.14189 0.9106 0.0
N150 N 0.7064 0.18669 0.9368 0.0
C151 C 0.73331 0.18186 0.92079 0.0
O152 O 0.78888 0.97673 0.91401 0.0
C153 C 0.79892 1.00948 0.90299 0.0
O154 O 0.77084 1.03801 0.89849 0.0
H155 H 0.66047 0.08756 0.93746 0.0
H156 H 0.75363 0.13711 0.89738 0.0
C157 C 0.74466 0.86846 0.90503 0.0
C158 C 0.73004 0.83134 0.89423 0.0
C159 C 0.65814 0.85905 0.89604 0.0
C160 C 0.67249 0.89489 0.90686 0.0
N161 N 0.7152 0.89937 0.91137 0.0
N162 N 0.68694 0.82824 0.89018 0.0
H163 H 0.77859 0.87204 0.90877 0.0
C164 C 0.69256 1.03311 0.86197 0.0
O165 O 0.70446 0.99536 0.86961 0.0
O166 O 0.74713 0.93326 0.95494 0.0
H167 H 0.64932 0.91873 0.9117 0.0
H168 H 0.65973 0.1579 0.95596 0.0
H169 H 0.62412 0.85544 0.8925 0.0
Zn170 Zn 0.41187 0.48718 0.67816 0.0
C171 C 0.36497 0.38523 0.65855 0.0
N172 N 0.37826 0.3642 0.67504 0.0
C173 C 0.37878 0.39544 0.68927 0.0
N174 N 0.37056 0.43553 0.68063 0.0
N175 N 0.35808 0.42762 0.66213 0.0
C176 C 0.33685 0.43954 0.60899 0.0
O177 O 0.37494 0.454 0.61472 0.0
O178 O 0.43025 0.50228 0.70589 0.0
Zn179 Zn 0.31873 0.46545 0.64813 0.0
N180 N 0.46473 0.47216 0.66206 0.0
C181 C 0.50657 0.41507 0.64736 0.0
C182 C 0.47253 0.42889 0.65946 0.0
C183 C 0.49169 0.50258 0.65341 0.0
N184 N 0.53254 0.44501 0.6385 0.0
C185 C 0.52679 0.48863 0.64116 0.0
O186 O 0.33856 0.52601 0.64268 0.0
C187 C 0.36206 0.55502 0.65066 0.0
O188 O 0.38744 0.54565 0.66526 0.0
H189 H 0.45241 0.405 0.66669 0.0
H190 H 0.48549 0.53698 0.65567 0.0
C191 C 0.22779 0.4733 0.65508 0.0
C192 C 0.19039 0.48143 0.66658 0.0
C193 C 0.234 0.4843 0.69583 0.0
C194 C 0.27096 0.47778 0.68425 0.0
N195 N 0.26707 0.4715 0.66419 0.0
N196 N 0.19474 0.4865 0.68673 0.0
H197 H 0.22643 0.47084 0.63894 0.0
C198 C 0.40386 0.52606 0.71555 0.0
O199 O 0.36773 0.53859 0.7068 0.0
O200 O 0.30539 0.44085 0.62122 0.0
H201 H 0.3025 0.47822 0.69123 0.0
H202 H 0.51244 0.38064 0.64504 0.0
H203 H 0.23658 0.48886 0.71185 0.0
Zn204 Zn 0.8605 0.16151 0.43068 0.0
C205 C 0.96265 0.11467 0.41266 0.0
N206 N 0.98229 0.13019 0.42901 0.0
C207 C 0.95095 0.12945 0.44309 0.0
N208 N 0.91175 0.11937 0.43433 0.0
N209 N 0.92093 0.10569 0.41613 0.0
C210 C 0.90967 0.08882 0.36332 0.0
O211 O 0.89704 0.12654 0.37064 0.0
O212 O 0.84125 0.17819 0.45793 0.0
Zn213 Zn 0.88516 0.06527 0.4018 0.0
N214 N 0.87706 0.21657 0.41641 0.0
C215 C 0.93456 0.2647 0.40756 0.0
C216 C 0.91998 0.22638 0.41643 0.0
C217 C 0.84766 0.24476 0.40772 0.0
N218 N 0.90558 0.29279 0.39936 0.0
C219 C 0.86226 0.28456 0.3991 0.0
O220 O 0.82482 0.08416 0.39668 0.0
C221 C 0.79578 0.11033 0.40263 0.0
O222 O 0.804 0.1389 0.41603 0.0
H223 H 0.94293 0.2051 0.4236 0.0
H224 H 0.81344 0.23716 0.40816 0.0
C225 C 0.8821 0.97298 0.40713 0.0
C226 C 0.87565 0.93405 0.41794 0.0
C227 C 0.86953 0.97533 0.44787 0.0
C228 C 0.87431 1.01376 0.43693 0.0
N229 N 0.88143 1.01176 0.41688 0.0
N230 N 0.86976 0.93653 0.43813 0.0
H231 H 0.88512 0.97311 0.391 0.0
C232 C 0.81672 0.15146 0.46695 0.0
O233 O 0.8062 0.11479 0.45804 0.0
O234 O 0.90853 0.05526 0.37447 0.0
H235 H 0.87195 1.04497 0.44434 0.0
H236 H 0.96872 0.27256 0.40755 0.0
H237 H 0.86437 0.97637 0.46388 0.0
Zn238 Zn 0.28362 0.63864 0.14902 0.0
C239 C 0.22417 0.71227 0.18954 0.0
N240 N 0.22754 0.74306 0.17516 0.0
C241 C 0.24161 0.72102 0.15919 0.0
N242 N 0.24677 0.67856 0.16327 0.0
N243 N 0.23243 0.67153 0.1816 0.0
C244 C 0.19976 0.57921 0.21594 0.0
O245 O 0.23638 0.56861 0.20713 0.0
O246 O 0.29749 0.6623 0.12197 0.0
Zn247 Zn 0.1901 0.62056 0.17915 0.0
N248 N 0.33543 0.62895 0.16444 0.0
C249 C 0.37214 0.62046 0.1956 0.0
C250 C 0.33443 0.62943 0.18479 0.0
C251 C 0.37178 0.61698 0.15449 0.0
N252 N 0.4086 0.60839 0.18564 0.0
C253 C 0.40909 0.60558 0.16532 0.0
O254 O 0.21148 0.5616 0.16568 0.0
C255 C 0.23631 0.55141 0.15105 0.0
O256 O 0.26107 0.57949 0.14321 0.0
H257 H 0.30445 0.63548 0.19256 0.0
H258 H 0.37106 0.61496 0.13831 0.0
C259 C 0.10727 0.60891 0.15627 0.0
C260 C 0.06889 0.62466 0.14691 0.0
C261 C 0.09178 0.6972 0.15357 0.0
C262 C 0.12873 0.6816 0.16312 0.0
N263 N 0.13632 0.63798 0.16438 0.0
N264 N 0.06284 0.66861 0.14592 0.0
H265 H 0.11319 0.57422 0.15766 0.0
C266 C 0.26512 0.66546 0.11031 0.0
O267 O 0.22657 0.6546 0.11703 0.0
O268 O 0.17302 0.60353 0.20673 0.0
H269 H 0.1508 0.70442 0.16973 0.0
H270 H 0.372 0.62151 0.21179 0.0
H271 H 0.08569 0.73191 0.15254 0.0
Zn272 Zn 0.88907 0.56041 0.58423 0.0
C273 C 0.96326 0.63044 0.54799 0.0
N274 N 0.99233 0.6245 0.56288 0.0
C275 C 0.96927 0.60612 0.57749 0.0
N276 N 0.92775 0.60129 0.5722 0.0
N277 N 0.92218 0.61994 0.55454 0.0
C278 C 0.83457 0.65338 0.51922 0.0
O279 O 0.82284 0.61667 0.52783 0.0
O280 O 0.90693 0.55072 0.61246 0.0
Zn281 Zn 0.87115 0.66248 0.55705 0.0
N282 N 0.89062 0.5067 0.56931 0.0
C283 C 0.91704 0.46182 0.54295 0.0
C284 C 0.91696 0.50144 0.55319 0.0
C285 C 0.86418 0.4742 0.57555 0.0
N286 N 0.89097 0.42898 0.54935 0.0
C287 C 0.86414 0.43418 0.56536 0.0
O288 O 0.8124 0.63917 0.5698 0.0
C289 C 0.8008 0.60771 0.58126 0.0
O290 O 0.82776 0.57898 0.58687 0.0
H291 H 0.93829 0.52741 0.5486 0.0
H292 H 0.8445 0.47936 0.58875 0.0
C293 C 0.85725 0.74614 0.57981 0.0
C294 C 0.87214 0.7843 0.58973 0.0
C295 C 0.9446 0.75966 0.58534 0.0
C296 C 0.92995 0.72283 0.57535 0.0
N297 N 0.8868 0.71627 0.57258 0.0
N298 N 0.91563 0.78941 0.59207 0.0
H299 H 0.82296 0.74103 0.57739 0.0
C300 C 0.90652 0.58475 0.62326 0.0
O301 O 0.89516 0.6222 0.61516 0.0
O302 O 0.85672 0.68059 0.52916 0.0
H303 H 0.95323 0.70002 0.56965 0.0
H304 H 0.93808 0.45699 0.53018 0.0
H305 H 0.97894 0.76493 0.58749 0.0
Zn306 Zn 0.19231 0.12232 0.80713 0.0
C307 C 0.25378 0.21992 0.82468 0.0
N308 N 0.23667 0.24308 0.80968 0.0
C309 C 0.22847 0.21293 0.79547 0.0
N310 N 0.23656 0.17155 0.80288 0.0
N311 N 0.25558 0.17743 0.82037 0.0
C312 C 0.27467 0.15937 0.872 0.0
O313 O 0.23651 0.14937 0.86458 0.0
O314 O 0.17096 0.10562 0.78017 0.0
Zn315 Zn 0.29456 0.13732 0.83294 0.0
N316 N 0.14153 0.14124 0.82377 0.0
C317 C 0.10598 0.20115 0.83954 0.0
C318 C 0.13974 0.1845 0.82809 0.0
C319 C 0.10981 0.11354 0.83077 0.0
N320 N 0.07445 0.17408 0.84613 0.0
C321 C 0.07469 0.13052 0.8422 0.0
O322 O 0.27395 0.07707 0.83713 0.0
C323 C 0.24463 1.05071 0.83192 0.0
O324 O 0.2139 0.06285 0.82025 0.0
H325 H 0.1642 0.20629 0.82262 0.0
H326 H 0.11129 0.07921 0.8271 0.0
C327 C 0.38491 0.13514 0.82539 0.0
C328 C 0.42237 0.1301 0.81365 0.0
C329 C 0.37828 0.12396 0.78468 0.0
C330 C 0.34126 0.12783 0.79652 0.0
N331 N 0.34545 0.13385 0.81657 0.0
N332 N 0.41792 0.12458 0.79352 0.0
H333 H 0.38656 0.13777 0.84152 0.0
C334 C 0.19677 0.081 0.77062 0.0
O335 O 0.23391 0.07013 0.77891 0.0
O336 O 0.30771 0.15732 0.8607 0.0
H337 H 0.30942 0.12529 0.78989 0.0
H338 H 0.10453 0.23559 0.843 0.0
H339 H 0.37552 0.11929 0.76868 0.0
Zn340 Zn 0.71188 0.54105 0.08513 0.0
C341 C 0.64511 0.47872 0.0436 0.0
N342 N 0.61423 0.47666 0.05788 0.0
C343 C 0.63409 0.49176 0.07426 0.0
N344 N 0.67555 0.50152 0.07062 0.0
N345 N 0.68445 0.48865 0.05228 0.0
C346 C 0.77763 0.45221 0.01896 0.0
O347 O 0.79056 0.4886 0.0274 0.0
O348 O 0.68821 0.55263 0.11238 0.0
Zn349 Zn 0.73587 0.44685 0.05577 0.0
N350 N 0.7182 0.59452 0.0701 0.0
C351 C 0.72024 0.63484 0.03957 0.0
C352 C 0.71358 0.59575 0.04985 0.0
C353 C 0.73195 0.63005 0.0803 0.0
N354 N 0.73405 0.67044 0.04979 0.0
C355 C 0.74094 0.6688 0.0699 0.0
O356 O 0.79354 0.47047 0.06921 0.0
C357 C 0.80121 0.49672 0.08365 0.0
O358 O 0.77159 0.52099 0.09058 0.0
H359 H 0.70576 0.5666 0.04165 0.0
H360 H 0.73696 0.62761 0.09631 0.0
C361 C 0.75126 0.36771 0.0808 0.0
C362 C 0.73806 0.33174 0.09277 0.0
C363 C 0.66464 0.34971 0.08569 0.0
C364 C 0.67779 0.38456 0.07379 0.0
N365 N 0.7206 0.3939 0.0718 0.0
N366 N 0.69482 0.32444 0.09488 0.0
H367 H 0.78529 0.37512 0.07894 0.0
C368 C 0.68651 0.51996 0.12408 0.0
O369 O 0.69869 0.48154 0.11738 0.0
O370 O 0.7524 0.42714 0.02854 0.0
H371 H 0.65381 0.4039 0.06617 0.0
H372 H 0.71586 0.63648 0.02351 0.0
H373 H 0.63055 0.34258 0.08753 0.0
Zn374 Zn 0.31389 0.96742 0.33628 0.0
C375 C 0.3732 0.89904 0.29462 0.0
N376 N 0.37497 0.86799 0.309 0.0
C377 C 0.36205 0.88869 0.32558 0.0
N378 N 0.3534 0.93072 0.32186 0.0
N379 N 0.36487 0.93905 0.30325 0.0
C380 C 0.39524 1.03521 0.26956 0.0
O381 O 0.35923 1.04625 0.27877 0.0
O382 O 0.3024 0.94338 0.36354 0.0
Zn383 Zn 0.40697 0.99034 0.30585 0.0
N384 N 0.26059 0.97334 0.32138 0.0
C385 C 0.21938 0.97364 0.2912 0.0
C386 C 0.25866 0.96763 0.30121 0.0
C387 C 0.22547 0.98728 0.33174 0.0
N388 N 0.18417 0.98764 0.30159 0.0
C389 C 0.18645 0.99544 0.32161 0.0
O390 O 0.386 1.04769 0.32087 0.0
C391 C 0.35931 0.05648 0.33499 0.0
O392 O 0.33382 1.02763 0.34167 0.0
H393 H 0.28734 0.95927 0.29286 0.0
H394 H 0.22837 0.99285 0.34769 0.0
C395 C 0.49068 1.00075 0.32826 0.0
C396 C 0.53053 0.98479 0.33615 0.0
C397 C 0.5105 0.91328 0.32602 0.0
C398 C 0.47225 0.92926 0.3178 0.0
N399 N 0.46239 0.97239 0.3191 0.0
N400 N 0.53859 0.94122 0.33476 0.0
H401 H 0.48306 1.0352 0.32875 0.0
C402 C 0.33464 0.94229 0.37535 0.0
O403 O 0.37269 0.95501 0.36873 0.0
O404 O 0.42176 1.00978 0.27828 0.0
H405 H 0.45106 0.90725 0.31009 0.0
H406 H 0.2172 0.96843 0.27522 0.0
H407 H 0.51834 0.87892 0.32507 0.0
Zn408 Zn 0.23624 0.45233 0.43016 0.0
C409 C 0.13102 0.49226 0.41168 0.0
N410 N 0.11262 0.47794 0.42856 0.0
C411 C 0.14483 0.48068 0.44223 0.0
N412 N 0.18311 0.49209 0.43299 0.0
N413 N 0.17247 0.50316 0.41455 0.0
C414 C 0.18489 0.51305 0.36072 0.0
O415 O 0.19939 0.47654 0.36865 0.0
O416 O 0.2511 0.43595 0.45813 0.0
Zn417 Zn 0.20434 0.54475 0.39942 0.0
N418 N 0.22218 0.39658 0.41556 0.0
C419 C 0.16497 0.34863 0.40609 0.0
C420 C 0.17928 0.38671 0.41512 0.0
C421 C 0.25197 0.36813 0.40735 0.0
N422 N 0.19421 0.32039 0.39836 0.0
C423 C 0.23757 0.32825 0.39871 0.0
O424 O 0.26712 0.53196 0.3971 0.0
C425 C 0.29859 0.5089 0.40328 0.0
O426 O 0.2926 0.47903 0.41647 0.0
H427 H 0.15602 0.40764 0.42213 0.0
H428 H 0.2862 0.37548 0.4082 0.0
C429 C 0.2253 0.63329 0.40596 0.0
C430 C 0.22184 0.67497 0.41457 0.0
C431 C 0.1634 0.64976 0.43456 0.0
C432 C 0.16681 0.60867 0.4258 0.0
N433 N 0.19783 0.60122 0.41177 0.0
N434 N 0.19069 0.68199 0.42866 0.0
H435 H 0.24853 0.62634 0.39426 0.0
C436 C 0.28184 0.41104 0.46358 0.0
O437 O 0.3079 0.39422 0.45008 0.0
O438 O 0.18351 0.54727 0.37135 0.0
H439 H 0.14452 0.58312 0.42992 0.0
H440 H 0.13077 0.34095 0.40568 0.0
H441 H 0.13886 0.65618 0.44574 0.0
Zn442 Zn 0.91158 0.99083 0.18031 0.0
C443 C 0.86463 0.89165 0.15978 0.0
N444 N 0.87791 0.87013 0.17615 0.0
C445 C 0.87663 0.90053 0.19072 0.0
N446 N 0.86847 0.94086 0.18238 0.0
N447 N 0.85648 0.93365 0.16376 0.0
C448 C 0.83591 0.94757 0.11048 0.0
O449 O 0.87478 0.95797 0.11694 0.0
O450 O 0.92744 1.0067 0.20814 0.0
Zn451 Zn 0.81871 0.973 0.14964 0.0
N452 N 0.96599 0.97202 0.16656 0.0
C453 C 1.01421 0.9123 0.16128 0.0
C454 C 0.97745 0.92991 0.17019 0.0
C455 C 0.99173 0.99814 0.15472 0.0
N456 N 1.0391 0.9377 0.14934 0.0
C457 C 1.02966 0.98041 0.14573 0.0
O458 O 0.84169 1.03197 0.14389 0.0
C459 C 0.8665 0.05992 0.15176 0.0
O460 O 0.8911 1.04975 0.16651 0.0
H461 H 0.95841 0.91001 0.18013 0.0
H462 H 0.98267 1.03182 0.15218 0.0
C463 C 0.73279 1.00107 0.15568 0.0
C464 C 0.69581 1.01339 0.16654 0.0
C465 C 0.72912 0.98825 0.19637 0.0
C466 C 0.76649 0.97788 0.18563 0.0
N467 N 0.76717 0.98333 0.1654 0.0
N468 N 0.69465 1.00589 0.18662 0.0
H469 H 0.73475 1.00614 0.13966 0.0
C470 C 0.90119 1.03133 0.2174 0.0
O471 O 0.86555 1.04421 0.20833 0.0
O472 O 0.80409 0.95019 0.12248 0.0
H473 H 0.79479 0.96654 0.1935 0.0
H474 H 1.02317 0.87864 0.16396 0.0
H475 H 0.72793 0.98339 0.21241 0.0
Zn476 Zn 0.38429 0.5579 0.90098 0.0
C477 C 0.45618 0.6259 0.93901 0.0
N478 N 0.48679 0.61918 0.9249 0.0
C479 C 0.46496 0.60104 0.90982 0.0
N480 N 0.42278 0.5974 0.914 0.0
N481 N 0.41568 0.61622 0.93144 0.0
C482 C 0.32616 0.65498 0.96502 0.0
O483 O 0.31421 0.61785 0.95694 0.0
O484 O 0.40518 0.54626 0.87326 0.0
Zn485 Zn 0.36503 0.65898 0.92778 0.0
N486 N 0.38183 0.50542 0.91666 0.0
C487 C 0.37341 0.47016 0.94816 0.0
C488 C 0.37646 0.50823 0.93679 0.0
C489 C 0.38307 0.46629 0.90729 0.0
N490 N 0.37403 0.43089 0.93878 0.0
C491 C 0.37873 0.42775 0.91855 0.0
O492 O 0.30629 0.63578 0.91511 0.0
C493 C 0.29622 0.60573 0.90268 0.0
O494 O 0.3241 0.57812 0.89694 0.0
H495 H 0.37383 0.53979 0.94387 0.0
H496 H 0.3851 0.46574 0.89112 0.0
C497 C 0.35084 0.73909 0.9031 0.0
C498 C 0.36391 0.7721 0.8894 0.0
C499 C 0.43616 0.74533 0.89157 0.0
C500 C 0.42317 0.71312 0.90498 0.0
N501 N 0.38087 0.70981 0.91041 0.0
N502 N 0.40645 0.77365 0.88408 0.0
H503 H 0.31719 0.73605 0.90743 0.0
C504 C 0.4074 0.57961 0.86201 0.0
O505 O 0.39681 0.61795 0.86934 0.0
O506 O 0.3499 0.68069 0.95497 0.0
H507 H 0.44683 0.69066 0.91081 0.0
H508 H 0.36934 0.47181 0.96423 0.0
H509 H 0.46974 0.74773 0.88704 0.0
Zn510 Zn 0.79069 0.1492 0.65191 0.0
C511 C 0.71792 0.21486 0.68986 0.0
N512 N 0.71945 0.24576 0.67539 0.0
C513 C 0.73817 0.22523 0.66004 0.0
N514 N 0.74727 0.1837 0.66453 0.0
N515 N 0.73043 0.17501 0.68222 0.0
C516 C 0.69757 0.08577 0.71521 0.0
O517 O 0.7358 0.07821 0.70725 0.0
O518 O 0.79547 0.16645 0.62338 0.0
Zn519 Zn 0.68991 0.12264 0.67768 0.0
N520 N 0.84528 0.15715 0.66537 0.0
C521 C 0.89149 0.19084 0.68926 0.0
C522 C 0.85116 0.18743 0.67994 0.0
C523 C 0.87787 0.13009 0.65977 0.0
N524 N 0.92433 0.164 0.68352 0.0
C525 C 0.91858 0.13329 0.66905 0.0
O526 O 0.71793 0.06513 0.66536 0.0
C527 C 0.75283 0.05597 0.65584 0.0
O528 O 0.77947 0.08569 0.65121 0.0
H529 H 0.82501 0.2091 0.68404 0.0
H530 H 0.87206 0.1072 0.64776 0.0
C531 C 0.60985 0.10618 0.65298 0.0
C532 C 0.57611 0.11916 0.63966 0.0
C533 C 0.60028 0.1924 0.64232 0.0
C534 C 0.63291 0.1796 0.65547 0.0
N535 N 0.63822 0.13686 0.66036 0.0
N536 N 0.57301 0.16212 0.63472 0.0
H537 H 0.61393 0.07221 0.65703 0.0
C538 C 0.76139 0.16364 0.61282 0.0
O539 O 0.72536 0.14983 0.62117 0.0
O540 O 0.66918 0.10567 0.70487 0.0
H541 H 0.65384 0.20389 0.66166 0.0
H542 H 0.8968 0.21494 0.70081 0.0
H543 H 0.59652 0.22636 0.63821 0.0
H544 H 0.24914 0.52711 0.11241 0.0
H545 H 0.23383 0.47262 0.17156 0.0
H546 H 0.26884 0.45557 0.09942 0.0
H547 H 0.25413 0.40033 0.15851 0.0
H548 H 0.36201 0.30637 0.13157 0.0
H549 H 0.32311 0.36822 0.14591 0.0
H550 H 0.24714 0.37954 0.09187 0.0
H551 H 0.28625 0.31698 0.07753 0.0
C552 C 0.24903 0.49954 0.1226 0.0
C553 C 0.2397 0.50581 0.14307 0.0
C554 C 0.26026 0.45829 0.11509 0.0
C555 C 0.26336 0.42179 0.12783 0.0
C556 C 0.25237 0.42762 0.14821 0.0
C557 C 0.24028 0.46901 0.1557 0.0
C558 C 0.33617 0.32125 0.12292 0.0
C559 C 0.32719 0.30633 0.1034 0.0
C560 C 0.3137 0.35683 0.1312 0.0
C561 C 0.28195 0.37939 0.12011 0.0
C562 C 0.27155 0.36329 0.10087 0.0
C563 C 0.29363 0.32704 0.09269 0.0
H564 H 0.31284 0.54615 0.36711 0.0
H565 H 0.38292 0.49202 0.41738 0.0
H566 H 0.38003 0.56942 0.352 0.0
H567 H 0.45167 0.51642 0.40197 0.0
H568 H 0.56865 0.54766 0.35582 0.0
H569 H 0.50504 0.51137 0.3709 0.0
H570 H 0.42935 0.62805 0.36115 0.0
H571 H 0.49126 0.66337 0.34614 0.0
C572 C 0.3427 0.53903 0.37503 0.0
C573 C 0.34194 0.51776 0.39378 0.0
C574 C 0.38153 0.55256 0.36627 0.0
C575 C 0.42155 0.54574 0.37585 0.0
C576 C 0.42149 0.52233 0.39412 0.0
C577 C 0.38207 0.50842 0.403 0.0
C578 C 0.53821 0.56522 0.35665 0.0
C579 C 0.53535 0.60855 0.34952 0.0
C580 C 0.50186 0.54459 0.36554 0.0
C581 C 0.46171 0.56658 0.36721 0.0
C582 C 0.45925 0.60962 0.35996 0.0
C583 C 0.49516 0.63009 0.35135 0.0
H584 H 0.30549 0.78982 0.57788 0.0
H585 H 0.23302 0.79977 0.63287 0.0
H586 H 0.34541 0.72708 0.59169 0.0
H587 H 0.27272 0.73771 0.64666 0.0
H588 H 0.36443 0.63366 0.67117 0.0
H589 H 0.34259 0.70586 0.65839 0.0
H590 H 0.32444 0.65095 0.59954 0.0
H591 H 0.34571 0.57953 0.61226 0.0
C592 C 0.29894 0.77952 0.5931 0.0
C593 C 0.26606 0.8001 0.60424 0.0
C594 C 0.32151 0.74319 0.60099 0.0
C595 C 0.31231 0.72689 0.62035 0.0
C596 C 0.2812 0.74926 0.63184 0.0
C597 C 0.25824 0.78492 0.62386 0.0
C598 C 0.35678 0.63731 0.65542 0.0
C599 C 0.35687 0.60062 0.64279 0.0
C600 C 0.34385 0.67865 0.64809 0.0
C601 C 0.33151 0.68454 0.62786 0.0
C602 C 0.33403 0.64817 0.61509 0.0
C603 C 0.34611 0.60697 0.62246 0.0
H604 H 0.27973 0.59514 0.86345 0.0
H605 H 0.21404 0.60702 0.92014 0.0
H606 H 0.21229 0.57427 0.84738 0.0
H607 H 0.14554 0.58477 0.90396 0.0
H608 H 1.02351 0.55963 0.86144 0.0
H609 H 0.08518 0.59773 0.87727 0.0
H610 H 0.1733 0.50614 0.84979 0.0
H611 H 0.11302 0.46916 0.83419 0.0
C612 C 0.25052 0.59404 0.87245 0.0
C613 C 0.25247 0.60264 0.89312 0.0
C614 C 0.21173 0.58169 0.86324 0.0
C615 C 0.17332 0.57677 0.87436 0.0
C616 C 0.17437 0.58821 0.89486 0.0
C617 C 0.2136 0.60107 0.90416 0.0
C618 C 0.05618 0.54829 0.85854 0.0
C619 C 0.06312 0.51136 0.84637 0.0
C620 C 0.09151 0.5698 0.8678 0.0
C621 C 0.13455 0.55534 0.86478 0.0
C622 C 0.14101 0.51894 0.85232 0.0
C623 C 0.10614 0.49743 0.84338 0.0
H624 H 0.86183 0.64009 0.81734 0.0
H625 H 0.83602 0.57247 0.87274 0.0
H626 H 0.83899 0.70931 0.83308 0.0
H627 H 0.81436 0.64053 0.88835 0.0
H628 H 0.71171 0.74576 0.89776 0.0
H629 H 0.74917 0.68345 0.88362 0.0
H630 H 0.84899 0.76821 0.86061 0.0
H631 H 0.81057 0.83173 0.87501 0.0
C632 C 0.85256 0.64013 0.83298 0.0
C633 C 0.85041 0.60052 0.84369 0.0
C634 C 0.83937 0.6798 0.84203 0.0
C635 C 0.82387 0.68062 0.86195 0.0
C636 C 0.82495 0.64135 0.87289 0.0
C637 C 0.83771 0.60215 0.86392 0.0
C638 C 0.74202 0.75132 0.88998 0.0
C639 C 0.75822 0.79391 0.88779 0.0
C640 C 0.76371 0.71535 0.88185 0.0
C641 C 0.80246 0.72035 0.87097 0.0
C642 C 0.81922 0.76298 0.86884 0.0
C643 C 0.79753 0.79935 0.87732 0.0
H644 H 0.55689 0.48365 0.60296 0.0
H645 H 0.57062 0.55958 0.65683 0.0
H646 H 0.61839 0.52164 0.58802 0.0
H647 H 0.63294 0.59752 0.64193 0.0
H648 H 0.77878 0.59148 0.61975 0.0
H649 H 0.70813 0.57222 0.63345 0.0
H650 H 0.65008 0.59253 0.57536 0.0
H651 H 0.7215 0.61274 0.56166 0.0
C652 C 0.57244 0.50927 0.61147 0.0
C653 C 0.55845 0.51864 0.63109 0.0
C654 C 0.60778 0.53121 0.60284 0.0
C655 C 0.63105 0.56269 0.61371 0.0
C656 C 0.61603 0.57336 0.63309 0.0
C657 C 0.57998 0.55192 0.6416 0.0
C658 C 0.75078 0.59293 0.60997 0.0
C659 C 0.7559 0.60399 0.58961 0.0
C660 C 0.71009 0.58196 0.61787 0.0
C661 C 0.67306 0.58066 0.6056 0.0
C662 C 0.67783 0.59302 0.58529 0.0
C663 C 0.71868 0.605 0.57744 0.0
H664 H 0.87022 0.37134 0.40469 0.0
H665 H 0.78994 0.27798 0.37396 0.0
H666 H 0.83118 0.43085 0.38886 0.0
H667 H 0.75008 0.33864 0.35777 0.0
H668 H 0.74127 0.46993 0.31555 0.0
H669 H 0.76402 0.40141 0.33203 0.0
H670 H 0.76005 0.46599 0.38934 0.0
H671 H 0.73831 0.5336 0.373 0.0
C672 C 0.84369 0.36345 0.3947 0.0
C673 C 0.83317 0.31964 0.39081 0.0
C674 C 0.82104 0.39781 0.38562 0.0
C675 C 0.78707 0.38995 0.37203 0.0
C676 C 0.77604 0.34606 0.36813 0.0
C677 C 0.79855 0.31127 0.37757 0.0
C678 C 0.74371 0.46888 0.33173 0.0
C679 C 0.73771 0.50728 0.34296 0.0
C680 C 0.75703 0.42965 0.3412 0.0
C681 C 0.76475 0.42814 0.36206 0.0
C682 C 0.75538 0.46585 0.37326 0.0
C683 C 0.74239 0.50466 0.36389 0.0
H684 H 0.81774 0.50923 0.12287 0.0
H685 H 0.88341 0.49611 0.06619 0.0
H686 H 0.88486 0.53192 0.13865 0.0
H687 H 0.95161 0.51989 0.08215 0.0
H688 H 0.07308 0.54699 0.12498 0.0
H689 H 1.0118 0.50768 0.10947 0.0
H690 H 0.923 0.60122 0.13503 0.0
H691 H 0.983 0.63957 0.15027 0.0
C692 C 0.84684 0.51049 0.11379 0.0
C693 C 0.84492 0.50113 0.09318 0.0
C694 C 0.88544 0.5238 0.12287 0.0
C695 C 0.92372 0.52874 0.11167 0.0
C696 C 0.92282 0.51647 0.09128 0.0
C697 C 0.88376 0.50274 0.08212 0.0
C698 C 1.04035 0.55853 0.12753 0.0
C699 C 1.03309 0.59637 0.13905 0.0
C700 C 1.00527 0.53632 0.11845 0.0
C701 C 0.96219 0.55101 0.12104 0.0
C702 C 0.95538 0.58833 0.13286 0.0
C703 C 0.99004 0.61057 0.1416 0.0
H704 H 0.69876 0.98662 0.64505 0.0
H705 H 0.83328 1.02271 0.65065 0.0
H706 H 0.72094 0.9182 0.62832 0.0
H707 H 0.855 0.95559 0.63443 0.0
H708 H 0.88377 0.87011 0.58299 0.0
H709 H 0.85001 0.9317 0.59968 0.0
H710 H 0.76398 0.84433 0.63102 0.0
H711 H 0.79804 0.78173 0.61376 0.0
C712 C 0.73294 0.97966 0.64314 0.0
C713 C 0.76413 1.01064 0.64905 0.0
C714 C 0.74568 0.9405 0.63348 0.0
C715 C 0.78983 0.93165 0.6295 0.0
C716 C 0.82069 0.96156 0.63661 0.0
C717 C 0.80814 1.00018 0.6461 0.0
C718 C 0.85706 0.86386 0.59313 0.0
C719 C 0.84379 0.82081 0.597 0.0
C720 C 0.83787 0.89931 0.6029 0.0
C721 C 0.80485 0.89324 0.61717 0.0
C722 C 0.78939 0.85037 0.62019 0.0
C723 C 0.80874 0.81446 0.61022 0.0
H724 H 0.0708 1.04499 0.8573 0.0
H725 H 0.99155 0.15789 0.84453 0.0
H726 H 1.00697 1.00822 0.87198 0.0
H727 H 0.92922 0.12203 0.85902 0.0
H728 H 0.81401 1.03912 0.86568 0.0
H729 H 0.88179 0.06087 0.85039 0.0
H730 H 0.95171 1.01564 0.90244 0.0
H731 H 0.88247 0.99289 0.91795 0.0
C732 C 1.03986 0.06174 0.85733 0.0
C733 C 1.03651 0.10445 0.84951 0.0
C734 C 1.00337 1.04088 0.86598 0.0
C735 C 0.96261 0.06195 0.86666 0.0
C736 C 0.95963 0.10431 0.8586 0.0
C737 C 0.99571 0.12507 0.85029 0.0
C738 C 0.84376 1.03312 0.87389 0.0
C739 C 0.84244 1.01467 0.89323 0.0
C740 C 0.88284 1.04582 0.86508 0.0
C741 C 0.92247 1.04099 0.87525 0.0
C742 C 0.92186 1.01993 0.89413 0.0
C743 C 0.88219 1.00684 0.90304 0.0
H744 H 0.85849 0.08468 0.1129 0.0
H745 H 0.86317 0.13779 0.17258 0.0
H746 H 0.83653 0.15556 0.09967 0.0
H747 H 0.84051 0.2093 0.15932 0.0
H748 H 0.72989 0.29657 0.13 0.0
H749 H 0.77054 0.23637 0.1449 0.0
H750 H 0.85482 0.23365 0.09337 0.0
H751 H 0.81397 0.29454 0.07845 0.0
C752 C 0.85594 0.11192 0.12316 0.0
C753 C 0.86293 0.10548 0.14381 0.0
C754 C 0.84335 0.15274 0.11553 0.0
C755 C 0.83644 0.18844 0.12835 0.0
C756 C 0.84525 0.18256 0.14896 0.0
C757 C 0.85873 0.14169 0.15658 0.0
C758 C 0.75772 0.28386 0.12201 0.0
C759 C 0.76862 0.30069 0.10301 0.0
C760 C 0.78124 0.24931 0.13063 0.0
C761 C 0.81605 0.22976 0.1204 0.0
C762 C 0.82809 0.24766 0.10169 0.0
C763 C 0.80493 0.2829 0.09319 0.0
H764 H 0.78059 0.1 0.3632 0.0
H765 H 0.71326 0.10986 0.41957 0.0
H766 H 0.7139 0.0783 0.34671 0.0
H767 H 0.64562 0.08662 0.40298 0.0
H768 H 0.52501 0.05943 0.3603 0.0
H769 H 0.58567 0.09831 0.37649 0.0
H770 H 0.67602 1.00998 0.34831 0.0
H771 H 0.61676 0.97235 0.33229 0.0
C772 C 0.75119 0.09821 0.37205 0.0
C773 C 0.75245 0.10651 0.39275 0.0
C774 C 0.71284 0.08538 0.36259 0.0
C775 C 0.67426 0.07957 0.3735 0.0
C776 C 0.6746 0.09071 0.39404 0.0
C777 C 0.71334 0.10413 0.40357 0.0
C778 C 0.55793 1.04896 0.35734 0.0
C779 C 0.56578 1.01275 0.34483 0.0
C780 C 0.5927 0.07094 0.3668 0.0
C781 C 0.63608 0.05765 0.36367 0.0
C782 C 0.64344 1.02193 0.35091 0.0
C783 C 0.60913 0.99999 0.34175 0.0
H784 H 0.35836 0.13897 0.31733 0.0
H785 H 0.35131 0.07356 0.37444 0.0
H786 H 0.33667 0.20795 0.33353 0.0
H787 H 0.33134 0.14163 0.39057 0.0
H788 H 0.22841 0.24231 0.40583 0.0
H789 H 0.26517 0.18115 0.39054 0.0
H790 H 0.34867 0.26955 0.35827 0.0
H791 H 0.3105 0.33202 0.37373 0.0
C792 C 0.35357 0.13957 0.3334 0.0
C793 C 0.35633 0.10057 0.34455 0.0
C794 C 0.34103 0.17913 0.34272 0.0
C795 C 0.33118 0.18053 0.36339 0.0
C796 C 0.33732 0.142 0.37459 0.0
C797 C 0.34923 0.10281 0.36533 0.0
C798 C 0.25505 0.24903 0.39572 0.0
C799 C 0.26655 0.29234 0.39123 0.0
C800 C 0.27646 0.21365 0.38694 0.0
C801 C 0.3104 0.21987 0.37315 0.0
C802 C 0.32267 0.26329 0.36876 0.0
C803 C 0.3012 0.29915 0.37782 0.0
H804 H 0.0596 0.06611 0.14901 0.0
H805 H 0.0715 0.95015 0.11294 0.0
H806 H 0.12157 0.09842 0.13106 0.0
H807 H 0.1322 0.98211 0.09511 0.0
H808 H 0.27504 1.01697 0.09206 0.0
H809 H 0.20611 0.9948 0.10588 0.0
H810 H 0.15616 0.12533 0.09792 0.0
H811 H 0.22668 0.14808 0.08388 0.0
C812 C 0.07449 1.048 0.13692 0.0
C813 C 0.06057 1.00526 0.13259 0.0
C814 C 0.11018 0.06648 0.12664 0.0
C815 C 0.13272 1.04261 0.11184 0.0
C816 C 0.11661 1.00121 0.1067 0.0
C817 C 0.08143 0.9829 0.1169 0.0
C818 C 0.24951 1.04121 0.09303 0.0
C819 C 0.25681 0.08445 0.0867 0.0
C820 C 0.20956 1.02829 0.10094 0.0
C821 C 0.17503 0.05803 0.10298 0.0
C822 C 0.18195 0.10147 0.09664 0.0
C823 C 0.22225 0.11444 0.08841 0.0
H824 H 0.36405 0.80235 0.85107 0.0
H825 H 0.2976 0.81936 0.90732 0.0
H826 H 0.32565 0.86507 0.83714 0.0
H827 H 0.25903 0.88276 0.89335 0.0
H828 H 0.2634 1.02869 0.87021 0.0
H829 H 0.28268 0.95736 0.88374 0.0
H830 H 0.25543 0.89869 0.82643 0.0
H831 H 0.23545 0.97086 0.81288 0.0
C832 C 0.34051 0.81898 0.86038 0.0
C833 C 0.334 0.80552 0.88036 0.0
C834 C 0.31824 0.85499 0.85231 0.0
C835 C 0.28918 0.87942 0.86405 0.0
C836 C 0.28132 0.865 0.88384 0.0
C837 C 0.30315 0.82833 0.89184 0.0
C838 C 0.26041 1.00042 0.86059 0.0
C839 C 0.24762 1.0056 0.84045 0.0
C840 C 0.27141 0.95933 0.8684 0.0
C841 C 0.27087 0.92191 0.85626 0.0
C842 C 0.25648 0.92673 0.83625 0.0
C843 C 0.24459 0.96802 0.82849 0.0
H844 H 0.37546 0.98981 0.56517 0.0
H845 H 0.31743 1.03439 0.62023 0.0
H846 H 0.44761 1.00856 0.57845 0.0
H847 H 0.38867 1.05227 0.63346 0.0
H848 H 0.52483 0.0578 0.65865 0.0
H849 H 0.46002 1.02208 0.64496 0.0
H850 H 0.48613 0.07902 0.58708 0.0
H851 H 0.55017 0.11489 0.60081 0.0
C852 C 0.37806 1.00282 0.58019 0.0
C853 C 0.34041 1.0107 0.59154 0.0
C854 C 0.41941 1.01381 0.5878 0.0
C855 C 0.42426 1.03193 0.60713 0.0
C856 C 0.38662 1.03799 0.61867 0.0
C857 C 0.34554 1.02795 0.61096 0.0
C858 C 0.51745 0.06157 0.64288 0.0
C859 C 0.54302 0.08902 0.63083 0.0
C860 C 0.47997 1.04149 0.63504 0.0
C861 C 0.46744 1.04773 0.61486 0.0
C862 C 0.49467 0.073 0.60258 0.0
C863 C 0.5315 0.09366 0.61049 0.0
H864 H 0.34833 0.18264 0.89207 0.0
H865 H 0.211 0.16118 0.90018 0.0
H866 H 0.3571 0.18964 0.92825 0.0
H867 H 0.21977 0.16877 0.93624 0.0
H868 H 0.27084 0.10621 -0.0049 0.0
H869 H 0.25548 0.1176 0.95979 0.0
H870 H 0.33838 0.23096 0.95944 0.0
H871 H 0.35419 0.21935 -0.00501 0.0
C872 C 0.31995 0.1801 0.90155 0.0
C873 C 0.27918 0.17023 0.89337 0.0
C874 C 0.32491 0.18449 0.92223 0.0
C875 C 0.2892 0.17902 0.93503 0.0
C876 C 0.24796 0.1723 0.92671 0.0
C877 C 0.24298 0.16802 0.90607 0.0
C878 C 0.28551 0.13382 0.98758 0.0
C879 C 0.31393 0.1617 -0.00223 0.0
C880 C 0.27639 0.14058 0.96739 0.0
C881 C 0.29566 0.17526 0.95691 0.0
C882 C 0.32328 0.20387 0.96718 0.0
C883 C 0.33217 0.19728 0.98749 0.0
H884 H 0.62942 0.61099 0.24563 0.0
H885 H 0.74221 0.52699 0.24655 0.0
H886 H 0.61652 0.59151 0.21062 0.0
H887 H 0.72965 0.50812 0.21175 0.0
H888 H 0.68618 0.45805 0.15343 0.0
H889 H 0.67932 0.46995 0.18934 0.0
H890 H 0.65472 0.60688 0.17871 0.0
H891 H 0.66077 0.59491 0.14274 0.0
C892 C 0.65122 0.58815 0.23842 0.0
C893 C 0.68699 0.57071 0.24878 0.0
C894 C 0.64386 0.57711 0.21841 0.0
C895 C 0.67196 0.54819 0.2085 0.0
C896 C 0.70698 0.52992 0.21907 0.0
C897 C 0.71444 0.54108 0.23898 0.0
C898 C 0.67855 0.49055 0.15872 0.0
C899 C 0.6751 0.52577 0.14533 0.0
C900 C 0.67475 0.49735 0.17928 0.0
C901 C 0.66735 0.53947 0.18682 0.0
C902 C 0.66044 0.57405 0.17333 0.0
C903 C 0.66426 0.56725 0.15275 0.0
H904 H 0.32172 1.00364 0.49713 0.0
H905 H 0.2434 0.8869 0.49716 0.0
H906 H 0.34151 0.99034 0.46247 0.0
H907 H 0.26375 0.87333 0.4623 0.0
H908 H 0.26054 0.91475 0.39384 0.0
H909 H 0.24767 0.91 0.42981 0.0
H910 H 0.38235 0.93958 0.44095 0.0
H911 H 0.39514 0.94507 0.40505 0.0
C912 C 0.30904 0.97489 0.48979 0.0
C913 C 0.2808 0.94647 0.49982 0.0
C914 C 0.32073 0.96703 0.46998 0.0
C915 C 0.30435 0.93064 0.45973 0.0
C916 C 0.2767 0.90171 0.46984 0.0
C917 C 0.26516 0.90945 0.48977 0.0
C918 C 0.28753 0.9196 0.40397 0.0
C919 C 0.32858 0.93144 0.39668 0.0
C920 C 0.28023 0.91654 0.42456 0.0
C921 C 0.31386 0.92526 0.43816 0.0
C922 C 0.35565 0.93362 0.43079 0.0
C923 C 0.36297 0.93662 0.41023 0.0
H924 H 0.84833 0.58736 0.74622 0.0
H925 H 0.96573 0.50994 0.74655 0.0
H926 H 0.85968 0.60429 0.71104 0.0
H927 H 0.97744 0.5276 0.71132 0.0
H928 H 0.93445 0.51348 0.64417 0.0
H929 H 0.93985 0.50611 0.68039 0.0
H930 H 0.90686 0.64239 0.68719 0.0
H931 H 0.90056 0.64962 0.65096 0.0
C932 C 0.87688 0.57446 0.73886 0.0
C933 C 0.90587 0.54695 0.74907 0.0
C934 C 0.8836 0.58448 0.71874 0.0
C935 C 0.91945 0.56722 0.70846 0.0
C936 C 0.94933 0.541 0.71886 0.0
C937 C 0.94263 0.531 0.73901 0.0
C938 C 0.92882 0.54197 0.65339 0.0
C939 C 0.91606 0.58185 0.6448 0.0
C940 C 0.93233 0.53786 0.67412 0.0
C941 C 0.92318 0.57357 0.68659 0.0
C942 C 0.9133 0.61416 0.67791 0.0
C943 C 0.90982 0.61829 0.65718 0.0
H944 H 0.75993 0.92504 0.09213 0.0
H945 H 0.89611 0.94662 0.08067 0.0
H946 H 0.74663 0.92033 0.05617 0.0
H947 H 0.88281 0.94131 0.04481 0.0
H948 H 0.74235 0.89331 0.98891 0.0
H949 H 0.76133 0.88068 0.02405 0.0
H950 H 0.84444 0.99385 0.02277 0.0
H951 H 0.8259 1.00628 0.98785 0.0
C952 C 0.78711 0.92801 0.08196 0.0
C953 C 0.82888 0.93726 0.08917 0.0
C954 C 0.77954 0.925 0.06139 0.0
C955 C 0.8136 0.93122 0.04773 0.0
C956 C 0.85584 0.93725 0.05503 0.0
C957 C 0.86343 0.94015 0.07556 0.0
C958 C 0.765 0.91519 -0.00388 0.0
C959 C 0.78253 0.9509 0.98567 0.0
C960 C 0.77572 0.90801 0.01621 0.0
C961 C 0.80448 0.93615 0.02608 0.0
C962 C 0.82272 0.97119 0.01546 0.0
C963 C 0.81179 0.97854 -0.00451 0.0
H964 H 0.46974 0.49732 0.73976 0.0
H965 H 0.35744 0.582 0.73871 0.0
H966 H 0.48067 0.51415 0.77519 0.0
H967 H 0.36805 0.59824 0.77394 0.0
H968 H 0.40896 0.64351 0.83361 0.0
H969 H 0.41743 0.63428 0.79761 0.0
H970 H 0.44002 0.49635 0.80626 0.0
H971 H 0.43231 0.50562 0.84234 0.0
C972 C 0.44766 0.51978 0.74703 0.0
C973 C 0.41255 0.53814 0.73651 0.0
C974 C 0.45387 0.52929 0.76729 0.0
C975 C 0.42529 0.55756 0.77728 0.0
C976 C 0.39104 0.57687 0.76656 0.0
C977 C 0.38471 0.56723 0.74641 0.0
C978 C 0.4164 0.61133 0.82787 0.0
C979 C 0.41888 0.57508 0.84071 0.0
C980 C 0.42116 0.60607 0.80726 0.0
C981 C 0.42858 0.5645 0.79914 0.0
C982 C 0.43434 0.52879 0.81211 0.0
C983 C 0.42953 0.53404 0.83274 0.0
H984 H 0.82883 0.19821 0.59187 0.0
H985 H 0.69788 0.1506 0.58506 0.0
H986 H 0.83602 0.20296 0.5557 0.0
H987 H 0.70483 0.15624 0.54875 0.0
H988 H 0.7667 0.09975 0.4907 0.0
H989 H 0.74723 0.1118 0.52552 0.0
H990 H 0.81252 0.23635 0.5243 0.0
H991 H 0.83287 0.22391 0.48948 0.0
C992 C 0.80133 0.18943 0.58264 0.0
C993 C 0.76318 0.17298 0.59123 0.0
C994 C 0.80531 0.19257 0.56191 0.0
C995 C 0.77117 0.17934 0.54941 0.0
C996 C 0.73192 0.16585 0.55806 0.0
C997 C 0.72792 0.16277 0.57882 0.0
C998 C 0.77654 0.12991 0.49778 0.0
C999 C 0.80176 0.16061 0.48745 0.0
C1000 C 0.76501 0.13702 0.51768 0.0
C1001 C 0.77839 0.17503 0.52762 0.0
C1002 C 0.80216 0.20656 0.51705 0.0
C1003 C 0.81374 0.19943 0.49713 0.0
H1004 H 0.25072 0.52786 0.23955 0.0
H1005 H 0.12702 0.59447 0.23826 0.0
H1006 H 0.23729 0.5054 0.27389 0.0
H1007 H 0.11318 0.5711 0.27263 0.0
H1008 H 0.19776 0.45076 0.33214 0.0
H1009 H 0.19254 0.46053 0.29593 0.0
H1010 H 0.14442 0.59165 0.30476 0.0
H1011 H 0.14872 0.58163 0.34079 0.0
C1012 C 0.2204 0.53724 0.24652 0.0
C1013 C 0.19016 0.56336 0.2363 0.0
C1014 C 0.21248 0.52394 0.26614 0.0
C1015 C 0.17412 0.53641 0.27593 0.0
C1016 C 0.14318 0.56132 0.26549 0.0
C1017 C 0.15113 0.57467 0.24583 0.0
C1018 C 0.18522 0.48132 0.32633 0.0
C1019 C 0.17464 0.51581 0.33923 0.0
C1020 C 0.18241 0.48696 0.30562 0.0
C1021 C 0.16885 0.52711 0.29754 0.0
C1022 C 0.15493 0.5603 0.31052 0.0
C1023 C 0.15778 0.55468 0.33118 0.0
H1024 H 0.85222 0.68044 0.39169 0.0
H1025 H 0.71466 0.66606 0.40201 0.0
H1026 H 0.86407 0.68666 0.42774 0.0
H1027 H 0.72656 0.67275 0.43791 0.0
H1028 H 0.77826 0.60792 0.49602 0.0
H1029 H 0.76211 0.61911 0.46075 0.0
H1030 H 0.84888 0.72943 0.45929 0.0
H1031 H 0.86539 0.71811 0.49479 0.0
C1032 C 0.82449 0.67931 0.40162 0.0
C1033 C 0.78266 0.67166 0.3941 0.0
C1034 C 0.83124 0.68321 0.42222 0.0
C1035 C 0.79628 0.67942 0.43558 0.0
C1036 C 0.75415 0.67495 0.42793 0.0
C1037 C 0.74738 0.67121 0.40738 0.0
C1038 C 0.79369 0.63477 0.48826 0.0
C1039 C 0.82321 0.66201 0.49814 0.0
C1040 C 0.78415 0.64141 0.46809 0.0
C1041 C 0.8041 0.67529 0.45734 0.0
C1042 C 0.83319 0.70301 0.46725 0.0
C1043 C 0.84248 0.69658 0.48754 0.0
H1044 H 0.18998 0.95496 0.65449 0.0
H1045 H 0.15242 0.0896 0.64552 0.0
H1046 H 0.1825 0.96422 0.69058 0.0
H1047 H 0.14593 0.09905 0.68154 0.0
H1048 H 0.12559 0.10175 0.748 0.0
H1049 H 0.1112 0.08017 0.71342 0.0
H1050 H 0.22992 1.00499 0.713 0.0
H1051 H 0.24386 1.02573 0.74743 0.0
C1052 C 0.17957 0.98633 0.6602 0.0
C1053 C 0.17298 1.0219 0.64728 0.0
C1054 C 0.17537 0.99163 0.68084 0.0
C1055 C 0.16449 1.03256 0.68886 0.0
C1056 C 0.15434 0.0671 0.67581 0.0
C1057 C 0.15852 0.0618 0.65518 0.0
C1058 C 0.14828 0.08018 0.74056 0.0
C1059 C 0.18609 0.06578 0.75032 0.0
C1060 C 0.14004 0.06789 0.7208 0.0
C1061 C 0.16939 1.04088 0.71054 0.0
C1062 C 0.2063 1.02523 0.7206 0.0
C1063 C 0.21455 1.03754 0.74028 0.0
H1064 H 0.75801 0.41841 0.89331 0.0
H1065 H 0.89508 0.44191 0.90115 0.0
H1066 H 0.74981 0.41031 0.9294 0.0
H1067 H 0.88694 0.433 0.93721 0.0
H1068 H 0.83458 0.49658 -0.00444 0.0
H1069 H 0.8516 0.48347 0.96059 0.0
H1070 H 0.76777 0.37076 0.96063 0.0
H1071 H 0.75008 0.38427 -0.00425 0.0
C1072 C 0.78651 0.42104 0.90271 0.0
C1073 C 0.82694 0.43209 0.89453 0.0
C1074 C 0.78188 0.41599 0.92336 0.0
C1075 C 0.81764 0.42186 0.9361 0.0
C1076 C 0.8587 0.42924 0.92773 0.0
C1077 C 0.86332 0.43431 0.9071 0.0
C1078 C 0.82009 0.46873 0.9882 0.0
C1079 C 0.79066 0.44174 -0.00168 0.0
C1080 C 0.8302 0.46094 0.96822 0.0
C1081 C 0.81106 0.42601 0.95792 0.0
C1082 C 0.78275 0.39806 0.96821 0.0
C1083 C 0.77272 0.40579 0.98828 0.0
H1084 H 0.39462 0.16114 0.15241 0.0
H1085 H 0.44893 1.03205 0.14492 0.0
H1086 H 0.39832 0.15232 0.18873 0.0
H1087 H 0.45162 1.02287 0.18101 0.0
H1088 H 0.34289 0.08514 0.24585 0.0
H1089 H 0.35558 0.10723 0.21136 0.0
H1090 H 0.48149 1.04514 0.21288 0.0
H1091 H 0.46836 1.02203 0.2473 0.0
C1092 C 0.40792 0.13119 0.15851 0.0
C1093 C 0.42061 0.09692 0.14587 0.0
C1094 C 0.40981 0.12605 0.17928 0.0
C1095 C 0.4246 0.08666 0.18771 0.0
C1096 C 0.44022 1.05369 0.17501 0.0
C1097 C 0.43828 0.0588 0.1543 0.0
C1098 C 0.37343 0.07651 0.2389 0.0
C1099 C 0.40437 1.05136 0.24919 0.0
C1100 C 0.38091 0.08957 0.21918 0.0
C1101 C 0.41954 0.07788 0.20939 0.0
C1102 C 0.45121 0.05418 0.21996 0.0
C1103 C 0.44367 1.04099 0.23967 0.0
H1104 H 0.22788 0.43298 0.49406 0.0
H1105 H 0.35159 0.37198 0.48189 0.0
H1106 H 0.242 0.42861 0.52966 0.0
H1107 H 0.36546 0.36678 0.51792 0.0
H1108 H 0.39517 0.43974 0.57833 0.0
H1109 H 0.38176 0.4214 0.54345 0.0
H1110 H 0.25142 0.3819 0.55856 0.0
H1111 H 0.26436 0.4017 0.59338 0.0
C1112 C 0.25789 0.418 0.49901 0.0
C1113 C 0.28894 0.4034 0.48516 0.0
C1114 C 0.26577 0.41504 0.51948 0.0
C1115 C 0.30489 0.39739 0.52663 0.0
C1116 C 0.33518 0.38091 0.51282 0.0
C1117 C 0.32721 0.38377 0.49223 0.0
C1118 C 0.36381 0.42668 0.57426 0.0
C1119 C 0.33049 0.42311 0.58848 0.0
C1120 C 0.35628 0.41572 0.55429 0.0
C1121 C 0.31536 0.4007 0.54822 0.0
C1122 C 0.28302 0.39423 0.56274 0.0
C1123 C 0.29044 0.40555 0.58266 0.0
H1124 H 0.90678 0.15237 0.33475 0.0
H1125 H 0.93806 1.01613 0.34373 0.0
H1126 H 0.91349 0.14277 0.29868 0.0
H1127 H 0.94392 1.00642 0.30765 0.0
H1128 H 0.96918 1.00636 0.2411 0.0
H1129 H 0.98132 1.02511 0.27617 0.0
H1130 H 0.86493 0.10387 0.27569 0.0
H1131 H 0.85314 0.08581 0.2407 0.0
C1132 C 0.91568 0.12053 0.32905 0.0
C1133 C 0.92086 0.08474 0.34199 0.0
C1134 C 0.91936 0.11504 0.3084 0.0
C1135 C 0.9284 0.0737 0.30037 0.0
C1136 C 0.93694 1.03868 0.31341 0.0
C1137 C 0.93323 1.04416 0.33407 0.0
C1138 C 0.94644 1.02803 0.24845 0.0
C1139 C 0.91001 1.04439 0.23821 0.0
C1140 C 0.95339 1.03866 0.26851 0.0
C1141 C 0.92414 0.06598 0.27862 0.0
C1142 C 0.88844 0.0833 0.26819 0.0
C1143 C 0.88143 0.0726 0.24819 0.0
H1144 H 0.34036 0.68834 0.09147 0.0
H1145 H 0.20311 0.67066 0.08138 0.0
H1146 H 0.35173 0.6954 0.05547 0.0
H1147 H 0.21445 0.67847 0.04547 0.0
H1148 H 0.26788 0.61194 0.98817 0.0
H1149 H 0.25003 0.62554 0.023 0.0
H1150 H 0.33704 0.73573 0.02362 0.0
H1151 H 0.3554 0.72184 0.98854 0.0
C1152 C 0.31254 0.68678 0.0816 0.0
C1153 C 0.27104 0.67767 0.08915 0.0
C1154 C 0.319 0.69121 0.06101 0.0
C1155 C 0.28405 0.68664 0.04769 0.0
C1156 C 0.24207 0.68122 0.05541 0.0
C1157 C 0.23561 0.67682 0.07596 0.0
C1158 C 0.28295 0.63933 -0.00436 0.0
C1159 C 0.31327 0.66562 0.98568 0.0
C1160 C 0.27239 0.6474 0.01555 0.0
C1161 C 0.29201 0.68184 0.02598 0.0
C1162 C 0.32158 0.70888 0.01592 0.0
C1163 C 0.33197 0.70097 -0.00412 0.0
H1164 H 0.74734 1.03398 0.73896 0.0
H1165 H 0.62858 0.10918 0.73872 0.0
H1166 H 0.737 1.01748 0.77421 0.0
H1167 H 0.61802 0.09217 0.77424 0.0
H1168 H 0.69708 0.96931 0.83374 0.0
H1169 H 0.68933 0.97771 0.79764 0.0
H1170 H 0.65703 0.11381 0.80554 0.0
H1171 H 0.66419 0.10536 0.84173 0.0
C1172 C 0.71873 1.04658 0.74639 0.0
C1173 C 0.68893 0.07311 0.73613 0.0
C1174 C 0.7126 1.03679 0.76656 0.0
C1175 C 0.67662 1.05344 0.77693 0.0
C1176 C 0.64614 0.0791 0.76658 0.0
C1177 C 0.65213 0.08868 0.74629 0.0
C1178 C 0.68773 1.00089 0.82781 0.0
C1179 C 0.68226 1.03695 0.8405 0.0
C1180 C 0.68335 1.00567 0.80715 0.0
C1181 C 0.67328 1.04655 0.7988 0.0
C1182 C 0.66477 0.08189 0.81158 0.0
C1183 C 0.66927 0.07714 0.83227 0.0
H1184 H 0.56482 0.95072 0.95399 0.0
H1185 H 0.66574 1.04336 0.96646 0.0
H1186 H 0.51656 0.98806 0.9766 0.0
H1187 H 0.61822 0.08016 0.99034 0.0
H1188 H 0.51751 0.16698 0.01876 0.0
H1189 H 0.56399 0.12722 -0.00421 0.0
H1190 H 0.48279 1.01347 0.00309 0.0
H1191 H 0.43441 0.05526 0.02442 0.0
C1192 C 0.57754 0.97814 0.96233 0.0
C1193 C 0.61945 0.99397 0.95794 0.0
C1194 C 0.54925 1.00031 0.97539 0.0
C1195 C 0.56178 1.03898 0.98526 0.0
C1196 C 0.60561 1.05202 0.98257 0.0
C1197 C 0.6338 1.03006 0.96912 0.0
C1198 C 0.50849 0.13402 0.01471 0.0
C1199 C 0.47184 0.11466 0.02368 0.0
C1200 C 0.53627 0.11033 0.0019 0.0
C1201 C 0.5293 0.06568 -0.00227 0.0
C1202 C 0.4906 1.04735 0.00558 0.0
C1203 C 0.46218 0.07158 0.01799 0.0
H1204 H 0.80481 0.69702 0.27504 0.0
H1205 H 0.6879 0.77324 0.27222 0.0
H1206 H 0.83909 0.7452 0.25096 0.0
H1207 H 0.72245 0.82308 0.24867 0.0
H1208 H 0.78956 0.89099 0.19515 0.0
H1209 H 0.75133 0.84264 0.21779 0.0
H1210 H 0.87174 0.81372 0.24803 0.0
H1211 H 0.90992 0.86262 0.22495 0.0
C1212 C 0.78531 0.72248 0.26849 0.0
C1213 C 0.74245 0.72932 0.27518 0.0
C1214 C 0.80576 0.75164 0.25507 0.0
C1215 C 0.78442 0.78938 0.24786 0.0
C1216 C 0.74055 0.79468 0.25353 0.0
C1217 C 0.72016 0.76538 0.26691 0.0
C1218 C 0.80758 0.87682 0.20745 0.0
C1219 C 0.85277 0.88352 0.20884 0.0
C1220 C 0.78559 0.84775 0.2203 0.0
C1221 C 0.80785 0.82326 0.235 0.0
C1222 C 0.85295 0.831 0.23684 0.0
C1223 C 0.87498 0.86018 0.22389 0.0
H1224 H 0.94832 1.04308 0.45275 0.0
H1225 H 0.99975 0.16498 0.47337 0.0
H1226 H 0.99663 1.00359 0.47486 0.0
H1227 H 1.04848 0.12567 0.49615 0.0
H1228 H 0.16061 1.0459 0.52256 0.0
H1229 H 0.1121 0.08358 0.49904 0.0
H1230 H 1.01931 0.97922 0.50531 0.0
H1231 H 0.06783 0.94203 0.52823 0.0
C1232 C 0.96772 0.06174 0.46305 0.0
C1233 C 0.96757 0.10767 0.46191 0.0
C1234 C 0.99678 1.03884 0.47559 0.0
C1235 C 1.02752 0.06077 0.4876 0.0
C1236 C 1.02625 0.10692 0.48708 0.0
C1237 C 0.99718 0.1298 0.47437 0.0
C1238 C 0.13049 1.03035 0.51841 0.0
C1239 C 0.11848 0.99066 0.52755 0.0
C1240 C 0.10193 1.05251 0.50513 0.0
C1241 C 0.06046 1.03557 0.50034 0.0
C1242 C 0.05044 0.99405 0.50824 0.0
C1243 C 0.07884 0.97212 0.52138 0.0
H1244 H 0.68366 0.28373 0.70971 0.0
H1245 H 0.78743 0.19011 0.71431 0.0
H1246 H 0.72097 0.33186 0.73267 0.0
H1247 H 0.82515 0.23813 0.73787 0.0
H1248 H 0.90618 0.35034 0.7636 0.0
H1249 H 0.86676 0.30201 0.74081 0.0
H1250 H 0.74577 0.35343 0.76323 0.0
H1251 H 0.78538 0.4013 0.78538 0.0
C1252 C 0.71374 0.27242 0.71634 0.0
C1253 C 0.73215 0.23263 0.70992 0.0
C1254 C 0.73573 0.30058 0.72951 0.0
C1255 C 0.7772 0.29017 0.73712 0.0
C1256 C 0.79408 0.24857 0.73203 0.0
C1257 C 0.77188 0.22026 0.71875 0.0
C1258 C 0.87119 0.3529 0.76286 0.0
C1259 C 0.84937 0.38233 0.77561 0.0
C1260 C 0.84827 0.32407 0.75014 0.0
C1261 C 0.8024 0.32285 0.74991 0.0
C1262 C 0.78077 0.35332 0.76226 0.0
C1263 C 0.80371 0.38213 0.77482 0.0
H1264 H 0.29924 0.19016 0.77202 0.0
H1265 H 0.19124 0.27883 0.77436 0.0
H1266 H 0.33534 0.23753 0.74787 0.0
H1267 H 0.22743 0.32727 0.75094 0.0
H1268 H 0.29259 0.39772 0.69817 0.0
H1269 H 0.25336 0.35016 0.72077 0.0
H1270 H 0.37486 0.30109 0.74386 0.0
H1271 H 0.41381 0.34868 0.72058 0.0
C1272 C 0.28215 0.21872 0.76677 0.0
C1273 C 0.24138 0.22945 0.77498 0.0
C1274 C 0.30363 0.24707 0.75324 0.0
C1275 C 0.28541 0.28766 0.74742 0.0
C1276 C 0.24323 0.29674 0.7546 0.0
C1277 C 0.22181 0.2683 0.76799 0.0
C1278 C 0.31109 0.379 0.70892 0.0
C1279 C 0.35678 0.37955 0.70813 0.0
C1280 C 0.28834 0.35042 0.72177 0.0
C1281 C 0.31021 0.32058 0.73444 0.0
C1282 C 0.35609 0.32245 0.73427 0.0
C1283 C 0.3788 0.35094 0.72124 0.0
H1284 H 0.30512 0.70192 0.20637 0.0
H1285 H 0.18347 0.76747 0.21536 0.0
H1286 H 0.33968 0.74984 0.23043 0.0
H1287 H 0.21808 0.81735 0.23876 0.0
H1288 H 0.28695 0.88329 0.29184 0.0
H1289 H 0.24963 0.83535 0.2689 0.0
H1290 H 0.36792 0.81947 0.23515 0.0
H1291 H 0.40531 0.86791 0.25867 0.0
C1292 C 0.28494 0.72483 0.21428 0.0
C1293 C 0.24054 0.72856 0.20947 0.0
C1294 C 0.30535 0.75396 0.22768 0.0
C1295 C 0.28243 0.78878 0.23666 0.0
C1296 C 0.23746 0.79118 0.23259 0.0
C1297 C 0.21712 0.76185 0.21926 0.0
C1298 C 0.30444 0.87218 0.27877 0.0
C1299 C 0.34881 0.88243 0.27656 0.0
C1300 C 0.28306 0.84331 0.2657 0.0
C1301 C 0.30513 0.82254 0.24984 0.0
C1302 C 0.34933 0.8338 0.2472 0.0
C1303 C 0.37081 0.86277 0.26043 0.0
H1304 H 1.03699 0.66242 0.53193 0.0
H1305 H 0.93556 0.57062 0.51902 0.0
H1306 H 0.08525 0.62494 0.50937 0.0
H1307 H 0.98303 0.5338 0.49514 0.0
H1308 H 0.08312 0.44666 0.46674 0.0
H1309 H 1.03697 0.48641 0.48984 0.0
H1310 H 0.11905 0.59963 0.48287 0.0
H1311 H 0.16718 0.55772 0.46149 0.0
C1312 C 1.02418 0.63517 0.52349 0.0
C1313 C 0.98212 0.61959 0.52772 0.0
C1314 C 0.05245 0.61294 0.51046 0.0
C1315 C 1.03972 0.5745 0.50047 0.0
C1316 C 0.99576 0.56175 0.50301 0.0
C1317 C 0.96761 0.58373 0.51645 0.0
C1318 C 0.0924 0.47948 0.4709 0.0
C1319 C 0.12913 0.49873 0.46196 0.0
C1320 C 0.06481 0.50317 0.48377 0.0
C1321 C 0.07209 0.54772 0.48803 0.0
C1322 C 0.11097 0.56586 0.48027 0.0
C1323 C 0.13922 0.54158 0.46782 0.0
H1324 H 0.63163 0.56589 0.03977 0.0
H1325 H 0.60965 0.44512 0.0089 0.0
H1326 H 0.58314 0.60361 0.01708 0.0
H1327 H 0.55994 0.48279 0.98588 0.0
H1328 H 0.44079 0.54927 0.95944 0.0
H1329 H 0.48991 0.51443 0.98325 0.0
H1330 H 0.56516 0.63274 0.98586 0.0
H1331 H 0.51513 0.66742 0.96245 0.0
C1332 C 0.61906 0.54783 0.02718 0.0
C1333 C 0.62776 0.5027 0.02548 0.0
C1334 C 0.58973 0.56945 0.01434 0.0
C1335 C 0.56676 0.54683 -0.00065 0.0
C1336 C 0.5762 0.50179 -0.00275 0.0
C1337 C 0.60581 0.48014 0.01017 0.0
C1338 C 0.46622 0.56873 0.96593 0.0
C1339 C 0.47247 0.61204 0.95935 0.0
C1340 C 0.49565 0.54814 0.97921 0.0
C1341 C 0.53276 0.56998 0.98647 0.0
C1342 C 0.53729 0.61429 0.98094 0.0
C1343 C 0.50789 0.63473 0.96765 0.0
H1344 H 0.32659 0.73271 0.15187 0.0
H1345 H 0.199 0.76062 0.12877 0.0
H1346 H 0.35874 0.77769 0.1256 0.0
H1347 H 0.23089 0.80488 0.10195 0.0
H1348 H 0.30206 0.93362 0.08462 0.0
H1349 H 0.26519 0.87521 0.10213 0.0
H1350 H 0.37292 0.78866 0.09022 0.0
H1351 H 0.41111 0.84813 0.07353 0.0
C1352 C 0.30568 0.74784 0.14079 0.0
C1353 C 0.26064 0.74332 0.14202 0.0
C1354 C 0.32394 0.77321 0.12566 0.0
C1355 C 0.29733 0.79483 0.11165 0.0
C1356 C 0.25217 0.78895 0.11262 0.0
C1357 C 0.23393 0.76369 0.12785 0.0
C1358 C 0.31806 0.90224 0.08575 0.0
C1359 C 0.36034 0.89604 0.07841 0.0
C1360 C 0.29649 0.8684 0.09548 0.0
C1361 C 0.31648 0.82748 0.09788 0.0
C1362 C 0.35713 0.82016 0.08898 0.0
C1363 C 0.37885 0.85414 0.07932 0.0
H1364 H 0.0903 0.43615 0.38699 0.0
H1365 H 0.1136 0.57294 0.39709 0.0
H1366 H 1.04275 0.45473 0.35867 0.0
H1367 H 0.06709 0.59161 0.36884 0.0
H1368 H 0.99725 0.61151 0.31041 0.0
H1369 H 0.05788 0.58195 0.33018 0.0
H1370 H 0.96945 0.49537 0.36072 0.0
H1371 H 0.90937 0.52505 0.34125 0.0
C1372 C 0.08574 0.47007 0.38287 0.0
C1373 C 0.10577 0.50323 0.39387 0.0
C1374 C 0.05893 0.48065 0.36672 0.0
C1375 C 0.05189 0.52453 0.3615 0.0
C1376 C 0.0728 0.55752 0.37231 0.0
C1377 C 0.09908 0.54693 0.38856 0.0
C1378 C 0.99122 0.58561 0.3211 0.0
C1379 C 0.94892 0.57102 0.32472 0.0
C1380 C 1.02567 0.56877 0.33234 0.0
C1381 C 1.01808 0.53655 0.34693 0.0
C1382 C 0.97614 0.51991 0.34944 0.0
C1383 C 0.94178 0.5372 0.33851 0.0
H1384 H 0.19975 0.25857 0.57132 0.0
H1385 H 0.30719 0.17181 0.58365 0.0
H1386 H 0.23719 0.31721 0.5889 0.0
H1387 H 0.34389 0.22985 0.60164 0.0
H1388 H 0.40878 0.34719 0.6281 0.0
H1389 H 0.37806 0.30218 0.60124 0.0
H1390 H 0.24971 0.32421 0.62526 0.0
H1391 H 0.28062 0.3695 0.6517 0.0
C1392 C 0.23167 0.25226 0.57746 0.0
C1393 C 0.24996 0.2103 0.57666 0.0
C1394 C 0.25297 0.28574 0.5876 0.0
C1395 C 0.29308 0.27786 0.59693 0.0
C1396 C 0.31301 0.23694 0.59461 0.0
C1397 C 0.29168 0.20348 0.58456 0.0
C1398 C 0.374 0.3427 0.62729 0.0
C1399 C 0.34674 0.36176 0.64158 0.0
C1400 C 0.35645 0.31708 0.61204 0.0
C1401 C 0.31149 0.30986 0.61112 0.0
C1402 C 0.28435 0.32985 0.62533 0.0
C1403 C 0.30191 0.35539 0.64053 0.0
H1404 H 0.65036 0.4418 0.8529 0.0
H1405 H 0.61219 0.52848 0.80478 0.0
H1406 H 0.58961 0.46734 0.87278 0.0
H1407 H 0.54994 0.55233 0.82438 0.0
H1408 H 0.50902 0.63759 0.87934 0.0
H1409 H 0.55124 0.59998 0.85366 0.0
H1410 H 0.51238 0.47561 0.87848 0.0
H1411 H 0.47112 0.51381 0.90447 0.0
C1412 C 0.6287 0.46584 0.84643 0.0
C1413 C 0.63726 0.48455 0.8276 0.0
C1414 C 0.59336 0.47994 0.85772 0.0
C1415 C 0.56562 0.51264 0.85031 0.0
C1416 C 0.57149 0.52789 0.83065 0.0
C1417 C 0.60699 0.51394 0.81938 0.0
C1418 C 0.50926 0.60224 0.87903 0.0
C1419 C 0.48685 0.57832 0.89353 0.0
C1420 C 0.53289 0.58065 0.86426 0.0
C1421 C 0.53491 0.53477 0.86398 0.0
C1422 C 0.51153 0.51094 0.87836 0.0
C1423 C 0.4879 0.53262 0.89314 0.0
H1424 H 0.7077 0.26676 0.91898 0.0
H1425 H 0.81528 0.18138 0.90531 0.0
H1426 H 0.74197 0.32514 0.89967 0.0
H1427 H 0.84882 0.23903 0.88568 0.0
H1428 H 0.90669 0.35522 0.85488 0.0
H1429 H 0.88087 0.31274 0.88371 0.0
H1430 H 0.74918 0.32716 0.86245 0.0
H1431 H 0.77525 0.36978 0.83392 0.0
C1432 C 0.73911 0.26084 0.91226 0.0
C1433 C 0.75827 0.21928 0.9131 0.0
C1434 C 0.75854 0.29408 0.90113 0.0
C1435 C 0.79756 0.28626 0.89087 0.0
C1436 C 0.81872 0.24602 0.8934 0.0
C1437 C 0.79925 0.21282 0.90443 0.0
C1438 C 0.87227 0.34946 0.85665 0.0
C1439 C 0.84268 0.36562 0.84256 0.0
C1440 C 0.85751 0.32543 0.87306 0.0
C1441 C 0.81302 0.317 0.87539 0.0
C1442 C 0.78352 0.33392 0.86129 0.0
C1443 C 0.79832 0.35777 0.84489 0.0
H1444 H 0.15802 0.44784 0.63133 0.0
H1445 H 0.12571 0.53391 0.68038 0.0
H1446 H 0.09557 0.47434 0.61285 0.0
H1447 H 0.06176 0.5588 0.6622 0.0
H1448 H 1.01289 0.64342 0.6079 0.0
H1449 H 0.0575 0.60651 0.63303 0.0
H1450 H 1.0182 0.48157 0.60928 0.0
H1451 H 0.97502 0.51893 0.58383 0.0
C1452 C 0.13737 0.47204 0.63829 0.0
C1453 C 0.14788 0.49003 0.65701 0.0
C1454 C 0.10102 0.48669 0.62782 0.0
C1455 C 0.07416 0.51929 0.63594 0.0
C1456 C 0.08244 0.53435 0.6554 0.0
C1457 C 0.11892 0.51981 0.66586 0.0
C1458 C 1.0133 0.60808 0.60842 0.0
C1459 C 0.9903 0.58381 0.59426 0.0
C1460 C 1.03842 0.58689 0.62286 0.0
C1461 C 1.04134 0.54105 0.62314 0.0
C1462 C 1.01683 0.51688 0.60935 0.0
C1463 C 0.99188 0.53815 0.59489 0.0
H1464 H 0.91075 0.90592 0.38214 0.0
H1465 H 0.82657 0.86561 0.43051 0.0
H1466 H 0.88619 0.8445 0.36226 0.0
H1467 H 0.80359 0.80294 0.41087 0.0
H1468 H 0.71841 0.76343 0.35554 0.0
H1469 H 0.75565 0.80525 0.3814 0.0
H1470 H 0.87931 0.76551 0.35691 0.0
H1471 H 0.84145 0.72396 0.33085 0.0
C1472 C 0.88746 0.88372 0.38867 0.0
C1473 C 0.86921 0.8918 0.4076 0.0
C1474 C 0.87394 0.848 0.37737 0.0
C1475 C 0.84223 0.81949 0.38487 0.0
C1476 C 0.82735 0.82502 0.40457 0.0
C1477 C 0.84076 0.86081 0.41585 0.0
C1478 C 0.75353 0.76318 0.35601 0.0
C1479 C 0.77734 0.74056 0.34154 0.0
C1480 C 0.77489 0.78666 0.37086 0.0
C1481 C 0.82045 0.78848 0.37123 0.0
C1482 C 0.84422 0.76475 0.35694 0.0
C1483 C 0.82274 0.74105 0.34212 0.0
H1484 H 0.62001 0.57535 0.08507 0.0
H1485 H 0.59147 0.4421 0.10108 0.0
H1486 H 0.5711 0.60122 0.11148 0.0
H1487 H 0.54188 0.4678 0.12729 0.0
H1488 H 0.40841 0.54099 0.13788 0.0
H1489 H 0.46985 0.51098 0.11959 0.0
H1490 H 0.55636 0.59701 0.1514 0.0
H1491 H 0.49428 0.62696 0.17012 0.0
C1492 C 0.60394 0.5518 0.09464 0.0
C1493 C 0.60961 0.50696 0.09153 0.0
C1494 C 0.57634 0.56647 0.10973 0.0
C1495 C 0.55318 0.53637 0.12139 0.0
C1496 C 0.55974 0.49146 0.11851 0.0
C1497 C 0.58777 0.47683 0.10359 0.0
C1498 C 0.44055 0.55342 0.141 0.0
C1499 C 0.4468 0.58677 0.15505 0.0
C1500 C 0.47566 0.53589 0.13075 0.0
C1501 C 0.51758 0.55172 0.13421 0.0
C1502 C 0.52415 0.58444 0.14858 0.0
C1503 C 0.48889 0.60148 0.15918 0.0
H1504 H 0.78299 0.43589 0.582 0.0
H1505 H 0.88711 0.3484 0.56564 0.0
H1506 H 0.74867 0.37771 0.60097 0.0
H1507 H 0.85187 0.28953 0.58419 0.0
H1508 H 0.8213 0.24144 0.64958 0.0
H1509 H 0.84677 0.28438 0.62126 0.0
H1510 H 0.71428 0.30507 0.60232 0.0
H1511 H 0.689 0.26183 0.63101 0.0
C1512 C 0.79817 0.40399 0.58218 0.0
C1513 C 0.83851 0.39702 0.57295 0.0
C1514 C 0.77815 0.37046 0.59281 0.0
C1515 C 0.79805 0.32934 0.59434 0.0
C1516 C 0.83629 0.32122 0.58352 0.0
C1517 C 0.85629 0.3548 0.57284 0.0
C1518 C 0.79782 0.25447 0.63915 0.0
C1519 C 0.75342 0.24822 0.64221 0.0
C1520 C 0.8123 0.27874 0.62283 0.0
C1521 C 0.78249 0.29777 0.60947 0.0
C1522 C 0.73792 0.29075 0.61239 0.0
C1523 C 0.72348 0.26627 0.62874 0.0
H1524 H 0.62358 0.09587 0.90281 0.0
H1525 H 0.58996 0.9717 0.87711 0.0
H1526 H 0.58636 0.13362 0.87563 0.0
H1527 H 0.55027 1.00897 0.85038 0.0
H1528 H 0.48904 0.07845 0.8012 0.0
H1529 H 0.55102 0.05486 0.82122 0.0
H1530 H 0.5128 0.14433 0.86804 0.0
H1531 H 0.45307 0.16973 0.8476 0.0
C1532 C 0.60851 0.07681 0.89116 0.0
C1533 C 0.61001 1.03117 0.89169 0.0
C1534 C 0.587 0.0983 0.87566 0.0
C1535 C 0.56537 0.07438 0.86079 0.0
C1536 C 0.56739 1.02847 0.86132 0.0
C1537 C 0.58945 1.00705 0.87672 0.0
C1538 C 0.49483 0.09409 0.81548 0.0
C1539 C 0.4652 0.12458 0.82323 0.0
C1540 C 0.53003 0.08023 0.82703 0.0
C1541 C 0.53596 0.0966 0.84648 0.0
C1542 C 0.50915 0.13072 0.85318 0.0
C1543 C 0.47435 0.14485 0.84158 0.0
H1544 H 0.91132 0.84708 0.13248 0.0
H1545 H 0.78079 0.88158 0.14937 0.0
H1546 H 0.88293 0.79785 0.10672 0.0
H1547 H 0.75222 0.83296 0.12345 0.0
H1548 H 0.72036 0.75504 0.06595 0.0
H1549 H 0.75259 0.81658 0.08424 0.0
H1550 H 0.83935 0.72731 0.11445 0.0
H1551 H 0.8073 0.66639 0.09648 0.0
C1552 C 0.87661 0.84487 0.13022 0.0
C1553 C 0.84803 0.8683 0.14242 0.0
C1554 C 0.86043 0.81693 0.11558 0.0
C1555 C 0.81549 0.81196 0.11313 0.0
C1556 C 0.78697 0.83686 0.12486 0.0
C1557 C 0.80319 0.86439 0.13966 0.0
C1558 C 0.74646 0.74888 0.07645 0.0
C1559 C 0.76081 0.70611 0.08019 0.0
C1560 C 0.7648 0.78387 0.08683 0.0
C1561 C 0.79843 0.77644 0.10062 0.0
C1562 C 0.81374 0.73384 0.10374 0.0
C1563 C 0.79499 0.69899 0.09369 0.0
H1564 H 0.18813 0.06252 0.34798 0.0
H1565 H 0.10118 0.97308 0.31845 0.0
H1566 H 0.12763 0.09319 0.36665 0.0
H1567 H 1.04003 1.00402 0.33738 0.0
H1568 H 0.97558 1.03045 0.40237 0.0
H1569 H 1.02471 1.00299 0.3764 0.0
H1570 H 0.05663 0.13547 0.36 0.0
H1571 H 1.00703 0.1627 0.38584 0.0
C1572 C 0.15599 1.0494 0.34553 0.0
C1573 C 0.14926 1.01488 0.33213 0.0
C1574 C 0.12134 0.06734 0.35599 0.0
C1575 C 0.07935 1.05091 0.35337 0.0
C1576 C 0.07228 1.01704 0.33963 0.0
C1577 C 0.10705 0.99946 0.32886 0.0
C1578 C 0.99236 1.05345 0.39279 0.0
C1579 C 0.98743 0.09846 0.39565 0.0
C1580 C 1.02015 1.03788 0.37795 0.0
C1581 C 1.04415 0.06723 0.36624 0.0
C1582 C 1.0383 0.11232 0.36886 0.0
C1583 C 1.01018 0.12784 0.38355 0.0
H1584 H 0.27802 0.87374 0.33336 0.0
H1585 H 0.4072 0.84855 0.35522 0.0
H1586 H 0.24801 0.82802 0.35988 0.0
H1587 H 0.37736 0.80289 0.38215 0.0
H1588 H 0.30525 0.67305 0.39981 0.0
H1589 H 0.34208 0.73124 0.38196 0.0
H1590 H 0.23735 0.81973 0.39618 0.0
H1591 H 0.19933 0.76086 0.41333 0.0
C1592 C 0.29977 0.85891 0.34418 0.0
C1593 C 0.34461 0.8647 0.34263 0.0
C1594 C 0.28272 0.83312 0.35944 0.0
C1595 C 0.31035 0.81214 0.3732 0.0
C1596 C 0.35536 0.81863 0.37174 0.0
C1597 C 0.37241 0.84461 0.35644 0.0
C1598 C 0.28998 0.70486 0.39917 0.0
C1599 C 0.24848 0.71186 0.40729 0.0
C1600 C 0.31152 0.73847 0.38923 0.0
C1601 C 0.29217 0.7798 0.38735 0.0
C1602 C 0.25256 0.78788 0.39705 0.0
C1603 C 0.23094 0.75422 0.40696 0.0
H1604 H 0.51982 0.17419 0.09515 0.0
H1605 H 0.48067 1.03974 0.09069 0.0
H1606 H 0.5708 0.15443 0.12194 0.0
H1607 H 0.53046 1.01998 0.11741 0.0
H1608 H 0.60981 1.0001 0.17313 0.0
H1609 H 0.54896 1.03178 0.15438 0.0
H1610 H 0.63886 0.10799 0.11926 0.0
H1611 H 0.69922 0.07682 0.13797 0.0
C1612 C 0.5215 0.14063 0.10024 0.0
C1613 C 0.4959 0.1085 0.09121 0.0
C1614 C 0.55043 0.12937 0.11549 0.0
C1615 C 0.55416 0.08577 0.12181 0.0
C1616 C 0.52757 1.05397 0.11312 0.0
C1617 C 0.49915 0.0652 0.09775 0.0
C1618 C 0.61632 1.02406 0.16157 0.0
C1619 C 0.65907 1.03518 0.15658 0.0
C1620 C 0.58167 1.04211 0.15089 0.0
C1621 C 0.5894 0.0721 0.13537 0.0
C1622 C 0.63203 0.08516 0.13125 0.0
C1623 C 0.66657 0.06679 0.14173 0.0
H1624 H 0.41535 0.39907 0.88336 0.0
H1625 H 0.32971 0.35935 0.93125 0.0
H1626 H 0.38992 0.33882 0.86306 0.0
H1627 H 0.30592 0.29743 0.91124 0.0
H1628 H 0.21914 0.26249 0.85605 0.0
H1629 H 0.25796 0.30168 0.88229 0.0
H1630 H 0.38011 0.26227 0.85605 0.0
H1631 H 0.34068 0.22421 0.82947 0.0
C1632 C 0.39168 0.377 0.88971 0.0
C1633 C 0.37301 0.38514 0.90854 0.0
C1634 C 0.37761 0.34195 0.87818 0.0
C1635 C 0.34501 0.3141 0.88537 0.0
C1636 C 0.33022 0.31917 0.90513 0.0
C1637 C 0.34412 0.35443 0.91663 0.0
C1638 C 0.25427 0.26201 0.85614 0.0
C1639 C 0.27723 0.24041 0.84109 0.0
C1640 C 0.27655 0.28383 0.87124 0.0
C1641 C 0.32217 0.28479 0.87133 0.0
C1642 C 0.34501 0.2622 0.85635 0.0
C1643 C 0.32263 0.24045 0.84122 0.0
H1644 H 0.09077 0.94864 0.60824 0.0
H1645 H 0.11014 0.07922 0.58602 0.0
H1646 H 1.04738 0.9777 0.63606 0.0
H1647 H 0.06708 0.10839 0.61341 0.0
H1648 H 1.00353 0.15691 0.6674 0.0
H1649 H 0.06195 0.11901 0.64987 0.0
H1650 H 0.97537 1.01206 0.63712 0.0
H1651 H 0.91775 1.04889 0.65527 0.0
C1652 C 0.08611 0.98357 0.60954 0.0
C1653 C 0.10408 1.01195 0.59534 0.0
C1654 C 0.06148 1.00018 0.62537 0.0
C1655 C 0.05418 1.04536 0.62702 0.0
C1656 C 0.07296 0.07356 0.61287 0.0
C1657 C 0.09736 0.05694 0.59708 0.0
C1658 C 0.99734 0.12479 0.66131 0.0
C1659 C 0.95564 0.10662 0.66206 0.0
C1660 C 1.0307 0.10324 0.65119 0.0
C1661 C 1.0229 0.06309 0.64173 0.0
C1662 C 0.98239 1.04302 0.64418 0.0
C1663 C 0.94911 0.06452 0.65431 0.0
loop_
_geom_bond_atom_site_label_1
_geom_bond_atom_site_label_2
_geom_bond_distance
_geom_bond_site_symmetry_2
_ccdc_geom_bond_type
Zn0 N4 2.020 1_565 S
Zn0 O8 2.019 . S
Zn0 N10 2.119 . S
Zn0 O18 1.975 1_565 S
C1 N2 1.334 . S
C1 N5 1.336 . S
N2 C1 1.334 . S
N2 C3 1.334 . S
C3 N2 1.334 . S
C3 N4 1.336 . S
N4 Zn0 2.020 1_545 S
N4 C3 1.336 . S
N4 N5 1.354 . S
N5 C1 1.336 . S
N5 N4 1.354 . S
N5 Zn9 2.020 . S
C6 O7 1.244 . S
C6 O30 1.257 . S
O7 C6 1.244 . S
O8 Zn0 2.019 . S
O8 C28 1.257 1_565 S
Zn9 N5 2.020 . S
Zn9 O16 1.975 . S
Zn9 N25 2.119 . S
Zn9 O30 2.019 . S
N10 Zn0 2.119 . S
N10 C12 1.334 . S
N10 C13 1.328 . S
C11 C12 1.391 . S
C11 N14 1.329 . S
C11 H32 0.930 . S
C12 N10 1.334 . S
C12 C11 1.391 . S
C12 H19 0.930 . S
C13 N10 1.328 . S
C13 C15 1.392 . S
C13 H20 0.930 . S
N14 C11 1.329 . S
N14 C15 1.331 . S
C15 C13 1.392 . S
C15 N14 1.331 . S
O16 Zn9 1.975 . S
O16 C17 1.252 . S
C17 O16 1.252 . S
C17 O18 1.252 . S
O18 Zn0 1.975 1_545 S
O18 C17 1.252 . S
H19 C12 0.930 . S
H20 C13 0.930 . S
C21 C22 1.392 . S
C21 N25 1.328 . S
C21 H27 0.930 . S
C22 C21 1.392 . S
C22 N26 1.331 . S
C23 C24 1.391 . S
C23 N26 1.329 . S
C23 H33 0.930 . S
C24 C23 1.391 . S
C24 N25 1.334 . S
C24 H31 0.930 . S
N25 Zn9 2.119 . S
N25 C21 1.328 . S
N25 C24 1.334 . S
N26 C22 1.331 . S
N26 C23 1.329 . S
H27 C21 0.930 . S
C28 O8 1.257 1_545 S
C28 O29 1.244 . S
O29 C28 1.244 . S
O30 C6 1.257 . S
O30 Zn9 2.019 . S
H31 C24 0.930 . S
H32 C11 0.930 . S
H33 C23 0.930 . S
Zn34 N38 2.020 . S
Zn34 O42 2.019 . S
Zn34 N44 2.119 . S
Zn34 O52 1.975 . S
C35 N36 1.334 . S
C35 N39 1.336 . S
N36 C35 1.334 . S
N36 C37 1.334 . S
C37 N36 1.334 . S
C37 N38 1.336 . S
N38 Zn34 2.020 . S
N38 C37 1.336 . S
N38 N39 1.354 . S
N39 C35 1.336 . S
N39 N38 1.354 . S
N39 Zn43 2.020 . S
C40 O41 1.244 . S
C40 O64 1.257 . S
O41 C40 1.244 . S
O42 Zn34 2.019 . S
O42 C62 1.257 . S
Zn43 N39 2.020 . S
Zn43 O50 1.975 . S
Zn43 N59 2.119 . S
Zn43 O64 2.019 . S
N44 Zn34 2.119 . S
N44 C46 1.334 . S
N44 C47 1.328 . S
C45 C46 1.391 . S
C45 N48 1.329 . S
C45 H66 0.930 . S
C46 N44 1.334 . S
C46 C45 1.391 . S
C46 H53 0.930 . S
C47 N44 1.328 . S
C47 C49 1.392 . S
C47 H54 0.930 . S
N48 C45 1.329 . S
N48 C49 1.331 . S
C49 C47 1.392 . S
C49 N48 1.331 . S
O50 Zn43 1.975 . S
O50 C51 1.252 . S
C51 O50 1.252 . S
C51 O52 1.252 . S
O52 Zn34 1.975 . S
O52 C51 1.252 . S
H53 C46 0.930 . S
H54 C47 0.930 . S
C55 C56 1.392 . S
C55 N59 1.328 . S
C55 H61 0.930 . S
C56 C55 1.392 . S
C56 N60 1.331 . S
C57 C58 1.391 . S
C57 N60 1.329 . S
C57 H67 0.930 . S
C58 C57 1.391 . S
C58 N59 1.334 . S
C58 H65 0.930 . S
N59 Zn43 2.119 . S
N59 C55 1.328 . S
N59 C58 1.334 . S
N60 C56 1.331 . S
N60 C57 1.329 . S
H61 C55 0.930 . S
C62 O42 1.257 . S
C62 O63 1.244 . S
O63 C62 1.244 . S
O64 C40 1.257 . S
O64 Zn43 2.019 . S
H65 C58 0.930 . S
H66 C45 0.930 . S
H67 C57 0.930 . S
Zn68 N72 2.020 1_545 S
Zn68 O76 2.019 . S
Zn68 N78 2.119 . S
Zn68 O86 1.975 1_545 S
C69 N70 1.334 . S
C69 N73 1.336 . S
N70 C69 1.334 . S
N70 C71 1.334 . S
C71 N70 1.334 . S
C71 N72 1.336 . S
N72 Zn68 2.020 1_565 S
N72 C71 1.336 . S
N72 N73 1.354 . S
N73 C69 1.336 . S
N73 N72 1.354 . S
N73 Zn77 2.020 . S
C74 O75 1.244 . S
C74 O98 1.257 . S
O75 C74 1.244 . S
O76 Zn68 2.019 . S
O76 C96 1.257 1_545 S
Zn77 N73 2.020 . S
Zn77 O84 1.975 . S
Zn77 N93 2.119 . S
Zn77 O98 2.019 . S
N78 Zn68 2.119 . S
N78 C80 1.334 . S
N78 C81 1.328 . S
C79 C80 1.391 . S
C79 N82 1.329 . S
C79 H100 0.930 . S
C80 N78 1.334 . S
C80 C79 1.391 . S
C80 H87 0.930 . S
C81 N78 1.328 . S
C81 C83 1.392 . S
C81 H88 0.930 . S
N82 C79 1.329 . S
N82 C83 1.331 . S
C83 C81 1.392 . S
C83 N82 1.331 . S
O84 Zn77 1.975 . S
O84 C85 1.252 . S
C85 O84 1.252 . S
C85 O86 1.252 . S
O86 Zn68 1.975 1_565 S
O86 C85 1.252 . S
H87 C80 0.930 . S
H88 C81 0.930 . S
C89 C90 1.392 . S
C89 N93 1.328 . S
C89 H95 0.930 . S
C90 C89 1.392 . S
C90 N94 1.331 . S
C91 C92 1.391 . S
C91 N94 1.329 . S
C91 H101 0.930 . S
C92 C91 1.391 . S
C92 N93 1.334 . S
C92 H99 0.930 . S
N93 Zn77 2.119 . S
N93 C89 1.328 . S
N93 C92 1.334 . S
N94 C90 1.331 . S
N94 C91 1.329 . S
H95 C89 0.930 . S
C96 O76 1.257 1_565 S
C96 O97 1.244 . S
O97 C96 1.244 . S
O98 C74 1.257 . S
O98 Zn77 2.019 . S
H99 C92 0.930 . S
H100 C79 0.930 . S
H101 C91 0.930 . S
Zn102 N106 2.020 . S
Zn102 O110 2.019 . S
Zn102 N112 2.119 . S
Zn102 O120 1.975 . S
C103 N104 1.334 . S
C103 N107 1.336 . S
N104 C103 1.334 . S
N104 C105 1.334 . S
C105 N104 1.334 . S
C105 N106 1.336 . S
N106 Zn102 2.020 . S
N106 C105 1.336 . S
N106 N107 1.354 . S
N107 C103 1.336 . S
N107 N106 1.354 . S
N107 Zn111 2.020 . S
C108 O109 1.244 . S
C108 O132 1.257 . S
O109 C108 1.244 . S
O110 Zn102 2.019 . S
O110 C130 1.257 . S
Zn111 N107 2.020 . S
Zn111 O118 1.975 . S
Zn111 N127 2.119 . S
Zn111 O132 2.019 . S
N112 Zn102 2.119 . S
N112 C114 1.334 . S
N112 C115 1.328 . S
C113 C114 1.391 . S
C113 N116 1.329 . S
C113 H134 0.930 . S
C114 N112 1.334 . S
C114 C113 1.391 . S
C114 H121 0.930 . S
C115 N112 1.328 . S
C115 C117 1.392 . S
C115 H122 0.930 . S
N116 C113 1.329 . S
N116 C117 1.331 . S
C117 C115 1.392 . S
C117 N116 1.331 . S
O118 Zn111 1.975 . S
O118 C119 1.252 . S
C119 O118 1.252 . S
C119 O120 1.252 . S
O120 Zn102 1.975 . S
O120 C119 1.252 . S
H121 C114 0.930 . S
H122 C115 0.930 . S
C123 C124 1.392 . S
C123 N127 1.328 . S
C123 H129 0.930 . S
C124 C123 1.392 . S
C124 N128 1.331 . S
C125 C126 1.391 . S
C125 N128 1.329 . S
C125 H135 0.930 . S
C126 C125 1.391 . S
C126 N127 1.334 . S
C126 H133 0.930 . S
N127 Zn111 2.119 . S
N127 C123 1.328 . S
N127 C126 1.334 . S
N128 C124 1.331 . S
N128 C125 1.329 . S
H129 C123 0.930 . S
C130 O110 1.257 . S
C130 O131 1.244 . S
O131 C130 1.244 . S
O132 C108 1.257 . S
O132 Zn111 2.019 . S
H133 C126 0.930 . S
H134 C113 0.930 . S
H135 C125 0.930 . S
Zn136 N140 2.020 1_545 S
Zn136 O144 2.019 . S
Zn136 N146 2.119 . S
Zn136 O154 1.975 1_545 S
C137 N138 1.334 . S
C137 N141 1.336 . S
N138 C137 1.334 . S
N138 C139 1.334 . S
C139 N138 1.334 . S
C139 N140 1.336 . S
N140 Zn136 2.020 1_565 S
N140 C139 1.336 . S
N140 N141 1.354 . S
N141 C137 1.336 . S
N141 N140 1.354 . S
N141 Zn145 2.020 . S
C142 O143 1.244 . S
C142 O166 1.257 . S
O143 C142 1.244 . S
O144 Zn136 2.019 . S
O144 C164 1.257 1_545 S
Zn145 N141 2.020 . S
Zn145 O152 1.975 . S
Zn145 N161 2.119 . S
Zn145 O166 2.019 . S
N146 Zn136 2.119 . S
N146 C148 1.334 . S
N146 C149 1.328 . S
C147 C148 1.391 . S
C147 N150 1.329 . S
C147 H168 0.930 . S
C148 N146 1.334 . S
C148 C147 1.391 . S
C148 H155 0.930 . S
C149 N146 1.328 . S
C149 C151 1.392 . S
C149 H156 0.930 . S
N150 C147 1.329 . S
N150 C151 1.331 . S
C151 C149 1.392 . S
C151 N150 1.331 . S
O152 Zn145 1.975 . S
O152 C153 1.252 . S
C153 O152 1.252 . S
C153 O154 1.252 . S
O154 Zn136 1.975 1_565 S
O154 C153 1.252 . S
H155 C148 0.930 . S
H156 C149 0.930 . S
C157 C158 1.392 . S
C157 N161 1.328 . S
C157 H163 0.930 . S
C158 C157 1.392 . S
C158 N162 1.331 . S
C159 C160 1.391 . S
C159 N162 1.329 . S
C159 H169 0.930 . S
C160 C159 1.391 . S
C160 N161 1.334 . S
C160 H167 0.930 . S
N161 Zn145 2.119 . S
N161 C157 1.328 . S
N161 C160 1.334 . S
N162 C158 1.331 . S
N162 C159 1.329 . S
H163 C157 0.930 . S
C164 O144 1.257 1_565 S
C164 O165 1.244 . S
O165 C164 1.244 . S
O166 C142 1.257 . S
O166 Zn145 2.019 . S
H167 C160 0.930 . S
H168 C147 0.930 . S
H169 C159 0.930 . S
Zn170 N174 2.020 . S
Zn170 O178 2.019 . S
Zn170 N180 2.119 . S
Zn170 O188 1.975 . S
C171 N172 1.334 . S
C171 N175 1.336 . S
N172 C171 1.334 . S
N172 C173 1.334 . S
C173 N172 1.334 . S
C173 N174 1.336 . S
N174 Zn170 2.020 . S
N174 C173 1.336 . S
N174 N175 1.354 . S
N175 C171 1.336 . S
N175 N174 1.354 . S
N175 Zn179 2.020 . S
C176 O177 1.244 . S
C176 O200 1.257 . S
O177 C176 1.244 . S
O178 Zn170 2.019 . S
O178 C198 1.257 . S
Zn179 N175 2.020 . S
Zn179 O186 1.975 . S
Zn179 N195 2.119 . S
Zn179 O200 2.019 . S
N180 Zn170 2.119 . S
N180 C182 1.334 . S
N180 C183 1.328 . S
C181 C182 1.391 . S
C181 N184 1.329 . S
C181 H202 0.930 . S
C182 N180 1.334 . S
C182 C181 1.391 . S
C182 H189 0.930 . S
C183 N180 1.328 . S
C183 C185 1.392 . S
C183 H190 0.930 . S
N184 C181 1.329 . S
N184 C185 1.331 . S
C185 C183 1.392 . S
C185 N184 1.331 . S
O186 Zn179 1.975 . S
O186 C187 1.252 . S
C187 O186 1.252 . S
C187 O188 1.252 . S
O188 Zn170 1.975 . S
O188 C187 1.252 . S
H189 C182 0.930 . S
H190 C183 0.930 . S
C191 C192 1.392 . S
C191 N195 1.328 . S
C191 H197 0.930 . S
C192 C191 1.392 . S
C192 N196 1.331 . S
C193 C194 1.391 . S
C193 N196 1.329 . S
C193 H203 0.930 . S
C194 C193 1.391 . S
C194 N195 1.334 . S
C194 H201 0.930 . S
N195 Zn179 2.119 . S
N195 C191 1.328 . S
N195 C194 1.334 . S
N196 C192 1.331 . S
N196 C193 1.329 . S
H197 C191 0.930 . S
C198 O178 1.257 . S
C198 O199 1.244 . S
O199 C198 1.244 . S
O200 C176 1.257 . S
O200 Zn179 2.019 . S
H201 C194 0.930 . S
H202 C181 0.930 . S
H203 C193 0.930 . S
Zn204 N208 2.020 . S
Zn204 O212 2.019 . S
Zn204 N214 2.119 . S
Zn204 O222 1.975 . S
C205 N206 1.334 . S
C205 N209 1.336 . S
N206 C205 1.334 . S
N206 C207 1.334 . S
C207 N206 1.334 . S
C207 N208 1.336 . S
N208 Zn204 2.020 . S
N208 C207 1.336 . S
N208 N209 1.354 . S
N209 C205 1.336 . S
N209 N208 1.354 . S
N209 Zn213 2.020 1_545 S
C210 O211 1.244 . S
C210 O234 1.257 1_545 S
O211 C210 1.244 . S
O212 Zn204 2.019 . S
O212 C232 1.257 . S
Zn213 N209 2.020 1_565 S
Zn213 O220 1.975 1_565 S
Zn213 N229 2.119 . S
Zn213 O234 2.019 . S
N214 Zn204 2.119 . S
N214 C216 1.334 . S
N214 C217 1.328 . S
C215 C216 1.391 . S
C215 N218 1.329 . S
C215 H236 0.930 . S
C216 N214 1.334 . S
C216 C215 1.391 . S
C216 H223 0.930 . S
C217 N214 1.328 . S
C217 C219 1.392 . S
C217 H224 0.930 . S
N218 C215 1.329 . S
N218 C219 1.331 . S
C219 C217 1.392 . S
C219 N218 1.331 . S
O220 Zn213 1.975 1_545 S
O220 C221 1.252 . S
C221 O220 1.252 . S
C221 O222 1.252 . S
O222 Zn204 1.975 . S
O222 C221 1.252 . S
H223 C216 0.930 . S
H224 C217 0.930 . S
C225 C226 1.392 . S
C225 N229 1.328 . S
C225 H231 0.930 . S
C226 C225 1.392 . S
C226 N230 1.331 . S
C227 C228 1.391 . S
C227 N230 1.329 . S
C227 H237 0.930 . S
C228 C227 1.391 . S
C228 N229 1.334 . S
C228 H235 0.930 . S
N229 Zn213 2.119 . S
N229 C225 1.328 . S
N229 C228 1.334 . S
N230 C226 1.331 . S
N230 C227 1.329 . S
H231 C225 0.930 . S
C232 O212 1.257 . S
C232 O233 1.244 . S
O233 C232 1.244 . S
O234 C210 1.257 1_565 S
O234 Zn213 2.019 . S
H235 C228 0.930 . S
H236 C215 0.930 . S
H237 C227 0.930 . S
Zn238 N242 2.020 . S
Zn238 O246 2.019 . S
Zn238 N248 2.119 . S
Zn238 O256 1.975 . S
C239 N240 1.334 . S
C239 N243 1.336 . S
N240 C239 1.334 . S
N240 C241 1.334 . S
C241 N240 1.334 . S
C241 N242 1.336 . S
N242 Zn238 2.020 . S
N242 C241 1.336 . S
N242 N243 1.354 . S
N243 C239 1.336 . S
N243 N242 1.354 . S
N243 Zn247 2.020 . S
C244 O245 1.244 . S
C244 O268 1.257 . S
O245 C244 1.244 . S
O246 Zn238 2.019 . S
O246 C266 1.257 . S
Zn247 N243 2.020 . S
Zn247 O254 1.975 . S
Zn247 N263 2.119 . S
Zn247 O268 2.019 . S
N248 Zn238 2.119 . S
N248 C250 1.334 . S
N248 C251 1.328 . S
C249 C250 1.391 . S
C249 N252 1.329 . S
C249 H270 0.930 . S
C250 N248 1.334 . S
C250 C249 1.391 . S
C250 H257 0.930 . S
C251 N248 1.328 . S
C251 C253 1.392 . S
C251 H258 0.930 . S
N252 C249 1.329 . S
N252 C253 1.331 . S
C253 C251 1.392 . S
C253 N252 1.331 . S
O254 Zn247 1.975 . S
O254 C255 1.252 . S
C255 O254 1.252 . S
C255 O256 1.252 . S
O256 Zn238 1.975 . S
O256 C255 1.252 . S
H257 C250 0.930 . S
H258 C251 0.930 . S
C259 C260 1.392 . S
C259 N263 1.328 . S
C259 H265 0.930 . S
C260 C259 1.392 . S
C260 N264 1.331 . S
C261 C262 1.391 . S
C261 N264 1.329 . S
C261 H271 0.930 . S
C262 C261 1.391 . S
C262 N263 1.334 . S
C262 H269 0.930 . S
N263 Zn247 2.119 . S
N263 C259 1.328 . S
N263 C262 1.334 . S
N264 C260 1.331 . S
N264 C261 1.329 . S
H265 C259 0.930 . S
C266 O246 1.257 . S
C266 O267 1.244 . S
O267 C266 1.244 . S
O268 C244 1.257 . S
O268 Zn247 2.019 . S
H269 C262 0.930 . S
H270 C249 0.930 . S
H271 C261 0.930 . S
Zn272 N276 2.020 . S
Zn272 O280 2.019 . S
Zn272 N282 2.119 . S
Zn272 O290 1.975 . S
C273 N274 1.334 . S
C273 N277 1.336 . S
N274 C273 1.334 . S
N274 C275 1.334 . S
C275 N274 1.334 . S
C275 N276 1.336 . S
N276 Zn272 2.020 . S
N276 C275 1.336 . S
N276 N277 1.354 . S
N277 C273 1.336 . S
N277 N276 1.354 . S
N277 Zn281 2.020 . S
C278 O279 1.244 . S
C278 O302 1.257 . S
O279 C278 1.244 . S
O280 Zn272 2.019 . S
O280 C300 1.257 . S
Zn281 N277 2.020 . S
Zn281 O288 1.975 . S
Zn281 N297 2.119 . S
Zn281 O302 2.019 . S
N282 Zn272 2.119 . S
N282 C284 1.334 . S
N282 C285 1.328 . S
C283 C284 1.391 . S
C283 N286 1.329 . S
C283 H304 0.930 . S
C284 N282 1.334 . S
C284 C283 1.391 . S
C284 H291 0.930 . S
C285 N282 1.328 . S
C285 C287 1.392 . S
C285 H292 0.930 . S
N286 C283 1.329 . S
N286 C287 1.331 . S
C287 C285 1.392 . S
C287 N286 1.331 . S
O288 Zn281 1.975 . S
O288 C289 1.252 . S
C289 O288 1.252 . S
C289 O290 1.252 . S
O290 Zn272 1.975 . S
O290 C289 1.252 . S
H291 C284 0.930 . S
H292 C285 0.930 . S
C293 C294 1.392 . S
C293 N297 1.328 . S
C293 H299 0.930 . S
C294 C293 1.392 . S
C294 N298 1.331 . S
C295 C296 1.391 . S
C295 N298 1.329 . S
C295 H305 0.930 . S
C296 C295 1.391 . S
C296 N297 1.334 . S
C296 H303 0.930 . S
N297 Zn281 2.119 . S
N297 C293 1.328 . S
N297 C296 1.334 . S
N298 C294 1.331 . S
N298 C295 1.329 . S
H299 C293 0.930 . S
C300 O280 1.257 . S
C300 O301 1.244 . S
O301 C300 1.244 . S
O302 C278 1.257 . S
O302 Zn281 2.019 . S
H303 C296 0.930 . S
H304 C283 0.930 . S
H305 C295 0.930 . S
Zn306 N310 2.020 . S
Zn306 O314 2.019 . S
Zn306 N316 2.119 . S
Zn306 O324 1.975 . S
C307 N308 1.334 . S
C307 N311 1.336 . S
N308 C307 1.334 . S
N308 C309 1.334 . S
C309 N308 1.334 . S
C309 N310 1.336 . S
N310 Zn306 2.020 . S
N310 C309 1.336 . S
N310 N311 1.354 . S
N311 C307 1.336 . S
N311 N310 1.354 . S
N311 Zn315 2.020 . S
C312 O313 1.244 . S
C312 O336 1.257 . S
O313 C312 1.244 . S
O314 Zn306 2.019 . S
O314 C334 1.257 . S
Zn315 N311 2.020 . S
Zn315 O322 1.975 . S
Zn315 N331 2.119 . S
Zn315 O336 2.019 . S
N316 Zn306 2.119 . S
N316 C318 1.334 . S
N316 C319 1.328 . S
C317 C318 1.391 . S
C317 N320 1.329 . S
C317 H338 0.930 . S
C318 N316 1.334 . S
C318 C317 1.391 . S
C318 H325 0.930 . S
C319 N316 1.328 . S
C319 C321 1.392 . S
C319 H326 0.930 . S
N320 C317 1.329 . S
N320 C321 1.331 . S
C321 C319 1.392 . S
C321 N320 1.331 . S
O322 Zn315 1.975 . S
O322 C323 1.252 . S
C323 O322 1.252 . S
C323 O324 1.252 . S
O324 Zn306 1.975 . S
O324 C323 1.252 . S
H325 C318 0.930 . S
H326 C319 0.930 . S
C327 C328 1.392 . S
C327 N331 1.328 . S
C327 H333 0.930 . S
C328 C327 1.392 . S
C328 N332 1.331 . S
C329 C330 1.391 . S
C329 N332 1.329 . S
C329 H339 0.930 . S
C330 C329 1.391 . S
C330 N331 1.334 . S
C330 H337 0.930 . S
N331 Zn315 2.119 . S
N331 C327 1.328 . S
N331 C330 1.334 . S
N332 C328 1.331 . S
N332 C329 1.329 . S
H333 C327 0.930 . S
C334 O314 1.257 . S
C334 O335 1.244 . S
O335 C334 1.244 . S
O336 C312 1.257 . S
O336 Zn315 2.019 . S
H337 C330 0.930 . S
H338 C317 0.930 . S
H339 C329 0.930 . S
Zn340 N344 2.020 . S
Zn340 O348 2.019 . S
Zn340 N350 2.119 . S
Zn340 O358 1.975 . S
C341 N342 1.334 . S
C341 N345 1.336 . S
N342 C341 1.334 . S
N342 C343 1.334 . S
C343 N342 1.334 . S
C343 N344 1.336 . S
N344 Zn340 2.020 . S
N344 C343 1.336 . S
N344 N345 1.354 . S
N345 C341 1.336 . S
N345 N344 1.354 . S
N345 Zn349 2.020 . S
C346 O347 1.244 . S
C346 O370 1.257 . S
O347 C346 1.244 . S
O348 Zn340 2.019 . S
O348 C368 1.257 . S
Zn349 N345 2.020 . S
Zn349 O356 1.975 . S
Zn349 N365 2.119 . S
Zn349 O370 2.019 . S
N350 Zn340 2.119 . S
N350 C352 1.334 . S
N350 C353 1.328 . S
C351 C352 1.391 . S
C351 N354 1.329 . S
C351 H372 0.930 . S
C352 N350 1.334 . S
C352 C351 1.391 . S
C352 H359 0.930 . S
C353 N350 1.328 . S
C353 C355 1.392 . S
C353 H360 0.930 . S
N354 C351 1.329 . S
N354 C355 1.331 . S
C355 C353 1.392 . S
C355 N354 1.331 . S
O356 Zn349 1.975 . S
O356 C357 1.252 . S
C357 O356 1.252 . S
C357 O358 1.252 . S
O358 Zn340 1.975 . S
O358 C357 1.252 . S
H359 C352 0.930 . S
H360 C353 0.930 . S
C361 C362 1.392 . S
C361 N365 1.328 . S
C361 H367 0.930 . S
C362 C361 1.392 . S
C362 N366 1.331 . S
C363 C364 1.391 . S
C363 N366 1.329 . S
C363 H373 0.930 . S
C364 C363 1.391 . S
C364 N365 1.334 . S
C364 H371 0.930 . S
N365 Zn349 2.119 . S
N365 C361 1.328 . S
N365 C364 1.334 . S
N366 C362 1.331 . S
N366 C363 1.329 . S
H367 C361 0.930 . S
C368 O348 1.257 . S
C368 O369 1.244 . S
O369 C368 1.244 . S
O370 C346 1.257 . S
O370 Zn349 2.019 . S
H371 C364 0.930 . S
H372 C351 0.930 . S
H373 C363 0.930 . S
Zn374 N378 2.020 . S
Zn374 O382 2.019 . S
Zn374 N384 2.119 . S
Zn374 O392 1.975 . S
C375 N376 1.334 . S
C375 N379 1.336 . S
N376 C375 1.334 . S
N376 C377 1.334 . S
C377 N376 1.334 . S
C377 N378 1.336 . S
N378 Zn374 2.020 . S
N378 C377 1.336 . S
N378 N379 1.354 . S
N379 C375 1.336 . S
N379 N378 1.354 . S
N379 Zn383 2.020 . S
C380 O381 1.244 . S
C380 O404 1.257 . S
O381 C380 1.244 . S
O382 Zn374 2.019 . S
O382 C402 1.257 . S
Zn383 N379 2.020 . S
Zn383 O390 1.975 . S
Zn383 N399 2.119 . S
Zn383 O404 2.019 . S
N384 Zn374 2.119 . S
N384 C386 1.334 . S
N384 C387 1.328 . S
C385 C386 1.391 . S
C385 N388 1.329 . S
C385 H406 0.930 . S
C386 N384 1.334 . S
C386 C385 1.391 . S
C386 H393 0.930 . S
C387 N384 1.328 . S
C387 C389 1.392 . S
C387 H394 0.930 . S
N388 C385 1.329 . S
N388 C389 1.331 . S
C389 C387 1.392 . S
C389 N388 1.331 . S
O390 Zn383 1.975 . S
O390 C391 1.252 . S
C391 O390 1.252 . S
C391 O392 1.252 . S
O392 Zn374 1.975 . S
O392 C391 1.252 . S
H393 C386 0.930 . S
H394 C387 0.930 . S
C395 C396 1.392 . S
C395 N399 1.328 . S
C395 H401 0.930 . S
C396 C395 1.392 . S
C396 N400 1.331 . S
C397 C398 1.391 . S
C397 N400 1.329 . S
C397 H407 0.930 . S
C398 C397 1.391 . S
C398 N399 1.334 . S
C398 H405 0.930 . S
N399 Zn383 2.119 . S
N399 C395 1.328 . S
N399 C398 1.334 . S
N400 C396 1.331 . S
N400 C397 1.329 . S
H401 C395 0.930 . S
C402 O382 1.257 . S
C402 O403 1.244 . S
O403 C402 1.244 . S
O404 C380 1.257 . S
O404 Zn383 2.019 . S
H405 C398 0.930 . S
H406 C385 0.930 . S
H407 C397 0.930 . S
Zn408 N412 2.020 . S
Zn408 O416 2.019 . S
Zn408 N418 2.119 . S
Zn408 O426 1.975 . S
C409 N410 1.334 . S
C409 N413 1.336 . S
N410 C409 1.334 . S
N410 C411 1.334 . S
C411 N410 1.334 . S
C411 N412 1.336 . S
N412 Zn408 2.020 . S
N412 C411 1.336 . S
N412 N413 1.354 . S
N413 C409 1.336 . S
N413 N412 1.354 . S
N413 Zn417 2.020 . S
C414 O415 1.244 . S
C414 O438 1.257 . S
O415 C414 1.244 . S
O416 Zn408 2.019 . S
O416 C436 1.257 . S
Zn417 N413 2.020 . S
Zn417 O424 1.975 . S
Zn417 N433 2.119 . S
Zn417 O438 2.019 . S
N418 Zn408 2.119 . S
N418 C420 1.334 . S
N418 C421 1.328 . S
C419 C420 1.391 . S
C419 N422 1.329 . S
C419 H440 0.930 . S
C420 N418 1.334 . S
C420 C419 1.391 . S
C420 H427 0.930 . S
C421 N418 1.328 . S
C421 C423 1.392 . S
C421 H428 0.930 . S
N422 C419 1.329 . S
N422 C423 1.331 . S
C423 C421 1.392 . S
C423 N422 1.331 . S
O424 Zn417 1.975 . S
O424 C425 1.252 . S
C425 O424 1.252 . S
C425 O426 1.252 . S
O426 Zn408 1.975 . S
O426 C425 1.252 . S
H427 C420 0.930 . S
H428 C421 0.930 . S
C429 C430 1.392 . S
C429 N433 1.328 . S
C429 H435 0.930 . S
C430 C429 1.392 . S
C430 N434 1.331 . S
C431 C432 1.391 . S
C431 N434 1.329 . S
C431 H441 0.930 . S
C432 C431 1.391 . S
C432 N433 1.334 . S
C432 H439 0.930 . S
N433 Zn417 2.119 . S
N433 C429 1.328 . S
N433 C432 1.334 . S
N434 C430 1.331 . S
N434 C431 1.329 . S
H435 C429 0.930 . S
C436 O416 1.257 . S
C436 O437 1.244 . S
O437 C436 1.244 . S
O438 C414 1.257 . S
O438 Zn417 2.019 . S
H439 C432 0.930 . S
H440 C419 0.930 . S
H441 C431 0.930 . S
Zn442 N446 2.020 . S
Zn442 O450 2.019 . S
Zn442 N452 2.119 . S
Zn442 O460 1.975 . S
C443 N444 1.334 . S
C443 N447 1.336 . S
N444 C443 1.334 . S
N444 C445 1.334 . S
C445 N444 1.334 . S
C445 N446 1.336 . S
N446 Zn442 2.020 . S
N446 C445 1.336 . S
N446 N447 1.354 . S
N447 C443 1.336 . S
N447 N446 1.354 . S
N447 Zn451 2.020 . S
C448 O449 1.244 . S
C448 O472 1.257 . S
O449 C448 1.244 . S
O450 Zn442 2.019 . S
O450 C470 1.257 . S
Zn451 N447 2.020 . S
Zn451 O458 1.975 . S
Zn451 N467 2.119 . S
Zn451 O472 2.019 . S
N452 Zn442 2.119 . S
N452 C454 1.334 . S
N452 C455 1.328 . S
C453 C454 1.391 . S
C453 N456 1.329 . S
C453 H474 0.930 . S
C454 N452 1.334 . S
C454 C453 1.391 . S
C454 H461 0.930 . S
C455 N452 1.328 . S
C455 C457 1.392 . S
C455 H462 0.930 . S
N456 C453 1.329 . S
N456 C457 1.331 . S
C457 C455 1.392 . S
C457 N456 1.331 . S
O458 Zn451 1.975 . S
O458 C459 1.252 . S
C459 O458 1.252 . S
C459 O460 1.252 . S
O460 Zn442 1.975 . S
O460 C459 1.252 . S
H461 C454 0.930 . S
H462 C455 0.930 . S
C463 C464 1.392 . S
C463 N467 1.328 . S
C463 H469 0.930 . S
C464 C463 1.392 . S
C464 N468 1.331 . S
C465 C466 1.391 . S
C465 N468 1.329 . S
C465 H475 0.930 . S
C466 C465 1.391 . S
C466 N467 1.334 . S
C466 H473 0.930 . S
N467 Zn451 2.119 . S
N467 C463 1.328 . S
N467 C466 1.334 . S
N468 C464 1.331 . S
N468 C465 1.329 . S
H469 C463 0.930 . S
C470 O450 1.257 . S
C470 O471 1.244 . S
O471 C470 1.244 . S
O472 C448 1.257 . S
O472 Zn451 2.019 . S
H473 C466 0.930 . S
H474 C453 0.930 . S
H475 C465 0.930 . S
Zn476 N480 2.020 . S
Zn476 O484 2.019 . S
Zn476 N486 2.119 . S
Zn476 O494 1.975 . S
C477 N478 1.334 . S
C477 N481 1.336 . S
N478 C477 1.334 . S
N478 C479 1.334 . S
C479 N478 1.334 . S
C479 N480 1.336 . S
N480 Zn476 2.020 . S
N480 C479 1.336 . S
N480 N481 1.354 . S
N481 C477 1.336 . S
N481 N480 1.354 . S
N481 Zn485 2.020 . S
C482 O483 1.244 . S
C482 O506 1.257 . S
O483 C482 1.244 . S
O484 Zn476 2.019 . S
O484 C504 1.257 . S
Zn485 N481 2.020 . S
Zn485 O492 1.975 . S
Zn485 N501 2.119 . S
Zn485 O506 2.019 . S
N486 Zn476 2.119 . S
N486 C488 1.334 . S
N486 C489 1.328 . S
C487 C488 1.391 . S
C487 N490 1.329 . S
C487 H508 0.930 . S
C488 N486 1.334 . S
C488 C487 1.391 . S
C488 H495 0.930 . S
C489 N486 1.328 . S
C489 C491 1.392 . S
C489 H496 0.930 . S
N490 C487 1.329 . S
N490 C491 1.331 . S
C491 C489 1.392 . S
C491 N490 1.331 . S
O492 Zn485 1.975 . S
O492 C493 1.252 . S
C493 O492 1.252 . S
C493 O494 1.252 . S
O494 Zn476 1.975 . S
O494 C493 1.252 . S
H495 C488 0.930 . S
H496 C489 0.930 . S
C497 C498 1.392 . S
C497 N501 1.328 . S
C497 H503 0.930 . S
C498 C497 1.392 . S
C498 N502 1.331 . S
C499 C500 1.391 . S
C499 N502 1.329 . S
C499 H509 0.930 . S
C500 C499 1.391 . S
C500 N501 1.334 . S
C500 H507 0.930 . S
N501 Zn485 2.119 . S
N501 C497 1.328 . S
N501 C500 1.334 . S
N502 C498 1.331 . S
N502 C499 1.329 . S
H503 C497 0.930 . S
C504 O484 1.257 . S
C504 O505 1.244 . S
O505 C504 1.244 . S
O506 C482 1.257 . S
O506 Zn485 2.019 . S
H507 C500 0.930 . S
H508 C487 0.930 . S
H509 C499 0.930 . S
Zn510 N514 2.020 . S
Zn510 O518 2.019 . S
Zn510 N520 2.119 . S
Zn510 O528 1.975 . S
C511 N512 1.334 . S
C511 N515 1.336 . S
N512 C511 1.334 . S
N512 C513 1.334 . S
C513 N512 1.334 . S
C513 N514 1.336 . S
N514 Zn510 2.020 . S
N514 C513 1.336 . S
N514 N515 1.354 . S
N515 C511 1.336 . S
N515 N514 1.354 . S
N515 Zn519 2.020 . S
C516 O517 1.244 . S
C516 O540 1.257 . S
O517 C516 1.244 . S
O518 Zn510 2.019 . S
O518 C538 1.257 . S
Zn519 N515 2.020 . S
Zn519 O526 1.975 . S
Zn519 N535 2.119 . S
Zn519 O540 2.019 . S
N520 Zn510 2.119 . S
N520 C522 1.334 . S
N520 C523 1.328 . S
C521 C522 1.391 . S
C521 N524 1.329 . S
C521 H542 0.930 . S
C522 N520 1.334 . S
C522 C521 1.391 . S
C522 H529 0.930 . S
C523 N520 1.328 . S
C523 C525 1.392 . S
C523 H530 0.930 . S
N524 C521 1.329 . S
N524 C525 1.331 . S
C525 C523 1.392 . S
C525 N524 1.331 . S
O526 Zn519 1.975 . S
O526 C527 1.252 . S
C527 O526 1.252 . S
C527 O528 1.252 . S
O528 Zn510 1.975 . S
O528 C527 1.252 . S
H529 C522 0.930 . S
H530 C523 0.930 . S
C531 C532 1.392 . S
C531 N535 1.328 . S
C531 H537 0.930 . S
C532 C531 1.392 . S
C532 N536 1.331 . S
C533 C534 1.391 . S
C533 N536 1.329 . S
C533 H543 0.930 . S
C534 C533 1.391 . S
C534 N535 1.334 . S
C534 H541 0.930 . S
N535 Zn519 2.119 . S
N535 C531 1.328 . S
N535 C534 1.334 . S
N536 C532 1.331 . S
N536 C533 1.329 . S
H537 C531 0.930 . S
C538 O518 1.257 . S
C538 O539 1.244 . S
O539 C538 1.244 . S
O540 C516 1.257 . S
O540 Zn519 2.019 . S
H541 C534 0.930 . S
H542 C521 0.930 . S
H543 C533 0.930 . S
H544 C552 0.950 . S
H545 C557 0.950 . S
H546 C554 0.950 . S
H547 C556 0.950 . S
H548 C558 0.950 . S
H549 C560 0.950 . S
H550 C562 0.950 . S
H551 C563 0.950 . S
C552 H544 0.950 . S
C552 C553 1.386 . S
C552 C554 1.391 . S
C553 C552 1.386 . S
C553 C557 1.393 . S
C554 H546 0.950 . S
C554 C552 1.391 . S
C554 C555 1.400 . S
C555 C554 1.400 . S
C555 C556 1.398 . S
C555 C561 1.491 . S
C556 H547 0.950 . S
C556 C555 1.398 . S
C556 C557 1.391 . S
C557 H545 0.950 . S
C557 C553 1.393 . S
C557 C556 1.391 . S
C558 H548 0.950 . S
C558 C559 1.386 . S
C558 C560 1.391 . S
C559 C558 1.386 . S
C559 C563 1.393 . S
C560 H549 0.950 . S
C560 C558 1.391 . S
C560 C561 1.400 . S
C561 C555 1.491 . S
C561 C560 1.400 . S
C561 C562 1.398 . S
C562 H550 0.950 . S
C562 C561 1.398 . S
C562 C563 1.391 . S
C563 H551 0.950 . S
C563 C559 1.393 . S
C563 C562 1.391 . S
H564 C572 0.950 . S
H565 C577 0.950 . S
H566 C574 0.950 . S
H567 C576 0.950 . S
H568 C578 0.950 . S
H569 C580 0.950 . S
H570 C582 0.950 . S
H571 C583 0.950 . S
C572 H564 0.950 . S
C572 C573 1.386 . S
C572 C574 1.391 . S
C573 C572 1.386 . S
C573 C577 1.393 . S
C574 H566 0.950 . S
C574 C572 1.391 . S
C574 C575 1.400 . S
C575 C574 1.400 . S
C575 C576 1.398 . S
C575 C581 1.491 . S
C576 H567 0.950 . S
C576 C575 1.398 . S
C576 C577 1.391 . S
C577 H565 0.950 . S
C577 C573 1.393 . S
C577 C576 1.391 . S
C578 H568 0.950 . S
C578 C579 1.386 . S
C578 C580 1.391 . S
C579 C578 1.386 . S
C579 C583 1.393 . S
C580 H569 0.950 . S
C580 C578 1.391 . S
C580 C581 1.400 . S
C581 C575 1.491 . S
C581 C580 1.400 . S
C581 C582 1.398 . S
C582 H570 0.950 . S
C582 C581 1.398 . S
C582 C583 1.391 . S
C583 H571 0.950 . S
C583 C579 1.393 . S
C583 C582 1.391 . S
H584 C592 0.950 . S
H585 C597 0.950 . S
H586 C594 0.950 . S
H587 C596 0.950 . S
H588 C598 0.950 . S
H589 C600 0.950 . S
H590 C602 0.950 . S
H591 C603 0.950 . S
C592 H584 0.950 . S
C592 C593 1.386 . S
C592 C594 1.391 . S
C593 C592 1.386 . S
C593 C597 1.393 . S
C594 H586 0.950 . S
C594 C592 1.391 . S
C594 C595 1.400 . S
C595 C594 1.400 . S
C595 C596 1.398 . S
C595 C601 1.491 . S
C596 H587 0.950 . S
C596 C595 1.398 . S
C596 C597 1.391 . S
C597 H585 0.950 . S
C597 C593 1.393 . S
C597 C596 1.391 . S
C598 H588 0.950 . S
C598 C599 1.386 . S
C598 C600 1.391 . S
C599 C598 1.386 . S
C599 C603 1.393 . S
C600 H589 0.950 . S
C600 C598 1.391 . S
C600 C601 1.400 . S
C601 C595 1.491 . S
C601 C600 1.400 . S
C601 C602 1.398 . S
C602 H590 0.950 . S
C602 C601 1.398 . S
C602 C603 1.391 . S
C603 H591 0.950 . S
C603 C599 1.393 . S
C603 C602 1.391 . S
H604 C612 0.950 . S
H605 C617 0.950 . S
H606 C614 0.950 . S
H607 C616 0.950 . S
H608 C618 0.950 1_655 S
H609 C620 0.950 . S
H610 C622 0.950 . S
H611 C623 0.950 . S
C612 H604 0.950 . S
C612 C613 1.386 . S
C612 C614 1.391 . S
C613 C612 1.386 . S
C613 C617 1.393 . S
C614 H606 0.950 . S
C614 C612 1.391 . S
C614 C615 1.400 . S
C615 C614 1.400 . S
C615 C616 1.398 . S
C615 C621 1.491 . S
C616 H607 0.950 . S
C616 C615 1.398 . S
C616 C617 1.391 . S
C617 H605 0.950 . S
C617 C613 1.393 . S
C617 C616 1.391 . S
C618 H608 0.950 1_455 S
C618 C619 1.386 . S
C618 C620 1.391 . S
C619 C618 1.386 . S
C619 C623 1.393 . S
C620 H609 0.950 . S
C620 C618 1.391 . S
C620 C621 1.400 . S
C621 C615 1.491 . S
C621 C620 1.400 . S
C621 C622 1.398 . S
C622 H610 0.950 . S
C622 C621 1.398 . S
C622 C623 1.391 . S
C623 H611 0.950 . S
C623 C619 1.393 . S
C623 C622 1.391 . S
H624 C632 0.950 . S
H625 C637 0.950 . S
H626 C634 0.950 . S
H627 C636 0.950 . S
H628 C638 0.950 . S
H629 C640 0.950 . S
H630 C642 0.950 . S
H631 C643 0.950 . S
C632 H624 0.950 . S
C632 C633 1.386 . S
C632 C634 1.391 . S
C633 C632 1.386 . S
C633 C637 1.393 . S
C634 H626 0.950 . S
C634 C632 1.391 . S
C634 C635 1.400 . S
C635 C634 1.400 . S
C635 C636 1.398 . S
C635 C641 1.491 . S
C636 H627 0.950 . S
C636 C635 1.398 . S
C636 C637 1.391 . S
C637 H625 0.950 . S
C637 C633 1.393 . S
C637 C636 1.391 . S
C638 H628 0.950 . S
C638 C639 1.386 . S
C638 C640 1.391 . S
C639 C638 1.386 . S
C639 C643 1.393 . S
C640 H629 0.950 . S
C640 C638 1.391 . S
C640 C641 1.400 . S
C641 C635 1.491 . S
C641 C640 1.400 . S
C641 C642 1.398 . S
C642 H630 0.950 . S
C642 C641 1.398 . S
C642 C643 1.391 . S
C643 H631 0.950 . S
C643 C639 1.393 . S
C643 C642 1.391 . S
H644 C652 0.950 . S
H645 C657 0.950 . S
H646 C654 0.950 . S
H647 C656 0.950 . S
H648 C658 0.950 . S
H649 C660 0.950 . S
H650 C662 0.950 . S
H651 C663 0.950 . S
C652 H644 0.950 . S
C652 C653 1.386 . S
C652 C654 1.391 . S
C653 C652 1.386 . S
C653 C657 1.393 . S
C654 H646 0.950 . S
C654 C652 1.391 . S
C654 C655 1.400 . S
C655 C654 1.400 . S
C655 C656 1.398 . S
C655 C661 1.491 . S
C656 H647 0.950 . S
C656 C655 1.398 . S
C656 C657 1.391 . S
C657 H645 0.950 . S
C657 C653 1.393 . S
C657 C656 1.391 . S
C658 H648 0.950 . S
C658 C659 1.386 . S
C658 C660 1.391 . S
C659 C658 1.386 . S
C659 C663 1.393 . S
C660 H649 0.950 . S
C660 C658 1.391 . S
C660 C661 1.400 . S
C661 C655 1.491 . S
C661 C660 1.400 . S
C661 C662 1.398 . S
C662 H650 0.950 . S
C662 C661 1.398 . S
C662 C663 1.391 . S
C663 H651 0.950 . S
C663 C659 1.393 . S
C663 C662 1.391 . S
H664 C672 0.950 . S
H665 C677 0.950 . S
H666 C674 0.950 . S
H667 C676 0.950 . S
H668 C678 0.950 . S
H669 C680 0.950 . S
H670 C682 0.950 . S
H671 C683 0.950 . S
C672 H664 0.950 . S
C672 C673 1.386 . S
C672 C674 1.391 . S
C673 C672 1.386 . S
C673 C677 1.393 . S
C674 H666 0.950 . S
C674 C672 1.391 . S
C674 C675 1.400 . S
C675 C674 1.400 . S
C675 C676 1.398 . S
C675 C681 1.491 . S
C676 H667 0.950 . S
C676 C675 1.398 . S
C676 C677 1.391 . S
C677 H665 0.950 . S
C677 C673 1.393 . S
C677 C676 1.391 . S
C678 H668 0.950 . S
C678 C679 1.386 . S
C678 C680 1.391 . S
C679 C678 1.386 . S
C679 C683 1.393 . S
C680 H669 0.950 . S
C680 C678 1.391 . S
C680 C681 1.400 . S
C681 C675 1.491 . S
C681 C680 1.400 . S
C681 C682 1.398 . S
C682 H670 0.950 . S
C682 C681 1.398 . S
C682 C683 1.391 . S
C683 H671 0.950 . S
C683 C679 1.393 . S
C683 C682 1.391 . S
H684 C692 0.950 . S
H685 C697 0.950 . S
H686 C694 0.950 . S
H687 C696 0.950 . S
H688 C698 0.950 1_455 S
H689 C700 0.950 . S
H690 C702 0.950 . S
H691 C703 0.950 . S
C692 H684 0.950 . S
C692 C693 1.386 . S
C692 C694 1.391 . S
C693 C692 1.386 . S
C693 C697 1.393 . S
C694 H686 0.950 . S
C694 C692 1.391 . S
C694 C695 1.400 . S
C695 C694 1.400 . S
C695 C696 1.398 . S
C695 C701 1.491 . S
C696 H687 0.950 . S
C696 C695 1.398 . S
C696 C697 1.391 . S
C697 H685 0.950 . S
C697 C693 1.393 . S
C697 C696 1.391 . S
C698 H688 0.950 1_655 S
C698 C699 1.386 . S
C698 C700 1.391 . S
C699 C698 1.386 . S
C699 C703 1.393 . S
C700 H689 0.950 . S
C700 C698 1.391 . S
C700 C701 1.400 . S
C701 C695 1.491 . S
C701 C700 1.400 . S
C701 C702 1.398 . S
C702 H690 0.950 . S
C702 C701 1.398 . S
C702 C703 1.391 . S
C703 H691 0.950 . S
C703 C699 1.393 . S
C703 C702 1.391 . S
H704 C712 0.950 . S
H705 C717 0.950 . S
H706 C714 0.950 . S
H707 C716 0.950 . S
H708 C718 0.950 . S
H709 C720 0.950 . S
H710 C722 0.950 . S
H711 C723 0.950 . S
C712 H704 0.950 . S
C712 C713 1.386 . S
C712 C714 1.391 . S
C713 C712 1.386 . S
C713 C717 1.393 . S
C714 H706 0.950 . S
C714 C712 1.391 . S
C714 C715 1.400 . S
C715 C714 1.400 . S
C715 C716 1.398 . S
C715 C721 1.491 . S
C716 H707 0.950 . S
C716 C715 1.398 . S
C716 C717 1.391 . S
C717 H705 0.950 . S
C717 C713 1.393 . S
C717 C716 1.391 . S
C718 H708 0.950 . S
C718 C719 1.386 . S
C718 C720 1.391 . S
C719 C718 1.386 . S
C719 C723 1.393 . S
C720 H709 0.950 . S
C720 C718 1.391 . S
C720 C721 1.400 . S
C721 C715 1.491 . S
C721 C720 1.400 . S
C721 C722 1.398 . S
C722 H710 0.950 . S
C722 C721 1.398 . S
C722 C723 1.391 . S
C723 H711 0.950 . S
C723 C719 1.393 . S
C723 C722 1.391 . S
H724 C732 0.950 1_465 S
H725 C737 0.950 . S
H726 C734 0.950 . S
H727 C736 0.950 . S
H728 C738 0.950 . S
H729 C740 0.950 . S
H730 C742 0.950 . S
H731 C743 0.950 . S
C732 H724 0.950 1_645 S
C732 C733 1.386 . S
C732 C734 1.391 1_545 S
C733 C732 1.386 . S
C733 C737 1.393 . S
C734 H726 0.950 . S
C734 C732 1.391 1_565 S
C734 C735 1.400 1_565 S
C735 C734 1.400 1_545 S
C735 C736 1.398 . S
C735 C741 1.491 . S
C736 H727 0.950 . S
C736 C735 1.398 . S
C736 C737 1.391 . S
C737 H725 0.950 . S
C737 C733 1.393 . S
C737 C736 1.391 . S
C738 H728 0.950 . S
C738 C739 1.386 1_545 S
C738 C740 1.391 . S
C739 C738 1.386 1_565 S
C739 C743 1.393 . S
C740 H729 0.950 . S
C740 C738 1.391 . S
C740 C741 1.400 . S
C741 C735 1.491 . S
C741 C740 1.400 . S
C741 C742 1.398 1_545 S
C742 H730 0.950 . S
C742 C741 1.398 1_565 S
C742 C743 1.391 . S
C743 H731 0.950 . S
C743 C739 1.393 . S
C743 C742 1.391 . S
H744 C752 0.950 . S
H745 C757 0.950 . S
H746 C754 0.950 . S
H747 C756 0.950 . S
H748 C758 0.950 . S
H749 C760 0.950 . S
H750 C762 0.950 . S
H751 C763 0.950 . S
C752 H744 0.950 . S
C752 C753 1.386 . S
C752 C754 1.391 . S
C753 C752 1.386 . S
C753 C757 1.393 . S
C754 H746 0.950 . S
C754 C752 1.391 . S
C754 C755 1.400 . S
C755 C754 1.400 . S
C755 C756 1.398 . S
C755 C761 1.491 . S
C756 H747 0.950 . S
C756 C755 1.398 . S
C756 C757 1.391 . S
C757 H745 0.950 . S
C757 C753 1.393 . S
C757 C756 1.391 . S
C758 H748 0.950 . S
C758 C759 1.386 . S
C758 C760 1.391 . S
C759 C758 1.386 . S
C759 C763 1.393 . S
C760 H749 0.950 . S
C760 C758 1.391 . S
C760 C761 1.400 . S
C761 C755 1.491 . S
C761 C760 1.400 . S
C761 C762 1.398 . S
C762 H750 0.950 . S
C762 C761 1.398 . S
C762 C763 1.391 . S
C763 H751 0.950 . S
C763 C759 1.393 . S
C763 C762 1.391 . S
H764 C772 0.950 . S
H765 C777 0.950 . S
H766 C774 0.950 . S
H767 C776 0.950 . S
H768 C778 0.950 1_545 S
H769 C780 0.950 . S
H770 C782 0.950 . S
H771 C783 0.950 . S
C772 H764 0.950 . S
C772 C773 1.386 1_565 S
C772 C774 1.391 . S
C773 C772 1.386 1_545 S
C773 C777 1.393 . S
C774 H766 0.950 . S
C774 C772 1.391 . S
C774 C775 1.400 . S
C775 C774 1.400 . S
C775 C776 1.398 1_565 S
C775 C781 1.491 . S
C776 H767 0.950 . S
C776 C775 1.398 1_545 S
C776 C777 1.391 . S
C777 H765 0.950 . S
C777 C773 1.393 . S
C777 C776 1.391 . S
C778 H768 0.950 1_565 S
C778 C779 1.386 . S
C778 C780 1.391 1_565 S
C779 C778 1.386 . S
C779 C783 1.393 . S
C780 H769 0.950 . S
C780 C778 1.391 1_545 S
C780 C781 1.400 1_545 S
C781 C775 1.491 . S
C781 C780 1.400 1_565 S
C781 C782 1.398 . S
C782 H770 0.950 . S
C782 C781 1.398 . S
C782 C783 1.391 . S
C783 H771 0.950 . S
C783 C779 1.393 . S
C783 C782 1.391 . S
H784 C792 0.950 . S
H785 C797 0.950 . S
H786 C794 0.950 . S
H787 C796 0.950 . S
H788 C798 0.950 . S
H789 C800 0.950 . S
H790 C802 0.950 . S
H791 C803 0.950 . S
C792 H784 0.950 . S
C792 C793 1.386 . S
C792 C794 1.391 . S
C793 C792 1.386 . S
C793 C797 1.393 . S
C794 H786 0.950 . S
C794 C792 1.391 . S
C794 C795 1.400 . S
C795 C794 1.400 . S
C795 C796 1.398 . S
C795 C801 1.491 . S
C796 H787 0.950 . S
C796 C795 1.398 . S
C796 C797 1.391 . S
C797 H785 0.950 . S
C797 C793 1.393 . S
C797 C796 1.391 . S
C798 H788 0.950 . S
C798 C799 1.386 . S
C798 C800 1.391 . S
C799 C798 1.386 . S
C799 C803 1.393 . S
C800 H789 0.950 . S
C800 C798 1.391 . S
C800 C801 1.400 . S
C801 C795 1.491 . S
C801 C800 1.400 . S
C801 C802 1.398 . S
C802 H790 0.950 . S
C802 C801 1.398 . S
C802 C803 1.391 . S
C803 H791 0.950 . S
C803 C799 1.393 . S
C803 C802 1.391 . S
H804 C812 0.950 1_645 S
H805 C817 0.950 . S
H806 C814 0.950 . S
H807 C816 0.950 . S
H808 C818 0.950 . S
H809 C820 0.950 . S
H810 C822 0.950 . S
H811 C823 0.950 . S
C812 H804 0.950 1_465 S
C812 C813 1.386 . S
C812 C814 1.391 1_565 S
C813 C812 1.386 . S
C813 C817 1.393 . S
C814 H806 0.950 . S
C814 C812 1.391 1_545 S
C814 C815 1.400 1_545 S
C815 C814 1.400 1_565 S
C815 C816 1.398 . S
C815 C821 1.491 . S
C816 H807 0.950 . S
C816 C815 1.398 . S
C816 C817 1.391 . S
C817 H805 0.950 . S
C817 C813 1.393 . S
C817 C816 1.391 . S
C818 H808 0.950 . S
C818 C819 1.386 1_565 S
C818 C820 1.391 . S
C819 C818 1.386 1_545 S
C819 C823 1.393 . S
C820 H809 0.950 . S
C820 C818 1.391 . S
C820 C821 1.400 . S
C821 C815 1.491 . S
C821 C820 1.400 . S
C821 C822 1.398 1_565 S
C822 H810 0.950 . S
C822 C821 1.398 1_545 S
C822 C823 1.391 . S
C823 H811 0.950 . S
C823 C819 1.393 . S
C823 C822 1.391 . S
H824 C832 0.950 . S
H825 C837 0.950 . S
H826 C834 0.950 . S
H827 C836 0.950 . S
H828 C838 0.950 . S
H829 C840 0.950 . S
H830 C842 0.950 . S
H831 C843 0.950 . S
C832 H824 0.950 . S
C832 C833 1.386 . S
C832 C834 1.391 . S
C833 C832 1.386 . S
C833 C837 1.393 . S
C834 H826 0.950 . S
C834 C832 1.391 . S
C834 C835 1.400 . S
C835 C834 1.400 . S
C835 C836 1.398 . S
C835 C841 1.491 . S
C836 H827 0.950 . S
C836 C835 1.398 . S
C836 C837 1.391 . S
C837 H825 0.950 . S
C837 C833 1.393 . S
C837 C836 1.391 . S
C838 H828 0.950 . S
C838 C839 1.386 . S
C838 C840 1.391 . S
C839 C838 1.386 . S
C839 C843 1.393 . S
C840 H829 0.950 . S
C840 C838 1.391 . S
C840 C841 1.400 . S
C841 C835 1.491 . S
C841 C840 1.400 . S
C841 C842 1.398 . S
C842 H830 0.950 . S
C842 C841 1.398 . S
C842 C843 1.391 . S
C843 H831 0.950 . S
C843 C839 1.393 . S
C843 C842 1.391 . S
H844 C852 0.950 . S
H845 C857 0.950 . S
H846 C854 0.950 . S
H847 C856 0.950 . S
H848 C858 0.950 . S
H849 C860 0.950 1_565 S
H850 C862 0.950 . S
H851 C863 0.950 . S
C852 H844 0.950 . S
C852 C853 1.386 1_545 S
C852 C854 1.391 . S
C853 C852 1.386 1_565 S
C853 C857 1.393 . S
C854 H846 0.950 . S
C854 C852 1.391 . S
C854 C855 1.400 . S
C855 C854 1.400 . S
C855 C856 1.398 1_545 S
C855 C861 1.491 . S
C856 H847 0.950 . S
C856 C855 1.398 1_565 S
C856 C857 1.391 . S
C857 H845 0.950 . S
C857 C853 1.393 . S
C857 C856 1.391 . S
C858 H848 0.950 . S
C858 C859 1.386 . S
C858 C860 1.391 . S
C859 C858 1.386 . S
C859 C863 1.393 . S
C860 H849 0.950 1_545 S
C860 C858 1.391 . S
C860 C861 1.400 . S
C861 C855 1.491 . S
C861 C860 1.400 . S
C861 C862 1.398 . S
C862 H850 0.950 . S
C862 C861 1.398 . S
C862 C863 1.391 . S
C863 H851 0.950 . S
C863 C859 1.393 . S
C863 C862 1.391 . S
H864 C872 0.950 . S
H865 C877 0.950 . S
H866 C874 0.950 . S
H867 C876 0.950 . S
H868 C878 0.950 . S
H869 C880 0.950 . S
H870 C882 0.950 . S
H871 C883 0.950 . S
C872 H864 0.950 . S
C872 C873 1.386 . S
C872 C874 1.391 . S
C873 C872 1.386 . S
C873 C877 1.393 . S
C874 H866 0.950 . S
C874 C872 1.391 . S
C874 C875 1.400 . S
C875 C874 1.400 . S
C875 C876 1.398 . S
C875 C881 1.491 . S
C876 H867 0.950 . S
C876 C875 1.398 . S
C876 C877 1.391 . S
C877 H865 0.950 . S
C877 C873 1.393 . S
C877 C876 1.391 . S
C878 H868 0.950 . S
C878 C879 1.386 . S
C878 C880 1.391 1_554 S
C879 C878 1.386 . S
C879 C883 1.393 . S
C880 H869 0.950 . S
C880 C878 1.391 1_556 S
C880 C881 1.400 . S
C881 C875 1.491 . S
C881 C880 1.400 . S
C881 C882 1.398 . S
C882 H870 0.950 . S
C882 C881 1.398 . S
C882 C883 1.391 1_556 S
C883 H871 0.950 . S
C883 C879 1.393 . S
C883 C882 1.391 1_554 S
H884 C892 0.950 . S
H885 C897 0.950 . S
H886 C894 0.950 . S
H887 C896 0.950 . S
H888 C898 0.950 . S
H889 C900 0.950 . S
H890 C902 0.950 . S
H891 C903 0.950 . S
C892 H884 0.950 . S
C892 C893 1.386 . S
C892 C894 1.391 . S
C893 C892 1.386 . S
C893 C897 1.393 . S
C894 H886 0.950 . S
C894 C892 1.391 . S
C894 C895 1.400 . S
C895 C894 1.400 . S
C895 C896 1.398 . S
C895 C901 1.491 . S
C896 H887 0.950 . S
C896 C895 1.398 . S
C896 C897 1.391 . S
C897 H885 0.950 . S
C897 C893 1.393 . S
C897 C896 1.391 . S
C898 H888 0.950 . S
C898 C899 1.386 . S
C898 C900 1.391 . S
C899 C898 1.386 . S
C899 C903 1.393 . S
C900 H889 0.950 . S
C900 C898 1.391 . S
C900 C901 1.400 . S
C901 C895 1.491 . S
C901 C900 1.400 . S
C901 C902 1.398 . S
C902 H890 0.950 . S
C902 C901 1.398 . S
C902 C903 1.391 . S
C903 H891 0.950 . S
C903 C899 1.393 . S
C903 C902 1.391 . S
H904 C912 0.950 . S
H905 C917 0.950 . S
H906 C914 0.950 . S
H907 C916 0.950 . S
H908 C918 0.950 . S
H909 C920 0.950 . S
H910 C922 0.950 . S
H911 C923 0.950 . S
C912 H904 0.950 . S
C912 C913 1.386 . S
C912 C914 1.391 . S
C913 C912 1.386 . S
C913 C917 1.393 . S
C914 H906 0.950 . S
C914 C912 1.391 . S
C914 C915 1.400 . S
C915 C914 1.400 . S
C915 C916 1.398 . S
C915 C921 1.491 . S
C916 H907 0.950 . S
C916 C915 1.398 . S
C916 C917 1.391 . S
C917 H905 0.950 . S
C917 C913 1.393 . S
C917 C916 1.391 . S
C918 H908 0.950 . S
C918 C919 1.386 . S
C918 C920 1.391 . S
C919 C918 1.386 . S
C919 C923 1.393 . S
C920 H909 0.950 . S
C920 C918 1.391 . S
C920 C921 1.400 . S
C921 C915 1.491 . S
C921 C920 1.400 . S
C921 C922 1.398 . S
C922 H910 0.950 . S
C922 C921 1.398 . S
C922 C923 1.391 . S
C923 H911 0.950 . S
C923 C919 1.393 . S
C923 C922 1.391 . S
H924 C932 0.950 . S
H925 C937 0.950 . S
H926 C934 0.950 . S
H927 C936 0.950 . S
H928 C938 0.950 . S
H929 C940 0.950 . S
H930 C942 0.950 . S
H931 C943 0.950 . S
C932 H924 0.950 . S
C932 C933 1.386 . S
C932 C934 1.391 . S
C933 C932 1.386 . S
C933 C937 1.393 . S
C934 H926 0.950 . S
C934 C932 1.391 . S
C934 C935 1.400 . S
C935 C934 1.400 . S
C935 C936 1.398 . S
C935 C941 1.491 . S
C936 H927 0.950 . S
C936 C935 1.398 . S
C936 C937 1.391 . S
C937 H925 0.950 . S
C937 C933 1.393 . S
C937 C936 1.391 . S
C938 H928 0.950 . S
C938 C939 1.386 . S
C938 C940 1.391 . S
C939 C938 1.386 . S
C939 C943 1.393 . S
C940 H929 0.950 . S
C940 C938 1.391 . S
C940 C941 1.400 . S
C941 C935 1.491 . S
C941 C940 1.400 . S
C941 C942 1.398 . S
C942 H930 0.950 . S
C942 C941 1.398 . S
C942 C943 1.391 . S
C943 H931 0.950 . S
C943 C939 1.393 . S
C943 C942 1.391 . S
H944 C952 0.950 . S
H945 C957 0.950 . S
H946 C954 0.950 . S
H947 C956 0.950 . S
H948 C958 0.950 . S
H949 C960 0.950 1_554 S
H950 C962 0.950 . S
H951 C963 0.950 . S
C952 H944 0.950 . S
C952 C953 1.386 . S
C952 C954 1.391 . S
C953 C952 1.386 . S
C953 C957 1.393 . S
C954 H946 0.950 . S
C954 C952 1.391 . S
C954 C955 1.400 . S
C955 C954 1.400 . S
C955 C956 1.398 . S
C955 C961 1.491 . S
C956 H947 0.950 . S
C956 C955 1.398 . S
C956 C957 1.391 . S
C957 H945 0.950 . S
C957 C953 1.393 . S
C957 C956 1.391 . S
C958 H948 0.950 . S
C958 C959 1.386 . S
C958 C960 1.391 . S
C959 C958 1.386 . S
C959 C963 1.393 . S
C960 H949 0.950 1_556 S
C960 C958 1.391 . S
C960 C961 1.400 1_556 S
C961 C955 1.491 . S
C961 C960 1.400 1_554 S
C961 C962 1.398 . S
C962 H950 0.950 . S
C962 C961 1.398 . S
C962 C963 1.391 1_554 S
C963 H951 0.950 . S
C963 C959 1.393 . S
C963 C962 1.391 1_556 S
H964 C972 0.950 . S
H965 C977 0.950 . S
H966 C974 0.950 . S
H967 C976 0.950 . S
H968 C978 0.950 . S
H969 C980 0.950 . S
H970 C982 0.950 . S
H971 C983 0.950 . S
C972 H964 0.950 . S
C972 C973 1.386 . S
C972 C974 1.391 . S
C973 C972 1.386 . S
C973 C977 1.393 . S
C974 H966 0.950 . S
C974 C972 1.391 . S
C974 C975 1.400 . S
C975 C974 1.400 . S
C975 C976 1.398 . S
C975 C981 1.491 . S
C976 H967 0.950 . S
C976 C975 1.398 . S
C976 C977 1.391 . S
C977 H965 0.950 . S
C977 C973 1.393 . S
C977 C976 1.391 . S
C978 H968 0.950 . S
C978 C979 1.386 . S
C978 C980 1.391 . S
C979 C978 1.386 . S
C979 C983 1.393 . S
C980 H969 0.950 . S
C980 C978 1.391 . S
C980 C981 1.400 . S
C981 C975 1.491 . S
C981 C980 1.400 . S
C981 C982 1.398 . S
C982 H970 0.950 . S
C982 C981 1.398 . S
C982 C983 1.391 . S
C983 H971 0.950 . S
C983 C979 1.393 . S
C983 C982 1.391 . S
H984 C992 0.950 . S
H985 C997 0.950 . S
H986 C994 0.950 . S
H987 C996 0.950 . S
H988 C998 0.950 . S
H989 C1000 0.950 . S
H990 C1002 0.950 . S
H991 C1003 0.950 . S
C992 H984 0.950 . S
C992 C993 1.386 . S
C992 C994 1.391 . S
C993 C992 1.386 . S
C993 C997 1.393 . S
C994 H986 0.950 . S
C994 C992 1.391 . S
C994 C995 1.400 . S
C995 C994 1.400 . S
C995 C996 1.398 . S
C995 C1001 1.491 . S
C996 H987 0.950 . S
C996 C995 1.398 . S
C996 C997 1.391 . S
C997 H985 0.950 . S
C997 C993 1.393 . S
C997 C996 1.391 . S
C998 H988 0.950 . S
C998 C999 1.386 . S
C998 C1000 1.391 . S
C999 C998 1.386 . S
C999 C1003 1.393 . S
C1000 H989 0.950 . S
C1000 C998 1.391 . S
C1000 C1001 1.400 . S
C1001 C995 1.491 . S
C1001 C1000 1.400 . S
C1001 C1002 1.398 . S
C1002 H990 0.950 . S
C1002 C1001 1.398 . S
C1002 C1003 1.391 . S
C1003 H991 0.950 . S
C1003 C999 1.393 . S
C1003 C1002 1.391 . S
H1004 C1012 0.950 . S
H1005 C1017 0.950 . S
H1006 C1014 0.950 . S
H1007 C1016 0.950 . S
H1008 C1018 0.950 . S
H1009 C1020 0.950 . S
H1010 C1022 0.950 . S
H1011 C1023 0.950 . S
C1012 H1004 0.950 . S
C1012 C1013 1.386 . S
C1012 C1014 1.391 . S
C1013 C1012 1.386 . S
C1013 C1017 1.393 . S
C1014 H1006 0.950 . S
C1014 C1012 1.391 . S
C1014 C1015 1.400 . S
C1015 C1014 1.400 . S
C1015 C1016 1.398 . S
C1015 C1021 1.491 . S
C1016 H1007 0.950 . S
C1016 C1015 1.398 . S
C1016 C1017 1.391 . S
C1017 H1005 0.950 . S
C1017 C1013 1.393 . S
C1017 C1016 1.391 . S
C1018 H1008 0.950 . S
C1018 C1019 1.386 . S
C1018 C1020 1.391 . S
C1019 C1018 1.386 . S
C1019 C1023 1.393 . S
C1020 H1009 0.950 . S
C1020 C1018 1.391 . S
C1020 C1021 1.400 . S
C1021 C1015 1.491 . S
C1021 C1020 1.400 . S
C1021 C1022 1.398 . S
C1022 H1010 0.950 . S
C1022 C1021 1.398 . S
C1022 C1023 1.391 . S
C1023 H1011 0.950 . S
C1023 C1019 1.393 . S
C1023 C1022 1.391 . S
H1024 C1032 0.950 . S
H1025 C1037 0.950 . S
H1026 C1034 0.950 . S
H1027 C1036 0.950 . S
H1028 C1038 0.950 . S
H1029 C1040 0.950 . S
H1030 C1042 0.950 . S
H1031 C1043 0.950 . S
C1032 H1024 0.950 . S
C1032 C1033 1.386 . S
C1032 C1034 1.391 . S
C1033 C1032 1.386 . S
C1033 C1037 1.393 . S
C1034 H1026 0.950 . S
C1034 C1032 1.391 . S
C1034 C1035 1.400 . S
C1035 C1034 1.400 . S
C1035 C1036 1.398 . S
C1035 C1041 1.491 . S
C1036 H1027 0.950 . S
C1036 C1035 1.398 . S
C1036 C1037 1.391 . S
C1037 H1025 0.950 . S
C1037 C1033 1.393 . S
C1037 C1036 1.391 . S
C1038 H1028 0.950 . S
C1038 C1039 1.386 . S
C1038 C1040 1.391 . S
C1039 C1038 1.386 . S
C1039 C1043 1.393 . S
C1040 H1029 0.950 . S
C1040 C1038 1.391 . S
C1040 C1041 1.400 . S
C1041 C1035 1.491 . S
C1041 C1040 1.400 . S
C1041 C1042 1.398 . S
C1042 H1030 0.950 . S
C1042 C1041 1.398 . S
C1042 C1043 1.391 . S
C1043 H1031 0.950 . S
C1043 C1039 1.393 . S
C1043 C1042 1.391 . S
H1044 C1052 0.950 . S
H1045 C1057 0.950 . S
H1046 C1054 0.950 . S
H1047 C1056 0.950 . S
H1048 C1058 0.950 . S
H1049 C1060 0.950 . S
H1050 C1062 0.950 . S
H1051 C1063 0.950 1_565 S
C1052 H1044 0.950 . S
C1052 C1053 1.385 1_565 S
C1052 C1054 1.391 . S
C1053 C1052 1.385 1_545 S
C1053 C1057 1.394 . S
C1054 H1046 0.950 . S
C1054 C1052 1.391 . S
C1054 C1055 1.400 1_565 S
C1055 C1054 1.400 1_545 S
C1055 C1056 1.398 . S
C1055 C1061 1.491 . S
C1056 H1047 0.950 . S
C1056 C1055 1.398 . S
C1056 C1057 1.391 . S
C1057 H1045 0.950 . S
C1057 C1053 1.394 . S
C1057 C1056 1.391 . S
C1058 H1048 0.950 . S
C1058 C1059 1.386 . S
C1058 C1060 1.391 . S
C1059 C1058 1.386 . S
C1059 C1063 1.393 . S
C1060 H1049 0.950 . S
C1060 C1058 1.391 . S
C1060 C1061 1.400 . S
C1061 C1055 1.491 . S
C1061 C1060 1.400 . S
C1061 C1062 1.398 1_545 S
C1062 H1050 0.950 . S
C1062 C1061 1.398 1_565 S
C1062 C1063 1.391 1_565 S
C1063 H1051 0.950 1_545 S
C1063 C1059 1.393 . S
C1063 C1062 1.391 1_545 S
H1064 C1072 0.950 . S
H1065 C1077 0.950 . S
H1066 C1074 0.950 . S
H1067 C1076 0.950 . S
H1068 C1078 0.950 . S
H1069 C1080 0.950 . S
H1070 C1082 0.968 . S
H1071 C1083 0.950 . S
C1072 H1064 0.950 . S
C1072 C1073 1.386 . S
C1072 C1074 1.391 . S
C1073 C1072 1.386 . S
C1073 C1077 1.393 . S
C1074 H1066 0.950 . S
C1074 C1072 1.391 . S
C1074 C1075 1.400 . S
C1075 C1074 1.400 . S
C1075 C1076 1.398 . S
C1075 C1081 1.491 . S
C1076 H1067 0.950 . S
C1076 C1075 1.398 . S
C1076 C1077 1.391 . S
C1077 H1065 0.950 . S
C1077 C1073 1.393 . S
C1077 C1076 1.391 . S
C1078 H1068 0.950 . S
C1078 C1079 1.386 . S
C1078 C1080 1.391 1_554 S
C1079 C1078 1.386 . S
C1079 C1083 1.393 . S
C1080 H1069 0.950 . S
C1080 C1078 1.391 1_556 S
C1080 C1081 1.400 . S
C1081 C1075 1.491 . S
C1081 C1080 1.400 . S
C1081 C1082 1.425 . S
C1082 H1070 0.968 . S
C1082 C1081 1.425 . S
C1082 C1083 1.348 1_556 S
C1083 H1071 0.950 . S
C1083 C1079 1.393 . S
C1083 C1082 1.348 1_554 S
H1084 C1092 0.950 . S
H1085 C1097 0.950 . S
H1086 C1094 0.950 . S
H1087 C1096 0.950 . S
H1088 C1098 0.950 . S
H1089 C1100 0.950 . S
H1090 C1102 0.950 . S
H1091 C1103 0.949 . S
C1092 H1084 0.950 . S
C1092 C1093 1.400 . S
C1092 C1094 1.391 . S
C1093 C1092 1.400 . S
C1093 C1097 1.375 1_545 S
C1094 H1086 0.950 . S
C1094 C1092 1.391 . S
C1094 C1095 1.400 1_545 S
C1095 C1094 1.400 1_565 S
C1095 C1096 1.398 . S
C1095 C1101 1.491 . S
C1096 H1087 0.950 . S
C1096 C1095 1.398 . S
C1096 C1097 1.391 . S
C1097 H1085 0.950 . S
C1097 C1093 1.375 1_565 S
C1097 C1096 1.391 . S
C1098 H1088 0.950 . S
C1098 C1099 1.386 . S
C1098 C1100 1.391 . S
C1099 C1098 1.386 . S
C1099 C1103 1.394 1_565 S
C1100 H1089 0.950 . S
C1100 C1098 1.391 . S
C1100 C1101 1.400 . S
C1101 C1095 1.491 . S
C1101 C1100 1.400 . S
C1101 C1102 1.398 1_565 S
C1102 H1090 0.950 . S
C1102 C1101 1.398 1_545 S
C1102 C1103 1.390 . S
C1103 H1091 0.949 . S
C1103 C1099 1.394 1_545 S
C1103 C1102 1.390 . S
H1104 C1112 0.950 . S
H1105 C1117 0.950 . S
H1106 C1114 0.950 . S
H1107 C1116 0.950 . S
H1108 C1118 0.950 . S
H1109 C1120 0.950 . S
H1110 C1122 0.950 . S
H1111 C1123 0.950 . S
C1112 H1104 0.950 . S
C1112 C1113 1.386 . S
C1112 C1114 1.391 . S
C1113 C1112 1.386 . S
C1113 C1117 1.393 . S
C1114 H1106 0.950 . S
C1114 C1112 1.391 . S
C1114 C1115 1.400 . S
C1115 C1114 1.400 . S
C1115 C1116 1.398 . S
C1115 C1121 1.491 . S
C1116 H1107 0.950 . S
C1116 C1115 1.398 . S
C1116 C1117 1.391 . S
C1117 H1105 0.950 . S
C1117 C1113 1.393 . S
C1117 C1116 1.391 . S
C1118 H1108 0.950 . S
C1118 C1119 1.386 . S
C1118 C1120 1.391 . S
C1119 C1118 1.386 . S
C1119 C1123 1.393 . S
C1120 H1109 0.950 . S
C1120 C1118 1.391 . S
C1120 C1121 1.400 . S
C1121 C1115 1.491 . S
C1121 C1120 1.400 . S
C1121 C1122 1.398 . S
C1122 H1110 0.950 . S
C1122 C1121 1.398 . S
C1122 C1123 1.391 . S
C1123 H1111 0.950 . S
C1123 C1119 1.393 . S
C1123 C1122 1.391 . S
H1124 C1132 0.950 . S
H1125 C1137 0.950 . S
H1126 C1134 0.950 . S
H1127 C1136 0.950 . S
H1128 C1138 0.950 . S
H1129 C1140 0.950 . S
H1130 C1142 0.950 1_545 S
H1131 C1143 0.950 . S
C1132 H1124 0.950 . S
C1132 C1133 1.386 . S
C1132 C1134 1.391 . S
C1133 C1132 1.386 . S
C1133 C1137 1.393 1_545 S
C1134 H1126 0.950 . S
C1134 C1132 1.391 . S
C1134 C1135 1.400 1_545 S
C1135 C1134 1.400 1_565 S
C1135 C1136 1.398 . S
C1135 C1141 1.491 . S
C1136 H1127 0.950 . S
C1136 C1135 1.398 . S
C1136 C1137 1.391 . S
C1137 H1125 0.950 . S
C1137 C1133 1.393 1_565 S
C1137 C1136 1.391 . S
C1138 H1128 0.950 . S
C1138 C1139 1.386 . S
C1138 C1140 1.391 . S
C1139 C1138 1.386 . S
C1139 C1143 1.393 . S
C1140 H1129 0.950 . S
C1140 C1138 1.391 . S
C1140 C1141 1.400 . S
C1141 C1135 1.491 . S
C1141 C1140 1.400 . S
C1141 C1142 1.398 . S
C1142 H1130 0.950 1_565 S
C1142 C1141 1.398 . S
C1142 C1143 1.391 . S
C1143 H1131 0.950 . S
C1143 C1139 1.393 . S
C1143 C1142 1.391 . S
H1144 C1152 0.950 . S
H1145 C1157 0.950 . S
H1146 C1154 0.950 . S
H1147 C1156 0.950 . S
H1148 C1158 0.950 . S
H1149 C1160 0.950 . S
H1150 C1162 0.950 1_554 S
H1151 C1163 0.950 . S
C1152 H1144 0.950 . S
C1152 C1153 1.386 . S
C1152 C1154 1.391 . S
C1153 C1152 1.386 . S
C1153 C1157 1.393 . S
C1154 H1146 0.950 . S
C1154 C1152 1.391 . S
C1154 C1155 1.400 . S
C1155 C1154 1.400 . S
C1155 C1156 1.398 . S
C1155 C1161 1.491 . S
C1156 H1147 0.950 . S
C1156 C1155 1.398 . S
C1156 C1157 1.391 . S
C1157 H1145 0.950 . S
C1157 C1153 1.393 . S
C1157 C1156 1.391 . S
C1158 H1148 0.950 . S
C1158 C1159 1.386 . S
C1158 C1160 1.391 1_556 S
C1159 C1158 1.386 . S
C1159 C1163 1.393 . S
C1160 H1149 0.950 . S
C1160 C1158 1.391 1_554 S
C1160 C1161 1.400 . S
C1161 C1155 1.491 . S
C1161 C1160 1.400 . S
C1161 C1162 1.398 1_554 S
C1162 H1150 0.950 1_556 S
C1162 C1161 1.398 1_556 S
C1162 C1163 1.391 . S
C1163 H1151 0.950 . S
C1163 C1159 1.393 . S
C1163 C1162 1.391 . S
H1164 C1172 0.950 . S
H1165 C1177 0.950 1_565 S
H1166 C1174 0.950 . S
H1167 C1176 0.969 . S
H1168 C1178 0.950 . S
H1169 C1180 0.950 . S
H1170 C1182 0.950 . S
H1171 C1183 0.950 . S
C1172 H1164 0.950 . S
C1172 C1173 1.386 . S
C1172 C1174 1.391 . S
C1173 C1172 1.386 . S
C1173 C1177 1.393 . S
C1174 H1166 0.950 . S
C1174 C1172 1.391 . S
C1174 C1175 1.400 . S
C1175 C1174 1.400 . S
C1175 C1176 1.384 1_545 S
C1175 C1181 1.491 . S
C1176 H1167 0.969 . S
C1176 C1175 1.384 1_565 S
C1176 C1177 1.387 1_565 S
C1177 H1165 0.950 1_545 S
C1177 C1173 1.393 . S
C1177 C1176 1.387 1_545 S
C1178 H1168 0.950 . S
C1178 C1179 1.386 . S
C1178 C1180 1.391 . S
C1179 C1178 1.386 . S
C1179 C1183 1.393 1_565 S
C1180 H1169 0.950 . S
C1180 C1178 1.391 . S
C1180 C1181 1.400 1_565 S
C1181 C1175 1.491 . S
C1181 C1180 1.400 1_545 S
C1181 C1182 1.398 . S
C1182 H1170 0.950 . S
C1182 C1181 1.398 . S
C1182 C1183 1.391 . S
C1183 H1171 0.950 . S
C1183 C1179 1.393 1_545 S
C1183 C1182 1.391 . S
H1184 C1192 0.950 . S
H1185 C1197 0.950 . S
H1186 C1194 0.950 . S
H1187 C1196 0.950 1_544 S
H1188 C1198 0.950 . S
H1189 C1200 0.950 . S
H1190 C1202 0.950 1_566 S
H1191 C1203 0.950 . S
C1192 H1184 0.950 . S
C1192 C1193 1.386 . S
C1192 C1194 1.391 . S
C1193 C1192 1.386 . S
C1193 C1197 1.393 . S
C1194 H1186 0.950 . S
C1194 C1192 1.391 . S
C1194 C1195 1.400 . S
C1195 C1194 1.400 . S
C1195 C1196 1.398 . S
C1195 C1201 1.491 1_566 S
C1196 H1187 0.950 1_566 S
C1196 C1195 1.398 . S
C1196 C1197 1.391 . S
C1197 H1185 0.950 . S
C1197 C1193 1.393 . S
C1197 C1196 1.391 . S
C1198 H1188 0.950 . S
C1198 C1199 1.386 . S
C1198 C1200 1.391 . S
C1199 C1198 1.386 . S
C1199 C1203 1.393 . S
C1200 H1189 0.950 . S
C1200 C1198 1.391 . S
C1200 C1201 1.400 . S
C1201 C1195 1.491 1_544 S
C1201 C1200 1.400 . S
C1201 C1202 1.398 . S
C1202 H1190 0.950 1_544 S
C1202 C1201 1.398 . S
C1202 C1203 1.391 . S
C1203 H1191 0.950 . S
C1203 C1199 1.393 . S
C1203 C1202 1.391 . S
H1204 C1212 0.950 . S
H1205 C1217 0.950 . S
H1206 C1214 0.950 . S
H1207 C1216 0.950 . S
H1208 C1218 0.950 . S
H1209 C1220 0.950 . S
H1210 C1222 0.950 . S
H1211 C1223 0.950 . S
C1212 H1204 0.950 . S
C1212 C1213 1.386 . S
C1212 C1214 1.391 . S
C1213 C1212 1.386 . S
C1213 C1217 1.393 . S
C1214 H1206 0.950 . S
C1214 C1212 1.391 . S
C1214 C1215 1.400 . S
C1215 C1214 1.400 . S
C1215 C1216 1.398 . S
C1215 C1221 1.491 . S
C1216 H1207 0.950 . S
C1216 C1215 1.398 . S
C1216 C1217 1.391 . S
C1217 H1205 0.950 . S
C1217 C1213 1.393 . S
C1217 C1216 1.391 . S
C1218 H1208 0.950 . S
C1218 C1219 1.386 . S
C1218 C1220 1.391 . S
C1219 C1218 1.386 . S
C1219 C1223 1.393 . S
C1220 H1209 0.950 . S
C1220 C1218 1.391 . S
C1220 C1221 1.400 . S
C1221 C1215 1.491 . S
C1221 C1220 1.400 . S
C1221 C1222 1.398 . S
C1222 H1210 0.950 . S
C1222 C1221 1.398 . S
C1222 C1223 1.391 . S
C1223 H1211 0.950 . S
C1223 C1219 1.393 . S
C1223 C1222 1.391 . S
H1224 C1232 0.950 . S
H1225 C1237 0.950 . S
H1226 C1234 0.943 1_565 S
H1227 C1236 0.950 . S
H1228 C1238 0.950 . S
H1229 C1240 0.943 1_545 S
H1230 C1242 0.950 . S
H1231 C1243 0.950 . S
C1232 H1224 0.950 . S
C1232 C1233 1.386 . S
C1232 C1234 1.391 . S
C1233 C1232 1.386 . S
C1233 C1237 1.393 . S
C1234 H1226 0.943 1_545 S
C1234 C1232 1.391 . S
C1234 C1235 1.400 . S
C1235 C1234 1.400 . S
C1235 C1236 1.398 1_655 S
C1235 C1241 1.491 1_645 S
C1236 H1227 0.950 . S
C1236 C1235 1.398 1_455 S
C1236 C1237 1.391 1_455 S
C1237 H1225 0.950 . S
C1237 C1233 1.393 . S
C1237 C1236 1.391 1_655 S
C1238 H1228 0.950 . S
C1238 C1239 1.386 . S
C1238 C1240 1.391 . S
C1239 C1238 1.386 . S
C1239 C1243 1.393 . S
C1240 H1229 0.943 1_565 S
C1240 C1238 1.391 . S
C1240 C1241 1.400 . S
C1241 C1235 1.491 1_465 S
C1241 C1240 1.400 . S
C1241 C1242 1.398 1_455 S
C1242 H1230 0.950 . S
C1242 C1241 1.398 1_655 S
C1242 C1243 1.391 1_655 S
C1243 H1231 0.950 . S
C1243 C1239 1.393 . S
C1243 C1242 1.391 1_455 S
H1244 C1252 0.950 . S
H1245 C1257 0.950 . S
H1246 C1254 0.950 . S
H1247 C1256 0.950 . S
H1248 C1258 0.950 . S
H1249 C1260 0.950 . S
H1250 C1262 0.950 . S
H1251 C1263 0.950 . S
C1252 H1244 0.950 . S
C1252 C1253 1.386 . S
C1252 C1254 1.391 . S
C1253 C1252 1.386 . S
C1253 C1257 1.393 . S
C1254 H1246 0.950 . S
C1254 C1252 1.391 . S
C1254 C1255 1.400 . S
C1255 C1254 1.400 . S
C1255 C1256 1.398 . S
C1255 C1261 1.491 . S
C1256 H1247 0.950 . S
C1256 C1255 1.398 . S
C1256 C1257 1.391 . S
C1257 H1245 0.950 . S
C1257 C1253 1.393 . S
C1257 C1256 1.391 . S
C1258 H1248 0.950 . S
C1258 C1259 1.386 . S
C1258 C1260 1.391 . S
C1259 C1258 1.386 . S
C1259 C1263 1.393 . S
C1260 H1249 0.950 . S
C1260 C1258 1.391 . S
C1260 C1261 1.400 . S
C1261 C1255 1.491 . S
C1261 C1260 1.400 . S
C1261 C1262 1.398 . S
C1262 H1250 0.950 . S
C1262 C1261 1.398 . S
C1262 C1263 1.391 . S
C1263 H1251 0.950 . S
C1263 C1259 1.393 . S
C1263 C1262 1.391 . S
H1264 C1272 0.950 . S
H1265 C1277 0.950 . S
H1266 C1274 0.950 . S
H1267 C1276 0.950 . S
H1268 C1278 0.950 . S
H1269 C1280 0.950 . S
H1270 C1282 0.950 . S
H1271 C1283 0.950 . S
C1272 H1264 0.950 . S
C1272 C1273 1.386 . S
C1272 C1274 1.391 . S
C1273 C1272 1.386 . S
C1273 C1277 1.393 . S
C1274 H1266 0.950 . S
C1274 C1272 1.391 . S
C1274 C1275 1.400 . S
C1275 C1274 1.400 . S
C1275 C1276 1.398 . S
C1275 C1281 1.491 . S
C1276 H1267 0.950 . S
C1276 C1275 1.398 . S
C1276 C1277 1.391 . S
C1277 H1265 0.950 . S
C1277 C1273 1.393 . S
C1277 C1276 1.391 . S
C1278 H1268 0.950 . S
C1278 C1279 1.386 . S
C1278 C1280 1.391 . S
C1279 C1278 1.386 . S
C1279 C1283 1.393 . S
C1280 H1269 0.950 . S
C1280 C1278 1.391 . S
C1280 C1281 1.400 . S
C1281 C1275 1.491 . S
C1281 C1280 1.400 . S
C1281 C1282 1.398 . S
C1282 H1270 0.950 . S
C1282 C1281 1.398 . S
C1282 C1283 1.391 . S
C1283 H1271 0.950 . S
C1283 C1279 1.393 . S
C1283 C1282 1.391 . S
H1284 C1292 0.950 . S
H1285 C1297 0.950 . S
H1286 C1294 0.950 . S
H1287 C1296 0.950 . S
H1288 C1298 0.950 . S
H1289 C1300 0.950 . S
H1290 C1302 0.950 . S
H1291 C1303 0.950 . S
C1292 H1284 0.950 . S
C1292 C1293 1.386 . S
C1292 C1294 1.391 . S
C1293 C1292 1.386 . S
C1293 C1297 1.393 . S
C1294 H1286 0.950 . S
C1294 C1292 1.391 . S
C1294 C1295 1.400 . S
C1295 C1294 1.400 . S
C1295 C1296 1.398 . S
C1295 C1301 1.491 . S
C1296 H1287 0.950 . S
C1296 C1295 1.398 . S
C1296 C1297 1.391 . S
C1297 H1285 0.950 . S
C1297 C1293 1.393 . S
C1297 C1296 1.391 . S
C1298 H1288 0.950 . S
C1298 C1299 1.386 . S
C1298 C1300 1.391 . S
C1299 C1298 1.386 . S
C1299 C1303 1.393 . S
C1300 H1289 0.950 . S
C1300 C1298 1.391 . S
C1300 C1301 1.400 . S
C1301 C1295 1.491 . S
C1301 C1300 1.400 . S
C1301 C1302 1.398 . S
C1302 H1290 0.950 . S
C1302 C1301 1.398 . S
C1302 C1303 1.391 . S
C1303 H1291 0.950 . S
C1303 C1299 1.393 . S
C1303 C1302 1.391 . S
H1304 C1312 0.950 . S
H1305 C1317 0.950 . S
H1306 C1314 0.950 . S
H1307 C1316 0.950 . S
H1308 C1318 0.950 . S
H1309 C1320 0.950 . S
H1310 C1322 0.950 . S
H1311 C1323 0.950 . S
C1312 H1304 0.950 . S
C1312 C1313 1.386 . S
C1312 C1314 1.391 1_655 S
C1313 C1312 1.386 . S
C1313 C1317 1.393 . S
C1314 H1306 0.950 . S
C1314 C1312 1.391 1_455 S
C1314 C1315 1.400 1_455 S
C1315 C1314 1.400 1_655 S
C1315 C1316 1.398 . S
C1315 C1321 1.491 1_655 S
C1316 H1307 0.950 . S
C1316 C1315 1.398 . S
C1316 C1317 1.391 . S
C1317 H1305 0.950 . S
C1317 C1313 1.393 . S
C1317 C1316 1.391 . S
C1318 H1308 0.950 . S
C1318 C1319 1.386 . S
C1318 C1320 1.391 1_455 S
C1319 C1318 1.386 . S
C1319 C1323 1.393 . S
C1320 H1309 0.950 . S
C1320 C1318 1.391 1_655 S
C1320 C1321 1.400 1_655 S
C1321 C1315 1.491 1_455 S
C1321 C1320 1.400 1_455 S
C1321 C1322 1.398 . S
C1322 H1310 0.950 . S
C1322 C1321 1.398 . S
C1322 C1323 1.391 . S
C1323 H1311 0.950 . S
C1323 C1319 1.393 . S
C1323 C1322 1.391 . S
H1324 C1332 0.950 . S
H1325 C1337 0.950 . S
H1326 C1334 0.950 . S
H1327 C1336 0.950 . S
H1328 C1338 0.950 . S
H1329 C1340 0.950 . S
H1330 C1342 0.950 . S
H1331 C1343 0.950 . S
C1332 H1324 0.950 . S
C1332 C1333 1.386 . S
C1332 C1334 1.391 . S
C1333 C1332 1.386 . S
C1333 C1337 1.393 . S
C1334 H1326 0.950 . S
C1334 C1332 1.391 . S
C1334 C1335 1.400 . S
C1335 C1334 1.400 . S
C1335 C1336 1.398 . S
C1335 C1341 1.491 1_554 S
C1336 H1327 0.950 . S
C1336 C1335 1.398 . S
C1336 C1337 1.391 . S
C1337 H1325 0.950 . S
C1337 C1333 1.393 . S
C1337 C1336 1.391 . S
C1338 H1328 0.950 . S
C1338 C1339 1.386 . S
C1338 C1340 1.391 . S
C1339 C1338 1.386 . S
C1339 C1343 1.393 . S
C1340 H1329 0.950 . S
C1340 C1338 1.391 . S
C1340 C1341 1.400 . S
C1341 C1335 1.491 1_556 S
C1341 C1340 1.400 . S
C1341 C1342 1.398 . S
C1342 H1330 0.950 . S
C1342 C1341 1.398 . S
C1342 C1343 1.391 . S
C1343 H1331 0.950 . S
C1343 C1339 1.393 . S
C1343 C1342 1.391 . S
H1344 C1352 0.950 . S
H1345 C1357 0.950 . S
H1346 C1354 0.950 . S
H1347 C1356 0.950 . S
H1348 C1358 0.950 . S
H1349 C1360 0.950 . S
H1350 C1362 0.950 . S
H1351 C1363 0.950 . S
C1352 H1344 0.950 . S
C1352 C1353 1.386 . S
C1352 C1354 1.391 . S
C1353 C1352 1.386 . S
C1353 C1357 1.393 . S
C1354 H1346 0.950 . S
C1354 C1352 1.391 . S
C1354 C1355 1.400 . S
C1355 C1354 1.400 . S
C1355 C1356 1.398 . S
C1355 C1361 1.491 . S
C1356 H1347 0.950 . S
C1356 C1355 1.398 . S
C1356 C1357 1.391 . S
C1357 H1345 0.950 . S
C1357 C1353 1.393 . S
C1357 C1356 1.391 . S
C1358 H1348 0.950 . S
C1358 C1359 1.386 . S
C1358 C1360 1.391 . S
C1359 C1358 1.386 . S
C1359 C1363 1.393 . S
C1360 H1349 0.950 . S
C1360 C1358 1.391 . S
C1360 C1361 1.400 . S
C1361 C1355 1.491 . S
C1361 C1360 1.400 . S
C1361 C1362 1.398 . S
C1362 H1350 0.950 . S
C1362 C1361 1.398 . S
C1362 C1363 1.391 . S
C1363 H1351 0.950 . S
C1363 C1359 1.393 . S
C1363 C1362 1.391 . S
H1364 C1372 0.950 . S
H1365 C1377 0.950 . S
H1366 C1374 0.950 . S
H1367 C1376 0.950 . S
H1368 C1378 0.950 . S
H1369 C1380 0.950 . S
H1370 C1382 0.950 . S
H1371 C1383 0.950 . S
C1372 H1364 0.950 . S
C1372 C1373 1.386 . S
C1372 C1374 1.391 . S
C1373 C1372 1.386 . S
C1373 C1377 1.393 . S
C1374 H1366 0.950 . S
C1374 C1372 1.391 . S
C1374 C1375 1.400 . S
C1375 C1374 1.400 . S
C1375 C1376 1.398 . S
C1375 C1381 1.491 1_455 S
C1376 H1367 0.950 . S
C1376 C1375 1.398 . S
C1376 C1377 1.391 . S
C1377 H1365 0.950 . S
C1377 C1373 1.393 . S
C1377 C1376 1.391 . S
C1378 H1368 0.950 . S
C1378 C1379 1.386 . S
C1378 C1380 1.391 . S
C1379 C1378 1.386 . S
C1379 C1383 1.393 . S
C1380 H1369 0.950 . S
C1380 C1378 1.391 . S
C1380 C1381 1.400 . S
C1381 C1375 1.491 1_655 S
C1381 C1380 1.400 . S
C1381 C1382 1.398 . S
C1382 H1370 0.950 . S
C1382 C1381 1.398 . S
C1382 C1383 1.391 . S
C1383 H1371 0.950 . S
C1383 C1379 1.393 . S
C1383 C1382 1.391 . S
H1384 C1392 0.950 . S
H1385 C1397 0.950 . S
H1386 C1394 0.950 . S
H1387 C1396 0.950 . S
H1388 C1398 0.950 . S
H1389 C1400 0.950 . S
H1390 C1402 0.950 . S
H1391 C1403 0.950 . S
C1392 H1384 0.950 . S
C1392 C1393 1.386 . S
C1392 C1394 1.391 . S
C1393 C1392 1.386 . S
C1393 C1397 1.393 . S
C1394 H1386 0.950 . S
C1394 C1392 1.391 . S
C1394 C1395 1.400 . S
C1395 C1394 1.400 . S
C1395 C1396 1.398 . S
C1395 C1401 1.491 . S
C1396 H1387 0.950 . S
C1396 C1395 1.398 . S
C1396 C1397 1.391 . S
C1397 H1385 0.950 . S
C1397 C1393 1.393 . S
C1397 C1396 1.391 . S
C1398 H1388 0.950 . S
C1398 C1399 1.386 . S
C1398 C1400 1.391 . S
C1399 C1398 1.386 . S
C1399 C1403 1.393 . S
C1400 H1389 0.950 . S
C1400 C1398 1.391 . S
C1400 C1401 1.400 . S
C1401 C1395 1.491 . S
C1401 C1400 1.400 . S
C1401 C1402 1.398 . S
C1402 H1390 0.950 . S
C1402 C1401 1.398 . S
C1402 C1403 1.391 . S
C1403 H1391 0.950 . S
C1403 C1399 1.393 . S
C1403 C1402 1.391 . S
H1404 C1412 0.950 . S
H1405 C1417 0.950 . S
H1406 C1414 0.950 . S
H1407 C1416 0.950 . S
H1408 C1418 0.950 . S
H1409 C1420 0.950 . S
H1410 C1422 0.950 . S
H1411 C1423 0.950 . S
C1412 H1404 0.950 . S
C1412 C1413 1.386 . S
C1412 C1414 1.391 . S
C1413 C1412 1.386 . S
C1413 C1417 1.393 . S
C1414 H1406 0.950 . S
C1414 C1412 1.391 . S
C1414 C1415 1.400 . S
C1415 C1414 1.400 . S
C1415 C1416 1.398 . S
C1415 C1421 1.491 . S
C1416 H1407 0.950 . S
C1416 C1415 1.398 . S
C1416 C1417 1.391 . S
C1417 H1405 0.950 . S
C1417 C1413 1.393 . S
C1417 C1416 1.391 . S
C1418 H1408 0.950 . S
C1418 C1419 1.386 . S
C1418 C1420 1.391 . S
C1419 C1418 1.386 . S
C1419 C1423 1.393 . S
C1420 H1409 0.950 . S
C1420 C1418 1.391 . S
C1420 C1421 1.400 . S
C1421 C1415 1.491 . S
C1421 C1420 1.400 . S
C1421 C1422 1.398 . S
C1422 H1410 0.950 . S
C1422 C1421 1.398 . S
C1422 C1423 1.391 . S
C1423 H1411 0.950 . S
C1423 C1419 1.393 . S
C1423 C1422 1.391 . S
H1424 C1432 0.950 . S
H1425 C1437 0.950 . S
H1426 C1434 0.950 . S
H1427 C1436 0.950 . S
H1428 C1438 0.950 . S
H1429 C1440 0.950 . S
H1430 C1442 0.950 . S
H1431 C1443 0.950 . S
C1432 H1424 0.950 . S
C1432 C1433 1.386 . S
C1432 C1434 1.391 . S
C1433 C1432 1.386 . S
C1433 C1437 1.393 . S
C1434 H1426 0.950 . S
C1434 C1432 1.391 . S
C1434 C1435 1.400 . S
C1435 C1434 1.400 . S
C1435 C1436 1.398 . S
C1435 C1441 1.491 . S
C1436 H1427 0.950 . S
C1436 C1435 1.398 . S
C1436 C1437 1.391 . S
C1437 H1425 0.950 . S
C1437 C1433 1.393 . S
C1437 C1436 1.391 . S
C1438 H1428 0.950 . S
C1438 C1439 1.386 . S
C1438 C1440 1.391 . S
C1439 C1438 1.386 . S
C1439 C1443 1.393 . S
C1440 H1429 0.950 . S
C1440 C1438 1.391 . S
C1440 C1441 1.400 . S
C1441 C1435 1.491 . S
C1441 C1440 1.400 . S
C1441 C1442 1.398 . S
C1442 H1430 0.950 . S
C1442 C1441 1.398 . S
C1442 C1443 1.391 . S
C1443 H1431 0.950 . S
C1443 C1439 1.393 . S
C1443 C1442 1.391 . S
H1444 C1452 0.950 . S
H1445 C1457 0.950 . S
H1446 C1454 0.950 . S
H1447 C1456 0.950 . S
H1448 C1458 0.950 . S
H1449 C1460 0.950 . S
H1450 C1462 0.950 . S
H1451 C1463 0.950 . S
C1452 H1444 0.950 . S
C1452 C1453 1.386 . S
C1452 C1454 1.391 . S
C1453 C1452 1.386 . S
C1453 C1457 1.393 . S
C1454 H1446 0.950 . S
C1454 C1452 1.391 . S
C1454 C1455 1.400 . S
C1455 C1454 1.400 . S
C1455 C1456 1.398 . S
C1455 C1461 1.491 1_455 S
C1456 H1447 0.950 . S
C1456 C1455 1.398 . S
C1456 C1457 1.391 . S
C1457 H1445 0.950 . S
C1457 C1453 1.393 . S
C1457 C1456 1.391 . S
C1458 H1448 0.950 . S
C1458 C1459 1.386 . S
C1458 C1460 1.391 . S
C1459 C1458 1.386 . S
C1459 C1463 1.393 . S
C1460 H1449 0.950 . S
C1460 C1458 1.391 . S
C1460 C1461 1.400 . S
C1461 C1455 1.491 1_655 S
C1461 C1460 1.400 . S
C1461 C1462 1.398 . S
C1462 H1450 0.950 . S
C1462 C1461 1.398 . S
C1462 C1463 1.391 . S
C1463 H1451 0.950 . S
C1463 C1459 1.393 . S
C1463 C1462 1.391 . S
H1464 C1472 0.950 . S
H1465 C1477 0.950 . S
H1466 C1474 0.950 . S
H1467 C1476 0.950 . S
H1468 C1478 0.950 . S
H1469 C1480 0.950 . S
H1470 C1482 0.950 . S
H1471 C1483 0.950 . S
C1472 H1464 0.950 . S
C1472 C1473 1.386 . S
C1472 C1474 1.391 . S
C1473 C1472 1.386 . S
C1473 C1477 1.393 . S
C1474 H1466 0.950 . S
C1474 C1472 1.391 . S
C1474 C1475 1.400 . S
C1475 C1474 1.400 . S
C1475 C1476 1.398 . S
C1475 C1481 1.491 . S
C1476 H1467 0.950 . S
C1476 C1475 1.398 . S
C1476 C1477 1.391 . S
C1477 H1465 0.950 . S
C1477 C1473 1.393 . S
C1477 C1476 1.391 . S
C1478 H1468 0.950 . S
C1478 C1479 1.386 . S
C1478 C1480 1.391 . S
C1479 C1478 1.386 . S
C1479 C1483 1.393 . S
C1480 H1469 0.950 . S
C1480 C1478 1.391 . S
C1480 C1481 1.400 . S
C1481 C1475 1.491 . S
C1481 C1480 1.400 . S
C1481 C1482 1.398 . S
C1482 H1470 0.950 . S
C1482 C1481 1.398 . S
C1482 C1483 1.391 . S
C1483 H1471 0.950 . S
C1483 C1479 1.393 . S
C1483 C1482 1.391 . S
H1484 C1492 0.950 . S
H1485 C1497 0.950 . S
H1486 C1494 0.950 . S
H1487 C1496 0.950 . S
H1488 C1498 0.950 . S
H1489 C1500 0.950 . S
H1490 C1502 0.950 . S
H1491 C1503 0.950 . S
C1492 H1484 0.950 . S
C1492 C1493 1.386 . S
C1492 C1494 1.391 . S
C1493 C1492 1.386 . S
C1493 C1497 1.393 . S
C1494 H1486 0.950 . S
C1494 C1492 1.391 . S
C1494 C1495 1.400 . S
C1495 C1494 1.400 . S
C1495 C1496 1.398 . S
C1495 C1501 1.491 . S
C1496 H1487 0.950 . S
C1496 C1495 1.398 . S
C1496 C1497 1.391 . S
C1497 H1485 0.950 . S
C1497 C1493 1.393 . S
C1497 C1496 1.391 . S
C1498 H1488 0.950 . S
C1498 C1499 1.386 . S
C1498 C1500 1.391 . S
C1499 C1498 1.386 . S
C1499 C1503 1.393 . S
C1500 H1489 0.950 . S
C1500 C1498 1.391 . S
C1500 C1501 1.400 . S
C1501 C1495 1.491 . S
C1501 C1500 1.400 . S
C1501 C1502 1.398 . S
C1502 H1490 0.950 . S
C1502 C1501 1.398 . S
C1502 C1503 1.391 . S
C1503 H1491 0.950 . S
C1503 C1499 1.393 . S
C1503 C1502 1.391 . S
H1504 C1512 0.950 . S
H1505 C1517 0.950 . S
H1506 C1514 0.950 . S
H1507 C1516 0.950 . S
H1508 C1518 0.950 . S
H1509 C1520 0.950 . S
H1510 C1522 0.950 . S
H1511 C1523 0.950 . S
C1512 H1504 0.950 . S
C1512 C1513 1.386 . S
C1512 C1514 1.391 . S
C1513 C1512 1.386 . S
C1513 C1517 1.393 . S
C1514 H1506 0.950 . S
C1514 C1512 1.391 . S
C1514 C1515 1.400 . S
C1515 C1514 1.400 . S
C1515 C1516 1.398 . S
C1515 C1521 1.491 . S
C1516 H1507 0.950 . S
C1516 C1515 1.398 . S
C1516 C1517 1.391 . S
C1517 H1505 0.950 . S
C1517 C1513 1.393 . S
C1517 C1516 1.391 . S
C1518 H1508 0.950 . S
C1518 C1519 1.386 . S
C1518 C1520 1.391 . S
C1519 C1518 1.386 . S
C1519 C1523 1.393 . S
C1520 H1509 0.950 . S
C1520 C1518 1.391 . S
C1520 C1521 1.400 . S
C1521 C1515 1.491 . S
C1521 C1520 1.400 . S
C1521 C1522 1.398 . S
C1522 H1510 0.950 . S
C1522 C1521 1.398 . S
C1522 C1523 1.391 . S
C1523 H1511 0.950 . S
C1523 C1519 1.393 . S
C1523 C1522 1.391 . S
H1524 C1532 0.950 . S
H1525 C1537 0.950 . S
H1526 C1534 0.950 1_565 S
H1527 C1536 0.950 . S
H1528 C1538 0.950 . S
H1529 C1540 0.950 . S
H1530 C1542 0.950 . S
H1531 C1543 0.950 . S
C1532 H1524 0.950 . S
C1532 C1533 1.389 . S
C1532 C1534 1.391 1_565 S
C1533 C1532 1.389 . S
C1533 C1537 1.386 1_565 S
C1534 H1526 0.950 1_545 S
C1534 C1532 1.391 1_545 S
C1534 C1535 1.400 . S
C1535 C1534 1.400 . S
C1535 C1536 1.398 . S
C1535 C1541 1.491 . S
C1536 H1527 0.950 . S
C1536 C1535 1.398 . S
C1536 C1537 1.391 . S
C1537 H1525 0.950 . S
C1537 C1533 1.386 1_545 S
C1537 C1536 1.391 . S
C1538 H1528 0.950 . S
C1538 C1539 1.386 . S
C1538 C1540 1.391 . S
C1539 C1538 1.386 . S
C1539 C1543 1.393 . S
C1540 H1529 0.950 . S
C1540 C1538 1.391 . S
C1540 C1541 1.400 . S
C1541 C1535 1.491 . S
C1541 C1540 1.400 . S
C1541 C1542 1.398 . S
C1542 H1530 0.950 . S
C1542 C1541 1.398 . S
C1542 C1543 1.391 . S
C1543 H1531 0.950 . S
C1543 C1539 1.393 . S
C1543 C1542 1.391 . S
H1544 C1552 0.950 . S
H1545 C1557 0.950 . S
H1546 C1554 0.950 . S
H1547 C1556 0.950 . S
H1548 C1558 0.950 . S
H1549 C1560 0.950 . S
H1550 C1562 0.950 . S
H1551 C1563 0.950 . S
C1552 H1544 0.950 . S
C1552 C1553 1.386 . S
C1552 C1554 1.391 . S
C1553 C1552 1.386 . S
C1553 C1557 1.393 . S
C1554 H1546 0.950 . S
C1554 C1552 1.391 . S
C1554 C1555 1.400 . S
C1555 C1554 1.400 . S
C1555 C1556 1.398 . S
C1555 C1561 1.491 . S
C1556 H1547 0.950 . S
C1556 C1555 1.398 . S
C1556 C1557 1.391 . S
C1557 H1545 0.950 . S
C1557 C1553 1.393 . S
C1557 C1556 1.391 . S
C1558 H1548 0.950 . S
C1558 C1559 1.386 . S
C1558 C1560 1.391 . S
C1559 C1558 1.386 . S
C1559 C1563 1.393 . S
C1560 H1549 0.950 . S
C1560 C1558 1.391 . S
C1560 C1561 1.400 . S
C1561 C1555 1.491 . S
C1561 C1560 1.400 . S
C1561 C1562 1.398 . S
C1562 H1550 0.950 . S
C1562 C1561 1.398 . S
C1562 C1563 1.391 . S
C1563 H1551 0.950 . S
C1563 C1559 1.393 . S
C1563 C1562 1.391 . S
H1564 C1572 0.950 . S
H1565 C1577 0.950 . S
H1566 C1574 0.950 1_545 S
H1567 C1576 0.950 . S
H1568 C1578 0.950 . S
H1569 C1580 0.950 . S
H1570 C1582 0.950 1_455 S
H1571 C1583 0.950 . S
C1572 H1564 0.950 . S
C1572 C1573 1.386 . S
C1572 C1574 1.391 . S
C1573 C1572 1.386 . S
C1573 C1577 1.393 . S
C1574 H1566 0.950 1_565 S
C1574 C1572 1.391 . S
C1574 C1575 1.400 . S
C1575 C1574 1.400 . S
C1575 C1576 1.398 . S
C1575 C1581 1.491 1_455 S
C1576 H1567 0.950 . S
C1576 C1575 1.398 . S
C1576 C1577 1.391 . S
C1577 H1565 0.950 . S
C1577 C1573 1.393 . S
C1577 C1576 1.391 . S
C1578 H1568 0.950 . S
C1578 C1579 1.386 1_565 S
C1578 C1580 1.391 . S
C1579 C1578 1.386 1_545 S
C1579 C1583 1.393 . S
C1580 H1569 0.950 . S
C1580 C1578 1.391 . S
C1580 C1581 1.400 . S
C1581 C1575 1.491 1_655 S
C1581 C1580 1.400 . S
C1581 C1582 1.398 1_565 S
C1582 H1570 0.950 1_655 S
C1582 C1581 1.398 1_545 S
C1582 C1583 1.391 . S
C1583 H1571 0.950 . S
C1583 C1579 1.393 . S
C1583 C1582 1.391 . S
H1584 C1592 0.950 . S
H1585 C1597 0.950 . S
H1586 C1594 0.950 . S
H1587 C1596 0.950 . S
H1588 C1598 0.950 . S
H1589 C1600 0.950 . S
H1590 C1602 0.950 . S
H1591 C1603 0.950 . S
C1592 H1584 0.950 . S
C1592 C1593 1.386 . S
C1592 C1594 1.391 . S
C1593 C1592 1.386 . S
C1593 C1597 1.393 . S
C1594 H1586 0.950 . S
C1594 C1592 1.391 . S
C1594 C1595 1.400 . S
C1595 C1594 1.400 . S
C1595 C1596 1.398 . S
C1595 C1601 1.491 . S
C1596 H1587 0.950 . S
C1596 C1595 1.398 . S
C1596 C1597 1.391 . S
C1597 H1585 0.950 . S
C1597 C1593 1.393 . S
C1597 C1596 1.391 . S
C1598 H1588 0.950 . S
C1598 C1599 1.386 . S
C1598 C1600 1.391 . S
C1599 C1598 1.386 . S
C1599 C1603 1.393 . S
C1600 H1589 0.950 . S
C1600 C1598 1.391 . S
C1600 C1601 1.400 . S
C1601 C1595 1.491 . S
C1601 C1600 1.400 . S
C1601 C1602 1.398 . S
C1602 H1590 0.950 . S
C1602 C1601 1.398 . S
C1602 C1603 1.391 . S
C1603 H1591 0.950 . S
C1603 C1599 1.393 . S
C1603 C1602 1.391 . S
H1604 C1612 0.950 . S
H1605 C1617 0.950 . S
H1606 C1614 0.950 . S
H1607 C1616 0.950 . S
H1608 C1618 0.950 . S
H1609 C1620 0.950 . S
H1610 C1622 0.950 . S
H1611 C1623 0.950 . S
C1612 H1604 0.950 . S
C1612 C1613 1.386 . S
C1612 C1614 1.391 . S
C1613 C1612 1.386 . S
C1613 C1617 1.393 1_545 S
C1614 H1606 0.950 . S
C1614 C1612 1.391 . S
C1614 C1615 1.400 1_545 S
C1615 C1614 1.400 1_565 S
C1615 C1616 1.398 . S
C1615 C1621 1.491 . S
C1616 H1607 0.950 . S
C1616 C1615 1.398 . S
C1616 C1617 1.391 . S
C1617 H1605 0.950 . S
C1617 C1613 1.393 1_565 S
C1617 C1616 1.391 . S
C1618 H1608 0.950 . S
C1618 C1619 1.386 . S
C1618 C1620 1.391 . S
C1619 C1618 1.386 . S
C1619 C1623 1.393 . S
C1620 H1609 0.950 . S
C1620 C1618 1.391 . S
C1620 C1621 1.400 . S
C1621 C1615 1.491 . S
C1621 C1620 1.400 . S
C1621 C1622 1.398 . S
C1622 H1610 0.950 . S
C1622 C1621 1.398 . S
C1622 C1623 1.391 . S
C1623 H1611 0.950 . S
C1623 C1619 1.393 . S
C1623 C1622 1.391 . S
H1624 C1632 0.950 . S
H1625 C1637 0.950 . S
H1626 C1634 0.950 . S
H1627 C1636 0.950 . S
H1628 C1638 0.950 . S
H1629 C1640 0.950 . S
H1630 C1642 0.950 . S
H1631 C1643 0.950 . S
C1632 H1624 0.950 . S
C1632 C1633 1.386 . S
C1632 C1634 1.391 . S
C1633 C1632 1.386 . S
C1633 C1637 1.393 . S
C1634 H1626 0.950 . S
C1634 C1632 1.391 . S
C1634 C1635 1.400 . S
C1635 C1634 1.400 . S
C1635 C1636 1.398 . S
C1635 C1641 1.491 . S
C1636 H1627 0.950 . S
C1636 C1635 1.398 . S
C1636 C1637 1.391 . S
C1637 H1625 0.950 . S
C1637 C1633 1.393 . S
C1637 C1636 1.391 . S
C1638 H1628 0.950 . S
C1638 C1639 1.386 . S
C1638 C1640 1.391 . S
C1639 C1638 1.386 . S
C1639 C1643 1.393 . S
C1640 H1629 0.950 . S
C1640 C1638 1.391 . S
C1640 C1641 1.400 . S
C1641 C1635 1.491 . S
C1641 C1640 1.400 . S
C1641 C1642 1.398 . S
C1642 H1630 0.950 . S
C1642 C1641 1.398 . S
C1642 C1643 1.391 . S
C1643 H1631 0.950 . S
C1643 C1639 1.393 . S
C1643 C1642 1.391 . S
H1644 C1652 0.950 . S
H1645 C1657 0.950 . S
H1646 C1654 0.950 1_655 S
H1647 C1656 0.950 . S
H1648 C1658 0.950 . S
H1649 C1660 0.950 . S
H1650 C1662 0.950 1_565 S
H1651 C1663 0.950 . S
C1652 H1644 0.950 . S
C1652 C1653 1.386 . S
C1652 C1654 1.391 . S
C1653 C1652 1.386 . S
C1653 C1657 1.393 1_565 S
C1654 H1646 0.950 1_455 S
C1654 C1652 1.391 . S
C1654 C1655 1.400 1_565 S
C1655 C1654 1.400 1_545 S
C1655 C1656 1.398 . S
C1655 C1661 1.491 1_455 S
C1656 H1647 0.950 . S
C1656 C1655 1.398 . S
C1656 C1657 1.391 . S
C1657 H1645 0.950 . S
C1657 C1653 1.393 1_545 S
C1657 C1656 1.391 . S
C1658 H1648 0.950 . S
C1658 C1659 1.386 . S
C1658 C1660 1.391 . S
C1659 C1658 1.386 . S
C1659 C1663 1.393 . S
C1660 H1649 0.950 . S
C1660 C1658 1.391 . S
C1660 C1661 1.400 . S
C1661 C1655 1.491 1_655 S
C1661 C1660 1.400 . S
C1661 C1662 1.398 . S
C1662 H1650 0.950 1_545 S
C1662 C1661 1.398 . S
C1662 C1663 1.391 . S
C1663 H1651 0.950 . S
C1663 C1659 1.393 . S
C1663 C1662 1.391 . S
C553 C255 2.550 . S
C559 C22 2.328 . S
C573 C425 2.556 . S
C579 C49 2.351 . S
C593 C90 2.329 . S
C599 C187 2.549 . S
C613 C493 2.556 . S
C619 C124 2.351 1_455 S
C633 C119 2.555 . S
C639 C158 2.349 . S
C653 C185 2.340 . S
C659 C289 2.551 . S
C673 C219 2.326 . S
C679 C51 2.550 . S
C693 C357 2.557 . S
C699 C260 2.332 1_655 S
C713 C527 2.549 1_565 S
C719 C294 2.330 . S
C733 C321 2.326 1_655 S
C739 C153 2.554 . S
C753 C459 2.550 1_545 S
C759 C362 2.337 . S
C773 C221 2.557 . S
C779 C396 2.351 . S
C793 C391 2.551 1_545 S
C799 C423 2.341 . S
C813 C457 2.351 1_455 S
C819 C17 2.557 . S
C833 C498 2.338 . S
C839 C323 2.550 1_565 S
C853 C85 2.549 . S
C859 C532 2.331 . S
C873 C312 0.742 . S
C879 C6 0.728 . S
C893 C62 0.728 . S
C899 C368 0.742 . S
C913 C74 0.736 . S
C919 C402 0.729 . S
C933 C108 0.736 . S
C939 C300 0.732 . S
C953 C448 0.726 . S
C959 C142 0.727 . S
C973 C198 0.735 . S
C979 C504 0.722 . S
C993 C538 0.727 . S
C999 C232 0.736 . S
C1013 C244 0.729 . S
C1019 C414 0.723 . S
C1033 C40 0.743 . S
C1039 C278 0.729 . S
C1053 C96 0.721 1_545 S
C1059 C334 0.734 . S
C1073 C130 0.735 . S
C1079 C346 0.726 . S
C1093 C28 0.723 . S
C1099 C380 0.732 . S
C1113 C436 0.733 . S
C1119 C176 0.720 . S
C1133 C210 0.741 . S
C1139 C470 0.727 . S
C1153 C266 0.735 . S
C1159 C482 0.735 . S
C1173 C516 0.729 . S
C1179 C164 0.723 . S
C1193 C137 2.815 . S
C1199 C1 2.815 . S
C1213 C37 2.809 . S
C1219 C445 2.809 . S
C1233 C207 2.793 . S
C1239 C69 2.793 . S
C1253 C511 2.816 . S
C1259 C103 2.816 . S
C1273 C309 2.810 . S
C1279 C173 2.810 . S
C1293 C239 2.804 . S
C1299 C375 2.804 . S
C1313 C273 2.793 . S
C1319 C411 2.793 . S
C1333 C341 2.810 . S
C1339 C477 2.810 . S
C1353 C241 0.649 . S
C1359 C15 0.621 . S
C1373 C409 0.583 . S
C1379 C56 0.570 . S
C1393 C83 0.593 . S
C1399 C171 0.667 . S
C1413 C117 0.559 . S
C1419 C479 0.635 . S
C1433 C151 0.566 . S
C1439 C105 0.585 . S
C1453 C192 0.606 . S
C1459 C275 0.601 . S
C1473 C226 0.616 . S
C1479 C35 0.617 . S
C1493 C343 0.601 . S
C1499 C253 0.554 . S
C1513 C287 0.586 . S
C1519 C513 0.585 . S
C1533 C139 0.639 . S
C1539 C328 0.557 . S
C1553 C443 0.607 . S
C1559 C355 0.553 . S
C1573 C389 0.561 . S
C1579 C205 0.589 . S
C1593 C377 0.588 . S
C1599 C430 0.562 . S
C1613 C3 0.640 . S
C1619 C464 0.622 . S
C1633 C491 0.617 . S
C1639 C307 0.619 . S
C1653 C71 0.652 . S
C1659 C525 0.620 . S
