# Generated by pormake.
# Topology ung, (4)-cn, num edge types: 1
# Building blocks:
#     Node 0, Type 0, BuildingBlock: GALJAG_clean_sbu_0, # of connection points: 4
#     Node 1, Type 0, BuildingBlock: GALJAG_clean_sbu_0, # of connection points: 4
#     Node 2, Type 0, BuildingBlock: GALJAG_clean_sbu_0, # of connection points: 4
#     Node 3, Type 0, BuildingBlock: GALJAG_clean_sbu_0, # of connection points: 4
#     Node 4, Type 0, BuildingBlock: GALJAG_clean_sbu_0, # of connection points: 4
#     Node 5, Type 0, BuildingBlock: GALJAG_clean_sbu_0, # of connection points: 4
#     Node 6, Type 0, BuildingBlock: GALJAG_clean_sbu_0, # of connection points: 4
#     Node 7, Type 0, BuildingBlock: GALJAG_clean_sbu_0, # of connection points: 4
#     Node 8, Type 0, BuildingBlock: GALJAG_clean_sbu_0, # of connection points: 4
#     Node 9, Type 0, BuildingBlock: GALJAG_clean_sbu_0, # of connection points: 4
#     Node 10, Type 0, BuildingBlock: GALJAG_clean_sbu_0, # of connection points: 4
#     Node 11, Type 0, BuildingBlock: GALJAG_clean_sbu_0, # of connection points: 4
#     Node 12, Type 0, BuildingBlock: GALJAG_clean_sbu_0, # of connection points: 4
#     Node 13, Type 0, BuildingBlock: GALJAG_clean_sbu_0, # of connection points: 4
#     Node 14, Type 0, BuildingBlock: GALJAG_clean_sbu_0, # of connection points: 4
#     Node 15, Type 0, BuildingBlock: GALJAG_clean_sbu_0, # of connection points: 4
#     Node 16, Type 0, BuildingBlock: GALJAG_clean_sbu_0, # of connection points: 4
#     Node 17, Type 0, BuildingBlock: GALJAG_clean_sbu_0, # of connection points: 4
#     Edge 18, Type (0, 0), BuildingBlock: EZIPEK_clean_linker_0, # of connection points: 2
#     Edge 19, Type (0, 0), BuildingBlock: EZIPEK_clean_linker_0, # of connection points: 2
#     Edge 20, Type (0, 0), BuildingBlock: EZIPEK_clean_linker_0, # of connection points: 2
#     Edge 21, Type (0, 0), BuildingBlock: EZIPEK_clean_linker_0, # of connection points: 2
#     Edge 22, Type (0, 0), BuildingBlock: EZIPEK_clean_linker_0, # of connection points: 2
#     Edge 23, Type (0, 0), BuildingBlock: EZIPEK_clean_linker_0, # of connection points: 2
#     Edge 24, Type (0, 0), BuildingBlock: EZIPEK_clean_linker_0, # of connection points: 2
#     Edge 25, Type (0, 0), BuildingBlock: EZIPEK_clean_linker_0, # of connection points: 2
#     Edge 26, Type (0, 0), BuildingBlock: EZIPEK_clean_linker_0, # of connection points: 2
#     Edge 27, Type (0, 0), BuildingBlock: EZIPEK_clean_linker_0, # of connection points: 2
#     Edge 28, Type (0, 0), BuildingBlock: EZIPEK_clean_linker_0, # of connection points: 2
#     Edge 29, Type (0, 0), BuildingBlock: EZIPEK_clean_linker_0, # of connection points: 2
#     Edge 30, Type (0, 0), BuildingBlock: EZIPEK_clean_linker_0, # of connection points: 2
#     Edge 31, Type (0, 0), BuildingBlock: EZIPEK_clean_linker_0, # of connection points: 2
#     Edge 32, Type (0, 0), BuildingBlock: EZIPEK_clean_linker_0, # of connection points: 2
#     Edge 33, Type (0, 0), BuildingBlock: EZIPEK_clean_linker_0, # of connection points: 2
#     Edge 34, Type (0, 0), BuildingBlock: EZIPEK_clean_linker_0, # of connection points: 2
#     Edge 35, Type (0, 0), BuildingBlock: EZIPEK_clean_linker_0, # of connection points: 2
#     Edge 36, Type (0, 0), BuildingBlock: EZIPEK_clean_linker_0, # of connection points: 2
#     Edge 37, Type (0, 0), BuildingBlock: EZIPEK_clean_linker_0, # of connection points: 2
#     Edge 38, Type (0, 0), BuildingBlock: EZIPEK_clean_linker_0, # of connection points: 2
#     Edge 39, Type (0, 0), BuildingBlock: EZIPEK_clean_linker_0, # of connection points: 2
#     Edge 40, Type (0, 0), BuildingBlock: EZIPEK_clean_linker_0, # of connection points: 2
#     Edge 41, Type (0, 0), BuildingBlock: EZIPEK_clean_linker_0, # of connection points: 2
#     Edge 42, Type (0, 0), BuildingBlock: EZIPEK_clean_linker_0, # of connection points: 2
#     Edge 43, Type (0, 0), BuildingBlock: EZIPEK_clean_linker_0, # of connection points: 2
#     Edge 44, Type (0, 0), BuildingBlock: EZIPEK_clean_linker_0, # of connection points: 2
#     Edge 45, Type (0, 0), BuildingBlock: EZIPEK_clean_linker_0, # of connection points: 2
#     Edge 46, Type (0, 0), BuildingBlock: EZIPEK_clean_linker_0, # of connection points: 2
#     Edge 47, Type (0, 0), BuildingBlock: EZIPEK_clean_linker_0, # of connection points: 2
#     Edge 48, Type (0, 0), BuildingBlock: EZIPEK_clean_linker_0, # of connection points: 2
#     Edge 49, Type (0, 0), BuildingBlock: EZIPEK_clean_linker_0, # of connection points: 2
#     Edge 50, Type (0, 0), BuildingBlock: EZIPEK_clean_linker_0, # of connection points: 2
#     Edge 51, Type (0, 0), BuildingBlock: EZIPEK_clean_linker_0, # of connection points: 2
#     Edge 52, Type (0, 0), BuildingBlock: EZIPEK_clean_linker_0, # of connection points: 2
#     Edge 53, Type (0, 0), BuildingBlock: EZIPEK_clean_linker_0, # of connection points: 2
# Relax obj value: 0.030
# Max RMSD: 0.133
# Mean RMSD: 0.133
data_MOF--net-ung--node1-GALJAG_clean_sbu_0--edge1-EZIPEK_clean_linker_0
_symmetry_space_group_name_H-M    P1
_symmetry_Int_Tables_number       1
_symmetry_cell_setting            triclinic
loop_
_symmetry_equiv_pos_as_xyz
'x, y, z'
_cell_length_a     57.920443
_cell_length_b     57.961727
_cell_length_c     14.925855
_cell_angle_alpha  89.951271
_cell_angle_beta   90.106766
_cell_angle_gamma 119.93846
loop_
_atom_site_label
_atom_site_type_symbol
_atom_site_fract_x
_atom_site_fract_y
_atom_site_fract_z
_atom_type_partial_charge
In0 In 0.0788 0.65029 0.22211 0.0
O1 O 0.10566 0.64645 0.1187 0.0
O2 O 0.06504 0.61519 0.13075 0.0
C3 C 0.1057 0.69674 0.30721 0.0
C4 C 0.07849 0.61847 0.35044 0.0
C5 C 0.04295 0.65981 0.14356 0.0
O6 O 0.11459 0.69209 0.23608 0.0
O7 O 0.08376 0.67794 0.33497 0.0
O8 O 0.0364 0.64257 0.20493 0.0
O9 O 0.06717 0.67142 0.12092 0.0
C10 C 0.08735 0.62374 0.09346 0.0
O11 O 0.05753 0.61891 0.329 0.0
O12 O 0.09945 0.63468 0.30952 0.0
In13 In 0.50403 0.50935 0.24031 0.0
O14 O 0.51395 0.54419 0.14671 0.0
O15 O 0.53678 0.52457 0.1383 0.0
C16 C 0.45738 0.49509 0.31785 0.0
C17 C 0.53803 0.53856 0.36896 0.0
C18 C 0.49089 0.46306 0.16213 0.0
O19 O 0.46541 0.51043 0.25042 0.0
O20 O 0.47279 0.48696 0.34482 0.0
O21 O 0.50683 0.47179 0.22802 0.0
O22 O 0.48144 0.47755 0.13727 0.0
C23 C 0.53348 0.54337 0.11224 0.0
O24 O 0.53821 0.51854 0.33601 0.0
O25 O 0.51982 0.54257 0.34103 0.0
In26 In 0.64887 0.0835 0.25557 0.0
O27 O 0.61845 0.06599 0.14371 0.0
O28 O 0.63551 0.10748 0.1753 0.0
C29 C 0.66309 0.05074 0.32876 0.0
C30 C 0.61552 0.08058 0.38204 0.0
C31 C 0.69592 0.11428 0.18021 0.0
O32 O 0.64822 0.04405 0.25984 0.0
O33 O 0.67023 0.07358 0.3605 0.0
O34 O 0.68867 0.12202 0.24879 0.0
O35 O 0.67932 0.09146 0.1505 0.0
C36 C 0.61896 0.08786 0.12936 0.0
O37 O 0.63722 0.10205 0.36743 0.0
O38 O 0.61172 0.06065 0.33636 0.0
In39 In 0.0813 0.51221 0.72612 0.0
O40 O 0.10091 0.53906 0.60601 0.0
O41 O 0.06223 0.53122 0.649 0.0
C42 C 0.1089 0.49367 0.8122 0.0
C43 C 0.08624 0.54722 0.84902 0.0
C44 C 0.04722 0.46602 0.64954 0.0
O45 O 0.11814 0.50794 0.74237 0.0
O46 O 0.08642 0.48962 0.83843 0.0
O47 O 0.03978 0.47612 0.71062 0.0
O48 O 0.07145 0.47948 0.62732 0.0
C49 C 0.08151 0.54324 0.59551 0.0
O50 O 0.06478 0.52509 0.84063 0.0
O51 O 0.10522 0.55112 0.79775 0.0
In52 In 0.64596 0.64761 0.74148 0.0
O53 O 0.63274 0.61802 0.8559 0.0
O54 O 0.60838 0.63475 0.81897 0.0
C55 C 0.69328 0.65945 0.67635 0.0
C56 C 0.61568 0.61403 0.61472 0.0
C57 C 0.65975 0.69525 0.8081 0.0
O58 O 0.68404 0.64533 0.74634 0.0
O59 O 0.67867 0.66741 0.64071 0.0
O60 O 0.64581 0.68673 0.73735 0.0
O61 O 0.66675 0.67984 0.84346 0.0
C62 C 0.61131 0.61856 0.86744 0.0
O63 O 0.61667 0.63619 0.6266 0.0
O64 O 0.63106 0.60981 0.66312 0.0
In65 In 0.50611 0.07876 0.75606 0.0
O66 O 0.54068 0.1057 0.84811 0.0
O67 O 0.52347 0.06352 0.85903 0.0
C68 C 0.48627 0.10671 0.67923 0.0
C69 C 0.53755 0.07777 0.62825 0.0
C70 C 0.46051 0.04304 0.8319 0.0
O71 O 0.49985 0.1146 0.75086 0.0
O72 O 0.48313 0.08515 0.64712 0.0
O73 O 0.47005 0.03703 0.76534 0.0
O74 O 0.47415 0.06673 0.85967 0.0
C75 C 0.54141 0.08624 0.88383 0.0
O76 O 0.51855 0.05651 0.6603 0.0
O77 O 0.53947 0.09911 0.6569 0.0
In78 In 0.74552 0.98254 0.57405 0.0
O79 O 0.7247 0.95385 0.68933 0.0
O80 O 0.76419 0.96304 0.65186 0.0
C81 C 0.71456 -0.00066 0.49929 0.0
C82 C 0.74327 0.95024 0.44404 0.0
C83 C 0.78088 0.02744 0.65476 0.0
O84 O 0.70607 0.98214 0.5615 0.0
O85 O 0.73841 0.00783 0.47592 0.0
O86 O 0.78732 0.01821 0.58835 0.0
O87 O 0.75689 0.01391 0.67964 0.0
C88 C 0.74426 0.95008 0.7019 0.0
O89 O 0.76357 0.97317 0.454 0.0
O90 O 0.7242 0.94442 0.497 0.0
In91 In 0.17173 0.84193 0.58851 0.0
O92 O 0.18453 0.87484 0.48513 0.0
O93 O 0.20822 0.85616 0.50422 0.0
C94 C 0.12651 0.83247 0.66691 0.0
C95 C 0.20566 0.86812 0.72 0.0
C96 C 0.15297 0.79604 0.50084 0.0
O97 O 0.13641 0.84884 0.60267 0.0
O98 O 0.13958 0.82145 0.6911 0.0
O99 O 0.1667 0.80068 0.57168 0.0
O100 O 0.14891 0.81449 0.47503 0.0
C101 C 0.20524 0.87378 0.46486 0.0
O102 O 0.20053 0.8449 0.69819 0.0
O103 O 0.19323 0.87738 0.6777 0.0
In104 In 0.3126 0.41287 0.58453 0.0
O105 O 0.28437 0.3933 0.46725 0.0
O106 O 0.29361 0.43249 0.50904 0.0
C107 C 0.32861 0.38134 0.65931 0.0
C108 C 0.27989 0.41031 0.71352 0.0
C109 C 0.35832 0.44703 0.50578 0.0
O110 O 0.3115 0.37309 0.59667 0.0
O111 O 0.33726 0.40515 0.68334 0.0
O112 O 0.3499 0.45373 0.57379 0.0
O113 O 0.34347 0.42355 0.47778 0.0
C114 C 0.28067 0.41297 0.45716 0.0
O115 O 0.30285 0.43065 0.70445 0.0
O116 O 0.27424 0.39136 0.66004 0.0
In117 In 0.73993 0.84001 0.07459 0.0
O118 O 0.76443 0.87117 0.96932 0.0
O119 O 0.72345 0.86005 0.98878 0.0
C120 C 0.76875 0.82215 0.15725 0.0
C121 C 0.73857 0.87045 0.20414 0.0
C122 C 0.70651 0.79483 0.99098 0.0
O123 O 0.77742 0.83678 0.08822 0.0
O124 O 0.74605 0.81712 0.18424 0.0
O125 O 0.6988 0.80363 0.0551 0.0
O126 O 0.73066 0.80905 0.96903 0.0
C127 C 0.74504 0.87445 0.94816 0.0
O128 O 0.71797 0.84873 0.18291 0.0
O129 O 0.7597 0.87595 0.16275 0.0
In130 In 0.31402 0.97715 0.08961 0.0
O131 O 0.30882 0.95014 0.20786 0.0
O132 O 0.27783 0.95891 0.17697 0.0
C133 C 0.36098 0.99068 0.01453 0.0
C134 C 0.28121 0.94383 0.96597 0.0
C135 C 0.32495 0.02459 0.1534 0.0
O136 O 0.35292 0.97618 0.0838 0.0
O137 O 0.34534 -0.00201 0.9838 0.0
O138 O 0.31114 0.01497 0.0832 0.0
O139 O 0.33287 0.01027 0.19098 0.0
C140 C 0.28581 0.94643 0.22528 0.0
O141 O 0.28265 0.96601 0.98078 0.0
O142 O 0.29661 0.93894 0.0114 0.0
In143 In 0.17014 0.40799 0.08357 0.0
O144 O 0.17821 0.38551 0.97496 0.0
O145 O 0.20631 0.4269 -0.00381 0.0
C146 C 0.12454 0.37392 0.1647 0.0
C147 C 0.20494 0.41374 0.21042 0.0
C148 C 0.15384 0.43816 0.00027 0.0
O149 O 0.13368 0.36668 0.10035 0.0
O150 O 0.13852 0.39798 0.18788 0.0
O151 O 0.16735 0.44581 0.07199 0.0
O152 O 0.14888 0.41566 0.97156 0.0
C153 C 0.20026 0.40572 0.95422 0.0
O154 O 0.20164 0.43298 0.18781 0.0
O155 O 0.19032 0.39193 0.17126 0.0
In156 In 0.41386 0.31657 0.9035 0.0
O157 O 0.39037 0.28545 0.00958 0.0
O158 O 0.43197 0.29888 0.9944 0.0
C159 C 0.3807 0.33057 0.82915 0.0
C160 C 0.41563 0.28582 0.77471 0.0
C161 C 0.44719 0.36358 0.97801 0.0
O162 O 0.37432 0.31606 0.89843 0.0
O163 O 0.40343 0.33752 0.79735 0.0
O164 O 0.45376 0.35546 0.9091 0.0
O165 O 0.42442 0.34781 0.00942 0.0
C166 C 0.4103 0.28345 0.03318 0.0
O167 O 0.43604 0.30779 0.79467 0.0
O168 O 0.3947 0.28003 0.81744 0.0
In169 In 0.84175 0.17242 0.91255 0.0
O170 O 0.87456 0.1828 0.01608 0.0
O171 O 0.85984 0.2097 -0.00438 0.0
C172 C 0.83104 0.12579 0.84111 0.0
C173 C 0.86718 0.205 0.77691 0.0
C174 C 0.79546 0.15862 0.99369 0.0
O175 O 0.84591 0.13522 0.90919 0.0
O176 O 0.82197 0.13989 0.80963 0.0
O177 O 0.80334 0.17383 0.92624 0.0
O178 O 0.81083 0.15036 0.01942 0.0
C179 C 0.87593 0.20467 0.03587 0.0
O180 O 0.84441 0.20052 0.80142 0.0
O181 O 0.8763 0.19223 0.81785 0.0
In182 In 0.98032 0.748 0.92102 0.0
O183 O 0.97336 0.77012 0.03432 0.0
O184 O 0.94462 0.72912 0.01144 0.0
C185 C 0.02728 0.78298 0.84934 0.0
C186 C 0.94737 0.74716 0.79509 0.0
C187 C 0.99222 0.71182 0.98246 0.0
O188 O 0.01895 0.78808 0.9207 0.0
O189 O 0.01193 0.76054 0.81489 0.0
O190 O 0.97737 0.70728 0.9148 0.0
O191 O 0.00059 0.73424 0.01907 0.0
C192 C 0.95122 0.75013 0.05507 0.0
O193 O 0.9501 0.72714 0.8093 0.0
O194 O 0.96159 0.76742 0.84209 0.0
In195 In 0.40579 0.17273 0.40446 0.0
O196 O 0.38626 0.18392 0.51494 0.0
O197 O 0.42743 0.21067 0.48241 0.0
C198 C 0.3737 0.12659 0.32288 0.0
C199 C 0.40856 0.20494 0.27332 0.0
C200 C 0.43408 0.15574 0.49469 0.0
O201 O 0.36484 0.13631 0.38051 0.0
O202 O 0.39837 0.14027 0.30725 0.0
O203 O 0.44329 0.17004 0.42499 0.0
O204 O 0.4111 0.1507 0.51881 0.0
C205 C 0.40737 0.20599 0.52909 0.0
O206 O 0.42798 0.20123 0.29009 0.0
O207 O 0.38796 0.19177 0.32036 0.0
In208 In 0.97823 0.31466 0.41604 0.0
O209 O 0.96724 0.28643 0.53435 0.0
O210 O 0.93898 0.29731 0.48716 0.0
C211 C 0.02494 0.3254 0.3464 0.0
C212 C 0.9478 0.28327 0.28466 0.0
C213 C 0.9932 0.36239 0.48684 0.0
O214 O 0.01554 0.3107 0.41497 0.0
O215 O 0.01073 0.33423 0.31386 0.0
O216 O 0.97834 0.35406 0.41817 0.0
O217 O -9e-05 0.34652 0.51973 0.0
C218 C 0.94415 0.28366 0.54084 0.0
O219 O 0.95085 0.30633 0.29585 0.0
O220 O 0.96052 0.27669 0.3376 0.0
In221 In 0.83835 0.74307 0.41953 0.0
O222 O 0.8488 0.72319 0.30838 0.0
O223 O 0.87557 0.76442 0.33828 0.0
C224 C 0.7931 0.70769 0.49834 0.0
C225 C 0.87219 0.74843 0.54862 0.0
C226 C 0.8199 0.77155 0.33789 0.0
O227 O 0.80288 0.70108 0.43413 0.0
O228 O 0.80634 0.73173 0.52252 0.0
O229 O 0.83348 0.77966 0.40938 0.0
O230 O 0.81617 0.74955 0.30808 0.0
C231 C 0.87078 0.74415 0.29276 0.0
O232 O 0.86849 0.76755 0.52764 0.0
O233 O 0.85844 0.72693 0.5066 0.0
C234 C 0.09196 0.56512 0.00414 0.0
C235 C 0.08876 0.56795 0.91151 0.0
C236 C 0.09181 0.61114 0.9377 0.0
C237 C 0.09177 0.60674 0.03091 0.0
N238 N 0.09187 0.58024 0.15541 0.0
N239 N 0.08385 0.59219 0.7884 0.0
C240 C 0.09202 0.58397 0.06489 0.0
C241 C 0.08852 0.59074 0.87752 0.0
N242 N 0.09569 0.54483 0.03342 0.0
N243 N 0.09482 0.63474 0.90714 0.0
H244 H 0.08117 0.57754 0.74247 0.0
H245 H 0.08071 0.60686 0.76044 0.0
H246 H 0.09661 0.64977 0.94993 0.0
H247 H 0.09762 0.64038 0.84006 0.0
H248 H 0.10086 0.54311 0.09887 0.0
H249 H 0.09551 0.53053 0.99052 0.0
H250 H 0.08846 0.56256 0.18506 0.0
H251 H 0.09421 0.59471 0.20169 0.0
C252 C 0.5637 0.58509 0.9039 0.0
C253 C 0.5907 0.60104 0.93189 0.0
C254 C 0.58 0.57912 0.07772 0.0
C255 C 0.55276 0.56408 0.05167 0.0
N256 N 0.51774 0.55547 0.94602 0.0
N257 N 0.62264 0.61868 0.05243 0.0
C258 C 0.54428 0.56815 0.967 0.0
C259 C 0.59832 0.59961 0.02082 0.0
N260 N 0.55679 0.58478 0.816 0.0
N261 N 0.58862 0.57377 0.15627 0.0
H262 H 0.63623 0.63472 0.0137 0.0
H263 H 0.62814 0.62031 0.11962 0.0
H264 H 0.576 0.56008 0.20351 0.0
H265 H 0.6087 0.58181 0.17227 0.0
H266 H 0.53829 0.57102 0.78976 0.0
H267 H 0.57004 0.59668 0.76659 0.0
H268 H 0.51014 0.56031 0.89036 0.0
H269 H 0.50296 0.54123 0.98711 0.0
C270 C 0.58464 0.10086 0.09096 0.0
C271 C 0.60108 0.09027 0.06412 0.0
C272 C 0.57907 0.07813 0.91816 0.0
C273 C 0.56308 0.08934 0.94375 0.0
N274 N 0.55345 0.11528 0.04769 0.0
N275 N 0.61926 0.07614 0.94521 0.0
C276 C 0.56697 0.1022 0.02767 0.0
C277 C 0.59981 0.08098 0.9757 0.0
N278 N 0.58465 0.10817 0.17812 0.0
N279 N 0.57437 0.06447 0.8393 0.0
H280 H 0.63536 0.07893 0.9846 0.0
H281 H 0.6211 0.07216 0.87838 0.0
H282 H 0.56078 0.06329 0.79124 0.0
H283 H 0.58296 0.05292 0.82345 0.0
H284 H 0.57064 0.11257 0.20421 0.0
H285 H 0.59728 0.10791 0.22726 0.0
H286 H 0.55797 0.12792 0.10256 0.0
H287 H 0.53879 0.11502 0.00647 0.0
C288 C 0.56835 0.06816 0.41753 0.0
C289 C 0.59529 0.07892 0.44574 0.0
C290 C 0.58458 0.09052 0.59111 0.0
C291 C 0.55727 0.07795 0.56555 0.0
N292 N 0.52238 0.05201 0.4591 0.0
N293 N 0.62748 0.09407 0.56576 0.0
C294 C 0.54889 0.06569 0.48048 0.0
C295 C 0.60302 0.08845 0.53421 0.0
N296 N 0.5615 0.06167 0.32955 0.0
N297 N 0.59309 0.10454 0.66946 0.0
H298 H 0.64121 0.09177 0.52729 0.0
H299 H 0.63308 0.09822 0.63279 0.0
H300 H 0.5804 0.10552 0.71661 0.0
H301 H 0.61315 0.11678 0.68526 0.0
H302 H 0.54304 0.05704 0.3031 0.0
H303 H 0.57483 0.06309 0.28025 0.0
H304 H 0.51481 0.03962 0.40339 0.0
H305 H 0.50759 0.05169 0.49962 0.0
C306 C 0.06152 0.57155 0.40021 0.0
C307 C 0.07857 0.5992 0.41453 0.0
C308 C 0.10032 0.58986 0.53888 0.0
C309 C 0.08157 0.56229 0.52981 0.0
N310 N 0.04102 0.52734 0.46295 0.0
N311 N 0.11064 0.63503 0.507 0.0
C312 C 0.06111 0.55328 0.46407 0.0
C313 C 0.09712 0.60849 0.48623 0.0
N314 N 0.04673 0.56257 0.32338 0.0
N315 N 0.1209 0.59836 0.59865 0.0
H316 H 0.10816 0.64919 0.47173 0.0
H317 H 0.12228 0.64273 0.56432 0.0
H318 H 0.12305 0.58578 0.64347 0.0
H319 H 0.13689 0.61778 0.60014 0.0
H320 H 0.03649 0.54258 0.30481 0.0
H321 H 0.04671 0.57513 0.27342 0.0
H322 H 0.02399 0.52059 0.42354 0.0
H323 H 0.04018 0.51293 0.50648 0.0
C324 C 0.59611 0.60195 0.4617 0.0
C325 C 0.59718 0.59398 0.55043 0.0
C326 C 0.56211 0.54837 0.51556 0.0
C327 C 0.55875 0.55734 0.43078 0.0
N328 N 0.57022 0.59371 0.32683 0.0
N329 N 0.57917 0.56023 0.66647 0.0
C330 C 0.57498 0.58444 0.40499 0.0
C331 C 0.57988 0.56727 0.57856 0.0
N332 N 0.61611 0.62572 0.42997 0.0
N333 N 0.54797 0.5219 0.53676 0.0
H334 H 0.59162 0.5731 0.71583 0.0
H335 H 0.56462 0.54212 0.69281 0.0
H336 H 0.53299 0.50764 0.49615 0.0
H337 H 0.55218 0.51373 0.59231 0.0
H338 H 0.61791 0.63128 0.36283 0.0
H339 H 0.63261 0.63865 0.46846 0.0
H340 H 0.57929 0.61388 0.31111 0.0
H341 H 0.556 0.58167 0.27981 0.0
C342 C 0.72209 0.90099 0.25172 0.0
C343 C 0.73814 0.88935 0.26879 0.0
C344 C 0.75967 0.91977 0.3945 0.0
C345 C 0.74237 0.93025 0.38105 0.0
N346 N 0.7038 0.92757 0.30803 0.0
N347 N 0.76833 0.88363 0.3651 0.0
C348 C 0.72249 0.91978 0.3133 0.0
C349 C 0.75594 0.89768 0.34249 0.0
N350 N 0.70756 0.89527 0.17429 0.0
N351 N 0.77946 0.93067 0.45749 0.0
H352 H 0.76554 0.86693 0.32956 0.0
H353 H 0.77934 0.88684 0.4236 0.0
H354 H 0.78179 0.94551 0.50199 0.0
H355 H 0.79465 0.92608 0.46253 0.0
H356 H 0.69826 0.90574 0.15299 0.0
H357 H 0.70661 0.88165 0.12685 0.0
H358 H 0.68697 0.91818 0.2673 0.0
H359 H 0.70392 0.94211 0.34918 0.0
C360 C 0.23179 0.8828 0.32544 0.0
C361 C 0.22578 0.8927 0.40348 0.0
C362 C 0.26186 0.93777 0.37027 0.0
C363 C 0.26825 0.92768 0.29368 0.0
N364 N 0.26325 0.89045 0.20648 0.0
N365 N 0.23721 0.92836 0.50925 0.0
C366 C 0.25451 0.90009 0.27406 0.0
C367 C 0.24132 0.91989 0.42838 0.0
N368 N 0.21499 0.85718 0.29833 0.0
N369 N 0.27549 0.96453 0.3869 0.0
H370 H 0.22214 0.916 0.55334 0.0
H371 H 0.2498 0.94712 0.536 0.0
H372 H 0.29247 0.97767 0.35102 0.0
H373 H 0.26965 0.97384 0.43402 0.0
H374 H 0.21659 0.84954 0.23704 0.0
H375 H 0.19786 0.84405 0.33368 0.0
H376 H 0.25577 0.87025 0.19464 0.0
H377 H 0.27952 0.90262 0.16613 0.0
C378 C 0.23844 0.41311 0.42673 0.0
C379 C 0.26128 0.4129 0.39318 0.0
C380 C 0.24809 0.41535 0.23933 0.0
C381 C 0.22577 0.41649 0.2732 0.0
N382 N 0.20135 0.42042 0.39694 0.0
N383 N 0.28997 0.41685 0.27042 0.0
C384 C 0.22154 0.41675 0.3664 0.0
C385 C 0.26666 0.41474 0.30014 0.0
N386 N 0.23224 0.40848 0.51577 0.0
N387 N 0.25132 0.41466 0.14881 0.0
H388 H 0.30358 0.41551 0.31286 0.0
H389 H 0.29672 0.42138 0.2047 0.0
H390 H 0.23954 0.41756 0.10238 0.0
H391 H 0.26497 0.41034 0.11923 0.0
H392 H 0.2146 0.4058 0.54353 0.0
H393 H 0.24376 0.405 0.56152 0.0
H394 H 0.19884 0.42362 0.46393 0.0
H395 H 0.18808 0.42229 0.35432 0.0
C396 C 0.22756 0.42321 0.8163 0.0
C397 C 0.21876 0.40494 0.88853 0.0
C398 C 0.24867 0.38879 0.84205 0.0
C399 C 0.25971 0.40919 0.77622 0.0
N400 N 0.26093 0.44705 0.70291 0.0
N401 N 0.22329 0.37284 0.97908 0.0
C402 C 0.24964 0.4269 0.76434 0.0
C403 C 0.22975 0.38821 0.90354 0.0
N404 N 0.21392 0.43612 0.79491 0.0
N405 N 0.2561 0.36981 0.84572 0.0
H406 H 0.20948 0.37164 0.02615 0.0
H407 H 0.23328 0.36295 -0.00062 0.0
H408 H 0.27085 0.37012 0.80524 0.0
H409 H 0.24628 0.35264 0.88451 0.0
H410 H 0.21746 0.44756 0.73737 0.0
H411 H 0.19718 0.43333 0.83023 0.0
H412 H 0.25673 0.46252 0.69946 0.0
H413 H 0.27568 0.44935 0.65803 0.0
C414 C 0.74743 0.91781 0.91903 0.0
C415 C 0.74735 0.89492 0.88488 0.0
C416 C 0.74384 0.90757 0.73143 0.0
C417 C 0.7436 0.93035 0.76556 0.0
N418 N 0.74258 0.95643 0.88949 0.0
N419 N 0.74884 0.86904 0.76146 0.0
C420 C 0.74463 0.93528 0.85886 0.0
C421 C 0.74662 0.89013 0.79173 0.0
N422 N 0.7514 0.9233 0.00875 0.0
N423 N 0.73991 0.90196 0.64177 0.0
H424 H 0.7503 0.85559 0.80429 0.0
H425 H 0.75091 0.86553 0.69447 0.0
H426 H 0.73679 0.91378 0.59627 0.0
H427 H 0.73775 0.88475 0.61233 0.0
H428 H 0.75369 0.94053 0.03848 0.0
H429 H 0.7544 0.91131 0.05388 0.0
H430 H 0.74072 0.95998 0.95661 0.0
H431 H 0.7412 0.96999 0.84704 0.0
C432 C 0.23844 0.90188 0.93777 0.0
C433 C 0.26189 0.92406 0.90343 0.0
C434 C 0.25092 0.90549 0.75243 0.0
C435 C 0.2263 0.88474 0.78519 0.0
N436 N 0.19544 0.86302 0.90588 0.0
N437 N 0.28972 0.94884 0.77897 0.0
C438 C 0.21981 0.88271 0.87725 0.0
C439 C 0.26796 0.9264 0.81091 0.0
N440 N 0.23408 0.89923 0.02818 0.0
N441 N 0.25817 0.9047 0.66583 0.0
H442 H 0.30293 0.96434 0.82041 0.0
H443 H 0.29372 0.95307 0.71113 0.0
H444 H 0.24624 0.88926 0.62205 0.0
H445 H 0.27681 0.91789 0.63942 0.0
H446 H 0.21915 0.88211 0.05861 0.0
H447 H 0.2463 0.91385 0.07396 0.0
H448 H 0.18798 0.86219 0.96991 0.0
H449 H 0.18198 0.84789 0.86379 0.0
C450 C 0.41798 0.24499 0.7431 0.0
C451 C 0.41603 0.26692 0.71016 0.0
C452 C 0.40844 0.24886 0.55818 0.0
C453 C 0.40859 0.22604 0.59222 0.0
N454 N 0.41066 0.20051 0.71625 0.0
N455 N 0.40739 0.2894 0.59027 0.0
C456 C 0.4125 0.22353 0.68461 0.0
C457 C 0.41086 0.26887 0.61858 0.0
N458 N 0.42576 0.24515 0.82981 0.0
N459 N 0.40616 0.25141 0.46797 0.0
H460 H 0.41029 0.30505 0.63207 0.0
H461 H 0.40041 0.29041 0.52693 0.0
H462 H 0.4023 0.23627 0.42246 0.0
H463 H 0.40924 0.26886 0.43734 0.0
H464 H 0.42992 0.23102 0.85641 0.0
H465 H 0.43015 0.26074 0.87404 0.0
H466 H 0.41052 0.19619 0.78398 0.0
H467 H 0.40738 0.18469 0.67467 0.0
C468 C 0.89157 0.21696 0.63289 0.0
C469 C 0.88335 0.22514 0.70968 0.0
C470 C 0.91186 0.27175 0.66769 0.0
C471 C 0.92331 0.26361 0.59938 0.0
N472 N 0.92489 0.22827 0.51812 0.0
N473 N 0.88709 0.26021 0.80653 0.0
C474 C 0.91348 0.23613 0.58245 0.0
C475 C 0.89362 0.25251 0.72849 0.0
N476 N 0.87755 0.19096 0.60625 0.0
N477 N 0.91823 0.29777 0.67435 0.0
H478 H 0.87341 0.24682 0.85236 0.0
H479 H 0.89671 0.27982 0.82923 0.0
H480 H 0.93192 0.31261 0.63245 0.0
H481 H 0.90827 0.30426 0.71635 0.0
H482 H 0.88094 0.18397 0.54627 0.0
H483 H 0.86043 0.17696 0.63963 0.0
H484 H 0.92059 0.20866 0.51057 0.0
H485 H 0.93981 0.24145 0.47514 0.0
C486 C 0.93492 0.7521 0.63958 0.0
C487 C 0.92798 0.74689 0.73118 0.0
C488 C 0.88674 0.74787 0.705 0.0
C489 C 0.8927 0.75109 0.61241 0.0
N490 N 0.92125 0.75525 0.48864 0.0
N491 N 0.89649 0.73643 0.85119 0.0
C492 C 0.91652 0.753 0.57885 0.0
C493 C 0.9037 0.74397 0.76415 0.0
N494 N 0.95938 0.75683 0.61141 0.0
N495 N 0.86495 0.74869 0.73601 0.0
H496 H 0.90832 0.733 0.89586 0.0
H497 H 0.87801 0.73155 0.87775 0.0
H498 H 0.85192 0.75109 0.69382 0.0
H499 H 0.8608 0.74904 0.80362 0.0
H500 H 0.96708 0.76384 0.5479 0.0
H501 H 0.97278 0.75499 0.65343 0.0
H502 H 0.93633 0.75328 0.45824 0.0
H503 H 0.90931 0.75815 0.443 0.0
C504 C 0.89837 0.76256 0.1553 0.0
C505 C 0.89072 0.74506 0.22983 0.0
C506 C 0.92681 0.73581 0.19914 0.0
C507 C 0.93283 0.75127 0.12024 0.0
N508 N 0.92362 0.77785 0.01747 0.0
N509 N 0.89571 0.71308 0.31975 0.0
C510 C 0.91861 0.76448 0.09707 0.0
C511 C 0.90428 0.73098 0.25067 0.0
N512 N 0.88627 0.77733 0.14032 0.0
N513 N 0.94345 0.72679 0.22657 0.0
H514 H 0.88028 0.70999 0.36271 0.0
H515 H 0.90281 0.70003 0.33155 0.0
H516 H 0.96071 0.73103 0.19158 0.0
H517 H 0.9418 0.71752 0.28785 0.0
H518 H 0.89322 0.79296 0.09465 0.0
H519 H 0.86981 0.77483 0.17668 0.0
H520 H 0.91167 0.78489 0.99095 0.0
H521 H 0.93896 0.78063 0.97454 0.0
C522 C 0.39192 0.21652 0.13533 0.0
C523 C 0.40999 0.22485 0.20865 0.0
C524 C 0.42409 0.27137 0.17554 0.0
C525 C 0.40841 0.26315 0.0967 0.0
N526 N 0.38065 0.22823 0.99278 0.0
N527 N 0.44558 0.26038 0.29368 0.0
C528 C 0.39312 0.23581 0.07417 0.0
C529 C 0.42698 0.25235 0.22681 0.0
N530 N 0.37331 0.19025 0.12464 0.0
N531 N 0.43495 0.29713 0.20399 0.0
H532 H 0.44746 0.24725 0.33667 0.0
H533 H 0.46041 0.28012 0.30288 0.0
H534 H 0.43171 0.31103 0.17032 0.0
H535 H 0.44448 0.30392 0.26549 0.0
H536 H 0.35766 0.1835 0.07889 0.0
H537 H 0.37221 0.17528 0.16605 0.0
H538 H 0.37208 0.20885 0.96832 0.0
H539 H 0.38075 0.24164 0.94605 0.0
C540 C 0.93521 0.2673 0.12702 0.0
C541 C 0.92897 0.26402 0.2195 0.0
C542 C 0.89042 0.21985 0.19211 0.0
C543 C 0.89551 0.2239 0.09914 0.0
N544 N 0.92102 0.25163 0.97524 0.0
N545 N 0.89852 0.2399 0.33943 0.0
C546 C 0.91742 0.24772 0.06569 0.0
C547 C 0.90603 0.24098 0.25201 0.0
N548 N 0.95859 0.28858 0.09845 0.0
N549 N 0.87069 0.19581 0.22298 0.0
H550 H 0.90901 0.25545 0.38439 0.0
H551 H 0.88068 0.22484 0.36562 0.0
H552 H 0.85837 0.18011 0.18062 0.0
H553 H 0.86782 0.1906 0.29048 0.0
H554 H 0.96589 0.29058 0.03356 0.0
H555 H 0.97166 0.30371 0.14131 0.0
H556 H 0.93445 0.26976 0.94611 0.0
H557 H 0.90961 0.23692 0.92848 0.0
C558 C 0.14567 0.73475 0.38123 0.0
C559 C 0.11876 0.72285 0.35261 0.0
C560 C 0.11372 0.75689 0.43217 0.0
C561 C 0.14132 0.77043 0.45253 0.0
N562 N 0.18479 0.77517 0.43053 0.0
N563 N 0.0793 0.72648 0.33142 0.0
C564 C 0.15771 0.76021 0.42272 0.0
C565 C 0.10338 0.73505 0.37239 0.0
N566 N 0.1594 0.72137 0.37241 0.0
N567 N 0.09712 0.76412 0.4727 0.0
H568 H 0.07156 0.71136 0.2835 0.0
H569 H 0.06849 0.73635 0.33736 0.0
H570 H 0.10366 0.77927 0.52033 0.0
H571 H 0.07646 0.75319 0.46647 0.0
H572 H 0.17812 0.72799 0.4008 0.0
H573 H 0.15117 0.70247 0.34391 0.0
H574 H 0.19775 0.76977 0.40142 0.0
H575 H 0.19446 0.79418 0.45857 0.0
C576 C 0.40762 0.47623 0.31768 0.0
C577 C 0.43214 0.48757 0.36501 0.0
C578 C 0.40828 0.47569 0.50803 0.0
C579 C 0.38382 0.46487 0.46063 0.0
N580 N 0.36073 0.46262 0.32375 0.0
N581 N 0.45595 0.50571 0.50355 0.0
C582 C 0.38371 0.46775 0.36638 0.0
C583 C 0.43251 0.48977 0.45979 0.0
N584 N 0.40679 0.47186 0.22746 0.0
N585 N 0.40859 0.47117 0.5978 0.0
H586 H 0.47396 0.51705 0.46996 0.0
H587 H 0.45699 0.50992 0.57176 0.0
H588 H 0.39139 0.46075 0.63609 0.0
H589 H 0.42597 0.47595 0.63296 0.0
H590 H 0.38905 0.46096 0.192 0.0
H591 H 0.42365 0.47693 0.18902 0.0
H592 H 0.35992 0.46651 0.25601 0.0
H593 H 0.34316 0.45731 0.35857 0.0
C594 C 0.69799 0.01052 0.36013 0.0
C595 C 0.69803 0.00902 0.45519 0.0
C596 C 0.6688 0.02822 0.46241 0.0
C597 C 0.67253 0.03368 0.36932 0.0
N598 N 0.69405 0.0335 0.23096 0.0
N599 N 0.68665 0.02037 0.59812 0.0
C600 C 0.68779 0.02554 0.31812 0.0
C601 C 0.68403 0.01863 0.50695 0.0
N602 N 0.70725 -0.00279 0.30964 0.0
N603 N 0.65047 0.03194 0.50804 0.0
H604 H 0.69845 0.01467 0.63387 0.0
H605 H 0.67919 0.02994 0.63776 0.0
H606 H 0.63866 0.03855 0.477 0.0
H607 H 0.64507 0.02588 0.57415 0.0
H608 H 0.70506 -0.00467 0.24027 0.0
H609 H 0.71471 0.98578 0.33756 0.0
H610 H 0.70779 0.03078 0.19422 0.0
H611 H 0.68748 0.04494 0.19742 0.0
C612 C 0.72211 0.1332 0.04081 0.0
C613 C 0.72185 0.13043 0.13525 0.0
C614 C 0.77052 0.15325 0.13578 0.0
C615 C 0.77029 0.15117 0.04099 0.0
N616 N 0.74505 0.13567 0.90312 0.0
N617 N 0.74592 0.13501 0.27287 0.0
C618 C 0.74591 0.14051 0.99305 0.0
C619 C 0.74609 0.13997 0.18326 0.0
N620 N 0.69964 0.12912 -0.00308 0.0
N621 N 0.79402 0.16838 0.1803 0.0
H622 H 0.72853 0.1249 0.31046 0.0
H623 H 0.76301 0.13892 0.30835 0.0
H624 H 0.81222 0.17925 0.14737 0.0
H625 H 0.79502 0.17249 0.24861 0.0
H626 H 0.69937 0.13317 0.92903 0.0
H627 H 0.68204 0.1245 0.03041 0.0
H628 H 0.72728 0.12525 0.86744 0.0
H629 H 0.76176 0.13966 0.86547 0.0
C630 C -0.00522 0.68568 0.11019 0.0
C631 C -0.00055 0.6925 0.01832 0.0
C632 C 0.02396 0.66843 0.0064 0.0
C633 C 0.02423 0.66688 0.10121 0.0
N634 N 0.0114 0.67612 0.24532 0.0
N635 N 0.01974 0.69158 0.87803 0.0
C636 C 0.00965 0.6756 0.15392 0.0
C637 C 0.01397 0.6838 0.96546 0.0
N638 N 0.97592 0.68866 0.15519 0.0
N639 N 0.0331 0.65503 0.95574 0.0
H640 H 0.01295 0.70294 0.84524 0.0
H641 H 0.03295 0.68842 0.83983 0.0
H642 H 0.03996 0.64308 0.98408 0.0
H643 H 0.03125 0.6535 0.88626 0.0
H644 H 0.97 0.68192 0.22044 0.0
H645 H 0.96409 0.69512 0.12338 0.0
H646 H 0.0037 0.68531 0.28573 0.0
H647 H 0.02236 0.66941 0.28102 0.0
C648 C 0.47181 0.41364 0.97233 0.0
C649 C 0.46429 0.38979 0.02012 0.0
C650 C 0.4761 0.41411 0.16195 0.0
C651 C 0.4843 0.43816 0.11424 0.0
N652 N 0.49818 0.46173 0.97335 0.0
N653 N 0.46796 0.36893 0.15441 0.0
C654 C 0.48478 0.43823 0.01905 0.0
C655 C 0.46933 0.3906 0.11317 0.0
N656 N 0.46531 0.41285 0.88389 0.0
N657 N 0.47301 0.41312 0.25289 0.0
H658 H 0.46444 0.35205 0.11842 0.0
H659 H 0.47346 0.369 0.22096 0.0
H660 H 0.47652 0.42949 0.29158 0.0
H661 H 0.46444 0.39535 0.28897 0.0
H662 H 0.46757 0.42945 0.84914 0.0
H663 H 0.4558 0.3953 0.84679 0.0
H664 H 0.5011 0.46272 0.90428 0.0
H665 H 0.50894 0.4801 0.00541 0.0
C666 C 0.01866 0.41217 0.47243 0.0
C667 C 0.0032 0.38922 0.52542 0.0
C668 C 0.015 0.41677 0.66084 0.0
C669 C 0.02946 0.43989 0.60728 0.0
N670 N 0.03974 0.46002 0.4603 0.0
N671 N 0.98148 0.37011 0.66567 0.0
C672 C 0.02951 0.43769 0.51244 0.0
C673 C -0.00031 0.39171 0.61825 0.0
N674 N 0.02463 0.4097 0.38559 0.0
N675 N 0.01727 0.41826 0.75216 0.0
H676 H 0.97007 0.35146 0.63646 0.0
H677 H 0.9759 0.37126 0.7311 0.0
H678 H 0.02857 0.43597 0.78714 0.0
H679 H 0.00985 0.40155 0.79332 0.0
H680 H 0.0385 0.42569 0.34753 0.0
H681 H 0.01764 0.39144 0.35351 0.0
H682 H 0.03759 0.45947 0.3909 0.0
H683 H 0.04824 0.47913 0.48691 0.0
C684 C 0.7431 0.6794 0.68438 0.0
C685 C 0.71896 0.66582 0.6352 0.0
C686 C 0.74373 0.67543 0.49456 0.0
C687 C 0.76788 0.68914 0.54366 0.0
N688 N 0.79079 0.69661 0.68481 0.0
N689 N 0.69654 0.64328 0.4993 0.0
C690 C 0.76759 0.68852 0.63864 0.0
C691 C 0.71941 0.66127 0.54206 0.0
N692 N 0.74287 0.68526 0.77294 0.0
N693 N 0.74366 0.67739 0.4033 0.0
H694 H 0.67849 0.63212 0.53298 0.0
H695 H 0.69612 0.63739 0.43311 0.0
H696 H 0.76088 0.68767 0.36515 0.0
H697 H 0.72626 0.67049 0.36576 0.0
H698 H 0.76007 0.69785 0.80884 0.0
H699 H 0.72545 0.67929 0.80921 0.0
H700 H 0.79152 0.69449 0.75389 0.0
H701 H 0.80895 0.7028 0.65267 0.0
C702 C 0.47462 0.15996 0.57287 0.0
C703 C 0.44808 0.14382 0.54185 0.0
C704 C 0.44562 0.10525 0.61741 0.0
C705 C 0.47316 0.12039 0.63783 0.0
N706 N 0.51513 0.16133 0.62258 0.0
N707 N 0.41053 0.0997 0.51698 0.0
C708 C 0.48807 0.14759 0.61251 0.0
C709 C 0.43415 0.11605 0.55921 0.0
N710 N 0.48665 0.18707 0.56772 0.0
N711 N 0.43015 0.08087 0.65613 0.0
H712 H 0.402 0.1065 0.46979 0.0
H713 H 0.40095 0.07901 0.52114 0.0
H714 H 0.43754 0.07283 0.703 0.0
H715 H 0.40947 0.07012 0.64971 0.0
H716 H 0.50493 0.19981 0.59772 0.0
H717 H 0.47728 0.1969 0.54088 0.0
H718 H 0.52722 0.18031 0.59638 0.0
H719 H 0.5258 0.15292 0.6501 0.0
C720 C 0.411 0.01231 0.0188 0.0
C721 C 0.38672 -0.00131 0.97039 0.0
C722 C 0.4111 0.01057 0.82845 0.0
C723 C 0.43539 0.02404 0.87697 0.0
N724 N 0.45873 0.03006 0.01656 0.0
N725 N 0.36415 0.97753 0.83303 0.0
C726 C 0.43538 0.02231 0.97174 0.0
C727 C 0.38697 -0.00459 0.87631 0.0
N728 N 0.411 0.01739 0.10822 0.0
N729 N 0.4107 0.01355 0.73771 0.0
H730 H 0.34635 0.96549 0.86696 0.0
H731 H 0.36364 0.97259 0.76569 0.0
H732 H 0.42778 0.0245 0.69941 0.0
H733 H 0.39314 0.0068 0.70116 0.0
H734 H 0.42828 0.02993 0.14387 0.0
H735 H 0.3937 0.011 0.1456 0.0
H736 H 0.4596 0.02702 0.08499 0.0
H737 H 0.47686 0.03683 0.98354 0.0
C738 C 0.1482 0.49448 0.88878 0.0
C739 C 0.12168 0.48001 0.85609 0.0
C740 C 0.11558 0.43986 0.93088 0.0
C741 C 0.14292 0.45335 0.95486 0.0
N742 N 0.18664 0.49227 0.94161 0.0
N743 N 0.08283 0.43732 0.82529 0.0
C744 C 0.1597 0.48038 0.92985 0.0
C745 C 0.10615 0.45221 0.87104 0.0
N746 N 0.16207 0.52163 0.88382 0.0
N747 N 0.09832 0.4157 0.96796 0.0
H748 H 0.07601 0.44537 0.77642 0.0
H749 H 0.07199 0.4166 0.82809 0.0
H750 H 0.10408 0.40654 0.01624 0.0
H751 H 0.07776 0.40628 0.95856 0.0
H752 H 0.1804 0.53328 0.91516 0.0
H753 H 0.15424 0.53267 0.85505 0.0
H754 H 0.19997 0.51103 0.91609 0.0
H755 H 0.19592 0.48248 0.96945 0.0
C756 C 0.68062 0.74515 0.80271 0.0
C757 C 0.66666 0.72089 0.85073 0.0
C758 C 0.67546 0.74524 0.99207 0.0
C759 C 0.6891 0.76955 0.94396 0.0
N760 N 0.69733 0.7927 0.80304 0.0
N761 N 0.64341 0.6981 0.98525 0.0
C762 C 0.68921 0.76948 0.84893 0.0
C763 C 0.66163 0.72105 0.94362 0.0
N764 N 0.68726 0.74519 0.71487 0.0
N765 N 0.67711 0.7449 0.08339 0.0
H766 H 0.63235 0.68015 0.95098 0.0
H767 H 0.63719 0.69756 0.05107 0.0
H768 H 0.68728 0.76198 0.12234 0.0
H769 H 0.67022 0.7274 0.1202 0.0
H770 H 0.70008 0.76251 0.68006 0.0
H771 H 0.68184 0.72788 0.6785 0.0
H772 H 0.69567 0.7935 0.73375 0.0
H773 H 0.70303 0.81074 0.83527 0.0
C774 C 0.80015 0.05167 0.79759 0.0
C775 C 0.79973 0.05213 0.70254 0.0
C776 C 0.82961 0.10025 0.7059 0.0
C777 C 0.82463 0.10027 0.79865 0.0
N778 N 0.80438 0.07583 0.93443 0.0
N779 N 0.81306 0.07758 0.56471 0.0
C780 C 0.8101 0.07592 0.84562 0.0
C781 C 0.81461 0.07654 0.65586 0.0
N782 N 0.79134 0.02806 0.84159 0.0
N783 N 0.84891 0.12293 0.66622 0.0
H784 H 0.80188 0.0609 0.52482 0.0
H785 H 0.82121 0.09541 0.52916 0.0
H786 H 0.86097 0.14012 0.70319 0.0
H787 H 0.85496 0.12367 0.60007 0.0
H788 H 0.79315 0.02673 0.91059 0.0
H789 H 0.78498 0.01014 0.80768 0.0
H790 H 0.79116 0.05862 0.96898 0.0
H791 H 0.81138 0.09314 0.97234 0.0
C792 C 0.07724 0.81614 0.66494 0.0
C793 C 0.10153 0.82631 0.713 0.0
C794 C 0.07726 0.81184 0.85471 0.0
C795 C 0.05295 0.80167 0.80668 0.0
N796 N 0.03032 0.80233 0.67192 0.0
N797 N 0.12496 0.84199 0.85308 0.0
C798 C 0.05315 0.80657 0.71353 0.0
C799 C 0.10159 0.8269 0.80793 0.0
N800 N 0.07678 0.81387 0.57374 0.0
N801 N 0.07735 0.80568 0.94306 0.0
H802 H 0.14296 0.8539 0.82001 0.0
H803 H 0.12595 0.84498 0.92212 0.0
H804 H 0.06009 0.79428 0.9801 0.0
H805 H 0.09469 0.81008 0.97787 0.0
H806 H 0.0592 0.8036 0.537 0.0
H807 H 0.09386 0.82037 0.535 0.0
H808 H 0.02975 0.80763 0.60557 0.0
H809 H 0.01262 0.7963 0.70687 0.0
C810 C 0.34788 0.3508 0.65123 0.0
C811 C 0.33817 0.36469 0.70309 0.0
C812 C 0.35516 0.35492 0.83992 0.0
C813 C 0.36346 0.33979 0.78864 0.0
N814 N 0.36141 0.31743 0.6503 0.0
N815 N 0.32629 0.37377 0.84872 0.0
C816 C 0.35774 0.33581 0.69574 0.0
C817 C 0.33979 0.36474 0.79811 0.0
N818 N 0.34947 0.35329 0.56004 0.0
N819 N 0.36331 0.36144 0.92687 0.0
H820 H 0.31457 0.3809 0.82082 0.0
H821 H 0.32456 0.37167 0.91811 0.0
H822 H 0.3751 0.35524 0.96018 0.0
H823 H 0.3604 0.37506 0.96358 0.0
H824 H 0.35912 0.34592 0.52041 0.0
H825 H 0.34353 0.36489 0.52423 0.0
H826 H 0.35526 0.31192 0.58428 0.0
H827 H 0.36801 0.30565 0.6816 0.0
C828 C 0.05082 0.32775 0.21082 0.0
C829 C 0.05056 0.3319 0.30426 0.0
C830 C 0.09925 0.3552 0.3062 0.0
C831 C 0.0993 0.35595 0.21117 0.0
N832 N 0.07466 0.34459 0.07166 0.0
N833 N 0.07466 0.35113 0.44175 0.0
C834 C 0.07501 0.34227 0.16274 0.0
C835 C 0.0748 0.34563 0.35278 0.0
N836 N 0.02789 0.30977 0.16835 0.0
N837 N 0.12258 0.36343 0.35169 0.0
H838 H 0.05726 0.34464 0.47869 0.0
H839 H 0.09186 0.36384 0.47745 0.0
H840 H 0.14075 0.36994 0.31919 0.0
H841 H 0.12347 0.36115 0.42062 0.0
H842 H 0.0273 0.30418 0.10169 0.0
H843 H 0.01003 0.29831 0.20269 0.0
H844 H 0.05713 0.3376 0.03477 0.0
H845 H 0.09175 0.35537 0.03323 0.0
C846 C 0.8226 0.81261 0.26954 0.0
C847 C 0.80728 0.78543 0.29467 0.0
C848 C 0.76868 0.7819 0.21589 0.0
C849 C 0.78286 0.80974 0.20036 0.0
N850 N 0.82194 0.8526 0.2266 0.0
N851 N 0.76389 0.74619 0.31143 0.0
C852 C 0.8095 0.82546 0.23094 0.0
C853 C 0.77976 0.77062 0.27356 0.0
N854 N 0.84968 0.82587 0.27895 0.0
N855 N 0.7451 0.766 0.17276 0.0
H856 H 0.77089 0.73775 0.35821 0.0
H857 H 0.74323 0.73575 0.30434 0.0
H858 H 0.73695 0.77327 0.12582 0.0
H859 H 0.73527 0.74528 0.17576 0.0
H860 H 0.862 0.84485 0.25307 0.0
H861 H 0.8601 0.81703 0.3052 0.0
H862 H 0.84033 0.86502 0.25652 0.0
H863 H 0.81287 0.86279 0.20031 0.0
C864 C 0.35048 0.07429 0.14074 0.0
C865 C 0.3325 0.05118 0.1888 0.0
C866 C 0.33941 0.07758 0.32419 0.0
C867 C 0.35693 0.101 0.27575 0.0
N868 N 0.37308 0.12228 0.13199 0.0
N869 N 0.30347 0.03183 0.31523 0.0
C870 C 0.36048 0.09955 0.182 0.0
C871 C 0.32485 0.05322 0.27702 0.0
N872 N 0.35924 0.07212 0.05787 0.0
N873 N 0.33805 0.07797 0.41555 0.0
H874 H 0.29192 0.01412 0.28017 0.0
H875 H 0.29551 0.03273 0.3768 0.0
H876 H 0.34921 0.09497 0.45412 0.0
H877 H 0.32773 0.06077 0.45396 0.0
H878 H 0.37491 0.08807 0.02482 0.0
H879 H 0.35222 0.05402 0.02459 0.0
H880 H 0.37377 0.12228 0.06225 0.0
H881 H 0.38056 0.14119 0.15939 0.0
loop_
_geom_bond_atom_site_label_1
_geom_bond_atom_site_label_2
_geom_bond_distance
_geom_bond_site_symmetry_2
_ccdc_geom_bond_type
In0 O1 2.294 . S
In0 O2 2.326 . S
In0 O6 2.266 . S
In0 O7 2.326 . S
In0 O8 2.266 . S
In0 O9 2.326 . S
In0 O11 2.294 . S
In0 O12 2.326 . S
O1 In0 2.294 . S
O1 C10 1.240 . S
O2 In0 2.326 . S
O2 C10 1.252 . S
C3 O6 1.252 . S
C3 O7 1.260 . S
C4 O11 1.240 . S
C4 O12 1.252 . S
C5 O8 1.252 . S
C5 O9 1.260 . S
O6 In0 2.266 . S
O6 C3 1.252 . S
O7 In0 2.326 . S
O7 C3 1.260 . S
O8 In0 2.266 . S
O8 C5 1.252 . S
O9 In0 2.326 . S
O9 C5 1.260 . S
C10 O1 1.240 . S
C10 O2 1.252 . S
O11 In0 2.294 . S
O11 C4 1.240 . S
O12 In0 2.326 . S
O12 C4 1.252 . S
In13 O14 2.294 . S
In13 O15 2.326 . S
In13 O19 2.266 . S
In13 O20 2.326 . S
In13 O21 2.266 . S
In13 O22 2.326 . S
In13 O24 2.294 . S
In13 O25 2.326 . S
O14 In13 2.294 . S
O14 C23 1.240 . S
O15 In13 2.326 . S
O15 C23 1.252 . S
C16 O19 1.252 . S
C16 O20 1.260 . S
C17 O24 1.240 . S
C17 O25 1.252 . S
C18 O21 1.252 . S
C18 O22 1.260 . S
O19 In13 2.266 . S
O19 C16 1.252 . S
O20 In13 2.326 . S
O20 C16 1.260 . S
O21 In13 2.266 . S
O21 C18 1.252 . S
O22 In13 2.326 . S
O22 C18 1.260 . S
C23 O14 1.240 . S
C23 O15 1.252 . S
O24 In13 2.294 . S
O24 C17 1.240 . S
O25 In13 2.326 . S
O25 C17 1.252 . S
In26 O27 2.294 . S
In26 O28 2.326 . S
In26 O32 2.266 . S
In26 O33 2.326 . S
In26 O34 2.266 . S
In26 O35 2.326 . S
In26 O37 2.294 . S
In26 O38 2.326 . S
O27 In26 2.294 . S
O27 C36 1.240 . S
O28 In26 2.326 . S
O28 C36 1.252 . S
C29 O32 1.252 . S
C29 O33 1.260 . S
C30 O37 1.240 . S
C30 O38 1.252 . S
C31 O34 1.252 . S
C31 O35 1.260 . S
O32 In26 2.266 . S
O32 C29 1.252 . S
O33 In26 2.326 . S
O33 C29 1.260 . S
O34 In26 2.266 . S
O34 C31 1.252 . S
O35 In26 2.326 . S
O35 C31 1.260 . S
C36 O27 1.240 . S
C36 O28 1.252 . S
O37 In26 2.294 . S
O37 C30 1.240 . S
O38 In26 2.326 . S
O38 C30 1.252 . S
In39 O40 2.294 . S
In39 O41 2.326 . S
In39 O45 2.266 . S
In39 O46 2.326 . S
In39 O47 2.266 . S
In39 O48 2.326 . S
In39 O50 2.294 . S
In39 O51 2.326 . S
O40 In39 2.294 . S
O40 C49 1.240 . S
O41 In39 2.326 . S
O41 C49 1.252 . S
C42 O45 1.252 . S
C42 O46 1.260 . S
C43 O50 1.240 . S
C43 O51 1.252 . S
C44 O47 1.252 . S
C44 O48 1.260 . S
O45 In39 2.266 . S
O45 C42 1.252 . S
O46 In39 2.326 . S
O46 C42 1.260 . S
O47 In39 2.266 . S
O47 C44 1.252 . S
O48 In39 2.326 . S
O48 C44 1.260 . S
C49 O40 1.240 . S
C49 O41 1.252 . S
O50 In39 2.294 . S
O50 C43 1.240 . S
O51 In39 2.326 . S
O51 C43 1.252 . S
In52 O53 2.294 . S
In52 O54 2.326 . S
In52 O58 2.266 . S
In52 O59 2.326 . S
In52 O60 2.266 . S
In52 O61 2.326 . S
In52 O63 2.294 . S
In52 O64 2.326 . S
O53 In52 2.294 . S
O53 C62 1.240 . S
O54 In52 2.326 . S
O54 C62 1.252 . S
C55 O58 1.252 . S
C55 O59 1.260 . S
C56 O63 1.240 . S
C56 O64 1.252 . S
C57 O60 1.252 . S
C57 O61 1.260 . S
O58 In52 2.266 . S
O58 C55 1.252 . S
O59 In52 2.326 . S
O59 C55 1.260 . S
O60 In52 2.266 . S
O60 C57 1.252 . S
O61 In52 2.326 . S
O61 C57 1.260 . S
C62 O53 1.240 . S
C62 O54 1.252 . S
O63 In52 2.294 . S
O63 C56 1.240 . S
O64 In52 2.326 . S
O64 C56 1.252 . S
In65 O66 2.294 . S
In65 O67 2.326 . S
In65 O71 2.266 . S
In65 O72 2.326 . S
In65 O73 2.266 . S
In65 O74 2.326 . S
In65 O76 2.294 . S
In65 O77 2.326 . S
O66 In65 2.294 . S
O66 C75 1.240 . S
O67 In65 2.326 . S
O67 C75 1.252 . S
C68 O71 1.252 . S
C68 O72 1.260 . S
C69 O76 1.240 . S
C69 O77 1.252 . S
C70 O73 1.252 . S
C70 O74 1.260 . S
O71 In65 2.266 . S
O71 C68 1.252 . S
O72 In65 2.326 . S
O72 C68 1.260 . S
O73 In65 2.266 . S
O73 C70 1.252 . S
O74 In65 2.326 . S
O74 C70 1.260 . S
C75 O66 1.240 . S
C75 O67 1.252 . S
O76 In65 2.294 . S
O76 C69 1.240 . S
O77 In65 2.326 . S
O77 C69 1.252 . S
In78 O79 2.294 . S
In78 O80 2.326 . S
In78 O84 2.266 . S
In78 O85 2.326 1_565 S
In78 O86 2.266 1_565 S
In78 O87 2.326 1_565 S
In78 O89 2.294 . S
In78 O90 2.326 . S
O79 In78 2.294 . S
O79 C88 1.240 . S
O80 In78 2.326 . S
O80 C88 1.252 . S
C81 O84 1.252 1_545 S
C81 O85 1.260 . S
C82 O89 1.240 . S
C82 O90 1.252 . S
C83 O86 1.252 . S
C83 O87 1.260 . S
O84 In78 2.266 . S
O84 C81 1.252 1_565 S
O85 In78 2.326 1_545 S
O85 C81 1.260 . S
O86 In78 2.266 1_545 S
O86 C83 1.252 . S
O87 In78 2.326 1_545 S
O87 C83 1.260 . S
C88 O79 1.240 . S
C88 O80 1.252 . S
O89 In78 2.294 . S
O89 C82 1.240 . S
O90 In78 2.326 . S
O90 C82 1.252 . S
In91 O92 2.294 . S
In91 O93 2.326 . S
In91 O97 2.266 . S
In91 O98 2.326 . S
In91 O99 2.266 . S
In91 O100 2.326 . S
In91 O102 2.294 . S
In91 O103 2.326 . S
O92 In91 2.294 . S
O92 C101 1.240 . S
O93 In91 2.326 . S
O93 C101 1.252 . S
C94 O97 1.252 . S
C94 O98 1.260 . S
C95 O102 1.240 . S
C95 O103 1.252 . S
C96 O99 1.252 . S
C96 O100 1.260 . S
O97 In91 2.266 . S
O97 C94 1.252 . S
O98 In91 2.326 . S
O98 C94 1.260 . S
O99 In91 2.266 . S
O99 C96 1.252 . S
O100 In91 2.326 . S
O100 C96 1.260 . S
C101 O92 1.240 . S
C101 O93 1.252 . S
O102 In91 2.294 . S
O102 C95 1.240 . S
O103 In91 2.326 . S
O103 C95 1.252 . S
In104 O105 2.294 . S
In104 O106 2.326 . S
In104 O110 2.266 . S
In104 O111 2.326 . S
In104 O112 2.266 . S
In104 O113 2.326 . S
In104 O115 2.294 . S
In104 O116 2.326 . S
O105 In104 2.294 . S
O105 C114 1.240 . S
O106 In104 2.326 . S
O106 C114 1.252 . S
C107 O110 1.252 . S
C107 O111 1.260 . S
C108 O115 1.240 . S
C108 O116 1.252 . S
C109 O112 1.252 . S
C109 O113 1.260 . S
O110 In104 2.266 . S
O110 C107 1.252 . S
O111 In104 2.326 . S
O111 C107 1.260 . S
O112 In104 2.266 . S
O112 C109 1.252 . S
O113 In104 2.326 . S
O113 C109 1.260 . S
C114 O105 1.240 . S
C114 O106 1.252 . S
O115 In104 2.294 . S
O115 C108 1.240 . S
O116 In104 2.326 . S
O116 C108 1.252 . S
In117 O118 2.294 1_554 S
In117 O119 2.326 1_554 S
In117 O123 2.266 . S
In117 O124 2.326 . S
In117 O125 2.266 . S
In117 O126 2.326 1_554 S
In117 O128 2.294 . S
In117 O129 2.326 . S
O118 In117 2.294 1_556 S
O118 C127 1.240 . S
O119 In117 2.326 1_556 S
O119 C127 1.252 . S
C120 O123 1.252 . S
C120 O124 1.260 . S
C121 O128 1.240 . S
C121 O129 1.252 . S
C122 O125 1.252 . S
C122 O126 1.260 1_554 S
O123 In117 2.266 . S
O123 C120 1.252 . S
O124 In117 2.326 . S
O124 C120 1.260 . S
O125 In117 2.266 . S
O125 C122 1.252 . S
O126 In117 2.326 1_556 S
O126 C122 1.260 1_556 S
C127 O118 1.240 . S
C127 O119 1.252 . S
O128 In117 2.294 . S
O128 C121 1.240 . S
O129 In117 2.326 . S
O129 C121 1.252 . S
In130 O131 2.294 . S
In130 O132 2.326 . S
In130 O136 2.266 . S
In130 O137 2.326 1_564 S
In130 O138 2.266 1_565 S
In130 O139 2.326 1_565 S
In130 O141 2.294 1_554 S
In130 O142 2.326 1_554 S
O131 In130 2.294 . S
O131 C140 1.240 . S
O132 In130 2.326 . S
O132 C140 1.252 . S
C133 O136 1.252 1_545 S
C133 O137 1.260 1_554 S
C134 O141 1.240 . S
C134 O142 1.252 . S
C135 O138 1.252 . S
C135 O139 1.260 . S
O136 In130 2.266 . S
O136 C133 1.252 1_565 S
O137 In130 2.326 1_546 S
O137 C133 1.260 1_556 S
O138 In130 2.266 1_545 S
O138 C135 1.252 . S
O139 In130 2.326 1_545 S
O139 C135 1.260 . S
C140 O131 1.240 . S
C140 O132 1.252 . S
O141 In130 2.294 1_556 S
O141 C134 1.240 . S
O142 In130 2.326 1_556 S
O142 C134 1.252 . S
In143 O144 2.294 1_554 S
In143 O145 2.326 1_554 S
In143 O149 2.266 . S
In143 O150 2.326 . S
In143 O151 2.266 . S
In143 O152 2.326 1_554 S
In143 O154 2.294 . S
In143 O155 2.326 . S
O144 In143 2.294 1_556 S
O144 C153 1.240 . S
O145 In143 2.326 1_556 S
O145 C153 1.252 . S
C146 O149 1.252 . S
C146 O150 1.260 . S
C147 O154 1.240 . S
C147 O155 1.252 . S
C148 O151 1.252 . S
C148 O152 1.260 1_554 S
O149 In143 2.266 . S
O149 C146 1.252 . S
O150 In143 2.326 . S
O150 C146 1.260 . S
O151 In143 2.266 . S
O151 C148 1.252 . S
O152 In143 2.326 1_556 S
O152 C148 1.260 1_556 S
C153 O144 1.240 . S
C153 O145 1.252 . S
O154 In143 2.294 . S
O154 C147 1.240 . S
O155 In143 2.326 . S
O155 C147 1.252 . S
In156 O157 2.294 1_556 S
In156 O158 2.326 1_556 S
In156 O162 2.266 . S
In156 O163 2.326 . S
In156 O164 2.266 . S
In156 O165 2.326 1_556 S
In156 O167 2.294 . S
In156 O168 2.326 . S
O157 In156 2.294 1_554 S
O157 C166 1.240 . S
O158 In156 2.326 1_554 S
O158 C166 1.252 . S
C159 O162 1.252 . S
C159 O163 1.260 . S
C160 O167 1.240 . S
C160 O168 1.252 . S
C161 O164 1.252 . S
C161 O165 1.260 1_556 S
O162 In156 2.266 . S
O162 C159 1.252 . S
O163 In156 2.326 . S
O163 C159 1.260 . S
O164 In156 2.266 . S
O164 C161 1.252 . S
O165 In156 2.326 1_554 S
O165 C161 1.260 1_554 S
C166 O157 1.240 . S
C166 O158 1.252 . S
O167 In156 2.294 . S
O167 C160 1.240 . S
O168 In156 2.326 . S
O168 C160 1.252 . S
In169 O170 2.294 1_556 S
In169 O171 2.326 1_556 S
In169 O175 2.266 . S
In169 O176 2.326 . S
In169 O177 2.266 . S
In169 O178 2.326 1_556 S
In169 O180 2.294 . S
In169 O181 2.326 . S
O170 In169 2.294 1_554 S
O170 C179 1.240 . S
O171 In169 2.326 1_554 S
O171 C179 1.252 . S
C172 O175 1.252 . S
C172 O176 1.260 . S
C173 O180 1.240 . S
C173 O181 1.252 . S
C174 O177 1.252 . S
C174 O178 1.260 1_556 S
O175 In169 2.266 . S
O175 C172 1.252 . S
O176 In169 2.326 . S
O176 C172 1.260 . S
O177 In169 2.266 . S
O177 C174 1.252 . S
O178 In169 2.326 1_554 S
O178 C174 1.260 1_554 S
C179 O170 1.240 . S
C179 O171 1.252 . S
O180 In169 2.294 . S
O180 C173 1.240 . S
O181 In169 2.326 . S
O181 C173 1.252 . S
In182 O183 2.294 1_556 S
In182 O184 2.326 1_556 S
In182 O188 2.266 1_655 S
In182 O189 2.326 1_655 S
In182 O190 2.266 . S
In182 O191 2.326 1_656 S
In182 O193 2.294 . S
In182 O194 2.326 . S
O183 In182 2.294 1_554 S
O183 C192 1.240 . S
O184 In182 2.326 1_554 S
O184 C192 1.252 . S
C185 O188 1.252 . S
C185 O189 1.260 . S
C186 O193 1.240 . S
C186 O194 1.252 . S
C187 O190 1.252 1_455 S
C187 O191 1.260 1_556 S
O188 In182 2.266 1_455 S
O188 C185 1.252 . S
O189 In182 2.326 1_455 S
O189 C185 1.260 . S
O190 In182 2.266 . S
O190 C187 1.252 1_655 S
O191 In182 2.326 1_454 S
O191 C187 1.260 1_554 S
C192 O183 1.240 . S
C192 O184 1.252 . S
O193 In182 2.294 . S
O193 C186 1.240 . S
O194 In182 2.326 . S
O194 C186 1.252 . S
In195 O196 2.294 . S
In195 O197 2.326 . S
In195 O201 2.266 . S
In195 O202 2.326 . S
In195 O203 2.266 . S
In195 O204 2.326 . S
In195 O206 2.294 . S
In195 O207 2.326 . S
O196 In195 2.294 . S
O196 C205 1.240 . S
O197 In195 2.326 . S
O197 C205 1.252 . S
C198 O201 1.252 . S
C198 O202 1.260 . S
C199 O206 1.240 . S
C199 O207 1.252 . S
C200 O203 1.252 . S
C200 O204 1.260 . S
O201 In195 2.266 . S
O201 C198 1.252 . S
O202 In195 2.326 . S
O202 C198 1.260 . S
O203 In195 2.266 . S
O203 C200 1.252 . S
O204 In195 2.326 . S
O204 C200 1.260 . S
C205 O196 1.240 . S
C205 O197 1.252 . S
O206 In195 2.294 . S
O206 C199 1.240 . S
O207 In195 2.326 . S
O207 C199 1.252 . S
In208 O209 2.294 . S
In208 O210 2.326 . S
In208 O214 2.266 1_655 S
In208 O215 2.326 1_655 S
In208 O216 2.266 . S
In208 O217 2.326 1_655 S
In208 O219 2.294 . S
In208 O220 2.326 . S
O209 In208 2.294 . S
O209 C218 1.240 . S
O210 In208 2.326 . S
O210 C218 1.252 . S
C211 O214 1.252 . S
C211 O215 1.260 . S
C212 O219 1.240 . S
C212 O220 1.252 . S
C213 O216 1.252 1_455 S
C213 O217 1.260 . S
O214 In208 2.266 1_455 S
O214 C211 1.252 . S
O215 In208 2.326 1_455 S
O215 C211 1.260 . S
O216 In208 2.266 . S
O216 C213 1.252 1_655 S
O217 In208 2.326 1_455 S
O217 C213 1.260 . S
C218 O209 1.240 . S
C218 O210 1.252 . S
O219 In208 2.294 . S
O219 C212 1.240 . S
O220 In208 2.326 . S
O220 C212 1.252 . S
In221 O222 2.294 . S
In221 O223 2.326 . S
In221 O227 2.266 . S
In221 O228 2.326 . S
In221 O229 2.266 . S
In221 O230 2.326 . S
In221 O232 2.294 . S
In221 O233 2.326 . S
O222 In221 2.294 . S
O222 C231 1.240 . S
O223 In221 2.326 . S
O223 C231 1.252 . S
C224 O227 1.252 . S
C224 O228 1.260 . S
C225 O232 1.240 . S
C225 O233 1.252 . S
C226 O229 1.252 . S
C226 O230 1.260 . S
O227 In221 2.266 . S
O227 C224 1.252 . S
O228 In221 2.326 . S
O228 C224 1.260 . S
O229 In221 2.266 . S
O229 C226 1.252 . S
O230 In221 2.326 . S
O230 C226 1.260 . S
C231 O222 1.240 . S
C231 O223 1.252 . S
O232 In221 2.294 . S
O232 C225 1.240 . S
O233 In221 2.326 . S
O233 C225 1.252 . S
C234 C235 1.363 1_554 S
C234 C240 1.379 . S
C234 N242 1.356 . S
C235 C234 1.363 1_556 S
C235 C241 1.363 . S
C236 C237 1.363 1_556 S
C236 C241 1.379 . S
C236 N243 1.356 . S
C237 C236 1.363 1_554 S
C237 C240 1.363 . S
N238 C240 1.356 . S
N238 H250 0.984 . S
N238 H251 0.985 . S
N239 C241 1.356 . S
N239 H244 0.984 . S
N239 H245 0.985 . S
C240 C234 1.379 . S
C240 C237 1.363 . S
C240 N238 1.356 . S
C241 C235 1.363 . S
C241 C236 1.379 . S
C241 N239 1.356 . S
N242 C234 1.356 . S
N242 H248 0.984 . S
N242 H249 0.984 1_554 S
N243 C236 1.356 . S
N243 H246 0.984 1_556 S
N243 H247 0.985 . S
H244 N239 0.984 . S
H245 N239 0.985 . S
H246 N243 0.984 1_554 S
H247 N243 0.985 . S
H248 N242 0.984 . S
H249 N242 0.984 1_556 S
H250 N238 0.984 . S
H251 N238 0.985 . S
C252 C253 1.363 . S
C252 C258 1.379 . S
C252 N260 1.356 . S
C253 C252 1.363 . S
C253 C259 1.363 1_556 S
C254 C255 1.363 . S
C254 C259 1.379 . S
C254 N261 1.356 . S
C255 C254 1.363 . S
C255 C258 1.363 1_554 S
N256 C258 1.356 . S
N256 H268 0.984 . S
N256 H269 0.985 1_556 S
N257 C259 1.356 . S
N257 H262 0.984 1_554 S
N257 H263 0.985 . S
C258 C252 1.379 . S
C258 C255 1.363 1_556 S
C258 N256 1.356 . S
C259 C253 1.363 1_554 S
C259 C254 1.379 . S
C259 N257 1.356 . S
N260 C252 1.356 . S
N260 H266 0.984 . S
N260 H267 0.984 . S
N261 C254 1.356 . S
N261 H264 0.984 . S
N261 H265 0.985 . S
H262 N257 0.984 1_556 S
H263 N257 0.985 . S
H264 N261 0.984 . S
H265 N261 0.985 . S
H266 N260 0.984 . S
H267 N260 0.984 . S
H268 N256 0.984 . S
H269 N256 0.985 1_554 S
C270 C271 1.363 . S
C270 C276 1.379 . S
C270 N278 1.356 . S
C271 C270 1.363 . S
C271 C277 1.363 1_554 S
C272 C273 1.363 . S
C272 C277 1.379 . S
C272 N279 1.356 . S
C273 C272 1.363 . S
C273 C276 1.363 1_556 S
N274 C276 1.356 . S
N274 H286 0.984 . S
N274 H287 0.985 1_554 S
N275 C277 1.356 . S
N275 H280 0.984 1_556 S
N275 H281 0.985 . S
C276 C270 1.379 . S
C276 C273 1.363 1_554 S
C276 N274 1.356 . S
C277 C271 1.363 1_556 S
C277 C272 1.379 . S
C277 N275 1.356 . S
N278 C270 1.356 . S
N278 H284 0.984 . S
N278 H285 0.984 . S
N279 C272 1.356 . S
N279 H282 0.984 . S
N279 H283 0.985 . S
H280 N275 0.984 1_554 S
H281 N275 0.985 . S
H282 N279 0.984 . S
H283 N279 0.985 . S
H284 N278 0.984 . S
H285 N278 0.984 . S
H286 N274 0.984 . S
H287 N274 0.985 1_556 S
C288 C289 1.363 . S
C288 C294 1.379 . S
C288 N296 1.356 . S
C289 C288 1.363 . S
C289 C295 1.363 . S
C290 C291 1.363 . S
C290 C295 1.379 . S
C290 N297 1.356 . S
C291 C290 1.363 . S
C291 C294 1.363 . S
N292 C294 1.356 . S
N292 H304 0.984 . S
N292 H305 0.985 . S
N293 C295 1.356 . S
N293 H298 0.984 . S
N293 H299 0.985 . S
C294 C288 1.379 . S
C294 C291 1.363 . S
C294 N292 1.356 . S
C295 C289 1.363 . S
C295 C290 1.379 . S
C295 N293 1.356 . S
N296 C288 1.356 . S
N296 H302 0.984 . S
N296 H303 0.984 . S
N297 C290 1.356 . S
N297 H300 0.984 . S
N297 H301 0.985 . S
H298 N293 0.984 . S
H299 N293 0.985 . S
H300 N297 0.984 . S
H301 N297 0.985 . S
H302 N296 0.984 . S
H303 N296 0.984 . S
H304 N292 0.984 . S
H305 N292 0.985 . S
C306 C307 1.363 . S
C306 C312 1.379 . S
C306 N314 1.356 . S
C307 C306 1.363 . S
C307 C313 1.363 . S
C308 C309 1.363 . S
C308 C313 1.379 . S
C308 N315 1.356 . S
C309 C308 1.363 . S
C309 C312 1.363 . S
N310 C312 1.356 . S
N310 H322 0.984 . S
N310 H323 0.985 . S
N311 C313 1.356 . S
N311 H316 0.984 . S
N311 H317 0.985 . S
C312 C306 1.379 . S
C312 C309 1.363 . S
C312 N310 1.356 . S
C313 C307 1.363 . S
C313 C308 1.379 . S
C313 N311 1.356 . S
N314 C306 1.356 . S
N314 H320 0.984 . S
N314 H321 0.984 . S
N315 C308 1.356 . S
N315 H318 0.984 . S
N315 H319 0.985 . S
H316 N311 0.984 . S
H317 N311 0.985 . S
H318 N315 0.984 . S
H319 N315 0.985 . S
H320 N314 0.984 . S
H321 N314 0.984 . S
H322 N310 0.984 . S
H323 N310 0.985 . S
C324 C325 1.363 . S
C324 C330 1.379 . S
C324 N332 1.356 . S
C325 C324 1.363 . S
C325 C331 1.363 . S
C326 C327 1.363 . S
C326 C331 1.379 . S
C326 N333 1.356 . S
C327 C326 1.363 . S
C327 C330 1.363 . S
N328 C330 1.356 . S
N328 H340 0.984 . S
N328 H341 0.985 . S
N329 C331 1.356 . S
N329 H334 0.984 . S
N329 H335 0.985 . S
C330 C324 1.379 . S
C330 C327 1.363 . S
C330 N328 1.356 . S
C331 C325 1.363 . S
C331 C326 1.379 . S
C331 N329 1.356 . S
N332 C324 1.356 . S
N332 H338 0.984 . S
N332 H339 0.984 . S
N333 C326 1.356 . S
N333 H336 0.984 . S
N333 H337 0.985 . S
H334 N329 0.984 . S
H335 N329 0.985 . S
H336 N333 0.984 . S
H337 N333 0.985 . S
H338 N332 0.984 . S
H339 N332 0.984 . S
H340 N328 0.984 . S
H341 N328 0.985 . S
C342 C343 1.363 . S
C342 C348 1.379 . S
C342 N350 1.356 . S
C343 C342 1.363 . S
C343 C349 1.363 . S
C344 C345 1.363 . S
C344 C349 1.379 . S
C344 N351 1.356 . S
C345 C344 1.363 . S
C345 C348 1.363 . S
N346 C348 1.356 . S
N346 H358 0.984 . S
N346 H359 0.985 . S
N347 C349 1.356 . S
N347 H352 0.984 . S
N347 H353 0.985 . S
C348 C342 1.379 . S
C348 C345 1.363 . S
C348 N346 1.356 . S
C349 C343 1.363 . S
C349 C344 1.379 . S
C349 N347 1.356 . S
N350 C342 1.356 . S
N350 H356 0.984 . S
N350 H357 0.984 . S
N351 C344 1.356 . S
N351 H354 0.984 . S
N351 H355 0.985 . S
H352 N347 0.984 . S
H353 N347 0.985 . S
H354 N351 0.984 . S
H355 N351 0.985 . S
H356 N350 0.984 . S
H357 N350 0.984 . S
H358 N346 0.984 . S
H359 N346 0.985 . S
C360 C361 1.363 . S
C360 C366 1.379 . S
C360 N368 1.356 . S
C361 C360 1.363 . S
C361 C367 1.363 . S
C362 C363 1.363 . S
C362 C367 1.379 . S
C362 N369 1.356 . S
C363 C362 1.363 . S
C363 C366 1.363 . S
N364 C366 1.356 . S
N364 H376 0.984 . S
N364 H377 0.985 . S
N365 C367 1.356 . S
N365 H370 0.984 . S
N365 H371 0.985 . S
C366 C360 1.379 . S
C366 C363 1.363 . S
C366 N364 1.356 . S
C367 C361 1.363 . S
C367 C362 1.379 . S
C367 N365 1.356 . S
N368 C360 1.356 . S
N368 H374 0.984 . S
N368 H375 0.984 . S
N369 C362 1.356 . S
N369 H372 0.984 . S
N369 H373 0.985 . S
H370 N365 0.984 . S
H371 N365 0.985 . S
H372 N369 0.984 . S
H373 N369 0.985 . S
H374 N368 0.984 . S
H375 N368 0.984 . S
H376 N364 0.984 . S
H377 N364 0.985 . S
C378 C379 1.363 . S
C378 C384 1.379 . S
C378 N386 1.356 . S
C379 C378 1.363 . S
C379 C385 1.363 . S
C380 C381 1.363 . S
C380 C385 1.379 . S
C380 N387 1.356 . S
C381 C380 1.363 . S
C381 C384 1.363 . S
N382 C384 1.356 . S
N382 H394 0.984 . S
N382 H395 0.985 . S
N383 C385 1.356 . S
N383 H388 0.984 . S
N383 H389 0.985 . S
C384 C378 1.379 . S
C384 C381 1.363 . S
C384 N382 1.356 . S
C385 C379 1.363 . S
C385 C380 1.379 . S
C385 N383 1.356 . S
N386 C378 1.356 . S
N386 H392 0.984 . S
N386 H393 0.984 . S
N387 C380 1.356 . S
N387 H390 0.984 . S
N387 H391 0.985 . S
H388 N383 0.984 . S
H389 N383 0.985 . S
H390 N387 0.984 . S
H391 N387 0.985 . S
H392 N386 0.984 . S
H393 N386 0.984 . S
H394 N382 0.984 . S
H395 N382 0.985 . S
C396 C397 1.363 . S
C396 C402 1.379 . S
C396 N404 1.356 . S
C397 C396 1.363 . S
C397 C403 1.363 . S
C398 C399 1.363 . S
C398 C403 1.379 . S
C398 N405 1.356 . S
C399 C398 1.363 . S
C399 C402 1.363 . S
N400 C402 1.356 . S
N400 H412 0.984 . S
N400 H413 0.985 . S
N401 C403 1.356 . S
N401 H406 0.987 . S
N401 H407 0.985 . S
C402 C396 1.379 . S
C402 C399 1.363 . S
C402 N400 1.356 . S
C403 C397 1.363 . S
C403 C398 1.379 . S
C403 N401 1.356 . S
N404 C396 1.356 . S
N404 H410 0.984 . S
N404 H411 0.984 . S
N405 C398 1.356 . S
N405 H408 0.984 . S
N405 H409 0.985 . S
H406 N401 0.987 . S
H407 N401 0.985 . S
H408 N405 0.984 . S
H409 N405 0.985 . S
H410 N404 0.984 . S
H411 N404 0.984 . S
H412 N400 0.984 . S
H413 N400 0.985 . S
C414 C415 1.363 . S
C414 C420 1.379 . S
C414 N422 1.356 1_556 S
C415 C414 1.363 . S
C415 C421 1.363 . S
C416 C417 1.363 . S
C416 C421 1.379 . S
C416 N423 1.356 . S
C417 C416 1.363 . S
C417 C420 1.363 . S
N418 C420 1.356 . S
N418 H430 0.984 . S
N418 H431 0.985 . S
N419 C421 1.356 . S
N419 H424 0.984 . S
N419 H425 0.985 . S
C420 C414 1.379 . S
C420 C417 1.363 . S
C420 N418 1.356 . S
C421 C415 1.363 . S
C421 C416 1.379 . S
C421 N419 1.356 . S
N422 C414 1.356 1_554 S
N422 H428 0.984 . S
N422 H429 0.984 . S
N423 C416 1.356 . S
N423 H426 0.984 . S
N423 H427 0.985 . S
H424 N419 0.984 . S
H425 N419 0.985 . S
H426 N423 0.984 . S
H427 N423 0.985 . S
H428 N422 0.984 . S
H429 N422 0.984 . S
H430 N418 0.984 . S
H431 N418 0.985 . S
C432 C433 1.363 . S
C432 C438 1.379 . S
C432 N440 1.356 . S
C433 C432 1.363 . S
C433 C439 1.363 . S
C434 C435 1.363 . S
C434 C439 1.379 . S
C434 N441 1.356 . S
C435 C434 1.363 . S
C435 C438 1.363 . S
N436 C438 1.356 . S
N436 H448 0.984 . S
N436 H449 0.985 . S
N437 C439 1.356 . S
N437 H442 0.984 . S
N437 H443 0.985 . S
C438 C432 1.379 . S
C438 C435 1.363 . S
C438 N436 1.356 . S
C439 C433 1.363 . S
C439 C434 1.379 . S
C439 N437 1.356 . S
N440 C432 1.356 . S
N440 H446 0.984 . S
N440 H447 0.984 . S
N441 C434 1.356 . S
N441 H444 0.984 . S
N441 H445 0.985 . S
H442 N437 0.984 . S
H443 N437 0.985 . S
H444 N441 0.984 . S
H445 N441 0.985 . S
H446 N440 0.984 . S
H447 N440 0.984 . S
H448 N436 0.984 . S
H449 N436 0.985 . S
C450 C451 1.363 . S
C450 C456 1.379 . S
C450 N458 1.356 . S
C451 C450 1.363 . S
C451 C457 1.363 . S
C452 C453 1.363 . S
C452 C457 1.379 . S
C452 N459 1.356 . S
C453 C452 1.363 . S
C453 C456 1.363 . S
N454 C456 1.356 . S
N454 H466 0.984 . S
N454 H467 0.985 . S
N455 C457 1.356 . S
N455 H460 0.984 . S
N455 H461 0.985 . S
C456 C450 1.379 . S
C456 C453 1.363 . S
C456 N454 1.356 . S
C457 C451 1.363 . S
C457 C452 1.379 . S
C457 N455 1.356 . S
N458 C450 1.356 . S
N458 H464 0.984 . S
N458 H465 0.984 . S
N459 C452 1.356 . S
N459 H462 0.984 . S
N459 H463 0.985 . S
H460 N455 0.984 . S
H461 N455 0.985 . S
H462 N459 0.984 . S
H463 N459 0.985 . S
H464 N458 0.984 . S
H465 N458 0.984 . S
H466 N454 0.984 . S
H467 N454 0.985 . S
C468 C469 1.363 . S
C468 C474 1.379 . S
C468 N476 1.356 . S
C469 C468 1.363 . S
C469 C475 1.363 . S
C470 C471 1.363 . S
C470 C475 1.379 . S
C470 N477 1.356 . S
C471 C470 1.363 . S
C471 C474 1.363 . S
N472 C474 1.356 . S
N472 H484 0.984 . S
N472 H485 0.985 . S
N473 C475 1.356 . S
N473 H478 0.984 . S
N473 H479 0.985 . S
C474 C468 1.379 . S
C474 C471 1.363 . S
C474 N472 1.356 . S
C475 C469 1.363 . S
C475 C470 1.379 . S
C475 N473 1.356 . S
N476 C468 1.356 . S
N476 H482 0.984 . S
N476 H483 0.984 . S
N477 C470 1.356 . S
N477 H480 0.984 . S
N477 H481 0.985 . S
H478 N473 0.984 . S
H479 N473 0.985 . S
H480 N477 0.984 . S
H481 N477 0.985 . S
H482 N476 0.984 . S
H483 N476 0.984 . S
H484 N472 0.984 . S
H485 N472 0.985 . S
C486 C487 1.363 . S
C486 C492 1.379 . S
C486 N494 1.356 . S
C487 C486 1.363 . S
C487 C493 1.363 . S
C488 C489 1.363 . S
C488 C493 1.379 . S
C488 N495 1.356 . S
C489 C488 1.363 . S
C489 C492 1.363 . S
N490 C492 1.356 . S
N490 H502 0.984 . S
N490 H503 0.985 . S
N491 C493 1.356 . S
N491 H496 0.984 . S
N491 H497 0.985 . S
C492 C486 1.379 . S
C492 C489 1.363 . S
C492 N490 1.356 . S
C493 C487 1.363 . S
C493 C488 1.379 . S
C493 N491 1.356 . S
N494 C486 1.356 . S
N494 H500 0.984 . S
N494 H501 0.984 . S
N495 C488 1.356 . S
N495 H498 0.984 . S
N495 H499 0.985 . S
H496 N491 0.984 . S
H497 N491 0.985 . S
H498 N495 0.984 . S
H499 N495 0.985 . S
H500 N494 0.984 . S
H501 N494 0.984 . S
H502 N490 0.984 . S
H503 N490 0.985 . S
C504 C505 1.363 . S
C504 C510 1.379 . S
C504 N512 1.356 . S
C505 C504 1.363 . S
C505 C511 1.363 . S
C506 C507 1.363 . S
C506 C511 1.379 . S
C506 N513 1.356 . S
C507 C506 1.363 . S
C507 C510 1.363 . S
N508 C510 1.356 . S
N508 H520 0.984 . S
N508 H521 0.985 . S
N509 C511 1.356 . S
N509 H514 0.984 . S
N509 H515 0.985 . S
C510 C504 1.379 . S
C510 C507 1.363 . S
C510 N508 1.356 . S
C511 C505 1.363 . S
C511 C506 1.379 . S
C511 N509 1.356 . S
N512 C504 1.356 . S
N512 H518 0.984 . S
N512 H519 0.984 . S
N513 C506 1.356 . S
N513 H516 0.984 . S
N513 H517 0.985 . S
H514 N509 0.984 . S
H515 N509 0.985 . S
H516 N513 0.984 . S
H517 N513 0.985 . S
H518 N512 0.984 . S
H519 N512 0.984 . S
H520 N508 0.984 . S
H521 N508 0.985 . S
C522 C523 1.363 . S
C522 C528 1.379 . S
C522 N530 1.356 . S
C523 C522 1.363 . S
C523 C529 1.363 . S
C524 C525 1.363 . S
C524 C529 1.379 . S
C524 N531 1.356 . S
C525 C524 1.363 . S
C525 C528 1.363 . S
N526 C528 1.356 . S
N526 H538 0.984 1_554 S
N526 H539 0.985 1_554 S
N527 C529 1.356 . S
N527 H532 0.984 . S
N527 H533 0.985 . S
C528 C522 1.379 . S
C528 C525 1.363 . S
C528 N526 1.356 . S
C529 C523 1.363 . S
C529 C524 1.379 . S
C529 N527 1.356 . S
N530 C522 1.356 . S
N530 H536 0.984 . S
N530 H537 0.984 . S
N531 C524 1.356 . S
N531 H534 0.984 . S
N531 H535 0.985 . S
H532 N527 0.984 . S
H533 N527 0.985 . S
H534 N531 0.984 . S
H535 N531 0.985 . S
H536 N530 0.984 . S
H537 N530 0.984 . S
H538 N526 0.984 1_556 S
H539 N526 0.985 1_556 S
C540 C541 1.363 . S
C540 C546 1.379 . S
C540 N548 1.356 . S
C541 C540 1.363 . S
C541 C547 1.363 . S
C542 C543 1.363 . S
C542 C547 1.379 . S
C542 N549 1.356 . S
C543 C542 1.363 . S
C543 C546 1.363 . S
N544 C546 1.356 1_556 S
N544 H556 0.984 . S
N544 H557 0.985 . S
N545 C547 1.356 . S
N545 H550 0.984 . S
N545 H551 0.985 . S
C546 C540 1.379 . S
C546 C543 1.363 . S
C546 N544 1.356 1_554 S
C547 C541 1.363 . S
C547 C542 1.379 . S
C547 N545 1.356 . S
N548 C540 1.356 . S
N548 H554 0.984 . S
N548 H555 0.984 . S
N549 C542 1.356 . S
N549 H552 0.984 . S
N549 H553 0.985 . S
H550 N545 0.984 . S
H551 N545 0.985 . S
H552 N549 0.984 . S
H553 N549 0.985 . S
H554 N548 0.984 . S
H555 N548 0.984 . S
H556 N544 0.984 . S
H557 N544 0.985 . S
C558 C559 1.363 . S
C558 C564 1.379 . S
C558 N566 1.356 . S
C559 C558 1.363 . S
C559 C565 1.363 . S
C560 C561 1.363 . S
C560 C565 1.379 . S
C560 N567 1.356 . S
C561 C560 1.363 . S
C561 C564 1.363 . S
N562 C564 1.356 . S
N562 H574 0.984 . S
N562 H575 0.985 . S
N563 C565 1.356 . S
N563 H568 0.984 . S
N563 H569 0.985 . S
C564 C558 1.379 . S
C564 C561 1.363 . S
C564 N562 1.356 . S
C565 C559 1.363 . S
C565 C560 1.379 . S
C565 N563 1.356 . S
N566 C558 1.356 . S
N566 H572 0.984 . S
N566 H573 0.984 . S
N567 C560 1.356 . S
N567 H570 0.984 . S
N567 H571 0.985 . S
H568 N563 0.984 . S
H569 N563 0.985 . S
H570 N567 0.984 . S
H571 N567 0.985 . S
H572 N566 0.984 . S
H573 N566 0.984 . S
H574 N562 0.984 . S
H575 N562 0.985 . S
C576 C577 1.363 . S
C576 C582 1.379 . S
C576 N584 1.356 . S
C577 C576 1.363 . S
C577 C583 1.363 . S
C578 C579 1.363 . S
C578 C583 1.379 . S
C578 N585 1.356 . S
C579 C578 1.363 . S
C579 C582 1.363 . S
N580 C582 1.356 . S
N580 H592 0.984 . S
N580 H593 0.985 . S
N581 C583 1.356 . S
N581 H586 0.984 . S
N581 H587 0.985 . S
C582 C576 1.379 . S
C582 C579 1.363 . S
C582 N580 1.356 . S
C583 C577 1.363 . S
C583 C578 1.379 . S
C583 N581 1.356 . S
N584 C576 1.356 . S
N584 H590 0.984 . S
N584 H591 0.984 . S
N585 C578 1.356 . S
N585 H588 0.984 . S
N585 H589 0.985 . S
H586 N581 0.984 . S
H587 N581 0.985 . S
H588 N585 0.984 . S
H589 N585 0.985 . S
H590 N584 0.984 . S
H591 N584 0.984 . S
H592 N580 0.984 . S
H593 N580 0.985 . S
C594 C595 1.363 . S
C594 C600 1.379 . S
C594 N602 1.356 . S
C595 C594 1.363 . S
C595 C601 1.363 . S
C596 C597 1.363 . S
C596 C601 1.379 . S
C596 N603 1.356 . S
C597 C596 1.363 . S
C597 C600 1.363 . S
N598 C600 1.356 . S
N598 H610 0.984 . S
N598 H611 0.985 . S
N599 C601 1.356 . S
N599 H604 0.984 1_545 S
N599 H605 0.992 1_545 S
C600 C594 1.379 . S
C600 C597 1.363 . S
C600 N598 1.356 . S
C601 C595 1.363 . S
C601 C596 1.379 . S
C601 N599 1.356 . S
N602 C594 1.356 . S
N602 H608 0.984 . S
N602 H609 0.984 . S
N603 C596 1.356 . S
N603 H606 0.984 . S
N603 H607 0.985 . S
H604 N599 0.984 1_565 S
H605 N599 0.992 1_565 S
H606 N603 0.984 . S
H607 N603 0.985 . S
H608 N602 0.984 . S
H609 N602 0.984 . S
H610 N598 0.984 . S
H611 N598 0.985 . S
C612 C613 1.363 . S
C612 C618 1.379 . S
C612 N620 1.356 . S
C613 C612 1.363 . S
C613 C619 1.363 . S
C614 C615 1.363 . S
C614 C619 1.379 . S
C614 N621 1.356 . S
C615 C614 1.363 . S
C615 C618 1.363 . S
N616 C618 1.356 1_556 S
N616 H628 0.984 . S
N616 H629 0.985 . S
N617 C619 1.356 . S
N617 H622 0.984 . S
N617 H623 0.985 . S
C618 C612 1.379 . S
C618 C615 1.363 . S
C618 N616 1.356 1_554 S
C619 C613 1.363 . S
C619 C614 1.379 . S
C619 N617 1.356 . S
N620 C612 1.356 . S
N620 H626 0.984 . S
N620 H627 0.984 . S
N621 C614 1.356 . S
N621 H624 0.984 . S
N621 H625 0.985 . S
H622 N617 0.984 . S
H623 N617 0.985 . S
H624 N621 0.984 . S
H625 N621 0.985 . S
H626 N620 0.984 . S
H627 N620 0.984 . S
H628 N616 0.984 . S
H629 N616 0.985 . S
C630 C631 1.363 . S
C630 C636 1.379 . S
C630 N638 1.356 1_455 S
C631 C630 1.363 . S
C631 C637 1.363 . S
C632 C633 1.363 . S
C632 C637 1.379 . S
C632 N639 1.356 . S
C633 C632 1.363 . S
C633 C636 1.363 . S
N634 C636 1.356 . S
N634 H646 0.984 1_455 S
N634 H647 0.985 . S
N635 C637 1.356 1_556 S
N635 H640 0.984 . S
N635 H641 0.985 . S
C636 C630 1.379 . S
C636 C633 1.363 . S
C636 N634 1.356 . S
C637 C631 1.363 . S
C637 C632 1.379 . S
C637 N635 1.356 1_554 S
N638 C630 1.356 1_655 S
N638 H644 0.984 . S
N638 H645 0.984 . S
N639 C632 1.356 . S
N639 H642 0.984 . S
N639 H643 0.985 1_554 S
H640 N635 0.984 . S
H641 N635 0.985 . S
H642 N639 0.984 . S
H643 N639 0.985 1_556 S
H644 N638 0.984 . S
H645 N638 0.984 . S
H646 N634 0.984 1_655 S
H647 N634 0.985 . S
C648 C649 1.363 1_556 S
C648 C654 1.379 1_556 S
C648 N656 1.356 . S
C649 C648 1.363 1_554 S
C649 C655 1.363 . S
C650 C651 1.363 . S
C650 C655 1.379 . S
C650 N657 1.356 . S
C651 C650 1.363 . S
C651 C654 1.363 . S
N652 C654 1.356 . S
N652 H664 0.984 1_554 S
N652 H665 0.985 . S
N653 C655 1.356 . S
N653 H658 0.984 . S
N653 H659 0.985 . S
C654 C648 1.379 1_554 S
C654 C651 1.363 . S
C654 N652 1.356 . S
C655 C649 1.363 . S
C655 C650 1.379 . S
C655 N653 1.356 . S
N656 C648 1.356 . S
N656 H662 0.984 . S
N656 H663 0.984 . S
N657 C650 1.356 . S
N657 H660 0.984 . S
N657 H661 0.985 . S
H658 N653 0.984 . S
H659 N653 0.985 . S
H660 N657 0.984 . S
H661 N657 0.985 . S
H662 N656 0.984 . S
H663 N656 0.984 . S
H664 N652 0.984 1_556 S
H665 N652 0.985 . S
C666 C667 1.363 . S
C666 C672 1.379 . S
C666 N674 1.356 . S
C667 C666 1.363 . S
C667 C673 1.363 . S
C668 C669 1.363 . S
C668 C673 1.379 . S
C668 N675 1.356 . S
C669 C668 1.363 . S
C669 C672 1.363 . S
N670 C672 1.356 . S
N670 H682 0.984 . S
N670 H683 0.985 . S
N671 C673 1.356 1_655 S
N671 H676 0.984 . S
N671 H677 0.985 . S
C672 C666 1.379 . S
C672 C669 1.363 . S
C672 N670 1.356 . S
C673 C667 1.363 . S
C673 C668 1.379 . S
C673 N671 1.356 1_455 S
N674 C666 1.356 . S
N674 H680 0.984 . S
N674 H681 0.984 . S
N675 C668 1.356 . S
N675 H678 0.984 . S
N675 H679 0.985 . S
H676 N671 0.984 . S
H677 N671 0.985 . S
H678 N675 0.984 . S
H679 N675 0.985 . S
H680 N674 0.984 . S
H681 N674 0.984 . S
H682 N670 0.984 . S
H683 N670 0.985 . S
C684 C685 1.363 . S
C684 C690 1.379 . S
C684 N692 1.356 . S
C685 C684 1.363 . S
C685 C691 1.363 . S
C686 C687 1.363 . S
C686 C691 1.379 . S
C686 N693 1.356 . S
C687 C686 1.363 . S
C687 C690 1.363 . S
N688 C690 1.356 . S
N688 H700 0.984 . S
N688 H701 0.985 . S
N689 C691 1.356 . S
N689 H694 0.984 . S
N689 H695 0.985 . S
C690 C684 1.379 . S
C690 C687 1.363 . S
C690 N688 1.356 . S
C691 C685 1.363 . S
C691 C686 1.379 . S
C691 N689 1.356 . S
N692 C684 1.356 . S
N692 H698 0.984 . S
N692 H699 0.984 . S
N693 C686 1.356 . S
N693 H696 0.984 . S
N693 H697 0.985 . S
H694 N689 0.984 . S
H695 N689 0.985 . S
H696 N693 0.984 . S
H697 N693 0.985 . S
H698 N692 0.984 . S
H699 N692 0.984 . S
H700 N688 0.984 . S
H701 N688 0.985 . S
C702 C703 1.363 . S
C702 C708 1.379 . S
C702 N710 1.356 . S
C703 C702 1.363 . S
C703 C709 1.363 . S
C704 C705 1.363 . S
C704 C709 1.379 . S
C704 N711 1.356 . S
C705 C704 1.363 . S
C705 C708 1.363 . S
N706 C708 1.356 . S
N706 H718 0.984 . S
N706 H719 0.985 . S
N707 C709 1.356 . S
N707 H712 0.984 . S
N707 H713 0.985 . S
C708 C702 1.379 . S
C708 C705 1.363 . S
C708 N706 1.356 . S
C709 C703 1.363 . S
C709 C704 1.379 . S
C709 N707 1.356 . S
N710 C702 1.356 . S
N710 H716 0.984 . S
N710 H717 0.984 . S
N711 C704 1.356 . S
N711 H714 0.984 . S
N711 H715 0.985 . S
H712 N707 0.984 . S
H713 N707 0.985 . S
H714 N711 0.984 . S
H715 N711 0.985 . S
H716 N710 0.984 . S
H717 N710 0.984 . S
H718 N706 0.984 . S
H719 N706 0.985 . S
C720 C721 1.363 . S
C720 C726 1.379 . S
C720 N728 1.356 1_556 S
C721 C720 1.363 . S
C721 C727 1.363 . S
C722 C723 1.363 . S
C722 C727 1.379 . S
C722 N729 1.356 . S
C723 C722 1.363 . S
C723 C726 1.363 . S
N724 C726 1.356 . S
N724 H736 0.978 1_556 S
N724 H737 0.985 . S
N725 C727 1.356 1_565 S
N725 H730 0.984 . S
N725 H731 0.985 . S
C726 C720 1.379 . S
C726 C723 1.363 . S
C726 N724 1.356 . S
C727 C721 1.363 . S
C727 C722 1.379 . S
C727 N725 1.356 1_545 S
N728 C720 1.356 1_554 S
N728 H734 0.984 . S
N728 H735 0.984 . S
N729 C722 1.356 . S
N729 H732 0.984 . S
N729 H733 0.985 1_545 S
H730 N725 0.984 . S
H731 N725 0.985 . S
H732 N729 0.984 . S
H733 N729 0.985 1_565 S
H734 N728 0.984 . S
H735 N728 0.984 . S
H736 N724 0.978 1_554 S
H737 N724 0.985 . S
C738 C739 1.363 . S
C738 C744 1.379 . S
C738 N746 1.356 . S
C739 C738 1.363 . S
C739 C745 1.363 . S
C740 C741 1.363 . S
C740 C745 1.379 . S
C740 N747 1.356 . S
C741 C740 1.363 . S
C741 C744 1.363 . S
N742 C744 1.356 . S
N742 H754 0.984 . S
N742 H755 0.985 1_556 S
N743 C745 1.356 . S
N743 H748 0.984 . S
N743 H749 0.985 . S
C744 C738 1.379 . S
C744 C741 1.363 . S
C744 N742 1.356 . S
C745 C739 1.363 . S
C745 C740 1.379 . S
C745 N743 1.356 . S
N746 C738 1.356 . S
N746 H752 0.984 . S
N746 H753 0.984 . S
N747 C740 1.356 . S
N747 H750 0.984 1_556 S
N747 H751 0.985 . S
H748 N743 0.984 . S
H749 N743 0.985 . S
H750 N747 0.984 1_554 S
H751 N747 0.985 . S
H752 N746 0.984 . S
H753 N746 0.984 . S
H754 N742 0.984 . S
H755 N742 0.985 1_554 S
C756 C757 1.363 . S
C756 C762 1.379 . S
C756 N764 1.356 . S
C757 C756 1.363 . S
C757 C763 1.363 . S
C758 C759 1.363 . S
C758 C763 1.379 . S
C758 N765 1.356 1_556 S
C759 C758 1.363 . S
C759 C762 1.363 . S
N760 C762 1.356 . S
N760 H772 0.984 . S
N760 H773 0.985 . S
N761 C763 1.356 . S
N761 H766 0.984 . S
N761 H767 0.985 . S
C762 C756 1.379 . S
C762 C759 1.363 . S
C762 N760 1.356 . S
C763 C757 1.363 . S
C763 C758 1.379 . S
C763 N761 1.356 . S
N764 C756 1.356 . S
N764 H770 0.984 . S
N764 H771 0.984 . S
N765 C758 1.356 1_554 S
N765 H768 0.984 . S
N765 H769 0.985 . S
H766 N761 0.984 . S
H767 N761 0.985 . S
H768 N765 0.984 . S
H769 N765 0.985 . S
H770 N764 0.984 . S
H771 N764 0.984 . S
H772 N760 0.984 . S
H773 N760 0.985 . S
C774 C775 1.363 . S
C774 C780 1.379 . S
C774 N782 1.356 . S
C775 C774 1.363 . S
C775 C781 1.363 . S
C776 C777 1.363 . S
C776 C781 1.379 . S
C776 N783 1.356 . S
C777 C776 1.363 . S
C777 C780 1.363 . S
N778 C780 1.356 . S
N778 H790 0.984 . S
N778 H791 0.985 . S
N779 C781 1.356 . S
N779 H784 0.984 . S
N779 H785 0.985 . S
C780 C774 1.379 . S
C780 C777 1.363 . S
C780 N778 1.356 . S
C781 C775 1.363 . S
C781 C776 1.379 . S
C781 N779 1.356 . S
N782 C774 1.356 . S
N782 H788 0.984 . S
N782 H789 0.984 . S
N783 C776 1.356 . S
N783 H786 0.984 . S
N783 H787 0.985 . S
H784 N779 0.984 . S
H785 N779 0.985 . S
H786 N783 0.984 . S
H787 N783 0.985 . S
H788 N782 0.984 . S
H789 N782 0.984 . S
H790 N778 0.984 . S
H791 N778 0.985 . S
C792 C793 1.363 . S
C792 C798 1.379 . S
C792 N800 1.356 . S
C793 C792 1.363 . S
C793 C799 1.363 . S
C794 C795 1.363 . S
C794 C799 1.379 . S
C794 N801 1.356 . S
C795 C794 1.363 . S
C795 C798 1.363 . S
N796 C798 1.356 . S
N796 H808 0.984 . S
N796 H809 0.985 . S
N797 C799 1.356 . S
N797 H802 0.984 . S
N797 H803 0.985 . S
C798 C792 1.379 . S
C798 C795 1.363 . S
C798 N796 1.356 . S
C799 C793 1.363 . S
C799 C794 1.379 . S
C799 N797 1.356 . S
N800 C792 1.356 . S
N800 H806 0.984 . S
N800 H807 0.984 . S
N801 C794 1.356 . S
N801 H804 0.984 . S
N801 H805 0.985 . S
H802 N797 0.984 . S
H803 N797 0.985 . S
H804 N801 0.984 . S
H805 N801 0.985 . S
H806 N800 0.984 . S
H807 N800 0.984 . S
H808 N796 0.984 . S
H809 N796 0.985 . S
C810 C811 1.363 . S
C810 C816 1.379 . S
C810 N818 1.356 . S
C811 C810 1.363 . S
C811 C817 1.363 . S
C812 C813 1.363 . S
C812 C817 1.379 . S
C812 N819 1.356 . S
C813 C812 1.363 . S
C813 C816 1.363 . S
N814 C816 1.356 . S
N814 H826 0.984 . S
N814 H827 0.985 . S
N815 C817 1.356 . S
N815 H820 0.984 . S
N815 H821 0.985 . S
C816 C810 1.379 . S
C816 C813 1.363 . S
C816 N814 1.356 . S
C817 C811 1.363 . S
C817 C812 1.379 . S
C817 N815 1.356 . S
N818 C810 1.356 . S
N818 H824 0.984 . S
N818 H825 0.984 . S
N819 C812 1.356 . S
N819 H822 0.984 . S
N819 H823 0.985 . S
H820 N815 0.984 . S
H821 N815 0.985 . S
H822 N819 0.984 . S
H823 N819 0.985 . S
H824 N818 0.984 . S
H825 N818 0.984 . S
H826 N814 0.984 . S
H827 N814 0.985 . S
C828 C829 1.363 . S
C828 C834 1.379 . S
C828 N836 1.356 . S
C829 C828 1.363 . S
C829 C835 1.363 . S
C830 C831 1.363 . S
C830 C835 1.379 . S
C830 N837 1.356 . S
C831 C830 1.363 . S
C831 C834 1.363 . S
N832 C834 1.356 . S
N832 H844 0.984 . S
N832 H845 0.985 . S
N833 C835 1.356 . S
N833 H838 0.984 . S
N833 H839 0.985 . S
C834 C828 1.379 . S
C834 C831 1.363 . S
C834 N832 1.356 . S
C835 C829 1.363 . S
C835 C830 1.379 . S
C835 N833 1.356 . S
N836 C828 1.356 . S
N836 H842 0.984 . S
N836 H843 0.984 . S
N837 C830 1.356 . S
N837 H840 0.984 . S
N837 H841 0.985 . S
H838 N833 0.984 . S
H839 N833 0.985 . S
H840 N837 0.984 . S
H841 N837 0.985 . S
H842 N836 0.984 . S
H843 N836 0.984 . S
H844 N832 0.984 . S
H845 N832 0.985 . S
C846 C847 1.363 . S
C846 C852 1.379 . S
C846 N854 1.356 . S
C847 C846 1.363 . S
C847 C853 1.363 . S
C848 C849 1.363 . S
C848 C853 1.379 . S
C848 N855 1.356 . S
C849 C848 1.363 . S
C849 C852 1.363 . S
N850 C852 1.356 . S
N850 H862 0.984 . S
N850 H863 0.985 . S
N851 C853 1.356 . S
N851 H856 0.984 . S
N851 H857 0.985 . S
C852 C846 1.379 . S
C852 C849 1.363 . S
C852 N850 1.356 . S
C853 C847 1.363 . S
C853 C848 1.379 . S
C853 N851 1.356 . S
N854 C846 1.356 . S
N854 H860 0.984 . S
N854 H861 0.984 . S
N855 C848 1.356 . S
N855 H858 0.984 . S
N855 H859 0.985 . S
H856 N851 0.984 . S
H857 N851 0.985 . S
H858 N855 0.984 . S
H859 N855 0.985 . S
H860 N854 0.984 . S
H861 N854 0.984 . S
H862 N850 0.984 . S
H863 N850 0.985 . S
C864 C865 1.363 . S
C864 C870 1.379 . S
C864 N872 1.356 . S
C865 C864 1.363 . S
C865 C871 1.363 . S
C866 C867 1.363 . S
C866 C871 1.379 . S
C866 N873 1.356 . S
C867 C866 1.363 . S
C867 C870 1.363 . S
N868 C870 1.356 . S
N868 H880 0.984 . S
N868 H881 0.985 . S
N869 C871 1.356 . S
N869 H874 0.984 . S
N869 H875 0.985 . S
C870 C864 1.379 . S
C870 C867 1.363 . S
C870 N868 1.356 . S
C871 C865 1.363 . S
C871 C866 1.379 . S
C871 N869 1.356 . S
N872 C864 1.356 . S
N872 H878 0.984 . S
N872 H879 0.984 . S
N873 C866 1.356 . S
N873 H876 0.984 . S
N873 H877 0.985 . S
H874 N869 0.984 . S
H875 N869 0.985 . S
H876 N873 0.984 . S
H877 N873 0.985 . S
H878 N872 0.984 . S
H879 N872 0.984 . S
H880 N868 0.984 . S
H881 N868 0.985 . S
C235 C43 1.420 . S
C237 C10 1.420 . S
C253 C62 1.420 . S
C255 C23 1.420 . S
C271 C36 1.420 . S
C273 C75 1.420 . S
C289 C30 1.420 . S
C291 C69 1.420 . S
C307 C4 1.420 . S
C309 C49 1.420 . S
C325 C56 1.420 . S
C327 C17 1.420 . S
C343 C121 1.420 . S
C345 C82 1.420 . S
C361 C101 1.420 . S
C363 C140 1.420 . S
C379 C114 1.420 . S
C381 C147 1.420 . S
C397 C153 1.420 . S
C399 C108 1.420 . S
C415 C127 1.420 . S
C417 C88 1.420 . S
C433 C134 1.420 . S
C435 C95 1.420 . S
C451 C160 1.420 . S
C453 C205 1.420 . S
C469 C173 1.420 . S
C471 C218 1.420 . S
C487 C186 1.420 . S
C489 C225 1.420 . S
C505 C231 1.420 . S
C507 C192 1.420 . S
C523 C199 1.420 . S
C525 C166 1.420 . S
C541 C212 1.420 . S
C543 C179 1.420 . S
C559 C3 1.395 . S
C561 C96 1.395 . S
C577 C16 1.394 . S
C579 C109 1.394 . S
C595 C81 1.394 . S
C597 C29 1.394 . S
C613 C31 1.395 . S
C615 C174 1.395 1_554 S
C631 C187 1.394 1_554 S
C633 C5 1.394 . S
C649 C161 1.394 1_554 S
C651 C18 1.394 . S
C667 C213 1.394 . S
C669 C44 1.394 . S
C685 C55 1.394 . S
C687 C224 1.394 . S
C703 C200 1.394 . S
C705 C68 1.394 . S
C721 C133 1.394 1_556 S
C723 C70 1.394 . S
C739 C42 1.394 . S
C741 C148 1.394 1_556 S
C757 C57 1.394 . S
C759 C122 1.394 1_556 S
C775 C83 1.394 . S
C777 C172 1.394 . S
C793 C94 1.394 . S
C795 C185 1.394 . S
C811 C107 1.394 . S
C813 C159 1.394 . S
C829 C211 1.394 . S
C831 C146 1.394 . S
C847 C226 1.394 . S
C849 C120 1.394 . S
C865 C135 1.394 . S
C867 C198 1.394 . S
