# Generated by pormake.
# Topology fnt, (5)-cn, num edge types: 1
# Building blocks:
#     Node 0, Type 0, BuildingBlock: XOMCOT_clean_sbu_0, # of connection points: 5
#     Node 1, Type 0, BuildingBlock: XOMCOT_clean_sbu_0, # of connection points: 5
#     Node 2, Type 0, BuildingBlock: XOMCOT_clean_sbu_0, # of connection points: 5
#     Node 3, Type 0, BuildingBlock: XOMCOT_clean_sbu_0, # of connection points: 5
#     Node 4, Type 0, BuildingBlock: XOMCOT_clean_sbu_0, # of connection points: 5
#     Node 5, Type 0, BuildingBlock: XOMCOT_clean_sbu_0, # of connection points: 5
#     Edge 6, Type (0, 0), BuildingBlock: EZIPEK_clean_linker_0, # of connection points: 2
#     Edge 7, Type (0, 0), BuildingBlock: EZIPEK_clean_linker_0, # of connection points: 2
#     Edge 8, Type (0, 0), BuildingBlock: EZIPEK_clean_linker_0, # of connection points: 2
#     Edge 9, Type (0, 0), BuildingBlock: EZIPEK_clean_linker_0, # of connection points: 2
#     Edge 10, Type (0, 0), BuildingBlock: EZIPEK_clean_linker_0, # of connection points: 2
#     Edge 11, Type (0, 0), BuildingBlock: EZIPEK_clean_linker_0, # of connection points: 2
#     Edge 12, Type (0, 0), BuildingBlock: EZIPEK_clean_linker_0, # of connection points: 2
#     Edge 13, Type (0, 0), BuildingBlock: EZIPEK_clean_linker_0, # of connection points: 2
#     Edge 14, Type (0, 0), BuildingBlock: EZIPEK_clean_linker_0, # of connection points: 2
#     Edge 15, Type (0, 0), BuildingBlock: EZIPEK_clean_linker_0, # of connection points: 2
#     Edge 16, Type (0, 0), BuildingBlock: EZIPEK_clean_linker_0, # of connection points: 2
#     Edge 17, Type (0, 0), BuildingBlock: EZIPEK_clean_linker_0, # of connection points: 2
#     Edge 18, Type (0, 0), BuildingBlock: EZIPEK_clean_linker_0, # of connection points: 2
#     Edge 19, Type (0, 0), BuildingBlock: EZIPEK_clean_linker_0, # of connection points: 2
#     Edge 20, Type (0, 0), BuildingBlock: EZIPEK_clean_linker_0, # of connection points: 2
# Relax obj value: 0.141
# Max RMSD: 0.161
# Mean RMSD: 0.161
data_MOF--net-fnt--node1-XOMCOT_clean_sbu_0--edge1-EZIPEK_clean_linker_0
_symmetry_space_group_name_H-M    P1
_symmetry_Int_Tables_number       1
_symmetry_cell_setting            triclinic
loop_
_symmetry_equiv_pos_as_xyz
'x, y, z'
_cell_length_a     20.756054
_cell_length_b     20.912901
_cell_length_c     37.621769
_cell_angle_alpha  90.357615
_cell_angle_beta   90.532353
_cell_angle_gamma 120.34309
loop_
_atom_site_label
_atom_site_type_symbol
_atom_site_fract_x
_atom_site_fract_y
_atom_site_fract_z
_atom_type_partial_charge
Co0 Co 0.1868 0.28211 0.03846 0.0
C1 C 0.13397 0.30048 0.10861 0.0
C2 C 0.23259 0.29182 0.11282 0.0
C3 C 0.20615 0.28979 0.14644 0.0
N4 N 0.18689 0.29763 0.08914 0.0
N5 N 0.14382 0.29452 0.14378 0.0
H6 H 0.08661 0.30184 0.0972 0.0
H7 H 0.27906 0.28466 0.10594 0.0
C8 C 0.33887 0.41435 1.02176 0.0
O9 O 0.308 0.43544 0.99737 0.0
N10 N 0.18645 0.26403 0.98727 0.0
C11 C 0.12501 0.22396 0.96649 0.0
C12 C 0.14537 0.21003 0.93428 0.0
C13 C 0.24373 0.27226 0.96692 0.0
N14 N 0.2198 0.23989 0.93444 0.0
C15 C 0.09255 0.33369 1.01371 0.0
C16 C 0.16361 0.4711 0.04642 0.0
C17 C 0.09395 0.44498 1.02977 0.0
C18 C 0.05954 0.3767 1.01253 0.0
C19 C 0.19546 0.42579 0.04668 0.0
N20 N 0.1598 0.35761 1.03034 0.0
H21 H 0.05932 0.27823 1.00409 0.0
H22 H 0.24584 0.44355 0.06191 0.0
H23 H 0.06785 0.19774 0.97489 0.0
H24 H 0.30064 0.29629 0.97637 0.0
O25 O 0.08665 0.19983 0.04157 0.0
O26 O 0.18813 0.19069 0.04716 0.0
O27 O 0.29877 0.35487 0.03906 0.0
C28 C 0.11543 0.15834 0.04679 0.0
H29 H 0.22875 0.28166 0.17093 0.0
H30 H 0.10778 0.17604 0.91304 0.0
H31 H 0.19056 0.52351 0.06076 0.0
H32 H 0.00463 0.35434 1.00037 0.0
Co33 Co 0.89115 0.17668 0.3711 0.0
C34 C 0.81821 0.12274 0.4415 0.0
C35 C 0.91044 0.2343 0.44355 0.0
C36 C 0.88786 0.21198 0.47769 0.0
N37 N 0.86659 0.17888 0.4207 0.0
N38 N 0.83048 0.14175 0.47646 0.0
H39 H 0.77901 0.06764 0.43162 0.0
H40 H 0.9597 0.28539 0.4362 0.0
C41 C 0.90885 0.32724 0.35345 0.0
O42 O 0.85325 0.29493 0.33044 0.0
N43 N 0.92179 0.17534 0.32169 0.0
C44 C 0.9213 0.11672 0.30569 0.0
C45 C 0.95445 0.13683 0.27335 0.0
C46 C 0.95726 0.23119 0.29817 0.0
N47 N 0.97711 0.20858 0.26849 0.0
C48 C 0.75698 0.09676 0.33053 0.0
C49 C 0.67112 0.13368 0.37176 0.0
C50 C 0.63642 0.07339 0.34804 0.0
C51 C 0.68005 0.05744 0.3261 0.0
C52 C 0.74912 0.1726 0.37511 0.0
N53 N 0.79108 0.1518 0.35567 0.0
H54 H 0.7873 0.0766 0.31601 0.0
H55 H 0.77494 0.21529 0.39529 0.0
H56 H 0.89806 0.06173 0.31634 0.0
H57 H 0.97099 0.28746 0.30285 0.0
O58 O 0.86762 0.0759 0.37615 0.0
O59 O 0.97867 0.17316 0.38756 0.0
O60 O 0.93235 0.28896 0.36986 0.0
C61 C 0.93638 0.10094 0.38574 0.0
H62 H 0.91583 0.2424 0.50178 0.0
H63 H 0.96159 0.1014 0.25463 0.0
H64 H 0.63821 0.14691 0.38925 0.0
H65 H 0.65452 0.01062 0.30778 0.0
Co66 Co 0.75361 0.9217 0.71034 0.0
C67 C 0.7315 0.84472 0.77946 0.0
C68 C 0.72294 0.94227 0.78352 0.0
C69 C 0.72375 0.9182 0.81725 0.0
N70 N 0.72526 0.89521 0.75958 0.0
N71 N 0.73073 0.85782 0.81474 0.0
H72 H 0.74422 0.8044 0.76855 0.0
H73 H 0.72852 0.99494 0.77698 0.0
C74 C 0.61541 0.93997 0.71901 0.0
O75 O 0.59153 0.89577 0.74632 0.0
N76 N 0.78636 0.95361 0.66153 0.0
C77 C 0.85494 0.9753 0.64864 0.0
C78 C 0.86043 0.00228 0.61522 0.0
C79 C 0.7501 0.96569 0.63451 0.0
N80 N 0.79482 0.99636 0.60609 0.0
C81 C 0.71666 0.79376 0.66982 0.0
C82 C 0.58553 0.69683 0.70299 0.0
C83 C 0.61956 0.66909 0.68067 0.0
C84 C 0.68428 0.71833 0.66306 0.0
C85 C 0.62014 0.77331 0.70917 0.0
N86 N 0.68604 0.82098 0.69326 0.0
H87 H 0.77067 0.82923 0.6586 0.0
H88 H 0.59717 0.79222 0.72917 0.0
H89 H 0.8987 0.97086 0.66184 0.0
H90 H 0.69277 0.95296 0.63557 0.0
O91 O 0.8364 0.9066 0.71858 0.0
O92 O 0.84076 0.01292 0.7279 0.0
O93 O 0.67634 0.9551 0.70332 0.0
C94 C 0.87546 0.97523 0.72866 0.0
H95 H 0.72817 0.94774 0.84174 0.0
H96 H 0.90898 0.02375 0.59844 0.0
H97 H 0.53592 0.65945 0.71754 0.0
H98 H 0.7125 0.69831 0.64615 0.0
Co99 Co 0.81179 0.73254 0.04671 0.0
C100 C 0.84939 0.74182 0.12431 0.0
C101 C 0.73669 0.71568 0.11566 0.0
C102 C 0.7501 0.71917 0.15189 0.0
N103 N 0.79831 0.72742 0.09822 0.0
N104 N 0.82115 0.73579 0.15693 0.0
H105 H 0.90753 0.76114 0.12039 0.0
H106 H 0.68583 0.70685 0.10301 0.0
C107 C 0.65979 0.5956 0.05289 0.0
O108 O 0.68974 0.56907 0.07493 0.0
N109 N 0.82536 0.73892 0.99553 0.0
C110 C 0.87835 0.73331 0.97756 0.0
C111 C 0.87123 0.74329 0.94193 0.0
C112 C 0.78758 0.75378 0.97059 0.0
N113 N 0.81503 0.75728 0.9377 0.0
C114 C 0.90613 0.67542 0.06342 0.0
C115 C 0.83534 0.54757 1.02269 0.0
C116 C 0.90321 0.56771 0.03989 0.0
C117 C 0.9378 0.63138 0.06083 0.0
C118 C 0.80442 0.59328 1.02658 0.0
N119 N 0.83917 0.65596 0.04749 0.0
H120 H 0.94032 0.72873 0.07547 0.0
H121 H 0.75555 0.58083 1.01096 0.0
H122 H 0.92065 0.7244 0.98956 0.0
H123 H 0.74286 0.7644 0.97647 0.0
O124 O 0.91092 0.81567 0.05292 0.0
O125 O 0.80967 0.82491 0.04681 0.0
O126 O 0.70075 0.65937 0.03903 0.0
C127 C 0.88192 0.85758 0.0514 0.0
H128 H 0.71158 0.71183 0.17281 0.0
H129 H 0.90696 0.74419 0.92092 0.0
H130 H 0.80869 0.49935 1.0053 0.0
H131 H 0.99187 0.64973 0.0732 0.0
Co132 Co 0.07207 0.79984 0.38083 0.0
C133 C 0.10749 0.85361 0.45624 0.0
C134 C 0.03541 0.73614 0.45361 0.0
C135 C 0.04976 0.75769 0.48896 0.0
N136 N 0.07447 0.79589 0.43287 0.0
N137 N 0.09543 0.83154 0.49023 0.0
H138 H 0.13795 0.91134 0.44904 0.0
H139 H 0.99655 0.68096 0.44402 0.0
C140 C 0.04921 0.64509 0.38659 0.0
O141 O 0.11216 0.6736 0.40485 0.0
N142 N 0.06589 0.80382 0.32955 0.0
C143 C 0.11884 0.8517 0.30737 0.0
C144 C 0.08704 0.84461 0.27417 0.0
C145 C 1.00266 0.76859 0.30965 0.0
N146 N 0.01424 0.79259 0.27585 0.0
C147 C 0.22775 0.87695 0.39549 0.0
C148 C 0.2685 0.80991 0.34413 0.0
C149 C 0.32346 0.87297 0.3623 0.0
C150 C 0.30262 0.90483 0.38893 0.0
C151 C 0.19316 0.78248 0.35216 0.0
N152 N 0.17336 0.81677 0.37737 0.0
H153 H 0.21459 0.90914 0.41279 0.0
H154 H 0.15093 0.73731 0.33631 0.0
H155 H 0.17533 0.89238 0.31528 0.0
H156 H 0.94855 0.72934 0.32013 0.0
O157 O 0.10042 0.90266 0.38371 0.0
O158 O 0.98362 0.80949 0.38402 0.0
O159 O 0.02391 0.68697 0.37647 0.0
C160 C 0.03004 0.88108 0.38465 0.0
H161 H 0.02789 0.72232 0.51186 0.0
H162 H 0.11415 0.87754 0.25106 0.0
H163 H 0.28339 0.7848 0.3229 0.0
H164 H 0.34394 0.9546 0.40285 0.0
Co165 Co 0.31009 0.10558 0.70752 0.0
C166 C 0.32887 0.16759 0.78146 0.0
C167 C 0.31047 0.05724 0.77958 0.0
C168 C 0.30384 0.07434 0.81422 0.0
N169 N 0.32445 0.115 0.75879 0.0
N170 N 0.31501 0.14362 0.81531 0.0
H171 H 0.33524 0.21983 0.77367 0.0
H172 H 0.29884 0.00368 0.76975 0.0
C173 C 0.41322 0.04828 0.68286 0.0
O174 O 0.40773 0.06376 0.64961 0.0
N175 N 0.29276 0.09258 0.65648 0.0
C176 C 0.3043 0.1447 0.63233 0.0
C177 C 0.27422 0.11031 0.60004 0.0
C178 C 0.25465 0.02717 0.63866 0.0
N179 N 0.24322 0.03673 0.60422 0.0
C180 C 0.3749 0.26176 0.70896 0.0
C181 C 0.5106 0.30244 0.67891 0.0
C182 C 0.49291 0.3568 0.68777 0.0
C183 C 0.42468 0.33584 0.70311 0.0
C184 C 0.45897 0.22786 0.68591 0.0
N185 N 0.39178 0.20787 0.70117 0.0
H186 H 0.32179 0.24894 0.71938 0.0
H187 H 0.47321 0.18755 0.67786 0.0
H188 H 0.33008 0.20338 0.63788 0.0
H189 H 0.23445 0.97365 0.65075 0.0
O190 O 0.23191 0.12877 0.71079 0.0
O191 O 0.21243 0.01548 0.71464 0.0
O192 O 0.37877 0.06177 0.70727 0.0
C193 C 0.1849 0.05955 0.71517 0.0
H194 H 0.28707 0.03702 0.83651 0.0
H195 H 0.2735 0.13693 0.57557 0.0
H196 H 0.56305 0.31738 0.66638 0.0
H197 H 0.40898 0.37665 0.70973 0.0
C198 C 0.44723 0.4842 0.06525 0.0
C199 C 0.42112 0.46078 1.02973 0.0
C200 C 0.55105 0.53254 1.00888 0.0
C201 C 0.57754 0.5511 0.04468 0.0
N202 N 0.55023 0.5382 0.10751 0.0
N203 N 0.44996 0.45229 0.96849 0.0
C204 C 0.52544 0.52464 0.07295 0.0
C205 C 0.4735 0.48271 1.00173 0.0
N206 N 0.39751 0.47173 0.09165 0.0
N207 N 0.59978 0.56179 0.98141 0.0
H208 H 0.39436 0.41532 0.96187 0.0
H209 H 0.48603 0.45809 0.94811 0.0
H210 H 0.65747 0.59224 0.98474 0.0
H211 H 0.58266 0.55952 0.9551 0.0
H212 H 0.41289 0.49642 0.11678 0.0
H213 H 0.34003 0.44157 0.08799 0.0
H214 H 0.51652 0.51027 0.12894 0.0
H215 H 0.60535 0.57459 0.11508 0.0
C216 C 0.94447 0.4334 0.39699 0.0
C217 C 0.94239 0.40874 0.3615 0.0
C218 C 0.99641 0.53819 0.34174 0.0
C219 C 0.00831 0.5635 0.37778 0.0
N220 N 1.00125 0.53339 0.4402 0.0
N221 N 0.97447 0.44003 0.30003 0.0
C222 C 0.98513 0.51059 0.40549 0.0
C223 C 0.97006 0.46177 0.33382 0.0
N224 N 0.90282 0.38343 0.42233 0.0
N225 N 0.01021 0.58679 0.31479 0.0
H226 H 0.95489 0.38513 0.29273 0.0
H227 H 1.00305 0.477 0.27975 0.0
H228 H 0.03273 0.6434 0.31878 0.0
H229 H 0.9937 0.57008 0.28853 0.0
H230 H 0.89591 0.39852 0.44784 0.0
H231 H 0.86763 0.32748 0.41654 0.0
H232 H 0.99425 0.49752 0.46084 0.0
H233 H 0.02631 0.58855 0.44834 0.0
C234 C 0.46318 0.96146 0.67267 0.0
C235 C 0.46612 0.02149 0.69224 0.0
C236 C 0.5694 0.02955 0.72872 0.0
C237 C 0.57016 0.97369 0.70737 0.0
N238 N 0.52497 0.89348 0.65582 0.0
N239 N 0.53282 0.12192 0.73482 0.0
C240 C 0.51961 0.94232 0.67816 0.0
C241 C 0.522 0.05792 0.71923 0.0
N242 N 0.40373 0.91952 0.65042 0.0
N243 N 0.61328 0.05499 0.75868 0.0
H244 H 0.49999 0.14525 0.72947 0.0
H245 H 0.57875 0.15586 0.75103 0.0
H246 H 0.65269 0.04009 0.76522 0.0
H247 H 0.60743 0.08727 0.77815 0.0
H248 H 0.39422 0.87068 0.63815 0.0
H249 H 0.35938 0.92905 0.64694 0.0
H250 H 0.49562 0.87496 0.63181 0.0
H251 H 0.56337 0.8759 0.65989 0.0
C252 C 0.6172 0.55896 0.70768 0.0
C253 C 0.59473 0.58917 0.67968 0.0
C254 C 0.52308 0.46694 0.65118 0.0
C255 C 0.54205 0.43629 0.68019 0.0
N256 N 0.61833 0.45168 0.73155 0.0
N257 N 0.5392 0.57699 0.62165 0.0
C258 C 0.59328 0.48219 0.70692 0.0
C259 C 0.55205 0.54469 0.65026 0.0
N260 N 0.65974 0.60353 0.7354 0.0
N261 N 0.47435 0.42068 0.62554 0.0
H262 H 0.5567 0.6333 0.62088 0.0
H263 H 0.51491 0.54935 0.59784 0.0
H264 H 0.45588 0.36409 0.62456 0.0
H265 H 0.45042 0.43724 0.60591 0.0
H266 H 0.67117 0.58412 0.75861 0.0
H267 H 0.68167 0.66071 0.73607 0.0
H268 H 0.66011 0.48208 0.75033 0.0
H269 H 0.60115 0.39541 0.73146 0.0
C270 C 0.94305 0.48083 0.06097 0.0
C271 C 0.9445 0.52845 0.03405 0.0
C272 C 0.04779 0.52505 1.00496 0.0
C273 C 0.05024 0.48235 0.03348 0.0
N274 N 0.00683 0.42532 0.09054 0.0
N275 N 1.00108 0.60239 0.9822 0.0
C276 C 0.99979 0.462 0.06213 0.0
C277 C 0.99739 0.55203 1.00635 0.0
N278 N 0.88651 0.45297 0.08502 0.0
N279 N 0.09261 0.53828 0.97625 0.0
H280 H 0.96278 0.62074 0.98135 0.0
H281 H 0.04411 0.62894 0.96413 0.0
H282 H 0.13324 0.52295 0.97532 0.0
H283 H 0.08716 0.56096 0.95265 0.0
H284 H 0.8778 0.41261 0.10347 0.0
H285 H 0.84399 0.46578 0.08454 0.0
H286 H 0.97682 0.41527 0.11386 0.0
H287 H 0.04704 0.4095 0.09205 0.0
C288 C 0.45392 0.90268 0.37279 0.0
C289 C 0.40274 0.91277 0.35202 0.0
C290 C 0.50556 0.02384 0.32539 0.0
C291 C 0.5556 0.01914 0.34964 0.0
N292 N 0.57937 0.95651 0.3973 0.0
N293 N 0.37686 0.98216 0.30905 0.0
C294 C 0.53041 0.95886 0.37346 0.0
C295 C 0.42783 0.9726 0.32802 0.0
N296 N 0.42879 0.83902 0.39173 0.0
N297 N 0.53258 0.07689 0.29976 0.0
H298 H 0.31979 0.94362 0.30898 0.0
H299 H 0.39034 0.0295 0.29461 0.0
H300 H 0.58894 0.11719 0.29807 0.0
H301 H 0.50026 0.07841 0.27883 0.0
H302 H 0.46355 0.82453 0.40513 0.0
H303 H 0.37278 0.79713 0.39142 0.0
H304 H 0.56328 0.91879 0.41793 0.0
H305 H 0.63632 0.99542 0.39802 0.0
C306 C 0.03635 0.04588 0.08325 0.0
C307 C 0.0649 0.07759 0.04974 0.0
C308 C 0.95734 0.97502 1.0199 0.0
C309 C 0.93234 0.9387 0.05258 0.0
N310 N 0.94775 0.93726 0.11594 0.0
N311 N 0.06594 0.05929 0.98682 0.0
C312 C 0.97201 0.97354 0.08454 0.0
C313 C 0.02916 0.03838 1.01822 0.0
N314 N 0.07029 0.08529 0.11357 0.0
N315 N 0.91214 0.94989 0.99052 0.0
H316 H 0.12228 0.10003 0.98605 0.0
H317 H 0.04395 0.0297 0.9631 0.0
H318 H 0.85827 0.90412 0.99114 0.0
H319 H 0.92509 0.98055 0.96726 0.0
H320 H 0.04823 0.06917 0.13884 0.0
H321 H 0.12001 0.1361 0.11307 0.0
H322 H 0.97818 0.9549 0.13969 0.0
H323 H 0.89667 0.88816 0.11776 0.0
C324 C 0.95126 0.9306 0.40969 0.0
C325 C 0.00582 0.93705 0.3855 0.0
C326 C 0.02665 0.05912 0.36766 0.0
C327 C 0.96495 0.04818 0.38849 0.0
N328 N 0.85682 0.96113 0.42245 0.0
N329 N 0.08236 1.0001 0.33502 0.0
C330 C 0.92365 0.98028 0.40737 0.0
C331 C 0.04041 0.99957 0.36292 0.0
N332 N 0.92789 0.87943 0.43615 0.0
N333 N 0.07115 0.12483 0.35106 0.0
H334 H 0.09052 0.9562 0.32906 0.0
H335 H 0.10132 0.03977 0.31514 0.0
H336 H 0.06065 0.16828 0.34967 0.0
H337 H 0.12236 0.13815 0.34014 0.0
H338 H 0.89414 0.87821 0.4568 0.0
H339 H 0.94864 0.84374 0.43981 0.0
H340 H 0.82114 0.90832 0.43224 0.0
H341 H 0.83441 0.99557 0.42358 0.0
C342 C 0.06231 0.98756 0.74785 0.0
C343 C 0.10472 0.03579 0.72016 0.0
C344 C 0.00653 0.06702 0.711 0.0
C345 C 0.95794 0.0081 0.73325 0.0
N346 N 0.93933 0.90687 0.77099 0.0
N347 N 0.10694 0.10732 0.66938 0.0
C348 C 0.9859 0.96692 0.75122 0.0
C349 C 0.07396 0.07168 0.70009 0.0
N350 N 0.09501 0.96371 0.77191 0.0
N351 N 0.98869 0.11811 0.69963 0.0
H352 H 0.15367 0.10812 0.65895 0.0
H353 H 0.08242 0.1279 0.65207 0.0
H354 H 0.94224 0.11988 0.70833 0.0
H355 H 0.02551 0.16472 0.68529 0.0
H356 H 0.06838 0.93516 0.79481 0.0
H357 H 0.15091 0.97844 0.77097 0.0
H358 H 0.95439 0.86973 0.78087 0.0
H359 H 0.88423 0.89179 0.77584 0.0
C360 C 0.24466 0.24607 0.87074 0.0
C361 C 0.26009 0.23134 0.90545 0.0
C362 C 0.33102 0.17872 0.8793 0.0
C363 C 0.30073 0.17826 0.84526 0.0
N364 N 0.21026 0.19497 0.81157 0.0
N365 N 0.30893 0.17087 0.94248 0.0
C366 C 0.25319 0.20836 0.84149 0.0
C367 C 0.30176 0.19499 0.90988 0.0
N368 N 0.21916 0.29411 0.86601 0.0
N369 N 0.38782 0.16409 0.8824 0.0
H370 H 0.28459 0.17719 0.96527 0.0
H371 H 0.33285 0.13789 0.94609 0.0
H372 H 0.41237 0.15517 0.86029 0.0
H373 H 0.41555 0.16916 0.90643 0.0
H374 H 0.21153 0.31035 0.84091 0.0
H375 H 0.2138 0.32338 0.88727 0.0
H376 H 0.17093 0.21179 0.80917 0.0
H377 H 0.20593 0.15853 0.79146 0.0
C378 C 0.12677 0.32962 0.20423 0.0
C379 C 0.09522 0.2859 0.17299 0.0
C380 C 0.97618 0.217 0.2037 0.0
C381 C 0.01275 0.24799 0.23653 0.0
N382 N 0.12558 0.33268 0.26858 0.0
N383 N 0.98927 0.17998 0.14468 0.0
C384 C 0.08856 0.30526 0.237 0.0
C385 C 0.01912 0.22832 0.17277 0.0
N386 N 0.19355 0.39417 0.20239 0.0
N387 N 0.90022 0.17439 0.20265 0.0
H388 H 0.01913 0.18232 0.12226 0.0
H389 H 0.93653 0.13258 0.1452 0.0
H390 H 0.86822 0.1659 0.2253 0.0
H391 H 0.86943 0.15462 0.17904 0.0
H392 H 0.21689 0.43146 0.22364 0.0
H393 H 0.2213 0.4137 0.17839 0.0
H394 H 0.18307 0.36862 0.27046 0.0
H395 H 0.09973 0.31553 0.29307 0.0
C396 C 0.82851 0.04119 0.5115 0.0
C397 C 0.8052 0.09344 0.50672 0.0
C398 C 0.76121 0.07369 0.56824 0.0
C399 C 0.78018 0.01742 0.5717 0.0
N400 N 0.80633 0.931 0.54212 0.0
N401 N 0.73602 0.14919 0.5278 0.0
C402 C 0.80382 0.99487 0.54142 0.0
C403 C 0.76622 0.10559 0.53418 0.0
N404 N 0.88112 0.0415 0.49001 0.0
N405 N 0.74434 0.10086 0.59754 0.0
H406 H 0.74025 0.17344 0.5031 0.0
H407 H 0.7017 0.15562 0.54573 0.0
H408 H 0.74204 0.08073 0.62298 0.0
H409 H 0.73799 0.14717 0.59695 0.0
H410 H 0.90507 0.00886 0.49483 0.0
H411 H 0.9068 0.08026 0.47 0.0
H412 H 0.81975 0.91027 0.51985 0.0
H413 H 0.7873 0.89565 0.56388 0.0
C414 C 0.70401 0.75907 0.85798 0.0
C415 C 0.75454 0.82902 0.84358 0.0
C416 C 0.84569 0.8512 0.89114 0.0
C417 C 0.79542 0.78074 0.90536 0.0
N418 N 0.68387 0.66205 0.89946 0.0
N419 N 0.87687 0.93788 0.84278 0.0
C420 C 0.72643 0.73303 0.88791 0.0
C421 C 0.82656 0.87387 0.8591 0.0
N422 N 0.63378 0.71904 0.84363 0.0
N423 N 0.91066 0.89742 0.90908 0.0
H424 H 0.86413 0.95705 0.8198 0.0
H425 H 0.93292 0.96947 0.85013 0.0
H426 H 0.92696 0.8823 0.9323 0.0
H427 H 0.94654 0.95248 0.90257 0.0
H428 H 0.59119 0.67089 0.85473 0.0
H429 H 0.61687 0.73672 0.82139 0.0
H430 H 0.63575 0.62179 0.88645 0.0
H431 H 0.70036 0.64183 0.92085 0.0
C432 C 0.88604 0.81078 0.21066 0.0
C433 C 0.86117 0.74549 0.18991 0.0
C434 C 0.93545 0.70981 0.22705 0.0
C435 C 0.95878 0.77405 0.24827 0.0
N436 N 0.94672 0.87834 0.26517 0.0
N437 N 0.8502 0.62654 0.18137 0.0
C438 C 0.93087 0.82226 0.24157 0.0
C439 C 0.88221 0.69291 0.19917 0.0
N440 N 0.86974 0.86324 0.19978 0.0
N441 N 0.96661 0.66678 0.23289 0.0
H442 H 0.81046 0.61297 0.16112 0.0
H443 H 0.8581 0.58292 0.18839 0.0
H444 H 0.00556 0.67836 0.25328 0.0
H445 H 0.95786 0.62289 0.21641 0.0
H446 H 0.89292 0.91573 0.21137 0.0
H447 H 0.83646 0.85593 0.17745 0.0
H448 H 0.92307 0.91187 0.26378 0.0
H449 H 0.97918 0.88727 0.28802 0.0
C450 C 0.24242 0.95212 0.55792 0.0
C451 C 0.2038 0.9802 0.57738 0.0
C452 C 0.09201 0.90769 0.53988 0.0
C453 C 0.12998 0.87804 0.52112 0.0
N454 N 0.2364 0.863 0.51418 0.0
N455 N 0.09028 0.97855 0.59102 0.0
C456 C 0.20384 0.89753 0.53085 0.0
C457 C 0.12788 0.95594 0.56957 0.0
N458 N 0.31671 0.97993 0.56468 0.0
N459 N 0.02267 0.89135 0.52838 0.0
H460 H 0.11591 0.01407 0.61275 0.0
H461 H 0.0332 0.95859 0.58897 0.0
H462 H 0.99515 0.85505 0.50709 0.0
H463 H 0.99417 0.91643 0.53839 0.0
H464 H 0.35069 0.96748 0.54954 0.0
H465 H 0.34571 0.01956 0.58456 0.0
H466 H 0.28765 0.86934 0.52172 0.0
H467 H 0.20936 0.82361 0.49395 0.0
loop_
_geom_bond_atom_site_label_1
_geom_bond_atom_site_label_2
_geom_bond_distance
_geom_bond_site_symmetry_2
_ccdc_geom_bond_type
Co0 N4 2.148 . S
Co0 N10 2.128 1_554 S
Co0 N20 2.194 . S
Co0 O25 2.351 . S
Co0 O26 2.155 . S
Co0 O27 2.096 . S
C1 N4 1.301 . S
C1 N5 1.328 . S
C1 H6 0.930 . S
C2 C3 1.333 . S
C2 N4 1.317 . S
C2 H7 0.930 . S
C3 C2 1.333 . S
C3 N5 1.350 . S
C3 H29 0.931 . S
N4 Co0 2.148 . S
N4 C1 1.301 . S
N4 C2 1.317 . S
N5 C1 1.328 . S
N5 C3 1.350 . S
H6 C1 0.930 . S
H7 C2 0.930 . S
C8 O9 1.224 . S
C8 O27 1.247 . S
O9 C8 1.224 . S
N10 Co0 2.128 1_556 S
N10 C11 1.355 . S
N10 C13 1.311 . S
C11 N10 1.355 . S
C11 C12 1.363 . S
C11 H23 0.929 . S
C12 C11 1.363 . S
C12 N14 1.375 . S
C12 H30 0.931 . S
C13 N10 1.311 . S
C13 N14 1.347 . S
C13 H24 0.929 . S
N14 C12 1.375 . S
N14 C13 1.347 . S
C15 C18 1.361 1_554 S
C15 N20 1.328 . S
C15 H21 0.929 . S
C16 C17 1.362 . S
C16 C19 1.376 1_556 S
C16 H31 0.929 . S
C17 C16 1.362 . S
C17 C18 1.370 . S
C18 C15 1.361 1_556 S
C18 C17 1.370 . S
C18 H32 0.930 1_455 S
C19 C16 1.376 1_554 S
C19 N20 1.316 . S
C19 H22 0.930 . S
N20 Co0 2.194 . S
N20 C15 1.328 . S
N20 C19 1.316 . S
H21 C15 0.929 . S
H22 C19 0.930 . S
H23 C11 0.929 . S
H24 C13 0.929 . S
O25 Co0 2.351 . S
O25 C28 1.244 . S
O26 Co0 2.155 . S
O26 C28 1.240 . S
O27 Co0 2.096 . S
O27 C8 1.247 . S
C28 O25 1.244 . S
C28 O26 1.240 . S
H29 C3 0.931 . S
H30 C12 0.931 . S
H31 C16 0.929 . S
H32 C18 0.930 1_655 S
Co33 N37 2.148 . S
Co33 N43 2.128 . S
Co33 N53 2.194 . S
Co33 O58 2.351 . S
Co33 O59 2.155 . S
Co33 O60 2.096 . S
C34 N37 1.301 . S
C34 N38 1.328 . S
C34 H39 0.930 . S
C35 C36 1.333 . S
C35 N37 1.317 . S
C35 H40 0.930 . S
C36 C35 1.333 . S
C36 N38 1.350 . S
C36 H62 0.931 . S
N37 Co33 2.148 . S
N37 C34 1.301 . S
N37 C35 1.317 . S
N38 C34 1.328 . S
N38 C36 1.350 . S
H39 C34 0.930 . S
H40 C35 0.930 . S
C41 O42 1.224 . S
C41 O60 1.247 . S
O42 C41 1.224 . S
N43 Co33 2.128 . S
N43 C44 1.355 . S
N43 C46 1.311 . S
C44 N43 1.355 . S
C44 C45 1.363 . S
C44 H56 0.929 . S
C45 C44 1.363 . S
C45 N47 1.375 . S
C45 H63 0.931 . S
C46 N43 1.311 . S
C46 N47 1.347 . S
C46 H57 0.929 . S
N47 C45 1.375 . S
N47 C46 1.347 . S
C48 C51 1.365 . S
C48 N53 1.328 . S
C48 H54 0.929 . S
C49 C50 1.362 . S
C49 C52 1.378 . S
C49 H64 0.929 . S
C50 C49 1.362 . S
C50 C51 1.366 . S
C51 C48 1.365 . S
C51 C50 1.366 . S
C51 H65 0.930 1_545 S
C52 C49 1.378 . S
C52 N53 1.315 . S
C52 H55 0.930 . S
N53 Co33 2.194 . S
N53 C48 1.328 . S
N53 C52 1.315 . S
H54 C48 0.929 . S
H55 C52 0.930 . S
H56 C44 0.929 . S
H57 C46 0.929 . S
O58 Co33 2.351 . S
O58 C61 1.244 . S
O59 Co33 2.155 . S
O59 C61 1.240 . S
O60 Co33 2.096 . S
O60 C41 1.247 . S
C61 O58 1.244 . S
C61 O59 1.240 . S
H62 C36 0.931 . S
H63 C45 0.931 . S
H64 C49 0.929 . S
H65 C51 0.930 1_565 S
Co66 N70 2.148 . S
Co66 N76 2.128 . S
Co66 N86 2.194 . S
Co66 O91 2.351 . S
Co66 O92 2.155 . S
Co66 O93 2.096 . S
C67 N70 1.301 . S
C67 N71 1.328 . S
C67 H72 0.930 . S
C68 C69 1.333 . S
C68 N70 1.317 . S
C68 H73 0.930 . S
C69 C68 1.333 . S
C69 N71 1.350 . S
C69 H95 0.931 . S
N70 Co66 2.148 . S
N70 C67 1.301 . S
N70 C68 1.317 . S
N71 C67 1.328 . S
N71 C69 1.350 . S
H72 C67 0.930 . S
H73 C68 0.930 . S
C74 O75 1.224 . S
C74 O93 1.247 . S
O75 C74 1.224 . S
N76 Co66 2.128 . S
N76 C77 1.355 . S
N76 C79 1.311 . S
C77 N76 1.355 . S
C77 C78 1.363 . S
C77 H89 0.929 . S
C78 C77 1.363 . S
C78 N80 1.375 . S
C78 H96 0.931 . S
C79 N76 1.311 . S
C79 N80 1.347 . S
C79 H90 0.929 . S
N80 C78 1.375 . S
N80 C79 1.347 . S
C81 C84 1.365 . S
C81 N86 1.328 . S
C81 H87 0.929 . S
C82 C83 1.362 . S
C82 C85 1.378 . S
C82 H97 0.929 . S
C83 C82 1.362 . S
C83 C84 1.366 . S
C84 C81 1.365 . S
C84 C83 1.366 . S
C84 H98 0.930 . S
C85 C82 1.378 . S
C85 N86 1.315 . S
C85 H88 0.930 . S
N86 Co66 2.194 . S
N86 C81 1.328 . S
N86 C85 1.315 . S
H87 C81 0.929 . S
H88 C85 0.930 . S
H89 C77 0.929 . S
H90 C79 0.929 . S
O91 Co66 2.351 . S
O91 C94 1.244 . S
O92 Co66 2.155 . S
O92 C94 1.240 . S
O93 Co66 2.096 . S
O93 C74 1.247 . S
C94 O91 1.244 . S
C94 O92 1.240 . S
H95 C69 0.931 . S
H96 C78 0.931 . S
H97 C82 0.929 . S
H98 C84 0.930 . S
Co99 N103 2.148 . S
Co99 N109 2.128 1_554 S
Co99 N119 2.194 . S
Co99 O124 2.351 . S
Co99 O125 2.155 . S
Co99 O126 2.096 . S
C100 N103 1.301 . S
C100 N104 1.328 . S
C100 H105 0.930 . S
C101 C102 1.333 . S
C101 N103 1.317 . S
C101 H106 0.930 . S
C102 C101 1.333 . S
C102 N104 1.350 . S
C102 H128 0.931 . S
N103 Co99 2.148 . S
N103 C100 1.301 . S
N103 C101 1.317 . S
N104 C100 1.328 . S
N104 C102 1.350 . S
H105 C100 0.930 . S
H106 C101 0.930 . S
C107 O108 1.224 . S
C107 O126 1.247 . S
O108 C107 1.224 . S
N109 Co99 2.128 1_556 S
N109 C110 1.355 . S
N109 C112 1.311 . S
C110 N109 1.355 . S
C110 C111 1.363 . S
C110 H122 0.929 . S
C111 C110 1.363 . S
C111 N113 1.375 . S
C111 H129 0.931 . S
C112 N109 1.311 . S
C112 N113 1.347 . S
C112 H123 0.929 . S
N113 C111 1.375 . S
N113 C112 1.347 . S
C114 C117 1.361 1_554 S
C114 N119 1.328 . S
C114 H120 0.929 . S
C115 C116 1.362 . S
C115 C118 1.376 1_556 S
C115 H130 0.929 . S
C116 C115 1.362 . S
C116 C117 1.370 . S
C117 C114 1.361 1_556 S
C117 C116 1.370 . S
C117 H131 0.930 1_655 S
C118 C115 1.376 1_554 S
C118 N119 1.316 . S
C118 H121 0.930 . S
N119 Co99 2.194 . S
N119 C114 1.328 . S
N119 C118 1.316 . S
H120 C114 0.929 . S
H121 C118 0.930 . S
H122 C110 0.929 . S
H123 C112 0.929 . S
O124 Co99 2.351 . S
O124 C127 1.244 . S
O125 Co99 2.155 . S
O125 C127 1.240 . S
O126 Co99 2.096 . S
O126 C107 1.247 . S
C127 O124 1.244 . S
C127 O125 1.240 . S
H128 C102 0.931 . S
H129 C111 0.931 . S
H130 C115 0.929 . S
H131 C117 0.930 1_455 S
Co132 N136 2.148 . S
Co132 N142 2.128 . S
Co132 N152 2.194 . S
Co132 O157 2.351 . S
Co132 O158 2.155 . S
Co132 O159 2.096 . S
C133 N136 1.301 . S
C133 N137 1.328 . S
C133 H138 0.930 . S
C134 C135 1.333 . S
C134 N136 1.317 . S
C134 H139 0.930 . S
C135 C134 1.333 . S
C135 N137 1.350 . S
C135 H161 0.931 . S
N136 Co132 2.148 . S
N136 C133 1.301 . S
N136 C134 1.317 . S
N137 C133 1.328 . S
N137 C135 1.350 . S
H138 C133 0.930 . S
H139 C134 0.930 . S
C140 O141 1.224 . S
C140 O159 1.247 . S
O141 C140 1.224 . S
N142 Co132 2.128 . S
N142 C143 1.355 . S
N142 C145 1.311 . S
C143 N142 1.355 . S
C143 C144 1.363 . S
C143 H155 0.929 . S
C144 C143 1.363 . S
C144 N146 1.375 . S
C144 H162 0.931 . S
C145 N142 1.311 . S
C145 N146 1.347 . S
C145 H156 0.929 . S
N146 C144 1.375 . S
N146 C145 1.347 . S
C147 C150 1.365 . S
C147 N152 1.328 . S
C147 H153 0.929 . S
C148 C149 1.362 . S
C148 C151 1.378 . S
C148 H163 0.929 . S
C149 C148 1.362 . S
C149 C150 1.366 . S
C150 C147 1.365 . S
C150 C149 1.366 . S
C150 H164 0.930 1_565 S
C151 C148 1.378 . S
C151 N152 1.315 . S
C151 H154 0.930 . S
N152 Co132 2.194 . S
N152 C147 1.328 . S
N152 C151 1.315 . S
H153 C147 0.929 . S
H154 C151 0.930 . S
H155 C143 0.929 . S
H156 C145 0.929 . S
O157 Co132 2.351 . S
O157 C160 1.244 . S
O158 Co132 2.155 . S
O158 C160 1.240 . S
O159 Co132 2.096 . S
O159 C140 1.247 . S
C160 O157 1.244 . S
C160 O158 1.240 . S
H161 C135 0.931 . S
H162 C144 0.931 . S
H163 C148 0.929 . S
H164 C150 0.930 1_545 S
Co165 N169 2.148 . S
Co165 N175 2.128 . S
Co165 N185 2.194 . S
Co165 O190 2.351 . S
Co165 O191 2.155 . S
Co165 O192 2.096 . S
C166 N169 1.301 . S
C166 N170 1.328 . S
C166 H171 0.930 . S
C167 C168 1.333 . S
C167 N169 1.317 . S
C167 H172 0.930 . S
C168 C167 1.333 . S
C168 N170 1.350 . S
C168 H194 0.931 . S
N169 Co165 2.148 . S
N169 C166 1.301 . S
N169 C167 1.317 . S
N170 C166 1.328 . S
N170 C168 1.350 . S
H171 C166 0.930 . S
H172 C167 0.930 . S
C173 O174 1.224 . S
C173 O192 1.247 . S
O174 C173 1.224 . S
N175 Co165 2.128 . S
N175 C176 1.355 . S
N175 C178 1.311 . S
C176 N175 1.355 . S
C176 C177 1.363 . S
C176 H188 0.929 . S
C177 C176 1.363 . S
C177 N179 1.375 . S
C177 H195 0.931 . S
C178 N175 1.311 . S
C178 N179 1.347 . S
C178 H189 0.929 . S
N179 C177 1.375 . S
N179 C178 1.347 . S
C180 C183 1.365 . S
C180 N185 1.328 . S
C180 H186 0.929 . S
C181 C182 1.362 . S
C181 C184 1.378 . S
C181 H196 0.929 . S
C182 C181 1.362 . S
C182 C183 1.366 . S
C183 C180 1.365 . S
C183 C182 1.366 . S
C183 H197 0.930 . S
C184 C181 1.378 . S
C184 N185 1.315 . S
C184 H187 0.930 . S
N185 Co165 2.194 . S
N185 C180 1.328 . S
N185 C184 1.315 . S
H186 C180 0.929 . S
H187 C184 0.930 . S
H188 C176 0.929 . S
H189 C178 0.929 . S
O190 Co165 2.351 . S
O190 C193 1.244 . S
O191 Co165 2.155 . S
O191 C193 1.240 . S
O192 Co165 2.096 . S
O192 C173 1.247 . S
C193 O190 1.244 . S
C193 O191 1.240 . S
H194 C168 0.931 . S
H195 C177 0.931 . S
H196 C181 0.929 . S
H197 C183 0.930 . S
C198 C199 1.363 . S
C198 C204 1.379 . S
C198 N206 1.356 . S
C199 C198 1.363 . S
C199 C205 1.363 1_554 S
C200 C201 1.363 1_556 S
C200 C205 1.379 . S
C200 N207 1.356 . S
C201 C200 1.363 1_554 S
C201 C204 1.363 . S
N202 C204 1.356 . S
N202 H214 0.984 . S
N202 H215 0.985 . S
N203 C205 1.356 . S
N203 H208 0.984 . S
N203 H209 0.985 . S
C204 C198 1.379 . S
C204 C201 1.363 . S
C204 N202 1.356 . S
C205 C199 1.363 1_556 S
C205 C200 1.379 . S
C205 N203 1.356 . S
N206 C198 1.356 . S
N206 H212 0.984 . S
N206 H213 0.984 . S
N207 C200 1.356 . S
N207 H210 0.984 . S
N207 H211 0.985 . S
H208 N203 0.984 . S
H209 N203 0.985 . S
H210 N207 0.984 . S
H211 N207 0.985 . S
H212 N206 0.984 . S
H213 N206 0.984 . S
H214 N202 0.984 . S
H215 N202 0.985 . S
C216 C217 1.363 . S
C216 C222 1.379 . S
C216 N224 1.356 . S
C217 C216 1.363 . S
C217 C223 1.363 1_655 S
C218 C219 1.363 . S
C218 C223 1.379 . S
C218 N225 1.356 . S
C219 C218 1.363 . S
C219 C222 1.363 1_455 S
N220 C222 1.356 . S
N220 H232 0.984 . S
N220 H233 0.985 . S
N221 C223 1.356 . S
N221 H226 0.984 . S
N221 H227 0.985 . S
C222 C216 1.379 . S
C222 C219 1.363 1_655 S
C222 N220 1.356 . S
C223 C217 1.363 1_455 S
C223 C218 1.379 . S
C223 N221 1.356 . S
N224 C216 1.356 . S
N224 H230 0.984 . S
N224 H231 0.984 . S
N225 C218 1.356 . S
N225 H228 0.984 . S
N225 H229 0.985 . S
H226 N221 0.984 . S
H227 N221 0.985 . S
H228 N225 0.984 . S
H229 N225 0.985 . S
H230 N224 0.984 . S
H231 N224 0.984 . S
H232 N220 0.984 . S
H233 N220 0.985 . S
C234 C235 1.363 1_565 S
C234 C240 1.379 . S
C234 N242 1.356 . S
C235 C234 1.363 1_545 S
C235 C241 1.363 . S
C236 C237 1.363 1_545 S
C236 C241 1.379 . S
C236 N243 1.356 . S
C237 C236 1.363 1_565 S
C237 C240 1.363 . S
N238 C240 1.356 . S
N238 H250 0.984 . S
N238 H251 0.985 . S
N239 C241 1.356 . S
N239 H244 0.984 . S
N239 H245 0.985 . S
C240 C234 1.379 . S
C240 C237 1.363 . S
C240 N238 1.356 . S
C241 C235 1.363 . S
C241 C236 1.379 . S
C241 N239 1.356 . S
N242 C234 1.356 . S
N242 H248 0.984 . S
N242 H249 0.984 . S
N243 C236 1.356 . S
N243 H246 0.984 . S
N243 H247 0.985 . S
H244 N239 0.984 . S
H245 N239 0.985 . S
H246 N243 0.984 . S
H247 N243 0.985 . S
H248 N242 0.984 . S
H249 N242 0.984 . S
H250 N238 0.984 . S
H251 N238 0.985 . S
C252 C253 1.363 . S
C252 C258 1.379 . S
C252 N260 1.356 . S
C253 C252 1.363 . S
C253 C259 1.363 . S
C254 C255 1.363 . S
C254 C259 1.379 . S
C254 N261 1.356 . S
C255 C254 1.363 . S
C255 C258 1.363 . S
N256 C258 1.356 . S
N256 H268 0.984 . S
N256 H269 0.985 . S
N257 C259 1.356 . S
N257 H262 0.984 . S
N257 H263 0.985 . S
C258 C252 1.379 . S
C258 C255 1.363 . S
C258 N256 1.356 . S
C259 C253 1.363 . S
C259 C254 1.379 . S
C259 N257 1.356 . S
N260 C252 1.356 . S
N260 H266 0.984 . S
N260 H267 0.984 . S
N261 C254 1.356 . S
N261 H264 0.984 . S
N261 H265 0.985 . S
H262 N257 0.984 . S
H263 N257 0.985 . S
H264 N261 0.984 . S
H265 N261 0.985 . S
H266 N260 0.984 . S
H267 N260 0.984 . S
H268 N256 0.984 . S
H269 N256 0.985 . S
C270 C271 1.363 1_454 S
C270 C276 1.379 . S
C270 N278 1.356 . S
C271 C270 1.363 1_656 S
C271 C277 1.363 . S
C272 C273 1.363 1_655 S
C272 C277 1.379 . S
C272 N279 1.356 . S
C273 C272 1.363 1_455 S
C273 C276 1.363 1_556 S
N274 C276 1.356 . S
N274 H286 0.984 . S
N274 H287 0.985 . S
N275 C277 1.356 . S
N275 H280 0.984 . S
N275 H281 0.985 . S
C276 C270 1.379 . S
C276 C273 1.363 1_554 S
C276 N274 1.356 . S
C277 C271 1.363 . S
C277 C272 1.379 . S
C277 N275 1.356 . S
N278 C270 1.356 . S
N278 H284 0.984 . S
N278 H285 0.984 . S
N279 C272 1.356 . S
N279 H282 0.984 . S
N279 H283 0.985 . S
H280 N275 0.984 . S
H281 N275 0.985 . S
H282 N279 0.984 . S
H283 N279 0.985 . S
H284 N278 0.984 . S
H285 N278 0.984 . S
H286 N274 0.984 . S
H287 N274 0.985 . S
C288 C289 1.363 1_545 S
C288 C294 1.379 . S
C288 N296 1.356 . S
C289 C288 1.363 1_565 S
C289 C295 1.363 . S
C290 C291 1.363 1_565 S
C290 C295 1.379 . S
C290 N297 1.356 . S
C291 C290 1.363 1_545 S
C291 C294 1.363 . S
N292 C294 1.356 . S
N292 H304 0.984 . S
N292 H305 0.985 . S
N293 C295 1.356 . S
N293 H298 0.984 . S
N293 H299 0.985 . S
C294 C288 1.379 . S
C294 C291 1.363 . S
C294 N292 1.356 . S
C295 C289 1.363 . S
C295 C290 1.379 . S
C295 N293 1.356 . S
N296 C288 1.356 . S
N296 H302 0.984 . S
N296 H303 0.984 . S
N297 C290 1.356 . S
N297 H300 0.984 . S
N297 H301 0.985 . S
H298 N293 0.984 . S
H299 N293 0.985 . S
H300 N297 0.984 . S
H301 N297 0.985 . S
H302 N296 0.984 . S
H303 N296 0.984 . S
H304 N292 0.984 . S
H305 N292 0.985 . S
C306 C307 1.363 . S
C306 C312 1.379 1_545 S
C306 N314 1.356 . S
C307 C306 1.363 . S
C307 C313 1.363 1_454 S
C308 C309 1.363 1_556 S
C308 C313 1.379 1_565 S
C308 N315 1.356 . S
C309 C308 1.363 1_554 S
C309 C312 1.363 1_655 S
N310 C312 1.356 1_655 S
N310 H322 0.984 1_655 S
N310 H323 0.985 . S
N311 C313 1.356 1_455 S
N311 H316 0.984 . S
N311 H317 0.985 1_455 S
C312 C306 1.379 1_565 S
C312 C309 1.363 1_455 S
C312 N310 1.356 1_455 S
C313 C307 1.363 1_656 S
C313 C308 1.379 1_545 S
C313 N311 1.356 1_655 S
N314 C306 1.356 . S
N314 H320 0.984 . S
N314 H321 0.984 . S
N315 C308 1.356 . S
N315 H318 0.984 . S
N315 H319 0.985 . S
H316 N311 0.984 . S
H317 N311 0.985 1_655 S
H318 N315 0.984 . S
H319 N315 0.985 . S
H320 N314 0.984 . S
H321 N314 0.984 . S
H322 N310 0.984 1_455 S
H323 N310 0.985 . S
C324 C325 1.363 1_655 S
C324 C330 1.379 . S
C324 N332 1.356 . S
C325 C324 1.363 1_455 S
C325 C331 1.363 1_565 S
C326 C327 1.363 1_455 S
C326 C331 1.379 . S
C326 N333 1.356 . S
C327 C326 1.363 1_655 S
C327 C330 1.363 1_545 S
N328 C330 1.356 1_545 S
N328 H340 0.984 1_545 S
N328 H341 0.985 . S
N329 C331 1.356 1_565 S
N329 H334 0.984 . S
N329 H335 0.985 1_565 S
C330 C324 1.379 . S
C330 C327 1.363 1_565 S
C330 N328 1.356 1_565 S
C331 C325 1.363 1_545 S
C331 C326 1.379 . S
C331 N329 1.356 1_545 S
N332 C324 1.356 . S
N332 H338 0.984 . S
N332 H339 0.984 1_655 S
N333 C326 1.356 . S
N333 H336 0.984 1_455 S
N333 H337 0.985 . S
H334 N329 0.984 . S
H335 N329 0.985 1_545 S
H336 N333 0.984 1_655 S
H337 N333 0.985 . S
H338 N332 0.984 . S
H339 N332 0.984 1_455 S
H340 N328 0.984 1_565 S
H341 N328 0.985 . S
C342 C343 1.363 1_565 S
C342 C348 1.379 1_455 S
C342 N350 1.356 . S
C343 C342 1.363 1_545 S
C343 C349 1.363 . S
C344 C345 1.363 1_545 S
C344 C349 1.379 1_655 S
C344 N351 1.356 . S
C345 C344 1.363 1_565 S
C345 C348 1.363 . S
N346 C348 1.356 . S
N346 H358 0.984 . S
N346 H359 0.985 . S
N347 C349 1.356 . S
N347 H352 0.984 . S
N347 H353 0.985 . S
C348 C342 1.379 1_655 S
C348 C345 1.363 . S
C348 N346 1.356 . S
C349 C343 1.363 . S
C349 C344 1.379 1_455 S
C349 N347 1.356 . S
N350 C342 1.356 . S
N350 H356 0.984 . S
N350 H357 0.984 1_565 S
N351 C344 1.356 . S
N351 H354 0.984 1_545 S
N351 H355 0.985 . S
H352 N347 0.984 . S
H353 N347 0.985 . S
H354 N351 0.984 1_565 S
H355 N351 0.985 . S
H356 N350 0.984 . S
H357 N350 0.984 1_545 S
H358 N346 0.984 . S
H359 N346 0.985 . S
C360 C361 1.363 . S
C360 C366 1.379 . S
C360 N368 1.356 . S
C361 C360 1.363 . S
C361 C367 1.363 . S
C362 C363 1.363 . S
C362 C367 1.379 . S
C362 N369 1.356 . S
C363 C362 1.363 . S
C363 C366 1.363 . S
N364 C366 1.356 . S
N364 H376 0.984 . S
N364 H377 0.985 . S
N365 C367 1.356 . S
N365 H370 0.984 . S
N365 H371 0.985 . S
C366 C360 1.379 . S
C366 C363 1.363 . S
C366 N364 1.356 . S
C367 C361 1.363 . S
C367 C362 1.379 . S
C367 N365 1.356 . S
N368 C360 1.356 . S
N368 H374 0.984 . S
N368 H375 0.984 . S
N369 C362 1.356 . S
N369 H372 0.984 . S
N369 H373 0.985 . S
H370 N365 0.984 . S
H371 N365 0.985 . S
H372 N369 0.984 . S
H373 N369 0.985 . S
H374 N368 0.984 . S
H375 N368 0.984 . S
H376 N364 0.984 . S
H377 N364 0.985 . S
C378 C379 1.363 . S
C378 C384 1.379 . S
C378 N386 1.356 . S
C379 C378 1.363 . S
C379 C385 1.363 1_455 S
C380 C381 1.363 . S
C380 C385 1.379 . S
C380 N387 1.356 . S
C381 C380 1.363 . S
C381 C384 1.363 1_655 S
N382 C384 1.356 . S
N382 H394 0.984 . S
N382 H395 0.985 . S
N383 C385 1.356 . S
N383 H388 0.984 1_655 S
N383 H389 0.985 . S
C384 C378 1.379 . S
C384 C381 1.363 1_455 S
C384 N382 1.356 . S
C385 C379 1.363 1_655 S
C385 C380 1.379 . S
C385 N383 1.356 . S
N386 C378 1.356 . S
N386 H392 0.984 . S
N386 H393 0.984 . S
N387 C380 1.356 . S
N387 H390 0.984 . S
N387 H391 0.985 . S
H388 N383 0.984 1_455 S
H389 N383 0.985 . S
H390 N387 0.984 . S
H391 N387 0.985 . S
H392 N386 0.984 . S
H393 N386 0.984 . S
H394 N382 0.984 . S
H395 N382 0.985 . S
C396 C397 1.363 1_565 S
C396 C402 1.379 . S
C396 N404 1.356 . S
C397 C396 1.363 1_545 S
C397 C403 1.363 . S
C398 C399 1.363 1_545 S
C398 C403 1.379 . S
C398 N405 1.356 . S
C399 C398 1.363 1_565 S
C399 C402 1.363 . S
N400 C402 1.356 . S
N400 H412 0.984 . S
N400 H413 0.985 . S
N401 C403 1.356 . S
N401 H406 0.984 . S
N401 H407 0.985 . S
C402 C396 1.379 . S
C402 C399 1.363 . S
C402 N400 1.356 . S
C403 C397 1.363 . S
C403 C398 1.379 . S
C403 N401 1.356 . S
N404 C396 1.356 . S
N404 H410 0.984 . S
N404 H411 0.984 1_565 S
N405 C398 1.356 . S
N405 H408 0.984 . S
N405 H409 0.985 . S
H406 N401 0.984 . S
H407 N401 0.985 . S
H408 N405 0.984 . S
H409 N405 0.985 . S
H410 N404 0.984 . S
H411 N404 0.984 1_545 S
H412 N400 0.984 . S
H413 N400 0.985 . S
C414 C415 1.363 . S
C414 C420 1.379 . S
C414 N422 1.356 . S
C415 C414 1.363 . S
C415 C421 1.363 . S
C416 C417 1.363 . S
C416 C421 1.379 . S
C416 N423 1.356 . S
C417 C416 1.363 . S
C417 C420 1.363 . S
N418 C420 1.356 . S
N418 H430 0.984 . S
N418 H431 0.985 . S
N419 C421 1.356 . S
N419 H424 0.984 . S
N419 H425 0.985 . S
C420 C414 1.379 . S
C420 C417 1.363 . S
C420 N418 1.356 . S
C421 C415 1.363 . S
C421 C416 1.379 . S
C421 N419 1.356 . S
N422 C414 1.356 . S
N422 H428 0.984 . S
N422 H429 0.984 . S
N423 C416 1.356 . S
N423 H426 0.984 . S
N423 H427 0.985 . S
H424 N419 0.984 . S
H425 N419 0.985 . S
H426 N423 0.984 . S
H427 N423 0.985 . S
H428 N422 0.984 . S
H429 N422 0.984 . S
H430 N418 0.984 . S
H431 N418 0.985 . S
C432 C433 1.363 1_455 S
C432 C438 1.379 . S
C432 N440 1.356 . S
C433 C432 1.363 1_655 S
C433 C439 1.363 . S
C434 C435 1.363 1_655 S
C434 C439 1.379 . S
C434 N441 1.356 . S
C435 C434 1.363 1_455 S
C435 C438 1.363 . S
N436 C438 1.356 . S
N436 H448 0.984 . S
N436 H449 0.985 . S
N437 C439 1.356 . S
N437 H442 0.984 . S
N437 H443 0.985 . S
C438 C432 1.379 . S
C438 C435 1.363 . S
C438 N436 1.356 . S
C439 C433 1.363 . S
C439 C434 1.379 . S
C439 N437 1.356 . S
N440 C432 1.356 . S
N440 H446 0.984 . S
N440 H447 0.984 1_455 S
N441 C434 1.356 . S
N441 H444 0.984 . S
N441 H445 0.985 . S
H442 N437 0.984 . S
H443 N437 0.985 . S
H444 N441 0.984 . S
H445 N441 0.985 . S
H446 N440 0.984 . S
H447 N440 0.984 1_655 S
H448 N436 0.984 . S
H449 N436 0.985 . S
C450 C451 1.363 1_565 S
C450 C456 1.379 . S
C450 N458 1.356 1_565 S
C451 C450 1.363 1_545 S
C451 C457 1.363 . S
C452 C453 1.363 . S
C452 C457 1.379 1_565 S
C452 N459 1.356 . S
C453 C452 1.363 . S
C453 C456 1.363 . S
N454 C456 1.356 . S
N454 H466 0.984 . S
N454 H467 0.985 . S
N455 C457 1.356 . S
N455 H460 0.984 . S
N455 H461 0.985 . S
C456 C450 1.379 . S
C456 C453 1.363 . S
C456 N454 1.356 . S
C457 C451 1.363 . S
C457 C452 1.379 1_545 S
C457 N455 1.356 . S
N458 C450 1.356 1_545 S
N458 H464 0.984 1_545 S
N458 H465 0.984 . S
N459 C452 1.356 . S
N459 H462 0.984 . S
N459 H463 0.985 . S
H460 N455 0.984 . S
H461 N455 0.985 . S
H462 N459 0.984 . S
H463 N459 0.985 . S
H464 N458 0.984 1_565 S
H465 N458 0.984 . S
H466 N454 0.984 . S
H467 N454 0.985 . S
C199 C8 1.927 . S
C201 C107 1.927 . S
C217 C41 1.927 . S
C219 C140 1.927 . S
C235 C173 1.927 . S
C237 C74 1.927 . S
C253 C83 0.879 . S
C255 C182 0.879 . S
C271 C116 0.878 . S
C273 C17 0.878 . S
C289 C149 0.878 . S
C291 C50 0.878 . S
C307 C28 0.994 . S
C309 C127 0.994 . S
C325 C160 0.994 . S
C327 C61 0.994 . S
C343 C193 0.994 . S
C345 C94 0.994 . S
C361 N14 1.679 . S
C363 N170 1.816 . S
C379 N5 1.816 . S
C381 N47 1.679 . S
C397 N38 1.816 . S
C399 N80 1.679 . S
C415 N71 1.816 . S
C417 N113 1.679 . S
C433 N104 1.816 . S
C435 N146 1.679 . S
C451 N179 1.679 . S
C453 N137 1.816 . S
