# Generated by pormake.
# Topology npo, (4)-cn, num edge types: 1
# Building blocks:
#     Node 0, Type 0, BuildingBlock: CEKHIL_clean_sbu_0, # of connection points: 4
#     Node 1, Type 0, BuildingBlock: CEKHIL_clean_sbu_0, # of connection points: 4
#     Node 2, Type 0, BuildingBlock: CEKHIL_clean_sbu_0, # of connection points: 4
#     Node 3, Type 0, BuildingBlock: CEKHIL_clean_sbu_0, # of connection points: 4
#     Node 4, Type 0, BuildingBlock: CEKHIL_clean_sbu_0, # of connection points: 4
#     Node 5, Type 0, BuildingBlock: CEKHIL_clean_sbu_0, # of connection points: 4
#     Edge 6, Type (0, 0), BuildingBlock: XUDNAN_clean_linker_2, # of connection points: 2
#     Edge 7, Type (0, 0), BuildingBlock: XUDNAN_clean_linker_2, # of connection points: 2
#     Edge 8, Type (0, 0), BuildingBlock: XUDNAN_clean_linker_2, # of connection points: 2
#     Edge 9, Type (0, 0), BuildingBlock: XUDNAN_clean_linker_2, # of connection points: 2
#     Edge 10, Type (0, 0), BuildingBlock: XUDNAN_clean_linker_2, # of connection points: 2
#     Edge 11, Type (0, 0), BuildingBlock: XUDNAN_clean_linker_2, # of connection points: 2
#     Edge 12, Type (0, 0), BuildingBlock: XUDNAN_clean_linker_2, # of connection points: 2
#     Edge 13, Type (0, 0), BuildingBlock: XUDNAN_clean_linker_2, # of connection points: 2
#     Edge 14, Type (0, 0), BuildingBlock: XUDNAN_clean_linker_2, # of connection points: 2
#     Edge 15, Type (0, 0), BuildingBlock: XUDNAN_clean_linker_2, # of connection points: 2
#     Edge 16, Type (0, 0), BuildingBlock: XUDNAN_clean_linker_2, # of connection points: 2
#     Edge 17, Type (0, 0), BuildingBlock: XUDNAN_clean_linker_2, # of connection points: 2
# Relax obj value: 0.296
# Max RMSD: 0.247
# Mean RMSD: 0.243
data_MOF--net-npo--node1-CEKHIL_clean_sbu_0--edge1-XUDNAN_clean_linker_2
_symmetry_space_group_name_H-M    P1
_symmetry_Int_Tables_number       1
_symmetry_cell_setting            triclinic
loop_
_symmetry_equiv_pos_as_xyz
'x, y, z'
_cell_length_a     44.5146
_cell_length_b     43.773523
_cell_length_c     23.487112
_cell_angle_alpha  91.100048
_cell_angle_beta   89.955504
_cell_angle_gamma 120.58049
loop_
_atom_site_label
_atom_site_type_symbol
_atom_site_fract_x
_atom_site_fract_y
_atom_site_fract_z
_atom_type_partial_charge
Co0 Co 0.54155 0.10112 0.25546 0.0
O1 O 0.5039 0.05562 0.28081 0.0
O2 O 0.55936 0.08137 0.30814 0.0
C3 C 0.51354 0.13157 0.26468 0.0
O4 O 0.58708 0.1473 0.24665 0.0
Co5 Co 0.54074 0.14245 0.15019 0.0
O6 O 0.58563 0.18227 0.17939 0.0
C7 C 0.55375 0.08299 0.135 0.0
C8 C 0.52762 0.05529 0.31287 0.0
C9 C 0.6008 0.17666 0.22019 0.0
O10 O 0.55227 0.07807 0.1891 0.0
O11 O 0.54837 0.10598 0.11175 0.0
O12 O 0.5265 0.12497 0.30914 0.0
O13 O 0.51505 0.11702 0.21717 0.0
Co14 Co 0.44543 0.55788 0.74486 0.0
O15 O 0.48853 0.56822 0.70935 0.0
O16 O 0.43709 0.52008 0.69203 0.0
C17 C 0.45153 0.61127 0.73219 0.0
O18 O 0.39492 0.53973 0.76874 0.0
Co19 Co 0.44378 0.59711 0.8551 0.0
O20 O 0.39669 0.58251 0.82571 0.0
C21 C 0.46062 0.54056 0.86329 0.0
C22 C 0.46999 0.53918 0.67956 0.0
C23 C 0.38035 0.55566 0.79247 0.0
O24 O 0.45475 0.53376 0.80952 0.0
O25 O 0.45891 0.56553 0.88936 0.0
O26 O 0.44051 0.58783 0.69095 0.0
O27 O 0.46196 0.60316 0.77803 0.0
Co28 Co 0.88307 0.42051 0.25371 0.0
O29 O 0.92318 0.41854 0.27886 0.0
O30 O 0.91102 0.45999 0.30471 0.0
C31 C 0.84351 0.3634 0.26965 0.0
O32 O 0.84284 0.42969 0.2414 0.0
Co33 Co 0.83755 0.37634 0.14989 0.0
O34 O 0.8022 0.38391 0.18849 0.0
C35 C 0.90432 0.44224 0.13065 0.0
C36 C 0.93045 0.44597 0.31104 0.0
C37 C 0.81124 0.41002 0.22293 0.0
O38 O 0.9089 0.44887 0.18467 0.0
O39 O 0.87852 0.41423 0.10857 0.0
O40 O 0.85546 0.3866 0.31125 0.0
O41 O 0.85865 0.3746 0.22112 0.0
Co42 Co 0.431 0.8844 0.73219 0.0
O43 O 0.44063 0.92906 0.70019 0.0
O44 O 0.46806 0.90005 0.67862 0.0
C45 C 0.37262 0.85583 0.72372 0.0
O46 O 0.42794 0.83769 0.74823 0.0
Co47 Co 0.38882 0.84989 0.84121 0.0
O48 O 0.39066 0.80716 0.81789 0.0
C49 C 0.46169 0.90942 0.85131 0.0
C50 C 0.46356 0.92651 0.66912 0.0
C51 C 0.41088 0.80967 0.77772 0.0
O52 O 0.46543 0.90957 0.79688 0.0
O53 O 0.43275 0.88931 0.87605 0.0
O54 O 0.39178 0.85944 0.67973 0.0
O55 O 0.38916 0.87218 0.77003 0.0
Co56 Co 0.53822 0.41254 0.24252 0.0
O57 O 0.50298 0.41496 0.19775 0.0
O58 O 0.56011 0.44929 0.1875 0.0
C59 C 0.5134 0.35298 0.23747 0.0
O60 O 0.58289 0.41797 0.27581 0.0
Co61 Co 0.52488 0.37148 0.35536 0.0
O62 O 0.57108 0.37629 0.34049 0.0
C63 C 0.52372 0.4387 0.35205 0.0
C64 C 0.52889 0.43988 0.16993 0.0
C65 C 0.59219 0.40069 0.30785 0.0
O66 O 0.53759 0.44611 0.30226 0.0
O67 O 0.514 0.40931 0.37672 0.0
O68 O 0.53204 0.37216 0.19537 0.0
O69 O 0.50876 0.37 0.27846 0.0
Co70 Co 0.11255 0.57808 0.7581 0.0
O71 O 0.07374 0.58144 0.7872 0.0
O72 O 0.09044 0.54498 0.81879 0.0
C73 C 0.15019 0.63715 0.75615 0.0
O74 O 0.15145 0.56755 0.74214 0.0
Co75 Co 0.14959 0.61094 0.64368 0.0
O76 O 0.18566 0.60072 0.67113 0.0
C77 C 0.07864 0.54742 0.64478 0.0
C78 C 0.06943 0.55733 0.82308 0.0
C79 C 0.17895 0.57915 0.71143 0.0
O80 O 0.08129 0.5422 0.69794 0.0
O81 O 0.10116 0.57483 0.61822 0.0
O82 O 0.1453 0.62039 0.80357 0.0
O83 O 0.1312 0.61828 0.7137 0.0
H84 H 0.52423 0.17906 0.18204 0.0
H85 H 0.4836 0.14779 0.3522 0.0
H86 H 0.47255 0.19779 0.35812 0.0
H87 H 0.57239 0.26977 0.21717 0.0
H88 H 0.56672 0.28439 0.14891 0.0
H89 H 0.56575 0.24293 0.154 0.0
H90 H 0.50472 0.21002 0.10524 0.0
H91 H 0.50549 0.25143 0.09988 0.0
H92 H 0.46975 0.21452 0.13486 0.0
H93 H 0.46888 0.25223 0.3473 0.0
H94 H 0.47849 0.31128 0.3264 0.0
H95 H 0.52772 0.31089 0.16685 0.0
C96 C 0.51238 0.18223 0.22009 0.0
C97 C 0.50426 0.15935 0.26645 0.0
C98 C 0.48964 0.16496 0.31612 0.0
C99 C 0.48319 0.19312 0.31969 0.0
C100 C 0.49219 0.21568 0.27358 0.0
C101 C 0.50693 0.21086 0.22504 0.0
C102 C 0.51844 0.2414 0.18473 0.0
C103 C 0.55817 0.26076 0.1757 0.0
C104 C 0.49839 0.22856 0.1278 0.0
C105 C 0.50798 0.2643 0.21831 0.0
C106 C 0.49227 0.24854 0.26887 0.0
C107 C 0.48109 0.26482 0.30786 0.0
C108 C 0.48677 0.29844 0.29553 0.0
C109 C 0.5041 0.31581 0.2451 0.0
C110 C 0.51429 0.2982 0.20554 0.0
H111 H 0.36529 0.59668 0.73011 0.0
H112 H 0.31738 0.49686 0.81782 0.0
H113 H 0.25889 0.48971 0.80129 0.0
H114 H 0.31426 0.62791 0.78499 0.0
H115 H 0.31148 0.64841 0.72096 0.0
H116 H 0.34849 0.64321 0.73296 0.0
H117 H 0.33705 0.60883 0.63724 0.0
H118 H 0.30023 0.61434 0.62394 0.0
H119 H 0.29464 0.57055 0.62245 0.0
H120 H 0.20711 0.4983 0.78587 0.0
H121 H 0.16556 0.51852 0.7654 0.0
H122 H 0.24822 0.61194 0.68469 0.0
C123 C 0.34229 0.57279 0.74419 0.0
C124 C 0.34535 0.54697 0.77436 0.0
C125 C 0.31514 0.51644 0.79362 0.0
C126 C 0.28202 0.51237 0.78467 0.0
C127 C 0.27992 0.53892 0.75593 0.0
C128 C 0.30929 0.56823 0.73509 0.0
C129 C 0.30056 0.59391 0.70814 0.0
C130 C 0.31983 0.6305 0.73862 0.0
C131 C 0.30859 0.59707 0.64413 0.0
C132 C 0.26172 0.5751 0.7185 0.0
C133 C 0.25023 0.54344 0.74606 0.0
C134 C 0.21572 0.5227 0.76337 0.0
C135 C 0.19237 0.53451 0.75187 0.0
C136 C 0.20358 0.56664 0.72298 0.0
C137 C 0.2387 0.58697 0.70594 0.0
H138 H 0.6565 0.2176 0.15292 0.0
H139 H 0.62342 0.19715 0.32867 0.0
H140 H 0.68334 0.24094 0.36118 0.0
H141 H 0.73892 0.22381 0.17714 0.0
H142 H 0.76212 0.25822 0.12623 0.0
H143 H 0.71619 0.2271 0.11622 0.0
H144 H 0.70371 0.2789 0.11208 0.0
H145 H 0.74975 0.30998 0.12049 0.0
H146 H 0.71932 0.31169 0.16907 0.0
H147 H 0.7459 0.28743 0.37414 0.0
H148 H 0.80764 0.3346 0.36692 0.0
H149 H 0.80139 0.31979 0.18308 0.0
C150 C 0.66193 0.22284 0.19813 0.0
C151 C 0.63568 0.20456 0.23851 0.0
C152 C 0.6435 0.21121 0.29738 0.0
C153 C 0.67732 0.23588 0.31614 0.0
C154 C 0.70294 0.25296 0.27535 0.0
C155 C 0.69576 0.24672 0.21762 0.0
C156 C 0.72839 0.26758 0.18287 0.0
C157 C 0.7369 0.24268 0.1486 0.0
C158 C 0.72508 0.29357 0.14385 0.0
C159 C 0.75486 0.28694 0.23009 0.0
C160 C 0.73959 0.27824 0.28305 0.0
C161 C 0.75829 0.29428 0.33297 0.0
C162 C 0.79334 0.32089 0.32844 0.0
C163 C 0.8092 0.3309 0.27444 0.0
C164 C 0.79003 0.31267 0.22495 0.0
H165 H 0.41872 0.76465 0.8477 0.0
H166 H 0.41062 0.78635 0.67069 0.0
H167 H 0.41908 0.737 0.64035 0.0
H168 H 0.48769 0.74735 0.82665 0.0
H169 H 0.47264 0.71252 0.87784 0.0
H170 H 0.46231 0.7471 0.8867 0.0
H171 H 0.39638 0.70001 0.88987 0.0
H172 H 0.40655 0.66524 0.88154 0.0
H173 H 0.37683 0.66773 0.8325 0.0
H174 H 0.42914 0.68689 0.62881 0.0
H175 H 0.44229 0.63885 0.6362 0.0
H176 H 0.44911 0.65232 0.8203 0.0
C177 C 0.41819 0.75848 0.8027 0.0
C178 C 0.41385 0.77888 0.76134 0.0
C179 C 0.41398 0.77083 0.70277 0.0
C180 C 0.41863 0.74288 0.6852 0.0
C181 C 0.42359 0.72366 0.72681 0.0
C182 C 0.42359 0.73106 0.78432 0.0
C183 C 0.43189 0.70768 0.81978 0.0
C184 C 0.46564 0.73001 0.85479 0.0
C185 C 0.40107 0.68375 0.85818 0.0
C186 C 0.43676 0.68628 0.7731 0.0
C187 C 0.43135 0.69568 0.71993 0.0
C188 C 0.43357 0.6793 0.67014 0.0
C189 C 0.44116 0.65217 0.67479 0.0
C190 C 0.44684 0.64206 0.72877 0.0
C191 C 0.44513 0.65971 0.77849 0.0
H192 H 0.6164 0.35466 0.30201 0.0
H193 H 0.64999 0.46659 0.30518 0.0
H194 H 0.7112 0.48166 0.29227 0.0
H195 H 0.69464 0.36146 0.37039 0.0
H196 H 0.69386 0.32793 0.32357 0.0
H197 H 0.65371 0.32623 0.34183 0.0
H198 H 0.63932 0.32552 0.23452 0.0
H199 H 0.67918 0.32673 0.2168 0.0
H200 H 0.6708 0.36001 0.18981 0.0
H201 H 0.76848 0.48438 0.27515 0.0
H202 H 0.81641 0.47423 0.24627 0.0
H203 H 0.74419 0.36059 0.24605 0.0
C204 C 0.63686 0.38232 0.30156 0.0
C205 C 0.62882 0.40956 0.30568 0.0
C206 C 0.65589 0.44545 0.30269 0.0
C207 C 0.69065 0.45422 0.29557 0.0
C208 C 0.69776 0.42674 0.29061 0.0
C209 C 0.67158 0.39148 0.29304 0.0
C210 C 0.68555 0.36697 0.28035 0.0
C211 C 0.68172 0.34432 0.33214 0.0
C212 C 0.66766 0.34346 0.22719 0.0
C213 C 0.72349 0.39395 0.26952 0.0
C214 C 0.73023 0.42827 0.27689 0.0
C215 C 0.76352 0.45762 0.26921 0.0
C216 C 0.79055 0.45168 0.2529 0.0
C217 C 0.78375 0.41674 0.24321 0.0
C218 C 0.74989 0.38763 0.25225 0.0
H219 H 0.33406 0.8128 0.81037 0.0
H220 H 0.32743 0.83794 0.63484 0.0
H221 H 0.26617 0.78865 0.62969 0.0
H222 H 0.29148 0.7218 0.78463 0.0
H223 H 0.26967 0.70938 0.85218 0.0
H224 H 0.31028 0.75063 0.84632 0.0
H225 H 0.28121 0.78491 0.88606 0.0
H226 H 0.24043 0.74368 0.89232 0.0
H227 H 0.24236 0.77926 0.85201 0.0
H228 H 0.20874 0.73453 0.64031 0.0
H229 H 0.15942 0.67569 0.66232 0.0
H230 H 0.20462 0.68167 0.82895 0.0
C231 C 0.31947 0.80851 0.77136 0.0
C232 C 0.33516 0.82935 0.72313 0.0
C233 C 0.31559 0.82235 0.6723 0.0
C234 C 0.28084 0.79457 0.66912 0.0
C235 C 0.26641 0.7738 0.71693 0.0
C236 C 0.28514 0.78017 0.76696 0.0
C237 C 0.2652 0.75096 0.80924 0.0
C238 C 0.28535 0.73208 0.82393 0.0
C239 C 0.2568 0.76558 0.8631 0.0
C240 C 0.2325 0.72688 0.77477 0.0
C241 C 0.2336 0.74106 0.72213 0.0
C242 C 0.2074 0.72326 0.6815 0.0
C243 C 0.17956 0.68974 0.69445 0.0
C244 C 0.17825 0.67407 0.74736 0.0
C245 C 0.20479 0.69317 0.78845 0.0
H246 H 0.46758 0.90719 0.96622 0.0
H247 H 0.52178 0.96981 0.81964 0.0
H248 H 0.56406 0.01775 0.88394 0.0
H249 H 0.46573 0.96968 0.03994 0.0
H250 H 0.47236 0.95791 0.11006 0.0
H251 H 0.45417 0.9247 0.05451 0.0
H252 H 0.50327 0.9103 0.06982 0.0
H253 H 0.52168 0.94367 0.12598 0.0
H254 H 0.54829 0.94531 0.06691 0.0
H255 H 0.58899 0.06341 0.96021 0.0
H256 H 0.59357 0.10269 0.04038 0.0
H257 H 0.52405 0.01132 0.13929 0.0
C258 C 0.48911 0.93047 0.94756 0.0
C259 C 0.4913 0.93487 0.88795 0.0
C260 C 0.51969 0.96575 0.86515 0.0
C261 C 0.54394 -0.00695 0.90145 0.0
C262 C 0.53979 0.98872 0.96027 0.0
C263 C 0.51333 0.95785 0.98319 0.0
C264 C 0.51059 0.96186 0.04691 0.0
C265 C 0.47355 0.95306 0.06375 0.0
C266 C 0.52163 0.93892 0.07931 0.0
C267 C 0.53709 0.0009 0.0554 0.0
C268 C 0.55467 0.01556 0.00533 0.0
C269 C 0.57633 0.05208 3e-05 0.0
C270 C 0.57869 0.07421 0.04571 0.0
C271 C 0.55943 0.05978 0.09594 0.0
C272 C 0.53987 0.02273 0.10195 0.0
H273 H 0.46603 0.42689 0.40753 0.0
H274 H 0.57295 0.50813 0.37539 0.0
H275 H 0.5701 0.54517 0.45418 0.0
H276 H 0.4345 0.48918 0.45312 0.0
H277 H 0.4062 0.45815 0.5052 0.0
H278 H 0.41523 0.44215 0.43992 0.0
H279 H 0.4359 0.40675 0.49902 0.0
H280 H 0.42821 0.42355 0.56442 0.0
H281 H 0.47083 0.42994 0.55035 0.0
H282 H 0.55822 0.56779 0.54686 0.0
H283 H 0.53596 0.57852 0.63694 0.0
H284 H 0.43658 0.48176 0.60685 0.0
C285 C 0.48833 0.45316 0.41564 0.0
C286 C 0.51958 0.46502 0.38541 0.0
C287 C 0.54859 0.49908 0.39753 0.0
C288 C 0.54724 0.52004 0.44247 0.0
C289 C 0.51651 0.5066 0.47376 0.0
C290 C 0.48725 0.47433 0.45976 0.0
C291 C 0.45824 0.46449 0.50204 0.0
C292 C 0.42668 0.46345 0.47336 0.0
C293 C 0.44771 0.4291 0.53063 0.0
C294 C 0.47622 0.4954 0.54375 0.0
C295 C 0.5097 0.51957 0.52663 0.0
C296 C 0.53183 0.54935 0.56006 0.0
C297 C 0.51907 0.55502 0.61144 0.0
C298 C 0.48454 0.53093 0.62895 0.0
C299 C 0.46308 0.50065 0.59469 0.0
H300 H 0.06328 0.51829 0.91706 0.0
H301 H 0.01535 0.56985 0.83073 0.0
H302 H 0.97085 0.55054 0.90588 0.0
H303 H 0.98554 0.44272 0.96155 0.0
H304 H 0.00274 0.44036 0.02974 0.0
H305 H 0.03165 0.45972 0.9706 0.0
H306 H 0.06891 0.5174 0.03063 0.0
H307 H 0.03983 0.49827 0.08984 0.0
H308 H 0.0484 0.54002 0.06202 0.0
H309 H 0.92925 0.52207 0.98611 0.0
H310 H 0.89304 0.4857 0.06577 0.0
H311 H 0.96911 0.45485 0.10276 0.0
C312 C 0.04345 0.52558 0.91404 0.0
C313 C 0.04267 0.54547 0.86793 0.0
C314 C 0.01645 0.55465 0.86568 0.0
C315 C -0.00886 0.54391 0.90826 0.0
C316 C -0.00729 0.52443 0.95322 0.0
C317 C 0.01824 0.51544 0.95656 0.0
C318 C 0.01351 0.49354 0.00866 0.0
C319 C 0.00802 0.45691 0.99159 0.0
C320 C 0.04451 0.51351 0.05024 0.0
C321 C 0.98063 0.49059 0.03305 0.0
C322 C 0.96927 0.50891 0.00066 0.0
C323 C 0.93823 0.50821 0.01242 0.0
C324 C 0.91793 0.48767 0.05772 0.0
C325 C 0.92893 0.46846 0.09084 0.0
C326 C 0.96086 0.47032 0.07896 0.0
H327 H 0.47181 0.028 0.38487 0.0
H328 H 0.56676 0.02754 0.34561 0.0
H329 H 0.56111 -0.00434 0.43419 0.0
H330 H 0.48949 0.04651 0.53081 0.0
H331 H 0.44522 0.01891 0.55433 0.0
H332 H 0.45355 0.03756 0.4844 0.0
H333 H 0.41612 0.97492 0.43823 0.0
H334 H 0.40683 0.95615 0.50813 0.0
H335 H 0.42549 0.94058 0.45507 0.0
H336 H 0.5479 0.96803 0.52893 0.0
H337 H 0.52465 0.94061 0.62156 0.0
H338 H 0.43948 0.96107 0.60327 0.0
C339 C 0.49059 0.01994 0.39406 0.0
C340 C 0.51938 0.0295 0.35813 0.0
C341 C 0.5443 0.0199 0.37239 0.0
C342 C 0.54142 0.00205 0.42271 0.0
C343 C 0.51365 -0.00565 0.45858 0.0
C344 C 0.48839 0.00253 0.4448 0.0
C345 C 0.4623 -0.00713 0.49261 0.0
C346 C 0.46268 0.02594 0.51696 0.0
C347 C 0.4255 0.96443 0.47229 0.0
C348 C 0.47697 0.97816 0.53533 0.0
C349 C 0.5066 0.97932 0.51463 0.0
C350 C 0.52468 0.96688 0.54561 0.0
C351 C 0.51142 0.95158 0.59831 0.0
C352 C 0.48053 0.94908 0.61975 0.0
C353 C 0.46354 0.9633 0.58841 0.0
H354 H 0.42993 0.49998 0.9561 0.0
H355 H 0.51974 0.53863 0.84631 0.0
H356 H 0.5464 0.51515 0.91182 0.0
H357 H 0.47182 0.51836 0.08619 0.0
H358 H 0.44045 0.47826 0.12079 0.0
H359 H 0.4268 0.495 0.06306 0.0
H360 H 0.40208 0.43505 0.00791 0.0
H361 H 0.41506 0.4178 0.06601 0.0
H362 H 0.42982 0.41681 0.9949 0.0
H363 H 0.56656 0.49562 0.99575 0.0
H364 H 0.57547 0.47247 0.08515 0.0
H365 H 0.47024 0.44125 0.13697 0.0
C366 C 0.45477 0.50255 0.94534 0.0
C367 C 0.47289 0.52081 0.89636 0.0
C368 C 0.50543 0.52421 0.8834 0.0
C369 C 0.52077 0.51116 0.92045 0.0
C370 C 0.50269 0.49402 0.96932 0.0
C371 C 0.46994 0.4887 0.98099 0.0
C372 C 0.45621 0.4695 0.03653 0.0
C373 C 0.44838 0.49163 0.07914 0.0
C374 C 0.42388 0.4326 0.02568 0.0
C375 C 0.48712 0.4666 0.05581 0.0
C376 C 0.51364 0.48096 0.01638 0.0
C377 C 0.54571 0.48359 0.02634 0.0
C378 C 0.55061 0.47064 0.07747 0.0
C379 C 0.52347 0.4549 0.11778 0.0
C380 C 0.49129 0.45281 0.10662 0.0
H381 H 0.03215 0.55767 0.58831 0.0
H382 H 0.06242 0.47974 0.61864 0.0
H383 H 0.02633 0.44386 0.53574 0.0
H384 H 0.94078 0.49294 0.53491 0.0
H385 H 0.94315 0.5245 0.48426 0.0
H386 H 0.96625 0.53984 0.5513 0.0
H387 H 0.02335 0.57901 0.49636 0.0
H388 H 0.00086 0.56278 0.42917 0.0
H389 H 0.03817 0.55853 0.44502 0.0
H390 H -0.00473 0.42257 0.44035 0.0
H391 H 0.96263 0.41114 0.34987 0.0
H392 H 0.95226 0.50315 0.38377 0.0
C393 C 0.02973 0.53216 0.57899 0.0
C394 C 0.04926 0.52087 0.61007 0.0
C395 C 0.04673 0.48812 0.596 0.0
C396 C 0.02668 0.4679 0.54867 0.0
C397 C 0.00919 0.48082 0.5168 0.0
C398 C 0.00968 0.51168 0.53244 0.0
C399 C 0.99044 0.52102 0.48954 0.0
C400 C 0.95823 0.51946 0.51661 0.0
C401 C 0.01467 0.55749 0.46351 0.0
C402 C 0.98008 0.49134 0.44611 0.0
C403 C -0.00886 0.46843 0.46245 0.0
C404 C 0.98594 0.43996 0.4277 0.0
C405 C 0.96775 0.43396 0.37604 0.0
C406 C 0.9549 0.45627 0.35978 0.0
C407 C 0.96174 0.48563 0.39499 0.0
loop_
_geom_bond_atom_site_label_1
_geom_bond_atom_site_label_2
_geom_bond_distance
_geom_bond_site_symmetry_2
_ccdc_geom_bond_type
Co0 O1 2.216 . S
Co0 O2 2.091 . S
Co0 O4 2.004 . S
Co0 O10 2.021 . S
Co0 O12 2.137 . S
Co0 O13 2.244 . S
O1 Co0 2.216 . S
O1 C8 1.247 . S
O2 Co0 2.091 . S
O2 C8 1.261 . S
C3 O12 1.247 . S
C3 O13 1.272 . S
O4 Co0 2.004 . S
O4 C9 1.259 . S
Co5 O6 2.061 . S
Co5 O11 2.052 . S
Co5 O13 2.135 . S
O6 Co5 2.061 . S
O6 C9 1.235 . S
C7 O10 1.238 . S
C7 O11 1.241 . S
C8 O1 1.247 . S
C8 O2 1.261 . S
C9 O4 1.259 . S
C9 O6 1.235 . S
O10 Co0 2.021 . S
O10 C7 1.238 . S
O11 Co5 2.052 . S
O11 C7 1.241 . S
O12 Co0 2.137 . S
O12 C3 1.247 . S
O13 Co0 2.244 . S
O13 C3 1.272 . S
O13 Co5 2.135 . S
Co14 O15 2.216 . S
Co14 O16 2.091 . S
Co14 O18 2.004 . S
Co14 O24 2.021 . S
Co14 O26 2.137 . S
Co14 O27 2.244 . S
O15 Co14 2.216 . S
O15 C22 1.247 . S
O16 Co14 2.091 . S
O16 C22 1.261 . S
C17 O26 1.247 . S
C17 O27 1.272 . S
O18 Co14 2.004 . S
O18 C23 1.259 . S
Co19 O20 2.061 . S
Co19 O25 2.052 . S
Co19 O27 2.135 . S
O20 Co19 2.061 . S
O20 C23 1.235 . S
C21 O24 1.238 . S
C21 O25 1.241 . S
C22 O15 1.247 . S
C22 O16 1.261 . S
C23 O18 1.259 . S
C23 O20 1.235 . S
O24 Co14 2.021 . S
O24 C21 1.238 . S
O25 Co19 2.052 . S
O25 C21 1.241 . S
O26 Co14 2.137 . S
O26 C17 1.247 . S
O27 Co14 2.244 . S
O27 C17 1.272 . S
O27 Co19 2.135 . S
Co28 O29 2.216 . S
Co28 O30 2.091 . S
Co28 O32 2.004 . S
Co28 O38 2.021 . S
Co28 O40 2.137 . S
Co28 O41 2.244 . S
O29 Co28 2.216 . S
O29 C36 1.247 . S
O30 Co28 2.091 . S
O30 C36 1.261 . S
C31 O40 1.247 . S
C31 O41 1.272 . S
O32 Co28 2.004 . S
O32 C37 1.259 . S
Co33 O34 2.061 . S
Co33 O39 2.052 . S
Co33 O41 2.135 . S
O34 Co33 2.061 . S
O34 C37 1.235 . S
C35 O38 1.238 . S
C35 O39 1.241 . S
C36 O29 1.247 . S
C36 O30 1.261 . S
C37 O32 1.259 . S
C37 O34 1.235 . S
O38 Co28 2.021 . S
O38 C35 1.238 . S
O39 Co33 2.052 . S
O39 C35 1.241 . S
O40 Co28 2.137 . S
O40 C31 1.247 . S
O41 Co28 2.244 . S
O41 C31 1.272 . S
O41 Co33 2.135 . S
Co42 O43 2.216 . S
Co42 O44 2.091 . S
Co42 O46 2.004 . S
Co42 O52 2.021 . S
Co42 O54 2.137 . S
Co42 O55 2.244 . S
O43 Co42 2.216 . S
O43 C50 1.247 . S
O44 Co42 2.091 . S
O44 C50 1.261 . S
C45 O54 1.247 . S
C45 O55 1.272 . S
O46 Co42 2.004 . S
O46 C51 1.259 . S
Co47 O48 2.061 . S
Co47 O53 2.052 . S
Co47 O55 2.135 . S
O48 Co47 2.061 . S
O48 C51 1.235 . S
C49 O52 1.238 . S
C49 O53 1.241 . S
C50 O43 1.247 . S
C50 O44 1.261 . S
C51 O46 1.259 . S
C51 O48 1.235 . S
O52 Co42 2.021 . S
O52 C49 1.238 . S
O53 Co47 2.052 . S
O53 C49 1.241 . S
O54 Co42 2.137 . S
O54 C45 1.247 . S
O55 Co42 2.244 . S
O55 C45 1.272 . S
O55 Co47 2.135 . S
Co56 O57 2.216 . S
Co56 O58 2.091 . S
Co56 O60 2.004 . S
Co56 O66 2.021 . S
Co56 O68 2.137 . S
Co56 O69 2.244 . S
O57 Co56 2.216 . S
O57 C64 1.247 . S
O58 Co56 2.091 . S
O58 C64 1.261 . S
C59 O68 1.247 . S
C59 O69 1.272 . S
O60 Co56 2.004 . S
O60 C65 1.259 . S
Co61 O62 2.061 . S
Co61 O67 2.052 . S
Co61 O69 2.135 . S
O62 Co61 2.061 . S
O62 C65 1.235 . S
C63 O66 1.238 . S
C63 O67 1.241 . S
C64 O57 1.247 . S
C64 O58 1.261 . S
C65 O60 1.259 . S
C65 O62 1.235 . S
O66 Co56 2.021 . S
O66 C63 1.238 . S
O67 Co61 2.052 . S
O67 C63 1.241 . S
O68 Co56 2.137 . S
O68 C59 1.247 . S
O69 Co56 2.244 . S
O69 C59 1.272 . S
O69 Co61 2.135 . S
Co70 O71 2.216 . S
Co70 O72 2.091 . S
Co70 O74 2.004 . S
Co70 O80 2.021 . S
Co70 O82 2.137 . S
Co70 O83 2.244 . S
O71 Co70 2.216 . S
O71 C78 1.247 . S
O72 Co70 2.091 . S
O72 C78 1.261 . S
C73 O82 1.247 . S
C73 O83 1.272 . S
O74 Co70 2.004 . S
O74 C79 1.259 . S
Co75 O76 2.061 . S
Co75 O81 2.052 . S
Co75 O83 2.135 . S
O76 Co75 2.061 . S
O76 C79 1.235 . S
C77 O80 1.238 . S
C77 O81 1.241 . S
C78 O71 1.247 . S
C78 O72 1.261 . S
C79 O74 1.259 . S
C79 O76 1.235 . S
O80 Co70 2.021 . S
O80 C77 1.238 . S
O81 Co75 2.052 . S
O81 C77 1.241 . S
O82 Co70 2.137 . S
O82 C73 1.247 . S
O83 Co70 2.244 . S
O83 C73 1.272 . S
O83 Co75 2.135 . S
H84 C96 0.930 . S
H85 C98 0.930 . S
H86 C99 0.930 . S
H87 C103 0.959 . S
H88 C103 0.959 . S
H89 C103 0.961 . S
H90 C104 0.960 . S
H91 C104 0.961 . S
H92 C104 0.959 . S
H93 C107 0.929 . S
H94 C108 0.931 . S
H95 C110 0.930 . S
C96 H84 0.930 . S
C96 C97 1.399 . S
C96 C101 1.399 . S
C97 C96 1.399 . S
C97 C98 1.376 . S
C98 H85 0.930 . S
C98 C97 1.376 . S
C98 C99 1.388 . S
C99 H86 0.930 . S
C99 C98 1.388 . S
C99 C100 1.390 . S
C100 C99 1.390 . S
C100 C101 1.394 . S
C100 C106 1.465 . S
C101 C96 1.399 . S
C101 C100 1.394 . S
C101 C102 1.516 . S
C102 C101 1.516 . S
C102 C103 1.502 . S
C102 C104 1.561 . S
C102 C105 1.526 . S
C103 H87 0.959 . S
C103 H88 0.959 . S
C103 H89 0.961 . S
C103 C102 1.502 . S
C104 H90 0.960 . S
C104 H91 0.961 . S
C104 H92 0.959 . S
C104 C102 1.561 . S
C105 C102 1.526 . S
C105 C106 1.396 . S
C105 C110 1.390 . S
C106 C100 1.465 . S
C106 C105 1.396 . S
C106 C107 1.399 . S
C107 H93 0.929 . S
C107 C106 1.399 . S
C107 C108 1.385 . S
C108 H94 0.931 . S
C108 C107 1.385 . S
C108 C109 1.389 . S
C109 C108 1.389 . S
C109 C110 1.387 . S
C110 H95 0.930 . S
C110 C105 1.390 . S
C110 C109 1.387 . S
H111 C123 0.930 . S
H112 C125 0.930 . S
H113 C126 0.930 . S
H114 C130 0.959 . S
H115 C130 0.959 . S
H116 C130 0.961 . S
H117 C131 0.960 . S
H118 C131 0.961 . S
H119 C131 0.959 . S
H120 C134 0.929 . S
H121 C135 0.931 . S
H122 C137 0.930 . S
C123 H111 0.930 . S
C123 C124 1.399 . S
C123 C128 1.399 . S
C124 C123 1.399 . S
C124 C125 1.376 . S
C125 H112 0.930 . S
C125 C124 1.376 . S
C125 C126 1.388 . S
C126 H113 0.930 . S
C126 C125 1.388 . S
C126 C127 1.390 . S
C127 C126 1.390 . S
C127 C128 1.394 . S
C127 C133 1.465 . S
C128 C123 1.399 . S
C128 C127 1.394 . S
C128 C129 1.516 . S
C129 C128 1.516 . S
C129 C130 1.502 . S
C129 C131 1.561 . S
C129 C132 1.526 . S
C130 H114 0.959 . S
C130 H115 0.959 . S
C130 H116 0.961 . S
C130 C129 1.502 . S
C131 H117 0.960 . S
C131 H118 0.961 . S
C131 H119 0.959 . S
C131 C129 1.561 . S
C132 C129 1.526 . S
C132 C133 1.396 . S
C132 C137 1.390 . S
C133 C127 1.465 . S
C133 C132 1.396 . S
C133 C134 1.399 . S
C134 H120 0.929 . S
C134 C133 1.399 . S
C134 C135 1.385 . S
C135 H121 0.931 . S
C135 C134 1.385 . S
C135 C136 1.389 . S
C136 C135 1.389 . S
C136 C137 1.387 . S
C137 H122 0.930 . S
C137 C132 1.390 . S
C137 C136 1.387 . S
H138 C150 0.930 . S
H139 C152 0.930 . S
H140 C153 0.930 . S
H141 C157 0.959 . S
H142 C157 0.959 . S
H143 C157 0.961 . S
H144 C158 0.960 . S
H145 C158 0.961 . S
H146 C158 0.959 . S
H147 C161 0.929 . S
H148 C162 0.931 . S
H149 C164 0.930 . S
C150 H138 0.930 . S
C150 C151 1.399 . S
C150 C155 1.399 . S
C151 C150 1.399 . S
C151 C152 1.376 . S
C152 H139 0.930 . S
C152 C151 1.376 . S
C152 C153 1.388 . S
C153 H140 0.930 . S
C153 C152 1.388 . S
C153 C154 1.390 . S
C154 C153 1.390 . S
C154 C155 1.394 . S
C154 C160 1.465 . S
C155 C150 1.399 . S
C155 C154 1.394 . S
C155 C156 1.516 . S
C156 C155 1.516 . S
C156 C157 1.502 . S
C156 C158 1.561 . S
C156 C159 1.526 . S
C157 H141 0.959 . S
C157 H142 0.959 . S
C157 H143 0.961 . S
C157 C156 1.502 . S
C158 H144 0.960 . S
C158 H145 0.961 . S
C158 H146 0.959 . S
C158 C156 1.561 . S
C159 C156 1.526 . S
C159 C160 1.396 . S
C159 C164 1.390 . S
C160 C154 1.465 . S
C160 C159 1.396 . S
C160 C161 1.399 . S
C161 H147 0.929 . S
C161 C160 1.399 . S
C161 C162 1.385 . S
C162 H148 0.931 . S
C162 C161 1.385 . S
C162 C163 1.389 . S
C163 C162 1.389 . S
C163 C164 1.387 . S
C164 H149 0.930 . S
C164 C159 1.390 . S
C164 C163 1.387 . S
H165 C177 0.930 . S
H166 C179 0.930 . S
H167 C180 0.930 . S
H168 C184 0.959 . S
H169 C184 0.959 . S
H170 C184 0.961 . S
H171 C185 0.960 . S
H172 C185 0.961 . S
H173 C185 0.959 . S
H174 C188 0.929 . S
H175 C189 0.931 . S
H176 C191 0.930 . S
C177 H165 0.930 . S
C177 C178 1.399 . S
C177 C182 1.399 . S
C178 C177 1.399 . S
C178 C179 1.376 . S
C179 H166 0.930 . S
C179 C178 1.376 . S
C179 C180 1.388 . S
C180 H167 0.930 . S
C180 C179 1.388 . S
C180 C181 1.390 . S
C181 C180 1.390 . S
C181 C182 1.394 . S
C181 C187 1.465 . S
C182 C177 1.399 . S
C182 C181 1.394 . S
C182 C183 1.516 . S
C183 C182 1.516 . S
C183 C184 1.502 . S
C183 C185 1.561 . S
C183 C186 1.526 . S
C184 H168 0.959 . S
C184 H169 0.959 . S
C184 H170 0.961 . S
C184 C183 1.502 . S
C185 H171 0.960 . S
C185 H172 0.961 . S
C185 H173 0.959 . S
C185 C183 1.561 . S
C186 C183 1.526 . S
C186 C187 1.396 . S
C186 C191 1.390 . S
C187 C181 1.465 . S
C187 C186 1.396 . S
C187 C188 1.399 . S
C188 H174 0.929 . S
C188 C187 1.399 . S
C188 C189 1.385 . S
C189 H175 0.931 . S
C189 C188 1.385 . S
C189 C190 1.389 . S
C190 C189 1.389 . S
C190 C191 1.387 . S
C191 H176 0.930 . S
C191 C186 1.390 . S
C191 C190 1.387 . S
H192 C204 0.930 . S
H193 C206 0.930 . S
H194 C207 0.930 . S
H195 C211 0.959 . S
H196 C211 0.959 . S
H197 C211 0.961 . S
H198 C212 0.960 . S
H199 C212 0.961 . S
H200 C212 0.959 . S
H201 C215 0.929 . S
H202 C216 0.931 . S
H203 C218 0.930 . S
C204 H192 0.930 . S
C204 C205 1.399 . S
C204 C209 1.399 . S
C205 C204 1.399 . S
C205 C206 1.376 . S
C206 H193 0.930 . S
C206 C205 1.376 . S
C206 C207 1.388 . S
C207 H194 0.930 . S
C207 C206 1.388 . S
C207 C208 1.390 . S
C208 C207 1.390 . S
C208 C209 1.394 . S
C208 C214 1.465 . S
C209 C204 1.399 . S
C209 C208 1.394 . S
C209 C210 1.516 . S
C210 C209 1.516 . S
C210 C211 1.502 . S
C210 C212 1.561 . S
C210 C213 1.526 . S
C211 H195 0.959 . S
C211 H196 0.959 . S
C211 H197 0.961 . S
C211 C210 1.502 . S
C212 H198 0.960 . S
C212 H199 0.961 . S
C212 H200 0.959 . S
C212 C210 1.561 . S
C213 C210 1.526 . S
C213 C214 1.396 . S
C213 C218 1.390 . S
C214 C208 1.465 . S
C214 C213 1.396 . S
C214 C215 1.399 . S
C215 H201 0.929 . S
C215 C214 1.399 . S
C215 C216 1.385 . S
C216 H202 0.931 . S
C216 C215 1.385 . S
C216 C217 1.389 . S
C217 C216 1.389 . S
C217 C218 1.387 . S
C218 H203 0.930 . S
C218 C213 1.390 . S
C218 C217 1.387 . S
H219 C231 0.930 . S
H220 C233 0.930 . S
H221 C234 0.930 . S
H222 C238 0.959 . S
H223 C238 0.959 . S
H224 C238 0.961 . S
H225 C239 0.960 . S
H226 C239 0.961 . S
H227 C239 0.959 . S
H228 C242 0.929 . S
H229 C243 0.931 . S
H230 C245 0.930 . S
C231 H219 0.930 . S
C231 C232 1.399 . S
C231 C236 1.399 . S
C232 C231 1.399 . S
C232 C233 1.376 . S
C233 H220 0.930 . S
C233 C232 1.376 . S
C233 C234 1.388 . S
C234 H221 0.930 . S
C234 C233 1.388 . S
C234 C235 1.390 . S
C235 C234 1.390 . S
C235 C236 1.394 . S
C235 C241 1.465 . S
C236 C231 1.399 . S
C236 C235 1.394 . S
C236 C237 1.516 . S
C237 C236 1.516 . S
C237 C238 1.502 . S
C237 C239 1.561 . S
C237 C240 1.526 . S
C238 H222 0.959 . S
C238 H223 0.959 . S
C238 H224 0.961 . S
C238 C237 1.502 . S
C239 H225 0.960 . S
C239 H226 0.961 . S
C239 H227 0.959 . S
C239 C237 1.561 . S
C240 C237 1.526 . S
C240 C241 1.396 . S
C240 C245 1.390 . S
C241 C235 1.465 . S
C241 C240 1.396 . S
C241 C242 1.399 . S
C242 H228 0.929 . S
C242 C241 1.399 . S
C242 C243 1.385 . S
C243 H229 0.931 . S
C243 C242 1.385 . S
C243 C244 1.389 . S
C244 C243 1.389 . S
C244 C245 1.387 . S
C245 H230 0.930 . S
C245 C240 1.390 . S
C245 C244 1.387 . S
H246 C258 0.930 . S
H247 C260 0.930 . S
H248 C261 0.930 . S
H249 C265 0.959 . S
H250 C265 0.959 . S
H251 C265 0.961 . S
H252 C266 0.960 . S
H253 C266 0.961 . S
H254 C266 0.959 . S
H255 C269 0.929 1_556 S
H256 C270 0.931 . S
H257 C272 0.930 . S
C258 H246 0.930 . S
C258 C259 1.399 . S
C258 C263 1.399 . S
C259 C258 1.399 . S
C259 C260 1.376 . S
C260 H247 0.930 . S
C260 C259 1.376 . S
C260 C261 1.388 1_565 S
C261 H248 0.930 . S
C261 C260 1.388 1_545 S
C261 C262 1.390 . S
C262 C261 1.390 . S
C262 C263 1.394 1_545 S
C262 C268 1.465 1_556 S
C263 C258 1.399 . S
C263 C262 1.394 1_565 S
C263 C264 1.516 1_556 S
C264 C263 1.516 1_554 S
C264 C265 1.502 . S
C264 C266 1.561 . S
C264 C267 1.526 1_565 S
C265 H249 0.959 . S
C265 H250 0.959 . S
C265 H251 0.961 . S
C265 C264 1.502 . S
C266 H252 0.960 . S
C266 H253 0.961 . S
C266 H254 0.959 . S
C266 C264 1.561 . S
C267 C264 1.526 1_545 S
C267 C268 1.396 . S
C267 C272 1.390 . S
C268 C262 1.465 1_554 S
C268 C267 1.396 . S
C268 C269 1.399 . S
C269 H255 0.929 1_554 S
C269 C268 1.399 . S
C269 C270 1.385 . S
C270 H256 0.931 . S
C270 C269 1.385 . S
C270 C271 1.389 . S
C271 C270 1.389 . S
C271 C272 1.387 . S
C272 H257 0.930 . S
C272 C267 1.390 . S
C272 C271 1.387 . S
H273 C285 0.930 . S
H274 C287 0.930 . S
H275 C288 0.930 . S
H276 C292 0.959 . S
H277 C292 0.959 . S
H278 C292 0.961 . S
H279 C293 0.960 . S
H280 C293 0.961 . S
H281 C293 0.959 . S
H282 C296 0.929 . S
H283 C297 0.931 . S
H284 C299 0.930 . S
C285 H273 0.930 . S
C285 C286 1.399 . S
C285 C290 1.399 . S
C286 C285 1.399 . S
C286 C287 1.376 . S
C287 H274 0.930 . S
C287 C286 1.376 . S
C287 C288 1.388 . S
C288 H275 0.930 . S
C288 C287 1.388 . S
C288 C289 1.390 . S
C289 C288 1.390 . S
C289 C290 1.394 . S
C289 C295 1.465 . S
C290 C285 1.399 . S
C290 C289 1.394 . S
C290 C291 1.516 . S
C291 C290 1.516 . S
C291 C292 1.502 . S
C291 C293 1.561 . S
C291 C294 1.526 . S
C292 H276 0.959 . S
C292 H277 0.959 . S
C292 H278 0.961 . S
C292 C291 1.502 . S
C293 H279 0.960 . S
C293 H280 0.961 . S
C293 H281 0.959 . S
C293 C291 1.561 . S
C294 C291 1.526 . S
C294 C295 1.396 . S
C294 C299 1.390 . S
C295 C289 1.465 . S
C295 C294 1.396 . S
C295 C296 1.399 . S
C296 H282 0.929 . S
C296 C295 1.399 . S
C296 C297 1.385 . S
C297 H283 0.931 . S
C297 C296 1.385 . S
C297 C298 1.389 . S
C298 C297 1.389 . S
C298 C299 1.387 . S
C299 H284 0.930 . S
C299 C294 1.390 . S
C299 C298 1.387 . S
H300 C312 0.930 . S
H301 C314 0.930 . S
H302 C315 0.930 . S
H303 C319 0.959 . S
H304 C319 0.959 . S
H305 C319 0.961 . S
H306 C320 0.960 . S
H307 C320 0.961 . S
H308 C320 0.959 . S
H309 C323 0.929 1_556 S
H310 C324 0.931 . S
H311 C326 0.930 . S
C312 H300 0.930 . S
C312 C313 1.399 . S
C312 C317 1.399 . S
C313 C312 1.399 . S
C313 C314 1.376 . S
C314 H301 0.930 . S
C314 C313 1.376 . S
C314 C315 1.388 1_455 S
C315 H302 0.930 . S
C315 C314 1.388 1_655 S
C315 C316 1.390 . S
C316 C315 1.390 . S
C316 C317 1.394 1_655 S
C316 C322 1.465 1_556 S
C317 C312 1.399 . S
C317 C316 1.394 1_455 S
C317 C318 1.516 1_556 S
C318 C317 1.516 1_554 S
C318 C319 1.502 . S
C318 C320 1.561 . S
C318 C321 1.526 1_455 S
C319 H303 0.959 . S
C319 H304 0.959 . S
C319 H305 0.961 . S
C319 C318 1.502 . S
C320 H306 0.960 . S
C320 H307 0.961 . S
C320 H308 0.959 . S
C320 C318 1.561 . S
C321 C318 1.526 1_655 S
C321 C322 1.396 . S
C321 C326 1.390 . S
C322 C316 1.465 1_554 S
C322 C321 1.396 . S
C322 C323 1.399 . S
C323 H309 0.929 1_554 S
C323 C322 1.399 . S
C323 C324 1.385 . S
C324 H310 0.931 . S
C324 C323 1.385 . S
C324 C325 1.389 . S
C325 C324 1.389 . S
C325 C326 1.387 . S
C326 H311 0.930 . S
C326 C321 1.390 . S
C326 C325 1.387 . S
H327 C339 0.930 . S
H328 C341 0.930 . S
H329 C342 0.930 . S
H330 C346 0.959 . S
H331 C346 0.959 . S
H332 C346 0.961 . S
H333 C347 0.960 . S
H334 C347 0.961 . S
H335 C347 0.959 1_565 S
H336 C350 0.929 . S
H337 C351 0.931 . S
H338 C353 0.930 . S
C339 H327 0.930 . S
C339 C340 1.399 . S
C339 C344 1.399 . S
C340 C339 1.399 . S
C340 C341 1.376 . S
C341 H328 0.930 . S
C341 C340 1.376 . S
C341 C342 1.388 1_545 S
C342 H329 0.930 . S
C342 C341 1.388 1_565 S
C342 C343 1.390 . S
C343 C342 1.390 . S
C343 C344 1.394 1_565 S
C343 C349 1.465 . S
C344 C339 1.399 . S
C344 C343 1.394 1_545 S
C344 C345 1.516 . S
C345 C344 1.516 . S
C345 C346 1.502 . S
C345 C347 1.561 . S
C345 C348 1.526 1_545 S
C346 H330 0.959 . S
C346 H331 0.959 . S
C346 H332 0.961 . S
C346 C345 1.502 . S
C347 H333 0.960 . S
C347 H334 0.961 . S
C347 H335 0.959 1_545 S
C347 C345 1.561 . S
C348 C345 1.526 1_565 S
C348 C349 1.396 . S
C348 C353 1.390 . S
C349 C343 1.465 . S
C349 C348 1.396 . S
C349 C350 1.399 . S
C350 H336 0.929 . S
C350 C349 1.399 . S
C350 C351 1.385 . S
C351 H337 0.931 . S
C351 C350 1.385 . S
C351 C352 1.389 . S
C352 C351 1.389 . S
C352 C353 1.387 . S
C353 H338 0.930 . S
C353 C348 1.390 . S
C353 C352 1.387 . S
H354 C366 0.930 . S
H355 C368 0.930 . S
H356 C369 0.930 . S
H357 C373 0.959 . S
H358 C373 0.959 . S
H359 C373 0.961 1_556 S
H360 C374 0.960 . S
H361 C374 0.961 . S
H362 C374 0.959 . S
H363 C377 0.929 . S
H364 C378 0.931 . S
H365 C380 0.930 . S
C366 H354 0.930 . S
C366 C367 1.399 . S
C366 C371 1.399 . S
C367 C366 1.399 . S
C367 C368 1.376 . S
C368 H355 0.930 . S
C368 C367 1.376 . S
C368 C369 1.388 . S
C369 H356 0.930 . S
C369 C368 1.388 . S
C369 C370 1.390 . S
C370 C369 1.390 . S
C370 C371 1.394 . S
C370 C376 1.465 1_556 S
C371 C366 1.399 . S
C371 C370 1.394 . S
C371 C372 1.516 . S
C372 C371 1.516 . S
C372 C373 1.502 1_556 S
C372 C374 1.561 . S
C372 C375 1.526 1_556 S
C373 H357 0.959 . S
C373 H358 0.959 . S
C373 H359 0.961 1_554 S
C373 C372 1.502 1_554 S
C374 H360 0.960 . S
C374 H361 0.961 . S
C374 H362 0.959 . S
C374 C372 1.561 . S
C375 C372 1.526 1_554 S
C375 C376 1.396 . S
C375 C380 1.390 . S
C376 C370 1.465 1_554 S
C376 C375 1.396 . S
C376 C377 1.399 . S
C377 H363 0.929 . S
C377 C376 1.399 . S
C377 C378 1.385 . S
C378 H364 0.931 . S
C378 C377 1.385 . S
C378 C379 1.389 . S
C379 C378 1.389 . S
C379 C380 1.387 . S
C380 H365 0.930 . S
C380 C375 1.390 . S
C380 C379 1.387 . S
H381 C393 0.930 . S
H382 C395 0.930 . S
H383 C396 0.930 . S
H384 C400 0.959 . S
H385 C400 0.959 . S
H386 C400 0.961 . S
H387 C401 0.960 . S
H388 C401 0.961 . S
H389 C401 0.959 . S
H390 C404 0.929 . S
H391 C405 0.931 . S
H392 C407 0.930 . S
C393 H381 0.930 . S
C393 C394 1.399 . S
C393 C398 1.399 . S
C394 C393 1.399 . S
C394 C395 1.376 . S
C395 H382 0.930 . S
C395 C394 1.376 . S
C395 C396 1.388 . S
C396 H383 0.930 . S
C396 C395 1.388 . S
C396 C397 1.390 . S
C397 C396 1.390 . S
C397 C398 1.394 . S
C397 C403 1.465 1_455 S
C398 C393 1.399 . S
C398 C397 1.394 . S
C398 C399 1.516 . S
C399 C398 1.516 . S
C399 C400 1.502 1_455 S
C399 C401 1.561 . S
C399 C402 1.526 1_455 S
C400 H384 0.959 . S
C400 H385 0.959 . S
C400 H386 0.961 . S
C400 C399 1.502 1_655 S
C401 H387 0.960 . S
C401 H388 0.961 . S
C401 H389 0.959 . S
C401 C399 1.561 . S
C402 C399 1.526 1_655 S
C402 C403 1.396 . S
C402 C407 1.390 . S
C403 C397 1.465 1_655 S
C403 C402 1.396 . S
C403 C404 1.399 . S
C404 H390 0.929 . S
C404 C403 1.399 . S
C404 C405 1.385 . S
C405 H391 0.931 . S
C405 C404 1.385 . S
C405 C406 1.389 . S
C406 C405 1.389 . S
C406 C407 1.387 . S
C407 H392 0.930 . S
C407 C402 1.390 . S
C407 C406 1.387 . S
C97 C3 1.127 . S
C109 C59 1.078 . S
C124 C23 1.083 . S
C136 C79 1.096 . S
C151 C9 1.019 . S
C163 C31 1.075 . S
C178 C51 1.030 . S
C190 C17 1.093 . S
C205 C65 1.083 . S
C217 C37 1.095 . S
C232 C45 1.129 . S
C244 C73 1.110 . S
C259 C49 1.393 . S
C271 C7 1.330 . S
C286 C63 1.358 . S
C298 C22 1.392 . S
C313 C78 1.401 . S
C325 C35 1.322 . S
C340 C8 1.423 . S
C352 C50 1.393 . S
C367 C21 1.355 . S
C379 C64 1.371 . S
C394 C77 1.338 . S
C406 C36 1.399 . S
