# Generated by pormake.
# Topology uml, (4)-cn, num edge types: 1
# Building blocks:
#     Node 0, Type 0, BuildingBlock: GALJAG_clean_sbu_0, # of connection points: 4
#     Node 1, Type 0, BuildingBlock: GALJAG_clean_sbu_0, # of connection points: 4
#     Node 2, Type 0, BuildingBlock: GALJAG_clean_sbu_0, # of connection points: 4
#     Node 3, Type 0, BuildingBlock: GALJAG_clean_sbu_0, # of connection points: 4
#     Node 4, Type 0, BuildingBlock: GALJAG_clean_sbu_0, # of connection points: 4
#     Node 5, Type 0, BuildingBlock: GALJAG_clean_sbu_0, # of connection points: 4
#     Node 6, Type 0, BuildingBlock: GALJAG_clean_sbu_0, # of connection points: 4
#     Node 7, Type 0, BuildingBlock: GALJAG_clean_sbu_0, # of connection points: 4
#     Node 8, Type 0, BuildingBlock: GALJAG_clean_sbu_0, # of connection points: 4
#     Node 9, Type 0, BuildingBlock: GALJAG_clean_sbu_0, # of connection points: 4
#     Node 10, Type 0, BuildingBlock: GALJAG_clean_sbu_0, # of connection points: 4
#     Node 11, Type 0, BuildingBlock: GALJAG_clean_sbu_0, # of connection points: 4
#     Node 12, Type 0, BuildingBlock: GALJAG_clean_sbu_0, # of connection points: 4
#     Node 13, Type 0, BuildingBlock: GALJAG_clean_sbu_0, # of connection points: 4
#     Node 14, Type 0, BuildingBlock: GALJAG_clean_sbu_0, # of connection points: 4
#     Node 15, Type 0, BuildingBlock: GALJAG_clean_sbu_0, # of connection points: 4
#     Node 16, Type 0, BuildingBlock: GALJAG_clean_sbu_0, # of connection points: 4
#     Node 17, Type 0, BuildingBlock: GALJAG_clean_sbu_0, # of connection points: 4
#     Node 18, Type 0, BuildingBlock: GALJAG_clean_sbu_0, # of connection points: 4
#     Node 19, Type 0, BuildingBlock: GALJAG_clean_sbu_0, # of connection points: 4
#     Node 20, Type 0, BuildingBlock: GALJAG_clean_sbu_0, # of connection points: 4
#     Node 21, Type 0, BuildingBlock: GALJAG_clean_sbu_0, # of connection points: 4
#     Node 22, Type 0, BuildingBlock: GALJAG_clean_sbu_0, # of connection points: 4
#     Node 23, Type 0, BuildingBlock: GALJAG_clean_sbu_0, # of connection points: 4
#     Node 24, Type 0, BuildingBlock: GALJAG_clean_sbu_0, # of connection points: 4
#     Node 25, Type 0, BuildingBlock: GALJAG_clean_sbu_0, # of connection points: 4
#     Node 26, Type 0, BuildingBlock: GALJAG_clean_sbu_0, # of connection points: 4
#     Node 27, Type 0, BuildingBlock: GALJAG_clean_sbu_0, # of connection points: 4
#     Node 28, Type 0, BuildingBlock: GALJAG_clean_sbu_0, # of connection points: 4
#     Node 29, Type 0, BuildingBlock: GALJAG_clean_sbu_0, # of connection points: 4
#     Node 30, Type 0, BuildingBlock: GALJAG_clean_sbu_0, # of connection points: 4
#     Node 31, Type 0, BuildingBlock: GALJAG_clean_sbu_0, # of connection points: 4
#     Node 32, Type 0, BuildingBlock: GALJAG_clean_sbu_0, # of connection points: 4
#     Node 33, Type 0, BuildingBlock: GALJAG_clean_sbu_0, # of connection points: 4
#     Node 34, Type 0, BuildingBlock: GALJAG_clean_sbu_0, # of connection points: 4
#     Node 35, Type 0, BuildingBlock: GALJAG_clean_sbu_0, # of connection points: 4
#     Edge 36, Type (0, 0), BuildingBlock: UVAHIK_clean_linker_0, # of connection points: 2
#     Edge 37, Type (0, 0), BuildingBlock: UVAHIK_clean_linker_0, # of connection points: 2
#     Edge 38, Type (0, 0), BuildingBlock: UVAHIK_clean_linker_0, # of connection points: 2
#     Edge 39, Type (0, 0), BuildingBlock: UVAHIK_clean_linker_0, # of connection points: 2
#     Edge 40, Type (0, 0), BuildingBlock: UVAHIK_clean_linker_0, # of connection points: 2
#     Edge 41, Type (0, 0), BuildingBlock: UVAHIK_clean_linker_0, # of connection points: 2
#     Edge 42, Type (0, 0), BuildingBlock: UVAHIK_clean_linker_0, # of connection points: 2
#     Edge 43, Type (0, 0), BuildingBlock: UVAHIK_clean_linker_0, # of connection points: 2
#     Edge 44, Type (0, 0), BuildingBlock: UVAHIK_clean_linker_0, # of connection points: 2
#     Edge 45, Type (0, 0), BuildingBlock: UVAHIK_clean_linker_0, # of connection points: 2
#     Edge 46, Type (0, 0), BuildingBlock: UVAHIK_clean_linker_0, # of connection points: 2
#     Edge 47, Type (0, 0), BuildingBlock: UVAHIK_clean_linker_0, # of connection points: 2
#     Edge 48, Type (0, 0), BuildingBlock: UVAHIK_clean_linker_0, # of connection points: 2
#     Edge 49, Type (0, 0), BuildingBlock: UVAHIK_clean_linker_0, # of connection points: 2
#     Edge 50, Type (0, 0), BuildingBlock: UVAHIK_clean_linker_0, # of connection points: 2
#     Edge 51, Type (0, 0), BuildingBlock: UVAHIK_clean_linker_0, # of connection points: 2
#     Edge 52, Type (0, 0), BuildingBlock: UVAHIK_clean_linker_0, # of connection points: 2
#     Edge 53, Type (0, 0), BuildingBlock: UVAHIK_clean_linker_0, # of connection points: 2
#     Edge 54, Type (0, 0), BuildingBlock: UVAHIK_clean_linker_0, # of connection points: 2
#     Edge 55, Type (0, 0), BuildingBlock: UVAHIK_clean_linker_0, # of connection points: 2
#     Edge 56, Type (0, 0), BuildingBlock: UVAHIK_clean_linker_0, # of connection points: 2
#     Edge 57, Type (0, 0), BuildingBlock: UVAHIK_clean_linker_0, # of connection points: 2
#     Edge 58, Type (0, 0), BuildingBlock: UVAHIK_clean_linker_0, # of connection points: 2
#     Edge 59, Type (0, 0), BuildingBlock: UVAHIK_clean_linker_0, # of connection points: 2
#     Edge 60, Type (0, 0), BuildingBlock: UVAHIK_clean_linker_0, # of connection points: 2
#     Edge 61, Type (0, 0), BuildingBlock: UVAHIK_clean_linker_0, # of connection points: 2
#     Edge 62, Type (0, 0), BuildingBlock: UVAHIK_clean_linker_0, # of connection points: 2
#     Edge 63, Type (0, 0), BuildingBlock: UVAHIK_clean_linker_0, # of connection points: 2
#     Edge 64, Type (0, 0), BuildingBlock: UVAHIK_clean_linker_0, # of connection points: 2
#     Edge 65, Type (0, 0), BuildingBlock: UVAHIK_clean_linker_0, # of connection points: 2
#     Edge 66, Type (0, 0), BuildingBlock: UVAHIK_clean_linker_0, # of connection points: 2
#     Edge 67, Type (0, 0), BuildingBlock: UVAHIK_clean_linker_0, # of connection points: 2
#     Edge 68, Type (0, 0), BuildingBlock: UVAHIK_clean_linker_0, # of connection points: 2
#     Edge 69, Type (0, 0), BuildingBlock: UVAHIK_clean_linker_0, # of connection points: 2
#     Edge 70, Type (0, 0), BuildingBlock: UVAHIK_clean_linker_0, # of connection points: 2
#     Edge 71, Type (0, 0), BuildingBlock: UVAHIK_clean_linker_0, # of connection points: 2
#     Edge 72, Type (0, 0), BuildingBlock: UVAHIK_clean_linker_0, # of connection points: 2
#     Edge 73, Type (0, 0), BuildingBlock: UVAHIK_clean_linker_0, # of connection points: 2
#     Edge 74, Type (0, 0), BuildingBlock: UVAHIK_clean_linker_0, # of connection points: 2
#     Edge 75, Type (0, 0), BuildingBlock: UVAHIK_clean_linker_0, # of connection points: 2
#     Edge 76, Type (0, 0), BuildingBlock: UVAHIK_clean_linker_0, # of connection points: 2
#     Edge 77, Type (0, 0), BuildingBlock: UVAHIK_clean_linker_0, # of connection points: 2
#     Edge 78, Type (0, 0), BuildingBlock: UVAHIK_clean_linker_0, # of connection points: 2
#     Edge 79, Type (0, 0), BuildingBlock: UVAHIK_clean_linker_0, # of connection points: 2
#     Edge 80, Type (0, 0), BuildingBlock: UVAHIK_clean_linker_0, # of connection points: 2
#     Edge 81, Type (0, 0), BuildingBlock: UVAHIK_clean_linker_0, # of connection points: 2
#     Edge 82, Type (0, 0), BuildingBlock: UVAHIK_clean_linker_0, # of connection points: 2
#     Edge 83, Type (0, 0), BuildingBlock: UVAHIK_clean_linker_0, # of connection points: 2
#     Edge 84, Type (0, 0), BuildingBlock: UVAHIK_clean_linker_0, # of connection points: 2
#     Edge 85, Type (0, 0), BuildingBlock: UVAHIK_clean_linker_0, # of connection points: 2
#     Edge 86, Type (0, 0), BuildingBlock: UVAHIK_clean_linker_0, # of connection points: 2
#     Edge 87, Type (0, 0), BuildingBlock: UVAHIK_clean_linker_0, # of connection points: 2
#     Edge 88, Type (0, 0), BuildingBlock: UVAHIK_clean_linker_0, # of connection points: 2
#     Edge 89, Type (0, 0), BuildingBlock: UVAHIK_clean_linker_0, # of connection points: 2
#     Edge 90, Type (0, 0), BuildingBlock: UVAHIK_clean_linker_0, # of connection points: 2
#     Edge 91, Type (0, 0), BuildingBlock: UVAHIK_clean_linker_0, # of connection points: 2
#     Edge 92, Type (0, 0), BuildingBlock: UVAHIK_clean_linker_0, # of connection points: 2
#     Edge 93, Type (0, 0), BuildingBlock: UVAHIK_clean_linker_0, # of connection points: 2
#     Edge 94, Type (0, 0), BuildingBlock: UVAHIK_clean_linker_0, # of connection points: 2
#     Edge 95, Type (0, 0), BuildingBlock: UVAHIK_clean_linker_0, # of connection points: 2
#     Edge 96, Type (0, 0), BuildingBlock: UVAHIK_clean_linker_0, # of connection points: 2
#     Edge 97, Type (0, 0), BuildingBlock: UVAHIK_clean_linker_0, # of connection points: 2
#     Edge 98, Type (0, 0), BuildingBlock: UVAHIK_clean_linker_0, # of connection points: 2
#     Edge 99, Type (0, 0), BuildingBlock: UVAHIK_clean_linker_0, # of connection points: 2
#     Edge 100, Type (0, 0), BuildingBlock: UVAHIK_clean_linker_0, # of connection points: 2
#     Edge 101, Type (0, 0), BuildingBlock: UVAHIK_clean_linker_0, # of connection points: 2
#     Edge 102, Type (0, 0), BuildingBlock: UVAHIK_clean_linker_0, # of connection points: 2
#     Edge 103, Type (0, 0), BuildingBlock: UVAHIK_clean_linker_0, # of connection points: 2
#     Edge 104, Type (0, 0), BuildingBlock: UVAHIK_clean_linker_0, # of connection points: 2
#     Edge 105, Type (0, 0), BuildingBlock: UVAHIK_clean_linker_0, # of connection points: 2
#     Edge 106, Type (0, 0), BuildingBlock: UVAHIK_clean_linker_0, # of connection points: 2
#     Edge 107, Type (0, 0), BuildingBlock: UVAHIK_clean_linker_0, # of connection points: 2
# Relax obj value: 0.085
# Max RMSD: 0.314
# Mean RMSD: 0.220
data_MOF--net-uml--node1-GALJAG_clean_sbu_0--edge1-UVAHIK_clean_linker_0
_symmetry_space_group_name_H-M    P1
_symmetry_Int_Tables_number       1
_symmetry_cell_setting            triclinic
loop_
_symmetry_equiv_pos_as_xyz
'x, y, z'
_cell_length_a     121.33526
_cell_length_b     121.17239
_cell_length_c     36.761856
_cell_angle_alpha  90.008348
_cell_angle_beta   90.093061
_cell_angle_gamma 116.41155
loop_
_atom_site_label
_atom_site_type_symbol
_atom_site_fract_x
_atom_site_fract_y
_atom_site_fract_z
_atom_type_partial_charge
In0 In 0.34767 0.095 0.17482 0.0
O1 O 0.33264 0.08203 0.21303 0.0
O2 O 0.34983 0.09429 0.23615 0.0
C3 C 0.33848 0.08458 0.10987 0.0
C4 C 0.34533 0.11614 0.17458 0.0
C5 C 0.36888 0.09328 0.16782 0.0
O6 O 0.33288 0.08013 0.13929 0.0
O7 O 0.34849 0.09416 0.11346 0.0
O8 O 0.36818 0.10329 0.16325 0.0
O9 O 0.35895 0.08425 0.17725 0.0
C10 C 0.33907 0.08597 0.24146 0.0
O11 O 0.35531 0.11585 0.18247 0.0
O12 O 0.33658 0.10581 0.16719 0.0
In13 In 0.8986 0.25745 0.16764 0.0
O14 O 0.87856 0.24264 0.15961 0.0
O15 O 0.89196 0.23706 0.17754 0.0
C16 C 0.89137 0.27524 0.15475 0.0
C17 C 0.9078 0.2606 0.23592 0.0
C18 C 0.91367 0.25964 0.11061 0.0
O19 O 0.88873 0.26624 0.1334 0.0
O20 O 0.89709 0.2749 0.18304 0.0
O21 O 0.91397 0.26888 0.12713 0.0
O22 O 0.90637 0.24946 0.12412 0.0
C23 C 0.88091 0.23385 0.16885 0.0
O24 O 0.91454 0.26212 0.2083 0.0
O25 O 0.89668 0.2577 0.22881 0.0
In26 In 0.74158 0.62503 0.14801 0.0
O27 O 0.75996 0.62388 0.15421 0.0
O28 O 0.7601 0.64152 0.15154 0.0
C29 C 0.72305 0.60242 0.13713 0.0
C30 C 0.73684 0.6296 0.21599 0.0
C31 C 0.73932 0.63373 0.08276 0.0
O32 O 0.73413 0.6046 0.13146 0.0
O33 O 0.72158 0.61142 0.14914 0.0
O34 O 0.73517 0.63638 0.11131 0.0
O35 O 0.74456 0.6269 0.08758 0.0
C36 C 0.76628 0.6355 0.15436 0.0
O37 O 0.73658 0.63606 0.18921 0.0
O38 O 0.73947 0.62088 0.20829 0.0
In39 In 0.08813 0.33622 0.33273 0.0
O40 O 0.10883 0.3456 0.32275 0.0
O41 O 0.09999 0.32612 0.32946 0.0
C42 C 0.08539 0.35656 0.34698 0.0
C43 C 0.07757 0.32795 0.26731 0.0
C44 C 0.08087 0.32692 0.39987 0.0
O45 O 0.09582 0.35701 0.34082 0.0
O46 O 0.07643 0.34598 0.34441 0.0
O47 O 0.07365 0.32312 0.37289 0.0
O48 O 0.09161 0.33484 0.39234 0.0
C49 C 0.10992 0.33572 0.32443 0.0
O50 O 0.07634 0.32072 0.29342 0.0
O51 O 0.08394 0.3392 0.27445 0.0
In52 In 0.62574 0.7456 0.35204 0.0
O53 O 0.63704 0.74002 0.31318 0.0
O54 O 0.62487 0.7467 0.29083 0.0
C55 C 0.63162 0.74006 0.41787 0.0
C56 C 0.63625 0.77047 0.35243 0.0
C57 C 0.60256 0.72739 0.35278 0.0
O58 O 0.63679 0.73892 0.3892 0.0
O59 O 0.62382 0.74415 0.41302 0.0
O60 O 0.60511 0.73791 0.36593 0.0
O61 O 0.61148 0.72641 0.33827 0.0
C62 C 0.63265 0.7426 0.28493 0.0
O63 O 0.62485 0.76413 0.34638 0.0
O64 O 0.64205 0.76425 0.35876 0.0
In65 In 0.25628 0.89314 0.32513 0.0
O66 O 0.25596 0.90778 0.28659 0.0
O67 O 0.25714 0.89217 0.26366 0.0
C68 C 0.25749 0.90219 0.39265 0.0
C69 C 0.23254 0.87609 0.32539 0.0
C70 C 0.27849 0.89318 0.32681 0.0
O71 O 0.25849 0.90864 0.36462 0.0
O72 O 0.25592 0.89135 0.38631 0.0
O73 O 0.26862 0.88324 0.32894 0.0
O74 O 0.27699 0.90279 0.32316 0.0
C75 C 0.25655 0.90218 0.25814 0.0
O76 O 0.24123 0.87303 0.32279 0.0
O77 O 0.23593 0.88752 0.32763 0.0
In78 In 0.65415 0.90777 0.81962 0.0
O79 O 0.66953 0.92108 0.78286 0.0
O80 O 0.65251 0.90897 0.75836 0.0
C81 C 0.66238 0.91686 0.88656 0.0
C82 C 0.65618 0.88648 0.81756 0.0
C83 C 0.63349 0.91058 0.82485 0.0
O84 O 0.66869 0.92157 0.85838 0.0
O85 O 0.65222 0.90766 0.88077 0.0
O86 O 0.63353 0.90022 0.82843 0.0
O87 O 0.6438 0.91939 0.8172 0.0
C88 C 0.66331 0.91733 0.75396 0.0
O89 O 0.64616 0.8869 0.81111 0.0
O90 O 0.66506 0.89673 0.82495 0.0
In91 In 0.10483 0.7419 0.83313 0.0
O92 O 0.12491 0.75692 0.83048 0.0
O93 O 0.11044 0.76229 0.83384 0.0
C94 C 0.10483 0.71972 0.83699 0.0
C95 C 0.09604 0.74101 0.76542 0.0
C96 C 0.09574 0.74121 0.90023 0.0
O97 O 0.11475 0.72963 0.83865 0.0
O98 O 0.09522 0.72115 0.83277 0.0
O99 O 0.08927 0.73989 0.87199 0.0
O100 O 0.1066 0.74285 0.89429 0.0
C101 C 0.12186 0.76566 0.83192 0.0
O102 O 0.09046 0.74214 0.79319 0.0
O103 O 0.10586 0.74017 0.772 0.0
In104 In 0.25735 0.37379 0.84501 0.0
O105 O 0.23892 0.37505 0.84789 0.0
O106 O 0.23872 0.35796 0.83358 0.0
C107 C 0.27133 0.39736 0.86621 0.0
C108 C 0.26314 0.37057 0.77648 0.0
C109 C 0.26361 0.36264 0.89946 0.0
O110 O 0.26215 0.39006 0.88437 0.0
O111 O 0.27268 0.39305 0.83627 0.0
O112 O 0.27138 0.3696 0.87681 0.0
O113 O 0.25274 0.36092 0.89359 0.0
C114 C 0.23255 0.36384 0.83938 0.0
O115 O 0.26423 0.36445 0.80294 0.0
O116 O 0.25921 0.37829 0.78474 0.0
In117 In 0.90417 0.65122 0.68384 0.0
O118 O 0.88322 0.64347 0.68886 0.0
O119 O 0.89376 0.66272 0.68023 0.0
C120 C 0.90781 0.63096 0.68146 0.0
C121 C 0.91321 0.66046 0.74978 0.0
C122 C 0.91221 0.65878 0.61588 0.0
O123 O 0.89715 0.63038 0.67945 0.0
O124 O 0.91645 0.64167 0.68547 0.0
O125 O 0.91823 0.66464 0.64346 0.0
O126 O 0.90237 0.64934 0.62295 0.0
C127 C 0.88325 0.65382 0.68429 0.0
O128 O 0.917 0.6668 0.72113 0.0
O129 O 0.905 0.64958 0.74496 0.0
In130 In 0.37116 0.25847 0.65573 0.0
O131 O 0.37254 0.24006 0.65384 0.0
O132 O 0.35521 0.23969 0.66483 0.0
C133 C 0.39417 0.27134 0.62917 0.0
C134 C 0.36919 0.26498 0.72473 0.0
C135 C 0.35978 0.26537 0.60356 0.0
O136 O 0.38563 0.26312 0.61094 0.0
O137 O 0.39135 0.27228 0.66162 0.0
O138 O 0.35718 0.25429 0.61028 0.0
O139 O 0.36769 0.27308 0.62463 0.0
C140 C 0.36123 0.2336 0.66046 0.0
O141 O 0.36239 0.26552 0.69941 0.0
O142 O 0.37695 0.26129 0.7151 0.0
In143 In 0.74846 0.10766 0.66042 0.0
O144 O 0.74863 0.09261 0.69739 0.0
O145 O 0.74408 0.10612 0.72088 0.0
C146 C 0.75033 0.09988 0.59317 0.0
C147 C 0.77169 0.12537 0.66921 0.0
C148 C 0.72652 0.10778 0.64934 0.0
O149 O 0.74576 0.09245 0.61929 0.0
O150 O 0.7541 0.1111 0.60124 0.0
O151 O 0.73604 0.11761 0.65698 0.0
O152 O 0.72818 0.09823 0.64836 0.0
C153 C 0.74579 0.09668 0.72572 0.0
O154 O 0.76275 0.12799 0.66492 0.0
O155 O 0.76878 0.11399 0.66939 0.0
In156 In 0.00947 0.42518 0.49343 0.0
O157 O 0.99299 0.41191 0.52707 0.0
O158 O 0.01007 0.42239 0.55404 0.0
C159 C 0.00317 0.41848 0.42358 0.0
C160 C 0.00771 0.44648 0.49951 0.0
C161 C 0.02983 0.42175 0.49259 0.0
O162 O 0.99719 0.41162 0.44964 0.0
O163 O 0.01194 0.42854 0.43306 0.0
O164 O 0.03032 0.43237 0.49076 0.0
O165 O 0.01913 0.413 0.49548 0.0
C166 C 0.99897 0.41452 0.55665 0.0
O167 O 0.01775 0.44588 0.50404 0.0
O168 O 0.99861 0.43634 0.49231 0.0
In169 In 0.55715 0.58765 0.49385 0.0
O170 O 0.57172 0.58795 0.53378 0.0
O171 O 0.55654 0.59034 0.55477 0.0
C172 C 0.56623 0.58757 0.42718 0.0
C173 C 0.54013 0.56394 0.49766 0.0
C174 C 0.55703 0.60967 0.48573 0.0
O175 O 0.57276 0.58943 0.45553 0.0
O176 O 0.55528 0.58569 0.43282 0.0
O177 O 0.54713 0.59973 0.48518 0.0
O178 O 0.56664 0.60836 0.49143 0.0
C179 C 0.56638 0.58954 0.5614 0.0
O180 O 0.5371 0.57269 0.49837 0.0
O181 O 0.55153 0.56727 0.4952 0.0
In182 In 0.40964 0.9645 0.48298 0.0
O183 O 0.40409 0.97455 0.52647 0.0
O184 O 0.40709 0.9592 0.54255 0.0
C185 C 0.40493 0.97644 0.42751 0.0
C186 C 0.43428 0.97354 0.49075 0.0
C187 C 0.39452 0.94122 0.46177 0.0
O188 O 0.41525 0.97661 0.43276 0.0
O189 O 0.39692 0.9706 0.45115 0.0
O190 O 0.40456 0.94761 0.44567 0.0
O191 O 0.3927 0.94627 0.48951 0.0
C192 C 0.4043 0.96765 0.55202 0.0
O193 O 0.42847 0.97985 0.49503 0.0
O194 O 0.42763 0.96234 0.48258 0.0
In195 In 0.75549 0.67813 0.64756 0.0
O196 O 0.7415 0.66279 0.61197 0.0
O197 O 0.75405 0.67941 0.58639 0.0
C198 C 0.74681 0.6717 0.71555 0.0
C199 C 0.77544 0.67376 0.64695 0.0
C200 C 0.75475 0.69989 0.65147 0.0
O201 O 0.74092 0.66547 0.68831 0.0
O202 O 0.75691 0.68076 0.70818 0.0
O203 O 0.76472 0.699 0.65357 0.0
O204 O 0.74529 0.68988 0.64557 0.0
C205 C 0.7453 0.66876 0.58271 0.0
O206 O 0.77607 0.68419 0.63932 0.0
O207 O 0.76479 0.6656 0.65436 0.0
In208 In 0.29178 0.07596 0.67784 0.0
O209 O 0.28958 0.09392 0.67521 0.0
O210 O 0.30751 0.09504 0.68091 0.0
C211 C 0.26955 0.05643 0.68137 0.0
C212 C 0.29787 0.073 0.60969 0.0
C213 C 0.29863 0.07174 0.74384 0.0
O214 O 0.27095 0.06723 0.68842 0.0
O215 O 0.27918 0.05574 0.67144 0.0
O216 O 0.30437 0.07146 0.71539 0.0
O217 O 0.28976 0.07432 0.73875 0.0
C218 C 0.30105 0.10075 0.6779 0.0
O219 O 0.30375 0.07205 0.63705 0.0
O220 O 0.28897 0.07538 0.61691 0.0
In221 In 0.92383 0.23002 0.67422 0.0
O222 O 0.90903 0.20983 0.67796 0.0
O223 O 0.90347 0.22373 0.66529 0.0
C224 C 0.94199 0.22325 0.68645 0.0
C225 C 0.92661 0.23946 0.60636 0.0
C226 C 0.92565 0.24419 0.73347 0.0
O227 O 0.93222 0.21901 0.70505 0.0
O228 O 0.94227 0.23037 0.66113 0.0
O229 O 0.93486 0.24584 0.71431 0.0
O230 O 0.91565 0.23591 0.72176 0.0
C231 C 0.90025 0.21245 0.67092 0.0
O232 O 0.92767 0.24595 0.63432 0.0
O233 O 0.92428 0.22843 0.61291 0.0
In234 In 0.3292 0.24889 0.16353 0.0
O235 O 0.34512 0.26167 0.12708 0.0
O236 O 0.3274 0.25167 0.10332 0.0
C237 C 0.33636 0.25721 0.23187 0.0
C238 C 0.33204 0.22815 0.15802 0.0
C239 C 0.30751 0.24969 0.16895 0.0
O240 O 0.34093 0.26408 0.20454 0.0
O241 O 0.32869 0.24635 0.22428 0.0
O242 O 0.30843 0.23973 0.17166 0.0
O243 O 0.31746 0.25912 0.1624 0.0
C244 C 0.33855 0.25913 0.09867 0.0
O245 O 0.32186 0.22833 0.1522 0.0
O246 O 0.34077 0.23845 0.16618 0.0
In247 In 0.77787 0.08108 0.1615 0.0
O248 O 0.762 0.07675 0.12132 0.0
O249 O 0.77895 0.07816 0.10081 0.0
C250 C 0.76255 0.07856 0.21801 0.0
C251 C 0.79545 0.10477 0.15813 0.0
C252 C 0.78543 0.06395 0.17954 0.0
O253 O 0.76377 0.06963 0.2046 0.0
O254 O 0.76851 0.08863 0.2018 0.0
O255 O 0.7886 0.07382 0.19746 0.0
O256 O 0.77906 0.06312 0.15154 0.0
C257 C 0.76811 0.0764 0.09393 0.0
O258 O 0.79793 0.0961 0.16752 0.0
O259 O 0.78433 0.10142 0.1502 0.0
In260 In 0.92351 0.70988 0.18281 0.0
O261 O 0.92817 0.698 0.14387 0.0
O262 O 0.92487 0.71259 0.1218 0.0
C263 C 0.92549 0.70231 0.25004 0.0
C264 C 0.89881 0.69982 0.17732 0.0
C265 C 0.94278 0.73223 0.18963 0.0
O266 O 0.92121 0.70987 0.24348 0.0
O267 O 0.92885 0.69839 0.22228 0.0
O268 O 0.93187 0.73071 0.19479 0.0
O269 O 0.94372 0.72269 0.1801 0.0
C270 C 0.92745 0.70372 0.11582 0.0
O271 O 0.9048 0.69366 0.1814 0.0
O272 O 0.90533 0.71141 0.17593 0.0
In273 In 0.57932 0.99453 0.01926 0.0
O274 O 0.59185 0.00959 0.05868 0.0
O275 O 0.58239 0.99121 0.07828 0.0
C276 C 0.58735 0.00391 0.95247 0.0
C277 C 0.55838 0.99671 0.02798 0.0
C278 C 0.58003 0.9731 0.00514 0.0
O279 O 0.59464 0.00675 0.97933 0.0
O280 O 0.57631 0.9969 0.96 0.0
O281 O 0.57009 0.97409 0.00506 0.0
O282 O 0.58948 0.98279 0.01369 0.0
C283 C 0.5896 0.0023 0.08528 0.0
O284 O 0.55873 0.98647 0.0304 0.0
O285 O 0.56864 0.00583 0.02221 0.0
In286 In 0.03385 0.5891 0.9919 0.0
O287 O 0.03582 0.57106 0.98857 0.0
O288 O 0.01836 0.57011 0.00189 0.0
C289 C 0.05736 0.60374 0.97203 0.0
C290 C 0.03058 0.59408 0.06131 0.0
C291 C 0.02305 0.59561 0.93692 0.0
O292 O 0.05064 0.59406 0.95465 0.0
O293 O 0.0525 0.60539 0.00045 0.0
O294 O 0.02909 0.60303 0.96172 0.0
O295 O 0.02191 0.58484 0.94104 0.0
C296 C 0.02463 0.56432 0.9963 0.0
O297 O 0.02364 0.59428 0.03585 0.0
O298 O 0.03907 0.59139 0.05163 0.0
In299 In 0.40929 0.44059 0.99921 0.0
O300 O 0.40927 0.42583 0.03791 0.0
O301 O 0.40818 0.4415 0.06069 0.0
C302 C 0.40786 0.43119 0.93201 0.0
C303 C 0.43317 0.45731 0.99942 0.0
C304 C 0.38742 0.4413 0.997 0.0
O305 O 0.40651 0.42476 0.9603 0.0
O306 O 0.40993 0.4422 0.9379 0.0
O307 O 0.39747 0.45105 0.99505 0.0
O308 O 0.38856 0.4315 0.00069 0.0
C309 C 0.40863 0.43142 0.0663 0.0
O310 O 0.42461 0.46056 0.00155 0.0
O311 O 0.42959 0.44584 0.99734 0.0
In312 In 0.67616 0.75596 0.84519 0.0
O313 O 0.66519 0.74169 0.88895 0.0
O314 O 0.67793 0.75959 0.90594 0.0
C315 C 0.66505 0.74225 0.78564 0.0
C316 C 0.67292 0.77644 0.83591 0.0
C317 C 0.69883 0.75766 0.83598 0.0
O318 O 0.65898 0.744 0.81095 0.0
O319 O 0.67645 0.74701 0.79112 0.0
O320 O 0.69594 0.76599 0.82571 0.0
O321 O 0.69035 0.74866 0.85209 0.0
C322 C 0.67004 0.74901 0.91516 0.0
O323 O 0.68331 0.77688 0.84262 0.0
O324 O 0.66424 0.76572 0.83381 0.0
In325 In 0.22088 0.91962 0.82329 0.0
O326 O 0.20117 0.90404 0.82817 0.0
O327 O 0.21602 0.89933 0.82286 0.0
C328 C 0.21877 0.94074 0.81679 0.0
C329 C 0.2301 0.92158 0.89091 0.0
C330 C 0.23091 0.92089 0.75717 0.0
O331 O 0.20962 0.93032 0.81243 0.0
O332 O 0.22868 0.94036 0.82524 0.0
O333 O 0.23724 0.92293 0.78599 0.0
O334 O 0.21971 0.91818 0.76206 0.0
C335 C 0.20458 0.89558 0.8262 0.0
O336 O 0.2357 0.92048 0.86319 0.0
O337 O 0.21998 0.92181 0.88434 0.0
In338 In 0.07506 0.29165 0.82765 0.0
O339 O 0.0932 0.28974 0.82361 0.0
O340 O 0.09389 0.30667 0.84179 0.0
C341 C 0.06043 0.26813 0.80696 0.0
C342 C 0.06847 0.29535 0.89472 0.0
C343 C 0.07009 0.30358 0.77285 0.0
O344 O 0.06816 0.27594 0.78582 0.0
O345 O 0.06095 0.27187 0.83918 0.0
O346 O 0.06183 0.29657 0.79432 0.0
O347 O 0.08077 0.30497 0.78023 0.0
C348 C 0.0998 0.30067 0.83427 0.0
O349 O 0.06779 0.30138 0.86744 0.0
O350 O 0.07234 0.28748 0.88792 0.0
In351 In 0.42498 0.01016 0.99085 0.0
O352 O 0.41227 0.99445 0.95363 0.0
O353 O 0.42263 0.01219 0.93044 0.0
C354 C 0.41611 0.00243 0.05825 0.0
C355 C 0.4457 0.00727 0.98711 0.0
C356 C 0.42461 0.03204 0.99811 0.0
O357 O 0.40929 0.9986 0.03046 0.0
O358 O 0.42717 0.00964 0.05152 0.0
O359 O 0.43443 0.03089 0.00052 0.0
O360 O 0.41511 0.02225 0.99069 0.0
C361 C 0.41503 0.00109 0.9254 0.0
O362 O 0.4456 0.01752 0.98161 0.0
O363 O 0.43531 0.99845 0.9936 0.0
In364 In 0.96014 0.40686 0.99424 0.0
O365 O 0.96947 0.40021 0.95126 0.0
O366 O 0.95476 0.40414 0.93468 0.0
C367 C 0.97359 0.40305 0.04738 0.0
C368 C 0.9674 0.43141 0.98914 0.0
C369 C 0.93716 0.39167 0.017 0.0
O370 O 0.96471 0.3943 0.03203 0.0
O371 O 0.97607 0.4135 0.03451 0.0
O372 O 0.94141 0.39057 0.98668 0.0
O373 O 0.9442 0.40109 0.03498 0.0
C374 C 0.96276 0.40069 0.92555 0.0
O375 O 0.95699 0.42421 0.00203 0.0
O376 O 0.97371 0.42615 0.97842 0.0
In377 In 0.58723 0.55559 0.99434 0.0
O378 O 0.57163 0.53584 0.98972 0.0
O379 O 0.56698 0.55071 0.99616 0.0
C380 C 0.60855 0.55376 0.99749 0.0
C381 C 0.58853 0.56539 0.92788 0.0
C382 C 0.58876 0.5649 0.06172 0.0
O383 O 0.59824 0.54441 0.00094 0.0
O384 O 0.60796 0.56374 0.99161 0.0
O385 O 0.59033 0.57145 0.03359 0.0
O386 O 0.58644 0.55384 0.05556 0.0
C387 C 0.5632 0.53925 0.99261 0.0
O388 O 0.58801 0.57089 0.95661 0.0
O389 O 0.58854 0.55508 0.93283 0.0
In390 In 0.99585 0.58168 0.50629 0.0
O391 O 0.98754 0.56082 0.49902 0.0
O392 O 0.0069 0.57066 0.50617 0.0
C393 C 0.97307 0.57768 0.52636 0.0
C394 C 0.00299 0.59102 0.43874 0.0
C395 C 0.00743 0.59561 0.56484 0.0
O396 O 0.97833 0.57163 0.53948 0.0
O397 O 0.97918 0.5855 0.50249 0.0
O398 O 0.00121 0.59862 0.54304 0.0
O399 O 0.00835 0.58602 0.55598 0.0
C400 C 0.99771 0.56037 0.50155 0.0
O401 O 0.01022 0.59447 0.46561 0.0
O402 O 0.99222 0.58315 0.44617 0.0
In403 In 0.44097 0.41001 0.50166 0.0
O404 O 0.42625 0.4094 0.4617 0.0
O405 O 0.44226 0.40865 0.44048 0.0
C406 C 0.43088 0.40824 0.56797 0.0
C407 C 0.45729 0.43406 0.50053 0.0
C408 C 0.44318 0.38887 0.50531 0.0
O409 O 0.442 0.41066 0.56295 0.0
O410 O 0.42462 0.40665 0.53917 0.0
O411 O 0.43332 0.38929 0.49646 0.0
O412 O 0.45218 0.39923 0.51174 0.0
C413 C 0.4321 0.40878 0.43391 0.0
O414 O 0.4607 0.42562 0.4981 0.0
O415 O 0.44583 0.4303 0.50342 0.0
In416 In 0.59156 0.04088 0.52321 0.0
O417 O 0.57267 0.0259 0.50935 0.0
O418 O 0.57359 0.04317 0.52476 0.0
C419 C 0.60626 0.06452 0.54292 0.0
C420 C 0.59838 0.03653 0.45708 0.0
C421 C 0.59616 0.02928 0.57963 0.0
O422 O 0.60555 0.06065 0.51078 0.0
O423 O 0.59873 0.05675 0.56456 0.0
O424 O 0.60446 0.03572 0.55738 0.0
O425 O 0.58562 0.02831 0.57234 0.0
C426 C 0.56689 0.03216 0.51502 0.0
O427 O 0.59855 0.03046 0.48489 0.0
O428 O 0.59495 0.04479 0.46291 0.0
In429 In 0.24786 0.33057 0.33682 0.0
O430 O 0.25958 0.34648 0.37512 0.0
O431 O 0.25172 0.32818 0.39579 0.0
C432 C 0.25627 0.33888 0.26942 0.0
C433 C 0.22656 0.33218 0.34413 0.0
C434 C 0.24873 0.309 0.32766 0.0
O435 O 0.26326 0.34257 0.2969 0.0
O436 O 0.24527 0.33157 0.27654 0.0
O437 O 0.23877 0.30992 0.32583 0.0
O438 O 0.25814 0.31889 0.33516 0.0
C439 C 0.25812 0.33949 0.40208 0.0
O440 O 0.22731 0.3222 0.34854 0.0
O441 O 0.2366 0.34137 0.33676 0.0
In442 In 0.71042 0.9276 0.31761 0.0
O443 O 0.69882 0.93187 0.35892 0.0
O444 O 0.71319 0.92776 0.37849 0.0
C445 C 0.70276 0.93223 0.2533 0.0
C446 C 0.70085 0.90274 0.31741 0.0
C447 C 0.73306 0.94653 0.313 0.0
O448 O 0.69763 0.93269 0.28285 0.0
O449 O 0.71155 0.92943 0.25655 0.0
O450 O 0.73082 0.9359 0.30132 0.0
O451 O 0.72409 0.94737 0.32775 0.0
C452 C 0.70455 0.93052 0.38608 0.0
O453 O 0.71225 0.90945 0.32253 0.0
O454 O 0.69466 0.90861 0.31195 0.0
In455 In 0.07853 0.7776 0.33135 0.0
O456 O 0.09431 0.79724 0.33607 0.0
O457 O 0.09875 0.78226 0.32921 0.0
C458 C 0.05762 0.78018 0.32698 0.0
C459 C 0.07699 0.76796 0.39822 0.0
C460 C 0.07668 0.76765 0.26471 0.0
O461 O 0.06808 0.78923 0.32263 0.0
O462 O 0.05785 0.77012 0.33442 0.0
O463 O 0.07945 0.77886 0.27001 0.0
O464 O 0.07485 0.76128 0.29334 0.0
C465 C 0.10265 0.79372 0.33294 0.0
O466 O 0.07753 0.76237 0.36972 0.0
O467 O 0.0771 0.7783 0.39284 0.0
C468 C 0.31307 0.07311 0.56357 0.0
C469 C 0.30126 0.07177 0.57192 0.0
C470 C 0.3165 0.07285 0.52739 0.0
C471 C 0.3074 0.07682 0.43343 0.0
H472 H 0.33126 0.06513 0.40627 0.0
C473 C 0.32146 0.07545 0.28429 0.0
C474 C 0.3342 0.08176 0.2783 0.0
C475 C 0.31685 0.07257 0.31967 0.0
C476 C 0.32457 0.0684 0.41355 0.0
H477 H 0.28356 0.06848 0.54934 0.0
H478 H 0.28929 0.06747 0.4865 0.0
H479 H 0.32404 0.06292 0.46907 0.0
H480 H 0.35213 0.08953 0.3043 0.0
H481 H 0.34405 0.08427 0.36607 0.0
H482 H 0.30786 0.08215 0.37771 0.0
C483 C 0.29612 0.06921 0.50755 0.0
C484 C 0.32049 0.06722 0.44955 0.0
C485 C 0.29279 0.0697 0.54362 0.0
C486 C 0.34226 0.08468 0.30816 0.0
C487 C 0.33765 0.08163 0.34345 0.0
C488 C 0.31134 0.07781 0.3974 0.0
C489 C 0.3081 0.07103 0.49882 0.0
C490 C 0.31196 0.07156 0.46009 0.0
C491 C 0.32491 0.07576 0.34958 0.0
C492 C 0.32007 0.07376 0.38721 0.0
H493 H 0.3198 0.07478 0.58491 0.0
H494 H 0.32585 0.07447 0.52184 0.0
H495 H 0.30105 0.08053 0.44048 0.0
H496 H 0.31505 0.0731 0.26176 0.0
H497 H 0.30698 0.06798 0.32371 0.0
C498 C 0.92958 0.25626 0.56161 0.0
C499 C 0.92757 0.24411 0.5687 0.0
C500 C 0.92982 0.26028 0.52573 0.0
C501 C 0.92101 0.26301 0.44999 0.0
H502 H 0.93372 0.25054 0.37166 0.0
C503 C 0.9041 0.25981 0.30278 0.0
C504 C 0.91226 0.26157 0.27384 0.0
C505 C 0.90785 0.25987 0.3387 0.0
C506 C 0.93029 0.25429 0.39315 0.0
H507 H 0.92448 0.22675 0.54379 0.0
H508 H 0.9247 0.23364 0.48168 0.0
H509 H 0.93741 0.2468 0.43457 0.0
H510 H 0.93088 0.2651 0.25991 0.0
H511 H 0.93752 0.2653 0.323 0.0
H512 H 0.91388 0.27049 0.40858 0.0
C513 C 0.92631 0.24017 0.50355 0.0
C514 C 0.93228 0.25201 0.42928 0.0
C515 C 0.92607 0.23617 0.53926 0.0
C516 C 0.92438 0.2637 0.28167 0.0
C517 C 0.92815 0.26374 0.31777 0.0
C518 C 0.91906 0.26533 0.41387 0.0
C519 C 0.92808 0.25223 0.49626 0.0
C520 C 0.92738 0.25606 0.45814 0.0
C521 C 0.91987 0.2617 0.34671 0.0
C522 C 0.92339 0.26071 0.38498 0.0
H523 H 0.9308 0.2626 0.58376 0.0
H524 H 0.93133 0.26967 0.52109 0.0
H525 H 0.91705 0.26623 0.47145 0.0
H526 H 0.89468 0.25813 0.29769 0.0
H527 H 0.90115 0.25805 0.36014 0.0
C528 C 0.74308 0.67126 0.51622 0.0
C529 C 0.74057 0.66348 0.54658 0.0
C530 C 0.73979 0.66632 0.48135 0.0
C531 C 0.73665 0.63996 0.42912 0.0
H532 H 0.72191 0.65227 0.35584 0.0
C533 C 0.73211 0.62328 0.28091 0.0
C534 C 0.73455 0.63218 0.25369 0.0
C535 C 0.73056 0.62589 0.31701 0.0
C536 C 0.72615 0.64881 0.37585 0.0
H537 H 0.73231 0.64447 0.56455 0.0
H538 H 0.72679 0.63579 0.50318 0.0
H539 H 0.72314 0.65913 0.41883 0.0
H540 H 0.73709 0.65072 0.2426 0.0
H541 H 0.73492 0.65551 0.30574 0.0
H542 H 0.74036 0.63021 0.38631 0.0
C543 C 0.73122 0.64571 0.50656 0.0
C544 C 0.72675 0.65267 0.41195 0.0
C545 C 0.73433 0.65066 0.54158 0.0
C546 C 0.73517 0.64367 0.26307 0.0
C547 C 0.73383 0.64637 0.29928 0.0
C548 C 0.73623 0.63624 0.39299 0.0
C549 C 0.73409 0.6535 0.47612 0.0
C550 C 0.73215 0.6484 0.43879 0.0
C551 C 0.73163 0.63755 0.32682 0.0
C552 C 0.73113 0.64075 0.36574 0.0
H553 H 0.74786 0.68118 0.51934 0.0
H554 H 0.7422 0.67252 0.45831 0.0
H555 H 0.74102 0.63667 0.44922 0.0
H556 H 0.73144 0.61428 0.27434 0.0
H557 H 0.7286 0.61877 0.33723 0.0
C558 C 0.06524 0.28976 0.96047 0.0
C559 C 0.06567 0.29772 0.93214 0.0
C560 C 0.06373 0.29249 0.99645 0.0
C561 C 0.07056 0.31893 0.05476 0.0
H562 H 0.05063 0.29455 0.12568 0.0
C563 C 0.07219 0.33209 0.20503 0.0
C564 C 0.07273 0.3237 0.23043 0.0
C565 C 0.06895 0.32856 0.16893 0.0
C566 C 0.05631 0.30145 0.10627 0.0
H567 H 0.06439 0.31454 0.91901 0.0
H568 H 0.06186 0.31942 0.98215 0.0
H569 H 0.04917 0.28894 0.06137 0.0
H570 H 0.06986 0.3049 0.23847 0.0
H571 H 0.06459 0.2988 0.1751 0.0
H572 H 0.07816 0.3313 0.09935 0.0
C573 C 0.06272 0.31107 0.97642 0.0
C574 C 0.05543 0.29824 0.06945 0.0
C575 C 0.06412 0.30826 0.94033 0.0
C576 C 0.06948 0.31155 0.21942 0.0
C577 C 0.0664 0.30805 0.18311 0.0
C578 C 0.07154 0.32211 0.09152 0.0
C579 C 0.06271 0.30331 0.00488 0.0
C580 C 0.06266 0.30692 0.04339 0.0
C581 C 0.06637 0.3166 0.15722 0.0
C582 C 0.06453 0.31337 0.11785 0.0
H583 H 0.06638 0.28154 0.95495 0.0
H584 H 0.06387 0.28641 0.01782 0.0
H585 H 0.0764 0.32576 0.0354 0.0
H586 H 0.07451 0.34149 0.2129 0.0
H587 H 0.06871 0.33531 0.15004 0.0
C588 C 0.63081 0.74385 0.21759 0.0
C589 C 0.63618 0.74093 0.24763 0.0
C590 C 0.63419 0.7425 0.18222 0.0
C591 C 0.63848 0.73334 0.10954 0.0
H592 H 0.67327 0.74565 0.08902 0.0
C593 C 0.65666 0.73454 0.96326 0.0
C594 C 0.66659 0.74578 0.95363 0.0
C595 C 0.65301 0.73203 -0.00031 0.0
C596 C 0.66352 0.74215 0.09432 0.0
H597 H 0.64917 0.73409 0.26418 0.0
H598 H 0.65508 0.73168 0.20217 0.0
H599 H 0.66644 0.74489 0.15169 0.0
H600 H 0.68068 0.76304 0.97456 0.0
H601 H 0.67433 0.75871 0.03768 0.0
H602 H 0.63561 0.73113 0.052 0.0
C603 C 0.64832 0.73513 0.20606 0.0
C604 C 0.65959 0.74159 0.13028 0.0
C605 C 0.64491 0.73647 0.24155 0.0
C606 C 0.67299 0.75429 0.98111 0.0
C607 C 0.6694 0.75177 0.01738 0.0
C608 C 0.6424 0.73389 0.07356 0.0
C609 C 0.64303 0.73818 0.17599 0.0
C610 C 0.64705 0.73745 0.13825 0.0
C611 C 0.65929 0.74067 0.02711 0.0
C612 C 0.655 0.73858 0.06548 0.0
H613 H 0.62406 0.74732 0.22137 0.0
H614 H 0.63008 0.74514 0.15975 0.0
H615 H 0.62873 0.72992 0.11481 0.0
H616 H 0.65156 0.72781 0.94263 0.0
H617 H 0.64524 0.72335 0.00637 0.0
C618 C 0.2515 0.91535 0.21529 0.0
C619 C 0.25595 0.90659 0.22109 0.0
C620 C 0.24994 0.91868 0.17991 0.0
C621 C 0.25954 0.91937 0.08505 0.0
H622 H 0.22692 0.91554 0.06093 0.0
C623 C 0.24341 0.91773 0.93622 0.0
C624 C 0.23467 0.92202 0.92839 0.0
C625 C 0.24695 0.91722 0.97219 0.0
C626 C 0.23617 0.91693 0.06716 0.0
H627 H 0.26272 0.89482 0.19462 0.0
H628 H 0.26024 0.90085 0.13286 0.0
H629 H 0.23173 0.91267 0.12341 0.0
H630 H 0.2232 0.92971 0.95165 0.0
H631 H 0.22975 0.92938 0.01409 0.0
H632 H 0.2641 0.92381 0.02905 0.0
C633 C 0.25789 0.90506 0.15564 0.0
C634 C 0.23889 0.91523 0.10305 0.0
C635 C 0.25924 0.90157 0.19095 0.0
C636 C 0.22987 0.92623 0.95697 0.0
C637 C 0.23356 0.92594 0.99283 0.0
C638 C 0.25689 0.92128 0.04921 0.0
C639 C 0.25302 0.91349 0.14976 0.0
C640 C 0.25054 0.91627 0.11225 0.0
C641 C 0.24197 0.9212 0.00108 0.0
C642 C 0.24511 0.91993 0.03965 0.0
H643 H 0.24887 0.91935 0.23804 0.0
H644 H 0.24623 0.92524 0.17608 0.0
H645 H 0.26863 0.92031 0.09154 0.0
H646 H 0.24721 0.91436 0.91468 0.0
H647 H 0.25329 0.91334 0.97733 0.0
C648 C 0.66052 0.9193 0.68741 0.0
C649 C 0.66842 0.92177 0.71749 0.0
C650 C 0.66529 0.9225 0.65235 0.0
C651 C 0.69141 0.92567 0.59868 0.0
H652 H 0.6796 0.94161 0.52774 0.0
C653 C 0.70976 0.93343 0.45214 0.0
C654 C 0.70133 0.93178 0.42402 0.0
C655 C 0.70658 0.93399 0.48833 0.0
C656 C 0.6829 0.93701 0.54705 0.0
H657 H 0.6875 0.92978 0.7347 0.0
H658 H 0.69587 0.93511 0.67307 0.0
H659 H 0.67242 0.93945 0.59057 0.0
H660 H 0.68303 0.92961 0.41149 0.0
H661 H 0.67722 0.93004 0.47475 0.0
H662 H 0.70137 0.92259 0.55532 0.0
C663 C 0.68599 0.93079 0.6768 0.0
C664 C 0.67885 0.93587 0.58308 0.0
C665 C 0.6812 0.92779 0.71198 0.0
C666 C 0.68972 0.93093 0.43268 0.0
C667 C 0.68644 0.93127 0.46898 0.0
C668 C 0.69531 0.92662 0.56261 0.0
C669 C 0.67806 0.92804 0.64664 0.0
C670 C 0.68301 0.93012 0.60914 0.0
C671 C 0.69479 0.93267 0.49736 0.0
C672 C 0.69106 0.93224 0.53619 0.0
H673 H 0.65062 0.91469 0.6909 0.0
H674 H 0.65899 0.92019 0.62954 0.0
H675 H 0.69462 0.92103 0.61815 0.0
H676 H 0.71884 0.93425 0.44618 0.0
H677 H 0.71337 0.93539 0.50923 0.0
C678 C 0.07373 0.76832 0.46525 0.0
C679 C 0.0768 0.76309 0.43517 0.0
C680 C 0.07426 0.76426 0.50049 0.0
C681 C 0.09079 0.75138 0.55407 0.0
H682 H 0.0649 0.74385 0.62531 0.0
C683 C 0.09636 0.73688 0.69906 0.0
C684 C 0.09186 0.74131 0.72785 0.0
C685 C 0.09327 0.73803 0.66312 0.0
C686 C 0.07229 0.74607 0.60594 0.0
H687 H 0.08265 0.74938 0.41826 0.0
H688 H 0.08386 0.74247 0.48007 0.0
H689 H 0.06179 0.7488 0.56288 0.0
H690 H 0.08043 0.75022 0.74184 0.0
H691 H 0.07543 0.75274 0.67907 0.0
H692 H 0.10157 0.7493 0.59695 0.0
C693 C 0.08096 0.74965 0.47625 0.0
C694 C 0.07046 0.74882 0.57013 0.0
C695 C 0.08021 0.75357 0.44094 0.0
C696 C 0.08397 0.74666 0.72012 0.0
C697 C 0.08106 0.74804 0.68408 0.0
C698 C 0.09271 0.74883 0.58992 0.0
C699 C 0.07808 0.75503 0.50637 0.0
C700 C 0.0797 0.75153 0.54391 0.0
C701 C 0.08582 0.7439 0.65501 0.0
C702 C 0.0835 0.74616 0.61645 0.0
H703 H 0.07104 0.77566 0.46159 0.0
H704 H 0.07209 0.76862 0.52325 0.0
H705 H 0.09814 0.75362 0.5345 0.0
H706 H 0.10236 0.7326 0.70429 0.0
H707 H 0.09685 0.73442 0.6417 0.0
C708 C 0.26346 0.33598 0.46498 0.0
C709 C 0.26262 0.34405 0.43899 0.0
C710 C 0.26611 0.33962 0.50122 0.0
C711 C 0.27621 0.36659 0.56417 0.0
H712 H 0.25654 0.34133 0.63329 0.0
C713 C 0.26558 0.37643 0.71076 0.0
C714 C 0.26578 0.36855 0.73852 0.0
C715 C 0.26724 0.37409 0.67448 0.0
C716 C 0.26224 0.34844 0.61442 0.0
H717 H 0.26439 0.36243 0.43002 0.0
H718 H 0.2686 0.36871 0.49369 0.0
H719 H 0.25581 0.33615 0.56927 0.0
H720 H 0.26823 0.35225 0.75026 0.0
H721 H 0.27099 0.34807 0.68671 0.0
H722 H 0.28219 0.37898 0.60968 0.0
C723 C 0.26749 0.35964 0.48604 0.0
C724 C 0.26187 0.34548 0.57763 0.0
C725 C 0.26503 0.35605 0.44956 0.0
C726 C 0.268 0.35846 0.72942 0.0
C727 C 0.26954 0.35605 0.69308 0.0
C728 C 0.27648 0.36959 0.60105 0.0
C729 C 0.26775 0.35135 0.51251 0.0
C730 C 0.2688 0.35451 0.55193 0.0
C731 C 0.26901 0.36374 0.66521 0.0
C732 C 0.26944 0.36054 0.62648 0.0
H733 H 0.26178 0.32672 0.45745 0.0
H734 H 0.26659 0.33311 0.52057 0.0
H735 H 0.28179 0.37375 0.54528 0.0
H736 H 0.26392 0.3843 0.71699 0.0
H737 H 0.26667 0.38011 0.65356 0.0
C738 C 0.92272 0.67806 0.7935 0.0
C739 C 0.91758 0.66536 0.78648 0.0
C740 C 0.92562 0.68248 0.82916 0.0
C741 C 0.91762 0.67155 0.92433 0.0
H742 H 0.944 0.70361 0.9483 0.0
C743 C 0.92871 0.68849 0.07219 0.0
C744 C 0.92891 0.7 0.0786 0.0
C745 C 0.92894 0.68452 0.03663 0.0
C746 C 0.93661 0.69463 0.94189 0.0
H747 H 0.91217 0.64739 0.81057 0.0
H748 H 0.91774 0.65506 0.87231 0.0
H749 H 0.94164 0.69606 0.88569 0.0
H750 H 0.93008 0.71663 0.05309 0.0
H751 H 0.93067 0.70974 0.99094 0.0
H752 H 0.91268 0.67011 0.98057 0.0
C753 C 0.91908 0.66163 0.85079 0.0
C754 C 0.9352 0.69032 0.90604 0.0
C755 C 0.91596 0.65722 0.81534 0.0
C756 C 0.92987 0.70769 0.04892 0.0
C757 C 0.93028 0.70378 0.01339 0.0
C758 C 0.91914 0.67578 0.96014 0.0
C759 C 0.92363 0.67429 0.85838 0.0
C760 C 0.92562 0.67876 0.89672 0.0
C761 C 0.92956 0.69207 0.0069 0.0
C762 C 0.92858 0.68739 0.96923 0.0
H763 H 0.92401 0.68453 0.77167 0.0
H764 H 0.92898 0.69227 0.83389 0.0
H765 H 0.90994 0.66275 0.91822 0.0
H766 H 0.92798 0.68239 0.09456 0.0
H767 H 0.92846 0.67547 0.03232 0.0
C768 C 0.35614 0.26831 0.05487 0.0
C769 C 0.34351 0.26373 0.06215 0.0
C770 C 0.3605 0.27116 0.01917 0.0
C771 C 0.35269 0.27763 0.92705 0.0
H772 H 0.37157 0.26085 0.89388 0.0
C773 C 0.35718 0.26847 0.77498 0.0
C774 C 0.36787 0.26786 0.76305 0.0
C775 C 0.35552 0.27008 0.81191 0.0
C776 C 0.36655 0.26585 0.90266 0.0
H777 H 0.32564 0.25917 0.03833 0.0
H778 H 0.33327 0.26433 0.97628 0.0
H779 H 0.36668 0.26051 0.9581 0.0
H780 H 0.3855 0.26908 0.77996 0.0
H781 H 0.38285 0.27234 0.84406 0.0
H782 H 0.3525 0.28296 0.87166 0.0
C783 C 0.3398 0.26567 0.99798 0.0
C784 C 0.36373 0.26562 0.93956 0.0
C785 C 0.33542 0.26265 0.03348 0.0
C786 C 0.37709 0.26939 0.78846 0.0
C787 C 0.37553 0.27117 0.82527 0.0
C788 C 0.35564 0.278 0.89016 0.0
C789 C 0.35233 0.26968 0.99033 0.0
C790 C 0.35657 0.2713 0.95202 0.0
C791 C 0.3646 0.27127 0.83765 0.0
C792 C 0.3624 0.2719 0.87734 0.0
H793 H 0.36257 0.2692 0.07648 0.0
H794 H 0.37022 0.27429 0.014 0.0
H795 H 0.34725 0.28218 0.93602 0.0
H796 H 0.3499 0.26727 0.75597 0.0
H797 H 0.34691 0.26993 0.82036 0.0
C798 C 0.7405 0.09507 0.79184 0.0
C799 C 0.74542 0.09143 0.76221 0.0
C800 C 0.74121 0.09104 0.82701 0.0
C801 C 0.7609 0.08243 0.88198 0.0
H802 H 0.73413 0.07063 0.95155 0.0
C803 C 0.76912 0.07153 0.02847 0.0
C804 C 0.76338 0.07497 0.05634 0.0
C805 C 0.76557 0.07143 0.99226 0.0
C806 C 0.74174 0.07404 0.93262 0.0
H807 H 0.75461 0.08043 0.74592 0.0
H808 H 0.75605 0.07358 0.80758 0.0
H809 H 0.73027 0.07444 0.88861 0.0
H810 H 0.74922 0.08068 0.0685 0.0
H811 H 0.74335 0.08103 0.00522 0.0
H812 H 0.77256 0.08273 0.92578 0.0
C813 C 0.7516 0.0795 0.80349 0.0
C814 C 0.7395 0.07614 0.89653 0.0
C815 C 0.75073 0.08338 0.76824 0.0
C816 C 0.75375 0.07792 0.0475 0.0
C817 C 0.75035 0.07806 0.01117 0.0
C818 C 0.76319 0.08053 0.91808 0.0
C819 C 0.74701 0.08344 0.83326 0.0
C820 C 0.74907 0.08041 0.87094 0.0
C821 C 0.75638 0.07504 0.98295 0.0
C822 C 0.75367 0.07637 0.94402 0.0
H823 H 0.73634 0.10125 0.78797 0.0
H824 H 0.73768 0.09429 0.84951 0.0
H825 H 0.7685 0.08592 0.86294 0.0
H826 H 0.77649 0.06909 0.0346 0.0
H827 H 0.7702 0.0687 0.97153 0.0
C828 C 0.97553 0.39817 0.87585 0.0
C829 C 0.96448 0.39813 0.88729 0.0
C830 C 0.97762 0.39709 0.83891 0.0
C831 C 0.96709 0.40209 0.74846 0.0
H832 H 0.98834 0.38806 0.71416 0.0
C833 C 0.98065 0.40381 0.59718 0.0
C834 C 0.99345 0.40922 0.59207 0.0
C835 C 0.97567 0.39996 0.63186 0.0
C836 C 0.98234 0.39195 0.72339 0.0
H837 H 0.94667 0.39618 0.86954 0.0
H838 H 0.95008 0.39381 0.80537 0.0
H839 H 0.98202 0.38562 0.77787 0.0
H840 H 0.01103 0.4143 0.61858 0.0
H841 H 0.00233 0.40741 0.67882 0.0
H842 H 0.9675 0.40847 0.69394 0.0
C843 C 0.95734 0.39511 0.82458 0.0
C844 C 0.97878 0.39063 0.7599 0.0
C845 C 0.95533 0.39638 0.8614 0.0
C846 C 0.00113 0.4102 0.62179 0.0
C847 C 0.99614 0.40618 0.65622 0.0
C848 C 0.97053 0.40326 0.71189 0.0
C849 C 0.96863 0.39577 0.8127 0.0
C850 C 0.97134 0.39593 0.77312 0.0
C851 C 0.9834 0.40125 0.66176 0.0
C852 C 0.97841 0.39846 0.69919 0.0
H853 H 0.98276 0.39955 0.89526 0.0
H854 H 0.98649 0.39781 0.83087 0.0
H855 H 0.96154 0.40649 0.7576 0.0
H856 H 0.97454 0.40296 0.57471 0.0
H857 H 0.9658 0.39615 0.63545 0.0
C858 C 0.57901 0.58474 0.60684 0.0
C859 C 0.57084 0.58974 0.59891 0.0
C860 C 0.58228 0.58387 0.64286 0.0
C861 C 0.57129 0.58377 0.7374 0.0
H862 H 0.60273 0.58472 0.7629 0.0
C863 C 0.58486 0.57967 0.88577 0.0
C864 C 0.58853 0.5703 0.8911 0.0
C865 C 0.58387 0.58355 0.8506 0.0
C866 C 0.59392 0.58445 0.75609 0.0
H867 H 0.56017 0.59835 0.62207 0.0
H868 H 0.56629 0.59739 0.68464 0.0
H869 H 0.59901 0.58915 0.7005 0.0
H870 H 0.5945 0.55799 0.86407 0.0
H871 H 0.59301 0.56496 0.80267 0.0
H872 H 0.56631 0.57923 0.79322 0.0
C873 C 0.56983 0.59368 0.66339 0.0
C874 C 0.59174 0.58691 0.72031 0.0
C875 C 0.5664 0.59433 0.62746 0.0
C876 C 0.59162 0.56521 0.86074 0.0
C877 C 0.59083 0.56924 0.82565 0.0
C878 C 0.57355 0.58152 0.77323 0.0
C879 C 0.5776 0.58818 0.67172 0.0
C880 C 0.58032 0.58643 0.71032 0.0
C881 C 0.58675 0.57829 0.82021 0.0
C882 C 0.58482 0.58167 0.78282 0.0
H883 H 0.58251 0.58106 0.58533 0.0
H884 H 0.58813 0.57942 0.64805 0.0
H885 H 0.56229 0.58304 0.73081 0.0
H886 H 0.58241 0.58374 0.90869 0.0
H887 H 0.58076 0.59059 0.8471 0.0
C888 C 0.41196 0.00444 0.85999 0.0
C889 C 0.41035 0.99624 0.88879 0.0
C890 C 0.40859 1.00004 0.82459 0.0
C891 C 0.40624 0.97497 0.76643 0.0
H892 H 0.39 0.98768 0.69924 0.0
C893 C 0.39995 0.96031 0.61621 0.0
C894 C 0.40203 0.96956 0.5904 0.0
C895 C 0.39874 0.96238 0.65302 0.0
C896 C 0.39465 0.98411 0.71754 0.0
H897 H 0.40363 0.97701 0.90342 0.0
H898 H 0.39793 0.96931 0.84116 0.0
H899 H 0.39179 0.99347 0.7634 0.0
H900 H 0.40416 0.98812 0.5826 0.0
H901 H 0.4025 0.99195 0.647 0.0
H902 H 0.4097 0.96612 0.72073 0.0
C903 C 0.40176 0.97913 0.84614 0.0
C904 C 0.3956 0.98738 0.75431 0.0
C905 C 0.40496 0.98353 0.88171 0.0
C906 C 0.40253 0.98081 0.60194 0.0
C907 C 0.40149 0.98296 0.63888 0.0
C908 C 0.40544 0.97183 0.72965 0.0
C909 C 0.4037 0.98737 0.81718 0.0
C910 C 0.40153 0.98296 0.77902 0.0
C911 C 0.39977 0.97383 0.66499 0.0
C912 C 0.39976 0.97647 0.70459 0.0
H913 H 0.41606 0.01429 0.86468 0.0
H914 H 0.4103 0.00661 0.80277 0.0
H915 H 0.41104 0.97158 0.78477 0.0
H916 H 0.3994 0.95149 0.608 0.0
H917 H 0.39713 0.95502 0.67214 0.0
C918 C 0.6024 0.04185 0.39128 0.0
C919 C 0.60116 0.03375 0.42005 0.0
C920 C 0.60382 0.03877 0.35558 0.0
C921 C 0.59527 0.0118 0.29821 0.0
H922 H 0.61705 0.035 0.22759 0.0
C923 C 0.5936 0.99769 0.14866 0.0
C924 C 0.59424 0.00638 0.12247 0.0
C925 C 0.59667 0.00118 0.18488 0.0
C926 C 0.61084 0.02843 0.24688 0.0
H927 H 0.60089 0.01628 0.43426 0.0
H928 H 0.60322 0.01079 0.3716 0.0
H929 H 0.6185 0.04092 0.29162 0.0
H930 H 0.59897 0.02562 0.11327 0.0
H931 H 0.60393 0.03169 0.17679 0.0
H932 H 0.58717 0.9995 0.25375 0.0
C933 C 0.60309 0.01953 0.37678 0.0
C934 C 0.61172 0.03182 0.28357 0.0
C935 C 0.60181 0.02269 0.4126 0.0
C936 C 0.59845 0.01874 0.13291 0.0
C937 C 0.60134 0.02222 0.16933 0.0
C938 C 0.59429 0.00846 0.26157 0.0
C939 C 0.60391 0.02745 0.34785 0.0
C940 C 0.60385 0.02357 0.30954 0.0
C941 C 0.60024 0.01342 0.19595 0.0
C942 C 0.60197 0.01677 0.2353 0.0
H943 H 0.60197 0.05047 0.39622 0.0
H944 H 0.60432 0.04501 0.33384 0.0
H945 H 0.58894 0.00532 0.31748 0.0
H946 H 0.59052 0.98811 0.14127 0.0
H947 H 0.59602 0.99421 0.20433 0.0
C948 C 0.9981 0.59239 0.37343 0.0
C949 C 0.00693 0.59498 0.40102 0.0
C950 C 0.00168 0.5948 0.33707 0.0
C951 C 0.02561 0.59578 0.27664 0.0
H952 H 0.01148 0.60996 0.2071 0.0
C953 C 0.0383 0.59898 0.12508 0.0
C954 C 0.02883 0.59652 0.0997 0.0
C955 C 0.03654 0.6007 0.16179 0.0
C956 C 0.01542 0.60586 0.22606 0.0
H957 H 0.02646 0.60251 0.41242 0.0
H958 H 0.03274 0.60653 0.34857 0.0
H959 H 0.00675 0.60979 0.27172 0.0
H960 H 0.01017 0.5941 0.09258 0.0
H961 H 0.00687 0.59659 0.15689 0.0
H962 H 0.0338 0.59126 0.23133 0.0
C963 C 0.02304 0.60268 0.35522 0.0
C964 C 0.01276 0.60584 0.26309 0.0
C965 C 0.01946 0.60044 0.3917 0.0
C966 C 0.01764 0.59603 0.11159 0.0
C967 C 0.0158 0.59755 0.14846 0.0
C968 C 0.02813 0.59563 0.23964 0.0
C969 C 0.01416 0.59969 0.32752 0.0
C970 C 0.01776 0.60072 0.28869 0.0
C971 C 0.02519 0.59977 0.17415 0.0
C972 C 0.02299 0.60058 0.21376 0.0
H973 H 0.98837 0.5882 0.37985 0.0
H974 H 0.99464 0.59232 0.31627 0.0
H975 H 0.02943 0.59158 0.29571 0.0
H976 H 0.04708 0.59956 0.11659 0.0
H977 H 0.04409 0.60269 0.1805 0.0
C978 C 0.40564 0.43193 0.13341 0.0
C979 C 0.40898 0.4269 0.10339 0.0
C980 C 0.40672 0.42828 0.16877 0.0
C981 C 0.42506 0.41751 0.22218 0.0
H982 H 0.39933 0.40865 0.2946 0.0
C983 C 0.43269 0.4048 0.36754 0.0
C984 C 0.42776 0.40877 0.39635 0.0
C985 C 0.42931 0.40556 0.33164 0.0
C986 C 0.40668 0.41126 0.2749 0.0
H987 H 0.41589 0.41398 0.08671 0.0
H988 H 0.41807 0.40782 0.14875 0.0
H989 H 0.39537 0.41276 0.23211 0.0
H990 H 0.41529 0.41647 0.41041 0.0
H991 H 0.40974 0.41831 0.34769 0.0
H992 H 0.43662 0.41667 0.26476 0.0
C993 C 0.41452 0.4145 0.14478 0.0
C994 C 0.40436 0.41352 0.23906 0.0
C995 C 0.41323 0.41799 0.10935 0.0
C996 C 0.41917 0.41328 0.38868 0.0
C997 C 0.41595 0.41426 0.35267 0.0
C998 C 0.42746 0.41546 0.25807 0.0
C999 C 0.41137 0.41969 0.17481 0.0
C1000 C 0.41354 0.41669 0.2124 0.0
C1001 C 0.42109 0.41055 0.32357 0.0
C1002 C 0.41832 0.41232 0.28502 0.0
H1003 H 0.40232 0.4388 0.1296 0.0
H1004 H 0.40432 0.43249 0.19146 0.0
H1005 H 0.43236 0.42013 0.20226 0.0
H1006 H 0.43924 0.40116 0.37273 0.0
H1007 H 0.43322 0.40228 0.31021 0.0
C1008 C 0.32347 0.20538 0.14907 0.0
C1009 C 0.33354 0.21673 0.15693 0.0
C1010 C 0.32478 0.19449 0.14981 0.0
C1011 C 0.348 0.18256 0.14672 0.0
H1012 H 0.32245 0.15392 0.19336 0.0
C1013 C 0.35409 0.13906 0.18041 0.0
C1014 C 0.344 0.12765 0.1732 0.0
C1015 C 0.35283 0.14996 0.17819 0.0
C1016 C 0.32961 0.1618 0.17991 0.0
H1017 H 0.35291 0.22565 0.1712 0.0
H1018 H 0.35518 0.20665 0.17279 0.0
H1019 H 0.3202 0.17288 0.18875 0.0
H1020 H 0.32469 0.11867 0.15815 0.0
H1021 H 0.32253 0.13769 0.15406 0.0
H1022 H 0.35742 0.17148 0.138 0.0
C1023 C 0.3463 0.20615 0.16567 0.0
C1024 C 0.32831 0.17265 0.17722 0.0
C1025 C 0.34499 0.21702 0.16494 0.0
C1026 C 0.33263 0.12734 0.16398 0.0
C1027 C 0.33136 0.13822 0.16181 0.0
C1028 C 0.3493 0.17171 0.14942 0.0
C1029 C 0.33619 0.19475 0.15841 0.0
C1030 C 0.33749 0.18316 0.16062 0.0
C1031 C 0.34146 0.14965 0.16878 0.0
C1032 C 0.34012 0.16121 0.16607 0.0
H1033 H 0.31454 0.20488 0.1427 0.0
H1034 H 0.31686 0.18587 0.14359 0.0
H1035 H 0.35516 0.19046 0.13334 0.0
H1036 H 0.36296 0.13957 0.18764 0.0
H1037 H 0.36074 0.15862 0.18415 0.0
C1038 C 0.81672 0.1217 0.1693 0.0
C1039 C 0.80455 0.11791 0.15759 0.0
C1040 C 0.82503 0.13424 0.17013 0.0
C1041 C 0.83016 0.16466 0.13311 0.0
H1042 H 0.8517 0.17753 0.21657 0.0
C1043 C 0.8596 0.21707 0.15678 0.0
C1044 C 0.87173 0.22074 0.16871 0.0
C1045 C 0.85121 0.20455 0.15573 0.0
C1046 C 0.84583 0.17407 0.1929 0.0
H1047 H 0.79157 0.12426 0.13721 0.0
H1048 H 0.80597 0.14603 0.13888 0.0
H1049 H 0.83784 0.15557 0.21307 0.0
H1050 H 0.88456 0.21418 0.1891 0.0
H1051 H 0.87004 0.19249 0.187 0.0
H1052 H 0.83816 0.18317 0.11293 0.0
C1053 C 0.80918 0.13937 0.14705 0.0
C1054 C 0.8379 0.16147 0.19086 0.0
C1055 C 0.80091 0.12688 0.14629 0.0
C1056 C 0.87526 0.21167 0.17987 0.0
C1057 C 0.8669 0.19921 0.17888 0.0
C1058 C 0.83809 0.17727 0.13515 0.0
C1059 C 0.82133 0.14323 0.15916 0.0
C1060 C 0.82997 0.1566 0.16093 0.0
C1061 C 0.85478 0.19547 0.1667 0.0
C1062 C 0.84604 0.18212 0.16503 0.0
H1063 H 0.81979 0.115 0.17815 0.0
H1064 H 0.83437 0.1369 0.17923 0.0
H1065 H 0.82429 0.1612 0.10944 0.0
H1066 H 0.85662 0.22385 0.14803 0.0
H1067 H 0.8419 0.20198 0.14655 0.0
C1068 C 0.87833 0.70035 0.17143 0.0
C1069 C 0.8852 0.69364 0.17461 0.0
C1070 C 0.86544 0.69419 0.16936 0.0
C1071 C 0.83899 0.66401 0.19008 0.0
H1072 H 0.82126 0.67499 0.12295 0.0
C1073 C 0.78689 0.63527 0.15985 0.0
C1074 C 0.77988 0.64185 0.15712 0.0
C1075 C 0.79977 0.64155 0.16201 0.0
C1076 C 0.82606 0.67186 0.1421 0.0
H1077 H 0.88396 0.67523 0.17768 0.0
H1078 H 0.86169 0.6646 0.17363 0.0
H1079 H 0.84361 0.68633 0.1272 0.0
H1080 H 0.78088 0.66018 0.15476 0.0
H1081 H 0.80317 0.67103 0.15885 0.0
H1082 H 0.82144 0.64953 0.20492 0.0
C1083 C 0.86614 0.67458 0.17338 0.0
C1084 C 0.83888 0.67839 0.14459 0.0
C1085 C 0.87895 0.6807 0.17546 0.0
C1086 C 0.786 0.6548 0.15671 0.0
C1087 C 0.79881 0.66105 0.1588 0.0
C1088 C 0.82617 0.65748 0.18756 0.0
C1089 C 0.8592 0.68122 0.17049 0.0
C1090 C 0.84551 0.67453 0.16855 0.0
C1091 C 0.80587 0.65453 0.16137 0.0
C1092 C 0.81954 0.66132 0.16354 0.0
H1093 H 0.88289 0.71033 0.17075 0.0
H1094 H 0.86036 0.6996 0.16742 0.0
H1095 H 0.84377 0.66088 0.20926 0.0
H1096 H 0.78244 0.62529 0.16016 0.0
H1097 H 0.80495 0.63624 0.16367 0.0
C1098 C 0.12266 0.32429 0.3279 0.0
C1099 C 0.12196 0.33546 0.32333 0.0
C1100 C 0.13407 0.32411 0.32986 0.0
C1101 C 0.16693 0.34204 0.30804 0.0
H1102 H 0.1714 0.322 0.38346 0.0
C1103 C 0.21441 0.34422 0.33953 0.0
C1104 C 0.21475 0.33291 0.34519 0.0
C1105 C 0.20318 0.34479 0.338 0.0
C1106 C 0.17027 0.32754 0.36204 0.0
H1107 H 0.13261 0.35518 0.31631 0.0
H1108 H 0.15258 0.35489 0.31977 0.0
H1109 H 0.15158 0.32237 0.37694 0.0
H1110 H 0.20364 0.31337 0.35435 0.0
H1111 H 0.18401 0.31432 0.35132 0.0
H1112 H 0.1856 0.34716 0.29297 0.0
C1113 C 0.1443 0.34625 0.32164 0.0
C1114 C 0.15891 0.32775 0.35828 0.0
C1115 C 0.13288 0.34643 0.31977 0.0
C1116 C 0.20366 0.32222 0.35008 0.0
C1117 C 0.19242 0.32278 0.34849 0.0
C1118 C 0.17829 0.34181 0.31175 0.0
C1119 C 0.14501 0.33511 0.32722 0.0
C1120 C 0.15711 0.33496 0.33116 0.0
C1121 C 0.19205 0.33405 0.34205 0.0
C1122 C 0.18007 0.33453 0.33873 0.0
H1123 H 0.11439 0.31568 0.33062 0.0
H1124 H 0.13432 0.31536 0.33357 0.0
H1125 H 0.16578 0.34758 0.28665 0.0
H1126 H 0.22283 0.35263 0.33579 0.0
H1127 H 0.2032 0.35364 0.33359 0.0
C1128 C 0.6553 0.79033 0.35842 0.0
C1129 C 0.64263 0.78411 0.3508 0.0
C1130 C 0.66166 0.80313 0.35523 0.0
C1131 C 0.65737 0.83146 0.35156 0.0
H1132 H 0.68985 0.84558 0.30791 0.0
C1133 C 0.6822 0.88259 0.31166 0.0
C1134 C 0.69485 0.88911 0.31921 0.0
C1135 C 0.6761 0.86981 0.31535 0.0
C1136 C 0.68086 0.8418 0.32055 0.0
H1137 H 0.62666 0.78646 0.33429 0.0
H1138 H 0.63781 0.80889 0.32848 0.0
H1139 H 0.67847 0.82328 0.31485 0.0
H1140 H 0.71109 0.88728 0.33593 0.0
H1141 H 0.70037 0.8648 0.3426 0.0
H1142 H 0.65974 0.84995 0.35721 0.0
C1143 C 0.6428 0.80385 0.33725 0.0
C1144 C 0.67432 0.82901 0.32453 0.0
C1145 C 0.63641 0.791 0.34046 0.0
C1146 C 0.70134 0.8825 0.32983 0.0
C1147 C 0.6952 0.86964 0.33356 0.0
C1148 C 0.6639 0.84423 0.34759 0.0
C1149 C 0.65554 0.81005 0.3443 0.0
C1150 C 0.66247 0.82367 0.34002 0.0
C1151 C 0.68246 0.86317 0.32678 0.0
C1152 C 0.67571 0.84957 0.33188 0.0
H1153 H 0.66037 0.7853 0.36662 0.0
H1154 H 0.67141 0.8076 0.36152 0.0
H1155 H 0.64837 0.82769 0.36417 0.0
H1156 H 0.67693 0.88738 0.30319 0.0
H1157 H 0.66636 0.86512 0.30916 0.0
C1158 C 0.21043 0.87158 0.32961 0.0
C1159 C 0.21934 0.86719 0.32625 0.0
C1160 C 0.19794 0.86343 0.33094 0.0
C1161 C 0.17544 0.8318 0.30727 0.0
H1162 H 0.15449 0.83846 0.37444 0.0
C1163 C 0.12457 0.79741 0.32986 0.0
C1164 C 0.11597 0.80219 0.33317 0.0
C1165 C 0.13718 0.80524 0.32952 0.0
C1166 C 0.16018 0.83655 0.35523 0.0
H1167 H 0.2221 0.85078 0.32149 0.0
H1168 H 0.20013 0.83642 0.32399 0.0
H1169 H 0.17653 0.85202 0.37333 0.0
H1170 H 0.11386 0.81894 0.33881 0.0
H1171 H 0.13596 0.8327 0.3379 0.0
H1172 H 0.15908 0.81636 0.28907 0.0
C1173 C 0.20288 0.84622 0.32532 0.0
C1174 C 0.17282 0.8443 0.35463 0.0
C1175 C 0.21545 0.85442 0.32404 0.0
C1176 C 0.12027 0.81499 0.33631 0.0
C1177 C 0.13292 0.82285 0.33596 0.0
C1178 C 0.16279 0.82404 0.30786 0.0
C1179 C 0.19398 0.85065 0.32897 0.0
C1180 C 0.18061 0.84207 0.33051 0.0
C1181 C 0.14153 0.81806 0.33243 0.0
C1182 C 0.15499 0.82634 0.33177 0.0
H1183 H 0.21311 0.88137 0.33122 0.0
H1184 H 0.19135 0.86717 0.3331 0.0
H1185 H 0.18114 0.82992 0.28801 0.0
H1186 H 0.12157 0.78758 0.32754 0.0
H1187 H 0.14353 0.80121 0.32736 0.0
C1188 C 0.64731 0.86357 0.81008 0.0
C1189 C 0.6575 0.87495 0.81682 0.0
C1190 C 0.64865 0.85269 0.80995 0.0
C1191 C 0.67198 0.8411 0.80063 0.0
H1192 H 0.64806 0.81239 0.85133 0.0
C1193 C 0.68088 0.79934 0.83504 0.0
C1194 C 0.671 0.78756 0.83137 0.0
C1195 C 0.67899 0.80985 0.83139 0.0
C1196 C 0.65474 0.82027 0.83664 0.0
H1197 H 0.67707 0.88389 0.82856 0.0
H1198 H 0.67938 0.86493 0.82855 0.0
H1199 H 0.64509 0.83099 0.84792 0.0
H1200 H 0.65143 0.7775 0.82062 0.0
H1201 H 0.64815 0.79584 0.81389 0.0
H1202 H 0.68167 0.83042 0.78952 0.0
C1203 C 0.6704 0.86441 0.82296 0.0
C1204 C 0.65303 0.83092 0.83468 0.0
C1205 C 0.66905 0.87526 0.8232 0.0
C1206 C 0.65922 0.78647 0.82372 0.0
C1207 C 0.65732 0.79697 0.82006 0.0
C1208 C 0.67368 0.83045 0.80253 0.0
C1209 C 0.66022 0.853 0.81641 0.0
C1210 C 0.66169 0.84149 0.81694 0.0
C1211 C 0.66718 0.80878 0.82397 0.0
C1212 C 0.66514 0.81995 0.82083 0.0
H1213 H 0.63831 0.86307 0.80503 0.0
H1214 H 0.64066 0.84405 0.8045 0.0
H1215 H 0.67871 0.84903 0.78625 0.0
H1216 H 0.69006 0.80046 0.84104 0.0
H1217 H 0.68674 0.81881 0.83504 0.0
C1218 C 0.18326 0.87812 0.83057 0.0
C1219 C 0.19602 0.88228 0.82745 0.0
C1220 C 0.17532 0.86548 0.83143 0.0
C1221 C 0.1738 0.83511 0.80709 0.0
H1222 H 0.14618 0.82242 0.87359 0.0
C1223 C 0.14349 0.78272 0.82936 0.0
C1224 C 0.13076 0.77887 0.83165 0.0
C1225 C 0.1517 0.79531 0.8293 0.0
C1226 C 0.15379 0.82582 0.85461 0.0
H1227 H 0.21049 0.87645 0.82306 0.0
H1228 H 0.19673 0.85452 0.82497 0.0
H1229 H 0.15978 0.84447 0.87215 0.0
H1230 H 0.11663 0.78519 0.83547 0.0
H1231 H 0.13083 0.80698 0.83504 0.0
H1232 H 0.16779 0.81646 0.78952 0.0
C1233 C 0.19279 0.86096 0.82619 0.0
C1234 C 0.16157 0.83847 0.85375 0.0
C1235 C 0.20068 0.87356 0.82534 0.0
C1236 C 0.1264 0.78783 0.83382 0.0
C1237 C 0.13455 0.80035 0.83382 0.0
C1238 C 0.16602 0.82246 0.80796 0.0
C1239 C 0.18001 0.85674 0.82915 0.0
C1240 C 0.17166 0.84328 0.82992 0.0
C1241 C 0.1473 0.80427 0.83167 0.0
C1242 C 0.15588 0.81766 0.83162 0.0
H1243 H 0.1794 0.88463 0.83217 0.0
H1244 H 0.16551 0.86254 0.83337 0.0
H1245 H 0.18139 0.83852 0.78804 0.0
H1246 H 0.14712 0.77602 0.82771 0.0
H1247 H 0.16148 0.79802 0.82789 0.0
C1248 C 0.1202 0.30023 0.82515 0.0
C1249 C 0.11342 0.30645 0.83648 0.0
C1250 C 0.13312 0.3062 0.82585 0.0
C1251 C 0.1596 0.33319 0.86638 0.0
H1252 H 0.17773 0.3291 0.78505 0.0
C1253 C 0.21195 0.36383 0.84786 0.0
C1254 C 0.21893 0.35772 0.83737 0.0
C1255 C 0.19905 0.35762 0.84736 0.0
C1256 C 0.17282 0.33027 0.80813 0.0
H1257 H 0.11485 0.32375 0.85777 0.0
H1258 H 0.13717 0.33409 0.85865 0.0
H1259 H 0.15535 0.31769 0.78615 0.0
H1260 H 0.21788 0.34039 0.81766 0.0
H1261 H 0.19553 0.32965 0.81691 0.0
H1262 H 0.17706 0.34581 0.88826 0.0
C1263 C 0.13262 0.32459 0.84968 0.0
C1264 C 0.15998 0.32368 0.80882 0.0
C1265 C 0.11979 0.31866 0.84896 0.0
C1266 C 0.21277 0.34538 0.82586 0.0
C1267 C 0.19994 0.33922 0.82522 0.0
C1268 C 0.17243 0.33979 0.86564 0.0
C1269 C 0.13948 0.31848 0.838 0.0
C1270 C 0.15319 0.32508 0.83791 0.0
C1271 C 0.1929 0.34522 0.83616 0.0
C1272 C 0.17921 0.33842 0.8365 0.0
H1273 H 0.11555 0.29082 0.81538 0.0
H1274 H 0.13812 0.30117 0.81701 0.0
H1275 H 0.1547 0.33436 0.8895 0.0
H1276 H 0.21644 0.37333 0.85685 0.0
H1277 H 0.1939 0.36255 0.85559 0.0
C1278 C 0.79818 0.68087 0.64287 0.0
C1279 C 0.78633 0.67133 0.64851 0.0
C1280 C 0.80849 0.67862 0.64602 0.0
C1281 C 0.81867 0.6569 0.68745 0.0
H1282 H 0.84612 0.67218 0.62098 0.0
C1283 C 0.86026 0.64541 0.68578 0.0
C1284 C 0.87192 0.65547 0.68203 0.0
C1285 C 0.8496 0.64703 0.68179 0.0
C1286 C 0.83857 0.66793 0.63995 0.0
H1287 H 0.77591 0.65192 0.66119 0.0
H1288 H 0.79386 0.64795 0.66614 0.0
H1289 H 0.82791 0.67557 0.61291 0.0
H1290 H 0.88159 0.67513 0.67181 0.0
H1291 H 0.86304 0.67795 0.6651 0.0
H1292 H 0.82936 0.64926 0.71444 0.0
C1293 C 0.79524 0.65721 0.6599 0.0
C1294 C 0.82814 0.66989 0.63535 0.0
C1295 C 0.78495 0.65947 0.65682 0.0
C1296 C 0.87273 0.66719 0.67475 0.0
C1297 C 0.8621 0.6688 0.67064 0.0
C1298 C 0.82909 0.65492 0.69199 0.0
C1299 C 0.80714 0.66678 0.65481 0.0
C1300 C 0.8181 0.66446 0.65917 0.0
C1301 C 0.85042 0.65873 0.67381 0.0
C1302 C 0.83918 0.66049 0.66844 0.0
H1303 H 0.79952 0.69011 0.63657 0.0
H1304 H 0.81754 0.68622 0.64234 0.0
H1305 H 0.81117 0.65272 0.70659 0.0
H1306 H 0.85937 0.63628 0.69133 0.0
H1307 H 0.84072 0.63909 0.68417 0.0
C1308 C 0.34238 0.21357 0.66607 0.0
C1309 C 0.35524 0.21997 0.66239 0.0
C1310 C 0.3365 0.20072 0.66768 0.0
C1311 C 0.34165 0.17384 0.68982 0.0
H1312 H 0.31162 0.15575 0.63477 0.0
C1313 C 0.31969 0.12103 0.67675 0.0
C1314 C 0.30679 0.11439 0.67686 0.0
C1315 C 0.32539 0.13388 0.67533 0.0
C1316 C 0.31989 0.16065 0.65075 0.0
H1317 H 0.37202 0.21791 0.65763 0.0
H1318 H 0.3617 0.19534 0.66068 0.0
H1319 H 0.32218 0.17818 0.63106 0.0
H1320 H 0.28974 0.11603 0.67569 0.0
H1321 H 0.29971 0.13861 0.67391 0.0
H1322 H 0.33932 0.15638 0.70991 0.0
C1323 C 0.3562 0.20032 0.66241 0.0
C1324 C 0.32597 0.17351 0.6485 0.0
C1325 C 0.36211 0.21323 0.6605 0.0
C1326 C 0.29969 0.12091 0.6756 0.0
C1327 C 0.30542 0.13383 0.67436 0.0
C1328 C 0.33553 0.16099 0.69227 0.0
C1329 C 0.34332 0.19394 0.66589 0.0
C1330 C 0.33695 0.18025 0.66792 0.0
C1331 C 0.31836 0.14047 0.67423 0.0
C1332 C 0.3246 0.15421 0.67261 0.0
H1333 H 0.33682 0.21849 0.66763 0.0
H1334 H 0.32659 0.1961 0.67084 0.0
H1335 H 0.34997 0.17877 0.7056 0.0
H1336 H 0.32544 0.1163 0.67744 0.0
H1337 H 0.33534 0.13862 0.67453 0.0
C1338 C 0.78816 0.1473 0.66711 0.0
C1339 C 0.7847 0.1347 0.6723 0.0
C1340 C 0.80061 0.15588 0.66807 0.0
C1341 C 0.83132 0.16005 0.69965 0.0
H1342 H 0.8436 0.18531 0.62527 0.0
C1343 C 0.8835 0.19078 0.6777 0.0
C1344 C 0.88713 0.2033 0.67037 0.0
C1345 C 0.87099 0.18236 0.67808 0.0
C1346 C 0.84031 0.1784 0.6465 0.0
H1347 H 0.79154 0.12125 0.68325 0.0
H1348 H 0.81312 0.13613 0.68482 0.0
H1349 H 0.82173 0.17112 0.62721 0.0
H1350 H 0.88049 0.21679 0.65765 0.0
H1351 H 0.85883 0.20223 0.65873 0.0
H1352 H 0.84989 0.16733 0.71898 0.0
C1353 C 0.80628 0.13944 0.68029 0.0
C1354 C 0.82776 0.17028 0.64763 0.0
C1355 C 0.79389 0.1309 0.67917 0.0
C1356 C 0.87802 0.2072 0.66323 0.0
C1357 C 0.86557 0.19882 0.66364 0.0
C1358 C 0.84387 0.16819 0.69857 0.0
C1359 C 0.80982 0.15203 0.67447 0.0
C1360 C 0.82311 0.16098 0.67416 0.0
C1361 C 0.86187 0.18629 0.67112 0.0
C1362 C 0.84854 0.17747 0.67195 0.0
H1363 H 0.78129 0.1505 0.66176 0.0
H1364 H 0.80303 0.16553 0.66385 0.0
H1365 H 0.82802 0.15309 0.72073 0.0
H1366 H 0.89031 0.18751 0.68328 0.0
H1367 H 0.86848 0.17276 0.68354 0.0
C1368 C 0.99524 0.45819 0.49634 0.0
C1369 C 0.0067 0.45816 0.50129 0.0
C1370 C 0.99428 0.46925 0.4967 0.0
C1371 C 0.01039 0.50169 0.52652 0.0
H1372 H 0.98945 0.50654 0.45487 0.0
C1373 C 0.01029 0.54876 0.50452 0.0
C1374 C 0.99877 0.54871 0.50025 0.0
C1375 C 0.01129 0.53771 0.50439 0.0
C1376 C 0.99523 0.50528 0.47527 0.0
H1377 H 0.02614 0.46963 0.5108 0.0
H1378 H 0.02451 0.489 0.51107 0.0
H1379 H 0.99115 0.48724 0.45568 0.0
H1380 H 0.97927 0.53713 0.49219 0.0
H1381 H 0.981 0.5178 0.4921 0.0
H1382 H 0.01449 0.51975 0.54602 0.0
C1383 C 0.01623 0.48046 0.50734 0.0
C1384 C 0.9962 0.49422 0.47577 0.0
C1385 C 0.01718 0.46938 0.50702 0.0
C1386 C 0.98828 0.53743 0.49546 0.0
C1387 C 0.98928 0.52638 0.49525 0.0
C1388 C 0.00943 0.51276 0.52597 0.0
C1389 C 0.00478 0.48052 0.50195 0.0
C1390 C 0.00378 0.49229 0.50143 0.0
C1391 C 0.00079 0.5264 0.4999 0.0
C1392 C 0.00184 0.51467 0.50036 0.0
H1393 H 0.98698 0.44967 0.49201 0.0
H1394 H 0.9853 0.46897 0.49305 0.0
H1395 H 0.01616 0.50042 0.54696 0.0
H1396 H 0.01856 0.55733 0.50818 0.0
H1397 H 0.02031 0.53804 0.50754 0.0
C1398 C 0.46118 0.45609 0.50233 0.0
C1399 C 0.46586 0.44737 0.50027 0.0
C1400 C 0.46908 0.46869 0.50238 0.0
C1401 C 0.50116 0.49106 0.5213 0.0
H1402 H 0.49268 0.51334 0.46524 0.0
C1403 C 0.53557 0.54176 0.49814 0.0
C1404 C 0.53123 0.55074 0.49918 0.0
C1405 C 0.52741 0.52925 0.49911 0.0
C1406 C 0.4951 0.50727 0.48144 0.0
H1407 H 0.48251 0.44504 0.49655 0.0
H1408 H 0.4964 0.46714 0.49643 0.0
H1409 H 0.47902 0.49128 0.46446 0.0
H1410 H 0.51488 0.55365 0.50218 0.0
H1411 H 0.50051 0.53166 0.50418 0.0
H1412 H 0.51723 0.50703 0.53828 0.0
C1413 C 0.48659 0.46419 0.49835 0.0
C1414 C 0.48729 0.49462 0.48093 0.0
C1415 C 0.47865 0.45154 0.49822 0.0
C1416 C 0.51849 0.54693 0.5013 0.0
C1417 C 0.51028 0.53435 0.50225 0.0
C1418 C 0.50896 0.50371 0.52185 0.0
C1419 C 0.48188 0.47291 0.50041 0.0
C1420 C 0.49025 0.48636 0.50076 0.0
C1421 C 0.51466 0.52536 0.50119 0.0
C1422 C 0.50607 0.51197 0.50178 0.0
H1423 H 0.45136 0.45318 0.50405 0.0
H1424 H 0.46516 0.47513 0.50452 0.0
H1425 H 0.5036 0.48499 0.53739 0.0
H1426 H 0.54534 0.54437 0.49635 0.0
H1427 H 0.53111 0.5226 0.4976 0.0
C1428 C 0.54681 0.01429 0.50035 0.0
C1429 C 0.55332 0.02663 0.51153 0.0
C1430 C 0.534 0.00867 0.49817 0.0
C1431 C 0.5071 0.01514 0.49103 0.0
H1432 H 0.48925 0.98149 0.52532 0.0
C1433 C 0.45431 0.99158 0.50479 0.0
C1434 C 0.44785 0.97916 0.49425 0.0
C1435 C 0.46713 0.99726 0.50711 0.0
C1436 C 0.49409 0.99083 0.5152 0.0
H1437 H 0.55147 0.04282 0.52881 0.0
H1438 H 0.52893 0.03295 0.52513 0.0
H1439 H 0.51165 0.99186 0.52923 0.0
H1440 H 0.4498 0.96293 0.47816 0.0
H1441 H 0.47232 0.9729 0.4819 0.0
H1442 H 0.48955 0.01411 0.4769 0.0
C1443 C 0.53381 0.02766 0.5178 0.0
C1444 C 0.50694 0.99679 0.5175 0.0
C1445 C 0.54671 0.0333 0.52003 0.0
C1446 C 0.45452 0.9725 0.48645 0.0
C1447 C 0.46741 0.97821 0.48873 0.0
C1448 C 0.49425 0.00918 0.48869 0.0
C1449 C 0.52731 0.01523 0.50713 0.0
C1450 C 0.51361 0.00902 0.50538 0.0
C1451 C 0.47387 0.9907 0.49885 0.0
C1452 C 0.48757 0.99694 0.50078 0.0
H1453 H 0.55162 0.0089 0.49341 0.0
H1454 H 0.52932 0.99917 0.4892 0.0
H1455 H 0.51194 0.02448 0.48094 0.0
H1456 H 0.44945 0.99697 0.5112 0.0
H1457 H 0.47175 0.0068 0.51567 0.0
C1458 C 0.45679 0.99433 0.99559 0.0
C1459 C 0.45718 0.00588 0.98851 0.0
C1460 C 0.46767 0.99317 -0.00027 0.0
C1461 C 0.50109 0.00898 0.98109 0.0
H1462 H 0.50292 0.98841 0.05942 0.0
C1463 C 0.5469 0.00937 0.0231 0.0
C1464 C 0.54676 0.99784 0.02846 0.0
C1465 C 0.5359 0.01033 0.01972 0.0
C1466 C 0.50252 0.9941 0.03725 0.0
H1467 H 0.46921 0.02524 0.97952 0.0
H1468 H 0.48822 0.02326 0.98706 0.0
H1469 H 0.4838 0.98996 0.04886 0.0
H1470 H 0.53503 0.97831 0.03573 0.0
H1471 H 0.51577 0.97998 0.02976 0.0
H1472 H 0.51981 0.01316 0.96958 0.0
C1473 C 0.47952 0.01506 0.98902 0.0
C1474 C 0.49156 0.99497 0.03112 0.0
C1475 C 0.46864 0.01621 0.98482 0.0
C1476 C 0.53541 0.98733 0.03167 0.0
C1477 C 0.52439 0.98829 0.02835 0.0
C1478 C 0.51204 0.00814 0.98727 0.0
C1479 C 0.47917 0.00355 0.99692 0.0
C1480 C 0.49073 0.00244 0.00299 0.0
C1481 C 0.52453 0.99978 0.02168 0.0
C1482 C 0.51289 1.00071 0.01547 0.0
H1483 H 0.44808 0.9862 0.99847 0.0
H1484 H 0.46709 0.98414 0.0052 0.0
H1485 H 0.5007 0.01466 0.95885 0.0
H1486 H 0.55551 0.01765 0.02066 0.0
H1487 H 0.53629 0.01933 0.01523 0.0
C1488 C 0.0255 0.54419 0.98618 0.0
C1489 C 0.01902 0.55069 0.99769 0.0
C1490 C 0.01978 0.53127 0.98599 0.0
C1491 C 0.98877 0.50444 0.98612 0.0
H1492 H 0.00695 0.48617 0.01208 0.0
C1493 C 0.9659 0.45107 0.00321 0.0
C1494 C 0.97243 0.44502 0.98855 0.0
C1495 C 0.97128 0.46399 0.00454 0.0
C1496 C 0.00176 0.49114 0.00447 0.0
H1497 H 0.00159 0.54878 0.01891 0.0
H1498 H 0.99176 0.52638 0.01935 0.0
H1499 H 0.01714 0.50861 0.01448 0.0
H1500 H 0.98957 0.44776 0.96299 0.0
H1501 H 0.99884 0.47011 0.96513 0.0
H1502 H 0.97337 0.48691 0.97633 0.0
C1503 C 0.00114 0.53117 0.00963 0.0
C1504 C 0.00762 0.50402 0.00576 0.0
C1505 C 0.00681 0.54404 0.00964 0.0
C1506 C 0.9843 0.45212 0.97463 0.0
C1507 C 0.98967 0.46496 0.97609 0.0
C1508 C 0.98289 0.49155 0.985 0.0
C1509 C 0.00748 0.52459 0.99746 0.0
C1510 C 0.00122 0.51085 0.99644 0.0
C1511 C 0.98331 0.47106 0.99143 0.0
C1512 C 0.98935 0.48475 0.99392 0.0
H1513 H 0.0349 0.54906 0.9767 0.0
H1514 H 0.02492 0.52652 0.97608 0.0
H1515 H 0.98359 0.50938 0.9782 0.0
H1516 H 0.95675 0.44584 0.01423 0.0
H1517 H 0.96616 0.46843 0.01665 0.0
C1518 C 0.45521 0.46146 0.99651 0.0
C1519 C 0.44643 0.46603 0.99909 0.0
C1520 C 0.46776 0.46946 0.99594 0.0
C1521 C 0.4899 0.50166 0.97687 0.0
H1522 H 0.51253 0.49288 0.02991 0.0
C1523 C 0.54123 0.53539 0.99505 0.0
C1524 C 0.5499 0.53068 0.99235 0.0
C1525 C 0.52864 0.5275 0.99544 0.0
C1526 C 0.50636 0.49539 0.01457 0.0
H1527 H 0.44394 0.48262 0.00316 0.0
H1528 H 0.46599 0.4967 0.00247 0.0
H1529 H 0.49049 0.47941 0.03248 0.0
H1530 H 0.55217 0.51399 0.98774 0.0
H1531 H 0.53008 0.50011 0.98819 0.0
H1532 H 0.50578 0.51766 0.95901 0.0
C1533 C 0.46311 0.48688 0.00051 0.0
C1534 C 0.49371 0.48768 0.0161 0.0
C1535 C 0.45049 0.47883 0.00111 0.0
C1536 C 0.5457 0.51788 0.9899 0.0
C1537 C 0.53306 0.50995 0.99036 0.0
C1538 C 0.50256 0.50937 0.97537 0.0
C1539 C 0.47189 0.48227 0.99799 0.0
C1540 C 0.48532 0.4907 0.99719 0.0
C1541 C 0.52438 0.51468 0.99317 0.0
C1542 C 0.51094 0.50633 0.99419 0.0
H1543 H 0.45239 0.45165 0.99475 0.0
H1544 H 0.47423 0.46559 0.99334 0.0
H1545 H 0.48373 0.50417 0.96152 0.0
H1546 H 0.54416 0.54522 0.9971 0.0
H1547 H 0.52225 0.53145 0.99818 0.0
C1548 C 0.41327 0.04483 0.00027 0.0
C1549 C 0.4239 0.04347 0.00829 0.0
C1550 C 0.41151 0.05445 0.01564 0.0
C1551 C 0.41162 0.07799 0.04513 0.0
H1552 H 0.41271 0.07615 0.15037 0.0
C1553 C 0.38899 0.10062 0.13559 0.0
C1554 C 0.37988 0.09179 0.15765 0.0
C1555 C 0.3981 0.0981 0.11985 0.0
C1556 C 0.41255 0.07692 0.12103 0.0
H1557 H 0.44139 0.05147 0.0368 0.0
H1558 H 0.43817 0.0682 0.06436 0.0
H1559 H 0.42207 0.0659 0.11308 0.0
H1560 H 0.3737 0.07387 0.18297 0.0
H1561 H 0.3897 0.06954 0.15594 0.0
H1562 H 0.4015 0.08843 0.05306 0.0
C1563 C 0.43126 0.06185 0.046 0.0
C1564 C 0.41797 0.07114 0.0997 0.0
C1565 C 0.43311 0.05233 0.03013 0.0
C1566 C 0.38059 0.08082 0.16598 0.0
C1567 C 0.38979 0.07838 0.15067 0.0
C1568 C 0.40632 0.08389 0.06646 0.0
C1569 C 0.42028 0.06278 0.0397 0.0
C1570 C 0.41712 0.07121 0.06157 0.0
C1571 C 0.39835 0.0868 0.12641 0.0
C1572 C 0.40632 0.08299 0.10459 0.0
H1573 H 0.40604 0.03813 0.98346 0.0
H1574 H 0.40291 0.05488 0.01058 0.0
H1575 H 0.41089 0.07821 0.01579 0.0
H1576 H 0.38865 0.10916 0.12871 0.0
H1577 H 0.40464 0.10476 0.10138 0.0
C1578 C 0.89183 0.29542 0.17145 0.0
C1579 C 0.88973 0.28628 0.14517 0.0
C1580 C 0.89275 0.30691 0.16132 0.0
C1581 C 0.88915 0.32504 0.0836 0.0
H1582 H 0.91792 0.35144 0.12717 0.0
C1583 C 0.91945 0.37076 0.01208 0.0
C1584 C 0.9263 0.38133 0.03307 0.0
C1585 C 0.91146 0.35972 0.02872 0.0
C1586 C 0.90967 0.34428 0.11523 0.0
H1587 H 0.88612 0.2817 0.08803 0.0
H1588 H 0.88799 0.30184 0.0701 0.0
H1589 H 0.91034 0.33075 0.15106 0.0
H1590 H 0.92919 0.38894 0.08756 0.0
H1591 H 0.91507 0.3697 0.11663 0.0
H1592 H 0.88893 0.33862 0.0466 0.0
C1593 C 0.88875 0.30012 0.09867 0.0
C1594 C 0.9053 0.33234 0.12898 0.0
C1595 C 0.88771 0.28856 0.10891 0.0
C1596 C 0.92409 0.38095 0.07066 0.0
C1597 C 0.91608 0.36988 0.08734 0.0
C1598 C 0.89356 0.33703 0.06976 0.0
C1599 C 0.89173 0.30959 0.12458 0.0
C1600 C 0.89516 0.32249 0.11285 0.0
C1601 C 0.91013 0.359 0.06676 0.0
C1602 C 0.90406 0.34674 0.08487 0.0
H1603 H 0.89331 0.29388 0.19969 0.0
H1604 H 0.89474 0.31386 0.18214 0.0
H1605 H 0.88121 0.31772 0.07085 0.0
H1606 H 0.92092 0.37077 0.98302 0.0
H1607 H 0.90709 0.35155 0.01196 0.0
C1608 C 0.70089 0.58798 0.14267 0.0
C1609 C 0.7123 0.59093 0.12636 0.0
C1610 C 0.69006 0.57904 0.12747 0.0
C1611 C 0.67802 0.56761 0.03764 0.0
H1612 H 0.6481 0.54919 0.09241 0.0
C1613 C 0.62123 0.54357 0.02097 0.0
C1614 C 0.6205 0.55349 0.00322 0.0
C1615 C 0.63268 0.54436 0.03139 0.0
C1616 C 0.65636 0.55403 0.07643 0.0
H1617 H 0.72149 0.58626 0.08286 0.0
H1618 H 0.70244 0.57055 0.05591 0.0
H1619 H 0.668 0.55649 0.12264 0.0
H1620 H 0.63117 0.57167 0.98038 0.0
H1621 H 0.651 0.57307 0.9984 0.0
H1622 H 0.66637 0.56554 0.99175 0.0
C1623 C 0.70189 0.5752 0.0805 0.0
C1624 C 0.66778 0.55832 0.09388 0.0
C1625 C 0.7128 0.5841 0.09607 0.0
C1626 C 0.63143 0.56388 0.99413 0.0
C1627 C 0.64283 0.56463 0.00423 0.0
C1628 C 0.66661 0.56331 0.02018 0.0
C1629 C 0.69037 0.5729 0.09532 0.0
C1630 C 0.6787 0.56565 0.0751 0.0
C1631 C 0.64361 0.55505 0.02388 0.0
C1632 C 0.65563 0.55697 0.03978 0.0
H1633 H 0.70025 0.59311 0.16606 0.0
H1634 H 0.68139 0.57764 0.13947 0.0
H1635 H 0.68623 0.57326 0.02231 0.0
H1636 H 0.61294 0.53545 0.02834 0.0
H1637 H 0.63298 0.53678 0.04626 0.0
C1638 C 0.05149 0.42832 0.47197 0.0
C1639 C 0.04068 0.41945 0.48808 0.0
C1640 C 0.0609 0.42524 0.46191 0.0
C1641 C 0.07157 0.40093 0.47076 0.0
H1642 H 0.07795 0.40589 0.36717 0.0
C1643 C 0.072 0.36559 0.37057 0.0
C1644 C 0.08377 0.36723 0.36025 0.0
C1645 C 0.07047 0.37509 0.38751 0.0
C1646 C 0.07656 0.40474 0.3963 0.0
H1647 H 0.03159 0.4008 0.50893 0.0
H1648 H 0.04792 0.39545 0.49164 0.0
H1649 H 0.06882 0.41751 0.39924 0.0
H1650 H 0.10311 0.38024 0.35821 0.0
H1651 H 0.10031 0.39706 0.38773 0.0
H1652 H 0.07831 0.38735 0.46688 0.0
C1653 C 0.04922 0.40477 0.48674 0.0
C1654 C 0.07137 0.41138 0.41471 0.0
C1655 C 0.03981 0.40779 0.49637 0.0
C1656 C 0.09394 0.37875 0.36585 0.0
C1657 C 0.09238 0.38833 0.38272 0.0
C1658 C 0.07672 0.39429 0.45233 0.0
C1659 C 0.05969 0.41332 0.46832 0.0
C1660 C 0.06826 0.40908 0.45174 0.0
C1661 C 0.08065 0.38642 0.39419 0.0
C1662 C 0.07876 0.39581 0.41476 0.0
H1663 H 0.05238 0.43738 0.46531 0.0
H1664 H 0.06889 0.43202 0.4479 0.0
H1665 H 0.0694 0.39908 0.49937 0.0
H1666 H 0.06399 0.35682 0.36668 0.0
H1667 H 0.06136 0.37351 0.39617 0.0
C1668 C 0.58703 0.70652 0.33486 0.0
C1669 C 0.59098 0.71629 0.35984 0.0
C1670 C 0.5789 0.69461 0.3456 0.0
C1671 C 0.5604 0.67495 0.42266 0.0
H1672 H 0.57654 0.65497 0.39381 0.0
C1673 C 0.54752 0.62319 0.46342 0.0
C1674 C 0.55777 0.62188 0.47665 0.0
C1675 C 0.54895 0.63457 0.44971 0.0
C1676 C 0.57186 0.66039 0.40187 0.0
H1677 H 0.58871 0.72157 0.41451 0.0
H1678 H 0.57475 0.70065 0.43377 0.0
H1679 H 0.58259 0.67492 0.36573 0.0
H1680 H 0.57733 0.63164 0.48814 0.0
H1681 H 0.57978 0.65127 0.46403 0.0
H1682 H 0.54999 0.6603 0.46002 0.0
C1683 C 0.5777 0.70219 0.40567 0.0
C1684 C 0.57522 0.67179 0.3855 0.0
C1685 C 0.58569 0.71419 0.39465 0.0
C1686 C 0.56927 0.63229 0.47785 0.0
C1687 C 0.57069 0.64354 0.46402 0.0
C1688 C 0.55693 0.66339 0.43891 0.0
C1689 C 0.57483 0.69218 0.38184 0.0
C1690 C 0.56973 0.67935 0.39609 0.0
C1691 C 0.56065 0.64471 0.44886 0.0
C1692 C 0.5629 0.65619 0.42923 0.0
H1693 H 0.59095 0.70794 0.3078 0.0
H1694 H 0.5766 0.68715 0.32629 0.0
H1695 H 0.55599 0.68055 0.43138 0.0
H1696 H 0.53854 0.61532 0.46219 0.0
H1697 H 0.54108 0.63528 0.4381 0.0
C1698 C 0.30129 0.90526 0.32577 0.0
C1699 C 0.29093 0.8939 0.33082 0.0
C1700 C 0.31307 0.90659 0.33335 0.0
C1701 C 0.32889 0.89344 0.39116 0.0
H1702 H 0.35732 0.91825 0.34186 0.0
C1703 C 0.38497 0.92675 0.40945 0.0
C1704 C 0.38449 0.93003 0.44585 0.0
C1705 C 0.37427 0.91834 0.39177 0.0
C1706 C 0.34958 0.91106 0.35564 0.0
H1707 H 0.28485 0.87483 0.34633 0.0
H1708 H 0.30559 0.87711 0.35945 0.0
H1709 H 0.33712 0.91101 0.3144 0.0
H1710 H 0.37276 0.92618 0.49326 0.0
H1711 H 0.35423 0.91186 0.46267 0.0
H1712 H 0.34136 0.89356 0.43255 0.0
C1713 C 0.30453 0.88504 0.34992 0.0
C1714 C 0.33792 0.90704 0.34006 0.0
C1715 C 0.29267 0.88371 0.34222 0.0
C1716 C 0.37342 0.9239 0.46511 0.0
C1717 C 0.36275 0.91557 0.44749 0.0
C1718 C 0.34059 0.89737 0.40658 0.0
C1719 C 0.31487 0.89657 0.34616 0.0
C1720 C 0.32736 0.89863 0.35847 0.0
C1721 C 0.36289 0.9131 0.41013 0.0
C1722 C 0.35103 0.90668 0.38989 0.0
H1723 H 0.30028 0.9133 0.31701 0.0
H1724 H 0.32072 0.91566 0.33073 0.0
H1725 H 0.32099 0.88693 0.40612 0.0
H1726 H 0.39338 0.93129 0.39392 0.0
H1727 H 0.3748 0.91644 0.36321 0.0
C1728 C 0.59147 0.96051 0.99845 0.0
C1729 C 0.58085 0.96204 0.99171 0.0
C1730 C 0.59321 0.95119 0.98097 0.0
C1731 C 0.59238 0.92764 0.94859 0.0
H1732 H 0.59194 0.93088 0.84364 0.0
C1733 C 0.61322 0.90394 0.85571 0.0
C1734 C 0.62278 0.91265 0.83461 0.0
C1735 C 0.60447 0.90697 0.87163 0.0
C1736 C 0.59192 0.92973 0.87287 0.0
H1737 H 0.56345 0.95473 0.96276 0.0
H1738 H 0.56666 0.93855 0.93142 0.0
H1739 H 0.58316 0.94141 0.88223 0.0
H1740 H 0.6301 0.93092 0.81099 0.0
H1741 H 0.61472 0.93614 0.83828 0.0
H1742 H 0.60167 0.91647 0.93937 0.0
C1743 C 0.57355 0.94451 0.95051 0.0
C1744 C 0.58684 0.93568 0.89492 0.0
C1745 C 0.57171 0.95371 0.96854 0.0
C1746 C 0.62285 0.92405 0.82723 0.0
C1747 C 0.61401 0.92701 0.84271 0.0
C1748 C 0.5973 0.92157 0.92655 0.0
C1749 C 0.58445 0.94336 0.95599 0.0
C1750 C 0.58744 0.93504 0.93299 0.0
C1751 C 0.60503 0.91868 0.86619 0.0
C1752 C 0.59751 0.92292 0.88854 0.0
H1753 H 0.59865 0.96682 0.0162 0.0
H1754 H 0.60175 0.95058 0.98541 0.0
H1755 H 0.59291 0.927 0.97788 0.0
H1756 H 0.61296 0.89508 0.86185 0.0
H1757 H 0.5976 0.90037 0.88946 0.0
C1758 C 0.09284 0.69688 0.83715 0.0
C1759 C 0.10417 0.70731 0.84185 0.0
C1760 C 0.09161 0.68514 0.84512 0.0
C1761 C 0.10496 0.66956 0.90305 0.0
H1762 H 0.08043 0.64095 0.85331 0.0
C1763 C 0.07479 0.62479 0.97626 0.0
C1764 C 0.06864 0.61376 0.95666 0.0
C1765 C 0.08312 0.6355 0.95893 0.0
C1766 C 0.08754 0.64874 0.86723 0.0
H1767 H 0.12326 0.71358 0.8573 0.0
H1768 H 0.12114 0.69292 0.87115 0.0
H1769 H 0.08747 0.66116 0.82603 0.0
H1770 H 0.06747 0.60495 0.90454 0.0
H1771 H 0.08236 0.62359 0.87442 0.0
H1772 H 0.10497 0.65712 0.9444 0.0
C1773 C 0.11317 0.69388 0.86155 0.0
C1774 C 0.09146 0.66041 0.85175 0.0
C1775 C 0.11441 0.7057 0.85345 0.0
C1776 C 0.07199 0.61334 0.92032 0.0
C1777 C 0.08043 0.62407 0.90297 0.0
C1778 C 0.10114 0.65785 0.91839 0.0
C1779 C 0.10169 0.68347 0.85797 0.0
C1780 C 0.09975 0.67102 0.8703 0.0
C1781 C 0.08562 0.63544 0.92158 0.0
C1782 C 0.09194 0.64735 0.90152 0.0
H1783 H 0.08477 0.69779 0.82827 0.0
H1784 H 0.08257 0.67743 0.84266 0.0
H1785 H 0.1114 0.6775 0.91809 0.0
H1786 H 0.07246 0.62541 0.00438 0.0
H1787 H 0.08681 0.64401 0.97431 0.0
C1788 C 0.37378 0.4515 0.98269 0.0
C1789 C 0.37514 0.441 0.99301 0.0
C1790 C 0.36205 0.45063 0.97546 0.0
C1791 C 0.32848 0.42939 0.98559 0.0
H1792 H 0.32514 0.44422 0.89551 0.0
C1793 C 0.28124 0.4114 0.91909 0.0
C1794 C 0.2814 0.40853 0.88212 0.0
C1795 C 0.29209 0.41955 0.9366 0.0
C1796 C 0.32588 0.44002 0.92079 0.0
H1797 H 0.36528 0.4215 0.00517 0.0
H1798 H 0.34508 0.41993 0.9922 0.0
H1799 H 0.34555 0.4499 0.92059 0.0
H1800 H 0.29271 0.41298 0.83367 0.0
H1801 H 0.31153 0.42679 0.86397 0.0
H1802 H 0.309 0.41871 0.98438 0.0
C1803 C 0.35292 0.4289 0.99014 0.0
C1804 C 0.33761 0.44341 0.93547 0.0
C1805 C 0.36456 0.42977 0.99728 0.0
C1806 C 0.29229 0.41493 0.86225 0.0
C1807 C 0.30313 0.42296 0.87975 0.0
C1808 C 0.3168 0.42589 0.97073 0.0
C1809 C 0.35149 0.43925 0.97861 0.0
C1810 C 0.33908 0.43773 0.96723 0.0
C1811 C 0.30333 0.42489 0.91755 0.0
C1812 C 0.31536 0.43077 0.9373 0.0
H1813 H 0.38178 0.46029 0.9792 0.0
H1814 H 0.36128 0.4588 0.96691 0.0
H1815 H 0.32924 0.42506 0.01062 0.0
H1816 H 0.27296 0.40668 0.9351 0.0
H1817 H 0.29179 0.42108 0.96551 0.0
C1818 C 0.90133 0.60935 0.65985 0.0
C1819 C 0.91025 0.62021 0.67572 0.0
C1820 C 0.90443 0.60004 0.64875 0.0
C1821 C 0.91762 0.58935 0.59986 0.0
H1822 H 0.9422 0.58254 0.64909 0.0
C1823 C 0.95618 0.58408 0.52591 0.0
C1824 C 0.96138 0.57681 0.54088 0.0
C1825 C 0.94637 0.58495 0.54319 0.0
C1826 C 0.93513 0.58406 0.63513 0.0
H1827 H 0.9291 0.62949 0.6949 0.0
H1828 H 0.9345 0.61335 0.67573 0.0
H1829 H 0.93134 0.59202 0.68257 0.0
H1830 H 0.95984 0.56404 0.58413 0.0
H1831 H 0.94264 0.56556 0.61438 0.0
H1832 H 0.92176 0.58183 0.55203 0.0
C1833 C 0.92511 0.61192 0.67185 0.0
C1834 C 0.92899 0.5896 0.65428 0.0
C1835 C 0.92205 0.62124 0.68259 0.0
C1836 C 0.95605 0.56978 0.5721 0.0
C1837 C 0.94624 0.57068 0.58949 0.0
C1838 C 0.92376 0.58379 0.5807 0.0
C1839 C 0.91647 0.6014 0.65377 0.0
C1840 C 0.92059 0.59282 0.63641 0.0
C1841 C 0.94156 0.5786 0.57586 0.0
C1842 C 0.93298 0.5816 0.59772 0.0
H1843 H 0.89215 0.60832 0.65427 0.0
H1844 H 0.89756 0.59198 0.63512 0.0
H1845 H 0.91121 0.59173 0.58526 0.0
H1846 H 0.96007 0.58957 0.5018 0.0
H1847 H 0.9431 0.59125 0.53214 0.0
C1848 C 0.45189 0.37598 0.53581 0.0
C1849 C 0.44363 0.37701 0.5108 0.0
C1850 C 0.45083 0.36436 0.54541 0.0
C1851 C 0.43707 0.33147 0.51959 0.0
H1852 H 0.43021 0.32516 0.62239 0.0
C1853 C 0.40488 0.28371 0.57484 0.0
C1854 C 0.40517 0.28111 0.61194 0.0
C1855 C 0.41338 0.29496 0.56046 0.0
C1856 C 0.43244 0.3267 0.59377 0.0
H1857 H 0.42839 0.36687 0.47436 0.0
H1858 H 0.42676 0.34665 0.49035 0.0
H1859 H 0.43852 0.34611 0.59986 0.0
H1860 H 0.41541 0.28756 0.66212 0.0
H1861 H 0.43073 0.30687 0.63663 0.0
H1862 H 0.43088 0.31207 0.51326 0.0
C1863 C 0.43397 0.35476 0.50277 0.0
C1864 C 0.43717 0.33878 0.58085 0.0
C1865 C 0.43486 0.36633 0.49379 0.0
C1866 C 0.41491 0.28938 0.63347 0.0
C1867 C 0.42359 0.30054 0.6189 0.0
C1868 C 0.43255 0.31939 0.53258 0.0
C1869 C 0.44169 0.35363 0.52948 0.0
C1870 C 0.43911 0.34124 0.54351 0.0
C1871 C 0.42253 0.30379 0.58271 0.0
C1872 C 0.4297 0.31676 0.5697 0.0
H1873 H 0.4587 0.38407 0.54944 0.0
H1874 H 0.45689 0.36371 0.56607 0.0
H1875 H 0.4386 0.33315 0.49066 0.0
H1876 H 0.39742 0.27755 0.55761 0.0
H1877 H 0.41211 0.29705 0.5326 0.0
C1878 C 0.62058 0.07685 0.59241 0.0
C1879 C 0.61708 0.07569 0.55561 0.0
C1880 C 0.63259 0.08496 0.60283 0.0
C1881 C 0.65915 0.10334 0.61974 0.0
H1882 H 0.68101 0.09824 0.55234 0.0
C1883 C 0.71182 0.11737 0.64487 0.0
C1884 C 0.71442 0.10724 0.64001 0.0
C1885 C 0.70031 0.11654 0.63459 0.0
C1886 C 0.67506 0.0999 0.57125 0.0
H1887 H 0.62284 0.08323 0.50167 0.0
H1888 H 0.64363 0.09767 0.51998 0.0
H1889 H 0.65986 0.09238 0.53469 0.0
H1890 H 0.70697 0.08834 0.62088 0.0
H1891 H 0.6872 0.08702 0.60268 0.0
H1892 H 0.67443 0.11024 0.65703 0.0
C1893 C 0.63728 0.09202 0.54065 0.0
C1894 C 0.66294 0.09665 0.56104 0.0
C1895 C 0.62532 0.08382 0.53018 0.0
C1896 C 0.7053 0.09632 0.625 0.0
C1897 C 0.69398 0.09557 0.61434 0.0
C1898 C 0.67138 0.10668 0.62991 0.0
C1899 C 0.64128 0.09215 0.57667 0.0
C1900 C 0.65468 0.09794 0.58552 0.0
C1901 C 0.69138 0.10567 0.61871 0.0
C1902 C 0.6793 0.10455 0.60616 0.0
H1903 H 0.61444 0.07069 0.61267 0.0
H1904 H 0.63531 0.08477 0.6308 0.0
H1905 H 0.65307 0.10457 0.63914 0.0
H1906 H 0.71867 0.12589 0.65645 0.0
H1907 H 0.69849 0.12444 0.6383 0.0
C1908 C 0.71261 0.74734 0.83358 0.0
C1909 C 0.71025 0.75729 0.82385 0.0
C1910 C 0.72179 0.74544 0.81583 0.0
C1911 C 0.73502 0.75004 0.72582 0.0
H1912 H 0.75385 0.73434 0.76735 0.0
C1913 C 0.76325 0.72048 0.68176 0.0
C1914 C 0.75383 0.71123 0.66151 0.0
C1915 C 0.76126 0.72982 0.69842 0.0
C1916 C 0.74887 0.73895 0.75528 0.0
H1917 H 0.71633 0.77367 0.79027 0.0
H1918 H 0.73236 0.7703 0.7592 0.0
H1919 H 0.74492 0.74432 0.80732 0.0
H1920 H 0.73536 0.70503 0.6402 0.0
H1921 H 0.73195 0.72139 0.66873 0.0
H1922 H 0.73842 0.74411 0.67395 0.0
C1923 C 0.72703 0.76392 0.78028 0.0
C1924 C 0.74368 0.74456 0.7782 0.0
C1925 C 0.7179 0.76587 0.79821 0.0
C1926 C 0.74278 0.71204 0.65571 0.0
C1927 C 0.74085 0.72144 0.67194 0.0
C1928 C 0.74013 0.74435 0.70295 0.0
C1929 C 0.72874 0.75343 0.78793 0.0
C1930 C 0.73636 0.7498 0.76378 0.0
C1931 C 0.74989 0.73014 0.69459 0.0
C1932 C 0.74674 0.73838 0.71756 0.0
H1933 H 0.70688 0.7406 0.85332 0.0
H1934 H 0.72281 0.73722 0.82218 0.0
H1935 H 0.72934 0.75391 0.71388 0.0
H1936 H 0.77186 0.72007 0.68673 0.0
H1937 H 0.76841 0.73646 0.71554 0.0
C1938 C 0.22828 0.96363 0.82067 0.0
C1939 C 0.21844 0.95258 0.80925 0.0
C1940 C 0.22918 0.97496 0.80912 0.0
C1941 C 0.22123 0.98829 0.7309 0.0
H1942 H 0.23712 0.01814 0.78831 0.0
C1943 C 0.24987 0.04507 0.71581 0.0
C1944 C 0.25814 0.04516 0.68898 0.0
C1945 C 0.24078 0.03385 0.729 0.0
C1946 C 0.23242 0.00992 0.77192 0.0
H1947 H 0.20147 0.94471 0.77825 0.0
H1948 H 0.20308 0.96463 0.75765 0.0
H1949 H 0.22873 0.99815 0.81837 0.0
H1950 H 0.26275 0.03376 0.65268 0.0
H1951 H 0.24696 0.01433 0.67523 0.0
H1952 H 0.22537 1.00006 0.68429 0.0
C1953 C 0.21011 0.96448 0.77558 0.0
C1954 C 0.22773 0.99845 0.78915 0.0
C1955 C 0.20915 0.9531 0.78752 0.0
C1956 C 0.25651 0.03395 0.67345 0.0
C1957 C 0.24739 0.0228 0.68628 0.0
C1958 C 0.22594 0.99977 0.71365 0.0
C1959 C 0.2203 0.97553 0.7856 0.0
C1960 C 0.22257 0.98751 0.76867 0.0
C1961 C 0.23973 0.02258 0.71521 0.0
C1962 C 0.23207 0.0107 0.73381 0.0
H1963 H 0.23557 0.96352 0.83748 0.0
H1964 H 0.23723 0.98325 0.81701 0.0
H1965 H 0.21734 0.98005 0.71427 0.0
H1966 H 0.25096 0.05358 0.72835 0.0
H1967 H 0.23494 0.03399 0.75109 0.0
C1968 C 0.04107 0.24894 0.81836 0.0
C1969 C 0.04966 0.25704 0.79356 0.0
C1970 C 0.02929 0.24064 0.80671 0.0
C1971 C 0.00909 0.22844 0.72442 0.0
H1972 H 0.98471 0.23089 0.78757 0.0
C1973 C 0.96333 0.22624 0.67341 0.0
C1974 C 0.95297 0.22152 0.69621 0.0
C1975 C 0.97449 0.2267 0.68506 0.0
C1976 C 0.9913 0.22983 0.76987 0.0
H1977 H 0.05303 0.26201 0.73661 0.0
H1978 H 0.03249 0.24775 0.71636 0.0
H1979 H 0.00576 0.23844 0.80853 0.0
H1980 H 0.94595 0.21283 0.7482 0.0
H1981 H 0.96549 0.21359 0.76862 0.0
H1982 H 0.99461 0.22037 0.68506 0.0
C1983 C 0.03481 0.24765 0.74477 0.0
C1984 C 0.00344 0.23416 0.78195 0.0
C1985 C 0.04663 0.25586 0.75639 0.0
C1986 C 0.95379 0.21655 0.73005 0.0
C1987 C 0.965 0.21706 0.74182 0.0
C1988 C 0.99693 0.22414 0.71227 0.0
C1989 C 0.0258 0.24035 0.77005 0.0
C1990 C 0.01259 0.23383 0.75907 0.0
C1991 C 0.97558 0.22249 0.71989 0.0
C1992 C 0.98796 0.22508 0.73452 0.0
H1993 H 0.04317 0.24957 0.84716 0.0
H1994 H 0.02271 0.23493 0.8268 0.0
H1995 H 0.01583 0.22784 0.70627 0.0
H1996 H 0.96299 0.23013 0.64713 0.0
H1997 H 0.98245 0.23105 0.66757 0.0
C1998 C 0.295 0.26132 0.16851 0.0
C1999 C 0.29609 0.2506 0.1775 0.0
C2000 C 0.2853 0.26326 0.18223 0.0
C2001 C 0.2618 0.2638 0.20861 0.0
H2002 H 0.26273 0.263 0.31405 0.0
C2003 C 0.24054 0.28869 0.29578 0.0
C2004 C 0.24964 0.29767 0.31761 0.0
C2005 C 0.24249 0.27911 0.28073 0.0
C2006 C 0.26219 0.26306 0.28463 0.0
H2007 H 0.28752 0.23313 0.20595 0.0
H2008 H 0.27063 0.23667 0.2307 0.0
H2009 H 0.27264 0.25288 0.27859 0.0
H2010 H 0.26743 0.30322 0.34312 0.0
H2011 H 0.27074 0.28639 0.31744 0.0
H2012 H 0.252 0.27463 0.21471 0.0
C2013 C 0.27726 0.24351 0.21282 0.0
C2014 C 0.26778 0.25721 0.26433 0.0
C2015 C 0.28688 0.24148 0.19858 0.0
C2016 C 0.26029 0.29643 0.32629 0.0
C2017 C 0.26214 0.28675 0.31178 0.0
C2018 C 0.25609 0.26953 0.22892 0.0
C2019 C 0.27659 0.25458 0.20561 0.0
C2020 C 0.2681 0.25799 0.22618 0.0
C2021 C 0.25345 0.27825 0.28789 0.0
C2022 C 0.25671 0.26967 0.2671 0.0
H2023 H 0.30197 0.26847 0.15222 0.0
H2024 H 0.28509 0.27194 0.17653 0.0
H2025 H 0.26188 0.26448 0.17922 0.0
H2026 H 0.23225 0.28947 0.28862 0.0
H2027 H 0.23565 0.27265 0.26243 0.0
C2028 C 0.74911 0.96724 0.33085 0.0
C2029 C 0.74451 0.95768 0.30523 0.0
C2030 C 0.75798 0.97896 0.32088 0.0
C2031 C 0.77744 0.99758 0.24249 0.0
H2032 H 0.76998 0.02273 0.28525 0.0
C2033 C 0.78346 0.04264 0.17215 0.0
C2034 C 0.78693 0.05326 0.19365 0.0
C2035 C 0.78217 0.03159 0.18769 0.0
C2036 C 0.77239 0.01589 0.27347 0.0
H2037 H 0.74592 0.95258 0.24969 0.0
H2038 H 0.7609 0.97315 0.23149 0.0
H2039 H 0.76046 0.00207 0.30966 0.0
H2040 H 0.79266 0.06089 0.24763 0.0
H2041 H 0.79028 0.04155 0.27483 0.0
H2042 H 0.7887 0.01148 0.20445 0.0
C2043 C 0.75809 0.97163 0.2597 0.0
C2044 C 0.76695 0.00397 0.28761 0.0
C2045 C 0.74947 0.9598 0.27005 0.0
C2046 C 0.78997 0.05286 0.23036 0.0
C2047 C 0.78855 0.04178 0.24598 0.0
C2048 C 0.78273 0.00952 0.22791 0.0
C2049 C 0.76209 0.98152 0.28462 0.0
C2050 C 0.76921 0.99455 0.27203 0.0
C2051 C 0.7842 0.03093 0.22509 0.0
C2052 C 0.7801 0.01874 0.24297 0.0
H2053 H 0.74543 0.96579 0.35822 0.0
H2054 H 0.76114 0.98615 0.3413 0.0
H2055 H 0.77961 0.99069 0.23006 0.0
H2056 H 0.78107 0.04267 0.14376 0.0
H2057 H 0.77874 0.02337 0.17094 0.0
C2058 C 0.03476 0.77086 0.33082 0.0
C2059 C 0.04587 0.78079 0.32041 0.0
C2060 C 0.02351 0.77031 0.31997 0.0
C2061 C 0.01047 0.77993 0.24434 0.0
H2062 H 0.98051 0.76295 0.3002 0.0
C2063 C 0.96514 0.7457 0.18267 0.0
C2064 C 0.95388 0.74367 0.19849 0.0
C2065 C 0.9762 0.75467 0.19658 0.0
C2066 C 0.98876 0.76797 0.28432 0.0
H2067 H 0.05392 0.79829 0.29209 0.0
H2068 H 0.03414 0.7973 0.27279 0.0
H2069 H 0.0004 0.77067 0.33066 0.0
H2070 H 0.94524 0.74998 0.23961 0.0
H2071 H 0.9647 0.76574 0.26433 0.0
H2072 H 0.99883 0.7768 0.19774 0.0
C2073 C 0.03418 0.78992 0.28932 0.0
C2074 C 1.00017 0.77227 0.30175 0.0
C2075 C 0.04549 0.79052 0.30052 0.0
C2076 C 0.95381 0.75142 0.2268 0.0
C2077 C 0.96494 0.76035 0.24111 0.0
C2078 C 0.99905 0.77563 0.2269 0.0
C2079 C 0.02307 0.77964 0.2982 0.0
C2080 C 0.01116 0.7778 0.28168 0.0
C2081 C 0.97627 0.76176 0.22695 0.0
C2082 C 0.98807 0.7691 0.24641 0.0
H2083 H 0.03476 0.76323 0.34621 0.0
H2084 H 0.01517 0.76218 0.32692 0.0
H2085 H 0.01873 0.78413 0.22801 0.0
H2086 H 0.96545 0.73985 0.16078 0.0
H2087 H 0.98471 0.75538 0.18517 0.0
C2088 C 0.32109 0.07165 0.06838 0.0
C2089 C 0.33365 0.07941 0.0737 0.0
C2090 C 0.31646 0.06794 0.03323 0.0
C2091 C 0.32503 0.06511 0.93869 0.0
H2092 H 0.29885 0.07366 0.91251 0.0
C2093 C 0.31398 0.07167 0.78943 0.0
C2094 C 0.30189 0.06937 0.78065 0.0
C2095 C 0.31714 0.07061 0.82547 0.0
C2096 C 0.30596 0.07092 0.91931 0.0
H2097 H 0.35134 0.08882 0.04697 0.0
H2098 H 0.3433 0.08219 0.98583 0.0
H2099 H 0.30538 0.07521 0.97552 0.0
H2100 H 0.28345 0.06333 0.80174 0.0
H2101 H 0.28876 0.0609 0.86399 0.0
H2102 H 0.32565 0.06083 0.88248 0.0
C2103 C 0.33702 0.07902 0.00864 0.0
C2104 C 0.30972 0.07184 0.95553 0.0
C2105 C 0.3416 0.08289 0.0436 0.0
C2106 C 0.29289 0.06536 0.80796 0.0
C2107 C 0.29597 0.06405 0.84371 0.0
C2108 C 0.32115 0.064 0.90244 0.0
C2109 C 0.32438 0.07175 0.00301 0.0
C2110 C 0.31943 0.06917 0.96548 0.0
C2111 C 0.3082 0.06701 0.85322 0.0
C2112 C 0.31171 0.06711 0.89215 0.0
H2113 H 0.31478 0.06884 0.09115 0.0
H2114 H 0.30667 0.06229 0.02956 0.0
H2115 H 0.33251 0.06293 0.94576 0.0
H2116 H 0.32108 0.0748 0.76879 0.0
H2117 H 0.32667 0.0731 0.83171 0.0
C2118 C 0.91925 0.24972 0.05913 0.0
C2119 C 0.91958 0.26041 0.07491 0.0
C2120 C 0.9223 0.24961 0.02258 0.0
C2121 C 0.93569 0.26871 0.94028 0.0
H2122 H 0.91099 0.23999 0.89131 0.0
C2123 C 0.9378 0.2556 0.78815 0.0
C2124 C 0.92652 0.24995 0.7695 0.0
C2125 C 0.93813 0.25873 0.825 0.0
C2126 C 0.91791 0.24813 0.90445 0.0
H2127 H 0.9242 0.27964 0.06554 0.0
H2128 H 0.92941 0.27942 0.00136 0.0
H2129 H 0.91027 0.24166 0.95688 0.0
H2130 H 0.90689 0.2441 0.77378 0.0
H2131 H 0.90748 0.24976 0.83753 0.0
H2132 H 0.94317 0.27519 0.88721 0.0
C2133 C 0.92688 0.27114 0.01735 0.0
C2134 C 0.91762 0.249 0.94219 0.0
C2135 C 0.92389 0.27126 0.05411 0.0
C2136 C 0.91571 0.24833 0.78753 0.0
C2137 C 0.91604 0.25149 0.82414 0.0
C2138 C 0.93602 0.2678 0.90227 0.0
C2139 C 0.92563 0.26017 0.00084 0.0
C2140 C 0.92648 0.25928 0.96065 0.0
C2141 C 0.92717 0.25627 0.8437 0.0
C2142 C 0.92705 0.25753 0.88394 0.0
H2143 H 0.91607 0.24124 0.07456 0.0
H2144 H 0.92153 0.24109 0.01091 0.0
H2145 H 0.94265 0.27674 0.95374 0.0
H2146 H 0.94628 0.25693 0.77494 0.0
H2147 H 0.94684 0.2624 0.83932 0.0
C2148 C 0.73037 0.64358 0.03915 0.0
C2149 C 0.73833 0.63823 0.04624 0.0
C2150 C 0.72955 0.64766 0.00401 0.0
C2151 C 0.74787 0.65921 0.92243 0.0
H2152 H 0.71734 0.64834 0.86827 0.0
C2153 C 0.74826 0.67768 0.78051 0.0
C2154 C 0.7427 0.66868 0.75352 0.0
C2155 C 0.74581 0.6747 0.81711 0.0
C2156 C 0.72591 0.65146 0.8832 0.0
H2157 H 0.75159 0.63289 0.02236 0.0
H2158 H 0.75034 0.6402 0.96164 0.0
H2159 H 0.71695 0.64168 0.93169 0.0
H2160 H 0.72957 0.64974 0.74335 0.0
H2161 H 0.72543 0.6444 0.80799 0.0
H2162 H 0.75694 0.66873 0.87434 0.0
C2163 C 0.74471 0.6412 0.98302 0.0
C2164 C 0.72567 0.64774 0.91942 0.0
C2165 C 0.7454 0.637 0.01776 0.0
C2166 C 0.73401 0.65682 0.76371 0.0
C2167 C 0.73161 0.65379 0.80061 0.0
C2168 C 0.74811 0.66301 0.88661 0.0
C2169 C 0.73684 0.64661 0.97583 0.0
C2170 C 0.7367 0.65143 0.93902 0.0
C2171 C 0.73782 0.66263 0.82764 0.0
C2172 C 0.73716 0.65908 0.86643 0.0
H2173 H 0.72477 0.64456 0.06063 0.0
H2174 H 0.72345 0.65184 0.99902 0.0
H2175 H 0.75649 0.66222 0.93706 0.0
H2176 H 0.75483 0.68697 0.7734 0.0
H2177 H 0.75053 0.68176 0.83731 0.0
C2178 C 0.07707 0.31758 0.71953 0.0
C2179 C 0.06743 0.30822 0.73854 0.0
C2180 C 0.07538 0.32036 0.6838 0.0
C2181 C 0.05798 0.305 0.60329 0.0
H2182 H 0.07516 0.33774 0.56214 0.0
C2183 C 0.0647 0.31568 0.44707 0.0
C2184 C 0.07697 0.32355 0.43798 0.0
C2185 C 0.06105 0.3137 0.48365 0.0
C2186 C 0.07026 0.32854 0.57325 0.0
H2187 H 0.04824 0.29484 0.73593 0.0
H2188 H 0.04528 0.29967 0.67297 0.0
H2189 H 0.07266 0.33528 0.6279 0.0
H2190 H 0.0951 0.33516 0.45997 0.0
H2191 H 0.08877 0.3317 0.52317 0.0
H2192 H 0.05603 0.29827 0.54847 0.0
C2193 C 0.05415 0.30484 0.68584 0.0
C2194 C 0.06882 0.32714 0.61085 0.0
C2195 C 0.05581 0.30216 0.72191 0.0
C2196 C 0.08556 0.32909 0.466 0.0
C2197 C 0.08192 0.32721 0.50225 0.0
C2198 C 0.0594 0.30641 0.56553 0.0
C2199 C 0.06402 0.31375 0.66613 0.0
C2200 C 0.0631 0.31533 0.62638 0.0
C2201 C 0.06961 0.31968 0.5115 0.0
C2202 C 0.06599 0.31817 0.55034 0.0
H2203 H 0.08612 0.32237 0.7317 0.0
H2204 H 0.08322 0.32717 0.6693 0.0
H2205 H 0.0536 0.29577 0.61446 0.0
H2206 H 0.05788 0.31131 0.42599 0.0
H2207 H 0.05151 0.30779 0.49013 0.0
C2208 C 0.64816 0.73555 0.73924 0.0
C2209 C 0.65972 0.73671 0.75018 0.0
C2210 C 0.6443 0.73265 0.7031 0.0
C2211 C 0.65805 0.7361 0.61214 0.0
H2212 H 0.62408 0.7186 0.58076 0.0
C2213 C 0.64412 0.734 0.46083 0.0
C2214 C 0.63429 0.7369 0.45459 0.0
C2215 C 0.64677 0.73154 0.49616 0.0
C2216 C 0.63362 0.72351 0.58914 0.0
H2217 H 0.67583 0.73474 0.73288 0.0
H2218 H 0.66895 0.72936 0.67027 0.0
H2219 H 0.62926 0.71815 0.64483 0.0
H2220 H 0.61929 0.73913 0.48014 0.0
H2221 H 0.62393 0.73492 0.54142 0.0
H2222 H 0.66238 0.74171 0.55672 0.0
C2223 C 0.66302 0.73104 0.68915 0.0
C2224 C 0.63657 0.72327 0.62583 0.0
C2225 C 0.66692 0.73403 0.7251 0.0
C2226 C 0.62697 0.73697 0.48408 0.0
C2227 C 0.62955 0.73444 0.51921 0.0
C2228 C 0.6551 0.7363 0.5755 0.0
C2229 C 0.65189 0.73078 0.67734 0.0
C2230 C 0.6488 0.72977 0.6379 0.0
C2231 C 0.63955 0.73183 0.52577 0.0
C2232 C 0.64282 0.73024 0.56371 0.0
H2233 H 0.64245 0.73761 0.75798 0.0
H2234 H 0.6357 0.7326 0.69494 0.0
H2235 H 0.66754 0.74139 0.62048 0.0
H2236 H 0.64988 0.73383 0.43856 0.0
H2237 H 0.6545 0.72948 0.50037 0.0
C2238 C 0.22824 0.91912 0.68991 0.0
C2239 C 0.23599 0.92153 0.72031 0.0
C2240 C 0.23275 0.91942 0.6549 0.0
C2241 C 0.25733 0.9161 0.60532 0.0
H2242 H 0.2443 0.92719 0.5243 0.0
C2243 C 0.25904 0.9186 0.43697 0.0
C2244 C 0.25775 0.90668 0.43016 0.0
C2245 C 0.25862 0.92245 0.47265 0.0
C2246 C 0.24822 0.92424 0.54656 0.0
H2247 H 0.25464 0.92634 0.73788 0.0
H2248 H 0.26261 0.92694 0.67632 0.0
H2249 H 0.23961 0.93071 0.58631 0.0
H2250 H 0.2553 0.88955 0.45534 0.0
H2251 H 0.25435 0.89613 0.51711 0.0
H2252 H 0.26592 0.9096 0.56554 0.0
C2253 C 0.25298 0.92471 0.67972 0.0
C2254 C 0.24539 0.92612 0.58215 0.0
C2255 C 0.24844 0.9244 0.71493 0.0
C2256 C 0.25633 0.89881 0.45967 0.0
C2257 C 0.2559 0.90263 0.4952 0.0
C2258 C 0.26019 0.91426 0.56971 0.0
C2259 C 0.24516 0.92217 0.64931 0.0
C2260 C 0.24961 0.92175 0.61191 0.0
C2261 C 0.25692 0.91445 0.50217 0.0
C2262 C 0.25538 0.91799 0.53989 0.0
H2263 H 0.21859 0.91685 0.69313 0.0
H2264 H 0.2264 0.91718 0.63224 0.0
H2265 H 0.2607 0.91258 0.62757 0.0
H2266 H 0.26019 0.92489 0.41473 0.0
H2267 H 0.25955 0.93166 0.47711 0.0
C2268 C 0.70652 0.93671 0.18721 0.0
C2269 C 0.69862 0.93421 0.21722 0.0
C2270 C 0.70238 0.93735 0.15223 0.0
C2271 C 0.67457 0.92399 0.09876 0.0
H2272 H 0.69357 0.94817 0.02612 0.0
C2273 C 0.65759 0.9187 0.95133 0.0
C2274 C 0.6664 0.92149 0.92373 0.0
C2275 C 0.6612 0.92217 0.98722 0.0
C2276 C 0.6882 0.94127 0.04595 0.0
H2277 H 0.68034 0.93086 0.23451 0.0
H2278 H 0.67295 0.9317 0.17288 0.0
H2279 H 0.70051 0.95107 0.08939 0.0
H2280 H 0.68588 0.9304 0.91162 0.0
H2281 H 0.6923 0.93603 0.97472 0.0
H2282 H 0.66263 0.91379 0.0556 0.0
C2283 C 0.68238 0.93324 0.17663 0.0
C2284 C 0.69214 0.94299 0.08222 0.0
C2285 C 0.68661 0.9328 0.21181 0.0
C2286 C 0.67891 0.92816 0.93246 0.0
C2287 C 0.68256 0.93144 0.96862 0.0
C2288 C 0.67073 0.92217 0.06252 0.0
C2289 C 0.69018 0.93533 0.14648 0.0
C2290 C 0.68541 0.9343 0.10887 0.0
C2291 C 0.67374 0.9283 0.99659 0.0
C2292 C 0.67754 0.93072 0.03551 0.0
H2293 H 0.71586 0.9379 0.19065 0.0
H2294 H 0.70855 0.93886 0.12948 0.0
H2295 H 0.66933 0.91702 0.11863 0.0
H2296 H 0.64785 0.91372 0.94522 0.0
H2297 H 0.65412 0.9199 0.0077 0.0
C2298 C 0.07305 0.75016 0.22198 0.0
C2299 C 0.07586 0.7626 0.22767 0.0
C2300 C 0.07271 0.74567 0.18666 0.0
C2301 C 0.07135 0.75339 0.08912 0.0
H2302 H 0.0881 0.73307 0.07268 0.0
C2303 C 0.07926 0.73977 0.94403 0.0
C2304 C 0.09121 0.74113 0.93757 0.0
C2305 C 0.07535 0.74025 0.97959 0.0
C2306 C 0.08338 0.73873 0.0768 0.0
H2307 H 0.08032 0.78003 0.2009 0.0
H2308 H 0.07995 0.77231 0.13977 0.0
H2309 H 0.08495 0.73815 0.13466 0.0
H2310 H 0.10834 0.74383 0.96324 0.0
H2311 H 0.10165 0.74487 0.02476 0.0
H2312 H 0.0704 0.75454 0.03124 0.0
C2313 C 0.07779 0.76593 0.16229 0.0
C2314 C 0.08144 0.74153 0.11238 0.0
C2315 C 0.07811 0.77039 0.19744 0.0
C2316 C 0.09907 0.74273 0.9673 0.0
C2317 C 0.09518 0.74322 0.00268 0.0
C2318 C 0.07334 0.75063 0.05354 0.0
C2319 C 0.07516 0.75354 0.15641 0.0
C2320 C 0.0757 0.74917 0.11895 0.0
C2321 C 0.08332 0.74208 0.00931 0.0
C2322 C 0.07967 0.74355 0.04694 0.0
H2323 H 0.07122 0.74394 0.24478 0.0
H2324 H 0.07056 0.73606 0.18304 0.0
H2325 H 0.0667 0.75912 0.09324 0.0
H2326 H 0.07299 0.73848 0.92163 0.0
H2327 H 0.06612 0.73924 0.98379 0.0
C2328 C 0.27271 0.35007 0.22271 0.0
C2329 C 0.26049 0.34188 0.23141 0.0
C2330 C 0.2765 0.35214 0.18623 0.0
C2331 C 0.26789 0.3376 0.09577 0.0
H2332 H 0.2823 0.37067 0.05613 0.0
C2333 C 0.2579 0.3487 0.95302 0.0
C2334 C 0.26701 0.35828 0.93311 0.0
C2335 C 0.26037 0.34596 0.98802 0.0
C2336 C 0.27857 0.36139 0.06683 0.0
H2337 H 0.24266 0.32958 0.20882 0.0
H2338 H 0.24924 0.33313 0.14595 0.0
H2339 H 0.28066 0.36772 0.12211 0.0
H2340 H 0.28602 0.37218 0.93337 0.0
H2341 H 0.29031 0.36746 0.99516 0.0
H2342 H 0.2652 0.33122 0.04068 0.0
C2343 C 0.25594 0.33786 0.16704 0.0
C2344 C 0.27762 0.35971 0.10459 0.0
C2345 C 0.25215 0.33592 0.20313 0.0
C2346 C 0.27886 0.36468 0.9481 0.0
C2347 C 0.28129 0.36205 0.98348 0.0
C2348 C 0.26884 0.33926 0.05817 0.0
C2349 C 0.26815 0.34588 0.15813 0.0
C2350 C 0.27177 0.34779 0.11928 0.0
C2351 C 0.27197 0.35285 0.00407 0.0
C2352 C 0.27369 0.35116 0.04328 0.0
H2353 H 0.27932 0.35478 0.24401 0.0
H2354 H 0.28595 0.35843 0.18 0.0
H2355 H 0.26355 0.3283 0.10645 0.0
H2356 H 0.24869 0.34366 0.94212 0.0
H2357 H 0.25295 0.33891 0.0033 0.0
C2358 C 0.92609 0.67395 0.56988 0.0
C2359 C 0.91587 0.66274 0.57799 0.0
C2360 C 0.92866 0.67798 0.53375 0.0
C2361 C 0.91227 0.67507 0.4487 0.0
H2362 H 0.94428 0.68927 0.40214 0.0
C2363 C 0.92078 0.70193 0.31593 0.0
C2364 C 0.92611 0.69823 0.2875 0.0
C2365 C 0.92071 0.69777 0.35125 0.0
C2366 C 0.93529 0.68526 0.41487 0.0
H2367 H 0.90077 0.64664 0.55465 0.0
H2368 H 0.90523 0.65367 0.49209 0.0
H2369 H 0.94218 0.68135 0.46469 0.0
H2370 H 0.93595 0.68761 0.27392 0.0
H2371 H 0.9359 0.68034 0.33636 0.0
H2372 H 0.90535 0.67904 0.39946 0.0
C2373 C 0.91116 0.65942 0.51349 0.0
C2374 C 0.93411 0.68084 0.4506 0.0
C2375 C 0.90863 0.6554 0.54935 0.0
C2376 C 0.93173 0.69055 0.29532 0.0
C2377 C 0.93176 0.68646 0.33096 0.0
C2378 C 0.91347 0.6796 0.41339 0.0
C2379 C 0.92101 0.67087 0.50537 0.0
C2380 C 0.92256 0.67566 0.46772 0.0
C2381 C 0.92605 0.68987 0.35906 0.0
C2382 C 0.92498 0.68477 0.39616 0.0
H2383 H 0.93184 0.67977 0.59144 0.0
H2384 H 0.93629 0.68687 0.52816 0.0
H2385 H 0.90327 0.67125 0.46136 0.0
H2386 H 0.91643 0.7079 0.31084 0.0
H2387 H 0.91637 0.70064 0.37251 0.0
C2388 C 0.34535 0.26006 0.55109 0.0
C2389 C 0.35551 0.2689 0.56991 0.0
C2390 C 0.34273 0.26235 0.51572 0.0
C2391 C 0.35885 0.27889 0.43504 0.0
H2392 H 0.3258 0.26558 0.39544 0.0
C2393 C 0.34807 0.27328 0.27923 0.0
C2394 C 0.33905 0.26141 0.27006 0.0
C2395 C 0.35014 0.27702 0.31579 0.0
C2396 C 0.3351 0.2694 0.40609 0.0
H2397 H 0.37055 0.28733 0.56732 0.0
H2398 H 0.366 0.29131 0.50507 0.0
H2399 H 0.32884 0.26751 0.46118 0.0
H2400 H 0.32512 0.24422 0.29189 0.0
H2401 H 0.3287 0.2507 0.35493 0.0
H2402 H 0.36505 0.28024 0.37986 0.0
C2403 C 0.36006 0.28262 0.5178 0.0
C2404 C 0.33683 0.27052 0.4437 0.0
C2405 C 0.36259 0.28038 0.5535 0.0
C2406 C 0.33215 0.25342 0.29796 0.0
C2407 C 0.33411 0.25718 0.33416 0.0
C2408 C 0.35711 0.27777 0.3973 0.0
C2409 C 0.3503 0.27348 0.49821 0.0
C2410 C 0.34869 0.27482 0.45865 0.0
C2411 C 0.34307 0.26901 0.34357 0.0
C2412 C 0.34518 0.27255 0.38256 0.0
H2413 H 0.33977 0.25112 0.56307 0.0
H2414 H 0.33523 0.25506 0.50131 0.0
H2415 H 0.3681 0.28216 0.44573 0.0
H2416 H 0.35351 0.27963 0.25825 0.0
H2417 H 0.35713 0.28619 0.32231 0.0
C2418 C 0.74164 0.08454 0.54267 0.0
C2419 C 0.7506 0.09592 0.55544 0.0
C2420 C 0.74113 0.08152 0.50573 0.0
C2421 C 0.75263 0.09648 0.41558 0.0
H2422 H 0.74145 0.06284 0.38265 0.0
C2423 C 0.75281 0.0868 0.2634 0.0
C2424 C 0.75664 0.07788 0.25349 0.0
C2425 C 0.74942 0.08756 0.2993 0.0
C2426 C 0.74471 0.07232 0.39127 0.0
H2427 H 0.76647 0.11277 0.54043 0.0
H2428 H 0.76615 0.10725 0.4768 0.0
H2429 H 0.74202 0.06711 0.44734 0.0
H2430 H 0.75945 0.06242 0.27268 0.0
H2431 H 0.75426 0.06413 0.33546 0.0
H2432 H 0.75626 0.10187 0.36013 0.0
C2433 C 0.75907 0.10085 0.49451 0.0
C2434 C 0.74486 0.07476 0.42855 0.0
C2435 C 0.75938 0.10398 0.53113 0.0
C2436 C 0.75642 0.06933 0.27957 0.0
C2437 C 0.75338 0.07031 0.31568 0.0
C2438 C 0.75275 0.09409 0.37851 0.0
C2439 C 0.74976 0.08972 0.48101 0.0
C2440 C 0.749 0.08691 0.44127 0.0
C2441 C 0.75021 0.07969 0.32635 0.0
C2442 C 0.74892 0.08199 0.36572 0.0
H2443 H 0.7347 0.07822 0.56091 0.0
H2444 H 0.73375 0.07293 0.49648 0.0
H2445 H 0.75554 0.10593 0.424 0.0
H2446 H 0.75281 0.09344 0.24366 0.0
H2447 H 0.74661 0.09463 0.30597 0.0
C2448 C 0.98982 0.41147 0.09496 0.0
C2449 C 0.97904 0.40167 0.08195 0.0
C2450 C 0.99341 0.4117 0.13112 0.0
C2451 C 0.98741 0.39398 0.21749 0.0
H2452 H 0.99583 0.42611 0.25952 0.0
C2453 C 0.99048 0.40413 0.37379 0.0
C2454 C 0.00045 0.41518 0.38478 0.0
C2455 C 0.98806 0.40139 0.33669 0.0
C2456 C 0.99363 0.41711 0.24821 0.0
H2457 H 0.96408 0.38394 0.09558 0.0
H2458 H 0.97024 0.38442 0.15913 0.0
H2459 H 0.99213 0.42305 0.19466 0.0
H2460 H 0.0159 0.4318 0.36565 0.0
H2461 H 0.01175 0.42701 0.30157 0.0
H2462 H 0.9888 0.3881 0.27173 0.0
C2463 C 0.97599 0.39188 0.14133 0.0
C2464 C 0.99156 0.41536 0.21094 0.0
C2465 C 0.97247 0.39159 0.10491 0.0
C2466 C 0.00806 0.42327 0.35813 0.0
C2467 C 0.00566 0.42055 0.32133 0.0
C2468 C 0.98949 0.39575 0.25506 0.0
C2469 C 0.9862 0.40221 0.15518 0.0
C2470 C 0.98856 0.40383 0.19498 0.0
C2471 C 0.99555 0.40967 0.3101 0.0
C2472 C 0.99275 0.40739 0.2707 0.0
H2473 H 0.99513 0.41931 0.07773 0.0
H2474 H 0.00153 0.41963 0.1407 0.0
H2475 H 0.98508 0.38498 0.20602 0.0
H2476 H 0.9845 0.3977 0.39378 0.0
H2477 H 0.98017 0.39296 0.32881 0.0
C2478 C 0.58741 0.56161 0.12879 0.0
C2479 C 0.58929 0.56956 0.09915 0.0
C2480 C 0.58734 0.56565 0.16426 0.0
C2481 C 0.59267 0.57757 0.23844 0.0
H2482 H 0.57388 0.59588 0.2556 0.0
C2483 C 0.58304 0.58962 0.38387 0.0
C2484 C 0.57085 0.58755 0.39003 0.0
C2485 C 0.58716 0.58938 0.34843 0.0
C2486 C 0.57916 0.59077 0.25128 0.0
H2487 H 0.59289 0.58809 0.08343 0.0
H2488 H 0.59283 0.59523 0.14573 0.0
H2489 H 0.57785 0.59171 0.19345 0.0
H2490 H 0.55345 0.5837 0.36399 0.0
H2491 H 0.56053 0.58309 0.30266 0.0
H2492 H 0.59341 0.57607 0.29629 0.0
C2493 C 0.59129 0.58581 0.1414 0.0
C2494 C 0.58157 0.58851 0.21561 0.0
C2495 C 0.59136 0.58175 0.10577 0.0
C2496 C 0.56291 0.58536 0.36016 0.0
C2497 C 0.56701 0.58512 0.3249 0.0
C2498 C 0.59023 0.5798 0.27412 0.0
C2499 C 0.58916 0.57776 0.17104 0.0
C2500 C 0.58808 0.58161 0.20875 0.0
C2501 C 0.57917 0.58709 0.31854 0.0
C2502 C 0.58316 0.58615 0.28094 0.0
H2503 H 0.58578 0.55216 0.1246 0.0
H2504 H 0.58545 0.55913 0.18629 0.0
H2505 H 0.59789 0.5724 0.2341 0.0
H2506 H 0.58937 0.59138 0.40639 0.0
H2507 H 0.59661 0.59102 0.34442 0.0
C2508 C 0.41195 0.99048 0.37433 0.0
C2509 C 0.40224 0.98136 0.39379 0.0
C2510 C 0.41003 0.99369 0.33931 0.0
C2511 C 0.39191 0.97978 0.25942 0.0
H2512 H 0.40889 0.01305 0.22181 0.0
C2513 C 0.39933 0.9916 0.10429 0.0
C2514 C 0.41166 0.99957 0.0961 0.0
C2515 C 0.39534 0.98957 0.1406 0.0
C2516 C 0.40403 0.0037 0.2319 0.0
H2517 H 0.3828 0.96875 0.39269 0.0
H2518 H 0.37947 0.97423 0.33069 0.0
H2519 H 0.40668 0.00971 0.28737 0.0
H2520 H 0.42947 0.01154 0.11942 0.0
H2521 H 0.42258 0.00801 0.18199 0.0
H2522 H 0.38989 0.97376 0.20385 0.0
C2523 C 0.38853 0.97896 0.34282 0.0
C2524 C 0.40274 0.0018 0.26938 0.0
C2525 C 0.39041 0.9759 0.37829 0.0
C2526 C 0.4199 0.00537 0.12472 0.0
C2527 C 0.41592 0.00344 0.16066 0.0
C2528 C 0.39323 0.98168 0.22178 0.0
C2529 C 0.3984 0.98771 0.32276 0.0
C2530 C 0.39713 0.98981 0.28356 0.0
C2531 C 0.4036 0.99562 0.16907 0.0
C2532 C 0.39978 0.99364 0.20779 0.0
H2533 H 0.42116 0.9948 0.38564 0.0
H2534 H 0.41786 1.00036 0.3244 0.0
H2535 H 0.3876 0.97042 0.26962 0.0
H2536 H 0.39278 0.98702 0.08273 0.0
H2537 H 0.3858 0.98344 0.14638 0.0
C2538 C 0.60367 0.01446 0.90488 0.0
C2539 C 0.59126 0.00741 0.9144 0.0
C2540 C 0.60711 0.01665 0.86811 0.0
C2541 C 0.59636 0.00316 0.7778 0.0
H2542 H 0.61423 0.03608 0.73846 0.0
C2543 C 0.58887 0.01576 0.63398 0.0
C2544 C 0.59868 0.02463 0.61418 0.0
C2545 C 0.59066 0.0128 0.66942 0.0
C2546 C 0.60949 0.0268 0.74907 0.0
H2547 H 0.57271 0.99746 0.89301 0.0
H2548 H 0.57869 0.00121 0.82965 0.0
H2549 H 0.61249 0.03308 0.8045 0.0
H2550 H 0.61819 0.03703 0.61529 0.0
H2551 H 0.62133 0.03188 0.67779 0.0
H2552 H 0.5929 0.99687 0.72268 0.0
C2553 C 0.58579 0.00493 0.85029 0.0
C2554 C 0.60848 0.0251 0.78684 0.0
C2555 C 0.58237 0.00287 0.88668 0.0
C2556 C 0.61048 0.03009 0.6299 0.0
C2557 C 0.61225 0.02722 0.66571 0.0
C2558 C 0.59739 0.00484 0.74021 0.0
C2559 C 0.59819 0.01165 0.84054 0.0
C2560 C 0.60147 0.01332 0.80144 0.0
C2561 C 0.60229 0.01872 0.68606 0.0
C2562 C 0.60353 0.01672 0.72541 0.0
H2563 H 0.61072 0.01807 0.9257 0.0
H2564 H 0.61673 0.02194 0.86122 0.0
H2565 H 0.59109 0.99394 0.78841 0.0
H2566 H 0.57967 0.01145 0.62256 0.0
H2567 H 0.58275 0.00633 0.68445 0.0
C2568 C 0.01975 0.59886 0.62167 0.0
C2569 C 0.01148 0.60144 0.60082 0.0
C2570 C 0.02176 0.60228 0.65829 0.0
C2571 C 0.00474 0.60508 0.73491 0.0
H2572 H 0.03596 0.6167 0.78562 0.0
C2573 C 0.02594 0.61173 0.89055 0.0
C2574 C 0.01948 0.59952 0.90271 0.0
C2575 C 0.02446 0.61484 0.8548 0.0
C2576 C 0.02719 0.61365 0.77186 0.0
H2577 H 0.99929 0.61018 0.60129 0.0
H2578 H 0.00263 0.61595 0.66565 0.0
H2579 H 0.03562 0.61769 0.71917 0.0
H2580 H 0.00581 0.58118 0.88814 0.0
H2581 H 0.00296 0.58667 0.82614 0.0
H2582 H 0.99627 0.60037 0.78746 0.0
C2583 C 0.00761 0.61136 0.65353 0.0
C2584 C 0.027 0.61414 0.73387 0.0
C2585 C 0.00577 0.60813 0.61668 0.0
C2586 C 0.01087 0.59067 0.87946 0.0
C2587 C 0.00923 0.59382 0.84402 0.0
C2588 C 0.00491 0.60442 0.77285 0.0
C2589 C 0.01537 0.60816 0.67489 0.0
C2590 C 0.01576 0.6096 0.715 0.0
C2591 C 0.01632 0.60583 0.83095 0.0
C2592 C 0.01613 0.60842 0.79162 0.0
H2593 H 0.02426 0.5937 0.61013 0.0
H2594 H 0.02771 0.59961 0.67416 0.0
H2595 H 0.99593 0.6014 0.72105 0.0
H2596 H 0.03271 0.61871 0.90783 0.0
H2597 H 0.03 0.62416 0.84538 0.0
C2598 C 0.43355 0.40939 0.63525 0.0
C2599 C 0.42589 0.40768 0.60495 0.0
C2600 C 0.42927 0.40949 0.67035 0.0
C2601 C 0.40636 0.4156 0.72001 0.0
H2602 H 0.41806 0.40333 0.80139 0.0
C2603 C 0.4051 0.41417 0.88847 0.0
C2604 C 0.40735 0.42643 0.89471 0.0
C2605 C 0.4051 0.40996 0.85299 0.0
C2606 C 0.41452 0.40663 0.77904 0.0
H2607 H 0.40761 0.40443 0.58768 0.0
H2608 H 0.40004 0.40453 0.6494 0.0
H2609 H 0.42188 0.39878 0.73951 0.0
H2610 H 0.41118 0.44383 0.86873 0.0
H2611 H 0.41143 0.43661 0.80728 0.0
H2612 H 0.39901 0.42347 0.75956 0.0
C2613 C 0.40942 0.40591 0.64585 0.0
C2614 C 0.41684 0.40415 0.74351 0.0
C2615 C 0.41373 0.40581 0.61055 0.0
C2616 C 0.40939 0.43432 0.86483 0.0
C2617 C 0.40942 0.43014 0.8295 0.0
C2618 C 0.40399 0.41804 0.75555 0.0
C2619 C 0.41719 0.40785 0.67614 0.0
C2620 C 0.41312 0.40892 0.71357 0.0
C2621 C 0.40737 0.41793 0.82309 0.0
C2622 C 0.40835 0.41389 0.78551 0.0
H2623 H 0.44298 0.41087 0.63188 0.0
H2624 H 0.43559 0.41124 0.69289 0.0
H2625 H 0.40339 0.41945 0.69764 0.0
H2626 H 0.40344 0.40786 0.91099 0.0
H2627 H 0.40338 0.40047 0.84898 0.0
loop_
_geom_bond_atom_site_label_1
_geom_bond_atom_site_label_2
_geom_bond_distance
_geom_bond_site_symmetry_2
_ccdc_geom_bond_type
In0 O1 2.294 . S
In0 O2 2.326 . S
In0 O6 2.266 . S
In0 O7 2.326 . S
In0 O8 2.266 . S
In0 O9 2.326 . S
In0 O11 2.294 . S
In0 O12 2.326 . S
O1 In0 2.294 . S
O1 C10 1.240 . S
O2 In0 2.326 . S
O2 C10 1.252 . S
C3 O6 1.252 . S
C3 O7 1.260 . S
C4 O11 1.240 . S
C4 O12 1.252 . S
C5 O8 1.252 . S
C5 O9 1.260 . S
O6 In0 2.266 . S
O6 C3 1.252 . S
O7 In0 2.326 . S
O7 C3 1.260 . S
O8 In0 2.266 . S
O8 C5 1.252 . S
O9 In0 2.326 . S
O9 C5 1.260 . S
C10 O1 1.240 . S
C10 O2 1.252 . S
O11 In0 2.294 . S
O11 C4 1.240 . S
O12 In0 2.326 . S
O12 C4 1.252 . S
In13 O14 2.294 . S
In13 O15 2.326 . S
In13 O19 2.266 . S
In13 O20 2.326 . S
In13 O21 2.266 . S
In13 O22 2.326 . S
In13 O24 2.294 . S
In13 O25 2.326 . S
O14 In13 2.294 . S
O14 C23 1.240 . S
O15 In13 2.326 . S
O15 C23 1.252 . S
C16 O19 1.252 . S
C16 O20 1.260 . S
C17 O24 1.240 . S
C17 O25 1.252 . S
C18 O21 1.252 . S
C18 O22 1.260 . S
O19 In13 2.266 . S
O19 C16 1.252 . S
O20 In13 2.326 . S
O20 C16 1.260 . S
O21 In13 2.266 . S
O21 C18 1.252 . S
O22 In13 2.326 . S
O22 C18 1.260 . S
C23 O14 1.240 . S
C23 O15 1.252 . S
O24 In13 2.294 . S
O24 C17 1.240 . S
O25 In13 2.326 . S
O25 C17 1.252 . S
In26 O27 2.294 . S
In26 O28 2.326 . S
In26 O32 2.266 . S
In26 O33 2.326 . S
In26 O34 2.266 . S
In26 O35 2.326 . S
In26 O37 2.294 . S
In26 O38 2.326 . S
O27 In26 2.294 . S
O27 C36 1.240 . S
O28 In26 2.326 . S
O28 C36 1.252 . S
C29 O32 1.252 . S
C29 O33 1.260 . S
C30 O37 1.240 . S
C30 O38 1.252 . S
C31 O34 1.252 . S
C31 O35 1.260 . S
O32 In26 2.266 . S
O32 C29 1.252 . S
O33 In26 2.326 . S
O33 C29 1.260 . S
O34 In26 2.266 . S
O34 C31 1.252 . S
O35 In26 2.326 . S
O35 C31 1.260 . S
C36 O27 1.240 . S
C36 O28 1.252 . S
O37 In26 2.294 . S
O37 C30 1.240 . S
O38 In26 2.326 . S
O38 C30 1.252 . S
In39 O40 2.294 . S
In39 O41 2.326 . S
In39 O45 2.266 . S
In39 O46 2.326 . S
In39 O47 2.266 . S
In39 O48 2.326 . S
In39 O50 2.294 . S
In39 O51 2.326 . S
O40 In39 2.294 . S
O40 C49 1.240 . S
O41 In39 2.326 . S
O41 C49 1.252 . S
C42 O45 1.252 . S
C42 O46 1.260 . S
C43 O50 1.240 . S
C43 O51 1.252 . S
C44 O47 1.252 . S
C44 O48 1.260 . S
O45 In39 2.266 . S
O45 C42 1.252 . S
O46 In39 2.326 . S
O46 C42 1.260 . S
O47 In39 2.266 . S
O47 C44 1.252 . S
O48 In39 2.326 . S
O48 C44 1.260 . S
C49 O40 1.240 . S
C49 O41 1.252 . S
O50 In39 2.294 . S
O50 C43 1.240 . S
O51 In39 2.326 . S
O51 C43 1.252 . S
In52 O53 2.294 . S
In52 O54 2.326 . S
In52 O58 2.266 . S
In52 O59 2.326 . S
In52 O60 2.266 . S
In52 O61 2.326 . S
In52 O63 2.294 . S
In52 O64 2.326 . S
O53 In52 2.294 . S
O53 C62 1.240 . S
O54 In52 2.326 . S
O54 C62 1.252 . S
C55 O58 1.252 . S
C55 O59 1.260 . S
C56 O63 1.240 . S
C56 O64 1.252 . S
C57 O60 1.252 . S
C57 O61 1.260 . S
O58 In52 2.266 . S
O58 C55 1.252 . S
O59 In52 2.326 . S
O59 C55 1.260 . S
O60 In52 2.266 . S
O60 C57 1.252 . S
O61 In52 2.326 . S
O61 C57 1.260 . S
C62 O53 1.240 . S
C62 O54 1.252 . S
O63 In52 2.294 . S
O63 C56 1.240 . S
O64 In52 2.326 . S
O64 C56 1.252 . S
In65 O66 2.294 . S
In65 O67 2.326 . S
In65 O71 2.266 . S
In65 O72 2.326 . S
In65 O73 2.266 . S
In65 O74 2.326 . S
In65 O76 2.294 . S
In65 O77 2.326 . S
O66 In65 2.294 . S
O66 C75 1.240 . S
O67 In65 2.326 . S
O67 C75 1.252 . S
C68 O71 1.252 . S
C68 O72 1.260 . S
C69 O76 1.240 . S
C69 O77 1.252 . S
C70 O73 1.252 . S
C70 O74 1.260 . S
O71 In65 2.266 . S
O71 C68 1.252 . S
O72 In65 2.326 . S
O72 C68 1.260 . S
O73 In65 2.266 . S
O73 C70 1.252 . S
O74 In65 2.326 . S
O74 C70 1.260 . S
C75 O66 1.240 . S
C75 O67 1.252 . S
O76 In65 2.294 . S
O76 C69 1.240 . S
O77 In65 2.326 . S
O77 C69 1.252 . S
In78 O79 2.294 . S
In78 O80 2.326 . S
In78 O84 2.266 . S
In78 O85 2.326 . S
In78 O86 2.266 . S
In78 O87 2.326 . S
In78 O89 2.294 . S
In78 O90 2.326 . S
O79 In78 2.294 . S
O79 C88 1.240 . S
O80 In78 2.326 . S
O80 C88 1.252 . S
C81 O84 1.252 . S
C81 O85 1.260 . S
C82 O89 1.240 . S
C82 O90 1.252 . S
C83 O86 1.252 . S
C83 O87 1.260 . S
O84 In78 2.266 . S
O84 C81 1.252 . S
O85 In78 2.326 . S
O85 C81 1.260 . S
O86 In78 2.266 . S
O86 C83 1.252 . S
O87 In78 2.326 . S
O87 C83 1.260 . S
C88 O79 1.240 . S
C88 O80 1.252 . S
O89 In78 2.294 . S
O89 C82 1.240 . S
O90 In78 2.326 . S
O90 C82 1.252 . S
In91 O92 2.294 . S
In91 O93 2.326 . S
In91 O97 2.266 . S
In91 O98 2.326 . S
In91 O99 2.266 . S
In91 O100 2.326 . S
In91 O102 2.294 . S
In91 O103 2.326 . S
O92 In91 2.294 . S
O92 C101 1.240 . S
O93 In91 2.326 . S
O93 C101 1.252 . S
C94 O97 1.252 . S
C94 O98 1.260 . S
C95 O102 1.240 . S
C95 O103 1.252 . S
C96 O99 1.252 . S
C96 O100 1.260 . S
O97 In91 2.266 . S
O97 C94 1.252 . S
O98 In91 2.326 . S
O98 C94 1.260 . S
O99 In91 2.266 . S
O99 C96 1.252 . S
O100 In91 2.326 . S
O100 C96 1.260 . S
C101 O92 1.240 . S
C101 O93 1.252 . S
O102 In91 2.294 . S
O102 C95 1.240 . S
O103 In91 2.326 . S
O103 C95 1.252 . S
In104 O105 2.294 . S
In104 O106 2.326 . S
In104 O110 2.266 . S
In104 O111 2.326 . S
In104 O112 2.266 . S
In104 O113 2.326 . S
In104 O115 2.294 . S
In104 O116 2.326 . S
O105 In104 2.294 . S
O105 C114 1.240 . S
O106 In104 2.326 . S
O106 C114 1.252 . S
C107 O110 1.252 . S
C107 O111 1.260 . S
C108 O115 1.240 . S
C108 O116 1.252 . S
C109 O112 1.252 . S
C109 O113 1.260 . S
O110 In104 2.266 . S
O110 C107 1.252 . S
O111 In104 2.326 . S
O111 C107 1.260 . S
O112 In104 2.266 . S
O112 C109 1.252 . S
O113 In104 2.326 . S
O113 C109 1.260 . S
C114 O105 1.240 . S
C114 O106 1.252 . S
O115 In104 2.294 . S
O115 C108 1.240 . S
O116 In104 2.326 . S
O116 C108 1.252 . S
In117 O118 2.294 . S
In117 O119 2.326 . S
In117 O123 2.266 . S
In117 O124 2.326 . S
In117 O125 2.266 . S
In117 O126 2.326 . S
In117 O128 2.294 . S
In117 O129 2.326 . S
O118 In117 2.294 . S
O118 C127 1.240 . S
O119 In117 2.326 . S
O119 C127 1.252 . S
C120 O123 1.252 . S
C120 O124 1.260 . S
C121 O128 1.240 . S
C121 O129 1.252 . S
C122 O125 1.252 . S
C122 O126 1.260 . S
O123 In117 2.266 . S
O123 C120 1.252 . S
O124 In117 2.326 . S
O124 C120 1.260 . S
O125 In117 2.266 . S
O125 C122 1.252 . S
O126 In117 2.326 . S
O126 C122 1.260 . S
C127 O118 1.240 . S
C127 O119 1.252 . S
O128 In117 2.294 . S
O128 C121 1.240 . S
O129 In117 2.326 . S
O129 C121 1.252 . S
In130 O131 2.294 . S
In130 O132 2.326 . S
In130 O136 2.266 . S
In130 O137 2.326 . S
In130 O138 2.266 . S
In130 O139 2.326 . S
In130 O141 2.294 . S
In130 O142 2.326 . S
O131 In130 2.294 . S
O131 C140 1.240 . S
O132 In130 2.326 . S
O132 C140 1.252 . S
C133 O136 1.252 . S
C133 O137 1.260 . S
C134 O141 1.240 . S
C134 O142 1.252 . S
C135 O138 1.252 . S
C135 O139 1.260 . S
O136 In130 2.266 . S
O136 C133 1.252 . S
O137 In130 2.326 . S
O137 C133 1.260 . S
O138 In130 2.266 . S
O138 C135 1.252 . S
O139 In130 2.326 . S
O139 C135 1.260 . S
C140 O131 1.240 . S
C140 O132 1.252 . S
O141 In130 2.294 . S
O141 C134 1.240 . S
O142 In130 2.326 . S
O142 C134 1.252 . S
In143 O144 2.294 . S
In143 O145 2.326 . S
In143 O149 2.266 . S
In143 O150 2.326 . S
In143 O151 2.266 . S
In143 O152 2.326 . S
In143 O154 2.294 . S
In143 O155 2.326 . S
O144 In143 2.294 . S
O144 C153 1.240 . S
O145 In143 2.326 . S
O145 C153 1.252 . S
C146 O149 1.252 . S
C146 O150 1.260 . S
C147 O154 1.240 . S
C147 O155 1.252 . S
C148 O151 1.252 . S
C148 O152 1.260 . S
O149 In143 2.266 . S
O149 C146 1.252 . S
O150 In143 2.326 . S
O150 C146 1.260 . S
O151 In143 2.266 . S
O151 C148 1.252 . S
O152 In143 2.326 . S
O152 C148 1.260 . S
C153 O144 1.240 . S
C153 O145 1.252 . S
O154 In143 2.294 . S
O154 C147 1.240 . S
O155 In143 2.326 . S
O155 C147 1.252 . S
In156 O157 2.294 1_455 S
In156 O158 2.326 . S
In156 O162 2.267 1_455 S
In156 O163 2.326 . S
In156 O164 2.265 . S
In156 O165 2.325 . S
In156 O167 2.294 . S
In156 O168 2.327 1_455 S
O157 In156 2.294 1_655 S
O157 C166 1.240 . S
O158 In156 2.326 . S
O158 C166 1.252 1_455 S
C159 O162 1.252 . S
C159 O163 1.260 1_655 S
C160 O167 1.240 . S
C160 O168 1.252 1_455 S
C161 O164 1.252 . S
C161 O165 1.260 . S
O162 In156 2.267 1_655 S
O162 C159 1.252 . S
O163 In156 2.326 . S
O163 C159 1.260 1_455 S
O164 In156 2.265 . S
O164 C161 1.252 . S
O165 In156 2.325 . S
O165 C161 1.260 . S
C166 O157 1.240 . S
C166 O158 1.252 1_655 S
O167 In156 2.294 . S
O167 C160 1.240 . S
O168 In156 2.327 1_655 S
O168 C160 1.252 1_655 S
In169 O170 2.294 . S
In169 O171 2.326 . S
In169 O175 2.266 . S
In169 O176 2.326 . S
In169 O177 2.266 . S
In169 O178 2.326 . S
In169 O180 2.294 . S
In169 O181 2.326 . S
O170 In169 2.294 . S
O170 C179 1.240 . S
O171 In169 2.326 . S
O171 C179 1.252 . S
C172 O175 1.252 . S
C172 O176 1.260 . S
C173 O180 1.240 . S
C173 O181 1.252 . S
C174 O177 1.252 . S
C174 O178 1.260 . S
O175 In169 2.266 . S
O175 C172 1.252 . S
O176 In169 2.326 . S
O176 C172 1.260 . S
O177 In169 2.266 . S
O177 C174 1.252 . S
O178 In169 2.326 . S
O178 C174 1.260 . S
C179 O170 1.240 . S
C179 O171 1.252 . S
O180 In169 2.294 . S
O180 C173 1.240 . S
O181 In169 2.326 . S
O181 C173 1.252 . S
In182 O183 2.294 . S
In182 O184 2.326 . S
In182 O188 2.266 . S
In182 O189 2.326 . S
In182 O190 2.266 . S
In182 O191 2.326 . S
In182 O193 2.294 . S
In182 O194 2.326 . S
O183 In182 2.294 . S
O183 C192 1.240 . S
O184 In182 2.326 . S
O184 C192 1.252 . S
C185 O188 1.252 . S
C185 O189 1.260 . S
C186 O193 1.240 . S
C186 O194 1.252 . S
C187 O190 1.252 . S
C187 O191 1.260 . S
O188 In182 2.266 . S
O188 C185 1.252 . S
O189 In182 2.326 . S
O189 C185 1.260 . S
O190 In182 2.266 . S
O190 C187 1.252 . S
O191 In182 2.326 . S
O191 C187 1.260 . S
C192 O183 1.240 . S
C192 O184 1.252 . S
O193 In182 2.294 . S
O193 C186 1.240 . S
O194 In182 2.326 . S
O194 C186 1.252 . S
In195 O196 2.294 . S
In195 O197 2.326 . S
In195 O201 2.266 . S
In195 O202 2.326 . S
In195 O203 2.266 . S
In195 O204 2.326 . S
In195 O206 2.294 . S
In195 O207 2.326 . S
O196 In195 2.294 . S
O196 C205 1.240 . S
O197 In195 2.326 . S
O197 C205 1.252 . S
C198 O201 1.252 . S
C198 O202 1.260 . S
C199 O206 1.240 . S
C199 O207 1.252 . S
C200 O203 1.252 . S
C200 O204 1.260 . S
O201 In195 2.266 . S
O201 C198 1.252 . S
O202 In195 2.326 . S
O202 C198 1.260 . S
O203 In195 2.266 . S
O203 C200 1.252 . S
O204 In195 2.326 . S
O204 C200 1.260 . S
C205 O196 1.240 . S
C205 O197 1.252 . S
O206 In195 2.294 . S
O206 C199 1.240 . S
O207 In195 2.326 . S
O207 C199 1.252 . S
In208 O209 2.294 . S
In208 O210 2.326 . S
In208 O214 2.266 . S
In208 O215 2.326 . S
In208 O216 2.266 . S
In208 O217 2.326 . S
In208 O219 2.294 . S
In208 O220 2.326 . S
O209 In208 2.294 . S
O209 C218 1.240 . S
O210 In208 2.326 . S
O210 C218 1.252 . S
C211 O214 1.252 . S
C211 O215 1.260 . S
C212 O219 1.240 . S
C212 O220 1.252 . S
C213 O216 1.252 . S
C213 O217 1.260 . S
O214 In208 2.266 . S
O214 C211 1.252 . S
O215 In208 2.326 . S
O215 C211 1.260 . S
O216 In208 2.266 . S
O216 C213 1.252 . S
O217 In208 2.326 . S
O217 C213 1.260 . S
C218 O209 1.240 . S
C218 O210 1.252 . S
O219 In208 2.294 . S
O219 C212 1.240 . S
O220 In208 2.326 . S
O220 C212 1.252 . S
In221 O222 2.294 . S
In221 O223 2.326 . S
In221 O227 2.266 . S
In221 O228 2.326 . S
In221 O229 2.266 . S
In221 O230 2.326 . S
In221 O232 2.294 . S
In221 O233 2.326 . S
O222 In221 2.294 . S
O222 C231 1.240 . S
O223 In221 2.326 . S
O223 C231 1.252 . S
C224 O227 1.252 . S
C224 O228 1.260 . S
C225 O232 1.240 . S
C225 O233 1.252 . S
C226 O229 1.252 . S
C226 O230 1.260 . S
O227 In221 2.266 . S
O227 C224 1.252 . S
O228 In221 2.326 . S
O228 C224 1.260 . S
O229 In221 2.266 . S
O229 C226 1.252 . S
O230 In221 2.326 . S
O230 C226 1.260 . S
C231 O222 1.240 . S
C231 O223 1.252 . S
O232 In221 2.294 . S
O232 C225 1.240 . S
O233 In221 2.326 . S
O233 C225 1.252 . S
In234 O235 2.294 . S
In234 O236 2.326 . S
In234 O240 2.266 . S
In234 O241 2.326 . S
In234 O242 2.266 . S
In234 O243 2.326 . S
In234 O245 2.294 . S
In234 O246 2.326 . S
O235 In234 2.294 . S
O235 C244 1.240 . S
O236 In234 2.326 . S
O236 C244 1.252 . S
C237 O240 1.252 . S
C237 O241 1.260 . S
C238 O245 1.240 . S
C238 O246 1.252 . S
C239 O242 1.252 . S
C239 O243 1.260 . S
O240 In234 2.266 . S
O240 C237 1.252 . S
O241 In234 2.326 . S
O241 C237 1.260 . S
O242 In234 2.266 . S
O242 C239 1.252 . S
O243 In234 2.326 . S
O243 C239 1.260 . S
C244 O235 1.240 . S
C244 O236 1.252 . S
O245 In234 2.294 . S
O245 C238 1.240 . S
O246 In234 2.326 . S
O246 C238 1.252 . S
In247 O248 2.294 . S
In247 O249 2.326 . S
In247 O253 2.266 . S
In247 O254 2.326 . S
In247 O255 2.266 . S
In247 O256 2.326 . S
In247 O258 2.294 . S
In247 O259 2.326 . S
O248 In247 2.294 . S
O248 C257 1.240 . S
O249 In247 2.326 . S
O249 C257 1.252 . S
C250 O253 1.252 . S
C250 O254 1.260 . S
C251 O258 1.240 . S
C251 O259 1.252 . S
C252 O255 1.252 . S
C252 O256 1.260 . S
O253 In247 2.266 . S
O253 C250 1.252 . S
O254 In247 2.326 . S
O254 C250 1.260 . S
O255 In247 2.266 . S
O255 C252 1.252 . S
O256 In247 2.326 . S
O256 C252 1.260 . S
C257 O248 1.240 . S
C257 O249 1.252 . S
O258 In247 2.294 . S
O258 C251 1.240 . S
O259 In247 2.326 . S
O259 C251 1.252 . S
In260 O261 2.294 . S
In260 O262 2.326 . S
In260 O266 2.266 . S
In260 O267 2.326 . S
In260 O268 2.266 . S
In260 O269 2.326 . S
In260 O271 2.294 . S
In260 O272 2.326 . S
O261 In260 2.294 . S
O261 C270 1.240 . S
O262 In260 2.326 . S
O262 C270 1.252 . S
C263 O266 1.252 . S
C263 O267 1.260 . S
C264 O271 1.240 . S
C264 O272 1.252 . S
C265 O268 1.252 . S
C265 O269 1.260 . S
O266 In260 2.266 . S
O266 C263 1.252 . S
O267 In260 2.326 . S
O267 C263 1.260 . S
O268 In260 2.266 . S
O268 C265 1.252 . S
O269 In260 2.326 . S
O269 C265 1.260 . S
C270 O261 1.240 . S
C270 O262 1.252 . S
O271 In260 2.294 . S
O271 C264 1.240 . S
O272 In260 2.326 . S
O272 C264 1.252 . S
In273 O274 2.297 1_565 S
In273 O275 2.330 . S
In273 O279 2.264 1_564 S
In273 O280 2.322 1_554 S
In273 O281 2.265 1_554 S
In273 O282 2.325 1_554 S
In273 O284 2.294 . S
In273 O285 2.327 1_565 S
O274 In273 2.297 1_545 S
O274 C283 1.240 . S
O275 In273 2.330 . S
O275 C283 1.252 1_565 S
C276 O279 1.252 . S
C276 O280 1.260 1_545 S
C277 O284 1.240 . S
C277 O285 1.252 1_565 S
C278 O281 1.252 . S
C278 O282 1.260 . S
O279 In273 2.264 1_546 S
O279 C276 1.252 . S
O280 In273 2.322 1_556 S
O280 C276 1.260 1_565 S
O281 In273 2.265 1_556 S
O281 C278 1.252 . S
O282 In273 2.325 1_556 S
O282 C278 1.260 . S
C283 O274 1.240 . S
C283 O275 1.252 1_545 S
O284 In273 2.294 . S
O284 C277 1.240 . S
O285 In273 2.327 1_545 S
O285 C277 1.252 1_545 S
In286 O287 2.294 . S
In286 O288 2.327 . S
In286 O292 2.265 1_554 S
In286 O293 2.325 1_554 S
In286 O294 2.264 1_554 S
In286 O295 2.322 1_554 S
In286 O297 2.296 . S
In286 O298 2.330 . S
O287 In286 2.294 . S
O287 C296 1.240 . S
O288 In286 2.327 . S
O288 C296 1.252 . S
C289 O292 1.252 . S
C289 O293 1.260 . S
C290 O297 1.240 . S
C290 O298 1.252 . S
C291 O294 1.252 . S
C291 O295 1.260 . S
O292 In286 2.265 1_556 S
O292 C289 1.252 . S
O293 In286 2.325 1_556 S
O293 C289 1.260 . S
O294 In286 2.264 1_556 S
O294 C291 1.252 . S
O295 In286 2.322 1_556 S
O295 C291 1.260 . S
C296 O287 1.240 . S
C296 O288 1.252 . S
O297 In286 2.296 . S
O297 C290 1.240 . S
O298 In286 2.330 . S
O298 C290 1.252 . S
In299 O300 2.296 . S
In299 O301 2.330 . S
In299 O305 2.264 1_554 S
In299 O306 2.322 1_554 S
In299 O307 2.265 1_554 S
In299 O308 2.325 1_554 S
In299 O310 2.294 . S
In299 O311 2.327 . S
O300 In299 2.296 . S
O300 C309 1.240 . S
O301 In299 2.330 . S
O301 C309 1.252 . S
C302 O305 1.252 . S
C302 O306 1.260 . S
C303 O310 1.240 . S
C303 O311 1.252 . S
C304 O307 1.252 . S
C304 O308 1.260 . S
O305 In299 2.264 1_556 S
O305 C302 1.252 . S
O306 In299 2.322 1_556 S
O306 C302 1.260 . S
O307 In299 2.265 1_556 S
O307 C304 1.252 . S
O308 In299 2.325 1_556 S
O308 C304 1.260 . S
C309 O300 1.240 . S
C309 O301 1.252 . S
O310 In299 2.294 . S
O310 C303 1.240 . S
O311 In299 2.327 . S
O311 C303 1.252 . S
In312 O313 2.294 . S
In312 O314 2.326 . S
In312 O318 2.266 . S
In312 O319 2.326 . S
In312 O320 2.266 . S
In312 O321 2.326 . S
In312 O323 2.294 . S
In312 O324 2.326 . S
O313 In312 2.294 . S
O313 C322 1.240 . S
O314 In312 2.326 . S
O314 C322 1.252 . S
C315 O318 1.252 . S
C315 O319 1.260 . S
C316 O323 1.240 . S
C316 O324 1.252 . S
C317 O320 1.252 . S
C317 O321 1.260 . S
O318 In312 2.266 . S
O318 C315 1.252 . S
O319 In312 2.326 . S
O319 C315 1.260 . S
O320 In312 2.266 . S
O320 C317 1.252 . S
O321 In312 2.326 . S
O321 C317 1.260 . S
C322 O313 1.240 . S
C322 O314 1.252 . S
O323 In312 2.294 . S
O323 C316 1.240 . S
O324 In312 2.326 . S
O324 C316 1.252 . S
In325 O326 2.294 . S
In325 O327 2.326 . S
In325 O331 2.266 . S
In325 O332 2.326 . S
In325 O333 2.266 . S
In325 O334 2.326 . S
In325 O336 2.294 . S
In325 O337 2.326 . S
O326 In325 2.294 . S
O326 C335 1.240 . S
O327 In325 2.326 . S
O327 C335 1.252 . S
C328 O331 1.252 . S
C328 O332 1.260 . S
C329 O336 1.240 . S
C329 O337 1.252 . S
C330 O333 1.252 . S
C330 O334 1.260 . S
O331 In325 2.266 . S
O331 C328 1.252 . S
O332 In325 2.326 . S
O332 C328 1.260 . S
O333 In325 2.266 . S
O333 C330 1.252 . S
O334 In325 2.326 . S
O334 C330 1.260 . S
C335 O326 1.240 . S
C335 O327 1.252 . S
O336 In325 2.294 . S
O336 C329 1.240 . S
O337 In325 2.326 . S
O337 C329 1.252 . S
In338 O339 2.294 . S
In338 O340 2.326 . S
In338 O344 2.266 . S
In338 O345 2.326 . S
In338 O346 2.266 . S
In338 O347 2.326 . S
In338 O349 2.294 . S
In338 O350 2.326 . S
O339 In338 2.294 . S
O339 C348 1.240 . S
O340 In338 2.326 . S
O340 C348 1.252 . S
C341 O344 1.252 . S
C341 O345 1.260 . S
C342 O349 1.240 . S
C342 O350 1.252 . S
C343 O346 1.252 . S
C343 O347 1.260 . S
O344 In338 2.266 . S
O344 C341 1.252 . S
O345 In338 2.326 . S
O345 C341 1.260 . S
O346 In338 2.266 . S
O346 C343 1.252 . S
O347 In338 2.326 . S
O347 C343 1.260 . S
C348 O339 1.240 . S
C348 O340 1.252 . S
O349 In338 2.294 . S
O349 C342 1.240 . S
O350 In338 2.326 . S
O350 C342 1.252 . S
In351 O352 2.297 1_545 S
In351 O353 2.330 . S
In351 O357 2.264 1_546 S
In351 O358 2.322 1_556 S
In351 O359 2.265 1_556 S
In351 O360 2.325 1_556 S
In351 O362 2.294 . S
In351 O363 2.327 1_545 S
O352 In351 2.297 1_565 S
O352 C361 1.240 . S
O353 In351 2.330 . S
O353 C361 1.252 1_545 S
C354 O357 1.252 . S
C354 O358 1.260 1_565 S
C355 O362 1.240 . S
C355 O363 1.252 1_545 S
C356 O359 1.252 . S
C356 O360 1.260 . S
O357 In351 2.264 1_564 S
O357 C354 1.252 . S
O358 In351 2.322 1_554 S
O358 C354 1.260 1_545 S
O359 In351 2.265 1_554 S
O359 C356 1.252 . S
O360 In351 2.325 1_554 S
O360 C356 1.260 . S
C361 O352 1.240 . S
C361 O353 1.252 1_565 S
O362 In351 2.294 . S
O362 C355 1.240 . S
O363 In351 2.327 1_565 S
O363 C355 1.252 1_565 S
In364 O365 2.296 . S
In364 O366 2.330 . S
In364 O370 2.264 1_556 S
In364 O371 2.322 1_556 S
In364 O372 2.265 1_556 S
In364 O373 2.325 1_556 S
In364 O375 2.294 . S
In364 O376 2.327 . S
O365 In364 2.296 . S
O365 C374 1.240 . S
O366 In364 2.330 . S
O366 C374 1.252 . S
C367 O370 1.252 . S
C367 O371 1.260 . S
C368 O375 1.240 . S
C368 O376 1.252 . S
C369 O372 1.252 . S
C369 O373 1.260 . S
O370 In364 2.264 1_554 S
O370 C367 1.252 . S
O371 In364 2.322 1_554 S
O371 C367 1.260 . S
O372 In364 2.265 1_554 S
O372 C369 1.252 . S
O373 In364 2.325 1_554 S
O373 C369 1.260 . S
C374 O365 1.240 . S
C374 O366 1.252 . S
O375 In364 2.294 . S
O375 C368 1.240 . S
O376 In364 2.327 . S
O376 C368 1.252 . S
In377 O378 2.294 . S
In377 O379 2.327 . S
In377 O383 2.265 1_556 S
In377 O384 2.325 1_556 S
In377 O385 2.264 1_556 S
In377 O386 2.322 1_556 S
In377 O388 2.296 . S
In377 O389 2.330 . S
O378 In377 2.294 . S
O378 C387 1.240 . S
O379 In377 2.327 . S
O379 C387 1.252 . S
C380 O383 1.252 . S
C380 O384 1.260 . S
C381 O388 1.240 . S
C381 O389 1.252 . S
C382 O385 1.252 . S
C382 O386 1.260 . S
O383 In377 2.265 1_554 S
O383 C380 1.252 . S
O384 In377 2.325 1_554 S
O384 C380 1.260 . S
O385 In377 2.264 1_554 S
O385 C382 1.252 . S
O386 In377 2.322 1_554 S
O386 C382 1.260 . S
C387 O378 1.240 . S
C387 O379 1.252 . S
O388 In377 2.296 . S
O388 C381 1.240 . S
O389 In377 2.330 . S
O389 C381 1.252 . S
In390 O391 2.294 . S
In390 O392 2.327 1_655 S
In390 O396 2.265 . S
In390 O397 2.325 . S
In390 O398 2.267 1_655 S
In390 O399 2.326 . S
In390 O401 2.294 1_655 S
In390 O402 2.326 . S
O391 In390 2.294 . S
O391 C400 1.240 . S
O392 In390 2.327 1_455 S
O392 C400 1.252 1_455 S
C393 O396 1.252 . S
C393 O397 1.260 . S
C394 O401 1.240 . S
C394 O402 1.252 1_455 S
C395 O398 1.252 . S
C395 O399 1.260 1_455 S
O396 In390 2.265 . S
O396 C393 1.252 . S
O397 In390 2.325 . S
O397 C393 1.260 . S
O398 In390 2.267 1_455 S
O398 C395 1.252 . S
O399 In390 2.326 . S
O399 C395 1.260 1_655 S
C400 O391 1.240 . S
C400 O392 1.252 1_655 S
O401 In390 2.294 1_455 S
O401 C394 1.240 . S
O402 In390 2.326 . S
O402 C394 1.252 1_655 S
In403 O404 2.294 . S
In403 O405 2.326 . S
In403 O409 2.266 . S
In403 O410 2.326 . S
In403 O411 2.266 . S
In403 O412 2.326 . S
In403 O414 2.294 . S
In403 O415 2.326 . S
O404 In403 2.294 . S
O404 C413 1.240 . S
O405 In403 2.326 . S
O405 C413 1.252 . S
C406 O409 1.252 . S
C406 O410 1.260 . S
C407 O414 1.240 . S
C407 O415 1.252 . S
C408 O411 1.252 . S
C408 O412 1.260 . S
O409 In403 2.266 . S
O409 C406 1.252 . S
O410 In403 2.326 . S
O410 C406 1.260 . S
O411 In403 2.266 . S
O411 C408 1.252 . S
O412 In403 2.326 . S
O412 C408 1.260 . S
C413 O404 1.240 . S
C413 O405 1.252 . S
O414 In403 2.294 . S
O414 C407 1.240 . S
O415 In403 2.326 . S
O415 C407 1.252 . S
In416 O417 2.294 . S
In416 O418 2.326 . S
In416 O422 2.266 . S
In416 O423 2.326 . S
In416 O424 2.266 . S
In416 O425 2.326 . S
In416 O427 2.294 . S
In416 O428 2.326 . S
O417 In416 2.294 . S
O417 C426 1.240 . S
O418 In416 2.326 . S
O418 C426 1.252 . S
C419 O422 1.252 . S
C419 O423 1.260 . S
C420 O427 1.240 . S
C420 O428 1.252 . S
C421 O424 1.252 . S
C421 O425 1.260 . S
O422 In416 2.266 . S
O422 C419 1.252 . S
O423 In416 2.326 . S
O423 C419 1.260 . S
O424 In416 2.266 . S
O424 C421 1.252 . S
O425 In416 2.326 . S
O425 C421 1.260 . S
C426 O417 1.240 . S
C426 O418 1.252 . S
O427 In416 2.294 . S
O427 C420 1.240 . S
O428 In416 2.326 . S
O428 C420 1.252 . S
In429 O430 2.294 . S
In429 O431 2.326 . S
In429 O435 2.266 . S
In429 O436 2.326 . S
In429 O437 2.266 . S
In429 O438 2.326 . S
In429 O440 2.294 . S
In429 O441 2.326 . S
O430 In429 2.294 . S
O430 C439 1.240 . S
O431 In429 2.326 . S
O431 C439 1.252 . S
C432 O435 1.252 . S
C432 O436 1.260 . S
C433 O440 1.240 . S
C433 O441 1.252 . S
C434 O437 1.252 . S
C434 O438 1.260 . S
O435 In429 2.266 . S
O435 C432 1.252 . S
O436 In429 2.326 . S
O436 C432 1.260 . S
O437 In429 2.266 . S
O437 C434 1.252 . S
O438 In429 2.326 . S
O438 C434 1.260 . S
C439 O430 1.240 . S
C439 O431 1.252 . S
O440 In429 2.294 . S
O440 C433 1.240 . S
O441 In429 2.326 . S
O441 C433 1.252 . S
In442 O443 2.294 . S
In442 O444 2.326 . S
In442 O448 2.266 . S
In442 O449 2.326 . S
In442 O450 2.266 . S
In442 O451 2.326 . S
In442 O453 2.294 . S
In442 O454 2.326 . S
O443 In442 2.294 . S
O443 C452 1.240 . S
O444 In442 2.326 . S
O444 C452 1.252 . S
C445 O448 1.252 . S
C445 O449 1.260 . S
C446 O453 1.240 . S
C446 O454 1.252 . S
C447 O450 1.252 . S
C447 O451 1.260 . S
O448 In442 2.266 . S
O448 C445 1.252 . S
O449 In442 2.326 . S
O449 C445 1.260 . S
O450 In442 2.266 . S
O450 C447 1.252 . S
O451 In442 2.326 . S
O451 C447 1.260 . S
C452 O443 1.240 . S
C452 O444 1.252 . S
O453 In442 2.294 . S
O453 C446 1.240 . S
O454 In442 2.326 . S
O454 C446 1.252 . S
In455 O456 2.294 . S
In455 O457 2.326 . S
In455 O461 2.266 . S
In455 O462 2.326 . S
In455 O463 2.266 . S
In455 O464 2.326 . S
In455 O466 2.294 . S
In455 O467 2.326 . S
O456 In455 2.294 . S
O456 C465 1.240 . S
O457 In455 2.326 . S
O457 C465 1.252 . S
C458 O461 1.252 . S
C458 O462 1.260 . S
C459 O466 1.240 . S
C459 O467 1.252 . S
C460 O463 1.252 . S
C460 O464 1.260 . S
O461 In455 2.266 . S
O461 C458 1.252 . S
O462 In455 2.326 . S
O462 C458 1.260 . S
O463 In455 2.266 . S
O463 C460 1.252 . S
O464 In455 2.326 . S
O464 C460 1.260 . S
C465 O456 1.240 . S
C465 O457 1.252 . S
O466 In455 2.294 . S
O466 C459 1.240 . S
O467 In455 2.326 . S
O467 C459 1.252 . S
C468 C469 1.349 . S
C468 C470 1.327 . S
C468 H493 0.950 . S
C469 C468 1.349 . S
C469 C485 1.349 . S
C470 C468 1.327 . S
C470 C489 1.429 . S
C470 H494 0.950 . S
C471 C488 1.574 . S
C471 C490 1.368 . S
C471 H495 0.949 . S
H472 C476 0.949 . S
C473 C474 1.349 . S
C473 C475 1.327 . S
C473 H496 0.950 . S
C474 C473 1.349 . S
C474 C486 1.349 . S
C475 C473 1.327 . S
C475 C491 1.429 . S
C475 H497 0.950 . S
C476 H472 0.949 . S
C476 C484 1.574 . S
C476 C492 1.368 . S
H477 C485 0.950 . S
H478 C483 0.950 . S
H479 C484 0.949 . S
H480 C486 0.950 . S
H481 C487 0.950 . S
H482 C488 0.949 . S
C483 H478 0.950 . S
C483 C485 1.327 . S
C483 C489 1.429 . S
C484 C476 1.574 . S
C484 H479 0.949 . S
C484 C490 1.368 . S
C485 C469 1.349 . S
C485 H477 0.950 . S
C485 C483 1.327 . S
C486 C474 1.349 . S
C486 H480 0.950 . S
C486 C487 1.327 . S
C487 H481 0.950 . S
C487 C486 1.327 . S
C487 C491 1.429 . S
C488 C471 1.574 . S
C488 H482 0.949 . S
C488 C492 1.368 . S
C489 C470 1.429 . S
C489 C483 1.429 . S
C489 C490 1.523 . S
C490 C471 1.368 . S
C490 C484 1.368 . S
C490 C489 1.523 . S
C491 C475 1.429 . S
C491 C487 1.429 . S
C491 C492 1.523 . S
C492 C476 1.368 . S
C492 C488 1.368 . S
C492 C491 1.523 . S
H493 C468 0.950 . S
H494 C470 0.950 . S
H495 C471 0.949 . S
H496 C473 0.950 . S
H497 C475 0.950 . S
C498 C499 1.349 . S
C498 C500 1.327 . S
C498 H523 0.950 . S
C499 C498 1.349 . S
C499 C515 1.349 . S
C500 C498 1.327 . S
C500 C519 1.429 . S
C500 H524 0.950 . S
C501 C518 1.574 . S
C501 C520 1.368 . S
C501 H525 0.949 . S
H502 C506 0.949 . S
C503 C504 1.349 . S
C503 C505 1.327 . S
C503 H526 0.950 . S
C504 C503 1.349 . S
C504 C516 1.349 . S
C505 C503 1.327 . S
C505 C521 1.429 . S
C505 H527 0.950 . S
C506 H502 0.949 . S
C506 C514 1.574 . S
C506 C522 1.368 . S
H507 C515 0.950 . S
H508 C513 0.950 . S
H509 C514 0.949 . S
H510 C516 0.950 . S
H511 C517 0.950 . S
H512 C518 0.949 . S
C513 H508 0.950 . S
C513 C515 1.327 . S
C513 C519 1.429 . S
C514 C506 1.574 . S
C514 H509 0.949 . S
C514 C520 1.368 . S
C515 C499 1.349 . S
C515 H507 0.950 . S
C515 C513 1.327 . S
C516 C504 1.349 . S
C516 H510 0.950 . S
C516 C517 1.327 . S
C517 H511 0.950 . S
C517 C516 1.327 . S
C517 C521 1.429 . S
C518 C501 1.574 . S
C518 H512 0.949 . S
C518 C522 1.368 . S
C519 C500 1.429 . S
C519 C513 1.429 . S
C519 C520 1.523 . S
C520 C501 1.368 . S
C520 C514 1.368 . S
C520 C519 1.523 . S
C521 C505 1.429 . S
C521 C517 1.429 . S
C521 C522 1.523 . S
C522 C506 1.368 . S
C522 C518 1.368 . S
C522 C521 1.523 . S
H523 C498 0.950 . S
H524 C500 0.950 . S
H525 C501 0.949 . S
H526 C503 0.950 . S
H527 C505 0.950 . S
C528 C529 1.349 . S
C528 C530 1.327 . S
C528 H553 0.950 . S
C529 C528 1.349 . S
C529 C545 1.349 . S
C530 C528 1.327 . S
C530 C549 1.429 . S
C530 H554 0.950 . S
C531 C548 1.574 . S
C531 C550 1.368 . S
C531 H555 0.949 . S
H532 C536 0.949 . S
C533 C534 1.349 . S
C533 C535 1.327 . S
C533 H556 0.950 . S
C534 C533 1.349 . S
C534 C546 1.349 . S
C535 C533 1.327 . S
C535 C551 1.429 . S
C535 H557 0.950 . S
C536 H532 0.949 . S
C536 C544 1.574 . S
C536 C552 1.368 . S
H537 C545 0.950 . S
H538 C543 0.950 . S
H539 C544 0.949 . S
H540 C546 0.950 . S
H541 C547 0.950 . S
H542 C548 0.949 . S
C543 H538 0.950 . S
C543 C545 1.327 . S
C543 C549 1.429 . S
C544 C536 1.574 . S
C544 H539 0.949 . S
C544 C550 1.368 . S
C545 C529 1.349 . S
C545 H537 0.950 . S
C545 C543 1.327 . S
C546 C534 1.349 . S
C546 H540 0.950 . S
C546 C547 1.327 . S
C547 H541 0.950 . S
C547 C546 1.327 . S
C547 C551 1.429 . S
C548 C531 1.574 . S
C548 H542 0.949 . S
C548 C552 1.368 . S
C549 C530 1.429 . S
C549 C543 1.429 . S
C549 C550 1.523 . S
C550 C531 1.368 . S
C550 C544 1.368 . S
C550 C549 1.523 . S
C551 C535 1.429 . S
C551 C547 1.429 . S
C551 C552 1.523 . S
C552 C536 1.368 . S
C552 C548 1.368 . S
C552 C551 1.523 . S
H553 C528 0.950 . S
H554 C530 0.950 . S
H555 C531 0.949 . S
H556 C533 0.950 . S
H557 C535 0.950 . S
C558 C559 1.349 . S
C558 C560 1.327 . S
C558 H583 0.950 . S
C559 C558 1.349 . S
C559 C575 1.349 . S
C560 C558 1.327 . S
C560 C579 1.429 1_556 S
C560 H584 0.950 1_556 S
C561 C578 1.574 . S
C561 C580 1.368 . S
C561 H585 0.949 . S
H562 C566 0.949 . S
C563 C564 1.349 . S
C563 C565 1.327 . S
C563 H586 0.950 . S
C564 C563 1.349 . S
C564 C576 1.349 . S
C565 C563 1.327 . S
C565 C581 1.429 . S
C565 H587 0.950 . S
C566 H562 0.949 . S
C566 C574 1.574 . S
C566 C582 1.368 . S
H567 C575 0.950 . S
H568 C573 0.950 . S
H569 C574 0.949 . S
H570 C576 0.950 . S
H571 C577 0.950 . S
H572 C578 0.949 . S
C573 H568 0.950 . S
C573 C575 1.327 . S
C573 C579 1.429 1_556 S
C574 C566 1.574 . S
C574 H569 0.949 . S
C574 C580 1.368 . S
C575 C559 1.349 . S
C575 H567 0.950 . S
C575 C573 1.327 . S
C576 C564 1.349 . S
C576 H570 0.950 . S
C576 C577 1.327 . S
C577 H571 0.950 . S
C577 C576 1.327 . S
C577 C581 1.429 . S
C578 C561 1.574 . S
C578 H572 0.949 . S
C578 C582 1.368 . S
C579 C560 1.429 1_554 S
C579 C573 1.429 1_554 S
C579 C580 1.523 . S
C580 C561 1.368 . S
C580 C574 1.368 . S
C580 C579 1.523 . S
C581 C565 1.429 . S
C581 C577 1.429 . S
C581 C582 1.523 . S
C582 C566 1.368 . S
C582 C578 1.368 . S
C582 C581 1.523 . S
H583 C558 0.950 . S
H584 C560 0.950 1_554 S
H585 C561 0.949 . S
H586 C563 0.950 . S
H587 C565 0.950 . S
C588 C589 1.349 . S
C588 C590 1.327 . S
C588 H613 0.950 . S
C589 C588 1.349 . S
C589 C605 1.349 . S
C590 C588 1.327 . S
C590 C609 1.429 . S
C590 H614 0.950 . S
C591 C608 1.574 . S
C591 C610 1.368 . S
C591 H615 0.949 . S
H592 C596 0.949 . S
C593 C594 1.349 . S
C593 C595 1.327 . S
C593 H616 0.950 . S
C594 C593 1.349 . S
C594 C606 1.349 . S
C595 C593 1.327 . S
C595 C611 1.429 1_556 S
C595 H617 0.950 . S
C596 H592 0.949 . S
C596 C604 1.574 . S
C596 C612 1.368 . S
H597 C605 0.950 . S
H598 C603 0.950 . S
H599 C604 0.949 . S
H600 C606 0.950 . S
H601 C607 0.950 . S
H602 C608 0.949 . S
C603 H598 0.950 . S
C603 C605 1.327 . S
C603 C609 1.429 . S
C604 C596 1.574 . S
C604 H599 0.949 . S
C604 C610 1.368 . S
C605 C589 1.349 . S
C605 H597 0.950 . S
C605 C603 1.327 . S
C606 C594 1.349 . S
C606 H600 0.950 . S
C606 C607 1.327 . S
C607 H601 0.950 . S
C607 C606 1.327 . S
C607 C611 1.429 1_556 S
C608 C591 1.574 . S
C608 H602 0.949 . S
C608 C612 1.368 . S
C609 C590 1.429 . S
C609 C603 1.429 . S
C609 C610 1.523 . S
C610 C591 1.368 . S
C610 C604 1.368 . S
C610 C609 1.523 . S
C611 C595 1.429 1_554 S
C611 C607 1.429 1_554 S
C611 C612 1.523 . S
C612 C596 1.368 . S
C612 C608 1.368 . S
C612 C611 1.523 . S
H613 C588 0.950 . S
H614 C590 0.950 . S
H615 C591 0.949 . S
H616 C593 0.950 . S
H617 C595 0.950 . S
C618 C619 1.349 . S
C618 C620 1.327 . S
C618 H643 0.950 . S
C619 C618 1.349 . S
C619 C635 1.349 . S
C620 C618 1.327 . S
C620 C639 1.429 . S
C620 H644 0.950 . S
C621 C638 1.574 . S
C621 C640 1.368 . S
C621 H645 0.949 . S
H622 C626 0.949 . S
C623 C624 1.349 . S
C623 C625 1.327 . S
C623 H646 0.950 . S
C624 C623 1.349 . S
C624 C636 1.349 . S
C625 C623 1.327 . S
C625 C641 1.429 1_556 S
C625 H647 0.950 . S
C626 H622 0.949 . S
C626 C634 1.574 . S
C626 C642 1.368 . S
H627 C635 0.950 . S
H628 C633 0.950 . S
H629 C634 0.949 . S
H630 C636 0.950 . S
H631 C637 0.950 . S
H632 C638 0.949 . S
C633 H628 0.950 . S
C633 C635 1.327 . S
C633 C639 1.429 . S
C634 C626 1.574 . S
C634 H629 0.949 . S
C634 C640 1.368 . S
C635 C619 1.349 . S
C635 H627 0.950 . S
C635 C633 1.327 . S
C636 C624 1.349 . S
C636 H630 0.950 . S
C636 C637 1.327 . S
C637 H631 0.950 . S
C637 C636 1.327 . S
C637 C641 1.429 1_556 S
C638 C621 1.574 . S
C638 H632 0.949 . S
C638 C642 1.368 . S
C639 C620 1.429 . S
C639 C633 1.429 . S
C639 C640 1.523 . S
C640 C621 1.368 . S
C640 C634 1.368 . S
C640 C639 1.523 . S
C641 C625 1.429 1_554 S
C641 C637 1.429 1_554 S
C641 C642 1.523 . S
C642 C626 1.368 . S
C642 C638 1.368 . S
C642 C641 1.523 . S
H643 C618 0.950 . S
H644 C620 0.950 . S
H645 C621 0.949 . S
H646 C623 0.950 . S
H647 C625 0.950 . S
C648 C649 1.349 . S
C648 C650 1.327 . S
C648 H673 0.950 . S
C649 C648 1.349 . S
C649 C665 1.349 . S
C650 C648 1.327 . S
C650 C669 1.429 . S
C650 H674 0.950 . S
C651 C668 1.574 . S
C651 C670 1.368 . S
C651 H675 0.949 . S
H652 C656 0.949 . S
C653 C654 1.349 . S
C653 C655 1.327 . S
C653 H676 0.950 . S
C654 C653 1.349 . S
C654 C666 1.349 . S
C655 C653 1.327 . S
C655 C671 1.429 . S
C655 H677 0.950 . S
C656 H652 0.949 . S
C656 C664 1.574 . S
C656 C672 1.368 . S
H657 C665 0.950 . S
H658 C663 0.950 . S
H659 C664 0.949 . S
H660 C666 0.950 . S
H661 C667 0.950 . S
H662 C668 0.949 . S
C663 H658 0.950 . S
C663 C665 1.327 . S
C663 C669 1.429 . S
C664 C656 1.574 . S
C664 H659 0.949 . S
C664 C670 1.368 . S
C665 C649 1.349 . S
C665 H657 0.950 . S
C665 C663 1.327 . S
C666 C654 1.349 . S
C666 H660 0.950 . S
C666 C667 1.327 . S
C667 H661 0.950 . S
C667 C666 1.327 . S
C667 C671 1.429 . S
C668 C651 1.574 . S
C668 H662 0.949 . S
C668 C672 1.368 . S
C669 C650 1.429 . S
C669 C663 1.429 . S
C669 C670 1.523 . S
C670 C651 1.368 . S
C670 C664 1.368 . S
C670 C669 1.523 . S
C671 C655 1.429 . S
C671 C667 1.429 . S
C671 C672 1.523 . S
C672 C656 1.368 . S
C672 C668 1.368 . S
C672 C671 1.523 . S
H673 C648 0.950 . S
H674 C650 0.950 . S
H675 C651 0.949 . S
H676 C653 0.950 . S
H677 C655 0.950 . S
C678 C679 1.349 . S
C678 C680 1.327 . S
C678 H703 0.950 . S
C679 C678 1.349 . S
C679 C695 1.349 . S
C680 C678 1.327 . S
C680 C699 1.429 . S
C680 H704 0.950 . S
C681 C698 1.574 . S
C681 C700 1.368 . S
C681 H705 0.949 . S
H682 C686 0.949 . S
C683 C684 1.349 . S
C683 C685 1.327 . S
C683 H706 0.950 . S
C684 C683 1.349 . S
C684 C696 1.349 . S
C685 C683 1.327 . S
C685 C701 1.429 . S
C685 H707 0.950 . S
C686 H682 0.949 . S
C686 C694 1.574 . S
C686 C702 1.368 . S
H687 C695 0.950 . S
H688 C693 0.950 . S
H689 C694 0.949 . S
H690 C696 0.950 . S
H691 C697 0.950 . S
H692 C698 0.949 . S
C693 H688 0.950 . S
C693 C695 1.327 . S
C693 C699 1.429 . S
C694 C686 1.574 . S
C694 H689 0.949 . S
C694 C700 1.368 . S
C695 C679 1.349 . S
C695 H687 0.950 . S
C695 C693 1.327 . S
C696 C684 1.349 . S
C696 H690 0.950 . S
C696 C697 1.327 . S
C697 H691 0.950 . S
C697 C696 1.327 . S
C697 C701 1.429 . S
C698 C681 1.574 . S
C698 H692 0.949 . S
C698 C702 1.368 . S
C699 C680 1.429 . S
C699 C693 1.429 . S
C699 C700 1.523 . S
C700 C681 1.368 . S
C700 C694 1.368 . S
C700 C699 1.523 . S
C701 C685 1.429 . S
C701 C697 1.429 . S
C701 C702 1.523 . S
C702 C686 1.368 . S
C702 C698 1.368 . S
C702 C701 1.523 . S
H703 C678 0.950 . S
H704 C680 0.950 . S
H705 C681 0.949 . S
H706 C683 0.950 . S
H707 C685 0.950 . S
C708 C709 1.349 . S
C708 C710 1.327 . S
C708 H733 0.950 . S
C709 C708 1.349 . S
C709 C725 1.349 . S
C710 C708 1.327 . S
C710 C729 1.429 . S
C710 H734 0.950 . S
C711 C728 1.574 . S
C711 C730 1.368 . S
C711 H735 0.949 . S
H712 C716 0.949 . S
C713 C714 1.349 . S
C713 C715 1.327 . S
C713 H736 0.950 . S
C714 C713 1.349 . S
C714 C726 1.349 . S
C715 C713 1.327 . S
C715 C731 1.429 . S
C715 H737 0.950 . S
C716 H712 0.949 . S
C716 C724 1.574 . S
C716 C732 1.368 . S
H717 C725 0.950 . S
H718 C723 0.950 . S
H719 C724 0.949 . S
H720 C726 0.950 . S
H721 C727 0.950 . S
H722 C728 0.949 . S
C723 H718 0.950 . S
C723 C725 1.327 . S
C723 C729 1.429 . S
C724 C716 1.574 . S
C724 H719 0.949 . S
C724 C730 1.368 . S
C725 C709 1.349 . S
C725 H717 0.950 . S
C725 C723 1.327 . S
C726 C714 1.349 . S
C726 H720 0.950 . S
C726 C727 1.327 . S
C727 H721 0.950 . S
C727 C726 1.327 . S
C727 C731 1.429 . S
C728 C711 1.574 . S
C728 H722 0.949 . S
C728 C732 1.368 . S
C729 C710 1.429 . S
C729 C723 1.429 . S
C729 C730 1.523 . S
C730 C711 1.368 . S
C730 C724 1.368 . S
C730 C729 1.523 . S
C731 C715 1.429 . S
C731 C727 1.429 . S
C731 C732 1.523 . S
C732 C716 1.368 . S
C732 C728 1.368 . S
C732 C731 1.523 . S
H733 C708 0.950 . S
H734 C710 0.950 . S
H735 C711 0.949 . S
H736 C713 0.950 . S
H737 C715 0.950 . S
C738 C739 1.349 . S
C738 C740 1.327 . S
C738 H763 0.950 . S
C739 C738 1.349 . S
C739 C755 1.349 . S
C740 C738 1.327 . S
C740 C759 1.429 . S
C740 H764 0.950 . S
C741 C758 1.574 . S
C741 C760 1.368 . S
C741 H765 0.949 . S
H742 C746 0.949 . S
C743 C744 1.349 . S
C743 C745 1.327 . S
C743 H766 0.950 . S
C744 C743 1.349 . S
C744 C756 1.349 . S
C745 C743 1.327 . S
C745 C761 1.429 1_554 S
C745 H767 0.944 1_554 S
C746 H742 0.949 . S
C746 C754 1.574 . S
C746 C762 1.368 . S
H747 C755 0.950 . S
H748 C753 0.950 . S
H749 C754 0.949 . S
H750 C756 0.950 . S
H751 C757 0.941 1_556 S
H752 C758 0.949 . S
C753 H748 0.950 . S
C753 C755 1.327 . S
C753 C759 1.429 . S
C754 C746 1.574 . S
C754 H749 0.949 . S
C754 C760 1.368 . S
C755 C739 1.349 . S
C755 H747 0.950 . S
C755 C753 1.327 . S
C756 C744 1.349 . S
C756 H750 0.950 . S
C756 C757 1.327 . S
C757 H751 0.941 1_554 S
C757 C756 1.327 . S
C757 C761 1.429 1_554 S
C758 C741 1.574 . S
C758 H752 0.949 . S
C758 C762 1.368 . S
C759 C740 1.429 . S
C759 C753 1.429 . S
C759 C760 1.523 . S
C760 C741 1.368 . S
C760 C754 1.368 . S
C760 C759 1.523 . S
C761 C745 1.429 1_556 S
C761 C757 1.429 1_556 S
C761 C762 1.523 . S
C762 C746 1.368 . S
C762 C758 1.368 . S
C762 C761 1.523 . S
H763 C738 0.950 . S
H764 C740 0.950 . S
H765 C741 0.949 . S
H766 C743 0.950 . S
H767 C745 0.944 1_556 S
C768 C769 1.349 . S
C768 C770 1.327 . S
C768 H793 0.950 . S
C769 C768 1.349 . S
C769 C785 1.349 . S
C770 C768 1.327 . S
C770 C789 1.429 1_554 S
C770 H794 0.950 . S
C771 C788 1.574 . S
C771 C790 1.368 . S
C771 H795 0.949 . S
H772 C776 0.949 . S
C773 C774 1.349 . S
C773 C775 1.327 . S
C773 H796 0.950 . S
C774 C773 1.349 . S
C774 C786 1.349 . S
C775 C773 1.327 . S
C775 C791 1.429 . S
C775 H797 0.950 . S
C776 H772 0.949 . S
C776 C784 1.574 . S
C776 C792 1.368 . S
H777 C785 0.950 . S
H778 C783 0.950 . S
H779 C784 0.949 . S
H780 C786 0.950 . S
H781 C787 0.950 . S
H782 C788 0.949 . S
C783 H778 0.950 . S
C783 C785 1.327 . S
C783 C789 1.429 1_554 S
C784 C776 1.574 . S
C784 H779 0.949 . S
C784 C790 1.368 . S
C785 C769 1.349 . S
C785 H777 0.950 . S
C785 C783 1.327 . S
C786 C774 1.349 . S
C786 H780 0.950 . S
C786 C787 1.327 . S
C787 H781 0.950 . S
C787 C786 1.327 . S
C787 C791 1.429 . S
C788 C771 1.574 . S
C788 H782 0.949 . S
C788 C792 1.368 . S
C789 C770 1.429 1_556 S
C789 C783 1.429 1_556 S
C789 C790 1.523 . S
C790 C771 1.368 . S
C790 C784 1.368 . S
C790 C789 1.523 . S
C791 C775 1.429 . S
C791 C787 1.429 . S
C791 C792 1.523 . S
C792 C776 1.368 . S
C792 C788 1.368 . S
C792 C791 1.523 . S
H793 C768 0.950 . S
H794 C770 0.950 . S
H795 C771 0.949 . S
H796 C773 0.950 . S
H797 C775 0.950 . S
C798 C799 1.349 . S
C798 C800 1.327 . S
C798 H823 0.950 . S
C799 C798 1.349 . S
C799 C815 1.349 . S
C800 C798 1.327 . S
C800 C819 1.429 . S
C800 H824 0.950 . S
C801 C818 1.574 . S
C801 C820 1.368 . S
C801 H825 0.949 . S
H802 C806 0.949 . S
C803 C804 1.349 . S
C803 C805 1.327 . S
C803 H826 0.950 . S
C804 C803 1.349 . S
C804 C816 1.349 . S
C805 C803 1.327 . S
C805 C821 1.429 1_554 S
C805 H827 0.950 . S
C806 H802 0.949 . S
C806 C814 1.574 . S
C806 C822 1.368 . S
H807 C815 0.950 . S
H808 C813 0.950 . S
H809 C814 0.949 . S
H810 C816 0.950 . S
H811 C817 0.950 . S
H812 C818 0.949 . S
C813 H808 0.950 . S
C813 C815 1.327 . S
C813 C819 1.429 . S
C814 C806 1.574 . S
C814 H809 0.949 . S
C814 C820 1.368 . S
C815 C799 1.349 . S
C815 H807 0.950 . S
C815 C813 1.327 . S
C816 C804 1.349 . S
C816 H810 0.950 . S
C816 C817 1.327 . S
C817 H811 0.950 . S
C817 C816 1.327 . S
C817 C821 1.429 1_554 S
C818 C801 1.574 . S
C818 H812 0.949 . S
C818 C822 1.368 . S
C819 C800 1.429 . S
C819 C813 1.429 . S
C819 C820 1.523 . S
C820 C801 1.368 . S
C820 C814 1.368 . S
C820 C819 1.523 . S
C821 C805 1.429 1_556 S
C821 C817 1.429 1_556 S
C821 C822 1.523 . S
C822 C806 1.368 . S
C822 C818 1.368 . S
C822 C821 1.523 . S
H823 C798 0.950 . S
H824 C800 0.950 . S
H825 C801 0.949 . S
H826 C803 0.950 . S
H827 C805 0.950 . S
C828 C829 1.349 . S
C828 C830 1.327 . S
C828 H853 0.950 . S
C829 C828 1.349 . S
C829 C845 1.349 . S
C830 C828 1.327 . S
C830 C849 1.429 . S
C830 H854 0.950 . S
C831 C848 1.574 . S
C831 C850 1.368 . S
C831 H855 0.949 . S
H832 C836 0.949 1_455 S
C833 C834 1.349 . S
C833 C835 1.327 . S
C833 H856 0.950 . S
C834 C833 1.349 . S
C834 C846 1.349 . S
C835 C833 1.327 . S
C835 C851 1.429 . S
C835 H857 0.950 . S
C836 H832 0.949 1_655 S
C836 C844 1.574 . S
C836 C852 1.368 . S
H837 C845 0.950 . S
H838 C843 0.950 . S
H839 C844 0.960 . S
H840 C846 0.950 1_455 S
H841 C847 0.950 1_455 S
H842 C848 0.949 . S
C843 H838 0.950 . S
C843 C845 1.327 . S
C843 C849 1.429 . S
C844 C836 1.574 . S
C844 H839 0.960 . S
C844 C850 1.368 . S
C845 C829 1.349 . S
C845 H837 0.950 . S
C845 C843 1.327 . S
C846 C834 1.349 . S
C846 H840 0.950 1_655 S
C846 C847 1.327 . S
C847 H841 0.950 1_655 S
C847 C846 1.327 . S
C847 C851 1.429 . S
C848 C831 1.574 . S
C848 H842 0.949 . S
C848 C852 1.368 . S
C849 C830 1.429 . S
C849 C843 1.429 . S
C849 C850 1.523 . S
C850 C831 1.368 . S
C850 C844 1.368 . S
C850 C849 1.523 . S
C851 C835 1.429 . S
C851 C847 1.429 . S
C851 C852 1.523 . S
C852 C836 1.368 . S
C852 C848 1.368 . S
C852 C851 1.523 . S
H853 C828 0.950 . S
H854 C830 0.950 . S
H855 C831 0.949 . S
H856 C833 0.950 . S
H857 C835 0.950 . S
C858 C859 1.349 . S
C858 C860 1.327 . S
C858 H883 0.950 . S
C859 C858 1.349 . S
C859 C875 1.349 . S
C860 C858 1.327 . S
C860 C879 1.429 . S
C860 H884 0.950 . S
C861 C878 1.574 . S
C861 C880 1.368 . S
C861 H885 0.949 . S
H862 C866 0.949 . S
C863 C864 1.349 . S
C863 C865 1.327 . S
C863 H886 0.950 . S
C864 C863 1.349 . S
C864 C876 1.349 . S
C865 C863 1.327 . S
C865 C881 1.429 . S
C865 H887 0.950 . S
C866 H862 0.949 . S
C866 C874 1.574 . S
C866 C882 1.368 . S
H867 C875 0.950 . S
H868 C873 0.950 . S
H869 C874 0.949 . S
H870 C876 0.950 . S
H871 C877 0.950 . S
H872 C878 0.949 . S
C873 H868 0.950 . S
C873 C875 1.327 . S
C873 C879 1.429 . S
C874 C866 1.574 . S
C874 H869 0.949 . S
C874 C880 1.368 . S
C875 C859 1.349 . S
C875 H867 0.950 . S
C875 C873 1.327 . S
C876 C864 1.349 . S
C876 H870 0.950 . S
C876 C877 1.327 . S
C877 H871 0.950 . S
C877 C876 1.327 . S
C877 C881 1.429 . S
C878 C861 1.574 . S
C878 H872 0.949 . S
C878 C882 1.368 . S
C879 C860 1.429 . S
C879 C873 1.429 . S
C879 C880 1.523 . S
C880 C861 1.368 . S
C880 C874 1.368 . S
C880 C879 1.523 . S
C881 C865 1.429 . S
C881 C877 1.429 . S
C881 C882 1.523 . S
C882 C866 1.368 . S
C882 C878 1.368 . S
C882 C881 1.523 . S
H883 C858 0.950 . S
H884 C860 0.950 . S
H885 C861 0.949 . S
H886 C863 0.950 . S
H887 C865 0.950 . S
C888 C889 1.349 . S
C888 C890 1.327 . S
C888 H913 0.950 1_565 S
C889 C888 1.349 . S
C889 C905 1.349 . S
C890 C888 1.327 . S
C890 C909 1.429 . S
C890 H914 0.930 1_565 S
C891 C908 1.574 . S
C891 C910 1.368 . S
C891 H915 0.949 . S
H892 C896 0.949 . S
C893 C894 1.349 . S
C893 C895 1.327 . S
C893 H916 0.950 . S
C894 C893 1.349 . S
C894 C906 1.349 . S
C895 C893 1.327 . S
C895 C911 1.429 . S
C895 H917 0.950 . S
C896 H892 0.949 . S
C896 C904 1.574 . S
C896 C912 1.368 . S
H897 C905 0.950 . S
H898 C903 0.950 . S
H899 C904 0.960 . S
H900 C906 0.950 . S
H901 C907 0.950 . S
H902 C908 0.949 . S
C903 H898 0.950 . S
C903 C905 1.327 . S
C903 C909 1.429 . S
C904 C896 1.574 . S
C904 H899 0.960 . S
C904 C910 1.368 . S
C905 C889 1.349 . S
C905 H897 0.950 . S
C905 C903 1.327 . S
C906 C894 1.349 . S
C906 H900 0.950 . S
C906 C907 1.327 . S
C907 H901 0.950 . S
C907 C906 1.327 . S
C907 C911 1.429 . S
C908 C891 1.574 . S
C908 H902 0.949 . S
C908 C912 1.368 . S
C909 C890 1.429 . S
C909 C903 1.429 . S
C909 C910 1.523 . S
C910 C891 1.368 . S
C910 C904 1.368 . S
C910 C909 1.523 . S
C911 C895 1.429 . S
C911 C907 1.429 . S
C911 C912 1.523 . S
C912 C896 1.368 . S
C912 C908 1.368 . S
C912 C911 1.523 . S
H913 C888 0.950 1_545 S
H914 C890 0.930 1_545 S
H915 C891 0.949 . S
H916 C893 0.950 . S
H917 C895 0.950 . S
C918 C919 1.349 . S
C918 C920 1.327 . S
C918 H943 0.950 . S
C919 C918 1.349 . S
C919 C935 1.349 . S
C920 C918 1.327 . S
C920 C939 1.429 . S
C920 H944 0.950 . S
C921 C938 1.574 . S
C921 C940 1.368 . S
C921 H945 0.949 . S
H922 C926 0.949 . S
C923 C924 1.349 . S
C923 C925 1.327 . S
C923 H946 0.950 1_545 S
C924 C923 1.349 . S
C924 C936 1.349 . S
C925 C923 1.327 . S
C925 C941 1.429 . S
C925 H947 0.950 1_545 S
C926 H922 0.949 . S
C926 C934 1.574 . S
C926 C942 1.368 . S
H927 C935 0.950 . S
H928 C933 0.950 . S
H929 C934 0.949 . S
H930 C936 0.950 . S
H931 C937 0.950 . S
H932 C938 0.918 1_565 S
C933 H928 0.950 . S
C933 C935 1.327 . S
C933 C939 1.429 . S
C934 C926 1.574 . S
C934 H929 0.949 . S
C934 C940 1.368 . S
C935 C919 1.349 . S
C935 H927 0.950 . S
C935 C933 1.327 . S
C936 C924 1.349 . S
C936 H930 0.950 . S
C936 C937 1.327 . S
C937 H931 0.950 . S
C937 C936 1.327 . S
C937 C941 1.429 . S
C938 C921 1.574 . S
C938 H932 0.918 1_545 S
C938 C942 1.368 . S
C939 C920 1.429 . S
C939 C933 1.429 . S
C939 C940 1.523 . S
C940 C921 1.368 . S
C940 C934 1.368 . S
C940 C939 1.523 . S
C941 C925 1.429 . S
C941 C937 1.429 . S
C941 C942 1.523 . S
C942 C926 1.368 . S
C942 C938 1.368 . S
C942 C941 1.523 . S
H943 C918 0.950 . S
H944 C920 0.950 . S
H945 C921 0.949 . S
H946 C923 0.950 1_565 S
H947 C925 0.950 1_565 S
C948 C949 1.349 . S
C948 C950 1.327 . S
C948 H973 0.950 1_455 S
C949 C948 1.349 . S
C949 C965 1.349 . S
C950 C948 1.327 . S
C950 C969 1.429 . S
C950 H974 0.950 1_455 S
C951 C968 1.574 . S
C951 C970 1.368 . S
C951 H975 0.949 . S
H952 C956 0.951 . S
C953 C954 1.349 . S
C953 C955 1.327 . S
C953 H976 0.950 . S
C954 C953 1.349 . S
C954 C966 1.349 . S
C955 C953 1.327 . S
C955 C971 1.429 . S
C955 H977 0.950 . S
C956 H952 0.951 . S
C956 C964 1.574 . S
C956 C972 1.368 . S
H957 C965 0.950 . S
H958 C963 0.950 . S
H959 C964 0.949 1_655 S
H960 C966 0.950 . S
H961 C967 0.950 . S
H962 C968 0.949 . S
C963 H958 0.950 . S
C963 C965 1.327 . S
C963 C969 1.429 . S
C964 C956 1.574 . S
C964 H959 0.949 1_455 S
C964 C970 1.368 . S
C965 C949 1.349 . S
C965 H957 0.950 . S
C965 C963 1.327 . S
C966 C954 1.349 . S
C966 H960 0.950 . S
C966 C967 1.327 . S
C967 H961 0.950 . S
C967 C966 1.327 . S
C967 C971 1.429 . S
C968 C951 1.574 . S
C968 H962 0.949 . S
C968 C972 1.368 . S
C969 C950 1.429 . S
C969 C963 1.429 . S
C969 C970 1.523 . S
C970 C951 1.368 . S
C970 C964 1.368 . S
C970 C969 1.523 . S
C971 C955 1.429 . S
C971 C967 1.429 . S
C971 C972 1.523 . S
C972 C956 1.368 . S
C972 C968 1.368 . S
C972 C971 1.523 . S
H973 C948 0.950 1_655 S
H974 C950 0.950 1_655 S
H975 C951 0.949 . S
H976 C953 0.950 . S
H977 C955 0.950 . S
C978 C979 1.349 . S
C978 C980 1.327 . S
C978 H1003 0.950 . S
C979 C978 1.349 . S
C979 C995 1.349 . S
C980 C978 1.327 . S
C980 C999 1.429 . S
C980 H1004 0.950 . S
C981 C998 1.574 . S
C981 C1000 1.368 . S
C981 H1005 0.949 . S
H982 C986 0.949 . S
C983 C984 1.349 . S
C983 C985 1.327 . S
C983 H1006 0.950 . S
C984 C983 1.349 . S
C984 C996 1.349 . S
C985 C983 1.327 . S
C985 C1001 1.429 . S
C985 H1007 0.950 . S
C986 H982 0.949 . S
C986 C994 1.574 . S
C986 C1002 1.368 . S
H987 C995 0.950 . S
H988 C993 0.950 . S
H989 C994 0.949 . S
H990 C996 0.950 . S
H991 C997 0.950 . S
H992 C998 0.949 . S
C993 H988 0.950 . S
C993 C995 1.327 . S
C993 C999 1.429 . S
C994 C986 1.574 . S
C994 H989 0.949 . S
C994 C1000 1.368 . S
C995 C979 1.349 . S
C995 H987 0.950 . S
C995 C993 1.327 . S
C996 C984 1.349 . S
C996 H990 0.950 . S
C996 C997 1.327 . S
C997 H991 0.950 . S
C997 C996 1.327 . S
C997 C1001 1.429 . S
C998 C981 1.574 . S
C998 H992 0.949 . S
C998 C1002 1.368 . S
C999 C980 1.429 . S
C999 C993 1.429 . S
C999 C1000 1.523 . S
C1000 C981 1.368 . S
C1000 C994 1.368 . S
C1000 C999 1.523 . S
C1001 C985 1.429 . S
C1001 C997 1.429 . S
C1001 C1002 1.523 . S
C1002 C986 1.368 . S
C1002 C998 1.368 . S
C1002 C1001 1.523 . S
H1003 C978 0.950 . S
H1004 C980 0.950 . S
H1005 C981 0.949 . S
H1006 C983 0.950 . S
H1007 C985 0.950 . S
C1008 C1009 1.349 . S
C1008 C1010 1.327 . S
C1008 H1033 0.950 . S
C1009 C1008 1.349 . S
C1009 C1025 1.349 . S
C1010 C1008 1.327 . S
C1010 C1029 1.429 . S
C1010 H1034 0.950 . S
C1011 C1028 1.574 . S
C1011 C1030 1.368 . S
C1011 H1035 0.949 . S
H1012 C1016 0.949 . S
C1013 C1014 1.349 . S
C1013 C1015 1.327 . S
C1013 H1036 0.950 . S
C1014 C1013 1.349 . S
C1014 C1026 1.349 . S
C1015 C1013 1.327 . S
C1015 C1031 1.429 . S
C1015 H1037 0.950 . S
C1016 H1012 0.949 . S
C1016 C1024 1.574 . S
C1016 C1032 1.368 . S
H1017 C1025 0.950 . S
H1018 C1023 0.950 . S
H1019 C1024 0.949 . S
H1020 C1026 0.950 . S
H1021 C1027 0.950 . S
H1022 C1028 0.949 . S
C1023 H1018 0.950 . S
C1023 C1025 1.327 . S
C1023 C1029 1.429 . S
C1024 C1016 1.574 . S
C1024 H1019 0.949 . S
C1024 C1030 1.368 . S
C1025 C1009 1.349 . S
C1025 H1017 0.950 . S
C1025 C1023 1.327 . S
C1026 C1014 1.349 . S
C1026 H1020 0.950 . S
C1026 C1027 1.327 . S
C1027 H1021 0.950 . S
C1027 C1026 1.327 . S
C1027 C1031 1.429 . S
C1028 C1011 1.574 . S
C1028 H1022 0.949 . S
C1028 C1032 1.368 . S
C1029 C1010 1.429 . S
C1029 C1023 1.429 . S
C1029 C1030 1.523 . S
C1030 C1011 1.368 . S
C1030 C1024 1.368 . S
C1030 C1029 1.523 . S
C1031 C1015 1.429 . S
C1031 C1027 1.429 . S
C1031 C1032 1.523 . S
C1032 C1016 1.368 . S
C1032 C1028 1.368 . S
C1032 C1031 1.523 . S
H1033 C1008 0.950 . S
H1034 C1010 0.950 . S
H1035 C1011 0.949 . S
H1036 C1013 0.950 . S
H1037 C1015 0.950 . S
C1038 C1039 1.349 . S
C1038 C1040 1.327 . S
C1038 H1063 0.950 . S
C1039 C1038 1.349 . S
C1039 C1055 1.349 . S
C1040 C1038 1.327 . S
C1040 C1059 1.429 . S
C1040 H1064 0.950 . S
C1041 C1058 1.574 . S
C1041 C1060 1.368 . S
C1041 H1065 0.949 . S
H1042 C1046 0.949 . S
C1043 C1044 1.349 . S
C1043 C1045 1.327 . S
C1043 H1066 0.950 . S
C1044 C1043 1.349 . S
C1044 C1056 1.349 . S
C1045 C1043 1.327 . S
C1045 C1061 1.429 . S
C1045 H1067 0.950 . S
C1046 H1042 0.949 . S
C1046 C1054 1.574 . S
C1046 C1062 1.368 . S
H1047 C1055 0.950 . S
H1048 C1053 0.950 . S
H1049 C1054 0.949 . S
H1050 C1056 0.950 . S
H1051 C1057 0.950 . S
H1052 C1058 0.949 . S
C1053 H1048 0.950 . S
C1053 C1055 1.327 . S
C1053 C1059 1.429 . S
C1054 C1046 1.574 . S
C1054 H1049 0.949 . S
C1054 C1060 1.368 . S
C1055 C1039 1.349 . S
C1055 H1047 0.950 . S
C1055 C1053 1.327 . S
C1056 C1044 1.349 . S
C1056 H1050 0.950 . S
C1056 C1057 1.327 . S
C1057 H1051 0.950 . S
C1057 C1056 1.327 . S
C1057 C1061 1.429 . S
C1058 C1041 1.574 . S
C1058 H1052 0.949 . S
C1058 C1062 1.368 . S
C1059 C1040 1.429 . S
C1059 C1053 1.429 . S
C1059 C1060 1.523 . S
C1060 C1041 1.368 . S
C1060 C1054 1.368 . S
C1060 C1059 1.523 . S
C1061 C1045 1.429 . S
C1061 C1057 1.429 . S
C1061 C1062 1.523 . S
C1062 C1046 1.368 . S
C1062 C1058 1.368 . S
C1062 C1061 1.523 . S
H1063 C1038 0.950 . S
H1064 C1040 0.950 . S
H1065 C1041 0.949 . S
H1066 C1043 0.950 . S
H1067 C1045 0.950 . S
C1068 C1069 1.349 . S
C1068 C1070 1.327 . S
C1068 H1093 0.950 . S
C1069 C1068 1.349 . S
C1069 C1085 1.349 . S
C1070 C1068 1.327 . S
C1070 C1089 1.429 . S
C1070 H1094 0.950 . S
C1071 C1088 1.574 . S
C1071 C1090 1.368 . S
C1071 H1095 0.949 . S
H1072 C1076 0.949 . S
C1073 C1074 1.349 . S
C1073 C1075 1.327 . S
C1073 H1096 0.950 . S
C1074 C1073 1.349 . S
C1074 C1086 1.349 . S
C1075 C1073 1.327 . S
C1075 C1091 1.429 . S
C1075 H1097 0.950 . S
C1076 H1072 0.949 . S
C1076 C1084 1.574 . S
C1076 C1092 1.368 . S
H1077 C1085 0.950 . S
H1078 C1083 0.950 . S
H1079 C1084 0.949 . S
H1080 C1086 0.950 . S
H1081 C1087 0.950 . S
H1082 C1088 0.949 . S
C1083 H1078 0.950 . S
C1083 C1085 1.327 . S
C1083 C1089 1.429 . S
C1084 C1076 1.574 . S
C1084 H1079 0.949 . S
C1084 C1090 1.368 . S
C1085 C1069 1.349 . S
C1085 H1077 0.950 . S
C1085 C1083 1.327 . S
C1086 C1074 1.349 . S
C1086 H1080 0.950 . S
C1086 C1087 1.327 . S
C1087 H1081 0.950 . S
C1087 C1086 1.327 . S
C1087 C1091 1.429 . S
C1088 C1071 1.574 . S
C1088 H1082 0.949 . S
C1088 C1092 1.368 . S
C1089 C1070 1.429 . S
C1089 C1083 1.429 . S
C1089 C1090 1.523 . S
C1090 C1071 1.368 . S
C1090 C1084 1.368 . S
C1090 C1089 1.523 . S
C1091 C1075 1.429 . S
C1091 C1087 1.429 . S
C1091 C1092 1.523 . S
C1092 C1076 1.368 . S
C1092 C1088 1.368 . S
C1092 C1091 1.523 . S
H1093 C1068 0.950 . S
H1094 C1070 0.950 . S
H1095 C1071 0.949 . S
H1096 C1073 0.950 . S
H1097 C1075 0.950 . S
C1098 C1099 1.349 . S
C1098 C1100 1.327 . S
C1098 H1123 0.950 . S
C1099 C1098 1.349 . S
C1099 C1115 1.349 . S
C1100 C1098 1.327 . S
C1100 C1119 1.429 . S
C1100 H1124 0.950 . S
C1101 C1118 1.574 . S
C1101 C1120 1.368 . S
C1101 H1125 0.949 . S
H1102 C1106 0.949 . S
C1103 C1104 1.349 . S
C1103 C1105 1.327 . S
C1103 H1126 0.950 . S
C1104 C1103 1.349 . S
C1104 C1116 1.349 . S
C1105 C1103 1.327 . S
C1105 C1121 1.429 . S
C1105 H1127 0.950 . S
C1106 H1102 0.949 . S
C1106 C1114 1.574 . S
C1106 C1122 1.368 . S
H1107 C1115 0.950 . S
H1108 C1113 0.950 . S
H1109 C1114 0.949 . S
H1110 C1116 0.950 . S
H1111 C1117 0.950 . S
H1112 C1118 0.949 . S
C1113 H1108 0.950 . S
C1113 C1115 1.327 . S
C1113 C1119 1.429 . S
C1114 C1106 1.574 . S
C1114 H1109 0.949 . S
C1114 C1120 1.368 . S
C1115 C1099 1.349 . S
C1115 H1107 0.950 . S
C1115 C1113 1.327 . S
C1116 C1104 1.349 . S
C1116 H1110 0.950 . S
C1116 C1117 1.327 . S
C1117 H1111 0.950 . S
C1117 C1116 1.327 . S
C1117 C1121 1.429 . S
C1118 C1101 1.574 . S
C1118 H1112 0.949 . S
C1118 C1122 1.368 . S
C1119 C1100 1.429 . S
C1119 C1113 1.429 . S
C1119 C1120 1.523 . S
C1120 C1101 1.368 . S
C1120 C1114 1.368 . S
C1120 C1119 1.523 . S
C1121 C1105 1.429 . S
C1121 C1117 1.429 . S
C1121 C1122 1.523 . S
C1122 C1106 1.368 . S
C1122 C1118 1.368 . S
C1122 C1121 1.523 . S
H1123 C1098 0.950 . S
H1124 C1100 0.950 . S
H1125 C1101 0.949 . S
H1126 C1103 0.950 . S
H1127 C1105 0.950 . S
C1128 C1129 1.349 . S
C1128 C1130 1.327 . S
C1128 H1153 0.950 . S
C1129 C1128 1.349 . S
C1129 C1145 1.349 . S
C1130 C1128 1.327 . S
C1130 C1149 1.429 . S
C1130 H1154 0.950 . S
C1131 C1148 1.574 . S
C1131 C1150 1.368 . S
C1131 H1155 0.949 . S
H1132 C1136 0.949 . S
C1133 C1134 1.349 . S
C1133 C1135 1.327 . S
C1133 H1156 0.950 . S
C1134 C1133 1.349 . S
C1134 C1146 1.349 . S
C1135 C1133 1.327 . S
C1135 C1151 1.429 . S
C1135 H1157 0.950 . S
C1136 H1132 0.949 . S
C1136 C1144 1.574 . S
C1136 C1152 1.368 . S
H1137 C1145 0.950 . S
H1138 C1143 0.950 . S
H1139 C1144 0.949 . S
H1140 C1146 0.950 . S
H1141 C1147 0.950 . S
H1142 C1148 0.949 . S
C1143 H1138 0.950 . S
C1143 C1145 1.327 . S
C1143 C1149 1.429 . S
C1144 C1136 1.574 . S
C1144 H1139 0.949 . S
C1144 C1150 1.368 . S
C1145 C1129 1.349 . S
C1145 H1137 0.950 . S
C1145 C1143 1.327 . S
C1146 C1134 1.349 . S
C1146 H1140 0.950 . S
C1146 C1147 1.327 . S
C1147 H1141 0.950 . S
C1147 C1146 1.327 . S
C1147 C1151 1.429 . S
C1148 C1131 1.574 . S
C1148 H1142 0.949 . S
C1148 C1152 1.368 . S
C1149 C1130 1.429 . S
C1149 C1143 1.429 . S
C1149 C1150 1.523 . S
C1150 C1131 1.368 . S
C1150 C1144 1.368 . S
C1150 C1149 1.523 . S
C1151 C1135 1.429 . S
C1151 C1147 1.429 . S
C1151 C1152 1.523 . S
C1152 C1136 1.368 . S
C1152 C1148 1.368 . S
C1152 C1151 1.523 . S
H1153 C1128 0.950 . S
H1154 C1130 0.950 . S
H1155 C1131 0.949 . S
H1156 C1133 0.950 . S
H1157 C1135 0.950 . S
C1158 C1159 1.349 . S
C1158 C1160 1.327 . S
C1158 H1183 0.950 . S
C1159 C1158 1.349 . S
C1159 C1175 1.349 . S
C1160 C1158 1.327 . S
C1160 C1179 1.429 . S
C1160 H1184 0.950 . S
C1161 C1178 1.574 . S
C1161 C1180 1.368 . S
C1161 H1185 0.949 . S
H1162 C1166 0.949 . S
C1163 C1164 1.349 . S
C1163 C1165 1.327 . S
C1163 H1186 0.950 . S
C1164 C1163 1.349 . S
C1164 C1176 1.349 . S
C1165 C1163 1.327 . S
C1165 C1181 1.429 . S
C1165 H1187 0.950 . S
C1166 H1162 0.949 . S
C1166 C1174 1.574 . S
C1166 C1182 1.368 . S
H1167 C1175 0.950 . S
H1168 C1173 0.950 . S
H1169 C1174 0.949 . S
H1170 C1176 0.950 . S
H1171 C1177 0.950 . S
H1172 C1178 0.949 . S
C1173 H1168 0.950 . S
C1173 C1175 1.327 . S
C1173 C1179 1.429 . S
C1174 C1166 1.574 . S
C1174 H1169 0.949 . S
C1174 C1180 1.368 . S
C1175 C1159 1.349 . S
C1175 H1167 0.950 . S
C1175 C1173 1.327 . S
C1176 C1164 1.349 . S
C1176 H1170 0.950 . S
C1176 C1177 1.327 . S
C1177 H1171 0.950 . S
C1177 C1176 1.327 . S
C1177 C1181 1.429 . S
C1178 C1161 1.574 . S
C1178 H1172 0.949 . S
C1178 C1182 1.368 . S
C1179 C1160 1.429 . S
C1179 C1173 1.429 . S
C1179 C1180 1.523 . S
C1180 C1161 1.368 . S
C1180 C1174 1.368 . S
C1180 C1179 1.523 . S
C1181 C1165 1.429 . S
C1181 C1177 1.429 . S
C1181 C1182 1.523 . S
C1182 C1166 1.368 . S
C1182 C1178 1.368 . S
C1182 C1181 1.523 . S
H1183 C1158 0.950 . S
H1184 C1160 0.950 . S
H1185 C1161 0.949 . S
H1186 C1163 0.950 . S
H1187 C1165 0.950 . S
C1188 C1189 1.349 . S
C1188 C1190 1.327 . S
C1188 H1213 0.950 . S
C1189 C1188 1.349 . S
C1189 C1205 1.349 . S
C1190 C1188 1.327 . S
C1190 C1209 1.429 . S
C1190 H1214 0.950 . S
C1191 C1208 1.574 . S
C1191 C1210 1.368 . S
C1191 H1215 0.949 . S
H1192 C1196 0.949 . S
C1193 C1194 1.349 . S
C1193 C1195 1.327 . S
C1193 H1216 0.950 . S
C1194 C1193 1.349 . S
C1194 C1206 1.349 . S
C1195 C1193 1.327 . S
C1195 C1211 1.429 . S
C1195 H1217 0.950 . S
C1196 H1192 0.949 . S
C1196 C1204 1.574 . S
C1196 C1212 1.368 . S
H1197 C1205 0.950 . S
H1198 C1203 0.950 . S
H1199 C1204 0.949 . S
H1200 C1206 0.950 . S
H1201 C1207 0.950 . S
H1202 C1208 0.949 . S
C1203 H1198 0.950 . S
C1203 C1205 1.327 . S
C1203 C1209 1.429 . S
C1204 C1196 1.574 . S
C1204 H1199 0.949 . S
C1204 C1210 1.368 . S
C1205 C1189 1.349 . S
C1205 H1197 0.950 . S
C1205 C1203 1.327 . S
C1206 C1194 1.349 . S
C1206 H1200 0.950 . S
C1206 C1207 1.327 . S
C1207 H1201 0.950 . S
C1207 C1206 1.327 . S
C1207 C1211 1.429 . S
C1208 C1191 1.574 . S
C1208 H1202 0.949 . S
C1208 C1212 1.368 . S
C1209 C1190 1.429 . S
C1209 C1203 1.429 . S
C1209 C1210 1.523 . S
C1210 C1191 1.368 . S
C1210 C1204 1.368 . S
C1210 C1209 1.523 . S
C1211 C1195 1.429 . S
C1211 C1207 1.429 . S
C1211 C1212 1.523 . S
C1212 C1196 1.368 . S
C1212 C1208 1.368 . S
C1212 C1211 1.523 . S
H1213 C1188 0.950 . S
H1214 C1190 0.950 . S
H1215 C1191 0.949 . S
H1216 C1193 0.950 . S
H1217 C1195 0.950 . S
C1218 C1219 1.349 . S
C1218 C1220 1.327 . S
C1218 H1243 0.950 . S
C1219 C1218 1.349 . S
C1219 C1235 1.349 . S
C1220 C1218 1.327 . S
C1220 C1239 1.429 . S
C1220 H1244 0.950 . S
C1221 C1238 1.574 . S
C1221 C1240 1.368 . S
C1221 H1245 0.949 . S
H1222 C1226 0.949 . S
C1223 C1224 1.349 . S
C1223 C1225 1.327 . S
C1223 H1246 0.950 . S
C1224 C1223 1.349 . S
C1224 C1236 1.349 . S
C1225 C1223 1.327 . S
C1225 C1241 1.429 . S
C1225 H1247 0.950 . S
C1226 H1222 0.949 . S
C1226 C1234 1.574 . S
C1226 C1242 1.368 . S
H1227 C1235 0.950 . S
H1228 C1233 0.950 . S
H1229 C1234 0.949 . S
H1230 C1236 0.950 . S
H1231 C1237 0.950 . S
H1232 C1238 0.949 . S
C1233 H1228 0.950 . S
C1233 C1235 1.327 . S
C1233 C1239 1.429 . S
C1234 C1226 1.574 . S
C1234 H1229 0.949 . S
C1234 C1240 1.368 . S
C1235 C1219 1.349 . S
C1235 H1227 0.950 . S
C1235 C1233 1.327 . S
C1236 C1224 1.349 . S
C1236 H1230 0.950 . S
C1236 C1237 1.327 . S
C1237 H1231 0.950 . S
C1237 C1236 1.327 . S
C1237 C1241 1.429 . S
C1238 C1221 1.574 . S
C1238 H1232 0.949 . S
C1238 C1242 1.368 . S
C1239 C1220 1.429 . S
C1239 C1233 1.429 . S
C1239 C1240 1.523 . S
C1240 C1221 1.368 . S
C1240 C1234 1.368 . S
C1240 C1239 1.523 . S
C1241 C1225 1.429 . S
C1241 C1237 1.429 . S
C1241 C1242 1.523 . S
C1242 C1226 1.368 . S
C1242 C1238 1.368 . S
C1242 C1241 1.523 . S
H1243 C1218 0.950 . S
H1244 C1220 0.950 . S
H1245 C1221 0.949 . S
H1246 C1223 0.950 . S
H1247 C1225 0.950 . S
C1248 C1249 1.349 . S
C1248 C1250 1.327 . S
C1248 H1273 0.950 . S
C1249 C1248 1.349 . S
C1249 C1265 1.349 . S
C1250 C1248 1.327 . S
C1250 C1269 1.429 . S
C1250 H1274 0.950 . S
C1251 C1268 1.574 . S
C1251 C1270 1.368 . S
C1251 H1275 0.949 . S
H1252 C1256 0.949 . S
C1253 C1254 1.349 . S
C1253 C1255 1.327 . S
C1253 H1276 0.950 . S
C1254 C1253 1.349 . S
C1254 C1266 1.349 . S
C1255 C1253 1.327 . S
C1255 C1271 1.429 . S
C1255 H1277 0.950 . S
C1256 H1252 0.949 . S
C1256 C1264 1.574 . S
C1256 C1272 1.368 . S
H1257 C1265 0.950 . S
H1258 C1263 0.950 . S
H1259 C1264 0.949 . S
H1260 C1266 0.950 . S
H1261 C1267 0.950 . S
H1262 C1268 0.949 . S
C1263 H1258 0.950 . S
C1263 C1265 1.327 . S
C1263 C1269 1.429 . S
C1264 C1256 1.574 . S
C1264 H1259 0.949 . S
C1264 C1270 1.368 . S
C1265 C1249 1.349 . S
C1265 H1257 0.950 . S
C1265 C1263 1.327 . S
C1266 C1254 1.349 . S
C1266 H1260 0.950 . S
C1266 C1267 1.327 . S
C1267 H1261 0.950 . S
C1267 C1266 1.327 . S
C1267 C1271 1.429 . S
C1268 C1251 1.574 . S
C1268 H1262 0.949 . S
C1268 C1272 1.368 . S
C1269 C1250 1.429 . S
C1269 C1263 1.429 . S
C1269 C1270 1.523 . S
C1270 C1251 1.368 . S
C1270 C1264 1.368 . S
C1270 C1269 1.523 . S
C1271 C1255 1.429 . S
C1271 C1267 1.429 . S
C1271 C1272 1.523 . S
C1272 C1256 1.368 . S
C1272 C1268 1.368 . S
C1272 C1271 1.523 . S
H1273 C1248 0.950 . S
H1274 C1250 0.950 . S
H1275 C1251 0.949 . S
H1276 C1253 0.950 . S
H1277 C1255 0.950 . S
C1278 C1279 1.349 . S
C1278 C1280 1.327 . S
C1278 H1303 0.950 . S
C1279 C1278 1.349 . S
C1279 C1295 1.349 . S
C1280 C1278 1.327 . S
C1280 C1299 1.429 . S
C1280 H1304 0.950 . S
C1281 C1298 1.574 . S
C1281 C1300 1.368 . S
C1281 H1305 0.949 . S
H1282 C1286 0.949 . S
C1283 C1284 1.349 . S
C1283 C1285 1.327 . S
C1283 H1306 0.950 . S
C1284 C1283 1.349 . S
C1284 C1296 1.349 . S
C1285 C1283 1.327 . S
C1285 C1301 1.429 . S
C1285 H1307 0.950 . S
C1286 H1282 0.949 . S
C1286 C1294 1.574 . S
C1286 C1302 1.368 . S
H1287 C1295 0.950 . S
H1288 C1293 0.950 . S
H1289 C1294 0.949 . S
H1290 C1296 0.950 . S
H1291 C1297 0.950 . S
H1292 C1298 0.949 . S
C1293 H1288 0.950 . S
C1293 C1295 1.327 . S
C1293 C1299 1.429 . S
C1294 C1286 1.574 . S
C1294 H1289 0.949 . S
C1294 C1300 1.368 . S
C1295 C1279 1.349 . S
C1295 H1287 0.950 . S
C1295 C1293 1.327 . S
C1296 C1284 1.349 . S
C1296 H1290 0.950 . S
C1296 C1297 1.327 . S
C1297 H1291 0.950 . S
C1297 C1296 1.327 . S
C1297 C1301 1.429 . S
C1298 C1281 1.574 . S
C1298 H1292 0.949 . S
C1298 C1302 1.368 . S
C1299 C1280 1.429 . S
C1299 C1293 1.429 . S
C1299 C1300 1.523 . S
C1300 C1281 1.368 . S
C1300 C1294 1.368 . S
C1300 C1299 1.523 . S
C1301 C1285 1.429 . S
C1301 C1297 1.429 . S
C1301 C1302 1.523 . S
C1302 C1286 1.368 . S
C1302 C1298 1.368 . S
C1302 C1301 1.523 . S
H1303 C1278 0.950 . S
H1304 C1280 0.950 . S
H1305 C1281 0.949 . S
H1306 C1283 0.950 . S
H1307 C1285 0.950 . S
C1308 C1309 1.349 . S
C1308 C1310 1.327 . S
C1308 H1333 0.950 . S
C1309 C1308 1.349 . S
C1309 C1325 1.349 . S
C1310 C1308 1.327 . S
C1310 C1329 1.429 . S
C1310 H1334 0.950 . S
C1311 C1328 1.574 . S
C1311 C1330 1.368 . S
C1311 H1335 0.949 . S
H1312 C1316 0.949 . S
C1313 C1314 1.349 . S
C1313 C1315 1.327 . S
C1313 H1336 0.950 . S
C1314 C1313 1.349 . S
C1314 C1326 1.349 . S
C1315 C1313 1.327 . S
C1315 C1331 1.429 . S
C1315 H1337 0.950 . S
C1316 H1312 0.949 . S
C1316 C1324 1.574 . S
C1316 C1332 1.368 . S
H1317 C1325 0.950 . S
H1318 C1323 0.950 . S
H1319 C1324 0.949 . S
H1320 C1326 0.950 . S
H1321 C1327 0.950 . S
H1322 C1328 0.949 . S
C1323 H1318 0.950 . S
C1323 C1325 1.327 . S
C1323 C1329 1.429 . S
C1324 C1316 1.574 . S
C1324 H1319 0.949 . S
C1324 C1330 1.368 . S
C1325 C1309 1.349 . S
C1325 H1317 0.950 . S
C1325 C1323 1.327 . S
C1326 C1314 1.349 . S
C1326 H1320 0.950 . S
C1326 C1327 1.327 . S
C1327 H1321 0.950 . S
C1327 C1326 1.327 . S
C1327 C1331 1.429 . S
C1328 C1311 1.574 . S
C1328 H1322 0.949 . S
C1328 C1332 1.368 . S
C1329 C1310 1.429 . S
C1329 C1323 1.429 . S
C1329 C1330 1.523 . S
C1330 C1311 1.368 . S
C1330 C1324 1.368 . S
C1330 C1329 1.523 . S
C1331 C1315 1.429 . S
C1331 C1327 1.429 . S
C1331 C1332 1.523 . S
C1332 C1316 1.368 . S
C1332 C1328 1.368 . S
C1332 C1331 1.523 . S
H1333 C1308 0.950 . S
H1334 C1310 0.950 . S
H1335 C1311 0.949 . S
H1336 C1313 0.950 . S
H1337 C1315 0.950 . S
C1338 C1339 1.349 . S
C1338 C1340 1.327 . S
C1338 H1363 0.950 . S
C1339 C1338 1.349 . S
C1339 C1355 1.349 . S
C1340 C1338 1.327 . S
C1340 C1359 1.429 . S
C1340 H1364 0.950 . S
C1341 C1358 1.574 . S
C1341 C1360 1.368 . S
C1341 H1365 0.949 . S
H1342 C1346 0.949 . S
C1343 C1344 1.349 . S
C1343 C1345 1.327 . S
C1343 H1366 0.950 . S
C1344 C1343 1.349 . S
C1344 C1356 1.349 . S
C1345 C1343 1.327 . S
C1345 C1361 1.429 . S
C1345 H1367 0.950 . S
C1346 H1342 0.949 . S
C1346 C1354 1.574 . S
C1346 C1362 1.368 . S
H1347 C1355 0.950 . S
H1348 C1353 0.950 . S
H1349 C1354 0.949 . S
H1350 C1356 0.950 . S
H1351 C1357 0.950 . S
H1352 C1358 0.949 . S
C1353 H1348 0.950 . S
C1353 C1355 1.327 . S
C1353 C1359 1.429 . S
C1354 C1346 1.574 . S
C1354 H1349 0.949 . S
C1354 C1360 1.368 . S
C1355 C1339 1.349 . S
C1355 H1347 0.950 . S
C1355 C1353 1.327 . S
C1356 C1344 1.349 . S
C1356 H1350 0.950 . S
C1356 C1357 1.327 . S
C1357 H1351 0.950 . S
C1357 C1356 1.327 . S
C1357 C1361 1.429 . S
C1358 C1341 1.574 . S
C1358 H1352 0.949 . S
C1358 C1362 1.368 . S
C1359 C1340 1.429 . S
C1359 C1353 1.429 . S
C1359 C1360 1.523 . S
C1360 C1341 1.368 . S
C1360 C1354 1.368 . S
C1360 C1359 1.523 . S
C1361 C1345 1.429 . S
C1361 C1357 1.429 . S
C1361 C1362 1.523 . S
C1362 C1346 1.368 . S
C1362 C1358 1.368 . S
C1362 C1361 1.523 . S
H1363 C1338 0.950 . S
H1364 C1340 0.950 . S
H1365 C1341 0.949 . S
H1366 C1343 0.950 . S
H1367 C1345 0.950 . S
C1368 C1369 1.339 1_655 S
C1368 C1370 1.337 . S
C1368 H1393 0.950 . S
C1369 C1368 1.339 1_455 S
C1369 C1385 1.349 . S
C1370 C1368 1.337 . S
C1370 C1389 1.429 1_655 S
C1370 H1394 0.950 . S
C1371 C1388 1.574 . S
C1371 C1390 1.368 . S
C1371 H1395 0.949 . S
H1372 C1376 0.949 . S
C1373 C1374 1.326 1_455 S
C1373 C1375 1.350 . S
C1373 H1396 0.952 . S
C1374 C1373 1.326 1_655 S
C1374 C1386 1.349 . S
C1375 C1373 1.350 . S
C1375 C1391 1.429 1_455 S
C1375 H1397 0.950 . S
C1376 H1372 0.949 . S
C1376 C1384 1.574 . S
C1376 C1392 1.381 . S
H1377 C1385 0.950 . S
H1378 C1383 0.950 . S
H1379 C1384 0.949 . S
H1380 C1386 0.950 . S
H1381 C1387 0.950 . S
H1382 C1388 0.949 . S
C1383 H1378 0.950 . S
C1383 C1385 1.327 . S
C1383 C1389 1.429 . S
C1384 C1376 1.574 . S
C1384 H1379 0.949 . S
C1384 C1390 1.368 1_655 S
C1385 C1369 1.349 . S
C1385 H1377 0.950 . S
C1385 C1383 1.327 . S
C1386 C1374 1.349 . S
C1386 H1380 0.950 . S
C1386 C1387 1.327 . S
C1387 H1381 0.950 . S
C1387 C1386 1.327 . S
C1387 C1391 1.429 . S
C1388 C1371 1.574 . S
C1388 H1382 0.949 . S
C1388 C1392 1.326 1_455 S
C1389 C1370 1.429 1_455 S
C1389 C1383 1.429 . S
C1389 C1390 1.523 . S
C1390 C1371 1.368 . S
C1390 C1384 1.368 1_455 S
C1390 C1389 1.523 . S
C1391 C1375 1.429 1_655 S
C1391 C1387 1.429 . S
C1391 C1392 1.570 . S
C1392 C1376 1.381 . S
C1392 C1388 1.326 1_655 S
C1392 C1391 1.570 . S
H1393 C1368 0.950 . S
H1394 C1370 0.950 . S
H1395 C1371 0.949 . S
H1396 C1373 0.952 . S
H1397 C1375 0.950 . S
C1398 C1399 1.349 . S
C1398 C1400 1.327 . S
C1398 H1423 0.950 . S
C1399 C1398 1.349 . S
C1399 C1415 1.349 . S
C1400 C1398 1.327 . S
C1400 C1419 1.429 . S
C1400 H1424 0.950 . S
C1401 C1418 1.574 . S
C1401 C1420 1.368 . S
C1401 H1425 0.949 . S
H1402 C1406 0.949 . S
C1403 C1404 1.349 . S
C1403 C1405 1.327 . S
C1403 H1426 0.950 . S
C1404 C1403 1.349 . S
C1404 C1416 1.349 . S
C1405 C1403 1.327 . S
C1405 C1421 1.429 . S
C1405 H1427 0.950 . S
C1406 H1402 0.949 . S
C1406 C1414 1.574 . S
C1406 C1422 1.368 . S
H1407 C1415 0.950 . S
H1408 C1413 0.950 . S
H1409 C1414 0.949 . S
H1410 C1416 0.950 . S
H1411 C1417 0.950 . S
H1412 C1418 0.949 . S
C1413 H1408 0.950 . S
C1413 C1415 1.327 . S
C1413 C1419 1.429 . S
C1414 C1406 1.574 . S
C1414 H1409 0.949 . S
C1414 C1420 1.368 . S
C1415 C1399 1.349 . S
C1415 H1407 0.950 . S
C1415 C1413 1.327 . S
C1416 C1404 1.349 . S
C1416 H1410 0.950 . S
C1416 C1417 1.327 . S
C1417 H1411 0.950 . S
C1417 C1416 1.327 . S
C1417 C1421 1.429 . S
C1418 C1401 1.574 . S
C1418 H1412 0.949 . S
C1418 C1422 1.368 . S
C1419 C1400 1.429 . S
C1419 C1413 1.429 . S
C1419 C1420 1.523 . S
C1420 C1401 1.368 . S
C1420 C1414 1.368 . S
C1420 C1419 1.523 . S
C1421 C1405 1.429 . S
C1421 C1417 1.429 . S
C1421 C1422 1.523 . S
C1422 C1406 1.368 . S
C1422 C1418 1.368 . S
C1422 C1421 1.523 . S
H1423 C1398 0.950 . S
H1424 C1400 0.950 . S
H1425 C1401 0.949 . S
H1426 C1403 0.950 . S
H1427 C1405 0.950 . S
C1428 C1429 1.349 . S
C1428 C1430 1.327 . S
C1428 H1453 0.950 . S
C1429 C1428 1.349 . S
C1429 C1445 1.349 . S
C1430 C1428 1.327 . S
C1430 C1449 1.429 . S
C1430 H1454 0.950 . S
C1431 C1448 1.574 . S
C1431 C1450 1.368 . S
C1431 H1455 0.949 . S
H1432 C1436 0.949 . S
C1433 C1434 1.349 . S
C1433 C1435 1.327 . S
C1433 H1456 0.950 . S
C1434 C1433 1.349 . S
C1434 C1446 1.349 . S
C1435 C1433 1.327 . S
C1435 C1451 1.429 . S
C1435 H1457 0.950 . S
C1436 H1432 0.949 . S
C1436 C1444 1.574 . S
C1436 C1452 1.368 . S
H1437 C1445 0.950 . S
H1438 C1443 0.950 . S
H1439 C1444 0.949 . S
H1440 C1446 0.950 . S
H1441 C1447 0.950 . S
H1442 C1448 0.949 . S
C1443 H1438 0.950 . S
C1443 C1445 1.327 . S
C1443 C1449 1.429 . S
C1444 C1436 1.574 . S
C1444 H1439 0.949 . S
C1444 C1450 1.368 1_565 S
C1445 C1429 1.349 . S
C1445 H1437 0.950 . S
C1445 C1443 1.327 . S
C1446 C1434 1.349 . S
C1446 H1440 0.950 . S
C1446 C1447 1.327 . S
C1447 H1441 0.950 . S
C1447 C1446 1.327 . S
C1447 C1451 1.429 . S
C1448 C1431 1.574 . S
C1448 H1442 0.949 . S
C1448 C1452 1.368 1_545 S
C1449 C1430 1.429 . S
C1449 C1443 1.429 . S
C1449 C1450 1.523 . S
C1450 C1431 1.368 . S
C1450 C1444 1.368 1_545 S
C1450 C1449 1.523 . S
C1451 C1435 1.429 . S
C1451 C1447 1.429 . S
C1451 C1452 1.523 . S
C1452 C1436 1.368 . S
C1452 C1448 1.368 1_565 S
C1452 C1451 1.523 . S
H1453 C1428 0.950 . S
H1454 C1430 0.950 . S
H1455 C1431 0.949 . S
H1456 C1433 0.950 . S
H1457 C1435 0.950 . S
C1458 C1459 1.349 1_564 S
C1458 C1460 1.327 . S
C1458 H1483 0.950 . S
C1459 C1458 1.349 1_546 S
C1459 C1475 1.349 . S
C1460 C1458 1.327 . S
C1460 C1479 1.429 1_564 S
C1460 H1484 0.950 . S
C1461 C1478 1.574 . S
C1461 C1480 1.368 . S
C1461 H1485 0.949 . S
H1462 C1466 0.949 . S
C1463 C1464 1.349 1_546 S
C1463 C1465 1.327 . S
C1463 H1486 0.950 . S
C1464 C1463 1.349 1_564 S
C1464 C1476 1.349 . S
C1465 C1463 1.327 . S
C1465 C1481 1.429 1_546 S
C1465 H1487 0.950 . S
C1466 H1462 0.949 . S
C1466 C1474 1.574 . S
C1466 C1482 1.415 . S
H1467 C1475 0.950 . S
H1468 C1473 0.950 . S
H1469 C1474 0.949 . S
H1470 C1476 0.950 . S
H1471 C1477 0.950 . S
H1472 C1478 0.949 . S
C1473 H1468 0.950 . S
C1473 C1475 1.327 . S
C1473 C1479 1.429 . S
C1474 C1466 1.574 . S
C1474 H1469 0.949 . S
C1474 C1480 1.368 1_564 S
C1475 C1459 1.349 . S
C1475 H1467 0.950 . S
C1475 C1473 1.327 . S
C1476 C1464 1.349 . S
C1476 H1470 0.950 . S
C1476 C1477 1.327 . S
C1477 H1471 0.950 . S
C1477 C1476 1.327 . S
C1477 C1481 1.429 . S
C1478 C1461 1.574 . S
C1478 H1472 0.949 . S
C1478 C1482 1.289 1_546 S
C1479 C1460 1.429 1_546 S
C1479 C1473 1.429 . S
C1479 C1480 1.523 . S
C1480 C1461 1.368 . S
C1480 C1474 1.368 1_546 S
C1480 C1479 1.523 . S
C1481 C1465 1.429 1_564 S
C1481 C1477 1.429 . S
C1481 C1482 1.571 . S
C1482 C1466 1.415 . S
C1482 C1478 1.289 1_564 S
C1482 C1481 1.571 . S
H1483 C1458 0.950 . S
H1484 C1460 0.950 . S
H1485 C1461 0.949 . S
H1486 C1463 0.950 . S
H1487 C1465 0.950 . S
C1488 C1489 1.349 1_556 S
C1488 C1490 1.327 . S
C1488 H1513 0.950 . S
C1489 C1488 1.349 1_554 S
C1489 C1505 1.349 . S
C1490 C1488 1.327 . S
C1490 C1509 1.429 1_556 S
C1490 H1514 0.950 . S
C1491 C1508 1.574 . S
C1491 C1510 1.368 1_655 S
C1491 H1515 0.949 . S
H1492 C1496 0.949 . S
C1493 C1494 1.349 1_554 S
C1493 C1495 1.327 . S
C1493 H1516 0.950 . S
C1494 C1493 1.349 1_556 S
C1494 C1506 1.349 . S
C1495 C1493 1.327 . S
C1495 C1511 1.429 1_554 S
C1495 H1517 0.950 . S
C1496 H1492 0.949 . S
C1496 C1504 1.574 . S
C1496 C1512 1.368 1_455 S
H1497 C1505 0.950 . S
H1498 C1503 0.950 . S
H1499 C1504 0.949 . S
H1500 C1506 0.950 . S
H1501 C1507 0.950 . S
H1502 C1508 0.949 . S
C1503 H1498 0.950 . S
C1503 C1505 1.327 . S
C1503 C1509 1.429 . S
C1504 C1496 1.574 . S
C1504 H1499 0.949 . S
C1504 C1510 1.368 1_556 S
C1505 C1489 1.349 . S
C1505 H1497 0.950 . S
C1505 C1503 1.327 . S
C1506 C1494 1.349 . S
C1506 H1500 0.950 . S
C1506 C1507 1.327 . S
C1507 H1501 0.950 . S
C1507 C1506 1.327 . S
C1507 C1511 1.429 . S
C1508 C1491 1.574 . S
C1508 H1502 0.949 . S
C1508 C1512 1.368 1_554 S
C1509 C1490 1.429 1_554 S
C1509 C1503 1.429 . S
C1509 C1510 1.523 . S
C1510 C1491 1.368 1_455 S
C1510 C1504 1.368 1_554 S
C1510 C1509 1.523 . S
C1511 C1495 1.429 1_556 S
C1511 C1507 1.429 . S
C1511 C1512 1.523 . S
C1512 C1496 1.368 1_655 S
C1512 C1508 1.368 1_556 S
C1512 C1511 1.523 . S
H1513 C1488 0.950 . S
H1514 C1490 0.950 . S
H1515 C1491 0.949 . S
H1516 C1493 0.950 . S
H1517 C1495 0.950 . S
C1518 C1519 1.349 . S
C1518 C1520 1.327 . S
C1518 H1543 0.950 . S
C1519 C1518 1.349 . S
C1519 C1535 1.349 1_554 S
C1520 C1518 1.327 . S
C1520 C1539 1.429 . S
C1520 H1544 0.950 . S
C1521 C1538 1.574 . S
C1521 C1540 1.368 1_556 S
C1521 H1545 0.949 . S
H1522 C1526 0.949 . S
C1523 C1524 1.349 . S
C1523 C1525 1.327 . S
C1523 H1546 0.950 . S
C1524 C1523 1.349 . S
C1524 C1536 1.349 1_556 S
C1525 C1523 1.327 . S
C1525 C1541 1.429 . S
C1525 H1547 0.950 . S
C1526 H1522 0.949 . S
C1526 C1534 1.574 . S
C1526 C1542 1.368 1_554 S
H1527 C1535 0.950 . S
H1528 C1533 0.950 . S
H1529 C1534 0.949 . S
H1530 C1536 0.950 . S
H1531 C1537 0.950 . S
H1532 C1538 0.949 . S
C1533 H1528 0.950 . S
C1533 C1535 1.327 . S
C1533 C1539 1.429 1_556 S
C1534 C1526 1.574 . S
C1534 H1529 0.949 . S
C1534 C1540 1.368 . S
C1535 C1519 1.349 1_556 S
C1535 H1527 0.950 . S
C1535 C1533 1.327 . S
C1536 C1524 1.349 1_554 S
C1536 H1530 0.950 . S
C1536 C1537 1.327 . S
C1537 H1531 0.950 . S
C1537 C1536 1.327 . S
C1537 C1541 1.429 1_554 S
C1538 C1521 1.574 . S
C1538 H1532 0.949 . S
C1538 C1542 1.368 . S
C1539 C1520 1.429 . S
C1539 C1533 1.429 1_554 S
C1539 C1540 1.523 . S
C1540 C1521 1.368 1_554 S
C1540 C1534 1.368 . S
C1540 C1539 1.523 . S
C1541 C1525 1.429 . S
C1541 C1537 1.429 1_556 S
C1541 C1542 1.523 . S
C1542 C1526 1.368 1_556 S
C1542 C1538 1.368 . S
C1542 C1541 1.523 . S
H1543 C1518 0.950 . S
H1544 C1520 0.950 . S
H1545 C1521 0.949 . S
H1546 C1523 0.950 . S
H1547 C1525 0.950 . S
C1548 C1549 1.349 . S
C1548 C1550 1.327 . S
C1548 H1573 0.950 . S
C1549 C1548 1.349 . S
C1549 C1565 1.349 1_554 S
C1550 C1548 1.327 . S
C1550 C1569 1.429 . S
C1550 H1574 0.950 . S
C1551 C1568 1.574 . S
C1551 C1570 1.368 . S
C1551 H1575 0.949 . S
H1552 C1556 0.949 . S
C1553 C1554 1.349 . S
C1553 C1555 1.327 . S
C1553 H1576 0.950 . S
C1554 C1553 1.349 . S
C1554 C1566 1.349 . S
C1555 C1553 1.327 . S
C1555 C1571 1.429 . S
C1555 H1577 0.950 . S
C1556 H1552 0.949 . S
C1556 C1564 1.574 . S
C1556 C1572 1.368 . S
H1557 C1565 0.950 . S
H1558 C1563 0.950 1_556 S
H1559 C1564 0.949 . S
H1560 C1566 0.950 . S
H1561 C1567 0.950 . S
H1562 C1568 0.949 . S
C1563 H1558 0.950 1_554 S
C1563 C1565 1.327 1_554 S
C1563 C1569 1.429 . S
C1564 C1556 1.574 . S
C1564 H1559 0.949 . S
C1564 C1570 1.368 . S
C1565 C1549 1.349 1_556 S
C1565 H1557 0.950 . S
C1565 C1563 1.327 1_556 S
C1566 C1554 1.349 . S
C1566 H1560 0.950 . S
C1566 C1567 1.327 . S
C1567 H1561 0.950 . S
C1567 C1566 1.327 . S
C1567 C1571 1.429 . S
C1568 C1551 1.574 . S
C1568 H1562 0.949 . S
C1568 C1572 1.368 . S
C1569 C1550 1.429 . S
C1569 C1563 1.429 . S
C1569 C1570 1.523 . S
C1570 C1551 1.368 . S
C1570 C1564 1.368 . S
C1570 C1569 1.523 . S
C1571 C1555 1.429 . S
C1571 C1567 1.429 . S
C1571 C1572 1.523 . S
C1572 C1556 1.368 . S
C1572 C1568 1.368 . S
C1572 C1571 1.523 . S
H1573 C1548 0.950 . S
H1574 C1550 0.950 . S
H1575 C1551 0.949 . S
H1576 C1553 0.950 . S
H1577 C1555 0.950 . S
C1578 C1579 1.349 . S
C1578 C1580 1.327 . S
C1578 H1603 0.950 . S
C1579 C1578 1.349 . S
C1579 C1595 1.349 . S
C1580 C1578 1.327 . S
C1580 C1599 1.429 . S
C1580 H1604 0.950 . S
C1581 C1598 1.574 . S
C1581 C1600 1.368 . S
C1581 H1605 0.949 . S
H1582 C1586 0.949 . S
C1583 C1584 1.349 . S
C1583 C1585 1.327 . S
C1583 H1606 0.950 1_554 S
C1584 C1583 1.349 . S
C1584 C1596 1.349 . S
C1585 C1583 1.327 . S
C1585 C1601 1.429 . S
C1585 H1607 0.950 . S
C1586 H1582 0.949 . S
C1586 C1594 1.574 . S
C1586 C1602 1.368 . S
H1587 C1595 0.950 . S
H1588 C1593 0.950 . S
H1589 C1594 0.949 . S
H1590 C1596 0.950 . S
H1591 C1597 0.950 . S
H1592 C1598 0.949 . S
C1593 H1588 0.950 . S
C1593 C1595 1.327 . S
C1593 C1599 1.429 . S
C1594 C1586 1.574 . S
C1594 H1589 0.949 . S
C1594 C1600 1.368 . S
C1595 C1579 1.349 . S
C1595 H1587 0.950 . S
C1595 C1593 1.327 . S
C1596 C1584 1.349 . S
C1596 H1590 0.950 . S
C1596 C1597 1.327 . S
C1597 H1591 0.950 . S
C1597 C1596 1.327 . S
C1597 C1601 1.429 . S
C1598 C1581 1.574 . S
C1598 H1592 0.949 . S
C1598 C1602 1.368 . S
C1599 C1580 1.429 . S
C1599 C1593 1.429 . S
C1599 C1600 1.523 . S
C1600 C1581 1.368 . S
C1600 C1594 1.368 . S
C1600 C1599 1.523 . S
C1601 C1585 1.429 . S
C1601 C1597 1.429 . S
C1601 C1602 1.523 . S
C1602 C1586 1.368 . S
C1602 C1598 1.368 . S
C1602 C1601 1.523 . S
H1603 C1578 0.950 . S
H1604 C1580 0.950 . S
H1605 C1581 0.949 . S
H1606 C1583 0.950 1_556 S
H1607 C1585 0.950 . S
C1608 C1609 1.349 . S
C1608 C1610 1.327 . S
C1608 H1633 0.950 . S
C1609 C1608 1.349 . S
C1609 C1625 1.349 . S
C1610 C1608 1.327 . S
C1610 C1629 1.429 . S
C1610 H1634 0.950 . S
C1611 C1628 1.574 . S
C1611 C1630 1.368 . S
C1611 H1635 0.949 . S
H1612 C1616 0.949 . S
C1613 C1614 1.349 . S
C1613 C1615 1.327 . S
C1613 H1636 0.950 1_554 S
C1614 C1613 1.349 . S
C1614 C1626 1.349 . S
C1615 C1613 1.327 . S
C1615 C1631 1.429 . S
C1615 H1637 0.950 1_554 S
C1616 H1612 0.949 . S
C1616 C1624 1.574 . S
C1616 C1632 1.368 . S
H1617 C1625 0.950 . S
H1618 C1623 0.950 . S
H1619 C1624 0.949 . S
H1620 C1626 0.950 . S
H1621 C1627 0.950 . S
H1622 C1628 0.949 . S
C1623 H1618 0.950 . S
C1623 C1625 1.327 . S
C1623 C1629 1.429 . S
C1624 C1616 1.574 . S
C1624 H1619 0.949 . S
C1624 C1630 1.368 . S
C1625 C1609 1.349 . S
C1625 H1617 0.950 . S
C1625 C1623 1.327 . S
C1626 C1614 1.349 . S
C1626 H1620 0.950 . S
C1626 C1627 1.327 . S
C1627 H1621 0.950 . S
C1627 C1626 1.327 . S
C1627 C1631 1.429 . S
C1628 C1611 1.574 . S
C1628 H1622 0.949 . S
C1628 C1632 1.368 . S
C1629 C1610 1.429 . S
C1629 C1623 1.429 . S
C1629 C1630 1.523 . S
C1630 C1611 1.368 . S
C1630 C1624 1.368 . S
C1630 C1629 1.523 . S
C1631 C1615 1.429 . S
C1631 C1627 1.429 . S
C1631 C1632 1.523 . S
C1632 C1616 1.368 . S
C1632 C1628 1.368 . S
C1632 C1631 1.523 . S
H1633 C1608 0.950 . S
H1634 C1610 0.950 . S
H1635 C1611 0.949 . S
H1636 C1613 0.950 1_556 S
H1637 C1615 0.950 1_556 S
C1638 C1639 1.349 . S
C1638 C1640 1.327 . S
C1638 H1663 0.950 . S
C1639 C1638 1.349 . S
C1639 C1655 1.349 . S
C1640 C1638 1.327 . S
C1640 C1659 1.429 . S
C1640 H1664 0.950 . S
C1641 C1658 1.574 . S
C1641 C1660 1.368 . S
C1641 H1665 0.949 . S
H1642 C1646 0.949 . S
C1643 C1644 1.349 . S
C1643 C1645 1.327 . S
C1643 H1666 0.950 . S
C1644 C1643 1.349 . S
C1644 C1656 1.349 . S
C1645 C1643 1.327 . S
C1645 C1661 1.429 . S
C1645 H1667 0.950 . S
C1646 H1642 0.949 . S
C1646 C1654 1.574 . S
C1646 C1662 1.368 . S
H1647 C1655 0.950 . S
H1648 C1653 0.950 . S
H1649 C1654 0.949 . S
H1650 C1656 0.950 . S
H1651 C1657 0.950 . S
H1652 C1658 0.949 . S
C1653 H1648 0.950 . S
C1653 C1655 1.327 . S
C1653 C1659 1.429 . S
C1654 C1646 1.574 . S
C1654 H1649 0.949 . S
C1654 C1660 1.368 . S
C1655 C1639 1.349 . S
C1655 H1647 0.950 . S
C1655 C1653 1.327 . S
C1656 C1644 1.349 . S
C1656 H1650 0.950 . S
C1656 C1657 1.327 . S
C1657 H1651 0.950 . S
C1657 C1656 1.327 . S
C1657 C1661 1.429 . S
C1658 C1641 1.574 . S
C1658 H1652 0.949 . S
C1658 C1662 1.368 . S
C1659 C1640 1.429 . S
C1659 C1653 1.429 . S
C1659 C1660 1.523 . S
C1660 C1641 1.368 . S
C1660 C1654 1.368 . S
C1660 C1659 1.523 . S
C1661 C1645 1.429 . S
C1661 C1657 1.429 . S
C1661 C1662 1.523 . S
C1662 C1646 1.368 . S
C1662 C1658 1.368 . S
C1662 C1661 1.523 . S
H1663 C1638 0.950 . S
H1664 C1640 0.950 . S
H1665 C1641 0.949 . S
H1666 C1643 0.950 . S
H1667 C1645 0.950 . S
C1668 C1669 1.349 . S
C1668 C1670 1.327 . S
C1668 H1693 0.950 . S
C1669 C1668 1.349 . S
C1669 C1685 1.349 . S
C1670 C1668 1.327 . S
C1670 C1689 1.429 . S
C1670 H1694 0.950 . S
C1671 C1688 1.574 . S
C1671 C1690 1.368 . S
C1671 H1695 0.949 . S
H1672 C1676 0.949 . S
C1673 C1674 1.349 . S
C1673 C1675 1.327 . S
C1673 H1696 0.950 . S
C1674 C1673 1.349 . S
C1674 C1686 1.349 . S
C1675 C1673 1.327 . S
C1675 C1691 1.429 . S
C1675 H1697 0.950 . S
C1676 H1672 0.949 . S
C1676 C1684 1.574 . S
C1676 C1692 1.368 . S
H1677 C1685 0.950 . S
H1678 C1683 0.950 . S
H1679 C1684 0.949 . S
H1680 C1686 0.950 . S
H1681 C1687 0.950 . S
H1682 C1688 0.949 . S
C1683 H1678 0.950 . S
C1683 C1685 1.327 . S
C1683 C1689 1.429 . S
C1684 C1676 1.574 . S
C1684 H1679 0.949 . S
C1684 C1690 1.368 . S
C1685 C1669 1.349 . S
C1685 H1677 0.950 . S
C1685 C1683 1.327 . S
C1686 C1674 1.349 . S
C1686 H1680 0.950 . S
C1686 C1687 1.327 . S
C1687 H1681 0.950 . S
C1687 C1686 1.327 . S
C1687 C1691 1.429 . S
C1688 C1671 1.574 . S
C1688 H1682 0.949 . S
C1688 C1692 1.368 . S
C1689 C1670 1.429 . S
C1689 C1683 1.429 . S
C1689 C1690 1.523 . S
C1690 C1671 1.368 . S
C1690 C1684 1.368 . S
C1690 C1689 1.523 . S
C1691 C1675 1.429 . S
C1691 C1687 1.429 . S
C1691 C1692 1.523 . S
C1692 C1676 1.368 . S
C1692 C1688 1.368 . S
C1692 C1691 1.523 . S
H1693 C1668 0.950 . S
H1694 C1670 0.950 . S
H1695 C1671 0.949 . S
H1696 C1673 0.950 . S
H1697 C1675 0.950 . S
C1698 C1699 1.349 . S
C1698 C1700 1.327 . S
C1698 H1723 0.950 . S
C1699 C1698 1.349 . S
C1699 C1715 1.349 . S
C1700 C1698 1.327 . S
C1700 C1719 1.429 . S
C1700 H1724 0.950 . S
C1701 C1718 1.574 . S
C1701 C1720 1.368 . S
C1701 H1725 0.949 . S
H1702 C1706 0.949 . S
C1703 C1704 1.349 . S
C1703 C1705 1.327 . S
C1703 H1726 0.950 . S
C1704 C1703 1.349 . S
C1704 C1716 1.349 . S
C1705 C1703 1.327 . S
C1705 C1721 1.429 . S
C1705 H1727 0.950 . S
C1706 H1702 0.949 . S
C1706 C1714 1.574 . S
C1706 C1722 1.368 . S
H1707 C1715 0.950 . S
H1708 C1713 0.950 . S
H1709 C1714 0.949 . S
H1710 C1716 0.950 . S
H1711 C1717 0.950 . S
H1712 C1718 0.949 . S
C1713 H1708 0.950 . S
C1713 C1715 1.327 . S
C1713 C1719 1.429 . S
C1714 C1706 1.574 . S
C1714 H1709 0.949 . S
C1714 C1720 1.368 . S
C1715 C1699 1.349 . S
C1715 H1707 0.950 . S
C1715 C1713 1.327 . S
C1716 C1704 1.349 . S
C1716 H1710 0.950 . S
C1716 C1717 1.327 . S
C1717 H1711 0.950 . S
C1717 C1716 1.327 . S
C1717 C1721 1.429 . S
C1718 C1701 1.574 . S
C1718 H1712 0.949 . S
C1718 C1722 1.368 . S
C1719 C1700 1.429 . S
C1719 C1713 1.429 . S
C1719 C1720 1.523 . S
C1720 C1701 1.368 . S
C1720 C1714 1.368 . S
C1720 C1719 1.523 . S
C1721 C1705 1.429 . S
C1721 C1717 1.429 . S
C1721 C1722 1.523 . S
C1722 C1706 1.368 . S
C1722 C1718 1.368 . S
C1722 C1721 1.523 . S
H1723 C1698 0.950 . S
H1724 C1700 0.950 . S
H1725 C1701 0.949 . S
H1726 C1703 0.950 . S
H1727 C1705 0.950 . S
C1728 C1729 1.349 . S
C1728 C1730 1.327 . S
C1728 H1753 0.950 . S
C1729 C1728 1.349 . S
C1729 C1745 1.349 . S
C1730 C1728 1.327 . S
C1730 C1749 1.429 . S
C1730 H1754 0.950 . S
C1731 C1748 1.574 . S
C1731 C1750 1.368 . S
C1731 H1755 0.949 . S
H1732 C1736 0.949 . S
C1733 C1734 1.349 . S
C1733 C1735 1.327 . S
C1733 H1756 0.950 . S
C1734 C1733 1.349 . S
C1734 C1746 1.349 . S
C1735 C1733 1.327 . S
C1735 C1751 1.429 . S
C1735 H1757 0.950 . S
C1736 H1732 0.949 . S
C1736 C1744 1.574 . S
C1736 C1752 1.368 . S
H1737 C1745 0.950 1_554 S
H1738 C1743 0.950 1_554 S
H1739 C1744 0.949 . S
H1740 C1746 0.950 . S
H1741 C1747 0.950 . S
H1742 C1748 0.949 . S
C1743 H1738 0.950 1_556 S
C1743 C1745 1.327 . S
C1743 C1749 1.429 . S
C1744 C1736 1.574 . S
C1744 H1739 0.949 . S
C1744 C1750 1.368 . S
C1745 C1729 1.349 . S
C1745 H1737 0.950 1_556 S
C1745 C1743 1.327 . S
C1746 C1734 1.349 . S
C1746 H1740 0.950 . S
C1746 C1747 1.327 . S
C1747 H1741 0.950 . S
C1747 C1746 1.327 . S
C1747 C1751 1.429 . S
C1748 C1731 1.574 . S
C1748 H1742 0.949 . S
C1748 C1752 1.368 . S
C1749 C1730 1.429 . S
C1749 C1743 1.429 . S
C1749 C1750 1.523 . S
C1750 C1731 1.368 . S
C1750 C1744 1.368 . S
C1750 C1749 1.523 . S
C1751 C1735 1.429 . S
C1751 C1747 1.429 . S
C1751 C1752 1.523 . S
C1752 C1736 1.368 . S
C1752 C1748 1.368 . S
C1752 C1751 1.523 . S
H1753 C1728 0.950 . S
H1754 C1730 0.950 . S
H1755 C1731 0.949 . S
H1756 C1733 0.950 . S
H1757 C1735 0.950 . S
C1758 C1759 1.349 . S
C1758 C1760 1.327 . S
C1758 H1783 0.950 . S
C1759 C1758 1.349 . S
C1759 C1775 1.349 . S
C1760 C1758 1.327 . S
C1760 C1779 1.429 . S
C1760 H1784 0.950 . S
C1761 C1778 1.574 . S
C1761 C1780 1.368 . S
C1761 H1785 0.949 . S
H1762 C1766 0.949 . S
C1763 C1764 1.349 . S
C1763 C1765 1.327 . S
C1763 H1786 0.950 1_556 S
C1764 C1763 1.349 . S
C1764 C1776 1.349 . S
C1765 C1763 1.327 . S
C1765 C1781 1.429 . S
C1765 H1787 0.950 . S
C1766 H1762 0.949 . S
C1766 C1774 1.574 . S
C1766 C1782 1.368 . S
H1767 C1775 0.950 . S
H1768 C1773 0.950 . S
H1769 C1774 0.949 . S
H1770 C1776 0.950 . S
H1771 C1777 0.950 . S
H1772 C1778 0.949 . S
C1773 H1768 0.950 . S
C1773 C1775 1.327 . S
C1773 C1779 1.429 . S
C1774 C1766 1.574 . S
C1774 H1769 0.949 . S
C1774 C1780 1.368 . S
C1775 C1759 1.349 . S
C1775 H1767 0.950 . S
C1775 C1773 1.327 . S
C1776 C1764 1.349 . S
C1776 H1770 0.950 . S
C1776 C1777 1.327 . S
C1777 H1771 0.950 . S
C1777 C1776 1.327 . S
C1777 C1781 1.429 . S
C1778 C1761 1.574 . S
C1778 H1772 0.949 . S
C1778 C1782 1.368 . S
C1779 C1760 1.429 . S
C1779 C1773 1.429 . S
C1779 C1780 1.523 . S
C1780 C1761 1.368 . S
C1780 C1774 1.368 . S
C1780 C1779 1.523 . S
C1781 C1765 1.429 . S
C1781 C1777 1.429 . S
C1781 C1782 1.523 . S
C1782 C1766 1.368 . S
C1782 C1778 1.368 . S
C1782 C1781 1.523 . S
H1783 C1758 0.950 . S
H1784 C1760 0.950 . S
H1785 C1761 0.949 . S
H1786 C1763 0.950 1_554 S
H1787 C1765 0.950 . S
C1788 C1789 1.349 . S
C1788 C1790 1.327 . S
C1788 H1813 0.950 . S
C1789 C1788 1.349 . S
C1789 C1805 1.332 1_556 S
C1790 C1788 1.327 . S
C1790 C1809 1.429 . S
C1790 H1814 0.950 . S
C1791 C1808 1.574 . S
C1791 C1810 1.368 . S
C1791 H1815 0.949 . S
H1792 C1796 0.949 . S
C1793 C1794 1.349 . S
C1793 C1795 1.327 . S
C1793 H1816 0.950 . S
C1794 C1793 1.349 . S
C1794 C1806 1.349 . S
C1795 C1793 1.327 . S
C1795 C1811 1.429 . S
C1795 H1817 0.950 . S
C1796 H1792 0.949 . S
C1796 C1804 1.574 . S
C1796 C1812 1.368 . S
H1797 C1805 0.977 . S
H1798 C1803 0.950 1_554 S
H1799 C1804 0.949 . S
H1800 C1806 0.950 . S
H1801 C1807 0.950 . S
H1802 C1808 0.949 . S
C1803 H1798 0.950 1_556 S
C1803 C1805 1.318 1_556 S
C1803 C1809 1.429 . S
C1804 C1796 1.574 . S
C1804 H1799 0.949 . S
C1804 C1810 1.368 . S
C1805 C1789 1.332 1_554 S
C1805 H1797 0.977 . S
C1805 C1803 1.318 1_554 S
C1806 C1794 1.349 . S
C1806 H1800 0.950 . S
C1806 C1807 1.327 . S
C1807 H1801 0.950 . S
C1807 C1806 1.327 . S
C1807 C1811 1.429 . S
C1808 C1791 1.574 . S
C1808 H1802 0.949 . S
C1808 C1812 1.368 . S
C1809 C1790 1.429 . S
C1809 C1803 1.429 . S
C1809 C1810 1.523 . S
C1810 C1791 1.368 . S
C1810 C1804 1.368 . S
C1810 C1809 1.523 . S
C1811 C1795 1.429 . S
C1811 C1807 1.429 . S
C1811 C1812 1.523 . S
C1812 C1796 1.368 . S
C1812 C1808 1.368 . S
C1812 C1811 1.523 . S
H1813 C1788 0.950 . S
H1814 C1790 0.950 . S
H1815 C1791 0.949 . S
H1816 C1793 0.950 . S
H1817 C1795 0.950 . S
C1818 C1819 1.349 . S
C1818 C1820 1.327 . S
C1818 H1843 0.950 . S
C1819 C1818 1.349 . S
C1819 C1835 1.349 . S
C1820 C1818 1.327 . S
C1820 C1839 1.429 . S
C1820 H1844 0.950 . S
C1821 C1838 1.574 . S
C1821 C1840 1.368 . S
C1821 H1845 0.949 . S
H1822 C1826 0.949 . S
C1823 C1824 1.349 . S
C1823 C1825 1.327 . S
C1823 H1846 0.950 . S
C1824 C1823 1.349 . S
C1824 C1836 1.349 . S
C1825 C1823 1.327 . S
C1825 C1841 1.429 . S
C1825 H1847 0.950 . S
C1826 H1822 0.949 . S
C1826 C1834 1.574 . S
C1826 C1842 1.368 . S
H1827 C1835 0.950 . S
H1828 C1833 0.950 . S
H1829 C1834 0.949 . S
H1830 C1836 0.950 . S
H1831 C1837 0.950 . S
H1832 C1838 0.949 . S
C1833 H1828 0.950 . S
C1833 C1835 1.327 . S
C1833 C1839 1.429 . S
C1834 C1826 1.574 . S
C1834 H1829 0.949 . S
C1834 C1840 1.368 . S
C1835 C1819 1.349 . S
C1835 H1827 0.950 . S
C1835 C1833 1.327 . S
C1836 C1824 1.349 . S
C1836 H1830 0.950 . S
C1836 C1837 1.327 . S
C1837 H1831 0.950 . S
C1837 C1836 1.327 . S
C1837 C1841 1.429 . S
C1838 C1821 1.574 . S
C1838 H1832 0.949 . S
C1838 C1842 1.368 . S
C1839 C1820 1.429 . S
C1839 C1833 1.429 . S
C1839 C1840 1.523 . S
C1840 C1821 1.368 . S
C1840 C1834 1.368 . S
C1840 C1839 1.523 . S
C1841 C1825 1.429 . S
C1841 C1837 1.429 . S
C1841 C1842 1.523 . S
C1842 C1826 1.368 . S
C1842 C1838 1.368 . S
C1842 C1841 1.523 . S
H1843 C1818 0.950 . S
H1844 C1820 0.950 . S
H1845 C1821 0.949 . S
H1846 C1823 0.950 . S
H1847 C1825 0.950 . S
C1848 C1849 1.349 . S
C1848 C1850 1.327 . S
C1848 H1873 0.950 . S
C1849 C1848 1.349 . S
C1849 C1865 1.349 . S
C1850 C1848 1.327 . S
C1850 C1869 1.429 . S
C1850 H1874 0.950 . S
C1851 C1868 1.574 . S
C1851 C1870 1.368 . S
C1851 H1875 0.949 . S
H1852 C1856 0.949 . S
C1853 C1854 1.349 . S
C1853 C1855 1.327 . S
C1853 H1876 0.950 . S
C1854 C1853 1.349 . S
C1854 C1866 1.349 . S
C1855 C1853 1.327 . S
C1855 C1871 1.429 . S
C1855 H1877 0.950 . S
C1856 H1852 0.949 . S
C1856 C1864 1.574 . S
C1856 C1872 1.368 . S
H1857 C1865 0.950 . S
H1858 C1863 0.950 . S
H1859 C1864 0.949 . S
H1860 C1866 0.950 . S
H1861 C1867 0.950 . S
H1862 C1868 0.949 . S
C1863 H1858 0.950 . S
C1863 C1865 1.327 . S
C1863 C1869 1.429 . S
C1864 C1856 1.574 . S
C1864 H1859 0.949 . S
C1864 C1870 1.368 . S
C1865 C1849 1.349 . S
C1865 H1857 0.950 . S
C1865 C1863 1.327 . S
C1866 C1854 1.349 . S
C1866 H1860 0.950 . S
C1866 C1867 1.327 . S
C1867 H1861 0.950 . S
C1867 C1866 1.327 . S
C1867 C1871 1.429 . S
C1868 C1851 1.574 . S
C1868 H1862 0.949 . S
C1868 C1872 1.368 . S
C1869 C1850 1.429 . S
C1869 C1863 1.429 . S
C1869 C1870 1.523 . S
C1870 C1851 1.368 . S
C1870 C1864 1.368 . S
C1870 C1869 1.523 . S
C1871 C1855 1.429 . S
C1871 C1867 1.429 . S
C1871 C1872 1.523 . S
C1872 C1856 1.368 . S
C1872 C1868 1.368 . S
C1872 C1871 1.523 . S
H1873 C1848 0.950 . S
H1874 C1850 0.950 . S
H1875 C1851 0.949 . S
H1876 C1853 0.950 . S
H1877 C1855 0.950 . S
C1878 C1879 1.349 . S
C1878 C1880 1.327 . S
C1878 H1903 0.950 . S
C1879 C1878 1.349 . S
C1879 C1895 1.349 . S
C1880 C1878 1.327 . S
C1880 C1899 1.429 . S
C1880 H1904 0.950 . S
C1881 C1898 1.574 . S
C1881 C1900 1.368 . S
C1881 H1905 0.949 . S
H1882 C1886 0.949 . S
C1883 C1884 1.349 . S
C1883 C1885 1.327 . S
C1883 H1906 0.950 . S
C1884 C1883 1.349 . S
C1884 C1896 1.349 . S
C1885 C1883 1.327 . S
C1885 C1901 1.429 . S
C1885 H1907 0.950 . S
C1886 H1882 0.949 . S
C1886 C1894 1.574 . S
C1886 C1902 1.368 . S
H1887 C1895 0.950 . S
H1888 C1893 0.950 . S
H1889 C1894 0.949 . S
H1890 C1896 0.950 . S
H1891 C1897 0.950 . S
H1892 C1898 0.949 . S
C1893 H1888 0.950 . S
C1893 C1895 1.327 . S
C1893 C1899 1.429 . S
C1894 C1886 1.574 . S
C1894 H1889 0.949 . S
C1894 C1900 1.368 . S
C1895 C1879 1.349 . S
C1895 H1887 0.950 . S
C1895 C1893 1.327 . S
C1896 C1884 1.349 . S
C1896 H1890 0.950 . S
C1896 C1897 1.327 . S
C1897 H1891 0.950 . S
C1897 C1896 1.327 . S
C1897 C1901 1.429 . S
C1898 C1881 1.574 . S
C1898 H1892 0.949 . S
C1898 C1902 1.368 . S
C1899 C1880 1.429 . S
C1899 C1893 1.429 . S
C1899 C1900 1.523 . S
C1900 C1881 1.368 . S
C1900 C1894 1.368 . S
C1900 C1899 1.523 . S
C1901 C1885 1.429 . S
C1901 C1897 1.429 . S
C1901 C1902 1.523 . S
C1902 C1886 1.368 . S
C1902 C1898 1.368 . S
C1902 C1901 1.523 . S
H1903 C1878 0.950 . S
H1904 C1880 0.950 . S
H1905 C1881 0.949 . S
H1906 C1883 0.950 . S
H1907 C1885 0.950 . S
C1908 C1909 1.349 . S
C1908 C1910 1.327 . S
C1908 H1933 0.950 . S
C1909 C1908 1.349 . S
C1909 C1925 1.349 . S
C1910 C1908 1.327 . S
C1910 C1929 1.429 . S
C1910 H1934 0.950 . S
C1911 C1928 1.574 . S
C1911 C1930 1.368 . S
C1911 H1935 0.949 . S
H1912 C1916 0.949 . S
C1913 C1914 1.349 . S
C1913 C1915 1.327 . S
C1913 H1936 0.950 . S
C1914 C1913 1.349 . S
C1914 C1926 1.349 . S
C1915 C1913 1.327 . S
C1915 C1931 1.429 . S
C1915 H1937 0.950 . S
C1916 H1912 0.949 . S
C1916 C1924 1.574 . S
C1916 C1932 1.368 . S
H1917 C1925 0.950 . S
H1918 C1923 0.950 . S
H1919 C1924 0.949 . S
H1920 C1926 0.950 . S
H1921 C1927 0.950 . S
H1922 C1928 0.949 . S
C1923 H1918 0.950 . S
C1923 C1925 1.327 . S
C1923 C1929 1.429 . S
C1924 C1916 1.574 . S
C1924 H1919 0.949 . S
C1924 C1930 1.368 . S
C1925 C1909 1.349 . S
C1925 H1917 0.950 . S
C1925 C1923 1.327 . S
C1926 C1914 1.349 . S
C1926 H1920 0.950 . S
C1926 C1927 1.327 . S
C1927 H1921 0.950 . S
C1927 C1926 1.327 . S
C1927 C1931 1.429 . S
C1928 C1911 1.574 . S
C1928 H1922 0.949 . S
C1928 C1932 1.368 . S
C1929 C1910 1.429 . S
C1929 C1923 1.429 . S
C1929 C1930 1.523 . S
C1930 C1911 1.368 . S
C1930 C1924 1.368 . S
C1930 C1929 1.523 . S
C1931 C1915 1.429 . S
C1931 C1927 1.429 . S
C1931 C1932 1.523 . S
C1932 C1916 1.368 . S
C1932 C1928 1.368 . S
C1932 C1931 1.523 . S
H1933 C1908 0.950 . S
H1934 C1910 0.950 . S
H1935 C1911 0.949 . S
H1936 C1913 0.950 . S
H1937 C1915 0.950 . S
C1938 C1939 1.349 . S
C1938 C1940 1.327 . S
C1938 H1963 0.950 . S
C1939 C1938 1.349 . S
C1939 C1955 1.349 . S
C1940 C1938 1.327 . S
C1940 C1959 1.429 . S
C1940 H1964 0.950 . S
C1941 C1958 1.557 1_565 S
C1941 C1960 1.368 . S
C1941 H1965 0.949 . S
H1942 C1946 0.949 . S
C1943 C1944 1.349 . S
C1943 C1945 1.327 . S
C1943 H1966 0.950 . S
C1944 C1943 1.349 . S
C1944 C1956 1.349 . S
C1945 C1943 1.327 . S
C1945 C1961 1.429 . S
C1945 H1967 0.950 . S
C1946 H1942 0.949 . S
C1946 C1954 1.574 1_545 S
C1946 C1962 1.368 . S
H1947 C1955 0.950 . S
H1948 C1953 0.950 . S
H1949 C1954 0.949 . S
H1950 C1956 0.950 . S
H1951 C1957 0.950 . S
H1952 C1958 0.961 . S
C1953 H1948 0.950 . S
C1953 C1955 1.327 . S
C1953 C1959 1.429 . S
C1954 C1946 1.574 1_565 S
C1954 H1949 0.949 . S
C1954 C1960 1.368 . S
C1955 C1939 1.349 . S
C1955 H1947 0.950 . S
C1955 C1953 1.327 . S
C1956 C1944 1.349 . S
C1956 H1950 0.950 . S
C1956 C1957 1.327 . S
C1957 H1951 0.950 . S
C1957 C1956 1.327 . S
C1957 C1961 1.429 . S
C1958 C1941 1.557 1_545 S
C1958 H1952 0.961 . S
C1958 C1962 1.373 . S
C1959 C1940 1.429 . S
C1959 C1953 1.429 . S
C1959 C1960 1.523 . S
C1960 C1941 1.368 . S
C1960 C1954 1.368 . S
C1960 C1959 1.523 . S
C1961 C1945 1.429 . S
C1961 C1957 1.429 . S
C1961 C1962 1.523 . S
C1962 C1946 1.368 . S
C1962 C1958 1.373 . S
C1962 C1961 1.523 . S
H1963 C1938 0.950 . S
H1964 C1940 0.950 . S
H1965 C1941 0.949 . S
H1966 C1943 0.950 . S
H1967 C1945 0.950 . S
C1968 C1969 1.349 . S
C1968 C1970 1.327 . S
C1968 H1993 0.950 . S
C1969 C1968 1.349 . S
C1969 C1985 1.349 . S
C1970 C1968 1.327 . S
C1970 C1989 1.429 . S
C1970 H1994 0.950 . S
C1971 C1988 1.574 1_455 S
C1971 C1990 1.368 . S
C1971 H1995 0.949 . S
H1972 C1976 0.949 . S
C1973 C1974 1.349 . S
C1973 C1975 1.327 . S
C1973 H1996 0.950 . S
C1974 C1973 1.349 . S
C1974 C1986 1.349 . S
C1975 C1973 1.327 . S
C1975 C1991 1.429 . S
C1975 H1997 0.950 . S
C1976 H1972 0.949 . S
C1976 C1984 1.607 . S
C1976 C1992 1.368 . S
H1977 C1985 0.950 . S
H1978 C1983 0.950 . S
H1979 C1984 0.934 1_455 S
H1980 C1986 0.950 . S
H1981 C1987 0.950 . S
H1982 C1988 0.949 . S
C1983 H1978 0.950 . S
C1983 C1985 1.327 . S
C1983 C1989 1.429 . S
C1984 C1976 1.607 . S
C1984 H1979 0.934 1_655 S
C1984 C1990 1.353 1_655 S
C1985 C1969 1.349 . S
C1985 H1977 0.950 . S
C1985 C1983 1.327 . S
C1986 C1974 1.349 . S
C1986 H1980 0.950 . S
C1986 C1987 1.327 . S
C1987 H1981 0.950 . S
C1987 C1986 1.327 . S
C1987 C1991 1.429 . S
C1988 C1971 1.574 1_655 S
C1988 H1982 0.949 . S
C1988 C1992 1.368 . S
C1989 C1970 1.429 . S
C1989 C1983 1.429 . S
C1989 C1990 1.523 . S
C1990 C1971 1.368 . S
C1990 C1984 1.353 1_455 S
C1990 C1989 1.523 . S
C1991 C1975 1.429 . S
C1991 C1987 1.429 . S
C1991 C1992 1.523 . S
C1992 C1976 1.368 . S
C1992 C1988 1.368 . S
C1992 C1991 1.523 . S
H1993 C1968 0.950 . S
H1994 C1970 0.950 . S
H1995 C1971 0.949 . S
H1996 C1973 0.950 . S
H1997 C1975 0.950 . S
C1998 C1999 1.349 . S
C1998 C2000 1.327 . S
C1998 H2023 0.950 . S
C1999 C1998 1.349 . S
C1999 C2015 1.349 . S
C2000 C1998 1.327 . S
C2000 C2019 1.429 . S
C2000 H2024 0.950 . S
C2001 C2018 1.574 . S
C2001 C2020 1.368 . S
C2001 H2025 0.949 . S
H2002 C2006 0.949 . S
C2003 C2004 1.349 . S
C2003 C2005 1.327 . S
C2003 H2026 0.950 . S
C2004 C2003 1.349 . S
C2004 C2016 1.349 . S
C2005 C2003 1.327 . S
C2005 C2021 1.429 . S
C2005 H2027 0.950 . S
C2006 H2002 0.949 . S
C2006 C2014 1.574 . S
C2006 C2022 1.368 . S
H2007 C2015 0.950 . S
H2008 C2013 0.950 . S
H2009 C2014 0.949 . S
H2010 C2016 0.950 . S
H2011 C2017 0.950 . S
H2012 C2018 0.949 . S
C2013 H2008 0.950 . S
C2013 C2015 1.327 . S
C2013 C2019 1.429 . S
C2014 C2006 1.574 . S
C2014 H2009 0.949 . S
C2014 C2020 1.368 . S
C2015 C1999 1.349 . S
C2015 H2007 0.950 . S
C2015 C2013 1.327 . S
C2016 C2004 1.349 . S
C2016 H2010 0.950 . S
C2016 C2017 1.327 . S
C2017 H2011 0.950 . S
C2017 C2016 1.327 . S
C2017 C2021 1.429 . S
C2018 C2001 1.574 . S
C2018 H2012 0.949 . S
C2018 C2022 1.368 . S
C2019 C2000 1.429 . S
C2019 C2013 1.429 . S
C2019 C2020 1.523 . S
C2020 C2001 1.368 . S
C2020 C2014 1.368 . S
C2020 C2019 1.523 . S
C2021 C2005 1.429 . S
C2021 C2017 1.429 . S
C2021 C2022 1.523 . S
C2022 C2006 1.368 . S
C2022 C2018 1.368 . S
C2022 C2021 1.523 . S
H2023 C1998 0.950 . S
H2024 C2000 0.950 . S
H2025 C2001 0.949 . S
H2026 C2003 0.950 . S
H2027 C2005 0.950 . S
C2028 C2029 1.349 . S
C2028 C2030 1.327 . S
C2028 H2053 0.950 . S
C2029 C2028 1.349 . S
C2029 C2045 1.349 . S
C2030 C2028 1.327 . S
C2030 C2049 1.429 . S
C2030 H2054 0.950 . S
C2031 C2048 1.574 1_565 S
C2031 C2050 1.368 . S
C2031 H2055 0.949 . S
H2032 C2036 0.949 . S
C2033 C2034 1.349 . S
C2033 C2035 1.327 . S
C2033 H2056 0.950 . S
C2034 C2033 1.349 . S
C2034 C2046 1.349 . S
C2035 C2033 1.327 . S
C2035 C2051 1.429 . S
C2035 H2057 0.950 . S
C2036 H2032 0.949 . S
C2036 C2044 1.626 . S
C2036 C2052 1.368 . S
H2037 C2045 0.950 . S
H2038 C2043 0.950 . S
H2039 C2044 0.925 1_565 S
H2040 C2046 0.950 . S
H2041 C2047 0.950 . S
H2042 C2048 0.949 . S
C2043 H2038 0.950 . S
C2043 C2045 1.327 . S
C2043 C2049 1.429 . S
C2044 C2036 1.626 . S
C2044 H2039 0.925 1_545 S
C2044 C2050 1.346 1_545 S
C2045 C2029 1.349 . S
C2045 H2037 0.950 . S
C2045 C2043 1.327 . S
C2046 C2034 1.349 . S
C2046 H2040 0.950 . S
C2046 C2047 1.327 . S
C2047 H2041 0.950 . S
C2047 C2046 1.327 . S
C2047 C2051 1.429 . S
C2048 C2031 1.574 1_545 S
C2048 H2042 0.949 . S
C2048 C2052 1.368 . S
C2049 C2030 1.429 . S
C2049 C2043 1.429 . S
C2049 C2050 1.523 . S
C2050 C2031 1.368 . S
C2050 C2044 1.346 1_565 S
C2050 C2049 1.523 . S
C2051 C2035 1.429 . S
C2051 C2047 1.429 . S
C2051 C2052 1.523 . S
C2052 C2036 1.368 . S
C2052 C2048 1.368 . S
C2052 C2051 1.523 . S
H2053 C2028 0.950 . S
H2054 C2030 0.950 . S
H2055 C2031 0.949 . S
H2056 C2033 0.950 . S
H2057 C2035 0.950 . S
C2058 C2059 1.349 . S
C2058 C2060 1.327 . S
C2058 H2083 0.950 . S
C2059 C2058 1.349 . S
C2059 C2075 1.349 . S
C2060 C2058 1.327 . S
C2060 C2079 1.429 . S
C2060 H2084 0.950 . S
C2061 C2078 1.580 1_455 S
C2061 C2080 1.368 . S
C2061 H2085 0.949 . S
H2062 C2066 0.949 . S
C2063 C2064 1.349 . S
C2063 C2065 1.327 . S
C2063 H2086 0.950 . S
C2064 C2063 1.349 . S
C2064 C2076 1.349 . S
C2065 C2063 1.327 . S
C2065 C2081 1.429 . S
C2065 H2087 0.950 . S
C2066 H2062 0.949 . S
C2066 C2074 1.574 1_655 S
C2066 C2082 1.368 . S
H2067 C2075 0.950 . S
H2068 C2073 0.950 . S
H2069 C2074 0.949 . S
H2070 C2076 0.950 . S
H2071 C2077 0.950 . S
H2072 C2078 0.947 . S
C2073 H2068 0.950 . S
C2073 C2075 1.327 . S
C2073 C2079 1.429 . S
C2074 C2066 1.574 1_455 S
C2074 H2069 0.949 . S
C2074 C2080 1.368 . S
C2075 C2059 1.349 . S
C2075 H2067 0.950 . S
C2075 C2073 1.327 . S
C2076 C2064 1.349 . S
C2076 H2070 0.950 . S
C2076 C2077 1.327 . S
C2077 H2071 0.950 . S
C2077 C2076 1.327 . S
C2077 C2081 1.429 . S
C2078 C2061 1.580 1_655 S
C2078 H2072 0.947 . S
C2078 C2082 1.364 . S
C2079 C2060 1.429 . S
C2079 C2073 1.429 . S
C2079 C2080 1.523 . S
C2080 C2061 1.368 . S
C2080 C2074 1.368 . S
C2080 C2079 1.523 . S
C2081 C2065 1.429 . S
C2081 C2077 1.429 . S
C2081 C2082 1.523 . S
C2082 C2066 1.368 . S
C2082 C2078 1.364 . S
C2082 C2081 1.523 . S
H2083 C2058 0.950 . S
H2084 C2060 0.950 . S
H2085 C2061 0.949 . S
H2086 C2063 0.950 . S
H2087 C2065 0.950 . S
C2088 C2089 1.349 . S
C2088 C2090 1.327 . S
C2088 H2113 0.950 . S
C2089 C2088 1.349 . S
C2089 C2105 1.349 . S
C2090 C2088 1.327 . S
C2090 C2109 1.429 1_554 S
C2090 H2114 0.950 1_554 S
C2091 C2108 1.574 . S
C2091 C2110 1.368 . S
C2091 H2115 0.949 . S
H2092 C2096 0.949 . S
C2093 C2094 1.349 . S
C2093 C2095 1.327 . S
C2093 H2116 0.950 . S
C2094 C2093 1.349 . S
C2094 C2106 1.349 . S
C2095 C2093 1.327 . S
C2095 C2111 1.429 . S
C2095 H2117 0.950 . S
C2096 H2092 0.949 . S
C2096 C2104 1.574 . S
C2096 C2112 1.368 . S
H2097 C2105 0.950 . S
H2098 C2103 0.950 1_556 S
H2099 C2104 0.949 . S
H2100 C2106 0.950 . S
H2101 C2107 0.950 . S
H2102 C2108 0.949 . S
C2103 H2098 0.950 1_554 S
C2103 C2105 1.327 . S
C2103 C2109 1.429 1_554 S
C2104 C2096 1.574 . S
C2104 H2099 0.949 . S
C2104 C2110 1.368 . S
C2105 C2089 1.349 . S
C2105 H2097 0.950 . S
C2105 C2103 1.327 . S
C2106 C2094 1.349 . S
C2106 H2100 0.950 . S
C2106 C2107 1.327 . S
C2107 H2101 0.950 . S
C2107 C2106 1.327 . S
C2107 C2111 1.429 . S
C2108 C2091 1.574 . S
C2108 H2102 0.949 . S
C2108 C2112 1.368 . S
C2109 C2090 1.429 1_556 S
C2109 C2103 1.429 1_556 S
C2109 C2110 1.523 . S
C2110 C2091 1.368 . S
C2110 C2104 1.368 . S
C2110 C2109 1.523 . S
C2111 C2095 1.429 . S
C2111 C2107 1.429 . S
C2111 C2112 1.523 . S
C2112 C2096 1.368 . S
C2112 C2108 1.368 . S
C2112 C2111 1.523 . S
H2113 C2088 0.950 . S
H2114 C2090 0.950 1_556 S
H2115 C2091 0.949 . S
H2116 C2093 0.950 . S
H2117 C2095 0.950 . S
C2118 C2119 1.349 . S
C2118 C2120 1.327 . S
C2118 H2143 0.950 . S
C2119 C2118 1.349 . S
C2119 C2135 1.349 . S
C2120 C2118 1.327 . S
C2120 C2139 1.429 1_554 S
C2120 H2144 0.950 . S
C2121 C2138 1.574 . S
C2121 C2140 1.368 . S
C2121 H2145 0.949 . S
H2122 C2126 0.949 . S
C2123 C2124 1.349 . S
C2123 C2125 1.327 . S
C2123 H2146 0.950 . S
C2124 C2123 1.349 . S
C2124 C2136 1.349 . S
C2125 C2123 1.327 . S
C2125 C2141 1.429 . S
C2125 H2147 0.950 . S
C2126 H2122 0.949 . S
C2126 C2134 1.574 . S
C2126 C2142 1.368 . S
H2127 C2135 0.950 . S
H2128 C2133 0.950 . S
H2129 C2134 0.949 . S
H2130 C2136 0.950 . S
H2131 C2137 0.950 . S
H2132 C2138 0.949 . S
C2133 H2128 0.950 . S
C2133 C2135 1.327 . S
C2133 C2139 1.429 1_554 S
C2134 C2126 1.574 . S
C2134 H2129 0.949 . S
C2134 C2140 1.368 . S
C2135 C2119 1.349 . S
C2135 H2127 0.950 . S
C2135 C2133 1.327 . S
C2136 C2124 1.349 . S
C2136 H2130 0.950 . S
C2136 C2137 1.327 . S
C2137 H2131 0.950 . S
C2137 C2136 1.327 . S
C2137 C2141 1.429 . S
C2138 C2121 1.574 . S
C2138 H2132 0.949 . S
C2138 C2142 1.368 . S
C2139 C2120 1.429 1_556 S
C2139 C2133 1.429 1_556 S
C2139 C2140 1.523 . S
C2140 C2121 1.368 . S
C2140 C2134 1.368 . S
C2140 C2139 1.523 . S
C2141 C2125 1.429 . S
C2141 C2137 1.429 . S
C2141 C2142 1.523 . S
C2142 C2126 1.368 . S
C2142 C2138 1.368 . S
C2142 C2141 1.523 . S
H2143 C2118 0.950 . S
H2144 C2120 0.950 . S
H2145 C2121 0.949 . S
H2146 C2123 0.950 . S
H2147 C2125 0.950 . S
C2148 C2149 1.349 . S
C2148 C2150 1.327 . S
C2148 H2173 0.950 . S
C2149 C2148 1.349 . S
C2149 C2165 1.349 . S
C2150 C2148 1.327 . S
C2150 C2169 1.429 1_554 S
C2150 H2174 0.950 . S
C2151 C2168 1.574 . S
C2151 C2170 1.368 . S
C2151 H2175 0.949 . S
H2152 C2156 0.949 . S
C2153 C2154 1.349 . S
C2153 C2155 1.327 . S
C2153 H2176 0.950 . S
C2154 C2153 1.349 . S
C2154 C2166 1.349 . S
C2155 C2153 1.327 . S
C2155 C2171 1.429 . S
C2155 H2177 0.950 . S
C2156 H2152 0.949 . S
C2156 C2164 1.574 . S
C2156 C2172 1.368 . S
H2157 C2165 0.950 . S
H2158 C2163 0.950 . S
H2159 C2164 0.949 . S
H2160 C2166 0.950 . S
H2161 C2167 0.950 . S
H2162 C2168 0.949 . S
C2163 H2158 0.950 . S
C2163 C2165 1.327 . S
C2163 C2169 1.429 1_554 S
C2164 C2156 1.574 . S
C2164 H2159 0.949 . S
C2164 C2170 1.368 . S
C2165 C2149 1.349 . S
C2165 H2157 0.950 . S
C2165 C2163 1.327 . S
C2166 C2154 1.349 . S
C2166 H2160 0.950 . S
C2166 C2167 1.327 . S
C2167 H2161 0.950 . S
C2167 C2166 1.327 . S
C2167 C2171 1.429 . S
C2168 C2151 1.574 . S
C2168 H2162 0.949 . S
C2168 C2172 1.368 . S
C2169 C2150 1.429 1_556 S
C2169 C2163 1.429 1_556 S
C2169 C2170 1.523 . S
C2170 C2151 1.368 . S
C2170 C2164 1.368 . S
C2170 C2169 1.523 . S
C2171 C2155 1.429 . S
C2171 C2167 1.429 . S
C2171 C2172 1.523 . S
C2172 C2156 1.368 . S
C2172 C2168 1.368 . S
C2172 C2171 1.523 . S
H2173 C2148 0.950 . S
H2174 C2150 0.950 . S
H2175 C2151 0.949 . S
H2176 C2153 0.950 . S
H2177 C2155 0.950 . S
C2178 C2179 1.349 . S
C2178 C2180 1.327 . S
C2178 H2203 0.950 . S
C2179 C2178 1.349 . S
C2179 C2195 1.349 . S
C2180 C2178 1.327 . S
C2180 C2199 1.429 . S
C2180 H2204 0.950 . S
C2181 C2198 1.574 . S
C2181 C2200 1.368 . S
C2181 H2205 0.949 . S
H2182 C2186 0.949 . S
C2183 C2184 1.349 . S
C2183 C2185 1.327 . S
C2183 H2206 0.950 . S
C2184 C2183 1.349 . S
C2184 C2196 1.349 . S
C2185 C2183 1.327 . S
C2185 C2201 1.429 . S
C2185 H2207 0.950 . S
C2186 H2182 0.949 . S
C2186 C2194 1.574 . S
C2186 C2202 1.368 . S
H2187 C2195 0.950 . S
H2188 C2193 0.950 . S
H2189 C2194 0.949 . S
H2190 C2196 0.950 . S
H2191 C2197 0.950 . S
H2192 C2198 0.949 . S
C2193 H2188 0.950 . S
C2193 C2195 1.327 . S
C2193 C2199 1.429 . S
C2194 C2186 1.574 . S
C2194 H2189 0.949 . S
C2194 C2200 1.368 . S
C2195 C2179 1.349 . S
C2195 H2187 0.950 . S
C2195 C2193 1.327 . S
C2196 C2184 1.349 . S
C2196 H2190 0.950 . S
C2196 C2197 1.327 . S
C2197 H2191 0.950 . S
C2197 C2196 1.327 . S
C2197 C2201 1.429 . S
C2198 C2181 1.574 . S
C2198 H2192 0.949 . S
C2198 C2202 1.368 . S
C2199 C2180 1.429 . S
C2199 C2193 1.429 . S
C2199 C2200 1.523 . S
C2200 C2181 1.368 . S
C2200 C2194 1.368 . S
C2200 C2199 1.523 . S
C2201 C2185 1.429 . S
C2201 C2197 1.429 . S
C2201 C2202 1.523 . S
C2202 C2186 1.368 . S
C2202 C2198 1.368 . S
C2202 C2201 1.523 . S
H2203 C2178 0.950 . S
H2204 C2180 0.950 . S
H2205 C2181 0.949 . S
H2206 C2183 0.950 . S
H2207 C2185 0.950 . S
C2208 C2209 1.349 . S
C2208 C2210 1.327 . S
C2208 H2233 0.950 . S
C2209 C2208 1.349 . S
C2209 C2225 1.349 . S
C2210 C2208 1.327 . S
C2210 C2229 1.429 . S
C2210 H2234 0.950 . S
C2211 C2228 1.574 . S
C2211 C2230 1.368 . S
C2211 H2235 0.949 . S
H2212 C2216 0.949 . S
C2213 C2214 1.349 . S
C2213 C2215 1.327 . S
C2213 H2236 0.950 . S
C2214 C2213 1.349 . S
C2214 C2226 1.349 . S
C2215 C2213 1.327 . S
C2215 C2231 1.429 . S
C2215 H2237 0.950 . S
C2216 H2212 0.949 . S
C2216 C2224 1.574 . S
C2216 C2232 1.368 . S
H2217 C2225 0.950 . S
H2218 C2223 0.950 . S
H2219 C2224 0.949 . S
H2220 C2226 0.950 . S
H2221 C2227 0.950 . S
H2222 C2228 0.949 . S
C2223 H2218 0.950 . S
C2223 C2225 1.327 . S
C2223 C2229 1.429 . S
C2224 C2216 1.574 . S
C2224 H2219 0.949 . S
C2224 C2230 1.368 . S
C2225 C2209 1.349 . S
C2225 H2217 0.950 . S
C2225 C2223 1.327 . S
C2226 C2214 1.349 . S
C2226 H2220 0.950 . S
C2226 C2227 1.327 . S
C2227 H2221 0.950 . S
C2227 C2226 1.327 . S
C2227 C2231 1.429 . S
C2228 C2211 1.574 . S
C2228 H2222 0.949 . S
C2228 C2232 1.368 . S
C2229 C2210 1.429 . S
C2229 C2223 1.429 . S
C2229 C2230 1.523 . S
C2230 C2211 1.368 . S
C2230 C2224 1.368 . S
C2230 C2229 1.523 . S
C2231 C2215 1.429 . S
C2231 C2227 1.429 . S
C2231 C2232 1.523 . S
C2232 C2216 1.368 . S
C2232 C2228 1.368 . S
C2232 C2231 1.523 . S
H2233 C2208 0.950 . S
H2234 C2210 0.950 . S
H2235 C2211 0.949 . S
H2236 C2213 0.950 . S
H2237 C2215 0.950 . S
C2238 C2239 1.349 . S
C2238 C2240 1.327 . S
C2238 H2263 0.950 . S
C2239 C2238 1.349 . S
C2239 C2255 1.349 . S
C2240 C2238 1.327 . S
C2240 C2259 1.429 . S
C2240 H2264 0.950 . S
C2241 C2258 1.574 . S
C2241 C2260 1.368 . S
C2241 H2265 0.949 . S
H2242 C2246 0.949 . S
C2243 C2244 1.349 . S
C2243 C2245 1.327 . S
C2243 H2266 0.950 . S
C2244 C2243 1.349 . S
C2244 C2256 1.349 . S
C2245 C2243 1.327 . S
C2245 C2261 1.429 . S
C2245 H2267 0.950 . S
C2246 H2242 0.949 . S
C2246 C2254 1.574 . S
C2246 C2262 1.368 . S
H2247 C2255 0.950 . S
H2248 C2253 0.950 . S
H2249 C2254 0.949 . S
H2250 C2256 0.950 . S
H2251 C2257 0.950 . S
H2252 C2258 0.949 . S
C2253 H2248 0.950 . S
C2253 C2255 1.327 . S
C2253 C2259 1.429 . S
C2254 C2246 1.574 . S
C2254 H2249 0.949 . S
C2254 C2260 1.368 . S
C2255 C2239 1.349 . S
C2255 H2247 0.950 . S
C2255 C2253 1.327 . S
C2256 C2244 1.349 . S
C2256 H2250 0.950 . S
C2256 C2257 1.327 . S
C2257 H2251 0.950 . S
C2257 C2256 1.327 . S
C2257 C2261 1.429 . S
C2258 C2241 1.574 . S
C2258 H2252 0.949 . S
C2258 C2262 1.368 . S
C2259 C2240 1.429 . S
C2259 C2253 1.429 . S
C2259 C2260 1.523 . S
C2260 C2241 1.368 . S
C2260 C2254 1.368 . S
C2260 C2259 1.523 . S
C2261 C2245 1.429 . S
C2261 C2257 1.429 . S
C2261 C2262 1.523 . S
C2262 C2246 1.368 . S
C2262 C2258 1.368 . S
C2262 C2261 1.523 . S
H2263 C2238 0.950 . S
H2264 C2240 0.950 . S
H2265 C2241 0.949 . S
H2266 C2243 0.950 . S
H2267 C2245 0.950 . S
C2268 C2269 1.349 . S
C2268 C2270 1.327 . S
C2268 H2293 0.950 . S
C2269 C2268 1.349 . S
C2269 C2285 1.349 . S
C2270 C2268 1.327 . S
C2270 C2289 1.429 . S
C2270 H2294 0.950 . S
C2271 C2288 1.574 . S
C2271 C2290 1.368 . S
C2271 H2295 0.949 . S
H2272 C2276 0.949 . S
C2273 C2274 1.349 . S
C2273 C2275 1.327 . S
C2273 H2296 0.950 . S
C2274 C2273 1.349 . S
C2274 C2286 1.349 . S
C2275 C2273 1.327 . S
C2275 C2291 1.429 1_556 S
C2275 H2297 0.950 1_556 S
C2276 H2272 0.949 . S
C2276 C2284 1.574 . S
C2276 C2292 1.368 . S
H2277 C2285 0.950 . S
H2278 C2283 0.950 . S
H2279 C2284 0.949 . S
H2280 C2286 0.950 . S
H2281 C2287 0.950 1_554 S
H2282 C2288 0.949 . S
C2283 H2278 0.950 . S
C2283 C2285 1.327 . S
C2283 C2289 1.429 . S
C2284 C2276 1.574 . S
C2284 H2279 0.949 . S
C2284 C2290 1.368 . S
C2285 C2269 1.349 . S
C2285 H2277 0.950 . S
C2285 C2283 1.327 . S
C2286 C2274 1.349 . S
C2286 H2280 0.950 . S
C2286 C2287 1.327 . S
C2287 H2281 0.950 1_556 S
C2287 C2286 1.327 . S
C2287 C2291 1.429 1_556 S
C2288 C2271 1.574 . S
C2288 H2282 0.949 . S
C2288 C2292 1.368 . S
C2289 C2270 1.429 . S
C2289 C2283 1.429 . S
C2289 C2290 1.523 . S
C2290 C2271 1.368 . S
C2290 C2284 1.368 . S
C2290 C2289 1.523 . S
C2291 C2275 1.429 1_554 S
C2291 C2287 1.429 1_554 S
C2291 C2292 1.523 . S
C2292 C2276 1.368 . S
C2292 C2288 1.368 . S
C2292 C2291 1.523 . S
H2293 C2268 0.950 . S
H2294 C2270 0.950 . S
H2295 C2271 0.949 . S
H2296 C2273 0.950 . S
H2297 C2275 0.950 1_554 S
C2298 C2299 1.349 . S
C2298 C2300 1.327 . S
C2298 H2323 0.950 . S
C2299 C2298 1.349 . S
C2299 C2315 1.349 . S
C2300 C2298 1.327 . S
C2300 C2319 1.429 . S
C2300 H2324 0.950 . S
C2301 C2318 1.574 . S
C2301 C2320 1.368 . S
C2301 H2325 0.949 . S
H2302 C2306 0.949 . S
C2303 C2304 1.349 . S
C2303 C2305 1.327 . S
C2303 H2326 0.950 . S
C2304 C2303 1.349 . S
C2304 C2316 1.349 . S
C2305 C2303 1.327 . S
C2305 C2321 1.429 1_556 S
C2305 H2327 0.950 . S
C2306 H2302 0.949 . S
C2306 C2314 1.574 . S
C2306 C2322 1.368 . S
H2307 C2315 0.950 . S
H2308 C2313 0.950 . S
H2309 C2314 0.949 . S
H2310 C2316 0.950 . S
H2311 C2317 0.950 . S
H2312 C2318 0.949 . S
C2313 H2308 0.950 . S
C2313 C2315 1.327 . S
C2313 C2319 1.429 . S
C2314 C2306 1.574 . S
C2314 H2309 0.949 . S
C2314 C2320 1.368 . S
C2315 C2299 1.349 . S
C2315 H2307 0.950 . S
C2315 C2313 1.327 . S
C2316 C2304 1.349 . S
C2316 H2310 0.950 . S
C2316 C2317 1.327 . S
C2317 H2311 0.950 . S
C2317 C2316 1.327 . S
C2317 C2321 1.429 1_556 S
C2318 C2301 1.574 . S
C2318 H2312 0.949 . S
C2318 C2322 1.368 . S
C2319 C2300 1.429 . S
C2319 C2313 1.429 . S
C2319 C2320 1.523 . S
C2320 C2301 1.368 . S
C2320 C2314 1.368 . S
C2320 C2319 1.523 . S
C2321 C2305 1.429 1_554 S
C2321 C2317 1.429 1_554 S
C2321 C2322 1.523 . S
C2322 C2306 1.368 . S
C2322 C2318 1.368 . S
C2322 C2321 1.523 . S
H2323 C2298 0.950 . S
H2324 C2300 0.950 . S
H2325 C2301 0.949 . S
H2326 C2303 0.950 . S
H2327 C2305 0.950 . S
C2328 C2329 1.349 . S
C2328 C2330 1.327 . S
C2328 H2353 0.950 . S
C2329 C2328 1.349 . S
C2329 C2345 1.349 . S
C2330 C2328 1.327 . S
C2330 C2349 1.429 . S
C2330 H2354 0.950 . S
C2331 C2348 1.574 . S
C2331 C2350 1.368 . S
C2331 H2355 0.949 . S
H2332 C2336 0.949 . S
C2333 C2334 1.349 . S
C2333 C2335 1.327 . S
C2333 H2356 0.950 . S
C2334 C2333 1.349 . S
C2334 C2346 1.349 . S
C2335 C2333 1.327 . S
C2335 C2351 1.429 1_556 S
C2335 H2357 0.950 . S
C2336 H2332 0.949 . S
C2336 C2344 1.574 . S
C2336 C2352 1.368 . S
H2337 C2345 0.950 . S
H2338 C2343 0.950 . S
H2339 C2344 0.949 . S
H2340 C2346 0.950 . S
H2341 C2347 0.950 . S
H2342 C2348 0.949 . S
C2343 H2338 0.950 . S
C2343 C2345 1.327 . S
C2343 C2349 1.429 . S
C2344 C2336 1.574 . S
C2344 H2339 0.949 . S
C2344 C2350 1.368 . S
C2345 C2329 1.349 . S
C2345 H2337 0.950 . S
C2345 C2343 1.327 . S
C2346 C2334 1.349 . S
C2346 H2340 0.950 . S
C2346 C2347 1.327 . S
C2347 H2341 0.950 . S
C2347 C2346 1.327 . S
C2347 C2351 1.429 1_556 S
C2348 C2331 1.574 . S
C2348 H2342 0.949 . S
C2348 C2352 1.368 . S
C2349 C2330 1.429 . S
C2349 C2343 1.429 . S
C2349 C2350 1.523 . S
C2350 C2331 1.368 . S
C2350 C2344 1.368 . S
C2350 C2349 1.523 . S
C2351 C2335 1.429 1_554 S
C2351 C2347 1.429 1_554 S
C2351 C2352 1.523 . S
C2352 C2336 1.368 . S
C2352 C2348 1.368 . S
C2352 C2351 1.523 . S
H2353 C2328 0.950 . S
H2354 C2330 0.950 . S
H2355 C2331 0.949 . S
H2356 C2333 0.950 . S
H2357 C2335 0.950 . S
C2358 C2359 1.349 . S
C2358 C2360 1.327 . S
C2358 H2383 0.950 . S
C2359 C2358 1.349 . S
C2359 C2375 1.349 . S
C2360 C2358 1.327 . S
C2360 C2379 1.429 . S
C2360 H2384 0.950 . S
C2361 C2378 1.574 . S
C2361 C2380 1.368 . S
C2361 H2385 0.949 . S
H2362 C2366 0.949 . S
C2363 C2364 1.349 . S
C2363 C2365 1.327 . S
C2363 H2386 0.950 . S
C2364 C2363 1.349 . S
C2364 C2376 1.349 . S
C2365 C2363 1.327 . S
C2365 C2381 1.429 . S
C2365 H2387 0.950 . S
C2366 H2362 0.949 . S
C2366 C2374 1.574 . S
C2366 C2382 1.368 . S
H2367 C2375 0.950 . S
H2368 C2373 0.950 . S
H2369 C2374 0.949 . S
H2370 C2376 0.950 . S
H2371 C2377 0.950 . S
H2372 C2378 0.949 . S
C2373 H2368 0.950 . S
C2373 C2375 1.327 . S
C2373 C2379 1.429 . S
C2374 C2366 1.574 . S
C2374 H2369 0.949 . S
C2374 C2380 1.368 . S
C2375 C2359 1.349 . S
C2375 H2367 0.950 . S
C2375 C2373 1.327 . S
C2376 C2364 1.349 . S
C2376 H2370 0.950 . S
C2376 C2377 1.327 . S
C2377 H2371 0.950 . S
C2377 C2376 1.327 . S
C2377 C2381 1.429 . S
C2378 C2361 1.574 . S
C2378 H2372 0.949 . S
C2378 C2382 1.368 . S
C2379 C2360 1.429 . S
C2379 C2373 1.429 . S
C2379 C2380 1.523 . S
C2380 C2361 1.368 . S
C2380 C2374 1.368 . S
C2380 C2379 1.523 . S
C2381 C2365 1.429 . S
C2381 C2377 1.429 . S
C2381 C2382 1.523 . S
C2382 C2366 1.368 . S
C2382 C2378 1.368 . S
C2382 C2381 1.523 . S
H2383 C2358 0.950 . S
H2384 C2360 0.950 . S
H2385 C2361 0.949 . S
H2386 C2363 0.950 . S
H2387 C2365 0.950 . S
C2388 C2389 1.349 . S
C2388 C2390 1.327 . S
C2388 H2413 0.950 . S
C2389 C2388 1.349 . S
C2389 C2405 1.349 . S
C2390 C2388 1.327 . S
C2390 C2409 1.429 . S
C2390 H2414 0.950 . S
C2391 C2408 1.574 . S
C2391 C2410 1.368 . S
C2391 H2415 0.949 . S
H2392 C2396 0.949 . S
C2393 C2394 1.349 . S
C2393 C2395 1.327 . S
C2393 H2416 0.950 . S
C2394 C2393 1.349 . S
C2394 C2406 1.349 . S
C2395 C2393 1.327 . S
C2395 C2411 1.429 . S
C2395 H2417 0.950 . S
C2396 H2392 0.949 . S
C2396 C2404 1.574 . S
C2396 C2412 1.368 . S
H2397 C2405 0.950 . S
H2398 C2403 0.950 . S
H2399 C2404 0.949 . S
H2400 C2406 0.950 . S
H2401 C2407 0.950 . S
H2402 C2408 0.949 . S
C2403 H2398 0.950 . S
C2403 C2405 1.327 . S
C2403 C2409 1.429 . S
C2404 C2396 1.574 . S
C2404 H2399 0.949 . S
C2404 C2410 1.368 . S
C2405 C2389 1.349 . S
C2405 H2397 0.950 . S
C2405 C2403 1.327 . S
C2406 C2394 1.349 . S
C2406 H2400 0.950 . S
C2406 C2407 1.327 . S
C2407 H2401 0.950 . S
C2407 C2406 1.327 . S
C2407 C2411 1.429 . S
C2408 C2391 1.574 . S
C2408 H2402 0.949 . S
C2408 C2412 1.368 . S
C2409 C2390 1.429 . S
C2409 C2403 1.429 . S
C2409 C2410 1.523 . S
C2410 C2391 1.368 . S
C2410 C2404 1.368 . S
C2410 C2409 1.523 . S
C2411 C2395 1.429 . S
C2411 C2407 1.429 . S
C2411 C2412 1.523 . S
C2412 C2396 1.368 . S
C2412 C2408 1.368 . S
C2412 C2411 1.523 . S
H2413 C2388 0.950 . S
H2414 C2390 0.950 . S
H2415 C2391 0.949 . S
H2416 C2393 0.950 . S
H2417 C2395 0.950 . S
C2418 C2419 1.349 . S
C2418 C2420 1.327 . S
C2418 H2443 0.950 . S
C2419 C2418 1.349 . S
C2419 C2435 1.349 . S
C2420 C2418 1.327 . S
C2420 C2439 1.429 . S
C2420 H2444 0.950 . S
C2421 C2438 1.574 . S
C2421 C2440 1.368 . S
C2421 H2445 0.949 . S
H2422 C2426 0.949 . S
C2423 C2424 1.349 . S
C2423 C2425 1.327 . S
C2423 H2446 0.950 . S
C2424 C2423 1.349 . S
C2424 C2436 1.349 . S
C2425 C2423 1.327 . S
C2425 C2441 1.429 . S
C2425 H2447 0.950 . S
C2426 H2422 0.949 . S
C2426 C2434 1.574 . S
C2426 C2442 1.368 . S
H2427 C2435 0.950 . S
H2428 C2433 0.950 . S
H2429 C2434 0.949 . S
H2430 C2436 0.950 . S
H2431 C2437 0.950 . S
H2432 C2438 0.949 . S
C2433 H2428 0.950 . S
C2433 C2435 1.327 . S
C2433 C2439 1.429 . S
C2434 C2426 1.574 . S
C2434 H2429 0.949 . S
C2434 C2440 1.368 . S
C2435 C2419 1.349 . S
C2435 H2427 0.950 . S
C2435 C2433 1.327 . S
C2436 C2424 1.349 . S
C2436 H2430 0.950 . S
C2436 C2437 1.327 . S
C2437 H2431 0.950 . S
C2437 C2436 1.327 . S
C2437 C2441 1.429 . S
C2438 C2421 1.574 . S
C2438 H2432 0.949 . S
C2438 C2442 1.368 . S
C2439 C2420 1.429 . S
C2439 C2433 1.429 . S
C2439 C2440 1.523 . S
C2440 C2421 1.368 . S
C2440 C2434 1.368 . S
C2440 C2439 1.523 . S
C2441 C2425 1.429 . S
C2441 C2437 1.429 . S
C2441 C2442 1.523 . S
C2442 C2426 1.368 . S
C2442 C2438 1.368 . S
C2442 C2441 1.523 . S
H2443 C2418 0.950 . S
H2444 C2420 0.950 . S
H2445 C2421 0.949 . S
H2446 C2423 0.950 . S
H2447 C2425 0.950 . S
C2448 C2449 1.349 . S
C2448 C2450 1.327 . S
C2448 H2473 0.950 . S
C2449 C2448 1.349 . S
C2449 C2465 1.349 . S
C2450 C2448 1.327 . S
C2450 C2469 1.429 . S
C2450 H2474 0.950 . S
C2451 C2468 1.574 . S
C2451 C2470 1.368 . S
C2451 H2475 0.949 . S
H2452 C2456 0.949 . S
C2453 C2454 1.349 . S
C2453 C2455 1.327 . S
C2453 H2476 0.950 . S
C2454 C2453 1.349 . S
C2454 C2466 1.349 . S
C2455 C2453 1.327 . S
C2455 C2471 1.429 . S
C2455 H2477 0.950 . S
C2456 H2452 0.949 . S
C2456 C2464 1.574 . S
C2456 C2472 1.368 . S
H2457 C2465 0.950 . S
H2458 C2463 0.950 . S
H2459 C2464 0.949 . S
H2460 C2466 0.950 . S
H2461 C2467 0.950 . S
H2462 C2468 0.949 . S
C2463 H2458 0.950 . S
C2463 C2465 1.327 . S
C2463 C2469 1.429 . S
C2464 C2456 1.574 . S
C2464 H2459 0.949 . S
C2464 C2470 1.368 . S
C2465 C2449 1.349 . S
C2465 H2457 0.950 . S
C2465 C2463 1.327 . S
C2466 C2454 1.349 . S
C2466 H2460 0.950 . S
C2466 C2467 1.327 . S
C2467 H2461 0.950 . S
C2467 C2466 1.327 . S
C2467 C2471 1.429 . S
C2468 C2451 1.574 . S
C2468 H2462 0.949 . S
C2468 C2472 1.368 . S
C2469 C2450 1.429 . S
C2469 C2463 1.429 . S
C2469 C2470 1.523 . S
C2470 C2451 1.368 . S
C2470 C2464 1.368 . S
C2470 C2469 1.523 . S
C2471 C2455 1.429 . S
C2471 C2467 1.429 . S
C2471 C2472 1.523 . S
C2472 C2456 1.368 . S
C2472 C2468 1.368 . S
C2472 C2471 1.523 . S
H2473 C2448 0.950 . S
H2474 C2450 0.950 . S
H2475 C2451 0.949 . S
H2476 C2453 0.950 . S
H2477 C2455 0.950 . S
C2478 C2479 1.349 . S
C2478 C2480 1.327 . S
C2478 H2503 0.950 . S
C2479 C2478 1.349 . S
C2479 C2495 1.349 . S
C2480 C2478 1.327 . S
C2480 C2499 1.429 . S
C2480 H2504 0.950 . S
C2481 C2498 1.574 . S
C2481 C2500 1.368 . S
C2481 H2505 0.949 . S
H2482 C2486 0.949 . S
C2483 C2484 1.349 . S
C2483 C2485 1.327 . S
C2483 H2506 0.950 . S
C2484 C2483 1.349 . S
C2484 C2496 1.349 . S
C2485 C2483 1.327 . S
C2485 C2501 1.429 . S
C2485 H2507 0.950 . S
C2486 H2482 0.949 . S
C2486 C2494 1.574 . S
C2486 C2502 1.368 . S
H2487 C2495 0.950 . S
H2488 C2493 0.950 . S
H2489 C2494 0.949 . S
H2490 C2496 0.950 . S
H2491 C2497 0.950 . S
H2492 C2498 0.949 . S
C2493 H2488 0.950 . S
C2493 C2495 1.327 . S
C2493 C2499 1.429 . S
C2494 C2486 1.574 . S
C2494 H2489 0.949 . S
C2494 C2500 1.368 . S
C2495 C2479 1.349 . S
C2495 H2487 0.950 . S
C2495 C2493 1.327 . S
C2496 C2484 1.349 . S
C2496 H2490 0.950 . S
C2496 C2497 1.327 . S
C2497 H2491 0.950 . S
C2497 C2496 1.327 . S
C2497 C2501 1.429 . S
C2498 C2481 1.574 . S
C2498 H2492 0.949 . S
C2498 C2502 1.368 . S
C2499 C2480 1.429 . S
C2499 C2493 1.429 . S
C2499 C2500 1.523 . S
C2500 C2481 1.368 . S
C2500 C2494 1.368 . S
C2500 C2499 1.523 . S
C2501 C2485 1.429 . S
C2501 C2497 1.429 . S
C2501 C2502 1.523 . S
C2502 C2486 1.368 . S
C2502 C2498 1.368 . S
C2502 C2501 1.523 . S
H2503 C2478 0.950 . S
H2504 C2480 0.950 . S
H2505 C2481 0.949 . S
H2506 C2483 0.950 . S
H2507 C2485 0.950 . S
C2508 C2509 1.349 . S
C2508 C2510 1.327 . S
C2508 H2533 0.950 . S
C2509 C2508 1.349 . S
C2509 C2525 1.349 . S
C2510 C2508 1.327 . S
C2510 C2529 1.429 . S
C2510 H2534 0.950 . S
C2511 C2528 1.574 . S
C2511 C2530 1.368 . S
C2511 H2535 0.949 . S
H2512 C2516 0.930 1_545 S
C2513 C2514 1.349 . S
C2513 C2515 1.327 . S
C2513 H2536 0.950 . S
C2514 C2513 1.349 . S
C2514 C2526 1.349 . S
C2515 C2513 1.327 . S
C2515 C2531 1.429 . S
C2515 H2537 0.950 . S
C2516 H2512 0.930 1_565 S
C2516 C2524 1.574 . S
C2516 C2532 1.368 . S
H2517 C2525 0.950 . S
H2518 C2523 0.950 . S
H2519 C2524 0.984 . S
H2520 C2526 0.950 1_545 S
H2521 C2527 0.950 1_545 S
H2522 C2528 0.949 . S
C2523 H2518 0.950 . S
C2523 C2525 1.327 . S
C2523 C2529 1.429 . S
C2524 C2516 1.574 . S
C2524 H2519 0.984 . S
C2524 C2530 1.368 . S
C2525 C2509 1.349 . S
C2525 H2517 0.950 . S
C2525 C2523 1.327 . S
C2526 C2514 1.349 . S
C2526 H2520 0.950 1_565 S
C2526 C2527 1.327 . S
C2527 H2521 0.950 1_565 S
C2527 C2526 1.327 . S
C2527 C2531 1.429 . S
C2528 C2511 1.574 . S
C2528 H2522 0.949 . S
C2528 C2532 1.368 . S
C2529 C2510 1.429 . S
C2529 C2523 1.429 . S
C2529 C2530 1.523 . S
C2530 C2511 1.368 . S
C2530 C2524 1.368 . S
C2530 C2529 1.523 . S
C2531 C2515 1.429 . S
C2531 C2527 1.429 . S
C2531 C2532 1.523 . S
C2532 C2516 1.368 . S
C2532 C2528 1.368 . S
C2532 C2531 1.523 . S
H2533 C2508 0.950 . S
H2534 C2510 0.950 . S
H2535 C2511 0.949 . S
H2536 C2513 0.950 . S
H2537 C2515 0.950 . S
C2538 C2539 1.349 . S
C2538 C2540 1.327 . S
C2538 H2563 0.950 . S
C2539 C2538 1.349 . S
C2539 C2555 1.349 . S
C2540 C2538 1.327 . S
C2540 C2559 1.429 . S
C2540 H2564 0.950 . S
C2541 C2558 1.574 . S
C2541 C2560 1.368 . S
C2541 H2565 0.963 . S
H2542 C2546 0.949 . S
C2543 C2544 1.349 . S
C2543 C2545 1.327 . S
C2543 H2566 0.950 . S
C2544 C2543 1.349 . S
C2544 C2556 1.349 . S
C2545 C2543 1.327 . S
C2545 C2561 1.429 . S
C2545 H2567 0.950 . S
C2546 H2542 0.949 . S
C2546 C2554 1.574 . S
C2546 C2562 1.368 . S
H2547 C2555 0.950 1_565 S
H2548 C2553 0.938 1_565 S
H2549 C2554 0.949 . S
H2550 C2556 0.950 . S
H2551 C2557 0.950 . S
H2552 C2558 0.949 . S
C2553 H2548 0.938 1_545 S
C2553 C2555 1.327 . S
C2553 C2559 1.429 . S
C2554 C2546 1.574 . S
C2554 H2549 0.949 . S
C2554 C2560 1.368 . S
C2555 C2539 1.349 . S
C2555 H2547 0.950 1_545 S
C2555 C2553 1.327 . S
C2556 C2544 1.349 . S
C2556 H2550 0.950 . S
C2556 C2557 1.327 . S
C2557 H2551 0.950 . S
C2557 C2556 1.327 . S
C2557 C2561 1.429 . S
C2558 C2541 1.574 . S
C2558 H2552 0.949 . S
C2558 C2562 1.368 . S
C2559 C2540 1.429 . S
C2559 C2553 1.429 . S
C2559 C2560 1.523 . S
C2560 C2541 1.368 . S
C2560 C2554 1.368 . S
C2560 C2559 1.523 . S
C2561 C2545 1.429 . S
C2561 C2557 1.429 . S
C2561 C2562 1.523 . S
C2562 C2546 1.368 . S
C2562 C2558 1.368 . S
C2562 C2561 1.523 . S
H2563 C2538 0.950 . S
H2564 C2540 0.950 . S
H2565 C2541 0.963 . S
H2566 C2543 0.950 . S
H2567 C2545 0.950 . S
C2568 C2569 1.349 . S
C2568 C2570 1.327 . S
C2568 H2593 0.950 . S
C2569 C2568 1.349 . S
C2569 C2585 1.349 . S
C2570 C2568 1.327 . S
C2570 C2589 1.429 . S
C2570 H2594 0.950 . S
C2571 C2588 1.574 . S
C2571 C2590 1.368 . S
C2571 H2595 0.949 . S
H2572 C2576 0.949 . S
C2573 C2574 1.349 . S
C2573 C2575 1.327 . S
C2573 H2596 0.950 . S
C2574 C2573 1.349 . S
C2574 C2586 1.349 . S
C2575 C2573 1.327 . S
C2575 C2591 1.429 . S
C2575 H2597 0.950 . S
C2576 H2572 0.949 . S
C2576 C2584 1.574 . S
C2576 C2592 1.368 . S
H2577 C2585 0.950 . S
H2578 C2583 0.950 . S
H2579 C2584 0.949 . S
H2580 C2586 0.950 . S
H2581 C2587 0.950 . S
H2582 C2588 0.949 . S
C2583 H2578 0.950 . S
C2583 C2585 1.327 . S
C2583 C2589 1.429 . S
C2584 C2576 1.574 . S
C2584 H2579 0.949 . S
C2584 C2590 1.368 . S
C2585 C2569 1.349 . S
C2585 H2577 0.950 . S
C2585 C2583 1.327 . S
C2586 C2574 1.349 . S
C2586 H2580 0.950 . S
C2586 C2587 1.327 . S
C2587 H2581 0.950 . S
C2587 C2586 1.327 . S
C2587 C2591 1.429 . S
C2588 C2571 1.574 . S
C2588 H2582 0.949 . S
C2588 C2592 1.368 . S
C2589 C2570 1.429 . S
C2589 C2583 1.429 . S
C2589 C2590 1.523 . S
C2590 C2571 1.368 . S
C2590 C2584 1.368 . S
C2590 C2589 1.523 . S
C2591 C2575 1.429 . S
C2591 C2587 1.429 . S
C2591 C2592 1.523 . S
C2592 C2576 1.368 . S
C2592 C2588 1.368 . S
C2592 C2591 1.523 . S
H2593 C2568 0.950 . S
H2594 C2570 0.950 . S
H2595 C2571 0.949 . S
H2596 C2573 0.950 . S
H2597 C2575 0.950 . S
C2598 C2599 1.349 . S
C2598 C2600 1.327 . S
C2598 H2623 0.950 . S
C2599 C2598 1.349 . S
C2599 C2615 1.349 . S
C2600 C2598 1.327 . S
C2600 C2619 1.429 . S
C2600 H2624 0.950 . S
C2601 C2618 1.574 . S
C2601 C2620 1.368 . S
C2601 H2625 0.949 . S
H2602 C2606 0.949 . S
C2603 C2604 1.349 . S
C2603 C2605 1.327 . S
C2603 H2626 0.950 . S
C2604 C2603 1.349 . S
C2604 C2616 1.349 . S
C2605 C2603 1.327 . S
C2605 C2621 1.429 . S
C2605 H2627 0.950 . S
C2606 H2602 0.949 . S
C2606 C2614 1.574 . S
C2606 C2622 1.368 . S
H2607 C2615 0.950 . S
H2608 C2613 0.950 . S
H2609 C2614 0.949 . S
H2610 C2616 0.950 . S
H2611 C2617 0.950 . S
H2612 C2618 0.949 . S
C2613 H2608 0.950 . S
C2613 C2615 1.327 . S
C2613 C2619 1.429 . S
C2614 C2606 1.574 . S
C2614 H2609 0.949 . S
C2614 C2620 1.368 . S
C2615 C2599 1.349 . S
C2615 H2607 0.950 . S
C2615 C2613 1.327 . S
C2616 C2604 1.349 . S
C2616 H2610 0.950 . S
C2616 C2617 1.327 . S
C2617 H2611 0.950 . S
C2617 C2616 1.327 . S
C2617 C2621 1.429 . S
C2618 C2601 1.574 . S
C2618 H2612 0.949 . S
C2618 C2622 1.368 . S
C2619 C2600 1.429 . S
C2619 C2613 1.429 . S
C2619 C2620 1.523 . S
C2620 C2601 1.368 . S
C2620 C2614 1.368 . S
C2620 C2619 1.523 . S
C2621 C2605 1.429 . S
C2621 C2617 1.429 . S
C2621 C2622 1.523 . S
C2622 C2606 1.368 . S
C2622 C2618 1.368 . S
C2622 C2621 1.523 . S
H2623 C2598 0.950 . S
H2624 C2600 0.950 . S
H2625 C2601 0.949 . S
H2626 C2603 0.950 . S
H2627 C2605 0.950 . S
C469 C212 1.628 . S
C474 C10 1.622 . S
C499 C225 1.586 . S
C504 C17 1.586 . S
C529 C205 1.604 . S
C534 C30 1.610 . S
C559 C342 1.590 . S
C564 C43 1.586 . S
C589 C62 1.587 . S
C594 C322 1.581 . S
C619 C75 1.560 . S
C624 C329 1.559 . S
C649 C88 1.622 . S
C654 C452 1.628 . S
C679 C459 1.586 . S
C684 C95 1.586 . S
C709 C439 1.604 . S
C714 C108 1.610 . S
C739 C121 1.586 . S
C744 C270 1.590 . S
C769 C244 1.581 . S
C774 C134 1.587 . S
C799 C153 1.560 . S
C804 C257 1.559 . S
C829 C374 1.521 . S
C834 C166 1.515 . S
C859 C179 1.478 . S
C864 C381 1.477 . S
C889 C361 1.478 . S
C894 C192 1.478 . S
C919 C420 1.479 . S
C924 C283 1.477 . S
C949 C394 1.516 . S
C954 C290 1.520 . S
C979 C309 1.481 . S
C984 C413 1.474 . S
C1009 C238 1.254 . S
C1014 C4 1.255 . S
C1039 C251 1.399 . S
C1044 C23 1.398 . S
C1069 C264 1.596 . S
C1074 C36 1.604 . S
C1099 C49 1.262 . S
C1104 C433 1.262 . S
C1129 C56 1.640 . S
C1134 C446 1.641 . S
C1159 C69 1.403 . S
C1164 C465 1.407 . S
C1189 C82 1.255 . S
C1194 C316 1.254 . S
C1219 C335 1.399 . S
C1224 C101 1.398 . S
C1249 C348 1.596 . S
C1254 C114 1.604 . S
C1279 C199 1.262 . S
C1284 C127 1.263 . S
C1309 C140 1.640 . S
C1314 C218 1.641 . S
C1339 C147 1.403 . S
C1344 C231 1.407 . S
C1369 C160 1.257 . S
C1374 C400 1.267 . S
C1399 C407 1.375 . S
C1404 C173 1.375 . S
C1429 C426 1.464 . S
C1434 C186 1.464 . S
C1459 C355 1.317 . S
C1464 C277 1.327 . S
C1489 C296 1.549 . S
C1494 C368 1.549 . S
C1519 C303 1.436 . S
C1524 C387 1.436 . S
C1549 C356 1.439 . S
C1554 C5 1.435 . S
C1579 C16 1.306 . S
C1584 C369 1.276 . S
C1609 C29 1.254 . S
C1614 C380 1.288 . S
C1639 C161 1.406 . S
C1644 C42 1.400 . S
C1669 C57 1.286 . S
C1674 C174 1.333 . S
C1699 C70 1.240 . S
C1704 C187 1.219 . S
C1729 C278 1.439 . S
C1734 C83 1.435 . S
C1759 C94 1.306 . S
C1764 C289 1.276 . S
C1789 C304 1.287 . S
C1794 C107 1.255 . S
C1819 C120 1.409 . S
C1824 C393 1.396 . S
C1849 C408 1.333 . S
C1854 C133 1.286 . S
C1879 C419 1.219 . S
C1884 C148 1.240 . S
C1909 C317 1.457 . S
C1914 C200 1.457 . S
C1939 C328 1.354 . S
C1944 C211 1.310 . S
C1969 C341 1.307 . S
C1974 C224 1.352 . S
C1999 C239 1.457 . S
C2004 C434 1.457 . S
C2029 C447 1.310 . S
C2034 C252 1.354 . S
C2059 C458 1.352 . S
C2064 C265 1.307 . S
C2089 C3 0.742 . S
C2094 C213 0.742 . S
C2119 C18 0.720 . S
C2124 C226 0.720 . S
C2149 C31 0.733 . S
C2154 C198 0.733 . S
C2179 C343 0.786 . S
C2184 C44 0.786 . S
C2209 C315 0.768 . S
C2214 C55 0.768 . S
C2239 C330 0.759 . S
C2244 C68 0.759 . S
C2269 C445 0.742 . S
C2274 C81 0.742 . S
C2299 C460 0.720 . S
C2304 C96 0.720 . S
C2329 C432 0.733 . S
C2334 C109 0.733 . S
C2359 C122 0.786 . S
C2364 C263 0.786 . S
C2389 C135 0.768 . S
C2394 C237 0.768 . S
C2419 C146 0.759 . S
C2424 C250 0.759 . S
C2449 C367 0.831 . S
C2454 C159 0.838 . S
C2479 C382 0.824 . S
C2484 C172 0.828 . S
C2509 C185 0.858 . S
C2514 C354 0.863 . S
C2539 C276 0.856 . S
C2544 C421 0.866 . S
C2569 C395 0.831 . S
C2574 C291 0.840 . S
C2599 C406 0.825 . S
C2604 C302 0.827 . S
