# Generated by pormake.
# Topology dei, (4)-cn, num edge types: 1
# Building blocks:
#     Node 0, Type 0, BuildingBlock: CEKHIL_clean_sbu_0, # of connection points: 4
#     Node 1, Type 0, BuildingBlock: CEKHIL_clean_sbu_0, # of connection points: 4
#     Node 2, Type 0, BuildingBlock: CEKHIL_clean_sbu_0, # of connection points: 4
#     Node 3, Type 0, BuildingBlock: CEKHIL_clean_sbu_0, # of connection points: 4
#     Node 4, Type 0, BuildingBlock: CEKHIL_clean_sbu_0, # of connection points: 4
#     Node 5, Type 0, BuildingBlock: CEKHIL_clean_sbu_0, # of connection points: 4
#     Node 6, Type 0, BuildingBlock: CEKHIL_clean_sbu_0, # of connection points: 4
#     Node 7, Type 0, BuildingBlock: CEKHIL_clean_sbu_0, # of connection points: 4
#     Node 8, Type 0, BuildingBlock: CEKHIL_clean_sbu_0, # of connection points: 4
#     Node 9, Type 0, BuildingBlock: CEKHIL_clean_sbu_0, # of connection points: 4
#     Node 10, Type 0, BuildingBlock: CEKHIL_clean_sbu_0, # of connection points: 4
#     Node 11, Type 0, BuildingBlock: CEKHIL_clean_sbu_0, # of connection points: 4
#     Node 12, Type 0, BuildingBlock: CEKHIL_clean_sbu_0, # of connection points: 4
#     Node 13, Type 0, BuildingBlock: CEKHIL_clean_sbu_0, # of connection points: 4
#     Node 14, Type 0, BuildingBlock: CEKHIL_clean_sbu_0, # of connection points: 4
#     Node 15, Type 0, BuildingBlock: CEKHIL_clean_sbu_0, # of connection points: 4
#     Node 16, Type 0, BuildingBlock: CEKHIL_clean_sbu_0, # of connection points: 4
#     Node 17, Type 0, BuildingBlock: CEKHIL_clean_sbu_0, # of connection points: 4
#     Node 18, Type 0, BuildingBlock: CEKHIL_clean_sbu_0, # of connection points: 4
#     Node 19, Type 0, BuildingBlock: CEKHIL_clean_sbu_0, # of connection points: 4
#     Node 20, Type 0, BuildingBlock: CEKHIL_clean_sbu_0, # of connection points: 4
#     Node 21, Type 0, BuildingBlock: CEKHIL_clean_sbu_0, # of connection points: 4
#     Node 22, Type 0, BuildingBlock: CEKHIL_clean_sbu_0, # of connection points: 4
#     Node 23, Type 0, BuildingBlock: CEKHIL_clean_sbu_0, # of connection points: 4
#     Node 24, Type 0, BuildingBlock: CEKHIL_clean_sbu_0, # of connection points: 4
#     Node 25, Type 0, BuildingBlock: CEKHIL_clean_sbu_0, # of connection points: 4
#     Node 26, Type 0, BuildingBlock: CEKHIL_clean_sbu_0, # of connection points: 4
#     Node 27, Type 0, BuildingBlock: CEKHIL_clean_sbu_0, # of connection points: 4
#     Node 28, Type 0, BuildingBlock: CEKHIL_clean_sbu_0, # of connection points: 4
#     Node 29, Type 0, BuildingBlock: CEKHIL_clean_sbu_0, # of connection points: 4
#     Node 30, Type 0, BuildingBlock: CEKHIL_clean_sbu_0, # of connection points: 4
#     Node 31, Type 0, BuildingBlock: CEKHIL_clean_sbu_0, # of connection points: 4
#     Edge 32, Type (0, 0), BuildingBlock: ZUJKAS_clean_linker_0, # of connection points: 2
#     Edge 33, Type (0, 0), BuildingBlock: ZUJKAS_clean_linker_0, # of connection points: 2
#     Edge 34, Type (0, 0), BuildingBlock: ZUJKAS_clean_linker_0, # of connection points: 2
#     Edge 35, Type (0, 0), BuildingBlock: ZUJKAS_clean_linker_0, # of connection points: 2
#     Edge 36, Type (0, 0), BuildingBlock: ZUJKAS_clean_linker_0, # of connection points: 2
#     Edge 37, Type (0, 0), BuildingBlock: ZUJKAS_clean_linker_0, # of connection points: 2
#     Edge 38, Type (0, 0), BuildingBlock: ZUJKAS_clean_linker_0, # of connection points: 2
#     Edge 39, Type (0, 0), BuildingBlock: ZUJKAS_clean_linker_0, # of connection points: 2
#     Edge 40, Type (0, 0), BuildingBlock: ZUJKAS_clean_linker_0, # of connection points: 2
#     Edge 41, Type (0, 0), BuildingBlock: ZUJKAS_clean_linker_0, # of connection points: 2
#     Edge 42, Type (0, 0), BuildingBlock: ZUJKAS_clean_linker_0, # of connection points: 2
#     Edge 43, Type (0, 0), BuildingBlock: ZUJKAS_clean_linker_0, # of connection points: 2
#     Edge 44, Type (0, 0), BuildingBlock: ZUJKAS_clean_linker_0, # of connection points: 2
#     Edge 45, Type (0, 0), BuildingBlock: ZUJKAS_clean_linker_0, # of connection points: 2
#     Edge 46, Type (0, 0), BuildingBlock: ZUJKAS_clean_linker_0, # of connection points: 2
#     Edge 47, Type (0, 0), BuildingBlock: ZUJKAS_clean_linker_0, # of connection points: 2
#     Edge 48, Type (0, 0), BuildingBlock: ZUJKAS_clean_linker_0, # of connection points: 2
#     Edge 49, Type (0, 0), BuildingBlock: ZUJKAS_clean_linker_0, # of connection points: 2
#     Edge 50, Type (0, 0), BuildingBlock: ZUJKAS_clean_linker_0, # of connection points: 2
#     Edge 51, Type (0, 0), BuildingBlock: ZUJKAS_clean_linker_0, # of connection points: 2
#     Edge 52, Type (0, 0), BuildingBlock: ZUJKAS_clean_linker_0, # of connection points: 2
#     Edge 53, Type (0, 0), BuildingBlock: ZUJKAS_clean_linker_0, # of connection points: 2
#     Edge 54, Type (0, 0), BuildingBlock: ZUJKAS_clean_linker_0, # of connection points: 2
#     Edge 55, Type (0, 0), BuildingBlock: ZUJKAS_clean_linker_0, # of connection points: 2
#     Edge 56, Type (0, 0), BuildingBlock: ZUJKAS_clean_linker_0, # of connection points: 2
#     Edge 57, Type (0, 0), BuildingBlock: ZUJKAS_clean_linker_0, # of connection points: 2
#     Edge 58, Type (0, 0), BuildingBlock: ZUJKAS_clean_linker_0, # of connection points: 2
#     Edge 59, Type (0, 0), BuildingBlock: ZUJKAS_clean_linker_0, # of connection points: 2
#     Edge 60, Type (0, 0), BuildingBlock: ZUJKAS_clean_linker_0, # of connection points: 2
#     Edge 61, Type (0, 0), BuildingBlock: ZUJKAS_clean_linker_0, # of connection points: 2
#     Edge 62, Type (0, 0), BuildingBlock: ZUJKAS_clean_linker_0, # of connection points: 2
#     Edge 63, Type (0, 0), BuildingBlock: ZUJKAS_clean_linker_0, # of connection points: 2
#     Edge 64, Type (0, 0), BuildingBlock: ZUJKAS_clean_linker_0, # of connection points: 2
#     Edge 65, Type (0, 0), BuildingBlock: ZUJKAS_clean_linker_0, # of connection points: 2
#     Edge 66, Type (0, 0), BuildingBlock: ZUJKAS_clean_linker_0, # of connection points: 2
#     Edge 67, Type (0, 0), BuildingBlock: ZUJKAS_clean_linker_0, # of connection points: 2
#     Edge 68, Type (0, 0), BuildingBlock: ZUJKAS_clean_linker_0, # of connection points: 2
#     Edge 69, Type (0, 0), BuildingBlock: ZUJKAS_clean_linker_0, # of connection points: 2
#     Edge 70, Type (0, 0), BuildingBlock: ZUJKAS_clean_linker_0, # of connection points: 2
#     Edge 71, Type (0, 0), BuildingBlock: ZUJKAS_clean_linker_0, # of connection points: 2
#     Edge 72, Type (0, 0), BuildingBlock: ZUJKAS_clean_linker_0, # of connection points: 2
#     Edge 73, Type (0, 0), BuildingBlock: ZUJKAS_clean_linker_0, # of connection points: 2
#     Edge 74, Type (0, 0), BuildingBlock: ZUJKAS_clean_linker_0, # of connection points: 2
#     Edge 75, Type (0, 0), BuildingBlock: ZUJKAS_clean_linker_0, # of connection points: 2
#     Edge 76, Type (0, 0), BuildingBlock: ZUJKAS_clean_linker_0, # of connection points: 2
#     Edge 77, Type (0, 0), BuildingBlock: ZUJKAS_clean_linker_0, # of connection points: 2
#     Edge 78, Type (0, 0), BuildingBlock: ZUJKAS_clean_linker_0, # of connection points: 2
#     Edge 79, Type (0, 0), BuildingBlock: ZUJKAS_clean_linker_0, # of connection points: 2
#     Edge 80, Type (0, 0), BuildingBlock: ZUJKAS_clean_linker_0, # of connection points: 2
#     Edge 81, Type (0, 0), BuildingBlock: ZUJKAS_clean_linker_0, # of connection points: 2
#     Edge 82, Type (0, 0), BuildingBlock: ZUJKAS_clean_linker_0, # of connection points: 2
#     Edge 83, Type (0, 0), BuildingBlock: ZUJKAS_clean_linker_0, # of connection points: 2
#     Edge 84, Type (0, 0), BuildingBlock: ZUJKAS_clean_linker_0, # of connection points: 2
#     Edge 85, Type (0, 0), BuildingBlock: ZUJKAS_clean_linker_0, # of connection points: 2
#     Edge 86, Type (0, 0), BuildingBlock: ZUJKAS_clean_linker_0, # of connection points: 2
#     Edge 87, Type (0, 0), BuildingBlock: ZUJKAS_clean_linker_0, # of connection points: 2
#     Edge 88, Type (0, 0), BuildingBlock: ZUJKAS_clean_linker_0, # of connection points: 2
#     Edge 89, Type (0, 0), BuildingBlock: ZUJKAS_clean_linker_0, # of connection points: 2
#     Edge 90, Type (0, 0), BuildingBlock: ZUJKAS_clean_linker_0, # of connection points: 2
#     Edge 91, Type (0, 0), BuildingBlock: ZUJKAS_clean_linker_0, # of connection points: 2
#     Edge 92, Type (0, 0), BuildingBlock: ZUJKAS_clean_linker_0, # of connection points: 2
#     Edge 93, Type (0, 0), BuildingBlock: ZUJKAS_clean_linker_0, # of connection points: 2
#     Edge 94, Type (0, 0), BuildingBlock: ZUJKAS_clean_linker_0, # of connection points: 2
#     Edge 95, Type (0, 0), BuildingBlock: ZUJKAS_clean_linker_0, # of connection points: 2
# Relax obj value: 0.248
# Max RMSD: 0.066
# Mean RMSD: 0.066
data_MOF--net-dei--node1-CEKHIL_clean_sbu_0--edge1-ZUJKAS_clean_linker_0
_symmetry_space_group_name_H-M    P1
_symmetry_Int_Tables_number       1
_symmetry_cell_setting            triclinic
loop_
_symmetry_equiv_pos_as_xyz
'x, y, z'
_cell_length_a     75.040081
_cell_length_b     75.06218
_cell_length_c     96.988771
_cell_angle_alpha  89.998842
_cell_angle_beta   90.003503
_cell_angle_gamma 90.000176
loop_
_atom_site_label
_atom_site_type_symbol
_atom_site_fract_x
_atom_site_fract_y
_atom_site_fract_z
_atom_type_partial_charge
Co0 Co 0.12515 0.61988 0.02935 0.0
O1 O 0.12356 0.59463 0.03214 0.0
O2 O 0.13635 0.60711 0.01405 0.0
C3 C 0.13363 0.62558 0.05128 0.0
O4 O 0.12968 0.646 0.02369 0.0
Co5 Co 0.09999 0.64434 0.04661 0.0
O6 O 0.1133 0.66382 0.03758 0.0
C7 C 0.0856 0.62164 0.02452 0.0
C8 C 0.13199 0.59259 0.02063 0.0
C9 C 0.12459 0.66155 0.02792 0.0
O10 O 0.10136 0.61947 0.01955 0.0
O11 O 0.08262 0.62937 0.03606 0.0
O12 O 0.14544 0.6209 0.04216 0.0
O13 O 0.1174 0.6255 0.04701 0.0
Co14 Co 0.63633 0.87283 0.27728 0.0
O15 O 0.66157 0.87126 0.2801 0.0
O16 O 0.649 0.88702 0.2635 0.0
C17 C 0.63018 0.87699 0.29985 0.0
O18 O 0.61022 0.87793 0.27201 0.0
Co19 Co 0.61216 0.84429 0.29121 0.0
O20 O 0.59248 0.85906 0.28391 0.0
C21 C 0.63587 0.83464 0.26829 0.0
C22 C 0.66354 0.88174 0.26963 0.0
C23 C 0.59471 0.87208 0.27566 0.0
O24 O 0.63742 0.85114 0.26494 0.0
O25 O 0.62816 0.82941 0.27934 0.0
O26 O 0.63455 0.8905 0.29216 0.0
O27 O 0.63076 0.8617 0.29387 0.0
Co28 Co 0.37863 0.38299 0.52998 0.0
O29 O 0.38306 0.40784 0.53305 0.0
O30 O 0.36888 0.39713 0.51487 0.0
C31 C 0.3694 0.37796 0.5518 0.0
O32 O 0.37112 0.35781 0.52388 0.0
Co33 Co 0.39975 0.35468 0.54684 0.0
O34 O 0.38151 0.33819 0.53957 0.0
C35 C 0.41711 0.37344 0.52355 0.0
C36 C 0.3747 0.41097 0.52164 0.0
C37 C 0.37203 0.34199 0.5291 0.0
O38 O 0.40221 0.3807 0.52008 0.0
O39 O 0.41896 0.36378 0.53434 0.0
O40 O 0.35832 0.38413 0.54267 0.0
O41 O 0.38561 0.37609 0.54766 0.0
Co42 Co 0.87369 0.12917 0.77934 0.0
O43 O 0.84882 0.13416 0.78168 0.0
O44 O 0.85984 0.11876 0.76425 0.0
C45 C 0.87741 0.12115 0.80159 0.0
O46 O 0.89915 0.12097 0.77423 0.0
Co47 Co 0.90161 0.1506 0.79628 0.0
O48 O 0.91713 0.13035 0.79135 0.0
C49 C 0.88427 0.16706 0.77195 0.0
C50 C 0.84587 0.12514 0.77055 0.0
C51 C 0.91427 0.12093 0.78066 0.0
O52 O 0.87668 0.15221 0.76881 0.0
O53 O 0.89379 0.16923 0.78279 0.0
O54 O 0.87162 0.10963 0.79266 0.0
O55 O 0.87983 0.13705 0.79695 0.0
Co56 Co 0.12055 0.38253 0.96913 0.0
O57 O 0.11645 0.40763 0.9672 0.0
O58 O 0.1335 0.39581 0.98333 0.0
C59 C 0.12535 0.37877 0.94632 0.0
O60 O 0.12825 0.35674 0.97363 0.0
Co61 Co 0.09623 0.35549 0.95386 0.0
O62 O 0.11642 0.33917 0.95719 0.0
C63 C 0.08354 0.37318 0.97941 0.0
C64 C 0.12696 0.4101 0.97759 0.0
C65 C 0.12709 0.34167 0.9672 0.0
O66 O 0.09885 0.38051 0.98137 0.0
O67 O 0.0798 0.36367 0.96883 0.0
O68 O 0.13835 0.38365 0.95433 0.0
O69 O 0.11008 0.37699 0.95221 0.0
Co70 Co 0.87334 0.87568 0.21813 0.0
O71 O 0.84815 0.87271 0.21581 0.0
O72 O 0.86044 0.88631 0.23362 0.0
C73 C 0.87762 0.88453 0.19613 0.0
O74 O 0.89937 0.88173 0.22321 0.0
Co75 Co 0.89903 0.85261 0.20025 0.0
O76 O 0.91661 0.8707 0.20617 0.0
C77 C 0.87846 0.83638 0.22302 0.0
C78 C 0.84599 0.88134 0.22722 0.0
C79 C 0.91447 0.88037 0.21684 0.0
O80 O 0.87464 0.8519 0.22787 0.0
O81 O 0.88659 0.83403 0.21155 0.0
O82 O 0.87266 0.89601 0.2054 0.0
O83 O 0.87875 0.8683 0.20031 0.0
Co84 Co 0.38104 0.62148 0.46979 0.0
O85 O 0.38585 0.59655 0.46752 0.0
O86 O 0.36956 0.60776 0.48439 0.0
C87 C 0.37442 0.62566 0.44731 0.0
O88 O 0.37275 0.64682 0.47488 0.0
Co89 Co 0.40363 0.64956 0.45403 0.0
O90 O 0.38356 0.66547 0.4587 0.0
C91 C 0.4184 0.63182 0.47883 0.0
C92 C 0.3762 0.59374 0.47836 0.0
C93 C 0.37335 0.66217 0.46886 0.0
O94 O 0.40342 0.62405 0.48119 0.0
O95 O 0.4213 0.64165 0.46826 0.0
O96 O 0.36231 0.61992 0.45579 0.0
O97 O 0.39008 0.6278 0.45252 0.0
Co98 Co 0.63458 0.13109 0.71937 0.0
O99 O 0.65939 0.13663 0.71735 0.0
O100 O 0.64852 0.11988 0.73405 0.0
C101 C 0.6311 0.12442 0.6968 0.0
O102 O 0.60929 0.1222 0.72415 0.0
Co103 Co 0.60636 0.15303 0.7032 0.0
O104 O 0.59078 0.13266 0.70773 0.0
C105 C 0.62331 0.16823 0.72821 0.0
C106 C 0.66242 0.12697 0.72813 0.0
C107 C 0.59402 0.12255 0.71796 0.0
O108 O 0.63119 0.15335 0.73078 0.0
O109 O 0.61381 0.17091 0.71742 0.0
O110 O 0.63691 0.11244 0.70536 0.0
O111 O 0.62843 0.13999 0.70202 0.0
Co112 Co 0.87923 0.38452 0.96992 0.0
O113 O 0.88436 0.40929 0.96722 0.0
O114 O 0.86772 0.39887 0.9842 0.0
C115 C 0.87281 0.37996 0.94745 0.0
O116 O 0.87061 0.35933 0.97525 0.0
Co117 Co 0.9019 0.356 0.95478 0.0
O118 O 0.88145 0.34049 0.95922 0.0
C119 C 0.91635 0.37405 0.97953 0.0
C120 C 0.87453 0.4126 0.97787 0.0
C121 C 0.87113 0.34393 0.96928 0.0
O122 O 0.90139 0.382 0.98156 0.0
O123 O 0.9194 0.36395 0.96914 0.0
O124 O 0.86069 0.386 0.9558 0.0
O125 O 0.88841 0.37774 0.95277 0.0
Co126 Co 0.37276 0.13079 0.71856 0.0
O127 O 0.34802 0.13639 0.7163 0.0
O128 O 0.35857 0.11968 0.73315 0.0
C129 C 0.37636 0.12402 0.69603 0.0
O130 O 0.39798 0.1218 0.7235 0.0
Co131 Co 0.40125 0.15248 0.70246 0.0
O132 O 0.41645 0.13179 0.70688 0.0
C133 C 0.3842 0.16789 0.72736 0.0
C134 C 0.34478 0.12666 0.72701 0.0
C135 C 0.41318 0.12185 0.7172 0.0
O136 O 0.37615 0.1531 0.72992 0.0
O137 O 0.39384 0.17043 0.71663 0.0
O138 O 0.37043 0.1121 0.70459 0.0
O139 O 0.37911 0.13959 0.70122 0.0
Co140 Co 0.62513 0.62167 0.46811 0.0
O141 O 0.62032 0.59678 0.46572 0.0
O142 O 0.63663 0.60776 0.48266 0.0
C143 C 0.63178 0.62571 0.44561 0.0
O144 O 0.63337 0.64711 0.47314 0.0
Co145 Co 0.60255 0.64961 0.45216 0.0
O146 O 0.6229 0.6653 0.45652 0.0
C147 C 0.58765 0.63181 0.47691 0.0
C148 C 0.63008 0.59381 0.47646 0.0
C149 C 0.63297 0.66228 0.46682 0.0
O150 O 0.6027 0.62424 0.47945 0.0
O151 O 0.58481 0.64148 0.46625 0.0
O152 O 0.64391 0.62009 0.45412 0.0
O153 O 0.61613 0.6279 0.45082 0.0
Co154 Co 0.13421 0.87363 0.21863 0.0
O155 O 0.15907 0.8682 0.217 0.0
O156 O 0.14772 0.88474 0.23362 0.0
C157 C 0.13142 0.88054 0.19605 0.0
O158 O 0.10865 0.88224 0.22297 0.0
Co159 Co 0.10678 0.85155 0.20179 0.0
O160 O 0.09113 0.87204 0.20585 0.0
C161 C 0.12265 0.83645 0.22722 0.0
C162 C 0.1618 0.87771 0.2279 0.0
C163 C 0.09369 0.88193 0.21632 0.0
O164 O 0.13061 0.85126 0.22984 0.0
O165 O 0.11339 0.83375 0.21632 0.0
O166 O 0.13689 0.89245 0.2048 0.0
O167 O 0.1287 0.86488 0.2011 0.0
Co168 Co 0.88037 0.62363 0.02749 0.0
O169 O 0.88475 0.5986 0.02934 0.0
O170 O 0.86935 0.61053 0.01228 0.0
C171 C 0.87277 0.62687 0.04988 0.0
O172 O 0.87276 0.64938 0.02287 0.0
Co173 Co 0.90277 0.65043 0.04468 0.0
O174 O 0.88295 0.6667 0.04011 0.0
C175 C 0.9184 0.63341 0.01989 0.0
C176 C 0.87548 0.59623 0.01826 0.0
C177 C 0.87326 0.66434 0.02949 0.0
O178 O 0.90329 0.62635 0.01677 0.0
O179 O 0.921 0.64247 0.0309 0.0
O180 O 0.86096 0.62176 0.04092 0.0
O181 O 0.88868 0.62899 0.04515 0.0
Co182 Co 0.13285 0.13 0.77629 0.0
O183 O 0.15763 0.13558 0.77819 0.0
O184 O 0.14671 0.1188 0.76154 0.0
C185 C 0.12973 0.12332 0.79888 0.0
O186 O 0.10746 0.12117 0.77171 0.0
Co187 Co 0.10498 0.15207 0.7926 0.0
O188 O 0.08949 0.13147 0.78852 0.0
C189 C 0.12181 0.16724 0.76758 0.0
C190 C 0.16062 0.12597 0.76739 0.0
C191 C 0.09238 0.12141 0.77819 0.0
O192 O 0.12942 0.15226 0.76493 0.0
O193 O 0.11244 0.17002 0.77842 0.0
O194 O 0.13532 0.11133 0.79024 0.0
O195 O 0.127 0.13891 0.79371 0.0
Co196 Co 0.62565 0.38437 0.52866 0.0
O197 O 0.62355 0.40969 0.53049 0.0
O198 O 0.63638 0.39637 0.51278 0.0
C199 C 0.63469 0.38055 0.55066 0.0
O200 O 0.63066 0.35796 0.5241 0.0
Co201 Co 0.60176 0.3604 0.54732 0.0
O202 O 0.6188 0.34179 0.54144 0.0
C203 C 0.58611 0.38106 0.5244 0.0
C204 C 0.63191 0.41118 0.5189 0.0
C205 C 0.62856 0.34313 0.53073 0.0
O206 O 0.60168 0.38363 0.51919 0.0
O207 O 0.58361 0.37364 0.53614 0.0
O208 O 0.64622 0.38473 0.5412 0.0
O209 O 0.61837 0.37991 0.54662 0.0
Co210 Co 0.37301 0.87256 0.27938 0.0
O211 O 0.34817 0.86737 0.28166 0.0
O212 O 0.35886 0.88469 0.26525 0.0
C213 C 0.37723 0.87805 0.30205 0.0
O214 O 0.39837 0.88119 0.2745 0.0
Co215 Co 0.40123 0.84932 0.29441 0.0
O216 O 0.41684 0.86994 0.29062 0.0
C217 C 0.38383 0.83593 0.26898 0.0
C218 C 0.34501 0.87758 0.27122 0.0
C219 C 0.41365 0.88048 0.28065 0.0
O220 O 0.37572 0.85087 0.26725 0.0
O221 O 0.39375 0.83253 0.27941 0.0
O222 O 0.37139 0.89054 0.29395 0.0
O223 O 0.37945 0.86268 0.29637 0.0
Co224 Co 0.6242 0.12169 0.52738 0.0
O225 O 0.62015 0.09658 0.52887 0.0
O226 O 0.63613 0.10897 0.51234 0.0
C227 C 0.63086 0.12489 0.54998 0.0
O228 O 0.63121 0.14773 0.52325 0.0
Co229 Co 0.59974 0.14703 0.54442 0.0
O230 O 0.61815 0.1648 0.53954 0.0
C231 C 0.58564 0.12711 0.52051 0.0
C232 C 0.62968 0.09451 0.5179 0.0
C233 C 0.62899 0.16279 0.52954 0.0
O234 O 0.60156 0.12389 0.51627 0.0
O235 O 0.58223 0.13454 0.53211 0.0
O236 O 0.64315 0.12011 0.5413 0.0
O237 O 0.61513 0.12653 0.54484 0.0
Co238 Co 0.13392 0.37083 0.77528 0.0
O239 O 0.15877 0.36514 0.77677 0.0
O240 O 0.14769 0.38392 0.76149 0.0
C241 C 0.1306 0.37465 0.79822 0.0
O242 O 0.10861 0.38018 0.77117 0.0
Co243 Co 0.1057 0.34722 0.7899 0.0
O244 O 0.08983 0.36772 0.78653 0.0
C245 C 0.1226 0.33494 0.76391 0.0
C246 C 0.16165 0.37607 0.76671 0.0
C247 C 0.09323 0.37901 0.77711 0.0
O248 O 0.13064 0.34996 0.76236 0.0
O249 O 0.11299 0.33112 0.77443 0.0
O250 O 0.13613 0.38774 0.79057 0.0
O251 O 0.12797 0.35976 0.79193 0.0
Co252 Co 0.87897 0.8837 0.02855 0.0
O253 O 0.88255 0.90871 0.0313 0.0
O254 O 0.86822 0.89729 0.01347 0.0
C255 C 0.87067 0.87891 0.05062 0.0
O256 O 0.87234 0.85799 0.02308 0.0
Co257 Co 0.90221 0.85715 0.04551 0.0
O258 O 0.88378 0.84 0.0395 0.0
C259 C 0.91803 0.87849 0.02304 0.0
C260 C 0.87375 0.91142 0.02004 0.0
C261 C 0.87377 0.84266 0.02908 0.0
O262 O 0.90243 0.88232 0.0184 0.0
O263 O 0.92063 0.8701 0.03436 0.0
O264 O 0.85902 0.88435 0.04164 0.0
O265 O 0.88676 0.87761 0.04613 0.0
Co266 Co 0.37249 0.63258 0.27741 0.0
O267 O 0.34758 0.63815 0.27822 0.0
O268 O 0.35952 0.62038 0.26263 0.0
C269 C 0.37448 0.62711 0.30028 0.0
O270 O 0.39824 0.62372 0.27401 0.0
Co271 Co 0.39913 0.65588 0.29408 0.0
O272 O 0.41523 0.63553 0.29083 0.0
C273 C 0.38375 0.66944 0.26796 0.0
C274 C 0.34527 0.62791 0.26766 0.0
C275 C 0.41307 0.62479 0.2808 0.0
O276 O 0.37644 0.65426 0.26546 0.0
O277 O 0.39233 0.67288 0.27906 0.0
O278 O 0.36934 0.61465 0.29188 0.0
O279 O 0.3773 0.64244 0.2947 0.0
Co280 Co 0.62081 0.88396 0.47079 0.0
O281 O 0.61542 0.90888 0.46943 0.0
O282 O 0.63434 0.8975 0.48446 0.0
C283 C 0.62418 0.88074 0.44778 0.0
O284 O 0.62995 0.85852 0.47473 0.0
Co285 Co 0.59671 0.85604 0.45628 0.0
O286 O 0.61728 0.8401 0.45922 0.0
C287 C 0.58491 0.8731 0.48236 0.0
C288 C 0.62662 0.91158 0.47935 0.0
C289 C 0.62867 0.84326 0.46862 0.0
O290 O 0.60011 0.88084 0.4839 0.0
O291 O 0.58087 0.86366 0.47181 0.0
O292 O 0.63747 0.88606 0.45531 0.0
O293 O 0.60939 0.87821 0.45424 0.0
Co294 Co 0.37342 0.37357 0.72058 0.0
O295 O 0.34862 0.36758 0.71957 0.0
O296 O 0.36018 0.3853 0.73539 0.0
C297 C 0.37544 0.3794 0.69777 0.0
O298 O 0.39889 0.38286 0.72432 0.0
Co299 Co 0.401 0.35142 0.70404 0.0
O300 O 0.41645 0.37225 0.70739 0.0
C301 C 0.38555 0.33693 0.72985 0.0
C302 C 0.34609 0.37764 0.73021 0.0
C303 C 0.41379 0.38254 0.71762 0.0
O304 O 0.37765 0.35181 0.73234 0.0
O305 O 0.3946 0.33396 0.71889 0.0
O306 O 0.37002 0.39163 0.70627 0.0
O307 O 0.37866 0.36405 0.70321 0.0
Co308 Co 0.87845 0.12293 0.96984 0.0
O309 O 0.88416 0.09823 0.96748 0.0
O310 O 0.86797 0.10873 0.98466 0.0
C311 C 0.87074 0.12673 0.94753 0.0
O312 O 0.86957 0.14807 0.97501 0.0
Co313 Co 0.89971 0.15143 0.95339 0.0
O314 O 0.87952 0.16688 0.95859 0.0
C315 C 0.91597 0.13409 0.9778 0.0
C316 C 0.87498 0.09498 0.97848 0.0
C317 C 0.86973 0.16343 0.96896 0.0
O318 O 0.90113 0.12635 0.98072 0.0
O319 O 0.91827 0.14363 0.96699 0.0
O320 O 0.85923 0.12056 0.95632 0.0
O321 O 0.88654 0.12942 0.95232 0.0
Co322 Co 0.13374 0.62972 0.2201 0.0
O323 O 0.15852 0.6358 0.2187 0.0
O324 O 0.14737 0.61856 0.23499 0.0
C325 C 0.13135 0.62317 0.19743 0.0
O326 O 0.10838 0.62041 0.22427 0.0
Co327 Co 0.10577 0.65115 0.20325 0.0
O328 O 0.09039 0.63049 0.20738 0.0
C329 C 0.12169 0.66668 0.22856 0.0
C330 C 0.16133 0.62607 0.22948 0.0
C331 C 0.09335 0.6205 0.21772 0.0
O332 O 0.12955 0.65189 0.23144 0.0
O333 O 0.11261 0.66918 0.21754 0.0
O334 O 0.13697 0.61121 0.20608 0.0
O335 O 0.12815 0.63863 0.20264 0.0
Co336 Co 0.3825 0.88295 0.47229 0.0
O337 O 0.38818 0.90777 0.47066 0.0
O338 O 0.36988 0.89669 0.48632 0.0
C339 C 0.37776 0.87934 0.44947 0.0
O340 O 0.37326 0.85769 0.47659 0.0
Co341 Co 0.40594 0.85479 0.45745 0.0
O342 O 0.38522 0.83917 0.46082 0.0
C343 C 0.41883 0.87191 0.48311 0.0
C344 C 0.37759 0.91062 0.48095 0.0
C345 C 0.37417 0.84244 0.47044 0.0
O346 O 0.40373 0.87972 0.48484 0.0
O347 O 0.42253 0.86228 0.47259 0.0
O348 O 0.36508 0.88518 0.4574 0.0
O349 O 0.39292 0.87681 0.45542 0.0
Co350 Co 0.87182 0.6306 0.21867 0.0
O351 O 0.84718 0.63693 0.2168 0.0
O352 O 0.8576 0.61986 0.23345 0.0
C353 C 0.87468 0.62367 0.1961 0.0
O354 O 0.89697 0.62103 0.22324 0.0
Co355 Co 0.90034 0.65162 0.20207 0.0
O356 O 0.91522 0.63066 0.20635 0.0
C357 C 0.88416 0.66754 0.22712 0.0
C358 C 0.84388 0.62734 0.22756 0.0
C359 C 0.91204 0.62081 0.21674 0.0
O360 O 0.87605 0.65286 0.22993 0.0
O361 O 0.89347 0.66986 0.21619 0.0
O362 O 0.86867 0.61193 0.20478 0.0
O363 O 0.87792 0.63918 0.20122 0.0
Co364 Co 0.12362 0.12102 0.96698 0.0
O365 O 0.12068 0.09583 0.96473 0.0
O366 O 0.1343 0.10817 0.98251 0.0
C367 C 0.13229 0.12516 0.94491 0.0
O368 O 0.12955 0.14714 0.97195 0.0
Co369 Co 0.1003 0.14642 0.949 0.0
O370 O 0.11824 0.16414 0.95487 0.0
C371 C 0.08431 0.12594 0.97192 0.0
C372 C 0.12925 0.0937 0.97617 0.0
C373 C 0.12799 0.16219 0.96553 0.0
O374 O 0.09986 0.12227 0.97675 0.0
O375 O 0.08187 0.13396 0.96041 0.0
O376 O 0.1439 0.12038 0.95414 0.0
O377 O 0.11611 0.12625 0.94919 0.0
Co378 Co 0.63385 0.37552 0.71788 0.0
O379 O 0.65899 0.3721 0.71573 0.0
O380 O 0.64677 0.38591 0.73347 0.0
C381 C 0.6301 0.38435 0.6958 0.0
O382 O 0.60783 0.38196 0.72274 0.0
Co383 Co 0.6081 0.35281 0.69978 0.0
O384 O 0.59071 0.37112 0.70556 0.0
C385 C 0.62811 0.3363 0.72274 0.0
C386 C 0.66119 0.38063 0.72717 0.0
C387 C 0.59279 0.38077 0.71625 0.0
O388 O 0.63209 0.35177 0.7276 0.0
O389 O 0.62005 0.33406 0.71123 0.0
O390 O 0.63502 0.39581 0.7051 0.0
O391 O 0.62862 0.36817 0.70003 0.0
Co392 Co 0.38166 0.1221 0.52753 0.0
O393 O 0.38575 0.09707 0.52977 0.0
O394 O 0.37063 0.10882 0.51246 0.0
C395 C 0.37368 0.12646 0.54975 0.0
O396 O 0.37462 0.14776 0.52238 0.0
Co397 Co 0.4051 0.14843 0.54459 0.0
O398 O 0.38963 0.16675 0.53625 0.0
C399 C 0.42056 0.12811 0.52144 0.0
C400 C 0.3768 0.09461 0.51853 0.0
C401 C 0.37835 0.1636 0.52675 0.0
O402 O 0.40488 0.12404 0.51706 0.0
O403 O 0.42331 0.13608 0.53292 0.0
O404 O 0.36197 0.12102 0.54083 0.0
O405 O 0.3897 0.12792 0.54514 0.0
Co406 Co 0.63298 0.63249 0.27705 0.0
O407 O 0.65823 0.6337 0.27962 0.0
O408 O 0.64546 0.62025 0.26198 0.0
C409 C 0.62764 0.62509 0.29928 0.0
O410 O 0.60652 0.62853 0.27194 0.0
Co411 Co 0.61024 0.65943 0.29419 0.0
O412 O 0.59024 0.64552 0.28649 0.0
C413 C 0.63215 0.67185 0.27094 0.0
C414 C 0.66011 0.62467 0.2684 0.0
C415 C 0.59141 0.63407 0.27681 0.0
O416 O 0.63378 0.65575 0.26655 0.0
O417 O 0.62498 0.67579 0.28252 0.0
O418 O 0.63173 0.61279 0.2904 0.0
O419 O 0.62812 0.6411 0.29459 0.0
Co420 Co 0.12551 0.88322 0.02819 0.0
O421 O 0.12272 0.90833 0.03125 0.0
O422 O 0.13596 0.89678 0.01299 0.0
C423 C 0.13451 0.87769 0.05002 0.0
O424 O 0.13127 0.85747 0.0222 0.0
Co425 Co 0.10222 0.85689 0.0454 0.0
O426 O 0.11742 0.83852 0.03681 0.0
C427 C 0.0861 0.87876 0.02337 0.0
C428 C 0.13103 0.91096 0.01975 0.0
C429 C 0.12792 0.84162 0.02678 0.0
O430 O 0.10163 0.88258 0.01855 0.0
O431 O 0.08375 0.87028 0.03469 0.0
O432 O 0.14596 0.88306 0.04087 0.0
O433 O 0.11825 0.87691 0.04587 0.0
Co434 Co 0.87208 0.37653 0.77893 0.0
O435 O 0.84721 0.37147 0.7814 0.0
O436 O 0.85809 0.38699 0.76399 0.0
C437 C 0.87623 0.38451 0.80112 0.0
O438 O 0.8974 0.38487 0.77363 0.0
Co439 Co 0.9004 0.35512 0.79548 0.0
O440 O 0.9158 0.37545 0.79049 0.0
C441 C 0.88304 0.33887 0.7711 0.0
C442 C 0.84418 0.38052 0.7703 0.0
C443 C 0.91261 0.38495 0.77991 0.0
O444 O 0.87502 0.35359 0.76828 0.0
O445 O 0.89288 0.33665 0.78175 0.0
O446 O 0.87016 0.39601 0.79228 0.0
O447 O 0.87857 0.3686 0.79647 0.0
H448 H 0.14208 0.59362 0.18297 0.0
H449 H 0.14593 0.59128 0.15784 0.0
H450 H 0.12528 0.64449 0.15296 0.0
H451 H 0.12125 0.64692 0.17784 0.0
H452 H 0.11774 0.59903 0.13525 0.0
H453 H 0.17772 0.64245 0.13488 0.0
H454 H 0.17069 0.6301 0.14994 0.0
H455 H 0.15934 0.65023 0.14518 0.0
C456 C 0.13813 0.60469 0.1765 0.0
C457 C 0.13147 0.62049 0.18236 0.0
C458 C 0.14041 0.60337 0.1622 0.0
C459 C 0.13619 0.61786 0.15367 0.0
C460 C 0.12886 0.6333 0.15945 0.0
H461 H 0.1123 0.63982 0.07088 0.0
H462 H 0.11542 0.63686 0.09581 0.0
C463 C 0.12649 0.6346 0.17366 0.0
C464 C 0.13946 0.61719 0.13868 0.0
H465 H 0.16339 0.63758 0.11323 0.0
C466 C 0.1279 0.60718 0.13042 0.0
C467 C 0.15287 0.62773 0.13248 0.0
C468 C 0.166 0.63815 0.14105 0.0
C469 C 0.12875 0.60826 0.116 0.0
C470 C 0.14136 0.61977 0.10979 0.0
C471 C 0.15364 0.62892 0.11805 0.0
C472 C 0.1409 0.62346 0.09484 0.0
C473 C 0.11581 0.59747 0.10751 0.0
C474 C 0.15473 0.61782 0.08613 0.0
C475 C 0.15306 0.61964 0.07181 0.0
C476 C 0.13753 0.62712 0.06612 0.0
C477 C 0.12434 0.63386 0.07497 0.0
C478 C 0.12604 0.63208 0.0892 0.0
H479 H 0.11043 0.58599 0.11342 0.0
H480 H 0.10444 0.60606 0.10446 0.0
H481 H 0.12225 0.59241 0.09797 0.0
H482 H 0.16639 0.6113 0.09036 0.0
H483 H 0.1634 0.61429 0.0652 0.0
H484 H 0.65359 0.87769 0.43114 0.0
H485 H 0.65412 0.87774 0.40583 0.0
H486 H 0.5969 0.88378 0.40518 0.0
H487 H 0.59626 0.88261 0.43023 0.0
H488 H 0.60543 0.86112 0.38712 0.0
H489 H 0.65053 0.91879 0.38032 0.0
H490 H 0.66092 0.90122 0.3899 0.0
H491 H 0.64178 0.91253 0.39694 0.0
C492 C 0.64117 0.87893 0.42553 0.0
C493 C 0.6249 0.88011 0.43261 0.0
C494 C 0.64148 0.87918 0.41109 0.0
C495 C 0.62558 0.8812 0.40355 0.0
C496 C 0.60935 0.88225 0.41071 0.0
H497 H 0.62373 0.90696 0.31531 0.0
H498 H 0.62111 0.90867 0.34054 0.0
C499 C 0.609 0.88155 0.42505 0.0
C500 C 0.62552 0.88161 0.38823 0.0
H501 H 0.64417 0.9017 0.36013 0.0
C502 C 0.61382 0.87013 0.38125 0.0
C503 C 0.63615 0.89361 0.38052 0.0
C504 C 0.6479 0.90736 0.38731 0.0
C505 C 0.6126 0.8701 0.36684 0.0
C506 C 0.62405 0.88126 0.3591 0.0
C507 C 0.63552 0.893 0.36605 0.0
C508 C 0.62486 0.88036 0.34382 0.0
C509 C 0.59876 0.85834 0.36014 0.0
C510 C 0.6279 0.86396 0.33731 0.0
C511 C 0.62894 0.86293 0.323 0.0
C512 C 0.62753 0.87835 0.31487 0.0
C513 C 0.62474 0.89486 0.32134 0.0
C514 C 0.62333 0.89584 0.33573 0.0
H515 H 0.58724 0.85609 0.36712 0.0
H516 H 0.59374 0.86419 0.35037 0.0
H517 H 0.60473 0.84514 0.35787 0.0
H518 H 0.62977 0.85194 0.3433 0.0
H519 H 0.63141 0.85004 0.31834 0.0
H520 H 0.35959 0.40626 0.68313 0.0
H521 H 0.35415 0.40695 0.65819 0.0
H522 H 0.38396 0.35819 0.6535 0.0
H523 H 0.3891 0.35722 0.67834 0.0
H524 H 0.37618 0.40747 0.63558 0.0
H525 H 0.33653 0.34534 0.63597 0.0
H526 H 0.34237 0.3571 0.65157 0.0
H527 H 0.35811 0.34224 0.64355 0.0
C528 C 0.36516 0.39582 0.67674 0.0
C529 C 0.37461 0.38158 0.68267 0.0
C530 C 0.36196 0.39618 0.66252 0.0
C531 C 0.36818 0.38232 0.65408 0.0
C532 C 0.37854 0.36871 0.6599 0.0
H533 H 0.38759 0.35926 0.57112 0.0
H534 H 0.38364 0.36055 0.5961 0.0
C535 C 0.38162 0.36826 0.67407 0.0
C536 C 0.36393 0.38195 0.63916 0.0
H537 H 0.34758 0.35486 0.61383 0.0
C538 C 0.36962 0.39614 0.63085 0.0
C539 C 0.35514 0.36723 0.63303 0.0
C540 C 0.34751 0.35221 0.64152 0.0
C541 C 0.36777 0.39547 0.61646 0.0
C542 C 0.36004 0.38025 0.61031 0.0
C543 C 0.35356 0.36646 0.61863 0.0
C544 C 0.3605 0.37766 0.59525 0.0
C545 C 0.37486 0.41058 0.6078 0.0
C546 C 0.34835 0.38637 0.58657 0.0
C547 C 0.35045 0.3855 0.57223 0.0
C548 C 0.36486 0.37609 0.56651 0.0
C549 C 0.37641 0.36666 0.57526 0.0
C550 C 0.37418 0.36737 0.58951 0.0
H551 H 0.3808 0.42136 0.61417 0.0
H552 H 0.38515 0.40551 0.60057 0.0
H553 H 0.3639 0.41631 0.60151 0.0
H554 H 0.33769 0.39434 0.59088 0.0
H555 H 0.34143 0.39297 0.56571 0.0
H556 H 0.88983 0.14466 0.92826 0.0
H557 H 0.88719 0.14223 0.90321 0.0
H558 H 0.84178 0.10757 0.90793 0.0
H559 H 0.8442 0.11011 0.93312 0.0
H560 H 0.87338 0.09481 0.8908 0.0
H561 H 0.84689 0.16128 0.87614 0.0
H562 H 0.86446 0.16139 0.88876 0.0
H563 H 0.84334 0.15156 0.89298 0.0
C564 C 0.87905 0.13682 0.92397 0.0
C565 C 0.86722 0.12757 0.9326 0.0
C566 C 0.87756 0.13546 0.90968 0.0
C567 C 0.86429 0.12474 0.90379 0.0
C568 C 0.85206 0.11594 0.91234 0.0
H569 H 0.85961 0.09533 0.81596 0.0
H570 H 0.85563 0.09405 0.84104 0.0
C571 C 0.8534 0.11749 0.92669 0.0
C572 C 0.86423 0.12186 0.88874 0.0
H573 H 0.86001 0.14401 0.85827 0.0
C574 C 0.8702 0.10542 0.88361 0.0
C575 C 0.86012 0.13578 0.87952 0.0
C576 C 0.8532 0.15348 0.88457 0.0
C577 C 0.87308 0.10286 0.86944 0.0
C578 C 0.86958 0.11704 0.86023 0.0
C579 C 0.86285 0.13321 0.86537 0.0
C580 C 0.8736 0.11595 0.84531 0.0
C581 C 0.88066 0.08536 0.86452 0.0
C582 C 0.88521 0.12846 0.83942 0.0
C583 C 0.88733 0.12933 0.82516 0.0
C584 C 0.87795 0.11764 0.81652 0.0
C585 C 0.86715 0.10437 0.82242 0.0
C586 C 0.86487 0.10363 0.83674 0.0
H587 H 0.88637 0.07744 0.87314 0.0
H588 H 0.8699 0.07738 0.85969 0.0
H589 H 0.89121 0.08756 0.85667 0.0
H590 H 0.89215 0.13802 0.84585 0.0
H591 H 0.89576 0.13966 0.82088 0.0
H592 H 0.15573 0.3754 0.93068 0.0
H593 H 0.1576 0.37475 0.90539 0.0
H594 H 0.10045 0.38052 0.90284 0.0
H595 H 0.09847 0.38011 0.92783 0.0
H596 H 0.11017 0.35705 0.88563 0.0
H597 H 0.15491 0.41514 0.87898 0.0
H598 H 0.1648 0.39782 0.88915 0.0
H599 H 0.14536 0.40932 0.89543 0.0
C600 C 0.14362 0.37643 0.92466 0.0
C601 C 0.12697 0.37776 0.93119 0.0
C602 C 0.1447 0.37628 0.91023 0.0
C603 C 0.12919 0.37797 0.90217 0.0
C604 C 0.11261 0.37921 0.90878 0.0
H605 H 0.12599 0.40428 0.81437 0.0
H606 H 0.12513 0.40536 0.83971 0.0
C607 C 0.1115 0.37894 0.9231 0.0
C608 C 0.12985 0.37791 0.88686 0.0
H609 H 0.14858 0.39815 0.85884 0.0
C610 C 0.11852 0.36613 0.8798 0.0
C611 C 0.14048 0.38996 0.8792 0.0
C612 C 0.15193 0.4039 0.88607 0.0
C613 C 0.11746 0.36606 0.86539 0.0
C614 C 0.12876 0.37745 0.8577 0.0
C615 C 0.14005 0.3893 0.86472 0.0
C616 C 0.12923 0.37699 0.8424 0.0
C617 C 0.1038 0.35412 0.85864 0.0
C618 C 0.13203 0.36079 0.83552 0.0
C619 C 0.13197 0.36011 0.82117 0.0
C620 C 0.12977 0.37571 0.81337 0.0
C621 C 0.12757 0.39206 0.82018 0.0
C622 C 0.12716 0.39267 0.83462 0.0
H623 H 0.09242 0.35144 0.86567 0.0
H624 H 0.09851 0.36009 0.849 0.0
H625 H 0.11004 0.34112 0.85613 0.0
H626 H 0.13436 0.34863 0.84124 0.0
H627 H 0.1341 0.34737 0.81618 0.0
H628 H 0.88907 0.86012 0.06968 0.0
H629 H 0.88771 0.86366 0.09468 0.0
H630 H 0.8438 0.90033 0.09021 0.0
H631 H 0.84478 0.89637 0.06512 0.0
H632 H 0.8942 0.89571 0.10682 0.0
H633 H 0.82768 0.87029 0.12273 0.0
H634 H 0.83734 0.86522 0.10615 0.0
H635 H 0.82741 0.88664 0.10921 0.0
C636 C 0.87878 0.86852 0.07406 0.0
C637 C 0.86703 0.87798 0.06551 0.0
C638 C 0.87807 0.8706 0.08832 0.0
C639 C 0.8657 0.88229 0.09431 0.0
C640 C 0.85328 0.89103 0.08584 0.0
H641 H 0.86151 0.91183 0.18222 0.0
H642 H 0.85882 0.91476 0.15705 0.0
C643 C 0.85383 0.88875 0.07151 0.0
C644 C 0.86715 0.8865 0.10919 0.0
H645 H 0.84548 0.8835 0.14004 0.0
C646 C 0.88349 0.89312 0.11407 0.0
C647 C 0.85311 0.88333 0.11859 0.0
C648 C 0.83543 0.87585 0.11397 0.0
C649 C 0.88638 0.89607 0.12815 0.0
C650 C 0.87259 0.8923 0.13758 0.0
C651 C 0.85598 0.88645 0.1327 0.0
C652 C 0.87583 0.89222 0.15259 0.0
C653 C 0.9043 0.90279 0.13292 0.0
C654 C 0.88655 0.87882 0.15829 0.0
C655 C 0.88799 0.87706 0.17254 0.0
C656 C 0.87882 0.88874 0.18134 0.0
C657 C 0.86885 0.90278 0.17564 0.0
C658 C 0.86721 0.90439 0.16131 0.0
H659 H 0.91191 0.90904 0.12437 0.0
H660 H 0.90273 0.91263 0.14138 0.0
H661 H 0.91222 0.89143 0.13694 0.0
H662 H 0.89318 0.86923 0.15169 0.0
H663 H 0.89573 0.86611 0.17668 0.0
H664 H 0.34458 0.61649 0.43258 0.0
H665 H 0.34188 0.61479 0.40736 0.0
H666 H 0.39509 0.63574 0.40308 0.0
H667 H 0.39791 0.6375 0.4281 0.0
H668 H 0.34721 0.64238 0.38602 0.0
H669 H 0.39534 0.5864 0.38273 0.0
H670 H 0.38422 0.5925 0.39857 0.0
H671 H 0.40309 0.6051 0.39263 0.0
C672 C 0.35558 0.62097 0.42624 0.0
C673 C 0.37152 0.62697 0.4323 0.0
C674 C 0.35404 0.61993 0.41187 0.0
C675 C 0.36844 0.62478 0.40344 0.0
C676 C 0.38398 0.63161 0.40946 0.0
H677 H 0.38372 0.65182 0.31945 0.0
H678 H 0.38076 0.6496 0.34444 0.0
C679 C 0.38552 0.63269 0.42375 0.0
C680 C 0.36761 0.62244 0.38833 0.0
H681 H 0.38852 0.60141 0.36165 0.0
C682 C 0.35605 0.63327 0.38068 0.0
C683 C 0.37898 0.61033 0.38144 0.0
C684 C 0.39101 0.59778 0.38925 0.0
C685 C 0.35627 0.63297 0.36621 0.0
C686 C 0.36848 0.6217 0.35932 0.0
C687 C 0.37933 0.61017 0.36698 0.0
C688 C 0.37093 0.62251 0.34421 0.0
C689 C 0.34363 0.64492 0.35841 0.0
C690 C 0.36708 0.60773 0.33587 0.0
C691 C 0.36884 0.60892 0.32153 0.0
C692 C 0.3746 0.62488 0.31539 0.0
C693 C 0.37915 0.63938 0.32386 0.0
C694 C 0.37734 0.63819 0.33813 0.0
H695 H 0.33207 0.6489 0.36486 0.0
H696 H 0.35077 0.65721 0.35526 0.0
H697 H 0.33863 0.63824 0.34895 0.0
H698 H 0.36231 0.59544 0.34043 0.0
H699 H 0.36526 0.59754 0.31525 0.0
H700 H 0.6411 0.09472 0.68223 0.0
H701 H 0.64383 0.09213 0.65705 0.0
H702 H 0.62279 0.14523 0.65239 0.0
H703 H 0.61999 0.14794 0.67735 0.0
H704 H 0.61687 0.09729 0.63531 0.0
H705 H 0.6726 0.14574 0.63273 0.0
H706 H 0.66622 0.13458 0.64849 0.0
H707 H 0.65368 0.15341 0.64242 0.0
C708 C 0.63684 0.10573 0.67581 0.0
C709 C 0.63047 0.12159 0.68175 0.0
C710 C 0.63847 0.10425 0.66147 0.0
C711 C 0.63388 0.11865 0.65295 0.0
C712 C 0.62674 0.13413 0.65884 0.0
H713 H 0.60693 0.13481 0.56949 0.0
H714 H 0.60974 0.13184 0.59443 0.0
C715 C 0.62505 0.1356 0.6731 0.0
C716 C 0.63661 0.11781 0.63788 0.0
H717 H 0.65781 0.13915 0.61146 0.0
C718 C 0.626 0.10623 0.63008 0.0
C719 C 0.64875 0.12931 0.63114 0.0
C720 C 0.66111 0.14136 0.63911 0.0
C721 C 0.62646 0.1066 0.61562 0.0
C722 C 0.63769 0.11899 0.60888 0.0
C723 C 0.64908 0.12982 0.61668 0.0
C724 C 0.63673 0.12179 0.59381 0.0
C725 C 0.61466 0.094 0.60766 0.0
C726 C 0.65132 0.11789 0.58527 0.0
C727 C 0.64979 0.11966 0.57094 0.0
C728 C 0.63369 0.12545 0.56503 0.0
C729 C 0.61947 0.13019 0.57372 0.0
C730 C 0.62099 0.12838 0.58797 0.0
H731 H 0.61072 0.08231 0.614 0.0
H732 H 0.60233 0.1011 0.60453 0.0
H733 H 0.62143 0.08919 0.59818 0.0
H734 H 0.66365 0.11298 0.58966 0.0
H735 H 0.66097 0.11592 0.56449 0.0
H736 H 0.85986 0.41098 0.81576 0.0
H737 H 0.8584 0.4136 0.841 0.0
H738 H 0.89423 0.36902 0.84505 0.0
H739 H 0.89555 0.36613 0.81997 0.0
H740 H 0.84734 0.38053 0.85821 0.0
H741 H 0.91266 0.41074 0.87187 0.0
H742 H 0.902 0.41433 0.85537 0.0
H743 H 0.91297 0.39358 0.8589 0.0
C744 C 0.86774 0.40203 0.82205 0.0
C745 C 0.87779 0.38832 0.81596 0.0
C746 C 0.86682 0.40349 0.83642 0.0
C747 C 0.87623 0.39151 0.8448 0.0
C748 C 0.88698 0.37844 0.83871 0.0
H749 H 0.8938 0.36326 0.92868 0.0
H750 H 0.89261 0.36622 0.90362 0.0
C751 C 0.8877 0.3768 0.82441 0.0
C752 C 0.87376 0.39145 0.85989 0.0
H753 H 0.89619 0.39749 0.89005 0.0
C754 C 0.85786 0.38446 0.86525 0.0
C755 C 0.88761 0.39647 0.8689 0.0
C756 C 0.90477 0.40433 0.86354 0.0
C757 C 0.85577 0.3816 0.87946 0.0
C758 C 0.86983 0.38624 0.88849 0.0
C759 C 0.88548 0.39382 0.8831 0.0
C760 C 0.86901 0.38281 0.90353 0.0
C761 C 0.8389 0.37289 0.88458 0.0
C762 C 0.85583 0.39073 0.91177 0.0
C763 C 0.85632 0.3888 0.92612 0.0
C764 C 0.8702 0.37921 0.93241 0.0
C765 C 0.88296 0.37075 0.9241 0.0
C766 C 0.88234 0.3725 0.90979 0.0
H767 H 0.8316 0.36603 0.87614 0.0
H768 H 0.84183 0.36304 0.89282 0.0
H769 H 0.82996 0.38324 0.88893 0.0
H770 H 0.84561 0.39901 0.90719 0.0
H771 H 0.84642 0.39563 0.93229 0.0
H772 H 0.39133 0.14559 0.67681 0.0
H773 H 0.38745 0.14415 0.65185 0.0
H774 H 0.35755 0.0954 0.65616 0.0
H775 H 0.36159 0.09662 0.68127 0.0
H776 H 0.38175 0.09551 0.63377 0.0
H777 H 0.33934 0.15593 0.63377 0.0
H778 H 0.36041 0.15936 0.64213 0.0
H779 H 0.34468 0.14384 0.64933 0.0
C780 C 0.38413 0.13443 0.67245 0.0
C781 C 0.3766 0.12131 0.68098 0.0
C782 C 0.3818 0.1337 0.6582 0.0
C783 C 0.37176 0.11997 0.65224 0.0
C784 C 0.36514 0.10624 0.66062 0.0
H785 H 0.34395 0.11527 0.56373 0.0
H786 H 0.34053 0.11308 0.58891 0.0
C787 C 0.36754 0.1069 0.67493 0.0
C788 C 0.36803 0.12029 0.63727 0.0
H789 H 0.35118 0.14689 0.61183 0.0
C790 C 0.37479 0.10656 0.62898 0.0
C791 C 0.35872 0.13463 0.63108 0.0
C792 C 0.35021 0.14919 0.63955 0.0
C793 C 0.37344 0.10739 0.61457 0.0
C794 C 0.36517 0.12229 0.60839 0.0
C795 C 0.35758 0.13554 0.61667 0.0
C796 C 0.36605 0.12514 0.59338 0.0
C797 C 0.38149 0.09275 0.60593 0.0
C798 C 0.38125 0.13313 0.58776 0.0
C799 C 0.38322 0.13443 0.57351 0.0
C800 C 0.36999 0.12776 0.56465 0.0
C801 C 0.35431 0.12057 0.57033 0.0
C802 C 0.35238 0.11924 0.58466 0.0
H803 H 0.38583 0.08122 0.61227 0.0
H804 H 0.37169 0.08808 0.59814 0.0
H805 H 0.39322 0.09804 0.60027 0.0
H806 H 0.39187 0.13783 0.5944 0.0
H807 H 0.39541 0.14009 0.56944 0.0
H808 H 0.60818 0.6372 0.42639 0.0
H809 H 0.61048 0.63423 0.40141 0.0
H810 H 0.66354 0.61291 0.40564 0.0
H811 H 0.66134 0.61572 0.43085 0.0
H812 H 0.6559 0.64152 0.38337 0.0
H813 H 0.61171 0.58212 0.38289 0.0
H814 H 0.6042 0.60045 0.39333 0.0
H815 H 0.62427 0.58886 0.39792 0.0
C816 C 0.62045 0.63208 0.42204 0.0
C817 C 0.63454 0.62655 0.43057 0.0
C818 C 0.62169 0.63033 0.40778 0.0
C819 C 0.63703 0.62306 0.40179 0.0
C820 C 0.65154 0.6184 0.41016 0.0
H821 H 0.63768 0.5952 0.31356 0.0
H822 H 0.64119 0.59269 0.33868 0.0
C823 C 0.65029 0.62009 0.42451 0.0
C824 C 0.63744 0.62004 0.38677 0.0
H825 H 0.61644 0.59667 0.36132 0.0
C826 C 0.64752 0.63154 0.37852 0.0
C827 C 0.62666 0.60685 0.38056 0.0
C828 C 0.61618 0.59372 0.3891 0.0
C829 C 0.6463 0.63085 0.3641 0.0
C830 C 0.63452 0.61849 0.35789 0.0
C831 C 0.62528 0.60626 0.36614 0.0
C832 C 0.63076 0.61899 0.34294 0.0
C833 C 0.65732 0.64362 0.35564 0.0
C834 C 0.62291 0.63421 0.33719 0.0
C835 C 0.62085 0.63564 0.32296 0.0
C836 C 0.62648 0.62182 0.31424 0.0
C837 C 0.6332 0.60604 0.32006 0.0
C838 C 0.63532 0.60463 0.33437 0.0
H839 H 0.6691 0.64847 0.36147 0.0
H840 H 0.66196 0.63727 0.34594 0.0
H841 H 0.64905 0.65535 0.35288 0.0
H842 H 0.61889 0.64524 0.3437 0.0
H843 H 0.61548 0.6479 0.31877 0.0
H844 H 0.11929 0.85793 0.17633 0.0
H845 H 0.12289 0.8607 0.15139 0.0
H846 H 0.14708 0.91232 0.1567 0.0
H847 H 0.1436 0.90967 0.18183 0.0
H848 H 0.11431 0.90174 0.13362 0.0
H849 H 0.1794 0.86601 0.13395 0.0
H850 H 0.16223 0.85879 0.14571 0.0
H851 H 0.17239 0.88018 0.14802 0.0
C852 C 0.12517 0.86999 0.17222 0.0
C853 C 0.13125 0.88356 0.18103 0.0
C854 C 0.12725 0.87151 0.15798 0.0
C855 C 0.13542 0.88659 0.15232 0.0
C856 C 0.14083 0.90054 0.16098 0.0
H857 H 0.16275 0.89212 0.06406 0.0
H858 H 0.16514 0.89543 0.08923 0.0
C859 C 0.13875 0.89904 0.17528 0.0
C860 C 0.13858 0.88729 0.13734 0.0
H861 H 0.16546 0.87008 0.11226 0.0
C862 C 0.12562 0.8951 0.12892 0.0
C863 C 0.15343 0.87871 0.13134 0.0
C864 C 0.16778 0.87047 0.14016 0.0
C865 C 0.12672 0.89383 0.11452 0.0
C866 C 0.14099 0.88424 0.1085 0.0
C867 C 0.15447 0.87727 0.11693 0.0
C868 C 0.14126 0.88028 0.09358 0.0
C869 C 0.11238 0.90242 0.10587 0.0
C870 C 0.12763 0.86989 0.08785 0.0
C871 C 0.12626 0.86798 0.07361 0.0
C872 C 0.1386 0.87631 0.06484 0.0
C873 C 0.1531 0.88552 0.07061 0.0
C874 C 0.15441 0.88752 0.08494 0.0
H875 H 0.10548 0.91324 0.11158 0.0
H876 H 0.11801 0.90801 0.0962 0.0
H877 H 0.10229 0.89224 0.10306 0.0
H878 H 0.1176 0.86386 0.0944 0.0
H879 H 0.11504 0.86067 0.06944 0.0
H880 H 0.89552 0.63758 0.06997 0.0
H881 H 0.89181 0.63431 0.09483 0.0
H882 H 0.83877 0.61375 0.08871 0.0
H883 H 0.84239 0.61685 0.06361 0.0
H884 H 0.84791 0.64391 0.11169 0.0
H885 H 0.88602 0.58034 0.11261 0.0
H886 H 0.89455 0.59783 0.10173 0.0
H887 H 0.87354 0.58768 0.0977 0.0
C888 C 0.88296 0.63256 0.07388 0.0
C889 C 0.86927 0.62736 0.06485 0.0
C890 C 0.88091 0.63066 0.08807 0.0
C891 C 0.86514 0.62358 0.0935 0.0
C892 C 0.85108 0.61914 0.08462 0.0
H893 H 0.86058 0.59559 0.18167 0.0
H894 H 0.85646 0.59375 0.15658 0.0
C895 C 0.85314 0.62099 0.07034 0.0
C896 C 0.86387 0.62048 0.10847 0.0
H897 H 0.88167 0.59493 0.13411 0.0
C898 C 0.85499 0.63304 0.11662 0.0
C899 C 0.873 0.60618 0.11478 0.0
C900 C 0.88225 0.59211 0.1063 0.0
C901 C 0.85585 0.63221 0.13105 0.0
C902 C 0.86606 0.61862 0.13738 0.0
C903 C 0.87402 0.60542 0.12921 0.0
C904 C 0.8697 0.61877 0.15236 0.0
C905 C 0.84618 0.64613 0.13941 0.0
C906 C 0.87918 0.63301 0.15813 0.0
C907 C 0.88161 0.63406 0.17235 0.0
C908 C 0.87467 0.62081 0.18106 0.0
C909 C 0.86607 0.60599 0.1752 0.0
C910 C 0.86362 0.60496 0.16091 0.0
H911 H 0.83508 0.65223 0.13347 0.0
H912 H 0.84073 0.64036 0.14907 0.0
H913 H 0.85564 0.6569 0.14222 0.0
H914 H 0.88436 0.64356 0.15165 0.0
H915 H 0.88843 0.64556 0.17655 0.0
H916 H 0.12068 0.14731 0.81862 0.0
H917 H 0.12499 0.14459 0.84346 0.0
H918 H 0.14362 0.09069 0.83822 0.0
H919 H 0.13946 0.09331 0.81316 0.0
H920 H 0.11725 0.09785 0.86085 0.0
H921 H 0.17649 0.14213 0.86141 0.0
H922 H 0.1578 0.15062 0.85183 0.0
H923 H 0.16891 0.13077 0.84605 0.0
C924 C 0.12553 0.13479 0.82273 0.0
C925 C 0.12987 0.12055 0.81394 0.0
C926 C 0.12809 0.13332 0.83691 0.0
C927 C 0.13498 0.11759 0.84257 0.0
C928 C 0.13848 0.103 0.83396 0.0
H929 H 0.16199 0.11311 0.93123 0.0
H930 H 0.16527 0.10986 0.9061 0.0
C931 C 0.13602 0.10449 0.81969 0.0
C932 C 0.13844 0.11668 0.85753 0.0
H933 H 0.16212 0.13708 0.88312 0.0
C934 C 0.12727 0.10615 0.86573 0.0
C935 C 0.15169 0.12736 0.8638 0.0
C936 C 0.16454 0.13826 0.85533 0.0
C937 C 0.12824 0.10692 0.88016 0.0
C938 C 0.1406 0.11862 0.88643 0.0
C939 C 0.15257 0.12826 0.87824 0.0
C940 C 0.13996 0.12224 0.90138 0.0
C941 C 0.11563 0.0957 0.8886 0.0
C942 C 0.12508 0.13099 0.90686 0.0
C943 C 0.12323 0.13293 0.92106 0.0
C944 C 0.13627 0.12619 0.93005 0.0
C945 C 0.15177 0.11846 0.92452 0.0
C946 C 0.15361 0.1165 0.91022 0.0
H947 H 0.11035 0.08428 0.88256 0.0
H948 H 0.12232 0.09052 0.89799 0.0
H949 H 0.10418 0.10402 0.8919 0.0
H950 H 0.11458 0.1358 0.90015 0.0
H951 H 0.11122 0.13909 0.92501 0.0
H952 H 0.61414 0.36685 0.57098 0.0
H953 H 0.61822 0.37039 0.59579 0.0
H954 H 0.66858 0.39651 0.58881 0.0
H955 H 0.66461 0.39299 0.56375 0.0
H956 H 0.65842 0.36306 0.61307 0.0
H957 H 0.62381 0.42873 0.61157 0.0
H958 H 0.6166 0.41143 0.59992 0.0
H959 H 0.63817 0.42129 0.59775 0.0
C960 C 0.62626 0.37305 0.5747 0.0
C961 C 0.63903 0.37973 0.56546 0.0
C962 C 0.62853 0.37509 0.58885 0.0
C963 C 0.64357 0.38387 0.59401 0.0
C964 C 0.65686 0.38975 0.58492 0.0
H965 H 0.64587 0.4123 0.68229 0.0
H966 H 0.65093 0.41449 0.65729 0.0
C967 C 0.65463 0.38763 0.57067 0.0
C968 C 0.64458 0.38755 0.6089 0.0
H969 H 0.62708 0.41506 0.63344 0.0
C970 C 0.65194 0.3746 0.61756 0.0
C971 C 0.63614 0.40267 0.61463 0.0
C972 C 0.62824 0.41694 0.60555 0.0
C973 C 0.65027 0.37594 0.63192 0.0
C974 C 0.64068 0.39041 0.63764 0.0
C975 C 0.63428 0.40393 0.62899 0.0
C976 C 0.63588 0.39073 0.65241 0.0
C977 C 0.6583 0.36156 0.64084 0.0
C978 C 0.62496 0.37724 0.65774 0.0
C979 C 0.62205 0.37599 0.67188 0.0
C980 C 0.62987 0.38831 0.68094 0.0
C981 C 0.63965 0.40267 0.67551 0.0
C982 C 0.64265 0.40386 0.66128 0.0
H983 H 0.66935 0.35457 0.63545 0.0
H984 H 0.66344 0.36715 0.65067 0.0
H985 H 0.64791 0.35154 0.64333 0.0
H986 H 0.61926 0.36725 0.65099 0.0
H987 H 0.61432 0.36488 0.67577 0.0
H988 H 0.3885 0.8535 0.3207 0.0
H989 H 0.38704 0.85546 0.34579 0.0
H990 H 0.36727 0.90925 0.34275 0.0
H991 H 0.36871 0.90743 0.31749 0.0
H992 H 0.39461 0.90322 0.3635 0.0
H993 H 0.33861 0.85512 0.3669 0.0
H994 H 0.35723 0.84739 0.35691 0.0
H995 H 0.3446 0.86628 0.35106 0.0
C996 C 0.384 0.86583 0.32534 0.0
C997 C 0.37857 0.88027 0.31713 0.0
C998 C 0.38307 0.86687 0.33968 0.0
C999 C 0.37668 0.88234 0.34606 0.0
C1000 C 0.37207 0.89713 0.33796 0.0
H1001 H 0.34859 0.88764 0.43375 0.0
H1002 H 0.34713 0.88915 0.40849 0.0
C1003 C 0.37296 0.89609 0.32357 0.0
C1004 C 0.37465 0.88284 0.36121 0.0
H1005 H 0.35356 0.86206 0.38795 0.0
C1006 C 0.38552 0.89437 0.36886 0.0
C1007 C 0.36257 0.87145 0.36813 0.0
C1008 C 0.34995 0.85946 0.36035 0.0
C1009 C 0.3852 0.89423 0.38332 0.0
C1010 C 0.37385 0.88211 0.39024 0.0
C1011 C 0.36239 0.87117 0.38259 0.0
C1012 C 0.37423 0.88018 0.4054 0.0
C1013 C 0.39709 0.90695 0.3911 0.0
C1014 C 0.38972 0.87402 0.41192 0.0
C1015 C 0.39056 0.87305 0.42627 0.0
C1016 C 0.3759 0.8782 0.43435 0.0
C1017 C 0.3601 0.88362 0.42778 0.0
C1018 C 0.35926 0.88455 0.41338 0.0
H1019 H 0.40136 0.9183 0.38453 0.0
H1020 H 0.39022 0.91226 0.40037 0.0
H1021 H 0.40922 0.89976 0.39455 0.0
H1022 H 0.40128 0.87022 0.4059 0.0
H1023 H 0.40288 0.86871 0.43102 0.0
H1024 H 0.05398 0.61124 0.03505 0.0
H1025 H 0.0265 0.60545 0.02276 0.0
H1026 H 0.05366 0.61239 0.9839 0.0
H1027 H 0.08163 0.61841 0.99637 0.0
H1028 H 0.02455 0.63327 0.98571 0.0
H1029 H 0.00402 0.56613 0.00089 0.0
H1030 H 0.01167 0.57725 0.0161 0.0
H1031 H 0.02697 0.57335 0.00204 0.0
C1032 C 0.05426 0.6112 0.02388 0.0
C1033 C 0.06991 0.61545 0.01668 0.0
C1034 C 0.03855 0.60761 0.01683 0.0
C1035 C 0.03804 0.60811 0.00238 0.0
C1036 C 0.05382 0.61166 0.99506 0.0
H1037 H 0.92317 0.60716 0.00039 0.0
H1038 H 0.95111 0.59957 0.98858 0.0
C1039 C 0.06975 0.61511 0.00217 0.0
C1040 C 0.02037 0.60783 0.99554 0.0
H1041 H 0.97975 0.58922 0.00151 0.0
C1042 C 0.0148 0.62329 0.98862 0.0
C1043 C 0.00764 0.59458 -0.00124 0.0
C1044 C 0.013 0.57681 0.00471 0.0
C1045 C 0.99661 0.62708 0.98699 0.0
C1046 C 0.98386 0.61534 0.99274 0.0
C1047 C 0.98946 0.59858 0.99749 0.0
C1048 C 0.96598 0.62172 0.99706 0.0
C1049 C 0.9913 0.64429 0.98012 0.0
C1050 C 0.96494 0.63683 0.00555 0.0
C1051 C 0.94914 0.64114 0.01228 0.0
C1052 C 0.93397 0.63034 0.01082 0.0
C1053 C 0.93463 0.61576 0.0017 0.0
C1054 C 0.95058 0.61141 0.99494 0.0
H1055 H 1.00015 0.64707 0.97119 0.0
H1056 H 0.97726 0.64397 0.97651 0.0
H1057 H 0.99294 0.65545 0.98753 0.0
H1058 H 0.97668 0.64472 0.00776 0.0
H1059 H 0.9491 0.65252 0.01915 0.0
H1060 H 0.6448 0.70338 0.28004 0.0
H1061 H 0.6521 0.72967 0.26653 0.0
H1062 H 0.64109 0.70096 0.22896 0.0
H1063 H 0.63387 0.67414 0.2426 0.0
H1064 H 0.67757 0.73448 0.24126 0.0
H1065 H 0.60507 0.74597 0.23256 0.0
H1066 H 0.61166 0.73171 0.24664 0.0
H1067 H 0.6154 0.72467 0.2292 0.0
C1068 C 0.64414 0.70252 0.2689 0.0
C1069 C 0.63856 0.68679 0.26237 0.0
C1070 C 0.64845 0.71751 0.26118 0.0
C1071 C 0.64711 0.71722 0.24678 0.0
C1072 C 0.64225 0.70136 0.24009 0.0
H1073 H 0.63086 0.82993 0.2405 0.0
H1074 H 0.63775 0.80262 0.2274 0.0
C1075 C 0.63814 0.68612 0.24787 0.0
C1076 C 0.64897 0.73435 0.23944 0.0
H1077 H 0.62329 0.77137 0.23555 0.0
C1078 C 0.66579 0.74248 0.23932 0.0
C1079 C 0.63367 0.7447 0.23661 0.0
C1080 C 0.61537 0.73641 0.23617 0.0
C1081 C 0.66741 0.76107 0.23853 0.0
C1082 C 0.65179 0.77162 0.23823 0.0
C1083 C 0.63527 0.76331 0.23602 0.0
C1084 C 0.65158 0.78975 0.24428 0.0
C1085 C 0.68568 0.76931 0.23947 0.0
C1086 C 0.65732 0.7917 0.25798 0.0
C1087 C 0.65317 0.80697 0.26543 0.0
C1088 C 0.64331 0.82072 0.25933 0.0
C1089 C 0.63864 0.8195 0.24534 0.0
C1090 C 0.64257 0.80396 0.23788 0.0
H1091 H 0.69549 0.76124 0.23359 0.0
H1092 H 0.68577 0.78317 0.23546 0.0
H1093 H 0.69005 0.76946 0.2504 0.0
H1094 H 0.66378 0.7808 0.26333 0.0
H1095 H 0.65685 0.80763 0.27622 0.0
H1096 H 0.42243 0.39896 0.50348 0.0
H1097 H 0.45048 0.40559 0.49143 0.0
H1098 H 0.47588 0.36192 0.51265 0.0
H1099 H 0.44827 0.35508 0.52435 0.0
H1100 H 0.48043 0.41619 0.50355 0.0
H1101 H 0.49685 0.35536 0.47518 0.0
H1102 H 0.47437 0.36009 0.4808 0.0
H1103 H 0.48985 0.34876 0.49205 0.0
C1104 C 0.43392 0.39052 0.5053 0.0
C1105 C 0.43313 0.37655 0.51496 0.0
C1106 C 0.4499 0.39433 0.49838 0.0
C1107 C 0.46521 0.38401 0.50087 0.0
C1108 C 0.46416 0.36972 0.51016 0.0
H1109 H 0.55522 0.39242 0.53553 0.0
H1110 H 0.52738 0.39871 0.52386 0.0
C1111 C 0.44835 0.36597 0.51705 0.0
C1112 C 0.48301 0.38941 0.49571 0.0
H1113 H 0.52248 0.36936 0.48799 0.0
C1114 C 0.48953 0.40621 0.49958 0.0
C1115 C 0.49492 0.37679 0.49 0.0
C1116 C 0.48851 0.35934 0.48413 0.0
C1117 C 0.50792 0.40952 0.50005 0.0
C1118 C 0.5199 0.39555 0.49692 0.0
C1119 C 0.51332 0.37993 0.49082 0.0
C1120 C 0.53786 0.39486 0.50325 0.0
C1121 C 0.51436 0.42736 0.50515 0.0
C1122 C 0.55314 0.39047 0.49559 0.0
C1123 C 0.56928 0.38678 0.50234 0.0
C1124 C 0.57012 0.387 0.51683 0.0
C1125 C 0.55495 0.39199 0.52436 0.0
C1126 C 0.53905 0.39588 0.51766 0.0
H1127 H 0.50553 0.43818 0.50134 0.0
H1128 H 0.51386 0.4276 0.51658 0.0
H1129 H 0.52824 0.4301 0.50178 0.0
H1130 H 0.55243 0.38933 0.48447 0.0
H1131 H 0.5808 0.38294 0.49631 0.0
H1132 H 0.90656 0.31233 0.76603 0.0
H1133 H 0.90059 0.28382 0.75508 0.0
H1134 H 0.84721 0.30099 0.74525 0.0
H1135 H 0.85322 0.32989 0.75628 0.0
H1136 H 0.84837 0.27034 0.76071 0.0
H1137 H 0.89421 0.26272 0.7169 0.0
H1138 H 0.90595 0.27186 0.73135 0.0
H1139 H 0.88796 0.28431 0.72364 0.0
C1140 C 0.89371 0.31025 0.7612 0.0
C1141 C 0.88031 0.32325 0.76208 0.0
C1142 C 0.89036 0.294 0.75479 0.0
C1143 C 0.87354 0.29034 0.74915 0.0
C1144 C 0.86037 0.30364 0.74937 0.0
H1145 H 0.85574 0.17451 0.7551 0.0
H1146 H 0.84908 0.20328 0.74407 0.0
C1147 C 0.86381 0.32011 0.75566 0.0
C1148 C 0.86921 0.27166 0.7455 0.0
H1149 H 0.88917 0.23552 0.73088 0.0
C1150 C 0.85673 0.26271 0.75375 0.0
C1151 C 0.87997 0.26177 0.73632 0.0
C1152 C 0.89263 0.27074 0.72645 0.0
C1153 C 0.85648 0.24404 0.75446 0.0
C1154 C 0.86889 0.23418 0.74656 0.0
C1155 C 0.87978 0.2431 0.73703 0.0
C1156 C 0.87371 0.21576 0.75051 0.0
C1157 C 0.84437 0.23511 0.76479 0.0
C1158 C 0.89005 0.21307 0.75721 0.0
C1159 C 0.89383 0.19684 0.76349 0.0
C1160 C 0.88139 0.18286 0.76314 0.0
C1161 C 0.86556 0.18507 0.75554 0.0
C1162 C 0.8617 0.20149 0.7493 0.0
H1163 H 0.8361 0.24484 0.7706 0.0
H1164 H 0.83531 0.22576 0.75938 0.0
H1165 H 0.85237 0.22729 0.77228 0.0
H1166 H 0.8995 0.2239 0.75826 0.0
H1167 H 0.90623 0.19548 0.76911 0.0
H1168 H 0.94306 0.3512 0.98591 0.0
H1169 H 0.97059 0.35798 0.99802 0.0
H1170 H 0.95148 0.41102 0.00668 0.0
H1171 H 0.92357 0.4042 0.99449 0.0
H1172 H 0.98292 0.41043 0.9923 0.0
H1173 H 0.98955 0.36562 0.03678 0.0
H1174 H 0.98124 0.35338 0.02228 0.0
H1175 H 0.96814 0.37129 0.02941 0.0
C1176 C 0.94448 0.36415 0.99072 0.0
C1177 C 0.93125 0.37722 0.98916 0.0
C1178 C 0.96016 0.36795 0.99781 0.0
C1179 C 0.96302 0.38493 0.00346 0.0
C1180 C 0.94943 0.39776 0.00258 0.0
H1181 H 0.078 0.40247 0.99595 0.0
H1182 H 0.05022 0.40992 0.00815 0.0
C1183 C 0.93353 0.39385 0.99561 0.0
C1184 C 0.98136 0.38982 0.00767 0.0
H1185 H 0.01722 0.37052 0.02319 0.0
C1186 C 0.99043 0.4023 -0.0005 0.0
C1187 C 0.99106 0.37941 0.0172 0.0
C1188 C 0.9819 0.36682 0.02701 0.0
C1189 C 0.00912 0.40267 -0.00093 0.0
C1190 C 0.01886 0.3904 0.00721 0.0
C1191 C 0.00975 0.37977 0.01682 0.0
C1192 C 0.03713 0.38504 0.00317 0.0
C1193 C 0.01816 0.41461 0.98868 0.0
C1194 C 0.03932 0.36823 0.9971 0.0
C1195 C 0.05501 0.36398 0.99022 0.0
C1196 C 0.06892 0.37642 0.9893 0.0
C1197 C 0.06744 0.39266 0.99646 0.0
C1198 C 0.05156 0.39697 0.00335 0.0
H1199 H 0.0085 0.42273 0.98269 0.0
H1200 H 0.02739 0.42382 0.99407 0.0
H1201 H 0.02611 0.40651 0.98134 0.0
H1202 H 0.02839 0.35879 0.99685 0.0
H1203 H 0.05587 0.35125 0.98499 0.0
H1204 H 0.87061 0.80423 0.21218 0.0
H1205 H 0.86452 0.7766 0.22423 0.0
H1206 H 0.86822 0.8038 0.26331 0.0
H1207 H 0.87435 0.83199 0.2511 0.0
H1208 H 0.88967 0.77343 0.26162 0.0
H1209 H 0.82201 0.75615 0.24486 0.0
H1210 H 0.83428 0.76409 0.23026 0.0
H1211 H 0.8302 0.77882 0.24463 0.0
C1212 C 0.8699 0.80447 0.22334 0.0
C1213 C 0.8731 0.82025 0.2307 0.0
C1214 C 0.86617 0.78867 0.23022 0.0
C1215 C 0.86555 0.78818 0.24467 0.0
C1216 C 0.86837 0.80397 0.25215 0.0
H1217 H 0.85793 0.67372 0.24641 0.0
H1218 H 0.8519 0.70198 0.25829 0.0
C1219 C 0.87188 0.82001 0.24518 0.0
C1220 C 0.86428 0.77055 0.25146 0.0
H1221 H 0.84368 0.73099 0.24522 0.0
C1222 C 0.87927 0.7642 0.25856 0.0
C1223 C 0.85047 0.75855 0.24801 0.0
C1224 C 0.83325 0.76485 0.24166 0.0
C1225 C 0.88205 0.74584 0.26027 0.0
C1226 C 0.86975 0.7337 0.25439 0.0
C1227 C 0.85344 0.7402 0.24938 0.0
C1228 C 0.8752 0.71545 0.25024 0.0
C1229 C 0.8988 0.73965 0.26738 0.0
C1230 C 0.89045 0.71346 0.242 0.0
C1231 C 0.89389 0.69748 0.23525 0.0
C1232 C 0.88204 0.68306 0.23641 0.0
C1233 C 0.86733 0.68459 0.24533 0.0
C1234 C 0.86387 0.70072 0.25213 0.0
H1235 H 0.90181 0.74834 0.27635 0.0
H1236 H 0.89767 0.72565 0.27098 0.0
H1237 H 0.91021 0.74071 0.26014 0.0
H1238 H 0.89914 0.72468 0.23997 0.0
H1239 H 0.90541 0.69675 0.22854 0.0
H1240 H 0.42625 0.60165 0.49359 0.0
H1241 H 0.45468 0.59491 0.50508 0.0
H1242 H 0.47308 0.64816 0.49624 0.0
H1243 H 0.44503 0.65485 0.48485 0.0
H1244 H 0.48542 0.59558 0.49011 0.0
H1245 H 0.49387 0.64057 0.53426 0.0
H1246 H 0.47216 0.63503 0.52738 0.0
H1247 H 0.48509 0.65289 0.51997 0.0
C1248 C 0.43618 0.61206 0.49455 0.0
C1249 C 0.43355 0.62873 0.48824 0.0
C1250 C 0.45238 0.6082 0.50111 0.0
C1251 C 0.46593 0.62111 0.50171 0.0
C1252 C 0.46271 0.63812 0.49624 0.0
H1253 H 0.55936 0.65362 0.48093 0.0
H1254 H 0.53154 0.64656 0.49253 0.0
C1255 C 0.44673 0.64188 0.48957 0.0
C1256 C 0.48447 0.6163 0.50542 0.0
H1257 H 0.52098 0.63574 0.51993 0.0
C1258 C 0.4932 0.60377 0.49708 0.0
C1259 C 0.49458 0.6268 0.51465 0.0
C1260 C 0.48585 0.63943 0.52467 0.0
C1261 C 0.51187 0.60335 0.49623 0.0
C1262 C 0.52194 0.61566 0.50408 0.0
C1263 C 0.51324 0.62646 0.5138 0.0
C1264 C 0.54018 0.62068 0.49976 0.0
C1265 C 0.52054 0.59127 0.48575 0.0
C1266 C 0.55457 0.60873 0.50044 0.0
C1267 C 0.57064 0.61277 0.49374 0.0
C1268 C 0.57238 0.62873 0.48623 0.0
C1269 C 0.55836 0.64111 0.48646 0.0
C1270 C 0.54247 0.63715 0.49318 0.0
H1271 H 0.51068 0.58299 0.4801 0.0
H1272 H 0.52815 0.59929 0.47814 0.0
H1273 H 0.53006 0.58223 0.49101 0.0
H1274 H 0.55309 0.59601 0.50558 0.0
H1275 H 0.58126 0.603 0.49375 0.0
H1276 H 0.65096 0.1743 0.74624 0.0
H1277 H 0.65777 0.20248 0.75799 0.0
H1278 H 0.60874 0.22487 0.74244 0.0
H1279 H 0.6018 0.19701 0.7311 0.0
H1280 H 0.66441 0.23148 0.74426 0.0
H1281 H 0.60967 0.2487 0.7789 0.0
H1282 H 0.61347 0.22598 0.77345 0.0
H1283 H 0.59965 0.24075 0.76334 0.0
C1284 C 0.64137 0.18507 0.74577 0.0
C1285 C 0.62595 0.18353 0.7376 0.0
C1286 C 0.64527 0.20115 0.75249 0.0
C1287 C 0.63367 0.21579 0.7513 0.0
C1288 C 0.6177 0.21373 0.74392 0.0
H1289 H 0.63298 0.30334 0.71217 0.0
H1290 H 0.63987 0.27599 0.7243 0.0
C1291 C 0.61386 0.1978 0.73721 0.0
C1292 C 0.63941 0.23408 0.75508 0.0
H1293 H 0.61987 0.27372 0.76317 0.0
C1294 C 0.65505 0.24065 0.74897 0.0
C1295 C 0.62766 0.24618 0.76162 0.0
C1296 C 0.6118 0.23991 0.76983 0.0
C1297 C 0.65762 0.259 0.7472 0.0
C1298 C 0.64409 0.27091 0.75141 0.0
C1299 C 0.63002 0.26454 0.75956 0.0
C1300 C 0.64182 0.2883 0.74444 0.0
C1301 C 0.67393 0.26538 0.73958 0.0
C1302 C 0.64031 0.30437 0.75177 0.0
C1303 C 0.63633 0.32026 0.74476 0.0
C1304 C 0.63334 0.3201 0.73042 0.0
C1305 C 0.63504 0.30396 0.72322 0.0
C1306 C 0.63922 0.2883 0.73013 0.0
H1307 H 0.68558 0.25677 0.74194 0.0
H1308 H 0.67146 0.26459 0.72832 0.0
H1309 H 0.67723 0.27938 0.74228 0.0
H1310 H 0.642 0.30457 0.76285 0.0
H1311 H 0.63507 0.33251 0.75058 0.0
H1312 H 0.3567 0.32932 0.74615 0.0
H1313 H 0.35075 0.30095 0.75793 0.0
H1314 H 0.40314 0.28231 0.7466 0.0
H1315 H 0.40906 0.31033 0.73492 0.0
H1316 H 0.34998 0.27054 0.74277 0.0
H1317 H 0.39824 0.26095 0.78466 0.0
H1318 H 0.39247 0.28281 0.7782 0.0
H1319 H 0.40955 0.26975 0.76989 0.0
C1320 C 0.36714 0.31938 0.74663 0.0
C1321 C 0.38329 0.32192 0.73953 0.0
C1322 C 0.36373 0.3032 0.75336 0.0
C1323 C 0.37658 0.28958 0.75332 0.0
C1324 C 0.39317 0.29273 0.7471 0.0
H1325 H 0.40659 0.19589 0.73071 0.0
H1326 H 0.40066 0.22366 0.74272 0.0
C1327 C 0.39648 0.30871 0.74026 0.0
C1328 C 0.37188 0.27103 0.75709 0.0
H1329 H 0.39195 0.2341 0.77038 0.0
C1330 C 0.35861 0.26256 0.74928 0.0
C1331 C 0.38297 0.26067 0.76572 0.0
C1332 C 0.39646 0.26911 0.7752 0.0
C1333 C 0.3579 0.24392 0.74829 0.0
C1334 C 0.37066 0.2336 0.75548 0.0
C1335 C 0.38231 0.24203 0.76474 0.0
C1336 C 0.3751 0.21535 0.75081 0.0
C1337 C 0.3449 0.23556 0.73833 0.0
C1338 C 0.36297 0.20115 0.7518 0.0
C1339 C 0.36633 0.18511 0.74484 0.0
C1340 C 0.38181 0.1832 0.73677 0.0
C1341 C 0.39442 0.19702 0.73666 0.0
C1342 C 0.39111 0.21288 0.74362 0.0
H1343 H 0.33642 0.24562 0.73308 0.0
H1344 H 0.35221 0.22786 0.73035 0.0
H1345 H 0.33606 0.22619 0.74394 0.0
H1346 H 0.3506 0.20274 0.75742 0.0
H1347 H 0.35641 0.17464 0.74515 0.0
H1348 H 0.09923 0.69473 0.23135 0.0
H1349 H 0.10528 0.72296 0.24267 0.0
H1350 H 0.15505 0.70229 0.25816 0.0
H1351 H 0.14914 0.67375 0.24656 0.0
H1352 H 0.11393 0.735 0.26979 0.0
H1353 H 0.17001 0.74339 0.23247 0.0
H1354 H 0.15403 0.72566 0.23038 0.0
H1355 H 0.17009 0.72469 0.24407 0.0
C1356 C 0.11133 0.69602 0.23737 0.0
C1357 C 0.12387 0.68214 0.23785 0.0
C1358 C 0.11472 0.71215 0.24393 0.0
C1359 C 0.13073 0.71481 0.25108 0.0
C1360 C 0.14271 0.70055 0.25254 0.0
H1361 H 0.1513 0.82852 0.24368 0.0
H1362 H 0.1566 0.8003 0.2559 0.0
C1363 C 0.13927 0.68425 0.24598 0.0
C1364 C 0.13541 0.73326 0.25511 0.0
H1365 H 0.15698 0.76906 0.24135 0.0
C1366 C 0.1238 0.74243 0.26397 0.0
C1367 C 0.14845 0.74293 0.24766 0.0
C1368 C 0.16138 0.73378 0.23807 0.0
C1369 C 0.12349 0.76111 0.26431 0.0
C1370 C 0.13492 0.77076 0.25546 0.0
C1371 C 0.1481 0.76162 0.24804 0.0
C1372 C 0.13071 0.78921 0.25112 0.0
C1373 C 0.11001 0.77033 0.27335 0.0
C1374 C 0.11434 0.79241 0.24458 0.0
C1375 C 0.1114 0.80827 0.23749 0.0
C1376 C 0.12476 0.82133 0.23681 0.0
C1377 C 0.14074 0.81869 0.24411 0.0
C1378 C 0.14378 0.80262 0.25109 0.0
H1379 H 0.10778 0.76268 0.283 0.0
H1380 H 0.11432 0.78406 0.27604 0.0
H1381 H 0.09708 0.77109 0.26783 0.0
H1382 H 0.10422 0.78213 0.24413 0.0
H1383 H 0.09894 0.80997 0.23201 0.0
H1384 H 0.14967 0.17308 0.74973 0.0
H1385 H 0.15631 0.2009 0.73736 0.0
H1386 H 0.107 0.22348 0.75205 0.0
H1387 H 0.10029 0.196 0.7643 0.0
H1388 H 0.1169 0.23267 0.72339 0.0
H1389 H 0.17063 0.24419 0.76221 0.0
H1390 H 0.17062 0.22416 0.752 0.0
H1391 H 0.15397 0.22726 0.76505 0.0
C1392 C 0.14007 0.18385 0.75002 0.0
C1393 C 0.12458 0.18248 0.75815 0.0
C1394 C 0.14391 0.19971 0.74299 0.0
C1395 C 0.13221 0.21426 0.74391 0.0
C1396 C 0.11619 0.21239 0.75119 0.0
H1397 H 0.09867 0.30991 0.75626 0.0
H1398 H 0.10493 0.28199 0.74464 0.0
C1399 C 0.11243 0.19671 0.75828 0.0
C1400 C 0.13721 0.23228 0.73907 0.0
H1401 H 0.15796 0.26913 0.75179 0.0
C1402 C 0.12635 0.2406 0.72921 0.0
C1403 C 0.14978 0.24255 0.74649 0.0
C1404 C 0.16197 0.23421 0.75705 0.0
C1405 C 0.12629 0.2592 0.72774 0.0
C1406 C 0.13702 0.26964 0.7366 0.0
C1407 C 0.14957 0.26115 0.74509 0.0
C1408 C 0.13242 0.2884 0.73989 0.0
C1409 C 0.11377 0.26753 0.71744 0.0
C1410 C 0.14565 0.30161 0.74088 0.0
C1411 C 0.14205 0.31773 0.74765 0.0
C1412 C 0.12528 0.32062 0.75371 0.0
C1413 C 0.11173 0.30798 0.75174 0.0
C1414 C 0.11526 0.29206 0.74491 0.0
H1415 H 0.11302 0.25927 0.70795 0.0
H1416 H 0.10017 0.26811 0.72191 0.0
H1417 H 0.11801 0.28122 0.7146 0.0
H1418 H 0.15904 0.29899 0.73723 0.0
H1419 H 0.15275 0.32723 0.74911 0.0
H1420 H 0.40597 0.69742 0.26406 0.0
H1421 H 0.39949 0.72498 0.25192 0.0
H1422 H 0.34983 0.70298 0.23736 0.0
H1423 H 0.3562 0.6751 0.24977 0.0
H1424 H 0.39001 0.73605 0.22456 0.0
H1425 H 0.3347 0.74458 0.26254 0.0
H1426 H 0.35097 0.72715 0.26478 0.0
H1427 H 0.33477 0.7256 0.25121 0.0
C1428 C 0.39382 0.69826 0.25805 0.0
C1429 C 0.38143 0.68425 0.25808 0.0
C1430 C 0.39019 0.71399 0.25102 0.0
C1431 C 0.37406 0.71613 0.24392 0.0
C1432 C 0.36227 0.70165 0.24292 0.0
H1433 H 0.35429 0.82912 0.25314 0.0
H1434 H 0.34814 0.80163 0.24021 0.0
C1435 C 0.36596 0.68573 0.24995 0.0
C1436 C 0.36899 0.73438 0.23964 0.0
H1437 H 0.34783 0.77021 0.25369 0.0
C1438 C 0.3803 0.7435 0.23052 0.0
C1439 C 0.35611 0.74407 0.24722 0.0
C1440 C 0.3434 0.73497 0.25702 0.0
C1441 C 0.3806 0.76218 0.23013 0.0
C1442 C 0.36954 0.77186 0.23924 0.0
C1443 C 0.35648 0.76276 0.24683 0.0
C1444 C 0.3742 0.79014 0.24377 0.0
C1445 C 0.39378 0.77136 0.2208 0.0
C1446 C 0.39095 0.79294 0.24983 0.0
C1447 C 0.39438 0.80839 0.25731 0.0
C1448 C 0.38113 0.82143 0.2589 0.0
C1449 C 0.36476 0.81929 0.25203 0.0
C1450 C 0.36125 0.80363 0.24463 0.0
H1451 H 0.3953 0.76389 0.21098 0.0
H1452 H 0.38964 0.78524 0.21845 0.0
H1453 H 0.40702 0.77167 0.2259 0.0
H1454 H 0.40101 0.78259 0.24966 0.0
H1455 H 0.40715 0.80973 0.26243 0.0
H1456 H 0.45457 0.12569 0.5305 0.0
H1457 H 0.48127 0.11964 0.51724 0.0
H1458 H 0.44991 0.11375 0.48027 0.0
H1459 H 0.42256 0.11983 0.49367 0.0
H1460 H 0.48499 0.08558 0.49441 0.0
H1461 H 0.49475 0.15604 0.47885 0.0
H1462 H 0.48308 0.15272 0.49487 0.0
H1463 H 0.47311 0.14537 0.47902 0.0
C1464 C 0.45319 0.12311 0.51956 0.0
C1465 C 0.43642 0.12343 0.51312 0.0
C1466 C 0.46849 0.11956 0.51201 0.0
C1467 C 0.46749 0.11632 0.49782 0.0
C1468 C 0.45084 0.11623 0.49125 0.0
H1469 H 0.58165 0.12825 0.49228 0.0
H1470 H 0.55419 0.12154 0.47922 0.0
C1471 C 0.43531 0.11969 0.4989 0.0
C1472 C 0.48444 0.11378 0.49039 0.0
H1473 H 0.52112 0.13965 0.48547 0.0
C1474 C 0.49285 0.09719 0.49166 0.0
C1475 C 0.4946 0.12884 0.4866 0.0
C1476 C 0.48595 0.14677 0.48462 0.0
C1477 C 0.51149 0.09592 0.49152 0.0
C1478 C 0.52173 0.11165 0.49031 0.0
C1479 C 0.51326 0.12761 0.4866 0.0
C1480 C 0.53929 0.11304 0.49716 0.0
C1481 C 0.52009 0.07817 0.49439 0.0
C1482 C 0.53989 0.11058 0.51148 0.0
C1483 C 0.55518 0.11476 0.51888 0.0
C1484 C 0.57032 0.12136 0.51213 0.0
C1485 C 0.57011 0.12312 0.49769 0.0
C1486 C 0.55452 0.11925 0.49024 0.0
H1487 H 0.51212 0.06717 0.48983 0.0
H1488 H 0.53387 0.07762 0.49023 0.0
H1489 H 0.52065 0.07598 0.5057 0.0
H1490 H 0.52817 0.10623 0.51708 0.0
H1491 H 0.55503 0.11316 0.52999 0.0
H1492 H 0.94911 0.88921 0.03415 0.0
H1493 H 0.97651 0.8972 0.02233 0.0
H1494 H 0.95094 0.88918 0.98298 0.0
H1495 H 0.92292 0.88142 0.99494 0.0
H1496 H 0.98458 0.86926 0.9886 0.0
H1497 H 0.99197 0.94115 0.99861 0.0
H1498 H 0.98301 0.9298 0.01334 0.0
H1499 H 0.97046 0.93029 0.9975 0.0
C1500 C 0.94919 0.88936 0.02297 0.0
C1501 C 0.93395 0.88457 0.01545 0.0
C1502 C 0.9648 0.89412 0.01622 0.0
C1503 C 0.96565 0.89407 0.00179 0.0
C1504 C 0.95041 0.88956 0.99414 0.0
H1505 H 0.08238 0.8867 0.99567 0.0
H1506 H 0.05436 0.89381 0.98348 0.0
C1507 C 0.93451 0.88511 0.00095 0.0
C1508 C 0.98331 0.89656 0.99532 0.0
H1509 H 0.01937 0.92301 0.00116 0.0
C1510 C 0.99217 0.8813 0.99056 0.0
C1511 C 0.99314 0.91232 0.99771 0.0
C1512 C 0.98408 0.92938 0.00193 0.0
C1513 C 0.01087 0.88056 0.99042 0.0
C1514 C 0.02067 0.89543 0.99513 0.0
C1515 C 0.0118 0.91155 0.99767 0.0
C1516 C 0.03809 0.89273 0.00187 0.0
C1517 C 0.01997 0.86316 0.98718 0.0
C1518 C 0.0381 0.88998 0.01615 0.0
C1519 C 0.05378 0.8858 0.02302 0.0
C1520 C 0.06994 0.88436 0.01579 0.0
C1521 C 0.07011 0.88772 0.0015 0.0
C1522 C 0.05418 0.89176 0.99453 0.0
H1523 H 0.01093 0.85377 0.98175 0.0
H1524 H 0.03192 0.86552 0.98069 0.0
H1525 H 0.02446 0.85683 0.99693 0.0
H1526 H 0.02578 0.89064 0.02197 0.0
H1527 H 0.05317 0.88353 0.03404 0.0
H1528 H 0.44514 0.84892 0.49015 0.0
H1529 H 0.47248 0.85582 0.50248 0.0
H1530 H 0.45317 0.9089 0.51073 0.0
H1531 H 0.42547 0.90195 0.49832 0.0
H1532 H 0.48431 0.90846 0.49635 0.0
H1533 H 0.49199 0.86398 0.5409 0.0
H1534 H 0.48378 0.85148 0.52651 0.0
H1535 H 0.47043 0.86924 0.53361 0.0
C1536 C 0.44645 0.86188 0.49497 0.0
C1537 C 0.43327 0.87494 0.49319 0.0
C1538 C 0.46202 0.86576 0.50218 0.0
C1539 C 0.46482 0.88281 0.50771 0.0
C1540 C 0.45118 0.89558 0.50671 0.0
H1541 H 0.57926 0.90225 0.49901 0.0
H1542 H 0.55164 0.90912 0.5116 0.0
C1543 C 0.43539 0.8916 0.49962 0.0
C1544 C 0.48318 0.88789 0.51177 0.0
H1545 H 0.51947 0.86909 0.52708 0.0
C1546 C 0.492 0.90044 0.50351 0.0
C1547 C 0.49313 0.87762 0.52125 0.0
C1548 C 0.48425 0.86497 0.53116 0.0
C1549 C 0.51067 0.90103 0.50293 0.0
C1550 C 0.52068 0.88894 0.51105 0.0
C1551 C 0.51181 0.87821 0.52073 0.0
C1552 C 0.53903 0.88388 0.50695 0.0
C1553 C 0.51942 0.91304 0.49243 0.0
C1554 C 0.54151 0.86704 0.501 0.0
C1555 C 0.55714 0.86311 0.49391 0.0
C1556 C 0.57068 0.87591 0.49266 0.0
C1557 C 0.56899 0.89216 0.49977 0.0
C1558 C 0.55319 0.89615 0.50688 0.0
H1559 H 0.50956 0.92088 0.48641 0.0
H1560 H 0.52845 0.92252 0.49774 0.0
H1561 H 0.52752 0.90503 0.48513 0.0
H1562 H 0.53081 0.85734 0.50094 0.0
H1563 H 0.55817 0.85037 0.48872 0.0
H1564 H 0.08043 0.12043 -8e-05 0.0
H1565 H 0.05243 0.11399 0.01228 0.0
H1566 H 0.02429 0.11298 0.9735 0.0
H1567 H 0.05171 0.11932 0.96129 0.0
H1568 H 0.02228 0.13585 0.01178 0.0
H1569 H 0.00375 0.06954 0.99278 0.0
H1570 H 0.02653 0.07744 0.99258 0.0
H1571 H 0.0116 0.08257 0.97855 0.0
C1572 C 0.06827 0.1185 0.99408 0.0
C1573 C 0.06822 0.12053 0.97965 0.0
C1574 C 0.05235 0.1148 0.00113 0.0
C1575 C 0.03636 0.11263 0.99378 0.0
C1576 C 0.03652 0.11412 0.97937 0.0
H1577 H 0.94574 0.15454 0.9794 0.0
H1578 H 0.97368 0.14718 0.99051 0.0
C1579 C 0.05222 0.118 0.9724 0.0
C1580 C 0.01887 0.11115 0.00075 0.0
H1581 H 0.9789 0.09157 0.99408 0.0
C1582 C 0.01284 0.12578 0.00844 0.0
C1583 C 0.0066 0.09774 0.99691 0.0
C1584 C 0.01255 0.08084 0.98989 0.0
C1585 C 0.99454 0.12875 0.01036 0.0
C1586 C 0.98216 0.11702 0.00413 0.0
C1587 C 0.98831 0.10092 0.99852 0.0
C1588 C 0.96399 0.12304 0.00023 0.0
C1589 C 0.98868 0.14517 0.01807 0.0
C1590 C 0.94904 0.11197 0.00193 0.0
C1591 C 0.93291 0.11609 0.99536 0.0
C1592 C 0.93162 0.1312 0.98682 0.0
C1593 C 0.9463 0.14274 0.98582 0.0
C1594 C 0.96228 0.13867 0.99239 0.0
H1595 H 0.99756 0.1476 0.02704 0.0
H1596 H 0.98975 0.15694 0.01119 0.0
H1597 H 0.97472 0.14401 0.02177 0.0
H1598 H 0.9501 0.09973 0.00779 0.0
H1599 H 0.92184 0.10691 0.9963 0.0
H1600 H 0.12415 0.44 0.96224 0.0
H1601 H 0.12906 0.47072 0.96918 0.0
H1602 H 0.14356 0.45313 0.01002 0.0
H1603 H 0.13925 0.42195 0.00287 0.0
H1604 H 0.1113 0.48887 0.98752 0.0
H1605 H 0.18242 0.48873 0.00303 0.0
H1606 H 0.17239 0.47044 0.99377 0.0
H1607 H 0.16925 0.47258 0.01209 0.0
C1608 C 0.12858 0.44259 0.97268 0.0
C1609 C 0.13126 0.42851 0.98203 0.0
C1610 C 0.1314 0.46023 0.97664 0.0
C1611 C 0.13682 0.46437 0.9901 0.0
C1612 C 0.13977 0.45032 -0.00053 0.0
H1613 H 0.13314 0.56229 0.03575 0.0
H1614 H 0.13618 0.53168 0.02763 0.0
C1615 C 0.1372 0.4325 0.99542 0.0
C1616 C 0.1381 0.48346 0.99433 0.0
H1617 H 0.16566 0.51485 0.00851 0.0
C1618 C 0.12328 0.49453 0.99197 0.0
C1619 C 0.15372 0.49096 0.00015 0.0
C1620 C 0.17041 0.48012 0.00229 0.0
C1621 C 0.12355 0.5127 0.99542 0.0
C1622 C 0.13902 0.52009 0.00141 0.0
C1623 C 0.15387 0.50913 0.0038 0.0
C1624 C 0.13933 0.53887 0.0062 0.0
C1625 C 0.10713 0.52386 0.99296 0.0
C1626 C 0.14048 0.55314 0.99684 0.0
C1627 C 0.13889 0.57081 0.00148 0.0
C1628 C 0.13587 0.57437 0.01552 0.0
C1629 C 0.13532 0.56002 0.02485 0.0
C1630 C 0.13713 0.54249 0.02025 0.0
H1631 H 0.09567 0.51577 0.98929 0.0
H1632 H 0.10322 0.53082 0.0026 0.0
H1633 H 0.1101 0.53419 0.9851 0.0
H1634 H 0.14216 0.55058 0.98593 0.0
H1635 H 0.13932 0.58158 0.99406 0.0
H1636 H 0.81649 0.8838 0.21142 0.0
H1637 H 0.7858 0.88836 0.21864 0.0
H1638 H 0.80289 0.89199 0.26103 0.0
H1639 H 0.83406 0.8881 0.25368 0.0
H1640 H 0.76668 0.86712 0.23385 0.0
H1641 H 0.76873 0.93304 0.25955 0.0
H1642 H 0.78693 0.92483 0.24918 0.0
H1643 H 0.78425 0.91737 0.26669 0.0
C1644 C 0.81379 0.88579 0.22229 0.0
C1645 C 0.8277 0.88552 0.23201 0.0
C1646 C 0.79618 0.88841 0.2264 0.0
C1647 C 0.79191 0.89065 0.24037 0.0
C1648 C 0.80582 0.8907 0.25015 0.0
H1649 H 0.69373 0.88065 0.28488 0.0
H1650 H 0.72438 0.88494 0.27718 0.0
C1651 C 0.82362 0.88836 0.24597 0.0
C1652 C 0.77279 0.89155 0.24454 0.0
H1653 H 0.74204 0.91607 0.2624 0.0
C1654 C 0.7613 0.87796 0.23996 0.0
C1655 C 0.76567 0.90567 0.25252 0.0
C1656 C 0.77699 0.92115 0.25716 0.0
C1657 C 0.7431 0.87793 0.24331 0.0
C1658 C 0.73608 0.89186 0.25145 0.0
C1659 C 0.74746 0.90548 0.25605 0.0
C1660 C 0.71728 0.89154 0.25621 0.0
C1661 C 0.73154 0.86272 0.23845 0.0
C1662 C 0.70303 0.89428 0.24702 0.0
C1663 C 0.68534 0.89196 0.25143 0.0
C1664 C 0.68174 0.88665 0.26504 0.0
C1665 C 0.69605 0.88461 0.27429 0.0
C1666 C 0.7136 0.88713 0.26994 0.0
H1667 H 0.73945 0.85187 0.23363 0.0
H1668 H 0.72385 0.8571 0.24721 0.0
H1669 H 0.72184 0.86773 0.23073 0.0
H1670 H 0.70562 0.89775 0.23636 0.0
H1671 H 0.67459 0.89358 0.24408 0.0
H1672 H 0.36726 0.42348 0.49551 0.0
H1673 H 0.36525 0.45489 0.48828 0.0
H1674 H 0.37312 0.47154 0.5304 0.0
H1675 H 0.37574 0.44056 0.53753 0.0
H1676 H 0.34339 0.48289 0.49534 0.0
H1677 H 0.41268 0.49792 0.51129 0.0
H1678 H 0.40424 0.47546 0.5103 0.0
H1679 H 0.39958 0.48908 0.52515 0.0
C1680 C 0.36851 0.43389 0.50319 0.0
C1681 C 0.37195 0.42958 0.51703 0.0
C1682 C 0.36736 0.4518 0.49907 0.0
C1683 C 0.36951 0.4656 0.50875 0.0
C1684 C 0.372 0.4612 0.52267 0.0
H1685 H 0.36259 0.5823 0.50327 0.0
H1686 H 0.35921 0.55121 0.51106 0.0
C1687 C 0.37342 0.44343 0.52673 0.0
C1688 C 0.36953 0.48463 0.50443 0.0
H1689 H 0.39441 0.52279 0.50571 0.0
C1690 C 0.35456 0.49159 0.49758 0.0
C1691 C 0.38417 0.49601 0.50727 0.0
C1692 C 0.40114 0.48921 0.51378 0.0
C1693 C 0.35377 0.50964 0.49371 0.0
C1694 C 0.36823 0.52098 0.49683 0.0
C1695 C 0.3832 0.51407 0.5036 0.0
C1696 C 0.36885 0.53969 0.49203 0.0
C1697 C 0.33762 0.51657 0.48619 0.0
C1698 C 0.37537 0.54337 0.47882 0.0
C1699 C 0.37747 0.56094 0.47444 0.0
C1700 C 0.37303 0.57526 0.48317 0.0
C1701 C 0.3661 0.57156 0.49633 0.0
C1702 C 0.36415 0.55385 0.50077 0.0
H1703 H 0.32689 0.50643 0.48543 0.0
H1704 H 0.33233 0.52853 0.49154 0.0
H1705 H 0.34152 0.52071 0.47562 0.0
H1706 H 0.37916 0.53261 0.47197 0.0
H1707 H 0.38274 0.56329 0.4642 0.0
H1708 H 0.83338 0.11642 0.74456 0.0
H1709 H 0.80193 0.11435 0.73733 0.0
H1710 H 0.78524 0.12445 0.77914 0.0
H1711 H 0.81621 0.12702 0.78627 0.0
H1712 H 0.77293 0.09305 0.74562 0.0
H1713 H 0.76032 0.16396 0.75828 0.0
H1714 H 0.7825 0.15478 0.75739 0.0
H1715 H 0.76906 0.15158 0.77257 0.0
C1716 C 0.82296 0.1181 0.75217 0.0
C1717 C 0.82727 0.12219 0.76592 0.0
C1718 C 0.80502 0.11692 0.74805 0.0
C1719 C 0.7912 0.11968 0.75764 0.0
C1720 C 0.7956 0.12278 0.77148 0.0
H1721 H 0.67451 0.10959 0.75151 0.0
H1722 H 0.70577 0.10614 0.75897 0.0
C1723 C 0.81337 0.1242 0.77553 0.0
C1724 C 0.77216 0.11995 0.75331 0.0
H1725 H 0.73488 0.14617 0.75347 0.0
C1726 C 0.76462 0.10466 0.74732 0.0
C1727 C 0.76131 0.13517 0.75544 0.0
C1728 C 0.76873 0.15236 0.76115 0.0
C1729 C 0.74646 0.10414 0.74363 0.0
C1730 C 0.73563 0.11921 0.74605 0.0
C1731 C 0.74318 0.13452 0.75189 0.0
C1732 C 0.71683 0.12006 0.74141 0.0
C1733 C 0.73893 0.08767 0.73693 0.0
C1734 C 0.7128 0.12902 0.72915 0.0
C1735 C 0.69515 0.13105 0.72494 0.0
C1736 C 0.68103 0.12421 0.73291 0.0
C1737 C 0.68507 0.11502 0.74516 0.0
C1738 C 0.70288 0.11299 0.7494 0.0
H1739 H 0.7491 0.07703 0.73568 0.0
H1740 H 0.72776 0.08242 0.74324 0.0
H1741 H 0.73346 0.09112 0.72663 0.0
H1742 H 0.72336 0.13463 0.72289 0.0
H1743 H 0.6926 0.13813 0.71541 0.0
H1744 H 0.86456 0.58504 0.99244 0.0
H1745 H 0.86092 0.55395 0.98461 0.0
H1746 H 0.87475 0.5352 0.02522 0.0
H1747 H 0.87864 0.56581 0.033 0.0
H1748 H 0.89301 0.52504 0.991 0.0
H1749 H 0.82491 0.50965 0.01044 0.0
H1750 H 0.83125 0.53181 0.00498 0.0
H1751 H 0.83948 0.52309 0.02096 0.0
C1752 C 0.86665 0.57426 -0.00031 0.0
C1753 C 0.87199 0.57787 0.0133 0.0
C1754 C 0.86456 0.55656 0.99523 0.0
C1755 C 0.86746 0.54234 0.0044 0.0
C1756 C 0.87234 0.54599 0.01803 0.0
H1757 H 0.86577 0.42612 0.00348 0.0
H1758 H 0.86334 0.45783 0.00984 0.0
C1759 C 0.87464 0.56352 0.02242 0.0
C1760 C 0.86674 0.52356 -0.00027 0.0
H1761 H 0.84189 0.48551 0.0019 0.0
C1762 C 0.88176 0.51641 0.9932 0.0
C1763 C 0.85224 0.51232 0.00299 0.0
C1764 C 0.83596 0.5195 0.01019 0.0
C1765 C 0.88281 0.4982 0.98998 0.0
C1766 C 0.86815 0.4869 0.99299 0.0
C1767 C 0.85308 0.49412 -0.00046 0.0
C1768 C 0.86823 0.46768 0.98918 0.0
C1769 C 0.89991 0.49117 0.98384 0.0
C1770 C 0.87116 0.46266 0.97545 0.0
C1771 C 0.87283 0.44474 0.9719 0.0
C1772 C 0.87117 0.43131 0.98193 0.0
C1773 C 0.86718 0.43619 0.99557 0.0
C1774 C 0.8658 0.45428 -0.00082 0.0
H1775 H 0.91139 0.49998 0.98626 0.0
H1776 H 0.90296 0.47757 0.98767 0.0
H1777 H 0.89858 0.49062 0.97245 0.0
H1778 H 0.87246 0.47266 0.96746 0.0
H1779 H 0.87557 0.4414 0.96124 0.0
H1780 H 0.1905 0.13963 0.77894 0.0
H1781 H 0.22121 0.13654 0.77141 0.0
H1782 H 0.20429 0.1037 0.7374 0.0
H1783 H 0.17302 0.10667 0.74498 0.0
H1784 H 0.23701 0.09173 0.75419 0.0
H1785 H 0.23962 0.16146 0.73515 0.0
H1786 H 0.23047 0.15879 0.75215 0.0
H1787 H 0.21892 0.14959 0.73757 0.0
C1788 C 0.19316 0.1317 0.76985 0.0
C1789 C 0.17921 0.12351 0.76249 0.0
C1790 C 0.2108 0.12994 0.76558 0.0
C1791 C 0.21502 0.12001 0.75381 0.0
C1792 C 0.20127 0.11144 0.74652 0.0
H1793 H 0.31534 0.13227 0.71158 0.0
H1794 H 0.28429 0.12857 0.71801 0.0
C1795 C 0.18344 0.11321 0.75082 0.0
C1796 C 0.2338 0.11942 0.74904 0.0
H1797 H 0.26719 0.14642 0.73748 0.0
C1798 C 0.24363 0.1036 0.75039 0.0
C1799 C 0.24236 0.13493 0.7441 0.0
C1800 C 0.23231 0.15215 0.74203 0.0
C1801 C 0.26193 0.10298 0.74711 0.0
C1802 C 0.27061 0.11869 0.74258 0.0
C1803 C 0.26062 0.1344 0.74106 0.0
C1804 C 0.28981 0.11918 0.73865 0.0
C1805 C 0.27171 0.08551 0.74837 0.0
C1806 C 0.30346 0.11494 0.74808 0.0
C1807 C 0.32148 0.11691 0.74435 0.0
C1808 C 0.32605 0.12344 0.73123 0.0
C1809 C 0.31233 0.12739 0.72183 0.0
C1810 C 0.2945 0.12524 0.72548 0.0
H1811 H 0.26238 0.07402 0.74852 0.0
H1812 H 0.28124 0.08372 0.73972 0.0
H1813 H 0.27937 0.0854 0.75815 0.0
H1814 H 0.3002 0.11058 0.75841 0.0
H1815 H 0.33175 0.11381 0.75181 0.0
H1816 H 0.63375 0.44175 0.53353 0.0
H1817 H 0.63731 0.47207 0.52501 0.0
H1818 H 0.6424 0.45219 0.4835 0.0
H1819 H 0.63899 0.42141 0.49206 0.0
H1820 H 0.66639 0.48813 0.50678 0.0
H1821 H 0.5975 0.48784 0.4853 0.0
H1822 H 0.6044 0.47234 0.4985 0.0
H1823 H 0.61206 0.46953 0.48114 0.0
C1824 C 0.63581 0.44374 0.52258 0.0
C1825 C 0.63594 0.42918 0.51344 0.0
C1826 C 0.63792 0.46111 0.51775 0.0
C1827 C 0.64002 0.46438 0.50365 0.0
C1828 C 0.64075 0.44989 0.49445 0.0
H1829 H 0.62763 0.56446 0.46046 0.0
H1830 H 0.63199 0.53347 0.46689 0.0
C1831 C 0.63885 0.43235 0.49933 0.0
C1832 C 0.64017 0.48309 0.4987 0.0
H1833 H 0.61339 0.51465 0.48417 0.0
C1834 C 0.65491 0.49395 0.5017 0.0
C1835 C 0.6251 0.49063 0.49222 0.0
C1836 C 0.60877 0.4796 0.48912 0.0
C1837 C 0.65504 0.51217 0.49824 0.0
C1838 C 0.63977 0.51984 0.49201 0.0
C1839 C 0.6251 0.50885 0.48896 0.0
C1840 C 0.63871 0.53905 0.48815 0.0
C1841 C 0.67163 0.5229 0.50108 0.0
C1842 C 0.64122 0.55274 0.49791 0.0
C1843 C 0.63898 0.5707 0.49417 0.0
C1844 C 0.63379 0.57519 0.48069 0.0
C1845 C 0.63147 0.56147 0.47097 0.0
C1846 C 0.63398 0.54369 0.47463 0.0
H1847 H 0.68357 0.51423 0.50196 0.0
H1848 H 0.67403 0.53288 0.49283 0.0
H1849 H 0.67003 0.53008 0.511 0.0
H1850 H 0.64445 0.54954 0.50851 0.0
H1851 H 0.64074 0.58098 0.50188 0.0
H1852 H 0.19212 0.86549 0.21607 0.0
H1853 H 0.22264 0.86853 0.22407 0.0
H1854 H 0.20457 0.89864 0.25923 0.0
H1855 H 0.17351 0.89578 0.25114 0.0
H1856 H 0.23692 0.91248 0.24466 0.0
H1857 H 0.24138 0.84081 0.25823 0.0
H1858 H 0.23327 0.845 0.24111 0.0
H1859 H 0.22036 0.85205 0.25573 0.0
C1860 C 0.19449 0.8728 0.22552 0.0
C1861 C 0.18028 0.88024 0.23305 0.0
C1862 C 0.21203 0.87452 0.23007 0.0
C1863 C 0.21588 0.88362 0.24231 0.0
C1864 C 0.20185 0.89151 0.24975 0.0
H1865 H 0.3152 0.86951 0.28561 0.0
H1866 H 0.28428 0.87299 0.27876 0.0
C1867 C 0.18413 0.88981 0.24516 0.0
C1868 C 0.23457 0.88412 0.24737 0.0
H1869 H 0.26859 0.85684 0.25735 0.0
C1870 C 0.24385 0.90037 0.24757 0.0
C1871 C 0.24356 0.86831 0.25118 0.0
C1872 C 0.23412 0.85056 0.25169 0.0
C1873 C 0.26201 0.90115 0.25126 0.0
C1874 C 0.27114 0.88521 0.25464 0.0
C1875 C 0.2617 0.86905 0.25463 0.0
C1876 C 0.29019 0.88486 0.25896 0.0
C1877 C 0.2712 0.919 0.25169 0.0
C1878 C 0.30401 0.89054 0.25017 0.0
C1879 C 0.32195 0.88865 0.25413 0.0
C1880 C 0.32631 0.88082 0.26687 0.0
C1881 C 0.3124 0.87546 0.27567 0.0
C1882 C 0.29463 0.87747 0.27178 0.0
H1883 H 0.26149 0.93015 0.25209 0.0
H1884 H 0.28019 0.91995 0.26075 0.0
H1885 H 0.27939 0.92062 0.24224 0.0
H1886 H 0.30095 0.89598 0.2401 0.0
H1887 H 0.33236 0.89286 0.24712 0.0
H1888 H 0.61037 0.06511 0.52372 0.0
H1889 H 0.61587 0.03453 0.5168 0.0
H1890 H 0.66153 0.05138 0.49316 0.0
H1891 H 0.65579 0.08256 0.49991 0.0
H1892 H 0.64182 0.02666 0.47939 0.0
H1893 H 0.65359 1.00203 0.53213 0.0
H1894 H 0.63269 0.01352 0.53128 0.0
H1895 H 0.65311 0.0255 0.52806 0.0
C1896 C 0.62163 0.06241 0.51705 0.0
C1897 C 0.63277 0.07628 0.51249 0.0
C1898 C 0.62484 0.04483 0.51319 0.0
C1899 C 0.63947 0.0405 0.50485 0.0
C1900 C 0.65032 0.05436 0.49981 0.0
H1901 H 0.65454 0.92392 0.4953 0.0
H1902 H 0.66129 0.95519 0.50101 0.0
C1903 C 0.647 0.07216 0.5036 0.0
C1904 C 0.64273 0.0215 0.50121 0.0
H1905 H 0.64367 0.97988 0.51553 0.0
C1906 C 0.64259 0.01646 0.48729 0.0
C1907 C 0.64424 0.0081 0.51146 0.0
C1908 C 0.64613 0.0126 0.52655 0.0
C1909 C 0.6425 0.9984 0.4834 0.0
C1910 C 0.64204 0.98502 0.49372 0.0
C1911 C 0.64363 0.99006 0.5076 0.0
C1912 C 0.63831 0.96599 0.49039 0.0
C1913 C 0.64258 0.99389 0.46824 0.0
C1914 C 0.6229 0.96159 0.48296 0.0
C1915 C 0.61909 0.9439 0.47969 0.0
C1916 C 0.63044 0.93004 0.48396 0.0
C1917 C 0.64556 0.9343 0.49187 0.0
C1918 C 0.64946 0.95215 0.49507 0.0
H1919 H 0.64954 0.00436 0.46218 0.0
H1920 H 0.64916 0.98089 0.46626 0.0
H1921 H 0.62865 0.99319 0.46445 0.0
H1922 H 0.61371 0.97187 0.47968 0.0
H1923 H 0.6072 0.94111 0.47374 0.0
H1924 H 0.17463 0.40348 0.75052 0.0
H1925 H 0.20601 0.40922 0.74455 0.0
H1926 H 0.22157 0.36152 0.76624 0.0
H1927 H 0.19069 0.35603 0.77245 0.0
H1928 H 0.24279 0.38926 0.77299 0.0
H1929 H 0.23645 0.38421 0.71597 0.0
H1930 H 0.22258 0.40061 0.72414 0.0
H1931 H 0.21885 0.37737 0.72747 0.0
C1932 C 0.18477 0.39418 0.75388 0.0
C1933 C 0.18016 0.37931 0.76195 0.0
C1934 C 0.20269 0.39745 0.75046 0.0
C1935 C 0.2162 0.38575 0.75489 0.0
C1936 C 0.21147 0.37081 0.76277 0.0
H1937 H 0.31753 0.3566 0.72543 0.0
H1938 H 0.28667 0.3615 0.73203 0.0
C1939 C 0.19374 0.36766 0.76627 0.0
C1940 C 0.23536 0.38872 0.75155 0.0
H1941 H 0.26513 0.38881 0.72491 0.0
C1942 C 0.24769 0.38937 0.76247 0.0
C1943 C 0.24175 0.38883 0.73782 0.0
C1944 C 0.22929 0.38759 0.72565 0.0
C1945 C 0.26618 0.38924 0.76007 0.0
C1946 C 0.27257 0.38886 0.74635 0.0
C1947 C 0.26023 0.38912 0.73543 0.0
C1948 C 0.29176 0.38606 0.74303 0.0
C1949 C 0.27867 0.38845 0.77226 0.0
C1950 C 0.30512 0.39809 0.7472 0.0
C1951 C 0.32303 0.39515 0.74356 0.0
C1952 C 0.32775 0.38029 0.73553 0.0
C1953 C 0.31436 0.36823 0.73157 0.0
C1954 C 0.29664 0.37105 0.73529 0.0
H1955 H 0.27155 0.38524 0.78199 0.0
H1956 H 0.28922 0.37832 0.77058 0.0
H1957 H 0.28522 0.4016 0.77356 0.0
H1958 H 0.30167 0.40992 0.753 0.0
H1959 H 0.33303 0.40477 0.74663 0.0
H1960 H 0.86482 0.92373 0.99404 0.0
H1961 H 0.86248 0.95516 0.98678 0.0
H1962 H 0.87234 0.972 0.02858 0.0
H1963 H 0.87501 0.94107 0.03578 0.0
H1964 H 0.84066 0.98477 0.99609 0.0
H1965 H 0.91252 0.99581 0.00661 0.0
H1966 H 0.90289 0.97382 0.00548 0.0
H1967 H 0.90048 0.98675 0.02098 0.0
C1968 C 0.86632 0.93418 0.00165 0.0
C1969 C 0.87038 0.92994 0.01542 0.0
C1970 C 0.86498 0.95209 0.99752 0.0
C1971 C 0.86761 0.96592 0.00711 0.0
C1972 C 0.87067 0.96159 0.02095 0.0
H1973 H 0.85606 0.08228 0.00092 0.0
H1974 H 0.85275 0.05091 0.00805 0.0
C1975 C 0.87217 0.94386 0.02504 0.0
C1976 C 0.86803 0.9849 0.00276 0.0
H1977 H 0.89508 0.02153 0.00216 0.0
C1978 C 0.85255 0.99281 0.99738 0.0
C1979 C 0.8836 0.99537 0.00439 0.0
C1980 C 0.90087 0.9875 0.00956 0.0
C1981 C 0.8522 0.011 0.9938 0.0
C1982 C 0.86766 0.02147 0.99572 0.0
C1983 C 0.88316 0.01351 0.00093 0.0
C1984 C 0.86862 0.04036 0.9913 0.0
C1985 C 0.83548 0.01891 0.98774 0.0
C1986 C 0.87872 0.04474 0.97966 0.0
C1987 C 0.88065 0.06246 0.97563 0.0
C1988 C 0.87261 0.07631 0.9832 0.0
C1989 C 0.86242 0.07193 0.99489 0.0
C1990 C 0.86045 0.05405 -0.00108 0.0
H1991 H 0.82497 0.00873 0.98602 0.0
H1992 H 0.83019 0.02928 0.9948 0.0
H1993 H 0.83859 0.02548 0.97777 0.0
H1994 H 0.88519 0.0344 0.97369 0.0
H1995 H 0.88856 0.06527 0.96654 0.0
H1996 H 0.31648 0.64879 0.27205 0.0
H1997 H 0.28567 0.64333 0.2656 0.0
H1998 H 0.30119 0.59482 0.24504 0.0
H1999 H 0.33256 0.60048 0.2513 0.0
H2000 H 0.2766 0.61345 0.23018 0.0
H2001 H 0.2528 0.60802 0.28381 0.0
H2002 H 0.26456 0.62854 0.28129 0.0
H2003 H 0.27619 0.60766 0.27946 0.0
C2004 C 0.31343 0.63694 0.26612 0.0
C2005 C 0.32698 0.62496 0.2623 0.0
C2006 C 0.29572 0.63376 0.26255 0.0
C2007 C 0.29096 0.61836 0.25525 0.0
C2008 C 0.30451 0.60667 0.25088 0.0
H2009 H 0.17443 0.60048 0.24734 0.0
H2010 H 0.2059 0.59538 0.25351 0.0
C2011 C 0.32242 0.60994 0.25439 0.0
C2012 C 0.27181 0.61501 0.25203 0.0
H2013 H 0.2304 0.61549 0.26677 0.0
C2014 C 0.26653 0.61357 0.2382 0.0
C2015 C 0.25859 0.6147 0.26247 0.0
C2016 C 0.26335 0.6146 0.27759 0.0
C2017 C 0.2484 0.61312 0.2345 0.0
C2018 C 0.23518 0.61459 0.24489 0.0
C2019 C 0.24047 0.61472 0.25876 0.0
C2020 C 0.21601 0.61751 0.2415 0.0
C2021 C 0.24364 0.6113 0.21946 0.0
C2022 C 0.21114 0.63196 0.23314 0.0
C2023 C 0.19335 0.63483 0.22963 0.0
C2024 C 0.17984 0.6235 0.23454 0.0
C2025 C 0.18454 0.60943 0.2434 0.0
C2026 C 0.20251 0.60647 0.24686 0.0
H2027 H 0.25417 0.604 0.21372 0.0
H2028 H 0.23078 0.60421 0.21806 0.0
H2029 H 0.24248 0.62476 0.21481 0.0
H2030 H 0.22116 0.64107 0.22928 0.0
H2031 H 0.19022 0.64595 0.22293 0.0
H2032 H 0.39644 0.06557 0.52479 0.0
H2033 H 0.39154 0.03483 0.51788 0.0
H2034 H 0.34555 0.05085 0.49423 0.0
H2035 H 0.35084 0.08209 0.50082 0.0
H2036 H 0.36398 0.01362 0.52325 0.0
H2037 H 0.37171 0.0207 0.46648 0.0
H2038 H 0.37765 0.03828 0.47829 0.0
H2039 H 0.35466 0.03426 0.47413 0.0
C2040 C 0.38535 0.06263 0.518 0.0
C2041 C 0.37404 0.07627 0.51331 0.0
C2042 C 0.38252 0.04499 0.5141 0.0
C2043 C 0.36822 0.04043 0.50549 0.0
C2044 C 0.35688 0.05404 0.50068 0.0
H2045 H 0.34992 0.92375 0.49672 0.0
H2046 H 0.34439 0.95511 0.50277 0.0
C2047 C 0.35987 0.07187 0.50446 0.0
C2048 C 0.36543 0.02134 0.50189 0.0
H2049 H 0.36637 0.99194 0.47503 0.0
C2050 C 0.36433 0.00887 0.51269 0.0
C2051 C 0.3659 0.01514 0.48812 0.0
C2052 C 0.36768 0.02773 0.47607 0.0
C2053 C 0.36463 0.99043 0.51016 0.0
C2054 C 0.36551 0.98423 0.49641 0.0
C2055 C 0.36567 0.9967 0.48558 0.0
C2056 C 0.36838 0.96508 0.49301 0.0
C2057 C 0.36506 0.97783 0.52229 0.0
C2058 C 0.38351 0.96024 0.4854 0.0
C2059 C 0.38653 0.94252 0.48182 0.0
C2060 C 0.37454 0.92908 0.48582 0.0
C2061 C 0.35948 0.93379 0.49363 0.0
C2062 C 0.35634 0.9517 0.4971 0.0
H2063 H 0.36819 0.98482 0.53209 0.0
H2064 H 0.35181 0.97144 0.52343 0.0
H2065 H 0.37511 0.96717 0.52068 0.0
H2066 H 0.39307 0.97025 0.48219 0.0
H2067 H 0.3983 0.93936 0.47583 0.0
H2068 H 0.69012 0.62464 0.28374 0.0
H2069 H 0.72083 0.6218 0.27604 0.0
H2070 H 0.70281 0.61229 0.2345 0.0
H2071 H 0.67156 0.61512 0.24221 0.0
H2072 H 0.73501 0.58954 0.24711 0.0
H2073 H 0.74089 0.66333 0.24967 0.0
H2074 H 0.73064 0.65266 0.26426 0.0
H2075 H 0.71971 0.65215 0.24781 0.0
C2076 C 0.69257 0.62173 0.27296 0.0
C2077 C 0.67836 0.62031 0.26354 0.0
C2078 C 0.71018 0.62006 0.2686 0.0
C2079 C 0.71411 0.617 0.25471 0.0
C2080 C 0.70002 0.61465 0.2453 0.0
H2081 H 0.81437 0.64189 0.21605 0.0
H2082 H 0.78339 0.6379 0.22255 0.0
C2083 C 0.6822 0.61626 0.2497 0.0
C2084 C 0.73297 0.61786 0.2501 0.0
H2085 H 0.76754 0.64708 0.24662 0.0
C2086 C 0.74214 0.6021 0.24687 0.0
C2087 C 0.74222 0.63426 0.24986 0.0
C2088 C 0.7329 0.65162 0.25298 0.0
C2089 C 0.76043 0.60235 0.24352 0.0
C2090 C 0.76978 0.61875 0.2436 0.0
C2091 C 0.76046 0.63448 0.24668 0.0
C2092 C 0.78891 0.62026 0.23964 0.0
C2093 C 0.76953 0.58513 0.23971 0.0
C2094 C 0.80254 0.61175 0.24716 0.0
C2095 C 0.82053 0.61401 0.24343 0.0
C2096 C 0.82513 0.6249 0.23217 0.0
C2097 C 0.81141 0.63342 0.22479 0.0
C2098 C 0.79359 0.63114 0.22848 0.0
H2099 H 0.75977 0.57449 0.23718 0.0
H2100 H 0.77853 0.58707 0.23075 0.0
H2101 H 0.7777 0.58051 0.24855 0.0
H2102 H 0.79929 0.60356 0.256 0.0
H2103 H 0.83077 0.60728 0.24932 0.0
H2104 H 0.13892 0.92283 0.9935 0.0
H2105 H 0.14191 0.95406 0.98595 0.0
H2106 H 0.13379 0.97179 0.02774 0.0
H2107 H 0.13058 0.94096 0.03528 0.0
H2108 H 0.11298 0.9816 0.99188 0.0
H2109 H 0.17949 0.99937 0.01312 0.0
H2110 H 0.17329 0.97669 0.00904 0.0
H2111 H 0.1647 0.98717 0.02428 0.0
C2112 C 0.13801 0.9334 0.00107 0.0
C2113 C 0.13445 0.92943 0.01497 0.0
C2114 C 0.1397 0.9512 0.99676 0.0
C2115 C 0.13825 0.96521 0.00633 0.0
C2116 C 0.13519 0.9612 0.02022 0.0
H2117 H 0.13586 0.08202 0.00276 0.0
H2118 H 0.13862 0.05079 0.01042 0.0
C2119 C 0.13325 0.94354 0.02449 0.0
C2120 C 0.13847 0.98412 0.0018 0.0
H2121 H 0.16187 0.02307 0.00445 0.0
C2122 C 0.12374 0.99064 0.99449 0.0
C2123 C 0.15233 0.99595 0.00553 0.0
C2124 C 0.16844 0.98951 0.01336 0.0
C2125 C 0.12237 0.00873 0.99093 0.0
C2126 C 0.13642 0.02058 0.99439 0.0
C2127 C 0.15114 0.01404 0.00177 0.0
C2128 C 0.13621 0.03958 0.98992 0.0
C2129 C 0.10561 0.01505 0.98384 0.0
C2130 C 0.13462 0.04369 0.97588 0.0
C2131 C 0.13283 0.06132 0.97157 0.0
C2132 C 0.13298 0.07539 0.98115 0.0
C2133 C 0.13564 0.07145 0.99517 0.0
C2134 C 0.1372 0.05363 -0.00047 0.0
H2135 H 0.0942 0.00601 0.98593 0.0
H2136 H 0.10192 0.0287 0.98719 0.0
H2137 H 0.10782 0.01522 0.97253 0.0
H2138 H 0.13442 0.03319 0.96822 0.0
H2139 H 0.13113 0.06391 0.96066 0.0
H2140 H 0.83211 0.39209 0.74493 0.0
H2141 H 0.80081 0.39521 0.73753 0.0
H2142 H 0.78318 0.3788 0.77786 0.0
H2143 H 0.81407 0.37542 0.78522 0.0
H2144 H 0.77301 0.36273 0.74239 0.0
H2145 H 0.75589 0.42829 0.76578 0.0
H2146 H 0.77825 0.423 0.76013 0.0
H2147 H 0.76954 0.41301 0.7755 0.0
C2148 C 0.82154 0.38929 0.75221 0.0
C2149 C 0.82557 0.38342 0.76562 0.0
C2150 C 0.80371 0.39108 0.748 0.0
C2151 C 0.78973 0.38737 0.75721 0.0
C2152 C 0.79377 0.38187 0.77064 0.0
H2153 H 0.67297 0.38645 0.75384 0.0
H2154 H 0.70426 0.38873 0.76149 0.0
C2155 C 0.81146 0.37987 0.77479 0.0
C2156 C 0.77086 0.38797 0.75271 0.0
H2157 H 0.73227 0.41184 0.75586 0.0
C2158 C 0.76411 0.37353 0.7452 0.0
C2159 C 0.75926 0.40186 0.75673 0.0
C2160 C 0.76599 0.41752 0.76495 0.0
C2161 C 0.746 0.37254 0.74164 0.0
C2162 C 0.73438 0.38666 0.74535 0.0
C2163 C 0.74114 0.40107 0.75297 0.0
C2164 C 0.71537 0.38685 0.74092 0.0
C2165 C 0.73942 0.35608 0.73428 0.0
C2166 C 0.7112 0.38573 0.72686 0.0
C2167 C 0.69355 0.3842 0.72256 0.0
C2168 C 0.67952 0.38415 0.73218 0.0
C2169 C 0.68352 0.38639 0.74622 0.0
C2170 C 0.70136 0.38767 0.75058 0.0
H2171 H 0.74831 0.34449 0.73614 0.0
H2172 H 0.72572 0.35248 0.73761 0.0
H2173 H 0.73922 0.35863 0.72301 0.0
H2174 H 0.72168 0.38566 0.71918 0.0
H2175 H 0.6909 0.38283 0.71163 0.0
H2176 H 0.16129 0.82732 0.02903 0.0
H2177 H 0.1695 0.7964 0.02348 0.0
H2178 H 0.11775 0.78839 0.00512 0.0
H2179 H 0.10983 0.81915 0.01039 0.0
H2180 H 0.15334 0.76889 0.03476 0.0
H2181 H 0.14711 0.76042 0.97863 0.0
H2182 H 0.14873 0.78215 0.98652 0.0
H2183 H 0.1275 0.77099 0.98523 0.0
C2184 C 0.15209 0.81917 0.02317 0.0
C2185 C 0.13511 0.8257 0.01981 0.0
C2186 C 0.15669 0.80144 0.02013 0.0
C2187 C 0.14437 0.78999 0.01368 0.0
C2188 C 0.12776 0.79695 0.00968 0.0
H2189 H 0.10468 0.68743 0.0165 0.0
H2190 H 0.11395 0.71779 0.01093 0.0
C2191 C 0.1232 0.81458 0.01271 0.0
C2192 C 0.14747 0.77033 0.01306 0.0
H2193 H 0.14069 0.73389 0.99252 0.0
C2194 C 0.15112 0.76127 0.02542 0.0
C2195 C 0.1446 0.76025 0.0009 0.0
C2196 C 0.14196 0.76902 0.98706 0.0
C2197 C 0.15056 0.74255 0.02619 0.0
C2198 C 0.14637 0.73255 0.01425 0.0
C2199 C 0.14384 0.74153 0.00169 0.0
C2200 C 0.14188 0.71325 0.01514 0.0
C2201 C 0.15317 0.73366 0.04 0.0
C2202 C 0.15463 0.70031 0.01878 0.0
C2203 C 0.14934 0.68275 0.0218 0.0
C2204 C 0.13123 0.67801 0.0213 0.0
C2205 C 0.11874 0.69071 0.01685 0.0
C2206 C 0.12402 0.70808 0.01369 0.0
H2207 H 0.15448 0.74344 0.04854 0.0
H2208 H 0.14178 0.72469 0.0423 0.0
H2209 H 0.16544 0.72541 0.03972 0.0
H2210 H 0.16851 0.70399 0.01988 0.0
H2211 H 0.15917 0.67327 0.02541 0.0
H2212 H 0.58191 0.90533 0.28127 0.0
H2213 H 0.55081 0.91513 0.2784 0.0
H2214 H 0.53895 0.86673 0.25633 0.0
H2215 H 0.56982 0.85682 0.2594 0.0
H2216 H 0.52088 0.90412 0.24715 0.0
H2217 H 0.51396 0.88092 0.30151 0.0
H2218 H 0.53235 0.89523 0.29705 0.0
H2219 H 0.53163 0.87291 0.29052 0.0
C2220 C 0.57283 0.89719 0.27529 0.0
C2221 C 0.57826 0.88045 0.27038 0.0
C2222 C 0.55506 0.90273 0.27373 0.0
C2223 C 0.54258 0.89165 0.26713 0.0
C2224 C 0.54838 0.87555 0.26133 0.0
H2225 H 0.43065 0.8745 0.25642 0.0
H2226 H 0.462 0.88119 0.25183 0.0
C2227 C 0.56602 0.86993 0.26305 0.0
C2228 C 0.52314 0.89525 0.26817 0.0
H2229 H 0.488 0.88932 0.29 0.0
C2230 C 0.51366 0.90115 0.25656 0.0
C2231 C 0.51377 0.89133 0.28043 0.0
C2232 C 0.52332 0.88467 0.29313 0.0
C2233 C 0.49495 0.90308 0.25688 0.0
C2234 C 0.48546 0.89847 0.26902 0.0
C2235 C 0.49513 0.89298 0.28069 0.0
C2236 C 0.46554 0.89799 0.26981 0.0
C2237 C 0.48562 0.91011 0.24423 0.0
C2238 C 0.45674 0.90549 0.28123 0.0
C2239 C 0.43889 0.90138 0.28395 0.0
C2240 C 0.42932 0.89002 0.27517 0.0
C2241 C 0.43757 0.88377 0.26311 0.0
C2242 C 0.45557 0.88759 0.2605 0.0
H2243 H 0.49454 0.91896 0.23817 0.0
H2244 H 0.48186 0.89876 0.23751 0.0
H2245 H 0.47337 0.91761 0.24697 0.0
H2246 H 0.46405 0.91352 0.28859 0.0
H2247 H 0.43296 0.90602 0.29349 0.0
H2248 H 0.39564 0.18872 0.51227 0.0
H2249 H 0.38528 0.21894 0.50742 0.0
H2250 H 0.33313 0.20524 0.52281 0.0
H2251 H 0.34361 0.17476 0.5277 0.0
H2252 H 0.35573 0.23584 0.49278 0.0
H2253 H 0.35281 0.24345 0.54992 0.0
H2254 H 0.3636 0.22467 0.54187 0.0
H2255 H 0.33973 0.22598 0.54228 0.0
C2256 C 0.38177 0.19197 0.51411 0.0
C2257 C 0.37036 0.17944 0.52023 0.0
C2258 C 0.37587 0.20926 0.51137 0.0
C2259 C 0.35851 0.21443 0.5149 0.0
C2260 C 0.34663 0.20155 0.52009 0.0
H2261 H 0.34014 0.32639 0.5347 0.0
H2262 H 0.33171 0.2958 0.52858 0.0
C2263 C 0.35254 0.18412 0.52274 0.0
C2264 C 0.354 0.23373 0.51487 0.0
H2265 H 0.3504 0.26921 0.5367 0.0
C2266 C 0.35419 0.24315 0.50236 0.0
C2267 C 0.35199 0.24327 0.52737 0.0
C2268 C 0.3521 0.23394 0.54116 0.0
C2269 C 0.35304 0.26187 0.50204 0.0
C2270 C 0.35217 0.27149 0.5146 0.0
C2271 C 0.35102 0.26195 0.52705 0.0
C2272 C 0.35455 0.29123 0.51538 0.0
C2273 C 0.35301 0.2711 0.48823 0.0
C2274 C 0.36975 0.29922 0.50957 0.0
C2275 C 0.37428 0.31681 0.5128 0.0
C2276 C 0.36383 0.32671 0.52203 0.0
C2277 C 0.34811 0.31918 0.52724 0.0
C2278 C 0.34342 0.30163 0.52385 0.0
H2279 H 0.34649 0.26268 0.48027 0.0
H2280 H 0.34603 0.28413 0.48868 0.0
H2281 H 0.36697 0.27337 0.48488 0.0
H2282 H 0.37893 0.29146 0.5034 0.0
H2283 H 0.38679 0.32214 0.50905 0.0
H2284 H 0.93936 0.1033 0.79523 0.0
H2285 H 0.96937 0.09571 0.78766 0.0
H2286 H 0.95565 0.11035 0.74599 0.0
H2287 H 0.92536 0.11825 0.75366 0.0
H2288 H 0.98595 0.07394 0.76816 0.0
H2289 H 0.99496 0.14593 0.75586 0.0
H2290 H 0.97567 0.13788 0.76502 0.0
H2291 H 0.97767 0.13423 0.74678 0.0
C2292 C 0.94255 0.1044 0.78436 0.0
C2293 C 0.93004 0.11147 0.77505 0.0
C2294 C 0.95975 0.10007 0.78004 0.0
C2295 C 0.96496 0.10283 0.76631 0.0
C2296 C 0.95204 0.10842 0.7567 0.0
H2297 H 0.07963 0.11981 0.75172 0.0
H2298 H 0.0491 0.11147 0.74501 0.0
C2299 C 0.93467 0.1127 0.76104 0.0
C2300 C 0.98429 0.10173 0.76281 0.0
H2301 H 0.02047 0.1283 0.75675 0.0
C2302 C 0.99346 0.08574 0.76535 0.0
C2303 C 0.99418 0.1171 0.75912 0.0
C2304 C 0.98523 0.13482 0.7566 0.0
C2305 C 0.01221 0.08495 0.76506 0.0
C2306 C 0.02211 0.10062 0.76235 0.0
C2307 C 0.01292 0.11627 0.75882 0.0
C2308 C 0.0416 0.10192 0.76526 0.0
C2309 C 0.02124 0.06744 0.7681 0.0
C2310 C 0.04774 0.09886 0.77873 0.0
C2311 C 0.06505 0.10364 0.78253 0.0
C2312 C 0.07669 0.11152 0.77297 0.0
C2313 C 0.07106 0.11341 0.75922 0.0
C2314 C 0.05357 0.1088 0.75543 0.0
H2315 H 0.01279 0.05605 0.76483 0.0
H2316 H 0.03436 0.06646 0.76286 0.0
H2317 H 0.02339 0.06626 0.77939 0.0
H2318 H 0.03875 0.09399 0.78661 0.0
H2319 H 0.06895 0.10227 0.79324 0.0
H2320 H 0.13135 0.17394 0.99239 0.0
H2321 H 0.1389 0.20452 -0.00035 0.0
H2322 H 0.15056 0.21828 0.95743 0.0
H2323 H 0.14327 0.18805 0.95026 0.0
H2324 H 0.17377 0.23472 0.97614 0.0
H2325 H 0.10264 0.24399 0.99115 0.0
H2326 H 0.11492 0.22661 -0.00035 0.0
H2327 H 0.11 0.22473 0.9816 0.0
C2328 C 0.13609 0.18337 0.98477 0.0
C2329 C 0.13663 0.17865 0.97075 0.0
C2330 C 0.14019 0.2009 0.98889 0.0
C2331 C 0.14495 0.21385 0.97903 0.0
C2332 C 0.14685 0.20863 0.96523 0.0
H2333 H 0.14449 0.31755 0.95156 0.0
H2334 H 0.15262 0.28725 0.95805 0.0
C2335 C 0.14268 0.1913 0.96113 0.0
C2336 C 0.1463 0.23318 0.98247 0.0
H2337 H 0.12022 0.2695 0.98927 0.0
C2338 C 0.16216 0.24229 0.97932 0.0
C2339 C 0.1312 0.24315 0.98666 0.0
C2340 C 0.11366 0.23424 0.9899 0.0
C2341 C 0.16302 0.26102 0.97949 0.0
C2342 C 0.14754 0.27099 0.98267 0.0
C2343 C 0.13209 0.26189 0.98682 0.0
C2344 C 0.14615 0.29044 0.97966 0.0
C2345 C 0.18035 0.26997 0.97578 0.0
C2346 C 0.1401 0.30262 0.98967 0.0
C2347 C 0.13559 0.32017 0.98595 0.0
C2348 C 0.13672 0.32565 0.97212 0.0
C2349 C 0.14371 0.31375 0.96232 0.0
C2350 C 0.1484 0.2964 0.96605 0.0
H2351 H 0.19192 0.2615 0.97866 0.0
H2352 H 0.18085 0.27207 0.96446 0.0
H2353 H 0.1817 0.2831 0.98095 0.0
H2354 H 0.13806 0.2983 0.0002 0.0
H2355 H 0.1299 0.32894 0.99365 0.0
H2356 H 0.9273 0.88157 0.24342 0.0
H2357 H 0.95786 0.8897 0.25032 0.0
H2358 H 0.96908 0.90614 0.20861 0.0
H2359 H 0.93891 0.89808 0.20178 0.0
H2360 H 0.98725 0.87296 0.23914 0.0
H2361 H 0.99364 0.94519 0.23027 0.0
H2362 H 0.97226 0.93439 0.23218 0.0
H2363 H 0.98346 0.93447 0.21575 0.0
C2364 C 0.93612 0.88758 0.2359 0.0
C2365 C 0.93071 0.88931 0.22209 0.0
C2366 C 0.9536 0.89211 0.23981 0.0
C2367 C 0.96578 0.89876 0.23003 0.0
C2368 C 0.95993 0.90146 0.21644 0.0
H2369 H 0.06853 0.89868 0.20117 0.0
H2370 H 0.03822 0.9058 0.20831 0.0
C2371 C 0.94265 0.89677 0.21253 0.0
C2372 C 0.98517 0.90049 0.23319 0.0
H2373 H 0.02088 0.92778 0.22742 0.0
C2374 C 0.9946 0.88509 0.237 0.0
C2375 C 0.9948 0.9163 0.2304 0.0
C2376 C 0.98547 0.93356 0.22706 0.0
C2377 C 0.01336 0.88464 0.23689 0.0
C2378 C 0.023 0.90014 0.23311 0.0
C2379 C 0.01355 0.91589 0.23029 0.0
C2380 C 0.04241 0.89937 0.22981 0.0
C2381 C 0.02264 0.86718 0.23974 0.0
C2382 C 0.05527 0.89437 0.23965 0.0
C2383 C 0.07282 0.89039 0.23556 0.0
C2384 C 0.07768 0.89132 0.22158 0.0
C2385 C 0.06518 0.89783 0.21202 0.0
C2386 C 0.0478 0.90188 0.21609 0.0
H2387 H 0.01313 0.85589 0.24057 0.0
H2388 H 0.03236 0.86413 0.23144 0.0
H2389 H 0.03007 0.86816 0.2496 0.0
H2390 H 0.05152 0.89265 0.25035 0.0
H2391 H 0.08211 0.88525 0.24313 0.0
H2392 H 0.34534 0.67932 0.45736 0.0
H2393 H 0.3369 0.71034 0.46178 0.0
H2394 H 0.37318 0.71201 0.49623 0.0
H2395 H 0.38113 0.68073 0.49209 0.0
H2396 H 0.34234 0.73482 0.49953 0.0
H2397 H 0.37665 0.74421 0.44928 0.0
H2398 H 0.35783 0.72948 0.44863 0.0
H2399 H 0.37718 0.72338 0.4585 0.0
C2400 C 0.35079 0.68605 0.4663 0.0
C2401 C 0.36369 0.67762 0.4745 0.0
C2402 C 0.34613 0.70383 0.46873 0.0
C2403 C 0.35471 0.71363 0.47914 0.0
C2404 C 0.36639 0.70473 0.48814 0.0
H2405 H 0.37856 0.82437 0.49443 0.0
H2406 H 0.37022 0.79319 0.49822 0.0
C2407 C 0.37084 0.68683 0.48583 0.0
C2408 C 0.35375 0.73345 0.47919 0.0
H2409 H 0.36476 0.7697 0.45972 0.0
C2410 C 0.34712 0.74249 0.4908 0.0
C2411 C 0.36023 0.74348 0.46788 0.0
C2412 C 0.36853 0.7347 0.45541 0.0
C2413 C 0.34653 0.76128 0.49128 0.0
C2414 C 0.35296 0.77125 0.47992 0.0
C2415 C 0.35955 0.76213 0.46835 0.0
C2416 C 0.35404 0.79111 0.47979 0.0
C2417 C 0.33887 0.77023 0.50386 0.0
C2418 C 0.34733 0.80062 0.46842 0.0
C2419 C 0.35232 0.81834 0.46617 0.0
C2420 C 0.36382 0.82703 0.47538 0.0
C2421 C 0.36924 0.81811 0.4874 0.0
C2422 C 0.36448 0.80024 0.48955 0.0
H2423 H 0.32954 0.76128 0.50944 0.0
H2424 H 0.34988 0.77368 0.51102 0.0
H2425 H 0.33174 0.78269 0.50109 0.0
H2426 H 0.33933 0.79391 0.46071 0.0
H2427 H 0.3483 0.82481 0.45668 0.0
H2428 H 0.43213 0.09645 0.70407 0.0
H2429 H 0.46316 0.08862 0.70879 0.0
H2430 H 0.46137 0.11939 0.74631 0.0
H2431 H 0.43006 0.12675 0.74176 0.0
H2432 H 0.48637 0.11603 0.7087 0.0
H2433 H 0.49434 0.07875 0.7577 0.0
H2434 H 0.47335 0.07996 0.74861 0.0
H2435 H 0.48073 0.09837 0.75899 0.0
C2436 C 0.43808 0.1007 0.71371 0.0
C2437 C 0.42863 0.11194 0.72267 0.0
C2438 C 0.45588 0.09636 0.71635 0.0
C2439 C 0.46471 0.10339 0.72791 0.0
C2440 C 0.45484 0.11347 0.73748 0.0
H2441 H 0.57591 0.12942 0.74162 0.0
H2442 H 0.54445 0.122 0.74565 0.0
C2443 C 0.43689 0.11763 0.7349 0.0
C2444 C 0.48459 0.10299 0.72842 0.0
H2445 H 0.52079 0.09137 0.74797 0.0
C2446 C 0.49385 0.11041 0.71723 0.0
C2447 C 0.49441 0.09603 0.73967 0.0
C2448 C 0.48523 0.08769 0.75189 0.0
C2449 C 0.51251 0.1112 0.71696 0.0
C2450 C 0.52241 0.10396 0.72806 0.0
C2451 C 0.51323 0.09669 0.73938 0.0
C2452 C 0.54228 0.1045 0.728 0.0
C2453 C 0.52144 0.12029 0.7049 0.0
C2454 C 0.55182 0.09624 0.7173 0.0
C2455 C 0.5697 0.10058 0.71495 0.0
C2456 C 0.5785 0.11284 0.72349 0.0
C2457 C 0.56954 0.1196 0.73508 0.0
C2458 C 0.55152 0.11547 0.73732 0.0
H2459 H 0.51205 0.12897 0.69914 0.0
H2460 H 0.53289 0.12853 0.70837 0.0
H2461 H 0.52652 0.11004 0.69765 0.0
H2462 H 0.54504 0.08755 0.71009 0.0
H2463 H 0.57622 0.09545 0.7058 0.0
H2464 H 0.84484 0.32579 0.95649 0.0
H2465 H 0.8365 0.29485 0.96105 0.0
H2466 H 0.86887 0.29521 0.9978 0.0
H2467 H 0.87671 0.32642 0.99344 0.0
H2468 H 0.86289 0.27091 0.95995 0.0
H2469 H 0.82825 0.26314 0.01006 0.0
H2470 H 0.82973 0.28429 0.00123 0.0
H2471 H 0.84835 0.27606 0.01101 0.0
C2472 C 0.84934 0.31955 0.96595 0.0
C2473 C 0.86112 0.32857 0.97476 0.0
C2474 C 0.84471 0.30181 0.96849 0.0
C2475 C 0.85201 0.2926 0.97979 0.0
C2476 C 0.86272 0.30204 0.98919 0.0
H2477 H 0.87776 0.18149 0.99239 0.0
H2478 H 0.87053 0.21293 0.99663 0.0
C2479 C 0.86716 0.31993 0.98673 0.0
C2480 C 0.85113 0.27273 0.98015 0.0
H2481 H 0.84025 0.23656 -3e-05 0.0
C2482 C 0.85768 0.26345 0.96864 0.0
C2483 C 0.8447 0.26292 0.99159 0.0
C2484 C 0.83721 0.27209 0.00414 0.0
C2485 C 0.85821 0.24478 0.96828 0.0
C2486 C 0.85159 0.23491 0.97962 0.0
C2487 C 0.84511 0.24411 0.99121 0.0
C2488 C 0.85208 0.21505 0.97957 0.0
C2489 C 0.86644 0.23582 0.95586 0.0
C2490 C 0.84323 0.20548 0.96916 0.0
C2491 C 0.84745 0.18761 0.96669 0.0
C2492 C 0.8602 0.17884 0.97483 0.0
C2493 C 0.86756 0.18783 0.98619 0.0
C2494 C 0.86354 0.20584 0.98854 0.0
H2495 H 0.87479 0.24517 0.94976 0.0
H2496 H 0.87484 0.22433 0.959 0.0
H2497 H 0.85569 0.23081 0.94903 0.0
H2498 H 0.83414 0.21224 0.96223 0.0
H2499 H 0.84184 0.18107 0.95772 0.0
H2500 H 0.65495 0.82598 0.45495 0.0
H2501 H 0.66383 0.79493 0.45865 0.0
H2502 H 0.63218 0.79325 0.49573 0.0
H2503 H 0.62386 0.82459 0.49229 0.0
H2504 H 0.66279 0.77041 0.49687 0.0
H2505 H 0.62324 0.76081 0.44907 0.0
H2506 H 0.64185 0.77557 0.44697 0.0
H2507 H 0.62377 0.78171 0.4582 0.0
C2508 C 0.65065 0.81924 0.46425 0.0
C2509 C 0.63893 0.8277 0.47343 0.0
C2510 C 0.65554 0.80143 0.46628 0.0
C2511 C 0.64832 0.79161 0.47729 0.0
C2512 C 0.6379 0.80052 0.48716 0.0
H2513 H 0.62831 0.67919 0.49143 0.0
H2514 H 0.63538 0.71061 0.49583 0.0
C2515 C 0.63325 0.81847 0.48524 0.0
C2516 C 0.64936 0.77176 0.47727 0.0
H2517 H 0.6372 0.73545 0.45826 0.0
C2518 C 0.65727 0.76273 0.48842 0.0
C2519 C 0.64186 0.7617 0.46636 0.0
C2520 C 0.63204 0.77039 0.45454 0.0
C2521 C 0.65826 0.74394 0.48872 0.0
C2522 C 0.65103 0.73397 0.47767 0.0
C2523 C 0.64302 0.74306 0.46664 0.0
C2524 C 0.65092 0.71409 0.47721 0.0
C2525 C 0.66723 0.73493 0.50075 0.0
C2526 C 0.65782 0.70533 0.46558 0.0
C2527 C 0.65366 0.68748 0.46302 0.0
C2528 C 0.64272 0.67792 0.47214 0.0
C2529 C 0.63719 0.68612 0.48444 0.0
C2530 C 0.64118 0.70413 0.48693 0.0
H2531 H 0.67613 0.74423 0.50641 0.0
H2532 H 0.65689 0.73013 0.50804 0.0
H2533 H 0.67513 0.72326 0.49729 0.0
H2534 H 0.66529 0.7127 0.4579 0.0
H2535 H 0.65779 0.68156 0.45335 0.0
H2536 H 0.86988 0.67564 0.00261 0.0
H2537 H 0.86218 0.70606 0.99515 0.0
H2538 H 0.84944 0.71996 0.03715 0.0
H2539 H 0.85692 0.68984 0.04454 0.0
H2540 H 0.82677 0.73645 0.01765 0.0
H2541 H 0.89865 0.74517 0.00468 0.0
H2542 H 0.88663 0.72779 0.99595 0.0
H2543 H 0.89074 0.72606 0.01413 0.0
C2544 C 0.86482 0.68503 0.01012 0.0
C2545 C 0.86409 0.68041 0.02416 0.0
C2546 C 0.86063 0.70247 0.00589 0.0
C2547 C 0.85559 0.71542 0.01564 0.0
C2548 C 0.85337 0.71027 0.02943 0.0
H2549 H 0.85546 0.81831 0.04377 0.0
H2550 H 0.84736 0.78828 0.03661 0.0
C2551 C 0.85764 0.69302 0.03365 0.0
C2552 C 0.85452 0.73473 0.01215 0.0
H2553 H 0.88125 0.77081 0.00623 0.0
C2554 C 0.83858 0.74393 0.01483 0.0
C2555 C 0.8699 0.74456 0.00841 0.0
C2556 C 0.88751 0.7355 0.00568 0.0
C2557 C 0.8379 0.76267 0.01467 0.0
C2558 C 0.85362 0.7725 0.01201 0.0
C2559 C 0.86919 0.7633 0.00828 0.0
C2560 C 0.8551 0.79186 0.01529 0.0
C2561 C 0.82046 0.77175 0.01788 0.0
C2562 C 0.86191 0.80414 0.00566 0.0
C2563 C 0.86644 0.82154 0.00976 0.0
C2564 C 0.86455 0.82673 0.02361 0.0
C2565 C 0.85686 0.81472 0.033 0.0
C2566 C 0.85216 0.79754 0.02889 0.0
H2567 H 0.809 0.76347 0.01449 0.0
H2568 H 0.81931 0.77362 0.02919 0.0
H2569 H 0.81957 0.785 0.01283 0.0
H2570 H 0.8645 0.80002 0.99515 0.0
H2571 H 0.87266 0.83042 0.00239 0.0
H2572 H 0.633 0.33115 0.50399 0.0
H2573 H 0.64058 0.30048 0.49696 0.0
H2574 H 0.64934 0.28645 0.53954 0.0
H2575 H 0.642 0.31673 0.5465 0.0
H2576 H 0.67406 0.27047 0.52148 0.0
H2577 H 0.60392 0.26059 0.50407 0.0
H2578 H 0.61655 0.27825 0.49622 0.0
H2579 H 0.61047 0.27976 0.51408 0.0
C2580 C 0.63704 0.32161 0.51176 0.0
C2581 C 0.63678 0.3263 0.5258 0.0
C2582 C 0.64118 0.30405 0.50777 0.0
C2583 C 0.64522 0.29104 0.51776 0.0
C2584 C 0.64621 0.29616 0.53164 0.0
H2585 H 0.64475 0.18764 0.5455 0.0
H2586 H 0.65248 0.21804 0.53908 0.0
C2587 C 0.64198 0.31352 0.53561 0.0
C2588 C 0.64693 0.27174 0.51432 0.0
H2589 H 0.62152 0.23519 0.50679 0.0
C2590 C 0.6627 0.26279 0.51794 0.0
C2591 C 0.63215 0.26165 0.50966 0.0
C2592 C 0.61474 0.27043 0.50583 0.0
C2593 C 0.66372 0.24407 0.51783 0.0
C2594 C 0.6485 0.23396 0.51423 0.0
C2595 C 0.63319 0.24291 0.50957 0.0
C2596 C 0.64712 0.21453 0.51732 0.0
C2597 C 0.68094 0.23529 0.52208 0.0
C2598 C 0.64176 0.20215 0.50721 0.0
C2599 C 0.63746 0.18454 0.5109 0.0
C2600 C 0.63811 0.17919 0.52478 0.0
C2601 C 0.64432 0.19134 0.5347 0.0
C2602 C 0.64881 0.20875 0.53102 0.0
H2603 H 0.69256 0.24383 0.51948 0.0
H2604 H 0.68093 0.2333 0.53342 0.0
H2605 H 0.68263 0.22212 0.51703 0.0
H2606 H 0.64017 0.20634 0.4966 0.0
H2607 H 0.63238 0.17556 0.50309 0.0
H2608 H 0.93156 0.41104 0.79223 0.0
H2609 H 0.96265 0.41848 0.78739 0.0
H2610 H 0.96103 0.38548 0.75101 0.0
H2611 H 0.92966 0.37854 0.75564 0.0
H2612 H 0.98582 0.3915 0.78871 0.0
H2613 H 0.99426 0.42481 0.73816 0.0
H2614 H 0.97312 0.42413 0.74708 0.0
H2615 H 0.98072 0.40511 0.73745 0.0
C2616 C 0.93756 0.4062 0.78278 0.0
C2617 C 0.92814 0.39448 0.77418 0.0
C2618 C 0.9554 0.41032 0.78007 0.0
C2619 C 0.9643 0.40257 0.76882 0.0
C2620 C 0.95446 0.39196 0.75958 0.0
H2621 H 0.07356 0.3724 0.75426 0.0
H2622 H 0.04237 0.38124 0.75095 0.0
C2623 C 0.93648 0.38803 0.76221 0.0
C2624 C 0.98419 0.40284 0.76837 0.0
H2625 H 0.0205 0.41184 0.74814 0.0
C2626 C 0.99337 0.39623 0.7799 0.0
C2627 C 0.9941 0.40866 0.75679 0.0
C2628 C 0.98507 0.41623 0.7442 0.0
C2629 C 0.01201 0.39495 0.78014 0.0
C2630 C 0.022 0.40088 0.76863 0.0
C2631 C 0.01289 0.40751 0.75703 0.0
C2632 C 0.04182 0.39924 0.76837 0.0
C2633 C 0.02076 0.38654 0.79257 0.0
C2634 C 0.05224 0.40727 0.7787 0.0
C2635 C 0.07 0.4021 0.78066 0.0
C2636 C 0.0778 0.38926 0.77205 0.0
C2637 C 0.06796 0.38264 0.76083 0.0
C2638 C 0.05009 0.3876 0.759 0.0
H2639 H 0.01113 0.37871 0.79882 0.0
H2640 H 0.03183 0.37759 0.78945 0.0
H2641 H 0.02632 0.39716 0.79927 0.0
H2642 H 0.04625 0.41652 0.78591 0.0
H2643 H 0.0772 0.40712 0.78953 0.0
H2644 H 0.42321 0.61497 0.25446 0.0
H2645 H 0.45345 0.60646 0.24719 0.0
H2646 H 0.47022 0.60611 0.28975 0.0
H2647 H 0.4403 0.61375 0.29694 0.0
H2648 H 0.48099 0.62618 0.24937 0.0
H2649 H 0.49883 0.56549 0.27736 0.0
H2650 H 0.47594 0.57263 0.27588 0.0
H2651 H 0.48987 0.58064 0.28978 0.0
C2652 C 0.43319 0.61226 0.26225 0.0
C2653 C 0.42933 0.61508 0.27628 0.0
C2654 C 0.45054 0.60755 0.2581 0.0
C2655 C 0.46428 0.60541 0.26789 0.0
C2656 C 0.45998 0.60709 0.28192 0.0
H2657 H 0.56075 0.65276 0.27581 0.0
H2658 H 0.53121 0.64258 0.26977 0.0
C2659 C 0.44277 0.61168 0.28605 0.0
C2660 C 0.48348 0.60437 0.26373 0.0
H2661 H 0.52338 0.58771 0.27492 0.0
C2662 C 0.49017 0.61735 0.25465 0.0
C2663 C 0.49572 0.5926 0.27018 0.0
C2664 C 0.48962 0.57695 0.2787 0.0
C2665 C 0.50859 0.62013 0.2531 0.0
C2666 C 0.52073 0.6101 0.26116 0.0
C2667 C 0.51416 0.5958 0.269 0.0
C2668 C 0.53947 0.6162 0.26343 0.0
C2669 C 0.5148 0.63439 0.24325 0.0
C2670 C 0.55425 0.60471 0.26215 0.0
C2671 C 0.57151 0.61056 0.26577 0.0
C2672 C 0.57412 0.62786 0.27099 0.0
C2673 C 0.55931 0.63932 0.27189 0.0
C2674 C 0.54231 0.63356 0.26827 0.0
H2675 H 0.50583 0.63516 0.23415 0.0
H2676 H 0.51433 0.64752 0.2485 0.0
H2677 H 0.52861 0.63192 0.23962 0.0
H2678 H 0.55239 0.59116 0.2586 0.0
H2679 H 0.58259 0.60136 0.26506 0.0
H2680 H 0.42633 0.38527 0.7441 0.0
H2681 H 0.45697 0.39324 0.75074 0.0
H2682 H 0.46814 0.40829 0.7087 0.0
H2683 H 0.43781 0.4004 0.70213 0.0
H2684 H 0.48534 0.3752 0.73984 0.0
H2685 H 0.49472 0.44673 0.72939 0.0
H2686 H 0.4729 0.43691 0.73151 0.0
H2687 H 0.4841 0.43598 0.71508 0.0
C2688 C 0.43511 0.39107 0.73645 0.0
C2689 C 0.42965 0.39236 0.72262 0.0
C2690 C 0.45267 0.39546 0.74021 0.0
C2691 C 0.4649 0.40153 0.73026 0.0
C2692 C 0.45895 0.40405 0.71667 0.0
H2693 H 0.56725 0.39649 0.70091 0.0
H2694 H 0.53716 0.40443 0.70804 0.0
C2695 C 0.44158 0.39949 0.7129 0.0
C2696 C 0.48439 0.40256 0.73326 0.0
H2697 H 0.52118 0.42806 0.72677 0.0
C2698 C 0.49318 0.38693 0.7374 0.0
C2699 C 0.49466 0.41784 0.7301 0.0
C2700 C 0.48606 0.43536 0.72641 0.0
C2701 C 0.5119 0.38567 0.73726 0.0
C2702 C 0.52216 0.40057 0.73308 0.0
C2703 C 0.51338 0.41661 0.72994 0.0
C2704 C 0.54147 0.39883 0.72966 0.0
C2705 C 0.52047 0.36796 0.74049 0.0
C2706 C 0.55431 0.39385 0.73954 0.0
C2707 C 0.57175 0.38937 0.73545 0.0
C2708 C 0.57649 0.38974 0.72142 0.0
C2709 C 0.56397 0.39601 0.71178 0.0
C2710 C 0.54673 0.40056 0.71586 0.0
H2711 H 0.51049 0.35714 0.74173 0.0
H2712 H 0.52988 0.36411 0.73217 0.0
H2713 H 0.52813 0.36906 0.75023 0.0
H2714 H 0.55065 0.39269 0.7503 0.0
H2715 H 0.58108 0.38448 0.74308 0.0
H2716 H 0.93149 0.59635 0.20299 0.0
H2717 H 0.96255 0.58866 0.20768 0.0
H2718 H 0.9599 0.61719 0.24621 0.0
H2719 H 0.92855 0.62448 0.24165 0.0
H2720 H 0.98545 0.61687 0.20899 0.0
H2721 H 0.99317 0.57563 0.25614 0.0
H2722 H 0.97242 0.57698 0.24672 0.0
H2723 H 0.97902 0.59482 0.25795 0.0
C2724 C 0.93725 0.60014 0.21281 0.0
C2725 C 0.92754 0.61077 0.22205 0.0
C2726 C 0.95507 0.59587 0.21544 0.0
C2727 C 0.96367 0.60233 0.2273 0.0
C2728 C 0.95356 0.61173 0.23712 0.0
H2729 H 0.0757 0.62603 0.24187 0.0
H2730 H 0.04411 0.61905 0.24585 0.0
C2731 C 0.93558 0.61584 0.23454 0.0
C2732 C 0.98355 0.60207 0.22794 0.0
H2733 H 0.01966 0.58846 0.24683 0.0
C2734 C 0.99288 0.61048 0.21722 0.0
C2735 C 0.99331 0.5941 0.23881 0.0
C2736 C 0.98402 0.58474 0.25053 0.0
C2737 C 0.01156 0.61117 0.217 0.0
C2738 C 0.0214 0.60283 0.22767 0.0
C2739 C 0.01214 0.59465 0.23857 0.0
C2740 C 0.04128 0.60295 0.22748 0.0
C2741 C 0.02058 0.62123 0.20546 0.0
C2742 C 0.05048 0.59528 0.21635 0.0
C2743 C 0.06843 0.59936 0.21403 0.0
C2744 C 0.07766 0.61078 0.22301 0.0
C2745 C 0.06901 0.61685 0.23498 0.0
C2746 C 0.05091 0.61299 0.23719 0.0
H2747 H 0.01128 0.63057 0.20023 0.0
H2748 H 0.03216 0.62895 0.20935 0.0
H2749 H 0.02547 0.61161 0.19764 0.0
H2750 H 0.0434 0.58732 0.20882 0.0
H2751 H 0.07469 0.59475 0.20462 0.0
loop_
_geom_bond_atom_site_label_1
_geom_bond_atom_site_label_2
_geom_bond_distance
_geom_bond_site_symmetry_2
_ccdc_geom_bond_type
Co0 O1 2.216 . S
Co0 O2 2.091 . S
Co0 O4 2.004 . S
Co0 O10 2.021 . S
Co0 O12 2.137 . S
Co0 O13 2.244 . S
O1 Co0 2.216 . S
O1 C8 1.247 . S
O2 Co0 2.091 . S
O2 C8 1.261 . S
C3 O12 1.247 . S
C3 O13 1.272 . S
O4 Co0 2.004 . S
O4 C9 1.259 . S
Co5 O6 2.061 . S
Co5 O11 2.052 . S
Co5 O13 2.135 . S
O6 Co5 2.061 . S
O6 C9 1.235 . S
C7 O10 1.238 . S
C7 O11 1.241 . S
C8 O1 1.247 . S
C8 O2 1.261 . S
C9 O4 1.259 . S
C9 O6 1.235 . S
O10 Co0 2.021 . S
O10 C7 1.238 . S
O11 Co5 2.052 . S
O11 C7 1.241 . S
O12 Co0 2.137 . S
O12 C3 1.247 . S
O13 Co0 2.244 . S
O13 C3 1.272 . S
O13 Co5 2.135 . S
Co14 O15 2.216 . S
Co14 O16 2.091 . S
Co14 O18 2.004 . S
Co14 O24 2.021 . S
Co14 O26 2.137 . S
Co14 O27 2.244 . S
O15 Co14 2.216 . S
O15 C22 1.247 . S
O16 Co14 2.091 . S
O16 C22 1.261 . S
C17 O26 1.247 . S
C17 O27 1.272 . S
O18 Co14 2.004 . S
O18 C23 1.259 . S
Co19 O20 2.061 . S
Co19 O25 2.052 . S
Co19 O27 2.135 . S
O20 Co19 2.061 . S
O20 C23 1.235 . S
C21 O24 1.238 . S
C21 O25 1.241 . S
C22 O15 1.247 . S
C22 O16 1.261 . S
C23 O18 1.259 . S
C23 O20 1.235 . S
O24 Co14 2.021 . S
O24 C21 1.238 . S
O25 Co19 2.052 . S
O25 C21 1.241 . S
O26 Co14 2.137 . S
O26 C17 1.247 . S
O27 Co14 2.244 . S
O27 C17 1.272 . S
O27 Co19 2.135 . S
Co28 O29 2.216 . S
Co28 O30 2.091 . S
Co28 O32 2.004 . S
Co28 O38 2.021 . S
Co28 O40 2.137 . S
Co28 O41 2.244 . S
O29 Co28 2.216 . S
O29 C36 1.247 . S
O30 Co28 2.091 . S
O30 C36 1.261 . S
C31 O40 1.247 . S
C31 O41 1.272 . S
O32 Co28 2.004 . S
O32 C37 1.259 . S
Co33 O34 2.061 . S
Co33 O39 2.052 . S
Co33 O41 2.135 . S
O34 Co33 2.061 . S
O34 C37 1.235 . S
C35 O38 1.238 . S
C35 O39 1.241 . S
C36 O29 1.247 . S
C36 O30 1.261 . S
C37 O32 1.259 . S
C37 O34 1.235 . S
O38 Co28 2.021 . S
O38 C35 1.238 . S
O39 Co33 2.052 . S
O39 C35 1.241 . S
O40 Co28 2.137 . S
O40 C31 1.247 . S
O41 Co28 2.244 . S
O41 C31 1.272 . S
O41 Co33 2.135 . S
Co42 O43 2.216 . S
Co42 O44 2.091 . S
Co42 O46 2.004 . S
Co42 O52 2.021 . S
Co42 O54 2.137 . S
Co42 O55 2.244 . S
O43 Co42 2.216 . S
O43 C50 1.247 . S
O44 Co42 2.091 . S
O44 C50 1.261 . S
C45 O54 1.247 . S
C45 O55 1.272 . S
O46 Co42 2.004 . S
O46 C51 1.259 . S
Co47 O48 2.061 . S
Co47 O53 2.052 . S
Co47 O55 2.135 . S
O48 Co47 2.061 . S
O48 C51 1.235 . S
C49 O52 1.238 . S
C49 O53 1.241 . S
C50 O43 1.247 . S
C50 O44 1.261 . S
C51 O46 1.259 . S
C51 O48 1.235 . S
O52 Co42 2.021 . S
O52 C49 1.238 . S
O53 Co47 2.052 . S
O53 C49 1.241 . S
O54 Co42 2.137 . S
O54 C45 1.247 . S
O55 Co42 2.244 . S
O55 C45 1.272 . S
O55 Co47 2.135 . S
Co56 O57 2.216 . S
Co56 O58 2.091 . S
Co56 O60 2.004 . S
Co56 O66 2.021 . S
Co56 O68 2.137 . S
Co56 O69 2.244 . S
O57 Co56 2.216 . S
O57 C64 1.247 . S
O58 Co56 2.091 . S
O58 C64 1.261 . S
C59 O68 1.247 . S
C59 O69 1.272 . S
O60 Co56 2.004 . S
O60 C65 1.259 . S
Co61 O62 2.061 . S
Co61 O67 2.052 . S
Co61 O69 2.135 . S
O62 Co61 2.061 . S
O62 C65 1.235 . S
C63 O66 1.238 . S
C63 O67 1.241 . S
C64 O57 1.247 . S
C64 O58 1.261 . S
C65 O60 1.259 . S
C65 O62 1.235 . S
O66 Co56 2.021 . S
O66 C63 1.238 . S
O67 Co61 2.052 . S
O67 C63 1.241 . S
O68 Co56 2.137 . S
O68 C59 1.247 . S
O69 Co56 2.244 . S
O69 C59 1.272 . S
O69 Co61 2.135 . S
Co70 O71 2.216 . S
Co70 O72 2.091 . S
Co70 O74 2.004 . S
Co70 O80 2.021 . S
Co70 O82 2.137 . S
Co70 O83 2.244 . S
O71 Co70 2.216 . S
O71 C78 1.247 . S
O72 Co70 2.091 . S
O72 C78 1.261 . S
C73 O82 1.247 . S
C73 O83 1.272 . S
O74 Co70 2.004 . S
O74 C79 1.259 . S
Co75 O76 2.061 . S
Co75 O81 2.052 . S
Co75 O83 2.135 . S
O76 Co75 2.061 . S
O76 C79 1.235 . S
C77 O80 1.238 . S
C77 O81 1.241 . S
C78 O71 1.247 . S
C78 O72 1.261 . S
C79 O74 1.259 . S
C79 O76 1.235 . S
O80 Co70 2.021 . S
O80 C77 1.238 . S
O81 Co75 2.052 . S
O81 C77 1.241 . S
O82 Co70 2.137 . S
O82 C73 1.247 . S
O83 Co70 2.244 . S
O83 C73 1.272 . S
O83 Co75 2.135 . S
Co84 O85 2.216 . S
Co84 O86 2.091 . S
Co84 O88 2.004 . S
Co84 O94 2.021 . S
Co84 O96 2.137 . S
Co84 O97 2.244 . S
O85 Co84 2.216 . S
O85 C92 1.247 . S
O86 Co84 2.091 . S
O86 C92 1.261 . S
C87 O96 1.247 . S
C87 O97 1.272 . S
O88 Co84 2.004 . S
O88 C93 1.259 . S
Co89 O90 2.061 . S
Co89 O95 2.052 . S
Co89 O97 2.135 . S
O90 Co89 2.061 . S
O90 C93 1.235 . S
C91 O94 1.238 . S
C91 O95 1.241 . S
C92 O85 1.247 . S
C92 O86 1.261 . S
C93 O88 1.259 . S
C93 O90 1.235 . S
O94 Co84 2.021 . S
O94 C91 1.238 . S
O95 Co89 2.052 . S
O95 C91 1.241 . S
O96 Co84 2.137 . S
O96 C87 1.247 . S
O97 Co84 2.244 . S
O97 C87 1.272 . S
O97 Co89 2.135 . S
Co98 O99 2.216 . S
Co98 O100 2.091 . S
Co98 O102 2.004 . S
Co98 O108 2.021 . S
Co98 O110 2.137 . S
Co98 O111 2.244 . S
O99 Co98 2.216 . S
O99 C106 1.247 . S
O100 Co98 2.091 . S
O100 C106 1.261 . S
C101 O110 1.247 . S
C101 O111 1.272 . S
O102 Co98 2.004 . S
O102 C107 1.259 . S
Co103 O104 2.061 . S
Co103 O109 2.052 . S
Co103 O111 2.135 . S
O104 Co103 2.061 . S
O104 C107 1.235 . S
C105 O108 1.238 . S
C105 O109 1.241 . S
C106 O99 1.247 . S
C106 O100 1.261 . S
C107 O102 1.259 . S
C107 O104 1.235 . S
O108 Co98 2.021 . S
O108 C105 1.238 . S
O109 Co103 2.052 . S
O109 C105 1.241 . S
O110 Co98 2.137 . S
O110 C101 1.247 . S
O111 Co98 2.244 . S
O111 C101 1.272 . S
O111 Co103 2.135 . S
Co112 O113 2.216 . S
Co112 O114 2.091 . S
Co112 O116 2.004 . S
Co112 O122 2.021 . S
Co112 O124 2.137 . S
Co112 O125 2.244 . S
O113 Co112 2.216 . S
O113 C120 1.247 . S
O114 Co112 2.091 . S
O114 C120 1.261 . S
C115 O124 1.247 . S
C115 O125 1.272 . S
O116 Co112 2.004 . S
O116 C121 1.259 . S
Co117 O118 2.061 . S
Co117 O123 2.052 . S
Co117 O125 2.135 . S
O118 Co117 2.061 . S
O118 C121 1.235 . S
C119 O122 1.238 . S
C119 O123 1.241 . S
C120 O113 1.247 . S
C120 O114 1.261 . S
C121 O116 1.259 . S
C121 O118 1.235 . S
O122 Co112 2.021 . S
O122 C119 1.238 . S
O123 Co117 2.052 . S
O123 C119 1.241 . S
O124 Co112 2.137 . S
O124 C115 1.247 . S
O125 Co112 2.244 . S
O125 C115 1.272 . S
O125 Co117 2.135 . S
Co126 O127 2.216 . S
Co126 O128 2.091 . S
Co126 O130 2.004 . S
Co126 O136 2.021 . S
Co126 O138 2.137 . S
Co126 O139 2.244 . S
O127 Co126 2.216 . S
O127 C134 1.247 . S
O128 Co126 2.091 . S
O128 C134 1.261 . S
C129 O138 1.247 . S
C129 O139 1.272 . S
O130 Co126 2.004 . S
O130 C135 1.259 . S
Co131 O132 2.061 . S
Co131 O137 2.052 . S
Co131 O139 2.135 . S
O132 Co131 2.061 . S
O132 C135 1.235 . S
C133 O136 1.238 . S
C133 O137 1.241 . S
C134 O127 1.247 . S
C134 O128 1.261 . S
C135 O130 1.259 . S
C135 O132 1.235 . S
O136 Co126 2.021 . S
O136 C133 1.238 . S
O137 Co131 2.052 . S
O137 C133 1.241 . S
O138 Co126 2.137 . S
O138 C129 1.247 . S
O139 Co126 2.244 . S
O139 C129 1.272 . S
O139 Co131 2.135 . S
Co140 O141 2.216 . S
Co140 O142 2.091 . S
Co140 O144 2.004 . S
Co140 O150 2.021 . S
Co140 O152 2.137 . S
Co140 O153 2.244 . S
O141 Co140 2.216 . S
O141 C148 1.247 . S
O142 Co140 2.091 . S
O142 C148 1.261 . S
C143 O152 1.247 . S
C143 O153 1.272 . S
O144 Co140 2.004 . S
O144 C149 1.259 . S
Co145 O146 2.061 . S
Co145 O151 2.052 . S
Co145 O153 2.135 . S
O146 Co145 2.061 . S
O146 C149 1.235 . S
C147 O150 1.238 . S
C147 O151 1.241 . S
C148 O141 1.247 . S
C148 O142 1.261 . S
C149 O144 1.259 . S
C149 O146 1.235 . S
O150 Co140 2.021 . S
O150 C147 1.238 . S
O151 Co145 2.052 . S
O151 C147 1.241 . S
O152 Co140 2.137 . S
O152 C143 1.247 . S
O153 Co140 2.244 . S
O153 C143 1.272 . S
O153 Co145 2.135 . S
Co154 O155 2.216 . S
Co154 O156 2.091 . S
Co154 O158 2.004 . S
Co154 O164 2.021 . S
Co154 O166 2.137 . S
Co154 O167 2.244 . S
O155 Co154 2.216 . S
O155 C162 1.247 . S
O156 Co154 2.091 . S
O156 C162 1.261 . S
C157 O166 1.247 . S
C157 O167 1.272 . S
O158 Co154 2.004 . S
O158 C163 1.259 . S
Co159 O160 2.061 . S
Co159 O165 2.052 . S
Co159 O167 2.135 . S
O160 Co159 2.061 . S
O160 C163 1.235 . S
C161 O164 1.238 . S
C161 O165 1.241 . S
C162 O155 1.247 . S
C162 O156 1.261 . S
C163 O158 1.259 . S
C163 O160 1.235 . S
O164 Co154 2.021 . S
O164 C161 1.238 . S
O165 Co159 2.052 . S
O165 C161 1.241 . S
O166 Co154 2.137 . S
O166 C157 1.247 . S
O167 Co154 2.244 . S
O167 C157 1.272 . S
O167 Co159 2.135 . S
Co168 O169 2.216 . S
Co168 O170 2.091 . S
Co168 O172 2.004 . S
Co168 O178 2.021 . S
Co168 O180 2.137 . S
Co168 O181 2.244 . S
O169 Co168 2.216 . S
O169 C176 1.247 . S
O170 Co168 2.091 . S
O170 C176 1.261 . S
C171 O180 1.247 . S
C171 O181 1.272 . S
O172 Co168 2.004 . S
O172 C177 1.259 . S
Co173 O174 2.061 . S
Co173 O179 2.052 . S
Co173 O181 2.135 . S
O174 Co173 2.061 . S
O174 C177 1.235 . S
C175 O178 1.238 . S
C175 O179 1.241 . S
C176 O169 1.247 . S
C176 O170 1.261 . S
C177 O172 1.259 . S
C177 O174 1.235 . S
O178 Co168 2.021 . S
O178 C175 1.238 . S
O179 Co173 2.052 . S
O179 C175 1.241 . S
O180 Co168 2.137 . S
O180 C171 1.247 . S
O181 Co168 2.244 . S
O181 C171 1.272 . S
O181 Co173 2.135 . S
Co182 O183 2.216 . S
Co182 O184 2.091 . S
Co182 O186 2.004 . S
Co182 O192 2.021 . S
Co182 O194 2.137 . S
Co182 O195 2.244 . S
O183 Co182 2.216 . S
O183 C190 1.247 . S
O184 Co182 2.091 . S
O184 C190 1.261 . S
C185 O194 1.247 . S
C185 O195 1.272 . S
O186 Co182 2.004 . S
O186 C191 1.259 . S
Co187 O188 2.061 . S
Co187 O193 2.052 . S
Co187 O195 2.135 . S
O188 Co187 2.061 . S
O188 C191 1.235 . S
C189 O192 1.238 . S
C189 O193 1.241 . S
C190 O183 1.247 . S
C190 O184 1.261 . S
C191 O186 1.259 . S
C191 O188 1.235 . S
O192 Co182 2.021 . S
O192 C189 1.238 . S
O193 Co187 2.052 . S
O193 C189 1.241 . S
O194 Co182 2.137 . S
O194 C185 1.247 . S
O195 Co182 2.244 . S
O195 C185 1.272 . S
O195 Co187 2.135 . S
Co196 O197 2.216 . S
Co196 O198 2.091 . S
Co196 O200 2.004 . S
Co196 O206 2.021 . S
Co196 O208 2.137 . S
Co196 O209 2.244 . S
O197 Co196 2.216 . S
O197 C204 1.247 . S
O198 Co196 2.091 . S
O198 C204 1.261 . S
C199 O208 1.247 . S
C199 O209 1.272 . S
O200 Co196 2.004 . S
O200 C205 1.259 . S
Co201 O202 2.061 . S
Co201 O207 2.052 . S
Co201 O209 2.135 . S
O202 Co201 2.061 . S
O202 C205 1.235 . S
C203 O206 1.238 . S
C203 O207 1.241 . S
C204 O197 1.247 . S
C204 O198 1.261 . S
C205 O200 1.259 . S
C205 O202 1.235 . S
O206 Co196 2.021 . S
O206 C203 1.238 . S
O207 Co201 2.052 . S
O207 C203 1.241 . S
O208 Co196 2.137 . S
O208 C199 1.247 . S
O209 Co196 2.244 . S
O209 C199 1.272 . S
O209 Co201 2.135 . S
Co210 O211 2.216 . S
Co210 O212 2.091 . S
Co210 O214 2.004 . S
Co210 O220 2.021 . S
Co210 O222 2.137 . S
Co210 O223 2.244 . S
O211 Co210 2.216 . S
O211 C218 1.247 . S
O212 Co210 2.091 . S
O212 C218 1.261 . S
C213 O222 1.247 . S
C213 O223 1.272 . S
O214 Co210 2.004 . S
O214 C219 1.259 . S
Co215 O216 2.061 . S
Co215 O221 2.052 . S
Co215 O223 2.135 . S
O216 Co215 2.061 . S
O216 C219 1.235 . S
C217 O220 1.238 . S
C217 O221 1.241 . S
C218 O211 1.247 . S
C218 O212 1.261 . S
C219 O214 1.259 . S
C219 O216 1.235 . S
O220 Co210 2.021 . S
O220 C217 1.238 . S
O221 Co215 2.052 . S
O221 C217 1.241 . S
O222 Co210 2.137 . S
O222 C213 1.247 . S
O223 Co210 2.244 . S
O223 C213 1.272 . S
O223 Co215 2.135 . S
Co224 O225 2.216 . S
Co224 O226 2.091 . S
Co224 O228 2.004 . S
Co224 O234 2.021 . S
Co224 O236 2.137 . S
Co224 O237 2.244 . S
O225 Co224 2.216 . S
O225 C232 1.247 . S
O226 Co224 2.091 . S
O226 C232 1.261 . S
C227 O236 1.247 . S
C227 O237 1.272 . S
O228 Co224 2.004 . S
O228 C233 1.259 . S
Co229 O230 2.061 . S
Co229 O235 2.052 . S
Co229 O237 2.135 . S
O230 Co229 2.061 . S
O230 C233 1.235 . S
C231 O234 1.238 . S
C231 O235 1.241 . S
C232 O225 1.247 . S
C232 O226 1.261 . S
C233 O228 1.259 . S
C233 O230 1.235 . S
O234 Co224 2.021 . S
O234 C231 1.238 . S
O235 Co229 2.052 . S
O235 C231 1.241 . S
O236 Co224 2.137 . S
O236 C227 1.247 . S
O237 Co224 2.244 . S
O237 C227 1.272 . S
O237 Co229 2.135 . S
Co238 O239 2.216 . S
Co238 O240 2.091 . S
Co238 O242 2.004 . S
Co238 O248 2.021 . S
Co238 O250 2.137 . S
Co238 O251 2.244 . S
O239 Co238 2.216 . S
O239 C246 1.247 . S
O240 Co238 2.091 . S
O240 C246 1.261 . S
C241 O250 1.247 . S
C241 O251 1.272 . S
O242 Co238 2.004 . S
O242 C247 1.259 . S
Co243 O244 2.061 . S
Co243 O249 2.052 . S
Co243 O251 2.135 . S
O244 Co243 2.061 . S
O244 C247 1.235 . S
C245 O248 1.238 . S
C245 O249 1.241 . S
C246 O239 1.247 . S
C246 O240 1.261 . S
C247 O242 1.259 . S
C247 O244 1.235 . S
O248 Co238 2.021 . S
O248 C245 1.238 . S
O249 Co243 2.052 . S
O249 C245 1.241 . S
O250 Co238 2.137 . S
O250 C241 1.247 . S
O251 Co238 2.244 . S
O251 C241 1.272 . S
O251 Co243 2.135 . S
Co252 O253 2.216 . S
Co252 O254 2.091 . S
Co252 O256 2.004 . S
Co252 O262 2.021 . S
Co252 O264 2.137 . S
Co252 O265 2.244 . S
O253 Co252 2.216 . S
O253 C260 1.247 . S
O254 Co252 2.091 . S
O254 C260 1.261 . S
C255 O264 1.247 . S
C255 O265 1.272 . S
O256 Co252 2.004 . S
O256 C261 1.259 . S
Co257 O258 2.061 . S
Co257 O263 2.052 . S
Co257 O265 2.135 . S
O258 Co257 2.061 . S
O258 C261 1.235 . S
C259 O262 1.238 . S
C259 O263 1.241 . S
C260 O253 1.247 . S
C260 O254 1.261 . S
C261 O256 1.259 . S
C261 O258 1.235 . S
O262 Co252 2.021 . S
O262 C259 1.238 . S
O263 Co257 2.052 . S
O263 C259 1.241 . S
O264 Co252 2.137 . S
O264 C255 1.247 . S
O265 Co252 2.244 . S
O265 C255 1.272 . S
O265 Co257 2.135 . S
Co266 O267 2.216 . S
Co266 O268 2.091 . S
Co266 O270 2.004 . S
Co266 O276 2.021 . S
Co266 O278 2.137 . S
Co266 O279 2.244 . S
O267 Co266 2.216 . S
O267 C274 1.247 . S
O268 Co266 2.091 . S
O268 C274 1.261 . S
C269 O278 1.247 . S
C269 O279 1.272 . S
O270 Co266 2.004 . S
O270 C275 1.259 . S
Co271 O272 2.061 . S
Co271 O277 2.052 . S
Co271 O279 2.135 . S
O272 Co271 2.061 . S
O272 C275 1.235 . S
C273 O276 1.238 . S
C273 O277 1.241 . S
C274 O267 1.247 . S
C274 O268 1.261 . S
C275 O270 1.259 . S
C275 O272 1.235 . S
O276 Co266 2.021 . S
O276 C273 1.238 . S
O277 Co271 2.052 . S
O277 C273 1.241 . S
O278 Co266 2.137 . S
O278 C269 1.247 . S
O279 Co266 2.244 . S
O279 C269 1.272 . S
O279 Co271 2.135 . S
Co280 O281 2.216 . S
Co280 O282 2.091 . S
Co280 O284 2.004 . S
Co280 O290 2.021 . S
Co280 O292 2.137 . S
Co280 O293 2.244 . S
O281 Co280 2.216 . S
O281 C288 1.247 . S
O282 Co280 2.091 . S
O282 C288 1.261 . S
C283 O292 1.247 . S
C283 O293 1.272 . S
O284 Co280 2.004 . S
O284 C289 1.259 . S
Co285 O286 2.061 . S
Co285 O291 2.052 . S
Co285 O293 2.135 . S
O286 Co285 2.061 . S
O286 C289 1.235 . S
C287 O290 1.238 . S
C287 O291 1.241 . S
C288 O281 1.247 . S
C288 O282 1.261 . S
C289 O284 1.259 . S
C289 O286 1.235 . S
O290 Co280 2.021 . S
O290 C287 1.238 . S
O291 Co285 2.052 . S
O291 C287 1.241 . S
O292 Co280 2.137 . S
O292 C283 1.247 . S
O293 Co280 2.244 . S
O293 C283 1.272 . S
O293 Co285 2.135 . S
Co294 O295 2.216 . S
Co294 O296 2.091 . S
Co294 O298 2.004 . S
Co294 O304 2.021 . S
Co294 O306 2.137 . S
Co294 O307 2.244 . S
O295 Co294 2.216 . S
O295 C302 1.247 . S
O296 Co294 2.091 . S
O296 C302 1.261 . S
C297 O306 1.247 . S
C297 O307 1.272 . S
O298 Co294 2.004 . S
O298 C303 1.259 . S
Co299 O300 2.061 . S
Co299 O305 2.052 . S
Co299 O307 2.135 . S
O300 Co299 2.061 . S
O300 C303 1.235 . S
C301 O304 1.238 . S
C301 O305 1.241 . S
C302 O295 1.247 . S
C302 O296 1.261 . S
C303 O298 1.259 . S
C303 O300 1.235 . S
O304 Co294 2.021 . S
O304 C301 1.238 . S
O305 Co299 2.052 . S
O305 C301 1.241 . S
O306 Co294 2.137 . S
O306 C297 1.247 . S
O307 Co294 2.244 . S
O307 C297 1.272 . S
O307 Co299 2.135 . S
Co308 O309 2.216 . S
Co308 O310 2.091 . S
Co308 O312 2.004 . S
Co308 O318 2.021 . S
Co308 O320 2.137 . S
Co308 O321 2.244 . S
O309 Co308 2.216 . S
O309 C316 1.247 . S
O310 Co308 2.091 . S
O310 C316 1.261 . S
C311 O320 1.247 . S
C311 O321 1.272 . S
O312 Co308 2.004 . S
O312 C317 1.259 . S
Co313 O314 2.061 . S
Co313 O319 2.052 . S
Co313 O321 2.135 . S
O314 Co313 2.061 . S
O314 C317 1.235 . S
C315 O318 1.238 . S
C315 O319 1.241 . S
C316 O309 1.247 . S
C316 O310 1.261 . S
C317 O312 1.259 . S
C317 O314 1.235 . S
O318 Co308 2.021 . S
O318 C315 1.238 . S
O319 Co313 2.052 . S
O319 C315 1.241 . S
O320 Co308 2.137 . S
O320 C311 1.247 . S
O321 Co308 2.244 . S
O321 C311 1.272 . S
O321 Co313 2.135 . S
Co322 O323 2.216 . S
Co322 O324 2.091 . S
Co322 O326 2.004 . S
Co322 O332 2.021 . S
Co322 O334 2.137 . S
Co322 O335 2.244 . S
O323 Co322 2.216 . S
O323 C330 1.247 . S
O324 Co322 2.091 . S
O324 C330 1.261 . S
C325 O334 1.247 . S
C325 O335 1.272 . S
O326 Co322 2.004 . S
O326 C331 1.259 . S
Co327 O328 2.061 . S
Co327 O333 2.052 . S
Co327 O335 2.135 . S
O328 Co327 2.061 . S
O328 C331 1.235 . S
C329 O332 1.238 . S
C329 O333 1.241 . S
C330 O323 1.247 . S
C330 O324 1.261 . S
C331 O326 1.259 . S
C331 O328 1.235 . S
O332 Co322 2.021 . S
O332 C329 1.238 . S
O333 Co327 2.052 . S
O333 C329 1.241 . S
O334 Co322 2.137 . S
O334 C325 1.247 . S
O335 Co322 2.244 . S
O335 C325 1.272 . S
O335 Co327 2.135 . S
Co336 O337 2.216 . S
Co336 O338 2.091 . S
Co336 O340 2.004 . S
Co336 O346 2.021 . S
Co336 O348 2.137 . S
Co336 O349 2.244 . S
O337 Co336 2.216 . S
O337 C344 1.247 . S
O338 Co336 2.091 . S
O338 C344 1.261 . S
C339 O348 1.247 . S
C339 O349 1.272 . S
O340 Co336 2.004 . S
O340 C345 1.259 . S
Co341 O342 2.061 . S
Co341 O347 2.052 . S
Co341 O349 2.135 . S
O342 Co341 2.061 . S
O342 C345 1.235 . S
C343 O346 1.238 . S
C343 O347 1.241 . S
C344 O337 1.247 . S
C344 O338 1.261 . S
C345 O340 1.259 . S
C345 O342 1.235 . S
O346 Co336 2.021 . S
O346 C343 1.238 . S
O347 Co341 2.052 . S
O347 C343 1.241 . S
O348 Co336 2.137 . S
O348 C339 1.247 . S
O349 Co336 2.244 . S
O349 C339 1.272 . S
O349 Co341 2.135 . S
Co350 O351 2.216 . S
Co350 O352 2.091 . S
Co350 O354 2.004 . S
Co350 O360 2.021 . S
Co350 O362 2.137 . S
Co350 O363 2.244 . S
O351 Co350 2.216 . S
O351 C358 1.247 . S
O352 Co350 2.091 . S
O352 C358 1.261 . S
C353 O362 1.247 . S
C353 O363 1.272 . S
O354 Co350 2.004 . S
O354 C359 1.259 . S
Co355 O356 2.061 . S
Co355 O361 2.052 . S
Co355 O363 2.135 . S
O356 Co355 2.061 . S
O356 C359 1.235 . S
C357 O360 1.238 . S
C357 O361 1.241 . S
C358 O351 1.247 . S
C358 O352 1.261 . S
C359 O354 1.259 . S
C359 O356 1.235 . S
O360 Co350 2.021 . S
O360 C357 1.238 . S
O361 Co355 2.052 . S
O361 C357 1.241 . S
O362 Co350 2.137 . S
O362 C353 1.247 . S
O363 Co350 2.244 . S
O363 C353 1.272 . S
O363 Co355 2.135 . S
Co364 O365 2.216 . S
Co364 O366 2.091 . S
Co364 O368 2.004 . S
Co364 O374 2.021 . S
Co364 O376 2.137 . S
Co364 O377 2.244 . S
O365 Co364 2.216 . S
O365 C372 1.247 . S
O366 Co364 2.091 . S
O366 C372 1.261 . S
C367 O376 1.247 . S
C367 O377 1.272 . S
O368 Co364 2.004 . S
O368 C373 1.259 . S
Co369 O370 2.061 . S
Co369 O375 2.052 . S
Co369 O377 2.135 . S
O370 Co369 2.061 . S
O370 C373 1.235 . S
C371 O374 1.238 . S
C371 O375 1.241 . S
C372 O365 1.247 . S
C372 O366 1.261 . S
C373 O368 1.259 . S
C373 O370 1.235 . S
O374 Co364 2.021 . S
O374 C371 1.238 . S
O375 Co369 2.052 . S
O375 C371 1.241 . S
O376 Co364 2.137 . S
O376 C367 1.247 . S
O377 Co364 2.244 . S
O377 C367 1.272 . S
O377 Co369 2.135 . S
Co378 O379 2.216 . S
Co378 O380 2.091 . S
Co378 O382 2.004 . S
Co378 O388 2.021 . S
Co378 O390 2.137 . S
Co378 O391 2.244 . S
O379 Co378 2.216 . S
O379 C386 1.247 . S
O380 Co378 2.091 . S
O380 C386 1.261 . S
C381 O390 1.247 . S
C381 O391 1.272 . S
O382 Co378 2.004 . S
O382 C387 1.259 . S
Co383 O384 2.061 . S
Co383 O389 2.052 . S
Co383 O391 2.135 . S
O384 Co383 2.061 . S
O384 C387 1.235 . S
C385 O388 1.238 . S
C385 O389 1.241 . S
C386 O379 1.247 . S
C386 O380 1.261 . S
C387 O382 1.259 . S
C387 O384 1.235 . S
O388 Co378 2.021 . S
O388 C385 1.238 . S
O389 Co383 2.052 . S
O389 C385 1.241 . S
O390 Co378 2.137 . S
O390 C381 1.247 . S
O391 Co378 2.244 . S
O391 C381 1.272 . S
O391 Co383 2.135 . S
Co392 O393 2.216 . S
Co392 O394 2.091 . S
Co392 O396 2.004 . S
Co392 O402 2.021 . S
Co392 O404 2.137 . S
Co392 O405 2.244 . S
O393 Co392 2.216 . S
O393 C400 1.247 . S
O394 Co392 2.091 . S
O394 C400 1.261 . S
C395 O404 1.247 . S
C395 O405 1.272 . S
O396 Co392 2.004 . S
O396 C401 1.259 . S
Co397 O398 2.061 . S
Co397 O403 2.052 . S
Co397 O405 2.135 . S
O398 Co397 2.061 . S
O398 C401 1.235 . S
C399 O402 1.238 . S
C399 O403 1.241 . S
C400 O393 1.247 . S
C400 O394 1.261 . S
C401 O396 1.259 . S
C401 O398 1.235 . S
O402 Co392 2.021 . S
O402 C399 1.238 . S
O403 Co397 2.052 . S
O403 C399 1.241 . S
O404 Co392 2.137 . S
O404 C395 1.247 . S
O405 Co392 2.244 . S
O405 C395 1.272 . S
O405 Co397 2.135 . S
Co406 O407 2.216 . S
Co406 O408 2.091 . S
Co406 O410 2.004 . S
Co406 O416 2.021 . S
Co406 O418 2.137 . S
Co406 O419 2.244 . S
O407 Co406 2.216 . S
O407 C414 1.247 . S
O408 Co406 2.091 . S
O408 C414 1.261 . S
C409 O418 1.247 . S
C409 O419 1.272 . S
O410 Co406 2.004 . S
O410 C415 1.259 . S
Co411 O412 2.061 . S
Co411 O417 2.052 . S
Co411 O419 2.135 . S
O412 Co411 2.061 . S
O412 C415 1.235 . S
C413 O416 1.238 . S
C413 O417 1.241 . S
C414 O407 1.247 . S
C414 O408 1.261 . S
C415 O410 1.259 . S
C415 O412 1.235 . S
O416 Co406 2.021 . S
O416 C413 1.238 . S
O417 Co411 2.052 . S
O417 C413 1.241 . S
O418 Co406 2.137 . S
O418 C409 1.247 . S
O419 Co406 2.244 . S
O419 C409 1.272 . S
O419 Co411 2.135 . S
Co420 O421 2.216 . S
Co420 O422 2.091 . S
Co420 O424 2.004 . S
Co420 O430 2.021 . S
Co420 O432 2.137 . S
Co420 O433 2.244 . S
O421 Co420 2.216 . S
O421 C428 1.247 . S
O422 Co420 2.091 . S
O422 C428 1.261 . S
C423 O432 1.247 . S
C423 O433 1.272 . S
O424 Co420 2.004 . S
O424 C429 1.259 . S
Co425 O426 2.061 . S
Co425 O431 2.052 . S
Co425 O433 2.135 . S
O426 Co425 2.061 . S
O426 C429 1.235 . S
C427 O430 1.238 . S
C427 O431 1.241 . S
C428 O421 1.247 . S
C428 O422 1.261 . S
C429 O424 1.259 . S
C429 O426 1.235 . S
O430 Co420 2.021 . S
O430 C427 1.238 . S
O431 Co425 2.052 . S
O431 C427 1.241 . S
O432 Co420 2.137 . S
O432 C423 1.247 . S
O433 Co420 2.244 . S
O433 C423 1.272 . S
O433 Co425 2.135 . S
Co434 O435 2.216 . S
Co434 O436 2.091 . S
Co434 O438 2.004 . S
Co434 O444 2.021 . S
Co434 O446 2.137 . S
Co434 O447 2.244 . S
O435 Co434 2.216 . S
O435 C442 1.247 . S
O436 Co434 2.091 . S
O436 C442 1.261 . S
C437 O446 1.247 . S
C437 O447 1.272 . S
O438 Co434 2.004 . S
O438 C443 1.259 . S
Co439 O440 2.061 . S
Co439 O445 2.052 . S
Co439 O447 2.135 . S
O440 Co439 2.061 . S
O440 C443 1.235 . S
C441 O444 1.238 . S
C441 O445 1.241 . S
C442 O435 1.247 . S
C442 O436 1.261 . S
C443 O438 1.259 . S
C443 O440 1.235 . S
O444 Co434 2.021 . S
O444 C441 1.238 . S
O445 Co439 2.052 . S
O445 C441 1.241 . S
O446 Co434 2.137 . S
O446 C437 1.247 . S
O447 Co434 2.244 . S
O447 C437 1.272 . S
O447 Co439 2.135 . S
H448 C456 0.929 . S
H449 C458 0.930 . S
H450 C460 0.930 . S
H451 C463 0.929 . S
H452 C466 0.930 . S
H453 C468 0.960 . S
H454 C468 0.960 . S
H455 C468 0.960 . S
C456 H448 0.929 . S
C456 C457 1.377 . S
C456 C458 1.384 . S
C457 C456 1.377 . S
C457 C463 1.390 . S
C458 H449 0.930 . S
C458 C456 1.384 . S
C458 C459 1.372 . S
C459 C458 1.372 . S
C459 C460 1.400 . S
C459 C464 1.490 . S
C460 H450 0.930 . S
C460 C459 1.400 . S
C460 C463 1.386 . S
H461 C477 0.930 . S
H462 C478 0.931 . S
C463 H451 0.929 . S
C463 C457 1.390 . S
C463 C460 1.386 . S
C464 C459 1.490 . S
C464 C466 1.395 . S
C464 C467 1.403 . S
H465 C471 0.930 . S
C466 H452 0.930 . S
C466 C464 1.395 . S
C466 C469 1.403 . S
C467 C464 1.403 . S
C467 C468 1.524 . S
C467 C471 1.400 . S
C468 H453 0.960 . S
C468 H454 0.960 . S
C468 H455 0.960 . S
C468 C467 1.524 . S
C469 C466 1.403 . S
C469 C470 1.392 . S
C469 C473 1.495 . S
C470 C469 1.392 . S
C470 C471 1.385 . S
C470 C472 1.478 . S
C471 H465 0.930 . S
C471 C467 1.400 . S
C471 C470 1.385 . S
C472 C470 1.478 . S
C472 C474 1.381 . S
C472 C478 1.383 . S
C473 C469 1.495 . S
C473 H479 0.959 . S
C473 H480 0.961 . S
C473 H481 0.960 . S
C474 C472 1.381 . S
C474 C475 1.394 . S
C474 H482 0.930 . S
C475 C474 1.394 . S
C475 C476 1.383 . S
C475 H483 0.929 . S
C476 C475 1.383 . S
C476 C477 1.377 . S
C477 H461 0.930 . S
C477 C476 1.377 . S
C477 C478 1.379 . S
C478 H462 0.931 . S
C478 C472 1.383 . S
C478 C477 1.379 . S
H479 C473 0.959 . S
H480 C473 0.961 . S
H481 C473 0.960 . S
H482 C474 0.930 . S
H483 C475 0.929 . S
H484 C492 0.929 . S
H485 C494 0.930 . S
H486 C496 0.930 . S
H487 C499 0.929 . S
H488 C502 0.930 . S
H489 C504 0.960 . S
H490 C504 0.960 . S
H491 C504 0.960 . S
C492 H484 0.929 . S
C492 C493 1.377 . S
C492 C494 1.384 . S
C493 C492 1.377 . S
C493 C499 1.390 . S
C494 H485 0.930 . S
C494 C492 1.384 . S
C494 C495 1.372 . S
C495 C494 1.372 . S
C495 C496 1.400 . S
C495 C500 1.490 . S
C496 H486 0.930 . S
C496 C495 1.400 . S
C496 C499 1.386 . S
H497 C513 0.930 . S
H498 C514 0.931 . S
C499 H487 0.929 . S
C499 C493 1.390 . S
C499 C496 1.386 . S
C500 C495 1.490 . S
C500 C502 1.395 . S
C500 C503 1.403 . S
H501 C507 0.930 . S
C502 H488 0.930 . S
C502 C500 1.395 . S
C502 C505 1.403 . S
C503 C500 1.403 . S
C503 C504 1.524 . S
C503 C507 1.400 . S
C504 H489 0.960 . S
C504 H490 0.960 . S
C504 H491 0.960 . S
C504 C503 1.524 . S
C505 C502 1.403 . S
C505 C506 1.392 . S
C505 C509 1.495 . S
C506 C505 1.392 . S
C506 C507 1.385 . S
C506 C508 1.478 . S
C507 H501 0.930 . S
C507 C503 1.400 . S
C507 C506 1.385 . S
C508 C506 1.478 . S
C508 C510 1.381 . S
C508 C514 1.383 . S
C509 C505 1.495 . S
C509 H515 0.959 . S
C509 H516 0.961 . S
C509 H517 0.960 . S
C510 C508 1.381 . S
C510 C511 1.394 . S
C510 H518 0.930 . S
C511 C510 1.394 . S
C511 C512 1.383 . S
C511 H519 0.929 . S
C512 C511 1.383 . S
C512 C513 1.377 . S
C513 H497 0.930 . S
C513 C512 1.377 . S
C513 C514 1.379 . S
C514 H498 0.931 . S
C514 C508 1.383 . S
C514 C513 1.379 . S
H515 C509 0.959 . S
H516 C509 0.961 . S
H517 C509 0.960 . S
H518 C510 0.930 . S
H519 C511 0.929 . S
H520 C528 0.929 . S
H521 C530 0.930 . S
H522 C532 0.930 . S
H523 C535 0.929 . S
H524 C538 0.930 . S
H525 C540 0.960 . S
H526 C540 0.960 . S
H527 C540 0.960 . S
C528 H520 0.929 . S
C528 C529 1.377 . S
C528 C530 1.384 . S
C529 C528 1.377 . S
C529 C535 1.390 . S
C530 H521 0.930 . S
C530 C528 1.384 . S
C530 C531 1.372 . S
C531 C530 1.372 . S
C531 C532 1.400 . S
C531 C536 1.490 . S
C532 H522 0.930 . S
C532 C531 1.400 . S
C532 C535 1.386 . S
H533 C549 0.930 . S
H534 C550 0.931 . S
C535 H523 0.929 . S
C535 C529 1.390 . S
C535 C532 1.386 . S
C536 C531 1.490 . S
C536 C538 1.395 . S
C536 C539 1.403 . S
H537 C543 0.930 . S
C538 H524 0.930 . S
C538 C536 1.395 . S
C538 C541 1.403 . S
C539 C536 1.403 . S
C539 C540 1.524 . S
C539 C543 1.400 . S
C540 H525 0.960 . S
C540 H526 0.960 . S
C540 H527 0.960 . S
C540 C539 1.524 . S
C541 C538 1.403 . S
C541 C542 1.392 . S
C541 C545 1.495 . S
C542 C541 1.392 . S
C542 C543 1.385 . S
C542 C544 1.478 . S
C543 H537 0.930 . S
C543 C539 1.400 . S
C543 C542 1.385 . S
C544 C542 1.478 . S
C544 C546 1.381 . S
C544 C550 1.383 . S
C545 C541 1.495 . S
C545 H551 0.959 . S
C545 H552 0.961 . S
C545 H553 0.960 . S
C546 C544 1.381 . S
C546 C547 1.394 . S
C546 H554 0.930 . S
C547 C546 1.394 . S
C547 C548 1.383 . S
C547 H555 0.929 . S
C548 C547 1.383 . S
C548 C549 1.377 . S
C549 H533 0.930 . S
C549 C548 1.377 . S
C549 C550 1.379 . S
C550 H534 0.931 . S
C550 C544 1.383 . S
C550 C549 1.379 . S
H551 C545 0.959 . S
H552 C545 0.961 . S
H553 C545 0.960 . S
H554 C546 0.930 . S
H555 C547 0.929 . S
H556 C564 0.929 . S
H557 C566 0.930 . S
H558 C568 0.930 . S
H559 C571 0.929 . S
H560 C574 0.930 . S
H561 C576 0.960 . S
H562 C576 0.960 . S
H563 C576 0.960 . S
C564 H556 0.929 . S
C564 C565 1.377 . S
C564 C566 1.384 . S
C565 C564 1.377 . S
C565 C571 1.390 . S
C566 H557 0.930 . S
C566 C564 1.384 . S
C566 C567 1.372 . S
C567 C566 1.372 . S
C567 C568 1.400 . S
C567 C572 1.490 . S
C568 H558 0.930 . S
C568 C567 1.400 . S
C568 C571 1.386 . S
H569 C585 0.930 . S
H570 C586 0.931 . S
C571 H559 0.929 . S
C571 C565 1.390 . S
C571 C568 1.386 . S
C572 C567 1.490 . S
C572 C574 1.395 . S
C572 C575 1.403 . S
H573 C579 0.930 . S
C574 H560 0.930 . S
C574 C572 1.395 . S
C574 C577 1.403 . S
C575 C572 1.403 . S
C575 C576 1.524 . S
C575 C579 1.400 . S
C576 H561 0.960 . S
C576 H562 0.960 . S
C576 H563 0.960 . S
C576 C575 1.524 . S
C577 C574 1.403 . S
C577 C578 1.392 . S
C577 C581 1.495 . S
C578 C577 1.392 . S
C578 C579 1.385 . S
C578 C580 1.478 . S
C579 H573 0.930 . S
C579 C575 1.400 . S
C579 C578 1.385 . S
C580 C578 1.478 . S
C580 C582 1.381 . S
C580 C586 1.383 . S
C581 C577 1.495 . S
C581 H587 0.959 . S
C581 H588 0.961 . S
C581 H589 0.960 . S
C582 C580 1.381 . S
C582 C583 1.394 . S
C582 H590 0.930 . S
C583 C582 1.394 . S
C583 C584 1.383 . S
C583 H591 0.929 . S
C584 C583 1.383 . S
C584 C585 1.377 . S
C585 H569 0.930 . S
C585 C584 1.377 . S
C585 C586 1.379 . S
C586 H570 0.931 . S
C586 C580 1.383 . S
C586 C585 1.379 . S
H587 C581 0.959 . S
H588 C581 0.961 . S
H589 C581 0.960 . S
H590 C582 0.930 . S
H591 C583 0.929 . S
H592 C600 0.929 . S
H593 C602 0.930 . S
H594 C604 0.930 . S
H595 C607 0.929 . S
H596 C610 0.930 . S
H597 C612 0.960 . S
H598 C612 0.960 . S
H599 C612 0.960 . S
C600 H592 0.929 . S
C600 C601 1.377 . S
C600 C602 1.384 . S
C601 C600 1.377 . S
C601 C607 1.390 . S
C602 H593 0.930 . S
C602 C600 1.384 . S
C602 C603 1.372 . S
C603 C602 1.372 . S
C603 C604 1.400 . S
C603 C608 1.490 . S
C604 H594 0.930 . S
C604 C603 1.400 . S
C604 C607 1.386 . S
H605 C621 0.930 . S
H606 C622 0.931 . S
C607 H595 0.929 . S
C607 C601 1.390 . S
C607 C604 1.386 . S
C608 C603 1.490 . S
C608 C610 1.395 . S
C608 C611 1.403 . S
H609 C615 0.930 . S
C610 H596 0.930 . S
C610 C608 1.395 . S
C610 C613 1.403 . S
C611 C608 1.403 . S
C611 C612 1.524 . S
C611 C615 1.400 . S
C612 H597 0.960 . S
C612 H598 0.960 . S
C612 H599 0.960 . S
C612 C611 1.524 . S
C613 C610 1.403 . S
C613 C614 1.392 . S
C613 C617 1.495 . S
C614 C613 1.392 . S
C614 C615 1.385 . S
C614 C616 1.478 . S
C615 H609 0.930 . S
C615 C611 1.400 . S
C615 C614 1.385 . S
C616 C614 1.478 . S
C616 C618 1.381 . S
C616 C622 1.383 . S
C617 C613 1.495 . S
C617 H623 0.959 . S
C617 H624 0.961 . S
C617 H625 0.960 . S
C618 C616 1.381 . S
C618 C619 1.394 . S
C618 H626 0.930 . S
C619 C618 1.394 . S
C619 C620 1.383 . S
C619 H627 0.929 . S
C620 C619 1.383 . S
C620 C621 1.377 . S
C621 H605 0.930 . S
C621 C620 1.377 . S
C621 C622 1.379 . S
C622 H606 0.931 . S
C622 C616 1.383 . S
C622 C621 1.379 . S
H623 C617 0.959 . S
H624 C617 0.961 . S
H625 C617 0.960 . S
H626 C618 0.930 . S
H627 C619 0.929 . S
H628 C636 0.929 . S
H629 C638 0.930 . S
H630 C640 0.930 . S
H631 C643 0.929 . S
H632 C646 0.930 . S
H633 C648 0.960 . S
H634 C648 0.960 . S
H635 C648 0.960 . S
C636 H628 0.929 . S
C636 C637 1.377 . S
C636 C638 1.384 . S
C637 C636 1.377 . S
C637 C643 1.390 . S
C638 H629 0.930 . S
C638 C636 1.384 . S
C638 C639 1.372 . S
C639 C638 1.372 . S
C639 C640 1.400 . S
C639 C644 1.490 . S
C640 H630 0.930 . S
C640 C639 1.400 . S
C640 C643 1.386 . S
H641 C657 0.930 . S
H642 C658 0.931 . S
C643 H631 0.929 . S
C643 C637 1.390 . S
C643 C640 1.386 . S
C644 C639 1.490 . S
C644 C646 1.395 . S
C644 C647 1.403 . S
H645 C651 0.930 . S
C646 H632 0.930 . S
C646 C644 1.395 . S
C646 C649 1.403 . S
C647 C644 1.403 . S
C647 C648 1.524 . S
C647 C651 1.400 . S
C648 H633 0.960 . S
C648 H634 0.960 . S
C648 H635 0.960 . S
C648 C647 1.524 . S
C649 C646 1.403 . S
C649 C650 1.392 . S
C649 C653 1.495 . S
C650 C649 1.392 . S
C650 C651 1.385 . S
C650 C652 1.478 . S
C651 H645 0.930 . S
C651 C647 1.400 . S
C651 C650 1.385 . S
C652 C650 1.478 . S
C652 C654 1.381 . S
C652 C658 1.383 . S
C653 C649 1.495 . S
C653 H659 0.959 . S
C653 H660 0.961 . S
C653 H661 0.960 . S
C654 C652 1.381 . S
C654 C655 1.394 . S
C654 H662 0.930 . S
C655 C654 1.394 . S
C655 C656 1.383 . S
C655 H663 0.929 . S
C656 C655 1.383 . S
C656 C657 1.377 . S
C657 H641 0.930 . S
C657 C656 1.377 . S
C657 C658 1.379 . S
C658 H642 0.931 . S
C658 C652 1.383 . S
C658 C657 1.379 . S
H659 C653 0.959 . S
H660 C653 0.961 . S
H661 C653 0.960 . S
H662 C654 0.930 . S
H663 C655 0.929 . S
H664 C672 0.929 . S
H665 C674 0.930 . S
H666 C676 0.930 . S
H667 C679 0.929 . S
H668 C682 0.930 . S
H669 C684 0.960 . S
H670 C684 0.960 . S
H671 C684 0.960 . S
C672 H664 0.929 . S
C672 C673 1.377 . S
C672 C674 1.384 . S
C673 C672 1.377 . S
C673 C679 1.390 . S
C674 H665 0.930 . S
C674 C672 1.384 . S
C674 C675 1.372 . S
C675 C674 1.372 . S
C675 C676 1.400 . S
C675 C680 1.490 . S
C676 H666 0.930 . S
C676 C675 1.400 . S
C676 C679 1.386 . S
H677 C693 0.930 . S
H678 C694 0.931 . S
C679 H667 0.929 . S
C679 C673 1.390 . S
C679 C676 1.386 . S
C680 C675 1.490 . S
C680 C682 1.395 . S
C680 C683 1.403 . S
H681 C687 0.930 . S
C682 H668 0.930 . S
C682 C680 1.395 . S
C682 C685 1.403 . S
C683 C680 1.403 . S
C683 C684 1.524 . S
C683 C687 1.400 . S
C684 H669 0.960 . S
C684 H670 0.960 . S
C684 H671 0.960 . S
C684 C683 1.524 . S
C685 C682 1.403 . S
C685 C686 1.392 . S
C685 C689 1.495 . S
C686 C685 1.392 . S
C686 C687 1.385 . S
C686 C688 1.478 . S
C687 H681 0.930 . S
C687 C683 1.400 . S
C687 C686 1.385 . S
C688 C686 1.478 . S
C688 C690 1.381 . S
C688 C694 1.383 . S
C689 C685 1.495 . S
C689 H695 0.959 . S
C689 H696 0.961 . S
C689 H697 0.960 . S
C690 C688 1.381 . S
C690 C691 1.394 . S
C690 H698 0.930 . S
C691 C690 1.394 . S
C691 C692 1.383 . S
C691 H699 0.929 . S
C692 C691 1.383 . S
C692 C693 1.377 . S
C693 H677 0.930 . S
C693 C692 1.377 . S
C693 C694 1.379 . S
C694 H678 0.931 . S
C694 C688 1.383 . S
C694 C693 1.379 . S
H695 C689 0.959 . S
H696 C689 0.961 . S
H697 C689 0.960 . S
H698 C690 0.930 . S
H699 C691 0.929 . S
H700 C708 0.929 . S
H701 C710 0.930 . S
H702 C712 0.930 . S
H703 C715 0.929 . S
H704 C718 0.930 . S
H705 C720 0.960 . S
H706 C720 0.960 . S
H707 C720 0.960 . S
C708 H700 0.929 . S
C708 C709 1.377 . S
C708 C710 1.384 . S
C709 C708 1.377 . S
C709 C715 1.390 . S
C710 H701 0.930 . S
C710 C708 1.384 . S
C710 C711 1.372 . S
C711 C710 1.372 . S
C711 C712 1.400 . S
C711 C716 1.490 . S
C712 H702 0.930 . S
C712 C711 1.400 . S
C712 C715 1.386 . S
H713 C729 0.930 . S
H714 C730 0.931 . S
C715 H703 0.929 . S
C715 C709 1.390 . S
C715 C712 1.386 . S
C716 C711 1.490 . S
C716 C718 1.395 . S
C716 C719 1.403 . S
H717 C723 0.930 . S
C718 H704 0.930 . S
C718 C716 1.395 . S
C718 C721 1.403 . S
C719 C716 1.403 . S
C719 C720 1.524 . S
C719 C723 1.400 . S
C720 H705 0.960 . S
C720 H706 0.960 . S
C720 H707 0.960 . S
C720 C719 1.524 . S
C721 C718 1.403 . S
C721 C722 1.392 . S
C721 C725 1.495 . S
C722 C721 1.392 . S
C722 C723 1.385 . S
C722 C724 1.478 . S
C723 H717 0.930 . S
C723 C719 1.400 . S
C723 C722 1.385 . S
C724 C722 1.478 . S
C724 C726 1.381 . S
C724 C730 1.383 . S
C725 C721 1.495 . S
C725 H731 0.959 . S
C725 H732 0.961 . S
C725 H733 0.960 . S
C726 C724 1.381 . S
C726 C727 1.394 . S
C726 H734 0.930 . S
C727 C726 1.394 . S
C727 C728 1.383 . S
C727 H735 0.929 . S
C728 C727 1.383 . S
C728 C729 1.377 . S
C729 H713 0.930 . S
C729 C728 1.377 . S
C729 C730 1.379 . S
C730 H714 0.931 . S
C730 C724 1.383 . S
C730 C729 1.379 . S
H731 C725 0.959 . S
H732 C725 0.961 . S
H733 C725 0.960 . S
H734 C726 0.930 . S
H735 C727 0.929 . S
H736 C744 0.929 . S
H737 C746 0.930 . S
H738 C748 0.930 . S
H739 C751 0.929 . S
H740 C754 0.930 . S
H741 C756 0.960 . S
H742 C756 0.960 . S
H743 C756 0.960 . S
C744 H736 0.929 . S
C744 C745 1.377 . S
C744 C746 1.384 . S
C745 C744 1.377 . S
C745 C751 1.390 . S
C746 H737 0.930 . S
C746 C744 1.384 . S
C746 C747 1.372 . S
C747 C746 1.372 . S
C747 C748 1.400 . S
C747 C752 1.490 . S
C748 H738 0.930 . S
C748 C747 1.400 . S
C748 C751 1.386 . S
H749 C765 0.930 . S
H750 C766 0.931 . S
C751 H739 0.929 . S
C751 C745 1.390 . S
C751 C748 1.386 . S
C752 C747 1.490 . S
C752 C754 1.395 . S
C752 C755 1.403 . S
H753 C759 0.930 . S
C754 H740 0.930 . S
C754 C752 1.395 . S
C754 C757 1.403 . S
C755 C752 1.403 . S
C755 C756 1.524 . S
C755 C759 1.400 . S
C756 H741 0.960 . S
C756 H742 0.960 . S
C756 H743 0.960 . S
C756 C755 1.524 . S
C757 C754 1.403 . S
C757 C758 1.392 . S
C757 C761 1.495 . S
C758 C757 1.392 . S
C758 C759 1.385 . S
C758 C760 1.478 . S
C759 H753 0.930 . S
C759 C755 1.400 . S
C759 C758 1.385 . S
C760 C758 1.478 . S
C760 C762 1.381 . S
C760 C766 1.383 . S
C761 C757 1.495 . S
C761 H767 0.959 . S
C761 H768 0.961 . S
C761 H769 0.960 . S
C762 C760 1.381 . S
C762 C763 1.394 . S
C762 H770 0.930 . S
C763 C762 1.394 . S
C763 C764 1.383 . S
C763 H771 0.929 . S
C764 C763 1.383 . S
C764 C765 1.377 . S
C765 H749 0.930 . S
C765 C764 1.377 . S
C765 C766 1.379 . S
C766 H750 0.931 . S
C766 C760 1.383 . S
C766 C765 1.379 . S
H767 C761 0.959 . S
H768 C761 0.961 . S
H769 C761 0.960 . S
H770 C762 0.930 . S
H771 C763 0.929 . S
H772 C780 0.929 . S
H773 C782 0.930 . S
H774 C784 0.930 . S
H775 C787 0.929 . S
H776 C790 0.930 . S
H777 C792 0.960 . S
H778 C792 0.960 . S
H779 C792 0.960 . S
C780 H772 0.929 . S
C780 C781 1.377 . S
C780 C782 1.384 . S
C781 C780 1.377 . S
C781 C787 1.390 . S
C782 H773 0.930 . S
C782 C780 1.384 . S
C782 C783 1.372 . S
C783 C782 1.372 . S
C783 C784 1.400 . S
C783 C788 1.490 . S
C784 H774 0.930 . S
C784 C783 1.400 . S
C784 C787 1.386 . S
H785 C801 0.930 . S
H786 C802 0.931 . S
C787 H775 0.929 . S
C787 C781 1.390 . S
C787 C784 1.386 . S
C788 C783 1.490 . S
C788 C790 1.395 . S
C788 C791 1.403 . S
H789 C795 0.930 . S
C790 H776 0.930 . S
C790 C788 1.395 . S
C790 C793 1.403 . S
C791 C788 1.403 . S
C791 C792 1.524 . S
C791 C795 1.400 . S
C792 H777 0.960 . S
C792 H778 0.960 . S
C792 H779 0.960 . S
C792 C791 1.524 . S
C793 C790 1.403 . S
C793 C794 1.392 . S
C793 C797 1.495 . S
C794 C793 1.392 . S
C794 C795 1.385 . S
C794 C796 1.478 . S
C795 H789 0.930 . S
C795 C791 1.400 . S
C795 C794 1.385 . S
C796 C794 1.478 . S
C796 C798 1.381 . S
C796 C802 1.383 . S
C797 C793 1.495 . S
C797 H803 0.959 . S
C797 H804 0.961 . S
C797 H805 0.960 . S
C798 C796 1.381 . S
C798 C799 1.394 . S
C798 H806 0.930 . S
C799 C798 1.394 . S
C799 C800 1.383 . S
C799 H807 0.929 . S
C800 C799 1.383 . S
C800 C801 1.377 . S
C801 H785 0.930 . S
C801 C800 1.377 . S
C801 C802 1.379 . S
C802 H786 0.931 . S
C802 C796 1.383 . S
C802 C801 1.379 . S
H803 C797 0.959 . S
H804 C797 0.961 . S
H805 C797 0.960 . S
H806 C798 0.930 . S
H807 C799 0.929 . S
H808 C816 0.929 . S
H809 C818 0.930 . S
H810 C820 0.930 . S
H811 C823 0.929 . S
H812 C826 0.930 . S
H813 C828 0.960 . S
H814 C828 0.960 . S
H815 C828 0.960 . S
C816 H808 0.929 . S
C816 C817 1.377 . S
C816 C818 1.384 . S
C817 C816 1.377 . S
C817 C823 1.390 . S
C818 H809 0.930 . S
C818 C816 1.384 . S
C818 C819 1.372 . S
C819 C818 1.372 . S
C819 C820 1.400 . S
C819 C824 1.490 . S
C820 H810 0.930 . S
C820 C819 1.400 . S
C820 C823 1.386 . S
H821 C837 0.930 . S
H822 C838 0.931 . S
C823 H811 0.929 . S
C823 C817 1.390 . S
C823 C820 1.386 . S
C824 C819 1.490 . S
C824 C826 1.395 . S
C824 C827 1.403 . S
H825 C831 0.930 . S
C826 H812 0.930 . S
C826 C824 1.395 . S
C826 C829 1.403 . S
C827 C824 1.403 . S
C827 C828 1.524 . S
C827 C831 1.400 . S
C828 H813 0.960 . S
C828 H814 0.960 . S
C828 H815 0.960 . S
C828 C827 1.524 . S
C829 C826 1.403 . S
C829 C830 1.392 . S
C829 C833 1.495 . S
C830 C829 1.392 . S
C830 C831 1.385 . S
C830 C832 1.478 . S
C831 H825 0.930 . S
C831 C827 1.400 . S
C831 C830 1.385 . S
C832 C830 1.478 . S
C832 C834 1.381 . S
C832 C838 1.383 . S
C833 C829 1.495 . S
C833 H839 0.959 . S
C833 H840 0.961 . S
C833 H841 0.960 . S
C834 C832 1.381 . S
C834 C835 1.394 . S
C834 H842 0.930 . S
C835 C834 1.394 . S
C835 C836 1.383 . S
C835 H843 0.929 . S
C836 C835 1.383 . S
C836 C837 1.377 . S
C837 H821 0.930 . S
C837 C836 1.377 . S
C837 C838 1.379 . S
C838 H822 0.931 . S
C838 C832 1.383 . S
C838 C837 1.379 . S
H839 C833 0.959 . S
H840 C833 0.961 . S
H841 C833 0.960 . S
H842 C834 0.930 . S
H843 C835 0.929 . S
H844 C852 0.929 . S
H845 C854 0.930 . S
H846 C856 0.930 . S
H847 C859 0.929 . S
H848 C862 0.930 . S
H849 C864 0.960 . S
H850 C864 0.960 . S
H851 C864 0.960 . S
C852 H844 0.929 . S
C852 C853 1.377 . S
C852 C854 1.384 . S
C853 C852 1.377 . S
C853 C859 1.390 . S
C854 H845 0.930 . S
C854 C852 1.384 . S
C854 C855 1.372 . S
C855 C854 1.372 . S
C855 C856 1.400 . S
C855 C860 1.490 . S
C856 H846 0.930 . S
C856 C855 1.400 . S
C856 C859 1.386 . S
H857 C873 0.930 . S
H858 C874 0.931 . S
C859 H847 0.929 . S
C859 C853 1.390 . S
C859 C856 1.386 . S
C860 C855 1.490 . S
C860 C862 1.395 . S
C860 C863 1.403 . S
H861 C867 0.930 . S
C862 H848 0.930 . S
C862 C860 1.395 . S
C862 C865 1.403 . S
C863 C860 1.403 . S
C863 C864 1.524 . S
C863 C867 1.400 . S
C864 H849 0.960 . S
C864 H850 0.960 . S
C864 H851 0.960 . S
C864 C863 1.524 . S
C865 C862 1.403 . S
C865 C866 1.392 . S
C865 C869 1.495 . S
C866 C865 1.392 . S
C866 C867 1.385 . S
C866 C868 1.478 . S
C867 H861 0.930 . S
C867 C863 1.400 . S
C867 C866 1.385 . S
C868 C866 1.478 . S
C868 C870 1.381 . S
C868 C874 1.383 . S
C869 C865 1.495 . S
C869 H875 0.959 . S
C869 H876 0.961 . S
C869 H877 0.960 . S
C870 C868 1.381 . S
C870 C871 1.394 . S
C870 H878 0.930 . S
C871 C870 1.394 . S
C871 C872 1.383 . S
C871 H879 0.929 . S
C872 C871 1.383 . S
C872 C873 1.377 . S
C873 H857 0.930 . S
C873 C872 1.377 . S
C873 C874 1.379 . S
C874 H858 0.931 . S
C874 C868 1.383 . S
C874 C873 1.379 . S
H875 C869 0.959 . S
H876 C869 0.961 . S
H877 C869 0.960 . S
H878 C870 0.930 . S
H879 C871 0.929 . S
H880 C888 0.929 . S
H881 C890 0.930 . S
H882 C892 0.930 . S
H883 C895 0.929 . S
H884 C898 0.930 . S
H885 C900 0.960 . S
H886 C900 0.960 . S
H887 C900 0.960 . S
C888 H880 0.929 . S
C888 C889 1.377 . S
C888 C890 1.384 . S
C889 C888 1.377 . S
C889 C895 1.390 . S
C890 H881 0.930 . S
C890 C888 1.384 . S
C890 C891 1.372 . S
C891 C890 1.372 . S
C891 C892 1.400 . S
C891 C896 1.490 . S
C892 H882 0.930 . S
C892 C891 1.400 . S
C892 C895 1.386 . S
H893 C909 0.930 . S
H894 C910 0.931 . S
C895 H883 0.929 . S
C895 C889 1.390 . S
C895 C892 1.386 . S
C896 C891 1.490 . S
C896 C898 1.395 . S
C896 C899 1.403 . S
H897 C903 0.930 . S
C898 H884 0.930 . S
C898 C896 1.395 . S
C898 C901 1.403 . S
C899 C896 1.403 . S
C899 C900 1.524 . S
C899 C903 1.400 . S
C900 H885 0.960 . S
C900 H886 0.960 . S
C900 H887 0.960 . S
C900 C899 1.524 . S
C901 C898 1.403 . S
C901 C902 1.392 . S
C901 C905 1.495 . S
C902 C901 1.392 . S
C902 C903 1.385 . S
C902 C904 1.478 . S
C903 H897 0.930 . S
C903 C899 1.400 . S
C903 C902 1.385 . S
C904 C902 1.478 . S
C904 C906 1.381 . S
C904 C910 1.383 . S
C905 C901 1.495 . S
C905 H911 0.959 . S
C905 H912 0.961 . S
C905 H913 0.960 . S
C906 C904 1.381 . S
C906 C907 1.394 . S
C906 H914 0.930 . S
C907 C906 1.394 . S
C907 C908 1.383 . S
C907 H915 0.929 . S
C908 C907 1.383 . S
C908 C909 1.377 . S
C909 H893 0.930 . S
C909 C908 1.377 . S
C909 C910 1.379 . S
C910 H894 0.931 . S
C910 C904 1.383 . S
C910 C909 1.379 . S
H911 C905 0.959 . S
H912 C905 0.961 . S
H913 C905 0.960 . S
H914 C906 0.930 . S
H915 C907 0.929 . S
H916 C924 0.929 . S
H917 C926 0.930 . S
H918 C928 0.930 . S
H919 C931 0.929 . S
H920 C934 0.930 . S
H921 C936 0.960 . S
H922 C936 0.960 . S
H923 C936 0.960 . S
C924 H916 0.929 . S
C924 C925 1.377 . S
C924 C926 1.384 . S
C925 C924 1.377 . S
C925 C931 1.390 . S
C926 H917 0.930 . S
C926 C924 1.384 . S
C926 C927 1.372 . S
C927 C926 1.372 . S
C927 C928 1.400 . S
C927 C932 1.490 . S
C928 H918 0.930 . S
C928 C927 1.400 . S
C928 C931 1.386 . S
H929 C945 0.930 . S
H930 C946 0.931 . S
C931 H919 0.929 . S
C931 C925 1.390 . S
C931 C928 1.386 . S
C932 C927 1.490 . S
C932 C934 1.395 . S
C932 C935 1.403 . S
H933 C939 0.930 . S
C934 H920 0.930 . S
C934 C932 1.395 . S
C934 C937 1.403 . S
C935 C932 1.403 . S
C935 C936 1.524 . S
C935 C939 1.400 . S
C936 H921 0.960 . S
C936 H922 0.960 . S
C936 H923 0.960 . S
C936 C935 1.524 . S
C937 C934 1.403 . S
C937 C938 1.392 . S
C937 C941 1.495 . S
C938 C937 1.392 . S
C938 C939 1.385 . S
C938 C940 1.478 . S
C939 H933 0.930 . S
C939 C935 1.400 . S
C939 C938 1.385 . S
C940 C938 1.478 . S
C940 C942 1.381 . S
C940 C946 1.383 . S
C941 C937 1.495 . S
C941 H947 0.959 . S
C941 H948 0.961 . S
C941 H949 0.960 . S
C942 C940 1.381 . S
C942 C943 1.394 . S
C942 H950 0.930 . S
C943 C942 1.394 . S
C943 C944 1.383 . S
C943 H951 0.929 . S
C944 C943 1.383 . S
C944 C945 1.377 . S
C945 H929 0.930 . S
C945 C944 1.377 . S
C945 C946 1.379 . S
C946 H930 0.931 . S
C946 C940 1.383 . S
C946 C945 1.379 . S
H947 C941 0.959 . S
H948 C941 0.961 . S
H949 C941 0.960 . S
H950 C942 0.930 . S
H951 C943 0.929 . S
H952 C960 0.929 . S
H953 C962 0.930 . S
H954 C964 0.930 . S
H955 C967 0.929 . S
H956 C970 0.930 . S
H957 C972 0.960 . S
H958 C972 0.960 . S
H959 C972 0.960 . S
C960 H952 0.929 . S
C960 C961 1.377 . S
C960 C962 1.384 . S
C961 C960 1.377 . S
C961 C967 1.390 . S
C962 H953 0.930 . S
C962 C960 1.384 . S
C962 C963 1.372 . S
C963 C962 1.372 . S
C963 C964 1.400 . S
C963 C968 1.490 . S
C964 H954 0.930 . S
C964 C963 1.400 . S
C964 C967 1.386 . S
H965 C981 0.930 . S
H966 C982 0.931 . S
C967 H955 0.929 . S
C967 C961 1.390 . S
C967 C964 1.386 . S
C968 C963 1.490 . S
C968 C970 1.395 . S
C968 C971 1.403 . S
H969 C975 0.930 . S
C970 H956 0.930 . S
C970 C968 1.395 . S
C970 C973 1.403 . S
C971 C968 1.403 . S
C971 C972 1.524 . S
C971 C975 1.400 . S
C972 H957 0.960 . S
C972 H958 0.960 . S
C972 H959 0.960 . S
C972 C971 1.524 . S
C973 C970 1.403 . S
C973 C974 1.392 . S
C973 C977 1.495 . S
C974 C973 1.392 . S
C974 C975 1.385 . S
C974 C976 1.478 . S
C975 H969 0.930 . S
C975 C971 1.400 . S
C975 C974 1.385 . S
C976 C974 1.478 . S
C976 C978 1.381 . S
C976 C982 1.383 . S
C977 C973 1.495 . S
C977 H983 0.959 . S
C977 H984 0.961 . S
C977 H985 0.960 . S
C978 C976 1.381 . S
C978 C979 1.394 . S
C978 H986 0.930 . S
C979 C978 1.394 . S
C979 C980 1.383 . S
C979 H987 0.929 . S
C980 C979 1.383 . S
C980 C981 1.377 . S
C981 H965 0.930 . S
C981 C980 1.377 . S
C981 C982 1.379 . S
C982 H966 0.931 . S
C982 C976 1.383 . S
C982 C981 1.379 . S
H983 C977 0.959 . S
H984 C977 0.961 . S
H985 C977 0.960 . S
H986 C978 0.930 . S
H987 C979 0.929 . S
H988 C996 0.929 . S
H989 C998 0.930 . S
H990 C1000 0.930 . S
H991 C1003 0.929 . S
H992 C1006 0.930 . S
H993 C1008 0.960 . S
H994 C1008 0.960 . S
H995 C1008 0.960 . S
C996 H988 0.929 . S
C996 C997 1.377 . S
C996 C998 1.384 . S
C997 C996 1.377 . S
C997 C1003 1.390 . S
C998 H989 0.930 . S
C998 C996 1.384 . S
C998 C999 1.372 . S
C999 C998 1.372 . S
C999 C1000 1.400 . S
C999 C1004 1.490 . S
C1000 H990 0.930 . S
C1000 C999 1.400 . S
C1000 C1003 1.386 . S
H1001 C1017 0.930 . S
H1002 C1018 0.931 . S
C1003 H991 0.929 . S
C1003 C997 1.390 . S
C1003 C1000 1.386 . S
C1004 C999 1.490 . S
C1004 C1006 1.395 . S
C1004 C1007 1.403 . S
H1005 C1011 0.930 . S
C1006 H992 0.930 . S
C1006 C1004 1.395 . S
C1006 C1009 1.403 . S
C1007 C1004 1.403 . S
C1007 C1008 1.524 . S
C1007 C1011 1.400 . S
C1008 H993 0.960 . S
C1008 H994 0.960 . S
C1008 H995 0.960 . S
C1008 C1007 1.524 . S
C1009 C1006 1.403 . S
C1009 C1010 1.392 . S
C1009 C1013 1.495 . S
C1010 C1009 1.392 . S
C1010 C1011 1.385 . S
C1010 C1012 1.478 . S
C1011 H1005 0.930 . S
C1011 C1007 1.400 . S
C1011 C1010 1.385 . S
C1012 C1010 1.478 . S
C1012 C1014 1.381 . S
C1012 C1018 1.383 . S
C1013 C1009 1.495 . S
C1013 H1019 0.959 . S
C1013 H1020 0.961 . S
C1013 H1021 0.960 . S
C1014 C1012 1.381 . S
C1014 C1015 1.394 . S
C1014 H1022 0.930 . S
C1015 C1014 1.394 . S
C1015 C1016 1.383 . S
C1015 H1023 0.929 . S
C1016 C1015 1.383 . S
C1016 C1017 1.377 . S
C1017 H1001 0.930 . S
C1017 C1016 1.377 . S
C1017 C1018 1.379 . S
C1018 H1002 0.931 . S
C1018 C1012 1.383 . S
C1018 C1017 1.379 . S
H1019 C1013 0.959 . S
H1020 C1013 0.961 . S
H1021 C1013 0.960 . S
H1022 C1014 0.930 . S
H1023 C1015 0.929 . S
H1024 C1032 0.929 . S
H1025 C1034 0.930 . S
H1026 C1036 0.930 1_556 S
H1027 C1039 0.929 1_556 S
H1028 C1042 0.930 . S
H1029 C1044 0.960 . S
H1030 C1044 0.960 . S
H1031 C1044 1.029 . S
C1032 H1024 0.929 . S
C1032 C1033 1.377 . S
C1032 C1034 1.384 . S
C1033 C1032 1.377 . S
C1033 C1039 1.390 . S
C1034 H1025 0.930 . S
C1034 C1032 1.384 . S
C1034 C1035 1.372 . S
C1035 C1034 1.372 . S
C1035 C1036 1.400 . S
C1035 C1040 1.490 . S
C1036 H1026 0.930 1_554 S
C1036 C1035 1.400 . S
C1036 C1039 1.386 . S
H1037 C1053 0.930 1_556 S
H1038 C1054 0.931 1_556 S
C1039 H1027 0.929 1_554 S
C1039 C1033 1.390 . S
C1039 C1036 1.386 . S
C1040 C1035 1.490 . S
C1040 C1042 1.395 . S
C1040 C1043 1.403 . S
H1041 C1047 0.930 . S
C1042 H1028 0.930 . S
C1042 C1040 1.395 . S
C1042 C1045 1.403 1_455 S
C1043 C1040 1.403 . S
C1043 C1044 1.524 . S
C1043 C1047 1.400 1_455 S
C1044 H1029 0.960 . S
C1044 H1030 0.960 . S
C1044 H1031 1.029 . S
C1044 C1043 1.524 . S
C1045 C1042 1.403 1_655 S
C1045 C1046 1.392 . S
C1045 C1049 1.495 . S
C1046 C1045 1.392 . S
C1046 C1047 1.385 . S
C1046 C1048 1.478 . S
C1047 H1041 0.930 . S
C1047 C1043 1.400 1_655 S
C1047 C1046 1.385 . S
C1048 C1046 1.478 . S
C1048 C1050 1.381 . S
C1048 C1054 1.383 . S
C1049 C1045 1.495 . S
C1049 H1055 0.959 . S
C1049 H1056 0.961 . S
C1049 H1057 0.960 . S
C1050 C1048 1.381 . S
C1050 C1051 1.394 . S
C1050 H1058 0.930 . S
C1051 C1050 1.394 . S
C1051 C1052 1.383 . S
C1051 H1059 0.929 . S
C1052 C1051 1.383 . S
C1052 C1053 1.377 . S
C1053 H1037 0.930 1_554 S
C1053 C1052 1.377 . S
C1053 C1054 1.379 . S
C1054 H1038 0.931 1_554 S
C1054 C1048 1.383 . S
C1054 C1053 1.379 . S
H1055 C1049 0.959 . S
H1056 C1049 0.961 . S
H1057 C1049 0.960 . S
H1058 C1050 0.930 . S
H1059 C1051 0.929 . S
H1060 C1068 0.929 . S
H1061 C1070 0.930 . S
H1062 C1072 0.930 . S
H1063 C1075 0.929 . S
H1064 C1078 0.930 . S
H1065 C1080 0.960 . S
H1066 C1080 0.960 . S
H1067 C1080 0.960 . S
C1068 H1060 0.929 . S
C1068 C1069 1.377 . S
C1068 C1070 1.384 . S
C1069 C1068 1.377 . S
C1069 C1075 1.390 . S
C1070 H1061 0.930 . S
C1070 C1068 1.384 . S
C1070 C1071 1.372 . S
C1071 C1070 1.372 . S
C1071 C1072 1.400 . S
C1071 C1076 1.490 . S
C1072 H1062 0.930 . S
C1072 C1071 1.400 . S
C1072 C1075 1.386 . S
H1073 C1089 0.930 . S
H1074 C1090 0.931 . S
C1075 H1063 0.929 . S
C1075 C1069 1.390 . S
C1075 C1072 1.386 . S
C1076 C1071 1.490 . S
C1076 C1078 1.395 . S
C1076 C1079 1.403 . S
H1077 C1083 0.930 . S
C1078 H1064 0.930 . S
C1078 C1076 1.395 . S
C1078 C1081 1.403 . S
C1079 C1076 1.403 . S
C1079 C1080 1.524 . S
C1079 C1083 1.400 . S
C1080 H1065 0.960 . S
C1080 H1066 0.960 . S
C1080 H1067 0.960 . S
C1080 C1079 1.524 . S
C1081 C1078 1.403 . S
C1081 C1082 1.392 . S
C1081 C1085 1.495 . S
C1082 C1081 1.392 . S
C1082 C1083 1.385 . S
C1082 C1084 1.478 . S
C1083 H1077 0.930 . S
C1083 C1079 1.400 . S
C1083 C1082 1.385 . S
C1084 C1082 1.478 . S
C1084 C1086 1.381 . S
C1084 C1090 1.383 . S
C1085 C1081 1.495 . S
C1085 H1091 0.959 . S
C1085 H1092 0.961 . S
C1085 H1093 0.960 . S
C1086 C1084 1.381 . S
C1086 C1087 1.394 . S
C1086 H1094 0.930 . S
C1087 C1086 1.394 . S
C1087 C1088 1.383 . S
C1087 H1095 0.929 . S
C1088 C1087 1.383 . S
C1088 C1089 1.377 . S
C1089 H1073 0.930 . S
C1089 C1088 1.377 . S
C1089 C1090 1.379 . S
C1090 H1074 0.931 . S
C1090 C1084 1.383 . S
C1090 C1089 1.379 . S
H1091 C1085 0.959 . S
H1092 C1085 0.961 . S
H1093 C1085 0.960 . S
H1094 C1086 0.930 . S
H1095 C1087 0.929 . S
H1096 C1104 0.929 . S
H1097 C1106 0.930 . S
H1098 C1108 0.930 . S
H1099 C1111 0.929 . S
H1100 C1114 0.930 . S
H1101 C1116 0.960 . S
H1102 C1116 0.960 . S
H1103 C1116 0.960 . S
C1104 H1096 0.929 . S
C1104 C1105 1.377 . S
C1104 C1106 1.384 . S
C1105 C1104 1.377 . S
C1105 C1111 1.390 . S
C1106 H1097 0.930 . S
C1106 C1104 1.384 . S
C1106 C1107 1.372 . S
C1107 C1106 1.372 . S
C1107 C1108 1.400 . S
C1107 C1112 1.490 . S
C1108 H1098 0.930 . S
C1108 C1107 1.400 . S
C1108 C1111 1.386 . S
H1109 C1125 0.930 . S
H1110 C1126 0.931 . S
C1111 H1099 0.929 . S
C1111 C1105 1.390 . S
C1111 C1108 1.386 . S
C1112 C1107 1.490 . S
C1112 C1114 1.395 . S
C1112 C1115 1.403 . S
H1113 C1119 0.930 . S
C1114 H1100 0.930 . S
C1114 C1112 1.395 . S
C1114 C1117 1.403 . S
C1115 C1112 1.403 . S
C1115 C1116 1.524 . S
C1115 C1119 1.400 . S
C1116 H1101 0.960 . S
C1116 H1102 0.960 . S
C1116 H1103 0.960 . S
C1116 C1115 1.524 . S
C1117 C1114 1.403 . S
C1117 C1118 1.392 . S
C1117 C1121 1.495 . S
C1118 C1117 1.392 . S
C1118 C1119 1.385 . S
C1118 C1120 1.478 . S
C1119 H1113 0.930 . S
C1119 C1115 1.400 . S
C1119 C1118 1.385 . S
C1120 C1118 1.478 . S
C1120 C1122 1.381 . S
C1120 C1126 1.383 . S
C1121 C1117 1.495 . S
C1121 H1127 0.959 . S
C1121 H1128 0.961 . S
C1121 H1129 0.960 . S
C1122 C1120 1.381 . S
C1122 C1123 1.394 . S
C1122 H1130 0.930 . S
C1123 C1122 1.394 . S
C1123 C1124 1.383 . S
C1123 H1131 0.929 . S
C1124 C1123 1.383 . S
C1124 C1125 1.377 . S
C1125 H1109 0.930 . S
C1125 C1124 1.377 . S
C1125 C1126 1.379 . S
C1126 H1110 0.931 . S
C1126 C1120 1.383 . S
C1126 C1125 1.379 . S
H1127 C1121 0.959 . S
H1128 C1121 0.961 . S
H1129 C1121 0.960 . S
H1130 C1122 0.930 . S
H1131 C1123 0.929 . S
H1132 C1140 0.929 . S
H1133 C1142 0.930 . S
H1134 C1144 0.930 . S
H1135 C1147 0.929 . S
H1136 C1150 0.930 . S
H1137 C1152 0.960 . S
H1138 C1152 0.960 . S
H1139 C1152 0.960 . S
C1140 H1132 0.929 . S
C1140 C1141 1.377 . S
C1140 C1142 1.384 . S
C1141 C1140 1.377 . S
C1141 C1147 1.390 . S
C1142 H1133 0.930 . S
C1142 C1140 1.384 . S
C1142 C1143 1.372 . S
C1143 C1142 1.372 . S
C1143 C1144 1.400 . S
C1143 C1148 1.490 . S
C1144 H1134 0.930 . S
C1144 C1143 1.400 . S
C1144 C1147 1.386 . S
H1145 C1161 0.930 . S
H1146 C1162 0.931 . S
C1147 H1135 0.929 . S
C1147 C1141 1.390 . S
C1147 C1144 1.386 . S
C1148 C1143 1.490 . S
C1148 C1150 1.395 . S
C1148 C1151 1.403 . S
H1149 C1155 0.930 . S
C1150 H1136 0.930 . S
C1150 C1148 1.395 . S
C1150 C1153 1.403 . S
C1151 C1148 1.403 . S
C1151 C1152 1.524 . S
C1151 C1155 1.400 . S
C1152 H1137 0.960 . S
C1152 H1138 0.960 . S
C1152 H1139 0.960 . S
C1152 C1151 1.524 . S
C1153 C1150 1.403 . S
C1153 C1154 1.392 . S
C1153 C1157 1.495 . S
C1154 C1153 1.392 . S
C1154 C1155 1.385 . S
C1154 C1156 1.478 . S
C1155 H1149 0.930 . S
C1155 C1151 1.400 . S
C1155 C1154 1.385 . S
C1156 C1154 1.478 . S
C1156 C1158 1.381 . S
C1156 C1162 1.383 . S
C1157 C1153 1.495 . S
C1157 H1163 0.959 . S
C1157 H1164 0.961 . S
C1157 H1165 0.960 . S
C1158 C1156 1.381 . S
C1158 C1159 1.394 . S
C1158 H1166 0.930 . S
C1159 C1158 1.394 . S
C1159 C1160 1.383 . S
C1159 H1167 0.929 . S
C1160 C1159 1.383 . S
C1160 C1161 1.377 . S
C1161 H1145 0.930 . S
C1161 C1160 1.377 . S
C1161 C1162 1.379 . S
C1162 H1146 0.931 . S
C1162 C1156 1.383 . S
C1162 C1161 1.379 . S
H1163 C1157 0.959 . S
H1164 C1157 0.961 . S
H1165 C1157 0.960 . S
H1166 C1158 0.930 . S
H1167 C1159 0.929 . S
H1168 C1176 0.929 . S
H1169 C1178 0.930 . S
H1170 C1180 0.930 . S
H1171 C1183 0.929 . S
H1172 C1186 0.930 . S
H1173 C1188 0.960 . S
H1174 C1188 0.960 . S
H1175 C1188 0.960 . S
C1176 H1168 0.929 . S
C1176 C1177 1.377 . S
C1176 C1178 1.384 . S
C1177 C1176 1.377 . S
C1177 C1183 1.390 . S
C1178 H1169 0.930 . S
C1178 C1176 1.384 . S
C1178 C1179 1.372 . S
C1179 C1178 1.372 . S
C1179 C1180 1.400 . S
C1179 C1184 1.490 . S
C1180 H1170 0.930 . S
C1180 C1179 1.400 . S
C1180 C1183 1.386 . S
H1181 C1197 0.930 . S
H1182 C1198 0.931 . S
C1183 H1171 0.929 . S
C1183 C1177 1.390 . S
C1183 C1180 1.386 . S
C1184 C1179 1.490 . S
C1184 C1186 1.395 . S
C1184 C1187 1.403 . S
H1185 C1191 0.930 1_554 S
C1186 H1172 0.930 . S
C1186 C1184 1.395 . S
C1186 C1189 1.403 1_655 S
C1187 C1184 1.403 . S
C1187 C1188 1.524 1_556 S
C1187 C1191 1.400 1_655 S
C1188 H1173 0.960 . S
C1188 H1174 0.960 . S
C1188 H1175 0.960 . S
C1188 C1187 1.524 1_554 S
C1189 C1186 1.403 1_455 S
C1189 C1190 1.392 . S
C1189 C1193 1.495 . S
C1190 C1189 1.392 . S
C1190 C1191 1.385 . S
C1190 C1192 1.478 . S
C1191 H1185 0.930 1_556 S
C1191 C1187 1.400 1_455 S
C1191 C1190 1.385 . S
C1192 C1190 1.478 . S
C1192 C1194 1.381 . S
C1192 C1198 1.383 . S
C1193 C1189 1.495 . S
C1193 H1199 0.959 . S
C1193 H1200 0.961 . S
C1193 H1201 0.960 . S
C1194 C1192 1.381 . S
C1194 C1195 1.394 . S
C1194 H1202 0.930 . S
C1195 C1194 1.394 . S
C1195 C1196 1.383 . S
C1195 H1203 0.929 . S
C1196 C1195 1.383 . S
C1196 C1197 1.377 . S
C1197 H1181 0.930 . S
C1197 C1196 1.377 . S
C1197 C1198 1.379 . S
C1198 H1182 0.931 . S
C1198 C1192 1.383 . S
C1198 C1197 1.379 . S
H1199 C1193 0.959 . S
H1200 C1193 0.961 . S
H1201 C1193 0.960 . S
H1202 C1194 0.930 . S
H1203 C1195 0.929 . S
H1204 C1212 0.929 . S
H1205 C1214 0.930 . S
H1206 C1216 0.930 . S
H1207 C1219 0.929 . S
H1208 C1222 0.930 . S
H1209 C1224 0.960 . S
H1210 C1224 0.960 . S
H1211 C1224 0.960 . S
C1212 H1204 0.929 . S
C1212 C1213 1.377 . S
C1212 C1214 1.384 . S
C1213 C1212 1.377 . S
C1213 C1219 1.390 . S
C1214 H1205 0.930 . S
C1214 C1212 1.384 . S
C1214 C1215 1.372 . S
C1215 C1214 1.372 . S
C1215 C1216 1.400 . S
C1215 C1220 1.490 . S
C1216 H1206 0.930 . S
C1216 C1215 1.400 . S
C1216 C1219 1.386 . S
H1217 C1233 0.930 . S
H1218 C1234 0.931 . S
C1219 H1207 0.929 . S
C1219 C1213 1.390 . S
C1219 C1216 1.386 . S
C1220 C1215 1.490 . S
C1220 C1222 1.395 . S
C1220 C1223 1.403 . S
H1221 C1227 0.930 . S
C1222 H1208 0.930 . S
C1222 C1220 1.395 . S
C1222 C1225 1.403 . S
C1223 C1220 1.403 . S
C1223 C1224 1.524 . S
C1223 C1227 1.400 . S
C1224 H1209 0.960 . S
C1224 H1210 0.960 . S
C1224 H1211 0.960 . S
C1224 C1223 1.524 . S
C1225 C1222 1.403 . S
C1225 C1226 1.392 . S
C1225 C1229 1.495 . S
C1226 C1225 1.392 . S
C1226 C1227 1.385 . S
C1226 C1228 1.478 . S
C1227 H1221 0.930 . S
C1227 C1223 1.400 . S
C1227 C1226 1.385 . S
C1228 C1226 1.478 . S
C1228 C1230 1.381 . S
C1228 C1234 1.383 . S
C1229 C1225 1.495 . S
C1229 H1235 0.959 . S
C1229 H1236 0.961 . S
C1229 H1237 0.960 . S
C1230 C1228 1.381 . S
C1230 C1231 1.394 . S
C1230 H1238 0.930 . S
C1231 C1230 1.394 . S
C1231 C1232 1.383 . S
C1231 H1239 0.929 . S
C1232 C1231 1.383 . S
C1232 C1233 1.377 . S
C1233 H1217 0.930 . S
C1233 C1232 1.377 . S
C1233 C1234 1.379 . S
C1234 H1218 0.931 . S
C1234 C1228 1.383 . S
C1234 C1233 1.379 . S
H1235 C1229 0.959 . S
H1236 C1229 0.961 . S
H1237 C1229 0.960 . S
H1238 C1230 0.930 . S
H1239 C1231 0.929 . S
H1240 C1248 0.929 . S
H1241 C1250 0.930 . S
H1242 C1252 0.930 . S
H1243 C1255 0.929 . S
H1244 C1258 0.930 . S
H1245 C1260 0.960 . S
H1246 C1260 0.960 . S
H1247 C1260 0.960 . S
C1248 H1240 0.929 . S
C1248 C1249 1.377 . S
C1248 C1250 1.384 . S
C1249 C1248 1.377 . S
C1249 C1255 1.390 . S
C1250 H1241 0.930 . S
C1250 C1248 1.384 . S
C1250 C1251 1.372 . S
C1251 C1250 1.372 . S
C1251 C1252 1.400 . S
C1251 C1256 1.490 . S
C1252 H1242 0.930 . S
C1252 C1251 1.400 . S
C1252 C1255 1.386 . S
H1253 C1269 0.930 . S
H1254 C1270 0.931 . S
C1255 H1243 0.929 . S
C1255 C1249 1.390 . S
C1255 C1252 1.386 . S
C1256 C1251 1.490 . S
C1256 C1258 1.395 . S
C1256 C1259 1.403 . S
H1257 C1263 0.930 . S
C1258 H1244 0.930 . S
C1258 C1256 1.395 . S
C1258 C1261 1.403 . S
C1259 C1256 1.403 . S
C1259 C1260 1.524 . S
C1259 C1263 1.400 . S
C1260 H1245 0.960 . S
C1260 H1246 0.960 . S
C1260 H1247 0.960 . S
C1260 C1259 1.524 . S
C1261 C1258 1.403 . S
C1261 C1262 1.392 . S
C1261 C1265 1.495 . S
C1262 C1261 1.392 . S
C1262 C1263 1.385 . S
C1262 C1264 1.478 . S
C1263 H1257 0.930 . S
C1263 C1259 1.400 . S
C1263 C1262 1.385 . S
C1264 C1262 1.478 . S
C1264 C1266 1.381 . S
C1264 C1270 1.383 . S
C1265 C1261 1.495 . S
C1265 H1271 0.959 . S
C1265 H1272 0.961 . S
C1265 H1273 0.960 . S
C1266 C1264 1.381 . S
C1266 C1267 1.394 . S
C1266 H1274 0.930 . S
C1267 C1266 1.394 . S
C1267 C1268 1.383 . S
C1267 H1275 0.929 . S
C1268 C1267 1.383 . S
C1268 C1269 1.377 . S
C1269 H1253 0.930 . S
C1269 C1268 1.377 . S
C1269 C1270 1.379 . S
C1270 H1254 0.931 . S
C1270 C1264 1.383 . S
C1270 C1269 1.379 . S
H1271 C1265 0.959 . S
H1272 C1265 0.961 . S
H1273 C1265 0.960 . S
H1274 C1266 0.930 . S
H1275 C1267 0.929 . S
H1276 C1284 0.929 . S
H1277 C1286 0.930 . S
H1278 C1288 0.930 . S
H1279 C1291 0.929 . S
H1280 C1294 0.930 . S
H1281 C1296 0.960 . S
H1282 C1296 0.960 . S
H1283 C1296 0.960 . S
C1284 H1276 0.929 . S
C1284 C1285 1.377 . S
C1284 C1286 1.384 . S
C1285 C1284 1.377 . S
C1285 C1291 1.390 . S
C1286 H1277 0.930 . S
C1286 C1284 1.384 . S
C1286 C1287 1.372 . S
C1287 C1286 1.372 . S
C1287 C1288 1.400 . S
C1287 C1292 1.490 . S
C1288 H1278 0.930 . S
C1288 C1287 1.400 . S
C1288 C1291 1.386 . S
H1289 C1305 0.930 . S
H1290 C1306 0.931 . S
C1291 H1279 0.929 . S
C1291 C1285 1.390 . S
C1291 C1288 1.386 . S
C1292 C1287 1.490 . S
C1292 C1294 1.395 . S
C1292 C1295 1.403 . S
H1293 C1299 0.930 . S
C1294 H1280 0.930 . S
C1294 C1292 1.395 . S
C1294 C1297 1.403 . S
C1295 C1292 1.403 . S
C1295 C1296 1.524 . S
C1295 C1299 1.400 . S
C1296 H1281 0.960 . S
C1296 H1282 0.960 . S
C1296 H1283 0.960 . S
C1296 C1295 1.524 . S
C1297 C1294 1.403 . S
C1297 C1298 1.392 . S
C1297 C1301 1.495 . S
C1298 C1297 1.392 . S
C1298 C1299 1.385 . S
C1298 C1300 1.478 . S
C1299 H1293 0.930 . S
C1299 C1295 1.400 . S
C1299 C1298 1.385 . S
C1300 C1298 1.478 . S
C1300 C1302 1.381 . S
C1300 C1306 1.383 . S
C1301 C1297 1.495 . S
C1301 H1307 0.959 . S
C1301 H1308 0.961 . S
C1301 H1309 0.960 . S
C1302 C1300 1.381 . S
C1302 C1303 1.394 . S
C1302 H1310 0.930 . S
C1303 C1302 1.394 . S
C1303 C1304 1.383 . S
C1303 H1311 0.929 . S
C1304 C1303 1.383 . S
C1304 C1305 1.377 . S
C1305 H1289 0.930 . S
C1305 C1304 1.377 . S
C1305 C1306 1.379 . S
C1306 H1290 0.931 . S
C1306 C1300 1.383 . S
C1306 C1305 1.379 . S
H1307 C1301 0.959 . S
H1308 C1301 0.961 . S
H1309 C1301 0.960 . S
H1310 C1302 0.930 . S
H1311 C1303 0.929 . S
H1312 C1320 0.929 . S
H1313 C1322 0.930 . S
H1314 C1324 0.930 . S
H1315 C1327 0.929 . S
H1316 C1330 0.930 . S
H1317 C1332 0.960 . S
H1318 C1332 0.960 . S
H1319 C1332 0.960 . S
C1320 H1312 0.929 . S
C1320 C1321 1.377 . S
C1320 C1322 1.384 . S
C1321 C1320 1.377 . S
C1321 C1327 1.390 . S
C1322 H1313 0.930 . S
C1322 C1320 1.384 . S
C1322 C1323 1.372 . S
C1323 C1322 1.372 . S
C1323 C1324 1.400 . S
C1323 C1328 1.490 . S
C1324 H1314 0.930 . S
C1324 C1323 1.400 . S
C1324 C1327 1.386 . S
H1325 C1341 0.930 . S
H1326 C1342 0.931 . S
C1327 H1315 0.929 . S
C1327 C1321 1.390 . S
C1327 C1324 1.386 . S
C1328 C1323 1.490 . S
C1328 C1330 1.395 . S
C1328 C1331 1.403 . S
H1329 C1335 0.930 . S
C1330 H1316 0.930 . S
C1330 C1328 1.395 . S
C1330 C1333 1.403 . S
C1331 C1328 1.403 . S
C1331 C1332 1.524 . S
C1331 C1335 1.400 . S
C1332 H1317 0.960 . S
C1332 H1318 0.960 . S
C1332 H1319 0.960 . S
C1332 C1331 1.524 . S
C1333 C1330 1.403 . S
C1333 C1334 1.392 . S
C1333 C1337 1.495 . S
C1334 C1333 1.392 . S
C1334 C1335 1.385 . S
C1334 C1336 1.478 . S
C1335 H1329 0.930 . S
C1335 C1331 1.400 . S
C1335 C1334 1.385 . S
C1336 C1334 1.478 . S
C1336 C1338 1.381 . S
C1336 C1342 1.383 . S
C1337 C1333 1.495 . S
C1337 H1343 0.959 . S
C1337 H1344 0.961 . S
C1337 H1345 0.960 . S
C1338 C1336 1.381 . S
C1338 C1339 1.394 . S
C1338 H1346 0.930 . S
C1339 C1338 1.394 . S
C1339 C1340 1.383 . S
C1339 H1347 0.929 . S
C1340 C1339 1.383 . S
C1340 C1341 1.377 . S
C1341 H1325 0.930 . S
C1341 C1340 1.377 . S
C1341 C1342 1.379 . S
C1342 H1326 0.931 . S
C1342 C1336 1.383 . S
C1342 C1341 1.379 . S
H1343 C1337 0.959 . S
H1344 C1337 0.961 . S
H1345 C1337 0.960 . S
H1346 C1338 0.930 . S
H1347 C1339 0.929 . S
H1348 C1356 0.929 . S
H1349 C1358 0.930 . S
H1350 C1360 0.930 . S
H1351 C1363 0.929 . S
H1352 C1366 0.930 . S
H1353 C1368 0.960 . S
H1354 C1368 0.960 . S
H1355 C1368 0.960 . S
C1356 H1348 0.929 . S
C1356 C1357 1.377 . S
C1356 C1358 1.384 . S
C1357 C1356 1.377 . S
C1357 C1363 1.390 . S
C1358 H1349 0.930 . S
C1358 C1356 1.384 . S
C1358 C1359 1.372 . S
C1359 C1358 1.372 . S
C1359 C1360 1.400 . S
C1359 C1364 1.490 . S
C1360 H1350 0.930 . S
C1360 C1359 1.400 . S
C1360 C1363 1.386 . S
H1361 C1377 0.930 . S
H1362 C1378 0.931 . S
C1363 H1351 0.929 . S
C1363 C1357 1.390 . S
C1363 C1360 1.386 . S
C1364 C1359 1.490 . S
C1364 C1366 1.395 . S
C1364 C1367 1.403 . S
H1365 C1371 0.930 . S
C1366 H1352 0.930 . S
C1366 C1364 1.395 . S
C1366 C1369 1.403 . S
C1367 C1364 1.403 . S
C1367 C1368 1.524 . S
C1367 C1371 1.400 . S
C1368 H1353 0.960 . S
C1368 H1354 0.960 . S
C1368 H1355 0.960 . S
C1368 C1367 1.524 . S
C1369 C1366 1.403 . S
C1369 C1370 1.392 . S
C1369 C1373 1.495 . S
C1370 C1369 1.392 . S
C1370 C1371 1.385 . S
C1370 C1372 1.478 . S
C1371 H1365 0.930 . S
C1371 C1367 1.400 . S
C1371 C1370 1.385 . S
C1372 C1370 1.478 . S
C1372 C1374 1.381 . S
C1372 C1378 1.383 . S
C1373 C1369 1.495 . S
C1373 H1379 0.959 . S
C1373 H1380 0.961 . S
C1373 H1381 0.960 . S
C1374 C1372 1.381 . S
C1374 C1375 1.394 . S
C1374 H1382 0.930 . S
C1375 C1374 1.394 . S
C1375 C1376 1.383 . S
C1375 H1383 0.929 . S
C1376 C1375 1.383 . S
C1376 C1377 1.377 . S
C1377 H1361 0.930 . S
C1377 C1376 1.377 . S
C1377 C1378 1.379 . S
C1378 H1362 0.931 . S
C1378 C1372 1.383 . S
C1378 C1377 1.379 . S
H1379 C1373 0.959 . S
H1380 C1373 0.961 . S
H1381 C1373 0.960 . S
H1382 C1374 0.930 . S
H1383 C1375 0.929 . S
H1384 C1392 0.929 . S
H1385 C1394 0.930 . S
H1386 C1396 0.930 . S
H1387 C1399 0.929 . S
H1388 C1402 0.930 . S
H1389 C1404 0.960 . S
H1390 C1404 0.960 . S
H1391 C1404 0.960 . S
C1392 H1384 0.929 . S
C1392 C1393 1.377 . S
C1392 C1394 1.384 . S
C1393 C1392 1.377 . S
C1393 C1399 1.390 . S
C1394 H1385 0.930 . S
C1394 C1392 1.384 . S
C1394 C1395 1.372 . S
C1395 C1394 1.372 . S
C1395 C1396 1.400 . S
C1395 C1400 1.490 . S
C1396 H1386 0.930 . S
C1396 C1395 1.400 . S
C1396 C1399 1.386 . S
H1397 C1413 0.930 . S
H1398 C1414 0.931 . S
C1399 H1387 0.929 . S
C1399 C1393 1.390 . S
C1399 C1396 1.386 . S
C1400 C1395 1.490 . S
C1400 C1402 1.395 . S
C1400 C1403 1.403 . S
H1401 C1407 0.930 . S
C1402 H1388 0.930 . S
C1402 C1400 1.395 . S
C1402 C1405 1.403 . S
C1403 C1400 1.403 . S
C1403 C1404 1.524 . S
C1403 C1407 1.400 . S
C1404 H1389 0.960 . S
C1404 H1390 0.960 . S
C1404 H1391 0.960 . S
C1404 C1403 1.524 . S
C1405 C1402 1.403 . S
C1405 C1406 1.392 . S
C1405 C1409 1.495 . S
C1406 C1405 1.392 . S
C1406 C1407 1.385 . S
C1406 C1408 1.478 . S
C1407 H1401 0.930 . S
C1407 C1403 1.400 . S
C1407 C1406 1.385 . S
C1408 C1406 1.478 . S
C1408 C1410 1.381 . S
C1408 C1414 1.383 . S
C1409 C1405 1.495 . S
C1409 H1415 0.959 . S
C1409 H1416 0.961 . S
C1409 H1417 0.960 . S
C1410 C1408 1.381 . S
C1410 C1411 1.394 . S
C1410 H1418 0.930 . S
C1411 C1410 1.394 . S
C1411 C1412 1.383 . S
C1411 H1419 0.929 . S
C1412 C1411 1.383 . S
C1412 C1413 1.377 . S
C1413 H1397 0.930 . S
C1413 C1412 1.377 . S
C1413 C1414 1.379 . S
C1414 H1398 0.931 . S
C1414 C1408 1.383 . S
C1414 C1413 1.379 . S
H1415 C1409 0.959 . S
H1416 C1409 0.961 . S
H1417 C1409 0.960 . S
H1418 C1410 0.930 . S
H1419 C1411 0.929 . S
H1420 C1428 0.929 . S
H1421 C1430 0.930 . S
H1422 C1432 0.930 . S
H1423 C1435 0.929 . S
H1424 C1438 0.930 . S
H1425 C1440 0.960 . S
H1426 C1440 0.960 . S
H1427 C1440 0.960 . S
C1428 H1420 0.929 . S
C1428 C1429 1.377 . S
C1428 C1430 1.384 . S
C1429 C1428 1.377 . S
C1429 C1435 1.390 . S
C1430 H1421 0.930 . S
C1430 C1428 1.384 . S
C1430 C1431 1.372 . S
C1431 C1430 1.372 . S
C1431 C1432 1.400 . S
C1431 C1436 1.490 . S
C1432 H1422 0.930 . S
C1432 C1431 1.400 . S
C1432 C1435 1.386 . S
H1433 C1449 0.930 . S
H1434 C1450 0.931 . S
C1435 H1423 0.929 . S
C1435 C1429 1.390 . S
C1435 C1432 1.386 . S
C1436 C1431 1.490 . S
C1436 C1438 1.395 . S
C1436 C1439 1.403 . S
H1437 C1443 0.930 . S
C1438 H1424 0.930 . S
C1438 C1436 1.395 . S
C1438 C1441 1.403 . S
C1439 C1436 1.403 . S
C1439 C1440 1.524 . S
C1439 C1443 1.400 . S
C1440 H1425 0.960 . S
C1440 H1426 0.960 . S
C1440 H1427 0.960 . S
C1440 C1439 1.524 . S
C1441 C1438 1.403 . S
C1441 C1442 1.392 . S
C1441 C1445 1.495 . S
C1442 C1441 1.392 . S
C1442 C1443 1.385 . S
C1442 C1444 1.478 . S
C1443 H1437 0.930 . S
C1443 C1439 1.400 . S
C1443 C1442 1.385 . S
C1444 C1442 1.478 . S
C1444 C1446 1.381 . S
C1444 C1450 1.383 . S
C1445 C1441 1.495 . S
C1445 H1451 0.959 . S
C1445 H1452 0.961 . S
C1445 H1453 0.960 . S
C1446 C1444 1.381 . S
C1446 C1447 1.394 . S
C1446 H1454 0.930 . S
C1447 C1446 1.394 . S
C1447 C1448 1.383 . S
C1447 H1455 0.929 . S
C1448 C1447 1.383 . S
C1448 C1449 1.377 . S
C1449 H1433 0.930 . S
C1449 C1448 1.377 . S
C1449 C1450 1.379 . S
C1450 H1434 0.931 . S
C1450 C1444 1.383 . S
C1450 C1449 1.379 . S
H1451 C1445 0.959 . S
H1452 C1445 0.961 . S
H1453 C1445 0.960 . S
H1454 C1446 0.930 . S
H1455 C1447 0.929 . S
H1456 C1464 0.929 . S
H1457 C1466 0.930 . S
H1458 C1468 0.930 . S
H1459 C1471 0.929 . S
H1460 C1474 0.930 . S
H1461 C1476 0.960 . S
H1462 C1476 0.960 . S
H1463 C1476 0.960 . S
C1464 H1456 0.929 . S
C1464 C1465 1.377 . S
C1464 C1466 1.384 . S
C1465 C1464 1.377 . S
C1465 C1471 1.390 . S
C1466 H1457 0.930 . S
C1466 C1464 1.384 . S
C1466 C1467 1.372 . S
C1467 C1466 1.372 . S
C1467 C1468 1.400 . S
C1467 C1472 1.490 . S
C1468 H1458 0.930 . S
C1468 C1467 1.400 . S
C1468 C1471 1.386 . S
H1469 C1485 0.930 . S
H1470 C1486 0.931 . S
C1471 H1459 0.929 . S
C1471 C1465 1.390 . S
C1471 C1468 1.386 . S
C1472 C1467 1.490 . S
C1472 C1474 1.395 . S
C1472 C1475 1.403 . S
H1473 C1479 0.930 . S
C1474 H1460 0.930 . S
C1474 C1472 1.395 . S
C1474 C1477 1.403 . S
C1475 C1472 1.403 . S
C1475 C1476 1.524 . S
C1475 C1479 1.400 . S
C1476 H1461 0.960 . S
C1476 H1462 0.960 . S
C1476 H1463 0.960 . S
C1476 C1475 1.524 . S
C1477 C1474 1.403 . S
C1477 C1478 1.392 . S
C1477 C1481 1.495 . S
C1478 C1477 1.392 . S
C1478 C1479 1.385 . S
C1478 C1480 1.478 . S
C1479 H1473 0.930 . S
C1479 C1475 1.400 . S
C1479 C1478 1.385 . S
C1480 C1478 1.478 . S
C1480 C1482 1.381 . S
C1480 C1486 1.383 . S
C1481 C1477 1.495 . S
C1481 H1487 0.959 . S
C1481 H1488 0.961 . S
C1481 H1489 0.960 . S
C1482 C1480 1.381 . S
C1482 C1483 1.394 . S
C1482 H1490 0.930 . S
C1483 C1482 1.394 . S
C1483 C1484 1.383 . S
C1483 H1491 0.929 . S
C1484 C1483 1.383 . S
C1484 C1485 1.377 . S
C1485 H1469 0.930 . S
C1485 C1484 1.377 . S
C1485 C1486 1.379 . S
C1486 H1470 0.931 . S
C1486 C1480 1.383 . S
C1486 C1485 1.379 . S
H1487 C1481 0.959 . S
H1488 C1481 0.961 . S
H1489 C1481 0.960 . S
H1490 C1482 0.930 . S
H1491 C1483 0.929 . S
H1492 C1500 0.929 . S
H1493 C1502 0.930 . S
H1494 C1504 0.930 1_556 S
H1495 C1507 0.929 1_556 S
H1496 C1510 0.930 . S
H1497 C1512 0.960 . S
H1498 C1512 0.960 1_554 S
H1499 C1512 0.960 . S
C1500 H1492 0.929 . S
C1500 C1501 1.377 . S
C1500 C1502 1.384 . S
C1501 C1500 1.377 . S
C1501 C1507 1.390 . S
C1502 H1493 0.930 . S
C1502 C1500 1.384 . S
C1502 C1503 1.372 . S
C1503 C1502 1.372 . S
C1503 C1504 1.400 . S
C1503 C1508 1.490 . S
C1504 H1494 0.930 1_554 S
C1504 C1503 1.400 . S
C1504 C1507 1.386 . S
H1505 C1521 0.930 1_556 S
H1506 C1522 0.928 1_556 S
C1507 H1495 0.929 1_554 S
C1507 C1501 1.390 . S
C1507 C1504 1.386 . S
C1508 C1503 1.490 . S
C1508 C1510 1.395 . S
C1508 C1511 1.403 . S
H1509 C1515 0.930 . S
C1510 H1496 0.930 . S
C1510 C1508 1.395 . S
C1510 C1513 1.403 1_655 S
C1511 C1508 1.403 . S
C1511 C1512 1.524 1_554 S
C1511 C1515 1.400 1_655 S
C1512 H1497 0.960 . S
C1512 H1498 0.960 1_556 S
C1512 H1499 0.960 . S
C1512 C1511 1.524 1_556 S
C1513 C1510 1.403 1_455 S
C1513 C1514 1.392 . S
C1513 C1517 1.495 . S
C1514 C1513 1.392 . S
C1514 C1515 1.385 . S
C1514 C1516 1.478 . S
C1515 H1509 0.930 . S
C1515 C1511 1.400 1_455 S
C1515 C1514 1.385 . S
C1516 C1514 1.478 . S
C1516 C1518 1.381 . S
C1516 C1522 1.383 . S
C1517 C1513 1.495 . S
C1517 H1523 0.959 . S
C1517 H1524 0.961 . S
C1517 H1525 0.960 . S
C1518 C1516 1.381 . S
C1518 C1519 1.394 . S
C1518 H1526 0.930 . S
C1519 C1518 1.394 . S
C1519 C1520 1.383 . S
C1519 H1527 0.929 . S
C1520 C1519 1.383 . S
C1520 C1521 1.377 . S
C1521 H1505 0.930 1_554 S
C1521 C1520 1.377 . S
C1521 C1522 1.379 . S
C1522 H1506 0.928 1_554 S
C1522 C1516 1.383 . S
C1522 C1521 1.379 . S
H1523 C1517 0.959 . S
H1524 C1517 0.961 . S
H1525 C1517 0.960 . S
H1526 C1518 0.930 . S
H1527 C1519 0.929 . S
H1528 C1536 0.929 . S
H1529 C1538 0.930 . S
H1530 C1540 0.930 . S
H1531 C1543 0.929 . S
H1532 C1546 0.930 . S
H1533 C1548 0.960 . S
H1534 C1548 0.960 . S
H1535 C1548 0.960 . S
C1536 H1528 0.929 . S
C1536 C1537 1.377 . S
C1536 C1538 1.384 . S
C1537 C1536 1.377 . S
C1537 C1543 1.390 . S
C1538 H1529 0.930 . S
C1538 C1536 1.384 . S
C1538 C1539 1.372 . S
C1539 C1538 1.372 . S
C1539 C1540 1.400 . S
C1539 C1544 1.490 . S
C1540 H1530 0.930 . S
C1540 C1539 1.400 . S
C1540 C1543 1.386 . S
H1541 C1557 0.930 . S
H1542 C1558 0.931 . S
C1543 H1531 0.929 . S
C1543 C1537 1.390 . S
C1543 C1540 1.386 . S
C1544 C1539 1.490 . S
C1544 C1546 1.395 . S
C1544 C1547 1.403 . S
H1545 C1551 0.930 . S
C1546 H1532 0.930 . S
C1546 C1544 1.395 . S
C1546 C1549 1.403 . S
C1547 C1544 1.403 . S
C1547 C1548 1.524 . S
C1547 C1551 1.400 . S
C1548 H1533 0.960 . S
C1548 H1534 0.960 . S
C1548 H1535 0.960 . S
C1548 C1547 1.524 . S
C1549 C1546 1.403 . S
C1549 C1550 1.392 . S
C1549 C1553 1.495 . S
C1550 C1549 1.392 . S
C1550 C1551 1.385 . S
C1550 C1552 1.478 . S
C1551 H1545 0.930 . S
C1551 C1547 1.400 . S
C1551 C1550 1.385 . S
C1552 C1550 1.478 . S
C1552 C1554 1.381 . S
C1552 C1558 1.383 . S
C1553 C1549 1.495 . S
C1553 H1559 0.959 . S
C1553 H1560 0.961 . S
C1553 H1561 0.960 . S
C1554 C1552 1.381 . S
C1554 C1555 1.394 . S
C1554 H1562 0.930 . S
C1555 C1554 1.394 . S
C1555 C1556 1.383 . S
C1555 H1563 0.929 . S
C1556 C1555 1.383 . S
C1556 C1557 1.377 . S
C1557 H1541 0.930 . S
C1557 C1556 1.377 . S
C1557 C1558 1.379 . S
C1558 H1542 0.931 . S
C1558 C1552 1.383 . S
C1558 C1557 1.379 . S
H1559 C1553 0.959 . S
H1560 C1553 0.961 . S
H1561 C1553 0.960 . S
H1562 C1554 0.930 . S
H1563 C1555 0.929 . S
H1564 C1572 0.929 1_554 S
H1565 C1574 0.930 1_554 S
H1566 C1576 0.930 . S
H1567 C1579 0.929 . S
H1568 C1582 0.930 . S
H1569 C1584 0.960 . S
H1570 C1584 0.960 . S
H1571 C1584 0.960 . S
C1572 H1564 0.929 1_556 S
C1572 C1573 1.377 . S
C1572 C1574 1.384 . S
C1573 C1572 1.377 . S
C1573 C1579 1.390 . S
C1574 H1565 0.930 1_556 S
C1574 C1572 1.384 . S
C1574 C1575 1.372 . S
C1575 C1574 1.372 . S
C1575 C1576 1.400 . S
C1575 C1580 1.490 . S
C1576 H1566 0.930 . S
C1576 C1575 1.400 . S
C1576 C1579 1.386 . S
H1577 C1593 0.930 . S
H1578 C1594 0.931 . S
C1579 H1567 0.929 . S
C1579 C1573 1.390 . S
C1579 C1576 1.386 . S
C1580 C1575 1.490 . S
C1580 C1582 1.395 . S
C1580 C1583 1.403 . S
H1581 C1587 0.930 . S
C1582 H1568 0.930 . S
C1582 C1580 1.395 . S
C1582 C1585 1.403 1_455 S
C1583 C1580 1.403 . S
C1583 C1584 1.524 . S
C1583 C1587 1.400 1_455 S
C1584 H1569 0.960 . S
C1584 H1570 0.960 . S
C1584 H1571 0.960 . S
C1584 C1583 1.524 . S
C1585 C1582 1.403 1_655 S
C1585 C1586 1.392 . S
C1585 C1589 1.495 1_556 S
C1586 C1585 1.392 . S
C1586 C1587 1.385 . S
C1586 C1588 1.478 . S
C1587 H1581 0.930 . S
C1587 C1583 1.400 1_655 S
C1587 C1586 1.385 . S
C1588 C1586 1.478 . S
C1588 C1590 1.381 . S
C1588 C1594 1.383 . S
C1589 C1585 1.495 1_554 S
C1589 H1595 0.959 . S
C1589 H1596 0.961 1_554 S
C1589 H1597 0.960 . S
C1590 C1588 1.381 . S
C1590 C1591 1.394 . S
C1590 H1598 0.930 1_556 S
C1591 C1590 1.394 . S
C1591 C1592 1.383 . S
C1591 H1599 0.929 1_556 S
C1592 C1591 1.383 . S
C1592 C1593 1.377 . S
C1593 H1577 0.930 . S
C1593 C1592 1.377 . S
C1593 C1594 1.379 . S
C1594 H1578 0.931 . S
C1594 C1588 1.383 . S
C1594 C1593 1.379 . S
H1595 C1589 0.959 . S
H1596 C1589 0.961 1_556 S
H1597 C1589 0.960 . S
H1598 C1590 0.930 1_554 S
H1599 C1591 0.929 1_554 S
H1600 C1608 0.929 . S
H1601 C1610 0.930 . S
H1602 C1612 0.930 . S
H1603 C1615 0.929 . S
H1604 C1618 0.930 . S
H1605 C1620 0.962 1_554 S
H1606 C1620 0.951 . S
H1607 C1620 0.967 1_554 S
C1608 H1600 0.929 . S
C1608 C1609 1.377 . S
C1608 C1610 1.384 . S
C1609 C1608 1.377 . S
C1609 C1615 1.390 1_556 S
C1610 H1601 0.930 . S
C1610 C1608 1.384 . S
C1610 C1611 1.372 . S
C1611 C1610 1.372 . S
C1611 C1612 1.400 1_556 S
C1611 C1616 1.490 . S
C1612 H1602 0.930 . S
C1612 C1611 1.400 1_554 S
C1612 C1615 1.386 . S
H1613 C1629 0.930 . S
H1614 C1630 0.931 . S
C1615 H1603 0.929 . S
C1615 C1609 1.390 1_554 S
C1615 C1612 1.386 . S
C1616 C1611 1.490 . S
C1616 C1618 1.395 . S
C1616 C1619 1.406 . S
H1617 C1623 0.930 . S
C1618 H1604 0.930 . S
C1618 C1616 1.395 . S
C1618 C1621 1.403 . S
C1619 C1616 1.406 . S
C1619 C1620 1.523 . S
C1619 C1623 1.397 1_556 S
C1620 H1605 0.962 1_556 S
C1620 H1606 0.951 . S
C1620 H1607 0.967 1_556 S
C1620 C1619 1.523 . S
C1621 C1618 1.403 . S
C1621 C1622 1.392 1_556 S
C1621 C1625 1.495 . S
C1622 C1621 1.392 1_554 S
C1622 C1623 1.385 . S
C1622 C1624 1.478 . S
C1623 H1617 0.930 . S
C1623 C1619 1.397 1_554 S
C1623 C1622 1.385 . S
C1624 C1622 1.478 . S
C1624 C1626 1.381 1_554 S
C1624 C1630 1.383 . S
C1625 C1621 1.495 . S
C1625 H1631 0.959 . S
C1625 H1632 0.961 1_556 S
C1625 H1633 0.960 . S
C1626 C1624 1.381 1_556 S
C1626 C1627 1.394 . S
C1626 H1634 0.930 . S
C1627 C1626 1.394 . S
C1627 C1628 1.383 1_556 S
C1627 H1635 0.929 . S
C1628 C1627 1.383 1_554 S
C1628 C1629 1.377 . S
C1629 H1613 0.930 . S
C1629 C1628 1.377 . S
C1629 C1630 1.379 . S
C1630 H1614 0.931 . S
C1630 C1624 1.383 . S
C1630 C1629 1.379 . S
H1631 C1625 0.959 . S
H1632 C1625 0.961 1_554 S
H1633 C1625 0.960 . S
H1634 C1626 0.930 . S
H1635 C1627 0.929 . S
H1636 C1644 0.929 . S
H1637 C1646 0.930 . S
H1638 C1648 0.930 . S
H1639 C1651 0.929 . S
H1640 C1654 0.930 . S
H1641 C1656 0.960 . S
H1642 C1656 0.960 . S
H1643 C1656 0.960 . S
C1644 H1636 0.929 . S
C1644 C1645 1.377 . S
C1644 C1646 1.384 . S
C1645 C1644 1.377 . S
C1645 C1651 1.390 . S
C1646 H1637 0.930 . S
C1646 C1644 1.384 . S
C1646 C1647 1.372 . S
C1647 C1646 1.372 . S
C1647 C1648 1.400 . S
C1647 C1652 1.490 . S
C1648 H1638 0.930 . S
C1648 C1647 1.400 . S
C1648 C1651 1.386 . S
H1649 C1665 0.930 . S
H1650 C1666 0.931 . S
C1651 H1639 0.929 . S
C1651 C1645 1.390 . S
C1651 C1648 1.386 . S
C1652 C1647 1.490 . S
C1652 C1654 1.395 . S
C1652 C1655 1.403 . S
H1653 C1659 0.930 . S
C1654 H1640 0.930 . S
C1654 C1652 1.395 . S
C1654 C1657 1.403 . S
C1655 C1652 1.403 . S
C1655 C1656 1.524 . S
C1655 C1659 1.400 . S
C1656 H1641 0.960 . S
C1656 H1642 0.960 . S
C1656 H1643 0.960 . S
C1656 C1655 1.524 . S
C1657 C1654 1.403 . S
C1657 C1658 1.392 . S
C1657 C1661 1.495 . S
C1658 C1657 1.392 . S
C1658 C1659 1.385 . S
C1658 C1660 1.478 . S
C1659 H1653 0.930 . S
C1659 C1655 1.400 . S
C1659 C1658 1.385 . S
C1660 C1658 1.478 . S
C1660 C1662 1.381 . S
C1660 C1666 1.383 . S
C1661 C1657 1.495 . S
C1661 H1667 0.959 . S
C1661 H1668 0.961 . S
C1661 H1669 0.960 . S
C1662 C1660 1.381 . S
C1662 C1663 1.394 . S
C1662 H1670 0.930 . S
C1663 C1662 1.394 . S
C1663 C1664 1.383 . S
C1663 H1671 0.929 . S
C1664 C1663 1.383 . S
C1664 C1665 1.377 . S
C1665 H1649 0.930 . S
C1665 C1664 1.377 . S
C1665 C1666 1.379 . S
C1666 H1650 0.931 . S
C1666 C1660 1.383 . S
C1666 C1665 1.379 . S
H1667 C1661 0.959 . S
H1668 C1661 0.961 . S
H1669 C1661 0.960 . S
H1670 C1662 0.930 . S
H1671 C1663 0.929 . S
H1672 C1680 0.929 . S
H1673 C1682 0.930 . S
H1674 C1684 0.930 . S
H1675 C1687 0.929 . S
H1676 C1690 0.930 . S
H1677 C1692 0.960 . S
H1678 C1692 0.960 . S
H1679 C1692 0.960 . S
C1680 H1672 0.929 . S
C1680 C1681 1.377 . S
C1680 C1682 1.384 . S
C1681 C1680 1.377 . S
C1681 C1687 1.390 . S
C1682 H1673 0.930 . S
C1682 C1680 1.384 . S
C1682 C1683 1.372 . S
C1683 C1682 1.372 . S
C1683 C1684 1.400 . S
C1683 C1688 1.490 . S
C1684 H1674 0.930 . S
C1684 C1683 1.400 . S
C1684 C1687 1.386 . S
H1685 C1701 0.930 . S
H1686 C1702 0.931 . S
C1687 H1675 0.929 . S
C1687 C1681 1.390 . S
C1687 C1684 1.386 . S
C1688 C1683 1.490 . S
C1688 C1690 1.395 . S
C1688 C1691 1.403 . S
H1689 C1695 0.930 . S
C1690 H1676 0.930 . S
C1690 C1688 1.395 . S
C1690 C1693 1.403 . S
C1691 C1688 1.403 . S
C1691 C1692 1.524 . S
C1691 C1695 1.400 . S
C1692 H1677 0.960 . S
C1692 H1678 0.960 . S
C1692 H1679 0.960 . S
C1692 C1691 1.524 . S
C1693 C1690 1.403 . S
C1693 C1694 1.392 . S
C1693 C1697 1.495 . S
C1694 C1693 1.392 . S
C1694 C1695 1.385 . S
C1694 C1696 1.478 . S
C1695 H1689 0.930 . S
C1695 C1691 1.400 . S
C1695 C1694 1.385 . S
C1696 C1694 1.478 . S
C1696 C1698 1.381 . S
C1696 C1702 1.383 . S
C1697 C1693 1.495 . S
C1697 H1703 0.959 . S
C1697 H1704 0.961 . S
C1697 H1705 0.960 . S
C1698 C1696 1.381 . S
C1698 C1699 1.394 . S
C1698 H1706 0.930 . S
C1699 C1698 1.394 . S
C1699 C1700 1.383 . S
C1699 H1707 0.929 . S
C1700 C1699 1.383 . S
C1700 C1701 1.377 . S
C1701 H1685 0.930 . S
C1701 C1700 1.377 . S
C1701 C1702 1.379 . S
C1702 H1686 0.931 . S
C1702 C1696 1.383 . S
C1702 C1701 1.379 . S
H1703 C1697 0.959 . S
H1704 C1697 0.961 . S
H1705 C1697 0.960 . S
H1706 C1698 0.930 . S
H1707 C1699 0.929 . S
H1708 C1716 0.929 . S
H1709 C1718 0.930 . S
H1710 C1720 0.930 . S
H1711 C1723 0.929 . S
H1712 C1726 0.930 . S
H1713 C1728 0.960 . S
H1714 C1728 0.960 . S
H1715 C1728 0.960 . S
C1716 H1708 0.929 . S
C1716 C1717 1.377 . S
C1716 C1718 1.384 . S
C1717 C1716 1.377 . S
C1717 C1723 1.390 . S
C1718 H1709 0.930 . S
C1718 C1716 1.384 . S
C1718 C1719 1.372 . S
C1719 C1718 1.372 . S
C1719 C1720 1.400 . S
C1719 C1724 1.490 . S
C1720 H1710 0.930 . S
C1720 C1719 1.400 . S
C1720 C1723 1.386 . S
H1721 C1737 0.930 . S
H1722 C1738 0.931 . S
C1723 H1711 0.929 . S
C1723 C1717 1.390 . S
C1723 C1720 1.386 . S
C1724 C1719 1.490 . S
C1724 C1726 1.395 . S
C1724 C1727 1.403 . S
H1725 C1731 0.930 . S
C1726 H1712 0.930 . S
C1726 C1724 1.395 . S
C1726 C1729 1.403 . S
C1727 C1724 1.403 . S
C1727 C1728 1.524 . S
C1727 C1731 1.400 . S
C1728 H1713 0.960 . S
C1728 H1714 0.960 . S
C1728 H1715 0.960 . S
C1728 C1727 1.524 . S
C1729 C1726 1.403 . S
C1729 C1730 1.392 . S
C1729 C1733 1.495 . S
C1730 C1729 1.392 . S
C1730 C1731 1.385 . S
C1730 C1732 1.478 . S
C1731 H1725 0.930 . S
C1731 C1727 1.400 . S
C1731 C1730 1.385 . S
C1732 C1730 1.478 . S
C1732 C1734 1.381 . S
C1732 C1738 1.383 . S
C1733 C1729 1.495 . S
C1733 H1739 0.959 . S
C1733 H1740 0.961 . S
C1733 H1741 0.960 . S
C1734 C1732 1.381 . S
C1734 C1735 1.394 . S
C1734 H1742 0.930 . S
C1735 C1734 1.394 . S
C1735 C1736 1.383 . S
C1735 H1743 0.929 . S
C1736 C1735 1.383 . S
C1736 C1737 1.377 . S
C1737 H1721 0.930 . S
C1737 C1736 1.377 . S
C1737 C1738 1.379 . S
C1738 H1722 0.931 . S
C1738 C1732 1.383 . S
C1738 C1737 1.379 . S
H1739 C1733 0.959 . S
H1740 C1733 0.961 . S
H1741 C1733 0.960 . S
H1742 C1734 0.930 . S
H1743 C1735 0.929 . S
H1744 C1752 0.929 1_556 S
H1745 C1754 0.951 . S
H1746 C1756 0.930 . S
H1747 C1759 0.929 . S
H1748 C1762 0.930 . S
H1749 C1764 0.960 . S
H1750 C1764 0.960 . S
H1751 C1764 0.960 . S
C1752 H1744 0.929 1_554 S
C1752 C1753 1.377 . S
C1752 C1754 1.377 1_554 S
C1753 C1752 1.377 . S
C1753 C1759 1.390 . S
C1754 H1745 0.951 . S
C1754 C1752 1.377 1_556 S
C1754 C1755 1.359 1_556 S
C1755 C1754 1.359 1_554 S
C1755 C1756 1.400 . S
C1755 C1760 1.490 . S
C1756 H1746 0.930 . S
C1756 C1755 1.400 . S
C1756 C1759 1.386 . S
H1757 C1773 0.930 . S
H1758 C1774 0.931 1_554 S
C1759 H1747 0.929 . S
C1759 C1753 1.390 . S
C1759 C1756 1.386 . S
C1760 C1755 1.490 . S
C1760 C1762 1.395 1_554 S
C1760 C1763 1.403 . S
H1761 C1767 0.930 . S
C1762 H1748 0.930 . S
C1762 C1760 1.395 1_556 S
C1762 C1765 1.403 . S
C1763 C1760 1.403 . S
C1763 C1764 1.524 . S
C1763 C1767 1.400 . S
C1764 H1749 0.960 . S
C1764 H1750 0.960 . S
C1764 H1751 0.960 . S
C1764 C1763 1.524 . S
C1765 C1762 1.403 . S
C1765 C1766 1.392 . S
C1765 C1769 1.495 . S
C1766 C1765 1.392 . S
C1766 C1767 1.385 1_556 S
C1766 C1768 1.478 . S
C1767 H1761 0.930 . S
C1767 C1763 1.400 . S
C1767 C1766 1.385 1_554 S
C1768 C1766 1.478 . S
C1768 C1770 1.381 . S
C1768 C1774 1.383 . S
C1769 C1765 1.495 . S
C1769 H1775 0.959 . S
C1769 H1776 0.961 . S
C1769 H1777 0.960 . S
C1770 C1768 1.381 . S
C1770 C1771 1.394 . S
C1770 H1778 0.930 . S
C1771 C1770 1.394 . S
C1771 C1772 1.383 . S
C1771 H1779 0.929 . S
C1772 C1771 1.383 . S
C1772 C1773 1.377 . S
C1773 H1757 0.930 . S
C1773 C1772 1.377 . S
C1773 C1774 1.379 . S
C1774 H1758 0.931 1_556 S
C1774 C1768 1.383 . S
C1774 C1773 1.379 . S
H1775 C1769 0.959 . S
H1776 C1769 0.961 . S
H1777 C1769 0.960 . S
H1778 C1770 0.930 . S
H1779 C1771 0.929 . S
H1780 C1788 0.929 . S
H1781 C1790 0.930 . S
H1782 C1792 0.930 . S
H1783 C1795 0.929 . S
H1784 C1798 0.930 . S
H1785 C1800 0.960 . S
H1786 C1800 0.960 . S
H1787 C1800 0.960 . S
C1788 H1780 0.929 . S
C1788 C1789 1.377 . S
C1788 C1790 1.384 . S
C1789 C1788 1.377 . S
C1789 C1795 1.390 . S
C1790 H1781 0.930 . S
C1790 C1788 1.384 . S
C1790 C1791 1.372 . S
C1791 C1790 1.372 . S
C1791 C1792 1.400 . S
C1791 C1796 1.490 . S
C1792 H1782 0.930 . S
C1792 C1791 1.400 . S
C1792 C1795 1.386 . S
H1793 C1809 0.930 . S
H1794 C1810 0.931 . S
C1795 H1783 0.929 . S
C1795 C1789 1.390 . S
C1795 C1792 1.386 . S
C1796 C1791 1.490 . S
C1796 C1798 1.395 . S
C1796 C1799 1.403 . S
H1797 C1803 0.930 . S
C1798 H1784 0.930 . S
C1798 C1796 1.395 . S
C1798 C1801 1.403 . S
C1799 C1796 1.403 . S
C1799 C1800 1.524 . S
C1799 C1803 1.400 . S
C1800 H1785 0.960 . S
C1800 H1786 0.960 . S
C1800 H1787 0.960 . S
C1800 C1799 1.524 . S
C1801 C1798 1.403 . S
C1801 C1802 1.392 . S
C1801 C1805 1.495 . S
C1802 C1801 1.392 . S
C1802 C1803 1.385 . S
C1802 C1804 1.478 . S
C1803 H1797 0.930 . S
C1803 C1799 1.400 . S
C1803 C1802 1.385 . S
C1804 C1802 1.478 . S
C1804 C1806 1.381 . S
C1804 C1810 1.383 . S
C1805 C1801 1.495 . S
C1805 H1811 0.959 . S
C1805 H1812 0.961 . S
C1805 H1813 0.960 . S
C1806 C1804 1.381 . S
C1806 C1807 1.394 . S
C1806 H1814 0.930 . S
C1807 C1806 1.394 . S
C1807 C1808 1.383 . S
C1807 H1815 0.929 . S
C1808 C1807 1.383 . S
C1808 C1809 1.377 . S
C1809 H1793 0.930 . S
C1809 C1808 1.377 . S
C1809 C1810 1.379 . S
C1810 H1794 0.931 . S
C1810 C1804 1.383 . S
C1810 C1809 1.379 . S
H1811 C1805 0.959 . S
H1812 C1805 0.961 . S
H1813 C1805 0.960 . S
H1814 C1806 0.930 . S
H1815 C1807 0.929 . S
H1816 C1824 0.929 . S
H1817 C1826 0.930 . S
H1818 C1828 0.930 . S
H1819 C1831 0.929 . S
H1820 C1834 0.930 . S
H1821 C1836 0.960 . S
H1822 C1836 0.960 . S
H1823 C1836 0.960 . S
C1824 H1816 0.929 . S
C1824 C1825 1.377 . S
C1824 C1826 1.384 . S
C1825 C1824 1.377 . S
C1825 C1831 1.390 . S
C1826 H1817 0.930 . S
C1826 C1824 1.384 . S
C1826 C1827 1.372 . S
C1827 C1826 1.372 . S
C1827 C1828 1.400 . S
C1827 C1832 1.490 . S
C1828 H1818 0.930 . S
C1828 C1827 1.400 . S
C1828 C1831 1.386 . S
H1829 C1845 0.930 . S
H1830 C1846 0.931 . S
C1831 H1819 0.929 . S
C1831 C1825 1.390 . S
C1831 C1828 1.386 . S
C1832 C1827 1.490 . S
C1832 C1834 1.395 . S
C1832 C1835 1.403 . S
H1833 C1839 0.930 . S
C1834 H1820 0.930 . S
C1834 C1832 1.395 . S
C1834 C1837 1.403 . S
C1835 C1832 1.403 . S
C1835 C1836 1.524 . S
C1835 C1839 1.400 . S
C1836 H1821 0.960 . S
C1836 H1822 0.960 . S
C1836 H1823 0.960 . S
C1836 C1835 1.524 . S
C1837 C1834 1.403 . S
C1837 C1838 1.392 . S
C1837 C1841 1.495 . S
C1838 C1837 1.392 . S
C1838 C1839 1.385 . S
C1838 C1840 1.478 . S
C1839 H1833 0.930 . S
C1839 C1835 1.400 . S
C1839 C1838 1.385 . S
C1840 C1838 1.478 . S
C1840 C1842 1.381 . S
C1840 C1846 1.383 . S
C1841 C1837 1.495 . S
C1841 H1847 0.959 . S
C1841 H1848 0.961 . S
C1841 H1849 0.960 . S
C1842 C1840 1.381 . S
C1842 C1843 1.394 . S
C1842 H1850 0.930 . S
C1843 C1842 1.394 . S
C1843 C1844 1.383 . S
C1843 H1851 0.929 . S
C1844 C1843 1.383 . S
C1844 C1845 1.377 . S
C1845 H1829 0.930 . S
C1845 C1844 1.377 . S
C1845 C1846 1.379 . S
C1846 H1830 0.931 . S
C1846 C1840 1.383 . S
C1846 C1845 1.379 . S
H1847 C1841 0.959 . S
H1848 C1841 0.961 . S
H1849 C1841 0.960 . S
H1850 C1842 0.930 . S
H1851 C1843 0.929 . S
H1852 C1860 0.929 . S
H1853 C1862 0.930 . S
H1854 C1864 0.930 . S
H1855 C1867 0.929 . S
H1856 C1870 0.930 . S
H1857 C1872 0.960 . S
H1858 C1872 0.960 . S
H1859 C1872 0.960 . S
C1860 H1852 0.929 . S
C1860 C1861 1.377 . S
C1860 C1862 1.384 . S
C1861 C1860 1.377 . S
C1861 C1867 1.390 . S
C1862 H1853 0.930 . S
C1862 C1860 1.384 . S
C1862 C1863 1.372 . S
C1863 C1862 1.372 . S
C1863 C1864 1.400 . S
C1863 C1868 1.490 . S
C1864 H1854 0.930 . S
C1864 C1863 1.400 . S
C1864 C1867 1.386 . S
H1865 C1881 0.930 . S
H1866 C1882 0.931 . S
C1867 H1855 0.929 . S
C1867 C1861 1.390 . S
C1867 C1864 1.386 . S
C1868 C1863 1.490 . S
C1868 C1870 1.395 . S
C1868 C1871 1.403 . S
H1869 C1875 0.930 . S
C1870 H1856 0.930 . S
C1870 C1868 1.395 . S
C1870 C1873 1.403 . S
C1871 C1868 1.403 . S
C1871 C1872 1.524 . S
C1871 C1875 1.400 . S
C1872 H1857 0.960 . S
C1872 H1858 0.960 . S
C1872 H1859 0.960 . S
C1872 C1871 1.524 . S
C1873 C1870 1.403 . S
C1873 C1874 1.392 . S
C1873 C1877 1.495 . S
C1874 C1873 1.392 . S
C1874 C1875 1.385 . S
C1874 C1876 1.478 . S
C1875 H1869 0.930 . S
C1875 C1871 1.400 . S
C1875 C1874 1.385 . S
C1876 C1874 1.478 . S
C1876 C1878 1.381 . S
C1876 C1882 1.383 . S
C1877 C1873 1.495 . S
C1877 H1883 0.959 . S
C1877 H1884 0.961 . S
C1877 H1885 0.960 . S
C1878 C1876 1.381 . S
C1878 C1879 1.394 . S
C1878 H1886 0.930 . S
C1879 C1878 1.394 . S
C1879 C1880 1.383 . S
C1879 H1887 0.929 . S
C1880 C1879 1.383 . S
C1880 C1881 1.377 . S
C1881 H1865 0.930 . S
C1881 C1880 1.377 . S
C1881 C1882 1.379 . S
C1882 H1866 0.931 . S
C1882 C1876 1.383 . S
C1882 C1881 1.379 . S
H1883 C1877 0.959 . S
H1884 C1877 0.961 . S
H1885 C1877 0.960 . S
H1886 C1878 0.930 . S
H1887 C1879 0.929 . S
H1888 C1896 0.929 . S
H1889 C1898 0.930 . S
H1890 C1900 0.930 . S
H1891 C1903 0.929 . S
H1892 C1906 0.930 . S
H1893 C1908 0.910 1_565 S
H1894 C1908 0.960 . S
H1895 C1908 0.960 . S
C1896 H1888 0.929 . S
C1896 C1897 1.377 . S
C1896 C1898 1.384 . S
C1897 C1896 1.377 . S
C1897 C1903 1.390 . S
C1898 H1889 0.930 . S
C1898 C1896 1.384 . S
C1898 C1899 1.372 . S
C1899 C1898 1.372 . S
C1899 C1900 1.400 . S
C1899 C1904 1.490 . S
C1900 H1890 0.930 . S
C1900 C1899 1.400 . S
C1900 C1903 1.386 . S
H1901 C1917 0.930 . S
H1902 C1918 0.931 . S
C1903 H1891 0.929 . S
C1903 C1897 1.390 . S
C1903 C1900 1.386 . S
C1904 C1899 1.490 . S
C1904 C1906 1.395 . S
C1904 C1907 1.403 . S
H1905 C1911 0.930 . S
C1906 H1892 0.930 . S
C1906 C1904 1.395 . S
C1906 C1909 1.403 1_545 S
C1907 C1904 1.403 . S
C1907 C1908 1.524 . S
C1907 C1911 1.400 1_545 S
C1908 H1893 0.910 1_545 S
C1908 H1894 0.960 . S
C1908 H1895 0.960 . S
C1908 C1907 1.524 . S
C1909 C1906 1.403 1_565 S
C1909 C1910 1.392 . S
C1909 C1913 1.495 . S
C1910 C1909 1.392 . S
C1910 C1911 1.385 . S
C1910 C1912 1.478 . S
C1911 H1905 0.930 . S
C1911 C1907 1.400 1_565 S
C1911 C1910 1.385 . S
C1912 C1910 1.478 . S
C1912 C1914 1.381 . S
C1912 C1918 1.383 . S
C1913 C1909 1.495 . S
C1913 H1919 0.915 1_565 S
C1913 H1920 0.961 . S
C1913 H1921 0.960 . S
C1914 C1912 1.381 . S
C1914 C1915 1.394 . S
C1914 H1922 0.930 . S
C1915 C1914 1.394 . S
C1915 C1916 1.383 . S
C1915 H1923 0.929 . S
C1916 C1915 1.383 . S
C1916 C1917 1.377 . S
C1917 H1901 0.930 . S
C1917 C1916 1.377 . S
C1917 C1918 1.379 . S
C1918 H1902 0.931 . S
C1918 C1912 1.383 . S
C1918 C1917 1.379 . S
H1919 C1913 0.915 1_545 S
H1920 C1913 0.961 . S
H1921 C1913 0.960 . S
H1922 C1914 0.930 . S
H1923 C1915 0.929 . S
H1924 C1932 0.929 . S
H1925 C1934 0.930 . S
H1926 C1936 0.930 . S
H1927 C1939 0.929 . S
H1928 C1942 0.930 . S
H1929 C1944 0.960 . S
H1930 C1944 0.960 . S
H1931 C1944 0.960 . S
C1932 H1924 0.929 . S
C1932 C1933 1.377 . S
C1932 C1934 1.384 . S
C1933 C1932 1.377 . S
C1933 C1939 1.390 . S
C1934 H1925 0.930 . S
C1934 C1932 1.384 . S
C1934 C1935 1.372 . S
C1935 C1934 1.372 . S
C1935 C1936 1.400 . S
C1935 C1940 1.490 . S
C1936 H1926 0.930 . S
C1936 C1935 1.400 . S
C1936 C1939 1.386 . S
H1937 C1953 0.930 . S
H1938 C1954 0.931 . S
C1939 H1927 0.929 . S
C1939 C1933 1.390 . S
C1939 C1936 1.386 . S
C1940 C1935 1.490 . S
C1940 C1942 1.395 . S
C1940 C1943 1.403 . S
H1941 C1947 0.930 . S
C1942 H1928 0.930 . S
C1942 C1940 1.395 . S
C1942 C1945 1.403 . S
C1943 C1940 1.403 . S
C1943 C1944 1.524 . S
C1943 C1947 1.400 . S
C1944 H1929 0.960 . S
C1944 H1930 0.960 . S
C1944 H1931 0.960 . S
C1944 C1943 1.524 . S
C1945 C1942 1.403 . S
C1945 C1946 1.392 . S
C1945 C1949 1.495 . S
C1946 C1945 1.392 . S
C1946 C1947 1.385 . S
C1946 C1948 1.478 . S
C1947 H1941 0.930 . S
C1947 C1943 1.400 . S
C1947 C1946 1.385 . S
C1948 C1946 1.478 . S
C1948 C1950 1.381 . S
C1948 C1954 1.383 . S
C1949 C1945 1.495 . S
C1949 H1955 0.959 . S
C1949 H1956 0.961 . S
C1949 H1957 0.960 . S
C1950 C1948 1.381 . S
C1950 C1951 1.394 . S
C1950 H1958 0.930 . S
C1951 C1950 1.394 . S
C1951 C1952 1.383 . S
C1951 H1959 0.929 . S
C1952 C1951 1.383 . S
C1952 C1953 1.377 . S
C1953 H1937 0.930 . S
C1953 C1952 1.377 . S
C1953 C1954 1.379 . S
C1954 H1938 0.931 . S
C1954 C1948 1.383 . S
C1954 C1953 1.379 . S
H1955 C1949 0.959 . S
H1956 C1949 0.961 . S
H1957 C1949 0.960 . S
H1958 C1950 0.930 . S
H1959 C1951 0.929 . S
H1960 C1968 0.929 . S
H1961 C1970 0.930 . S
H1962 C1972 0.930 . S
H1963 C1975 0.929 . S
H1964 C1978 0.930 . S
H1965 C1980 0.960 . S
H1966 C1980 0.960 . S
H1967 C1980 0.960 . S
C1968 H1960 0.929 . S
C1968 C1969 1.377 1_556 S
C1968 C1970 1.384 . S
C1969 C1968 1.377 1_554 S
C1969 C1975 1.390 . S
C1970 H1961 0.930 . S
C1970 C1968 1.384 . S
C1970 C1971 1.372 1_556 S
C1971 C1970 1.372 1_554 S
C1971 C1972 1.400 . S
C1971 C1976 1.490 . S
C1972 H1962 0.930 . S
C1972 C1971 1.400 . S
C1972 C1975 1.386 . S
H1973 C1989 0.930 . S
H1974 C1990 0.931 . S
C1975 H1963 0.929 . S
C1975 C1969 1.390 . S
C1975 C1972 1.386 . S
C1976 C1971 1.490 . S
C1976 C1978 1.395 1_554 S
C1976 C1979 1.403 . S
H1977 C1983 0.930 . S
C1978 H1964 0.930 . S
C1978 C1976 1.395 1_556 S
C1978 C1981 1.403 1_565 S
C1979 C1976 1.403 . S
C1979 C1980 1.524 . S
C1979 C1983 1.400 1_565 S
C1980 H1965 0.960 . S
C1980 H1966 0.960 . S
C1980 H1967 0.960 . S
C1980 C1979 1.524 . S
C1981 C1978 1.403 1_545 S
C1981 C1982 1.392 . S
C1981 C1985 1.495 . S
C1982 C1981 1.392 . S
C1982 C1983 1.385 1_556 S
C1982 C1984 1.478 . S
C1983 H1977 0.930 . S
C1983 C1979 1.400 1_545 S
C1983 C1982 1.385 1_554 S
C1984 C1982 1.478 . S
C1984 C1986 1.381 . S
C1984 C1990 1.383 1_556 S
C1985 C1981 1.495 . S
C1985 H1991 0.959 . S
C1985 H1992 0.961 . S
C1985 H1993 0.960 . S
C1986 C1984 1.381 . S
C1986 C1987 1.394 . S
C1986 H1994 0.930 . S
C1987 C1986 1.394 . S
C1987 C1988 1.383 . S
C1987 H1995 0.929 . S
C1988 C1987 1.383 . S
C1988 C1989 1.377 1_556 S
C1989 H1973 0.930 . S
C1989 C1988 1.377 1_554 S
C1989 C1990 1.379 . S
C1990 H1974 0.931 . S
C1990 C1984 1.383 1_554 S
C1990 C1989 1.379 . S
H1991 C1985 0.959 . S
H1992 C1985 0.961 . S
H1993 C1985 0.960 . S
H1994 C1986 0.930 . S
H1995 C1987 0.929 . S
H1996 C2004 0.929 . S
H1997 C2006 0.930 . S
H1998 C2008 0.930 . S
H1999 C2011 0.929 . S
H2000 C2014 0.930 . S
H2001 C2016 0.960 . S
H2002 C2016 0.960 . S
H2003 C2016 0.960 . S
C2004 H1996 0.929 . S
C2004 C2005 1.377 . S
C2004 C2006 1.384 . S
C2005 C2004 1.377 . S
C2005 C2011 1.390 . S
C2006 H1997 0.930 . S
C2006 C2004 1.384 . S
C2006 C2007 1.372 . S
C2007 C2006 1.372 . S
C2007 C2008 1.400 . S
C2007 C2012 1.490 . S
C2008 H1998 0.930 . S
C2008 C2007 1.400 . S
C2008 C2011 1.386 . S
H2009 C2025 0.930 . S
H2010 C2026 0.931 . S
C2011 H1999 0.929 . S
C2011 C2005 1.390 . S
C2011 C2008 1.386 . S
C2012 C2007 1.490 . S
C2012 C2014 1.395 . S
C2012 C2015 1.403 . S
H2013 C2019 0.930 . S
C2014 H2000 0.930 . S
C2014 C2012 1.395 . S
C2014 C2017 1.403 . S
C2015 C2012 1.403 . S
C2015 C2016 1.524 . S
C2015 C2019 1.400 . S
C2016 H2001 0.960 . S
C2016 H2002 0.960 . S
C2016 H2003 0.960 . S
C2016 C2015 1.524 . S
C2017 C2014 1.403 . S
C2017 C2018 1.392 . S
C2017 C2021 1.495 . S
C2018 C2017 1.392 . S
C2018 C2019 1.385 . S
C2018 C2020 1.478 . S
C2019 H2013 0.930 . S
C2019 C2015 1.400 . S
C2019 C2018 1.385 . S
C2020 C2018 1.478 . S
C2020 C2022 1.381 . S
C2020 C2026 1.383 . S
C2021 C2017 1.495 . S
C2021 H2027 0.959 . S
C2021 H2028 0.961 . S
C2021 H2029 0.960 . S
C2022 C2020 1.381 . S
C2022 C2023 1.394 . S
C2022 H2030 0.930 . S
C2023 C2022 1.394 . S
C2023 C2024 1.383 . S
C2023 H2031 0.929 . S
C2024 C2023 1.383 . S
C2024 C2025 1.377 . S
C2025 H2009 0.930 . S
C2025 C2024 1.377 . S
C2025 C2026 1.379 . S
C2026 H2010 0.931 . S
C2026 C2020 1.383 . S
C2026 C2025 1.379 . S
H2027 C2021 0.959 . S
H2028 C2021 0.961 . S
H2029 C2021 0.960 . S
H2030 C2022 0.930 . S
H2031 C2023 0.929 . S
H2032 C2040 0.929 . S
H2033 C2042 0.930 . S
H2034 C2044 0.930 . S
H2035 C2047 0.929 . S
H2036 C2050 0.930 . S
H2037 C2052 0.960 . S
H2038 C2052 0.960 . S
H2039 C2052 0.960 . S
C2040 H2032 0.929 . S
C2040 C2041 1.377 . S
C2040 C2042 1.384 . S
C2041 C2040 1.377 . S
C2041 C2047 1.390 . S
C2042 H2033 0.930 . S
C2042 C2040 1.384 . S
C2042 C2043 1.372 . S
C2043 C2042 1.372 . S
C2043 C2044 1.400 . S
C2043 C2048 1.490 . S
C2044 H2034 0.930 . S
C2044 C2043 1.400 . S
C2044 C2047 1.386 . S
H2045 C2061 0.930 . S
H2046 C2062 0.931 . S
C2047 H2035 0.929 . S
C2047 C2041 1.390 . S
C2047 C2044 1.386 . S
C2048 C2043 1.490 . S
C2048 C2050 1.395 . S
C2048 C2051 1.403 . S
H2049 C2055 0.930 . S
C2050 H2036 0.930 . S
C2050 C2048 1.395 . S
C2050 C2053 1.403 1_545 S
C2051 C2048 1.403 . S
C2051 C2052 1.524 . S
C2051 C2055 1.400 1_545 S
C2052 H2037 0.960 . S
C2052 H2038 0.960 . S
C2052 H2039 0.960 . S
C2052 C2051 1.524 . S
C2053 C2050 1.403 1_565 S
C2053 C2054 1.392 . S
C2053 C2057 1.495 . S
C2054 C2053 1.392 . S
C2054 C2055 1.385 . S
C2054 C2056 1.478 . S
C2055 H2049 0.930 . S
C2055 C2051 1.400 1_565 S
C2055 C2054 1.385 . S
C2056 C2054 1.478 . S
C2056 C2058 1.381 . S
C2056 C2062 1.383 . S
C2057 C2053 1.495 . S
C2057 H2063 0.959 . S
C2057 H2064 0.961 . S
C2057 H2065 0.960 . S
C2058 C2056 1.381 . S
C2058 C2059 1.394 . S
C2058 H2066 0.930 . S
C2059 C2058 1.394 . S
C2059 C2060 1.383 . S
C2059 H2067 0.929 . S
C2060 C2059 1.383 . S
C2060 C2061 1.377 . S
C2061 H2045 0.930 . S
C2061 C2060 1.377 . S
C2061 C2062 1.379 . S
C2062 H2046 0.931 . S
C2062 C2056 1.383 . S
C2062 C2061 1.379 . S
H2063 C2057 0.959 . S
H2064 C2057 0.961 . S
H2065 C2057 0.960 . S
H2066 C2058 0.930 . S
H2067 C2059 0.929 . S
H2068 C2076 0.929 . S
H2069 C2078 0.930 . S
H2070 C2080 0.930 . S
H2071 C2083 0.929 . S
H2072 C2086 0.930 . S
H2073 C2088 0.960 . S
H2074 C2088 0.960 . S
H2075 C2088 0.960 . S
C2076 H2068 0.929 . S
C2076 C2077 1.377 . S
C2076 C2078 1.384 . S
C2077 C2076 1.377 . S
C2077 C2083 1.390 . S
C2078 H2069 0.930 . S
C2078 C2076 1.384 . S
C2078 C2079 1.372 . S
C2079 C2078 1.372 . S
C2079 C2080 1.400 . S
C2079 C2084 1.490 . S
C2080 H2070 0.930 . S
C2080 C2079 1.400 . S
C2080 C2083 1.386 . S
H2081 C2097 0.930 . S
H2082 C2098 0.931 . S
C2083 H2071 0.929 . S
C2083 C2077 1.390 . S
C2083 C2080 1.386 . S
C2084 C2079 1.490 . S
C2084 C2086 1.395 . S
C2084 C2087 1.403 . S
H2085 C2091 0.930 . S
C2086 H2072 0.930 . S
C2086 C2084 1.395 . S
C2086 C2089 1.403 . S
C2087 C2084 1.403 . S
C2087 C2088 1.524 . S
C2087 C2091 1.400 . S
C2088 H2073 0.960 . S
C2088 H2074 0.960 . S
C2088 H2075 0.960 . S
C2088 C2087 1.524 . S
C2089 C2086 1.403 . S
C2089 C2090 1.392 . S
C2089 C2093 1.495 . S
C2090 C2089 1.392 . S
C2090 C2091 1.385 . S
C2090 C2092 1.478 . S
C2091 H2085 0.930 . S
C2091 C2087 1.400 . S
C2091 C2090 1.385 . S
C2092 C2090 1.478 . S
C2092 C2094 1.381 . S
C2092 C2098 1.383 . S
C2093 C2089 1.495 . S
C2093 H2099 0.959 . S
C2093 H2100 0.961 . S
C2093 H2101 0.960 . S
C2094 C2092 1.381 . S
C2094 C2095 1.394 . S
C2094 H2102 0.930 . S
C2095 C2094 1.394 . S
C2095 C2096 1.383 . S
C2095 H2103 0.929 . S
C2096 C2095 1.383 . S
C2096 C2097 1.377 . S
C2097 H2081 0.930 . S
C2097 C2096 1.377 . S
C2097 C2098 1.379 . S
C2098 H2082 0.931 . S
C2098 C2092 1.383 . S
C2098 C2097 1.379 . S
H2099 C2093 0.959 . S
H2100 C2093 0.961 . S
H2101 C2093 0.960 . S
H2102 C2094 0.930 . S
H2103 C2095 0.929 . S
H2104 C2112 0.929 . S
H2105 C2114 0.930 . S
H2106 C2116 0.930 . S
H2107 C2119 0.929 . S
H2108 C2122 0.930 . S
H2109 C2124 0.960 . S
H2110 C2124 0.960 . S
H2111 C2124 0.960 . S
C2112 H2104 0.929 . S
C2112 C2113 1.377 1_556 S
C2112 C2114 1.384 . S
C2113 C2112 1.377 1_554 S
C2113 C2119 1.390 . S
C2114 H2105 0.930 . S
C2114 C2112 1.384 . S
C2114 C2115 1.372 1_556 S
C2115 C2114 1.372 1_554 S
C2115 C2116 1.400 . S
C2115 C2120 1.490 . S
C2116 H2106 0.930 . S
C2116 C2115 1.400 . S
C2116 C2119 1.386 . S
H2117 C2133 0.930 . S
H2118 C2134 0.931 . S
C2119 H2107 0.929 . S
C2119 C2113 1.390 . S
C2119 C2116 1.386 . S
C2120 C2115 1.490 . S
C2120 C2122 1.395 1_554 S
C2120 C2123 1.403 . S
H2121 C2127 0.930 . S
C2122 H2108 0.930 . S
C2122 C2120 1.395 1_556 S
C2122 C2125 1.403 1_565 S
C2123 C2120 1.403 . S
C2123 C2124 1.524 . S
C2123 C2127 1.400 1_565 S
C2124 H2109 0.960 . S
C2124 H2110 0.960 . S
C2124 H2111 0.960 . S
C2124 C2123 1.524 . S
C2125 C2122 1.403 1_545 S
C2125 C2126 1.392 . S
C2125 C2129 1.495 . S
C2126 C2125 1.392 . S
C2126 C2127 1.385 1_556 S
C2126 C2128 1.478 . S
C2127 H2121 0.930 . S
C2127 C2123 1.400 1_545 S
C2127 C2126 1.385 1_554 S
C2128 C2126 1.478 . S
C2128 C2130 1.381 . S
C2128 C2134 1.383 1_556 S
C2129 C2125 1.495 . S
C2129 H2135 0.959 . S
C2129 H2136 0.961 . S
C2129 H2137 0.960 . S
C2130 C2128 1.381 . S
C2130 C2131 1.394 . S
C2130 H2138 0.930 . S
C2131 C2130 1.394 . S
C2131 C2132 1.383 . S
C2131 H2139 0.929 . S
C2132 C2131 1.383 . S
C2132 C2133 1.377 1_556 S
C2133 H2117 0.930 . S
C2133 C2132 1.377 1_554 S
C2133 C2134 1.379 . S
C2134 H2118 0.931 . S
C2134 C2128 1.383 1_554 S
C2134 C2133 1.379 . S
H2135 C2129 0.959 . S
H2136 C2129 0.961 . S
H2137 C2129 0.960 . S
H2138 C2130 0.930 . S
H2139 C2131 0.929 . S
H2140 C2148 0.929 . S
H2141 C2150 0.930 . S
H2142 C2152 0.930 . S
H2143 C2155 0.929 . S
H2144 C2158 0.930 . S
H2145 C2160 0.960 . S
H2146 C2160 0.960 . S
H2147 C2160 0.960 . S
C2148 H2140 0.929 . S
C2148 C2149 1.377 . S
C2148 C2150 1.384 . S
C2149 C2148 1.377 . S
C2149 C2155 1.390 . S
C2150 H2141 0.930 . S
C2150 C2148 1.384 . S
C2150 C2151 1.372 . S
C2151 C2150 1.372 . S
C2151 C2152 1.400 . S
C2151 C2156 1.490 . S
C2152 H2142 0.930 . S
C2152 C2151 1.400 . S
C2152 C2155 1.386 . S
H2153 C2169 0.930 . S
H2154 C2170 0.931 . S
C2155 H2143 0.929 . S
C2155 C2149 1.390 . S
C2155 C2152 1.386 . S
C2156 C2151 1.490 . S
C2156 C2158 1.395 . S
C2156 C2159 1.403 . S
H2157 C2163 0.930 . S
C2158 H2144 0.930 . S
C2158 C2156 1.395 . S
C2158 C2161 1.403 . S
C2159 C2156 1.403 . S
C2159 C2160 1.524 . S
C2159 C2163 1.400 . S
C2160 H2145 0.960 . S
C2160 H2146 0.960 . S
C2160 H2147 0.960 . S
C2160 C2159 1.524 . S
C2161 C2158 1.403 . S
C2161 C2162 1.392 . S
C2161 C2165 1.495 . S
C2162 C2161 1.392 . S
C2162 C2163 1.385 . S
C2162 C2164 1.478 . S
C2163 H2157 0.930 . S
C2163 C2159 1.400 . S
C2163 C2162 1.385 . S
C2164 C2162 1.478 . S
C2164 C2166 1.381 . S
C2164 C2170 1.383 . S
C2165 C2161 1.495 . S
C2165 H2171 0.959 . S
C2165 H2172 0.961 . S
C2165 H2173 0.960 . S
C2166 C2164 1.381 . S
C2166 C2167 1.394 . S
C2166 H2174 0.930 . S
C2167 C2166 1.394 . S
C2167 C2168 1.383 . S
C2167 H2175 0.929 . S
C2168 C2167 1.383 . S
C2168 C2169 1.377 . S
C2169 H2153 0.930 . S
C2169 C2168 1.377 . S
C2169 C2170 1.379 . S
C2170 H2154 0.931 . S
C2170 C2164 1.383 . S
C2170 C2169 1.379 . S
H2171 C2165 0.959 . S
H2172 C2165 0.961 . S
H2173 C2165 0.960 . S
H2174 C2166 0.930 . S
H2175 C2167 0.929 . S
H2176 C2184 0.929 . S
H2177 C2186 0.930 . S
H2178 C2188 0.930 . S
H2179 C2191 0.929 . S
H2180 C2194 0.930 . S
H2181 C2196 0.960 . S
H2182 C2196 0.960 . S
H2183 C2196 0.960 . S
C2184 H2176 0.929 . S
C2184 C2185 1.377 . S
C2184 C2186 1.384 . S
C2185 C2184 1.377 . S
C2185 C2191 1.390 . S
C2186 H2177 0.930 . S
C2186 C2184 1.384 . S
C2186 C2187 1.372 . S
C2187 C2186 1.372 . S
C2187 C2188 1.400 . S
C2187 C2192 1.490 . S
C2188 H2178 0.930 . S
C2188 C2187 1.400 . S
C2188 C2191 1.386 . S
H2189 C2205 0.930 . S
H2190 C2206 0.931 . S
C2191 H2179 0.929 . S
C2191 C2185 1.390 . S
C2191 C2188 1.386 . S
C2192 C2187 1.490 . S
C2192 C2194 1.395 . S
C2192 C2195 1.403 . S
H2193 C2199 0.930 . S
C2194 H2180 0.930 . S
C2194 C2192 1.395 . S
C2194 C2197 1.403 . S
C2195 C2192 1.403 . S
C2195 C2196 1.524 1_554 S
C2195 C2199 1.400 . S
C2196 H2181 0.960 . S
C2196 H2182 0.960 . S
C2196 H2183 0.960 . S
C2196 C2195 1.524 1_556 S
C2197 C2194 1.403 . S
C2197 C2198 1.392 . S
C2197 C2201 1.495 . S
C2198 C2197 1.392 . S
C2198 C2199 1.385 . S
C2198 C2200 1.478 . S
C2199 H2193 0.930 . S
C2199 C2195 1.400 . S
C2199 C2198 1.385 . S
C2200 C2198 1.478 . S
C2200 C2202 1.381 . S
C2200 C2206 1.383 . S
C2201 C2197 1.495 . S
C2201 H2207 0.959 . S
C2201 H2208 0.961 . S
C2201 H2209 0.960 . S
C2202 C2200 1.381 . S
C2202 C2203 1.394 . S
C2202 H2210 0.930 . S
C2203 C2202 1.394 . S
C2203 C2204 1.383 . S
C2203 H2211 0.929 . S
C2204 C2203 1.383 . S
C2204 C2205 1.377 . S
C2205 H2189 0.930 . S
C2205 C2204 1.377 . S
C2205 C2206 1.379 . S
C2206 H2190 0.931 . S
C2206 C2200 1.383 . S
C2206 C2205 1.379 . S
H2207 C2201 0.959 . S
H2208 C2201 0.961 . S
H2209 C2201 0.960 . S
H2210 C2202 0.930 . S
H2211 C2203 0.929 . S
H2212 C2220 0.929 . S
H2213 C2222 0.930 . S
H2214 C2224 0.930 . S
H2215 C2227 0.929 . S
H2216 C2230 0.930 . S
H2217 C2232 0.960 . S
H2218 C2232 0.960 . S
H2219 C2232 0.960 . S
C2220 H2212 0.929 . S
C2220 C2221 1.377 . S
C2220 C2222 1.384 . S
C2221 C2220 1.377 . S
C2221 C2227 1.390 . S
C2222 H2213 0.930 . S
C2222 C2220 1.384 . S
C2222 C2223 1.372 . S
C2223 C2222 1.372 . S
C2223 C2224 1.400 . S
C2223 C2228 1.490 . S
C2224 H2214 0.930 . S
C2224 C2223 1.400 . S
C2224 C2227 1.386 . S
H2225 C2241 0.930 . S
H2226 C2242 0.931 . S
C2227 H2215 0.929 . S
C2227 C2221 1.390 . S
C2227 C2224 1.386 . S
C2228 C2223 1.490 . S
C2228 C2230 1.395 . S
C2228 C2231 1.403 . S
H2229 C2235 0.930 . S
C2230 H2216 0.930 . S
C2230 C2228 1.395 . S
C2230 C2233 1.403 . S
C2231 C2228 1.403 . S
C2231 C2232 1.524 . S
C2231 C2235 1.400 . S
C2232 H2217 0.960 . S
C2232 H2218 0.960 . S
C2232 H2219 0.960 . S
C2232 C2231 1.524 . S
C2233 C2230 1.403 . S
C2233 C2234 1.392 . S
C2233 C2237 1.495 . S
C2234 C2233 1.392 . S
C2234 C2235 1.385 . S
C2234 C2236 1.478 . S
C2235 H2229 0.930 . S
C2235 C2231 1.400 . S
C2235 C2234 1.385 . S
C2236 C2234 1.478 . S
C2236 C2238 1.381 . S
C2236 C2242 1.383 . S
C2237 C2233 1.495 . S
C2237 H2243 0.959 . S
C2237 H2244 0.961 . S
C2237 H2245 0.960 . S
C2238 C2236 1.381 . S
C2238 C2239 1.394 . S
C2238 H2246 0.930 . S
C2239 C2238 1.394 . S
C2239 C2240 1.383 . S
C2239 H2247 0.929 . S
C2240 C2239 1.383 . S
C2240 C2241 1.377 . S
C2241 H2225 0.930 . S
C2241 C2240 1.377 . S
C2241 C2242 1.379 . S
C2242 H2226 0.931 . S
C2242 C2236 1.383 . S
C2242 C2241 1.379 . S
H2243 C2237 0.959 . S
H2244 C2237 0.961 . S
H2245 C2237 0.960 . S
H2246 C2238 0.930 . S
H2247 C2239 0.929 . S
H2248 C2256 0.929 . S
H2249 C2258 0.930 . S
H2250 C2260 0.930 . S
H2251 C2263 0.929 . S
H2252 C2266 0.930 . S
H2253 C2268 0.960 . S
H2254 C2268 0.960 . S
H2255 C2268 0.960 . S
C2256 H2248 0.929 . S
C2256 C2257 1.377 . S
C2256 C2258 1.384 . S
C2257 C2256 1.377 . S
C2257 C2263 1.390 . S
C2258 H2249 0.930 . S
C2258 C2256 1.384 . S
C2258 C2259 1.372 . S
C2259 C2258 1.372 . S
C2259 C2260 1.400 . S
C2259 C2264 1.490 . S
C2260 H2250 0.930 . S
C2260 C2259 1.400 . S
C2260 C2263 1.386 . S
H2261 C2277 0.930 . S
H2262 C2278 0.931 . S
C2263 H2251 0.929 . S
C2263 C2257 1.390 . S
C2263 C2260 1.386 . S
C2264 C2259 1.490 . S
C2264 C2266 1.395 . S
C2264 C2267 1.403 . S
H2265 C2271 0.930 . S
C2266 H2252 0.930 . S
C2266 C2264 1.395 . S
C2266 C2269 1.403 . S
C2267 C2264 1.403 . S
C2267 C2268 1.524 . S
C2267 C2271 1.400 . S
C2268 H2253 0.960 . S
C2268 H2254 0.960 . S
C2268 H2255 0.960 . S
C2268 C2267 1.524 . S
C2269 C2266 1.403 . S
C2269 C2270 1.392 . S
C2269 C2273 1.495 . S
C2270 C2269 1.392 . S
C2270 C2271 1.385 . S
C2270 C2272 1.478 . S
C2271 H2265 0.930 . S
C2271 C2267 1.400 . S
C2271 C2270 1.385 . S
C2272 C2270 1.478 . S
C2272 C2274 1.381 . S
C2272 C2278 1.383 . S
C2273 C2269 1.495 . S
C2273 H2279 0.959 . S
C2273 H2280 0.961 . S
C2273 H2281 0.960 . S
C2274 C2272 1.381 . S
C2274 C2275 1.394 . S
C2274 H2282 0.930 . S
C2275 C2274 1.394 . S
C2275 C2276 1.383 . S
C2275 H2283 0.929 . S
C2276 C2275 1.383 . S
C2276 C2277 1.377 . S
C2277 H2261 0.930 . S
C2277 C2276 1.377 . S
C2277 C2278 1.379 . S
C2278 H2262 0.931 . S
C2278 C2272 1.383 . S
C2278 C2277 1.379 . S
H2279 C2273 0.959 . S
H2280 C2273 0.961 . S
H2281 C2273 0.960 . S
H2282 C2274 0.930 . S
H2283 C2275 0.929 . S
H2284 C2292 0.929 . S
H2285 C2294 0.930 . S
H2286 C2296 0.930 . S
H2287 C2299 0.929 . S
H2288 C2302 0.930 . S
H2289 C2304 0.960 . S
H2290 C2304 0.960 . S
H2291 C2304 0.960 . S
C2292 H2284 0.929 . S
C2292 C2293 1.377 . S
C2292 C2294 1.384 . S
C2293 C2292 1.377 . S
C2293 C2299 1.390 . S
C2294 H2285 0.930 . S
C2294 C2292 1.384 . S
C2294 C2295 1.372 . S
C2295 C2294 1.372 . S
C2295 C2296 1.400 . S
C2295 C2300 1.490 . S
C2296 H2286 0.930 . S
C2296 C2295 1.400 . S
C2296 C2299 1.386 . S
H2297 C2313 0.930 . S
H2298 C2314 0.931 . S
C2299 H2287 0.929 . S
C2299 C2293 1.390 . S
C2299 C2296 1.386 . S
C2300 C2295 1.490 . S
C2300 C2302 1.395 . S
C2300 C2303 1.403 . S
H2301 C2307 0.930 . S
C2302 H2288 0.930 . S
C2302 C2300 1.395 . S
C2302 C2305 1.403 1_655 S
C2303 C2300 1.403 . S
C2303 C2304 1.524 . S
C2303 C2307 1.400 1_655 S
C2304 H2289 0.960 . S
C2304 H2290 0.960 . S
C2304 H2291 0.960 . S
C2304 C2303 1.524 . S
C2305 C2302 1.403 1_455 S
C2305 C2306 1.392 . S
C2305 C2309 1.495 . S
C2306 C2305 1.392 . S
C2306 C2307 1.385 . S
C2306 C2308 1.478 . S
C2307 H2301 0.930 . S
C2307 C2303 1.400 1_455 S
C2307 C2306 1.385 . S
C2308 C2306 1.478 . S
C2308 C2310 1.381 . S
C2308 C2314 1.383 . S
C2309 C2305 1.495 . S
C2309 H2315 0.959 . S
C2309 H2316 0.961 . S
C2309 H2317 0.960 . S
C2310 C2308 1.381 . S
C2310 C2311 1.394 . S
C2310 H2318 0.930 . S
C2311 C2310 1.394 . S
C2311 C2312 1.383 . S
C2311 H2319 0.929 . S
C2312 C2311 1.383 . S
C2312 C2313 1.377 . S
C2313 H2297 0.930 . S
C2313 C2312 1.377 . S
C2313 C2314 1.379 . S
C2314 H2298 0.931 . S
C2314 C2308 1.383 . S
C2314 C2313 1.379 . S
H2315 C2309 0.959 . S
H2316 C2309 0.961 . S
H2317 C2309 0.960 . S
H2318 C2310 0.930 . S
H2319 C2311 0.929 . S
H2320 C2328 0.929 . S
H2321 C2330 0.930 . S
H2322 C2332 0.930 . S
H2323 C2335 0.929 . S
H2324 C2338 0.930 . S
H2325 C2340 0.960 . S
H2326 C2340 0.960 . S
H2327 C2340 0.960 . S
C2328 H2320 0.929 . S
C2328 C2329 1.377 . S
C2328 C2330 1.384 . S
C2329 C2328 1.377 . S
C2329 C2335 1.390 . S
C2330 H2321 0.930 . S
C2330 C2328 1.384 . S
C2330 C2331 1.372 . S
C2331 C2330 1.372 . S
C2331 C2332 1.400 . S
C2331 C2336 1.490 . S
C2332 H2322 0.930 . S
C2332 C2331 1.400 . S
C2332 C2335 1.386 . S
H2333 C2349 0.930 . S
H2334 C2350 0.931 . S
C2335 H2323 0.929 . S
C2335 C2329 1.390 . S
C2335 C2332 1.386 . S
C2336 C2331 1.490 . S
C2336 C2338 1.395 . S
C2336 C2339 1.403 . S
H2337 C2343 0.930 . S
C2338 H2324 0.930 . S
C2338 C2336 1.395 . S
C2338 C2341 1.403 . S
C2339 C2336 1.403 . S
C2339 C2340 1.524 . S
C2339 C2343 1.400 . S
C2340 H2325 0.960 . S
C2340 H2326 0.960 . S
C2340 H2327 0.960 . S
C2340 C2339 1.524 . S
C2341 C2338 1.403 . S
C2341 C2342 1.392 . S
C2341 C2345 1.495 . S
C2342 C2341 1.392 . S
C2342 C2343 1.385 . S
C2342 C2344 1.478 . S
C2343 H2337 0.930 . S
C2343 C2339 1.400 . S
C2343 C2342 1.385 . S
C2344 C2342 1.478 . S
C2344 C2346 1.381 . S
C2344 C2350 1.383 . S
C2345 C2341 1.495 . S
C2345 H2351 0.959 . S
C2345 H2352 0.961 . S
C2345 H2353 0.960 . S
C2346 C2344 1.381 . S
C2346 C2347 1.394 . S
C2346 H2354 0.930 . S
C2347 C2346 1.394 . S
C2347 C2348 1.383 . S
C2347 H2355 0.929 . S
C2348 C2347 1.383 . S
C2348 C2349 1.377 . S
C2349 H2333 0.930 . S
C2349 C2348 1.377 . S
C2349 C2350 1.379 . S
C2350 H2334 0.931 . S
C2350 C2344 1.383 . S
C2350 C2349 1.379 . S
H2351 C2345 0.959 . S
H2352 C2345 0.961 . S
H2353 C2345 0.960 . S
H2354 C2346 0.930 . S
H2355 C2347 0.929 . S
H2356 C2364 0.929 . S
H2357 C2366 0.930 . S
H2358 C2368 0.930 . S
H2359 C2371 0.929 . S
H2360 C2374 0.930 . S
H2361 C2376 0.960 . S
H2362 C2376 0.960 . S
H2363 C2376 0.960 . S
C2364 H2356 0.929 . S
C2364 C2365 1.377 . S
C2364 C2366 1.384 . S
C2365 C2364 1.377 . S
C2365 C2371 1.390 . S
C2366 H2357 0.930 . S
C2366 C2364 1.384 . S
C2366 C2367 1.372 . S
C2367 C2366 1.372 . S
C2367 C2368 1.400 . S
C2367 C2372 1.490 . S
C2368 H2358 0.930 . S
C2368 C2367 1.400 . S
C2368 C2371 1.386 . S
H2369 C2385 0.930 . S
H2370 C2386 0.931 . S
C2371 H2359 0.929 . S
C2371 C2365 1.390 . S
C2371 C2368 1.386 . S
C2372 C2367 1.490 . S
C2372 C2374 1.395 . S
C2372 C2375 1.403 . S
H2373 C2379 0.930 . S
C2374 H2360 0.930 . S
C2374 C2372 1.395 . S
C2374 C2377 1.403 1_655 S
C2375 C2372 1.403 . S
C2375 C2376 1.524 . S
C2375 C2379 1.400 1_655 S
C2376 H2361 0.960 . S
C2376 H2362 0.960 . S
C2376 H2363 0.960 . S
C2376 C2375 1.524 . S
C2377 C2374 1.403 1_455 S
C2377 C2378 1.392 . S
C2377 C2381 1.495 . S
C2378 C2377 1.392 . S
C2378 C2379 1.385 . S
C2378 C2380 1.478 . S
C2379 H2373 0.930 . S
C2379 C2375 1.400 1_455 S
C2379 C2378 1.385 . S
C2380 C2378 1.478 . S
C2380 C2382 1.381 . S
C2380 C2386 1.383 . S
C2381 C2377 1.495 . S
C2381 H2387 0.959 . S
C2381 H2388 0.961 . S
C2381 H2389 0.960 . S
C2382 C2380 1.381 . S
C2382 C2383 1.394 . S
C2382 H2390 0.930 . S
C2383 C2382 1.394 . S
C2383 C2384 1.383 . S
C2383 H2391 0.929 . S
C2384 C2383 1.383 . S
C2384 C2385 1.377 . S
C2385 H2369 0.930 . S
C2385 C2384 1.377 . S
C2385 C2386 1.379 . S
C2386 H2370 0.931 . S
C2386 C2380 1.383 . S
C2386 C2385 1.379 . S
H2387 C2381 0.959 . S
H2388 C2381 0.961 . S
H2389 C2381 0.960 . S
H2390 C2382 0.930 . S
H2391 C2383 0.929 . S
H2392 C2400 0.929 . S
H2393 C2402 0.930 . S
H2394 C2404 0.930 . S
H2395 C2407 0.929 . S
H2396 C2410 0.930 . S
H2397 C2412 0.960 . S
H2398 C2412 0.960 . S
H2399 C2412 0.960 . S
C2400 H2392 0.929 . S
C2400 C2401 1.377 . S
C2400 C2402 1.384 . S
C2401 C2400 1.377 . S
C2401 C2407 1.390 . S
C2402 H2393 0.930 . S
C2402 C2400 1.384 . S
C2402 C2403 1.372 . S
C2403 C2402 1.372 . S
C2403 C2404 1.400 . S
C2403 C2408 1.490 . S
C2404 H2394 0.930 . S
C2404 C2403 1.400 . S
C2404 C2407 1.386 . S
H2405 C2421 0.930 . S
H2406 C2422 0.931 . S
C2407 H2395 0.929 . S
C2407 C2401 1.390 . S
C2407 C2404 1.386 . S
C2408 C2403 1.490 . S
C2408 C2410 1.395 . S
C2408 C2411 1.403 . S
H2409 C2415 0.930 . S
C2410 H2396 0.930 . S
C2410 C2408 1.395 . S
C2410 C2413 1.403 . S
C2411 C2408 1.403 . S
C2411 C2412 1.524 . S
C2411 C2415 1.400 . S
C2412 H2397 0.960 . S
C2412 H2398 0.960 . S
C2412 H2399 0.960 . S
C2412 C2411 1.524 . S
C2413 C2410 1.403 . S
C2413 C2414 1.392 . S
C2413 C2417 1.495 . S
C2414 C2413 1.392 . S
C2414 C2415 1.385 . S
C2414 C2416 1.478 . S
C2415 H2409 0.930 . S
C2415 C2411 1.400 . S
C2415 C2414 1.385 . S
C2416 C2414 1.478 . S
C2416 C2418 1.381 . S
C2416 C2422 1.383 . S
C2417 C2413 1.495 . S
C2417 H2423 0.959 . S
C2417 H2424 0.961 . S
C2417 H2425 0.960 . S
C2418 C2416 1.381 . S
C2418 C2419 1.394 . S
C2418 H2426 0.930 . S
C2419 C2418 1.394 . S
C2419 C2420 1.383 . S
C2419 H2427 0.929 . S
C2420 C2419 1.383 . S
C2420 C2421 1.377 . S
C2421 H2405 0.930 . S
C2421 C2420 1.377 . S
C2421 C2422 1.379 . S
C2422 H2406 0.931 . S
C2422 C2416 1.383 . S
C2422 C2421 1.379 . S
H2423 C2417 0.959 . S
H2424 C2417 0.961 . S
H2425 C2417 0.960 . S
H2426 C2418 0.930 . S
H2427 C2419 0.929 . S
H2428 C2436 0.929 . S
H2429 C2438 0.930 . S
H2430 C2440 0.930 . S
H2431 C2443 0.929 . S
H2432 C2446 0.930 . S
H2433 C2448 0.960 . S
H2434 C2448 0.960 . S
H2435 C2448 0.960 . S
C2436 H2428 0.929 . S
C2436 C2437 1.377 . S
C2436 C2438 1.384 . S
C2437 C2436 1.377 . S
C2437 C2443 1.390 . S
C2438 H2429 0.930 . S
C2438 C2436 1.384 . S
C2438 C2439 1.372 . S
C2439 C2438 1.372 . S
C2439 C2440 1.400 . S
C2439 C2444 1.490 . S
C2440 H2430 0.930 . S
C2440 C2439 1.400 . S
C2440 C2443 1.386 . S
H2441 C2457 0.930 . S
H2442 C2458 0.931 . S
C2443 H2431 0.929 . S
C2443 C2437 1.390 . S
C2443 C2440 1.386 . S
C2444 C2439 1.490 . S
C2444 C2446 1.395 . S
C2444 C2447 1.403 . S
H2445 C2451 0.930 . S
C2446 H2432 0.930 . S
C2446 C2444 1.395 . S
C2446 C2449 1.403 . S
C2447 C2444 1.403 . S
C2447 C2448 1.524 . S
C2447 C2451 1.400 . S
C2448 H2433 0.960 . S
C2448 H2434 0.960 . S
C2448 H2435 0.960 . S
C2448 C2447 1.524 . S
C2449 C2446 1.403 . S
C2449 C2450 1.392 . S
C2449 C2453 1.495 . S
C2450 C2449 1.392 . S
C2450 C2451 1.385 . S
C2450 C2452 1.478 . S
C2451 H2445 0.930 . S
C2451 C2447 1.400 . S
C2451 C2450 1.385 . S
C2452 C2450 1.478 . S
C2452 C2454 1.381 . S
C2452 C2458 1.383 . S
C2453 C2449 1.495 . S
C2453 H2459 0.959 . S
C2453 H2460 0.961 . S
C2453 H2461 0.960 . S
C2454 C2452 1.381 . S
C2454 C2455 1.394 . S
C2454 H2462 0.930 . S
C2455 C2454 1.394 . S
C2455 C2456 1.383 . S
C2455 H2463 0.929 . S
C2456 C2455 1.383 . S
C2456 C2457 1.377 . S
C2457 H2441 0.930 . S
C2457 C2456 1.377 . S
C2457 C2458 1.379 . S
C2458 H2442 0.931 . S
C2458 C2452 1.383 . S
C2458 C2457 1.379 . S
H2459 C2453 0.959 . S
H2460 C2453 0.961 . S
H2461 C2453 0.960 . S
H2462 C2454 0.930 . S
H2463 C2455 0.929 . S
H2464 C2472 0.929 . S
H2465 C2474 0.930 . S
H2466 C2476 0.930 . S
H2467 C2479 0.929 . S
H2468 C2482 0.930 . S
H2469 C2484 0.960 . S
H2470 C2484 0.960 . S
H2471 C2484 0.960 . S
C2472 H2464 0.929 . S
C2472 C2473 1.377 . S
C2472 C2474 1.384 . S
C2473 C2472 1.377 . S
C2473 C2479 1.390 . S
C2474 H2465 0.930 . S
C2474 C2472 1.384 . S
C2474 C2475 1.372 . S
C2475 C2474 1.372 . S
C2475 C2476 1.400 . S
C2475 C2480 1.490 . S
C2476 H2466 0.930 . S
C2476 C2475 1.400 . S
C2476 C2479 1.386 . S
H2477 C2493 0.930 . S
H2478 C2494 0.931 . S
C2479 H2467 0.929 . S
C2479 C2473 1.390 . S
C2479 C2476 1.386 . S
C2480 C2475 1.490 . S
C2480 C2482 1.395 . S
C2480 C2483 1.403 . S
H2481 C2487 0.930 . S
C2482 H2468 0.930 . S
C2482 C2480 1.395 . S
C2482 C2485 1.403 . S
C2483 C2480 1.403 . S
C2483 C2484 1.524 1_556 S
C2483 C2487 1.400 . S
C2484 H2469 0.960 . S
C2484 H2470 0.960 . S
C2484 H2471 0.960 . S
C2484 C2483 1.524 1_554 S
C2485 C2482 1.403 . S
C2485 C2486 1.392 . S
C2485 C2489 1.495 . S
C2486 C2485 1.392 . S
C2486 C2487 1.385 . S
C2486 C2488 1.478 . S
C2487 H2481 0.930 . S
C2487 C2483 1.400 . S
C2487 C2486 1.385 . S
C2488 C2486 1.478 . S
C2488 C2490 1.381 . S
C2488 C2494 1.383 . S
C2489 C2485 1.495 . S
C2489 H2495 0.959 . S
C2489 H2496 0.961 . S
C2489 H2497 0.960 . S
C2490 C2488 1.381 . S
C2490 C2491 1.394 . S
C2490 H2498 0.930 . S
C2491 C2490 1.394 . S
C2491 C2492 1.383 . S
C2491 H2499 0.929 . S
C2492 C2491 1.383 . S
C2492 C2493 1.377 . S
C2493 H2477 0.930 . S
C2493 C2492 1.377 . S
C2493 C2494 1.379 . S
C2494 H2478 0.931 . S
C2494 C2488 1.383 . S
C2494 C2493 1.379 . S
H2495 C2489 0.959 . S
H2496 C2489 0.961 . S
H2497 C2489 0.960 . S
H2498 C2490 0.930 . S
H2499 C2491 0.929 . S
H2500 C2508 0.929 . S
H2501 C2510 0.930 . S
H2502 C2512 0.930 . S
H2503 C2515 0.929 . S
H2504 C2518 0.930 . S
H2505 C2520 0.960 . S
H2506 C2520 0.960 . S
H2507 C2520 0.960 . S
C2508 H2500 0.929 . S
C2508 C2509 1.377 . S
C2508 C2510 1.384 . S
C2509 C2508 1.377 . S
C2509 C2515 1.390 . S
C2510 H2501 0.930 . S
C2510 C2508 1.384 . S
C2510 C2511 1.372 . S
C2511 C2510 1.372 . S
C2511 C2512 1.400 . S
C2511 C2516 1.490 . S
C2512 H2502 0.930 . S
C2512 C2511 1.400 . S
C2512 C2515 1.386 . S
H2513 C2529 0.930 . S
H2514 C2530 0.931 . S
C2515 H2503 0.929 . S
C2515 C2509 1.390 . S
C2515 C2512 1.386 . S
C2516 C2511 1.490 . S
C2516 C2518 1.395 . S
C2516 C2519 1.403 . S
H2517 C2523 0.930 . S
C2518 H2504 0.930 . S
C2518 C2516 1.395 . S
C2518 C2521 1.403 . S
C2519 C2516 1.403 . S
C2519 C2520 1.524 . S
C2519 C2523 1.400 . S
C2520 H2505 0.960 . S
C2520 H2506 0.960 . S
C2520 H2507 0.960 . S
C2520 C2519 1.524 . S
C2521 C2518 1.403 . S
C2521 C2522 1.392 . S
C2521 C2525 1.495 . S
C2522 C2521 1.392 . S
C2522 C2523 1.385 . S
C2522 C2524 1.478 . S
C2523 H2517 0.930 . S
C2523 C2519 1.400 . S
C2523 C2522 1.385 . S
C2524 C2522 1.478 . S
C2524 C2526 1.381 . S
C2524 C2530 1.383 . S
C2525 C2521 1.495 . S
C2525 H2531 0.959 . S
C2525 H2532 0.961 . S
C2525 H2533 0.960 . S
C2526 C2524 1.381 . S
C2526 C2527 1.394 . S
C2526 H2534 0.930 . S
C2527 C2526 1.394 . S
C2527 C2528 1.383 . S
C2527 H2535 0.929 . S
C2528 C2527 1.383 . S
C2528 C2529 1.377 . S
C2529 H2513 0.930 . S
C2529 C2528 1.377 . S
C2529 C2530 1.379 . S
C2530 H2514 0.931 . S
C2530 C2524 1.383 . S
C2530 C2529 1.379 . S
H2531 C2525 0.959 . S
H2532 C2525 0.961 . S
H2533 C2525 0.960 . S
H2534 C2526 0.930 . S
H2535 C2527 0.929 . S
H2536 C2544 0.929 1_556 S
H2537 C2546 0.930 1_556 S
H2538 C2548 0.930 . S
H2539 C2551 0.929 . S
H2540 C2554 0.930 . S
H2541 C2556 0.960 . S
H2542 C2556 0.960 . S
H2543 C2556 0.960 . S
C2544 H2536 0.929 1_554 S
C2544 C2545 1.377 . S
C2544 C2546 1.384 . S
C2545 C2544 1.377 . S
C2545 C2551 1.390 . S
C2546 H2537 0.930 1_554 S
C2546 C2544 1.384 . S
C2546 C2547 1.372 . S
C2547 C2546 1.372 . S
C2547 C2548 1.400 . S
C2547 C2552 1.490 . S
C2548 H2538 0.930 . S
C2548 C2547 1.400 . S
C2548 C2551 1.386 . S
H2549 C2565 0.930 . S
H2550 C2566 0.931 . S
C2551 H2539 0.929 . S
C2551 C2545 1.390 . S
C2551 C2548 1.386 . S
C2552 C2547 1.490 . S
C2552 C2554 1.395 . S
C2552 C2555 1.403 . S
H2553 C2559 0.930 . S
C2554 H2540 0.930 . S
C2554 C2552 1.395 . S
C2554 C2557 1.403 . S
C2555 C2552 1.403 . S
C2555 C2556 1.524 . S
C2555 C2559 1.400 . S
C2556 H2541 0.960 . S
C2556 H2542 0.960 . S
C2556 H2543 0.960 . S
C2556 C2555 1.524 . S
C2557 C2554 1.403 . S
C2557 C2558 1.392 . S
C2557 C2561 1.495 . S
C2558 C2557 1.392 . S
C2558 C2559 1.385 . S
C2558 C2560 1.478 . S
C2559 H2553 0.930 . S
C2559 C2555 1.400 . S
C2559 C2558 1.385 . S
C2560 C2558 1.478 . S
C2560 C2562 1.381 . S
C2560 C2566 1.383 . S
C2561 C2557 1.495 . S
C2561 H2567 0.959 . S
C2561 H2568 0.961 . S
C2561 H2569 0.913 1_554 S
C2562 C2560 1.381 . S
C2562 C2563 1.394 . S
C2562 H2570 0.930 1_554 S
C2563 C2562 1.394 . S
C2563 C2564 1.383 . S
C2563 H2571 0.929 1_554 S
C2564 C2563 1.383 . S
C2564 C2565 1.377 . S
C2565 H2549 0.930 . S
C2565 C2564 1.377 . S
C2565 C2566 1.379 . S
C2566 H2550 0.931 . S
C2566 C2560 1.383 . S
C2566 C2565 1.379 . S
H2567 C2561 0.959 . S
H2568 C2561 0.961 . S
H2569 C2561 0.913 1_556 S
H2570 C2562 0.930 1_556 S
H2571 C2563 0.929 1_556 S
H2572 C2580 0.929 . S
H2573 C2582 0.930 . S
H2574 C2584 0.930 . S
H2575 C2587 0.929 . S
H2576 C2590 0.930 . S
H2577 C2592 0.960 . S
H2578 C2592 0.960 . S
H2579 C2592 0.960 . S
C2580 H2572 0.929 . S
C2580 C2581 1.377 . S
C2580 C2582 1.384 . S
C2581 C2580 1.377 . S
C2581 C2587 1.390 . S
C2582 H2573 0.930 . S
C2582 C2580 1.384 . S
C2582 C2583 1.372 . S
C2583 C2582 1.372 . S
C2583 C2584 1.400 . S
C2583 C2588 1.490 . S
C2584 H2574 0.930 . S
C2584 C2583 1.400 . S
C2584 C2587 1.386 . S
H2585 C2601 0.930 . S
H2586 C2602 0.931 . S
C2587 H2575 0.929 . S
C2587 C2581 1.390 . S
C2587 C2584 1.386 . S
C2588 C2583 1.490 . S
C2588 C2590 1.395 . S
C2588 C2591 1.403 . S
H2589 C2595 0.930 . S
C2590 H2576 0.930 . S
C2590 C2588 1.395 . S
C2590 C2593 1.403 . S
C2591 C2588 1.403 . S
C2591 C2592 1.524 . S
C2591 C2595 1.400 . S
C2592 H2577 0.960 . S
C2592 H2578 0.960 . S
C2592 H2579 0.960 . S
C2592 C2591 1.524 . S
C2593 C2590 1.403 . S
C2593 C2594 1.392 . S
C2593 C2597 1.495 . S
C2594 C2593 1.392 . S
C2594 C2595 1.385 . S
C2594 C2596 1.478 . S
C2595 H2589 0.930 . S
C2595 C2591 1.400 . S
C2595 C2594 1.385 . S
C2596 C2594 1.478 . S
C2596 C2598 1.381 . S
C2596 C2602 1.383 . S
C2597 C2593 1.495 . S
C2597 H2603 0.959 . S
C2597 H2604 0.961 . S
C2597 H2605 0.960 . S
C2598 C2596 1.381 . S
C2598 C2599 1.394 . S
C2598 H2606 0.930 . S
C2599 C2598 1.394 . S
C2599 C2600 1.383 . S
C2599 H2607 0.929 . S
C2600 C2599 1.383 . S
C2600 C2601 1.377 . S
C2601 H2585 0.930 . S
C2601 C2600 1.377 . S
C2601 C2602 1.379 . S
C2602 H2586 0.931 . S
C2602 C2596 1.383 . S
C2602 C2601 1.379 . S
H2603 C2597 0.959 . S
H2604 C2597 0.961 . S
H2605 C2597 0.960 . S
H2606 C2598 0.930 . S
H2607 C2599 0.929 . S
H2608 C2616 0.929 . S
H2609 C2618 0.930 . S
H2610 C2620 0.930 . S
H2611 C2623 0.929 . S
H2612 C2626 0.930 . S
H2613 C2628 0.960 . S
H2614 C2628 0.960 . S
H2615 C2628 0.960 . S
C2616 H2608 0.929 . S
C2616 C2617 1.377 . S
C2616 C2618 1.384 . S
C2617 C2616 1.377 . S
C2617 C2623 1.390 . S
C2618 H2609 0.930 . S
C2618 C2616 1.384 . S
C2618 C2619 1.372 . S
C2619 C2618 1.372 . S
C2619 C2620 1.400 . S
C2619 C2624 1.490 . S
C2620 H2610 0.930 . S
C2620 C2619 1.400 . S
C2620 C2623 1.386 . S
H2621 C2637 0.930 . S
H2622 C2638 0.931 . S
C2623 H2611 0.929 . S
C2623 C2617 1.390 . S
C2623 C2620 1.386 . S
C2624 C2619 1.490 . S
C2624 C2626 1.395 . S
C2624 C2627 1.403 . S
H2625 C2631 0.930 . S
C2626 H2612 0.930 . S
C2626 C2624 1.395 . S
C2626 C2629 1.403 1_655 S
C2627 C2624 1.403 . S
C2627 C2628 1.524 . S
C2627 C2631 1.400 1_655 S
C2628 H2613 0.960 . S
C2628 H2614 0.960 . S
C2628 H2615 0.960 . S
C2628 C2627 1.524 . S
C2629 C2626 1.403 1_455 S
C2629 C2630 1.392 . S
C2629 C2633 1.495 . S
C2630 C2629 1.392 . S
C2630 C2631 1.385 . S
C2630 C2632 1.478 . S
C2631 H2625 0.930 . S
C2631 C2627 1.400 1_455 S
C2631 C2630 1.385 . S
C2632 C2630 1.478 . S
C2632 C2634 1.381 . S
C2632 C2638 1.383 . S
C2633 C2629 1.495 . S
C2633 H2639 0.959 . S
C2633 H2640 0.961 . S
C2633 H2641 0.960 . S
C2634 C2632 1.381 . S
C2634 C2635 1.394 . S
C2634 H2642 0.930 . S
C2635 C2634 1.394 . S
C2635 C2636 1.383 . S
C2635 H2643 0.929 . S
C2636 C2635 1.383 . S
C2636 C2637 1.377 . S
C2637 H2621 0.930 . S
C2637 C2636 1.377 . S
C2637 C2638 1.379 . S
C2638 H2622 0.931 . S
C2638 C2632 1.383 . S
C2638 C2637 1.379 . S
H2639 C2633 0.959 . S
H2640 C2633 0.961 . S
H2641 C2633 0.960 . S
H2642 C2634 0.930 . S
H2643 C2635 0.929 . S
H2644 C2652 0.929 . S
H2645 C2654 0.930 . S
H2646 C2656 0.930 . S
H2647 C2659 0.929 . S
H2648 C2662 0.930 . S
H2649 C2664 0.960 . S
H2650 C2664 0.960 . S
H2651 C2664 0.960 . S
C2652 H2644 0.929 . S
C2652 C2653 1.377 . S
C2652 C2654 1.384 . S
C2653 C2652 1.377 . S
C2653 C2659 1.390 . S
C2654 H2645 0.930 . S
C2654 C2652 1.384 . S
C2654 C2655 1.372 . S
C2655 C2654 1.372 . S
C2655 C2656 1.400 . S
C2655 C2660 1.490 . S
C2656 H2646 0.930 . S
C2656 C2655 1.400 . S
C2656 C2659 1.386 . S
H2657 C2673 0.930 . S
H2658 C2674 0.931 . S
C2659 H2647 0.929 . S
C2659 C2653 1.390 . S
C2659 C2656 1.386 . S
C2660 C2655 1.490 . S
C2660 C2662 1.395 . S
C2660 C2663 1.403 . S
H2661 C2667 0.930 . S
C2662 H2648 0.930 . S
C2662 C2660 1.395 . S
C2662 C2665 1.403 . S
C2663 C2660 1.403 . S
C2663 C2664 1.524 . S
C2663 C2667 1.400 . S
C2664 H2649 0.960 . S
C2664 H2650 0.960 . S
C2664 H2651 0.960 . S
C2664 C2663 1.524 . S
C2665 C2662 1.403 . S
C2665 C2666 1.392 . S
C2665 C2669 1.495 . S
C2666 C2665 1.392 . S
C2666 C2667 1.385 . S
C2666 C2668 1.478 . S
C2667 H2661 0.930 . S
C2667 C2663 1.400 . S
C2667 C2666 1.385 . S
C2668 C2666 1.478 . S
C2668 C2670 1.381 . S
C2668 C2674 1.383 . S
C2669 C2665 1.495 . S
C2669 H2675 0.959 . S
C2669 H2676 0.961 . S
C2669 H2677 0.960 . S
C2670 C2668 1.381 . S
C2670 C2671 1.394 . S
C2670 H2678 0.930 . S
C2671 C2670 1.394 . S
C2671 C2672 1.383 . S
C2671 H2679 0.929 . S
C2672 C2671 1.383 . S
C2672 C2673 1.377 . S
C2673 H2657 0.930 . S
C2673 C2672 1.377 . S
C2673 C2674 1.379 . S
C2674 H2658 0.931 . S
C2674 C2668 1.383 . S
C2674 C2673 1.379 . S
H2675 C2669 0.959 . S
H2676 C2669 0.961 . S
H2677 C2669 0.960 . S
H2678 C2670 0.930 . S
H2679 C2671 0.929 . S
H2680 C2688 0.929 . S
H2681 C2690 0.930 . S
H2682 C2692 0.930 . S
H2683 C2695 0.929 . S
H2684 C2698 0.930 . S
H2685 C2700 0.960 . S
H2686 C2700 0.960 . S
H2687 C2700 0.960 . S
C2688 H2680 0.929 . S
C2688 C2689 1.377 . S
C2688 C2690 1.384 . S
C2689 C2688 1.377 . S
C2689 C2695 1.390 . S
C2690 H2681 0.930 . S
C2690 C2688 1.384 . S
C2690 C2691 1.372 . S
C2691 C2690 1.372 . S
C2691 C2692 1.400 . S
C2691 C2696 1.490 . S
C2692 H2682 0.930 . S
C2692 C2691 1.400 . S
C2692 C2695 1.386 . S
H2693 C2709 0.930 . S
H2694 C2710 0.931 . S
C2695 H2683 0.929 . S
C2695 C2689 1.390 . S
C2695 C2692 1.386 . S
C2696 C2691 1.490 . S
C2696 C2698 1.395 . S
C2696 C2699 1.403 . S
H2697 C2703 0.930 . S
C2698 H2684 0.930 . S
C2698 C2696 1.395 . S
C2698 C2701 1.403 . S
C2699 C2696 1.403 . S
C2699 C2700 1.524 . S
C2699 C2703 1.400 . S
C2700 H2685 0.960 . S
C2700 H2686 0.960 . S
C2700 H2687 0.960 . S
C2700 C2699 1.524 . S
C2701 C2698 1.403 . S
C2701 C2702 1.392 . S
C2701 C2705 1.495 . S
C2702 C2701 1.392 . S
C2702 C2703 1.385 . S
C2702 C2704 1.478 . S
C2703 H2697 0.930 . S
C2703 C2699 1.400 . S
C2703 C2702 1.385 . S
C2704 C2702 1.478 . S
C2704 C2706 1.381 . S
C2704 C2710 1.383 . S
C2705 C2701 1.495 . S
C2705 H2711 0.959 . S
C2705 H2712 0.961 . S
C2705 H2713 0.960 . S
C2706 C2704 1.381 . S
C2706 C2707 1.394 . S
C2706 H2714 0.930 . S
C2707 C2706 1.394 . S
C2707 C2708 1.383 . S
C2707 H2715 0.929 . S
C2708 C2707 1.383 . S
C2708 C2709 1.377 . S
C2709 H2693 0.930 . S
C2709 C2708 1.377 . S
C2709 C2710 1.379 . S
C2710 H2694 0.931 . S
C2710 C2704 1.383 . S
C2710 C2709 1.379 . S
H2711 C2705 0.959 . S
H2712 C2705 0.961 . S
H2713 C2705 0.960 . S
H2714 C2706 0.930 . S
H2715 C2707 0.929 . S
H2716 C2724 0.929 . S
H2717 C2726 0.930 . S
H2718 C2728 0.930 . S
H2719 C2731 0.929 . S
H2720 C2734 0.930 . S
H2721 C2736 0.960 . S
H2722 C2736 0.960 . S
H2723 C2736 0.960 . S
C2724 H2716 0.929 . S
C2724 C2725 1.377 . S
C2724 C2726 1.384 . S
C2725 C2724 1.377 . S
C2725 C2731 1.390 . S
C2726 H2717 0.930 . S
C2726 C2724 1.384 . S
C2726 C2727 1.372 . S
C2727 C2726 1.372 . S
C2727 C2728 1.400 . S
C2727 C2732 1.490 . S
C2728 H2718 0.930 . S
C2728 C2727 1.400 . S
C2728 C2731 1.386 . S
H2729 C2745 0.930 . S
H2730 C2746 0.931 . S
C2731 H2719 0.929 . S
C2731 C2725 1.390 . S
C2731 C2728 1.386 . S
C2732 C2727 1.490 . S
C2732 C2734 1.395 . S
C2732 C2735 1.403 . S
H2733 C2739 0.930 . S
C2734 H2720 0.930 . S
C2734 C2732 1.395 . S
C2734 C2737 1.403 1_655 S
C2735 C2732 1.403 . S
C2735 C2736 1.524 . S
C2735 C2739 1.400 1_655 S
C2736 H2721 0.960 . S
C2736 H2722 0.960 . S
C2736 H2723 0.960 . S
C2736 C2735 1.524 . S
C2737 C2734 1.403 1_455 S
C2737 C2738 1.392 . S
C2737 C2741 1.495 . S
C2738 C2737 1.392 . S
C2738 C2739 1.385 . S
C2738 C2740 1.478 . S
C2739 H2733 0.930 . S
C2739 C2735 1.400 1_455 S
C2739 C2738 1.385 . S
C2740 C2738 1.478 . S
C2740 C2742 1.381 . S
C2740 C2746 1.383 . S
C2741 C2737 1.495 . S
C2741 H2747 0.959 . S
C2741 H2748 0.961 . S
C2741 H2749 0.960 . S
C2742 C2740 1.381 . S
C2742 C2743 1.394 . S
C2742 H2750 0.930 . S
C2743 C2742 1.394 . S
C2743 C2744 1.383 . S
C2743 H2751 0.929 . S
C2744 C2743 1.383 . S
C2744 C2745 1.377 . S
C2745 H2729 0.930 . S
C2745 C2744 1.377 . S
C2745 C2746 1.379 . S
C2746 H2730 0.931 . S
C2746 C2740 1.383 . S
C2746 C2745 1.379 . S
H2747 C2741 0.959 . S
H2748 C2741 0.961 . S
H2749 C2741 0.960 . S
H2750 C2742 0.930 . S
H2751 C2743 0.929 . S
C457 C325 1.686 . S
C476 C3 1.667 . S
C493 C283 1.687 . S
C512 C17 1.668 . S
C529 C297 1.683 . S
C548 C31 1.679 . S
C565 C311 1.681 . S
C584 C45 1.694 . S
C601 C59 1.687 . S
C620 C241 1.667 . S
C637 C255 1.687 . S
C656 C73 1.670 . S
C673 C87 1.683 . S
C692 C269 1.677 . S
C709 C101 1.685 . S
C728 C227 1.668 . S
C745 C437 1.687 . S
C764 C115 1.693 . S
C781 C129 1.684 . S
C800 C395 1.683 . S
C817 C143 1.682 . S
C836 C409 1.667 . S
C853 C157 1.681 . S
C872 C423 1.667 . S
C889 C171 1.681 . S
C908 C353 1.668 . S
C925 C185 1.681 . S
C944 C367 1.668 . S
C961 C199 1.682 . S
C980 C381 1.668 . S
C997 C213 1.682 . S
C1016 C339 1.672 . S
C1033 C7 1.176 . S
C1052 C175 1.151 . S
C1069 C413 1.172 . S
C1088 C21 1.206 . S
C1105 C35 1.178 . S
C1124 C203 1.211 . S
C1141 C441 1.184 . S
C1160 C49 1.140 . S
C1177 C119 1.179 . S
C1196 C63 1.142 . S
C1213 C77 1.181 . S
C1232 C357 1.140 . S
C1249 C91 1.184 . S
C1268 C147 1.140 . S
C1285 C105 1.183 . S
C1304 C385 1.197 . S
C1321 C301 1.187 . S
C1340 C133 1.165 . S
C1357 C329 1.175 . S
C1376 C161 1.214 . S
C1393 C189 1.179 . S
C1412 C245 1.208 . S
C1429 C273 1.171 . S
C1448 C217 1.202 . S
C1465 C399 1.172 . S
C1484 C231 1.207 . S
C1501 C259 1.180 . S
C1520 C427 1.140 . S
C1537 C343 1.179 . S
C1556 C287 1.142 . S
C1573 C371 1.185 . S
C1592 C315 1.178 . S
C1609 C64 1.099 . S
C1628 C8 1.085 . S
C1645 C78 1.102 . S
C1664 C22 1.097 . S
C1681 C36 1.099 . S
C1700 C92 1.100 . S
C1717 C50 1.097 . S
C1736 C106 1.087 . S
C1753 C176 1.102 . S
C1772 C120 1.081 . S
C1789 C190 1.097 . S
C1808 C134 1.118 . S
C1825 C204 1.096 . S
C1844 C148 1.118 . S
C1861 C162 1.096 . S
C1880 C218 1.114 . S
C1897 C232 1.096 . S
C1916 C288 1.084 . S
C1933 C246 1.104 . S
C1952 C302 1.118 . S
C1969 C260 1.100 . S
C1988 C316 1.105 . S
C2005 C274 1.096 . S
C2024 C330 1.083 . S
C2041 C400 1.102 . S
C2060 C344 1.102 . S
C2077 C414 1.097 . S
C2096 C358 1.105 . S
C2113 C428 1.104 . S
C2132 C372 1.078 . S
C2149 C442 1.104 . S
C2168 C386 1.077 . S
C2185 C429 1.516 . S
C2204 C9 1.495 . S
C2221 C23 1.508 . S
C2240 C219 1.534 . S
C2257 C401 1.504 . S
C2276 C37 1.527 . S
C2293 C51 1.505 . S
C2312 C191 1.534 . S
C2329 C373 1.514 . S
C2348 C65 1.517 . S
C2365 C79 1.513 . S
C2384 C163 1.478 . S
C2401 C93 1.513 . S
C2420 C345 1.520 . S
C2437 C135 1.515 . S
C2456 C107 1.490 . S
C2473 C121 1.516 . S
C2492 C317 1.495 . S
C2509 C289 1.511 . S
C2528 C149 1.528 . S
C2545 C177 1.510 . S
C2564 C261 1.531 . S
C2581 C205 1.510 . S
C2600 C233 1.530 . S
C2617 C443 1.515 . S
C2636 C247 1.506 . S
C2653 C275 1.513 . S
C2672 C415 1.518 . S
C2689 C303 1.515 . S
C2708 C387 1.483 . S
C2725 C359 1.515 . S
C2744 C331 1.482 . S
