# Generated by pormake.
# Topology mon, (4)-cn, num edge types: 1
# Building blocks:
#     Node 0, Type 0, BuildingBlock: AZAVOO_clean_sbu_0, # of connection points: 4
#     Node 1, Type 0, BuildingBlock: AZAVOO_clean_sbu_0, # of connection points: 4
#     Node 2, Type 0, BuildingBlock: AZAVOO_clean_sbu_0, # of connection points: 4
#     Node 3, Type 0, BuildingBlock: AZAVOO_clean_sbu_0, # of connection points: 4
#     Node 4, Type 0, BuildingBlock: AZAVOO_clean_sbu_0, # of connection points: 4
#     Node 5, Type 0, BuildingBlock: AZAVOO_clean_sbu_0, # of connection points: 4
#     Node 6, Type 0, BuildingBlock: AZAVOO_clean_sbu_0, # of connection points: 4
#     Node 7, Type 0, BuildingBlock: AZAVOO_clean_sbu_0, # of connection points: 4
#     Node 8, Type 0, BuildingBlock: AZAVOO_clean_sbu_0, # of connection points: 4
#     Node 9, Type 0, BuildingBlock: AZAVOO_clean_sbu_0, # of connection points: 4
#     Node 10, Type 0, BuildingBlock: AZAVOO_clean_sbu_0, # of connection points: 4
#     Node 11, Type 0, BuildingBlock: AZAVOO_clean_sbu_0, # of connection points: 4
#     Node 12, Type 0, BuildingBlock: AZAVOO_clean_sbu_0, # of connection points: 4
#     Node 13, Type 0, BuildingBlock: AZAVOO_clean_sbu_0, # of connection points: 4
#     Node 14, Type 0, BuildingBlock: AZAVOO_clean_sbu_0, # of connection points: 4
#     Node 15, Type 0, BuildingBlock: AZAVOO_clean_sbu_0, # of connection points: 4
#     Edge 16, Type (0, 0), BuildingBlock: MIFKUJ_clean_linker_0, # of connection points: 2
#     Edge 17, Type (0, 0), BuildingBlock: MIFKUJ_clean_linker_0, # of connection points: 2
#     Edge 18, Type (0, 0), BuildingBlock: MIFKUJ_clean_linker_0, # of connection points: 2
#     Edge 19, Type (0, 0), BuildingBlock: MIFKUJ_clean_linker_0, # of connection points: 2
#     Edge 20, Type (0, 0), BuildingBlock: MIFKUJ_clean_linker_0, # of connection points: 2
#     Edge 21, Type (0, 0), BuildingBlock: MIFKUJ_clean_linker_0, # of connection points: 2
#     Edge 22, Type (0, 0), BuildingBlock: MIFKUJ_clean_linker_0, # of connection points: 2
#     Edge 23, Type (0, 0), BuildingBlock: MIFKUJ_clean_linker_0, # of connection points: 2
#     Edge 24, Type (0, 0), BuildingBlock: MIFKUJ_clean_linker_0, # of connection points: 2
#     Edge 25, Type (0, 0), BuildingBlock: MIFKUJ_clean_linker_0, # of connection points: 2
#     Edge 26, Type (0, 0), BuildingBlock: MIFKUJ_clean_linker_0, # of connection points: 2
#     Edge 27, Type (0, 0), BuildingBlock: MIFKUJ_clean_linker_0, # of connection points: 2
#     Edge 28, Type (0, 0), BuildingBlock: MIFKUJ_clean_linker_0, # of connection points: 2
#     Edge 29, Type (0, 0), BuildingBlock: MIFKUJ_clean_linker_0, # of connection points: 2
#     Edge 30, Type (0, 0), BuildingBlock: MIFKUJ_clean_linker_0, # of connection points: 2
#     Edge 31, Type (0, 0), BuildingBlock: MIFKUJ_clean_linker_0, # of connection points: 2
#     Edge 32, Type (0, 0), BuildingBlock: MIFKUJ_clean_linker_0, # of connection points: 2
#     Edge 33, Type (0, 0), BuildingBlock: MIFKUJ_clean_linker_0, # of connection points: 2
#     Edge 34, Type (0, 0), BuildingBlock: MIFKUJ_clean_linker_0, # of connection points: 2
#     Edge 35, Type (0, 0), BuildingBlock: MIFKUJ_clean_linker_0, # of connection points: 2
#     Edge 36, Type (0, 0), BuildingBlock: MIFKUJ_clean_linker_0, # of connection points: 2
#     Edge 37, Type (0, 0), BuildingBlock: MIFKUJ_clean_linker_0, # of connection points: 2
#     Edge 38, Type (0, 0), BuildingBlock: MIFKUJ_clean_linker_0, # of connection points: 2
#     Edge 39, Type (0, 0), BuildingBlock: MIFKUJ_clean_linker_0, # of connection points: 2
#     Edge 40, Type (0, 0), BuildingBlock: MIFKUJ_clean_linker_0, # of connection points: 2
#     Edge 41, Type (0, 0), BuildingBlock: MIFKUJ_clean_linker_0, # of connection points: 2
#     Edge 42, Type (0, 0), BuildingBlock: MIFKUJ_clean_linker_0, # of connection points: 2
#     Edge 43, Type (0, 0), BuildingBlock: MIFKUJ_clean_linker_0, # of connection points: 2
#     Edge 44, Type (0, 0), BuildingBlock: MIFKUJ_clean_linker_0, # of connection points: 2
#     Edge 45, Type (0, 0), BuildingBlock: MIFKUJ_clean_linker_0, # of connection points: 2
#     Edge 46, Type (0, 0), BuildingBlock: MIFKUJ_clean_linker_0, # of connection points: 2
#     Edge 47, Type (0, 0), BuildingBlock: MIFKUJ_clean_linker_0, # of connection points: 2
# Relax obj value: 0.178
# Max RMSD: 0.148
# Mean RMSD: 0.148
data_MOF--net-mon--node1-AZAVOO_clean_sbu_0--edge1-MIFKUJ_clean_linker_0
_symmetry_space_group_name_H-M    P1
_symmetry_Int_Tables_number       1
_symmetry_cell_setting            triclinic
loop_
_symmetry_equiv_pos_as_xyz
'x, y, z'
_cell_length_a     43.424998
_cell_length_b     43.435654
_cell_length_c     107.43045
_cell_angle_alpha  90.009128
_cell_angle_beta   89.995714
_cell_angle_gamma 90.012054
loop_
_atom_site_label
_atom_site_type_symbol
_atom_site_fract_x
_atom_site_fract_y
_atom_site_fract_z
_atom_type_partial_charge
Mg0 Mg 0.03552 0.03017 0.58332 0.0
O1 O 0.08051 0.0095 0.58904 0.0
O2 O 0.11978 0.02842 0.57804 0.0
Mg3 Mg 0.09817 0.06444 0.56529 0.0
C4 C 0.10905 0.01082 0.5865 0.0
C5 C 0.98822 0.01288 0.60079 0.0
O6 O 0.97506 0.03325 0.59347 0.0
O7 O 0.0476 0.07118 0.59436 0.0
O8 O 0.08483 0.09186 0.58258 0.0
O9 O 0.03065 0.99922 0.56828 0.0
O10 O 0.05307 0.04202 0.56659 0.0
C11 C 0.06741 0.09204 0.59217 0.0
C12 C 0.0458 0.01607 0.56171 0.0
O13 O 0.01387 0.00773 0.59956 0.0
Mg14 Mg 0.2545 0.74704 0.83315 0.0
O15 O 0.277 0.79143 0.83875 0.0
O16 O 0.25602 0.83132 0.82866 0.0
Mg17 Mg 0.21857 0.81076 0.81639 0.0
C18 C 0.27513 0.82001 0.8364 0.0
C19 C 0.27336 0.69744 0.85187 0.0
O20 O 0.25019 0.68283 0.84667 0.0
O21 O 0.21493 0.75955 0.84501 0.0
O22 O 0.19223 0.79696 0.83403 0.0
O23 O 0.28722 0.74079 0.81799 0.0
O24 O 0.24272 0.76588 0.81627 0.0
C25 C 0.19358 0.77917 0.84349 0.0
C26 C 0.2686 0.75748 0.81142 0.0
O27 O 0.27866 0.7251 0.84894 0.0
Mg28 Mg 0.55066 0.96176 0.08053 0.0
O29 O 0.51245 0.99027 0.08941 0.0
O30 O 0.46923 0.97331 0.08029 0.0
Mg31 Mg 0.47916 0.94257 0.06385 0.0
C32 C 0.48316 0.98936 0.08848 0.0
C33 C 0.59918 0.97462 0.10631 0.0
O34 O 0.60693 0.95144 0.11353 0.0
O35 O 0.53111 0.92047 0.09012 0.0
O36 O 0.49263 0.90556 0.07753 0.0
O37 O 0.55962 0.99741 0.06541 0.0
O38 O 0.52658 0.95906 0.06445 0.0
C39 C 0.51016 0.90157 0.08692 0.0
C40 C 0.5387 0.98252 0.05925 0.0
O41 O 0.58173 0.96998 0.09704 0.0
Mg42 Mg 0.32615 0.24927 0.33159 0.0
O43 O 0.30544 0.20506 0.33784 0.0
O44 O 0.32644 0.16436 0.32851 0.0
Mg45 Mg 0.36228 0.18475 0.31536 0.0
C46 C 0.30772 0.1762 0.3363 0.0
C47 C 0.30728 0.30007 0.34927 0.0
O48 O 0.32946 0.31384 0.34308 0.0
O49 O 0.36628 0.23822 0.34335 0.0
O50 O 0.38866 0.1998 0.33273 0.0
O51 O 0.29308 0.25228 0.31625 0.0
O52 O 0.33933 0.23 0.31528 0.0
C53 C 0.38746 0.21828 0.34198 0.0
C54 C 0.31353 0.23676 0.3101 0.0
O55 O 0.30191 0.27194 0.3472 0.0
Mg56 Mg 0.03856 0.96552 0.41181 0.0
O57 O 0.0813 0.98776 0.40475 0.0
O58 O 0.12297 0.96541 0.41298 0.0
Mg59 Mg 0.1051 0.93062 0.42703 0.0
C60 C 0.11025 0.98478 0.4057 0.0
C61 C 0.98828 0.98075 0.39575 0.0
O62 O 0.97686 0.96062 0.40364 0.0
O63 O 0.04844 0.92483 0.40016 0.0
O64 O 0.08746 0.90292 0.41054 0.0
O65 O 0.03597 0.99903 0.42709 0.0
O66 O 0.06011 0.95388 0.42778 0.0
C67 C 0.06822 0.90359 0.40157 0.0
C68 C 0.05312 0.97952 0.43305 0.0
O69 O 0.01369 0.9874 0.39633 0.0
Mg70 Mg 0.32712 0.74693 0.66111 0.0
O71 O 0.30343 0.79085 0.65586 0.0
O72 O 0.31751 0.82921 0.66854 0.0
Mg73 Mg 0.35297 0.80879 0.68181 0.0
C74 C 0.3021 0.8187 0.65938 0.0
C75 C 0.30531 0.69724 0.64534 0.0
O76 O 0.31647 0.68428 0.65542 0.0
O77 O 0.36898 0.76375 0.65143 0.0
O78 O 0.38462 0.7987 0.66539 0.0
O79 O 0.29149 0.73666 0.67532 0.0
O80 O 0.33494 0.76251 0.67869 0.0
C81 C 0.38843 0.78341 0.65534 0.0
C82 C 0.30927 0.75203 0.68274 0.0
O83 O 0.30825 0.72594 0.64394 0.0
Mg84 Mg 0.54336 0.03308 0.9126 0.0
O85 O 0.50036 0.00839 0.90692 0.0
O86 O 0.4608 0.02294 0.9188 0.0
Mg87 Mg 0.47973 0.05821 0.93255 0.0
C88 C 0.47207 0.00718 0.90988 0.0
C89 C 0.59546 0.01642 0.89628 0.0
O90 O 0.60783 0.03273 0.90529 0.0
O91 O 0.5258 0.07472 0.9028 0.0
O92 O 0.49012 0.09062 0.91646 0.0
O93 O 0.55313 -0.00222 0.9271 0.0
O94 O 0.52649 0.04094 0.92988 0.0
C95 C 0.50586 0.0942 0.9065 0.0
C96 C 0.53716 0.01571 0.93426 0.0
O97 O 0.56641 0.0147 0.89565 0.0
Mg98 Mg 0.25384 0.25043 0.15974 0.0
O99 O 0.27847 0.20756 0.15377 0.0
O100 O 0.25856 0.16642 0.1633 0.0
Mg101 Mg 0.22308 0.18472 0.17702 0.0
C102 C 0.27701 0.17865 0.1555 0.0
C103 C 0.27197 0.30334 0.14336 0.0
O104 O 0.25385 0.31671 0.15153 0.0
O105 O 0.21403 0.23531 0.14844 0.0
O106 O 0.19399 0.19784 0.16023 0.0
O107 O 0.28688 0.25796 0.175 0.0
O108 O 0.24348 0.23106 0.17637 0.0
C109 C 0.19344 0.21519 0.15063 0.0
C110 C 0.26848 0.24068 0.18145 0.0
O111 O 0.27494 0.2744 0.14366 0.0
Mg112 Mg 0.82878 0.23722 0.16092 0.0
O113 O 0.80066 0.27517 0.15188 0.0
O114 O 0.81792 0.31903 0.16052 0.0
Mg115 Mg 0.84934 0.30893 0.1769 0.0
C116 C 0.80161 0.30447 0.15258 0.0
C117 C 0.81621 0.18795 0.13549 0.0
O118 O 0.83872 0.17997 0.12797 0.0
O119 O 0.86934 0.25585 0.15139 0.0
O120 O 0.88616 0.296 0.16256 0.0
O121 O 0.79271 0.2281 0.17514 0.0
O122 O 0.8307 0.26203 0.17676 0.0
C123 C 0.88881 0.27696 0.15357 0.0
C124 C 0.80633 0.24987 0.18132 0.0
O125 O 0.8216 0.20571 0.14456 0.0
Mg126 Mg 0.75384 0.74817 0.66204 0.0
O127 O 0.78355 0.70822 0.65691 0.0
O128 O 0.7611 0.66607 0.66473 0.0
Mg129 Mg 0.72558 0.68115 0.679 0.0
C130 C 0.78128 0.6792 0.65795 0.0
C131 C 0.7742 0.80189 0.64585 0.0
O132 O 0.75672 0.81687 0.65378 0.0
O133 O 0.717 0.72864 0.64989 0.0
O134 O 0.69459 0.69581 0.66312 0.0
O135 O 0.78449 0.76013 0.6775 0.0
O136 O 0.74463 0.72821 0.67889 0.0
C137 C 0.6949 0.71105 0.65297 0.0
C138 C 0.76855 0.74056 0.68393 0.0
O139 O 0.775 0.77283 0.64616 0.0
Mg140 Mg 0.75847 0.24476 0.33182 0.0
O141 O 0.78168 0.28778 0.33831 0.0
O142 O 0.76051 0.32866 0.32893 0.0
Mg143 Mg 0.72644 0.31002 0.31473 0.0
C144 C 0.77922 0.3166 0.33665 0.0
C145 C 0.78043 0.19246 0.34713 0.0
O146 O 0.76872 0.1792 0.33721 0.0
O147 O 0.71712 0.2576 0.34261 0.0
O148 O 0.6965 0.29493 0.33096 0.0
O149 O 0.79365 0.23864 0.3174 0.0
O150 O 0.75015 0.26501 0.31497 0.0
C151 C 0.69597 0.27699 0.34036 0.0
C152 C 0.77649 0.25644 0.31064 0.0
O153 O 0.7783 0.22126 0.34827 0.0
Mg154 Mg 0.82627 0.75289 0.83341 0.0
O155 O 0.80331 0.70974 0.83958 0.0
O156 O 0.82415 0.66865 0.83032 0.0
Mg157 Mg 0.85794 0.68789 0.81606 0.0
C158 C 0.80557 0.68089 0.83805 0.0
C159 C 0.80765 0.80364 0.85139 0.0
O160 O 0.82759 0.81937 0.84475 0.0
O161 O 0.86724 0.73954 0.84428 0.0
O162 O 0.88787 0.70228 0.8325 0.0
O163 O 0.7917 0.75925 0.81887 0.0
O164 O 0.83598 0.73361 0.81671 0.0
C165 C 0.88829 0.72001 0.842 0.0
C166 C 0.80988 0.74219 0.81225 0.0
O167 O 0.80477 0.77507 0.84963 0.0
Mg168 Mg 0.5405 0.53371 0.0811 0.0
O169 O 0.58433 0.5122 0.08746 0.0
O170 O 0.62505 0.52939 0.07697 0.0
Mg171 Mg 0.60524 0.56252 0.06252 0.0
C172 C 0.61314 0.5129 0.08553 0.0
C173 C 0.48938 0.51421 0.0984 0.0
O174 O 0.47423 0.53293 0.091 0.0
O175 O 0.55393 0.57622 0.09141 0.0
O176 O 0.59025 0.59359 0.07828 0.0
O177 O 0.53484 0.49844 0.0663 0.0
O178 O 0.55888 0.54334 0.06428 0.0
C179 C 0.57323 0.59655 0.08791 0.0
C180 C 0.5503 0.51772 0.05954 0.0
O181 O 0.51831 0.51233 0.09749 0.0
Mg182 Mg 0.04189 0.46355 0.58277 0.0
O183 O -0.00272 0.48245 0.58922 0.0
O184 O 0.96003 0.46203 0.57922 0.0
Mg185 Mg 0.98152 0.42779 0.56569 0.0
C186 C 0.97135 0.47998 0.58743 0.0
C187 C 0.09332 0.48196 0.59856 0.0
O188 O 0.10501 0.46325 0.59018 0.0
O189 O 0.03183 0.42204 0.59368 0.0
O190 O 0.99663 0.39999 0.58275 0.0
O191 O 0.04473 0.49868 0.56828 0.0
O192 O 0.02316 0.45227 0.56613 0.0
C193 C 0.01227 0.4007 0.59201 0.0
C194 C 0.02959 0.47894 0.56163 0.0
O195 O 0.06449 0.48568 0.59889 0.0
Mg196 Mg 0.54142 0.46164 0.91295 0.0
O197 O 0.58423 0.48493 0.90653 0.0
O198 O 0.62517 0.46544 0.91626 0.0
Mg199 Mg 0.60672 0.43194 0.93078 0.0
C200 C 0.61312 0.48323 0.90818 0.0
C201 C 0.48866 0.48373 0.899 0.0
O202 O 0.47738 0.46947 0.90879 0.0
O203 O 0.55561 0.42051 0.90212 0.0
O204 O 0.59104 0.40072 0.91505 0.0
O205 O 0.53437 0.49589 0.92793 0.0
O206 O 0.5607 0.45231 0.92961 0.0
C207 C 0.57431 0.39942 0.90529 0.0
C208 C 0.55109 0.4774 0.93456 0.0
O209 O 0.51723 0.48216 0.89691 0.0
Mg210 Mg 0.04107 0.53602 0.4115 0.0
O211 O -0.00232 0.51331 0.40501 0.0
O212 O 0.9597 0.53074 0.41551 0.0
Mg213 Mg 0.97838 0.56535 0.42937 0.0
C214 C 0.97167 0.51398 0.40705 0.0
C215 C 0.09393 0.51594 0.39568 0.0
O216 O 0.10764 0.53251 0.40429 0.0
O217 O 0.02627 0.5772 0.40083 0.0
O218 O 0.99076 0.59491 0.4127 0.0
O219 O 0.04839 0.50057 0.42567 0.0
O220 O 0.02136 0.54348 0.42854 0.0
C221 C 0.00525 0.59678 0.40313 0.0
C222 C 0.03067 0.5172 0.43266 0.0
O223 O 0.06486 0.51574 0.39516 0.0
H224 H 0.01537 0.11551 0.60201 0.0
H225 H 0.00597 0.1702 0.60512 0.0
H226 H 0.10276 0.18894 0.59996 0.0
H227 H 0.11239 0.13404 0.5966 0.0
H228 H 0.07596 0.2223 0.61854 0.0
H229 H 0.05839 0.19515 0.57634 0.0
H230 H 0.03733 0.16944 0.55775 0.0
H231 H 0.94985 0.20304 0.56655 0.0
H232 H 0.97008 0.22832 0.58539 0.0
H233 H 0.0659 0.37728 0.59977 0.0
H234 H 0.07507 0.32366 0.60436 0.0
H235 H 0.9798 0.30693 0.60533 0.0
H236 H 0.97053 0.3608 0.59963 0.0
H237 H 0.0049 0.2723 0.58859 0.0
H238 H 0.02797 0.29972 0.6319 0.0
H239 H 0.05526 0.33026 0.64783 0.0
H240 H 0.14223 0.29943 0.63349 0.0
H241 H 0.11553 0.26901 0.61739 0.0
C242 C 0.03486 0.1311 0.60202 0.0
C243 C 0.06454 0.12094 0.59885 0.0
C244 C 0.02931 0.16227 0.60355 0.0
C245 C 0.05353 0.18321 0.60225 0.0
C246 C 0.08381 0.1728 0.60068 0.0
C247 C 0.08932 0.14162 0.59893 0.0
C248 C 0.04711 0.21608 0.60242 0.0
C249 C 0.06048 0.23338 0.61199 0.0
C250 C 0.02699 0.22994 0.59368 0.0
C251 C 0.0144 0.21331 0.58254 0.0
C252 C 0.03393 0.19661 0.57451 0.0
C253 C 0.02213 0.1822 0.56385 0.0
C254 C 0.99366 0.18448 0.561 0.0
C255 C 0.97408 0.20117 0.56879 0.0
C256 C 0.98572 0.21552 0.57948 0.0
C257 C 0.04622 0.36252 0.60147 0.0
C258 C 0.01612 0.37273 0.59922 0.0
C259 C 0.05152 0.33183 0.60414 0.0
C260 C 0.02668 0.31144 0.60523 0.0
C261 C 0.99919 0.32249 0.60445 0.0
C262 C 0.9939 0.35309 0.60131 0.0
C263 C 0.03258 0.27826 0.60512 0.0
C264 C 0.01964 0.26099 0.59534 0.0
C265 C 0.05373 0.26451 0.61342 0.0
C266 C 0.06968 0.28209 0.62341 0.0
C267 C 0.0529 0.29948 0.63213 0.0
C268 C 0.06829 0.3168 0.64118 0.0
C269 C 0.10045 0.3168 0.64166 0.0
C270 C 0.11732 0.29939 0.63312 0.0
C271 C 0.10206 0.28204 0.62405 0.0
H272 H 0.11229 0.33027 0.64866 0.0
H273 H 0.98462 0.17343 0.55273 0.0
H274 H 0.91122 0.77236 0.85176 0.0
H275 H 0.96557 0.78224 0.8555 0.0
H276 H 0.98553 0.68566 0.85054 0.0
H277 H 0.93093 0.67556 0.84649 0.0
H278 H 0.01516 0.71354 0.86951 0.0
H279 H 0.99209 0.72902 0.82711 0.0
H280 H 0.96627 0.74898 0.80836 0.0
H281 H 0.99851 0.84007 0.81663 0.0
H282 H 0.02098 0.82096 0.83566 0.0
H283 H 0.17125 0.72581 0.85216 0.0
H284 H 0.11762 0.71582 0.85636 0.0
H285 H 0.09878 0.81351 0.85601 0.0
H286 H 0.15271 0.82352 0.85061 0.0
H287 H 0.06536 0.78421 0.83945 0.0
H288 H 0.09145 0.76318 0.88308 0.0
H289 H 0.12175 0.73693 0.89936 0.0
H290 H 0.09243 0.64903 0.88543 0.0
H291 H 0.06231 0.67469 0.86898 0.0
C292 C 0.92697 0.75302 0.85191 0.0
C293 C 0.91728 0.72327 0.84863 0.0
C294 C 0.95797 0.75883 0.85384 0.0
C295 C 0.97921 0.73481 0.8528 0.0
C296 C 0.96917 0.70445 0.85107 0.0
C297 C 0.93817 0.69869 0.8489 0.0
C298 C 0.0092 0.74166 0.85318 0.0
C299 C 0.0263 0.72893 0.86294 0.0
C300 C 0.02314 0.76162 0.8444 0.0
C301 C 0.0067 0.7735 0.83308 0.0
C302 C 0.99322 0.75343 0.82513 0.0
C303 C 0.97875 0.7646 0.81438 0.0
C304 C 0.98062 0.79579 0.81133 0.0
C305 C 0.99696 0.81591 0.81903 0.0
C306 C 0.00851 0.80491 0.82982 0.0
C307 C 0.15603 0.74531 0.85351 0.0
C308 C 0.16578 0.77542 0.85091 0.0
C309 C 0.12527 0.73952 0.85595 0.0
C310 C 0.10426 0.76393 0.85654 0.0
C311 C 0.11477 0.7944 0.85551 0.0
C312 C 0.14547 0.80014 0.85256 0.0
C313 C 0.07112 0.7573 0.8562 0.0
C314 C 0.05402 0.76954 0.84622 0.0
C315 C 0.0573 0.73623 0.86453 0.0
C316 C 0.07464 0.72093 0.87476 0.0
C317 C 0.0915 0.73827 0.88347 0.0
C318 C 0.10868 0.72347 0.89273 0.0
C319 C 0.10904 0.69134 0.89342 0.0
C320 C 0.09212 0.67392 0.8849 0.0
C321 C 0.07493 0.68858 0.87562 0.0
H322 H 0.1224 0.67995 0.90057 0.0
H323 H 0.96953 0.80435 0.803 0.0
H324 H 0.57169 0.64747 0.0743 0.0
H325 H 0.5601 0.69912 0.08118 0.0
H326 H 0.55445 0.66772 0.11926 0.0
H327 H 0.56427 0.61441 0.11217 0.0
H328 H 0.50558 0.71177 0.10914 0.0
H329 H 0.61957 0.70192 0.11172 0.0
H330 H 0.66669 0.68188 0.10172 0.0
H331 H 0.64816 0.73599 0.06915 0.0
H332 H 0.60094 0.75626 0.0789 0.0
H333 H 0.50184 0.88034 0.11064 0.0
H334 H 0.51558 0.82815 0.118 0.0
H335 H 0.54307 0.8037 0.08063 0.0
H336 H 0.52824 0.85454 0.0733 0.0
H337 H 0.58634 0.7887 0.09899 0.0
H338 H 0.47975 0.78511 0.08802 0.0
H339 H 0.42573 0.80183 0.08941 0.0
H340 H 0.4208 0.76849 0.12696 0.0
H341 H 0.47542 0.75277 0.126 0.0
C342 C 0.56848 0.65151 0.08417 0.0
C343 C 0.56981 0.62743 0.09282 0.0
C344 C 0.56157 0.6809 0.08806 0.0
C345 C 0.55734 0.68702 0.10072 0.0
C346 C 0.55811 0.66309 0.10946 0.0
C347 C 0.56404 0.63305 0.10547 0.0
C348 C 0.55328 0.71907 0.1044 0.0
C349 C 0.52344 0.72879 0.10754 0.0
C350 C 0.57653 0.74073 0.10147 0.0
C351 C 0.60684 0.731 0.09616 0.0
C352 C 0.62574 0.70986 0.10249 0.0
C353 C 0.65241 0.69833 0.09683 0.0
C354 C 0.66047 0.70773 0.08482 0.0
C355 C 0.64202 0.72887 0.07848 0.0
C356 C 0.6154 0.74055 0.08411 0.0
C357 C 0.51025 0.86334 0.10409 0.0
C358 C 0.51349 0.87055 0.09145 0.0
C359 C 0.5184 0.83404 0.10827 0.0
C360 C 0.53066 0.81267 0.09983 0.0
C361 C 0.53395 0.82021 0.08724 0.0
C362 C 0.52498 0.84885 0.08304 0.0
C363 C 0.53856 0.78143 0.10361 0.0
C364 C 0.56903 0.7719 0.10164 0.0
C365 C 0.51532 0.75987 0.10657 0.0
C366 C 0.48212 0.7686 0.10708 0.0
C367 C 0.46745 0.78192 0.09668 0.0
C368 C 0.43665 0.79119 0.09738 0.0
C369 C 0.41991 0.7865 0.10831 0.0
C370 C 0.4339 0.77236 0.11854 0.0
C371 C 0.46485 0.76339 0.11794 0.0
H372 H 0.39605 0.79361 0.10883 0.0
H373 H 0.68096 0.69859 0.08043 0.0
H374 H 0.67373 0.22465 0.35052 0.0
H375 H 0.61939 0.21393 0.35403 0.0
H376 H 0.59782 0.30976 0.3479 0.0
H377 H 0.65232 0.32071 0.34419 0.0
H378 H 0.56615 0.28352 0.36704 0.0
H379 H 0.59237 0.26339 0.32494 0.0
H380 H 0.61842 0.24132 0.30663 0.0
H381 H 0.58633 0.15122 0.3166 0.0
H382 H 0.56076 0.17249 0.33519 0.0
H383 H 0.41096 0.27197 0.34953 0.0
H384 H 0.46482 0.28118 0.35341 0.0
H385 H 0.48143 0.18313 0.35499 0.0
H386 H 0.42721 0.17377 0.34984 0.0
H387 H 0.51616 0.20986 0.33812 0.0
H388 H 0.48912 0.23614 0.38122 0.0
H389 H 0.45838 0.26459 0.39675 0.0
H390 H 0.48874 0.35045 0.38121 0.0
H391 H 0.51932 0.32258 0.36551 0.0
C392 C 0.65758 0.24367 0.35036 0.0
C393 C 0.66684 0.27342 0.34687 0.0
C394 C 0.62661 0.23736 0.35214 0.0
C395 C 0.60497 0.26089 0.35072 0.0
C396 C 0.61449 0.29131 0.34872 0.0
C397 C 0.64545 0.29758 0.34675 0.0
C398 C 0.57227 0.25367 0.35122 0.0
C399 C 0.55509 0.26744 0.36073 0.0
C400 C 0.55844 0.23276 0.34279 0.0
C401 C 0.57499 0.21962 0.33173 0.0
C402 C 0.59131 0.23878 0.32343 0.0
C403 C 0.60592 0.2264 0.31293 0.0
C404 C 0.60416 0.19486 0.31048 0.0
C405 C 0.58779 0.17564 0.31853 0.0
C406 C 0.57327 0.18787 0.32907 0.0
C407 C 0.42574 0.25231 0.35125 0.0
C408 C 0.4153 0.22218 0.34929 0.0
C409 C 0.45662 0.25764 0.35349 0.0
C410 C 0.47704 0.23282 0.35458 0.0
C411 C 0.46587 0.20252 0.35413 0.0
C412 C 0.43503 0.19717 0.35134 0.0
C413 C 0.51026 0.23874 0.35432 0.0
C414 C 0.52747 0.22519 0.34465 0.0
C415 C 0.52405 0.26054 0.36234 0.0
C416 C 0.50655 0.2772 0.37217 0.0
C417 C 0.48924 0.26108 0.38111 0.0
C418 C 0.4718 0.27712 0.38994 0.0
C419 C 0.4716 0.3093 0.38997 0.0
C420 C 0.48894 0.32553 0.3812 0.0
C421 C 0.5064 0.30962 0.37236 0.0
H422 H 0.45803 0.32165 0.39679 0.0
H423 H 0.61537 0.18536 0.30234 0.0
H424 H 0.01576 0.87276 0.40261 0.0
H425 H 0.01073 0.81738 0.39974 0.0
H426 H 0.1025 0.81351 0.38437 0.0
H427 H 0.10832 0.86929 0.3879 0.0
H428 H 0.04731 0.77832 0.37224 0.0
H429 H 0.10346 0.79623 0.41027 0.0
H430 H 0.11442 0.81921 0.43076 0.0
H431 H 0.03103 0.78065 0.44543 0.0
H432 H 0.01889 0.75827 0.42494 0.0
H433 H 0.04513 0.61424 0.38477 0.0
H434 H 0.0594 0.66762 0.38074 0.0
H435 H 0.98439 0.69868 0.4023 0.0
H436 H 0.96954 0.64558 0.40627 0.0
H437 H 0.04186 0.71755 0.4113 0.0
H438 H 0.98171 0.71109 0.37487 0.0
H439 H 0.96468 0.6873 0.35525 0.0
H440 H 0.04973 0.70674 0.3387 0.0
H441 H 0.06773 0.72972 0.35842 0.0
C442 C 0.03439 0.86027 0.39817 0.0
C443 C 0.06237 0.87473 0.39539 0.0
C444 C 0.03169 0.82876 0.39676 0.0
C445 C 0.05664 0.81183 0.39222 0.0
C446 C 0.08342 0.82663 0.38811 0.0
C447 C 0.08654 0.85821 0.38994 0.0
C448 C 0.05426 0.77852 0.39211 0.0
C449 C 0.04693 0.76468 0.3807 0.0
C450 C 0.05287 0.76171 0.40341 0.0
C451 C 0.06001 0.77577 0.41586 0.0
C452 C 0.08709 0.79305 0.41776 0.0
C453 C 0.09359 0.80593 0.42943 0.0
C454 C 0.07341 0.80148 0.43939 0.0
C455 C 0.04665 0.78415 0.4377 0.0
C456 C 0.03994 0.77137 0.42604 0.0
C457 C 0.03037 0.63239 0.38827 0.0
C458 C 0.00569 0.62594 0.39633 0.0
C459 C 0.03876 0.66276 0.38606 0.0
C460 C 0.02212 0.68653 0.3917 0.0
C461 C 0.99785 0.68023 0.39824 0.0
C462 C 0.98928 0.64995 0.40036 0.0
C463 C 0.03395 0.71789 0.39148 0.0
C464 C 0.04305 0.73111 0.40283 0.0
C465 C 0.03599 0.73454 0.38027 0.0
C466 C 0.02491 0.72162 0.36824 0.0
C467 C 0.99761 0.70992 0.36713 0.0
C468 C 0.98775 0.69658 0.35597 0.0
C469 C 0.00476 0.69533 0.34575 0.0
C470 C 0.03444 0.70758 0.34665 0.0
C471 C 0.04452 0.72071 0.35783 0.0
H472 H -0.00291 0.68502 0.33712 0.0
H473 H 0.07853 0.81137 0.4484 0.0
H474 H 0.44059 0.79744 0.66748 0.0
H475 H 0.49201 0.78227 0.66174 0.0
H476 H 0.45939 0.75065 0.626 0.0
H477 H 0.40631 0.76356 0.63217 0.0
H478 H 0.50311 0.7099 0.64011 0.0
H479 H 0.49473 0.82006 0.6266 0.0
H480 H 0.47542 0.87147 0.63256 0.0
H481 H 0.53087 0.86943 0.66563 0.0
H482 H 0.55056 0.8181 0.65985 0.0
H483 H 0.66543 0.69244 0.63154 0.0
H484 H 0.61273 0.70805 0.62543 0.0
H485 H 0.60702 0.76547 0.65824 0.0
H486 H 0.65874 0.75038 0.6641 0.0
H487 H 0.5814 0.79323 0.63944 0.0
H488 H 0.58274 0.69529 0.6595 0.0
H489 H 0.59952 0.6415 0.66221 0.0
H490 H 0.55628 0.61686 0.62769 0.0
H491 H 0.53984 0.67078 0.62461 0.0
C492 C 0.44415 0.7879 0.65827 0.0
C493 C 0.41949 0.78203 0.65019 0.0
C494 C 0.47356 0.77893 0.65507 0.0
C495 C 0.47928 0.76584 0.64341 0.0
C496 C 0.45509 0.76083 0.63504 0.0
C497 C 0.4251 0.76873 0.63846 0.0
C498 C 0.51115 0.75892 0.64008 0.0
C499 C 0.52031 0.72794 0.63944 0.0
C500 C 0.53325 0.7828 0.64007 0.0
C501 C 0.5245 0.81539 0.64266 0.0
C502 C 0.5032 0.83082 0.63502 0.0
C503 C 0.49205 0.85987 0.63842 0.0
C504 C 0.50198 0.87375 0.64945 0.0
C505 C 0.52335 0.85876 0.65705 0.0
C506 C 0.53472 0.8298 0.65366 0.0
C507 C 0.6527 0.70861 0.63723 0.0
C508 C 0.66516 0.72001 0.64832 0.0
C509 C 0.62301 0.71758 0.63377 0.0
C510 C 0.60629 0.73784 0.64142 0.0
C511 C 0.61971 0.7501 0.65217 0.0
C512 C 0.64895 0.74121 0.65558 0.0
C513 C 0.57364 0.74411 0.63931 0.0
C514 C 0.56427 0.77504 0.63922 0.0
C515 C 0.55158 0.72012 0.63965 0.0
C516 C 0.56051 0.68731 0.64168 0.0
C517 C 0.57703 0.67851 0.65241 0.0
C518 C 0.5865 0.64797 0.65402 0.0
C519 C 0.57914 0.6258 0.64509 0.0
C520 C 0.5621 0.6341 0.63457 0.0
C521 C 0.55273 0.66467 0.63288 0.0
H522 H 0.5865 0.60219 0.64633 0.0
H523 H 0.49308 0.89608 0.65212 0.0
H524 H 0.5437 0.35691 0.91743 0.0
H525 H 0.53452 0.30394 0.9111 0.0
H526 H 0.58135 0.32085 0.87628 0.0
H527 H 0.58983 0.37507 0.88257 0.0
H528 H 0.52079 0.28056 0.87751 0.0
H529 H 0.62406 0.29321 0.89637 0.0
H530 H 0.65669 0.31502 0.91299 0.0
H531 H 0.60389 0.26691 0.94059 0.0
H532 H 0.57059 0.24525 0.9242 0.0
H533 H 0.52179 0.11115 0.8828 0.0
H534 H 0.53943 0.16289 0.87668 0.0
H535 H 0.51536 0.19717 0.91311 0.0
H536 H 0.49664 0.14681 0.91905 0.0
H537 H 0.57764 0.20884 0.9052 0.0
H538 H 0.47125 0.21169 0.8939 0.0
H539 H 0.42554 0.19261 0.8828 0.0
H540 H 0.46662 0.21726 0.84785 0.0
H541 H 0.51344 0.23511 0.85874 0.0
C542 C 0.55172 0.34932 0.90837 0.0
C543 C 0.56807 0.3691 0.90053 0.0
C544 C 0.54631 0.31937 0.90476 0.0
C545 C 0.55792 0.30878 0.8934 0.0
C546 C 0.57262 0.329 0.88513 0.0
C547 C 0.57764 0.35951 0.88871 0.0
C548 C 0.55699 0.27578 0.89111 0.0
C549 C 0.53403 0.26455 0.88312 0.0
C550 C 0.57336 0.25569 0.89911 0.0
C551 C 0.59482 0.26739 0.90896 0.0
C552 C 0.61939 0.28722 0.90597 0.0
C553 C 0.63798 0.29963 0.91537 0.0
C554 C 0.6324 0.29232 0.92784 0.0
C555 C 0.60827 0.27249 0.93093 0.0
C556 C 0.58959 0.26006 0.92157 0.0
C557 C 0.5194 0.13009 0.88929 0.0
C558 C 0.50781 0.12517 0.90135 0.0
C559 C 0.52987 0.15925 0.88588 0.0
C560 C 0.52928 0.18317 0.89461 0.0
C561 C 0.51637 0.17858 0.90638 0.0
C562 C 0.5051 0.14996 0.90965 0.0
C563 C 0.54122 0.21369 0.8917 0.0
C564 C 0.56593 0.22447 0.89889 0.0
C565 C 0.52494 0.23371 0.88372 0.0
C566 C 0.4964 0.22384 0.87713 0.0
C567 C 0.47095 0.21239 0.88383 0.0
C568 C 0.44476 0.20183 0.87758 0.0
C569 C 0.44328 0.20343 0.86461 0.0
C570 C 0.46793 0.21577 0.85789 0.0
C571 C 0.49439 0.22596 0.8641 0.0
H572 H 0.42296 0.19534 0.85978 0.0
H573 H 0.64675 0.30201 0.93508 0.0
H574 H 0.14651 0.17373 0.15047 0.0
H575 H 0.09299 0.18699 0.14633 0.0
H576 H 0.12137 0.27462 0.13127 0.0
H577 H 0.17491 0.26194 0.13555 0.0
H578 H 0.07871 0.27653 0.15237 0.0
H579 H 0.09067 0.22414 0.11128 0.0
H580 H 0.11006 0.17782 0.1005 0.0
H581 H 0.05118 0.12079 0.12285 0.0
H582 H 0.03144 0.16682 0.13375 0.0
H583 H 0.92794 0.32223 0.14528 0.0
H584 H 0.98147 0.31399 0.13846 0.0
H585 H 0.96929 0.21577 0.14286 0.0
H586 H 0.91634 0.22366 0.14866 0.0
H587 H 0.00287 0.22351 0.12524 0.0
H588 H 0.99486 0.26243 0.16685 0.0
H589 H 0.97755 0.29922 0.1829 0.0
H590 H 0.03105 0.3698 0.16667 0.0
H591 H 0.04843 0.33353 0.15041 0.0
C592 C 0.14144 0.19536 0.14588 0.0
C593 C 0.16463 0.21718 0.14367 0.0
C594 C 0.11094 0.20295 0.1436 0.0
C595 C 0.10362 0.232 0.13877 0.0
C596 C 0.12692 0.25232 0.13519 0.0
C597 C 0.15744 0.24479 0.13748 0.0
C598 C 0.07157 0.24191 0.13824 0.0
C599 C 0.06206 0.26563 0.14625 0.0
C600 C 0.05016 0.22618 0.13075 0.0
C601 C 0.05935 0.19896 0.12322 0.0
C602 C 0.08157 0.20175 0.11377 0.0
C603 C 0.09272 0.17554 0.10769 0.0
C604 C 0.08182 0.14638 0.11098 0.0
C605 C 0.05949 0.1434 0.12027 0.0
C606 C 0.04816 0.16956 0.12634 0.0
C607 C 0.93673 0.299 0.14437 0.0
C608 C 0.91844 0.27358 0.14748 0.0
C609 C 0.96707 0.29428 0.14054 0.0
C610 C 0.9793 0.2643 0.14038 0.0
C611 C 0.96027 0.23904 0.1428 0.0
C612 C 0.93 0.24363 0.14617 0.0
C613 C 0.00963 0.25877 0.13923 0.0
C614 C 0.01946 0.23538 0.13108 0.0
C615 C 0.03097 0.27357 0.14722 0.0
C616 C 0.02125 0.29531 0.15727 0.0
C617 C 0.00064 0.28583 0.16666 0.0
C618 C 0.99363 0.3066 0.1758 0.0
C619 C 0.00167 0.33687 0.17577 0.0
C620 C 0.02257 0.34637 0.16666 0.0
C621 C 0.03245 0.32569 0.15747 0.0
H622 H 0.99681 0.35293 0.18283 0.0
H623 H 0.09069 0.12611 0.10634 0.0
H624 H 0.05043 0.03035 0.44609 0.0
H625 H 0.05992 0.0364 0.46848 0.0
H626 H 0.08786 0.94441 0.47082 0.0
H627 H 0.07857 0.93809 0.44869 0.0
H628 H 0.03683 0.96274 0.48638 0.0
H629 H 0.14203 0.99387 0.47545 0.0
H630 H 0.17768 0.02282 0.46309 0.0
H631 H 0.13677 0.10465 0.47823 0.0
H632 H 0.10087 0.073 0.49065 0.0
H633 H 0.05911 0.96369 0.55104 0.0
H634 H 0.07281 0.95501 0.52912 0.0
H635 H 0.06624 0.04964 0.52217 0.0
H636 H 0.05401 0.05838 0.54392 0.0
H637 H 0.11069 0.02698 0.50881 0.0
H638 H 0.00474 0.00251 0.51796 0.0
H639 H 0.96549 0.97912 0.5291 0.0
H640 H 0.99888 0.89183 0.5161 0.0
H641 H 0.03855 0.91784 0.50501 0.0
C642 C 0.05918 0.01098 0.45137 0.0
C643 C 0.06341 0.98529 0.44576 0.0
C644 C 0.06466 0.01447 0.46407 0.0
C645 C 0.07429 0.99227 0.47114 0.0
C646 C 0.0803 0.96406 0.4654 0.0
C647 C 0.07507 0.96062 0.45277 0.0
C648 C 0.07516 0.99407 0.4847 0.0
C649 C 0.05329 0.97694 0.49137 0.0
C650 C 0.09608 0.0104 0.49092 0.0
C651 C 0.11881 0.02947 0.48399 0.0
C652 C 0.14075 0.01556 0.47616 0.0
C653 C 0.16095 0.03367 0.46914 0.0
C654 C 0.15948 0.06576 0.46987 0.0
C655 C 0.13793 0.07979 0.47769 0.0
C656 C 0.11773 0.06177 0.48477 0.0
C657 C 0.06093 0.98316 0.54479 0.0
C658 C 0.05519 0.00999 0.54897 0.0
C659 C 0.06889 0.97829 0.53237 0.0
C660 C 0.07016 0.00015 0.52408 0.0
C661 C 0.06563 0.03012 0.52846 0.0
C662 C 0.05836 0.03502 0.54083 0.0
C663 C 0.07246 0.99843 0.51061 0.0
C664 C 0.09469 0.01213 0.5039 0.0
C665 C 0.05109 0.97944 0.50428 0.0
C666 C 0.02509 0.9637 0.51076 0.0
C667 C 0.00319 0.98079 0.51753 0.0
C668 C 0.98209 0.96584 0.52384 0.0
C669 C 0.97958 0.9338 0.52335 0.0
C670 C -0.00192 0.91665 0.5165 0.0
C671 C 0.02208 0.93149 0.51019 0.0
H672 H 0.96109 0.92227 0.52824 0.0
H673 H 0.17503 0.07973 0.46439 0.0
H674 H 0.30859 0.72833 0.7961 0.0
H675 H 0.3173 0.73887 0.77408 0.0
H676 H 0.2562 0.81709 0.77611 0.0
H677 H 0.24681 0.80622 0.79801 0.0
H678 H 0.24148 0.77723 0.75737 0.0
H679 H 0.33355 0.82914 0.77214 0.0
H680 H 0.37958 0.8305 0.78561 0.0
H681 H 0.41582 0.75087 0.76703 0.0
H682 H 0.36996 0.74891 0.75349 0.0
H683 H 0.27138 0.7957 0.69222 0.0
H684 H 0.26734 0.80997 0.71438 0.0
H685 H 0.3294 0.73582 0.72387 0.0
H686 H 0.33366 0.72216 0.70189 0.0
H687 H 0.34331 0.78666 0.73675 0.0
H688 H 0.25351 0.72747 0.72515 0.0
H689 H 0.20677 0.71698 0.71285 0.0
H690 H 0.16519 0.7998 0.72674 0.0
H691 H 0.21211 0.81129 0.73887 0.0
C692 C 0.29743 0.74807 0.7919 0.0
C693 C 0.27672 0.76626 0.7987 0.0
C694 C 0.30251 0.75414 0.77936 0.0
C695 C 0.28752 0.77891 0.77356 0.0
C696 C 0.26788 0.79787 0.78047 0.0
C697 C 0.26248 0.79155 0.79297 0.0
C698 C 0.29035 0.78325 0.76005 0.0
C699 C 0.26358 0.78023 0.75281 0.0
C700 C 0.31943 0.78628 0.75429 0.0
C701 C 0.34828 0.78896 0.76174 0.0
C702 C 0.35142 0.81203 0.77087 0.0
C703 C 0.37746 0.81285 0.77854 0.0
C704 C 0.40061 0.79079 0.77717 0.0
C705 C 0.39791 0.76801 0.76805 0.0
C706 C 0.37196 0.76713 0.76033 0.0
C707 C 0.28341 0.7822 0.69917 0.0
C708 C 0.30179 0.75718 0.69567 0.0
C709 C 0.2816 0.79061 0.71169 0.0
C710 C 0.29811 0.77388 0.72069 0.0
C711 C 0.31666 0.74908 0.71705 0.0
C712 C 0.31856 0.74086 0.7046 0.0
C713 C 0.29443 0.78012 0.73406 0.0
C714 C 0.32104 0.78497 0.74128 0.0
C715 C 0.26526 0.77788 0.73985 0.0
C716 C 0.23664 0.77058 0.73276 0.0
C717 C 0.23457 0.74366 0.72549 0.0
C718 C 0.20802 0.73752 0.71854 0.0
C719 C 0.18308 0.7578 0.71896 0.0
C720 C 0.1846 0.78419 0.72637 0.0
C721 C 0.2112 0.79056 0.73327 0.0
H722 H 0.16255 0.753 0.71358 0.0
H723 H 0.42063 0.79134 0.78317 0.0
H724 H 0.55418 0.03006 0.0449 0.0
H725 H 0.54195 0.03707 0.02265 0.0
H726 H 0.48965 0.95576 0.02292 0.0
H727 H 0.50271 0.9478 0.04438 0.0
H728 H 0.53624 0.95661 0.00555 0.0
H729 H 0.44855 0.01637 0.01822 0.0
H730 H 0.42661 0.05819 0.03102 0.0
H731 H 0.48861 0.12291 0.01415 0.0
H732 H 0.51084 0.08146 0.00122 0.0
H733 H 0.51033 0.9676 0.94434 0.0
H734 H 0.4957 0.96113 0.96639 0.0
H735 H 0.5358 0.04669 0.97483 0.0
H736 H 0.54914 0.05342 0.95302 0.0
H737 H 0.48476 0.03965 0.98783 0.0
H738 H 0.57667 0.98307 0.97765 0.0
H739 H 0.60451 0.94332 0.96572 0.0
H740 H 0.54171 0.87435 0.97896 0.0
H741 H 0.51315 0.91386 0.99083 0.0
C742 C 0.5397 0.01338 0.04022 0.0
C743 C 0.52911 0.99019 0.04648 0.0
C744 C 0.53257 0.01746 0.0276 0.0
C745 C 0.51477 0.99843 0.02127 0.0
C746 C 0.50319 0.97311 0.02769 0.0
C747 C 0.51049 0.96888 0.04009 0.0
C748 C 0.51118 0.99922 0.00768 0.0
C749 C 0.52445 0.97518 0.00075 0.0
C750 C 0.49606 0.02045 0.00159 0.0
C751 C 0.48132 0.04581 0.00873 0.0
C752 C 0.45737 0.03956 0.01719 0.0
C753 C 0.44491 0.06319 0.02448 0.0
C754 C 0.45622 0.09319 0.0234 0.0
C755 C 0.47982 0.09967 0.01495 0.0
C756 C 0.49224 0.07615 0.00759 0.0
C757 C 0.51612 0.98534 0.95103 0.0
C758 C 0.53141 0.00903 0.94727 0.0
C759 C 0.50742 0.98194 0.96349 0.0
C760 C 0.51472 0.00194 0.97219 0.0
C761 C 0.52965 0.02878 0.96826 0.0
C762 C 0.53777 0.03235 0.95589 0.0
C763 C 0.51049 -0.00267 0.98566 0.0
C764 C 0.49573 0.02058 0.99261 0.0
C765 C 0.52478 0.97556 0.99182 0.0
C766 C 0.54254 0.95151 0.98502 0.0
C767 C 0.56872 0.95945 0.97799 0.0
C768 C 0.58461 0.93697 0.97122 0.0
C769 C 0.57482 0.90634 0.97155 0.0
C770 C 0.54921 0.89811 0.97869 0.0
C771 C 0.53315 0.92054 0.98544 0.0
H772 H 0.58712 0.88898 0.9663 0.0
H773 H 0.44671 0.11139 0.02911 0.0
H774 H 0.23058 0.21079 0.19735 0.0
H775 H 0.23913 0.20038 0.21923 0.0
H776 H 0.32937 0.24162 0.21685 0.0
H777 H 0.32137 0.25148 0.19459 0.0
H778 H 0.32757 0.189 0.23147 0.0
H779 H 0.27119 0.28292 0.22597 0.0
H780 H 0.22951 0.31717 0.21887 0.0
H781 H 0.16369 0.26463 0.23977 0.0
H782 H 0.20483 0.22952 0.24676 0.0
H783 H 0.35465 0.24085 0.29178 0.0
H784 H 0.34664 0.22994 0.26987 0.0
H785 H 0.25392 0.19939 0.27782 0.0
H786 H 0.2614 0.21268 0.29988 0.0
H787 H 0.25417 0.23973 0.26031 0.0
H788 H 0.31566 0.14831 0.26737 0.0
H789 H 0.36072 0.11961 0.2752 0.0
H790 H 0.42058 0.17402 0.25224 0.0
H791 H 0.37602 0.20322 0.24435 0.0
C792 C 0.25258 0.21705 0.20135 0.0
C793 C 0.27534 0.23204 0.1943 0.0
C794 C 0.25727 0.21126 0.21387 0.0
C795 C 0.28456 0.22076 0.21958 0.0
C796 C 0.30807 0.23434 0.2125 0.0
C797 C 0.30344 0.24006 0.19987 0.0
C798 C 0.28759 0.21803 0.23309 0.0
C799 C 0.31169 0.2001 0.23784 0.0
C800 C 0.26622 0.23226 0.24121 0.0
C801 C 0.24119 0.25313 0.23674 0.0
C802 C 0.24779 0.27829 0.2289 0.0
C803 C 0.22423 0.29796 0.22492 0.0
C804 C 0.19394 0.29301 0.22882 0.0
C805 C 0.18715 0.26838 0.23672 0.0
C806 C 0.21059 0.24855 0.24068 0.0
C807 C 0.33271 0.23141 0.28884 0.0
C808 C 0.30851 0.22767 0.29729 0.0
C809 C 0.3283 0.22471 0.27637 0.0
C810 C 0.29999 0.21301 0.27227 0.0
C811 C 0.27604 0.20812 0.28086 0.0
C812 C 0.28017 0.21584 0.29335 0.0
C813 C 0.29427 0.2106 0.25883 0.0
C814 C 0.26963 0.2278 0.254 0.0
C815 C 0.31552 0.19622 0.25067 0.0
C816 C 0.34235 0.17802 0.25526 0.0
C817 C 0.33842 0.15422 0.264 0.0
C818 C 0.36391 0.13784 0.26845 0.0
C819 C 0.39349 0.14498 0.26422 0.0
C820 C 0.39766 0.16845 0.2555 0.0
C821 C 0.37227 0.18485 0.251 0.0
H822 H 0.41317 0.13234 0.2677 0.0
H823 H 0.17578 0.30831 0.22577 0.0
H824 H 0.82678 0.21709 0.20026 0.0
H825 H 0.82386 0.23013 0.22227 0.0
H826 H 0.76909 0.31026 0.21352 0.0
H827 H 0.77407 0.29813 0.19109 0.0
H828 H 0.81267 0.31908 0.23368 0.0
H829 H 0.73262 0.24828 0.22155 0.0
H830 H 0.71428 0.20259 0.21011 0.0
H831 H 0.772 0.14449 0.23246 0.0
H832 H 0.79125 0.18984 0.24386 0.0
H833 H 0.75854 0.30706 0.29749 0.0
H834 H 0.76444 0.3149 0.2752 0.0
H835 H 0.8219 0.23403 0.27304 0.0
H836 H 0.81555 0.22566 0.29541 0.0
H837 H 0.76857 0.23257 0.2581 0.0
H838 H 0.85148 0.30168 0.26898 0.0
H839 H 0.87211 0.34605 0.28058 0.0
H840 H 0.81048 0.40649 0.26114 0.0
H841 H 0.7888 0.36232 0.24964 0.0
C842 C 0.81376 0.23722 0.20308 0.0
C843 C 0.79933 0.25588 0.19426 0.0
C844 C 0.8125 0.24492 0.21557 0.0
C845 C 0.79567 0.27073 0.21948 0.0
C846 C 0.78192 0.29011 0.21062 0.0
C847 C 0.78409 0.28284 0.19796 0.0
C848 C 0.79023 0.27473 0.23289 0.0
C849 C 0.80245 0.30059 0.23906 0.0
C850 C 0.77697 0.25031 0.23979 0.0
C851 C 0.76343 0.22262 0.23359 0.0
C852 C 0.74138 0.22577 0.22406 0.0
C853 C 0.7309 0.19992 0.21754 0.0
C854 C 0.74199 0.17066 0.22054 0.0
C855 C 0.7634 0.16717 0.23014 0.0
C856 C 0.77406 0.19295 0.23666 0.0
C857 C 0.77266 0.29113 0.29233 0.0
C858 C 0.78583 0.26525 0.29807 0.0
C859 C 0.77624 0.29584 0.27962 0.0
C860 C 0.79323 0.2748 0.27256 0.0
C861 C 0.8085 0.25033 0.27843 0.0
C862 C 0.80501 0.24569 0.29117 0.0
C863 C 0.79223 0.27617 0.25892 0.0
C864 C 0.77831 0.25138 0.25274 0.0
C865 C 0.80382 0.30155 0.25213 0.0
C866 C 0.81819 0.3285 0.25851 0.0
C867 C 0.84213 0.32437 0.26721 0.0
C868 C 0.85401 0.34951 0.2738 0.0
C869 C 0.84253 0.37906 0.27164 0.0
C870 C 0.8193 0.38356 0.26283 0.0
C871 C 0.80719 0.35846 0.25627 0.0
H872 H 0.85171 0.39847 0.27676 0.0
H873 H 0.73396 0.1507 0.21545 0.0
H874 H 0.80131 0.77561 0.70004 0.0
H875 H 0.81092 0.76469 0.72202 0.0
H876 H 0.76606 0.6765 0.71821 0.0
H877 H 0.75631 0.68729 0.69635 0.0
H878 H 0.74342 0.7121 0.73773 0.0
H879 H 0.84287 0.67718 0.72224 0.0
H880 H 0.88889 0.68438 0.70907 0.0
H881 H 0.91144 0.76709 0.72896 0.0
H882 H 0.86552 0.76046 0.74222 0.0
H883 H 0.78337 0.69084 0.80269 0.0
H884 H 0.77904 0.67832 0.78034 0.0
H885 H 0.82004 0.76611 0.7712 0.0
H886 H 0.82384 0.77858 0.79331 0.0
H887 H 0.84576 0.71695 0.75821 0.0
H888 H 0.74771 0.76026 0.77046 0.0
H889 H 0.70037 0.76203 0.78309 0.0
H890 H 0.67287 0.67409 0.76864 0.0
H891 H 0.72056 0.67138 0.75615 0.0
C892 C 0.79395 0.75372 0.70386 0.0
C893 C 0.77757 0.7325 0.6966 0.0
C894 C 0.79946 0.7475 0.71636 0.0
C895 C 0.78917 0.71977 0.72162 0.0
C896 C 0.77394 0.69806 0.71425 0.0
C897 C 0.76825 0.70437 0.7018 0.0
C898 C 0.79264 0.71441 0.735 0.0
C899 C 0.76578 0.71222 0.74225 0.0
C900 C 0.8219 0.71536 0.74071 0.0
C901 C 0.85074 0.71824 0.73327 0.0
C902 C 0.85772 0.69682 0.72385 0.0
C903 C 0.88377 0.70084 0.71635 0.0
C904 C 0.90308 0.72617 0.71818 0.0
C905 C 0.89652 0.74742 0.72758 0.0
C906 C 0.87056 0.74346 0.73513 0.0
C907 C 0.79083 0.70743 0.79579 0.0
C908 C 0.80323 0.73582 0.79939 0.0
C909 C 0.78876 0.7002 0.78317 0.0
C910 C 0.79953 0.72127 0.77427 0.0
C911 C 0.81194 0.74956 0.778 0.0
C912 C 0.81365 0.75685 0.79052 0.0
C913 C 0.79653 0.71525 0.76094 0.0
C914 C 0.82347 0.71543 0.75369 0.0
C915 C 0.76728 0.71339 0.75524 0.0
C916 C 0.7381 0.71532 0.76253 0.0
C917 C 0.7318 0.74109 0.77008 0.0
C918 C 0.70486 0.74229 0.77721 0.0
C919 C 0.6837 0.7181 0.77673 0.0
C920 C 0.68937 0.69274 0.76905 0.0
C921 C 0.71639 0.69134 0.76196 0.0
H922 H 0.66287 0.71907 0.78225 0.0
H923 H 0.92312 0.72933 0.71232 0.0
H924 H 0.57522 0.43714 0.95094 0.0
H925 H 0.58316 0.44451 0.97303 0.0
H926 H 0.55099 0.53823 0.97002 0.0
H927 H 0.54314 0.53117 0.94753 0.0
H928 H 0.60349 0.52976 0.98542 0.0
H929 H 0.50336 0.487 0.97863 0.0
H930 H 0.4639 0.4508 0.97106 0.0
H931 H 0.50498 0.37789 0.99229 0.0
H932 H 0.54527 0.41372 -0.00433 0.0
H933 H 0.55191 0.55962 0.0415 0.0
H934 H 0.56434 0.55191 0.01978 0.0
H935 H 0.58155 0.45547 0.02689 0.0
H936 H 0.56727 0.46304 0.04887 0.0
H937 H 0.54223 0.46279 0.00926 0.0
H938 H 0.64082 0.51042 0.01747 0.0
H939 H 0.67652 0.55008 0.02537 0.0
H940 H 0.63332 0.61805 0.00223 0.0
H941 H 0.59713 0.57869 0.99836 0.0
C942 C 0.57035 0.45958 0.95486 0.0
C943 C 0.55848 0.48365 0.94756 0.0
C944 C 0.57473 0.4636 0.9675 0.0
C945 C 0.56714 0.49164 0.97304 0.0
C946 C 0.55671 0.51635 0.96576 0.0
C947 C 0.55218 0.5123 0.95301 0.0
C948 C 0.56901 0.4943 0.98657 0.0
C949 C 0.59002 0.51534 0.99161 0.0
C950 C 0.55174 0.47462 0.9944 0.0
C951 C 0.52782 0.4529 0.9896 0.0
C952 C 0.50439 0.46315 0.98153 0.0
C953 C 0.48176 0.44274 0.97728 0.0
C954 C 0.482 0.41203 0.98115 0.0
C955 C 0.50488 0.40166 0.98926 0.0
C956 C 0.52767 0.42192 0.99348 0.0
C957 C 0.55867 0.5368 0.03845 0.0
C958 C 0.55842 0.51176 0.04667 0.0
C959 C 0.56636 0.53256 0.02608 0.0
C960 C 0.57474 0.50334 0.0218 0.0
C961 C 0.57548 0.47831 0.03012 0.0
C962 C 0.567 0.48246 0.04254 0.0
C963 C 0.57691 0.49831 0.00831 0.0
C964 C 0.55639 0.47682 0.00317 0.0
C965 C 0.5942 0.51802 0.00043 0.0
C966 C 0.6161 0.54164 0.0053 0.0
C967 C 0.63876 0.53384 0.01412 0.0
C968 C 0.65915 0.55625 0.01859 0.0
C969 C 0.65719 0.58656 0.01431 0.0
C970 C 0.63486 0.59456 0.00553 0.0
C971 C 0.61445 0.57227 0.00103 0.0
H972 H 0.67297 0.60384 0.01778 0.0
H973 H 0.4644 0.39632 0.97789 0.0
H974 H 0.05523 0.44855 0.54299 0.0
H975 H 0.04711 0.45675 0.52078 0.0
H976 H 0.9848 0.52919 0.5289 0.0
H977 H 0.99336 0.52109 0.55143 0.0
H978 H 0.96828 0.48289 0.50902 0.0
H979 H 0.04496 0.55262 0.52162 0.0
H980 H 0.09231 0.56752 0.53274 0.0
H981 H 0.1448 0.50437 0.51052 0.0
H982 H 0.09768 0.48835 0.4995 0.0
H983 H 0.98602 0.53797 0.44697 0.0
H984 H 0.97862 0.52928 0.46894 0.0
H985 H 0.05102 0.46436 0.46896 0.0
H986 H 0.05901 0.47343 0.44669 0.0
H987 H 0.05836 0.51369 0.48514 0.0
H988 H 0.98237 0.4414 0.47357 0.0
H989 H 0.93565 0.4254 0.46229 0.0
H990 H 0.88244 0.49236 0.4823 0.0
H991 H 0.92902 0.50943 0.49349 0.0
C992 C 0.03916 0.46615 0.53999 0.0
C993 C 0.02374 0.48457 0.54862 0.0
C994 C 0.03449 0.47074 0.5274 0.0
C995 C 0.01424 0.49371 0.52336 0.0
C996 C -0.0022 0.5115 0.532 0.0
C997 C 0.00283 0.50713 0.54471 0.0
C998 C 0.01216 0.49956 0.51001 0.0
C999 C 0.98823 0.49028 0.50372 0.0
C1000 C 0.03873 0.50864 0.50335 0.0
C1001 C 0.06751 0.51904 0.50976 0.0
C1002 C 0.0665 0.54165 0.51916 0.0
C1003 C 0.09336 0.55032 0.52546 0.0
C1004 C 0.12154 0.53685 0.52236 0.0
C1005 C 0.12295 0.51477 0.51292 0.0
C1006 C 0.09614 0.50589 0.50664 0.0
C1007 C -0.0021 0.5215 0.45148 0.0
C1008 C 0.02215 0.50697 0.44516 0.0
C1009 C 0.99624 0.51634 0.46407 0.0
C1010 C 0.01298 0.49638 0.47048 0.0
C1011 C 0.0358 0.47996 0.46405 0.0
C1012 C 0.04025 0.48508 0.45138 0.0
C1013 C 0.01205 0.49592 0.48409 0.0
C1014 C 0.03825 0.50657 0.4904 0.0
C1015 C 0.98783 0.48811 0.49072 0.0
C1016 C 0.95943 0.477 0.4843 0.0
C1017 C 0.96081 0.45296 0.47551 0.0
C1018 C 0.93431 0.44368 0.46912 0.0
C1019 C 0.90611 0.45793 0.47154 0.0
C1020 C 0.90432 0.48139 0.48041 0.0
C1021 C 0.93079 0.49088 0.48678 0.0
H1022 H 0.88564 0.45074 0.46658 0.0
H1023 H 0.14228 0.54357 0.52725 0.0
H1024 H 0.3129 0.83675 0.63585 0.0
H1025 H 0.27996 0.86957 0.62285 0.0
H1026 H 0.21545 0.8782 0.65324 0.0
H1027 H 0.24869 0.84568 0.66629 0.0
H1028 H 0.18783 0.86548 0.63045 0.0
H1029 H 0.26621 0.93145 0.6476 0.0
H1030 H 0.31903 0.94963 0.65154 0.0
H1031 H 0.33217 0.96524 0.61245 0.0
H1032 H 0.27982 0.94602 0.60818 0.0
H1033 H 0.09858 0.99165 0.60969 0.0
H1034 H 0.13181 0.9581 0.62191 0.0
H1035 H 0.19946 0.95927 0.59246 0.0
H1036 H 0.16659 0.9938 0.58028 0.0
H1037 H 0.2257 0.96555 0.61432 0.0
H1038 H 0.14591 0.90064 0.59728 0.0
H1039 H 0.09315 0.88181 0.59362 0.0
H1040 H 0.08205 0.86435 0.63268 0.0
H1041 H 0.13433 0.88401 0.63668 0.0
C1042 C 0.29178 0.846 0.63972 0.0
C1043 C 0.28328 0.83954 0.65203 0.0
C1044 C 0.27305 0.86451 0.63232 0.0
C1045 C 0.24553 0.87641 0.63717 0.0
C1046 C 0.23674 0.86928 0.64941 0.0
C1047 C 0.25571 0.85111 0.65686 0.0
C1048 C 0.22611 0.89688 0.62959 0.0
C1049 C 0.19585 0.88753 0.62698 0.0
C1050 C 0.23729 0.92521 0.62491 0.0
C1051 C 0.26905 0.93669 0.62754 0.0
C1052 C 0.28046 0.93821 0.6398 0.0
C1053 C 0.31037 0.94877 0.6421 0.0
C1054 C 0.329 0.95846 0.63225 0.0
C1055 C 0.31777 0.95761 0.62007 0.0
C1056 C 0.28799 0.94677 0.6177 0.0
C1057 C 0.12053 0.98473 0.60579 0.0
C1058 C 0.1299 0.99488 0.59395 0.0
C1059 C 0.1394 0.96548 0.61278 0.0
C1060 C 0.16766 0.95557 0.60794 0.0
C1061 C 0.17752 0.96646 0.59629 0.0
C1062 C 0.15881 0.98614 0.58935 0.0
C1063 C 0.18724 0.93424 0.61512 0.0
C1064 C 0.2176 0.94344 0.61769 0.0
C1065 C 0.17605 0.90578 0.61978 0.0
C1066 C 0.14417 0.89428 0.61731 0.0
C1067 C 0.13215 0.89324 0.60514 0.0
C1068 C 0.10226 0.88235 0.60299 0.0
C1069 C 0.08422 0.87197 0.61291 0.0
C1070 C 0.09601 0.87248 0.625 0.0
C1071 C 0.12576 0.88357 0.62721 0.0
H1072 H 0.06116 0.86346 0.61122 0.0
H1073 H 0.35209 0.96674 0.63406 0.0
H1074 H 0.26579 0.83721 0.86011 0.0
H1075 H 0.30024 0.86839 0.87314 0.0
H1076 H 0.3629 0.87799 0.84215 0.0
H1077 H 0.32838 0.84666 0.82917 0.0
H1078 H 0.39258 0.86474 0.86391 0.0
H1079 H 0.31129 0.93169 0.84958 0.0
H1080 H 0.25792 0.9499 0.84713 0.0
H1081 H 0.24989 0.96094 0.88669 0.0
H1082 H 0.30281 0.94167 0.88946 0.0
H1083 H 0.48189 0.99064 0.8862 0.0
H1084 H 0.44875 0.95759 0.87364 0.0
H1085 H 0.38371 0.95225 0.90396 0.0
H1086 H 0.41636 0.98614 0.91647 0.0
H1087 H 0.35569 0.96242 0.88259 0.0
H1088 H 0.43764 0.89636 0.89697 0.0
H1089 H 0.49135 0.87907 0.89934 0.0
H1090 H 0.49875 0.86687 0.85981 0.0
H1091 H 0.44544 0.8851 0.85712 0.0
C1092 C 0.2868 0.84639 0.85613 0.0
C1093 C 0.29445 0.8405 0.84368 0.0
C1094 C 0.30643 0.86394 0.86353 0.0
C1095 C 0.33386 0.87571 0.85852 0.0
C1096 C 0.34172 0.86919 0.84612 0.0
C1097 C 0.32199 0.85174 0.8387 0.0
C1098 C 0.35406 0.89552 0.86609 0.0
C1099 C 0.38473 0.88626 0.86794 0.0
C1100 C 0.34322 0.92322 0.87148 0.0
C1101 C 0.31108 0.93466 0.86975 0.0
C1102 C 0.29806 0.93748 0.85779 0.0
C1103 C 0.26783 0.94805 0.85634 0.0
C1104 C 0.25047 0.95646 0.86675 0.0
C1105 C 0.2633 0.9543 0.87864 0.0
C1106 C 0.2934 0.94345 0.88015 0.0
C1107 C 0.46057 0.98232 0.89021 0.0
C1108 C 0.45176 0.99065 0.90235 0.0
C1109 C 0.44174 0.9634 0.88303 0.0
C1110 C 0.41415 0.95202 0.88798 0.0
C1111 C 0.40507 0.9607 0.90002 0.0
C1112 C 0.42368 0.98001 0.90715 0.0
C1113 C 0.39422 0.9316 0.88053 0.0
C1114 C 0.36359 0.94081 0.87865 0.0
C1115 C 0.40515 0.90388 0.87513 0.0
C1116 C 0.43742 0.89263 0.87682 0.0
C1117 C 0.45076 0.89042 0.88875 0.0
C1118 C 0.48121 0.88041 0.89015 0.0
C1119 C 0.4985 0.87199 0.87973 0.0
C1120 C 0.48538 0.8735 0.86788 0.0
C1121 C 0.45504 0.88375 0.86641 0.0
H1122 H 0.52202 0.8642 0.88084 0.0
H1123 H 0.22714 0.96474 0.8656 0.0
H1124 H 0.42708 0.97377 0.09726 0.0
H1125 H 0.39159 0.00318 0.1089 0.0
H1126 H 0.46039 0.07482 0.11059 0.0
H1127 H 0.49652 0.04185 0.09912 0.0
H1128 H 0.42752 0.06968 0.13213 0.0
H1129 H 0.40676 0.07465 0.08811 0.0
H1130 H 0.39498 0.05385 0.0673 0.0
H1131 H 0.30945 0.0175 0.08088 0.0
H1132 H 0.32095 0.0375 0.10187 0.0
H1133 H 0.33111 0.19413 0.14458 0.0
H1134 H 0.36416 0.16134 0.13186 0.0
H1135 H 0.29917 0.08673 0.13543 0.0
H1136 H 0.26586 0.11944 0.14831 0.0
H1137 H 0.32899 0.09383 0.11075 0.0
H1138 H 0.35071 0.08678 0.15476 0.0
H1139 H 0.36165 0.10852 0.17549 0.0
H1140 H 0.44526 0.1486 0.16165 0.0
H1141 H 0.43439 0.12783 0.14071 0.0
C1142 C 0.43471 0.99636 0.10023 0.0
C1143 C 0.46417 0.00418 0.09706 0.0
C1144 C 0.41448 0.01173 0.10685 0.0
C1145 C 0.42312 0.04165 0.11021 0.0
C1146 C 0.45327 0.05186 0.10789 0.0
C1147 C 0.47383 0.0331 0.10137 0.0
C1148 C 0.40016 0.06267 0.11562 0.0
C1149 C 0.40616 0.07528 0.1274 0.0
C1150 C 0.37204 0.06928 0.10942 0.0
C1151 C 0.36493 0.05737 0.09668 0.0
C1152 C 0.38556 0.06198 0.08672 0.0
C1153 C 0.37891 0.05034 0.07487 0.0
C1154 C 0.35152 0.03429 0.07277 0.0
C1155 C 0.33069 0.02989 0.08252 0.0
C1156 C 0.33727 0.04139 0.0944 0.0
C1157 C 0.32374 0.17081 0.14259 0.0
C1158 C 0.29639 0.15896 0.14767 0.0
C1159 C 0.34248 0.15227 0.13525 0.0
C1160 C 0.33406 0.12172 0.13285 0.0
C1161 C 0.3059 0.11032 0.13726 0.0
C1162 C 0.28725 0.12879 0.14475 0.0
C1163 C 0.35655 0.10072 0.12719 0.0
C1164 C 0.35041 0.08816 0.11541 0.0
C1165 C 0.38455 0.09404 0.13336 0.0
C1166 C 0.39151 0.10603 0.14607 0.0
C1167 C 0.37126 0.10052 0.15608 0.0
C1168 C 0.37746 0.11266 0.16788 0.0
C1169 C 0.40408 0.13002 0.16988 0.0
C1170 C 0.4246 0.13521 0.16008 0.0
C1171 C 0.41841 0.12328 0.14823 0.0
H1172 H 0.40887 0.13935 0.17902 0.0
H1173 H 0.34641 0.02533 0.0636 0.0
H1174 H 0.10245 0.04202 0.40101 0.0
H1175 H 0.13452 0.07483 0.38787 0.0
H1176 H 0.19083 -0.00372 0.3783 0.0
H1177 H 0.15952 0.96689 0.39203 0.0
H1178 H 0.22428 0.04068 0.38701 0.0
H1179 H 0.14377 0.03621 0.35548 0.0
H1180 H 0.09128 0.04102 0.34686 0.0
H1181 H 0.08752 0.1354 0.35861 0.0
H1182 H 0.13997 0.13119 0.36729 0.0
H1183 H 0.31128 0.11357 0.33906 0.0
H1184 H 0.27928 0.08131 0.35255 0.0
H1185 H 0.23138 0.16196 0.36575 0.0
H1186 H 0.26287 0.19431 0.35237 0.0
H1187 H 0.19344 0.11821 0.35555 0.0
H1188 H 0.2718 0.12399 0.38692 0.0
H1189 H 0.32347 0.12084 0.39641 0.0
H1190 H 0.33022 0.02581 0.38577 0.0
H1191 H 0.27861 0.02839 0.3762 0.0
C1192 C 0.12166 0.03188 0.39604 0.0
C1193 C 0.1293 0.0008 0.39768 0.0
C1194 C 0.13958 0.05045 0.38839 0.0
C1195 C 0.1648 0.03788 0.38202 0.0
C1196 C 0.17144 0.00634 0.38318 0.0
C1197 C 0.15389 0.99108 0.39109 0.0
C1198 C 0.18694 0.05839 0.37582 0.0
C1199 C 0.21768 0.05715 0.37989 0.0
C1200 C 0.17778 0.08097 0.36707 0.0
C1201 C 0.14577 0.08325 0.36216 0.0
C1202 C 0.13166 0.0579 0.35633 0.0
C1203 C 0.10195 0.06058 0.35138 0.0
C1204 C 0.08604 0.08847 0.35222 0.0
C1205 C 0.09984 0.1138 0.35797 0.0
C1206 C 0.1296 0.1113 0.36288 0.0
C1207 C 0.29402 0.12441 0.34487 0.0
C1208 C 0.28917 0.15635 0.34446 0.0
C1209 C 0.27613 0.10605 0.35269 0.0
C1210 C 0.25322 0.11944 0.36013 0.0
C1211 C 0.24908 0.15136 0.36008 0.0
C1212 C 0.26696 0.1697 0.35233 0.0
C1213 C 0.23075 0.09981 0.36652 0.0
C1214 C 0.19996 0.10148 0.36257 0.0
C1215 C 0.23975 0.07777 0.37544 0.0
C1216 C 0.27145 0.07652 0.38068 0.0
C1217 C 0.28446 0.10253 0.38646 0.0
C1218 C 0.31367 0.10079 0.39192 0.0
C1219 C 0.33016 0.07317 0.39166 0.0
C1220 C 0.31745 0.04721 0.38595 0.0
C1221 C 0.28819 0.04878 0.38053 0.0
H1222 H 0.35274 0.07188 0.39589 0.0
H1223 H 0.06307 0.09047 0.34839 0.0
H1224 H 0.92912 0.99474 0.40104 0.0
H1225 H 0.89903 0.03313 0.39199 0.0
H1226 H 0.97203 0.05208 0.36579 0.0
H1227 H 0.00019 0.01093 0.37517 0.0
H1228 H 0.94857 0.10508 0.37716 0.0
H1229 H 0.91017 0.01791 0.35488 0.0
H1230 H 0.89315 0.96694 0.35368 0.0
H1231 H 0.81657 0.98713 0.3776 0.0
H1232 H 0.83331 0.03817 0.37906 0.0
H1233 H 0.83958 0.19245 0.34045 0.0
H1234 H 0.88132 0.16238 0.34975 0.0
H1235 H 0.81868 0.12944 0.37801 0.0
H1236 H 0.77671 0.15933 0.36852 0.0
H1237 H 0.84174 0.08437 0.36307 0.0
H1238 H 0.88533 0.16841 0.38795 0.0
H1239 H 0.90772 0.21943 0.39227 0.0
H1240 H 0.97532 0.20525 0.36365 0.0
H1241 H 0.95367 0.15372 0.35937 0.0
C1242 C 0.93853 0.00409 0.39318 0.0
C1243 C 0.96818 -0.00198 0.38871 0.0
C1244 C 0.92145 0.02795 0.38809 0.0
C1245 C 0.93337 0.04539 0.37821 0.0
C1246 C 0.96264 0.03883 0.37345 0.0
C1247 C 0.98002 0.0152 0.37869 0.0
C1248 C 0.91465 0.07031 0.37295 0.0
C1249 C 0.9254 0.10073 0.37381 0.0
C1250 C 0.88453 0.06423 0.36871 0.0
C1251 C 0.87301 0.03217 0.36707 0.0
C1252 C 0.88964 0.01085 0.35985 0.0
C1253 C 0.88007 0.98328 0.35915 0.0
C1254 C 0.85382 0.97359 0.36557 0.0
C1255 C 0.83687 0.99468 0.37261 0.0
C1256 C 0.84634 0.02229 0.37334 0.0
C1257 C 0.83508 0.17916 0.3488 0.0
C1258 C 0.80526 0.17728 0.35372 0.0
C1259 C 0.85892 0.16248 0.35419 0.0
C1260 C 0.853 0.14383 0.36455 0.0
C1261 C 0.82356 0.14386 0.37002 0.0
C1262 C 0.79965 0.16051 0.36458 0.0
C1263 C 0.87499 0.11948 0.36783 0.0
C1264 C 0.86497 0.08895 0.36631 0.0
C1265 C 0.90581 0.12562 0.3713 0.0
C1266 C 0.91762 0.15737 0.37324 0.0
C1267 C 0.90472 0.17634 0.38247 0.0
C1268 C 0.91744 0.20529 0.38497 0.0
C1269 C 0.94285 0.21573 0.37817 0.0
C1270 C 0.95562 0.19718 0.36889 0.0
C1271 C 0.94324 0.16803 0.36647 0.0
H1272 H 0.95276 0.23807 0.38014 0.0
H1273 H 0.8466 0.94977 0.36508 0.0
H1274 H 0.61435 0.9985 0.12887 0.0
H1275 H 0.63796 0.04537 0.13304 0.0
H1276 H 0.63276 0.06801 0.09398 0.0
H1277 H 0.60874 0.01799 0.08978 0.0
H1278 H 0.69149 0.0684 0.10354 0.0
H1279 H 0.59422 0.11539 0.11474 0.0
H1280 H 0.54394 0.11637 0.12546 0.0
H1281 H 0.58926 0.10739 0.16079 0.0
H1282 H 0.63982 0.10644 0.15029 0.0
H1283 H 0.78635 0.19119 0.11351 0.0
H1284 H 0.73657 0.1681 0.10838 0.0
H1285 H 0.72621 0.13835 0.14651 0.0
H1286 H 0.77529 0.1633 0.1518 0.0
H1287 H 0.66996 0.14762 0.1357 0.0
H1288 H 0.76289 0.09314 0.12667 0.0
H1289 H 0.81505 0.08593 0.11808 0.0
H1290 H 0.78022 0.09954 0.08109 0.0
H1291 H 0.72785 0.1074 0.08948 0.0
C1292 C 0.61784 0.01123 0.12121 0.0
C1293 C 0.61032 0.00274 0.10899 0.0
C1294 C 0.63085 0.03996 0.12362 0.0
C1295 C 0.63688 0.06048 0.11383 0.0
C1296 C 0.628 0.0526 0.10167 0.0
C1297 C 0.61449 0.02402 0.09929 0.0
C1298 C 0.65746 0.08702 0.11606 0.0
C1299 C 0.68641 0.08637 0.11026 0.0
C1300 C 0.65123 0.10939 0.12531 0.0
C1301 C 0.62085 0.11083 0.13171 0.0
C1302 C 0.59347 0.11362 0.1248 0.0
C1303 C 0.56491 0.11421 0.13084 0.0
C1304 C 0.5634 0.11193 0.1438 0.0
C1305 C 0.59046 0.10923 0.15075 0.0
C1306 C 0.61909 0.10883 0.14476 0.0
C1307 C 0.77302 0.18032 0.12082 0.0
C1308 C 0.78469 0.17806 0.13293 0.0
C1309 C 0.74459 0.16735 0.11793 0.0
C1310 C 0.7282 0.15075 0.12698 0.0
C1311 C 0.73859 0.15089 0.13937 0.0
C1312 C 0.76668 0.16481 0.14235 0.0
C1313 C 0.70378 0.12906 0.12305 0.0
C1314 C 0.67454 0.13032 0.12866 0.0
C1315 C 0.70996 0.10639 0.11388 0.0
C1316 C 0.74144 0.10128 0.10873 0.0
C1317 C 0.76636 0.09485 0.11671 0.0
C1318 C 0.79598 0.09062 0.11187 0.0
C1319 C 0.80097 0.09238 0.09905 0.0
C1320 C 0.77632 0.09827 0.09103 0.0
C1321 C 0.74666 0.10262 0.09582 0.0
H1322 H 0.82389 0.08909 0.09532 0.0
H1323 H 0.54129 0.11226 0.14845 0.0
H1324 H 0.81078 0.85601 0.86531 0.0
H1325 H 0.76696 0.88436 0.87414 0.0
H1326 H 0.70441 0.81575 0.85981 0.0
H1327 H 0.74788 0.78701 0.85131 0.0
H1328 H 0.69229 0.87821 0.85255 0.0
H1329 H 0.70578 0.81711 0.88867 0.0
H1330 H 0.73543 0.79074 0.90509 0.0
H1331 H 0.76694 0.8779 0.91897 0.0
H1332 H 0.73772 0.90484 0.90256 0.0
H1333 H 0.57516 0.97318 0.88118 0.0
H1334 H 0.60523 0.92931 0.87385 0.0
H1335 H 0.68774 0.97032 0.8889 0.0
H1336 H 0.6579 0.0109 0.89647 0.0
H1337 H 0.67973 0.91052 0.89655 0.0
H1338 H 0.67204 0.97011 0.85822 0.0
H1339 H 0.64491 0.99564 0.84091 0.0
H1340 H 0.6038 0.90962 0.83038 0.0
H1341 H 0.63021 0.88362 0.84779 0.0
C1342 C 0.78772 0.84682 0.86429 0.0
C1343 C 0.78256 0.81941 0.85779 0.0
C1344 C 0.76285 0.86281 0.86934 0.0
C1345 C 0.73271 0.85181 0.86765 0.0
C1346 C 0.72759 0.82425 0.86128 0.0
C1347 C 0.75243 0.80793 0.8565 0.0
C1348 C 0.7066 0.87089 0.87153 0.0
C1349 C 0.68881 0.88482 0.86219 0.0
C1350 C 0.70254 0.87911 0.88412 0.0
C1351 C 0.71956 0.86307 0.89431 0.0
C1352 C 0.71911 0.8307 0.89519 0.0
C1353 C 0.73584 0.81562 0.90451 0.0
C1354 C 0.7531 0.83263 0.91306 0.0
C1355 C 0.75353 0.86475 0.91235 0.0
C1356 C 0.7368 0.87995 0.90305 0.0
C1357 C 0.59982 0.97319 0.88271 0.0
C1358 C 0.61416 0.99693 0.8895 0.0
C1359 C 0.61688 0.94803 0.87856 0.0
C1360 C 0.64854 0.94653 0.88098 0.0
C1361 C 0.66319 0.97099 0.88711 0.0
C1362 C 0.64615 0.99607 0.89132 0.0
C1363 C 0.66658 0.91918 0.87747 0.0
C1364 C 0.68256 0.90344 0.88693 0.0
C1365 C 0.66889 0.9092 0.86496 0.0
C1366 C 0.65273 0.92497 0.8545 0.0
C1367 C 0.65689 0.95667 0.85233 0.0
C1368 C 0.6417 0.97123 0.84247 0.0
C1369 C 0.62252 0.9543 0.83458 0.0
C1370 C 0.61856 0.92275 0.83652 0.0
C1371 C 0.63363 0.90809 0.8464 0.0
H1372 H 0.61083 0.96561 0.82695 0.0
H1373 H 0.76609 0.82094 0.92024 0.0
H1374 H 0.77142 0.85659 0.63354 0.0
H1375 H 0.81504 0.88496 0.62459 0.0
H1376 H 0.87681 0.81214 0.63568 0.0
H1377 H 0.8333 0.78335 0.64427 0.0
H1378 H 0.89266 0.87288 0.64416 0.0
H1379 H 0.87146 0.81877 0.6067 0.0
H1380 H 0.83966 0.79664 0.5899 0.0
H1381 H 0.8096 0.88711 0.57941 0.0
H1382 H 0.84098 0.90983 0.5962 0.0
H1383 H 0.00576 0.96732 0.61446 0.0
H1384 H 0.97774 0.92417 0.62188 0.0
H1385 H 0.89491 0.97104 0.61032 0.0
H1386 H 0.92566 0.01093 0.60259 0.0
H1387 H 0.89944 0.91232 0.60091 0.0
H1388 H 0.91539 0.96508 0.6404 0.0
H1389 H 0.94745 0.98714 0.6571 0.0
H1390 H 0.98737 0.8984 0.66406 0.0
H1391 H 0.95598 0.87586 0.6472 0.0
C1392 C 0.79423 0.84651 0.63382 0.0
C1393 C 0.79915 0.81787 0.63942 0.0
C1394 C 0.819 0.86253 0.6287 0.0
C1395 C 0.84891 0.85034 0.62943 0.0
C1396 C 0.8538 0.82161 0.63494 0.0
C1397 C 0.82897 0.80526 0.63977 0.0
C1398 C 0.87511 0.86924 0.62543 0.0
C1399 C 0.89479 0.88104 0.63466 0.0
C1400 C 0.87748 0.8796 0.61302 0.0
C1401 C 0.85853 0.86604 0.6028 0.0
C1402 C 0.85792 0.83397 0.60087 0.0
C1403 C 0.84001 0.82131 0.59132 0.0
C1404 C 0.82258 0.84045 0.58361 0.0
C1405 C 0.82312 0.8723 0.58539 0.0
C1406 C 0.84105 0.8851 0.59491 0.0
C1407 C 0.98375 0.96874 0.61371 0.0
C1408 C 0.96945 0.99388 0.6078 0.0
C1409 C 0.96624 0.94403 0.61794 0.0
C1410 C 0.93421 0.94442 0.6165 0.0
C1411 C 0.91973 0.97032 0.61135 0.0
C1412 C 0.93722 0.99497 0.60705 0.0
C1413 C 0.91565 0.91733 0.6198 0.0
C1414 C 0.89778 0.90372 0.61037 0.0
C1415 C 0.91501 0.90532 0.63204 0.0
C1416 C 0.93359 0.91882 0.64237 0.0
C1417 C 0.93121 0.95028 0.64539 0.0
C1418 C 0.94926 0.96289 0.65491 0.0
C1419 C 0.96954 0.94422 0.6616 0.0
C1420 C 0.97172 0.91286 0.65883 0.0
C1421 C 0.9538 0.90016 0.64929 0.0
H1422 H 0.98347 0.95402 0.66896 0.0
H1423 H 0.80871 0.83061 0.57624 0.0
H1424 H 0.73995 0.30134 0.14971 0.0
H1425 H 0.70763 0.33809 0.13843 0.0
H1426 H 0.78908 0.38455 0.12496 0.0
H1427 H 0.8213 0.34876 0.13688 0.0
H1428 H 0.75063 0.42466 0.13452 0.0
H1429 H 0.74055 0.34194 0.10444 0.0
H1430 H 0.73076 0.28828 0.09796 0.0
H1431 H 0.64013 0.29254 0.11384 0.0
H1432 H 0.64938 0.34624 0.1204 0.0
H1433 H 0.67626 0.51125 0.08641 0.0
H1434 H 0.70815 0.47872 0.09983 0.0
H1435 H 0.62649 0.44198 0.11722 0.0
H1436 H 0.59449 0.47404 0.10393 0.0
H1437 H 0.66391 0.39799 0.10647 0.0
H1438 H 0.67337 0.48176 0.13566 0.0
H1439 H 0.68326 0.53546 0.14203 0.0
H1440 H 0.77503 0.52977 0.12736 0.0
H1441 H 0.76571 0.476 0.12091 0.0
C1442 C 0.75078 0.31907 0.14412 0.0
C1443 C 0.78279 0.32262 0.14411 0.0
C1444 C 0.73242 0.33996 0.13766 0.0
C1445 C 0.746 0.36397 0.13082 0.0
C1446 C 0.77819 0.36633 0.13026 0.0
C1447 C 0.7965 0.34591 0.13698 0.0
C1448 C 0.72657 0.3879 0.12504 0.0
C1449 C 0.73197 0.41892 0.12822 0.0
C1450 C 0.70166 0.3802 0.11716 0.0
C1451 C 0.69576 0.34806 0.11299 0.0
C1452 C 0.71856 0.3314 0.10657 0.0
C1453 C 0.71309 0.301 0.10287 0.0
C1454 C 0.68487 0.28698 0.10552 0.0
C1455 C 0.66198 0.30342 0.11179 0.0
C1456 C 0.66728 0.33389 0.11546 0.0
C1457 C 0.66513 0.49643 0.09316 0.0
C1458 C 0.63288 0.49474 0.09391 0.0
C1459 C 0.68335 0.47821 0.10092 0.0
C1460 C 0.66953 0.45812 0.10949 0.0
C1461 C 0.63746 0.45743 0.11065 0.0
C1462 C 0.61927 0.47562 0.10296 0.0
C1463 C 0.68819 0.43466 0.11583 0.0
C1464 C 0.68258 0.40371 0.11278 0.0
C1465 C 0.71292 0.4425 0.12375 0.0
C1466 C 0.71874 0.47486 0.12771 0.0
C1467 C 0.69561 0.49199 0.13373 0.0
C1468 C 0.70115 0.52243 0.13739 0.0
C1469 C 0.72973 0.53606 0.13507 0.0
C1470 C 0.7529 0.5192 0.12915 0.0
C1471 C 0.74754 0.48869 0.12554 0.0
H1472 H 0.73393 0.55963 0.13787 0.0
H1473 H 0.68073 0.26342 0.10269 0.0
H1474 H 0.84109 0.31685 0.33731 0.0
H1475 H 0.87407 0.35043 0.34982 0.0
H1476 H 0.79331 0.39198 0.3663 0.0
H1477 H 0.76038 0.35939 0.35321 0.0
H1478 H 0.82935 0.43439 0.35839 0.0
H1479 H 0.84587 0.34698 0.38515 0.0
H1480 H 0.85977 0.29503 0.39258 0.0
H1481 H 0.94793 0.30238 0.37475 0.0
H1482 H 0.93463 0.35446 0.36726 0.0
H1483 H 0.90895 0.50883 0.40795 0.0
H1484 H 0.87618 0.47897 0.39397 0.0
H1485 H 0.95601 0.45093 0.37291 0.0
H1486 H 0.98903 0.48039 0.38682 0.0
H1487 H 0.92153 0.40312 0.38249 0.0
H1488 H 0.90379 0.49461 0.3577 0.0
H1489 H 0.89046 0.54925 0.35438 0.0
H1490 H 0.80261 0.5348 0.37176 0.0
H1491 H 0.81538 0.48006 0.37515 0.0
C1492 C 0.8306 0.33324 0.34363 0.0
C1493 C 0.79857 0.33641 0.34421 0.0
C1494 C 0.84932 0.35201 0.35089 0.0
C1495 C 0.83611 0.37349 0.35906 0.0
C1496 C 0.80391 0.37565 0.35999 0.0
C1497 C 0.78519 0.35735 0.3525 0.0
C1498 C 0.85582 0.39604 0.36548 0.0
C1499 C 0.84922 0.42751 0.36384 0.0
C1500 C 0.88227 0.38705 0.37225 0.0
C1501 C 0.88908 0.3545 0.37553 0.0
C1502 C 0.868 0.33731 0.38263 0.0
C1503 C 0.87587 0.30795 0.38693 0.0
C1504 C 0.90471 0.29549 0.38415 0.0
C1505 C 0.92561 0.31212 0.37691 0.0
C1506 C 0.91794 0.34157 0.37265 0.0
C1507 C 0.91951 0.4965 0.4003 0.0
C1508 C 0.95159 0.4965 0.39863 0.0
C1509 C 0.90074 0.47986 0.39223 0.0
C1510 C 0.9138 0.46317 0.38239 0.0
C1511 C 0.94565 0.46394 0.38044 0.0
C1512 C 0.96443 0.48051 0.38848 0.0
C1513 C 0.89486 0.44114 0.37546 0.0
C1514 C 0.90171 0.40983 0.37696 0.0
C1515 C 0.86842 0.45028 0.3688 0.0
C1516 C 0.86065 0.48325 0.36675 0.0
C1517 C 0.88169 0.50312 0.36086 0.0
C1518 C 0.87419 0.5341 0.35894 0.0
C1519 C 0.84573 0.54551 0.36288 0.0
C1520 C 0.82464 0.52594 0.3687 0.0
C1521 C 0.83195 0.49491 0.37058 0.0
H1522 H 0.84001 0.56949 0.36141 0.0
H1523 H 0.9109 0.27308 0.38768 0.0
H1524 H 0.90831 0.47835 0.58875 0.0
H1525 H 0.87542 0.51108 0.60172 0.0
H1526 H 0.95589 0.55431 0.61751 0.0
H1527 H 0.98881 0.5219 0.60482 0.0
H1528 H 0.90879 0.54562 0.63487 0.0
H1529 H 0.92625 0.58889 0.59414 0.0
H1530 H 0.9287 0.58533 0.57124 0.0
H1531 H 0.83202 0.565 0.56988 0.0
H1532 H 0.82906 0.5681 0.59282 0.0
H1533 H 0.84215 0.68693 0.65346 0.0
H1534 H 0.87478 0.65482 0.64004 0.0
H1535 H 0.79587 0.5994 0.63031 0.0
H1536 H 0.76342 0.63075 0.64402 0.0
H1537 H 0.84331 0.616 0.60975 0.0
H1538 H 0.82852 0.57123 0.65148 0.0
H1539 H 0.82824 0.57711 0.67431 0.0
H1540 H 0.92359 0.60314 0.6736 0.0
H1541 H 0.92426 0.598 0.65069 0.0
C1542 C 0.91894 0.49468 0.59504 0.0
C1543 C 0.95106 0.49808 0.59554 0.0
C1544 C 0.90021 0.5131 0.60249 0.0
C1545 C 0.91345 0.53517 0.6104 0.0
C1546 C 0.94542 0.53733 0.61145 0.0
C1547 C 0.96411 0.51898 0.60407 0.0
C1548 C 0.89421 0.5586 0.61638 0.0
C1549 C 0.89459 0.56111 0.62941 0.0
C1550 C 0.87619 0.57892 0.60911 0.0
C1551 C 0.87745 0.57861 0.59523 0.0
C1552 C 0.9055 0.58364 0.58897 0.0
C1553 C 0.907 0.58167 0.57598 0.0
C1554 C 0.88054 0.57489 0.56911 0.0
C1555 C 0.8525 0.57026 0.57522 0.0
C1556 C 0.85088 0.57219 0.58822 0.0
C1557 C 0.83193 0.6679 0.64841 0.0
C1558 C 0.80075 0.66045 0.64996 0.0
C1559 C 0.85035 0.64998 0.64068 0.0
C1560 C 0.83746 0.62501 0.63426 0.0
C1561 C 0.80594 0.61876 0.6352 0.0
C1562 C 0.78769 0.63618 0.64317 0.0
C1563 C 0.8575 0.60252 0.6282 0.0
C1564 C 0.85747 0.60041 0.61517 0.0
C1565 C 0.87622 0.58287 0.63546 0.0
C1566 C 0.87637 0.58445 0.64933 0.0
C1567 C 0.8494 0.57836 0.65617 0.0
C1568 C 0.84915 0.58158 0.66913 0.0
C1569 C 0.87586 0.59057 0.67541 0.0
C1570 C 0.9029 0.59621 0.66873 0.0
C1571 C 0.90323 0.59312 0.65575 0.0
H1572 H 0.87562 0.5931 0.68543 0.0
H1573 H 0.88175 0.57328 0.55907 0.0
H1574 H 0.74494 0.68697 0.8425 0.0
H1575 H 0.7131 0.65511 0.8561 0.0
H1576 H 0.79334 0.60207 0.86642 0.0
H1577 H 0.82489 0.63304 0.85219 0.0
H1578 H 0.75055 0.5664 0.85836 0.0
H1579 H 0.75077 0.64889 0.889 0.0
H1580 H 0.74416 0.70158 0.89723 0.0
H1581 H 0.65059 0.70273 0.88437 0.0
H1582 H 0.65658 0.65007 0.8761 0.0
H1583 H 0.67587 0.48106 0.90613 0.0
H1584 H 0.70832 0.51305 0.89279 0.0
H1585 H 0.62755 0.5578 0.87798 0.0
H1586 H 0.59491 0.52619 0.89125 0.0
H1587 H 0.6697 0.5976 0.88838 0.0
H1588 H 0.66866 0.51662 0.85788 0.0
H1589 H 0.67376 0.46389 0.84956 0.0
H1590 H 0.7677 0.46049 0.86194 0.0
H1591 H 0.76316 0.51319 0.87034 0.0
C1592 C 0.75561 0.66843 0.84769 0.0
C1593 C 0.78687 0.66154 0.84611 0.0
C1594 C 0.73762 0.6507 0.85564 0.0
C1595 C 0.75093 0.62645 0.86237 0.0
C1596 C 0.78267 0.62066 0.86126 0.0
C1597 C 0.80051 0.63793 0.85305 0.0
C1598 C 0.73099 0.60416 0.86881 0.0
C1599 C 0.73336 0.57314 0.86517 0.0
C1600 C 0.70757 0.61335 0.8772 0.0
C1601 C 0.70427 0.64556 0.8818 0.0
C1602 C 0.72888 0.66048 0.88782 0.0
C1603 C 0.72518 0.6903 0.89255 0.0
C1604 C 0.69701 0.70553 0.89129 0.0
C1605 C 0.67242 0.69094 0.88533 0.0
C1606 C 0.67592 0.66106 0.88066 0.0
C1607 C 0.66502 0.49758 0.89999 0.0
C1608 C 0.63293 0.50154 0.89993 0.0
C1609 C 0.68352 0.51549 0.89226 0.0
C1610 C 0.67015 0.53755 0.88442 0.0
C1611 C 0.63812 0.54077 0.88398 0.0
C1612 C 0.61961 0.52283 0.89164 0.0
C1613 C 0.68979 0.56004 0.87806 0.0
C1614 C 0.68715 0.59102 0.88166 0.0
C1615 C 0.71288 0.55091 0.86961 0.0
C1616 C 0.71544 0.51879 0.86488 0.0
C1617 C 0.69031 0.50452 0.85895 0.0
C1618 C 0.69315 0.47468 0.85416 0.0
C1619 C 0.72101 0.45881 0.85526 0.0
C1620 C 0.74612 0.47279 0.86111 0.0
C1621 C 0.74344 0.50268 0.86585 0.0
H1622 H 0.72315 0.43573 0.85155 0.0
H1623 H 0.69423 0.7286 0.89494 0.0
H1624 H 0.50918 0.53067 0.8843 0.0
H1625 H 0.47831 0.57247 0.87547 0.0
H1626 H 0.39599 0.53086 0.89043 0.0
H1627 H 0.42651 0.48913 0.89928 0.0
H1628 H 0.39255 0.54669 0.86534 0.0
H1629 H 0.42943 0.58998 0.90488 0.0
H1630 H 0.46876 0.60921 0.91951 0.0
H1631 H 0.499 0.67525 0.89242 0.0
H1632 H 0.46009 0.65616 0.87755 0.0
H1633 H 0.26802 0.64493 0.86565 0.0
H1634 H 0.31049 0.61295 0.87331 0.0
H1635 H 0.3762 0.67841 0.85884 0.0
H1636 H 0.33414 0.71104 0.85178 0.0
H1637 H 0.3963 0.65476 0.88025 0.0
H1638 H 0.3578 0.61461 0.84134 0.0
H1639 H 0.31782 0.5966 0.82671 0.0
H1640 H 0.29163 0.52548 0.85236 0.0
H1641 H 0.33134 0.5431 0.86715 0.0
C1642 C 0.48443 0.53024 0.88556 0.0
C1643 C 0.47007 0.50663 0.89241 0.0
C1644 C 0.467 0.55428 0.88064 0.0
C1645 C 0.4351 0.55472 0.88245 0.0
C1646 C 0.42071 0.53081 0.88902 0.0
C1647 C 0.43807 0.50697 0.89401 0.0
C1648 C 0.41594 0.57923 0.87717 0.0
C1649 C 0.3933 0.57035 0.86859 0.0
C1650 C 0.41811 0.61028 0.88109 0.0
C1651 C 0.44208 0.62123 0.88999 0.0
C1652 C 0.44472 0.6083 0.90196 0.0
C1653 C 0.46688 0.61928 0.91033 0.0
C1654 C 0.48646 0.64335 0.90688 0.0
C1655 C 0.48389 0.65654 0.89507 0.0
C1656 C 0.46177 0.64564 0.88666 0.0
C1657 C 0.29153 0.65268 0.86436 0.0
C1658 C 0.29788 0.68022 0.8581 0.0
C1659 C 0.3157 0.63444 0.86865 0.0
C1660 C 0.34639 0.64307 0.86632 0.0
C1661 C 0.35269 0.67136 0.86067 0.0
C1662 C 0.3286 0.68993 0.85666 0.0
C1663 C 0.37171 0.6216 0.86905 0.0
C1664 C 0.39584 0.63123 0.87687 0.0
C1665 C 0.37119 0.59116 0.8644 0.0
C1666 C 0.34751 0.58028 0.85539 0.0
C1667 C 0.34346 0.59518 0.84387 0.0
C1668 C 0.32086 0.58502 0.83554 0.0
C1669 C 0.30217 0.55993 0.8386 0.0
C1670 C 0.30613 0.54488 0.84998 0.0
C1671 C 0.32875 0.55489 0.85833 0.0
H1672 H 0.28466 0.55215 0.83216 0.0
H1673 H 0.50353 0.65184 0.91337 0.0
H1674 H 0.15344 0.49401 0.5939 0.0
H1675 H 0.18386 0.53624 0.60225 0.0
H1676 H 0.10832 0.56277 0.62606 0.0
H1677 H 0.07715 0.52072 0.61747 0.0
H1678 H 0.13707 0.61326 0.6137 0.0
H1679 H 0.16481 0.52762 0.63949 0.0
H1680 H 0.17885 0.47341 0.64332 0.0
H1681 H 0.26138 0.48494 0.62182 0.0
H1682 H 0.24768 0.53914 0.61774 0.0
H1683 H 0.24556 0.70125 0.65103 0.0
H1684 H 0.20347 0.67051 0.64228 0.0
H1685 H 0.26722 0.62881 0.61643 0.0
H1686 H 0.30948 0.6592 0.62541 0.0
H1687 H 0.23878 0.58811 0.63213 0.0
H1688 H 0.20945 0.675 0.60623 0.0
H1689 H 0.19401 0.72884 0.60247 0.0
H1690 H 0.1135 0.71602 0.62507 0.0
H1691 H 0.12861 0.66217 0.6291 0.0
C1692 C 0.1434 0.50847 0.60104 0.0
C1693 C 0.11304 0.50403 0.6051 0.0
C1694 C 0.16069 0.53273 0.60572 0.0
C1695 C 0.1482 0.55246 0.61474 0.0
C1696 C 0.11812 0.54781 0.61903 0.0
C1697 C 0.1006 0.52364 0.61424 0.0
C1698 C 0.16753 0.5771 0.6199 0.0
C1699 C 0.15912 0.60801 0.61794 0.0
C1700 C 0.19613 0.56983 0.62539 0.0
C1701 C 0.20515 0.5375 0.62828 0.0
C1702 C 0.18594 0.5186 0.63556 0.0
C1703 C 0.19383 0.48785 0.63777 0.0
C1704 C 0.22097 0.47573 0.6328 0.0
C1705 C 0.24037 0.49437 0.62567 0.0
C1706 C 0.2326 0.52515 0.62344 0.0
C1707 C 0.25023 0.68594 0.64328 0.0
C1708 C 0.28033 0.68205 0.63884 0.0
C1709 C 0.22627 0.66872 0.63825 0.0
C1710 C 0.23234 0.64763 0.6287 0.0
C1711 C 0.26224 0.64516 0.62378 0.0
C1712 C 0.28626 0.66225 0.62889 0.0
C1713 C 0.20916 0.62439 0.62542 0.0
C1714 C 0.2167 0.59361 0.62795 0.0
C1715 C 0.17973 0.63204 0.62066 0.0
C1716 C 0.1704 0.66449 0.61809 0.0
C1717 C 0.18858 0.68368 0.6105 0.0
C1718 C 0.17985 0.71422 0.60829 0.0
C1719 C 0.15285 0.72589 0.61356 0.0
C1720 C 0.13444 0.70698 0.621 0.0
C1721 C 0.14306 0.67641 0.62323 0.0
H1722 H 0.14616 0.74952 0.61186 0.0
H1723 H 0.22699 0.45191 0.63449 0.0
H1724 H 0.07279 0.45951 0.38898 0.0
H1725 H 0.10305 0.41655 0.38073 0.0
H1726 H 0.18372 0.47452 0.37985 0.0
H1727 H 0.15377 0.51742 0.38838 0.0
H1728 H 0.17199 0.43963 0.3577 0.0
H1729 H 0.174 0.42837 0.40313 0.0
H1730 H 0.15243 0.41881 0.42401 0.0
H1731 H 0.11674 0.3318 0.41173 0.0
H1732 H 0.13769 0.34104 0.3907 0.0
H1733 H 0.30962 0.36101 0.3554 0.0
H1734 H 0.2667 0.39248 0.3628 0.0
H1735 H 0.20919 0.31164 0.36507 0.0
H1736 H 0.25207 0.27989 0.35809 0.0
H1737 H 0.19894 0.35006 0.38422 0.0
H1738 H 0.20134 0.35787 0.3397 0.0
H1739 H 0.22485 0.36571 0.31901 0.0
H1740 H 0.25222 0.45706 0.32951 0.0
H1741 H 0.22899 0.44977 0.35026 0.0
C1742 C 0.09689 0.46321 0.38682 0.0
C1743 C 0.11108 0.49176 0.3892 0.0
C1744 C 0.11408 0.43861 0.38224 0.0
C1745 C 0.14549 0.4425 0.37981 0.0
C1746 C 0.15943 0.47126 0.38174 0.0
C1747 C 0.1424 0.49568 0.38656 0.0
C1748 C 0.16432 0.41681 0.37524 0.0
C1749 C 0.17791 0.41998 0.36346 0.0
C1750 C 0.17074 0.39061 0.38265 0.0
C1751 C 0.15693 0.38573 0.39521 0.0
C1752 C 0.16109 0.40745 0.40479 0.0
C1753 C 0.1491 0.402 0.41669 0.0
C1754 C 0.13309 0.37479 0.41919 0.0
C1755 C 0.12903 0.35294 0.40978 0.0
C1756 C 0.14094 0.35829 0.39786 0.0
C1757 C 0.28803 0.34989 0.35771 0.0
C1758 C 0.28404 0.31814 0.35598 0.0
C1759 C 0.26349 0.36787 0.36181 0.0
C1760 C 0.23463 0.35438 0.36406 0.0
C1761 C 0.23121 0.32243 0.3632 0.0
C1762 C 0.2558 0.30438 0.35925 0.0
C1763 C 0.20794 0.37392 0.367 0.0
C1764 C 0.1925 0.36931 0.37833 0.0
C1765 C 0.19955 0.39869 0.35915 0.0
C1766 C 0.21347 0.4032 0.34659 0.0
C1767 C 0.21248 0.37959 0.33762 0.0
C1768 C 0.22571 0.38396 0.32587 0.0
C1769 C 0.24004 0.41185 0.32295 0.0
C1770 C 0.24108 0.43547 0.33177 0.0
C1771 C 0.22779 0.43127 0.34352 0.0
H1772 H 0.25032 0.41516 0.31387 0.0
H1773 H 0.12394 0.37058 0.42841 0.0
H1774 H 0.43415 0.51738 0.11028 0.0
H1775 H 0.40485 0.47397 0.11887 0.0
H1776 H 0.47792 0.41168 0.10853 0.0
H1777 H 0.50762 0.45495 0.10029 0.0
H1778 H 0.41719 0.39584 0.09967 0.0
H1779 H 0.47032 0.41802 0.13726 0.0
H1780 H 0.4921 0.45088 0.15378 0.0
H1781 H 0.40137 0.48144 0.16371 0.0
H1782 H 0.37901 0.44905 0.14715 0.0
H1783 H 0.32037 0.28181 0.12973 0.0
H1784 H 0.36382 0.31178 0.12201 0.0
H1785 H 0.31826 0.39562 0.13323 0.0
H1786 H 0.27495 0.3658 0.14128 0.0
H1787 H 0.37639 0.3905 0.14274 0.0
H1788 H 0.32462 0.37327 0.10309 0.0
H1789 H 0.30328 0.34132 0.08619 0.0
H1790 H 0.39241 0.30175 0.0797 0.0
H1791 H 0.41423 0.333 0.09675 0.0
C1792 C 0.4441 0.49451 0.1101 0.0
C1793 C 0.47309 0.48941 0.10481 0.0
C1794 C 0.42751 0.46985 0.11499 0.0
C1795 C 0.43951 0.43986 0.11436 0.0
C1796 C 0.46858 0.43476 0.10917 0.0
C1797 C 0.48547 0.45948 0.10456 0.0
C1798 C 0.42034 0.41385 0.11834 0.0
C1799 C 0.40869 0.394 0.10914 0.0
C1800 C 0.40963 0.41185 0.13071 0.0
C1801 C 0.42295 0.43112 0.14087 0.0
C1802 C 0.45498 0.43186 0.14291 0.0
C1803 C 0.46745 0.45039 0.1523 0.0
C1804 C 0.44814 0.46827 0.15978 0.0
C1805 C 0.41631 0.46756 0.15791 0.0
C1806 C 0.40372 0.44904 0.14854 0.0
C1807 C 0.31927 0.30668 0.13033 0.0
C1808 C 0.29444 0.32153 0.13626 0.0
C1809 C 0.34416 0.3237 0.12593 0.0
C1810 C 0.34426 0.35577 0.12719 0.0
C1811 C 0.31861 0.37077 0.13233 0.0
C1812 C 0.29383 0.35377 0.13684 0.0
C1813 C 0.37173 0.37383 0.1239 0.0
C1814 C 0.38527 0.39181 0.13332 0.0
C1815 C 0.38419 0.37399 0.11172 0.0
C1816 C 0.37101 0.3552 0.10139 0.0
C1817 C 0.33965 0.3575 0.09818 0.0
C1818 C 0.32746 0.33954 0.08854 0.0
C1819 C 0.34644 0.31941 0.08192 0.0
C1820 C 0.37769 0.31727 0.08488 0.0
C1821 C 0.38998 0.3351 0.09454 0.0
H1822 H 0.33697 0.30556 0.07446 0.0
H1823 H 0.45783 0.48264 0.16702 0.0
loop_
_geom_bond_atom_site_label_1
_geom_bond_atom_site_label_2
_geom_bond_distance
_geom_bond_site_symmetry_2
_ccdc_geom_bond_type
Mg0 O1 2.028 . S
Mg0 O7 1.986 . S
Mg0 O9 2.114 . S
Mg0 O10 2.251 . S
Mg0 O13 2.010 . S
O1 Mg0 2.028 . S
O1 C4 1.250 . S
O2 Mg3 2.028 . S
O2 C4 1.248 . S
Mg3 O2 2.028 . S
Mg3 O8 2.032 . S
Mg3 O10 2.079 . S
C4 O1 1.250 . S
C4 O2 1.248 . S
C5 O6 1.264 . S
C5 O13 1.249 1_655 S
O6 C5 1.264 . S
O7 Mg0 1.986 . S
O7 C11 1.246 . S
O8 Mg3 2.032 . S
O8 C11 1.259 . S
O9 Mg0 2.114 . S
O9 C12 1.252 . S
O10 Mg0 2.251 . S
O10 Mg3 2.079 . S
O10 C12 1.273 . S
C11 O7 1.246 . S
C11 O8 1.259 . S
C12 O9 1.252 . S
C12 O10 1.273 . S
O13 Mg0 2.010 . S
O13 C5 1.249 1_455 S
Mg14 O15 2.028 . S
Mg14 O21 1.986 . S
Mg14 O23 2.114 . S
Mg14 O24 2.251 . S
Mg14 O27 2.010 . S
O15 Mg14 2.028 . S
O15 C18 1.250 . S
O16 Mg17 2.028 . S
O16 C18 1.248 . S
Mg17 O16 2.028 . S
Mg17 O22 2.032 . S
Mg17 O24 2.079 . S
C18 O15 1.250 . S
C18 O16 1.248 . S
C19 O20 1.264 . S
C19 O27 1.249 . S
O20 C19 1.264 . S
O21 Mg14 1.986 . S
O21 C25 1.246 . S
O22 Mg17 2.032 . S
O22 C25 1.259 . S
O23 Mg14 2.114 . S
O23 C26 1.252 . S
O24 Mg14 2.251 . S
O24 Mg17 2.079 . S
O24 C26 1.273 . S
C25 O21 1.246 . S
C25 O22 1.259 . S
C26 O23 1.252 . S
C26 O24 1.273 . S
O27 Mg14 2.010 . S
O27 C19 1.249 . S
Mg28 O29 2.028 . S
Mg28 O35 1.986 . S
Mg28 O37 2.114 . S
Mg28 O38 2.251 . S
Mg28 O41 2.010 . S
O29 Mg28 2.028 . S
O29 C32 1.250 . S
O30 Mg31 2.028 . S
O30 C32 1.248 . S
Mg31 O30 2.028 . S
Mg31 O36 2.032 . S
Mg31 O38 2.079 . S
C32 O29 1.250 . S
C32 O30 1.248 . S
C33 O34 1.264 . S
C33 O41 1.249 . S
O34 C33 1.264 . S
O35 Mg28 1.986 . S
O35 C39 1.246 . S
O36 Mg31 2.032 . S
O36 C39 1.259 . S
O37 Mg28 2.114 . S
O37 C40 1.252 . S
O38 Mg28 2.251 . S
O38 Mg31 2.079 . S
O38 C40 1.273 . S
C39 O35 1.246 . S
C39 O36 1.259 . S
C40 O37 1.252 . S
C40 O38 1.273 . S
O41 Mg28 2.010 . S
O41 C33 1.249 . S
Mg42 O43 2.028 . S
Mg42 O49 1.986 . S
Mg42 O51 2.114 . S
Mg42 O52 2.251 . S
Mg42 O55 2.010 . S
O43 Mg42 2.028 . S
O43 C46 1.250 . S
O44 Mg45 2.028 . S
O44 C46 1.248 . S
Mg45 O44 2.028 . S
Mg45 O50 2.032 . S
Mg45 O52 2.079 . S
C46 O43 1.250 . S
C46 O44 1.248 . S
C47 O48 1.264 . S
C47 O55 1.249 . S
O48 C47 1.264 . S
O49 Mg42 1.986 . S
O49 C53 1.246 . S
O50 Mg45 2.032 . S
O50 C53 1.259 . S
O51 Mg42 2.114 . S
O51 C54 1.252 . S
O52 Mg42 2.251 . S
O52 Mg45 2.079 . S
O52 C54 1.273 . S
C53 O49 1.246 . S
C53 O50 1.259 . S
C54 O51 1.252 . S
C54 O52 1.273 . S
O55 Mg42 2.010 . S
O55 C47 1.249 . S
Mg56 O57 2.028 . S
Mg56 O63 1.986 . S
Mg56 O65 2.114 . S
Mg56 O66 2.251 . S
Mg56 O69 2.010 . S
O57 Mg56 2.028 . S
O57 C60 1.250 . S
O58 Mg59 2.028 . S
O58 C60 1.248 . S
Mg59 O58 2.028 . S
Mg59 O64 2.032 . S
Mg59 O66 2.079 . S
C60 O57 1.250 . S
C60 O58 1.248 . S
C61 O62 1.264 . S
C61 O69 1.249 1_655 S
O62 C61 1.264 . S
O63 Mg56 1.986 . S
O63 C67 1.246 . S
O64 Mg59 2.032 . S
O64 C67 1.259 . S
O65 Mg56 2.114 . S
O65 C68 1.252 . S
O66 Mg56 2.251 . S
O66 Mg59 2.079 . S
O66 C68 1.273 . S
C67 O63 1.246 . S
C67 O64 1.259 . S
C68 O65 1.252 . S
C68 O66 1.273 . S
O69 Mg56 2.010 . S
O69 C61 1.249 1_455 S
Mg70 O71 2.028 . S
Mg70 O77 1.986 . S
Mg70 O79 2.114 . S
Mg70 O80 2.251 . S
Mg70 O83 2.010 . S
O71 Mg70 2.028 . S
O71 C74 1.250 . S
O72 Mg73 2.028 . S
O72 C74 1.248 . S
Mg73 O72 2.028 . S
Mg73 O78 2.032 . S
Mg73 O80 2.079 . S
C74 O71 1.250 . S
C74 O72 1.248 . S
C75 O76 1.264 . S
C75 O83 1.249 . S
O76 C75 1.264 . S
O77 Mg70 1.986 . S
O77 C81 1.246 . S
O78 Mg73 2.032 . S
O78 C81 1.259 . S
O79 Mg70 2.114 . S
O79 C82 1.252 . S
O80 Mg70 2.251 . S
O80 Mg73 2.079 . S
O80 C82 1.273 . S
C81 O77 1.246 . S
C81 O78 1.259 . S
C82 O79 1.252 . S
C82 O80 1.273 . S
O83 Mg70 2.010 . S
O83 C75 1.249 . S
Mg84 O85 2.028 . S
Mg84 O91 1.986 . S
Mg84 O93 2.114 . S
Mg84 O94 2.251 . S
Mg84 O97 2.010 . S
O85 Mg84 2.028 . S
O85 C88 1.250 . S
O86 Mg87 2.028 . S
O86 C88 1.248 . S
Mg87 O86 2.028 . S
Mg87 O92 2.032 . S
Mg87 O94 2.079 . S
C88 O85 1.250 . S
C88 O86 1.248 . S
C89 O90 1.264 . S
C89 O97 1.249 . S
O90 C89 1.264 . S
O91 Mg84 1.986 . S
O91 C95 1.246 . S
O92 Mg87 2.032 . S
O92 C95 1.259 . S
O93 Mg84 2.114 . S
O93 C96 1.252 . S
O94 Mg84 2.251 . S
O94 Mg87 2.079 . S
O94 C96 1.273 . S
C95 O91 1.246 . S
C95 O92 1.259 . S
C96 O93 1.252 . S
C96 O94 1.273 . S
O97 Mg84 2.010 . S
O97 C89 1.249 . S
Mg98 O99 2.028 . S
Mg98 O105 1.986 . S
Mg98 O107 2.114 . S
Mg98 O108 2.251 . S
Mg98 O111 2.010 . S
O99 Mg98 2.028 . S
O99 C102 1.250 . S
O100 Mg101 2.028 . S
O100 C102 1.248 . S
Mg101 O100 2.028 . S
Mg101 O106 2.032 . S
Mg101 O108 2.079 . S
C102 O99 1.250 . S
C102 O100 1.248 . S
C103 O104 1.264 . S
C103 O111 1.249 . S
O104 C103 1.264 . S
O105 Mg98 1.986 . S
O105 C109 1.246 . S
O106 Mg101 2.032 . S
O106 C109 1.259 . S
O107 Mg98 2.114 . S
O107 C110 1.252 . S
O108 Mg98 2.251 . S
O108 Mg101 2.079 . S
O108 C110 1.273 . S
C109 O105 1.246 . S
C109 O106 1.259 . S
C110 O107 1.252 . S
C110 O108 1.273 . S
O111 Mg98 2.010 . S
O111 C103 1.249 . S
Mg112 O113 2.028 . S
Mg112 O119 1.986 . S
Mg112 O121 2.114 . S
Mg112 O122 2.251 . S
Mg112 O125 2.010 . S
O113 Mg112 2.028 . S
O113 C116 1.250 . S
O114 Mg115 2.028 . S
O114 C116 1.248 . S
Mg115 O114 2.028 . S
Mg115 O120 2.032 . S
Mg115 O122 2.079 . S
C116 O113 1.250 . S
C116 O114 1.248 . S
C117 O118 1.264 . S
C117 O125 1.249 . S
O118 C117 1.264 . S
O119 Mg112 1.986 . S
O119 C123 1.246 . S
O120 Mg115 2.032 . S
O120 C123 1.259 . S
O121 Mg112 2.114 . S
O121 C124 1.252 . S
O122 Mg112 2.251 . S
O122 Mg115 2.079 . S
O122 C124 1.273 . S
C123 O119 1.246 . S
C123 O120 1.259 . S
C124 O121 1.252 . S
C124 O122 1.273 . S
O125 Mg112 2.010 . S
O125 C117 1.249 . S
Mg126 O127 2.028 . S
Mg126 O133 1.986 . S
Mg126 O135 2.114 . S
Mg126 O136 2.251 . S
Mg126 O139 2.010 . S
O127 Mg126 2.028 . S
O127 C130 1.250 . S
O128 Mg129 2.028 . S
O128 C130 1.248 . S
Mg129 O128 2.028 . S
Mg129 O134 2.032 . S
Mg129 O136 2.079 . S
C130 O127 1.250 . S
C130 O128 1.248 . S
C131 O132 1.264 . S
C131 O139 1.249 . S
O132 C131 1.264 . S
O133 Mg126 1.986 . S
O133 C137 1.246 . S
O134 Mg129 2.032 . S
O134 C137 1.259 . S
O135 Mg126 2.114 . S
O135 C138 1.252 . S
O136 Mg126 2.251 . S
O136 Mg129 2.079 . S
O136 C138 1.273 . S
C137 O133 1.246 . S
C137 O134 1.259 . S
C138 O135 1.252 . S
C138 O136 1.273 . S
O139 Mg126 2.010 . S
O139 C131 1.249 . S
Mg140 O141 2.028 . S
Mg140 O147 1.986 . S
Mg140 O149 2.114 . S
Mg140 O150 2.251 . S
Mg140 O153 2.010 . S
O141 Mg140 2.028 . S
O141 C144 1.250 . S
O142 Mg143 2.028 . S
O142 C144 1.248 . S
Mg143 O142 2.028 . S
Mg143 O148 2.032 . S
Mg143 O150 2.079 . S
C144 O141 1.250 . S
C144 O142 1.248 . S
C145 O146 1.264 . S
C145 O153 1.249 . S
O146 C145 1.264 . S
O147 Mg140 1.986 . S
O147 C151 1.246 . S
O148 Mg143 2.032 . S
O148 C151 1.259 . S
O149 Mg140 2.114 . S
O149 C152 1.252 . S
O150 Mg140 2.251 . S
O150 Mg143 2.079 . S
O150 C152 1.273 . S
C151 O147 1.246 . S
C151 O148 1.259 . S
C152 O149 1.252 . S
C152 O150 1.273 . S
O153 Mg140 2.010 . S
O153 C145 1.249 . S
Mg154 O155 2.028 . S
Mg154 O161 1.986 . S
Mg154 O163 2.114 . S
Mg154 O164 2.251 . S
Mg154 O167 2.010 . S
O155 Mg154 2.028 . S
O155 C158 1.250 . S
O156 Mg157 2.028 . S
O156 C158 1.248 . S
Mg157 O156 2.028 . S
Mg157 O162 2.032 . S
Mg157 O164 2.079 . S
C158 O155 1.250 . S
C158 O156 1.248 . S
C159 O160 1.264 . S
C159 O167 1.249 . S
O160 C159 1.264 . S
O161 Mg154 1.986 . S
O161 C165 1.246 . S
O162 Mg157 2.032 . S
O162 C165 1.259 . S
O163 Mg154 2.114 . S
O163 C166 1.252 . S
O164 Mg154 2.251 . S
O164 Mg157 2.079 . S
O164 C166 1.273 . S
C165 O161 1.246 . S
C165 O162 1.259 . S
C166 O163 1.252 . S
C166 O164 1.273 . S
O167 Mg154 2.010 . S
O167 C159 1.249 . S
Mg168 O169 2.028 . S
Mg168 O175 1.986 . S
Mg168 O177 2.114 . S
Mg168 O178 2.251 . S
Mg168 O181 2.010 . S
O169 Mg168 2.028 . S
O169 C172 1.250 . S
O170 Mg171 2.028 . S
O170 C172 1.248 . S
Mg171 O170 2.028 . S
Mg171 O176 2.032 . S
Mg171 O178 2.079 . S
C172 O169 1.250 . S
C172 O170 1.248 . S
C173 O174 1.264 . S
C173 O181 1.249 . S
O174 C173 1.264 . S
O175 Mg168 1.986 . S
O175 C179 1.246 . S
O176 Mg171 2.032 . S
O176 C179 1.259 . S
O177 Mg168 2.114 . S
O177 C180 1.252 . S
O178 Mg168 2.251 . S
O178 Mg171 2.079 . S
O178 C180 1.273 . S
C179 O175 1.246 . S
C179 O176 1.259 . S
C180 O177 1.252 . S
C180 O178 1.273 . S
O181 Mg168 2.010 . S
O181 C173 1.249 . S
Mg182 O183 2.028 . S
Mg182 O189 1.986 . S
Mg182 O191 2.114 . S
Mg182 O192 2.251 . S
Mg182 O195 2.010 . S
O183 Mg182 2.028 . S
O183 C186 1.250 1_455 S
O184 Mg185 2.028 . S
O184 C186 1.248 . S
Mg185 O184 2.028 . S
Mg185 O190 2.032 . S
Mg185 O192 2.079 1_655 S
C186 O183 1.250 1_655 S
C186 O184 1.248 . S
C187 O188 1.264 . S
C187 O195 1.249 . S
O188 C187 1.264 . S
O189 Mg182 1.986 . S
O189 C193 1.246 . S
O190 Mg185 2.032 . S
O190 C193 1.259 1_655 S
O191 Mg182 2.114 . S
O191 C194 1.252 . S
O192 Mg182 2.251 . S
O192 Mg185 2.079 1_455 S
O192 C194 1.273 . S
C193 O189 1.246 . S
C193 O190 1.259 1_455 S
C194 O191 1.252 . S
C194 O192 1.273 . S
O195 Mg182 2.010 . S
O195 C187 1.249 . S
Mg196 O197 2.028 . S
Mg196 O203 1.986 . S
Mg196 O205 2.114 . S
Mg196 O206 2.251 . S
Mg196 O209 2.010 . S
O197 Mg196 2.028 . S
O197 C200 1.250 . S
O198 Mg199 2.028 . S
O198 C200 1.248 . S
Mg199 O198 2.028 . S
Mg199 O204 2.032 . S
Mg199 O206 2.079 . S
C200 O197 1.250 . S
C200 O198 1.248 . S
C201 O202 1.264 . S
C201 O209 1.249 . S
O202 C201 1.264 . S
O203 Mg196 1.986 . S
O203 C207 1.246 . S
O204 Mg199 2.032 . S
O204 C207 1.259 . S
O205 Mg196 2.114 . S
O205 C208 1.252 . S
O206 Mg196 2.251 . S
O206 Mg199 2.079 . S
O206 C208 1.273 . S
C207 O203 1.246 . S
C207 O204 1.259 . S
C208 O205 1.252 . S
C208 O206 1.273 . S
O209 Mg196 2.010 . S
O209 C201 1.249 . S
Mg210 O211 2.028 . S
Mg210 O217 1.986 . S
Mg210 O219 2.114 . S
Mg210 O220 2.251 . S
Mg210 O223 2.010 . S
O211 Mg210 2.028 . S
O211 C214 1.250 1_455 S
O212 Mg213 2.028 . S
O212 C214 1.248 . S
Mg213 O212 2.028 . S
Mg213 O218 2.032 . S
Mg213 O220 2.079 1_655 S
C214 O211 1.250 1_655 S
C214 O212 1.248 . S
C215 O216 1.264 . S
C215 O223 1.249 . S
O216 C215 1.264 . S
O217 Mg210 1.986 . S
O217 C221 1.246 . S
O218 Mg213 2.032 . S
O218 C221 1.259 1_655 S
O219 Mg210 2.114 . S
O219 C222 1.252 . S
O220 Mg210 2.251 . S
O220 Mg213 2.079 1_455 S
O220 C222 1.273 . S
C221 O217 1.246 . S
C221 O218 1.259 1_455 S
C222 O219 1.252 . S
C222 O220 1.273 . S
O223 Mg210 2.010 . S
O223 C215 1.249 . S
H224 C242 0.951 . S
H225 C244 0.951 . S
H226 C246 0.950 . S
H227 C247 0.950 . S
H228 C249 0.950 . S
H229 C252 0.950 . S
H230 C253 0.950 . S
H231 C255 0.950 . S
H232 C256 0.950 . S
H233 C257 0.951 . S
H234 C259 0.951 . S
H235 C261 0.950 1_655 S
H236 C262 0.915 1_655 S
H237 C264 0.950 . S
H238 C267 0.950 . S
H239 C268 0.950 . S
H240 C270 0.950 . S
H241 C271 0.950 . S
C242 H224 0.951 . S
C242 C243 1.366 . S
C242 C244 1.388 . S
C243 C242 1.366 . S
C243 C247 1.385 . S
C244 H225 0.951 . S
C244 C242 1.388 . S
C244 C245 1.366 . S
C245 C244 1.366 . S
C245 C246 1.414 . S
C245 C248 1.499 . S
C246 H226 0.950 . S
C246 C245 1.414 . S
C246 C247 1.374 . S
C247 H227 0.950 . S
C247 C243 1.385 . S
C247 C246 1.374 . S
C248 C245 1.499 . S
C248 C249 1.373 . S
C248 C250 1.389 . S
C249 H228 0.950 . S
C249 C248 1.373 . S
C249 C265 1.377 . S
C250 C248 1.389 . S
C250 C251 1.524 . S
C250 C264 1.377 . S
C251 C250 1.524 . S
C251 C252 1.397 . S
C251 C256 1.363 1_455 S
C252 H229 0.950 . S
C252 C251 1.397 . S
C252 C253 1.334 . S
C253 H230 0.950 . S
C253 C252 1.334 . S
C253 C254 1.287 1_455 S
C254 C253 1.287 1_655 S
C254 C255 1.524 . S
C254 H273 0.913 . S
C255 H231 0.950 . S
C255 C254 1.524 . S
C255 C256 1.415 . S
C256 H232 0.950 . S
C256 C251 1.363 1_655 S
C256 C255 1.415 . S
C257 H233 0.951 . S
C257 C258 1.366 . S
C257 C259 1.388 . S
C258 C257 1.366 . S
C258 C262 1.415 . S
C259 H234 0.951 . S
C259 C257 1.388 . S
C259 C260 1.366 . S
C260 C259 1.366 . S
C260 C261 1.414 . S
C260 C263 1.499 . S
C261 H235 0.950 1_455 S
C261 C260 1.414 . S
C261 C262 1.379 . S
C262 H236 0.915 1_455 S
C262 C258 1.415 . S
C262 C261 1.379 . S
C263 C260 1.499 . S
C263 C264 1.373 . S
C263 C265 1.389 . S
C264 H237 0.950 . S
C264 C250 1.377 . S
C264 C263 1.373 . S
C265 C249 1.377 . S
C265 C263 1.389 . S
C265 C266 1.524 . S
C266 C265 1.524 . S
C266 C267 1.397 . S
C266 C271 1.363 . S
C267 H238 0.950 . S
C267 C266 1.397 . S
C267 C268 1.334 . S
C268 H239 0.950 . S
C268 C267 1.334 . S
C268 C269 1.287 . S
C269 C268 1.287 . S
C269 C270 1.524 . S
C269 H272 0.999 . S
C270 H240 0.950 . S
C270 C269 1.524 . S
C270 C271 1.415 . S
C271 H241 0.950 . S
C271 C266 1.363 . S
C271 C270 1.415 . S
H272 C269 0.999 . S
H273 C254 0.913 . S
H274 C292 0.951 . S
H275 C294 0.951 . S
H276 C296 0.950 . S
H277 C297 0.950 . S
H278 C299 0.950 . S
H279 C302 0.950 . S
H280 C303 0.950 . S
H281 C305 0.949 1_455 S
H282 C306 0.950 . S
H283 C307 0.951 . S
H284 C309 0.951 . S
H285 C311 0.950 . S
H286 C312 0.950 . S
H287 C314 0.950 . S
H288 C317 0.950 . S
H289 C318 0.950 . S
H290 C320 0.950 . S
H291 C321 0.950 . S
C292 H274 0.951 . S
C292 C293 1.366 . S
C292 C294 1.388 . S
C293 C292 1.366 . S
C293 C297 1.385 . S
C294 H275 0.951 . S
C294 C292 1.388 . S
C294 C295 1.366 . S
C295 C294 1.366 . S
C295 C296 1.414 . S
C295 C298 1.499 1_655 S
C296 H276 0.950 . S
C296 C295 1.414 . S
C296 C297 1.374 . S
C297 H277 0.950 . S
C297 C293 1.385 . S
C297 C296 1.374 . S
C298 C295 1.499 1_455 S
C298 C299 1.373 . S
C298 C300 1.389 . S
C299 H278 0.950 . S
C299 C298 1.373 . S
C299 C315 1.377 . S
C300 C298 1.389 . S
C300 C301 1.524 . S
C300 C314 1.377 . S
C301 C300 1.524 . S
C301 C302 1.397 1_455 S
C301 C306 1.363 . S
C302 H279 0.950 . S
C302 C301 1.397 1_655 S
C302 C303 1.334 . S
C303 H280 0.950 . S
C303 C302 1.334 . S
C303 C304 1.287 . S
C304 C303 1.287 . S
C304 C305 1.535 . S
C304 H323 0.913 . S
C305 H281 0.949 1_655 S
C305 C304 1.535 . S
C305 C306 1.405 1_655 S
C306 H282 0.950 . S
C306 C301 1.363 . S
C306 C305 1.405 1_455 S
C307 H283 0.951 . S
C307 C308 1.366 . S
C307 C309 1.388 . S
C308 C307 1.366 . S
C308 C312 1.385 . S
C309 H284 0.951 . S
C309 C307 1.388 . S
C309 C310 1.366 . S
C310 C309 1.366 . S
C310 C311 1.414 . S
C310 C313 1.499 . S
C311 H285 0.950 . S
C311 C310 1.414 . S
C311 C312 1.374 . S
C312 H286 0.950 . S
C312 C308 1.385 . S
C312 C311 1.374 . S
C313 C310 1.499 . S
C313 C314 1.373 . S
C313 C315 1.389 . S
C314 H287 0.950 . S
C314 C300 1.377 . S
C314 C313 1.373 . S
C315 C299 1.377 . S
C315 C313 1.389 . S
C315 C316 1.524 . S
C316 C315 1.524 . S
C316 C317 1.397 . S
C316 C321 1.363 . S
C317 H288 0.950 . S
C317 C316 1.397 . S
C317 C318 1.334 . S
C318 H289 0.950 . S
C318 C317 1.334 . S
C318 C319 1.287 . S
C319 C318 1.287 . S
C319 C320 1.524 . S
C319 H322 0.999 . S
C320 H290 0.950 . S
C320 C319 1.524 . S
C320 C321 1.415 . S
C321 H291 0.950 . S
C321 C316 1.363 . S
C321 C320 1.415 . S
H322 C319 0.999 . S
H323 C304 0.913 . S
H324 C342 0.951 . S
H325 C344 0.951 . S
H326 C346 0.950 . S
H327 C347 0.950 . S
H328 C349 0.950 . S
H329 C352 0.950 . S
H330 C353 0.950 . S
H331 C355 0.950 . S
H332 C356 0.950 . S
H333 C357 0.951 . S
H334 C359 0.951 . S
H335 C361 0.950 . S
H336 C362 0.950 . S
H337 C364 0.950 . S
H338 C367 0.950 . S
H339 C368 0.950 . S
H340 C370 0.950 . S
H341 C371 0.950 . S
C342 H324 0.951 . S
C342 C343 1.366 . S
C342 C344 1.388 . S
C343 C342 1.366 . S
C343 C347 1.385 . S
C344 H325 0.951 . S
C344 C342 1.388 . S
C344 C345 1.366 . S
C345 C344 1.366 . S
C345 C346 1.414 . S
C345 C348 1.499 . S
C346 H326 0.950 . S
C346 C345 1.414 . S
C346 C347 1.374 . S
C347 H327 0.950 . S
C347 C343 1.385 . S
C347 C346 1.374 . S
C348 C345 1.499 . S
C348 C349 1.373 . S
C348 C350 1.389 . S
C349 H328 0.950 . S
C349 C348 1.373 . S
C349 C365 1.377 . S
C350 C348 1.389 . S
C350 C351 1.524 . S
C350 C364 1.377 . S
C351 C350 1.524 . S
C351 C352 1.397 . S
C351 C356 1.363 . S
C352 H329 0.950 . S
C352 C351 1.397 . S
C352 C353 1.334 . S
C353 H330 0.950 . S
C353 C352 1.334 . S
C353 C354 1.287 . S
C354 C353 1.287 . S
C354 C355 1.524 . S
C354 H373 0.913 . S
C355 H331 0.950 . S
C355 C354 1.524 . S
C355 C356 1.415 . S
C356 H332 0.950 . S
C356 C351 1.363 . S
C356 C355 1.415 . S
C357 H333 0.951 . S
C357 C358 1.366 . S
C357 C359 1.388 . S
C358 C357 1.366 . S
C358 C362 1.385 . S
C359 H334 0.951 . S
C359 C357 1.388 . S
C359 C360 1.366 . S
C360 C359 1.366 . S
C360 C361 1.414 . S
C360 C363 1.499 . S
C361 H335 0.950 . S
C361 C360 1.414 . S
C361 C362 1.374 . S
C362 H336 0.950 . S
C362 C358 1.385 . S
C362 C361 1.374 . S
C363 C360 1.499 . S
C363 C364 1.373 . S
C363 C365 1.389 . S
C364 H337 0.950 . S
C364 C350 1.377 . S
C364 C363 1.373 . S
C365 C349 1.377 . S
C365 C363 1.389 . S
C365 C366 1.524 . S
C366 C365 1.524 . S
C366 C367 1.397 . S
C366 C371 1.363 . S
C367 H338 0.950 . S
C367 C366 1.397 . S
C367 C368 1.334 . S
C368 H339 0.950 . S
C368 C367 1.334 . S
C368 C369 1.287 . S
C369 C368 1.287 . S
C369 C370 1.524 . S
C369 H372 0.999 . S
C370 H340 0.950 . S
C370 C369 1.524 . S
C370 C371 1.415 . S
C371 H341 0.950 . S
C371 C366 1.363 . S
C371 C370 1.415 . S
H372 C369 0.999 . S
H373 C354 0.913 . S
H374 C392 0.951 . S
H375 C394 0.951 . S
H376 C396 0.950 . S
H377 C397 0.950 . S
H378 C399 0.950 . S
H379 C402 0.950 . S
H380 C403 0.950 . S
H381 C405 0.950 . S
H382 C406 0.950 . S
H383 C407 0.951 . S
H384 C409 0.951 . S
H385 C411 0.950 . S
H386 C412 0.950 . S
H387 C414 0.950 . S
H388 C417 0.950 . S
H389 C418 0.950 . S
H390 C420 0.950 . S
H391 C421 0.950 . S
C392 H374 0.951 . S
C392 C393 1.366 . S
C392 C394 1.388 . S
C393 C392 1.366 . S
C393 C397 1.385 . S
C394 H375 0.951 . S
C394 C392 1.388 . S
C394 C395 1.366 . S
C395 C394 1.366 . S
C395 C396 1.414 . S
C395 C398 1.499 . S
C396 H376 0.950 . S
C396 C395 1.414 . S
C396 C397 1.374 . S
C397 H377 0.950 . S
C397 C393 1.385 . S
C397 C396 1.374 . S
C398 C395 1.499 . S
C398 C399 1.373 . S
C398 C400 1.389 . S
C399 H378 0.950 . S
C399 C398 1.373 . S
C399 C415 1.377 . S
C400 C398 1.389 . S
C400 C401 1.524 . S
C400 C414 1.377 . S
C401 C400 1.524 . S
C401 C402 1.397 . S
C401 C406 1.363 . S
C402 H379 0.950 . S
C402 C401 1.397 . S
C402 C403 1.334 . S
C403 H380 0.950 . S
C403 C402 1.334 . S
C403 C404 1.287 . S
C404 C403 1.287 . S
C404 C405 1.524 . S
C404 H423 0.913 . S
C405 H381 0.950 . S
C405 C404 1.524 . S
C405 C406 1.415 . S
C406 H382 0.950 . S
C406 C401 1.363 . S
C406 C405 1.415 . S
C407 H383 0.951 . S
C407 C408 1.366 . S
C407 C409 1.388 . S
C408 C407 1.366 . S
C408 C412 1.385 . S
C409 H384 0.951 . S
C409 C407 1.388 . S
C409 C410 1.366 . S
C410 C409 1.366 . S
C410 C411 1.414 . S
C410 C413 1.499 . S
C411 H385 0.950 . S
C411 C410 1.414 . S
C411 C412 1.374 . S
C412 H386 0.950 . S
C412 C408 1.385 . S
C412 C411 1.374 . S
C413 C410 1.499 . S
C413 C414 1.373 . S
C413 C415 1.389 . S
C414 H387 0.950 . S
C414 C400 1.377 . S
C414 C413 1.373 . S
C415 C399 1.377 . S
C415 C413 1.389 . S
C415 C416 1.524 . S
C416 C415 1.524 . S
C416 C417 1.397 . S
C416 C421 1.363 . S
C417 H388 0.950 . S
C417 C416 1.397 . S
C417 C418 1.334 . S
C418 H389 0.950 . S
C418 C417 1.334 . S
C418 C419 1.287 . S
C419 C418 1.287 . S
C419 C420 1.524 . S
C419 H422 0.999 . S
C420 H390 0.950 . S
C420 C419 1.524 . S
C420 C421 1.415 . S
C421 H391 0.950 . S
C421 C416 1.363 . S
C421 C420 1.415 . S
H422 C419 0.999 . S
H423 C404 0.913 . S
H424 C442 0.951 . S
H425 C444 0.951 . S
H426 C446 0.950 . S
H427 C447 0.950 . S
H428 C449 0.950 . S
H429 C452 0.950 . S
H430 C453 0.950 . S
H431 C455 0.950 . S
H432 C456 0.950 . S
H433 C457 0.951 . S
H434 C459 0.951 . S
H435 C461 0.950 . S
H436 C462 0.950 1_655 S
H437 C464 0.950 . S
H438 C467 0.950 1_655 S
H439 C468 0.950 . S
H440 C470 0.950 . S
H441 C471 0.950 . S
C442 H424 0.951 . S
C442 C443 1.366 . S
C442 C444 1.388 . S
C443 C442 1.366 . S
C443 C447 1.385 . S
C444 H425 0.951 . S
C444 C442 1.388 . S
C444 C445 1.366 . S
C445 C444 1.366 . S
C445 C446 1.414 . S
C445 C448 1.499 . S
C446 H426 0.950 . S
C446 C445 1.414 . S
C446 C447 1.374 . S
C447 H427 0.950 . S
C447 C443 1.385 . S
C447 C446 1.374 . S
C448 C445 1.499 . S
C448 C449 1.373 . S
C448 C450 1.389 . S
C449 H428 0.950 . S
C449 C448 1.373 . S
C449 C465 1.377 . S
C450 C448 1.389 . S
C450 C451 1.524 . S
C450 C464 1.377 . S
C451 C450 1.524 . S
C451 C452 1.397 . S
C451 C456 1.363 . S
C452 H429 0.950 . S
C452 C451 1.397 . S
C452 C453 1.334 . S
C453 H430 0.950 . S
C453 C452 1.334 . S
C453 C454 1.287 . S
C454 C453 1.287 . S
C454 C455 1.524 . S
C454 H473 0.913 . S
C455 H431 0.950 . S
C455 C454 1.524 . S
C455 C456 1.415 . S
C456 H432 0.950 . S
C456 C451 1.363 . S
C456 C455 1.415 . S
C457 H433 0.951 . S
C457 C458 1.366 . S
C457 C459 1.388 . S
C458 C457 1.366 . S
C458 C462 1.385 . S
C459 H434 0.951 . S
C459 C457 1.388 . S
C459 C460 1.366 . S
C460 C459 1.366 . S
C460 C461 1.414 . S
C460 C463 1.499 . S
C461 H435 0.950 . S
C461 C460 1.414 . S
C461 C462 1.374 . S
C462 H436 0.950 1_455 S
C462 C458 1.385 . S
C462 C461 1.374 . S
C463 C460 1.499 . S
C463 C464 1.373 . S
C463 C465 1.389 . S
C464 H437 0.950 . S
C464 C450 1.377 . S
C464 C463 1.373 . S
C465 C449 1.377 . S
C465 C463 1.389 . S
C465 C466 1.524 . S
C466 C465 1.524 . S
C466 C467 1.397 . S
C466 C471 1.363 . S
C467 H438 0.950 1_455 S
C467 C466 1.397 . S
C467 C468 1.334 1_455 S
C468 H439 0.950 . S
C468 C467 1.334 1_655 S
C468 C469 1.287 1_655 S
C469 C468 1.287 1_455 S
C469 C470 1.524 . S
C469 H472 0.999 . S
C470 H440 0.950 . S
C470 C469 1.524 . S
C470 C471 1.415 . S
C471 H441 0.950 . S
C471 C466 1.363 . S
C471 C470 1.415 . S
H472 C469 0.999 . S
H473 C454 0.913 . S
H474 C492 0.951 . S
H475 C494 0.951 . S
H476 C496 0.950 . S
H477 C497 0.950 . S
H478 C499 0.950 . S
H479 C502 0.950 . S
H480 C503 0.950 . S
H481 C505 0.950 . S
H482 C506 0.950 . S
H483 C507 0.951 . S
H484 C509 0.951 . S
H485 C511 0.950 . S
H486 C512 0.950 . S
H487 C514 0.950 . S
H488 C517 0.950 . S
H489 C518 0.950 . S
H490 C520 0.950 . S
H491 C521 0.950 . S
C492 H474 0.951 . S
C492 C493 1.366 . S
C492 C494 1.388 . S
C493 C492 1.366 . S
C493 C497 1.385 . S
C494 H475 0.951 . S
C494 C492 1.388 . S
C494 C495 1.366 . S
C495 C494 1.366 . S
C495 C496 1.414 . S
C495 C498 1.499 . S
C496 H476 0.950 . S
C496 C495 1.414 . S
C496 C497 1.374 . S
C497 H477 0.950 . S
C497 C493 1.385 . S
C497 C496 1.374 . S
C498 C495 1.499 . S
C498 C499 1.373 . S
C498 C500 1.389 . S
C499 H478 0.950 . S
C499 C498 1.373 . S
C499 C515 1.377 . S
C500 C498 1.389 . S
C500 C501 1.524 . S
C500 C514 1.377 . S
C501 C500 1.524 . S
C501 C502 1.397 . S
C501 C506 1.363 . S
C502 H479 0.950 . S
C502 C501 1.397 . S
C502 C503 1.334 . S
C503 H480 0.950 . S
C503 C502 1.334 . S
C503 C504 1.287 . S
C504 C503 1.287 . S
C504 C505 1.524 . S
C504 H523 0.913 . S
C505 H481 0.950 . S
C505 C504 1.524 . S
C505 C506 1.415 . S
C506 H482 0.950 . S
C506 C501 1.363 . S
C506 C505 1.415 . S
C507 H483 0.951 . S
C507 C508 1.366 . S
C507 C509 1.388 . S
C508 C507 1.366 . S
C508 C512 1.385 . S
C509 H484 0.951 . S
C509 C507 1.388 . S
C509 C510 1.366 . S
C510 C509 1.366 . S
C510 C511 1.414 . S
C510 C513 1.499 . S
C511 H485 0.950 . S
C511 C510 1.414 . S
C511 C512 1.374 . S
C512 H486 0.950 . S
C512 C508 1.385 . S
C512 C511 1.374 . S
C513 C510 1.499 . S
C513 C514 1.373 . S
C513 C515 1.389 . S
C514 H487 0.950 . S
C514 C500 1.377 . S
C514 C513 1.373 . S
C515 C499 1.377 . S
C515 C513 1.389 . S
C515 C516 1.524 . S
C516 C515 1.524 . S
C516 C517 1.397 . S
C516 C521 1.363 . S
C517 H488 0.950 . S
C517 C516 1.397 . S
C517 C518 1.334 . S
C518 H489 0.950 . S
C518 C517 1.334 . S
C518 C519 1.287 . S
C519 C518 1.287 . S
C519 C520 1.524 . S
C519 H522 0.999 . S
C520 H490 0.950 . S
C520 C519 1.524 . S
C520 C521 1.415 . S
C521 H491 0.950 . S
C521 C516 1.363 . S
C521 C520 1.415 . S
H522 C519 0.999 . S
H523 C504 0.913 . S
H524 C542 0.951 . S
H525 C544 0.951 . S
H526 C546 0.950 . S
H527 C547 0.950 . S
H528 C549 0.950 . S
H529 C552 0.950 . S
H530 C553 0.950 . S
H531 C555 0.950 . S
H532 C556 0.950 . S
H533 C557 0.951 . S
H534 C559 0.951 . S
H535 C561 0.950 . S
H536 C562 0.950 . S
H537 C564 0.950 . S
H538 C567 0.950 . S
H539 C568 0.950 . S
H540 C570 0.950 . S
H541 C571 0.950 . S
C542 H524 0.951 . S
C542 C543 1.366 . S
C542 C544 1.388 . S
C543 C542 1.366 . S
C543 C547 1.385 . S
C544 H525 0.951 . S
C544 C542 1.388 . S
C544 C545 1.366 . S
C545 C544 1.366 . S
C545 C546 1.414 . S
C545 C548 1.499 . S
C546 H526 0.950 . S
C546 C545 1.414 . S
C546 C547 1.374 . S
C547 H527 0.950 . S
C547 C543 1.385 . S
C547 C546 1.374 . S
C548 C545 1.499 . S
C548 C549 1.373 . S
C548 C550 1.389 . S
C549 H528 0.950 . S
C549 C548 1.373 . S
C549 C565 1.377 . S
C550 C548 1.389 . S
C550 C551 1.524 . S
C550 C564 1.377 . S
C551 C550 1.524 . S
C551 C552 1.397 . S
C551 C556 1.363 . S
C552 H529 0.950 . S
C552 C551 1.397 . S
C552 C553 1.334 . S
C553 H530 0.950 . S
C553 C552 1.334 . S
C553 C554 1.287 . S
C554 C553 1.287 . S
C554 C555 1.524 . S
C554 H573 0.913 . S
C555 H531 0.950 . S
C555 C554 1.524 . S
C555 C556 1.415 . S
C556 H532 0.950 . S
C556 C551 1.363 . S
C556 C555 1.415 . S
C557 H533 0.951 . S
C557 C558 1.366 . S
C557 C559 1.388 . S
C558 C557 1.366 . S
C558 C562 1.385 . S
C559 H534 0.951 . S
C559 C557 1.388 . S
C559 C560 1.366 . S
C560 C559 1.366 . S
C560 C561 1.414 . S
C560 C563 1.499 . S
C561 H535 0.950 . S
C561 C560 1.414 . S
C561 C562 1.374 . S
C562 H536 0.950 . S
C562 C558 1.385 . S
C562 C561 1.374 . S
C563 C560 1.499 . S
C563 C564 1.373 . S
C563 C565 1.389 . S
C564 H537 0.950 . S
C564 C550 1.377 . S
C564 C563 1.373 . S
C565 C549 1.377 . S
C565 C563 1.389 . S
C565 C566 1.524 . S
C566 C565 1.524 . S
C566 C567 1.397 . S
C566 C571 1.363 . S
C567 H538 0.950 . S
C567 C566 1.397 . S
C567 C568 1.334 . S
C568 H539 0.950 . S
C568 C567 1.334 . S
C568 C569 1.287 . S
C569 C568 1.287 . S
C569 C570 1.524 . S
C569 H572 0.999 . S
C570 H540 0.950 . S
C570 C569 1.524 . S
C570 C571 1.415 . S
C571 H541 0.950 . S
C571 C566 1.363 . S
C571 C570 1.415 . S
H572 C569 0.999 . S
H573 C554 0.913 . S
H574 C592 0.951 . S
H575 C594 0.951 . S
H576 C596 0.950 . S
H577 C597 0.950 . S
H578 C599 0.950 . S
H579 C602 0.950 . S
H580 C603 0.950 . S
H581 C605 0.950 . S
H582 C606 0.950 . S
H583 C607 0.951 . S
H584 C609 0.951 . S
H585 C611 0.950 . S
H586 C612 0.950 . S
H587 C614 0.950 . S
H588 C617 0.941 1_655 S
H589 C618 0.950 . S
H590 C620 0.950 . S
H591 C621 0.950 . S
C592 H574 0.951 . S
C592 C593 1.366 . S
C592 C594 1.388 . S
C593 C592 1.366 . S
C593 C597 1.385 . S
C594 H575 0.951 . S
C594 C592 1.388 . S
C594 C595 1.366 . S
C595 C594 1.366 . S
C595 C596 1.414 . S
C595 C598 1.499 . S
C596 H576 0.950 . S
C596 C595 1.414 . S
C596 C597 1.374 . S
C597 H577 0.950 . S
C597 C593 1.385 . S
C597 C596 1.374 . S
C598 C595 1.499 . S
C598 C599 1.373 . S
C598 C600 1.389 . S
C599 H578 0.950 . S
C599 C598 1.373 . S
C599 C615 1.377 . S
C600 C598 1.389 . S
C600 C601 1.524 . S
C600 C614 1.377 . S
C601 C600 1.524 . S
C601 C602 1.397 . S
C601 C606 1.363 . S
C602 H579 0.950 . S
C602 C601 1.397 . S
C602 C603 1.334 . S
C603 H580 0.950 . S
C603 C602 1.334 . S
C603 C604 1.287 . S
C604 C603 1.287 . S
C604 C605 1.524 . S
C604 H623 0.913 . S
C605 H581 0.950 . S
C605 C604 1.524 . S
C605 C606 1.415 . S
C606 H582 0.950 . S
C606 C601 1.363 . S
C606 C605 1.415 . S
C607 H583 0.951 . S
C607 C608 1.366 . S
C607 C609 1.388 . S
C608 C607 1.366 . S
C608 C612 1.385 . S
C609 H584 0.951 . S
C609 C607 1.388 . S
C609 C610 1.366 . S
C610 C609 1.366 . S
C610 C611 1.414 . S
C610 C613 1.499 1_655 S
C611 H585 0.950 . S
C611 C610 1.414 . S
C611 C612 1.374 . S
C612 H586 0.950 . S
C612 C608 1.385 . S
C612 C611 1.374 . S
C613 C610 1.499 1_455 S
C613 C614 1.373 . S
C613 C615 1.389 . S
C614 H587 0.950 . S
C614 C600 1.377 . S
C614 C613 1.373 . S
C615 C599 1.377 . S
C615 C613 1.389 . S
C615 C616 1.524 . S
C616 C615 1.524 . S
C616 C617 1.416 . S
C616 C621 1.363 . S
C617 H588 0.941 1_455 S
C617 C616 1.416 . S
C617 C618 1.324 1_455 S
C618 H589 0.950 . S
C618 C617 1.324 1_655 S
C618 C619 1.287 1_655 S
C619 C618 1.287 1_455 S
C619 C620 1.524 . S
C619 H622 0.999 1_455 S
C620 H590 0.950 . S
C620 C619 1.524 . S
C620 C621 1.415 . S
C621 H591 0.950 . S
C621 C616 1.363 . S
C621 C620 1.415 . S
H622 C619 0.999 1_655 S
H623 C604 0.913 . S
H624 C642 0.951 . S
H625 C644 0.951 . S
H626 C646 0.950 . S
H627 C647 0.950 . S
H628 C649 0.950 . S
H629 C652 0.950 1_565 S
H630 C653 0.950 . S
H631 C655 0.950 . S
H632 C656 0.950 . S
H633 C657 0.951 . S
H634 C659 0.951 . S
H635 C661 0.950 . S
H636 C662 0.950 . S
H637 C664 0.950 . S
H638 C667 0.950 1_545 S
H639 C668 0.950 . S
H640 C670 0.948 1_655 S
H641 C671 0.950 . S
C642 H624 0.951 . S
C642 C643 1.366 1_545 S
C642 C644 1.388 . S
C643 C642 1.366 1_565 S
C643 C647 1.385 . S
C644 H625 0.951 . S
C644 C642 1.388 . S
C644 C645 1.366 1_545 S
C645 C644 1.366 1_565 S
C645 C646 1.414 . S
C645 C648 1.499 . S
C646 H626 0.950 . S
C646 C645 1.414 . S
C646 C647 1.374 . S
C647 H627 0.950 . S
C647 C643 1.385 . S
C647 C646 1.374 . S
C648 C645 1.499 . S
C648 C649 1.373 . S
C648 C650 1.389 1_565 S
C649 H628 0.950 . S
C649 C648 1.373 . S
C649 C665 1.377 . S
C650 C648 1.389 1_545 S
C650 C651 1.524 . S
C650 C664 1.377 . S
C651 C650 1.524 . S
C651 C652 1.397 . S
C651 C656 1.363 . S
C652 H629 0.950 1_545 S
C652 C651 1.397 . S
C652 C653 1.334 . S
C653 H630 0.950 . S
C653 C652 1.334 . S
C653 C654 1.287 . S
C654 C653 1.287 . S
C654 C655 1.524 . S
C654 H673 0.913 . S
C655 H631 0.950 . S
C655 C654 1.524 . S
C655 C656 1.415 . S
C656 H632 0.950 . S
C656 C651 1.363 . S
C656 C655 1.415 . S
C657 H633 0.951 . S
C657 C658 1.366 1_565 S
C657 C659 1.388 . S
C658 C657 1.366 1_545 S
C658 C662 1.385 . S
C659 H634 0.951 . S
C659 C657 1.388 . S
C659 C660 1.366 1_565 S
C660 C659 1.366 1_545 S
C660 C661 1.414 . S
C660 C663 1.499 . S
C661 H635 0.950 . S
C661 C660 1.414 . S
C661 C662 1.374 . S
C662 H636 0.950 . S
C662 C658 1.385 . S
C662 C661 1.374 . S
C663 C660 1.499 . S
C663 C664 1.373 . S
C663 C665 1.389 1_545 S
C664 H637 0.950 . S
C664 C650 1.377 . S
C664 C663 1.373 . S
C665 C649 1.377 . S
C665 C663 1.389 1_565 S
C665 C666 1.524 . S
C666 C665 1.524 . S
C666 C667 1.397 . S
C666 C671 1.363 . S
C667 H638 0.950 1_565 S
C667 C666 1.397 . S
C667 C668 1.334 1_455 S
C668 H639 0.950 . S
C668 C667 1.334 1_655 S
C668 C669 1.287 . S
C669 C668 1.287 . S
C669 C670 1.513 1_655 S
C669 H672 0.999 . S
C670 H640 0.948 1_455 S
C670 C669 1.513 1_455 S
C670 C671 1.427 . S
C671 H641 0.950 . S
C671 C666 1.363 . S
C671 C670 1.427 . S
H672 C669 0.999 . S
H673 C654 0.913 . S
H674 C692 0.951 . S
H675 C694 0.951 . S
H676 C696 0.950 . S
H677 C697 0.950 . S
H678 C699 0.950 . S
H679 C702 0.950 . S
H680 C703 0.950 . S
H681 C705 0.950 . S
H682 C706 0.950 . S
H683 C707 0.951 . S
H684 C709 0.951 . S
H685 C711 0.950 . S
H686 C712 0.950 . S
H687 C714 0.950 . S
H688 C717 0.950 . S
H689 C718 0.950 . S
H690 C720 0.950 . S
H691 C721 0.950 . S
C692 H674 0.951 . S
C692 C693 1.366 . S
C692 C694 1.388 . S
C693 C692 1.366 . S
C693 C697 1.385 . S
C694 H675 0.951 . S
C694 C692 1.388 . S
C694 C695 1.366 . S
C695 C694 1.366 . S
C695 C696 1.414 . S
C695 C698 1.499 . S
C696 H676 0.950 . S
C696 C695 1.414 . S
C696 C697 1.374 . S
C697 H677 0.950 . S
C697 C693 1.385 . S
C697 C696 1.374 . S
C698 C695 1.499 . S
C698 C699 1.373 . S
C698 C700 1.389 . S
C699 H678 0.950 . S
C699 C698 1.373 . S
C699 C715 1.377 . S
C700 C698 1.389 . S
C700 C701 1.524 . S
C700 C714 1.377 . S
C701 C700 1.524 . S
C701 C702 1.397 . S
C701 C706 1.363 . S
C702 H679 0.950 . S
C702 C701 1.397 . S
C702 C703 1.334 . S
C703 H680 0.950 . S
C703 C702 1.334 . S
C703 C704 1.287 . S
C704 C703 1.287 . S
C704 C705 1.524 . S
C704 H723 0.913 . S
C705 H681 0.950 . S
C705 C704 1.524 . S
C705 C706 1.415 . S
C706 H682 0.950 . S
C706 C701 1.363 . S
C706 C705 1.415 . S
C707 H683 0.951 . S
C707 C708 1.366 . S
C707 C709 1.388 . S
C708 C707 1.366 . S
C708 C712 1.385 . S
C709 H684 0.951 . S
C709 C707 1.388 . S
C709 C710 1.366 . S
C710 C709 1.366 . S
C710 C711 1.414 . S
C710 C713 1.499 . S
C711 H685 0.950 . S
C711 C710 1.414 . S
C711 C712 1.374 . S
C712 H686 0.950 . S
C712 C708 1.385 . S
C712 C711 1.374 . S
C713 C710 1.499 . S
C713 C714 1.373 . S
C713 C715 1.389 . S
C714 H687 0.950 . S
C714 C700 1.377 . S
C714 C713 1.373 . S
C715 C699 1.377 . S
C715 C713 1.389 . S
C715 C716 1.524 . S
C716 C715 1.524 . S
C716 C717 1.397 . S
C716 C721 1.363 . S
C717 H688 0.950 . S
C717 C716 1.397 . S
C717 C718 1.334 . S
C718 H689 0.950 . S
C718 C717 1.334 . S
C718 C719 1.287 . S
C719 C718 1.287 . S
C719 C720 1.524 . S
C719 H722 0.999 . S
C720 H690 0.950 . S
C720 C719 1.524 . S
C720 C721 1.415 . S
C721 H691 0.950 . S
C721 C716 1.363 . S
C721 C720 1.415 . S
H722 C719 0.999 . S
H723 C704 0.913 . S
H724 C742 0.951 . S
H725 C744 0.951 . S
H726 C746 0.950 . S
H727 C747 0.950 . S
H728 C749 0.950 . S
H729 C752 0.950 . S
H730 C753 0.950 . S
H731 C755 0.950 . S
H732 C756 0.950 . S
H733 C757 0.951 . S
H734 C759 0.951 . S
H735 C761 0.950 . S
H736 C762 0.950 . S
H737 C764 0.950 . S
H738 C767 0.950 . S
H739 C768 0.950 . S
H740 C770 0.950 . S
H741 C771 0.950 . S
C742 H724 0.951 . S
C742 C743 1.366 1_545 S
C742 C744 1.388 . S
C743 C742 1.366 1_565 S
C743 C747 1.385 . S
C744 H725 0.951 . S
C744 C742 1.388 . S
C744 C745 1.366 1_545 S
C745 C744 1.366 1_565 S
C745 C746 1.414 . S
C745 C748 1.499 . S
C746 H726 0.950 . S
C746 C745 1.414 . S
C746 C747 1.374 . S
C747 H727 0.950 . S
C747 C743 1.385 . S
C747 C746 1.374 . S
C748 C745 1.499 . S
C748 C749 1.373 . S
C748 C750 1.389 1_565 S
C749 H728 0.950 . S
C749 C748 1.373 . S
C749 C765 1.377 1_554 S
C750 C748 1.389 1_545 S
C750 C751 1.524 . S
C750 C764 1.377 1_554 S
C751 C750 1.524 . S
C751 C752 1.397 . S
C751 C756 1.363 . S
C752 H729 0.950 . S
C752 C751 1.397 . S
C752 C753 1.334 . S
C753 H730 0.950 . S
C753 C752 1.334 . S
C753 C754 1.287 . S
C754 C753 1.287 . S
C754 C755 1.524 . S
C754 H773 0.913 . S
C755 H731 0.950 . S
C755 C754 1.524 . S
C755 C756 1.415 . S
C756 H732 0.950 . S
C756 C751 1.363 . S
C756 C755 1.415 . S
C757 H733 0.951 . S
C757 C758 1.366 1_565 S
C757 C759 1.388 . S
C758 C757 1.366 1_545 S
C758 C762 1.385 . S
C759 H734 0.951 . S
C759 C757 1.388 . S
C759 C760 1.366 1_565 S
C760 C759 1.366 1_545 S
C760 C761 1.414 . S
C760 C763 1.499 . S
C761 H735 0.950 . S
C761 C760 1.414 . S
C761 C762 1.374 . S
C762 H736 0.950 . S
C762 C758 1.385 . S
C762 C761 1.374 . S
C763 C760 1.499 . S
C763 C764 1.373 . S
C763 C765 1.389 1_545 S
C764 H737 0.950 . S
C764 C750 1.377 1_556 S
C764 C763 1.373 . S
C765 C749 1.377 1_556 S
C765 C763 1.389 1_565 S
C765 C766 1.524 . S
C766 C765 1.524 . S
C766 C767 1.397 . S
C766 C771 1.363 . S
C767 H738 0.950 . S
C767 C766 1.397 . S
C767 C768 1.334 . S
C768 H739 0.950 . S
C768 C767 1.334 . S
C768 C769 1.287 . S
C769 C768 1.287 . S
C769 C770 1.524 . S
C769 H772 0.999 . S
C770 H740 0.950 . S
C770 C769 1.524 . S
C770 C771 1.415 . S
C771 H741 0.950 . S
C771 C766 1.363 . S
C771 C770 1.415 . S
H772 C769 0.999 . S
H773 C754 0.913 . S
H774 C792 0.951 . S
H775 C794 0.951 . S
H776 C796 0.950 . S
H777 C797 0.950 . S
H778 C799 0.950 . S
H779 C802 0.950 . S
H780 C803 0.950 . S
H781 C805 0.950 . S
H782 C806 0.950 . S
H783 C807 0.951 . S
H784 C809 0.951 . S
H785 C811 0.950 . S
H786 C812 0.950 . S
H787 C814 0.950 . S
H788 C817 0.950 . S
H789 C818 0.950 . S
H790 C820 0.950 . S
H791 C821 0.950 . S
C792 H774 0.951 . S
C792 C793 1.366 . S
C792 C794 1.388 . S
C793 C792 1.366 . S
C793 C797 1.385 . S
C794 H775 0.951 . S
C794 C792 1.388 . S
C794 C795 1.366 . S
C795 C794 1.366 . S
C795 C796 1.414 . S
C795 C798 1.499 . S
C796 H776 0.950 . S
C796 C795 1.414 . S
C796 C797 1.374 . S
C797 H777 0.950 . S
C797 C793 1.385 . S
C797 C796 1.374 . S
C798 C795 1.499 . S
C798 C799 1.373 . S
C798 C800 1.389 . S
C799 H778 0.950 . S
C799 C798 1.373 . S
C799 C815 1.377 . S
C800 C798 1.389 . S
C800 C801 1.524 . S
C800 C814 1.377 . S
C801 C800 1.524 . S
C801 C802 1.397 . S
C801 C806 1.363 . S
C802 H779 0.950 . S
C802 C801 1.397 . S
C802 C803 1.334 . S
C803 H780 0.950 . S
C803 C802 1.334 . S
C803 C804 1.287 . S
C804 C803 1.287 . S
C804 C805 1.524 . S
C804 H823 0.913 . S
C805 H781 0.950 . S
C805 C804 1.524 . S
C805 C806 1.415 . S
C806 H782 0.950 . S
C806 C801 1.363 . S
C806 C805 1.415 . S
C807 H783 0.951 . S
C807 C808 1.366 . S
C807 C809 1.388 . S
C808 C807 1.366 . S
C808 C812 1.385 . S
C809 H784 0.951 . S
C809 C807 1.388 . S
C809 C810 1.366 . S
C810 C809 1.366 . S
C810 C811 1.414 . S
C810 C813 1.499 . S
C811 H785 0.950 . S
C811 C810 1.414 . S
C811 C812 1.374 . S
C812 H786 0.950 . S
C812 C808 1.385 . S
C812 C811 1.374 . S
C813 C810 1.499 . S
C813 C814 1.373 . S
C813 C815 1.389 . S
C814 H787 0.950 . S
C814 C800 1.377 . S
C814 C813 1.373 . S
C815 C799 1.377 . S
C815 C813 1.389 . S
C815 C816 1.524 . S
C816 C815 1.524 . S
C816 C817 1.397 . S
C816 C821 1.363 . S
C817 H788 0.950 . S
C817 C816 1.397 . S
C817 C818 1.334 . S
C818 H789 0.950 . S
C818 C817 1.334 . S
C818 C819 1.287 . S
C819 C818 1.287 . S
C819 C820 1.524 . S
C819 H822 0.999 . S
C820 H790 0.950 . S
C820 C819 1.524 . S
C820 C821 1.415 . S
C821 H791 0.950 . S
C821 C816 1.363 . S
C821 C820 1.415 . S
H822 C819 0.999 . S
H823 C804 0.913 . S
H824 C842 0.951 . S
H825 C844 0.951 . S
H826 C846 0.950 . S
H827 C847 0.950 . S
H828 C849 0.950 . S
H829 C852 0.950 . S
H830 C853 0.950 . S
H831 C855 0.950 . S
H832 C856 0.950 . S
H833 C857 0.951 . S
H834 C859 0.951 . S
H835 C861 0.950 . S
H836 C862 0.950 . S
H837 C864 0.950 . S
H838 C867 0.950 . S
H839 C868 0.950 . S
H840 C870 0.950 . S
H841 C871 0.950 . S
C842 H824 0.951 . S
C842 C843 1.366 . S
C842 C844 1.388 . S
C843 C842 1.366 . S
C843 C847 1.385 . S
C844 H825 0.951 . S
C844 C842 1.388 . S
C844 C845 1.366 . S
C845 C844 1.366 . S
C845 C846 1.414 . S
C845 C848 1.499 . S
C846 H826 0.950 . S
C846 C845 1.414 . S
C846 C847 1.374 . S
C847 H827 0.950 . S
C847 C843 1.385 . S
C847 C846 1.374 . S
C848 C845 1.499 . S
C848 C849 1.373 . S
C848 C850 1.389 . S
C849 H828 0.950 . S
C849 C848 1.373 . S
C849 C865 1.377 . S
C850 C848 1.389 . S
C850 C851 1.524 . S
C850 C864 1.377 . S
C851 C850 1.524 . S
C851 C852 1.397 . S
C851 C856 1.363 . S
C852 H829 0.950 . S
C852 C851 1.397 . S
C852 C853 1.334 . S
C853 H830 0.950 . S
C853 C852 1.334 . S
C853 C854 1.287 . S
C854 C853 1.287 . S
C854 C855 1.524 . S
C854 H873 0.913 . S
C855 H831 0.950 . S
C855 C854 1.524 . S
C855 C856 1.415 . S
C856 H832 0.950 . S
C856 C851 1.363 . S
C856 C855 1.415 . S
C857 H833 0.951 . S
C857 C858 1.366 . S
C857 C859 1.388 . S
C858 C857 1.366 . S
C858 C862 1.385 . S
C859 H834 0.951 . S
C859 C857 1.388 . S
C859 C860 1.366 . S
C860 C859 1.366 . S
C860 C861 1.414 . S
C860 C863 1.499 . S
C861 H835 0.950 . S
C861 C860 1.414 . S
C861 C862 1.374 . S
C862 H836 0.950 . S
C862 C858 1.385 . S
C862 C861 1.374 . S
C863 C860 1.499 . S
C863 C864 1.373 . S
C863 C865 1.389 . S
C864 H837 0.950 . S
C864 C850 1.377 . S
C864 C863 1.373 . S
C865 C849 1.377 . S
C865 C863 1.389 . S
C865 C866 1.524 . S
C866 C865 1.524 . S
C866 C867 1.397 . S
C866 C871 1.363 . S
C867 H838 0.950 . S
C867 C866 1.397 . S
C867 C868 1.334 . S
C868 H839 0.950 . S
C868 C867 1.334 . S
C868 C869 1.287 . S
C869 C868 1.287 . S
C869 C870 1.524 . S
C869 H872 0.999 . S
C870 H840 0.950 . S
C870 C869 1.524 . S
C870 C871 1.415 . S
C871 H841 0.950 . S
C871 C866 1.363 . S
C871 C870 1.415 . S
H872 C869 0.999 . S
H873 C854 0.913 . S
H874 C892 0.951 . S
H875 C894 0.951 . S
H876 C896 0.950 . S
H877 C897 0.950 . S
H878 C899 0.950 . S
H879 C902 0.950 . S
H880 C903 0.950 . S
H881 C905 0.950 . S
H882 C906 0.950 . S
H883 C907 0.951 . S
H884 C909 0.951 . S
H885 C911 0.950 . S
H886 C912 0.950 . S
H887 C914 0.950 . S
H888 C917 0.950 . S
H889 C918 0.950 . S
H890 C920 0.950 . S
H891 C921 0.950 . S
C892 H874 0.951 . S
C892 C893 1.366 . S
C892 C894 1.388 . S
C893 C892 1.366 . S
C893 C897 1.385 . S
C894 H875 0.951 . S
C894 C892 1.388 . S
C894 C895 1.366 . S
C895 C894 1.366 . S
C895 C896 1.414 . S
C895 C898 1.499 . S
C896 H876 0.950 . S
C896 C895 1.414 . S
C896 C897 1.374 . S
C897 H877 0.950 . S
C897 C893 1.385 . S
C897 C896 1.374 . S
C898 C895 1.499 . S
C898 C899 1.373 . S
C898 C900 1.389 . S
C899 H878 0.950 . S
C899 C898 1.373 . S
C899 C915 1.377 . S
C900 C898 1.389 . S
C900 C901 1.524 . S
C900 C914 1.377 . S
C901 C900 1.524 . S
C901 C902 1.397 . S
C901 C906 1.363 . S
C902 H879 0.950 . S
C902 C901 1.397 . S
C902 C903 1.334 . S
C903 H880 0.950 . S
C903 C902 1.334 . S
C903 C904 1.287 . S
C904 C903 1.287 . S
C904 C905 1.524 . S
C904 H923 0.913 . S
C905 H881 0.950 . S
C905 C904 1.524 . S
C905 C906 1.415 . S
C906 H882 0.950 . S
C906 C901 1.363 . S
C906 C905 1.415 . S
C907 H883 0.951 . S
C907 C908 1.366 . S
C907 C909 1.388 . S
C908 C907 1.366 . S
C908 C912 1.385 . S
C909 H884 0.951 . S
C909 C907 1.388 . S
C909 C910 1.366 . S
C910 C909 1.366 . S
C910 C911 1.414 . S
C910 C913 1.499 . S
C911 H885 0.950 . S
C911 C910 1.414 . S
C911 C912 1.374 . S
C912 H886 0.950 . S
C912 C908 1.385 . S
C912 C911 1.374 . S
C913 C910 1.499 . S
C913 C914 1.373 . S
C913 C915 1.389 . S
C914 H887 0.950 . S
C914 C900 1.377 . S
C914 C913 1.373 . S
C915 C899 1.377 . S
C915 C913 1.389 . S
C915 C916 1.524 . S
C916 C915 1.524 . S
C916 C917 1.397 . S
C916 C921 1.363 . S
C917 H888 0.950 . S
C917 C916 1.397 . S
C917 C918 1.334 . S
C918 H889 0.950 . S
C918 C917 1.334 . S
C918 C919 1.287 . S
C919 C918 1.287 . S
C919 C920 1.524 . S
C919 H922 0.999 . S
C920 H890 0.950 . S
C920 C919 1.524 . S
C920 C921 1.415 . S
C921 H891 0.950 . S
C921 C916 1.363 . S
C921 C920 1.415 . S
H922 C919 0.999 . S
H923 C904 0.913 . S
H924 C942 0.951 . S
H925 C944 0.951 . S
H926 C946 0.950 . S
H927 C947 0.950 . S
H928 C949 0.950 . S
H929 C952 0.950 . S
H930 C953 0.950 . S
H931 C955 0.950 . S
H932 C956 0.950 1_554 S
H933 C957 0.951 . S
H934 C959 0.951 . S
H935 C961 0.950 . S
H936 C962 0.950 . S
H937 C964 0.950 . S
H938 C967 0.950 . S
H939 C968 0.950 . S
H940 C970 0.950 . S
H941 C971 0.950 1_556 S
C942 H924 0.951 . S
C942 C943 1.366 . S
C942 C944 1.388 . S
C943 C942 1.366 . S
C943 C947 1.385 . S
C944 H925 0.951 . S
C944 C942 1.388 . S
C944 C945 1.366 . S
C945 C944 1.366 . S
C945 C946 1.414 . S
C945 C948 1.499 . S
C946 H926 0.950 . S
C946 C945 1.414 . S
C946 C947 1.374 . S
C947 H927 0.950 . S
C947 C943 1.385 . S
C947 C946 1.374 . S
C948 C945 1.499 . S
C948 C949 1.373 . S
C948 C950 1.389 . S
C949 H928 0.950 . S
C949 C948 1.373 . S
C949 C965 1.377 1_556 S
C950 C948 1.389 . S
C950 C951 1.524 . S
C950 C964 1.377 1_556 S
C951 C950 1.524 . S
C951 C952 1.397 . S
C951 C956 1.363 . S
C952 H929 0.950 . S
C952 C951 1.397 . S
C952 C953 1.334 . S
C953 H930 0.950 . S
C953 C952 1.334 . S
C953 C954 1.287 . S
C954 C953 1.287 . S
C954 C955 1.524 . S
C954 H973 0.913 . S
C955 H931 0.950 . S
C955 C954 1.524 . S
C955 C956 1.415 . S
C956 H932 0.950 1_556 S
C956 C951 1.363 . S
C956 C955 1.415 . S
C957 H933 0.951 . S
C957 C958 1.366 . S
C957 C959 1.388 . S
C958 C957 1.366 . S
C958 C962 1.385 . S
C959 H934 0.951 . S
C959 C957 1.388 . S
C959 C960 1.366 . S
C960 C959 1.366 . S
C960 C961 1.414 . S
C960 C963 1.499 . S
C961 H935 0.950 . S
C961 C960 1.414 . S
C961 C962 1.374 . S
C962 H936 0.950 . S
C962 C958 1.385 . S
C962 C961 1.374 . S
C963 C960 1.499 . S
C963 C964 1.373 . S
C963 C965 1.389 . S
C964 H937 0.950 . S
C964 C950 1.377 1_554 S
C964 C963 1.373 . S
C965 C949 1.377 1_554 S
C965 C963 1.389 . S
C965 C966 1.524 . S
C966 C965 1.524 . S
C966 C967 1.397 . S
C966 C971 1.363 . S
C967 H938 0.950 . S
C967 C966 1.397 . S
C967 C968 1.334 . S
C968 H939 0.950 . S
C968 C967 1.334 . S
C968 C969 1.287 . S
C969 C968 1.287 . S
C969 C970 1.524 . S
C969 H972 0.999 . S
C970 H940 0.950 . S
C970 C969 1.524 . S
C970 C971 1.415 . S
C971 H941 0.950 1_554 S
C971 C966 1.363 . S
C971 C970 1.415 . S
H972 C969 0.999 . S
H973 C954 0.913 . S
H974 C992 0.951 . S
H975 C994 0.951 . S
H976 C996 0.950 . S
H977 C997 0.950 . S
H978 C999 0.950 . S
H979 C1002 0.950 . S
H980 C1003 0.950 . S
H981 C1005 0.950 . S
H982 C1006 0.950 . S
H983 C1007 0.951 . S
H984 C1009 0.951 . S
H985 C1011 0.950 . S
H986 C1012 0.950 . S
H987 C1014 0.950 . S
H988 C1017 0.950 . S
H989 C1018 0.950 . S
H990 C1020 0.950 . S
H991 C1021 0.950 . S
C992 H974 0.951 . S
C992 C993 1.366 . S
C992 C994 1.388 . S
C993 C992 1.366 . S
C993 C997 1.385 1_455 S
C994 H975 0.951 . S
C994 C992 1.388 . S
C994 C995 1.366 . S
C995 C994 1.366 . S
C995 C996 1.414 1_455 S
C995 C998 1.499 . S
C996 H976 0.950 . S
C996 C995 1.414 1_655 S
C996 C997 1.374 . S
C997 H977 0.950 . S
C997 C993 1.385 1_655 S
C997 C996 1.374 . S
C998 C995 1.499 . S
C998 C999 1.373 1_455 S
C998 C1000 1.389 . S
C999 H978 0.950 . S
C999 C998 1.373 1_655 S
C999 C1015 1.377 . S
C1000 C998 1.389 . S
C1000 C1001 1.524 . S
C1000 C1014 1.377 . S
C1001 C1000 1.524 . S
C1001 C1002 1.397 . S
C1001 C1006 1.363 . S
C1002 H979 0.950 . S
C1002 C1001 1.397 . S
C1002 C1003 1.334 . S
C1003 H980 0.950 . S
C1003 C1002 1.334 . S
C1003 C1004 1.287 . S
C1004 C1003 1.287 . S
C1004 C1005 1.524 . S
C1004 H1023 0.913 . S
C1005 H981 0.950 . S
C1005 C1004 1.524 . S
C1005 C1006 1.415 . S
C1006 H982 0.950 . S
C1006 C1001 1.363 . S
C1006 C1005 1.415 . S
C1007 H983 0.951 . S
C1007 C1008 1.366 1_655 S
C1007 C1009 1.388 . S
C1008 C1007 1.366 1_455 S
C1008 C1012 1.385 . S
C1009 H984 0.951 . S
C1009 C1007 1.388 . S
C1009 C1010 1.366 1_655 S
C1010 C1009 1.366 1_455 S
C1010 C1011 1.414 . S
C1010 C1013 1.499 . S
C1011 H985 0.950 . S
C1011 C1010 1.414 . S
C1011 C1012 1.374 . S
C1012 H986 0.950 . S
C1012 C1008 1.385 . S
C1012 C1011 1.374 . S
C1013 C1010 1.499 . S
C1013 C1014 1.373 . S
C1013 C1015 1.389 1_455 S
C1014 H987 0.950 . S
C1014 C1000 1.377 . S
C1014 C1013 1.373 . S
C1015 C999 1.377 . S
C1015 C1013 1.389 1_655 S
C1015 C1016 1.524 . S
C1016 C1015 1.524 . S
C1016 C1017 1.397 . S
C1016 C1021 1.363 . S
C1017 H988 0.950 . S
C1017 C1016 1.397 . S
C1017 C1018 1.334 . S
C1018 H989 0.950 . S
C1018 C1017 1.334 . S
C1018 C1019 1.287 . S
C1019 C1018 1.287 . S
C1019 C1020 1.524 . S
C1019 H1022 0.999 . S
C1020 H990 0.950 . S
C1020 C1019 1.524 . S
C1020 C1021 1.415 . S
C1021 H991 0.950 . S
C1021 C1016 1.363 . S
C1021 C1020 1.415 . S
H1022 C1019 0.999 . S
H1023 C1004 0.913 . S
H1024 C1042 0.951 . S
H1025 C1044 0.951 . S
H1026 C1046 0.950 . S
H1027 C1047 0.950 . S
H1028 C1049 0.950 . S
H1029 C1052 0.950 . S
H1030 C1053 0.950 . S
H1031 C1055 0.950 . S
H1032 C1056 0.950 . S
H1033 C1057 0.951 . S
H1034 C1059 0.951 . S
H1035 C1061 0.950 . S
H1036 C1062 0.950 1_545 S
H1037 C1064 0.950 . S
H1038 C1067 0.950 . S
H1039 C1068 0.950 . S
H1040 C1070 0.950 . S
H1041 C1071 0.950 . S
C1042 H1024 0.951 . S
C1042 C1043 1.366 . S
C1042 C1044 1.388 . S
C1043 C1042 1.366 . S
C1043 C1047 1.385 . S
C1044 H1025 0.951 . S
C1044 C1042 1.388 . S
C1044 C1045 1.366 . S
C1045 C1044 1.366 . S
C1045 C1046 1.414 . S
C1045 C1048 1.499 . S
C1046 H1026 0.950 . S
C1046 C1045 1.414 . S
C1046 C1047 1.374 . S
C1047 H1027 0.950 . S
C1047 C1043 1.385 . S
C1047 C1046 1.374 . S
C1048 C1045 1.499 . S
C1048 C1049 1.373 . S
C1048 C1050 1.389 . S
C1049 H1028 0.950 . S
C1049 C1048 1.373 . S
C1049 C1065 1.377 . S
C1050 C1048 1.389 . S
C1050 C1051 1.524 . S
C1050 C1064 1.377 . S
C1051 C1050 1.524 . S
C1051 C1052 1.397 . S
C1051 C1056 1.363 . S
C1052 H1029 0.950 . S
C1052 C1051 1.397 . S
C1052 C1053 1.334 . S
C1053 H1030 0.950 . S
C1053 C1052 1.334 . S
C1053 C1054 1.287 . S
C1054 C1053 1.287 . S
C1054 C1055 1.524 . S
C1054 H1073 0.913 . S
C1055 H1031 0.950 . S
C1055 C1054 1.524 . S
C1055 C1056 1.415 . S
C1056 H1032 0.950 . S
C1056 C1051 1.363 . S
C1056 C1055 1.415 . S
C1057 H1033 0.951 . S
C1057 C1058 1.366 1_565 S
C1057 C1059 1.388 . S
C1058 C1057 1.366 1_545 S
C1058 C1062 1.385 1_545 S
C1059 H1034 0.951 . S
C1059 C1057 1.388 . S
C1059 C1060 1.366 . S
C1060 C1059 1.366 . S
C1060 C1061 1.414 . S
C1060 C1063 1.499 . S
C1061 H1035 0.950 . S
C1061 C1060 1.414 . S
C1061 C1062 1.374 . S
C1062 H1036 0.950 1_565 S
C1062 C1058 1.385 1_565 S
C1062 C1061 1.374 . S
C1063 C1060 1.499 . S
C1063 C1064 1.373 . S
C1063 C1065 1.389 . S
C1064 H1037 0.950 . S
C1064 C1050 1.377 . S
C1064 C1063 1.373 . S
C1065 C1049 1.377 . S
C1065 C1063 1.389 . S
C1065 C1066 1.524 . S
C1066 C1065 1.524 . S
C1066 C1067 1.397 . S
C1066 C1071 1.363 . S
C1067 H1038 0.950 . S
C1067 C1066 1.397 . S
C1067 C1068 1.334 . S
C1068 H1039 0.950 . S
C1068 C1067 1.334 . S
C1068 C1069 1.287 . S
C1069 C1068 1.287 . S
C1069 C1070 1.524 . S
C1069 H1072 0.999 . S
C1070 H1040 0.950 . S
C1070 C1069 1.524 . S
C1070 C1071 1.415 . S
C1071 H1041 0.950 . S
C1071 C1066 1.363 . S
C1071 C1070 1.415 . S
H1072 C1069 0.999 . S
H1073 C1054 0.913 . S
H1074 C1092 0.951 . S
H1075 C1094 0.951 . S
H1076 C1096 0.950 . S
H1077 C1097 0.950 . S
H1078 C1099 0.950 . S
H1079 C1102 0.950 . S
H1080 C1103 0.950 . S
H1081 C1105 0.950 . S
H1082 C1106 0.950 . S
H1083 C1107 0.951 . S
H1084 C1109 0.951 . S
H1085 C1111 0.950 . S
H1086 C1112 0.950 1_545 S
H1087 C1114 0.950 . S
H1088 C1117 0.950 . S
H1089 C1118 0.950 . S
H1090 C1120 0.950 . S
H1091 C1121 0.950 . S
C1092 H1074 0.951 . S
C1092 C1093 1.366 . S
C1092 C1094 1.388 . S
C1093 C1092 1.366 . S
C1093 C1097 1.385 . S
C1094 H1075 0.951 . S
C1094 C1092 1.388 . S
C1094 C1095 1.366 . S
C1095 C1094 1.366 . S
C1095 C1096 1.414 . S
C1095 C1098 1.499 . S
C1096 H1076 0.950 . S
C1096 C1095 1.414 . S
C1096 C1097 1.374 . S
C1097 H1077 0.950 . S
C1097 C1093 1.385 . S
C1097 C1096 1.374 . S
C1098 C1095 1.499 . S
C1098 C1099 1.373 . S
C1098 C1100 1.389 . S
C1099 H1078 0.950 . S
C1099 C1098 1.373 . S
C1099 C1115 1.377 . S
C1100 C1098 1.389 . S
C1100 C1101 1.524 . S
C1100 C1114 1.377 . S
C1101 C1100 1.524 . S
C1101 C1102 1.397 . S
C1101 C1106 1.363 . S
C1102 H1079 0.950 . S
C1102 C1101 1.397 . S
C1102 C1103 1.334 . S
C1103 H1080 0.950 . S
C1103 C1102 1.334 . S
C1103 C1104 1.287 . S
C1104 C1103 1.287 . S
C1104 C1105 1.524 . S
C1104 H1123 0.913 . S
C1105 H1081 0.950 . S
C1105 C1104 1.524 . S
C1105 C1106 1.415 . S
C1106 H1082 0.950 . S
C1106 C1101 1.363 . S
C1106 C1105 1.415 . S
C1107 H1083 0.951 . S
C1107 C1108 1.366 1_565 S
C1107 C1109 1.388 . S
C1108 C1107 1.366 1_545 S
C1108 C1112 1.385 1_545 S
C1109 H1084 0.951 . S
C1109 C1107 1.388 . S
C1109 C1110 1.366 . S
C1110 C1109 1.366 . S
C1110 C1111 1.414 . S
C1110 C1113 1.499 . S
C1111 H1085 0.950 . S
C1111 C1110 1.414 . S
C1111 C1112 1.374 . S
C1112 H1086 0.950 1_565 S
C1112 C1108 1.385 1_565 S
C1112 C1111 1.374 . S
C1113 C1110 1.499 . S
C1113 C1114 1.373 . S
C1113 C1115 1.389 . S
C1114 H1087 0.950 . S
C1114 C1100 1.377 . S
C1114 C1113 1.373 . S
C1115 C1099 1.377 . S
C1115 C1113 1.389 . S
C1115 C1116 1.524 . S
C1116 C1115 1.524 . S
C1116 C1117 1.397 . S
C1116 C1121 1.363 . S
C1117 H1088 0.950 . S
C1117 C1116 1.397 . S
C1117 C1118 1.334 . S
C1118 H1089 0.950 . S
C1118 C1117 1.334 . S
C1118 C1119 1.287 . S
C1119 C1118 1.287 . S
C1119 C1120 1.524 . S
C1119 H1122 0.999 . S
C1120 H1090 0.950 . S
C1120 C1119 1.524 . S
C1120 C1121 1.415 . S
C1121 H1091 0.950 . S
C1121 C1116 1.363 . S
C1121 C1120 1.415 . S
H1122 C1119 0.999 . S
H1123 C1104 0.913 . S
H1124 C1142 0.951 . S
H1125 C1144 0.951 . S
H1126 C1146 0.950 . S
H1127 C1147 0.950 . S
H1128 C1149 0.950 . S
H1129 C1152 0.950 . S
H1130 C1153 0.950 . S
H1131 C1155 0.950 . S
H1132 C1156 0.950 . S
H1133 C1157 0.951 . S
H1134 C1159 0.951 . S
H1135 C1161 0.950 . S
H1136 C1162 0.950 . S
H1137 C1164 0.950 . S
H1138 C1167 0.950 . S
H1139 C1168 0.950 . S
H1140 C1170 0.950 . S
H1141 C1171 0.950 . S
C1142 H1124 0.951 . S
C1142 C1143 1.366 . S
C1142 C1144 1.388 1_565 S
C1143 C1142 1.366 . S
C1143 C1147 1.385 1_565 S
C1144 H1125 0.951 . S
C1144 C1142 1.388 1_545 S
C1144 C1145 1.366 . S
C1145 C1144 1.366 . S
C1145 C1146 1.414 . S
C1145 C1148 1.499 . S
C1146 H1126 0.950 . S
C1146 C1145 1.414 . S
C1146 C1147 1.374 . S
C1147 H1127 0.950 . S
C1147 C1143 1.385 1_545 S
C1147 C1146 1.374 . S
C1148 C1145 1.499 . S
C1148 C1149 1.373 . S
C1148 C1150 1.389 . S
C1149 H1128 0.950 . S
C1149 C1148 1.373 . S
C1149 C1165 1.377 . S
C1150 C1148 1.389 . S
C1150 C1151 1.524 . S
C1150 C1164 1.377 . S
C1151 C1150 1.524 . S
C1151 C1152 1.397 . S
C1151 C1156 1.363 . S
C1152 H1129 0.950 . S
C1152 C1151 1.397 . S
C1152 C1153 1.334 . S
C1153 H1130 0.950 . S
C1153 C1152 1.334 . S
C1153 C1154 1.287 . S
C1154 C1153 1.287 . S
C1154 C1155 1.524 . S
C1154 H1173 0.913 . S
C1155 H1131 0.950 . S
C1155 C1154 1.524 . S
C1155 C1156 1.415 . S
C1156 H1132 0.950 . S
C1156 C1151 1.363 . S
C1156 C1155 1.415 . S
C1157 H1133 0.951 . S
C1157 C1158 1.366 . S
C1157 C1159 1.388 . S
C1158 C1157 1.366 . S
C1158 C1162 1.385 . S
C1159 H1134 0.951 . S
C1159 C1157 1.388 . S
C1159 C1160 1.366 . S
C1160 C1159 1.366 . S
C1160 C1161 1.414 . S
C1160 C1163 1.499 . S
C1161 H1135 0.950 . S
C1161 C1160 1.414 . S
C1161 C1162 1.374 . S
C1162 H1136 0.950 . S
C1162 C1158 1.385 . S
C1162 C1161 1.374 . S
C1163 C1160 1.499 . S
C1163 C1164 1.373 . S
C1163 C1165 1.389 . S
C1164 H1137 0.950 . S
C1164 C1150 1.377 . S
C1164 C1163 1.373 . S
C1165 C1149 1.377 . S
C1165 C1163 1.389 . S
C1165 C1166 1.524 . S
C1166 C1165 1.524 . S
C1166 C1167 1.397 . S
C1166 C1171 1.363 . S
C1167 H1138 0.950 . S
C1167 C1166 1.397 . S
C1167 C1168 1.334 . S
C1168 H1139 0.950 . S
C1168 C1167 1.334 . S
C1168 C1169 1.287 . S
C1169 C1168 1.287 . S
C1169 C1170 1.524 . S
C1169 H1172 0.999 . S
C1170 H1140 0.950 . S
C1170 C1169 1.524 . S
C1170 C1171 1.415 . S
C1171 H1141 0.950 . S
C1171 C1166 1.363 . S
C1171 C1170 1.415 . S
H1172 C1169 0.999 . S
H1173 C1154 0.913 . S
H1174 C1192 0.951 . S
H1175 C1194 0.951 . S
H1176 C1196 0.950 . S
H1177 C1197 0.950 . S
H1178 C1199 0.950 . S
H1179 C1202 0.950 . S
H1180 C1203 0.950 . S
H1181 C1205 0.950 . S
H1182 C1206 0.950 . S
H1183 C1207 0.951 . S
H1184 C1209 0.951 . S
H1185 C1211 0.950 . S
H1186 C1212 0.950 . S
H1187 C1214 0.950 . S
H1188 C1217 0.950 . S
H1189 C1218 0.950 . S
H1190 C1220 0.950 . S
H1191 C1221 0.950 . S
C1192 H1174 0.951 . S
C1192 C1193 1.366 1_545 S
C1192 C1194 1.388 . S
C1193 C1192 1.366 1_565 S
C1193 C1197 1.385 . S
C1194 H1175 0.951 . S
C1194 C1192 1.388 . S
C1194 C1195 1.366 . S
C1195 C1194 1.366 . S
C1195 C1196 1.414 . S
C1195 C1198 1.499 . S
C1196 H1176 0.950 . S
C1196 C1195 1.414 . S
C1196 C1197 1.374 1_545 S
C1197 H1177 0.950 . S
C1197 C1193 1.385 . S
C1197 C1196 1.374 1_565 S
C1198 C1195 1.499 . S
C1198 C1199 1.373 . S
C1198 C1200 1.389 . S
C1199 H1178 0.950 . S
C1199 C1198 1.373 . S
C1199 C1215 1.377 . S
C1200 C1198 1.389 . S
C1200 C1201 1.524 . S
C1200 C1214 1.377 . S
C1201 C1200 1.524 . S
C1201 C1202 1.397 . S
C1201 C1206 1.363 . S
C1202 H1179 0.950 . S
C1202 C1201 1.397 . S
C1202 C1203 1.334 . S
C1203 H1180 0.950 . S
C1203 C1202 1.334 . S
C1203 C1204 1.287 . S
C1204 C1203 1.287 . S
C1204 C1205 1.524 . S
C1204 H1223 0.913 . S
C1205 H1181 0.950 . S
C1205 C1204 1.524 . S
C1205 C1206 1.415 . S
C1206 H1182 0.950 . S
C1206 C1201 1.363 . S
C1206 C1205 1.415 . S
C1207 H1183 0.951 . S
C1207 C1208 1.366 . S
C1207 C1209 1.388 . S
C1208 C1207 1.366 . S
C1208 C1212 1.385 . S
C1209 H1184 0.951 . S
C1209 C1207 1.388 . S
C1209 C1210 1.366 . S
C1210 C1209 1.366 . S
C1210 C1211 1.414 . S
C1210 C1213 1.499 . S
C1211 H1185 0.950 . S
C1211 C1210 1.414 . S
C1211 C1212 1.374 . S
C1212 H1186 0.950 . S
C1212 C1208 1.385 . S
C1212 C1211 1.374 . S
C1213 C1210 1.499 . S
C1213 C1214 1.373 . S
C1213 C1215 1.389 . S
C1214 H1187 0.950 . S
C1214 C1200 1.377 . S
C1214 C1213 1.373 . S
C1215 C1199 1.377 . S
C1215 C1213 1.389 . S
C1215 C1216 1.524 . S
C1216 C1215 1.524 . S
C1216 C1217 1.397 . S
C1216 C1221 1.363 . S
C1217 H1188 0.950 . S
C1217 C1216 1.397 . S
C1217 C1218 1.334 . S
C1218 H1189 0.950 . S
C1218 C1217 1.334 . S
C1218 C1219 1.287 . S
C1219 C1218 1.287 . S
C1219 C1220 1.524 . S
C1219 H1222 0.999 . S
C1220 H1190 0.950 . S
C1220 C1219 1.524 . S
C1220 C1221 1.415 . S
C1221 H1191 0.950 . S
C1221 C1216 1.363 . S
C1221 C1220 1.415 . S
H1222 C1219 0.999 . S
H1223 C1204 0.913 . S
H1224 C1242 0.951 . S
H1225 C1244 0.951 . S
H1226 C1246 0.950 . S
H1227 C1247 0.950 1_455 S
H1228 C1249 0.950 . S
H1229 C1252 0.950 . S
H1230 C1253 0.950 . S
H1231 C1255 0.943 1_565 S
H1232 C1256 0.950 . S
H1233 C1257 0.951 . S
H1234 C1259 0.951 . S
H1235 C1261 0.950 . S
H1236 C1262 0.950 . S
H1237 C1264 0.950 . S
H1238 C1267 0.950 . S
H1239 C1268 0.950 . S
H1240 C1270 0.950 . S
H1241 C1271 0.950 . S
C1242 H1224 0.951 . S
C1242 C1243 1.366 . S
C1242 C1244 1.388 . S
C1243 C1242 1.366 . S
C1243 C1247 1.385 . S
C1244 H1225 0.951 . S
C1244 C1242 1.388 . S
C1244 C1245 1.366 . S
C1245 C1244 1.366 . S
C1245 C1246 1.414 . S
C1245 C1248 1.499 . S
C1246 H1226 0.950 . S
C1246 C1245 1.414 . S
C1246 C1247 1.374 . S
C1247 H1227 0.950 1_655 S
C1247 C1243 1.385 . S
C1247 C1246 1.374 . S
C1248 C1245 1.499 . S
C1248 C1249 1.373 . S
C1248 C1250 1.389 . S
C1249 H1228 0.950 . S
C1249 C1248 1.373 . S
C1249 C1265 1.377 . S
C1250 C1248 1.389 . S
C1250 C1251 1.524 . S
C1250 C1264 1.377 . S
C1251 C1250 1.524 . S
C1251 C1252 1.397 . S
C1251 C1256 1.363 . S
C1252 H1229 0.950 . S
C1252 C1251 1.397 . S
C1252 C1253 1.334 1_545 S
C1253 H1230 0.950 . S
C1253 C1252 1.334 1_565 S
C1253 C1254 1.287 . S
C1254 C1253 1.287 . S
C1254 C1255 1.515 1_565 S
C1254 H1273 0.913 . S
C1255 H1231 0.943 1_545 S
C1255 C1254 1.515 1_545 S
C1255 C1256 1.432 . S
C1256 H1232 0.950 . S
C1256 C1251 1.363 . S
C1256 C1255 1.432 . S
C1257 H1233 0.951 . S
C1257 C1258 1.366 . S
C1257 C1259 1.388 . S
C1258 C1257 1.366 . S
C1258 C1262 1.385 . S
C1259 H1234 0.951 . S
C1259 C1257 1.388 . S
C1259 C1260 1.366 . S
C1260 C1259 1.366 . S
C1260 C1261 1.414 . S
C1260 C1263 1.499 . S
C1261 H1235 0.950 . S
C1261 C1260 1.414 . S
C1261 C1262 1.374 . S
C1262 H1236 0.950 . S
C1262 C1258 1.385 . S
C1262 C1261 1.374 . S
C1263 C1260 1.499 . S
C1263 C1264 1.373 . S
C1263 C1265 1.389 . S
C1264 H1237 0.950 . S
C1264 C1250 1.377 . S
C1264 C1263 1.373 . S
C1265 C1249 1.377 . S
C1265 C1263 1.389 . S
C1265 C1266 1.524 . S
C1266 C1265 1.524 . S
C1266 C1267 1.397 . S
C1266 C1271 1.363 . S
C1267 H1238 0.950 . S
C1267 C1266 1.397 . S
C1267 C1268 1.334 . S
C1268 H1239 0.950 . S
C1268 C1267 1.334 . S
C1268 C1269 1.287 . S
C1269 C1268 1.287 . S
C1269 C1270 1.524 . S
C1269 H1272 0.999 . S
C1270 H1240 0.950 . S
C1270 C1269 1.524 . S
C1270 C1271 1.415 . S
C1271 H1241 0.950 . S
C1271 C1266 1.363 . S
C1271 C1270 1.415 . S
H1272 C1269 0.999 . S
H1273 C1254 0.913 . S
H1274 C1292 0.951 . S
H1275 C1294 0.951 . S
H1276 C1296 0.950 . S
H1277 C1297 0.950 . S
H1278 C1299 0.950 . S
H1279 C1302 0.950 . S
H1280 C1303 0.950 . S
H1281 C1305 0.950 . S
H1282 C1306 0.950 . S
H1283 C1307 0.951 . S
H1284 C1309 0.951 . S
H1285 C1311 0.950 . S
H1286 C1312 0.950 . S
H1287 C1314 0.950 . S
H1288 C1317 0.950 . S
H1289 C1318 0.950 . S
H1290 C1320 0.950 . S
H1291 C1321 0.950 . S
C1292 H1274 0.951 . S
C1292 C1293 1.366 . S
C1292 C1294 1.388 . S
C1293 C1292 1.366 . S
C1293 C1297 1.385 . S
C1294 H1275 0.951 . S
C1294 C1292 1.388 . S
C1294 C1295 1.366 . S
C1295 C1294 1.366 . S
C1295 C1296 1.414 . S
C1295 C1298 1.499 . S
C1296 H1276 0.950 . S
C1296 C1295 1.414 . S
C1296 C1297 1.374 . S
C1297 H1277 0.950 . S
C1297 C1293 1.385 . S
C1297 C1296 1.374 . S
C1298 C1295 1.499 . S
C1298 C1299 1.373 . S
C1298 C1300 1.389 . S
C1299 H1278 0.950 . S
C1299 C1298 1.373 . S
C1299 C1315 1.377 . S
C1300 C1298 1.389 . S
C1300 C1301 1.524 . S
C1300 C1314 1.377 . S
C1301 C1300 1.524 . S
C1301 C1302 1.397 . S
C1301 C1306 1.363 . S
C1302 H1279 0.950 . S
C1302 C1301 1.397 . S
C1302 C1303 1.334 . S
C1303 H1280 0.950 . S
C1303 C1302 1.334 . S
C1303 C1304 1.287 . S
C1304 C1303 1.287 . S
C1304 C1305 1.524 . S
C1304 H1323 0.913 . S
C1305 H1281 0.950 . S
C1305 C1304 1.524 . S
C1305 C1306 1.415 . S
C1306 H1282 0.950 . S
C1306 C1301 1.363 . S
C1306 C1305 1.415 . S
C1307 H1283 0.951 . S
C1307 C1308 1.366 . S
C1307 C1309 1.388 . S
C1308 C1307 1.366 . S
C1308 C1312 1.385 . S
C1309 H1284 0.951 . S
C1309 C1307 1.388 . S
C1309 C1310 1.366 . S
C1310 C1309 1.366 . S
C1310 C1311 1.414 . S
C1310 C1313 1.499 . S
C1311 H1285 0.950 . S
C1311 C1310 1.414 . S
C1311 C1312 1.374 . S
C1312 H1286 0.950 . S
C1312 C1308 1.385 . S
C1312 C1311 1.374 . S
C1313 C1310 1.499 . S
C1313 C1314 1.373 . S
C1313 C1315 1.389 . S
C1314 H1287 0.950 . S
C1314 C1300 1.377 . S
C1314 C1313 1.373 . S
C1315 C1299 1.377 . S
C1315 C1313 1.389 . S
C1315 C1316 1.524 . S
C1316 C1315 1.524 . S
C1316 C1317 1.397 . S
C1316 C1321 1.363 . S
C1317 H1288 0.950 . S
C1317 C1316 1.397 . S
C1317 C1318 1.334 . S
C1318 H1289 0.950 . S
C1318 C1317 1.334 . S
C1318 C1319 1.287 . S
C1319 C1318 1.287 . S
C1319 C1320 1.524 . S
C1319 H1322 0.999 . S
C1320 H1290 0.950 . S
C1320 C1319 1.524 . S
C1320 C1321 1.415 . S
C1321 H1291 0.950 . S
C1321 C1316 1.363 . S
C1321 C1320 1.415 . S
H1322 C1319 0.999 . S
H1323 C1304 0.913 . S
H1324 C1342 0.951 . S
H1325 C1344 0.951 . S
H1326 C1346 0.950 . S
H1327 C1347 0.950 . S
H1328 C1349 0.950 . S
H1329 C1352 0.950 . S
H1330 C1353 0.950 . S
H1331 C1355 0.950 . S
H1332 C1356 0.950 . S
H1333 C1357 0.951 . S
H1334 C1359 0.951 . S
H1335 C1361 0.950 . S
H1336 C1362 0.950 1_545 S
H1337 C1364 0.950 . S
H1338 C1367 0.950 . S
H1339 C1368 0.950 . S
H1340 C1370 0.950 . S
H1341 C1371 0.950 . S
C1342 H1324 0.951 . S
C1342 C1343 1.366 . S
C1342 C1344 1.388 . S
C1343 C1342 1.366 . S
C1343 C1347 1.385 . S
C1344 H1325 0.951 . S
C1344 C1342 1.388 . S
C1344 C1345 1.366 . S
C1345 C1344 1.366 . S
C1345 C1346 1.414 . S
C1345 C1348 1.499 . S
C1346 H1326 0.950 . S
C1346 C1345 1.414 . S
C1346 C1347 1.374 . S
C1347 H1327 0.950 . S
C1347 C1343 1.385 . S
C1347 C1346 1.374 . S
C1348 C1345 1.499 . S
C1348 C1349 1.373 . S
C1348 C1350 1.389 . S
C1349 H1328 0.950 . S
C1349 C1348 1.373 . S
C1349 C1365 1.377 . S
C1350 C1348 1.389 . S
C1350 C1351 1.524 . S
C1350 C1364 1.377 . S
C1351 C1350 1.524 . S
C1351 C1352 1.397 . S
C1351 C1356 1.363 . S
C1352 H1329 0.950 . S
C1352 C1351 1.397 . S
C1352 C1353 1.334 . S
C1353 H1330 0.950 . S
C1353 C1352 1.334 . S
C1353 C1354 1.287 . S
C1354 C1353 1.287 . S
C1354 C1355 1.524 . S
C1354 H1373 0.913 . S
C1355 H1331 0.950 . S
C1355 C1354 1.524 . S
C1355 C1356 1.415 . S
C1356 H1332 0.950 . S
C1356 C1351 1.363 . S
C1356 C1355 1.415 . S
C1357 H1333 0.951 . S
C1357 C1358 1.366 . S
C1357 C1359 1.388 . S
C1358 C1357 1.366 . S
C1358 C1362 1.385 . S
C1359 H1334 0.951 . S
C1359 C1357 1.388 . S
C1359 C1360 1.366 . S
C1360 C1359 1.366 . S
C1360 C1361 1.414 . S
C1360 C1363 1.499 . S
C1361 H1335 0.950 . S
C1361 C1360 1.414 . S
C1361 C1362 1.374 . S
C1362 H1336 0.950 1_565 S
C1362 C1358 1.385 . S
C1362 C1361 1.374 . S
C1363 C1360 1.499 . S
C1363 C1364 1.373 . S
C1363 C1365 1.389 . S
C1364 H1337 0.950 . S
C1364 C1350 1.377 . S
C1364 C1363 1.373 . S
C1365 C1349 1.377 . S
C1365 C1363 1.389 . S
C1365 C1366 1.524 . S
C1366 C1365 1.524 . S
C1366 C1367 1.397 . S
C1366 C1371 1.363 . S
C1367 H1338 0.950 . S
C1367 C1366 1.397 . S
C1367 C1368 1.334 . S
C1368 H1339 0.950 . S
C1368 C1367 1.334 . S
C1368 C1369 1.287 . S
C1369 C1368 1.287 . S
C1369 C1370 1.524 . S
C1369 H1372 0.999 . S
C1370 H1340 0.950 . S
C1370 C1369 1.524 . S
C1370 C1371 1.415 . S
C1371 H1341 0.950 . S
C1371 C1366 1.363 . S
C1371 C1370 1.415 . S
H1372 C1369 0.999 . S
H1373 C1354 0.913 . S
H1374 C1392 0.951 . S
H1375 C1394 0.951 . S
H1376 C1396 0.950 . S
H1377 C1397 0.950 . S
H1378 C1399 0.950 . S
H1379 C1402 0.950 . S
H1380 C1403 0.950 . S
H1381 C1405 0.950 . S
H1382 C1406 0.950 . S
H1383 C1407 0.951 1_455 S
H1384 C1409 0.951 . S
H1385 C1411 0.950 . S
H1386 C1412 0.950 1_545 S
H1387 C1414 0.950 . S
H1388 C1417 0.950 . S
H1389 C1418 0.950 . S
H1390 C1420 0.950 . S
H1391 C1421 0.950 . S
C1392 H1374 0.951 . S
C1392 C1393 1.366 . S
C1392 C1394 1.388 . S
C1393 C1392 1.366 . S
C1393 C1397 1.385 . S
C1394 H1375 0.951 . S
C1394 C1392 1.388 . S
C1394 C1395 1.366 . S
C1395 C1394 1.366 . S
C1395 C1396 1.414 . S
C1395 C1398 1.499 . S
C1396 H1376 0.950 . S
C1396 C1395 1.414 . S
C1396 C1397 1.374 . S
C1397 H1377 0.950 . S
C1397 C1393 1.385 . S
C1397 C1396 1.374 . S
C1398 C1395 1.499 . S
C1398 C1399 1.373 . S
C1398 C1400 1.389 . S
C1399 H1378 0.950 . S
C1399 C1398 1.373 . S
C1399 C1415 1.377 . S
C1400 C1398 1.389 . S
C1400 C1401 1.524 . S
C1400 C1414 1.377 . S
C1401 C1400 1.524 . S
C1401 C1402 1.397 . S
C1401 C1406 1.363 . S
C1402 H1379 0.950 . S
C1402 C1401 1.397 . S
C1402 C1403 1.334 . S
C1403 H1380 0.950 . S
C1403 C1402 1.334 . S
C1403 C1404 1.287 . S
C1404 C1403 1.287 . S
C1404 C1405 1.524 . S
C1404 H1423 0.913 . S
C1405 H1381 0.950 . S
C1405 C1404 1.524 . S
C1405 C1406 1.415 . S
C1406 H1382 0.950 . S
C1406 C1401 1.363 . S
C1406 C1405 1.415 . S
C1407 H1383 0.951 1_655 S
C1407 C1408 1.366 . S
C1407 C1409 1.388 . S
C1408 C1407 1.366 . S
C1408 C1412 1.385 . S
C1409 H1384 0.951 . S
C1409 C1407 1.388 . S
C1409 C1410 1.366 . S
C1410 C1409 1.366 . S
C1410 C1411 1.414 . S
C1410 C1413 1.499 . S
C1411 H1385 0.950 . S
C1411 C1410 1.414 . S
C1411 C1412 1.374 . S
C1412 H1386 0.950 1_565 S
C1412 C1408 1.385 . S
C1412 C1411 1.374 . S
C1413 C1410 1.499 . S
C1413 C1414 1.373 . S
C1413 C1415 1.389 . S
C1414 H1387 0.950 . S
C1414 C1400 1.377 . S
C1414 C1413 1.373 . S
C1415 C1399 1.377 . S
C1415 C1413 1.389 . S
C1415 C1416 1.524 . S
C1416 C1415 1.524 . S
C1416 C1417 1.397 . S
C1416 C1421 1.363 . S
C1417 H1388 0.950 . S
C1417 C1416 1.397 . S
C1417 C1418 1.334 . S
C1418 H1389 0.950 . S
C1418 C1417 1.334 . S
C1418 C1419 1.287 . S
C1419 C1418 1.287 . S
C1419 C1420 1.524 . S
C1419 H1422 0.999 . S
C1420 H1390 0.950 . S
C1420 C1419 1.524 . S
C1420 C1421 1.415 . S
C1421 H1391 0.950 . S
C1421 C1416 1.363 . S
C1421 C1420 1.415 . S
H1422 C1419 0.999 . S
H1423 C1404 0.913 . S
H1424 C1442 0.951 . S
H1425 C1444 0.951 . S
H1426 C1446 0.950 . S
H1427 C1447 0.950 . S
H1428 C1449 0.950 . S
H1429 C1452 0.950 . S
H1430 C1453 0.950 . S
H1431 C1455 0.950 . S
H1432 C1456 0.950 . S
H1433 C1457 0.951 . S
H1434 C1459 0.951 . S
H1435 C1461 0.950 . S
H1436 C1462 0.950 . S
H1437 C1464 0.950 . S
H1438 C1467 0.950 . S
H1439 C1468 0.950 . S
H1440 C1470 0.950 . S
H1441 C1471 0.950 . S
C1442 H1424 0.951 . S
C1442 C1443 1.366 . S
C1442 C1444 1.388 . S
C1443 C1442 1.366 . S
C1443 C1447 1.385 . S
C1444 H1425 0.951 . S
C1444 C1442 1.388 . S
C1444 C1445 1.366 . S
C1445 C1444 1.366 . S
C1445 C1446 1.414 . S
C1445 C1448 1.499 . S
C1446 H1426 0.950 . S
C1446 C1445 1.414 . S
C1446 C1447 1.374 . S
C1447 H1427 0.950 . S
C1447 C1443 1.385 . S
C1447 C1446 1.374 . S
C1448 C1445 1.499 . S
C1448 C1449 1.373 . S
C1448 C1450 1.389 . S
C1449 H1428 0.950 . S
C1449 C1448 1.373 . S
C1449 C1465 1.377 . S
C1450 C1448 1.389 . S
C1450 C1451 1.524 . S
C1450 C1464 1.377 . S
C1451 C1450 1.524 . S
C1451 C1452 1.397 . S
C1451 C1456 1.363 . S
C1452 H1429 0.950 . S
C1452 C1451 1.397 . S
C1452 C1453 1.334 . S
C1453 H1430 0.950 . S
C1453 C1452 1.334 . S
C1453 C1454 1.287 . S
C1454 C1453 1.287 . S
C1454 C1455 1.524 . S
C1454 H1473 0.913 . S
C1455 H1431 0.950 . S
C1455 C1454 1.524 . S
C1455 C1456 1.415 . S
C1456 H1432 0.950 . S
C1456 C1451 1.363 . S
C1456 C1455 1.415 . S
C1457 H1433 0.951 . S
C1457 C1458 1.366 . S
C1457 C1459 1.388 . S
C1458 C1457 1.366 . S
C1458 C1462 1.385 . S
C1459 H1434 0.951 . S
C1459 C1457 1.388 . S
C1459 C1460 1.366 . S
C1460 C1459 1.366 . S
C1460 C1461 1.414 . S
C1460 C1463 1.499 . S
C1461 H1435 0.950 . S
C1461 C1460 1.414 . S
C1461 C1462 1.374 . S
C1462 H1436 0.950 . S
C1462 C1458 1.385 . S
C1462 C1461 1.374 . S
C1463 C1460 1.499 . S
C1463 C1464 1.373 . S
C1463 C1465 1.389 . S
C1464 H1437 0.950 . S
C1464 C1450 1.377 . S
C1464 C1463 1.373 . S
C1465 C1449 1.377 . S
C1465 C1463 1.389 . S
C1465 C1466 1.524 . S
C1466 C1465 1.524 . S
C1466 C1467 1.397 . S
C1466 C1471 1.363 . S
C1467 H1438 0.950 . S
C1467 C1466 1.397 . S
C1467 C1468 1.334 . S
C1468 H1439 0.950 . S
C1468 C1467 1.334 . S
C1468 C1469 1.287 . S
C1469 C1468 1.287 . S
C1469 C1470 1.524 . S
C1469 H1472 0.999 . S
C1470 H1440 0.950 . S
C1470 C1469 1.524 . S
C1470 C1471 1.415 . S
C1471 H1441 0.950 . S
C1471 C1466 1.363 . S
C1471 C1470 1.415 . S
H1472 C1469 0.999 . S
H1473 C1454 0.913 . S
H1474 C1492 0.951 . S
H1475 C1494 0.951 . S
H1476 C1496 0.950 . S
H1477 C1497 0.950 . S
H1478 C1499 0.950 . S
H1479 C1502 0.950 . S
H1480 C1503 0.950 . S
H1481 C1505 0.950 . S
H1482 C1506 0.950 . S
H1483 C1507 0.951 . S
H1484 C1509 0.951 . S
H1485 C1511 0.950 . S
H1486 C1512 0.950 . S
H1487 C1514 0.950 . S
H1488 C1517 0.950 . S
H1489 C1518 0.950 . S
H1490 C1520 0.950 . S
H1491 C1521 0.950 . S
C1492 H1474 0.951 . S
C1492 C1493 1.366 . S
C1492 C1494 1.388 . S
C1493 C1492 1.366 . S
C1493 C1497 1.385 . S
C1494 H1475 0.951 . S
C1494 C1492 1.388 . S
C1494 C1495 1.366 . S
C1495 C1494 1.366 . S
C1495 C1496 1.414 . S
C1495 C1498 1.499 . S
C1496 H1476 0.950 . S
C1496 C1495 1.414 . S
C1496 C1497 1.374 . S
C1497 H1477 0.950 . S
C1497 C1493 1.385 . S
C1497 C1496 1.374 . S
C1498 C1495 1.499 . S
C1498 C1499 1.373 . S
C1498 C1500 1.389 . S
C1499 H1478 0.950 . S
C1499 C1498 1.373 . S
C1499 C1515 1.377 . S
C1500 C1498 1.389 . S
C1500 C1501 1.524 . S
C1500 C1514 1.377 . S
C1501 C1500 1.524 . S
C1501 C1502 1.397 . S
C1501 C1506 1.363 . S
C1502 H1479 0.950 . S
C1502 C1501 1.397 . S
C1502 C1503 1.334 . S
C1503 H1480 0.950 . S
C1503 C1502 1.334 . S
C1503 C1504 1.287 . S
C1504 C1503 1.287 . S
C1504 C1505 1.524 . S
C1504 H1523 0.913 . S
C1505 H1481 0.950 . S
C1505 C1504 1.524 . S
C1505 C1506 1.415 . S
C1506 H1482 0.950 . S
C1506 C1501 1.363 . S
C1506 C1505 1.415 . S
C1507 H1483 0.951 . S
C1507 C1508 1.366 . S
C1507 C1509 1.388 . S
C1508 C1507 1.366 . S
C1508 C1512 1.385 . S
C1509 H1484 0.951 . S
C1509 C1507 1.388 . S
C1509 C1510 1.366 . S
C1510 C1509 1.366 . S
C1510 C1511 1.414 . S
C1510 C1513 1.499 . S
C1511 H1485 0.950 . S
C1511 C1510 1.414 . S
C1511 C1512 1.374 . S
C1512 H1486 0.950 . S
C1512 C1508 1.385 . S
C1512 C1511 1.374 . S
C1513 C1510 1.499 . S
C1513 C1514 1.373 . S
C1513 C1515 1.389 . S
C1514 H1487 0.950 . S
C1514 C1500 1.377 . S
C1514 C1513 1.373 . S
C1515 C1499 1.377 . S
C1515 C1513 1.389 . S
C1515 C1516 1.524 . S
C1516 C1515 1.524 . S
C1516 C1517 1.397 . S
C1516 C1521 1.363 . S
C1517 H1488 0.950 . S
C1517 C1516 1.397 . S
C1517 C1518 1.334 . S
C1518 H1489 0.950 . S
C1518 C1517 1.334 . S
C1518 C1519 1.287 . S
C1519 C1518 1.287 . S
C1519 C1520 1.524 . S
C1519 H1522 0.999 . S
C1520 H1490 0.950 . S
C1520 C1519 1.524 . S
C1520 C1521 1.415 . S
C1521 H1491 0.950 . S
C1521 C1516 1.363 . S
C1521 C1520 1.415 . S
H1522 C1519 0.999 . S
H1523 C1504 0.913 . S
H1524 C1542 0.951 . S
H1525 C1544 0.951 . S
H1526 C1546 0.950 . S
H1527 C1547 0.950 . S
H1528 C1549 0.950 . S
H1529 C1552 0.950 . S
H1530 C1553 0.950 . S
H1531 C1555 0.950 . S
H1532 C1556 0.950 . S
H1533 C1557 0.951 . S
H1534 C1559 0.951 . S
H1535 C1561 0.950 . S
H1536 C1562 0.950 . S
H1537 C1564 0.950 . S
H1538 C1567 0.950 . S
H1539 C1568 0.950 . S
H1540 C1570 0.950 . S
H1541 C1571 0.950 . S
C1542 H1524 0.951 . S
C1542 C1543 1.366 . S
C1542 C1544 1.388 . S
C1543 C1542 1.366 . S
C1543 C1547 1.385 . S
C1544 H1525 0.951 . S
C1544 C1542 1.388 . S
C1544 C1545 1.366 . S
C1545 C1544 1.366 . S
C1545 C1546 1.414 . S
C1545 C1548 1.499 . S
C1546 H1526 0.950 . S
C1546 C1545 1.414 . S
C1546 C1547 1.374 . S
C1547 H1527 0.950 . S
C1547 C1543 1.385 . S
C1547 C1546 1.374 . S
C1548 C1545 1.499 . S
C1548 C1549 1.373 . S
C1548 C1550 1.389 . S
C1549 H1528 0.950 . S
C1549 C1548 1.373 . S
C1549 C1565 1.377 . S
C1550 C1548 1.389 . S
C1550 C1551 1.524 . S
C1550 C1564 1.377 . S
C1551 C1550 1.524 . S
C1551 C1552 1.397 . S
C1551 C1556 1.363 . S
C1552 H1529 0.950 . S
C1552 C1551 1.397 . S
C1552 C1553 1.334 . S
C1553 H1530 0.950 . S
C1553 C1552 1.334 . S
C1553 C1554 1.287 . S
C1554 C1553 1.287 . S
C1554 C1555 1.524 . S
C1554 H1573 0.913 . S
C1555 H1531 0.950 . S
C1555 C1554 1.524 . S
C1555 C1556 1.415 . S
C1556 H1532 0.950 . S
C1556 C1551 1.363 . S
C1556 C1555 1.415 . S
C1557 H1533 0.951 . S
C1557 C1558 1.366 . S
C1557 C1559 1.388 . S
C1558 C1557 1.366 . S
C1558 C1562 1.385 . S
C1559 H1534 0.951 . S
C1559 C1557 1.388 . S
C1559 C1560 1.366 . S
C1560 C1559 1.366 . S
C1560 C1561 1.414 . S
C1560 C1563 1.499 . S
C1561 H1535 0.950 . S
C1561 C1560 1.414 . S
C1561 C1562 1.374 . S
C1562 H1536 0.950 . S
C1562 C1558 1.385 . S
C1562 C1561 1.374 . S
C1563 C1560 1.499 . S
C1563 C1564 1.373 . S
C1563 C1565 1.389 . S
C1564 H1537 0.950 . S
C1564 C1550 1.377 . S
C1564 C1563 1.373 . S
C1565 C1549 1.377 . S
C1565 C1563 1.389 . S
C1565 C1566 1.524 . S
C1566 C1565 1.524 . S
C1566 C1567 1.397 . S
C1566 C1571 1.363 . S
C1567 H1538 0.950 . S
C1567 C1566 1.397 . S
C1567 C1568 1.334 . S
C1568 H1539 0.950 . S
C1568 C1567 1.334 . S
C1568 C1569 1.287 . S
C1569 C1568 1.287 . S
C1569 C1570 1.524 . S
C1569 H1572 0.999 . S
C1570 H1540 0.950 . S
C1570 C1569 1.524 . S
C1570 C1571 1.415 . S
C1571 H1541 0.950 . S
C1571 C1566 1.363 . S
C1571 C1570 1.415 . S
H1572 C1569 0.999 . S
H1573 C1554 0.913 . S
H1574 C1592 0.951 . S
H1575 C1594 0.951 . S
H1576 C1596 0.950 . S
H1577 C1597 0.950 . S
H1578 C1599 0.950 . S
H1579 C1602 0.950 . S
H1580 C1603 0.950 . S
H1581 C1605 0.950 . S
H1582 C1606 0.950 . S
H1583 C1607 0.951 . S
H1584 C1609 0.951 . S
H1585 C1611 0.950 . S
H1586 C1612 0.950 . S
H1587 C1614 0.950 . S
H1588 C1617 0.950 . S
H1589 C1618 0.950 . S
H1590 C1620 0.950 . S
H1591 C1621 0.950 . S
C1592 H1574 0.951 . S
C1592 C1593 1.366 . S
C1592 C1594 1.388 . S
C1593 C1592 1.366 . S
C1593 C1597 1.385 . S
C1594 H1575 0.951 . S
C1594 C1592 1.388 . S
C1594 C1595 1.366 . S
C1595 C1594 1.366 . S
C1595 C1596 1.414 . S
C1595 C1598 1.499 . S
C1596 H1576 0.950 . S
C1596 C1595 1.414 . S
C1596 C1597 1.374 . S
C1597 H1577 0.950 . S
C1597 C1593 1.385 . S
C1597 C1596 1.374 . S
C1598 C1595 1.499 . S
C1598 C1599 1.373 . S
C1598 C1600 1.389 . S
C1599 H1578 0.950 . S
C1599 C1598 1.373 . S
C1599 C1615 1.377 . S
C1600 C1598 1.389 . S
C1600 C1601 1.524 . S
C1600 C1614 1.377 . S
C1601 C1600 1.524 . S
C1601 C1602 1.397 . S
C1601 C1606 1.363 . S
C1602 H1579 0.950 . S
C1602 C1601 1.397 . S
C1602 C1603 1.334 . S
C1603 H1580 0.950 . S
C1603 C1602 1.334 . S
C1603 C1604 1.287 . S
C1604 C1603 1.287 . S
C1604 C1605 1.524 . S
C1604 H1623 0.913 . S
C1605 H1581 0.950 . S
C1605 C1604 1.524 . S
C1605 C1606 1.415 . S
C1606 H1582 0.950 . S
C1606 C1601 1.363 . S
C1606 C1605 1.415 . S
C1607 H1583 0.951 . S
C1607 C1608 1.366 . S
C1607 C1609 1.388 . S
C1608 C1607 1.366 . S
C1608 C1612 1.385 . S
C1609 H1584 0.951 . S
C1609 C1607 1.388 . S
C1609 C1610 1.366 . S
C1610 C1609 1.366 . S
C1610 C1611 1.414 . S
C1610 C1613 1.499 . S
C1611 H1585 0.950 . S
C1611 C1610 1.414 . S
C1611 C1612 1.374 . S
C1612 H1586 0.950 . S
C1612 C1608 1.385 . S
C1612 C1611 1.374 . S
C1613 C1610 1.499 . S
C1613 C1614 1.373 . S
C1613 C1615 1.389 . S
C1614 H1587 0.950 . S
C1614 C1600 1.377 . S
C1614 C1613 1.373 . S
C1615 C1599 1.377 . S
C1615 C1613 1.389 . S
C1615 C1616 1.524 . S
C1616 C1615 1.524 . S
C1616 C1617 1.397 . S
C1616 C1621 1.363 . S
C1617 H1588 0.950 . S
C1617 C1616 1.397 . S
C1617 C1618 1.334 . S
C1618 H1589 0.950 . S
C1618 C1617 1.334 . S
C1618 C1619 1.287 . S
C1619 C1618 1.287 . S
C1619 C1620 1.524 . S
C1619 H1622 0.999 . S
C1620 H1590 0.950 . S
C1620 C1619 1.524 . S
C1620 C1621 1.415 . S
C1621 H1591 0.950 . S
C1621 C1616 1.363 . S
C1621 C1620 1.415 . S
H1622 C1619 0.999 . S
H1623 C1604 0.913 . S
H1624 C1642 0.951 . S
H1625 C1644 0.951 . S
H1626 C1646 0.950 . S
H1627 C1647 0.950 . S
H1628 C1649 0.950 . S
H1629 C1652 0.950 . S
H1630 C1653 0.950 . S
H1631 C1655 0.950 . S
H1632 C1656 0.950 . S
H1633 C1657 0.951 . S
H1634 C1659 0.951 . S
H1635 C1661 0.950 . S
H1636 C1662 0.950 . S
H1637 C1664 0.950 . S
H1638 C1667 0.950 . S
H1639 C1668 0.950 . S
H1640 C1670 0.950 . S
H1641 C1671 0.950 . S
C1642 H1624 0.951 . S
C1642 C1643 1.366 . S
C1642 C1644 1.388 . S
C1643 C1642 1.366 . S
C1643 C1647 1.385 . S
C1644 H1625 0.951 . S
C1644 C1642 1.388 . S
C1644 C1645 1.366 . S
C1645 C1644 1.366 . S
C1645 C1646 1.414 . S
C1645 C1648 1.499 . S
C1646 H1626 0.950 . S
C1646 C1645 1.414 . S
C1646 C1647 1.374 . S
C1647 H1627 0.950 . S
C1647 C1643 1.385 . S
C1647 C1646 1.374 . S
C1648 C1645 1.499 . S
C1648 C1649 1.373 . S
C1648 C1650 1.389 . S
C1649 H1628 0.950 . S
C1649 C1648 1.373 . S
C1649 C1665 1.377 . S
C1650 C1648 1.389 . S
C1650 C1651 1.524 . S
C1650 C1664 1.377 . S
C1651 C1650 1.524 . S
C1651 C1652 1.397 . S
C1651 C1656 1.363 . S
C1652 H1629 0.950 . S
C1652 C1651 1.397 . S
C1652 C1653 1.334 . S
C1653 H1630 0.950 . S
C1653 C1652 1.334 . S
C1653 C1654 1.287 . S
C1654 C1653 1.287 . S
C1654 C1655 1.524 . S
C1654 H1673 0.913 . S
C1655 H1631 0.950 . S
C1655 C1654 1.524 . S
C1655 C1656 1.415 . S
C1656 H1632 0.950 . S
C1656 C1651 1.363 . S
C1656 C1655 1.415 . S
C1657 H1633 0.951 . S
C1657 C1658 1.366 . S
C1657 C1659 1.388 . S
C1658 C1657 1.366 . S
C1658 C1662 1.385 . S
C1659 H1634 0.951 . S
C1659 C1657 1.388 . S
C1659 C1660 1.366 . S
C1660 C1659 1.366 . S
C1660 C1661 1.414 . S
C1660 C1663 1.499 . S
C1661 H1635 0.950 . S
C1661 C1660 1.414 . S
C1661 C1662 1.374 . S
C1662 H1636 0.950 . S
C1662 C1658 1.385 . S
C1662 C1661 1.374 . S
C1663 C1660 1.499 . S
C1663 C1664 1.373 . S
C1663 C1665 1.389 . S
C1664 H1637 0.950 . S
C1664 C1650 1.377 . S
C1664 C1663 1.373 . S
C1665 C1649 1.377 . S
C1665 C1663 1.389 . S
C1665 C1666 1.524 . S
C1666 C1665 1.524 . S
C1666 C1667 1.397 . S
C1666 C1671 1.363 . S
C1667 H1638 0.950 . S
C1667 C1666 1.397 . S
C1667 C1668 1.334 . S
C1668 H1639 0.950 . S
C1668 C1667 1.334 . S
C1668 C1669 1.287 . S
C1669 C1668 1.287 . S
C1669 C1670 1.524 . S
C1669 H1672 0.999 . S
C1670 H1640 0.950 . S
C1670 C1669 1.524 . S
C1670 C1671 1.415 . S
C1671 H1641 0.950 . S
C1671 C1666 1.363 . S
C1671 C1670 1.415 . S
H1672 C1669 0.999 . S
H1673 C1654 0.913 . S
H1674 C1692 0.951 . S
H1675 C1694 0.951 . S
H1676 C1696 0.950 . S
H1677 C1697 0.950 . S
H1678 C1699 0.950 . S
H1679 C1702 0.950 . S
H1680 C1703 0.950 . S
H1681 C1705 0.950 . S
H1682 C1706 0.950 . S
H1683 C1707 0.951 . S
H1684 C1709 0.951 . S
H1685 C1711 0.950 . S
H1686 C1712 0.950 . S
H1687 C1714 0.950 . S
H1688 C1717 0.950 . S
H1689 C1718 0.950 . S
H1690 C1720 0.950 . S
H1691 C1721 0.950 . S
C1692 H1674 0.951 . S
C1692 C1693 1.366 . S
C1692 C1694 1.388 . S
C1693 C1692 1.366 . S
C1693 C1697 1.385 . S
C1694 H1675 0.951 . S
C1694 C1692 1.388 . S
C1694 C1695 1.366 . S
C1695 C1694 1.366 . S
C1695 C1696 1.414 . S
C1695 C1698 1.499 . S
C1696 H1676 0.950 . S
C1696 C1695 1.414 . S
C1696 C1697 1.374 . S
C1697 H1677 0.950 . S
C1697 C1693 1.385 . S
C1697 C1696 1.374 . S
C1698 C1695 1.499 . S
C1698 C1699 1.373 . S
C1698 C1700 1.389 . S
C1699 H1678 0.950 . S
C1699 C1698 1.373 . S
C1699 C1715 1.377 . S
C1700 C1698 1.389 . S
C1700 C1701 1.524 . S
C1700 C1714 1.377 . S
C1701 C1700 1.524 . S
C1701 C1702 1.397 . S
C1701 C1706 1.363 . S
C1702 H1679 0.950 . S
C1702 C1701 1.397 . S
C1702 C1703 1.334 . S
C1703 H1680 0.950 . S
C1703 C1702 1.334 . S
C1703 C1704 1.287 . S
C1704 C1703 1.287 . S
C1704 C1705 1.524 . S
C1704 H1723 0.913 . S
C1705 H1681 0.950 . S
C1705 C1704 1.524 . S
C1705 C1706 1.415 . S
C1706 H1682 0.950 . S
C1706 C1701 1.363 . S
C1706 C1705 1.415 . S
C1707 H1683 0.951 . S
C1707 C1708 1.366 . S
C1707 C1709 1.388 . S
C1708 C1707 1.366 . S
C1708 C1712 1.385 . S
C1709 H1684 0.951 . S
C1709 C1707 1.388 . S
C1709 C1710 1.366 . S
C1710 C1709 1.366 . S
C1710 C1711 1.414 . S
C1710 C1713 1.499 . S
C1711 H1685 0.950 . S
C1711 C1710 1.414 . S
C1711 C1712 1.374 . S
C1712 H1686 0.950 . S
C1712 C1708 1.385 . S
C1712 C1711 1.374 . S
C1713 C1710 1.499 . S
C1713 C1714 1.373 . S
C1713 C1715 1.389 . S
C1714 H1687 0.950 . S
C1714 C1700 1.377 . S
C1714 C1713 1.373 . S
C1715 C1699 1.377 . S
C1715 C1713 1.389 . S
C1715 C1716 1.524 . S
C1716 C1715 1.524 . S
C1716 C1717 1.397 . S
C1716 C1721 1.363 . S
C1717 H1688 0.950 . S
C1717 C1716 1.397 . S
C1717 C1718 1.334 . S
C1718 H1689 0.950 . S
C1718 C1717 1.334 . S
C1718 C1719 1.287 . S
C1719 C1718 1.287 . S
C1719 C1720 1.524 . S
C1719 H1722 0.999 . S
C1720 H1690 0.950 . S
C1720 C1719 1.524 . S
C1720 C1721 1.415 . S
C1721 H1691 0.950 . S
C1721 C1716 1.363 . S
C1721 C1720 1.415 . S
H1722 C1719 0.999 . S
H1723 C1704 0.913 . S
H1724 C1742 0.951 . S
H1725 C1744 0.951 . S
H1726 C1746 0.950 . S
H1727 C1747 0.950 . S
H1728 C1749 0.950 . S
H1729 C1752 0.950 . S
H1730 C1753 0.950 . S
H1731 C1755 0.950 . S
H1732 C1756 0.950 . S
H1733 C1757 0.951 . S
H1734 C1759 0.951 . S
H1735 C1761 0.950 . S
H1736 C1762 0.950 . S
H1737 C1764 0.950 . S
H1738 C1767 0.950 . S
H1739 C1768 0.950 . S
H1740 C1770 0.950 . S
H1741 C1771 0.950 . S
C1742 H1724 0.951 . S
C1742 C1743 1.366 . S
C1742 C1744 1.388 . S
C1743 C1742 1.366 . S
C1743 C1747 1.385 . S
C1744 H1725 0.951 . S
C1744 C1742 1.388 . S
C1744 C1745 1.366 . S
C1745 C1744 1.366 . S
C1745 C1746 1.414 . S
C1745 C1748 1.499 . S
C1746 H1726 0.950 . S
C1746 C1745 1.414 . S
C1746 C1747 1.374 . S
C1747 H1727 0.950 . S
C1747 C1743 1.385 . S
C1747 C1746 1.374 . S
C1748 C1745 1.499 . S
C1748 C1749 1.373 . S
C1748 C1750 1.389 . S
C1749 H1728 0.950 . S
C1749 C1748 1.373 . S
C1749 C1765 1.377 . S
C1750 C1748 1.389 . S
C1750 C1751 1.524 . S
C1750 C1764 1.377 . S
C1751 C1750 1.524 . S
C1751 C1752 1.397 . S
C1751 C1756 1.363 . S
C1752 H1729 0.950 . S
C1752 C1751 1.397 . S
C1752 C1753 1.334 . S
C1753 H1730 0.950 . S
C1753 C1752 1.334 . S
C1753 C1754 1.287 . S
C1754 C1753 1.287 . S
C1754 C1755 1.524 . S
C1754 H1773 0.913 . S
C1755 H1731 0.950 . S
C1755 C1754 1.524 . S
C1755 C1756 1.415 . S
C1756 H1732 0.950 . S
C1756 C1751 1.363 . S
C1756 C1755 1.415 . S
C1757 H1733 0.951 . S
C1757 C1758 1.366 . S
C1757 C1759 1.388 . S
C1758 C1757 1.366 . S
C1758 C1762 1.385 . S
C1759 H1734 0.951 . S
C1759 C1757 1.388 . S
C1759 C1760 1.366 . S
C1760 C1759 1.366 . S
C1760 C1761 1.414 . S
C1760 C1763 1.499 . S
C1761 H1735 0.950 . S
C1761 C1760 1.414 . S
C1761 C1762 1.374 . S
C1762 H1736 0.950 . S
C1762 C1758 1.385 . S
C1762 C1761 1.374 . S
C1763 C1760 1.499 . S
C1763 C1764 1.373 . S
C1763 C1765 1.389 . S
C1764 H1737 0.950 . S
C1764 C1750 1.377 . S
C1764 C1763 1.373 . S
C1765 C1749 1.377 . S
C1765 C1763 1.389 . S
C1765 C1766 1.524 . S
C1766 C1765 1.524 . S
C1766 C1767 1.397 . S
C1766 C1771 1.363 . S
C1767 H1738 0.950 . S
C1767 C1766 1.397 . S
C1767 C1768 1.334 . S
C1768 H1739 0.950 . S
C1768 C1767 1.334 . S
C1768 C1769 1.287 . S
C1769 C1768 1.287 . S
C1769 C1770 1.524 . S
C1769 H1772 0.999 . S
C1770 H1740 0.950 . S
C1770 C1769 1.524 . S
C1770 C1771 1.415 . S
C1771 H1741 0.950 . S
C1771 C1766 1.363 . S
C1771 C1770 1.415 . S
H1772 C1769 0.999 . S
H1773 C1754 0.913 . S
H1774 C1792 0.951 . S
H1775 C1794 0.951 . S
H1776 C1796 0.950 . S
H1777 C1797 0.950 . S
H1778 C1799 0.950 . S
H1779 C1802 0.950 . S
H1780 C1803 0.950 . S
H1781 C1805 0.950 . S
H1782 C1806 0.950 . S
H1783 C1807 0.951 . S
H1784 C1809 0.951 . S
H1785 C1811 0.950 . S
H1786 C1812 0.950 . S
H1787 C1814 0.950 . S
H1788 C1817 0.950 . S
H1789 C1818 0.950 . S
H1790 C1820 0.950 . S
H1791 C1821 0.950 . S
C1792 H1774 0.951 . S
C1792 C1793 1.366 . S
C1792 C1794 1.388 . S
C1793 C1792 1.366 . S
C1793 C1797 1.385 . S
C1794 H1775 0.951 . S
C1794 C1792 1.388 . S
C1794 C1795 1.366 . S
C1795 C1794 1.366 . S
C1795 C1796 1.414 . S
C1795 C1798 1.499 . S
C1796 H1776 0.950 . S
C1796 C1795 1.414 . S
C1796 C1797 1.374 . S
C1797 H1777 0.950 . S
C1797 C1793 1.385 . S
C1797 C1796 1.374 . S
C1798 C1795 1.499 . S
C1798 C1799 1.373 . S
C1798 C1800 1.389 . S
C1799 H1778 0.950 . S
C1799 C1798 1.373 . S
C1799 C1815 1.377 . S
C1800 C1798 1.389 . S
C1800 C1801 1.524 . S
C1800 C1814 1.377 . S
C1801 C1800 1.524 . S
C1801 C1802 1.397 . S
C1801 C1806 1.363 . S
C1802 H1779 0.950 . S
C1802 C1801 1.397 . S
C1802 C1803 1.334 . S
C1803 H1780 0.950 . S
C1803 C1802 1.334 . S
C1803 C1804 1.287 . S
C1804 C1803 1.287 . S
C1804 C1805 1.524 . S
C1804 H1823 0.913 . S
C1805 H1781 0.950 . S
C1805 C1804 1.524 . S
C1805 C1806 1.415 . S
C1806 H1782 0.950 . S
C1806 C1801 1.363 . S
C1806 C1805 1.415 . S
C1807 H1783 0.951 . S
C1807 C1808 1.366 . S
C1807 C1809 1.388 . S
C1808 C1807 1.366 . S
C1808 C1812 1.385 . S
C1809 H1784 0.951 . S
C1809 C1807 1.388 . S
C1809 C1810 1.366 . S
C1810 C1809 1.366 . S
C1810 C1811 1.414 . S
C1810 C1813 1.499 . S
C1811 H1785 0.950 . S
C1811 C1810 1.414 . S
C1811 C1812 1.374 . S
C1812 H1786 0.950 . S
C1812 C1808 1.385 . S
C1812 C1811 1.374 . S
C1813 C1810 1.499 . S
C1813 C1814 1.373 . S
C1813 C1815 1.389 . S
C1814 H1787 0.950 . S
C1814 C1800 1.377 . S
C1814 C1813 1.373 . S
C1815 C1799 1.377 . S
C1815 C1813 1.389 . S
C1815 C1816 1.524 . S
C1816 C1815 1.524 . S
C1816 C1817 1.397 . S
C1816 C1821 1.363 . S
C1817 H1788 0.950 . S
C1817 C1816 1.397 . S
C1817 C1818 1.334 . S
C1818 H1789 0.950 . S
C1818 C1817 1.334 . S
C1818 C1819 1.287 . S
C1819 C1818 1.287 . S
C1819 C1820 1.524 . S
C1819 H1822 0.999 . S
C1820 H1790 0.950 . S
C1820 C1819 1.524 . S
C1820 C1821 1.415 . S
C1821 H1791 0.950 . S
C1821 C1816 1.363 . S
C1821 C1820 1.415 . S
H1822 C1819 0.999 . S
H1823 C1804 0.913 . S
C243 C11 0.878 . S
C258 C193 0.877 . S
C293 C165 0.878 . S
C308 C25 0.877 . S
C343 C179 0.878 . S
C358 C39 0.878 . S
C393 C151 0.878 . S
C408 C53 0.877 . S
C443 C67 0.878 . S
C458 C221 0.877 . S
C493 C81 0.878 . S
C508 C137 0.878 . S
C543 C207 0.878 . S
C558 C95 0.878 . S
C593 C109 0.877 . S
C608 C123 0.878 . S
C643 C68 1.651 . S
C658 C12 1.651 . S
C693 C26 1.651 . S
C708 C82 1.651 . S
C743 C40 1.651 . S
C758 C96 1.651 . S
C793 C110 1.651 . S
C808 C54 1.651 . S
C843 C124 1.651 . S
C858 C152 1.651 . S
C893 C138 1.651 . S
C908 C166 1.651 . S
C943 C208 1.651 . S
C958 C180 1.651 . S
C993 C194 1.651 . S
C1008 C222 1.651 . S
C1043 C74 1.171 . S
C1058 C4 1.171 . S
C1093 C18 1.171 . S
C1108 C88 1.171 . S
C1143 C32 1.171 . S
C1158 C102 1.171 . S
C1193 C60 1.170 . S
C1208 C46 1.170 . S
C1243 C61 1.075 1_545 S
C1258 C145 1.073 . S
C1293 C33 1.073 1_545 S
C1308 C117 1.075 . S
C1343 C159 1.073 . S
C1358 C89 1.074 1_565 S
C1393 C131 1.073 . S
C1408 C5 1.074 1_565 S
C1443 C116 1.170 . S
C1458 C172 1.170 . S
C1493 C144 1.170 . S
C1508 C214 1.171 . S
C1543 C186 1.171 . S
C1558 C130 1.171 . S
C1593 C158 1.170 . S
C1608 C200 1.170 . S
C1643 C201 1.074 . S
C1658 C19 1.076 . S
C1693 C187 1.075 . S
C1708 C75 1.073 . S
C1743 C215 1.075 . S
C1758 C47 1.075 . S
C1793 C173 1.073 . S
C1808 C103 1.074 . S
