# Generated by pormake.
# Topology wjl, (5)-cn, num edge types: 1
# Building blocks:
#     Node 0, Type 0, BuildingBlock: BEQFEK_clean_sbu_0, # of connection points: 5
#     Node 1, Type 0, BuildingBlock: BEQFEK_clean_sbu_0, # of connection points: 5
#     Node 2, Type 0, BuildingBlock: BEQFEK_clean_sbu_0, # of connection points: 5
#     Node 3, Type 0, BuildingBlock: BEQFEK_clean_sbu_0, # of connection points: 5
#     Node 4, Type 0, BuildingBlock: BEQFEK_clean_sbu_0, # of connection points: 5
#     Node 5, Type 0, BuildingBlock: BEQFEK_clean_sbu_0, # of connection points: 5
#     Node 6, Type 0, BuildingBlock: BEQFEK_clean_sbu_0, # of connection points: 5
#     Node 7, Type 0, BuildingBlock: BEQFEK_clean_sbu_0, # of connection points: 5
#     Node 8, Type 0, BuildingBlock: BEQFEK_clean_sbu_0, # of connection points: 5
#     Node 9, Type 0, BuildingBlock: BEQFEK_clean_sbu_0, # of connection points: 5
#     Node 10, Type 0, BuildingBlock: BEQFEK_clean_sbu_0, # of connection points: 5
#     Node 11, Type 0, BuildingBlock: BEQFEK_clean_sbu_0, # of connection points: 5
#     Edge 12, Type (0, 0), BuildingBlock: AJUNOK_clean_linker_0, # of connection points: 2
#     Edge 13, Type (0, 0), BuildingBlock: AJUNOK_clean_linker_0, # of connection points: 2
#     Edge 14, Type (0, 0), BuildingBlock: AJUNOK_clean_linker_0, # of connection points: 2
#     Edge 15, Type (0, 0), BuildingBlock: AJUNOK_clean_linker_0, # of connection points: 2
#     Edge 16, Type (0, 0), BuildingBlock: AJUNOK_clean_linker_0, # of connection points: 2
#     Edge 17, Type (0, 0), BuildingBlock: AJUNOK_clean_linker_0, # of connection points: 2
#     Edge 18, Type (0, 0), BuildingBlock: AJUNOK_clean_linker_0, # of connection points: 2
#     Edge 19, Type (0, 0), BuildingBlock: AJUNOK_clean_linker_0, # of connection points: 2
#     Edge 20, Type (0, 0), BuildingBlock: AJUNOK_clean_linker_0, # of connection points: 2
#     Edge 21, Type (0, 0), BuildingBlock: AJUNOK_clean_linker_0, # of connection points: 2
#     Edge 22, Type (0, 0), BuildingBlock: AJUNOK_clean_linker_0, # of connection points: 2
#     Edge 23, Type (0, 0), BuildingBlock: AJUNOK_clean_linker_0, # of connection points: 2
#     Edge 24, Type (0, 0), BuildingBlock: AJUNOK_clean_linker_0, # of connection points: 2
#     Edge 25, Type (0, 0), BuildingBlock: AJUNOK_clean_linker_0, # of connection points: 2
#     Edge 26, Type (0, 0), BuildingBlock: AJUNOK_clean_linker_0, # of connection points: 2
#     Edge 27, Type (0, 0), BuildingBlock: AJUNOK_clean_linker_0, # of connection points: 2
#     Edge 28, Type (0, 0), BuildingBlock: AJUNOK_clean_linker_0, # of connection points: 2
#     Edge 29, Type (0, 0), BuildingBlock: AJUNOK_clean_linker_0, # of connection points: 2
#     Edge 30, Type (0, 0), BuildingBlock: AJUNOK_clean_linker_0, # of connection points: 2
#     Edge 31, Type (0, 0), BuildingBlock: AJUNOK_clean_linker_0, # of connection points: 2
#     Edge 32, Type (0, 0), BuildingBlock: AJUNOK_clean_linker_0, # of connection points: 2
#     Edge 33, Type (0, 0), BuildingBlock: AJUNOK_clean_linker_0, # of connection points: 2
#     Edge 34, Type (0, 0), BuildingBlock: AJUNOK_clean_linker_0, # of connection points: 2
#     Edge 35, Type (0, 0), BuildingBlock: AJUNOK_clean_linker_0, # of connection points: 2
#     Edge 36, Type (0, 0), BuildingBlock: AJUNOK_clean_linker_0, # of connection points: 2
#     Edge 37, Type (0, 0), BuildingBlock: AJUNOK_clean_linker_0, # of connection points: 2
#     Edge 38, Type (0, 0), BuildingBlock: AJUNOK_clean_linker_0, # of connection points: 2
#     Edge 39, Type (0, 0), BuildingBlock: AJUNOK_clean_linker_0, # of connection points: 2
#     Edge 40, Type (0, 0), BuildingBlock: AJUNOK_clean_linker_0, # of connection points: 2
#     Edge 41, Type (0, 0), BuildingBlock: AJUNOK_clean_linker_0, # of connection points: 2
# Relax obj value: 0.512
# Max RMSD: 0.237
# Mean RMSD: 0.237
data_MOF--net-wjl--node1-BEQFEK_clean_sbu_0--edge1-AJUNOK_clean_linker_0
_symmetry_space_group_name_H-M    P1
_symmetry_Int_Tables_number       1
_symmetry_cell_setting            triclinic
loop_
_symmetry_equiv_pos_as_xyz
'x, y, z'
_cell_length_a     20.591808
_cell_length_b     20.587482
_cell_length_c     64.244481
_cell_angle_alpha  89.941914
_cell_angle_beta   90.082737
_cell_angle_gamma 119.97626
loop_
_atom_site_label
_atom_site_type_symbol
_atom_site_fract_x
_atom_site_fract_y
_atom_site_fract_z
_atom_type_partial_charge
Co0 Co 0.47111 0.09009 0.36767 0.0
Co1 Co 0.31636 0.01922 0.34445 0.0
C2 C 0.45043 0.17174 0.33317 0.0
O3 O 0.49313 0.16496 0.34613 0.0
O4 O 0.38155 0.12126 0.33142 0.0
C5 C 0.62713 0.1595 0.37439 0.0
O6 O 0.62916 0.16748 0.35408 0.0
C7 C 0.2297 0.96406 0.30566 0.0
C8 C 0.11981 0.87395 0.31659 0.0
C9 C 0.16099 0.90604 0.29866 0.0
N10 N 0.22984 0.96436 0.32663 0.0
N11 N 0.16315 0.91148 0.33305 0.0
C12 C 0.29447 0.01922 0.29276 0.0
H13 H 0.30877 0.07687 0.29722 0.0
H14 H 0.34422 0.01328 0.29601 0.0
H15 H 0.28114 0.01209 0.2759 0.0
C16 C 0.46636 0.95209 0.35438 0.0
N17 N 0.43438 0.99496 0.35633 0.0
N18 N 0.3694 0.96344 0.34663 0.0
C19 C 0.35803 0.89824 0.33831 0.0
C20 C 0.41953 0.88954 0.34266 0.0
C21 C 0.54452 0.9758 0.36137 0.0
H22 H 0.55197 0.99467 0.37778 0.0
H23 H 0.58474 0.02321 0.35157 0.0
H24 H 0.5579 0.93016 0.36008 0.0
O25 O 0.39943 0.09344 0.38691 0.0
O26 O 0.28577 0.03824 0.37276 0.0
H27 H 0.23913 0.83436 0.33445 0.0
H28 H 0.28927 0.79189 0.32297 0.0
C29 C 0.29057 0.84562 0.32598 0.0
H30 H 0.29188 0.87233 0.31099 0.0
H31 H 0.1486 0.89819 0.34866 0.0
O32 O 0.56397 0.12328 0.38336 0.0
C33 C 0.33021 0.07319 0.38784 0.0
Co34 Co 0.36981 0.46851 0.53473 0.0
Co35 Co 0.28907 0.31337 0.512 0.0
C36 C 0.26998 0.44847 0.50042 0.0
O37 O 0.32026 0.49309 0.5129 0.0
O38 O 0.25215 0.37951 0.49924 0.0
C39 C 0.45264 0.6236 0.54491 0.0
O40 O 0.44117 0.63242 0.52525 0.0
C41 C 0.26448 0.23163 0.47276 0.0
C42 C 0.23454 0.11772 0.48297 0.0
C43 C 0.25059 0.16226 0.46538 0.0
N44 N 0.25902 0.22873 0.49366 0.0
N45 N 0.23942 0.15986 0.49963 0.0
C46 C 0.28179 0.2999 0.46028 0.0
H47 H 0.23999 0.31715 0.46393 0.0
H48 H 0.33782 0.34676 0.46477 0.0
H49 H 0.27961 0.28929 0.44331 0.0
C50 C 0.50431 0.46608 0.52169 0.0
N51 N 0.42942 0.43282 0.52358 0.0
N52 N 0.39736 0.36624 0.51483 0.0
C53 C 0.45216 0.35399 0.50775 0.0
C54 C 0.52185 0.41704 0.51175 0.0
C55 C 0.55618 0.54732 0.52641 0.0
H56 H 0.55977 0.55584 0.54351 0.0
H57 H 0.53322 0.58087 0.51947 0.0
H58 H 0.61315 0.56846 0.52002 0.0
O59 O 0.29152 0.39491 0.55338 0.0
O60 O 0.23806 0.28034 0.53988 0.0
H61 H 0.49005 0.27908 0.49708 0.0
H62 H 0.42023 0.28347 0.48118 0.0
C63 C 0.43847 0.28347 0.49734 0.0
H64 H 0.39318 0.23426 0.50552 0.0
H65 H 0.233 0.1426 0.51514 0.0
O66 O 0.42934 0.55786 0.55183 0.0
C67 C 0.24443 0.32509 0.55451 0.0
Co68 Co 0.90977 0.36796 0.71058 0.0
Co69 Co 0.97045 0.29415 0.6795 0.0
C70 C 0.81724 0.27312 0.67439 0.0
O71 O 0.82642 0.31095 0.69085 0.0
O72 O 0.86904 0.26226 0.66741 0.0
C73 C 0.84971 0.46056 0.71869 0.0
O74 O 0.84719 0.46136 0.69826 0.0
C75 C 0.02175 0.25992 0.63991 0.0
C76 C 0.12139 0.25508 0.65032 0.0
C77 C 0.082 0.25343 0.63263 0.0
N78 N 0.02662 0.26698 0.6608 0.0
N79 N 0.08548 0.2623 0.66691 0.0
C80 C 0.95953 0.25804 0.62735 0.0
H81 H 0.90518 0.21226 0.63324 0.0
H82 H 0.95919 0.31136 0.62936 0.0
H83 H 0.96446 0.24809 0.6106 0.0
C84 C 0.04297 0.50608 0.6972 0.0
N85 N 0.99992 0.43097 0.69709 0.0
N86 N 0.0245 0.4023 0.68296 0.0
C87 C 0.08263 0.45966 0.6729 0.0
C88 C 0.09596 0.52736 0.68162 0.0
C89 C 0.0347 0.55706 0.71221 0.0
H90 H 0.99339 0.57176 0.70605 0.0
H91 H 0.08891 0.60982 0.71433 0.0
H92 H 0.0151 0.52906 0.72751 0.0
O93 O 0.92069 0.29927 0.72868 0.0
O94 O 0.95662 0.23852 0.70724 0.0
H95 H 0.14915 0.421 0.65765 0.0
H96 H 0.15589 0.50433 0.64605 0.0
C97 C 0.11769 0.45007 0.65367 0.0
H98 H 0.07279 0.41464 0.64257 0.0
H99 H 0.10333 0.26775 0.68234 0.0
O100 O 0.87807 0.42542 0.72755 0.0
C101 C 0.93775 0.24891 0.72539 0.0
Co102 Co 0.54667 0.91003 0.87433 0.0
Co103 Co 0.68432 0.96799 0.84452 0.0
C104 C 0.55487 0.81419 0.84002 0.0
O105 O 0.52492 0.82469 0.85597 0.0
O106 O 0.61684 0.86595 0.83273 0.0
C107 C 0.39163 0.84217 0.88111 0.0
O108 O 0.39011 0.83414 0.8608 0.0
C109 C 0.77777 0.02473 0.80615 0.0
C110 C 0.89024 0.09472 0.81976 0.0
C111 C 0.85259 0.07348 0.80086 0.0
N112 N 0.77214 0.01863 0.82707 0.0
N113 N 0.84001 0.05936 0.83501 0.0
C114 C 0.71148 0.98968 0.79188 0.0
H115 H 0.65881 0.97116 0.8007 0.0
H116 H 0.71708 0.02955 0.77942 0.0
H117 H 0.7083 0.93951 0.78448 0.0
C118 C 0.53945 0.03829 0.85793 0.0
N119 N 0.57416 0.99789 0.85931 0.0
N120 N 0.63 0.02319 0.84593 0.0
C121 C 0.63063 0.08027 0.83514 0.0
C122 C 0.57204 0.09028 0.84214 0.0
C123 C 0.47704 0.02867 0.87189 0.0
H124 H 0.48694 0.01583 0.88796 0.0
H125 H 0.42322 0.98159 0.86622 0.0
H126 H 0.47246 0.08016 0.87209 0.0
O127 O 0.62375 0.92452 0.89398 0.0
O128 O 0.72105 0.95524 0.87323 0.0
H129 H 0.68931 0.1776 0.81541 0.0
H130 H 0.65792 0.08927 0.80287 0.0
C131 C 0.68224 0.12098 0.81745 0.0
H132 H 0.73785 0.12653 0.82019 0.0
H133 H 0.85165 0.06548 0.85094 0.0
O134 O 0.45462 0.87791 0.89022 0.0
C135 C 0.69092 0.93994 0.8913 0.0
Co136 Co 0.62995 0.5425 0.04165 0.0
Co137 Co 0.70716 0.68142 0.01191 0.0
C138 C 0.73475 0.55409 0.00708 0.0
O139 O 0.69485 0.52352 0.02308 0.0
O140 O 0.74337 0.61557 0.99983 0.0
C141 C 0.54351 0.38706 0.04695 0.0
O142 O 0.54974 0.38933 0.02658 0.0
C143 C 0.74057 0.77598 0.97374 0.0
C144 C 0.78548 0.88825 0.98764 0.0
C145 C 0.76661 0.85111 0.96865 0.0
N146 N 0.74252 0.76968 0.99461 0.0
N147 N 0.77089 0.83742 0.00272 0.0
C148 C 0.7096 0.7102 0.9593 0.0
H149 H 0.67901 0.6569 0.96814 0.0
H150 H 0.67176 0.71405 0.94768 0.0
H151 H 0.75652 0.71015 0.95085 0.0
C152 C 0.49343 0.53517 0.02609 0.0
N153 N 0.56856 0.56944 0.02693 0.0
N154 N 0.59811 0.62589 0.0137 0.0
C155 C 0.54103 0.62742 0.00356 0.0
C156 C 0.47305 0.5689 0.01086 0.0
C157 C 0.44157 0.47248 0.04014 0.0
H158 H 0.46586 0.48139 0.056 0.0
H159 H 0.43343 0.41858 0.03406 0.0
H160 H 0.38593 0.4687 0.04099 0.0
O161 O 0.69112 0.61972 0.06144 0.0
O162 O 0.75581 0.7177 0.04062 0.0
H163 H 0.6001 0.736 0.98924 0.0
H164 H 0.5005 0.6862 0.98447 0.0
C165 C 0.55073 0.68013 0.98626 0.0
H166 H 0.5588 0.65748 0.97147 0.0
H167 H 0.77817 0.84872 0.01865 0.0
O168 O 0.57102 0.44836 0.05695 0.0
C169 C 0.74149 0.6875 0.05869 0.0
Co170 Co 0.0825 0.61327 0.20034 0.0
Co171 Co 0.01293 0.6995 0.17784 0.0
C172 C 0.16329 0.71554 0.16566 0.0
O173 O 0.15655 0.66643 0.17873 0.0
O174 O 0.11355 0.73507 0.16399 0.0
C175 C 0.15461 0.52819 0.2064 0.0
O176 O 0.16407 0.53687 0.18618 0.0
C177 C 0.9491 0.7323 0.14092 0.0
C178 C 0.89098 0.78749 0.15466 0.0
C179 C 0.90439 0.76324 0.13584 0.0
N180 N 0.96057 0.73754 0.16164 0.0
N181 N 0.92658 0.77166 0.1697 0.0
C182 C 0.97625 0.69327 0.12673 0.0
H183 H 0.99298 0.65806 0.13581 0.0
H184 H 0.93214 0.658 0.1153 0.0
H185 H 0.02595 0.73585 0.11805 0.0
C186 C 0.94356 0.48198 0.18677 0.0
N187 N 0.98683 0.55662 0.18886 0.0
N188 N 0.95516 0.59078 0.17957 0.0
C189 C 0.88885 0.53759 0.17157 0.0
C190 C 0.87979 0.46687 0.17565 0.0
C191 C 0.96856 0.42769 0.19297 0.0
H192 H 0.98337 0.4348 0.20974 0.0
H193 H 0.01926 0.44014 0.18394 0.0
H194 H 0.92573 0.36857 0.19005 0.0
O195 O 0.08766 0.68766 0.22033 0.0
O196 O 0.03352 0.74725 0.20626 0.0
H197 H 0.77692 0.50389 0.16107 0.0
H198 H 0.85085 0.567 0.14404 0.0
C199 C 0.83424 0.55351 0.16055 0.0
H200 H 0.83401 0.60227 0.16778 0.0
H201 H 0.926 0.78237 0.18556 0.0
O202 O 0.1158 0.55201 0.21549 0.0
C203 C 0.06757 0.73678 0.22135 0.0
Co204 Co 0.90336 0.53665 0.43703 0.0
Co205 Co 0.96578 0.67456 0.46716 0.0
C206 C 0.81507 0.53803 0.47405 0.0
O207 O 0.8234 0.50754 0.45786 0.0
O208 O 0.86602 0.60286 0.48004 0.0
C209 C 0.84304 0.38354 0.42746 0.0
O210 O 0.83648 0.37635 0.4478 0.0
C211 C 0.02499 0.75783 0.50657 0.0
C212 C 0.10131 0.87301 0.49557 0.0
C213 C 0.07698 0.82954 0.51343 0.0
N214 N 0.01958 0.75887 0.4857 0.0
N215 N 0.06446 0.82832 0.47928 0.0
C216 C 0.97911 0.68955 0.51961 0.0
H217 H 0.92445 0.68577 0.52291 0.0
H218 H 0.96762 0.63822 0.51099 0.0
H219 H 0.00637 0.69226 0.53471 0.0
C220 C 0.04035 0.53736 0.44908 0.0
N221 N 0.99707 0.56916 0.4493 0.0
N222 N 0.0232 0.62402 0.46299 0.0
C223 C 0.08351 0.6268 0.47243 0.0
C224 C 0.09522 0.57086 0.46414 0.0
C225 C 0.02951 0.47545 0.43472 0.0
H226 H 0.01225 0.48427 0.4191 0.0
H227 H 0.98515 0.42101 0.44091 0.0
H228 H 0.08196 0.47298 0.43329 0.0
O229 O 0.90288 0.61266 0.41951 0.0
O230 O 0.94478 0.71296 0.43987 0.0
H231 H 0.13597 0.73447 0.48722 0.0
H232 H 0.17894 0.67886 0.49324 0.0
C233 C 0.12493 0.67692 0.49035 0.0
H234 H 0.09034 0.65541 0.50459 0.0
H235 H 0.07224 0.84467 0.46368 0.0
O236 O 0.87328 0.44861 0.41953 0.0
C237 C 0.91903 0.67998 0.42242 0.0
Co238 Co 0.37477 0.90522 0.61134 0.0
Co239 Co 0.29068 0.97623 0.63372 0.0
C240 C 0.27295 0.82501 0.64611 0.0
O241 O 0.32151 0.83098 0.63294 0.0
O242 O 0.25439 0.87552 0.64778 0.0
C243 C 0.45951 0.83272 0.60345 0.0
O244 O 0.44739 0.81449 0.62324 0.0
C245 C 0.25783 0.04059 0.67039 0.0
C246 C 0.21812 0.11204 0.65611 0.0
C247 C 0.23466 0.09178 0.67513 0.0
N248 N 0.25481 0.03101 0.64961 0.0
N249 N 0.22962 0.07285 0.64121 0.0
C250 C 0.29024 0.00754 0.685 0.0
H251 H 0.32721 0.9918 0.67648 0.0
H252 H 0.32211 0.04752 0.69768 0.0
H253 H 0.24388 0.95608 0.69209 0.0
C254 C 0.50733 0.04242 0.62516 0.0
N255 N 0.43261 0.00067 0.62285 0.0
N256 N 0.39949 0.03308 0.63223 0.0
C257 C 0.45355 0.0984 0.64054 0.0
C258 C 0.52369 0.10643 0.63631 0.0
C259 C 0.56007 0.01475 0.61971 0.0
H260 H 0.55958 0.00691 0.60262 0.0
H261 H 0.54063 0.95983 0.62732 0.0
H262 H 0.61824 0.05284 0.62495 0.0
O263 O 0.30077 0.90023 0.59114 0.0
O264 O 0.24281 0.95572 0.60515 0.0
H265 H 0.48928 0.20882 0.65268 0.0
H266 H 0.42592 0.13231 0.66902 0.0
C267 C 0.4391 0.15184 0.65268 0.0
H268 H 0.39086 0.15442 0.64596 0.0
H269 H 0.22359 0.07733 0.62523 0.0
O270 O 0.43641 0.87428 0.59575 0.0
C271 C 0.25243 0.92128 0.59002 0.0
Co272 Co 0.46267 0.36822 0.77265 0.0
Co273 Co 0.31324 0.28676 0.7982 0.0
C274 C 0.44207 0.25854 0.8058 0.0
O275 O 0.48194 0.30637 0.79214 0.0
O276 O 0.37545 0.24426 0.80968 0.0
C277 C 0.61823 0.45313 0.76756 0.0
O278 O 0.61635 0.44276 0.78778 0.0
C279 C 0.22622 0.2514 0.83706 0.0
C280 C 0.1194 0.24078 0.82648 0.0
C281 C 0.15892 0.24371 0.8443 0.0
N282 N 0.22729 0.25566 0.81613 0.0
N283 N 0.16229 0.24717 0.80989 0.0
C284 C 0.28848 0.25346 0.84964 0.0
H285 H 0.30039 0.20978 0.84384 0.0
H286 H 0.34017 0.30862 0.84758 0.0
H287 H 0.27368 0.24259 0.86637 0.0
C288 C 0.46673 0.50339 0.78884 0.0
N289 N 0.43281 0.42844 0.78658 0.0
N290 N 0.37008 0.39591 0.79734 0.0
C291 C 0.36235 0.45039 0.80679 0.0
C292 C 0.42378 0.52011 0.80195 0.0
C293 C 0.5426 0.5571 0.78021 0.0
H294 H 0.54569 0.54341 0.7637 0.0
H295 H 0.5857 0.55205 0.78925 0.0
H296 H 0.55612 0.61615 0.78112 0.0
O297 O 0.38691 0.30393 0.75215 0.0
O298 O 0.27923 0.24264 0.76944 0.0
H299 H 0.2443 0.39922 0.81179 0.0
H300 H 0.29872 0.48964 0.82416 0.0
C301 C 0.2973 0.43657 0.82009 0.0
H302 H 0.29901 0.40826 0.8345 0.0
H303 H 0.1489 0.25015 0.79438 0.0
O304 O 0.55685 0.4282 0.75771 0.0
C305 C 0.31714 0.25638 0.75265 0.0
Co306 Co 0.09253 0.46628 0.94112 0.0
Co307 Co 0.02025 0.31329 0.96518 0.0
C308 C 0.17543 0.44541 0.97509 0.0
O309 O 0.1688 0.48862 0.96229 0.0
O310 O 0.12401 0.37707 0.97721 0.0
C311 C 0.16537 0.62211 0.93315 0.0
O312 O 0.17739 0.62615 0.95332 0.0
C313 C 0.97053 0.2258 0.00397 0.0
C314 C 0.87349 0.11939 0.99358 0.0
C315 C 0.91152 0.15836 0.0113 0.0
N316 N 0.96575 0.22748 0.98309 0.0
N317 N 0.90874 0.16273 0.97695 0.0
C318 C 0.03205 0.28727 0.01641 0.0
H319 H 0.08692 0.29802 0.01034 0.0
H320 H 0.02964 0.33964 0.01455 0.0
H321 H 0.02881 0.27222 0.03312 0.0
C322 C 0.95872 0.46755 0.95572 0.0
N323 N 0.99885 0.43282 0.95331 0.0
N324 N 0.9672 0.36906 0.96362 0.0
C325 C 0.90476 0.36127 0.97291 0.0
C326 C 0.89781 0.42385 0.9684 0.0
C327 C 0.98456 0.54577 0.94833 0.0
H328 H 0.99961 0.55054 0.93161 0.0
H329 H 0.03502 0.58527 0.95728 0.0
H330 H 0.94186 0.56278 0.95041 0.0
O331 O 0.09277 0.3919 0.92211 0.0
O332 O 0.0343 0.27937 0.93694 0.0
H333 H 0.83752 0.24312 0.97781 0.0
H334 H 0.80172 0.29758 0.99022 0.0
C335 C 0.85331 0.29602 0.98618 0.0
H336 H 0.88295 0.29699 1.00066 0.0
H337 H 0.89135 0.14973 0.9615 0.0
O338 O 0.12625 0.55817 0.92479 0.0
C339 C 0.06933 0.32188 0.92159 0.0
Co340 Co 0.61464 0.08042 0.1023 0.0
Co341 Co 0.69392 0.02208 0.13262 0.0
C342 C 0.70894 0.17199 0.13871 0.0
O343 O 0.66954 0.16144 0.1225 0.0
O344 O 0.72216 0.12154 0.14559 0.0
C345 C 0.52473 0.14504 0.09469 0.0
O346 O 0.52534 0.14811 0.11513 0.0
C347 C 0.73124 0.96336 0.17065 0.0
C348 C 0.77436 0.89483 0.15645 0.0
C349 C 0.7587 0.91533 0.17554 0.0
N350 N 0.7307 0.97014 0.14977 0.0
N351 N 0.75791 0.93001 0.14146 0.0
C352 C 0.7004 0.99767 0.18529 0.0
H353 H 0.66521 0.01579 0.17679 0.0
H354 H 0.66732 0.95747 0.1978 0.0
H355 H 0.74752 0.0481 0.19255 0.0
C356 C 0.48082 0.94343 0.11505 0.0
N357 N 0.55562 0.98777 0.11517 0.0
N358 N 0.58569 0.963 0.1289 0.0
C359 C 0.52922 0.9024 0.13849 0.0
C360 C 0.46084 0.88867 0.13007 0.0
C361 C 0.42878 0.9545 0.10112 0.0
H362 H 0.45457 0.97408 0.08557 0.0
H363 H 0.41761 0.99732 0.108 0.0
H364 H 0.37454 0.90152 0.09934 0.0
O365 O 0.68765 0.07871 0.08398 0.0
O366 O 0.75065 0.0441 0.10503 0.0
H367 H 0.58772 0.85525 0.15436 0.0
H368 H 0.48892 0.81014 0.16041 0.0
C369 C 0.53976 0.86446 0.15699 0.0
H370 H 0.55182 0.90088 0.1708 0.0
H371 H 0.76286 0.92454 0.12548 0.0
O372 O 0.55575 0.11263 0.08575 0.0
C373 C 0.74073 0.06559 0.08723 0.0
Co374 Co 0.53693 0.62517 0.2671 0.0
Co375 Co 0.67462 0.70187 0.29754 0.0
C376 C 0.5436 0.72406 0.3026 0.0
O377 O 0.51285 0.6844 0.28654 0.0
O378 O 0.60652 0.73511 0.30935 0.0
C379 C 0.38251 0.53545 0.25837 0.0
O380 O 0.3772 0.53729 0.27872 0.0
C381 C 0.76228 0.74373 0.33692 0.0
C382 C 0.86273 0.73872 0.3276 0.0
C383 C 0.82752 0.74803 0.34477 0.0
N384 N 0.75838 0.73032 0.31628 0.0
N385 N 0.81962 0.72916 0.31078 0.0
C386 C 0.70501 0.75358 0.34865 0.0
H387 H 0.69676 0.79698 0.34083 0.0
H388 H 0.65049 0.70039 0.34838 0.0
H389 H 0.72275 0.77132 0.36496 0.0
C390 C 0.53263 0.48851 0.28167 0.0
N391 N 0.56513 0.5636 0.28109 0.0
N392 N 0.61952 0.59357 0.2949 0.0
C393 C 0.62059 0.53726 0.30551 0.0
C394 C 0.5655 0.4687 0.29737 0.0
C395 C 0.47146 0.4365 0.26725 0.0
H396 H 0.47965 0.46235 0.25162 0.0
H397 H 0.4166 0.42524 0.27347 0.0
H398 H 0.47052 0.38232 0.2658 0.0
O399 O 0.6157 0.69268 0.24866 0.0
O400 O 0.71429 0.75528 0.26943 0.0
H401 H 0.72577 0.57202 0.3204 0.0
H402 H 0.64667 0.49601 0.33357 0.0
C403 C 0.66612 0.54887 0.32476 0.0
H404 H 0.662 0.58995 0.33496 0.0
H405 H 0.83024 0.71812 0.2957 0.0
O406 O 0.44703 0.56721 0.25007 0.0
C407 C 0.68331 0.74338 0.25146 0.0
C408 C 0.46406 0.79644 0.34387 0.0
C409 C 0.44206 0.83996 0.33212 0.0
C410 C 0.49711 0.75876 0.33429 0.0
C411 C 0.50731 0.76202 0.31262 0.0
H412 H 0.45793 0.79366 0.36064 0.0
H413 H 0.51491 0.72711 0.34386 0.0
S414 S 0.46179 0.87011 0.27507 0.0
N415 N 0.43531 0.88609 0.29783 0.0
N416 N 0.49393 0.8124 0.27974 0.0
C417 C 0.48382 0.8037 0.30068 0.0
C418 C 0.4518 0.84325 0.31045 0.0
C419 C 0.60438 0.42976 0.48171 0.0
C420 C 0.59631 0.43624 0.50319 0.0
C421 C 0.67559 0.46038 0.47263 0.0
C422 C 0.74135 0.49981 0.48463 0.0
H423 H 0.55554 0.40423 0.47168 0.0
H424 H 0.67908 0.45626 0.45589 0.0
S425 S 0.75022 0.52274 0.54193 0.0
N426 N 0.65958 0.47638 0.5366 0.0
N427 N 0.79362 0.53693 0.51935 0.0
C428 C 0.73399 0.50333 0.50625 0.0
C429 C 0.66141 0.47055 0.51557 0.0
C430 C 0.15485 0.72301 0.66181 0.0
C431 C 0.23161 0.75337 0.65766 0.0
C432 C 0.1117 0.64989 0.66954 0.0
C433 C 0.14385 0.60482 0.67373 0.0
H434 H 0.1271 0.75455 0.65815 0.0
H435 H 0.05216 0.62778 0.67174 0.0
S436 S 0.34393 0.66083 0.66781 0.0
N437 N 0.33905 0.73438 0.65964 0.0
N438 N 0.25791 0.59778 0.67481 0.0
C439 C 0.22099 0.63549 0.67051 0.0
C440 C 0.26488 0.7096 0.66237 0.0
C441 C 0.54905 0.25192 0.82215 0.0
C442 C 0.47311 0.21564 0.81608 0.0
C443 C 0.58136 0.21137 0.83046 0.0
C444 C 0.53935 0.13299 0.83239 0.0
H445 H 0.58359 0.31221 0.8206 0.0
H446 H 0.63921 0.24159 0.83558 0.0
S447 S 0.34068 0.0109 0.8167 0.0
N448 N 0.35791 0.09682 0.81178 0.0
N449 N 0.41946 0.02021 0.82618 0.0
C450 C 0.46397 0.09603 0.82584 0.0
C451 C 0.43061 0.13742 0.81799 0.0
C452 C 0.36109 0.57998 1.00071 0.0
C453 C 0.39708 0.53739 0.00171 0.0
C454 C 0.28817 0.54909 0.99261 0.0
C455 C 0.24821 0.47404 0.98579 0.0
H456 H 0.38929 0.63729 0.00628 0.0
H457 H 0.26285 0.58419 0.99165 0.0
S458 S 0.31931 0.34053 0.98419 0.0
N459 N 0.3891 0.41791 0.99416 0.0
N460 N 0.25096 0.3589 0.98001 0.0
C461 C 0.28342 0.43081 0.98693 0.0
C462 C 0.35815 0.46276 0.99463 0.0
C463 C 0.78898 0.32901 0.1787 0.0
C464 C 0.82616 0.39361 0.16616 0.0
C465 C 0.75058 0.257 0.16985 0.0
C466 C 0.74599 0.24755 0.14815 0.0
H467 H 0.79266 0.33411 0.1955 0.0
H468 H 0.7249 0.20853 0.18001 0.0
S469 S 0.83119 0.39853 0.10847 0.0
N470 N 0.85541 0.44314 0.13098 0.0
N471 N 0.77953 0.30871 0.11431 0.0
C472 C 0.77968 0.31191 0.13545 0.0
C473 C 0.82039 0.38481 0.14446 0.0
C474 C 0.26064 0.55129 0.48232 0.0
C475 C 0.22586 0.47628 0.48921 0.0
C476 C 0.21843 0.58188 0.47409 0.0
C477 C 0.13994 0.53897 0.47296 0.0
H478 H 0.32093 0.58679 0.48345 0.0
H479 H 0.24727 0.63942 0.46869 0.0
S480 S 0.02146 0.342 0.4905 0.0
N481 N 0.10819 0.36079 0.49484 0.0
N482 N 0.0288 0.41917 0.48041 0.0
C483 C 0.10453 0.46428 0.48001 0.0
C484 C 0.14748 0.43266 0.48787 0.0
C485 C 0.60609 0.16847 0.66711 0.0
C486 C 0.59777 0.16021 0.6454 0.0
C487 C 0.67746 0.2073 0.67627 0.0
C488 C 0.74301 0.23791 0.66407 0.0
H489 H 0.55739 0.14167 0.67714 0.0
H490 H 0.68136 0.21044 0.6931 0.0
S491 S 0.75095 0.24076 0.60644 0.0
N492 N 0.66043 0.19375 0.61185 0.0
N493 N 0.79469 0.26394 0.62912 0.0
C494 C 0.73529 0.23325 0.64233 0.0
C495 C 0.66261 0.19535 0.63299 0.0
C496 C 0.5057 0.72987 0.80896 0.0
C497 C 0.51767 0.73886 0.83055 0.0
C498 C 0.47041 0.65817 0.79992 0.0
C499 C 0.44838 0.59352 0.81208 0.0
H500 H 0.52344 0.77846 0.79905 0.0
H501 H 0.46241 0.65336 0.7832 0.0
S502 S 0.46829 0.58776 0.8693 0.0
N503 N 0.50295 0.67755 0.86394 0.0
N504 N 0.44107 0.54343 0.8468 0.0
C505 C 0.4591 0.60192 0.83371 0.0
C506 C 0.49299 0.67454 0.84296 0.0
C507 C 0.80915 0.47386 0.96651 0.0
C508 C 0.8494 0.4488 0.97862 0.0
C509 C 0.77275 0.50888 0.97572 0.0
C510 C 0.77348 0.51776 0.99741 0.0
H511 H 0.8078 0.4684 0.94972 0.0
H512 H 0.74357 0.52872 0.96585 0.0
S513 S 0.86957 0.46082 0.03606 0.0
N514 N 0.88831 0.43614 0.0134 0.0
N515 N 0.81611 0.49752 0.0308 0.0
C516 C 0.81115 0.49048 0.00974 0.0
C517 C 0.84983 0.45679 1.00033 0.0
C518 C 0.34274 0.87659 0.14436 0.0
C519 C 0.38412 0.84196 0.13851 0.0
C520 C 0.26938 0.83465 0.15195 0.0
C521 C 0.23518 0.7566 0.15434 0.0
H522 H 0.36776 0.93694 0.14339 0.0
H523 H 0.24058 0.864 0.15683 0.0
S524 S 0.31724 0.63832 0.13975 0.0
N525 N 0.38348 0.72461 0.13404 0.0
N526 N 0.24675 0.64569 0.1493 0.0
C527 C 0.27542 0.72106 0.14818 0.0
C528 C 0.34967 0.76375 0.14006 0.0
C529 C 0.43221 0.2724 0.31737 0.0
C530 C 0.48004 0.24395 0.32193 0.0
C531 C 0.46062 0.3452 0.30955 0.0
C532 C 0.53769 0.39187 0.30561 0.0
H533 H 0.37279 0.23947 0.32069 0.0
H534 H 0.42196 0.36568 0.30703 0.0
S535 S 0.68571 0.34173 0.313 0.0
N536 N 0.60805 0.26695 0.32094 0.0
N537 N 0.6606 0.40276 0.30546 0.0
C538 C 0.5858 0.36331 0.30937 0.0
C539 C 0.55715 0.28957 0.31767 0.0
C540 C 0.7425 0.25148 0.42209 0.0
C541 C 0.80207 0.31769 0.41385 0.0
C542 C 0.68941 0.19637 0.40898 0.0
C543 C 0.6943 0.20556 0.38722 0.0
H544 H 0.73312 0.24465 0.43873 0.0
H545 H 0.64135 0.14893 0.41605 0.0
S546 S 0.85107 0.35963 0.358 0.0
N547 N 0.87157 0.38259 0.38272 0.0
N548 N 0.77159 0.27884 0.35801 0.0
C549 C 0.75885 0.26689 0.37879 0.0
C550 C 0.81283 0.32318 0.39216 0.0
C551 C 0.47211 0.67098 0.58132 0.0
C552 C 0.47718 0.68614 0.55982 0.0
C553 C 0.47433 0.72261 0.5958 0.0
C554 C 0.48176 0.7911 0.58925 0.0
H555 H 0.46051 0.61665 0.587 0.0
H556 H 0.46378 0.70581 0.61199 0.0
S557 S 0.51986 0.86664 0.53542 0.0
N558 N 0.50658 0.78097 0.53315 0.0
N559 N 0.51104 0.87837 0.56046 0.0
C560 C 0.49709 0.81103 0.56813 0.0
C561 C 0.49473 0.75835 0.55336 0.0
C562 C 0.74407 0.48546 0.72179 0.0
C563 C 0.80468 0.48346 0.73116 0.0
C564 C 0.6867 0.48311 0.73391 0.0
C565 C 0.6883 0.47886 0.75576 0.0
H566 H 0.73726 0.48209 0.70503 0.0
H567 H 0.63817 0.4787 0.72599 0.0
S568 S 0.84617 0.4951 0.78767 0.0
N569 N 0.87154 0.494 0.76337 0.0
N570 N 0.76356 0.48971 0.78627 0.0
C571 C 0.75367 0.48749 0.7653 0.0
C572 C 0.81202 0.48968 0.75293 0.0
C573 C 0.32867 0.80499 0.91559 0.0
C574 C 0.32356 0.79787 0.89378 0.0
C575 C 0.27308 0.7511 0.9284 0.0
C576 C 0.2105 0.6881 0.91983 0.0
H577 H 0.3784 0.84962 0.92292 0.0
H578 H 0.2824 0.75614 0.94506 0.0
S579 S 0.16086 0.65414 0.86379 0.0
N580 N 0.24379 0.73114 0.86422 0.0
N581 N 0.13899 0.62964 0.88837 0.0
C582 C 0.20012 0.68531 0.89813 0.0
C583 C 0.25679 0.74038 0.88505 0.0
C584 C 0.50863 0.25666 0.09208 0.0
C585 C 0.5072 0.19484 0.08235 0.0
C586 C 0.5141 0.31637 0.08033 0.0
C587 C 0.5179 0.31616 0.05846 0.0
H588 H 0.5116 0.26204 0.10887 0.0
H589 H 0.52032 0.36508 0.08856 0.0
S590 S 0.49682 0.15857 0.02555 0.0
N591 N 0.49569 0.13034 0.04967 0.0
N592 N 0.50564 0.24256 0.02751 0.0
C593 C 0.50738 0.25068 0.04853 0.0
C594 C 0.50214 0.18995 0.06052 0.0
C595 C 0.25108 0.50764 0.2537 0.0
C596 C 0.31587 0.51209 0.24509 0.0
C597 C 0.19517 0.50581 0.24093 0.0
C598 C 0.20201 0.50814 0.2191 0.0
H599 H 0.24589 0.5114 0.27038 0.0
H600 H 0.14892 0.50785 0.24829 0.0
S601 S 0.35176 0.50027 0.18901 0.0
N602 N 0.37699 0.50413 0.21358 0.0
N603 N 0.27179 0.5006 0.1895 0.0
C604 C 0.26206 0.50331 0.21034 0.0
C605 C 0.31916 0.50542 0.22338 0.0
C606 C 0.04513 0.80552 0.25053 0.0
C607 C 0.09306 0.78722 0.23966 0.0
C608 C 0.06826 0.8461 0.26937 0.0
C609 C 0.14058 0.87131 0.27759 0.0
H610 H 0.98864 0.78572 0.24495 0.0
H611 H 0.02889 0.85671 0.27776 0.0
S612 S 0.28759 0.83998 0.25419 0.0
N613 N 0.21651 0.79976 0.23787 0.0
N614 N 0.25945 0.87459 0.27298 0.0
C615 C 0.18934 0.85498 0.26638 0.0
C616 C 0.16572 0.81348 0.24746 0.0
C617 C 0.2357 0.0523 0.41598 0.0
C618 C 0.30524 0.09825 0.4063 0.0
C619 C 0.21737 0.07405 0.43491 0.0
C620 C 0.2671 0.14314 0.44444 0.0
H621 H 0.1967 0.99817 0.40937 0.0
H622 H 0.1644 0.03616 0.4423 0.0
S623 S 0.45525 0.28439 0.42483 0.0
N624 N 0.42263 0.21706 0.40725 0.0
N625 N 0.38894 0.25663 0.44259 0.0
C626 C 0.33584 0.18999 0.43454 0.0
C627 C 0.35456 0.16795 0.41551 0.0
C628 C 0.14041 0.21902 0.60337 0.0
C629 C 0.11243 0.26437 0.61113 0.0
C630 C 0.17933 0.23555 0.58428 0.0
C631 C 0.19322 0.29921 0.57268 0.0
H632 H 0.13385 0.17162 0.6124 0.0
H633 H 0.20194 0.20073 0.57915 0.0
S634 S 0.13133 0.43533 0.58594 0.0
N635 N 0.10102 0.37494 0.60539 0.0
N636 N 0.17318 0.40561 0.56981 0.0
C637 C 0.16366 0.34349 0.58001 0.0
C638 C 0.12366 0.32633 0.59918 0.0
C639 C 0.92948 0.19246 0.78144 0.0
C640 C 0.88381 0.11396 0.78088 0.0
C641 C 0.95196 0.23497 0.76315 0.0
C642 C 0.93081 0.20097 0.74344 0.0
H643 H 0.9446 0.22202 0.79617 0.0
H644 H 0.98307 0.29555 0.76449 0.0
S645 S 0.82322 0.99659 0.7332 0.0
N646 N 0.82723 0.00303 0.75886 0.0
N647 N 0.86886 0.08356 0.72432 0.0
C648 C 0.89048 0.12224 0.74251 0.0
C649 C 0.86696 0.0786 0.76128 0.0
C650 C 0.77102 0.85738 0.92914 0.0
C651 C 0.76134 0.88431 0.94842 0.0
C652 C 0.75548 0.88135 0.91015 0.0
C653 C 0.73011 0.93333 0.90981 0.0
H654 H 0.78862 0.81596 0.92865 0.0
H655 H 0.75846 0.85529 0.89582 0.0
S656 S 0.70659 0.02989 0.95537 0.0
N657 N 0.733 0.97296 0.96546 0.0
N658 N 0.70419 0.01726 0.92995 0.0
C659 C 0.72611 0.96506 0.92875 0.0
C660 C 0.74192 0.94102 0.94799 0.0
C661 C 0.90318 0.76718 0.09651 0.0
C662 C 0.86655 0.75909 0.11567 0.0
C663 C 0.86401 0.75153 0.07751 0.0
C664 C 0.78702 0.72746 0.07709 0.0
H665 H 0.96183 0.78317 0.09617 0.0
H666 H 0.89284 0.75306 0.06327 0.0
S667 S 0.66774 0.70902 0.12239 0.0
N668 N 0.75068 0.73442 0.13259 0.0
N669 N 0.67768 0.70473 0.09701 0.0
C670 C 0.75141 0.72523 0.09591 0.0
C671 C 0.7911 0.74145 0.11517 0.0
C672 C 0.14794 0.81121 0.54203 0.0
C673 C 0.11561 0.85179 0.53388 0.0
C674 C 0.19096 0.83415 0.56024 0.0
C675 C 0.20373 0.89883 0.57119 0.0
H676 H 0.14196 0.76241 0.53392 0.0
H677 H 0.21485 0.80078 0.56571 0.0
S678 S 0.13288 0.02611 0.55599 0.0
N679 N 0.10035 0.96079 0.53773 0.0
N680 N 0.18049 0.00354 0.57236 0.0
C681 C 0.1712 0.93983 0.56332 0.0
C682 C 0.12784 0.91672 0.5445 0.0
C683 C 0.30759 0.25079 0.714 0.0
C684 C 0.28284 0.21391 0.73327 0.0
C685 C 0.28822 0.21079 0.69524 0.0
C686 C 0.24476 0.13216 0.69503 0.0
H687 H 0.34448 0.31101 0.71346 0.0
H688 H 0.31073 0.24147 0.68087 0.0
S689 S 0.16024 0.0092 0.74096 0.0
N690 N 0.20771 0.09457 0.75085 0.0
N691 N 0.17213 0.01913 0.71548 0.0
C692 C 0.21658 0.0947 0.71405 0.0
C693 C 0.23529 0.13568 0.7332 0.0
C694 C 0.06508 0.21344 0.87306 0.0
C695 C 0.13928 0.25635 0.86565 0.0
C696 C 0.04265 0.23138 0.89193 0.0
C697 C 0.09345 0.29391 0.90368 0.0
H698 H 0.02362 0.16689 0.86392 0.0
H699 H 0.98466 0.19859 0.89677 0.0
S700 S 0.29377 0.42383 0.8916 0.0
N701 N 0.26302 0.36395 0.87205 0.0
N702 N 0.22137 0.39641 0.90727 0.0
C703 C 0.16799 0.33561 0.89679 0.0
C704 C 0.19081 0.31731 0.87782 0.0
C705 C 0.84902 0.06348 0.03985 0.0
C706 C 0.88102 0.13822 0.03279 0.0
C707 C 0.80849 0.04023 0.05866 0.0
C708 C 0.7985 0.09111 0.07087 0.0
H709 H 0.85274 0.02204 0.03032 0.0
H710 H 0.78113 0.98155 0.06298 0.0
S711 S 0.86922 0.29194 0.05959 0.0
N712 N 0.8979 0.26201 0.03976 0.0
N713 N 0.82488 0.21898 0.07516 0.0
C714 C 0.83254 0.16621 0.06445 0.0
C715 C 0.87293 0.18969 0.04537 0.0
C716 C 0.72337 0.79789 0.1951 0.0
C717 C 0.75344 0.87608 0.1955 0.0
C718 C 0.70737 0.75625 0.2135 0.0
C719 C 0.72175 0.79092 0.23314 0.0
H720 H 0.70786 0.76775 0.18046 0.0
H721 H 0.67955 0.69568 0.21234 0.0
S722 S 0.8132 0.99536 0.24283 0.0
N723 N 0.80746 0.98784 0.2172 0.0
N724 N 0.7759 0.90892 0.25192 0.0
C725 C 0.75767 0.86958 0.23384 0.0
C726 C 0.77369 0.9123 0.21498 0.0
C727 C 0.92364 0.78327 0.37318 0.0
C728 C 0.84798 0.74299 0.36673 0.0
C729 C 0.94664 0.76867 0.39248 0.0
C730 C 0.89463 0.71303 0.40587 0.0
H731 H 0.96588 0.8238 0.36279 0.0
H732 H 0.00585 0.7972 0.39624 0.0
S733 S 0.69086 0.59119 0.39651 0.0
N734 N 0.72188 0.64442 0.37556 0.0
N735 N 0.7646 0.61916 0.41178 0.0
C736 C 0.81868 0.67496 0.40004 0.0
C737 C 0.7954 0.68924 0.38047 0.0
loop_
_geom_bond_atom_site_label_1
_geom_bond_atom_site_label_2
_geom_bond_distance
_geom_bond_site_symmetry_2
_ccdc_geom_bond_type
Co0 O3 1.970 . S
Co0 N17 1.989 . S
Co0 O25 1.967 . S
Co0 O32 1.920 . S
Co1 O4 1.966 . S
Co1 N10 2.022 . S
Co1 N18 1.993 . S
Co1 O26 1.941 . S
C2 O3 1.258 . S
C2 O4 1.263 . S
O3 Co0 1.970 . S
O3 C2 1.258 . S
O4 Co1 1.966 . S
O4 C2 1.263 . S
C5 O6 1.235 . S
C5 O32 1.289 . S
O6 C5 1.235 . S
C7 C9 1.400 1_545 S
C7 N10 1.351 . S
C7 C12 1.501 . S
C8 C9 1.387 . S
C8 N11 1.341 . S
C9 C7 1.400 1_565 S
C9 C8 1.387 . S
N10 Co1 2.022 . S
N10 C7 1.351 . S
N10 N11 1.365 1_545 S
N11 C8 1.341 . S
N11 N10 1.365 1_565 S
N11 H31 0.862 . S
C12 C7 1.501 . S
C12 H13 0.961 . S
C12 H14 0.961 . S
C12 H15 0.960 . S
H13 C12 0.961 . S
H14 C12 0.961 . S
H15 C12 0.960 . S
C16 N17 1.342 . S
C16 C20 1.401 . S
C16 C21 1.499 . S
N17 Co0 1.989 . S
N17 C16 1.342 . S
N17 N18 1.388 . S
N18 Co1 1.993 . S
N18 N17 1.388 . S
N18 C19 1.346 . S
C19 N18 1.346 . S
C19 C20 1.396 . S
C19 C29 1.510 1_545 S
C20 C16 1.401 . S
C20 C19 1.396 . S
C21 C16 1.499 . S
C21 H22 0.959 . S
C21 H23 0.960 . S
C21 H24 0.961 . S
H22 C21 0.959 . S
H23 C21 0.960 . S
H24 C21 0.961 . S
O25 Co0 1.967 . S
O25 C33 1.258 . S
O26 Co1 1.941 . S
O26 C33 1.266 . S
H27 C29 0.959 . S
H28 C29 0.961 . S
C29 C19 1.510 1_565 S
C29 H27 0.959 . S
C29 H28 0.961 . S
C29 H30 0.960 . S
H30 C29 0.960 . S
H31 N11 0.862 . S
O32 Co0 1.920 . S
O32 C5 1.289 . S
C33 O25 1.258 . S
C33 O26 1.266 . S
Co34 O37 1.970 . S
Co34 N51 1.989 . S
Co34 O59 1.967 . S
Co34 O66 1.920 . S
Co35 O38 1.966 . S
Co35 N44 2.022 . S
Co35 N52 1.993 . S
Co35 O60 1.941 . S
C36 O37 1.258 . S
C36 O38 1.263 . S
O37 Co34 1.970 . S
O37 C36 1.258 . S
O38 Co35 1.966 . S
O38 C36 1.263 . S
C39 O40 1.235 . S
C39 O66 1.289 . S
O40 C39 1.235 . S
C41 C43 1.400 . S
C41 N44 1.351 . S
C41 C46 1.501 . S
C42 C43 1.387 . S
C42 N45 1.341 . S
C43 C41 1.400 . S
C43 C42 1.387 . S
N44 Co35 2.022 . S
N44 C41 1.351 . S
N44 N45 1.365 . S
N45 C42 1.341 . S
N45 N44 1.365 . S
N45 H65 0.862 . S
C46 C41 1.501 . S
C46 H47 0.961 . S
C46 H48 0.961 . S
C46 H49 0.960 . S
H47 C46 0.961 . S
H48 C46 0.961 . S
H49 C46 0.960 . S
C50 N51 1.342 . S
C50 C54 1.401 . S
C50 C55 1.499 . S
N51 Co34 1.989 . S
N51 C50 1.342 . S
N51 N52 1.388 . S
N52 Co35 1.993 . S
N52 N51 1.388 . S
N52 C53 1.346 . S
C53 N52 1.346 . S
C53 C54 1.396 . S
C53 C63 1.510 . S
C54 C50 1.401 . S
C54 C53 1.396 . S
C55 C50 1.499 . S
C55 H56 0.959 . S
C55 H57 0.960 . S
C55 H58 0.961 . S
H56 C55 0.959 . S
H57 C55 0.960 . S
H58 C55 0.961 . S
O59 Co34 1.967 . S
O59 C67 1.258 . S
O60 Co35 1.941 . S
O60 C67 1.266 . S
H61 C63 0.959 . S
H62 C63 0.961 . S
C63 C53 1.510 . S
C63 H61 0.959 . S
C63 H62 0.961 . S
C63 H64 0.960 . S
H64 C63 0.960 . S
H65 N45 0.862 . S
O66 Co34 1.920 . S
O66 C39 1.289 . S
C67 O59 1.258 . S
C67 O60 1.266 . S
Co68 O71 1.970 . S
Co68 N85 1.989 . S
Co68 O93 1.967 . S
Co68 O100 1.920 . S
Co69 O72 1.966 . S
Co69 N78 2.022 . S
Co69 N86 1.993 . S
Co69 O94 1.941 . S
C70 O71 1.258 . S
C70 O72 1.263 . S
O71 Co68 1.970 . S
O71 C70 1.258 . S
O72 Co69 1.966 . S
O72 C70 1.263 . S
C73 O74 1.235 . S
C73 O100 1.289 . S
O74 C73 1.235 . S
C75 C77 1.400 1_655 S
C75 N78 1.351 . S
C75 C80 1.501 . S
C76 C77 1.387 . S
C76 N79 1.341 . S
C77 C75 1.400 1_455 S
C77 C76 1.387 . S
N78 Co69 2.022 . S
N78 C75 1.351 . S
N78 N79 1.365 1_655 S
N79 C76 1.341 . S
N79 N78 1.365 1_455 S
N79 H99 0.862 . S
C80 C75 1.501 . S
C80 H81 0.961 . S
C80 H82 0.961 . S
C80 H83 0.960 . S
H81 C80 0.961 . S
H82 C80 0.961 . S
H83 C80 0.960 . S
C84 N85 1.342 . S
C84 C88 1.401 . S
C84 C89 1.499 . S
N85 Co68 1.989 . S
N85 C84 1.342 . S
N85 N86 1.388 . S
N86 Co69 1.993 . S
N86 N85 1.388 . S
N86 C87 1.346 . S
C87 N86 1.346 . S
C87 C88 1.396 . S
C87 C97 1.510 1_655 S
C88 C84 1.401 . S
C88 C87 1.396 . S
C89 C84 1.499 . S
C89 H90 0.959 . S
C89 H91 0.960 . S
C89 H92 0.961 . S
H90 C89 0.959 . S
H91 C89 0.960 . S
H92 C89 0.961 . S
O93 Co68 1.967 . S
O93 C101 1.258 . S
O94 Co69 1.941 . S
O94 C101 1.266 . S
H95 C97 0.959 . S
H96 C97 0.961 . S
C97 C87 1.510 1_455 S
C97 H95 0.959 . S
C97 H96 0.961 . S
C97 H98 0.960 . S
H98 C97 0.960 . S
H99 N79 0.862 . S
O100 Co68 1.920 . S
O100 C73 1.289 . S
C101 O93 1.258 . S
C101 O94 1.266 . S
Co102 O105 1.970 . S
Co102 N119 1.989 . S
Co102 O127 1.967 . S
Co102 O134 1.920 . S
Co103 O106 1.966 . S
Co103 N112 2.022 . S
Co103 N120 1.993 . S
Co103 O128 1.941 . S
C104 O105 1.258 . S
C104 O106 1.263 . S
O105 Co102 1.970 . S
O105 C104 1.258 . S
O106 Co103 1.966 . S
O106 C104 1.263 . S
C107 O108 1.235 . S
C107 O134 1.289 . S
O108 C107 1.235 . S
C109 C111 1.400 1_565 S
C109 N112 1.351 . S
C109 C114 1.501 . S
C110 C111 1.387 . S
C110 N113 1.341 . S
C111 C109 1.400 1_545 S
C111 C110 1.387 . S
N112 Co103 2.022 . S
N112 C109 1.351 . S
N112 N113 1.365 1_565 S
N113 C110 1.341 . S
N113 N112 1.365 1_545 S
N113 H133 0.862 . S
C114 C109 1.501 . S
C114 H115 0.961 . S
C114 H116 0.961 . S
C114 H117 0.960 . S
H115 C114 0.961 . S
H116 C114 0.961 . S
H117 C114 0.960 . S
C118 N119 1.342 . S
C118 C122 1.401 . S
C118 C123 1.499 . S
N119 Co102 1.989 . S
N119 C118 1.342 . S
N119 N120 1.388 . S
N120 Co103 1.993 . S
N120 N119 1.388 . S
N120 C121 1.346 . S
C121 N120 1.346 . S
C121 C122 1.396 . S
C121 C131 1.510 1_565 S
C122 C118 1.401 . S
C122 C121 1.396 . S
C123 C118 1.499 . S
C123 H124 0.959 . S
C123 H125 0.960 . S
C123 H126 0.961 . S
H124 C123 0.959 . S
H125 C123 0.960 . S
H126 C123 0.961 . S
O127 Co102 1.967 . S
O127 C135 1.258 . S
O128 Co103 1.941 . S
O128 C135 1.266 . S
H129 C131 0.959 . S
H130 C131 0.961 . S
C131 C121 1.510 1_545 S
C131 H129 0.959 . S
C131 H130 0.961 . S
C131 H132 0.960 . S
H132 C131 0.960 . S
H133 N113 0.862 . S
O134 Co102 1.920 . S
O134 C107 1.289 . S
C135 O127 1.258 . S
C135 O128 1.266 . S
Co136 O139 1.970 . S
Co136 N153 1.989 . S
Co136 O161 1.967 . S
Co136 O168 1.920 . S
Co137 O140 1.966 . S
Co137 N146 2.022 . S
Co137 N154 1.993 . S
Co137 O162 1.941 1_556 S
C138 O139 1.258 1_556 S
C138 O140 1.263 . S
O139 Co136 1.970 . S
O139 C138 1.258 1_554 S
O140 Co137 1.966 . S
O140 C138 1.263 . S
C141 O142 1.235 . S
C141 O168 1.289 . S
O142 C141 1.235 . S
C143 C145 1.400 . S
C143 N146 1.351 . S
C143 C148 1.501 . S
C144 C145 1.387 . S
C144 N147 1.341 . S
C145 C143 1.400 . S
C145 C144 1.387 . S
N146 Co137 2.022 . S
N146 C143 1.351 . S
N146 N147 1.365 . S
N147 C144 1.341 . S
N147 N146 1.365 . S
N147 H167 0.862 . S
C148 C143 1.501 . S
C148 H149 0.961 . S
C148 H150 0.961 . S
C148 H151 0.960 . S
H149 C148 0.961 . S
H150 C148 0.961 . S
H151 C148 0.960 . S
C152 N153 1.342 . S
C152 C156 1.401 . S
C152 C157 1.499 . S
N153 Co136 1.989 . S
N153 C152 1.342 . S
N153 N154 1.388 1_554 S
N154 Co137 1.993 . S
N154 N153 1.388 1_556 S
N154 C155 1.346 . S
C155 N154 1.346 . S
C155 C156 1.396 1_556 S
C155 C165 1.510 . S
C156 C152 1.401 . S
C156 C155 1.396 1_554 S
C157 C152 1.499 . S
C157 H158 0.959 . S
C157 H159 0.960 . S
C157 H160 0.961 . S
H158 C157 0.959 . S
H159 C157 0.960 . S
H160 C157 0.961 . S
O161 Co136 1.967 . S
O161 C169 1.258 . S
O162 Co137 1.941 1_554 S
O162 C169 1.266 . S
H163 C165 0.959 . S
H164 C165 0.961 . S
C165 C155 1.510 . S
C165 H163 0.959 . S
C165 H164 0.961 . S
C165 H166 0.960 . S
H166 C165 0.960 . S
H167 N147 0.862 . S
O168 Co136 1.920 . S
O168 C141 1.289 . S
C169 O161 1.258 . S
C169 O162 1.266 . S
Co170 O173 1.970 . S
Co170 N187 1.989 . S
Co170 O195 1.967 . S
Co170 O202 1.920 . S
Co171 O174 1.966 . S
Co171 N180 2.022 . S
Co171 N188 1.993 . S
Co171 O196 1.941 . S
C172 O173 1.258 . S
C172 O174 1.263 . S
O173 Co170 1.970 . S
O173 C172 1.258 . S
O174 Co171 1.966 . S
O174 C172 1.263 . S
C175 O176 1.235 . S
C175 O202 1.289 . S
O176 C175 1.235 . S
C177 C179 1.400 1_455 S
C177 N180 1.351 . S
C177 C182 1.501 . S
C178 C179 1.387 . S
C178 N181 1.341 . S
C179 C177 1.400 1_655 S
C179 C178 1.387 . S
N180 Co171 2.022 . S
N180 C177 1.351 . S
N180 N181 1.365 1_455 S
N181 C178 1.341 . S
N181 N180 1.365 1_655 S
N181 H201 0.862 . S
C182 C177 1.501 . S
C182 H183 0.961 . S
C182 H184 0.961 . S
C182 H185 0.960 . S
H183 C182 0.961 . S
H184 C182 0.961 . S
H185 C182 0.960 . S
C186 N187 1.342 . S
C186 C190 1.401 . S
C186 C191 1.499 . S
N187 Co170 1.989 . S
N187 C186 1.342 . S
N187 N188 1.388 . S
N188 Co171 1.993 . S
N188 N187 1.388 . S
N188 C189 1.346 . S
C189 N188 1.346 . S
C189 C190 1.396 . S
C189 C199 1.510 1_455 S
C190 C186 1.401 . S
C190 C189 1.396 . S
C191 C186 1.499 . S
C191 H192 0.959 . S
C191 H193 0.960 . S
C191 H194 0.961 . S
H192 C191 0.959 . S
H193 C191 0.960 . S
H194 C191 0.961 . S
O195 Co170 1.967 . S
O195 C203 1.258 . S
O196 Co171 1.941 . S
O196 C203 1.266 . S
H197 C199 0.959 . S
H198 C199 0.961 . S
C199 C189 1.510 1_655 S
C199 H197 0.959 . S
C199 H198 0.961 . S
C199 H200 0.960 . S
H200 C199 0.960 . S
H201 N181 0.862 . S
O202 Co170 1.920 . S
O202 C175 1.289 . S
C203 O195 1.258 . S
C203 O196 1.266 . S
Co204 O207 1.970 . S
Co204 N221 1.989 . S
Co204 O229 1.967 . S
Co204 O236 1.920 . S
Co205 O208 1.966 . S
Co205 N214 2.022 . S
Co205 N222 1.993 . S
Co205 O230 1.941 . S
C206 O207 1.258 . S
C206 O208 1.263 . S
O207 Co204 1.970 . S
O207 C206 1.258 . S
O208 Co205 1.966 . S
O208 C206 1.263 . S
C209 O210 1.235 . S
C209 O236 1.289 . S
O210 C209 1.235 . S
C211 C213 1.400 1_655 S
C211 N214 1.351 . S
C211 C216 1.501 . S
C212 C213 1.387 . S
C212 N215 1.341 . S
C213 C211 1.400 1_455 S
C213 C212 1.387 . S
N214 Co205 2.022 . S
N214 C211 1.351 . S
N214 N215 1.365 1_655 S
N215 C212 1.341 . S
N215 N214 1.365 1_455 S
N215 H235 0.862 . S
C216 C211 1.501 . S
C216 H217 0.961 . S
C216 H218 0.961 . S
C216 H219 0.960 . S
H217 C216 0.961 . S
H218 C216 0.961 . S
H219 C216 0.960 . S
C220 N221 1.342 . S
C220 C224 1.401 . S
C220 C225 1.499 . S
N221 Co204 1.989 . S
N221 C220 1.342 . S
N221 N222 1.388 . S
N222 Co205 1.993 . S
N222 N221 1.388 . S
N222 C223 1.346 . S
C223 N222 1.346 . S
C223 C224 1.396 . S
C223 C233 1.510 1_655 S
C224 C220 1.401 . S
C224 C223 1.396 . S
C225 C220 1.499 . S
C225 H226 0.959 . S
C225 H227 0.960 . S
C225 H228 0.961 . S
H226 C225 0.959 . S
H227 C225 0.960 . S
H228 C225 0.961 . S
O229 Co204 1.967 . S
O229 C237 1.258 . S
O230 Co205 1.941 . S
O230 C237 1.266 . S
H231 C233 0.959 . S
H232 C233 0.961 . S
C233 C223 1.510 1_455 S
C233 H231 0.959 . S
C233 H232 0.961 . S
C233 H234 0.960 . S
H234 C233 0.960 . S
H235 N215 0.862 . S
O236 Co204 1.920 . S
O236 C209 1.289 . S
C237 O229 1.258 . S
C237 O230 1.266 . S
Co238 O241 1.970 . S
Co238 N255 1.989 . S
Co238 O263 1.967 . S
Co238 O270 1.920 . S
Co239 O242 1.966 . S
Co239 N248 2.022 . S
Co239 N256 1.993 . S
Co239 O264 1.941 . S
C240 O241 1.258 . S
C240 O242 1.263 . S
O241 Co238 1.970 . S
O241 C240 1.258 . S
O242 Co239 1.966 . S
O242 C240 1.263 . S
C243 O244 1.235 . S
C243 O270 1.289 . S
O244 C243 1.235 . S
C245 C247 1.400 1_565 S
C245 N248 1.351 . S
C245 C250 1.501 . S
C246 C247 1.387 . S
C246 N249 1.341 . S
C247 C245 1.400 1_545 S
C247 C246 1.387 . S
N248 Co239 2.022 . S
N248 C245 1.351 . S
N248 N249 1.365 1_565 S
N249 C246 1.341 . S
N249 N248 1.365 1_545 S
N249 H269 0.862 . S
C250 C245 1.501 . S
C250 H251 0.961 . S
C250 H252 0.961 . S
C250 H253 0.960 . S
H251 C250 0.961 . S
H252 C250 0.961 . S
H253 C250 0.960 . S
C254 N255 1.342 . S
C254 C258 1.401 . S
C254 C259 1.499 . S
N255 Co238 1.989 . S
N255 C254 1.342 . S
N255 N256 1.388 . S
N256 Co239 1.993 . S
N256 N255 1.388 . S
N256 C257 1.346 . S
C257 N256 1.346 . S
C257 C258 1.396 . S
C257 C267 1.510 1_565 S
C258 C254 1.401 . S
C258 C257 1.396 . S
C259 C254 1.499 . S
C259 H260 0.959 . S
C259 H261 0.960 . S
C259 H262 0.961 . S
H260 C259 0.959 . S
H261 C259 0.960 . S
H262 C259 0.961 . S
O263 Co238 1.967 . S
O263 C271 1.258 . S
O264 Co239 1.941 . S
O264 C271 1.266 . S
H265 C267 0.959 . S
H266 C267 0.961 . S
C267 C257 1.510 1_545 S
C267 H265 0.959 . S
C267 H266 0.961 . S
C267 H268 0.960 . S
H268 C267 0.960 . S
H269 N249 0.862 . S
O270 Co238 1.920 . S
O270 C243 1.289 . S
C271 O263 1.258 . S
C271 O264 1.266 . S
Co272 O275 1.970 . S
Co272 N289 1.989 . S
Co272 O297 1.967 . S
Co272 O304 1.920 . S
Co273 O276 1.966 . S
Co273 N282 2.022 . S
Co273 N290 1.993 . S
Co273 O298 1.941 . S
C274 O275 1.258 . S
C274 O276 1.263 . S
O275 Co272 1.970 . S
O275 C274 1.258 . S
O276 Co273 1.966 . S
O276 C274 1.263 . S
C277 O278 1.235 . S
C277 O304 1.289 . S
O278 C277 1.235 . S
C279 C281 1.400 . S
C279 N282 1.351 . S
C279 C284 1.501 . S
C280 C281 1.387 . S
C280 N283 1.341 . S
C281 C279 1.400 . S
C281 C280 1.387 . S
N282 Co273 2.022 . S
N282 C279 1.351 . S
N282 N283 1.365 . S
N283 C280 1.341 . S
N283 N282 1.365 . S
N283 H303 0.862 . S
C284 C279 1.501 . S
C284 H285 0.961 . S
C284 H286 0.961 . S
C284 H287 0.960 . S
H285 C284 0.961 . S
H286 C284 0.961 . S
H287 C284 0.960 . S
C288 N289 1.342 . S
C288 C292 1.401 . S
C288 C293 1.499 . S
N289 Co272 1.989 . S
N289 C288 1.342 . S
N289 N290 1.388 . S
N290 Co273 1.993 . S
N290 N289 1.388 . S
N290 C291 1.346 . S
C291 N290 1.346 . S
C291 C292 1.396 . S
C291 C301 1.510 . S
C292 C288 1.401 . S
C292 C291 1.396 . S
C293 C288 1.499 . S
C293 H294 0.959 . S
C293 H295 0.960 . S
C293 H296 0.961 . S
H294 C293 0.959 . S
H295 C293 0.960 . S
H296 C293 0.961 . S
O297 Co272 1.967 . S
O297 C305 1.258 . S
O298 Co273 1.941 . S
O298 C305 1.266 . S
H299 C301 0.959 . S
H300 C301 0.961 . S
C301 C291 1.510 . S
C301 H299 0.959 . S
C301 H300 0.961 . S
C301 H302 0.960 . S
H302 C301 0.960 . S
H303 N283 0.862 . S
O304 Co272 1.920 . S
O304 C277 1.289 . S
C305 O297 1.258 . S
C305 O298 1.266 . S
Co306 O309 1.970 . S
Co306 N323 1.989 . S
Co306 O331 1.967 . S
Co306 O338 1.920 . S
Co307 O310 1.966 . S
Co307 N316 2.022 1_556 S
Co307 N324 1.993 . S
Co307 O332 1.941 . S
C308 O309 1.258 . S
C308 O310 1.263 . S
O309 Co306 1.970 . S
O309 C308 1.258 . S
O310 Co307 1.966 . S
O310 C308 1.263 . S
C311 O312 1.235 . S
C311 O338 1.289 . S
O312 C311 1.235 . S
C313 C315 1.400 1_455 S
C313 N316 1.351 . S
C313 C318 1.501 . S
C314 C315 1.387 . S
C314 N317 1.341 . S
C315 C313 1.400 1_655 S
C315 C314 1.387 . S
N316 Co307 2.022 1_554 S
N316 C313 1.351 . S
N316 N317 1.365 1_455 S
N317 C314 1.341 . S
N317 N316 1.365 1_655 S
N317 H337 0.862 1_554 S
C318 C313 1.501 . S
C318 H319 0.961 . S
C318 H320 0.961 . S
C318 H321 0.960 . S
H319 C318 0.961 . S
H320 C318 0.961 . S
H321 C318 0.960 . S
C322 N323 1.342 . S
C322 C326 1.401 . S
C322 C327 1.499 . S
N323 Co306 1.989 . S
N323 C322 1.342 . S
N323 N324 1.388 . S
N324 Co307 1.993 . S
N324 N323 1.388 . S
N324 C325 1.346 . S
C325 N324 1.346 . S
C325 C326 1.396 . S
C325 C335 1.513 1_455 S
C326 C322 1.401 . S
C326 C325 1.396 . S
C327 C322 1.499 . S
C327 H328 0.959 . S
C327 H329 0.960 . S
C327 H330 0.961 . S
H328 C327 0.959 . S
H329 C327 0.960 . S
H330 C327 0.961 . S
O331 Co306 1.967 . S
O331 C339 1.258 . S
O332 Co307 1.941 . S
O332 C339 1.266 . S
H333 C335 0.961 . S
H334 C335 0.958 1_554 S
C335 C325 1.513 1_655 S
C335 H333 0.961 . S
C335 H334 0.958 1_556 S
C335 H336 0.959 1_556 S
H336 C335 0.959 1_554 S
H337 N317 0.862 1_556 S
O338 Co306 1.920 . S
O338 C311 1.289 . S
C339 O331 1.258 . S
C339 O332 1.266 . S
Co340 O343 1.970 . S
Co340 N357 1.989 . S
Co340 O365 1.967 . S
Co340 O372 1.920 . S
Co341 O344 1.966 . S
Co341 N350 2.022 . S
Co341 N358 1.993 . S
Co341 O366 1.941 . S
C342 O343 1.258 . S
C342 O344 1.263 . S
O343 Co340 1.970 . S
O343 C342 1.258 . S
O344 Co341 1.966 . S
O344 C342 1.263 . S
C345 O346 1.235 . S
C345 O372 1.289 . S
O346 C345 1.235 . S
C347 C349 1.400 1_545 S
C347 N350 1.351 . S
C347 C352 1.501 . S
C348 C349 1.387 . S
C348 N351 1.341 . S
C349 C347 1.400 1_565 S
C349 C348 1.387 . S
N350 Co341 2.022 . S
N350 C347 1.351 . S
N350 N351 1.365 1_545 S
N351 C348 1.341 . S
N351 N350 1.365 1_565 S
N351 H371 0.862 . S
C352 C347 1.501 . S
C352 H353 0.961 . S
C352 H354 0.961 . S
C352 H355 0.960 . S
H353 C352 0.961 . S
H354 C352 0.961 . S
H355 C352 0.960 . S
C356 N357 1.342 . S
C356 C360 1.401 . S
C356 C361 1.499 . S
N357 Co340 1.989 . S
N357 C356 1.342 . S
N357 N358 1.388 . S
N358 Co341 1.993 . S
N358 N357 1.388 . S
N358 C359 1.346 . S
C359 N358 1.346 . S
C359 C360 1.396 . S
C359 C369 1.510 1_545 S
C360 C356 1.401 . S
C360 C359 1.396 . S
C361 C356 1.499 . S
C361 H362 0.959 . S
C361 H363 0.960 . S
C361 H364 0.961 . S
H362 C361 0.959 . S
H363 C361 0.960 . S
H364 C361 0.961 . S
O365 Co340 1.967 . S
O365 C373 1.258 . S
O366 Co341 1.941 . S
O366 C373 1.266 . S
H367 C369 0.959 . S
H368 C369 0.961 . S
C369 C359 1.510 1_565 S
C369 H367 0.959 . S
C369 H368 0.961 . S
C369 H370 0.960 . S
H370 C369 0.960 . S
H371 N351 0.862 . S
O372 Co340 1.920 . S
O372 C345 1.289 . S
C373 O365 1.258 . S
C373 O366 1.266 . S
Co374 O377 1.970 . S
Co374 N391 1.989 . S
Co374 O399 1.967 . S
Co374 O406 1.920 . S
Co375 O378 1.966 . S
Co375 N384 2.022 . S
Co375 N392 1.993 . S
Co375 O400 1.941 . S
C376 O377 1.258 . S
C376 O378 1.263 . S
O377 Co374 1.970 . S
O377 C376 1.258 . S
O378 Co375 1.966 . S
O378 C376 1.263 . S
C379 O380 1.235 . S
C379 O406 1.289 . S
O380 C379 1.235 . S
C381 C383 1.400 . S
C381 N384 1.351 . S
C381 C386 1.501 . S
C382 C383 1.387 . S
C382 N385 1.341 . S
C383 C381 1.400 . S
C383 C382 1.387 . S
N384 Co375 2.022 . S
N384 C381 1.351 . S
N384 N385 1.365 . S
N385 C382 1.341 . S
N385 N384 1.365 . S
N385 H405 0.862 . S
C386 C381 1.501 . S
C386 H387 0.961 . S
C386 H388 0.961 . S
C386 H389 0.960 . S
H387 C386 0.961 . S
H388 C386 0.961 . S
H389 C386 0.960 . S
C390 N391 1.342 . S
C390 C394 1.401 . S
C390 C395 1.499 . S
N391 Co374 1.989 . S
N391 C390 1.342 . S
N391 N392 1.388 . S
N392 Co375 1.993 . S
N392 N391 1.388 . S
N392 C393 1.346 . S
C393 N392 1.346 . S
C393 C394 1.396 . S
C393 C403 1.510 . S
C394 C390 1.401 . S
C394 C393 1.396 . S
C395 C390 1.499 . S
C395 H396 0.959 . S
C395 H397 0.960 . S
C395 H398 0.961 . S
H396 C395 0.959 . S
H397 C395 0.960 . S
H398 C395 0.961 . S
O399 Co374 1.967 . S
O399 C407 1.258 . S
O400 Co375 1.941 . S
O400 C407 1.266 . S
H401 C403 0.959 . S
H402 C403 0.961 . S
C403 C393 1.510 . S
C403 H401 0.959 . S
C403 H402 0.961 . S
C403 H404 0.960 . S
H404 C403 0.960 . S
H405 N385 0.862 . S
O406 Co374 1.920 . S
O406 C379 1.289 . S
C407 O399 1.258 . S
C407 O400 1.266 . S
C408 C409 1.369 . S
C408 C410 1.419 . S
C408 H412 0.930 . S
C409 C408 1.369 . S
C409 C418 1.429 . S
C410 C408 1.419 . S
C410 C411 1.363 . S
C410 H413 0.929 . S
C411 C410 1.363 . S
C411 C417 1.428 . S
H412 C408 0.930 . S
H413 C410 0.929 . S
S414 N415 1.613 . S
S414 N416 1.610 1_545 S
N415 S414 1.613 . S
N415 C418 1.350 1_545 S
N416 S414 1.610 1_565 S
N416 C417 1.351 . S
C417 C411 1.428 . S
C417 N416 1.351 . S
C417 C418 1.434 . S
C418 C409 1.429 . S
C418 N415 1.350 1_565 S
C418 C417 1.434 . S
C419 C420 1.369 . S
C419 C421 1.419 . S
C419 H423 0.930 . S
C420 C419 1.369 . S
C420 C429 1.429 . S
C421 C419 1.419 . S
C421 C422 1.363 . S
C421 H424 0.929 . S
C422 C421 1.363 . S
C422 C428 1.428 . S
H423 C419 0.930 . S
H424 C421 0.929 . S
S425 N426 1.613 . S
S425 N427 1.610 . S
N426 S425 1.613 . S
N426 C429 1.350 . S
N427 S425 1.610 . S
N427 C428 1.351 . S
C428 C422 1.428 . S
C428 N427 1.351 . S
C428 C429 1.434 . S
C429 C420 1.429 . S
C429 N426 1.350 . S
C429 C428 1.434 . S
C430 C431 1.369 . S
C430 C432 1.419 . S
C430 H434 0.930 . S
C431 C430 1.369 . S
C431 C440 1.429 . S
C432 C430 1.419 . S
C432 C433 1.363 . S
C432 H435 0.929 . S
C433 C432 1.363 . S
C433 C439 1.428 . S
H434 C430 0.930 . S
H435 C432 0.929 . S
S436 N437 1.613 . S
S436 N438 1.610 . S
N437 S436 1.613 . S
N437 C440 1.350 . S
N438 S436 1.610 . S
N438 C439 1.351 . S
C439 C433 1.428 . S
C439 N438 1.351 . S
C439 C440 1.434 . S
C440 C431 1.429 . S
C440 N437 1.350 . S
C440 C439 1.434 . S
C441 C442 1.369 . S
C441 C443 1.419 . S
C441 H445 0.930 . S
C442 C441 1.369 . S
C442 C451 1.429 1_545 S
C443 C441 1.419 . S
C443 C444 1.363 . S
C443 H446 0.929 . S
C444 C443 1.363 . S
C444 C450 1.428 1_545 S
H445 C441 0.930 . S
H446 C443 0.929 . S
S447 N448 1.613 . S
S447 N449 1.610 . S
N448 S447 1.613 . S
N448 C451 1.350 . S
N449 S447 1.610 . S
N449 C450 1.351 . S
C450 C444 1.428 1_565 S
C450 N449 1.351 . S
C450 C451 1.434 . S
C451 C442 1.429 1_565 S
C451 N448 1.350 . S
C451 C450 1.434 . S
C452 C453 1.369 1_556 S
C452 C454 1.419 . S
C452 H456 0.930 . S
C453 C452 1.369 1_554 S
C453 C462 1.429 . S
C454 C452 1.419 . S
C454 C455 1.363 . S
C454 H457 0.929 . S
C455 C454 1.363 . S
C455 C461 1.428 1_556 S
H456 C452 0.930 . S
H457 C454 0.929 . S
S458 N459 1.613 . S
S458 N460 1.610 . S
N459 S458 1.613 . S
N459 C462 1.350 . S
N460 S458 1.610 . S
N460 C461 1.351 . S
C461 C455 1.428 1_554 S
C461 N460 1.351 . S
C461 C462 1.434 . S
C462 C453 1.429 . S
C462 N459 1.350 . S
C462 C461 1.434 . S
C463 C464 1.369 . S
C463 C465 1.419 . S
C463 H467 0.930 . S
C464 C463 1.369 . S
C464 C473 1.429 . S
C465 C463 1.419 . S
C465 C466 1.363 . S
C465 H468 0.929 . S
C466 C465 1.363 . S
C466 C472 1.428 . S
H467 C463 0.930 . S
H468 C465 0.929 . S
S469 N470 1.613 . S
S469 N471 1.610 . S
N470 S469 1.613 . S
N470 C473 1.350 . S
N471 S469 1.610 . S
N471 C472 1.351 . S
C472 C466 1.428 . S
C472 N471 1.351 . S
C472 C473 1.434 . S
C473 C464 1.429 . S
C473 N470 1.350 . S
C473 C472 1.434 . S
C474 C475 1.369 . S
C474 C476 1.419 . S
C474 H478 0.930 . S
C475 C474 1.369 . S
C475 C484 1.429 1_455 S
C476 C474 1.419 . S
C476 C477 1.363 . S
C476 H479 0.929 . S
C477 C476 1.363 . S
C477 C483 1.428 1_455 S
H478 C474 0.930 . S
H479 C476 0.929 . S
S480 N481 1.613 . S
S480 N482 1.610 . S
N481 S480 1.613 . S
N481 C484 1.350 . S
N482 S480 1.610 . S
N482 C483 1.351 . S
C483 C477 1.428 1_655 S
C483 N482 1.351 . S
C483 C484 1.434 . S
C484 C475 1.429 1_655 S
C484 N481 1.350 . S
C484 C483 1.434 . S
C485 C486 1.369 1_565 S
C485 C487 1.419 . S
C485 H489 0.930 . S
C486 C485 1.369 1_545 S
C486 C495 1.429 . S
C487 C485 1.419 . S
C487 C488 1.363 1_565 S
C487 H490 0.929 . S
C488 C487 1.363 1_545 S
C488 C494 1.428 . S
H489 C485 0.930 . S
H490 C487 0.929 . S
S491 N492 1.613 . S
S491 N493 1.610 . S
N492 S491 1.613 . S
N492 C495 1.350 . S
N493 S491 1.610 . S
N493 C494 1.351 . S
C494 C488 1.428 . S
C494 N493 1.351 . S
C494 C495 1.434 . S
C495 C486 1.429 . S
C495 N492 1.350 . S
C495 C494 1.434 . S
C496 C497 1.369 . S
C496 C498 1.419 . S
C496 H500 0.930 . S
C497 C496 1.369 . S
C497 C506 1.429 . S
C498 C496 1.419 . S
C498 C499 1.363 . S
C498 H501 0.929 . S
C499 C498 1.363 . S
C499 C505 1.428 . S
H500 C496 0.930 . S
H501 C498 0.929 . S
S502 N503 1.613 . S
S502 N504 1.610 . S
N503 S502 1.613 . S
N503 C506 1.350 . S
N504 S502 1.610 . S
N504 C505 1.351 . S
C505 C499 1.428 . S
C505 N504 1.351 . S
C505 C506 1.434 . S
C506 C497 1.429 . S
C506 N503 1.350 . S
C506 C505 1.434 . S
C507 C508 1.369 . S
C507 C509 1.419 . S
C507 H511 0.930 . S
C508 C507 1.369 . S
C508 C517 1.429 . S
C509 C507 1.419 . S
C509 C510 1.363 . S
C509 H512 0.929 . S
C510 C509 1.363 . S
C510 C516 1.457 . S
H511 C507 0.930 . S
H512 C509 0.929 . S
S513 N514 1.613 . S
S513 N515 1.610 . S
N514 S513 1.613 . S
N514 C517 1.350 1_554 S
N515 S513 1.610 . S
N515 C516 1.313 1_554 S
C516 C510 1.457 . S
C516 N515 1.313 1_556 S
C516 C517 1.443 . S
C517 C508 1.429 . S
C517 N514 1.350 1_556 S
C517 C516 1.443 . S
C518 C519 1.369 1_545 S
C518 C520 1.418 . S
C518 H522 0.930 . S
C519 C518 1.369 1_565 S
C519 C528 1.429 . S
C520 C518 1.418 . S
C520 C521 1.363 1_545 S
C520 H523 0.930 . S
C521 C520 1.363 1_565 S
C521 C527 1.428 . S
H522 C518 0.930 . S
H523 C520 0.930 . S
S524 N525 1.613 . S
S524 N526 1.610 . S
N525 S524 1.613 . S
N525 C528 1.350 . S
N526 S524 1.610 . S
N526 C527 1.351 . S
C527 C521 1.428 . S
C527 N526 1.351 . S
C527 C528 1.434 . S
C528 C519 1.429 . S
C528 N525 1.350 . S
C528 C527 1.434 . S
C529 C530 1.369 . S
C529 C531 1.419 . S
C529 H533 0.930 . S
C530 C529 1.369 . S
C530 C539 1.429 . S
C531 C529 1.419 . S
C531 C532 1.363 . S
C531 H534 0.929 . S
C532 C531 1.363 . S
C532 C538 1.428 . S
H533 C529 0.930 . S
H534 C531 0.929 . S
S535 N536 1.613 . S
S535 N537 1.610 . S
N536 S535 1.613 . S
N536 C539 1.350 . S
N537 S535 1.610 . S
N537 C538 1.351 . S
C538 C532 1.428 . S
C538 N537 1.351 . S
C538 C539 1.434 . S
C539 C530 1.429 . S
C539 N536 1.350 . S
C539 C538 1.434 . S
C540 C541 1.369 . S
C540 C542 1.419 . S
C540 H544 0.930 . S
C541 C540 1.369 . S
C541 C550 1.429 . S
C542 C540 1.419 . S
C542 C543 1.363 . S
C542 H545 0.929 . S
C543 C542 1.363 . S
C543 C549 1.428 . S
H544 C540 0.930 . S
H545 C542 0.929 . S
S546 N547 1.613 . S
S546 N548 1.610 . S
N547 S546 1.613 . S
N547 C550 1.350 . S
N548 S546 1.610 . S
N548 C549 1.351 . S
C549 C543 1.428 . S
C549 N548 1.351 . S
C549 C550 1.434 . S
C550 C541 1.429 . S
C550 N547 1.350 . S
C550 C549 1.434 . S
C551 C552 1.369 . S
C551 C553 1.419 . S
C551 H555 0.930 . S
C552 C551 1.369 . S
C552 C561 1.429 . S
C553 C551 1.419 . S
C553 C554 1.363 . S
C553 H556 0.929 . S
C554 C553 1.363 . S
C554 C560 1.428 . S
H555 C551 0.930 . S
H556 C553 0.929 . S
S557 N558 1.613 . S
S557 N559 1.610 . S
N558 S557 1.613 . S
N558 C561 1.350 . S
N559 S557 1.610 . S
N559 C560 1.351 . S
C560 C554 1.428 . S
C560 N559 1.351 . S
C560 C561 1.434 . S
C561 C552 1.429 . S
C561 N558 1.350 . S
C561 C560 1.434 . S
C562 C563 1.369 . S
C562 C564 1.419 . S
C562 H566 0.930 . S
C563 C562 1.369 . S
C563 C572 1.429 . S
C564 C562 1.419 . S
C564 C565 1.363 . S
C564 H567 0.929 . S
C565 C564 1.363 . S
C565 C571 1.428 . S
H566 C562 0.930 . S
H567 C564 0.929 . S
S568 N569 1.613 . S
S568 N570 1.610 . S
N569 S568 1.613 . S
N569 C572 1.350 . S
N570 S568 1.610 . S
N570 C571 1.351 . S
C571 C565 1.428 . S
C571 N570 1.351 . S
C571 C572 1.434 . S
C572 C563 1.429 . S
C572 N569 1.350 . S
C572 C571 1.434 . S
C573 C574 1.369 . S
C573 C575 1.419 . S
C573 H577 0.930 . S
C574 C573 1.369 . S
C574 C583 1.429 . S
C575 C573 1.419 . S
C575 C576 1.363 . S
C575 H578 0.929 . S
C576 C575 1.363 . S
C576 C582 1.428 . S
H577 C573 0.930 . S
H578 C575 0.929 . S
S579 N580 1.613 . S
S579 N581 1.610 . S
N580 S579 1.613 . S
N580 C583 1.350 . S
N581 S579 1.610 . S
N581 C582 1.351 . S
C582 C576 1.428 . S
C582 N581 1.351 . S
C582 C583 1.434 . S
C583 C574 1.429 . S
C583 N580 1.350 . S
C583 C582 1.434 . S
C584 C585 1.369 . S
C584 C586 1.419 . S
C584 H588 0.930 . S
C585 C584 1.369 . S
C585 C594 1.429 . S
C586 C584 1.419 . S
C586 C587 1.363 . S
C586 H589 0.929 . S
C587 C586 1.363 . S
C587 C593 1.428 . S
H588 C584 0.930 . S
H589 C586 0.929 . S
S590 N591 1.613 . S
S590 N592 1.610 . S
N591 S590 1.613 . S
N591 C594 1.350 . S
N592 S590 1.610 . S
N592 C593 1.351 . S
C593 C587 1.428 . S
C593 N592 1.351 . S
C593 C594 1.434 . S
C594 C585 1.429 . S
C594 N591 1.350 . S
C594 C593 1.434 . S
C595 C596 1.369 . S
C595 C597 1.419 . S
C595 H599 0.930 . S
C596 C595 1.369 . S
C596 C605 1.429 . S
C597 C595 1.419 . S
C597 C598 1.363 . S
C597 H600 0.929 . S
C598 C597 1.363 . S
C598 C604 1.428 . S
H599 C595 0.930 . S
H600 C597 0.929 . S
S601 N602 1.613 . S
S601 N603 1.610 . S
N602 S601 1.613 . S
N602 C605 1.350 . S
N603 S601 1.610 . S
N603 C604 1.351 . S
C604 C598 1.428 . S
C604 N603 1.351 . S
C604 C605 1.434 . S
C605 C596 1.429 . S
C605 N602 1.350 . S
C605 C604 1.434 . S
C606 C607 1.369 . S
C606 C608 1.419 . S
C606 H610 0.930 . S
C607 C606 1.369 . S
C607 C616 1.429 . S
C608 C606 1.419 . S
C608 C609 1.363 . S
C608 H611 0.929 . S
C609 C608 1.363 . S
C609 C615 1.428 1_565 S
H610 C606 0.930 . S
H611 C608 0.929 . S
S612 N613 1.613 . S
S612 N614 1.610 . S
N613 S612 1.613 . S
N613 C616 1.350 1_545 S
N614 S612 1.610 . S
N614 C615 1.351 . S
C615 C609 1.428 1_545 S
C615 N614 1.351 . S
C615 C616 1.434 1_545 S
C616 C607 1.429 . S
C616 N613 1.350 1_565 S
C616 C615 1.434 1_565 S
C617 C618 1.369 . S
C617 C619 1.419 . S
C617 H621 0.930 . S
C618 C617 1.369 . S
C618 C627 1.429 . S
C619 C617 1.419 . S
C619 C620 1.363 . S
C619 H622 0.929 . S
C620 C619 1.363 . S
C620 C626 1.428 . S
H621 C617 0.930 . S
H622 C619 0.929 . S
S623 N624 1.613 . S
S623 N625 1.610 . S
N624 S623 1.613 . S
N624 C627 1.350 . S
N625 S623 1.610 . S
N625 C626 1.351 . S
C626 C620 1.428 . S
C626 N625 1.351 . S
C626 C627 1.434 . S
C627 C618 1.429 . S
C627 N624 1.350 . S
C627 C626 1.434 . S
C628 C629 1.369 . S
C628 C630 1.419 . S
C628 H632 0.930 . S
C629 C628 1.369 . S
C629 C638 1.429 1_455 S
C630 C628 1.419 . S
C630 C631 1.363 . S
C630 H633 0.929 . S
C631 C630 1.363 . S
C631 C637 1.428 . S
H632 C628 0.930 . S
H633 C630 0.929 . S
S634 N635 1.613 . S
S634 N636 1.610 . S
N635 S634 1.613 . S
N635 C638 1.350 . S
N636 S634 1.610 . S
N636 C637 1.351 1_655 S
C637 C631 1.428 . S
C637 N636 1.351 1_455 S
C637 C638 1.434 1_455 S
C638 C629 1.429 1_655 S
C638 N635 1.350 . S
C638 C637 1.434 1_655 S
C639 C640 1.369 . S
C639 C641 1.419 . S
C639 H643 0.930 . S
C640 C639 1.369 . S
C640 C649 1.429 1_545 S
C641 C639 1.419 . S
C641 C642 1.363 . S
C641 H644 0.929 . S
C642 C641 1.363 . S
C642 C648 1.428 . S
H643 C639 0.930 . S
H644 C641 0.929 . S
S645 N646 1.613 . S
S645 N647 1.610 . S
N646 S645 1.613 . S
N646 C649 1.350 . S
N647 S645 1.610 . S
N647 C648 1.351 1_565 S
C648 C642 1.428 . S
C648 N647 1.351 1_545 S
C648 C649 1.434 1_545 S
C649 C640 1.429 1_565 S
C649 N646 1.350 . S
C649 C648 1.434 1_565 S
C650 C651 1.369 . S
C650 C652 1.419 . S
C650 H654 0.930 . S
C651 C650 1.369 . S
C651 C660 1.429 . S
C652 C650 1.419 . S
C652 C653 1.363 . S
C652 H655 0.929 . S
C653 C652 1.363 . S
C653 C659 1.428 . S
H654 C650 0.930 . S
H655 C652 0.929 . S
S656 N657 1.613 . S
S656 N658 1.610 . S
N657 S656 1.613 . S
N657 C660 1.350 . S
N658 S656 1.610 . S
N658 C659 1.351 . S
C659 C653 1.428 . S
C659 N658 1.351 . S
C659 C660 1.434 . S
C660 C651 1.429 . S
C660 N657 1.350 . S
C660 C659 1.434 . S
C661 C662 1.369 1_455 S
C661 C663 1.419 1_455 S
C661 H665 0.930 . S
C662 C661 1.369 1_655 S
C662 C671 1.429 . S
C663 C661 1.419 1_655 S
C663 C664 1.363 . S
C663 H666 0.929 1_655 S
C664 C663 1.363 . S
C664 C670 1.428 . S
H665 C661 0.930 . S
H666 C663 0.929 1_455 S
S667 N668 1.613 . S
S667 N669 1.610 . S
N668 S667 1.613 . S
N668 C671 1.350 . S
N669 S667 1.610 . S
N669 C670 1.351 . S
C670 C664 1.428 . S
C670 N669 1.351 . S
C670 C671 1.434 . S
C671 C662 1.429 . S
C671 N668 1.350 . S
C671 C670 1.434 . S
C672 C673 1.369 . S
C672 C674 1.419 . S
C672 H676 0.930 . S
C673 C672 1.369 . S
C673 C682 1.429 . S
C674 C672 1.419 . S
C674 C675 1.363 . S
C674 H677 0.929 . S
C675 C674 1.363 . S
C675 C681 1.428 . S
H676 C672 0.930 . S
H677 C674 0.929 . S
S678 N679 1.613 . S
S678 N680 1.610 1_655 S
N679 S678 1.613 . S
N679 C682 1.350 1_655 S
N680 S678 1.610 1_455 S
N680 C681 1.351 . S
C681 C675 1.428 . S
C681 N680 1.351 . S
C681 C682 1.434 . S
C682 C673 1.429 . S
C682 N679 1.350 1_455 S
C682 C681 1.434 . S
C683 C684 1.369 . S
C683 C685 1.419 . S
C683 H687 0.930 . S
C684 C683 1.369 . S
C684 C693 1.429 . S
C685 C683 1.419 . S
C685 C686 1.363 . S
C685 H688 0.929 . S
C686 C685 1.363 . S
C686 C692 1.428 1_545 S
H687 C683 0.930 . S
H688 C685 0.929 . S
S689 N690 1.613 . S
S689 N691 1.610 . S
N690 S689 1.613 . S
N690 C693 1.350 1_565 S
N691 S689 1.610 . S
N691 C692 1.351 . S
C692 C686 1.428 1_565 S
C692 N691 1.351 . S
C692 C693 1.434 1_565 S
C693 C684 1.429 . S
C693 N690 1.350 1_545 S
C693 C692 1.434 1_545 S
C694 C695 1.369 . S
C694 C696 1.419 . S
C694 H698 0.930 . S
C695 C694 1.369 . S
C695 C704 1.429 . S
C696 C694 1.419 . S
C696 C697 1.363 . S
C696 H699 0.929 . S
C697 C696 1.363 . S
C697 C703 1.428 . S
H698 C694 0.930 . S
H699 C696 0.929 . S
S700 N701 1.613 . S
S700 N702 1.610 . S
N701 S700 1.613 . S
N701 C704 1.350 . S
N702 S700 1.610 . S
N702 C703 1.351 . S
C703 C697 1.428 . S
C703 N702 1.351 . S
C703 C704 1.434 . S
C704 C695 1.429 . S
C704 N701 1.350 . S
C704 C703 1.434 . S
C705 C706 1.369 . S
C705 C707 1.419 . S
C705 H709 0.930 . S
C706 C705 1.369 . S
C706 C715 1.429 . S
C707 C705 1.419 . S
C707 C708 1.363 . S
C707 H710 0.929 . S
C708 C707 1.363 . S
C708 C714 1.428 . S
H709 C705 0.930 . S
H710 C707 0.929 . S
S711 N712 1.613 . S
S711 N713 1.610 . S
N712 S711 1.613 . S
N712 C715 1.350 . S
N713 S711 1.610 . S
N713 C714 1.351 . S
C714 C708 1.428 . S
C714 N713 1.351 . S
C714 C715 1.434 . S
C715 C706 1.429 . S
C715 N712 1.350 . S
C715 C714 1.434 . S
C716 C717 1.369 . S
C716 C718 1.419 . S
C716 H720 0.930 . S
C717 C716 1.369 . S
C717 C726 1.429 1_565 S
C718 C716 1.419 . S
C718 C719 1.363 . S
C718 H721 0.929 . S
C719 C718 1.363 . S
C719 C725 1.428 . S
H720 C716 0.930 . S
H721 C718 0.929 . S
S722 N723 1.613 . S
S722 N724 1.610 . S
N723 S722 1.613 . S
N723 C726 1.350 . S
N724 S722 1.610 . S
N724 C725 1.351 1_545 S
C725 C719 1.428 . S
C725 N724 1.351 1_565 S
C725 C726 1.434 1_565 S
C726 C717 1.429 1_545 S
C726 N723 1.350 . S
C726 C725 1.434 1_545 S
C727 C728 1.369 . S
C727 C729 1.419 . S
C727 H731 0.930 . S
C728 C727 1.369 . S
C728 C737 1.429 . S
C729 C727 1.419 . S
C729 C730 1.363 . S
C729 H732 0.929 . S
C730 C729 1.363 . S
C730 C736 1.428 . S
H731 C727 0.930 . S
H732 C729 0.929 . S
S733 N734 1.613 . S
S733 N735 1.610 . S
N734 S733 1.613 . S
N734 C737 1.350 . S
N735 S733 1.610 . S
N735 C736 1.351 . S
C736 C730 1.428 . S
C736 N735 1.351 . S
C736 C737 1.434 . S
C737 C728 1.429 . S
C737 N734 1.350 . S
C737 C736 1.434 . S
C409 C20 1.548 1_565 S
C411 C376 1.532 . S
C420 C54 1.550 . S
C422 C206 1.536 . S
C431 C240 1.534 . S
C433 C88 1.552 1_455 S
C442 C274 1.540 . S
C444 C122 1.547 1_545 S
C453 C156 1.546 . S
C455 C308 1.538 . S
C464 C190 1.551 1_655 S
C466 C342 1.530 . S
C475 C36 1.539 . S
C477 C224 1.546 1_455 S
C486 C258 1.553 1_545 S
C488 C70 1.533 . S
C497 C104 1.538 . S
C499 C292 1.546 . S
C508 C326 1.550 1_655 S
C510 C138 1.531 . S
C519 C360 1.554 1_565 S
C521 C172 1.530 . S
C530 C2 1.530 . S
C532 C394 1.549 . S
C541 C209 0.866 . S
C543 C5 0.861 . S
C552 C39 0.860 . S
C554 C243 0.864 . S
C563 C73 0.865 . S
C565 C277 0.860 . S
C574 C107 0.860 . S
C576 C311 0.866 . S
C585 C345 0.862 . S
C587 C141 0.862 . S
C596 C379 0.867 . S
C598 C175 0.864 . S
C607 C203 1.070 . S
C609 C9 1.088 . S
C618 C33 1.066 . S
C620 C43 1.084 . S
C629 C77 1.090 . S
C631 C67 1.074 . S
C640 C111 1.089 . S
C642 C101 1.076 . S
C651 C145 1.083 . S
C653 C135 1.070 . S
C662 C179 1.083 . S
C664 C169 1.069 . S
C673 C213 1.087 . S
C675 C271 1.076 . S
C684 C305 1.075 . S
C686 C247 1.089 . S
C695 C281 1.087 . S
C697 C339 1.069 . S
C706 C315 1.087 . S
C708 C373 1.069 . S
C717 C349 1.088 . S
C719 C407 1.076 . S
C728 C383 1.089 . S
C730 C237 1.072 . S
