# Generated by pormake.
# Topology wlk, (5)-cn, num edge types: 1
# Building blocks:
#     Node 0, Type 0, BuildingBlock: XOMCOT_clean_sbu_1, # of connection points: 5
#     Node 1, Type 0, BuildingBlock: XOMCOT_clean_sbu_1, # of connection points: 5
#     Node 2, Type 0, BuildingBlock: XOMCOT_clean_sbu_1, # of connection points: 5
#     Node 3, Type 0, BuildingBlock: XOMCOT_clean_sbu_1, # of connection points: 5
#     Node 4, Type 0, BuildingBlock: XOMCOT_clean_sbu_1, # of connection points: 5
#     Node 5, Type 0, BuildingBlock: XOMCOT_clean_sbu_1, # of connection points: 5
#     Node 6, Type 0, BuildingBlock: XOMCOT_clean_sbu_1, # of connection points: 5
#     Node 7, Type 0, BuildingBlock: XOMCOT_clean_sbu_1, # of connection points: 5
#     Node 8, Type 0, BuildingBlock: XOMCOT_clean_sbu_1, # of connection points: 5
#     Node 9, Type 0, BuildingBlock: XOMCOT_clean_sbu_1, # of connection points: 5
#     Node 10, Type 0, BuildingBlock: XOMCOT_clean_sbu_1, # of connection points: 5
#     Node 11, Type 0, BuildingBlock: XOMCOT_clean_sbu_1, # of connection points: 5
#     Node 12, Type 0, BuildingBlock: XOMCOT_clean_sbu_1, # of connection points: 5
#     Node 13, Type 0, BuildingBlock: XOMCOT_clean_sbu_1, # of connection points: 5
#     Node 14, Type 0, BuildingBlock: XOMCOT_clean_sbu_1, # of connection points: 5
#     Node 15, Type 0, BuildingBlock: XOMCOT_clean_sbu_1, # of connection points: 5
#     Node 16, Type 0, BuildingBlock: XOMCOT_clean_sbu_1, # of connection points: 5
#     Node 17, Type 0, BuildingBlock: XOMCOT_clean_sbu_1, # of connection points: 5
#     Edge 18, Type (0, 0), BuildingBlock: XIVTED_clean_linker_0, # of connection points: 2
#     Edge 19, Type (0, 0), BuildingBlock: XIVTED_clean_linker_0, # of connection points: 2
#     Edge 20, Type (0, 0), BuildingBlock: XIVTED_clean_linker_0, # of connection points: 2
#     Edge 21, Type (0, 0), BuildingBlock: XIVTED_clean_linker_0, # of connection points: 2
#     Edge 22, Type (0, 0), BuildingBlock: XIVTED_clean_linker_0, # of connection points: 2
#     Edge 23, Type (0, 0), BuildingBlock: XIVTED_clean_linker_0, # of connection points: 2
#     Edge 24, Type (0, 0), BuildingBlock: XIVTED_clean_linker_0, # of connection points: 2
#     Edge 25, Type (0, 0), BuildingBlock: XIVTED_clean_linker_0, # of connection points: 2
#     Edge 26, Type (0, 0), BuildingBlock: XIVTED_clean_linker_0, # of connection points: 2
#     Edge 27, Type (0, 0), BuildingBlock: XIVTED_clean_linker_0, # of connection points: 2
#     Edge 28, Type (0, 0), BuildingBlock: XIVTED_clean_linker_0, # of connection points: 2
#     Edge 29, Type (0, 0), BuildingBlock: XIVTED_clean_linker_0, # of connection points: 2
#     Edge 30, Type (0, 0), BuildingBlock: XIVTED_clean_linker_0, # of connection points: 2
#     Edge 31, Type (0, 0), BuildingBlock: XIVTED_clean_linker_0, # of connection points: 2
#     Edge 32, Type (0, 0), BuildingBlock: XIVTED_clean_linker_0, # of connection points: 2
#     Edge 33, Type (0, 0), BuildingBlock: XIVTED_clean_linker_0, # of connection points: 2
#     Edge 34, Type (0, 0), BuildingBlock: XIVTED_clean_linker_0, # of connection points: 2
#     Edge 35, Type (0, 0), BuildingBlock: XIVTED_clean_linker_0, # of connection points: 2
#     Edge 36, Type (0, 0), BuildingBlock: XIVTED_clean_linker_0, # of connection points: 2
#     Edge 37, Type (0, 0), BuildingBlock: XIVTED_clean_linker_0, # of connection points: 2
#     Edge 38, Type (0, 0), BuildingBlock: XIVTED_clean_linker_0, # of connection points: 2
#     Edge 39, Type (0, 0), BuildingBlock: XIVTED_clean_linker_0, # of connection points: 2
#     Edge 40, Type (0, 0), BuildingBlock: XIVTED_clean_linker_0, # of connection points: 2
#     Edge 41, Type (0, 0), BuildingBlock: XIVTED_clean_linker_0, # of connection points: 2
#     Edge 42, Type (0, 0), BuildingBlock: XIVTED_clean_linker_0, # of connection points: 2
#     Edge 43, Type (0, 0), BuildingBlock: XIVTED_clean_linker_0, # of connection points: 2
#     Edge 44, Type (0, 0), BuildingBlock: XIVTED_clean_linker_0, # of connection points: 2
#     Edge 45, Type (0, 0), BuildingBlock: XIVTED_clean_linker_0, # of connection points: 2
#     Edge 46, Type (0, 0), BuildingBlock: XIVTED_clean_linker_0, # of connection points: 2
#     Edge 47, Type (0, 0), BuildingBlock: XIVTED_clean_linker_0, # of connection points: 2
#     Edge 48, Type (0, 0), BuildingBlock: XIVTED_clean_linker_0, # of connection points: 2
#     Edge 49, Type (0, 0), BuildingBlock: XIVTED_clean_linker_0, # of connection points: 2
#     Edge 50, Type (0, 0), BuildingBlock: XIVTED_clean_linker_0, # of connection points: 2
#     Edge 51, Type (0, 0), BuildingBlock: XIVTED_clean_linker_0, # of connection points: 2
#     Edge 52, Type (0, 0), BuildingBlock: XIVTED_clean_linker_0, # of connection points: 2
#     Edge 53, Type (0, 0), BuildingBlock: XIVTED_clean_linker_0, # of connection points: 2
#     Edge 54, Type (0, 0), BuildingBlock: XIVTED_clean_linker_0, # of connection points: 2
#     Edge 55, Type (0, 0), BuildingBlock: XIVTED_clean_linker_0, # of connection points: 2
#     Edge 56, Type (0, 0), BuildingBlock: XIVTED_clean_linker_0, # of connection points: 2
#     Edge 57, Type (0, 0), BuildingBlock: XIVTED_clean_linker_0, # of connection points: 2
#     Edge 58, Type (0, 0), BuildingBlock: XIVTED_clean_linker_0, # of connection points: 2
#     Edge 59, Type (0, 0), BuildingBlock: XIVTED_clean_linker_0, # of connection points: 2
#     Edge 60, Type (0, 0), BuildingBlock: XIVTED_clean_linker_0, # of connection points: 2
#     Edge 61, Type (0, 0), BuildingBlock: XIVTED_clean_linker_0, # of connection points: 2
#     Edge 62, Type (0, 0), BuildingBlock: XIVTED_clean_linker_0, # of connection points: 2
# Relax obj value: 0.168
# Max RMSD: 0.217
# Mean RMSD: 0.217
data_MOF--net-wlk--node1-XOMCOT_clean_sbu_1--edge1-XIVTED_clean_linker_0
_symmetry_space_group_name_H-M    P1
_symmetry_Int_Tables_number       1
_symmetry_cell_setting            triclinic
loop_
_symmetry_equiv_pos_as_xyz
'x, y, z'
_cell_length_a     65.056736
_cell_length_b     65.105644
_cell_length_c     28.226607
_cell_angle_alpha  89.990795
_cell_angle_beta   90.032482
_cell_angle_gamma 119.916
loop_
_atom_site_label
_atom_site_type_symbol
_atom_site_fract_x
_atom_site_fract_y
_atom_site_fract_z
_atom_type_partial_charge
C0 C 0.21623 0.27235 0.9651 0.0
C1 C 0.21703 0.25323 0.94656 0.0
N2 N 0.2112 0.23685 0.98081 0.0
N3 N 0.21034 0.26855 0.01144 0.0
C4 C 0.20647 0.24629 0.01928 0.0
H5 H 0.22008 0.28803 0.94539 0.0
Co6 Co 0.20764 0.28925 0.05616 0.0
C7 C 0.23972 0.27508 0.10253 0.0
O8 O 0.25008 0.2774 0.06136 0.0
N9 N 0.20415 0.30908 0.09936 0.0
C10 C 0.19645 0.3366 0.12615 0.0
C11 C 0.19861 0.32563 0.08638 0.0
C12 C 0.20508 0.31015 0.14735 0.0
N13 N 0.20054 0.32691 0.16474 0.0
O14 O 0.17591 0.26414 0.07169 0.0
H15 H 0.19592 0.3292 0.05018 0.0
H16 H 0.20891 0.29879 0.16908 0.0
O17 O 0.22262 0.27948 0.10627 0.0
C18 C 0.16243 0.2644 0.0389 0.0
O19 O 0.17239 0.27955 1.00398 0.0
N20 N 0.2371 0.31539 0.03702 0.0
C21 C 0.27606 0.35531 0.99682 0.0
C22 C 0.27821 0.34583 0.0402 0.0
C23 C 0.25834 0.32632 0.06042 0.0
C24 C 0.2343 0.32564 0.9973 0.0
C25 C 0.25342 0.34528 0.97637 0.0
H26 H 0.2602 0.32041 0.095 0.0
H27 H 0.21689 0.31838 0.98151 0.0
H28 H 0.20113 0.23758 0.05333 0.0
H29 H 0.22254 0.25207 0.91098 0.0
H30 H 0.19157 0.35023 0.12643 0.0
H31 H 0.29505 0.35323 0.05842 0.0
H32 H 0.25029 0.3526 0.94457 0.0
C33 C 0.7635 0.95236 0.96823 0.0
C34 C 0.78257 0.97229 0.94993 0.0
N35 N 0.79751 0.98441 0.98552 0.0
N36 N 0.7657 0.95176 0.01576 0.0
C37 C 0.78721 0.97114 0.02474 0.0
H38 H 0.74918 0.93923 0.94718 0.0
Co39 Co 0.74416 0.92803 0.05945 0.0
C40 C 0.75659 0.97338 0.10686 0.0
O41 O 0.75391 0.98119 0.06569 0.0
N42 N 0.72364 0.90447 0.10157 0.0
C43 C 0.69375 0.87039 0.12717 0.0
C44 C 0.70451 0.88407 0.08795 0.0
C45 C 0.72433 0.9027 0.14934 0.0
N46 N 0.70623 0.88199 0.16607 0.0
O47 O 0.76899 0.92102 0.07607 0.0
H48 H 0.69882 0.87936 0.05162 0.0
H49 H 0.73817 0.91612 0.17121 0.0
O50 O 0.75327 0.95228 0.11035 0.0
C51 C 0.76846 0.9069 0.04385 0.0
O52 O 0.75312 0.9015 0.00915 0.0
N53 N 0.71829 0.93184 0.03917 0.0
C54 C 0.67873 0.93158 0.99878 0.0
C55 C 0.68639 0.94053 0.04468 0.0
C56 C 0.70597 0.94006 0.06467 0.0
C57 C 0.70943 0.92091 0.99684 0.0
C58 C 0.69023 0.92116 0.97545 0.0
H59 H 0.71075 0.94585 0.10084 0.0
H60 H 0.71694 0.91127 0.97997 0.0
H61 H 0.79497 0.97564 0.05975 0.0
H62 H 0.78478 0.97767 0.91317 0.0
H63 H 0.67783 0.8532 0.12672 0.0
H64 H 0.67743 0.94788 0.06485 0.0
H65 H 0.68409 0.91272 0.94126 0.0
C66 C 0.08128 0.81215 0.97371 0.0
C67 C 0.06165 0.81188 0.95486 0.0
N68 N 0.05164 0.81869 0.98853 0.0
N69 N 0.08372 0.81867 0.01972 0.0
C70 C 0.06588 0.82347 0.02696 0.0
H71 H 0.09267 0.8075 0.9545 0.0
Co72 Co 0.10697 0.82088 0.06448 0.0
C73 C 0.06067 0.79096 0.11273 0.0
O74 O 0.05174 0.78047 0.07204 0.0
N75 N 0.13015 0.82382 0.10789 0.0
C76 C 0.16453 0.82925 0.13522 0.0
C77 C 0.15152 0.8271 0.09521 0.0
C78 C 0.13062 0.82425 0.15595 0.0
N79 N 0.15145 0.82753 0.17368 0.0
O80 O 0.115 0.85329 0.07814 0.0
H81 H 0.15736 0.82802 0.05903 0.0
H82 H 0.11618 0.82272 0.17747 0.0
O83 O 0.08251 0.8073 0.1153 0.0
C84 C 0.12907 0.86559 0.04465 0.0
O85 O 0.13374 0.85427 0.01164 0.0
N86 N 0.10227 0.79068 0.0466 0.0
C87 C 0.10092 0.75058 1.00605 0.0
C88 C 0.08916 0.74894 0.04901 0.0
C89 C 0.09068 0.76934 0.06947 0.0
C90 C 0.1154 0.79286 1.00737 0.0
C91 C 0.1149 0.77322 0.98645 0.0
H92 H 0.08269 0.76775 0.10367 0.0
H93 H 0.12631 0.81016 0.99177 0.0
H94 H 0.06288 0.82947 0.06063 0.0
H95 H 0.05479 0.80605 0.9195 0.0
H96 H 0.18226 0.83175 0.13564 0.0
H97 H 0.07866 0.7321 0.06667 0.0
H98 H 0.12555 0.77597 0.95513 0.0
C99 C 0.82771 0.75966 0.04724 0.0
C100 C 0.8258 0.77834 0.06491 0.0
N101 N 0.8299 0.79382 0.0296 0.0
N102 N 0.83258 0.76279 1.00039 0.0
C103 C 0.8348 0.78435 0.99139 0.0
H104 H 0.82524 0.7447 0.06791 0.0
Co105 Co 0.83551 0.74201 0.9556 0.0
C106 C 0.80086 0.75308 0.91297 0.0
O107 O 0.79122 0.74937 0.9553 0.0
N108 N 0.83926 0.72232 0.9122 0.0
C109 C 0.84515 0.69356 0.88559 0.0
C110 C 0.84266 0.70434 0.92531 0.0
C111 C 0.84013 0.7224 0.86415 0.0
N112 N 0.84356 0.70487 0.84696 0.0
O113 O 0.86669 0.7676 0.93861 0.0
H114 H 0.84351 0.69953 0.96162 0.0
H115 H 0.83822 0.73498 0.84224 0.0
O116 O 0.81907 0.75065 0.90639 0.0
C117 C 0.88052 0.76781 0.97115 0.0
O118 O 0.87102 0.75284 1.00651 0.0
N119 N 0.80662 0.71531 0.97603 0.0
C120 C 0.76819 0.67451 0.0154 0.0
C121 C 0.76636 0.68309 0.97069 0.0
C122 C 0.78602 0.70291 0.95088 0.0
C123 C 0.80935 0.70599 0.01719 0.0
C124 C 0.79049 0.68591 0.03766 0.0
H125 H 0.78456 0.70798 0.9152 0.0
H126 H 0.82657 0.71402 0.03398 0.0
H127 H 0.83899 0.79246 0.95667 0.0
H128 H 0.82068 0.77974 0.1007 0.0
H129 H 0.84845 0.67883 0.88532 0.0
H130 H 0.74993 0.67477 0.9509 0.0
H131 H 0.79365 0.67929 0.0704 0.0
C132 C 0.27218 0.07558 0.03241 0.0
C133 C 0.2551 0.05443 0.05137 0.0
N134 N 0.2423 0.03981 0.01573 0.0
N135 N 0.27045 0.07458 0.98482 0.0
C136 C 0.25201 0.0526 0.97565 0.0
H137 H 0.28534 0.09067 0.05214 0.0
Co138 Co 0.29115 0.09948 0.94444 0.0
C139 C 0.29617 0.07565 0.85935 0.0
O140 O 0.31883 0.09164 0.85829 0.0
N141 N 0.31175 0.12518 0.90376 0.0
C142 C 0.34115 0.15916 0.87533 0.0
C143 C 0.33237 0.14494 0.91461 0.0
C144 C 0.30801 0.12857 0.85765 0.0
N145 N 0.32593 0.14884 0.83915 0.0
O146 O 0.26608 0.10613 0.92907 0.0
H147 H 0.34077 0.14934 0.94883 0.0
H148 H 0.29241 0.11625 0.83792 0.0
O149 O 0.28282 0.07664 0.89164 0.0
C150 C 0.26631 0.1197 0.96209 0.0
O151 O 0.28161 0.12494 0.9968 0.0
N152 N 0.3162 0.09464 0.96523 0.0
C153 C 0.35232 0.09047 0.01109 0.0
C154 C 0.33654 0.07284 0.97967 0.0
C155 C 0.31831 0.075 0.95791 0.0
C156 C 0.33026 0.11094 0.99813 0.0
C157 C 0.34877 0.10966 0.02025 0.0
H158 H 0.30542 0.06035 0.93703 0.0
H159 H 0.32657 0.12473 0.00865 0.0
H160 H 0.24583 0.04616 0.94025 0.0
H161 H 0.25284 0.05006 0.08868 0.0
H162 H 0.35778 0.1757 0.87355 0.0
H163 H 0.33762 0.05701 0.97331 0.0
H164 H 0.35999 0.12355 0.04477 0.0
C165 C 0.95709 0.20872 0.04335 0.0
C166 C 0.97761 0.2103 0.06061 0.0
N167 N 0.98896 0.20652 0.02478 0.0
N168 N 0.95536 0.20439 0.99624 0.0
C169 C 0.97468 0.20221 0.98662 0.0
H170 H 0.94459 0.21087 0.06467 0.0
Co171 Co 0.93149 0.20135 0.95164 0.0
C172 C 0.97683 0.23669 0.90972 0.0
O173 O 0.98233 0.2462 0.95221 0.0
N174 N 0.90793 0.19747 0.90835 0.0
C175 C 0.87311 0.19117 0.88179 0.0
C176 C 0.88651 0.19394 0.92148 0.0
C177 C 0.90705 0.19642 0.86032 0.0
N178 N 0.88597 0.19273 0.84312 0.0
O179 O 0.92637 0.17035 0.93435 0.0
H180 H 0.88088 0.19313 0.9578 0.0
H181 H 0.92155 0.19834 0.83844 0.0
O182 O 0.95648 0.21821 0.90263 0.0
C183 C 0.91275 0.1567 0.96703 0.0
O184 O 0.90683 0.16631 1.0015 0.0
N185 N 0.93319 0.22992 0.9727 0.0
C186 C 0.92914 0.267 0.01381 0.0
C187 C 0.93935 0.26961 0.96874 0.0
C188 C 0.94052 0.25056 0.94811 0.0
C189 C 0.9215 0.22659 0.01449 0.0
C190 C 0.91982 0.2449 0.03621 0.0
H191 H 0.9469 0.2524 0.91221 0.0
H192 H 0.91301 0.20931 0.03097 0.0
H193 H 0.97854 0.19827 0.95162 0.0
H194 H 0.98402 0.21484 0.0966 0.0
H195 H 0.855 0.18765 0.88159 0.0
H196 H 0.94579 0.28597 0.94908 0.0
H197 H 0.91134 0.24168 0.07053 0.0
C198 C 0.85547 0.58896 0.33742 0.0
C199 C 0.85854 0.57105 0.31906 0.0
N200 N 0.87472 0.56912 0.34562 0.0
N201 N 0.86963 0.59847 0.3755 0.0
C202 C 0.88123 0.58606 0.37941 0.0
H203 H 0.84347 0.59455 0.32398 0.0
Co204 Co 0.87135 0.62314 0.41387 0.0
C205 C 0.8804 0.60131 0.50017 0.0
O206 O 0.85806 0.58894 0.51305 0.0
N207 N 0.87293 0.64756 0.45273 0.0
C208 C 0.87633 0.68169 0.4765 0.0
C209 C 0.8781 0.66937 0.43849 0.0
C210 C 0.86786 0.64698 0.49947 0.0
N211 N 0.86986 0.6676 0.51514 0.0
O212 O 0.83896 0.60226 0.43494 0.0
H213 H 0.88249 0.6758 0.4025 0.0
H214 H 0.86257 0.63159 0.52145 0.0
O215 O 0.88617 0.61446 0.46352 0.0
C216 C 0.8268 0.60875 0.40971 0.0
O217 O 0.83831 0.62616 0.37945 0.0
N218 N 0.9012 0.64432 0.38826 0.0
C219 C 0.9403 0.68084 0.34152 0.0
C220 C 0.94215 0.67521 0.3889 0.0
C221 C 0.92222 0.6569 0.41192 0.0
C222 C 0.89941 0.64909 0.34197 0.0
C223 C 0.91868 0.66702 0.31792 0.0
H224 H 0.92339 0.65367 0.44912 0.0
H225 H 0.88252 0.63951 0.32404 0.0
H226 H 0.89435 0.58946 0.40637 0.0
H227 H 0.84909 0.55993 0.28913 0.0
H228 H 0.87908 0.69949 0.47517 0.0
H229 H 0.95844 0.68553 0.40857 0.0
H230 H 0.91645 0.67039 0.28124 0.0
C231 C 0.4439 0.27301 0.32738 0.0
C232 C 0.46083 0.29413 0.30792 0.0
N233 N 0.46095 0.31204 0.33204 0.0
N234 N 0.43329 0.27733 0.36403 0.0
C235 C 0.44396 0.30133 0.36567 0.0
H236 H 0.43953 0.2556 0.31507 0.0
Co237 Co 0.40919 0.25403 0.40303 0.0
C238 C 0.43075 0.28631 0.48766 0.0
O239 O 0.44466 0.27794 0.49977 0.0
N240 N 0.38544 0.23095 0.44222 0.0
C241 C 0.35205 0.19945 0.4664 0.0
C242 C 0.36438 0.21294 0.42777 0.0
C243 C 0.3856 0.22792 0.48971 0.0
N244 N 0.36541 0.20889 0.50553 0.0
O245 O 0.43119 0.244 0.42481 0.0
H246 H 0.35837 0.20981 0.39137 0.0
H247 H 0.40047 0.23913 0.51217 0.0
O248 O 0.41704 0.27776 0.45198 0.0
C249 C 0.42711 0.22655 0.39775 0.0
O250 O 0.40995 0.21961 0.36644 0.0
N251 N 0.38702 0.26133 0.37704 0.0
C252 C 0.35019 0.26327 0.32974 0.0
C253 C 0.35522 0.27015 0.37753 0.0
C254 C 0.37367 0.26885 0.4008 0.0
C255 C 0.3827 0.25515 0.33052 0.0
C256 C 0.36462 0.25619 0.30618 0.0
H257 H 0.3765 0.27287 0.43819 0.0
H258 H 0.3929 0.24855 0.31248 0.0
H259 H 0.4395 0.3108 0.39135 0.0
H260 H 0.47188 0.29605 0.2777 0.0
H261 H 0.33448 0.18402 0.46562 0.0
H262 H 0.34438 0.27549 0.39726 0.0
H263 H 0.36175 0.25106 0.26921 0.0
C264 C 0.75271 0.17456 0.33461 0.0
C265 C 0.73133 0.1698 0.31541 0.0
N266 N 0.71373 0.15243 0.34087 0.0
N267 N 0.74889 0.16038 0.37236 0.0
C268 C 0.72491 0.14695 0.37502 0.0
H269 H 0.76997 0.1875 0.32142 0.0
Co270 Co 0.7729 0.16083 0.41123 0.0
C271 C 0.74042 0.14886 0.49572 0.0
O272 O 0.74755 0.17101 0.50678 0.0
N273 N 0.79679 0.16153 0.45018 0.0
C274 C 0.82947 0.16167 0.47376 0.0
C275 C 0.81512 0.15902 0.4356 0.0
C276 C 0.80051 0.16595 0.49727 0.0
N277 N 0.8203 0.16606 0.51281 0.0
O278 O 0.78129 0.19237 0.43316 0.0
H279 H 0.81808 0.15582 0.39932 0.0
H280 H 0.78896 0.16919 0.51962 0.0
O281 O 0.74955 0.14411 0.46041 0.0
C282 C 0.7983 0.20629 0.40583 0.0
O283 O 0.80609 0.19673 0.37476 0.0
N284 N 0.76704 0.13184 0.38499 0.0
C285 C 0.76633 0.09386 0.33683 0.0
C286 C 0.75954 0.09168 0.38473 0.0
C287 C 0.76022 0.11104 0.40843 0.0
C288 C 0.77326 0.13405 0.33845 0.0
C289 C 0.77281 0.11532 0.3137 0.0
H290 H 0.75623 0.10961 0.44584 0.0
H291 H 0.77934 0.1508 0.32064 0.0
H292 H 0.71579 0.13355 0.4018 0.0
H293 H 0.72902 0.17829 0.28452 0.0
H294 H 0.84573 0.16099 0.47233 0.0
H295 H 0.75467 0.07556 0.40418 0.0
H296 H 0.77786 0.11784 0.27669 0.0
C297 C 0.49666 0.08501 0.37116 0.0
C298 C 0.49333 0.10213 0.39253 0.0
N299 N 0.486 0.11207 0.35954 0.0
N300 N 0.49156 0.08395 0.32469 0.0
C301 C 0.48517 0.1007 0.31859 0.0
H302 H 0.5023 0.07384 0.38855 0.0
Co303 Co 0.493 0.06214 0.28284 0.0
C304 C 0.46505 0.06002 0.19832 0.0
O305 O 0.45698 0.03707 0.19717 0.0
N306 N 0.49533 0.04027 0.24052 0.0
C307 C 0.49526 1.00895 0.20829 0.0
C308 C 0.49032 0.01774 0.24827 0.0
C309 C 0.50407 0.04485 0.19558 0.0
N310 N 0.5038 0.02594 0.17484 0.0
O311 O 0.52572 0.08516 0.26783 0.0
H312 H 0.48364 1.00795 0.28071 0.0
H313 H 0.51034 0.06178 0.17829 0.0
O314 O 0.4798 0.07272 0.23078 0.0
C315 C 0.53759 0.07912 0.29503 0.0
O316 O 0.52559 0.06104 0.32358 0.0
N317 N 0.46246 0.03898 0.30397 0.0
C318 C 0.42162 1.00426 0.35031 0.0
C319 C 0.42051 0.02051 0.31897 0.0
C320 C 0.44122 0.03806 0.29689 0.0
C321 C 0.46403 0.0245 0.33683 0.0
C322 C 0.44393 1.00667 0.35918 0.0
H323 H 0.44012 0.05126 0.27567 0.0
H324 H 0.48122 0.0269 0.34607 0.0
H325 H 0.47962 0.10421 0.28497 0.0
H326 H 0.49627 0.1069 0.42962 0.0
H327 H 0.4923 0.99116 0.20407 0.0
H328 H 0.40395 0.02022 0.31268 0.0
H329 H 0.44605 0.99492 0.38326 0.0
C330 C 0.9449 0.41 0.38381 0.0
C331 C 0.92651 0.39033 0.40469 0.0
N332 N 0.90905 0.37921 0.37261 0.0
N333 N 0.93959 0.41137 0.33808 0.0
C334 C 0.91713 0.39287 0.33311 0.0
H335 H 0.96124 0.42214 0.40134 0.0
Co336 Co 0.95948 0.43422 0.29159 0.0
C337 C 0.94236 0.38751 0.24404 0.0
O338 O 0.94476 0.3787 0.28418 0.0
N339 N 0.97871 0.45704 0.24679 0.0
C340 C 1.00563 0.49197 0.21792 0.0
C341 C 0.99473 0.47951 0.25836 0.0
C342 C 0.98006 0.45628 0.19892 0.0
N343 N 0.99647 0.47739 0.18027 0.0
O344 O 0.93467 0.44186 0.27955 0.0
H345 H 0.99809 0.48645 0.29406 0.0
H346 H 0.96925 0.44056 0.17815 0.0
O347 O 0.94778 0.40933 0.24169 0.0
C348 C 0.93673 0.45626 0.31259 0.0
O349 O 0.95288 0.46107 0.34535 0.0
N350 N 0.98551 0.43003 0.30745 0.0
C351 C 0.02565 0.43015 0.3447 0.0
C352 C 1.01433 0.41715 0.30353 0.0
C353 C 0.99475 0.41794 0.28461 0.0
C354 C 0.99746 0.44423 0.34483 0.0
C355 C 1.01733 0.44451 0.36407 0.0
H356 H 0.98747 0.40903 0.25151 0.0
H357 H 0.99132 0.45541 0.36025 0.0
H358 H 0.90732 0.3889 0.30023 0.0
H359 H 0.92662 0.38414 0.44021 0.0
H360 H 0.01892 0.51056 0.21654 0.0
H361 H 0.02028 0.40626 0.28608 0.0
H362 H 0.02606 0.45605 0.39391 0.0
C363 C 0.61296 0.51643 0.35443 0.0
C364 C 0.63363 0.52043 0.37614 0.0
N365 N 0.65214 0.53791 0.35273 0.0
N366 N 0.61824 0.53114 0.31709 0.0
C367 C 0.64225 0.54413 0.31724 0.0
H368 H 0.59518 0.50361 0.3654 0.0
Co369 Co 0.596 0.53215 0.27563 0.0
C370 C 0.62341 0.55883 0.19031 0.0
O371 O 0.60939 0.56785 0.18615 0.0
N372 N 0.57303 0.53246 0.23359 0.0
C373 C 0.54457 0.53742 0.20109 0.0
C374 C 0.55787 0.54065 0.24114 0.0
C375 C 0.56783 0.52357 0.18883 0.0
N376 N 0.55093 0.52682 0.16784 0.0
O377 O 0.58426 0.49913 0.25862 0.0
H378 H 0.55632 0.54861 0.27338 0.0
H379 H 0.57675 0.51532 0.17167 0.0
O380 O 0.62028 0.54446 0.22436 0.0
C381 C 0.56507 0.4874 0.28245 0.0
O382 O 0.55849 0.49942 0.30984 0.0
N383 N 0.60516 0.5629 0.29837 0.0
C384 C 0.61153 0.60397 0.34419 0.0
C385 C 0.628 0.60508 0.31045 0.0
C386 C 0.62468 0.58431 0.28836 0.0
C387 C 0.59013 0.56135 0.33355 0.0
C388 C 0.59254 0.58153 0.35587 0.0
H389 H 0.63814 0.58564 0.26433 0.0
H390 H 0.57557 0.54417 0.34339 0.0
H391 H 0.65233 0.55781 0.29164 0.0
H392 H 0.63485 0.51142 0.40732 0.0
H393 H 0.53165 0.54311 0.19658 0.0
H394 H 0.6436 0.62176 0.30171 0.0
H395 H 0.57925 0.5794 0.3815 0.0
C396 C 0.51909 0.9201 0.65661 0.0
C397 C 0.5231 0.9033 0.63579 0.0
N398 N 0.54106 0.90294 0.65877 0.0
N399 N 0.53429 0.93034 0.69302 0.0
C400 C 0.54763 0.91963 0.69312 0.0
H401 H 0.50591 0.92457 0.6455 0.0
Co402 Co 0.53518 0.9539 0.73385 0.0
C403 C 0.5443 0.93037 0.81812 0.0
O404 O 0.52204 0.91693 0.8307 0.0
N405 N 0.53588 0.97706 0.77504 0.0
C406 C 0.53905 1.01051 0.80278 0.0
C407 C 0.54075 0.99909 0.7631 0.0
C408 C 0.53104 0.97543 0.82202 0.0
N409 N 0.53295 0.99561 0.84004 0.0
O410 O 0.50254 0.93216 0.75266 0.0
H411 H 0.54528 1.00639 0.72773 0.0
H412 H 0.52567 0.95954 0.84247 0.0
O413 O 0.54955 0.94418 0.78259 0.0
C414 C 0.49034 0.93798 0.72591 0.0
O415 O 0.50199 0.95631 0.69773 0.0
N416 N 0.5655 0.97594 0.71094 0.0
C417 C 0.60685 0.01194 0.66904 0.0
C418 C 0.60623 1.00689 0.71765 0.0
C419 C 0.58532 0.98873 0.738 0.0
C420 C 0.56577 0.98075 0.6639 0.0
C421 C 0.58625 0.99842 0.64219 0.0
H422 H 0.58482 0.98556 0.77569 0.0
H423 H 0.54972 0.97123 0.64322 0.0
H424 H 0.56173 0.9238 0.71826 0.0
H425 H 0.51372 0.89247 0.60548 0.0
H426 H 0.54237 0.02852 0.80402 0.0
H427 H 0.62168 0.01698 0.73976 0.0
H428 H 0.58567 1.00201 0.60489 0.0
C429 C 0.09077 0.60404 0.65165 0.0
C430 C 0.10811 0.62522 0.63326 0.0
N431 N 0.12011 0.63995 0.66936 0.0
N432 N 0.0915 0.60514 0.69932 0.0
C433 C 0.10968 0.62718 0.70909 0.0
H434 H 0.07812 0.58887 0.63139 0.0
Co435 Co 0.07015 0.5804 0.73925 0.0
C436 C 0.06866 0.60411 0.82913 0.0
O437 O 0.04614 0.58827 0.83443 0.0
N438 N 0.0488 0.55496 0.77908 0.0
C439 C 1.01697 0.52351 0.80896 0.0
C440 C 0.02621 0.53801 0.77012 0.0
C441 C 0.05308 0.54958 0.82321 0.0
N442 N 0.03377 0.53088 0.84282 0.0
O443 O 0.09417 0.57169 0.75204 0.0
H444 H 1.01661 0.53615 0.73782 0.0
H445 H 0.06991 0.55978 0.84115 0.0
O446 O 0.08015 0.60298 0.79321 0.0
C447 C 0.09168 0.55716 0.71894 0.0
O448 O 0.07499 0.5521 0.68729 0.0
N449 N 0.04604 0.58709 0.72045 0.0
C450 C 1.01078 0.5928 0.67551 0.0
C451 C 0.02418 0.60784 0.71274 0.0
C452 C 0.04225 0.60513 0.7339 0.0
C453 C 0.03362 0.57294 0.68329 0.0
C454 C 1.01587 0.57532 0.66064 0.0
H455 H 0.05351 0.61813 0.75955 0.0
H456 H 0.03769 0.55967 0.6708 0.0
H457 H 0.11517 0.6337 0.74469 0.0
H458 H 0.1111 0.62952 0.59597 0.0
H459 H 0.99888 0.50917 0.81236 0.0
H460 H 0.02135 0.62214 0.72405 0.0
H461 H 1.00621 0.56355 0.6316 0.0
C462 C 0.42888 0.50956 0.65279 0.0
C463 C 0.40797 0.50562 0.63251 0.0
N464 N 0.38977 0.48788 0.65608 0.0
N465 N 0.42413 0.49457 0.68949 0.0
C466 C 0.40012 0.48136 0.69015 0.0
H467 H 0.44645 0.52255 0.64113 0.0
Co468 Co 0.4471 0.49375 0.72936 0.0
C469 C 0.42149 0.47187 0.82238 0.0
O470 O 0.4381 0.46745 0.8365 0.0
N471 N 0.47076 0.49362 0.76873 0.0
C472 C 0.49766 0.48588 0.79972 0.0
C473 C 0.48285 0.48201 0.76173 0.0
C474 C 0.47944 0.50532 0.81024 0.0
N475 N 0.49525 0.50029 0.8307 0.0
O476 O 0.45927 0.52704 0.74536 0.0
H477 H 0.48067 0.47086 0.7316 0.0
H478 H 0.47317 0.51624 0.82646 0.0
O479 O 0.42326 0.48182 0.78206 0.0
C480 C 0.47726 0.53857 0.71822 0.0
O481 O 0.4833 0.5262 0.69052 0.0
N482 N 0.43746 0.46273 0.70764 0.0
C483 C 0.4314 0.42177 0.66219 0.0
C484 C 0.42286 0.42068 0.70837 0.0
C485 C 0.42586 0.44136 0.73041 0.0
C486 C 0.44556 0.46394 0.6626 0.0
C487 C 0.44261 0.44377 0.63919 0.0
H488 H 0.4192 0.43993 0.76574 0.0
H489 H 0.45496 0.48094 0.64505 0.0
H490 H 0.39042 0.4673 0.71527 0.0
H491 H 0.40637 0.5149 0.6022 0.0
H492 H 0.50845 0.47771 0.80512 0.0
H493 H 0.4139 0.404 0.72726 0.0
H494 H 0.44974 0.44556 0.6038 0.0
C495 C 0.18288 0.4333 0.68203 0.0
C496 C 0.17874 0.45012 0.70247 0.0
N497 N 0.16293 0.45253 0.6756 0.0
N498 N 0.16986 0.42504 0.64219 0.0
C499 C 0.15778 0.43698 0.63942 0.0
H500 H 0.19466 0.42744 0.6955 0.0
Co501 Co 0.16933 0.40139 0.60276 0.0
C502 C 0.14208 0.39971 0.51626 0.0
O503 O 0.13398 0.37681 0.51342 0.0
N504 N 0.16944 0.37763 0.56311 0.0
C505 C 0.16478 0.34389 0.5332 0.0
C506 C 0.16076 0.35433 0.57175 0.0
C507 C 0.17926 0.38091 0.51931 0.0
N508 N 0.17632 0.36057 0.49989 0.0
O509 O 0.20218 0.42286 0.58472 0.0
H510 H 0.15183 0.34511 0.60365 0.0
H511 H 0.188 0.39793 0.50169 0.0
O512 O 0.15621 0.41175 0.55007 0.0
C513 C 0.21422 0.41608 0.60957 0.0
O514 O 0.20255 0.39815 0.63861 0.0
N515 N 0.13899 0.37988 0.6268 0.0
C516 C 0.09997 0.34762 0.68069 0.0
C517 C 0.09699 0.35979 0.64254 0.0
C518 C 0.11687 0.37628 0.61646 0.0
C519 C 0.14209 0.36873 0.66461 0.0
C520 C 0.12296 0.35231 0.69125 0.0
H521 H 0.11435 0.3865 0.58942 0.0
H522 H 0.15975 0.3725 0.6739 0.0
H523 H 0.14502 0.43394 0.61199 0.0
H524 H 0.18707 0.46004 0.73435 0.0
H525 H 0.15897 0.32523 0.52968 0.0
H526 H 0.07964 0.35725 0.63405 0.0
H527 H 0.12628 0.34338 0.72011 0.0
C528 C 0.59828 0.75383 0.67816 0.0
C529 C 0.58155 0.73249 0.69729 0.0
N530 N 0.58119 0.71476 0.67188 0.0
N531 N 0.60852 0.74986 0.64049 0.0
C532 C 0.59788 0.7259 0.63779 0.0
H533 H 0.60258 0.77118 0.69086 0.0
Co534 Co 0.6322 0.77373 0.60232 0.0
C535 C 0.63729 0.74904 0.51833 0.0
O536 O 0.66013 0.76438 0.51859 0.0
N537 N 0.65584 0.79835 0.56363 0.0
C538 C 0.68858 0.82964 0.53588 0.0
C539 C 0.67833 0.81505 0.57435 0.0
C540 C 0.65279 0.80372 0.51859 0.0
N541 N 0.67256 0.82243 0.50056 0.0
O542 O 0.60985 0.78374 0.58231 0.0
H543 H 0.68704 0.81689 0.60786 0.0
H544 H 0.63634 0.79386 0.49922 0.0
O545 O 0.62378 0.75058 0.54962 0.0
C546 C 0.61564 0.80235 0.60711 0.0
O547 O 0.6332 0.8091 0.63739 0.0
N548 N 0.65446 0.76627 0.62827 0.0
C549 C 0.68733 0.76132 0.68419 0.0
C550 C 0.67526 0.74534 0.64715 0.0
C551 C 0.65844 0.74781 0.62012 0.0
C552 C 0.66541 0.78124 0.66522 0.0
C553 C 0.68216 0.77945 0.69279 0.0
H554 H 0.64823 0.7344 0.59419 0.0
H555 H 0.66113 0.79489 0.67329 0.0
H556 H 0.60256 0.71684 0.61166 0.0
H557 H 0.57029 0.73037 0.72722 0.0
H558 H 0.70666 0.84415 0.53385 0.0
H559 H 0.67811 0.73057 0.64035 0.0
H560 H 0.6909 0.79221 0.72093 0.0
C561 C 0.27833 0.86283 0.70539 0.0
C562 C 0.2998 0.86754 0.72412 0.0
N563 N 0.31473 0.87058 0.68822 0.0
N564 N 0.27946 0.86285 0.65773 0.0
C565 C 0.30183 0.86751 0.6483 0.0
H566 H 0.26298 0.8601 0.72533 0.0
Co567 Co 0.25444 0.85854 0.61739 0.0
C568 C 0.27818 0.88716 0.53208 0.0
O569 O 0.26226 0.89397 0.53175 0.0
N570 N 0.22865 0.85333 0.57664 0.0
C571 C 0.1946 0.84844 0.54734 0.0
C572 C 0.20863 0.85386 0.58704 0.0
C573 C 0.22558 0.84636 0.53048 0.0
N574 N 0.20536 0.84393 0.51144 0.0
O575 O 0.24727 0.82647 0.60369 0.0
H576 H 0.20393 0.85762 0.62119 0.0
H577 H 0.23814 0.84332 0.51101 0.0
O578 O 0.27718 0.87259 0.56393 0.0
C579 C 0.23289 0.81408 0.63668 0.0
O580 O 0.22758 0.82528 0.66887 0.0
N581 N 0.25968 0.88866 0.63702 0.0
C582 C 0.26457 0.92942 0.68173 0.0
C583 C 0.2823 0.93071 0.65129 0.0
C584 C 0.27976 0.91008 0.63012 0.0
C585 C 0.24323 0.88695 0.66904 0.0
C586 C 0.24487 0.90701 0.69049 0.0
H587 H 0.29447 0.91135 0.6101 0.0
H588 H 0.22913 0.8697 0.67964 0.0
H589 H 0.30855 0.8687 0.61282 0.0
H590 H 0.30423 0.86938 0.76141 0.0
H591 H 0.17795 0.84835 0.54501 0.0
H592 H 0.29848 0.94734 0.64534 0.0
H593 H 0.23088 0.90476 0.71434 0.0
H594 H 0.24837 0.29487 0.19186 0.0
H595 H 0.31913 0.22877 0.26981 0.0
H596 H 0.25549 0.24385 0.10667 0.0
H597 H 0.33385 0.29529 0.332 0.0
H598 H 0.28839 0.22908 0.22121 0.0
H599 H 0.27235 0.29023 0.25436 0.0
C600 C 0.25446 0.28228 0.18689 0.0
C601 C 0.24999 0.26969 0.14419 0.0
C602 C 0.29824 0.24359 0.2456 0.0
C603 C 0.27727 0.26437 0.2149 0.0
C604 C 0.31592 0.2435 0.27328 0.0
C605 C 0.32959 0.26234 0.30431 0.0
C606 C 0.29389 0.2626 0.24878 0.0
C607 C 0.3239 0.28048 0.30834 0.0
C608 C 0.2683 0.27982 0.22225 0.0
C609 C 0.2586 0.25391 0.13905 0.0
N610 N 0.30663 0.28031 0.2805 0.0
N611 N 0.2718 0.25174 0.17383 0.0
H612 H 0.73764 0.96179 0.19689 0.0
H613 H 0.80077 0.09828 0.27539 0.0
H614 H 0.78639 0.02065 0.11049 0.0
H615 H 0.73527 0.04534 0.33903 0.0
H616 H 0.80094 0.0678 0.22581 0.0
H617 H 0.74176 0.99003 0.25977 0.0
C618 C 0.74962 0.98057 0.19169 0.0
C619 C 0.76172 0.98897 0.14855 0.0
C620 C 0.78654 0.06276 0.25073 0.0
C621 C 0.76647 0.02114 0.21974 0.0
C622 C 0.78636 0.08021 0.27899 0.0
C623 C 0.76765 0.07455 0.31075 0.0
C624 C 0.76797 0.03923 0.25407 0.0
C625 C 0.74997 0.05058 0.31485 0.0
C626 C 0.75179 0.99664 0.22728 0.0
C627 C 0.77671 0.01346 0.14318 0.0
N628 N 0.75041 0.03381 0.28647 0.0
N629 N 0.77864 0.02861 0.1782 0.0
H630 H 0.07274 0.78112 0.20004 0.0
H631 H 0.93713 0.71329 0.2855 0.0
H632 H 1.01426 0.77731 0.12095 0.0
H633 H 0.98842 0.69597 0.34108 0.0
H634 H 0.96801 0.74421 0.23711 0.0
H635 H 0.04481 0.75731 0.26347 0.0
C636 C 0.05416 0.77583 0.19669 0.0
C637 C 0.04571 0.78116 0.15537 0.0
C638 C 0.97262 0.73376 0.26001 0.0
C639 C 1.01388 0.75403 0.22711 0.0
C640 C 0.95494 0.71599 0.28758 0.0
C641 C 0.96 0.70154 0.31661 0.0
C642 C 0.99576 0.73739 0.26128 0.0
C643 C 0.98366 0.70653 0.31894 0.0
C644 C 0.03824 0.76207 0.23254 0.0
C645 C 0.02145 0.77354 0.15224 0.0
N646 N 1.00065 0.72388 0.29118 0.0
N647 N 1.00644 0.76037 0.18746 0.0
H648 H 0.69058 0.76577 0.78018 0.0
H649 H 0.79829 0.74134 0.81773 0.0
H650 H 0.7226 0.75095 0.66091 0.0
H651 H 0.77448 0.77428 0.91972 0.0
H652 H 0.77105 0.74302 0.75873 0.0
H653 H 0.72025 0.76564 0.83184 0.0
C654 C 0.70398 0.76259 0.76473 0.0
C655 C 0.70431 0.75883 0.71587 0.0
C656 C 0.77208 0.7501 0.79391 0.0
C657 C 0.73861 0.75841 0.77552 0.0
C658 C 0.78773 0.74933 0.82737 0.0
C659 C 0.78845 0.75749 0.87376 0.0
C660 C 0.75717 0.75901 0.80734 0.0
C661 C 0.77427 0.76747 0.8846 0.0
C662 C 0.72099 0.76249 0.79437 0.0
C663 C 0.72172 0.754 0.69836 0.0
N664 N 0.75917 0.76775 0.85193 0.0
N665 N 0.73829 0.75401 0.72817 0.0
H666 H 0.31349 0.07347 0.77296 0.0
H667 H 0.25003 0.93302 0.7717 0.0
H668 H 0.26033 0.03001 0.87555 0.0
H669 H 0.28512 0.97531 0.64828 0.0
H670 H 0.2543 0.96825 0.81088 0.0
H671 H 0.30387 0.03792 0.7271 0.0
C672 C 0.29954 0.05644 0.78549 0.0
C673 C 0.2877 0.05469 0.82816 0.0
C674 C 0.2609 0.96979 0.77508 0.0
C675 C 0.27692 0.01383 0.77629 0.0
C676 C 0.25838 0.94959 0.75241 0.0
C677 C 0.2671 0.95096 0.70619 0.0
C678 C 0.27257 0.99175 0.75189 0.0
C679 C 0.27838 0.97329 0.68403 0.0
C680 C 0.29407 0.03615 0.7593 0.0
C681 C 0.26977 0.0322 0.8427 0.0
N682 N 0.2809 0.99277 0.70714 0.0
N683 N 0.26516 0.0126 0.81715 0.0
H684 H 0.02429 0.26177 0.91871 0.0
H685 H 0.05451 0.31313 0.65465 0.0
H686 H 0.96899 0.24007 0.81398 0.0
H687 H 0.09946 0.34396 0.77689 0.0
H688 H 0.02343 0.28361 0.70707 0.0
H689 H 0.05311 0.28776 0.86091 0.0
C690 C 0.01824 0.26234 0.88321 0.0
C691 C 0.99417 0.24893 0.87129 0.0
C692 C 0.04013 0.2969 0.72216 0.0
C693 C 0.02727 0.27921 0.80451 0.0
C694 C 0.05779 0.31383 0.69239 0.0
C695 C 0.07983 0.33085 0.71124 0.0
C696 C 0.04466 0.29704 0.77091 0.0
C697 C 0.08308 0.33087 0.7604 0.0
C698 C 0.03473 0.27733 0.85018 0.0
C699 C 0.98742 0.25014 0.82451 0.0
N700 N 0.06586 0.31422 0.78822 0.0
N701 N 1.00391 0.26527 0.79274 0.0
H702 H 0.8786 0.58573 0.59174 0.0
H703 H 1.00611 0.59646 0.58037 0.0
H704 H 0.92543 0.61459 0.47154 0.0
H705 H 0.97321 0.5954 0.71356 0.0
H706 H 0.97441 0.59889 0.53872 0.0
H707 H 0.9107 0.58479 0.63603 0.0
C708 C 0.89556 0.59179 0.57462 0.0
C709 C 0.89929 0.60024 0.52782 0.0
C710 C 0.97414 0.59824 0.57706 0.0
C711 C 0.93594 0.59905 0.57809 0.0
C712 C 0.99219 0.59679 0.60083 0.0
C713 C 0.99226 0.59572 0.65048 0.0
C714 C 0.9557 0.59823 0.60297 0.0
C715 C 0.97386 0.59634 0.67526 0.0
C716 C 0.91389 0.59137 0.59999 0.0
C717 C 0.9217 0.608 0.50754 0.0
N718 N 0.95617 0.59732 0.65124 0.0
N719 N 0.93905 0.60705 0.53262 0.0
H720 H 0.41765 0.40726 0.57088 0.0
H721 H 0.44956 0.30328 0.57619 0.0
H722 H 0.44065 0.38786 0.69804 0.0
H723 H 0.41158 0.31371 0.46199 0.0
H724 H 0.44854 0.33525 0.62044 0.0
H725 H 0.41709 0.37401 0.52959 0.0
C726 C 0.42254 0.39595 0.59017 0.0
C727 C 0.42926 0.40042 0.638 0.0
C728 C 0.44037 0.33045 0.58576 0.0
C729 C 0.42881 0.36222 0.59071 0.0
C730 C 0.44104 0.31227 0.56038 0.0
C731 C 0.4306 0.3057 0.51528 0.0
C732 C 0.42943 0.34235 0.56568 0.0
C733 C 0.41973 0.31797 0.49671 0.0
C734 C 0.42215 0.3769 0.5666 0.0
C735 C 0.43518 0.38497 0.66127 0.0
N736 N 0.41953 0.33569 0.52182 0.0
N737 N 0.43501 0.36669 0.63733 0.0
H738 H 0.62636 1.01158 0.58338 0.0
H739 H 0.72134 0.15064 0.58187 0.0
H740 H 0.63608 0.05731 0.70201 0.0
H741 H 0.71619 0.10171 0.4731 0.0
H742 H 0.69007 0.11728 0.62643 0.0
H743 H 0.6593 0.04477 0.54282 0.0
C744 C 0.63549 0.02862 0.60099 0.0
C745 C 0.62832 0.03164 0.64614 0.0
C746 C 0.69589 0.11387 0.5929 0.0
C747 C 0.66624 0.06998 0.59962 0.0
C748 C 0.71369 0.13293 0.56735 0.0
C749 C 0.72154 0.12904 0.52367 0.0
C750 C 0.6857 0.09076 0.57449 0.0
C751 C 0.71095 0.10565 0.50673 0.0
C752 C 0.65437 0.0476 0.57782 0.0
C753 C 0.64108 0.05411 0.6674 0.0
N754 N 0.69361 0.08751 0.53202 0.0
N755 N 0.65928 0.07246 0.64383 0.0
H756 H 0.45583 0.09637 0.21484 0.0
H757 H 0.37904 0.07143 0.97746 0.0
H758 H 0.44763 0.04464 0.11003 0.0
H759 H 0.36974 0.10466 0.10175 0.0
H760 H 0.40963 0.06728 0.01954 0.0
H761 H 0.43053 0.1063 0.16667 0.0
C762 C 0.44919 0.08752 0.18123 0.0
C763 C 0.45377 0.06961 0.16648 0.0
C764 C 0.40095 0.07561 0.03742 0.0
C765 C 0.42469 0.08066 0.11149 0.0
C766 C 0.38332 0.07783 0.01353 0.0
C767 C 0.37155 0.08836 0.03586 0.0
C768 C 0.40712 0.08412 0.08399 0.0
C769 C 0.37843 0.09677 0.08248 0.0
C770 C 0.43455 0.09299 0.15398 0.0
C771 C 0.44441 0.05846 0.12285 0.0
N772 N 0.39568 0.09444 0.1049 0.0
N773 N 0.43027 0.06409 0.09702 0.0
H774 H 0.96289 0.39941 0.15572 0.0
H775 H 0.89258 0.26466 0.06649 0.0
H776 H 0.90924 0.34117 0.23656 0.0
H777 H 0.96273 0.31461 0.01609 0.0
H778 H 0.89306 0.29572 0.11549 0.0
H779 H 0.95751 0.37153 0.09133 0.0
C780 C 0.94952 0.3809 0.15928 0.0
C781 C 0.93641 0.3725 0.20132 0.0
C782 C 0.90828 0.29996 0.0934 0.0
C783 C 0.93025 0.34073 0.12841 0.0
C784 C 0.9081 0.28219 0.06552 0.0
C785 C 0.92791 0.28679 0.03789 0.0
C786 C 0.92833 0.32271 0.09362 0.0
C787 C 0.94711 0.31017 0.03697 0.0
C788 C 0.94664 0.36501 0.12285 0.0
C789 C 0.91968 0.34832 0.20467 0.0
N790 N 0.94697 0.32721 0.06486 0.0
N791 N 0.9171 0.33331 0.16883 0.0
H792 H 0.66887 0.57141 0.21679 0.0
H793 H 0.72875 0.63652 0.97381 0.0
H794 H 0.62742 0.57142 0.09761 0.0
H795 H 0.75934 0.665 0.11105 0.0
H796 H 0.69411 0.60476 0.01362 0.0
H797 H 0.70519 0.59708 0.1721 0.0
C798 C 0.66739 0.57622 0.18081 0.0
C799 C 0.64512 0.56936 0.16091 0.0
C800 C 0.70862 0.61792 0.03474 0.0
C801 C 0.68647 0.5986 0.10973 0.0
C802 C 0.72839 0.6363 0.01212 0.0
C803 C 0.7473 0.65393 0.03872 0.0
C804 C 0.70784 0.61671 0.08437 0.0
C805 C 0.74569 0.65184 0.08851 0.0
C806 C 0.6881 0.59105 0.15552 0.0
C807 C 0.64428 0.57641 0.11424 0.0
N808 N 0.7264 0.63363 0.10957 0.0
N809 N 0.66464 0.59068 0.09024 0.0
H810 H 0.59055 0.94892 0.79164 0.0
H811 H 0.63523 0.92121 0.03562 0.0
H812 H 0.54283 0.91207 0.90725 0.0
H813 H 0.67664 0.94395 0.9073 0.0
H814 H 0.60205 0.92088 0.99294 0.0
H815 H 0.62296 0.95007 0.8369 0.0
C816 C 0.58684 0.94107 0.82665 0.0
C817 C 0.56383 0.93038 0.84559 0.0
C818 C 0.61843 0.92596 0.97423 0.0
C819 C 0.6012 0.9317 0.89805 0.0
C820 C 0.63742 0.92633 0.99865 0.0
C821 C 0.65873 0.93251 0.97495 0.0
C822 C 0.62089 0.9321 0.92595 0.0
C823 C 0.66048 0.93878 0.9269 0.0
C824 C 0.60542 0.94169 0.8525 0.0
C825 C 0.56023 0.9204 0.89112 0.0
N826 N 0.6419 0.93843 0.90414 0.0
N827 N 0.57873 0.92137 0.91589 0.0
H828 H 0.05908 0.60689 0.92201 0.0
H829 H 0.10265 0.74344 0.91014 0.0
H830 H 0.09947 0.65022 0.80394 0.0
H831 H 0.09373 0.70817 0.04465 0.0
H832 H 0.09925 0.70884 0.87015 0.0
H833 H 0.06957 0.6429 0.96748 0.0
C834 C 0.07054 0.62401 0.906 0.0
C835 C 0.07853 0.62558 0.85923 0.0
C836 C 0.09825 0.70878 0.90846 0.0
C837 C 0.09 0.6668 0.91051 0.0
C838 C 0.10032 0.72866 0.93162 0.0
C839 C 0.09872 0.72914 0.98135 0.0
C840 C 0.09397 0.68877 0.93477 0.0
C841 C 0.09477 0.70877 1.0064 0.0
C842 C 0.07648 0.64453 0.93193 0.0
C843 C 0.09319 0.64819 0.84006 0.0
N844 N 0.09234 0.68939 0.98285 0.0
N845 N 0.09812 0.66791 0.86549 0.0
H846 H 0.31607 0.39287 0.03712 0.0
H847 H 0.37573 0.45242 0.7888 0.0
H848 H 0.28426 0.36392 0.9011 0.0
H849 H 0.4159 0.46412 0.91734 0.0
H850 H 0.33934 0.42633 0.83252 0.0
H851 H 0.35042 0.42451 0.9962 0.0
C852 C 0.31619 0.39302 0.99879 0.0
C853 C 0.29701 0.37541 0.97282 0.0
C854 C 0.3561 0.43491 0.85127 0.0
C855 C 0.33623 0.4122 0.92572 0.0
C856 C 0.37687 0.45005 0.82639 0.0
C857 C 0.39892 0.46044 0.84935 0.0
C858 C 0.35739 0.43036 0.89957 0.0
C859 C 0.39927 0.45637 0.89818 0.0
C860 C 0.33579 0.41127 0.97546 0.0
C861 C 0.29824 0.37715 0.92301 0.0
N862 N 0.37887 0.44158 0.9216 0.0
N863 N 0.31743 0.39513 0.90123 0.0
H864 H 0.03779 0.43512 0.43942 0.0
H865 H 0.12654 0.38701 0.42582 0.0
H866 H 0.05963 0.42172 0.30368 0.0
H867 H 0.13112 0.43449 0.53702 0.0
H868 H 0.10094 0.39755 0.38073 0.0
H869 H 0.07016 0.43272 0.47682 0.0
C870 C 0.04948 0.43203 0.41707 0.0
C871 C 0.04575 0.42881 0.3678 0.0
C872 C 0.10788 0.40596 0.41464 0.0
C873 C 0.08269 0.42519 0.41153 0.0
C874 C 0.1225 0.39999 0.44038 0.0
C875 C 0.13091 0.40981 0.4854 0.0
C876 C 0.10107 0.42139 0.4346 0.0
C877 C 0.12511 0.42651 0.50256 0.0
C878 C 0.06798 0.43055 0.43878 0.0
C879 C 0.06131 0.42397 0.3417 0.0
N880 N 0.11015 0.43142 0.47757 0.0
N881 N 0.07889 0.42207 0.36392 0.0
H882 H 0.60007 0.7037 0.53275 0.0
H883 H 0.63001 0.649 0.3068 0.0
H884 H 0.65588 0.74622 0.43401 0.0
H885 H 0.59867 0.60918 0.43489 0.0
H886 H 0.63348 0.68422 0.34537 0.0
H887 H 0.59213 0.66811 0.48813 0.0
C888 C 0.61034 0.70562 0.50127 0.0
C889 C 0.62885 0.72794 0.48742 0.0
C890 C 0.62575 0.66769 0.36481 0.0
C891 C 0.61984 0.68739 0.4362 0.0
C892 C 0.62394 0.64755 0.34299 0.0
C893 C 0.61403 0.62583 0.36735 0.0
C894 C 0.6173 0.66615 0.4112 0.0
C895 C 0.60601 0.62522 0.414 0.0
C896 C 0.60594 0.68529 0.47603 0.0
C897 C 0.6416 0.72933 0.44621 0.0
N898 N 0.60776 0.645 0.43425 0.0
N899 N 0.63692 0.70936 0.42216 0.0
H900 H 0.32408 0.8974 0.54787 0.0
H901 H 0.37573 0.97894 0.31653 0.0
H902 H 0.28002 0.9068 0.44602 0.0
H903 H 0.41786 0.98623 0.44046 0.0
H904 H 0.34085 0.94792 0.35737 0.0
H905 H 0.35916 0.92443 0.5014 0.0
C906 C 0.32173 0.9047 0.51522 0.0
C907 C 0.29911 0.89987 0.50082 0.0
C908 C 0.3578 0.95628 0.37543 0.0
C909 C 0.33912 0.93099 0.4478 0.0
C910 C 0.37773 0.97417 0.35228 0.0
C911 C 0.39999 0.98537 0.37478 0.0
C912 C 0.36005 0.94931 0.42137 0.0
C913 C 0.40134 0.97793 0.42099 0.0
C914 C 0.34177 0.92034 0.48897 0.0
C915 C 0.29717 0.91015 0.45852 0.0
N916 N 0.38173 0.96041 0.44259 0.0
N917 N 0.31688 0.92526 0.4336 0.0
H918 H 0.18252 0.32431 0.46926 0.0
H919 H 0.20445 0.36787 0.19906 0.0
H920 H 0.18395 0.38795 0.42125 0.0
H921 H 0.19396 0.29987 0.24366 0.0
H922 H 0.20013 0.37684 0.28098 0.0
H923 H 0.18985 0.31659 0.3882 0.0
C924 C 0.18435 0.3367 0.44182 0.0
C925 C 0.1824 0.35678 0.4525 0.0
C926 C 0.1988 0.35996 0.27291 0.0
C927 C 0.19111 0.34806 0.35899 0.0
C928 C 0.20115 0.35471 0.22588 0.0
C929 C 0.19932 0.33288 0.21382 0.0
C930 C 0.19466 0.34336 0.30869 0.0
C931 C 0.19562 0.31694 0.25087 0.0
C932 C 0.18864 0.33229 0.3954 0.0
C933 C 0.18547 0.37237 0.41516 0.0
N934 N 0.19333 0.32245 0.29645 0.0
N935 N 0.18956 0.36763 0.37021 0.0
H936 H 0.70346 0.86751 0.47227 0.0
H937 H 0.67804 0.83647 0.19647 0.0
H938 H 0.651 0.79897 0.41934 0.0
H939 H 0.72287 0.90776 0.24795 0.0
H940 H 0.66897 0.82255 0.27771 0.0
H941 H 0.7117 0.8825 0.3909 0.0
C942 C 0.69364 0.85559 0.44358 0.0
C943 C 0.67651 0.83188 0.45287 0.0
C944 C 0.68075 0.84126 0.27133 0.0
C945 C 0.68592 0.84901 0.35924 0.0
C946 C 0.68592 0.84935 0.22462 0.0
C947 C 0.70121 0.87351 0.21465 0.0
C948 C 0.69099 0.8573 0.30897 0.0
C949 C 0.71115 0.889 0.25344 0.0
C950 C 0.69831 0.86421 0.39707 0.0
C951 C 0.66416 0.8174 0.41411 0.0
N952 N 0.70589 0.88064 0.29874 0.0
N953 N 0.6692 0.82615 0.36914 0.0
H954 H 0.12312 0.81174 0.2523 0.0
H955 H 0.2328 0.85413 0.43239 0.0
H956 H 0.19649 0.8473 0.2087 0.0
H957 H 0.16015 0.8241 0.47796 0.0
H958 H 0.21949 0.84938 0.34992 0.0
H959 H 0.136 0.81453 0.33475 0.0
C960 C 0.14191 0.82021 0.25983 0.0
C961 C 0.15865 0.82922 0.22293 0.0
C962 C 0.20643 0.84374 0.37795 0.0
C963 C 0.17357 0.83222 0.31778 0.0
C964 C 0.21403 0.84627 0.42515 0.0
C965 C 0.19762 0.83957 0.46245 0.0
C966 C 0.18219 0.83435 0.36767 0.0
C967 C 0.17351 0.82981 0.45058 0.0
C968 C 0.14926 0.82168 0.30705 0.0
C969 C 0.18279 0.83974 0.23539 0.0
N970 N 0.16656 0.82754 0.40442 0.0
N971 N 0.18946 0.84092 0.28149 0.0
H972 H 0.83199 0.66181 0.81072 0.0
H973 H 0.88329 0.71143 0.55201 0.0
H974 H 0.86002 0.73495 0.77116 0.0
H975 H 0.84655 0.63708 0.58831 0.0
H976 H 0.87564 0.72058 0.6316 0.0
H977 H 0.83792 0.65277 0.72971 0.0
C978 C 0.83945 0.67603 0.78502 0.0
C979 C 0.84567 0.69926 0.79813 0.0
C980 C 0.86921 0.70226 0.62207 0.0
C981 C 0.85249 0.68893 0.70449 0.0
C982 C 0.8735 0.69693 0.57631 0.0
C983 C 0.86558 0.67333 0.56263 0.0
C984 C 0.85699 0.68394 0.65496 0.0
C985 C 0.85331 0.65553 0.59673 0.0
C986 C 0.84273 0.67081 0.73856 0.0
C987 C 0.85485 0.7168 0.76276 0.0
N988 N 0.84947 0.66121 0.64106 0.0
N989 N 0.85813 0.71131 0.71773 0.0
H990 H 0.30745 0.1228 0.75848 0.0
H991 H 0.3827 0.23426 0.58708 0.0
H992 H 0.35262 0.19428 0.8081 0.0
H993 H 0.33395 0.16407 0.53531 0.0
H994 H 0.37197 0.21966 0.66818 0.0
H995 H 0.31626 0.13734 0.67667 0.0
C996 C 0.31899 0.14156 0.75234 0.0
C997 C 0.32938 0.15725 0.79059 0.0
C998 C 0.36358 0.20743 0.6391 0.0
C999 C 0.33987 0.17404 0.69666 0.0
C1000 C 0.36985 0.21575 0.59261 0.0
C1001 C 0.3593 0.20044 0.55391 0.0
C1002 C 0.34666 0.18352 0.64737 0.0
C1003 C 0.34242 0.17666 0.56374 0.0
C1004 C 0.32417 0.14985 0.70551 0.0
C1005 C 0.34448 0.18138 0.78006 0.0
N1006 N 0.3367 0.16896 0.60932 0.0
N1007 N 0.3493 0.18895 0.73434 0.0
H1008 H 0.81039 0.18702 0.58659 0.0
H1009 H 0.90075 0.17731 0.76736 0.0
H1010 H 0.85277 0.15531 0.54935 0.0
H1011 H 0.85301 0.20237 0.8067 0.0
H1012 H 0.88532 0.1713 0.6861 0.0
H1013 H 0.82713 0.19426 0.66626 0.0
C1014 C 0.82309 0.18144 0.59493 0.0
C1015 C 0.83004 0.17046 0.56054 0.0
C1016 C 0.87825 0.17814 0.71255 0.0
C1017 C 0.84968 0.1791 0.65248 0.0
C1018 C 0.88719 0.18173 0.75895 0.0
C1019 C 0.8781 0.19021 0.79428 0.0
C1020 C 0.86017 0.18322 0.70114 0.0
C1021 C 0.86032 0.19542 0.78109 0.0
C1022 C 0.83279 0.18573 0.64062 0.0
C1023 C 0.84696 0.16406 0.57401 0.0
N1024 N 0.85199 0.19184 0.73584 0.0
N1025 N 0.85614 0.16846 0.6187 0.0
H1026 H 0.50333 0.05025 0.09633 0.0
H1027 H 0.53568 0.97355 0.92002 0.0
H1028 H 0.51814 0.99575 0.14233 0.0
H1029 H 0.5221 0.02864 0.8722 0.0
H1030 H 0.52965 0.98185 1.0016 0.0
H1031 H 0.51121 0.04362 0.0144 0.0
C1032 C 0.50846 0.03708 0.0894 0.0
C1033 C 0.50993 0.02348 0.12657 0.0
C1034 C 0.528 0.99216 0.97328 0.0
C1035 C 0.5187 0.01555 0.03247 0.0
C1036 C 0.5313 0.9873 0.92646 0.0
C1037 C 0.52937 1.00033 0.88871 0.0
C1038 C 0.52265 1.01019 0.98286 0.0
C1039 C 0.52404 0.01825 0.89987 0.0
C1040 C 0.5128 0.03317 0.04249 0.0
C1041 C 0.51638 1.00643 0.11503 0.0
N1042 N 0.52083 0.02259 0.94574 0.0
N1043 N 0.52044 1.00294 0.06923 0.0
H1044 H 0.05993 0.55391 0.92114 0.0
H1045 H 0.97059 0.4542 0.10167 0.0
H1046 H 0.99983 0.48779 0.87613 0.0
H1047 H 0.03672 0.51493 0.14467 0.0
H1048 H 0.98091 0.46614 0.01903 0.0
H1049 H 0.05187 0.53989 1.00304 0.0
C1050 C 0.04522 0.53636 0.92816 0.0
C1051 C 0.0305 0.52215 0.89116 0.0
C1052 C 0.99319 0.47681 0.0466 0.0
C1053 C 0.02086 0.50609 0.98565 0.0
C1054 C 0.98733 0.46992 0.094 0.0
C1055 C 1.00264 0.4836 0.13081 0.0
C1056 C 1.01451 0.49759 0.03558 0.0
C1057 C 0.02403 0.50398 0.11803 0.0
C1058 C 0.04051 0.52841 0.97517 0.0
C1059 C 1.01148 0.49964 0.90316 0.0
N1060 N 0.02923 0.51037 0.07174 0.0
N1061 N 1.00715 0.49242 0.94916 0.0
H1062 H 0.53603 0.50335 0.86372 0.0
H1063 H 0.5089 0.52013 0.13368 0.0
H1064 H 0.4756 0.50906 0.90776 0.0
H1065 H 0.57359 0.52241 0.09024 0.0
H1066 H 0.49606 0.51474 0.0513 0.0
H1067 H 0.54979 0.5093 0.94605 0.0
C1068 C 0.52569 0.50594 0.8906 0.0
C1069 C 0.50461 0.50573 0.8785 0.0
C1070 C 0.51307 0.5164 0.05968 0.0
C1071 C 0.52026 0.51247 0.97321 0.0
C1072 C 0.52049 0.51955 0.10691 0.0
C1073 C 0.5425 0.5219 0.11931 0.0
C1074 C 0.52765 0.51548 0.02406 0.0
C1075 C 0.55642 0.52048 0.0827 0.0
C1076 C 0.53359 0.50938 0.93766 0.0
C1077 C 0.49209 0.5094 0.91501 0.0
N1078 N 0.5488 0.51743 0.03683 0.0
N1079 N 0.50003 0.51248 0.96055 0.0
H1080 H 0.21687 0.21274 0.05407 0.0
H1081 H 0.24813 0.1327 0.88612 0.0
H1082 H 0.21102 0.21251 0.90168 0.0
H1083 H 0.25139 0.13348 0.03872 0.0
H1084 H 0.23018 0.15829 0.89 0.0
H1085 H 0.22513 0.18026 0.04839 0.0
C1086 C 0.21695 0.20572 0.01939 0.0
C1087 C 0.21341 0.21576 0.97831 0.0
C1088 C 0.23453 0.15254 0.92261 0.0
C1089 C 0.22342 0.17845 0.97141 0.0
C1090 C 0.24458 0.13778 0.92035 0.0
C1091 C 0.25141 0.13108 0.96213 0.0
C1092 C 0.23127 0.16051 0.96694 0.0
C1093 C 0.24665 0.13841 1.00556 0.0
C1094 C 0.22186 0.18716 0.01611 0.0
C1095 C 0.21407 0.20579 0.93436 0.0
N1096 N 0.2371 0.15279 1.00679 0.0
N1097 N 0.2192 0.1879 0.93205 0.0
H1098 H 0.90224 0.12896 0.04441 0.0
H1099 H 0.82342 1.00681 0.90647 0.0
H1100 H 0.89841 0.12483 0.89198 0.0
H1101 H 0.81962 0.01634 0.05696 0.0
H1102 H 0.85527 0.04798 0.90037 0.0
H1103 H 0.87749 0.08608 0.04894 0.0
C1104 C 0.8965 0.11893 0.01171 0.0
C1105 C 0.90233 0.13056 0.96772 0.0
C1106 C 0.84757 0.04097 0.93474 0.0
C1107 C 0.87336 0.08107 0.97273 0.0
C1108 C 0.82923 0.0174 0.93837 0.0
C1109 C 0.81834 1.00786 0.98233 0.0
C1110 C 0.85537 0.05527 0.97538 0.0
C1111 C 0.8273 0.02259 0.02233 0.0
C1112 C 0.88222 0.09438 0.01438 0.0
C1113 C 0.89446 0.11658 0.9266 0.0
N1114 N 0.84509 0.04547 0.0178 0.0
N1115 N 0.88009 0.09255 0.9301 0.0
H1116 H 0.0226 0.81544 0.06151 0.0
H1117 H 0.91101 0.78337 0.89394 0.0
H1118 H 0.02745 0.8183 0.90886 0.0
H1119 H 0.90983 0.78516 0.04653 0.0
H1120 H 0.95443 0.8004 0.89706 0.0
H1121 H 0.98232 0.80853 0.05554 0.0
C1122 C 1.01545 0.81499 0.02668 0.0
C1123 C 0.02866 0.81729 0.98567 0.0
C1124 C 0.94467 0.79742 0.92979 0.0
C1125 C 0.98183 0.80881 0.97847 0.0
C1126 C 0.91992 0.78792 0.92794 0.0
C1127 C 0.90678 0.78274 0.97003 0.0
C1128 C 0.95621 0.80175 0.97403 0.0
C1129 C 0.91922 0.78867 0.01318 0.0
C1130 C 0.99223 0.81086 0.02325 0.0
C1131 C 1.01795 0.81619 0.94156 0.0
N1132 N 0.94305 0.79759 0.01405 0.0
N1133 N 0.99518 0.81182 0.93913 0.0
H1134 H 0.78855 0.89592 0.11994 0.0
H1135 H 0.8202 0.81467 0.95561 0.0
H1136 H 0.78167 0.89099 0.96783 0.0
H1137 H 0.82991 0.81898 0.10731 0.0
H1138 H 0.80961 0.84559 0.95996 0.0
H1139 H 0.80722 0.87092 0.11695 0.0
C1140 C 0.79138 0.89001 0.08596 0.0
C1141 C 0.78338 0.89545 0.04413 0.0
C1142 C 0.81422 0.83994 0.99237 0.0
C1143 C 0.80442 0.8667 0.04038 0.0
C1144 C 0.82049 0.82229 0.98983 0.0
C1145 C 0.82593 0.8139 0.03114 0.0
C1146 C 0.81319 0.84941 0.03657 0.0
C1147 C 0.82552 0.82448 0.07451 0.0
C1148 C 0.80187 0.8756 0.08424 0.0
C1149 C 0.7873 0.88708 1.00109 0.0
N1150 N 0.81911 0.84148 0.07612 0.0
N1151 N 0.79732 0.8731 1.0004 0.0
H1152 H 0.2161 0.01758 0.0947 0.0
H1153 H 0.14466 0.89184 0.96486 0.0
H1154 H 0.22437 1.00547 0.9473 0.0
H1155 H 0.14154 0.89941 0.11603 0.0
H1156 H 0.16995 0.93447 0.95758 0.0
H1157 H 0.18597 0.97585 0.1027 0.0
C1158 C 0.21173 1.00629 0.0639 0.0
C1159 C 0.22324 0.01537 0.02021 0.0
C1160 C 0.16368 0.92699 0.99242 0.0
C1161 C 0.18812 0.96722 0.02932 0.0
C1162 C 0.14911 0.90254 0.99667 0.0
C1163 C 0.14104 0.8919 0.04123 0.0
C1164 C 0.17057 0.94128 0.03306 0.0
C1165 C 0.14727 0.90682 0.08098 0.0
C1166 C 0.19433 0.98237 0.0686 0.0
C1167 C 0.21613 0.99963 0.98163 0.0
N1168 N 0.16188 0.93076 0.07602 0.0
N1169 N 0.19919 0.97645 0.98718 0.0
H1170 H 0.13146 0.24518 0.11508 0.0
H1171 H 0.01939 0.21599 0.95075 0.0
H1172 H 0.13338 0.25071 0.96273 0.0
H1173 H 1.01365 0.20523 0.10218 0.0
H1174 H 0.06056 0.22543 0.95497 0.0
H1175 H 0.08791 0.22716 0.11201 0.0
C1176 C 0.12272 0.24216 0.08104 0.0
C1177 C 0.13612 0.24962 0.03915 0.0
C1178 C 0.05028 0.22083 0.98733 0.0
C1179 C 0.0865 0.2294 0.0353 0.0
C1180 C 0.02656 0.21523 0.98487 0.0
C1181 C 1.01277 0.20987 0.02616 0.0
C1182 C 0.0606 0.22127 0.03145 0.0
C1183 C 0.02354 0.20963 0.06941 0.0
C1184 C 0.09789 0.23205 0.07926 0.0
C1185 C 0.12385 0.24549 0.99602 0.0
N1186 N 0.04678 0.21542 0.07096 0.0
N1187 N 0.09993 0.23589 0.99527 0.0
H1188 H 0.89271 0.55289 0.41371 0.0
H1189 H 0.91517 0.46795 0.24027 0.0
H1190 H 0.8743 0.54536 0.26537 0.0
H1191 H 0.92771 0.47421 0.39099 0.0
H1192 H 0.89855 0.49468 0.24726 0.0
H1193 H 0.9051 0.52346 0.40458 0.0
C1194 C 0.8914 0.54521 0.37908 0.0
C1195 C 0.88247 0.55183 0.34029 0.0
C1196 C 0.90475 0.48995 0.27879 0.0
C1197 C 0.89651 0.51753 0.32949 0.0
C1198 C 0.91403 0.47455 0.27482 0.0
C1199 C 0.92296 0.46889 0.31504 0.0
C1200 C 0.90442 0.49968 0.32326 0.0
C1201 C 0.92128 0.4782 0.35888 0.0
C1202 C 0.89832 0.52816 0.3739 0.0
C1203 C 0.88086 0.54074 0.29644 0.0
N1204 N 0.91241 0.49312 0.3617 0.0
N1205 N 0.88788 0.52425 0.29219 0.0
H1206 H 0.57607 0.45285 0.25427 0.0
H1207 H 0.45222 0.34763 0.35475 0.0
H1208 H 0.51948 0.4618 0.31111 0.0
H1209 H 0.50427 0.33436 0.28864 0.0
H1210 H 0.47752 0.38979 0.33874 0.0
H1211 H 0.55068 0.40954 0.26432 0.0
C1212 C 0.55831 0.44577 0.26825 0.0
C1213 C 0.55003 0.46107 0.28215 0.0
C1214 C 0.48346 0.3777 0.32758 0.0
C1215 C 0.52105 0.41176 0.29424 0.0
C1216 C 0.46901 0.35353 0.33709 0.0
C1217 C 0.47598 0.33722 0.32311 0.0
C1218 C 0.50526 0.3859 0.30404 0.0
C1219 C 0.49793 0.34614 0.29963 0.0
C1220 C 0.54387 0.42108 0.27426 0.0
C1221 C 0.52685 0.45085 0.30034 0.0
N1222 N 0.51179 0.36981 0.29097 0.0
N1223 N 0.51336 0.42705 0.30601 0.0
H1224 H 0.57187 0.12291 0.25843 0.0
H1225 H 0.67848 0.109 0.36906 0.0
H1226 H 0.56364 0.06168 0.33423 0.0
H1227 H 0.69071 0.17184 0.2939 0.0
H1228 H 0.63613 0.0917 0.35477 0.0
H1229 H 0.61533 0.14134 0.2678 0.0
C1230 C 0.57912 0.1133 0.27663 0.0
C1231 C 0.56397 0.09078 0.29584 0.0
C1232 C 0.64803 0.10929 0.34127 0.0
C1233 C 0.61346 0.11166 0.30688 0.0
C1234 C 0.67234 0.11927 0.34977 0.0
C1235 C 0.68843 0.14199 0.3328 0.0
C1236 C 0.63946 0.12203 0.31563 0.0
C1237 C 0.67914 0.15418 0.30727 0.0
C1238 C 0.60389 0.12383 0.28216 0.0
C1239 C 0.57442 0.07916 0.31919 0.0
N1240 N 0.65533 0.1441 0.29956 0.0
N1241 N 0.59829 0.0897 0.32409 0.0
H1242 H 0.4751 0.12565 0.44332 0.0
H1243 H 0.44545 0.21834 0.31948 0.0
H1244 H 0.48294 0.14122 0.29357 0.0
H1245 H 0.44109 0.20744 0.47048 0.0
H1246 H 0.46216 0.19236 0.31114 0.0
H1247 H 0.46498 0.15668 0.45528 0.0
C1248 C 0.47493 0.13562 0.41285 0.0
C1249 C 0.47998 0.13055 0.36716 0.0
C1250 C 0.45793 0.19581 0.34629 0.0
C1251 C 0.46806 0.16632 0.38098 0.0
C1252 C 0.44852 0.21083 0.35113 0.0
C1253 C 0.44204 0.21523 0.39579 0.0
C1254 C 0.46059 0.18458 0.38635 0.0
C1255 C 0.44617 0.2048 0.43548 0.0
C1256 C 0.46903 0.15339 0.41986 0.0
C1257 C 0.47898 0.14408 0.32932 0.0
N1258 N 0.45493 0.18971 0.42979 0.0
N1259 N 0.47312 0.1612 0.33709 0.0
H1260 H 0.80979 0.23868 0.47947 0.0
H1261 H 0.88366 0.34797 0.30229 0.0
H1262 H 0.81096 0.23337 0.32742 0.0
H1263 H 0.88726 0.35598 0.45436 0.0
H1264 H 0.85256 0.30687 0.31175 0.0
H1265 H 0.83366 0.28229 0.47223 0.0
C1266 C 0.81457 0.24669 0.44465 0.0
C1267 C 0.8085 0.2324 0.40402 0.0
C1268 C 0.85999 0.31763 0.34316 0.0
C1269 C 0.83589 0.282 0.39536 0.0
C1270 C 0.87774 0.34131 0.3377 0.0
C1271 C 0.88848 0.35567 0.37752 0.0
C1272 C 0.85278 0.30794 0.38881 0.0
C1273 C 0.87995 0.34559 0.42255 0.0
C1274 C 0.82835 0.27153 0.44047 0.0
C1275 C 0.81543 0.24368 0.35974 0.0
N1276 N 0.86282 0.32238 0.42697 0.0
N1277 N 0.82878 0.26763 0.35666 0.0
H1278 H 0.68805 0.5822 0.33199 0.0
H1279 H 0.79231 0.56302 0.43653 0.0
H1280 H 0.67365 0.51688 0.39937 0.0
H1281 H 0.80127 0.62938 0.38509 0.0
H1282 H 0.74898 0.54516 0.42557 0.0
H1283 H 0.72991 0.59902 0.35121 0.0
C1284 C 0.69365 0.57131 0.35062 0.0
C1285 C 0.67712 0.54803 0.36391 0.0
C1286 C 0.76051 0.56369 0.41716 0.0
C1287 C 0.72549 0.56737 0.38668 0.0
C1288 C 0.78519 0.5739 0.42377 0.0
C1289 C 0.8005 0.59769 0.4114 0.0
C1290 C 0.75123 0.57743 0.39808 0.0
C1291 C 0.79028 0.6109 0.3946 0.0
C1292 C 0.71765 0.581 0.36199 0.0
C1293 C 0.68563 0.53497 0.38876 0.0
N1294 N 0.76651 0.60062 0.38819 0.0
N1295 N 0.70918 0.54475 0.39914 0.0
H1296 H 0.6369 0.84945 0.62077 0.0
H1297 H 0.51898 0.85919 0.61758 0.0
H1298 H 0.5686 0.78936 0.58754 0.0
H1299 H 0.58611 0.9122 0.6753 0.0
H1300 H 0.53658 0.83453 0.59828 0.0
H1301 H 0.61859 0.8738 0.63041 0.0
C1302 C 0.61797 0.84139 0.61492 0.0
C1303 C 0.60426 0.81722 0.6036 0.0
C1304 C 0.54743 0.85156 0.61512 0.0
C1305 C 0.5829 0.84526 0.61542 0.0
C1306 C 0.53744 0.86574 0.62602 0.0
C1307 C 0.55107 0.88793 0.64814 0.0
C1308 C 0.57133 0.85967 0.62593 0.0
C1309 C 0.57481 0.89522 0.65876 0.0
C1310 C 0.60749 0.85536 0.62072 0.0
C1311 C 0.57985 0.80792 0.59605 0.0
N1312 N 0.58414 0.88121 0.64743 0.0
N1313 N 0.56987 0.82192 0.60253 0.0
H1314 H 0.22257 0.78062 0.56556 0.0
H1315 H 0.13661 0.67401 0.73829 0.0
H1316 H 0.21527 0.78755 0.71566 0.0
H1317 H 0.14734 0.66272 0.59173 0.0
H1318 H 0.16692 0.71544 0.73012 0.0
H1319 H 0.19696 0.73726 0.57356 0.0
C1320 C 0.21598 0.77304 0.6002 0.0
C1321 C 0.22096 0.78779 0.6399 0.0
C1322 C 0.16274 0.7039 0.6997 0.0
C1323 C 0.19147 0.73842 0.64929 0.0
C1324 C 0.14538 0.68003 0.70445 0.0
C1325 C 0.13902 0.66449 0.66567 0.0
C1326 C 0.17396 0.71264 0.65576 0.0
C1327 C 0.15114 0.67386 0.62257 0.0
C1328 C 0.20123 0.74833 0.60475 0.0
C1329 C 0.21173 0.77698 0.68391 0.0
N1330 N 0.16785 0.69725 0.61874 0.0
N1331 N 0.19741 0.75315 0.68729 0.0
H1332 H 0.23929 0.39465 0.63182 0.0
H1333 H 0.36822 0.50978 0.61314 0.0
H1334 H 0.24914 0.46193 0.58422 0.0
H1335 H 0.35361 0.44361 0.67683 0.0
H1336 H 0.32584 0.49271 0.59617 0.0
H1337 H 0.28182 0.41215 0.64063 0.0
C1338 C 0.25045 0.41319 0.62284 0.0
C1339 C 0.24048 0.42686 0.6076 0.0
C1340 C 0.33193 0.48194 0.6138 0.0
C1341 C 0.28985 0.4473 0.61817 0.0
C1342 C 0.35619 0.49162 0.62336 0.0
C1343 C 0.36469 0.47813 0.64646 0.0
C1344 C 0.31594 0.4585 0.62709 0.0
C1345 C 0.34804 0.45482 0.65943 0.0
C1346 C 0.27487 0.42321 0.62806 0.0
C1347 C 0.25603 0.45071 0.59597 0.0
N1348 N 0.32461 0.44581 0.64947 0.0
N1349 N 0.27998 0.46025 0.60187 0.0
H1350 H 0.10137 0.54172 0.63789 0.0
H1351 H 0.16102 0.47284 0.75916 0.0
H1352 H 0.11453 0.54517 0.78821 0.0
H1353 H 0.14421 0.46954 0.61047 0.0
H1354 H 0.14642 0.50063 0.77117 0.0
H1355 H 0.11981 0.5175 0.62804 0.0
C1356 C 0.10836 0.53753 0.66898 0.0
C1357 C 0.10625 0.54546 0.71404 0.0
C1358 C 0.14597 0.49384 0.73594 0.0
C1359 C 0.12737 0.5171 0.70294 0.0
C1360 C 0.1544 0.47797 0.72892 0.0
C1361 C 0.15391 0.46865 0.68359 0.0
C1362 C 0.13702 0.5006 0.69739 0.0
C1363 C 0.14475 0.47587 0.64611 0.0
C1364 C 0.11888 0.52357 0.66327 0.0
C1365 C 0.11587 0.53956 0.7528 0.0
N1366 N 0.13675 0.49134 0.65387 0.0
N1367 N 0.12583 0.52553 0.74643 0.0
H1368 H 0.47899 0.57352 0.77856 0.0
H1369 H 0.57174 0.67888 0.60981 0.0
H1370 H 0.50676 0.56393 0.6468 0.0
H1371 H 0.55472 0.69196 0.75046 0.0
H1372 H 0.54565 0.63665 0.62219 0.0
H1373 H 0.5039 0.61692 0.76825 0.0
C1374 C 0.49014 0.58045 0.74751 0.0
C1375 C 0.49081 0.56493 0.71374 0.0
C1376 C 0.5476 0.64873 0.65046 0.0
C1377 C 0.51923 0.61438 0.70159 0.0
C1378 C 0.56272 0.67303 0.64345 0.0
C1379 C 0.56576 0.68941 0.67905 0.0
C1380 C 0.53515 0.64039 0.69339 0.0
C1381 C 0.55296 0.68029 0.72161 0.0
C1382 C 0.50442 0.60519 0.74169 0.0
C1383 C 0.50569 0.575 0.67417 0.0
N1384 N 0.53828 0.65649 0.72755 0.0
N1385 N 0.51915 0.59885 0.6693 0.0
H1386 H 0.34939 0.89228 0.62163 0.0
H1387 H 0.45603 0.90725 0.7903 0.0
H1388 H 0.3375 0.86484 0.76429 0.0
H1389 H 0.46439 0.93766 0.65094 0.0
H1390 H 0.41251 0.88842 0.78085 0.0
H1391 H 0.39144 0.90571 0.63071 0.0
C1392 C 0.35548 0.88882 0.65476 0.0
C1393 C 0.33962 0.87744 0.69225 0.0
C1394 C 0.42398 0.89914 0.75236 0.0
C1395 C 0.38837 0.89324 0.70331 0.0
C1396 C 0.44879 0.90979 0.7577 0.0
C1397 C 0.46397 0.92428 0.72163 0.0
C1398 C 0.41441 0.90288 0.71048 0.0
C1399 C 0.45354 0.92696 0.68013 0.0
C1400 C 0.37967 0.89668 0.66011 0.0
C1401 C 0.34896 0.87384 0.73457 0.0
N1402 N 0.42964 0.9165 0.67584 0.0
N1403 N 0.37265 0.88176 0.73901 0.0
loop_
_geom_bond_atom_site_label_1
_geom_bond_atom_site_label_2
_geom_bond_distance
_geom_bond_site_symmetry_2
_ccdc_geom_bond_type
C0 C1 1.351 . S
C0 N3 1.368 . S
C0 H5 0.931 . S
C1 C0 1.351 . S
C1 N2 1.373 . S
C1 H29 0.930 1_554 S
N2 C1 1.373 . S
N2 C4 1.340 . S
N3 C0 1.368 . S
N3 C4 1.321 . S
N3 Co6 2.135 . S
C4 N2 1.340 . S
C4 N3 1.321 . S
C4 H28 0.930 . S
H5 C0 0.931 . S
Co6 N3 2.135 . S
Co6 N9 2.121 . S
Co6 O14 2.055 . S
Co6 O17 2.039 . S
Co6 N20 2.140 . S
C7 O8 1.227 . S
C7 O17 1.265 . S
O8 C7 1.227 . S
N9 Co6 2.121 . S
N9 C11 1.375 . S
N9 C12 1.313 . S
C10 C11 1.338 . S
C10 N13 1.377 . S
C10 H30 0.930 . S
C11 N9 1.375 . S
C11 C10 1.338 . S
C11 H15 0.931 . S
C12 N9 1.313 . S
C12 N13 1.344 . S
C12 H16 0.930 . S
N13 C10 1.377 . S
N13 C12 1.344 . S
O14 Co6 2.055 . S
O14 C18 1.253 . S
H15 C11 0.931 . S
H16 C12 0.930 . S
O17 Co6 2.039 . S
O17 C7 1.265 . S
C18 O14 1.253 . S
C18 O19 1.227 . S
O19 C18 1.227 . S
N20 Co6 2.140 . S
N20 C23 1.346 . S
N20 C24 1.345 . S
C21 C22 1.387 . S
C21 C25 1.391 . S
C22 C21 1.387 . S
C22 C23 1.369 . S
C22 H31 0.929 . S
C23 N20 1.346 . S
C23 C22 1.369 . S
C23 H26 0.928 . S
C24 N20 1.345 . S
C24 C25 1.371 . S
C24 H27 0.931 . S
C25 C21 1.391 . S
C25 C24 1.371 . S
C25 H32 0.930 . S
H26 C23 0.928 . S
H27 C24 0.931 . S
H28 C4 0.930 . S
H29 C1 0.930 1_556 S
H30 C10 0.930 . S
H31 C22 0.929 . S
H32 C25 0.930 . S
C33 C34 1.351 . S
C33 N36 1.368 . S
C33 H38 0.931 . S
C34 C33 1.351 . S
C34 N35 1.373 1_565 S
C34 H62 0.930 1_554 S
N35 C34 1.373 1_545 S
N35 C37 1.340 1_545 S
N36 C33 1.368 . S
N36 C37 1.321 . S
N36 Co39 2.135 . S
C37 N35 1.340 1_565 S
C37 N36 1.321 . S
C37 H61 0.930 1_565 S
H38 C33 0.931 . S
Co39 N36 2.135 . S
Co39 N42 2.121 . S
Co39 O47 2.055 . S
Co39 O50 2.039 . S
Co39 N53 2.140 . S
C40 O41 1.227 . S
C40 O50 1.265 . S
O41 C40 1.227 . S
N42 Co39 2.121 . S
N42 C44 1.375 . S
N42 C45 1.313 . S
C43 C44 1.338 . S
C43 N46 1.377 . S
C43 H63 0.930 . S
C44 N42 1.375 . S
C44 C43 1.338 . S
C44 H48 0.931 . S
C45 N42 1.313 . S
C45 N46 1.344 . S
C45 H49 0.930 . S
N46 C43 1.377 . S
N46 C45 1.344 . S
O47 Co39 2.055 . S
O47 C51 1.253 . S
H48 C44 0.931 . S
H49 C45 0.930 . S
O50 Co39 2.039 . S
O50 C40 1.265 . S
C51 O47 1.253 . S
C51 O52 1.227 . S
O52 C51 1.227 . S
N53 Co39 2.140 . S
N53 C56 1.346 . S
N53 C57 1.345 . S
C54 C55 1.387 . S
C54 C58 1.391 . S
C55 C54 1.387 . S
C55 C56 1.369 . S
C55 H64 0.929 . S
C56 N53 1.346 . S
C56 C55 1.369 . S
C56 H59 0.928 . S
C57 N53 1.345 . S
C57 C58 1.371 . S
C57 H60 0.931 . S
C58 C54 1.391 . S
C58 C57 1.371 . S
C58 H65 0.930 . S
H59 C56 0.928 . S
H60 C57 0.931 . S
H61 C37 0.930 1_545 S
H62 C34 0.930 1_556 S
H63 C43 0.930 . S
H64 C55 0.929 . S
H65 C58 0.930 . S
C66 C67 1.351 . S
C66 N69 1.368 . S
C66 H71 0.931 . S
C67 C66 1.351 . S
C67 N68 1.373 1_455 S
C67 H95 0.930 1_554 S
N68 C67 1.373 1_655 S
N68 C70 1.340 1_655 S
N69 C66 1.368 . S
N69 C70 1.321 . S
N69 Co72 2.135 . S
C70 N68 1.340 1_455 S
C70 N69 1.321 . S
C70 H94 0.930 1_455 S
H71 C66 0.931 . S
Co72 N69 2.135 . S
Co72 N75 2.121 . S
Co72 O80 2.055 . S
Co72 O83 2.039 . S
Co72 N86 2.140 . S
C73 O74 1.227 . S
C73 O83 1.265 . S
O74 C73 1.227 . S
N75 Co72 2.121 . S
N75 C77 1.375 . S
N75 C78 1.313 . S
C76 C77 1.338 . S
C76 N79 1.377 . S
C76 H96 0.930 . S
C77 N75 1.375 . S
C77 C76 1.338 . S
C77 H81 0.931 . S
C78 N75 1.313 . S
C78 N79 1.344 . S
C78 H82 0.930 . S
N79 C76 1.377 . S
N79 C78 1.344 . S
O80 Co72 2.055 . S
O80 C84 1.253 . S
H81 C77 0.931 . S
H82 C78 0.930 . S
O83 Co72 2.039 . S
O83 C73 1.265 . S
C84 O80 1.253 . S
C84 O85 1.227 . S
O85 C84 1.227 . S
N86 Co72 2.140 . S
N86 C89 1.346 . S
N86 C90 1.345 . S
C87 C88 1.387 . S
C87 C91 1.391 . S
C88 C87 1.387 . S
C88 C89 1.369 . S
C88 H97 0.929 . S
C89 N86 1.346 . S
C89 C88 1.369 . S
C89 H92 0.928 . S
C90 N86 1.345 . S
C90 C91 1.371 . S
C90 H93 0.931 . S
C91 C87 1.391 . S
C91 C90 1.371 . S
C91 H98 0.930 . S
H92 C89 0.928 . S
H93 C90 0.931 . S
H94 C70 0.930 1_655 S
H95 C67 0.930 1_556 S
H96 C76 0.930 . S
H97 C88 0.929 . S
H98 C91 0.930 . S
C99 C100 1.351 . S
C99 N102 1.368 . S
C99 H104 0.931 . S
C100 C99 1.351 . S
C100 N101 1.373 . S
C100 H128 0.930 1_556 S
N101 C100 1.373 . S
N101 C103 1.340 . S
N102 C99 1.368 . S
N102 C103 1.321 . S
N102 Co105 2.135 . S
C103 N101 1.340 . S
C103 N102 1.321 . S
C103 H127 0.930 . S
H104 C99 0.931 . S
Co105 N102 2.135 . S
Co105 N108 2.121 . S
Co105 O113 2.055 . S
Co105 O116 2.039 . S
Co105 N119 2.140 . S
C106 O107 1.227 . S
C106 O116 1.265 . S
O107 C106 1.227 . S
N108 Co105 2.121 . S
N108 C110 1.375 . S
N108 C111 1.313 . S
C109 C110 1.338 . S
C109 N112 1.377 . S
C109 H129 0.930 . S
C110 N108 1.375 . S
C110 C109 1.338 . S
C110 H114 0.931 . S
C111 N108 1.313 . S
C111 N112 1.344 . S
C111 H115 0.930 . S
N112 C109 1.377 . S
N112 C111 1.344 . S
O113 Co105 2.055 . S
O113 C117 1.253 . S
H114 C110 0.931 . S
H115 C111 0.930 . S
O116 Co105 2.039 . S
O116 C106 1.265 . S
C117 O113 1.253 . S
C117 O118 1.227 . S
O118 C117 1.227 . S
N119 Co105 2.140 . S
N119 C122 1.346 . S
N119 C123 1.345 . S
C120 C121 1.387 . S
C120 C124 1.391 . S
C121 C120 1.387 . S
C121 C122 1.369 . S
C121 H130 0.929 . S
C122 N119 1.346 . S
C122 C121 1.369 . S
C122 H125 0.928 . S
C123 N119 1.345 . S
C123 C124 1.371 . S
C123 H126 0.931 . S
C124 C120 1.391 . S
C124 C123 1.371 . S
C124 H131 0.930 . S
H125 C122 0.928 . S
H126 C123 0.931 . S
H127 C103 0.930 . S
H128 C100 0.930 1_554 S
H129 C109 0.930 . S
H130 C121 0.929 . S
H131 C124 0.930 . S
C132 C133 1.351 . S
C132 N135 1.368 . S
C132 H137 0.931 . S
C133 C132 1.351 . S
C133 N134 1.373 1_545 S
C133 H161 0.930 1_556 S
N134 C133 1.373 1_565 S
N134 C136 1.340 1_565 S
N135 C132 1.368 . S
N135 C136 1.321 . S
N135 Co138 2.135 . S
C136 N134 1.340 1_545 S
C136 N135 1.321 . S
C136 H160 0.930 1_545 S
H137 C132 0.931 . S
Co138 N135 2.135 . S
Co138 N141 2.121 . S
Co138 O146 2.055 . S
Co138 O149 2.039 . S
Co138 N152 2.140 . S
C139 O140 1.227 . S
C139 O149 1.265 . S
O140 C139 1.227 . S
N141 Co138 2.121 . S
N141 C143 1.375 . S
N141 C144 1.313 . S
C142 C143 1.338 . S
C142 N145 1.377 . S
C142 H162 0.930 . S
C143 N141 1.375 . S
C143 C142 1.338 . S
C143 H147 0.931 . S
C144 N141 1.313 . S
C144 N145 1.344 . S
C144 H148 0.930 . S
N145 C142 1.377 . S
N145 C144 1.344 . S
O146 Co138 2.055 . S
O146 C150 1.253 . S
H147 C143 0.931 . S
H148 C144 0.930 . S
O149 Co138 2.039 . S
O149 C139 1.265 . S
C150 O146 1.253 . S
C150 O151 1.227 . S
O151 C150 1.227 . S
N152 Co138 2.140 . S
N152 C155 1.346 . S
N152 C156 1.345 . S
C153 C154 1.387 . S
C153 C157 1.391 . S
C154 C153 1.387 . S
C154 C155 1.369 . S
C154 H163 0.929 . S
C155 N152 1.346 . S
C155 C154 1.369 . S
C155 H158 0.928 . S
C156 N152 1.345 . S
C156 C157 1.371 . S
C156 H159 0.931 . S
C157 C153 1.391 . S
C157 C156 1.371 . S
C157 H164 0.930 . S
H158 C155 0.928 . S
H159 C156 0.931 . S
H160 C136 0.930 1_565 S
H161 C133 0.930 1_554 S
H162 C142 0.930 . S
H163 C154 0.929 . S
H164 C157 0.930 . S
C165 C166 1.351 . S
C165 N168 1.368 . S
C165 H170 0.931 . S
C166 C165 1.351 . S
C166 N167 1.373 1_655 S
C166 H194 0.930 1_556 S
N167 C166 1.373 1_455 S
N167 C169 1.340 1_455 S
N168 C165 1.368 . S
N168 C169 1.321 . S
N168 Co171 2.135 . S
C169 N167 1.340 1_655 S
C169 N168 1.321 . S
C169 H193 0.930 1_655 S
H170 C165 0.931 . S
Co171 N168 2.135 . S
Co171 N174 2.121 . S
Co171 O179 2.055 . S
Co171 O182 2.039 . S
Co171 N185 2.140 . S
C172 O173 1.227 . S
C172 O182 1.265 . S
O173 C172 1.227 . S
N174 Co171 2.121 . S
N174 C176 1.375 . S
N174 C177 1.313 . S
C175 C176 1.338 . S
C175 N178 1.377 . S
C175 H195 0.930 . S
C176 N174 1.375 . S
C176 C175 1.338 . S
C176 H180 0.931 . S
C177 N174 1.313 . S
C177 N178 1.344 . S
C177 H181 0.930 . S
N178 C175 1.377 . S
N178 C177 1.344 . S
O179 Co171 2.055 . S
O179 C183 1.253 . S
H180 C176 0.931 . S
H181 C177 0.930 . S
O182 Co171 2.039 . S
O182 C172 1.265 . S
C183 O179 1.253 . S
C183 O184 1.227 . S
O184 C183 1.227 . S
N185 Co171 2.140 . S
N185 C188 1.346 . S
N185 C189 1.345 . S
C186 C187 1.387 . S
C186 C190 1.391 . S
C187 C186 1.387 . S
C187 C188 1.369 . S
C187 H196 0.929 . S
C188 N185 1.346 . S
C188 C187 1.369 . S
C188 H191 0.928 . S
C189 N185 1.345 . S
C189 C190 1.371 . S
C189 H192 0.931 . S
C190 C186 1.391 . S
C190 C189 1.371 . S
C190 H197 0.930 . S
H191 C188 0.928 . S
H192 C189 0.931 . S
H193 C169 0.930 1_455 S
H194 C166 0.930 1_554 S
H195 C175 0.930 . S
H196 C187 0.929 . S
H197 C190 0.930 . S
C198 C199 1.351 . S
C198 N201 1.368 . S
C198 H203 0.931 . S
C199 C198 1.351 . S
C199 N200 1.373 . S
C199 H227 0.930 . S
N200 C199 1.373 . S
N200 C202 1.340 . S
N201 C198 1.368 . S
N201 C202 1.321 . S
N201 Co204 2.135 . S
C202 N200 1.340 . S
C202 N201 1.321 . S
C202 H226 0.930 . S
H203 C198 0.931 . S
Co204 N201 2.135 . S
Co204 N207 2.121 . S
Co204 O212 2.055 . S
Co204 O215 2.039 . S
Co204 N218 2.140 . S
C205 O206 1.227 . S
C205 O215 1.265 . S
O206 C205 1.227 . S
N207 Co204 2.121 . S
N207 C209 1.375 . S
N207 C210 1.313 . S
C208 C209 1.338 . S
C208 N211 1.377 . S
C208 H228 0.930 . S
C209 N207 1.375 . S
C209 C208 1.338 . S
C209 H213 0.931 . S
C210 N207 1.313 . S
C210 N211 1.344 . S
C210 H214 0.930 . S
N211 C208 1.377 . S
N211 C210 1.344 . S
O212 Co204 2.055 . S
O212 C216 1.253 . S
H213 C209 0.931 . S
H214 C210 0.930 . S
O215 Co204 2.039 . S
O215 C205 1.265 . S
C216 O212 1.253 . S
C216 O217 1.227 . S
O217 C216 1.227 . S
N218 Co204 2.140 . S
N218 C221 1.346 . S
N218 C222 1.345 . S
C219 C220 1.387 . S
C219 C223 1.391 . S
C220 C219 1.387 . S
C220 C221 1.369 . S
C220 H229 0.929 . S
C221 N218 1.346 . S
C221 C220 1.369 . S
C221 H224 0.928 . S
C222 N218 1.345 . S
C222 C223 1.371 . S
C222 H225 0.931 . S
C223 C219 1.391 . S
C223 C222 1.371 . S
C223 H230 0.930 . S
H224 C221 0.928 . S
H225 C222 0.931 . S
H226 C202 0.930 . S
H227 C199 0.930 . S
H228 C208 0.930 . S
H229 C220 0.929 . S
H230 C223 0.930 . S
C231 C232 1.351 . S
C231 N234 1.368 . S
C231 H236 0.931 . S
C232 C231 1.351 . S
C232 N233 1.373 . S
C232 H260 0.930 . S
N233 C232 1.373 . S
N233 C235 1.340 . S
N234 C231 1.368 . S
N234 C235 1.321 . S
N234 Co237 2.135 . S
C235 N233 1.340 . S
C235 N234 1.321 . S
C235 H259 0.930 . S
H236 C231 0.931 . S
Co237 N234 2.135 . S
Co237 N240 2.121 . S
Co237 O245 2.055 . S
Co237 O248 2.039 . S
Co237 N251 2.140 . S
C238 O239 1.227 . S
C238 O248 1.265 . S
O239 C238 1.227 . S
N240 Co237 2.121 . S
N240 C242 1.375 . S
N240 C243 1.313 . S
C241 C242 1.338 . S
C241 N244 1.377 . S
C241 H261 0.930 . S
C242 N240 1.375 . S
C242 C241 1.338 . S
C242 H246 0.931 . S
C243 N240 1.313 . S
C243 N244 1.344 . S
C243 H247 0.930 . S
N244 C241 1.377 . S
N244 C243 1.344 . S
O245 Co237 2.055 . S
O245 C249 1.253 . S
H246 C242 0.931 . S
H247 C243 0.930 . S
O248 Co237 2.039 . S
O248 C238 1.265 . S
C249 O245 1.253 . S
C249 O250 1.227 . S
O250 C249 1.227 . S
N251 Co237 2.140 . S
N251 C254 1.346 . S
N251 C255 1.345 . S
C252 C253 1.387 . S
C252 C256 1.391 . S
C253 C252 1.387 . S
C253 C254 1.369 . S
C253 H262 0.929 . S
C254 N251 1.346 . S
C254 C253 1.369 . S
C254 H257 0.928 . S
C255 N251 1.345 . S
C255 C256 1.371 . S
C255 H258 0.931 . S
C256 C252 1.391 . S
C256 C255 1.371 . S
C256 H263 0.930 . S
H257 C254 0.928 . S
H258 C255 0.931 . S
H259 C235 0.930 . S
H260 C232 0.930 . S
H261 C241 0.930 . S
H262 C253 0.929 . S
H263 C256 0.930 . S
C264 C265 1.351 . S
C264 N267 1.368 . S
C264 H269 0.931 . S
C265 C264 1.351 . S
C265 N266 1.373 . S
C265 H293 0.930 . S
N266 C265 1.373 . S
N266 C268 1.340 . S
N267 C264 1.368 . S
N267 C268 1.321 . S
N267 Co270 2.135 . S
C268 N266 1.340 . S
C268 N267 1.321 . S
C268 H292 0.930 . S
H269 C264 0.931 . S
Co270 N267 2.135 . S
Co270 N273 2.121 . S
Co270 O278 2.055 . S
Co270 O281 2.039 . S
Co270 N284 2.140 . S
C271 O272 1.227 . S
C271 O281 1.265 . S
O272 C271 1.227 . S
N273 Co270 2.121 . S
N273 C275 1.375 . S
N273 C276 1.313 . S
C274 C275 1.338 . S
C274 N277 1.377 . S
C274 H294 0.930 . S
C275 N273 1.375 . S
C275 C274 1.338 . S
C275 H279 0.931 . S
C276 N273 1.313 . S
C276 N277 1.344 . S
C276 H280 0.930 . S
N277 C274 1.377 . S
N277 C276 1.344 . S
O278 Co270 2.055 . S
O278 C282 1.253 . S
H279 C275 0.931 . S
H280 C276 0.930 . S
O281 Co270 2.039 . S
O281 C271 1.265 . S
C282 O278 1.253 . S
C282 O283 1.227 . S
O283 C282 1.227 . S
N284 Co270 2.140 . S
N284 C287 1.346 . S
N284 C288 1.345 . S
C285 C286 1.387 . S
C285 C289 1.391 . S
C286 C285 1.387 . S
C286 C287 1.369 . S
C286 H295 0.929 . S
C287 N284 1.346 . S
C287 C286 1.369 . S
C287 H290 0.928 . S
C288 N284 1.345 . S
C288 C289 1.371 . S
C288 H291 0.931 . S
C289 C285 1.391 . S
C289 C288 1.371 . S
C289 H296 0.930 . S
H290 C287 0.928 . S
H291 C288 0.931 . S
H292 C268 0.930 . S
H293 C265 0.930 . S
H294 C274 0.930 . S
H295 C286 0.929 . S
H296 C289 0.930 . S
C297 C298 1.351 . S
C297 N300 1.368 . S
C297 H302 0.931 . S
C298 C297 1.351 . S
C298 N299 1.373 . S
C298 H326 0.930 . S
N299 C298 1.373 . S
N299 C301 1.340 . S
N300 C297 1.368 . S
N300 C301 1.321 . S
N300 Co303 2.135 . S
C301 N299 1.340 . S
C301 N300 1.321 . S
C301 H325 0.930 . S
H302 C297 0.931 . S
Co303 N300 2.135 . S
Co303 N306 2.121 . S
Co303 O311 2.055 . S
Co303 O314 2.039 . S
Co303 N317 2.140 . S
C304 O305 1.227 . S
C304 O314 1.265 . S
O305 C304 1.227 . S
N306 Co303 2.121 . S
N306 C308 1.375 . S
N306 C309 1.313 . S
C307 C308 1.338 . S
C307 N310 1.377 . S
C307 H327 0.930 . S
C308 N306 1.375 . S
C308 C307 1.338 . S
C308 H312 0.931 . S
C309 N306 1.313 . S
C309 N310 1.344 . S
C309 H313 0.930 . S
N310 C307 1.377 . S
N310 C309 1.344 . S
O311 Co303 2.055 . S
O311 C315 1.253 . S
H312 C308 0.931 . S
H313 C309 0.930 . S
O314 Co303 2.039 . S
O314 C304 1.265 . S
C315 O311 1.253 . S
C315 O316 1.227 . S
O316 C315 1.227 . S
N317 Co303 2.140 . S
N317 C320 1.346 . S
N317 C321 1.345 . S
C318 C319 1.387 . S
C318 C322 1.391 . S
C319 C318 1.387 . S
C319 C320 1.369 . S
C319 H328 0.929 . S
C320 N317 1.346 . S
C320 C319 1.369 . S
C320 H323 0.928 . S
C321 N317 1.345 . S
C321 C322 1.371 . S
C321 H324 0.931 . S
C322 C318 1.391 . S
C322 C321 1.371 . S
C322 H329 0.930 . S
H323 C320 0.928 . S
H324 C321 0.931 . S
H325 C301 0.930 . S
H326 C298 0.930 . S
H327 C307 0.930 . S
H328 C319 0.929 . S
H329 C322 0.930 . S
C330 C331 1.351 . S
C330 N333 1.368 . S
C330 H335 0.931 . S
C331 C330 1.351 . S
C331 N332 1.373 . S
C331 H359 0.930 . S
N332 C331 1.373 . S
N332 C334 1.340 . S
N333 C330 1.368 . S
N333 C334 1.321 . S
N333 Co336 2.135 . S
C334 N332 1.340 . S
C334 N333 1.321 . S
C334 H358 0.930 . S
H335 C330 0.931 . S
Co336 N333 2.135 . S
Co336 N339 2.121 . S
Co336 O344 2.055 . S
Co336 O347 2.039 . S
Co336 N350 2.140 . S
C337 O338 1.227 . S
C337 O347 1.265 . S
O338 C337 1.227 . S
N339 Co336 2.121 . S
N339 C341 1.375 . S
N339 C342 1.313 . S
C340 C341 1.338 . S
C340 N343 1.377 . S
C340 H360 0.930 . S
C341 N339 1.375 . S
C341 C340 1.338 . S
C341 H345 0.931 . S
C342 N339 1.313 . S
C342 N343 1.344 . S
C342 H346 0.930 . S
N343 C340 1.377 . S
N343 C342 1.344 . S
O344 Co336 2.055 . S
O344 C348 1.253 . S
H345 C341 0.931 . S
H346 C342 0.930 . S
O347 Co336 2.039 . S
O347 C337 1.265 . S
C348 O344 1.253 . S
C348 O349 1.227 . S
O349 C348 1.227 . S
N350 Co336 2.140 . S
N350 C353 1.346 . S
N350 C354 1.345 . S
C351 C352 1.387 . S
C351 C355 1.391 . S
C352 C351 1.387 . S
C352 C353 1.369 . S
C352 H361 0.929 . S
C353 N350 1.346 . S
C353 C352 1.369 . S
C353 H356 0.928 . S
C354 N350 1.345 . S
C354 C355 1.371 . S
C354 H357 0.931 . S
C355 C351 1.391 . S
C355 C354 1.371 . S
C355 H362 0.930 . S
H356 C353 0.928 . S
H357 C354 0.931 . S
H358 C334 0.930 . S
H359 C331 0.930 . S
H360 C340 0.930 . S
H361 C352 0.929 . S
H362 C355 0.930 . S
C363 C364 1.351 . S
C363 N366 1.368 . S
C363 H368 0.931 . S
C364 C363 1.351 . S
C364 N365 1.373 . S
C364 H392 0.930 . S
N365 C364 1.373 . S
N365 C367 1.340 . S
N366 C363 1.368 . S
N366 C367 1.321 . S
N366 Co369 2.135 . S
C367 N365 1.340 . S
C367 N366 1.321 . S
C367 H391 0.930 . S
H368 C363 0.931 . S
Co369 N366 2.135 . S
Co369 N372 2.121 . S
Co369 O377 2.055 . S
Co369 O380 2.039 . S
Co369 N383 2.140 . S
C370 O371 1.227 . S
C370 O380 1.265 . S
O371 C370 1.227 . S
N372 Co369 2.121 . S
N372 C374 1.375 . S
N372 C375 1.313 . S
C373 C374 1.338 . S
C373 N376 1.377 . S
C373 H393 0.930 . S
C374 N372 1.375 . S
C374 C373 1.338 . S
C374 H378 0.931 . S
C375 N372 1.313 . S
C375 N376 1.344 . S
C375 H379 0.930 . S
N376 C373 1.377 . S
N376 C375 1.344 . S
O377 Co369 2.055 . S
O377 C381 1.253 . S
H378 C374 0.931 . S
H379 C375 0.930 . S
O380 Co369 2.039 . S
O380 C370 1.265 . S
C381 O377 1.253 . S
C381 O382 1.227 . S
O382 C381 1.227 . S
N383 Co369 2.140 . S
N383 C386 1.346 . S
N383 C387 1.345 . S
C384 C385 1.387 . S
C384 C388 1.391 . S
C385 C384 1.387 . S
C385 C386 1.369 . S
C385 H394 0.929 . S
C386 N383 1.346 . S
C386 C385 1.369 . S
C386 H389 0.928 . S
C387 N383 1.345 . S
C387 C388 1.371 . S
C387 H390 0.931 . S
C388 C384 1.391 . S
C388 C387 1.371 . S
C388 H395 0.930 . S
H389 C386 0.928 . S
H390 C387 0.931 . S
H391 C367 0.930 . S
H392 C364 0.930 . S
H393 C373 0.930 . S
H394 C385 0.929 . S
H395 C388 0.930 . S
C396 C397 1.351 . S
C396 N399 1.368 . S
C396 H401 0.931 . S
C397 C396 1.351 . S
C397 N398 1.373 . S
C397 H425 0.930 . S
N398 C397 1.373 . S
N398 C400 1.340 . S
N399 C396 1.368 . S
N399 C400 1.321 . S
N399 Co402 2.135 . S
C400 N398 1.340 . S
C400 N399 1.321 . S
C400 H424 0.930 . S
H401 C396 0.931 . S
Co402 N399 2.135 . S
Co402 N405 2.121 . S
Co402 O410 2.055 . S
Co402 O413 2.039 . S
Co402 N416 2.140 . S
C403 O404 1.227 . S
C403 O413 1.265 . S
O404 C403 1.227 . S
N405 Co402 2.121 . S
N405 C407 1.375 . S
N405 C408 1.313 . S
C406 C407 1.338 . S
C406 N409 1.377 . S
C406 H426 0.930 . S
C407 N405 1.375 . S
C407 C406 1.338 . S
C407 H411 0.931 . S
C408 N405 1.313 . S
C408 N409 1.344 . S
C408 H412 0.930 . S
N409 C406 1.377 . S
N409 C408 1.344 . S
O410 Co402 2.055 . S
O410 C414 1.253 . S
H411 C407 0.931 . S
H412 C408 0.930 . S
O413 Co402 2.039 . S
O413 C403 1.265 . S
C414 O410 1.253 . S
C414 O415 1.227 . S
O415 C414 1.227 . S
N416 Co402 2.140 . S
N416 C419 1.346 . S
N416 C420 1.345 . S
C417 C418 1.387 . S
C417 C421 1.391 . S
C418 C417 1.387 . S
C418 C419 1.369 . S
C418 H427 0.929 . S
C419 N416 1.346 . S
C419 C418 1.369 . S
C419 H422 0.928 . S
C420 N416 1.345 . S
C420 C421 1.371 . S
C420 H423 0.931 . S
C421 C417 1.391 . S
C421 C420 1.371 . S
C421 H428 0.930 . S
H422 C419 0.928 . S
H423 C420 0.931 . S
H424 C400 0.930 . S
H425 C397 0.930 . S
H426 C406 0.930 . S
H427 C418 0.929 . S
H428 C421 0.930 . S
C429 C430 1.351 . S
C429 N432 1.368 . S
C429 H434 0.931 . S
C430 C429 1.351 . S
C430 N431 1.373 . S
C430 H458 0.930 . S
N431 C430 1.373 . S
N431 C433 1.340 . S
N432 C429 1.368 . S
N432 C433 1.321 . S
N432 Co435 2.135 . S
C433 N431 1.340 . S
C433 N432 1.321 . S
C433 H457 0.930 . S
H434 C429 0.931 . S
Co435 N432 2.135 . S
Co435 N438 2.121 . S
Co435 O443 2.055 . S
Co435 O446 2.039 . S
Co435 N449 2.140 . S
C436 O437 1.227 . S
C436 O446 1.265 . S
O437 C436 1.227 . S
N438 Co435 2.121 . S
N438 C440 1.375 . S
N438 C441 1.313 . S
C439 C440 1.338 . S
C439 N442 1.377 . S
C439 H459 0.930 . S
C440 N438 1.375 . S
C440 C439 1.338 . S
C440 H444 0.931 . S
C441 N438 1.313 . S
C441 N442 1.344 . S
C441 H445 0.930 . S
N442 C439 1.377 . S
N442 C441 1.344 . S
O443 Co435 2.055 . S
O443 C447 1.253 . S
H444 C440 0.931 . S
H445 C441 0.930 . S
O446 Co435 2.039 . S
O446 C436 1.265 . S
C447 O443 1.253 . S
C447 O448 1.227 . S
O448 C447 1.227 . S
N449 Co435 2.140 . S
N449 C452 1.346 . S
N449 C453 1.345 . S
C450 C451 1.387 . S
C450 C454 1.391 . S
C451 C450 1.387 . S
C451 C452 1.369 . S
C451 H460 0.929 . S
C452 N449 1.346 . S
C452 C451 1.369 . S
C452 H455 0.928 . S
C453 N449 1.345 . S
C453 C454 1.371 . S
C453 H456 0.931 . S
C454 C450 1.391 . S
C454 C453 1.371 . S
C454 H461 0.930 . S
H455 C452 0.928 . S
H456 C453 0.931 . S
H457 C433 0.930 . S
H458 C430 0.930 . S
H459 C439 0.930 . S
H460 C451 0.929 . S
H461 C454 0.930 . S
C462 C463 1.351 . S
C462 N465 1.368 . S
C462 H467 0.931 . S
C463 C462 1.351 . S
C463 N464 1.373 . S
C463 H491 0.930 . S
N464 C463 1.373 . S
N464 C466 1.340 . S
N465 C462 1.368 . S
N465 C466 1.321 . S
N465 Co468 2.135 . S
C466 N464 1.340 . S
C466 N465 1.321 . S
C466 H490 0.930 . S
H467 C462 0.931 . S
Co468 N465 2.135 . S
Co468 N471 2.121 . S
Co468 O476 2.055 . S
Co468 O479 2.039 . S
Co468 N482 2.140 . S
C469 O470 1.227 . S
C469 O479 1.265 . S
O470 C469 1.227 . S
N471 Co468 2.121 . S
N471 C473 1.375 . S
N471 C474 1.313 . S
C472 C473 1.338 . S
C472 N475 1.377 . S
C472 H492 0.930 . S
C473 N471 1.375 . S
C473 C472 1.338 . S
C473 H477 0.931 . S
C474 N471 1.313 . S
C474 N475 1.344 . S
C474 H478 0.930 . S
N475 C472 1.377 . S
N475 C474 1.344 . S
O476 Co468 2.055 . S
O476 C480 1.253 . S
H477 C473 0.931 . S
H478 C474 0.930 . S
O479 Co468 2.039 . S
O479 C469 1.265 . S
C480 O476 1.253 . S
C480 O481 1.227 . S
O481 C480 1.227 . S
N482 Co468 2.140 . S
N482 C485 1.346 . S
N482 C486 1.345 . S
C483 C484 1.387 . S
C483 C487 1.391 . S
C484 C483 1.387 . S
C484 C485 1.369 . S
C484 H493 0.929 . S
C485 N482 1.346 . S
C485 C484 1.369 . S
C485 H488 0.928 . S
C486 N482 1.345 . S
C486 C487 1.371 . S
C486 H489 0.931 . S
C487 C483 1.391 . S
C487 C486 1.371 . S
C487 H494 0.930 . S
H488 C485 0.928 . S
H489 C486 0.931 . S
H490 C466 0.930 . S
H491 C463 0.930 . S
H492 C472 0.930 . S
H493 C484 0.929 . S
H494 C487 0.930 . S
C495 C496 1.351 . S
C495 N498 1.368 . S
C495 H500 0.931 . S
C496 C495 1.351 . S
C496 N497 1.373 . S
C496 H524 0.930 . S
N497 C496 1.373 . S
N497 C499 1.340 . S
N498 C495 1.368 . S
N498 C499 1.321 . S
N498 Co501 2.135 . S
C499 N497 1.340 . S
C499 N498 1.321 . S
C499 H523 0.930 . S
H500 C495 0.931 . S
Co501 N498 2.135 . S
Co501 N504 2.121 . S
Co501 O509 2.055 . S
Co501 O512 2.039 . S
Co501 N515 2.140 . S
C502 O503 1.227 . S
C502 O512 1.265 . S
O503 C502 1.227 . S
N504 Co501 2.121 . S
N504 C506 1.375 . S
N504 C507 1.313 . S
C505 C506 1.338 . S
C505 N508 1.377 . S
C505 H525 0.930 . S
C506 N504 1.375 . S
C506 C505 1.338 . S
C506 H510 0.931 . S
C507 N504 1.313 . S
C507 N508 1.344 . S
C507 H511 0.930 . S
N508 C505 1.377 . S
N508 C507 1.344 . S
O509 Co501 2.055 . S
O509 C513 1.253 . S
H510 C506 0.931 . S
H511 C507 0.930 . S
O512 Co501 2.039 . S
O512 C502 1.265 . S
C513 O509 1.253 . S
C513 O514 1.227 . S
O514 C513 1.227 . S
N515 Co501 2.140 . S
N515 C518 1.346 . S
N515 C519 1.345 . S
C516 C517 1.387 . S
C516 C520 1.391 . S
C517 C516 1.387 . S
C517 C518 1.369 . S
C517 H526 0.929 . S
C518 N515 1.346 . S
C518 C517 1.369 . S
C518 H521 0.928 . S
C519 N515 1.345 . S
C519 C520 1.371 . S
C519 H522 0.931 . S
C520 C516 1.391 . S
C520 C519 1.371 . S
C520 H527 0.930 . S
H521 C518 0.928 . S
H522 C519 0.931 . S
H523 C499 0.930 . S
H524 C496 0.930 . S
H525 C505 0.930 . S
H526 C517 0.929 . S
H527 C520 0.930 . S
C528 C529 1.351 . S
C528 N531 1.368 . S
C528 H533 0.931 . S
C529 C528 1.351 . S
C529 N530 1.373 . S
C529 H557 0.930 . S
N530 C529 1.373 . S
N530 C532 1.340 . S
N531 C528 1.368 . S
N531 C532 1.321 . S
N531 Co534 2.135 . S
C532 N530 1.340 . S
C532 N531 1.321 . S
C532 H556 0.930 . S
H533 C528 0.931 . S
Co534 N531 2.135 . S
Co534 N537 2.121 . S
Co534 O542 2.055 . S
Co534 O545 2.039 . S
Co534 N548 2.140 . S
C535 O536 1.227 . S
C535 O545 1.265 . S
O536 C535 1.227 . S
N537 Co534 2.121 . S
N537 C539 1.375 . S
N537 C540 1.313 . S
C538 C539 1.338 . S
C538 N541 1.377 . S
C538 H558 0.930 . S
C539 N537 1.375 . S
C539 C538 1.338 . S
C539 H543 0.931 . S
C540 N537 1.313 . S
C540 N541 1.344 . S
C540 H544 0.930 . S
N541 C538 1.377 . S
N541 C540 1.344 . S
O542 Co534 2.055 . S
O542 C546 1.253 . S
H543 C539 0.931 . S
H544 C540 0.930 . S
O545 Co534 2.039 . S
O545 C535 1.265 . S
C546 O542 1.253 . S
C546 O547 1.227 . S
O547 C546 1.227 . S
N548 Co534 2.140 . S
N548 C551 1.346 . S
N548 C552 1.345 . S
C549 C550 1.387 . S
C549 C553 1.391 . S
C550 C549 1.387 . S
C550 C551 1.369 . S
C550 H559 0.929 . S
C551 N548 1.346 . S
C551 C550 1.369 . S
C551 H554 0.928 . S
C552 N548 1.345 . S
C552 C553 1.371 . S
C552 H555 0.931 . S
C553 C549 1.391 . S
C553 C552 1.371 . S
C553 H560 0.930 . S
H554 C551 0.928 . S
H555 C552 0.931 . S
H556 C532 0.930 . S
H557 C529 0.930 . S
H558 C538 0.930 . S
H559 C550 0.929 . S
H560 C553 0.930 . S
C561 C562 1.351 . S
C561 N564 1.368 . S
C561 H566 0.931 . S
C562 C561 1.351 . S
C562 N563 1.373 . S
C562 H590 0.930 . S
N563 C562 1.373 . S
N563 C565 1.340 . S
N564 C561 1.368 . S
N564 C565 1.321 . S
N564 Co567 2.135 . S
C565 N563 1.340 . S
C565 N564 1.321 . S
C565 H589 0.930 . S
H566 C561 0.931 . S
Co567 N564 2.135 . S
Co567 N570 2.121 . S
Co567 O575 2.055 . S
Co567 O578 2.039 . S
Co567 N581 2.140 . S
C568 O569 1.227 . S
C568 O578 1.265 . S
O569 C568 1.227 . S
N570 Co567 2.121 . S
N570 C572 1.375 . S
N570 C573 1.313 . S
C571 C572 1.338 . S
C571 N574 1.377 . S
C571 H591 0.930 . S
C572 N570 1.375 . S
C572 C571 1.338 . S
C572 H576 0.931 . S
C573 N570 1.313 . S
C573 N574 1.344 . S
C573 H577 0.930 . S
N574 C571 1.377 . S
N574 C573 1.344 . S
O575 Co567 2.055 . S
O575 C579 1.253 . S
H576 C572 0.931 . S
H577 C573 0.930 . S
O578 Co567 2.039 . S
O578 C568 1.265 . S
C579 O575 1.253 . S
C579 O580 1.227 . S
O580 C579 1.227 . S
N581 Co567 2.140 . S
N581 C584 1.346 . S
N581 C585 1.345 . S
C582 C583 1.387 . S
C582 C586 1.391 . S
C583 C582 1.387 . S
C583 C584 1.369 . S
C583 H592 0.929 . S
C584 N581 1.346 . S
C584 C583 1.369 . S
C584 H587 0.928 . S
C585 N581 1.345 . S
C585 C586 1.371 . S
C585 H588 0.931 . S
C586 C582 1.391 . S
C586 C585 1.371 . S
C586 H593 0.930 . S
H587 C584 0.928 . S
H588 C585 0.931 . S
H589 C565 0.930 . S
H590 C562 0.930 . S
H591 C571 0.930 . S
H592 C583 0.929 . S
H593 C586 0.930 . S
H594 C600 0.930 . S
H595 C604 0.930 . S
H596 C609 0.929 . S
H597 C607 0.929 . S
H598 C602 0.929 . S
H599 C608 0.929 . S
C600 H594 0.930 . S
C600 C601 1.367 . S
C600 C608 1.378 . S
C601 C600 1.367 . S
C601 C609 1.433 . S
C602 H598 0.929 . S
C602 C604 1.378 . S
C602 C606 1.350 . S
C603 C606 1.463 . S
C603 C608 1.350 . S
C603 N611 1.427 . S
C604 H595 0.930 . S
C604 C602 1.378 . S
C604 C605 1.367 . S
C605 C604 1.367 . S
C605 C607 1.433 . S
C606 C602 1.350 . S
C606 C603 1.463 . S
C606 N610 1.427 . S
C607 H597 0.929 . S
C607 C605 1.433 . S
C607 N610 1.384 . S
C608 H599 0.929 . S
C608 C600 1.378 . S
C608 C603 1.350 . S
C609 H596 0.929 . S
C609 C601 1.433 . S
C609 N611 1.384 . S
N610 C606 1.427 . S
N610 C607 1.384 . S
N611 C603 1.427 . S
N611 C609 1.384 . S
H612 C618 0.930 . S
H613 C622 0.930 . S
H614 C627 0.929 . S
H615 C625 0.929 . S
H616 C620 0.929 . S
H617 C626 0.929 . S
C618 H612 0.930 . S
C618 C619 1.367 . S
C618 C626 1.378 1_565 S
C619 C618 1.367 . S
C619 C627 1.433 1_565 S
C620 H616 0.929 . S
C620 C622 1.378 . S
C620 C624 1.350 . S
C621 C624 1.463 . S
C621 C626 1.350 . S
C621 N629 1.427 . S
C622 H613 0.930 . S
C622 C620 1.378 . S
C622 C623 1.367 . S
C623 C622 1.367 . S
C623 C625 1.433 . S
C624 C620 1.350 . S
C624 C621 1.463 . S
C624 N628 1.427 . S
C625 H615 0.929 . S
C625 C623 1.433 . S
C625 N628 1.384 . S
C626 H617 0.929 . S
C626 C618 1.378 1_545 S
C626 C621 1.350 . S
C627 H614 0.929 . S
C627 C619 1.433 1_545 S
C627 N629 1.384 . S
N628 C624 1.427 . S
N628 C625 1.384 . S
N629 C621 1.427 . S
N629 C627 1.384 . S
H630 C636 0.930 . S
H631 C640 0.930 . S
H632 C645 0.929 . S
H633 C643 0.929 . S
H634 C638 0.929 . S
H635 C644 0.929 . S
C636 H630 0.930 . S
C636 C637 1.367 . S
C636 C644 1.378 1_455 S
C637 C636 1.367 . S
C637 C645 1.433 1_455 S
C638 H634 0.929 . S
C638 C640 1.378 . S
C638 C642 1.350 . S
C639 C642 1.463 . S
C639 C644 1.350 . S
C639 N647 1.427 . S
C640 H631 0.930 . S
C640 C638 1.378 . S
C640 C641 1.367 . S
C641 C640 1.367 . S
C641 C643 1.433 . S
C642 C638 1.350 . S
C642 C639 1.463 . S
C642 N646 1.427 . S
C643 H633 0.929 . S
C643 C641 1.433 . S
C643 N646 1.384 . S
C644 H635 0.929 . S
C644 C636 1.378 1_655 S
C644 C639 1.350 . S
C645 H632 0.929 . S
C645 C637 1.433 1_655 S
C645 N647 1.384 . S
N646 C642 1.427 . S
N646 C643 1.384 . S
N647 C639 1.427 . S
N647 C645 1.384 . S
H648 C654 0.930 . S
H649 C658 0.930 . S
H650 C663 0.929 . S
H651 C661 0.929 . S
H652 C656 0.929 . S
H653 C662 0.929 . S
C654 H648 0.930 . S
C654 C655 1.367 . S
C654 C662 1.378 . S
C655 C654 1.367 . S
C655 C663 1.433 . S
C656 H652 0.929 . S
C656 C658 1.378 . S
C656 C660 1.350 . S
C657 C660 1.463 . S
C657 C662 1.350 . S
C657 N665 1.427 . S
C658 H649 0.930 . S
C658 C656 1.378 . S
C658 C659 1.367 . S
C659 C658 1.367 . S
C659 C661 1.433 . S
C660 C656 1.350 . S
C660 C657 1.463 . S
C660 N664 1.427 . S
C661 H651 0.929 . S
C661 C659 1.433 . S
C661 N664 1.384 . S
C662 H653 0.929 . S
C662 C654 1.378 . S
C662 C657 1.350 . S
C663 H650 0.929 . S
C663 C655 1.433 . S
C663 N665 1.384 . S
N664 C660 1.427 . S
N664 C661 1.384 . S
N665 C657 1.427 . S
N665 C663 1.384 . S
H666 C672 0.930 . S
H667 C676 0.930 . S
H668 C681 0.929 . S
H669 C679 0.929 . S
H670 C674 0.929 . S
H671 C680 0.927 . S
C672 H666 0.930 . S
C672 C673 1.367 . S
C672 C680 1.401 . S
C673 C672 1.367 . S
C673 C681 1.433 1_545 S
C674 H670 0.929 . S
C674 C676 1.378 . S
C674 C678 1.350 . S
C675 C678 1.463 . S
C675 C680 1.328 1_565 S
C675 N683 1.427 . S
C676 H667 0.930 . S
C676 C674 1.378 . S
C676 C677 1.367 . S
C677 C676 1.367 . S
C677 C679 1.433 . S
C678 C674 1.350 . S
C678 C675 1.463 . S
C678 N682 1.427 . S
C679 H669 0.929 . S
C679 C677 1.433 . S
C679 N682 1.384 . S
C680 H671 0.927 . S
C680 C672 1.401 . S
C680 C675 1.328 1_545 S
C681 H668 0.929 . S
C681 C673 1.433 1_565 S
C681 N683 1.384 . S
N682 C678 1.427 . S
N682 C679 1.384 . S
N683 C675 1.427 . S
N683 C681 1.384 . S
H684 C690 0.930 . S
H685 C694 0.930 . S
H686 C699 0.929 . S
H687 C697 0.929 . S
H688 C692 0.929 . S
H689 C698 0.929 . S
C690 H684 0.930 . S
C690 C691 1.367 1_455 S
C690 C698 1.378 . S
C691 C690 1.367 1_655 S
C691 C699 1.433 . S
C692 H688 0.929 . S
C692 C694 1.378 . S
C692 C696 1.350 . S
C693 C696 1.463 . S
C693 C698 1.350 . S
C693 N701 1.427 . S
C694 H685 0.930 . S
C694 C692 1.378 . S
C694 C695 1.367 . S
C695 C694 1.367 . S
C695 C697 1.433 . S
C696 C692 1.350 . S
C696 C693 1.463 . S
C696 N700 1.427 . S
C697 H687 0.929 . S
C697 C695 1.433 . S
C697 N700 1.384 . S
C698 H689 0.929 . S
C698 C690 1.378 . S
C698 C693 1.350 . S
C699 H686 0.929 . S
C699 C691 1.433 . S
C699 N701 1.384 1_655 S
N700 C696 1.427 . S
N700 C697 1.384 . S
N701 C693 1.427 . S
N701 C699 1.384 1_455 S
H702 C708 0.930 . S
H703 C712 0.930 . S
H704 C717 0.929 . S
H705 C715 0.929 . S
H706 C710 0.929 . S
H707 C716 0.929 . S
C708 H702 0.930 . S
C708 C709 1.367 . S
C708 C716 1.378 . S
C709 C708 1.367 . S
C709 C717 1.433 . S
C710 H706 0.929 . S
C710 C712 1.378 1_655 S
C710 C714 1.350 . S
C711 C714 1.463 . S
C711 C716 1.350 . S
C711 N719 1.427 . S
C712 H703 0.930 . S
C712 C710 1.378 1_455 S
C712 C713 1.367 . S
C713 C712 1.367 . S
C713 C715 1.433 1_455 S
C714 C710 1.350 . S
C714 C711 1.463 . S
C714 N718 1.427 . S
C715 H705 0.929 . S
C715 C713 1.433 1_655 S
C715 N718 1.384 . S
C716 H707 0.929 . S
C716 C708 1.378 . S
C716 C711 1.350 . S
C717 H704 0.929 . S
C717 C709 1.433 . S
C717 N719 1.384 . S
N718 C714 1.427 . S
N718 C715 1.384 . S
N719 C711 1.427 . S
N719 C717 1.384 . S
H720 C726 0.930 . S
H721 C730 0.930 . S
H722 C735 0.929 . S
H723 C733 0.929 . S
H724 C728 0.929 . S
H725 C734 0.929 . S
C726 H720 0.930 . S
C726 C727 1.367 . S
C726 C734 1.378 . S
C727 C726 1.367 . S
C727 C735 1.433 . S
C728 H724 0.929 . S
C728 C730 1.378 . S
C728 C732 1.350 . S
C729 C732 1.463 . S
C729 C734 1.350 . S
C729 N737 1.427 . S
C730 H721 0.930 . S
C730 C728 1.378 . S
C730 C731 1.367 . S
C731 C730 1.367 . S
C731 C733 1.433 . S
C732 C728 1.350 . S
C732 C729 1.463 . S
C732 N736 1.427 . S
C733 H723 0.929 . S
C733 C731 1.433 . S
C733 N736 1.384 . S
C734 H725 0.929 . S
C734 C726 1.378 . S
C734 C729 1.350 . S
C735 H722 0.929 . S
C735 C727 1.433 . S
C735 N737 1.384 . S
N736 C732 1.427 . S
N736 C733 1.384 . S
N737 C729 1.427 . S
N737 C735 1.384 . S
H738 C744 0.930 . S
H739 C748 0.930 . S
H740 C753 0.929 . S
H741 C751 0.929 . S
H742 C746 0.929 . S
H743 C752 0.929 . S
C744 H738 0.930 . S
C744 C745 1.367 . S
C744 C752 1.378 1_565 S
C745 C744 1.367 . S
C745 C753 1.433 1_565 S
C746 H742 0.929 . S
C746 C748 1.378 . S
C746 C750 1.350 . S
C747 C750 1.463 . S
C747 C752 1.350 . S
C747 N755 1.427 . S
C748 H739 0.930 . S
C748 C746 1.378 . S
C748 C749 1.367 . S
C749 C748 1.367 . S
C749 C751 1.433 . S
C750 C746 1.350 . S
C750 C747 1.463 . S
C750 N754 1.427 . S
C751 H741 0.929 . S
C751 C749 1.433 . S
C751 N754 1.384 . S
C752 H743 0.929 . S
C752 C744 1.378 1_545 S
C752 C747 1.350 . S
C753 H740 0.929 . S
C753 C745 1.433 1_545 S
C753 N755 1.384 . S
N754 C750 1.427 . S
N754 C751 1.384 . S
N755 C747 1.427 . S
N755 C753 1.384 . S
H756 C762 0.930 . S
H757 C766 0.930 . S
H758 C771 0.929 . S
H759 C769 0.929 . S
H760 C764 0.929 1_556 S
H761 C770 0.929 . S
C762 H756 0.930 . S
C762 C763 1.367 . S
C762 C770 1.378 . S
C763 C762 1.367 . S
C763 C771 1.433 . S
C764 H760 0.929 1_554 S
C764 C766 1.378 1_554 S
C764 C768 1.350 . S
C765 C768 1.463 . S
C765 C770 1.350 . S
C765 N773 1.427 . S
C766 H757 0.930 . S
C766 C764 1.378 1_556 S
C766 C767 1.367 1_556 S
C767 C766 1.367 1_554 S
C767 C769 1.433 . S
C768 C764 1.350 . S
C768 C765 1.463 . S
C768 N772 1.427 . S
C769 H759 0.929 . S
C769 C767 1.433 . S
C769 N772 1.384 . S
C770 H761 0.929 . S
C770 C762 1.378 . S
C770 C765 1.350 . S
C771 H758 0.929 . S
C771 C763 1.433 . S
C771 N773 1.384 . S
N772 C768 1.427 . S
N772 C769 1.384 . S
N773 C765 1.427 . S
N773 C771 1.384 . S
H774 C780 0.930 . S
H775 C784 0.930 1_556 S
H776 C789 0.929 . S
H777 C787 0.929 . S
H778 C782 0.929 . S
H779 C788 0.929 . S
C780 H774 0.930 . S
C780 C781 1.367 . S
C780 C788 1.378 . S
C781 C780 1.367 . S
C781 C789 1.433 . S
C782 H778 0.929 . S
C782 C784 1.378 . S
C782 C786 1.350 . S
C783 C786 1.463 . S
C783 C788 1.350 . S
C783 N791 1.427 . S
C784 H775 0.930 1_554 S
C784 C782 1.378 . S
C784 C785 1.367 . S
C785 C784 1.367 . S
C785 C787 1.433 . S
C786 C782 1.350 . S
C786 C783 1.463 . S
C786 N790 1.427 . S
C787 H777 0.929 . S
C787 C785 1.433 . S
C787 N790 1.384 . S
C788 H779 0.929 . S
C788 C780 1.378 . S
C788 C783 1.350 . S
C789 H776 0.929 . S
C789 C781 1.433 . S
C789 N791 1.384 . S
N790 C786 1.427 . S
N790 C787 1.384 . S
N791 C783 1.427 . S
N791 C789 1.384 . S
H792 C798 0.930 . S
H793 C802 0.930 . S
H794 C807 0.929 . S
H795 C805 0.929 . S
H796 C800 0.929 . S
H797 C806 0.929 . S
C798 H792 0.930 . S
C798 C799 1.367 . S
C798 C806 1.378 . S
C799 C798 1.367 . S
C799 C807 1.433 . S
C800 H796 0.929 . S
C800 C802 1.378 1_554 S
C800 C804 1.350 . S
C801 C804 1.463 . S
C801 C806 1.350 . S
C801 N809 1.427 . S
C802 H793 0.930 . S
C802 C800 1.378 1_556 S
C802 C803 1.367 1_556 S
C803 C802 1.367 1_554 S
C803 C805 1.433 . S
C804 C800 1.350 . S
C804 C801 1.463 . S
C804 N808 1.427 . S
C805 H795 0.929 . S
C805 C803 1.433 . S
C805 N808 1.384 . S
C806 H797 0.929 . S
C806 C798 1.378 . S
C806 C801 1.350 . S
C807 H794 0.929 . S
C807 C799 1.433 . S
C807 N809 1.384 . S
N808 C804 1.427 . S
N808 C805 1.384 . S
N809 C801 1.427 . S
N809 C807 1.384 . S
H810 C816 0.930 . S
H811 C820 0.930 . S
H812 C825 0.929 . S
H813 C823 0.929 . S
H814 C818 0.929 1_554 S
H815 C824 0.929 . S
C816 H810 0.930 . S
C816 C817 1.367 . S
C816 C824 1.378 . S
C817 C816 1.367 . S
C817 C825 1.433 . S
C818 H814 0.929 1_556 S
C818 C820 1.378 1_556 S
C818 C822 1.350 . S
C819 C822 1.463 . S
C819 C824 1.350 . S
C819 N827 1.427 . S
C820 H811 0.930 . S
C820 C818 1.378 1_554 S
C820 C821 1.367 1_554 S
C821 C820 1.367 1_556 S
C821 C823 1.433 . S
C822 C818 1.350 . S
C822 C819 1.463 . S
C822 N826 1.427 . S
C823 H813 0.929 . S
C823 C821 1.433 . S
C823 N826 1.384 . S
C824 H815 0.929 . S
C824 C816 1.378 . S
C824 C819 1.350 . S
C825 H812 0.929 . S
C825 C817 1.433 . S
C825 N827 1.384 . S
N826 C822 1.427 . S
N826 C823 1.384 . S
N827 C819 1.427 . S
N827 C825 1.384 . S
H828 C834 0.930 . S
H829 C838 0.930 . S
H830 C843 0.929 . S
H831 C841 0.929 . S
H832 C836 0.929 . S
H833 C842 0.929 . S
C834 H828 0.930 . S
C834 C835 1.367 . S
C834 C842 1.378 . S
C835 C834 1.367 . S
C835 C843 1.433 . S
C836 H832 0.929 . S
C836 C838 1.378 . S
C836 C840 1.350 . S
C837 C840 1.463 . S
C837 C842 1.350 . S
C837 N845 1.427 . S
C838 H829 0.930 . S
C838 C836 1.378 . S
C838 C839 1.367 . S
C839 C838 1.367 . S
C839 C841 1.433 1_556 S
C840 C836 1.350 . S
C840 C837 1.463 . S
C840 N844 1.427 . S
C841 H831 0.929 . S
C841 C839 1.433 1_554 S
C841 N844 1.384 1_554 S
C842 H833 0.929 . S
C842 C834 1.378 . S
C842 C837 1.350 . S
C843 H830 0.929 . S
C843 C835 1.433 . S
C843 N845 1.384 . S
N844 C840 1.427 . S
N844 C841 1.384 1_556 S
N845 C837 1.427 . S
N845 C843 1.384 . S
H846 C852 0.930 1_554 S
H847 C856 0.930 . S
H848 C861 0.929 . S
H849 C859 0.929 . S
H850 C854 0.929 . S
H851 C860 0.929 . S
C852 H846 0.930 1_556 S
C852 C853 1.367 . S
C852 C860 1.378 . S
C853 C852 1.367 . S
C853 C861 1.433 . S
C854 H850 0.929 . S
C854 C856 1.378 . S
C854 C858 1.350 . S
C855 C858 1.463 . S
C855 C860 1.350 . S
C855 N863 1.427 . S
C856 H847 0.930 . S
C856 C854 1.378 . S
C856 C857 1.367 . S
C857 C856 1.367 . S
C857 C859 1.433 . S
C858 C854 1.350 . S
C858 C855 1.463 . S
C858 N862 1.427 . S
C859 H849 0.929 . S
C859 C857 1.433 . S
C859 N862 1.384 . S
C860 H851 0.929 . S
C860 C852 1.378 . S
C860 C855 1.350 . S
C861 H848 0.929 . S
C861 C853 1.433 . S
C861 N863 1.384 . S
N862 C858 1.427 . S
N862 C859 1.384 . S
N863 C855 1.427 . S
N863 C861 1.384 . S
H864 C870 0.893 1_655 S
H865 C874 0.930 . S
H866 C879 0.929 . S
H867 C877 0.929 . S
H868 C872 0.929 . S
H869 C878 0.929 . S
C870 H864 0.893 1_455 S
C870 C871 1.369 1_455 S
C870 C878 1.414 . S
C871 C870 1.369 1_655 S
C871 C879 1.433 1_655 S
C872 H868 0.929 . S
C872 C874 1.378 . S
C872 C876 1.350 . S
C873 C876 1.463 . S
C873 C878 1.350 . S
C873 N881 1.427 . S
C874 H865 0.930 . S
C874 C872 1.378 . S
C874 C875 1.367 . S
C875 C874 1.367 . S
C875 C877 1.433 . S
C876 C872 1.350 . S
C876 C873 1.463 . S
C876 N880 1.427 . S
C877 H867 0.929 . S
C877 C875 1.433 . S
C877 N880 1.384 . S
C878 H869 0.929 . S
C878 C870 1.414 . S
C878 C873 1.350 . S
C879 H866 0.929 . S
C879 C871 1.433 1_455 S
C879 N881 1.384 . S
N880 C876 1.427 . S
N880 C877 1.384 . S
N881 C873 1.427 . S
N881 C879 1.384 . S
H882 C888 0.930 . S
H883 C892 0.930 . S
H884 C897 0.929 . S
H885 C895 0.929 . S
H886 C890 0.929 . S
H887 C896 0.929 . S
C888 H882 0.930 . S
C888 C889 1.367 . S
C888 C896 1.378 . S
C889 C888 1.367 . S
C889 C897 1.433 . S
C890 H886 0.929 . S
C890 C892 1.378 . S
C890 C894 1.350 . S
C891 C894 1.463 . S
C891 C896 1.350 . S
C891 N899 1.427 . S
C892 H883 0.930 . S
C892 C890 1.378 . S
C892 C893 1.367 . S
C893 C892 1.367 . S
C893 C895 1.433 . S
C894 C890 1.350 . S
C894 C891 1.463 . S
C894 N898 1.427 . S
C895 H885 0.929 . S
C895 C893 1.433 . S
C895 N898 1.384 . S
C896 H887 0.929 . S
C896 C888 1.378 . S
C896 C891 1.350 . S
C897 H884 0.929 . S
C897 C889 1.433 . S
C897 N899 1.384 . S
N898 C894 1.427 . S
N898 C895 1.384 . S
N899 C891 1.427 . S
N899 C897 1.384 . S
H900 C906 0.930 . S
H901 C910 0.930 1_545 S
H902 C915 0.929 . S
H903 C913 0.929 . S
H904 C908 0.929 . S
H905 C914 0.929 . S
C906 H900 0.930 . S
C906 C907 1.367 . S
C906 C914 1.378 . S
C907 C906 1.367 . S
C907 C915 1.433 . S
C908 H904 0.929 . S
C908 C910 1.378 . S
C908 C912 1.350 . S
C909 C912 1.463 . S
C909 C914 1.350 . S
C909 N917 1.427 . S
C910 H901 0.930 1_565 S
C910 C908 1.378 . S
C910 C911 1.367 1_565 S
C911 C910 1.367 1_545 S
C911 C913 1.433 1_545 S
C912 C908 1.350 . S
C912 C909 1.463 . S
C912 N916 1.427 . S
C913 H903 0.929 . S
C913 C911 1.433 1_565 S
C913 N916 1.384 . S
C914 H905 0.929 . S
C914 C906 1.378 . S
C914 C909 1.350 . S
C915 H902 0.929 . S
C915 C907 1.433 . S
C915 N917 1.384 . S
N916 C912 1.427 . S
N916 C913 1.384 . S
N917 C909 1.427 . S
N917 C915 1.384 . S
H918 C924 0.930 . S
H919 C928 0.930 . S
H920 C933 0.929 . S
H921 C931 0.929 . S
H922 C926 0.929 . S
H923 C932 0.929 . S
C924 H918 0.930 . S
C924 C925 1.367 . S
C924 C932 1.378 . S
C925 C924 1.367 . S
C925 C933 1.433 . S
C926 H922 0.929 . S
C926 C928 1.378 . S
C926 C930 1.350 . S
C927 C930 1.463 . S
C927 C932 1.350 . S
C927 N935 1.427 . S
C928 H919 0.930 . S
C928 C926 1.378 . S
C928 C929 1.367 . S
C929 C928 1.367 . S
C929 C931 1.433 . S
C930 C926 1.350 . S
C930 C927 1.463 . S
C930 N934 1.427 . S
C931 H921 0.929 . S
C931 C929 1.433 . S
C931 N934 1.384 . S
C932 H923 0.929 . S
C932 C924 1.378 . S
C932 C927 1.350 . S
C933 H920 0.929 . S
C933 C925 1.433 . S
C933 N935 1.384 . S
N934 C930 1.427 . S
N934 C931 1.384 . S
N935 C927 1.427 . S
N935 C933 1.384 . S
H936 C942 0.930 . S
H937 C946 0.930 . S
H938 C951 0.929 . S
H939 C949 0.929 . S
H940 C944 0.929 . S
H941 C950 0.929 . S
C942 H936 0.930 . S
C942 C943 1.367 . S
C942 C950 1.378 . S
C943 C942 1.367 . S
C943 C951 1.433 . S
C944 H940 0.929 . S
C944 C946 1.378 . S
C944 C948 1.350 . S
C945 C948 1.463 . S
C945 C950 1.350 . S
C945 N953 1.427 . S
C946 H937 0.930 . S
C946 C944 1.378 . S
C946 C947 1.367 . S
C947 C946 1.367 . S
C947 C949 1.433 . S
C948 C944 1.350 . S
C948 C945 1.463 . S
C948 N952 1.427 . S
C949 H939 0.929 . S
C949 C947 1.433 . S
C949 N952 1.384 . S
C950 H941 0.929 . S
C950 C942 1.378 . S
C950 C945 1.350 . S
C951 H938 0.929 . S
C951 C943 1.433 . S
C951 N953 1.384 . S
N952 C948 1.427 . S
N952 C949 1.384 . S
N953 C945 1.427 . S
N953 C951 1.384 . S
H954 C960 0.930 . S
H955 C964 0.930 . S
H956 C969 0.929 . S
H957 C967 0.929 . S
H958 C962 0.929 . S
H959 C968 0.929 . S
C960 H954 0.930 . S
C960 C961 1.367 . S
C960 C968 1.378 . S
C961 C960 1.367 . S
C961 C969 1.433 . S
C962 H958 0.929 . S
C962 C964 1.378 . S
C962 C966 1.350 . S
C963 C966 1.463 . S
C963 C968 1.350 . S
C963 N971 1.427 . S
C964 H955 0.930 . S
C964 C962 1.378 . S
C964 C965 1.367 . S
C965 C964 1.367 . S
C965 C967 1.433 . S
C966 C962 1.350 . S
C966 C963 1.463 . S
C966 N970 1.427 . S
C967 H957 0.929 . S
C967 C965 1.433 . S
C967 N970 1.384 . S
C968 H959 0.929 . S
C968 C960 1.378 . S
C968 C963 1.350 . S
C969 H956 0.929 . S
C969 C961 1.433 . S
C969 N971 1.384 . S
N970 C966 1.427 . S
N970 C967 1.384 . S
N971 C963 1.427 . S
N971 C969 1.384 . S
H972 C978 0.930 . S
H973 C982 0.930 . S
H974 C987 0.929 . S
H975 C985 0.929 . S
H976 C980 0.929 . S
H977 C986 0.929 . S
C978 H972 0.930 . S
C978 C979 1.367 . S
C978 C986 1.378 . S
C979 C978 1.367 . S
C979 C987 1.433 . S
C980 H976 0.929 . S
C980 C982 1.378 . S
C980 C984 1.350 . S
C981 C984 1.463 . S
C981 C986 1.350 . S
C981 N989 1.427 . S
C982 H973 0.930 . S
C982 C980 1.378 . S
C982 C983 1.367 . S
C983 C982 1.367 . S
C983 C985 1.433 . S
C984 C980 1.350 . S
C984 C981 1.463 . S
C984 N988 1.427 . S
C985 H975 0.929 . S
C985 C983 1.433 . S
C985 N988 1.384 . S
C986 H977 0.929 . S
C986 C978 1.378 . S
C986 C981 1.350 . S
C987 H974 0.929 . S
C987 C979 1.433 . S
C987 N989 1.384 . S
N988 C984 1.427 . S
N988 C985 1.384 . S
N989 C981 1.427 . S
N989 C987 1.384 . S
H990 C996 0.930 . S
H991 C1000 0.930 . S
H992 C1005 0.929 . S
H993 C1003 0.929 . S
H994 C998 0.929 . S
H995 C1004 0.929 . S
C996 H990 0.930 . S
C996 C997 1.367 . S
C996 C1004 1.378 . S
C997 C996 1.367 . S
C997 C1005 1.433 . S
C998 H994 0.929 . S
C998 C1000 1.378 . S
C998 C1002 1.350 . S
C999 C1002 1.463 . S
C999 C1004 1.350 . S
C999 N1007 1.427 . S
C1000 H991 0.930 . S
C1000 C998 1.378 . S
C1000 C1001 1.367 . S
C1001 C1000 1.367 . S
C1001 C1003 1.433 . S
C1002 C998 1.350 . S
C1002 C999 1.463 . S
C1002 N1006 1.427 . S
C1003 H993 0.929 . S
C1003 C1001 1.433 . S
C1003 N1006 1.384 . S
C1004 H995 0.929 . S
C1004 C996 1.378 . S
C1004 C999 1.350 . S
C1005 H992 0.929 . S
C1005 C997 1.433 . S
C1005 N1007 1.384 . S
N1006 C1002 1.427 . S
N1006 C1003 1.384 . S
N1007 C999 1.427 . S
N1007 C1005 1.384 . S
H1008 C1014 0.930 . S
H1009 C1018 0.930 . S
H1010 C1023 0.929 . S
H1011 C1021 0.929 . S
H1012 C1016 0.929 . S
H1013 C1022 0.929 . S
C1014 H1008 0.930 . S
C1014 C1015 1.367 . S
C1014 C1022 1.378 . S
C1015 C1014 1.367 . S
C1015 C1023 1.433 . S
C1016 H1012 0.929 . S
C1016 C1018 1.378 . S
C1016 C1020 1.350 . S
C1017 C1020 1.463 . S
C1017 C1022 1.350 . S
C1017 N1025 1.427 . S
C1018 H1009 0.930 . S
C1018 C1016 1.378 . S
C1018 C1019 1.367 . S
C1019 C1018 1.367 . S
C1019 C1021 1.433 . S
C1020 C1016 1.350 . S
C1020 C1017 1.463 . S
C1020 N1024 1.427 . S
C1021 H1011 0.929 . S
C1021 C1019 1.433 . S
C1021 N1024 1.384 . S
C1022 H1013 0.929 . S
C1022 C1014 1.378 . S
C1022 C1017 1.350 . S
C1023 H1010 0.929 . S
C1023 C1015 1.433 . S
C1023 N1025 1.384 . S
N1024 C1020 1.427 . S
N1024 C1021 1.384 . S
N1025 C1017 1.427 . S
N1025 C1023 1.384 . S
H1026 C1032 0.930 . S
H1027 C1036 0.930 . S
H1028 C1041 0.937 1_565 S
H1029 C1039 0.937 1_545 S
H1030 C1034 0.929 . S
H1031 C1040 0.929 . S
C1032 H1026 0.930 . S
C1032 C1033 1.367 . S
C1032 C1040 1.378 . S
C1033 C1032 1.367 . S
C1033 C1041 1.433 . S
C1034 H1030 0.929 . S
C1034 C1036 1.378 . S
C1034 C1038 1.350 . S
C1035 C1038 1.463 1_544 S
C1035 C1040 1.350 . S
C1035 N1043 1.427 1_545 S
C1036 H1027 0.930 . S
C1036 C1034 1.378 . S
C1036 C1037 1.367 . S
C1037 C1036 1.367 . S
C1037 C1039 1.433 . S
C1038 C1034 1.350 . S
C1038 C1035 1.463 1_566 S
C1038 N1042 1.427 1_565 S
C1039 H1029 0.937 1_565 S
C1039 C1037 1.433 . S
C1039 N1042 1.384 1_565 S
C1040 H1031 0.929 . S
C1040 C1032 1.378 . S
C1040 C1035 1.350 . S
C1041 H1028 0.937 1_545 S
C1041 C1033 1.433 . S
C1041 N1043 1.384 1_545 S
N1042 C1038 1.427 1_545 S
N1042 C1039 1.384 1_545 S
N1043 C1035 1.427 1_565 S
N1043 C1041 1.384 1_565 S
H1044 C1050 0.930 . S
H1045 C1054 0.930 . S
H1046 C1059 0.929 . S
H1047 C1057 0.929 . S
H1048 C1052 0.929 . S
H1049 C1058 0.929 . S
C1050 H1044 0.930 . S
C1050 C1051 1.367 . S
C1050 C1058 1.378 . S
C1051 C1050 1.367 . S
C1051 C1059 1.433 1_455 S
C1052 H1048 0.929 . S
C1052 C1054 1.378 . S
C1052 C1056 1.350 . S
C1053 C1056 1.463 1_456 S
C1053 C1058 1.350 . S
C1053 N1061 1.427 1_455 S
C1054 H1045 0.930 . S
C1054 C1052 1.378 . S
C1054 C1055 1.367 . S
C1055 C1054 1.367 . S
C1055 C1057 1.433 1_655 S
C1056 C1052 1.350 . S
C1056 C1053 1.463 1_654 S
C1056 N1060 1.427 1_655 S
C1057 H1047 0.929 . S
C1057 C1055 1.433 1_455 S
C1057 N1060 1.384 . S
C1058 H1049 0.929 . S
C1058 C1050 1.378 . S
C1058 C1053 1.350 . S
C1059 H1046 0.929 . S
C1059 C1051 1.433 1_655 S
C1059 N1061 1.384 . S
N1060 C1056 1.427 1_455 S
N1060 C1057 1.384 . S
N1061 C1053 1.427 1_655 S
N1061 C1059 1.384 . S
H1062 C1068 0.930 . S
H1063 C1072 0.930 . S
H1064 C1077 0.929 . S
H1065 C1075 0.929 . S
H1066 C1070 0.929 . S
H1067 C1076 0.929 . S
C1068 H1062 0.930 . S
C1068 C1069 1.367 . S
C1068 C1076 1.378 . S
C1069 C1068 1.367 . S
C1069 C1077 1.433 . S
C1070 H1066 0.929 . S
C1070 C1072 1.378 . S
C1070 C1074 1.350 . S
C1071 C1074 1.463 1_556 S
C1071 C1076 1.350 . S
C1071 N1079 1.427 . S
C1072 H1063 0.930 . S
C1072 C1070 1.378 . S
C1072 C1073 1.367 . S
C1073 C1072 1.367 . S
C1073 C1075 1.433 . S
C1074 C1070 1.350 . S
C1074 C1071 1.463 1_554 S
C1074 N1078 1.427 . S
C1075 H1065 0.929 . S
C1075 C1073 1.433 . S
C1075 N1078 1.384 . S
C1076 H1067 0.929 . S
C1076 C1068 1.378 . S
C1076 C1071 1.350 . S
C1077 H1064 0.929 . S
C1077 C1069 1.433 . S
C1077 N1079 1.384 . S
N1078 C1074 1.427 . S
N1078 C1075 1.384 . S
N1079 C1071 1.427 . S
N1079 C1077 1.384 . S
H1080 C1086 0.930 . S
H1081 C1090 0.930 . S
H1082 C1095 0.929 . S
H1083 C1093 0.929 . S
H1084 C1088 0.929 . S
H1085 C1094 0.929 . S
C1086 H1080 0.930 . S
C1086 C1087 1.367 . S
C1086 C1094 1.378 . S
C1087 C1086 1.367 . S
C1087 C1095 1.433 1_554 S
C1088 H1084 0.929 . S
C1088 C1090 1.378 . S
C1088 C1092 1.350 . S
C1089 C1092 1.463 . S
C1089 C1094 1.350 1_556 S
C1089 N1097 1.427 . S
C1090 H1081 0.930 . S
C1090 C1088 1.378 . S
C1090 C1091 1.367 . S
C1091 C1090 1.367 . S
C1091 C1093 1.433 . S
C1092 C1088 1.350 . S
C1092 C1089 1.463 . S
C1092 N1096 1.427 . S
C1093 H1083 0.929 . S
C1093 C1091 1.433 . S
C1093 N1096 1.384 . S
C1094 H1085 0.929 . S
C1094 C1086 1.378 . S
C1094 C1089 1.350 1_554 S
C1095 H1082 0.929 . S
C1095 C1087 1.433 1_556 S
C1095 N1097 1.384 . S
N1096 C1092 1.427 . S
N1096 C1093 1.384 . S
N1097 C1089 1.427 . S
N1097 C1095 1.384 . S
H1098 C1104 0.930 . S
H1099 C1108 0.930 . S
H1100 C1113 0.929 . S
H1101 C1111 0.929 . S
H1102 C1106 0.929 . S
H1103 C1112 0.929 . S
C1104 H1098 0.930 . S
C1104 C1105 1.367 . S
C1104 C1112 1.378 . S
C1105 C1104 1.367 . S
C1105 C1113 1.433 . S
C1106 H1102 0.929 . S
C1106 C1108 1.378 . S
C1106 C1110 1.350 . S
C1107 C1110 1.463 . S
C1107 C1112 1.350 . S
C1107 N1115 1.427 . S
C1108 H1099 0.930 . S
C1108 C1106 1.378 . S
C1108 C1109 1.367 1_556 S
C1109 C1108 1.367 1_554 S
C1109 C1111 1.433 . S
C1110 C1106 1.350 . S
C1110 C1107 1.463 . S
C1110 N1114 1.427 . S
C1111 H1101 0.929 . S
C1111 C1109 1.433 . S
C1111 N1114 1.384 1_554 S
C1112 H1103 0.929 . S
C1112 C1104 1.378 . S
C1112 C1107 1.350 . S
C1113 H1100 0.929 . S
C1113 C1105 1.433 . S
C1113 N1115 1.384 . S
N1114 C1110 1.427 . S
N1114 C1111 1.384 1_556 S
N1115 C1107 1.427 . S
N1115 C1113 1.384 . S
H1116 C1122 0.930 . S
H1117 C1126 0.930 . S
H1118 C1131 0.929 . S
H1119 C1129 0.929 . S
H1120 C1124 0.929 . S
H1121 C1130 0.929 . S
C1122 H1116 0.930 . S
C1122 C1123 1.367 . S
C1122 C1130 1.378 . S
C1123 C1122 1.367 . S
C1123 C1131 1.433 1_554 S
C1124 H1120 0.929 . S
C1124 C1126 1.378 . S
C1124 C1128 1.350 . S
C1125 C1128 1.463 . S
C1125 C1130 1.350 1_556 S
C1125 N1133 1.427 . S
C1126 H1117 0.930 . S
C1126 C1124 1.378 . S
C1126 C1127 1.367 . S
C1127 C1126 1.367 . S
C1127 C1129 1.433 . S
C1128 C1124 1.350 . S
C1128 C1125 1.463 . S
C1128 N1132 1.427 . S
C1129 H1119 0.929 . S
C1129 C1127 1.433 . S
C1129 N1132 1.384 . S
C1130 H1121 0.929 . S
C1130 C1122 1.378 . S
C1130 C1125 1.350 1_554 S
C1131 H1118 0.929 . S
C1131 C1123 1.433 1_556 S
C1131 N1133 1.384 . S
N1132 C1128 1.427 . S
N1132 C1129 1.384 . S
N1133 C1125 1.427 . S
N1133 C1131 1.384 . S
H1134 C1140 0.930 . S
H1135 C1144 0.930 . S
H1136 C1149 0.929 . S
H1137 C1147 0.929 . S
H1138 C1142 0.929 . S
H1139 C1148 0.929 . S
C1140 H1134 0.930 . S
C1140 C1141 1.367 . S
C1140 C1148 1.378 . S
C1141 C1140 1.367 . S
C1141 C1149 1.433 . S
C1142 H1138 0.929 . S
C1142 C1144 1.378 . S
C1142 C1146 1.350 1_556 S
C1143 C1146 1.463 . S
C1143 C1148 1.350 . S
C1143 N1151 1.427 . S
C1144 H1135 0.930 . S
C1144 C1142 1.378 . S
C1144 C1145 1.367 . S
C1145 C1144 1.367 . S
C1145 C1147 1.433 1_556 S
C1146 C1142 1.350 1_554 S
C1146 C1143 1.463 . S
C1146 N1150 1.427 . S
C1147 H1137 0.929 . S
C1147 C1145 1.433 1_554 S
C1147 N1150 1.384 . S
C1148 H1139 0.929 . S
C1148 C1140 1.378 . S
C1148 C1143 1.350 . S
C1149 H1136 0.929 . S
C1149 C1141 1.433 . S
C1149 N1151 1.384 . S
N1150 C1146 1.427 . S
N1150 C1147 1.384 . S
N1151 C1143 1.427 . S
N1151 C1149 1.384 . S
H1152 C1158 0.930 . S
H1153 C1162 0.930 . S
H1154 C1167 0.929 . S
H1155 C1165 0.929 . S
H1156 C1160 0.929 . S
H1157 C1166 0.929 . S
C1158 H1152 0.930 . S
C1158 C1159 1.367 1_554 S
C1158 C1166 1.378 . S
C1159 C1158 1.367 1_556 S
C1159 C1167 1.433 . S
C1160 H1156 0.929 . S
C1160 C1162 1.378 . S
C1160 C1164 1.350 . S
C1161 C1164 1.463 . S
C1161 C1166 1.350 . S
C1161 N1169 1.427 1_554 S
C1162 H1153 0.930 . S
C1162 C1160 1.378 . S
C1162 C1163 1.367 . S
C1163 C1162 1.367 . S
C1163 C1165 1.433 . S
C1164 C1160 1.350 . S
C1164 C1161 1.463 . S
C1164 N1168 1.427 . S
C1165 H1155 0.929 . S
C1165 C1163 1.433 . S
C1165 N1168 1.384 . S
C1166 H1157 0.929 . S
C1166 C1158 1.378 . S
C1166 C1161 1.350 . S
C1167 H1154 0.929 . S
C1167 C1159 1.433 . S
C1167 N1169 1.384 . S
N1168 C1164 1.427 . S
N1168 C1165 1.384 . S
N1169 C1161 1.427 1_556 S
N1169 C1167 1.384 . S
H1170 C1176 0.930 . S
H1171 C1180 0.930 . S
H1172 C1185 0.929 . S
H1173 C1183 0.929 . S
H1174 C1178 0.929 . S
H1175 C1184 0.929 . S
C1176 H1170 0.930 . S
C1176 C1177 1.367 . S
C1176 C1184 1.378 . S
C1177 C1176 1.367 . S
C1177 C1185 1.433 . S
C1178 H1174 0.929 . S
C1178 C1180 1.378 . S
C1178 C1182 1.350 1_556 S
C1179 C1182 1.463 . S
C1179 C1184 1.350 . S
C1179 N1187 1.427 . S
C1180 H1171 0.930 . S
C1180 C1178 1.378 . S
C1180 C1181 1.367 . S
C1181 C1180 1.367 . S
C1181 C1183 1.433 1_556 S
C1182 C1178 1.350 1_554 S
C1182 C1179 1.463 . S
C1182 N1186 1.427 . S
C1183 H1173 0.929 . S
C1183 C1181 1.433 1_554 S
C1183 N1186 1.384 . S
C1184 H1175 0.929 . S
C1184 C1176 1.378 . S
C1184 C1179 1.350 . S
C1185 H1172 0.929 . S
C1185 C1177 1.433 . S
C1185 N1187 1.384 . S
N1186 C1182 1.427 . S
N1186 C1183 1.384 . S
N1187 C1179 1.427 . S
N1187 C1185 1.384 . S
H1188 C1194 0.930 . S
H1189 C1198 0.930 . S
H1190 C1203 0.929 . S
H1191 C1201 0.929 . S
H1192 C1196 0.929 . S
H1193 C1202 0.929 . S
C1194 H1188 0.930 . S
C1194 C1195 1.367 . S
C1194 C1202 1.378 . S
C1195 C1194 1.367 . S
C1195 C1203 1.433 . S
C1196 H1192 0.929 . S
C1196 C1198 1.378 . S
C1196 C1200 1.350 . S
C1197 C1200 1.463 . S
C1197 C1202 1.350 . S
C1197 N1205 1.427 . S
C1198 H1189 0.930 . S
C1198 C1196 1.378 . S
C1198 C1199 1.367 . S
C1199 C1198 1.367 . S
C1199 C1201 1.433 . S
C1200 C1196 1.350 . S
C1200 C1197 1.463 . S
C1200 N1204 1.427 . S
C1201 H1191 0.929 . S
C1201 C1199 1.433 . S
C1201 N1204 1.384 . S
C1202 H1193 0.929 . S
C1202 C1194 1.378 . S
C1202 C1197 1.350 . S
C1203 H1190 0.929 . S
C1203 C1195 1.433 . S
C1203 N1205 1.384 . S
N1204 C1200 1.427 . S
N1204 C1201 1.384 . S
N1205 C1197 1.427 . S
N1205 C1203 1.384 . S
H1206 C1212 0.930 . S
H1207 C1216 0.930 . S
H1208 C1221 0.929 . S
H1209 C1219 0.929 . S
H1210 C1214 0.929 . S
H1211 C1220 0.929 . S
C1212 H1206 0.930 . S
C1212 C1213 1.367 . S
C1212 C1220 1.378 . S
C1213 C1212 1.367 . S
C1213 C1221 1.433 . S
C1214 H1210 0.929 . S
C1214 C1216 1.378 . S
C1214 C1218 1.350 . S
C1215 C1218 1.463 . S
C1215 C1220 1.350 . S
C1215 N1223 1.427 . S
C1216 H1207 0.930 . S
C1216 C1214 1.378 . S
C1216 C1217 1.367 . S
C1217 C1216 1.367 . S
C1217 C1219 1.433 . S
C1218 C1214 1.350 . S
C1218 C1215 1.463 . S
C1218 N1222 1.427 . S
C1219 H1209 0.929 . S
C1219 C1217 1.433 . S
C1219 N1222 1.384 . S
C1220 H1211 0.929 . S
C1220 C1212 1.378 . S
C1220 C1215 1.350 . S
C1221 H1208 0.929 . S
C1221 C1213 1.433 . S
C1221 N1223 1.384 . S
N1222 C1218 1.427 . S
N1222 C1219 1.384 . S
N1223 C1215 1.427 . S
N1223 C1221 1.384 . S
H1224 C1230 0.930 . S
H1225 C1234 0.930 . S
H1226 C1239 0.929 . S
H1227 C1237 0.929 . S
H1228 C1232 0.929 . S
H1229 C1238 0.929 . S
C1230 H1224 0.930 . S
C1230 C1231 1.367 . S
C1230 C1238 1.378 . S
C1231 C1230 1.367 . S
C1231 C1239 1.433 . S
C1232 H1228 0.929 . S
C1232 C1234 1.378 . S
C1232 C1236 1.350 . S
C1233 C1236 1.463 . S
C1233 C1238 1.350 . S
C1233 N1241 1.427 . S
C1234 H1225 0.930 . S
C1234 C1232 1.378 . S
C1234 C1235 1.367 . S
C1235 C1234 1.367 . S
C1235 C1237 1.433 . S
C1236 C1232 1.350 . S
C1236 C1233 1.463 . S
C1236 N1240 1.427 . S
C1237 H1227 0.929 . S
C1237 C1235 1.433 . S
C1237 N1240 1.384 . S
C1238 H1229 0.929 . S
C1238 C1230 1.378 . S
C1238 C1233 1.350 . S
C1239 H1226 0.929 . S
C1239 C1231 1.433 . S
C1239 N1241 1.384 . S
N1240 C1236 1.427 . S
N1240 C1237 1.384 . S
N1241 C1233 1.427 . S
N1241 C1239 1.384 . S
H1242 C1248 0.930 . S
H1243 C1252 0.930 . S
H1244 C1257 0.929 . S
H1245 C1255 0.929 . S
H1246 C1250 0.929 . S
H1247 C1256 0.929 . S
C1248 H1242 0.930 . S
C1248 C1249 1.367 . S
C1248 C1256 1.378 . S
C1249 C1248 1.367 . S
C1249 C1257 1.433 . S
C1250 H1246 0.929 . S
C1250 C1252 1.378 . S
C1250 C1254 1.350 . S
C1251 C1254 1.463 . S
C1251 C1256 1.350 . S
C1251 N1259 1.427 . S
C1252 H1243 0.930 . S
C1252 C1250 1.378 . S
C1252 C1253 1.367 . S
C1253 C1252 1.367 . S
C1253 C1255 1.433 . S
C1254 C1250 1.350 . S
C1254 C1251 1.463 . S
C1254 N1258 1.427 . S
C1255 H1245 0.929 . S
C1255 C1253 1.433 . S
C1255 N1258 1.384 . S
C1256 H1247 0.929 . S
C1256 C1248 1.378 . S
C1256 C1251 1.350 . S
C1257 H1244 0.929 . S
C1257 C1249 1.433 . S
C1257 N1259 1.384 . S
N1258 C1254 1.427 . S
N1258 C1255 1.384 . S
N1259 C1251 1.427 . S
N1259 C1257 1.384 . S
H1260 C1266 0.930 . S
H1261 C1270 0.930 . S
H1262 C1275 0.929 . S
H1263 C1273 0.929 . S
H1264 C1268 0.929 . S
H1265 C1274 0.929 . S
C1266 H1260 0.930 . S
C1266 C1267 1.367 . S
C1266 C1274 1.378 . S
C1267 C1266 1.367 . S
C1267 C1275 1.433 . S
C1268 H1264 0.929 . S
C1268 C1270 1.378 . S
C1268 C1272 1.350 . S
C1269 C1272 1.463 . S
C1269 C1274 1.350 . S
C1269 N1277 1.427 . S
C1270 H1261 0.930 . S
C1270 C1268 1.378 . S
C1270 C1271 1.367 . S
C1271 C1270 1.367 . S
C1271 C1273 1.433 . S
C1272 C1268 1.350 . S
C1272 C1269 1.463 . S
C1272 N1276 1.427 . S
C1273 H1263 0.929 . S
C1273 C1271 1.433 . S
C1273 N1276 1.384 . S
C1274 H1265 0.929 . S
C1274 C1266 1.378 . S
C1274 C1269 1.350 . S
C1275 H1262 0.929 . S
C1275 C1267 1.433 . S
C1275 N1277 1.384 . S
N1276 C1272 1.427 . S
N1276 C1273 1.384 . S
N1277 C1269 1.427 . S
N1277 C1275 1.384 . S
H1278 C1284 0.930 . S
H1279 C1288 0.930 . S
H1280 C1293 0.929 . S
H1281 C1291 0.929 . S
H1282 C1286 0.929 . S
H1283 C1292 0.929 . S
C1284 H1278 0.930 . S
C1284 C1285 1.367 . S
C1284 C1292 1.378 . S
C1285 C1284 1.367 . S
C1285 C1293 1.433 . S
C1286 H1282 0.929 . S
C1286 C1288 1.378 . S
C1286 C1290 1.350 . S
C1287 C1290 1.463 . S
C1287 C1292 1.350 . S
C1287 N1295 1.427 . S
C1288 H1279 0.930 . S
C1288 C1286 1.378 . S
C1288 C1289 1.367 . S
C1289 C1288 1.367 . S
C1289 C1291 1.433 . S
C1290 C1286 1.350 . S
C1290 C1287 1.463 . S
C1290 N1294 1.427 . S
C1291 H1281 0.929 . S
C1291 C1289 1.433 . S
C1291 N1294 1.384 . S
C1292 H1283 0.929 . S
C1292 C1284 1.378 . S
C1292 C1287 1.350 . S
C1293 H1280 0.929 . S
C1293 C1285 1.433 . S
C1293 N1295 1.384 . S
N1294 C1290 1.427 . S
N1294 C1291 1.384 . S
N1295 C1287 1.427 . S
N1295 C1293 1.384 . S
H1296 C1302 0.930 . S
H1297 C1306 0.930 . S
H1298 C1311 0.929 . S
H1299 C1309 0.929 . S
H1300 C1304 0.929 . S
H1301 C1310 0.929 . S
C1302 H1296 0.930 . S
C1302 C1303 1.367 . S
C1302 C1310 1.378 . S
C1303 C1302 1.367 . S
C1303 C1311 1.433 . S
C1304 H1300 0.929 . S
C1304 C1306 1.378 . S
C1304 C1308 1.350 . S
C1305 C1308 1.463 . S
C1305 C1310 1.350 . S
C1305 N1313 1.427 . S
C1306 H1297 0.930 . S
C1306 C1304 1.378 . S
C1306 C1307 1.367 . S
C1307 C1306 1.367 . S
C1307 C1309 1.433 . S
C1308 C1304 1.350 . S
C1308 C1305 1.463 . S
C1308 N1312 1.427 . S
C1309 H1299 0.929 . S
C1309 C1307 1.433 . S
C1309 N1312 1.384 . S
C1310 H1301 0.929 . S
C1310 C1302 1.378 . S
C1310 C1305 1.350 . S
C1311 H1298 0.929 . S
C1311 C1303 1.433 . S
C1311 N1313 1.384 . S
N1312 C1308 1.427 . S
N1312 C1309 1.384 . S
N1313 C1305 1.427 . S
N1313 C1311 1.384 . S
H1314 C1320 0.930 . S
H1315 C1324 0.930 . S
H1316 C1329 0.929 . S
H1317 C1327 0.929 . S
H1318 C1322 0.929 . S
H1319 C1328 0.929 . S
C1320 H1314 0.930 . S
C1320 C1321 1.367 . S
C1320 C1328 1.378 . S
C1321 C1320 1.367 . S
C1321 C1329 1.433 . S
C1322 H1318 0.929 . S
C1322 C1324 1.378 . S
C1322 C1326 1.350 . S
C1323 C1326 1.463 . S
C1323 C1328 1.350 . S
C1323 N1331 1.427 . S
C1324 H1315 0.930 . S
C1324 C1322 1.378 . S
C1324 C1325 1.367 . S
C1325 C1324 1.367 . S
C1325 C1327 1.433 . S
C1326 C1322 1.350 . S
C1326 C1323 1.463 . S
C1326 N1330 1.427 . S
C1327 H1317 0.929 . S
C1327 C1325 1.433 . S
C1327 N1330 1.384 . S
C1328 H1319 0.929 . S
C1328 C1320 1.378 . S
C1328 C1323 1.350 . S
C1329 H1316 0.929 . S
C1329 C1321 1.433 . S
C1329 N1331 1.384 . S
N1330 C1326 1.427 . S
N1330 C1327 1.384 . S
N1331 C1323 1.427 . S
N1331 C1329 1.384 . S
H1332 C1338 0.930 . S
H1333 C1342 0.930 . S
H1334 C1347 0.929 . S
H1335 C1345 0.929 . S
H1336 C1340 0.929 . S
H1337 C1346 0.929 . S
C1338 H1332 0.930 . S
C1338 C1339 1.367 . S
C1338 C1346 1.378 . S
C1339 C1338 1.367 . S
C1339 C1347 1.433 . S
C1340 H1336 0.929 . S
C1340 C1342 1.378 . S
C1340 C1344 1.350 . S
C1341 C1344 1.463 . S
C1341 C1346 1.350 . S
C1341 N1349 1.427 . S
C1342 H1333 0.930 . S
C1342 C1340 1.378 . S
C1342 C1343 1.367 . S
C1343 C1342 1.367 . S
C1343 C1345 1.433 . S
C1344 C1340 1.350 . S
C1344 C1341 1.463 . S
C1344 N1348 1.427 . S
C1345 H1335 0.929 . S
C1345 C1343 1.433 . S
C1345 N1348 1.384 . S
C1346 H1337 0.929 . S
C1346 C1338 1.378 . S
C1346 C1341 1.350 . S
C1347 H1334 0.929 . S
C1347 C1339 1.433 . S
C1347 N1349 1.384 . S
N1348 C1344 1.427 . S
N1348 C1345 1.384 . S
N1349 C1341 1.427 . S
N1349 C1347 1.384 . S
H1350 C1356 0.930 . S
H1351 C1360 0.930 . S
H1352 C1365 0.929 . S
H1353 C1363 0.929 . S
H1354 C1358 0.929 . S
H1355 C1364 0.929 . S
C1356 H1350 0.930 . S
C1356 C1357 1.367 . S
C1356 C1364 1.378 . S
C1357 C1356 1.367 . S
C1357 C1365 1.433 . S
C1358 H1354 0.929 . S
C1358 C1360 1.378 . S
C1358 C1362 1.350 . S
C1359 C1362 1.463 . S
C1359 C1364 1.350 . S
C1359 N1367 1.427 . S
C1360 H1351 0.930 . S
C1360 C1358 1.378 . S
C1360 C1361 1.367 . S
C1361 C1360 1.367 . S
C1361 C1363 1.433 . S
C1362 C1358 1.350 . S
C1362 C1359 1.463 . S
C1362 N1366 1.427 . S
C1363 H1353 0.929 . S
C1363 C1361 1.433 . S
C1363 N1366 1.384 . S
C1364 H1355 0.929 . S
C1364 C1356 1.378 . S
C1364 C1359 1.350 . S
C1365 H1352 0.929 . S
C1365 C1357 1.433 . S
C1365 N1367 1.384 . S
N1366 C1362 1.427 . S
N1366 C1363 1.384 . S
N1367 C1359 1.427 . S
N1367 C1365 1.384 . S
H1368 C1374 0.930 . S
H1369 C1378 0.930 . S
H1370 C1383 0.929 . S
H1371 C1381 0.929 . S
H1372 C1376 0.929 . S
H1373 C1382 0.929 . S
C1374 H1368 0.930 . S
C1374 C1375 1.367 . S
C1374 C1382 1.378 . S
C1375 C1374 1.367 . S
C1375 C1383 1.433 . S
C1376 H1372 0.929 . S
C1376 C1378 1.378 . S
C1376 C1380 1.350 . S
C1377 C1380 1.463 . S
C1377 C1382 1.350 . S
C1377 N1385 1.427 . S
C1378 H1369 0.930 . S
C1378 C1376 1.378 . S
C1378 C1379 1.367 . S
C1379 C1378 1.367 . S
C1379 C1381 1.433 . S
C1380 C1376 1.350 . S
C1380 C1377 1.463 . S
C1380 N1384 1.427 . S
C1381 H1371 0.929 . S
C1381 C1379 1.433 . S
C1381 N1384 1.384 . S
C1382 H1373 0.929 . S
C1382 C1374 1.378 . S
C1382 C1377 1.350 . S
C1383 H1370 0.929 . S
C1383 C1375 1.433 . S
C1383 N1385 1.384 . S
N1384 C1380 1.427 . S
N1384 C1381 1.384 . S
N1385 C1377 1.427 . S
N1385 C1383 1.384 . S
H1386 C1392 0.930 . S
H1387 C1396 0.930 . S
H1388 C1401 0.929 . S
H1389 C1399 0.929 . S
H1390 C1394 0.929 . S
H1391 C1400 0.929 . S
C1392 H1386 0.930 . S
C1392 C1393 1.367 . S
C1392 C1400 1.378 . S
C1393 C1392 1.367 . S
C1393 C1401 1.433 . S
C1394 H1390 0.929 . S
C1394 C1396 1.378 . S
C1394 C1398 1.350 . S
C1395 C1398 1.463 . S
C1395 C1400 1.350 . S
C1395 N1403 1.427 . S
C1396 H1387 0.930 . S
C1396 C1394 1.378 . S
C1396 C1397 1.367 . S
C1397 C1396 1.367 . S
C1397 C1399 1.433 . S
C1398 C1394 1.350 . S
C1398 C1395 1.463 . S
C1398 N1402 1.427 . S
C1399 H1389 0.929 . S
C1399 C1397 1.433 . S
C1399 N1402 1.384 . S
C1400 H1391 0.929 . S
C1400 C1392 1.378 . S
C1400 C1395 1.350 . S
C1401 H1388 0.929 . S
C1401 C1393 1.433 . S
C1401 N1403 1.384 . S
N1402 C1398 1.427 . S
N1402 C1399 1.384 . S
N1403 C1395 1.427 . S
N1403 C1401 1.384 . S
C601 C7 1.072 . S
C605 C252 1.121 . S
C619 C40 1.070 . S
C623 C285 1.120 . S
C637 C73 1.070 . S
C641 C219 1.120 . S
C655 C549 1.121 . S
C659 C106 1.073 . S
C673 C139 1.080 . S
C677 C582 1.123 . S
C691 C172 1.086 . S
C695 C516 1.123 . S
C709 C205 1.090 . S
C713 C450 1.125 . S
C727 C483 1.125 . S
C731 C238 1.090 . S
C745 C417 1.125 . S
C749 C271 1.091 . S
C763 C304 1.069 . S
C767 C153 1.119 1_554 S
C781 C337 1.070 . S
C785 C186 1.120 1_554 S
C799 C370 1.075 . S
C803 C120 1.120 1_554 S
C817 C403 1.069 . S
C821 C54 1.119 1_556 S
C835 C436 1.089 . S
C839 C87 1.125 1_556 S
C853 C21 1.121 1_556 S
C857 C469 1.080 . S
C871 C351 1.124 . S
C875 C502 1.085 . S
C889 C535 1.069 . S
C893 C384 1.119 . S
C907 C568 1.083 . S
C911 C318 1.122 . S
C925 N508 1.613 . S
C929 N13 1.613 . S
C943 N541 1.611 . S
C947 N46 1.611 . S
C961 N79 1.598 . S
C965 N574 1.598 . S
C979 N112 1.605 . S
C983 N211 1.605 . S
C997 N145 1.605 . S
C1001 N244 1.605 . S
C1015 N277 1.609 . S
C1019 N178 1.609 . S
C1033 N310 1.611 . S
C1037 N409 1.611 . S
C1051 N442 1.607 . S
C1055 N343 1.607 . S
C1069 N475 1.605 . S
C1073 N376 1.605 . S
C1087 N2 1.501 . S
C1091 C150 1.502 . S
C1105 C183 1.499 . S
C1109 N35 1.500 . S
C1123 N68 1.511 . S
C1127 C117 1.511 . S
C1141 C51 1.503 . S
C1145 N101 1.502 . S
C1159 N134 1.500 . S
C1163 C84 1.499 . S
C1177 C18 1.511 . S
C1181 N167 1.511 . S
C1195 N200 1.506 . S
C1199 C348 1.508 . S
C1213 C381 1.511 . S
C1217 N233 1.512 . S
C1231 C315 1.509 . S
C1235 N266 1.511 . S
C1249 N299 1.506 . S
C1253 C249 1.503 . S
C1267 C282 1.508 . S
C1271 N332 1.507 . S
C1285 N365 1.512 . S
C1289 C216 1.510 . S
C1303 C546 1.499 . S
C1307 N398 1.500 . S
C1321 C579 1.512 . S
C1325 N431 1.512 . S
C1339 C513 1.500 . S
C1343 N464 1.500 . S
C1357 C447 1.504 . S
C1361 N497 1.507 . S
C1375 C480 1.503 . S
C1379 N530 1.501 . S
C1393 N563 1.501 . S
C1397 C414 1.503 . S
