# Generated by pormake.
# Topology wme, (6)-cn, num edge types: 1
# Building blocks:
#     Node 0, Type 0, BuildingBlock: KUMBUR_clean_sbu_1, # of connection points: 6
#     Node 1, Type 0, BuildingBlock: KUMBUR_clean_sbu_1, # of connection points: 6
#     Node 2, Type 0, BuildingBlock: KUMBUR_clean_sbu_1, # of connection points: 6
#     Node 3, Type 0, BuildingBlock: KUMBUR_clean_sbu_1, # of connection points: 6
#     Node 4, Type 0, BuildingBlock: KUMBUR_clean_sbu_1, # of connection points: 6
#     Node 5, Type 0, BuildingBlock: KUMBUR_clean_sbu_1, # of connection points: 6
#     Node 6, Type 0, BuildingBlock: KUMBUR_clean_sbu_1, # of connection points: 6
#     Node 7, Type 0, BuildingBlock: KUMBUR_clean_sbu_1, # of connection points: 6
#     Node 8, Type 0, BuildingBlock: KUMBUR_clean_sbu_1, # of connection points: 6
#     Node 9, Type 0, BuildingBlock: KUMBUR_clean_sbu_1, # of connection points: 6
#     Node 10, Type 0, BuildingBlock: KUMBUR_clean_sbu_1, # of connection points: 6
#     Node 11, Type 0, BuildingBlock: KUMBUR_clean_sbu_1, # of connection points: 6
#     Edge 12, Type (0, 0), BuildingBlock: AJUNOK_clean_linker_0, # of connection points: 2
#     Edge 13, Type (0, 0), BuildingBlock: AJUNOK_clean_linker_0, # of connection points: 2
#     Edge 14, Type (0, 0), BuildingBlock: AJUNOK_clean_linker_0, # of connection points: 2
#     Edge 15, Type (0, 0), BuildingBlock: AJUNOK_clean_linker_0, # of connection points: 2
#     Edge 16, Type (0, 0), BuildingBlock: AJUNOK_clean_linker_0, # of connection points: 2
#     Edge 17, Type (0, 0), BuildingBlock: AJUNOK_clean_linker_0, # of connection points: 2
#     Edge 18, Type (0, 0), BuildingBlock: AJUNOK_clean_linker_0, # of connection points: 2
#     Edge 19, Type (0, 0), BuildingBlock: AJUNOK_clean_linker_0, # of connection points: 2
#     Edge 20, Type (0, 0), BuildingBlock: AJUNOK_clean_linker_0, # of connection points: 2
#     Edge 21, Type (0, 0), BuildingBlock: AJUNOK_clean_linker_0, # of connection points: 2
#     Edge 22, Type (0, 0), BuildingBlock: AJUNOK_clean_linker_0, # of connection points: 2
#     Edge 23, Type (0, 0), BuildingBlock: AJUNOK_clean_linker_0, # of connection points: 2
#     Edge 24, Type (0, 0), BuildingBlock: AJUNOK_clean_linker_0, # of connection points: 2
#     Edge 25, Type (0, 0), BuildingBlock: AJUNOK_clean_linker_0, # of connection points: 2
#     Edge 26, Type (0, 0), BuildingBlock: AJUNOK_clean_linker_0, # of connection points: 2
#     Edge 27, Type (0, 0), BuildingBlock: AJUNOK_clean_linker_0, # of connection points: 2
#     Edge 28, Type (0, 0), BuildingBlock: AJUNOK_clean_linker_0, # of connection points: 2
#     Edge 29, Type (0, 0), BuildingBlock: AJUNOK_clean_linker_0, # of connection points: 2
#     Edge 30, Type (0, 0), BuildingBlock: AJUNOK_clean_linker_0, # of connection points: 2
#     Edge 31, Type (0, 0), BuildingBlock: AJUNOK_clean_linker_0, # of connection points: 2
#     Edge 32, Type (0, 0), BuildingBlock: AJUNOK_clean_linker_0, # of connection points: 2
#     Edge 33, Type (0, 0), BuildingBlock: AJUNOK_clean_linker_0, # of connection points: 2
#     Edge 34, Type (0, 0), BuildingBlock: AJUNOK_clean_linker_0, # of connection points: 2
#     Edge 35, Type (0, 0), BuildingBlock: AJUNOK_clean_linker_0, # of connection points: 2
#     Edge 36, Type (0, 0), BuildingBlock: AJUNOK_clean_linker_0, # of connection points: 2
#     Edge 37, Type (0, 0), BuildingBlock: AJUNOK_clean_linker_0, # of connection points: 2
#     Edge 38, Type (0, 0), BuildingBlock: AJUNOK_clean_linker_0, # of connection points: 2
#     Edge 39, Type (0, 0), BuildingBlock: AJUNOK_clean_linker_0, # of connection points: 2
#     Edge 40, Type (0, 0), BuildingBlock: AJUNOK_clean_linker_0, # of connection points: 2
#     Edge 41, Type (0, 0), BuildingBlock: AJUNOK_clean_linker_0, # of connection points: 2
#     Edge 42, Type (0, 0), BuildingBlock: AJUNOK_clean_linker_0, # of connection points: 2
#     Edge 43, Type (0, 0), BuildingBlock: AJUNOK_clean_linker_0, # of connection points: 2
#     Edge 44, Type (0, 0), BuildingBlock: AJUNOK_clean_linker_0, # of connection points: 2
#     Edge 45, Type (0, 0), BuildingBlock: AJUNOK_clean_linker_0, # of connection points: 2
#     Edge 46, Type (0, 0), BuildingBlock: AJUNOK_clean_linker_0, # of connection points: 2
#     Edge 47, Type (0, 0), BuildingBlock: AJUNOK_clean_linker_0, # of connection points: 2
# Relax obj value: 0.062
# Max RMSD: 0.180
# Mean RMSD: 0.180
data_MOF--net-wme--node1-KUMBUR_clean_sbu_1--edge1-AJUNOK_clean_linker_0
_symmetry_space_group_name_H-M    P1
_symmetry_Int_Tables_number       1
_symmetry_cell_setting            triclinic
loop_
_symmetry_equiv_pos_as_xyz
'x, y, z'
_cell_length_a     30.900666
_cell_length_b     30.931437
_cell_length_c     38.935279
_cell_angle_alpha  89.960741
_cell_angle_beta   90.031806
_cell_angle_gamma 119.91526
loop_
_atom_site_label
_atom_site_type_symbol
_atom_site_fract_x
_atom_site_fract_y
_atom_site_fract_z
_atom_type_partial_charge
Tb0 Tb 0.28891 0.31462 0.15217 0.0
C1 C 0.11219 0.32498 0.0877 0.0
N2 N 0.15864 0.34307 0.07446 0.0
C3 C 0.12366 0.30874 0.01937 0.0
C4 C 0.06942 0.29626 0.06745 0.0
C5 C 0.16482 0.33758 0.04041 0.0
C6 C 0.07572 0.28733 0.03317 0.0
C7 C 0.05996 0.32313 0.13449 0.0
C8 C 0.10768 0.33756 0.12109 0.0
C9 C 1.01715 0.29293 0.11487 0.0
C10 C 1.02189 0.27875 0.08164 0.0
Tb11 Tb 0.22351 0.39069 0.11019 0.0
N12 N 0.15007 0.36772 0.13911 0.0
C13 C 0.05666 0.34155 0.16645 0.0
C14 C 0.14663 0.38924 0.16899 0.0
C15 C 0.10018 0.37542 0.18352 0.0
H16 H 0.20127 0.35633 0.02936 0.0
H17 H 0.09801 0.39231 0.20731 0.0
H18 H 0.24017 0.26798 0.22823 0.0
H19 H 0.48445 0.40609 0.11705 0.0
H20 H 0.1792 0.41907 0.18109 0.0
H21 H 1.02066 0.33191 0.17708 0.0
H22 H 0.39381 0.35111 0.10793 0.0
H23 H 0.12888 0.30384 0.99246 0.0
H24 H 0.98022 0.28146 0.12476 0.0
H25 H 0.98866 0.25549 0.06675 0.0
H26 H 0.26358 0.28816 0.28897 0.0
H27 H 0.0437 0.26553 0.01698 0.0
H28 H 0.51601 0.44387 0.17422 0.0
N29 N 0.30964 0.32526 0.2092 0.0
C30 C 0.35738 0.35921 0.21707 0.0
C31 C 0.29048 0.30884 0.2691 0.0
C32 C 0.37333 0.37128 0.25138 0.0
C33 C 0.27705 0.29773 0.2346 0.0
C34 C 0.33867 0.34647 0.27757 0.0
N35 N 0.37421 0.35934 0.15879 0.0
C36 C 0.40729 0.36708 0.13292 0.0
C37 C 0.44253 0.40808 0.1974 0.0
C38 C 0.39124 0.37701 0.19068 0.0
C39 C 0.47625 0.41998 0.17023 0.0
C40 C 0.4586 0.3985 0.13799 0.0
H41 H 0.34949 0.35425 0.30426 0.0
H42 H 0.43674 0.41588 0.28445 0.0
H43 H 0.4976 0.44844 0.23694 0.0
O44 O 0.26221 0.24933 0.12225 0.0
O45 O 0.33597 0.39002 0.12931 0.0
O46 O 0.29162 0.42934 0.14063 0.0
O47 O 0.30079 0.25639 0.16911 0.0
O48 O 0.29646 0.32417 0.09682 0.0
O49 O 0.26712 0.3734 0.07064 0.0
O50 O 0.19029 0.43486 0.10108 0.0
O51 O 0.19489 0.30984 0.1037 0.0
O52 O 0.20837 0.2851 0.15548 0.0
O53 O 0.26265 0.45769 0.08139 0.0
O54 O 0.24143 0.40114 0.16646 0.0
O55 O 0.23687 0.32736 0.1833 0.0
C56 C 0.33345 0.43115 0.13235 0.0
C57 C 0.23284 0.1764 0.15556 0.0
C58 C 0.18719 0.08454 0.15278 0.0
C59 C 0.15313 0.08403 0.17701 0.0
C60 C 0.19685 0.17409 0.17857 0.0
C61 C 0.15767 0.12834 0.18941 0.0
C62 C 0.22781 0.13135 0.1425 0.0
C63 C 0.28942 0.34542 0.06964 0.0
C64 C 0.27414 0.22603 0.14471 0.0
C65 C 0.4238 0.4054 0.25828 0.0
C66 C 0.45844 0.42389 0.23124 0.0
C67 C 0.17841 0.27841 0.12963 0.0
C68 C 0.24511 0.52116 0.10204 0.0
C69 C 0.22592 0.58725 0.11858 0.0
C70 C 0.27223 0.61197 0.13559 0.0
C71 C 0.29087 0.54728 0.11941 0.0
C72 C 0.21265 0.54151 0.10165 0.0
C73 C 0.30424 0.59227 0.13588 0.0
C74 C 0.23689 0.36894 0.19072 0.0
C75 C 0.22926 0.47098 0.08693 0.0
H76 H 0.12297 0.04918 0.18675 0.0
H77 H 0.19896 0.20775 0.18826 0.0
H78 H 0.13068 0.12721 0.20764 0.0
H79 H 0.25486 0.13278 0.12416 0.0
H80 H 0.2842 0.64727 0.14836 0.0
H81 H 0.31616 0.53266 0.12073 0.0
H82 H 0.17683 0.52123 0.08888 0.0
H83 H 0.3397 0.61199 0.14913 0.0
Tb84 Tb 0.99836 0.26259 0.64984 0.0
C85 C 0.81835 0.10221 0.57611 0.0
N86 N 0.84951 0.15091 0.56759 0.0
C87 C 0.86037 0.12645 0.51124 0.0
C88 C 0.80928 0.06366 0.55292 0.0
C89 C 0.86853 0.16354 0.53511 0.0
C90 C 0.83131 0.0763 0.52035 0.0
C91 C 0.76303 0.04114 0.61777 0.0
C92 C 0.79665 0.09104 0.6087 0.0
C93 C 0.75449 1.00265 0.59483 0.0
C94 C 0.77861 1.01388 0.56292 0.0
Tb95 Tb 0.85989 0.20687 0.60939 0.0
N96 N 0.80738 0.12914 0.631 0.0
C97 C 0.73836 0.03153 0.64936 0.0
C98 C 0.78213 0.11989 0.66142 0.0
C99 C 0.74739 0.07113 0.67094 0.0
H100 H 0.88967 0.20198 0.52719 0.0
H101 H 0.72657 0.06433 0.69452 0.0
H102 H 0.99211 0.24288 0.73461 0.0
H103 H 0.11964 0.43048 0.57988 0.0
H104 H 0.78627 0.14985 0.67774 0.0
H105 H 0.71106 0.99391 0.65687 0.0
H106 H 0.06912 0.33918 0.58892 0.0
H107 H 0.87623 0.13658 0.48573 0.0
H108 H 0.7293 0.96403 0.60146 0.0
H109 H 0.7729 0.98385 0.54591 0.0
H110 H 1.00492 0.29222 0.78722 0.0
H111 H 0.82516 0.04768 0.5018 0.0
H112 H 0.13008 0.48816 0.62742 0.0
N113 N 1.01486 0.30462 0.70095 0.0
C114 C 0.03886 0.35511 0.69857 0.0
C115 C 1.01384 0.3104 0.7624 0.0
C116 C 0.04922 0.38532 0.72794 0.0
C117 C 1.0054 0.28229 0.73246 0.0
C118 C 0.03489 0.36212 0.76009 0.0
N119 N 0.04847 0.34576 0.63976 0.0
C120 C 0.07265 0.36424 0.60933 0.0
C121 C 0.08599 0.42867 0.66332 0.0
C122 C 0.05708 0.37654 0.66688 0.0
C123 C 0.10749 0.44826 0.63128 0.0
C124 C 0.10169 0.41582 0.60437 0.0
H125 H 0.04209 0.38391 0.78334 0.0
H126 H 0.08334 0.46141 0.74656 0.0
H127 H 0.11556 0.49942 0.68987 0.0
O128 O 0.04383 0.24013 0.62374 0.0
O129 O 0.97351 0.31468 0.62986 0.0
O130 O 0.89009 0.27262 0.64226 0.0
O131 O 0.06055 0.2667 0.67531 0.0
O132 O 0.98511 0.24415 0.5954 0.0
O133 O 0.92327 0.25826 0.57467 0.0
O134 O 0.78246 0.17559 0.60285 0.0
O135 O 0.90351 0.1679 0.60674 0.0
O136 O 0.94476 0.18278 0.65764 0.0
O137 O 0.83177 0.24612 0.58058 0.0
O138 O 0.86476 0.2198 0.66622 0.0
O139 O 0.93601 0.21878 0.68521 0.0
C140 C 0.93131 0.31445 0.636 0.0
C141 C 0.07643 0.20194 0.66001 0.0
C142 C 0.12375 0.1572 0.65929 0.0
C143 C 0.08635 0.11992 0.67995 0.0
C144 C 0.04011 0.16412 0.68072 0.0
C145 C 0.0449 0.12328 0.69032 0.0
C146 C 0.11785 0.19797 0.64889 0.0
C147 C 0.96836 0.26258 0.57194 0.0
C148 C 0.07122 0.24557 0.65048 0.0
C149 C 0.07549 0.43752 0.72436 0.0
C150 C 0.09391 0.45917 0.69208 0.0
C151 C 0.91654 0.15138 0.63365 0.0
C152 C 0.75069 0.23006 0.60076 0.0
C153 C 0.66665 0.21 0.62048 0.0
C154 C 0.68684 0.25969 0.63127 0.0
C155 C 0.76898 0.27962 0.61098 0.0
C156 C 0.69889 0.19541 0.60498 0.0
C157 C 0.73737 0.29418 0.62625 0.0
C158 C 0.89296 0.217 0.69105 0.0
C159 C 0.78519 0.21344 0.5871 0.0
H160 H 0.08966 0.08854 0.68892 0.0
H161 H 1.0082 0.16635 0.68983 0.0
H162 H 1.01672 0.09445 0.70642 0.0
H163 H 0.14527 0.22665 0.63229 0.0
H164 H 0.66307 0.27222 0.64276 0.0
H165 H 0.80779 0.30705 0.60718 0.0
H166 H 0.68385 0.15717 0.59658 0.0
H167 H 0.75203 0.33256 0.63409 0.0
Tb168 Tb 0.74908 0.97573 0.14529 0.0
C169 C 0.6776 0.78072 0.05372 0.0
N170 N 0.66825 0.81911 0.05096 0.0
C171 C 0.66806 0.81352 0.98955 0.0
C172 C 0.68099 0.75606 0.02434 0.0
C173 C 0.66417 0.83632 0.01948 0.0
C174 C 0.67534 0.77254 0.992 0.0
C175 C 0.69368 0.72656 0.09012 0.0
C176 C 0.68285 0.76553 0.08627 0.0
C177 C 0.6963 0.70133 0.06095 0.0
C178 C 0.68883 0.71529 0.02824 0.0
Tb179 Tb 0.64948 0.8432 0.10126 0.0
N180 N 0.67814 0.78956 0.11404 0.0
C181 C 0.70087 0.71366 0.1232 0.0
C182 C 0.68319 0.77559 0.14643 0.0
C183 C 0.6958 0.73846 0.15145 0.0
H184 H 0.6552 0.86572 0.01718 0.0
H185 H 0.70034 0.72811 0.1772 0.0
H186 H 0.77113 0.957 0.22572 0.0
H187 H 0.70523 0.10818 0.08877 0.0
H188 H 0.67667 0.79174 0.16866 0.0
H189 H 0.70963 0.6842 0.12723 0.0
H190 H 0.72811 0.04239 0.08874 0.0
H191 H 0.66372 0.82647 0.96464 0.0
H192 H 0.70358 0.67064 0.06343 0.0
H193 H 0.68941 0.69434 0.00617 0.0
H194 H 0.76408 0.98571 0.28355 0.0
H195 H 0.67617 0.75378 0.96879 0.0
H196 H 0.69364 0.1406 0.14409 0.0
N197 N 0.74403 0.99926 0.19997 0.0
C198 C 0.72985 0.03415 0.20292 0.0
C199 C 0.75384 0.99927 0.2611 0.0
C200 C 0.72708 0.05312 0.23521 0.0
C201 C 0.75681 0.98224 0.2284 0.0
C202 C 0.73885 0.03486 0.26453 0.0
N203 N 0.72425 0.03371 0.14259 0.0
C204 C 0.72044 0.05421 0.11261 0.0
C205 C 0.70873 0.09118 0.17481 0.0
C206 C 0.72027 0.05253 0.1732 0.0
C207 C 0.70243 0.11079 0.14401 0.0
C208 C 0.70865 0.09239 0.11275 0.0
H209 H 0.73765 0.04895 0.28974 0.0
H210 H 0.71147 0.10546 0.26172 0.0
H211 H 0.69565 0.13899 0.20878 0.0
O212 O 0.81131 0.03047 0.11765 0.0
O213 O 0.668 0.95423 0.1509 0.0
O214 O 0.63372 0.90356 0.10449 0.0
O215 O 0.81865 1.01409 0.17018 0.0
O216 O 0.74908 0.96535 0.08956 0.0
O217 O 0.66952 0.91223 0.06965 0.0
O218 O 0.58555 0.7787 0.12076 0.0
O219 O 0.73004 0.87118 0.09408 0.0
O220 O 0.76614 0.91418 0.14394 0.0
O221 O 0.58494 0.8058 0.07055 0.0
O222 O 0.64395 0.84899 0.15841 0.0
O223 O 0.72488 0.90601 0.17216 0.0
C224 C 0.62833 0.92329 0.1325 0.0
C225 C 0.87679 0.09483 0.15058 0.0
C226 C 0.96288 0.16512 0.15309 0.0
C227 C 0.94462 0.19366 0.16911 0.0
C228 C 0.85991 0.1247 0.16585 0.0
C229 C 0.89366 0.17377 0.17506 0.0
C230 C 0.92837 0.11528 0.14393 0.0
C231 C 0.71374 0.95412 0.06682 0.0
C232 C 0.84162 0.04152 0.14368 0.0
C233 C 0.71389 0.09046 0.23712 0.0
C234 C 0.70487 0.10955 0.20697 0.0
C235 C 0.76582 0.88747 0.11731 0.0
C236 C 0.54199 0.71702 0.07726 0.0
C237 C 0.49049 0.62488 0.08065 0.0
C238 C 0.51027 0.62208 0.04871 0.0
C239 C 0.55676 0.71164 0.04413 0.0
C240 C 0.5078 0.673 0.09543 0.0
C241 C 0.54241 0.6649 0.03056 0.0
C242 C 0.67915 0.87368 0.18168 0.0
C243 C 0.56173 0.76858 0.09169 0.0
H244 H 0.9698 0.23172 0.17696 0.0
H245 H 0.82081 0.10991 0.17125 0.0
H246 H 0.88031 0.19639 0.18721 0.0
H247 H 0.94162 0.09199 0.13268 0.0
H248 H 0.49975 0.58634 0.03711 0.0
H249 H 0.57959 0.74365 0.02834 0.0
H250 H 0.49372 0.67634 0.12016 0.0
H251 H 0.55569 0.66184 0.00545 0.0
Tb252 Tb 0.79579 0.72977 0.63007 0.0
C253 C 0.93397 0.67645 0.54045 0.0
N254 N 0.88423 0.66006 0.53868 0.0
C255 C 0.8877 0.65867 0.47709 0.0
C256 C 0.9625 0.68415 0.51048 0.0
C257 C 0.86083 0.65127 0.50751 0.0
C258 C 0.93859 0.67458 0.47859 0.0
C259 C 1.00793 0.70292 0.57544 0.0
C260 C 0.9563 0.68522 0.57255 0.0
C261 C 0.03651 0.71055 0.54567 0.0
C262 C 1.01372 0.7006 0.5133 0.0
Tb263 Tb 0.84387 0.64132 0.59035 0.0
N264 N 0.92745 0.67725 0.60087 0.0
C265 C 1.02922 0.7122 0.6082 0.0
C266 C 0.94778 0.68473 0.63295 0.0
C267 C 0.99905 0.70319 0.63698 0.0
H268 H 0.82102 0.63624 0.5058 0.0
H269 H 1.01543 0.71015 0.66223 0.0
H270 H 0.75051 0.67146 0.70499 0.0
H271 H 0.716 0.79924 0.53682 0.0
H272 H 0.92488 0.67674 0.65549 0.0
H273 H 0.06877 0.72596 0.61158 0.0
H274 H 0.78408 0.79402 0.56564 0.0
H275 H 0.86887 0.65098 0.45253 0.0
H276 H 0.07621 0.72392 0.54739 0.0
H277 H 0.0361 0.70606 0.49057 0.0
H278 H 0.66908 0.62918 0.73441 0.0
H279 H 0.95896 0.67904 0.455 0.0
H280 H 0.62883 0.74638 0.5564 0.0
N281 N 0.7228 0.68905 0.66039 0.0
C282 C 0.68238 0.68664 0.64456 0.0
C283 C 0.67233 0.64525 0.70918 0.0
C284 C 0.635 0.66253 0.66034 0.0
C285 C 0.71867 0.66995 0.69273 0.0
C286 C 0.63023 0.64118 0.69282 0.0
N287 N 0.73578 0.73541 0.59945 0.0
C288 C 0.7461 0.76951 0.57385 0.0
C289 C 0.64893 0.7126 0.59758 0.0
C290 C 0.68907 0.71035 0.61306 0.0
C291 C 0.65856 0.74337 0.56891 0.0
C292 C 0.70764 0.77321 0.55774 0.0
H293 H 0.59442 0.62221 0.70573 0.0
H294 H 0.55744 0.64283 0.65525 0.0
H295 H 0.56983 0.68747 0.60062 0.0
O296 O 0.83097 0.8074 0.62262 0.0
O297 O 0.744 0.64603 0.63378 0.0
O298 O 0.764 0.60991 0.58935 0.0
O299 O 0.7953 0.77485 0.67054 0.0
O300 O 0.81336 0.73316 0.57563 0.0
O301 O 0.79142 0.65475 0.5571 0.0
O302 O 0.84967 0.58194 0.61415 0.0
O303 O 0.89127 0.72269 0.58475 0.0
O304 O 0.87605 0.75349 0.63385 0.0
O305 O 0.83139 0.57993 0.5601 0.0
O306 O 0.83235 0.63673 0.64828 0.0
O307 O 0.83991 0.71207 0.66429 0.0
C308 C 0.73515 0.6066 0.61486 0.0
C309 C 0.79746 0.84981 0.65278 0.0
C310 C 0.81071 0.93471 0.64909 0.0
C311 C 0.75961 0.91535 0.65565 0.0
C312 C 0.74645 0.83154 0.6587 0.0
C313 C 0.72772 0.86421 0.65997 0.0
C314 C 0.82947 0.90152 0.6474 0.0
C315 C 0.79037 0.69709 0.55341 0.0
C316 C 0.81801 0.81571 0.6525 0.0
C317 C 0.59422 0.66154 0.64365 0.0
C318 C 0.60121 0.68672 0.61243 0.0
C319 C 0.90637 0.75672 0.60896 0.0
C320 C 0.83821 0.50916 0.58032 0.0
C321 C 0.86495 0.44786 0.59237 0.0
C322 C 0.83305 0.41749 0.56618 0.0
C323 C 0.80713 0.4778 0.55412 0.0
C324 C 0.86709 0.49379 0.59984 0.0
C325 C 0.80432 0.43227 0.54736 0.0
C326 C 0.83661 0.66941 0.67238 0.0
C327 C 0.84151 0.5585 0.585 0.0
H328 H 0.74438 0.93995 0.65783 0.0
H329 H 0.72114 0.79215 0.66276 0.0
H330 H 0.68841 0.84993 0.66487 0.0
H331 H 0.86896 0.91599 0.64293 0.0
H332 H 0.83041 0.38201 0.56025 0.0
H333 H 0.78465 0.48844 0.5388 0.0
H334 H 0.89168 0.51765 0.6199 0.0
H335 H 0.77996 0.40842 0.52723 0.0
Tb336 Tb 0.07175 0.76932 0.12959 0.0
C337 C 0.27315 0.91769 0.04769 0.0
N338 N 0.23885 0.86839 0.0445 0.0
C339 C 0.24902 0.87485 0.98316 0.0
C340 C 0.2965 0.94756 0.01861 0.0
C341 C 0.22718 0.84663 0.01268 0.0
C342 C 0.28417 0.92532 0.98617 0.0
C343 C 0.32889 0.98601 0.08481 0.0
C344 C 0.28952 0.93667 0.08029 0.0
C345 C 0.3499 1.01685 0.05599 0.0
C346 C 0.33387 0.99759 0.02294 0.0
Tb347 Tb 0.2144 0.82417 0.09491 0.0
N348 N 0.26928 0.90536 0.10747 0.0
C349 C 0.3479 1.00185 0.11792 0.0
C350 C 0.28919 0.91985 0.13956 0.0
C351 C 0.3286 0.96826 0.14528 0.0
H352 H 0.20344 0.8069 0.00968 0.0
H353 H 0.34437 0.97935 0.1707 0.0
H354 H 0.05979 0.79354 0.21116 0.0
H355 H 0.99579 0.59725 0.05777 0.0
H356 H 0.2756 0.8939 0.1607 0.0
H357 H 0.37858 0.03925 0.12243 0.0
H358 H 0.04487 0.68821 0.06584 0.0
H359 H 0.24022 0.85717 0.95818 0.0
H360 H 0.37996 0.05498 0.05891 0.0
H361 H 0.35194 0.02115 1.00087 0.0
H362 H 1.01891 0.74549 0.26341 0.0
H363 H 0.30313 0.94622 0.9634 0.0
H364 H 0.95189 0.54267 0.10732 0.0
N365 N 0.03629 0.72958 0.1798 0.0
C366 C 1.00876 0.67909 0.17775 0.0
C367 C 1.01628 0.72627 0.23961 0.0
C368 C 0.98423 0.65001 0.20688 0.0
C369 C 0.04002 0.75346 0.21007 0.0
C370 C 0.98853 0.67428 0.23811 0.0
N371 N 1.02966 0.68569 0.11885 0.0
C372 C 1.02583 0.66508 0.0873 0.0
C373 C 0.97643 0.60413 0.14307 0.0
C374 C 1.00488 0.65643 0.14625 0.0
C375 C 0.97334 0.58272 0.11085 0.0
C376 C 0.99806 0.61339 0.08282 0.0
H377 H 0.97012 0.6533 0.26105 0.0
H378 H 0.93689 0.57489 0.22594 0.0
H379 H 0.93008 0.53473 0.1701 0.0
O380 O 1.01677 0.76559 0.09599 0.0
O381 O 0.10689 0.72095 0.13543 0.0
O382 O 0.15772 0.74686 0.08902 0.0
O383 O 1.01773 0.78568 0.1492 0.0
O384 O 0.09906 0.80326 0.07923 0.0
O385 O 0.15145 0.77976 0.05763 0.0
O386 O 0.27072 0.81691 0.1216 0.0
O387 O 0.19164 0.88136 0.10181 0.0
O388 O 0.11957 0.85045 0.13615 0.0
O389 O 0.26325 0.80811 0.06737 0.0
O390 O 0.20047 0.81015 0.15175 0.0
O391 O 0.1285 0.81238 0.16739 0.0
C392 C 0.13846 0.71654 0.11478 0.0
C393 C 0.9419 0.75939 0.11827 0.0
C394 C 0.87137 0.77476 0.11586 0.0
C395 C 0.83938 0.72372 0.10952 0.0
C396 C 0.90918 0.70852 0.11243 0.0
C397 C 0.85812 0.69085 0.1082 0.0
C398 C 0.92274 0.79234 0.12044 0.0
C399 C 0.11064 0.78333 0.05411 0.0
C400 C 0.9964 0.77994 0.11944 0.0
C401 C 0.95599 0.59786 0.20385 0.0
C402 C 0.95208 0.57499 0.17203 0.0
C403 C 0.15845 0.88696 0.11997 0.0
C404 C 0.34653 0.85371 0.08849 0.0
C405 C 0.43528 0.89762 0.10614 0.0
C406 C 0.44617 0.93015 0.07814 0.0
C407 C 0.36036 0.88542 0.05969 0.0
C408 C 0.38485 0.8593 0.11147 0.0
C409 C 0.40914 0.92387 0.05513 0.0
C410 C 0.17328 0.81906 0.17424 0.0
C411 C 0.29241 0.81532 0.09338 0.0
H412 H 0.7998 0.70927 0.10561 0.0
H413 H 0.92321 0.68274 0.11055 0.0
H414 H 0.83303 0.65161 0.10335 0.0
H415 H 0.94798 0.83183 0.12451 0.0
H416 H 0.48419 0.95906 0.07286 0.0
H417 H 0.33358 0.88045 0.04011 0.0
H418 H 0.37575 0.83386 0.13291 0.0
H419 H 0.41856 0.94819 0.03303 0.0
Tb420 Tb 0.33417 0.05596 0.65057 0.0
C421 C 0.3746 0.26208 0.58608 0.0
N422 N 0.37073 0.21831 0.57569 0.0
C423 C 0.3225 0.21614 0.52679 0.0
C424 C 0.35367 0.28537 0.5665 0.0
C425 C 0.34582 0.19561 0.54612 0.0
C426 C 0.32637 0.26107 0.53702 0.0
C427 C 0.40508 0.32947 0.62764 0.0
C428 C 0.39912 0.28325 0.61676 0.0
C429 C 0.38657 0.354 0.60726 0.0
C430 C 0.36091 0.332 0.57689 0.0
Tb431 Tb 0.41607 0.19319 0.60758 0.0
N432 N 0.41682 0.25857 0.63592 0.0
C433 C 0.42942 0.34978 0.65869 0.0
C434 C 0.44314 0.28005 0.66542 0.0
C435 C 0.44849 0.3249 0.67765 0.0
H436 H 0.34256 0.16108 0.53764 0.0
H437 H 0.46902 0.3412 0.7011 0.0
H438 H 0.29856 0.06243 0.72886 0.0
H439 H 0.41857 0.95454 0.59583 0.0
H440 H 0.46322 0.26508 0.67882 0.0
H441 H 0.43441 0.38502 0.66794 0.0
H442 H 0.38213 1.00913 0.59404 0.0
H443 H 0.30175 0.19741 0.50388 0.0
H444 H 0.3915 0.38986 0.61495 0.0
H445 H 0.34762 0.35202 0.56158 0.0
H446 H 0.3014 0.0302 0.78639 0.0
H447 H 0.30753 0.27601 0.52206 0.0
H448 H 0.42724 0.92041 0.65124 0.0
N449 N 0.33555 0.02869 0.70446 0.0
C450 C 0.35619 0.9992 0.70785 0.0
C451 C 0.31713 0.0213 0.76459 0.0
C452 C 0.35845 0.97964 0.74006 0.0
C453 C 0.31594 0.03991 0.73212 0.0
C454 C 0.33861 0.99113 0.76866 0.0
N455 N 0.36965 1.00637 0.64807 0.0
C456 C 0.38494 0.99433 0.61843 0.0
C457 C 0.39446 0.95606 0.68085 0.0
C458 C 0.37363 0.98743 0.67866 0.0
C459 C 0.41096 0.94436 0.65067 0.0
C460 C 0.40604 0.96349 0.61933 0.0
H461 H 0.33931 0.9766 0.79384 0.0
H462 H 0.38192 0.93349 0.76706 0.0
H463 H 0.41369 0.91298 0.7152 0.0
O464 O 0.26872 0.02466 0.62066 0.0
O465 O 0.41759 0.08915 0.64983 0.0
O466 O 0.43791 0.13715 0.60156 0.0
O467 O 0.27002 0.99169 0.66907 0.0
O468 O 0.3374 0.05386 0.59481 0.0
O469 O 0.38825 0.13089 0.56811 0.0
O470 O 0.49085 0.25215 0.6153 0.0
O471 O 0.33558 0.16677 0.61401 0.0
O472 O 0.3072 0.10896 0.65828 0.0
O473 O 0.45996 0.23326 0.56506 0.0
O474 O 0.42912 0.18203 0.66289 0.0
O475 O 0.35301 0.12024 0.68312 0.0
C476 C 0.45074 0.11776 0.62644 0.0
C477 C 0.20934 0.93902 0.62812 0.0
C478 C 0.12455 0.87211 0.6136 0.0
C479 C 0.14577 0.84641 0.59741 0.0
C480 C 0.22917 0.91213 0.61219 0.0
C481 C 0.19748 0.86614 0.59689 0.0
C482 C 0.15687 0.9187 0.62908 0.0
C483 C 0.35667 0.08126 0.56715 0.0
C484 C 0.24293 0.98901 0.64263 0.0
C485 C 0.37967 0.9488 0.74252 0.0
C486 C 0.39771 0.93709 0.71298 0.0
C487 C 0.3008 0.1374 0.63595 0.0
C488 C 0.51024 0.32091 0.57693 0.0
C489 C 0.56005 0.41254 0.58821 0.0
C490 C 0.53324 0.41951 0.56158 0.0
C491 C 0.48567 0.331 0.55034 0.0
C492 C 0.54768 0.36227 0.59604 0.0
C493 C 0.49656 0.37941 0.5432 0.0
C494 C 0.3963 0.16083 0.68811 0.0
C495 C 0.49587 0.26718 0.58366 0.0
H496 H 0.12222 0.81076 0.58518 0.0
H497 H 0.26916 0.92694 0.61135 0.0
H498 H 0.21308 0.84575 0.58437 0.0
H499 H 0.14138 0.93958 0.64112 0.0
H500 H 0.54163 0.45653 0.55389 0.0
H501 H 0.45739 0.30128 0.53484 0.0
H502 H 0.56668 0.35516 0.61673 0.0
H503 H 0.47686 0.38603 0.52271 0.0
Tb504 Tb 0.74514 0.77135 0.36542 0.0
C505 C 0.68884 0.91068 0.45803 0.0
N506 N 0.67245 0.86092 0.45892 0.0
C507 C 0.6641 0.86096 0.52025 0.0
C508 C 0.69343 0.93756 0.48834 0.0
C509 C 0.6597 0.83575 0.48951 0.0
C510 C 0.68049 0.91189 0.51963 0.0
C511 C 0.71366 0.98534 0.42414 0.0
C512 C 0.69802 0.93414 0.42639 0.0
C513 C 0.71963 1.0126 0.45432 0.0
C514 C 0.7089 0.98862 0.48629 0.0
Tb515 Tb 0.65614 0.82289 0.40645 0.0
N516 N 0.69065 0.90637 0.3977 0.0
C517 C 0.72153 1.00722 0.39158 0.0
C518 C 0.6958 0.92688 0.36583 0.0
C519 C 0.7123 0.97775 0.36232 0.0
H520 H 0.64337 0.79575 0.49043 0.0
H521 H 0.71717 0.99401 0.33709 0.0
H522 H 0.7864 0.80676 0.28585 0.0
H523 H 0.66821 0.59191 0.42747 0.0
H524 H 0.6874 0.90411 0.34313 0.0
H525 H 0.73378 0.04651 0.38873 0.0
H526 H 0.70504 0.68329 0.42479 0.0
H527 H 0.65321 0.84074 0.54431 0.0
H528 H 0.73141 0.05195 0.45316 0.0
H529 H 0.71206 1.00979 0.50922 0.0
H530 H 0.7754 0.76648 0.22913 0.0
H531 H 0.68183 0.93071 0.54336 0.0
H532 H 0.65211 0.54366 0.3736 0.0
N533 N 0.7428 0.73863 0.31244 0.0
C534 C 0.71961 0.68814 0.31082 0.0
C535 C 0.75905 0.744 0.25186 0.0
C536 C 0.71443 0.66337 0.2794 0.0
C537 C 0.76409 0.76678 0.28378 0.0
C538 C 0.73362 0.69201 0.24957 0.0
N539 N 0.70858 0.68679 0.37073 0.0
C540 C 0.69781 0.66268 0.40151 0.0
C541 C 0.68153 0.60905 0.341 0.0
C542 C 0.70289 0.66132 0.34107 0.0
C543 C 0.66833 0.5838 0.37248 0.0
C544 C 0.67729 0.61088 0.40293 0.0
H545 H 0.73024 0.67444 0.22488 0.0
H546 H 0.68678 0.59131 0.25503 0.0
H547 H 0.65841 0.54376 0.30905 0.0
O548 O 0.79839 0.7697 0.39846 0.0
O549 O 0.6622 0.7181 0.36301 0.0
O550 O 0.63125 0.74405 0.40664 0.0
O551 O 0.81629 0.79049 0.34578 0.0
O552 O 0.74782 0.79884 0.41726 0.0
O553 O 0.67334 0.77434 0.44126 0.0
O554 O 0.59872 0.83177 0.38269 0.0
O555 O 0.73808 0.8757 0.40294 0.0
O556 O 0.77033 0.85115 0.35751 0.0
O557 O 0.58906 0.80122 0.43297 0.0
O558 O 0.6506 0.80907 0.34947 0.0
O559 O 0.72434 0.81273 0.33024 0.0
C560 C 0.62384 0.71561 0.38005 0.0
C561 C 0.8809 0.83388 0.38623 0.0
C562 C 0.97192 0.88124 0.39484 0.0
C563 C 0.96749 0.92186 0.40649 0.0
C564 C 0.87816 0.87498 0.39871 0.0
C565 C 0.92099 0.91862 0.40848 0.0
C566 C 0.92825 0.8372 0.38413 0.0
C567 C 0.71632 0.77429 0.44165 0.0
C568 C 0.83403 0.78838 0.37562 0.0
C569 C 0.69133 0.61106 0.27893 0.0
C570 C 0.67515 0.58398 0.30969 0.0
C571 C 0.77048 0.88591 0.37757 0.0
C572 C 0.55099 0.85117 0.42283 0.0
C573 C 0.49644 0.88899 0.41727 0.0
C574 C 0.50801 0.90465 0.45173 0.0
C575 C 0.56113 0.8685 0.45687 0.0
C576 C 0.51869 0.86199 0.40284 0.0
C577 C 0.54029 0.89516 0.47092 0.0
C578 C 0.68256 0.81385 0.32476 0.0
C579 C 0.571 0.81853 0.41008 0.0
H580 H 1.00025 0.95647 0.41394 0.0
H581 H 0.84264 0.87307 0.40156 0.0
H582 H 0.91806 0.95001 0.41784 0.0
H583 H 0.93104 0.80571 0.37474 0.0
H584 H 0.491 0.92341 0.46466 0.0
H585 H 0.58422 0.86033 0.47335 0.0
H586 H 0.5111 0.84925 0.37652 0.0
H587 H 0.54821 0.90749 0.49736 0.0
Tb588 Tb 0.99374 0.73725 0.85289 0.0
C589 C 0.81124 0.69928 0.93818 0.0
N590 N 0.84372 0.68285 0.94501 0.0
C591 C 0.84788 0.70664 1.00407 0.0
C592 C 0.79659 0.72104 0.96405 0.0
C593 C 0.86163 0.68551 0.97752 0.0
C594 C 0.81531 0.7246 0.99728 0.0
C595 C 0.75928 0.71113 0.89695 0.0
C596 C 0.79402 0.69562 0.90476 0.0
C597 C 0.74474 0.73306 0.92267 0.0
C598 C 0.76466 0.73941 0.95578 0.0
Tb599 Tb 0.86251 0.64858 0.89981 0.0
N600 N 0.81047 0.67592 0.88021 0.0
C601 C 0.73985 0.70362 0.86368 0.0
C602 C 0.78823 0.66463 0.84865 0.0
C603 C 0.75377 0.67948 0.8396 0.0
H604 H 0.88588 0.67069 0.98327 0.0
H605 H 0.73713 0.67126 0.81425 0.0
H606 H 0.96831 0.74499 0.77085 0.0
H607 H 0.12852 0.69924 0.91275 0.0
H608 H 0.79496 0.64239 0.83063 0.0
H609 H 0.71287 0.71475 0.85667 0.0
H610 H 0.06761 0.72866 0.91048 0.0
H611 H 0.86221 0.70884 0.02977 0.0
H612 H 0.71844 0.74562 0.91718 0.0
H613 H 0.75582 0.7592 0.97475 0.0
H614 H 0.98583 0.72018 0.71498 0.0
H615 H 0.80435 0.74058 0.01785 0.0
H616 H 0.15028 0.67048 0.85954 0.0
N617 N 1.0119 0.72146 0.79916 0.0
C618 C 0.04436 0.70403 0.79759 0.0
C619 C 1.00267 0.71538 0.73793 0.0
C620 C 0.05703 0.69102 0.76604 0.0
C621 C 0.99206 0.72864 0.76981 0.0
C622 C 0.03513 0.69622 0.73602 0.0
N623 N 0.05194 0.71287 0.85755 0.0
C624 C 0.0753 0.7144 0.88758 0.0
C625 C 0.10083 0.68389 0.82751 0.0
C626 C 0.06562 0.70015 0.82781 0.0
C627 C 0.12292 0.68262 0.85862 0.0
C628 C 0.11057 0.69862 0.88872 0.0
H629 H 0.04359 0.68613 0.71133 0.0
H630 H 0.10138 0.66326 0.74153 0.0
H631 H 0.14004 0.65734 0.7954 0.0
O632 O 0.04276 0.80471 0.87815 0.0
O633 O 0.96967 0.65572 0.85459 0.0
O634 O 0.91527 0.62227 0.9007 0.0
O635 O 0.037 0.80105 0.82302 0.0
O636 O 0.99376 0.74055 0.90937 0.0
O637 O 0.92942 0.66639 0.93249 0.0
O638 O 0.79942 0.58112 0.88377 0.0
O639 O 0.89949 0.73053 0.90576 0.0
O640 O 0.9344 0.75623 0.8533 0.0
O641 O 0.81868 0.5941 0.93678 0.0
O642 O 0.86773 0.63645 0.84316 0.0
O643 O 0.92411 0.71524 0.82617 0.0
C644 C 0.9409 0.61829 0.87545 0.0
C645 C 0.11144 0.86652 0.84625 0.0
C646 C 0.17725 0.95409 0.84638 0.0
C647 C 0.21026 0.93972 0.83273 0.0
C648 C 0.14528 0.85294 0.83326 0.0
C649 C 0.19457 0.88953 0.82663 0.0
C650 C 0.12776 0.91707 0.85344 0.0
C651 C 0.97394 0.70799 0.93459 0.0
C652 C 0.05812 0.82952 0.84946 0.0
C653 C 0.09125 0.67362 0.76553 0.0
C654 C 0.11323 0.67019 0.7962 0.0
C655 C 0.9168 0.76456 0.88155 0.0
C656 C 0.73154 0.55161 0.92294 0.0
C657 C 0.64079 0.50013 0.91282 0.0
C658 C 0.63305 0.53035 0.93603 0.0
C659 C 0.7216 0.57891 0.94744 0.0
C660 C 0.69052 0.51132 0.90601 0.0
C661 C 0.67305 0.56906 0.95332 0.0
C662 C 0.8908 0.6693 0.81828 0.0
C663 C 0.78439 0.56586 0.91486 0.0
H664 H 0.24831 0.96741 0.82683 0.0
H665 H 0.1333 0.81431 0.82752 0.0
H666 H 0.22053 0.87907 0.81623 0.0
H667 H 0.10163 0.92775 0.86332 0.0
H668 H 0.59558 0.52261 0.94194 0.0
H669 H 0.75124 0.60787 0.96239 0.0
H670 H 0.69718 0.48875 0.88784 0.0
H671 H 0.66632 0.59106 0.97192 0.0
Tb672 Tb 0.28029 0.98795 0.35601 0.0
C673 C 0.11301 0.80999 0.42501 0.0
N674 N 0.1605 0.833 0.43719 0.0
C675 C 0.13087 0.83489 0.49375 0.0
C676 C 0.07269 0.80114 0.44643 0.0
C677 C 0.16974 0.84336 0.47136 0.0
C678 C 0.08226 0.81461 0.48108 0.0
C679 C 0.05621 0.77086 0.37742 0.0
C680 C 0.10516 0.7958 0.39081 0.0
C681 C 1.01606 0.76392 0.39822 0.0
C682 C 1.02439 0.77944 0.43258 0.0
Tb683 Tb 0.22159 0.84825 0.39831 0.0
N684 N 0.14522 0.80449 0.3712 0.0
C685 C 0.04899 0.75272 0.3438 0.0
C686 C 0.1373 0.7816 0.33988 0.0
C687 C 0.08958 0.75693 0.32532 0.0
H688 H 0.20706 0.85838 0.48136 0.0
H689 H 0.08407 0.74017 0.30015 0.0
H690 H 0.21398 0.98717 0.28987 0.0
H691 H 0.48162 0.09432 0.37033 0.0
H692 H 0.16704 0.78053 0.32618 0.0
H693 H 1.01201 0.73333 0.33253 0.0
H694 H 0.39428 0.0538 0.39007 0.0
H695 H 0.13846 0.84422 0.52067 0.0
H696 H 0.97836 0.74591 0.38814 0.0
H697 H 0.99314 0.77386 0.44835 0.0
H698 H 0.22363 0.99808 0.22675 0.0
H699 H 0.05228 0.80865 0.49832 0.0
H700 H 0.5002 0.09582 0.30836 0.0
N701 N 0.28779 1.00153 0.298 0.0
C702 C 0.33347 1.01849 0.28402 0.0
C703 C 0.2547 1.00314 0.24249 0.0
C704 C 0.34144 0.02646 0.24836 0.0
C705 C 0.24916 0.9965 0.27812 0.0
C706 C 0.30085 1.01721 0.22742 0.0
N707 N 0.36327 0.03057 0.34023 0.0
C708 C 0.4018 0.05456 0.36304 0.0
C709 C 0.4223 0.05704 0.29345 0.0
C710 C 0.37301 0.03369 0.30613 0.0
C711 C 0.46175 0.07766 0.31698 0.0
C712 C 0.45142 0.07719 0.35193 0.0
H713 H 0.30531 0.02337 0.19995 0.0
H714 H 0.39708 0.05252 0.20791 0.0
H715 H 0.46804 0.07882 0.2475 0.0
O716 O 0.25479 0.02228 0.39119 0.0
O717 O 0.33233 0.96167 0.37398 0.0
O718 O 0.28891 0.87653 0.36703 0.0
O719 O 0.28598 0.05733 0.34342 0.0
O720 O 0.2965 0.98761 0.41032 0.0
O721 O 0.26848 0.90971 0.43687 0.0
O722 O 0.18745 0.76997 0.4031 0.0
O723 O 0.19532 0.90148 0.40908 0.0
O724 O 0.20037 0.93398 0.35635 0.0
O725 O 0.25666 0.81692 0.4282 0.0
O726 O 0.23775 0.85543 0.34153 0.0
O727 O 0.22739 0.9217 0.32706 0.0
C728 C 0.33092 0.91815 0.37219 0.0
C729 C 0.21819 0.06538 0.36516 0.0
C730 C 0.1749 0.11393 0.37213 0.0
C731 C 0.13318 0.07531 0.35533 0.0
C732 C 0.17585 0.02823 0.34825 0.0
C733 C 0.13368 0.03294 0.34371 0.0
C734 C 0.21737 0.10811 0.37747 0.0
C735 C 0.29138 0.96004 0.43753 0.0
C736 C 0.26208 0.05829 0.37061 0.0
C737 C 0.39006 0.0464 0.23523 0.0
C738 C 0.4305 0.06152 0.25779 0.0
C739 C 0.17593 0.91644 0.3851 0.0
C740 C 0.23938 0.73419 0.41081 0.0
C741 C 0.22017 0.64844 0.39489 0.0
C742 C 0.27177 0.66602 0.3939 0.0
C743 C 0.29039 0.74929 0.41007 0.0
C744 C 0.20408 0.683 0.40367 0.0
C745 C 0.30624 0.71552 0.40176 0.0
C746 C 0.23132 0.88288 0.31796 0.0
C747 C 0.22315 0.77089 0.42095 0.0
H748 H 0.10033 0.07833 0.35025 0.0
H749 H 0.17513 0.9953 0.3385 0.0
H750 H 0.10131 1.00376 0.33067 0.0
H751 H 0.24954 0.13639 0.3912 0.0
H752 H 0.28563 0.64088 0.38795 0.0
H753 H 0.31835 0.78734 0.41611 0.0
H754 H 0.16449 0.67018 0.40498 0.0
H755 H 0.34574 0.72778 0.40154 0.0
Tb756 Tb 0.32676 0.2796 0.86534 0.0
C757 C 0.32387 0.10422 0.93732 0.0
N758 N 0.34163 0.1523 0.94721 0.0
C759 C 0.29913 0.12442 1.00122 0.0
C760 C 0.29172 0.06424 0.95876 0.0
C761 C 0.33064 0.16288 0.97899 0.0
C762 C 0.27928 0.07486 0.99098 0.0
C763 C 0.31971 0.04579 0.89419 0.0
C764 C 0.33652 0.09518 0.90496 0.0
C765 C 0.28709 1.00584 0.91522 0.0
C766 C 0.2724 1.01512 0.94714 0.0
Tb767 Tb 0.39422 0.21115 0.9091 0.0
N768 N 0.36566 0.13468 0.88428 0.0
C769 C 0.33676 0.03806 0.86284 0.0
C770 C 0.38356 0.12713 0.85414 0.0
C771 C 0.36939 0.07899 0.84301 0.0
H772 H 0.34657 0.20073 0.98763 0.0
H773 H 0.38487 0.0737 0.81954 0.0
H774 H 0.28044 0.24415 0.78798 0.0
H775 H 0.4282 0.46242 0.925 0.0
H776 H 0.4112 0.15777 0.83942 0.0
H777 H 0.32634 1.00082 0.85431 0.0
H778 H 0.38691 0.37093 0.9239 0.0
H779 H 0.29039 0.13305 0.02632 0.0
H780 H 0.27269 0.96764 0.90692 0.0
H781 H 0.2461 0.98408 0.96271 0.0
H782 H 0.286 0.28378 0.73209 0.0
H783 H 0.25479 0.04513 0.00822 0.0
H784 H 0.43889 0.50913 0.87112 0.0
N785 N 0.32919 0.31234 0.8129 0.0
C786 C 0.35531 0.36285 0.81083 0.0
C787 C 0.30678 0.30653 0.75362 0.0
C788 C 0.35907 0.38735 0.77951 0.0
C789 C 0.30414 0.28398 0.78517 0.0
C790 C 0.33502 0.35841 0.75053 0.0
N791 N 0.37067 0.36481 0.87051 0.0
C792 C 0.38888 0.39036 0.90061 0.0
C793 C 0.4009 0.44255 0.83987 0.0
C794 C 0.37592 0.38999 0.84067 0.0
C795 C 0.41955 0.46873 0.87065 0.0
C796 C 0.41335 0.44249 0.90114 0.0
H797 H 0.33667 0.37575 0.72601 0.0
H798 H 0.38873 0.45927 0.75457 0.0
H799 H 0.42533 0.50761 0.80739 0.0
O800 O 0.26194 0.25334 0.89586 0.0
O801 O 0.41044 0.32522 0.86877 0.0
O802 O 0.43584 0.29166 0.91216 0.0
O803 O 0.26762 0.29014 0.84829 0.0
O804 O 0.31858 0.26331 0.92018 0.0
O805 O 0.3868 0.26511 0.94456 0.0
O806 O 0.45984 0.20638 0.8984 0.0
O807 O 0.31199 0.17659 0.90454 0.0
O808 O 0.29707 0.20086 0.8528 0.0
O809 O 0.4335 0.20273 0.95041 0.0
O810 O 0.41231 0.23248 0.85313 0.0
O811 O 0.34483 0.23627 0.82968 0.0
C812 C 0.44575 0.3253 0.88838 0.0
C813 C 0.18767 0.2238 0.86334 0.0
C814 C 0.09578 0.18247 0.86434 0.0
C815 C 0.0941 0.14378 0.84428 0.0
C816 C 0.18402 0.18547 0.84213 0.0
C817 C 0.13773 0.14549 0.83319 0.0
C818 C 0.14319 0.22236 0.87443 0.0
C819 C 0.35135 0.27791 0.94489 0.0
C820 C 0.23805 0.26476 0.87332 0.0
C821 C 0.38522 0.43971 0.77842 0.0
C822 C 0.40597 0.46723 0.80853 0.0
C823 C 0.2868 0.16569 0.87559 0.0
C824 C 0.50736 0.19313 0.94481 0.0
C825 C 0.57158 0.16764 0.94059 0.0
C826 C 0.57857 0.17401 0.97622 0.0
C827 C 0.51623 0.19928 0.98037 0.0
C828 C 0.53594 0.17774 0.92465 0.0
C829 C 0.55145 0.18993 0.99579 0.0
C830 C 0.38544 0.23244 0.82622 0.0
C831 C 0.46568 0.19955 0.93063 0.0
H832 H 0.05869 0.11214 0.83672 0.0
H833 H 0.21698 0.18644 0.83214 0.0
H834 H 0.13565 0.11587 0.81722 0.0
H835 H 0.14555 0.25253 0.88994 0.0
H836 H 0.60567 0.16703 0.98898 0.0
H837 H 0.49544 0.21094 0.99658 0.0
H838 H 0.52982 0.17264 0.89721 0.0
H839 H 0.55756 0.19479 0.02323 0.0
Tb840 Tb 0.07235 0.3141 0.37214 0.0
C841 C 0.27202 0.3723 0.45213 0.0
N842 N 0.23095 0.37711 0.45716 0.0
C843 C 0.22725 0.35173 0.51599 0.0
C844 C 0.29246 0.35752 0.479 0.0
C845 C 0.21034 0.36954 0.48934 0.0
C846 C 0.26813 0.34531 0.51075 0.0
C847 C 0.34087 0.38543 0.41512 0.0
C848 C 0.29574 0.38541 0.42052 0.0
C849 C 0.36148 0.37119 0.44188 0.0
C850 C 0.33743 0.35742 0.47374 0.0
Tb851 Tb 0.2106 0.41057 0.41128 0.0
N852 N 0.27516 0.39953 0.39527 0.0
C853 C 0.36474 0.40126 0.38329 0.0
C854 C 0.29846 0.41538 0.36421 0.0
C855 C 0.34346 0.41646 0.35778 0.0
H856 H 0.18229 0.37885 0.49595 0.0
H857 H 0.36217 0.42993 0.33337 0.0
H858 H 0.08117 0.28634 0.29101 0.0
H859 H 0.96597 0.38833 0.43313 0.0
H860 H 0.28362 0.42925 0.34478 0.0
H861 H 0.39977 0.40238 0.37829 0.0
H862 H 1.02059 0.3518 0.43173 0.0
H863 H 0.20981 0.34469 0.54104 0.0
H864 H 0.39644 0.37155 0.43841 0.0
H865 H 0.35511 0.34862 0.49439 0.0
H866 H 0.04797 0.29276 0.23497 0.0
H867 H 0.28103 0.3323 0.53183 0.0
H868 H 0.93321 0.40248 0.37884 0.0
N869 N 0.04853 0.32236 0.31841 0.0
C870 C 1.01714 0.34121 0.31698 0.0
C871 C 0.03981 0.30745 0.25772 0.0
C872 C 0.99713 0.34546 0.28547 0.0
C873 C 0.05928 0.3046 0.28949 0.0
C874 C 1.00886 0.32828 0.25569 0.0
N875 N 1.02163 0.34772 0.37748 0.0
C876 C 1.00782 0.35879 0.408 0.0
C877 C 0.97087 0.37413 0.34691 0.0
C878 C 1.00329 0.35437 0.34741 0.0
C879 C 0.95788 0.38703 0.37813 0.0
C880 C 0.97633 0.37915 0.40881 0.0
H881 H 0.99301 0.3298 0.23127 0.0
H882 H 0.94942 0.36903 0.26077 0.0
H883 H 0.92714 0.39498 0.31452 0.0
O884 O 1.00059 0.25572 0.38533 0.0
O885 O 0.10354 0.39707 0.3649 0.0
O886 O 0.1486 0.42435 0.41405 0.0
O887 O 0.04634 0.24311 0.34976 0.0
O888 O 0.07345 0.31392 0.42771 0.0
O889 O 0.14526 0.38508 0.44804 0.0
O890 O 0.26601 0.48161 0.39204 0.0
O891 O 0.19968 0.33883 0.39314 0.0
O892 O 0.11673 0.29071 0.4041 0.0
O893 O 0.25189 0.4692 0.44563 0.0
O894 O 0.19721 0.41236 0.35479 0.0
O895 O 0.13735 0.33086 0.34125 0.0
C896 C 0.12932 0.43333 0.38727 0.0
C897 C 0.95865 0.18511 0.34858 0.0
C898 C 0.89213 0.09774 0.34246 0.0
C899 C 0.87295 0.11203 0.31468 0.0
C900 C 0.93847 0.1982 0.32092 0.0
C901 C 0.89587 0.1618 0.3041 0.0
C902 C 0.93497 0.13478 0.35956 0.0
C903 C 0.09991 0.34478 0.45233 0.0
C904 C 1.00417 0.22295 0.36643 0.0
C905 C 0.96495 0.36528 0.28481 0.0
C906 C 0.95213 0.37991 0.31543 0.0
C907 C 0.16004 0.29462 0.3963 0.0
C908 C 0.33761 0.5135 0.42977 0.0
C909 C 0.42783 0.55652 0.4152 0.0
C910 C 0.43618 0.53698 0.44554 0.0
C911 C 0.34889 0.4964 0.46021 0.0
C912 C 0.37774 0.54408 0.40718 0.0
C913 C 0.39726 0.50734 0.4676 0.0
C914 C 0.17571 0.37441 0.33282 0.0
C915 C 0.28377 0.49772 0.42259 0.0
H916 H 0.83991 0.08459 0.30122 0.0
H917 H 0.95547 0.23642 0.31232 0.0
H918 H 0.88055 0.1722 0.28272 0.0
H919 H 0.95033 0.12434 0.38095 0.0
H920 H 0.47352 0.54606 0.45308 0.0
H921 H 0.32015 0.47378 0.4786 0.0
H922 H 0.36999 0.55781 0.38374 0.0
H923 H 0.40476 0.49324 0.49098 0.0
Tb924 Tb 0.78316 0.06283 0.87975 0.0
C925 C 0.91704 0.26114 0.96864 0.0
N926 N 0.867 0.22844 0.96796 0.0
C927 C 0.86282 0.23693 0.02907 0.0
C928 C 0.94182 0.28293 0.99973 0.0
C929 C 0.83959 0.21704 0.99762 0.0
C930 C 0.91406 0.27017 0.03013 0.0
C931 C 0.99516 0.30864 0.93759 0.0
C932 C 0.94337 0.27465 0.93785 0.0
C933 C 1.01987 0.33003 0.96854 0.0
C934 C 0.99312 0.31778 0.99942 0.0
Tb935 Tb 0.83369 0.206 0.91402 0.0
N936 N 0.91813 0.25446 0.90814 0.0
C937 C 1.02042 0.32085 0.90614 0.0
C938 C 0.94232 0.26778 0.8772 0.0
C939 C 0.99387 0.30036 0.87584 0.0
H940 H 0.79939 0.19463 0.99729 0.0
H941 H 1.01302 0.31014 0.85138 0.0
H942 H 0.79183 0.0636 0.79364 0.0
H943 H 0.63745 0.92826 0.9611 0.0
H944 H 0.92229 0.25302 0.8535 0.0
H945 H 0.06027 0.34656 0.90492 0.0
H946 H 0.72405 0.99074 0.94538 0.0
H947 H 0.84087 0.22783 0.05236 0.0
H948 H 0.05957 0.35658 0.96884 0.0
H949 H 1.01252 0.33556 0.02296 0.0
H950 H 0.73436 0.03042 0.74479 0.0
H951 H 0.93157 0.28663 0.05445 0.0
H952 H 0.57051 0.89979 0.91733 0.0
N953 N 0.73418 0.03286 0.83147 0.0
C954 C 0.68498 1.0005 0.83715 0.0
C955 C 0.71971 0.02287 0.7706 0.0
C956 C 0.6507 0.97997 0.80979 0.0
C957 C 0.75221 0.04218 0.79857 0.0
C958 C 0.66855 0.99263 0.77618 0.0
N959 N 0.70508 1.00229 0.89535 0.0
C960 C 0.69457 0.98081 0.92707 0.0
C961 C 0.62031 0.94732 0.87736 0.0
C962 C 0.66993 0.98427 0.87031 0.0
C963 C 0.60818 0.92831 0.91081 0.0
C964 C 0.64579 0.94442 0.93562 0.0
H965 H 0.64359 0.97732 0.75439 0.0
H966 H 0.57337 0.92973 0.79616 0.0
H967 H 0.54668 0.9012 0.85549 0.0
O968 O 0.80784 0.0203 0.90742 0.0
O969 O 0.72401 0.07936 0.89816 0.0
O970 O 0.76663 0.16051 0.88363 0.0
O971 O 0.80104 1.0153 0.85258 0.0
O972 O 0.8109 0.09058 0.93118 0.0
O973 O 0.78449 0.14292 0.94975 0.0
O974 O 0.8474 0.27363 0.89169 0.0
O975 O 0.88656 0.17699 0.91543 0.0
O976 O 0.86054 0.12189 0.86989 0.0
O977 O 0.80409 0.24742 0.93769 0.0
O978 O 0.83238 0.20154 0.85692 0.0
O979 O 0.81218 0.12077 0.83974 0.0
C980 C 0.72538 0.12255 0.89467 0.0
C981 C 0.79672 0.9463 0.881 0.0
C982 C 0.8181 0.88028 0.88091 0.0
C983 C 0.76732 0.84504 0.87687 0.0
C984 C 0.74606 0.91045 0.87765 0.0
C985 C 0.73151 0.85997 0.87564 0.0
C986 C 0.83275 0.93111 0.88282 0.0
C987 C 0.78676 0.10148 0.95387 0.0
C988 C 0.81323 0.99973 0.87986 0.0
C989 C 0.60038 0.94547 0.8168 0.0
C990 C 0.58518 0.92917 0.85058 0.0
C991 C 0.89513 0.15119 0.89202 0.0
C992 C 0.85696 0.33629 0.93033 0.0
C993 C 0.90302 0.42754 0.92129 0.0
C994 C 0.91715 0.4335 0.9561 0.0
C995 C 0.87105 0.34414 0.96504 0.0
C996 C 0.87313 0.37836 0.9085 0.0
C997 C 0.90132 0.39226 0.97763 0.0
C998 C 0.82571 0.1679 0.83321 0.0
C999 C 0.82664 0.28477 0.91638 0.0
H1000 H 0.75553 0.80599 0.87409 0.0
H1001 H 0.718 0.92152 0.87576 0.0
H1002 H 0.69246 0.83239 0.87255 0.0
H1003 H 0.87201 0.95869 0.88524 0.0
H1004 H 0.93931 0.47036 0.96709 0.0
H1005 H 0.85875 0.31319 0.9826 0.0
H1006 H 0.86252 0.37269 0.88165 0.0
H1007 H 0.91206 0.39767 1.00444 0.0
C1008 C 0.21384 0.97946 0.13098 0.0
C1009 C 0.16617 0.93836 0.12448 0.0
C1010 C 0.22086 0.02703 0.13869 0.0
C1011 C 0.18034 0.03576 0.1398 0.0
H1012 H 0.24583 0.97467 0.13161 0.0
H1013 H 0.25805 0.05658 0.14521 0.0
S1014 S 0.04853 0.94261 0.11895 0.0
N1015 N 0.07835 0.91087 0.11631 0.0
N1016 N 0.09123 1.00013 0.12929 0.0
C1017 C 0.13271 0.99558 0.13121 0.0
C1018 C 0.12567 0.94706 0.12398 0.0
C1019 C 0.20793 0.10233 0.63797 0.0
C1020 C 0.25634 0.14371 0.6404 0.0
C1021 C 0.16538 0.10728 0.64271 0.0
C1022 C 0.16938 0.15381 0.65051 0.0
H1023 H 0.20284 0.0658 0.63228 0.0
H1024 H 0.12898 0.07418 0.64047 0.0
S1025 S 0.28806 0.27303 0.66149 0.0
N1026 N 0.30567 0.23194 0.65269 0.0
N1027 N 0.22655 0.24175 0.6611 0.0
C1028 C 0.21776 0.19538 0.65288 0.0
C1029 C 0.26092 0.19018 0.64809 0.0
C1030 C 0.05153 0.21709 0.17327 0.0
C1031 C 1.01799 0.18814 0.14713 0.0
C1032 C 0.10315 0.24473 0.16749 0.0
C1033 C 0.12382 0.24518 0.13522 0.0
H1034 H 0.03764 0.21935 0.19835 0.0
H1035 H 0.12681 0.26773 0.18813 0.0
S1036 S 0.05383 0.17094 0.05931 0.0
N1037 N 1.01013 0.15832 0.08837 0.0
N1038 N 0.10751 0.21012 0.07779 0.0
C1039 C 0.09134 0.21433 0.10937 0.0
C1040 C 0.03845 0.18581 0.11527 0.0
C1041 C 0.86761 1.01282 0.6153 0.0
C1042 C 0.84391 0.98985 0.64638 0.0
C1043 C 0.89247 0.06527 0.6115 0.0
C1044 C 0.89501 0.09649 0.63875 0.0
H1045 H 0.86487 0.99007 0.59337 0.0
H1046 H 0.90865 0.0814 0.58682 0.0
S1047 S 0.8416 0.05435 0.72574 0.0
N1048 N 0.82679 1.00225 0.70511 0.0
N1049 N 0.87307 0.09977 0.69799 0.0
C1050 C 0.87334 0.07368 0.67019 0.0
C1051 C 0.84783 0.02069 0.67397 0.0
C1052 C 0.82747 0.81414 0.08649 0.0
C1053 C 0.85069 0.80926 0.11609 0.0
C1054 C 0.803 0.84208 0.08669 0.0
C1055 C 0.79951 0.86552 0.11679 0.0
H1056 H 0.82762 0.79553 0.06306 0.0
H1057 H 0.78527 0.84393 0.06317 0.0
S1058 S 0.85867 0.86809 0.20051 0.0
N1059 N 0.87242 0.83335 0.17564 0.0
N1060 N 0.82597 0.88542 0.17641 0.0
C1061 C 0.82505 0.86314 0.14618 0.0
C1062 C 0.85051 0.83497 0.14578 0.0
C1063 C 0.99035 0.80543 0.58076 0.0
C1064 C 0.96128 0.79332 0.61089 0.0
C1065 C 0.04278 0.8328 0.58189 0.0
C1066 C 0.06885 0.84976 0.61314 0.0
H1067 H 0.97249 0.79204 0.55605 0.0
H1068 H 0.06324 0.83959 0.55808 0.0
S1069 S 1.011 0.83079 0.69938 0.0
N1070 N 0.96293 0.80276 0.67298 0.0
N1071 N 0.06142 0.85428 0.67496 0.0
C1072 C 0.0404 0.84018 0.64335 0.0
C1073 C 0.98673 0.8121 0.64225 0.0
C1074 C 0.09135 0.88993 0.35989 0.0
C1075 C 0.124 0.90731 0.38827 0.0
C1076 C 0.04157 0.87936 0.3625 0.0
C1077 C 1.02274 0.88666 0.39349 0.0
H1078 H 0.10403 0.88346 0.33561 0.0
H1079 H 1.01804 0.86652 0.33989 0.0
S1080 S 0.09338 0.93295 0.47515 0.0
N1081 N 0.1342 0.93229 0.44809 0.0
N1082 N 0.04094 0.91243 0.45326 0.0
C1083 C 0.05517 0.90424 0.42204 0.0
C1084 C 0.10567 0.91467 0.41936 0.0
C1085 C 0.19835 0.02587 0.88635 0.0
C1086 C 0.19535 1.0079 0.85277 0.0
C1087 C 0.22521 0.07742 0.89338 0.0
C1088 C 0.25018 0.11261 0.86713 0.0
H1089 H 0.18242 0.99991 0.90754 0.0
H1090 H 0.22819 0.08967 0.91975 0.0
S1091 S 0.23842 0.0847 0.77383 0.0
N1092 N 0.20903 0.02931 0.79233 0.0
N1093 N 0.25913 0.12571 0.8054 0.0
C1094 C 0.24179 0.09507 0.83307 0.0
C1095 C 0.21472 0.04279 0.82596 0.0
C1096 C 0.12552 0.20102 0.39957 0.0
C1097 C 0.16544 0.24904 0.39204 0.0
C1098 C 0.12957 0.15793 0.39459 0.0
C1099 C 0.17372 0.16059 0.38181 0.0
H1100 H 0.09056 0.19647 0.40908 0.0
H1101 H 0.0974 0.12203 0.40047 0.0
S1102 S 0.28981 0.27683 0.35888 0.0
N1103 N 0.25114 0.29594 0.37136 0.0
N1104 N 0.25841 0.21566 0.36251 0.0
C1105 C 0.2142 0.20832 0.37502 0.0
C1106 C 0.21009 0.25215 0.37987 0.0
C1107 C 1.01128 0.16682 0.84631 0.0
C1108 C 0.04726 0.18047 0.87247 0.0
C1109 C 0.96277 0.15719 0.85317 0.0
C1110 C 0.94775 0.1624 0.88624 0.0
H1111 H 1.02025 0.16215 0.82017 0.0
H1112 H 0.93678 0.14492 0.83218 0.0
S1113 S 1.02666 0.19569 0.96437 0.0
N1114 N 0.06388 0.19721 0.93338 0.0
N1115 N 0.97304 0.18153 0.94594 0.0
C1116 C 0.9836 0.17733 0.91269 0.0
C1117 C 0.03316 0.18604 0.90585 0.0
C1118 C 0.8473 0.02851 0.38595 0.0
C1119 C 0.86712 0.04397 0.35275 0.0
C1120 C 0.81806 0.97743 0.39431 0.0
C1121 C 0.80736 0.93969 0.36983 0.0
H1122 H 0.85273 0.05604 0.4052 0.0
H1123 H 0.80273 0.96754 0.41997 0.0
S1124 S 0.85749 0.9612 0.28075 0.0
N1125 N 0.87859 1.01777 0.29644 0.0
N1126 N 0.82497 0.92258 0.31204 0.0
C1127 C 0.83012 0.95506 0.33728 0.0
C1128 C 0.85936 1.00688 0.32874 0.0
C1129 C 0.88386 0.8129 0.91322 0.0
C1130 C 0.90366 0.80499 0.88283 0.0
C1131 C 0.85857 0.84005 0.91302 0.0
C1132 C 0.85475 0.8627 0.88284 0.0
H1133 H 0.88578 0.79598 0.93704 0.0
H1134 H 0.84016 0.84166 0.93626 0.0
S1135 S 0.9202 0.8734 0.801 0.0
N1136 N 0.93097 0.83528 0.82459 0.0
N1137 N 0.88489 0.88784 0.8247 0.0
C1138 C 0.88143 0.8622 0.85386 0.0
C1139 C 0.90611 0.83343 0.8538 0.0
C1140 C 0.16477 0.66311 0.14805 0.0
C1141 C 0.14905 0.6743 0.11707 0.0
C1142 C 0.18679 0.63249 0.1486 0.0
C1143 C 0.19361 0.61125 0.11827 0.0
H1144 H 0.16312 0.68073 0.17167 0.0
H1145 H 0.20048 0.62702 0.1729 0.0
S1146 S 0.15325 0.62463 0.03103 0.0
N1147 N 0.1377 0.65808 0.05574 0.0
N1148 N 0.17865 0.60099 0.05681 0.0
C1149 C 0.17479 0.61952 0.08757 0.0
C1150 C 0.15281 0.65094 0.08697 0.0
C1151 C 0.5819 0.16026 0.59344 0.0
C1152 C 0.6113 0.17571 0.62332 0.0
C1153 C 0.52954 0.13805 0.59506 0.0
C1154 C 0.50401 0.12949 0.62666 0.0
H1155 H 0.5997 0.16839 0.56846 0.0
H1156 H 0.50902 0.12964 0.57112 0.0
S1157 S 0.56332 0.15725 0.71265 0.0
N1158 N 0.61077 0.17704 0.68569 0.0
N1159 N 0.5124 0.13408 0.68872 0.0
C1160 C 0.53267 0.14127 0.65685 0.0
C1161 C 0.58622 0.1648 0.65517 0.0
C1162 C 0.41304 0.54083 0.07401 0.0
C1163 C 0.44995 0.57678 0.09596 0.0
C1164 C 0.37717 0.49336 0.08577 0.0
C1165 C 0.3753 0.47972 0.1203 0.0
H1166 H 0.41187 0.54931 0.04714 0.0
H1167 H 0.35027 0.46733 0.06762 0.0
S1168 S 0.46206 0.5582 0.18896 0.0
N1169 N 0.48227 0.59389 0.15436 0.0
N1170 N 0.41291 0.50531 0.1767 0.0
C1171 C 0.41109 0.51494 0.14286 0.0
C1172 C 0.44858 0.56331 0.13074 0.0
C1173 C 0.87309 0.39739 0.63941 0.0
C1174 C 0.89447 0.429 0.61097 0.0
C1175 C 0.88866 0.36345 0.64931 0.0
C1176 C 0.92639 0.35987 0.63127 0.0
H1177 H 0.84101 0.39554 0.65207 0.0
H1178 H 0.86831 0.33721 0.66969 0.0
S1179 S 1.0012 0.44199 0.55947 0.0
N1180 N 0.96003 0.45976 0.56805 0.0
N1181 N 0.99022 0.39719 0.58721 0.0
C1182 C 0.9519 0.39535 0.60538 0.0
C1183 C 0.93559 0.42949 0.59503 0.0
C1184 C 0.53594 0.86819 0.13051 0.0
C1185 C 0.57708 0.91564 0.1381 0.0
C1186 C 0.48792 0.86104 0.12442 0.0
C1187 C 0.47887 0.9012 0.12558 0.0
H1188 H 0.54167 0.83679 0.12675 0.0
H1189 H 0.459 0.82483 0.11554 0.0
S1190 S 0.57059 0.03074 0.15166 0.0
N1191 N 0.60315 1.00159 0.15193 0.0
N1192 N 0.51311 0.98853 0.14066 0.0
C1193 C 0.51825 0.94765 0.13701 0.0
C1194 C 0.56725 0.95482 0.14327 0.0
C1195 C 0.6408 0.55035 0.61547 0.0
C1196 C 0.6888 0.5564 0.6188 0.0
C1197 C 0.59865 0.50288 0.60895 0.0
C1198 C 0.60244 0.45918 0.60473 0.0
H1199 H 0.63616 0.58281 0.61543 0.0
H1200 H 0.56303 0.50104 0.60527 0.0
S1201 S 0.71873 0.45399 0.61803 0.0
N1202 N 0.73633 0.51352 0.62309 0.0
N1203 N 0.65839 0.42558 0.60957 0.0
C1204 C 0.64966 0.46443 0.6112 0.0
C1205 C 0.69234 0.51258 0.61828 0.0
C1206 C 0.41725 0.95046 0.39736 0.0
C1207 C 0.37742 0.91468 0.3776 0.0
C1208 C 0.45733 0.94361 0.40732 0.0
C1209 C 0.45937 0.89998 0.39888 0.0
H1210 H 0.41652 0.98308 0.40663 0.0
H1211 H 0.48623 0.97239 0.42304 0.0
S1212 S 0.37079 0.80128 0.33949 0.0
N1213 N 0.34772 0.83897 0.34382 0.0
N1214 N 0.42117 0.82477 0.36392 0.0
C1215 C 0.42195 0.86614 0.37639 0.0
C1216 C 0.38146 0.87363 0.36569 0.0
C1217 C 0.55688 0.45882 0.88295 0.0
C1218 C 0.5957 0.45479 0.89907 0.0
C1219 C 0.50952 0.41657 0.877 0.0
C1220 C 0.49826 0.36882 0.88829 0.0
H1221 H 0.56264 0.49525 0.87602 0.0
H1222 H 0.48109 0.42187 0.8649 0.0
S1223 S 0.58923 0.33725 0.92721 0.0
N1224 N 0.62135 0.3984 0.92237 0.0
N1225 N 0.53291 0.3196 0.91212 0.0
C1226 C 0.53807 0.36406 0.90217 0.0
C1227 C 0.58645 0.40682 0.90744 0.0
C1228 C 0.1922 0.56955 0.35976 0.0
C1229 C 0.18529 0.59332 0.38865 0.0
C1230 C 0.16926 0.51695 0.35728 0.0
C1231 C 0.13871 0.48564 0.38377 0.0
H1232 H 0.21798 0.592 0.33972 0.0
H1233 H 0.17881 0.50103 0.33582 0.0
S1234 S 0.10524 0.5277 0.46367 0.0
N1235 N 0.14235 0.58014 0.44312 0.0
N1236 N 0.10026 0.48221 0.43878 0.0
C1237 C 0.12914 0.50869 0.41174 0.0
C1238 C 0.15197 0.56209 0.41408 0.0
C1239 C 0.68703 0.17809 0.89774 0.0
C1240 C 0.68171 0.13021 0.90236 0.0
C1241 C 0.64932 0.18881 0.90728 0.0
C1242 C 0.60404 0.15217 0.92166 0.0
H1243 H 0.72147 0.20843 0.88764 0.0
H1244 H 0.6568 0.22685 0.90506 0.0
S1245 S 0.56782 1.01969 0.93599 0.0
N1246 N 0.62475 0.04479 0.91985 0.0
N1247 N 0.55453 0.06517 0.93813 0.0
C1248 C 0.59703 0.10365 0.92499 0.0
C1249 C 0.63546 0.0926 0.91519 0.0
C1250 C 0.51425 0.58419 0.39141 0.0
C1251 C 0.47335 0.59263 0.39488 0.0
C1252 C 0.56261 0.62294 0.38284 0.0
C1253 C 0.57217 0.6717 0.37694 0.0
H1254 H 0.50966 0.54806 0.39783 0.0
H1255 H 0.59309 0.61535 0.38347 0.0
S1256 S 0.4767 0.71106 0.37328 0.0
N1257 N 0.445 0.65214 0.38548 0.0
N1258 N 0.53491 0.72372 0.368 0.0
C1259 C 0.53066 0.67906 0.37599 0.0
C1260 C 0.48154 0.63989 0.38509 0.0
C1261 C 0.97566 0.56317 0.8908 0.0
C1262 C 0.9388 0.56936 0.87411 0.0
C1263 C 0.96518 0.51605 0.90327 0.0
C1264 C 0.91718 0.47338 0.9 0.0
H1265 H 1.01131 0.59553 0.89698 0.0
H1266 H 0.99397 0.51375 0.91765 0.0
S1267 S 0.80921 0.46979 0.85543 0.0
N1268 N 0.85414 0.52848 0.85217 0.0
N1269 N 0.83393 0.44069 0.87611 0.0
C1270 C 0.88139 0.47865 0.8809 0.0
C1271 C 0.89232 0.52644 0.86796 0.0
C1272 C 0.18338 0.33221 0.28064 0.0
C1273 C 0.19562 0.37734 0.29724 0.0
C1274 C 0.19526 0.33059 0.2463 0.0
C1275 C 0.22277 0.37412 0.22671 0.0
H1276 H 0.16347 0.29697 0.29413 0.0
H1277 H 0.18252 0.29423 0.23514 0.0
S1278 S 0.26717 0.50299 0.25782 0.0
N1279 N 0.23747 0.46754 0.29125 0.0
N1280 N 0.26334 0.46469 0.22684 0.0
C1281 C 0.23671 0.42005 0.24294 0.0
C1282 C 0.22296 0.42165 0.27816 0.0
C1283 C 0.8905 0.18118 0.74874 0.0
C1284 C 0.8743 0.20671 0.72717 0.0
C1285 C 0.87349 0.16868 0.78232 0.0
C1286 C 0.84247 0.18428 0.79741 0.0
H1287 H 0.91618 0.16963 0.73963 0.0
H1288 H 0.88455 0.14593 0.79651 0.0
S1289 S 0.79143 0.25568 0.75362 0.0
N1290 N 0.82508 0.2482 0.72367 0.0
N1291 N 0.79667 0.22836 0.78868 0.0
C1292 C 0.82714 0.21175 0.77698 0.0
C1293 C 0.84238 0.22226 0.74156 0.0
C1294 C 0.71696 0.8573 0.23254 0.0
C1295 C 0.67408 0.85377 0.2175 0.0
C1296 C 0.71851 0.84614 0.26688 0.0
C1297 C 0.67654 0.82733 0.28852 0.0
H1298 H 0.751 0.87054 0.21792 0.0
H1299 H 0.75416 0.85357 0.27638 0.0
S1300 S 0.55265 0.80806 0.26193 0.0
N1301 N 0.58716 0.82989 0.22687 0.0
N1302 N 0.58908 0.80481 0.29178 0.0
C1303 C 0.63224 0.82197 0.27388 0.0
C1304 C 0.63107 0.83536 0.23835 0.0
C1305 C 0.85616 0.62765 0.72347 0.0
C1306 C 0.84538 0.66399 0.71035 0.0
C1307 C 0.86783 0.62671 0.75891 0.0
C1308 C 0.86868 0.66172 0.78272 0.0
H1309 H 0.85727 0.60087 0.70613 0.0
H1310 H 0.87837 0.59988 0.76737 0.0
S1311 S 0.83925 0.76161 0.76331 0.0
N1312 N 0.83472 0.73466 0.72609 0.0
N1313 N 0.85488 0.73137 0.79084 0.0
C1314 C 0.85625 0.69664 0.77016 0.0
C1315 C 0.84512 0.69817 0.73466 0.0
C1316 C 0.22528 0.82683 0.22798 0.0
C1317 C 0.19153 0.83717 0.21023 0.0
C1318 C 0.23759 0.84036 0.26308 0.0
C1319 C 0.21596 0.86395 0.28183 0.0
H1320 H 0.24182 0.80773 0.21488 0.0
H1321 H 0.26444 0.83272 0.27547 0.0
S1322 S 0.12478 0.8984 0.2478 0.0
N1323 N 0.14013 0.87641 0.21432 0.0
N1324 N 0.15592 0.8928 0.28018 0.0
C1325 C 0.18128 0.87295 0.26445 0.0
C1326 C 0.17122 0.86219 0.22875 0.0
C1327 C 0.35667 0.20662 0.76535 0.0
C1328 C 0.39453 0.21973 0.79023 0.0
C1329 C 0.35962 0.19066 0.7323 0.0
C1330 C 0.40094 0.18701 0.72148 0.0
H1331 H 0.32275 0.20658 0.7715 0.0
H1332 H 0.32808 0.17958 0.71522 0.0
S1333 S 0.51387 0.22144 0.77391 0.0
N1334 N 0.47771 0.23182 0.79989 0.0
N1335 N 0.48293 0.20102 0.73736 0.0
C1336 C 0.4407 0.20217 0.74498 0.0
C1337 C 0.43761 0.2186 0.77927 0.0
C1338 C 0.35502 0.29589 0.00941 0.0
C1339 C 0.34022 0.30047 0.97615 0.0
C1340 C 0.33914 0.31138 0.03866 0.0
C1341 C 0.30976 0.33515 0.03667 0.0
H1342 H 0.37739 0.27832 0.01323 0.0
H1343 H 0.34943 0.30317 0.06328 0.0
S1344 S 0.26757 0.36398 0.95501 0.0
N1345 N 0.29571 0.33311 0.94296 0.0
N1346 N 0.27298 0.36818 0.99717 0.0
C1347 C 0.29824 0.34361 1.00333 0.0
C1348 C 0.31161 0.32495 0.97352 0.0
C1349 C 0.04509 0.3513 0.4983 0.0
C1350 C 0.07432 0.33082 0.48652 0.0
C1351 C 1.00854 0.32773 0.52438 0.0
C1352 C 1.00072 0.28355 0.54049 0.0
H1353 H 0.04899 0.38467 0.48634 0.0
H1354 H 0.98661 0.34441 0.53215 0.0
S1355 S 0.06714 0.21462 0.51865 0.0
N1356 N 0.0917 0.26308 0.49251 0.0
N1357 N 1.02565 0.22032 0.54196 0.0
C1358 C 1.03039 0.26336 0.52911 0.0
C1359 C 0.06653 0.28666 0.50227 0.0
C1360 C 0.77655 1.00859 0.02256 0.0
C1361 C 0.72796 0.98854 0.0361 0.0
C1362 C 0.79544 0.04662 0.99757 0.0
C1363 C 0.76753 0.06815 0.98513 0.0
H1364 H 0.80058 0.99471 0.03148 0.0
H1365 H 0.83253 0.05902 0.98757 0.0
S1366 S 0.63921 0.03208 0.01358 0.0
N1367 N 0.65256 0.99456 0.0357 0.0
N1368 N 0.68864 0.06719 0.98952 0.0
C1369 C 0.71923 0.04957 0.99902 0.0
C1370 C 0.69925 1.00941 0.02396 0.0
C1371 C 0.72018 0.68743 0.51306 0.0
C1372 C 0.77163 0.7102 0.52125 0.0
C1373 C 0.70163 0.70887 0.48868 0.0
C1374 C 0.73373 0.75379 0.47103 0.0
H1375 H 0.69374 0.65421 0.52681 0.0
H1376 H 0.66198 0.68972 0.48326 0.0
S1377 S 0.87102 0.82975 0.48503 0.0
N1378 N 0.85354 0.781 0.51029 0.0
N1379 N 0.81961 0.82112 0.46594 0.0
C1380 C 0.78503 0.77665 0.47947 0.0
C1381 C 0.80364 0.7549 0.5039 0.0
C1382 C 0.03532 0.70302 0.97603 0.0
C1383 C 1.0037 0.72226 0.96746 0.0
C1384 C 0.0714 0.72408 1.00274 0.0
C1385 C 0.07636 0.76428 0.02298 0.0
H1386 H 0.03339 0.67251 0.96118 0.0
H1387 H 0.09467 0.70786 0.00815 0.0
S1388 S 1.00335 0.82913 0.01022 0.0
N1389 N 0.9814 0.78512 0.98059 0.0
N1390 N 0.04654 0.82307 0.03112 0.0
C1391 C 0.04463 0.78351 0.01452 0.0
C1392 C 1.00901 0.76288 0.98692 0.0
C1393 C 0.30074 0.96895 0.50355 0.0
C1394 C 0.31225 0.99075 0.47062 0.0
C1395 C 0.31564 0.99832 0.53397 0.0
C1396 C 0.34384 0.05148 0.53364 0.0
H1397 H 0.27886 0.92883 0.50604 0.0
H1398 H 0.30419 0.9786 0.55816 0.0
S1399 S 0.38631 0.12864 0.4547 0.0
N1400 N 0.35488 0.07086 0.4404 0.0
N1401 N 0.38429 0.12399 0.49689 0.0
C1402 C 0.35703 0.07373 0.50107 0.0
C1403 C 0.34101 0.04413 0.47003 0.0
loop_
_geom_bond_atom_site_label_1
_geom_bond_atom_site_label_2
_geom_bond_distance
_geom_bond_site_symmetry_2
_ccdc_geom_bond_type
Tb0 N29 2.617 . S
Tb0 N35 2.572 . S
Tb0 O44 2.465 . S
Tb0 O45 2.387 . S
Tb0 O47 2.428 . S
Tb0 O48 2.308 . S
Tb0 O52 2.349 . S
Tb0 O55 2.393 . S
Tb0 C64 2.802 . S
C1 N2 1.379 . S
C1 C4 1.416 . S
C1 C8 1.424 . S
N2 C1 1.379 . S
N2 C5 1.334 1_554 S
N2 Tb11 2.617 . S
C3 C5 1.390 . S
C3 C6 1.339 . S
C3 H23 0.930 . S
C4 C1 1.416 . S
C4 C6 1.416 1_554 S
C4 C10 1.448 1_455 S
C5 N2 1.334 1_556 S
C5 C3 1.390 . S
C5 H16 0.930 . S
C6 C3 1.339 . S
C6 C4 1.416 1_556 S
C6 H27 0.930 . S
C7 C8 1.413 1_655 S
C7 C9 1.427 . S
C7 C13 1.416 . S
C8 C1 1.424 . S
C8 C7 1.413 1_455 S
C8 N12 1.361 . S
C9 C7 1.427 . S
C9 C10 1.328 . S
C9 H24 0.929 . S
C10 C4 1.448 1_655 S
C10 C9 1.328 . S
C10 H25 0.930 1_554 S
Tb11 N2 2.617 . S
Tb11 N12 2.572 . S
Tb11 O46 2.349 . S
Tb11 O49 2.393 . S
Tb11 O50 2.465 . S
Tb11 O51 2.387 . S
Tb11 O53 2.428 . S
Tb11 O54 2.308 . S
Tb11 C75 2.802 . S
N12 C8 1.361 . S
N12 Tb11 2.572 . S
N12 C14 1.340 . S
C13 C7 1.416 . S
C13 C15 1.332 1_655 S
C13 H21 0.931 . S
C14 N12 1.340 . S
C14 C15 1.407 . S
C14 H20 0.930 . S
C15 C13 1.332 1_455 S
C15 C14 1.407 . S
C15 H17 0.929 1_455 S
H16 C5 0.930 . S
H17 C15 0.929 1_655 S
H18 C33 0.930 . S
H19 C40 0.929 . S
H20 C14 0.930 . S
H21 C13 0.931 . S
H22 C36 0.930 . S
H23 C3 0.930 . S
H24 C9 0.929 . S
H25 C10 0.930 1_556 S
H26 C31 0.930 . S
H27 C6 0.930 . S
H28 C39 0.931 . S
N29 Tb0 2.617 . S
N29 C30 1.379 . S
N29 C33 1.334 . S
C30 N29 1.379 . S
C30 C32 1.416 . S
C30 C38 1.424 . S
C31 H26 0.930 . S
C31 C33 1.390 . S
C31 C34 1.339 . S
C32 C30 1.416 . S
C32 C34 1.416 . S
C32 C65 1.448 . S
C33 H18 0.930 . S
C33 N29 1.334 . S
C33 C31 1.390 . S
C34 C31 1.339 . S
C34 C32 1.416 . S
C34 H41 0.930 . S
N35 Tb0 2.572 . S
N35 C36 1.340 . S
N35 C38 1.361 . S
C36 H22 0.930 . S
C36 N35 1.340 . S
C36 C40 1.407 . S
C37 C38 1.413 . S
C37 C39 1.416 . S
C37 C66 1.427 . S
C38 C30 1.424 . S
C38 N35 1.361 . S
C38 C37 1.413 . S
C39 H28 0.931 . S
C39 C37 1.416 . S
C39 C40 1.332 . S
C40 H19 0.929 . S
C40 C36 1.407 . S
C40 C39 1.332 . S
H41 C34 0.930 . S
H42 C65 0.930 . S
H43 C66 0.929 . S
O44 Tb0 2.465 . S
O44 C64 1.264 . S
O45 Tb0 2.387 . S
O45 C56 1.264 . S
O46 Tb11 2.349 . S
O46 C56 1.243 . S
O47 Tb0 2.428 . S
O47 C64 1.256 . S
O48 Tb0 2.308 . S
O48 C63 1.266 . S
O49 Tb11 2.393 . S
O49 C63 1.248 . S
O50 Tb11 2.465 . S
O50 C75 1.264 . S
O51 Tb11 2.387 . S
O51 C67 1.264 . S
O52 Tb0 2.349 . S
O52 C67 1.243 . S
O53 Tb11 2.428 . S
O53 C75 1.256 . S
O54 Tb11 2.308 . S
O54 C74 1.266 . S
O55 Tb0 2.393 . S
O55 C74 1.248 . S
C56 O45 1.264 . S
C56 O46 1.243 . S
C57 C60 1.399 . S
C57 C62 1.383 . S
C57 C64 1.496 . S
C58 C59 1.399 . S
C58 C62 1.389 . S
C59 C58 1.399 . S
C59 C61 1.380 . S
C59 H76 0.929 . S
C60 C57 1.399 . S
C60 C61 1.392 . S
C60 H77 0.929 . S
C61 C59 1.380 . S
C61 C60 1.392 . S
C61 H78 0.929 . S
C62 C57 1.383 . S
C62 C58 1.389 . S
C62 H79 0.931 . S
C63 O48 1.266 . S
C63 O49 1.248 . S
C64 Tb0 2.802 . S
C64 O44 1.264 . S
C64 O47 1.256 . S
C64 C57 1.496 . S
C65 C32 1.448 . S
C65 H42 0.930 . S
C65 C66 1.328 . S
C66 C37 1.427 . S
C66 H43 0.929 . S
C66 C65 1.328 . S
C67 O51 1.264 . S
C67 O52 1.243 . S
C68 C71 1.399 . S
C68 C72 1.383 . S
C68 C75 1.496 . S
C69 C70 1.399 . S
C69 C72 1.389 . S
C70 C69 1.399 . S
C70 C73 1.380 . S
C70 H80 0.929 . S
C71 C68 1.399 . S
C71 C73 1.392 . S
C71 H81 0.929 . S
C72 C68 1.383 . S
C72 C69 1.389 . S
C72 H82 0.931 . S
C73 C70 1.380 . S
C73 C71 1.392 . S
C73 H83 0.929 . S
C74 O54 1.266 . S
C74 O55 1.248 . S
C75 Tb11 2.802 . S
C75 O50 1.264 . S
C75 O53 1.256 . S
C75 C68 1.496 . S
H76 C59 0.929 . S
H77 C60 0.929 . S
H78 C61 0.929 . S
H79 C62 0.931 . S
H80 C70 0.929 . S
H81 C71 0.929 . S
H82 C72 0.931 . S
H83 C73 0.929 . S
Tb84 N113 2.617 . S
Tb84 N119 2.572 . S
Tb84 O128 2.465 . S
Tb84 O129 2.387 . S
Tb84 O131 2.428 . S
Tb84 O132 2.308 . S
Tb84 O136 2.349 . S
Tb84 O139 2.393 . S
Tb84 C148 2.802 1_655 S
C85 N86 1.379 . S
C85 C88 1.416 . S
C85 C92 1.424 . S
N86 C85 1.379 . S
N86 C89 1.334 . S
N86 Tb95 2.617 . S
C87 C89 1.390 . S
C87 C90 1.339 . S
C87 H107 0.930 . S
C88 C85 1.416 . S
C88 C90 1.416 . S
C88 C94 1.448 1_545 S
C89 N86 1.334 . S
C89 C87 1.390 . S
C89 H100 0.930 . S
C90 C87 1.339 . S
C90 C88 1.416 . S
C90 H111 0.930 . S
C91 C92 1.413 1_565 S
C91 C93 1.427 . S
C91 C97 1.416 . S
C92 C85 1.424 . S
C92 C91 1.413 1_545 S
C92 N96 1.361 . S
C93 C91 1.427 . S
C93 C94 1.328 . S
C93 H108 0.929 . S
C94 C88 1.448 1_565 S
C94 C93 1.328 . S
C94 H109 0.930 . S
Tb95 N86 2.617 . S
Tb95 N96 2.572 . S
Tb95 O130 2.349 . S
Tb95 O133 2.393 . S
Tb95 O134 2.465 . S
Tb95 O135 2.387 . S
Tb95 O137 2.428 . S
Tb95 O138 2.308 . S
Tb95 C159 2.802 . S
N96 C92 1.361 . S
N96 Tb95 2.572 . S
N96 C98 1.340 . S
C97 C91 1.416 . S
C97 C99 1.332 1_565 S
C97 H105 0.931 . S
C98 N96 1.340 . S
C98 C99 1.407 . S
C98 H104 0.930 . S
C99 C97 1.332 1_545 S
C99 C98 1.407 . S
C99 H101 0.929 1_545 S
H100 C89 0.930 . S
H101 C99 0.929 1_565 S
H102 C117 0.930 . S
H103 C124 0.929 . S
H104 C98 0.930 . S
H105 C97 0.931 . S
H106 C120 0.932 1_655 S
H107 C87 0.930 . S
H108 C93 0.929 . S
H109 C94 0.930 . S
H110 C115 0.930 . S
H111 C90 0.930 . S
H112 C123 0.931 . S
N113 Tb84 2.617 . S
N113 C114 1.379 . S
N113 C117 1.334 . S
C114 N113 1.379 . S
C114 C116 1.416 . S
C114 C122 1.424 1_655 S
C115 H110 0.930 . S
C115 C117 1.390 . S
C115 C118 1.339 . S
C116 C114 1.416 . S
C116 C118 1.416 . S
C116 C149 1.448 1_655 S
C117 H102 0.930 . S
C117 N113 1.334 . S
C117 C115 1.390 . S
C118 C115 1.339 . S
C118 C116 1.416 . S
C118 H125 0.930 . S
N119 Tb84 2.572 . S
N119 C120 1.340 1_655 S
N119 C122 1.361 1_655 S
C120 H106 0.932 1_455 S
C120 N119 1.340 1_455 S
C120 C124 1.407 . S
C121 C122 1.413 . S
C121 C123 1.416 . S
C121 C150 1.427 . S
C122 C114 1.424 1_455 S
C122 N119 1.361 1_455 S
C122 C121 1.413 . S
C123 H112 0.931 . S
C123 C121 1.416 . S
C123 C124 1.332 . S
C124 H103 0.929 . S
C124 C120 1.407 . S
C124 C123 1.332 . S
H125 C118 0.930 . S
H126 C149 0.930 . S
H127 C150 0.929 . S
O128 Tb84 2.465 . S
O128 C148 1.264 1_655 S
O129 Tb84 2.387 . S
O129 C140 1.264 . S
O130 Tb95 2.349 . S
O130 C140 1.243 . S
O131 Tb84 2.428 . S
O131 C148 1.256 1_655 S
O132 Tb84 2.308 . S
O132 C147 1.266 . S
O133 Tb95 2.393 . S
O133 C147 1.248 . S
O134 Tb95 2.465 . S
O134 C159 1.264 . S
O135 Tb95 2.387 . S
O135 C151 1.264 . S
O136 Tb84 2.349 . S
O136 C151 1.243 . S
O137 Tb95 2.428 . S
O137 C159 1.256 . S
O138 Tb95 2.308 . S
O138 C158 1.266 . S
O139 Tb84 2.393 . S
O139 C158 1.248 . S
C140 O129 1.264 . S
C140 O130 1.243 . S
C141 C144 1.399 . S
C141 C146 1.383 . S
C141 C148 1.496 . S
C142 C143 1.399 . S
C142 C146 1.389 . S
C143 C142 1.399 . S
C143 C145 1.380 . S
C143 H160 0.929 . S
C144 C141 1.399 . S
C144 C145 1.392 . S
C144 H161 0.929 . S
C145 C143 1.380 . S
C145 C144 1.392 . S
C145 H162 0.929 . S
C146 C141 1.383 . S
C146 C142 1.389 . S
C146 H163 0.931 . S
C147 O132 1.266 . S
C147 O133 1.248 . S
C148 Tb84 2.802 1_455 S
C148 O128 1.264 1_455 S
C148 O131 1.256 1_455 S
C148 C141 1.496 . S
C149 C116 1.448 1_455 S
C149 H126 0.930 . S
C149 C150 1.328 . S
C150 C121 1.427 . S
C150 H127 0.929 . S
C150 C149 1.328 . S
C151 O135 1.264 . S
C151 O136 1.243 . S
C152 C155 1.399 . S
C152 C156 1.383 . S
C152 C159 1.496 . S
C153 C154 1.399 . S
C153 C156 1.389 . S
C154 C153 1.399 . S
C154 C157 1.380 . S
C154 H164 0.929 . S
C155 C152 1.399 . S
C155 C157 1.392 . S
C155 H165 0.929 . S
C156 C152 1.383 . S
C156 C153 1.389 . S
C156 H166 0.931 . S
C157 C154 1.380 . S
C157 C155 1.392 . S
C157 H167 0.929 . S
C158 O138 1.266 . S
C158 O139 1.248 . S
C159 Tb95 2.802 . S
C159 O134 1.264 . S
C159 O137 1.256 . S
C159 C152 1.496 . S
H160 C143 0.929 . S
H161 C144 0.929 . S
H162 C145 0.929 . S
H163 C146 0.931 . S
H164 C154 0.929 . S
H165 C155 0.929 . S
H166 C156 0.931 . S
H167 C157 0.929 . S
Tb168 N197 2.617 . S
Tb168 N203 2.572 . S
Tb168 O212 2.465 . S
Tb168 O213 2.387 . S
Tb168 O215 2.428 . S
Tb168 O216 2.308 . S
Tb168 O220 2.349 . S
Tb168 O223 2.393 . S
Tb168 C232 2.802 1_565 S
C169 N170 1.379 . S
C169 C172 1.416 . S
C169 C176 1.424 . S
N170 C169 1.379 . S
N170 C173 1.334 1_554 S
N170 Tb179 2.617 . S
C171 C173 1.390 . S
C171 C174 1.339 . S
C171 H191 0.930 . S
C172 C169 1.416 . S
C172 C174 1.416 1_554 S
C172 C178 1.448 . S
C173 N170 1.334 1_556 S
C173 C171 1.390 . S
C173 H184 0.930 . S
C174 C171 1.339 . S
C174 C172 1.416 1_556 S
C174 H195 0.930 . S
C175 C176 1.413 . S
C175 C177 1.427 . S
C175 C181 1.416 . S
C176 C169 1.424 . S
C176 C175 1.413 . S
C176 N180 1.361 . S
C177 C175 1.427 . S
C177 C178 1.328 . S
C177 H192 0.929 . S
C178 C172 1.448 . S
C178 C177 1.328 . S
C178 H193 0.930 1_554 S
Tb179 N170 2.617 . S
Tb179 N180 2.572 . S
Tb179 O214 2.349 . S
Tb179 O217 2.393 . S
Tb179 O218 2.465 . S
Tb179 O219 2.387 . S
Tb179 O221 2.428 . S
Tb179 O222 2.308 . S
Tb179 C243 2.802 . S
N180 C176 1.361 . S
N180 Tb179 2.572 . S
N180 C182 1.340 . S
C181 C175 1.416 . S
C181 C183 1.332 . S
C181 H189 0.931 . S
C182 N180 1.340 . S
C182 C183 1.407 . S
C182 H188 0.930 . S
C183 C181 1.332 . S
C183 C182 1.407 . S
C183 H185 0.929 . S
H184 C173 0.930 . S
H185 C183 0.929 . S
H186 C201 0.930 . S
H187 C208 0.929 . S
H188 C182 0.930 . S
H189 C181 0.931 . S
H190 C204 0.917 1_565 S
H191 C171 0.930 . S
H192 C177 0.929 . S
H193 C178 0.930 1_556 S
H194 C199 0.930 . S
H195 C174 0.930 . S
H196 C207 0.931 . S
N197 Tb168 2.617 . S
N197 C198 1.379 . S
N197 C201 1.334 . S
C198 N197 1.379 . S
C198 C200 1.416 . S
C198 C206 1.424 1_565 S
C199 H194 0.930 . S
C199 C201 1.390 . S
C199 C202 1.339 . S
C200 C198 1.416 . S
C200 C202 1.416 . S
C200 C233 1.448 1_565 S
C201 H186 0.930 . S
C201 N197 1.334 . S
C201 C199 1.390 . S
C202 C199 1.339 . S
C202 C200 1.416 . S
C202 H209 0.930 . S
N203 Tb168 2.572 . S
N203 C204 1.340 1_565 S
N203 C206 1.361 1_565 S
C204 H190 0.917 1_545 S
C204 N203 1.340 1_545 S
C204 C208 1.407 . S
C205 C206 1.413 . S
C205 C207 1.416 . S
C205 C234 1.427 . S
C206 C198 1.424 1_545 S
C206 N203 1.361 1_545 S
C206 C205 1.413 . S
C207 H196 0.931 . S
C207 C205 1.416 . S
C207 C208 1.332 . S
C208 H187 0.929 . S
C208 C204 1.407 . S
C208 C207 1.332 . S
H209 C202 0.930 . S
H210 C233 0.930 . S
H211 C234 0.929 . S
O212 Tb168 2.465 . S
O212 C232 1.264 1_565 S
O213 Tb168 2.387 . S
O213 C224 1.264 . S
O214 Tb179 2.349 . S
O214 C224 1.243 . S
O215 Tb168 2.428 . S
O215 C232 1.256 1_565 S
O216 Tb168 2.308 . S
O216 C231 1.266 . S
O217 Tb179 2.393 . S
O217 C231 1.248 . S
O218 Tb179 2.465 . S
O218 C243 1.264 . S
O219 Tb179 2.387 . S
O219 C235 1.264 . S
O220 Tb168 2.349 . S
O220 C235 1.243 . S
O221 Tb179 2.428 . S
O221 C243 1.256 . S
O222 Tb179 2.308 . S
O222 C242 1.266 . S
O223 Tb168 2.393 . S
O223 C242 1.248 . S
C224 O213 1.264 . S
C224 O214 1.243 . S
C225 C228 1.399 . S
C225 C230 1.383 . S
C225 C232 1.496 . S
C226 C227 1.399 . S
C226 C230 1.389 . S
C227 C226 1.399 . S
C227 C229 1.380 . S
C227 H244 0.929 . S
C228 C225 1.399 . S
C228 C229 1.392 . S
C228 H245 0.929 . S
C229 C227 1.380 . S
C229 C228 1.392 . S
C229 H246 0.929 . S
C230 C225 1.383 . S
C230 C226 1.389 . S
C230 H247 0.931 . S
C231 O216 1.266 . S
C231 O217 1.248 . S
C232 Tb168 2.802 1_545 S
C232 O212 1.264 1_545 S
C232 O215 1.256 1_545 S
C232 C225 1.496 . S
C233 C200 1.448 1_545 S
C233 H210 0.930 . S
C233 C234 1.328 . S
C234 C205 1.427 . S
C234 H211 0.929 . S
C234 C233 1.328 . S
C235 O219 1.264 . S
C235 O220 1.243 . S
C236 C239 1.399 . S
C236 C240 1.383 . S
C236 C243 1.496 . S
C237 C238 1.399 . S
C237 C240 1.389 . S
C238 C237 1.399 . S
C238 C241 1.380 . S
C238 H248 0.929 . S
C239 C236 1.399 . S
C239 C241 1.392 . S
C239 H249 0.929 . S
C240 C236 1.383 . S
C240 C237 1.389 . S
C240 H250 0.931 . S
C241 C238 1.380 . S
C241 C239 1.392 . S
C241 H251 0.929 . S
C242 O222 1.266 . S
C242 O223 1.248 . S
C243 Tb179 2.802 . S
C243 O218 1.264 . S
C243 O221 1.256 . S
C243 C236 1.496 . S
H244 C227 0.929 . S
H245 C228 0.929 . S
H246 C229 0.929 . S
H247 C230 0.931 . S
H248 C238 0.929 . S
H249 C239 0.929 . S
H250 C240 0.931 . S
H251 C241 0.929 . S
Tb252 N281 2.617 . S
Tb252 N287 2.572 . S
Tb252 O296 2.465 . S
Tb252 O297 2.387 . S
Tb252 O299 2.428 . S
Tb252 O300 2.308 . S
Tb252 O304 2.349 . S
Tb252 O307 2.393 . S
Tb252 C316 2.802 . S
C253 N254 1.379 . S
C253 C256 1.416 . S
C253 C260 1.424 . S
N254 C253 1.379 . S
N254 C257 1.334 . S
N254 Tb263 2.617 . S
C255 C257 1.390 . S
C255 C258 1.339 . S
C255 H275 0.930 . S
C256 C253 1.416 . S
C256 C258 1.416 . S
C256 C262 1.448 1_655 S
C257 N254 1.334 . S
C257 C255 1.390 . S
C257 H268 0.930 . S
C258 C255 1.339 . S
C258 C256 1.416 . S
C258 H279 0.930 . S
C259 C260 1.413 1_455 S
C259 C261 1.427 . S
C259 C265 1.416 . S
C260 C253 1.424 . S
C260 C259 1.413 1_655 S
C260 N264 1.361 . S
C261 C259 1.427 . S
C261 C262 1.328 . S
C261 H276 0.929 . S
C262 C256 1.448 1_455 S
C262 C261 1.328 . S
C262 H277 0.930 . S
Tb263 N254 2.617 . S
Tb263 N264 2.572 . S
Tb263 O298 2.349 . S
Tb263 O301 2.393 . S
Tb263 O302 2.465 . S
Tb263 O303 2.387 . S
Tb263 O305 2.428 . S
Tb263 O306 2.308 . S
Tb263 C327 2.802 . S
N264 C260 1.361 . S
N264 Tb263 2.572 . S
N264 C266 1.340 . S
C265 C259 1.416 . S
C265 C267 1.332 1_455 S
C265 H273 0.931 . S
C266 N264 1.340 . S
C266 C267 1.407 . S
C266 H272 0.930 . S
C267 C265 1.332 1_655 S
C267 C266 1.407 . S
C267 H269 0.929 1_655 S
H268 C257 0.930 . S
H269 C267 0.929 1_455 S
H270 C285 0.930 . S
H271 C292 0.929 . S
H272 C266 0.930 . S
H273 C265 0.931 . S
H274 C288 0.930 . S
H275 C255 0.930 . S
H276 C261 0.929 . S
H277 C262 0.930 . S
H278 C283 0.930 . S
H279 C258 0.930 . S
H280 C291 0.931 . S
N281 Tb252 2.617 . S
N281 C282 1.379 . S
N281 C285 1.334 . S
C282 N281 1.379 . S
C282 C284 1.416 . S
C282 C290 1.424 . S
C283 H278 0.930 . S
C283 C285 1.390 . S
C283 C286 1.339 . S
C284 C282 1.416 . S
C284 C286 1.416 . S
C284 C317 1.448 . S
C285 H270 0.930 . S
C285 N281 1.334 . S
C285 C283 1.390 . S
C286 C283 1.339 . S
C286 C284 1.416 . S
C286 H293 0.930 . S
N287 Tb252 2.572 . S
N287 C288 1.340 . S
N287 C290 1.361 . S
C288 H274 0.930 . S
C288 N287 1.340 . S
C288 C292 1.407 . S
C289 C290 1.413 . S
C289 C291 1.416 . S
C289 C318 1.427 . S
C290 C282 1.424 . S
C290 N287 1.361 . S
C290 C289 1.413 . S
C291 H280 0.931 . S
C291 C289 1.416 . S
C291 C292 1.332 . S
C292 H271 0.929 . S
C292 C288 1.407 . S
C292 C291 1.332 . S
H293 C286 0.930 . S
H294 C317 0.930 . S
H295 C318 0.929 . S
O296 Tb252 2.465 . S
O296 C316 1.264 . S
O297 Tb252 2.387 . S
O297 C308 1.264 . S
O298 Tb263 2.349 . S
O298 C308 1.243 . S
O299 Tb252 2.428 . S
O299 C316 1.256 . S
O300 Tb252 2.308 . S
O300 C315 1.266 . S
O301 Tb263 2.393 . S
O301 C315 1.248 . S
O302 Tb263 2.465 . S
O302 C327 1.264 . S
O303 Tb263 2.387 . S
O303 C319 1.264 . S
O304 Tb252 2.349 . S
O304 C319 1.243 . S
O305 Tb263 2.428 . S
O305 C327 1.256 . S
O306 Tb263 2.308 . S
O306 C326 1.266 . S
O307 Tb252 2.393 . S
O307 C326 1.248 . S
C308 O297 1.264 . S
C308 O298 1.243 . S
C309 C312 1.399 . S
C309 C314 1.383 . S
C309 C316 1.496 . S
C310 C311 1.399 . S
C310 C314 1.389 . S
C311 C310 1.399 . S
C311 C313 1.380 . S
C311 H328 0.929 . S
C312 C309 1.399 . S
C312 C313 1.392 . S
C312 H329 0.929 . S
C313 C311 1.380 . S
C313 C312 1.392 . S
C313 H330 0.929 . S
C314 C309 1.383 . S
C314 C310 1.389 . S
C314 H331 0.931 . S
C315 O300 1.266 . S
C315 O301 1.248 . S
C316 Tb252 2.802 . S
C316 O296 1.264 . S
C316 O299 1.256 . S
C316 C309 1.496 . S
C317 C284 1.448 . S
C317 H294 0.930 . S
C317 C318 1.328 . S
C318 C289 1.427 . S
C318 H295 0.929 . S
C318 C317 1.328 . S
C319 O303 1.264 . S
C319 O304 1.243 . S
C320 C323 1.399 . S
C320 C324 1.383 . S
C320 C327 1.496 . S
C321 C322 1.399 . S
C321 C324 1.389 . S
C322 C321 1.399 . S
C322 C325 1.380 . S
C322 H332 0.929 . S
C323 C320 1.399 . S
C323 C325 1.392 . S
C323 H333 0.929 . S
C324 C320 1.383 . S
C324 C321 1.389 . S
C324 H334 0.931 . S
C325 C322 1.380 . S
C325 C323 1.392 . S
C325 H335 0.929 . S
C326 O306 1.266 . S
C326 O307 1.248 . S
C327 Tb263 2.802 . S
C327 O302 1.264 . S
C327 O305 1.256 . S
C327 C320 1.496 . S
H328 C311 0.929 . S
H329 C312 0.929 . S
H330 C313 0.929 . S
H331 C314 0.931 . S
H332 C322 0.929 . S
H333 C323 0.929 . S
H334 C324 0.931 . S
H335 C325 0.929 . S
Tb336 N365 2.617 . S
Tb336 N371 2.572 . S
Tb336 O380 2.465 . S
Tb336 O381 2.387 . S
Tb336 O383 2.428 . S
Tb336 O384 2.308 . S
Tb336 O388 2.349 . S
Tb336 O391 2.393 . S
Tb336 C400 2.802 1_455 S
C337 N338 1.379 . S
C337 C340 1.416 . S
C337 C344 1.424 . S
N338 C337 1.379 . S
N338 C341 1.334 1_554 S
N338 Tb347 2.617 . S
C339 C341 1.390 . S
C339 C342 1.339 . S
C339 H359 0.930 . S
C340 C337 1.416 . S
C340 C342 1.416 1_554 S
C340 C346 1.448 1_565 S
C341 N338 1.334 1_556 S
C341 C339 1.390 . S
C341 H352 0.930 . S
C342 C339 1.339 . S
C342 C340 1.416 1_556 S
C342 H363 0.930 . S
C343 C344 1.413 1_545 S
C343 C345 1.427 . S
C343 C349 1.416 . S
C344 C337 1.424 . S
C344 C343 1.413 1_565 S
C344 N348 1.361 . S
C345 C343 1.427 . S
C345 C346 1.328 . S
C345 H360 0.929 . S
C346 C340 1.448 1_545 S
C346 C345 1.328 . S
C346 H361 0.930 1_554 S
Tb347 N338 2.617 . S
Tb347 N348 2.572 . S
Tb347 O382 2.349 . S
Tb347 O385 2.393 . S
Tb347 O386 2.465 . S
Tb347 O387 2.387 . S
Tb347 O389 2.428 . S
Tb347 O390 2.308 . S
Tb347 C411 2.802 . S
N348 C344 1.361 . S
N348 Tb347 2.572 . S
N348 C350 1.340 . S
C349 C343 1.416 . S
C349 C351 1.332 1_545 S
C349 H357 0.931 . S
C350 N348 1.340 . S
C350 C351 1.407 . S
C350 H356 0.930 . S
C351 C349 1.332 1_565 S
C351 C350 1.407 . S
C351 H353 0.929 1_565 S
H352 C341 0.930 . S
H353 C351 0.929 1_545 S
H354 C369 0.930 . S
H355 C376 0.929 . S
H356 C350 0.930 . S
H357 C349 0.931 . S
H358 C372 0.932 1_455 S
H359 C339 0.930 . S
H360 C345 0.929 . S
H361 C346 0.930 1_556 S
H362 C367 0.930 . S
H363 C342 0.930 . S
H364 C375 0.931 . S
N365 Tb336 2.617 . S
N365 C366 1.379 . S
N365 C369 1.334 . S
C366 N365 1.379 . S
C366 C368 1.416 . S
C366 C374 1.424 1_455 S
C367 H362 0.930 . S
C367 C369 1.390 . S
C367 C370 1.339 . S
C368 C366 1.416 . S
C368 C370 1.416 . S
C368 C401 1.448 1_455 S
C369 H354 0.930 . S
C369 N365 1.334 . S
C369 C367 1.390 . S
C370 C367 1.339 . S
C370 C368 1.416 . S
C370 H377 0.930 . S
N371 Tb336 2.572 . S
N371 C372 1.340 1_455 S
N371 C374 1.361 1_455 S
C372 H358 0.932 1_655 S
C372 N371 1.340 1_655 S
C372 C376 1.407 . S
C373 C374 1.413 . S
C373 C375 1.416 . S
C373 C402 1.427 . S
C374 C366 1.424 1_655 S
C374 N371 1.361 1_655 S
C374 C373 1.413 . S
C375 H364 0.931 . S
C375 C373 1.416 . S
C375 C376 1.332 . S
C376 H355 0.929 . S
C376 C372 1.407 . S
C376 C375 1.332 . S
H377 C370 0.930 . S
H378 C401 0.930 . S
H379 C402 0.929 . S
O380 Tb336 2.465 . S
O380 C400 1.264 1_455 S
O381 Tb336 2.387 . S
O381 C392 1.264 . S
O382 Tb347 2.349 . S
O382 C392 1.243 . S
O383 Tb336 2.428 . S
O383 C400 1.256 1_455 S
O384 Tb336 2.308 . S
O384 C399 1.266 . S
O385 Tb347 2.393 . S
O385 C399 1.248 . S
O386 Tb347 2.465 . S
O386 C411 1.264 . S
O387 Tb347 2.387 . S
O387 C403 1.264 . S
O388 Tb336 2.349 . S
O388 C403 1.243 . S
O389 Tb347 2.428 . S
O389 C411 1.256 . S
O390 Tb347 2.308 . S
O390 C410 1.266 . S
O391 Tb336 2.393 . S
O391 C410 1.248 . S
C392 O381 1.264 . S
C392 O382 1.243 . S
C393 C396 1.399 . S
C393 C398 1.383 . S
C393 C400 1.496 . S
C394 C395 1.399 . S
C394 C398 1.389 . S
C395 C394 1.399 . S
C395 C397 1.380 . S
C395 H412 0.929 . S
C396 C393 1.399 . S
C396 C397 1.392 . S
C396 H413 0.929 . S
C397 C395 1.380 . S
C397 C396 1.392 . S
C397 H414 0.929 . S
C398 C393 1.383 . S
C398 C394 1.389 . S
C398 H415 0.931 . S
C399 O384 1.266 . S
C399 O385 1.248 . S
C400 Tb336 2.802 1_655 S
C400 O380 1.264 1_655 S
C400 O383 1.256 1_655 S
C400 C393 1.496 . S
C401 C368 1.448 1_655 S
C401 H378 0.930 . S
C401 C402 1.328 . S
C402 C373 1.427 . S
C402 H379 0.929 . S
C402 C401 1.328 . S
C403 O387 1.264 . S
C403 O388 1.243 . S
C404 C407 1.399 . S
C404 C408 1.383 . S
C404 C411 1.496 . S
C405 C406 1.399 . S
C405 C408 1.389 . S
C406 C405 1.399 . S
C406 C409 1.380 . S
C406 H416 0.929 . S
C407 C404 1.399 . S
C407 C409 1.392 . S
C407 H417 0.929 . S
C408 C404 1.383 . S
C408 C405 1.389 . S
C408 H418 0.931 . S
C409 C406 1.380 . S
C409 C407 1.392 . S
C409 H419 0.929 . S
C410 O390 1.266 . S
C410 O391 1.248 . S
C411 Tb347 2.802 . S
C411 O386 1.264 . S
C411 O389 1.256 . S
C411 C404 1.496 . S
H412 C395 0.929 . S
H413 C396 0.929 . S
H414 C397 0.929 . S
H415 C398 0.931 . S
H416 C406 0.929 . S
H417 C407 0.929 . S
H418 C408 0.931 . S
H419 C409 0.929 . S
Tb420 N449 2.617 . S
Tb420 N455 2.572 . S
Tb420 O464 2.465 . S
Tb420 O465 2.387 . S
Tb420 O467 2.428 . S
Tb420 O468 2.308 . S
Tb420 O472 2.349 . S
Tb420 O475 2.393 . S
Tb420 C484 2.802 1_545 S
C421 N422 1.379 . S
C421 C424 1.416 . S
C421 C428 1.424 . S
N422 C421 1.379 . S
N422 C425 1.334 . S
N422 Tb431 2.617 . S
C423 C425 1.390 . S
C423 C426 1.339 . S
C423 H443 0.930 . S
C424 C421 1.416 . S
C424 C426 1.416 . S
C424 C430 1.448 . S
C425 N422 1.334 . S
C425 C423 1.390 . S
C425 H436 0.930 . S
C426 C423 1.339 . S
C426 C424 1.416 . S
C426 H447 0.930 . S
C427 C428 1.413 . S
C427 C429 1.427 . S
C427 C433 1.416 . S
C428 C421 1.424 . S
C428 C427 1.413 . S
C428 N432 1.361 . S
C429 C427 1.427 . S
C429 C430 1.328 . S
C429 H444 0.929 . S
C430 C424 1.448 . S
C430 C429 1.328 . S
C430 H445 0.930 . S
Tb431 N422 2.617 . S
Tb431 N432 2.572 . S
Tb431 O466 2.349 . S
Tb431 O469 2.393 . S
Tb431 O470 2.465 . S
Tb431 O471 2.387 . S
Tb431 O473 2.428 . S
Tb431 O474 2.308 . S
Tb431 C495 2.802 . S
N432 C428 1.361 . S
N432 Tb431 2.572 . S
N432 C434 1.340 . S
C433 C427 1.416 . S
C433 C435 1.332 . S
C433 H441 0.931 . S
C434 N432 1.340 . S
C434 C435 1.407 . S
C434 H440 0.930 . S
C435 C433 1.332 . S
C435 C434 1.407 . S
C435 H437 0.929 . S
H436 C425 0.930 . S
H437 C435 0.929 . S
H438 C453 0.930 . S
H439 C460 0.929 . S
H440 C434 0.930 . S
H441 C433 0.931 . S
H442 C456 0.917 1_545 S
H443 C423 0.930 . S
H444 C429 0.929 . S
H445 C430 0.930 . S
H446 C451 0.930 . S
H447 C426 0.930 . S
H448 C459 0.931 . S
N449 Tb420 2.617 . S
N449 C450 1.379 . S
N449 C453 1.334 . S
C450 N449 1.379 . S
C450 C452 1.416 . S
C450 C458 1.424 1_545 S
C451 H446 0.930 . S
C451 C453 1.390 . S
C451 C454 1.339 . S
C452 C450 1.416 . S
C452 C454 1.416 . S
C452 C485 1.448 1_545 S
C453 H438 0.930 . S
C453 N449 1.334 . S
C453 C451 1.390 . S
C454 C451 1.339 . S
C454 C452 1.416 . S
C454 H461 0.930 . S
N455 Tb420 2.572 . S
N455 C456 1.340 1_545 S
N455 C458 1.361 1_545 S
C456 H442 0.917 1_565 S
C456 N455 1.340 1_565 S
C456 C460 1.407 . S
C457 C458 1.413 . S
C457 C459 1.416 . S
C457 C486 1.427 . S
C458 C450 1.424 1_565 S
C458 N455 1.361 1_565 S
C458 C457 1.413 . S
C459 H448 0.931 . S
C459 C457 1.416 . S
C459 C460 1.332 . S
C460 H439 0.929 . S
C460 C456 1.407 . S
C460 C459 1.332 . S
H461 C454 0.930 . S
H462 C485 0.930 . S
H463 C486 0.929 . S
O464 Tb420 2.465 . S
O464 C484 1.264 1_545 S
O465 Tb420 2.387 . S
O465 C476 1.264 . S
O466 Tb431 2.349 . S
O466 C476 1.243 . S
O467 Tb420 2.428 . S
O467 C484 1.256 1_545 S
O468 Tb420 2.308 . S
O468 C483 1.266 . S
O469 Tb431 2.393 . S
O469 C483 1.248 . S
O470 Tb431 2.465 . S
O470 C495 1.264 . S
O471 Tb431 2.387 . S
O471 C487 1.264 . S
O472 Tb420 2.349 . S
O472 C487 1.243 . S
O473 Tb431 2.428 . S
O473 C495 1.256 . S
O474 Tb431 2.308 . S
O474 C494 1.266 . S
O475 Tb420 2.393 . S
O475 C494 1.248 . S
C476 O465 1.264 . S
C476 O466 1.243 . S
C477 C480 1.399 . S
C477 C482 1.383 . S
C477 C484 1.496 . S
C478 C479 1.399 . S
C478 C482 1.389 . S
C479 C478 1.399 . S
C479 C481 1.380 . S
C479 H496 0.929 . S
C480 C477 1.399 . S
C480 C481 1.392 . S
C480 H497 0.929 . S
C481 C479 1.380 . S
C481 C480 1.392 . S
C481 H498 0.929 . S
C482 C477 1.383 . S
C482 C478 1.389 . S
C482 H499 0.931 . S
C483 O468 1.266 . S
C483 O469 1.248 . S
C484 Tb420 2.802 1_565 S
C484 O464 1.264 1_565 S
C484 O467 1.256 1_565 S
C484 C477 1.496 . S
C485 C452 1.448 1_565 S
C485 H462 0.930 . S
C485 C486 1.328 . S
C486 C457 1.427 . S
C486 H463 0.929 . S
C486 C485 1.328 . S
C487 O471 1.264 . S
C487 O472 1.243 . S
C488 C491 1.399 . S
C488 C492 1.383 . S
C488 C495 1.496 . S
C489 C490 1.399 . S
C489 C492 1.389 . S
C490 C489 1.399 . S
C490 C493 1.380 . S
C490 H500 0.929 . S
C491 C488 1.399 . S
C491 C493 1.392 . S
C491 H501 0.929 . S
C492 C488 1.383 . S
C492 C489 1.389 . S
C492 H502 0.931 . S
C493 C490 1.380 . S
C493 C491 1.392 . S
C493 H503 0.929 . S
C494 O474 1.266 . S
C494 O475 1.248 . S
C495 Tb431 2.802 . S
C495 O470 1.264 . S
C495 O473 1.256 . S
C495 C488 1.496 . S
H496 C479 0.929 . S
H497 C480 0.929 . S
H498 C481 0.929 . S
H499 C482 0.931 . S
H500 C490 0.929 . S
H501 C491 0.929 . S
H502 C492 0.931 . S
H503 C493 0.929 . S
Tb504 N533 2.617 . S
Tb504 N539 2.572 . S
Tb504 O548 2.465 . S
Tb504 O549 2.387 . S
Tb504 O551 2.428 . S
Tb504 O552 2.308 . S
Tb504 O556 2.349 . S
Tb504 O559 2.393 . S
Tb504 C568 2.802 . S
C505 N506 1.379 . S
C505 C508 1.416 . S
C505 C512 1.424 . S
N506 C505 1.379 . S
N506 C509 1.334 . S
N506 Tb515 2.617 . S
C507 C509 1.390 . S
C507 C510 1.339 . S
C507 H527 0.930 . S
C508 C505 1.416 . S
C508 C510 1.416 . S
C508 C514 1.448 1_565 S
C509 N506 1.334 . S
C509 C507 1.390 . S
C509 H520 0.930 . S
C510 C507 1.339 . S
C510 C508 1.416 . S
C510 H531 0.930 . S
C511 C512 1.413 1_545 S
C511 C513 1.427 . S
C511 C517 1.416 . S
C512 C505 1.424 . S
C512 C511 1.413 1_565 S
C512 N516 1.361 . S
C513 C511 1.427 . S
C513 C514 1.328 . S
C513 H528 0.929 . S
C514 C508 1.448 1_545 S
C514 C513 1.328 . S
C514 H529 0.930 . S
Tb515 N506 2.617 . S
Tb515 N516 2.572 . S
Tb515 O550 2.349 . S
Tb515 O553 2.393 . S
Tb515 O554 2.465 . S
Tb515 O555 2.387 . S
Tb515 O557 2.428 . S
Tb515 O558 2.308 . S
Tb515 C579 2.802 . S
N516 C512 1.361 . S
N516 Tb515 2.572 . S
N516 C518 1.340 . S
C517 C511 1.416 . S
C517 C519 1.332 1_545 S
C517 H525 0.931 . S
C518 N516 1.340 . S
C518 C519 1.407 . S
C518 H524 0.930 . S
C519 C517 1.332 1_565 S
C519 C518 1.407 . S
C519 H521 0.929 1_565 S
H520 C509 0.930 . S
H521 C519 0.929 1_545 S
H522 C537 0.930 . S
H523 C544 0.929 . S
H524 C518 0.930 . S
H525 C517 0.931 . S
H526 C540 0.930 . S
H527 C507 0.930 . S
H528 C513 0.929 . S
H529 C514 0.930 . S
H530 C535 0.930 . S
H531 C510 0.930 . S
H532 C543 0.931 . S
N533 Tb504 2.617 . S
N533 C534 1.379 . S
N533 C537 1.334 . S
C534 N533 1.379 . S
C534 C536 1.416 . S
C534 C542 1.424 . S
C535 H530 0.930 . S
C535 C537 1.390 . S
C535 C538 1.339 . S
C536 C534 1.416 . S
C536 C538 1.416 . S
C536 C569 1.448 . S
C537 H522 0.930 . S
C537 N533 1.334 . S
C537 C535 1.390 . S
C538 C535 1.339 . S
C538 C536 1.416 . S
C538 H545 0.930 . S
N539 Tb504 2.572 . S
N539 C540 1.340 . S
N539 C542 1.361 . S
C540 H526 0.930 . S
C540 N539 1.340 . S
C540 C544 1.407 . S
C541 C542 1.413 . S
C541 C543 1.416 . S
C541 C570 1.427 . S
C542 C534 1.424 . S
C542 N539 1.361 . S
C542 C541 1.413 . S
C543 H532 0.931 . S
C543 C541 1.416 . S
C543 C544 1.332 . S
C544 H523 0.929 . S
C544 C540 1.407 . S
C544 C543 1.332 . S
H545 C538 0.930 . S
H546 C569 0.930 . S
H547 C570 0.929 . S
O548 Tb504 2.465 . S
O548 C568 1.264 . S
O549 Tb504 2.387 . S
O549 C560 1.264 . S
O550 Tb515 2.349 . S
O550 C560 1.243 . S
O551 Tb504 2.428 . S
O551 C568 1.256 . S
O552 Tb504 2.308 . S
O552 C567 1.266 . S
O553 Tb515 2.393 . S
O553 C567 1.248 . S
O554 Tb515 2.465 . S
O554 C579 1.264 . S
O555 Tb515 2.387 . S
O555 C571 1.264 . S
O556 Tb504 2.349 . S
O556 C571 1.243 . S
O557 Tb515 2.428 . S
O557 C579 1.256 . S
O558 Tb515 2.308 . S
O558 C578 1.266 . S
O559 Tb504 2.393 . S
O559 C578 1.248 . S
C560 O549 1.264 . S
C560 O550 1.243 . S
C561 C564 1.399 . S
C561 C566 1.383 . S
C561 C568 1.496 . S
C562 C563 1.399 . S
C562 C566 1.389 . S
C563 C562 1.399 . S
C563 C565 1.380 . S
C563 H580 0.929 . S
C564 C561 1.399 . S
C564 C565 1.392 . S
C564 H581 0.929 . S
C565 C563 1.380 . S
C565 C564 1.392 . S
C565 H582 0.929 . S
C566 C561 1.383 . S
C566 C562 1.389 . S
C566 H583 0.931 . S
C567 O552 1.266 . S
C567 O553 1.248 . S
C568 Tb504 2.802 . S
C568 O548 1.264 . S
C568 O551 1.256 . S
C568 C561 1.496 . S
C569 C536 1.448 . S
C569 H546 0.930 . S
C569 C570 1.328 . S
C570 C541 1.427 . S
C570 H547 0.929 . S
C570 C569 1.328 . S
C571 O555 1.264 . S
C571 O556 1.243 . S
C572 C575 1.399 . S
C572 C576 1.383 . S
C572 C579 1.496 . S
C573 C574 1.399 . S
C573 C576 1.389 . S
C574 C573 1.399 . S
C574 C577 1.380 . S
C574 H584 0.929 . S
C575 C572 1.399 . S
C575 C577 1.392 . S
C575 H585 0.929 . S
C576 C572 1.383 . S
C576 C573 1.389 . S
C576 H586 0.931 . S
C577 C574 1.380 . S
C577 C575 1.392 . S
C577 H587 0.929 . S
C578 O558 1.266 . S
C578 O559 1.248 . S
C579 Tb515 2.802 . S
C579 O554 1.264 . S
C579 O557 1.256 . S
C579 C572 1.496 . S
H580 C563 0.929 . S
H581 C564 0.929 . S
H582 C565 0.929 . S
H583 C566 0.931 . S
H584 C574 0.929 . S
H585 C575 0.929 . S
H586 C576 0.931 . S
H587 C577 0.929 . S
Tb588 N617 2.617 . S
Tb588 N623 2.572 . S
Tb588 O632 2.465 . S
Tb588 O633 2.387 . S
Tb588 O635 2.428 . S
Tb588 O636 2.308 . S
Tb588 O640 2.349 . S
Tb588 O643 2.393 . S
Tb588 C652 2.802 1_655 S
C589 N590 1.379 . S
C589 C592 1.416 . S
C589 C596 1.424 . S
N590 C589 1.379 . S
N590 C593 1.334 1_556 S
N590 Tb599 2.617 . S
C591 C593 1.390 . S
C591 C594 1.339 . S
C591 H611 0.930 . S
C592 C589 1.416 . S
C592 C594 1.416 1_556 S
C592 C598 1.448 . S
C593 N590 1.334 1_554 S
C593 C591 1.390 . S
C593 H604 0.930 . S
C594 C591 1.339 . S
C594 C592 1.416 1_554 S
C594 H615 0.930 . S
C595 C596 1.413 . S
C595 C597 1.427 . S
C595 C601 1.416 . S
C596 C589 1.424 . S
C596 C595 1.413 . S
C596 N600 1.361 . S
C597 C595 1.427 . S
C597 C598 1.328 . S
C597 H612 0.929 . S
C598 C592 1.448 . S
C598 C597 1.328 . S
C598 H613 0.930 1_556 S
Tb599 N590 2.617 . S
Tb599 N600 2.572 . S
Tb599 O634 2.349 . S
Tb599 O637 2.393 . S
Tb599 O638 2.465 . S
Tb599 O639 2.387 . S
Tb599 O641 2.428 . S
Tb599 O642 2.308 . S
Tb599 C663 2.802 . S
N600 C596 1.361 . S
N600 Tb599 2.572 . S
N600 C602 1.340 . S
C601 C595 1.416 . S
C601 C603 1.332 . S
C601 H609 0.931 . S
C602 N600 1.340 . S
C602 C603 1.407 . S
C602 H608 0.930 . S
C603 C601 1.332 . S
C603 C602 1.407 . S
C603 H605 0.929 . S
H604 C593 0.930 . S
H605 C603 0.929 . S
H606 C621 0.930 . S
H607 C628 0.929 . S
H608 C602 0.930 . S
H609 C601 0.931 . S
H610 C624 0.917 1_655 S
H611 C591 0.930 . S
H612 C597 0.929 . S
H613 C598 0.930 1_554 S
H614 C619 0.930 . S
H615 C594 0.930 . S
H616 C627 0.931 . S
N617 Tb588 2.617 . S
N617 C618 1.379 . S
N617 C621 1.334 . S
C618 N617 1.379 . S
C618 C620 1.416 . S
C618 C626 1.424 1_655 S
C619 H614 0.930 . S
C619 C621 1.390 . S
C619 C622 1.339 . S
C620 C618 1.416 . S
C620 C622 1.416 . S
C620 C653 1.448 1_655 S
C621 H606 0.930 . S
C621 N617 1.334 . S
C621 C619 1.390 . S
C622 C619 1.339 . S
C622 C620 1.416 . S
C622 H629 0.930 . S
N623 Tb588 2.572 . S
N623 C624 1.340 1_655 S
N623 C626 1.361 1_655 S
C624 H610 0.917 1_455 S
C624 N623 1.340 1_455 S
C624 C628 1.407 . S
C625 C626 1.413 . S
C625 C627 1.416 . S
C625 C654 1.427 . S
C626 C618 1.424 1_455 S
C626 N623 1.361 1_455 S
C626 C625 1.413 . S
C627 H616 0.931 . S
C627 C625 1.416 . S
C627 C628 1.332 . S
C628 H607 0.929 . S
C628 C624 1.407 . S
C628 C627 1.332 . S
H629 C622 0.930 . S
H630 C653 0.930 . S
H631 C654 0.929 . S
O632 Tb588 2.465 . S
O632 C652 1.264 1_655 S
O633 Tb588 2.387 . S
O633 C644 1.264 . S
O634 Tb599 2.349 . S
O634 C644 1.243 . S
O635 Tb588 2.428 . S
O635 C652 1.256 1_655 S
O636 Tb588 2.308 . S
O636 C651 1.266 . S
O637 Tb599 2.393 . S
O637 C651 1.248 . S
O638 Tb599 2.465 . S
O638 C663 1.264 . S
O639 Tb599 2.387 . S
O639 C655 1.264 . S
O640 Tb588 2.349 . S
O640 C655 1.243 . S
O641 Tb599 2.428 . S
O641 C663 1.256 . S
O642 Tb599 2.308 . S
O642 C662 1.266 . S
O643 Tb588 2.393 . S
O643 C662 1.248 . S
C644 O633 1.264 . S
C644 O634 1.243 . S
C645 C648 1.399 . S
C645 C650 1.383 . S
C645 C652 1.496 . S
C646 C647 1.399 . S
C646 C650 1.389 . S
C647 C646 1.399 . S
C647 C649 1.380 . S
C647 H664 0.929 . S
C648 C645 1.399 . S
C648 C649 1.392 . S
C648 H665 0.929 . S
C649 C647 1.380 . S
C649 C648 1.392 . S
C649 H666 0.929 . S
C650 C645 1.383 . S
C650 C646 1.389 . S
C650 H667 0.931 . S
C651 O636 1.266 . S
C651 O637 1.248 . S
C652 Tb588 2.802 1_455 S
C652 O632 1.264 1_455 S
C652 O635 1.256 1_455 S
C652 C645 1.496 . S
C653 C620 1.448 1_455 S
C653 H630 0.930 . S
C653 C654 1.328 . S
C654 C625 1.427 . S
C654 H631 0.929 . S
C654 C653 1.328 . S
C655 O639 1.264 . S
C655 O640 1.243 . S
C656 C659 1.399 . S
C656 C660 1.383 . S
C656 C663 1.496 . S
C657 C658 1.399 . S
C657 C660 1.389 . S
C658 C657 1.399 . S
C658 C661 1.380 . S
C658 H668 0.929 . S
C659 C656 1.399 . S
C659 C661 1.392 . S
C659 H669 0.929 . S
C660 C656 1.383 . S
C660 C657 1.389 . S
C660 H670 0.931 . S
C661 C658 1.380 . S
C661 C659 1.392 . S
C661 H671 0.929 . S
C662 O642 1.266 . S
C662 O643 1.248 . S
C663 Tb599 2.802 . S
C663 O638 1.264 . S
C663 O641 1.256 . S
C663 C656 1.496 . S
H664 C647 0.929 . S
H665 C648 0.929 . S
H666 C649 0.929 . S
H667 C650 0.931 . S
H668 C658 0.929 . S
H669 C659 0.929 . S
H670 C660 0.931 . S
H671 C661 0.929 . S
Tb672 N701 2.617 . S
Tb672 N707 2.572 . S
Tb672 O716 2.465 . S
Tb672 O717 2.387 . S
Tb672 O719 2.428 . S
Tb672 O720 2.308 . S
Tb672 O724 2.349 . S
Tb672 O727 2.393 . S
Tb672 C736 2.802 1_565 S
C673 N674 1.379 . S
C673 C676 1.416 . S
C673 C680 1.424 . S
N674 C673 1.379 . S
N674 C677 1.334 . S
N674 Tb683 2.617 . S
C675 C677 1.390 . S
C675 C678 1.339 . S
C675 H695 0.930 . S
C676 C673 1.416 . S
C676 C678 1.416 . S
C676 C682 1.448 1_455 S
C677 N674 1.334 . S
C677 C675 1.390 . S
C677 H688 0.930 . S
C678 C675 1.339 . S
C678 C676 1.416 . S
C678 H699 0.930 . S
C679 C680 1.413 1_655 S
C679 C681 1.427 . S
C679 C685 1.416 . S
C680 C673 1.424 . S
C680 C679 1.413 1_455 S
C680 N684 1.361 . S
C681 C679 1.427 . S
C681 C682 1.328 . S
C681 H696 0.929 . S
C682 C676 1.448 1_655 S
C682 C681 1.328 . S
C682 H697 0.930 . S
Tb683 N674 2.617 . S
Tb683 N684 2.572 . S
Tb683 O718 2.349 . S
Tb683 O721 2.393 . S
Tb683 O722 2.465 . S
Tb683 O723 2.387 . S
Tb683 O725 2.428 . S
Tb683 O726 2.308 . S
Tb683 C747 2.802 . S
N684 C680 1.361 . S
N684 Tb683 2.572 . S
N684 C686 1.340 . S
C685 C679 1.416 . S
C685 C687 1.332 1_655 S
C685 H693 0.931 . S
C686 N684 1.340 . S
C686 C687 1.407 . S
C686 H692 0.930 . S
C687 C685 1.332 1_455 S
C687 C686 1.407 . S
C687 H689 0.929 1_455 S
H688 C677 0.930 . S
H689 C687 0.929 1_655 S
H690 C705 0.930 . S
H691 C712 0.929 . S
H692 C686 0.930 . S
H693 C685 0.931 . S
H694 C708 0.932 1_565 S
H695 C675 0.930 . S
H696 C681 0.929 . S
H697 C682 0.930 . S
H698 C703 0.930 . S
H699 C678 0.930 . S
H700 C711 0.931 . S
N701 Tb672 2.617 . S
N701 C702 1.379 . S
N701 C705 1.334 . S
C702 N701 1.379 . S
C702 C704 1.416 . S
C702 C710 1.424 1_565 S
C703 H698 0.930 . S
C703 C705 1.390 . S
C703 C706 1.339 . S
C704 C702 1.416 . S
C704 C706 1.416 . S
C704 C737 1.448 1_565 S
C705 H690 0.930 . S
C705 N701 1.334 . S
C705 C703 1.390 . S
C706 C703 1.339 . S
C706 C704 1.416 . S
C706 H713 0.930 . S
N707 Tb672 2.572 . S
N707 C708 1.340 1_565 S
N707 C710 1.361 1_565 S
C708 H694 0.932 1_545 S
C708 N707 1.340 1_545 S
C708 C712 1.407 . S
C709 C710 1.413 . S
C709 C711 1.416 . S
C709 C738 1.427 . S
C710 C702 1.424 1_545 S
C710 N707 1.361 1_545 S
C710 C709 1.413 . S
C711 H700 0.931 . S
C711 C709 1.416 . S
C711 C712 1.332 . S
C712 H691 0.929 . S
C712 C708 1.407 . S
C712 C711 1.332 . S
H713 C706 0.930 . S
H714 C737 0.930 . S
H715 C738 0.929 . S
O716 Tb672 2.465 . S
O716 C736 1.264 1_565 S
O717 Tb672 2.387 . S
O717 C728 1.264 . S
O718 Tb683 2.349 . S
O718 C728 1.243 . S
O719 Tb672 2.428 . S
O719 C736 1.256 1_565 S
O720 Tb672 2.308 . S
O720 C735 1.266 . S
O721 Tb683 2.393 . S
O721 C735 1.248 . S
O722 Tb683 2.465 . S
O722 C747 1.264 . S
O723 Tb683 2.387 . S
O723 C739 1.264 . S
O724 Tb672 2.349 . S
O724 C739 1.243 . S
O725 Tb683 2.428 . S
O725 C747 1.256 . S
O726 Tb683 2.308 . S
O726 C746 1.266 . S
O727 Tb672 2.393 . S
O727 C746 1.248 . S
C728 O717 1.264 . S
C728 O718 1.243 . S
C729 C732 1.399 . S
C729 C734 1.383 . S
C729 C736 1.496 . S
C730 C731 1.399 . S
C730 C734 1.389 . S
C731 C730 1.399 . S
C731 C733 1.380 . S
C731 H748 0.929 . S
C732 C729 1.399 . S
C732 C733 1.392 . S
C732 H749 0.929 . S
C733 C731 1.380 . S
C733 C732 1.392 . S
C733 H750 0.929 . S
C734 C729 1.383 . S
C734 C730 1.389 . S
C734 H751 0.931 . S
C735 O720 1.266 . S
C735 O721 1.248 . S
C736 Tb672 2.802 1_545 S
C736 O716 1.264 1_545 S
C736 O719 1.256 1_545 S
C736 C729 1.496 . S
C737 C704 1.448 1_545 S
C737 H714 0.930 . S
C737 C738 1.328 . S
C738 C709 1.427 . S
C738 H715 0.929 . S
C738 C737 1.328 . S
C739 O723 1.264 . S
C739 O724 1.243 . S
C740 C743 1.399 . S
C740 C744 1.383 . S
C740 C747 1.496 . S
C741 C742 1.399 . S
C741 C744 1.389 . S
C742 C741 1.399 . S
C742 C745 1.380 . S
C742 H752 0.929 . S
C743 C740 1.399 . S
C743 C745 1.392 . S
C743 H753 0.929 . S
C744 C740 1.383 . S
C744 C741 1.389 . S
C744 H754 0.931 . S
C745 C742 1.380 . S
C745 C743 1.392 . S
C745 H755 0.929 . S
C746 O726 1.266 . S
C746 O727 1.248 . S
C747 Tb683 2.802 . S
C747 O722 1.264 . S
C747 O725 1.256 . S
C747 C740 1.496 . S
H748 C731 0.929 . S
H749 C732 0.929 . S
H750 C733 0.929 . S
H751 C734 0.931 . S
H752 C742 0.929 . S
H753 C743 0.929 . S
H754 C744 0.931 . S
H755 C745 0.929 . S
Tb756 N785 2.617 . S
Tb756 N791 2.572 . S
Tb756 O800 2.465 . S
Tb756 O801 2.387 . S
Tb756 O803 2.428 . S
Tb756 O804 2.308 . S
Tb756 O808 2.349 . S
Tb756 O811 2.393 . S
Tb756 C820 2.802 . S
C757 N758 1.379 . S
C757 C760 1.416 . S
C757 C764 1.424 . S
N758 C757 1.379 . S
N758 C761 1.334 1_556 S
N758 Tb767 2.617 . S
C759 C761 1.390 . S
C759 C762 1.339 . S
C759 H779 0.930 . S
C760 C757 1.416 . S
C760 C762 1.416 1_556 S
C760 C766 1.448 1_545 S
C761 N758 1.334 1_554 S
C761 C759 1.390 . S
C761 H772 0.930 . S
C762 C759 1.339 . S
C762 C760 1.416 1_554 S
C762 H783 0.930 . S
C763 C764 1.413 1_565 S
C763 C765 1.427 . S
C763 C769 1.416 . S
C764 C757 1.424 . S
C764 C763 1.413 1_545 S
C764 N768 1.361 . S
C765 C763 1.427 . S
C765 C766 1.328 . S
C765 H780 0.929 . S
C766 C760 1.448 1_565 S
C766 C765 1.328 . S
C766 H781 0.930 1_556 S
Tb767 N758 2.617 . S
Tb767 N768 2.572 . S
Tb767 O802 2.349 . S
Tb767 O805 2.393 . S
Tb767 O806 2.465 . S
Tb767 O807 2.387 . S
Tb767 O809 2.428 . S
Tb767 O810 2.308 . S
Tb767 C831 2.802 . S
N768 C764 1.361 . S
N768 Tb767 2.572 . S
N768 C770 1.340 . S
C769 C763 1.416 . S
C769 C771 1.332 1_565 S
C769 H777 0.931 . S
C770 N768 1.340 . S
C770 C771 1.407 . S
C770 H776 0.930 . S
C771 C769 1.332 1_545 S
C771 C770 1.407 . S
C771 H773 0.929 1_545 S
H772 C761 0.930 . S
H773 C771 0.929 1_565 S
H774 C789 0.930 . S
H775 C796 0.929 . S
H776 C770 0.930 . S
H777 C769 0.931 . S
H778 C792 0.930 . S
H779 C759 0.930 . S
H780 C765 0.929 . S
H781 C766 0.930 1_554 S
H782 C787 0.930 . S
H783 C762 0.930 . S
H784 C795 0.931 . S
N785 Tb756 2.617 . S
N785 C786 1.379 . S
N785 C789 1.334 . S
C786 N785 1.379 . S
C786 C788 1.416 . S
C786 C794 1.424 . S
C787 H782 0.930 . S
C787 C789 1.390 . S
C787 C790 1.339 . S
C788 C786 1.416 . S
C788 C790 1.416 . S
C788 C821 1.448 . S
C789 H774 0.930 . S
C789 N785 1.334 . S
C789 C787 1.390 . S
C790 C787 1.339 . S
C790 C788 1.416 . S
C790 H797 0.930 . S
N791 Tb756 2.572 . S
N791 C792 1.340 . S
N791 C794 1.361 . S
C792 H778 0.930 . S
C792 N791 1.340 . S
C792 C796 1.407 . S
C793 C794 1.413 . S
C793 C795 1.416 . S
C793 C822 1.427 . S
C794 C786 1.424 . S
C794 N791 1.361 . S
C794 C793 1.413 . S
C795 H784 0.931 . S
C795 C793 1.416 . S
C795 C796 1.332 . S
C796 H775 0.929 . S
C796 C792 1.407 . S
C796 C795 1.332 . S
H797 C790 0.930 . S
H798 C821 0.930 . S
H799 C822 0.929 . S
O800 Tb756 2.465 . S
O800 C820 1.264 . S
O801 Tb756 2.387 . S
O801 C812 1.264 . S
O802 Tb767 2.349 . S
O802 C812 1.243 . S
O803 Tb756 2.428 . S
O803 C820 1.256 . S
O804 Tb756 2.308 . S
O804 C819 1.266 . S
O805 Tb767 2.393 . S
O805 C819 1.248 . S
O806 Tb767 2.465 . S
O806 C831 1.264 . S
O807 Tb767 2.387 . S
O807 C823 1.264 . S
O808 Tb756 2.349 . S
O808 C823 1.243 . S
O809 Tb767 2.428 . S
O809 C831 1.256 . S
O810 Tb767 2.308 . S
O810 C830 1.266 . S
O811 Tb756 2.393 . S
O811 C830 1.248 . S
C812 O801 1.264 . S
C812 O802 1.243 . S
C813 C816 1.399 . S
C813 C818 1.383 . S
C813 C820 1.496 . S
C814 C815 1.399 . S
C814 C818 1.389 . S
C815 C814 1.399 . S
C815 C817 1.380 . S
C815 H832 0.929 . S
C816 C813 1.399 . S
C816 C817 1.392 . S
C816 H833 0.929 . S
C817 C815 1.380 . S
C817 C816 1.392 . S
C817 H834 0.929 . S
C818 C813 1.383 . S
C818 C814 1.389 . S
C818 H835 0.931 . S
C819 O804 1.266 . S
C819 O805 1.248 . S
C820 Tb756 2.802 . S
C820 O800 1.264 . S
C820 O803 1.256 . S
C820 C813 1.496 . S
C821 C788 1.448 . S
C821 H798 0.930 . S
C821 C822 1.328 . S
C822 C793 1.427 . S
C822 H799 0.929 . S
C822 C821 1.328 . S
C823 O807 1.264 . S
C823 O808 1.243 . S
C824 C827 1.399 . S
C824 C828 1.383 . S
C824 C831 1.496 . S
C825 C826 1.399 . S
C825 C828 1.389 . S
C826 C825 1.399 . S
C826 C829 1.380 . S
C826 H836 0.929 . S
C827 C824 1.399 . S
C827 C829 1.392 . S
C827 H837 0.929 . S
C828 C824 1.383 . S
C828 C825 1.389 . S
C828 H838 0.931 . S
C829 C826 1.380 . S
C829 C827 1.392 . S
C829 H839 0.929 . S
C830 O810 1.266 . S
C830 O811 1.248 . S
C831 Tb767 2.802 . S
C831 O806 1.264 . S
C831 O809 1.256 . S
C831 C824 1.496 . S
H832 C815 0.929 . S
H833 C816 0.929 . S
H834 C817 0.929 . S
H835 C818 0.931 . S
H836 C826 0.929 . S
H837 C827 0.929 . S
H838 C828 0.931 . S
H839 C829 0.929 . S
Tb840 N869 2.617 . S
Tb840 N875 2.572 . S
Tb840 O884 2.465 . S
Tb840 O885 2.387 . S
Tb840 O887 2.428 . S
Tb840 O888 2.308 . S
Tb840 O892 2.349 . S
Tb840 O895 2.393 . S
Tb840 C904 2.802 1_455 S
C841 N842 1.379 . S
C841 C844 1.416 . S
C841 C848 1.424 . S
N842 C841 1.379 . S
N842 C845 1.334 . S
N842 Tb851 2.617 . S
C843 C845 1.390 . S
C843 C846 1.339 . S
C843 H863 0.930 . S
C844 C841 1.416 . S
C844 C846 1.416 . S
C844 C850 1.448 . S
C845 N842 1.334 . S
C845 C843 1.390 . S
C845 H856 0.930 . S
C846 C843 1.339 . S
C846 C844 1.416 . S
C846 H867 0.930 . S
C847 C848 1.413 . S
C847 C849 1.427 . S
C847 C853 1.416 . S
C848 C841 1.424 . S
C848 C847 1.413 . S
C848 N852 1.361 . S
C849 C847 1.427 . S
C849 C850 1.328 . S
C849 H864 0.929 . S
C850 C844 1.448 . S
C850 C849 1.328 . S
C850 H865 0.930 . S
Tb851 N842 2.617 . S
Tb851 N852 2.572 . S
Tb851 O886 2.349 . S
Tb851 O889 2.393 . S
Tb851 O890 2.465 . S
Tb851 O891 2.387 . S
Tb851 O893 2.428 . S
Tb851 O894 2.308 . S
Tb851 C915 2.802 . S
N852 C848 1.361 . S
N852 Tb851 2.572 . S
N852 C854 1.340 . S
C853 C847 1.416 . S
C853 C855 1.332 . S
C853 H861 0.931 . S
C854 N852 1.340 . S
C854 C855 1.407 . S
C854 H860 0.930 . S
C855 C853 1.332 . S
C855 C854 1.407 . S
C855 H857 0.929 . S
H856 C845 0.930 . S
H857 C855 0.929 . S
H858 C873 0.930 . S
H859 C880 0.929 . S
H860 C854 0.930 . S
H861 C853 0.931 . S
H862 C876 0.917 1_455 S
H863 C843 0.930 . S
H864 C849 0.929 . S
H865 C850 0.930 . S
H866 C871 0.930 . S
H867 C846 0.930 . S
H868 C879 0.931 . S
N869 Tb840 2.617 . S
N869 C870 1.379 . S
N869 C873 1.334 . S
C870 N869 1.379 . S
C870 C872 1.416 . S
C870 C878 1.424 1_455 S
C871 H866 0.930 . S
C871 C873 1.390 . S
C871 C874 1.339 . S
C872 C870 1.416 . S
C872 C874 1.416 . S
C872 C905 1.448 1_455 S
C873 H858 0.930 . S
C873 N869 1.334 . S
C873 C871 1.390 . S
C874 C871 1.339 . S
C874 C872 1.416 . S
C874 H881 0.930 . S
N875 Tb840 2.572 . S
N875 C876 1.340 1_455 S
N875 C878 1.361 1_455 S
C876 H862 0.917 1_655 S
C876 N875 1.340 1_655 S
C876 C880 1.407 . S
C877 C878 1.413 . S
C877 C879 1.416 . S
C877 C906 1.427 . S
C878 C870 1.424 1_655 S
C878 N875 1.361 1_655 S
C878 C877 1.413 . S
C879 H868 0.931 . S
C879 C877 1.416 . S
C879 C880 1.332 . S
C880 H859 0.929 . S
C880 C876 1.407 . S
C880 C879 1.332 . S
H881 C874 0.930 . S
H882 C905 0.930 . S
H883 C906 0.929 . S
O884 Tb840 2.465 . S
O884 C904 1.264 1_455 S
O885 Tb840 2.387 . S
O885 C896 1.264 . S
O886 Tb851 2.349 . S
O886 C896 1.243 . S
O887 Tb840 2.428 . S
O887 C904 1.256 1_455 S
O888 Tb840 2.308 . S
O888 C903 1.266 . S
O889 Tb851 2.393 . S
O889 C903 1.248 . S
O890 Tb851 2.465 . S
O890 C915 1.264 . S
O891 Tb851 2.387 . S
O891 C907 1.264 . S
O892 Tb840 2.349 . S
O892 C907 1.243 . S
O893 Tb851 2.428 . S
O893 C915 1.256 . S
O894 Tb851 2.308 . S
O894 C914 1.266 . S
O895 Tb840 2.393 . S
O895 C914 1.248 . S
C896 O885 1.264 . S
C896 O886 1.243 . S
C897 C900 1.399 . S
C897 C902 1.383 . S
C897 C904 1.496 . S
C898 C899 1.399 . S
C898 C902 1.389 . S
C899 C898 1.399 . S
C899 C901 1.380 . S
C899 H916 0.929 . S
C900 C897 1.399 . S
C900 C901 1.392 . S
C900 H917 0.929 . S
C901 C899 1.380 . S
C901 C900 1.392 . S
C901 H918 0.929 . S
C902 C897 1.383 . S
C902 C898 1.389 . S
C902 H919 0.931 . S
C903 O888 1.266 . S
C903 O889 1.248 . S
C904 Tb840 2.802 1_655 S
C904 O884 1.264 1_655 S
C904 O887 1.256 1_655 S
C904 C897 1.496 . S
C905 C872 1.448 1_655 S
C905 H882 0.930 . S
C905 C906 1.328 . S
C906 C877 1.427 . S
C906 H883 0.929 . S
C906 C905 1.328 . S
C907 O891 1.264 . S
C907 O892 1.243 . S
C908 C911 1.399 . S
C908 C912 1.383 . S
C908 C915 1.496 . S
C909 C910 1.399 . S
C909 C912 1.389 . S
C910 C909 1.399 . S
C910 C913 1.380 . S
C910 H920 0.929 . S
C911 C908 1.399 . S
C911 C913 1.392 . S
C911 H921 0.929 . S
C912 C908 1.383 . S
C912 C909 1.389 . S
C912 H922 0.931 . S
C913 C910 1.380 . S
C913 C911 1.392 . S
C913 H923 0.929 . S
C914 O894 1.266 . S
C914 O895 1.248 . S
C915 Tb851 2.802 . S
C915 O890 1.264 . S
C915 O893 1.256 . S
C915 C908 1.496 . S
H916 C899 0.929 . S
H917 C900 0.929 . S
H918 C901 0.929 . S
H919 C902 0.931 . S
H920 C910 0.929 . S
H921 C911 0.929 . S
H922 C912 0.931 . S
H923 C913 0.929 . S
Tb924 N953 2.617 . S
Tb924 N959 2.572 . S
Tb924 O968 2.465 . S
Tb924 O969 2.387 . S
Tb924 O971 2.428 . S
Tb924 O972 2.308 . S
Tb924 O976 2.349 . S
Tb924 O979 2.393 . S
Tb924 C988 2.802 1_545 S
C925 N926 1.379 . S
C925 C928 1.416 . S
C925 C932 1.424 . S
N926 C925 1.379 . S
N926 C929 1.334 1_556 S
N926 Tb935 2.617 . S
C927 C929 1.390 . S
C927 C930 1.339 . S
C927 H947 0.930 . S
C928 C925 1.416 . S
C928 C930 1.416 1_556 S
C928 C934 1.448 1_655 S
C929 N926 1.334 1_554 S
C929 C927 1.390 . S
C929 H940 0.930 . S
C930 C927 1.339 . S
C930 C928 1.416 1_554 S
C930 H951 0.930 . S
C931 C932 1.413 1_455 S
C931 C933 1.427 . S
C931 C937 1.416 . S
C932 C925 1.424 . S
C932 C931 1.413 1_655 S
C932 N936 1.361 . S
C933 C931 1.427 . S
C933 C934 1.328 . S
C933 H948 0.929 . S
C934 C928 1.448 1_455 S
C934 C933 1.328 . S
C934 H949 0.930 1_556 S
Tb935 N926 2.617 . S
Tb935 N936 2.572 . S
Tb935 O970 2.349 . S
Tb935 O973 2.393 . S
Tb935 O974 2.465 . S
Tb935 O975 2.387 . S
Tb935 O977 2.428 . S
Tb935 O978 2.308 . S
Tb935 C999 2.802 . S
N936 C932 1.361 . S
N936 Tb935 2.572 . S
N936 C938 1.340 . S
C937 C931 1.416 . S
C937 C939 1.332 1_455 S
C937 H945 0.931 . S
C938 N936 1.340 . S
C938 C939 1.407 . S
C938 H944 0.930 . S
C939 C937 1.332 1_655 S
C939 C938 1.407 . S
C939 H941 0.929 1_655 S
H940 C929 0.930 . S
H941 C939 0.929 1_455 S
H942 C957 0.930 . S
H943 C964 0.929 . S
H944 C938 0.930 . S
H945 C937 0.931 . S
H946 C960 0.932 1_545 S
H947 C927 0.930 . S
H948 C933 0.929 . S
H949 C934 0.930 1_554 S
H950 C955 0.930 . S
H951 C930 0.930 . S
H952 C963 0.931 . S
N953 Tb924 2.617 . S
N953 C954 1.379 . S
N953 C957 1.334 . S
C954 N953 1.379 . S
C954 C956 1.416 . S
C954 C962 1.424 1_545 S
C955 H950 0.930 . S
C955 C957 1.390 . S
C955 C958 1.339 . S
C956 C954 1.416 . S
C956 C958 1.416 . S
C956 C989 1.448 1_545 S
C957 H942 0.930 . S
C957 N953 1.334 . S
C957 C955 1.390 . S
C958 C955 1.339 . S
C958 C956 1.416 . S
C958 H965 0.930 . S
N959 Tb924 2.572 . S
N959 C960 1.340 1_545 S
N959 C962 1.361 1_545 S
C960 H946 0.932 1_565 S
C960 N959 1.340 1_565 S
C960 C964 1.407 . S
C961 C962 1.413 . S
C961 C963 1.416 . S
C961 C990 1.427 . S
C962 C954 1.424 1_565 S
C962 N959 1.361 1_565 S
C962 C961 1.413 . S
C963 H952 0.931 . S
C963 C961 1.416 . S
C963 C964 1.332 . S
C964 H943 0.929 . S
C964 C960 1.407 . S
C964 C963 1.332 . S
H965 C958 0.930 . S
H966 C989 0.930 . S
H967 C990 0.929 . S
O968 Tb924 2.465 . S
O968 C988 1.264 1_545 S
O969 Tb924 2.387 . S
O969 C980 1.264 . S
O970 Tb935 2.349 . S
O970 C980 1.243 . S
O971 Tb924 2.428 . S
O971 C988 1.256 1_545 S
O972 Tb924 2.308 . S
O972 C987 1.266 . S
O973 Tb935 2.393 . S
O973 C987 1.248 . S
O974 Tb935 2.465 . S
O974 C999 1.264 . S
O975 Tb935 2.387 . S
O975 C991 1.264 . S
O976 Tb924 2.349 . S
O976 C991 1.243 . S
O977 Tb935 2.428 . S
O977 C999 1.256 . S
O978 Tb935 2.308 . S
O978 C998 1.266 . S
O979 Tb924 2.393 . S
O979 C998 1.248 . S
C980 O969 1.264 . S
C980 O970 1.243 . S
C981 C984 1.399 . S
C981 C986 1.383 . S
C981 C988 1.496 . S
C982 C983 1.399 . S
C982 C986 1.389 . S
C983 C982 1.399 . S
C983 C985 1.380 . S
C983 H1000 0.929 . S
C984 C981 1.399 . S
C984 C985 1.392 . S
C984 H1001 0.929 . S
C985 C983 1.380 . S
C985 C984 1.392 . S
C985 H1002 0.929 . S
C986 C981 1.383 . S
C986 C982 1.389 . S
C986 H1003 0.931 . S
C987 O972 1.266 . S
C987 O973 1.248 . S
C988 Tb924 2.802 1_565 S
C988 O968 1.264 1_565 S
C988 O971 1.256 1_565 S
C988 C981 1.496 . S
C989 C956 1.448 1_565 S
C989 H966 0.930 . S
C989 C990 1.328 . S
C990 C961 1.427 . S
C990 H967 0.929 . S
C990 C989 1.328 . S
C991 O975 1.264 . S
C991 O976 1.243 . S
C992 C995 1.399 . S
C992 C996 1.383 . S
C992 C999 1.496 . S
C993 C994 1.399 . S
C993 C996 1.389 . S
C994 C993 1.399 . S
C994 C997 1.380 . S
C994 H1004 0.929 . S
C995 C992 1.399 . S
C995 C997 1.392 . S
C995 H1005 0.929 . S
C996 C992 1.383 . S
C996 C993 1.389 . S
C996 H1006 0.931 . S
C997 C994 1.380 . S
C997 C995 1.392 . S
C997 H1007 0.929 . S
C998 O978 1.266 . S
C998 O979 1.248 . S
C999 Tb935 2.802 . S
C999 O974 1.264 . S
C999 O977 1.256 . S
C999 C992 1.496 . S
H1000 C983 0.929 . S
H1001 C984 0.929 . S
H1002 C985 0.929 . S
H1003 C986 0.931 . S
H1004 C994 0.929 . S
H1005 C995 0.929 . S
H1006 C996 0.931 . S
H1007 C997 0.929 . S
C1008 C1009 1.369 . S
C1008 C1010 1.419 1_565 S
C1008 H1012 0.930 . S
C1009 C1008 1.369 . S
C1009 C1018 1.429 . S
C1010 C1008 1.419 1_545 S
C1010 C1011 1.363 . S
C1010 H1013 0.929 . S
C1011 C1010 1.363 . S
C1011 C1017 1.428 . S
H1012 C1008 0.930 . S
H1013 C1010 0.929 . S
S1014 N1015 1.613 . S
S1014 N1016 1.610 1_565 S
N1015 S1014 1.613 . S
N1015 C1018 1.350 . S
N1016 S1014 1.610 1_545 S
N1016 C1017 1.351 . S
C1017 C1011 1.428 . S
C1017 N1016 1.351 . S
C1017 C1018 1.434 1_545 S
C1018 C1009 1.429 . S
C1018 N1015 1.350 . S
C1018 C1017 1.434 1_565 S
C1019 C1020 1.369 . S
C1019 C1021 1.419 . S
C1019 H1023 0.930 . S
C1020 C1019 1.369 . S
C1020 C1029 1.429 . S
C1021 C1019 1.419 . S
C1021 C1022 1.363 . S
C1021 H1024 0.929 . S
C1022 C1021 1.363 . S
C1022 C1028 1.428 . S
H1023 C1019 0.930 . S
H1024 C1021 0.929 . S
S1025 N1026 1.613 . S
S1025 N1027 1.610 . S
N1026 S1025 1.613 . S
N1026 C1029 1.350 . S
N1027 S1025 1.610 . S
N1027 C1028 1.351 . S
C1028 C1022 1.428 . S
C1028 N1027 1.351 . S
C1028 C1029 1.434 . S
C1029 C1020 1.429 . S
C1029 N1026 1.350 . S
C1029 C1028 1.434 . S
C1030 C1031 1.369 . S
C1030 C1032 1.419 1_655 S
C1030 H1034 0.930 . S
C1031 C1030 1.369 . S
C1031 C1040 1.429 . S
C1032 C1030 1.419 1_455 S
C1032 C1033 1.363 . S
C1032 H1035 0.929 . S
C1033 C1032 1.363 . S
C1033 C1039 1.428 . S
H1034 C1030 0.930 . S
H1035 C1032 0.929 . S
S1036 N1037 1.613 1_455 S
S1036 N1038 1.610 . S
N1037 S1036 1.613 1_655 S
N1037 C1040 1.350 . S
N1038 S1036 1.610 . S
N1038 C1039 1.351 . S
C1039 C1033 1.428 . S
C1039 N1038 1.351 . S
C1039 C1040 1.434 1_455 S
C1040 C1031 1.429 . S
C1040 N1037 1.350 . S
C1040 C1039 1.434 1_655 S
C1041 C1042 1.369 . S
C1041 C1043 1.419 1_565 S
C1041 H1045 0.930 . S
C1042 C1041 1.369 . S
C1042 C1051 1.429 . S
C1043 C1041 1.419 1_545 S
C1043 C1044 1.363 . S
C1043 H1046 0.929 . S
C1044 C1043 1.363 . S
C1044 C1050 1.428 . S
H1045 C1041 0.930 . S
H1046 C1043 0.929 . S
S1047 N1048 1.613 1_545 S
S1047 N1049 1.610 . S
N1048 S1047 1.613 1_565 S
N1048 C1051 1.350 . S
N1049 S1047 1.610 . S
N1049 C1050 1.351 . S
C1050 C1044 1.428 . S
C1050 N1049 1.351 . S
C1050 C1051 1.434 1_545 S
C1051 C1042 1.429 . S
C1051 N1048 1.350 . S
C1051 C1050 1.434 1_565 S
C1052 C1053 1.369 . S
C1052 C1054 1.419 . S
C1052 H1056 0.930 . S
C1053 C1052 1.369 . S
C1053 C1062 1.429 . S
C1054 C1052 1.419 . S
C1054 C1055 1.363 . S
C1054 H1057 0.929 . S
C1055 C1054 1.363 . S
C1055 C1061 1.428 . S
H1056 C1052 0.930 . S
H1057 C1054 0.929 . S
S1058 N1059 1.613 . S
S1058 N1060 1.610 . S
N1059 S1058 1.613 . S
N1059 C1062 1.350 . S
N1060 S1058 1.610 . S
N1060 C1061 1.351 . S
C1061 C1055 1.428 . S
C1061 N1060 1.351 . S
C1061 C1062 1.434 . S
C1062 C1053 1.429 . S
C1062 N1059 1.350 . S
C1062 C1061 1.434 . S
C1063 C1064 1.369 . S
C1063 C1065 1.419 1_655 S
C1063 H1067 0.930 . S
C1064 C1063 1.369 . S
C1064 C1073 1.429 . S
C1065 C1063 1.419 1_455 S
C1065 C1066 1.363 . S
C1065 H1068 0.929 . S
C1066 C1065 1.363 . S
C1066 C1072 1.428 . S
H1067 C1063 0.930 . S
H1068 C1065 0.929 . S
S1069 N1070 1.613 . S
S1069 N1071 1.610 1_655 S
N1070 S1069 1.613 . S
N1070 C1073 1.350 . S
N1071 S1069 1.610 1_455 S
N1071 C1072 1.351 . S
C1072 C1066 1.428 . S
C1072 N1071 1.351 . S
C1072 C1073 1.434 1_455 S
C1073 C1064 1.429 . S
C1073 N1070 1.350 . S
C1073 C1072 1.434 1_655 S
C1074 C1075 1.369 . S
C1074 C1076 1.419 1_455 S
C1074 H1078 0.930 . S
C1075 C1074 1.369 . S
C1075 C1084 1.429 . S
C1076 C1074 1.419 1_655 S
C1076 C1077 1.363 . S
C1076 H1079 0.929 . S
C1077 C1076 1.363 . S
C1077 C1083 1.428 . S
H1078 C1074 0.930 . S
H1079 C1076 0.929 . S
S1080 N1081 1.613 . S
S1080 N1082 1.610 1_455 S
N1081 S1080 1.613 . S
N1081 C1084 1.350 . S
N1082 S1080 1.610 1_655 S
N1082 C1083 1.351 . S
C1083 C1077 1.428 . S
C1083 N1082 1.351 . S
C1083 C1084 1.434 1_655 S
C1084 C1075 1.429 . S
C1084 N1081 1.350 . S
C1084 C1083 1.434 1_455 S
C1085 C1086 1.369 . S
C1085 C1087 1.419 1_565 S
C1085 H1089 0.930 . S
C1086 C1085 1.369 . S
C1086 C1095 1.429 . S
C1087 C1085 1.419 1_545 S
C1087 C1088 1.363 . S
C1087 H1090 0.929 . S
C1088 C1087 1.363 . S
C1088 C1094 1.428 . S
H1089 C1085 0.930 . S
H1090 C1087 0.929 . S
S1091 N1092 1.613 1_545 S
S1091 N1093 1.610 . S
N1092 S1091 1.613 1_565 S
N1092 C1095 1.350 . S
N1093 S1091 1.610 . S
N1093 C1094 1.351 . S
C1094 C1088 1.428 . S
C1094 N1093 1.351 . S
C1094 C1095 1.434 1_545 S
C1095 C1086 1.429 . S
C1095 N1092 1.350 . S
C1095 C1094 1.434 1_565 S
C1096 C1097 1.369 . S
C1096 C1098 1.419 . S
C1096 H1100 0.930 . S
C1097 C1096 1.369 . S
C1097 C1106 1.429 . S
C1098 C1096 1.419 . S
C1098 C1099 1.363 . S
C1098 H1101 0.929 . S
C1099 C1098 1.363 . S
C1099 C1105 1.428 . S
H1100 C1096 0.930 . S
H1101 C1098 0.929 . S
S1102 N1103 1.613 . S
S1102 N1104 1.610 . S
N1103 S1102 1.613 . S
N1103 C1106 1.350 . S
N1104 S1102 1.610 . S
N1104 C1105 1.351 . S
C1105 C1099 1.428 . S
C1105 N1104 1.351 . S
C1105 C1106 1.434 . S
C1106 C1097 1.429 . S
C1106 N1103 1.350 . S
C1106 C1105 1.434 . S
C1107 C1108 1.369 . S
C1107 C1109 1.419 1_455 S
C1107 H1111 0.930 . S
C1108 C1107 1.369 . S
C1108 C1117 1.429 . S
C1109 C1107 1.419 1_655 S
C1109 C1110 1.363 . S
C1109 H1112 0.929 . S
C1110 C1109 1.363 . S
C1110 C1116 1.428 . S
H1111 C1107 0.930 . S
H1112 C1109 0.929 . S
S1113 N1114 1.613 1_655 S
S1113 N1115 1.610 . S
N1114 S1113 1.613 1_455 S
N1114 C1117 1.350 . S
N1115 S1113 1.610 . S
N1115 C1116 1.351 . S
C1116 C1110 1.428 . S
C1116 N1115 1.351 . S
C1116 C1117 1.434 1_655 S
C1117 C1108 1.429 . S
C1117 N1114 1.350 . S
C1117 C1116 1.434 1_455 S
C1118 C1119 1.369 . S
C1118 C1120 1.419 1_545 S
C1118 H1122 0.930 . S
C1119 C1118 1.369 . S
C1119 C1128 1.429 . S
C1120 C1118 1.419 1_565 S
C1120 C1121 1.363 . S
C1120 H1123 0.929 . S
C1121 C1120 1.363 . S
C1121 C1127 1.428 . S
H1122 C1118 0.930 . S
H1123 C1120 0.929 . S
S1124 N1125 1.609 1_565 S
S1124 N1126 1.615 . S
N1125 S1124 1.609 1_545 S
N1125 C1128 1.350 . S
N1126 S1124 1.615 . S
N1126 C1127 1.351 . S
C1127 C1121 1.428 . S
C1127 N1126 1.351 . S
C1127 C1128 1.434 1_565 S
C1128 C1119 1.429 . S
C1128 N1125 1.350 . S
C1128 C1127 1.434 1_545 S
C1129 C1130 1.369 . S
C1129 C1131 1.419 . S
C1129 H1133 0.930 . S
C1130 C1129 1.369 . S
C1130 C1139 1.429 . S
C1131 C1129 1.419 . S
C1131 C1132 1.363 . S
C1131 H1134 0.929 . S
C1132 C1131 1.363 . S
C1132 C1138 1.428 . S
H1133 C1129 0.930 . S
H1134 C1131 0.929 . S
S1135 N1136 1.613 . S
S1135 N1137 1.610 . S
N1136 S1135 1.613 . S
N1136 C1139 1.350 . S
N1137 S1135 1.610 . S
N1137 C1138 1.351 . S
C1138 C1132 1.428 . S
C1138 N1137 1.351 . S
C1138 C1139 1.434 . S
C1139 C1130 1.429 . S
C1139 N1136 1.350 . S
C1139 C1138 1.434 . S
C1140 C1141 1.369 . S
C1140 C1142 1.419 . S
C1140 H1144 0.930 . S
C1141 C1140 1.369 . S
C1141 C1150 1.429 . S
C1142 C1140 1.419 . S
C1142 C1143 1.363 . S
C1142 H1145 0.929 . S
C1143 C1142 1.363 . S
C1143 C1149 1.428 . S
H1144 C1140 0.930 . S
H1145 C1142 0.929 . S
S1146 N1147 1.613 . S
S1146 N1148 1.610 . S
N1147 S1146 1.613 . S
N1147 C1150 1.350 . S
N1148 S1146 1.610 . S
N1148 C1149 1.351 . S
C1149 C1143 1.428 . S
C1149 N1148 1.351 . S
C1149 C1150 1.434 . S
C1150 C1141 1.429 . S
C1150 N1147 1.350 . S
C1150 C1149 1.434 . S
C1151 C1152 1.369 . S
C1151 C1153 1.419 . S
C1151 H1155 0.930 . S
C1152 C1151 1.369 . S
C1152 C1161 1.429 . S
C1153 C1151 1.419 . S
C1153 C1154 1.363 . S
C1153 H1156 0.929 . S
C1154 C1153 1.363 . S
C1154 C1160 1.428 . S
H1155 C1151 0.930 . S
H1156 C1153 0.929 . S
S1157 N1158 1.613 . S
S1157 N1159 1.610 . S
N1158 S1157 1.613 . S
N1158 C1161 1.350 . S
N1159 S1157 1.610 . S
N1159 C1160 1.351 . S
C1160 C1154 1.428 . S
C1160 N1159 1.351 . S
C1160 C1161 1.434 . S
C1161 C1152 1.429 . S
C1161 N1158 1.350 . S
C1161 C1160 1.434 . S
C1162 C1163 1.369 . S
C1162 C1164 1.419 . S
C1162 H1166 0.930 . S
C1163 C1162 1.369 . S
C1163 C1172 1.429 . S
C1164 C1162 1.419 . S
C1164 C1165 1.363 . S
C1164 H1167 0.929 . S
C1165 C1164 1.363 . S
C1165 C1171 1.428 . S
H1166 C1162 0.930 . S
H1167 C1164 0.929 . S
S1168 N1169 1.613 . S
S1168 N1170 1.610 . S
N1169 S1168 1.613 . S
N1169 C1172 1.350 . S
N1170 S1168 1.610 . S
N1170 C1171 1.351 . S
C1171 C1165 1.428 . S
C1171 N1170 1.351 . S
C1171 C1172 1.434 . S
C1172 C1163 1.429 . S
C1172 N1169 1.350 . S
C1172 C1171 1.434 . S
C1173 C1174 1.369 . S
C1173 C1175 1.419 . S
C1173 H1177 0.930 . S
C1174 C1173 1.369 . S
C1174 C1183 1.429 . S
C1175 C1173 1.419 . S
C1175 C1176 1.363 . S
C1175 H1178 0.929 . S
C1176 C1175 1.363 . S
C1176 C1182 1.428 . S
H1177 C1173 0.930 . S
H1178 C1175 0.929 . S
S1179 N1180 1.613 . S
S1179 N1181 1.610 . S
N1180 S1179 1.613 . S
N1180 C1183 1.350 . S
N1181 S1179 1.610 . S
N1181 C1182 1.351 . S
C1182 C1176 1.428 . S
C1182 N1181 1.351 . S
C1182 C1183 1.434 . S
C1183 C1174 1.429 . S
C1183 N1180 1.350 . S
C1183 C1182 1.434 . S
C1184 C1185 1.369 . S
C1184 C1186 1.419 . S
C1184 H1188 0.930 . S
C1185 C1184 1.369 . S
C1185 C1194 1.429 . S
C1186 C1184 1.419 . S
C1186 C1187 1.363 . S
C1186 H1189 0.929 . S
C1187 C1186 1.363 . S
C1187 C1193 1.428 . S
H1188 C1184 0.930 . S
H1189 C1186 0.929 . S
S1190 N1191 1.613 . S
S1190 N1192 1.610 . S
N1191 S1190 1.613 . S
N1191 C1194 1.350 . S
N1192 S1190 1.610 . S
N1192 C1193 1.351 . S
C1193 C1187 1.428 . S
C1193 N1192 1.351 . S
C1193 C1194 1.434 . S
C1194 C1185 1.429 . S
C1194 N1191 1.350 . S
C1194 C1193 1.434 . S
C1195 C1196 1.369 . S
C1195 C1197 1.419 . S
C1195 H1199 0.930 . S
C1196 C1195 1.369 . S
C1196 C1205 1.429 . S
C1197 C1195 1.419 . S
C1197 C1198 1.363 . S
C1197 H1200 0.929 . S
C1198 C1197 1.363 . S
C1198 C1204 1.428 . S
H1199 C1195 0.930 . S
H1200 C1197 0.929 . S
S1201 N1202 1.613 . S
S1201 N1203 1.610 . S
N1202 S1201 1.613 . S
N1202 C1205 1.350 . S
N1203 S1201 1.610 . S
N1203 C1204 1.351 . S
C1204 C1198 1.428 . S
C1204 N1203 1.351 . S
C1204 C1205 1.434 . S
C1205 C1196 1.429 . S
C1205 N1202 1.350 . S
C1205 C1204 1.434 . S
C1206 C1207 1.369 . S
C1206 C1208 1.419 . S
C1206 H1210 0.930 . S
C1207 C1206 1.369 . S
C1207 C1216 1.429 . S
C1208 C1206 1.419 . S
C1208 C1209 1.363 . S
C1208 H1211 0.929 . S
C1209 C1208 1.363 . S
C1209 C1215 1.428 . S
H1210 C1206 0.930 . S
H1211 C1208 0.929 . S
S1212 N1213 1.613 . S
S1212 N1214 1.610 . S
N1213 S1212 1.613 . S
N1213 C1216 1.350 . S
N1214 S1212 1.610 . S
N1214 C1215 1.351 . S
C1215 C1209 1.428 . S
C1215 N1214 1.351 . S
C1215 C1216 1.434 . S
C1216 C1207 1.429 . S
C1216 N1213 1.350 . S
C1216 C1215 1.434 . S
C1217 C1218 1.369 . S
C1217 C1219 1.419 . S
C1217 H1221 0.930 . S
C1218 C1217 1.369 . S
C1218 C1227 1.429 . S
C1219 C1217 1.419 . S
C1219 C1220 1.363 . S
C1219 H1222 0.929 . S
C1220 C1219 1.363 . S
C1220 C1226 1.428 . S
H1221 C1217 0.930 . S
H1222 C1219 0.929 . S
S1223 N1224 1.613 . S
S1223 N1225 1.610 . S
N1224 S1223 1.613 . S
N1224 C1227 1.350 . S
N1225 S1223 1.610 . S
N1225 C1226 1.351 . S
C1226 C1220 1.428 . S
C1226 N1225 1.351 . S
C1226 C1227 1.434 . S
C1227 C1218 1.429 . S
C1227 N1224 1.350 . S
C1227 C1226 1.434 . S
C1228 C1229 1.369 . S
C1228 C1230 1.419 . S
C1228 H1232 0.930 . S
C1229 C1228 1.369 . S
C1229 C1238 1.429 . S
C1230 C1228 1.419 . S
C1230 C1231 1.363 . S
C1230 H1233 0.929 . S
C1231 C1230 1.363 . S
C1231 C1237 1.428 . S
H1232 C1228 0.930 . S
H1233 C1230 0.929 . S
S1234 N1235 1.613 . S
S1234 N1236 1.610 . S
N1235 S1234 1.613 . S
N1235 C1238 1.350 . S
N1236 S1234 1.610 . S
N1236 C1237 1.351 . S
C1237 C1231 1.428 . S
C1237 N1236 1.351 . S
C1237 C1238 1.434 . S
C1238 C1229 1.429 . S
C1238 N1235 1.350 . S
C1238 C1237 1.434 . S
C1239 C1240 1.369 . S
C1239 C1241 1.419 . S
C1239 H1243 0.930 . S
C1240 C1239 1.369 . S
C1240 C1249 1.429 . S
C1241 C1239 1.419 . S
C1241 C1242 1.363 . S
C1241 H1244 0.929 . S
C1242 C1241 1.363 . S
C1242 C1248 1.428 . S
H1243 C1239 0.930 . S
H1244 C1241 0.929 . S
S1245 N1246 1.613 . S
S1245 N1247 1.610 . S
N1246 S1245 1.613 . S
N1246 C1249 1.350 . S
N1247 S1245 1.610 . S
N1247 C1248 1.351 . S
C1248 C1242 1.428 . S
C1248 N1247 1.351 . S
C1248 C1249 1.434 . S
C1249 C1240 1.429 . S
C1249 N1246 1.350 . S
C1249 C1248 1.434 . S
C1250 C1251 1.369 . S
C1250 C1252 1.419 . S
C1250 H1254 0.930 . S
C1251 C1250 1.369 . S
C1251 C1260 1.429 . S
C1252 C1250 1.419 . S
C1252 C1253 1.363 . S
C1252 H1255 0.929 . S
C1253 C1252 1.363 . S
C1253 C1259 1.428 . S
H1254 C1250 0.930 . S
H1255 C1252 0.929 . S
S1256 N1257 1.613 . S
S1256 N1258 1.610 . S
N1257 S1256 1.613 . S
N1257 C1260 1.350 . S
N1258 S1256 1.610 . S
N1258 C1259 1.351 . S
C1259 C1253 1.428 . S
C1259 N1258 1.351 . S
C1259 C1260 1.434 . S
C1260 C1251 1.429 . S
C1260 N1257 1.350 . S
C1260 C1259 1.434 . S
C1261 C1262 1.369 . S
C1261 C1263 1.419 . S
C1261 H1265 0.930 . S
C1262 C1261 1.369 . S
C1262 C1271 1.429 . S
C1263 C1261 1.419 . S
C1263 C1264 1.363 . S
C1263 H1266 0.929 . S
C1264 C1263 1.363 . S
C1264 C1270 1.428 . S
H1265 C1261 0.930 . S
H1266 C1263 0.929 . S
S1267 N1268 1.613 . S
S1267 N1269 1.610 . S
N1268 S1267 1.613 . S
N1268 C1271 1.350 . S
N1269 S1267 1.610 . S
N1269 C1270 1.351 . S
C1270 C1264 1.428 . S
C1270 N1269 1.351 . S
C1270 C1271 1.434 . S
C1271 C1262 1.429 . S
C1271 N1268 1.350 . S
C1271 C1270 1.434 . S
C1272 C1273 1.369 . S
C1272 C1274 1.419 . S
C1272 H1276 0.930 . S
C1273 C1272 1.369 . S
C1273 C1282 1.429 . S
C1274 C1272 1.419 . S
C1274 C1275 1.363 . S
C1274 H1277 0.929 . S
C1275 C1274 1.363 . S
C1275 C1281 1.428 . S
H1276 C1272 0.930 . S
H1277 C1274 0.929 . S
S1278 N1279 1.613 . S
S1278 N1280 1.610 . S
N1279 S1278 1.613 . S
N1279 C1282 1.350 . S
N1280 S1278 1.610 . S
N1280 C1281 1.351 . S
C1281 C1275 1.428 . S
C1281 N1280 1.351 . S
C1281 C1282 1.434 . S
C1282 C1273 1.429 . S
C1282 N1279 1.350 . S
C1282 C1281 1.434 . S
C1283 C1284 1.369 . S
C1283 C1285 1.419 . S
C1283 H1287 0.930 . S
C1284 C1283 1.369 . S
C1284 C1293 1.429 . S
C1285 C1283 1.419 . S
C1285 C1286 1.363 . S
C1285 H1288 0.929 . S
C1286 C1285 1.363 . S
C1286 C1292 1.428 . S
H1287 C1283 0.930 . S
H1288 C1285 0.929 . S
S1289 N1290 1.613 . S
S1289 N1291 1.610 . S
N1290 S1289 1.613 . S
N1290 C1293 1.350 . S
N1291 S1289 1.610 . S
N1291 C1292 1.351 . S
C1292 C1286 1.428 . S
C1292 N1291 1.351 . S
C1292 C1293 1.434 . S
C1293 C1284 1.429 . S
C1293 N1290 1.350 . S
C1293 C1292 1.434 . S
C1294 C1295 1.369 . S
C1294 C1296 1.419 . S
C1294 H1298 0.930 . S
C1295 C1294 1.369 . S
C1295 C1304 1.429 . S
C1296 C1294 1.419 . S
C1296 C1297 1.363 . S
C1296 H1299 0.929 . S
C1297 C1296 1.363 . S
C1297 C1303 1.428 . S
H1298 C1294 0.930 . S
H1299 C1296 0.929 . S
S1300 N1301 1.613 . S
S1300 N1302 1.610 . S
N1301 S1300 1.613 . S
N1301 C1304 1.350 . S
N1302 S1300 1.610 . S
N1302 C1303 1.351 . S
C1303 C1297 1.428 . S
C1303 N1302 1.351 . S
C1303 C1304 1.434 . S
C1304 C1295 1.429 . S
C1304 N1301 1.350 . S
C1304 C1303 1.434 . S
C1305 C1306 1.369 . S
C1305 C1307 1.419 . S
C1305 H1309 0.930 . S
C1306 C1305 1.369 . S
C1306 C1315 1.429 . S
C1307 C1305 1.419 . S
C1307 C1308 1.363 . S
C1307 H1310 0.929 . S
C1308 C1307 1.363 . S
C1308 C1314 1.428 . S
H1309 C1305 0.930 . S
H1310 C1307 0.929 . S
S1311 N1312 1.613 . S
S1311 N1313 1.610 . S
N1312 S1311 1.613 . S
N1312 C1315 1.350 . S
N1313 S1311 1.610 . S
N1313 C1314 1.351 . S
C1314 C1308 1.428 . S
C1314 N1313 1.351 . S
C1314 C1315 1.434 . S
C1315 C1306 1.429 . S
C1315 N1312 1.350 . S
C1315 C1314 1.434 . S
C1316 C1317 1.369 . S
C1316 C1318 1.419 . S
C1316 H1320 0.930 . S
C1317 C1316 1.369 . S
C1317 C1326 1.429 . S
C1318 C1316 1.419 . S
C1318 C1319 1.363 . S
C1318 H1321 0.929 . S
C1319 C1318 1.363 . S
C1319 C1325 1.428 . S
H1320 C1316 0.930 . S
H1321 C1318 0.929 . S
S1322 N1323 1.613 . S
S1322 N1324 1.610 . S
N1323 S1322 1.613 . S
N1323 C1326 1.350 . S
N1324 S1322 1.610 . S
N1324 C1325 1.351 . S
C1325 C1319 1.428 . S
C1325 N1324 1.351 . S
C1325 C1326 1.434 . S
C1326 C1317 1.429 . S
C1326 N1323 1.350 . S
C1326 C1325 1.434 . S
C1327 C1328 1.369 . S
C1327 C1329 1.419 . S
C1327 H1331 0.930 . S
C1328 C1327 1.369 . S
C1328 C1337 1.429 . S
C1329 C1327 1.419 . S
C1329 C1330 1.363 . S
C1329 H1332 0.929 . S
C1330 C1329 1.363 . S
C1330 C1336 1.428 . S
H1331 C1327 0.930 . S
H1332 C1329 0.929 . S
S1333 N1334 1.613 . S
S1333 N1335 1.610 . S
N1334 S1333 1.613 . S
N1334 C1337 1.350 . S
N1335 S1333 1.610 . S
N1335 C1336 1.351 . S
C1336 C1330 1.428 . S
C1336 N1335 1.351 . S
C1336 C1337 1.434 . S
C1337 C1328 1.429 . S
C1337 N1334 1.350 . S
C1337 C1336 1.434 . S
C1338 C1339 1.369 1_554 S
C1338 C1340 1.419 . S
C1338 H1342 0.930 . S
C1339 C1338 1.369 1_556 S
C1339 C1348 1.429 . S
C1340 C1338 1.419 . S
C1340 C1341 1.363 . S
C1340 H1343 0.929 . S
C1341 C1340 1.363 . S
C1341 C1347 1.428 1_554 S
H1342 C1338 0.930 . S
H1343 C1340 0.929 . S
S1344 N1345 1.613 . S
S1344 N1346 1.610 . S
N1345 S1344 1.613 . S
N1345 C1348 1.350 . S
N1346 S1344 1.610 . S
N1346 C1347 1.351 . S
C1347 C1341 1.428 1_556 S
C1347 N1346 1.351 . S
C1347 C1348 1.434 . S
C1348 C1339 1.429 . S
C1348 N1345 1.350 . S
C1348 C1347 1.434 . S
C1349 C1350 1.369 . S
C1349 C1351 1.419 1_455 S
C1349 H1353 0.930 . S
C1350 C1349 1.369 . S
C1350 C1359 1.429 . S
C1351 C1349 1.419 1_655 S
C1351 C1352 1.363 . S
C1351 H1354 0.929 . S
C1352 C1351 1.363 . S
C1352 C1358 1.428 . S
H1353 C1349 0.930 . S
H1354 C1351 0.929 . S
S1355 N1356 1.613 1_655 S
S1355 N1357 1.610 . S
N1356 S1355 1.613 1_455 S
N1356 C1359 1.350 . S
N1357 S1355 1.610 . S
N1357 C1358 1.351 . S
C1358 C1352 1.428 . S
C1358 N1357 1.351 . S
C1358 C1359 1.434 1_655 S
C1359 C1350 1.429 . S
C1359 N1356 1.350 . S
C1359 C1358 1.434 1_455 S
C1360 C1361 1.369 . S
C1360 C1362 1.419 1_565 S
C1360 H1364 0.930 . S
C1361 C1360 1.369 . S
C1361 C1370 1.429 1_554 S
C1362 C1360 1.419 1_545 S
C1362 C1363 1.363 1_554 S
C1362 H1365 0.929 . S
C1363 C1362 1.363 1_556 S
C1363 C1369 1.428 . S
H1364 C1360 0.930 . S
H1365 C1362 0.929 . S
S1366 N1367 1.613 . S
S1366 N1368 1.610 1_565 S
N1367 S1366 1.613 . S
N1367 C1370 1.350 . S
N1368 S1366 1.610 1_545 S
N1368 C1369 1.351 . S
C1369 C1363 1.428 . S
C1369 N1368 1.351 . S
C1369 C1370 1.434 1_545 S
C1370 C1361 1.429 1_556 S
C1370 N1367 1.350 . S
C1370 C1369 1.434 1_565 S
C1371 C1372 1.369 . S
C1371 C1373 1.419 . S
C1371 H1375 0.930 . S
C1372 C1371 1.369 . S
C1372 C1381 1.429 . S
C1373 C1371 1.419 . S
C1373 C1374 1.363 . S
C1373 H1376 0.929 . S
C1374 C1373 1.363 . S
C1374 C1380 1.428 . S
H1375 C1371 0.930 . S
H1376 C1373 0.929 . S
S1377 N1378 1.613 . S
S1377 N1379 1.610 . S
N1378 S1377 1.613 . S
N1378 C1381 1.350 . S
N1379 S1377 1.610 . S
N1379 C1380 1.351 . S
C1380 C1374 1.428 . S
C1380 N1379 1.351 . S
C1380 C1381 1.434 . S
C1381 C1372 1.429 . S
C1381 N1378 1.350 . S
C1381 C1380 1.434 . S
C1382 C1383 1.369 . S
C1382 C1384 1.419 1_655 S
C1382 H1386 0.930 . S
C1383 C1382 1.369 . S
C1383 C1392 1.429 1_556 S
C1384 C1382 1.419 1_455 S
C1384 C1385 1.363 1_556 S
C1384 H1387 0.929 . S
C1385 C1384 1.363 1_554 S
C1385 C1391 1.428 . S
H1386 C1382 0.930 . S
H1387 C1384 0.929 . S
S1388 N1389 1.613 . S
S1388 N1390 1.610 1_655 S
N1389 S1388 1.613 . S
N1389 C1392 1.350 . S
N1390 S1388 1.610 1_455 S
N1390 C1391 1.351 . S
C1391 C1385 1.428 . S
C1391 N1390 1.351 . S
C1391 C1392 1.434 1_455 S
C1392 C1383 1.429 1_554 S
C1392 N1389 1.350 . S
C1392 C1391 1.434 1_655 S
C1393 C1394 1.369 . S
C1393 C1395 1.419 1_565 S
C1393 H1397 0.930 . S
C1394 C1393 1.369 . S
C1394 C1403 1.429 . S
C1395 C1393 1.419 1_545 S
C1395 C1396 1.363 . S
C1395 H1398 0.929 . S
C1396 C1395 1.363 . S
C1396 C1402 1.428 . S
H1397 C1393 0.930 . S
H1398 C1395 0.929 . S
S1399 N1400 1.613 1_545 S
S1399 N1401 1.610 . S
N1400 S1399 1.613 1_565 S
N1400 C1403 1.350 . S
N1401 S1399 1.610 . S
N1401 C1402 1.351 . S
C1402 C1396 1.428 . S
C1402 N1401 1.351 . S
C1402 C1403 1.434 1_545 S
C1403 C1394 1.429 . S
C1403 N1400 1.350 . S
C1403 C1402 1.434 1_565 S
C1009 C403 1.410 . S
C1011 C58 1.243 . S
C1020 C487 1.409 . S
C1022 C142 1.238 . S
C1031 C226 1.251 . S
C1033 C67 1.408 . S
C1042 C310 1.234 . S
C1044 C151 1.411 . S
C1053 C394 1.236 . S
C1055 C235 1.409 . S
C1064 C319 1.411 . S
C1066 C478 1.238 . S
C1075 C739 1.408 . S
C1077 C562 1.249 . S
C1086 C646 1.234 . S
C1088 C823 1.410 . S
C1097 C907 1.407 . S
C1099 C730 1.243 . S
C1108 C814 1.244 . S
C1110 C991 1.410 . S
C1119 C898 1.236 . S
C1121 C571 1.409 . S
C1130 C655 1.411 . S
C1132 C982 1.240 . S
C1141 C392 1.456 . S
C1143 C69 1.310 . S
C1152 C153 1.323 . S
C1154 C476 1.451 . S
C1163 C237 1.309 . S
C1165 C56 1.455 . S
C1174 C321 1.310 . S
C1176 C140 1.455 . S
C1185 C224 1.455 . S
C1187 C405 1.315 . S
C1196 C308 1.453 . S
C1198 C489 1.309 . S
C1207 C728 1.450 . S
C1209 C573 1.315 . S
C1218 C657 1.314 . S
C1220 C812 1.451 . S
C1229 C741 1.309 . S
C1231 C896 1.452 . S
C1240 C980 1.456 . S
C1242 C825 1.310 . S
C1251 C909 1.320 . S
C1253 C560 1.450 . S
C1262 C644 1.453 . S
C1264 C993 1.310 . S
C1273 C914 1.823 . S
C1275 C74 1.821 . S
C1284 C158 1.815 . S
C1286 C998 1.822 . S
C1295 C242 1.815 . S
C1297 C578 1.822 . S
C1306 C326 1.817 . S
C1308 C662 1.815 . S
C1317 C410 1.822 . S
C1319 C746 1.815 . S
C1328 C830 1.816 . S
C1330 C494 1.822 . S
C1339 C819 2.029 . S
C1341 C63 2.033 . S
C1350 C903 2.030 . S
C1352 C147 2.034 . S
C1361 C231 2.034 . S
C1363 C987 2.030 . S
C1372 C315 2.034 . S
C1374 C567 2.033 . S
C1383 C651 2.035 . S
C1385 C399 2.032 . S
C1394 C735 2.029 . S
C1396 C483 2.034 . S
