# Generated by pormake.
# Topology sxa, (6)-cn, num edge types: 1
# Building blocks:
#     Node 0, Type 0, BuildingBlock: PAMTOO_clean_sbu_0, # of connection points: 6
#     Node 1, Type 0, BuildingBlock: PAMTOO_clean_sbu_0, # of connection points: 6
#     Node 2, Type 0, BuildingBlock: PAMTOO_clean_sbu_0, # of connection points: 6
#     Node 3, Type 0, BuildingBlock: PAMTOO_clean_sbu_0, # of connection points: 6
#     Edge 4, Type (0, 0), BuildingBlock: ZUJKAS_clean_linker_0, # of connection points: 2
#     Edge 5, Type (0, 0), BuildingBlock: ZUJKAS_clean_linker_0, # of connection points: 2
#     Edge 6, Type (0, 0), BuildingBlock: ZUJKAS_clean_linker_0, # of connection points: 2
#     Edge 7, Type (0, 0), BuildingBlock: ZUJKAS_clean_linker_0, # of connection points: 2
#     Edge 8, Type (0, 0), BuildingBlock: ZUJKAS_clean_linker_0, # of connection points: 2
#     Edge 9, Type (0, 0), BuildingBlock: ZUJKAS_clean_linker_0, # of connection points: 2
#     Edge 10, Type (0, 0), BuildingBlock: ZUJKAS_clean_linker_0, # of connection points: 2
#     Edge 11, Type (0, 0), BuildingBlock: ZUJKAS_clean_linker_0, # of connection points: 2
#     Edge 12, Type (0, 0), BuildingBlock: ZUJKAS_clean_linker_0, # of connection points: 2
#     Edge 13, Type (0, 0), BuildingBlock: ZUJKAS_clean_linker_0, # of connection points: 2
#     Edge 14, Type (0, 0), BuildingBlock: ZUJKAS_clean_linker_0, # of connection points: 2
#     Edge 15, Type (0, 0), BuildingBlock: ZUJKAS_clean_linker_0, # of connection points: 2
# Relax obj value: 0.171
# Max RMSD: 0.259
# Mean RMSD: 0.259
data_MOF--net-sxa--node1-PAMTOO_clean_sbu_0--edge1-ZUJKAS_clean_linker_0
_symmetry_space_group_name_H-M    P1
_symmetry_Int_Tables_number       1
_symmetry_cell_setting            triclinic
loop_
_symmetry_equiv_pos_as_xyz
'x, y, z'
_cell_length_a     44.022109
_cell_length_b     36.122343
_cell_length_c     20.455266
_cell_angle_alpha  93.692962
_cell_angle_beta   119.61664
_cell_angle_gamma 80.464164
loop_
_atom_site_label
_atom_site_type_symbol
_atom_site_fract_x
_atom_site_fract_y
_atom_site_fract_z
_atom_type_partial_charge
Dy0 Dy 0.04989 0.78544 0.23339 0.0
Dy1 Dy 0.06544 0.76601 0.09363 0.0
C2 C 0.06707 0.70203 0.18561 0.0
O3 O 0.10924 0.77646 0.2871 0.0
O4 O 0.11566 0.78517 0.18373 0.0
O5 O 0.05148 0.76651 0.33401 0.0
O6 O 0.02367 0.8214 0.28577 0.0
O7 O 0.04861 0.8276 0.08523 0.0
O8 O 0.06222 0.84002 0.20762 0.0
O9 O 1.0116 0.75291 0.05991 0.0
O10 O 1.00014 0.80033 0.12626 0.0
O11 O 0.04769 0.77317 0.97571 0.0
O12 O 0.09223 0.73076 0.0425 0.0
C13 C 0.12898 0.78162 0.25732 0.0
O14 O 0.04334 0.7245 0.19707 0.0
O15 O 0.08809 0.71726 0.17192 0.0
C16 C 1.00107 0.79109 0.35032 0.0
C17 C 0.94836 0.7839 0.39032 0.0
C18 C 0.97165 0.75227 0.38892 0.0
C19 C 0.9976 0.7558 0.36937 0.0
C20 C 0.97759 0.82257 0.3509 0.0
C21 C 0.95165 0.81906 0.37027 0.0
C22 C 0.03048 0.79616 0.33593 0.0
C23 C 0.05466 0.85126 0.14003 0.0
C24 C 0.98891 0.77707 0.07075 0.0
C25 C 0.0934 0.76039 0.94593 0.0
C26 C 0.14286 0.77752 0.9088 0.0
C27 C 0.12797 0.80476 0.94142 0.0
C28 C 0.10359 0.79612 0.96051 0.0
C29 C 0.10577 0.73436 0.90757 0.0
C30 C 0.13037 0.74283 0.88906 0.0
C31 C 0.07329 0.74842 0.97777 0.0
H32 H 0.96988 0.7246 0.40292 0.0
H33 H 0.01525 0.73086 0.37019 0.0
H34 H 0.97974 0.85028 0.33781 0.0
H35 H 0.93483 0.84426 0.37163 0.0
H36 H 0.13681 0.83186 0.95642 0.0
H37 H 0.09418 0.81658 0.99015 0.0
H38 H 0.09808 0.70665 0.8961 0.0
H39 H 0.14161 0.72105 0.86484 0.0
Dy40 Dy 0.54222 0.28444 0.22872 0.0
Dy41 Dy 0.55422 0.2801 0.08353 0.0
C42 C 0.54649 0.20818 0.14273 0.0
O43 O 0.59993 0.28758 0.28027 0.0
O44 O 0.60774 0.25998 0.18391 0.0
O45 O 0.53663 0.25669 0.31215 0.0
O46 O 0.52801 0.3172 0.30553 0.0
O47 O 0.57405 0.33116 0.14394 0.0
O48 O 0.53264 0.34366 0.18061 0.0
O49 O 0.49737 0.30646 0.04166 0.0
O50 O 0.49084 0.2775 0.1293 0.0
O51 O 0.55425 0.30595 0.99106 0.0
O52 O 0.56794 0.24553 1.00941 0.0
C53 C 0.62077 0.27177 0.25385 0.0
O54 O 0.56017 0.22347 0.20978 0.0
O55 O 0.53159 0.22978 0.08295 0.0
C56 C 0.49503 0.28894 0.34808 0.0
C57 C 0.44004 0.28825 0.38405 0.0
C58 C 0.44326 0.26359 0.33059 0.0
C59 C 0.47036 0.2639 0.3129 0.0
C60 C 0.49127 0.31423 0.39966 0.0
C61 C 0.46422 0.31399 0.41724 0.0
C62 C 0.52605 0.28776 0.3361 0.0
C63 C 0.55387 0.35559 0.16086 0.0
C64 C 0.47726 0.29556 0.06523 0.0
C65 C 0.60396 0.27475 0.98363 0.0
C66 C 0.67632 0.2596 0.02804 0.0
C67 C 0.66378 0.28794 0.06296 0.0
C68 C 0.62794 0.29534 0.04118 0.0
C69 C 0.61598 0.24824 0.94516 0.0
C70 C 0.65195 0.24075 0.96708 0.0
C71 C 0.56919 0.27455 0.97651 0.0
H72 H 0.42551 0.24314 0.30391 0.0
H73 H 0.47241 0.24401 0.2728 0.0
H74 H 0.50976 0.33391 0.42758 0.0
H75 H 0.4624 0.33408 0.45725 0.0
H76 H 0.68185 0.3034 0.10912 0.0
H77 H 0.61941 0.31554 0.07261 0.0
H78 H 0.59797 0.23157 0.90169 0.0
H79 H 0.66088 0.21863 0.93935 0.0
Dy80 Dy 0.06185 0.28116 0.91051 0.0
Dy81 Dy 0.07605 0.26605 0.7684 0.0
C82 C 0.07655 0.19803 0.86399 0.0
O83 O 0.11351 0.30051 0.94183 0.0
O84 O 0.12721 0.2555 0.87428 0.0
O85 O 0.08271 0.27655 0.03032 0.0
O86 O 0.02971 0.30545 0.95959 0.0
O87 O 0.07936 0.32772 0.80206 0.0
O88 O 0.03832 0.3327 0.83946 0.0
O89 O 0.01698 0.27588 0.71662 0.0
O90 O 1.01346 0.2588 0.81898 0.0
O91 O 0.07456 0.28614 0.6689 0.0
O92 O 0.10021 0.22993 0.71208 0.0
C93 C 0.13712 0.28015 0.92751 0.0
O94 O 0.08497 0.22121 0.91989 0.0
O95 O 0.06546 0.21046 0.79507 0.0
C96 C 0.03958 0.27089 0.0629 0.0
C97 C 1.00615 0.23389 0.12026 0.0
C98 C 0.01617 0.21584 0.06929 0.0
C99 C 0.0327 0.23427 0.04064 0.0
C100 C 0.03138 0.28823 0.11656 0.0
C101 C 0.01481 0.26986 0.14518 0.0
C102 C 0.05298 0.29201 0.02661 0.0
C103 C 0.05674 0.34881 0.81906 0.0
C104 C 0.99867 0.26618 0.74611 0.0
C105 C 0.12234 0.25953 0.64656 0.0
C106 C 0.17513 0.26634 0.60732 0.0
C107 C 0.1692 0.29176 0.65678 0.0
C108 C 0.14317 0.28839 0.67623 0.0
C109 C 0.12854 0.23392 0.59826 0.0
C110 C 0.15449 0.2372 0.57898 0.0
C111 C 0.09351 0.25565 0.66293 0.0
H112 H 1.01006 0.18805 0.04952 0.0
H113 H 0.039 0.2205 0.99921 0.0
H114 H 0.03652 0.31654 0.13408 0.0
H115 H 1.00695 0.28476 0.18342 0.0
H116 H 0.18413 0.31483 0.67919 0.0
H117 H 0.13909 0.30855 0.71378 0.0
H118 H 0.11304 0.21129 0.57483 0.0
H119 H 0.15848 0.2166 0.54202 0.0
Dy120 Dy 0.5731 0.77542 0.92749 0.0
Dy121 Dy 0.58569 0.76057 0.78314 0.0
C122 C 0.57576 0.69318 0.86355 0.0
O123 O 0.62734 0.78681 0.96031 0.0
O124 O 0.63496 0.74049 0.88789 0.0
O125 O 0.59444 0.76443 0.04587 0.0
O126 O 0.54658 0.80424 0.98533 0.0
O127 O 0.59498 0.82027 0.82541 0.0
O128 O 0.55444 0.82934 0.86478 0.0
O129 O 0.52659 0.77362 0.73117 0.0
O130 O 0.52076 0.76201 0.83398 0.0
O131 O 0.58482 0.7814 0.68469 0.0
O132 O 0.61033 0.7251 0.72711 0.0
C133 C 0.64837 0.7622 0.94542 0.0
O134 O 0.58645 0.71363 0.92378 0.0
O135 O 0.56762 0.70739 0.79773 0.0
C136 C 0.54917 0.76584 0.07556 0.0
C137 C 0.49854 0.73685 0.09366 0.0
C138 C 0.51812 0.7143 0.06456 0.0
C139 C 0.54308 0.72884 0.05487 0.0
C140 C 0.53261 0.78685 0.11221 0.0
C141 C 0.50743 0.77247 0.12131 0.0
C142 C 0.56741 0.7847 0.04734 0.0
C143 C 0.57402 0.84318 0.84444 0.0
C144 C 0.50693 0.76827 0.76093 0.0
C145 C 0.63481 0.75611 0.66743 0.0
C146 C 0.68868 0.76278 0.6306 0.0
C147 C 0.66501 0.79448 0.63011 0.0
C148 C 0.63849 0.79121 0.64806 0.0
C149 C 0.65872 0.72454 0.66891 0.0
C150 C 0.68523 0.72781 0.65112 0.0
C151 C 0.60475 0.75144 0.68 0.0
H152 H 0.51214 0.6866 0.04376 0.0
H153 H 0.55563 0.71217 0.02626 0.0
H154 H 0.537 0.81549 0.12819 0.0
H155 H 0.49264 0.79076 0.14333 0.0
H156 H 0.66688 0.82203 0.61573 0.0
H157 H 0.62055 0.8162 0.64567 0.0
H158 H 0.65648 0.69695 0.68235 0.0
H159 H 0.70237 0.70255 0.65123 0.0
H160 H 0.1137 0.38732 0.88678 0.0
H161 H 0.11488 0.44809 0.94942 0.0
H162 H 1.00169 0.46223 0.85418 0.0
H163 H 1.00058 0.4016 0.79351 0.0
H164 H 0.08185 0.52327 0.90677 0.0
H165 H 0.03541 0.4639 0.07897 0.0
H166 H 0.05055 0.43511 0.02216 0.0
H167 H 1.00653 0.46123 0.97957 0.0
C168 C 0.08901 0.404 0.87731 0.0
C169 C 0.05707 0.38956 0.83528 0.0
C170 C 0.0897 0.43859 0.91381 0.0
C171 C 0.05847 0.4593 0.90873 0.0
C172 C 0.02628 0.44641 0.86108 0.0
H173 H 1.0079 0.66688 0.10947 0.0
H174 H 1.00514 0.60677 0.04388 0.0
C175 C 0.02562 0.41192 0.82537 0.0
C176 C 0.0594 0.49324 0.95561 0.0
H177 H 0.03784 0.52934 0.08931 0.0
C178 C 0.07239 0.52447 0.94688 0.0
C179 C 0.04701 0.49507 1.00823 0.0
C180 C 0.0344 0.46194 0.0235 0.0
C181 C 0.07268 0.55749 0.98789 0.0
C182 C 0.06023 0.55932 0.04034 0.0
C183 C 0.04721 0.52814 0.04904 0.0
C184 C 0.06171 0.593 0.08804 0.0
C185 C 0.08575 0.59051 0.97358 0.0
C186 C 0.09439 0.60423 0.1382 0.0
C187 C 0.09596 0.63821 0.17587 0.0
C188 C 0.06493 0.66185 0.16507 0.0
C189 C 0.03228 0.6492 0.11976 0.0
C190 C 0.0307 0.615 0.08158 0.0
H191 H 0.0854 0.58846 0.91879 0.0
H192 H 0.06944 0.61737 0.97418 0.0
H193 H 0.11342 0.59124 0.01858 0.0
H194 H 0.11875 0.58743 0.14586 0.0
H195 H 0.12155 0.64711 0.21025 0.0
H196 H 0.49449 0.40682 0.07535 0.0
H197 H 0.49307 0.46455 0.01509 0.0
H198 H 0.60693 0.4509 0.14047 0.0
H199 H 0.60837 0.39307 0.19836 0.0
H200 H 0.51703 0.53326 0.05735 0.0
H201 H 0.58989 0.44963 0.92801 0.0
H202 H 0.57183 0.42809 0.97561 0.0
H203 H 0.61372 0.44477 0.02852 0.0
C204 C 0.51909 0.4169 0.09181 0.0
C205 C 0.55155 0.39551 0.14217 0.0
C206 C 0.51832 0.44971 0.05665 0.0
C207 C 0.54997 0.46167 0.07118 0.0
C208 C 0.58214 0.44186 0.12616 0.0
H209 H 0.62465 0.64163 0.96775 0.0
H210 H 0.6149 0.58458 1.00844 0.0
C211 C 0.58293 0.40905 0.16032 0.0
C212 C 0.54995 0.49348 0.02708 0.0
H213 H 0.58649 0.51636 0.92372 0.0
C214 C 0.53179 0.5294 0.02724 0.0
C215 C 0.5689 0.48871 0.98678 0.0
C216 C 0.58686 0.45064 0.97892 0.0
C217 C 0.53358 0.56069 0.99175 0.0
C218 C 0.55381 0.55609 0.95443 0.0
C219 C 0.57104 0.52004 0.95232 0.0
C220 C 0.55989 0.58877 0.92303 0.0
C221 C 0.51511 0.59889 0.9971 0.0
C222 C 0.53262 0.60956 0.85922 0.0
C223 C 0.53845 0.64195 0.83455 0.0
C224 C 0.57159 0.65423 0.87364 0.0
C225 C 0.59905 0.63249 0.93551 0.0
C226 C 0.5934 0.60002 0.95932 0.0
H227 H 0.50385 0.59866 0.03513 0.0
H228 H 0.53384 0.61953 0.0178 0.0
H229 H 0.49329 0.60858 0.94034 0.0
H230 H 0.50656 0.60137 0.82984 0.0
H231 H 0.51651 0.65865 0.78809 0.0
H232 H 0.51984 0.90045 0.80272 0.0
H233 H 0.52139 0.96207 0.85987 0.0
H234 H 0.63517 0.93766 0.98841 0.0
H235 H 0.63356 0.87612 0.9289 0.0
H236 H 0.54342 0.97084 1.00585 0.0
H237 H 0.62275 0.04626 0.9319 0.0
H238 H 0.60506 1.00484 0.88345 0.0
H239 H 0.64425 1.00059 0.97427 0.0
C240 C 0.5453 0.90889 0.84063 0.0
C241 C 0.57661 0.88364 0.86013 0.0
C242 C 0.54617 0.94402 0.87415 0.0
C243 C 0.57836 0.95489 0.92892 0.0
C244 C 0.60995 0.93054 0.94548 0.0
H245 H 0.6067 0.15609 0.21718 0.0
H246 H 0.61776 0.0922 0.1749 0.0
C247 C 0.60909 0.89534 0.91101 0.0
C248 C 0.57796 0.98974 0.97298 0.0
H249 H 0.60631 0.07538 0.01937 0.0
C250 C 0.5573 0.99358 1.00872 0.0
C251 C 0.59631 1.01952 0.97801 0.0
C252 C 0.61812 1.0179 0.9394 0.0
C253 C 0.55384 0.02629 0.0474 0.0
C254 C 0.57133 0.05642 0.05062 0.0
C255 C 0.593 0.05225 0.01729 0.0
C256 C 0.56455 0.09363 0.08167 0.0
C257 C 0.53114 0.02853 0.08409 0.0
C258 C 0.53091 0.11546 0.04447 0.0
C259 C 0.52466 0.1517 0.06836 0.0
C260 C 0.55171 0.16706 0.13073 0.0
C261 C 0.58508 0.1447 0.17019 0.0
C262 C 0.59153 0.1084 0.1454 0.0
H263 H 0.52712 1.00024 0.09373 0.0
H264 H 0.54315 0.04299 0.13872 0.0
H265 H 0.50481 0.0449 0.04684 0.0
H266 H 0.50974 0.10502 0.99483 0.0
H267 H 0.49885 0.16842 0.03601 0.0
H268 H 0.09928 0.90226 0.22539 0.0
H269 H 0.1029 0.96223 0.17996 0.0
H270 H 1.01231 0.94798 0.96482 0.0
H271 H 1.00857 0.88893 1.00961 0.0
H272 H 0.11358 0.97052 0.0565 0.0
H273 H 0.98758 0.05729 1.00589 0.0
H274 H 1.00603 1.01511 0.06393 0.0
H275 H 0.98185 1.01218 0.96311 0.0
C276 C 0.0795 0.91264 0.16937 0.0
C277 C 0.0534 0.89098 0.1215 0.0
C278 C 0.08178 0.94672 0.14304 0.0
C279 C 0.05765 0.96006 0.06889 0.0
C280 C 0.03086 0.939 0.02248 0.0
H281 H 0.03071 0.14788 0.77977 0.0
H282 H 0.02694 0.08811 0.82552 0.0
C283 C 0.0288 0.90505 0.04831 0.0
C284 C 0.06161 0.99423 0.03732 0.0
H285 H 0.0172 0.0791 0.94823 0.0
C286 C 0.09262 0.9944 0.03354 0.0
C287 C 0.03413 0.02534 1.00606 0.0
C288 C 1.00065 0.02775 0.01046 0.0
C289 C 0.09664 0.02425 0.99855 0.0
C290 C 0.06918 0.05539 0.96734 0.0
C291 C 0.03817 0.05522 0.97118 0.0
C292 C 0.0731 0.0895 0.93547 0.0
C293 C 0.13006 0.02165 0.99385 0.0
C294 C 0.10044 0.11008 0.98108 0.0
C295 C 0.10268 0.14384 0.95495 0.0
C296 C 0.07763 0.15831 0.88232 0.0
C297 C 0.05088 0.13717 0.83526 0.0
C298 C 0.04849 0.10322 0.86184 0.0
H299 H 0.14277 0.99203 0.99742 0.0
H300 H 0.12475 0.03463 0.94073 0.0
H301 H 0.14917 0.03672 0.04172 0.0
H302 H 0.11934 0.10087 0.03842 0.0
H303 H 0.1234 0.15954 0.99314 0.0
H304 H 0.45602 0.76063 0.79838 0.0
H305 H 0.39229 0.76333 0.71443 0.0
H306 H 0.40557 0.78014 0.52388 0.0
H307 H 0.46908 0.77819 0.6073 0.0
H308 H 0.34969 0.82806 0.51747 0.0
H309 H 0.33989 0.68393 0.57511 0.0
H310 H 0.35909 0.71141 0.65801 0.0
H311 H 0.38177 0.69916 0.6049 0.0
C312 C 0.44549 0.76473 0.73859 0.0
C313 C 0.46801 0.76904 0.70998 0.0
C314 C 0.40892 0.76603 0.69039 0.0
C315 C 0.3939 0.77133 0.61224 0.0
C316 C 0.41632 0.77586 0.58371 0.0
H317 H 0.18007 0.78927 0.22038 0.0
H318 H 0.24366 0.78748 0.30499 0.0
C319 C 0.45281 0.77465 0.63176 0.0
C320 C 0.35487 0.77312 0.56027 0.0
H321 H 0.28576 0.72414 0.50211 0.0
C322 C 0.33579 0.80522 0.51395 0.0
C323 C 0.33644 0.74343 0.55529 0.0
C324 C 0.35535 0.70738 0.6004 0.0
C325 C 0.29903 0.80873 0.46423 0.0
C326 C 0.28061 0.77906 0.4593 0.0
C327 C 0.29967 0.74697 0.50565 0.0
C328 C 0.24162 0.7808 0.40711 0.0
C329 C 0.2801 0.84468 0.41879 0.0
C330 C 0.21902 0.77693 0.43552 0.0
C331 C 0.1826 0.77777 0.38715 0.0
C332 C 0.16767 0.78226 0.30872 0.0
C333 C 0.19037 0.78608 0.2803 0.0
C334 C 0.22686 0.78524 0.32884 0.0
H335 H 0.29563 0.86812 0.44353 0.0
H336 H 0.27611 0.8404 0.36103 0.0
H337 H 0.25377 0.85304 0.4147 0.0
H338 H 0.22958 0.77333 0.49546 0.0
H339 H 0.16619 0.7746 0.41149 0.0
H340 H 0.24148 0.28709 0.69358 0.0
H341 H 0.28544 0.29238 0.65555 0.0
H342 H 0.21514 0.25811 0.43208 0.0
H343 H 0.17076 0.25395 0.46872 0.0
H344 H 0.31993 0.23848 0.60236 0.0
H345 H 0.24169 0.35135 0.38601 0.0
H346 H 0.2291 0.33977 0.45294 0.0
H347 H 0.21944 0.31167 0.37104 0.0
C348 C 0.23506 0.28123 0.63597 0.0
C349 C 0.20224 0.27017 0.58442 0.0
C350 C 0.26044 0.284 0.61437 0.0
C351 C 0.25365 0.27622 0.54041 0.0
C352 C 0.221 0.26505 0.48901 0.0
H353 H 0.37151 0.27303 0.2964 0.0
H354 H 0.32763 0.26908 0.33513 0.0
C355 C 0.19569 0.2622 0.51052 0.0
C356 C 0.28092 0.27871 0.51749 0.0
H357 H 0.29467 0.32034 0.39029 0.0
C358 C 0.31443 0.25659 0.55629 0.0
C359 C 0.27397 0.30212 0.45702 0.0
C360 C 0.23923 0.32785 0.41473 0.0
C361 C 0.34065 0.25658 0.53551 0.0
C362 C 0.33374 0.28007 0.4751 0.0
C363 C 0.30022 0.30224 0.4364 0.0
C364 C 0.36089 0.28228 0.45158 0.0
C365 C 0.37516 0.23042 0.57731 0.0
C366 C 0.39435 0.29154 0.50336 0.0
C367 C 0.41974 0.2934 0.48153 0.0
C368 C 0.41243 0.28657 0.40679 0.0
C369 C 0.37862 0.2779 0.35466 0.0
C370 C 0.35325 0.27591 0.3767 0.0
H371 H 0.37228 0.20663 0.60462 0.0
H372 H 0.38545 0.21888 0.53917 0.0
H373 H 0.39502 0.24609 0.6222 0.0
H374 H 0.4009 0.29754 0.56099 0.0
H375 H 0.44537 0.29976 0.52393 0.0
H376 H 0.95754 0.22089 0.76003 0.0
H377 H 0.895 0.21674 0.67361 0.0
H378 H 0.89007 0.30475 0.53415 0.0
H379 H 0.95287 0.30698 0.61733 0.0
H380 H 0.83802 0.25856 0.63586 0.0
H381 H 0.84193 0.23786 0.37085 0.0
H382 H 0.88174 0.23661 0.46047 0.0
H383 H 0.85759 0.28079 0.41185 0.0
C384 C 0.94313 0.23906 0.71047 0.0
C385 C 0.96037 0.26396 0.69526 0.0
C386 C 0.90724 0.23673 0.66084 0.0
C387 C 0.88743 0.25971 0.59536 0.0
C388 C 0.90459 0.28542 0.5818 0.0
H389 H 0.65711 0.31298 0.37742 0.0
H390 H 0.72091 0.3092 0.45734 0.0
C391 C 0.94062 0.28701 0.63016 0.0
C392 C 0.84865 0.25815 0.54366 0.0
H393 H 0.78448 0.25899 0.35827 0.0
C394 C 0.82656 0.25819 0.5752 0.0
C395 C 0.83311 0.2568 0.46402 0.0
C396 C 0.85496 0.25256 0.42502 0.0
C397 C 0.78989 0.2579 0.53029 0.0
C398 C 0.77396 0.25961 0.45066 0.0
C399 C 0.79613 0.25848 0.419 0.0
C400 C 0.73457 0.2627 0.39951 0.0
C401 C 0.76898 0.25466 0.56945 0.0
C402 C 0.72024 0.23945 0.33672 0.0
C403 C 0.68344 0.24244 0.28908 0.0
C404 C 0.65994 0.2684 0.30354 0.0
C405 C 0.67428 0.29202 0.36549 0.0
C406 C 0.71099 0.28964 0.4119 0.0
H407 H 0.7859 0.2398 0.62474 0.0
H408 H 0.75873 0.28319 0.58034 0.0
H409 H 0.74638 0.23933 0.53511 0.0
H410 H 0.73752 0.21866 0.32476 0.0
H411 H 0.6734 0.22403 0.24151 0.0
H412 H 0.88039 0.82259 0.33495 0.0
H413 H 0.83786 0.81907 0.37755 0.0
H414 H 0.91144 0.73315 0.54044 0.0
H415 H 0.95462 0.73744 0.50014 0.0
H416 H 0.80463 0.7623 0.3792 0.0
H417 H 0.88679 0.80466 0.67291 0.0
H418 H 0.89815 0.80942 0.60065 0.0
H419 H 0.90789 0.76458 0.646 0.0
C420 C 0.88786 0.80322 0.38053 0.0
C421 C 0.92142 0.78057 0.41425 0.0
C422 C 0.86325 0.80105 0.40459 0.0
C423 C 0.8714 0.77638 0.46353 0.0
C424 C 0.90454 0.75314 0.4962 0.0
H425 H 0.75693 0.72433 0.68876 0.0
H426 H 0.80002 0.72725 0.64733 0.0
C427 C 0.92917 0.75526 0.47216 0.0
C428 C 0.84505 0.77462 0.48966 0.0
H429 H 0.83367 0.78293 0.64457 0.0
C430 C 0.81102 0.76701 0.43721 0.0
C431 C 0.85305 0.78059 0.56545 0.0
C432 C 0.88832 0.79062 0.62443 0.0
C433 C 0.78529 0.76455 0.45834 0.0
C434 C 0.79323 0.77067 0.53407 0.0
C435 C 0.8273 0.77819 0.58657 0.0
C436 C 0.7667 0.76935 0.55989 0.0
C437 C 0.7501 0.75433 0.39936 0.0
C438 C 0.73352 0.79251 0.52612 0.0
C439 C 0.70858 0.79069 0.54941 0.0
C440 C 0.71604 0.76582 0.60775 0.0
C441 C 0.74968 0.74333 0.64276 0.0
C442 C 0.7746 0.74518 0.61939 0.0
H443 H 0.75186 0.7398 0.3515 0.0
H444 H 0.74008 0.7359 0.42337 0.0
H445 H 0.73057 0.78034 0.37678 0.0
H446 H 0.72681 0.81216 0.4815 0.0
H447 H 0.6831 0.80838 0.52044 0.0
H448 H 0.44963 0.70655 0.96768 0.0
H449 H 0.3874 0.70949 0.92902 0.0
H450 H 0.40671 0.75127 0.14629 0.0
H451 H 0.46961 0.74765 0.18671 0.0
H452 H 0.34595 0.68467 0.99746 0.0
H453 H 0.3432 0.8384 0.97883 0.0
H454 H 0.37896 0.80397 0.98304 0.0
H455 H 0.37592 0.81519 0.06658 0.0
C456 C 0.44115 0.71471 1.00874 0.0
C457 C 0.46447 0.72745 0.08006 0.0
C458 C 0.40546 0.71663 0.98614 0.0
C459 C 0.3927 0.73133 0.0344 0.0
C460 C 0.41634 0.74031 0.10821 0.0
H461 H 0.19883 0.80703 0.01938 0.0
H462 H 0.25812 0.79938 0.03624 0.0
C463 C 0.45213 0.73825 0.13109 0.0
C464 C 0.35446 0.74203 1.00428 0.0
H465 H 0.29009 0.81854 0.95451 0.0
C466 C 0.33354 0.71384 0.98753 0.0
C467 C 0.33872 0.78016 0.9906 0.0
C468 C 0.3602 0.81129 1.00504 0.0
C469 C 0.29707 0.72297 0.96043 0.0
C470 C 0.28142 0.76122 0.94846 0.0
C471 C 0.30229 0.7893 0.96325 0.0
C472 C 0.2443 0.77261 0.92955 0.0
C473 C 0.27587 0.69181 0.94798 0.0
C474 C 0.21664 0.76213 0.8618 0.0
C475 C 0.18242 0.76677 0.85152 0.0
C476 C 0.17567 0.78197 0.90895 0.0
C477 C 0.20296 0.79559 0.97363 0.0
C478 C 0.237 0.79097 0.98373 0.0
H479 H 0.29306 0.6645 0.97196 0.0
H480 H 0.25857 0.69868 0.97366 0.0
H481 H 0.25869 0.68849 0.88671 0.0
H482 H 0.22186 0.7486 0.81878 0.0
H483 H 0.16174 0.75658 0.80063 0.0
H484 H 0.16268 0.34593 0.98971 0.0
H485 H 0.21907 0.36287 0.01237 0.0
H486 H 0.24911 0.25064 0.95706 0.0
H487 H 0.19349 0.23364 0.93439 0.0
H488 H 0.29866 0.31795 0.10791 0.0
H489 H 0.24131 0.33259 0.79895 0.0
H490 H 0.21431 0.33626 0.84355 0.0
H491 H 0.23409 0.29097 0.82974 0.0
C492 C 0.18174 0.3247 0.98429 0.0
C493 C 0.17348 0.28863 0.95923 0.0
C494 C 0.21379 0.33444 0.9969 0.0
C495 C 0.23779 0.30811 0.98496 0.0
C496 C 0.23067 0.27143 0.96561 0.0
H497 H 0.43107 0.2466 1.00487 0.0
H498 H 0.36946 0.25863 0.9774 0.0
C499 C 0.19889 0.26177 0.9529 0.0
C500 C 0.2693 0.31867 0.98702 0.0
H501 H 0.30458 0.32396 0.87263 0.0
C502 C 0.29982 0.32045 0.05667 0.0
C503 C 0.27062 0.32161 0.91985 0.0
C504 C 0.23827 0.32057 0.84366 0.0
C505 C 0.33229 0.32275 0.06077 0.0
C506 C 0.33397 0.32344 0.99353 0.0
C507 C 0.30306 0.32369 0.92394 0.0
C508 C 0.36836 0.31839 0.99517 0.0
C509 C 0.36513 0.32187 0.13679 0.0
C510 C 0.38735 0.34839 1.01035 0.0
C511 C 0.42237 0.34163 0.02436 0.0
C512 C 0.43861 0.3048 0.02376 0.0
C513 C 0.41873 0.27531 1.00371 0.0
C514 C 0.38375 0.2821 0.98885 0.0
H515 H 0.35927 0.32207 0.18379 0.0
H516 H 0.38419 0.29624 0.1426 0.0
H517 H 0.37819 0.3465 0.14177 0.0
H518 H 0.37581 0.37656 0.01563 0.0
H519 H 0.43763 0.36457 0.04197 0.0
H520 H 0.72763 0.24999 0.1756 0.0
H521 H 0.79138 0.23154 0.22593 0.0
H522 H 0.77556 0.2236 1.00021 0.0
H523 H 0.71187 0.2425 0.94931 0.0
H524 H 0.82367 0.16075 0.10734 0.0
H525 H 0.85383 0.30374 0.21404 0.0
H526 H 0.828 0.28136 0.24114 0.0
H527 H 0.80968 0.29615 0.14518 0.0
C528 C 0.73778 0.24465 0.13668 0.0
C529 C 0.71483 0.24813 0.05841 0.0
C530 C 0.77411 0.23384 0.16558 0.0
C531 C 0.78798 0.22638 0.11667 0.0
C532 C 0.76515 0.22908 0.03868 0.0
H533 H 0.94902 0.20116 0.02467 0.0
H534 H 0.90225 0.1887 0.04631 0.0
C535 C 0.72886 0.2399 1.00972 0.0
C536 C 0.82644 0.21767 0.14573 0.0
H537 H 0.89901 0.2608 0.21128 0.0
C538 C 0.84048 0.18229 0.1316 0.0
C539 C 0.84831 0.24561 0.17878 0.0
C540 C 0.83439 0.28396 0.19567 0.0
C541 C 0.87537 0.17496 0.1449 0.0
C542 C 0.89617 0.20416 0.17083 0.0
C543 C 0.88301 0.23844 0.19107 0.0
C544 C 0.92838 0.20264 0.16434 0.0
C545 C 0.88909 0.13647 0.12842 0.0
C546 C 0.95905 0.21417 0.22371 0.0
C547 C 0.98589 0.22176 0.21113 0.0
C548 C 0.98238 0.21799 0.13894 0.0
C549 C 0.95286 0.20376 0.08121 0.0
C550 C 0.92605 0.19641 0.09367 0.0
H551 H 0.87774 0.11454 0.1413 0.0
H552 H 0.88073 0.13493 0.0676 0.0
H553 H 0.91838 0.13011 0.16132 0.0
H554 H 0.9613 0.21935 0.27857 0.0
H555 H 1.00853 0.23237 0.25682 0.0
H556 H 0.95783 0.71397 0.02236 0.0
H557 H 0.89737 0.70901 0.99284 0.0
H558 H 0.87505 0.82935 1.00476 0.0
H559 H 0.93525 0.83435 0.0353 0.0
H560 H 0.87751 0.73925 0.10648 0.0
H561 H 0.78372 0.79892 0.81942 0.0
H562 H 0.82914 0.77911 0.84861 0.0
H563 H 0.81883 0.82538 0.87711 0.0
C564 C 0.93955 0.73936 0.01583 0.0
C565 C 0.95105 0.77449 0.03155 0.0
C566 C 0.90519 0.73651 0.99938 0.0
C567 C 0.88195 0.76885 0.99672 0.0
C568 C 0.89253 0.80416 1.00581 0.0
H569 H 0.68286 0.82295 0.99532 0.0
H570 H 0.74318 0.82481 0.02 0.0
C571 C 0.92689 0.80696 0.02335 0.0
C572 C 0.84896 0.76578 0.99647 0.0
H573 H 0.75967 0.79276 0.89927 0.0
C574 C 0.85166 0.75051 0.06087 0.0
C575 C 0.81555 0.78107 0.93732 0.0
C576 C 0.81141 0.79681 0.86633 0.0
C577 C 0.82162 0.75072 0.06818 0.0
C578 C 0.78826 0.76635 1.00938 0.0
C579 C 0.78552 0.78134 0.94471 0.0
C580 C 0.75539 0.76481 0.01076 0.0
C581 C 0.82567 0.73487 0.139 0.0
C582 C 0.74315 0.73036 1.00027 0.0
C583 C 0.7089 0.72932 0.98569 0.0
C584 C 0.68654 0.76269 0.98189 0.0
C585 C 0.69979 0.79687 0.99873 0.0
C586 C 0.73403 0.79797 0.01227 0.0
H587 H 0.85365 0.73079 0.18492 0.0
H588 H 0.80933 0.7537 0.15877 0.0
H589 H 0.81627 0.70725 0.12693 0.0
H590 H 0.75922 0.70459 0.99828 0.0
H591 H 0.69914 0.70265 0.97267 0.0
loop_
_geom_bond_atom_site_label_1
_geom_bond_atom_site_label_2
_geom_bond_distance
_geom_bond_site_symmetry_2
_ccdc_geom_bond_type
Dy0 O3 2.307 . S
Dy0 O5 2.395 . S
Dy0 O6 2.379 . S
Dy0 O8 2.339 . S
Dy0 O10 2.298 1_455 S
Dy0 O14 2.275 . S
Dy0 C22 2.738 1_455 S
Dy1 O4 2.298 . S
Dy1 O7 2.275 . S
Dy1 O9 2.307 1_455 S
Dy1 O11 2.395 . S
Dy1 O12 2.379 . S
Dy1 O15 2.339 . S
Dy1 C31 2.738 . S
C2 O14 1.254 . S
C2 O15 1.257 . S
O3 Dy0 2.307 . S
O3 C13 1.266 . S
O4 Dy1 2.298 . S
O4 C13 1.236 . S
O5 Dy0 2.395 . S
O5 C22 1.255 1_455 S
O6 Dy0 2.379 . S
O6 C22 1.249 1_455 S
O7 Dy1 2.275 . S
O7 C23 1.254 . S
O8 Dy0 2.339 . S
O8 C23 1.257 . S
O9 Dy1 2.307 1_655 S
O9 C24 1.266 . S
O10 Dy0 2.298 1_655 S
O10 C24 1.236 . S
O11 Dy1 2.395 . S
O11 C31 1.255 . S
O12 Dy1 2.379 . S
O12 C31 1.249 . S
C13 O3 1.266 . S
C13 O4 1.236 . S
O14 Dy0 2.275 . S
O14 C2 1.254 . S
O15 Dy1 2.339 . S
O15 C2 1.257 . S
C16 C19 1.344 . S
C16 C20 1.328 . S
C16 C22 1.516 . S
C17 C18 1.304 . S
C17 C21 1.323 . S
C18 C17 1.304 . S
C18 C19 1.371 . S
C18 H32 0.930 . S
C19 C16 1.344 . S
C19 C18 1.371 . S
C19 H33 0.931 . S
C20 C16 1.328 . S
C20 C21 1.433 . S
C20 H34 0.931 . S
C21 C17 1.323 . S
C21 C20 1.433 . S
C21 H35 0.933 . S
C22 Dy0 2.738 1_655 S
C22 O5 1.255 1_655 S
C22 O6 1.249 1_655 S
C22 C16 1.516 . S
C23 O7 1.254 . S
C23 O8 1.257 . S
C24 O9 1.266 . S
C24 O10 1.236 . S
C25 C28 1.344 . S
C25 C29 1.328 1_554 S
C25 C31 1.516 . S
C26 C27 1.304 1_556 S
C26 C30 1.323 . S
C27 C26 1.304 1_554 S
C27 C28 1.371 . S
C27 H36 0.930 . S
C28 C25 1.344 . S
C28 C27 1.371 . S
C28 H37 0.931 . S
C29 C25 1.328 1_556 S
C29 C30 1.433 . S
C29 H38 0.931 . S
C30 C26 1.323 . S
C30 C29 1.433 . S
C30 H39 0.933 . S
C31 Dy1 2.738 . S
C31 O11 1.255 . S
C31 O12 1.249 . S
C31 C25 1.516 . S
H32 C18 0.930 . S
H33 C19 0.931 . S
H34 C20 0.931 . S
H35 C21 0.933 . S
H36 C27 0.930 . S
H37 C28 0.931 . S
H38 C29 0.931 . S
H39 C30 0.933 . S
Dy40 O43 2.307 . S
Dy40 O45 2.395 . S
Dy40 O46 2.379 . S
Dy40 O48 2.339 . S
Dy40 O50 2.298 . S
Dy40 O54 2.275 . S
Dy40 C62 2.738 . S
Dy41 O44 2.298 . S
Dy41 O47 2.275 . S
Dy41 O49 2.307 . S
Dy41 O51 2.395 . S
Dy41 O52 2.379 . S
Dy41 O55 2.339 . S
Dy41 C71 2.738 . S
C42 O54 1.254 . S
C42 O55 1.257 . S
O43 Dy40 2.307 . S
O43 C53 1.266 . S
O44 Dy41 2.298 . S
O44 C53 1.236 . S
O45 Dy40 2.395 . S
O45 C62 1.255 . S
O46 Dy40 2.379 . S
O46 C62 1.249 . S
O47 Dy41 2.275 . S
O47 C63 1.254 . S
O48 Dy40 2.339 . S
O48 C63 1.257 . S
O49 Dy41 2.307 . S
O49 C64 1.266 . S
O50 Dy40 2.298 . S
O50 C64 1.236 . S
O51 Dy41 2.395 . S
O51 C71 1.255 . S
O52 Dy41 2.379 . S
O52 C71 1.249 . S
C53 O43 1.266 . S
C53 O44 1.236 . S
O54 Dy40 2.275 . S
O54 C42 1.254 . S
O55 Dy41 2.339 . S
O55 C42 1.257 . S
C56 C59 1.344 . S
C56 C60 1.328 . S
C56 C62 1.516 . S
C57 C58 1.304 . S
C57 C61 1.323 . S
C58 C57 1.304 . S
C58 C59 1.371 . S
C58 H72 0.930 . S
C59 C56 1.344 . S
C59 C58 1.371 . S
C59 H73 0.931 . S
C60 C56 1.328 . S
C60 C61 1.433 . S
C60 H74 0.931 . S
C61 C57 1.323 . S
C61 C60 1.433 . S
C61 H75 0.933 . S
C62 Dy40 2.738 . S
C62 O45 1.255 . S
C62 O46 1.249 . S
C62 C56 1.516 . S
C63 O47 1.254 . S
C63 O48 1.257 . S
C64 O49 1.266 . S
C64 O50 1.236 . S
C65 C68 1.344 . S
C65 C69 1.328 1_554 S
C65 C71 1.516 . S
C66 C67 1.304 1_556 S
C66 C70 1.323 . S
C67 C66 1.304 1_554 S
C67 C68 1.371 . S
C67 H76 0.930 . S
C68 C65 1.344 . S
C68 C67 1.371 . S
C68 H77 0.931 . S
C69 C65 1.328 1_556 S
C69 C70 1.433 . S
C69 H78 0.931 . S
C70 C66 1.323 . S
C70 C69 1.433 . S
C70 H79 0.933 . S
C71 Dy41 2.738 . S
C71 O51 1.255 . S
C71 O52 1.249 . S
C71 C65 1.516 . S
H72 C58 0.930 . S
H73 C59 0.931 . S
H74 C60 0.931 . S
H75 C61 0.933 . S
H76 C67 0.930 . S
H77 C68 0.931 . S
H78 C69 0.931 . S
H79 C70 0.933 . S
Dy80 O83 2.307 . S
Dy80 O85 2.395 . S
Dy80 O86 2.379 . S
Dy80 O88 2.339 . S
Dy80 O90 2.298 1_455 S
Dy80 O94 2.275 . S
Dy80 C102 2.738 . S
Dy81 O84 2.298 . S
Dy81 O87 2.275 . S
Dy81 O89 2.307 . S
Dy81 O91 2.395 . S
Dy81 O92 2.379 . S
Dy81 O95 2.339 . S
Dy81 C111 2.738 . S
C82 O94 1.254 . S
C82 O95 1.257 . S
O83 Dy80 2.307 . S
O83 C93 1.266 . S
O84 Dy81 2.298 . S
O84 C93 1.236 . S
O85 Dy80 2.395 . S
O85 C102 1.255 . S
O86 Dy80 2.379 . S
O86 C102 1.249 . S
O87 Dy81 2.275 . S
O87 C103 1.254 . S
O88 Dy80 2.339 . S
O88 C103 1.257 . S
O89 Dy81 2.307 . S
O89 C104 1.266 1_455 S
O90 Dy80 2.298 1_655 S
O90 C104 1.236 . S
O91 Dy81 2.395 . S
O91 C111 1.255 . S
O92 Dy81 2.379 . S
O92 C111 1.249 . S
C93 O83 1.266 . S
C93 O84 1.236 . S
O94 Dy80 2.275 . S
O94 C82 1.254 . S
O95 Dy81 2.339 . S
O95 C82 1.257 . S
C96 C99 1.344 . S
C96 C100 1.328 1_556 S
C96 C102 1.516 1_655 S
C97 C98 1.304 1_554 S
C97 C101 1.323 . S
C98 C97 1.304 1_556 S
C98 C99 1.371 . S
C98 H112 0.930 . S
C99 C96 1.344 . S
C99 C98 1.371 . S
C99 H113 0.931 . S
C100 C96 1.328 1_554 S
C100 C101 1.433 . S
C100 H114 0.931 . S
C101 C97 1.323 . S
C101 C100 1.433 . S
C101 H115 0.933 . S
C102 Dy80 2.738 . S
C102 O85 1.255 . S
C102 O86 1.249 . S
C102 C96 1.516 1_455 S
C103 O87 1.254 . S
C103 O88 1.257 . S
C104 O89 1.266 1_655 S
C104 O90 1.236 . S
C105 C108 1.344 . S
C105 C109 1.328 . S
C105 C111 1.516 . S
C106 C107 1.304 . S
C106 C110 1.323 . S
C107 C106 1.304 . S
C107 C108 1.371 . S
C107 H116 0.930 . S
C108 C105 1.344 . S
C108 C107 1.371 . S
C108 H117 0.931 . S
C109 C105 1.328 . S
C109 C110 1.433 . S
C109 H118 0.931 . S
C110 C106 1.323 . S
C110 C109 1.433 . S
C110 H119 0.933 . S
C111 Dy81 2.738 . S
C111 O91 1.255 . S
C111 O92 1.249 . S
C111 C105 1.516 . S
H112 C98 0.930 . S
H113 C99 0.931 . S
H114 C100 0.931 . S
H115 C101 0.933 . S
H116 C107 0.930 . S
H117 C108 0.931 . S
H118 C109 0.931 . S
H119 C110 0.933 . S
Dy120 O123 2.307 . S
Dy120 O125 2.395 . S
Dy120 O126 2.379 . S
Dy120 O128 2.339 . S
Dy120 O130 2.298 . S
Dy120 O134 2.275 . S
Dy120 C142 2.738 . S
Dy121 O124 2.298 . S
Dy121 O127 2.275 . S
Dy121 O129 2.307 . S
Dy121 O131 2.395 . S
Dy121 O132 2.379 . S
Dy121 O135 2.339 . S
Dy121 C151 2.738 . S
C122 O134 1.254 . S
C122 O135 1.257 . S
O123 Dy120 2.307 . S
O123 C133 1.266 . S
O124 Dy121 2.298 . S
O124 C133 1.236 . S
O125 Dy120 2.395 . S
O125 C142 1.255 . S
O126 Dy120 2.379 . S
O126 C142 1.249 . S
O127 Dy121 2.275 . S
O127 C143 1.254 . S
O128 Dy120 2.339 . S
O128 C143 1.257 . S
O129 Dy121 2.307 . S
O129 C144 1.266 . S
O130 Dy120 2.298 . S
O130 C144 1.236 . S
O131 Dy121 2.395 . S
O131 C151 1.255 . S
O132 Dy121 2.379 . S
O132 C151 1.249 . S
C133 O123 1.266 . S
C133 O124 1.236 . S
O134 Dy120 2.275 . S
O134 C122 1.254 . S
O135 Dy121 2.339 . S
O135 C122 1.257 . S
C136 C139 1.344 . S
C136 C140 1.328 1_556 S
C136 C142 1.516 . S
C137 C138 1.304 1_554 S
C137 C141 1.323 . S
C138 C137 1.304 1_556 S
C138 C139 1.371 . S
C138 H152 0.930 . S
C139 C136 1.344 . S
C139 C138 1.371 . S
C139 H153 0.931 . S
C140 C136 1.328 1_554 S
C140 C141 1.433 . S
C140 H154 0.931 . S
C141 C137 1.323 . S
C141 C140 1.433 . S
C141 H155 0.933 . S
C142 Dy120 2.738 . S
C142 O125 1.255 . S
C142 O126 1.249 . S
C142 C136 1.516 . S
C143 O127 1.254 . S
C143 O128 1.257 . S
C144 O129 1.266 . S
C144 O130 1.236 . S
C145 C148 1.344 . S
C145 C149 1.328 . S
C145 C151 1.516 . S
C146 C147 1.304 . S
C146 C150 1.323 . S
C147 C146 1.304 . S
C147 C148 1.371 . S
C147 H156 0.930 . S
C148 C145 1.344 . S
C148 C147 1.371 . S
C148 H157 0.931 . S
C149 C145 1.328 . S
C149 C150 1.433 . S
C149 H158 0.931 . S
C150 C146 1.323 . S
C150 C149 1.433 . S
C150 H159 0.933 . S
C151 Dy121 2.738 . S
C151 O131 1.255 . S
C151 O132 1.249 . S
C151 C145 1.516 . S
H152 C138 0.930 . S
H153 C139 0.931 . S
H154 C140 0.931 . S
H155 C141 0.933 . S
H156 C147 0.930 . S
H157 C148 0.931 . S
H158 C149 0.931 . S
H159 C150 0.933 . S
H160 C168 0.929 . S
H161 C170 0.930 . S
H162 C172 0.930 . S
H163 C175 0.929 . S
H164 C178 0.930 . S
H165 C180 0.960 . S
H166 C180 0.960 . S
H167 C180 0.960 1_556 S
C168 H160 0.929 . S
C168 C169 1.377 . S
C168 C170 1.384 . S
C169 C168 1.377 . S
C169 C175 1.390 . S
C170 H161 0.930 . S
C170 C168 1.384 . S
C170 C171 1.372 . S
C171 C170 1.372 . S
C171 C172 1.400 . S
C171 C176 1.490 . S
C172 H162 0.930 . S
C172 C171 1.400 . S
C172 C175 1.386 . S
H173 C189 0.930 1_655 S
H174 C190 0.931 . S
C175 H163 0.929 . S
C175 C169 1.390 . S
C175 C172 1.386 . S
C176 C171 1.490 . S
C176 C178 1.395 . S
C176 C179 1.403 1_556 S
H177 C183 0.930 . S
C178 H164 0.930 . S
C178 C176 1.395 . S
C178 C181 1.403 . S
C179 C176 1.403 1_554 S
C179 C180 1.524 . S
C179 C183 1.400 . S
C180 H165 0.960 . S
C180 H166 0.960 . S
C180 H167 0.960 1_554 S
C180 C179 1.524 . S
C181 C178 1.403 . S
C181 C182 1.392 1_556 S
C181 C185 1.495 . S
C182 C181 1.392 1_554 S
C182 C183 1.385 . S
C182 C184 1.478 . S
C183 H177 0.930 . S
C183 C179 1.400 . S
C183 C182 1.385 . S
C184 C182 1.478 . S
C184 C186 1.381 . S
C184 C190 1.383 . S
C185 C181 1.495 . S
C185 H191 0.959 . S
C185 H192 0.961 . S
C185 H193 0.960 1_556 S
C186 C184 1.381 . S
C186 C187 1.394 . S
C186 H194 0.930 . S
C187 C186 1.394 . S
C187 C188 1.383 . S
C187 H195 0.929 . S
C188 C187 1.383 . S
C188 C189 1.377 . S
C189 H173 0.930 1_455 S
C189 C188 1.377 . S
C189 C190 1.379 . S
C190 H174 0.931 . S
C190 C184 1.383 . S
C190 C189 1.379 . S
H191 C185 0.959 . S
H192 C185 0.961 . S
H193 C185 0.960 1_554 S
H194 C186 0.930 . S
H195 C187 0.929 . S
H196 C204 0.929 . S
H197 C206 0.930 1_556 S
H198 C208 0.930 . S
H199 C211 0.929 . S
H200 C214 0.930 . S
H201 C216 0.960 . S
H202 C216 0.960 . S
H203 C216 0.960 . S
C204 H196 0.929 . S
C204 C205 1.377 . S
C204 C206 1.384 . S
C205 C204 1.377 . S
C205 C211 1.390 . S
C206 H197 0.930 1_554 S
C206 C204 1.384 . S
C206 C207 1.372 . S
C207 C206 1.372 . S
C207 C208 1.400 . S
C207 C212 1.490 . S
C208 H198 0.930 . S
C208 C207 1.400 . S
C208 C211 1.386 . S
H209 C225 0.930 . S
H210 C226 0.931 1_554 S
C211 H199 0.929 . S
C211 C205 1.390 . S
C211 C208 1.386 . S
C212 C207 1.490 . S
C212 C214 1.395 1_554 S
C212 C215 1.403 . S
H213 C219 0.930 . S
C214 H200 0.930 . S
C214 C212 1.395 1_556 S
C214 C217 1.403 . S
C215 C212 1.403 . S
C215 C216 1.524 . S
C215 C219 1.400 . S
C216 H201 0.960 . S
C216 H202 0.960 . S
C216 H203 0.960 . S
C216 C215 1.524 . S
C217 C214 1.403 . S
C217 C218 1.392 . S
C217 C221 1.495 . S
C218 C217 1.392 . S
C218 C219 1.385 1_556 S
C218 C220 1.478 . S
C219 H213 0.930 . S
C219 C215 1.400 . S
C219 C218 1.385 1_554 S
C220 C218 1.478 . S
C220 C222 1.381 . S
C220 C226 1.383 . S
C221 C217 1.495 . S
C221 H227 0.959 . S
C221 H228 0.961 . S
C221 H229 0.960 . S
C222 C220 1.381 . S
C222 C223 1.394 . S
C222 H230 0.930 . S
C223 C222 1.394 . S
C223 C224 1.383 . S
C223 H231 0.929 . S
C224 C223 1.383 . S
C224 C225 1.377 . S
C225 H209 0.930 . S
C225 C224 1.377 . S
C225 C226 1.379 . S
C226 H210 0.931 1_556 S
C226 C220 1.383 . S
C226 C225 1.379 . S
H227 C221 0.959 . S
H228 C221 0.961 . S
H229 C221 0.960 . S
H230 C222 0.930 . S
H231 C223 0.929 . S
H232 C240 0.929 . S
H233 C242 0.930 . S
H234 C244 0.930 . S
H235 C247 0.929 . S
H236 C250 0.930 . S
H237 C252 0.960 . S
H238 C252 0.960 1_565 S
H239 C252 0.960 1_565 S
C240 H232 0.929 . S
C240 C241 1.377 . S
C240 C242 1.384 . S
C241 C240 1.377 . S
C241 C247 1.390 . S
C242 H233 0.930 . S
C242 C240 1.384 . S
C242 C243 1.372 . S
C243 C242 1.372 . S
C243 C244 1.400 . S
C243 C248 1.490 . S
C244 H234 0.930 . S
C244 C243 1.400 . S
C244 C247 1.386 . S
H245 C261 0.930 . S
H246 C262 0.931 . S
C247 H235 0.929 . S
C247 C241 1.390 . S
C247 C244 1.386 . S
C248 C243 1.490 . S
C248 C250 1.395 1_556 S
C248 C251 1.403 . S
H249 C255 0.930 . S
C250 H236 0.930 . S
C250 C248 1.395 1_554 S
C250 C253 1.403 . S
C251 C248 1.403 . S
C251 C252 1.524 1_565 S
C251 C255 1.400 1_565 S
C252 H237 0.960 . S
C252 H238 0.960 1_545 S
C252 H239 0.960 1_545 S
C252 C251 1.524 1_545 S
C253 C250 1.403 . S
C253 C254 1.392 1_565 S
C253 C257 1.495 . S
C254 C253 1.392 1_545 S
C254 C255 1.385 1_554 S
C254 C256 1.478 . S
C255 H249 0.930 . S
C255 C251 1.400 1_545 S
C255 C254 1.385 1_556 S
C256 C254 1.478 . S
C256 C258 1.381 . S
C256 C262 1.383 . S
C257 C253 1.495 . S
C257 H263 0.959 . S
C257 H264 0.961 1_565 S
C257 H265 0.960 1_565 S
C258 C256 1.381 . S
C258 C259 1.394 . S
C258 H266 0.930 . S
C259 C258 1.394 . S
C259 C260 1.383 . S
C259 H267 0.929 . S
C260 C259 1.383 . S
C260 C261 1.377 . S
C261 H245 0.930 . S
C261 C260 1.377 . S
C261 C262 1.379 . S
C262 H246 0.931 . S
C262 C256 1.383 . S
C262 C261 1.379 . S
H263 C257 0.959 . S
H264 C257 0.961 1_545 S
H265 C257 0.960 1_545 S
H266 C258 0.930 . S
H267 C259 0.929 . S
H268 C276 0.929 . S
H269 C278 0.930 . S
H270 C280 0.930 1_556 S
H271 C283 0.929 . S
H272 C286 0.930 . S
H273 C288 0.960 1_545 S
H274 C288 0.960 1_554 S
H275 C288 0.960 . S
C276 H268 0.929 . S
C276 C277 1.377 . S
C276 C278 1.384 . S
C277 C276 1.377 . S
C277 C283 1.390 . S
C278 H269 0.930 . S
C278 C276 1.384 . S
C278 C279 1.372 . S
C279 C278 1.372 . S
C279 C280 1.400 . S
C279 C284 1.490 . S
C280 H270 0.930 1_554 S
C280 C279 1.400 . S
C280 C283 1.386 . S
H281 C297 0.930 . S
H282 C298 0.931 . S
C283 H271 0.929 . S
C283 C277 1.390 . S
C283 C280 1.386 . S
C284 C279 1.490 . S
C284 C286 1.395 . S
C284 C287 1.403 1_554 S
H285 C291 0.930 . S
C286 H272 0.930 . S
C286 C284 1.395 . S
C286 C289 1.403 1_565 S
C287 C284 1.403 1_556 S
C287 C288 1.524 1_455 S
C287 C291 1.400 1_565 S
C288 H273 0.960 1_565 S
C288 H274 0.960 1_556 S
C288 H275 0.960 . S
C288 C287 1.524 1_655 S
C289 C286 1.403 1_545 S
C289 C290 1.392 1_554 S
C289 C293 1.495 . S
C290 C289 1.392 1_556 S
C290 C291 1.385 . S
C290 C292 1.478 . S
C291 H285 0.930 . S
C291 C287 1.400 1_545 S
C291 C290 1.385 . S
C292 C290 1.478 . S
C292 C294 1.381 . S
C292 C298 1.383 . S
C293 C289 1.495 . S
C293 H299 0.959 1_545 S
C293 H300 0.961 1_554 S
C293 H301 0.960 . S
C294 C292 1.381 . S
C294 C295 1.394 . S
C294 H302 0.930 1_556 S
C295 C294 1.394 . S
C295 C296 1.383 . S
C295 H303 0.929 . S
C296 C295 1.383 . S
C296 C297 1.377 . S
C297 H281 0.930 . S
C297 C296 1.377 . S
C297 C298 1.379 . S
C298 H282 0.931 . S
C298 C292 1.383 . S
C298 C297 1.379 . S
H299 C293 0.959 1_565 S
H300 C293 0.961 1_556 S
H301 C293 0.960 . S
H302 C294 0.930 1_554 S
H303 C295 0.929 . S
H304 C312 0.929 . S
H305 C314 0.930 . S
H306 C316 0.930 . S
H307 C319 0.929 . S
H308 C322 0.930 . S
H309 C324 0.960 . S
H310 C324 0.960 . S
H311 C324 0.960 . S
C312 H304 0.929 . S
C312 C313 1.377 . S
C312 C314 1.384 . S
C313 C312 1.377 . S
C313 C319 1.390 . S
C314 H305 0.930 . S
C314 C312 1.384 . S
C314 C315 1.372 . S
C315 C314 1.372 . S
C315 C316 1.400 . S
C315 C320 1.490 . S
C316 H306 0.930 . S
C316 C315 1.400 . S
C316 C319 1.386 . S
H317 C333 0.930 . S
H318 C334 0.931 . S
C319 H307 0.929 . S
C319 C313 1.390 . S
C319 C316 1.386 . S
C320 C315 1.490 . S
C320 C322 1.395 . S
C320 C323 1.403 . S
H321 C327 0.930 . S
C322 H308 0.930 . S
C322 C320 1.395 . S
C322 C325 1.403 . S
C323 C320 1.403 . S
C323 C324 1.524 . S
C323 C327 1.400 . S
C324 H309 0.960 . S
C324 H310 0.960 . S
C324 H311 0.960 . S
C324 C323 1.524 . S
C325 C322 1.403 . S
C325 C326 1.392 . S
C325 C329 1.495 . S
C326 C325 1.392 . S
C326 C327 1.385 . S
C326 C328 1.478 . S
C327 H321 0.930 . S
C327 C323 1.400 . S
C327 C326 1.385 . S
C328 C326 1.478 . S
C328 C330 1.381 . S
C328 C334 1.383 . S
C329 C325 1.495 . S
C329 H335 0.959 . S
C329 H336 0.961 . S
C329 H337 0.960 . S
C330 C328 1.381 . S
C330 C331 1.394 . S
C330 H338 0.930 . S
C331 C330 1.394 . S
C331 C332 1.383 . S
C331 H339 0.929 . S
C332 C331 1.383 . S
C332 C333 1.377 . S
C333 H317 0.930 . S
C333 C332 1.377 . S
C333 C334 1.379 . S
C334 H318 0.931 . S
C334 C328 1.383 . S
C334 C333 1.379 . S
H335 C329 0.959 . S
H336 C329 0.961 . S
H337 C329 0.960 . S
H338 C330 0.930 . S
H339 C331 0.929 . S
H340 C348 0.929 . S
H341 C350 0.930 . S
H342 C352 0.930 . S
H343 C355 0.929 . S
H344 C358 0.930 . S
H345 C360 0.960 . S
H346 C360 0.960 . S
H347 C360 0.960 . S
C348 H340 0.929 . S
C348 C349 1.377 . S
C348 C350 1.384 . S
C349 C348 1.377 . S
C349 C355 1.390 . S
C350 H341 0.930 . S
C350 C348 1.384 . S
C350 C351 1.372 . S
C351 C350 1.372 . S
C351 C352 1.400 . S
C351 C356 1.490 . S
C352 H342 0.930 . S
C352 C351 1.400 . S
C352 C355 1.386 . S
H353 C369 0.930 . S
H354 C370 0.931 . S
C355 H343 0.929 . S
C355 C349 1.390 . S
C355 C352 1.386 . S
C356 C351 1.490 . S
C356 C358 1.395 . S
C356 C359 1.403 . S
H357 C363 0.930 . S
C358 H344 0.930 . S
C358 C356 1.395 . S
C358 C361 1.403 . S
C359 C356 1.403 . S
C359 C360 1.524 . S
C359 C363 1.400 . S
C360 H345 0.960 . S
C360 H346 0.960 . S
C360 H347 0.960 . S
C360 C359 1.524 . S
C361 C358 1.403 . S
C361 C362 1.392 . S
C361 C365 1.495 . S
C362 C361 1.392 . S
C362 C363 1.385 . S
C362 C364 1.478 . S
C363 H357 0.930 . S
C363 C359 1.400 . S
C363 C362 1.385 . S
C364 C362 1.478 . S
C364 C366 1.381 . S
C364 C370 1.383 . S
C365 C361 1.495 . S
C365 H371 0.959 . S
C365 H372 0.961 . S
C365 H373 0.960 . S
C366 C364 1.381 . S
C366 C367 1.394 . S
C366 H374 0.930 . S
C367 C366 1.394 . S
C367 C368 1.383 . S
C367 H375 0.929 . S
C368 C367 1.383 . S
C368 C369 1.377 . S
C369 H353 0.930 . S
C369 C368 1.377 . S
C369 C370 1.379 . S
C370 H354 0.931 . S
C370 C364 1.383 . S
C370 C369 1.379 . S
H371 C365 0.959 . S
H372 C365 0.961 . S
H373 C365 0.960 . S
H374 C366 0.930 . S
H375 C367 0.929 . S
H376 C384 0.929 . S
H377 C386 0.930 . S
H378 C388 0.930 . S
H379 C391 0.929 . S
H380 C394 0.930 . S
H381 C396 0.960 . S
H382 C396 0.960 . S
H383 C396 0.960 . S
C384 H376 0.929 . S
C384 C385 1.377 . S
C384 C386 1.384 . S
C385 C384 1.377 . S
C385 C391 1.390 . S
C386 H377 0.930 . S
C386 C384 1.384 . S
C386 C387 1.372 . S
C387 C386 1.372 . S
C387 C388 1.400 . S
C387 C392 1.490 . S
C388 H378 0.930 . S
C388 C387 1.400 . S
C388 C391 1.386 . S
H389 C405 0.930 . S
H390 C406 0.931 . S
C391 H379 0.929 . S
C391 C385 1.390 . S
C391 C388 1.386 . S
C392 C387 1.490 . S
C392 C394 1.395 . S
C392 C395 1.403 . S
H393 C399 0.930 . S
C394 H380 0.930 . S
C394 C392 1.395 . S
C394 C397 1.403 . S
C395 C392 1.403 . S
C395 C396 1.524 . S
C395 C399 1.400 . S
C396 H381 0.960 . S
C396 H382 0.960 . S
C396 H383 0.960 . S
C396 C395 1.524 . S
C397 C394 1.403 . S
C397 C398 1.392 . S
C397 C401 1.495 . S
C398 C397 1.392 . S
C398 C399 1.385 . S
C398 C400 1.478 . S
C399 H393 0.930 . S
C399 C395 1.400 . S
C399 C398 1.385 . S
C400 C398 1.478 . S
C400 C402 1.381 . S
C400 C406 1.383 . S
C401 C397 1.495 . S
C401 H407 0.959 . S
C401 H408 0.961 . S
C401 H409 0.960 . S
C402 C400 1.381 . S
C402 C403 1.394 . S
C402 H410 0.930 . S
C403 C402 1.394 . S
C403 C404 1.383 . S
C403 H411 0.929 . S
C404 C403 1.383 . S
C404 C405 1.377 . S
C405 H389 0.930 . S
C405 C404 1.377 . S
C405 C406 1.379 . S
C406 H390 0.931 . S
C406 C400 1.383 . S
C406 C405 1.379 . S
H407 C401 0.959 . S
H408 C401 0.961 . S
H409 C401 0.960 . S
H410 C402 0.930 . S
H411 C403 0.929 . S
H412 C420 0.929 . S
H413 C422 0.930 . S
H414 C424 0.930 . S
H415 C427 0.929 . S
H416 C430 0.930 . S
H417 C432 0.960 . S
H418 C432 0.960 . S
H419 C432 0.960 . S
C420 H412 0.929 . S
C420 C421 1.377 . S
C420 C422 1.384 . S
C421 C420 1.377 . S
C421 C427 1.390 . S
C422 H413 0.930 . S
C422 C420 1.384 . S
C422 C423 1.372 . S
C423 C422 1.372 . S
C423 C424 1.400 . S
C423 C428 1.490 . S
C424 H414 0.930 . S
C424 C423 1.400 . S
C424 C427 1.386 . S
H425 C441 0.930 . S
H426 C442 0.931 . S
C427 H415 0.929 . S
C427 C421 1.390 . S
C427 C424 1.386 . S
C428 C423 1.490 . S
C428 C430 1.395 . S
C428 C431 1.403 . S
H429 C435 0.930 . S
C430 H416 0.930 . S
C430 C428 1.395 . S
C430 C433 1.403 . S
C431 C428 1.403 . S
C431 C432 1.524 . S
C431 C435 1.400 . S
C432 H417 0.960 . S
C432 H418 0.960 . S
C432 H419 0.960 . S
C432 C431 1.524 . S
C433 C430 1.403 . S
C433 C434 1.392 . S
C433 C437 1.495 . S
C434 C433 1.392 . S
C434 C435 1.385 . S
C434 C436 1.478 . S
C435 H429 0.930 . S
C435 C431 1.400 . S
C435 C434 1.385 . S
C436 C434 1.478 . S
C436 C438 1.381 . S
C436 C442 1.383 . S
C437 C433 1.495 . S
C437 H443 0.959 . S
C437 H444 0.961 . S
C437 H445 0.960 . S
C438 C436 1.381 . S
C438 C439 1.394 . S
C438 H446 0.930 . S
C439 C438 1.394 . S
C439 C440 1.383 . S
C439 H447 0.929 . S
C440 C439 1.383 . S
C440 C441 1.377 . S
C441 H425 0.930 . S
C441 C440 1.377 . S
C441 C442 1.379 . S
C442 H426 0.931 . S
C442 C436 1.383 . S
C442 C441 1.379 . S
H443 C437 0.959 . S
H444 C437 0.961 . S
H445 C437 0.960 . S
H446 C438 0.930 . S
H447 C439 0.929 . S
H448 C456 0.929 1_556 S
H449 C458 0.930 . S
H450 C460 0.930 . S
H451 C463 0.929 . S
H452 C466 0.930 . S
H453 C468 0.960 . S
H454 C468 0.960 . S
H455 C468 0.960 1_554 S
C456 H448 0.929 1_554 S
C456 C457 1.377 . S
C456 C458 1.384 1_554 S
C457 C456 1.377 . S
C457 C463 1.390 . S
C458 H449 0.930 . S
C458 C456 1.384 1_556 S
C458 C459 1.372 1_556 S
C459 C458 1.372 1_554 S
C459 C460 1.400 . S
C459 C464 1.490 . S
C460 H450 0.930 . S
C460 C459 1.400 . S
C460 C463 1.386 . S
H461 C477 0.930 . S
H462 C478 0.931 . S
C463 H451 0.929 . S
C463 C457 1.390 . S
C463 C460 1.386 . S
C464 C459 1.490 . S
C464 C466 1.395 . S
C464 C467 1.403 1_554 S
H465 C471 0.930 . S
C466 H452 0.930 . S
C466 C464 1.395 . S
C466 C469 1.403 . S
C467 C464 1.403 1_556 S
C467 C468 1.524 . S
C467 C471 1.400 . S
C468 H453 0.960 . S
C468 H454 0.960 . S
C468 H455 0.960 1_556 S
C468 C467 1.524 . S
C469 C466 1.403 . S
C469 C470 1.392 1_554 S
C469 C473 1.495 . S
C470 C469 1.392 1_556 S
C470 C471 1.385 . S
C470 C472 1.478 . S
C471 H465 0.930 . S
C471 C467 1.400 . S
C471 C470 1.385 . S
C472 C470 1.478 . S
C472 C474 1.381 . S
C472 C478 1.383 1_556 S
C473 C469 1.495 . S
C473 H479 0.959 . S
C473 H480 0.961 . S
C473 H481 0.960 1_554 S
C474 C472 1.381 . S
C474 C475 1.394 . S
C474 H482 0.930 . S
C475 C474 1.394 . S
C475 C476 1.383 . S
C475 H483 0.929 . S
C476 C475 1.383 . S
C476 C477 1.377 1_556 S
C477 H461 0.930 . S
C477 C476 1.377 1_554 S
C477 C478 1.379 . S
C478 H462 0.931 . S
C478 C472 1.383 1_554 S
C478 C477 1.379 . S
H479 C473 0.959 . S
H480 C473 0.961 . S
H481 C473 0.960 1_556 S
H482 C474 0.930 . S
H483 C475 0.929 . S
H484 C492 0.929 . S
H485 C494 0.930 . S
H486 C496 0.930 . S
H487 C499 0.929 1_554 S
H488 C502 0.930 . S
H489 C504 0.960 . S
H490 C504 0.960 . S
H491 C504 0.960 . S
C492 H484 0.929 . S
C492 C493 1.377 . S
C492 C494 1.384 . S
C493 C492 1.377 . S
C493 C499 1.390 . S
C494 H485 0.930 . S
C494 C492 1.384 . S
C494 C495 1.372 . S
C495 C494 1.372 . S
C495 C496 1.400 1_556 S
C495 C500 1.490 . S
C496 H486 0.930 . S
C496 C495 1.400 1_554 S
C496 C499 1.386 1_554 S
H497 C513 0.930 . S
H498 C514 0.931 . S
C499 H487 0.929 1_556 S
C499 C493 1.390 . S
C499 C496 1.386 1_556 S
C500 C495 1.490 . S
C500 C502 1.395 1_556 S
C500 C503 1.403 . S
H501 C507 0.930 . S
C502 H488 0.930 . S
C502 C500 1.395 1_554 S
C502 C505 1.403 . S
C503 C500 1.403 . S
C503 C504 1.524 . S
C503 C507 1.400 . S
C504 H489 0.960 . S
C504 H490 0.960 . S
C504 H491 0.960 . S
C504 C503 1.524 . S
C505 C502 1.403 . S
C505 C506 1.392 . S
C505 C509 1.495 . S
C506 C505 1.392 . S
C506 C507 1.385 1_554 S
C506 C508 1.478 . S
C507 H501 0.930 . S
C507 C503 1.400 . S
C507 C506 1.385 1_556 S
C508 C506 1.478 . S
C508 C510 1.381 1_554 S
C508 C514 1.383 . S
C509 C505 1.495 . S
C509 H515 0.959 . S
C509 H516 0.961 . S
C509 H517 0.960 . S
C510 C508 1.381 1_556 S
C510 C511 1.394 1_556 S
C510 H518 0.930 . S
C511 C510 1.394 1_554 S
C511 C512 1.383 . S
C511 H519 0.929 1_554 S
C512 C511 1.383 . S
C512 C513 1.377 . S
C513 H497 0.930 . S
C513 C512 1.377 . S
C513 C514 1.379 . S
C514 H498 0.931 . S
C514 C508 1.383 . S
C514 C513 1.379 . S
H515 C509 0.959 . S
H516 C509 0.961 . S
H517 C509 0.960 . S
H518 C510 0.930 . S
H519 C511 0.929 1_556 S
H520 C528 0.929 . S
H521 C530 0.930 . S
H522 C532 0.930 . S
H523 C535 0.929 . S
H524 C538 0.930 . S
H525 C540 0.956 . S
H526 C540 0.960 1_554 S
H527 C540 0.960 . S
C528 H520 0.929 . S
C528 C529 1.377 1_554 S
C528 C530 1.384 . S
C529 C528 1.377 1_556 S
C529 C535 1.390 . S
C530 H521 0.930 . S
C530 C528 1.384 . S
C530 C531 1.372 1_554 S
C531 C530 1.372 1_556 S
C531 C532 1.400 . S
C531 C536 1.490 . S
C532 H522 0.930 . S
C532 C531 1.400 . S
C532 C535 1.386 . S
H533 C549 0.930 . S
H534 C550 0.931 . S
C535 H523 0.929 . S
C535 C529 1.390 . S
C535 C532 1.386 . S
C536 C531 1.490 . S
C536 C538 1.395 . S
C536 C539 1.403 . S
H537 C543 0.930 . S
C538 H524 0.930 . S
C538 C536 1.395 . S
C538 C541 1.403 1_556 S
C539 C536 1.403 . S
C539 C540 1.524 . S
C539 C543 1.400 1_556 S
C540 H525 0.956 . S
C540 H526 0.960 1_556 S
C540 H527 0.960 . S
C540 C539 1.524 . S
C541 C538 1.403 1_554 S
C541 C542 1.392 . S
C541 C545 1.495 . S
C542 C541 1.392 . S
C542 C543 1.385 . S
C542 C544 1.478 . S
C543 H537 0.930 . S
C543 C539 1.400 1_554 S
C543 C542 1.385 . S
C544 C542 1.478 . S
C544 C546 1.381 . S
C544 C550 1.383 1_554 S
C545 C541 1.495 . S
C545 H551 0.959 . S
C545 H552 0.961 1_554 S
C545 H553 0.960 . S
C546 C544 1.381 . S
C546 C547 1.394 . S
C546 H554 0.930 . S
C547 C546 1.394 . S
C547 C548 1.383 . S
C547 H555 0.929 . S
C548 C547 1.383 . S
C548 C549 1.377 1_554 S
C549 H533 0.930 . S
C549 C548 1.377 1_556 S
C549 C550 1.379 . S
C550 H534 0.931 . S
C550 C544 1.383 1_556 S
C550 C549 1.379 . S
H551 C545 0.959 . S
H552 C545 0.961 1_556 S
H553 C545 0.960 . S
H554 C546 0.930 . S
H555 C547 0.929 . S
H556 C564 0.929 . S
H557 C566 0.930 . S
H558 C568 0.930 . S
H559 C571 0.929 . S
H560 C574 0.930 . S
H561 C576 0.960 . S
H562 C576 0.960 . S
H563 C576 0.960 . S
C564 H556 0.929 . S
C564 C565 1.377 1_556 S
C564 C566 1.384 . S
C565 C564 1.377 1_554 S
C565 C571 1.390 . S
C566 H557 0.930 . S
C566 C564 1.384 . S
C566 C567 1.372 1_556 S
C567 C566 1.372 1_554 S
C567 C568 1.400 . S
C567 C572 1.490 . S
C568 H558 0.930 . S
C568 C567 1.400 . S
C568 C571 1.386 . S
H569 C585 0.930 . S
H570 C586 0.931 . S
C571 H559 0.929 . S
C571 C565 1.390 . S
C571 C568 1.386 . S
C572 C567 1.490 . S
C572 C574 1.395 1_554 S
C572 C575 1.403 . S
H573 C579 0.930 . S
C574 H560 0.930 . S
C574 C572 1.395 1_556 S
C574 C577 1.403 . S
C575 C572 1.403 . S
C575 C576 1.524 . S
C575 C579 1.400 . S
C576 H561 0.960 . S
C576 H562 0.960 . S
C576 H563 0.960 . S
C576 C575 1.524 . S
C577 C574 1.403 . S
C577 C578 1.392 . S
C577 C581 1.495 . S
C578 C577 1.392 . S
C578 C579 1.385 1_556 S
C578 C580 1.478 . S
C579 H573 0.930 . S
C579 C575 1.400 . S
C579 C578 1.385 1_554 S
C580 C578 1.478 . S
C580 C582 1.381 . S
C580 C586 1.383 1_556 S
C581 C577 1.495 . S
C581 H587 0.959 . S
C581 H588 0.961 . S
C581 H589 0.960 . S
C582 C580 1.381 . S
C582 C583 1.394 . S
C582 H590 0.930 . S
C583 C582 1.394 . S
C583 C584 1.383 . S
C583 H591 0.929 . S
C584 C583 1.383 . S
C584 C585 1.377 1_556 S
C585 H569 0.930 . S
C585 C584 1.377 1_554 S
C585 C586 1.379 . S
C586 H570 0.931 . S
C586 C580 1.383 1_554 S
C586 C585 1.379 . S
H587 C581 0.959 . S
H588 C581 0.961 . S
H589 C581 0.960 . S
H590 C582 0.930 . S
H591 C583 0.929 . S
C169 C103 1.890 . S
C188 C2 1.859 . S
C205 C63 2.472 . S
C224 C122 2.472 . S
C241 C143 1.892 . S
C260 C42 1.913 . S
C277 C23 2.473 . S
C296 C82 2.466 . S
C313 C144 1.586 . S
C332 C13 1.588 . S
C349 C106 1.579 . S
C368 C57 1.583 . S
C385 C104 1.587 . S
C404 C53 1.578 . S
C421 C17 1.581 . S
C440 C146 1.586 . S
C457 C137 0.467 . S
C476 C26 0.465 . S
C493 C93 1.661 . S
C512 C64 1.649 . S
C529 C66 0.468 . S
C548 C97 0.486 . S
C565 C24 1.668 . S
C584 C133 1.653 . S
