# Generated by pormake.
# Topology une, (4)-cn, num edge types: 1
# Building blocks:
#     Node 0, Type 0, BuildingBlock: QUQFOY_clean_sbu_1, # of connection points: 4
#     Node 1, Type 0, BuildingBlock: QUQFOY_clean_sbu_1, # of connection points: 4
#     Node 2, Type 0, BuildingBlock: QUQFOY_clean_sbu_1, # of connection points: 4
#     Node 3, Type 0, BuildingBlock: QUQFOY_clean_sbu_1, # of connection points: 4
#     Node 4, Type 0, BuildingBlock: QUQFOY_clean_sbu_1, # of connection points: 4
#     Node 5, Type 0, BuildingBlock: QUQFOY_clean_sbu_1, # of connection points: 4
#     Node 6, Type 0, BuildingBlock: QUQFOY_clean_sbu_1, # of connection points: 4
#     Node 7, Type 0, BuildingBlock: QUQFOY_clean_sbu_1, # of connection points: 4
#     Node 8, Type 0, BuildingBlock: QUQFOY_clean_sbu_1, # of connection points: 4
#     Node 9, Type 0, BuildingBlock: QUQFOY_clean_sbu_1, # of connection points: 4
#     Node 10, Type 0, BuildingBlock: QUQFOY_clean_sbu_1, # of connection points: 4
#     Node 11, Type 0, BuildingBlock: QUQFOY_clean_sbu_1, # of connection points: 4
#     Node 12, Type 0, BuildingBlock: QUQFOY_clean_sbu_1, # of connection points: 4
#     Node 13, Type 0, BuildingBlock: QUQFOY_clean_sbu_1, # of connection points: 4
#     Node 14, Type 0, BuildingBlock: QUQFOY_clean_sbu_1, # of connection points: 4
#     Node 15, Type 0, BuildingBlock: QUQFOY_clean_sbu_1, # of connection points: 4
#     Node 16, Type 0, BuildingBlock: QUQFOY_clean_sbu_1, # of connection points: 4
#     Node 17, Type 0, BuildingBlock: QUQFOY_clean_sbu_1, # of connection points: 4
#     Edge 18, Type (0, 0), BuildingBlock: MIFKUJ_clean_linker_0, # of connection points: 2
#     Edge 19, Type (0, 0), BuildingBlock: MIFKUJ_clean_linker_0, # of connection points: 2
#     Edge 20, Type (0, 0), BuildingBlock: MIFKUJ_clean_linker_0, # of connection points: 2
#     Edge 21, Type (0, 0), BuildingBlock: MIFKUJ_clean_linker_0, # of connection points: 2
#     Edge 22, Type (0, 0), BuildingBlock: MIFKUJ_clean_linker_0, # of connection points: 2
#     Edge 23, Type (0, 0), BuildingBlock: MIFKUJ_clean_linker_0, # of connection points: 2
#     Edge 24, Type (0, 0), BuildingBlock: MIFKUJ_clean_linker_0, # of connection points: 2
#     Edge 25, Type (0, 0), BuildingBlock: MIFKUJ_clean_linker_0, # of connection points: 2
#     Edge 26, Type (0, 0), BuildingBlock: MIFKUJ_clean_linker_0, # of connection points: 2
#     Edge 27, Type (0, 0), BuildingBlock: MIFKUJ_clean_linker_0, # of connection points: 2
#     Edge 28, Type (0, 0), BuildingBlock: MIFKUJ_clean_linker_0, # of connection points: 2
#     Edge 29, Type (0, 0), BuildingBlock: MIFKUJ_clean_linker_0, # of connection points: 2
#     Edge 30, Type (0, 0), BuildingBlock: MIFKUJ_clean_linker_0, # of connection points: 2
#     Edge 31, Type (0, 0), BuildingBlock: MIFKUJ_clean_linker_0, # of connection points: 2
#     Edge 32, Type (0, 0), BuildingBlock: MIFKUJ_clean_linker_0, # of connection points: 2
#     Edge 33, Type (0, 0), BuildingBlock: MIFKUJ_clean_linker_0, # of connection points: 2
#     Edge 34, Type (0, 0), BuildingBlock: MIFKUJ_clean_linker_0, # of connection points: 2
#     Edge 35, Type (0, 0), BuildingBlock: MIFKUJ_clean_linker_0, # of connection points: 2
#     Edge 36, Type (0, 0), BuildingBlock: MIFKUJ_clean_linker_0, # of connection points: 2
#     Edge 37, Type (0, 0), BuildingBlock: MIFKUJ_clean_linker_0, # of connection points: 2
#     Edge 38, Type (0, 0), BuildingBlock: MIFKUJ_clean_linker_0, # of connection points: 2
#     Edge 39, Type (0, 0), BuildingBlock: MIFKUJ_clean_linker_0, # of connection points: 2
#     Edge 40, Type (0, 0), BuildingBlock: MIFKUJ_clean_linker_0, # of connection points: 2
#     Edge 41, Type (0, 0), BuildingBlock: MIFKUJ_clean_linker_0, # of connection points: 2
#     Edge 42, Type (0, 0), BuildingBlock: MIFKUJ_clean_linker_0, # of connection points: 2
#     Edge 43, Type (0, 0), BuildingBlock: MIFKUJ_clean_linker_0, # of connection points: 2
#     Edge 44, Type (0, 0), BuildingBlock: MIFKUJ_clean_linker_0, # of connection points: 2
#     Edge 45, Type (0, 0), BuildingBlock: MIFKUJ_clean_linker_0, # of connection points: 2
#     Edge 46, Type (0, 0), BuildingBlock: MIFKUJ_clean_linker_0, # of connection points: 2
#     Edge 47, Type (0, 0), BuildingBlock: MIFKUJ_clean_linker_0, # of connection points: 2
#     Edge 48, Type (0, 0), BuildingBlock: MIFKUJ_clean_linker_0, # of connection points: 2
#     Edge 49, Type (0, 0), BuildingBlock: MIFKUJ_clean_linker_0, # of connection points: 2
#     Edge 50, Type (0, 0), BuildingBlock: MIFKUJ_clean_linker_0, # of connection points: 2
#     Edge 51, Type (0, 0), BuildingBlock: MIFKUJ_clean_linker_0, # of connection points: 2
#     Edge 52, Type (0, 0), BuildingBlock: MIFKUJ_clean_linker_0, # of connection points: 2
#     Edge 53, Type (0, 0), BuildingBlock: MIFKUJ_clean_linker_0, # of connection points: 2
# Relax obj value: 0.147
# Max RMSD: 0.157
# Mean RMSD: 0.155
data_MOF--net-une--node1-QUQFOY_clean_sbu_1--edge1-MIFKUJ_clean_linker_0
_symmetry_space_group_name_H-M    P1
_symmetry_Int_Tables_number       1
_symmetry_cell_setting            triclinic
loop_
_symmetry_equiv_pos_as_xyz
'x, y, z'
_cell_length_a     51.712989
_cell_length_b     51.655179
_cell_length_c     77.307772
_cell_angle_alpha  89.996851
_cell_angle_beta   89.967802
_cell_angle_gamma 119.96938
loop_
_atom_site_label
_atom_site_type_symbol
_atom_site_fract_x
_atom_site_fract_y
_atom_site_fract_z
_atom_type_partial_charge
O0 O 0.32377 0.07507 0.04468 0.0
Cd1 Cd 0.31296 0.04695 0.06554 0.0
Cd2 Cd 0.34282 0.02226 0.04123 0.0
O3 O 0.34125 0.05459 0.02637 0.0
O4 O 0.29476 0.06343 0.08161 0.0
O5 O 0.33638 0.06321 0.08765 0.0
C6 C 0.31656 0.07022 0.09208 0.0
C7 C 0.37944 0.01189 0.03117 0.0
C8 C 0.33408 0.07417 0.02993 0.0
C9 C 0.28114 0.98107 0.0569 0.0
O10 O 0.30438 0.98483 0.04911 0.0
O11 O 0.27962 0.00296 0.06323 0.0
O12 O 0.35517 0.00387 0.02279 0.0
O13 O 0.38305 0.02568 0.04567 0.0
O14 O 0.92896 0.24673 0.0485 0.0
Cd15 Cd 0.95321 0.27535 0.0682 0.0
Cd16 Cd 0.95373 0.31765 0.04254 0.0
O17 O 0.91945 0.27753 0.03362 0.0
O18 O 0.94687 0.2476 0.08764 0.0
O19 O 0.93116 0.28031 0.08825 0.0
C20 C 0.93271 0.25865 0.09561 0.0
C21 C 0.95304 0.35968 0.03147 0.0
C22 C 0.91524 0.25148 0.03642 0.0
C23 C 0.0114 0.31733 0.05264 0.0
O24 O -0.00326 0.32483 0.04266 0.0
O25 O -0.00142 0.29936 0.06508 0.0
O26 O 0.95779 0.34225 0.02184 0.0
O27 O 0.94782 0.35299 0.04765 0.0
O28 O 0.76813 0.70159 0.05172 0.0
Cd29 Cd 0.75025 0.70405 0.07488 0.0
Cd30 Cd 0.69203 0.66683 0.0537 0.0
O31 O 0.7263 0.67181 0.03778 0.0
O32 O 0.78467 0.72116 0.09106 0.0
O33 O 0.74634 0.67519 0.09354 0.0
C34 C 0.77206 0.69585 0.09901 0.0
C35 C 0.6459 0.63083 0.04225 0.0
C36 C 0.75461 0.68654 0.03841 0.0
C37 C 0.70711 0.72641 0.07181 0.0
O38 O 0.68984 0.70273 0.06354 0.0
O39 O 0.73264 0.73179 0.07689 0.0
O40 O 0.66207 0.65628 0.03498 0.0
O41 O 0.65567 0.62552 0.05639 0.0
O42 O 0.67884 0.91215 0.95242 0.0
Cd43 Cd 0.68423 0.93692 0.93064 0.0
Cd44 Cd 0.64574 0.95369 0.95083 0.0
O45 O 0.64629 0.92097 0.96587 0.0
O46 O 0.70105 0.92121 0.91316 0.0
O47 O 0.65708 0.91828 0.91024 0.0
C48 C 0.67705 0.91256 0.90426 0.0
C49 C 0.60658 0.96165 0.95925 0.0
C50 C 0.66154 0.90792 0.96509 0.0
C51 C 0.70955 0.00103 0.93951 0.0
O52 O 0.6847 0.99361 0.94669 0.0
O53 O 0.71415 0.9817 0.93222 0.0
O54 O 0.62933 0.9688 0.9689 0.0
O55 O 0.60576 0.94983 0.94442 0.0
O56 O 0.06006 0.7612 0.9473 0.0
Cd57 Cd 0.03817 0.74164 0.92474 0.0
Cd58 Cd 0.02278 0.68578 0.94658 0.0
O59 O 0.05464 0.72108 0.9609 0.0
O60 O 0.05282 0.7757 0.90825 0.0
O61 O 0.0613 0.73811 0.90478 0.0
C62 C 0.06502 0.76345 0.89944 0.0
C63 C 0.01509 0.63984 0.95734 0.0
C64 C 0.06548 0.74919 0.96007 0.0
C65 C 0.97404 0.69862 0.93214 0.0
O66 O 0.98263 0.6831 0.94051 0.0
O67 O 0.99263 0.72276 0.9247 0.0
O68 O 0.00777 0.65644 0.96592 0.0
O69 O 0.02705 0.64917 0.94232 0.0
O70 O 0.25575 0.32267 0.952 0.0
Cd71 Cd 0.28269 0.32365 0.9321 0.0
Cd72 Cd 0.32852 0.36208 0.95812 0.0
O73 O 0.28998 0.35654 0.96921 0.0
O74 O 0.25347 0.3033 0.91317 0.0
O75 O 0.28853 0.35091 0.91202 0.0
C76 C 0.26555 0.32844 0.90507 0.0
C77 C 0.37143 0.40483 0.96803 0.0
C78 C 0.26283 0.33879 0.9655 0.0
C79 C 0.32425 0.30365 0.94528 0.0
O80 O 0.33477 0.32597 0.95543 0.0
O81 O 0.30423 0.29938 0.93431 0.0
O82 O 0.356 0.38213 0.97782 0.0
O83 O 0.36252 0.40356 0.95231 0.0
O84 O 0.98877 0.40302 0.38411 0.0
Cd85 Cd 0.97512 0.37597 0.40553 0.0
Cd86 Cd 0.00496 0.34754 0.38323 0.0
O87 O 0.00678 0.38076 0.36756 0.0
O88 O 0.95663 0.39441 0.41984 0.0
O89 O -0.00328 0.39286 0.42808 0.0
C90 C 0.97728 0.40104 0.43113 0.0
C91 C 0.03955 0.33358 0.37418 0.0
C92 C 0.00035 0.40119 0.37002 0.0
C93 C 0.9416 0.30971 0.39795 0.0
O94 O 0.96492 0.31201 0.39102 0.0
O95 O 0.94075 0.33248 0.40336 0.0
O96 O 0.01579 0.32665 0.36552 0.0
O97 O 0.0437 0.34819 0.38842 0.0
O98 O 0.59341 0.57275 0.37362 0.0
Cd99 Cd 0.62105 0.59387 0.39415 0.0
Cd100 Cd 0.63347 0.64654 0.37363 0.0
O101 O 0.59621 0.61283 0.36156 0.0
O102 O 0.60793 0.5622 0.41207 0.0
O103 O 0.60404 0.60269 0.41527 0.0
C104 C 0.59928 0.5773 0.42124 0.0
C105 C 0.63965 0.69364 0.3671 0.0
C106 C 0.58487 0.58467 0.36233 0.0
C107 C 0.68256 0.6305 0.38058 0.0
O108 O 0.67337 0.64636 0.37314 0.0
O109 O 0.66547 0.60894 0.39037 0.0
O110 O 0.64278 0.67743 0.35566 0.0
O111 O 0.6332 0.68338 0.38267 0.0
O112 O 0.42796 0.01374 0.38203 0.0
Cd113 Cd 0.40791 0.01787 0.4039 0.0
Cd114 Cd 0.35326 0.98135 0.38047 0.0
O115 O 0.3882 0.98253 0.36686 0.0
O116 O 0.44206 0.03743 0.42025 0.0
O117 O 0.4031 0.9927 0.42494 0.0
C118 C 0.42884 0.01405 0.42989 0.0
C119 C 0.30724 0.94417 0.36939 0.0
C120 C 0.41631 0.99761 0.36875 0.0
C121 C 0.36921 0.04378 0.39472 0.0
O122 O 0.35291 0.02032 0.38597 0.0
O123 O 0.39189 0.04695 0.40289 0.0
O124 O 0.32469 0.96781 0.36081 0.0
O125 O 0.3156 0.94138 0.38466 0.0
O126 O 0.35692 0.26398 0.285 0.0
Cd127 Cd 0.35402 0.28395 0.26281 0.0
Cd128 Cd 0.31189 0.29321 0.28575 0.0
O129 O 0.31995 0.26367 0.29957 0.0
O130 O 0.37379 0.27155 0.24527 0.0
O131 O 0.32617 0.25883 0.24382 0.0
C132 C 0.34847 0.25727 0.23745 0.0
C133 C 0.27029 0.29454 0.2969 0.0
C134 C 0.33985 0.25626 0.29808 0.0
C135 C 0.36956 0.34646 0.27035 0.0
O136 O 0.34604 0.33568 0.27954 0.0
O137 O 0.37671 0.32958 0.26226 0.0
O138 O 0.29495 0.30504 0.30524 0.0
O139 O 0.26889 0.28302 0.28189 0.0
O140 O 0.72914 0.08959 0.28356 0.0
Cd141 Cd 0.7102 0.06933 0.26052 0.0
Cd142 Cd 0.69464 0.01389 0.283 0.0
O143 O 0.72343 0.05003 0.29794 0.0
O144 O 0.72484 0.10325 0.24398 0.0
O145 O 0.73641 0.06755 0.24183 0.0
C146 C 0.73912 0.09228 0.23608 0.0
C147 C 0.68785 0.96932 0.29539 0.0
C148 C 0.73357 0.078 0.29689 0.0
C149 C 0.64596 0.02365 0.26539 0.0
O150 O 0.65452 0.00879 0.27445 0.0
O151 O 0.66466 0.04842 0.25862 0.0
O152 O 0.67738 0.98472 0.30233 0.0
O153 O 0.70245 0.97905 0.2811 0.0
O154 O 0.92377 0.63119 0.27514 0.0
Cd155 Cd 0.95287 0.63604 0.25559 0.0
Cd156 Cd 0.99404 0.67938 0.27945 0.0
O157 O 0.95379 0.67534 0.28657 0.0
O158 O 0.92729 0.6186 0.2349 0.0
O159 O 0.96046 0.66679 0.23749 0.0
C160 C 0.93932 0.64534 0.22872 0.0
C161 C 0.03521 0.72271 0.29044 0.0
C162 C 0.92811 0.65234 0.28524 0.0
C163 C 0.99494 0.62126 0.27141 0.0
O164 O 0.00119 0.64348 0.28112 0.0
O165 O 0.97775 0.61553 0.25852 0.0
O166 O 0.01716 0.70118 0.30026 0.0
O167 O 0.02975 0.72012 0.27405 0.0
O168 O 0.61206 0.70935 0.71109 0.0
Cd169 Cd 0.61429 0.6904 0.73396 0.0
Cd170 Cd 0.65016 0.67304 0.71181 0.0
O171 O 0.6434 0.70114 0.69585 0.0
O172 O 0.59856 0.70753 0.7512 0.0
O173 O 0.64477 0.71558 0.75189 0.0
C174 C 0.62447 0.72029 0.75842 0.0
C175 C 0.69152 0.66915 0.70303 0.0
C176 C 0.62656 0.71236 0.69728 0.0
C177 C 0.59208 0.6254 0.7294 0.0
O178 O 0.61462 0.63279 0.71975 0.0
O179 O 0.58784 0.64509 0.73653 0.0
O180 O 0.66727 0.6578 0.69421 0.0
O181 O 0.69249 0.68277 0.71722 0.0
O182 O 0.26429 0.91932 0.71104 0.0
Cd183 Cd 0.28633 0.94502 0.73228 0.0
Cd184 Cd 0.29953 0.99266 0.70464 0.0
O185 O 0.27178 0.95384 0.69163 0.0
O186 O 0.27468 0.91412 0.75065 0.0
O187 O 0.26189 0.94899 0.7514 0.0
C188 C 0.26062 0.92558 0.75828 0.0
C189 C 0.30054 0.03485 0.69254 0.0
C190 C 0.26039 0.92661 0.69598 0.0
C191 C 0.35038 0.98922 0.72344 0.0
O192 O 0.34086 0.00071 0.71241 0.0
O193 O 0.33239 0.9673 0.73277 0.0
O194 O 0.31192 0.0209 0.68479 0.0
O195 O 0.28828 0.02488 0.70743 0.0
O196 O 0.09256 0.3567 0.72072 0.0
Cd197 Cd 0.06949 0.35489 0.74276 0.0
Cd198 Cd 0.02086 0.30717 0.72292 0.0
O199 O 0.05865 0.31267 0.71068 0.0
O200 O 0.10079 0.3768 0.76044 0.0
O201 O 0.06795 0.32843 0.76221 0.0
C202 C 0.09097 0.35175 0.76849 0.0
C203 C 0.97841 0.26265 0.71411 0.0
C204 C 0.08463 0.3354 0.71005 0.0
C205 C 0.02178 0.36621 0.73164 0.0
O206 O 0.01178 0.34181 0.72336 0.0
O207 O 0.04399 0.37495 0.74169 0.0
O208 O 0.99315 0.2846 0.70377 0.0
O209 O 0.98775 0.26557 0.72984 0.0
O210 O -0.00122 0.58311 0.621 0.0
Cd211 Cd 0.00427 0.61156 0.60089 0.0
Cd212 Cd 0.97228 0.6283 0.62814 0.0
O213 O 0.97622 0.59557 0.64092 0.0
O214 O 0.02473 0.59927 0.58373 0.0
O215 O 0.98004 0.59353 0.57918 0.0
C216 C 0.00163 0.58973 0.57395 0.0
C217 C 0.93215 0.63362 0.63762 0.0
C218 C 0.98735 0.57982 0.63594 0.0
C219 C 0.03234 0.67577 0.61298 0.0
O220 O 0.01005 0.66812 0.62286 0.0
O221 O 0.03409 0.65676 0.60336 0.0
O222 O 0.95531 0.64132 0.64706 0.0
O223 O 0.93152 0.62265 0.62253 0.0
O224 O 0.3863 0.42616 0.60807 0.0
Cd225 Cd 0.36524 0.40782 0.58519 0.0
Cd226 Cd 0.34632 0.35128 0.60559 0.0
O227 O 0.37774 0.38458 0.62122 0.0
O228 O 0.38332 0.44169 0.56858 0.0
O229 O 0.38799 0.40154 0.56611 0.0
C230 C 0.39432 0.4276 0.56045 0.0
C231 C 0.33701 0.30412 0.61519 0.0
C232 C 0.38991 0.41286 0.62084 0.0
C233 C 0.30045 0.36821 0.59133 0.0
O234 O 0.30733 0.35096 0.59929 0.0
O235 O 0.32032 0.39234 0.58448 0.0
O236 O 0.3289 0.32001 0.62386 0.0
O237 O 0.35038 0.31472 0.60064 0.0
O238 O 0.58117 -0.00103 0.62943 0.0
Cd239 Cd 0.59593 0.98621 0.60815 0.0
Cd240 Cd 0.65077 0.01048 0.63268 0.0
O241 O 0.61829 0.01116 0.64783 0.0
O242 O 0.56044 0.97 0.59271 0.0
O243 O 0.60367 0.00931 0.58579 0.0
C244 C 0.57621 0.99083 0.58182 0.0
C245 C 0.69875 0.04363 0.64307 0.0
C246 C 0.59259 0.00723 0.64436 0.0
C247 C 0.62509 0.94898 0.61576 0.0
O248 O 0.64599 0.97085 0.6238 0.0
O249 O 0.60284 0.95023 0.60984 0.0
O250 O 0.68081 0.01952 0.65117 0.0
O251 O 0.68973 0.04903 0.62867 0.0
H252 H 0.3775 0.98551 0.0004 0.0
H253 H 0.41549 0.97673 0.98768 0.0
H254 H 0.47119 0.01542 0.03261 0.0
H255 H 0.43325 0.02488 0.04539 0.0
H256 H 0.50254 0.03636 0.00309 0.0
H257 H 0.43319 0.93971 0.0261 0.0
H258 H 0.38378 0.89505 0.03057 0.0
H259 H 0.37637 0.87685 0.97605 0.0
H260 H 0.42559 0.92165 0.97122 0.0
H261 H 0.60445 0.98631 0.98981 0.0
H262 H 0.56513 0.99468 0.00065 0.0
H263 H 0.51477 0.95753 0.95379 0.0
H264 H 0.55426 0.94861 0.94279 0.0
H265 H 0.48012 0.93603 0.98292 0.0
H266 H 0.55035 0.03189 0.96008 0.0
H267 H 0.59993 0.07637 0.95574 0.0
H268 H 0.60576 0.09601 0.01003 0.0
H269 H 0.55638 0.05139 0.01475 0.0
C270 C 0.39775 0.99206 0.00767 0.0
C271 C 0.40235 0.00583 0.02395 0.0
C272 C 0.4194 0.98689 0.00038 0.0
C273 C 0.44598 0.99505 0.00929 0.0
C274 C 0.45074 0.00886 0.02555 0.0
C275 C 0.42906 0.01418 0.03285 0.0
C276 C 0.46906 0.98982 0.00137 0.0
C277 C 0.49777 0.01436 0.99891 0.0
C278 C 0.4625 0.96125 0.9954 0.0
C279 C 0.43296 0.9342 0.99828 0.0
C280 C 0.42093 0.92631 0.01505 0.0
C281 C 0.39297 0.90095 0.01765 0.0
C282 C 0.37691 0.88317 0.0036 0.0
C283 C 0.38882 0.89066 0.98692 0.0
C284 C 0.41676 0.91602 0.98424 0.0
C285 C 0.5851 0.97995 0.98172 0.0
C286 C 0.58251 0.96688 0.96539 0.0
C287 C 0.56268 0.9849 0.98794 0.0
C288 C 0.53726 0.97714 0.97793 0.0
C289 C 0.53435 0.96381 0.96166 0.0
C290 C 0.5569 0.9588 0.95539 0.0
C291 C 0.51364 0.98253 0.9848 0.0
C292 C 0.48484 0.95805 0.98705 0.0
C293 C 0.5201 0.01115 0.99059 0.0
C294 C 0.54974 0.03814 0.98778 0.0
C295 C 0.56229 0.04556 0.97112 0.0
C296 C 0.59035 0.07083 0.96858 0.0
C297 C 0.60601 0.08897 0.98261 0.0
C298 C 0.59361 0.08193 -0.00081 0.0
C299 C 0.56557 0.05667 0.00179 0.0
H300 H 0.62773 0.10852 0.98062 0.0
H301 H 0.35527 0.86354 0.00564 0.0
H302 H 0.96022 0.37595 0.99762 0.0
H303 H 0.96914 0.42309 0.98532 0.0
H304 H 0.96048 0.45313 0.03591 0.0
H305 H 0.95128 0.40555 0.04845 0.0
H306 H 0.93238 0.46765 0.00978 0.0
H307 H 0.02809 0.47676 0.0204 0.0
H308 H 0.06592 0.46109 0.01878 0.0
H309 H 0.0655 0.46571 0.96333 0.0
H310 H 0.02732 0.48099 0.96461 0.0
H311 H -0.0003 0.62078 0.99044 0.0
H312 H 0.98806 0.5728 0.00275 0.0
H313 H 0.00503 0.54521 0.95337 0.0
H314 H 0.01758 0.59389 0.94098 0.0
H315 H 0.02843 0.52905 0.97897 0.0
H316 H 0.93314 0.52014 0.96805 0.0
H317 H 0.89478 0.53512 0.96936 0.0
H318 H 0.89363 0.52949 0.0248 0.0
H319 H 0.93231 0.51487 0.02383 0.0
C320 C 0.95994 0.39242 0.00617 0.0
C321 C 0.95531 0.38713 0.02406 0.0
C322 C 0.96513 0.4194 -0.0009 0.0
C323 C 0.96599 0.44176 0.00975 0.0
C324 C 0.96006 0.43615 0.0275 0.0
C325 C 0.95482 0.40901 0.03464 0.0
C326 C 0.97415 0.47128 0.0023 0.0
C327 C 0.95353 0.48132 0.00325 0.0
C328 C 0.00145 0.48865 0.9934 0.0
C329 C 0.02464 0.47976 0.9926 0.0
C330 C 0.0359 0.47423 0.00786 0.0
C331 C 0.05743 0.46544 0.007 0.0
C332 C 0.06805 0.46233 0.99096 0.0
C333 C 0.05723 0.46809 0.97575 0.0
C334 C 0.03566 0.47684 0.97653 0.0
C335 C 0.00102 0.60457 0.98215 0.0
C336 C 0.00935 0.61103 0.96468 0.0
C337 C 0.99419 0.57705 0.98922 0.0
C338 C 0.99502 0.55516 0.97891 0.0
C339 C 0.00405 0.56175 0.96154 0.0
C340 C 0.0112 0.58951 0.95447 0.0
C341 C 0.98663 0.52553 0.98639 0.0
C342 C 0.00724 0.51543 0.98546 0.0
C343 C 0.95926 0.50807 0.99526 0.0
C344 C 0.93582 0.51666 0.99587 0.0
C345 C 0.92486 0.52229 0.98053 0.0
C346 C 0.90304 0.5307 0.98121 0.0
C347 C 0.89183 0.53333 0.99715 0.0
C348 C 0.90236 0.52748 0.01245 0.0
C349 C 0.92421 0.5191 0.01185 0.0
H350 H 0.87493 0.53984 0.99765 0.0
H351 H 0.08472 0.45553 0.99033 0.0
H352 H 0.4134 0.4542 0.95031 0.0
H353 H 0.45979 0.49574 0.96195 0.0
H354 H 0.43718 0.45547 0.01264 0.0
H355 H 0.39102 0.41436 0.00126 0.0
H356 H 0.45909 0.51491 0.01449 0.0
H357 H 0.48564 0.44732 0.98721 0.0
H358 H 0.48876 0.41785 0.96303 0.0
H359 H 0.53952 0.49809 0.9334 0.0
H360 H 0.53635 0.52801 0.95734 0.0
H361 H 0.60069 0.57958 0.05663 0.0
H362 H 0.55324 0.5437 0.04297 0.0
H363 H 0.57978 0.59622 0.99618 0.0
H364 H 0.62682 0.63226 0.00973 0.0
H365 H 0.55631 0.53381 0.99095 0.0
H366 H 0.53256 0.60169 0.01927 0.0
H367 H 0.53025 0.63087 0.04383 0.0
H368 H 0.47461 0.54982 0.07181 0.0
H369 H 0.47702 0.52013 0.0475 0.0
C370 C 0.41826 0.45438 0.96395 0.0
C371 C 0.39867 0.43093 0.97484 0.0
C372 C 0.44477 0.47803 0.97057 0.0
C373 C 0.452 0.47851 0.98813 0.0
C374 C 0.43203 0.45556 -0.00094 0.0
C375 C 0.40569 0.43199 0.99249 0.0
C376 C 0.48078 0.50222 0.99519 0.0
C377 C 0.48034 0.5189 0.00942 0.0
C378 C 0.50849 0.50779 0.98836 0.0
C379 C 0.51045 0.48985 0.97398 0.0
C380 C 0.49725 0.45865 0.97548 0.0
C381 C 0.49906 0.44187 0.96183 0.0
C382 C 0.51424 0.45608 0.94667 0.0
C383 C 0.52771 0.48711 0.94514 0.0
C384 C 0.52593 0.50399 0.95875 0.0
C385 C 0.59638 0.58342 0.04344 0.0
C386 C 0.61741 0.6087 0.03426 0.0
C387 C 0.56932 0.56301 0.03568 0.0
C388 C 0.56312 0.56746 0.0186 0.0
C389 C 0.58424 0.59243 0.00936 0.0
C390 C 0.61103 0.61301 0.01716 0.0
C391 C 0.53452 0.54611 0.01035 0.0
C392 C 0.53504 0.52993 0.99592 0.0
C393 C 0.50689 0.54095 0.01702 0.0
C394 C 0.50523 0.55869 0.03163 0.0
C395 C 0.52006 0.59008 0.03072 0.0
C396 C 0.51869 0.60672 0.04459 0.0
C397 C 0.50235 0.59221 0.05939 0.0
C398 C 0.48729 0.56102 0.06034 0.0
C399 C 0.48864 0.54428 0.04651 0.0
H400 H 0.5013 0.60512 0.07012 0.0
H401 H 0.51563 0.44305 0.93612 0.0
H402 H 0.09338 0.34654 0.38831 0.0
H403 H 0.1312 0.33705 0.37547 0.0
H404 H 0.07372 0.2949 0.33161 0.0
H405 H 0.03571 0.30359 0.34448 0.0
H406 H 0.10055 0.26474 0.3406 0.0
H407 H 0.13082 0.36758 0.3297 0.0
H408 H 0.14372 0.41899 0.33739 0.0
H409 H 0.21582 0.42778 0.36911 0.0
H410 H 0.20309 0.37624 0.36178 0.0
H411 H 0.21495 0.27635 0.28281 0.0
H412 H 0.17393 0.2805 0.29597 0.0
H413 H 0.22756 0.3201 0.34151 0.0
H414 H 0.26842 0.31643 0.3285 0.0
H415 H 0.20195 0.35123 0.3309 0.0
H416 H 0.17108 0.24759 0.34137 0.0
H417 H 0.15799 0.19641 0.33297 0.0
H418 H 0.08692 0.18956 0.30103 0.0
H419 H 0.09985 0.24088 0.30907 0.0
C420 C 0.08872 0.33499 0.37602 0.0
C421 C 0.06169 0.32606 0.36735 0.0
C422 C 0.11037 0.32971 0.36866 0.0
C423 C 0.10545 0.31571 0.35244 0.0
C424 C 0.07803 0.30581 0.3441 0.0
C425 C 0.05638 0.31092 0.35147 0.0
C426 C 0.12916 0.31225 0.3438 0.0
C427 C 0.12264 0.2837 0.33832 0.0
C428 C 0.15805 0.33693 0.34095 0.0
C429 C 0.16581 0.36795 0.34533 0.0
C430 C 0.14929 0.3804 0.33842 0.0
C431 C 0.15659 0.40957 0.34269 0.0
C432 C 0.18053 0.42661 0.35377 0.0
C433 C 0.19726 0.41453 0.36055 0.0
C434 C 0.19002 0.38536 0.35634 0.0
C435 C 0.2179 0.28585 0.29563 0.0
C436 C 0.24492 0.29609 0.30459 0.0
C437 C 0.19445 0.28812 0.30316 0.0
C438 C 0.19769 0.30049 0.31976 0.0
C439 C 0.22461 0.31057 0.32868 0.0
C440 C 0.24794 0.30837 0.32121 0.0
C441 C 0.17347 0.30368 0.32787 0.0
C442 C 0.17987 0.33226 0.3332 0.0
C443 C 0.14448 0.27906 0.33047 0.0
C444 C 0.13663 0.24818 0.32568 0.0
C445 C 0.15281 0.23526 0.33245 0.0
C446 C 0.1454 0.20621 0.32777 0.0
C447 C 0.1217 0.18978 0.31644 0.0
C448 C 0.10531 0.20233 0.30979 0.0
C449 C 0.11265 0.23139 0.31441 0.0
H450 H 0.11599 0.16729 0.31283 0.0
H451 H 0.18615 0.44919 0.35706 0.0
H452 H 0.65228 0.74167 0.38792 0.0
H453 H 0.66017 0.79072 0.37859 0.0
H454 H 0.64243 0.75973 0.3258 0.0
H455 H 0.63512 0.71133 0.33486 0.0
H456 H 0.70339 0.83037 0.35162 0.0
H457 H 0.59643 0.78558 0.31022 0.0
H458 H 0.54463 0.74345 0.31025 0.0
H459 H 0.54764 0.73651 0.36548 0.0
H460 H 0.59926 0.77886 0.36581 0.0
H461 H 0.71343 0.93519 0.28751 0.0
H462 H 0.70531 0.8897 0.30241 0.0
H463 H 0.64333 0.89575 0.33722 0.0
H464 H 0.65125 0.94087 0.32255 0.0
H465 H 0.62146 0.83953 0.32432 0.0
H466 H 0.7108 0.91539 0.35141 0.0
H467 H 0.76234 0.95788 0.35219 0.0
H468 H 0.79398 0.90418 0.32786 0.0
H469 H 0.74254 0.86148 0.32671 0.0
C470 C 0.64998 0.74539 0.37436 0.0
C471 C 0.64316 0.72278 0.36211 0.0
C472 C 0.65463 0.77335 0.36906 0.0
C473 C 0.65181 0.77865 0.35153 0.0
C474 C 0.6446 0.75596 0.33938 0.0
C475 C 0.64049 0.72836 0.3446 0.0
C476 C 0.65649 0.80785 0.3456 0.0
C477 C 0.6855 0.83253 0.34576 0.0
C478 C 0.63303 0.81049 0.33805 0.0
C479 C 0.60182 0.78523 0.33801 0.0
C480 C 0.58599 0.77515 0.32238 0.0
C481 C 0.55666 0.75121 0.32233 0.0
C482 C 0.54288 0.73725 0.33785 0.0
C483 C 0.55837 0.74726 0.35346 0.0
C484 C 0.58769 0.77119 0.35358 0.0
C485 C 0.69807 0.92675 0.29832 0.0
C486 C 0.68302 0.9416 0.30386 0.0
C487 C 0.69357 0.90092 0.30686 0.0
C488 C 0.67387 0.88955 0.32098 0.0
C489 C 0.65863 0.90418 0.32637 0.0
C490 C 0.66326 0.93002 0.31797 0.0
C491 C 0.66852 0.86204 0.33001 0.0
C492 C 0.63936 0.83756 0.33032 0.0
C493 C 0.69182 0.85973 0.3381 0.0
C494 C 0.72278 0.88532 0.33884 0.0
C495 C 0.72872 0.91272 0.3461 0.0
C496 C 0.75792 0.93682 0.34663 0.0
C497 C 0.78141 0.93375 0.34004 0.0
C498 C 0.77575 0.90654 0.33295 0.0
C499 C 0.74658 0.88236 0.33236 0.0
H500 H 0.80401 0.95244 0.34047 0.0
H501 H 0.52019 0.71872 0.33778 0.0
H502 H 0.04867 0.73431 0.32452 0.0
H503 H 0.09416 0.77411 0.33731 0.0
H504 H 0.12777 0.80969 0.28652 0.0
H505 H 0.0821 0.76928 0.27347 0.0
H506 H 0.16875 0.80486 0.30541 0.0
H507 H 0.10563 0.84632 0.31411 0.0
H508 H 0.06038 0.84728 0.32313 0.0
H509 H 0.0745 0.83065 0.37573 0.0
H510 H 0.11962 0.82916 0.36699 0.0
H511 H 0.29061 0.94029 0.33579 0.0
H512 H 0.24385 0.90339 0.3225 0.0
H513 H 0.21257 0.85947 0.37177 0.0
H514 H 0.25978 0.8965 0.38529 0.0
H515 H 0.17067 0.86987 0.35325 0.0
H516 H 0.23363 0.82744 0.34378 0.0
H517 H 0.27918 0.82749 0.33429 0.0
H518 H 0.26544 0.84751 0.28234 0.0
H519 H 0.22002 0.84801 0.29159 0.0
C520 C 0.06556 0.75073 0.31602 0.0
C521 C 0.06181 0.74862 0.29796 0.0
C522 C 0.09152 0.7736 0.32339 0.0
C523 C 0.11424 0.79504 0.31289 0.0
C524 C 0.11043 0.79338 0.29485 0.0
C525 C 0.08433 0.77039 0.28742 0.0
C526 C 0.14255 0.81803 0.32085 0.0
C527 C 0.16923 0.81946 0.31565 0.0
C528 C 0.14303 0.8365 0.33453 0.0
C529 C 0.11589 0.83737 0.33986 0.0
C530 C 0.09896 0.84262 0.32758 0.0
C531 C 0.07335 0.84331 0.33264 0.0
C532 C 0.06453 0.83896 0.34998 0.0
C533 C 0.08134 0.83398 0.3623 0.0
C534 C 0.10696 0.83325 0.3573 0.0
C535 C 0.27386 0.92279 0.34385 0.0
C536 C 0.27887 0.92126 0.36161 0.0
C537 C 0.24719 0.90167 0.3362 0.0
C538 C 0.22491 0.87867 0.34614 0.0
C539 C 0.22962 0.87711 0.36391 0.0
C540 C 0.25656 0.89815 0.37158 0.0
C541 C 0.19667 0.85652 0.33783 0.0
C542 C 0.17009 0.85529 0.34297 0.0
C543 C 0.19628 0.83837 0.32402 0.0
C544 C 0.22358 0.83806 0.31842 0.0
C545 C 0.24047 0.83212 0.33037 0.0
C546 C 0.26623 0.83199 0.32502 0.0
C547 C 0.27524 0.83758 0.30773 0.0
C548 C 0.25846 0.84323 0.29574 0.0
C549 C 0.23268 0.84341 0.30102 0.0
H550 H 0.29519 0.83746 0.30362 0.0
H551 H 0.0447 0.8395 0.35388 0.0
H552 H 0.88008 0.62078 0.6211 0.0
H553 H 0.83962 0.62772 0.63239 0.0
H554 H 0.88825 0.6624 0.68004 0.0
H555 H 0.92837 0.65525 0.66902 0.0
H556 H 0.83087 0.62323 0.68636 0.0
H557 H 0.88599 0.70903 0.65006 0.0
H558 H 0.90989 0.73583 0.62309 0.0
H559 H 0.82522 0.69166 0.59712 0.0
H560 H 0.80086 0.66426 0.62389 0.0
H561 H 0.74452 0.68555 0.71959 0.0
H562 H 0.78635 0.68044 0.70868 0.0
H563 H 0.73797 0.64195 0.6614 0.0
H564 H 0.69639 0.64699 0.6721 0.0
H565 H 0.79597 0.68412 0.65523 0.0
H566 H 0.74124 0.59773 0.69161 0.0
H567 H 0.7176 0.57124 0.7187 0.0
H568 H 0.80216 0.61728 0.7447 0.0
H569 H 0.82624 0.64437 0.7178 0.0
C570 C 0.8821 0.62987 0.63397 0.0
C571 C 0.90743 0.63751 0.64414 0.0
C572 C 0.85906 0.63393 0.64038 0.0
C573 C 0.86108 0.64582 0.65701 0.0
C574 C 0.88623 0.65318 0.6672 0.0
C575 C 0.90919 0.64915 0.66083 0.0
C576 C 0.837 0.6505 0.66392 0.0
C577 C 0.8235 0.63686 0.67966 0.0
C578 C 0.82708 0.66789 0.65505 0.0
C579 C 0.84166 0.68436 0.63893 0.0
C580 C 0.8725 0.70484 0.63856 0.0
C581 C 0.88613 0.72018 0.62332 0.0
C582 C 0.8691 0.71539 0.60839 0.0
C583 C 0.83839 0.69531 0.60869 0.0
C584 C 0.82466 0.67988 0.6239 0.0
C585 C 0.74287 0.67604 0.70688 0.0
C586 C 0.71714 0.66658 0.69674 0.0
C587 C 0.7667 0.67307 0.70068 0.0
C588 C 0.76512 0.66066 0.68427 0.0
C589 C 0.73964 0.65161 0.67408 0.0
C590 C 0.71584 0.65441 0.68027 0.0
C591 C 0.78984 0.65679 0.67762 0.0
C592 C 0.80343 0.67057 0.66194 0.0
C593 C 0.7999 0.6396 0.68657 0.0
C594 C 0.78547 0.62333 0.70274 0.0
C595 C 0.75474 0.6024 0.70314 0.0
C596 C 0.74127 0.58724 0.71845 0.0
C597 C 0.75835 0.59264 0.73343 0.0
C598 C 0.78895 0.61316 0.7331 0.0
C599 C 0.80253 0.62841 0.71782 0.0
H600 H 0.74788 0.58087 0.74527 0.0
H601 H 0.87969 0.72729 0.5966 0.0
H602 H 0.35111 0.26412 0.60062 0.0
H603 H 0.3431 0.21709 0.6133 0.0
H604 H 0.3025 0.23194 0.65813 0.0
H605 H 0.31076 0.27878 0.64579 0.0
H606 H 0.34231 0.21612 0.66746 0.0
H607 H 0.2602 0.1808 0.62768 0.0
H608 H 0.2363 0.17534 0.59929 0.0
H609 H 0.28513 0.1353 0.57856 0.0
H610 H 0.30965 0.14089 0.60679 0.0
H611 H 0.28171 0.07198 0.70586 0.0
H612 H 0.28595 0.11687 0.69228 0.0
H613 H 0.3272 0.10273 0.64751 0.0
H614 H 0.32278 0.05795 0.66081 0.0
H615 H 0.28647 0.11789 0.6381 0.0
H616 H 0.36915 0.154 0.67767 0.0
H617 H 0.39323 0.15956 0.70602 0.0
H618 H 0.34342 0.19831 0.72707 0.0
H619 H 0.31873 0.19261 0.69889 0.0
C620 C 0.34037 0.25725 0.61314 0.0
C621 C 0.33152 0.27515 0.62218 0.0
C622 C 0.33572 0.23036 0.62034 0.0
C623 C 0.32204 0.22096 0.63663 0.0
C624 C 0.31312 0.23877 0.64558 0.0
C625 C 0.31776 0.26552 0.63843 0.0
C626 C 0.31757 0.19296 0.64468 0.0
C627 C 0.32977 0.19458 0.66113 0.0
C628 C 0.30173 0.16497 0.63627 0.0
C629 C 0.28699 0.16155 0.6193 0.0
C630 C 0.26603 0.17106 0.61703 0.0
C631 C 0.25234 0.1679 0.60098 0.0
C632 C 0.25926 0.15506 0.58712 0.0
C633 C 0.27983 0.14528 0.5893 0.0
C634 C 0.29362 0.14842 0.60533 0.0
C635 C 0.29157 0.0784 0.69311 0.0
C636 C 0.30204 0.0615 0.68446 0.0
C637 C 0.29406 0.10407 0.68538 0.0
C638 C 0.30714 0.11325 0.66894 0.0
C639 C 0.31702 0.09605 0.66018 0.0
C640 C 0.31458 0.0705 0.66786 0.0
C641 C 0.31115 0.14107 0.66089 0.0
C642 C 0.29893 0.13943 0.64444 0.0
C643 C 0.327 0.16907 0.66929 0.0
C644 C 0.34186 0.17258 0.68623 0.0
C645 C 0.36315 0.16348 0.68838 0.0
C646 C 0.37695 0.1667 0.70441 0.0
C647 C 0.3698 0.1792 0.71835 0.0
C648 C 0.3489 0.18859 0.71627 0.0
C649 C 0.33501 0.18538 0.70027 0.0
H650 H 0.38051 0.18168 0.73075 0.0
H651 H 0.24862 0.15262 0.5747 0.0
H652 H 0.71797 0.04262 0.67562 0.0
H653 H 0.76628 0.07697 0.68844 0.0
H654 H 0.79495 0.12578 0.64042 0.0
H655 H 0.74624 0.09147 0.62742 0.0
H656 H 0.83734 0.11214 0.6563 0.0
H657 H 0.77609 0.15519 0.67063 0.0
H658 H 0.73157 0.15477 0.68242 0.0
H659 H 0.74919 0.13106 0.7325 0.0
H660 H 0.79361 0.13091 0.72094 0.0
H661 H 0.95959 0.24929 0.68091 0.0
H662 H 0.91315 0.20776 0.67031 0.0
H663 H 0.88902 0.17336 0.72225 0.0
H664 H 0.93581 0.21556 0.73313 0.0
H665 H 0.84401 0.17587 0.70609 0.0
H666 H 0.90733 0.13661 0.69279 0.0
H667 H 0.95178 0.13648 0.68137 0.0
H668 H 0.9305 0.15171 0.63006 0.0
H669 H 0.88613 0.15237 0.6412 0.0
C670 C 0.73453 0.06061 0.66773 0.0
C671 C 0.72831 0.0644 0.6505 0.0
C672 C 0.76208 0.08023 0.67511 0.0
C673 C 0.78403 0.10391 0.66539 0.0
C674 C 0.77819 0.10756 0.6481 0.0
C675 C 0.75039 0.08807 0.64073 0.0
C676 C 0.81293 0.12501 0.67345 0.0
C677 C 0.83894 0.12637 0.66706 0.0
C678 C 0.81466 0.14262 0.68789 0.0
C679 C 0.78797 0.1427 0.69487 0.0
C680 C 0.77031 0.1496 0.68412 0.0
C681 C 0.74513 0.14953 0.69077 0.0
C682 C 0.7375 0.1428 0.70819 0.0
C683 C 0.75509 0.13621 0.719 0.0
C684 C 0.78028 0.13622 0.71241 0.0
C685 C 0.94461 0.23279 0.69013 0.0
C686 C 0.95132 0.23575 0.70789 0.0
C687 C 0.91812 0.20891 0.684 0.0
C688 C 0.89777 0.18729 0.69545 0.0
C689 C 0.90454 0.18979 0.71319 0.0
C690 C 0.93126 0.21379 0.71937 0.0
C691 C 0.86868 0.16342 0.68881 0.0
C692 C 0.84252 0.16148 0.69546 0.0
C693 C 0.86682 0.14514 0.67467 0.0
C694 C 0.89349 0.14476 0.66787 0.0
C695 C 0.91224 0.14017 0.67909 0.0
C696 C 0.93741 0.13996 0.67266 0.0
C697 C 0.94399 0.14414 0.655 0.0
C698 C 0.92538 0.14849 0.64373 0.0
C699 C 0.90019 0.14874 0.6501 0.0
H700 H 0.96348 0.14396 0.65005 0.0
H701 H 0.718 0.14277 0.71331 0.0
H702 H 0.36409 0.09681 0.11435 0.0
H703 H 0.36913 0.12763 0.13961 0.0
H704 H 0.27967 0.11137 0.13148 0.0
H705 H 0.27475 0.08122 0.10611 0.0
H706 H 0.31627 0.1686 0.13655 0.0
H707 H 0.29702 0.07804 0.16491 0.0
H708 H 0.30483 0.0358 0.17172 0.0
H709 H 0.39353 0.09688 0.18951 0.0
H710 H 0.38639 0.13953 0.1826 0.0
H711 H 0.29877 0.22535 0.2173 0.0
H712 H 0.29321 0.19291 0.19277 0.0
H713 H 0.38486 0.21469 0.19859 0.0
H714 H 0.3906 0.24697 0.22306 0.0
H715 H 0.34722 0.15468 0.19492 0.0
H716 H 0.36606 0.24513 0.16634 0.0
H717 H 0.35771 0.28708 0.15972 0.0
H718 H 0.26877 0.22541 0.14253 0.0
H719 H 0.27645 0.18304 0.14928 0.0
C720 C 0.34541 0.09957 0.11807 0.0
C721 C 0.31906 0.08665 0.10822 0.0
C722 C 0.34828 0.11712 0.13253 0.0
C723 C 0.32471 0.1217 0.13749 0.0
C724 C 0.29819 0.10826 0.12787 0.0
C725 C 0.29539 0.09094 0.11339 0.0
C726 C 0.32796 0.14148 0.15226 0.0
C727 C 0.32262 0.16526 0.14937 0.0
C728 C 0.33692 0.13759 0.1689 0.0
C729 C 0.34127 0.11199 0.17307 0.0
C730 C 0.31828 0.08248 0.17014 0.0
C731 C 0.32257 0.05846 0.17405 0.0
C732 C 0.34968 0.06366 0.181 0.0
C733 C 0.37255 0.09289 0.1841 0.0
C734 C 0.36839 0.11699 0.18021 0.0
C735 C 0.31778 0.22336 0.21328 0.0
C736 C 0.34513 0.23877 0.2221 0.0
C737 C 0.31458 0.20486 0.19926 0.0
C738 C 0.33867 0.2015 0.19384 0.0
C739 C 0.36598 0.21693 0.20259 0.0
C740 C 0.36924 0.23548 0.21653 0.0
C741 C 0.3354 0.1816 0.17918 0.0
C742 C 0.3408 0.15789 0.18209 0.0
C743 C 0.32638 0.18546 0.16258 0.0
C744 C 0.32173 0.2109 0.15849 0.0
C745 C 0.34463 0.2405 0.16129 0.0
C746 C 0.34004 0.26436 0.15748 0.0
C747 C 0.3127 0.25891 0.15075 0.0
C748 C 0.28992 0.22959 0.14777 0.0
C749 C 0.29439 0.20565 0.15157 0.0
H750 H 0.30919 0.27742 0.14781 0.0
H751 H 0.35296 0.04503 0.18402 0.0
H752 H 0.89489 0.2714 0.11381 0.0
H753 H 0.8643 0.24434 0.13887 0.0
H754 H 0.90409 0.18818 0.13935 0.0
H755 H 0.9344 0.2148 0.11427 0.0
H756 H 0.84455 0.15546 0.14037 0.0
H757 H 0.92048 0.24057 0.17067 0.0
H758 H 0.95302 0.29415 0.177 0.0
H759 H 0.87605 0.30304 0.1867 0.0
H760 H 0.84302 0.24957 0.18019 0.0
H761 H 0.77919 0.08059 0.21966 0.0
H762 H 0.81401 0.1098 0.19653 0.0
H763 H 0.77828 0.16951 0.19604 0.0
H764 H 0.74402 0.14093 0.21935 0.0
H765 H 0.83708 0.2005 0.19545 0.0
H766 H 0.76118 0.11624 0.16417 0.0
H767 H 0.72827 0.06282 0.15757 0.0
H768 H 0.80481 0.05256 0.14938 0.0
H769 H 0.83819 0.10587 0.15616 0.0
C770 C 0.89746 0.2536 0.11942 0.0
C771 C 0.91697 0.24517 0.11201 0.0
C772 C 0.88 0.23819 0.13376 0.0
C773 C 0.88195 0.21425 0.14098 0.0
C774 C 0.90215 0.20649 0.13394 0.0
C775 C 0.91953 0.22182 0.11963 0.0
C776 C 0.86169 0.19607 0.15519 0.0
C777 C 0.84325 0.16523 0.15253 0.0
C778 C 0.85945 0.20895 0.17085 0.0
C779 C 0.87927 0.24112 0.17477 0.0
C780 C 0.91048 0.254 0.17401 0.0
C781 C 0.92902 0.28434 0.17766 0.0
C782 C 0.91661 0.302 0.18221 0.0
C783 C 0.88564 0.28934 0.18315 0.0
C784 C 0.86699 0.25901 0.1795 0.0
C785 C 0.77862 0.0998 0.21452 0.0
C786 C 0.75884 0.10843 0.22132 0.0
C787 C 0.79849 0.11646 0.20129 0.0
C788 C 0.79863 0.14176 0.19447 0.0
C789 C 0.77866 0.15015 0.20114 0.0
C790 C 0.75899 0.13369 0.21442 0.0
C791 C 0.81987 0.15989 0.1806 0.0
C792 C 0.83847 0.19071 0.18331 0.0
C793 C 0.8222 0.14702 0.16494 0.0
C794 C 0.80217 0.11497 0.16085 0.0
C795 C 0.77099 0.10254 0.1611 0.0
C796 C 0.75225 0.07229 0.1573 0.0
C797 C 0.76444 0.05429 0.15311 0.0
C798 C 0.7954 0.06652 0.15266 0.0
C799 C 0.81423 0.09676 0.15646 0.0
H800 H 0.7499 0.03087 0.15017 0.0
H801 H 0.931 0.32549 0.18504 0.0
H802 H 0.9508 0.69953 0.21606 0.0
H803 H 0.92377 0.70846 0.193 0.0
H804 H 0.8722 0.61372 0.18318 0.0
H805 H 0.89913 0.60459 0.20612 0.0
H806 H 0.88725 0.6466 0.15312 0.0
H807 H 0.84332 0.6443 0.2081 0.0
H808 H 0.84306 0.65879 0.23846 0.0
H809 H 0.87412 0.74935 0.2227 0.0
H810 H 0.87501 0.73547 0.19224 0.0
H811 H 0.76174 0.64214 0.1118 0.0
H812 H 0.79155 0.63377 0.1334 0.0
H813 H 0.84749 0.72897 0.13993 0.0
H814 H 0.81816 0.73753 0.11824 0.0
H815 H 0.83026 0.69583 0.17147 0.0
H816 H 0.87301 0.6967 0.11596 0.0
H817 H 0.87226 0.68081 0.0858 0.0
H818 H 0.84152 0.59096 0.10287 0.0
H819 H 0.84164 0.60623 0.13314 0.0
C820 C 0.93414 0.68066 0.20876 0.0
C821 C 0.9269 0.65134 0.21301 0.0
C822 C 0.91861 0.68578 0.19566 0.0
C823 C 0.89567 0.66169 0.1866 0.0
C824 C 0.88974 0.63259 0.19007 0.0
C825 C 0.90512 0.62743 0.20321 0.0
C826 C 0.87651 0.66657 0.17435 0.0
C827 C 0.87457 0.6571 0.15716 0.0
C828 C 0.86017 0.6805 0.17963 0.0
C829 C 0.85955 0.68891 0.19791 0.0
C830 C 0.85034 0.66736 0.21112 0.0
C831 C 0.85003 0.67544 0.22835 0.0
C832 C 0.85865 0.70498 0.23251 0.0
C833 C 0.86751 0.72648 0.21945 0.0
C834 C 0.86791 0.71852 0.2022 0.0
C835 C 0.78016 0.66125 0.118 0.0
C836 C 0.78771 0.69048 0.11331 0.0
C837 C 0.79722 0.65645 0.13025 0.0
C838 C 0.82182 0.68079 0.1381 0.0
C839 C 0.82862 0.70993 0.13397 0.0
C840 C 0.81188 0.71476 0.12156 0.0
C841 C 0.84112 0.67598 0.15024 0.0
C842 C 0.84301 0.6854 0.16743 0.0
C843 C 0.8572 0.6618 0.14499 0.0
C844 C 0.85701 0.65254 0.1268 0.0
C845 C 0.86579 0.67349 0.11327 0.0
C846 C 0.86554 0.66461 0.09616 0.0
C847 C 0.85678 0.63488 0.09242 0.0
C848 C 0.84826 0.61397 0.10579 0.0
C849 C 0.84843 0.62273 0.12293 0.0
H850 H 0.8567 0.62808 0.07918 0.0
H851 H 0.85838 0.7112 0.24585 0.0
H852 H 0.71655 0.90041 0.88799 0.0
H853 H 0.70798 0.86952 0.86243 0.0
H854 H 0.61859 0.85521 0.85821 0.0
H855 H 0.6269 0.886 0.88399 0.0
H856 H 0.61977 0.80334 0.85598 0.0
H857 H 0.67197 0.90032 0.82981 0.0
H858 H 0.71286 0.95229 0.82632 0.0
H859 H 0.77516 0.9214 0.8184 0.0
H860 H 0.7347 0.86923 0.82209 0.0
H861 H 0.58627 0.73515 0.77377 0.0
H862 H 0.59618 0.76891 0.79803 0.0
H863 H 0.68608 0.78439 0.80154 0.0
H864 H 0.67647 0.75083 0.77692 0.0
H865 H 0.68487 0.83601 0.80402 0.0
H866 H 0.63331 0.73938 0.83058 0.0
H867 H 0.59278 0.68729 0.83426 0.0
H868 H 0.52977 0.71741 0.84176 0.0
H869 H 0.56988 0.76969 0.83788 0.0
C870 C 0.69512 0.89093 0.88156 0.0
C871 C 0.67237 0.89562 0.88803 0.0
C872 C 0.69033 0.87338 0.86689 0.0
C873 C 0.66274 0.86026 0.85834 0.0
C874 C 0.64007 0.86519 0.86462 0.0
C875 C 0.64488 0.88285 0.8793 0.0
C876 C 0.65718 0.84023 0.84337 0.0
C877 C 0.63369 0.81061 0.84449 0.0
C878 C 0.67596 0.84951 0.82864 0.0
C879 C 0.70034 0.88087 0.82639 0.0
C880 C 0.69443 0.90462 0.82747 0.0
C881 C 0.71752 0.93411 0.82543 0.0
C882 C 0.7466 0.94015 0.82219 0.0
C883 C 0.75263 0.91669 0.82093 0.0
C884 C 0.72962 0.88715 0.82298 0.0
C885 C 0.60815 0.7456 0.77971 0.0
C886 C 0.63056 0.74019 0.77347 0.0
C887 C 0.61374 0.76485 0.79363 0.0
C888 C 0.64174 0.77888 0.80173 0.0
C889 C 0.66428 0.77372 0.79548 0.0
C890 C 0.65873 0.75446 0.78148 0.0
C891 C 0.64741 0.79914 0.81661 0.0
C892 C 0.67093 0.82877 0.8155 0.0
C893 C 0.62872 0.78986 0.83138 0.0
C894 C 0.60456 0.75844 0.83378 0.0
C895 C 0.61077 0.73489 0.83288 0.0
C896 C 0.58788 0.70533 0.83502 0.0
C897 C 0.5587 0.69904 0.8382 0.0
C898 C 0.55238 0.72231 0.83928 0.0
C899 C 0.57519 0.75192 0.83713 0.0
H900 H 0.54101 0.67614 0.83985 0.0
H901 H 0.76445 0.963 0.82061 0.0
H902 H 0.0738 0.8151 0.88459 0.0
H903 H 0.10695 0.84255 0.86064 0.0
H904 H 0.13194 0.77473 0.85576 0.0
H905 H 0.09887 0.74711 0.87993 0.0
H906 H 0.18039 0.83096 0.85559 0.0
H907 H 0.08617 0.77934 0.82633 0.0
H908 H 0.03306 0.76292 0.82143 0.0
H909 H 0.05456 0.85423 0.8157 0.0
H910 H 0.10778 0.87123 0.82081 0.0
H911 H 0.25344 0.87571 0.77465 0.0
H912 H 0.22076 0.8494 0.79894 0.0
H913 H 0.19382 0.91601 0.80167 0.0
H914 H 0.22623 0.94232 0.777 0.0
H915 H 0.14645 0.86098 0.8032 0.0
H916 H 0.24062 0.91281 0.83215 0.0
H917 H 0.29374 0.92953 0.83726 0.0
H918 H 0.27257 0.83847 0.84383 0.0
H919 H 0.21934 0.82116 0.83853 0.0
C920 C 0.08615 0.80584 0.87836 0.0
C921 C 0.08366 0.77887 0.88416 0.0
C922 C 0.10503 0.82155 0.86462 0.0
C923 C 0.12175 0.81059 0.85632 0.0
C924 C 0.1192 0.78356 0.86198 0.0
C925 C 0.1002 0.76775 0.87573 0.0
C926 C 0.14255 0.82789 0.8421 0.0
C927 C 0.17293 0.83715 0.84401 0.0
C928 C 0.13291 0.83673 0.82725 0.0
C929 C 0.10093 0.82657 0.82412 0.0
C930 C 0.07954 0.79593 0.82417 0.0
C931 C 0.04943 0.78652 0.82132 0.0
C932 C 0.04043 0.80752 0.8183 0.0
C933 C 0.06155 0.83799 0.81807 0.0
C934 C 0.0917 0.84752 0.82092 0.0
C935 C 0.2408 0.88499 0.78049 0.0
C936 C 0.24248 0.91117 0.7739 0.0
C937 C 0.22219 0.86994 0.79445 0.0
C938 C 0.20505 0.88087 0.80227 0.0
C939 C 0.20689 0.9072 0.79585 0.0
C940 C 0.22551 0.92228 0.78181 0.0
C941 C 0.18436 0.86404 0.81665 0.0
C942 C 0.15397 0.85485 0.81479 0.0
C943 C 0.19401 0.85533 0.83156 0.0
C944 C 0.22601 0.86567 0.83479 0.0
C945 C 0.24731 0.89633 0.83455 0.0
C946 C 0.27744 0.90592 0.8375 0.0
C947 C 0.28653 0.88507 0.84082 0.0
C948 C 0.2655 0.85459 0.84124 0.0
C949 C 0.23534 0.84488 0.83828 0.0
H950 H 0.30987 0.89255 0.84311 0.0
H951 H 0.0171 0.80019 0.8161 0.0
H952 H 0.27772 0.38001 0.88823 0.0
H953 H 0.24952 0.38497 0.86425 0.0
H954 H 0.19339 0.28911 0.86226 0.0
H955 H 0.22149 0.28395 0.88604 0.0
H956 H 0.20704 0.31341 0.83004 0.0
H957 H 0.1703 0.33007 0.88366 0.0
H958 H 0.17462 0.35433 0.91182 0.0
H959 H 0.2078 0.43912 0.88652 0.0
H960 H 0.20409 0.4154 0.85821 0.0
H961 H 0.08204 0.30133 0.78538 0.0
H962 H 0.11272 0.29818 0.8085 0.0
H963 H 0.16733 0.39426 0.80887 0.0
H964 H 0.13676 0.39764 0.7859 0.0
H965 H 0.15557 0.37101 0.84157 0.0
H966 H 0.19101 0.35376 0.78775 0.0
H967 H 0.18624 0.32908 0.75968 0.0
H968 H 0.155 0.24497 0.78545 0.0
H969 H 0.15918 0.26909 0.81367 0.0
C970 C 0.25971 0.35999 0.88248 0.0
C971 C 0.25167 0.33161 0.88911 0.0
C972 C 0.24352 0.36286 0.86886 0.0
C973 C 0.21908 0.33741 0.86168 0.0
C974 C 0.21209 0.30903 0.86766 0.0
C975 C 0.22815 0.30615 0.88129 0.0
C976 C 0.19974 0.34024 0.84857 0.0
C977 C 0.19557 0.32578 0.83261 0.0
C978 C 0.18514 0.35674 0.85186 0.0
C979 C 0.18724 0.37102 0.86885 0.0
C980 C 0.17875 0.35393 0.88412 0.0
C981 C 0.18105 0.36757 0.9001 0.0
C982 C 0.19156 0.39826 0.90096 0.0
C983 C 0.19971 0.41536 0.88583 0.0
C984 C 0.1975 0.40183 0.86982 0.0
C985 C 0.10033 0.32179 0.79055 0.0
C986 C 0.1071 0.34971 0.78374 0.0
C987 C 0.11793 0.31995 0.80368 0.0
C988 C 0.14256 0.34598 0.81019 0.0
C989 C 0.14851 0.37391 0.80397 0.0
C990 C 0.13103 0.37577 0.79081 0.0
C991 C 0.1628 0.34411 0.82305 0.0
C992 C 0.16712 0.35874 0.83897 0.0
C993 C 0.1775 0.32771 0.81974 0.0
C994 C 0.17513 0.31318 0.8028 0.0
C995 C 0.1829 0.32996 0.78742 0.0
C996 C 0.18034 0.31608 0.77148 0.0
C997 C 0.17025 0.28546 0.77078 0.0
C998 C 0.16277 0.26867 0.78601 0.0
C999 C 0.16526 0.28244 0.80198 0.0
H1000 H 0.16828 0.27475 0.75843 0.0
H1001 H 0.19332 0.40879 0.91335 0.0
H1002 H 0.02353 0.42889 0.4541 0.0
H1003 H 0.02728 0.46114 0.47831 0.0
H1004 H 0.93845 0.44462 0.46743 0.0
H1005 H 0.9349 0.41314 0.44301 0.0
H1006 H 0.97416 0.50174 0.47233 0.0
H1007 H 0.954 0.41249 0.5026 0.0
H1008 H 0.9616 0.37063 0.51079 0.0
H1009 H 0.04949 0.4326 0.52936 0.0
H1010 H 0.04256 0.47486 0.52108 0.0
H1011 H 0.95385 0.56095 0.55197 0.0
H1012 H 0.9495 0.52939 0.5272 0.0
H1013 H 0.04027 0.54953 0.53509 0.0
H1014 H 0.04471 0.58074 0.55982 0.0
H1015 H 0.00286 0.49033 0.53184 0.0
H1016 H 0.02231 0.57959 0.50137 0.0
H1017 H 0.01378 0.62095 0.49338 0.0
H1018 H 0.9257 0.55796 0.47553 0.0
H1019 H 0.93357 0.51619 0.48363 0.0
C1020 C 0.00471 0.43192 0.45699 0.0
C1021 C 0.97895 0.41851 0.44665 0.0
C1022 C 0.00684 0.4503 0.47085 0.0
C1023 C 0.98304 0.45516 0.47477 0.0
C1024 C 0.95712 0.44131 0.46463 0.0
C1025 C 0.9551 0.42322 0.4507 0.0
C1026 C 0.98541 0.47543 0.48907 0.0
C1027 C 0.98003 0.49897 0.48541 0.0
C1028 C 0.99365 0.47222 0.50605 0.0
C1029 C -0.00214 0.44684 0.51106 0.0
C1030 C 0.97504 0.4172 0.50831 0.0
C1031 C 0.97921 0.39339 0.51299 0.0
C1032 C 0.00604 0.39895 0.52055 0.0
C1033 C 0.02873 0.42833 0.52348 0.0
C1034 C 0.02468 0.45221 0.51881 0.0
C1035 C 0.97298 0.55895 0.54827 0.0
C1036 C -0.00042 0.57327 0.55788 0.0
C1037 C 0.97049 0.54094 0.53412 0.0
C1038 C 0.99459 0.53713 0.52931 0.0
C1039 C 0.02136 0.55205 0.53862 0.0
C1040 C 0.02387 0.56998 0.55273 0.0
C1041 C 0.99168 0.51662 0.51507 0.0
C1042 C -0.00305 0.49303 0.51876 0.0
C1043 C 0.98317 0.51968 0.49816 0.0
C1044 C 0.97842 0.54476 0.49328 0.0
C1045 C 0.00103 0.57455 0.49588 0.0
C1046 C 0.99634 0.59807 0.4913 0.0
C1047 C 0.96919 0.59208 0.484 0.0
C1048 C 0.94671 0.56256 0.48122 0.0
C1049 C 0.95128 0.53896 0.48578 0.0
H1050 H 0.9656 0.61032 0.48046 0.0
H1051 H 0.00923 0.38049 0.52416 0.0
H1052 H 0.56972 0.59835 0.44101 0.0
H1053 H 0.53697 0.5735 0.46572 0.0
H1054 H 0.55804 0.50266 0.46276 0.0
H1055 H 0.59032 0.52702 0.43793 0.0
H1056 H 0.49958 0.48034 0.46438 0.0
H1057 H 0.58438 0.55408 0.49585 0.0
H1058 H 0.62457 0.60481 0.50333 0.0
H1059 H 0.55953 0.6308 0.51498 0.0
H1060 H 0.51893 0.58032 0.50735 0.0
H1061 H 0.42706 0.40759 0.54293 0.0
H1062 H 0.46352 0.43345 0.51988 0.0
H1063 H 0.44414 0.50554 0.52154 0.0
H1064 H 0.40817 0.48018 0.54473 0.0
H1065 H 0.50277 0.52693 0.52101 0.0
H1066 H 0.4182 0.45385 0.48867 0.0
H1067 H 0.37791 0.40321 0.48112 0.0
H1068 H 0.44265 0.37617 0.47103 0.0
H1069 H 0.48333 0.42657 0.47874 0.0
C1070 C 0.56773 0.57773 0.4458 0.0
C1071 C 0.58252 0.5646 0.43748 0.0
C1072 C 0.54905 0.56357 0.45995 0.0
C1073 C 0.5451 0.53623 0.46612 0.0
C1074 C 0.56065 0.52365 0.45817 0.0
C1075 C 0.57918 0.53769 0.44401 0.0
C1076 C 0.52342 0.51977 0.48014 0.0
C1077 C 0.50057 0.49038 0.47687 0.0
C1078 C 0.52425 0.53311 0.49627 0.0
C1079 C 0.54862 0.56349 0.50087 0.0
C1080 C 0.57865 0.57068 0.49987 0.0
C1081 C 0.6015 0.59938 0.50416 0.0
C1082 C 0.59461 0.62103 0.50958 0.0
C1083 C 0.56484 0.61401 0.51076 0.0
C1084 C 0.5419 0.58535 0.50647 0.0
C1085 C 0.43038 0.42882 0.53827 0.0
C1086 C 0.41471 0.44182 0.54564 0.0
C1087 C 0.4512 0.44356 0.52509 0.0
C1088 C 0.45645 0.47138 0.51893 0.0
C1089 C 0.44053 0.48417 0.52613 0.0
C1090 C 0.41987 0.46954 0.53934 0.0
C1091 C 0.47894 0.48756 0.50522 0.0
C1092 C 0.50189 0.51689 0.50855 0.0
C1093 C 0.4782 0.47419 0.48912 0.0
C1094 C 0.45378 0.44389 0.48445 0.0
C1095 C 0.42383 0.43704 0.48497 0.0
C1096 C 0.40093 0.40839 0.48064 0.0
C1097 C 0.40771 0.38646 0.47564 0.0
C1098 C 0.43742 0.39316 0.47493 0.0
C1099 C 0.46041 0.42177 0.47926 0.0
H1100 H 0.38995 0.36429 0.47229 0.0
H1101 H 0.61234 0.64323 0.51291 0.0
H1102 H 0.52111 0.95167 0.56922 0.0
H1103 H 0.49763 0.95611 0.54294 0.0
H1104 H 0.57673 0.03988 0.53111 0.0
H1105 H 0.60053 0.03567 0.5576 0.0
H1106 H 0.52501 0.04256 0.52773 0.0
H1107 H 0.56203 0.97905 0.50846 0.0
H1108 H 0.56976 0.93569 0.5096 0.0
H1109 H 0.47515 0.87609 0.50622 0.0
H1110 H 0.46681 0.91911 0.50531 0.0
H1111 H 0.48362 0.05481 0.44226 0.0
H1112 H 0.50889 0.05083 0.46784 0.0
H1113 H 0.4328 0.96453 0.47932 0.0
H1114 H 0.40742 0.96811 0.45341 0.0
H1115 H 0.48403 0.96364 0.48266 0.0
H1116 H 0.44663 0.02657 0.50255 0.0
H1117 H 0.43838 0.06962 0.50168 0.0
H1118 H 0.53294 0.12991 0.50425 0.0
H1119 H 0.54179 0.0872 0.5049 0.0
C1120 C 0.53365 0.97102 0.56102 0.0
C1121 C 0.56273 0.99334 0.56549 0.0
C1122 C 0.5202 0.97343 0.54595 0.0
C1123 C 0.53553 -0.00182 0.535 0.0
C1124 C 0.56457 0.02056 0.53939 0.0
C1125 C 0.57815 0.01808 0.55447 0.0
C1126 C 0.52071 0.00089 0.51925 0.0
C1127 C 0.51648 0.02557 0.51772 0.0
C1128 C 0.50885 0.97825 0.50647 0.0
C1129 C 0.51379 0.95232 0.50697 0.0
C1130 C 0.54285 0.9567 0.50811 0.0
C1131 C 0.54735 0.93218 0.50868 0.0
C1132 C 0.52296 0.90315 0.50803 0.0
C1133 C 0.49402 0.89859 0.50675 0.0
C1134 C 0.4894 0.92303 0.50618 0.0
C1135 C 0.47212 0.03501 0.45025 0.0
C1136 C 0.44343 0.0118 0.44583 0.0
C1137 C 0.4866 0.03284 0.46492 0.0
C1138 C 0.47261 0.00756 0.47562 0.0
C1139 C 0.44397 0.98428 0.47125 0.0
C1140 C 0.42946 0.98639 0.45649 0.0
C1141 C 0.48822 0.00529 0.49114 0.0
C1142 C 0.4926 0.98067 0.49264 0.0
C1143 C 0.50013 0.02794 0.50393 0.0
C1144 C 0.49488 0.05368 0.5036 0.0
C1145 C 0.46568 0.04901 0.50279 0.0
C1146 C 0.46089 0.07335 0.50237 0.0
C1147 C 0.48512 0.10248 0.50287 0.0
C1148 C 0.51419 0.10733 0.50384 0.0
C1149 C 0.51911 0.08306 0.50426 0.0
H1150 H 0.48137 0.12129 0.50254 0.0
H1151 H 0.52648 0.8842 0.50847 0.0
H1152 H 0.22365 0.96773 0.05276 0.0
H1153 H 0.18214 0.9198 0.04362 0.0
H1154 H 0.23659 0.87884 0.0508 0.0
H1155 H 0.27878 0.9274 0.05886 0.0
H1156 H 0.21727 0.868 0.0208 0.0
H1157 H 0.16795 0.85662 0.07396 0.0
H1158 H 0.14828 0.87024 0.09928 0.0
H1159 H 0.09022 0.88522 0.06632 0.0
H1160 H 0.10984 0.87212 0.04076 0.0
H1161 H 0.09577 0.73565 0.984 0.0
H1162 H 0.12814 0.76784 0.00721 0.0
H1163 H 0.10928 0.83703 0.99199 0.0
H1164 H 0.07739 0.80533 0.96856 0.0
H1165 H 0.10851 0.82475 0.03021 0.0
H1166 H 0.16818 0.84505 0.97729 0.0
H1167 H 0.18794 0.82954 0.95281 0.0
H1168 H 0.2264 0.79408 0.9882 0.0
H1169 H 0.20646 0.80903 0.0129 0.0
C1170 C 0.22641 0.94828 0.05294 0.0
C1171 C 0.2544 0.95121 0.05632 0.0
C1172 C 0.20257 0.92074 0.0478 0.0
C1173 C 0.2061 0.89552 0.04649 0.0
C1174 C 0.23334 0.89797 0.05155 0.0
C1175 C 0.2574 0.92566 0.05621 0.0
C1176 C 0.18355 0.86849 0.03712 0.0
C1177 C 0.19354 0.85806 0.0233 0.0
C1178 C 0.15246 0.85558 0.04007 0.0
C1179 C 0.14052 0.86351 0.0554 0.0
C1180 C 0.15115 0.86302 0.07208 0.0
C1181 C 0.13997 0.87062 0.08649 0.0
C1182 C 0.11804 0.87862 0.08441 0.0
C1183 C 0.1072 0.879 0.06791 0.0
C1184 C 0.1183 0.87143 0.05346 0.0
C1185 C 0.09838 0.75766 0.98567 0.0
C1186 C 0.0843 0.76812 0.97438 0.0
C1187 C 0.11673 0.77589 0.99895 0.0
C1188 C 0.12085 0.80462 0.00129 0.0
C1189 C 0.1061 0.81477 0.99041 0.0
C1190 C 0.08818 0.79678 0.97695 0.0
C1191 C 0.14258 0.82522 0.01403 0.0
C1192 C 0.13235 0.83436 0.02828 0.0
C1193 C 0.17347 0.83664 0.01175 0.0
C1194 C 0.1855 0.82777 0.99691 0.0
C1195 C 0.18059 0.83368 0.97984 0.0
C1196 C 0.19188 0.82505 0.96593 0.0
C1197 C 0.20832 0.81073 0.96895 0.0
C1198 C 0.21359 0.8051 0.98589 0.0
C1199 C 0.20231 0.81365 -0.00016 0.0
H1200 H 0.21705 0.80409 0.95816 0.0
H1201 H 0.10942 0.8845 0.09558 0.0
H1202 H 0.04417 0.35279 0.0258 0.0
H1203 H 0.09155 0.36015 0.01506 0.0
H1204 H 0.09771 0.31158 0.05879 0.0
H1205 H 0.04955 0.30323 0.06943 0.0
H1206 H 0.14743 0.38376 0.02434 0.0
H1207 H 0.12402 0.26672 0.04452 0.0
H1208 H 0.08138 0.21739 0.05225 0.0
H1209 H 0.02316 0.23506 0.02112 0.0
H1210 H 0.06551 0.28428 0.01305 0.0
H1211 H 0.26982 0.3683 0.99605 0.0
H1212 H 0.23083 0.36727 0.01436 0.0
H1213 H 0.16361 0.30562 0.97908 0.0
H1214 H 0.20237 0.30612 0.96081 0.0
H1215 H 0.14702 0.28934 0.01173 0.0
H1216 H 0.18541 0.37918 0.97812 0.0
H1217 H 0.2242 0.42769 0.96653 0.0
H1218 H 0.24629 0.46318 0.01804 0.0
H1219 H 0.20785 0.41472 0.02996 0.0
C1220 C 0.05574 0.34406 0.03333 0.0
C1221 C 0.04275 0.32687 0.04828 0.0
C1222 C 0.08298 0.34843 0.0272 0.0
C1223 C 0.09784 0.33588 0.03593 0.0
C1224 C 0.08626 0.32094 0.05168 0.0
C1225 C 0.0588 0.3163 0.05776 0.0
C1226 C 0.12359 0.33592 0.02751 0.0
C1227 C 0.14754 0.36317 0.02178 0.0
C1228 C 0.12339 0.30897 0.0238 0.0
C1229 C 0.09784 0.27928 0.02838 0.0
C1230 C 0.10212 0.26001 0.03931 0.0
C1231 C 0.07801 0.23209 0.04374 0.0
C1232 C 0.04956 0.22315 0.03723 0.0
C1233 C 0.04518 0.24205 0.02621 0.0
C1234 C 0.06922 0.26996 0.02171 0.0
C1235 C 0.24674 0.35441 0.9922 0.0
C1236 C 0.23921 0.33739 0.97691 0.0
C1237 C 0.22451 0.35392 0.00268 0.0
C1238 C 0.19439 0.3366 0.99798 0.0
C1239 C 0.18675 0.31911 0.98294 0.0
C1240 C 0.20895 0.3195 0.97248 0.0
C1241 C 0.17076 0.33716 0.0085 0.0
C1242 C 0.14723 0.31001 0.01461 0.0
C1243 C 0.17089 0.36409 0.01206 0.0
C1244 C 0.19402 0.39323 0.00494 0.0
C1245 C 0.19872 0.39725 0.98699 0.0
C1246 C 0.2206 0.42475 0.98035 0.0
C1247 C 0.23776 0.44847 0.99155 0.0
C1248 C 0.23302 0.44477 0.00939 0.0
C1249 C 0.21118 0.4173 0.01609 0.0
H1250 H 0.25469 0.46975 0.98639 0.0
H1251 H 0.03092 0.20154 0.0407 0.0
H1252 H 0.6522 0.71998 0.07728 0.0
H1253 H 0.6366 0.75531 0.06785 0.0
H1254 H 0.72825 0.82008 0.05606 0.0
H1255 H 0.744 0.78564 0.06655 0.0
H1256 H 0.69957 0.84849 0.06136 0.0
H1257 H 0.68222 0.76251 0.02681 0.0
H1258 H 0.6611 0.7085 0.02167 0.0
H1259 H 0.57261 0.69419 0.02919 0.0
H1260 H 0.59331 0.74816 0.03453 0.0
H1261 H 0.70399 0.89416 0.97439 0.0
H1262 H 0.7039 0.86584 -0.00023 0.0
H1263 H 0.61682 0.8506 0.01413 0.0
H1264 H 0.61699 0.87969 0.98895 0.0
H1265 H 0.63253 0.79749 0.01158 0.0
H1266 H 0.65615 0.89108 0.03881 0.0
H1267 H 0.68338 0.94611 0.04052 0.0
H1268 H 0.76666 0.9468 0.04314 0.0
H1269 H 0.73993 0.89177 0.04116 0.0
C1270 C 0.66909 0.74233 0.07347 0.0
C1271 C 0.69919 0.75003 0.07232 0.0
C1272 C 0.66017 0.76242 0.06799 0.0
C1273 C 0.68111 0.78981 0.06056 0.0
C1274 C 0.71162 0.79893 0.06155 0.0
C1275 C 0.72064 0.77921 0.06755 0.0
C1276 C 0.67137 0.80615 0.04894 0.0
C1277 C 0.68463 0.83728 0.05061 0.0
C1278 C 0.65184 0.79155 0.03484 0.0
C1279 C 0.6393 0.75924 0.03126 0.0
C1280 C 0.65827 0.74781 0.02741 0.0
C1281 C 0.64638 0.71722 0.02447 0.0
C1282 C 0.61553 0.6979 0.02517 0.0
C1283 C 0.5965 0.70917 0.0287 0.0
C1284 C 0.60829 0.73975 0.03168 0.0
C1285 C 0.68473 0.88465 0.98287 0.0
C1286 C 0.66048 0.88908 0.9797 0.0
C1287 C 0.68481 0.86868 0.99738 0.0
C1288 C 0.66047 0.8565 0.00878 0.0
C1289 C 0.63584 0.8601 0.00546 0.0
C1290 C 0.63599 0.87664 0.99111 0.0
C1291 C 0.66105 0.83962 0.02396 0.0
C1292 C 0.64639 0.80845 0.02277 0.0
C1293 C 0.67991 0.85426 0.03817 0.0
C1294 C 0.69603 0.8873 0.03973 0.0
C1295 C 0.68028 0.90297 0.03962 0.0
C1296 C 0.69562 0.93417 0.04066 0.0
C1297 C 0.72673 0.94994 0.04192 0.0
C1298 C 0.74255 0.93455 0.04218 0.0
C1299 C 0.72731 0.90335 0.04113 0.0
H1300 H 0.73857 0.97409 0.04271 0.0
H1301 H 0.60638 0.67421 0.02293 0.0
H1302 H 0.76891 0.01931 0.9402 0.0
H1303 H 0.80833 0.06601 0.95259 0.0
H1304 H 0.74623 0.09823 0.95784 0.0
H1305 H 0.70647 0.05134 0.94581 0.0
H1306 H 0.8108 0.14344 0.94839 0.0
H1307 H 0.74754 0.06544 0.98984 0.0
H1308 H 0.72371 0.01378 0.00092 0.0
H1309 H 0.80971 0.0211 0.00662 0.0
H1310 H 0.83401 0.07267 0.99528 0.0
H1311 H 0.86921 0.24702 0.01696 0.0
H1312 H 0.83729 0.20675 0.99716 0.0
H1313 H 0.8856 0.16089 0.00931 0.0
H1314 H 0.91652 0.20036 0.02978 0.0
H1315 H 0.83059 0.12253 0.00813 0.0
H1316 H 0.8954 0.20126 0.9701 0.0
H1317 H 0.92116 0.25225 0.958 0.0
H1318 H 0.83678 0.24392 0.94455 0.0
H1319 H 0.81048 0.19301 0.95679 0.0
C1320 C 0.76388 0.03673 0.94342 0.0
C1321 C 0.73456 0.03159 0.94226 0.0
C1322 C 0.7864 0.06333 0.95052 0.0
C1323 C 0.77996 0.08525 0.95624 0.0
C1324 C 0.75151 0.08148 0.95346 0.0
C1325 C 0.72885 0.05468 0.94665 0.0
C1326 C 0.80115 0.10961 0.96753 0.0
C1327 C 0.81514 0.13908 0.96149 0.0
C1328 C 0.80712 0.10354 0.98443 0.0
C1329 C 0.79254 0.07274 0.99151 0.0
C1330 C 0.76134 0.05593 0.9933 0.0
C1331 C 0.74775 0.02669 -0.00034 0.0
C1332 C 0.76517 0.01413 0.00441 0.0
C1333 C 0.79623 0.03083 0.0029 0.0
C1334 C 0.80992 0.06006 0.99651 0.0
C1335 C 0.87292 0.22828 0.01543 0.0
C1336 C 0.89532 0.22679 0.02488 0.0
C1337 C 0.85485 0.20541 0.004 0.0
C1338 C 0.85946 0.18108 0.00142 0.0
C1339 C 0.88166 0.17946 0.01102 0.0
C1340 C 0.89929 0.20199 0.02273 0.0
C1341 C 0.8406 0.15689 0.98911 0.0
C1342 C 0.82678 0.12722 0.99499 0.0
C1343 C 0.83523 0.16285 0.97198 0.0
C1344 C 0.85097 0.1934 0.9645 0.0
C1345 C 0.88233 0.21037 0.96467 0.0
C1346 C 0.89703 0.23925 0.95777 0.0
C1347 C 0.88061 0.25134 0.95055 0.0
C1348 C 0.84946 0.23453 0.95017 0.0
C1349 C 0.83465 0.20565 0.95706 0.0
H1350 H 0.89203 0.27371 0.94522 0.0
H1351 H 0.75462 0.99147 0.0093 0.0
H1352 H 0.73339 0.65828 0.00733 0.0
H1353 H 0.76215 0.65357 0.98362 0.0
H1354 H 0.84359 0.7073 0.01204 0.0
H1355 H 0.81519 0.71199 0.03582 0.0
H1356 H 0.80826 0.6944 0.96265 0.0
H1357 H 0.88586 0.67546 0.00894 0.0
H1358 H 0.88308 0.6532 0.03761 0.0
H1359 H 0.78839 0.59645 0.03184 0.0
H1360 H 0.79064 0.61806 0.00306 0.0
H1361 H 0.95126 0.7361 0.93078 0.0
H1362 H 0.90314 0.7257 0.94225 0.0
H1363 H 0.87723 0.63279 0.94861 0.0
H1364 H 0.92596 0.64343 0.93782 0.0
H1365 H 0.87406 0.6534 0.97765 0.0
H1366 H 0.83662 0.65621 0.92249 0.0
H1367 H 0.83621 0.67461 0.89313 0.0
H1368 H 0.84461 0.75526 0.91436 0.0
H1369 H 0.84552 0.73757 0.94385 0.0
C1370 C 0.75746 0.66925 0.00851 0.0
C1371 C 0.77199 0.68528 0.02356 0.0
C1372 C 0.77381 0.66662 0.9949 0.0
C1373 C 0.80487 0.67978 0.99621 0.0
C1374 C 0.81953 0.69665 0.01092 0.0
C1375 C 0.80327 0.69935 0.02449 0.0
C1376 C 0.82215 0.67495 0.98263 0.0
C1377 C 0.82257 0.68528 0.96579 0.0
C1378 C 0.83985 0.66199 0.98667 0.0
C1379 C 0.83842 0.64854 0.00388 0.0
C1380 C 0.86448 0.65811 0.01375 0.0
C1381 C 0.86298 0.64564 0.03003 0.0
C1382 C 0.83557 0.62347 0.03655 0.0
C1383 C 0.80959 0.61368 0.02679 0.0
C1384 C 0.81096 0.62607 0.01051 0.0
C1385 C 0.93491 0.71325 0.93402 0.0
C1386 C 0.9425 0.69067 0.9337 0.0
C1387 C 0.90726 0.70726 0.94052 0.0
C1388 C 0.88656 0.67846 0.94643 0.0
C1389 C 0.89295 0.65524 0.94429 0.0
C1390 C 0.92077 0.66132 0.9381 0.0
C1391 C 0.86135 0.67402 0.95763 0.0
C1392 C 0.85942 0.66199 0.97419 0.0
C1393 C 0.84185 0.68478 0.95313 0.0
C1394 C 0.84127 0.69558 0.93541 0.0
C1395 C 0.83859 0.67797 0.92091 0.0
C1396 C 0.83824 0.68826 0.90423 0.0
C1397 C 0.84041 0.71609 0.90188 0.0
C1398 C 0.84291 0.73368 0.9162 0.0
C1399 C 0.84328 0.72351 0.93291 0.0
H1400 H 0.84014 0.72402 0.88896 0.0
H1401 H 0.83445 0.61382 0.04914 0.0
H1402 H 0.35821 0.30084 0.97123 0.0
H1403 H 0.36752 0.26042 0.9777 0.0
H1404 H 0.32183 0.21494 0.93092 0.0
H1405 H 0.31109 0.25515 0.92471 0.0
H1406 H 0.30136 0.17782 0.9555 0.0
H1407 H 0.39968 0.24204 0.93747 0.0
H1408 H 0.44779 0.28867 0.93399 0.0
H1409 H 0.46402 0.29051 0.98855 0.0
H1410 H 0.41583 0.24415 0.99244 0.0
H1411 H 0.3346 0.06899 0.99473 0.0
H1412 H 0.34001 0.1062 0.97305 0.0
H1413 H 0.34928 0.16715 0.01386 0.0
H1414 H 0.34307 0.13 0.03552 0.0
H1415 H 0.39348 0.19074 0.98338 0.0
H1416 H 0.28627 0.13322 -0.00059 0.0
H1417 H 0.23857 0.08571 0.00157 0.0
H1418 H 0.24214 0.07033 0.94725 0.0
H1419 H 0.29011 0.11761 0.94485 0.0
C1420 C 0.35057 0.28258 0.96209 0.0
C1421 C 0.33368 0.28114 0.94751 0.0
C1422 C 0.35623 0.2595 0.96572 0.0
C1423 C 0.34585 0.23473 0.95466 0.0
C1424 C 0.33018 0.23386 0.93962 0.0
C1425 C 0.32407 0.25685 0.93609 0.0
C1426 C 0.34817 0.20844 0.96021 0.0
C1427 C 0.32183 0.18054 0.96106 0.0
C1428 C 0.37481 0.21167 0.96744 0.0
C1429 C 0.40403 0.23955 0.96523 0.0
C1430 C 0.41342 0.25245 0.94875 0.0
C1431 C 0.44073 0.27884 0.9467 0.0
C1432 C 0.45894 0.29254 0.96104 0.0
C1433 C 0.44991 0.27984 0.97745 0.0
C1434 C 0.42262 0.25345 0.97958 0.0
C1435 C 0.33794 0.0904 -0.00096 0.0
C1436 C 0.33824 0.09661 0.01679 0.0
C1437 C 0.34108 0.11155 0.98668 0.0
C1438 C 0.3452 0.13932 0.99195 0.0
C1439 C 0.34631 0.14584 0.00962 0.0
C1440 C 0.34252 0.12454 0.02195 0.0
C1441 C 0.34655 0.16125 0.97926 0.0
C1442 C 0.37351 0.18808 0.97714 0.0
C1443 C 0.32074 0.15692 0.97054 0.0
C1444 C 0.2919 0.12867 0.97201 0.0
C1445 C 0.27701 0.11955 0.98797 0.0
C1446 C 0.24991 0.09271 0.98923 0.0
C1447 C 0.23738 0.07495 0.97457 0.0
C1448 C 0.2519 0.08406 0.9586 0.0
C1449 C 0.27903 0.11087 0.95729 0.0
H1450 H 0.2164 0.05419 0.97556 0.0
H1451 H 0.48007 0.31299 0.95943 0.0
H1452 H 0.93605 0.25487 0.40183 0.0
H1453 H 0.89398 0.20748 0.39208 0.0
H1454 H 0.84406 0.25194 0.38074 0.0
H1455 H 0.88546 0.29898 0.39139 0.0
H1456 H 0.80655 0.19496 0.38779 0.0
H1457 H 0.89221 0.24981 0.35095 0.0
H1458 H 0.94582 0.27498 0.34374 0.0
H1459 H 0.94559 0.19233 0.35041 0.0
H1460 H 0.89203 0.16678 0.35795 0.0
H1461 H 0.74237 0.13324 0.305 0.0
H1462 H 0.77211 0.16562 0.32887 0.0
H1463 H 0.79399 0.09909 0.34529 0.0
H1464 H 0.76371 0.06621 0.32172 0.0
H1465 H 0.84386 0.16119 0.33847 0.0
H1466 H 0.75269 0.1058 0.37052 0.0
H1467 H 0.69871 0.08411 0.37561 0.0
H1468 H 0.70878 0.1718 0.37481 0.0
H1469 H 0.76278 0.194 0.36944 0.0
C1470 C 0.91562 0.2542 0.3979 0.0
C1471 C 0.91406 0.28053 0.39707 0.0
C1472 C 0.89166 0.22719 0.39228 0.0
C1473 C 0.86635 0.22645 0.38512 0.0
C1474 C 0.86349 0.25205 0.38608 0.0
C1475 C 0.88717 0.27895 0.39215 0.0
C1476 C 0.84554 0.201 0.37414 0.0
C1477 C 0.81468 0.18754 0.37702 0.0
C1478 C 0.85618 0.19131 0.36006 0.0
C1479 C 0.88823 0.20648 0.35521 0.0
C1480 C 0.90364 0.23705 0.35096 0.0
C1481 C 0.93401 0.25138 0.34682 0.0
C1482 C 0.94913 0.23528 0.34667 0.0
C1483 C 0.93386 0.20479 0.35058 0.0
C1484 C 0.90351 0.19037 0.35479 0.0
C1485 C 0.75335 0.12543 0.31377 0.0
C1486 C 0.75086 0.09729 0.31148 0.0
C1487 C 0.77011 0.14382 0.32743 0.0
C1488 C 0.78494 0.13452 0.33883 0.0
C1489 C 0.78244 0.10643 0.33665 0.0
C1490 C 0.7652 0.08777 0.3232 0.0
C1491 C 0.80501 0.15525 0.35213 0.0
C1492 C 0.83577 0.16808 0.34951 0.0
C1493 C 0.79421 0.16479 0.3661 0.0
C1494 C 0.76176 0.15154 0.36942 0.0
C1495 C 0.74336 0.12044 0.37126 0.0
C1496 C 0.71276 0.10806 0.37424 0.0
C1497 C 0.7003 0.12656 0.37549 0.0
C1498 C 0.71845 0.15749 0.37382 0.0
C1499 C 0.74907 0.16999 0.37083 0.0
H1500 H 0.67661 0.11693 0.37779 0.0
H1501 H 0.97265 0.24643 0.34348 0.0
H1502 H 0.87796 0.60175 0.29574 0.0
H1503 H 0.83836 0.59835 0.31452 0.0
H1504 H 0.88257 0.69466 0.31697 0.0
H1505 H 0.92294 0.69809 0.29893 0.0
H1506 H 0.8638 0.67442 0.34716 0.0
H1507 H 0.81873 0.65114 0.29135 0.0
H1508 H 0.80301 0.62526 0.26327 0.0
H1509 H 0.7486 0.54177 0.28931 0.0
H1510 H 0.76431 0.56711 0.31758 0.0
H1511 H 0.73019 0.68091 0.36757 0.0
H1512 H 0.77531 0.68497 0.35463 0.0
H1513 H 0.74608 0.5938 0.36901 0.0
H1514 H 0.70123 0.58968 0.38233 0.0
H1515 H 0.75712 0.61064 0.3315 0.0
H1516 H 0.80252 0.63972 0.3881 0.0
H1517 H 0.81753 0.67034 0.41461 0.0
H1518 H 0.87039 0.7494 0.38441 0.0
H1519 H 0.85534 0.7193 0.35769 0.0
C1520 C 0.87912 0.62217 0.30023 0.0
C1521 C 0.90343 0.65017 0.29585 0.0
C1522 C 0.85645 0.62023 0.31092 0.0
C1523 C 0.85724 0.64627 0.31698 0.0
C1524 C 0.88149 0.67426 0.31252 0.0
C1525 C 0.90447 0.67619 0.30215 0.0
C1526 C 0.83294 0.64438 0.32808 0.0
C1527 C 0.84049 0.66069 0.34361 0.0
C1528 C 0.80248 0.62632 0.32356 0.0
C1529 C 0.79295 0.61098 0.30659 0.0
C1530 C 0.8036 0.62722 0.29109 0.0
C1531 C 0.79466 0.61266 0.27514 0.0
C1532 C 0.7749 0.58187 0.2745 0.0
C1533 C 0.76396 0.5656 0.28982 0.0
C1534 C 0.77284 0.58006 0.30582 0.0
C1535 C 0.73375 0.66198 0.36837 0.0
C1536 C 0.71214 0.63492 0.37587 0.0
C1537 C 0.7595 0.66435 0.361 0.0
C1538 C 0.76378 0.63962 0.36085 0.0
C1539 C 0.74304 0.61308 0.36906 0.0
C1540 C 0.71755 0.61085 0.37672 0.0
C1541 C 0.78811 0.64049 0.35047 0.0
C1542 C 0.78047 0.62412 0.33502 0.0
C1543 C 0.81842 0.65918 0.3548 0.0
C1544 C 0.82757 0.67728 0.37087 0.0
C1545 C 0.81711 0.66367 0.38709 0.0
C1546 C 0.82569 0.68093 0.40216 0.0
C1547 C 0.84484 0.71181 0.40119 0.0
C1548 C 0.85553 0.72548 0.38515 0.0
C1549 C 0.84701 0.70833 0.37004 0.0
H1550 H 0.85145 0.72513 0.41288 0.0
H1551 H 0.768 0.57063 0.26214 0.0
H1552 H 0.39107 0.25864 0.3086 0.0
H1553 H 0.39661 0.22783 0.33059 0.0
H1554 H 0.30151 0.18177 0.33977 0.0
H1555 H 0.29625 0.21401 0.31853 0.0
H1556 H 0.32724 0.18644 0.36875 0.0
H1557 H 0.33647 0.15306 0.31272 0.0
H1558 H 0.35602 0.15715 0.28313 0.0
H1559 H 0.44355 0.1862 0.30349 0.0
H1560 H 0.42459 0.18267 0.3332 0.0
H1561 H 0.31732 0.04241 0.38624 0.0
H1562 H 0.31243 0.08472 0.37624 0.0
H1563 H 0.40499 0.14485 0.38826 0.0
H1564 H 0.40998 0.10286 0.3987 0.0
H1565 H 0.38218 0.13505 0.35065 0.0
H1566 H 0.36643 0.16091 0.40815 0.0
H1567 H 0.34118 0.15047 0.43645 0.0
H1568 H 0.25827 0.12698 0.41134 0.0
H1569 H 0.28293 0.13683 0.38285 0.0
C1570 C 0.37141 0.24205 0.31541 0.0
C1571 C 0.34319 0.23835 0.31175 0.0
C1572 C 0.37455 0.22441 0.32793 0.0
C1573 C 0.34936 0.20192 0.33653 0.0
C1574 C 0.32126 0.19889 0.33328 0.0
C1575 C 0.31824 0.21717 0.32109 0.0
C1576 C 0.35218 0.18066 0.3482 0.0
C1577 C 0.33909 0.17507 0.36474 0.0
C1578 C 0.36768 0.16579 0.34302 0.0
C1579 C 0.37918 0.16792 0.32517 0.0
C1580 C 0.35993 0.16053 0.31088 0.0
C1581 C 0.3709 0.16272 0.29409 0.0
C1582 C 0.40103 0.17202 0.29143 0.0
C1583 C 0.42023 0.17906 0.30556 0.0
C1584 C 0.40939 0.17696 0.32238 0.0
C1585 C 0.33635 0.06477 0.38733 0.0
C1586 C 0.36412 0.06933 0.39304 0.0
C1587 C 0.33347 0.08888 0.38169 0.0
C1588 C 0.35838 0.11773 0.38152 0.0
C1589 C 0.38552 0.12268 0.38844 0.0
C1590 C 0.38828 0.09867 0.3944 0.0
C1591 C 0.35755 0.14118 0.37112 0.0
C1592 C 0.37075 0.14685 0.35471 0.0
C1593 C 0.34134 0.15521 0.37622 0.0
C1594 C 0.32649 0.14934 0.39335 0.0
C1595 C 0.34275 0.15322 0.40864 0.0
C1596 C 0.32856 0.14748 0.42472 0.0
C1597 C 0.29812 0.138 0.42569 0.0
C1598 C 0.28184 0.1343 0.41057 0.0
C1599 C 0.29592 0.13999 0.39446 0.0
H1600 H 0.28718 0.13357 0.43816 0.0
H1601 H 0.40948 0.17369 0.27842 0.0
H1602 H 0.54602 0.59654 0.3449 0.0
H1603 H 0.50827 0.56443 0.32361 0.0
H1604 H 0.53608 0.49886 0.32904 0.0
H1605 H 0.57308 0.5302 0.35068 0.0
H1606 H 0.52659 0.52103 0.29141 0.0
H1607 H 0.48303 0.47738 0.34895 0.0
H1608 H 0.46771 0.48266 0.37837 0.0
H1609 H 0.41302 0.5158 0.3572 0.0
H1610 H 0.42841 0.51107 0.32766 0.0
H1611 H 0.42984 0.37424 0.26686 0.0
H1612 H 0.46554 0.42455 0.27619 0.0
H1613 H 0.3936 0.44258 0.28531 0.0
H1614 H 0.35753 0.3913 0.27695 0.0
H1615 H 0.42316 0.45506 0.3123 0.0
H1616 H 0.45359 0.48386 0.2548 0.0
H1617 H 0.46832 0.481 0.22485 0.0
H1618 H 0.54649 0.48084 0.24338 0.0
H1619 H 0.53204 0.48324 0.27346 0.0
C1620 C 0.54406 0.57528 0.34151 0.0
C1621 C 0.56227 0.56569 0.34949 0.0
C1622 C 0.52266 0.55712 0.32935 0.0
C1623 C 0.51975 0.52955 0.32476 0.0
C1624 C 0.53829 0.52024 0.3324 0.0
C1625 C 0.55916 0.538 0.34484 0.0
C1626 C 0.49617 0.50932 0.31279 0.0
C1627 C 0.50387 0.50651 0.29581 0.0
C1628 C 0.46647 0.4916 0.31846 0.0
C1629 C 0.45717 0.49427 0.33617 0.0
C1630 C 0.46799 0.48608 0.3506 0.0
C1631 C 0.45924 0.4889 0.36728 0.0
C1632 C 0.43949 0.49966 0.36966 0.0
C1633 C 0.42838 0.50754 0.35535 0.0
C1634 C 0.4371 0.50479 0.33864 0.0
C1635 C 0.42167 0.3892 0.27032 0.0
C1636 C 0.39092 0.37879 0.27138 0.0
C1637 C 0.44219 0.41818 0.27556 0.0
C1638 C 0.43239 0.43761 0.28144 0.0
C1639 C 0.40174 0.42801 0.28095 0.0
C1640 C 0.38115 0.39874 0.27613 0.0
C1641 C 0.45346 0.4655 0.29071 0.0
C1642 C 0.44544 0.46992 0.30738 0.0
C1643 C 0.48272 0.48507 0.28453 0.0
C1644 C 0.49163 0.48364 0.26643 0.0
C1645 C 0.47382 0.48302 0.25251 0.0
C1646 C 0.48214 0.48151 0.2355 0.0
C1647 C 0.50831 0.48072 0.23221 0.0
C1648 C 0.52624 0.48148 0.24594 0.0
C1649 C 0.51802 0.48299 0.26298 0.0
H1650 H 0.51471 0.47954 0.21903 0.0
H1651 H 0.43273 0.50182 0.38258 0.0
H1652 H 0.59866 0.96818 0.27195 0.0
H1653 H 0.55 0.95778 0.28279 0.0
H1654 H 0.57307 0.04872 0.27216 0.0
H1655 H 0.62137 0.05916 0.26087 0.0
H1656 H 0.56617 0.01052 0.31162 0.0
H1657 H 0.52406 0.0283 0.25768 0.0
H1658 H 0.5066 0.01488 0.22759 0.0
H1659 H 0.44581 0.92466 0.24335 0.0
H1660 H 0.46331 0.93752 0.27351 0.0
H1661 H 0.47283 0.04116 0.36119 0.0
H1662 H 0.50523 0.04117 0.33829 0.0
H1663 H 0.43672 0.9531 0.32249 0.0
H1664 H 0.40349 0.95369 0.34493 0.0
H1665 H 0.46323 0.98407 0.29494 0.0
H1666 H 0.49726 0.96419 0.34781 0.0
H1667 H 0.51372 0.9715 0.37824 0.0
H1668 H 0.58896 0.05699 0.3655 0.0
H1669 H 0.57272 0.05038 0.33504 0.0
C1670 C 0.59279 0.98555 0.27112 0.0
C1671 C 0.61401 0.01463 0.26585 0.0
C1672 C 0.56492 0.97951 0.27722 0.0
C1673 C 0.55798 0.00244 0.27815 0.0
C1674 C 0.5778 0.03057 0.27117 0.0
C1675 C 0.60551 0.03653 0.2648 0.0
C1676 C 0.5352 -0.00027 0.2906 0.0
C1677 C 0.54372 0.00507 0.308 0.0
C1678 C 0.50575 0.99136 0.28583 0.0
C1679 C 0.49532 0.98375 0.26776 0.0
C1680 C 0.50729 0.00552 0.25468 0.0
C1681 C 0.4973 -0.00196 0.23763 0.0
C1682 C 0.4752 0.9689 0.23355 0.0
C1683 C 0.46298 0.9472 0.24652 0.0
C1684 C 0.47291 0.95458 0.26359 0.0
C1685 C 0.46468 0.02178 0.35286 0.0
C1686 C 0.43583 0.99725 0.35497 0.0
C1687 C 0.48321 0.02177 0.33978 0.0
C1688 C 0.47367 0.99683 0.32892 0.0
C1689 C 0.44459 0.97253 0.33076 0.0
C1690 C 0.42572 0.97282 0.34362 0.0
C1691 C 0.49452 0.99602 0.31605 0.0
C1692 C 0.48566 0.98965 0.29864 0.0
C1693 C 0.52369 0.00285 0.32084 0.0
C1694 C 0.53362 0.00688 0.33916 0.0
C1695 C 0.5172 0.98463 0.35152 0.0
C1696 C 0.52651 0.98865 0.36877 0.0
C1697 C 0.55233 0.01472 0.37381 0.0
C1698 C 0.56894 0.03681 0.36159 0.0
C1699 C 0.55971 0.03293 0.34432 0.0
H1700 H 0.55949 0.01778 0.38717 0.0
H1701 H 0.46749 0.96316 0.22034 0.0
H1702 H 0.02194 0.62096 0.30147 0.0
H1703 H 0.03279 0.58317 0.31171 0.0
H1704 H 0.00383 0.5368 0.26289 0.0
H1705 H 0.9914 0.57424 0.25276 0.0
H1706 H 0.97875 0.49908 0.28692 0.0
H1707 H 0.07951 0.57033 0.27751 0.0
H1708 H 0.12556 0.61947 0.27741 0.0
H1709 H 0.12558 0.62071 0.33294 0.0
H1710 H 0.0793 0.5718 0.3334 0.0
H1711 H 0.00777 0.39598 0.33537 0.0
H1712 H 0.01637 0.43262 0.31262 0.0
H1713 H 0.01644 0.49318 0.35103 0.0
H1714 H 0.00731 0.45668 0.37372 0.0
H1715 H 0.06436 0.51937 0.32472 0.0
H1716 H 0.95551 0.45366 0.33128 0.0
H1717 H 0.9099 0.40411 0.33051 0.0
H1718 H 0.92855 0.39229 0.27788 0.0
H1719 H 0.9745 0.44166 0.27844 0.0
C1720 C 0.01835 0.60309 0.29272 0.0
C1721 C 0.00561 0.60053 0.27632 0.0
C1722 C 0.02491 0.58154 0.29856 0.0
C1723 C 0.01968 0.5573 0.28798 0.0
C1724 C 0.00819 0.55536 0.27126 0.0
C1725 C 0.00112 0.57677 0.26548 0.0
C1726 C 0.02277 0.53247 0.29541 0.0
C1727 C -0.00204 0.50345 0.29471 0.0
C1728 C 0.04776 0.53792 0.30561 0.0
C1729 C 0.07583 0.56732 0.30547 0.0
C1730 C 0.08924 0.58112 0.28971 0.0
C1731 C 0.1154 0.60895 0.28959 0.0
C1732 C 0.12848 0.6232 0.30516 0.0
C1733 C 0.11545 0.60962 0.32088 0.0
C1734 C 0.08928 0.5818 0.32108 0.0
C1735 C 0.00981 0.4172 0.33895 0.0
C1736 C 0.00667 0.42343 0.3563 0.0
C1737 C 0.01477 0.43804 0.32597 0.0
C1738 C 0.01712 0.46552 0.33023 0.0
C1739 C 0.01485 0.47211 0.34756 0.0
C1740 C 0.0094 0.45116 0.36047 0.0
C1741 C 0.01996 0.48693 0.31671 0.0
C1742 C 0.04582 0.5151 0.31634 0.0
C1743 C 0.99624 0.48063 0.30529 0.0
C1744 C 0.96859 0.45111 0.30498 0.0
C1745 C 0.95001 0.44036 0.3196 0.0
C1746 C 0.92408 0.41235 0.3192 0.0
C1747 C 0.91639 0.39501 0.30418 0.0
C1748 C 0.93457 0.4057 0.28952 0.0
C1749 C 0.96055 0.43369 0.28987 0.0
H1750 H 0.8963 0.37333 0.30388 0.0
H1751 H 0.14873 0.64476 0.30503 0.0
H1752 H 0.4199 0.39783 0.6441 0.0
H1753 H 0.45015 0.42755 0.66854 0.0
H1754 H 0.42881 0.4963 0.65619 0.0
H1755 H 0.39997 0.4674 0.63124 0.0
H1756 H 0.48385 0.52126 0.6622 0.0
H1757 H 0.3979 0.44587 0.69217 0.0
H1758 H 0.35949 0.3946 0.70014 0.0
H1759 H 0.42742 0.37725 0.71909 0.0
H1760 H 0.46628 0.4283 0.71102 0.0
H1761 H 0.53335 0.60309 0.73768 0.0
H1762 H 0.49242 0.55581 0.72713 0.0
H1763 H 0.55527 0.52919 0.71057 0.0
H1764 H 0.59644 0.57648 0.7209 0.0
H1765 H 0.4771 0.48186 0.72168 0.0
H1766 H 0.55778 0.55311 0.67566 0.0
H1767 H 0.59528 0.60614 0.67055 0.0
H1768 H 0.53169 0.63221 0.68583 0.0
H1769 H 0.49395 0.57932 0.69108 0.0
C1770 C 0.42169 0.41928 0.64665 0.0
C1771 C 0.40778 0.43044 0.63575 0.0
C1772 C 0.43873 0.43612 0.66071 0.0
C1773 C 0.44141 0.46399 0.6644 0.0
C1774 C 0.42714 0.4749 0.65361 0.0
C1775 C 0.41071 0.45841 0.63934 0.0
C1776 C 0.46047 0.4827 0.67884 0.0
C1777 C 0.48192 0.51247 0.67517 0.0
C1778 C 0.45835 0.47148 0.69588 0.0
C1779 C 0.43502 0.44084 0.70085 0.0
C1780 C 0.40466 0.43106 0.69793 0.0
C1781 C 0.38281 0.40204 0.70248 0.0
C1782 C 0.39101 0.38266 0.71008 0.0
C1783 C 0.42109 0.39228 0.71319 0.0
C1784 C 0.44304 0.42127 0.70865 0.0
C1785 C 0.53844 0.58658 0.73263 0.0
C1786 C 0.56812 0.59382 0.72959 0.0
C1787 C 0.51493 0.55942 0.72674 0.0
C1788 C 0.52099 0.5393 0.71796 0.0
C1789 C 0.55027 0.54447 0.71741 0.0
C1790 C 0.57378 0.57168 0.72314 0.0
C1791 C 0.49978 0.51971 0.70475 0.0
C1792 C 0.47841 0.49016 0.70863 0.0
C1793 C 0.50131 0.53103 0.68795 0.0
C1794 C 0.52313 0.56244 0.68361 0.0
C1795 C 0.55179 0.57019 0.67772 0.0
C1796 C 0.57309 0.60019 0.6749 0.0
C1797 C 0.56586 0.62253 0.67784 0.0
C1798 C 0.53725 0.6149 0.68352 0.0
C1799 C 0.51589 0.58494 0.6864 0.0
H1800 H 0.58243 0.64575 0.67574 0.0
H1801 H 0.37406 0.3602 0.71359 0.0
H1802 H 0.59579 0.00118 0.67928 0.0
H1803 H 0.56423 0.00527 0.70164 0.0
H1804 H 0.51992 0.0286 0.66257 0.0
H1805 H 0.5506 0.02368 0.64016 0.0
H1806 H 0.53847 0.06437 0.69692 0.0
H1807 H 0.48576 0.96252 0.67099 0.0
H1808 H 0.48344 0.91475 0.66415 0.0
H1809 H 0.49655 0.90279 0.71777 0.0
H1810 H 0.49933 0.95075 0.72486 0.0
H1811 H 0.39359 0.03186 0.7031 0.0
H1812 H 0.44425 0.04221 0.69942 0.0
H1813 H 0.43232 0.98163 0.74115 0.0
H1814 H 0.38045 0.96992 0.74438 0.0
H1815 H 0.45267 0.96749 0.71557 0.0
H1816 H 0.487 0.0598 0.74268 0.0
H1817 H 0.49029 0.10753 0.75072 0.0
H1818 H 0.51519 0.13948 0.69869 0.0
H1819 H 0.5116 0.09181 0.69023 0.0
C1820 C 0.57953 0.00751 0.67552 0.0
C1821 C 0.57541 0.0119 0.658 0.0
C1822 C 0.56166 0.0099 0.68828 0.0
C1823 C 0.54001 0.0174 0.68368 0.0
C1824 C 0.53675 0.02303 0.66631 0.0
C1825 C 0.55407 0.01997 0.65354 0.0
C1826 C 0.51852 0.01658 0.69651 0.0
C1827 C 0.51971 0.04334 0.70119 0.0
C1828 C 0.49504 0.98915 0.70268 0.0
C1829 C 0.49314 0.96031 0.69841 0.0
C1830 C 0.48841 0.94981 0.68128 0.0
C1831 C 0.48696 0.92269 0.67737 0.0
C1832 C 0.48995 0.90579 0.69051 0.0
C1833 C 0.49431 0.91594 0.7076 0.0
C1834 C 0.49582 0.94307 0.71158 0.0
C1835 C 0.40177 0.02113 0.71179 0.0
C1836 C 0.38275 -0.0003 0.72387 0.0
C1837 C 0.43109 0.02741 0.70981 0.0
C1838 C 0.44244 0.01301 0.72013 0.0
C1839 C 0.42412 0.99307 0.73304 0.0
C1840 C 0.39448 0.98642 0.73488 0.0
C1841 C 0.47141 0.01542 0.71539 0.0
C1842 C 0.47179 0.98885 0.71211 0.0
C1843 C 0.49664 0.04319 0.71086 0.0
C1844 C 0.49901 0.07212 0.71582 0.0
C1845 C 0.49303 0.07693 0.73291 0.0
C1846 C 0.49496 0.104 0.73755 0.0
C1847 C 0.50295 0.12652 0.72522 0.0
C1848 C 0.50906 0.12203 0.70823 0.0
C1849 C 0.50716 0.095 0.70352 0.0
H1850 H 0.50441 0.14745 0.72884 0.0
H1851 H 0.48882 0.8848 0.68746 0.0
H1852 H 0.97835 0.3565 0.7083 0.0
H1853 H 0.96791 0.39382 0.69614 0.0
H1854 H 0.028 0.45895 0.73278 0.0
H1855 H 0.03927 0.42187 0.74495 0.0
H1856 H 0.96013 0.45035 0.7181 0.0
H1857 H 0.06579 0.47588 0.70581 0.0
H1858 H 0.10108 0.45895 0.69759 0.0
H1859 H 0.04936 0.41704 0.65209 0.0
H1860 H 0.01352 0.43337 0.66022 0.0
H1861 H 0.98718 0.58033 0.67123 0.0
H1862 H 0.98932 0.54417 0.69072 0.0
H1863 H 0.98787 0.49189 0.64673 0.0
H1864 H 0.98744 0.52886 0.62725 0.0
H1865 H 0.02662 0.49478 0.66724 0.0
H1866 H 0.92561 0.4716 0.6749 0.0
H1867 H 0.88443 0.48126 0.68119 0.0
H1868 H 0.91867 0.51029 0.73244 0.0
H1869 H 0.9603 0.50117 0.72638 0.0
C1870 C 0.98882 0.3785 0.71414 0.0
C1871 C 0.01011 0.38638 0.7274 0.0
C1872 C 0.98268 0.39972 0.7072 0.0
C1873 C -0.00263 0.42899 0.71354 0.0
C1874 C 0.01647 0.43632 0.72781 0.0
C1875 C 0.02292 0.41514 0.73468 0.0
C1876 C 0.99647 0.4526 0.70337 0.0
C1877 C 0.97496 0.46065 0.70717 0.0
C1878 C 0.01502 0.4648 0.68875 0.0
C1879 C 0.03689 0.45558 0.6837 0.0
C1880 C 0.06185 0.46286 0.69413 0.0
C1881 C 0.08196 0.45341 0.68947 0.0
C1882 C 0.07743 0.43686 0.67435 0.0
C1883 C 0.05282 0.42982 0.66381 0.0
C1884 C 0.03263 0.43918 0.66843 0.0
C1885 C 0.98719 0.56103 0.66576 0.0
C1886 C 0.98722 0.55738 0.64776 0.0
C1887 C 0.98822 0.54027 0.6769 0.0
C1888 C 0.98837 0.51504 0.67023 0.0
C1889 C 0.98791 0.51122 0.65221 0.0
C1890 C 0.98761 0.53231 0.64109 0.0
C1891 C 0.99027 0.49322 0.68189 0.0
C1892 C 0.01192 0.48514 0.67829 0.0
C1893 C 0.97125 0.48051 0.69642 0.0
C1894 C 0.94626 0.48602 0.70012 0.0
C1895 C 0.9245 0.48027 0.68747 0.0
C1896 C 0.90105 0.48561 0.691 0.0
C1897 C 0.89898 0.49646 0.70719 0.0
C1898 C 0.92032 0.50193 0.7199 0.0
C1899 C 0.94384 0.49666 0.71642 0.0
H1900 H 0.88081 0.50058 0.7099 0.0
H1901 H 0.093 0.42954 0.67076 0.0
H1902 H 0.25426 0.93294 0.66131 0.0
H1903 H 0.22149 0.89423 0.6409 0.0
H1904 H 0.19111 0.8287 0.68185 0.0
H1905 H 0.22435 0.86698 0.70217 0.0
H1906 H 0.19791 0.8053 0.65338 0.0
H1907 H 0.15141 0.86349 0.669 0.0
H1908 H 0.14873 0.90969 0.67159 0.0
H1909 H 0.15956 0.92268 0.61662 0.0
H1910 H 0.16265 0.8767 0.61375 0.0
H1911 H 0.03471 0.72192 0.63129 0.0
H1912 H 0.07878 0.76913 0.63832 0.0
H1913 H 0.13185 0.74769 0.60449 0.0
H1914 H 0.08766 0.69956 0.59773 0.0
H1915 H 0.11996 0.81813 0.62372 0.0
H1916 H 0.19866 0.77033 0.62459 0.0
H1917 H 0.1968 0.72165 0.62588 0.0
H1918 H 0.11428 0.68411 0.65408 0.0
H1919 H 0.11587 0.73264 0.65311 0.0
C1920 C 0.24074 0.91024 0.66594 0.0
C1921 C 0.24172 0.90307 0.6834 0.0
C1922 C 0.22202 0.88817 0.65426 0.0
C1923 C 0.20361 0.85866 0.65989 0.0
C1924 C 0.2052 0.85132 0.6772 0.0
C1925 C 0.22412 0.87327 0.68883 0.0
C1926 C 0.18151 0.83553 0.64815 0.0
C1927 C 0.1811 0.80826 0.6467 0.0
C1928 C 0.15951 0.83931 0.63947 0.0
C1929 C 0.15765 0.86691 0.64119 0.0
C1930 C 0.15345 0.87634 0.65749 0.0
C1931 C 0.15182 0.90245 0.659 0.0
C1932 C 0.15408 0.91917 0.64428 0.0
C1933 C 0.15789 0.90975 0.62801 0.0
C1934 C 0.15958 0.88367 0.62643 0.0
C1935 C 0.0556 0.72733 0.62508 0.0
C1936 C 0.05778 0.70664 0.61424 0.0
C1937 C 0.08081 0.75452 0.62903 0.0
C1938 C 0.10872 0.76171 0.62218 0.0
C1939 C 0.11057 0.74232 0.61015 0.0
C1940 C 0.08529 0.71488 0.60626 0.0
C1941 C 0.13583 0.78763 0.62941 0.0
C1942 C 0.13731 0.81549 0.62995 0.0
C1943 C 0.15826 0.7841 0.63774 0.0
C1944 C 0.15721 0.75494 0.63857 0.0
C1945 C 0.18017 0.75167 0.63108 0.0
C1946 C 0.17916 0.72413 0.63176 0.0
C1947 C 0.15538 0.69977 0.63999 0.0
C1948 C 0.13263 0.70295 0.64765 0.0
C1949 C 0.13357 0.73046 0.64703 0.0
H1950 H 0.15462 0.67846 0.64049 0.0
H1951 H 0.1528 0.93938 0.64548 0.0
H1952 H 0.13253 0.38585 0.69718 0.0
H1953 H 0.16358 0.38943 0.67232 0.0
H1954 H 0.11346 0.29366 0.66633 0.0
H1955 H 0.08208 0.28985 0.69098 0.0
H1956 H 0.17786 0.32087 0.66588 0.0
H1957 H 0.09839 0.33105 0.63976 0.0
H1958 H 0.0667 0.35407 0.63741 0.0
H1959 H 0.14405 0.43932 0.62702 0.0
H1960 H 0.17629 0.41689 0.62957 0.0
H1961 H 0.24899 0.31465 0.5936 0.0
H1962 H 0.20354 0.3065 0.60811 0.0
H1963 H 0.2387 0.40177 0.61031 0.0
H1964 H 0.2835 0.40995 0.59506 0.0
H1965 H 0.17872 0.37297 0.61169 0.0
H1966 H 0.25832 0.36867 0.64081 0.0
H1967 H 0.29426 0.35119 0.64558 0.0
H1968 H 0.22196 0.26165 0.65321 0.0
H1969 H 0.18555 0.27854 0.64815 0.0
C1970 C 0.1283 0.36555 0.69065 0.0
C1971 C 0.10491 0.33757 0.696 0.0
C1972 C 0.14586 0.36766 0.6764 0.0
C1973 C 0.14048 0.34181 0.66746 0.0
C1974 C 0.11774 0.31382 0.67306 0.0
C1975 C 0.0999 0.31172 0.68712 0.0
C1976 C 0.15891 0.34389 0.65239 0.0
C1977 C 0.17765 0.33172 0.6539 0.0
C1978 C 0.15923 0.35901 0.63707 0.0
C1979 C 0.13978 0.37233 0.63499 0.0
C1980 C 0.10867 0.35474 0.63707 0.0
C1981 C 0.0906 0.36768 0.63569 0.0
C1982 C 0.10336 0.39815 0.63211 0.0
C1983 C 0.1342 0.41572 0.62981 0.0
C1984 C 0.15238 0.40289 0.63119 0.0
C1985 C 0.24634 0.33375 0.59641 0.0
C1986 C 0.26993 0.36293 0.59357 0.0
C1987 C 0.22044 0.3291 0.60476 0.0
C1988 C 0.21835 0.35359 0.61086 0.0
C1989 C 0.24004 0.38257 0.60588 0.0
C1990 C 0.26566 0.38721 0.59714 0.0
C1991 C 0.1974 0.34949 0.62506 0.0
C1992 C 0.17849 0.36158 0.62352 0.0
C1993 C 0.19743 0.33498 0.64063 0.0
C1994 C 0.21923 0.32479 0.64391 0.0
C1995 C 0.25009 0.34522 0.6434 0.0
C1996 C 0.27054 0.33543 0.64615 0.0
C1997 C 0.26039 0.30532 0.64966 0.0
C1998 C 0.22977 0.28496 0.65045 0.0
C1999 C 0.20922 0.29462 0.64763 0.0
H2000 H 0.27624 0.2978 0.65183 0.0
H2001 H 0.08935 0.40815 0.6311 0.0
H2002 H 0.66719 0.74023 0.67146 0.0
H2003 H 0.66747 0.77518 0.64997 0.0
H2004 H 0.58262 0.75989 0.66907 0.0
H2005 H 0.58241 0.72538 0.69086 0.0
H2006 H 0.59316 0.76593 0.62975 0.0
H2007 H 0.63438 0.81354 0.68596 0.0
H2008 H 0.66911 0.82555 0.71046 0.0
H2009 H 0.74367 0.86568 0.67556 0.0
H2010 H 0.70928 0.85345 0.65083 0.0
H2011 H 0.57763 0.8926 0.61796 0.0
H2012 H 0.57943 0.84719 0.62394 0.0
H2013 H 0.67526 0.89606 0.61771 0.0
H2014 H 0.67357 0.94192 0.6128 0.0
H2015 H 0.66429 0.87083 0.64626 0.0
H2016 H 0.6254 0.83431 0.59069 0.0
H2017 H 0.59257 0.82221 0.56528 0.0
H2018 H 0.51711 0.76144 0.59589 0.0
H2019 H 0.54938 0.77349 0.62157 0.0
C2020 C 0.64833 0.74389 0.67089 0.0
C2021 C 0.62495 0.73042 0.68297 0.0
C2022 C 0.64849 0.76373 0.65857 0.0
C2023 C 0.62505 0.76995 0.65798 0.0
C2024 C 0.60078 0.75512 0.66929 0.0
C2025 C 0.60085 0.73569 0.68182 0.0
C2026 C 0.62773 0.79489 0.64738 0.0
C2027 C 0.60861 0.78895 0.63324 0.0
C2028 C 0.64867 0.82471 0.65169 0.0
C2029 C 0.66929 0.83224 0.66656 0.0
C2030 C 0.65817 0.82466 0.68351 0.0
C2031 C 0.67778 0.83156 0.69743 0.0
C2032 C 0.70857 0.84628 0.69456 0.0
C2033 C 0.71981 0.85421 0.67776 0.0
C2034 C 0.70028 0.84731 0.66379 0.0
C2035 C 0.59896 0.89341 0.61738 0.0
C2036 C 0.62549 0.92071 0.61512 0.0
C2037 C 0.59999 0.86736 0.62069 0.0
C2038 C 0.62751 0.86805 0.62126 0.0
C2039 C 0.65378 0.89494 0.61748 0.0
C2040 C 0.65282 0.92112 0.61464 0.0
C2041 C 0.6293 0.84232 0.62848 0.0
C2042 C 0.64924 0.84801 0.64221 0.0
C2043 C 0.60943 0.81236 0.62351 0.0
C2044 C 0.58983 0.80497 0.60811 0.0
C2045 C 0.60177 0.81853 0.59205 0.0
C2046 C 0.58326 0.81165 0.57758 0.0
C2047 C 0.55277 0.7911 0.57898 0.0
C2048 C 0.54073 0.77735 0.59483 0.0
C2049 C 0.55914 0.78417 0.60935 0.0
H2050 H 0.53848 0.7858 0.56776 0.0
H2051 H 0.72373 0.85161 0.70536 0.0
loop_
_geom_bond_atom_site_label_1
_geom_bond_atom_site_label_2
_geom_bond_distance
_geom_bond_site_symmetry_2
_ccdc_geom_bond_type
O0 Cd1 2.223 . S
O0 C8 1.315 . S
Cd1 O0 2.223 . S
Cd1 O4 2.297 . S
Cd1 O5 2.439 . S
Cd1 O11 2.240 . S
Cd2 O3 2.240 . S
Cd2 O10 2.223 . S
Cd2 O12 2.297 . S
Cd2 O13 2.439 . S
O3 Cd2 2.240 . S
O3 C8 1.279 . S
O4 Cd1 2.297 . S
O4 C6 1.247 . S
O5 Cd1 2.439 . S
O5 C6 1.208 . S
C6 O4 1.247 . S
C6 O5 1.208 . S
C7 O12 1.247 . S
C7 O13 1.208 . S
C8 O0 1.315 . S
C8 O3 1.279 . S
C9 O10 1.315 . S
C9 O11 1.279 . S
O10 Cd2 2.223 . S
O10 C9 1.315 . S
O11 Cd1 2.240 . S
O11 C9 1.279 . S
O12 Cd2 2.297 . S
O12 C7 1.247 . S
O13 Cd2 2.439 . S
O13 C7 1.208 . S
O14 Cd15 2.223 . S
O14 C22 1.315 . S
Cd15 O14 2.223 . S
Cd15 O18 2.297 . S
Cd15 O19 2.439 . S
Cd15 O25 2.240 . S
Cd16 O17 2.240 . S
Cd16 O24 2.223 . S
Cd16 O26 2.297 . S
Cd16 O27 2.439 . S
O17 Cd16 2.240 . S
O17 C22 1.279 . S
O18 Cd15 2.297 . S
O18 C20 1.247 . S
O19 Cd15 2.439 . S
O19 C20 1.208 . S
C20 O18 1.247 . S
C20 O19 1.208 . S
C21 O26 1.247 . S
C21 O27 1.208 . S
C22 O14 1.315 . S
C22 O17 1.279 . S
C23 O24 1.315 . S
C23 O25 1.279 . S
O24 Cd16 2.223 . S
O24 C23 1.315 . S
O25 Cd15 2.240 . S
O25 C23 1.279 . S
O26 Cd16 2.297 . S
O26 C21 1.247 . S
O27 Cd16 2.439 . S
O27 C21 1.208 . S
O28 Cd29 2.223 . S
O28 C36 1.315 . S
Cd29 O28 2.223 . S
Cd29 O32 2.297 . S
Cd29 O33 2.439 . S
Cd29 O39 2.240 . S
Cd30 O31 2.240 . S
Cd30 O38 2.223 . S
Cd30 O40 2.297 . S
Cd30 O41 2.439 . S
O31 Cd30 2.240 . S
O31 C36 1.279 . S
O32 Cd29 2.297 . S
O32 C34 1.247 . S
O33 Cd29 2.439 . S
O33 C34 1.208 . S
C34 O32 1.247 . S
C34 O33 1.208 . S
C35 O40 1.247 . S
C35 O41 1.208 . S
C36 O28 1.315 . S
C36 O31 1.279 . S
C37 O38 1.315 . S
C37 O39 1.279 . S
O38 Cd30 2.223 . S
O38 C37 1.315 . S
O39 Cd29 2.240 . S
O39 C37 1.279 . S
O40 Cd30 2.297 . S
O40 C35 1.247 . S
O41 Cd30 2.439 . S
O41 C35 1.208 . S
O42 Cd43 2.223 . S
O42 C50 1.315 . S
Cd43 O42 2.223 . S
Cd43 O46 2.297 . S
Cd43 O47 2.439 . S
Cd43 O53 2.240 . S
Cd44 O45 2.240 . S
Cd44 O52 2.223 . S
Cd44 O54 2.297 . S
Cd44 O55 2.439 . S
O45 Cd44 2.240 . S
O45 C50 1.279 . S
O46 Cd43 2.297 . S
O46 C48 1.247 . S
O47 Cd43 2.439 . S
O47 C48 1.208 . S
C48 O46 1.247 . S
C48 O47 1.208 . S
C49 O54 1.247 . S
C49 O55 1.208 . S
C50 O42 1.315 . S
C50 O45 1.279 . S
C51 O52 1.315 . S
C51 O53 1.279 . S
O52 Cd44 2.223 . S
O52 C51 1.315 . S
O53 Cd43 2.240 . S
O53 C51 1.279 . S
O54 Cd44 2.297 . S
O54 C49 1.247 . S
O55 Cd44 2.439 . S
O55 C49 1.208 . S
O56 Cd57 2.223 . S
O56 C64 1.315 . S
Cd57 O56 2.223 . S
Cd57 O60 2.297 . S
Cd57 O61 2.439 . S
Cd57 O67 2.240 . S
Cd58 O59 2.240 . S
Cd58 O66 2.223 . S
Cd58 O68 2.297 . S
Cd58 O69 2.439 . S
O59 Cd58 2.240 . S
O59 C64 1.279 . S
O60 Cd57 2.297 . S
O60 C62 1.247 . S
O61 Cd57 2.439 . S
O61 C62 1.208 . S
C62 O60 1.247 . S
C62 O61 1.208 . S
C63 O68 1.247 . S
C63 O69 1.208 . S
C64 O56 1.315 . S
C64 O59 1.279 . S
C65 O66 1.315 . S
C65 O67 1.279 . S
O66 Cd58 2.223 . S
O66 C65 1.315 . S
O67 Cd57 2.240 . S
O67 C65 1.279 . S
O68 Cd58 2.297 . S
O68 C63 1.247 . S
O69 Cd58 2.439 . S
O69 C63 1.208 . S
O70 Cd71 2.223 . S
O70 C78 1.315 . S
Cd71 O70 2.223 . S
Cd71 O74 2.297 . S
Cd71 O75 2.439 . S
Cd71 O81 2.240 . S
Cd72 O73 2.240 . S
Cd72 O80 2.223 . S
Cd72 O82 2.297 . S
Cd72 O83 2.439 . S
O73 Cd72 2.240 . S
O73 C78 1.279 . S
O74 Cd71 2.297 . S
O74 C76 1.247 . S
O75 Cd71 2.439 . S
O75 C76 1.208 . S
C76 O74 1.247 . S
C76 O75 1.208 . S
C77 O82 1.247 . S
C77 O83 1.208 . S
C78 O70 1.315 . S
C78 O73 1.279 . S
C79 O80 1.315 . S
C79 O81 1.279 . S
O80 Cd72 2.223 . S
O80 C79 1.315 . S
O81 Cd71 2.240 . S
O81 C79 1.279 . S
O82 Cd72 2.297 . S
O82 C77 1.247 . S
O83 Cd72 2.439 . S
O83 C77 1.208 . S
O84 Cd85 2.223 . S
O84 C92 1.315 . S
Cd85 O84 2.223 . S
Cd85 O88 2.297 . S
Cd85 O89 2.439 1_655 S
Cd85 O95 2.240 . S
Cd86 O87 2.240 . S
Cd86 O94 2.223 1_455 S
Cd86 O96 2.297 . S
Cd86 O97 2.439 . S
O87 Cd86 2.240 . S
O87 C92 1.279 1_455 S
O88 Cd85 2.297 . S
O88 C90 1.247 1_655 S
O89 Cd85 2.439 1_455 S
O89 C90 1.208 . S
C90 O88 1.247 1_455 S
C90 O89 1.208 . S
C91 O96 1.247 . S
C91 O97 1.208 . S
C92 O84 1.315 . S
C92 O87 1.279 1_655 S
C93 O94 1.315 . S
C93 O95 1.279 . S
O94 Cd86 2.223 1_655 S
O94 C93 1.315 . S
O95 Cd85 2.240 . S
O95 C93 1.279 . S
O96 Cd86 2.297 . S
O96 C91 1.247 . S
O97 Cd86 2.439 . S
O97 C91 1.208 . S
O98 Cd99 2.223 . S
O98 C106 1.315 . S
Cd99 O98 2.223 . S
Cd99 O102 2.297 . S
Cd99 O103 2.439 . S
Cd99 O109 2.240 . S
Cd100 O101 2.240 . S
Cd100 O108 2.223 . S
Cd100 O110 2.297 . S
Cd100 O111 2.439 . S
O101 Cd100 2.240 . S
O101 C106 1.279 . S
O102 Cd99 2.297 . S
O102 C104 1.247 . S
O103 Cd99 2.439 . S
O103 C104 1.208 . S
C104 O102 1.247 . S
C104 O103 1.208 . S
C105 O110 1.247 . S
C105 O111 1.208 . S
C106 O98 1.315 . S
C106 O101 1.279 . S
C107 O108 1.315 . S
C107 O109 1.279 . S
O108 Cd100 2.223 . S
O108 C107 1.315 . S
O109 Cd99 2.240 . S
O109 C107 1.279 . S
O110 Cd100 2.297 . S
O110 C105 1.247 . S
O111 Cd100 2.439 . S
O111 C105 1.208 . S
O112 Cd113 2.223 . S
O112 C120 1.315 . S
Cd113 O112 2.223 . S
Cd113 O116 2.297 . S
Cd113 O117 2.439 1_545 S
Cd113 O123 2.240 . S
Cd114 O115 2.240 . S
Cd114 O122 2.223 1_565 S
Cd114 O124 2.297 . S
Cd114 O125 2.439 . S
O115 Cd114 2.240 . S
O115 C120 1.279 1_565 S
O116 Cd113 2.297 . S
O116 C118 1.247 1_545 S
O117 Cd113 2.439 1_565 S
O117 C118 1.208 . S
C118 O116 1.247 1_565 S
C118 O117 1.208 . S
C119 O124 1.247 . S
C119 O125 1.208 . S
C120 O112 1.315 . S
C120 O115 1.279 1_545 S
C121 O122 1.315 . S
C121 O123 1.279 . S
O122 Cd114 2.223 1_545 S
O122 C121 1.315 . S
O123 Cd113 2.240 . S
O123 C121 1.279 . S
O124 Cd114 2.297 . S
O124 C119 1.247 . S
O125 Cd114 2.439 . S
O125 C119 1.208 . S
O126 Cd127 2.223 . S
O126 C134 1.315 . S
Cd127 O126 2.223 . S
Cd127 O130 2.297 . S
Cd127 O131 2.439 . S
Cd127 O137 2.240 . S
Cd128 O129 2.240 . S
Cd128 O136 2.223 . S
Cd128 O138 2.297 . S
Cd128 O139 2.439 . S
O129 Cd128 2.240 . S
O129 C134 1.279 . S
O130 Cd127 2.297 . S
O130 C132 1.247 . S
O131 Cd127 2.439 . S
O131 C132 1.208 . S
C132 O130 1.247 . S
C132 O131 1.208 . S
C133 O138 1.247 . S
C133 O139 1.208 . S
C134 O126 1.315 . S
C134 O129 1.279 . S
C135 O136 1.315 . S
C135 O137 1.279 . S
O136 Cd128 2.223 . S
O136 C135 1.315 . S
O137 Cd127 2.240 . S
O137 C135 1.279 . S
O138 Cd128 2.297 . S
O138 C133 1.247 . S
O139 Cd128 2.439 . S
O139 C133 1.208 . S
O140 Cd141 2.223 . S
O140 C148 1.315 . S
Cd141 O140 2.223 . S
Cd141 O144 2.297 . S
Cd141 O145 2.439 . S
Cd141 O151 2.240 . S
Cd142 O143 2.240 . S
Cd142 O150 2.223 . S
Cd142 O152 2.297 1_545 S
Cd142 O153 2.439 . S
O143 Cd142 2.240 . S
O143 C148 1.279 . S
O144 Cd141 2.297 . S
O144 C146 1.247 . S
O145 Cd141 2.439 . S
O145 C146 1.208 . S
C146 O144 1.247 . S
C146 O145 1.208 . S
C147 O152 1.247 . S
C147 O153 1.208 1_565 S
C148 O140 1.315 . S
C148 O143 1.279 . S
C149 O150 1.315 . S
C149 O151 1.279 . S
O150 Cd142 2.223 . S
O150 C149 1.315 . S
O151 Cd141 2.240 . S
O151 C149 1.279 . S
O152 Cd142 2.297 1_565 S
O152 C147 1.247 . S
O153 Cd142 2.439 . S
O153 C147 1.208 1_545 S
O154 Cd155 2.223 . S
O154 C162 1.315 . S
Cd155 O154 2.223 . S
Cd155 O158 2.297 . S
Cd155 O159 2.439 . S
Cd155 O165 2.240 . S
Cd156 O157 2.240 . S
Cd156 O164 2.223 . S
Cd156 O166 2.297 1_655 S
Cd156 O167 2.439 . S
O157 Cd156 2.240 . S
O157 C162 1.279 . S
O158 Cd155 2.297 . S
O158 C160 1.247 . S
O159 Cd155 2.439 . S
O159 C160 1.208 . S
C160 O158 1.247 . S
C160 O159 1.208 . S
C161 O166 1.247 . S
C161 O167 1.208 1_455 S
C162 O154 1.315 . S
C162 O157 1.279 . S
C163 O164 1.315 . S
C163 O165 1.279 . S
O164 Cd156 2.223 . S
O164 C163 1.315 . S
O165 Cd155 2.240 . S
O165 C163 1.279 . S
O166 Cd156 2.297 1_455 S
O166 C161 1.247 . S
O167 Cd156 2.439 . S
O167 C161 1.208 1_655 S
O168 Cd169 2.223 . S
O168 C176 1.315 . S
Cd169 O168 2.223 . S
Cd169 O172 2.297 . S
Cd169 O173 2.439 . S
Cd169 O179 2.240 . S
Cd170 O171 2.240 . S
Cd170 O178 2.223 . S
Cd170 O180 2.297 . S
Cd170 O181 2.439 . S
O171 Cd170 2.240 . S
O171 C176 1.279 . S
O172 Cd169 2.297 . S
O172 C174 1.247 . S
O173 Cd169 2.439 . S
O173 C174 1.208 . S
C174 O172 1.247 . S
C174 O173 1.208 . S
C175 O180 1.247 . S
C175 O181 1.208 . S
C176 O168 1.315 . S
C176 O171 1.279 . S
C177 O178 1.315 . S
C177 O179 1.279 . S
O178 Cd170 2.223 . S
O178 C177 1.315 . S
O179 Cd169 2.240 . S
O179 C177 1.279 . S
O180 Cd170 2.297 . S
O180 C175 1.247 . S
O181 Cd170 2.439 . S
O181 C175 1.208 . S
O182 Cd183 2.223 . S
O182 C190 1.315 . S
Cd183 O182 2.223 . S
Cd183 O186 2.297 . S
Cd183 O187 2.439 . S
Cd183 O193 2.240 . S
Cd184 O185 2.240 . S
Cd184 O192 2.223 . S
Cd184 O194 2.297 1_565 S
Cd184 O195 2.439 . S
O185 Cd184 2.240 . S
O185 C190 1.279 . S
O186 Cd183 2.297 . S
O186 C188 1.247 . S
O187 Cd183 2.439 . S
O187 C188 1.208 . S
C188 O186 1.247 . S
C188 O187 1.208 . S
C189 O194 1.247 . S
C189 O195 1.208 1_545 S
C190 O182 1.315 . S
C190 O185 1.279 . S
C191 O192 1.315 . S
C191 O193 1.279 . S
O192 Cd184 2.223 . S
O192 C191 1.315 . S
O193 Cd183 2.240 . S
O193 C191 1.279 . S
O194 Cd184 2.297 1_545 S
O194 C189 1.247 . S
O195 Cd184 2.439 . S
O195 C189 1.208 1_565 S
O196 Cd197 2.223 . S
O196 C204 1.315 . S
Cd197 O196 2.223 . S
Cd197 O200 2.297 . S
Cd197 O201 2.439 . S
Cd197 O207 2.240 . S
Cd198 O199 2.240 . S
Cd198 O206 2.223 . S
Cd198 O208 2.297 1_455 S
Cd198 O209 2.439 . S
O199 Cd198 2.240 . S
O199 C204 1.279 . S
O200 Cd197 2.297 . S
O200 C202 1.247 . S
O201 Cd197 2.439 . S
O201 C202 1.208 . S
C202 O200 1.247 . S
C202 O201 1.208 . S
C203 O208 1.247 . S
C203 O209 1.208 1_655 S
C204 O196 1.315 . S
C204 O199 1.279 . S
C205 O206 1.315 . S
C205 O207 1.279 . S
O206 Cd198 2.223 . S
O206 C205 1.315 . S
O207 Cd197 2.240 . S
O207 C205 1.279 . S
O208 Cd198 2.297 1_655 S
O208 C203 1.247 . S
O209 Cd198 2.439 . S
O209 C203 1.208 1_455 S
O210 Cd211 2.223 . S
O210 C218 1.315 . S
Cd211 O210 2.223 . S
Cd211 O214 2.297 . S
Cd211 O215 2.439 1_455 S
Cd211 O221 2.240 . S
Cd212 O213 2.240 . S
Cd212 O220 2.223 1_655 S
Cd212 O222 2.297 . S
Cd212 O223 2.439 . S
O213 Cd212 2.240 . S
O213 C218 1.279 1_655 S
O214 Cd211 2.297 . S
O214 C216 1.247 1_455 S
O215 Cd211 2.439 1_655 S
O215 C216 1.208 . S
C216 O214 1.247 1_655 S
C216 O215 1.208 . S
C217 O222 1.247 . S
C217 O223 1.208 . S
C218 O210 1.315 . S
C218 O213 1.279 1_455 S
C219 O220 1.315 . S
C219 O221 1.279 . S
O220 Cd212 2.223 1_455 S
O220 C219 1.315 . S
O221 Cd211 2.240 . S
O221 C219 1.279 . S
O222 Cd212 2.297 . S
O222 C217 1.247 . S
O223 Cd212 2.439 . S
O223 C217 1.208 . S
O224 Cd225 2.223 . S
O224 C232 1.315 . S
Cd225 O224 2.223 . S
Cd225 O228 2.297 . S
Cd225 O229 2.439 . S
Cd225 O235 2.240 . S
Cd226 O227 2.240 . S
Cd226 O234 2.223 . S
Cd226 O236 2.297 . S
Cd226 O237 2.439 . S
O227 Cd226 2.240 . S
O227 C232 1.279 . S
O228 Cd225 2.297 . S
O228 C230 1.247 . S
O229 Cd225 2.439 . S
O229 C230 1.208 . S
C230 O228 1.247 . S
C230 O229 1.208 . S
C231 O236 1.247 . S
C231 O237 1.208 . S
C232 O224 1.315 . S
C232 O227 1.279 . S
C233 O234 1.315 . S
C233 O235 1.279 . S
O234 Cd226 2.223 . S
O234 C233 1.315 . S
O235 Cd225 2.240 . S
O235 C233 1.279 . S
O236 Cd226 2.297 . S
O236 C231 1.247 . S
O237 Cd226 2.439 . S
O237 C231 1.208 . S
O238 Cd239 2.223 . S
O238 C246 1.315 . S
Cd239 O238 2.223 . S
Cd239 O242 2.297 . S
Cd239 O243 2.439 1_565 S
Cd239 O249 2.240 . S
Cd240 O241 2.240 . S
Cd240 O248 2.223 1_545 S
Cd240 O250 2.297 . S
Cd240 O251 2.439 . S
O241 Cd240 2.240 . S
O241 C246 1.279 1_545 S
O242 Cd239 2.297 . S
O242 C244 1.247 1_565 S
O243 Cd239 2.439 1_545 S
O243 C244 1.208 . S
C244 O242 1.247 1_545 S
C244 O243 1.208 . S
C245 O250 1.247 . S
C245 O251 1.208 . S
C246 O238 1.315 . S
C246 O241 1.279 1_565 S
C247 O248 1.315 . S
C247 O249 1.279 . S
O248 Cd240 2.223 1_565 S
O248 C247 1.315 . S
O249 Cd239 2.240 . S
O249 C247 1.279 . S
O250 Cd240 2.297 . S
O250 C245 1.247 . S
O251 Cd240 2.439 . S
O251 C245 1.208 . S
H252 C270 0.951 . S
H253 C272 0.951 1_556 S
H254 C274 0.950 . S
H255 C275 0.950 . S
H256 C277 0.950 . S
H257 C280 0.950 . S
H258 C281 0.950 . S
H259 C283 0.950 . S
H260 C284 0.950 . S
H261 C285 0.951 . S
H262 C287 0.951 1_554 S
H263 C289 0.950 . S
H264 C290 0.950 . S
H265 C292 0.950 . S
H266 C295 0.950 . S
H267 C296 0.950 . S
H268 C298 0.950 . S
H269 C299 0.950 . S
C270 H252 0.951 . S
C270 C271 1.366 . S
C270 C272 1.388 . S
C271 C270 1.366 . S
C271 C275 1.385 . S
C272 H253 0.951 1_554 S
C272 C270 1.388 . S
C272 C273 1.366 . S
C273 C272 1.366 . S
C273 C274 1.414 . S
C273 C276 1.499 . S
C274 H254 0.950 . S
C274 C273 1.414 . S
C274 C275 1.374 . S
C275 H255 0.950 . S
C275 C271 1.385 . S
C275 C274 1.374 . S
C276 C273 1.499 . S
C276 C277 1.373 . S
C276 C278 1.389 1_544 S
C277 H256 0.950 . S
C277 C276 1.373 . S
C277 C293 1.377 . S
C278 C276 1.389 1_566 S
C278 C279 1.524 . S
C278 C292 1.377 . S
C279 C278 1.524 . S
C279 C280 1.397 1_556 S
C279 C284 1.363 . S
C280 H257 0.950 . S
C280 C279 1.397 1_554 S
C280 C281 1.334 . S
C281 H258 0.950 . S
C281 C280 1.334 . S
C281 C282 1.281 1_554 S
C282 C281 1.281 1_556 S
C282 C283 1.530 . S
C282 H301 0.913 1_556 S
C283 H259 0.950 . S
C283 C282 1.530 . S
C283 C284 1.415 . S
C284 H260 0.950 . S
C284 C279 1.363 . S
C284 C283 1.415 . S
C285 H261 0.951 . S
C285 C286 1.366 . S
C285 C287 1.388 . S
C286 C285 1.366 . S
C286 C290 1.385 . S
C287 H262 0.951 1_556 S
C287 C285 1.388 . S
C287 C288 1.366 . S
C288 C287 1.366 . S
C288 C289 1.414 . S
C288 C291 1.499 . S
C289 H263 0.950 . S
C289 C288 1.414 . S
C289 C290 1.374 . S
C290 H264 0.950 . S
C290 C286 1.385 . S
C290 C289 1.374 . S
C291 C288 1.499 . S
C291 C292 1.373 . S
C291 C293 1.389 1_566 S
C292 H265 0.950 . S
C292 C278 1.377 . S
C292 C291 1.373 . S
C293 C277 1.377 . S
C293 C291 1.389 1_544 S
C293 C294 1.524 . S
C294 C293 1.524 . S
C294 C295 1.397 1_554 S
C294 C299 1.363 . S
C295 H266 0.950 . S
C295 C294 1.397 1_556 S
C295 C296 1.334 . S
C296 H267 0.950 . S
C296 C295 1.334 . S
C296 C297 1.281 1_556 S
C297 C296 1.281 1_554 S
C297 C298 1.530 . S
C297 H300 0.998 . S
C298 H268 0.950 . S
C298 C297 1.530 . S
C298 C299 1.415 . S
C299 H269 0.950 . S
C299 C294 1.363 . S
C299 C298 1.415 . S
H300 C297 0.998 . S
H301 C282 0.913 1_554 S
H302 C320 0.951 1_455 S
H303 C322 0.951 . S
H304 C324 0.950 . S
H305 C325 0.950 . S
H306 C327 0.954 . S
H307 C330 0.950 . S
H308 C331 0.950 . S
H309 C333 0.950 . S
H310 C334 0.950 1_556 S
H311 C335 0.951 1_655 S
H312 C337 0.951 . S
H313 C339 0.950 . S
H314 C340 0.950 . S
H315 C342 0.954 . S
H316 C345 0.950 . S
H317 C346 0.950 . S
H318 C348 0.950 . S
H319 C349 0.950 1_554 S
C320 H302 0.951 1_655 S
C320 C321 1.366 . S
C320 C322 1.388 1_655 S
C321 C320 1.366 . S
C321 C325 1.385 . S
C322 H303 0.951 . S
C322 C320 1.388 1_455 S
C322 C323 1.366 1_455 S
C323 C322 1.366 1_655 S
C323 C324 1.414 . S
C323 C326 1.499 . S
C324 H304 0.950 . S
C324 C323 1.414 . S
C324 C325 1.374 . S
C325 H305 0.950 . S
C325 C321 1.385 . S
C325 C324 1.374 . S
C326 C323 1.499 . S
C326 C327 1.400 . S
C326 C328 1.389 1_655 S
C327 H306 0.954 . S
C327 C326 1.400 . S
C327 C343 1.349 1_554 S
C328 C326 1.389 1_455 S
C328 C329 1.524 . S
C328 C342 1.349 1_554 S
C329 C328 1.524 . S
C329 C330 1.397 . S
C329 C334 1.363 . S
C330 H307 0.950 . S
C330 C329 1.397 . S
C330 C331 1.334 . S
C331 H308 0.950 . S
C331 C330 1.334 . S
C331 C332 1.287 . S
C332 C331 1.287 . S
C332 C333 1.524 . S
C332 H351 0.913 . S
C333 H309 0.950 . S
C333 C332 1.524 . S
C333 C334 1.415 . S
C334 H310 0.950 1_554 S
C334 C329 1.363 . S
C334 C333 1.415 . S
C335 H311 0.951 1_455 S
C335 C336 1.366 . S
C335 C337 1.388 1_455 S
C336 C335 1.366 . S
C336 C340 1.385 . S
C337 H312 0.951 . S
C337 C335 1.388 1_655 S
C337 C338 1.366 1_655 S
C338 C337 1.366 1_455 S
C338 C339 1.414 . S
C338 C341 1.499 . S
C339 H313 0.950 . S
C339 C338 1.414 . S
C339 C340 1.374 . S
C340 H314 0.950 . S
C340 C336 1.385 . S
C340 C339 1.374 . S
C341 C338 1.499 . S
C341 C342 1.400 . S
C341 C343 1.389 1_455 S
C342 H315 0.954 . S
C342 C328 1.349 1_556 S
C342 C341 1.400 . S
C343 C327 1.349 1_556 S
C343 C341 1.389 1_655 S
C343 C344 1.524 . S
C344 C343 1.524 . S
C344 C345 1.397 . S
C344 C349 1.363 . S
C345 H316 0.950 . S
C345 C344 1.397 . S
C345 C346 1.334 . S
C346 H317 0.950 . S
C346 C345 1.334 . S
C346 C347 1.287 . S
C347 C346 1.287 . S
C347 C348 1.524 . S
C347 H350 0.999 . S
C348 H318 0.950 . S
C348 C347 1.524 . S
C348 C349 1.415 . S
C349 H319 0.950 1_556 S
C349 C344 1.363 . S
C349 C348 1.415 . S
H350 C347 0.999 . S
H351 C332 0.913 . S
H352 C370 0.951 . S
H353 C372 0.951 . S
H354 C374 0.950 . S
H355 C375 0.950 . S
H356 C377 0.950 . S
H357 C380 0.950 . S
H358 C381 0.950 . S
H359 C383 0.950 . S
H360 C384 0.950 . S
H361 C385 0.951 . S
H362 C387 0.951 . S
H363 C389 0.950 . S
H364 C390 0.950 . S
H365 C392 0.950 . S
H366 C395 0.950 . S
H367 C396 0.950 . S
H368 C398 0.950 . S
H369 C399 0.950 . S
C370 H352 0.951 . S
C370 C371 1.366 . S
C370 C372 1.388 . S
C371 C370 1.366 . S
C371 C375 1.385 . S
C372 H353 0.951 . S
C372 C370 1.388 . S
C372 C373 1.366 . S
C373 C372 1.366 . S
C373 C374 1.414 . S
C373 C376 1.499 . S
C374 H354 0.950 . S
C374 C373 1.414 . S
C374 C375 1.374 . S
C375 H355 0.950 . S
C375 C371 1.385 . S
C375 C374 1.374 . S
C376 C373 1.499 . S
C376 C377 1.373 1_556 S
C376 C378 1.389 . S
C377 H356 0.950 . S
C377 C376 1.373 1_554 S
C377 C393 1.377 . S
C378 C376 1.389 . S
C378 C379 1.524 . S
C378 C392 1.377 . S
C379 C378 1.524 . S
C379 C380 1.397 . S
C379 C384 1.363 . S
C380 H357 0.950 . S
C380 C379 1.397 . S
C380 C381 1.334 . S
C381 H358 0.950 . S
C381 C380 1.334 . S
C381 C382 1.287 . S
C382 C381 1.287 . S
C382 C383 1.524 . S
C382 H401 0.913 . S
C383 H359 0.950 . S
C383 C382 1.524 . S
C383 C384 1.415 . S
C384 H360 0.950 . S
C384 C379 1.363 . S
C384 C383 1.415 . S
C385 H361 0.951 . S
C385 C386 1.366 . S
C385 C387 1.388 . S
C386 C385 1.366 . S
C386 C390 1.385 . S
C387 H362 0.951 . S
C387 C385 1.388 . S
C387 C388 1.366 . S
C388 C387 1.366 . S
C388 C389 1.414 . S
C388 C391 1.499 . S
C389 H363 0.950 . S
C389 C388 1.414 . S
C389 C390 1.374 . S
C390 H364 0.950 . S
C390 C386 1.385 . S
C390 C389 1.374 . S
C391 C388 1.499 . S
C391 C392 1.373 1_554 S
C391 C393 1.389 . S
C392 H365 0.950 . S
C392 C378 1.377 . S
C392 C391 1.373 1_556 S
C393 C377 1.377 . S
C393 C391 1.389 . S
C393 C394 1.524 . S
C394 C393 1.524 . S
C394 C395 1.397 . S
C394 C399 1.363 . S
C395 H366 0.950 . S
C395 C394 1.397 . S
C395 C396 1.334 . S
C396 H367 0.950 . S
C396 C395 1.334 . S
C396 C397 1.287 . S
C397 C396 1.287 . S
C397 C398 1.524 . S
C397 H400 0.999 . S
C398 H368 0.950 . S
C398 C397 1.524 . S
C398 C399 1.415 . S
C399 H369 0.950 . S
C399 C394 1.363 . S
C399 C398 1.415 . S
H400 C397 0.999 . S
H401 C382 0.913 . S
H402 C420 0.951 . S
H403 C422 0.951 . S
H404 C424 0.950 . S
H405 C425 0.950 . S
H406 C427 0.950 . S
H407 C430 0.950 . S
H408 C431 0.950 . S
H409 C433 0.950 . S
H410 C434 0.950 . S
H411 C435 0.951 . S
H412 C437 0.951 . S
H413 C439 0.950 . S
H414 C440 0.950 . S
H415 C442 0.950 . S
H416 C445 0.950 . S
H417 C446 0.950 . S
H418 C448 0.950 . S
H419 C449 0.950 . S
C420 H402 0.951 . S
C420 C421 1.366 . S
C420 C422 1.388 . S
C421 C420 1.366 . S
C421 C425 1.385 . S
C422 H403 0.951 . S
C422 C420 1.388 . S
C422 C423 1.366 . S
C423 C422 1.366 . S
C423 C424 1.414 . S
C423 C426 1.499 . S
C424 H404 0.950 . S
C424 C423 1.414 . S
C424 C425 1.374 . S
C425 H405 0.950 . S
C425 C421 1.385 . S
C425 C424 1.374 . S
C426 C423 1.499 . S
C426 C427 1.373 . S
C426 C428 1.389 . S
C427 H406 0.950 . S
C427 C426 1.373 . S
C427 C443 1.377 . S
C428 C426 1.389 . S
C428 C429 1.524 . S
C428 C442 1.377 . S
C429 C428 1.524 . S
C429 C430 1.397 . S
C429 C434 1.363 . S
C430 H407 0.950 . S
C430 C429 1.397 . S
C430 C431 1.334 . S
C431 H408 0.950 . S
C431 C430 1.334 . S
C431 C432 1.287 . S
C432 C431 1.287 . S
C432 C433 1.524 . S
C432 H451 0.913 . S
C433 H409 0.950 . S
C433 C432 1.524 . S
C433 C434 1.415 . S
C434 H410 0.950 . S
C434 C429 1.363 . S
C434 C433 1.415 . S
C435 H411 0.951 . S
C435 C436 1.366 . S
C435 C437 1.388 . S
C436 C435 1.366 . S
C436 C440 1.385 . S
C437 H412 0.951 . S
C437 C435 1.388 . S
C437 C438 1.366 . S
C438 C437 1.366 . S
C438 C439 1.414 . S
C438 C441 1.499 . S
C439 H413 0.950 . S
C439 C438 1.414 . S
C439 C440 1.374 . S
C440 H414 0.950 . S
C440 C436 1.385 . S
C440 C439 1.374 . S
C441 C438 1.499 . S
C441 C442 1.373 . S
C441 C443 1.389 . S
C442 H415 0.950 . S
C442 C428 1.377 . S
C442 C441 1.373 . S
C443 C427 1.377 . S
C443 C441 1.389 . S
C443 C444 1.524 . S
C444 C443 1.524 . S
C444 C445 1.397 . S
C444 C449 1.363 . S
C445 H416 0.950 . S
C445 C444 1.397 . S
C445 C446 1.334 . S
C446 H417 0.950 . S
C446 C445 1.334 . S
C446 C447 1.287 . S
C447 C446 1.287 . S
C447 C448 1.524 . S
C447 H450 0.999 . S
C448 H418 0.950 . S
C448 C447 1.524 . S
C448 C449 1.415 . S
C449 H419 0.950 . S
C449 C444 1.363 . S
C449 C448 1.415 . S
H450 C447 0.999 . S
H451 C432 0.913 . S
H452 C470 0.951 . S
H453 C472 0.951 . S
H454 C474 0.950 . S
H455 C475 0.950 . S
H456 C477 0.950 . S
H457 C480 0.950 . S
H458 C481 0.950 . S
H459 C483 0.950 . S
H460 C484 0.950 . S
H461 C485 0.951 . S
H462 C487 0.951 . S
H463 C489 0.950 . S
H464 C490 0.950 . S
H465 C492 0.950 . S
H466 C495 0.950 . S
H467 C496 0.950 . S
H468 C498 0.950 . S
H469 C499 0.950 . S
C470 H452 0.951 . S
C470 C471 1.366 . S
C470 C472 1.388 . S
C471 C470 1.366 . S
C471 C475 1.385 . S
C472 H453 0.951 . S
C472 C470 1.388 . S
C472 C473 1.366 . S
C473 C472 1.366 . S
C473 C474 1.414 . S
C473 C476 1.499 . S
C474 H454 0.950 . S
C474 C473 1.414 . S
C474 C475 1.374 . S
C475 H455 0.950 . S
C475 C471 1.385 . S
C475 C474 1.374 . S
C476 C473 1.499 . S
C476 C477 1.373 . S
C476 C478 1.389 . S
C477 H456 0.950 . S
C477 C476 1.373 . S
C477 C493 1.377 . S
C478 C476 1.389 . S
C478 C479 1.524 . S
C478 C492 1.377 . S
C479 C478 1.524 . S
C479 C480 1.397 . S
C479 C484 1.363 . S
C480 H457 0.950 . S
C480 C479 1.397 . S
C480 C481 1.334 . S
C481 H458 0.950 . S
C481 C480 1.334 . S
C481 C482 1.287 . S
C482 C481 1.287 . S
C482 C483 1.524 . S
C482 H501 0.913 . S
C483 H459 0.950 . S
C483 C482 1.524 . S
C483 C484 1.415 . S
C484 H460 0.950 . S
C484 C479 1.363 . S
C484 C483 1.415 . S
C485 H461 0.951 . S
C485 C486 1.366 . S
C485 C487 1.388 . S
C486 C485 1.366 . S
C486 C490 1.385 . S
C487 H462 0.951 . S
C487 C485 1.388 . S
C487 C488 1.366 . S
C488 C487 1.366 . S
C488 C489 1.414 . S
C488 C491 1.499 . S
C489 H463 0.950 . S
C489 C488 1.414 . S
C489 C490 1.374 . S
C490 H464 0.950 . S
C490 C486 1.385 . S
C490 C489 1.374 . S
C491 C488 1.499 . S
C491 C492 1.373 . S
C491 C493 1.389 . S
C492 H465 0.950 . S
C492 C478 1.377 . S
C492 C491 1.373 . S
C493 C477 1.377 . S
C493 C491 1.389 . S
C493 C494 1.524 . S
C494 C493 1.524 . S
C494 C495 1.397 . S
C494 C499 1.363 . S
C495 H466 0.950 . S
C495 C494 1.397 . S
C495 C496 1.334 . S
C496 H467 0.950 . S
C496 C495 1.334 . S
C496 C497 1.287 . S
C497 C496 1.287 . S
C497 C498 1.524 . S
C497 H500 0.999 . S
C498 H468 0.950 . S
C498 C497 1.524 . S
C498 C499 1.415 . S
C499 H469 0.950 . S
C499 C494 1.363 . S
C499 C498 1.415 . S
H500 C497 0.999 . S
H501 C482 0.913 . S
H502 C520 0.951 . S
H503 C522 0.951 . S
H504 C524 0.950 . S
H505 C525 0.950 . S
H506 C527 0.950 . S
H507 C530 0.950 . S
H508 C531 0.950 . S
H509 C533 0.950 . S
H510 C534 0.950 . S
H511 C535 0.951 . S
H512 C537 0.951 . S
H513 C539 0.950 . S
H514 C540 0.950 . S
H515 C542 0.950 . S
H516 C545 0.950 . S
H517 C546 0.950 . S
H518 C548 0.950 . S
H519 C549 0.950 . S
C520 H502 0.951 . S
C520 C521 1.366 . S
C520 C522 1.388 . S
C521 C520 1.366 . S
C521 C525 1.385 . S
C522 H503 0.951 . S
C522 C520 1.388 . S
C522 C523 1.366 . S
C523 C522 1.366 . S
C523 C524 1.414 . S
C523 C526 1.499 . S
C524 H504 0.950 . S
C524 C523 1.414 . S
C524 C525 1.374 . S
C525 H505 0.950 . S
C525 C521 1.385 . S
C525 C524 1.374 . S
C526 C523 1.499 . S
C526 C527 1.373 . S
C526 C528 1.389 . S
C527 H506 0.950 . S
C527 C526 1.373 . S
C527 C543 1.377 . S
C528 C526 1.389 . S
C528 C529 1.524 . S
C528 C542 1.377 . S
C529 C528 1.524 . S
C529 C530 1.397 . S
C529 C534 1.363 . S
C530 H507 0.950 . S
C530 C529 1.397 . S
C530 C531 1.334 . S
C531 H508 0.950 . S
C531 C530 1.334 . S
C531 C532 1.287 . S
C532 C531 1.287 . S
C532 C533 1.524 . S
C532 H551 0.913 . S
C533 H509 0.950 . S
C533 C532 1.524 . S
C533 C534 1.415 . S
C534 H510 0.950 . S
C534 C529 1.363 . S
C534 C533 1.415 . S
C535 H511 0.951 . S
C535 C536 1.366 . S
C535 C537 1.388 . S
C536 C535 1.366 . S
C536 C540 1.385 . S
C537 H512 0.951 . S
C537 C535 1.388 . S
C537 C538 1.366 . S
C538 C537 1.366 . S
C538 C539 1.414 . S
C538 C541 1.499 . S
C539 H513 0.950 . S
C539 C538 1.414 . S
C539 C540 1.374 . S
C540 H514 0.950 . S
C540 C536 1.385 . S
C540 C539 1.374 . S
C541 C538 1.499 . S
C541 C542 1.373 . S
C541 C543 1.389 . S
C542 H515 0.950 . S
C542 C528 1.377 . S
C542 C541 1.373 . S
C543 C527 1.377 . S
C543 C541 1.389 . S
C543 C544 1.524 . S
C544 C543 1.524 . S
C544 C545 1.397 . S
C544 C549 1.363 . S
C545 H516 0.950 . S
C545 C544 1.397 . S
C545 C546 1.334 . S
C546 H517 0.950 . S
C546 C545 1.334 . S
C546 C547 1.287 . S
C547 C546 1.287 . S
C547 C548 1.524 . S
C547 H550 0.999 . S
C548 H518 0.950 . S
C548 C547 1.524 . S
C548 C549 1.415 . S
C549 H519 0.950 . S
C549 C544 1.363 . S
C549 C548 1.415 . S
H550 C547 0.999 . S
H551 C532 0.913 . S
H552 C570 0.951 . S
H553 C572 0.951 . S
H554 C574 0.950 . S
H555 C575 0.950 . S
H556 C577 0.950 . S
H557 C580 0.950 . S
H558 C581 0.950 . S
H559 C583 0.950 . S
H560 C584 0.950 . S
H561 C585 0.951 . S
H562 C587 0.951 . S
H563 C589 0.950 . S
H564 C590 0.950 . S
H565 C592 0.950 . S
H566 C595 0.950 . S
H567 C596 0.950 . S
H568 C598 0.950 . S
H569 C599 0.950 . S
C570 H552 0.951 . S
C570 C571 1.366 . S
C570 C572 1.388 . S
C571 C570 1.366 . S
C571 C575 1.385 . S
C572 H553 0.951 . S
C572 C570 1.388 . S
C572 C573 1.366 . S
C573 C572 1.366 . S
C573 C574 1.414 . S
C573 C576 1.499 . S
C574 H554 0.950 . S
C574 C573 1.414 . S
C574 C575 1.374 . S
C575 H555 0.950 . S
C575 C571 1.385 . S
C575 C574 1.374 . S
C576 C573 1.499 . S
C576 C577 1.373 . S
C576 C578 1.389 . S
C577 H556 0.950 . S
C577 C576 1.373 . S
C577 C593 1.377 . S
C578 C576 1.389 . S
C578 C579 1.524 . S
C578 C592 1.377 . S
C579 C578 1.524 . S
C579 C580 1.397 . S
C579 C584 1.363 . S
C580 H557 0.950 . S
C580 C579 1.397 . S
C580 C581 1.334 . S
C581 H558 0.950 . S
C581 C580 1.334 . S
C581 C582 1.287 . S
C582 C581 1.287 . S
C582 C583 1.524 . S
C582 H601 0.913 . S
C583 H559 0.950 . S
C583 C582 1.524 . S
C583 C584 1.415 . S
C584 H560 0.950 . S
C584 C579 1.363 . S
C584 C583 1.415 . S
C585 H561 0.951 . S
C585 C586 1.366 . S
C585 C587 1.388 . S
C586 C585 1.366 . S
C586 C590 1.385 . S
C587 H562 0.951 . S
C587 C585 1.388 . S
C587 C588 1.366 . S
C588 C587 1.366 . S
C588 C589 1.414 . S
C588 C591 1.499 . S
C589 H563 0.950 . S
C589 C588 1.414 . S
C589 C590 1.374 . S
C590 H564 0.950 . S
C590 C586 1.385 . S
C590 C589 1.374 . S
C591 C588 1.499 . S
C591 C592 1.373 . S
C591 C593 1.389 . S
C592 H565 0.950 . S
C592 C578 1.377 . S
C592 C591 1.373 . S
C593 C577 1.377 . S
C593 C591 1.389 . S
C593 C594 1.524 . S
C594 C593 1.524 . S
C594 C595 1.397 . S
C594 C599 1.363 . S
C595 H566 0.950 . S
C595 C594 1.397 . S
C595 C596 1.334 . S
C596 H567 0.950 . S
C596 C595 1.334 . S
C596 C597 1.287 . S
C597 C596 1.287 . S
C597 C598 1.524 . S
C597 H600 0.999 . S
C598 H568 0.950 . S
C598 C597 1.524 . S
C598 C599 1.415 . S
C599 H569 0.950 . S
C599 C594 1.363 . S
C599 C598 1.415 . S
H600 C597 0.999 . S
H601 C582 0.913 . S
H602 C620 0.951 . S
H603 C622 0.951 . S
H604 C624 0.950 . S
H605 C625 0.950 . S
H606 C627 0.950 . S
H607 C630 0.950 . S
H608 C631 0.950 . S
H609 C633 0.950 . S
H610 C634 0.950 . S
H611 C635 0.951 . S
H612 C637 0.951 . S
H613 C639 0.950 . S
H614 C640 0.950 . S
H615 C642 0.950 . S
H616 C645 0.950 . S
H617 C646 0.950 . S
H618 C648 0.950 . S
H619 C649 0.950 . S
C620 H602 0.951 . S
C620 C621 1.366 . S
C620 C622 1.388 . S
C621 C620 1.366 . S
C621 C625 1.385 . S
C622 H603 0.951 . S
C622 C620 1.388 . S
C622 C623 1.366 . S
C623 C622 1.366 . S
C623 C624 1.414 . S
C623 C626 1.499 . S
C624 H604 0.950 . S
C624 C623 1.414 . S
C624 C625 1.374 . S
C625 H605 0.950 . S
C625 C621 1.385 . S
C625 C624 1.374 . S
C626 C623 1.499 . S
C626 C627 1.373 . S
C626 C628 1.389 . S
C627 H606 0.950 . S
C627 C626 1.373 . S
C627 C643 1.377 . S
C628 C626 1.389 . S
C628 C629 1.524 . S
C628 C642 1.377 . S
C629 C628 1.524 . S
C629 C630 1.397 . S
C629 C634 1.363 . S
C630 H607 0.950 . S
C630 C629 1.397 . S
C630 C631 1.334 . S
C631 H608 0.950 . S
C631 C630 1.334 . S
C631 C632 1.287 . S
C632 C631 1.287 . S
C632 C633 1.524 . S
C632 H651 0.913 . S
C633 H609 0.950 . S
C633 C632 1.524 . S
C633 C634 1.415 . S
C634 H610 0.950 . S
C634 C629 1.363 . S
C634 C633 1.415 . S
C635 H611 0.951 . S
C635 C636 1.366 . S
C635 C637 1.388 . S
C636 C635 1.366 . S
C636 C640 1.385 . S
C637 H612 0.951 . S
C637 C635 1.388 . S
C637 C638 1.366 . S
C638 C637 1.366 . S
C638 C639 1.414 . S
C638 C641 1.499 . S
C639 H613 0.950 . S
C639 C638 1.414 . S
C639 C640 1.374 . S
C640 H614 0.950 . S
C640 C636 1.385 . S
C640 C639 1.374 . S
C641 C638 1.499 . S
C641 C642 1.373 . S
C641 C643 1.389 . S
C642 H615 0.950 . S
C642 C628 1.377 . S
C642 C641 1.373 . S
C643 C627 1.377 . S
C643 C641 1.389 . S
C643 C644 1.524 . S
C644 C643 1.524 . S
C644 C645 1.397 . S
C644 C649 1.363 . S
C645 H616 0.950 . S
C645 C644 1.397 . S
C645 C646 1.334 . S
C646 H617 0.950 . S
C646 C645 1.334 . S
C646 C647 1.287 . S
C647 C646 1.287 . S
C647 C648 1.524 . S
C647 H650 0.999 . S
C648 H618 0.950 . S
C648 C647 1.524 . S
C648 C649 1.415 . S
C649 H619 0.950 . S
C649 C644 1.363 . S
C649 C648 1.415 . S
H650 C647 0.999 . S
H651 C632 0.913 . S
H652 C670 0.951 . S
H653 C672 0.951 . S
H654 C674 0.950 . S
H655 C675 0.950 . S
H656 C677 0.950 . S
H657 C680 0.950 . S
H658 C681 0.950 . S
H659 C683 0.950 . S
H660 C684 0.950 . S
H661 C685 0.951 . S
H662 C687 0.951 . S
H663 C689 0.950 . S
H664 C690 0.950 . S
H665 C692 0.950 . S
H666 C695 0.950 . S
H667 C696 0.950 . S
H668 C698 0.950 . S
H669 C699 0.950 . S
C670 H652 0.951 . S
C670 C671 1.366 . S
C670 C672 1.388 . S
C671 C670 1.366 . S
C671 C675 1.385 . S
C672 H653 0.951 . S
C672 C670 1.388 . S
C672 C673 1.366 . S
C673 C672 1.366 . S
C673 C674 1.414 . S
C673 C676 1.499 . S
C674 H654 0.950 . S
C674 C673 1.414 . S
C674 C675 1.374 . S
C675 H655 0.950 . S
C675 C671 1.385 . S
C675 C674 1.374 . S
C676 C673 1.499 . S
C676 C677 1.373 . S
C676 C678 1.389 . S
C677 H656 0.950 . S
C677 C676 1.373 . S
C677 C693 1.377 . S
C678 C676 1.389 . S
C678 C679 1.524 . S
C678 C692 1.377 . S
C679 C678 1.524 . S
C679 C680 1.397 . S
C679 C684 1.363 . S
C680 H657 0.950 . S
C680 C679 1.397 . S
C680 C681 1.334 . S
C681 H658 0.950 . S
C681 C680 1.334 . S
C681 C682 1.287 . S
C682 C681 1.287 . S
C682 C683 1.524 . S
C682 H701 0.913 . S
C683 H659 0.950 . S
C683 C682 1.524 . S
C683 C684 1.415 . S
C684 H660 0.950 . S
C684 C679 1.363 . S
C684 C683 1.415 . S
C685 H661 0.951 . S
C685 C686 1.366 . S
C685 C687 1.388 . S
C686 C685 1.366 . S
C686 C690 1.385 . S
C687 H662 0.951 . S
C687 C685 1.388 . S
C687 C688 1.366 . S
C688 C687 1.366 . S
C688 C689 1.414 . S
C688 C691 1.499 . S
C689 H663 0.950 . S
C689 C688 1.414 . S
C689 C690 1.374 . S
C690 H664 0.950 . S
C690 C686 1.385 . S
C690 C689 1.374 . S
C691 C688 1.499 . S
C691 C692 1.373 . S
C691 C693 1.389 . S
C692 H665 0.950 . S
C692 C678 1.377 . S
C692 C691 1.373 . S
C693 C677 1.377 . S
C693 C691 1.389 . S
C693 C694 1.524 . S
C694 C693 1.524 . S
C694 C695 1.397 . S
C694 C699 1.363 . S
C695 H666 0.950 . S
C695 C694 1.397 . S
C695 C696 1.334 . S
C696 H667 0.950 . S
C696 C695 1.334 . S
C696 C697 1.287 . S
C697 C696 1.287 . S
C697 C698 1.524 . S
C697 H700 0.999 . S
C698 H668 0.950 . S
C698 C697 1.524 . S
C698 C699 1.415 . S
C699 H669 0.950 . S
C699 C694 1.363 . S
C699 C698 1.415 . S
H700 C697 0.999 . S
H701 C682 0.913 . S
H702 C720 0.951 . S
H703 C722 0.951 . S
H704 C724 0.950 . S
H705 C725 0.950 . S
H706 C727 0.950 . S
H707 C730 0.950 . S
H708 C731 0.950 . S
H709 C733 0.950 . S
H710 C734 0.950 . S
H711 C735 0.951 . S
H712 C737 0.951 . S
H713 C739 0.950 . S
H714 C740 0.950 . S
H715 C742 0.950 . S
H716 C745 0.950 . S
H717 C746 0.950 . S
H718 C748 0.950 . S
H719 C749 0.950 . S
C720 H702 0.951 . S
C720 C721 1.366 . S
C720 C722 1.388 . S
C721 C720 1.366 . S
C721 C725 1.385 . S
C722 H703 0.951 . S
C722 C720 1.388 . S
C722 C723 1.366 . S
C723 C722 1.366 . S
C723 C724 1.414 . S
C723 C726 1.499 . S
C724 H704 0.950 . S
C724 C723 1.414 . S
C724 C725 1.374 . S
C725 H705 0.950 . S
C725 C721 1.385 . S
C725 C724 1.374 . S
C726 C723 1.499 . S
C726 C727 1.373 . S
C726 C728 1.389 . S
C727 H706 0.950 . S
C727 C726 1.373 . S
C727 C743 1.377 . S
C728 C726 1.389 . S
C728 C729 1.524 . S
C728 C742 1.377 . S
C729 C728 1.524 . S
C729 C730 1.397 . S
C729 C734 1.363 . S
C730 H707 0.950 . S
C730 C729 1.397 . S
C730 C731 1.334 . S
C731 H708 0.950 . S
C731 C730 1.334 . S
C731 C732 1.287 . S
C732 C731 1.287 . S
C732 C733 1.524 . S
C732 H751 0.913 . S
C733 H709 0.950 . S
C733 C732 1.524 . S
C733 C734 1.415 . S
C734 H710 0.950 . S
C734 C729 1.363 . S
C734 C733 1.415 . S
C735 H711 0.951 . S
C735 C736 1.366 . S
C735 C737 1.388 . S
C736 C735 1.366 . S
C736 C740 1.385 . S
C737 H712 0.951 . S
C737 C735 1.388 . S
C737 C738 1.366 . S
C738 C737 1.366 . S
C738 C739 1.414 . S
C738 C741 1.499 . S
C739 H713 0.950 . S
C739 C738 1.414 . S
C739 C740 1.374 . S
C740 H714 0.950 . S
C740 C736 1.385 . S
C740 C739 1.374 . S
C741 C738 1.499 . S
C741 C742 1.373 . S
C741 C743 1.389 . S
C742 H715 0.950 . S
C742 C728 1.377 . S
C742 C741 1.373 . S
C743 C727 1.377 . S
C743 C741 1.389 . S
C743 C744 1.524 . S
C744 C743 1.524 . S
C744 C745 1.397 . S
C744 C749 1.363 . S
C745 H716 0.950 . S
C745 C744 1.397 . S
C745 C746 1.334 . S
C746 H717 0.950 . S
C746 C745 1.334 . S
C746 C747 1.287 . S
C747 C746 1.287 . S
C747 C748 1.524 . S
C747 H750 0.999 . S
C748 H718 0.950 . S
C748 C747 1.524 . S
C748 C749 1.415 . S
C749 H719 0.950 . S
C749 C744 1.363 . S
C749 C748 1.415 . S
H750 C747 0.999 . S
H751 C732 0.913 . S
H752 C770 0.951 . S
H753 C772 0.951 . S
H754 C774 0.950 . S
H755 C775 0.950 . S
H756 C777 0.950 . S
H757 C780 0.950 . S
H758 C781 0.950 . S
H759 C783 0.950 . S
H760 C784 0.950 . S
H761 C785 0.951 . S
H762 C787 0.951 . S
H763 C789 0.950 . S
H764 C790 0.950 . S
H765 C792 0.950 . S
H766 C795 0.950 . S
H767 C796 0.950 . S
H768 C798 0.950 . S
H769 C799 0.950 . S
C770 H752 0.951 . S
C770 C771 1.366 . S
C770 C772 1.388 . S
C771 C770 1.366 . S
C771 C775 1.385 . S
C772 H753 0.951 . S
C772 C770 1.388 . S
C772 C773 1.366 . S
C773 C772 1.366 . S
C773 C774 1.414 . S
C773 C776 1.499 . S
C774 H754 0.950 . S
C774 C773 1.414 . S
C774 C775 1.374 . S
C775 H755 0.950 . S
C775 C771 1.385 . S
C775 C774 1.374 . S
C776 C773 1.499 . S
C776 C777 1.373 . S
C776 C778 1.389 . S
C777 H756 0.950 . S
C777 C776 1.373 . S
C777 C793 1.377 . S
C778 C776 1.389 . S
C778 C779 1.524 . S
C778 C792 1.377 . S
C779 C778 1.524 . S
C779 C780 1.397 . S
C779 C784 1.363 . S
C780 H757 0.950 . S
C780 C779 1.397 . S
C780 C781 1.334 . S
C781 H758 0.950 . S
C781 C780 1.334 . S
C781 C782 1.287 . S
C782 C781 1.287 . S
C782 C783 1.524 . S
C782 H801 0.913 . S
C783 H759 0.950 . S
C783 C782 1.524 . S
C783 C784 1.415 . S
C784 H760 0.950 . S
C784 C779 1.363 . S
C784 C783 1.415 . S
C785 H761 0.951 . S
C785 C786 1.366 . S
C785 C787 1.388 . S
C786 C785 1.366 . S
C786 C790 1.385 . S
C787 H762 0.951 . S
C787 C785 1.388 . S
C787 C788 1.366 . S
C788 C787 1.366 . S
C788 C789 1.414 . S
C788 C791 1.499 . S
C789 H763 0.950 . S
C789 C788 1.414 . S
C789 C790 1.374 . S
C790 H764 0.950 . S
C790 C786 1.385 . S
C790 C789 1.374 . S
C791 C788 1.499 . S
C791 C792 1.373 . S
C791 C793 1.389 . S
C792 H765 0.950 . S
C792 C778 1.377 . S
C792 C791 1.373 . S
C793 C777 1.377 . S
C793 C791 1.389 . S
C793 C794 1.524 . S
C794 C793 1.524 . S
C794 C795 1.397 . S
C794 C799 1.363 . S
C795 H766 0.950 . S
C795 C794 1.397 . S
C795 C796 1.334 . S
C796 H767 0.950 . S
C796 C795 1.334 . S
C796 C797 1.287 . S
C797 C796 1.287 . S
C797 C798 1.524 . S
C797 H800 0.999 . S
C798 H768 0.950 . S
C798 C797 1.524 . S
C798 C799 1.415 . S
C799 H769 0.950 . S
C799 C794 1.363 . S
C799 C798 1.415 . S
H800 C797 0.999 . S
H801 C782 0.913 . S
H802 C820 0.951 . S
H803 C822 0.951 . S
H804 C824 0.950 . S
H805 C825 0.950 . S
H806 C827 0.950 . S
H807 C830 0.950 . S
H808 C831 0.950 . S
H809 C833 0.950 . S
H810 C834 0.950 . S
H811 C835 0.951 . S
H812 C837 0.951 . S
H813 C839 0.950 . S
H814 C840 0.950 . S
H815 C842 0.950 . S
H816 C845 0.950 . S
H817 C846 0.950 . S
H818 C848 0.950 . S
H819 C849 0.950 . S
C820 H802 0.951 . S
C820 C821 1.366 . S
C820 C822 1.388 . S
C821 C820 1.366 . S
C821 C825 1.385 . S
C822 H803 0.951 . S
C822 C820 1.388 . S
C822 C823 1.366 . S
C823 C822 1.366 . S
C823 C824 1.414 . S
C823 C826 1.499 . S
C824 H804 0.950 . S
C824 C823 1.414 . S
C824 C825 1.374 . S
C825 H805 0.950 . S
C825 C821 1.385 . S
C825 C824 1.374 . S
C826 C823 1.499 . S
C826 C827 1.373 . S
C826 C828 1.389 . S
C827 H806 0.950 . S
C827 C826 1.373 . S
C827 C843 1.377 . S
C828 C826 1.389 . S
C828 C829 1.524 . S
C828 C842 1.377 . S
C829 C828 1.524 . S
C829 C830 1.397 . S
C829 C834 1.363 . S
C830 H807 0.950 . S
C830 C829 1.397 . S
C830 C831 1.334 . S
C831 H808 0.950 . S
C831 C830 1.334 . S
C831 C832 1.287 . S
C832 C831 1.287 . S
C832 C833 1.524 . S
C832 H851 0.913 . S
C833 H809 0.950 . S
C833 C832 1.524 . S
C833 C834 1.415 . S
C834 H810 0.950 . S
C834 C829 1.363 . S
C834 C833 1.415 . S
C835 H811 0.951 . S
C835 C836 1.366 . S
C835 C837 1.388 . S
C836 C835 1.366 . S
C836 C840 1.385 . S
C837 H812 0.951 . S
C837 C835 1.388 . S
C837 C838 1.366 . S
C838 C837 1.366 . S
C838 C839 1.414 . S
C838 C841 1.499 . S
C839 H813 0.950 . S
C839 C838 1.414 . S
C839 C840 1.374 . S
C840 H814 0.950 . S
C840 C836 1.385 . S
C840 C839 1.374 . S
C841 C838 1.499 . S
C841 C842 1.373 . S
C841 C843 1.389 . S
C842 H815 0.950 . S
C842 C828 1.377 . S
C842 C841 1.373 . S
C843 C827 1.377 . S
C843 C841 1.389 . S
C843 C844 1.524 . S
C844 C843 1.524 . S
C844 C845 1.397 . S
C844 C849 1.363 . S
C845 H816 0.950 . S
C845 C844 1.397 . S
C845 C846 1.334 . S
C846 H817 0.950 . S
C846 C845 1.334 . S
C846 C847 1.287 . S
C847 C846 1.287 . S
C847 C848 1.524 . S
C847 H850 0.999 . S
C848 H818 0.950 . S
C848 C847 1.524 . S
C848 C849 1.415 . S
C849 H819 0.950 . S
C849 C844 1.363 . S
C849 C848 1.415 . S
H850 C847 0.999 . S
H851 C832 0.913 . S
H852 C870 0.951 . S
H853 C872 0.951 . S
H854 C874 0.950 . S
H855 C875 0.950 . S
H856 C877 0.950 . S
H857 C880 0.950 . S
H858 C881 0.950 . S
H859 C883 0.950 . S
H860 C884 0.950 . S
H861 C885 0.951 . S
H862 C887 0.951 . S
H863 C889 0.950 . S
H864 C890 0.950 . S
H865 C892 0.950 . S
H866 C895 0.950 . S
H867 C896 0.950 . S
H868 C898 0.950 . S
H869 C899 0.950 . S
C870 H852 0.951 . S
C870 C871 1.366 . S
C870 C872 1.388 . S
C871 C870 1.366 . S
C871 C875 1.385 . S
C872 H853 0.951 . S
C872 C870 1.388 . S
C872 C873 1.366 . S
C873 C872 1.366 . S
C873 C874 1.414 . S
C873 C876 1.499 . S
C874 H854 0.950 . S
C874 C873 1.414 . S
C874 C875 1.374 . S
C875 H855 0.950 . S
C875 C871 1.385 . S
C875 C874 1.374 . S
C876 C873 1.499 . S
C876 C877 1.373 . S
C876 C878 1.389 . S
C877 H856 0.950 . S
C877 C876 1.373 . S
C877 C893 1.377 . S
C878 C876 1.389 . S
C878 C879 1.524 . S
C878 C892 1.377 . S
C879 C878 1.524 . S
C879 C880 1.397 . S
C879 C884 1.363 . S
C880 H857 0.950 . S
C880 C879 1.397 . S
C880 C881 1.334 . S
C881 H858 0.950 . S
C881 C880 1.334 . S
C881 C882 1.287 . S
C882 C881 1.287 . S
C882 C883 1.524 . S
C882 H901 0.913 . S
C883 H859 0.950 . S
C883 C882 1.524 . S
C883 C884 1.415 . S
C884 H860 0.950 . S
C884 C879 1.363 . S
C884 C883 1.415 . S
C885 H861 0.951 . S
C885 C886 1.366 . S
C885 C887 1.388 . S
C886 C885 1.366 . S
C886 C890 1.385 . S
C887 H862 0.951 . S
C887 C885 1.388 . S
C887 C888 1.366 . S
C888 C887 1.366 . S
C888 C889 1.414 . S
C888 C891 1.499 . S
C889 H863 0.950 . S
C889 C888 1.414 . S
C889 C890 1.374 . S
C890 H864 0.950 . S
C890 C886 1.385 . S
C890 C889 1.374 . S
C891 C888 1.499 . S
C891 C892 1.373 . S
C891 C893 1.389 . S
C892 H865 0.950 . S
C892 C878 1.377 . S
C892 C891 1.373 . S
C893 C877 1.377 . S
C893 C891 1.389 . S
C893 C894 1.524 . S
C894 C893 1.524 . S
C894 C895 1.397 . S
C894 C899 1.363 . S
C895 H866 0.950 . S
C895 C894 1.397 . S
C895 C896 1.334 . S
C896 H867 0.950 . S
C896 C895 1.334 . S
C896 C897 1.287 . S
C897 C896 1.287 . S
C897 C898 1.524 . S
C897 H900 0.999 . S
C898 H868 0.950 . S
C898 C897 1.524 . S
C898 C899 1.415 . S
C899 H869 0.950 . S
C899 C894 1.363 . S
C899 C898 1.415 . S
H900 C897 0.999 . S
H901 C882 0.913 . S
H902 C920 0.951 . S
H903 C922 0.951 . S
H904 C924 0.950 . S
H905 C925 0.950 . S
H906 C927 0.950 . S
H907 C930 0.950 . S
H908 C931 0.950 . S
H909 C933 0.950 . S
H910 C934 0.950 . S
H911 C935 0.951 . S
H912 C937 0.951 . S
H913 C939 0.950 . S
H914 C940 0.950 . S
H915 C942 0.950 . S
H916 C945 0.950 . S
H917 C946 0.950 . S
H918 C948 0.950 . S
H919 C949 0.950 . S
C920 H902 0.951 . S
C920 C921 1.366 . S
C920 C922 1.388 . S
C921 C920 1.366 . S
C921 C925 1.385 . S
C922 H903 0.951 . S
C922 C920 1.388 . S
C922 C923 1.366 . S
C923 C922 1.366 . S
C923 C924 1.414 . S
C923 C926 1.499 . S
C924 H904 0.950 . S
C924 C923 1.414 . S
C924 C925 1.374 . S
C925 H905 0.950 . S
C925 C921 1.385 . S
C925 C924 1.374 . S
C926 C923 1.499 . S
C926 C927 1.373 . S
C926 C928 1.389 . S
C927 H906 0.950 . S
C927 C926 1.373 . S
C927 C943 1.377 . S
C928 C926 1.389 . S
C928 C929 1.524 . S
C928 C942 1.377 . S
C929 C928 1.524 . S
C929 C930 1.397 . S
C929 C934 1.363 . S
C930 H907 0.950 . S
C930 C929 1.397 . S
C930 C931 1.334 . S
C931 H908 0.950 . S
C931 C930 1.334 . S
C931 C932 1.287 . S
C932 C931 1.287 . S
C932 C933 1.524 . S
C932 H951 0.913 . S
C933 H909 0.950 . S
C933 C932 1.524 . S
C933 C934 1.415 . S
C934 H910 0.950 . S
C934 C929 1.363 . S
C934 C933 1.415 . S
C935 H911 0.951 . S
C935 C936 1.366 . S
C935 C937 1.388 . S
C936 C935 1.366 . S
C936 C940 1.385 . S
C937 H912 0.951 . S
C937 C935 1.388 . S
C937 C938 1.366 . S
C938 C937 1.366 . S
C938 C939 1.414 . S
C938 C941 1.499 . S
C939 H913 0.950 . S
C939 C938 1.414 . S
C939 C940 1.374 . S
C940 H914 0.950 . S
C940 C936 1.385 . S
C940 C939 1.374 . S
C941 C938 1.499 . S
C941 C942 1.373 . S
C941 C943 1.389 . S
C942 H915 0.950 . S
C942 C928 1.377 . S
C942 C941 1.373 . S
C943 C927 1.377 . S
C943 C941 1.389 . S
C943 C944 1.524 . S
C944 C943 1.524 . S
C944 C945 1.397 . S
C944 C949 1.363 . S
C945 H916 0.950 . S
C945 C944 1.397 . S
C945 C946 1.334 . S
C946 H917 0.950 . S
C946 C945 1.334 . S
C946 C947 1.287 . S
C947 C946 1.287 . S
C947 C948 1.524 . S
C947 H950 0.999 . S
C948 H918 0.950 . S
C948 C947 1.524 . S
C948 C949 1.415 . S
C949 H919 0.950 . S
C949 C944 1.363 . S
C949 C948 1.415 . S
H950 C947 0.999 . S
H951 C932 0.913 . S
H952 C970 0.951 . S
H953 C972 0.951 . S
H954 C974 0.950 . S
H955 C975 0.950 . S
H956 C977 0.950 . S
H957 C980 0.950 . S
H958 C981 0.950 . S
H959 C983 0.950 . S
H960 C984 0.950 . S
H961 C985 0.951 . S
H962 C987 0.951 . S
H963 C989 0.950 . S
H964 C990 0.950 . S
H965 C992 0.950 . S
H966 C995 0.950 . S
H967 C996 0.950 . S
H968 C998 0.950 . S
H969 C999 0.950 . S
C970 H952 0.951 . S
C970 C971 1.366 . S
C970 C972 1.388 . S
C971 C970 1.366 . S
C971 C975 1.385 . S
C972 H953 0.951 . S
C972 C970 1.388 . S
C972 C973 1.366 . S
C973 C972 1.366 . S
C973 C974 1.414 . S
C973 C976 1.499 . S
C974 H954 0.950 . S
C974 C973 1.414 . S
C974 C975 1.374 . S
C975 H955 0.950 . S
C975 C971 1.385 . S
C975 C974 1.374 . S
C976 C973 1.499 . S
C976 C977 1.373 . S
C976 C978 1.389 . S
C977 H956 0.950 . S
C977 C976 1.373 . S
C977 C993 1.377 . S
C978 C976 1.389 . S
C978 C979 1.524 . S
C978 C992 1.377 . S
C979 C978 1.524 . S
C979 C980 1.397 . S
C979 C984 1.363 . S
C980 H957 0.950 . S
C980 C979 1.397 . S
C980 C981 1.334 . S
C981 H958 0.950 . S
C981 C980 1.334 . S
C981 C982 1.287 . S
C982 C981 1.287 . S
C982 C983 1.524 . S
C982 H1001 0.913 . S
C983 H959 0.950 . S
C983 C982 1.524 . S
C983 C984 1.415 . S
C984 H960 0.950 . S
C984 C979 1.363 . S
C984 C983 1.415 . S
C985 H961 0.951 . S
C985 C986 1.366 . S
C985 C987 1.388 . S
C986 C985 1.366 . S
C986 C990 1.385 . S
C987 H962 0.951 . S
C987 C985 1.388 . S
C987 C988 1.366 . S
C988 C987 1.366 . S
C988 C989 1.414 . S
C988 C991 1.499 . S
C989 H963 0.950 . S
C989 C988 1.414 . S
C989 C990 1.374 . S
C990 H964 0.950 . S
C990 C986 1.385 . S
C990 C989 1.374 . S
C991 C988 1.499 . S
C991 C992 1.373 . S
C991 C993 1.389 . S
C992 H965 0.950 . S
C992 C978 1.377 . S
C992 C991 1.373 . S
C993 C977 1.377 . S
C993 C991 1.389 . S
C993 C994 1.524 . S
C994 C993 1.524 . S
C994 C995 1.397 . S
C994 C999 1.363 . S
C995 H966 0.950 . S
C995 C994 1.397 . S
C995 C996 1.334 . S
C996 H967 0.950 . S
C996 C995 1.334 . S
C996 C997 1.287 . S
C997 C996 1.287 . S
C997 C998 1.524 . S
C997 H1000 0.999 . S
C998 H968 0.950 . S
C998 C997 1.524 . S
C998 C999 1.415 . S
C999 H969 0.950 . S
C999 C994 1.363 . S
C999 C998 1.415 . S
H1000 C997 0.999 . S
H1001 C982 0.913 . S
H1002 C1020 0.951 . S
H1003 C1022 0.951 . S
H1004 C1024 0.950 . S
H1005 C1025 0.950 . S
H1006 C1027 0.950 . S
H1007 C1030 0.950 . S
H1008 C1031 0.950 . S
H1009 C1033 0.950 . S
H1010 C1034 0.950 . S
H1011 C1035 0.951 . S
H1012 C1037 0.951 . S
H1013 C1039 0.950 . S
H1014 C1040 0.950 . S
H1015 C1042 0.950 . S
H1016 C1045 0.950 . S
H1017 C1046 0.950 . S
H1018 C1048 0.950 . S
H1019 C1049 0.950 . S
C1020 H1002 0.951 . S
C1020 C1021 1.366 . S
C1020 C1022 1.388 . S
C1021 C1020 1.366 . S
C1021 C1025 1.385 1_455 S
C1022 H1003 0.951 . S
C1022 C1020 1.388 . S
C1022 C1023 1.366 . S
C1023 C1022 1.366 . S
C1023 C1024 1.414 1_455 S
C1023 C1026 1.510 . S
C1024 H1004 0.950 . S
C1024 C1023 1.414 1_655 S
C1024 C1025 1.374 . S
C1025 H1005 0.950 . S
C1025 C1021 1.385 1_655 S
C1025 C1024 1.374 . S
C1026 C1023 1.510 . S
C1026 C1027 1.356 1_455 S
C1026 C1028 1.397 . S
C1027 H1006 0.950 . S
C1027 C1026 1.356 1_655 S
C1027 C1043 1.377 . S
C1028 C1026 1.397 . S
C1028 C1029 1.524 . S
C1028 C1042 1.377 . S
C1029 C1028 1.524 . S
C1029 C1030 1.397 1_455 S
C1029 C1034 1.363 . S
C1030 H1007 0.950 . S
C1030 C1029 1.397 1_655 S
C1030 C1031 1.334 . S
C1031 H1008 0.950 . S
C1031 C1030 1.334 . S
C1031 C1032 1.287 1_655 S
C1032 C1031 1.287 1_455 S
C1032 C1033 1.524 . S
C1032 H1051 0.913 . S
C1033 H1009 0.950 . S
C1033 C1032 1.524 . S
C1033 C1034 1.415 . S
C1034 H1010 0.950 . S
C1034 C1029 1.363 . S
C1034 C1033 1.415 . S
C1035 H1011 0.951 . S
C1035 C1036 1.366 . S
C1035 C1037 1.388 . S
C1036 C1035 1.366 . S
C1036 C1040 1.385 1_655 S
C1037 H1012 0.951 . S
C1037 C1035 1.388 . S
C1037 C1038 1.366 . S
C1038 C1037 1.366 . S
C1038 C1039 1.414 1_655 S
C1038 C1041 1.506 . S
C1039 H1013 0.950 . S
C1039 C1038 1.414 1_455 S
C1039 C1040 1.374 . S
C1040 H1014 0.950 . S
C1040 C1036 1.385 1_455 S
C1040 C1039 1.374 . S
C1041 C1038 1.506 . S
C1041 C1042 1.362 1_655 S
C1041 C1043 1.395 . S
C1042 H1015 0.950 . S
C1042 C1028 1.377 . S
C1042 C1041 1.362 1_455 S
C1043 C1027 1.377 . S
C1043 C1041 1.395 . S
C1043 C1044 1.524 . S
C1044 C1043 1.524 . S
C1044 C1045 1.397 1_655 S
C1044 C1049 1.363 . S
C1045 H1016 0.950 . S
C1045 C1044 1.397 1_455 S
C1045 C1046 1.334 . S
C1046 H1017 0.950 . S
C1046 C1045 1.334 . S
C1046 C1047 1.287 1_455 S
C1047 C1046 1.287 1_655 S
C1047 C1048 1.524 . S
C1047 H1050 0.999 . S
C1048 H1018 0.950 . S
C1048 C1047 1.524 . S
C1048 C1049 1.415 . S
C1049 H1019 0.950 . S
C1049 C1044 1.363 . S
C1049 C1048 1.415 . S
H1050 C1047 0.999 . S
H1051 C1032 0.913 . S
H1052 C1070 0.951 . S
H1053 C1072 0.951 . S
H1054 C1074 0.950 . S
H1055 C1075 0.950 . S
H1056 C1077 0.950 . S
H1057 C1080 0.950 . S
H1058 C1081 0.950 . S
H1059 C1083 0.950 . S
H1060 C1084 0.950 . S
H1061 C1085 0.951 . S
H1062 C1087 0.951 . S
H1063 C1089 0.950 . S
H1064 C1090 0.950 . S
H1065 C1092 0.950 . S
H1066 C1095 0.950 . S
H1067 C1096 0.950 . S
H1068 C1098 0.950 . S
H1069 C1099 0.950 . S
C1070 H1052 0.951 . S
C1070 C1071 1.366 . S
C1070 C1072 1.388 . S
C1071 C1070 1.366 . S
C1071 C1075 1.385 . S
C1072 H1053 0.951 . S
C1072 C1070 1.388 . S
C1072 C1073 1.366 . S
C1073 C1072 1.366 . S
C1073 C1074 1.414 . S
C1073 C1076 1.499 . S
C1074 H1054 0.950 . S
C1074 C1073 1.414 . S
C1074 C1075 1.374 . S
C1075 H1055 0.950 . S
C1075 C1071 1.385 . S
C1075 C1074 1.374 . S
C1076 C1073 1.499 . S
C1076 C1077 1.373 . S
C1076 C1078 1.389 . S
C1077 H1056 0.950 . S
C1077 C1076 1.373 . S
C1077 C1093 1.377 . S
C1078 C1076 1.389 . S
C1078 C1079 1.524 . S
C1078 C1092 1.377 . S
C1079 C1078 1.524 . S
C1079 C1080 1.397 . S
C1079 C1084 1.363 . S
C1080 H1057 0.950 . S
C1080 C1079 1.397 . S
C1080 C1081 1.334 . S
C1081 H1058 0.950 . S
C1081 C1080 1.334 . S
C1081 C1082 1.287 . S
C1082 C1081 1.287 . S
C1082 C1083 1.524 . S
C1082 H1101 0.913 . S
C1083 H1059 0.950 . S
C1083 C1082 1.524 . S
C1083 C1084 1.415 . S
C1084 H1060 0.950 . S
C1084 C1079 1.363 . S
C1084 C1083 1.415 . S
C1085 H1061 0.951 . S
C1085 C1086 1.366 . S
C1085 C1087 1.388 . S
C1086 C1085 1.366 . S
C1086 C1090 1.385 . S
C1087 H1062 0.951 . S
C1087 C1085 1.388 . S
C1087 C1088 1.366 . S
C1088 C1087 1.366 . S
C1088 C1089 1.414 . S
C1088 C1091 1.499 . S
C1089 H1063 0.950 . S
C1089 C1088 1.414 . S
C1089 C1090 1.374 . S
C1090 H1064 0.950 . S
C1090 C1086 1.385 . S
C1090 C1089 1.374 . S
C1091 C1088 1.499 . S
C1091 C1092 1.373 . S
C1091 C1093 1.389 . S
C1092 H1065 0.950 . S
C1092 C1078 1.377 . S
C1092 C1091 1.373 . S
C1093 C1077 1.377 . S
C1093 C1091 1.389 . S
C1093 C1094 1.524 . S
C1094 C1093 1.524 . S
C1094 C1095 1.397 . S
C1094 C1099 1.363 . S
C1095 H1066 0.950 . S
C1095 C1094 1.397 . S
C1095 C1096 1.334 . S
C1096 H1067 0.950 . S
C1096 C1095 1.334 . S
C1096 C1097 1.287 . S
C1097 C1096 1.287 . S
C1097 C1098 1.524 . S
C1097 H1100 0.999 . S
C1098 H1068 0.950 . S
C1098 C1097 1.524 . S
C1098 C1099 1.415 . S
C1099 H1069 0.950 . S
C1099 C1094 1.363 . S
C1099 C1098 1.415 . S
H1100 C1097 0.999 . S
H1101 C1082 0.913 . S
H1102 C1120 0.951 1_565 S
H1103 C1122 0.940 . S
H1104 C1124 0.950 . S
H1105 C1125 0.950 . S
H1106 C1127 0.950 . S
H1107 C1130 0.950 . S
H1108 C1131 0.950 . S
H1109 C1133 0.950 . S
H1110 C1134 0.950 . S
H1111 C1135 0.951 1_545 S
H1112 C1137 0.951 . S
H1113 C1139 0.950 . S
H1114 C1140 0.950 . S
H1115 C1142 0.950 . S
H1116 C1145 0.950 . S
H1117 C1146 0.950 . S
H1118 C1148 0.950 . S
H1119 C1149 0.950 . S
C1120 H1102 0.951 1_545 S
C1120 C1121 1.366 . S
C1120 C1122 1.397 1_545 S
C1121 C1120 1.366 . S
C1121 C1125 1.385 . S
C1122 H1103 0.940 . S
C1122 C1120 1.397 1_565 S
C1122 C1123 1.369 1_565 S
C1123 C1122 1.369 1_545 S
C1123 C1124 1.414 . S
C1123 C1126 1.499 . S
C1124 H1104 0.950 . S
C1124 C1123 1.414 . S
C1124 C1125 1.374 . S
C1125 H1105 0.950 . S
C1125 C1121 1.385 . S
C1125 C1124 1.374 . S
C1126 C1123 1.499 . S
C1126 C1127 1.373 . S
C1126 C1128 1.389 1_545 S
C1127 H1106 0.950 . S
C1127 C1126 1.373 . S
C1127 C1143 1.377 . S
C1128 C1126 1.389 1_565 S
C1128 C1129 1.524 . S
C1128 C1142 1.377 . S
C1129 C1128 1.524 . S
C1129 C1130 1.397 . S
C1129 C1134 1.363 . S
C1130 H1107 0.950 . S
C1130 C1129 1.397 . S
C1130 C1131 1.334 . S
C1131 H1108 0.950 . S
C1131 C1130 1.334 . S
C1131 C1132 1.287 . S
C1132 C1131 1.287 . S
C1132 C1133 1.524 . S
C1132 H1151 0.913 . S
C1133 H1109 0.950 . S
C1133 C1132 1.524 . S
C1133 C1134 1.415 . S
C1134 H1110 0.950 . S
C1134 C1129 1.363 . S
C1134 C1133 1.415 . S
C1135 H1111 0.951 1_565 S
C1135 C1136 1.366 . S
C1135 C1137 1.388 1_565 S
C1136 C1135 1.366 . S
C1136 C1140 1.385 . S
C1137 H1112 0.951 . S
C1137 C1135 1.388 1_545 S
C1137 C1138 1.366 1_545 S
C1138 C1137 1.366 1_565 S
C1138 C1139 1.414 . S
C1138 C1141 1.491 . S
C1139 H1113 0.950 . S
C1139 C1138 1.414 . S
C1139 C1140 1.374 . S
C1140 H1114 0.950 . S
C1140 C1136 1.385 . S
C1140 C1139 1.374 . S
C1141 C1138 1.491 . S
C1141 C1142 1.398 . S
C1141 C1143 1.376 1_565 S
C1142 H1115 0.950 . S
C1142 C1128 1.377 . S
C1142 C1141 1.398 . S
C1143 C1127 1.377 . S
C1143 C1141 1.376 1_545 S
C1143 C1144 1.524 . S
C1144 C1143 1.524 . S
C1144 C1145 1.397 . S
C1144 C1149 1.363 . S
C1145 H1116 0.950 . S
C1145 C1144 1.397 . S
C1145 C1146 1.334 . S
C1146 H1117 0.950 . S
C1146 C1145 1.334 . S
C1146 C1147 1.287 . S
C1147 C1146 1.287 . S
C1147 C1148 1.524 . S
C1147 H1150 0.999 . S
C1148 H1118 0.950 . S
C1148 C1147 1.524 . S
C1148 C1149 1.415 . S
C1149 H1119 0.950 . S
C1149 C1144 1.363 . S
C1149 C1148 1.415 . S
H1150 C1147 0.999 . S
H1151 C1132 0.913 . S
H1152 C1170 0.951 . S
H1153 C1172 0.951 . S
H1154 C1174 0.950 . S
H1155 C1175 0.950 . S
H1156 C1177 0.950 . S
H1157 C1180 0.950 . S
H1158 C1181 0.950 . S
H1159 C1183 0.950 . S
H1160 C1184 0.950 . S
H1161 C1185 0.951 . S
H1162 C1187 0.951 . S
H1163 C1189 0.950 . S
H1164 C1190 0.950 . S
H1165 C1192 0.950 . S
H1166 C1195 0.950 . S
H1167 C1196 0.950 . S
H1168 C1198 0.950 . S
H1169 C1199 0.950 . S
C1170 H1152 0.951 . S
C1170 C1171 1.366 . S
C1170 C1172 1.388 1_545 S
C1171 C1170 1.366 . S
C1171 C1175 1.385 1_545 S
C1172 H1153 0.951 . S
C1172 C1170 1.388 1_565 S
C1172 C1173 1.366 . S
C1173 C1172 1.366 . S
C1173 C1174 1.414 . S
C1173 C1176 1.499 . S
C1174 H1154 0.950 . S
C1174 C1173 1.414 . S
C1174 C1175 1.374 . S
C1175 H1155 0.950 . S
C1175 C1171 1.385 1_565 S
C1175 C1174 1.374 . S
C1176 C1173 1.499 . S
C1176 C1177 1.373 1_554 S
C1176 C1178 1.389 . S
C1177 H1156 0.950 . S
C1177 C1176 1.373 1_556 S
C1177 C1193 1.377 . S
C1178 C1176 1.389 . S
C1178 C1179 1.524 . S
C1178 C1192 1.377 . S
C1179 C1178 1.524 . S
C1179 C1180 1.397 . S
C1179 C1184 1.363 . S
C1180 H1157 0.950 . S
C1180 C1179 1.397 . S
C1180 C1181 1.334 . S
C1181 H1158 0.950 . S
C1181 C1180 1.334 . S
C1181 C1182 1.287 . S
C1182 C1181 1.287 . S
C1182 C1183 1.524 . S
C1182 H1201 0.913 . S
C1183 H1159 0.950 . S
C1183 C1182 1.524 . S
C1183 C1184 1.415 . S
C1184 H1160 0.950 . S
C1184 C1179 1.363 . S
C1184 C1183 1.415 . S
C1185 H1161 0.951 . S
C1185 C1186 1.366 . S
C1185 C1187 1.388 . S
C1186 C1185 1.366 . S
C1186 C1190 1.385 . S
C1187 H1162 0.951 . S
C1187 C1185 1.388 . S
C1187 C1188 1.366 . S
C1188 C1187 1.366 . S
C1188 C1189 1.414 . S
C1188 C1191 1.499 . S
C1189 H1163 0.950 . S
C1189 C1188 1.414 . S
C1189 C1190 1.374 . S
C1190 H1164 0.950 . S
C1190 C1186 1.385 . S
C1190 C1189 1.374 . S
C1191 C1188 1.499 . S
C1191 C1192 1.373 1_556 S
C1191 C1193 1.389 . S
C1192 H1165 0.950 . S
C1192 C1178 1.377 . S
C1192 C1191 1.373 1_554 S
C1193 C1177 1.377 . S
C1193 C1191 1.389 . S
C1193 C1194 1.524 . S
C1194 C1193 1.524 . S
C1194 C1195 1.397 . S
C1194 C1199 1.363 . S
C1195 H1166 0.950 . S
C1195 C1194 1.397 . S
C1195 C1196 1.334 . S
C1196 H1167 0.950 . S
C1196 C1195 1.334 . S
C1196 C1197 1.287 . S
C1197 C1196 1.287 . S
C1197 C1198 1.524 . S
C1197 H1200 0.999 . S
C1198 H1168 0.950 . S
C1198 C1197 1.524 . S
C1198 C1199 1.415 . S
C1199 H1169 0.950 . S
C1199 C1194 1.363 . S
C1199 C1198 1.415 . S
H1200 C1197 0.999 . S
H1201 C1182 0.913 . S
H1202 C1220 0.951 . S
H1203 C1222 0.951 1_556 S
H1204 C1224 0.950 . S
H1205 C1225 0.950 . S
H1206 C1227 0.950 . S
H1207 C1230 0.950 . S
H1208 C1231 0.950 . S
H1209 C1233 0.950 . S
H1210 C1234 0.950 . S
H1211 C1235 0.951 . S
H1212 C1237 0.944 1_554 S
H1213 C1239 0.950 . S
H1214 C1240 0.950 . S
H1215 C1242 0.950 . S
H1216 C1245 0.950 . S
H1217 C1246 0.950 . S
H1218 C1248 0.950 1_554 S
H1219 C1249 0.950 . S
C1220 H1202 0.951 . S
C1220 C1221 1.366 . S
C1220 C1222 1.388 1_655 S
C1221 C1220 1.366 . S
C1221 C1225 1.385 1_655 S
C1222 H1203 0.951 1_554 S
C1222 C1220 1.388 1_455 S
C1222 C1223 1.366 . S
C1223 C1222 1.366 . S
C1223 C1224 1.414 . S
C1223 C1226 1.499 . S
C1224 H1204 0.950 . S
C1224 C1223 1.414 . S
C1224 C1225 1.374 . S
C1225 H1205 0.950 . S
C1225 C1221 1.385 1_455 S
C1225 C1224 1.374 . S
C1226 C1223 1.499 . S
C1226 C1227 1.373 . S
C1226 C1228 1.389 . S
C1227 H1206 0.950 . S
C1227 C1226 1.373 . S
C1227 C1243 1.377 1_554 S
C1228 C1226 1.389 . S
C1228 C1229 1.524 . S
C1228 C1242 1.377 1_554 S
C1229 C1228 1.524 . S
C1229 C1230 1.397 . S
C1229 C1234 1.363 1_554 S
C1230 H1207 0.950 . S
C1230 C1229 1.397 . S
C1230 C1231 1.334 . S
C1231 H1208 0.950 . S
C1231 C1230 1.334 . S
C1231 C1232 1.287 . S
C1232 C1231 1.287 . S
C1232 C1233 1.524 1_554 S
C1232 H1251 0.913 . S
C1233 H1209 0.950 . S
C1233 C1232 1.524 1_556 S
C1233 C1234 1.415 . S
C1234 H1210 0.950 . S
C1234 C1229 1.363 1_556 S
C1234 C1233 1.415 . S
C1235 H1211 0.951 . S
C1235 C1236 1.366 . S
C1235 C1237 1.388 . S
C1236 C1235 1.366 . S
C1236 C1240 1.385 . S
C1237 H1212 0.944 1_556 S
C1237 C1235 1.388 . S
C1237 C1238 1.366 . S
C1238 C1237 1.366 . S
C1238 C1239 1.414 . S
C1238 C1241 1.499 . S
C1239 H1213 0.950 . S
C1239 C1238 1.414 . S
C1239 C1240 1.374 . S
C1240 H1214 0.950 . S
C1240 C1236 1.385 . S
C1240 C1239 1.374 . S
C1241 C1238 1.499 . S
C1241 C1242 1.373 . S
C1241 C1243 1.389 . S
C1242 H1215 0.950 . S
C1242 C1228 1.377 1_556 S
C1242 C1241 1.373 . S
C1243 C1227 1.377 1_556 S
C1243 C1241 1.389 . S
C1243 C1244 1.524 . S
C1244 C1243 1.524 . S
C1244 C1245 1.397 . S
C1244 C1249 1.363 1_556 S
C1245 H1216 0.950 . S
C1245 C1244 1.397 . S
C1245 C1246 1.334 . S
C1246 H1217 0.950 . S
C1246 C1245 1.334 . S
C1246 C1247 1.287 . S
C1247 C1246 1.287 . S
C1247 C1248 1.523 . S
C1247 H1250 0.999 . S
C1248 H1218 0.950 1_556 S
C1248 C1247 1.523 . S
C1248 C1249 1.415 1_556 S
C1249 H1219 0.950 . S
C1249 C1244 1.363 1_554 S
C1249 C1248 1.415 1_554 S
H1250 C1247 0.999 . S
H1251 C1232 0.913 . S
H1252 C1270 0.951 . S
H1253 C1272 0.951 . S
H1254 C1274 0.950 . S
H1255 C1275 0.950 . S
H1256 C1277 0.950 . S
H1257 C1280 0.950 . S
H1258 C1281 0.950 . S
H1259 C1283 0.950 . S
H1260 C1284 0.950 . S
H1261 C1285 0.951 . S
H1262 C1287 0.951 . S
H1263 C1289 0.950 . S
H1264 C1290 0.950 . S
H1265 C1292 0.950 . S
H1266 C1295 0.950 . S
H1267 C1296 0.950 . S
H1268 C1298 0.950 . S
H1269 C1299 0.950 . S
C1270 H1252 0.951 . S
C1270 C1271 1.366 . S
C1270 C1272 1.388 . S
C1271 C1270 1.366 . S
C1271 C1275 1.385 . S
C1272 H1253 0.951 . S
C1272 C1270 1.388 . S
C1272 C1273 1.366 . S
C1273 C1272 1.366 . S
C1273 C1274 1.414 . S
C1273 C1276 1.499 . S
C1274 H1254 0.950 . S
C1274 C1273 1.414 . S
C1274 C1275 1.374 . S
C1275 H1255 0.950 . S
C1275 C1271 1.385 . S
C1275 C1274 1.374 . S
C1276 C1273 1.499 . S
C1276 C1277 1.373 . S
C1276 C1278 1.389 1_554 S
C1277 H1256 0.950 . S
C1277 C1276 1.373 . S
C1277 C1293 1.377 . S
C1278 C1276 1.389 1_556 S
C1278 C1279 1.524 . S
C1278 C1292 1.377 . S
C1279 C1278 1.524 . S
C1279 C1280 1.397 . S
C1279 C1284 1.363 . S
C1280 H1257 0.950 . S
C1280 C1279 1.397 . S
C1280 C1281 1.334 . S
C1281 H1258 0.950 . S
C1281 C1280 1.334 . S
C1281 C1282 1.287 . S
C1282 C1281 1.287 . S
C1282 C1283 1.524 . S
C1282 H1301 0.913 . S
C1283 H1259 0.950 . S
C1283 C1282 1.524 . S
C1283 C1284 1.415 . S
C1284 H1260 0.950 . S
C1284 C1279 1.363 . S
C1284 C1283 1.415 . S
C1285 H1261 0.951 . S
C1285 C1286 1.366 . S
C1285 C1287 1.388 . S
C1286 C1285 1.366 . S
C1286 C1290 1.385 . S
C1287 H1262 0.951 . S
C1287 C1285 1.388 . S
C1287 C1288 1.366 . S
C1288 C1287 1.366 . S
C1288 C1289 1.414 . S
C1288 C1291 1.499 . S
C1289 H1263 0.950 . S
C1289 C1288 1.414 . S
C1289 C1290 1.374 . S
C1290 H1264 0.950 . S
C1290 C1286 1.385 . S
C1290 C1289 1.374 . S
C1291 C1288 1.499 . S
C1291 C1292 1.373 . S
C1291 C1293 1.389 1_556 S
C1292 H1265 0.950 . S
C1292 C1278 1.377 . S
C1292 C1291 1.373 . S
C1293 C1277 1.377 . S
C1293 C1291 1.389 1_554 S
C1293 C1294 1.524 . S
C1294 C1293 1.524 . S
C1294 C1295 1.397 . S
C1294 C1299 1.363 . S
C1295 H1266 0.950 . S
C1295 C1294 1.397 . S
C1295 C1296 1.334 . S
C1296 H1267 0.950 . S
C1296 C1295 1.334 . S
C1296 C1297 1.287 . S
C1297 C1296 1.287 . S
C1297 C1298 1.524 . S
C1297 H1300 0.999 . S
C1298 H1268 0.950 . S
C1298 C1297 1.524 . S
C1298 C1299 1.415 . S
C1299 H1269 0.950 . S
C1299 C1294 1.363 . S
C1299 C1298 1.415 . S
H1300 C1297 0.999 . S
H1301 C1282 0.913 . S
H1302 C1320 0.951 1_565 S
H1303 C1322 0.951 . S
H1304 C1324 0.950 . S
H1305 C1325 0.950 . S
H1306 C1327 0.950 . S
H1307 C1330 0.950 . S
H1308 C1331 0.950 1_565 S
H1309 C1333 0.950 . S
H1310 C1334 0.950 . S
H1311 C1335 0.951 . S
H1312 C1337 0.951 . S
H1313 C1339 0.950 . S
H1314 C1340 0.950 . S
H1315 C1342 0.950 . S
H1316 C1345 0.950 . S
H1317 C1346 0.950 . S
H1318 C1348 0.950 . S
H1319 C1349 0.950 . S
C1320 H1302 0.951 1_545 S
C1320 C1321 1.366 1_545 S
C1320 C1322 1.388 . S
C1321 C1320 1.366 1_565 S
C1321 C1325 1.385 1_565 S
C1322 H1303 0.951 . S
C1322 C1320 1.388 . S
C1322 C1323 1.366 . S
C1323 C1322 1.366 . S
C1323 C1324 1.414 . S
C1323 C1326 1.499 . S
C1324 H1304 0.950 . S
C1324 C1323 1.414 . S
C1324 C1325 1.374 . S
C1325 H1305 0.950 . S
C1325 C1321 1.385 1_545 S
C1325 C1324 1.374 . S
C1326 C1323 1.499 . S
C1326 C1327 1.373 . S
C1326 C1328 1.389 1_556 S
C1327 H1306 0.950 . S
C1327 C1326 1.373 . S
C1327 C1343 1.377 . S
C1328 C1326 1.389 1_554 S
C1328 C1329 1.524 . S
C1328 C1342 1.377 . S
C1329 C1328 1.524 . S
C1329 C1330 1.397 . S
C1329 C1334 1.363 . S
C1330 H1307 0.950 . S
C1330 C1329 1.397 . S
C1330 C1331 1.334 . S
C1331 H1308 0.950 1_545 S
C1331 C1330 1.334 . S
C1331 C1332 1.270 1_545 S
C1332 C1331 1.270 1_565 S
C1332 C1333 1.520 1_565 S
C1332 H1351 0.939 . S
C1333 H1309 0.950 . S
C1333 C1332 1.520 1_545 S
C1333 C1334 1.415 . S
C1334 H1310 0.950 . S
C1334 C1329 1.363 . S
C1334 C1333 1.415 . S
C1335 H1311 0.951 . S
C1335 C1336 1.366 . S
C1335 C1337 1.388 . S
C1336 C1335 1.366 . S
C1336 C1340 1.385 . S
C1337 H1312 0.951 . S
C1337 C1335 1.388 . S
C1337 C1338 1.366 . S
C1338 C1337 1.366 . S
C1338 C1339 1.414 . S
C1338 C1341 1.499 . S
C1339 H1313 0.950 . S
C1339 C1338 1.414 . S
C1339 C1340 1.374 . S
C1340 H1314 0.950 . S
C1340 C1336 1.385 . S
C1340 C1339 1.374 . S
C1341 C1338 1.499 . S
C1341 C1342 1.373 . S
C1341 C1343 1.389 1_554 S
C1342 H1315 0.950 . S
C1342 C1328 1.377 . S
C1342 C1341 1.373 . S
C1343 C1327 1.377 . S
C1343 C1341 1.389 1_556 S
C1343 C1344 1.524 . S
C1344 C1343 1.524 . S
C1344 C1345 1.397 . S
C1344 C1349 1.363 . S
C1345 H1316 0.950 . S
C1345 C1344 1.397 . S
C1345 C1346 1.334 . S
C1346 H1317 0.950 . S
C1346 C1345 1.334 . S
C1346 C1347 1.287 . S
C1347 C1346 1.287 . S
C1347 C1348 1.524 . S
C1347 H1350 0.999 . S
C1348 H1318 0.950 . S
C1348 C1347 1.524 . S
C1348 C1349 1.415 . S
C1349 H1319 0.950 . S
C1349 C1344 1.363 . S
C1349 C1348 1.415 . S
H1350 C1347 0.999 . S
H1351 C1332 0.939 . S
H1352 C1370 0.951 . S
H1353 C1372 0.951 . S
H1354 C1374 0.950 . S
H1355 C1375 0.950 . S
H1356 C1377 0.950 . S
H1357 C1380 0.950 . S
H1358 C1381 0.950 . S
H1359 C1383 0.950 . S
H1360 C1384 0.950 . S
H1361 C1385 0.947 1_455 S
H1362 C1387 0.951 . S
H1363 C1389 0.950 . S
H1364 C1390 0.950 . S
H1365 C1392 0.950 . S
H1366 C1395 0.950 . S
H1367 C1396 0.950 . S
H1368 C1398 0.950 . S
H1369 C1399 0.950 . S
C1370 H1352 0.951 . S
C1370 C1371 1.366 . S
C1370 C1372 1.388 . S
C1371 C1370 1.366 . S
C1371 C1375 1.385 . S
C1372 H1353 0.951 . S
C1372 C1370 1.388 . S
C1372 C1373 1.366 . S
C1373 C1372 1.366 . S
C1373 C1374 1.414 . S
C1373 C1376 1.499 . S
C1374 H1354 0.950 . S
C1374 C1373 1.414 . S
C1374 C1375 1.374 . S
C1375 H1355 0.950 . S
C1375 C1371 1.385 . S
C1375 C1374 1.374 . S
C1376 C1373 1.499 . S
C1376 C1377 1.373 1_554 S
C1376 C1378 1.389 . S
C1377 H1356 0.950 . S
C1377 C1376 1.373 1_556 S
C1377 C1393 1.377 . S
C1378 C1376 1.389 . S
C1378 C1379 1.524 . S
C1378 C1392 1.377 . S
C1379 C1378 1.524 . S
C1379 C1380 1.397 . S
C1379 C1384 1.363 . S
C1380 H1357 0.950 . S
C1380 C1379 1.397 . S
C1380 C1381 1.334 . S
C1381 H1358 0.950 . S
C1381 C1380 1.334 . S
C1381 C1382 1.287 . S
C1382 C1381 1.287 . S
C1382 C1383 1.524 . S
C1382 H1401 0.913 . S
C1383 H1359 0.950 . S
C1383 C1382 1.524 . S
C1383 C1384 1.415 . S
C1384 H1360 0.950 . S
C1384 C1379 1.363 . S
C1384 C1383 1.415 . S
C1385 H1361 0.947 1_655 S
C1385 C1386 1.366 1_655 S
C1385 C1387 1.388 . S
C1386 C1385 1.366 1_455 S
C1386 C1390 1.385 1_455 S
C1387 H1362 0.951 . S
C1387 C1385 1.388 . S
C1387 C1388 1.366 . S
C1388 C1387 1.366 . S
C1388 C1389 1.414 . S
C1388 C1391 1.499 . S
C1389 H1363 0.950 . S
C1389 C1388 1.414 . S
C1389 C1390 1.374 . S
C1390 H1364 0.950 . S
C1390 C1386 1.385 1_655 S
C1390 C1389 1.374 . S
C1391 C1388 1.499 . S
C1391 C1392 1.373 1_556 S
C1391 C1393 1.389 . S
C1392 H1365 0.950 . S
C1392 C1378 1.377 . S
C1392 C1391 1.373 1_554 S
C1393 C1377 1.377 . S
C1393 C1391 1.389 . S
C1393 C1394 1.524 . S
C1394 C1393 1.524 . S
C1394 C1395 1.397 . S
C1394 C1399 1.363 . S
C1395 H1366 0.950 . S
C1395 C1394 1.397 . S
C1395 C1396 1.334 . S
C1396 H1367 0.950 . S
C1396 C1395 1.334 . S
C1396 C1397 1.287 . S
C1397 C1396 1.287 . S
C1397 C1398 1.524 . S
C1397 H1400 0.999 . S
C1398 H1368 0.950 . S
C1398 C1397 1.524 . S
C1398 C1399 1.415 . S
C1399 H1369 0.950 . S
C1399 C1394 1.363 . S
C1399 C1398 1.415 . S
H1400 C1397 0.999 . S
H1401 C1382 0.913 . S
H1402 C1420 0.951 . S
H1403 C1422 0.951 1_554 S
H1404 C1424 0.950 . S
H1405 C1425 0.950 . S
H1406 C1427 0.950 . S
H1407 C1430 0.957 . S
H1408 C1431 0.950 1_556 S
H1409 C1433 0.950 . S
H1410 C1434 0.950 . S
H1411 C1435 0.951 . S
H1412 C1437 0.951 1_556 S
H1413 C1439 0.950 . S
H1414 C1440 0.950 . S
H1415 C1442 0.950 . S
H1416 C1445 0.950 . S
H1417 C1446 0.950 1_554 S
H1418 C1448 0.950 . S
H1419 C1449 0.950 . S
C1420 H1402 0.951 . S
C1420 C1421 1.366 . S
C1420 C1422 1.388 . S
C1421 C1420 1.366 . S
C1421 C1425 1.385 . S
C1422 H1403 0.951 1_556 S
C1422 C1420 1.388 . S
C1422 C1423 1.366 . S
C1423 C1422 1.366 . S
C1423 C1424 1.414 . S
C1423 C1426 1.499 . S
C1424 H1404 0.950 . S
C1424 C1423 1.414 . S
C1424 C1425 1.374 . S
C1425 H1405 0.950 . S
C1425 C1421 1.385 . S
C1425 C1424 1.374 . S
C1426 C1423 1.499 . S
C1426 C1427 1.373 . S
C1426 C1428 1.389 1_556 S
C1427 H1406 0.950 . S
C1427 C1426 1.373 . S
C1427 C1443 1.377 . S
C1428 C1426 1.389 1_554 S
C1428 C1429 1.524 . S
C1428 C1442 1.377 . S
C1429 C1428 1.524 . S
C1429 C1430 1.391 1_554 S
C1429 C1434 1.363 . S
C1430 H1407 0.957 . S
C1430 C1429 1.391 1_556 S
C1430 C1431 1.332 1_556 S
C1431 H1408 0.950 1_554 S
C1431 C1430 1.332 1_554 S
C1431 C1432 1.287 . S
C1432 C1431 1.287 . S
C1432 C1433 1.524 . S
C1432 H1451 0.913 . S
C1433 H1409 0.950 . S
C1433 C1432 1.524 . S
C1433 C1434 1.415 . S
C1434 H1410 0.950 . S
C1434 C1429 1.363 . S
C1434 C1433 1.415 . S
C1435 H1411 0.951 . S
C1435 C1436 1.366 . S
C1435 C1437 1.388 . S
C1436 C1435 1.366 . S
C1436 C1440 1.385 . S
C1437 H1412 0.951 1_554 S
C1437 C1435 1.388 . S
C1437 C1438 1.366 . S
C1438 C1437 1.366 . S
C1438 C1439 1.414 . S
C1438 C1441 1.499 . S
C1439 H1413 0.950 . S
C1439 C1438 1.414 . S
C1439 C1440 1.374 . S
C1440 H1414 0.950 . S
C1440 C1436 1.385 . S
C1440 C1439 1.374 . S
C1441 C1438 1.499 . S
C1441 C1442 1.373 . S
C1441 C1443 1.389 1_554 S
C1442 H1415 0.950 . S
C1442 C1428 1.377 . S
C1442 C1441 1.373 . S
C1443 C1427 1.377 . S
C1443 C1441 1.389 1_556 S
C1443 C1444 1.524 . S
C1444 C1443 1.524 . S
C1444 C1445 1.397 1_556 S
C1444 C1449 1.363 . S
C1445 H1416 0.950 . S
C1445 C1444 1.397 1_554 S
C1445 C1446 1.334 1_554 S
C1446 H1417 0.950 1_556 S
C1446 C1445 1.334 1_556 S
C1446 C1447 1.287 . S
C1447 C1446 1.287 . S
C1447 C1448 1.524 . S
C1447 H1450 0.999 . S
C1448 H1418 0.950 . S
C1448 C1447 1.524 . S
C1448 C1449 1.415 . S
C1449 H1419 0.950 . S
C1449 C1444 1.363 . S
C1449 C1448 1.415 . S
H1450 C1447 0.999 . S
H1451 C1432 0.913 . S
H1452 C1470 0.951 . S
H1453 C1472 0.951 . S
H1454 C1474 0.950 . S
H1455 C1475 0.950 . S
H1456 C1477 0.950 . S
H1457 C1480 0.950 . S
H1458 C1481 0.950 . S
H1459 C1483 0.950 . S
H1460 C1484 0.950 . S
H1461 C1485 0.951 . S
H1462 C1487 0.951 . S
H1463 C1489 0.950 . S
H1464 C1490 0.950 . S
H1465 C1492 0.950 . S
H1466 C1495 0.950 . S
H1467 C1496 0.950 . S
H1468 C1498 0.950 . S
H1469 C1499 0.950 . S
C1470 H1452 0.951 . S
C1470 C1471 1.366 . S
C1470 C1472 1.388 . S
C1471 C1470 1.366 . S
C1471 C1475 1.385 . S
C1472 H1453 0.951 . S
C1472 C1470 1.388 . S
C1472 C1473 1.366 . S
C1473 C1472 1.366 . S
C1473 C1474 1.414 . S
C1473 C1476 1.499 . S
C1474 H1454 0.950 . S
C1474 C1473 1.414 . S
C1474 C1475 1.374 . S
C1475 H1455 0.950 . S
C1475 C1471 1.385 . S
C1475 C1474 1.374 . S
C1476 C1473 1.499 . S
C1476 C1477 1.373 . S
C1476 C1478 1.389 . S
C1477 H1456 0.950 . S
C1477 C1476 1.373 . S
C1477 C1493 1.377 . S
C1478 C1476 1.389 . S
C1478 C1479 1.524 . S
C1478 C1492 1.377 . S
C1479 C1478 1.524 . S
C1479 C1480 1.397 . S
C1479 C1484 1.363 . S
C1480 H1457 0.950 . S
C1480 C1479 1.397 . S
C1480 C1481 1.334 . S
C1481 H1458 0.950 . S
C1481 C1480 1.334 . S
C1481 C1482 1.287 . S
C1482 C1481 1.287 . S
C1482 C1483 1.524 . S
C1482 H1501 0.913 . S
C1483 H1459 0.950 . S
C1483 C1482 1.524 . S
C1483 C1484 1.415 . S
C1484 H1460 0.950 . S
C1484 C1479 1.363 . S
C1484 C1483 1.415 . S
C1485 H1461 0.951 . S
C1485 C1486 1.366 . S
C1485 C1487 1.388 . S
C1486 C1485 1.366 . S
C1486 C1490 1.385 . S
C1487 H1462 0.951 . S
C1487 C1485 1.388 . S
C1487 C1488 1.366 . S
C1488 C1487 1.366 . S
C1488 C1489 1.414 . S
C1488 C1491 1.499 . S
C1489 H1463 0.950 . S
C1489 C1488 1.414 . S
C1489 C1490 1.374 . S
C1490 H1464 0.950 . S
C1490 C1486 1.385 . S
C1490 C1489 1.374 . S
C1491 C1488 1.499 . S
C1491 C1492 1.373 . S
C1491 C1493 1.389 . S
C1492 H1465 0.950 . S
C1492 C1478 1.377 . S
C1492 C1491 1.373 . S
C1493 C1477 1.377 . S
C1493 C1491 1.389 . S
C1493 C1494 1.524 . S
C1494 C1493 1.524 . S
C1494 C1495 1.397 . S
C1494 C1499 1.363 . S
C1495 H1466 0.950 . S
C1495 C1494 1.397 . S
C1495 C1496 1.334 . S
C1496 H1467 0.950 . S
C1496 C1495 1.334 . S
C1496 C1497 1.287 . S
C1497 C1496 1.287 . S
C1497 C1498 1.524 . S
C1497 H1500 0.999 . S
C1498 H1468 0.950 . S
C1498 C1497 1.524 . S
C1498 C1499 1.415 . S
C1499 H1469 0.950 . S
C1499 C1494 1.363 . S
C1499 C1498 1.415 . S
H1500 C1497 0.999 . S
H1501 C1482 0.913 . S
H1502 C1520 0.951 . S
H1503 C1522 0.951 . S
H1504 C1524 0.950 . S
H1505 C1525 0.950 . S
H1506 C1527 0.950 . S
H1507 C1530 0.950 . S
H1508 C1531 0.950 . S
H1509 C1533 0.950 . S
H1510 C1534 0.950 . S
H1511 C1535 0.951 . S
H1512 C1537 0.951 . S
H1513 C1539 0.950 . S
H1514 C1540 0.950 . S
H1515 C1542 0.950 . S
H1516 C1545 0.950 . S
H1517 C1546 0.950 . S
H1518 C1548 0.950 . S
H1519 C1549 0.950 . S
C1520 H1502 0.951 . S
C1520 C1521 1.366 . S
C1520 C1522 1.388 . S
C1521 C1520 1.366 . S
C1521 C1525 1.385 . S
C1522 H1503 0.951 . S
C1522 C1520 1.388 . S
C1522 C1523 1.366 . S
C1523 C1522 1.366 . S
C1523 C1524 1.414 . S
C1523 C1526 1.499 . S
C1524 H1504 0.950 . S
C1524 C1523 1.414 . S
C1524 C1525 1.374 . S
C1525 H1505 0.950 . S
C1525 C1521 1.385 . S
C1525 C1524 1.374 . S
C1526 C1523 1.499 . S
C1526 C1527 1.373 . S
C1526 C1528 1.389 . S
C1527 H1506 0.950 . S
C1527 C1526 1.373 . S
C1527 C1543 1.377 . S
C1528 C1526 1.389 . S
C1528 C1529 1.524 . S
C1528 C1542 1.377 . S
C1529 C1528 1.524 . S
C1529 C1530 1.397 . S
C1529 C1534 1.363 . S
C1530 H1507 0.950 . S
C1530 C1529 1.397 . S
C1530 C1531 1.334 . S
C1531 H1508 0.950 . S
C1531 C1530 1.334 . S
C1531 C1532 1.287 . S
C1532 C1531 1.287 . S
C1532 C1533 1.524 . S
C1532 H1551 0.913 . S
C1533 H1509 0.950 . S
C1533 C1532 1.524 . S
C1533 C1534 1.415 . S
C1534 H1510 0.950 . S
C1534 C1529 1.363 . S
C1534 C1533 1.415 . S
C1535 H1511 0.951 . S
C1535 C1536 1.366 . S
C1535 C1537 1.388 . S
C1536 C1535 1.366 . S
C1536 C1540 1.385 . S
C1537 H1512 0.951 . S
C1537 C1535 1.388 . S
C1537 C1538 1.366 . S
C1538 C1537 1.366 . S
C1538 C1539 1.414 . S
C1538 C1541 1.499 . S
C1539 H1513 0.950 . S
C1539 C1538 1.414 . S
C1539 C1540 1.374 . S
C1540 H1514 0.950 . S
C1540 C1536 1.385 . S
C1540 C1539 1.374 . S
C1541 C1538 1.499 . S
C1541 C1542 1.373 . S
C1541 C1543 1.389 . S
C1542 H1515 0.950 . S
C1542 C1528 1.377 . S
C1542 C1541 1.373 . S
C1543 C1527 1.377 . S
C1543 C1541 1.389 . S
C1543 C1544 1.524 . S
C1544 C1543 1.524 . S
C1544 C1545 1.397 . S
C1544 C1549 1.363 . S
C1545 H1516 0.950 . S
C1545 C1544 1.397 . S
C1545 C1546 1.334 . S
C1546 H1517 0.950 . S
C1546 C1545 1.334 . S
C1546 C1547 1.287 . S
C1547 C1546 1.287 . S
C1547 C1548 1.524 . S
C1547 H1550 0.999 . S
C1548 H1518 0.950 . S
C1548 C1547 1.524 . S
C1548 C1549 1.415 . S
C1549 H1519 0.950 . S
C1549 C1544 1.363 . S
C1549 C1548 1.415 . S
H1550 C1547 0.999 . S
H1551 C1532 0.913 . S
H1552 C1570 0.951 . S
H1553 C1572 0.951 . S
H1554 C1574 0.950 . S
H1555 C1575 0.950 . S
H1556 C1577 0.950 . S
H1557 C1580 0.950 . S
H1558 C1581 0.950 . S
H1559 C1583 0.950 . S
H1560 C1584 0.950 . S
H1561 C1585 0.951 . S
H1562 C1587 0.951 . S
H1563 C1589 0.950 . S
H1564 C1590 0.950 . S
H1565 C1592 0.950 . S
H1566 C1595 0.950 . S
H1567 C1596 0.950 . S
H1568 C1598 0.950 . S
H1569 C1599 0.950 . S
C1570 H1552 0.951 . S
C1570 C1571 1.366 . S
C1570 C1572 1.388 . S
C1571 C1570 1.366 . S
C1571 C1575 1.385 . S
C1572 H1553 0.951 . S
C1572 C1570 1.388 . S
C1572 C1573 1.366 . S
C1573 C1572 1.366 . S
C1573 C1574 1.414 . S
C1573 C1576 1.499 . S
C1574 H1554 0.950 . S
C1574 C1573 1.414 . S
C1574 C1575 1.374 . S
C1575 H1555 0.950 . S
C1575 C1571 1.385 . S
C1575 C1574 1.374 . S
C1576 C1573 1.499 . S
C1576 C1577 1.373 . S
C1576 C1578 1.389 . S
C1577 H1556 0.950 . S
C1577 C1576 1.373 . S
C1577 C1593 1.377 . S
C1578 C1576 1.389 . S
C1578 C1579 1.524 . S
C1578 C1592 1.377 . S
C1579 C1578 1.524 . S
C1579 C1580 1.397 . S
C1579 C1584 1.363 . S
C1580 H1557 0.950 . S
C1580 C1579 1.397 . S
C1580 C1581 1.334 . S
C1581 H1558 0.950 . S
C1581 C1580 1.334 . S
C1581 C1582 1.287 . S
C1582 C1581 1.287 . S
C1582 C1583 1.524 . S
C1582 H1601 0.913 . S
C1583 H1559 0.950 . S
C1583 C1582 1.524 . S
C1583 C1584 1.415 . S
C1584 H1560 0.950 . S
C1584 C1579 1.363 . S
C1584 C1583 1.415 . S
C1585 H1561 0.951 . S
C1585 C1586 1.366 . S
C1585 C1587 1.388 . S
C1586 C1585 1.366 . S
C1586 C1590 1.385 . S
C1587 H1562 0.951 . S
C1587 C1585 1.388 . S
C1587 C1588 1.366 . S
C1588 C1587 1.366 . S
C1588 C1589 1.414 . S
C1588 C1591 1.499 . S
C1589 H1563 0.950 . S
C1589 C1588 1.414 . S
C1589 C1590 1.374 . S
C1590 H1564 0.950 . S
C1590 C1586 1.385 . S
C1590 C1589 1.374 . S
C1591 C1588 1.499 . S
C1591 C1592 1.373 . S
C1591 C1593 1.389 . S
C1592 H1565 0.950 . S
C1592 C1578 1.377 . S
C1592 C1591 1.373 . S
C1593 C1577 1.377 . S
C1593 C1591 1.389 . S
C1593 C1594 1.524 . S
C1594 C1593 1.524 . S
C1594 C1595 1.397 . S
C1594 C1599 1.363 . S
C1595 H1566 0.950 . S
C1595 C1594 1.397 . S
C1595 C1596 1.334 . S
C1596 H1567 0.950 . S
C1596 C1595 1.334 . S
C1596 C1597 1.287 . S
C1597 C1596 1.287 . S
C1597 C1598 1.524 . S
C1597 H1600 0.999 . S
C1598 H1568 0.950 . S
C1598 C1597 1.524 . S
C1598 C1599 1.415 . S
C1599 H1569 0.950 . S
C1599 C1594 1.363 . S
C1599 C1598 1.415 . S
H1600 C1597 0.999 . S
H1601 C1582 0.913 . S
H1602 C1620 0.951 . S
H1603 C1622 0.951 . S
H1604 C1624 0.950 . S
H1605 C1625 0.950 . S
H1606 C1627 0.950 . S
H1607 C1630 0.950 . S
H1608 C1631 0.950 . S
H1609 C1633 0.950 . S
H1610 C1634 0.950 . S
H1611 C1635 0.951 . S
H1612 C1637 0.951 . S
H1613 C1639 0.950 . S
H1614 C1640 0.950 . S
H1615 C1642 0.950 . S
H1616 C1645 0.950 . S
H1617 C1646 0.950 . S
H1618 C1648 0.950 . S
H1619 C1649 0.950 . S
C1620 H1602 0.951 . S
C1620 C1621 1.366 . S
C1620 C1622 1.388 . S
C1621 C1620 1.366 . S
C1621 C1625 1.385 . S
C1622 H1603 0.951 . S
C1622 C1620 1.388 . S
C1622 C1623 1.366 . S
C1623 C1622 1.366 . S
C1623 C1624 1.414 . S
C1623 C1626 1.499 . S
C1624 H1604 0.950 . S
C1624 C1623 1.414 . S
C1624 C1625 1.374 . S
C1625 H1605 0.950 . S
C1625 C1621 1.385 . S
C1625 C1624 1.374 . S
C1626 C1623 1.499 . S
C1626 C1627 1.373 . S
C1626 C1628 1.389 . S
C1627 H1606 0.950 . S
C1627 C1626 1.373 . S
C1627 C1643 1.377 . S
C1628 C1626 1.389 . S
C1628 C1629 1.524 . S
C1628 C1642 1.377 . S
C1629 C1628 1.524 . S
C1629 C1630 1.397 . S
C1629 C1634 1.363 . S
C1630 H1607 0.950 . S
C1630 C1629 1.397 . S
C1630 C1631 1.334 . S
C1631 H1608 0.950 . S
C1631 C1630 1.334 . S
C1631 C1632 1.287 . S
C1632 C1631 1.287 . S
C1632 C1633 1.524 . S
C1632 H1651 0.913 . S
C1633 H1609 0.950 . S
C1633 C1632 1.524 . S
C1633 C1634 1.415 . S
C1634 H1610 0.950 . S
C1634 C1629 1.363 . S
C1634 C1633 1.415 . S
C1635 H1611 0.951 . S
C1635 C1636 1.366 . S
C1635 C1637 1.388 . S
C1636 C1635 1.366 . S
C1636 C1640 1.385 . S
C1637 H1612 0.951 . S
C1637 C1635 1.388 . S
C1637 C1638 1.366 . S
C1638 C1637 1.366 . S
C1638 C1639 1.414 . S
C1638 C1641 1.499 . S
C1639 H1613 0.950 . S
C1639 C1638 1.414 . S
C1639 C1640 1.374 . S
C1640 H1614 0.950 . S
C1640 C1636 1.385 . S
C1640 C1639 1.374 . S
C1641 C1638 1.499 . S
C1641 C1642 1.373 . S
C1641 C1643 1.389 . S
C1642 H1615 0.950 . S
C1642 C1628 1.377 . S
C1642 C1641 1.373 . S
C1643 C1627 1.377 . S
C1643 C1641 1.389 . S
C1643 C1644 1.524 . S
C1644 C1643 1.524 . S
C1644 C1645 1.397 . S
C1644 C1649 1.363 . S
C1645 H1616 0.950 . S
C1645 C1644 1.397 . S
C1645 C1646 1.334 . S
C1646 H1617 0.950 . S
C1646 C1645 1.334 . S
C1646 C1647 1.287 . S
C1647 C1646 1.287 . S
C1647 C1648 1.524 . S
C1647 H1650 0.999 . S
C1648 H1618 0.950 . S
C1648 C1647 1.524 . S
C1648 C1649 1.415 . S
C1649 H1619 0.950 . S
C1649 C1644 1.363 . S
C1649 C1648 1.415 . S
H1650 C1647 0.999 . S
H1651 C1632 0.913 . S
H1652 C1670 0.951 . S
H1653 C1672 0.951 . S
H1654 C1674 0.950 . S
H1655 C1675 0.950 . S
H1656 C1677 0.950 . S
H1657 C1680 0.950 . S
H1658 C1681 0.950 . S
H1659 C1683 0.950 . S
H1660 C1684 0.950 . S
H1661 C1685 0.951 . S
H1662 C1687 0.951 . S
H1663 C1689 0.950 1_565 S
H1664 C1690 0.950 . S
H1665 C1692 0.950 . S
H1666 C1695 0.950 . S
H1667 C1696 0.950 . S
H1668 C1698 0.950 . S
H1669 C1699 0.950 . S
C1670 H1652 0.951 . S
C1670 C1671 1.366 . S
C1670 C1672 1.388 . S
C1671 C1670 1.366 . S
C1671 C1675 1.385 . S
C1672 H1653 0.951 . S
C1672 C1670 1.388 . S
C1672 C1673 1.366 . S
C1673 C1672 1.366 . S
C1673 C1674 1.414 . S
C1673 C1676 1.499 . S
C1674 H1654 0.950 . S
C1674 C1673 1.414 . S
C1674 C1675 1.374 . S
C1675 H1655 0.950 . S
C1675 C1671 1.385 . S
C1675 C1674 1.374 . S
C1676 C1673 1.499 . S
C1676 C1677 1.373 . S
C1676 C1678 1.389 . S
C1677 H1656 0.950 . S
C1677 C1676 1.373 . S
C1677 C1693 1.377 . S
C1678 C1676 1.389 . S
C1678 C1679 1.524 . S
C1678 C1692 1.377 . S
C1679 C1678 1.524 . S
C1679 C1680 1.397 . S
C1679 C1684 1.363 1_545 S
C1680 H1657 0.950 . S
C1680 C1679 1.397 . S
C1680 C1681 1.334 . S
C1681 H1658 0.950 . S
C1681 C1680 1.334 . S
C1681 C1682 1.287 1_545 S
C1682 C1681 1.287 1_565 S
C1682 C1683 1.524 . S
C1682 H1701 0.913 . S
C1683 H1659 0.950 . S
C1683 C1682 1.524 . S
C1683 C1684 1.415 . S
C1684 H1660 0.950 . S
C1684 C1679 1.363 1_565 S
C1684 C1683 1.415 . S
C1685 H1661 0.951 . S
C1685 C1686 1.366 . S
C1685 C1687 1.388 . S
C1686 C1685 1.366 . S
C1686 C1690 1.385 1_545 S
C1687 H1662 0.951 . S
C1687 C1685 1.388 . S
C1687 C1688 1.366 . S
C1688 C1687 1.366 . S
C1688 C1689 1.414 . S
C1688 C1691 1.499 . S
C1689 H1663 0.950 1_545 S
C1689 C1688 1.414 . S
C1689 C1690 1.374 1_545 S
C1690 H1664 0.950 . S
C1690 C1686 1.385 1_565 S
C1690 C1689 1.374 1_565 S
C1691 C1688 1.499 . S
C1691 C1692 1.373 . S
C1691 C1693 1.389 . S
C1692 H1665 0.950 . S
C1692 C1678 1.377 . S
C1692 C1691 1.373 . S
C1693 C1677 1.377 . S
C1693 C1691 1.389 . S
C1693 C1694 1.524 . S
C1694 C1693 1.524 . S
C1694 C1695 1.397 . S
C1694 C1699 1.363 . S
C1695 H1666 0.950 . S
C1695 C1694 1.397 . S
C1695 C1696 1.334 . S
C1696 H1667 0.950 . S
C1696 C1695 1.334 . S
C1696 C1697 1.287 . S
C1697 C1696 1.287 . S
C1697 C1698 1.524 . S
C1697 H1700 0.999 . S
C1698 H1668 0.950 . S
C1698 C1697 1.524 . S
C1698 C1699 1.415 . S
C1699 H1669 0.950 . S
C1699 C1694 1.363 . S
C1699 C1698 1.415 . S
H1700 C1697 0.999 . S
H1701 C1682 0.913 . S
H1702 C1720 0.951 . S
H1703 C1722 0.951 . S
H1704 C1724 0.950 . S
H1705 C1725 0.950 . S
H1706 C1727 0.950 . S
H1707 C1730 0.950 1_455 S
H1708 C1731 0.950 . S
H1709 C1733 0.950 . S
H1710 C1734 0.950 . S
H1711 C1735 0.952 1_455 S
H1712 C1737 0.951 . S
H1713 C1739 0.950 . S
H1714 C1740 0.950 . S
H1715 C1742 0.950 . S
H1716 C1745 0.950 . S
H1717 C1746 0.950 . S
H1718 C1748 0.950 . S
H1719 C1749 0.950 . S
C1720 H1702 0.951 . S
C1720 C1721 1.366 . S
C1720 C1722 1.388 . S
C1721 C1720 1.366 . S
C1721 C1725 1.385 . S
C1722 H1703 0.951 . S
C1722 C1720 1.388 . S
C1722 C1723 1.366 . S
C1723 C1722 1.366 . S
C1723 C1724 1.414 . S
C1723 C1726 1.499 . S
C1724 H1704 0.950 . S
C1724 C1723 1.414 . S
C1724 C1725 1.374 . S
C1725 H1705 0.950 . S
C1725 C1721 1.385 . S
C1725 C1724 1.374 . S
C1726 C1723 1.499 . S
C1726 C1727 1.373 . S
C1726 C1728 1.389 . S
C1727 H1706 0.950 . S
C1727 C1726 1.373 . S
C1727 C1743 1.377 . S
C1728 C1726 1.389 . S
C1728 C1729 1.524 . S
C1728 C1742 1.377 . S
C1729 C1728 1.524 . S
C1729 C1730 1.396 . S
C1729 C1734 1.363 . S
C1730 H1707 0.950 1_655 S
C1730 C1729 1.396 . S
C1730 C1731 1.334 1_655 S
C1731 H1708 0.950 . S
C1731 C1730 1.334 1_455 S
C1731 C1732 1.287 . S
C1732 C1731 1.287 . S
C1732 C1733 1.524 1_455 S
C1732 H1751 0.913 . S
C1733 H1709 0.950 . S
C1733 C1732 1.524 1_655 S
C1733 C1734 1.415 . S
C1734 H1710 0.950 . S
C1734 C1729 1.363 . S
C1734 C1733 1.415 . S
C1735 H1711 0.952 1_655 S
C1735 C1736 1.366 . S
C1735 C1737 1.388 . S
C1736 C1735 1.366 . S
C1736 C1740 1.385 . S
C1737 H1712 0.951 . S
C1737 C1735 1.388 . S
C1737 C1738 1.366 . S
C1738 C1737 1.366 . S
C1738 C1739 1.414 . S
C1738 C1741 1.499 . S
C1739 H1713 0.950 . S
C1739 C1738 1.414 . S
C1739 C1740 1.374 . S
C1740 H1714 0.950 . S
C1740 C1736 1.385 . S
C1740 C1739 1.374 . S
C1741 C1738 1.499 . S
C1741 C1742 1.373 . S
C1741 C1743 1.389 . S
C1742 H1715 0.950 . S
C1742 C1728 1.377 . S
C1742 C1741 1.373 . S
C1743 C1727 1.377 . S
C1743 C1741 1.389 . S
C1743 C1744 1.524 . S
C1744 C1743 1.524 . S
C1744 C1745 1.397 . S
C1744 C1749 1.363 . S
C1745 H1716 0.950 . S
C1745 C1744 1.397 . S
C1745 C1746 1.334 . S
C1746 H1717 0.950 . S
C1746 C1745 1.334 . S
C1746 C1747 1.287 . S
C1747 C1746 1.287 . S
C1747 C1748 1.524 . S
C1747 H1750 0.999 . S
C1748 H1718 0.950 . S
C1748 C1747 1.524 . S
C1748 C1749 1.415 . S
C1749 H1719 0.950 . S
C1749 C1744 1.363 . S
C1749 C1748 1.415 . S
H1750 C1747 0.999 . S
H1751 C1732 0.913 . S
H1752 C1770 0.951 . S
H1753 C1772 0.951 . S
H1754 C1774 0.950 . S
H1755 C1775 0.950 . S
H1756 C1777 0.950 . S
H1757 C1780 0.950 . S
H1758 C1781 0.950 . S
H1759 C1783 0.950 . S
H1760 C1784 0.950 . S
H1761 C1785 0.951 . S
H1762 C1787 0.951 . S
H1763 C1789 0.950 . S
H1764 C1790 0.950 . S
H1765 C1792 0.950 . S
H1766 C1795 0.950 . S
H1767 C1796 0.950 . S
H1768 C1798 0.950 . S
H1769 C1799 0.950 . S
C1770 H1752 0.951 . S
C1770 C1771 1.366 . S
C1770 C1772 1.388 . S
C1771 C1770 1.366 . S
C1771 C1775 1.385 . S
C1772 H1753 0.951 . S
C1772 C1770 1.388 . S
C1772 C1773 1.366 . S
C1773 C1772 1.366 . S
C1773 C1774 1.414 . S
C1773 C1776 1.499 . S
C1774 H1754 0.950 . S
C1774 C1773 1.414 . S
C1774 C1775 1.374 . S
C1775 H1755 0.950 . S
C1775 C1771 1.385 . S
C1775 C1774 1.374 . S
C1776 C1773 1.499 . S
C1776 C1777 1.373 . S
C1776 C1778 1.389 . S
C1777 H1756 0.950 . S
C1777 C1776 1.373 . S
C1777 C1793 1.377 . S
C1778 C1776 1.389 . S
C1778 C1779 1.524 . S
C1778 C1792 1.377 . S
C1779 C1778 1.524 . S
C1779 C1780 1.397 . S
C1779 C1784 1.363 . S
C1780 H1757 0.950 . S
C1780 C1779 1.397 . S
C1780 C1781 1.334 . S
C1781 H1758 0.950 . S
C1781 C1780 1.334 . S
C1781 C1782 1.287 . S
C1782 C1781 1.287 . S
C1782 C1783 1.524 . S
C1782 H1801 0.913 . S
C1783 H1759 0.950 . S
C1783 C1782 1.524 . S
C1783 C1784 1.415 . S
C1784 H1760 0.950 . S
C1784 C1779 1.363 . S
C1784 C1783 1.415 . S
C1785 H1761 0.951 . S
C1785 C1786 1.366 . S
C1785 C1787 1.388 . S
C1786 C1785 1.366 . S
C1786 C1790 1.385 . S
C1787 H1762 0.951 . S
C1787 C1785 1.388 . S
C1787 C1788 1.366 . S
C1788 C1787 1.366 . S
C1788 C1789 1.414 . S
C1788 C1791 1.499 . S
C1789 H1763 0.950 . S
C1789 C1788 1.414 . S
C1789 C1790 1.374 . S
C1790 H1764 0.950 . S
C1790 C1786 1.385 . S
C1790 C1789 1.374 . S
C1791 C1788 1.499 . S
C1791 C1792 1.373 . S
C1791 C1793 1.389 . S
C1792 H1765 0.950 . S
C1792 C1778 1.377 . S
C1792 C1791 1.373 . S
C1793 C1777 1.377 . S
C1793 C1791 1.389 . S
C1793 C1794 1.524 . S
C1794 C1793 1.524 . S
C1794 C1795 1.397 . S
C1794 C1799 1.363 . S
C1795 H1766 0.950 . S
C1795 C1794 1.397 . S
C1795 C1796 1.334 . S
C1796 H1767 0.950 . S
C1796 C1795 1.334 . S
C1796 C1797 1.287 . S
C1797 C1796 1.287 . S
C1797 C1798 1.524 . S
C1797 H1800 0.999 . S
C1798 H1768 0.950 . S
C1798 C1797 1.524 . S
C1798 C1799 1.415 . S
C1799 H1769 0.950 . S
C1799 C1794 1.363 . S
C1799 C1798 1.415 . S
H1800 C1797 0.999 . S
H1801 C1782 0.913 . S
H1802 C1820 0.951 . S
H1803 C1822 0.951 . S
H1804 C1824 0.950 . S
H1805 C1825 0.950 . S
H1806 C1827 0.950 1_545 S
H1807 C1830 0.950 . S
H1808 C1831 0.950 . S
H1809 C1833 0.950 . S
H1810 C1834 0.950 . S
H1811 C1835 0.951 . S
H1812 C1837 0.951 . S
H1813 C1839 0.950 . S
H1814 C1840 0.950 . S
H1815 C1842 0.950 . S
H1816 C1845 0.950 . S
H1817 C1846 0.950 . S
H1818 C1848 0.950 . S
H1819 C1849 0.950 . S
C1820 H1802 0.951 . S
C1820 C1821 1.366 . S
C1820 C1822 1.388 . S
C1821 C1820 1.366 . S
C1821 C1825 1.385 . S
C1822 H1803 0.951 . S
C1822 C1820 1.388 . S
C1822 C1823 1.366 . S
C1823 C1822 1.366 . S
C1823 C1824 1.414 . S
C1823 C1826 1.499 . S
C1824 H1804 0.950 . S
C1824 C1823 1.414 . S
C1824 C1825 1.374 . S
C1825 H1805 0.950 . S
C1825 C1821 1.385 . S
C1825 C1824 1.374 . S
C1826 C1823 1.499 . S
C1826 C1827 1.373 . S
C1826 C1828 1.389 . S
C1827 H1806 0.950 1_565 S
C1827 C1826 1.373 . S
C1827 C1843 1.377 . S
C1828 C1826 1.389 . S
C1828 C1829 1.524 . S
C1828 C1842 1.377 . S
C1829 C1828 1.524 . S
C1829 C1830 1.397 . S
C1829 C1834 1.363 . S
C1830 H1807 0.950 . S
C1830 C1829 1.397 . S
C1830 C1831 1.334 . S
C1831 H1808 0.950 . S
C1831 C1830 1.334 . S
C1831 C1832 1.287 . S
C1832 C1831 1.287 . S
C1832 C1833 1.524 . S
C1832 H1851 0.913 . S
C1833 H1809 0.950 . S
C1833 C1832 1.524 . S
C1833 C1834 1.415 . S
C1834 H1810 0.950 . S
C1834 C1829 1.363 . S
C1834 C1833 1.415 . S
C1835 H1811 0.951 . S
C1835 C1836 1.366 . S
C1835 C1837 1.388 . S
C1836 C1835 1.366 . S
C1836 C1840 1.385 . S
C1837 H1812 0.951 . S
C1837 C1835 1.388 . S
C1837 C1838 1.366 . S
C1838 C1837 1.366 . S
C1838 C1839 1.414 . S
C1838 C1841 1.499 . S
C1839 H1813 0.950 . S
C1839 C1838 1.414 . S
C1839 C1840 1.374 . S
C1840 H1814 0.950 . S
C1840 C1836 1.385 . S
C1840 C1839 1.374 . S
C1841 C1838 1.499 . S
C1841 C1842 1.373 . S
C1841 C1843 1.389 . S
C1842 H1815 0.950 . S
C1842 C1828 1.377 . S
C1842 C1841 1.373 . S
C1843 C1827 1.377 . S
C1843 C1841 1.389 . S
C1843 C1844 1.524 1_565 S
C1844 C1843 1.524 1_545 S
C1844 C1845 1.397 . S
C1844 C1849 1.363 . S
C1845 H1816 0.950 . S
C1845 C1844 1.397 . S
C1845 C1846 1.334 . S
C1846 H1817 0.950 . S
C1846 C1845 1.334 . S
C1846 C1847 1.287 . S
C1847 C1846 1.287 . S
C1847 C1848 1.524 . S
C1847 H1850 0.999 . S
C1848 H1818 0.950 . S
C1848 C1847 1.524 . S
C1848 C1849 1.415 . S
C1849 H1819 0.950 . S
C1849 C1844 1.363 . S
C1849 C1848 1.415 . S
H1850 C1847 0.999 . S
H1851 C1832 0.913 . S
H1852 C1870 0.951 . S
H1853 C1872 0.951 . S
H1854 C1874 0.950 . S
H1855 C1875 0.950 . S
H1856 C1877 0.950 . S
H1857 C1880 0.950 . S
H1858 C1881 0.950 . S
H1859 C1883 0.950 . S
H1860 C1884 0.950 . S
H1861 C1885 0.951 . S
H1862 C1887 0.951 . S
H1863 C1889 0.950 . S
H1864 C1890 0.950 . S
H1865 C1892 0.950 . S
H1866 C1895 0.950 . S
H1867 C1896 0.950 . S
H1868 C1898 0.950 . S
H1869 C1899 0.950 . S
C1870 H1852 0.951 . S
C1870 C1871 1.366 . S
C1870 C1872 1.388 . S
C1871 C1870 1.366 . S
C1871 C1875 1.385 . S
C1872 H1853 0.951 . S
C1872 C1870 1.388 . S
C1872 C1873 1.366 . S
C1873 C1872 1.366 . S
C1873 C1874 1.414 . S
C1873 C1876 1.499 . S
C1874 H1854 0.950 . S
C1874 C1873 1.414 . S
C1874 C1875 1.374 . S
C1875 H1855 0.950 . S
C1875 C1871 1.385 . S
C1875 C1874 1.374 . S
C1876 C1873 1.499 . S
C1876 C1877 1.373 . S
C1876 C1878 1.389 . S
C1877 H1856 0.950 . S
C1877 C1876 1.373 . S
C1877 C1893 1.377 . S
C1878 C1876 1.389 . S
C1878 C1879 1.524 . S
C1878 C1892 1.377 . S
C1879 C1878 1.524 . S
C1879 C1880 1.397 . S
C1879 C1884 1.363 . S
C1880 H1857 0.950 . S
C1880 C1879 1.397 . S
C1880 C1881 1.334 . S
C1881 H1858 0.950 . S
C1881 C1880 1.334 . S
C1881 C1882 1.287 . S
C1882 C1881 1.287 . S
C1882 C1883 1.524 . S
C1882 H1901 0.913 . S
C1883 H1859 0.950 . S
C1883 C1882 1.524 . S
C1883 C1884 1.415 . S
C1884 H1860 0.950 . S
C1884 C1879 1.363 . S
C1884 C1883 1.415 . S
C1885 H1861 0.951 . S
C1885 C1886 1.366 . S
C1885 C1887 1.388 . S
C1886 C1885 1.366 . S
C1886 C1890 1.385 . S
C1887 H1862 0.951 . S
C1887 C1885 1.388 . S
C1887 C1888 1.366 . S
C1888 C1887 1.366 . S
C1888 C1889 1.414 . S
C1888 C1891 1.499 . S
C1889 H1863 0.950 . S
C1889 C1888 1.414 . S
C1889 C1890 1.374 . S
C1890 H1864 0.950 . S
C1890 C1886 1.385 . S
C1890 C1889 1.374 . S
C1891 C1888 1.499 . S
C1891 C1892 1.373 . S
C1891 C1893 1.389 . S
C1892 H1865 0.950 . S
C1892 C1878 1.377 . S
C1892 C1891 1.373 . S
C1893 C1877 1.377 . S
C1893 C1891 1.389 . S
C1893 C1894 1.524 . S
C1894 C1893 1.524 . S
C1894 C1895 1.397 1_455 S
C1894 C1899 1.363 . S
C1895 H1866 0.950 . S
C1895 C1894 1.397 1_655 S
C1895 C1896 1.334 . S
C1896 H1867 0.950 . S
C1896 C1895 1.334 . S
C1896 C1897 1.287 . S
C1897 C1896 1.287 . S
C1897 C1898 1.524 . S
C1897 H1900 0.999 . S
C1898 H1868 0.950 . S
C1898 C1897 1.524 . S
C1898 C1899 1.415 1_655 S
C1899 H1869 0.950 . S
C1899 C1894 1.363 . S
C1899 C1898 1.415 1_455 S
H1900 C1897 0.999 . S
H1901 C1882 0.913 . S
H1902 C1920 0.951 . S
H1903 C1922 0.951 . S
H1904 C1924 0.950 . S
H1905 C1925 0.950 . S
H1906 C1927 0.950 . S
H1907 C1930 0.950 . S
H1908 C1931 0.950 . S
H1909 C1933 0.950 . S
H1910 C1934 0.950 . S
H1911 C1935 0.951 . S
H1912 C1937 0.951 . S
H1913 C1939 0.950 . S
H1914 C1940 0.950 . S
H1915 C1942 0.950 . S
H1916 C1945 0.950 . S
H1917 C1946 0.950 . S
H1918 C1948 0.950 . S
H1919 C1949 0.950 . S
C1920 H1902 0.951 . S
C1920 C1921 1.366 . S
C1920 C1922 1.388 . S
C1921 C1920 1.366 . S
C1921 C1925 1.385 . S
C1922 H1903 0.951 . S
C1922 C1920 1.388 . S
C1922 C1923 1.366 . S
C1923 C1922 1.366 . S
C1923 C1924 1.414 . S
C1923 C1926 1.499 . S
C1924 H1904 0.950 . S
C1924 C1923 1.414 . S
C1924 C1925 1.374 . S
C1925 H1905 0.950 . S
C1925 C1921 1.385 . S
C1925 C1924 1.374 . S
C1926 C1923 1.499 . S
C1926 C1927 1.373 . S
C1926 C1928 1.389 . S
C1927 H1906 0.950 . S
C1927 C1926 1.373 . S
C1927 C1943 1.377 . S
C1928 C1926 1.389 . S
C1928 C1929 1.524 . S
C1928 C1942 1.377 . S
C1929 C1928 1.524 . S
C1929 C1930 1.397 . S
C1929 C1934 1.363 . S
C1930 H1907 0.950 . S
C1930 C1929 1.397 . S
C1930 C1931 1.334 . S
C1931 H1908 0.950 . S
C1931 C1930 1.334 . S
C1931 C1932 1.287 . S
C1932 C1931 1.287 . S
C1932 C1933 1.524 . S
C1932 H1951 0.913 . S
C1933 H1909 0.950 . S
C1933 C1932 1.524 . S
C1933 C1934 1.415 . S
C1934 H1910 0.950 . S
C1934 C1929 1.363 . S
C1934 C1933 1.415 . S
C1935 H1911 0.951 . S
C1935 C1936 1.366 . S
C1935 C1937 1.388 . S
C1936 C1935 1.366 . S
C1936 C1940 1.385 . S
C1937 H1912 0.951 . S
C1937 C1935 1.388 . S
C1937 C1938 1.366 . S
C1938 C1937 1.366 . S
C1938 C1939 1.414 . S
C1938 C1941 1.499 . S
C1939 H1913 0.950 . S
C1939 C1938 1.414 . S
C1939 C1940 1.374 . S
C1940 H1914 0.950 . S
C1940 C1936 1.385 . S
C1940 C1939 1.374 . S
C1941 C1938 1.499 . S
C1941 C1942 1.373 . S
C1941 C1943 1.389 . S
C1942 H1915 0.950 . S
C1942 C1928 1.377 . S
C1942 C1941 1.373 . S
C1943 C1927 1.377 . S
C1943 C1941 1.389 . S
C1943 C1944 1.524 . S
C1944 C1943 1.524 . S
C1944 C1945 1.397 . S
C1944 C1949 1.363 . S
C1945 H1916 0.950 . S
C1945 C1944 1.397 . S
C1945 C1946 1.334 . S
C1946 H1917 0.950 . S
C1946 C1945 1.334 . S
C1946 C1947 1.287 . S
C1947 C1946 1.287 . S
C1947 C1948 1.524 . S
C1947 H1950 0.999 . S
C1948 H1918 0.950 . S
C1948 C1947 1.524 . S
C1948 C1949 1.415 . S
C1949 H1919 0.950 . S
C1949 C1944 1.363 . S
C1949 C1948 1.415 . S
H1950 C1947 0.999 . S
H1951 C1932 0.913 . S
H1952 C1970 0.951 . S
H1953 C1972 0.951 . S
H1954 C1974 0.950 . S
H1955 C1975 0.950 . S
H1956 C1977 0.950 . S
H1957 C1980 0.950 . S
H1958 C1981 0.950 . S
H1959 C1983 0.950 . S
H1960 C1984 0.950 . S
H1961 C1985 0.951 . S
H1962 C1987 0.951 . S
H1963 C1989 0.950 . S
H1964 C1990 0.950 . S
H1965 C1992 0.950 . S
H1966 C1995 0.950 . S
H1967 C1996 0.950 . S
H1968 C1998 0.950 . S
H1969 C1999 0.950 . S
C1970 H1952 0.951 . S
C1970 C1971 1.366 . S
C1970 C1972 1.388 . S
C1971 C1970 1.366 . S
C1971 C1975 1.385 . S
C1972 H1953 0.951 . S
C1972 C1970 1.388 . S
C1972 C1973 1.366 . S
C1973 C1972 1.366 . S
C1973 C1974 1.414 . S
C1973 C1976 1.499 . S
C1974 H1954 0.950 . S
C1974 C1973 1.414 . S
C1974 C1975 1.374 . S
C1975 H1955 0.950 . S
C1975 C1971 1.385 . S
C1975 C1974 1.374 . S
C1976 C1973 1.499 . S
C1976 C1977 1.373 . S
C1976 C1978 1.389 . S
C1977 H1956 0.950 . S
C1977 C1976 1.373 . S
C1977 C1993 1.377 . S
C1978 C1976 1.389 . S
C1978 C1979 1.524 . S
C1978 C1992 1.377 . S
C1979 C1978 1.524 . S
C1979 C1980 1.397 . S
C1979 C1984 1.363 . S
C1980 H1957 0.950 . S
C1980 C1979 1.397 . S
C1980 C1981 1.334 . S
C1981 H1958 0.950 . S
C1981 C1980 1.334 . S
C1981 C1982 1.287 . S
C1982 C1981 1.287 . S
C1982 C1983 1.524 . S
C1982 H2001 0.913 . S
C1983 H1959 0.950 . S
C1983 C1982 1.524 . S
C1983 C1984 1.415 . S
C1984 H1960 0.950 . S
C1984 C1979 1.363 . S
C1984 C1983 1.415 . S
C1985 H1961 0.951 . S
C1985 C1986 1.366 . S
C1985 C1987 1.388 . S
C1986 C1985 1.366 . S
C1986 C1990 1.385 . S
C1987 H1962 0.951 . S
C1987 C1985 1.388 . S
C1987 C1988 1.366 . S
C1988 C1987 1.366 . S
C1988 C1989 1.414 . S
C1988 C1991 1.499 . S
C1989 H1963 0.950 . S
C1989 C1988 1.414 . S
C1989 C1990 1.374 . S
C1990 H1964 0.950 . S
C1990 C1986 1.385 . S
C1990 C1989 1.374 . S
C1991 C1988 1.499 . S
C1991 C1992 1.373 . S
C1991 C1993 1.389 . S
C1992 H1965 0.950 . S
C1992 C1978 1.377 . S
C1992 C1991 1.373 . S
C1993 C1977 1.377 . S
C1993 C1991 1.389 . S
C1993 C1994 1.524 . S
C1994 C1993 1.524 . S
C1994 C1995 1.397 . S
C1994 C1999 1.363 . S
C1995 H1966 0.950 . S
C1995 C1994 1.397 . S
C1995 C1996 1.334 . S
C1996 H1967 0.950 . S
C1996 C1995 1.334 . S
C1996 C1997 1.287 . S
C1997 C1996 1.287 . S
C1997 C1998 1.524 . S
C1997 H2000 0.999 . S
C1998 H1968 0.950 . S
C1998 C1997 1.524 . S
C1998 C1999 1.415 . S
C1999 H1969 0.950 . S
C1999 C1994 1.363 . S
C1999 C1998 1.415 . S
H2000 C1997 0.999 . S
H2001 C1982 0.913 . S
H2002 C2020 0.951 . S
H2003 C2022 0.951 . S
H2004 C2024 0.950 . S
H2005 C2025 0.950 . S
H2006 C2027 0.950 . S
H2007 C2030 0.950 . S
H2008 C2031 0.950 . S
H2009 C2033 0.950 . S
H2010 C2034 0.950 . S
H2011 C2035 0.951 . S
H2012 C2037 0.951 . S
H2013 C2039 0.950 . S
H2014 C2040 0.950 . S
H2015 C2042 0.950 . S
H2016 C2045 0.950 . S
H2017 C2046 0.950 . S
H2018 C2048 0.950 . S
H2019 C2049 0.950 . S
C2020 H2002 0.951 . S
C2020 C2021 1.366 . S
C2020 C2022 1.388 . S
C2021 C2020 1.366 . S
C2021 C2025 1.385 . S
C2022 H2003 0.951 . S
C2022 C2020 1.388 . S
C2022 C2023 1.366 . S
C2023 C2022 1.366 . S
C2023 C2024 1.414 . S
C2023 C2026 1.499 . S
C2024 H2004 0.950 . S
C2024 C2023 1.414 . S
C2024 C2025 1.374 . S
C2025 H2005 0.950 . S
C2025 C2021 1.385 . S
C2025 C2024 1.374 . S
C2026 C2023 1.499 . S
C2026 C2027 1.373 . S
C2026 C2028 1.389 . S
C2027 H2006 0.950 . S
C2027 C2026 1.373 . S
C2027 C2043 1.377 . S
C2028 C2026 1.389 . S
C2028 C2029 1.524 . S
C2028 C2042 1.377 . S
C2029 C2028 1.524 . S
C2029 C2030 1.397 . S
C2029 C2034 1.363 . S
C2030 H2007 0.950 . S
C2030 C2029 1.397 . S
C2030 C2031 1.334 . S
C2031 H2008 0.950 . S
C2031 C2030 1.334 . S
C2031 C2032 1.287 . S
C2032 C2031 1.287 . S
C2032 C2033 1.524 . S
C2032 H2051 0.913 . S
C2033 H2009 0.950 . S
C2033 C2032 1.524 . S
C2033 C2034 1.415 . S
C2034 H2010 0.950 . S
C2034 C2029 1.363 . S
C2034 C2033 1.415 . S
C2035 H2011 0.951 . S
C2035 C2036 1.366 . S
C2035 C2037 1.388 . S
C2036 C2035 1.366 . S
C2036 C2040 1.385 . S
C2037 H2012 0.951 . S
C2037 C2035 1.388 . S
C2037 C2038 1.366 . S
C2038 C2037 1.366 . S
C2038 C2039 1.414 . S
C2038 C2041 1.499 . S
C2039 H2013 0.950 . S
C2039 C2038 1.414 . S
C2039 C2040 1.374 . S
C2040 H2014 0.950 . S
C2040 C2036 1.385 . S
C2040 C2039 1.374 . S
C2041 C2038 1.499 . S
C2041 C2042 1.373 . S
C2041 C2043 1.389 . S
C2042 H2015 0.950 . S
C2042 C2028 1.377 . S
C2042 C2041 1.373 . S
C2043 C2027 1.377 . S
C2043 C2041 1.389 . S
C2043 C2044 1.524 . S
C2044 C2043 1.524 . S
C2044 C2045 1.397 . S
C2044 C2049 1.363 . S
C2045 H2016 0.950 . S
C2045 C2044 1.397 . S
C2045 C2046 1.334 . S
C2046 H2017 0.950 . S
C2046 C2045 1.334 . S
C2046 C2047 1.287 . S
C2047 C2046 1.287 . S
C2047 C2048 1.524 . S
C2047 H2050 0.999 . S
C2048 H2018 0.950 . S
C2048 C2047 1.524 . S
C2048 C2049 1.415 . S
C2049 H2019 0.950 . S
C2049 C2044 1.363 . S
C2049 C2048 1.415 . S
H2050 C2047 0.999 . S
H2051 C2032 0.913 . S
C271 C7 2.074 . S
C286 C49 2.074 . S
C321 C21 2.080 . S
C336 C63 2.080 . S
C371 C77 2.074 . S
C386 C35 2.074 . S
C421 C91 2.059 . S
C436 C133 2.055 . S
C471 C105 2.077 . S
C486 C147 2.077 . S
C521 C161 2.052 . S
C536 C119 2.051 . S
C571 C217 2.058 . S
C586 C175 2.055 . S
C621 C231 2.076 . S
C636 C189 2.076 . S
C671 C245 2.052 . S
C686 C203 2.050 . S
C721 C6 1.471 . S
C736 C132 1.471 . S
C771 C20 1.473 . S
C786 C146 1.473 . S
C821 C160 1.479 . S
C836 C34 1.478 . S
C871 C48 1.471 . S
C886 C174 1.471 . S
C921 C62 1.475 . S
C936 C188 1.475 . S
C971 C76 1.478 . S
C986 C202 1.479 . S
C1021 C90 1.484 . S
C1036 C216 1.484 . S
C1071 C104 1.475 . S
C1086 C230 1.475 . S
C1121 C244 1.470 . S
C1136 C118 1.465 . S
C1171 C9 0.681 . S
C1186 C64 0.683 . S
C1221 C23 0.677 . S
C1236 C78 0.678 . S
C1271 C37 0.683 . S
C1286 C50 0.681 . S
C1321 C51 0.682 . S
C1336 C22 0.681 . S
C1371 C36 0.678 . S
C1386 C65 0.677 . S
C1421 C79 0.683 . S
C1436 C8 0.682 . S
C1471 C93 0.718 . S
C1486 C148 0.717 . S
C1521 C162 0.677 . S
C1536 C107 0.678 . S
C1571 C134 0.712 . S
C1586 C121 0.716 . S
C1621 C106 0.682 . S
C1636 C135 0.682 . S
C1671 C149 0.687 . S
C1686 C120 0.686 . S
C1721 C163 0.664 . S
C1736 C92 0.664 . S
C1771 C232 0.681 . S
C1786 C177 0.682 . S
C1821 C246 0.687 . S
C1836 C191 0.685 . S
C1871 C205 0.663 . S
C1886 C218 0.664 . S
C1921 C190 0.717 . S
C1936 C219 0.719 . S
C1971 C204 0.676 . S
C1986 C233 0.678 . S
C2021 C176 0.712 . S
C2036 C247 0.716 . S
