# Generated by pormake.
# Topology sxa, (6)-cn, num edge types: 1
# Building blocks:
#     Node 0, Type 0, BuildingBlock: CIFDUS_clean_sbu_1, # of connection points: 6
#     Node 1, Type 0, BuildingBlock: CIFDUS_clean_sbu_1, # of connection points: 6
#     Node 2, Type 0, BuildingBlock: CIFDUS_clean_sbu_1, # of connection points: 6
#     Node 3, Type 0, BuildingBlock: CIFDUS_clean_sbu_1, # of connection points: 6
#     Edge 4, Type (0, 0), BuildingBlock: UVAHIK_clean_linker_0, # of connection points: 2
#     Edge 5, Type (0, 0), BuildingBlock: UVAHIK_clean_linker_0, # of connection points: 2
#     Edge 6, Type (0, 0), BuildingBlock: UVAHIK_clean_linker_0, # of connection points: 2
#     Edge 7, Type (0, 0), BuildingBlock: UVAHIK_clean_linker_0, # of connection points: 2
#     Edge 8, Type (0, 0), BuildingBlock: UVAHIK_clean_linker_0, # of connection points: 2
#     Edge 9, Type (0, 0), BuildingBlock: UVAHIK_clean_linker_0, # of connection points: 2
#     Edge 10, Type (0, 0), BuildingBlock: UVAHIK_clean_linker_0, # of connection points: 2
#     Edge 11, Type (0, 0), BuildingBlock: UVAHIK_clean_linker_0, # of connection points: 2
#     Edge 12, Type (0, 0), BuildingBlock: UVAHIK_clean_linker_0, # of connection points: 2
#     Edge 13, Type (0, 0), BuildingBlock: UVAHIK_clean_linker_0, # of connection points: 2
#     Edge 14, Type (0, 0), BuildingBlock: UVAHIK_clean_linker_0, # of connection points: 2
#     Edge 15, Type (0, 0), BuildingBlock: UVAHIK_clean_linker_0, # of connection points: 2
# Relax obj value: 0.192
# Max RMSD: 0.226
# Mean RMSD: 0.226
data_MOF--net-sxa--node1-CIFDUS_clean_sbu_1--edge1-UVAHIK_clean_linker_0
_symmetry_space_group_name_H-M    P1
_symmetry_Int_Tables_number       1
_symmetry_cell_setting            triclinic
loop_
_symmetry_equiv_pos_as_xyz
'x, y, z'
_cell_length_a     32.689602
_cell_length_b     36.138688
_cell_length_c     20.117717
_cell_angle_alpha  90.346682
_cell_angle_beta   89.823639
_cell_angle_gamma 89.836809
loop_
_atom_site_label
_atom_site_type_symbol
_atom_site_fract_x
_atom_site_fract_y
_atom_site_fract_z
_atom_type_partial_charge
O0 O 0.95328 0.76411 0.1364 0.0
Mn1 Mn -0.00853 0.78225 0.21145 0.0
O2 O 0.91826 0.81182 0.09768 0.0
Mn3 Mn 0.93065 0.83797 0.17371 0.0
O4 O 0.03312 0.79818 0.28865 0.0
O5 O 0.00083 0.72707 0.22558 0.0
Mn6 Mn 0.05191 0.72004 0.24904 0.0
O7 O 0.039 0.78208 0.14526 0.0
O8 O 0.05899 0.74498 0.32796 0.0
O9 O 0.9416 0.78073 0.28084 0.0
O10 O 0.90022 0.82596 0.24707 0.0
O11 O 0.0294 0.67365 0.24293 0.0
O12 O 0.08268 0.73738 0.17731 0.0
C13 C 0.97884 0.87404 0.17224 0.0
C14 C 0.92889 0.77818 0.0942 0.0
C15 C 0.05473 0.7799 0.33133 0.0
C16 C -0.00198 0.6912 0.21986 0.0
C17 C 0.07214 0.76356 0.13835 0.0
C18 C 0.90803 0.79949 0.28605 0.0
O19 O 0.98451 0.83867 0.18725 0.0
O20 O 0.9417 0.88569 0.1637 0.0
O21 O 0.44402 0.29075 0.14015 0.0
Mn22 Mn 0.4898 0.29423 0.20917 0.0
O23 O 0.39843 0.33542 0.16637 0.0
Mn24 Mn 0.42635 0.35502 0.2391 0.0
O25 O 0.53701 0.29965 0.28115 0.0
O26 O 0.50046 0.23765 0.19072 0.0
Mn27 Mn 0.55498 0.2391 0.18368 0.0
O28 O 0.52931 0.31097 0.13492 0.0
O29 O 0.5815 0.25402 0.25985 0.0
O30 O 0.44705 0.27893 0.2851 0.0
O31 O 0.41755 0.33195 0.31897 0.0
O32 O 0.54488 0.19088 0.17522 0.0
O33 O 0.56973 0.26378 0.10747 0.0
C34 C 0.47943 0.38571 0.21357 0.0
C35 C 0.41073 0.30849 0.12982 0.0
C36 C 0.57019 0.28176 0.294 0.0
C37 C 0.50722 0.20201 0.17911 0.0
C38 C 0.55666 0.29634 0.09785 0.0
C39 C 0.42356 0.29744 0.32527 0.0
O40 O 0.47829 0.3497 0.2185 0.0
O41 O 0.44639 0.40217 0.23361 0.0
O42 O 0.94517 0.2842 0.89265 0.0
Mn43 Mn 0.99009 0.28203 0.82136 0.0
O44 O 0.9011 0.23794 0.87272 0.0
Mn45 Mn 0.92738 0.22071 0.79626 0.0
O46 O 0.03783 0.27924 0.7484 0.0
O47 O -0.00235 0.33935 0.8414 0.0
Mn48 Mn 0.05095 0.33558 0.85947 0.0
O49 O 0.03055 0.26405 0.89318 0.0
O50 O 0.0827 0.31969 0.78952 0.0
O51 O 0.94566 0.29718 0.74809 0.0
O52 O 0.91379 0.24456 0.71915 0.0
O53 O 0.04404 0.38398 0.86478 0.0
O54 O 0.06058 0.31219 0.93869 0.0
C55 C 0.98147 0.18989 0.81252 0.0
C56 C 0.91313 0.26565 0.90702 0.0
C57 C 0.07314 0.29524 0.74692 0.0
C58 C 0.00636 0.37466 0.85393 0.0
C59 C 0.05271 0.27806 0.93863 0.0
C60 C 0.9198 0.27896 0.71189 0.0
O61 O 0.98015 0.22611 0.81086 0.0
O62 O 0.94778 0.17375 0.79536 0.0
O63 O 0.45281 0.81372 0.89297 0.0
Mn64 Mn 0.49069 0.7942 0.81799 0.0
O65 O 0.42144 0.76665 0.93968 0.0
Mn66 Mn 0.43023 0.74092 0.8619 0.0
O67 O 0.53221 0.77727 0.74081 0.0
O68 O 0.50056 0.84947 0.80357 0.0
Mn69 Mn 0.55191 0.85504 0.77966 0.0
O70 O 0.53813 0.7938 0.88388 0.0
O71 O 0.55904 0.82982 0.70103 0.0
O72 O 0.44083 0.79561 0.74933 0.0
O73 O 0.39761 0.75435 0.79188 0.0
O74 O 0.5307 0.90197 0.78361 0.0
O75 O 0.58241 0.83774 0.85146 0.0
C76 C 0.47606 0.70259 0.85737 0.0
C77 C 0.43073 0.80052 0.93925 0.0
C78 C 0.55425 0.79501 0.69797 0.0
C79 C 0.49866 0.88555 0.80697 0.0
C80 C 0.57151 0.81175 0.89053 0.0
C81 C 0.40611 0.77861 0.74878 0.0
O82 O 0.48341 0.73768 0.84214 0.0
O83 O 0.4388 0.69281 0.87053 0.0
C84 C 0.97902 0.43713 0.83151 0.0
C85 C 0.97602 0.40423 0.86822 0.0
C86 C 0.96857 0.47146 0.86002 0.0
C87 C 0.92083 0.518 1.00883 0.0
H88 H 0.00609 0.59054 0.98041 0.0
C89 C 0.95255 0.63838 0.19382 0.0
C90 C 0.97215 0.67064 0.17188 0.0
C91 C 0.94327 0.60949 0.14944 0.0
C92 C 0.98134 0.57119 0.98818 0.0
H93 H 0.9592 0.38228 0.96407 0.0
H94 H 0.93817 0.4413 1.01228 0.0
H95 H 0.00629 0.53351 0.91608 0.0
H96 H -0.00381 0.69822 0.08505 0.0
H97 H 0.97835 0.64879 1.00686 0.0
H98 H 0.89625 0.5555 0.0818 0.0
C99 C 0.94816 0.44069 0.96092 0.0
C100 C 0.98152 0.53817 0.95103 0.0
C101 C 0.95914 0.40639 0.93253 0.0
C102 C 0.97981 0.67432 0.10339 0.0
C103 C 0.97049 0.64541 0.05877 0.0
C104 C 0.92048 0.55119 0.04575 0.0
C105 C 0.95468 0.47395 0.92627 0.0
C106 C 0.95164 0.51076 0.96139 0.0
C107 C 0.95375 0.61179 0.08156 0.0
C108 C 0.95115 0.57815 0.03693 0.0
H109 H -0.00654 0.43675 0.78294 0.0
H110 H 0.97362 0.49629 0.8313 0.0
H111 H 0.89704 0.49784 0.01787 0.0
H112 H 0.94764 0.63408 0.2465 0.0
H113 H 0.93084 0.58421 0.16969 0.0
C114 C 0.52344 0.44051 0.1959 0.0
C115 C 0.50709 0.40747 0.17028 0.0
C116 C 0.53381 0.46995 0.15387 0.0
C117 C 0.50364 0.50705 0.98863 0.0
H118 H 0.58228 0.5836 0.03126 0.0
C119 C 0.50637 0.64106 0.83543 0.0
C120 C 0.50745 0.6742 0.87235 0.0
C121 C 0.51711 0.60715 0.86445 0.0
C122 C 0.56003 0.5626 0.01859 0.0
H123 H 0.49009 0.37917 0.07949 0.0
H124 H 0.50996 0.4296 1.00564 0.0
H125 H 0.58195 0.52614 0.09446 0.0
H126 H 0.52213 0.69734 0.96864 0.0
H127 H 0.54259 0.63892 0.01846 0.0
H128 H 0.48103 0.54364 0.914 0.0
C129 C 0.51437 0.43315 0.0586 0.0
C130 C 0.55979 0.52947 0.05506 0.0
C131 C 0.5039 0.40371 0.10086 0.0
C132 C 0.52306 0.67285 0.9374 0.0
C133 C 0.53395 0.63893 0.96655 0.0
C134 C 0.50396 0.54004 0.95214 0.0
C135 C 0.52773 0.46741 0.08465 0.0
C136 C 0.53118 0.50128 0.04138 0.0
C137 C 0.52907 0.60528 0.93163 0.0
C138 C 0.5318 0.56864 0.96693 0.0
H139 H 0.5248 0.44485 0.24919 0.0
H140 H 0.54352 0.49569 0.17652 0.0
H141 H 0.48045 0.48671 0.97702 0.0
H142 H 0.49312 0.64082 0.78612 0.0
H143 H 0.51365 0.58211 0.8352 0.0
C144 C 0.47713 0.90459 0.92132 0.0
C145 C 0.47228 0.90786 0.85216 0.0
C146 C 0.46744 0.93432 0.9642 0.0
C147 C 0.42289 1.0316 0.96876 0.0
H148 H 0.50063 0.04418 0.11196 0.0
C149 C 0.46392 0.17386 0.09113 0.0
C150 C 0.47623 0.17447 0.15809 0.0
C151 C 0.45261 0.14049 0.05979 0.0
C152 C 0.47809 0.04102 0.07301 0.0
H153 H 0.4528 0.94481 0.77439 0.0
H154 H 0.43599 0.99625 0.84785 0.0
H155 H 0.50069 0.98719 0.04782 0.0
H156 H 0.48476 0.14044 0.24492 0.0
H157 H 0.46418 0.08266 0.19142 0.0
H158 H 0.40176 0.0865 0.99264 0.0
C159 C 0.44607 0.97063 0.87011 0.0
C160 C 0.47802 1.00798 0.03596 0.0
C161 C 0.45539 0.94083 0.82756 0.0
C162 C 0.47405 0.14127 0.19402 0.0
C163 C 0.46318 0.1079 0.16273 0.0
C164 C 0.42327 0.06488 1.00551 0.0
C165 C 0.45354 0.96853 0.939 0.0
C166 C 0.45071 1.00269 0.98259 0.0
C167 C 0.45416 0.10667 0.09433 0.0
C168 C 0.4511 0.07024 0.05796 0.0
H169 H 0.49146 0.88015 0.94187 0.0
H170 H 0.47281 0.93095 0.01687 0.0
H171 H 0.40081 1.02874 0.9291 0.0
H172 H 0.46761 0.19829 0.06083 0.0
H173 H 0.44627 0.1408 1.007 0.0
C174 C 0.02374 0.89807 0.08324 0.0
C175 C 0.01098 0.90008 0.14997 0.0
C176 C 0.03548 0.93004 0.04863 0.0
C177 C 0.05258 1.03344 0.06613 0.0
H178 H 0.00822 1.03401 0.88781 0.0
C179 C 0.00858 0.16764 0.92074 0.0
C180 C 0.01066 0.16693 0.85081 0.0
C181 C 0.01978 0.13642 0.95823 0.0
C182 C 0.02157 1.03442 0.937 0.0
H183 H 0.00211 0.9375 0.23293 0.0
H184 H 0.02257 0.99297 0.17366 0.0
H185 H 0.00859 0.97707 0.95055 0.0
H186 H 0.02733 0.13307 0.76608 0.0
H187 H 0.04806 0.07935 0.83076 0.0
H188 H 0.06389 0.09152 0.05278 0.0
C189 C 0.02464 0.96669 0.14778 0.0
C190 C 0.02189 1.00141 0.97334 0.0
C191 C 0.01337 0.93459 0.18244 0.0
C192 C 0.02672 0.13508 0.81984 0.0
C193 C 0.03769 0.10388 0.85707 0.0
C194 C 0.05201 0.06664 0.02975 0.0
C195 C 0.03387 0.96526 0.07928 0.0
C196 C 0.03711 1.00025 0.03882 0.0
C197 C 0.0326 0.1034 0.92665 0.0
C198 C 0.03625 0.06772 0.96466 0.0
H199 H 0.01999 0.8726 0.05535 0.0
H200 H 0.04322 0.92733 0.99647 0.0
H201 H 0.06504 1.03392 0.1159 0.0
H202 H -0.00521 0.1911 0.94614 0.0
H203 H 0.01513 0.13725 1.01153 0.0
C204 C 0.33335 0.77232 0.71274 0.0
C205 C 0.37258 0.78698 0.70007 0.0
C206 C 0.30093 0.77772 0.66915 0.0
C207 C 0.25835 0.83455 0.53453 0.0
H208 H 0.19119 0.74731 0.50939 0.0
C209 C 0.11497 0.82064 0.35534 0.0
C210 C 0.08283 0.79836 0.37899 0.0
C211 C 0.15087 0.82552 0.39315 0.0
C212 C 0.20924 0.77213 0.51626 0.0
H213 H 0.40721 0.82047 0.63108 0.0
H214 H 0.34957 0.82989 0.5533 0.0
H215 H 0.25433 0.74282 0.57187 0.0
H216 H 0.06215 0.76604 0.46263 0.0
H217 H 0.12342 0.77557 0.52916 0.0
H218 H 0.21255 0.86367 0.47799 0.0
C219 C 0.34463 0.81394 0.59799 0.0
C220 C 0.24572 0.76952 0.55201 0.0
C221 C 0.37771 0.80847 0.64238 0.0
C222 C 0.08598 0.78385 0.44343 0.0
C223 C 0.12154 0.78877 0.48105 0.0
C224 C 0.22159 0.83714 0.498 0.0
C225 C 0.30594 0.79793 0.61044 0.0
C226 C 0.27035 0.80081 0.56351 0.0
C227 C 0.15537 0.80804 0.45518 0.0
C228 C 0.19594 0.80608 0.49005 0.0
H229 H 0.32724 0.75629 0.75697 0.0
H230 H 0.27154 0.76584 0.68181 0.0
H231 H 0.27648 0.85923 0.54231 0.0
H232 H 0.11405 0.83126 0.30512 0.0
H233 H 0.17623 0.84053 0.37158 0.0
C234 C 0.14673 0.29622 0.71415 0.0
C235 C 0.10643 0.28543 0.69823 0.0
C236 C 0.17901 0.29106 0.66981 0.0
C237 C 0.22031 0.24009 0.52756 0.0
H238 H 0.28724 0.32802 0.51094 0.0
C239 C 0.36417 0.25606 0.35015 0.0
C240 C 0.39576 0.27912 0.37338 0.0
C241 C 0.32838 0.25081 0.38829 0.0
C242 C 0.26936 0.30297 0.51545 0.0
H243 H 0.06967 0.25841 0.62298 0.0
H244 H 0.12728 0.24903 0.54406 0.0
H245 H 0.22413 0.33069 0.57458 0.0
H246 H 0.41565 0.31262 0.4565 0.0
H247 H 0.3548 0.30217 0.52399 0.0
H248 H 0.2664 0.21237 0.46848 0.0
C249 C 0.13306 0.26199 0.59177 0.0
C250 C 0.2328 0.30461 0.55161 0.0
C251 C 0.10006 0.26737 0.63685 0.0
C252 C 0.39224 0.29419 0.43767 0.0
C253 C 0.35685 0.28878 0.47578 0.0
C254 C 0.25725 0.23843 0.49093 0.0
C255 C 0.17278 0.27473 0.60737 0.0
C256 C 0.20818 0.27308 0.55974 0.0
C257 C 0.32345 0.26864 0.45036 0.0
C258 C 0.28286 0.2697 0.48591 0.0
H259 H 0.1537 0.30933 0.76133 0.0
H260 H 0.20918 0.30035 0.68446 0.0
H261 H 0.20217 0.21526 0.53297 0.0
H262 H 0.36539 0.24498 0.30002 0.0
H263 H 0.30345 0.23512 0.36694 0.0
C264 C 0.89146 0.30551 0.60568 0.0
C265 C 0.88716 0.29787 0.67377 0.0
C266 C 0.8566 0.31127 0.56573 0.0
C267 C 0.75263 0.27748 0.55297 0.0
H268 H 0.72737 0.35975 0.43751 0.0
C269 C 0.59954 0.28041 0.40893 0.0
C270 C 0.59968 0.29507 0.34454 0.0
C271 C 0.63337 0.2853 0.45111 0.0
C272 C 0.73405 0.33622 0.46871 0.0
H273 H 0.84318 0.29075 0.75332 0.0
H274 H 0.78293 0.30022 0.68406 0.0
H275 H 0.79014 0.36065 0.50376 0.0
H276 H 0.63542 0.32592 0.27341 0.0
H277 H 0.69432 0.33434 0.34596 0.0
H278 H 0.69802 0.25207 0.51687 0.0
C279 C 0.81297 0.30254 0.66156 0.0
C280 C 0.7701 0.3369 0.50687 0.0
C281 C 0.84756 0.29764 0.70141 0.0
C282 C 0.63394 0.31538 0.32368 0.0
C283 C 0.66788 0.32004 0.36548 0.0
C284 C 0.71708 0.27645 0.51414 0.0
C285 C 0.81691 0.30832 0.5929 0.0
C286 C 0.77961 0.30767 0.54993 0.0
C287 C 0.66869 0.30432 0.42948 0.0
C288 C 0.70682 0.30594 0.47165 0.0
H289 H 0.92142 0.3046 0.58261 0.0
H290 H 0.86059 0.31552 0.51287 0.0
H291 H 0.75935 0.25426 0.585 0.0
H292 H 0.57405 0.26373 0.42558 0.0
H293 H 0.63208 0.27329 0.50021 0.0
C294 C 0.83487 0.80395 0.32085 0.0
C295 C 0.87437 0.78999 0.33398 0.0
C296 C 0.80223 0.79787 0.36393 0.0
C297 C 0.75979 0.7405 0.49791 0.0
H298 H 0.69102 0.82717 0.52257 0.0
C299 C 0.61473 0.75406 0.67549 0.0
C300 C 0.58247 0.77593 0.65091 0.0
C301 C 0.65098 0.74911 0.63818 0.0
C302 C 0.70954 0.80252 0.51586 0.0
H303 H 0.90933 0.75679 0.40291 0.0
H304 H 0.85128 0.74623 0.47999 0.0
H305 H 0.75466 0.83228 0.46107 0.0
H306 H 0.56192 0.80738 0.56619 0.0
H307 H 0.62386 0.79771 0.50055 0.0
H308 H 0.71393 0.71095 0.5537 0.0
C309 C 0.84629 0.76217 0.43534 0.0
C310 C 0.7463 0.80547 0.48067 0.0
C311 C 0.87958 0.76829 0.39136 0.0
C312 C 0.58583 0.78984 0.58606 0.0
C313 C 0.62176 0.78486 0.54894 0.0
C314 C 0.72275 0.73758 0.53394 0.0
C315 C 0.80732 0.77766 0.42261 0.0
C316 C 0.7715 0.77439 0.46927 0.0
C317 C 0.65568 0.76612 0.57577 0.0
C318 C 0.69655 0.76842 0.54163 0.0
H319 H 0.82874 0.81995 0.2766 0.0
H320 H 0.77264 0.80927 0.35099 0.0
H321 H 0.77837 0.71599 0.49022 0.0
H322 H 0.61362 0.74394 0.72604 0.0
H323 H 0.67642 0.73453 0.66045 0.0
C324 C 0.38989 0.85768 0.9452 0.0
C325 C 0.40481 0.82603 0.97756 0.0
C326 C 0.35194 0.87223 0.96256 0.0
C327 C 0.27012 0.82938 0.95344 0.0
H328 H 0.19738 0.86525 0.09188 0.0
C329 C 0.13683 0.75588 0.07349 0.0
C330 C 0.10148 0.77646 0.08819 0.0
C331 C 0.16887 0.77227 0.03878 0.0
C332 C 0.21721 0.85605 0.05176 0.0
H333 H 0.39625 0.78938 0.06114 0.0
H334 H 0.32973 0.81508 0.09176 0.0
H335 H 0.2691 0.88502 0.09121 0.0
H336 H 0.06994 0.82848 0.07164 0.0
H337 H 0.1266 0.85746 1.01347 0.0
H338 H 0.21985 0.79665 0.91908 0.0
C339 C 0.34731 0.82853 0.05308 0.0
C340 C 0.25796 0.86729 0.05165 0.0
C341 C 0.38518 0.81363 0.0353 0.0
C342 C 0.09696 0.81213 0.06157 0.0
C343 C 0.12921 0.82873 0.02807 0.0
C344 C 0.22978 0.8174 0.95461 0.0
C345 C 0.32898 0.85525 1.0124 0.0
C346 C 0.28475 0.853 1.00375 0.0
C347 C 0.16595 0.80945 0.01941 0.0
C348 C 0.2036 0.82966 1.00523 0.0
H349 H 0.40383 0.86739 0.89974 0.0
H350 H 0.33801 0.89266 0.93048 0.0
H351 H 0.29086 0.81761 0.91677 0.0
H352 H 0.14089 0.72815 0.09257 0.0
H353 H 0.19728 0.75708 0.03272 0.0
C354 C 0.10267 0.26703 0.02918 0.0
C355 C 0.08036 0.25342 0.97491 0.0
C356 C 0.14054 0.25141 0.04421 0.0
C357 C 0.22632 0.20718 0.04268 0.0
H358 H 0.26864 0.27073 0.90329 0.0
C359 C 0.38809 0.25784 0.05463 0.0
C360 C 0.38325 0.29432 0.07811 0.0
C361 C 0.35676 0.2407 0.01954 0.0
C362 C 0.25752 0.25172 0.94064 0.0
H363 H 0.07716 0.2098 0.9004 0.0
H364 H 0.1429 0.18319 0.92649 0.0
H365 H 0.19639 0.25359 0.90371 0.0
H366 H 0.34472 0.34326 0.07524 0.0
H367 H 0.29008 0.31339 1.01307 0.0
H368 H 0.2869 0.20751 0.08224 0.0
C369 C 0.13101 0.20518 0.95797 0.0
C370 C 0.21642 0.24197 0.94109 0.0
C371 C 0.09309 0.22048 0.94338 0.0
C372 C 0.34895 0.31493 0.05864 0.0
C373 C 0.31795 0.29799 0.02245 0.0
C374 C 0.26774 0.21611 0.04125 0.0
C375 C 0.15618 0.22257 1.00446 0.0
C376 C 0.20035 0.22134 0.99403 0.0
C377 C 0.32074 0.26022 1.00631 0.0
C378 C 0.28291 0.24017 0.99238 0.0
H379 H 0.0934 0.2923 0.05435 0.0
H380 H 0.15993 0.26528 0.08014 0.0
H381 H 0.2141 0.1917 0.08416 0.0
H382 H 0.41436 0.24145 0.06848 0.0
H383 H 0.35925 0.2115 1.00759 0.0
C384 C 0.60339 0.30589 1.00238 0.0
C385 C 0.5816 0.32066 0.0565 0.0
C386 C 0.64003 0.32223 0.98288 0.0
C387 C 0.72511 0.36483 0.9753 0.0
H388 H 0.76855 0.31224 0.12787 0.0
C389 C 0.88867 0.31859 0.97522 0.0
C390 C 0.88585 0.28085 0.95858 0.0
C391 C 0.85628 0.33649 1.00683 0.0
C392 C 0.75708 0.32819 0.08643 0.0
H393 H 0.57734 0.36661 0.12599 0.0
H394 H 0.6414 0.39439 0.09279 0.0
H395 H 0.69616 0.32918 0.12493 0.0
H396 H 0.85017 0.2309 0.97122 0.0
H397 H 0.7936 0.26217 0.02795 0.0
H398 H 0.78557 0.3616 0.93492 0.0
C399 C 0.62994 0.37104 0.06447 0.0
C400 C 0.71592 0.33794 0.08463 0.0
C401 C 0.59308 0.35508 0.08325 0.0
C402 C 0.85279 0.26014 0.98254 0.0
C403 C 0.82068 0.27794 0.01545 0.0
C404 C 0.76659 0.35601 0.97795 0.0
C405 C 0.65518 0.35271 0.01865 0.0
C406 C 0.69944 0.35469 0.02771 0.0
C407 C 0.8212 0.31657 0.02355 0.0
C408 C 0.78223 0.33602 0.03204 0.0
H409 H 0.59492 0.27942 0.98097 0.0
H410 H 0.65934 0.3077 0.94738 0.0
H411 H 0.71262 0.37706 0.93069 0.0
H412 H 0.91384 0.33513 0.95759 0.0
H413 H 0.85707 0.36632 1.01264 0.0
C414 C 0.88959 0.7205 0.08511 0.0
C415 C 0.90333 0.75316 0.05485 0.0
C416 C 0.85226 0.70528 0.06689 0.0
C417 C 0.768 0.74468 0.07776 0.0
H418 H 0.69907 0.71111 0.93343 0.0
C419 C 0.63587 0.81867 0.95562 0.0
C420 C 0.60067 0.79828 0.94027 0.0
C421 C 0.66775 0.80197 0.99011 0.0
C422 C 0.71783 0.71959 0.97512 0.0
H423 H 0.89331 0.79153 0.97428 0.0
H424 H 0.82798 0.76457 0.94187 0.0
H425 H 0.7714 0.69294 0.93528 0.0
H426 H 0.56927 0.74608 0.9551 0.0
H427 H 0.62587 0.71656 1.01271 0.0
H428 H 0.71607 0.77551 0.11257 0.0
C429 C 0.846 0.75081 0.97957 0.0
C430 C 0.75893 0.70924 0.97595 0.0
C431 C 0.88316 0.76642 0.99839 0.0
C432 C 0.59619 0.76233 0.96573 0.0
C433 C 0.62837 0.74541 0.99892 0.0
C434 C 0.72731 0.75586 0.07589 0.0
C435 C 0.82877 0.72257 0.01813 0.0
C436 C 0.78438 0.72287 0.02601 0.0
C437 C 0.66488 0.76467 1.00858 0.0
C438 C 0.70254 0.74448 0.02314 0.0
H439 H 0.90395 0.71018 0.12967 0.0
H440 H 0.83914 0.68372 0.09743 0.0
H441 H 0.78765 0.75599 0.11611 0.0
H442 H 0.6399 0.84656 0.93731 0.0
H443 H 0.69603 0.81709 0.99688 0.0
loop_
_geom_bond_atom_site_label_1
_geom_bond_atom_site_label_2
_geom_bond_distance
_geom_bond_site_symmetry_2
_ccdc_geom_bond_type
O0 Mn1 2.160 1_655 S
O0 C14 1.244 . S
Mn1 O0 2.160 1_455 S
Mn1 O4 2.163 . S
Mn1 O5 2.222 . S
Mn1 O7 2.166 . S
Mn1 O9 2.156 1_455 S
Mn1 O19 2.220 1_455 S
O2 Mn3 2.087 . S
O2 C14 1.256 . S
Mn3 O2 2.087 . S
Mn3 O10 2.089 . S
Mn3 O19 2.290 . S
Mn3 O20 2.251 . S
O4 Mn1 2.163 . S
O4 C15 1.239 . S
O5 Mn1 2.222 . S
O5 Mn6 2.290 . S
O5 C16 1.278 . S
Mn6 O5 2.290 . S
Mn6 O8 2.089 . S
Mn6 O11 2.251 . S
Mn6 O12 2.087 . S
O7 Mn1 2.166 . S
O7 C17 1.244 . S
O8 Mn6 2.089 . S
O8 C15 1.256 . S
O9 Mn1 2.156 1_655 S
O9 C18 1.239 . S
O10 Mn3 2.089 . S
O10 C18 1.256 . S
O11 Mn6 2.251 . S
O11 C16 1.241 . S
O12 Mn6 2.087 . S
O12 C17 1.256 . S
C13 O19 1.278 . S
C13 O20 1.241 . S
C14 O0 1.244 . S
C14 O2 1.256 . S
C15 O4 1.239 . S
C15 O8 1.256 . S
C16 O5 1.278 . S
C16 O11 1.241 . S
C17 O7 1.244 . S
C17 O12 1.256 . S
C18 O9 1.239 . S
C18 O10 1.256 . S
O19 Mn1 2.220 1_655 S
O19 Mn3 2.290 . S
O19 C13 1.278 . S
O20 Mn3 2.251 . S
O20 C13 1.241 . S
O21 Mn22 2.163 . S
O21 C35 1.244 . S
Mn22 O21 2.163 . S
Mn22 O25 2.160 . S
Mn22 O26 2.221 . S
Mn22 O28 2.163 . S
Mn22 O30 2.160 . S
Mn22 O40 2.221 . S
O23 Mn24 2.087 . S
O23 C35 1.256 . S
Mn24 O23 2.087 . S
Mn24 O31 2.089 . S
Mn24 O40 2.290 . S
Mn24 O41 2.251 . S
O25 Mn22 2.160 . S
O25 C36 1.239 . S
O26 Mn22 2.221 . S
O26 Mn27 2.290 . S
O26 C37 1.278 . S
Mn27 O26 2.290 . S
Mn27 O29 2.089 . S
Mn27 O32 2.251 . S
Mn27 O33 2.087 . S
O28 Mn22 2.163 . S
O28 C38 1.244 . S
O29 Mn27 2.089 . S
O29 C36 1.256 . S
O30 Mn22 2.160 . S
O30 C39 1.239 . S
O31 Mn24 2.089 . S
O31 C39 1.256 . S
O32 Mn27 2.251 . S
O32 C37 1.241 . S
O33 Mn27 2.087 . S
O33 C38 1.256 . S
C34 O40 1.278 . S
C34 O41 1.241 . S
C35 O21 1.244 . S
C35 O23 1.256 . S
C36 O25 1.239 . S
C36 O29 1.256 . S
C37 O26 1.278 . S
C37 O32 1.241 . S
C38 O28 1.244 . S
C38 O33 1.256 . S
C39 O30 1.239 . S
C39 O31 1.256 . S
O40 Mn22 2.221 . S
O40 Mn24 2.290 . S
O40 C34 1.278 . S
O41 Mn24 2.251 . S
O41 C34 1.241 . S
O42 Mn43 2.160 1_655 S
O42 C56 1.244 . S
Mn43 O42 2.160 1_455 S
Mn43 O46 2.163 . S
Mn43 O47 2.222 . S
Mn43 O49 2.166 . S
Mn43 O51 2.157 1_455 S
Mn43 O61 2.220 1_455 S
O44 Mn45 2.087 . S
O44 C56 1.256 . S
Mn45 O44 2.087 . S
Mn45 O52 2.089 . S
Mn45 O61 2.290 . S
Mn45 O62 2.251 . S
O46 Mn43 2.163 . S
O46 C57 1.239 . S
O47 Mn43 2.222 . S
O47 Mn48 2.290 . S
O47 C58 1.278 . S
Mn48 O47 2.290 . S
Mn48 O50 2.089 . S
Mn48 O53 2.251 . S
Mn48 O54 2.087 . S
O49 Mn43 2.166 . S
O49 C59 1.244 . S
O50 Mn48 2.089 . S
O50 C57 1.256 . S
O51 Mn43 2.157 1_655 S
O51 C60 1.239 . S
O52 Mn45 2.089 . S
O52 C60 1.256 . S
O53 Mn48 2.251 . S
O53 C58 1.241 . S
O54 Mn48 2.087 . S
O54 C59 1.256 . S
C55 O61 1.278 . S
C55 O62 1.241 . S
C56 O42 1.244 . S
C56 O44 1.256 . S
C57 O46 1.239 . S
C57 O50 1.256 . S
C58 O47 1.278 . S
C58 O53 1.241 . S
C59 O49 1.244 . S
C59 O54 1.256 . S
C60 O51 1.239 . S
C60 O52 1.256 . S
O61 Mn43 2.220 1_655 S
O61 Mn45 2.290 . S
O61 C55 1.278 . S
O62 Mn45 2.251 . S
O62 C55 1.241 . S
O63 Mn64 2.163 . S
O63 C77 1.244 . S
Mn64 O63 2.163 . S
Mn64 O67 2.160 . S
Mn64 O68 2.221 . S
Mn64 O70 2.163 . S
Mn64 O72 2.160 . S
Mn64 O82 2.221 . S
O65 Mn66 2.087 . S
O65 C77 1.256 . S
Mn66 O65 2.087 . S
Mn66 O73 2.089 . S
Mn66 O82 2.290 . S
Mn66 O83 2.251 . S
O67 Mn64 2.160 . S
O67 C78 1.239 . S
O68 Mn64 2.221 . S
O68 Mn69 2.290 . S
O68 C79 1.278 . S
Mn69 O68 2.290 . S
Mn69 O71 2.089 . S
Mn69 O74 2.251 . S
Mn69 O75 2.087 . S
O70 Mn64 2.163 . S
O70 C80 1.244 . S
O71 Mn69 2.089 . S
O71 C78 1.256 . S
O72 Mn64 2.160 . S
O72 C81 1.239 . S
O73 Mn66 2.089 . S
O73 C81 1.256 . S
O74 Mn69 2.251 . S
O74 C79 1.241 . S
O75 Mn69 2.087 . S
O75 C80 1.256 . S
C76 O82 1.278 . S
C76 O83 1.241 . S
C77 O63 1.244 . S
C77 O65 1.256 . S
C78 O67 1.239 . S
C78 O71 1.256 . S
C79 O68 1.278 . S
C79 O74 1.241 . S
C80 O70 1.244 . S
C80 O75 1.256 . S
C81 O72 1.239 . S
C81 O73 1.256 . S
O82 Mn64 2.221 . S
O82 Mn66 2.290 . S
O82 C76 1.278 . S
O83 Mn66 2.251 . S
O83 C76 1.241 . S
C84 C85 1.349 1_455 S
C84 C86 1.327 . S
C84 H109 0.950 . S
C85 C84 1.349 1_655 S
C85 C101 1.349 . S
C86 C84 1.327 . S
C86 C105 1.429 1_455 S
C86 H110 0.950 . S
C87 C104 1.574 1_556 S
C87 C106 1.368 . S
C87 H111 0.949 . S
H88 C92 0.949 . S
C89 C90 1.349 . S
C89 C91 1.327 . S
C89 H112 0.950 . S
C90 C89 1.349 . S
C90 C102 1.349 1_655 S
C91 C89 1.327 . S
C91 C107 1.429 . S
C91 H113 0.950 . S
C92 H88 0.949 . S
C92 C100 1.574 1_554 S
C92 C108 1.368 1_455 S
H93 C101 0.950 . S
H94 C99 0.950 . S
H95 C100 0.949 . S
H96 C102 0.950 . S
H97 C103 0.950 . S
H98 C104 0.949 . S
C99 H94 0.950 . S
C99 C101 1.327 . S
C99 C105 1.429 . S
C100 C92 1.574 1_556 S
C100 H95 0.949 . S
C100 C106 1.368 1_455 S
C101 C85 1.349 . S
C101 H93 0.950 . S
C101 C99 1.327 . S
C102 C90 1.349 1_455 S
C102 H96 0.950 . S
C102 C103 1.327 . S
C103 H97 0.950 . S
C103 C102 1.327 . S
C103 C107 1.429 1_455 S
C104 C87 1.574 1_554 S
C104 H98 0.949 . S
C104 C108 1.368 . S
C105 C86 1.429 1_655 S
C105 C99 1.429 . S
C105 C106 1.523 . S
C106 C87 1.368 . S
C106 C100 1.368 1_655 S
C106 C105 1.523 . S
C107 C91 1.429 . S
C107 C103 1.429 1_655 S
C107 C108 1.523 . S
C108 C92 1.368 1_655 S
C108 C104 1.368 . S
C108 C107 1.523 . S
H109 C84 0.950 . S
H110 C86 0.950 . S
H111 C87 0.949 . S
H112 C89 0.950 . S
H113 C91 0.950 . S
C114 C115 1.349 . S
C114 C116 1.327 . S
C114 H139 0.950 . S
C115 C114 1.349 . S
C115 C131 1.349 . S
C116 C114 1.327 . S
C116 C135 1.429 . S
C116 H140 0.950 . S
C117 C134 1.574 . S
C117 C136 1.368 1_556 S
C117 H141 0.949 . S
H118 C122 0.949 . S
C119 C120 1.349 . S
C119 C121 1.327 . S
C119 H142 0.950 . S
C120 C119 1.349 . S
C120 C132 1.349 . S
C121 C119 1.327 . S
C121 C137 1.429 . S
C121 H143 0.950 . S
C122 H118 0.949 . S
C122 C130 1.574 . S
C122 C138 1.368 1_554 S
H123 C131 0.950 . S
H124 C129 0.950 . S
H125 C130 0.949 . S
H126 C132 0.950 . S
H127 C133 0.950 . S
H128 C134 0.949 . S
C129 H124 0.950 . S
C129 C131 1.327 . S
C129 C135 1.429 . S
C130 C122 1.574 . S
C130 H125 0.949 . S
C130 C136 1.368 . S
C131 C115 1.349 . S
C131 H123 0.950 . S
C131 C129 1.327 . S
C132 C120 1.349 . S
C132 H126 0.950 . S
C132 C133 1.327 . S
C133 H127 0.950 . S
C133 C132 1.327 . S
C133 C137 1.429 . S
C134 C117 1.574 . S
C134 H128 0.949 . S
C134 C138 1.368 . S
C135 C116 1.429 . S
C135 C129 1.429 . S
C135 C136 1.523 . S
C136 C117 1.368 1_554 S
C136 C130 1.368 . S
C136 C135 1.523 . S
C137 C121 1.429 . S
C137 C133 1.429 . S
C137 C138 1.523 . S
C138 C122 1.368 1_556 S
C138 C134 1.368 . S
C138 C137 1.523 . S
H139 C114 0.950 . S
H140 C116 0.950 . S
H141 C117 0.949 . S
H142 C119 0.950 . S
H143 C121 0.950 . S
C144 C145 1.349 . S
C144 C146 1.327 . S
C144 H169 0.950 . S
C145 C144 1.349 . S
C145 C161 1.349 . S
C146 C144 1.327 . S
C146 C165 1.429 . S
C146 H170 0.950 . S
C147 C164 1.574 1_565 S
C147 C166 1.368 . S
C147 H171 0.949 . S
H148 C152 0.949 . S
C149 C150 1.349 . S
C149 C151 1.327 . S
C149 H172 0.950 . S
C150 C149 1.349 . S
C150 C162 1.349 . S
C151 C149 1.327 . S
C151 C167 1.429 . S
C151 H173 0.950 . S
C152 H148 0.949 . S
C152 C160 1.574 1_545 S
C152 C168 1.368 . S
H153 C161 0.950 . S
H154 C159 0.950 . S
H155 C160 0.949 . S
H156 C162 0.950 . S
H157 C163 0.950 . S
H158 C164 0.949 . S
C159 H154 0.950 . S
C159 C161 1.327 . S
C159 C165 1.429 . S
C160 C152 1.574 1_565 S
C160 H155 0.949 . S
C160 C166 1.368 1_554 S
C161 C145 1.349 . S
C161 H153 0.950 . S
C161 C159 1.327 . S
C162 C150 1.349 . S
C162 H156 0.950 . S
C162 C163 1.327 . S
C163 H157 0.950 . S
C163 C162 1.327 . S
C163 C167 1.429 . S
C164 C147 1.574 1_545 S
C164 H158 0.949 . S
C164 C168 1.368 1_556 S
C165 C146 1.429 . S
C165 C159 1.429 . S
C165 C166 1.523 . S
C166 C147 1.368 . S
C166 C160 1.368 1_556 S
C166 C165 1.523 . S
C167 C151 1.429 . S
C167 C163 1.429 . S
C167 C168 1.523 . S
C168 C152 1.368 . S
C168 C164 1.368 1_554 S
C168 C167 1.523 . S
H169 C144 0.950 . S
H170 C146 0.950 . S
H171 C147 0.949 . S
H172 C149 0.950 . S
H173 C151 0.950 . S
C174 C175 1.349 1_655 S
C174 C176 1.327 . S
C174 H199 0.950 . S
C175 C174 1.349 1_455 S
C175 C191 1.349 . S
C176 C174 1.327 . S
C176 C195 1.429 1_655 S
C176 H200 0.950 . S
C177 C194 1.574 1_565 S
C177 C196 1.368 . S
C177 H201 0.949 . S
H178 C182 0.949 . S
C179 C180 1.349 . S
C179 C181 1.327 . S
C179 H202 0.950 . S
C180 C179 1.349 . S
C180 C192 1.349 1_455 S
C181 C179 1.327 . S
C181 C197 1.429 . S
C181 H203 0.950 . S
C182 H178 0.949 . S
C182 C190 1.574 1_545 S
C182 C198 1.368 1_655 S
H183 C191 0.950 . S
H184 C189 0.950 . S
H185 C190 0.949 . S
H186 C192 0.950 . S
H187 C193 0.950 . S
H188 C194 0.949 . S
C189 H184 0.950 . S
C189 C191 1.327 . S
C189 C195 1.429 . S
C190 C182 1.574 1_565 S
C190 H185 0.949 . S
C190 C196 1.368 1_656 S
C191 C175 1.349 . S
C191 H183 0.950 . S
C191 C189 1.327 . S
C192 C180 1.349 1_655 S
C192 H186 0.950 . S
C192 C193 1.327 . S
C193 H187 0.950 . S
C193 C192 1.327 . S
C193 C197 1.429 1_655 S
C194 C177 1.574 1_545 S
C194 H188 0.949 . S
C194 C198 1.368 1_554 S
C195 C176 1.429 1_455 S
C195 C189 1.429 . S
C195 C196 1.523 . S
C196 C177 1.368 . S
C196 C190 1.368 1_454 S
C196 C195 1.523 . S
C197 C181 1.429 . S
C197 C193 1.429 1_455 S
C197 C198 1.523 . S
C198 C182 1.368 1_455 S
C198 C194 1.368 1_556 S
C198 C197 1.523 . S
H199 C174 0.950 . S
H200 C176 0.950 . S
H201 C177 0.949 . S
H202 C179 0.950 . S
H203 C181 0.950 . S
C204 C205 1.349 . S
C204 C206 1.327 . S
C204 H229 0.950 . S
C205 C204 1.349 . S
C205 C221 1.349 . S
C206 C204 1.327 . S
C206 C225 1.429 . S
C206 H230 0.950 . S
C207 C224 1.574 . S
C207 C226 1.368 . S
C207 H231 0.949 . S
H208 C212 0.949 . S
C209 C210 1.349 . S
C209 C211 1.327 . S
C209 H232 0.950 . S
C210 C209 1.349 . S
C210 C222 1.349 . S
C211 C209 1.327 . S
C211 C227 1.429 . S
C211 H233 0.950 . S
C212 H208 0.949 . S
C212 C220 1.574 . S
C212 C228 1.368 . S
H213 C221 0.950 . S
H214 C219 0.950 . S
H215 C220 0.949 . S
H216 C222 0.950 . S
H217 C223 0.950 . S
H218 C224 0.949 . S
C219 H214 0.950 . S
C219 C221 1.327 . S
C219 C225 1.429 . S
C220 C212 1.574 . S
C220 H215 0.949 . S
C220 C226 1.368 . S
C221 C205 1.349 . S
C221 H213 0.950 . S
C221 C219 1.327 . S
C222 C210 1.349 . S
C222 H216 0.950 . S
C222 C223 1.327 . S
C223 H217 0.950 . S
C223 C222 1.327 . S
C223 C227 1.429 . S
C224 C207 1.574 . S
C224 H218 0.949 . S
C224 C228 1.368 . S
C225 C206 1.429 . S
C225 C219 1.429 . S
C225 C226 1.523 . S
C226 C207 1.368 . S
C226 C220 1.368 . S
C226 C225 1.523 . S
C227 C211 1.429 . S
C227 C223 1.429 . S
C227 C228 1.523 . S
C228 C212 1.368 . S
C228 C224 1.368 . S
C228 C227 1.523 . S
H229 C204 0.950 . S
H230 C206 0.950 . S
H231 C207 0.949 . S
H232 C209 0.950 . S
H233 C211 0.950 . S
C234 C235 1.349 . S
C234 C236 1.327 . S
C234 H259 0.950 . S
C235 C234 1.349 . S
C235 C251 1.349 . S
C236 C234 1.327 . S
C236 C255 1.429 . S
C236 H260 0.950 . S
C237 C254 1.574 . S
C237 C256 1.368 . S
C237 H261 0.949 . S
H238 C242 0.949 . S
C239 C240 1.349 . S
C239 C241 1.327 . S
C239 H262 0.950 . S
C240 C239 1.349 . S
C240 C252 1.349 . S
C241 C239 1.327 . S
C241 C257 1.429 . S
C241 H263 0.950 . S
C242 H238 0.949 . S
C242 C250 1.574 . S
C242 C258 1.368 . S
H243 C251 0.950 . S
H244 C249 0.950 . S
H245 C250 0.949 . S
H246 C252 0.950 . S
H247 C253 0.950 . S
H248 C254 0.949 . S
C249 H244 0.950 . S
C249 C251 1.327 . S
C249 C255 1.429 . S
C250 C242 1.574 . S
C250 H245 0.949 . S
C250 C256 1.368 . S
C251 C235 1.349 . S
C251 H243 0.950 . S
C251 C249 1.327 . S
C252 C240 1.349 . S
C252 H246 0.950 . S
C252 C253 1.327 . S
C253 H247 0.950 . S
C253 C252 1.327 . S
C253 C257 1.429 . S
C254 C237 1.574 . S
C254 H248 0.949 . S
C254 C258 1.368 . S
C255 C236 1.429 . S
C255 C249 1.429 . S
C255 C256 1.523 . S
C256 C237 1.368 . S
C256 C250 1.368 . S
C256 C255 1.523 . S
C257 C241 1.429 . S
C257 C253 1.429 . S
C257 C258 1.523 . S
C258 C242 1.368 . S
C258 C254 1.368 . S
C258 C257 1.523 . S
H259 C234 0.950 . S
H260 C236 0.950 . S
H261 C237 0.949 . S
H262 C239 0.950 . S
H263 C241 0.950 . S
C264 C265 1.349 . S
C264 C266 1.327 . S
C264 H289 0.950 . S
C265 C264 1.349 . S
C265 C281 1.349 . S
C266 C264 1.327 . S
C266 C285 1.429 . S
C266 H290 0.950 . S
C267 C284 1.574 . S
C267 C286 1.368 . S
C267 H291 0.949 . S
H268 C272 0.949 . S
C269 C270 1.349 . S
C269 C271 1.327 . S
C269 H292 0.950 . S
C270 C269 1.349 . S
C270 C282 1.349 . S
C271 C269 1.327 . S
C271 C287 1.429 . S
C271 H293 0.950 . S
C272 H268 0.949 . S
C272 C280 1.574 . S
C272 C288 1.368 . S
H273 C281 0.950 . S
H274 C279 0.950 . S
H275 C280 0.949 . S
H276 C282 0.950 . S
H277 C283 0.950 . S
H278 C284 0.949 . S
C279 H274 0.950 . S
C279 C281 1.327 . S
C279 C285 1.429 . S
C280 C272 1.574 . S
C280 H275 0.949 . S
C280 C286 1.368 . S
C281 C265 1.349 . S
C281 H273 0.950 . S
C281 C279 1.327 . S
C282 C270 1.349 . S
C282 H276 0.950 . S
C282 C283 1.327 . S
C283 H277 0.950 . S
C283 C282 1.327 . S
C283 C287 1.429 . S
C284 C267 1.574 . S
C284 H278 0.949 . S
C284 C288 1.368 . S
C285 C266 1.429 . S
C285 C279 1.429 . S
C285 C286 1.523 . S
C286 C267 1.368 . S
C286 C280 1.368 . S
C286 C285 1.523 . S
C287 C271 1.429 . S
C287 C283 1.429 . S
C287 C288 1.523 . S
C288 C272 1.368 . S
C288 C284 1.368 . S
C288 C287 1.523 . S
H289 C264 0.950 . S
H290 C266 0.950 . S
H291 C267 0.949 . S
H292 C269 0.950 . S
H293 C271 0.950 . S
C294 C295 1.349 . S
C294 C296 1.327 . S
C294 H319 0.950 . S
C295 C294 1.349 . S
C295 C311 1.349 . S
C296 C294 1.327 . S
C296 C315 1.429 . S
C296 H320 0.950 . S
C297 C314 1.574 . S
C297 C316 1.368 . S
C297 H321 0.949 . S
H298 C302 0.949 . S
C299 C300 1.349 . S
C299 C301 1.327 . S
C299 H322 0.950 . S
C300 C299 1.349 . S
C300 C312 1.349 . S
C301 C299 1.327 . S
C301 C317 1.429 . S
C301 H323 0.950 . S
C302 H298 0.949 . S
C302 C310 1.574 . S
C302 C318 1.368 . S
H303 C311 0.950 . S
H304 C309 0.950 . S
H305 C310 0.949 . S
H306 C312 0.950 . S
H307 C313 0.950 . S
H308 C314 0.949 . S
C309 H304 0.950 . S
C309 C311 1.327 . S
C309 C315 1.429 . S
C310 C302 1.574 . S
C310 H305 0.949 . S
C310 C316 1.368 . S
C311 C295 1.349 . S
C311 H303 0.950 . S
C311 C309 1.327 . S
C312 C300 1.349 . S
C312 H306 0.950 . S
C312 C313 1.327 . S
C313 H307 0.950 . S
C313 C312 1.327 . S
C313 C317 1.429 . S
C314 C297 1.574 . S
C314 H308 0.949 . S
C314 C318 1.368 . S
C315 C296 1.429 . S
C315 C309 1.429 . S
C315 C316 1.523 . S
C316 C297 1.368 . S
C316 C310 1.368 . S
C316 C315 1.523 . S
C317 C301 1.429 . S
C317 C313 1.429 . S
C317 C318 1.523 . S
C318 C302 1.368 . S
C318 C314 1.368 . S
C318 C317 1.523 . S
H319 C294 0.950 . S
H320 C296 0.950 . S
H321 C297 0.949 . S
H322 C299 0.950 . S
H323 C301 0.950 . S
C324 C325 1.349 . S
C324 C326 1.327 . S
C324 H349 0.950 . S
C325 C324 1.349 . S
C325 C341 1.349 . S
C326 C324 1.327 . S
C326 C345 1.429 . S
C326 H350 0.950 . S
C327 C344 1.574 . S
C327 C346 1.368 1_554 S
C327 H351 0.949 . S
H328 C332 0.949 . S
C329 C330 1.349 . S
C329 C331 1.327 . S
C329 H352 0.950 . S
C330 C329 1.349 . S
C330 C342 1.349 . S
C331 C329 1.327 . S
C331 C347 1.429 . S
C331 H353 0.950 . S
C332 H328 0.949 . S
C332 C340 1.574 . S
C332 C348 1.368 1_556 S
H333 C341 0.950 . S
H334 C339 0.950 1_554 S
H335 C340 0.949 . S
H336 C342 0.950 . S
H337 C343 0.950 1_556 S
H338 C344 0.949 . S
C339 H334 0.950 1_556 S
C339 C341 1.327 . S
C339 C345 1.429 . S
C340 C332 1.574 . S
C340 H335 0.949 . S
C340 C346 1.368 . S
C341 C325 1.349 . S
C341 H333 0.950 . S
C341 C339 1.327 . S
C342 C330 1.349 . S
C342 H336 0.950 . S
C342 C343 1.327 . S
C343 H337 0.950 1_554 S
C343 C342 1.327 . S
C343 C347 1.429 . S
C344 C327 1.574 . S
C344 H338 0.949 . S
C344 C348 1.368 . S
C345 C326 1.429 . S
C345 C339 1.429 . S
C345 C346 1.523 . S
C346 C327 1.368 1_556 S
C346 C340 1.368 . S
C346 C345 1.523 . S
C347 C331 1.429 . S
C347 C343 1.429 . S
C347 C348 1.523 . S
C348 C332 1.368 1_554 S
C348 C344 1.368 . S
C348 C347 1.523 . S
H349 C324 0.950 . S
H350 C326 0.950 . S
H351 C327 0.949 . S
H352 C329 0.950 . S
H353 C331 0.950 . S
C354 C355 1.349 . S
C354 C356 1.327 . S
C354 H379 0.950 . S
C355 C354 1.349 . S
C355 C371 1.349 . S
C356 C354 1.327 . S
C356 C375 1.429 . S
C356 H380 0.950 1_556 S
C357 C374 1.574 . S
C357 C376 1.368 . S
C357 H381 0.949 . S
H358 C362 0.949 . S
C359 C360 1.349 . S
C359 C361 1.327 . S
C359 H382 0.950 . S
C360 C359 1.349 . S
C360 C372 1.349 . S
C361 C359 1.327 . S
C361 C377 1.429 . S
C361 H383 0.950 1_554 S
C362 H358 0.949 . S
C362 C370 1.574 . S
C362 C378 1.368 . S
H363 C371 0.950 . S
H364 C369 0.950 . S
H365 C370 0.949 . S
H366 C372 0.950 . S
H367 C373 0.950 . S
H368 C374 0.949 . S
C369 H364 0.950 . S
C369 C371 1.327 . S
C369 C375 1.429 . S
C370 C362 1.574 . S
C370 H365 0.949 . S
C370 C376 1.368 1_554 S
C371 C355 1.349 . S
C371 H363 0.950 . S
C371 C369 1.327 . S
C372 C360 1.349 . S
C372 H366 0.950 . S
C372 C373 1.327 . S
C373 H367 0.950 . S
C373 C372 1.327 . S
C373 C377 1.429 . S
C374 C357 1.574 . S
C374 H368 0.949 . S
C374 C378 1.368 1_556 S
C375 C356 1.429 . S
C375 C369 1.429 . S
C375 C376 1.523 . S
C376 C357 1.368 . S
C376 C370 1.368 1_556 S
C376 C375 1.523 . S
C377 C361 1.429 . S
C377 C373 1.429 . S
C377 C378 1.523 . S
C378 C362 1.368 . S
C378 C374 1.368 1_554 S
C378 C377 1.523 . S
H379 C354 0.950 . S
H380 C356 0.950 1_554 S
H381 C357 0.949 . S
H382 C359 0.950 . S
H383 C361 0.950 1_556 S
C384 C385 1.349 . S
C384 C386 1.327 . S
C384 H409 0.950 . S
C385 C384 1.349 . S
C385 C401 1.349 . S
C386 C384 1.327 . S
C386 C405 1.429 . S
C386 H410 0.950 1_554 S
C387 C404 1.574 . S
C387 C406 1.368 . S
C387 H411 0.949 . S
H388 C392 0.949 . S
C389 C390 1.349 . S
C389 C391 1.327 . S
C389 H412 0.950 . S
C390 C389 1.349 . S
C390 C402 1.349 . S
C391 C389 1.327 . S
C391 C407 1.429 . S
C391 H413 0.950 1_556 S
C392 H388 0.949 . S
C392 C400 1.574 . S
C392 C408 1.368 . S
H393 C401 0.950 . S
H394 C399 0.950 . S
H395 C400 0.949 . S
H396 C402 0.950 . S
H397 C403 0.950 . S
H398 C404 0.949 . S
C399 H394 0.950 . S
C399 C401 1.327 . S
C399 C405 1.429 . S
C400 C392 1.574 . S
C400 H395 0.949 . S
C400 C406 1.368 1_556 S
C401 C385 1.349 . S
C401 H393 0.950 . S
C401 C399 1.327 . S
C402 C390 1.349 . S
C402 H396 0.950 . S
C402 C403 1.327 . S
C403 H397 0.950 . S
C403 C402 1.327 . S
C403 C407 1.429 . S
C404 C387 1.574 . S
C404 H398 0.949 . S
C404 C408 1.368 1_554 S
C405 C386 1.429 . S
C405 C399 1.429 . S
C405 C406 1.523 . S
C406 C387 1.368 . S
C406 C400 1.368 1_554 S
C406 C405 1.523 . S
C407 C391 1.429 . S
C407 C403 1.429 . S
C407 C408 1.523 . S
C408 C392 1.368 . S
C408 C404 1.368 1_556 S
C408 C407 1.523 . S
H409 C384 0.950 . S
H410 C386 0.950 1_556 S
H411 C387 0.949 . S
H412 C389 0.950 . S
H413 C391 0.950 1_554 S
C414 C415 1.349 . S
C414 C416 1.327 . S
C414 H439 0.950 . S
C415 C414 1.349 . S
C415 C431 1.349 . S
C416 C414 1.327 . S
C416 C435 1.429 . S
C416 H440 0.950 . S
C417 C434 1.574 . S
C417 C436 1.368 1_556 S
C417 H441 0.949 . S
H418 C422 0.949 . S
C419 C420 1.349 . S
C419 C421 1.327 . S
C419 H442 0.950 . S
C420 C419 1.349 . S
C420 C432 1.349 . S
C421 C419 1.327 . S
C421 C437 1.429 . S
C421 H443 0.950 . S
C422 H418 0.949 . S
C422 C430 1.574 . S
C422 C438 1.368 1_554 S
H423 C431 0.950 . S
H424 C429 0.950 1_556 S
H425 C430 0.949 . S
H426 C432 0.950 . S
H427 C433 0.950 1_554 S
H428 C434 0.949 . S
C429 H424 0.950 1_554 S
C429 C431 1.327 . S
C429 C435 1.429 . S
C430 C422 1.574 . S
C430 H425 0.949 . S
C430 C436 1.368 . S
C431 C415 1.349 . S
C431 H423 0.950 . S
C431 C429 1.327 . S
C432 C420 1.349 . S
C432 H426 0.950 . S
C432 C433 1.327 . S
C433 H427 0.950 1_556 S
C433 C432 1.327 . S
C433 C437 1.429 . S
C434 C417 1.574 . S
C434 H428 0.949 . S
C434 C438 1.368 . S
C435 C416 1.429 . S
C435 C429 1.429 . S
C435 C436 1.523 . S
C436 C417 1.368 1_554 S
C436 C430 1.368 . S
C436 C435 1.523 . S
C437 C421 1.429 . S
C437 C433 1.429 . S
C437 C438 1.523 . S
C438 C422 1.368 1_556 S
C438 C434 1.368 . S
C438 C437 1.523 . S
H439 C414 0.950 . S
H440 C416 0.950 . S
H441 C417 0.949 . S
H442 C419 0.950 . S
H443 C421 0.950 . S
C85 C58 1.813 1_655 S
C90 C16 1.813 1_655 S
C115 C34 1.813 . S
C120 C76 1.813 . S
C145 C79 1.813 . S
C150 C37 1.813 . S
C175 C13 1.813 1_455 S
C180 C55 1.813 1_455 S
C205 C81 1.533 . S
C210 C15 1.533 . S
C235 C57 1.533 . S
C240 C39 1.533 . S
C265 C60 1.533 . S
C270 C36 1.533 . S
C295 C18 1.533 . S
C300 C78 1.533 . S
C325 C77 0.584 . S
C330 C17 0.584 . S
C355 C59 0.584 . S
C360 C35 0.584 . S
C385 C38 0.584 . S
C390 C56 0.584 . S
C415 C14 0.584 . S
C420 C80 0.584 . S
