# Generated by pormake.
# Topology wjv, (5)-cn, num edge types: 1
# Building blocks:
#     Node 0, Type 0, BuildingBlock: XOMCOT_clean_sbu_1, # of connection points: 5
#     Node 1, Type 0, BuildingBlock: XOMCOT_clean_sbu_1, # of connection points: 5
#     Node 2, Type 0, BuildingBlock: XOMCOT_clean_sbu_1, # of connection points: 5
#     Node 3, Type 0, BuildingBlock: XOMCOT_clean_sbu_1, # of connection points: 5
#     Node 4, Type 0, BuildingBlock: XOMCOT_clean_sbu_1, # of connection points: 5
#     Node 5, Type 0, BuildingBlock: XOMCOT_clean_sbu_1, # of connection points: 5
#     Node 6, Type 0, BuildingBlock: XOMCOT_clean_sbu_1, # of connection points: 5
#     Node 7, Type 0, BuildingBlock: XOMCOT_clean_sbu_1, # of connection points: 5
#     Node 8, Type 0, BuildingBlock: XOMCOT_clean_sbu_1, # of connection points: 5
#     Node 9, Type 0, BuildingBlock: XOMCOT_clean_sbu_1, # of connection points: 5
#     Node 10, Type 0, BuildingBlock: XOMCOT_clean_sbu_1, # of connection points: 5
#     Node 11, Type 0, BuildingBlock: XOMCOT_clean_sbu_1, # of connection points: 5
#     Edge 12, Type (0, 0), BuildingBlock: KIFKEQ_clean_linker_1, # of connection points: 2
#     Edge 13, Type (0, 0), BuildingBlock: KIFKEQ_clean_linker_1, # of connection points: 2
#     Edge 14, Type (0, 0), BuildingBlock: KIFKEQ_clean_linker_1, # of connection points: 2
#     Edge 15, Type (0, 0), BuildingBlock: KIFKEQ_clean_linker_1, # of connection points: 2
#     Edge 16, Type (0, 0), BuildingBlock: KIFKEQ_clean_linker_1, # of connection points: 2
#     Edge 17, Type (0, 0), BuildingBlock: KIFKEQ_clean_linker_1, # of connection points: 2
#     Edge 18, Type (0, 0), BuildingBlock: KIFKEQ_clean_linker_1, # of connection points: 2
#     Edge 19, Type (0, 0), BuildingBlock: KIFKEQ_clean_linker_1, # of connection points: 2
#     Edge 20, Type (0, 0), BuildingBlock: KIFKEQ_clean_linker_1, # of connection points: 2
#     Edge 21, Type (0, 0), BuildingBlock: KIFKEQ_clean_linker_1, # of connection points: 2
#     Edge 22, Type (0, 0), BuildingBlock: KIFKEQ_clean_linker_1, # of connection points: 2
#     Edge 23, Type (0, 0), BuildingBlock: KIFKEQ_clean_linker_1, # of connection points: 2
#     Edge 24, Type (0, 0), BuildingBlock: KIFKEQ_clean_linker_1, # of connection points: 2
#     Edge 25, Type (0, 0), BuildingBlock: KIFKEQ_clean_linker_1, # of connection points: 2
#     Edge 26, Type (0, 0), BuildingBlock: KIFKEQ_clean_linker_1, # of connection points: 2
#     Edge 27, Type (0, 0), BuildingBlock: KIFKEQ_clean_linker_1, # of connection points: 2
#     Edge 28, Type (0, 0), BuildingBlock: KIFKEQ_clean_linker_1, # of connection points: 2
#     Edge 29, Type (0, 0), BuildingBlock: KIFKEQ_clean_linker_1, # of connection points: 2
#     Edge 30, Type (0, 0), BuildingBlock: KIFKEQ_clean_linker_1, # of connection points: 2
#     Edge 31, Type (0, 0), BuildingBlock: KIFKEQ_clean_linker_1, # of connection points: 2
#     Edge 32, Type (0, 0), BuildingBlock: KIFKEQ_clean_linker_1, # of connection points: 2
#     Edge 33, Type (0, 0), BuildingBlock: KIFKEQ_clean_linker_1, # of connection points: 2
#     Edge 34, Type (0, 0), BuildingBlock: KIFKEQ_clean_linker_1, # of connection points: 2
#     Edge 35, Type (0, 0), BuildingBlock: KIFKEQ_clean_linker_1, # of connection points: 2
#     Edge 36, Type (0, 0), BuildingBlock: KIFKEQ_clean_linker_1, # of connection points: 2
#     Edge 37, Type (0, 0), BuildingBlock: KIFKEQ_clean_linker_1, # of connection points: 2
#     Edge 38, Type (0, 0), BuildingBlock: KIFKEQ_clean_linker_1, # of connection points: 2
#     Edge 39, Type (0, 0), BuildingBlock: KIFKEQ_clean_linker_1, # of connection points: 2
#     Edge 40, Type (0, 0), BuildingBlock: KIFKEQ_clean_linker_1, # of connection points: 2
#     Edge 41, Type (0, 0), BuildingBlock: KIFKEQ_clean_linker_1, # of connection points: 2
# Relax obj value: 0.260
# Max RMSD: 0.170
# Mean RMSD: 0.170
data_MOF--net-wjv--node1-XOMCOT_clean_sbu_1--edge1-KIFKEQ_clean_linker_1
_symmetry_space_group_name_H-M    P1
_symmetry_Int_Tables_number       1
_symmetry_cell_setting            triclinic
loop_
_symmetry_equiv_pos_as_xyz
'x, y, z'
_cell_length_a     35.030465
_cell_length_b     35.145642
_cell_length_c     50.717118
_cell_angle_alpha  90.027419
_cell_angle_beta   89.828088
_cell_angle_gamma 119.97524
loop_
_atom_site_label
_atom_site_type_symbol
_atom_site_fract_x
_atom_site_fract_y
_atom_site_fract_z
_atom_type_partial_charge
C0 C 0.21658 0.31939 0.23327 0.0
C1 C 0.22146 0.30412 0.25716 0.0
N2 N 0.26205 0.33181 0.26659 0.0
N3 N 0.25357 0.35706 0.22715 0.0
C4 C 0.28084 0.36411 0.24803 0.0
H5 H 0.18781 0.30339 0.22083 0.0
Co6 Co 0.25725 0.38424 0.19407 0.0
C7 C 0.35061 0.46007 0.18868 0.0
O8 O 0.34354 0.45292 0.16329 0.0
N9 N 0.25819 0.41047 0.16088 0.0
C10 C 0.25241 0.45731 0.13376 0.0
C11 C 0.26022 0.44984 0.15925 0.0
C12 C 0.24903 0.39473 0.13582 0.0
N13 N 0.24527 0.42254 0.11904 0.0
O14 O 0.21421 0.40187 0.20681 0.0
H15 H 0.26558 0.47122 0.17587 0.0
H16 H 0.24263 0.36264 0.12988 0.0
O17 O 0.31718 0.43918 0.20465 0.0
C18 C 0.17715 0.37362 0.19603 0.0
O19 O 0.17718 0.34379 0.18046 0.0
N20 N 0.28893 0.3588 0.18095 0.0
C21 C 0.31637 0.29923 0.16979 0.0
C22 C 0.34361 0.33714 0.18401 0.0
C23 C 0.32842 0.36565 0.19035 0.0
C24 C 0.26303 0.32271 0.1661 0.0
C25 C 0.27661 0.29295 0.15965 0.0
H26 H 0.34615 0.38959 0.20535 0.0
H27 H 0.22964 0.31441 0.16162 0.0
H28 H 0.31417 0.39145 0.24921 0.0
H29 H 0.19667 0.27451 0.26679 0.0
H30 H 0.25131 0.4858 0.12668 0.0
H31 H 0.3731 0.34119 0.19353 0.0
H32 H 0.25377 0.2625 0.14992 0.0
C33 C 0.9385 0.22459 0.55837 0.0
C34 C 0.95517 0.22689 0.58324 0.0
N35 N 0.94213 0.24906 0.59914 0.0
N36 N 0.91474 0.24514 0.55817 0.0
C37 C 0.91756 0.25979 0.58338 0.0
H38 H 0.94434 0.20986 0.54123 0.0
Co39 Co 0.88854 0.2524 0.52707 0.0
C40 C 0.89545 0.3413 0.5546 0.0
O41 O 0.86642 0.33228 0.57349 0.0
N42 N 0.86219 0.25902 0.49592 0.0
C43 C 0.84128 0.28706 0.46344 0.0
C44 C 0.8578 0.29354 0.48866 0.0
C45 C 0.84734 0.23165 0.47474 0.0
N46 N 0.83503 0.24824 0.45447 0.0
O47 O 0.82892 0.2088 0.54039 0.0
H48 H 0.86746 0.32257 0.50038 0.0
H49 H 0.84704 0.20075 0.47383 0.0
O50 O 0.89535 0.30868 0.54277 0.0
C51 C 0.82345 0.17127 0.53258 0.0
O52 O 0.85669 0.17112 0.52066 0.0
N53 N 0.94389 0.28615 0.51221 0.0
C54 C 0.02815 0.31743 0.49267 0.0
C55 C 0.021 0.33772 0.51446 0.0
C56 C 0.97835 0.3213 0.5241 0.0
C57 C 0.95025 0.26823 0.48998 0.0
C58 C 0.99189 0.28458 0.47922 0.0
H59 H 0.97392 0.33398 0.54253 0.0
H60 H 0.92374 0.23852 0.48179 0.0
H61 H 0.90208 0.27807 0.59007 0.0
H62 H 0.97654 0.21431 0.58893 0.0
H63 H 0.83637 0.31035 0.45211 0.0
H64 H 0.04826 0.36249 0.52581 0.0
H65 H 0.99618 0.26796 0.46243 0.0
C66 C 0.70614 0.90629 0.89798 0.0
C67 C 0.72147 0.92629 0.92191 0.0
N68 N 0.69264 0.93719 0.93221 0.0
N69 N 0.6673 0.90366 0.8927 0.0
C70 C 0.6596 0.92252 0.91409 0.0
H71 H 0.72264 0.89461 0.88504 0.0
Co72 Co 0.63843 0.8789 0.86021 0.0
C73 C 0.56629 0.9017 0.85527 0.0
O74 O 0.57556 0.90383 0.83002 0.0
N75 N 0.60965 0.85205 0.82764 0.0
C76 C 0.55661 0.80251 0.80182 0.0
C77 C 0.56736 0.81907 0.82696 0.0
C78 C 0.6241 0.85378 0.80247 0.0
N79 N 0.59245 0.82425 0.78632 0.0
O80 O 0.62008 0.81882 0.8739 0.0
H81 H 0.54573 0.80729 0.84394 0.0
H82 H 0.65757 0.87434 0.79605 0.0
O83 O 0.58505 0.88685 0.87123 0.0
C84 C 0.64814 0.80965 0.86298 0.0
O85 O 0.67737 0.83872 0.84673 0.0
N86 N 0.66501 0.93517 0.84601 0.0
C87 C 0.72466 0.01983 0.82977 0.0
C88 C 0.6912 0.01241 0.84773 0.0
C89 C 0.66222 0.96981 0.85605 0.0
C90 C 0.69751 0.94225 0.82863 0.0
C91 C 0.72597 0.98388 0.819 0.0
H92 H 0.64068 0.96562 0.87235 0.0
H93 H 0.70439 0.9163 0.82421 0.0
H94 H 0.63095 0.92637 0.91603 0.0
H95 H 0.75176 0.93199 0.93101 0.0
H96 H 0.52475 0.7762 0.79564 0.0
H97 H 0.69042 0.0394 0.85754 0.0
H98 H 0.75214 0.98836 0.80567 0.0
C99 C 0.80647 0.70462 0.22843 0.0
C100 C 0.80369 0.71972 0.25291 0.0
N101 N 0.77181 0.68635 0.267 0.0
N102 N 0.77674 0.66154 0.22648 0.0
C103 C 0.75588 0.65122 0.25039 0.0
H104 H 0.82744 0.72457 0.21248 0.0
Co105 Co 0.76707 0.63182 0.19349 0.0
C106 C 0.67691 0.54556 0.21743 0.0
O107 O 0.68232 0.51736 0.23162 0.0
N108 N 0.75776 0.60305 0.16016 0.0
C109 C 0.7235 0.56332 0.12463 0.0
C110 C 0.71952 0.5694 0.15107 0.0
C111 C 0.78477 0.61622 0.13868 0.0
N112 N 0.76447 0.59301 0.11675 0.0
O113 O 0.8112 0.61404 0.20286 0.0
H114 H 0.68955 0.55158 0.16235 0.0
H115 H 0.81758 0.64449 0.1385 0.0
O116 O 0.71196 0.57917 0.20809 0.0
C117 C 0.84824 0.64542 0.19379 0.0
O118 O 0.84785 0.67866 0.18229 0.0
N119 N 0.73341 0.65555 0.18288 0.0
C120 C 0.70476 0.71351 0.17108 0.0
C121 C 0.68449 0.68287 0.19134 0.0
C122 C 0.70007 0.65452 0.19735 0.0
C123 C 0.75179 0.68387 0.16225 0.0
C124 C 0.73754 0.71297 0.15576 0.0
H125 H 0.68782 0.63446 0.21483 0.0
H126 H 0.78058 0.68706 0.1524 0.0
H127 H 0.72864 0.61906 0.25522 0.0
H128 H 0.82248 0.75358 0.25924 0.0
H129 H 0.69771 0.53964 0.11199 0.0
H130 H 0.66038 0.68418 0.20417 0.0
H131 H 0.75507 0.73782 0.14083 0.0
C132 C 0.11411 0.80613 0.56397 0.0
C133 C 0.09347 0.80145 0.58778 0.0
N134 N 0.0825 0.76193 0.59817 0.0
N135 N 0.11706 0.77011 0.55887 0.0
C136 C 0.09774 0.7437 0.58026 0.0
H137 H 0.12562 0.83406 0.55094 0.0
Co138 Co 0.14151 0.76475 0.52634 0.0
C139 C 0.12293 0.67056 0.52422 0.0
O140 O 0.12131 0.67505 0.49862 0.0
N141 N 0.16774 0.7615 0.49379 0.0
C142 C 0.21937 0.76136 0.46797 0.0
C143 C 0.20369 0.75673 0.49334 0.0
C144 C 0.16293 0.76984 0.46818 0.0
N145 N 0.19374 0.76976 0.45208 0.0
O146 O 0.20226 0.8094 0.53853 0.0
H147 H 0.21837 0.75138 0.51065 0.0
H148 H 0.13813 0.77675 0.46111 0.0
O149 O 0.1361 0.70535 0.53899 0.0
C150 C 0.20894 0.84515 0.52681 0.0
O151 O 0.17716 0.8425 0.51188 0.0
N152 N 0.08478 0.73246 0.51301 0.0
C153 C 0.99876 0.705 0.49871 0.0
C154 C 1.00784 0.67965 0.51601 0.0
C155 C 0.05118 0.69462 0.52346 0.0
C156 C 0.07605 0.75663 0.49571 0.0
C157 C 0.03359 0.74228 0.48709 0.0
H158 H 0.05657 0.67836 0.53972 0.0
H159 H 0.10143 0.78941 0.49055 0.0
H160 H 0.0937 0.71127 0.58229 0.0
H161 H 0.08709 0.82573 0.59665 0.0
H162 H 0.24842 0.76021 0.46192 0.0
H163 H 0.98156 0.6519 0.52636 0.0
H164 H 0.02749 0.76346 0.47439 0.0
C165 C 0.31698 0.10148 0.89778 0.0
C166 C 0.30449 0.0824 0.92228 0.0
N167 N 0.3407 0.08932 0.93541 0.0
N168 N 0.36104 0.1203 0.89503 0.0
C169 C 0.37476 0.1128 0.9186 0.0
H170 H 0.29477 0.09829 0.88209 0.0
Co171 Co 0.38775 0.13752 0.86108 0.0
C172 C 0.47874 0.14053 0.88259 0.0
O173 O 0.51014 0.17517 0.89456 0.0
N174 N 0.41336 0.1544 0.82698 0.0
C175 C 0.45243 0.1612 0.79077 0.0
C176 C 0.44793 0.15178 0.81727 0.0
C177 C 0.39798 0.16646 0.80588 0.0
N178 N 0.42104 0.17044 0.78365 0.0
O179 O 0.40145 0.19933 0.86757 0.0
H180 H 0.4678 0.14189 0.82824 0.0
H181 H 0.36864 0.16927 0.80628 0.0
O182 O 0.44471 0.143 0.87495 0.0
C183 C 0.36767 0.20203 0.85983 0.0
O184 O 0.33347 0.16612 0.85096 0.0
N185 N 0.36783 0.07919 0.8534 0.0
C186 C 0.31219 0.98989 0.84832 0.0
C187 C 0.34408 1.00617 0.86811 0.0
C188 C 0.37148 0.05121 0.87047 0.0
C189 C 0.33874 0.06346 0.833 0.0
C190 C 0.31092 0.01861 0.8298 0.0
H191 H 0.39309 0.06343 0.88724 0.0
H192 H 0.33388 0.08567 0.82065 0.0
H193 H 0.40818 0.12032 0.92242 0.0
H194 H 0.27097 0.06227 0.92927 0.0
H195 H 0.4761 0.16001 0.77751 0.0
H196 H 0.34533 0.98454 0.88287 0.0
H197 H 0.28574 1.00692 0.81471 0.0
C198 C 0.70912 0.80362 0.47843 0.0
C199 C 0.72252 0.79911 0.45372 0.0
N200 N 0.69121 0.76114 0.44309 0.0
N201 N 0.66911 0.76896 0.48381 0.0
C202 C 0.65904 0.74326 0.46183 0.0
H203 H 0.72772 0.83061 0.49178 0.0
Co204 Co 0.64069 0.76525 0.51663 0.0
C205 C 0.564 0.67234 0.52041 0.0
O206 O 0.57106 0.6783 0.54588 0.0
N207 N 0.61253 0.76376 0.54935 0.0
C208 C 0.56164 0.76581 0.57482 0.0
C209 C 0.57257 0.76072 0.54958 0.0
C210 C 0.62538 0.77136 0.57503 0.0
N211 N 0.59488 0.77256 0.59101 0.0
O212 O 0.62536 0.81012 0.50419 0.0
H213 H 0.55288 0.75604 0.5322 0.0
H214 H 0.65659 0.77669 0.5821 0.0
O215 O 0.58539 0.70624 0.50492 0.0
C216 C 0.65527 0.84615 0.51519 0.0
O217 O 0.68501 0.84388 0.52972 0.0
N218 N 0.66422 0.73212 0.52996 0.0
C219 C 0.72167 0.70246 0.54218 0.0
C220 C 0.68553 0.6774 0.52604 0.0
C221 C 0.65823 0.69384 0.51924 0.0
C222 C 0.69819 0.75555 0.54681 0.0
C223 C 0.72656 0.74056 0.55396 0.0
H224 H 0.63622 0.67843 0.503 0.0
H225 H 0.70652 0.78846 0.55233 0.0
H226 H 0.62868 0.71239 0.45946 0.0
H227 H 0.75352 0.8219 0.44441 0.0
H228 H 0.53191 0.76591 0.58047 0.0
H229 H 0.68265 0.64932 0.51539 0.0
H230 H 0.75577 0.76184 0.56529 0.0
C231 C 0.92257 0.70411 0.81363 0.0
C232 C 0.93803 0.71585 0.78824 0.0
N233 N 0.93083 0.67962 0.77517 0.0
N234 N 0.905 0.66036 0.81684 0.0
C235 C 0.91052 0.64627 0.79279 0.0
H236 H 0.92613 0.72668 0.82916 0.0
Co237 Co 0.88647 0.63248 0.85067 0.0
C238 C 0.88043 0.54171 0.82757 0.0
O239 O 0.8468 0.51038 0.81482 0.0
N240 N 0.86801 0.60527 0.88463 0.0
C241 C 0.85403 0.56048 0.91895 0.0
C242 C 0.86394 0.56668 0.89251 0.0
C243 C 0.85944 0.6214 0.9069 0.0
N244 N 0.85147 0.59504 0.92813 0.0
O245 O 0.82564 0.62392 0.84471 0.0
H246 H 0.86869 0.54438 0.88025 0.0
H247 H 0.86123 0.65297 0.90792 0.0
O248 O 0.87642 0.57485 0.83524 0.0
C249 C 0.82839 0.65978 0.85355 0.0
O250 O 0.86653 0.68878 0.86358 0.0
N251 N 0.94426 0.64829 0.85791 0.0
C252 C 0.03433 0.70227 0.86206 0.0
C253 C 0.01678 0.67112 0.8419 0.0
C254 C 0.97138 0.6447 0.83996 0.0
C255 C 0.96129 0.67605 0.87886 0.0
C256 C 1.00648 0.70295 0.88158 0.0
H257 H 0.95828 0.62442 0.82273 0.0
H258 H 0.94001 0.68131 0.8919 0.0
H259 H 0.90176 0.61271 0.78855 0.0
H260 H 0.95514 0.74887 0.78028 0.0
H261 H 0.84937 0.53263 0.93056 0.0
H262 H 0.03764 0.67021 0.82638 0.0
H263 H 0.01899 0.72754 0.89702 0.0
C264 C 0.21894 0.91232 0.1445 0.0
C265 C 0.22445 0.92951 0.11952 0.0
N266 N 0.26223 0.93456 0.10937 0.0
N267 N 0.25272 0.9057 0.15037 0.0
C268 C 0.27883 0.91983 0.12843 0.0
H269 H 0.19196 0.90554 0.15763 0.0
Co270 Co 0.25699 0.882 0.18341 0.0
C271 C 0.3506 0.90073 0.18648 0.0
O272 O 0.34535 0.9044 0.21183 0.0
N273 N 0.25922 0.85596 0.21628 0.0
C274 C 0.26058 0.80476 0.24166 0.0
C275 C 0.26703 0.82199 0.21668 0.0
C276 C 0.24655 0.85751 0.24149 0.0
N277 N 0.2475 0.82703 0.25733 0.0
O278 O 0.21108 0.82134 0.17196 0.0
H279 H 0.27588 0.80971 0.19954 0.0
H280 H 0.23395 0.8782 0.24814 0.0
O281 O 0.31605 0.88593 0.17132 0.0
C282 C 0.17696 0.81955 0.18339 0.0
O283 O 0.18343 0.85537 0.19544 0.0
N284 N 0.29079 0.93919 0.19616 0.0
C285 C 0.32153 0.02599 0.2097 0.0
C286 C 0.34402 0.01553 0.1909 0.0
C287 C 0.32746 0.97182 0.18397 0.0
C288 C 0.26962 0.94934 0.21497 0.0
C289 C 0.28587 0.99222 0.22319 0.0
H290 H 0.3415 0.96513 0.16696 0.0
H291 H 0.23713 0.92521 0.22135 0.0
H292 H 0.30925 0.9192 0.12635 0.0
H293 H 0.20269 0.93851 0.1097 0.0
H294 H 0.26469 0.77749 0.24765 0.0
H295 H 0.37048 0.04092 0.17926 0.0
H296 H 0.26677 0.99936 0.23713 0.0
C297 C 0.32139 0.21291 0.47693 0.0
C298 C 0.3103 0.21808 0.45173 0.0
N299 N 0.34045 0.25813 0.44289 0.0
N300 N 0.35887 0.24923 0.48421 0.0
C301 C 0.36965 0.27656 0.46298 0.0
H302 H 0.30321 0.18417 0.48918 0.0
Co303 Co 0.38482 0.25288 0.51767 0.0
C304 C 0.46065 0.34657 0.5225 0.0
O305 O 0.45208 0.34056 0.54786 0.0
N306 N 0.41046 0.25443 0.55106 0.0
C307 C 0.45935 0.25266 0.57828 0.0
C308 C 0.45114 0.25929 0.55276 0.0
C309 C 0.39443 0.24425 0.5761 0.0
N310 N 0.42358 0.24295 0.59301 0.0
O311 O 0.40282 0.20966 0.50577 0.0
H312 H 0.47309 0.26604 0.53616 0.0
H313 H 0.36131 0.23531 0.5818 0.0
O314 O 0.44021 0.31271 0.50695 0.0
C315 C 0.37327 0.17255 0.51598 0.0
O316 O 0.34229 0.17267 0.53054 0.0
N317 N 0.35863 0.28421 0.53013 0.0
C318 C 0.29632 0.30929 0.53829 0.0
C319 C 0.33541 0.33729 0.52509 0.0
C320 C 0.36526 0.32317 0.52014 0.0
C321 C 0.3219 0.25814 0.54466 0.0
C322 C 0.29043 0.27036 0.54936 0.0
H323 H 0.38993 0.34097 0.50545 0.0
H324 H 0.31417 0.22525 0.5498 0.0
H325 H 0.39861 0.30885 0.46199 0.0
H326 H 0.28198 0.19418 0.44071 0.0
H327 H 0.48913 0.25398 0.58533 0.0
H328 H 0.33942 0.36625 0.51498 0.0
H329 H 0.25931 0.24702 0.55839 0.0
C330 C 0.10417 0.30964 0.81552 0.0
C331 C 0.08143 0.29267 0.79252 0.0
N332 N 0.07298 0.32249 0.78143 0.0
N333 N 0.11066 0.35035 0.81943 0.0
C334 C 0.09147 0.3576 0.79808 0.0
H335 H 0.11435 0.29265 0.82903 0.0
Co336 Co 0.13712 0.37945 0.85159 0.0
C337 C 0.12265 0.45743 0.85624 0.0
O338 O 0.12539 0.45272 0.88171 0.0
N339 N 0.16494 0.40704 0.88396 0.0
C340 C 0.2198 0.45322 0.91011 0.0
C341 C 0.20383 0.44517 0.88476 0.0
C342 C 0.15806 0.39277 0.90938 0.0
N343 N 0.19096 0.42016 0.92556 0.0
O344 O 0.19667 0.39518 0.83743 0.0
H345 H 0.22032 0.46523 0.86771 0.0
H346 H 0.13094 0.36198 0.91606 0.0
O347 O 0.13291 0.43463 0.84038 0.0
C348 C 0.20525 0.36651 0.84779 0.0
O349 O 0.1759 0.33725 0.86391 0.0
N350 N 0.08096 0.35584 0.86605 0.0
C351 C 0.99375 0.29527 0.87615 0.0
C352 C 1.00456 0.33407 0.86288 0.0
C353 C 0.04839 0.36304 0.85693 0.0
C354 C 0.07064 0.31961 0.88082 0.0
C355 C 0.02712 0.28929 0.88675 0.0
H356 H 0.05455 0.38701 0.84195 0.0
H357 H 0.09574 0.31129 0.88524 0.0
H358 H 0.08946 0.38707 0.79534 0.0
H359 H 0.07152 0.26043 0.78462 0.0
H360 H 0.25059 0.48091 0.91662 0.0
H361 H 0.97928 0.33813 0.85318 0.0
H362 H 0.01949 0.25841 0.89591 0.0
C363 C 0.8065 0.10842 0.14593 0.0
C364 C 0.80117 0.08869 0.12184 0.0
N365 N 0.76303 0.08167 0.11112 0.0
N366 N 0.77227 0.11471 0.15093 0.0
C367 C 0.74633 0.09845 0.12905 0.0
H368 H 0.83329 0.11637 0.15938 0.0
Co369 Co 0.76772 0.1366 0.18466 0.0
C370 C 0.67547 0.12287 0.18816 0.0
O371 O 0.68008 0.11856 0.21348 0.0
N372 N 0.76568 0.16013 0.21854 0.0
C373 C 0.76749 0.21077 0.24578 0.0
C374 C 0.76178 0.19637 0.22019 0.0
C375 C 0.77489 0.15388 0.24376 0.0
N376 N 0.77622 0.18439 0.26077 0.0
O377 O 0.81477 0.19751 0.17415 0.0
H378 H 0.75599 0.21201 0.20353 0.0
H379 H 0.78294 0.12919 0.2495 0.0
O380 O 0.71008 0.13621 0.17303 0.0
C381 C 0.84922 0.19919 0.18482 0.0
O382 O 0.84259 0.16494 0.1988 0.0
N383 N 0.73233 0.0786 0.19572 0.0
C384 C 0.70045 0.98928 0.20107 0.0
C385 C 0.67687 1.00437 0.18664 0.0
C386 C 0.69443 0.04906 0.18323 0.0
C387 C 0.75413 0.06416 0.21127 0.0
C388 C 0.73846 0.01947 0.21454 0.0
H389 H 0.68014 0.05887 0.16794 0.0
H390 H 0.78656 0.08705 0.21854 0.0
H391 H 0.71496 0.09705 0.12683 0.0
H392 H 0.8237 0.07963 0.11307 0.0
H393 H 0.76583 0.23905 0.25265 0.0
H394 H 0.64794 0.98192 0.17546 0.0
H395 H 0.75854 0.009 0.22502 0.0
H396 H 0.3318 0.21723 0.39674 0.0
H397 H 0.34766 0.33685 0.43008 0.0
H398 H 0.3205 0.23922 0.35329 0.0
H399 H 0.33409 0.35863 0.38648 0.0
H400 H 0.32666 0.39373 0.29844 0.0
H401 H 0.35314 0.38068 0.34055 0.0
H402 H 0.26351 0.24141 0.33194 0.0
H403 H 0.23931 0.25415 0.29017 0.0
C404 C 0.33314 0.24853 0.39463 0.0
C405 C 0.34048 0.27517 0.41684 0.0
C406 C 0.32615 0.26109 0.36971 0.0
C407 C 0.32509 0.30037 0.36612 0.0
C408 C 0.33466 0.32822 0.38821 0.0
C409 C 0.34247 0.31583 0.41326 0.0
C410 C 0.3132 0.36035 0.30545 0.0
C411 C 0.2804 0.32514 0.29078 0.0
C412 C 0.32805 0.35282 0.32979 0.0
C413 C 0.31082 0.30983 0.33996 0.0
C414 C 0.27853 0.27494 0.32492 0.0
C415 C 0.26393 0.28239 0.30086 0.0
H416 H 0.95844 0.20142 0.63461 0.0
H417 H 0.95397 0.32127 0.62673 0.0
H418 H 0.98604 0.22158 0.67925 0.0
H419 H 0.98117 0.34147 0.67218 0.0
H420 H 0.08553 0.38159 0.74243 0.0
H421 H 0.04899 0.36493 0.69912 0.0
H422 H 0.96598 0.22995 0.72303 0.0
H423 H 1.00243 0.24654 0.76563 0.0
C424 C 0.96315 0.23212 0.64244 0.0
C425 C 0.95428 0.25981 0.62674 0.0
C426 C 0.97868 0.24359 0.66833 0.0
C427 C 0.98615 0.28337 0.67964 0.0
C428 C 0.97637 0.31082 0.66418 0.0
C429 C 0.96032 0.29904 0.63816 0.0
C430 C 0.05896 0.34862 0.73851 0.0
C431 C 0.04757 0.31529 0.75742 0.0
C432 C 0.03794 0.33896 0.71365 0.0
C433 C 1.00494 0.29575 0.70713 0.0
C434 C 0.99196 0.26329 0.72679 0.0
C435 C 0.0129 0.27286 0.75138 0.0
H436 H 0.62944 0.94052 0.96312 0.0
H437 H 0.76935 0.98855 0.95829 0.0
H438 H 0.64031 0.9753 1.00686 0.0
H439 H 0.77945 0.02124 1.00147 0.0
H440 H 0.77415 0.01693 0.09034 0.0
H441 H 0.75273 0.98366 0.04708 0.0
H442 H 0.68627 0.05667 0.03193 0.0
H443 H 0.70894 0.09146 0.07584 0.0
C444 C 0.6624 0.95851 0.97112 0.0
C445 C 0.69824 0.96043 0.95709 0.0
C446 C 0.66861 0.97849 0.99622 0.0
C447 C 0.71071 1.0005 1.00795 0.0
C448 C 0.74645 1.00385 0.9934 0.0
C449 C 0.74044 0.98458 0.96849 0.0
C450 C 0.75518 0.02636 0.07794 0.0
C451 C 0.74445 0.05802 0.08656 0.0
C452 C 0.74262 1.00693 0.05304 0.0
C453 C 0.71836 0.01789 0.03572 0.0
C454 C 0.70503 0.0475 0.04474 0.0
C455 C 0.71802 0.06744 0.0699 0.0
H456 H 0.69113 0.6341 0.29076 0.0
H457 H 0.81918 0.74772 0.30402 0.0
H458 H 0.66584 0.64721 0.33345 0.0
H459 H 0.79384 0.76112 0.34556 0.0
H460 H 0.72552 0.80955 0.3991 0.0
H461 H 0.74094 0.78638 0.35713 0.0
H462 H 0.67915 0.6527 0.38515 0.0
H463 H 0.6635 0.67638 0.42777 0.0
C464 C 0.71404 0.66156 0.3027 0.0
C465 C 0.75711 0.69034 0.29333 0.0
C466 C 0.69946 0.66913 0.32721 0.0
C467 C 0.72744 0.70587 0.34282 0.0
C468 C 0.77087 0.7332 0.33389 0.0
C469 C 0.78543 0.72549 0.30981 0.0
C470 C 0.71492 0.77513 0.39638 0.0
C471 C 0.69382 0.74505 0.41707 0.0
C472 C 0.72387 0.76178 0.37224 0.0
C473 C 0.71218 0.71775 0.36775 0.0
C474 C 0.68872 0.68689 0.38785 0.0
C475 C 0.67965 0.70041 0.41226 0.0
H476 H 0.07874 0.69613 0.62944 0.0
H477 H 0.02879 0.78586 0.62302 0.0
H478 H 0.03855 0.66859 0.67128 0.0
H479 H 0.99135 0.76058 0.66463 0.0
H480 H 0.89855 0.69186 0.73008 0.0
H481 H 0.93167 0.70469 0.6862 0.0
H482 H 0.03535 0.68495 0.71713 0.0
H483 H 1.00015 0.66997 0.76087 0.0
C484 C 0.05931 0.71002 0.63679 0.0
C485 C 0.05773 0.74373 0.6226 0.0
C486 C 0.03647 0.69447 0.66101 0.0
C487 C 1.01111 0.71195 0.67167 0.0
C488 C 1.00945 0.7453 0.65722 0.0
C489 C 0.03193 0.76057 0.63323 0.0
C490 C 0.92774 0.68912 0.72722 0.0
C491 C 0.94639 0.67934 0.74874 0.0
C492 C 0.94733 0.69717 0.70213 0.0
C493 C 0.98709 0.69693 0.69782 0.0
C494 C 1.00476 0.68526 0.71932 0.0
C495 C 0.98461 0.67656 0.74445 0.0
H496 H 0.30109 1.00202 0.94225 0.0
H497 H 0.37726 0.12495 0.98271 0.0
H498 H 0.28844 0.9622 0.98382 0.0
H499 H 0.36381 0.0854 0.02488 0.0
H500 H 0.34663 0.99617 0.09667 0.0
H501 H 0.37302 0.0336 0.05382 0.0
H502 H 0.24298 0.9522 1.02141 0.0
H503 H 0.21736 0.9155 0.06381 0.0
C504 C 0.31563 0.02041 0.96014 0.0
C505 C 0.34008 0.06651 0.9593 0.0
C506 C 0.30813 0.9977 0.98405 0.0
C507 C 0.32436 0.02041 1.00801 0.0
C508 C 0.35092 0.06662 1.00693 0.0
C509 C 0.3587 0.0894 0.98281 0.0
C510 C 0.32415 0.98589 0.08015 0.0
C511 C 0.27992 0.9528 0.08359 0.0
C512 C 0.33905 0.00761 0.05566 0.0
C513 C 0.31025 0.99612 0.03392 0.0
C514 C 0.26648 0.96184 0.03737 0.0
C515 C 0.25158 0.94081 0.06178 0.0
H516 H 0.12682 0.38655 0.96278 0.0
H517 H 0.2663 0.43957 0.95091 0.0
H518 H 0.13624 0.38054 1.01029 0.0
H519 H 0.27573 0.43317 0.99818 0.0
H520 H 0.26917 0.38188 0.08259 0.0
H521 H 0.25266 0.37479 0.03521 0.0
H522 H 0.17676 0.43968 0.04614 0.0
H523 H 0.19355 0.44701 0.09324 0.0
C524 C 0.15935 0.39642 0.97032 0.0
C525 C 0.1959 0.41402 0.95323 0.0
C526 C 0.16479 0.39314 0.99746 0.0
C527 C 0.20676 0.40649 1.00796 0.0
C528 C 0.24297 0.42241 0.99068 0.0
C529 C 0.23766 0.4265 0.96367 0.0
C530 C 0.24863 0.39419 0.07484 0.0
C531 C 0.23314 0.41551 0.09154 0.0
C532 C 0.23933 0.39031 0.04776 0.0
C533 C 0.21354 0.40683 0.03695 0.0
C534 C 0.19653 0.42645 0.05388 0.0
C535 C 0.20651 0.43106 0.0808 0.0
H536 H 0.76894 0.12259 0.29662 0.0
H537 H 0.80983 0.26013 0.28882 0.0
H538 H 0.78234 0.13288 0.34441 0.0
H539 H 0.82199 0.26982 0.33589 0.0
H540 H 0.78356 0.26262 0.42106 0.0
H541 H 0.77018 0.24337 0.37462 0.0
H542 H 0.84434 0.17591 0.38001 0.0
H543 H 0.85832 0.19577 0.42693 0.0
C544 C 0.78097 0.15497 0.30492 0.0
C545 C 0.78715 0.19023 0.28869 0.0
C546 C 0.78862 0.16084 0.33234 0.0
C547 C 0.80229 0.20199 0.34411 0.0
C548 C 0.81029 0.2374 0.32767 0.0
C549 C 0.80305 0.2317 0.30051 0.0
C550 C 0.79709 0.24368 0.41248 0.0
C551 C 0.82267 0.23151 0.4278 0.0
C552 C 0.78936 0.23256 0.38578 0.0
C553 C 0.80682 0.20875 0.37338 0.0
C554 C 0.83041 0.19429 0.38891 0.0
C555 C 0.83834 0.20563 0.41583 0.0
H556 H 0.53952 0.75058 0.75807 0.0
H557 H 0.65482 0.87956 0.751 0.0
H558 H 0.54313 0.7387 0.71125 0.0
H559 H 0.65869 0.86702 0.70393 0.0
H560 H 0.66799 0.80806 0.62278 0.0
H561 H 0.67045 0.82034 0.67035 0.0
H562 H 0.52995 0.76916 0.67105 0.0
H563 H 0.52691 0.75533 0.62421 0.0
C564 C 0.56557 0.77662 0.74665 0.0
C565 C 0.59639 0.81639 0.75859 0.0
C566 C 0.56771 0.76966 0.71967 0.0
C567 C 0.60085 0.8021 0.70371 0.0
C568 C 0.6328 0.84126 0.71566 0.0
C569 C 0.63051 0.84841 0.74274 0.0
C570 C 0.63749 0.79898 0.63301 0.0
C571 C 0.59717 0.78045 0.61925 0.0
C572 C 0.63905 0.80649 0.66033 0.0
C573 C 0.60034 0.79545 0.67459 0.0
C574 C 0.56032 0.7774 0.66082 0.0
C575 C 0.55871 0.76993 0.63369 0.0
H576 H 0.87698 0.56948 0.97179 0.0
H577 H 0.80986 0.63776 0.94642 0.0
H578 H 0.85984 0.576 1.01754 0.0
H579 H 0.79295 0.64485 0.99257 0.0
H580 H 0.7184 0.58535 0.07242 0.0
H581 H 0.7439 0.59319 0.02688 0.0
H582 H 0.87374 0.6274 0.05434 0.0
H583 H 0.84782 0.61925 0.10014 0.0
C584 C 0.85866 0.58608 0.97599 0.0
C585 C 0.84426 0.60253 0.95534 0.0
C586 C 0.84928 0.5903 1.00233 0.0
C587 C 0.82483 0.61079 1.00886 0.0
C588 C 0.81149 0.62849 0.98826 0.0
C589 C 0.82139 0.6247 0.96182 0.0
C590 C 0.75241 0.59459 0.06875 0.0
C591 C 0.7809 0.60097 0.08991 0.0
C592 C 0.76721 0.59963 0.04261 0.0
C593 C 0.81084 0.61068 0.03682 0.0
C594 C 0.83979 0.6184 0.05803 0.0
C595 C 0.82507 0.61396 0.08427 0.0
H596 H 0.23346 0.74201 0.41729 0.0
H597 H 0.16691 0.81723 0.42265 0.0
H598 H 0.24405 0.75675 0.37028 0.0
H599 H 0.17621 0.83074 0.37514 0.0
H600 H 0.24949 0.88455 0.29414 0.0
H601 H 0.2336 0.87085 0.34129 0.0
H602 H 0.20111 0.73614 0.33023 0.0
H603 H 0.2168 0.74971 0.28341 0.0
C604 C 0.22104 0.76171 0.4085 0.0
C605 C 0.19924 0.77827 0.42396 0.0
C606 C 0.22666 0.76976 0.38137 0.0
C607 C 0.21065 0.79462 0.36877 0.0
C608 C 0.1891 0.81158 0.38418 0.0
C609 C 0.18334 0.80339 0.41142 0.0
C610 C 0.23848 0.8519 0.30171 0.0
C611 C 0.23524 0.81848 0.28492 0.0
C612 C 0.22932 0.84402 0.32879 0.0
C613 C 0.21677 0.80255 0.3397 0.0
C614 C 0.21184 0.76879 0.32268 0.0
C615 C 0.22094 0.77662 0.29574 0.0
H616 H 0.4078 0.11729 0.74262 0.0
H617 H 0.41216 0.23767 0.76466 0.0
H618 H 0.40036 0.13126 0.69635 0.0
H619 H 0.40676 0.2533 0.71794 0.0
H620 H 0.37373 0.2554 0.6296 0.0
H621 H 0.36513 0.23459 0.67643 0.0
H622 H 0.45095 0.18058 0.66495 0.0
H623 H 0.45819 0.19994 0.61867 0.0
C624 C 0.40697 0.14674 0.7374 0.0
C625 C 0.41107 0.17667 0.75701 0.0
C626 C 0.403 0.155 0.71091 0.0
C627 C 0.40405 0.19399 0.70321 0.0
C628 C 0.40575 0.22291 0.72307 0.0
C629 C 0.40898 0.21415 0.74979 0.0
C630 C 0.39026 0.23863 0.63715 0.0
C631 C 0.41693 0.22965 0.62041 0.0
C632 C 0.38565 0.22702 0.66401 0.0
C633 C 0.40719 0.20568 0.67459 0.0
C634 C 0.43324 0.19629 0.6576 0.0
C635 C 0.43797 0.20801 0.631 0.0
H636 H 0.60366 0.49274 0.2473 0.0
H637 H 0.64126 0.57693 0.17917 0.0
H638 H 0.52801 0.4759 0.24245 0.0
H639 H 0.56704 0.56467 0.17594 0.0
H640 H 0.4226 0.50833 0.15777 0.0
H641 H 0.49798 0.52854 0.16454 0.0
H642 H 0.46763 0.48223 0.24505 0.0
H643 H 0.38991 0.45861 0.23717 0.0
C644 C 0.59622 0.50872 0.23151 0.0
C645 C 0.6301 0.53765 0.21419 0.0
C646 C 0.55212 0.49931 0.22887 0.0
C647 C 0.53938 0.51874 0.20888 0.0
C648 C 0.5736 0.54789 0.19157 0.0
C649 C 0.61749 0.55631 0.19383 0.0
C650 C 0.43162 0.50264 0.17718 0.0
C651 C 0.39892 0.48137 0.19681 0.0
C652 C 0.47603 0.51481 0.18122 0.0
C653 C 0.49104 0.50745 0.20545 0.0
C654 C 0.45862 0.48809 0.22574 0.0
C655 C 0.41352 0.4751 0.22147 0.0
H656 H 0.92968 0.40731 0.59156 0.0
H657 H 0.94475 0.38489 0.50975 0.0
H658 H 0.98658 0.4839 0.58717 0.0
H659 H 0.99993 0.46232 0.50457 0.0
H660 H 0.11757 0.59876 0.50028 0.0
H661 H 0.06654 0.52163 0.50793 0.0
H662 H 0.01545 0.55522 0.57623 0.0
H663 H 0.06907 0.63284 0.56917 0.0
C664 C 0.94491 0.41875 0.5724 0.0
C665 C 0.93208 0.38895 0.55106 0.0
C666 C 0.97785 0.46349 0.56977 0.0
C667 C 0.9993 0.48127 0.54544 0.0
C668 C 0.98602 0.4512 0.52399 0.0
C669 C 0.95363 0.4061 0.52682 0.0
C670 C 0.09628 0.58983 0.51743 0.0
C671 C 0.09834 0.62313 0.53404 0.0
C672 C 0.06578 0.54485 0.52158 0.0
C673 C 0.03475 0.53029 0.54242 0.0
C674 C 0.03813 0.56359 0.55988 0.0
C675 C 0.06943 0.6089 0.55591 0.0
H676 H 0.52951 0.1192 0.91312 0.0
H677 H 0.4457 0.07173 0.84492 0.0
H678 H 0.54642 0.06074 0.90875 0.0
H679 H 0.45834 0.01017 0.84203 0.0
H680 H 0.5149 0.92162 0.82492 0.0
H681 H 0.49291 0.97546 0.83145 0.0
H682 H 0.54311 0.99624 0.91114 0.0
H683 H 0.56835 0.94357 0.90339 0.0
C684 C 0.51358 0.09563 0.8974 0.0
C685 C 0.48491 0.10049 0.8799 0.0
C686 C 0.52309 0.06109 0.89502 0.0
C687 C 0.50405 0.02882 0.87509 0.0
C688 C 0.47491 0.03358 0.85764 0.0
C689 C 0.46637 0.06897 0.85965 0.0
C690 C 0.52101 0.93715 0.8441 0.0
C691 C 0.54378 0.92746 0.86353 0.0
C692 C 0.50788 0.96866 0.84801 0.0
C693 C 0.51588 0.99211 0.8719 0.0
C694 C 0.53668 0.98063 0.89204 0.0
C695 C 0.55061 0.94926 0.88789 0.0
H696 H 0.51885 0.41772 0.55056 0.0
H697 H 0.45279 0.38591 0.47542 0.0
H698 H 0.53989 0.4943 0.5447 0.0
H699 H 0.47509 0.46419 0.46935 0.0
H700 H 0.57499 0.63235 0.47442 0.0
H701 H 0.55321 0.55398 0.46957 0.0
H702 H 0.48278 0.52507 0.54325 0.0
H703 H 0.50336 0.60169 0.54791 0.0
C704 C 0.50965 0.42702 0.53232 0.0
C705 C 0.48354 0.39449 0.51365 0.0
C706 C 0.52167 0.47139 0.52906 0.0
C707 C 0.50889 0.48601 0.50673 0.0
C708 C 0.48568 0.45449 0.48687 0.0
C709 C 0.47307 0.40937 0.49029 0.0
C710 C 0.55364 0.60913 0.48916 0.0
C711 C 0.54148 0.62437 0.51176 0.0
C712 C 0.54133 0.56397 0.48644 0.0
C713 C 0.51669 0.53278 0.50627 0.0
C714 C 0.50218 0.54772 0.52771 0.0
C715 C 0.51392 0.59211 0.53026 0.0
H716 H 0.90747 0.49776 0.79518 0.0
H717 H 0.94403 0.56921 0.86832 0.0
H718 H 0.96587 0.48095 0.80012 0.0
H719 H 1.00566 0.55663 0.8723 0.0
H720 H 0.09897 0.5055 0.88746 0.0
H721 H 0.04456 0.52652 0.88091 0.0
H722 H 0.02779 0.48023 0.80035 0.0
H723 H 0.08109 0.45598 0.80808 0.0
C724 C 0.92872 0.51099 0.8122 0.0
C725 C 0.92084 0.5362 0.83088 0.0
C726 C 0.96327 0.5015 0.815 0.0
C727 C 0.99263 0.5171 0.83661 0.0
C728 C 0.98476 0.54276 0.8553 0.0
C729 C 0.94926 0.55121 0.85279 0.0
C730 C 0.0841 0.49986 0.86811 0.0
C731 C 0.0952 0.47847 0.84842 0.0
C732 C 0.05213 0.51246 0.86418 0.0
C733 C 0.02959 0.50541 0.84001 0.0
C734 C 0.04244 0.48593 0.81968 0.0
C735 C 0.0742 0.47246 0.82386 0.0
H736 H 0.60373 0.11037 0.21569 0.0
H737 H 0.63699 0.07784 0.14026 0.0
H738 H 0.5272 0.05444 0.20962 0.0
H739 H 0.55876 0.02126 0.13406 0.0
H740 H 0.38952 0.95073 0.14012 0.0
H741 H 0.46784 0.00785 0.13482 0.0
H742 H 0.4984 0.96687 0.20791 0.0
H743 H 0.42171 0.91035 0.21304 0.0
C744 C 0.59476 0.09217 0.19734 0.0
C745 C 0.62775 0.09892 0.17877 0.0
C746 C 0.55042 0.05957 0.19397 0.0
C747 C 0.53632 0.03233 0.1716 0.0
C748 C 0.56815 0.04131 0.15167 0.0
C749 C 0.61325 0.07414 0.15519 0.0
C750 C 0.4131 0.95279 0.15459 0.0
C751 C 0.39836 0.92548 0.1772 0.0
C752 C 0.45823 0.98595 0.15162 0.0
C753 C 0.48981 0.99283 0.17119 0.0
C754 C 0.4754 0.96332 0.19256 0.0
C755 C 0.43102 0.93038 0.19537 0.0
H756 H 0.11788 0.32689 0.23456 0.0
H757 H 0.13337 0.40288 0.16481 0.0
H758 H 0.03767 0.2915 0.23045 0.0
H759 H 0.05279 0.36805 0.16092 0.0
H760 H 0.88955 0.29243 0.18321 0.0
H761 H 0.96947 0.3457 0.18854 0.0
H762 H 0.99639 0.23881 0.18802 0.0
H763 H 0.91884 0.18696 0.18173 0.0
C764 C 0.10434 0.33823 0.2193 0.0
C765 C 0.13275 0.36931 0.20069 0.0
C766 C 0.05806 0.31729 0.21664 0.0
C767 C 0.03823 0.3267 0.19532 0.0
C768 C 0.06647 0.36025 0.17781 0.0
C769 C 0.11293 0.38076 0.18028 0.0
C770 C 0.91271 0.28054 0.18338 0.0
C771 C 0.89705 0.23493 0.18196 0.0
C772 C 0.95859 0.31105 0.18678 0.0
C773 C 0.98964 0.29658 0.18937 0.0
C774 C 0.97383 0.25139 0.1867 0.0
C775 C 0.92893 0.22152 0.18287 0.0
H776 H 0.64215 0.88769 0.55623 0.0
H777 H 0.68258 0.90755 0.47491 0.0
H778 H 0.67311 0.96668 0.56195 0.0
H779 H 0.71418 0.98704 0.48043 0.0
H780 H 0.76277 0.13199 0.49359 0.0
H781 H 0.712 0.05316 0.48803 0.0
H782 H 0.74337 0.03027 0.56653 0.0
H783 H 0.79365 0.10914 0.57186 0.0
C784 C 0.6559 0.90879 0.53913 0.0
C785 C 0.65808 0.89042 0.5148 0.0
C786 C 0.67477 0.95461 0.54258 0.0
C787 C 0.69716 0.98445 0.52186 0.0
C788 C 0.69706 0.96587 0.497 0.0
C789 C 0.67824 0.91981 0.49362 0.0
C790 C 0.75716 0.11035 0.51016 0.0
C791 C 0.78124 0.12772 0.53363 0.0
C792 C 0.72863 0.06464 0.50675 0.0
C793 C 0.72318 0.03415 0.52664 0.0
C794 C 0.7456 0.0519 0.55068 0.0
C795 C 0.77431 0.09764 0.55399 0.0
H796 H 0.69516 0.80024 0.90255 0.0
H797 H 0.62163 0.73588 0.83282 0.0
H798 H 0.73249 0.75722 0.90014 0.0
H799 H 0.65857 0.69206 0.8305 0.0
H800 H 0.73471 0.60847 0.84834 0.0
H801 H 0.68106 0.6347 0.85353 0.0
H802 H 0.78846 0.76664 0.86459 0.0
H803 H 0.8407 0.74166 0.85889 0.0
C804 C 0.68483 0.77496 0.88761 0.0
C805 C 0.65374 0.77063 0.86857 0.0
C806 C 0.70702 0.75072 0.88586 0.0
C807 C 0.69909 0.72098 0.86498 0.0
C808 C 0.66551 0.71404 0.84704 0.0
C809 C 0.64372 0.73888 0.84862 0.0
C810 C 0.7468 0.6431 0.85153 0.0
C811 C 0.79266 0.67251 0.85344 0.0
C812 C 0.71596 0.65821 0.85467 0.0
C813 C 0.73012 0.70294 0.86022 0.0
C814 C 0.77578 0.73194 0.86116 0.0
C815 C 0.80605 0.71725 0.85772 0.0
H816 H 0.89671 0.64555 0.15198 0.0
H817 H 0.90192 0.65719 0.23646 0.0
H818 H 0.97662 0.67852 0.14999 0.0
H819 H 0.98191 0.68869 0.23492 0.0
H820 H 0.11877 0.80639 0.22208 0.0
H821 H 0.04145 0.75515 0.22527 0.0
H822 H 0.04864 0.68953 0.15502 0.0
H823 H 0.12804 0.74398 0.15102 0.0
C824 C 0.91477 0.65312 0.17035 0.0
C825 C 0.89223 0.64757 0.19444 0.0
C826 C 0.96113 0.67256 0.1692 0.0
C827 C 0.98713 0.68784 0.19215 0.0
C828 C 0.96402 0.67888 0.21651 0.0
C829 C 0.91756 0.65952 0.2176 0.0
C830 C 0.10455 0.78096 0.20719 0.0
C831 C 0.1307 0.78026 0.18608 0.0
C832 C 0.05937 0.75066 0.20931 0.0
C833 C 0.03734 0.71716 0.19059 0.0
C834 C 0.06364 0.71488 0.16986 0.0
C835 C 0.10963 0.74591 0.16764 0.0
H836 H 0.2489 0.90424 0.56815 0.0
H837 H 0.25858 0.88948 0.48463 0.0
H838 H 0.29788 0.98399 0.56373 0.0
H839 H 0.30738 0.96845 0.48001 0.0
H840 H 0.33439 0.11278 0.47612 0.0
H841 H 0.30303 0.03329 0.47948 0.0
H842 H 0.36625 0.04993 0.55485 0.0
H843 H 0.39688 0.1295 0.55136 0.0
C844 C 0.26317 0.91758 0.54903 0.0
C845 C 0.25053 0.88957 0.52693 0.0
C846 C 0.29103 0.9638 0.54632 0.0
C847 C 0.30675 0.98389 0.52133 0.0
C848 C 0.29586 0.95531 0.49956 0.0
C849 C 0.26837 0.90943 0.50231 0.0
C850 C 0.34361 0.09976 0.49273 0.0
C851 C 0.37013 0.12841 0.51284 0.0
C852 C 0.32495 0.05363 0.49495 0.0
C853 C 0.33141 0.03393 0.51762 0.0
C854 C 0.35964 0.06291 0.53718 0.0
C855 C 0.37831 0.10903 0.53489 0.0
H856 H 0.2764 0.39438 0.88015 0.0
H857 H 0.22121 0.32302 0.80837 0.0
H858 H 0.32589 0.36416 0.88278 0.0
H859 H 0.26964 0.29179 0.81101 0.0
H860 H 0.36636 0.24366 0.8151 0.0
H861 H 0.33695 0.29309 0.8094 0.0
H862 H 0.32512 0.29846 0.89387 0.0
H863 H 0.35554 0.24946 0.8993 0.0
C864 C 0.27627 0.37384 0.86417 0.0
C865 C 0.24588 0.36298 0.84336 0.0
C866 C 0.30405 0.35541 0.86602 0.0
C867 C 0.30222 0.32471 0.84731 0.0
C868 C 0.27326 0.31563 0.82576 0.0
C869 C 0.24554 0.33414 0.82395 0.0
C870 C 0.35931 0.25692 0.83255 0.0
C871 C 0.36498 0.24343 0.85772 0.0
C872 C 0.34136 0.28476 0.82926 0.0
C873 C 0.32755 0.29998 0.85105 0.0
C874 C 0.33547 0.28832 0.8764 0.0
C875 C 0.35354 0.26036 0.87964 0.0
H876 H 0.37725 0.27879 0.15065 0.0
H877 H 0.26582 0.23594 0.20307 0.0
H878 H 0.38342 0.21438 0.16351 0.0
H879 H 0.27305 0.17384 0.21682 0.0
H880 H 0.25426 0.04013 0.20164 0.0
H881 H 0.25735 0.10859 0.19222 0.0
H882 H 0.39873 0.17811 0.20267 0.0
H883 H 0.39569 0.10777 0.2118 0.0
C884 C 0.35419 0.2554 0.16476 0.0
C885 C 0.32014 0.26068 0.17526 0.0
C886 C 0.3581 0.21933 0.17242 0.0
C887 C 0.32842 0.18926 0.19093 0.0
C888 C 0.2957 0.19609 0.2021 0.0
C889 C 0.29132 0.23122 0.19413 0.0
C890 C 0.28595 0.07003 0.20284 0.0
C891 C 0.32467 0.06904 0.20829 0.0
C892 C 0.28773 0.10923 0.19721 0.0
C893 C 0.3282 0.14849 0.19711 0.0
C894 C 0.36719 0.14798 0.20267 0.0
C895 C 0.36544 0.10818 0.20816 0.0
H896 H 0.26703 0.36302 0.55736 0.0
H897 H 0.24172 0.26231 0.50011 0.0
H898 H 0.20521 0.36936 0.53965 0.0
H899 H 0.18244 0.27022 0.48132 0.0
H900 H 0.04324 0.24977 0.48666 0.0
H901 H 0.11096 0.25067 0.49507 0.0
H902 H 0.17949 0.39232 0.50144 0.0
H903 H 0.1101 0.39135 0.49337 0.0
C904 C 0.24791 0.34225 0.54113 0.0
C905 C 0.25754 0.31134 0.53045 0.0
C906 C 0.21339 0.34639 0.53064 0.0
C907 C 0.18921 0.32034 0.50904 0.0
C908 C 0.19996 0.29018 0.4982 0.0
C909 C 0.23353 0.28541 0.50901 0.0
C910 C 0.07291 0.28144 0.48865 0.0
C911 C 0.07138 0.32062 0.48944 0.0
C912 C 0.11191 0.28188 0.49366 0.0
C913 C 0.15036 0.32154 0.49929 0.0
C914 C 0.14992 0.36122 0.49772 0.0
C915 C 0.11052 0.36076 0.49285 0.0
H916 H 0.8088 0.03761 0.83341 0.0
H917 H 0.72979 0.10023 0.8258 0.0
H918 H 0.87288 0.10742 0.84192 0.0
H919 H 0.79548 0.17159 0.83469 0.0
H920 H 0.90938 0.26716 0.89306 0.0
H921 H 0.84231 0.20315 0.87582 0.0
H922 H 0.9223 0.17753 0.8215 0.0
H923 H 0.98829 0.23933 0.83946 0.0
C924 C 0.80539 0.06656 0.8324 0.0
C925 C 0.76427 0.06351 0.82859 0.0
C926 C 0.84224 0.10666 0.83754 0.0
C927 C 0.83891 0.14469 0.83897 0.0
C928 C 0.79846 0.14239 0.83389 0.0
C929 C 0.76122 0.10188 0.82864 0.0
C930 C 0.91205 0.24712 0.87773 0.0
C931 C 0.95327 0.25643 0.86812 0.0
C932 C 0.87407 0.21136 0.86755 0.0
C933 C 0.8775 0.18563 0.84745 0.0
C934 C 0.91893 0.19647 0.83727 0.0
C935 C 0.95651 0.23135 0.84768 0.0
H936 H 0.68515 0.94741 0.15419 0.0
H937 H 0.69958 0.93191 0.23756 0.0
H938 H 0.6829 0.87839 0.14525 0.0
H939 H 0.6979 0.86271 0.22838 0.0
H940 H 0.76212 0.78721 0.19506 0.0
H941 H 0.75586 0.85251 0.20218 0.0
H942 H 0.63575 0.79436 0.15656 0.0
H943 H 0.64206 0.72831 0.14965 0.0
C944 C 0.68631 0.92847 0.17071 0.0
C945 C 0.69193 0.94449 0.19668 0.0
C946 C 0.68529 0.88923 0.1655 0.0
C947 C 0.69029 0.86578 0.18614 0.0
C948 C 0.69427 0.88078 0.21221 0.0
C949 C 0.69508 0.92001 0.21746 0.0
C950 C 0.73473 0.78884 0.18636 0.0
C951 C 0.7024 0.7535 0.17193 0.0
C952 C 0.73093 0.82569 0.19061 0.0
C953 C 0.69485 0.82757 0.18035 0.0
C954 C 0.66354 0.79302 0.1648 0.0
C955 C 0.66709 0.75566 0.1608 0.0
H956 H 0.74163 0.63935 0.55717 0.0
H957 H 0.78795 0.75928 0.51266 0.0
H958 H 0.80753 0.63607 0.54336 0.0
H959 H 0.85139 0.75502 0.49788 0.0
H960 H 0.98447 0.77077 0.51105 0.0
H961 H 0.91548 0.7663 0.52168 0.0
H962 H 0.84602 0.6277 0.50301 0.0
H963 H 0.91687 0.63205 0.49279 0.0
C964 C 0.76615 0.66495 0.54468 0.0
C965 C 0.76134 0.70043 0.53671 0.0
C966 C 0.80308 0.66274 0.53643 0.0
C967 C 0.83444 0.69556 0.51981 0.0
C968 C 0.82821 0.72992 0.51119 0.0
C969 C 0.79227 0.73258 0.5198 0.0
C970 C 0.9545 0.73955 0.50831 0.0
C971 C 0.95564 0.70193 0.50033 0.0
C972 C 0.91499 0.73693 0.51464 0.0
C973 C 0.87558 0.69676 0.51285 0.0
C974 C 0.87625 0.65897 0.50457 0.0
C975 C 0.91635 0.66152 0.49843 0.0
H976 H 0.28035 0.92673 0.81039 0.0
H977 H 0.25907 0.95457 0.89029 0.0
H978 H 0.21453 0.85394 0.81353 0.0
H979 H 0.1926 0.88305 0.89321 0.0
H980 H 0.09886 0.73751 0.89924 0.0
H981 H 0.16899 0.80635 0.89567 0.0
H982 H 0.13627 0.82303 0.81591 0.0
H983 H 0.06743 0.75385 0.81927 0.0
C984 C 0.26166 0.91689 0.82863 0.0
C985 C 0.27493 0.9452 0.85032 0.0
C986 C 0.22396 0.87566 0.8304 0.0
C987 C 0.1988 0.86274 0.85374 0.0
C988 C 0.21205 0.89157 0.87529 0.0
C989 C 0.24998 0.93239 0.87363 0.0
C990 C 0.10746 0.7556 0.88083 0.0
C991 C 0.07872 0.74017 0.85931 0.0
C992 C 0.14713 0.79506 0.87884 0.0
C993 C 0.15811 0.81983 0.85543 0.0
C994 C 0.12925 0.80409 0.83391 0.0
C995 C 0.08997 0.76448 0.8358 0.0
loop_
_geom_bond_atom_site_label_1
_geom_bond_atom_site_label_2
_geom_bond_distance
_geom_bond_site_symmetry_2
_ccdc_geom_bond_type
C0 C1 1.351 . S
C0 N3 1.368 . S
C0 H5 0.931 . S
C1 C0 1.351 . S
C1 N2 1.373 . S
C1 H29 0.930 . S
N2 C1 1.373 . S
N2 C4 1.340 . S
N3 C0 1.368 . S
N3 C4 1.321 . S
N3 Co6 2.135 . S
C4 N2 1.340 . S
C4 N3 1.321 . S
C4 H28 0.930 . S
H5 C0 0.931 . S
Co6 N3 2.135 . S
Co6 N9 2.121 . S
Co6 O14 2.055 . S
Co6 O17 2.039 . S
Co6 N20 2.140 . S
C7 O8 1.227 . S
C7 O17 1.265 . S
O8 C7 1.227 . S
N9 Co6 2.121 . S
N9 C11 1.375 . S
N9 C12 1.313 . S
C10 C11 1.338 . S
C10 N13 1.377 . S
C10 H30 0.930 . S
C11 N9 1.375 . S
C11 C10 1.338 . S
C11 H15 0.931 . S
C12 N9 1.313 . S
C12 N13 1.344 . S
C12 H16 0.930 . S
N13 C10 1.377 . S
N13 C12 1.344 . S
O14 Co6 2.055 . S
O14 C18 1.253 . S
H15 C11 0.931 . S
H16 C12 0.930 . S
O17 Co6 2.039 . S
O17 C7 1.265 . S
C18 O14 1.253 . S
C18 O19 1.227 . S
O19 C18 1.227 . S
N20 Co6 2.140 . S
N20 C23 1.346 . S
N20 C24 1.345 . S
C21 C22 1.387 . S
C21 C25 1.391 . S
C22 C21 1.387 . S
C22 C23 1.369 . S
C22 H31 0.929 . S
C23 N20 1.346 . S
C23 C22 1.369 . S
C23 H26 0.928 . S
C24 N20 1.345 . S
C24 C25 1.371 . S
C24 H27 0.931 . S
C25 C21 1.391 . S
C25 C24 1.371 . S
C25 H32 0.930 . S
H26 C23 0.928 . S
H27 C24 0.931 . S
H28 C4 0.930 . S
H29 C1 0.930 . S
H30 C10 0.930 . S
H31 C22 0.929 . S
H32 C25 0.930 . S
C33 C34 1.351 . S
C33 N36 1.368 . S
C33 H38 0.931 . S
C34 C33 1.351 . S
C34 N35 1.373 . S
C34 H62 0.930 . S
N35 C34 1.373 . S
N35 C37 1.340 . S
N36 C33 1.368 . S
N36 C37 1.321 . S
N36 Co39 2.135 . S
C37 N35 1.340 . S
C37 N36 1.321 . S
C37 H61 0.930 . S
H38 C33 0.931 . S
Co39 N36 2.135 . S
Co39 N42 2.121 . S
Co39 O47 2.055 . S
Co39 O50 2.039 . S
Co39 N53 2.140 . S
C40 O41 1.227 . S
C40 O50 1.265 . S
O41 C40 1.227 . S
N42 Co39 2.121 . S
N42 C44 1.375 . S
N42 C45 1.313 . S
C43 C44 1.338 . S
C43 N46 1.377 . S
C43 H63 0.930 . S
C44 N42 1.375 . S
C44 C43 1.338 . S
C44 H48 0.931 . S
C45 N42 1.313 . S
C45 N46 1.344 . S
C45 H49 0.930 . S
N46 C43 1.377 . S
N46 C45 1.344 . S
O47 Co39 2.055 . S
O47 C51 1.253 . S
H48 C44 0.931 . S
H49 C45 0.930 . S
O50 Co39 2.039 . S
O50 C40 1.265 . S
C51 O47 1.253 . S
C51 O52 1.227 . S
O52 C51 1.227 . S
N53 Co39 2.140 . S
N53 C56 1.346 . S
N53 C57 1.345 . S
C54 C55 1.387 . S
C54 C58 1.391 1_455 S
C55 C54 1.387 . S
C55 C56 1.369 1_455 S
C55 H64 0.929 . S
C56 N53 1.346 . S
C56 C55 1.369 1_655 S
C56 H59 0.928 . S
C57 N53 1.345 . S
C57 C58 1.371 . S
C57 H60 0.931 . S
C58 C54 1.391 1_655 S
C58 C57 1.371 . S
C58 H65 0.930 . S
H59 C56 0.928 . S
H60 C57 0.931 . S
H61 C37 0.930 . S
H62 C34 0.930 . S
H63 C43 0.930 . S
H64 C55 0.929 . S
H65 C58 0.930 . S
C66 C67 1.351 . S
C66 N69 1.368 . S
C66 H71 0.931 . S
C67 C66 1.351 . S
C67 N68 1.373 . S
C67 H95 0.930 . S
N68 C67 1.373 . S
N68 C70 1.340 . S
N69 C66 1.368 . S
N69 C70 1.321 . S
N69 Co72 2.135 . S
C70 N68 1.340 . S
C70 N69 1.321 . S
C70 H94 0.930 . S
H71 C66 0.931 . S
Co72 N69 2.135 . S
Co72 N75 2.121 . S
Co72 O80 2.055 . S
Co72 O83 2.039 . S
Co72 N86 2.140 . S
C73 O74 1.227 . S
C73 O83 1.265 . S
O74 C73 1.227 . S
N75 Co72 2.121 . S
N75 C77 1.375 . S
N75 C78 1.313 . S
C76 C77 1.338 . S
C76 N79 1.377 . S
C76 H96 0.930 . S
C77 N75 1.375 . S
C77 C76 1.338 . S
C77 H81 0.931 . S
C78 N75 1.313 . S
C78 N79 1.344 . S
C78 H82 0.930 . S
N79 C76 1.377 . S
N79 C78 1.344 . S
O80 Co72 2.055 . S
O80 C84 1.253 . S
H81 C77 0.931 . S
H82 C78 0.930 . S
O83 Co72 2.039 . S
O83 C73 1.265 . S
C84 O80 1.253 . S
C84 O85 1.227 . S
O85 C84 1.227 . S
N86 Co72 2.140 . S
N86 C89 1.346 . S
N86 C90 1.345 . S
C87 C88 1.387 . S
C87 C91 1.391 1_545 S
C88 C87 1.387 . S
C88 C89 1.369 1_545 S
C88 H97 0.929 . S
C89 N86 1.346 . S
C89 C88 1.369 1_565 S
C89 H92 0.928 . S
C90 N86 1.345 . S
C90 C91 1.371 . S
C90 H93 0.931 . S
C91 C87 1.391 1_565 S
C91 C90 1.371 . S
C91 H98 0.930 . S
H92 C89 0.928 . S
H93 C90 0.931 . S
H94 C70 0.930 . S
H95 C67 0.930 . S
H96 C76 0.930 . S
H97 C88 0.929 . S
H98 C91 0.930 . S
C99 C100 1.351 . S
C99 N102 1.368 . S
C99 H104 0.931 . S
C100 C99 1.351 . S
C100 N101 1.373 . S
C100 H128 0.930 . S
N101 C100 1.373 . S
N101 C103 1.340 . S
N102 C99 1.368 . S
N102 C103 1.321 . S
N102 Co105 2.135 . S
C103 N101 1.340 . S
C103 N102 1.321 . S
C103 H127 0.930 . S
H104 C99 0.931 . S
Co105 N102 2.135 . S
Co105 N108 2.121 . S
Co105 O113 2.055 . S
Co105 O116 2.039 . S
Co105 N119 2.140 . S
C106 O107 1.227 . S
C106 O116 1.265 . S
O107 C106 1.227 . S
N108 Co105 2.121 . S
N108 C110 1.375 . S
N108 C111 1.313 . S
C109 C110 1.338 . S
C109 N112 1.377 . S
C109 H129 0.930 . S
C110 N108 1.375 . S
C110 C109 1.338 . S
C110 H114 0.931 . S
C111 N108 1.313 . S
C111 N112 1.344 . S
C111 H115 0.930 . S
N112 C109 1.377 . S
N112 C111 1.344 . S
O113 Co105 2.055 . S
O113 C117 1.253 . S
H114 C110 0.931 . S
H115 C111 0.930 . S
O116 Co105 2.039 . S
O116 C106 1.265 . S
C117 O113 1.253 . S
C117 O118 1.227 . S
O118 C117 1.227 . S
N119 Co105 2.140 . S
N119 C122 1.346 . S
N119 C123 1.345 . S
C120 C121 1.387 . S
C120 C124 1.391 . S
C121 C120 1.387 . S
C121 C122 1.369 . S
C121 H130 0.929 . S
C122 N119 1.346 . S
C122 C121 1.369 . S
C122 H125 0.928 . S
C123 N119 1.345 . S
C123 C124 1.371 . S
C123 H126 0.931 . S
C124 C120 1.391 . S
C124 C123 1.371 . S
C124 H131 0.930 . S
H125 C122 0.928 . S
H126 C123 0.931 . S
H127 C103 0.930 . S
H128 C100 0.930 . S
H129 C109 0.930 . S
H130 C121 0.929 . S
H131 C124 0.930 . S
C132 C133 1.351 . S
C132 N135 1.368 . S
C132 H137 0.931 . S
C133 C132 1.351 . S
C133 N134 1.373 . S
C133 H161 0.930 . S
N134 C133 1.373 . S
N134 C136 1.340 . S
N135 C132 1.368 . S
N135 C136 1.321 . S
N135 Co138 2.135 . S
C136 N134 1.340 . S
C136 N135 1.321 . S
C136 H160 0.930 . S
H137 C132 0.931 . S
Co138 N135 2.135 . S
Co138 N141 2.121 . S
Co138 O146 2.055 . S
Co138 O149 2.039 . S
Co138 N152 2.140 . S
C139 O140 1.227 . S
C139 O149 1.265 . S
O140 C139 1.227 . S
N141 Co138 2.121 . S
N141 C143 1.375 . S
N141 C144 1.313 . S
C142 C143 1.338 . S
C142 N145 1.377 . S
C142 H162 0.930 . S
C143 N141 1.375 . S
C143 C142 1.338 . S
C143 H147 0.931 . S
C144 N141 1.313 . S
C144 N145 1.344 . S
C144 H148 0.930 . S
N145 C142 1.377 . S
N145 C144 1.344 . S
O146 Co138 2.055 . S
O146 C150 1.253 . S
H147 C143 0.931 . S
H148 C144 0.930 . S
O149 Co138 2.039 . S
O149 C139 1.265 . S
C150 O146 1.253 . S
C150 O151 1.227 . S
O151 C150 1.227 . S
N152 Co138 2.140 . S
N152 C155 1.346 . S
N152 C156 1.345 . S
C153 C154 1.387 . S
C153 C157 1.391 1_655 S
C154 C153 1.387 . S
C154 C155 1.369 1_655 S
C154 H163 0.929 . S
C155 N152 1.346 . S
C155 C154 1.369 1_455 S
C155 H158 0.928 . S
C156 N152 1.345 . S
C156 C157 1.371 . S
C156 H159 0.931 . S
C157 C153 1.391 1_455 S
C157 C156 1.371 . S
C157 H164 0.930 . S
H158 C155 0.928 . S
H159 C156 0.931 . S
H160 C136 0.930 . S
H161 C133 0.930 . S
H162 C142 0.930 . S
H163 C154 0.929 . S
H164 C157 0.930 . S
C165 C166 1.351 . S
C165 N168 1.368 . S
C165 H170 0.931 . S
C166 C165 1.351 . S
C166 N167 1.373 . S
C166 H194 0.930 . S
N167 C166 1.373 . S
N167 C169 1.340 . S
N168 C165 1.368 . S
N168 C169 1.321 . S
N168 Co171 2.135 . S
C169 N167 1.340 . S
C169 N168 1.321 . S
C169 H193 0.930 . S
H170 C165 0.931 . S
Co171 N168 2.135 . S
Co171 N174 2.121 . S
Co171 O179 2.055 . S
Co171 O182 2.039 . S
Co171 N185 2.140 . S
C172 O173 1.227 . S
C172 O182 1.265 . S
O173 C172 1.227 . S
N174 Co171 2.121 . S
N174 C176 1.375 . S
N174 C177 1.313 . S
C175 C176 1.338 . S
C175 N178 1.377 . S
C175 H195 0.930 . S
C176 N174 1.375 . S
C176 C175 1.338 . S
C176 H180 0.931 . S
C177 N174 1.313 . S
C177 N178 1.344 . S
C177 H181 0.930 . S
N178 C175 1.377 . S
N178 C177 1.344 . S
O179 Co171 2.055 . S
O179 C183 1.253 . S
H180 C176 0.931 . S
H181 C177 0.930 . S
O182 Co171 2.039 . S
O182 C172 1.265 . S
C183 O179 1.253 . S
C183 O184 1.227 . S
O184 C183 1.227 . S
N185 Co171 2.140 . S
N185 C188 1.346 . S
N185 C189 1.345 . S
C186 C187 1.387 . S
C186 C190 1.391 1_565 S
C187 C186 1.387 . S
C187 C188 1.369 1_565 S
C187 H196 0.929 . S
C188 N185 1.346 . S
C188 C187 1.369 1_545 S
C188 H191 0.928 . S
C189 N185 1.345 . S
C189 C190 1.371 . S
C189 H192 0.931 . S
C190 C186 1.391 1_545 S
C190 C189 1.371 . S
C190 H197 0.930 . S
H191 C188 0.928 . S
H192 C189 0.931 . S
H193 C169 0.930 . S
H194 C166 0.930 . S
H195 C175 0.930 . S
H196 C187 0.929 . S
H197 C190 0.930 . S
C198 C199 1.351 . S
C198 N201 1.368 . S
C198 H203 0.931 . S
C199 C198 1.351 . S
C199 N200 1.373 . S
C199 H227 0.930 . S
N200 C199 1.373 . S
N200 C202 1.340 . S
N201 C198 1.368 . S
N201 C202 1.321 . S
N201 Co204 2.135 . S
C202 N200 1.340 . S
C202 N201 1.321 . S
C202 H226 0.930 . S
H203 C198 0.931 . S
Co204 N201 2.135 . S
Co204 N207 2.121 . S
Co204 O212 2.055 . S
Co204 O215 2.039 . S
Co204 N218 2.140 . S
C205 O206 1.227 . S
C205 O215 1.265 . S
O206 C205 1.227 . S
N207 Co204 2.121 . S
N207 C209 1.375 . S
N207 C210 1.313 . S
C208 C209 1.338 . S
C208 N211 1.377 . S
C208 H228 0.930 . S
C209 N207 1.375 . S
C209 C208 1.338 . S
C209 H213 0.931 . S
C210 N207 1.313 . S
C210 N211 1.344 . S
C210 H214 0.930 . S
N211 C208 1.377 . S
N211 C210 1.344 . S
O212 Co204 2.055 . S
O212 C216 1.253 . S
H213 C209 0.931 . S
H214 C210 0.930 . S
O215 Co204 2.039 . S
O215 C205 1.265 . S
C216 O212 1.253 . S
C216 O217 1.227 . S
O217 C216 1.227 . S
N218 Co204 2.140 . S
N218 C221 1.346 . S
N218 C222 1.345 . S
C219 C220 1.387 . S
C219 C223 1.391 . S
C220 C219 1.387 . S
C220 C221 1.369 . S
C220 H229 0.929 . S
C221 N218 1.346 . S
C221 C220 1.369 . S
C221 H224 0.928 . S
C222 N218 1.345 . S
C222 C223 1.371 . S
C222 H225 0.931 . S
C223 C219 1.391 . S
C223 C222 1.371 . S
C223 H230 0.930 . S
H224 C221 0.928 . S
H225 C222 0.931 . S
H226 C202 0.930 . S
H227 C199 0.930 . S
H228 C208 0.930 . S
H229 C220 0.929 . S
H230 C223 0.930 . S
C231 C232 1.351 . S
C231 N234 1.368 . S
C231 H236 0.931 . S
C232 C231 1.351 . S
C232 N233 1.373 . S
C232 H260 0.930 . S
N233 C232 1.373 . S
N233 C235 1.340 . S
N234 C231 1.368 . S
N234 C235 1.321 . S
N234 Co237 2.135 . S
C235 N233 1.340 . S
C235 N234 1.321 . S
C235 H259 0.930 . S
H236 C231 0.931 . S
Co237 N234 2.135 . S
Co237 N240 2.121 . S
Co237 O245 2.055 . S
Co237 O248 2.039 . S
Co237 N251 2.140 . S
C238 O239 1.227 . S
C238 O248 1.265 . S
O239 C238 1.227 . S
N240 Co237 2.121 . S
N240 C242 1.375 . S
N240 C243 1.313 . S
C241 C242 1.338 . S
C241 N244 1.377 . S
C241 H261 0.930 . S
C242 N240 1.375 . S
C242 C241 1.338 . S
C242 H246 0.931 . S
C243 N240 1.313 . S
C243 N244 1.344 . S
C243 H247 0.930 . S
N244 C241 1.377 . S
N244 C243 1.344 . S
O245 Co237 2.055 . S
O245 C249 1.253 . S
H246 C242 0.931 . S
H247 C243 0.930 . S
O248 Co237 2.039 . S
O248 C238 1.265 . S
C249 O245 1.253 . S
C249 O250 1.227 . S
O250 C249 1.227 . S
N251 Co237 2.140 . S
N251 C254 1.346 . S
N251 C255 1.345 . S
C252 C253 1.387 . S
C252 C256 1.391 1_455 S
C253 C252 1.387 . S
C253 C254 1.369 1_455 S
C253 H262 0.929 . S
C254 N251 1.346 . S
C254 C253 1.369 1_655 S
C254 H257 0.928 . S
C255 N251 1.345 . S
C255 C256 1.371 . S
C255 H258 0.931 . S
C256 C252 1.391 1_655 S
C256 C255 1.371 . S
C256 H263 0.930 . S
H257 C254 0.928 . S
H258 C255 0.931 . S
H259 C235 0.930 . S
H260 C232 0.930 . S
H261 C241 0.930 . S
H262 C253 0.929 . S
H263 C256 0.930 . S
C264 C265 1.351 . S
C264 N267 1.368 . S
C264 H269 0.931 . S
C265 C264 1.351 . S
C265 N266 1.373 . S
C265 H293 0.930 . S
N266 C265 1.373 . S
N266 C268 1.340 . S
N267 C264 1.368 . S
N267 C268 1.321 . S
N267 Co270 2.135 . S
C268 N266 1.340 . S
C268 N267 1.321 . S
C268 H292 0.930 . S
H269 C264 0.931 . S
Co270 N267 2.135 . S
Co270 N273 2.121 . S
Co270 O278 2.055 . S
Co270 O281 2.039 . S
Co270 N284 2.140 . S
C271 O272 1.227 . S
C271 O281 1.265 . S
O272 C271 1.227 . S
N273 Co270 2.121 . S
N273 C275 1.375 . S
N273 C276 1.313 . S
C274 C275 1.338 . S
C274 N277 1.377 . S
C274 H294 0.930 . S
C275 N273 1.375 . S
C275 C274 1.338 . S
C275 H279 0.931 . S
C276 N273 1.313 . S
C276 N277 1.344 . S
C276 H280 0.930 . S
N277 C274 1.377 . S
N277 C276 1.344 . S
O278 Co270 2.055 . S
O278 C282 1.253 . S
H279 C275 0.931 . S
H280 C276 0.930 . S
O281 Co270 2.039 . S
O281 C271 1.265 . S
C282 O278 1.253 . S
C282 O283 1.227 . S
O283 C282 1.227 . S
N284 Co270 2.140 . S
N284 C287 1.346 . S
N284 C288 1.345 . S
C285 C286 1.387 . S
C285 C289 1.391 1_545 S
C286 C285 1.387 . S
C286 C287 1.369 1_545 S
C286 H295 0.929 . S
C287 N284 1.346 . S
C287 C286 1.369 1_565 S
C287 H290 0.928 . S
C288 N284 1.345 . S
C288 C289 1.371 . S
C288 H291 0.931 . S
C289 C285 1.391 1_565 S
C289 C288 1.371 . S
C289 H296 0.930 . S
H290 C287 0.928 . S
H291 C288 0.931 . S
H292 C268 0.930 . S
H293 C265 0.930 . S
H294 C274 0.930 . S
H295 C286 0.929 . S
H296 C289 0.930 . S
C297 C298 1.351 . S
C297 N300 1.368 . S
C297 H302 0.931 . S
C298 C297 1.351 . S
C298 N299 1.373 . S
C298 H326 0.930 . S
N299 C298 1.373 . S
N299 C301 1.340 . S
N300 C297 1.368 . S
N300 C301 1.321 . S
N300 Co303 2.135 . S
C301 N299 1.340 . S
C301 N300 1.321 . S
C301 H325 0.930 . S
H302 C297 0.931 . S
Co303 N300 2.135 . S
Co303 N306 2.121 . S
Co303 O311 2.055 . S
Co303 O314 2.039 . S
Co303 N317 2.140 . S
C304 O305 1.227 . S
C304 O314 1.265 . S
O305 C304 1.227 . S
N306 Co303 2.121 . S
N306 C308 1.375 . S
N306 C309 1.313 . S
C307 C308 1.338 . S
C307 N310 1.377 . S
C307 H327 0.930 . S
C308 N306 1.375 . S
C308 C307 1.338 . S
C308 H312 0.931 . S
C309 N306 1.313 . S
C309 N310 1.344 . S
C309 H313 0.930 . S
N310 C307 1.377 . S
N310 C309 1.344 . S
O311 Co303 2.055 . S
O311 C315 1.253 . S
H312 C308 0.931 . S
H313 C309 0.930 . S
O314 Co303 2.039 . S
O314 C304 1.265 . S
C315 O311 1.253 . S
C315 O316 1.227 . S
O316 C315 1.227 . S
N317 Co303 2.140 . S
N317 C320 1.346 . S
N317 C321 1.345 . S
C318 C319 1.387 . S
C318 C322 1.391 . S
C319 C318 1.387 . S
C319 C320 1.369 . S
C319 H328 0.929 . S
C320 N317 1.346 . S
C320 C319 1.369 . S
C320 H323 0.928 . S
C321 N317 1.345 . S
C321 C322 1.371 . S
C321 H324 0.931 . S
C322 C318 1.391 . S
C322 C321 1.371 . S
C322 H329 0.930 . S
H323 C320 0.928 . S
H324 C321 0.931 . S
H325 C301 0.930 . S
H326 C298 0.930 . S
H327 C307 0.930 . S
H328 C319 0.929 . S
H329 C322 0.930 . S
C330 C331 1.351 . S
C330 N333 1.368 . S
C330 H335 0.931 . S
C331 C330 1.351 . S
C331 N332 1.373 . S
C331 H359 0.930 . S
N332 C331 1.373 . S
N332 C334 1.340 . S
N333 C330 1.368 . S
N333 C334 1.321 . S
N333 Co336 2.135 . S
C334 N332 1.340 . S
C334 N333 1.321 . S
C334 H358 0.930 . S
H335 C330 0.931 . S
Co336 N333 2.135 . S
Co336 N339 2.121 . S
Co336 O344 2.055 . S
Co336 O347 2.039 . S
Co336 N350 2.140 . S
C337 O338 1.227 . S
C337 O347 1.265 . S
O338 C337 1.227 . S
N339 Co336 2.121 . S
N339 C341 1.375 . S
N339 C342 1.313 . S
C340 C341 1.338 . S
C340 N343 1.377 . S
C340 H360 0.930 . S
C341 N339 1.375 . S
C341 C340 1.338 . S
C341 H345 0.931 . S
C342 N339 1.313 . S
C342 N343 1.344 . S
C342 H346 0.930 . S
N343 C340 1.377 . S
N343 C342 1.344 . S
O344 Co336 2.055 . S
O344 C348 1.253 . S
H345 C341 0.931 . S
H346 C342 0.930 . S
O347 Co336 2.039 . S
O347 C337 1.265 . S
C348 O344 1.253 . S
C348 O349 1.227 . S
O349 C348 1.227 . S
N350 Co336 2.140 . S
N350 C353 1.346 . S
N350 C354 1.345 . S
C351 C352 1.387 . S
C351 C355 1.391 1_655 S
C352 C351 1.387 . S
C352 C353 1.369 1_655 S
C352 H361 0.929 . S
C353 N350 1.346 . S
C353 C352 1.369 1_455 S
C353 H356 0.928 . S
C354 N350 1.345 . S
C354 C355 1.371 . S
C354 H357 0.931 . S
C355 C351 1.391 1_455 S
C355 C354 1.371 . S
C355 H362 0.930 . S
H356 C353 0.928 . S
H357 C354 0.931 . S
H358 C334 0.930 . S
H359 C331 0.930 . S
H360 C340 0.930 . S
H361 C352 0.929 . S
H362 C355 0.930 . S
C363 C364 1.351 . S
C363 N366 1.368 . S
C363 H368 0.931 . S
C364 C363 1.351 . S
C364 N365 1.373 . S
C364 H392 0.930 . S
N365 C364 1.373 . S
N365 C367 1.340 . S
N366 C363 1.368 . S
N366 C367 1.321 . S
N366 Co369 2.135 . S
C367 N365 1.340 . S
C367 N366 1.321 . S
C367 H391 0.930 . S
H368 C363 0.931 . S
Co369 N366 2.135 . S
Co369 N372 2.121 . S
Co369 O377 2.055 . S
Co369 O380 2.039 . S
Co369 N383 2.140 . S
C370 O371 1.227 . S
C370 O380 1.265 . S
O371 C370 1.227 . S
N372 Co369 2.121 . S
N372 C374 1.375 . S
N372 C375 1.313 . S
C373 C374 1.338 . S
C373 N376 1.377 . S
C373 H393 0.930 . S
C374 N372 1.375 . S
C374 C373 1.338 . S
C374 H378 0.931 . S
C375 N372 1.313 . S
C375 N376 1.344 . S
C375 H379 0.930 . S
N376 C373 1.377 . S
N376 C375 1.344 . S
O377 Co369 2.055 . S
O377 C381 1.253 . S
H378 C374 0.931 . S
H379 C375 0.930 . S
O380 Co369 2.039 . S
O380 C370 1.265 . S
C381 O377 1.253 . S
C381 O382 1.227 . S
O382 C381 1.227 . S
N383 Co369 2.140 . S
N383 C386 1.346 . S
N383 C387 1.345 . S
C384 C385 1.387 . S
C384 C388 1.391 1_565 S
C385 C384 1.387 . S
C385 C386 1.369 1_565 S
C385 H394 0.929 . S
C386 N383 1.346 . S
C386 C385 1.369 1_545 S
C386 H389 0.928 . S
C387 N383 1.345 . S
C387 C388 1.371 . S
C387 H390 0.931 . S
C388 C384 1.391 1_545 S
C388 C387 1.371 . S
C388 H395 0.930 . S
H389 C386 0.928 . S
H390 C387 0.931 . S
H391 C367 0.930 . S
H392 C364 0.930 . S
H393 C373 0.930 . S
H394 C385 0.929 . S
H395 C388 0.930 . S
H396 C404 0.950 . S
H397 C409 0.950 . S
H398 C406 0.950 . S
H399 C408 0.950 . S
H400 C410 0.950 . S
H401 C412 0.950 . S
H402 C414 0.950 . S
H403 C415 0.950 . S
C404 H396 0.950 . S
C404 C405 1.386 . S
C404 C406 1.391 . S
C405 C404 1.386 . S
C405 C409 1.393 . S
C406 H398 0.950 . S
C406 C404 1.391 . S
C406 C407 1.400 . S
C407 C406 1.400 . S
C407 C408 1.398 . S
C407 C413 1.491 . S
C408 H399 0.950 . S
C408 C407 1.398 . S
C408 C409 1.391 . S
C409 H397 0.950 . S
C409 C405 1.393 . S
C409 C408 1.391 . S
C410 H400 0.950 . S
C410 C411 1.386 . S
C410 C412 1.391 . S
C411 C410 1.386 . S
C411 C415 1.393 . S
C412 H401 0.950 . S
C412 C410 1.391 . S
C412 C413 1.400 . S
C413 C407 1.491 . S
C413 C412 1.400 . S
C413 C414 1.398 . S
C414 H402 0.950 . S
C414 C413 1.398 . S
C414 C415 1.391 . S
C415 H403 0.950 . S
C415 C411 1.393 . S
C415 C414 1.391 . S
H416 C424 0.950 . S
H417 C429 0.950 . S
H418 C426 0.950 . S
H419 C428 0.950 1_455 S
H420 C430 0.950 . S
H421 C432 0.950 . S
H422 C434 0.950 1_655 S
H423 C435 0.950 . S
C424 H416 0.950 . S
C424 C425 1.386 . S
C424 C426 1.391 . S
C425 C424 1.386 . S
C425 C429 1.393 . S
C426 H418 0.950 . S
C426 C424 1.391 . S
C426 C427 1.400 . S
C427 C426 1.400 . S
C427 C428 1.398 . S
C427 C433 1.491 1_655 S
C428 H419 0.950 1_655 S
C428 C427 1.398 . S
C428 C429 1.391 . S
C429 H417 0.950 . S
C429 C425 1.393 . S
C429 C428 1.391 . S
C430 H420 0.950 . S
C430 C431 1.386 . S
C430 C432 1.391 . S
C431 C430 1.386 . S
C431 C435 1.393 . S
C432 H421 0.950 . S
C432 C430 1.391 . S
C432 C433 1.400 . S
C433 C427 1.491 1_455 S
C433 C432 1.400 . S
C433 C434 1.398 . S
C434 H422 0.950 1_455 S
C434 C433 1.398 . S
C434 C435 1.391 . S
C435 H423 0.950 . S
C435 C431 1.393 . S
C435 C434 1.391 . S
H436 C444 0.950 . S
H437 C449 0.950 . S
H438 C446 0.950 . S
H439 C448 0.950 . S
H440 C450 0.950 . S
H441 C452 0.950 . S
H442 C454 0.950 . S
H443 C455 0.950 . S
C444 H436 0.950 . S
C444 C445 1.386 . S
C444 C446 1.391 . S
C445 C444 1.386 . S
C445 C449 1.393 . S
C446 H438 0.950 . S
C446 C444 1.391 . S
C446 C447 1.400 . S
C447 C446 1.400 . S
C447 C448 1.398 . S
C447 C453 1.491 1_566 S
C448 H439 0.950 . S
C448 C447 1.398 . S
C448 C449 1.391 . S
C449 H437 0.950 . S
C449 C445 1.393 . S
C449 C448 1.391 . S
C450 H440 0.950 . S
C450 C451 1.386 . S
C450 C452 1.391 . S
C451 C450 1.386 . S
C451 C455 1.393 . S
C452 H441 0.950 . S
C452 C450 1.391 . S
C452 C453 1.400 . S
C453 C447 1.491 1_544 S
C453 C452 1.400 . S
C453 C454 1.398 . S
C454 H442 0.950 . S
C454 C453 1.398 . S
C454 C455 1.391 . S
C455 H443 0.950 . S
C455 C451 1.393 . S
C455 C454 1.391 . S
H456 C464 0.950 . S
H457 C469 0.950 . S
H458 C466 0.950 . S
H459 C468 0.950 . S
H460 C470 0.950 . S
H461 C472 0.950 . S
H462 C474 0.950 . S
H463 C475 0.950 . S
C464 H456 0.950 . S
C464 C465 1.386 . S
C464 C466 1.391 . S
C465 C464 1.386 . S
C465 C469 1.393 . S
C466 H458 0.950 . S
C466 C464 1.391 . S
C466 C467 1.400 . S
C467 C466 1.400 . S
C467 C468 1.398 . S
C467 C473 1.491 . S
C468 H459 0.950 . S
C468 C467 1.398 . S
C468 C469 1.391 . S
C469 H457 0.950 . S
C469 C465 1.393 . S
C469 C468 1.391 . S
C470 H460 0.950 . S
C470 C471 1.386 . S
C470 C472 1.391 . S
C471 C470 1.386 . S
C471 C475 1.393 . S
C472 H461 0.950 . S
C472 C470 1.391 . S
C472 C473 1.400 . S
C473 C467 1.491 . S
C473 C472 1.400 . S
C473 C474 1.398 . S
C474 H462 0.950 . S
C474 C473 1.398 . S
C474 C475 1.391 . S
C475 H463 0.950 . S
C475 C471 1.393 . S
C475 C474 1.391 . S
H476 C484 0.950 . S
H477 C489 0.950 . S
H478 C486 0.950 . S
H479 C488 0.950 1_655 S
H480 C490 0.950 . S
H481 C492 0.950 . S
H482 C494 0.950 1_455 S
H483 C495 0.950 . S
C484 H476 0.950 . S
C484 C485 1.386 . S
C484 C486 1.391 . S
C485 C484 1.386 . S
C485 C489 1.393 . S
C486 H478 0.950 . S
C486 C484 1.391 . S
C486 C487 1.400 . S
C487 C486 1.400 . S
C487 C488 1.398 . S
C487 C493 1.491 1_455 S
C488 H479 0.950 1_455 S
C488 C487 1.398 . S
C488 C489 1.391 . S
C489 H477 0.950 . S
C489 C485 1.393 . S
C489 C488 1.391 . S
C490 H480 0.950 . S
C490 C491 1.386 . S
C490 C492 1.391 . S
C491 C490 1.386 . S
C491 C495 1.393 . S
C492 H481 0.950 . S
C492 C490 1.391 . S
C492 C493 1.400 . S
C493 C487 1.491 1_655 S
C493 C492 1.400 . S
C493 C494 1.398 . S
C494 H482 0.950 1_655 S
C494 C493 1.398 . S
C494 C495 1.391 . S
C495 H483 0.950 . S
C495 C491 1.393 . S
C495 C494 1.391 . S
H496 C504 0.950 . S
H497 C509 0.950 . S
H498 C506 0.950 . S
H499 C508 0.950 1_554 S
H500 C510 0.950 . S
H501 C512 0.950 . S
H502 C514 0.950 1_556 S
H503 C515 0.950 . S
C504 H496 0.950 . S
C504 C505 1.386 . S
C504 C506 1.391 1_545 S
C505 C504 1.386 . S
C505 C509 1.393 . S
C506 H498 0.950 . S
C506 C504 1.391 1_565 S
C506 C507 1.400 1_565 S
C507 C506 1.400 1_545 S
C507 C508 1.398 . S
C507 C513 1.491 1_546 S
C508 H499 0.950 1_556 S
C508 C507 1.398 . S
C508 C509 1.391 . S
C509 H497 0.950 . S
C509 C505 1.393 . S
C509 C508 1.391 . S
C510 H500 0.950 . S
C510 C511 1.386 . S
C510 C512 1.391 1_565 S
C511 C510 1.386 . S
C511 C515 1.393 . S
C512 H501 0.950 . S
C512 C510 1.391 1_545 S
C512 C513 1.400 1_545 S
C513 C507 1.491 1_564 S
C513 C512 1.400 1_565 S
C513 C514 1.398 . S
C514 H502 0.950 1_554 S
C514 C513 1.398 . S
C514 C515 1.391 . S
C515 H503 0.950 . S
C515 C511 1.393 . S
C515 C514 1.391 . S
H516 C524 0.950 . S
H517 C529 0.950 . S
H518 C526 0.950 . S
H519 C528 0.950 . S
H520 C530 0.950 . S
H521 C532 0.950 . S
H522 C534 0.950 . S
H523 C535 0.950 . S
C524 H516 0.950 . S
C524 C525 1.386 . S
C524 C526 1.391 . S
C525 C524 1.386 . S
C525 C529 1.393 . S
C526 H518 0.950 . S
C526 C524 1.391 . S
C526 C527 1.400 . S
C527 C526 1.400 . S
C527 C528 1.398 . S
C527 C533 1.491 1_556 S
C528 H519 0.950 . S
C528 C527 1.398 . S
C528 C529 1.391 . S
C529 H517 0.950 . S
C529 C525 1.393 . S
C529 C528 1.391 . S
C530 H520 0.950 . S
C530 C531 1.386 . S
C530 C532 1.391 . S
C531 C530 1.386 . S
C531 C535 1.393 . S
C532 H521 0.950 . S
C532 C530 1.391 . S
C532 C533 1.400 . S
C533 C527 1.491 1_554 S
C533 C532 1.400 . S
C533 C534 1.398 . S
C534 H522 0.950 . S
C534 C533 1.398 . S
C534 C535 1.391 . S
C535 H523 0.950 . S
C535 C531 1.393 . S
C535 C534 1.391 . S
H536 C544 0.950 . S
H537 C549 0.950 . S
H538 C546 0.950 . S
H539 C548 0.950 . S
H540 C550 0.950 . S
H541 C552 0.950 . S
H542 C554 0.950 . S
H543 C555 0.950 . S
C544 H536 0.950 . S
C544 C545 1.386 . S
C544 C546 1.391 . S
C545 C544 1.386 . S
C545 C549 1.393 . S
C546 H538 0.950 . S
C546 C544 1.391 . S
C546 C547 1.400 . S
C547 C546 1.400 . S
C547 C548 1.398 . S
C547 C553 1.491 . S
C548 H539 0.950 . S
C548 C547 1.398 . S
C548 C549 1.391 . S
C549 H537 0.950 . S
C549 C545 1.393 . S
C549 C548 1.391 . S
C550 H540 0.950 . S
C550 C551 1.386 . S
C550 C552 1.391 . S
C551 C550 1.386 . S
C551 C555 1.393 . S
C552 H541 0.950 . S
C552 C550 1.391 . S
C552 C553 1.400 . S
C553 C547 1.491 . S
C553 C552 1.400 . S
C553 C554 1.398 . S
C554 H542 0.950 . S
C554 C553 1.398 . S
C554 C555 1.391 . S
C555 H543 0.950 . S
C555 C551 1.393 . S
C555 C554 1.391 . S
H556 C564 0.950 . S
H557 C569 0.950 . S
H558 C566 0.950 . S
H559 C568 0.950 . S
H560 C570 0.950 . S
H561 C572 0.950 . S
H562 C574 0.950 . S
H563 C575 0.950 . S
C564 H556 0.950 . S
C564 C565 1.386 . S
C564 C566 1.391 . S
C565 C564 1.386 . S
C565 C569 1.393 . S
C566 H558 0.950 . S
C566 C564 1.391 . S
C566 C567 1.400 . S
C567 C566 1.400 . S
C567 C568 1.398 . S
C567 C573 1.491 . S
C568 H559 0.950 . S
C568 C567 1.398 . S
C568 C569 1.391 . S
C569 H557 0.950 . S
C569 C565 1.393 . S
C569 C568 1.391 . S
C570 H560 0.950 . S
C570 C571 1.386 . S
C570 C572 1.391 . S
C571 C570 1.386 . S
C571 C575 1.393 . S
C572 H561 0.950 . S
C572 C570 1.391 . S
C572 C573 1.400 . S
C573 C567 1.491 . S
C573 C572 1.400 . S
C573 C574 1.398 . S
C574 H562 0.950 . S
C574 C573 1.398 . S
C574 C575 1.391 . S
C575 H563 0.950 . S
C575 C571 1.393 . S
C575 C574 1.391 . S
H576 C584 0.950 . S
H577 C589 0.950 . S
H578 C586 0.950 . S
H579 C588 0.950 . S
H580 C590 0.950 . S
H581 C592 0.950 . S
H582 C594 0.950 . S
H583 C595 0.950 . S
C584 H576 0.950 . S
C584 C585 1.386 . S
C584 C586 1.391 . S
C585 C584 1.386 . S
C585 C589 1.393 . S
C586 H578 0.950 . S
C586 C584 1.391 . S
C586 C587 1.400 . S
C587 C586 1.400 . S
C587 C588 1.398 . S
C587 C593 1.491 1_556 S
C588 H579 0.950 . S
C588 C587 1.398 . S
C588 C589 1.391 . S
C589 H577 0.950 . S
C589 C585 1.393 . S
C589 C588 1.391 . S
C590 H580 0.950 . S
C590 C591 1.386 . S
C590 C592 1.391 . S
C591 C590 1.386 . S
C591 C595 1.393 . S
C592 H581 0.950 . S
C592 C590 1.391 . S
C592 C593 1.400 . S
C593 C587 1.491 1_554 S
C593 C592 1.400 . S
C593 C594 1.398 . S
C594 H582 0.950 . S
C594 C593 1.398 . S
C594 C595 1.391 . S
C595 H583 0.950 . S
C595 C591 1.393 . S
C595 C594 1.391 . S
H596 C604 0.950 . S
H597 C609 0.950 . S
H598 C606 0.950 . S
H599 C608 0.950 . S
H600 C610 0.950 . S
H601 C612 0.950 . S
H602 C614 0.950 . S
H603 C615 0.950 . S
C604 H596 0.950 . S
C604 C605 1.386 . S
C604 C606 1.391 . S
C605 C604 1.386 . S
C605 C609 1.393 . S
C606 H598 0.950 . S
C606 C604 1.391 . S
C606 C607 1.400 . S
C607 C606 1.400 . S
C607 C608 1.398 . S
C607 C613 1.491 . S
C608 H599 0.950 . S
C608 C607 1.398 . S
C608 C609 1.391 . S
C609 H597 0.950 . S
C609 C605 1.393 . S
C609 C608 1.391 . S
C610 H600 0.950 . S
C610 C611 1.386 . S
C610 C612 1.391 . S
C611 C610 1.386 . S
C611 C615 1.393 . S
C612 H601 0.950 . S
C612 C610 1.391 . S
C612 C613 1.400 . S
C613 C607 1.491 . S
C613 C612 1.400 . S
C613 C614 1.398 . S
C614 H602 0.950 . S
C614 C613 1.398 . S
C614 C615 1.391 . S
C615 H603 0.950 . S
C615 C611 1.393 . S
C615 C614 1.391 . S
H616 C624 0.950 . S
H617 C629 0.950 . S
H618 C626 0.950 . S
H619 C628 0.950 . S
H620 C630 0.950 . S
H621 C632 0.950 . S
H622 C634 0.950 . S
H623 C635 0.950 . S
C624 H616 0.950 . S
C624 C625 1.386 . S
C624 C626 1.391 . S
C625 C624 1.386 . S
C625 C629 1.393 . S
C626 H618 0.950 . S
C626 C624 1.391 . S
C626 C627 1.400 . S
C627 C626 1.400 . S
C627 C628 1.398 . S
C627 C633 1.491 . S
C628 H619 0.950 . S
C628 C627 1.398 . S
C628 C629 1.391 . S
C629 H617 0.950 . S
C629 C625 1.393 . S
C629 C628 1.391 . S
C630 H620 0.950 . S
C630 C631 1.386 . S
C630 C632 1.391 . S
C631 C630 1.386 . S
C631 C635 1.393 . S
C632 H621 0.950 . S
C632 C630 1.391 . S
C632 C633 1.400 . S
C633 C627 1.491 . S
C633 C632 1.400 . S
C633 C634 1.398 . S
C634 H622 0.950 . S
C634 C633 1.398 . S
C634 C635 1.391 . S
C635 H623 0.950 . S
C635 C631 1.393 . S
C635 C634 1.391 . S
H636 C644 0.950 . S
H637 C649 0.950 . S
H638 C646 0.950 . S
H639 C648 0.950 . S
H640 C650 0.950 . S
H641 C652 0.950 . S
H642 C654 0.950 . S
H643 C655 0.950 . S
C644 H636 0.950 . S
C644 C645 1.386 . S
C644 C646 1.391 . S
C645 C644 1.386 . S
C645 C649 1.393 . S
C646 H638 0.950 . S
C646 C644 1.391 . S
C646 C647 1.400 . S
C647 C646 1.400 . S
C647 C648 1.398 . S
C647 C653 1.491 . S
C648 H639 0.950 . S
C648 C647 1.398 . S
C648 C649 1.391 . S
C649 H637 0.950 . S
C649 C645 1.393 . S
C649 C648 1.391 . S
C650 H640 0.950 . S
C650 C651 1.386 . S
C650 C652 1.391 . S
C651 C650 1.386 . S
C651 C655 1.393 . S
C652 H641 0.950 . S
C652 C650 1.391 . S
C652 C653 1.400 . S
C653 C647 1.491 . S
C653 C652 1.400 . S
C653 C654 1.398 . S
C654 H642 0.950 . S
C654 C653 1.398 . S
C654 C655 1.391 . S
C655 H643 0.950 . S
C655 C651 1.393 . S
C655 C654 1.391 . S
H656 C664 0.950 . S
H657 C669 0.950 . S
H658 C666 0.950 . S
H659 C668 0.950 1_455 S
H660 C670 0.950 . S
H661 C672 0.950 . S
H662 C674 0.950 1_655 S
H663 C675 0.950 . S
C664 H656 0.950 . S
C664 C665 1.386 . S
C664 C666 1.391 . S
C665 C664 1.386 . S
C665 C669 1.393 . S
C666 H658 0.950 . S
C666 C664 1.391 . S
C666 C667 1.400 . S
C667 C666 1.400 . S
C667 C668 1.398 . S
C667 C673 1.491 1_655 S
C668 H659 0.950 1_655 S
C668 C667 1.398 . S
C668 C669 1.391 . S
C669 H657 0.950 . S
C669 C665 1.393 . S
C669 C668 1.391 . S
C670 H660 0.950 . S
C670 C671 1.386 . S
C670 C672 1.391 . S
C671 C670 1.386 . S
C671 C675 1.393 . S
C672 H661 0.950 . S
C672 C670 1.391 . S
C672 C673 1.400 . S
C673 C667 1.491 1_455 S
C673 C672 1.400 . S
C673 C674 1.398 . S
C674 H662 0.950 1_455 S
C674 C673 1.398 . S
C674 C675 1.391 . S
C675 H663 0.950 . S
C675 C671 1.393 . S
C675 C674 1.391 . S
H676 C684 0.950 . S
H677 C689 0.950 . S
H678 C686 0.950 . S
H679 C688 0.950 1_565 S
H680 C690 0.950 . S
H681 C692 0.950 . S
H682 C694 0.950 1_545 S
H683 C695 0.950 . S
C684 H676 0.950 . S
C684 C685 1.386 . S
C684 C686 1.391 . S
C685 C684 1.386 . S
C685 C689 1.393 . S
C686 H678 0.950 . S
C686 C684 1.391 . S
C686 C687 1.400 . S
C687 C686 1.400 . S
C687 C688 1.398 . S
C687 C693 1.491 1_545 S
C688 H679 0.950 1_545 S
C688 C687 1.398 . S
C688 C689 1.391 . S
C689 H677 0.950 . S
C689 C685 1.393 . S
C689 C688 1.391 . S
C690 H680 0.950 . S
C690 C691 1.386 . S
C690 C692 1.391 . S
C691 C690 1.386 . S
C691 C695 1.393 . S
C692 H681 0.950 . S
C692 C690 1.391 . S
C692 C693 1.400 . S
C693 C687 1.491 1_565 S
C693 C692 1.400 . S
C693 C694 1.398 . S
C694 H682 0.950 1_565 S
C694 C693 1.398 . S
C694 C695 1.391 . S
C695 H683 0.950 . S
C695 C691 1.393 . S
C695 C694 1.391 . S
H696 C704 0.950 . S
H697 C709 0.950 . S
H698 C706 0.950 . S
H699 C708 0.950 . S
H700 C710 0.950 . S
H701 C712 0.950 . S
H702 C714 0.950 . S
H703 C715 0.950 . S
C704 H696 0.950 . S
C704 C705 1.386 . S
C704 C706 1.391 . S
C705 C704 1.386 . S
C705 C709 1.393 . S
C706 H698 0.950 . S
C706 C704 1.391 . S
C706 C707 1.400 . S
C707 C706 1.400 . S
C707 C708 1.398 . S
C707 C713 1.491 . S
C708 H699 0.950 . S
C708 C707 1.398 . S
C708 C709 1.391 . S
C709 H697 0.950 . S
C709 C705 1.393 . S
C709 C708 1.391 . S
C710 H700 0.950 . S
C710 C711 1.386 . S
C710 C712 1.391 . S
C711 C710 1.386 . S
C711 C715 1.393 . S
C712 H701 0.950 . S
C712 C710 1.391 . S
C712 C713 1.400 . S
C713 C707 1.491 . S
C713 C712 1.400 . S
C713 C714 1.398 . S
C714 H702 0.950 . S
C714 C713 1.398 . S
C714 C715 1.391 . S
C715 H703 0.950 . S
C715 C711 1.393 . S
C715 C714 1.391 . S
H716 C724 0.950 . S
H717 C729 0.950 . S
H718 C726 0.950 . S
H719 C728 0.950 1_455 S
H720 C730 0.950 . S
H721 C732 0.950 . S
H722 C734 0.950 1_655 S
H723 C735 0.950 . S
C724 H716 0.950 . S
C724 C725 1.386 . S
C724 C726 1.391 . S
C725 C724 1.386 . S
C725 C729 1.393 . S
C726 H718 0.950 . S
C726 C724 1.391 . S
C726 C727 1.400 . S
C727 C726 1.400 . S
C727 C728 1.398 . S
C727 C733 1.491 1_655 S
C728 H719 0.950 1_655 S
C728 C727 1.398 . S
C728 C729 1.391 . S
C729 H717 0.950 . S
C729 C725 1.393 . S
C729 C728 1.391 . S
C730 H720 0.950 . S
C730 C731 1.386 . S
C730 C732 1.391 . S
C731 C730 1.386 . S
C731 C735 1.393 . S
C732 H721 0.950 . S
C732 C730 1.391 . S
C732 C733 1.400 . S
C733 C727 1.491 1_455 S
C733 C732 1.400 . S
C733 C734 1.398 . S
C734 H722 0.950 1_455 S
C734 C733 1.398 . S
C734 C735 1.391 . S
C735 H723 0.950 . S
C735 C731 1.393 . S
C735 C734 1.391 . S
H736 C744 0.950 . S
H737 C749 0.950 . S
H738 C746 0.950 . S
H739 C748 0.950 . S
H740 C750 0.950 . S
H741 C752 0.950 . S
H742 C754 0.950 . S
H743 C755 0.950 . S
C744 H736 0.950 . S
C744 C745 1.386 . S
C744 C746 1.391 . S
C745 C744 1.386 . S
C745 C749 1.393 . S
C746 H738 0.950 . S
C746 C744 1.391 . S
C746 C747 1.400 . S
C747 C746 1.400 . S
C747 C748 1.398 . S
C747 C753 1.491 1_545 S
C748 H739 0.950 . S
C748 C747 1.398 . S
C748 C749 1.391 . S
C749 H737 0.950 . S
C749 C745 1.393 . S
C749 C748 1.391 . S
C750 H740 0.950 . S
C750 C751 1.386 . S
C750 C752 1.391 . S
C751 C750 1.386 . S
C751 C755 1.393 . S
C752 H741 0.950 . S
C752 C750 1.391 . S
C752 C753 1.400 . S
C753 C747 1.491 1_565 S
C753 C752 1.400 . S
C753 C754 1.398 . S
C754 H742 0.950 . S
C754 C753 1.398 . S
C754 C755 1.391 . S
C755 H743 0.950 . S
C755 C751 1.393 . S
C755 C754 1.391 . S
H756 C764 0.950 . S
H757 C769 0.950 . S
H758 C766 0.950 . S
H759 C768 0.950 . S
H760 C770 0.950 . S
H761 C772 0.950 . S
H762 C774 0.950 . S
H763 C775 0.950 . S
C764 H756 0.950 . S
C764 C765 1.386 . S
C764 C766 1.391 . S
C765 C764 1.386 . S
C765 C769 1.393 . S
C766 H758 0.950 . S
C766 C764 1.391 . S
C766 C767 1.400 . S
C767 C766 1.400 . S
C767 C768 1.398 . S
C767 C773 1.491 1_455 S
C768 H759 0.950 . S
C768 C767 1.398 . S
C768 C769 1.391 . S
C769 H757 0.950 . S
C769 C765 1.393 . S
C769 C768 1.391 . S
C770 H760 0.950 . S
C770 C771 1.386 . S
C770 C772 1.391 . S
C771 C770 1.386 . S
C771 C775 1.393 . S
C772 H761 0.950 . S
C772 C770 1.391 . S
C772 C773 1.400 . S
C773 C767 1.491 1_655 S
C773 C772 1.400 . S
C773 C774 1.398 . S
C774 H762 0.950 . S
C774 C773 1.398 . S
C774 C775 1.391 . S
C775 H763 0.950 . S
C775 C771 1.393 . S
C775 C774 1.391 . S
H776 C784 0.950 . S
H777 C789 0.950 . S
H778 C786 0.950 . S
H779 C788 0.950 . S
H780 C790 0.950 . S
H781 C792 0.950 . S
H782 C794 0.950 . S
H783 C795 0.950 . S
C784 H776 0.950 . S
C784 C785 1.386 . S
C784 C786 1.391 . S
C785 C784 1.386 . S
C785 C789 1.393 . S
C786 H778 0.950 . S
C786 C784 1.391 . S
C786 C787 1.400 . S
C787 C786 1.400 . S
C787 C788 1.398 . S
C787 C793 1.491 1_565 S
C788 H779 0.950 . S
C788 C787 1.398 . S
C788 C789 1.391 . S
C789 H777 0.950 . S
C789 C785 1.393 . S
C789 C788 1.391 . S
C790 H780 0.950 . S
C790 C791 1.386 . S
C790 C792 1.391 . S
C791 C790 1.386 . S
C791 C795 1.393 . S
C792 H781 0.950 . S
C792 C790 1.391 . S
C792 C793 1.400 . S
C793 C787 1.491 1_545 S
C793 C792 1.400 . S
C793 C794 1.398 . S
C794 H782 0.950 . S
C794 C793 1.398 . S
C794 C795 1.391 . S
C795 H783 0.950 . S
C795 C791 1.393 . S
C795 C794 1.391 . S
H796 C804 0.950 . S
H797 C809 0.950 . S
H798 C806 0.950 . S
H799 C808 0.950 . S
H800 C810 0.950 . S
H801 C812 0.950 . S
H802 C814 0.950 . S
H803 C815 0.950 . S
C804 H796 0.950 . S
C804 C805 1.386 . S
C804 C806 1.391 . S
C805 C804 1.386 . S
C805 C809 1.393 . S
C806 H798 0.950 . S
C806 C804 1.391 . S
C806 C807 1.400 . S
C807 C806 1.400 . S
C807 C808 1.398 . S
C807 C813 1.491 . S
C808 H799 0.950 . S
C808 C807 1.398 . S
C808 C809 1.391 . S
C809 H797 0.950 . S
C809 C805 1.393 . S
C809 C808 1.391 . S
C810 H800 0.950 . S
C810 C811 1.386 . S
C810 C812 1.391 . S
C811 C810 1.386 . S
C811 C815 1.393 . S
C812 H801 0.950 . S
C812 C810 1.391 . S
C812 C813 1.400 . S
C813 C807 1.491 . S
C813 C812 1.400 . S
C813 C814 1.398 . S
C814 H802 0.950 . S
C814 C813 1.398 . S
C814 C815 1.391 . S
C815 H803 0.950 . S
C815 C811 1.393 . S
C815 C814 1.391 . S
H816 C824 0.950 . S
H817 C829 0.950 . S
H818 C826 0.950 . S
H819 C828 0.950 . S
H820 C830 0.950 . S
H821 C832 0.950 . S
H822 C834 0.950 . S
H823 C835 0.950 . S
C824 H816 0.950 . S
C824 C825 1.386 . S
C824 C826 1.391 . S
C825 C824 1.386 . S
C825 C829 1.393 . S
C826 H818 0.950 . S
C826 C824 1.391 . S
C826 C827 1.400 . S
C827 C826 1.400 . S
C827 C828 1.398 . S
C827 C833 1.491 1_655 S
C828 H819 0.950 . S
C828 C827 1.398 . S
C828 C829 1.391 . S
C829 H817 0.950 . S
C829 C825 1.393 . S
C829 C828 1.391 . S
C830 H820 0.950 . S
C830 C831 1.386 . S
C830 C832 1.391 . S
C831 C830 1.386 . S
C831 C835 1.393 . S
C832 H821 0.950 . S
C832 C830 1.391 . S
C832 C833 1.400 . S
C833 C827 1.491 1_455 S
C833 C832 1.400 . S
C833 C834 1.398 . S
C834 H822 0.950 . S
C834 C833 1.398 . S
C834 C835 1.391 . S
C835 H823 0.950 . S
C835 C831 1.393 . S
C835 C834 1.391 . S
H836 C844 0.950 . S
H837 C849 0.950 . S
H838 C846 0.950 . S
H839 C848 0.950 . S
H840 C850 0.950 . S
H841 C852 0.950 . S
H842 C854 0.950 . S
H843 C855 0.950 . S
C844 H836 0.950 . S
C844 C845 1.386 . S
C844 C846 1.391 . S
C845 C844 1.386 . S
C845 C849 1.393 . S
C846 H838 0.950 . S
C846 C844 1.391 . S
C846 C847 1.400 . S
C847 C846 1.400 . S
C847 C848 1.398 . S
C847 C853 1.491 1_565 S
C848 H839 0.950 . S
C848 C847 1.398 . S
C848 C849 1.391 . S
C849 H837 0.950 . S
C849 C845 1.393 . S
C849 C848 1.391 . S
C850 H840 0.950 . S
C850 C851 1.386 . S
C850 C852 1.391 . S
C851 C850 1.386 . S
C851 C855 1.393 . S
C852 H841 0.950 . S
C852 C850 1.391 . S
C852 C853 1.400 . S
C853 C847 1.491 1_545 S
C853 C852 1.400 . S
C853 C854 1.398 . S
C854 H842 0.950 . S
C854 C853 1.398 . S
C854 C855 1.391 . S
C855 H843 0.950 . S
C855 C851 1.393 . S
C855 C854 1.391 . S
H856 C864 0.950 . S
H857 C869 0.950 . S
H858 C866 0.950 . S
H859 C868 0.950 . S
H860 C870 0.950 . S
H861 C872 0.950 . S
H862 C874 0.950 . S
H863 C875 0.950 . S
C864 H856 0.950 . S
C864 C865 1.386 . S
C864 C866 1.391 . S
C865 C864 1.386 . S
C865 C869 1.393 . S
C866 H858 0.950 . S
C866 C864 1.391 . S
C866 C867 1.400 . S
C867 C866 1.400 . S
C867 C868 1.398 . S
C867 C873 1.491 . S
C868 H859 0.950 . S
C868 C867 1.398 . S
C868 C869 1.391 . S
C869 H857 0.950 . S
C869 C865 1.393 . S
C869 C868 1.391 . S
C870 H860 0.950 . S
C870 C871 1.386 . S
C870 C872 1.391 . S
C871 C870 1.386 . S
C871 C875 1.393 . S
C872 H861 0.950 . S
C872 C870 1.391 . S
C872 C873 1.400 . S
C873 C867 1.491 . S
C873 C872 1.400 . S
C873 C874 1.398 . S
C874 H862 0.950 . S
C874 C873 1.398 . S
C874 C875 1.391 . S
C875 H863 0.950 . S
C875 C871 1.393 . S
C875 C874 1.391 . S
H876 C884 0.950 . S
H877 C889 0.950 . S
H878 C886 0.950 . S
H879 C888 0.950 . S
H880 C890 0.950 . S
H881 C892 0.950 . S
H882 C894 0.950 . S
H883 C895 0.950 . S
C884 H876 0.950 . S
C884 C885 1.386 . S
C884 C886 1.391 . S
C885 C884 1.386 . S
C885 C889 1.393 . S
C886 H878 0.950 . S
C886 C884 1.391 . S
C886 C887 1.400 . S
C887 C886 1.400 . S
C887 C888 1.398 . S
C887 C893 1.491 . S
C888 H879 0.950 . S
C888 C887 1.398 . S
C888 C889 1.391 . S
C889 H877 0.950 . S
C889 C885 1.393 . S
C889 C888 1.391 . S
C890 H880 0.950 . S
C890 C891 1.386 . S
C890 C892 1.391 . S
C891 C890 1.386 . S
C891 C895 1.393 . S
C892 H881 0.950 . S
C892 C890 1.391 . S
C892 C893 1.400 . S
C893 C887 1.491 . S
C893 C892 1.400 . S
C893 C894 1.398 . S
C894 H882 0.950 . S
C894 C893 1.398 . S
C894 C895 1.391 . S
C895 H883 0.950 . S
C895 C891 1.393 . S
C895 C894 1.391 . S
H896 C904 0.950 . S
H897 C909 0.950 . S
H898 C906 0.950 . S
H899 C908 0.950 . S
H900 C910 0.950 . S
H901 C912 0.950 . S
H902 C914 0.950 . S
H903 C915 0.950 . S
C904 H896 0.950 . S
C904 C905 1.386 . S
C904 C906 1.391 . S
C905 C904 1.386 . S
C905 C909 1.393 . S
C906 H898 0.950 . S
C906 C904 1.391 . S
C906 C907 1.400 . S
C907 C906 1.400 . S
C907 C908 1.398 . S
C907 C913 1.491 . S
C908 H899 0.950 . S
C908 C907 1.398 . S
C908 C909 1.391 . S
C909 H897 0.950 . S
C909 C905 1.393 . S
C909 C908 1.391 . S
C910 H900 0.950 . S
C910 C911 1.386 . S
C910 C912 1.391 . S
C911 C910 1.386 . S
C911 C915 1.393 . S
C912 H901 0.950 . S
C912 C910 1.391 . S
C912 C913 1.400 . S
C913 C907 1.491 . S
C913 C912 1.400 . S
C913 C914 1.398 . S
C914 H902 0.950 . S
C914 C913 1.398 . S
C914 C915 1.391 . S
C915 H903 0.950 . S
C915 C911 1.393 . S
C915 C914 1.391 . S
H916 C924 0.950 . S
H917 C929 0.950 . S
H918 C926 0.950 . S
H919 C928 0.950 . S
H920 C930 0.950 . S
H921 C932 0.950 . S
H922 C934 0.950 . S
H923 C935 0.950 . S
C924 H916 0.950 . S
C924 C925 1.386 . S
C924 C926 1.391 . S
C925 C924 1.386 . S
C925 C929 1.393 . S
C926 H918 0.950 . S
C926 C924 1.391 . S
C926 C927 1.400 . S
C927 C926 1.400 . S
C927 C928 1.398 . S
C927 C933 1.491 . S
C928 H919 0.950 . S
C928 C927 1.398 . S
C928 C929 1.391 . S
C929 H917 0.950 . S
C929 C925 1.393 . S
C929 C928 1.391 . S
C930 H920 0.950 . S
C930 C931 1.386 . S
C930 C932 1.391 . S
C931 C930 1.386 . S
C931 C935 1.393 . S
C932 H921 0.950 . S
C932 C930 1.391 . S
C932 C933 1.400 . S
C933 C927 1.491 . S
C933 C932 1.400 . S
C933 C934 1.398 . S
C934 H922 0.950 . S
C934 C933 1.398 . S
C934 C935 1.391 . S
C935 H923 0.950 . S
C935 C931 1.393 . S
C935 C934 1.391 . S
H936 C944 0.950 . S
H937 C949 0.950 . S
H938 C946 0.950 . S
H939 C948 0.950 . S
H940 C950 0.950 . S
H941 C952 0.950 . S
H942 C954 0.950 . S
H943 C955 0.950 . S
C944 H936 0.950 . S
C944 C945 1.386 . S
C944 C946 1.391 . S
C945 C944 1.386 . S
C945 C949 1.393 . S
C946 H938 0.950 . S
C946 C944 1.391 . S
C946 C947 1.400 . S
C947 C946 1.400 . S
C947 C948 1.398 . S
C947 C953 1.491 . S
C948 H939 0.950 . S
C948 C947 1.398 . S
C948 C949 1.391 . S
C949 H937 0.950 . S
C949 C945 1.393 . S
C949 C948 1.391 . S
C950 H940 0.950 . S
C950 C951 1.386 . S
C950 C952 1.391 . S
C951 C950 1.386 . S
C951 C955 1.393 . S
C952 H941 0.950 . S
C952 C950 1.391 . S
C952 C953 1.400 . S
C953 C947 1.491 . S
C953 C952 1.400 . S
C953 C954 1.398 . S
C954 H942 0.950 . S
C954 C953 1.398 . S
C954 C955 1.391 . S
C955 H943 0.950 . S
C955 C951 1.393 . S
C955 C954 1.391 . S
H956 C964 0.950 . S
H957 C969 0.950 . S
H958 C966 0.950 . S
H959 C968 0.950 . S
H960 C970 0.950 . S
H961 C972 0.950 . S
H962 C974 0.950 . S
H963 C975 0.950 . S
C964 H956 0.950 . S
C964 C965 1.386 . S
C964 C966 1.391 . S
C965 C964 1.386 . S
C965 C969 1.393 . S
C966 H958 0.950 . S
C966 C964 1.391 . S
C966 C967 1.400 . S
C967 C966 1.400 . S
C967 C968 1.398 . S
C967 C973 1.491 . S
C968 H959 0.950 . S
C968 C967 1.398 . S
C968 C969 1.391 . S
C969 H957 0.950 . S
C969 C965 1.393 . S
C969 C968 1.391 . S
C970 H960 0.950 . S
C970 C971 1.386 . S
C970 C972 1.391 . S
C971 C970 1.386 . S
C971 C975 1.393 . S
C972 H961 0.950 . S
C972 C970 1.391 . S
C972 C973 1.400 . S
C973 C967 1.491 . S
C973 C972 1.400 . S
C973 C974 1.398 . S
C974 H962 0.950 . S
C974 C973 1.398 . S
C974 C975 1.391 . S
C975 H963 0.950 . S
C975 C971 1.393 . S
C975 C974 1.391 . S
H976 C984 0.950 . S
H977 C989 0.950 . S
H978 C986 0.950 . S
H979 C988 0.950 . S
H980 C990 0.950 . S
H981 C992 0.950 . S
H982 C994 0.950 . S
H983 C995 0.950 . S
C984 H976 0.950 . S
C984 C985 1.386 . S
C984 C986 1.391 . S
C985 C984 1.386 . S
C985 C989 1.393 . S
C986 H978 0.950 . S
C986 C984 1.391 . S
C986 C987 1.400 . S
C987 C986 1.400 . S
C987 C988 1.398 . S
C987 C993 1.491 . S
C988 H979 0.950 . S
C988 C987 1.398 . S
C988 C989 1.391 . S
C989 H977 0.950 . S
C989 C985 1.393 . S
C989 C988 1.391 . S
C990 H980 0.950 . S
C990 C991 1.386 . S
C990 C992 1.391 . S
C991 C990 1.386 . S
C991 C995 1.393 . S
C992 H981 0.950 . S
C992 C990 1.391 . S
C992 C993 1.400 . S
C993 C987 1.491 . S
C993 C992 1.400 . S
C993 C994 1.398 . S
C994 H982 0.950 . S
C994 C993 1.398 . S
C994 C995 1.391 . S
C995 H983 0.950 . S
C995 C991 1.393 . S
C995 C994 1.391 . S
C405 N299 1.591 . S
C411 N2 1.599 . S
C425 N35 1.593 . S
C431 N332 1.596 . S
C445 N68 1.598 . S
C451 N365 1.598 . S
C465 N101 1.594 . S
C471 N200 1.602 . S
C485 N134 1.592 . S
C491 N233 1.604 . S
C505 N167 1.606 . S
C511 N266 1.587 . S
C525 N343 1.643 . S
C531 N13 1.636 . S
C545 N376 1.647 . S
C551 N46 1.646 . S
C565 N79 1.632 . S
C571 N211 1.632 . S
C585 N244 1.640 . S
C591 N112 1.634 . S
C605 N145 1.634 . S
C611 N277 1.631 . S
C625 N178 1.643 . S
C631 N310 1.636 . S
C645 C106 1.478 . S
C651 C7 1.480 . S
C665 C40 1.477 . S
C671 C139 1.479 . S
C685 C172 1.484 . S
C691 C73 1.488 . S
C705 C304 1.512 . S
C711 C205 1.513 . S
C725 C238 1.486 . S
C731 C337 1.490 . S
C745 C370 1.513 . S
C751 C271 1.513 . S
C765 C18 1.654 . S
C771 C381 1.645 . S
C785 C216 1.641 . S
C791 C51 1.656 . S
C805 C84 1.654 . S
C811 C249 1.645 . S
C825 C117 1.637 . S
C831 C282 1.647 . S
C845 C150 1.645 . S
C851 C315 1.638 . S
C865 C348 1.636 . S
C871 C183 1.649 . S
C885 C21 0.285 . S
C891 C285 0.279 . S
C905 C318 0.291 . S
C911 C54 0.281 . S
C925 C87 0.340 . S
C931 C351 0.329 . S
C945 C384 0.292 . S
C951 C120 0.308 . S
C965 C219 0.284 . S
C971 C153 0.279 . S
C985 C186 0.313 . S
C991 C252 0.296 . S
