# Generated by pormake.
# Topology zfg, (5)-cn, num edge types: 1
# Building blocks:
#     Node 0, Type 0, BuildingBlock: XOMCOT_clean_sbu_0, # of connection points: 5
#     Node 1, Type 0, BuildingBlock: XOMCOT_clean_sbu_0, # of connection points: 5
#     Node 2, Type 0, BuildingBlock: XOMCOT_clean_sbu_0, # of connection points: 5
#     Node 3, Type 0, BuildingBlock: XOMCOT_clean_sbu_0, # of connection points: 5
#     Node 4, Type 0, BuildingBlock: XOMCOT_clean_sbu_0, # of connection points: 5
#     Node 5, Type 0, BuildingBlock: XOMCOT_clean_sbu_0, # of connection points: 5
#     Node 6, Type 0, BuildingBlock: XOMCOT_clean_sbu_0, # of connection points: 5
#     Node 7, Type 0, BuildingBlock: XOMCOT_clean_sbu_0, # of connection points: 5
#     Node 8, Type 0, BuildingBlock: XOMCOT_clean_sbu_0, # of connection points: 5
#     Node 9, Type 0, BuildingBlock: XOMCOT_clean_sbu_0, # of connection points: 5
#     Node 10, Type 0, BuildingBlock: XOMCOT_clean_sbu_0, # of connection points: 5
#     Node 11, Type 0, BuildingBlock: XOMCOT_clean_sbu_0, # of connection points: 5
#     Node 12, Type 0, BuildingBlock: XOMCOT_clean_sbu_0, # of connection points: 5
#     Node 13, Type 0, BuildingBlock: XOMCOT_clean_sbu_0, # of connection points: 5
#     Node 14, Type 0, BuildingBlock: XOMCOT_clean_sbu_0, # of connection points: 5
#     Node 15, Type 0, BuildingBlock: XOMCOT_clean_sbu_0, # of connection points: 5
#     Edge 16, Type (0, 0), BuildingBlock: XUDNAN_clean_linker_2, # of connection points: 2
#     Edge 17, Type (0, 0), BuildingBlock: XUDNAN_clean_linker_2, # of connection points: 2
#     Edge 18, Type (0, 0), BuildingBlock: XUDNAN_clean_linker_2, # of connection points: 2
#     Edge 19, Type (0, 0), BuildingBlock: XUDNAN_clean_linker_2, # of connection points: 2
#     Edge 20, Type (0, 0), BuildingBlock: XUDNAN_clean_linker_2, # of connection points: 2
#     Edge 21, Type (0, 0), BuildingBlock: XUDNAN_clean_linker_2, # of connection points: 2
#     Edge 22, Type (0, 0), BuildingBlock: XUDNAN_clean_linker_2, # of connection points: 2
#     Edge 23, Type (0, 0), BuildingBlock: XUDNAN_clean_linker_2, # of connection points: 2
#     Edge 24, Type (0, 0), BuildingBlock: XUDNAN_clean_linker_2, # of connection points: 2
#     Edge 25, Type (0, 0), BuildingBlock: XUDNAN_clean_linker_2, # of connection points: 2
#     Edge 26, Type (0, 0), BuildingBlock: XUDNAN_clean_linker_2, # of connection points: 2
#     Edge 27, Type (0, 0), BuildingBlock: XUDNAN_clean_linker_2, # of connection points: 2
#     Edge 28, Type (0, 0), BuildingBlock: XUDNAN_clean_linker_2, # of connection points: 2
#     Edge 29, Type (0, 0), BuildingBlock: XUDNAN_clean_linker_2, # of connection points: 2
#     Edge 30, Type (0, 0), BuildingBlock: XUDNAN_clean_linker_2, # of connection points: 2
#     Edge 31, Type (0, 0), BuildingBlock: XUDNAN_clean_linker_2, # of connection points: 2
#     Edge 32, Type (0, 0), BuildingBlock: XUDNAN_clean_linker_2, # of connection points: 2
#     Edge 33, Type (0, 0), BuildingBlock: XUDNAN_clean_linker_2, # of connection points: 2
#     Edge 34, Type (0, 0), BuildingBlock: XUDNAN_clean_linker_2, # of connection points: 2
#     Edge 35, Type (0, 0), BuildingBlock: XUDNAN_clean_linker_2, # of connection points: 2
#     Edge 36, Type (0, 0), BuildingBlock: XUDNAN_clean_linker_2, # of connection points: 2
#     Edge 37, Type (0, 0), BuildingBlock: XUDNAN_clean_linker_2, # of connection points: 2
#     Edge 38, Type (0, 0), BuildingBlock: XUDNAN_clean_linker_2, # of connection points: 2
#     Edge 39, Type (0, 0), BuildingBlock: XUDNAN_clean_linker_2, # of connection points: 2
#     Edge 40, Type (0, 0), BuildingBlock: XUDNAN_clean_linker_2, # of connection points: 2
#     Edge 41, Type (0, 0), BuildingBlock: XUDNAN_clean_linker_2, # of connection points: 2
#     Edge 42, Type (0, 0), BuildingBlock: XUDNAN_clean_linker_2, # of connection points: 2
#     Edge 43, Type (0, 0), BuildingBlock: XUDNAN_clean_linker_2, # of connection points: 2
#     Edge 44, Type (0, 0), BuildingBlock: XUDNAN_clean_linker_2, # of connection points: 2
#     Edge 45, Type (0, 0), BuildingBlock: XUDNAN_clean_linker_2, # of connection points: 2
#     Edge 46, Type (0, 0), BuildingBlock: XUDNAN_clean_linker_2, # of connection points: 2
#     Edge 47, Type (0, 0), BuildingBlock: XUDNAN_clean_linker_2, # of connection points: 2
#     Edge 48, Type (0, 0), BuildingBlock: XUDNAN_clean_linker_2, # of connection points: 2
#     Edge 49, Type (0, 0), BuildingBlock: XUDNAN_clean_linker_2, # of connection points: 2
#     Edge 50, Type (0, 0), BuildingBlock: XUDNAN_clean_linker_2, # of connection points: 2
#     Edge 51, Type (0, 0), BuildingBlock: XUDNAN_clean_linker_2, # of connection points: 2
#     Edge 52, Type (0, 0), BuildingBlock: XUDNAN_clean_linker_2, # of connection points: 2
#     Edge 53, Type (0, 0), BuildingBlock: XUDNAN_clean_linker_2, # of connection points: 2
#     Edge 54, Type (0, 0), BuildingBlock: XUDNAN_clean_linker_2, # of connection points: 2
#     Edge 55, Type (0, 0), BuildingBlock: XUDNAN_clean_linker_2, # of connection points: 2
# Relax obj value: 0.150
# Max RMSD: 0.179
# Mean RMSD: 0.179
data_MOF--net-zfg--node1-XOMCOT_clean_sbu_0--edge1-XUDNAN_clean_linker_2
_symmetry_space_group_name_H-M    P1
_symmetry_Int_Tables_number       1
_symmetry_cell_setting            triclinic
loop_
_symmetry_equiv_pos_as_xyz
'x, y, z'
_cell_length_a     41.917437
_cell_length_b     41.979923
_cell_length_c     53.397837
_cell_angle_alpha  89.918528
_cell_angle_beta   90.249415
_cell_angle_gamma 89.88382
loop_
_atom_site_label
_atom_site_type_symbol
_atom_site_fract_x
_atom_site_fract_y
_atom_site_fract_z
_atom_type_partial_charge
Co0 Co 0.07898 0.31044 0.13141 0.0
C1 C 0.10688 0.24351 0.13259 0.0
C2 C 0.13656 0.27952 0.14884 0.0
C3 C 0.15208 0.25089 0.15098 0.0
N4 N 0.1079 0.27507 0.13784 0.0
N5 N 0.13347 0.22826 0.1408 0.0
H6 H 0.08775 0.23177 0.12274 0.0
H7 H 0.14611 0.30241 0.15418 0.0
C8 C 0.08317 0.34932 0.18073 0.0
O9 O 0.05789 0.36682 0.17591 0.0
N10 N 0.05212 0.34724 0.12522 0.0
C11 C 0.0203 0.34969 0.12196 0.0
C12 C 0.01243 0.38166 0.12018 0.0
C13 C 0.06312 0.37734 0.12442 0.0
N14 N 0.03946 0.39901 0.12206 0.0
C15 C 0.031 0.26265 0.12873 0.0
C16 C 0.99583 0.2798 0.17011 0.0
C17 C 0.98398 0.25615 0.15406 0.0
C18 C 1.00239 0.24712 0.13357 0.0
C19 C 0.02542 0.29417 0.16501 0.0
N20 N 0.04242 0.2861 0.1441 0.0
H21 H 0.04315 0.25645 0.11171 0.0
H22 H 0.03346 0.31267 0.1773 0.0
H23 H 1.00382 0.32993 0.12159 0.0
H24 H 0.08807 0.38313 0.1267 0.0
O25 O 0.07468 0.29855 0.09687 0.0
O26 O 0.11249 0.33031 0.1111 0.0
O27 O 0.09177 0.327 0.16583 0.0
C28 C 0.09946 0.31577 0.09208 0.0
H29 H 0.17587 0.2472 0.15843 0.0
H30 H 0.98853 0.39128 0.11869 0.0
H31 H 0.98213 0.28747 0.18616 0.0
H32 H 0.99387 0.22928 0.12051 0.0
Co33 Co 0.71379 0.06565 0.1461 0.0
C34 C 0.76778 0.11372 0.14423 0.0
C35 C 0.76726 0.08477 0.17741 0.0
C36 C 0.79314 0.10457 0.17872 0.0
N37 N 0.75149 0.08993 0.15568 0.0
N38 N 0.79346 0.12276 0.15799 0.0
H39 H 0.76144 0.12395 0.12628 0.0
H40 H 0.76045 0.0675 0.19144 0.0
C41 C 0.67277 0.06723 0.19335 0.0
O42 O 0.65468 0.0435 0.18605 0.0
N43 N 0.67591 0.04145 0.13697 0.0
C44 C 0.67427 0.01083 0.12955 0.0
C45 C 0.64283 1.00341 0.12453 0.0
C46 C 0.64566 0.05255 0.13534 0.0
N47 N 0.62476 0.02962 0.12835 0.0
C48 C 0.76314 0.02018 0.14466 0.0
C49 C 0.74166 0.97825 0.18072 0.0
C50 C 0.76889 0.97039 0.1668 0.0
C51 C 0.77989 0.99214 0.14901 0.0
C52 C 0.72528 1.00684 0.17562 0.0
N53 N 0.73579 0.02709 0.15735 0.0
H54 H 0.77217 0.03646 0.13073 0.0
H55 H 0.70386 0.01189 0.18583 0.0
H56 H 0.69445 0.99492 0.12776 0.0
H57 H 0.63904 0.07665 0.14027 0.0
O58 O 0.72694 0.06374 0.11182 0.0
O59 O 0.69639 0.10186 0.1275 0.0
O60 O 0.69657 0.07633 0.18033 0.0
C61 C 0.71028 0.08936 0.10801 0.0
H62 H 0.81027 0.1059 0.19392 0.0
H63 H 0.63411 0.9805 0.11831 0.0
H64 H 0.73246 0.96194 0.19466 0.0
H65 H 0.80117 0.98727 0.1382 0.0
Co66 Co 0.95885 0.70549 0.12944 0.0
C67 C 0.9157 0.75952 0.14406 0.0
C68 C 0.896 0.73154 0.11421 0.0
C69 C 0.87513 0.75571 0.11947 0.0
N70 N 0.9219 0.73401 0.12926 0.0
N71 N 0.88748 0.77342 0.13809 0.0
H72 H 0.93158 0.76811 0.15856 0.0
H73 H 0.8919 0.71345 0.10024 0.0
C74 C 0.95386 0.66838 0.17857 0.0
O75 O 0.98354 0.65855 0.17725 0.0
N76 N 0.99501 0.67663 0.12893 0.0
C77 C 0.02615 0.68409 0.12688 0.0
C78 C 0.04358 0.65631 0.12548 0.0
C79 C 0.99384 0.64451 0.12753 0.0
N80 N 0.02323 0.63145 0.12603 0.0
C81 C 0.99151 0.76435 0.13069 0.0
C82 C 0.02656 0.75437 0.17392 0.0
C83 C 0.03586 0.7786 0.1574 0.0
C84 C 0.01706 0.7844 0.13619 0.0
C85 C 1.00087 0.7345 0.16753 0.0
N86 N 0.9849 0.7385 0.14534 0.0
H87 H 0.97824 0.76849 0.11361 0.0
H88 H 0.99563 0.7149 0.17967 0.0
H89 H 0.03564 0.70798 0.12603 0.0
H90 H 0.97192 0.631 0.12854 0.0
O91 O 0.96835 0.71653 0.09538 0.0
O92 O 0.93679 0.67678 0.10641 0.0
O93 O 0.94239 0.68774 0.16228 0.0
C94 C 0.95004 0.69326 0.08851 0.0
H95 H 0.85237 0.75982 0.11035 0.0
H96 H 0.06926 0.65461 0.12387 0.0
H97 H 0.04036 0.74938 0.19066 0.0
H98 H 0.02303 0.80337 0.12326 0.0
Co99 Co 0.31858 0.94049 0.12536 0.0
C100 C 0.26143 0.90114 0.14184 0.0
C101 C 0.29558 0.87377 0.12139 0.0
C102 C 0.27 0.85456 0.12678 0.0
N103 N 0.29021 0.90348 0.1303 0.0
N104 N 0.24858 0.87181 0.13961 0.0
H105 H 0.24934 0.92048 0.15116 0.0
H106 H 0.31643 0.86617 0.11121 0.0
C107 C 0.32275 0.92985 0.18036 0.0
O108 O 0.29207 0.93561 0.18162 0.0
N109 N 0.34748 0.97588 0.12031 0.0
C110 C 0.34153 1.00258 0.10709 0.0
C111 C 0.36907 0.02033 0.10602 0.0
C112 C 0.37866 0.97747 0.12677 0.0
N113 N 0.3925 1.00457 0.11835 0.0
C114 C 0.25803 0.96982 0.12311 0.0
C115 C 0.27149 0.02188 0.15278 0.0
C116 C 0.24333 0.02204 0.13823 0.0
C117 C 0.23609 0.99453 0.12452 0.0
C118 C 0.29233 0.99556 0.15182 0.0
N119 N 0.28579 0.97025 0.13655 0.0
H120 H 0.25318 0.95064 0.11019 0.0
H121 H 0.31488 0.99666 0.1617 0.0
H122 H 0.31892 1.00835 0.09835 0.0
H123 H 0.39098 0.95894 0.1371 0.0
O124 O 0.30691 0.94207 0.09074 0.0
O125 O 0.34772 0.91419 0.10567 0.0
O126 O 0.33753 0.93301 0.15968 0.0
C127 C 0.33058 0.92303 0.08638 0.0
H128 H 0.26726 0.82981 0.12153 0.0
H129 H 0.37181 0.04264 0.09609 0.0
H130 H 0.27844 0.04254 0.16359 0.0
H131 H 0.21428 0.99253 0.11373 0.0
Co132 Co 0.56466 0.20716 0.38464 0.0
C133 C 0.60528 0.26373 0.37271 0.0
C134 C 0.62032 0.24082 0.40669 0.0
C135 C 0.63976 0.26643 0.40251 0.0
N136 N 0.59832 0.23903 0.38818 0.0
N137 N 0.63034 0.28104 0.38126 0.0
H138 H 0.59212 0.26916 0.35576 0.0
H139 H 0.62277 0.2247 0.42231 0.0
C140 C 0.57068 0.17947 0.33278 0.0
O141 O 0.54015 0.17255 0.33251 0.0
N142 N 0.53123 0.1752 0.38163 0.0
C143 C 0.49941 0.18015 0.38126 0.0
C144 C 0.48423 0.15131 0.37889 0.0
C145 C 0.53485 0.14315 0.38036 0.0
N146 N 0.50648 0.12811 0.37826 0.0
C147 C 0.52005 0.25837 0.38907 0.0
C148 C 0.50257 0.26326 0.3394 0.0
C149 C 0.48362 0.27858 0.35742 0.0
C150 C 0.49374 0.27708 0.38246 0.0
C151 C 0.52861 0.24446 0.34689 0.0
N152 N 0.53572 0.24033 0.3717 0.0
H153 H 0.5264 0.25706 0.40861 0.0
H154 H 0.54235 0.23314 0.33254 0.0
H155 H 0.48769 0.20299 0.38247 0.0
H156 H 0.55775 0.13122 0.37991 0.0
O157 O 0.5541 0.21047 0.41957 0.0
O158 O 0.58977 0.17689 0.40429 0.0
O159 O 0.58275 0.19576 0.35071 0.0
C160 C 0.57431 0.18757 0.42365 0.0
H161 H 0.65974 0.27348 0.41415 0.0
H162 H 0.45871 0.14765 0.37772 0.0
H163 H 0.49687 0.26501 0.31965 0.0
H164 H 0.48043 0.28861 0.39722 0.0
Co165 Co 0.81 0.57008 0.37048 0.0
C166 C 0.74795 0.60655 0.37242 0.0
C167 C 0.77629 0.61881 0.34059 0.0
C168 C 0.74878 0.63644 0.33969 0.0
N169 N 0.77573 0.59934 0.36075 0.0
N170 N 0.73091 0.62876 0.35964 0.0
H171 H 0.74051 0.59634 0.39005 0.0
H172 H 0.79584 0.62154 0.32779 0.0
C173 C 0.85299 0.56616 0.32378 0.0
O174 O 0.87009 0.54229 0.33236 0.0
N175 N 0.84502 0.54217 0.38028 0.0
C176 C 0.84485 0.51089 0.38608 0.0
C177 C 0.87572 0.50148 0.39172 0.0
C178 C 0.87562 0.55147 0.3834 0.0
N179 N 0.89505 0.52707 0.38993 0.0
C180 C 0.75755 0.52762 0.37263 0.0
C181 C 0.77538 0.48555 0.33554 0.0
C182 C 0.74877 0.47829 0.35039 0.0
C183 C 0.73951 0.50035 0.36857 0.0
C184 C 0.79292 0.51354 0.34018 0.0
N185 N 0.78433 0.53388 0.35902 0.0
H186 H 0.75037 0.54311 0.38761 0.0
H187 H 0.81405 0.51773 0.32937 0.0
H188 H 0.82394 0.49587 0.38622 0.0
H189 H 0.8837 0.57545 0.37964 0.0
O190 O 0.79595 0.57024 0.40466 0.0
O191 O 0.83043 0.6047 0.38911 0.0
O192 O 0.82937 0.57727 0.33614 0.0
C193 C 0.81439 0.59449 0.40841 0.0
H194 H 0.74301 0.65465 0.32601 0.0
H195 H 0.88324 0.47767 0.39688 0.0
H196 H 0.78343 0.46912 0.32128 0.0
H197 H 0.71878 0.4962 0.38016 0.0
Co198 Co 0.43566 0.81059 0.37561 0.0
C199 C 0.40284 0.74611 0.37788 0.0
C200 C 0.37889 0.78081 0.35512 0.0
C201 C 0.36178 0.75302 0.35415 0.0
N202 N 0.40505 0.77654 0.36955 0.0
N203 N 0.37682 0.73119 0.36843 0.0
H204 H 0.41935 0.73488 0.39064 0.0
H205 H 0.37221 0.80304 0.34629 0.0
C206 C 0.4415 0.84198 0.32335 0.0
O207 O 0.46706 0.85865 0.32876 0.0
N208 N 0.46451 0.846 0.3812 0.0
C209 C 0.49527 0.84624 0.38868 0.0
C210 C 0.50579 0.87747 0.38915 0.0
C211 C 0.45654 0.8769 0.37813 0.0
N212 N 0.48141 0.89667 0.38219 0.0
C213 C 0.47838 0.76043 0.38778 0.0
C214 C 0.52157 0.76789 0.34944 0.0
C215 C 0.52906 0.74701 0.36926 0.0
C216 C 0.5062 0.74252 0.38788 0.0
C217 C 0.4926 0.78507 0.34971 0.0
N218 N 0.47169 0.78184 0.36918 0.0
H219 H 0.463 0.75782 0.40369 0.0
H220 H 0.48817 0.80199 0.33499 0.0
H221 H 0.50932 0.82533 0.3931 0.0
H222 H 0.43306 0.88458 0.37216 0.0
O223 O 0.43351 0.80385 0.41099 0.0
O224 O 0.40106 0.83604 0.39014 0.0
O225 O 0.42964 0.82237 0.33912 0.0
C226 C 0.40966 0.82339 0.41144 0.0
H227 H 0.33939 0.74945 0.34438 0.0
H228 H 0.5298 0.88527 0.39342 0.0
H229 H 0.53849 0.77209 0.33454 0.0
H230 H 0.51022 0.72603 0.4032 0.0
Co231 Co 0.20121 0.43589 0.38415 0.0
C232 C 0.26073 0.39696 0.37087 0.0
C233 C 0.21695 0.37075 0.3705 0.0
C234 C 0.24102 0.35082 0.36294 0.0
N235 N 0.22899 0.39985 0.37561 0.0
N236 N 0.26852 0.36728 0.36316 0.0
H237 H 0.27777 0.41609 0.37134 0.0
H238 H 0.19195 0.36461 0.37135 0.0
C239 C 0.19808 0.429 0.32942 0.0
O240 O 0.22919 0.43247 0.33015 0.0
N241 N 0.17223 0.47015 0.39256 0.0
C242 C 0.17857 0.49513 0.40751 0.0
C243 C 0.15098 0.51246 0.41063 0.0
C244 C 0.1408 0.47232 0.38702 0.0
N245 N 0.12714 0.49816 0.39777 0.0
C246 C 0.25972 0.46925 0.38888 0.0
C247 C 0.24406 0.5204 0.35867 0.0
C248 C 0.27133 0.52245 0.37406 0.0
C249 C 0.27972 0.49561 0.38827 0.0
C250 C 0.2251 0.49278 0.35914 0.0
N251 N 0.23283 0.46771 0.37444 0.0
H252 H 0.26522 0.45056 0.40212 0.0
H253 H 0.20287 0.49263 0.3488 0.0
H254 H 0.2015 0.49997 0.41604 0.0
H255 H 0.12822 0.45512 0.37561 0.0
O256 O 0.21399 0.43277 0.41856 0.0
O257 O 0.17316 0.40659 0.40224 0.0
O258 O 0.1818 0.4327 0.34942 0.0
C259 C 0.19073 0.41299 0.42181 0.0
H260 H 0.23841 0.32615 0.35744 0.0
H261 H 0.14855 0.53343 0.42223 0.0
H262 H 0.23621 0.54058 0.34759 0.0
H263 H 0.30085 0.49539 0.4 0.0
Co264 Co 0.95584 0.71128 0.86646 0.0
C265 C 0.91252 0.76849 0.86801 0.0
C266 C 0.89451 0.73242 0.8436 0.0
C267 C 0.87354 0.75775 0.84326 0.0
N268 N 0.91988 0.73959 0.85826 0.0
N269 N 0.88494 0.78041 0.85864 0.0
H270 H 0.92606 0.78022 0.88248 0.0
H271 H 0.89068 0.70987 0.83436 0.0
C272 C 0.94568 0.69666 0.81188 0.0
O273 O 0.94583 0.72731 0.80684 0.0
N274 N 0.99037 0.68248 0.87501 0.0
C275 C 0.01746 0.68991 0.88725 0.0
C276 C 0.0346 0.66236 0.89132 0.0
C277 C 0.99116 0.65051 0.87204 0.0
N278 N 0.01811 0.6375 0.88177 0.0
C279 C 0.99055 0.76965 0.86199 0.0
C280 C 0.03501 0.74896 0.82766 0.0
C281 C 0.03836 0.77943 0.83813 0.0
C282 C 0.01542 0.78977 0.85519 0.0
C283 C 1.00903 0.72976 0.83452 0.0
N284 N 0.98689 0.7403 0.8514 0.0
H285 H 0.97585 0.77702 0.87728 0.0
H286 H 1.00784 0.70573 0.82736 0.0
H287 H 0.02397 0.71364 0.89323 0.0
H288 H 0.97225 0.63714 0.86311 0.0
O289 O 0.95715 0.72792 0.89988 0.0
O290 O 0.92793 0.68662 0.88801 0.0
O291 O 0.94953 0.68681 0.83434 0.0
C292 C 0.93768 0.70521 0.90602 0.0
H293 H 0.85097 0.75884 0.83336 0.0
H294 H 0.05709 0.66079 0.90127 0.0
H295 H 0.05271 0.73979 0.81482 0.0
H296 H 0.01783 0.81252 0.86457 0.0
Co297 Co 0.31984 0.94692 0.86897 0.0
C298 C 0.25676 0.91382 0.85716 0.0
C299 C 0.29824 0.88443 0.85317 0.0
C300 C 0.27191 0.86652 0.84731 0.0
N301 N 0.28902 0.91417 0.8594 0.0
N302 N 0.24574 0.8849 0.84985 0.0
H303 H 0.24141 0.93386 0.86066 0.0
H304 H 0.32274 0.87638 0.85249 0.0
C305 C 0.32823 0.93679 0.81405 0.0
O306 O 0.29709 0.93558 0.81149 0.0
N307 N 0.35199 0.97771 0.87836 0.0
C308 C 0.35142 0.99884 0.89736 0.0
C309 C 0.3814 0.01225 0.89971 0.0
C310 C 0.38198 0.97869 0.86936 0.0
N311 N 0.40032 0.99958 0.88196 0.0
C312 C 0.26621 0.98868 0.87212 0.0
C313 C 0.28883 0.03436 0.83949 0.0
C314 C 0.26202 0.04142 0.85413 0.0
C315 C 0.2502 0.01775 0.87001 0.0
C316 C 0.30365 1.00444 0.84159 0.0
N317 N 0.29251 0.98203 0.85799 0.0
H318 H 0.25846 0.97228 0.88642 0.0
H319 H 0.32557 1.00039 0.83152 0.0
H320 H 0.33107 1.00329 0.90925 0.0
H321 H 0.39085 0.96324 0.85476 0.0
O322 O 0.3055 0.94463 0.90299 0.0
O323 O 0.34417 0.91478 0.88729 0.0
O324 O 0.34091 0.94245 0.83532 0.0
C325 C 0.327 0.9228 0.90656 0.0
H326 H 0.27218 0.84198 0.84114 0.0
H327 H 0.38885 0.02957 0.91354 0.0
H328 H 0.29896 0.05224 0.82725 0.0
H329 H 0.23007 0.0225 0.88211 0.0
Co330 Co 0.07663 0.31586 0.87154 0.0
C331 C 0.12317 0.2602 0.87349 0.0
C332 C 0.09725 0.26476 0.83889 0.0
C333 C 0.11608 0.23813 0.83746 0.0
N334 N 0.10114 0.27852 0.86151 0.0
N335 N 0.13237 0.23524 0.85909 0.0
H336 H 0.13188 0.26449 0.89227 0.0
H337 H 0.08133 0.27335 0.82438 0.0
C338 C 0.07929 0.35911 0.82512 0.0
O339 O 0.05254 0.37401 0.83021 0.0
N340 N 0.05232 0.35346 0.88081 0.0
C341 C 0.02144 0.3555 0.88749 0.0
C342 C 0.01396 0.38714 0.8915 0.0
C343 C 0.06342 0.38363 0.88168 0.0
N344 N 0.04036 0.40488 0.88767 0.0
C345 C 0.0312 0.26682 0.87137 0.0
C346 C 0.99014 0.2885 0.83456 0.0
C347 C 0.98195 0.26131 0.84841 0.0
C348 C 1.00325 0.25021 0.86658 0.0
C349 C 0.0186 0.30482 0.84017 0.0
N350 N 0.03836 0.29435 0.85893 0.0
H351 H 0.04718 0.25746 0.88547 0.0
H352 H 0.02397 0.32588 0.82973 0.0
H353 H 1.00533 0.33552 0.88909 0.0
H354 H 0.08759 0.38992 0.8767 0.0
O355 O 0.07349 0.301 0.90551 0.0
O356 O 0.11227 0.33189 0.89165 0.0
O357 O 0.08913 0.33565 0.83843 0.0
C358 C 0.09916 0.31701 0.91043 0.0
H359 H 0.11801 0.22221 0.8216 0.0
H360 H 0.9908 0.39628 0.89679 0.0
H361 H 0.97422 0.29763 0.8202 0.0
H362 H 0.99809 0.22893 0.87733 0.0
Co363 Co 0.71219 0.07657 0.88598 0.0
C364 C 0.77144 0.11508 0.87219 0.0
C365 C 0.7378 0.14112 0.89422 0.0
C366 C 0.76302 0.16068 0.8892 0.0
N367 N 0.74289 0.11204 0.88402 0.0
N368 N 0.78413 0.14442 0.87536 0.0
H369 H 0.78301 0.09651 0.86158 0.0
H370 H 0.71694 0.14844 0.90449 0.0
C371 C 0.70913 0.0935 0.83177 0.0
O372 O 0.73948 0.08622 0.83015 0.0
N373 N 0.68029 0.04345 0.88799 0.0
C374 C 0.67995 0.01758 0.903 0.0
C375 C 0.6499 1.00411 0.90195 0.0
C376 C 0.65075 0.04527 0.878 0.0
N377 N 0.63179 0.02158 0.88613 0.0
C378 C 0.77044 0.04255 0.88525 0.0
C379 C 0.75084 0.99388 0.85404 0.0
C380 C 0.77854 0.98952 0.86865 0.0
C381 C 0.78913 0.01527 0.88314 0.0
C382 C 0.73316 0.02235 0.85607 0.0
N383 N 0.7425 0.04582 0.87229 0.0
H384 H 0.77741 0.06023 0.8989 0.0
H385 H 0.71057 0.02431 0.84632 0.0
H386 H 0.69963 1.00993 0.91474 0.0
H387 H 0.64255 0.0647 0.86628 0.0
O388 O 0.72365 0.06957 0.92026 0.0
O389 O 0.68507 0.10214 0.90801 0.0
O390 O 0.69427 0.08973 0.85235 0.0
C391 C 0.70161 0.08972 0.92639 0.0
H392 H 0.7654 0.18532 0.89488 0.0
H393 H 0.64175 0.98358 0.9124 0.0
H394 H 0.74161 0.97472 0.84257 0.0
H395 H 0.81077 0.01366 0.89422 0.0
Co396 Co 0.44681 0.82116 0.62343 0.0
C397 C 0.4105 0.75953 0.62825 0.0
C398 C 0.3873 0.79895 0.64596 0.0
C399 C 0.36816 0.77256 0.64843 0.0
N400 N 0.41427 0.79075 0.6338 0.0
N401 N 0.38272 0.74784 0.63718 0.0
H402 H 0.42697 0.7456 0.61741 0.0
H403 H 0.38156 0.82281 0.65211 0.0
C404 C 0.44183 0.82851 0.67883 0.0
O405 O 0.44159 0.79733 0.68088 0.0
N406 N 0.4778 0.85238 0.61308 0.0
C407 C 0.5023 0.84806 0.59725 0.0
C408 C 0.51787 0.87669 0.59435 0.0
C409 C 0.47847 0.88349 0.6194 0.0
N410 N 0.50288 0.89898 0.60829 0.0
C411 C 0.48788 0.76754 0.6166 0.0
C412 C 0.53401 0.78423 0.65124 0.0
C413 C 0.54042 0.75945 0.63439 0.0
C414 C 0.51655 0.75071 0.61742 0.0
C415 C 0.50483 0.8008 0.64968 0.0
N416 N 0.48203 0.79243 0.63244 0.0
H417 H 0.4716 0.76197 0.60161 0.0
H418 H 0.50185 0.8218 0.66106 0.0
H419 H 0.50826 0.82575 0.58829 0.0
H420 H 0.46154 0.89443 0.63199 0.0
O421 O 0.44136 0.80788 0.58929 0.0
O422 O 0.41357 0.8465 0.6072 0.0
O423 O 0.44551 0.84175 0.65751 0.0
C424 C 0.4194 0.82954 0.58731 0.0
H425 H 0.34469 0.77195 0.65679 0.0
H426 H 0.53832 0.88081 0.5825 0.0
H427 H 0.55219 0.79219 0.66425 0.0
H428 H 0.52068 0.73197 0.60387 0.0
Co429 Co 0.20416 0.45101 0.63335 0.0
C430 C 0.26255 0.40857 0.63715 0.0
C431 C 0.22871 0.39929 0.66601 0.0
C432 C 0.25421 0.37907 0.66934 0.0
N433 N 0.23444 0.41918 0.64658 0.0
N434 N 0.2755 0.38495 0.6512 0.0
H435 H 0.27282 0.41652 0.61976 0.0
H436 H 0.20682 0.39832 0.67656 0.0
C437 C 0.19904 0.45895 0.68825 0.0
O438 O 0.22974 0.46519 0.68763 0.0
N439 N 0.1731 0.48093 0.62009 0.0
C440 C 0.17833 0.50235 0.60174 0.0
C441 C 0.14943 0.5144 0.59381 0.0
C442 C 0.14109 0.48025 0.62311 0.0
N443 N 0.12612 0.50059 0.6073 0.0
C444 C 0.26211 0.4866 0.62817 0.0
C445 C 0.24096 0.54222 0.65014 0.0
C446 C 0.27059 0.54226 0.63791 0.0
C447 C 0.28142 0.5135 0.62772 0.0
C448 C 0.22255 0.51427 0.6507 0.0
N449 N 0.23316 0.48675 0.6397 0.0
H450 H 0.26968 0.46654 0.61739 0.0
H451 H 0.19894 0.51525 0.65874 0.0
H452 H 0.2014 0.50739 0.59366 0.0
H453 H 0.12892 0.4635 0.63517 0.0
O454 O 0.21788 0.44196 0.59995 0.0
O455 O 0.17877 0.41646 0.61932 0.0
O456 O 0.18393 0.45432 0.66769 0.0
C457 C 0.19574 0.42044 0.59911 0.0
H458 H 0.25622 0.36036 0.68324 0.0
H459 H 0.14564 0.53084 0.57843 0.0
H460 H 0.23123 0.56392 0.65797 0.0
H461 H 0.30417 0.512 0.61826 0.0
Co462 Co 0.57327 0.21165 0.64242 0.0
C463 C 0.61347 0.27322 0.63781 0.0
C464 C 0.63739 0.23138 0.65127 0.0
C465 C 0.65935 0.25522 0.64948 0.0
N466 N 0.60842 0.24215 0.64402 0.0
N467 N 0.64447 0.28148 0.64101 0.0
H468 H 0.59593 0.28937 0.63026 0.0
H469 H 0.64249 0.20708 0.65672 0.0
C470 C 0.57704 0.18048 0.69492 0.0
O471 O 0.55004 0.16489 0.69292 0.0
N472 N 0.54083 0.17878 0.641 0.0
C473 C 0.51092 0.18016 0.6316 0.0
C474 C 0.50036 0.14936 0.62726 0.0
C475 C 0.54806 0.14749 0.64177 0.0
N476 N 0.52406 0.12896 0.63343 0.0
C477 C 0.53555 0.26687 0.6366 0.0
C478 C 0.49087 0.25385 0.67296 0.0
C479 C 0.48365 0.27664 0.65443 0.0
C480 C 0.50748 0.28441 0.63727 0.0
C481 C 0.52025 0.23735 0.67217 0.0
N482 N 0.54163 0.24301 0.65336 0.0
H483 H 0.55058 0.27034 0.62059 0.0
H484 H 0.52414 0.21809 0.68514 0.0
H485 H 0.49866 0.20186 0.62632 0.0
H486 H 0.57141 0.13861 0.64703 0.0
O487 O 0.56731 0.21842 0.60734 0.0
O488 O 0.60131 0.18333 0.62311 0.0
O489 O 0.58631 0.1994 0.67765 0.0
C490 C 0.58786 0.196 0.60339 0.0
H491 H 0.68463 0.25324 0.65346 0.0
H492 H 0.47811 0.14271 0.61835 0.0
H493 H 0.47315 0.24708 0.68665 0.0
H494 H 0.5034 0.30219 0.62287 0.0
Co495 Co 0.81628 0.57719 0.6272 0.0
C496 C 0.7616 0.62377 0.62814 0.0
C497 C 0.7785 0.61157 0.66484 0.0
C498 C 0.75292 0.63185 0.66722 0.0
N499 N 0.78421 0.60651 0.64034 0.0
N500 N 0.74203 0.63949 0.64416 0.0
H501 H 0.75872 0.62385 0.60802 0.0
H502 H 0.79143 0.60064 0.68017 0.0
C503 C 0.8648 0.56976 0.67053 0.0
O504 O 0.87717 0.54352 0.66146 0.0
N505 N 0.84837 0.54836 0.61386 0.0
C506 C 0.84307 0.52043 0.60212 0.0
C507 C 0.87176 0.50858 0.59364 0.0
C508 C 0.88004 0.55374 0.61142 0.0
N509 N 0.89494 0.52937 0.59982 0.0
C510 C 0.76056 0.53928 0.6321 0.0
C511 C 0.78849 0.48749 0.65532 0.0
C512 C 0.75787 0.4842 0.64504 0.0
C513 C 0.74326 0.51098 0.63443 0.0
C514 C 0.80473 0.51643 0.65303 0.0
N515 N 0.79143 0.54145 0.64034 0.0
H516 H 0.74985 0.55871 0.62179 0.0
H517 H 0.8288 0.5173 0.65954 0.0
H518 H 0.8199 0.50955 0.59966 0.0
H519 H 0.89198 0.57488 0.61824 0.0
O520 O 0.79702 0.57819 0.59449 0.0
O521 O 0.83503 0.61113 0.60714 0.0
O522 O 0.84148 0.5839 0.65952 0.0
C523 C 0.81636 0.60131 0.58911 0.0
H524 H 0.74309 0.64007 0.68476 0.0
H525 H 0.87541 0.48621 0.584 0.0
H526 H 0.80057 0.46723 0.66368 0.0
H527 H 0.71973 0.50932 0.62606 0.0
H528 H 0.08478 0.27695 0.94837 0.0
H529 H 0.1388 0.36221 0.93169 0.0
H530 H 0.15057 0.36885 0.97707 0.0
H531 H 0.04711 0.30546 1.00055 0.0
H532 H 0.04778 0.26833 0.01754 0.0
H533 H 0.04812 0.26814 0.9839 0.0
H534 H 0.10008 0.23451 0.98426 0.0
H535 H 0.09981 0.23441 0.01801 0.0
H536 H 0.13439 0.24854 1.00144 0.0
H537 H 0.15035 0.36884 0.0258 0.0
H538 H 0.13848 0.36188 0.07112 0.0
H539 H 0.08464 0.27664 0.05371 0.0
C540 C 0.09973 0.29666 0.95413 0.0
C541 C 0.111 0.31901 0.93654 0.0
C542 C 0.13026 0.34459 0.94488 0.0
C543 C 0.13696 0.34856 0.97061 0.0
C544 C 0.12453 0.32648 0.98761 0.0
C545 C 0.10662 0.30082 0.97949 0.0
C546 C 0.09379 0.28162 1.00113 0.0
C547 C 0.05704 0.28088 1.00075 0.0
C548 C 0.10787 0.24777 1.00121 0.0
C549 C 0.10632 0.30091 0.02286 0.0
C550 C 0.12435 0.32653 0.01496 0.0
C551 C 0.13665 0.34856 0.03211 0.0
C552 C 0.12988 0.34443 0.0578 0.0
C553 C 0.11069 0.31872 0.06591 0.0
C554 C 0.09945 0.29653 0.04814 0.0
H555 H 0.74229 0.07566 0.96404 0.0
H556 H 0.65236 0.12335 0.94903 0.0
H557 H 0.64674 0.13453 0.99462 0.0
H558 H 0.71933 0.03685 0.01837 0.0
H559 H 0.75768 0.04072 0.03344 0.0
H560 H 0.75508 0.0397 0.99986 0.0
H561 H 0.78503 0.09364 0.99743 0.0
H562 H 0.78754 0.09494 0.03111 0.0
H563 H 0.7697 0.12763 0.01415 0.0
H564 H 0.65006 0.13586 0.04345 0.0
H565 H 0.66093 0.12573 0.0886 0.0
H566 H 0.74908 0.07807 0.06893 0.0
C567 C 0.72144 0.08875 0.97015 0.0
C568 C 0.69767 0.09854 0.95302 0.0
C569 C 0.67088 0.11567 0.9619 0.0
C570 C 0.66758 0.12215 0.98771 0.0
C571 C 0.69151 0.11168 0.00416 0.0
C572 C 0.71797 0.09546 0.99549 0.0
C573 C 0.7397 0.08496 0.01652 0.0
C574 C 0.74312 0.04841 0.01708 0.0
C575 C 0.77243 0.10128 0.01469 0.0
C576 C 0.72114 0.09703 0.03867 0.0
C577 C 0.69353 0.1127 0.03144 0.0
C578 C 0.67185 0.12403 0.04919 0.0
C579 C 0.67827 0.11837 0.07479 0.0
C580 C 0.70593 0.10131 0.08219 0.0
C581 C 0.72785 0.09139 0.06385 0.0
H582 H 0.9556 0.74154 0.9455 0.0
H583 H 0.905 0.65467 0.9269 0.0
H584 H 0.90024 0.64215 0.97221 0.0
H585 H 1.00206 0.70924 0.99324 0.0
H586 H 1.00135 0.74445 0.01251 0.0
H587 H 0.99728 0.74798 0.97908 0.0
H588 H 0.94382 0.77841 0.98442 0.0
H589 H 0.94793 0.77537 0.01793 0.0
H590 H 0.91238 0.76082 1.00272 0.0
H591 H 0.90457 0.63825 0.0206 0.0
H592 H 0.91683 0.64397 0.066 0.0
H593 H 0.96633 0.73238 0.05039 0.0
C594 C 0.94294 0.72014 0.95085 0.0
C595 C 0.93049 0.69917 0.93269 0.0
C596 C 0.91444 0.67124 0.94056 0.0
C597 C 0.91174 0.66391 0.96623 0.0
C598 C 0.9252 0.6848 0.98365 0.0
C599 C 0.94029 0.71245 0.97614 0.0
C600 C 0.95447 0.73026 0.99802 0.0
C601 C 0.99094 0.73312 0.99555 0.0
C602 C 0.9387 0.76315 1.00094 0.0
C603 C 0.94546 0.7082 0.01913 0.0
C604 C 0.92835 0.68219 0.01075 0.0
C605 C 0.91787 0.65863 0.02729 0.0
C606 C 0.92499 0.66198 0.05299 0.0
C607 C 0.94269 0.68848 0.06168 0.0
C608 C 0.95294 0.71169 0.0444 0.0
H609 H 0.28456 0.92113 0.94425 0.0
H610 H 0.38267 0.89828 0.92645 0.0
H611 H 0.39366 0.88808 0.97151 0.0
H612 H 0.30007 0.9651 0.9957 0.0
H613 H 0.26577 0.95259 0.01338 0.0
H614 H 0.26454 0.95169 0.97979 0.0
H615 H 0.25009 0.89165 0.98073 0.0
H616 H 0.25094 0.89241 0.01447 0.0
H617 H 0.27524 0.86416 0.99773 0.0
H618 H 0.39509 0.88902 0.01992 0.0
H619 H 0.38631 0.90004 0.06518 0.0
H620 H 0.28725 0.92209 0.04917 0.0
C621 C 0.30813 0.91299 0.94972 0.0
C622 C 0.33273 0.9103 0.932 0.0
C623 C 0.36338 0.9 0.93981 0.0
C624 C 0.36981 0.89427 0.96535 0.0
C625 C 0.34516 0.89846 0.98259 0.0
C626 C 0.31478 0.90712 0.97489 0.0
C627 C 0.29304 0.91327 0.99678 0.0
C628 C 0.28013 0.94769 0.99638 0.0
C629 C 0.26572 0.88891 0.99746 0.0
C630 C 0.31612 0.90808 0.01813 0.0
C631 C 0.34601 0.89908 0.00986 0.0
C632 C 0.37159 0.89547 0.02656 0.0
C633 C 0.36646 0.90174 0.05219 0.0
C634 C 0.33615 0.91194 0.06056 0.0
C635 C 0.31072 0.91431 0.04332 0.0
H636 H 0.53458 0.19207 0.46297 0.0
H637 H 0.62937 0.1605 0.44256 0.0
H638 H 0.64237 0.15197 0.48753 0.0
H639 H 0.55608 0.23712 0.51263 0.0
H640 H 0.52199 0.2278 0.53172 0.0
H641 H 0.51886 0.22561 0.49824 0.0
H642 H 0.5003 0.16682 0.50134 0.0
H643 H 0.50311 0.1689 0.53499 0.0
H644 H 0.52441 0.13834 0.51824 0.0
H645 H 0.64661 0.15481 0.536 0.0
H646 H 0.64094 0.16807 0.58128 0.0
H647 H 0.54322 0.19727 0.56754 0.0
C648 C 0.55781 0.18254 0.4679 0.0
C649 C 0.58097 0.1769 0.44946 0.0
C650 C 0.61119 0.16463 0.45654 0.0
C651 C 0.61875 0.15978 0.482 0.0
C652 C 0.59557 0.16677 0.49992 0.0
C653 C 0.56551 0.17741 0.49298 0.0
C654 C 0.54551 0.186 0.51536 0.0
C655 C 0.53503 0.22121 0.51442 0.0
C656 C 0.51663 0.16367 0.51761 0.0
C657 C 0.56936 0.18004 0.53604 0.0
C658 C 0.598 0.16845 0.52712 0.0
C659 C 0.62407 0.1634 0.54316 0.0
C660 C 0.62073 0.17096 0.56878 0.0
C661 C 0.59177 0.18391 0.57771 0.0
C662 C 0.56576 0.18761 0.56117 0.0
H663 H 0.77264 0.58745 0.4464 0.0
H664 H 0.86383 0.62997 0.42841 0.0
H665 H 0.87161 0.6437 0.4733 0.0
H666 H 0.75013 0.64295 0.49769 0.0
H667 H 0.73218 0.61112 0.51537 0.0
H668 H 0.73205 0.60979 0.48162 0.0
H669 H 0.75947 0.55438 0.48309 0.0
H670 H 0.75981 0.55559 0.51671 0.0
H671 H 0.79658 0.54981 0.49993 0.0
H672 H 0.87198 0.64565 0.52165 0.0
H673 H 0.86502 0.63546 0.56712 0.0
H674 H 0.77344 0.59174 0.55181 0.0
C675 C 0.79393 0.60039 0.45175 0.0
C676 C 0.81759 0.6078 0.43395 0.0
C677 C 0.84522 0.62446 0.44173 0.0
C678 C 0.84982 0.63226 0.46719 0.0
C679 C 0.82634 0.62361 0.48444 0.0
C680 C 0.79876 0.60833 0.47684 0.0
C681 C 0.7783 0.59887 0.49885 0.0
C682 C 0.74627 0.61676 0.49835 0.0
C683 C 0.77328 0.56252 0.49968 0.0
C684 C 0.79911 0.61006 0.52024 0.0
C685 C 0.82654 0.62472 0.51175 0.0
C686 C 0.85028 0.63474 0.52842 0.0
C687 C 0.84612 0.62897 0.55423 0.0
C688 C 0.8186 0.61299 0.56299 0.0
C689 C 0.7946 0.60427 0.54573 0.0
H690 H 0.40698 0.785 0.55252 0.0
H691 H 0.39792 0.886 0.56701 0.0
H692 H 0.38241 0.89491 0.5226 0.0
H693 H 0.44502 0.79087 0.49827 0.0
H694 H 0.42647 0.75735 0.48304 0.0
H695 H 0.42894 0.75854 0.51653 0.0
H696 H 0.36758 0.75193 0.51951 0.0
H697 H 0.36491 0.75065 0.48582 0.0
H698 H 0.34172 0.77931 0.50308 0.0
H699 H 0.37948 0.89336 0.47469 0.0
H700 H 0.3895 0.88137 0.42982 0.0
H701 H 0.399 0.78135 0.44802 0.0
C702 C 0.40056 0.80884 0.54653 0.0
C703 C 0.40342 0.8348 0.56303 0.0
C704 C 0.39533 0.86576 0.55462 0.0
C705 C 0.38655 0.87097 0.52944 0.0
C706 C 0.38529 0.84485 0.51324 0.0
C707 C 0.39155 0.81427 0.52171 0.0
C708 C 0.39267 0.79062 0.50047 0.0
C709 C 0.4252 0.77339 0.49953 0.0
C710 C 0.36506 0.76672 0.50234 0.0
C711 C 0.38814 0.8128 0.47846 0.0
C712 C 0.38319 0.84394 0.48599 0.0
C713 C 0.38236 0.86894 0.46861 0.0
C714 C 0.38789 0.86199 0.44316 0.0
C715 C 0.39456 0.83042 0.43564 0.0
C716 C 0.39335 0.8056 0.45336 0.0
H717 H 0.23799 0.40747 0.56274 0.0
H718 H 0.13773 0.40014 0.58084 0.0
H719 H 0.12566 0.38691 0.53651 0.0
H720 H 0.2286 0.44877 0.50999 0.0
H721 H 0.26081 0.43079 0.49275 0.0
H722 H 0.26214 0.43138 0.52631 0.0
H723 H 0.26836 0.36994 0.52736 0.0
H724 H 0.2674 0.36914 0.49361 0.0
H725 H 0.23968 0.34533 0.51126 0.0
H726 H 0.1241 0.38536 0.48841 0.0
H727 H 0.13345 0.39532 0.44312 0.0
H728 H 0.23471 0.4039 0.4579 0.0
C729 C 0.21365 0.40175 0.55756 0.0
C730 C 0.18883 0.40442 0.57513 0.0
C731 C 0.15716 0.3975 0.5677 0.0
C732 C 0.15013 0.39011 0.54253 0.0
C733 C 0.17514 0.38925 0.52528 0.0
C734 C 0.20638 0.39438 0.53272 0.0
C735 C 0.2286 0.39642 0.5106 0.0
C736 C 0.24602 0.42875 0.50988 0.0
C737 C 0.25241 0.36853 0.51072 0.0
C738 C 0.20491 0.39337 0.48937 0.0
C739 C 0.17422 0.38858 0.49798 0.0
C740 C 0.14815 0.3883 0.48151 0.0
C741 C 0.15362 0.39388 0.45582 0.0
C742 C 0.1848 0.40016 0.44712 0.0
C743 C 0.21065 0.39885 0.46405 0.0
H744 H 0.23134 0.07075 0.17248 0.0
H745 H 0.20998 0.0409 0.09626 0.0
H746 H 0.17517 0.08714 0.09079 0.0
H747 H 0.15432 0.1059 0.18713 0.0
H748 H 0.17122 0.13939 0.20354 0.0
H749 H 0.19222 0.1019 0.20292 0.0
H750 H 0.24202 0.12988 0.18463 0.0
H751 H 0.22126 0.16745 0.18539 0.0
H752 H 0.23806 0.15329 0.15644 0.0
H753 H 0.14299 0.13711 0.09267 0.0
H754 H 0.1214 0.19112 0.10045 0.0
H755 H 0.16669 0.19154 0.17357 0.0
C756 C 0.21936 0.07378 0.15465 0.0
C757 C 0.22281 0.05109 0.13522 0.0
C758 C 0.20681 0.05667 0.11205 0.0
C759 C 0.18705 0.0832 0.10857 0.0
C760 C 0.18381 0.10465 0.12816 0.0
C761 C 0.19992 0.10063 0.15059 0.0
C762 C 0.19425 0.12879 0.16778 0.0
C763 C 0.17697 0.11836 0.19176 0.0
C764 C 0.22577 0.14586 0.17391 0.0
C765 C 0.17279 0.14923 0.15133 0.0
C766 C 0.16659 0.13456 0.12873 0.0
C767 C 0.14762 0.14887 0.11033 0.0
C768 C 0.13527 0.1794 0.11493 0.0
C769 C 0.1424 0.19541 0.13755 0.0
C770 C 0.16099 0.17982 0.15608 0.0
H771 H 0.85709 0.11487 0.15774 0.0
H772 H 0.78243 0.18516 0.14843 0.0
H773 H 0.8232 0.22816 0.14791 0.0
H774 H 0.90671 0.15826 0.19808 0.0
H775 H 0.94373 0.14515 0.18444 0.0
H776 H 0.90896 0.12013 0.18269 0.0
H777 H 0.91342 0.11791 0.13433 0.0
H778 H 0.94866 0.14231 0.13597 0.0
H779 H 0.91537 0.15452 0.11673 0.0
H780 H 0.87276 0.26352 0.15258 0.0
H781 H 0.92679 0.2875 0.15474 0.0
H782 H 0.96865 0.19321 0.15863 0.0
C783 C 0.84953 0.13931 0.15503 0.0
C784 C 0.81682 0.14692 0.15293 0.0
C785 C 0.80749 0.17903 0.14965 0.0
C786 C 0.83045 0.2035 0.14961 0.0
C787 C 0.86258 0.19524 0.15249 0.0
C788 C 0.87211 0.16379 0.1545 0.0
C789 C 0.908 0.16098 0.15706 0.0
C790 C 0.91739 0.1452 0.18206 0.0
C791 C 0.9222 0.14287 0.13469 0.0
C792 C 0.91731 0.19578 0.15662 0.0
C793 C 0.89082 0.21527 0.15429 0.0
C794 C 0.89362 0.24841 0.15417 0.0
C795 C 0.92431 0.26185 0.15568 0.0
C796 C 0.95173 0.24217 0.15699 0.0
C797 C 0.94803 0.20876 0.15774 0.0
H798 H 0.78248 0.92944 0.12924 0.0
H799 H 0.79257 0.94136 0.20944 0.0
H800 H 0.82524 0.89182 0.21147 0.0
H801 H 0.7763 0.84339 0.12943 0.0
H802 H 0.79818 0.83947 0.10061 0.0
H803 H 0.7749 0.87477 0.10637 0.0
H804 H 0.82507 0.90954 0.09899 0.0
H805 H 0.8486 0.87434 0.09351 0.0
H806 H 0.86056 0.90229 0.11734 0.0
H807 H 0.86024 0.84176 0.20327 0.0
H808 H 0.88873 0.79436 0.18645 0.0
H809 H 0.8541 0.81725 0.11203 0.0
C810 C 0.79136 0.92149 0.14728 0.0
C811 C 0.78521 0.93916 0.16918 0.0
C812 C 0.79694 0.92794 0.19249 0.0
C813 C 0.81565 0.90001 0.19374 0.0
C814 C 0.822 0.88358 0.17156 0.0
C815 C 0.80972 0.89382 0.14885 0.0
C816 C 0.81972 0.87241 0.12759 0.0
C817 C 0.79054 0.85657 0.11529 0.0
C818 C 0.83967 0.89075 0.10823 0.0
C819 C 0.83982 0.84847 0.14171 0.0
C820 C 0.84116 0.85517 0.16703 0.0
C821 C 0.85907 0.83626 0.18349 0.0
C822 C 0.87535 0.80957 0.17381 0.0
C823 C 0.87332 0.80202 0.14802 0.0
C824 C 0.85563 0.82209 0.13191 0.0
H825 H 0.20786 0.8351 0.11307 0.0
H826 H 0.21844 0.88581 0.18314 0.0
H827 H 0.16484 0.86711 0.19633 0.0
H828 H 0.12464 0.85317 0.10439 0.0
H829 H 0.11563 0.81515 0.09045 0.0
H830 H 0.15491 0.83192 0.08727 0.0
H831 H 0.17965 0.78066 0.10637 0.0
H832 H 0.14045 0.76374 0.10963 0.0
H833 H 0.16631 0.76691 0.13656 0.0
H834 H 0.1102 0.84011 0.20213 0.0
H835 H 0.05831 0.81185 0.19833 0.0
H836 H 0.08346 0.78222 0.12327 0.0
C837 C 0.19894 0.84205 0.13126 0.0
C838 C 0.2173 0.86157 0.14725 0.0
C839 C 0.20463 0.87085 0.17068 0.0
C840 C 0.17433 0.86023 0.17831 0.0
C841 C 0.15686 0.84079 0.16208 0.0
C842 C 0.16865 0.83219 0.1389 0.0
C843 C 0.14495 0.81217 0.12444 0.0
C844 C 0.13441 0.82912 0.10021 0.0
C845 C 0.15866 0.7789 0.11894 0.0
C846 C 0.118 0.81051 0.14314 0.0
C847 C 0.12529 0.82683 0.16488 0.0
C848 C 0.10419 0.82756 0.18507 0.0
C849 C 0.07486 0.81143 0.18282 0.0
C850 C 0.06681 0.79533 0.16041 0.0
C851 C 0.0888 0.79487 0.14046 0.0
H852 H 0.73017 0.44032 0.38901 0.0
H853 H 0.72856 0.44604 0.30796 0.0
H854 H 0.69676 0.39613 0.30635 0.0
H855 H 0.73739 0.35546 0.39377 0.0
H856 H 0.71238 0.35317 0.42109 0.0
H857 H 0.73532 0.38858 0.41517 0.0
H858 H 0.68366 0.42257 0.41708 0.0
H859 H 0.66053 0.38725 0.42285 0.0
H860 H 0.65056 0.41286 0.39684 0.0
H861 H 0.66276 0.34528 0.31474 0.0
H862 H 0.6344 0.29814 0.33192 0.0
H863 H 0.65871 0.3286 0.40711 0.0
C864 C 0.72305 0.43124 0.37085 0.0
C865 C 0.73157 0.44729 0.3486 0.0
C866 C 0.72237 0.4341 0.32525 0.0
C867 C 0.70414 0.40589 0.32419 0.0
C868 C 0.69554 0.3911 0.34665 0.0
C869 C 0.70504 0.40336 0.3695 0.0
C870 C 0.69318 0.38336 0.39106 0.0
C871 C 0.72124 0.36931 0.40615 0.0
C872 C 0.67064 0.40267 0.40795 0.0
C873 C 0.67536 0.35779 0.37694 0.0
C874 C 0.67673 0.36247 0.35134 0.0
C875 C 0.6617 0.34148 0.33476 0.0
C876 C 0.64545 0.31489 0.34466 0.0
C877 C 0.64455 0.30946 0.37085 0.0
C878 C 0.65938 0.33163 0.387 0.0
H879 H 0.56726 0.71982 0.33254 0.0
H880 H 0.5634 0.73884 0.41242 0.0
H881 H 0.61283 0.70835 0.41872 0.0
H882 H 0.59856 0.6407 0.33636 0.0
H883 H 0.62503 0.64487 0.31005 0.0
H884 H 0.58888 0.66808 0.3114 0.0
H885 H 0.62148 0.7201 0.30668 0.0
H886 H 0.65769 0.69702 0.30501 0.0
H887 H 0.65383 0.728 0.32814 0.0
H888 H 0.66152 0.67377 0.41706 0.0
H889 H 0.71012 0.6431 0.40633 0.0
H890 H 0.68454 0.64869 0.32769 0.0
C891 C 0.57698 0.71786 0.3513 0.0
C892 C 0.5608 0.73113 0.37202 0.0
C893 C 0.5746 0.72806 0.39627 0.0
C894 C 0.60285 0.71089 0.4001 0.0
C895 C 0.6176 0.69726 0.37947 0.0
C896 C 0.60555 0.701 0.35548 0.0
C897 C 0.62683 0.68461 0.33654 0.0
C898 C 0.60873 0.65798 0.32278 0.0
C899 C 0.64079 0.70888 0.318 0.0
C900 C 0.65246 0.67105 0.35369 0.0
C901 C 0.6465 0.67834 0.37842 0.0
C902 C 0.66658 0.66804 0.39773 0.0
C903 C 0.69395 0.65042 0.39153 0.0
C904 C 0.70112 0.64365 0.36623 0.0
C905 C 0.67979 0.65381 0.34718 0.0
H906 H 0.28388 0.56993 0.33896 0.0
H907 H 0.299 0.54505 0.41719 0.0
H908 H 0.33027 0.59369 0.42318 0.0
H909 H 0.36038 0.60681 0.32801 0.0
H910 H 0.34432 0.63854 0.30896 0.0
H911 H 0.32446 0.60055 0.31 0.0
H912 H 0.27205 0.6283 0.32356 0.0
H913 H 0.29171 0.66637 0.32243 0.0
H914 H 0.2722 0.65372 0.35075 0.0
H915 H 0.36031 0.64501 0.4212 0.0
H916 H 0.38269 0.69819 0.41189 0.0
H917 H 0.34564 0.69209 0.33611 0.0
C918 C 0.29367 0.57467 0.35737 0.0
C919 C 0.28954 0.55283 0.37734 0.0
C920 C 0.30271 0.56041 0.40118 0.0
C921 C 0.32038 0.58827 0.40493 0.0
C922 C 0.3244 0.60889 0.38482 0.0
C923 C 0.31111 0.60274 0.36159 0.0
C924 C 0.31781 0.62981 0.34353 0.0
C925 C 0.33794 0.61823 0.32131 0.0
C926 C 0.28658 0.64547 0.33455 0.0
C927 C 0.33677 0.65203 0.36032 0.0
C928 C 0.34063 0.6393 0.38398 0.0
C929 C 0.35743 0.65528 0.40273 0.0
C930 C 0.37025 0.68536 0.39726 0.0
C931 C 0.36585 0.69928 0.37334 0.0
C932 C 0.3491 0.68215 0.35464 0.0
H933 H 0.32646 0.38176 0.38343 0.0
H934 H 0.28016 0.32539 0.32592 0.0
H935 H 0.33182 0.30083 0.31516 0.0
H936 H 0.40336 0.39356 0.34967 0.0
H937 H 0.42668 0.38989 0.37798 0.0
H938 H 0.38679 0.40593 0.37921 0.0
H939 H 0.37153 0.36334 0.41218 0.0
H940 H 0.41126 0.34713 0.41098 0.0
H941 H 0.37742 0.32177 0.40507 0.0
H942 H 0.38686 0.27849 0.31342 0.0
H943 H 0.4413 0.25902 0.32123 0.0
H944 H 0.45352 0.33079 0.37907 0.0
C945 C 0.32745 0.36484 0.36818 0.0
C946 C 0.29931 0.35546 0.35549 0.0
C947 C 0.30136 0.33269 0.33601 0.0
C948 C 0.33064 0.31879 0.32964 0.0
C949 C 0.35782 0.32795 0.34286 0.0
C950 C 0.35659 0.35053 0.36167 0.0
C951 C 0.38897 0.35422 0.37418 0.0
C952 C 0.40223 0.38791 0.37 0.0
C953 C 0.38717 0.34612 0.40226 0.0
C954 C 0.40824 0.32953 0.35998 0.0
C955 C 0.38988 0.31499 0.34178 0.0
C956 C 0.4017 0.29011 0.32729 0.0
C957 C 0.43291 0.27936 0.33177 0.0
C958 C 0.4522 0.29338 0.35066 0.0
C959 C 0.43964 0.31931 0.36454 0.0
H960 H 0.85109 0.81927 0.8273 0.0
H961 H 0.88507 0.80967 0.90377 0.0
H962 H 0.86029 0.86129 0.91439 0.0
H963 H 0.86485 0.90363 0.8224 0.0
H964 H 0.82981 0.91147 0.80367 0.0
H965 H 0.84908 0.87313 0.80213 0.0
H966 H 0.79586 0.84559 0.81356 0.0
H967 H 0.77643 0.88387 0.81516 0.0
H968 H 0.77522 0.85725 0.84165 0.0
H969 H 0.83146 0.91288 0.91707 0.0
H970 H 0.80307 0.96348 0.91154 0.0
H971 H 0.78943 0.9426 0.83252 0.0
C972 C 0.853 0.82797 0.84632 0.0
C973 C 0.86998 0.81041 0.86477 0.0
C974 C 0.87246 0.8228 0.88933 0.0
C975 C 0.85829 0.85201 0.89556 0.0
C976 C 0.84188 0.86876 0.87696 0.0
C977 C 0.8393 0.8574 0.85279 0.0
C978 C 0.82126 0.88092 0.83623 0.0
C979 C 0.84252 0.893 0.81484 0.0
C980 C 0.79036 0.86601 0.82605 0.0
C981 C 0.81414 0.90726 0.85491 0.0
C982 C 0.8261 0.89945 0.8783 0.0
C983 C 0.82237 0.91946 0.89878 0.0
C984 C 0.8064 0.94843 0.89531 0.0
C985 C 0.7946 0.95776 0.8714 0.0
C986 C 0.79822 0.93647 0.851 0.0
H987 H 0.22172 0.82469 0.85237 0.0
H988 H 0.19524 0.92288 0.83728 0.0
H989 H 0.13968 0.9059 0.82944 0.0
H990 H 0.17082 0.78866 0.80496 0.0
H991 H 0.16126 0.75477 0.82427 0.0
H992 H 0.19909 0.77456 0.828 0.0
H993 H 0.18756 0.78319 0.87515 0.0
H994 H 0.14986 0.76324 0.87161 0.0
H995 H 0.15123 0.80295 0.88434 0.0
H996 H 0.08643 0.87821 0.82482 0.0
H997 H 0.03956 0.84249 0.82552 0.0
H998 H 0.10131 0.76225 0.8423 0.0
C999 C 0.20446 0.84266 0.84706 0.0
C1000 C 0.21309 0.87521 0.84537 0.0
C1001 C 0.18933 0.8979 0.83895 0.0
C1002 C 0.15772 0.88842 0.83424 0.0
C1003 C 0.15019 0.85612 0.83592 0.0
C1004 C 0.1729 0.83361 0.84223 0.0
C1005 C 0.15849 0.80056 0.84372 0.0
C1006 C 0.1733 0.77833 0.82406 0.0
C1007 C 0.16199 0.78668 0.87028 0.0
C1008 C 0.12396 0.80797 0.83751 0.0
C1009 C 0.11969 0.84015 0.83295 0.0
C1010 C 0.08958 0.85296 0.8281 0.0
C1011 C 0.06313 0.83251 0.8285 0.0
C1012 C 0.06688 0.79958 0.83362 0.0
C1013 C 0.09783 0.78715 0.83769 0.0
H1014 H 0.19934 0.05902 0.84827 0.0
H1015 H 0.2935 0.09723 0.86305 0.0
H1016 H 0.27 0.15085 0.86931 0.0
H1017 H 0.17076 0.12714 0.81308 0.0
H1018 H 0.13067 0.12393 0.82487 0.0
H1019 H 0.15521 0.08886 0.82223 0.0
H1020 H 0.14605 0.07685 0.86928 0.0
H1021 H 0.12193 0.11222 0.87214 0.0
H1022 H 0.15607 0.1066 0.89231 0.0
H1023 H 0.2352 0.20032 0.87569 0.0
H1024 H 0.19341 0.24247 0.87486 0.0
H1025 H 0.12306 0.1722 0.85354 0.0
C1026 C 0.21498 0.07876 0.85267 0.0
C1027 C 0.24823 0.07406 0.85515 0.0
C1028 C 0.268 0.10044 0.86081 0.0
C1029 C 0.25482 0.13088 0.86465 0.0
C1030 C 0.22183 0.13463 0.86248 0.0
C1031 C 0.20228 0.10937 0.85612 0.0
C1032 C 0.16783 0.11992 0.85371 0.0
C1033 C 0.1554 0.11466 0.82688 0.0
C1034 C 0.14673 0.10288 0.87301 0.0
C1035 C 0.17098 0.15505 0.85967 0.0
C1036 C 0.20219 0.16306 0.86516 0.0
C1037 C 0.21071 0.19427 0.87135 0.0
C1038 C 0.18689 0.21799 0.8711 0.0
C1039 C 0.15518 0.21041 0.8643 0.0
C1040 C 0.14717 0.17845 0.85895 0.0
H1041 H 0.82511 0.18092 0.90128 0.0
H1042 H 0.80991 0.1367 0.82907 0.0
H1043 H 0.85832 0.16388 0.81272 0.0
H1044 H 0.85143 0.2561 0.87959 0.0
H1045 H 0.88084 0.26104 0.904 0.0
H1046 H 0.84573 0.23753 0.9097 0.0
H1047 H 0.88092 0.18918 0.92234 0.0
H1048 H 0.91613 0.2127 0.91709 0.0
H1049 H 0.9112 0.17523 0.90111 0.0
H1050 H 0.90791 0.19911 0.80434 0.0
H1051 H 0.95658 0.23293 0.80632 0.0
H1052 H 0.93806 0.25204 0.88459 0.0
C1053 C 0.83211 0.17686 0.88205 0.0
C1054 C 0.81389 0.15691 0.86635 0.0
C1055 C 0.82384 0.15176 0.84138 0.0
C1056 C 0.85107 0.1673 0.83195 0.0
C1057 C 0.86811 0.18755 0.84788 0.0
C1058 C 0.85917 0.19181 0.87255 0.0
C1059 C 0.88151 0.21406 0.88622 0.0
C1060 C 0.86381 0.24395 0.89541 0.0
C1061 C 0.89845 0.19675 0.90797 0.0
C1062 C 0.90444 0.22201 0.86542 0.0
C1063 C 0.89637 0.20683 0.84332 0.0
C1064 C 0.91442 0.21096 0.8216 0.0
C1065 C 0.94181 0.23036 0.82279 0.0
C1066 C 0.95086 0.24501 0.84558 0.0
C1067 C 0.93158 0.24109 0.86693 0.0
H1068 H 0.34451 0.71465 0.66898 0.0
H1069 H 0.39091 0.71006 0.59663 0.0
H1070 H 0.36692 0.65726 0.58919 0.0
H1071 H 0.35414 0.6309 0.68434 0.0
H1072 H 0.31598 0.62782 0.69959 0.0
H1073 H 0.33689 0.66527 0.69935 0.0
H1074 H 0.2875 0.69263 0.67939 0.0
H1075 H 0.26649 0.65523 0.67945 0.0
H1076 H 0.2711 0.67711 0.65063 0.0
H1077 H 0.3361 0.60668 0.58857 0.0
H1078 H 0.30361 0.55906 0.5958 0.0
H1079 H 0.27871 0.5941 0.66975 0.0
C1080 C 0.34955 0.70248 0.65158 0.0
C1081 C 0.36964 0.71645 0.63337 0.0
C1082 C 0.37598 0.69968 0.61095 0.0
C1083 C 0.36226 0.66978 0.60649 0.0
C1084 C 0.34244 0.6568 0.62473 0.0
C1085 C 0.3363 0.67239 0.64694 0.0
C1086 C 0.3145 0.65276 0.66355 0.0
C1087 C 0.33139 0.64365 0.68816 0.0
C1088 C 0.28303 0.67049 0.66854 0.0
C1089 C 0.30915 0.6238 0.64707 0.0
C1090 C 0.3254 0.62685 0.62474 0.0
C1091 C 0.32371 0.60376 0.60616 0.0
C1092 C 0.30532 0.57657 0.6106 0.0
C1093 C 0.28907 0.57219 0.63364 0.0
C1094 C 0.29083 0.59649 0.65199 0.0
H1095 H 0.31737 0.36389 0.68658 0.0
H1096 H 0.30035 0.36778 0.6065 0.0
H1097 H 0.35042 0.33798 0.59931 0.0
H1098 H 0.40218 0.37599 0.68316 0.0
H1099 H 0.41151 0.34964 0.70886 0.0
H1100 H 0.37363 0.36993 0.70786 0.0
H1101 H 0.34446 0.31579 0.71129 0.0
H1102 H 0.38227 0.2953 0.71217 0.0
H1103 H 0.35289 0.28488 0.68885 0.0
H1104 H 0.40108 0.30723 0.60073 0.0
H1105 H 0.4526 0.28183 0.60982 0.0
H1106 H 0.4398 0.29989 0.68921 0.0
C1107 C 0.32416 0.3582 0.66757 0.0
C1108 C 0.30495 0.36799 0.64704 0.0
C1109 C 0.31481 0.36069 0.62241 0.0
C1110 C 0.34306 0.34359 0.6182 0.0
C1111 C 0.3614 0.33423 0.63881 0.0
C1112 C 0.35262 0.34155 0.66301 0.0
C1113 C 0.37759 0.32996 0.6817 0.0
C1114 C 0.39209 0.35806 0.69625 0.0
C1115 C 0.36345 0.305 0.69956 0.0
C1116 C 0.40184 0.31502 0.66418 0.0
C1117 C 0.39164 0.31751 0.63958 0.0
C1118 C 0.40949 0.3055 0.61988 0.0
C1119 C 0.43891 0.29127 0.62529 0.0
C1120 C 0.45079 0.28951 0.65021 0.0
C1121 C 0.43154 0.30098 0.66999 0.0
H1122 H 0.62987 0.34209 0.6556 0.0
H1123 H 0.69662 0.2857 0.61259 0.0
H1124 H 0.73147 0.33249 0.60765 0.0
H1125 H 0.64245 0.41864 0.61999 0.0
H1126 H 0.63931 0.4426 0.64786 0.0
H1127 H 0.61751 0.40574 0.64548 0.0
H1128 H 0.64367 0.38637 0.68679 0.0
H1129 H 0.66596 0.42288 0.68909 0.0
H1130 H 0.68656 0.38515 0.68933 0.0
H1131 H 0.76236 0.3819 0.61212 0.0
H1132 H 0.78533 0.43468 0.62122 0.0
H1133 H 0.69872 0.4618 0.65997 0.0
C1134 C 0.65126 0.34013 0.64443 0.0
C1135 C 0.6606 0.31045 0.63429 0.0
C1136 C 0.68917 0.30832 0.62037 0.0
C1137 C 0.70909 0.33471 0.61752 0.0
C1138 C 0.70004 0.36329 0.62858 0.0
C1139 C 0.67158 0.36652 0.64136 0.0
C1140 C 0.66869 0.3998 0.6524 0.0
C1141 C 0.6403 0.41776 0.64073 0.0
C1142 C 0.66607 0.39845 0.68111 0.0
C1143 C 0.70027 0.41426 0.64433 0.0
C1144 C 0.71791 0.39258 0.63069 0.0
C1145 C 0.74863 0.39931 0.62243 0.0
C1146 C 0.76159 0.42919 0.6279 0.0
C1147 C 0.74384 0.45216 0.64133 0.0
C1148 C 0.71269 0.44465 0.64957 0.0
H1149 H 0.57679 0.72917 0.67073 0.0
H1150 H 0.57666 0.7569 0.59249 0.0
H1151 H 0.62886 0.7306 0.58675 0.0
H1152 H 0.6627 0.73769 0.68157 0.0
H1153 H 0.66523 0.70308 0.70151 0.0
H1154 H 0.62873 0.72576 0.69992 0.0
H1155 H 0.59771 0.67471 0.68779 0.0
H1156 H 0.63411 0.65193 0.68928 0.0
H1157 H 0.61036 0.65182 0.66105 0.0
H1158 H 0.68044 0.70012 0.58906 0.0
H1159 H 0.7275 0.66725 0.59922 0.0
H1160 H 0.69331 0.657 0.67553 0.0
C1161 C 0.58805 0.73001 0.65253 0.0
C1162 C 0.57276 0.74511 0.63205 0.0
C1163 C 0.58795 0.74534 0.60839 0.0
C1164 C 0.61762 0.73055 0.60496 0.0
C1165 C 0.63188 0.71539 0.62535 0.0
C1166 C 0.61765 0.71495 0.64868 0.0
C1167 C 0.63755 0.69575 0.66713 0.0
C1168 C 0.64925 0.71683 0.68882 0.0
C1169 C 0.61881 0.66684 0.67688 0.0
C1170 C 0.66502 0.68548 0.65051 0.0
C1171 C 0.66136 0.69722 0.62652 0.0
C1172 C 0.68355 0.69075 0.60781 0.0
C1173 C 0.7102 0.67179 0.61375 0.0
C1174 C 0.71453 0.65922 0.6382 0.0
C1175 C 0.69137 0.66635 0.65672 0.0
H1176 H 0.13955 0.44029 0.30631 0.0
H1177 H 0.22486 0.38172 0.30283 0.0
H1178 H 0.20309 0.35354 0.26621 0.0
H1179 H 0.08275 0.37965 0.286 0.0
H1180 H 0.05953 0.40655 0.26688 0.0
H1181 H 0.08057 0.42131 0.29398 0.0
H1182 H 0.1096 0.4627 0.26628 0.0
H1183 H 0.08858 0.44815 0.23913 0.0
H1184 H 0.13156 0.44936 0.23928 0.0
H1185 H 0.17283 0.33108 0.23083 0.0
H1186 H 0.13778 0.31876 0.19532 0.0
H1187 H 0.0728 0.39393 0.21823 0.0
C1188 C 0.15342 0.42142 0.29782 0.0
C1189 C 0.1839 0.41315 0.30734 0.0
C1190 C 0.20161 0.3886 0.29567 0.0
C1191 C 0.18936 0.37228 0.27497 0.0
C1192 C 0.15947 0.38102 0.26586 0.0
C1193 C 0.14179 0.40523 0.27658 0.0
C1194 C 0.11114 0.41083 0.26185 0.0
C1195 C 0.08176 0.40418 0.27815 0.0
C1196 C 0.11018 0.44477 0.25099 0.0
C1197 C 0.11456 0.38605 0.24126 0.0
C1198 C 0.14245 0.36889 0.24431 0.0
C1199 C 0.15103 0.34451 0.22807 0.0
C1200 C 0.1309 0.33774 0.20782 0.0
C1201 C 0.10264 0.35558 0.20357 0.0
C1202 C 0.09427 0.37989 0.22079 0.0
H1203 H 0.61628 0.06602 0.21897 0.0
H1204 H 0.70977 0.11039 0.21859 0.0
H1205 H 0.69398 0.14415 0.2543 0.0
H1206 H 0.57251 0.13629 0.23186 0.0
H1207 H 0.54379 0.11697 0.25176 0.0
H1208 H 0.56304 0.09484 0.22722 0.0
H1209 H 0.58279 0.05303 0.25956 0.0
H1210 H 0.5633 0.07485 0.28417 0.0
H1211 H 0.60529 0.06597 0.28652 0.0
H1212 H 0.66742 0.17396 0.28962 0.0
H1213 H 0.63227 0.19689 0.32207 0.0
H1214 H 0.55592 0.13403 0.29808 0.0
C1215 C 0.63363 0.08247 0.22662 0.0
C1216 C 0.66432 0.08543 0.21607 0.0
C1217 C 0.68613 0.10766 0.2264 0.0
C1218 C 0.67738 0.12696 0.24667 0.0
C1219 C 0.64673 0.12385 0.25632 0.0
C1220 C 0.62523 0.1021 0.24668 0.0
C1221 C 0.59344 0.10412 0.25991 0.0
C1222 C 0.56662 0.11363 0.24159 0.0
C1223 C 0.58576 0.07262 0.27334 0.0
C1224 C 0.60036 0.13049 0.27842 0.0
C1225 C 0.63126 0.14148 0.27617 0.0
C1226 C 0.64316 0.16555 0.29154 0.0
C1227 C 0.62303 0.17847 0.30987 0.0
C1228 C 0.5913 0.16743 0.3125 0.0
C1229 C 0.57992 0.14328 0.29638 0.0
H1230 H 0.91169 0.56756 0.30123 0.0
H1231 H 0.81361 0.59854 0.29157 0.0
H1232 H 0.82883 0.62869 0.25381 0.0
H1233 H 0.94869 0.63938 0.28229 0.0
H1234 H 0.98092 0.62038 0.26574 0.0
H1235 H 0.96226 0.60033 0.29165 0.0
H1236 H 0.94986 0.55179 0.26334 0.0
H1237 H 0.96878 0.57156 0.23739 0.0
H1238 H 0.92827 0.55771 0.23442 0.0
H1239 H 0.85516 0.65751 0.2182 0.0
H1240 H 0.89006 0.67995 0.18553 0.0
H1241 H 0.97079 0.62894 0.21758 0.0
C1242 C 0.89335 0.58035 0.29098 0.0
C1243 C 0.86156 0.58127 0.29967 0.0
C1244 C 0.83828 0.59834 0.28575 0.0
C1245 C 0.84665 0.61531 0.26414 0.0
C1246 C 0.87836 0.61472 0.2565 0.0
C1247 C 0.90129 0.59737 0.26929 0.0
C1248 C 0.93371 0.60086 0.25715 0.0
C1249 C 0.95781 0.61615 0.27529 0.0
C1250 C 0.94586 0.56856 0.2475 0.0
C1251 C 0.92546 0.62314 0.23572 0.0
C1252 C 0.89342 0.63087 0.23569 0.0
C1253 C 0.88027 0.65146 0.21792 0.0
C1254 C 0.90033 0.66419 0.19949 0.0
C1255 C 0.93319 0.65623 0.19891 0.0
C1256 C 0.94579 0.63552 0.21742 0.0
H1257 H 0.45011 0.89022 0.28853 0.0
H1258 H 0.39281 0.80645 0.30419 0.0
H1259 H 0.35761 0.81967 0.26883 0.0
H1260 H 0.38786 0.94153 0.27169 0.0
H1261 H 0.40814 0.9609 0.24618 0.0
H1262 H 0.43079 0.9441 0.27172 0.0
H1263 H 0.46317 0.90968 0.24062 0.0
H1264 H 0.44088 0.92668 0.21492 0.0
H1265 H 0.4424 0.88406 0.21896 0.0
H1266 H 0.32465 0.84502 0.236 0.0
H1267 H 0.2997 0.87728 0.20255 0.0
H1268 H 0.37995 0.94229 0.20431 0.0
C1269 C 0.43059 0.87428 0.28417 0.0
C1270 C 0.42396 0.84755 0.29952 0.0
C1271 C 0.39808 0.8274 0.29316 0.0
C1272 C 0.37796 0.83462 0.27298 0.0
C1273 C 0.38435 0.86171 0.25888 0.0
C1274 C 0.41041 0.88087 0.2637 0.0
C1275 C 0.41135 0.90882 0.24558 0.0
C1276 C 0.40942 0.94072 0.25964 0.0
C1277 C 0.44122 0.9072 0.22904 0.0
C1278 C 0.38124 0.90274 0.23039 0.0
C1279 C 0.36601 0.87551 0.23863 0.0
C1280 C 0.33661 0.86602 0.22901 0.0
C1281 C 0.32252 0.8846 0.2102 0.0
C1282 C 0.33803 0.91203 0.20093 0.0
C1283 C 0.36788 0.92116 0.21099 0.0
H1284 H 0.91101 0.70639 0.76874 0.0
H1285 H 0.96229 0.6339 0.81077 0.0
H1286 H 0.94718 0.59373 0.77914 0.0
H1287 H 0.84526 0.65649 0.75159 0.0
H1288 H 0.84016 0.67371 0.72089 0.0
H1289 H 0.85641 0.69734 0.746 0.0
H1290 H 0.90643 0.70958 0.71935 0.0
H1291 H 0.89022 0.68619 0.69408 0.0
H1292 H 0.92926 0.67711 0.70647 0.0
H1293 H 0.92689 0.56158 0.74302 0.0
H1294 H 0.90139 0.53898 0.70534 0.0
H1295 H 0.8605 0.63149 0.68774 0.0
C1296 C 0.9194 0.68215 0.77107 0.0
C1297 C 0.93809 0.67327 0.79206 0.0
C1298 C 0.94804 0.64119 0.79478 0.0
C1299 C 0.93959 0.61823 0.77692 0.0
C1300 C 0.92084 0.62764 0.75659 0.0
C1301 C 0.91072 0.65878 0.75361 0.0
C1302 C 0.88971 0.66226 0.73054 0.0
C1303 C 0.85588 0.67309 0.73769 0.0
C1304 C 0.90482 0.68514 0.71148 0.0
C1305 C 0.88975 0.62826 0.72099 0.0
C1306 C 0.90805 0.60877 0.73623 0.0
C1307 C 0.91239 0.57657 0.731 0.0
C1308 C 0.89781 0.56396 0.70953 0.0
C1309 C 0.8788 0.5834 0.69366 0.0
C1310 C 0.87458 0.61594 0.69965 0.0
H1311 H 0.39085 0.81842 0.70884 0.0
H1312 H 0.46845 0.88408 0.6952 0.0
H1313 H 0.44819 0.91939 0.72887 0.0
H1314 H 0.3321 0.87886 0.71698 0.0
H1315 H 0.31015 0.85734 0.7405 0.0
H1316 H 0.33256 0.83591 0.71724 0.0
H1317 H 0.3637 0.80612 0.7522 0.0
H1318 H 0.34116 0.82722 0.77556 0.0
H1319 H 0.38413 0.82869 0.77605 0.0
H1320 H 0.41985 0.94633 0.76527 0.0
H1321 H 0.38319 0.9652 0.79852 0.0
H1322 H 0.32073 0.88516 0.78404 0.0
C1323 C 0.40391 0.83991 0.71338 0.0
C1324 C 0.43164 0.84829 0.70007 0.0
C1325 C 0.44747 0.87715 0.70564 0.0
C1326 C 0.4361 0.89728 0.72464 0.0
C1327 C 0.40841 0.88851 0.73731 0.0
C1328 C 0.39231 0.86069 0.73167 0.0
C1329 C 0.36185 0.85782 0.74662 0.0
C1330 C 0.33243 0.85747 0.7293 0.0
C1331 C 0.36279 0.82821 0.76362 0.0
C1332 C 0.3634 0.88821 0.76177 0.0
C1333 C 0.39068 0.90538 0.75646 0.0
C1334 C 0.39817 0.93335 0.76927 0.0
C1335 C 0.37728 0.94393 0.78803 0.0
C1336 C 0.34892 0.92701 0.79324 0.0
C1337 C 0.34184 0.89898 0.77982 0.0
H1338 H 0.0652 0.38749 0.77968 0.0
H1339 H 0.14341 0.36295 0.82967 0.0
H1340 H 0.18117 0.38991 0.80151 0.0
H1341 H 0.1099 0.37287 0.72277 0.0
H1342 H 0.09122 0.4048 0.70547 0.0
H1343 H 0.06981 0.38515 0.73023 0.0
H1344 H 0.06054 0.43965 0.75173 0.0
H1345 H 0.0823 0.4594 0.72718 0.0
H1346 H 0.09432 0.46437 0.75939 0.0
H1347 H 0.21004 0.4209 0.76958 0.0
H1348 H 0.23085 0.44623 0.73162 0.0
H1349 H 0.13553 0.44711 0.69925 0.0
C1350 C 0.0903 0.38783 0.78457 0.0
C1351 C 0.10146 0.37325 0.80685 0.0
C1352 C 0.13445 0.37379 0.8126 0.0
C1353 C 0.15602 0.38929 0.79686 0.0
C1354 C 0.14434 0.40368 0.77518 0.0
C1355 C 0.11244 0.40252 0.76863 0.0
C1356 C 0.10685 0.41803 0.74324 0.0
C1357 C 0.09367 0.39376 0.72431 0.0
C1358 C 0.08469 0.44709 0.74553 0.0
C1359 C 0.14061 0.42804 0.73667 0.0
C1360 C 0.16159 0.42009 0.75571 0.0
C1361 C 0.19394 0.42708 0.75443 0.0
C1362 C 0.20547 0.44169 0.73276 0.0
C1363 C 0.18488 0.44863 0.71232 0.0
C1364 C 0.15186 0.44214 0.71453 0.0
H1365 H 0.56873 0.13987 0.73552 0.0
H1366 H 0.63613 0.20606 0.7024 0.0
H1367 H 0.67621 0.1909 0.73376 0.0
H1368 H 0.59396 0.15534 0.80095 0.0
H1369 H 0.58842 0.11451 0.81046 0.0
H1370 H 0.56412 0.13118 0.78576 0.0
H1371 H 0.58177 0.08557 0.75627 0.0
H1372 H 0.60635 0.069 0.7808 0.0
H1373 H 0.6237 0.07887 0.75096 0.0
H1374 H 0.71097 0.16513 0.76534 0.0
H1375 H 0.73648 0.13533 0.79987 0.0
H1376 H 0.64647 0.08888 0.81601 0.0
C1377 C 0.59175 0.15149 0.73508 0.0
C1378 C 0.59926 0.17387 0.7161 0.0
C1379 C 0.62972 0.18856 0.71636 0.0
C1380 C 0.65277 0.18014 0.73419 0.0
C1381 C 0.64497 0.15743 0.75209 0.0
C1382 C 0.61505 0.14377 0.75314 0.0
C1383 C 0.61315 0.12013 0.77469 0.0
C1384 C 0.58845 0.13095 0.79412 0.0
C1385 C 0.60581 0.0864 0.76509 0.0
C1386 C 0.64687 0.12228 0.78512 0.0
C1387 C 0.66481 0.14375 0.77154 0.0
C1388 C 0.69709 0.14863 0.77641 0.0
C1389 C 0.71142 0.13143 0.79592 0.0
C1390 C 0.69341 0.11 0.81062 0.0
C1391 C 0.66066 0.10544 0.8052 0.0
H1392 H 0.98726 0.5816 0.10923 0.0
H1393 H 0.0775 0.60536 0.14466 0.0
H1394 H 0.09131 0.54838 0.14692 0.0
H1395 H 0.97193 0.5109 0.14537 0.0
H1396 H 0.9549 0.48902 0.11957 0.0
H1397 H 0.95206 0.53183 0.12024 0.0
H1398 H 0.9789 0.53495 0.0767 0.0
H1399 H 0.98176 0.49214 0.07586 0.0
H1400 H 0.01707 0.51606 0.07202 0.0
H1401 H 0.09469 0.48939 0.14693 0.0
H1402 H 0.08875 0.43161 0.14333 0.0
H1403 H 0.99693 0.44479 0.10653 0.0
C1404 C 1.00987 0.57479 0.11751 0.0
C1405 C 0.03137 0.59805 0.12668 0.0
C1406 C 0.06087 0.58812 0.13716 0.0
C1407 C 0.06884 0.55577 0.13869 0.0
C1408 C 0.04714 0.53353 0.12955 0.0
C1409 C 0.01833 0.54251 0.11906 0.0
C1410 C 0.99945 0.51359 0.11059 0.0
C1411 C 0.96771 0.5112 0.12479 0.0
C1412 C 0.99399 0.51423 0.0821 0.0
C1413 C 0.02215 0.487 0.11811 0.0
C1414 C 0.04942 0.49917 0.12907 0.0
C1415 C 0.07364 0.47955 0.13807 0.0
C1416 C 0.07008 0.44657 0.13569 0.0
C1417 C 0.04258 0.43323 0.12417 0.0
C1418 C 0.01826 0.45397 0.11538 0.0
H1419 H 0.445 0.9665 0.12552 0.0
H1420 H 0.41537 0.06503 0.11662 0.0
H1421 H 0.47154 0.08197 0.11822 0.0
H1422 H 0.51028 0.98249 0.1692 0.0
H1423 H 0.53568 0.95206 0.15622 0.0
H1424 H 0.49296 0.94768 0.15488 0.0
H1425 H 0.49594 0.94079 0.10674 0.0
H1426 H 0.53863 0.9454 0.10791 0.0
H1427 H 0.51496 0.97109 0.08811 0.0
H1428 H 0.53115 0.08835 0.11955 0.0
H1429 H 0.58972 0.08371 0.12159 0.0
H1430 H 0.58102 0.98132 0.13098 0.0
C1431 C 0.45022 0.99167 0.12423 0.0
C1432 C 0.4255 0.01436 0.12075 0.0
C1433 C 0.43369 0.04706 0.11885 0.0
C1434 C 0.46561 0.05698 0.11989 0.0
C1435 C 0.48932 0.03401 0.12295 0.0
C1436 C 0.48206 1.00205 0.12526 0.0
C1437 C 0.5122 0.98224 0.12816 0.0
C1438 C 0.51281 0.96511 0.15363 0.0
C1439 C 0.51562 0.95848 0.10643 0.0
C1440 C 0.53748 1.00805 0.1269 0.0
C1441 C 0.52374 0.03774 0.12394 0.0
C1442 C 0.54218 0.06522 0.12205 0.0
C1443 C 0.57553 0.06235 0.12334 0.0
C1444 C 0.59033 0.03219 0.12653 0.0
C1445 C 0.57077 1.00474 0.12827 0.0
H1446 H 0.53739 0.07768 0.39984 0.0
H1447 H 0.46196 0.103 0.34766 0.0
H1448 H 0.4491 0.04617 0.34192 0.0
H1449 H 0.5625 1.00398 0.36826 0.0
H1450 H 0.56952 0.98276 0.39714 0.0
H1451 H 0.57443 0.02538 0.396 0.0
H1452 H 0.5345 0.03165 0.43255 0.0
H1453 H 0.5294 0.98909 0.43376 0.0
H1454 H 0.49516 0.01468 0.42974 0.0
H1455 H 0.44317 0.98748 0.34254 0.0
H1456 H 0.44351 0.9298 0.35 0.0
H1457 H 0.52138 0.94095 0.4032 0.0
C1458 C 0.51852 0.07108 0.38696 0.0
C1459 C 0.5006 0.09469 0.37417 0.0
C1460 C 0.47573 0.0853 0.35778 0.0
C1461 C 0.46838 0.05309 0.3543 0.0
C1462 C 0.48605 0.03042 0.36745 0.0
C1463 C 0.51058 0.03885 0.38348 0.0
C1464 C 0.52467 1.00956 0.39617 0.0
C1465 C 0.55987 1.00516 0.38896 0.0
C1466 C 0.52068 0.01136 0.42475 0.0
C1467 C 0.50397 0.98351 0.38492 0.0
C1468 C 0.48207 0.9962 0.36826 0.0
C1469 C 0.46011 0.97724 0.35563 0.0
C1470 C 0.46031 0.94441 0.36023 0.0
C1471 C 0.48213 0.93062 0.37752 0.0
C1472 C 0.50446 0.9506 0.38983 0.0
H1473 H 0.93795 0.47826 0.38413 0.0
H1474 H 0.93053 0.57868 0.40263 0.0
H1475 H 0.98903 0.58202 0.40557 0.0
H1476 H 1.00414 0.46087 0.42619 0.0
H1477 H 0.02285 0.43325 0.40499 0.0
H1478 H 0.9802 0.43859 0.40425 0.0
H1479 H 0.983 0.45222 0.35699 0.0
H1480 H 0.02569 0.44717 0.35763 0.0
H1481 H 1.00856 0.48406 0.34663 0.0
H1482 H 0.04818 0.57513 0.40582 0.0
H1483 H 0.10427 0.55797 0.40516 0.0
H1484 H 0.0744 0.4614 0.388 0.0
C1485 C 0.94856 0.50087 0.38907 0.0
C1486 C 0.92938 0.52829 0.39296 0.0
C1487 C 0.94448 0.55747 0.39912 0.0
C1488 C 0.97779 0.55959 0.40096 0.0
C1489 C 0.99591 0.53231 0.39668 0.0
C1490 C 0.98191 0.50344 0.39102 0.0
C1491 C 1.00711 0.47777 0.38739 0.0
C1492 C 1.00335 0.45104 0.40687 0.0
C1493 C 1.00601 0.46453 0.36056 0.0
C1494 C 0.03738 0.49678 0.39195 0.0
C1495 C 0.03026 0.5282 0.39719 0.0
C1496 C 0.05404 0.55051 0.40194 0.0
C1497 C 0.08593 0.54043 0.40166 0.0
C1498 C 0.09406 0.50821 0.39679 0.0
C1499 C 0.06924 0.48621 0.39164 0.0
H1500 H 0.97922 0.58511 0.87839 0.0
H1501 H 0.07819 0.61371 0.88688 0.0
H1502 H 0.09416 0.55745 0.89007 0.0
H1503 H 0.98178 0.51912 0.92094 0.0
H1504 H 0.95622 0.49403 0.90228 0.0
H1505 H 0.95219 0.53671 0.90057 0.0
H1506 H 0.9603 0.53476 0.85253 0.0
H1507 H 0.96413 0.49205 0.85407 0.0
H1508 H 0.99527 0.51553 0.84004 0.0
H1509 H 0.0997 0.49807 0.893 0.0
H1510 H 0.0945 0.43967 0.8941 0.0
H1511 H 0.99233 0.44884 0.88218 0.0
C1512 C 1.00428 0.57964 0.88067 0.0
C1513 C 0.02734 0.60421 0.8826 0.0
C1514 C 0.05988 0.59565 0.88582 0.0
C1515 C 0.06928 0.56363 0.88752 0.0
C1516 C 0.04597 0.54015 0.88585 0.0
C1517 C 0.01416 0.54768 0.88235 0.0
C1518 C 0.99398 0.51771 0.88106 0.0
C1519 C 0.9696 0.51685 0.90249 0.0
C1520 C 0.97745 0.51485 0.8554 0.0
C1521 C 0.01943 0.49224 0.88447 0.0
C1522 C 0.04924 0.50576 0.88722 0.0
C1523 C 0.07649 0.4872 0.89071 0.0
C1524 C 0.07329 0.45393 0.89118 0.0
C1525 C 0.04305 0.4393 0.88812 0.0
C1526 C 0.01579 0.45899 0.88485 0.0
H1527 H 0.58431 1.00913 0.91912 0.0
H1528 H 0.60387 0.02728 0.84083 0.0
H1529 H 0.54614 0.02376 0.83114 0.0
H1530 H 0.5187 0.95403 0.91059 0.0
H1531 H 0.49607 0.9696 0.93647 0.0
H1532 H 0.53898 0.97188 0.93688 0.0
H1533 H 0.53548 0.03294 0.9434 0.0
H1534 H 0.49256 0.03087 0.94282 0.0
H1535 H 0.51311 0.05687 0.92141 0.0
H1536 H 0.48662 0.01651 0.82991 0.0
H1537 H 0.42878 1.00959 0.8376 0.0
H1538 H 0.44718 1.00079 0.91716 0.0
C1539 C 0.57633 0.01189 0.89993 0.0
C1540 C 0.59838 0.01801 0.88059 0.0
C1541 C 0.58721 0.02239 0.85578 0.0
C1542 C 0.55456 0.02041 0.85015 0.0
C1543 C 0.53334 0.01459 0.86966 0.0
C1544 C 0.54371 0.01069 0.89409 0.0
C1545 C 0.51579 1.00618 0.91172 0.0
C1546 C 0.51749 0.97348 0.92467 0.0
C1547 C 0.51415 0.03334 0.93097 0.0
C1548 C 0.48814 1.00787 0.89336 0.0
C1549 C 0.49885 0.0124 0.86916 0.0
C1550 C 0.47793 0.01331 0.8488 0.0
C1551 C 0.44524 1.00937 0.85329 0.0
C1552 C 0.43373 1.00516 0.87794 0.0
C1553 C 0.45545 1.00466 0.89822 0.0
H1554 H 0.46392 0.94901 0.62064 0.0
H1555 H 0.56168 0.92453 0.60201 0.0
H1556 H 0.57685 0.98091 0.60564 0.0
H1557 H 0.46145 0.02395 0.58763 0.0
H1558 H 0.43784 0.04397 0.61097 0.0
H1559 H 0.43418 1.00155 0.60679 0.0
H1560 H 0.44728 0.99261 0.65373 0.0
H1561 H 0.45087 0.035 0.65808 0.0
H1562 H 0.48344 1.00906 0.66671 0.0
H1563 H 0.58191 0.03928 0.61127 0.0
H1564 H 0.57687 0.09671 0.6191 0.0
H1565 H 0.47615 0.08484 0.63503 0.0
C1566 C 0.48856 0.95544 0.61749 0.0
C1567 C 0.51156 0.93214 0.61086 0.0
C1568 C 0.54347 0.9418 0.60666 0.0
C1569 C 0.5524 0.97382 0.60882 0.0
C1570 C 0.52918 0.99608 0.61522 0.0
C1571 C 0.49792 0.98744 0.61954 0.0
C1572 C 0.47781 0.01635 0.62625 0.0
C1573 C 0.45125 0.02177 0.60674 0.0
C1574 C 0.46404 0.01305 0.65277 0.0
C1575 C 0.50274 0.04252 0.62507 0.0
C1576 C 0.53216 0.03013 0.61866 0.0
C1577 C 0.55905 0.04925 0.61646 0.0
C1578 C 0.55596 0.08188 0.62115 0.0
C1579 C 0.5262 0.09531 0.62806 0.0
C1580 C 0.49915 0.07529 0.62976 0.0
H1581 H 0.9423 0.53759 0.63408 0.0
H1582 H 0.92344 0.51048 0.55724 0.0
H1583 H 0.9811 0.50046 0.5508 0.0
H1584 H 0.01891 0.57591 0.62422 0.0
H1585 H 0.03636 0.56056 0.6527 0.0
H1586 H 0.99396 0.56733 0.65079 0.0
H1587 H 0.98382 0.50868 0.66343 0.0
H1588 H 0.02618 0.50164 0.66524 0.0
H1589 H 1.0016 0.47707 0.64538 0.0
H1590 H 0.04061 0.49447 0.5525 0.0
H1591 H 0.09807 0.48975 0.56284 0.0
H1592 H 0.0786 0.51631 0.63957 0.0
C1593 C 0.95054 0.52998 0.61585 0.0
C1594 C 0.92866 0.52519 0.59597 0.0
C1595 C 0.93998 0.5144 0.57255 0.0
C1596 C 0.97261 0.5087 0.56878 0.0
C1597 C 0.99358 0.51334 0.58879 0.0
C1598 C 0.98303 0.52345 0.61195 0.0
C1599 C 1.01045 0.52502 0.63062 0.0
C1600 C 0.0152 0.55924 0.64014 0.0
C1601 C 1.00519 0.50171 0.65246 0.0
C1602 C 0.03808 0.51446 0.61428 0.0
C1603 C 0.02777 0.50817 0.59015 0.0
C1604 C 0.0489 0.4991 0.57137 0.0
C1605 C 0.08141 0.49651 0.57735 0.0
C1606 C 0.09249 0.50244 0.60196 0.0
C1607 C 0.07051 0.51127 0.62071 0.0
loop_
_geom_bond_atom_site_label_1
_geom_bond_atom_site_label_2
_geom_bond_distance
_geom_bond_site_symmetry_2
_ccdc_geom_bond_type
Co0 N4 2.148 . S
Co0 N10 2.128 . S
Co0 N20 2.194 . S
Co0 O25 2.351 . S
Co0 O26 2.155 . S
Co0 O27 2.096 . S
C1 N4 1.301 . S
C1 N5 1.328 . S
C1 H6 0.930 . S
C2 C3 1.333 . S
C2 N4 1.317 . S
C2 H7 0.930 . S
C3 C2 1.333 . S
C3 N5 1.350 . S
C3 H29 0.931 . S
N4 Co0 2.148 . S
N4 C1 1.301 . S
N4 C2 1.317 . S
N5 C1 1.328 . S
N5 C3 1.350 . S
H6 C1 0.930 . S
H7 C2 0.930 . S
C8 O9 1.224 . S
C8 O27 1.247 . S
O9 C8 1.224 . S
N10 Co0 2.128 . S
N10 C11 1.355 . S
N10 C13 1.311 . S
C11 N10 1.355 . S
C11 C12 1.363 . S
C11 H23 0.929 . S
C12 C11 1.363 . S
C12 N14 1.375 . S
C12 H30 0.931 1_455 S
C13 N10 1.311 . S
C13 N14 1.347 . S
C13 H24 0.929 . S
N14 C12 1.375 . S
N14 C13 1.347 . S
C15 C18 1.365 1_455 S
C15 N20 1.328 . S
C15 H21 0.929 . S
C16 C17 1.362 1_455 S
C16 C19 1.378 . S
C16 H31 0.929 1_455 S
C17 C16 1.362 1_655 S
C17 C18 1.366 . S
C18 C15 1.365 1_655 S
C18 C17 1.366 . S
C18 H32 0.930 . S
C19 C16 1.378 . S
C19 N20 1.315 . S
C19 H22 0.930 . S
N20 Co0 2.194 . S
N20 C15 1.328 . S
N20 C19 1.315 . S
H21 C15 0.929 . S
H22 C19 0.930 . S
H23 C11 0.929 . S
H24 C13 0.929 . S
O25 Co0 2.351 . S
O25 C28 1.244 . S
O26 Co0 2.155 . S
O26 C28 1.240 . S
O27 Co0 2.096 . S
O27 C8 1.247 . S
C28 O25 1.244 . S
C28 O26 1.240 . S
H29 C3 0.931 . S
H30 C12 0.931 1_655 S
H31 C16 0.929 1_655 S
H32 C18 0.930 . S
Co33 N37 2.148 . S
Co33 N43 2.128 . S
Co33 N53 2.194 . S
Co33 O58 2.351 . S
Co33 O59 2.155 . S
Co33 O60 2.096 . S
C34 N37 1.301 . S
C34 N38 1.328 . S
C34 H39 0.930 . S
C35 C36 1.333 . S
C35 N37 1.317 . S
C35 H40 0.930 . S
C36 C35 1.333 . S
C36 N38 1.350 . S
C36 H62 0.931 . S
N37 Co33 2.148 . S
N37 C34 1.301 . S
N37 C35 1.317 . S
N38 C34 1.328 . S
N38 C36 1.350 . S
H39 C34 0.930 . S
H40 C35 0.930 . S
C41 O42 1.224 . S
C41 O60 1.247 . S
O42 C41 1.224 . S
N43 Co33 2.128 . S
N43 C44 1.355 . S
N43 C46 1.311 . S
C44 N43 1.355 . S
C44 C45 1.363 . S
C44 H56 0.929 . S
C45 C44 1.363 . S
C45 N47 1.375 . S
C45 H63 0.931 1_545 S
C46 N43 1.311 . S
C46 N47 1.347 . S
C46 H57 0.929 . S
N47 C45 1.375 . S
N47 C46 1.347 . S
C48 C51 1.365 1_545 S
C48 N53 1.328 . S
C48 H54 0.929 . S
C49 C50 1.362 1_545 S
C49 C52 1.378 . S
C49 H64 0.929 1_545 S
C50 C49 1.362 1_565 S
C50 C51 1.366 . S
C51 C48 1.365 1_565 S
C51 C50 1.366 . S
C51 H65 0.930 . S
C52 C49 1.378 . S
C52 N53 1.315 . S
C52 H55 0.930 . S
N53 Co33 2.194 . S
N53 C48 1.328 . S
N53 C52 1.315 . S
H54 C48 0.929 . S
H55 C52 0.930 . S
H56 C44 0.929 . S
H57 C46 0.929 . S
O58 Co33 2.351 . S
O58 C61 1.244 . S
O59 Co33 2.155 . S
O59 C61 1.240 . S
O60 Co33 2.096 . S
O60 C41 1.247 . S
C61 O58 1.244 . S
C61 O59 1.240 . S
H62 C36 0.931 . S
H63 C45 0.931 1_565 S
H64 C49 0.929 1_565 S
H65 C51 0.930 . S
Co66 N70 2.148 . S
Co66 N76 2.128 . S
Co66 N86 2.194 . S
Co66 O91 2.351 . S
Co66 O92 2.155 . S
Co66 O93 2.096 . S
C67 N70 1.301 . S
C67 N71 1.328 . S
C67 H72 0.930 . S
C68 C69 1.333 . S
C68 N70 1.317 . S
C68 H73 0.930 . S
C69 C68 1.333 . S
C69 N71 1.350 . S
C69 H95 0.931 . S
N70 Co66 2.148 . S
N70 C67 1.301 . S
N70 C68 1.317 . S
N71 C67 1.328 . S
N71 C69 1.350 . S
H72 C67 0.930 . S
H73 C68 0.930 . S
C74 O75 1.224 . S
C74 O93 1.247 . S
O75 C74 1.224 . S
N76 Co66 2.128 . S
N76 C77 1.355 . S
N76 C79 1.311 . S
C77 N76 1.355 . S
C77 C78 1.363 . S
C77 H89 0.929 . S
C78 C77 1.363 . S
C78 N80 1.375 . S
C78 H96 0.931 1_655 S
C79 N76 1.311 . S
C79 N80 1.347 . S
C79 H90 0.929 . S
N80 C78 1.375 . S
N80 C79 1.347 . S
C81 C84 1.365 1_655 S
C81 N86 1.328 . S
C81 H87 0.929 . S
C82 C83 1.362 1_655 S
C82 C85 1.378 . S
C82 H97 0.929 1_655 S
C83 C82 1.362 1_455 S
C83 C84 1.366 . S
C84 C81 1.365 1_455 S
C84 C83 1.366 . S
C84 H98 0.930 . S
C85 C82 1.378 . S
C85 N86 1.315 . S
C85 H88 0.930 . S
N86 Co66 2.194 . S
N86 C81 1.328 . S
N86 C85 1.315 . S
H87 C81 0.929 . S
H88 C85 0.930 . S
H89 C77 0.929 . S
H90 C79 0.929 . S
O91 Co66 2.351 . S
O91 C94 1.244 . S
O92 Co66 2.155 . S
O92 C94 1.240 . S
O93 Co66 2.096 . S
O93 C74 1.247 . S
C94 O91 1.244 . S
C94 O92 1.240 . S
H95 C69 0.931 . S
H96 C78 0.931 1_455 S
H97 C82 0.929 1_455 S
H98 C84 0.930 . S
Co99 N103 2.148 . S
Co99 N109 2.128 . S
Co99 N119 2.194 . S
Co99 O124 2.351 . S
Co99 O125 2.155 . S
Co99 O126 2.096 . S
C100 N103 1.301 . S
C100 N104 1.328 . S
C100 H105 0.930 . S
C101 C102 1.333 . S
C101 N103 1.317 . S
C101 H106 0.930 . S
C102 C101 1.333 . S
C102 N104 1.350 . S
C102 H128 0.931 . S
N103 Co99 2.148 . S
N103 C100 1.301 . S
N103 C101 1.317 . S
N104 C100 1.328 . S
N104 C102 1.350 . S
H105 C100 0.930 . S
H106 C101 0.930 . S
C107 O108 1.224 . S
C107 O126 1.247 . S
O108 C107 1.224 . S
N109 Co99 2.128 . S
N109 C110 1.355 . S
N109 C112 1.311 . S
C110 N109 1.355 . S
C110 C111 1.363 . S
C110 H122 0.929 . S
C111 C110 1.363 . S
C111 N113 1.375 . S
C111 H129 0.931 1_565 S
C112 N109 1.311 . S
C112 N113 1.347 . S
C112 H123 0.929 . S
N113 C111 1.375 . S
N113 C112 1.347 . S
C114 C117 1.365 1_565 S
C114 N119 1.328 . S
C114 H120 0.929 . S
C115 C116 1.362 1_565 S
C115 C118 1.378 . S
C115 H130 0.929 1_565 S
C116 C115 1.362 1_545 S
C116 C117 1.366 . S
C117 C114 1.365 1_545 S
C117 C116 1.366 . S
C117 H131 0.930 . S
C118 C115 1.378 . S
C118 N119 1.315 . S
C118 H121 0.930 . S
N119 Co99 2.194 . S
N119 C114 1.328 . S
N119 C118 1.315 . S
H120 C114 0.929 . S
H121 C118 0.930 . S
H122 C110 0.929 . S
H123 C112 0.929 . S
O124 Co99 2.351 . S
O124 C127 1.244 . S
O125 Co99 2.155 . S
O125 C127 1.240 . S
O126 Co99 2.096 . S
O126 C107 1.247 . S
C127 O124 1.244 . S
C127 O125 1.240 . S
H128 C102 0.931 . S
H129 C111 0.931 1_545 S
H130 C115 0.929 1_545 S
H131 C117 0.930 . S
Co132 N136 2.148 . S
Co132 N142 2.128 . S
Co132 N152 2.194 . S
Co132 O157 2.351 . S
Co132 O158 2.155 . S
Co132 O159 2.096 . S
C133 N136 1.301 . S
C133 N137 1.328 . S
C133 H138 0.930 . S
C134 C135 1.333 . S
C134 N136 1.317 . S
C134 H139 0.930 . S
C135 C134 1.333 . S
C135 N137 1.350 . S
C135 H161 0.931 . S
N136 Co132 2.148 . S
N136 C133 1.301 . S
N136 C134 1.317 . S
N137 C133 1.328 . S
N137 C135 1.350 . S
H138 C133 0.930 . S
H139 C134 0.930 . S
C140 O141 1.224 . S
C140 O159 1.247 . S
O141 C140 1.224 . S
N142 Co132 2.128 . S
N142 C143 1.355 . S
N142 C145 1.311 . S
C143 N142 1.355 . S
C143 C144 1.363 . S
C143 H155 0.929 . S
C144 C143 1.363 . S
C144 N146 1.375 . S
C144 H162 0.931 . S
C145 N142 1.311 . S
C145 N146 1.347 . S
C145 H156 0.929 . S
N146 C144 1.375 . S
N146 C145 1.347 . S
C147 C150 1.365 . S
C147 N152 1.328 . S
C147 H153 0.929 . S
C148 C149 1.362 . S
C148 C151 1.378 . S
C148 H163 0.929 . S
C149 C148 1.362 . S
C149 C150 1.366 . S
C150 C147 1.365 . S
C150 C149 1.366 . S
C150 H164 0.930 . S
C151 C148 1.378 . S
C151 N152 1.315 . S
C151 H154 0.930 . S
N152 Co132 2.194 . S
N152 C147 1.328 . S
N152 C151 1.315 . S
H153 C147 0.929 . S
H154 C151 0.930 . S
H155 C143 0.929 . S
H156 C145 0.929 . S
O157 Co132 2.351 . S
O157 C160 1.244 . S
O158 Co132 2.155 . S
O158 C160 1.240 . S
O159 Co132 2.096 . S
O159 C140 1.247 . S
C160 O157 1.244 . S
C160 O158 1.240 . S
H161 C135 0.931 . S
H162 C144 0.931 . S
H163 C148 0.929 . S
H164 C150 0.930 . S
Co165 N169 2.148 . S
Co165 N175 2.128 . S
Co165 N185 2.194 . S
Co165 O190 2.351 . S
Co165 O191 2.155 . S
Co165 O192 2.096 . S
C166 N169 1.301 . S
C166 N170 1.328 . S
C166 H171 0.930 . S
C167 C168 1.333 . S
C167 N169 1.317 . S
C167 H172 0.930 . S
C168 C167 1.333 . S
C168 N170 1.350 . S
C168 H194 0.931 . S
N169 Co165 2.148 . S
N169 C166 1.301 . S
N169 C167 1.317 . S
N170 C166 1.328 . S
N170 C168 1.350 . S
H171 C166 0.930 . S
H172 C167 0.930 . S
C173 O174 1.224 . S
C173 O192 1.247 . S
O174 C173 1.224 . S
N175 Co165 2.128 . S
N175 C176 1.355 . S
N175 C178 1.311 . S
C176 N175 1.355 . S
C176 C177 1.363 . S
C176 H188 0.929 . S
C177 C176 1.363 . S
C177 N179 1.375 . S
C177 H195 0.931 . S
C178 N175 1.311 . S
C178 N179 1.347 . S
C178 H189 0.929 . S
N179 C177 1.375 . S
N179 C178 1.347 . S
C180 C183 1.365 . S
C180 N185 1.328 . S
C180 H186 0.929 . S
C181 C182 1.362 . S
C181 C184 1.378 . S
C181 H196 0.929 . S
C182 C181 1.362 . S
C182 C183 1.366 . S
C183 C180 1.365 . S
C183 C182 1.366 . S
C183 H197 0.930 . S
C184 C181 1.378 . S
C184 N185 1.315 . S
C184 H187 0.930 . S
N185 Co165 2.194 . S
N185 C180 1.328 . S
N185 C184 1.315 . S
H186 C180 0.929 . S
H187 C184 0.930 . S
H188 C176 0.929 . S
H189 C178 0.929 . S
O190 Co165 2.351 . S
O190 C193 1.244 . S
O191 Co165 2.155 . S
O191 C193 1.240 . S
O192 Co165 2.096 . S
O192 C173 1.247 . S
C193 O190 1.244 . S
C193 O191 1.240 . S
H194 C168 0.931 . S
H195 C177 0.931 . S
H196 C181 0.929 . S
H197 C183 0.930 . S
Co198 N202 2.148 . S
Co198 N208 2.128 . S
Co198 N218 2.194 . S
Co198 O223 2.351 . S
Co198 O224 2.155 . S
Co198 O225 2.096 . S
C199 N202 1.301 . S
C199 N203 1.328 . S
C199 H204 0.930 . S
C200 C201 1.333 . S
C200 N202 1.317 . S
C200 H205 0.930 . S
C201 C200 1.333 . S
C201 N203 1.350 . S
C201 H227 0.931 . S
N202 Co198 2.148 . S
N202 C199 1.301 . S
N202 C200 1.317 . S
N203 C199 1.328 . S
N203 C201 1.350 . S
H204 C199 0.930 . S
H205 C200 0.930 . S
C206 O207 1.224 . S
C206 O225 1.247 . S
O207 C206 1.224 . S
N208 Co198 2.128 . S
N208 C209 1.355 . S
N208 C211 1.311 . S
C209 N208 1.355 . S
C209 C210 1.363 . S
C209 H221 0.929 . S
C210 C209 1.363 . S
C210 N212 1.375 . S
C210 H228 0.931 . S
C211 N208 1.311 . S
C211 N212 1.347 . S
C211 H222 0.929 . S
N212 C210 1.375 . S
N212 C211 1.347 . S
C213 C216 1.365 . S
C213 N218 1.328 . S
C213 H219 0.929 . S
C214 C215 1.362 . S
C214 C217 1.378 . S
C214 H229 0.929 . S
C215 C214 1.362 . S
C215 C216 1.366 . S
C216 C213 1.365 . S
C216 C215 1.366 . S
C216 H230 0.930 . S
C217 C214 1.378 . S
C217 N218 1.315 . S
C217 H220 0.930 . S
N218 Co198 2.194 . S
N218 C213 1.328 . S
N218 C217 1.315 . S
H219 C213 0.929 . S
H220 C217 0.930 . S
H221 C209 0.929 . S
H222 C211 0.929 . S
O223 Co198 2.351 . S
O223 C226 1.244 . S
O224 Co198 2.155 . S
O224 C226 1.240 . S
O225 Co198 2.096 . S
O225 C206 1.247 . S
C226 O223 1.244 . S
C226 O224 1.240 . S
H227 C201 0.931 . S
H228 C210 0.931 . S
H229 C214 0.929 . S
H230 C216 0.930 . S
Co231 N235 2.148 . S
Co231 N241 2.128 . S
Co231 N251 2.194 . S
Co231 O256 2.351 . S
Co231 O257 2.155 . S
Co231 O258 2.096 . S
C232 N235 1.301 . S
C232 N236 1.328 . S
C232 H237 0.930 . S
C233 C234 1.333 . S
C233 N235 1.317 . S
C233 H238 0.930 . S
C234 C233 1.333 . S
C234 N236 1.350 . S
C234 H260 0.931 . S
N235 Co231 2.148 . S
N235 C232 1.301 . S
N235 C233 1.317 . S
N236 C232 1.328 . S
N236 C234 1.350 . S
H237 C232 0.930 . S
H238 C233 0.930 . S
C239 O240 1.224 . S
C239 O258 1.247 . S
O240 C239 1.224 . S
N241 Co231 2.128 . S
N241 C242 1.355 . S
N241 C244 1.311 . S
C242 N241 1.355 . S
C242 C243 1.363 . S
C242 H254 0.929 . S
C243 C242 1.363 . S
C243 N245 1.375 . S
C243 H261 0.931 . S
C244 N241 1.311 . S
C244 N245 1.347 . S
C244 H255 0.929 . S
N245 C243 1.375 . S
N245 C244 1.347 . S
C246 C249 1.365 . S
C246 N251 1.328 . S
C246 H252 0.929 . S
C247 C248 1.362 . S
C247 C250 1.378 . S
C247 H262 0.929 . S
C248 C247 1.362 . S
C248 C249 1.366 . S
C249 C246 1.365 . S
C249 C248 1.366 . S
C249 H263 0.930 . S
C250 C247 1.378 . S
C250 N251 1.315 . S
C250 H253 0.930 . S
N251 Co231 2.194 . S
N251 C246 1.328 . S
N251 C250 1.315 . S
H252 C246 0.929 . S
H253 C250 0.930 . S
H254 C242 0.929 . S
H255 C244 0.929 . S
O256 Co231 2.351 . S
O256 C259 1.244 . S
O257 Co231 2.155 . S
O257 C259 1.240 . S
O258 Co231 2.096 . S
O258 C239 1.247 . S
C259 O256 1.244 . S
C259 O257 1.240 . S
H260 C234 0.931 . S
H261 C243 0.931 . S
H262 C247 0.929 . S
H263 C249 0.930 . S
Co264 N268 2.148 . S
Co264 N274 2.128 . S
Co264 N284 2.194 . S
Co264 O289 2.351 . S
Co264 O290 2.155 . S
Co264 O291 2.096 . S
C265 N268 1.301 . S
C265 N269 1.328 . S
C265 H270 0.930 . S
C266 C267 1.333 . S
C266 N268 1.317 . S
C266 H271 0.930 . S
C267 C266 1.333 . S
C267 N269 1.350 . S
C267 H293 0.931 . S
N268 Co264 2.148 . S
N268 C265 1.301 . S
N268 C266 1.317 . S
N269 C265 1.328 . S
N269 C267 1.350 . S
H270 C265 0.930 . S
H271 C266 0.930 . S
C272 O273 1.224 . S
C272 O291 1.247 . S
O273 C272 1.224 . S
N274 Co264 2.128 . S
N274 C275 1.355 . S
N274 C277 1.311 . S
C275 N274 1.355 . S
C275 C276 1.363 . S
C275 H287 0.929 . S
C276 C275 1.363 . S
C276 N278 1.375 . S
C276 H294 0.931 1_655 S
C277 N274 1.311 . S
C277 N278 1.347 . S
C277 H288 0.929 . S
N278 C276 1.375 . S
N278 C277 1.347 . S
C279 C282 1.365 1_655 S
C279 N284 1.328 . S
C279 H285 0.929 . S
C280 C281 1.362 1_655 S
C280 C283 1.378 . S
C280 H295 0.929 1_655 S
C281 C280 1.362 1_455 S
C281 C282 1.366 . S
C282 C279 1.365 1_455 S
C282 C281 1.366 . S
C282 H296 0.930 . S
C283 C280 1.378 . S
C283 N284 1.315 . S
C283 H286 0.930 . S
N284 Co264 2.194 . S
N284 C279 1.328 . S
N284 C283 1.315 . S
H285 C279 0.929 . S
H286 C283 0.930 . S
H287 C275 0.929 . S
H288 C277 0.929 . S
O289 Co264 2.351 . S
O289 C292 1.244 . S
O290 Co264 2.155 . S
O290 C292 1.240 . S
O291 Co264 2.096 . S
O291 C272 1.247 . S
C292 O289 1.244 . S
C292 O290 1.240 . S
H293 C267 0.931 . S
H294 C276 0.931 1_455 S
H295 C280 0.929 1_455 S
H296 C282 0.930 . S
Co297 N301 2.148 . S
Co297 N307 2.128 . S
Co297 N317 2.194 . S
Co297 O322 2.351 . S
Co297 O323 2.155 . S
Co297 O324 2.096 . S
C298 N301 1.301 . S
C298 N302 1.328 . S
C298 H303 0.930 . S
C299 C300 1.333 . S
C299 N301 1.317 . S
C299 H304 0.930 . S
C300 C299 1.333 . S
C300 N302 1.350 . S
C300 H326 0.931 . S
N301 Co297 2.148 . S
N301 C298 1.301 . S
N301 C299 1.317 . S
N302 C298 1.328 . S
N302 C300 1.350 . S
H303 C298 0.930 . S
H304 C299 0.930 . S
C305 O306 1.224 . S
C305 O324 1.247 . S
O306 C305 1.224 . S
N307 Co297 2.128 . S
N307 C308 1.355 . S
N307 C310 1.311 . S
C308 N307 1.355 . S
C308 C309 1.363 . S
C308 H320 0.929 . S
C309 C308 1.363 . S
C309 N311 1.375 . S
C309 H327 0.931 1_565 S
C310 N307 1.311 . S
C310 N311 1.347 . S
C310 H321 0.929 . S
N311 C309 1.375 . S
N311 C310 1.347 . S
C312 C315 1.365 1_565 S
C312 N317 1.328 . S
C312 H318 0.929 . S
C313 C314 1.362 1_565 S
C313 C316 1.378 . S
C313 H328 0.929 1_565 S
C314 C313 1.362 1_545 S
C314 C315 1.366 . S
C315 C312 1.365 1_545 S
C315 C314 1.366 . S
C315 H329 0.930 . S
C316 C313 1.378 . S
C316 N317 1.315 . S
C316 H319 0.930 . S
N317 Co297 2.194 . S
N317 C312 1.328 . S
N317 C316 1.315 . S
H318 C312 0.929 . S
H319 C316 0.930 . S
H320 C308 0.929 . S
H321 C310 0.929 . S
O322 Co297 2.351 . S
O322 C325 1.244 . S
O323 Co297 2.155 . S
O323 C325 1.240 . S
O324 Co297 2.096 . S
O324 C305 1.247 . S
C325 O322 1.244 . S
C325 O323 1.240 . S
H326 C300 0.931 . S
H327 C309 0.931 1_545 S
H328 C313 0.929 1_545 S
H329 C315 0.930 . S
Co330 N334 2.148 . S
Co330 N340 2.128 . S
Co330 N350 2.194 . S
Co330 O355 2.351 . S
Co330 O356 2.155 . S
Co330 O357 2.096 . S
C331 N334 1.301 . S
C331 N335 1.328 . S
C331 H336 0.930 . S
C332 C333 1.333 . S
C332 N334 1.317 . S
C332 H337 0.930 . S
C333 C332 1.333 . S
C333 N335 1.350 . S
C333 H359 0.931 . S
N334 Co330 2.148 . S
N334 C331 1.301 . S
N334 C332 1.317 . S
N335 C331 1.328 . S
N335 C333 1.350 . S
H336 C331 0.930 . S
H337 C332 0.930 . S
C338 O339 1.224 . S
C338 O357 1.247 . S
O339 C338 1.224 . S
N340 Co330 2.128 . S
N340 C341 1.355 . S
N340 C343 1.311 . S
C341 N340 1.355 . S
C341 C342 1.363 . S
C341 H353 0.929 . S
C342 C341 1.363 . S
C342 N344 1.375 . S
C342 H360 0.931 1_455 S
C343 N340 1.311 . S
C343 N344 1.347 . S
C343 H354 0.929 . S
N344 C342 1.375 . S
N344 C343 1.347 . S
C345 C348 1.365 1_455 S
C345 N350 1.328 . S
C345 H351 0.929 . S
C346 C347 1.362 1_455 S
C346 C349 1.378 . S
C346 H361 0.929 1_455 S
C347 C346 1.362 1_655 S
C347 C348 1.366 . S
C348 C345 1.365 1_655 S
C348 C347 1.366 . S
C348 H362 0.930 . S
C349 C346 1.378 . S
C349 N350 1.315 . S
C349 H352 0.930 . S
N350 Co330 2.194 . S
N350 C345 1.328 . S
N350 C349 1.315 . S
H351 C345 0.929 . S
H352 C349 0.930 . S
H353 C341 0.929 . S
H354 C343 0.929 . S
O355 Co330 2.351 . S
O355 C358 1.244 . S
O356 Co330 2.155 . S
O356 C358 1.240 . S
O357 Co330 2.096 . S
O357 C338 1.247 . S
C358 O355 1.244 . S
C358 O356 1.240 . S
H359 C333 0.931 . S
H360 C342 0.931 1_655 S
H361 C346 0.929 1_655 S
H362 C348 0.930 . S
Co363 N367 2.148 . S
Co363 N373 2.128 . S
Co363 N383 2.194 . S
Co363 O388 2.351 . S
Co363 O389 2.155 . S
Co363 O390 2.096 . S
C364 N367 1.301 . S
C364 N368 1.328 . S
C364 H369 0.930 . S
C365 C366 1.333 . S
C365 N367 1.317 . S
C365 H370 0.930 . S
C366 C365 1.333 . S
C366 N368 1.350 . S
C366 H392 0.931 . S
N367 Co363 2.148 . S
N367 C364 1.301 . S
N367 C365 1.317 . S
N368 C364 1.328 . S
N368 C366 1.350 . S
H369 C364 0.930 . S
H370 C365 0.930 . S
C371 O372 1.224 . S
C371 O390 1.247 . S
O372 C371 1.224 . S
N373 Co363 2.128 . S
N373 C374 1.355 . S
N373 C376 1.311 . S
C374 N373 1.355 . S
C374 C375 1.363 . S
C374 H386 0.929 . S
C375 C374 1.363 . S
C375 N377 1.375 . S
C375 H393 0.931 1_545 S
C376 N373 1.311 . S
C376 N377 1.347 . S
C376 H387 0.929 . S
N377 C375 1.375 . S
N377 C376 1.347 . S
C378 C381 1.365 1_545 S
C378 N383 1.328 . S
C378 H384 0.929 . S
C379 C380 1.362 1_545 S
C379 C382 1.378 . S
C379 H394 0.929 1_545 S
C380 C379 1.362 1_565 S
C380 C381 1.366 . S
C381 C378 1.365 1_565 S
C381 C380 1.366 . S
C381 H395 0.930 . S
C382 C379 1.378 . S
C382 N383 1.315 . S
C382 H385 0.930 . S
N383 Co363 2.194 . S
N383 C378 1.328 . S
N383 C382 1.315 . S
H384 C378 0.929 . S
H385 C382 0.930 . S
H386 C374 0.929 . S
H387 C376 0.929 . S
O388 Co363 2.351 . S
O388 C391 1.244 . S
O389 Co363 2.155 . S
O389 C391 1.240 . S
O390 Co363 2.096 . S
O390 C371 1.247 . S
C391 O388 1.244 . S
C391 O389 1.240 . S
H392 C366 0.931 . S
H393 C375 0.931 1_565 S
H394 C379 0.929 1_565 S
H395 C381 0.930 . S
Co396 N400 2.148 . S
Co396 N406 2.128 . S
Co396 N416 2.194 . S
Co396 O421 2.351 . S
Co396 O422 2.155 . S
Co396 O423 2.096 . S
C397 N400 1.301 . S
C397 N401 1.328 . S
C397 H402 0.930 . S
C398 C399 1.333 . S
C398 N400 1.317 . S
C398 H403 0.930 . S
C399 C398 1.333 . S
C399 N401 1.350 . S
C399 H425 0.931 . S
N400 Co396 2.148 . S
N400 C397 1.301 . S
N400 C398 1.317 . S
N401 C397 1.328 . S
N401 C399 1.350 . S
H402 C397 0.930 . S
H403 C398 0.930 . S
C404 O405 1.224 . S
C404 O423 1.247 . S
O405 C404 1.224 . S
N406 Co396 2.128 . S
N406 C407 1.355 . S
N406 C409 1.311 . S
C407 N406 1.355 . S
C407 C408 1.363 . S
C407 H419 0.929 . S
C408 C407 1.363 . S
C408 N410 1.375 . S
C408 H426 0.931 . S
C409 N406 1.311 . S
C409 N410 1.347 . S
C409 H420 0.929 . S
N410 C408 1.375 . S
N410 C409 1.347 . S
C411 C414 1.365 . S
C411 N416 1.328 . S
C411 H417 0.929 . S
C412 C413 1.362 . S
C412 C415 1.378 . S
C412 H427 0.929 . S
C413 C412 1.362 . S
C413 C414 1.366 . S
C414 C411 1.365 . S
C414 C413 1.366 . S
C414 H428 0.930 . S
C415 C412 1.378 . S
C415 N416 1.315 . S
C415 H418 0.930 . S
N416 Co396 2.194 . S
N416 C411 1.328 . S
N416 C415 1.315 . S
H417 C411 0.929 . S
H418 C415 0.930 . S
H419 C407 0.929 . S
H420 C409 0.929 . S
O421 Co396 2.351 . S
O421 C424 1.244 . S
O422 Co396 2.155 . S
O422 C424 1.240 . S
O423 Co396 2.096 . S
O423 C404 1.247 . S
C424 O421 1.244 . S
C424 O422 1.240 . S
H425 C399 0.931 . S
H426 C408 0.931 . S
H427 C412 0.929 . S
H428 C414 0.930 . S
Co429 N433 2.148 . S
Co429 N439 2.128 . S
Co429 N449 2.194 . S
Co429 O454 2.351 . S
Co429 O455 2.155 . S
Co429 O456 2.096 . S
C430 N433 1.301 . S
C430 N434 1.328 . S
C430 H435 0.930 . S
C431 C432 1.333 . S
C431 N433 1.317 . S
C431 H436 0.930 . S
C432 C431 1.333 . S
C432 N434 1.350 . S
C432 H458 0.931 . S
N433 Co429 2.148 . S
N433 C430 1.301 . S
N433 C431 1.317 . S
N434 C430 1.328 . S
N434 C432 1.350 . S
H435 C430 0.930 . S
H436 C431 0.930 . S
C437 O438 1.224 . S
C437 O456 1.247 . S
O438 C437 1.224 . S
N439 Co429 2.128 . S
N439 C440 1.355 . S
N439 C442 1.311 . S
C440 N439 1.355 . S
C440 C441 1.363 . S
C440 H452 0.929 . S
C441 C440 1.363 . S
C441 N443 1.375 . S
C441 H459 0.931 . S
C442 N439 1.311 . S
C442 N443 1.347 . S
C442 H453 0.929 . S
N443 C441 1.375 . S
N443 C442 1.347 . S
C444 C447 1.365 . S
C444 N449 1.328 . S
C444 H450 0.929 . S
C445 C446 1.362 . S
C445 C448 1.378 . S
C445 H460 0.929 . S
C446 C445 1.362 . S
C446 C447 1.366 . S
C447 C444 1.365 . S
C447 C446 1.366 . S
C447 H461 0.930 . S
C448 C445 1.378 . S
C448 N449 1.315 . S
C448 H451 0.930 . S
N449 Co429 2.194 . S
N449 C444 1.328 . S
N449 C448 1.315 . S
H450 C444 0.929 . S
H451 C448 0.930 . S
H452 C440 0.929 . S
H453 C442 0.929 . S
O454 Co429 2.351 . S
O454 C457 1.244 . S
O455 Co429 2.155 . S
O455 C457 1.240 . S
O456 Co429 2.096 . S
O456 C437 1.247 . S
C457 O454 1.244 . S
C457 O455 1.240 . S
H458 C432 0.931 . S
H459 C441 0.931 . S
H460 C445 0.929 . S
H461 C447 0.930 . S
Co462 N466 2.148 . S
Co462 N472 2.128 . S
Co462 N482 2.194 . S
Co462 O487 2.351 . S
Co462 O488 2.155 . S
Co462 O489 2.096 . S
C463 N466 1.301 . S
C463 N467 1.328 . S
C463 H468 0.930 . S
C464 C465 1.333 . S
C464 N466 1.317 . S
C464 H469 0.930 . S
C465 C464 1.333 . S
C465 N467 1.350 . S
C465 H491 0.931 . S
N466 Co462 2.148 . S
N466 C463 1.301 . S
N466 C464 1.317 . S
N467 C463 1.328 . S
N467 C465 1.350 . S
H468 C463 0.930 . S
H469 C464 0.930 . S
C470 O471 1.224 . S
C470 O489 1.247 . S
O471 C470 1.224 . S
N472 Co462 2.128 . S
N472 C473 1.355 . S
N472 C475 1.311 . S
C473 N472 1.355 . S
C473 C474 1.363 . S
C473 H485 0.929 . S
C474 C473 1.363 . S
C474 N476 1.375 . S
C474 H492 0.931 . S
C475 N472 1.311 . S
C475 N476 1.347 . S
C475 H486 0.929 . S
N476 C474 1.375 . S
N476 C475 1.347 . S
C477 C480 1.365 . S
C477 N482 1.328 . S
C477 H483 0.929 . S
C478 C479 1.362 . S
C478 C481 1.378 . S
C478 H493 0.929 . S
C479 C478 1.362 . S
C479 C480 1.366 . S
C480 C477 1.365 . S
C480 C479 1.366 . S
C480 H494 0.930 . S
C481 C478 1.378 . S
C481 N482 1.315 . S
C481 H484 0.930 . S
N482 Co462 2.194 . S
N482 C477 1.328 . S
N482 C481 1.315 . S
H483 C477 0.929 . S
H484 C481 0.930 . S
H485 C473 0.929 . S
H486 C475 0.929 . S
O487 Co462 2.351 . S
O487 C490 1.244 . S
O488 Co462 2.155 . S
O488 C490 1.240 . S
O489 Co462 2.096 . S
O489 C470 1.247 . S
C490 O487 1.244 . S
C490 O488 1.240 . S
H491 C465 0.931 . S
H492 C474 0.931 . S
H493 C478 0.929 . S
H494 C480 0.930 . S
Co495 N499 2.148 . S
Co495 N505 2.128 . S
Co495 N515 2.194 . S
Co495 O520 2.351 . S
Co495 O521 2.155 . S
Co495 O522 2.096 . S
C496 N499 1.301 . S
C496 N500 1.328 . S
C496 H501 0.930 . S
C497 C498 1.333 . S
C497 N499 1.317 . S
C497 H502 0.930 . S
C498 C497 1.333 . S
C498 N500 1.350 . S
C498 H524 0.931 . S
N499 Co495 2.148 . S
N499 C496 1.301 . S
N499 C497 1.317 . S
N500 C496 1.328 . S
N500 C498 1.350 . S
H501 C496 0.930 . S
H502 C497 0.930 . S
C503 O504 1.224 . S
C503 O522 1.247 . S
O504 C503 1.224 . S
N505 Co495 2.128 . S
N505 C506 1.355 . S
N505 C508 1.311 . S
C506 N505 1.355 . S
C506 C507 1.363 . S
C506 H518 0.929 . S
C507 C506 1.363 . S
C507 N509 1.375 . S
C507 H525 0.931 . S
C508 N505 1.311 . S
C508 N509 1.347 . S
C508 H519 0.929 . S
N509 C507 1.375 . S
N509 C508 1.347 . S
C510 C513 1.365 . S
C510 N515 1.328 . S
C510 H516 0.929 . S
C511 C512 1.362 . S
C511 C514 1.378 . S
C511 H526 0.929 . S
C512 C511 1.362 . S
C512 C513 1.366 . S
C513 C510 1.365 . S
C513 C512 1.366 . S
C513 H527 0.930 . S
C514 C511 1.378 . S
C514 N515 1.315 . S
C514 H517 0.930 . S
N515 Co495 2.194 . S
N515 C510 1.328 . S
N515 C514 1.315 . S
H516 C510 0.929 . S
H517 C514 0.930 . S
H518 C506 0.929 . S
H519 C508 0.929 . S
O520 Co495 2.351 . S
O520 C523 1.244 . S
O521 Co495 2.155 . S
O521 C523 1.240 . S
O522 Co495 2.096 . S
O522 C503 1.247 . S
C523 O520 1.244 . S
C523 O521 1.240 . S
H524 C498 0.931 . S
H525 C507 0.931 . S
H526 C511 0.929 . S
H527 C513 0.930 . S
H528 C540 0.930 . S
H529 C542 0.930 . S
H530 C543 0.930 . S
H531 C547 0.962 . S
H532 C547 0.979 . S
H533 C547 0.939 1_556 S
H534 C548 0.957 1_556 S
H535 C548 0.963 . S
H536 C548 0.959 . S
H537 C551 0.929 . S
H538 C552 0.931 . S
H539 C554 0.930 . S
C540 H528 0.930 . S
C540 C541 1.399 . S
C540 C545 1.399 . S
C541 C540 1.399 . S
C541 C542 1.376 . S
C542 H529 0.930 . S
C542 C541 1.376 . S
C542 C543 1.388 . S
C543 H530 0.930 . S
C543 C542 1.388 . S
C543 C544 1.390 . S
C544 C543 1.390 . S
C544 C545 1.394 . S
C544 C550 1.465 1_556 S
C545 C540 1.399 . S
C545 C544 1.394 . S
C545 C546 1.517 1_556 S
C546 C545 1.517 1_554 S
C546 C547 1.502 . S
C546 C548 1.561 . S
C546 C549 1.525 . S
C547 H531 0.962 . S
C547 H532 0.979 . S
C547 H533 0.939 1_554 S
C547 C546 1.502 . S
C548 H534 0.957 1_554 S
C548 H535 0.963 . S
C548 H536 0.959 . S
C548 C546 1.561 . S
C549 C546 1.525 . S
C549 C550 1.396 . S
C549 C554 1.390 . S
C550 C544 1.465 1_554 S
C550 C549 1.396 . S
C550 C551 1.399 . S
C551 H537 0.929 . S
C551 C550 1.399 . S
C551 C552 1.385 . S
C552 H538 0.931 . S
C552 C551 1.385 . S
C552 C553 1.389 . S
C553 C552 1.389 . S
C553 C554 1.387 . S
C554 H539 0.930 . S
C554 C549 1.390 . S
C554 C553 1.387 . S
H555 C567 0.930 . S
H556 C569 0.930 . S
H557 C570 0.930 . S
H558 C574 0.962 . S
H559 C574 0.979 . S
H560 C574 0.939 1_556 S
H561 C575 0.957 1_556 S
H562 C575 0.963 . S
H563 C575 0.959 . S
H564 C578 0.929 . S
H565 C579 0.931 . S
H566 C581 0.930 . S
C567 H555 0.930 . S
C567 C568 1.399 . S
C567 C572 1.399 . S
C568 C567 1.399 . S
C568 C569 1.376 . S
C569 H556 0.930 . S
C569 C568 1.376 . S
C569 C570 1.388 . S
C570 H557 0.930 . S
C570 C569 1.388 . S
C570 C571 1.390 . S
C571 C570 1.390 . S
C571 C572 1.394 . S
C571 C577 1.465 1_556 S
C572 C567 1.399 . S
C572 C571 1.394 . S
C572 C573 1.517 1_556 S
C573 C572 1.517 1_554 S
C573 C574 1.502 . S
C573 C575 1.561 . S
C573 C576 1.525 . S
C574 H558 0.962 . S
C574 H559 0.979 . S
C574 H560 0.939 1_554 S
C574 C573 1.502 . S
C575 H561 0.957 1_554 S
C575 H562 0.963 . S
C575 H563 0.959 . S
C575 C573 1.561 . S
C576 C573 1.525 . S
C576 C577 1.396 . S
C576 C581 1.390 . S
C577 C571 1.465 1_554 S
C577 C576 1.396 . S
C577 C578 1.399 . S
C578 H564 0.929 . S
C578 C577 1.399 . S
C578 C579 1.385 . S
C579 H565 0.931 . S
C579 C578 1.385 . S
C579 C580 1.389 . S
C580 C579 1.389 . S
C580 C581 1.387 . S
C581 H566 0.930 . S
C581 C576 1.390 . S
C581 C580 1.387 . S
H582 C594 0.930 . S
H583 C596 0.930 . S
H584 C597 0.930 . S
H585 C601 0.962 . S
H586 C601 0.979 . S
H587 C601 0.939 1_556 S
H588 C602 0.957 1_556 S
H589 C602 0.963 . S
H590 C602 0.959 . S
H591 C605 0.929 . S
H592 C606 0.931 . S
H593 C608 0.930 . S
C594 H582 0.930 . S
C594 C595 1.399 . S
C594 C599 1.399 . S
C595 C594 1.399 . S
C595 C596 1.376 . S
C596 H583 0.930 . S
C596 C595 1.376 . S
C596 C597 1.388 . S
C597 H584 0.930 . S
C597 C596 1.388 . S
C597 C598 1.390 . S
C598 C597 1.390 . S
C598 C599 1.394 . S
C598 C604 1.465 1_556 S
C599 C594 1.399 . S
C599 C598 1.394 . S
C599 C600 1.517 1_556 S
C600 C599 1.517 1_554 S
C600 C601 1.502 . S
C600 C602 1.561 . S
C600 C603 1.525 . S
C601 H585 0.962 . S
C601 H586 0.979 . S
C601 H587 0.939 1_554 S
C601 C600 1.502 . S
C602 H588 0.957 1_554 S
C602 H589 0.963 . S
C602 H590 0.959 . S
C602 C600 1.561 . S
C603 C600 1.525 . S
C603 C604 1.396 . S
C603 C608 1.390 . S
C604 C598 1.465 1_554 S
C604 C603 1.396 . S
C604 C605 1.399 . S
C605 H591 0.929 . S
C605 C604 1.399 . S
C605 C606 1.385 . S
C606 H592 0.931 . S
C606 C605 1.385 . S
C606 C607 1.389 . S
C607 C606 1.389 . S
C607 C608 1.387 . S
C608 H593 0.930 . S
C608 C603 1.390 . S
C608 C607 1.387 . S
H609 C621 0.930 . S
H610 C623 0.930 . S
H611 C624 0.930 . S
H612 C628 0.962 . S
H613 C628 0.979 . S
H614 C628 0.939 1_556 S
H615 C629 0.957 1_556 S
H616 C629 0.963 . S
H617 C629 0.959 . S
H618 C632 0.929 . S
H619 C633 0.931 . S
H620 C635 0.930 . S
C621 H609 0.930 . S
C621 C622 1.399 . S
C621 C626 1.399 . S
C622 C621 1.399 . S
C622 C623 1.376 . S
C623 H610 0.930 . S
C623 C622 1.376 . S
C623 C624 1.388 . S
C624 H611 0.930 . S
C624 C623 1.388 . S
C624 C625 1.390 . S
C625 C624 1.390 . S
C625 C626 1.394 . S
C625 C631 1.465 1_556 S
C626 C621 1.399 . S
C626 C625 1.394 . S
C626 C627 1.517 1_556 S
C627 C626 1.517 1_554 S
C627 C628 1.502 . S
C627 C629 1.561 . S
C627 C630 1.525 . S
C628 H612 0.962 . S
C628 H613 0.979 . S
C628 H614 0.939 1_554 S
C628 C627 1.502 . S
C629 H615 0.957 1_554 S
C629 H616 0.963 . S
C629 H617 0.959 . S
C629 C627 1.561 . S
C630 C627 1.525 . S
C630 C631 1.396 . S
C630 C635 1.390 . S
C631 C625 1.465 1_554 S
C631 C630 1.396 . S
C631 C632 1.399 . S
C632 H618 0.929 . S
C632 C631 1.399 . S
C632 C633 1.385 . S
C633 H619 0.931 . S
C633 C632 1.385 . S
C633 C634 1.389 . S
C634 C633 1.389 . S
C634 C635 1.387 . S
C635 H620 0.930 . S
C635 C630 1.390 . S
C635 C634 1.387 . S
H636 C648 0.930 . S
H637 C650 0.930 . S
H638 C651 0.930 . S
H639 C655 0.959 . S
H640 C655 0.959 . S
H641 C655 0.961 . S
H642 C656 0.960 . S
H643 C656 0.961 . S
H644 C656 0.959 . S
H645 C659 0.929 . S
H646 C660 0.931 . S
H647 C662 0.930 . S
C648 H636 0.930 . S
C648 C649 1.399 . S
C648 C653 1.399 . S
C649 C648 1.399 . S
C649 C650 1.376 . S
C650 H637 0.930 . S
C650 C649 1.376 . S
C650 C651 1.388 . S
C651 H638 0.930 . S
C651 C650 1.388 . S
C651 C652 1.390 . S
C652 C651 1.390 . S
C652 C653 1.394 . S
C652 C658 1.465 . S
C653 C648 1.399 . S
C653 C652 1.394 . S
C653 C654 1.516 . S
C654 C653 1.516 . S
C654 C655 1.502 . S
C654 C656 1.561 . S
C654 C657 1.526 . S
C655 H639 0.959 . S
C655 H640 0.959 . S
C655 H641 0.961 . S
C655 C654 1.502 . S
C656 H642 0.960 . S
C656 H643 0.961 . S
C656 H644 0.959 . S
C656 C654 1.561 . S
C657 C654 1.526 . S
C657 C658 1.396 . S
C657 C662 1.390 . S
C658 C652 1.465 . S
C658 C657 1.396 . S
C658 C659 1.399 . S
C659 H645 0.929 . S
C659 C658 1.399 . S
C659 C660 1.385 . S
C660 H646 0.931 . S
C660 C659 1.385 . S
C660 C661 1.389 . S
C661 C660 1.389 . S
C661 C662 1.387 . S
C662 H647 0.930 . S
C662 C657 1.390 . S
C662 C661 1.387 . S
H663 C675 0.930 . S
H664 C677 0.930 . S
H665 C678 0.930 . S
H666 C682 0.959 . S
H667 C682 0.959 . S
H668 C682 0.961 . S
H669 C683 0.960 . S
H670 C683 0.961 . S
H671 C683 0.959 . S
H672 C686 0.929 . S
H673 C687 0.931 . S
H674 C689 0.930 . S
C675 H663 0.930 . S
C675 C676 1.399 . S
C675 C680 1.399 . S
C676 C675 1.399 . S
C676 C677 1.376 . S
C677 H664 0.930 . S
C677 C676 1.376 . S
C677 C678 1.388 . S
C678 H665 0.930 . S
C678 C677 1.388 . S
C678 C679 1.390 . S
C679 C678 1.390 . S
C679 C680 1.394 . S
C679 C685 1.465 . S
C680 C675 1.399 . S
C680 C679 1.394 . S
C680 C681 1.516 . S
C681 C680 1.516 . S
C681 C682 1.502 . S
C681 C683 1.561 . S
C681 C684 1.526 . S
C682 H666 0.959 . S
C682 H667 0.959 . S
C682 H668 0.961 . S
C682 C681 1.502 . S
C683 H669 0.960 . S
C683 H670 0.961 . S
C683 H671 0.959 . S
C683 C681 1.561 . S
C684 C681 1.526 . S
C684 C685 1.396 . S
C684 C689 1.390 . S
C685 C679 1.465 . S
C685 C684 1.396 . S
C685 C686 1.399 . S
C686 H672 0.929 . S
C686 C685 1.399 . S
C686 C687 1.385 . S
C687 H673 0.931 . S
C687 C686 1.385 . S
C687 C688 1.389 . S
C688 C687 1.389 . S
C688 C689 1.387 . S
C689 H674 0.930 . S
C689 C684 1.390 . S
C689 C688 1.387 . S
H690 C702 0.930 . S
H691 C704 0.930 . S
H692 C705 0.930 . S
H693 C709 0.959 . S
H694 C709 0.959 . S
H695 C709 0.961 . S
H696 C710 0.960 . S
H697 C710 0.961 . S
H698 C710 0.959 . S
H699 C713 0.929 . S
H700 C714 0.931 . S
H701 C716 0.930 . S
C702 H690 0.930 . S
C702 C703 1.399 . S
C702 C707 1.399 . S
C703 C702 1.399 . S
C703 C704 1.376 . S
C704 H691 0.930 . S
C704 C703 1.376 . S
C704 C705 1.388 . S
C705 H692 0.930 . S
C705 C704 1.388 . S
C705 C706 1.390 . S
C706 C705 1.390 . S
C706 C707 1.394 . S
C706 C712 1.465 . S
C707 C702 1.399 . S
C707 C706 1.394 . S
C707 C708 1.516 . S
C708 C707 1.516 . S
C708 C709 1.502 . S
C708 C710 1.561 . S
C708 C711 1.526 . S
C709 H693 0.959 . S
C709 H694 0.959 . S
C709 H695 0.961 . S
C709 C708 1.502 . S
C710 H696 0.960 . S
C710 H697 0.961 . S
C710 H698 0.959 . S
C710 C708 1.561 . S
C711 C708 1.526 . S
C711 C712 1.396 . S
C711 C716 1.390 . S
C712 C706 1.465 . S
C712 C711 1.396 . S
C712 C713 1.399 . S
C713 H699 0.929 . S
C713 C712 1.399 . S
C713 C714 1.385 . S
C714 H700 0.931 . S
C714 C713 1.385 . S
C714 C715 1.389 . S
C715 C714 1.389 . S
C715 C716 1.387 . S
C716 H701 0.930 . S
C716 C711 1.390 . S
C716 C715 1.387 . S
H717 C729 0.930 . S
H718 C731 0.930 . S
H719 C732 0.930 . S
H720 C736 0.959 . S
H721 C736 0.959 . S
H722 C736 0.961 . S
H723 C737 0.960 . S
H724 C737 0.961 . S
H725 C737 0.959 . S
H726 C740 0.929 . S
H727 C741 0.931 . S
H728 C743 0.930 . S
C729 H717 0.930 . S
C729 C730 1.399 . S
C729 C734 1.399 . S
C730 C729 1.399 . S
C730 C731 1.376 . S
C731 H718 0.930 . S
C731 C730 1.376 . S
C731 C732 1.388 . S
C732 H719 0.930 . S
C732 C731 1.388 . S
C732 C733 1.390 . S
C733 C732 1.390 . S
C733 C734 1.394 . S
C733 C739 1.465 . S
C734 C729 1.399 . S
C734 C733 1.394 . S
C734 C735 1.516 . S
C735 C734 1.516 . S
C735 C736 1.502 . S
C735 C737 1.561 . S
C735 C738 1.526 . S
C736 H720 0.959 . S
C736 H721 0.959 . S
C736 H722 0.961 . S
C736 C735 1.502 . S
C737 H723 0.960 . S
C737 H724 0.961 . S
C737 H725 0.959 . S
C737 C735 1.561 . S
C738 C735 1.526 . S
C738 C739 1.396 . S
C738 C743 1.390 . S
C739 C733 1.465 . S
C739 C738 1.396 . S
C739 C740 1.399 . S
C740 H726 0.929 . S
C740 C739 1.399 . S
C740 C741 1.385 . S
C741 H727 0.931 . S
C741 C740 1.385 . S
C741 C742 1.389 . S
C742 C741 1.389 . S
C742 C743 1.387 . S
C743 H728 0.930 . S
C743 C738 1.390 . S
C743 C742 1.387 . S
H744 C756 0.930 . S
H745 C758 0.930 . S
H746 C759 0.930 . S
H747 C763 0.959 . S
H748 C763 0.959 . S
H749 C763 0.961 . S
H750 C764 0.960 . S
H751 C764 0.961 . S
H752 C764 0.959 . S
H753 C767 0.929 . S
H754 C768 0.931 . S
H755 C770 0.930 . S
C756 H744 0.930 . S
C756 C757 1.399 . S
C756 C761 1.399 . S
C757 C756 1.399 . S
C757 C758 1.376 . S
C758 H745 0.930 . S
C758 C757 1.376 . S
C758 C759 1.388 . S
C759 H746 0.930 . S
C759 C758 1.388 . S
C759 C760 1.390 . S
C760 C759 1.390 . S
C760 C761 1.394 . S
C760 C766 1.465 . S
C761 C756 1.399 . S
C761 C760 1.394 . S
C761 C762 1.516 . S
C762 C761 1.516 . S
C762 C763 1.502 . S
C762 C764 1.561 . S
C762 C765 1.526 . S
C763 H747 0.959 . S
C763 H748 0.959 . S
C763 H749 0.961 . S
C763 C762 1.502 . S
C764 H750 0.960 . S
C764 H751 0.961 . S
C764 H752 0.959 . S
C764 C762 1.561 . S
C765 C762 1.526 . S
C765 C766 1.396 . S
C765 C770 1.390 . S
C766 C760 1.465 . S
C766 C765 1.396 . S
C766 C767 1.399 . S
C767 H753 0.929 . S
C767 C766 1.399 . S
C767 C768 1.385 . S
C768 H754 0.931 . S
C768 C767 1.385 . S
C768 C769 1.389 . S
C769 C768 1.389 . S
C769 C770 1.387 . S
C770 H755 0.930 . S
C770 C765 1.390 . S
C770 C769 1.387 . S
H771 C783 0.930 . S
H772 C785 0.930 . S
H773 C786 0.930 . S
H774 C790 0.959 . S
H775 C790 0.959 . S
H776 C790 0.961 . S
H777 C791 0.960 . S
H778 C791 0.961 . S
H779 C791 0.959 . S
H780 C794 0.929 . S
H781 C795 0.931 . S
H782 C797 0.930 . S
C783 H771 0.930 . S
C783 C784 1.399 . S
C783 C788 1.399 . S
C784 C783 1.399 . S
C784 C785 1.376 . S
C785 H772 0.930 . S
C785 C784 1.376 . S
C785 C786 1.388 . S
C786 H773 0.930 . S
C786 C785 1.388 . S
C786 C787 1.390 . S
C787 C786 1.390 . S
C787 C788 1.394 . S
C787 C793 1.465 . S
C788 C783 1.399 . S
C788 C787 1.394 . S
C788 C789 1.516 . S
C789 C788 1.516 . S
C789 C790 1.502 . S
C789 C791 1.561 . S
C789 C792 1.526 . S
C790 H774 0.959 . S
C790 H775 0.959 . S
C790 H776 0.961 . S
C790 C789 1.502 . S
C791 H777 0.960 . S
C791 H778 0.961 . S
C791 H779 0.959 . S
C791 C789 1.561 . S
C792 C789 1.526 . S
C792 C793 1.396 . S
C792 C797 1.390 . S
C793 C787 1.465 . S
C793 C792 1.396 . S
C793 C794 1.399 . S
C794 H780 0.929 . S
C794 C793 1.399 . S
C794 C795 1.385 . S
C795 H781 0.931 . S
C795 C794 1.385 . S
C795 C796 1.389 . S
C796 C795 1.389 . S
C796 C797 1.387 . S
C797 H782 0.930 . S
C797 C792 1.390 . S
C797 C796 1.387 . S
H798 C810 0.930 . S
H799 C812 0.930 . S
H800 C813 0.930 . S
H801 C817 0.959 . S
H802 C817 0.959 . S
H803 C817 0.961 . S
H804 C818 0.960 . S
H805 C818 0.961 . S
H806 C818 0.959 . S
H807 C821 0.929 . S
H808 C822 0.931 . S
H809 C824 0.930 . S
C810 H798 0.930 . S
C810 C811 1.399 . S
C810 C815 1.399 . S
C811 C810 1.399 . S
C811 C812 1.376 . S
C812 H799 0.930 . S
C812 C811 1.376 . S
C812 C813 1.388 . S
C813 H800 0.930 . S
C813 C812 1.388 . S
C813 C814 1.390 . S
C814 C813 1.390 . S
C814 C815 1.394 . S
C814 C820 1.465 . S
C815 C810 1.399 . S
C815 C814 1.394 . S
C815 C816 1.516 . S
C816 C815 1.516 . S
C816 C817 1.502 . S
C816 C818 1.561 . S
C816 C819 1.526 . S
C817 H801 0.959 . S
C817 H802 0.959 . S
C817 H803 0.961 . S
C817 C816 1.502 . S
C818 H804 0.960 . S
C818 H805 0.961 . S
C818 H806 0.959 . S
C818 C816 1.561 . S
C819 C816 1.526 . S
C819 C820 1.396 . S
C819 C824 1.390 . S
C820 C814 1.465 . S
C820 C819 1.396 . S
C820 C821 1.399 . S
C821 H807 0.929 . S
C821 C820 1.399 . S
C821 C822 1.385 . S
C822 H808 0.931 . S
C822 C821 1.385 . S
C822 C823 1.389 . S
C823 C822 1.389 . S
C823 C824 1.387 . S
C824 H809 0.930 . S
C824 C819 1.390 . S
C824 C823 1.387 . S
H825 C837 0.930 . S
H826 C839 0.930 . S
H827 C840 0.930 . S
H828 C844 0.959 . S
H829 C844 0.959 . S
H830 C844 0.961 . S
H831 C845 0.960 . S
H832 C845 0.961 . S
H833 C845 0.959 . S
H834 C848 0.929 . S
H835 C849 0.931 . S
H836 C851 0.930 . S
C837 H825 0.930 . S
C837 C838 1.399 . S
C837 C842 1.399 . S
C838 C837 1.399 . S
C838 C839 1.376 . S
C839 H826 0.930 . S
C839 C838 1.376 . S
C839 C840 1.388 . S
C840 H827 0.930 . S
C840 C839 1.388 . S
C840 C841 1.390 . S
C841 C840 1.390 . S
C841 C842 1.394 . S
C841 C847 1.465 . S
C842 C837 1.399 . S
C842 C841 1.394 . S
C842 C843 1.516 . S
C843 C842 1.516 . S
C843 C844 1.502 . S
C843 C845 1.561 . S
C843 C846 1.526 . S
C844 H828 0.959 . S
C844 H829 0.959 . S
C844 H830 0.961 . S
C844 C843 1.502 . S
C845 H831 0.960 . S
C845 H832 0.961 . S
C845 H833 0.959 . S
C845 C843 1.561 . S
C846 C843 1.526 . S
C846 C847 1.396 . S
C846 C851 1.390 . S
C847 C841 1.465 . S
C847 C846 1.396 . S
C847 C848 1.399 . S
C848 H834 0.929 . S
C848 C847 1.399 . S
C848 C849 1.385 . S
C849 H835 0.931 . S
C849 C848 1.385 . S
C849 C850 1.389 . S
C850 C849 1.389 . S
C850 C851 1.387 . S
C851 H836 0.930 . S
C851 C846 1.390 . S
C851 C850 1.387 . S
H852 C864 0.930 . S
H853 C866 0.930 . S
H854 C867 0.930 . S
H855 C871 0.959 . S
H856 C871 0.959 . S
H857 C871 0.961 . S
H858 C872 0.960 . S
H859 C872 0.961 . S
H860 C872 0.959 . S
H861 C875 0.929 . S
H862 C876 0.931 . S
H863 C878 0.930 . S
C864 H852 0.930 . S
C864 C865 1.399 . S
C864 C869 1.399 . S
C865 C864 1.399 . S
C865 C866 1.376 . S
C866 H853 0.930 . S
C866 C865 1.376 . S
C866 C867 1.388 . S
C867 H854 0.930 . S
C867 C866 1.388 . S
C867 C868 1.390 . S
C868 C867 1.390 . S
C868 C869 1.394 . S
C868 C874 1.465 . S
C869 C864 1.399 . S
C869 C868 1.394 . S
C869 C870 1.516 . S
C870 C869 1.516 . S
C870 C871 1.502 . S
C870 C872 1.561 . S
C870 C873 1.526 . S
C871 H855 0.959 . S
C871 H856 0.959 . S
C871 H857 0.961 . S
C871 C870 1.502 . S
C872 H858 0.960 . S
C872 H859 0.961 . S
C872 H860 0.959 . S
C872 C870 1.561 . S
C873 C870 1.526 . S
C873 C874 1.396 . S
C873 C878 1.390 . S
C874 C868 1.465 . S
C874 C873 1.396 . S
C874 C875 1.399 . S
C875 H861 0.929 . S
C875 C874 1.399 . S
C875 C876 1.385 . S
C876 H862 0.931 . S
C876 C875 1.385 . S
C876 C877 1.389 . S
C877 C876 1.389 . S
C877 C878 1.387 . S
C878 H863 0.930 . S
C878 C873 1.390 . S
C878 C877 1.387 . S
H879 C891 0.930 . S
H880 C893 0.930 . S
H881 C894 0.930 . S
H882 C898 0.959 . S
H883 C898 0.959 . S
H884 C898 0.961 . S
H885 C899 0.960 . S
H886 C899 0.961 . S
H887 C899 0.959 . S
H888 C902 0.929 . S
H889 C903 0.931 . S
H890 C905 0.930 . S
C891 H879 0.930 . S
C891 C892 1.399 . S
C891 C896 1.399 . S
C892 C891 1.399 . S
C892 C893 1.376 . S
C893 H880 0.930 . S
C893 C892 1.376 . S
C893 C894 1.388 . S
C894 H881 0.930 . S
C894 C893 1.388 . S
C894 C895 1.390 . S
C895 C894 1.390 . S
C895 C896 1.394 . S
C895 C901 1.465 . S
C896 C891 1.399 . S
C896 C895 1.394 . S
C896 C897 1.516 . S
C897 C896 1.516 . S
C897 C898 1.502 . S
C897 C899 1.561 . S
C897 C900 1.526 . S
C898 H882 0.959 . S
C898 H883 0.959 . S
C898 H884 0.961 . S
C898 C897 1.502 . S
C899 H885 0.960 . S
C899 H886 0.961 . S
C899 H887 0.959 . S
C899 C897 1.561 . S
C900 C897 1.526 . S
C900 C901 1.396 . S
C900 C905 1.390 . S
C901 C895 1.465 . S
C901 C900 1.396 . S
C901 C902 1.399 . S
C902 H888 0.929 . S
C902 C901 1.399 . S
C902 C903 1.385 . S
C903 H889 0.931 . S
C903 C902 1.385 . S
C903 C904 1.389 . S
C904 C903 1.389 . S
C904 C905 1.387 . S
C905 H890 0.930 . S
C905 C900 1.390 . S
C905 C904 1.387 . S
H906 C918 0.930 . S
H907 C920 0.930 . S
H908 C921 0.930 . S
H909 C925 0.959 . S
H910 C925 0.959 . S
H911 C925 0.961 . S
H912 C926 0.960 . S
H913 C926 0.961 . S
H914 C926 0.959 . S
H915 C929 0.929 . S
H916 C930 0.931 . S
H917 C932 0.930 . S
C918 H906 0.930 . S
C918 C919 1.399 . S
C918 C923 1.399 . S
C919 C918 1.399 . S
C919 C920 1.376 . S
C920 H907 0.930 . S
C920 C919 1.376 . S
C920 C921 1.388 . S
C921 H908 0.930 . S
C921 C920 1.388 . S
C921 C922 1.390 . S
C922 C921 1.390 . S
C922 C923 1.394 . S
C922 C928 1.465 . S
C923 C918 1.399 . S
C923 C922 1.394 . S
C923 C924 1.516 . S
C924 C923 1.516 . S
C924 C925 1.502 . S
C924 C926 1.561 . S
C924 C927 1.526 . S
C925 H909 0.959 . S
C925 H910 0.959 . S
C925 H911 0.961 . S
C925 C924 1.502 . S
C926 H912 0.960 . S
C926 H913 0.961 . S
C926 H914 0.959 . S
C926 C924 1.561 . S
C927 C924 1.526 . S
C927 C928 1.396 . S
C927 C932 1.390 . S
C928 C922 1.465 . S
C928 C927 1.396 . S
C928 C929 1.399 . S
C929 H915 0.929 . S
C929 C928 1.399 . S
C929 C930 1.385 . S
C930 H916 0.931 . S
C930 C929 1.385 . S
C930 C931 1.389 . S
C931 C930 1.389 . S
C931 C932 1.387 . S
C932 H917 0.930 . S
C932 C927 1.390 . S
C932 C931 1.387 . S
H933 C945 0.930 . S
H934 C947 0.930 . S
H935 C948 0.930 . S
H936 C952 0.959 . S
H937 C952 0.959 . S
H938 C952 0.961 . S
H939 C953 0.960 . S
H940 C953 0.961 . S
H941 C953 0.959 . S
H942 C956 0.929 . S
H943 C957 0.931 . S
H944 C959 0.930 . S
C945 H933 0.930 . S
C945 C946 1.399 . S
C945 C950 1.399 . S
C946 C945 1.399 . S
C946 C947 1.376 . S
C947 H934 0.930 . S
C947 C946 1.376 . S
C947 C948 1.388 . S
C948 H935 0.930 . S
C948 C947 1.388 . S
C948 C949 1.390 . S
C949 C948 1.390 . S
C949 C950 1.394 . S
C949 C955 1.465 . S
C950 C945 1.399 . S
C950 C949 1.394 . S
C950 C951 1.516 . S
C951 C950 1.516 . S
C951 C952 1.502 . S
C951 C953 1.561 . S
C951 C954 1.526 . S
C952 H936 0.959 . S
C952 H937 0.959 . S
C952 H938 0.961 . S
C952 C951 1.502 . S
C953 H939 0.960 . S
C953 H940 0.961 . S
C953 H941 0.959 . S
C953 C951 1.561 . S
C954 C951 1.526 . S
C954 C955 1.396 . S
C954 C959 1.390 . S
C955 C949 1.465 . S
C955 C954 1.396 . S
C955 C956 1.399 . S
C956 H942 0.929 . S
C956 C955 1.399 . S
C956 C957 1.385 . S
C957 H943 0.931 . S
C957 C956 1.385 . S
C957 C958 1.389 . S
C958 C957 1.389 . S
C958 C959 1.387 . S
C959 H944 0.930 . S
C959 C954 1.390 . S
C959 C958 1.387 . S
H960 C972 0.930 . S
H961 C974 0.930 . S
H962 C975 0.930 . S
H963 C979 0.959 . S
H964 C979 0.959 . S
H965 C979 0.961 . S
H966 C980 0.960 . S
H967 C980 0.961 . S
H968 C980 0.959 . S
H969 C983 0.929 . S
H970 C984 0.931 . S
H971 C986 0.930 . S
C972 H960 0.930 . S
C972 C973 1.399 . S
C972 C977 1.399 . S
C973 C972 1.399 . S
C973 C974 1.376 . S
C974 H961 0.930 . S
C974 C973 1.376 . S
C974 C975 1.388 . S
C975 H962 0.930 . S
C975 C974 1.388 . S
C975 C976 1.390 . S
C976 C975 1.390 . S
C976 C977 1.394 . S
C976 C982 1.465 . S
C977 C972 1.399 . S
C977 C976 1.394 . S
C977 C978 1.516 . S
C978 C977 1.516 . S
C978 C979 1.502 . S
C978 C980 1.561 . S
C978 C981 1.526 . S
C979 H963 0.959 . S
C979 H964 0.959 . S
C979 H965 0.961 . S
C979 C978 1.502 . S
C980 H966 0.960 . S
C980 H967 0.961 . S
C980 H968 0.959 . S
C980 C978 1.561 . S
C981 C978 1.526 . S
C981 C982 1.396 . S
C981 C986 1.390 . S
C982 C976 1.465 . S
C982 C981 1.396 . S
C982 C983 1.399 . S
C983 H969 0.929 . S
C983 C982 1.399 . S
C983 C984 1.385 . S
C984 H970 0.931 . S
C984 C983 1.385 . S
C984 C985 1.389 . S
C985 C984 1.389 . S
C985 C986 1.387 . S
C986 H971 0.930 . S
C986 C981 1.390 . S
C986 C985 1.387 . S
H987 C999 0.930 . S
H988 C1001 0.930 . S
H989 C1002 0.930 . S
H990 C1006 0.959 . S
H991 C1006 0.959 . S
H992 C1006 0.961 . S
H993 C1007 0.960 . S
H994 C1007 0.961 . S
H995 C1007 0.959 . S
H996 C1010 0.929 . S
H997 C1011 0.931 . S
H998 C1013 0.930 . S
C999 H987 0.930 . S
C999 C1000 1.399 . S
C999 C1004 1.399 . S
C1000 C999 1.399 . S
C1000 C1001 1.376 . S
C1001 H988 0.930 . S
C1001 C1000 1.376 . S
C1001 C1002 1.388 . S
C1002 H989 0.930 . S
C1002 C1001 1.388 . S
C1002 C1003 1.390 . S
C1003 C1002 1.390 . S
C1003 C1004 1.394 . S
C1003 C1009 1.465 . S
C1004 C999 1.399 . S
C1004 C1003 1.394 . S
C1004 C1005 1.516 . S
C1005 C1004 1.516 . S
C1005 C1006 1.502 . S
C1005 C1007 1.561 . S
C1005 C1008 1.526 . S
C1006 H990 0.959 . S
C1006 H991 0.959 . S
C1006 H992 0.961 . S
C1006 C1005 1.502 . S
C1007 H993 0.960 . S
C1007 H994 0.961 . S
C1007 H995 0.959 . S
C1007 C1005 1.561 . S
C1008 C1005 1.526 . S
C1008 C1009 1.396 . S
C1008 C1013 1.390 . S
C1009 C1003 1.465 . S
C1009 C1008 1.396 . S
C1009 C1010 1.399 . S
C1010 H996 0.929 . S
C1010 C1009 1.399 . S
C1010 C1011 1.385 . S
C1011 H997 0.931 . S
C1011 C1010 1.385 . S
C1011 C1012 1.389 . S
C1012 C1011 1.389 . S
C1012 C1013 1.387 . S
C1013 H998 0.930 . S
C1013 C1008 1.390 . S
C1013 C1012 1.387 . S
H1014 C1026 0.930 . S
H1015 C1028 0.930 . S
H1016 C1029 0.930 . S
H1017 C1033 0.959 . S
H1018 C1033 0.959 . S
H1019 C1033 0.961 . S
H1020 C1034 0.960 . S
H1021 C1034 0.961 . S
H1022 C1034 0.959 . S
H1023 C1037 0.929 . S
H1024 C1038 0.931 . S
H1025 C1040 0.930 . S
C1026 H1014 0.930 . S
C1026 C1027 1.399 . S
C1026 C1031 1.399 . S
C1027 C1026 1.399 . S
C1027 C1028 1.376 . S
C1028 H1015 0.930 . S
C1028 C1027 1.376 . S
C1028 C1029 1.388 . S
C1029 H1016 0.930 . S
C1029 C1028 1.388 . S
C1029 C1030 1.390 . S
C1030 C1029 1.390 . S
C1030 C1031 1.394 . S
C1030 C1036 1.465 . S
C1031 C1026 1.399 . S
C1031 C1030 1.394 . S
C1031 C1032 1.516 . S
C1032 C1031 1.516 . S
C1032 C1033 1.502 . S
C1032 C1034 1.561 . S
C1032 C1035 1.526 . S
C1033 H1017 0.959 . S
C1033 H1018 0.959 . S
C1033 H1019 0.961 . S
C1033 C1032 1.502 . S
C1034 H1020 0.960 . S
C1034 H1021 0.961 . S
C1034 H1022 0.959 . S
C1034 C1032 1.561 . S
C1035 C1032 1.526 . S
C1035 C1036 1.396 . S
C1035 C1040 1.390 . S
C1036 C1030 1.465 . S
C1036 C1035 1.396 . S
C1036 C1037 1.399 . S
C1037 H1023 0.929 . S
C1037 C1036 1.399 . S
C1037 C1038 1.385 . S
C1038 H1024 0.931 . S
C1038 C1037 1.385 . S
C1038 C1039 1.389 . S
C1039 C1038 1.389 . S
C1039 C1040 1.387 . S
C1040 H1025 0.930 . S
C1040 C1035 1.390 . S
C1040 C1039 1.387 . S
H1041 C1053 0.930 . S
H1042 C1055 0.930 . S
H1043 C1056 0.930 . S
H1044 C1060 0.959 . S
H1045 C1060 0.959 . S
H1046 C1060 0.961 . S
H1047 C1061 0.960 . S
H1048 C1061 0.961 . S
H1049 C1061 0.959 . S
H1050 C1064 0.929 . S
H1051 C1065 0.931 . S
H1052 C1067 0.930 . S
C1053 H1041 0.930 . S
C1053 C1054 1.399 . S
C1053 C1058 1.399 . S
C1054 C1053 1.399 . S
C1054 C1055 1.376 . S
C1055 H1042 0.930 . S
C1055 C1054 1.376 . S
C1055 C1056 1.388 . S
C1056 H1043 0.930 . S
C1056 C1055 1.388 . S
C1056 C1057 1.390 . S
C1057 C1056 1.390 . S
C1057 C1058 1.394 . S
C1057 C1063 1.465 . S
C1058 C1053 1.399 . S
C1058 C1057 1.394 . S
C1058 C1059 1.516 . S
C1059 C1058 1.516 . S
C1059 C1060 1.502 . S
C1059 C1061 1.561 . S
C1059 C1062 1.526 . S
C1060 H1044 0.959 . S
C1060 H1045 0.959 . S
C1060 H1046 0.961 . S
C1060 C1059 1.502 . S
C1061 H1047 0.960 . S
C1061 H1048 0.961 . S
C1061 H1049 0.959 . S
C1061 C1059 1.561 . S
C1062 C1059 1.526 . S
C1062 C1063 1.396 . S
C1062 C1067 1.390 . S
C1063 C1057 1.465 . S
C1063 C1062 1.396 . S
C1063 C1064 1.399 . S
C1064 H1050 0.929 . S
C1064 C1063 1.399 . S
C1064 C1065 1.385 . S
C1065 H1051 0.931 . S
C1065 C1064 1.385 . S
C1065 C1066 1.389 . S
C1066 C1065 1.389 . S
C1066 C1067 1.387 . S
C1067 H1052 0.930 . S
C1067 C1062 1.390 . S
C1067 C1066 1.387 . S
H1068 C1080 0.930 . S
H1069 C1082 0.930 . S
H1070 C1083 0.930 . S
H1071 C1087 0.959 . S
H1072 C1087 0.959 . S
H1073 C1087 0.961 . S
H1074 C1088 0.960 . S
H1075 C1088 0.961 . S
H1076 C1088 0.959 . S
H1077 C1091 0.929 . S
H1078 C1092 0.931 . S
H1079 C1094 0.930 . S
C1080 H1068 0.930 . S
C1080 C1081 1.399 . S
C1080 C1085 1.399 . S
C1081 C1080 1.399 . S
C1081 C1082 1.376 . S
C1082 H1069 0.930 . S
C1082 C1081 1.376 . S
C1082 C1083 1.388 . S
C1083 H1070 0.930 . S
C1083 C1082 1.388 . S
C1083 C1084 1.390 . S
C1084 C1083 1.390 . S
C1084 C1085 1.394 . S
C1084 C1090 1.465 . S
C1085 C1080 1.399 . S
C1085 C1084 1.394 . S
C1085 C1086 1.516 . S
C1086 C1085 1.516 . S
C1086 C1087 1.502 . S
C1086 C1088 1.561 . S
C1086 C1089 1.526 . S
C1087 H1071 0.959 . S
C1087 H1072 0.959 . S
C1087 H1073 0.961 . S
C1087 C1086 1.502 . S
C1088 H1074 0.960 . S
C1088 H1075 0.961 . S
C1088 H1076 0.959 . S
C1088 C1086 1.561 . S
C1089 C1086 1.526 . S
C1089 C1090 1.396 . S
C1089 C1094 1.390 . S
C1090 C1084 1.465 . S
C1090 C1089 1.396 . S
C1090 C1091 1.399 . S
C1091 H1077 0.929 . S
C1091 C1090 1.399 . S
C1091 C1092 1.385 . S
C1092 H1078 0.931 . S
C1092 C1091 1.385 . S
C1092 C1093 1.389 . S
C1093 C1092 1.389 . S
C1093 C1094 1.387 . S
C1094 H1079 0.930 . S
C1094 C1089 1.390 . S
C1094 C1093 1.387 . S
H1095 C1107 0.930 . S
H1096 C1109 0.930 . S
H1097 C1110 0.930 . S
H1098 C1114 0.959 . S
H1099 C1114 0.959 . S
H1100 C1114 0.961 . S
H1101 C1115 0.960 . S
H1102 C1115 0.961 . S
H1103 C1115 0.959 . S
H1104 C1118 0.929 . S
H1105 C1119 0.931 . S
H1106 C1121 0.930 . S
C1107 H1095 0.930 . S
C1107 C1108 1.399 . S
C1107 C1112 1.399 . S
C1108 C1107 1.399 . S
C1108 C1109 1.376 . S
C1109 H1096 0.930 . S
C1109 C1108 1.376 . S
C1109 C1110 1.388 . S
C1110 H1097 0.930 . S
C1110 C1109 1.388 . S
C1110 C1111 1.390 . S
C1111 C1110 1.390 . S
C1111 C1112 1.394 . S
C1111 C1117 1.465 . S
C1112 C1107 1.399 . S
C1112 C1111 1.394 . S
C1112 C1113 1.516 . S
C1113 C1112 1.516 . S
C1113 C1114 1.502 . S
C1113 C1115 1.561 . S
C1113 C1116 1.526 . S
C1114 H1098 0.959 . S
C1114 H1099 0.959 . S
C1114 H1100 0.961 . S
C1114 C1113 1.502 . S
C1115 H1101 0.960 . S
C1115 H1102 0.961 . S
C1115 H1103 0.959 . S
C1115 C1113 1.561 . S
C1116 C1113 1.526 . S
C1116 C1117 1.396 . S
C1116 C1121 1.390 . S
C1117 C1111 1.465 . S
C1117 C1116 1.396 . S
C1117 C1118 1.399 . S
C1118 H1104 0.929 . S
C1118 C1117 1.399 . S
C1118 C1119 1.385 . S
C1119 H1105 0.931 . S
C1119 C1118 1.385 . S
C1119 C1120 1.389 . S
C1120 C1119 1.389 . S
C1120 C1121 1.387 . S
C1121 H1106 0.930 . S
C1121 C1116 1.390 . S
C1121 C1120 1.387 . S
H1122 C1134 0.930 . S
H1123 C1136 0.930 . S
H1124 C1137 0.930 . S
H1125 C1141 0.959 . S
H1126 C1141 0.959 . S
H1127 C1141 0.961 . S
H1128 C1142 0.960 . S
H1129 C1142 0.961 . S
H1130 C1142 0.959 . S
H1131 C1145 0.929 . S
H1132 C1146 0.931 . S
H1133 C1148 0.930 . S
C1134 H1122 0.930 . S
C1134 C1135 1.399 . S
C1134 C1139 1.399 . S
C1135 C1134 1.399 . S
C1135 C1136 1.376 . S
C1136 H1123 0.930 . S
C1136 C1135 1.376 . S
C1136 C1137 1.388 . S
C1137 H1124 0.930 . S
C1137 C1136 1.388 . S
C1137 C1138 1.390 . S
C1138 C1137 1.390 . S
C1138 C1139 1.394 . S
C1138 C1144 1.465 . S
C1139 C1134 1.399 . S
C1139 C1138 1.394 . S
C1139 C1140 1.516 . S
C1140 C1139 1.516 . S
C1140 C1141 1.502 . S
C1140 C1142 1.561 . S
C1140 C1143 1.526 . S
C1141 H1125 0.959 . S
C1141 H1126 0.959 . S
C1141 H1127 0.961 . S
C1141 C1140 1.502 . S
C1142 H1128 0.960 . S
C1142 H1129 0.961 . S
C1142 H1130 0.959 . S
C1142 C1140 1.561 . S
C1143 C1140 1.526 . S
C1143 C1144 1.396 . S
C1143 C1148 1.390 . S
C1144 C1138 1.465 . S
C1144 C1143 1.396 . S
C1144 C1145 1.399 . S
C1145 H1131 0.929 . S
C1145 C1144 1.399 . S
C1145 C1146 1.385 . S
C1146 H1132 0.931 . S
C1146 C1145 1.385 . S
C1146 C1147 1.389 . S
C1147 C1146 1.389 . S
C1147 C1148 1.387 . S
C1148 H1133 0.930 . S
C1148 C1143 1.390 . S
C1148 C1147 1.387 . S
H1149 C1161 0.930 . S
H1150 C1163 0.930 . S
H1151 C1164 0.930 . S
H1152 C1168 0.959 . S
H1153 C1168 0.959 . S
H1154 C1168 0.961 . S
H1155 C1169 0.960 . S
H1156 C1169 0.961 . S
H1157 C1169 0.959 . S
H1158 C1172 0.929 . S
H1159 C1173 0.931 . S
H1160 C1175 0.930 . S
C1161 H1149 0.930 . S
C1161 C1162 1.399 . S
C1161 C1166 1.399 . S
C1162 C1161 1.399 . S
C1162 C1163 1.376 . S
C1163 H1150 0.930 . S
C1163 C1162 1.376 . S
C1163 C1164 1.388 . S
C1164 H1151 0.930 . S
C1164 C1163 1.388 . S
C1164 C1165 1.390 . S
C1165 C1164 1.390 . S
C1165 C1166 1.394 . S
C1165 C1171 1.465 . S
C1166 C1161 1.399 . S
C1166 C1165 1.394 . S
C1166 C1167 1.516 . S
C1167 C1166 1.516 . S
C1167 C1168 1.502 . S
C1167 C1169 1.561 . S
C1167 C1170 1.526 . S
C1168 H1152 0.959 . S
C1168 H1153 0.959 . S
C1168 H1154 0.961 . S
C1168 C1167 1.502 . S
C1169 H1155 0.960 . S
C1169 H1156 0.961 . S
C1169 H1157 0.959 . S
C1169 C1167 1.561 . S
C1170 C1167 1.526 . S
C1170 C1171 1.396 . S
C1170 C1175 1.390 . S
C1171 C1165 1.465 . S
C1171 C1170 1.396 . S
C1171 C1172 1.399 . S
C1172 H1158 0.929 . S
C1172 C1171 1.399 . S
C1172 C1173 1.385 . S
C1173 H1159 0.931 . S
C1173 C1172 1.385 . S
C1173 C1174 1.389 . S
C1174 C1173 1.389 . S
C1174 C1175 1.387 . S
C1175 H1160 0.930 . S
C1175 C1170 1.390 . S
C1175 C1174 1.387 . S
H1176 C1188 0.930 . S
H1177 C1190 0.930 . S
H1178 C1191 0.930 . S
H1179 C1195 0.959 . S
H1180 C1195 0.959 . S
H1181 C1195 0.961 . S
H1182 C1196 0.960 . S
H1183 C1196 0.961 . S
H1184 C1196 0.959 . S
H1185 C1199 0.929 . S
H1186 C1200 0.931 . S
H1187 C1202 0.930 . S
C1188 H1176 0.930 . S
C1188 C1189 1.399 . S
C1188 C1193 1.399 . S
C1189 C1188 1.399 . S
C1189 C1190 1.376 . S
C1190 H1177 0.930 . S
C1190 C1189 1.376 . S
C1190 C1191 1.388 . S
C1191 H1178 0.930 . S
C1191 C1190 1.388 . S
C1191 C1192 1.390 . S
C1192 C1191 1.390 . S
C1192 C1193 1.394 . S
C1192 C1198 1.465 . S
C1193 C1188 1.399 . S
C1193 C1192 1.394 . S
C1193 C1194 1.516 . S
C1194 C1193 1.516 . S
C1194 C1195 1.502 . S
C1194 C1196 1.561 . S
C1194 C1197 1.526 . S
C1195 H1179 0.959 . S
C1195 H1180 0.959 . S
C1195 H1181 0.961 . S
C1195 C1194 1.502 . S
C1196 H1182 0.960 . S
C1196 H1183 0.961 . S
C1196 H1184 0.959 . S
C1196 C1194 1.561 . S
C1197 C1194 1.526 . S
C1197 C1198 1.396 . S
C1197 C1202 1.390 . S
C1198 C1192 1.465 . S
C1198 C1197 1.396 . S
C1198 C1199 1.399 . S
C1199 H1185 0.929 . S
C1199 C1198 1.399 . S
C1199 C1200 1.385 . S
C1200 H1186 0.931 . S
C1200 C1199 1.385 . S
C1200 C1201 1.389 . S
C1201 C1200 1.389 . S
C1201 C1202 1.387 . S
C1202 H1187 0.930 . S
C1202 C1197 1.390 . S
C1202 C1201 1.387 . S
H1203 C1215 0.930 . S
H1204 C1217 0.930 . S
H1205 C1218 0.930 . S
H1206 C1222 0.959 . S
H1207 C1222 0.959 . S
H1208 C1222 0.961 . S
H1209 C1223 0.960 . S
H1210 C1223 0.961 . S
H1211 C1223 0.959 . S
H1212 C1226 0.929 . S
H1213 C1227 0.931 . S
H1214 C1229 0.930 . S
C1215 H1203 0.930 . S
C1215 C1216 1.399 . S
C1215 C1220 1.399 . S
C1216 C1215 1.399 . S
C1216 C1217 1.376 . S
C1217 H1204 0.930 . S
C1217 C1216 1.376 . S
C1217 C1218 1.388 . S
C1218 H1205 0.930 . S
C1218 C1217 1.388 . S
C1218 C1219 1.390 . S
C1219 C1218 1.390 . S
C1219 C1220 1.394 . S
C1219 C1225 1.465 . S
C1220 C1215 1.399 . S
C1220 C1219 1.394 . S
C1220 C1221 1.516 . S
C1221 C1220 1.516 . S
C1221 C1222 1.502 . S
C1221 C1223 1.561 . S
C1221 C1224 1.526 . S
C1222 H1206 0.959 . S
C1222 H1207 0.959 . S
C1222 H1208 0.961 . S
C1222 C1221 1.502 . S
C1223 H1209 0.960 . S
C1223 H1210 0.961 . S
C1223 H1211 0.959 . S
C1223 C1221 1.561 . S
C1224 C1221 1.526 . S
C1224 C1225 1.396 . S
C1224 C1229 1.390 . S
C1225 C1219 1.465 . S
C1225 C1224 1.396 . S
C1225 C1226 1.399 . S
C1226 H1212 0.929 . S
C1226 C1225 1.399 . S
C1226 C1227 1.385 . S
C1227 H1213 0.931 . S
C1227 C1226 1.385 . S
C1227 C1228 1.389 . S
C1228 C1227 1.389 . S
C1228 C1229 1.387 . S
C1229 H1214 0.930 . S
C1229 C1224 1.390 . S
C1229 C1228 1.387 . S
H1230 C1242 0.930 . S
H1231 C1244 0.930 . S
H1232 C1245 0.930 . S
H1233 C1249 0.959 . S
H1234 C1249 0.959 . S
H1235 C1249 0.961 . S
H1236 C1250 0.960 . S
H1237 C1250 0.961 . S
H1238 C1250 0.959 . S
H1239 C1253 0.929 . S
H1240 C1254 0.931 . S
H1241 C1256 0.930 . S
C1242 H1230 0.930 . S
C1242 C1243 1.399 . S
C1242 C1247 1.399 . S
C1243 C1242 1.399 . S
C1243 C1244 1.376 . S
C1244 H1231 0.930 . S
C1244 C1243 1.376 . S
C1244 C1245 1.388 . S
C1245 H1232 0.930 . S
C1245 C1244 1.388 . S
C1245 C1246 1.390 . S
C1246 C1245 1.390 . S
C1246 C1247 1.394 . S
C1246 C1252 1.465 . S
C1247 C1242 1.399 . S
C1247 C1246 1.394 . S
C1247 C1248 1.516 . S
C1248 C1247 1.516 . S
C1248 C1249 1.502 . S
C1248 C1250 1.561 . S
C1248 C1251 1.526 . S
C1249 H1233 0.959 . S
C1249 H1234 0.959 . S
C1249 H1235 0.961 . S
C1249 C1248 1.502 . S
C1250 H1236 0.960 . S
C1250 H1237 0.961 . S
C1250 H1238 0.959 . S
C1250 C1248 1.561 . S
C1251 C1248 1.526 . S
C1251 C1252 1.396 . S
C1251 C1256 1.390 . S
C1252 C1246 1.465 . S
C1252 C1251 1.396 . S
C1252 C1253 1.399 . S
C1253 H1239 0.929 . S
C1253 C1252 1.399 . S
C1253 C1254 1.385 . S
C1254 H1240 0.931 . S
C1254 C1253 1.385 . S
C1254 C1255 1.389 . S
C1255 C1254 1.389 . S
C1255 C1256 1.387 . S
C1256 H1241 0.930 . S
C1256 C1251 1.390 . S
C1256 C1255 1.387 . S
H1257 C1269 0.930 . S
H1258 C1271 0.930 . S
H1259 C1272 0.930 . S
H1260 C1276 0.959 . S
H1261 C1276 0.959 . S
H1262 C1276 0.961 . S
H1263 C1277 0.960 . S
H1264 C1277 0.961 . S
H1265 C1277 0.959 . S
H1266 C1280 0.929 . S
H1267 C1281 0.931 . S
H1268 C1283 0.930 . S
C1269 H1257 0.930 . S
C1269 C1270 1.399 . S
C1269 C1274 1.399 . S
C1270 C1269 1.399 . S
C1270 C1271 1.376 . S
C1271 H1258 0.930 . S
C1271 C1270 1.376 . S
C1271 C1272 1.388 . S
C1272 H1259 0.930 . S
C1272 C1271 1.388 . S
C1272 C1273 1.390 . S
C1273 C1272 1.390 . S
C1273 C1274 1.394 . S
C1273 C1279 1.465 . S
C1274 C1269 1.399 . S
C1274 C1273 1.394 . S
C1274 C1275 1.516 . S
C1275 C1274 1.516 . S
C1275 C1276 1.502 . S
C1275 C1277 1.561 . S
C1275 C1278 1.526 . S
C1276 H1260 0.959 . S
C1276 H1261 0.959 . S
C1276 H1262 0.961 . S
C1276 C1275 1.502 . S
C1277 H1263 0.960 . S
C1277 H1264 0.961 . S
C1277 H1265 0.959 . S
C1277 C1275 1.561 . S
C1278 C1275 1.526 . S
C1278 C1279 1.396 . S
C1278 C1283 1.390 . S
C1279 C1273 1.465 . S
C1279 C1278 1.396 . S
C1279 C1280 1.399 . S
C1280 H1266 0.929 . S
C1280 C1279 1.399 . S
C1280 C1281 1.385 . S
C1281 H1267 0.931 . S
C1281 C1280 1.385 . S
C1281 C1282 1.389 . S
C1282 C1281 1.389 . S
C1282 C1283 1.387 . S
C1283 H1268 0.930 . S
C1283 C1278 1.390 . S
C1283 C1282 1.387 . S
H1284 C1296 0.930 . S
H1285 C1298 0.930 . S
H1286 C1299 0.930 . S
H1287 C1303 0.959 . S
H1288 C1303 0.959 . S
H1289 C1303 0.961 . S
H1290 C1304 0.960 . S
H1291 C1304 0.961 . S
H1292 C1304 0.959 . S
H1293 C1307 0.929 . S
H1294 C1308 0.931 . S
H1295 C1310 0.930 . S
C1296 H1284 0.930 . S
C1296 C1297 1.399 . S
C1296 C1301 1.399 . S
C1297 C1296 1.399 . S
C1297 C1298 1.376 . S
C1298 H1285 0.930 . S
C1298 C1297 1.376 . S
C1298 C1299 1.388 . S
C1299 H1286 0.930 . S
C1299 C1298 1.388 . S
C1299 C1300 1.390 . S
C1300 C1299 1.390 . S
C1300 C1301 1.394 . S
C1300 C1306 1.465 . S
C1301 C1296 1.399 . S
C1301 C1300 1.394 . S
C1301 C1302 1.516 . S
C1302 C1301 1.516 . S
C1302 C1303 1.502 . S
C1302 C1304 1.561 . S
C1302 C1305 1.526 . S
C1303 H1287 0.959 . S
C1303 H1288 0.959 . S
C1303 H1289 0.961 . S
C1303 C1302 1.502 . S
C1304 H1290 0.960 . S
C1304 H1291 0.961 . S
C1304 H1292 0.959 . S
C1304 C1302 1.561 . S
C1305 C1302 1.526 . S
C1305 C1306 1.396 . S
C1305 C1310 1.390 . S
C1306 C1300 1.465 . S
C1306 C1305 1.396 . S
C1306 C1307 1.399 . S
C1307 H1293 0.929 . S
C1307 C1306 1.399 . S
C1307 C1308 1.385 . S
C1308 H1294 0.931 . S
C1308 C1307 1.385 . S
C1308 C1309 1.389 . S
C1309 C1308 1.389 . S
C1309 C1310 1.387 . S
C1310 H1295 0.930 . S
C1310 C1305 1.390 . S
C1310 C1309 1.387 . S
H1311 C1323 0.930 . S
H1312 C1325 0.930 . S
H1313 C1326 0.930 . S
H1314 C1330 0.959 . S
H1315 C1330 0.959 . S
H1316 C1330 0.961 . S
H1317 C1331 0.960 . S
H1318 C1331 0.961 . S
H1319 C1331 0.959 . S
H1320 C1334 0.929 . S
H1321 C1335 0.931 . S
H1322 C1337 0.930 . S
C1323 H1311 0.930 . S
C1323 C1324 1.399 . S
C1323 C1328 1.399 . S
C1324 C1323 1.399 . S
C1324 C1325 1.376 . S
C1325 H1312 0.930 . S
C1325 C1324 1.376 . S
C1325 C1326 1.388 . S
C1326 H1313 0.930 . S
C1326 C1325 1.388 . S
C1326 C1327 1.390 . S
C1327 C1326 1.390 . S
C1327 C1328 1.394 . S
C1327 C1333 1.465 . S
C1328 C1323 1.399 . S
C1328 C1327 1.394 . S
C1328 C1329 1.516 . S
C1329 C1328 1.516 . S
C1329 C1330 1.502 . S
C1329 C1331 1.561 . S
C1329 C1332 1.526 . S
C1330 H1314 0.959 . S
C1330 H1315 0.959 . S
C1330 H1316 0.961 . S
C1330 C1329 1.502 . S
C1331 H1317 0.960 . S
C1331 H1318 0.961 . S
C1331 H1319 0.959 . S
C1331 C1329 1.561 . S
C1332 C1329 1.526 . S
C1332 C1333 1.396 . S
C1332 C1337 1.390 . S
C1333 C1327 1.465 . S
C1333 C1332 1.396 . S
C1333 C1334 1.399 . S
C1334 H1320 0.929 . S
C1334 C1333 1.399 . S
C1334 C1335 1.385 . S
C1335 H1321 0.931 . S
C1335 C1334 1.385 . S
C1335 C1336 1.389 . S
C1336 C1335 1.389 . S
C1336 C1337 1.387 . S
C1337 H1322 0.930 . S
C1337 C1332 1.390 . S
C1337 C1336 1.387 . S
H1338 C1350 0.930 . S
H1339 C1352 0.930 . S
H1340 C1353 0.930 . S
H1341 C1357 0.959 . S
H1342 C1357 0.959 . S
H1343 C1357 0.961 . S
H1344 C1358 0.960 . S
H1345 C1358 0.961 . S
H1346 C1358 0.959 . S
H1347 C1361 0.929 . S
H1348 C1362 0.931 . S
H1349 C1364 0.930 . S
C1350 H1338 0.930 . S
C1350 C1351 1.399 . S
C1350 C1355 1.399 . S
C1351 C1350 1.399 . S
C1351 C1352 1.376 . S
C1352 H1339 0.930 . S
C1352 C1351 1.376 . S
C1352 C1353 1.388 . S
C1353 H1340 0.930 . S
C1353 C1352 1.388 . S
C1353 C1354 1.390 . S
C1354 C1353 1.390 . S
C1354 C1355 1.394 . S
C1354 C1360 1.465 . S
C1355 C1350 1.399 . S
C1355 C1354 1.394 . S
C1355 C1356 1.516 . S
C1356 C1355 1.516 . S
C1356 C1357 1.502 . S
C1356 C1358 1.561 . S
C1356 C1359 1.526 . S
C1357 H1341 0.959 . S
C1357 H1342 0.959 . S
C1357 H1343 0.961 . S
C1357 C1356 1.502 . S
C1358 H1344 0.960 . S
C1358 H1345 0.961 . S
C1358 H1346 0.959 . S
C1358 C1356 1.561 . S
C1359 C1356 1.526 . S
C1359 C1360 1.396 . S
C1359 C1364 1.390 . S
C1360 C1354 1.465 . S
C1360 C1359 1.396 . S
C1360 C1361 1.399 . S
C1361 H1347 0.929 . S
C1361 C1360 1.399 . S
C1361 C1362 1.385 . S
C1362 H1348 0.931 . S
C1362 C1361 1.385 . S
C1362 C1363 1.389 . S
C1363 C1362 1.389 . S
C1363 C1364 1.387 . S
C1364 H1349 0.930 . S
C1364 C1359 1.390 . S
C1364 C1363 1.387 . S
H1365 C1377 0.930 . S
H1366 C1379 0.930 . S
H1367 C1380 0.930 . S
H1368 C1384 0.959 . S
H1369 C1384 0.959 . S
H1370 C1384 0.961 . S
H1371 C1385 0.960 . S
H1372 C1385 0.961 . S
H1373 C1385 0.959 . S
H1374 C1388 0.929 . S
H1375 C1389 0.931 . S
H1376 C1391 0.930 . S
C1377 H1365 0.930 . S
C1377 C1378 1.399 . S
C1377 C1382 1.399 . S
C1378 C1377 1.399 . S
C1378 C1379 1.376 . S
C1379 H1366 0.930 . S
C1379 C1378 1.376 . S
C1379 C1380 1.388 . S
C1380 H1367 0.930 . S
C1380 C1379 1.388 . S
C1380 C1381 1.390 . S
C1381 C1380 1.390 . S
C1381 C1382 1.394 . S
C1381 C1387 1.465 . S
C1382 C1377 1.399 . S
C1382 C1381 1.394 . S
C1382 C1383 1.516 . S
C1383 C1382 1.516 . S
C1383 C1384 1.502 . S
C1383 C1385 1.561 . S
C1383 C1386 1.526 . S
C1384 H1368 0.959 . S
C1384 H1369 0.959 . S
C1384 H1370 0.961 . S
C1384 C1383 1.502 . S
C1385 H1371 0.960 . S
C1385 H1372 0.961 . S
C1385 H1373 0.959 . S
C1385 C1383 1.561 . S
C1386 C1383 1.526 . S
C1386 C1387 1.396 . S
C1386 C1391 1.390 . S
C1387 C1381 1.465 . S
C1387 C1386 1.396 . S
C1387 C1388 1.399 . S
C1388 H1374 0.929 . S
C1388 C1387 1.399 . S
C1388 C1389 1.385 . S
C1389 H1375 0.931 . S
C1389 C1388 1.385 . S
C1389 C1390 1.389 . S
C1390 C1389 1.389 . S
C1390 C1391 1.387 . S
C1391 H1376 0.930 . S
C1391 C1386 1.390 . S
C1391 C1390 1.387 . S
H1392 C1404 0.930 . S
H1393 C1406 0.930 . S
H1394 C1407 0.930 . S
H1395 C1411 0.959 . S
H1396 C1411 0.959 . S
H1397 C1411 0.961 . S
H1398 C1412 0.960 . S
H1399 C1412 0.961 . S
H1400 C1412 0.959 . S
H1401 C1415 0.929 . S
H1402 C1416 0.931 . S
H1403 C1418 0.930 . S
C1404 H1392 0.930 . S
C1404 C1405 1.399 . S
C1404 C1409 1.399 . S
C1405 C1404 1.399 . S
C1405 C1406 1.376 . S
C1406 H1393 0.930 . S
C1406 C1405 1.376 . S
C1406 C1407 1.388 1_655 S
C1407 H1394 0.930 . S
C1407 C1406 1.388 1_455 S
C1407 C1408 1.390 . S
C1408 C1407 1.390 . S
C1408 C1409 1.394 1_455 S
C1408 C1414 1.465 . S
C1409 C1404 1.399 . S
C1409 C1408 1.394 1_655 S
C1409 C1410 1.516 . S
C1410 C1409 1.516 . S
C1410 C1411 1.502 . S
C1410 C1412 1.561 1_655 S
C1410 C1413 1.526 1_655 S
C1411 H1395 0.959 . S
C1411 H1396 0.959 . S
C1411 H1397 0.961 . S
C1411 C1410 1.502 . S
C1412 H1398 0.960 . S
C1412 H1399 0.961 . S
C1412 H1400 0.959 . S
C1412 C1410 1.561 1_455 S
C1413 C1410 1.526 1_455 S
C1413 C1414 1.396 . S
C1413 C1418 1.390 . S
C1414 C1408 1.465 . S
C1414 C1413 1.396 . S
C1414 C1415 1.399 . S
C1415 H1401 0.929 . S
C1415 C1414 1.399 . S
C1415 C1416 1.385 . S
C1416 H1402 0.931 . S
C1416 C1415 1.385 . S
C1416 C1417 1.389 . S
C1417 C1416 1.389 . S
C1417 C1418 1.387 . S
C1418 H1403 0.930 . S
C1418 C1413 1.390 . S
C1418 C1417 1.387 . S
H1419 C1431 0.930 . S
H1420 C1433 0.930 . S
H1421 C1434 0.930 . S
H1422 C1438 0.959 . S
H1423 C1438 0.959 . S
H1424 C1438 0.961 . S
H1425 C1439 0.960 . S
H1426 C1439 0.961 . S
H1427 C1439 0.959 . S
H1428 C1442 0.929 1_565 S
H1429 C1443 0.931 . S
H1430 C1445 0.930 . S
C1431 H1419 0.930 . S
C1431 C1432 1.399 . S
C1431 C1436 1.399 . S
C1432 C1431 1.399 . S
C1432 C1433 1.376 . S
C1433 H1420 0.930 . S
C1433 C1432 1.376 . S
C1433 C1434 1.388 . S
C1434 H1421 0.930 . S
C1434 C1433 1.388 . S
C1434 C1435 1.390 . S
C1435 C1434 1.390 . S
C1435 C1436 1.394 . S
C1435 C1441 1.466 1_565 S
C1436 C1431 1.399 . S
C1436 C1435 1.394 . S
C1436 C1437 1.507 1_565 S
C1437 C1436 1.507 1_545 S
C1437 C1438 1.529 . S
C1437 C1439 1.534 1_545 S
C1437 C1440 1.533 . S
C1438 H1422 0.959 . S
C1438 H1423 0.959 . S
C1438 H1424 0.961 . S
C1438 C1437 1.529 . S
C1439 H1425 0.960 . S
C1439 H1426 0.961 . S
C1439 H1427 0.959 . S
C1439 C1437 1.534 1_565 S
C1440 C1437 1.533 . S
C1440 C1441 1.396 . S
C1440 C1445 1.390 . S
C1441 C1435 1.466 1_545 S
C1441 C1440 1.396 . S
C1441 C1442 1.399 . S
C1442 H1428 0.929 1_545 S
C1442 C1441 1.399 . S
C1442 C1443 1.385 . S
C1443 H1429 0.931 . S
C1443 C1442 1.385 . S
C1443 C1444 1.389 . S
C1444 C1443 1.389 . S
C1444 C1445 1.387 . S
C1445 H1430 0.930 . S
C1445 C1440 1.390 . S
C1445 C1444 1.387 . S
H1446 C1458 0.930 . S
H1447 C1460 0.930 . S
H1448 C1461 0.930 . S
H1449 C1465 0.959 . S
H1450 C1465 0.959 . S
H1451 C1465 0.961 1_545 S
H1452 C1466 0.960 . S
H1453 C1466 0.961 1_565 S
H1454 C1466 0.959 . S
H1455 C1469 0.929 . S
H1456 C1470 0.931 . S
H1457 C1472 0.930 . S
C1458 H1446 0.930 . S
C1458 C1459 1.399 . S
C1458 C1463 1.399 . S
C1459 C1458 1.399 . S
C1459 C1460 1.376 . S
C1460 H1447 0.930 . S
C1460 C1459 1.376 . S
C1460 C1461 1.388 . S
C1461 H1448 0.930 . S
C1461 C1460 1.388 . S
C1461 C1462 1.390 . S
C1462 C1461 1.390 . S
C1462 C1463 1.394 . S
C1462 C1468 1.465 1_545 S
C1463 C1458 1.399 . S
C1463 C1462 1.394 . S
C1463 C1464 1.516 1_545 S
C1464 C1463 1.516 1_565 S
C1464 C1465 1.502 . S
C1464 C1466 1.561 1_565 S
C1464 C1467 1.526 . S
C1465 H1449 0.959 . S
C1465 H1450 0.959 . S
C1465 H1451 0.961 1_565 S
C1465 C1464 1.502 . S
C1466 H1452 0.960 . S
C1466 H1453 0.961 1_545 S
C1466 H1454 0.959 . S
C1466 C1464 1.561 1_545 S
C1467 C1464 1.526 . S
C1467 C1468 1.396 . S
C1467 C1472 1.390 . S
C1468 C1462 1.465 1_565 S
C1468 C1467 1.396 . S
C1468 C1469 1.399 . S
C1469 H1455 0.929 . S
C1469 C1468 1.399 . S
C1469 C1470 1.385 . S
C1470 H1456 0.931 . S
C1470 C1469 1.385 . S
C1470 C1471 1.389 . S
C1471 C1470 1.389 . S
C1471 C1472 1.387 . S
C1472 H1457 0.930 . S
C1472 C1467 1.390 . S
C1472 C1471 1.387 . S
H1473 C1485 0.930 . S
H1474 C1487 0.930 . S
H1475 C1488 0.930 . S
H1476 C1492 0.959 . S
H1477 C1492 0.982 . S
H1478 C1492 0.961 . S
H1479 C1493 0.960 . S
H1480 C1493 0.961 1_455 S
H1481 C1493 0.959 1_455 S
H1482 C1496 0.929 . S
H1483 C1497 0.931 . S
H1484 C1499 0.930 . S
C1485 H1473 0.930 . S
C1485 C1486 1.399 . S
C1485 C1490 1.399 . S
C1486 C1485 1.399 . S
C1486 C1487 1.376 . S
C1487 H1474 0.930 . S
C1487 C1486 1.376 . S
C1487 C1488 1.388 . S
C1488 H1475 0.930 . S
C1488 C1487 1.388 . S
C1488 C1489 1.390 . S
C1489 C1488 1.390 . S
C1489 C1490 1.394 . S
C1489 C1495 1.465 1_655 S
C1490 C1485 1.399 . S
C1490 C1489 1.394 . S
C1490 C1491 1.516 . S
C1491 C1490 1.516 . S
C1491 C1492 1.502 . S
C1491 C1493 1.561 . S
C1491 C1494 1.526 1_655 S
C1492 H1476 0.959 . S
C1492 H1477 0.982 . S
C1492 H1478 0.961 . S
C1492 C1491 1.502 . S
C1493 H1479 0.960 . S
C1493 H1480 0.961 1_655 S
C1493 H1481 0.959 1_655 S
C1493 C1491 1.561 . S
C1494 C1491 1.526 1_455 S
C1494 C1495 1.396 . S
C1494 C1499 1.390 . S
C1495 C1489 1.465 1_455 S
C1495 C1494 1.396 . S
C1495 C1496 1.399 . S
C1496 H1482 0.929 . S
C1496 C1495 1.399 . S
C1496 C1497 1.385 . S
C1497 H1483 0.931 . S
C1497 C1496 1.385 . S
C1497 C1498 1.389 . S
C1498 C1497 1.389 . S
C1498 C1499 1.387 . S
C1499 H1484 0.930 . S
C1499 C1494 1.390 . S
C1499 C1498 1.387 . S
H1500 C1512 0.930 . S
H1501 C1514 0.930 . S
H1502 C1515 0.930 . S
H1503 C1519 0.959 . S
H1504 C1519 0.959 . S
H1505 C1519 0.961 . S
H1506 C1520 0.960 . S
H1507 C1520 0.961 . S
H1508 C1520 0.959 . S
H1509 C1523 0.929 . S
H1510 C1524 0.931 . S
H1511 C1526 0.930 . S
C1512 H1500 0.930 . S
C1512 C1513 1.399 . S
C1512 C1517 1.399 . S
C1513 C1512 1.399 . S
C1513 C1514 1.376 . S
C1514 H1501 0.930 . S
C1514 C1513 1.376 . S
C1514 C1515 1.388 1_655 S
C1515 H1502 0.930 . S
C1515 C1514 1.388 1_455 S
C1515 C1516 1.390 . S
C1516 C1515 1.390 . S
C1516 C1517 1.394 1_455 S
C1516 C1522 1.465 . S
C1517 C1512 1.399 . S
C1517 C1516 1.394 1_655 S
C1517 C1518 1.516 . S
C1518 C1517 1.516 . S
C1518 C1519 1.502 . S
C1518 C1520 1.561 1_655 S
C1518 C1521 1.526 1_655 S
C1519 H1503 0.959 . S
C1519 H1504 0.959 . S
C1519 H1505 0.961 . S
C1519 C1518 1.502 . S
C1520 H1506 0.960 . S
C1520 H1507 0.961 . S
C1520 H1508 0.959 . S
C1520 C1518 1.561 1_455 S
C1521 C1518 1.526 1_455 S
C1521 C1522 1.396 . S
C1521 C1526 1.390 . S
C1522 C1516 1.465 . S
C1522 C1521 1.396 . S
C1522 C1523 1.399 . S
C1523 H1509 0.929 . S
C1523 C1522 1.399 . S
C1523 C1524 1.385 . S
C1524 H1510 0.931 . S
C1524 C1523 1.385 . S
C1524 C1525 1.389 . S
C1525 C1524 1.389 . S
C1525 C1526 1.387 . S
C1526 H1511 0.930 . S
C1526 C1521 1.390 . S
C1526 C1525 1.387 . S
H1527 C1539 0.944 . S
H1528 C1541 0.930 . S
H1529 C1542 0.930 . S
H1530 C1546 0.959 . S
H1531 C1546 0.959 . S
H1532 C1546 0.961 . S
H1533 C1547 0.960 . S
H1534 C1547 0.961 1_565 S
H1535 C1547 0.959 . S
H1536 C1550 0.929 . S
H1537 C1551 0.931 . S
H1538 C1553 0.930 . S
C1539 H1527 0.944 . S
C1539 C1540 1.399 . S
C1539 C1544 1.399 . S
C1540 C1539 1.399 . S
C1540 C1541 1.376 . S
C1541 H1528 0.930 . S
C1541 C1540 1.376 . S
C1541 C1542 1.388 . S
C1542 H1529 0.930 . S
C1542 C1541 1.388 . S
C1542 C1543 1.390 . S
C1543 C1542 1.390 . S
C1543 C1544 1.394 . S
C1543 C1549 1.465 . S
C1544 C1539 1.399 . S
C1544 C1543 1.394 . S
C1544 C1545 1.516 1_545 S
C1545 C1544 1.516 1_565 S
C1545 C1546 1.502 . S
C1545 C1547 1.561 1_565 S
C1545 C1548 1.526 . S
C1546 H1530 0.959 . S
C1546 H1531 0.959 . S
C1546 H1532 0.961 . S
C1546 C1545 1.502 . S
C1547 H1533 0.960 . S
C1547 H1534 0.961 1_545 S
C1547 H1535 0.959 . S
C1547 C1545 1.561 1_545 S
C1548 C1545 1.526 . S
C1548 C1549 1.396 1_565 S
C1548 C1553 1.390 . S
C1549 C1543 1.465 . S
C1549 C1548 1.396 1_545 S
C1549 C1550 1.399 . S
C1550 H1536 0.929 . S
C1550 C1549 1.399 . S
C1550 C1551 1.385 1_545 S
C1551 H1537 0.931 . S
C1551 C1550 1.385 1_565 S
C1551 C1552 1.389 . S
C1552 C1551 1.389 . S
C1552 C1553 1.387 . S
C1553 H1538 0.930 . S
C1553 C1548 1.390 . S
C1553 C1552 1.387 . S
H1554 C1566 0.930 . S
H1555 C1568 0.930 . S
H1556 C1569 0.930 . S
H1557 C1573 0.959 . S
H1558 C1573 0.959 . S
H1559 C1573 0.961 1_565 S
H1560 C1574 0.960 . S
H1561 C1574 0.961 . S
H1562 C1574 0.959 . S
H1563 C1577 0.929 . S
H1564 C1578 0.931 . S
H1565 C1580 0.930 . S
C1566 H1554 0.930 . S
C1566 C1567 1.399 . S
C1566 C1571 1.399 . S
C1567 C1566 1.399 . S
C1567 C1568 1.376 . S
C1568 H1555 0.930 . S
C1568 C1567 1.376 . S
C1568 C1569 1.388 . S
C1569 H1556 0.930 . S
C1569 C1568 1.388 . S
C1569 C1570 1.390 . S
C1570 C1569 1.390 . S
C1570 C1571 1.394 . S
C1570 C1576 1.465 1_565 S
C1571 C1566 1.399 . S
C1571 C1570 1.394 . S
C1571 C1572 1.516 1_565 S
C1572 C1571 1.516 1_545 S
C1572 C1573 1.502 . S
C1572 C1574 1.561 . S
C1572 C1575 1.526 . S
C1573 H1557 0.959 . S
C1573 H1558 0.959 . S
C1573 H1559 0.961 1_545 S
C1573 C1572 1.502 . S
C1574 H1560 0.960 . S
C1574 H1561 0.961 . S
C1574 H1562 0.959 . S
C1574 C1572 1.561 . S
C1575 C1572 1.526 . S
C1575 C1576 1.396 . S
C1575 C1580 1.390 . S
C1576 C1570 1.465 1_545 S
C1576 C1575 1.396 . S
C1576 C1577 1.399 . S
C1577 H1563 0.929 . S
C1577 C1576 1.399 . S
C1577 C1578 1.385 . S
C1578 H1564 0.931 . S
C1578 C1577 1.385 . S
C1578 C1579 1.389 . S
C1579 C1578 1.389 . S
C1579 C1580 1.387 . S
C1580 H1565 0.930 . S
C1580 C1575 1.390 . S
C1580 C1579 1.387 . S
H1581 C1593 0.930 . S
H1582 C1595 0.930 . S
H1583 C1596 0.930 . S
H1584 C1600 0.959 . S
H1585 C1600 0.959 . S
H1586 C1600 0.961 1_655 S
H1587 C1601 0.960 . S
H1588 C1601 0.961 1_455 S
H1589 C1601 0.959 . S
H1590 C1604 0.929 . S
H1591 C1605 0.931 . S
H1592 C1607 0.930 . S
C1593 H1581 0.930 . S
C1593 C1594 1.399 . S
C1593 C1598 1.399 . S
C1594 C1593 1.399 . S
C1594 C1595 1.376 . S
C1595 H1582 0.930 . S
C1595 C1594 1.376 . S
C1595 C1596 1.388 . S
C1596 H1583 0.930 . S
C1596 C1595 1.388 . S
C1596 C1597 1.390 . S
C1597 C1596 1.390 . S
C1597 C1598 1.394 . S
C1597 C1603 1.465 1_655 S
C1598 C1593 1.399 . S
C1598 C1597 1.394 . S
C1598 C1599 1.516 1_655 S
C1599 C1598 1.516 1_455 S
C1599 C1600 1.502 . S
C1599 C1601 1.561 1_455 S
C1599 C1602 1.526 . S
C1600 H1584 0.959 . S
C1600 H1585 0.959 . S
C1600 H1586 0.961 1_455 S
C1600 C1599 1.502 . S
C1601 H1587 0.960 . S
C1601 H1588 0.961 1_655 S
C1601 H1589 0.959 . S
C1601 C1599 1.561 1_655 S
C1602 C1599 1.526 . S
C1602 C1603 1.396 . S
C1602 C1607 1.390 . S
C1603 C1597 1.465 1_455 S
C1603 C1602 1.396 . S
C1603 C1604 1.399 . S
C1604 H1590 0.929 . S
C1604 C1603 1.399 . S
C1604 C1605 1.385 . S
C1605 H1591 0.931 . S
C1605 C1604 1.385 . S
C1605 C1606 1.389 . S
C1606 C1605 1.389 . S
C1606 C1607 1.387 . S
C1607 H1592 0.930 . S
C1607 C1602 1.390 . S
C1607 C1606 1.387 . S
C541 C358 1.346 . S
C553 C28 1.339 . S
C568 C391 1.362 . S
C580 C61 1.365 . S
C595 C292 1.364 . S
C607 C94 1.360 . S
C622 C325 1.367 . S
C634 C127 1.366 . S
C649 C160 1.360 . S
C661 C490 1.354 . S
C676 C193 1.358 . S
C688 C523 1.363 . S
C703 C424 1.363 . S
C715 C226 1.358 . S
C730 C457 1.365 . S
C742 C259 1.366 . S
C757 C116 1.526 . S
C769 N5 1.510 . S
C784 N38 1.474 . S
C796 C17 1.550 . S
C811 C50 1.527 . S
C823 N71 1.497 . S
C838 N104 1.447 . S
C850 C83 1.563 . S
C865 C182 1.548 . S
C877 N137 1.466 . S
C892 C215 1.515 . S
C904 N170 1.525 . S
C919 C248 1.520 . S
C931 N203 1.519 . S
C946 N236 1.452 . S
C958 C149 1.562 . S
C973 N269 1.514 . S
C985 C380 1.511 . S
C1000 N302 1.514 . S
C1012 C281 1.532 . S
C1027 C314 1.555 . S
C1039 N335 1.451 . S
C1054 N368 1.481 . S
C1066 C347 1.553 . S
C1081 N401 1.490 . S
C1093 C446 1.523 . S
C1108 N434 1.492 . S
C1120 C479 1.522 . S
C1135 N467 1.455 . S
C1147 C512 1.549 . S
C1162 C413 1.506 . S
C1174 N500 1.532 . S
C1189 C239 0.890 . S
C1201 C8 0.879 . S
C1216 C41 0.885 . S
C1228 C140 0.884 . S
C1243 C173 0.880 . S
C1255 C74 0.889 . S
C1270 C206 0.848 . S
C1282 C107 0.915 . S
C1297 C272 0.842 . S
C1309 C503 0.894 . S
C1324 C404 0.858 . S
C1336 C305 0.870 . S
C1351 C338 0.894 . S
C1363 C437 0.843 . S
C1378 C470 0.892 . S
C1390 C371 0.900 . S
C1405 N80 1.629 . S
C1417 N14 1.643 . S
C1432 N113 1.601 . S
C1444 N47 1.592 . S
C1459 N146 1.629 . S
C1471 N212 1.642 . S
C1486 N179 1.615 . S
C1498 N245 1.596 . S
C1513 N278 1.595 . S
C1525 N344 1.601 . S
C1540 N377 1.639 . S
C1552 N311 1.633 . S
C1567 N410 1.637 . S
C1579 N476 1.641 . S
C1594 N509 1.594 . S
C1606 N443 1.599 . S
