# Generated by pormake.
# Topology rhr-a, (3)-cn, num edge types: 1
# Building blocks:
#     Node 0, Type 0, BuildingBlock: WUSLED_clean_sbu_0, # of connection points: 3
#     Node 1, Type 0, BuildingBlock: WUSLED_clean_sbu_0, # of connection points: 3
#     Node 2, Type 0, BuildingBlock: WUSLED_clean_sbu_0, # of connection points: 3
#     Node 3, Type 0, BuildingBlock: WUSLED_clean_sbu_0, # of connection points: 3
#     Node 4, Type 0, BuildingBlock: WUSLED_clean_sbu_0, # of connection points: 3
#     Node 5, Type 0, BuildingBlock: WUSLED_clean_sbu_0, # of connection points: 3
#     Node 6, Type 0, BuildingBlock: WUSLED_clean_sbu_0, # of connection points: 3
#     Node 7, Type 0, BuildingBlock: WUSLED_clean_sbu_0, # of connection points: 3
#     Node 8, Type 0, BuildingBlock: WUSLED_clean_sbu_0, # of connection points: 3
#     Node 9, Type 0, BuildingBlock: WUSLED_clean_sbu_0, # of connection points: 3
#     Node 10, Type 0, BuildingBlock: WUSLED_clean_sbu_0, # of connection points: 3
#     Node 11, Type 0, BuildingBlock: WUSLED_clean_sbu_0, # of connection points: 3
#     Node 12, Type 0, BuildingBlock: WUSLED_clean_sbu_0, # of connection points: 3
#     Node 13, Type 0, BuildingBlock: WUSLED_clean_sbu_0, # of connection points: 3
#     Node 14, Type 0, BuildingBlock: WUSLED_clean_sbu_0, # of connection points: 3
#     Node 15, Type 0, BuildingBlock: WUSLED_clean_sbu_0, # of connection points: 3
#     Node 16, Type 0, BuildingBlock: WUSLED_clean_sbu_0, # of connection points: 3
#     Node 17, Type 0, BuildingBlock: WUSLED_clean_sbu_0, # of connection points: 3
#     Node 18, Type 0, BuildingBlock: WUSLED_clean_sbu_0, # of connection points: 3
#     Node 19, Type 0, BuildingBlock: WUSLED_clean_sbu_0, # of connection points: 3
#     Node 20, Type 0, BuildingBlock: WUSLED_clean_sbu_0, # of connection points: 3
#     Node 21, Type 0, BuildingBlock: WUSLED_clean_sbu_0, # of connection points: 3
#     Node 22, Type 0, BuildingBlock: WUSLED_clean_sbu_0, # of connection points: 3
#     Node 23, Type 0, BuildingBlock: WUSLED_clean_sbu_0, # of connection points: 3
#     Node 24, Type 0, BuildingBlock: WUSLED_clean_sbu_0, # of connection points: 3
#     Node 25, Type 0, BuildingBlock: WUSLED_clean_sbu_0, # of connection points: 3
#     Node 26, Type 0, BuildingBlock: WUSLED_clean_sbu_0, # of connection points: 3
#     Node 27, Type 0, BuildingBlock: WUSLED_clean_sbu_0, # of connection points: 3
#     Node 28, Type 0, BuildingBlock: WUSLED_clean_sbu_0, # of connection points: 3
#     Node 29, Type 0, BuildingBlock: WUSLED_clean_sbu_0, # of connection points: 3
#     Node 30, Type 0, BuildingBlock: WUSLED_clean_sbu_0, # of connection points: 3
#     Node 31, Type 0, BuildingBlock: WUSLED_clean_sbu_0, # of connection points: 3
#     Node 32, Type 0, BuildingBlock: WUSLED_clean_sbu_0, # of connection points: 3
#     Node 33, Type 0, BuildingBlock: WUSLED_clean_sbu_0, # of connection points: 3
#     Node 34, Type 0, BuildingBlock: WUSLED_clean_sbu_0, # of connection points: 3
#     Node 35, Type 0, BuildingBlock: WUSLED_clean_sbu_0, # of connection points: 3
#     Node 36, Type 0, BuildingBlock: WUSLED_clean_sbu_0, # of connection points: 3
#     Node 37, Type 0, BuildingBlock: WUSLED_clean_sbu_0, # of connection points: 3
#     Node 38, Type 0, BuildingBlock: WUSLED_clean_sbu_0, # of connection points: 3
#     Node 39, Type 0, BuildingBlock: WUSLED_clean_sbu_0, # of connection points: 3
#     Node 40, Type 0, BuildingBlock: WUSLED_clean_sbu_0, # of connection points: 3
#     Node 41, Type 0, BuildingBlock: WUSLED_clean_sbu_0, # of connection points: 3
#     Node 42, Type 0, BuildingBlock: WUSLED_clean_sbu_0, # of connection points: 3
#     Node 43, Type 0, BuildingBlock: WUSLED_clean_sbu_0, # of connection points: 3
#     Node 44, Type 0, BuildingBlock: WUSLED_clean_sbu_0, # of connection points: 3
#     Node 45, Type 0, BuildingBlock: WUSLED_clean_sbu_0, # of connection points: 3
#     Node 46, Type 0, BuildingBlock: WUSLED_clean_sbu_0, # of connection points: 3
#     Node 47, Type 0, BuildingBlock: WUSLED_clean_sbu_0, # of connection points: 3
#     Node 48, Type 0, BuildingBlock: WUSLED_clean_sbu_0, # of connection points: 3
#     Node 49, Type 0, BuildingBlock: WUSLED_clean_sbu_0, # of connection points: 3
#     Node 50, Type 0, BuildingBlock: WUSLED_clean_sbu_0, # of connection points: 3
#     Node 51, Type 0, BuildingBlock: WUSLED_clean_sbu_0, # of connection points: 3
#     Node 52, Type 0, BuildingBlock: WUSLED_clean_sbu_0, # of connection points: 3
#     Node 53, Type 0, BuildingBlock: WUSLED_clean_sbu_0, # of connection points: 3
#     Node 54, Type 0, BuildingBlock: WUSLED_clean_sbu_0, # of connection points: 3
#     Node 55, Type 0, BuildingBlock: WUSLED_clean_sbu_0, # of connection points: 3
#     Node 56, Type 0, BuildingBlock: WUSLED_clean_sbu_0, # of connection points: 3
#     Node 57, Type 0, BuildingBlock: WUSLED_clean_sbu_0, # of connection points: 3
#     Node 58, Type 0, BuildingBlock: WUSLED_clean_sbu_0, # of connection points: 3
#     Node 59, Type 0, BuildingBlock: WUSLED_clean_sbu_0, # of connection points: 3
#     Node 60, Type 0, BuildingBlock: WUSLED_clean_sbu_0, # of connection points: 3
#     Node 61, Type 0, BuildingBlock: WUSLED_clean_sbu_0, # of connection points: 3
#     Node 62, Type 0, BuildingBlock: WUSLED_clean_sbu_0, # of connection points: 3
#     Node 63, Type 0, BuildingBlock: WUSLED_clean_sbu_0, # of connection points: 3
#     Node 64, Type 0, BuildingBlock: WUSLED_clean_sbu_0, # of connection points: 3
#     Node 65, Type 0, BuildingBlock: WUSLED_clean_sbu_0, # of connection points: 3
#     Node 66, Type 0, BuildingBlock: WUSLED_clean_sbu_0, # of connection points: 3
#     Node 67, Type 0, BuildingBlock: WUSLED_clean_sbu_0, # of connection points: 3
#     Node 68, Type 0, BuildingBlock: WUSLED_clean_sbu_0, # of connection points: 3
#     Node 69, Type 0, BuildingBlock: WUSLED_clean_sbu_0, # of connection points: 3
#     Node 70, Type 0, BuildingBlock: WUSLED_clean_sbu_0, # of connection points: 3
#     Node 71, Type 0, BuildingBlock: WUSLED_clean_sbu_0, # of connection points: 3
#     Node 72, Type 0, BuildingBlock: WUSLED_clean_sbu_0, # of connection points: 3
#     Node 73, Type 0, BuildingBlock: WUSLED_clean_sbu_0, # of connection points: 3
#     Node 74, Type 0, BuildingBlock: WUSLED_clean_sbu_0, # of connection points: 3
#     Node 75, Type 0, BuildingBlock: WUSLED_clean_sbu_0, # of connection points: 3
#     Node 76, Type 0, BuildingBlock: WUSLED_clean_sbu_0, # of connection points: 3
#     Node 77, Type 0, BuildingBlock: WUSLED_clean_sbu_0, # of connection points: 3
#     Node 78, Type 0, BuildingBlock: WUSLED_clean_sbu_0, # of connection points: 3
#     Node 79, Type 0, BuildingBlock: WUSLED_clean_sbu_0, # of connection points: 3
#     Node 80, Type 0, BuildingBlock: WUSLED_clean_sbu_0, # of connection points: 3
#     Node 81, Type 0, BuildingBlock: WUSLED_clean_sbu_0, # of connection points: 3
#     Node 82, Type 0, BuildingBlock: WUSLED_clean_sbu_0, # of connection points: 3
#     Node 83, Type 0, BuildingBlock: WUSLED_clean_sbu_0, # of connection points: 3
#     Node 84, Type 0, BuildingBlock: WUSLED_clean_sbu_0, # of connection points: 3
#     Node 85, Type 0, BuildingBlock: WUSLED_clean_sbu_0, # of connection points: 3
#     Node 86, Type 0, BuildingBlock: WUSLED_clean_sbu_0, # of connection points: 3
#     Node 87, Type 0, BuildingBlock: WUSLED_clean_sbu_0, # of connection points: 3
#     Node 88, Type 0, BuildingBlock: WUSLED_clean_sbu_0, # of connection points: 3
#     Node 89, Type 0, BuildingBlock: WUSLED_clean_sbu_0, # of connection points: 3
#     Node 90, Type 0, BuildingBlock: WUSLED_clean_sbu_0, # of connection points: 3
#     Node 91, Type 0, BuildingBlock: WUSLED_clean_sbu_0, # of connection points: 3
#     Node 92, Type 0, BuildingBlock: WUSLED_clean_sbu_0, # of connection points: 3
#     Node 93, Type 0, BuildingBlock: WUSLED_clean_sbu_0, # of connection points: 3
#     Node 94, Type 0, BuildingBlock: WUSLED_clean_sbu_0, # of connection points: 3
#     Node 95, Type 0, BuildingBlock: WUSLED_clean_sbu_0, # of connection points: 3
#     Edge 96, Type (0, 0), BuildingBlock: MIFKUJ_clean_linker_0, # of connection points: 2
#     Edge 97, Type (0, 0), BuildingBlock: MIFKUJ_clean_linker_0, # of connection points: 2
#     Edge 98, Type (0, 0), BuildingBlock: MIFKUJ_clean_linker_0, # of connection points: 2
#     Edge 99, Type (0, 0), BuildingBlock: MIFKUJ_clean_linker_0, # of connection points: 2
#     Edge 100, Type (0, 0), BuildingBlock: MIFKUJ_clean_linker_0, # of connection points: 2
#     Edge 101, Type (0, 0), BuildingBlock: MIFKUJ_clean_linker_0, # of connection points: 2
#     Edge 102, Type (0, 0), BuildingBlock: MIFKUJ_clean_linker_0, # of connection points: 2
#     Edge 103, Type (0, 0), BuildingBlock: MIFKUJ_clean_linker_0, # of connection points: 2
#     Edge 104, Type (0, 0), BuildingBlock: MIFKUJ_clean_linker_0, # of connection points: 2
#     Edge 105, Type (0, 0), BuildingBlock: MIFKUJ_clean_linker_0, # of connection points: 2
#     Edge 106, Type (0, 0), BuildingBlock: MIFKUJ_clean_linker_0, # of connection points: 2
#     Edge 107, Type (0, 0), BuildingBlock: MIFKUJ_clean_linker_0, # of connection points: 2
#     Edge 108, Type (0, 0), BuildingBlock: MIFKUJ_clean_linker_0, # of connection points: 2
#     Edge 109, Type (0, 0), BuildingBlock: MIFKUJ_clean_linker_0, # of connection points: 2
#     Edge 110, Type (0, 0), BuildingBlock: MIFKUJ_clean_linker_0, # of connection points: 2
#     Edge 111, Type (0, 0), BuildingBlock: MIFKUJ_clean_linker_0, # of connection points: 2
#     Edge 112, Type (0, 0), BuildingBlock: MIFKUJ_clean_linker_0, # of connection points: 2
#     Edge 113, Type (0, 0), BuildingBlock: MIFKUJ_clean_linker_0, # of connection points: 2
#     Edge 114, Type (0, 0), BuildingBlock: MIFKUJ_clean_linker_0, # of connection points: 2
#     Edge 115, Type (0, 0), BuildingBlock: MIFKUJ_clean_linker_0, # of connection points: 2
#     Edge 116, Type (0, 0), BuildingBlock: MIFKUJ_clean_linker_0, # of connection points: 2
#     Edge 117, Type (0, 0), BuildingBlock: MIFKUJ_clean_linker_0, # of connection points: 2
#     Edge 118, Type (0, 0), BuildingBlock: MIFKUJ_clean_linker_0, # of connection points: 2
#     Edge 119, Type (0, 0), BuildingBlock: MIFKUJ_clean_linker_0, # of connection points: 2
#     Edge 120, Type (0, 0), BuildingBlock: MIFKUJ_clean_linker_0, # of connection points: 2
#     Edge 121, Type (0, 0), BuildingBlock: MIFKUJ_clean_linker_0, # of connection points: 2
#     Edge 122, Type (0, 0), BuildingBlock: MIFKUJ_clean_linker_0, # of connection points: 2
#     Edge 123, Type (0, 0), BuildingBlock: MIFKUJ_clean_linker_0, # of connection points: 2
#     Edge 124, Type (0, 0), BuildingBlock: MIFKUJ_clean_linker_0, # of connection points: 2
#     Edge 125, Type (0, 0), BuildingBlock: MIFKUJ_clean_linker_0, # of connection points: 2
#     Edge 126, Type (0, 0), BuildingBlock: MIFKUJ_clean_linker_0, # of connection points: 2
#     Edge 127, Type (0, 0), BuildingBlock: MIFKUJ_clean_linker_0, # of connection points: 2
#     Edge 128, Type (0, 0), BuildingBlock: MIFKUJ_clean_linker_0, # of connection points: 2
#     Edge 129, Type (0, 0), BuildingBlock: MIFKUJ_clean_linker_0, # of connection points: 2
#     Edge 130, Type (0, 0), BuildingBlock: MIFKUJ_clean_linker_0, # of connection points: 2
#     Edge 131, Type (0, 0), BuildingBlock: MIFKUJ_clean_linker_0, # of connection points: 2
#     Edge 132, Type (0, 0), BuildingBlock: MIFKUJ_clean_linker_0, # of connection points: 2
#     Edge 133, Type (0, 0), BuildingBlock: MIFKUJ_clean_linker_0, # of connection points: 2
#     Edge 134, Type (0, 0), BuildingBlock: MIFKUJ_clean_linker_0, # of connection points: 2
#     Edge 135, Type (0, 0), BuildingBlock: MIFKUJ_clean_linker_0, # of connection points: 2
#     Edge 136, Type (0, 0), BuildingBlock: MIFKUJ_clean_linker_0, # of connection points: 2
#     Edge 137, Type (0, 0), BuildingBlock: MIFKUJ_clean_linker_0, # of connection points: 2
#     Edge 138, Type (0, 0), BuildingBlock: MIFKUJ_clean_linker_0, # of connection points: 2
#     Edge 139, Type (0, 0), BuildingBlock: MIFKUJ_clean_linker_0, # of connection points: 2
#     Edge 140, Type (0, 0), BuildingBlock: MIFKUJ_clean_linker_0, # of connection points: 2
#     Edge 141, Type (0, 0), BuildingBlock: MIFKUJ_clean_linker_0, # of connection points: 2
#     Edge 142, Type (0, 0), BuildingBlock: MIFKUJ_clean_linker_0, # of connection points: 2
#     Edge 143, Type (0, 0), BuildingBlock: MIFKUJ_clean_linker_0, # of connection points: 2
#     Edge 144, Type (0, 0), BuildingBlock: MIFKUJ_clean_linker_0, # of connection points: 2
#     Edge 145, Type (0, 0), BuildingBlock: MIFKUJ_clean_linker_0, # of connection points: 2
#     Edge 146, Type (0, 0), BuildingBlock: MIFKUJ_clean_linker_0, # of connection points: 2
#     Edge 147, Type (0, 0), BuildingBlock: MIFKUJ_clean_linker_0, # of connection points: 2
#     Edge 148, Type (0, 0), BuildingBlock: MIFKUJ_clean_linker_0, # of connection points: 2
#     Edge 149, Type (0, 0), BuildingBlock: MIFKUJ_clean_linker_0, # of connection points: 2
#     Edge 150, Type (0, 0), BuildingBlock: MIFKUJ_clean_linker_0, # of connection points: 2
#     Edge 151, Type (0, 0), BuildingBlock: MIFKUJ_clean_linker_0, # of connection points: 2
#     Edge 152, Type (0, 0), BuildingBlock: MIFKUJ_clean_linker_0, # of connection points: 2
#     Edge 153, Type (0, 0), BuildingBlock: MIFKUJ_clean_linker_0, # of connection points: 2
#     Edge 154, Type (0, 0), BuildingBlock: MIFKUJ_clean_linker_0, # of connection points: 2
#     Edge 155, Type (0, 0), BuildingBlock: MIFKUJ_clean_linker_0, # of connection points: 2
#     Edge 156, Type (0, 0), BuildingBlock: MIFKUJ_clean_linker_0, # of connection points: 2
#     Edge 157, Type (0, 0), BuildingBlock: MIFKUJ_clean_linker_0, # of connection points: 2
#     Edge 158, Type (0, 0), BuildingBlock: MIFKUJ_clean_linker_0, # of connection points: 2
#     Edge 159, Type (0, 0), BuildingBlock: MIFKUJ_clean_linker_0, # of connection points: 2
#     Edge 160, Type (0, 0), BuildingBlock: MIFKUJ_clean_linker_0, # of connection points: 2
#     Edge 161, Type (0, 0), BuildingBlock: MIFKUJ_clean_linker_0, # of connection points: 2
#     Edge 162, Type (0, 0), BuildingBlock: MIFKUJ_clean_linker_0, # of connection points: 2
#     Edge 163, Type (0, 0), BuildingBlock: MIFKUJ_clean_linker_0, # of connection points: 2
#     Edge 164, Type (0, 0), BuildingBlock: MIFKUJ_clean_linker_0, # of connection points: 2
#     Edge 165, Type (0, 0), BuildingBlock: MIFKUJ_clean_linker_0, # of connection points: 2
#     Edge 166, Type (0, 0), BuildingBlock: MIFKUJ_clean_linker_0, # of connection points: 2
#     Edge 167, Type (0, 0), BuildingBlock: MIFKUJ_clean_linker_0, # of connection points: 2
#     Edge 168, Type (0, 0), BuildingBlock: MIFKUJ_clean_linker_0, # of connection points: 2
#     Edge 169, Type (0, 0), BuildingBlock: MIFKUJ_clean_linker_0, # of connection points: 2
#     Edge 170, Type (0, 0), BuildingBlock: MIFKUJ_clean_linker_0, # of connection points: 2
#     Edge 171, Type (0, 0), BuildingBlock: MIFKUJ_clean_linker_0, # of connection points: 2
#     Edge 172, Type (0, 0), BuildingBlock: MIFKUJ_clean_linker_0, # of connection points: 2
#     Edge 173, Type (0, 0), BuildingBlock: MIFKUJ_clean_linker_0, # of connection points: 2
#     Edge 174, Type (0, 0), BuildingBlock: MIFKUJ_clean_linker_0, # of connection points: 2
#     Edge 175, Type (0, 0), BuildingBlock: MIFKUJ_clean_linker_0, # of connection points: 2
#     Edge 176, Type (0, 0), BuildingBlock: MIFKUJ_clean_linker_0, # of connection points: 2
#     Edge 177, Type (0, 0), BuildingBlock: MIFKUJ_clean_linker_0, # of connection points: 2
#     Edge 178, Type (0, 0), BuildingBlock: MIFKUJ_clean_linker_0, # of connection points: 2
#     Edge 179, Type (0, 0), BuildingBlock: MIFKUJ_clean_linker_0, # of connection points: 2
#     Edge 180, Type (0, 0), BuildingBlock: MIFKUJ_clean_linker_0, # of connection points: 2
#     Edge 181, Type (0, 0), BuildingBlock: MIFKUJ_clean_linker_0, # of connection points: 2
#     Edge 182, Type (0, 0), BuildingBlock: MIFKUJ_clean_linker_0, # of connection points: 2
#     Edge 183, Type (0, 0), BuildingBlock: MIFKUJ_clean_linker_0, # of connection points: 2
#     Edge 184, Type (0, 0), BuildingBlock: MIFKUJ_clean_linker_0, # of connection points: 2
#     Edge 185, Type (0, 0), BuildingBlock: MIFKUJ_clean_linker_0, # of connection points: 2
#     Edge 186, Type (0, 0), BuildingBlock: MIFKUJ_clean_linker_0, # of connection points: 2
#     Edge 187, Type (0, 0), BuildingBlock: MIFKUJ_clean_linker_0, # of connection points: 2
#     Edge 188, Type (0, 0), BuildingBlock: MIFKUJ_clean_linker_0, # of connection points: 2
#     Edge 189, Type (0, 0), BuildingBlock: MIFKUJ_clean_linker_0, # of connection points: 2
#     Edge 190, Type (0, 0), BuildingBlock: MIFKUJ_clean_linker_0, # of connection points: 2
#     Edge 191, Type (0, 0), BuildingBlock: MIFKUJ_clean_linker_0, # of connection points: 2
#     Edge 192, Type (0, 0), BuildingBlock: MIFKUJ_clean_linker_0, # of connection points: 2
#     Edge 193, Type (0, 0), BuildingBlock: MIFKUJ_clean_linker_0, # of connection points: 2
#     Edge 194, Type (0, 0), BuildingBlock: MIFKUJ_clean_linker_0, # of connection points: 2
#     Edge 195, Type (0, 0), BuildingBlock: MIFKUJ_clean_linker_0, # of connection points: 2
#     Edge 196, Type (0, 0), BuildingBlock: MIFKUJ_clean_linker_0, # of connection points: 2
#     Edge 197, Type (0, 0), BuildingBlock: MIFKUJ_clean_linker_0, # of connection points: 2
#     Edge 198, Type (0, 0), BuildingBlock: MIFKUJ_clean_linker_0, # of connection points: 2
#     Edge 199, Type (0, 0), BuildingBlock: MIFKUJ_clean_linker_0, # of connection points: 2
#     Edge 200, Type (0, 0), BuildingBlock: MIFKUJ_clean_linker_0, # of connection points: 2
#     Edge 201, Type (0, 0), BuildingBlock: MIFKUJ_clean_linker_0, # of connection points: 2
#     Edge 202, Type (0, 0), BuildingBlock: MIFKUJ_clean_linker_0, # of connection points: 2
#     Edge 203, Type (0, 0), BuildingBlock: MIFKUJ_clean_linker_0, # of connection points: 2
#     Edge 204, Type (0, 0), BuildingBlock: MIFKUJ_clean_linker_0, # of connection points: 2
#     Edge 205, Type (0, 0), BuildingBlock: MIFKUJ_clean_linker_0, # of connection points: 2
#     Edge 206, Type (0, 0), BuildingBlock: MIFKUJ_clean_linker_0, # of connection points: 2
#     Edge 207, Type (0, 0), BuildingBlock: MIFKUJ_clean_linker_0, # of connection points: 2
#     Edge 208, Type (0, 0), BuildingBlock: MIFKUJ_clean_linker_0, # of connection points: 2
#     Edge 209, Type (0, 0), BuildingBlock: MIFKUJ_clean_linker_0, # of connection points: 2
#     Edge 210, Type (0, 0), BuildingBlock: MIFKUJ_clean_linker_0, # of connection points: 2
#     Edge 211, Type (0, 0), BuildingBlock: MIFKUJ_clean_linker_0, # of connection points: 2
#     Edge 212, Type (0, 0), BuildingBlock: MIFKUJ_clean_linker_0, # of connection points: 2
#     Edge 213, Type (0, 0), BuildingBlock: MIFKUJ_clean_linker_0, # of connection points: 2
#     Edge 214, Type (0, 0), BuildingBlock: MIFKUJ_clean_linker_0, # of connection points: 2
#     Edge 215, Type (0, 0), BuildingBlock: MIFKUJ_clean_linker_0, # of connection points: 2
#     Edge 216, Type (0, 0), BuildingBlock: MIFKUJ_clean_linker_0, # of connection points: 2
#     Edge 217, Type (0, 0), BuildingBlock: MIFKUJ_clean_linker_0, # of connection points: 2
#     Edge 218, Type (0, 0), BuildingBlock: MIFKUJ_clean_linker_0, # of connection points: 2
#     Edge 219, Type (0, 0), BuildingBlock: MIFKUJ_clean_linker_0, # of connection points: 2
#     Edge 220, Type (0, 0), BuildingBlock: MIFKUJ_clean_linker_0, # of connection points: 2
#     Edge 221, Type (0, 0), BuildingBlock: MIFKUJ_clean_linker_0, # of connection points: 2
#     Edge 222, Type (0, 0), BuildingBlock: MIFKUJ_clean_linker_0, # of connection points: 2
#     Edge 223, Type (0, 0), BuildingBlock: MIFKUJ_clean_linker_0, # of connection points: 2
#     Edge 224, Type (0, 0), BuildingBlock: MIFKUJ_clean_linker_0, # of connection points: 2
#     Edge 225, Type (0, 0), BuildingBlock: MIFKUJ_clean_linker_0, # of connection points: 2
#     Edge 226, Type (0, 0), BuildingBlock: MIFKUJ_clean_linker_0, # of connection points: 2
#     Edge 227, Type (0, 0), BuildingBlock: MIFKUJ_clean_linker_0, # of connection points: 2
#     Edge 228, Type (0, 0), BuildingBlock: MIFKUJ_clean_linker_0, # of connection points: 2
#     Edge 229, Type (0, 0), BuildingBlock: MIFKUJ_clean_linker_0, # of connection points: 2
#     Edge 230, Type (0, 0), BuildingBlock: MIFKUJ_clean_linker_0, # of connection points: 2
#     Edge 231, Type (0, 0), BuildingBlock: MIFKUJ_clean_linker_0, # of connection points: 2
#     Edge 232, Type (0, 0), BuildingBlock: MIFKUJ_clean_linker_0, # of connection points: 2
#     Edge 233, Type (0, 0), BuildingBlock: MIFKUJ_clean_linker_0, # of connection points: 2
#     Edge 234, Type (0, 0), BuildingBlock: MIFKUJ_clean_linker_0, # of connection points: 2
#     Edge 235, Type (0, 0), BuildingBlock: MIFKUJ_clean_linker_0, # of connection points: 2
#     Edge 236, Type (0, 0), BuildingBlock: MIFKUJ_clean_linker_0, # of connection points: 2
#     Edge 237, Type (0, 0), BuildingBlock: MIFKUJ_clean_linker_0, # of connection points: 2
#     Edge 238, Type (0, 0), BuildingBlock: MIFKUJ_clean_linker_0, # of connection points: 2
#     Edge 239, Type (0, 0), BuildingBlock: MIFKUJ_clean_linker_0, # of connection points: 2
# Relax obj value: 0.126
# Max RMSD: 0.104
# Mean RMSD: 0.104
data_MOF--net-rhr-a--node1-WUSLED_clean_sbu_0--edge1-MIFKUJ_clean_linker_0
_symmetry_space_group_name_H-M    P1
_symmetry_Int_Tables_number       1
_symmetry_cell_setting            triclinic
loop_
_symmetry_equiv_pos_as_xyz
'x, y, z'
_cell_length_a     214.6513
_cell_length_b     214.60678
_cell_length_c     214.89463
_cell_angle_alpha  90.042538
_cell_angle_beta   89.956796
_cell_angle_gamma 90.064534
loop_
_atom_site_label
_atom_site_type_symbol
_atom_site_fract_x
_atom_site_fract_y
_atom_site_fract_z
_atom_type_partial_charge
C0 C 0.08091 0.28163 0.34672 0.0
C1 C 0.07556 0.28328 0.34337 0.0
C2 C 0.08182 0.28967 0.33638 0.0
C3 C 0.076 0.28726 0.33825 0.0
C4 C 0.08718 0.28789 0.33971 0.0
C5 C 0.08673 0.28391 0.34484 0.0
U6 U 0.07102 0.27183 0.35748 0.0
O7 O 0.07295 0.26308 0.36243 0.0
O8 O 0.07059 0.27152 0.3677 0.0
C9 C 0.07256 0.26573 0.36794 0.0
C10 C 0.0804 0.2777 0.35229 0.0
C11 C 0.07783 0.26464 0.37217 0.0
C12 C 0.08896 0.26407 0.37417 0.0
C13 C 0.08401 0.26497 0.37004 0.0
C14 C 0.08162 0.26257 0.38261 0.0
C15 C 0.08782 0.26289 0.38051 0.0
C16 C 0.07667 0.26342 0.37846 0.0
C17 C 0.05371 0.27015 0.35326 0.0
C18 C 0.04594 0.2653 0.35992 0.0
C19 C 0.04299 0.26928 0.34979 0.0
C20 C 0.04913 0.27115 0.34874 0.0
C21 C 0.04131 0.26637 0.35541 0.0
C22 C 0.05211 0.26718 0.35885 0.0
C23 C 0.06006 0.27241 0.3521 0.0
O24 O 0.07702 0.28009 0.3568 0.0
O25 O 0.07917 0.27179 0.35124 0.0
O26 O 0.06422 0.26812 0.35076 0.0
O27 O 0.06212 0.27664 0.35601 0.0
H28 H 0.07102 0.28156 0.34478 0.0
H29 H 0.07177 0.28859 0.33586 0.0
H30 H 0.09174 0.28959 0.33834 0.0
H31 H 0.0909 0.28267 0.34738 0.0
H32 H 0.09369 0.26442 0.37243 0.0
H33 H 0.085 0.26598 0.3652 0.0
H34 H 0.08058 0.2616 0.38745 0.0
H35 H 0.07193 0.26316 0.38019 0.0
H36 H 0.04481 0.26302 0.36427 0.0
H37 H 0.03954 0.27028 0.34627 0.0
H38 H 0.0503 0.27347 0.34441 0.0
H39 H 0.0556 0.26636 0.36239 0.0
C40 C 0.73394 0.08156 0.34739 0.0
C41 C 0.73285 0.07639 0.34354 0.0
C42 C 0.72594 0.08258 0.33703 0.0
C43 C 0.72889 0.07689 0.33841 0.0
C44 C 0.72714 0.08778 0.34086 0.0
C45 C 0.7311 0.08726 0.346 0.0
U46 U 0.74384 0.07149 0.35784 0.0
O47 O 0.75255 0.0734 0.36288 0.0
O48 O 0.74412 0.07075 0.36806 0.0
C49 C 0.74988 0.0728 0.36837 0.0
C50 C 0.73784 0.08094 0.35296 0.0
C51 C 0.75092 0.07795 0.37277 0.0
C52 C 0.7518 0.08902 0.37508 0.0
C53 C 0.75089 0.08419 0.37079 0.0
C54 C 0.75267 0.08143 0.38338 0.0
C55 C 0.75268 0.08769 0.38143 0.0
C56 C 0.75181 0.07662 0.37909 0.0
C57 C 0.74579 0.0543 0.35287 0.0
C58 C 0.74749 0.04506 0.35919 0.0
C59 C 0.74927 0.04468 0.34806 0.0
C60 C 0.74762 0.05095 0.34759 0.0
C61 C 0.7491 0.04162 0.35385 0.0
C62 C 0.74585 0.05136 0.35871 0.0
C63 C 0.74348 0.06072 0.35208 0.0
O64 O 0.73547 0.07736 0.35733 0.0
O65 O 0.74377 0.07986 0.35191 0.0
O66 O 0.7477 0.06499 0.35089 0.0
O67 O 0.73917 0.06257 0.35602 0.0
H68 H 0.73499 0.07193 0.34457 0.0
H69 H 0.72801 0.07278 0.33562 0.0
H70 H 0.725 0.09224 0.33989 0.0
H71 H 0.7319 0.0913 0.34892 0.0
H72 H 0.75171 0.09379 0.37345 0.0
H73 H 0.75014 0.08532 0.36594 0.0
H74 H 0.7534 0.08026 0.38823 0.0
H75 H 0.75183 0.07183 0.38071 0.0
H76 H 0.74727 0.04284 0.36371 0.0
H77 H 0.75061 0.04221 0.34388 0.0
H78 H 0.74763 0.05315 0.34305 0.0
H79 H 0.74447 0.05387 0.36286 0.0
C80 C 0.93461 0.73563 0.3455 0.0
C81 C 0.93973 0.7349 0.3415 0.0
C82 C 0.93386 0.7275 0.33521 0.0
C83 C 0.93935 0.73088 0.33639 0.0
C84 C 0.92871 0.72833 0.33919 0.0
C85 C 0.92909 0.73237 0.34429 0.0
U86 U 0.94468 0.74445 0.35691 0.0
O87 O 0.94315 0.75329 0.36191 0.0
O88 O 0.9446 0.74463 0.36712 0.0
C89 C 0.94305 0.75054 0.36737 0.0
C90 C 0.93514 0.73949 0.35112 0.0
C91 C 0.93763 0.75195 0.37131 0.0
C92 C 0.92701 0.74978 0.37459 0.0
C93 C 0.93204 0.74864 0.3706 0.0
C94 C 0.93306 0.75769 0.37992 0.0
C95 C 0.92749 0.75428 0.37933 0.0
C96 C 0.9381 0.75652 0.37595 0.0
C97 C 0.96239 0.74417 0.35381 0.0
C98 C 0.97057 0.75112 0.35749 0.0
C99 C 0.97312 0.74064 0.35415 0.0
C100 C 0.96686 0.73953 0.35282 0.0
C101 C 0.97506 0.74644 0.3565 0.0
C102 C 0.96427 0.74998 0.35619 0.0
C103 C 0.95585 0.74278 0.35226 0.0
O104 O 0.93798 0.73677 0.35579 0.0
O105 O 0.93697 0.74526 0.35021 0.0
O106 O 0.95227 0.74751 0.35074 0.0
O107 O 0.95309 0.73871 0.35589 0.0
H108 H 0.94406 0.73734 0.34241 0.0
H109 H 0.94343 0.73028 0.33347 0.0
H110 H 0.9244 0.72584 0.33837 0.0
H111 H 0.9251 0.73286 0.34734 0.0
H112 H 0.92276 0.74713 0.37397 0.0
H113 H 0.93158 0.74512 0.36701 0.0
H114 H 0.9336 0.76114 0.38356 0.0
H115 H 0.94239 0.75911 0.37656 0.0
H116 H 0.97193 0.75562 0.35932 0.0
H117 H 0.97647 0.73697 0.35324 0.0
H118 H 0.9655 0.73503 0.35096 0.0
H119 H 0.9609 0.75364 0.35702 0.0
C120 C 0.28188 0.93563 0.34702 0.0
C121 C 0.28346 0.94094 0.34356 0.0
C122 C 0.28977 0.93461 0.33657 0.0
C123 C 0.28737 0.94044 0.33839 0.0
C124 C 0.2881 0.92929 0.34003 0.0
C125 C 0.28419 0.9298 0.34521 0.0
U126 U 0.27208 0.94553 0.35782 0.0
O127 O 0.26329 0.9435 0.3627 0.0
O128 O 0.27168 0.94589 0.36803 0.0
C129 C 0.2659 0.94388 0.36822 0.0
C130 C 0.27796 0.93618 0.3526 0.0
C131 C 0.26482 0.93852 0.37233 0.0
C132 C 0.26694 0.92781 0.3753 0.0
C133 C 0.26785 0.93283 0.37125 0.0
C134 C 0.25988 0.93409 0.38148 0.0
C135 C 0.26296 0.92839 0.38047 0.0
C136 C 0.26081 0.93911 0.37744 0.0
C137 C 0.27042 0.96289 0.35375 0.0
C138 C 0.26651 0.97085 0.36078 0.0
C139 C 0.2689 0.97346 0.35006 0.0
C140 C 0.27067 0.96729 0.34896 0.0
C141 C 0.26686 0.97533 0.356 0.0
C142 C 0.26827 0.96467 0.35965 0.0
C143 C 0.27268 0.95654 0.35253 0.0
O144 O 0.28036 0.93955 0.3571 0.0
O145 O 0.27206 0.93742 0.35154 0.0
O146 O 0.26839 0.95239 0.35114 0.0
O147 O 0.27691 0.95445 0.35642 0.0
H148 H 0.28172 0.94549 0.34492 0.0
H149 H 0.28863 0.94464 0.33589 0.0
H150 H 0.2898 0.92473 0.33871 0.0
H151 H 0.283 0.92566 0.34783 0.0
H152 H 0.26932 0.92346 0.37435 0.0
H153 H 0.27095 0.9323 0.36731 0.0
H154 H 0.25684 0.93471 0.38546 0.0
H155 H 0.25845 0.94348 0.37834 0.0
H156 H 0.26491 0.97214 0.36538 0.0
H157 H 0.26933 0.9768 0.34631 0.0
H158 H 0.27234 0.966 0.34438 0.0
H159 H 0.26803 0.96131 0.36341 0.0
C160 C 0.08009 0.73451 0.66804 0.0
C161 C 0.07456 0.733 0.67117 0.0
C162 C 0.08031 0.72633 0.67829 0.0
C163 C 0.07466 0.72894 0.67625 0.0
C164 C 0.08586 0.72795 0.6752 0.0
C165 C 0.08575 0.732 0.6701 0.0
U166 U 0.07095 0.74489 0.65721 0.0
O167 O 0.07342 0.75373 0.65263 0.0
O168 O 0.07089 0.74557 0.64701 0.0
C169 C 0.0731 0.75128 0.64703 0.0
C170 C 0.07994 0.73859 0.66256 0.0
C171 C 0.07857 0.75232 0.64304 0.0
C172 C 0.08878 0.74921 0.63928 0.0
C173 C 0.0837 0.74827 0.64324 0.0
C174 C 0.08374 0.75834 0.63498 0.0
C175 C 0.08885 0.75423 0.63508 0.0
C176 C 0.07864 0.75738 0.63892 0.0
C177 C 0.05352 0.74691 0.66083 0.0
C178 C 0.04554 0.75034 0.65359 0.0
C179 C 0.04306 0.7491 0.66452 0.0
C180 C 0.04919 0.74728 0.6657 0.0
C181 C 0.04113 0.75056 0.65844 0.0
C182 C 0.0517 0.74854 0.65478 0.0
C183 C 0.05978 0.74448 0.66215 0.0
O184 O 0.07667 0.73642 0.65786 0.0
O185 O 0.07885 0.7445 0.66373 0.0
O186 O 0.064 0.74863 0.66376 0.0
O187 O 0.06188 0.74027 0.65824 0.0
H188 H 0.07015 0.73492 0.66965 0.0
H189 H 0.07032 0.72785 0.67859 0.0
H190 H 0.09028 0.72598 0.67662 0.0
H191 H 0.09006 0.73312 0.66772 0.0
H192 H 0.09268 0.74601 0.63951 0.0
H193 H 0.08374 0.74437 0.64644 0.0
H194 H 0.08362 0.76222 0.63176 0.0
H195 H 0.07473 0.76055 0.63871 0.0
H196 H 0.04422 0.7515 0.64887 0.0
H197 H 0.03977 0.74913 0.66834 0.0
H198 H 0.05051 0.74602 0.67039 0.0
H199 H 0.05499 0.74831 0.65097 0.0
C200 C 0.28186 0.08078 0.66789 0.0
C201 C 0.28345 0.0754 0.67124 0.0
C202 C 0.2901 0.08155 0.67808 0.0
C203 C 0.28753 0.07578 0.67629 0.0
C204 C 0.2884 0.08694 0.67475 0.0
C205 C 0.28432 0.08655 0.6697 0.0
U206 U 0.27152 0.07118 0.65731 0.0
O207 O 0.26268 0.07348 0.65266 0.0
O208 O 0.27086 0.07088 0.64711 0.0
C209 C 0.26514 0.07305 0.64707 0.0
C210 C 0.27778 0.08036 0.66242 0.0
C211 C 0.26411 0.07844 0.64299 0.0
C212 C 0.26672 0.08894 0.63969 0.0
C213 C 0.26761 0.08391 0.64373 0.0
C214 C 0.25875 0.08311 0.63422 0.0
C215 C 0.2623 0.08859 0.63487 0.0
C216 C 0.25966 0.07807 0.63824 0.0
C217 C 0.26947 0.05383 0.66135 0.0
C218 C 0.26664 0.04541 0.65432 0.0
C219 C 0.26651 0.04372 0.66546 0.0
C220 C 0.26839 0.04988 0.66642 0.0
C221 C 0.2657 0.04139 0.6594 0.0
C222 C 0.26849 0.0516 0.65528 0.0
C223 C 0.27191 0.06013 0.66251 0.0
O224 O 0.27997 0.07695 0.65784 0.0
O225 O 0.27188 0.07926 0.66363 0.0
O226 O 0.26779 0.06439 0.66404 0.0
O227 O 0.27614 0.06215 0.65857 0.0
H228 H 0.28159 0.0709 0.66989 0.0
H229 H 0.2888 0.07153 0.67869 0.0
H230 H 0.29022 0.09146 0.67606 0.0
H231 H 0.28312 0.09074 0.66717 0.0
H232 H 0.26947 0.09312 0.64036 0.0
H233 H 0.27105 0.08428 0.6474 0.0
H234 H 0.25536 0.08266 0.63051 0.0
H235 H 0.25693 0.07387 0.63761 0.0
H236 H 0.26599 0.04377 0.64959 0.0
H237 H 0.26591 0.04073 0.66947 0.0
H238 H 0.26913 0.05152 0.67113 0.0
H239 H 0.26926 0.05459 0.6513 0.0
C240 C 0.93498 0.28202 0.66835 0.0
C241 C 0.94011 0.28307 0.67225 0.0
C242 C 0.9339 0.29005 0.67869 0.0
C243 C 0.93958 0.28705 0.67738 0.0
C244 C 0.92875 0.28891 0.67479 0.0
C245 C 0.92929 0.28493 0.66966 0.0
U246 U 0.94509 0.27221 0.65779 0.0
O247 O 0.94328 0.26339 0.6529 0.0
O248 O 0.94562 0.2718 0.64757 0.0
C249 C 0.9437 0.26599 0.64738 0.0
C250 C 0.93562 0.27809 0.66279 0.0
C251 C 0.93848 0.26477 0.6431 0.0
C252 C 0.9274 0.26355 0.64108 0.0
C253 C 0.93229 0.26469 0.64523 0.0
C254 C 0.93481 0.26267 0.63262 0.0
C255 C 0.9286 0.26253 0.63472 0.0
C256 C 0.9397 0.26376 0.63678 0.0
C257 C 0.96235 0.27056 0.66231 0.0
C258 C 0.9707 0.2671 0.6555 0.0
C259 C 0.9726 0.26841 0.66654 0.0
C260 C 0.96642 0.27024 0.66739 0.0
C261 C 0.97484 0.26688 0.66057 0.0
C262 C 0.9645 0.26892 0.65636 0.0
C263 C 0.95597 0.27284 0.66332 0.0
O264 O 0.93909 0.28048 0.65836 0.0
O265 O 0.93684 0.27218 0.66387 0.0
O266 O 0.95178 0.26858 0.66466 0.0
O267 O 0.95398 0.27705 0.65935 0.0
H268 H 0.94456 0.28089 0.67127 0.0
H269 H 0.94365 0.28788 0.68023 0.0
H270 H 0.92429 0.29109 0.67571 0.0
H271 H 0.92529 0.28416 0.66669 0.0
H272 H 0.92269 0.26341 0.64288 0.0
H273 H 0.93125 0.26549 0.6501 0.0
H274 H 0.93591 0.26202 0.62774 0.0
H275 H 0.94444 0.26386 0.63504 0.0
H276 H 0.97227 0.26589 0.65086 0.0
H277 H 0.97567 0.26837 0.67053 0.0
H278 H 0.96484 0.27151 0.67201 0.0
H279 H 0.9614 0.26911 0.65238 0.0
C280 C 0.73411 0.93508 0.66715 0.0
C281 C 0.73528 0.93834 0.6727 0.0
C282 C 0.72556 0.9345 0.67711 0.0
C283 C 0.73106 0.93801 0.67765 0.0
C284 C 0.72443 0.9312 0.67156 0.0
C285 C 0.72869 0.93148 0.66664 0.0
U286 U 0.74477 0.94493 0.65708 0.0
O287 O 0.75365 0.94274 0.65245 0.0
O288 O 0.74557 0.94562 0.64691 0.0
C289 C 0.75128 0.94342 0.64686 0.0
C290 C 0.73829 0.93568 0.66174 0.0
C291 C 0.75236 0.93821 0.64255 0.0
C292 C 0.74976 0.92788 0.6387 0.0
C293 C 0.74876 0.93276 0.64291 0.0
C294 C 0.75803 0.93382 0.63381 0.0
C295 C 0.75439 0.92837 0.63408 0.0
C296 C 0.75701 0.9387 0.63801 0.0
C297 C 0.74691 0.96212 0.6619 0.0
C298 C 0.7486 0.97138 0.65558 0.0
C299 C 0.75072 0.97166 0.66665 0.0
C300 C 0.74896 0.96542 0.66714 0.0
C301 C 0.75042 0.97477 0.66089 0.0
C302 C 0.74687 0.96511 0.65608 0.0
C303 C 0.74443 0.95577 0.66272 0.0
O304 O 0.7362 0.93929 0.65727 0.0
O305 O 0.74422 0.93658 0.66299 0.0
O306 O 0.7485 0.95142 0.66413 0.0
O307 O 0.74022 0.95394 0.65867 0.0
H308 H 0.7394 0.94123 0.67318 0.0
H309 H 0.73201 0.94066 0.68184 0.0
H310 H 0.72026 0.92841 0.67103 0.0
H311 H 0.72769 0.92895 0.66238 0.0
H312 H 0.74683 0.92378 0.639 0.0
H313 H 0.74515 0.9323 0.64641 0.0
H314 H 0.76169 0.93432 0.63038 0.0
H315 H 0.75986 0.94286 0.6377 0.0
H316 H 0.74827 0.97363 0.65108 0.0
H317 H 0.75222 0.97409 0.6708 0.0
H318 H 0.74905 0.9632 0.67167 0.0
H319 H 0.74533 0.96266 0.65195 0.0
C320 C 0.34705 0.08148 0.2804 0.0
C321 C 0.3438 0.07603 0.28197 0.0
C322 C 0.33694 0.08197 0.28877 0.0
C323 C 0.33879 0.07627 0.28611 0.0
C324 C 0.34012 0.08745 0.28705 0.0
C325 C 0.34516 0.08719 0.28291 0.0
U326 U 0.35809 0.07156 0.27112 0.0
O327 O 0.36292 0.0731 0.26221 0.0
O328 O 0.36831 0.07138 0.27071 0.0
C329 C 0.36846 0.07298 0.26481 0.0
C330 C 0.35259 0.08111 0.2764 0.0
C331 C 0.37256 0.07828 0.26338 0.0
C332 C 0.37555 0.0891 0.26483 0.0
C333 C 0.3714 0.08419 0.26592 0.0
C334 C 0.38196 0.08227 0.25854 0.0
C335 C 0.38092 0.08818 0.26118 0.0
C336 C 0.37782 0.07736 0.25964 0.0
C337 C 0.3543 0.05396 0.27124 0.0
C338 C 0.35991 0.04585 0.26567 0.0
C339 C 0.35217 0.04309 0.27341 0.0
C340 C 0.351 0.04938 0.2745 0.0
C341 C 0.35668 0.04124 0.26903 0.0
C342 C 0.35875 0.05218 0.26679 0.0
C343 C 0.35308 0.06052 0.27274 0.0
O344 O 0.35732 0.07816 0.2789 0.0
O345 O 0.35152 0.07943 0.27061 0.0
O346 O 0.35164 0.06419 0.26806 0.0
O347 O 0.35696 0.06308 0.27672 0.0
H348 H 0.3452 0.07157 0.28006 0.0
H349 H 0.33638 0.07198 0.28727 0.0
H350 H 0.33884 0.0919 0.28905 0.0
H351 H 0.34764 0.09144 0.28176 0.0
H352 H 0.37463 0.09357 0.26698 0.0
H353 H 0.36736 0.08496 0.26884 0.0
H354 H 0.386 0.08142 0.25563 0.0
H355 H 0.37877 0.07283 0.25763 0.0
H356 H 0.36342 0.04455 0.26228 0.0
H357 H 0.34952 0.03965 0.276 0.0
H358 H 0.34754 0.05068 0.27794 0.0
H359 H 0.36136 0.05568 0.26424 0.0
C360 C 0.93533 0.34756 0.28123 0.0
C361 C 0.94069 0.34398 0.28228 0.0
C362 C 0.935 0.33745 0.2896 0.0
C363 C 0.94053 0.33897 0.28642 0.0
C364 C 0.9296 0.34098 0.28844 0.0
C365 C 0.92978 0.34601 0.28429 0.0
U366 U 0.94472 0.35817 0.27084 0.0
O367 O 0.94239 0.36279 0.26199 0.0
O368 O 0.94503 0.36837 0.27014 0.0
C369 C 0.94287 0.3684 0.26442 0.0
C370 C 0.9356 0.35302 0.27714 0.0
C371 C 0.93756 0.37256 0.26331 0.0
C372 C 0.9273 0.37644 0.26612 0.0
C373 C 0.93221 0.37226 0.26706 0.0
C374 C 0.93298 0.38115 0.25758 0.0
C375 C 0.92765 0.38097 0.2614 0.0
C376 C 0.93789 0.37699 0.25854 0.0
C377 C 0.96209 0.3542 0.26883 0.0
C378 C 0.97057 0.36126 0.26627 0.0
C379 C 0.97217 0.3501 0.26576 0.0
C380 C 0.966 0.34913 0.26758 0.0
C381 C 0.97456 0.35618 0.26518 0.0
C382 C 0.96437 0.36028 0.26805 0.0
C383 C 0.95578 0.353 0.27125 0.0
O384 O 0.93896 0.35767 0.27929 0.0
O385 O 0.93667 0.35182 0.27124 0.0
O386 O 0.95154 0.35145 0.26712 0.0
O387 O 0.95374 0.35695 0.27547 0.0
H388 H 0.94502 0.34511 0.27994 0.0
H389 H 0.94474 0.33629 0.28715 0.0
H390 H 0.92529 0.33998 0.29086 0.0
H391 H 0.9256 0.34874 0.28355 0.0
H392 H 0.9233 0.37621 0.26919 0.0
H393 H 0.93188 0.36886 0.27077 0.0
H394 H 0.93336 0.3845 0.25384 0.0
H395 H 0.94197 0.37725 0.25558 0.0
H396 H 0.97226 0.366 0.26579 0.0
H397 H 0.97513 0.34608 0.26504 0.0
H398 H 0.96432 0.3444 0.26817 0.0
H399 H 0.96141 0.36427 0.26895 0.0
C400 C 0.66804 0.93538 0.28141 0.0
C401 C 0.67202 0.94048 0.28235 0.0
C402 C 0.6781 0.93448 0.28979 0.0
C403 C 0.67701 0.94003 0.28649 0.0
C404 C 0.67413 0.92935 0.28875 0.0
C405 C 0.66914 0.92981 0.2846 0.0
U406 U 0.65784 0.94538 0.27118 0.0
O407 O 0.65319 0.94347 0.26227 0.0
O408 O 0.64764 0.946 0.27047 0.0
C409 C 0.64758 0.944 0.26469 0.0
C410 C 0.6626 0.93596 0.27731 0.0
C411 C 0.6433 0.9388 0.26345 0.0
C412 C 0.64094 0.92772 0.26337 0.0
C413 C 0.64511 0.93261 0.2645 0.0
C414 C 0.63309 0.93518 0.26019 0.0
C415 C 0.63487 0.92895 0.2612 0.0
C416 C 0.63727 0.94005 0.2613 0.0
C417 C 0.66258 0.9626 0.26949 0.0
C418 C 0.65595 0.97097 0.26577 0.0
C419 C 0.66695 0.97284 0.26751 0.0
C420 C 0.66769 0.96665 0.26936 0.0
C421 C 0.66105 0.9751 0.26575 0.0
C422 C 0.65671 0.96476 0.26761 0.0
C423 C 0.66347 0.95623 0.27184 0.0
O424 O 0.6581 0.93948 0.27952 0.0
O425 O 0.66386 0.93709 0.27143 0.0
O426 O 0.66487 0.95199 0.26765 0.0
O427 O 0.65936 0.95431 0.27595 0.0
H428 H 0.6712 0.94484 0.27994 0.0
H429 H 0.67992 0.94409 0.28724 0.0
H430 H 0.67488 0.92498 0.29116 0.0
H431 H 0.6661 0.92583 0.28392 0.0
H432 H 0.64249 0.92299 0.26414 0.0
H433 H 0.64974 0.93156 0.26619 0.0
H434 H 0.62843 0.93631 0.25864 0.0
H435 H 0.63578 0.94481 0.26051 0.0
H436 H 0.65136 0.97256 0.26439 0.0
H437 H 0.67096 0.9759 0.26764 0.0
H438 H 0.67226 0.96506 0.27082 0.0
H439 H 0.65271 0.96168 0.26766 0.0
C440 C 0.08156 0.67032 0.28036 0.0
C441 C 0.07618 0.67329 0.28258 0.0
C442 C 0.08255 0.68082 0.28821 0.0
C443 C 0.07667 0.67848 0.28648 0.0
C444 C 0.08792 0.67788 0.28586 0.0
C445 C 0.08743 0.67267 0.28198 0.0
U446 U 0.07156 0.65886 0.27148 0.0
O447 O 0.07316 0.65392 0.26263 0.0
O448 O 0.07167 0.64864 0.27124 0.0
C449 C 0.07321 0.64842 0.26533 0.0
C450 C 0.08105 0.66469 0.2765 0.0
C451 C 0.07857 0.64443 0.26388 0.0
C452 C 0.08941 0.64155 0.26538 0.0
C453 C 0.08444 0.64564 0.26647 0.0
C454 C 0.08269 0.6351 0.259 0.0
C455 C 0.08856 0.63619 0.2617 0.0
C456 C 0.07773 0.63919 0.26009 0.0
C457 C 0.05382 0.66175 0.27141 0.0
C458 C 0.04552 0.65993 0.2639 0.0
C459 C 0.04325 0.65971 0.27494 0.0
C460 C 0.04949 0.66099 0.27625 0.0
C461 C 0.04119 0.6592 0.26875 0.0
C462 C 0.05179 0.66117 0.26521 0.0
C463 C 0.06031 0.66341 0.273 0.0
O464 O 0.07818 0.65999 0.27918 0.0
O465 O 0.07924 0.66563 0.27073 0.0
O466 O 0.06401 0.66506 0.2684 0.0
O467 O 0.06305 0.65979 0.2771 0.0
H468 H 0.0716 0.67152 0.28138 0.0
H469 H 0.07243 0.68057 0.28827 0.0
H470 H 0.09252 0.6796 0.28703 0.0
H471 H 0.09162 0.67044 0.28028 0.0
H472 H 0.09385 0.6425 0.26758 0.0
H473 H 0.08515 0.64967 0.26943 0.0
H474 H 0.0819 0.63108 0.25606 0.0
H475 H 0.07323 0.6382 0.25805 0.0
H476 H 0.04407 0.65953 0.25909 0.0
H477 H 0.04 0.65927 0.27878 0.0
H478 H 0.05092 0.66148 0.28106 0.0
H479 H 0.05502 0.66173 0.26138 0.0
C480 C 0.34776 0.93553 0.73347 0.0
C481 C 0.34414 0.94083 0.73224 0.0
C482 C 0.33742 0.93474 0.72541 0.0
C483 C 0.33902 0.94044 0.72824 0.0
C484 C 0.34102 0.92943 0.72675 0.0
C485 C 0.34615 0.92983 0.73074 0.0
U486 U 0.35843 0.94532 0.74346 0.0
O487 O 0.36327 0.94332 0.75224 0.0
O488 O 0.36867 0.94574 0.7439 0.0
C489 C 0.36882 0.94373 0.74967 0.0
C490 C 0.35331 0.93601 0.73743 0.0
C491 C 0.37306 0.93847 0.75083 0.0
C492 C 0.37504 0.92736 0.75174 0.0
C493 C 0.37092 0.93229 0.75066 0.0
C494 C 0.38349 0.93474 0.75307 0.0
C495 C 0.38138 0.92852 0.75296 0.0
C496 C 0.37936 0.93966 0.75202 0.0
C497 C 0.35413 0.96262 0.74539 0.0
C498 C 0.36107 0.97101 0.74851 0.0
C499 C 0.34993 0.97275 0.7481 0.0
C500 C 0.34903 0.96659 0.7462 0.0
C501 C 0.35596 0.97506 0.74921 0.0
C502 C 0.36016 0.96482 0.74664 0.0
C503 C 0.35304 0.95628 0.74301 0.0
O504 O 0.35782 0.93944 0.73511 0.0
O505 O 0.35222 0.93715 0.74334 0.0
O506 O 0.35163 0.95205 0.7472 0.0
O507 O 0.35698 0.95429 0.73877 0.0
H508 H 0.34534 0.94529 0.73429 0.0
H509 H 0.3364 0.94464 0.72726 0.0
H510 H 0.33987 0.92496 0.72471 0.0
H511 H 0.34889 0.9257 0.73166 0.0
H512 H 0.37323 0.92265 0.75169 0.0
H513 H 0.36607 0.93128 0.7497 0.0
H514 H 0.38835 0.93581 0.75388 0.0
H515 H 0.3811 0.9444 0.75212 0.0
H516 H 0.36577 0.97263 0.74938 0.0
H517 H 0.3459 0.97577 0.74851 0.0
H518 H 0.34434 0.96497 0.74525 0.0
H519 H 0.36416 0.9618 0.74607 0.0
C520 C 0.08082 0.34692 0.73464 0.0
C521 C 0.07552 0.34325 0.73357 0.0
C522 C 0.08137 0.3367 0.72641 0.0
C523 C 0.07579 0.33818 0.72951 0.0
C524 C 0.08671 0.34032 0.72759 0.0
C525 C 0.08643 0.34541 0.73167 0.0
U526 U 0.07092 0.35795 0.74401 0.0
O527 O 0.07258 0.36276 0.75291 0.0
O528 O 0.07077 0.36817 0.74444 0.0
C529 C 0.07247 0.3683 0.75031 0.0
C530 C 0.08041 0.35248 0.7386 0.0
C531 C 0.07786 0.3723 0.75167 0.0
C532 C 0.08862 0.37529 0.74982 0.0
C533 C 0.08359 0.37131 0.74868 0.0
C534 C 0.08229 0.38122 0.75704 0.0
C535 C 0.08802 0.38031 0.75399 0.0
C536 C 0.07725 0.37725 0.75588 0.0
C537 C 0.05335 0.35418 0.74433 0.0
C538 C 0.0454 0.36061 0.7492 0.0
C539 C 0.04244 0.35152 0.74318 0.0
C540 C 0.0487 0.35025 0.742 0.0
C541 C 0.04071 0.35676 0.74672 0.0
C542 C 0.05169 0.35934 0.74799 0.0
C543 C 0.05985 0.35291 0.74263 0.0
O544 O 0.07736 0.35716 0.7361 0.0
O545 O 0.07882 0.35144 0.74442 0.0
O546 O 0.06363 0.35147 0.74722 0.0
O547 O 0.06231 0.3568 0.7386 0.0
H548 H 0.07114 0.34437 0.73583 0.0
H549 H 0.07162 0.33544 0.72877 0.0
H550 H 0.09106 0.33934 0.72524 0.0
H551 H 0.09056 0.34822 0.73242 0.0
H552 H 0.093 0.37442 0.74745 0.0
H553 H 0.08414 0.36749 0.74543 0.0
H554 H 0.08165 0.38508 0.76023 0.0
H555 H 0.07286 0.37808 0.75822 0.0
H556 H 0.0442 0.3647 0.75191 0.0
H557 H 0.03894 0.34841 0.74129 0.0
H558 H 0.0499 0.34624 0.73919 0.0
H559 H 0.05525 0.36244 0.7498 0.0
C560 C 0.66842 0.0807 0.73328 0.0
C561 C 0.67184 0.07528 0.73201 0.0
C562 C 0.67873 0.08112 0.72515 0.0
C563 C 0.67695 0.07549 0.72798 0.0
C564 C 0.67534 0.08657 0.72653 0.0
C565 C 0.67022 0.08635 0.73055 0.0
U566 U 0.65772 0.07127 0.74355 0.0
O567 O 0.65291 0.07356 0.7523 0.0
O568 O 0.6475 0.07086 0.74406 0.0
C569 C 0.64735 0.07301 0.74979 0.0
C570 C 0.66288 0.0804 0.73728 0.0
C571 C 0.64311 0.07827 0.75082 0.0
C572 C 0.64025 0.08912 0.74929 0.0
C573 C 0.64444 0.0842 0.74841 0.0
C574 C 0.63339 0.08222 0.75502 0.0
C575 C 0.63466 0.08817 0.75257 0.0
C576 C 0.63758 0.07732 0.75415 0.0
C577 C 0.66185 0.05399 0.7458 0.0
C578 C 0.65478 0.04563 0.74874 0.0
C579 C 0.66594 0.0439 0.74886 0.0
C580 C 0.66692 0.05003 0.74691 0.0
C581 C 0.65986 0.0416 0.74972 0.0
C582 C 0.65577 0.05179 0.74683 0.0
C583 C 0.66303 0.06026 0.74331 0.0
O584 O 0.65831 0.07696 0.73508 0.0
O585 O 0.66399 0.07939 0.74321 0.0
O586 O 0.66447 0.06457 0.74742 0.0
O587 O 0.65913 0.06221 0.73902 0.0
H588 H 0.67052 0.07087 0.7341 0.0
H589 H 0.67951 0.07123 0.72709 0.0
H590 H 0.67656 0.09097 0.72438 0.0
H591 H 0.66761 0.09057 0.73147 0.0
H592 H 0.64134 0.09362 0.74729 0.0
H593 H 0.64869 0.085 0.7458 0.0
H594 H 0.62917 0.08136 0.75765 0.0
H595 H 0.63649 0.07277 0.75605 0.0
H596 H 0.65005 0.04401 0.74942 0.0
H597 H 0.66994 0.0409 0.74948 0.0
H598 H 0.67164 0.05165 0.74613 0.0
H599 H 0.65179 0.05479 0.74603 0.0
C600 C 0.93581 0.6684 0.73376 0.0
C601 C 0.9409 0.67246 0.73307 0.0
C602 C 0.93518 0.67846 0.72535 0.0
C603 C 0.94058 0.67745 0.72891 0.0
C604 C 0.93007 0.67442 0.72613 0.0
C605 C 0.93039 0.66943 0.7303 0.0
U606 U 0.94543 0.65805 0.74424 0.0
O607 O 0.94313 0.6534 0.75308 0.0
O608 O 0.94592 0.64786 0.74496 0.0
C609 C 0.94371 0.6478 0.75066 0.0
C610 C 0.93625 0.66297 0.73788 0.0
C611 C 0.93843 0.64357 0.7517 0.0
C612 C 0.92813 0.63977 0.74892 0.0
C613 C 0.93303 0.64398 0.74805 0.0
C614 C 0.93393 0.63478 0.75721 0.0
C615 C 0.92854 0.63508 0.75349 0.0
C616 C 0.93883 0.63899 0.75631 0.0
C617 C 0.96268 0.66228 0.74633 0.0
C618 C 0.97047 0.65534 0.75069 0.0
C619 C 0.97327 0.66591 0.74788 0.0
C620 C 0.96715 0.66702 0.74596 0.0
C621 C 0.97502 0.66004 0.75019 0.0
C622 C 0.96434 0.65646 0.74878 0.0
C623 C 0.95641 0.66344 0.74386 0.0
O624 O 0.93974 0.65842 0.73575 0.0
O625 O 0.93727 0.66422 0.74378 0.0
O626 O 0.95212 0.66491 0.74796 0.0
O627 O 0.95447 0.65943 0.73965 0.0
H628 H 0.94515 0.67169 0.73568 0.0
H629 H 0.94463 0.68042 0.72837 0.0
H630 H 0.92581 0.67512 0.72351 0.0
H631 H 0.92642 0.66634 0.73077 0.0
H632 H 0.92409 0.64009 0.74593 0.0
H633 H 0.93265 0.64751 0.74446 0.0
H634 H 0.93436 0.6313 0.76083 0.0
H635 H 0.94295 0.63863 0.7592 0.0
H636 H 0.97166 0.65079 0.75251 0.0
H637 H 0.97667 0.66961 0.74734 0.0
H638 H 0.96595 0.67153 0.74406 0.0
H639 H 0.96092 0.65275 0.74911 0.0
C640 C 0.28173 0.34741 0.08 0.0
C641 C 0.28328 0.34411 0.07459 0.0
C642 C 0.28989 0.33715 0.0806 0.0
C643 C 0.28733 0.33903 0.07488 0.0
C644 C 0.28821 0.3404 0.08604 0.0
C645 C 0.28417 0.34551 0.08574 0.0
U646 U 0.27184 0.35823 0.07034 0.0
O647 O 0.26299 0.36299 0.07233 0.0
O648 O 0.27134 0.36846 0.07011 0.0
C649 C 0.26552 0.36856 0.07201 0.0
C650 C 0.27773 0.35295 0.07963 0.0
C651 C 0.26426 0.3727 0.07731 0.0
C652 C 0.26475 0.37503 0.08837 0.0
C653 C 0.26587 0.37097 0.08339 0.0
C654 C 0.26043 0.3826 0.08121 0.0
C655 C 0.26202 0.3809 0.08733 0.0
C656 C 0.26153 0.37853 0.07625 0.0
C657 C 0.27036 0.35432 0.05295 0.0
C658 C 0.2663 0.36135 0.04508 0.0
C659 C 0.26896 0.35072 0.04235 0.0
C660 C 0.27073 0.34959 0.04849 0.0
C661 C 0.26677 0.35662 0.04054 0.0
C662 C 0.26807 0.3602 0.05124 0.0
C663 C 0.27259 0.35307 0.05929 0.0
O664 O 0.28007 0.35757 0.07638 0.0
O665 O 0.27184 0.35184 0.07835 0.0
O666 O 0.2683 0.35157 0.06339 0.0
O667 O 0.27675 0.35701 0.06146 0.0
H668 H 0.28141 0.34551 0.07012 0.0
H669 H 0.28846 0.33657 0.07063 0.0
H670 H 0.29015 0.33911 0.09051 0.0
H671 H 0.28303 0.34802 0.08996 0.0
H672 H 0.26598 0.37355 0.09302 0.0
H673 H 0.26799 0.36648 0.08428 0.0
H674 H 0.25842 0.38712 0.08022 0.0
H675 H 0.26031 0.37995 0.07157 0.0
H676 H 0.26458 0.36592 0.04385 0.0
H677 H 0.26947 0.34701 0.03897 0.0
H678 H 0.27251 0.34503 0.04973 0.0
H679 H 0.26773 0.36391 0.05465 0.0
C680 C 0.282 0.66825 0.93477 0.0
C681 C 0.28082 0.67391 0.93785 0.0
C682 C 0.29048 0.67825 0.93378 0.0
C683 C 0.285 0.67888 0.93732 0.0
C684 C 0.29161 0.67259 0.93067 0.0
C685 C 0.28739 0.66765 0.93115 0.0
U686 U 0.27174 0.65803 0.94497 0.0
O687 O 0.26286 0.65327 0.9431 0.0
O688 O 0.27114 0.64781 0.94558 0.0
C689 C 0.26537 0.6477 0.94355 0.0
C690 C 0.27786 0.66282 0.93555 0.0
C691 C 0.26421 0.64341 0.93832 0.0
C692 C 0.26284 0.64144 0.92726 0.0
C693 C 0.2638 0.64561 0.93218 0.0
C694 C 0.26276 0.63284 0.93456 0.0
C695 C 0.26234 0.635 0.9284 0.0
C696 C 0.26367 0.63701 0.93947 0.0
C697 C 0.27013 0.66264 0.96218 0.0
C698 C 0.2645 0.65655 0.96988 0.0
C699 C 0.26995 0.66595 0.97297 0.0
C700 C 0.27185 0.66687 0.96683 0.0
C701 C 0.26626 0.66077 0.97459 0.0
C702 C 0.26642 0.65748 0.96372 0.0
C703 C 0.27243 0.66362 0.95583 0.0
O704 O 0.28011 0.65835 0.93907 0.0
O705 O 0.27195 0.66402 0.93667 0.0
O706 O 0.2682 0.66499 0.95162 0.0
O707 O 0.27655 0.65954 0.95387 0.0
H708 H 0.27672 0.67445 0.94074 0.0
H709 H 0.28405 0.68316 0.93982 0.0
H710 H 0.29576 0.672 0.92787 0.0
H711 H 0.2884 0.66332 0.92876 0.0
H712 H 0.2626 0.64324 0.92256 0.0
H713 H 0.26428 0.65053 0.93117 0.0
H714 H 0.26234 0.62791 0.93558 0.0
H715 H 0.26399 0.63523 0.94418 0.0
H716 H 0.26162 0.65254 0.97096 0.0
H717 H 0.27149 0.66923 0.97648 0.0
H718 H 0.27475 0.67086 0.96572 0.0
H719 H 0.26505 0.65417 0.96017 0.0
C720 C 0.34666 0.28075 0.93393 0.0
C721 C 0.34299 0.28173 0.93924 0.0
C722 C 0.33638 0.2889 0.93347 0.0
C723 C 0.33789 0.28575 0.93901 0.0
C724 C 0.34 0.28779 0.92812 0.0
C725 C 0.34512 0.28376 0.92836 0.0
U726 U 0.35793 0.27183 0.94389 0.0
O727 O 0.3629 0.26298 0.94244 0.0
O728 O 0.36815 0.27162 0.94402 0.0
C729 C 0.3684 0.2657 0.94249 0.0
C730 C 0.35229 0.27688 0.93433 0.0
C731 C 0.37249 0.26424 0.9372 0.0
C732 C 0.37585 0.26607 0.92656 0.0
C733 C 0.3717 0.26722 0.93145 0.0
C734 C 0.38152 0.25883 0.93309 0.0
C735 C 0.38086 0.26191 0.92735 0.0
C736 C 0.37737 0.26 0.93797 0.0
C737 C 0.35432 0.27213 0.9615 0.0
C738 C 0.35908 0.26587 0.96965 0.0
C739 C 0.35319 0.27513 0.97233 0.0
C740 C 0.35198 0.27618 0.96604 0.0
C741 C 0.35678 0.26999 0.97421 0.0
C742 C 0.35789 0.26696 0.96333 0.0
C743 C 0.35299 0.27351 0.95494 0.0
O744 O 0.35697 0.27954 0.93722 0.0
O745 O 0.35135 0.27108 0.93607 0.0
O746 O 0.35159 0.26876 0.95134 0.0
O747 O 0.35675 0.27755 0.9523 0.0
H748 H 0.34413 0.27945 0.94359 0.0
H749 H 0.33514 0.28642 0.94319 0.0
H750 H 0.33901 0.29019 0.9238 0.0
H751 H 0.34794 0.28308 0.92423 0.0
H752 H 0.37524 0.26858 0.92223 0.0
H753 H 0.36794 0.27052 0.93078 0.0
H754 H 0.38525 0.25552 0.93382 0.0
H755 H 0.37803 0.25764 0.94238 0.0
H756 H 0.36188 0.26189 0.97097 0.0
H757 H 0.35126 0.27832 0.97572 0.0
H758 H 0.34921 0.28018 0.96472 0.0
H759 H 0.35976 0.26379 0.95987 0.0
C760 C 0.73496 0.34804 0.93468 0.0
C761 C 0.7357 0.34288 0.93861 0.0
C762 C 0.72677 0.33777 0.9338 0.0
C763 C 0.73167 0.33778 0.93815 0.0
C764 C 0.72608 0.34296 0.92984 0.0
C765 C 0.73015 0.34803 0.93028 0.0
U766 U 0.74515 0.35844 0.94466 0.0
O767 O 0.75394 0.36331 0.94258 0.0
O768 O 0.74566 0.36864 0.94534 0.0
C769 C 0.7514 0.36885 0.94321 0.0
C770 C 0.73896 0.35357 0.93533 0.0
C771 C 0.75242 0.37316 0.938 0.0
C772 C 0.75004 0.37668 0.92753 0.0
C773 C 0.74914 0.37245 0.9324 0.0
C774 C 0.75757 0.38231 0.93379 0.0
C775 C 0.75423 0.38169 0.92818 0.0
C776 C 0.75666 0.37808 0.93866 0.0
C777 C 0.74717 0.3539 0.96181 0.0
C778 C 0.75148 0.36074 0.96974 0.0
C779 C 0.74854 0.35016 0.97237 0.0
C780 C 0.7467 0.34913 0.96622 0.0
C781 C 0.75089 0.356 0.97422 0.0
C782 C 0.74965 0.3597 0.96357 0.0
C783 C 0.74477 0.35283 0.95551 0.0
O784 O 0.73668 0.35798 0.93892 0.0
O785 O 0.7449 0.35247 0.93634 0.0
O786 O 0.74895 0.35153 0.95122 0.0
O787 O 0.74052 0.35679 0.95362 0.0
H788 H 0.73936 0.34281 0.94208 0.0
H789 H 0.73239 0.33384 0.94122 0.0
H790 H 0.72231 0.34317 0.92651 0.0
H791 H 0.72947 0.35201 0.92725 0.0
H792 H 0.74735 0.3761 0.92331 0.0
H793 H 0.74585 0.36866 0.93183 0.0
H794 H 0.7609 0.38604 0.93441 0.0
H795 H 0.75925 0.37867 0.94294 0.0
H796 H 0.75333 0.36527 0.971 0.0
H797 H 0.74793 0.34644 0.97572 0.0
H798 H 0.74478 0.34464 0.96494 0.0
H799 H 0.75006 0.36343 0.96021 0.0
C800 C 0.66922 0.73502 0.93419 0.0
C801 C 0.67321 0.73398 0.93925 0.0
C802 C 0.6794 0.72681 0.933 0.0
C803 C 0.67827 0.72992 0.93866 0.0
C804 C 0.67542 0.72794 0.92792 0.0
C805 C 0.67037 0.73201 0.92852 0.0
U806 U 0.65858 0.74435 0.94462 0.0
O807 O 0.65378 0.75329 0.94318 0.0
O808 O 0.64837 0.74482 0.94508 0.0
C809 C 0.64822 0.75071 0.94343 0.0
C810 C 0.66371 0.739 0.93491 0.0
C811 C 0.64407 0.75213 0.93819 0.0
C812 C 0.64073 0.75038 0.92753 0.0
C813 C 0.64486 0.74918 0.93242 0.0
C814 C 0.63506 0.75759 0.93411 0.0
C815 C 0.63575 0.75457 0.92833 0.0
C816 C 0.63918 0.75637 0.93899 0.0
C817 C 0.66276 0.74459 0.96204 0.0
C818 C 0.65649 0.74948 0.9701 0.0
C819 C 0.66556 0.74339 0.97289 0.0
C820 C 0.66673 0.74221 0.96662 0.0
C821 C 0.66038 0.74696 0.97472 0.0
C822 C 0.65765 0.74828 0.96379 0.0
C823 C 0.6639 0.74289 0.95552 0.0
O824 O 0.65914 0.73647 0.93811 0.0
O825 O 0.66485 0.7448 0.93652 0.0
O826 O 0.66528 0.74749 0.95172 0.0
O827 O 0.65994 0.73887 0.95314 0.0
H828 H 0.67236 0.73623 0.94368 0.0
H829 H 0.68119 0.72909 0.94268 0.0
H830 H 0.67621 0.72567 0.92349 0.0
H831 H 0.66732 0.73276 0.92457 0.0
H832 H 0.64136 0.74792 0.92317 0.0
H833 H 0.64862 0.74588 0.93172 0.0
H834 H 0.63134 0.76091 0.93486 0.0
H835 H 0.63853 0.75871 0.94342 0.0
H836 H 0.65245 0.75222 0.97137 0.0
H837 H 0.66871 0.74147 0.97634 0.0
H838 H 0.6707 0.73937 0.96534 0.0
H839 H 0.65453 0.75013 0.96029 0.0
C840 C 0.73436 0.66896 0.0811 0.0
C841 C 0.73336 0.67293 0.07601 0.0
C842 C 0.72646 0.67939 0.08228 0.0
C843 C 0.72945 0.6781 0.0766 0.0
C844 C 0.72755 0.67543 0.08739 0.0
C845 C 0.73147 0.67026 0.0868 0.0
U846 U 0.74384 0.65841 0.07074 0.0
O847 O 0.75258 0.65332 0.07232 0.0
O848 O 0.74405 0.64818 0.06997 0.0
C849 C 0.74988 0.64784 0.07181 0.0
C850 C 0.73819 0.66334 0.08038 0.0
C851 C 0.75105 0.64344 0.07692 0.0
C852 C 0.75183 0.64109 0.08796 0.0
C853 C 0.75082 0.64537 0.08316 0.0
C854 C 0.75322 0.63288 0.08033 0.0
C855 C 0.753 0.63478 0.08659 0.0
C856 C 0.75226 0.63718 0.07554 0.0
C857 C 0.74509 0.66342 0.05352 0.0
C858 C 0.74755 0.65693 0.04458 0.0
C859 C 0.74691 0.66814 0.04343 0.0
C860 C 0.74556 0.66872 0.04975 0.0
C861 C 0.74779 0.66223 0.04073 0.0
C862 C 0.7462 0.65752 0.05093 0.0
C863 C 0.74308 0.6642 0.06001 0.0
O864 O 0.73569 0.65897 0.0769 0.0
O865 O 0.7441 0.66435 0.07909 0.0
O866 O 0.74749 0.66534 0.0641 0.0
O867 O 0.73885 0.66024 0.06202 0.0
H868 H 0.73553 0.67196 0.07156 0.0
H869 H 0.72865 0.68099 0.07255 0.0
H870 H 0.72538 0.67634 0.09185 0.0
H871 H 0.73219 0.66723 0.09077 0.0
H872 H 0.75156 0.64268 0.09273 0.0
H873 H 0.74983 0.65019 0.08432 0.0
H874 H 0.75419 0.62808 0.07913 0.0
H875 H 0.75244 0.6356 0.07075 0.0
H876 H 0.74819 0.65231 0.04264 0.0
H877 H 0.74718 0.67232 0.04062 0.0
H878 H 0.74474 0.67332 0.05168 0.0
H879 H 0.74587 0.65337 0.05378 0.0
C880 C 0.34814 0.73422 0.08002 0.0
C881 C 0.34505 0.7325 0.07453 0.0
C882 C 0.33817 0.72567 0.08043 0.0
C883 C 0.34011 0.72825 0.07473 0.0
C884 C 0.34121 0.72752 0.08594 0.0
C885 C 0.34617 0.73175 0.08573 0.0
U886 U 0.35853 0.7448 0.07061 0.0
O887 O 0.36294 0.75379 0.07285 0.0
O888 O 0.36871 0.74575 0.07029 0.0
C889 C 0.3686 0.7515 0.07239 0.0
C890 C 0.35351 0.73846 0.07976 0.0
C891 C 0.37273 0.75274 0.0777 0.0
C892 C 0.37643 0.75027 0.08809 0.0
C893 C 0.37229 0.74922 0.08318 0.0
C894 C 0.38141 0.75847 0.08213 0.0
C895 C 0.38109 0.75488 0.08761 0.0
C896 C 0.37728 0.7574 0.07723 0.0
C897 C 0.35453 0.7465 0.05327 0.0
C898 C 0.36142 0.75091 0.04545 0.0
C899 C 0.35092 0.74782 0.04266 0.0
C900 C 0.34983 0.74596 0.04878 0.0
C901 C 0.35675 0.75026 0.04089 0.0
C902 C 0.36031 0.74905 0.05159 0.0
C903 C 0.35337 0.7441 0.05956 0.0
O904 O 0.35823 0.7364 0.07644 0.0
O905 O 0.35216 0.74432 0.07863 0.0
O906 O 0.35173 0.74825 0.06375 0.0
O907 O 0.35745 0.74004 0.06163 0.0
H908 H 0.3465 0.73439 0.07009 0.0
H909 H 0.33782 0.727 0.07043 0.0
H910 H 0.33985 0.72558 0.09038 0.0
H911 H 0.34851 0.73303 0.09 0.0
H912 H 0.37609 0.74738 0.09221 0.0
H913 H 0.36879 0.74559 0.08362 0.0
H914 H 0.38486 0.76212 0.08164 0.0
H915 H 0.37766 0.76018 0.07303 0.0
H916 H 0.36594 0.75282 0.04425 0.0
H917 H 0.34726 0.74716 0.03926 0.0
H918 H 0.34535 0.74397 0.05 0.0
H919 H 0.36399 0.74951 0.05502 0.0
C920 C 0.66839 0.28162 0.07995 0.0
C921 C 0.67211 0.28269 0.07469 0.0
C922 C 0.67851 0.28999 0.08057 0.0
C923 C 0.67713 0.28683 0.07499 0.0
C924 C 0.67481 0.28882 0.08585 0.0
C925 C 0.66979 0.28467 0.08554 0.0
U926 U 0.65784 0.27122 0.07041 0.0
O927 O 0.65309 0.26242 0.07273 0.0
O928 O 0.64762 0.27062 0.07003 0.0
C929 C 0.64752 0.2649 0.0722 0.0
C930 C 0.66291 0.27754 0.07955 0.0
C931 C 0.64331 0.26388 0.07749 0.0
C932 C 0.64 0.26621 0.08805 0.0
C933 C 0.64418 0.26706 0.08313 0.0
C934 C 0.63409 0.25892 0.08177 0.0
C935 C 0.63487 0.26217 0.08741 0.0
C936 C 0.63827 0.25978 0.07686 0.0
C937 C 0.66195 0.26902 0.05307 0.0
C938 C 0.65566 0.26837 0.04367 0.0
C939 C 0.66605 0.26398 0.0438 0.0
C940 C 0.66674 0.26582 0.05 0.0
C941 C 0.66056 0.26535 0.04051 0.0
C942 C 0.65635 0.27017 0.04988 0.0
C943 C 0.66308 0.27149 0.05938 0.0
O944 O 0.65835 0.27971 0.07611 0.0
O945 O 0.6641 0.27162 0.07851 0.0
O946 O 0.66458 0.2674 0.06367 0.0
O947 O 0.65922 0.2758 0.06139 0.0
H948 H 0.67107 0.28038 0.07032 0.0
H949 H 0.67983 0.28768 0.07082 0.0
H950 H 0.67579 0.29111 0.09024 0.0
H951 H 0.66696 0.28389 0.08964 0.0
H952 H 0.6407 0.26883 0.0923 0.0
H953 H 0.64805 0.27026 0.08368 0.0
H954 H 0.63025 0.25569 0.08116 0.0
H955 H 0.63755 0.25726 0.07254 0.0
H956 H 0.65139 0.26956 0.04127 0.0
H957 H 0.66987 0.26156 0.04156 0.0
H958 H 0.6711 0.26487 0.05236 0.0
H959 H 0.65255 0.27263 0.05213 0.0
C960 C 0.93571 0.73416 0.66777 0.0
C961 C 0.94085 0.7335 0.67175 0.0
C962 C 0.93518 0.7258 0.67787 0.0
C963 C 0.94058 0.72936 0.67677 0.0
C964 C 0.93002 0.72656 0.6739 0.0
C965 C 0.93029 0.73071 0.66889 0.0
U966 U 0.94521 0.7446 0.65721 0.0
O967 O 0.94551 0.74529 0.64702 0.0
O968 O 0.94285 0.75345 0.65259 0.0
C969 C 0.9433 0.751 0.64699 0.0
C970 C 0.93609 0.73826 0.66231 0.0
C971 C 0.93792 0.75204 0.6429 0.0
C972 C 0.92775 0.74896 0.63899 0.0
C973 C 0.93276 0.74802 0.64304 0.0
C974 C 0.93294 0.75803 0.63471 0.0
C975 C 0.9278 0.75396 0.63476 0.0
C976 C 0.93796 0.75707 0.63874 0.0
C977 C 0.96254 0.74668 0.66113 0.0
C978 C 0.97047 0.75046 0.65399 0.0
C979 C 0.97304 0.74866 0.66482 0.0
C980 C 0.96691 0.7468 0.66597 0.0
C981 C 0.97492 0.75043 0.6588 0.0
C982 C 0.96432 0.74861 0.65515 0.0
C983 C 0.95627 0.74423 0.66238 0.0
O984 O 0.93715 0.74418 0.66353 0.0
O985 O 0.9395 0.73611 0.65772 0.0
O986 O 0.95425 0.74001 0.65843 0.0
O987 O 0.95202 0.74835 0.66391 0.0
H988 H 0.94509 0.73611 0.67092 0.0
H989 H 0.94465 0.72883 0.67969 0.0
H990 H 0.92577 0.72394 0.67466 0.0
H991 H 0.92629 0.73117 0.66585 0.0
H992 H 0.92383 0.74579 0.63919 0.0
H993 H 0.93263 0.74414 0.64626 0.0
H994 H 0.93315 0.76188 0.63147 0.0
H995 H 0.94191 0.76021 0.63857 0.0
H996 H 0.97176 0.75185 0.64932 0.0
H997 H 0.97636 0.7485 0.66861 0.0
H998 H 0.96562 0.74531 0.67061 0.0
H999 H 0.96099 0.74857 0.65136 0.0
C1000 C 0.28245 0.93575 0.66731 0.0
C1001 C 0.28365 0.94104 0.67095 0.0
C1002 C 0.29049 0.93497 0.67765 0.0
C1003 C 0.28763 0.94065 0.67608 0.0
C1004 C 0.2892 0.92966 0.67401 0.0
C1005 C 0.28521 0.93006 0.66888 0.0
U1006 U 0.27216 0.94533 0.65671 0.0
O1007 O 0.2716 0.94573 0.64651 0.0
O1008 O 0.26339 0.94298 0.65194 0.0
C1009 C 0.2659 0.94349 0.64639 0.0
C1010 C 0.27844 0.93618 0.66179 0.0
C1011 C 0.26494 0.93814 0.64222 0.0
C1012 C 0.26805 0.92797 0.63834 0.0
C1013 C 0.26892 0.93296 0.64244 0.0
C1014 C 0.25913 0.93323 0.63386 0.0
C1015 C 0.26316 0.92806 0.63398 0.0
C1016 C 0.26003 0.93823 0.63794 0.0
C1017 C 0.26986 0.96262 0.66087 0.0
C1018 C 0.26712 0.97107 0.65386 0.0
C1019 C 0.26665 0.97263 0.66502 0.0
C1020 C 0.26858 0.96649 0.66596 0.0
C1021 C 0.26599 0.97502 0.65897 0.0
C1022 C 0.26902 0.9649 0.65481 0.0
C1023 C 0.27237 0.95634 0.66203 0.0
O1024 O 0.27251 0.9372 0.66293 0.0
O1025 O 0.28066 0.93967 0.65728 0.0
O1026 O 0.27667 0.95441 0.65812 0.0
O1027 O 0.26827 0.95202 0.66347 0.0
H1028 H 0.28156 0.94548 0.66978 0.0
H1029 H 0.28858 0.94484 0.67873 0.0
H1030 H 0.29125 0.9252 0.67514 0.0
H1031 H 0.28432 0.92593 0.66612 0.0
H1032 H 0.27118 0.92403 0.6386 0.0
H1033 H 0.27271 0.9328 0.64576 0.0
H1034 H 0.25536 0.93347 0.63052 0.0
H1035 H 0.25691 0.94219 0.63771 0.0
H1036 H 0.26659 0.97276 0.64915 0.0
H1037 H 0.26589 0.97558 0.66905 0.0
H1038 H 0.26922 0.96481 0.67067 0.0
H1039 H 0.26995 0.96196 0.65081 0.0
C1040 C 0.08064 0.28244 0.66755 0.0
C1041 C 0.07537 0.28336 0.6713 0.0
C1042 C 0.08125 0.29039 0.67798 0.0
C1043 C 0.07567 0.28729 0.67647 0.0
C1044 C 0.08655 0.28936 0.67425 0.0
C1045 C 0.08624 0.28542 0.66907 0.0
U1046 U 0.07096 0.27235 0.65692 0.0
O1047 O 0.07042 0.27189 0.64672 0.0
O1048 O 0.0731 0.26359 0.65204 0.0
C1049 C 0.07254 0.26615 0.64651 0.0
C1050 C 0.08023 0.27851 0.66197 0.0
C1051 C 0.07779 0.26514 0.64224 0.0
C1052 C 0.08842 0.26728 0.63899 0.0
C1053 C 0.08351 0.26816 0.64319 0.0
C1054 C 0.08195 0.26029 0.63292 0.0
C1055 C 0.08769 0.26336 0.63379 0.0
C1056 C 0.07705 0.26118 0.63712 0.0
C1057 C 0.05372 0.27025 0.66145 0.0
C1058 C 0.04527 0.26702 0.65465 0.0
C1059 C 0.04357 0.26776 0.66577 0.0
C1060 C 0.04976 0.26962 0.66659 0.0
C1061 C 0.04124 0.26651 0.65979 0.0
C1062 C 0.05148 0.26886 0.65548 0.0
C1063 C 0.06006 0.27266 0.66245 0.0
O1064 O 0.07919 0.27256 0.66302 0.0
O1065 O 0.07674 0.28079 0.6575 0.0
O1066 O 0.06196 0.27693 0.6585 0.0
O1067 O 0.06434 0.2685 0.66376 0.0
H1068 H 0.07101 0.28107 0.67019 0.0
H1069 H 0.07153 0.28791 0.67929 0.0
H1070 H 0.0909 0.29172 0.67526 0.0
H1071 H 0.09034 0.28477 0.6662 0.0
H1072 H 0.09275 0.26976 0.63976 0.0
H1073 H 0.08415 0.27124 0.64713 0.0
H1074 H 0.08126 0.25717 0.62902 0.0
H1075 H 0.07267 0.25879 0.63634 0.0
H1076 H 0.04363 0.26603 0.64999 0.0
H1077 H 0.04057 0.26751 0.66982 0.0
H1078 H 0.0514 0.2707 0.67123 0.0
H1079 H 0.05449 0.2693 0.65145 0.0
C1080 C 0.73423 0.08071 0.66743 0.0
C1081 C 0.73293 0.07529 0.67083 0.0
C1082 C 0.72607 0.08113 0.67771 0.0
C1083 C 0.72889 0.07549 0.67592 0.0
C1084 C 0.72747 0.08658 0.67434 0.0
C1085 C 0.73151 0.08637 0.66923 0.0
U1086 U 0.74467 0.07132 0.6569 0.0
O1087 O 0.74535 0.07089 0.6467 0.0
O1088 O 0.7535 0.07365 0.65222 0.0
C1089 C 0.75106 0.07312 0.64664 0.0
C1090 C 0.73828 0.08043 0.66193 0.0
C1091 C 0.75205 0.07846 0.64249 0.0
C1092 C 0.74978 0.08912 0.63943 0.0
C1093 C 0.74891 0.0841 0.64349 0.0
C1094 C 0.757 0.08292 0.63336 0.0
C1095 C 0.75383 0.08857 0.63429 0.0
C1096 C 0.75612 0.07791 0.63742 0.0
C1097 C 0.74687 0.05401 0.66145 0.0
C1098 C 0.74836 0.04467 0.6552 0.0
C1099 C 0.75081 0.04453 0.6662 0.0
C1100 C 0.74907 0.05078 0.66667 0.0
C1101 C 0.75033 0.04135 0.66049 0.0
C1102 C 0.74664 0.05095 0.65567 0.0
C1103 C 0.7444 0.06036 0.66231 0.0
O1104 O 0.74421 0.07948 0.6631 0.0
O1105 O 0.73615 0.07696 0.65736 0.0
O1106 O 0.74018 0.06223 0.65829 0.0
O1107 O 0.74848 0.0647 0.66376 0.0
H1108 H 0.73502 0.07088 0.6695 0.0
H1109 H 0.72797 0.07123 0.67846 0.0
H1110 H 0.72533 0.09098 0.67557 0.0
H1111 H 0.73246 0.0906 0.66665 0.0
H1112 H 0.74732 0.09343 0.64032 0.0
H1113 H 0.74576 0.08461 0.64741 0.0
H1114 H 0.76009 0.08231 0.62941 0.0
H1115 H 0.75856 0.07357 0.63657 0.0
H1116 H 0.7479 0.04236 0.65074 0.0
H1117 H 0.75242 0.04216 0.67034 0.0
H1118 H 0.7493 0.05306 0.67117 0.0
H1119 H 0.74497 0.05334 0.65157 0.0
C1120 C 0.93604 0.28207 0.34749 0.0
C1121 C 0.94138 0.28326 0.34393 0.0
C1122 C 0.93554 0.29041 0.33737 0.0
C1123 C 0.94114 0.28739 0.33892 0.0
C1124 C 0.93016 0.28912 0.3409 0.0
C1125 C 0.93042 0.28498 0.34593 0.0
U1126 U 0.94564 0.27174 0.3579 0.0
O1127 O 0.94608 0.27097 0.36808 0.0
O1128 O 0.94352 0.26281 0.36247 0.0
C1129 C 0.94403 0.26519 0.36808 0.0
C1130 C 0.93639 0.27796 0.35294 0.0
C1131 C 0.93877 0.26398 0.37229 0.0
C1132 C 0.92819 0.26608 0.37573 0.0
C1133 C 0.93309 0.26712 0.37155 0.0
C1134 C 0.93458 0.25868 0.38134 0.0
C1135 C 0.9289 0.26188 0.38071 0.0
C1136 C 0.93947 0.25973 0.37717 0.0
C1137 C 0.96295 0.27006 0.35359 0.0
C1138 C 0.9707 0.26497 0.36006 0.0
C1139 C 0.97366 0.26931 0.35007 0.0
C1140 C 0.96752 0.27121 0.34909 0.0
C1141 C 0.97534 0.2662 0.35558 0.0
C1142 C 0.96454 0.26689 0.35906 0.0
C1143 C 0.95662 0.27241 0.35254 0.0
O1144 O 0.9375 0.27206 0.35169 0.0
O1145 O 0.93978 0.28012 0.35754 0.0
O1146 O 0.95461 0.27651 0.35662 0.0
O1147 O 0.95241 0.26822 0.35104 0.0
H1148 H 0.94577 0.28103 0.34507 0.0
H1149 H 0.94534 0.28821 0.33624 0.0
H1150 H 0.92579 0.29141 0.33987 0.0
H1151 H 0.92625 0.28413 0.34865 0.0
H1152 H 0.9239 0.26867 0.37514 0.0
H1153 H 0.93247 0.27043 0.3678 0.0
H1154 H 0.93525 0.25534 0.38506 0.0
H1155 H 0.94382 0.25725 0.37778 0.0
H1156 H 0.97183 0.26254 0.36433 0.0
H1157 H 0.97712 0.27043 0.34658 0.0
H1158 H 0.96637 0.27369 0.34485 0.0
H1159 H 0.96104 0.26596 0.36258 0.0
C1160 C 0.73348 0.93533 0.34765 0.0
C1161 C 0.7326 0.94044 0.34369 0.0
C1162 C 0.72512 0.9345 0.33757 0.0
C1163 C 0.72847 0.94003 0.33868 0.0
C1164 C 0.72608 0.92936 0.34153 0.0
C1165 C 0.73022 0.92978 0.34653 0.0
U1166 U 0.74405 0.94507 0.35782 0.0
O1167 O 0.74486 0.94567 0.36799 0.0
O1168 O 0.75293 0.94281 0.36241 0.0
C1169 C 0.75055 0.94341 0.36802 0.0
C1170 C 0.73761 0.93583 0.35306 0.0
C1171 C 0.75154 0.93809 0.3722 0.0
C1172 C 0.74853 0.92786 0.37601 0.0
C1173 C 0.74765 0.93283 0.37191 0.0
C1174 C 0.75729 0.93327 0.38065 0.0
C1175 C 0.75335 0.92803 0.38045 0.0
C1176 C 0.75638 0.93826 0.37656 0.0
C1177 C 0.74614 0.96232 0.35306 0.0
C1178 C 0.74787 0.9716 0.35934 0.0
C1179 C 0.74973 0.9719 0.34822 0.0
C1180 C 0.74803 0.96563 0.34777 0.0
C1181 C 0.74952 0.97501 0.35399 0.0
C1182 C 0.74619 0.96531 0.35888 0.0
C1183 C 0.74369 0.95595 0.35227 0.0
O1184 O 0.74352 0.93681 0.35177 0.0
O1185 O 0.73552 0.93941 0.35757 0.0
O1186 O 0.73951 0.95411 0.35635 0.0
O1187 O 0.74777 0.95162 0.35083 0.0
H1188 H 0.73506 0.94477 0.34451 0.0
H1189 H 0.72778 0.94409 0.33578 0.0
H1190 H 0.72363 0.92502 0.34075 0.0
H1191 H 0.73085 0.92579 0.34955 0.0
H1192 H 0.74547 0.92386 0.37569 0.0
H1193 H 0.74391 0.9326 0.36853 0.0
H1194 H 0.761 0.93358 0.38405 0.0
H1195 H 0.75943 0.94228 0.37684 0.0
H1196 H 0.74762 0.97386 0.36384 0.0
H1197 H 0.7511 0.97435 0.34403 0.0
H1198 H 0.74804 0.96341 0.34324 0.0
H1199 H 0.74477 0.96285 0.36304 0.0
C1200 C 0.08196 0.7363 0.34589 0.0
C1201 C 0.07658 0.73417 0.34287 0.0
C1202 C 0.08292 0.72844 0.33541 0.0
C1203 C 0.07705 0.73027 0.33768 0.0
C1204 C 0.08831 0.7307 0.33839 0.0
C1205 C 0.08783 0.73459 0.3436 0.0
U1206 U 0.07187 0.74494 0.35738 0.0
O1207 O 0.07189 0.74501 0.36759 0.0
O1208 O 0.07332 0.75374 0.36247 0.0
C1209 C 0.07336 0.75095 0.36791 0.0
C1210 C 0.08145 0.74011 0.35154 0.0
C1211 C 0.07868 0.75239 0.37196 0.0
C1212 C 0.08947 0.75081 0.37499 0.0
C1213 C 0.08455 0.74974 0.37085 0.0
C1214 C 0.08273 0.75732 0.38128 0.0
C1215 C 0.08859 0.75455 0.3803 0.0
C1216 C 0.07782 0.75624 0.37715 0.0
C1217 C 0.05417 0.74463 0.35428 0.0
C1218 C 0.04595 0.75167 0.35767 0.0
C1219 C 0.04347 0.74101 0.35486 0.0
C1220 C 0.04973 0.7399 0.35354 0.0
C1221 C 0.0415 0.7469 0.35693 0.0
C1222 C 0.05225 0.75053 0.35638 0.0
C1223 C 0.06071 0.74326 0.3527 0.0
O1224 O 0.07958 0.74587 0.35067 0.0
O1225 O 0.07862 0.73735 0.35622 0.0
O1226 O 0.06348 0.73916 0.35629 0.0
O1227 O 0.0643 0.748 0.35121 0.0
H1228 H 0.07201 0.73543 0.34459 0.0
H1229 H 0.07281 0.72855 0.33556 0.0
H1230 H 0.0929 0.72946 0.33672 0.0
H1231 H 0.09203 0.73622 0.34587 0.0
H1232 H 0.09389 0.74856 0.37412 0.0
H1233 H 0.08528 0.74674 0.36686 0.0
H1234 H 0.08193 0.76031 0.38526 0.0
H1235 H 0.07332 0.75834 0.37806 0.0
H1236 H 0.04456 0.75624 0.35928 0.0
H1237 H 0.04014 0.73728 0.35414 0.0
H1238 H 0.05111 0.73533 0.35189 0.0
H1239 H 0.05559 0.75426 0.35701 0.0
C1240 C 0.28179 0.08105 0.3469 0.0
C1241 C 0.28333 0.07563 0.3436 0.0
C1242 C 0.29005 0.08164 0.33671 0.0
C1243 C 0.28742 0.07592 0.33855 0.0
C1244 C 0.28839 0.08708 0.33997 0.0
C1245 C 0.2843 0.08678 0.34504 0.0
U1246 U 0.27165 0.07145 0.35758 0.0
O1247 O 0.27093 0.07121 0.36777 0.0
O1248 O 0.26271 0.07357 0.36217 0.0
C1249 C 0.26514 0.07321 0.36777 0.0
C1250 C 0.2777 0.0807 0.35237 0.0
C1251 C 0.26387 0.07853 0.37191 0.0
C1252 C 0.26667 0.08863 0.37619 0.0
C1253 C 0.26783 0.08373 0.37204 0.0
C1254 C 0.2575 0.08324 0.37997 0.0
C1255 C 0.26152 0.08843 0.38024 0.0
C1256 C 0.25867 0.07834 0.37585 0.0
C1257 C 0.27011 0.05402 0.35374 0.0
C1258 C 0.2664 0.04604 0.36085 0.0
C1259 C 0.26845 0.04346 0.35006 0.0
C1260 C 0.27019 0.04962 0.34892 0.0
C1261 C 0.26661 0.04157 0.35606 0.0
C1262 C 0.26813 0.05222 0.3597 0.0
C1263 C 0.27238 0.06036 0.35248 0.0
O1264 O 0.27183 0.07945 0.35118 0.0
O1265 O 0.27994 0.07744 0.35703 0.0
O1266 O 0.27651 0.06253 0.35644 0.0
O1267 O 0.26814 0.06448 0.35091 0.0
H1268 H 0.2814 0.07117 0.34497 0.0
H1269 H 0.28853 0.07166 0.33608 0.0
H1270 H 0.29038 0.09155 0.33871 0.0
H1271 H 0.28317 0.09101 0.34755 0.0
H1272 H 0.2699 0.09251 0.37631 0.0
H1273 H 0.27185 0.08397 0.36901 0.0
H1274 H 0.25343 0.08298 0.38294 0.0
H1275 H 0.25555 0.07437 0.37577 0.0
H1276 H 0.26495 0.04474 0.3655 0.0
H1277 H 0.26875 0.04013 0.34629 0.0
H1278 H 0.27173 0.05093 0.3443 0.0
H1279 H 0.26802 0.05558 0.36347 0.0
C1280 C 0.66794 0.93642 0.73273 0.0
C1281 C 0.66918 0.94149 0.72879 0.0
C1282 C 0.67796 0.93596 0.72425 0.0
C1283 C 0.67412 0.94124 0.72456 0.0
C1284 C 0.6768 0.93094 0.7283 0.0
C1285 C 0.6718 0.93116 0.73248 0.0
U1286 U 0.65761 0.94548 0.74381 0.0
O1287 O 0.64745 0.94555 0.745 0.0
O1288 O 0.65345 0.94288 0.75282 0.0
C1289 C 0.64774 0.94325 0.75066 0.0
C1290 C 0.66267 0.9366 0.73713 0.0
C1291 C 0.6438 0.93775 0.75175 0.0
C1292 C 0.64072 0.92717 0.74916 0.0
C1293 C 0.64467 0.93228 0.74828 0.0
C1294 C 0.63506 0.93292 0.75706 0.0
C1295 C 0.63584 0.92744 0.75353 0.0
C1296 C 0.63901 0.93803 0.75617 0.0
C1297 C 0.66144 0.96291 0.74591 0.0
C1298 C 0.65448 0.97128 0.74905 0.0
C1299 C 0.66564 0.97298 0.7489 0.0
C1300 C 0.66654 0.96685 0.74692 0.0
C1301 C 0.65959 0.9753 0.7499 0.0
C1302 C 0.6554 0.96512 0.74709 0.0
C1303 C 0.66256 0.95666 0.74333 0.0
O1304 O 0.66416 0.93761 0.74298 0.0
O1305 O 0.6578 0.93982 0.7353 0.0
O1306 O 0.65843 0.95462 0.7393 0.0
O1307 O 0.66437 0.95238 0.74731 0.0
H1308 H 0.66632 0.94565 0.72895 0.0
H1309 H 0.67496 0.94521 0.72156 0.0
H1310 H 0.67968 0.9268 0.72814 0.0
H1311 H 0.67094 0.92722 0.73551 0.0
H1312 H 0.64148 0.923 0.74643 0.0
H1313 H 0.64837 0.93199 0.74486 0.0
H1314 H 0.63131 0.93331 0.76041 0.0
H1315 H 0.63826 0.94223 0.75886 0.0
H1316 H 0.64977 0.97291 0.74984 0.0
H1317 H 0.66967 0.97597 0.74943 0.0
H1318 H 0.67124 0.96523 0.74602 0.0
H1319 H 0.65139 0.96213 0.74638 0.0
C1320 C 0.08 0.66861 0.73374 0.0
C1321 C 0.07447 0.67174 0.73223 0.0
C1322 C 0.08024 0.67889 0.72558 0.0
C1323 C 0.07459 0.67682 0.72818 0.0
C1324 C 0.08579 0.6758 0.7272 0.0
C1325 C 0.08566 0.67069 0.73124 0.0
U1326 U 0.07086 0.65786 0.74422 0.0
O1327 O 0.07069 0.64766 0.74493 0.0
O1328 O 0.07335 0.65329 0.75305 0.0
C1329 C 0.07296 0.64768 0.75062 0.0
C1330 C 0.07984 0.66313 0.73782 0.0
C1331 C 0.0784 0.64365 0.75161 0.0
C1332 C 0.08855 0.63981 0.74839 0.0
C1333 C 0.08348 0.6438 0.7475 0.0
C1334 C 0.08358 0.63559 0.7576 0.0
C1335 C 0.08864 0.63564 0.75344 0.0
C1336 C 0.0785 0.63955 0.75668 0.0
C1337 C 0.05348 0.66173 0.74639 0.0
C1338 C 0.0456 0.65468 0.75044 0.0
C1339 C 0.04297 0.66543 0.74825 0.0
C1340 C 0.04909 0.66654 0.74633 0.0
C1341 C 0.04113 0.65947 0.75025 0.0
C1342 C 0.05174 0.6558 0.74853 0.0
C1343 C 0.05974 0.66294 0.74391 0.0
O1344 O 0.07883 0.66432 0.74373 0.0
O1345 O 0.07651 0.65845 0.73571 0.0
O1346 O 0.06175 0.65896 0.73971 0.0
O1347 O 0.06402 0.66452 0.748 0.0
H1348 H 0.07006 0.6702 0.73415 0.0
H1349 H 0.07025 0.67915 0.72709 0.0
H1350 H 0.09021 0.67724 0.72523 0.0
H1351 H 0.08997 0.66832 0.73236 0.0
H1352 H 0.09241 0.64001 0.74515 0.0
H1353 H 0.08351 0.64697 0.74358 0.0
H1354 H 0.08348 0.63239 0.76149 0.0
H1355 H 0.07461 0.63938 0.7599 0.0
H1356 H 0.04433 0.65005 0.75201 0.0
H1357 H 0.03964 0.66921 0.74795 0.0
H1358 H 0.05036 0.67114 0.74467 0.0
H1359 H 0.05509 0.65203 0.74863 0.0
C1360 C 0.34781 0.08088 0.7336 0.0
C1361 C 0.3444 0.07552 0.73205 0.0
C1362 C 0.33751 0.0817 0.7255 0.0
C1363 C 0.3393 0.07592 0.72803 0.0
C1364 C 0.34089 0.08707 0.72717 0.0
C1365 C 0.34601 0.08666 0.73119 0.0
U1366 U 0.35841 0.07111 0.74366 0.0
O1367 O 0.36864 0.0706 0.74404 0.0
O1368 O 0.36333 0.0732 0.75239 0.0
C1369 C 0.36886 0.07269 0.74979 0.0
C1370 C 0.35336 0.08041 0.73756 0.0
C1371 C 0.37315 0.07794 0.75082 0.0
C1372 C 0.37529 0.08906 0.75122 0.0
C1373 C 0.3711 0.08413 0.75035 0.0
C1374 C 0.38362 0.08165 0.75296 0.0
C1375 C 0.38161 0.08787 0.7525 0.0
C1376 C 0.37942 0.07673 0.75213 0.0
C1377 C 0.35396 0.05386 0.74568 0.0
C1378 C 0.36083 0.0455 0.74898 0.0
C1379 C 0.34972 0.04368 0.74817 0.0
C1380 C 0.34885 0.04984 0.74629 0.0
C1381 C 0.35573 0.04141 0.74947 0.0
C1382 C 0.35995 0.05169 0.74712 0.0
C1383 C 0.35291 0.06019 0.74329 0.0
O1384 O 0.35226 0.07932 0.74348 0.0
O1385 O 0.35785 0.07693 0.73527 0.0
O1386 O 0.35685 0.06212 0.73903 0.0
O1387 O 0.35158 0.06446 0.74748 0.0
H1388 H 0.34575 0.07101 0.73386 0.0
H1389 H 0.33687 0.07168 0.72677 0.0
H1390 H 0.33959 0.0916 0.72538 0.0
H1391 H 0.34859 0.09084 0.73236 0.0
H1392 H 0.37362 0.0938 0.75078 0.0
H1393 H 0.36628 0.08516 0.74927 0.0
H1394 H 0.38844 0.08058 0.75401 0.0
H1395 H 0.38108 0.07198 0.7525 0.0
H1396 H 0.36551 0.04391 0.75 0.0
H1397 H 0.3457 0.04063 0.74842 0.0
H1398 H 0.34419 0.05144 0.74519 0.0
H1399 H 0.36395 0.05475 0.7467 0.0
C1400 C 0.93445 0.34762 0.73425 0.0
C1401 C 0.93963 0.34379 0.73316 0.0
C1402 C 0.93347 0.33725 0.72625 0.0
C1403 C 0.93915 0.33865 0.7292 0.0
C1404 C 0.92826 0.34106 0.72743 0.0
C1405 C 0.92876 0.3462 0.7314 0.0
U1406 U 0.94467 0.35848 0.74355 0.0
O1407 O 0.94511 0.3687 0.74385 0.0
O1408 O 0.94306 0.36346 0.75237 0.0
C1409 C 0.94336 0.36896 0.7497 0.0
C1410 C 0.93506 0.35321 0.73814 0.0
C1411 C 0.93811 0.37316 0.75098 0.0
C1412 C 0.92756 0.37666 0.74887 0.0
C1413 C 0.93243 0.37247 0.74782 0.0
C1414 C 0.93394 0.38218 0.75637 0.0
C1415 C 0.92827 0.3816 0.75312 0.0
C1416 C 0.93881 0.378 0.7553 0.0
C1417 C 0.96211 0.35435 0.74409 0.0
C1418 C 0.97011 0.36074 0.74893 0.0
C1419 C 0.97299 0.35154 0.74305 0.0
C1420 C 0.96672 0.35033 0.74184 0.0
C1421 C 0.97477 0.3568 0.74654 0.0
C1422 C 0.96381 0.35954 0.74769 0.0
C1423 C 0.95561 0.35317 0.74233 0.0
O1424 O 0.93657 0.35219 0.74398 0.0
O1425 O 0.93827 0.35776 0.7356 0.0
O1426 O 0.95328 0.35704 0.73822 0.0
O1427 O 0.95174 0.35187 0.7469 0.0
H1428 H 0.94408 0.34485 0.7353 0.0
H1429 H 0.94326 0.33587 0.72833 0.0
H1430 H 0.9238 0.34006 0.72529 0.0
H1431 H 0.92471 0.34912 0.7322 0.0
H1432 H 0.92329 0.37611 0.74624 0.0
H1433 H 0.93181 0.36874 0.74447 0.0
H1434 H 0.93461 0.38587 0.75974 0.0
H1435 H 0.94316 0.37858 0.7578 0.0
H1436 H 0.97134 0.36484 0.7516 0.0
H1437 H 0.97646 0.34836 0.74123 0.0
H1438 H 0.96548 0.34631 0.73906 0.0
H1439 H 0.96029 0.3627 0.74944 0.0
C1440 C 0.66796 0.08111 0.28199 0.0
C1441 C 0.67174 0.07592 0.28316 0.0
C1442 C 0.67834 0.08215 0.28997 0.0
C1443 C 0.67688 0.07643 0.28712 0.0
C1444 C 0.67457 0.08736 0.28872 0.0
C1445 C 0.66942 0.08684 0.28476 0.0
U1446 U 0.65758 0.07113 0.27189 0.0
O1447 O 0.64737 0.07042 0.27138 0.0
O1448 O 0.65273 0.07314 0.26311 0.0
C1449 C 0.64718 0.0725 0.26563 0.0
C1450 C 0.66243 0.08052 0.27803 0.0
C1451 C 0.64285 0.07769 0.26457 0.0
C1452 C 0.63974 0.08844 0.26625 0.0
C1453 C 0.64398 0.08358 0.26716 0.0
C1454 C 0.63323 0.08156 0.26011 0.0
C1455 C 0.63429 0.08747 0.26274 0.0
C1456 C 0.63747 0.07671 0.26102 0.0
C1457 C 0.66233 0.05396 0.26988 0.0
C1458 C 0.65561 0.04556 0.26632 0.0
C1459 C 0.66668 0.04379 0.26758 0.0
C1460 C 0.66746 0.04997 0.26949 0.0
C1461 C 0.66074 0.0415 0.26604 0.0
C1462 C 0.6564 0.05176 0.26821 0.0
C1463 C 0.66326 0.06031 0.27229 0.0
O1464 O 0.66356 0.07946 0.27211 0.0
O1465 O 0.658 0.07695 0.2803 0.0
O1466 O 0.65924 0.06217 0.27652 0.0
O1467 O 0.66455 0.0646 0.26813 0.0
H1468 H 0.67066 0.07145 0.28107 0.0
H1469 H 0.67963 0.0723 0.28804 0.0
H1470 H 0.6756 0.09185 0.29078 0.0
H1471 H 0.66655 0.0909 0.28389 0.0
H1472 H 0.64067 0.09291 0.26839 0.0
H1473 H 0.64812 0.0844 0.26994 0.0
H1474 H 0.62912 0.08068 0.25731 0.0
H1475 H 0.63654 0.07219 0.25898 0.0
H1476 H 0.65098 0.04395 0.26511 0.0
H1477 H 0.67072 0.04077 0.26751 0.0
H1478 H 0.67207 0.05159 0.27078 0.0
H1479 H 0.65238 0.0548 0.26846 0.0
C1480 C 0.93465 0.66945 0.28003 0.0
C1481 C 0.93971 0.67355 0.28063 0.0
C1482 C 0.93387 0.67978 0.2881 0.0
C1483 C 0.93932 0.67868 0.28462 0.0
C1484 C 0.92878 0.67571 0.28739 0.0
C1485 C 0.92917 0.67058 0.28339 0.0
U1486 U 0.94462 0.65834 0.27068 0.0
O1487 O 0.94487 0.64809 0.27063 0.0
O1488 O 0.94281 0.65319 0.26202 0.0
C1489 C 0.94304 0.64774 0.2648 0.0
C1490 C 0.9352 0.66379 0.27621 0.0
C1491 C 0.93773 0.64356 0.26365 0.0
C1492 C 0.92659 0.64165 0.26305 0.0
C1493 C 0.93158 0.64572 0.26408 0.0
C1494 C 0.93385 0.63321 0.26124 0.0
C1495 C 0.92766 0.63534 0.26162 0.0
C1496 C 0.93883 0.63729 0.26224 0.0
C1497 C 0.96208 0.66214 0.26935 0.0
C1498 C 0.97046 0.65481 0.26729 0.0
C1499 C 0.97247 0.66592 0.26694 0.0
C1500 C 0.96623 0.66708 0.26837 0.0
C1501 C 0.97468 0.65977 0.26649 0.0
C1502 C 0.9642 0.65599 0.26868 0.0
C1503 C 0.95568 0.66352 0.27138 0.0
O1504 O 0.93659 0.6647 0.27033 0.0
O1505 O 0.93845 0.6593 0.27878 0.0
O1506 O 0.9534 0.65983 0.2757 0.0
O1507 O 0.95167 0.66483 0.26696 0.0
H1508 H 0.944 0.6727 0.27811 0.0
H1509 H 0.94335 0.68168 0.28512 0.0
H1510 H 0.9245 0.67646 0.28995 0.0
H1511 H 0.92523 0.66744 0.28298 0.0
H1512 H 0.92189 0.64347 0.26332 0.0
H1513 H 0.93064 0.65055 0.2652 0.0
H1514 H 0.93486 0.62836 0.26026 0.0
H1515 H 0.94356 0.63553 0.26195 0.0
H1516 H 0.97201 0.65002 0.2669 0.0
H1517 H 0.97561 0.66984 0.26643 0.0
H1518 H 0.96467 0.67186 0.26887 0.0
H1519 H 0.96105 0.6521 0.26938 0.0
C1520 C 0.34711 0.9345 0.28084 0.0
C1521 C 0.34375 0.93987 0.28243 0.0
C1522 C 0.33665 0.93368 0.28875 0.0
C1523 C 0.33857 0.93947 0.28635 0.0
C1524 C 0.33999 0.92829 0.28706 0.0
C1525 C 0.34518 0.9287 0.28314 0.0
U1526 U 0.35816 0.94457 0.27168 0.0
O1527 O 0.36838 0.94487 0.27136 0.0
O1528 O 0.36309 0.94299 0.26282 0.0
C1529 C 0.3686 0.94315 0.26549 0.0
C1530 C 0.35272 0.93498 0.27696 0.0
C1531 C 0.37268 0.93781 0.26416 0.0
C1532 C 0.37662 0.92753 0.26678 0.0
C1533 C 0.37255 0.93248 0.26794 0.0
C1534 C 0.38086 0.9331 0.25793 0.0
C1535 C 0.38085 0.9278 0.26178 0.0
C1536 C 0.37682 0.93807 0.25913 0.0
C1537 C 0.35409 0.96211 0.27155 0.0
C1538 C 0.35987 0.9703 0.26627 0.0
C1539 C 0.3515 0.97295 0.27338 0.0
C1540 C 0.35043 0.96664 0.27448 0.0
C1541 C 0.35628 0.97486 0.26932 0.0
C1542 C 0.35881 0.96395 0.26741 0.0
C1543 C 0.35298 0.95555 0.27311 0.0
O1544 O 0.35172 0.93659 0.27114 0.0
O1545 O 0.35734 0.93806 0.27953 0.0
O1546 O 0.35686 0.95312 0.27716 0.0
O1547 O 0.35165 0.9518 0.26846 0.0
H1548 H 0.3452 0.94439 0.28071 0.0
H1549 H 0.33618 0.94372 0.28762 0.0
H1550 H 0.33858 0.92375 0.28877 0.0
H1551 H 0.34772 0.92451 0.28195 0.0
H1552 H 0.37644 0.92348 0.26978 0.0
H1553 H 0.36934 0.93217 0.27182 0.0
H1554 H 0.3841 0.93347 0.25408 0.0
H1555 H 0.37698 0.94215 0.25616 0.0
H1556 H 0.36359 0.97165 0.26314 0.0
H1557 H 0.34859 0.97634 0.27571 0.0
H1558 H 0.34676 0.96529 0.27768 0.0
H1559 H 0.36169 0.9605 0.26513 0.0
C1560 C 0.08064 0.34747 0.28101 0.0
C1561 C 0.07531 0.34407 0.28266 0.0
C1562 C 0.0816 0.33713 0.28904 0.0
C1563 C 0.07578 0.33895 0.28664 0.0
C1564 C 0.08695 0.3405 0.28726 0.0
C1565 C 0.08647 0.34563 0.28328 0.0
U1566 U 0.07075 0.35829 0.27126 0.0
O1567 O 0.0704 0.36853 0.27096 0.0
O1568 O 0.07271 0.36324 0.26252 0.0
C1569 C 0.07234 0.36876 0.26517 0.0
C1570 C 0.08011 0.35305 0.2771 0.0
C1571 C 0.07759 0.373 0.26401 0.0
C1572 C 0.08871 0.3751 0.26353 0.0
C1573 C 0.08378 0.37097 0.26459 0.0
C1574 C 0.08132 0.38334 0.26136 0.0
C1575 C 0.08754 0.38135 0.26189 0.0
C1576 C 0.0764 0.3792 0.26239 0.0
C1577 C 0.0534 0.35422 0.26948 0.0
C1578 C 0.04491 0.36131 0.26712 0.0
C1579 C 0.04335 0.35016 0.26626 0.0
C1580 C 0.04951 0.34916 0.26808 0.0
C1581 C 0.04095 0.35624 0.26584 0.0
C1582 C 0.05109 0.36031 0.2689 0.0
C1583 C 0.05974 0.35299 0.27178 0.0
O1584 O 0.07886 0.35201 0.2712 0.0
O1585 O 0.07675 0.35756 0.27951 0.0
O1586 O 0.06184 0.35682 0.27607 0.0
O1587 O 0.06392 0.35159 0.26752 0.0
H1588 H 0.07077 0.34545 0.28095 0.0
H1589 H 0.07156 0.33652 0.28797 0.0
H1590 H 0.09151 0.33918 0.28895 0.0
H1591 H 0.09063 0.34821 0.28204 0.0
H1592 H 0.09344 0.37339 0.26392 0.0
H1593 H 0.08479 0.36619 0.26587 0.0
H1594 H 0.08024 0.38814 0.26023 0.0
H1595 H 0.07165 0.38086 0.26198 0.0
H1596 H 0.0432 0.36605 0.26677 0.0
H1597 H 0.0404 0.34615 0.26539 0.0
H1598 H 0.05121 0.34443 0.26852 0.0
H1599 H 0.05404 0.36428 0.26992 0.0
C1600 C 0.73376 0.66813 0.93397 0.0
C1601 C 0.73285 0.67211 0.93907 0.0
C1602 C 0.72582 0.67854 0.93293 0.0
C1603 C 0.72893 0.67727 0.93855 0.0
C1604 C 0.7268 0.67455 0.92781 0.0
C1605 C 0.73074 0.66939 0.92834 0.0
U1606 U 0.74358 0.65767 0.94409 0.0
O1607 O 0.7441 0.64746 0.94471 0.0
O1608 O 0.75245 0.65285 0.94226 0.0
C1609 C 0.7499 0.6473 0.94272 0.0
C1610 C 0.7377 0.66258 0.93459 0.0
C1611 C 0.75103 0.64311 0.93743 0.0
C1612 C 0.74902 0.64002 0.92674 0.0
C1613 C 0.74803 0.6441 0.93172 0.0
C1614 C 0.75609 0.63397 0.93312 0.0
C1615 C 0.75305 0.63489 0.92739 0.0
C1616 C 0.75508 0.63804 0.9381 0.0
C1617 C 0.7449 0.66263 0.96136 0.0
C1618 C 0.74741 0.65623 0.97035 0.0
C1619 C 0.74674 0.66745 0.9714 0.0
C1620 C 0.74537 0.66796 0.96508 0.0
C1621 C 0.74764 0.66157 0.97414 0.0
C1622 C 0.74604 0.65675 0.96399 0.0
C1623 C 0.74281 0.66334 0.95488 0.0
O1624 O 0.7436 0.66369 0.9358 0.0
O1625 O 0.73533 0.65813 0.93806 0.0
O1626 O 0.73868 0.65927 0.95291 0.0
O1627 O 0.74715 0.66462 0.95075 0.0
H1628 H 0.73513 0.67118 0.94347 0.0
H1629 H 0.72821 0.68019 0.9426 0.0
H1630 H 0.72454 0.67543 0.9234 0.0
H1631 H 0.7314 0.66635 0.92436 0.0
H1632 H 0.74667 0.6409 0.92238 0.0
H1633 H 0.7449 0.64801 0.93113 0.0
H1634 H 0.75916 0.63002 0.93379 0.0
H1635 H 0.75742 0.63721 0.94248 0.0
H1636 H 0.74806 0.65164 0.97233 0.0
H1637 H 0.747 0.67167 0.97417 0.0
H1638 H 0.74453 0.67254 0.96311 0.0
H1639 H 0.7457 0.65257 0.96118 0.0
C1640 C 0.7341 0.34787 0.0795 0.0
C1641 C 0.73299 0.34417 0.07424 0.0
C1642 C 0.72576 0.33773 0.08016 0.0
C1643 C 0.72886 0.33914 0.07456 0.0
C1644 C 0.72695 0.34143 0.08545 0.0
C1645 C 0.73109 0.34646 0.08511 0.0
U1646 U 0.74462 0.35832 0.06998 0.0
O1647 O 0.74539 0.36852 0.0696 0.0
O1648 O 0.75349 0.36292 0.07232 0.0
C1649 C 0.75109 0.36853 0.07183 0.0
C1650 C 0.73823 0.35332 0.07911 0.0
C1651 C 0.75212 0.37266 0.07719 0.0
C1652 C 0.74909 0.3765 0.08739 0.0
C1653 C 0.74819 0.37241 0.08241 0.0
C1654 C 0.75796 0.38104 0.08207 0.0
C1655 C 0.75397 0.38089 0.08726 0.0
C1656 C 0.75703 0.37697 0.07707 0.0
C1657 C 0.7467 0.35416 0.0527 0.0
C1658 C 0.75088 0.3611 0.04479 0.0
C1659 C 0.74841 0.35038 0.04219 0.0
C1660 C 0.7465 0.34933 0.04831 0.0
C1661 C 0.75055 0.3563 0.04033 0.0
C1662 C 0.74898 0.36003 0.05094 0.0
C1663 C 0.74422 0.35302 0.05897 0.0
O1664 O 0.74413 0.35206 0.07807 0.0
O1665 O 0.73611 0.3579 0.07566 0.0
O1666 O 0.74005 0.35704 0.06093 0.0
O1667 O 0.74833 0.35151 0.06325 0.0
H1668 H 0.73526 0.34522 0.06986 0.0
H1669 H 0.72799 0.33644 0.07039 0.0
H1670 H 0.7247 0.34043 0.08984 0.0
H1671 H 0.7319 0.34927 0.08922 0.0
H1672 H 0.74599 0.37622 0.09136 0.0
H1673 H 0.7444 0.36908 0.0826 0.0
H1674 H 0.76171 0.3844 0.0818 0.0
H1675 H 0.7601 0.37722 0.07308 0.0
H1676 H 0.75256 0.36568 0.04352 0.0
H1677 H 0.74801 0.34661 0.03887 0.0
H1678 H 0.74474 0.34478 0.04959 0.0
H1679 H 0.74918 0.36381 0.05428 0.0
C1680 C 0.66891 0.73488 0.08114 0.0
C1681 C 0.67286 0.73383 0.07605 0.0
C1682 C 0.67925 0.72688 0.08232 0.0
C1683 C 0.67799 0.72987 0.07663 0.0
C1684 C 0.6753 0.72802 0.08743 0.0
C1685 C 0.67017 0.73199 0.08684 0.0
U1686 U 0.65818 0.74409 0.07074 0.0
O1687 O 0.64797 0.74441 0.07022 0.0
O1688 O 0.65323 0.75296 0.07221 0.0
C1689 C 0.64772 0.7503 0.0719 0.0
C1690 C 0.66333 0.73878 0.08043 0.0
C1691 C 0.64347 0.75166 0.07709 0.0
C1692 C 0.63978 0.74963 0.08759 0.0
C1693 C 0.64402 0.74848 0.08277 0.0
C1694 C 0.63451 0.75724 0.08114 0.0
C1695 C 0.63494 0.75398 0.08682 0.0
C1696 C 0.63874 0.75607 0.07633 0.0
C1697 C 0.66246 0.74447 0.05334 0.0
C1698 C 0.65625 0.74943 0.0453 0.0
C1699 C 0.66528 0.74326 0.04248 0.0
C1700 C 0.66642 0.74207 0.04876 0.0
C1701 C 0.66014 0.74689 0.04067 0.0
C1702 C 0.65739 0.7482 0.0516 0.0
C1703 C 0.66359 0.74276 0.05986 0.0
O1704 O 0.66439 0.7446 0.07887 0.0
O1705 O 0.65882 0.73619 0.07721 0.0
O1706 O 0.65968 0.73867 0.0622 0.0
O1707 O 0.66487 0.74736 0.06369 0.0
H1708 H 0.67192 0.73599 0.07159 0.0
H1709 H 0.68088 0.72903 0.07258 0.0
H1710 H 0.67618 0.72584 0.09189 0.0
H1711 H 0.66716 0.73275 0.09081 0.0
H1712 H 0.64021 0.74699 0.09186 0.0
H1713 H 0.64766 0.74506 0.08344 0.0
H1714 H 0.63092 0.76069 0.08043 0.0
H1715 H 0.63828 0.75859 0.07198 0.0
H1716 H 0.65224 0.75221 0.04404 0.0
H1717 H 0.66841 0.74132 0.03904 0.0
H1718 H 0.67036 0.73918 0.05003 0.0
H1719 H 0.65428 0.75007 0.0551 0.0
C1720 C 0.28272 0.66772 0.07965 0.0
C1721 C 0.28442 0.67092 0.07421 0.0
C1722 C 0.29114 0.67779 0.08022 0.0
C1723 C 0.28859 0.6759 0.07449 0.0
C1724 C 0.28934 0.67464 0.08568 0.0
C1725 C 0.28517 0.66963 0.08538 0.0
U1726 U 0.27213 0.65743 0.07012 0.0
O1727 O 0.27113 0.64725 0.06974 0.0
O1728 O 0.26312 0.65304 0.07236 0.0
C1729 C 0.26541 0.64738 0.07193 0.0
C1730 C 0.2785 0.66234 0.07931 0.0
C1731 C 0.26425 0.64331 0.0773 0.0
C1732 C 0.26721 0.63938 0.08748 0.0
C1733 C 0.26824 0.64341 0.08248 0.0
C1734 C 0.25811 0.63521 0.08227 0.0
C1735 C 0.26215 0.63521 0.08742 0.0
C1736 C 0.25916 0.63922 0.07725 0.0
C1737 C 0.27051 0.66182 0.0528 0.0
C1738 C 0.26463 0.65594 0.04511 0.0
C1739 C 0.27035 0.66518 0.04204 0.0
C1740 C 0.27233 0.66601 0.04816 0.0
C1741 C 0.26649 0.66014 0.04042 0.0
C1742 C 0.26663 0.65678 0.05127 0.0
C1743 C 0.27287 0.66274 0.05914 0.0
O1744 O 0.27263 0.6637 0.07821 0.0
O1745 O 0.28055 0.65767 0.07593 0.0
O1746 O 0.27686 0.65855 0.06111 0.0
O1747 O 0.26872 0.66432 0.06336 0.0
H1748 H 0.28254 0.66952 0.06974 0.0
H1749 H 0.28982 0.67829 0.07022 0.0
H1750 H 0.29126 0.67595 0.09015 0.0
H1751 H 0.28391 0.6672 0.08962 0.0
H1752 H 0.27036 0.63955 0.09142 0.0
H1753 H 0.27217 0.64658 0.08262 0.0
H1754 H 0.25421 0.63201 0.08206 0.0
H1755 H 0.25604 0.63908 0.0733 0.0
H1756 H 0.26163 0.65203 0.04403 0.0
H1757 H 0.27197 0.66843 0.03854 0.0
H1758 H 0.27536 0.6699 0.04927 0.0
H1759 H 0.26519 0.65349 0.05481 0.0
C1760 C 0.34664 0.28065 0.08077 0.0
C1761 C 0.34332 0.28212 0.07535 0.0
C1762 C 0.3365 0.28897 0.08127 0.0
C1763 C 0.33829 0.28623 0.07559 0.0
C1764 C 0.33975 0.28736 0.08672 0.0
C1765 C 0.3448 0.28324 0.08646 0.0
U1766 U 0.35791 0.27162 0.07086 0.0
O1767 O 0.36813 0.27135 0.07081 0.0
O1768 O 0.36282 0.26274 0.07234 0.0
C1769 C 0.36833 0.26542 0.07232 0.0
C1770 C 0.35221 0.2767 0.08039 0.0
C1771 C 0.37238 0.26395 0.07762 0.0
C1772 C 0.37536 0.26539 0.08844 0.0
C1773 C 0.37123 0.2665 0.08352 0.0
C1774 C 0.38175 0.25906 0.08162 0.0
C1775 C 0.38071 0.26172 0.08752 0.0
C1776 C 0.37762 0.26017 0.07672 0.0
C1777 C 0.35456 0.27194 0.05321 0.0
C1778 C 0.35908 0.26544 0.0451 0.0
C1779 C 0.35387 0.27507 0.04239 0.0
C1780 C 0.35259 0.27617 0.04866 0.0
C1781 C 0.35714 0.26971 0.04053 0.0
C1782 C 0.35782 0.26656 0.05141 0.0
C1783 C 0.35313 0.27335 0.05975 0.0
O1784 O 0.35122 0.27092 0.0786 0.0
O1785 O 0.35697 0.27931 0.07755 0.0
O1786 O 0.35688 0.27736 0.06245 0.0
O1787 O 0.35163 0.26861 0.06334 0.0
H1788 H 0.34469 0.28015 0.0709 0.0
H1789 H 0.33583 0.28731 0.07133 0.0
H1790 H 0.33852 0.28943 0.09115 0.0
H1791 H 0.34734 0.28217 0.09068 0.0
H1792 H 0.37445 0.26756 0.0929 0.0
H1793 H 0.3672 0.26944 0.08429 0.0
H1794 H 0.38577 0.25613 0.08078 0.0
H1795 H 0.37857 0.25816 0.07219 0.0
H1796 H 0.36162 0.26128 0.0438 0.0
H1797 H 0.35221 0.2784 0.03898 0.0
H1798 H 0.35005 0.28033 0.04996 0.0
H1799 H 0.35941 0.26326 0.05487 0.0
C1800 C 0.28184 0.34747 0.93508 0.0
C1801 C 0.28285 0.34377 0.94036 0.0
C1802 C 0.28983 0.33707 0.93444 0.0
C1803 C 0.28681 0.33861 0.94004 0.0
C1804 C 0.28873 0.34075 0.92914 0.0
C1805 C 0.28477 0.34592 0.92946 0.0
U1806 U 0.27185 0.35827 0.94472 0.0
O1807 O 0.27131 0.36848 0.94501 0.0
O1808 O 0.26301 0.36301 0.94259 0.0
C1809 C 0.26555 0.36858 0.94294 0.0
C1810 C 0.27788 0.35303 0.93548 0.0
C1811 C 0.26444 0.37266 0.93757 0.0
C1812 C 0.26725 0.37634 0.92725 0.0
C1813 C 0.26825 0.37231 0.93226 0.0
C1814 C 0.25856 0.38101 0.93273 0.0
C1815 C 0.26241 0.38075 0.92743 0.0
C1816 C 0.25958 0.377 0.93776 0.0
C1817 C 0.27013 0.35427 0.96208 0.0
C1818 C 0.26588 0.36121 0.96995 0.0
C1819 C 0.26885 0.35068 0.97271 0.0
C1820 C 0.27064 0.34957 0.96656 0.0
C1821 C 0.2665 0.35653 0.97449 0.0
C1822 C 0.26767 0.36008 0.96378 0.0
C1823 C 0.27242 0.35306 0.95576 0.0
O1824 O 0.27197 0.35193 0.93667 0.0
O1825 O 0.2802 0.3576 0.93883 0.0
O1826 O 0.27662 0.35701 0.95367 0.0
O1827 O 0.26818 0.35159 0.9516 0.0
H1828 H 0.28062 0.3449 0.94474 0.0
H1829 H 0.28749 0.33582 0.94419 0.0
H1830 H 0.29103 0.33973 0.92477 0.0
H1831 H 0.28405 0.34875 0.92535 0.0
H1832 H 0.27025 0.37598 0.92321 0.0
H1833 H 0.272 0.36895 0.93202 0.0
H1834 H 0.25483 0.38439 0.93304 0.0
H1835 H 0.2566 0.37733 0.94182 0.0
H1836 H 0.26403 0.36575 0.97116 0.0
H1837 H 0.26949 0.347 0.9761 0.0
H1838 H 0.27256 0.34506 0.96533 0.0
H1839 H 0.26723 0.36377 0.96036 0.0
C1840 C 0.66793 0.28335 0.93474 0.0
C1841 C 0.66945 0.28733 0.9397 0.0
C1842 C 0.67839 0.29132 0.93394 0.0
C1843 C 0.67459 0.2913 0.93929 0.0
C1844 C 0.67687 0.28728 0.929 0.0
C1845 C 0.67168 0.28334 0.9294 0.0
U1846 U 0.65756 0.27307 0.94455 0.0
O1847 O 0.64739 0.27199 0.94491 0.0
O1848 O 0.65326 0.26394 0.94264 0.0
C1849 C 0.64758 0.26618 0.94298 0.0
C1850 C 0.66257 0.27908 0.93519 0.0
C1851 C 0.64351 0.26476 0.93767 0.0
C1852 C 0.6398 0.26705 0.92723 0.0
C1853 C 0.64393 0.2682 0.93213 0.0
C1854 C 0.63488 0.25889 0.93329 0.0
C1855 C 0.63518 0.26242 0.92778 0.0
C1856 C 0.63901 0.26007 0.93819 0.0
C1857 C 0.66185 0.27227 0.96199 0.0
C1858 C 0.6576 0.26514 0.96969 0.0
C1859 C 0.66418 0.27373 0.97293 0.0
C1860 C 0.66479 0.27561 0.96675 0.0
C1861 C 0.66063 0.26844 0.97448 0.0
C1862 C 0.65821 0.26704 0.96348 0.0
C1863 C 0.66275 0.27434 0.95554 0.0
O1864 O 0.66395 0.27327 0.93653 0.0
O1865 O 0.65777 0.2812 0.93836 0.0
O1866 O 0.65853 0.2782 0.95337 0.0
O1867 O 0.66441 0.27003 0.95151 0.0
H1868 H 0.66666 0.28738 0.94391 0.0
H1869 H 0.67554 0.29441 0.94315 0.0
H1870 H 0.67973 0.28709 0.92486 0.0
H1871 H 0.67061 0.28025 0.92555 0.0
H1872 H 0.64013 0.2699 0.92309 0.0
H1873 H 0.64739 0.27186 0.93165 0.0
H1874 H 0.63146 0.25523 0.93383 0.0
H1875 H 0.63863 0.25735 0.94243 0.0
H1876 H 0.65485 0.26103 0.97072 0.0
H1877 H 0.66646 0.27645 0.97651 0.0
H1878 H 0.66758 0.27968 0.96569 0.0
H1879 H 0.65589 0.26442 0.95984 0.0
C1880 C 0.34799 0.73397 0.93558 0.0
C1881 C 0.3465 0.73008 0.94062 0.0
C1882 C 0.33792 0.72556 0.93476 0.0
C1883 C 0.34154 0.72588 0.94019 0.0
C1884 C 0.33932 0.72958 0.92978 0.0
C1885 C 0.34433 0.73373 0.93018 0.0
U1886 U 0.35848 0.74444 0.94512 0.0
O1887 O 0.36868 0.74536 0.9453 0.0
O1888 O 0.36288 0.75346 0.94303 0.0
C1889 C 0.36855 0.75115 0.94334 0.0
C1890 C 0.35333 0.73827 0.93593 0.0
C1891 C 0.37266 0.75252 0.93804 0.0
C1892 C 0.37467 0.75291 0.92692 0.0
C1893 C 0.37061 0.75174 0.93189 0.0
C1894 C 0.38285 0.75558 0.93421 0.0
C1895 C 0.38085 0.75483 0.92802 0.0
C1896 C 0.37879 0.75444 0.93917 0.0
C1897 C 0.35469 0.74586 0.96254 0.0
C1898 C 0.36168 0.7501 0.97037 0.0
C1899 C 0.35107 0.74739 0.97312 0.0
C1900 C 0.34995 0.74551 0.967 0.0
C1901 C 0.35696 0.74965 0.9749 0.0
C1902 C 0.36055 0.74823 0.96422 0.0
C1903 C 0.35346 0.74355 0.95622 0.0
O1904 O 0.35195 0.74411 0.9372 0.0
O1905 O 0.35816 0.7362 0.93907 0.0
O1906 O 0.35752 0.73953 0.95403 0.0
O1907 O 0.35176 0.74775 0.95213 0.0
H1908 H 0.3492 0.73025 0.94487 0.0
H1909 H 0.34052 0.72291 0.94413 0.0
H1910 H 0.33661 0.72941 0.92553 0.0
H1911 H 0.34539 0.73672 0.92626 0.0
H1912 H 0.37295 0.75234 0.92221 0.0
H1913 H 0.3659 0.75022 0.93093 0.0
H1914 H 0.3876 0.75693 0.93525 0.0
H1915 H 0.38046 0.75501 0.94389 0.0
H1916 H 0.36625 0.75187 0.97158 0.0
H1917 H 0.34736 0.74689 0.9765 0.0
H1918 H 0.34541 0.74368 0.96577 0.0
H1919 H 0.36426 0.74856 0.96081 0.0
C1920 C 0.5816 0.78159 0.84734 0.0
C1921 C 0.57621 0.78276 0.84386 0.0
C1922 C 0.58199 0.78985 0.83715 0.0
C1923 C 0.5764 0.78685 0.83881 0.0
C1924 C 0.58742 0.78855 0.84059 0.0
C1925 C 0.58722 0.78446 0.84566 0.0
U1926 U 0.57205 0.77147 0.85802 0.0
O1927 O 0.5742 0.7627 0.86288 0.0
O1928 O 0.57157 0.77101 0.86822 0.0
C1929 C 0.57367 0.76527 0.86841 0.0
C1930 C 0.58129 0.77759 0.85288 0.0
C1931 C 0.57894 0.76426 0.87265 0.0
C1932 C 0.58951 0.76658 0.87597 0.0
C1933 C 0.58461 0.76739 0.87176 0.0
C1934 C 0.58315 0.7594 0.88193 0.0
C1935 C 0.58882 0.76261 0.88114 0.0
C1936 C 0.57825 0.76023 0.87772 0.0
C1937 C 0.55466 0.7697 0.85363 0.0
C1938 C 0.5455 0.76841 0.86018 0.0
C1939 C 0.54481 0.76654 0.84908 0.0
C1940 C 0.55113 0.76793 0.84845 0.0
C1941 C 0.54187 0.76693 0.85492 0.0
C1942 C 0.55185 0.76978 0.85954 0.0
C1943 C 0.56108 0.77192 0.85265 0.0
O1944 O 0.5779 0.77985 0.85745 0.0
O1945 O 0.58018 0.77167 0.85177 0.0
O1946 O 0.56528 0.76767 0.85129 0.0
O1947 O 0.56311 0.77619 0.85655 0.0
H1948 H 0.57183 0.78057 0.8451 0.0
H1949 H 0.57216 0.78768 0.83621 0.0
H1950 H 0.59178 0.79083 0.83947 0.0
H1951 H 0.59142 0.78362 0.84832 0.0
H1952 H 0.59379 0.76916 0.87525 0.0
H1953 H 0.58521 0.77053 0.86785 0.0
H1954 H 0.58249 0.75624 0.8858 0.0
H1955 H 0.57391 0.75776 0.87846 0.0
H1956 H 0.54338 0.76878 0.86473 0.0
H1957 H 0.54218 0.76529 0.84496 0.0
H1958 H 0.55323 0.76781 0.84386 0.0
H1959 H 0.55449 0.77111 0.86362 0.0
C1960 C 0.23359 0.58101 0.84803 0.0
C1961 C 0.23497 0.5781 0.84234 0.0
C1962 C 0.22512 0.58168 0.83803 0.0
C1963 C 0.23078 0.57847 0.83736 0.0
C1964 C 0.22378 0.58463 0.84372 0.0
C1965 C 0.22799 0.58431 0.84867 0.0
U1966 U 0.24412 0.57121 0.85835 0.0
O1967 O 0.25291 0.57342 0.8631 0.0
O1968 O 0.24469 0.57072 0.86856 0.0
C1969 C 0.25042 0.57288 0.86867 0.0
C1970 C 0.23774 0.5804 0.85346 0.0
C1971 C 0.25148 0.57814 0.87293 0.0
C1972 C 0.2516 0.58926 0.87509 0.0
C1973 C 0.25062 0.58432 0.87096 0.0
C1974 C 0.25423 0.58191 0.88322 0.0
C1975 C 0.25342 0.58812 0.88128 0.0
C1976 C 0.25328 0.57697 0.87908 0.0
C1977 C 0.24638 0.55399 0.85405 0.0
C1978 C 0.24922 0.54556 0.86105 0.0
C1979 C 0.24955 0.54396 0.84989 0.0
C1980 C 0.2476 0.55009 0.84896 0.0
C1981 C 0.25029 0.54159 0.85594 0.0
C1982 C 0.24731 0.55172 0.86011 0.0
C1983 C 0.24386 0.56026 0.85292 0.0
O1984 O 0.23558 0.57685 0.85796 0.0
O1985 O 0.24368 0.57945 0.85228 0.0
O1986 O 0.24794 0.56459 0.85148 0.0
O1987 O 0.23958 0.56217 0.85687 0.0
H1988 H 0.23923 0.57546 0.84175 0.0
H1989 H 0.2319 0.5761 0.83305 0.0
H1990 H 0.21948 0.58718 0.84435 0.0
H1991 H 0.22684 0.58657 0.85303 0.0
H1992 H 0.251 0.59398 0.87341 0.0
H1993 H 0.2492 0.58531 0.86622 0.0
H1994 H 0.25551 0.58084 0.88797 0.0
H1995 H 0.25391 0.57223 0.88069 0.0
H1996 H 0.24982 0.54389 0.86576 0.0
H1997 H 0.25026 0.541 0.84586 0.0
H1998 H 0.24689 0.55176 0.84425 0.0
H1999 H 0.24644 0.55467 0.86411 0.0
C2000 C 0.43531 0.23419 0.84708 0.0
C2001 C 0.4404 0.23346 0.84304 0.0
C2002 C 0.43448 0.22604 0.83682 0.0
C2003 C 0.43998 0.22942 0.83795 0.0
C2004 C 0.42937 0.22686 0.84085 0.0
C2005 C 0.42979 0.23091 0.84594 0.0
U2006 U 0.44509 0.24443 0.85756 0.0
O2007 O 0.44291 0.25322 0.86238 0.0
O2008 O 0.44562 0.24497 0.86776 0.0
C2009 C 0.44349 0.25071 0.86793 0.0
C2010 C 0.43583 0.2382 0.85259 0.0
C2011 C 0.43824 0.25175 0.87219 0.0
C2012 C 0.42765 0.24956 0.87553 0.0
C2013 C 0.43255 0.24864 0.87133 0.0
C2014 C 0.43406 0.25674 0.88142 0.0
C2015 C 0.42836 0.25359 0.88065 0.0
C2016 C 0.43896 0.25582 0.87723 0.0
C2017 C 0.46232 0.24662 0.85325 0.0
C2018 C 0.47068 0.24963 0.86027 0.0
C2019 C 0.47243 0.24958 0.84912 0.0
C2020 C 0.46629 0.24764 0.84817 0.0
C2021 C 0.47473 0.25051 0.85518 0.0
C2022 C 0.46452 0.24772 0.8593 0.0
C2023 C 0.45603 0.24414 0.85212 0.0
O2024 O 0.43935 0.23596 0.85706 0.0
O2025 O 0.43687 0.24413 0.85145 0.0
O2026 O 0.45173 0.24827 0.85073 0.0
O2027 O 0.4541 0.23985 0.85603 0.0
H2028 H 0.44471 0.23594 0.84388 0.0
H2029 H 0.44402 0.22884 0.83499 0.0
H2030 H 0.42504 0.22438 0.84007 0.0
H2031 H 0.42582 0.23143 0.84902 0.0
H2032 H 0.42334 0.24701 0.87483 0.0
H2033 H 0.43193 0.24547 0.86746 0.0
H2034 H 0.43474 0.25995 0.88525 0.0
H2035 H 0.44332 0.25827 0.87794 0.0
H2036 H 0.4723 0.25037 0.86498 0.0
H2037 H 0.47544 0.25014 0.84512 0.0
H2038 H 0.46468 0.24681 0.84347 0.0
H2039 H 0.46151 0.247 0.86329 0.0
C2040 C 0.78167 0.43496 0.84703 0.0
C2041 C 0.78078 0.43883 0.84185 0.0
C2042 C 0.78967 0.43405 0.83663 0.0
C2043 C 0.78472 0.43835 0.83668 0.0
C2044 C 0.7905 0.43017 0.84184 0.0
C2045 C 0.78654 0.43061 0.84698 0.0
U2046 U 0.77181 0.44503 0.85766 0.0
O2047 O 0.76309 0.44307 0.86268 0.0
O2048 O 0.77151 0.44566 0.86786 0.0
C2049 C 0.76573 0.44365 0.86817 0.0
C2050 C 0.77778 0.43564 0.85264 0.0
C2051 C 0.76465 0.43848 0.87251 0.0
C2052 C 0.76664 0.42788 0.87592 0.0
C2053 C 0.76761 0.43271 0.87166 0.0
C2054 C 0.7597 0.43451 0.88186 0.0
C2055 C 0.7627 0.42873 0.88109 0.0
C2056 C 0.76067 0.43934 0.8776 0.0
C2057 C 0.7699 0.46224 0.85333 0.0
C2058 C 0.76601 0.47018 0.86041 0.0
C2059 C 0.76831 0.47282 0.84968 0.0
C2060 C 0.77009 0.46666 0.84855 0.0
C2061 C 0.76632 0.47467 0.85564 0.0
C2062 C 0.76777 0.46401 0.85925 0.0
C2063 C 0.77222 0.45592 0.85213 0.0
O2064 O 0.78019 0.43916 0.85702 0.0
O2065 O 0.77183 0.43673 0.85166 0.0
O2066 O 0.76798 0.45169 0.85087 0.0
O2067 O 0.77654 0.45395 0.85598 0.0
H2068 H 0.77708 0.44225 0.84181 0.0
H2069 H 0.78388 0.44136 0.83273 0.0
H2070 H 0.79432 0.42688 0.84202 0.0
H2071 H 0.78733 0.42764 0.85098 0.0
H2072 H 0.76907 0.42351 0.87523 0.0
H2073 H 0.7707 0.43198 0.86774 0.0
H2074 H 0.75656 0.4353 0.88573 0.0
H2075 H 0.75834 0.44376 0.8783 0.0
H2076 H 0.76444 0.47145 0.86503 0.0
H2077 H 0.7687 0.47617 0.84594 0.0
H2078 H 0.77174 0.46538 0.84396 0.0
H2079 H 0.76758 0.46064 0.863 0.0
C2080 C 0.58114 0.23379 0.16765 0.0
C2081 C 0.57613 0.23307 0.17179 0.0
C2082 C 0.58204 0.22544 0.17773 0.0
C2083 C 0.57658 0.22894 0.17679 0.0
C2084 C 0.58707 0.22624 0.1736 0.0
C2085 C 0.58662 0.23038 0.1686 0.0
U2086 U 0.57127 0.24425 0.15753 0.0
O2087 O 0.5734 0.25315 0.15291 0.0
O2088 O 0.57063 0.24503 0.14735 0.0
C2089 C 0.57277 0.25077 0.14731 0.0
C2090 C 0.58058 0.23792 0.16224 0.0
C2091 C 0.57798 0.25191 0.14303 0.0
C2092 C 0.58856 0.2498 0.13958 0.0
C2093 C 0.58367 0.24879 0.14378 0.0
C2094 C 0.58212 0.25712 0.1339 0.0
C2095 C 0.58782 0.25395 0.13456 0.0
C2096 C 0.57724 0.25609 0.13809 0.0
C2097 C 0.55405 0.24629 0.16226 0.0
C2098 C 0.54473 0.24776 0.15599 0.0
C2099 C 0.54462 0.25044 0.16693 0.0
C2100 C 0.55084 0.24863 0.16744 0.0
C2101 C 0.54144 0.24989 0.16123 0.0
C2102 C 0.55098 0.24598 0.15649 0.0
C2103 C 0.5604 0.24383 0.16311 0.0
O2104 O 0.577 0.23577 0.15776 0.0
O2105 O 0.57956 0.24382 0.16352 0.0
O2106 O 0.56228 0.23963 0.15907 0.0
O2107 O 0.56473 0.24792 0.16455 0.0
H2108 H 0.57184 0.23564 0.17109 0.0
H2109 H 0.57259 0.22837 0.17983 0.0
H2110 H 0.59136 0.22367 0.17424 0.0
H2111 H 0.59052 0.23089 0.16545 0.0
H2112 H 0.59286 0.24724 0.14019 0.0
H2113 H 0.58431 0.24553 0.14757 0.0
H2114 H 0.58143 0.26042 0.13015 0.0
H2115 H 0.57289 0.25856 0.13747 0.0
H2116 H 0.54242 0.24723 0.15154 0.0
H2117 H 0.54226 0.25218 0.17104 0.0
H2118 H 0.55313 0.24893 0.17193 0.0
H2119 H 0.55336 0.24421 0.1524 0.0
C2120 C 0.78173 0.58132 0.16744 0.0
C2121 C 0.78052 0.57789 0.17287 0.0
C2122 C 0.79003 0.58188 0.17759 0.0
C2123 C 0.78462 0.57821 0.17792 0.0
C2124 C 0.79118 0.58537 0.17217 0.0
C2125 C 0.78705 0.5851 0.16715 0.0
U2126 U 0.77163 0.57136 0.1569 0.0
O2127 O 0.76293 0.57336 0.1519 0.0
O2128 O 0.77133 0.57076 0.14668 0.0
C2129 C 0.76557 0.57281 0.14641 0.0
C2130 C 0.77774 0.58069 0.16189 0.0
C2131 C 0.76451 0.57798 0.14204 0.0
C2132 C 0.76358 0.58904 0.1398 0.0
C2133 C 0.76459 0.58421 0.14404 0.0
C2134 C 0.76252 0.58148 0.13149 0.0
C2135 C 0.76252 0.58774 0.13346 0.0
C2136 C 0.76349 0.57666 0.13574 0.0
C2137 C 0.76958 0.55413 0.16132 0.0
C2138 C 0.76685 0.54563 0.15435 0.0
C2139 C 0.76673 0.54401 0.16551 0.0
C2140 C 0.76854 0.5502 0.16642 0.0
C2141 C 0.76596 0.54163 0.15946 0.0
C2142 C 0.76862 0.55184 0.15527 0.0
C2143 C 0.77195 0.56046 0.16243 0.0
O2144 O 0.78007 0.57716 0.15747 0.0
O2145 O 0.77179 0.57965 0.16293 0.0
O2146 O 0.76776 0.56473 0.16372 0.0
O2147 O 0.77628 0.56241 0.15856 0.0
H2148 H 0.77649 0.57487 0.17317 0.0
H2149 H 0.78366 0.57542 0.18201 0.0
H2150 H 0.79529 0.58828 0.1718 0.0
H2151 H 0.78807 0.58776 0.16298 0.0
H2152 H 0.76355 0.59379 0.1415 0.0
H2153 H 0.76541 0.58533 0.14889 0.0
H2154 H 0.76184 0.5803 0.12663 0.0
H2155 H 0.76347 0.57188 0.1341 0.0
H2156 H 0.76622 0.54394 0.14964 0.0
H2157 H 0.76616 0.54104 0.16954 0.0
H2158 H 0.76927 0.55189 0.17112 0.0
H2159 H 0.76937 0.55481 0.15127 0.0
C2160 C 0.43556 0.78178 0.16787 0.0
C2161 C 0.44081 0.78294 0.17157 0.0
C2162 C 0.43472 0.78988 0.17817 0.0
C2163 C 0.4404 0.78696 0.17668 0.0
C2164 C 0.42945 0.78862 0.17448 0.0
C2165 C 0.42987 0.7846 0.16937 0.0
U2166 U 0.44538 0.77174 0.15727 0.0
O2167 O 0.44331 0.76294 0.15243 0.0
O2168 O 0.44588 0.77126 0.14707 0.0
C2169 C 0.44381 0.76549 0.14689 0.0
C2170 C 0.43606 0.77779 0.16234 0.0
C2171 C 0.43853 0.76444 0.14268 0.0
C2172 C 0.42776 0.76627 0.13973 0.0
C2173 C 0.4327 0.76713 0.14389 0.0
C2174 C 0.43442 0.75997 0.13315 0.0
C2175 C 0.42858 0.76271 0.13429 0.0
C2176 C 0.43935 0.76083 0.13732 0.0
C2177 C 0.46267 0.76995 0.16152 0.0
C2178 C 0.47058 0.76573 0.15462 0.0
C2179 C 0.47326 0.76862 0.16519 0.0
C2180 C 0.46711 0.77042 0.16626 0.0
C2181 C 0.4751 0.76631 0.15933 0.0
C2182 C 0.46441 0.76753 0.15571 0.0
C2183 C 0.45634 0.77226 0.16268 0.0
O2184 O 0.4395 0.78009 0.15783 0.0
O2185 O 0.4372 0.77188 0.16345 0.0
O2186 O 0.45213 0.76803 0.16404 0.0
O2187 O 0.45433 0.77649 0.15874 0.0
H2188 H 0.44525 0.78082 0.17045 0.0
H2189 H 0.44456 0.78789 0.17937 0.0
H2190 H 0.425 0.79073 0.17554 0.0
H2191 H 0.42577 0.78374 0.16655 0.0
H2192 H 0.42334 0.7685 0.14071 0.0
H2193 H 0.43199 0.76995 0.14802 0.0
H2194 H 0.43519 0.75713 0.12905 0.0
H2195 H 0.44382 0.75871 0.13632 0.0
H2196 H 0.47183 0.76392 0.15008 0.0
H2197 H 0.47663 0.76923 0.16889 0.0
H2198 H 0.46584 0.7723 0.17077 0.0
H2199 H 0.46101 0.76712 0.152 0.0
C2200 C 0.23476 0.43557 0.16849 0.0
C2201 C 0.23369 0.44094 0.17206 0.0
C2202 C 0.22671 0.43512 0.17886 0.0
C2203 C 0.2297 0.44072 0.1772 0.0
C2204 C 0.22792 0.42972 0.17535 0.0
C2205 C 0.23191 0.42995 0.17019 0.0
U2206 U 0.24453 0.44512 0.15743 0.0
O2207 O 0.25314 0.44301 0.15231 0.0
O2208 O 0.24462 0.44543 0.14719 0.0
C2209 C 0.25037 0.44336 0.14686 0.0
C2210 C 0.2386 0.4359 0.16285 0.0
C2211 C 0.25133 0.43807 0.14257 0.0
C2212 C 0.25343 0.4271 0.1406 0.0
C2213 C 0.25261 0.43204 0.14478 0.0
C2214 C 0.25161 0.43413 0.13197 0.0
C2215 C 0.25291 0.4281 0.13415 0.0
C2216 C 0.25085 0.43907 0.13615 0.0
C2217 C 0.24647 0.46248 0.1614 0.0
C2218 C 0.25068 0.47028 0.15436 0.0
C2219 C 0.24783 0.47315 0.1649 0.0
C2220 C 0.24601 0.46701 0.16607 0.0
C2221 C 0.25014 0.47488 0.15902 0.0
C2222 C 0.24887 0.46413 0.15555 0.0
C2223 C 0.24418 0.45616 0.16268 0.0
O2224 O 0.23619 0.43924 0.15834 0.0
O2225 O 0.24455 0.43706 0.16377 0.0
O2226 O 0.24846 0.45198 0.16397 0.0
O2227 O 0.23984 0.45409 0.1589 0.0
H2228 H 0.23586 0.44532 0.17081 0.0
H2229 H 0.22893 0.44494 0.17985 0.0
H2230 H 0.22565 0.42535 0.17647 0.0
H2231 H 0.23267 0.42576 0.16747 0.0
H2232 H 0.25437 0.42249 0.14241 0.0
H2233 H 0.25294 0.43113 0.14973 0.0
H2234 H 0.25125 0.43505 0.12703 0.0
H2235 H 0.24987 0.44368 0.13435 0.0
H2236 H 0.2525 0.47145 0.14981 0.0
H2237 H 0.24724 0.47657 0.16855 0.0
H2238 H 0.24414 0.46582 0.1706 0.0
H2239 H 0.24926 0.46067 0.15189 0.0
C2240 C 0.84779 0.58202 0.78068 0.0
C2241 C 0.84219 0.57884 0.77948 0.0
C2242 C 0.8378 0.58268 0.78919 0.0
C2243 C 0.83722 0.57921 0.78368 0.0
C2244 C 0.84337 0.58594 0.79033 0.0
C2245 C 0.84831 0.58563 0.7861 0.0
U2246 U 0.85811 0.57171 0.77077 0.0
O2247 O 0.86298 0.5734 0.76191 0.0
O2248 O 0.86831 0.571 0.77029 0.0
C2249 C 0.86852 0.57288 0.76447 0.0
C2250 C 0.85326 0.58128 0.7766 0.0
C2251 C 0.87284 0.57805 0.76325 0.0
C2252 C 0.876 0.58882 0.76475 0.0
C2253 C 0.87175 0.58398 0.76576 0.0
C2254 C 0.88245 0.58184 0.75864 0.0
C2255 C 0.88143 0.58779 0.76121 0.0
C2256 C 0.87819 0.57701 0.75966 0.0
C2257 C 0.85348 0.5544 0.76982 0.0
C2258 C 0.86016 0.54609 0.76601 0.0
C2259 C 0.84979 0.54372 0.76982 0.0
C2260 C 0.84878 0.55003 0.771 0.0
C2261 C 0.85553 0.54166 0.76743 0.0
C2262 C 0.85914 0.55243 0.76722 0.0
C2263 C 0.8525 0.56089 0.77176 0.0
O2264 O 0.85776 0.57787 0.77895 0.0
O2265 O 0.85211 0.58002 0.77071 0.0
O2266 O 0.85123 0.5649 0.76733 0.0
O2267 O 0.85649 0.56302 0.77588 0.0
H2268 H 0.8417 0.57596 0.77537 0.0
H2269 H 0.83301 0.5766 0.78272 0.0
H2270 H 0.84393 0.58869 0.79452 0.0
H2271 H 0.8526 0.58809 0.78713 0.0
H2272 H 0.87511 0.59332 0.76684 0.0
H2273 H 0.86764 0.58485 0.76857 0.0
H2274 H 0.88653 0.58091 0.75582 0.0
H2275 H 0.87909 0.57246 0.75768 0.0
H2276 H 0.86464 0.54464 0.7642 0.0
H2277 H 0.8461 0.54043 0.77086 0.0
H2278 H 0.84437 0.55148 0.773 0.0
H2279 H 0.86283 0.55576 0.7663 0.0
C2280 C 0.43412 0.8471 0.78064 0.0
C2281 C 0.43782 0.84181 0.77958 0.0
C2282 C 0.43321 0.83665 0.78858 0.0
C2283 C 0.43734 0.83663 0.78349 0.0
C2284 C 0.42948 0.84195 0.78958 0.0
C2285 C 0.42992 0.84711 0.78563 0.0
U2286 U 0.44439 0.85784 0.77111 0.0
O2287 O 0.44265 0.86307 0.76249 0.0
O2288 O 0.44505 0.86808 0.77108 0.0
C2289 C 0.44312 0.8685 0.76529 0.0
C2290 C 0.43487 0.85276 0.77684 0.0
C2291 C 0.43793 0.87285 0.76427 0.0
C2292 C 0.42684 0.87501 0.76355 0.0
C2293 C 0.43172 0.87079 0.76446 0.0
C2294 C 0.43431 0.88339 0.76235 0.0
C2295 C 0.42808 0.88136 0.76251 0.0
C2296 C 0.43919 0.87917 0.76321 0.0
C2297 C 0.46166 0.85313 0.76953 0.0
C2298 C 0.47058 0.85985 0.7676 0.0
C2299 C 0.47178 0.84863 0.76726 0.0
C2300 C 0.46545 0.84791 0.76857 0.0
C2301 C 0.47445 0.85461 0.76691 0.0
C2302 C 0.46423 0.85912 0.7689 0.0
C2303 C 0.4552 0.85217 0.77161 0.0
O2304 O 0.43837 0.8571 0.77937 0.0
O2305 O 0.43605 0.85187 0.7709 0.0
O2306 O 0.45319 0.85599 0.77595 0.0
O2307 O 0.45106 0.85106 0.76724 0.0
H2308 H 0.44114 0.84172 0.77578 0.0
H2309 H 0.44023 0.83261 0.78252 0.0
H2310 H 0.42633 0.8422 0.7935 0.0
H2311 H 0.42708 0.85118 0.78656 0.0
H2312 H 0.42208 0.87332 0.76377 0.0
H2313 H 0.43065 0.86594 0.76533 0.0
H2314 H 0.43542 0.88824 0.7615 0.0
H2315 H 0.44395 0.88084 0.76306 0.0
H2316 H 0.4725 0.86452 0.76739 0.0
H2317 H 0.4746 0.8445 0.76663 0.0
H2318 H 0.46354 0.84325 0.769 0.0
H2319 H 0.46137 0.86321 0.76961 0.0
C2320 C 0.16832 0.43598 0.78181 0.0
C2321 C 0.17168 0.44145 0.78302 0.0
C2322 C 0.17848 0.43581 0.79011 0.0
C2323 C 0.17672 0.44137 0.78714 0.0
C2324 C 0.17516 0.43031 0.78879 0.0
C2325 C 0.17011 0.4304 0.78467 0.0
U2326 U 0.15766 0.44503 0.77117 0.0
O2327 O 0.15306 0.44241 0.76239 0.0
O2328 O 0.14745 0.44521 0.77046 0.0
C2329 C 0.14746 0.44287 0.76481 0.0
C2330 C 0.16286 0.43613 0.77771 0.0
C2331 C 0.1434 0.43742 0.7639 0.0
C2332 C 0.13981 0.42715 0.76704 0.0
C2333 C 0.14384 0.43222 0.76783 0.0
C2334 C 0.13496 0.43238 0.75831 0.0
C2335 C 0.1353 0.42719 0.76229 0.0
C2336 C 0.13897 0.43746 0.75912 0.0
C2337 C 0.16154 0.46236 0.76868 0.0
C2338 C 0.15443 0.47065 0.76569 0.0
C2339 C 0.16557 0.47244 0.7655 0.0
C2340 C 0.16658 0.46633 0.76749 0.0
C2341 C 0.15948 0.4747 0.76466 0.0
C2342 C 0.15545 0.46452 0.76766 0.0
C2343 C 0.16276 0.45615 0.77128 0.0
O2344 O 0.1582 0.43952 0.77977 0.0
O2345 O 0.16407 0.43705 0.77178 0.0
O2346 O 0.16434 0.45179 0.76727 0.0
O2347 O 0.15881 0.4542 0.77554 0.0
H2348 H 0.17037 0.4458 0.78083 0.0
H2349 H 0.17923 0.44567 0.788 0.0
H2350 H 0.17636 0.42597 0.79105 0.0
H2351 H 0.16755 0.42614 0.78379 0.0
H2352 H 0.14024 0.42319 0.77013 0.0
H2353 H 0.14727 0.4321 0.77153 0.0
H2354 H 0.1315 0.43258 0.75465 0.0
H2355 H 0.13857 0.44144 0.75605 0.0
H2356 H 0.14968 0.47224 0.76503 0.0
H2357 H 0.16956 0.47546 0.76483 0.0
H2358 H 0.17131 0.46476 0.76827 0.0
H2359 H 0.15148 0.4615 0.76851 0.0
C2360 C 0.58122 0.16881 0.78125 0.0
C2361 C 0.57823 0.1745 0.78005 0.0
C2362 C 0.58194 0.17866 0.78992 0.0
C2363 C 0.57863 0.1794 0.78433 0.0
C2364 C 0.58496 0.17297 0.79108 0.0
C2365 C 0.58461 0.1681 0.78677 0.0
U2366 U 0.57137 0.1587 0.77055 0.0
O2367 O 0.57359 0.15416 0.76163 0.0
O2368 O 0.57081 0.14852 0.76968 0.0
C2369 C 0.573 0.14853 0.76396 0.0
C2370 C 0.58059 0.16346 0.77698 0.0
C2371 C 0.57825 0.1443 0.76283 0.0
C2372 C 0.58844 0.14025 0.76563 0.0
C2373 C 0.58357 0.14446 0.76662 0.0
C2374 C 0.58278 0.13577 0.75695 0.0
C2375 C 0.58808 0.13582 0.76081 0.0
C2376 C 0.57791 0.13997 0.75796 0.0
C2377 C 0.55411 0.16297 0.76867 0.0
C2378 C 0.54608 0.15594 0.76487 0.0
C2379 C 0.5436 0.16675 0.76699 0.0
C2380 C 0.54977 0.16783 0.76875 0.0
C2381 C 0.54166 0.16077 0.76512 0.0
C2382 C 0.55227 0.15703 0.76661 0.0
C2383 C 0.56041 0.1641 0.77109 0.0
O2384 O 0.57708 0.15889 0.77905 0.0
O2385 O 0.5796 0.16479 0.77108 0.0
O2386 O 0.56468 0.16561 0.76696 0.0
O2387 O 0.56238 0.16005 0.77523 0.0
H2388 H 0.57551 0.17515 0.77585 0.0
H2389 H 0.5762 0.18372 0.78334 0.0
H2390 H 0.58758 0.17228 0.79533 0.0
H2391 H 0.58693 0.16373 0.78779 0.0
H2392 H 0.59241 0.14038 0.76873 0.0
H2393 H 0.58391 0.1478 0.77039 0.0
H2394 H 0.5824 0.13249 0.75314 0.0
H2395 H 0.57385 0.13981 0.75497 0.0
H2396 H 0.54475 0.1513 0.76339 0.0
H2397 H 0.5403 0.17055 0.76733 0.0
H2398 H 0.55111 0.17243 0.77035 0.0
H2399 H 0.55558 0.15323 0.7665 0.0
C2400 C 0.84736 0.43518 0.23345 0.0
C2401 C 0.84357 0.44039 0.23241 0.0
C2402 C 0.83713 0.43438 0.22526 0.0
C2403 C 0.83849 0.44 0.22836 0.0
C2404 C 0.84091 0.42915 0.22638 0.0
C2405 C 0.84599 0.42955 0.23045 0.0
U2406 U 0.85777 0.44495 0.24374 0.0
O2407 O 0.86251 0.44281 0.25255 0.0
O2408 O 0.86798 0.44551 0.24435 0.0
C2409 C 0.86809 0.4434 0.25009 0.0
C2410 C 0.85285 0.43567 0.23749 0.0
C2411 C 0.87237 0.43819 0.25119 0.0
C2412 C 0.87536 0.42738 0.24967 0.0
C2413 C 0.87115 0.43226 0.24871 0.0
C2414 C 0.88202 0.43431 0.2556 0.0
C2415 C 0.88086 0.42836 0.25309 0.0
C2416 C 0.8778 0.43918 0.25465 0.0
C2417 C 0.85336 0.46216 0.24584 0.0
C2418 C 0.86029 0.47046 0.24922 0.0
C2419 C 0.84919 0.47234 0.24846 0.0
C2420 C 0.84828 0.4662 0.24651 0.0
C2421 C 0.85522 0.47457 0.24976 0.0
C2422 C 0.85937 0.46429 0.2473 0.0
C2423 C 0.85228 0.45586 0.24337 0.0
O2424 O 0.85735 0.43919 0.23529 0.0
O2425 O 0.85166 0.43671 0.2434 0.0
O2426 O 0.85087 0.45156 0.24749 0.0
O2427 O 0.85627 0.45395 0.23914 0.0
H2428 H 0.84459 0.44479 0.23467 0.0
H2429 H 0.83573 0.44414 0.22753 0.0
H2430 H 0.83994 0.42473 0.22414 0.0
H2431 H 0.84887 0.42548 0.2312 0.0
H2432 H 0.87437 0.42287 0.24762 0.0
H2433 H 0.86697 0.43143 0.246 0.0
H2434 H 0.88616 0.4352 0.25833 0.0
H2435 H 0.8788 0.44373 0.2566 0.0
H2436 H 0.86498 0.47202 0.25025 0.0
H2437 H 0.84519 0.4754 0.24874 0.0
H2438 H 0.84361 0.46463 0.24539 0.0
H2439 H 0.86335 0.46122 0.24685 0.0
C2440 C 0.58113 0.84752 0.23337 0.0
C2441 C 0.57586 0.84385 0.23216 0.0
C2442 C 0.58201 0.83705 0.22547 0.0
C2443 C 0.57629 0.83866 0.22825 0.0
C2444 C 0.5873 0.8407 0.2268 0.0
C2445 C 0.58686 0.84589 0.23071 0.0
U2446 U 0.57128 0.85835 0.24315 0.0
O2447 O 0.57332 0.86351 0.25175 0.0
O2448 O 0.57075 0.86859 0.24326 0.0
C2449 C 0.57283 0.86897 0.249 0.0
C2450 C 0.58061 0.85316 0.2372 0.0
C2451 C 0.57803 0.87334 0.24996 0.0
C2452 C 0.58906 0.8755 0.25143 0.0
C2453 C 0.5842 0.87123 0.25058 0.0
C2454 C 0.58168 0.88402 0.25093 0.0
C2455 C 0.58786 0.88194 0.25159 0.0
C2456 C 0.57682 0.87975 0.25014 0.0
C2457 C 0.55404 0.85397 0.24529 0.0
C2458 C 0.54564 0.86098 0.24822 0.0
C2459 C 0.5439 0.84982 0.24811 0.0
C2460 C 0.55006 0.84889 0.24625 0.0
C2461 C 0.54159 0.85589 0.24904 0.0
C2462 C 0.55183 0.86003 0.24638 0.0
C2463 C 0.56037 0.85284 0.24293 0.0
O2464 O 0.57712 0.85757 0.23478 0.0
O2465 O 0.5795 0.85222 0.24314 0.0
O2466 O 0.56463 0.85162 0.24714 0.0
O2467 O 0.56231 0.85664 0.23855 0.0
H2468 H 0.57138 0.84506 0.23416 0.0
H2469 H 0.57211 0.83601 0.22727 0.0
H2470 H 0.59179 0.83954 0.22481 0.0
H2471 H 0.59098 0.84868 0.23161 0.0
H2472 H 0.59378 0.87376 0.25185 0.0
H2473 H 0.58525 0.8663 0.25039 0.0
H2474 H 0.5806 0.88894 0.2511 0.0
H2475 H 0.5721 0.88147 0.24966 0.0
H2476 H 0.54402 0.8657 0.24896 0.0
H2477 H 0.54089 0.84581 0.24862 0.0
H2478 H 0.55169 0.84418 0.24542 0.0
H2479 H 0.55485 0.86402 0.2457 0.0
C2480 C 0.16898 0.58139 0.23417 0.0
C2481 C 0.1727 0.57609 0.23333 0.0
C2482 C 0.17908 0.58163 0.22578 0.0
C2483 C 0.17771 0.57621 0.22918 0.0
C2484 C 0.1754 0.58698 0.22672 0.0
C2485 C 0.17038 0.58685 0.23088 0.0
U2486 U 0.15836 0.57196 0.24447 0.0
O2487 O 0.15368 0.57419 0.25331 0.0
O2488 O 0.14815 0.5716 0.24512 0.0
C2489 C 0.14809 0.57372 0.25086 0.0
C2490 C 0.1635 0.58113 0.23824 0.0
C2491 C 0.14394 0.57905 0.25196 0.0
C2492 C 0.14042 0.5895 0.24943 0.0
C2493 C 0.14454 0.58454 0.24848 0.0
C2494 C 0.13514 0.58355 0.25744 0.0
C2495 C 0.13563 0.58904 0.2539 0.0
C2496 C 0.13925 0.5786 0.25647 0.0
C2497 C 0.16261 0.55454 0.24621 0.0
C2498 C 0.15601 0.54542 0.24762 0.0
C2499 C 0.16713 0.54468 0.24939 0.0
C2500 C 0.16779 0.55099 0.24796 0.0
C2501 C 0.16126 0.54177 0.24908 0.0
C2502 C 0.15668 0.55175 0.2462 0.0
C2503 C 0.16362 0.56094 0.24395 0.0
O2504 O 0.15887 0.57776 0.23606 0.0
O2505 O 0.16467 0.58004 0.24415 0.0
O2506 O 0.1651 0.56514 0.24815 0.0
O2507 O 0.15966 0.56298 0.23976 0.0
H2508 H 0.17168 0.57182 0.23584 0.0
H2509 H 0.1805 0.57204 0.22863 0.0
H2510 H 0.17629 0.59121 0.22412 0.0
H2511 H 0.16753 0.59097 0.23145 0.0
H2512 H 0.14089 0.59363 0.24658 0.0
H2513 H 0.14814 0.58497 0.24497 0.0
H2514 H 0.13159 0.58308 0.26099 0.0
H2515 H 0.13875 0.5744 0.25922 0.0
H2516 H 0.15143 0.54332 0.24729 0.0
H2517 H 0.17125 0.54204 0.25062 0.0
H2518 H 0.1724 0.55306 0.24802 0.0
H2519 H 0.1526 0.55441 0.24489 0.0
C2520 C 0.43576 0.16836 0.2334 0.0
C2521 C 0.44102 0.17213 0.23248 0.0
C2522 C 0.43523 0.17859 0.22519 0.0
C2523 C 0.44076 0.1772 0.22842 0.0
C2524 C 0.42994 0.17484 0.2262 0.0
C2525 C 0.43021 0.16975 0.23027 0.0
U2526 U 0.44529 0.15793 0.24381 0.0
O2527 O 0.44301 0.15327 0.25265 0.0
O2528 O 0.44577 0.14773 0.24451 0.0
C2529 C 0.44358 0.14767 0.25022 0.0
C2530 C 0.43612 0.16287 0.23746 0.0
C2531 C 0.43829 0.14345 0.25128 0.0
C2532 C 0.4279 0.13978 0.24867 0.0
C2533 C 0.43283 0.14395 0.24773 0.0
C2534 C 0.43381 0.13465 0.25678 0.0
C2535 C 0.42835 0.13505 0.25318 0.0
C2536 C 0.43874 0.13881 0.25583 0.0
C2537 C 0.46254 0.16236 0.24597 0.0
C2538 C 0.47091 0.15551 0.24928 0.0
C2539 C 0.47267 0.16665 0.2486 0.0
C2540 C 0.46651 0.16749 0.24668 0.0
C2541 C 0.47497 0.16064 0.24985 0.0
C2542 C 0.46474 0.15637 0.24738 0.0
C2543 C 0.45624 0.16338 0.24348 0.0
O2544 O 0.43962 0.15833 0.23531 0.0
O2545 O 0.4371 0.16407 0.24337 0.0
O2546 O 0.45192 0.16482 0.24757 0.0
O2547 O 0.45435 0.15935 0.23928 0.0
H2548 H 0.44534 0.17111 0.23487 0.0
H2549 H 0.44489 0.18004 0.22781 0.0
H2550 H 0.42564 0.17574 0.22374 0.0
H2551 H 0.42612 0.16687 0.23091 0.0
H2552 H 0.4238 0.14019 0.24577 0.0
H2553 H 0.43242 0.14752 0.24419 0.0
H2554 H 0.43427 0.13113 0.26037 0.0
H2555 H 0.44291 0.13838 0.25863 0.0
H2556 H 0.47253 0.15084 0.25027 0.0
H2557 H 0.47568 0.17069 0.2489 0.0
H2558 H 0.4649 0.17215 0.24559 0.0
H2559 H 0.46171 0.15235 0.2469 0.0
C2560 C 0.78206 0.84761 0.58043 0.0
C2561 C 0.78259 0.84335 0.5755 0.0
C2562 C 0.79032 0.83744 0.58132 0.0
C2563 C 0.78668 0.8383 0.57595 0.0
C2564 C 0.78971 0.84169 0.58627 0.0
C2565 C 0.78561 0.84674 0.58582 0.0
U2566 U 0.77177 0.85794 0.57057 0.0
O2567 O 0.76298 0.86275 0.57271 0.0
O2568 O 0.77121 0.86815 0.56995 0.0
C2569 C 0.76548 0.86831 0.57209 0.0
C2570 C 0.77802 0.85309 0.57986 0.0
C2571 C 0.76445 0.87261 0.57731 0.0
C2572 C 0.76623 0.87567 0.58805 0.0
C2573 C 0.76709 0.87144 0.58316 0.0
C2574 C 0.76004 0.88223 0.58127 0.0
C2575 C 0.76273 0.88114 0.58714 0.0
C2576 C 0.7609 0.878 0.5764 0.0
C2577 C 0.76962 0.85347 0.5534 0.0
C2578 C 0.76633 0.86044 0.54512 0.0
C2579 C 0.76698 0.84933 0.54323 0.0
C2580 C 0.76891 0.8484 0.54936 0.0
C2581 C 0.76575 0.85537 0.54101 0.0
C2582 C 0.76823 0.8595 0.55128 0.0
C2583 C 0.77209 0.85239 0.55969 0.0
O2584 O 0.78024 0.85754 0.57629 0.0
O2585 O 0.7721 0.8519 0.57883 0.0
O2586 O 0.76796 0.85102 0.564 0.0
O2587 O 0.77637 0.85635 0.56158 0.0
H2588 H 0.77992 0.84399 0.57128 0.0
H2589 H 0.7871 0.83515 0.57203 0.0
H2590 H 0.79239 0.84113 0.5905 0.0
H2591 H 0.78525 0.84999 0.58967 0.0
H2592 H 0.76842 0.87472 0.59248 0.0
H2593 H 0.76987 0.8673 0.58393 0.0
H2594 H 0.75725 0.88634 0.58045 0.0
H2595 H 0.75882 0.87895 0.57191 0.0
H2596 H 0.76536 0.86514 0.54357 0.0
H2597 H 0.76666 0.84533 0.54016 0.0
H2598 H 0.76997 0.84372 0.55092 0.0
H2599 H 0.76872 0.86348 0.55435 0.0
C2600 C 0.78218 0.16838 0.43474 0.0
C2601 C 0.78278 0.17259 0.4397 0.0
C2602 C 0.79039 0.1786 0.43381 0.0
C2603 C 0.78684 0.17767 0.43923 0.0
C2604 C 0.78971 0.1744 0.42882 0.0
C2605 C 0.78563 0.16933 0.42929 0.0
U2606 U 0.77221 0.15788 0.44477 0.0
O2607 O 0.7634 0.15301 0.4429 0.0
O2608 O 0.77176 0.14764 0.44531 0.0
C2609 C 0.76596 0.14746 0.44337 0.0
C2610 C 0.77819 0.16285 0.43535 0.0
C2611 C 0.76473 0.14313 0.43821 0.0
C2612 C 0.76388 0.14089 0.42715 0.0
C2613 C 0.76502 0.14511 0.43199 0.0
C2614 C 0.76226 0.13267 0.43469 0.0
C2615 C 0.76248 0.13461 0.42844 0.0
C2616 C 0.76336 0.13689 0.43952 0.0
C2617 C 0.77051 0.16225 0.46199 0.0
C2618 C 0.7662 0.1554 0.4699 0.0
C2619 C 0.76915 0.16597 0.47257 0.0
C2620 C 0.77099 0.16701 0.46643 0.0
C2621 C 0.76678 0.16013 0.4744 0.0
C2622 C 0.76804 0.15645 0.46373 0.0
C2623 C 0.77282 0.16338 0.45566 0.0
O2624 O 0.78053 0.15838 0.43881 0.0
O2625 O 0.77229 0.16397 0.43653 0.0
O2626 O 0.76857 0.16473 0.45147 0.0
O2627 O 0.77703 0.15942 0.45365 0.0
H2628 H 0.78018 0.17189 0.44397 0.0
H2629 H 0.78731 0.18077 0.44318 0.0
H2630 H 0.79232 0.17503 0.42455 0.0
H2631 H 0.78523 0.16611 0.42542 0.0
H2632 H 0.76402 0.14258 0.4224 0.0
H2633 H 0.76611 0.14991 0.43088 0.0
H2634 H 0.76132 0.12785 0.43586 0.0
H2635 H 0.76318 0.13527 0.44429 0.0
H2636 H 0.76434 0.15087 0.47115 0.0
H2637 H 0.76975 0.16969 0.47593 0.0
H2638 H 0.77291 0.17151 0.46516 0.0
H2639 H 0.76761 0.15273 0.46035 0.0
C2640 C 0.84784 0.78192 0.43429 0.0
C2641 C 0.84229 0.78071 0.43754 0.0
C2642 C 0.83789 0.79048 0.43385 0.0
C2643 C 0.83734 0.78494 0.43729 0.0
C2644 C 0.84343 0.79164 0.43055 0.0
C2645 C 0.84835 0.78739 0.43075 0.0
U2646 U 0.85808 0.77125 0.44395 0.0
O2647 O 0.8628 0.76246 0.4416 0.0
O2648 O 0.86827 0.77059 0.44454 0.0
C2649 C 0.86838 0.76492 0.44222 0.0
C2650 C 0.85326 0.77775 0.43482 0.0
C2651 C 0.87257 0.76405 0.43688 0.0
C2652 C 0.87601 0.76697 0.42651 0.0
C2653 C 0.87192 0.76773 0.43152 0.0
C2654 C 0.88136 0.75877 0.43212 0.0
C2655 C 0.8808 0.7625 0.42676 0.0
C2656 C 0.87728 0.75956 0.43714 0.0
C2657 C 0.85341 0.76912 0.46119 0.0
C2658 C 0.85996 0.76716 0.47021 0.0
C2659 C 0.84875 0.76627 0.47108 0.0
C2660 C 0.84814 0.76777 0.46479 0.0
C2661 C 0.85465 0.76612 0.47391 0.0
C2662 C 0.85935 0.76865 0.46389 0.0
C2663 C 0.85253 0.77151 0.45483 0.0
O2664 O 0.85777 0.77985 0.43839 0.0
O2665 O 0.85204 0.77181 0.4357 0.0
O2666 O 0.85655 0.77576 0.45298 0.0
O2667 O 0.85116 0.7674 0.45051 0.0
H2668 H 0.84182 0.77656 0.44037 0.0
H2669 H 0.83316 0.78396 0.43993 0.0
H2670 H 0.84396 0.79585 0.42783 0.0
H2671 H 0.8526 0.78842 0.42823 0.0
H2672 H 0.87541 0.76985 0.42242 0.0
H2673 H 0.86828 0.7712 0.43123 0.0
H2674 H 0.88503 0.75534 0.43248 0.0
H2675 H 0.87784 0.75668 0.44124 0.0
H2676 H 0.86457 0.76712 0.47225 0.0
H2677 H 0.84457 0.76537 0.47377 0.0
H2678 H 0.84352 0.76808 0.46278 0.0
H2679 H 0.86349 0.76965 0.46119 0.0
C2680 C 0.23417 0.84833 0.43482 0.0
C2681 C 0.23273 0.84485 0.44016 0.0
C2682 C 0.2259 0.83813 0.43407 0.0
C2683 C 0.22863 0.8398 0.43979 0.0
C2684 C 0.22744 0.8416 0.42872 0.0
C2685 C 0.23154 0.84666 0.4291 0.0
U2686 U 0.24458 0.85873 0.44448 0.0
O2687 O 0.25351 0.86328 0.44226 0.0
O2688 O 0.2454 0.86892 0.44489 0.0
C2689 C 0.25113 0.8689 0.44272 0.0
C2690 C 0.2383 0.85376 0.43525 0.0
C2691 C 0.25224 0.87302 0.43737 0.0
C2692 C 0.24924 0.87697 0.42721 0.0
C2693 C 0.24824 0.87291 0.4322 0.0
C2694 C 0.25832 0.88118 0.43243 0.0
C2695 C 0.25427 0.88117 0.42728 0.0
C2696 C 0.2573 0.87714 0.43743 0.0
C2697 C 0.24636 0.85446 0.46176 0.0
C2698 C 0.25132 0.86103 0.46954 0.0
C2699 C 0.24725 0.8509 0.47243 0.0
C2700 C 0.24535 0.8499 0.4663 0.0
C2701 C 0.25022 0.85649 0.47414 0.0
C2702 C 0.24941 0.86002 0.46338 0.0
C2703 C 0.24398 0.8534 0.45545 0.0
O2704 O 0.23616 0.85836 0.43868 0.0
O2705 O 0.24419 0.85249 0.43636 0.0
O2706 O 0.24814 0.85189 0.45122 0.0
O2707 O 0.23988 0.85748 0.45347 0.0
H2708 H 0.23471 0.8461 0.44463 0.0
H2709 H 0.22748 0.8373 0.44401 0.0
H2710 H 0.22549 0.84039 0.42423 0.0
H2711 H 0.23263 0.84929 0.42494 0.0
H2712 H 0.24608 0.8768 0.42328 0.0
H2713 H 0.24433 0.86971 0.43205 0.0
H2714 H 0.2622 0.8844 0.43265 0.0
H2715 H 0.26043 0.87728 0.44138 0.0
H2716 H 0.25363 0.86537 0.47069 0.0
H2717 H 0.24623 0.84735 0.47587 0.0
H2718 H 0.24298 0.8456 0.46513 0.0
H2719 H 0.25023 0.86359 0.45992 0.0
C2720 C 0.1692 0.23516 0.43364 0.0
C2721 C 0.17321 0.23467 0.43877 0.0
C2722 C 0.17967 0.22724 0.43314 0.0
C2723 C 0.1784 0.23076 0.43852 0.0
C2724 C 0.1757 0.22784 0.42796 0.0
C2725 C 0.1705 0.23177 0.42822 0.0
U2726 U 0.15788 0.24388 0.44374 0.0
O2727 O 0.15268 0.2526 0.44241 0.0
O2728 O 0.14764 0.24383 0.44399 0.0
C2729 C 0.14725 0.24975 0.44249 0.0
C2730 C 0.16347 0.23887 0.43411 0.0
C2731 C 0.14307 0.25114 0.43726 0.0
C2732 C 0.14119 0.25244 0.42618 0.0
C2733 C 0.14527 0.25123 0.43111 0.0
C2734 C 0.13265 0.25341 0.4335 0.0
C2735 C 0.13482 0.25353 0.42731 0.0
C2736 C 0.13674 0.25224 0.43841 0.0
C2737 C 0.162 0.24399 0.46124 0.0
C2738 C 0.15584 0.24874 0.46947 0.0
C2739 C 0.16499 0.24264 0.47202 0.0
C2740 C 0.16605 0.24156 0.46571 0.0
C2741 C 0.15984 0.24618 0.47398 0.0
C2742 C 0.1569 0.24763 0.46313 0.0
C2743 C 0.16314 0.24249 0.45467 0.0
O2744 O 0.15893 0.23611 0.43714 0.0
O2745 O 0.16426 0.24472 0.43575 0.0
O2746 O 0.16434 0.24721 0.45097 0.0
O2747 O 0.15935 0.23836 0.45222 0.0
H2748 H 0.17226 0.23724 0.44301 0.0
H2749 H 0.1814 0.23047 0.44255 0.0
H2750 H 0.1765 0.22514 0.42378 0.0
H2751 H 0.16742 0.23205 0.42423 0.0
H2752 H 0.14304 0.25256 0.42149 0.0
H2753 H 0.15014 0.25036 0.43012 0.0
H2754 H 0.12777 0.25411 0.43454 0.0
H2755 H 0.13495 0.25213 0.44313 0.0
H2756 H 0.15182 0.25146 0.47086 0.0
H2757 H 0.16822 0.24071 0.47537 0.0
H2758 H 0.17002 0.23877 0.46432 0.0
H2759 H 0.15372 0.24953 0.45971 0.0
C2760 C 0.23403 0.16838 0.58022 0.0
C2761 C 0.23522 0.17392 0.57695 0.0
C2762 C 0.22563 0.17845 0.58098 0.0
C2763 C 0.23107 0.17893 0.57737 0.0
C2764 C 0.22448 0.1729 0.58427 0.0
C2765 C 0.22866 0.16792 0.5839 0.0
U2766 U 0.24453 0.15798 0.57045 0.0
O2767 O 0.25336 0.15331 0.57273 0.0
O2768 O 0.2452 0.14778 0.57001 0.0
C2769 C 0.25091 0.14772 0.57222 0.0
C2770 C 0.23816 0.16293 0.57962 0.0
C2771 C 0.25193 0.14357 0.57756 0.0
C2772 C 0.24915 0.13999 0.58792 0.0
C2773 C 0.24821 0.14404 0.58291 0.0
C2774 C 0.2576 0.13503 0.58231 0.0
C2775 C 0.25384 0.13542 0.58767 0.0
C2776 C 0.25663 0.13906 0.5773 0.0
C2777 C 0.24671 0.16222 0.55319 0.0
C2778 C 0.24946 0.15523 0.54471 0.0
C2779 C 0.24972 0.16641 0.54313 0.0
C2780 C 0.24786 0.16732 0.5493 0.0
C2781 C 0.25045 0.16035 0.54074 0.0
C2782 C 0.24763 0.15616 0.55089 0.0
C2783 C 0.24423 0.16333 0.55948 0.0
O2784 O 0.23599 0.15841 0.5761 0.0
O2785 O 0.24409 0.16412 0.57863 0.0
O2786 O 0.24832 0.16481 0.56378 0.0
O2787 O 0.23998 0.15936 0.56142 0.0
H2788 H 0.2393 0.17436 0.57402 0.0
H2789 H 0.23203 0.18312 0.57473 0.0
H2790 H 0.22035 0.17241 0.58712 0.0
H2791 H 0.22765 0.16367 0.58644 0.0
H2792 H 0.24623 0.14046 0.59201 0.0
H2793 H 0.24457 0.14753 0.58321 0.0
H2794 H 0.2612 0.13152 0.58195 0.0
H2795 H 0.25954 0.13864 0.5732 0.0
H2796 H 0.25005 0.15051 0.54301 0.0
H2797 H 0.25036 0.17045 0.54018 0.0
H2798 H 0.24715 0.17203 0.55098 0.0
H2799 H 0.24681 0.15214 0.55384 0.0
C2800 C 0.84793 0.23479 0.58011 0.0
C2801 C 0.84464 0.23317 0.5747 0.0
C2802 C 0.83742 0.22691 0.58084 0.0
C2803 C 0.83945 0.22926 0.57506 0.0
C2804 C 0.84068 0.22866 0.58625 0.0
C2805 C 0.84589 0.23256 0.58589 0.0
U2806 U 0.8588 0.24475 0.5705 0.0
O2807 O 0.86386 0.25339 0.57269 0.0
O2808 O 0.86904 0.24497 0.57006 0.0
C2809 C 0.86934 0.2507 0.5722 0.0
C2810 C 0.85356 0.23866 0.5797 0.0
C2811 C 0.8736 0.25162 0.57748 0.0
C2812 C 0.87565 0.25183 0.58861 0.0
C2813 C 0.8715 0.25103 0.58365 0.0
C2814 C 0.88404 0.25373 0.5813 0.0
C2815 C 0.88197 0.25316 0.58748 0.0
C2816 C 0.87988 0.25298 0.57635 0.0
C2817 C 0.85439 0.24702 0.55321 0.0
C2818 C 0.86062 0.24789 0.54378 0.0
C2819 C 0.84998 0.25164 0.54389 0.0
C2820 C 0.84941 0.24987 0.55011 0.0
C2821 C 0.85554 0.25054 0.5406 0.0
C2822 C 0.86005 0.24615 0.55003 0.0
C2823 C 0.85338 0.24461 0.55956 0.0
O2824 O 0.85803 0.23632 0.57624 0.0
O2825 O 0.85259 0.24462 0.57866 0.0
O2826 O 0.85208 0.24876 0.56387 0.0
O2827 O 0.8572 0.24023 0.56148 0.0
H2828 H 0.84617 0.23485 0.5702 0.0
H2829 H 0.83711 0.22795 0.57079 0.0
H2830 H 0.83919 0.22702 0.59078 0.0
H2831 H 0.84837 0.2338 0.59011 0.0
H2832 H 0.87393 0.25129 0.59332 0.0
H2833 H 0.86667 0.24993 0.58462 0.0
H2834 H 0.88886 0.25482 0.58028 0.0
H2835 H 0.88158 0.25343 0.57162 0.0
H2836 H 0.86495 0.24694 0.54138 0.0
H2837 H 0.84602 0.25378 0.54162 0.0
H2838 H 0.84501 0.2506 0.55248 0.0
H2839 H 0.86398 0.24397 0.55232 0.0
C2840 C 0.16895 0.78179 0.5802 0.0
C2841 C 0.17264 0.78295 0.57493 0.0
C2842 C 0.17922 0.78995 0.58097 0.0
C2843 C 0.17773 0.787 0.57531 0.0
C2844 C 0.17555 0.78869 0.58625 0.0
C2845 C 0.17045 0.78464 0.58586 0.0
U2846 U 0.1582 0.77174 0.57049 0.0
O2847 O 0.15344 0.76291 0.57263 0.0
O2848 O 0.14798 0.77121 0.57024 0.0
C2849 C 0.14788 0.76544 0.57229 0.0
C2850 C 0.16343 0.77777 0.57974 0.0
C2851 C 0.14382 0.76437 0.5777 0.0
C2852 C 0.14095 0.76652 0.58842 0.0
C2853 C 0.14495 0.76743 0.58336 0.0
C2854 C 0.13473 0.75941 0.58224 0.0
C2855 C 0.13578 0.76252 0.58791 0.0
C2856 C 0.13872 0.76034 0.57717 0.0
C2857 C 0.1621 0.77003 0.55312 0.0
C2858 C 0.15491 0.76666 0.54505 0.0
C2859 C 0.16586 0.76804 0.54265 0.0
C2860 C 0.16699 0.76977 0.54881 0.0
C2861 C 0.15979 0.76655 0.54067 0.0
C2862 C 0.15606 0.76837 0.55123 0.0
C2863 C 0.16337 0.77232 0.55943 0.0
O2864 O 0.15886 0.78008 0.57641 0.0
O2865 O 0.16456 0.77188 0.57852 0.0
O2866 O 0.16485 0.76808 0.56358 0.0
O2867 O 0.15947 0.77654 0.56156 0.0
H2868 H 0.17152 0.7808 0.57051 0.0
H2869 H 0.18041 0.78793 0.57114 0.0
H2870 H 0.17662 0.79083 0.59069 0.0
H2871 H 0.16765 0.78378 0.58997 0.0
H2872 H 0.14193 0.76893 0.59274 0.0
H2873 H 0.14889 0.77055 0.58384 0.0
H2874 H 0.13075 0.75636 0.58167 0.0
H2875 H 0.13778 0.75795 0.57283 0.0
H2876 H 0.1502 0.76548 0.54368 0.0
H2877 H 0.16971 0.76808 0.53939 0.0
H2878 H 0.17168 0.77104 0.55019 0.0
H2879 H 0.15222 0.76852 0.55451 0.0
C2880 C 0.43545 0.23411 0.16755 0.0
C2881 C 0.44071 0.23325 0.17132 0.0
C2882 C 0.43496 0.2259 0.17778 0.0
C2883 C 0.44047 0.22919 0.1764 0.0
C2884 C 0.42968 0.22685 0.17402 0.0
C2885 C 0.42993 0.23092 0.16894 0.0
U2886 U 0.44498 0.24458 0.15716 0.0
O2887 O 0.44553 0.24527 0.14698 0.0
O2888 O 0.4427 0.25341 0.15248 0.0
C2889 C 0.44332 0.25097 0.1469 0.0
C2890 C 0.43581 0.23816 0.16206 0.0
C2891 C 0.43805 0.25199 0.14266 0.0
C2892 C 0.42766 0.24935 0.13902 0.0
C2893 C 0.43258 0.24844 0.14318 0.0
C2894 C 0.43359 0.25744 0.13383 0.0
C2895 C 0.42812 0.25384 0.13426 0.0
C2896 C 0.43851 0.25651 0.13799 0.0
C2897 C 0.46224 0.24681 0.16183 0.0
C2898 C 0.47165 0.24816 0.15564 0.0
C2899 C 0.47164 0.25097 0.16656 0.0
C2900 C 0.46539 0.24921 0.16701 0.0
C2901 C 0.47489 0.25033 0.16091 0.0
C2902 C 0.46538 0.24642 0.15609 0.0
C2903 C 0.45589 0.24433 0.16267 0.0
O2904 O 0.43675 0.2441 0.16325 0.0
O2905 O 0.43934 0.23603 0.15754 0.0
O2906 O 0.45404 0.24009 0.15865 0.0
O2907 O 0.45154 0.2484 0.16409 0.0
H2908 H 0.44502 0.23569 0.17031 0.0
H2909 H 0.44459 0.22864 0.17924 0.0
H2910 H 0.42539 0.22434 0.17492 0.0
H2911 H 0.42584 0.23151 0.16605 0.0
H2912 H 0.42355 0.24645 0.13944 0.0
H2913 H 0.43215 0.24492 0.14677 0.0
H2914 H 0.43407 0.26101 0.1303 0.0
H2915 H 0.44269 0.25932 0.13755 0.0
H2916 H 0.47402 0.24756 0.15123 0.0
H2917 H 0.47396 0.25274 0.17067 0.0
H2918 H 0.46306 0.24957 0.17147 0.0
H2919 H 0.46304 0.2446 0.15201 0.0
C2920 C 0.78217 0.43563 0.16713 0.0
C2921 C 0.78318 0.44082 0.17098 0.0
C2922 C 0.79023 0.43474 0.17745 0.0
C2923 C 0.78717 0.44038 0.17609 0.0
C2924 C 0.78913 0.42954 0.1736 0.0
C2925 C 0.78514 0.42998 0.16849 0.0
U2926 U 0.77207 0.44543 0.15655 0.0
O2927 O 0.77153 0.44583 0.14635 0.0
O2928 O 0.76325 0.4433 0.15179 0.0
C2929 C 0.76577 0.44376 0.14623 0.0
C2930 C 0.77818 0.43614 0.16161 0.0
C2931 C 0.76467 0.43844 0.14206 0.0
C2932 C 0.76672 0.42775 0.13895 0.0
C2933 C 0.76773 0.43275 0.14302 0.0
C2934 C 0.75954 0.43408 0.13299 0.0
C2935 C 0.76262 0.42836 0.13388 0.0
C2936 C 0.76056 0.43907 0.13705 0.0
C2937 C 0.77009 0.46273 0.16079 0.0
C2938 C 0.76747 0.47127 0.15384 0.0
C2939 C 0.76697 0.47275 0.165 0.0
C2940 C 0.76883 0.46659 0.1659 0.0
C2941 C 0.76635 0.4752 0.15896 0.0
C2942 C 0.76931 0.46508 0.15474 0.0
C2943 C 0.7725 0.45641 0.16191 0.0
O2944 O 0.77227 0.43727 0.16274 0.0
O2945 O 0.78047 0.4396 0.15711 0.0
O2946 O 0.77675 0.45442 0.15798 0.0
O2947 O 0.76833 0.45216 0.16334 0.0
H2948 H 0.78094 0.44522 0.16997 0.0
H2949 H 0.78797 0.44449 0.1789 0.0
H2950 H 0.79136 0.42511 0.17456 0.0
H2951 H 0.7844 0.42594 0.16556 0.0
H2952 H 0.76911 0.42339 0.13981 0.0
H2953 H 0.7709 0.43218 0.14689 0.0
H2954 H 0.75641 0.43473 0.12909 0.0
H2955 H 0.75817 0.44344 0.13624 0.0
H2956 H 0.76698 0.473 0.14913 0.0
H2957 H 0.76622 0.47567 0.16905 0.0
H2958 H 0.76942 0.46486 0.1706 0.0
H2959 H 0.77022 0.46216 0.15072 0.0
C2960 C 0.58091 0.78206 0.16736 0.0
C2961 C 0.57566 0.78327 0.17106 0.0
C2962 C 0.58184 0.78999 0.1778 0.0
C2963 C 0.57612 0.78719 0.17623 0.0
C2964 C 0.58711 0.7887 0.1741 0.0
C2965 C 0.58664 0.78476 0.16893 0.0
U2966 U 0.57098 0.77219 0.15671 0.0
O2967 O 0.57045 0.7718 0.14651 0.0
O2968 O 0.57297 0.76342 0.15178 0.0
C2969 C 0.57245 0.76601 0.14627 0.0
C2970 C 0.58037 0.77815 0.16179 0.0
C2971 C 0.57766 0.76491 0.14198 0.0
C2972 C 0.58836 0.76677 0.13876 0.0
C2973 C 0.58348 0.76772 0.14298 0.0
C2974 C 0.58166 0.76012 0.13256 0.0
C2975 C 0.58749 0.76298 0.13348 0.0
C2976 C 0.57679 0.76109 0.13677 0.0
C2977 C 0.55372 0.77037 0.16104 0.0
C2978 C 0.54574 0.76632 0.15412 0.0
C2979 C 0.54318 0.76882 0.16482 0.0
C2980 C 0.54934 0.77064 0.16586 0.0
C2981 C 0.54128 0.7667 0.15892 0.0
C2982 C 0.55191 0.76813 0.15518 0.0
C2983 C 0.56006 0.77268 0.16218 0.0
O2984 O 0.57919 0.77223 0.16284 0.0
O2985 O 0.57692 0.78051 0.15733 0.0
O2986 O 0.56207 0.77694 0.15828 0.0
O2987 O 0.56426 0.76843 0.1635 0.0
H2988 H 0.57118 0.78123 0.1699 0.0
H2989 H 0.57196 0.78815 0.17892 0.0
H2990 H 0.5916 0.79071 0.17522 0.0
H2991 H 0.59073 0.78387 0.16612 0.0
H2992 H 0.59277 0.76909 0.13958 0.0
H2993 H 0.58422 0.77071 0.14698 0.0
H2994 H 0.58086 0.75711 0.1286 0.0
H2995 H 0.57233 0.75886 0.13595 0.0
H2996 H 0.54444 0.76465 0.14954 0.0
H2997 H 0.53986 0.76927 0.16859 0.0
H2998 H 0.55065 0.77238 0.17041 0.0
H2999 H 0.55526 0.76788 0.1514 0.0
C3000 C 0.23411 0.5802 0.16749 0.0
C3001 C 0.23315 0.5749 0.17118 0.0
C3002 C 0.22592 0.58067 0.17774 0.0
C3003 C 0.2291 0.57513 0.17627 0.0
C3004 C 0.22699 0.58601 0.17408 0.0
C3005 C 0.23104 0.58576 0.16898 0.0
U3006 U 0.24429 0.57068 0.15678 0.0
O3007 O 0.24487 0.57039 0.14657 0.0
O3008 O 0.25312 0.57291 0.15205 0.0
C3009 C 0.25062 0.5725 0.14648 0.0
C3010 C 0.23813 0.57987 0.16197 0.0
C3011 C 0.25168 0.57789 0.1424 0.0
C3012 C 0.24963 0.58864 0.13954 0.0
C3013 C 0.24872 0.58359 0.14356 0.0
C3014 C 0.25651 0.58233 0.1332 0.0
C3015 C 0.25352 0.58806 0.1343 0.0
C3016 C 0.25559 0.57729 0.13722 0.0
C3017 C 0.24617 0.55334 0.16085 0.0
C3018 C 0.25069 0.54551 0.15403 0.0
C3019 C 0.24744 0.54271 0.16446 0.0
C3020 C 0.24556 0.54884 0.16553 0.0
C3021 C 0.24998 0.54095 0.15868 0.0
C3022 C 0.24881 0.55167 0.15511 0.0
C3023 C 0.24381 0.55965 0.16201 0.0
O3024 O 0.24405 0.57876 0.16309 0.0
O3025 O 0.23589 0.57649 0.15739 0.0
O3026 O 0.23962 0.56167 0.15804 0.0
O3027 O 0.248 0.56387 0.16348 0.0
H3028 H 0.23549 0.57056 0.17009 0.0
H3029 H 0.22845 0.57097 0.17904 0.0
H3030 H 0.22456 0.59032 0.17504 0.0
H3031 H 0.23172 0.58989 0.16616 0.0
H3032 H 0.24731 0.593 0.14056 0.0
H3033 H 0.24569 0.58413 0.14756 0.0
H3034 H 0.25947 0.5817 0.12916 0.0
H3035 H 0.25789 0.5729 0.13625 0.0
H3036 H 0.25268 0.54432 0.14955 0.0
H3037 H 0.24672 0.5393 0.16811 0.0
H3038 H 0.2435 0.55005 0.16998 0.0
H3039 H 0.24933 0.5551 0.15145 0.0
C3040 C 0.4352 0.78204 0.847 0.0
C3041 C 0.44028 0.78572 0.84512 0.0
C3042 C 0.43429 0.78974 0.83637 0.0
C3043 C 0.43981 0.78956 0.8399 0.0
C3044 C 0.42925 0.78594 0.83821 0.0
C3045 C 0.42971 0.78214 0.84349 0.0
U3046 U 0.44489 0.77222 0.85792 0.0
O3047 O 0.44528 0.77199 0.86815 0.0
O3048 O 0.44284 0.76353 0.86294 0.0
C3049 C 0.44325 0.76622 0.86843 0.0
C3050 C 0.43563 0.7781 0.85259 0.0
C3051 C 0.43799 0.76519 0.87271 0.0
C3052 C 0.4269 0.76412 0.87475 0.0
C3053 C 0.43182 0.76495 0.87056 0.0
C3054 C 0.43425 0.76384 0.88329 0.0
C3055 C 0.42806 0.7636 0.88117 0.0
C3056 C 0.43917 0.76462 0.8791 0.0
C3057 C 0.46231 0.77053 0.85365 0.0
C3058 C 0.47145 0.76935 0.86023 0.0
C3059 C 0.47212 0.7671 0.8492 0.0
C3060 C 0.46582 0.76855 0.84852 0.0
C3061 C 0.47505 0.76763 0.85503 0.0
C3062 C 0.46512 0.77078 0.85955 0.0
C3063 C 0.45588 0.7727 0.8526 0.0
O3064 O 0.43682 0.77218 0.85157 0.0
O3065 O 0.4389 0.78046 0.8572 0.0
O3066 O 0.4538 0.77701 0.85642 0.0
O3067 O 0.45173 0.7684 0.85128 0.0
H3068 H 0.44459 0.78569 0.84774 0.0
H3069 H 0.44375 0.79248 0.83871 0.0
H3070 H 0.42497 0.78587 0.83556 0.0
H3071 H 0.42576 0.77929 0.84483 0.0
H3072 H 0.42217 0.76401 0.87299 0.0
H3073 H 0.43081 0.76546 0.86564 0.0
H3074 H 0.4353 0.76338 0.8882 0.0
H3075 H 0.4439 0.76481 0.88085 0.0
H3076 H 0.47356 0.76984 0.86478 0.0
H3077 H 0.47473 0.76568 0.84513 0.0
H3078 H 0.46373 0.7683 0.84394 0.0
H3079 H 0.46249 0.77227 0.86359 0.0
C3080 C 0.23429 0.43616 0.84755 0.0
C3081 C 0.23313 0.44158 0.8441 0.0
C3082 C 0.22597 0.43586 0.83741 0.0
C3083 C 0.22901 0.44143 0.83908 0.0
C3084 C 0.22725 0.43041 0.84083 0.0
C3085 C 0.23137 0.43057 0.84587 0.0
U3086 U 0.24479 0.44543 0.85818 0.0
O3087 O 0.24549 0.44568 0.86838 0.0
O3088 O 0.25362 0.44301 0.86278 0.0
C3089 C 0.25119 0.44345 0.86839 0.0
C3090 C 0.23839 0.43639 0.85302 0.0
C3091 C 0.25218 0.43804 0.87245 0.0
C3092 C 0.24968 0.42744 0.87554 0.0
C3093 C 0.24882 0.43251 0.87154 0.0
C3094 C 0.25733 0.43338 0.88135 0.0
C3095 C 0.25393 0.42783 0.88051 0.0
C3096 C 0.25646 0.43844 0.87735 0.0
C3097 C 0.24701 0.46279 0.85416 0.0
C3098 C 0.24982 0.47125 0.86115 0.0
C3099 C 0.25006 0.47285 0.84999 0.0
C3100 C 0.24816 0.46669 0.84907 0.0
C3101 C 0.25082 0.47523 0.85604 0.0
C3102 C 0.24795 0.46506 0.86022 0.0
C3103 C 0.2445 0.45651 0.85302 0.0
O3104 O 0.24431 0.4374 0.85182 0.0
O3105 O 0.23627 0.43978 0.85765 0.0
O3106 O 0.24028 0.45452 0.85699 0.0
O3107 O 0.24858 0.45221 0.85147 0.0
H3108 H 0.23537 0.44593 0.84534 0.0
H3109 H 0.22819 0.44568 0.83649 0.0
H3110 H 0.22494 0.42607 0.83971 0.0
H3111 H 0.23221 0.42635 0.8485 0.0
H3112 H 0.24704 0.42322 0.87473 0.0
H3113 H 0.24551 0.43212 0.86775 0.0
H3114 H 0.26058 0.43386 0.88517 0.0
H3115 H 0.25908 0.44269 0.87812 0.0
H3116 H 0.25044 0.47293 0.86586 0.0
H3117 H 0.2507 0.47581 0.84596 0.0
H3118 H 0.24743 0.46502 0.84436 0.0
H3119 H 0.24712 0.46211 0.86422 0.0
C3120 C 0.58015 0.23381 0.84796 0.0
C3121 C 0.57498 0.23013 0.84634 0.0
C3122 C 0.58084 0.2255 0.83782 0.0
C3123 C 0.57534 0.22598 0.84134 0.0
C3124 C 0.58595 0.2293 0.83935 0.0
C3125 C 0.58561 0.2334 0.84441 0.0
U3126 U 0.57078 0.2446 0.85827 0.0
O3127 O 0.5704 0.24554 0.86845 0.0
O3128 O 0.57316 0.25354 0.8627 0.0
C3129 C 0.5726 0.25126 0.86835 0.0
C3130 C 0.57984 0.2381 0.85331 0.0
C3131 C 0.57789 0.2524 0.87254 0.0
C3132 C 0.58863 0.2506 0.87559 0.0
C3133 C 0.58372 0.24968 0.87141 0.0
C3134 C 0.58193 0.25702 0.88202 0.0
C3135 C 0.58778 0.25424 0.88098 0.0
C3136 C 0.57704 0.2561 0.87784 0.0
C3137 C 0.55346 0.24665 0.85405 0.0
C3138 C 0.54501 0.24979 0.8609 0.0
C3139 C 0.54343 0.24954 0.84974 0.0
C3140 C 0.54957 0.24758 0.84891 0.0
C3141 C 0.54104 0.25059 0.85575 0.0
C3142 C 0.55118 0.24786 0.86006 0.0
C3143 C 0.55975 0.24413 0.85302 0.0
O3144 O 0.57884 0.24398 0.85193 0.0
O3145 O 0.5765 0.23613 0.85805 0.0
O3146 O 0.5617 0.24002 0.85711 0.0
O3147 O 0.56405 0.24819 0.85141 0.0
H3148 H 0.57068 0.23043 0.84896 0.0
H3149 H 0.5713 0.22317 0.84021 0.0
H3150 H 0.59025 0.229 0.83673 0.0
H3151 H 0.58963 0.23624 0.84557 0.0
H3152 H 0.59305 0.24834 0.87468 0.0
H3153 H 0.58444 0.24678 0.86735 0.0
H3154 H 0.58115 0.25993 0.88607 0.0
H3155 H 0.57256 0.25824 0.87877 0.0
H3156 H 0.54333 0.25062 0.86558 0.0
H3157 H 0.54048 0.25003 0.84568 0.0
H3158 H 0.55125 0.24666 0.84424 0.0
H3159 H 0.55413 0.2472 0.8641 0.0
C3160 C 0.78294 0.57999 0.84748 0.0
C3161 C 0.7868 0.57491 0.84606 0.0
C3162 C 0.79124 0.58058 0.83731 0.0
C3163 C 0.79094 0.57522 0.84105 0.0
C3164 C 0.78728 0.58562 0.83867 0.0
C3165 C 0.78318 0.58533 0.84373 0.0
U3166 U 0.7722 0.57069 0.85793 0.0
O3167 O 0.77115 0.57055 0.86809 0.0
O3168 O 0.76318 0.57308 0.86221 0.0
C3169 C 0.76543 0.57272 0.86789 0.0
C3170 C 0.77863 0.57973 0.85281 0.0
C3171 C 0.76423 0.57815 0.8719 0.0
C3172 C 0.76711 0.58841 0.87572 0.0
C3173 C 0.76814 0.58339 0.87169 0.0
C3174 C 0.75816 0.58306 0.88007 0.0
C3175 C 0.76213 0.58829 0.87998 0.0
C3176 C 0.75922 0.57803 0.87607 0.0
C3177 C 0.77045 0.55326 0.85408 0.0
C3178 C 0.76626 0.54533 0.86099 0.0
C3179 C 0.76881 0.54272 0.85031 0.0
C3180 C 0.7707 0.54886 0.84927 0.0
C3181 C 0.76662 0.54086 0.8562 0.0
C3182 C 0.76815 0.55149 0.85993 0.0
C3183 C 0.77288 0.55955 0.85292 0.0
O3184 O 0.77277 0.5786 0.85141 0.0
O3185 O 0.7806 0.57654 0.85764 0.0
O3186 O 0.77691 0.56166 0.85703 0.0
O3187 O 0.76877 0.56374 0.8512 0.0
H3188 H 0.78664 0.57069 0.84883 0.0
H3189 H 0.79388 0.57123 0.84006 0.0
H3190 H 0.78743 0.58982 0.83588 0.0
H3191 H 0.78021 0.58929 0.84473 0.0
H3192 H 0.7702 0.5924 0.87548 0.0
H3193 H 0.77202 0.58357 0.86847 0.0
H3194 H 0.75433 0.58279 0.88334 0.0
H3195 H 0.75617 0.57401 0.87629 0.0
H3196 H 0.76455 0.54406 0.86556 0.0
H3197 H 0.76924 0.53939 0.84655 0.0
H3198 H 0.77249 0.55014 0.84473 0.0
H3199 H 0.7679 0.55485 0.8637 0.0
C3200 C 0.1692 0.43508 0.23462 0.0
C3201 C 0.17288 0.4404 0.23367 0.0
C3202 C 0.17951 0.43464 0.2265 0.0
C3203 C 0.17799 0.44019 0.22966 0.0
C3204 C 0.17589 0.42928 0.22759 0.0
C3205 C 0.17076 0.42951 0.23161 0.0
U3206 U 0.15829 0.4448 0.24433 0.0
O3207 O 0.14805 0.44531 0.24443 0.0
O3208 O 0.15312 0.44283 0.25294 0.0
C3209 C 0.14767 0.4433 0.25019 0.0
C3210 C 0.16355 0.43546 0.23846 0.0
C3211 C 0.14332 0.4381 0.25119 0.0
C3212 C 0.14113 0.42702 0.25212 0.0
C3213 C 0.14539 0.43189 0.25128 0.0
C3214 C 0.1327 0.43449 0.25269 0.0
C3215 C 0.13473 0.42827 0.2528 0.0
C3216 C 0.13695 0.43936 0.2519 0.0
C3217 C 0.16277 0.46217 0.24603 0.0
C3218 C 0.15613 0.47124 0.24746 0.0
C3219 C 0.16729 0.47212 0.24896 0.0
C3220 C 0.16797 0.46579 0.2476 0.0
C3221 C 0.16139 0.47495 0.24875 0.0
C3222 C 0.15682 0.46489 0.24612 0.0
C3223 C 0.16377 0.45573 0.2439 0.0
O3224 O 0.16449 0.43663 0.2444 0.0
O3225 O 0.15907 0.43885 0.23604 0.0
O3226 O 0.15997 0.45368 0.23956 0.0
O3227 O 0.16497 0.45157 0.24822 0.0
H3228 H 0.17173 0.44475 0.23597 0.0
H3229 H 0.18074 0.44437 0.22899 0.0
H3230 H 0.1769 0.42496 0.22518 0.0
H3231 H 0.16794 0.42537 0.23226 0.0
H3232 H 0.14283 0.42226 0.25213 0.0
H3233 H 0.15028 0.43081 0.25067 0.0
H3234 H 0.12781 0.4356 0.25327 0.0
H3235 H 0.13527 0.44412 0.25182 0.0
H3236 H 0.15153 0.47328 0.24724 0.0
H3237 H 0.17141 0.47482 0.25005 0.0
H3238 H 0.17259 0.46377 0.24759 0.0
H3239 H 0.15274 0.46216 0.24495 0.0
C3240 C 0.58081 0.16761 0.23309 0.0
C3241 C 0.57579 0.17171 0.23235 0.0
C3242 C 0.58174 0.17775 0.22481 0.0
C3243 C 0.57625 0.17675 0.22825 0.0
C3244 C 0.58678 0.17364 0.22562 0.0
C3245 C 0.58631 0.16861 0.22973 0.0
U3246 U 0.57094 0.15752 0.24361 0.0
O3247 O 0.57027 0.14734 0.24448 0.0
O3248 O 0.57306 0.15297 0.25254 0.0
C3249 C 0.57241 0.14735 0.25021 0.0
C3250 C 0.58026 0.16219 0.23723 0.0
C3251 C 0.57761 0.14306 0.25138 0.0
C3252 C 0.58795 0.13916 0.24891 0.0
C3253 C 0.58309 0.14337 0.24783 0.0
C3254 C 0.58192 0.13437 0.25717 0.0
C3255 C 0.58741 0.13458 0.25357 0.0
C3256 C 0.57707 0.13857 0.25607 0.0
C3257 C 0.55378 0.16225 0.24564 0.0
C3258 C 0.54537 0.15556 0.24923 0.0
C3259 C 0.54365 0.16665 0.24805 0.0
C3260 C 0.54982 0.1674 0.2461 0.0
C3261 C 0.54133 0.16071 0.24956 0.0
C3262 C 0.55156 0.15632 0.2473 0.0
C3263 C 0.5601 0.16314 0.24314 0.0
O3264 O 0.57925 0.1635 0.24312 0.0
O3265 O 0.57666 0.1577 0.23512 0.0
O3266 O 0.56193 0.15901 0.23901 0.0
O3267 O 0.56442 0.16459 0.24722 0.0
H3268 H 0.57149 0.17098 0.23489 0.0
H3269 H 0.57226 0.17977 0.22768 0.0
H3270 H 0.59109 0.17432 0.22309 0.0
H3271 H 0.59023 0.16547 0.23025 0.0
H3272 H 0.59207 0.13942 0.24602 0.0
H3273 H 0.58358 0.14683 0.24419 0.0
H3274 H 0.58139 0.13098 0.26086 0.0
H3275 H 0.57288 0.13829 0.25888 0.0
H3276 H 0.54374 0.15093 0.25042 0.0
H3277 H 0.54065 0.1707 0.24817 0.0
H3278 H 0.55145 0.17201 0.24482 0.0
H3279 H 0.55457 0.15228 0.24701 0.0
C3280 C 0.84774 0.57975 0.23296 0.0
C3281 C 0.84647 0.57473 0.22895 0.0
C3282 C 0.83757 0.58026 0.22467 0.0
C3283 C 0.84147 0.575 0.22482 0.0
C3284 C 0.83875 0.58521 0.22879 0.0
C3285 C 0.84381 0.58497 0.23288 0.0
U3286 U 0.85827 0.57063 0.24373 0.0
O3287 O 0.86848 0.57044 0.24456 0.0
O3288 O 0.86275 0.57309 0.2526 0.0
C3289 C 0.86839 0.57269 0.25024 0.0
C3290 C 0.85311 0.57956 0.23723 0.0
C3291 C 0.87253 0.57806 0.25131 0.0
C3292 C 0.87431 0.58923 0.25215 0.0
C3293 C 0.87025 0.58419 0.25129 0.0
C3294 C 0.88299 0.58206 0.253 0.0
C3295 C 0.88073 0.58821 0.25298 0.0
C3296 C 0.87892 0.57704 0.25219 0.0
C3297 C 0.85431 0.55324 0.24588 0.0
C3298 C 0.86127 0.54487 0.24898 0.0
C3299 C 0.8501 0.54318 0.2489 0.0
C3300 C 0.8492 0.5493 0.24691 0.0
C3301 C 0.85615 0.54086 0.24988 0.0
C3302 C 0.86035 0.55102 0.24702 0.0
C3303 C 0.85319 0.5595 0.24335 0.0
O3304 O 0.85177 0.57856 0.24311 0.0
O3305 O 0.85792 0.57632 0.23526 0.0
O3306 O 0.85723 0.56151 0.23921 0.0
O3307 O 0.85153 0.56379 0.2474 0.0
H3308 H 0.84937 0.5706 0.22899 0.0
H3309 H 0.84061 0.57108 0.22176 0.0
H3310 H 0.83583 0.58933 0.22875 0.0
H3311 H 0.84469 0.58888 0.23596 0.0
H3312 H 0.87246 0.59392 0.25205 0.0
H3313 H 0.86534 0.5851 0.25055 0.0
H3314 H 0.8879 0.58112 0.25369 0.0
H3315 H 0.88076 0.57234 0.2522 0.0
H3316 H 0.86597 0.54323 0.24975 0.0
H3317 H 0.84607 0.5402 0.24945 0.0
H3318 H 0.8445 0.55093 0.24604 0.0
H3319 H 0.86436 0.554 0.24629 0.0
C3320 C 0.43576 0.84806 0.23314 0.0
C3321 C 0.441 0.84431 0.23203 0.0
C3322 C 0.4349 0.83769 0.22512 0.0
C3323 C 0.44057 0.83917 0.22806 0.0
C3324 C 0.42965 0.84143 0.22632 0.0
C3325 C 0.43008 0.84658 0.23029 0.0
U3326 U 0.44551 0.85872 0.24323 0.0
O3327 O 0.44592 0.86895 0.24373 0.0
O3328 O 0.44333 0.86355 0.25201 0.0
C3329 C 0.4438 0.8691 0.24946 0.0
C3330 C 0.43626 0.85361 0.23711 0.0
C3331 C 0.43845 0.87324 0.25048 0.0
C3332 C 0.42772 0.87616 0.2484 0.0
C3333 C 0.43275 0.87212 0.24749 0.0
C3334 C 0.43403 0.88243 0.25536 0.0
C3335 C 0.42831 0.88138 0.25234 0.0
C3336 C 0.43906 0.8784 0.25443 0.0
C3337 C 0.4628 0.85449 0.24532 0.0
C3338 C 0.47127 0.86149 0.24811 0.0
C3339 C 0.47285 0.85031 0.24834 0.0
C3340 C 0.46669 0.84939 0.24646 0.0
C3341 C 0.47524 0.85637 0.24911 0.0
C3342 C 0.46509 0.86056 0.24625 0.0
C3343 C 0.45649 0.85336 0.24289 0.0
O3344 O 0.43735 0.85251 0.24302 0.0
O3345 O 0.43973 0.85811 0.23482 0.0
O3346 O 0.45452 0.85728 0.23862 0.0
O3347 O 0.45222 0.85195 0.24704 0.0
H3348 H 0.44543 0.84542 0.23418 0.0
H3349 H 0.44472 0.83644 0.22718 0.0
H3350 H 0.4252 0.84038 0.22419 0.0
H3351 H 0.426 0.84943 0.23111 0.0
H3352 H 0.42336 0.87518 0.24606 0.0
H3353 H 0.43221 0.86814 0.24443 0.0
H3354 H 0.43466 0.88645 0.25835 0.0
H3355 H 0.44344 0.87933 0.25676 0.0
H3356 H 0.47296 0.86621 0.24872 0.0
H3357 H 0.47581 0.84627 0.24899 0.0
H3358 H 0.46501 0.84468 0.24575 0.0
H3359 H 0.46213 0.86456 0.24544 0.0
C3360 C 0.16798 0.57991 0.78201 0.0
C3361 C 0.16948 0.57472 0.7857 0.0
C3362 C 0.17798 0.58049 0.7905 0.0
C3363 C 0.17441 0.57503 0.78993 0.0
C3364 C 0.17656 0.58563 0.78669 0.0
C3365 C 0.17158 0.58534 0.7825 0.0
U3366 U 0.1576 0.57074 0.77109 0.0
O3367 O 0.14742 0.57064 0.76999 0.0
O3368 O 0.15337 0.57324 0.7621 0.0
C3369 C 0.14767 0.57286 0.7643 0.0
C3370 C 0.16269 0.57969 0.77766 0.0
C3371 C 0.1437 0.57832 0.76317 0.0
C3372 C 0.14098 0.58912 0.7652 0.0
C3373 C 0.14494 0.58402 0.76612 0.0
C3374 C 0.13458 0.58287 0.75832 0.0
C3375 C 0.13573 0.58859 0.76131 0.0
C3376 C 0.13853 0.57778 0.75925 0.0
C3377 C 0.16141 0.55332 0.76902 0.0
C3378 C 0.15441 0.545 0.76583 0.0
C3379 C 0.16555 0.54324 0.76602 0.0
C3380 C 0.16649 0.54935 0.76803 0.0
C3381 C 0.1595 0.54096 0.76498 0.0
C3382 C 0.15536 0.55115 0.76782 0.0
C3383 C 0.16256 0.55958 0.77158 0.0
O3384 O 0.16414 0.57864 0.77181 0.0
O3385 O 0.15785 0.57645 0.77956 0.0
O3386 O 0.15845 0.56163 0.77564 0.0
O3387 O 0.16435 0.56384 0.76758 0.0
H3388 H 0.16682 0.57045 0.78534 0.0
H3389 H 0.17545 0.57097 0.79275 0.0
H3390 H 0.17922 0.5899 0.78706 0.0
H3391 H 0.17051 0.58938 0.77967 0.0
H3392 H 0.14204 0.59347 0.76752 0.0
H3393 H 0.14892 0.58451 0.76917 0.0
H3394 H 0.13053 0.58227 0.75536 0.0
H3395 H 0.1375 0.5734 0.75696 0.0
H3396 H 0.14969 0.5434 0.76501 0.0
H3397 H 0.16957 0.54023 0.76549 0.0
H3398 H 0.1712 0.55095 0.76895 0.0
H3399 H 0.15137 0.55415 0.76852 0.0
C3400 C 0.43558 0.16838 0.78128 0.0
C3401 C 0.44067 0.17241 0.78208 0.0
C3402 C 0.43467 0.17868 0.78937 0.0
C3403 C 0.44022 0.17752 0.78608 0.0
C3404 C 0.42956 0.17467 0.78848 0.0
C3405 C 0.43001 0.16956 0.78447 0.0
U3406 U 0.44555 0.15767 0.77147 0.0
O3407 O 0.44594 0.14743 0.77111 0.0
O3408 O 0.44366 0.15275 0.76269 0.0
C3409 C 0.444 0.14723 0.76531 0.0
C3410 C 0.43615 0.16281 0.77734 0.0
C3411 C 0.43873 0.143 0.76413 0.0
C3412 C 0.42762 0.14108 0.76306 0.0
C3413 C 0.43257 0.14518 0.76416 0.0
C3414 C 0.43494 0.13255 0.76199 0.0
C3415 C 0.42874 0.1347 0.76196 0.0
C3416 C 0.43988 0.13667 0.76305 0.0
C3417 C 0.46287 0.16189 0.76979 0.0
C3418 C 0.47104 0.15487 0.76632 0.0
C3419 C 0.47328 0.16584 0.76779 0.0
C3420 C 0.4671 0.16686 0.76957 0.0
C3421 C 0.47534 0.15982 0.76622 0.0
C3422 C 0.46484 0.1559 0.76808 0.0
C3423 C 0.45652 0.16306 0.77206 0.0
O3424 O 0.43739 0.16387 0.77145 0.0
O3425 O 0.43955 0.15833 0.77974 0.0
O3426 O 0.45444 0.15915 0.77629 0.0
O3427 O 0.45235 0.16442 0.76779 0.0
H3428 H 0.44502 0.17153 0.77967 0.0
H3429 H 0.44426 0.18047 0.78672 0.0
H3430 H 0.4252 0.17548 0.79089 0.0
H3431 H 0.42604 0.16649 0.7839 0.0
H3432 H 0.42292 0.14291 0.763 0.0
H3433 H 0.43158 0.15006 0.76502 0.0
H3434 H 0.43598 0.12767 0.76128 0.0
H3435 H 0.4446 0.13489 0.76307 0.0
H3436 H 0.47247 0.15019 0.76508 0.0
H3437 H 0.47648 0.16974 0.76785 0.0
H3438 H 0.46566 0.17151 0.77089 0.0
H3439 H 0.46162 0.15201 0.7682 0.0
C3440 C 0.84786 0.43535 0.78169 0.0
C3441 C 0.84617 0.44036 0.78555 0.0
C3442 C 0.83734 0.43445 0.78956 0.0
C3443 C 0.841 0.43989 0.78947 0.0
C3444 C 0.83901 0.42947 0.78562 0.0
C3445 C 0.84423 0.42992 0.78173 0.0
U3446 U 0.85849 0.4453 0.77184 0.0
O3447 O 0.86869 0.44569 0.77113 0.0
O3448 O 0.86311 0.44354 0.76285 0.0
C3449 C 0.86871 0.44389 0.76529 0.0
C3450 C 0.85331 0.43583 0.77756 0.0
C3451 C 0.87288 0.43864 0.7639 0.0
C3452 C 0.87615 0.42794 0.76558 0.0
C3453 C 0.87197 0.43281 0.76671 0.0
C3454 C 0.88211 0.43465 0.75874 0.0
C3455 C 0.8813 0.42882 0.76163 0.0
C3456 C 0.87793 0.43952 0.75987 0.0
C3457 C 0.85429 0.46276 0.7712 0.0
C3458 C 0.86094 0.47102 0.7672 0.0
C3459 C 0.85062 0.47343 0.77111 0.0
C3460 C 0.84962 0.46714 0.7724 0.0
C3461 C 0.85633 0.47546 0.7686 0.0
C3462 C 0.85993 0.46469 0.76851 0.0
C3463 C 0.85324 0.45627 0.77309 0.0
O3464 O 0.85208 0.43726 0.77174 0.0
O3465 O 0.85807 0.43896 0.77984 0.0
O3466 O 0.85728 0.454 0.77708 0.0
O3467 O 0.85176 0.45234 0.76864 0.0
H3468 H 0.84887 0.44463 0.78555 0.0
H3469 H 0.83994 0.44378 0.7925 0.0
H3470 H 0.83626 0.42524 0.78549 0.0
H3471 H 0.84543 0.42603 0.77874 0.0
H3472 H 0.87542 0.42353 0.76793 0.0
H3473 H 0.86809 0.43207 0.76985 0.0
H3474 H 0.88597 0.43546 0.75559 0.0
H3475 H 0.87868 0.44399 0.75765 0.0
H3476 H 0.86539 0.47244 0.7653 0.0
H3477 H 0.84694 0.47673 0.77214 0.0
H3478 H 0.84523 0.46572 0.77445 0.0
H3479 H 0.86358 0.46135 0.76756 0.0
C3480 C 0.58089 0.84733 0.78139 0.0
C3481 C 0.57548 0.84394 0.78278 0.0
C3482 C 0.58137 0.83722 0.78974 0.0
C3483 C 0.57571 0.83893 0.78692 0.0
C3484 C 0.5868 0.84057 0.78823 0.0
C3485 C 0.58656 0.84559 0.7841 0.0
U3486 U 0.57138 0.85789 0.77109 0.0
O3487 O 0.57106 0.86809 0.77037 0.0
O3488 O 0.57361 0.8625 0.7622 0.0
C3489 C 0.5732 0.8681 0.76464 0.0
C3490 C 0.58057 0.85279 0.77728 0.0
C3491 C 0.5786 0.87219 0.76355 0.0
C3492 C 0.58898 0.87576 0.76633 0.0
C3493 C 0.58394 0.87173 0.76729 0.0
C3494 C 0.58344 0.88064 0.75781 0.0
C3495 C 0.58877 0.88028 0.7616 0.0
C3496 C 0.57839 0.87663 0.75879 0.0
C3497 C 0.55394 0.8536 0.76946 0.0
C3498 C 0.54498 0.86027 0.76764 0.0
C3499 C 0.54392 0.84906 0.76684 0.0
C3500 C 0.55024 0.84837 0.76823 0.0
C3501 C 0.54118 0.85501 0.76669 0.0
C3502 C 0.55131 0.85958 0.76901 0.0
C3503 C 0.56035 0.85263 0.77169 0.0
O3504 O 0.57944 0.85156 0.7714 0.0
O3505 O 0.57723 0.85743 0.77946 0.0
O3506 O 0.56242 0.85664 0.77584 0.0
O3507 O 0.56453 0.85113 0.76747 0.0
H3508 H 0.57106 0.84522 0.78071 0.0
H3509 H 0.57146 0.8364 0.78792 0.0
H3510 H 0.59122 0.8394 0.79037 0.0
H3511 H 0.59078 0.84818 0.78308 0.0
H3512 H 0.59305 0.87531 0.76927 0.0
H3513 H 0.58419 0.86829 0.77096 0.0
H3514 H 0.58311 0.88412 0.75417 0.0
H3515 H 0.5743 0.87704 0.75587 0.0
H3516 H 0.543 0.86491 0.76759 0.0
H3517 H 0.54116 0.84492 0.76602 0.0
H3518 H 0.55219 0.84372 0.76852 0.0
H3519 H 0.5541 0.86369 0.76993 0.0
C3520 C 0.23442 0.16893 0.43492 0.0
C3521 C 0.23388 0.17302 0.43999 0.0
C3522 C 0.22657 0.17944 0.43416 0.0
C3523 C 0.23 0.17823 0.43961 0.0
C3524 C 0.22721 0.17536 0.42906 0.0
C3525 C 0.23109 0.17015 0.42945 0.0
U3526 U 0.24425 0.1581 0.44469 0.0
O3527 O 0.24445 0.14786 0.44516 0.0
O3528 O 0.25289 0.15303 0.44256 0.0
C3529 C 0.2502 0.14755 0.44307 0.0
C3530 C 0.23824 0.16329 0.43542 0.0
C3531 C 0.25113 0.1433 0.43778 0.0
C3532 C 0.24994 0.14079 0.42682 0.0
C3533 C 0.24914 0.14493 0.43179 0.0
C3534 C 0.25473 0.13335 0.43381 0.0
C3535 C 0.25272 0.13493 0.42778 0.0
C3536 C 0.25395 0.1375 0.43876 0.0
C3537 C 0.24641 0.16244 0.46194 0.0
C3538 C 0.24922 0.15546 0.47039 0.0
C3539 C 0.24929 0.16663 0.47203 0.0
C3540 C 0.24744 0.16754 0.46587 0.0
C3541 C 0.25012 0.16057 0.47439 0.0
C3542 C 0.2474 0.15638 0.4642 0.0
C3543 C 0.24403 0.16356 0.45562 0.0
O3544 O 0.2442 0.16424 0.43649 0.0
O3545 O 0.23584 0.15887 0.43891 0.0
O3546 O 0.23966 0.15972 0.45368 0.0
O3547 O 0.24823 0.16483 0.45135 0.0
H3548 H 0.23641 0.17214 0.44426 0.0
H3549 H 0.22968 0.18132 0.44359 0.0
H3550 H 0.22458 0.17611 0.42483 0.0
H3551 H 0.23144 0.16701 0.42551 0.0
H3552 H 0.24827 0.14212 0.42226 0.0
H3553 H 0.24692 0.14939 0.43096 0.0
H3554 H 0.25696 0.12891 0.43469 0.0
H3555 H 0.25552 0.13618 0.44336 0.0
H3556 H 0.24988 0.15074 0.47205 0.0
H3557 H 0.24986 0.17066 0.475 0.0
H3558 H 0.24668 0.17225 0.4642 0.0
H3559 H 0.24666 0.15237 0.46122 0.0
C3560 C 0.23425 0.84817 0.5796 0.0
C3561 C 0.23304 0.84447 0.57436 0.0
C3562 C 0.22621 0.83781 0.5805 0.0
C3563 C 0.22906 0.83933 0.5748 0.0
C3564 C 0.22749 0.84151 0.58576 0.0
C3565 C 0.23148 0.84665 0.58531 0.0
U3566 U 0.2443 0.85873 0.56975 0.0
O3567 O 0.24493 0.86895 0.56933 0.0
O3568 O 0.25319 0.86344 0.57175 0.0
C3569 C 0.25071 0.86903 0.57133 0.0
C3570 C 0.23826 0.85369 0.57909 0.0
C3571 C 0.25189 0.87318 0.57664 0.0
C3572 C 0.24985 0.87636 0.5873 0.0
C3573 C 0.24879 0.8723 0.58232 0.0
C3574 C 0.25718 0.88218 0.58098 0.0
C3575 C 0.25405 0.88137 0.58668 0.0
C3576 C 0.25611 0.87812 0.57601 0.0
C3577 C 0.24597 0.85445 0.55247 0.0
C3578 C 0.25076 0.86113 0.54468 0.0
C3579 C 0.24699 0.85087 0.54181 0.0
C3580 C 0.2451 0.84984 0.54794 0.0
C3581 C 0.24981 0.85654 0.54009 0.0
C3582 C 0.24886 0.86009 0.55083 0.0
C3583 C 0.24365 0.85335 0.5588 0.0
O3584 O 0.24416 0.85254 0.5779 0.0
O3585 O 0.23597 0.85822 0.57568 0.0
O3586 O 0.2395 0.85737 0.56083 0.0
O3587 O 0.24787 0.85191 0.56298 0.0
H3588 H 0.23513 0.8456 0.56991 0.0
H3589 H 0.22811 0.83664 0.57065 0.0
H3590 H 0.22543 0.84042 0.59023 0.0
H3591 H 0.23237 0.84947 0.5894 0.0
H3592 H 0.24741 0.87557 0.59164 0.0
H3593 H 0.24553 0.86848 0.58289 0.0
H3594 H 0.26038 0.88603 0.58033 0.0
H3595 H 0.25853 0.87888 0.57165 0.0
H3596 H 0.25296 0.86552 0.54351 0.0
H3597 H 0.24609 0.84727 0.53839 0.0
H3598 H 0.24285 0.84548 0.54913 0.0
H3599 H 0.24958 0.8637 0.55429 0.0
C3600 C 0.16799 0.23399 0.58041 0.0
C3601 C 0.16928 0.23 0.57539 0.0
C3602 C 0.17801 0.22553 0.58103 0.0
C3603 C 0.17421 0.22578 0.57572 0.0
C3604 C 0.1768 0.22962 0.586 0.0
C3605 C 0.1718 0.2338 0.5857 0.0
U3606 U 0.15773 0.24431 0.57065 0.0
O3607 O 0.14758 0.24547 0.57033 0.0
O3608 O 0.15355 0.25352 0.57242 0.0
C3609 C 0.14783 0.25131 0.57214 0.0
C3610 C 0.16275 0.23841 0.58006 0.0
C3611 C 0.14378 0.25285 0.57743 0.0
C3612 C 0.14027 0.25094 0.58801 0.0
C3613 C 0.14443 0.24974 0.58314 0.0
C3614 C 0.1349 0.25848 0.58158 0.0
C3615 C 0.13541 0.25527 0.58727 0.0
C3616 C 0.13904 0.25727 0.57671 0.0
C3617 C 0.16194 0.24438 0.55313 0.0
C3618 C 0.15578 0.2488 0.54474 0.0
C3619 C 0.16552 0.24356 0.54247 0.0
C3620 C 0.16639 0.24243 0.54879 0.0
C3621 C 0.16016 0.24666 0.54035 0.0
C3622 C 0.15665 0.24764 0.5511 0.0
C3623 C 0.16283 0.24264 0.55967 0.0
O3624 O 0.16426 0.24416 0.57858 0.0
O3625 O 0.15781 0.23636 0.57708 0.0
O3626 O 0.15859 0.2389 0.56203 0.0
O3627 O 0.16452 0.24712 0.56349 0.0
H3628 H 0.16646 0.23013 0.57121 0.0
H3629 H 0.1751 0.22275 0.57178 0.0
H3630 H 0.17965 0.22951 0.59016 0.0
H3631 H 0.17091 0.23688 0.5896 0.0
H3632 H 0.14077 0.24833 0.5923 0.0
H3633 H 0.14806 0.2463 0.58377 0.0
H3634 H 0.13127 0.26191 0.58088 0.0
H3635 H 0.13849 0.25972 0.57233 0.0
H3636 H 0.1516 0.25119 0.54323 0.0
H3637 H 0.16903 0.24196 0.53922 0.0
H3638 H 0.1705 0.23993 0.55029 0.0
H3639 H 0.15316 0.24917 0.55441 0.0
C3640 C 0.78226 0.16884 0.57978 0.0
C3641 C 0.78395 0.17211 0.57439 0.0
C3642 C 0.79029 0.17922 0.58055 0.0
C3643 C 0.78793 0.17725 0.57476 0.0
C3644 C 0.78852 0.17596 0.58595 0.0
C3645 C 0.78454 0.1708 0.58556 0.0
U3646 U 0.77203 0.15823 0.57016 0.0
O3647 O 0.77133 0.14802 0.56981 0.0
O3648 O 0.76314 0.15358 0.57237 0.0
C3649 C 0.7656 0.14798 0.57195 0.0
C3650 C 0.77821 0.16334 0.57937 0.0
C3651 C 0.7645 0.14387 0.57731 0.0
C3652 C 0.76748 0.13995 0.58749 0.0
C3653 C 0.76847 0.14401 0.58249 0.0
C3654 C 0.75844 0.13569 0.58224 0.0
C3655 C 0.76247 0.13573 0.58741 0.0
C3656 C 0.75946 0.13972 0.57724 0.0
C3657 C 0.7702 0.16238 0.55285 0.0
C3658 C 0.76573 0.15556 0.54499 0.0
C3659 C 0.76894 0.16603 0.54225 0.0
C3660 C 0.77081 0.16708 0.54838 0.0
C3661 C 0.76644 0.16024 0.54046 0.0
C3662 C 0.76759 0.15662 0.55115 0.0
C3663 C 0.77257 0.16351 0.55916 0.0
O3664 O 0.77231 0.16452 0.57825 0.0
O3665 O 0.78043 0.15875 0.57598 0.0
O3666 O 0.77673 0.1595 0.56117 0.0
O3667 O 0.76839 0.16499 0.56337 0.0
H3668 H 0.78223 0.17065 0.56988 0.0
H3669 H 0.78926 0.1796 0.57051 0.0
H3670 H 0.79019 0.1774 0.59049 0.0
H3671 H 0.78326 0.16834 0.58977 0.0
H3672 H 0.77062 0.14014 0.59143 0.0
H3673 H 0.77237 0.14722 0.58265 0.0
H3674 H 0.75457 0.13245 0.58202 0.0
H3675 H 0.75634 0.13956 0.57327 0.0
H3676 H 0.76377 0.15107 0.54378 0.0
H3677 H 0.76966 0.16971 0.53886 0.0
H3678 H 0.77284 0.17154 0.54961 0.0
H3679 H 0.76708 0.15294 0.55456 0.0
C3680 C 0.84793 0.78182 0.58049 0.0
C3681 C 0.84371 0.78237 0.57554 0.0
C3682 C 0.83775 0.79008 0.58135 0.0
C3683 C 0.83865 0.78645 0.57597 0.0
C3684 C 0.84197 0.78946 0.58633 0.0
C3685 C 0.84702 0.78536 0.58589 0.0
U3686 U 0.85828 0.77158 0.5706 0.0
O3687 O 0.86848 0.77097 0.57001 0.0
O3688 O 0.86303 0.76274 0.57268 0.0
C3689 C 0.8686 0.76523 0.57214 0.0
C3690 C 0.85341 0.77777 0.57993 0.0
C3691 C 0.87278 0.76421 0.57745 0.0
C3692 C 0.87588 0.76643 0.58809 0.0
C3693 C 0.8718 0.76732 0.58311 0.0
C3694 C 0.88193 0.75924 0.58184 0.0
C3695 C 0.88101 0.7624 0.58751 0.0
C3696 C 0.87785 0.76015 0.57685 0.0
C3697 C 0.85356 0.7698 0.55334 0.0
C3698 C 0.8601 0.76774 0.54432 0.0
C3699 C 0.84886 0.76719 0.5434 0.0
C3700 C 0.84827 0.76865 0.54971 0.0
C3701 C 0.85477 0.76688 0.54059 0.0
C3702 C 0.85949 0.7692 0.55065 0.0
C3703 C 0.85271 0.77208 0.55974 0.0
O3704 O 0.85221 0.77186 0.57885 0.0
O3705 O 0.85789 0.78 0.57641 0.0
O3706 O 0.85674 0.77628 0.56167 0.0
O3707 O 0.85136 0.76787 0.56398 0.0
H3708 H 0.84438 0.7797 0.57131 0.0
H3709 H 0.83554 0.78688 0.57203 0.0
H3710 H 0.84137 0.79214 0.59056 0.0
H3711 H 0.85024 0.785 0.58975 0.0
H3712 H 0.87499 0.76887 0.59242 0.0
H3713 H 0.86788 0.77046 0.58365 0.0
H3714 H 0.88588 0.75616 0.58121 0.0
H3715 H 0.87869 0.75772 0.5725 0.0
H3716 H 0.86471 0.76757 0.54229 0.0
H3717 H 0.84467 0.76643 0.54069 0.0
H3718 H 0.84365 0.76907 0.55171 0.0
H3719 H 0.86365 0.77004 0.55338 0.0
C3720 C 0.78297 0.84871 0.43589 0.0
C3721 C 0.78685 0.84737 0.44098 0.0
C3722 C 0.7913 0.83857 0.4354 0.0
C3723 C 0.79101 0.84238 0.44072 0.0
C3724 C 0.78732 0.83984 0.43036 0.0
C3725 C 0.78321 0.84489 0.4306 0.0
U3726 U 0.77201 0.85903 0.44506 0.0
O3727 O 0.77088 0.8692 0.44524 0.0
O3728 O 0.763 0.86325 0.44259 0.0
C3729 C 0.76519 0.86896 0.44302 0.0
C3730 C 0.77861 0.85401 0.43611 0.0
C3731 C 0.76402 0.87299 0.43763 0.0
C3732 C 0.76632 0.87616 0.42702 0.0
C3733 C 0.76732 0.87215 0.43205 0.0
C3734 C 0.75864 0.88182 0.43307 0.0
C3735 C 0.76199 0.88106 0.42748 0.0
C3736 C 0.75966 0.87782 0.4381 0.0
C3737 C 0.76993 0.85502 0.46242 0.0
C3738 C 0.76684 0.86189 0.47087 0.0
C3739 C 0.76683 0.8507 0.47239 0.0
C3740 C 0.76884 0.84986 0.46627 0.0
C3741 C 0.76589 0.85672 0.4748 0.0
C3742 C 0.76882 0.86104 0.46472 0.0
C3743 C 0.7725 0.85396 0.45616 0.0
O3744 O 0.77275 0.85256 0.43712 0.0
O3745 O 0.7805 0.85885 0.43936 0.0
O3746 O 0.77655 0.8581 0.45416 0.0
O3747 O 0.7685 0.8522 0.45187 0.0
H3748 H 0.78668 0.8502 0.44516 0.0
H3749 H 0.79395 0.84146 0.4447 0.0
H3750 H 0.78748 0.83699 0.4262 0.0
H3751 H 0.78022 0.84582 0.42665 0.0
H3752 H 0.76891 0.87541 0.42276 0.0
H3753 H 0.77069 0.86843 0.43161 0.0
H3754 H 0.75534 0.88559 0.43361 0.0
H3755 H 0.75709 0.87853 0.44238 0.0
H3756 H 0.7661 0.86658 0.47258 0.0
H3757 H 0.76623 0.84663 0.47531 0.0
H3758 H 0.76968 0.84518 0.46457 0.0
H3759 H 0.7696 0.86509 0.46181 0.0
C3760 C 0.16864 0.78197 0.43491 0.0
C3761 C 0.17215 0.78343 0.44022 0.0
C3762 C 0.17877 0.7903 0.43407 0.0
C3763 C 0.17717 0.78756 0.43981 0.0
C3764 C 0.17529 0.78873 0.42875 0.0
C3765 C 0.17025 0.7846 0.42917 0.0
U3766 U 0.15811 0.77177 0.44468 0.0
O3767 O 0.14791 0.7711 0.44507 0.0
O3768 O 0.15344 0.76288 0.44256 0.0
C3769 C 0.14785 0.76533 0.443 0.0
C3770 C 0.16318 0.77787 0.43539 0.0
C3771 C 0.1437 0.76419 0.43769 0.0
C3772 C 0.14027 0.76658 0.42719 0.0
C3773 C 0.14438 0.76756 0.43214 0.0
C3774 C 0.13483 0.75876 0.43325 0.0
C3775 C 0.13541 0.76219 0.4277 0.0
C3776 C 0.13894 0.75976 0.4382 0.0
C3777 C 0.16217 0.7701 0.462 0.0
C3778 C 0.15509 0.76646 0.47005 0.0
C3779 C 0.16596 0.76831 0.47248 0.0
C3780 C 0.16705 0.77006 0.46632 0.0
C3781 C 0.15995 0.76656 0.47444 0.0
C3782 C 0.1562 0.7682 0.46387 0.0
C3783 C 0.16337 0.77241 0.45568 0.0
O3784 O 0.1644 0.77199 0.43658 0.0
O3785 O 0.15859 0.78011 0.43877 0.0
O3786 O 0.15941 0.77658 0.4536 0.0
O3787 O 0.16487 0.76819 0.45151 0.0
H3788 H 0.17094 0.78145 0.44469 0.0
H3789 H 0.1797 0.78872 0.44401 0.0
H3790 H 0.17644 0.79069 0.42425 0.0
H3791 H 0.16759 0.78351 0.42503 0.0
H3792 H 0.14081 0.76935 0.42301 0.0
H3793 H 0.14805 0.77101 0.43167 0.0
H3794 H 0.13122 0.75527 0.43377 0.0
H3795 H 0.13837 0.75709 0.44244 0.0
H3796 H 0.15043 0.76508 0.4714 0.0
H3797 H 0.16979 0.76852 0.47576 0.0
H3798 H 0.17169 0.77153 0.46496 0.0
H3799 H 0.15238 0.76817 0.46058 0.0
C3800 C 0.84817 0.23416 0.43454 0.0
C3801 C 0.84395 0.23362 0.4395 0.0
C3802 C 0.83795 0.22593 0.43368 0.0
C3803 C 0.83887 0.22955 0.43906 0.0
C3804 C 0.84218 0.22655 0.4287 0.0
C3805 C 0.84725 0.23063 0.42914 0.0
U3806 U 0.85854 0.24449 0.44436 0.0
O3807 O 0.86875 0.24505 0.44498 0.0
O3808 O 0.86337 0.25327 0.44217 0.0
C3809 C 0.86892 0.25078 0.44281 0.0
C3810 C 0.85368 0.23819 0.43509 0.0
C3811 C 0.87323 0.25178 0.43759 0.0
C3812 C 0.87661 0.24954 0.42703 0.0
C3813 C 0.87237 0.24867 0.43191 0.0
C3814 C 0.88254 0.25669 0.43345 0.0
C3815 C 0.88177 0.25353 0.42776 0.0
C3816 C 0.8783 0.25581 0.43832 0.0
C3817 C 0.85393 0.24671 0.46157 0.0
C3818 C 0.86022 0.24791 0.47092 0.0
C3819 C 0.84943 0.2512 0.47093 0.0
C3820 C 0.84887 0.24937 0.46472 0.0
C3821 C 0.85507 0.25036 0.47416 0.0
C3822 C 0.85966 0.24611 0.46468 0.0
C3823 C 0.85299 0.24424 0.45524 0.0
O3824 O 0.85251 0.24412 0.43609 0.0
O3825 O 0.85812 0.23598 0.43867 0.0
O3826 O 0.85692 0.23994 0.45336 0.0
O3827 O 0.85162 0.24834 0.4509 0.0
H3828 H 0.84463 0.23628 0.44373 0.0
H3829 H 0.83576 0.22913 0.44301 0.0
H3830 H 0.84157 0.22388 0.42447 0.0
H3831 H 0.85048 0.23099 0.42527 0.0
H3832 H 0.87591 0.24698 0.42274 0.0
H3833 H 0.86847 0.24553 0.43128 0.0
H3834 H 0.8864 0.25986 0.43414 0.0
H3835 H 0.87901 0.25827 0.44267 0.0
H3836 H 0.86462 0.24715 0.47326 0.0
H3837 H 0.84541 0.25319 0.47324 0.0
H3838 H 0.84442 0.2499 0.46241 0.0
H3839 H 0.86366 0.24409 0.46236 0.0
H3840 H 0.08905 0.26795 0.39211 0.0
H3841 H 0.09758 0.26646 0.3995 0.0
H3842 H 0.10699 0.25456 0.38633 0.0
H3843 H 0.09841 0.25597 0.37893 0.0
H3844 H 0.10672 0.24959 0.39817 0.0
H3845 H 0.11229 0.26893 0.38856 0.0
H3846 H 0.1106 0.27968 0.38491 0.0
H3847 H 0.107 0.28562 0.40365 0.0
H3848 H 0.10858 0.27488 0.40741 0.0
H3849 H 0.13462 0.24801 0.41577 0.0
H3850 H 0.12726 0.24982 0.40731 0.0
H3851 H 0.11754 0.2633 0.4186 0.0
H3852 H 0.12507 0.26176 0.42696 0.0
H3853 H 0.11845 0.26741 0.4071 0.0
H3854 H 0.11215 0.24813 0.41666 0.0
H3855 H 0.11357 0.23738 0.42045 0.0
H3856 H 0.11826 0.23135 0.40197 0.0
H3857 H 0.11694 0.24209 0.39809 0.0
C3858 C 0.09292 0.265 0.3908 0.0
C3859 C 0.09306 0.26207 0.38494 0.0
C3860 C 0.09782 0.26419 0.395 0.0
C3861 C 0.10294 0.26045 0.39344 0.0
C3862 C 0.10308 0.25749 0.38761 0.0
C3863 C 0.0982 0.25833 0.38338 0.0
C3864 C 0.10808 0.25953 0.39796 0.0
C3865 C 0.10936 0.25347 0.40005 0.0
C3866 C 0.11143 0.26461 0.4005 0.0
C3867 C 0.1105 0.27109 0.39826 0.0
C3868 C 0.11108 0.27252 0.3919 0.0
C3869 C 0.11016 0.27861 0.38981 0.0
C3870 C 0.10868 0.28333 0.39405 0.0
C3871 C 0.10814 0.28196 0.40038 0.0
C3872 C 0.10906 0.27587 0.40249 0.0
C3873 C 0.13098 0.25143 0.41643 0.0
C3874 C 0.13043 0.25471 0.42208 0.0
C3875 C 0.12672 0.25241 0.41161 0.0
C3876 C 0.12177 0.25662 0.41235 0.0
C3877 C 0.12129 0.26 0.41793 0.0
C3878 C 0.12557 0.25906 0.42273 0.0
C3879 C 0.11705 0.25747 0.40737 0.0
C3880 C 0.11584 0.26352 0.40519 0.0
C3881 C 0.11374 0.25238 0.40477 0.0
C3882 C 0.11451 0.24592 0.4071 0.0
C3883 C 0.11353 0.24452 0.41341 0.0
C3884 C 0.11431 0.23843 0.41558 0.0
C3885 C 0.11602 0.23369 0.41146 0.0
C3886 C 0.11694 0.23503 0.40516 0.0
C3887 C 0.11618 0.24111 0.40297 0.0
H3888 H 0.11662 0.22898 0.41314 0.0
H3889 H 0.10796 0.28805 0.39242 0.0
H3890 H 0.76843 0.13376 0.41714 0.0
H3891 H 0.76662 0.12614 0.40887 0.0
H3892 H 0.75219 0.11751 0.41988 0.0
H3893 H 0.75386 0.12518 0.42811 0.0
H3894 H 0.7605 0.109 0.41509 0.0
H3895 H 0.74835 0.12633 0.40768 0.0
H3896 H 0.74659 0.13724 0.40456 0.0
H3897 H 0.76043 0.1355 0.39024 0.0
H3898 H 0.76235 0.12459 0.39333 0.0
H3899 H 0.74718 0.08893 0.39283 0.0
H3900 H 0.74884 0.09716 0.40051 0.0
H3901 H 0.76185 0.10619 0.38813 0.0
H3902 H 0.76013 0.098 0.38037 0.0
H3903 H 0.75462 0.11461 0.39349 0.0
H3904 H 0.76686 0.09748 0.40065 0.0
H3905 H 0.76898 0.08661 0.40371 0.0
H3906 H 0.75553 0.08803 0.41844 0.0
H3907 H 0.75327 0.09888 0.41541 0.0
C3908 C 0.7648 0.1303 0.41777 0.0
C3909 C 0.7613 0.13009 0.42331 0.0
C3910 C 0.76379 0.12593 0.41304 0.0
C3911 C 0.75925 0.12127 0.41375 0.0
C3912 C 0.75574 0.12105 0.41925 0.0
C3913 C 0.75672 0.12543 0.42396 0.0
C3914 C 0.75828 0.11651 0.40884 0.0
C3915 C 0.75913 0.11022 0.41039 0.0
C3916 C 0.75669 0.11812 0.40266 0.0
C3917 C 0.75554 0.12467 0.40078 0.0
C3918 C 0.75106 0.12829 0.4039 0.0
C3919 C 0.75002 0.13447 0.40213 0.0
C3920 C 0.75341 0.13707 0.39722 0.0
C3921 C 0.75782 0.13348 0.39405 0.0
C3922 C 0.75888 0.1273 0.39581 0.0
C3923 C 0.75042 0.09266 0.39175 0.0
C3924 C 0.75357 0.09279 0.38602 0.0
C3925 C 0.75137 0.09736 0.39615 0.0
C3926 C 0.75556 0.10225 0.39495 0.0
C3927 C 0.7586 0.10247 0.38917 0.0
C3928 C 0.75762 0.09779 0.38474 0.0
C3929 C 0.75678 0.10708 0.39975 0.0
C3930 C 0.75599 0.11339 0.39819 0.0
C3931 C 0.75849 0.10549 0.40592 0.0
C3932 C 0.75986 0.09897 0.40777 0.0
C3933 C 0.76432 0.09546 0.40451 0.0
C3934 C 0.76555 0.0893 0.40624 0.0
C3935 C 0.76238 0.08663 0.41125 0.0
C3936 C 0.75798 0.09011 0.41455 0.0
C3937 C 0.75672 0.09626 0.41284 0.0
H3938 H 0.76334 0.08186 0.41259 0.0
H3939 H 0.7526 0.14185 0.39585 0.0
H3940 H 0.92283 0.76538 0.38356 0.0
H3941 H 0.91453 0.76699 0.39121 0.0
H3942 H 0.91211 0.74709 0.3928 0.0
H3943 H 0.92036 0.74546 0.38512 0.0
H3944 H 0.90111 0.75269 0.39258 0.0
H3945 H 0.92029 0.75556 0.40376 0.0
H3946 H 0.93062 0.76014 0.40582 0.0
H3947 H 0.92239 0.77831 0.40736 0.0
H3948 H 0.91201 0.77384 0.40523 0.0
H3949 H 0.88521 0.75167 0.42163 0.0
H3950 H 0.89276 0.75054 0.41318 0.0
H3951 H 0.89392 0.77053 0.41147 0.0
H3952 H 0.88647 0.7717 0.42002 0.0
H3953 H 0.90536 0.76517 0.41156 0.0
H3954 H 0.88604 0.7621 0.4008 0.0
H3955 H 0.87575 0.75736 0.39887 0.0
H3956 H 0.88429 0.7394 0.39672 0.0
H3957 H 0.89463 0.74402 0.39872 0.0
C3958 C 0.92054 0.76135 0.38555 0.0
C3959 C 0.92227 0.75529 0.38376 0.0
C3960 C 0.91579 0.76227 0.38992 0.0
C3961 C 0.91275 0.75715 0.39265 0.0
C3962 C 0.91438 0.75111 0.39076 0.0
C3963 C 0.91909 0.75018 0.38636 0.0
C3964 C 0.90796 0.75809 0.39756 0.0
C3965 C 0.90206 0.75536 0.39676 0.0
C3966 C 0.90915 0.76168 0.40296 0.0
C3967 C 0.91538 0.76437 0.40427 0.0
C3968 C 0.92069 0.76054 0.40449 0.0
C3969 C 0.92655 0.76311 0.40568 0.0
C3970 C 0.92717 0.76951 0.4067 0.0
C3971 C 0.92191 0.77335 0.40656 0.0
C3972 C 0.91604 0.7708 0.40536 0.0
C3973 C 0.88709 0.75583 0.41947 0.0
C3974 C 0.88524 0.76178 0.4215 0.0
C3975 C 0.89136 0.75517 0.4146 0.0
C3976 C 0.89386 0.76045 0.41166 0.0
C3977 C 0.89203 0.76639 0.41367 0.0
C3978 C 0.88774 0.76706 0.41852 0.0
C3979 C 0.89852 0.75977 0.40659 0.0
C3980 C 0.9044 0.76253 0.40736 0.0
C3981 C 0.89731 0.75618 0.40119 0.0
C3982 C 0.8911 0.7534 0.39997 0.0
C3983 C 0.88572 0.75713 0.39996 0.0
C3984 C 0.87988 0.75446 0.39885 0.0
C3985 C 0.87937 0.74808 0.39769 0.0
C3986 C 0.8847 0.74434 0.39763 0.0
C3987 C 0.89055 0.74698 0.39875 0.0
H3988 H 0.87484 0.74602 0.39682 0.0
H3989 H 0.93171 0.7715 0.40762 0.0
H3990 H 0.26521 0.88423 0.42148 0.0
H3991 H 0.2668 0.89183 0.41314 0.0
H3992 H 0.24711 0.89581 0.41302 0.0
H3993 H 0.24548 0.88817 0.42131 0.0
H3994 H 0.2514 0.89512 0.40146 0.0
H3995 H 0.2577 0.90556 0.42024 0.0
H3996 H 0.26362 0.90687 0.42998 0.0
H3997 H 0.2808 0.90638 0.41974 0.0
H3998 H 0.27498 0.90498 0.40994 0.0
H3999 H 0.25212 0.92435 0.38589 0.0
H4000 H 0.25082 0.91592 0.39344 0.0
H4001 H 0.2705 0.912 0.39249 0.0
H4002 H 0.27187 0.92053 0.38507 0.0
H4003 H 0.26646 0.91243 0.40437 0.0
H4004 H 0.26002 0.90242 0.38549 0.0
H4005 H 0.254 0.90123 0.37579 0.0
H4006 H 0.23696 0.90106 0.38627 0.0
H4007 H 0.24288 0.90235 0.39602 0.0
C4008 C 0.26123 0.88674 0.41969 0.0
C4009 C 0.25523 0.88563 0.42207 0.0
C4010 C 0.26214 0.89108 0.41492 0.0
C4011 C 0.25709 0.89446 0.41251 0.0
C4012 C 0.25108 0.89326 0.4148 0.0
C4013 C 0.25015 0.88889 0.41953 0.0
C4014 C 0.25806 0.89931 0.40768 0.0
C4015 C 0.25464 0.89895 0.40212 0.0
C4016 C 0.2624 0.90423 0.40848 0.0
C4017 C 0.2659 0.9051 0.41436 0.0
C4018 C 0.26274 0.90568 0.42007 0.0
C4019 C 0.26608 0.90645 0.4256 0.0
C4020 C 0.27259 0.90669 0.42548 0.0
C4021 C 0.27576 0.90618 0.41982 0.0
C4022 C 0.27245 0.90541 0.41428 0.0
C4023 C 0.25618 0.9217 0.3873 0.0
C4024 C 0.2621 0.92311 0.38488 0.0
C4025 C 0.25541 0.91685 0.39158 0.0
C4026 C 0.26055 0.91329 0.39349 0.0
C4027 C 0.26647 0.91467 0.39107 0.0
C4028 C 0.26723 0.91952 0.38679 0.0
C4029 C 0.25978 0.90825 0.39816 0.0
C4030 C 0.26324 0.90859 0.40369 0.0
C4031 C 0.25547 0.90333 0.39734 0.0
C4032 C 0.25189 0.90254 0.39148 0.0
C4033 C 0.25499 0.90218 0.38572 0.0
C4034 C 0.25159 0.90148 0.38022 0.0
C4035 C 0.2451 0.90108 0.38041 0.0
C4036 C 0.24199 0.90138 0.38612 0.0
C4037 C 0.24536 0.90209 0.39164 0.0
H4038 H 0.24248 0.90054 0.37615 0.0
H4039 H 0.27516 0.90728 0.42977 0.0
H4040 H 0.09481 0.76511 0.6321 0.0
H4041 H 0.10322 0.76661 0.62456 0.0
H4042 H 0.10322 0.74689 0.62061 0.0
H4043 H 0.09485 0.74536 0.62819 0.0
H4044 H 0.11485 0.75115 0.62129 0.0
H4045 H 0.09606 0.75743 0.61087 0.0
H4046 H 0.08632 0.76336 0.60956 0.0
H4047 H 0.09661 0.78053 0.60998 0.0
H4048 H 0.10641 0.77469 0.61137 0.0
H4049 H 0.1304 0.7517 0.59204 0.0
H4050 H 0.12288 0.75044 0.6005 0.0
H4051 H 0.12384 0.77015 0.60433 0.0
H4052 H 0.13123 0.77147 0.59577 0.0
H4053 H 0.11196 0.76612 0.60395 0.0
H4054 H 0.13086 0.75971 0.61392 0.0
H4055 H 0.14055 0.75367 0.61513 0.0
H4056 H 0.13003 0.73664 0.61539 0.0
H4057 H 0.12027 0.74258 0.6141 0.0
C4058 C 0.0966 0.7611 0.62961 0.0
C4059 C 0.09414 0.75512 0.63071 0.0
C4060 C 0.10141 0.76196 0.62531 0.0
C4061 C 0.10379 0.75687 0.62195 0.0
C4062 C 0.10146 0.75088 0.62315 0.0
C4063 C 0.09668 0.75001 0.62749 0.0
C4064 C 0.10864 0.75781 0.61709 0.0
C4065 C 0.11419 0.75437 0.61746 0.0
C4066 C 0.10784 0.76211 0.61216 0.0
C4067 C 0.10196 0.76563 0.61129 0.0
C4068 C 0.09624 0.76247 0.61073 0.0
C4069 C 0.09071 0.76582 0.60996 0.0
C4070 C 0.09085 0.77232 0.6097 0.0
C4071 C 0.09651 0.77549 0.61019 0.0
C4072 C 0.10206 0.77217 0.61096 0.0
C4073 C 0.12899 0.75577 0.59467 0.0
C4074 C 0.13141 0.76169 0.59323 0.0
C4075 C 0.12474 0.75503 0.59955 0.0
C4076 C 0.12284 0.76019 0.60309 0.0
C4077 C 0.12526 0.7661 0.60167 0.0
C4078 C 0.12952 0.76684 0.59681 0.0
C4079 C 0.11817 0.75945 0.60814 0.0
C4080 C 0.11264 0.76292 0.6078 0.0
C4081 C 0.11898 0.75516 0.61307 0.0
C4082 C 0.12484 0.75159 0.61386 0.0
C4083 C 0.13061 0.75467 0.61419 0.0
C4084 C 0.13612 0.75127 0.61489 0.0
C4085 C 0.1359 0.74478 0.61532 0.0
C4086 C 0.13018 0.74167 0.61505 0.0
C4087 C 0.12467 0.74505 0.61434 0.0
H4088 H 0.14017 0.74215 0.61587 0.0
H4089 H 0.08656 0.7749 0.60911 0.0
H4090 H 0.26486 0.13161 0.59282 0.0
H4091 H 0.26638 0.12406 0.60119 0.0
H4092 H 0.24648 0.12173 0.60278 0.0
H4093 H 0.24493 0.1293 0.59443 0.0
H4094 H 0.25172 0.12228 0.61405 0.0
H4095 H 0.2555 0.11101 0.59511 0.0
H4096 H 0.26043 0.109 0.58494 0.0
H4097 H 0.27839 0.10815 0.59368 0.0
H4098 H 0.27357 0.11024 0.6039 0.0
H4099 H 0.25139 0.09337 0.63031 0.0
H4100 H 0.25011 0.10173 0.62269 0.0
H4101 H 0.27005 0.10412 0.62186 0.0
H4102 H 0.27137 0.09566 0.62937 0.0
H4103 H 0.26496 0.1037 0.61037 0.0
H4104 H 0.26104 0.11463 0.62943 0.0
H4105 H 0.25599 0.11655 0.63956 0.0
H4106 H 0.23818 0.11791 0.63059 0.0
H4107 H 0.24311 0.11591 0.6204 0.0
C4108 C 0.26081 0.12947 0.59493 0.0
C4109 C 0.25477 0.13102 0.59293 0.0
C4110 C 0.26168 0.12516 0.59973 0.0
C4111 C 0.25655 0.12225 0.60256 0.0
C4112 C 0.25051 0.12391 0.60067 0.0
C4113 C 0.24963 0.12824 0.5959 0.0
C4114 C 0.25746 0.11742 0.60742 0.0
C4115 C 0.25456 0.11818 0.61322 0.0
C4116 C 0.26127 0.11213 0.60639 0.0
C4117 C 0.26418 0.11084 0.60026 0.0
C4118 C 0.2605 0.11044 0.59485 0.0
C4119 C 0.26328 0.10928 0.58908 0.0
C4120 C 0.26973 0.10847 0.58866 0.0
C4121 C 0.2734 0.10879 0.59401 0.0
C4122 C 0.27065 0.10996 0.5998 0.0
C4123 C 0.2555 0.09567 0.62849 0.0
C4124 C 0.26149 0.09385 0.63044 0.0
C4125 C 0.25476 0.10048 0.62418 0.0
C4126 C 0.25998 0.10359 0.62174 0.0
C4127 C 0.26595 0.1018 0.62369 0.0
C4128 C 0.2667 0.097 0.62802 0.0
C4129 C 0.25922 0.10857 0.617 0.0
C4130 C 0.26215 0.10782 0.61121 0.0
C4131 C 0.25541 0.11385 0.61804 0.0
C4132 C 0.25244 0.11506 0.62416 0.0
C4133 C 0.25604 0.11529 0.62962 0.0
C4134 C 0.2532 0.1164 0.63538 0.0
C4135 C 0.24677 0.11733 0.63572 0.0
C4136 C 0.24316 0.11718 0.63031 0.0
C4137 C 0.24598 0.11606 0.62455 0.0
H4138 H 0.24458 0.1182 0.64018 0.0
H4139 H 0.27187 0.10757 0.58419 0.0
H4140 H 0.88027 0.25968 0.59831 0.0
H4141 H 0.88772 0.26109 0.60684 0.0
H4142 H 0.90114 0.24983 0.59701 0.0
H4143 H 0.89369 0.24833 0.58852 0.0
H4144 H 0.90036 0.24684 0.60951 0.0
H4145 H 0.90247 0.26531 0.59681 0.0
H4146 H 0.89862 0.27468 0.59142 0.0
H4147 H 0.89221 0.28221 0.6088 0.0
H4148 H 0.89594 0.27283 0.61429 0.0
H4149 H 0.92839 0.25443 0.62484 0.0
H4150 H 0.92004 0.25278 0.61733 0.0
H4151 H 0.90855 0.26604 0.62713 0.0
H4152 H 0.91702 0.26798 0.63447 0.0
H4153 H 0.90773 0.26802 0.61517 0.0
H4154 H 0.90596 0.25004 0.62806 0.0
H4155 H 0.90954 0.24068 0.63366 0.0
H4156 H 0.91488 0.23221 0.61636 0.0
H4157 H 0.91141 0.24155 0.61066 0.0
C4158 C 0.88479 0.25746 0.598 0.0
C4159 C 0.88641 0.25392 0.59273 0.0
C4160 C 0.88905 0.25831 0.60285 0.0
C4161 C 0.895 0.25561 0.60253 0.0
C4162 C 0.89658 0.25196 0.59734 0.0
C4163 C 0.89234 0.25115 0.59248 0.0
C4164 C 0.89963 0.25665 0.60755 0.0
C4165 C 0.90203 0.25146 0.61072 0.0
C4166 C 0.90164 0.26269 0.60924 0.0
C4167 C 0.89942 0.26834 0.60595 0.0
C4168 C 0.90019 0.26894 0.59948 0.0
C4169 C 0.89804 0.27426 0.59641 0.0
C4170 C 0.89516 0.27903 0.59976 0.0
C4171 C 0.89444 0.2785 0.6062 0.0
C4172 C 0.89657 0.27319 0.6093 0.0
C4173 C 0.92412 0.25705 0.62537 0.0
C4174 C 0.9234 0.26135 0.63027 0.0
C4175 C 0.9193 0.25603 0.62112 0.0
C4176 C 0.91362 0.25922 0.62171 0.0
C4177 C 0.91288 0.26351 0.62659 0.0
C4178 C 0.91771 0.26456 0.63083 0.0
C4179 C 0.90854 0.2582 0.61712 0.0
C4180 C 0.90604 0.26339 0.61402 0.0
C4181 C 0.90639 0.25216 0.61553 0.0
C4182 C 0.90847 0.24652 0.61894 0.0
C4183 C 0.90794 0.2462 0.62546 0.0
C4184 C 0.90994 0.2409 0.62865 0.0
C4185 C 0.91244 0.23586 0.62537 0.0
C4186 C 0.91294 0.23611 0.61889 0.0
C4187 C 0.91095 0.24141 0.61568 0.0
H4188 H 0.91399 0.23175 0.62785 0.0
H4189 H 0.8935 0.28315 0.59738 0.0
H4190 H 0.76332 0.89384 0.58637 0.0
H4191 H 0.76204 0.90144 0.59473 0.0
H4192 H 0.75933 0.88652 0.6079 0.0
H4193 H 0.76042 0.87887 0.5995 0.0
H4194 H 0.75097 0.89576 0.6097 0.0
H4195 H 0.77304 0.89425 0.60742 0.0
H4196 H 0.78306 0.89422 0.60181 0.0
H4197 H 0.78004 0.91313 0.59605 0.0
H4198 H 0.76995 0.91325 0.60155 0.0
H4199 H 0.75422 0.91575 0.63616 0.0
H4200 H 0.75574 0.90739 0.62855 0.0
H4201 H 0.75833 0.92105 0.61406 0.0
H4202 H 0.75675 0.92941 0.6216 0.0
H4203 H 0.76706 0.91194 0.61348 0.0
H4204 H 0.74472 0.91317 0.61542 0.0
H4205 H 0.73472 0.91312 0.62109 0.0
H4206 H 0.7384 0.89459 0.62764 0.0
H4207 H 0.74846 0.89456 0.62208 0.0
C4208 C 0.76239 0.89217 0.59103 0.0
C4209 C 0.76197 0.88575 0.59226 0.0
C4210 C 0.76173 0.89652 0.59582 0.0
C4211 C 0.76067 0.89454 0.60196 0.0
C4212 C 0.76018 0.88814 0.60321 0.0
C4213 C 0.76085 0.88378 0.59841 0.0
C4214 C 0.76003 0.89919 0.60704 0.0
C4215 C 0.75454 0.89923 0.61059 0.0
C4216 C 0.76463 0.90379 0.60815 0.0
C4217 C 0.77071 0.90374 0.60485 0.0
C4218 C 0.77449 0.89839 0.60491 0.0
C4219 C 0.78019 0.89836 0.60176 0.0
C4220 C 0.78218 0.90366 0.59856 0.0
C4221 C 0.77849 0.90902 0.59852 0.0
C4222 C 0.77278 0.90907 0.60166 0.0
C4223 C 0.75506 0.91697 0.63134 0.0
C4224 C 0.75536 0.92326 0.62949 0.0
C4225 C 0.75594 0.91219 0.627 0.0
C4226 C 0.7571 0.9136 0.62073 0.0
C4227 C 0.75746 0.91986 0.61888 0.0
C4228 C 0.75657 0.92463 0.62321 0.0
C4229 C 0.75797 0.90856 0.61607 0.0
C4230 C 0.76352 0.90844 0.6126 0.0
C4231 C 0.75343 0.90388 0.61506 0.0
C4232 C 0.74737 0.90389 0.61839 0.0
C4233 C 0.74342 0.9091 0.61811 0.0
C4234 C 0.73774 0.90909 0.6213 0.0
C4235 C 0.73593 0.90387 0.62474 0.0
C4236 C 0.7398 0.89864 0.62498 0.0
C4237 C 0.74549 0.89863 0.62181 0.0
H4238 H 0.73153 0.90386 0.6272 0.0
H4239 H 0.7866 0.90363 0.59613 0.0
H4240 H 0.39363 0.08736 0.26143 0.0
H4241 H 0.40122 0.09573 0.26013 0.0
H4242 H 0.38631 0.10899 0.25787 0.0
H4243 H 0.37865 0.10058 0.25897 0.0
H4244 H 0.39549 0.11097 0.24948 0.0
H4245 H 0.39415 0.10821 0.27147 0.0
H4246 H 0.39416 0.10238 0.28135 0.0
H4247 H 0.41301 0.0966 0.27802 0.0
H4248 H 0.41308 0.10232 0.26807 0.0
H4249 H 0.41574 0.13726 0.25314 0.0
H4250 H 0.40732 0.12969 0.25453 0.0
H4251 H 0.42085 0.115 0.25669 0.0
H4252 H 0.42928 0.1225 0.25523 0.0
H4253 H 0.41182 0.11432 0.26547 0.0
H4254 H 0.41287 0.11674 0.24318 0.0
H4255 H 0.41277 0.12265 0.23334 0.0
H4256 H 0.39433 0.12924 0.23738 0.0
H4257 H 0.39435 0.12344 0.24729 0.0
C4258 C 0.39195 0.09204 0.26058 0.0
C4259 C 0.38552 0.09329 0.2603 0.0
C4260 C 0.3963 0.09683 0.25991 0.0
C4261 C 0.39433 0.103 0.25899 0.0
C4262 C 0.38793 0.10427 0.25861 0.0
C4263 C 0.38356 0.09946 0.25928 0.0
C4264 C 0.39898 0.1081 0.25842 0.0
C4265 C 0.399 0.11177 0.25302 0.0
C4266 C 0.40362 0.10909 0.263 0.0
C4267 C 0.4036 0.10565 0.269 0.0
C4268 C 0.39828 0.10566 0.27282 0.0
C4269 C 0.39827 0.10238 0.27844 0.0
C4270 C 0.40358 0.09911 0.28031 0.0
C4271 C 0.4089 0.09913 0.27657 0.0
C4272 C 0.40893 0.10239 0.27094 0.0
C4273 C 0.41693 0.13241 0.25385 0.0
C4274 C 0.42319 0.13049 0.25407 0.0
C4275 C 0.41211 0.12809 0.25466 0.0
C4276 C 0.41346 0.12177 0.25567 0.0
C4277 C 0.4197 0.11985 0.25594 0.0
C4278 C 0.42451 0.12416 0.25513 0.0
C4279 C 0.40839 0.11713 0.25649 0.0
C4280 C 0.40829 0.11354 0.26195 0.0
C4281 C 0.40367 0.11624 0.25197 0.0
C4282 C 0.40364 0.11971 0.24601 0.0
C4283 C 0.40881 0.11949 0.24199 0.0
C4284 C 0.40877 0.12281 0.2364 0.0
C4285 C 0.40355 0.12633 0.23474 0.0
C4286 C 0.39837 0.12653 0.23867 0.0
C4287 C 0.39839 0.12322 0.24428 0.0
H4288 H 0.40353 0.1289 0.23041 0.0
H4289 H 0.40356 0.09658 0.28466 0.0
H4290 H 0.92877 0.39341 0.2588 0.0
H4291 H 0.92048 0.40105 0.2575 0.0
H4292 H 0.90672 0.38681 0.26103 0.0
H4293 H 0.91501 0.37906 0.2621 0.0
H4294 H 0.90322 0.39411 0.25151 0.0
H4295 H 0.91052 0.39738 0.27226 0.0
H4296 H 0.91832 0.39919 0.28048 0.0
H4297 H 0.92356 0.41649 0.27191 0.0
H4298 H 0.91585 0.41474 0.26358 0.0
H4299 H 0.87853 0.41609 0.25583 0.0
H4300 H 0.88613 0.40773 0.25735 0.0
H4301 H 0.90111 0.42068 0.25389 0.0
H4302 H 0.89356 0.42904 0.25235 0.0
H4303 H 0.90353 0.41364 0.26387 0.0
H4304 H 0.89646 0.41006 0.24287 0.0
H4305 H 0.88861 0.40819 0.2347 0.0
H4306 H 0.88282 0.39139 0.2439 0.0
H4307 H 0.89058 0.39321 0.25217 0.0
C4308 C 0.92398 0.39187 0.25923 0.0
C4309 C 0.92257 0.38561 0.26056 0.0
C4310 C 0.91924 0.39627 0.25855 0.0
C4311 C 0.91298 0.39453 0.25926 0.0
C4312 C 0.91152 0.38827 0.2605 0.0
C4313 C 0.91627 0.38386 0.26116 0.0
C4314 C 0.90796 0.39926 0.2587 0.0
C4315 C 0.90323 0.39833 0.25428 0.0
C4316 C 0.90802 0.40482 0.26225 0.0
C4317 C 0.91264 0.4059 0.26727 0.0
C4318 C 0.91337 0.40155 0.2721 0.0
C4319 C 0.91777 0.40257 0.27679 0.0
C4320 C 0.92144 0.40794 0.27671 0.0
C4321 C 0.92072 0.41232 0.27196 0.0
C4322 C 0.91633 0.41132 0.26726 0.0
C4323 C 0.88344 0.41714 0.25534 0.0
C4324 C 0.88544 0.42324 0.25398 0.0
C4325 C 0.88778 0.41236 0.25622 0.0
C4326 C 0.89419 0.41356 0.25569 0.0
C4327 C 0.89619 0.41964 0.25435 0.0
C4328 C 0.89187 0.42442 0.25349 0.0
C4329 C 0.89885 0.40853 0.25662 0.0
C4330 C 0.9035 0.4094 0.26112 0.0
C4331 C 0.8987 0.40292 0.25316 0.0
C4332 C 0.89405 0.40181 0.24817 0.0
C4333 C 0.89348 0.40599 0.24318 0.0
C4334 C 0.88905 0.40494 0.23852 0.0
C4335 C 0.88521 0.39969 0.23879 0.0
C4336 C 0.8858 0.39547 0.2437 0.0
C4337 C 0.89021 0.3965 0.24837 0.0
H4338 H 0.88179 0.39888 0.23518 0.0
H4339 H 0.92485 0.40872 0.28034 0.0
H4340 H 0.62646 0.92781 0.25168 0.0
H4341 H 0.61876 0.91958 0.25008 0.0
H4342 H 0.62546 0.91005 0.26641 0.0
H4343 H 0.63311 0.91833 0.26813 0.0
H4344 H 0.62335 0.90203 0.25644 0.0
H4345 H 0.61247 0.91822 0.26743 0.0
H4346 H 0.60887 0.92897 0.26928 0.0
H4347 H 0.59926 0.92885 0.25176 0.0
H4348 H 0.60288 0.91812 0.24977 0.0
H4349 H 0.59747 0.88145 0.25993 0.0
H4350 H 0.60576 0.88915 0.26148 0.0
H4351 H 0.59819 0.90034 0.24663 0.0
H4352 H 0.58984 0.89272 0.24514 0.0
H4353 H 0.60089 0.90746 0.25608 0.0
H4354 H 0.61173 0.89141 0.24492 0.0
H4355 H 0.61542 0.88073 0.24284 0.0
H4356 H 0.62515 0.8806 0.26029 0.0
H4357 H 0.62145 0.89125 0.26252 0.0
C4358 C 0.62628 0.924 0.25496 0.0
C4359 C 0.63038 0.92377 0.26006 0.0
C4360 C 0.62189 0.91928 0.25403 0.0
C4361 C 0.6215 0.91424 0.25816 0.0
C4362 C 0.62569 0.91389 0.26316 0.0
C4363 C 0.63007 0.91863 0.26412 0.0
C4364 C 0.61662 0.9094 0.25735 0.0
C4365 C 0.61843 0.90319 0.25644 0.0
C4366 C 0.61022 0.91095 0.25722 0.0
C4367 C 0.608 0.91739 0.25842 0.0
C4368 C 0.60963 0.9205 0.26395 0.0
C4369 C 0.60758 0.92659 0.26503 0.0
C4370 C 0.60385 0.9296 0.26063 0.0
C4371 C 0.60215 0.92652 0.25516 0.0
C4372 C 0.6042 0.92043 0.25405 0.0
C4373 C 0.59762 0.88553 0.25696 0.0
C4374 C 0.59301 0.88649 0.25241 0.0
C4375 C 0.60236 0.88992 0.25784 0.0
C4376 C 0.60264 0.8953 0.25413 0.0
C4377 C 0.59806 0.89624 0.24956 0.0
C4378 C 0.59329 0.89188 0.24872 0.0
C4379 C 0.6076 0.90005 0.25511 0.0
C4380 C 0.6058 0.90627 0.25607 0.0
C4381 C 0.61401 0.8985 0.25525 0.0
C4382 C 0.61626 0.8921 0.25391 0.0
C4383 C 0.61461 0.88908 0.24834 0.0
C4384 C 0.61672 0.88304 0.24713 0.0
C4385 C 0.62051 0.87998 0.25144 0.0
C4386 C 0.62221 0.88297 0.25696 0.0
C4387 C 0.62011 0.88901 0.2582 0.0
H4388 H 0.62213 0.8753 0.25049 0.0
H4389 H 0.60227 0.93431 0.26148 0.0
H4390 H 0.10098 0.63856 0.25965 0.0
H4391 H 0.10941 0.63097 0.2585 0.0
H4392 H 0.09621 0.61595 0.26056 0.0
H4393 H 0.08781 0.62348 0.26191 0.0
H4394 H 0.10638 0.61391 0.26744 0.0
H4395 H 0.10209 0.62003 0.24628 0.0
H4396 H 0.10083 0.62747 0.23764 0.0
H4397 H 0.11979 0.63348 0.23988 0.0
H4398 H 0.12113 0.62613 0.2486 0.0
H4399 H 0.12306 0.58816 0.25577 0.0
H4400 H 0.11561 0.5966 0.25732 0.0
H4401 H 0.1304 0.61009 0.25545 0.0
H4402 H 0.13792 0.60164 0.25397 0.0
H4403 H 0.1201 0.61345 0.24885 0.0
H4404 H 0.12459 0.60692 0.2696 0.0
H4405 H 0.12588 0.59945 0.27821 0.0
H4406 H 0.10661 0.59425 0.27675 0.0
H4407 H 0.10523 0.60163 0.26807 0.0
C4408 C 0.09988 0.63364 0.2599 0.0
C4409 C 0.09371 0.63163 0.26085 0.0
C4410 C 0.1047 0.62931 0.25918 0.0
C4411 C 0.10344 0.62289 0.25938 0.0
C4412 C 0.09729 0.62088 0.26037 0.0
C4413 C 0.09248 0.62519 0.26108 0.0
C4414 C 0.1085 0.61823 0.25864 0.0
C4415 C 0.10934 0.61377 0.26334 0.0
C4416 C 0.11248 0.61817 0.25339 0.0
C4417 C 0.11168 0.62258 0.24814 0.0
C4418 C 0.10597 0.62298 0.24497 0.0
C4419 C 0.10525 0.62717 0.24005 0.0
C4420 C 0.11022 0.63096 0.23822 0.0
C4421 C 0.11594 0.63055 0.24131 0.0
C4422 C 0.11668 0.62637 0.24624 0.0
C4423 C 0.12475 0.59291 0.25576 0.0
C4424 C 0.1311 0.59421 0.25479 0.0
C4425 C 0.12048 0.59774 0.25663 0.0
C4426 C 0.12246 0.60397 0.25657 0.0
C4427 C 0.12877 0.60531 0.25551 0.0
C4428 C 0.13306 0.60048 0.25465 0.0
C4429 C 0.1179 0.60907 0.25759 0.0
C4430 C 0.11717 0.61362 0.25296 0.0
C4431 C 0.11401 0.60923 0.26291 0.0
C4432 C 0.11482 0.6048 0.26815 0.0
C4433 C 0.12064 0.60415 0.27108 0.0
C4434 C 0.12139 0.59993 0.27598 0.0
C4435 C 0.11633 0.59636 0.27802 0.0
C4436 C 0.11052 0.59701 0.27517 0.0
C4437 C 0.10975 0.60122 0.27026 0.0
H4438 H 0.11692 0.5931 0.28181 0.0
H4439 H 0.10965 0.6342 0.23441 0.0
H4440 H 0.42684 0.89292 0.7677 0.0
H4441 H 0.41841 0.90042 0.76614 0.0
H4442 H 0.40917 0.88749 0.75384 0.0
H4443 H 0.41764 0.87999 0.75532 0.0
H4444 H 0.40963 0.89943 0.74907 0.0
H4445 H 0.40359 0.88953 0.7681 0.0
H4446 H 0.40503 0.88569 0.77882 0.0
H4447 H 0.4086 0.90435 0.78512 0.0
H4448 H 0.40727 0.90829 0.77442 0.0
H4449 H 0.38177 0.9171 0.74718 0.0
H4450 H 0.38913 0.90862 0.74897 0.0
H4451 H 0.39853 0.91969 0.76286 0.0
H4452 H 0.391 0.92805 0.76134 0.0
H4453 H 0.39754 0.90812 0.76674 0.0
H4454 H 0.40426 0.91798 0.74778 0.0
H4455 H 0.40308 0.92194 0.73708 0.0
H4456 H 0.39851 0.90354 0.73067 0.0
H4457 H 0.39959 0.89948 0.74135 0.0
C4458 C 0.42303 0.89169 0.76464 0.0
C4459 C 0.42291 0.88587 0.76163 0.0
C4460 C 0.41819 0.89595 0.76379 0.0
C4461 C 0.41314 0.89449 0.75991 0.0
C4462 C 0.41301 0.8887 0.75687 0.0
C4463 C 0.41783 0.88441 0.75775 0.0
C4464 C 0.40805 0.89906 0.75896 0.0
C4465 C 0.40691 0.90126 0.75292 0.0
C4466 C 0.40461 0.90154 0.764 0.0
C4467 C 0.40539 0.89919 0.77044 0.0
C4468 C 0.40474 0.89281 0.77176 0.0
C4469 C 0.40552 0.89061 0.77784 0.0
C4470 C 0.40692 0.89477 0.78264 0.0
C4471 C 0.40752 0.90113 0.78139 0.0
C4472 C 0.40675 0.90335 0.77532 0.0
C4473 C 0.38534 0.9177 0.75068 0.0
C4474 C 0.3858 0.92329 0.75409 0.0
C4475 C 0.3896 0.91287 0.75165 0.0
C4476 C 0.39445 0.91355 0.75598 0.0
C4477 C 0.39485 0.91906 0.75947 0.0
C4478 C 0.39057 0.92388 0.75855 0.0
C4479 C 0.39916 0.90855 0.75685 0.0
C4480 C 0.40023 0.90627 0.76288 0.0
C4481 C 0.40257 0.90601 0.7518 0.0
C4482 C 0.40194 0.90844 0.74537 0.0
C4483 C 0.40296 0.91479 0.7441 0.0
C4484 C 0.40231 0.91705 0.73803 0.0
C4485 C 0.4007 0.913 0.7332 0.0
C4486 C 0.39975 0.90668 0.73442 0.0
C4487 C 0.40038 0.90439 0.74047 0.0
H4488 H 0.40021 0.91476 0.72851 0.0
H4489 H 0.40753 0.89307 0.78734 0.0
H4490 H 0.0959 0.38531 0.74531 0.0
H4491 H 0.10434 0.39277 0.74699 0.0
H4492 H 0.1005 0.39271 0.76671 0.0
H4493 H 0.09203 0.38526 0.76505 0.0
H4494 H 0.10189 0.40426 0.76265 0.0
H4495 H 0.11339 0.3853 0.7606 0.0
H4496 H 0.11665 0.37545 0.75568 0.0
H4497 H 0.12303 0.38548 0.73961 0.0
H4498 H 0.11973 0.39539 0.7444 0.0
H4499 H 0.12904 0.42093 0.77145 0.0
H4500 H 0.12144 0.41252 0.77023 0.0
H4501 H 0.12384 0.41318 0.75031 0.0
H4502 H 0.13155 0.42152 0.7515 0.0
H4503 H 0.12339 0.40114 0.75475 0.0
H4504 H 0.1115 0.42004 0.75677 0.0
H4505 H 0.1083 0.42986 0.7618 0.0
H4506 H 0.1027 0.41978 0.77813 0.0
H4507 H 0.10595 0.4099 0.77323 0.0
C4508 C 0.09691 0.38682 0.75002 0.0
C4509 C 0.0933 0.38468 0.75505 0.0
C4510 C 0.10174 0.39109 0.75097 0.0
C4511 C 0.10311 0.39325 0.75699 0.0
C4512 C 0.09953 0.39111 0.76202 0.0
C4513 C 0.09468 0.38686 0.76107 0.0
C4514 C 0.10812 0.39793 0.75799 0.0
C4515 C 0.10661 0.40352 0.76102 0.0
C4516 C 0.11426 0.39704 0.75573 0.0
C4517 C 0.11626 0.39108 0.75284 0.0
C4518 C 0.11544 0.3854 0.756 0.0
C4519 C 0.11731 0.37981 0.75323 0.0
C4520 C 0.12003 0.37983 0.74733 0.0
C4521 C 0.12091 0.38546 0.74418 0.0
C4522 C 0.11905 0.39107 0.74692 0.0
C4523 C 0.12801 0.41923 0.76681 0.0
C4524 C 0.13088 0.42191 0.76157 0.0
C4525 C 0.12363 0.41446 0.76612 0.0
C4526 C 0.12203 0.41227 0.76018 0.0
C4527 C 0.125 0.41481 0.75494 0.0
C4528 C 0.12936 0.41961 0.75563 0.0
C4529 C 0.11713 0.40744 0.75941 0.0
C4530 C 0.11866 0.40184 0.75642 0.0
C4531 C 0.11102 0.40831 0.76171 0.0
C4532 C 0.10903 0.41424 0.76466 0.0
C4533 C 0.10964 0.41992 0.76145 0.0
C4534 C 0.1078 0.42549 0.76428 0.0
C4535 C 0.10531 0.42544 0.77029 0.0
C4536 C 0.10463 0.41981 0.77348 0.0
C4537 C 0.10647 0.41422 0.77068 0.0
H4538 H 0.10389 0.42976 0.77246 0.0
H4539 H 0.12147 0.3755 0.7452 0.0
H4540 H 0.58689 0.12345 0.7579 0.0
H4541 H 0.59513 0.11576 0.75654 0.0
H4542 H 0.60896 0.12979 0.76054 0.0
H4543 H 0.60073 0.1376 0.76167 0.0
H4544 H 0.61257 0.12263 0.75096 0.0
H4545 H 0.60483 0.11907 0.77152 0.0
H4546 H 0.59685 0.11719 0.77956 0.0
H4547 H 0.59163 0.10009 0.77057 0.0
H4548 H 0.59953 0.10191 0.76242 0.0
H4549 H 0.63701 0.1004 0.75546 0.0
H4550 H 0.62945 0.10881 0.75691 0.0
H4551 H 0.61446 0.096 0.75296 0.0
H4552 H 0.62198 0.0876 0.7515 0.0
H4553 H 0.61187 0.10291 0.76298 0.0
H4554 H 0.61943 0.10676 0.74219 0.0
H4555 H 0.62747 0.10871 0.73422 0.0
H4556 H 0.63314 0.12533 0.74381 0.0
H4557 H 0.62519 0.12343 0.75189 0.0
C4558 C 0.59168 0.12493 0.75842 0.0
C4559 C 0.59314 0.13115 0.75991 0.0
C4560 C 0.59639 0.12051 0.7577 0.0
C4561 C 0.60266 0.12217 0.75853 0.0
C4562 C 0.60415 0.12839 0.75991 0.0
C4563 C 0.59944 0.13284 0.76061 0.0
C4564 C 0.60764 0.1174 0.75796 0.0
C4565 C 0.61247 0.11836 0.75366 0.0
C4566 C 0.60747 0.11179 0.76141 0.0
C4567 C 0.60274 0.11066 0.76633 0.0
C4568 C 0.60195 0.11493 0.77123 0.0
C4569 C 0.59745 0.11387 0.77581 0.0
C4570 C 0.59373 0.10853 0.77557 0.0
C4571 C 0.59452 0.10423 0.77075 0.0
C4572 C 0.59901 0.10527 0.76615 0.0
C4573 C 0.63211 0.0994 0.75484 0.0
C4574 C 0.6301 0.09333 0.75338 0.0
C4575 C 0.62779 0.1042 0.75568 0.0
C4576 C 0.62138 0.10305 0.755 0.0
C4577 C 0.61937 0.097 0.75353 0.0
C4578 C 0.62368 0.09219 0.75272 0.0
C4579 C 0.61674 0.10809 0.7559 0.0
C4580 C 0.61198 0.10719 0.7603 0.0
C4581 C 0.61699 0.11376 0.75255 0.0
C4582 C 0.62176 0.11492 0.74768 0.0
C4583 C 0.62242 0.1108 0.74263 0.0
C4584 C 0.62696 0.1119 0.73808 0.0
C4585 C 0.63082 0.11713 0.73852 0.0
C4586 C 0.63015 0.12128 0.74349 0.0
C4587 C 0.62563 0.1202 0.74805 0.0
H4588 H 0.63433 0.11797 0.73499 0.0
H4589 H 0.59024 0.10772 0.77912 0.0
H4590 H 0.92965 0.62256 0.75565 0.0
H4591 H 0.92133 0.6149 0.75684 0.0
H4592 H 0.90759 0.62928 0.75403 0.0
H4593 H 0.9159 0.63704 0.75307 0.0
H4594 H 0.90422 0.6217 0.76336 0.0
H4595 H 0.91117 0.61907 0.74239 0.0
H4596 H 0.91883 0.61749 0.73398 0.0
H4597 H 0.92407 0.59989 0.7419 0.0
H4598 H 0.9165 0.60141 0.75041 0.0
H4599 H 0.87924 0.60013 0.7587 0.0
H4600 H 0.88692 0.60844 0.75726 0.0
H4601 H 0.90178 0.59524 0.76017 0.0
H4602 H 0.89413 0.58693 0.76164 0.0
H4603 H 0.90417 0.60259 0.75035 0.0
H4604 H 0.89742 0.60551 0.77156 0.0
H4605 H 0.8897 0.60715 0.77991 0.0
H4606 H 0.88396 0.6243 0.77138 0.0
H4607 H 0.89158 0.62271 0.76293 0.0
C4608 C 0.92486 0.62412 0.75536 0.0
C4609 C 0.92345 0.63043 0.75426 0.0
C4610 C 0.92011 0.61972 0.75597 0.0
C4611 C 0.91384 0.6215 0.75543 0.0
C4612 C 0.9124 0.62779 0.75443 0.0
C4613 C 0.91716 0.63222 0.75383 0.0
C4614 C 0.9088 0.61676 0.75593 0.0
C4615 C 0.90415 0.61757 0.76045 0.0
C4616 C 0.90877 0.61132 0.7522 0.0
C4617 C 0.9133 0.61038 0.74707 0.0
C4618 C 0.91399 0.61489 0.74237 0.0
C4619 C 0.91831 0.614 0.73758 0.0
C4620 C 0.92194 0.6086 0.73741 0.0
C4621 C 0.92125 0.60407 0.74203 0.0
C4622 C 0.91694 0.60494 0.74684 0.0
C4623 C 0.88414 0.59901 0.75909 0.0
C4624 C 0.88607 0.59286 0.76029 0.0
C4625 C 0.88853 0.60376 0.75825 0.0
C4626 C 0.89493 0.60247 0.75866 0.0
C4627 C 0.89686 0.59634 0.75982 0.0
C4628 C 0.89249 0.59159 0.76064 0.0
C4629 C 0.89963 0.60749 0.75784 0.0
C4630 C 0.90422 0.60674 0.75324 0.0
C4631 C 0.89959 0.61298 0.76149 0.0
C4632 C 0.89502 0.61396 0.76658 0.0
C4633 C 0.89447 0.6096 0.77144 0.0
C4634 C 0.89013 0.61053 0.7762 0.0
C4635 C 0.88633 0.61582 0.77617 0.0
C4636 C 0.88689 0.6202 0.77139 0.0
C4637 C 0.89123 0.61929 0.76662 0.0
H4638 H 0.88297 0.61653 0.77986 0.0
H4639 H 0.92529 0.60792 0.7337 0.0
H4640 H 0.25192 0.38846 0.08924 0.0
H4641 H 0.25039 0.39612 0.09751 0.0
H4642 H 0.26799 0.39094 0.10564 0.0
H4643 H 0.26962 0.38332 0.09732 0.0
H4644 H 0.2587 0.39249 0.11448 0.0
H4645 H 0.26718 0.40381 0.09714 0.0
H4646 H 0.2677 0.40726 0.08621 0.0
H4647 H 0.2495 0.41539 0.08782 0.0
H4648 H 0.24884 0.4119 0.09874 0.0
H4649 H 0.26199 0.41915 0.13407 0.0
H4650 H 0.26346 0.41077 0.12648 0.0
H4651 H 0.24704 0.41683 0.11662 0.0
H4652 H 0.24562 0.42527 0.12413 0.0
H4653 H 0.25596 0.4147 0.1087 0.0
H4654 H 0.24732 0.40342 0.12595 0.0
H4655 H 0.24658 0.39986 0.13683 0.0
H4656 H 0.26473 0.39158 0.13543 0.0
H4657 H 0.26561 0.39517 0.12456 0.0
C4658 C 0.25549 0.38896 0.09276 0.0
C4659 C 0.26092 0.3853 0.09258 0.0
C4660 C 0.25459 0.39333 0.0975 0.0
C4661 C 0.25911 0.39415 0.10215 0.0
C4662 C 0.26444 0.39038 0.1021 0.0
C4663 C 0.26535 0.38601 0.09735 0.0
C4664 C 0.25834 0.39907 0.10694 0.0
C4665 C 0.25818 0.39736 0.11324 0.0
C4666 C 0.25753 0.4054 0.10529 0.0
C4667 C 0.25794 0.40754 0.09874 0.0
C4668 C 0.26327 0.40629 0.09515 0.0
C4669 C 0.2636 0.40826 0.08896 0.0
C4670 C 0.25863 0.41153 0.08632 0.0
C4671 C 0.25334 0.41285 0.08987 0.0
C4672 C 0.25299 0.41088 0.09606 0.0
C4673 C 0.25866 0.41865 0.13032 0.0
C4674 C 0.2537 0.42287 0.12969 0.0
C4675 C 0.2595 0.41385 0.12598 0.0
C4676 C 0.25532 0.41312 0.121 0.0
C4677 C 0.25033 0.4173 0.12041 0.0
C4678 C 0.24953 0.42213 0.1247 0.0
C4679 C 0.25625 0.40813 0.11628 0.0
C4680 C 0.25647 0.40983 0.10997 0.0
C4681 C 0.25708 0.40179 0.11793 0.0
C4682 C 0.25655 0.39962 0.12446 0.0
C4683 C 0.25117 0.40088 0.12798 0.0
C4684 C 0.25073 0.39885 0.13414 0.0
C4685 C 0.25562 0.39551 0.13683 0.0
C4686 C 0.26095 0.39418 0.13335 0.0
C4687 C 0.26143 0.39621 0.12718 0.0
H4688 H 0.25526 0.39394 0.1416 0.0
H4689 H 0.25889 0.41305 0.08152 0.0
H4690 H 0.26839 0.62399 0.92644 0.0
H4691 H 0.26685 0.61658 0.91791 0.0
H4692 H 0.25279 0.62854 0.91002 0.0
H4693 H 0.25428 0.63596 0.91858 0.0
H4694 H 0.24916 0.61612 0.91054 0.0
H4695 H 0.26658 0.62802 0.90331 0.0
H4696 H 0.27697 0.63289 0.90399 0.0
H4697 H 0.28534 0.6149 0.90642 0.0
H4698 H 0.27499 0.60992 0.90585 0.0
H4699 H 0.24667 0.59893 0.88242 0.0
H4700 H 0.24826 0.60741 0.88984 0.0
H4701 H 0.26386 0.59757 0.89778 0.0
H4702 H 0.2625 0.58922 0.89018 0.0
H4703 H 0.26653 0.60952 0.8968 0.0
H4704 H 0.24924 0.59764 0.90474 0.0
H4705 H 0.2389 0.59263 0.90431 0.0
H4706 H 0.23035 0.61037 0.90085 0.0
H4707 H 0.24065 0.61548 0.90117 0.0
C4708 C 0.26495 0.62503 0.9229 0.0
C4709 C 0.26145 0.63055 0.92318 0.0
C4710 C 0.26411 0.62082 0.91801 0.0
C4711 C 0.25974 0.62204 0.91331 0.0
C4712 C 0.2562 0.62753 0.91359 0.0
C4713 C 0.25708 0.63177 0.91846 0.0
C4714 C 0.25881 0.61751 0.90817 0.0
C4715 C 0.25293 0.61475 0.90746 0.0
C4716 C 0.26376 0.61563 0.90426 0.0
C4717 C 0.27 0.61861 0.90459 0.0
C4718 C 0.27063 0.62511 0.90404 0.0
C4719 C 0.27651 0.62788 0.9044 0.0
C4720 C 0.28181 0.62421 0.90526 0.0
C4721 C 0.28123 0.61774 0.90576 0.0
C4722 C 0.27536 0.61494 0.90541 0.0
C4723 C 0.2505 0.5986 0.88568 0.0
C4724 C 0.25443 0.59336 0.88572 0.0
C4725 C 0.25135 0.60343 0.88998 0.0
C4726 C 0.25612 0.60309 0.89444 0.0
C4727 C 0.26013 0.59793 0.8944 0.0
C4728 C 0.2593 0.59312 0.89009 0.0
C4729 C 0.25689 0.60805 0.89921 0.0
C4730 C 0.26275 0.61091 0.89985 0.0
C4731 C 0.25192 0.60999 0.90309 0.0
C4732 C 0.24572 0.60693 0.90291 0.0
C4733 C 0.24516 0.60047 0.90384 0.0
C4734 C 0.23931 0.59761 0.90362 0.0
C4735 C 0.23398 0.60118 0.90253 0.0
C4736 C 0.23449 0.60761 0.90168 0.0
C4737 C 0.24033 0.61049 0.90188 0.0
H4738 H 0.22945 0.59896 0.90237 0.0
H4739 H 0.28636 0.62637 0.90554 0.0
H4740 H 0.39351 0.26083 0.92843 0.0
H4741 H 0.40115 0.25943 0.92015 0.0
H4742 H 0.38645 0.25966 0.90648 0.0
H4743 H 0.37872 0.26083 0.91478 0.0
H4744 H 0.3948 0.25069 0.9039 0.0
H4745 H 0.39561 0.27242 0.90868 0.0
H4746 H 0.39648 0.28168 0.91541 0.0
H4747 H 0.41474 0.27593 0.92115 0.0
H4748 H 0.41395 0.26658 0.91451 0.0
H4749 H 0.41584 0.25479 0.87834 0.0
H4750 H 0.40744 0.25621 0.88592 0.0
H4751 H 0.42085 0.25582 0.90085 0.0
H4752 H 0.42925 0.25434 0.89333 0.0
H4753 H 0.4127 0.26525 0.90229 0.0
H4754 H 0.4116 0.24327 0.89774 0.0
H4755 H 0.41065 0.23407 0.89092 0.0
H4756 H 0.39282 0.2405 0.88457 0.0
H4757 H 0.3937 0.24978 0.89129 0.0
C4758 C 0.39188 0.2605 0.92367 0.0
C4759 C 0.38549 0.26095 0.92228 0.0
C4760 C 0.39627 0.25977 0.91893 0.0
C4761 C 0.39439 0.25954 0.91268 0.0
C4762 C 0.38801 0.25987 0.91127 0.0
C4763 C 0.38361 0.26059 0.91602 0.0
C4764 C 0.3991 0.25896 0.90765 0.0
C4765 C 0.39866 0.25393 0.90348 0.0
C4766 C 0.40419 0.26313 0.90716 0.0
C4767 C 0.4047 0.26877 0.91114 0.0
C4768 C 0.39979 0.2731 0.91141 0.0
C4769 C 0.40028 0.27837 0.9152 0.0
C4770 C 0.40566 0.27939 0.91872 0.0
C4771 C 0.41058 0.27514 0.91843 0.0
C4772 C 0.41012 0.26985 0.91465 0.0
C4773 C 0.41699 0.25494 0.88324 0.0
C4774 C 0.42322 0.25445 0.88522 0.0
C4775 C 0.41219 0.25577 0.88757 0.0
C4776 C 0.41352 0.25607 0.89396 0.0
C4777 C 0.41972 0.25561 0.89595 0.0
C4778 C 0.42452 0.2548 0.89163 0.0
C4779 C 0.40846 0.25694 0.8986 0.0
C4780 C 0.40883 0.26203 0.90269 0.0
C4781 C 0.4033 0.25284 0.89899 0.0
C4782 C 0.40275 0.24725 0.89497 0.0
C4783 C 0.4075 0.24274 0.89485 0.0
C4784 C 0.40697 0.23751 0.89101 0.0
C4785 C 0.40168 0.23671 0.8873 0.0
C4786 C 0.39691 0.24113 0.88744 0.0
C4787 C 0.39743 0.24638 0.89127 0.0
H4788 H 0.40128 0.23265 0.88433 0.0
H4789 H 0.40602 0.28347 0.92165 0.0
H4790 H 0.75542 0.39434 0.92922 0.0
H4791 H 0.75675 0.40195 0.92089 0.0
H4792 H 0.756 0.3872 0.90726 0.0
H4793 H 0.7549 0.37951 0.9156 0.0
H4794 H 0.76511 0.39533 0.90454 0.0
H4795 H 0.74349 0.39664 0.90963 0.0
H4796 H 0.73435 0.39776 0.91649 0.0
H4797 H 0.74062 0.41594 0.92204 0.0
H4798 H 0.74985 0.41489 0.91528 0.0
H4799 H 0.76116 0.41622 0.8789 0.0
H4800 H 0.75963 0.40793 0.88657 0.0
H4801 H 0.76057 0.42147 0.90139 0.0
H4802 H 0.76214 0.42976 0.89377 0.0
H4803 H 0.75097 0.41353 0.90304 0.0
H4804 H 0.77284 0.41193 0.89818 0.0
H4805 H 0.78192 0.41074 0.89124 0.0
H4806 H 0.775 0.39299 0.8851 0.0
H4807 H 0.76583 0.39412 0.89194 0.0
C4808 C 0.75561 0.3927 0.92446 0.0
C4809 C 0.75505 0.38631 0.92309 0.0
C4810 C 0.7563 0.39706 0.91969 0.0
C4811 C 0.75639 0.39516 0.91344 0.0
C4812 C 0.75591 0.38878 0.91205 0.0
C4813 C 0.75523 0.3844 0.91682 0.0
C4814 C 0.75701 0.39983 0.90838 0.0
C4815 C 0.76196 0.39926 0.90415 0.0
C4816 C 0.75295 0.40501 0.90793 0.0
C4817 C 0.74739 0.40567 0.91199 0.0
C4818 C 0.74295 0.40086 0.91235 0.0
C4819 C 0.73774 0.40148 0.91621 0.0
C4820 C 0.73691 0.40691 0.91971 0.0
C4821 C 0.74127 0.41173 0.91934 0.0
C4822 C 0.74649 0.41113 0.91548 0.0
C4823 C 0.7611 0.41743 0.8838 0.0
C4824 C 0.76177 0.42366 0.88572 0.0
C4825 C 0.76021 0.41268 0.88818 0.0
C4826 C 0.76003 0.41408 0.89456 0.0
C4827 C 0.76067 0.42029 0.89649 0.0
C4828 C 0.76155 0.42503 0.89212 0.0
C4829 C 0.75912 0.40908 0.89926 0.0
C4830 C 0.7541 0.40959 0.90341 0.0
C4831 C 0.7631 0.40384 0.89962 0.0
C4832 C 0.76862 0.40314 0.89552 0.0
C4833 C 0.77323 0.4078 0.89531 0.0
C4834 C 0.7784 0.40713 0.8914 0.0
C4835 C 0.77902 0.4018 0.88772 0.0
C4836 C 0.7745 0.39712 0.88795 0.0
C4837 C 0.76932 0.39777 0.89184 0.0
H4838 H 0.78303 0.40129 0.8847 0.0
H4839 H 0.73288 0.40739 0.9227 0.0
H4840 H 0.60139 0.76162 0.87894 0.0
H4841 H 0.60974 0.76059 0.88661 0.0
H4842 H 0.59617 0.76084 0.90143 0.0
H4843 H 0.58783 0.76208 0.89381 0.0
H4844 H 0.60586 0.76815 0.90418 0.0
H4845 H 0.603 0.74722 0.89653 0.0
H4846 H 0.60239 0.73903 0.8885 0.0
H4847 H 0.62124 0.74289 0.883 0.0
H4848 H 0.62194 0.75116 0.89095 0.0
H4849 H 0.62309 0.75575 0.92925 0.0
H4850 H 0.61561 0.75751 0.92089 0.0
H4851 H 0.63055 0.75749 0.90746 0.0
H4852 H 0.6381 0.7558 0.91583 0.0
H4853 H 0.62075 0.75049 0.90356 0.0
H4854 H 0.6238 0.77103 0.91158 0.0
H4855 H 0.62444 0.77917 0.91966 0.0
H4856 H 0.60526 0.77607 0.92444 0.0
H4857 H 0.60453 0.76784 0.91645 0.0
C4858 C 0.60018 0.7615 0.88383 0.0
C4859 C 0.59393 0.7619 0.88576 0.0
C4860 C 0.60496 0.76086 0.88821 0.0
C4861 C 0.60358 0.76057 0.8946 0.0
C4862 C 0.59735 0.76103 0.89653 0.0
C4863 C 0.59258 0.76168 0.89216 0.0
C4864 C 0.6086 0.75982 0.89929 0.0
C4865 C 0.60907 0.76425 0.90408 0.0
C4866 C 0.61291 0.75484 0.89906 0.0
C4867 C 0.6125 0.74986 0.89429 0.0
C4868 C 0.607 0.74636 0.89358 0.0
C4869 C 0.60664 0.74169 0.88905 0.0
C4870 C 0.61177 0.74045 0.88523 0.0
C4871 C 0.61727 0.74386 0.88595 0.0
C4872 C 0.61765 0.74854 0.89047 0.0
C4873 C 0.62481 0.7562 0.92453 0.0
C4874 C 0.63121 0.75567 0.92322 0.0
C4875 C 0.62052 0.75719 0.91975 0.0
C4876 C 0.62253 0.7577 0.91356 0.0
C4877 C 0.6289 0.75711 0.91221 0.0
C4878 C 0.6332 0.75613 0.917 0.0
C4879 C 0.61794 0.75876 0.9085 0.0
C4880 C 0.61756 0.75441 0.90364 0.0
C4881 C 0.61371 0.76381 0.90866 0.0
C4882 C 0.61413 0.76878 0.91345 0.0
C4883 C 0.61973 0.77205 0.91439 0.0
C4884 C 0.62011 0.77668 0.91895 0.0
C4885 C 0.6149 0.77813 0.92257 0.0
C4886 C 0.6093 0.77494 0.92163 0.0
C4887 C 0.6089 0.7703 0.91709 0.0
H4888 H 0.6152 0.78172 0.92609 0.0
H4889 H 0.61148 0.73684 0.88173 0.0
H4890 H 0.76823 0.5992 0.13293 0.0
H4891 H 0.76657 0.60748 0.12531 0.0
H4892 H 0.75286 0.59614 0.11597 0.0
H4893 H 0.75437 0.5879 0.12364 0.0
H4894 H 0.76144 0.60125 0.10789 0.0
H4895 H 0.74828 0.60812 0.12472 0.0
H4896 H 0.74594 0.6111 0.13556 0.0
H4897 H 0.75939 0.62588 0.13452 0.0
H4898 H 0.76188 0.62294 0.1237 0.0
H4899 H 0.748 0.62312 0.08756 0.0
H4900 H 0.74972 0.61544 0.09577 0.0
H4901 H 0.76188 0.62832 0.10528 0.0
H4902 H 0.7601 0.63607 0.09711 0.0
H4903 H 0.75456 0.62261 0.11341 0.0
H4904 H 0.76773 0.61606 0.09674 0.0
H4905 H 0.77042 0.61316 0.08597 0.0
H4906 H 0.75754 0.59786 0.08674 0.0
H4907 H 0.75471 0.60072 0.0975 0.0
C4908 C 0.76479 0.59849 0.12932 0.0
C4909 C 0.76144 0.59286 0.12891 0.0
C4910 C 0.76387 0.60323 0.12494 0.0
C4911 C 0.75958 0.60244 0.12008 0.0
C4912 C 0.75622 0.59684 0.11967 0.0
C4913 C 0.75711 0.59212 0.12405 0.0
C4914 C 0.75867 0.60736 0.11533 0.0
C4915 C 0.75986 0.6059 0.10908 0.0
C4916 C 0.75681 0.61349 0.11692 0.0
C4917 C 0.75531 0.61527 0.12342 0.0
C4918 C 0.75078 0.61197 0.12682 0.0
C4919 C 0.74942 0.61366 0.13296 0.0
C4920 C 0.75253 0.61866 0.13573 0.0
C4921 C 0.75699 0.622 0.13237 0.0
C4922 C 0.75838 0.62033 0.12623 0.0
C4923 C 0.75106 0.62431 0.09139 0.0
C4924 C 0.75395 0.63018 0.09166 0.0
C4925 C 0.75205 0.61991 0.09607 0.0
C4926 C 0.75601 0.62126 0.10109 0.0
C4927 C 0.75881 0.62717 0.10145 0.0
C4928 C 0.75778 0.63159 0.09678 0.0
C4929 C 0.75725 0.61648 0.10594 0.0
C4930 C 0.75615 0.61797 0.11221 0.0
C4931 C 0.75926 0.61039 0.10437 0.0
C4932 C 0.76097 0.60864 0.09791 0.0
C4933 C 0.76544 0.6121 0.0946 0.0
C4934 C 0.76699 0.61047 0.0885 0.0
C4935 C 0.76414 0.60534 0.08567 0.0
C4936 C 0.75974 0.60184 0.08894 0.0
C4937 C 0.75816 0.60346 0.09504 0.0
H4938 H 0.76535 0.60408 0.08094 0.0
H4939 H 0.75146 0.61996 0.14048 0.0
H4940 H 0.41619 0.76062 0.13668 0.0
H4941 H 0.40772 0.75953 0.12914 0.0
H4942 H 0.42081 0.76191 0.11409 0.0
H4943 H 0.42926 0.7632 0.12159 0.0
H4944 H 0.4105 0.7687 0.11219 0.0
H4945 H 0.41518 0.74752 0.11798 0.0
H4946 H 0.41665 0.73879 0.12529 0.0
H4947 H 0.39773 0.74065 0.13152 0.0
H4948 H 0.39617 0.74945 0.12431 0.0
H4949 H 0.3936 0.75707 0.08655 0.0
H4950 H 0.40115 0.75869 0.09488 0.0
H4951 H 0.38661 0.75636 0.10856 0.0
H4952 H 0.37899 0.7548 0.10022 0.0
H4953 H 0.39704 0.74989 0.11166 0.0
H4954 H 0.39217 0.77069 0.10548 0.0
H4955 H 0.39066 0.77939 0.09814 0.0
H4956 H 0.40987 0.77828 0.09268 0.0
H4957 H 0.41148 0.76952 0.09992 0.0
C4958 C 0.41726 0.76096 0.13176 0.0
C4959 C 0.42341 0.76197 0.12974 0.0
C4960 C 0.41242 0.76028 0.12746 0.0
C4961 C 0.41364 0.76057 0.12104 0.0
C4962 C 0.41976 0.76165 0.11901 0.0
C4963 C 0.4246 0.76233 0.12331 0.0
C4964 C 0.40856 0.75981 0.11642 0.0
C4965 C 0.4076 0.76456 0.11204 0.0
C4966 C 0.40465 0.75449 0.11633 0.0
C4967 C 0.40558 0.74919 0.12066 0.0
C4968 C 0.41135 0.7461 0.12095 0.0
C4969 C 0.4122 0.74113 0.12506 0.0
C4970 C 0.4073 0.73918 0.12888 0.0
C4971 C 0.40153 0.74218 0.12857 0.0
C4972 C 0.40066 0.74715 0.12447 0.0
C4973 C 0.39198 0.75698 0.09132 0.0
C4974 C 0.38567 0.75585 0.09271 0.0
C4975 C 0.39631 0.75789 0.09609 0.0
C4976 C 0.39443 0.75772 0.10234 0.0
C4977 C 0.38816 0.75651 0.10376 0.0
C4978 C 0.38381 0.75561 0.09899 0.0
C4979 C 0.39905 0.75874 0.10738 0.0
C4980 C 0.39991 0.75405 0.11184 0.0
C4981 C 0.40287 0.76412 0.10755 0.0
C4982 C 0.40193 0.76941 0.10321 0.0
C4983 C 0.39606 0.77227 0.10268 0.0
C4984 C 0.39519 0.77722 0.09854 0.0
C4985 C 0.40016 0.77938 0.09494 0.0
C4986 C 0.40602 0.7766 0.09547 0.0
C4987 C 0.40692 0.77165 0.0996 0.0
H4988 H 0.39948 0.78321 0.09174 0.0
H4989 H 0.40796 0.73533 0.13206 0.0
H4990 H 0.63713 0.26125 0.09996 0.0
H4991 H 0.6295 0.26013 0.10835 0.0
H4992 H 0.61461 0.26013 0.09488 0.0
H4993 H 0.62218 0.26147 0.0865 0.0
H4994 H 0.61183 0.26745 0.10456 0.0
H4995 H 0.61971 0.24661 0.10171 0.0
H4996 H 0.62785 0.23853 0.10108 0.0
H4997 H 0.63334 0.2425 0.11988 0.0
H4998 H 0.62529 0.25066 0.12059 0.0
H4999 H 0.58687 0.25498 0.12191 0.0
H5000 H 0.59522 0.25667 0.11438 0.0
H5001 H 0.60872 0.25671 0.12924 0.0
H5002 H 0.60036 0.25506 0.13683 0.0
H5003 H 0.61266 0.2498 0.11944 0.0
H5004 H 0.60445 0.27025 0.12251 0.0
H5005 H 0.59629 0.27831 0.12318 0.0
H5006 H 0.59147 0.27514 0.10405 0.0
H5007 H 0.59954 0.267 0.10329 0.0
C5008 C 0.63223 0.26106 0.09879 0.0
C5009 C 0.63027 0.26142 0.09255 0.0
C5010 C 0.62787 0.26037 0.10359 0.0
C5011 C 0.62148 0.25998 0.10224 0.0
C5012 C 0.61952 0.2604 0.09603 0.0
C5013 C 0.62386 0.2611 0.09123 0.0
C5014 C 0.61681 0.25919 0.10728 0.0
C5015 C 0.61197 0.26355 0.10777 0.0
C5016 C 0.61711 0.25421 0.11159 0.0
C5017 C 0.62194 0.24929 0.11118 0.0
C5018 C 0.62269 0.24579 0.10569 0.0
C5019 C 0.62728 0.24119 0.10532 0.0
C5020 C 0.63112 0.24001 0.11043 0.0
C5021 C 0.63037 0.24342 0.11592 0.0
C5022 C 0.62579 0.24804 0.11631 0.0
C5023 C 0.5916 0.25541 0.1236 0.0
C5024 C 0.59294 0.25493 0.12998 0.0
C5025 C 0.59637 0.25637 0.11928 0.0
C5026 C 0.60259 0.2569 0.12125 0.0
C5027 C 0.60396 0.25632 0.12761 0.0
C5028 C 0.59918 0.25536 0.13194 0.0
C5029 C 0.60763 0.25801 0.11665 0.0
C5030 C 0.61254 0.25372 0.11625 0.0
C5031 C 0.60741 0.26306 0.11243 0.0
C5032 C 0.60256 0.26798 0.11286 0.0
C5033 C 0.60162 0.27124 0.11846 0.0
C5034 C 0.59701 0.27583 0.11885 0.0
C5035 C 0.59335 0.27722 0.11366 0.0
C5036 C 0.5943 0.27405 0.10807 0.0
C5037 C 0.59889 0.26945 0.10765 0.0
H5038 H 0.58979 0.28078 0.11398 0.0
H5039 H 0.63467 0.23645 0.11014 0.0
H5040 H 0.88635 0.75155 0.5916 0.0
H5041 H 0.89391 0.75025 0.6 0.0
H5042 H 0.89319 0.76998 0.60377 0.0
H5043 H 0.88576 0.77134 0.59526 0.0
H5044 H 0.90502 0.76584 0.60339 0.0
H5045 H 0.88604 0.75965 0.6134 0.0
H5046 H 0.87628 0.7537 0.61462 0.0
H5047 H 0.8866 0.73658 0.61494 0.0
H5048 H 0.89642 0.74242 0.61363 0.0
H5049 H 0.92199 0.76486 0.63163 0.0
H5050 H 0.91367 0.76637 0.624 0.0
H5051 H 0.91351 0.74663 0.6202 0.0
H5052 H 0.92179 0.74509 0.62786 0.0
H5053 H 0.90193 0.75098 0.6208 0.0
H5054 H 0.92082 0.75705 0.6104 0.0
H5055 H 0.93062 0.76291 0.60909 0.0
H5056 H 0.9205 0.78015 0.60935 0.0
H5057 H 0.91064 0.7744 0.61075 0.0
C5058 C 0.88782 0.75562 0.5942 0.0
C5059 C 0.88545 0.76155 0.59276 0.0
C5060 C 0.8921 0.75486 0.59904 0.0
C5061 C 0.89407 0.76001 0.60256 0.0
C5062 C 0.89171 0.76594 0.60113 0.0
C5063 C 0.88743 0.7667 0.5963 0.0
C5064 C 0.89874 0.75925 0.6076 0.0
C5065 C 0.9043 0.76266 0.60725 0.0
C5066 C 0.89786 0.75499 0.61255 0.0
C5067 C 0.89196 0.75147 0.61335 0.0
C5068 C 0.88623 0.75461 0.61368 0.0
C5069 C 0.88068 0.75126 0.6144 0.0
C5070 C 0.88082 0.74477 0.61484 0.0
C5071 C 0.8865 0.74161 0.61459 0.0
C5072 C 0.89206 0.74494 0.61386 0.0
C5073 C 0.92019 0.76085 0.62915 0.0
C5074 C 0.92257 0.75486 0.63032 0.0
C5075 C 0.91544 0.76172 0.6248 0.0
C5076 C 0.91303 0.75663 0.62146 0.0
C5077 C 0.9153 0.75063 0.62272 0.0
C5078 C 0.92002 0.74975 0.6271 0.0
C5079 C 0.90822 0.75757 0.61658 0.0
C5080 C 0.90263 0.75418 0.61695 0.0
C5081 C 0.90908 0.76184 0.61163 0.0
C5082 C 0.915 0.7653 0.61075 0.0
C5083 C 0.92069 0.7621 0.61023 0.0
C5084 C 0.92626 0.7654 0.60946 0.0
C5085 C 0.92619 0.7719 0.60915 0.0
C5086 C 0.92055 0.77512 0.6096 0.0
C5087 C 0.91497 0.77184 0.61038 0.0
H5088 H 0.9305 0.77444 0.60856 0.0
H5089 H 0.87652 0.74218 0.6154 0.0
H5090 H 0.25229 0.92237 0.63048 0.0
H5091 H 0.25093 0.91406 0.62279 0.0
H5092 H 0.27078 0.91364 0.61969 0.0
H5093 H 0.27216 0.92203 0.62729 0.0
H5094 H 0.26429 0.91383 0.60882 0.0
H5095 H 0.26386 0.90221 0.62786 0.0
H5096 H 0.2603 0.89959 0.63845 0.0
H5097 H 0.24176 0.8965 0.63162 0.0
H5098 H 0.24519 0.89918 0.62099 0.0
H5099 H 0.26511 0.88629 0.5907 0.0
H5100 H 0.26676 0.89387 0.59904 0.0
H5101 H 0.24702 0.89403 0.60284 0.0
H5102 H 0.24534 0.88644 0.59451 0.0
H5103 H 0.25359 0.89386 0.61347 0.0
H5104 H 0.25384 0.90574 0.59457 0.0
H5105 H 0.25725 0.90844 0.58395 0.0
H5106 H 0.27594 0.91119 0.5905 0.0
H5107 H 0.27266 0.90842 0.60116 0.0
C5108 C 0.25636 0.92051 0.62815 0.0
C5109 C 0.26234 0.92285 0.62949 0.0
C5110 C 0.25558 0.91573 0.62379 0.0
C5111 C 0.26076 0.9132 0.6207 0.0
C5112 C 0.26673 0.91552 0.62204 0.0
C5113 C 0.26751 0.92028 0.62641 0.0
C5114 C 0.25993 0.90826 0.61593 0.0
C5115 C 0.26204 0.90942 0.60986 0.0
C5116 C 0.25684 0.90258 0.61725 0.0
C5117 C 0.25477 0.90096 0.62364 0.0
C5118 C 0.25901 0.90102 0.62862 0.0
C5119 C 0.25702 0.89952 0.63463 0.0
C5120 C 0.25081 0.8979 0.63571 0.0
C5121 C 0.24657 0.89776 0.63078 0.0
C5122 C 0.24854 0.89927 0.62476 0.0
C5123 C 0.26112 0.88796 0.59329 0.0
C5124 C 0.25509 0.88579 0.59191 0.0
C5125 C 0.26207 0.89228 0.59806 0.0
C5126 C 0.257 0.89458 0.60151 0.0
C5127 C 0.251 0.89232 0.60024 0.0
C5128 C 0.25005 0.88797 0.59549 0.0
C5129 C 0.25796 0.89943 0.60636 0.0
C5130 C 0.25586 0.89826 0.61244 0.0
C5131 C 0.26103 0.90512 0.60504 0.0
C5132 C 0.26302 0.90681 0.59865 0.0
C5133 C 0.25869 0.90687 0.59374 0.0
C5134 C 0.2606 0.90842 0.58771 0.0
C5135 C 0.26681 0.90997 0.58655 0.0
C5136 C 0.27113 0.90999 0.59141 0.0
C5137 C 0.26925 0.90843 0.59744 0.0
H5138 H 0.26828 0.91117 0.58188 0.0
H5139 H 0.24928 0.89673 0.64037 0.0
H5140 H 0.10018 0.26197 0.63613 0.0
H5141 H 0.1086 0.26061 0.62857 0.0
H5142 H 0.09527 0.26148 0.61358 0.0
H5143 H 0.08685 0.26289 0.62109 0.0
H5144 H 0.10331 0.252 0.61196 0.0
H5145 H 0.10468 0.27385 0.61701 0.0
H5146 H 0.10571 0.28289 0.62403 0.0
H5147 H 0.12341 0.27609 0.63035 0.0
H5148 H 0.12245 0.26697 0.62342 0.0
H5149 H 0.1228 0.25668 0.58608 0.0
H5150 H 0.1151 0.25807 0.59432 0.0
H5151 H 0.12966 0.25723 0.60812 0.0
H5152 H 0.13744 0.25606 0.59987 0.0
H5153 H 0.12143 0.26633 0.61081 0.0
H5154 H 0.12034 0.24472 0.60556 0.0
H5155 H 0.11939 0.23562 0.59862 0.0
H5156 H 0.10127 0.24178 0.59285 0.0
H5157 H 0.10214 0.25097 0.59969 0.0
C5158 C 0.09905 0.26193 0.63122 0.0
C5159 C 0.09284 0.26254 0.62922 0.0
C5160 C 0.10387 0.26115 0.6269 0.0
C5161 C 0.10257 0.26099 0.6205 0.0
C5162 C 0.09638 0.26157 0.61849 0.0
C5163 C 0.09157 0.26235 0.6228 0.0
C5164 C 0.10764 0.26017 0.61587 0.0
C5165 C 0.10723 0.25517 0.61167 0.0
C5166 C 0.11286 0.2642 0.6156 0.0
C5167 C 0.11346 0.26969 0.61975 0.0
C5168 C 0.10877 0.27426 0.61993 0.0
C5169 C 0.10934 0.2794 0.62389 0.0
C5170 C 0.11461 0.28006 0.62765 0.0
C5171 C 0.11933 0.27558 0.62744 0.0
C5172 C 0.11877 0.27042 0.6235 0.0
C5173 C 0.12439 0.25688 0.59086 0.0
C5174 C 0.13075 0.25625 0.59231 0.0
C5175 C 0.11997 0.2576 0.59557 0.0
C5176 C 0.12179 0.25766 0.60185 0.0
C5177 C 0.12814 0.25716 0.60331 0.0
C5178 C 0.13258 0.25645 0.59859 0.0
C5179 C 0.11704 0.25821 0.60685 0.0
C5180 C 0.11752 0.26314 0.61112 0.0
C5181 C 0.11189 0.2541 0.60721 0.0
C5182 C 0.11133 0.24857 0.6031 0.0
C5183 C 0.11617 0.24416 0.60278 0.0
C5184 C 0.11564 0.23898 0.59887 0.0
C5185 C 0.11027 0.23813 0.59529 0.0
C5186 C 0.10542 0.24245 0.59562 0.0
C5187 C 0.10593 0.24764 0.59952 0.0
H5188 H 0.10987 0.23411 0.59226 0.0
H5189 H 0.11505 0.28404 0.6307 0.0
H5190 H 0.76466 0.09271 0.62895 0.0
H5191 H 0.76594 0.10112 0.62138 0.0
H5192 H 0.74621 0.10484 0.62215 0.0
H5193 H 0.74486 0.09632 0.62959 0.0
H5194 H 0.75033 0.10445 0.61033 0.0
H5195 H 0.75658 0.11454 0.62922 0.0
H5196 H 0.76254 0.1158 0.63895 0.0
H5197 H 0.77964 0.11606 0.62858 0.0
H5198 H 0.77379 0.11471 0.61879 0.0
H5199 H 0.75151 0.13263 0.59316 0.0
H5200 H 0.74991 0.12504 0.6015 0.0
H5201 H 0.76963 0.12116 0.60174 0.0
H5202 H 0.77126 0.12879 0.59345 0.0
H5203 H 0.76526 0.12186 0.61328 0.0
H5204 H 0.75914 0.11134 0.59449 0.0
H5205 H 0.75328 0.10997 0.58472 0.0
H5206 H 0.73604 0.11038 0.59486 0.0
H5207 H 0.7418 0.11184 0.60469 0.0
C5208 C 0.76059 0.0953 0.62749 0.0
C5209 C 0.75466 0.09384 0.62988 0.0
C5210 C 0.76134 0.10015 0.62321 0.0
C5211 C 0.75618 0.10365 0.62124 0.0
C5212 C 0.75026 0.10221 0.62362 0.0
C5213 C 0.7495 0.09738 0.62791 0.0
C5214 C 0.75694 0.10869 0.61657 0.0
C5215 C 0.75352 0.10831 0.61102 0.0
C5216 C 0.76122 0.11364 0.6174 0.0
C5217 C 0.76475 0.11447 0.62328 0.0
C5218 C 0.76162 0.11482 0.62902 0.0
C5219 C 0.76497 0.11556 0.63454 0.0
C5220 C 0.77147 0.116 0.63438 0.0
C5221 C 0.77461 0.11571 0.6287 0.0
C5222 C 0.77128 0.11497 0.62316 0.0
C5223 C 0.7555 0.13014 0.59498 0.0
C5224 C 0.76151 0.13128 0.59262 0.0
C5225 C 0.75458 0.12581 0.59975 0.0
C5226 C 0.75964 0.12246 0.60219 0.0
C5227 C 0.76566 0.12369 0.59994 0.0
C5228 C 0.76658 0.12806 0.5952 0.0
C5229 C 0.75866 0.11761 0.60703 0.0
C5230 C 0.76205 0.11802 0.61261 0.0
C5231 C 0.75437 0.11267 0.60622 0.0
C5232 C 0.7509 0.11176 0.60032 0.0
C5233 C 0.7541 0.11118 0.59463 0.0
C5234 C 0.75079 0.11039 0.58908 0.0
C5235 C 0.74429 0.11011 0.58917 0.0
C5236 C 0.74108 0.11061 0.5948 0.0
C5237 C 0.74436 0.11141 0.60036 0.0
H5238 H 0.74174 0.10949 0.58487 0.0
H5239 H 0.77406 0.11657 0.63867 0.0
H5240 H 0.92987 0.26075 0.39335 0.0
H5241 H 0.92153 0.25906 0.40088 0.0
H5242 H 0.90799 0.25925 0.38606 0.0
H5243 H 0.91634 0.26089 0.37846 0.0
H5244 H 0.90414 0.26612 0.39594 0.0
H5245 H 0.91217 0.24562 0.39266 0.0
H5246 H 0.92027 0.23751 0.39191 0.0
H5247 H 0.92515 0.24048 0.41105 0.0
H5248 H 0.91714 0.24868 0.4119 0.0
H5249 H 0.87956 0.25464 0.41523 0.0
H5250 H 0.88723 0.25582 0.40688 0.0
H5251 H 0.90207 0.25552 0.4204 0.0
H5252 H 0.89446 0.25412 0.42874 0.0
H5253 H 0.90484 0.24832 0.41063 0.0
H5254 H 0.89713 0.26917 0.41373 0.0
H5255 H 0.88907 0.27732 0.41445 0.0
H5256 H 0.88355 0.27365 0.3956 0.0
H5257 H 0.89152 0.26542 0.39479 0.0
C5258 C 0.92513 0.26036 0.39167 0.0
C5259 C 0.92379 0.26091 0.38529 0.0
C5260 C 0.92036 0.25941 0.39599 0.0
C5261 C 0.91414 0.25895 0.39403 0.0
C5262 C 0.91276 0.25958 0.38767 0.0
C5263 C 0.91753 0.26054 0.38334 0.0
C5264 C 0.9091 0.25784 0.39863 0.0
C5265 C 0.90423 0.26218 0.39908 0.0
C5266 C 0.90928 0.25275 0.40281 0.0
C5267 C 0.91409 0.2478 0.40233 0.0
C5268 C 0.915 0.24458 0.3967 0.0
C5269 C 0.91957 0.23996 0.39626 0.0
C5270 C 0.92323 0.23849 0.40143 0.0
C5271 C 0.92232 0.24163 0.40705 0.0
C5272 C 0.91776 0.24626 0.40752 0.0
C5273 C 0.88446 0.25478 0.41642 0.0
C5274 C 0.88639 0.25431 0.42266 0.0
C5275 C 0.88883 0.25551 0.41165 0.0
C5276 C 0.89522 0.25583 0.41302 0.0
C5277 C 0.89716 0.25531 0.41923 0.0
C5278 C 0.8928 0.25457 0.424 0.0
C5279 C 0.89992 0.25665 0.408 0.0
C5280 C 0.90472 0.25225 0.40746 0.0
C5281 C 0.89966 0.26168 0.40375 0.0
C5282 C 0.89488 0.26664 0.40422 0.0
C5283 C 0.89416 0.27007 0.40975 0.0
C5284 C 0.88961 0.27471 0.41017 0.0
C5285 C 0.88579 0.27599 0.40508 0.0
C5286 C 0.88651 0.27265 0.39954 0.0
C5287 C 0.89104 0.268 0.3991 0.0
H5288 H 0.88227 0.27959 0.40541 0.0
H5289 H 0.92676 0.23492 0.40107 0.0
H5290 H 0.76425 0.92254 0.38413 0.0
H5291 H 0.76561 0.9142 0.39177 0.0
H5292 H 0.74571 0.91338 0.39448 0.0
H5293 H 0.74433 0.9218 0.38694 0.0
H5294 H 0.75197 0.91356 0.40547 0.0
H5295 H 0.75301 0.90218 0.38628 0.0
H5296 H 0.75685 0.89976 0.37574 0.0
H5297 H 0.77527 0.89691 0.38296 0.0
H5298 H 0.77155 0.8994 0.39354 0.0
H5299 H 0.75097 0.88577 0.42311 0.0
H5300 H 0.74948 0.89341 0.41481 0.0
H5301 H 0.76931 0.89394 0.41164 0.0
H5302 H 0.77085 0.88631 0.41994 0.0
H5303 H 0.76304 0.89382 0.40078 0.0
H5304 H 0.76216 0.9054 0.41985 0.0
H5305 H 0.75845 0.90789 0.43043 0.0
H5306 H 0.73989 0.91049 0.42344 0.0
H5307 H 0.74348 0.90792 0.41283 0.0
C5308 C 0.76017 0.92059 0.38637 0.0
C5309 C 0.75419 0.92283 0.38493 0.0
C5310 C 0.76095 0.91579 0.39069 0.0
C5311 C 0.75576 0.91313 0.39366 0.0
C5312 C 0.74978 0.91535 0.39223 0.0
C5313 C 0.749 0.92013 0.38789 0.0
C5314 C 0.75657 0.90815 0.39838 0.0
C5315 C 0.7543 0.9092 0.40442 0.0
C5316 C 0.75977 0.90254 0.39705 0.0
C5317 C 0.76201 0.90104 0.3907 0.0
C5318 C 0.75789 0.90109 0.38561 0.0
C5319 C 0.76004 0.89969 0.37963 0.0
C5320 C 0.7663 0.8982 0.37868 0.0
C5321 C 0.77042 0.89808 0.38371 0.0
C5322 C 0.76829 0.89947 0.3897 0.0
C5323 C 0.75502 0.88753 0.42066 0.0
C5324 C 0.76104 0.88546 0.42222 0.0
C5325 C 0.75416 0.89189 0.41591 0.0
C5326 C 0.75929 0.89431 0.41266 0.0
C5327 C 0.76529 0.89213 0.41408 0.0
C5328 C 0.76615 0.88776 0.41883 0.0
C5329 C 0.75842 0.89921 0.40786 0.0
C5330 C 0.76069 0.89816 0.40182 0.0
C5331 C 0.75524 0.90484 0.40919 0.0
C5332 C 0.75308 0.90641 0.41556 0.0
C5333 C 0.75728 0.90646 0.42058 0.0
C5334 C 0.7552 0.90789 0.42658 0.0
C5335 C 0.74894 0.90933 0.42761 0.0
C5336 C 0.74474 0.90936 0.42264 0.0
C5337 C 0.7468 0.90792 0.41663 0.0
H5338 H 0.74733 0.91044 0.43225 0.0
H5339 H 0.76796 0.89712 0.37404 0.0
H5340 H 0.1228 0.76055 0.42855 0.0
H5341 H 0.11536 0.75902 0.4201 0.0
H5342 H 0.13025 0.76039 0.40669 0.0
H5343 H 0.13776 0.76186 0.41514 0.0
H5344 H 0.12012 0.76717 0.40318 0.0
H5345 H 0.12411 0.74639 0.41004 0.0
H5346 H 0.12514 0.73786 0.41764 0.0
H5347 H 0.10588 0.73982 0.42266 0.0
H5348 H 0.10475 0.74843 0.41514 0.0
H5349 H 0.10107 0.7564 0.37807 0.0
H5350 H 0.10943 0.75751 0.38573 0.0
H5351 H 0.09601 0.75584 0.4006 0.0
H5352 H 0.08768 0.75452 0.39299 0.0
H5353 H 0.10602 0.74884 0.40287 0.0
H5354 H 0.10222 0.77 0.3964 0.0
H5355 H 0.10121 0.77858 0.38884 0.0
H5356 H 0.12018 0.77587 0.38307 0.0
H5357 H 0.12127 0.76722 0.39055 0.0
C5358 C 0.12452 0.76045 0.42381 0.0
C5359 C 0.13089 0.76128 0.42253 0.0
C5360 C 0.12025 0.75959 0.41898 0.0
C5361 C 0.12226 0.75951 0.41277 0.0
C5362 C 0.1286 0.76043 0.41145 0.0
C5363 C 0.13288 0.76129 0.41629 0.0
C5364 C 0.11771 0.75852 0.40766 0.0
C5365 C 0.11711 0.76311 0.40305 0.0
C5366 C 0.1137 0.75328 0.40755 0.0
C5367 C 0.11436 0.74809 0.41206 0.0
C5368 C 0.1201 0.74503 0.4128 0.0
C5369 C 0.12071 0.74018 0.41709 0.0
C5370 C 0.11558 0.7383 0.42064 0.0
C5371 C 0.10984 0.74128 0.4199 0.0
C5372 C 0.10922 0.74614 0.41563 0.0
C5373 C 0.0999 0.75623 0.38297 0.0
C5374 C 0.09369 0.7554 0.38491 0.0
C5375 C 0.10468 0.75692 0.38734 0.0
C5376 C 0.10334 0.75682 0.39374 0.0
C5377 C 0.09716 0.75595 0.39569 0.0
C5378 C 0.09239 0.75526 0.39133 0.0
C5379 C 0.10836 0.75754 0.39844 0.0
C5380 C 0.10906 0.75288 0.40297 0.0
C5381 C 0.11245 0.76272 0.39847 0.0
C5382 C 0.1118 0.76792 0.39399 0.0
C5383 C 0.10616 0.7712 0.39348 0.0
C5384 C 0.10558 0.77608 0.38922 0.0
C5385 C 0.11062 0.77776 0.38546 0.0
C5386 C 0.11627 0.77457 0.38598 0.0
C5387 C 0.11687 0.76968 0.39023 0.0
H5388 H 0.11016 0.78154 0.38216 0.0
H5389 H 0.11606 0.73454 0.42396 0.0
H5390 H 0.26298 0.10104 0.37859 0.0
H5391 H 0.26136 0.10932 0.38625 0.0
H5392 H 0.25585 0.09565 0.39988 0.0
H5393 H 0.25757 0.08734 0.39231 0.0
H5394 H 0.248 0.10564 0.39977 0.0
H5395 H 0.27016 0.10204 0.40037 0.0
H5396 H 0.2807 0.10114 0.39589 0.0
H5397 H 0.27979 0.12011 0.38965 0.0
H5398 H 0.2692 0.1211 0.39401 0.0
H5399 H 0.25061 0.12236 0.42792 0.0
H5400 H 0.25191 0.11495 0.41938 0.0
H5401 H 0.25763 0.1299 0.40724 0.0
H5402 H 0.25648 0.13734 0.41582 0.0
H5403 H 0.26514 0.11986 0.406 0.0
H5404 H 0.24326 0.12371 0.40586 0.0
H5405 H 0.23271 0.12468 0.41028 0.0
H5406 H 0.23299 0.10538 0.41552 0.0
H5407 H 0.24359 0.10431 0.4112 0.0
C5408 C 0.26148 0.09979 0.38323 0.0
C5409 C 0.26041 0.09351 0.38483 0.0
C5410 C 0.26053 0.10453 0.3876 0.0
C5411 C 0.25852 0.1031 0.39365 0.0
C5412 C 0.25738 0.09686 0.39523 0.0
C5413 C 0.25834 0.09212 0.39088 0.0
C5414 C 0.25763 0.10808 0.39836 0.0
C5415 C 0.25176 0.10871 0.40118 0.0
C5416 C 0.26249 0.1122 0.40007 0.0
C5417 C 0.26886 0.11162 0.39746 0.0
C5418 C 0.27218 0.106 0.398 0.0
C5419 C 0.27817 0.10548 0.39549 0.0
C5420 C 0.28091 0.11056 0.39247 0.0
C5421 C 0.27766 0.11618 0.39197 0.0
C5422 C 0.27167 0.11672 0.39447 0.0
C5423 C 0.25219 0.12407 0.42345 0.0
C5424 C 0.25344 0.13044 0.42255 0.0
C5425 C 0.25287 0.11984 0.41855 0.0
C5426 C 0.2548 0.12189 0.41265 0.0
C5427 C 0.25611 0.12823 0.41175 0.0
C5428 C 0.25541 0.13248 0.41664 0.0
C5429 C 0.25553 0.11736 0.40747 0.0
C5430 C 0.26136 0.11682 0.40456 0.0
C5431 C 0.25063 0.11333 0.40566 0.0
C5432 C 0.24424 0.11395 0.40825 0.0
C5433 C 0.24109 0.11968 0.408 0.0
C5434 C 0.2351 0.12025 0.41048 0.0
C5435 C 0.23218 0.1151 0.41319 0.0
C5436 C 0.23525 0.10937 0.41342 0.0
C5437 C 0.24125 0.10878 0.41095 0.0
H5438 H 0.22754 0.11555 0.41511 0.0
H5439 H 0.28554 0.11015 0.39053 0.0
H5440 H 0.63115 0.92262 0.76438 0.0
H5441 H 0.62358 0.91418 0.76557 0.0
H5442 H 0.62313 0.91171 0.74565 0.0
H5443 H 0.63058 0.92026 0.74441 0.0
H5444 H 0.61156 0.91201 0.7505 0.0
H5445 H 0.63063 0.9013 0.75488 0.0
H5446 H 0.64068 0.89952 0.76013 0.0
H5447 H 0.63133 0.8982 0.77775 0.0
H5448 H 0.62123 0.90006 0.77261 0.0
H5449 H 0.59406 0.88401 0.75062 0.0
H5450 H 0.60246 0.89158 0.74913 0.0
H5451 H 0.60375 0.89411 0.769 0.0
H5452 H 0.59539 0.88651 0.77052 0.0
H5453 H 0.61509 0.89358 0.76395 0.0
H5454 H 0.59614 0.90469 0.75973 0.0
H5455 H 0.58605 0.90657 0.75459 0.0
H5456 H 0.59516 0.90728 0.7368 0.0
H5457 H 0.6053 0.90532 0.74183 0.0
C5458 C 0.62943 0.92029 0.76025 0.0
C5459 C 0.63147 0.92212 0.7543 0.0
C5460 C 0.62515 0.91543 0.76094 0.0
C5461 C 0.62283 0.91227 0.7557 0.0
C5462 C 0.62488 0.91407 0.74976 0.0
C5463 C 0.62917 0.91892 0.74907 0.0
C5464 C 0.61811 0.90726 0.7564 0.0
C5465 C 0.61237 0.90793 0.75336 0.0
C5466 C 0.61911 0.90201 0.76026 0.0
C5467 C 0.62518 0.90088 0.76336 0.0
C5468 C 0.63072 0.90068 0.75988 0.0
C5469 C 0.63643 0.89965 0.76283 0.0
C5470 C 0.63665 0.89876 0.76927 0.0
C5471 C 0.63116 0.8989 0.77276 0.0
C5472 C 0.62544 0.89993 0.76983 0.0
C5473 C 0.59612 0.8862 0.75467 0.0
C5474 C 0.59404 0.88469 0.76069 0.0
C5475 C 0.60093 0.89052 0.75381 0.0
C5476 C 0.60368 0.89348 0.75895 0.0
C5477 C 0.6017 0.89188 0.76497 0.0
C5478 C 0.59693 0.88753 0.76583 0.0
C5479 C 0.60854 0.89834 0.75805 0.0
C5480 C 0.6143 0.89765 0.76107 0.0
C5481 C 0.60755 0.90359 0.75418 0.0
C5482 C 0.60146 0.9048 0.75115 0.0
C5483 C 0.59598 0.9052 0.75472 0.0
C5484 C 0.59026 0.90629 0.75182 0.0
C5485 C 0.58996 0.90703 0.74537 0.0
C5486 C 0.59539 0.9067 0.7418 0.0
C5487 C 0.60113 0.90561 0.74467 0.0
H5488 H 0.58552 0.90787 0.74314 0.0
H5489 H 0.64107 0.89796 0.77155 0.0
H5490 H 0.13151 0.5967 0.77021 0.0
H5491 H 0.12404 0.6052 0.76893 0.0
H5492 H 0.12249 0.60092 0.74938 0.0
H5493 H 0.1301 0.59254 0.75058 0.0
H5494 H 0.12303 0.61341 0.75137 0.0
H5495 H 0.11148 0.59599 0.75957 0.0
H5496 H 0.10922 0.58758 0.76705 0.0
H5497 H 0.10739 0.60102 0.78174 0.0
H5498 H 0.10972 0.60951 0.77436 0.0
H5499 H 0.09452 0.62865 0.74456 0.0
H5500 H 0.10298 0.62119 0.74602 0.0
H5501 H 0.1032 0.62526 0.76569 0.0
H5502 H 0.09468 0.63269 0.76426 0.0
H5503 H 0.10361 0.61314 0.76389 0.0
H5504 H 0.11474 0.63064 0.7557 0.0
H5505 H 0.11704 0.6391 0.74829 0.0
H5506 H 0.11975 0.62569 0.7337 0.0
H5507 H 0.11738 0.61715 0.74101 0.0
C5508 C 0.12965 0.59762 0.76562 0.0
C5509 C 0.13138 0.59392 0.7605 0.0
C5510 C 0.12534 0.60245 0.76491 0.0
C5511 C 0.12264 0.60364 0.75908 0.0
C5512 C 0.12449 0.60007 0.75393 0.0
C5513 C 0.1288 0.59524 0.75463 0.0
C5514 C 0.11779 0.60851 0.75837 0.0
C5515 C 0.11875 0.61332 0.75406 0.0
C5516 C 0.11227 0.60848 0.76199 0.0
C5517 C 0.11084 0.60338 0.76642 0.0
C5518 C 0.11064 0.59715 0.7644 0.0
C5519 C 0.10934 0.59237 0.76862 0.0
C5520 C 0.10818 0.59376 0.77487 0.0
C5521 C 0.1083 0.59995 0.7769 0.0
C5522 C 0.1096 0.60475 0.7727 0.0
C5523 C 0.09642 0.62801 0.74919 0.0
C5524 C 0.09394 0.63127 0.7543 0.0
C5525 C 0.10127 0.62375 0.75001 0.0
C5526 C 0.10379 0.62271 0.75595 0.0
C5527 C 0.10133 0.62597 0.76106 0.0
C5528 C 0.09645 0.63021 0.76024 0.0
C5529 C 0.10883 0.61806 0.75687 0.0
C5530 C 0.1079 0.61327 0.76122 0.0
C5531 C 0.11438 0.61813 0.7533 0.0
C5532 C 0.11583 0.62326 0.74889 0.0
C5533 C 0.11578 0.6295 0.7509 0.0
C5534 C 0.1171 0.6343 0.74672 0.0
C5535 C 0.11852 0.63293 0.74052 0.0
C5536 C 0.11864 0.62674 0.7385 0.0
C5537 C 0.11731 0.62192 0.74266 0.0
H5538 H 0.11955 0.63666 0.73729 0.0
H5539 H 0.10717 0.59005 0.77813 0.0
H5540 H 0.42834 0.12491 0.75376 0.0
H5541 H 0.4199 0.11749 0.75213 0.0
H5542 H 0.40866 0.12722 0.76565 0.0
H5543 H 0.41723 0.13449 0.76755 0.0
H5544 H 0.40774 0.11521 0.76748 0.0
H5545 H 0.40589 0.1284 0.74974 0.0
H5546 H 0.4094 0.13412 0.74043 0.0
H5547 H 0.41448 0.11688 0.73164 0.0
H5548 H 0.41108 0.11106 0.74093 0.0
H5549 H 0.38005 0.09861 0.75922 0.0
H5550 H 0.38758 0.10708 0.76068 0.0
H5551 H 0.40083 0.09733 0.74915 0.0
H5552 H 0.39331 0.0889 0.7476 0.0
H5553 H 0.40009 0.1099 0.74635 0.0
H5554 H 0.4023 0.09691 0.76458 0.0
H5555 H 0.39852 0.09139 0.77391 0.0
H5556 H 0.39233 0.10872 0.78176 0.0
H5557 H 0.396 0.11433 0.77242 0.0
C5558 C 0.4241 0.12545 0.75644 0.0
C5559 C 0.42349 0.13031 0.7608 0.0
C5560 C 0.41924 0.12124 0.75544 0.0
C5561 C 0.4136 0.12184 0.7587 0.0
C5562 C 0.41296 0.12668 0.76305 0.0
C5563 C 0.41784 0.13087 0.76409 0.0
C5564 C 0.40846 0.1173 0.75769 0.0
C5565 C 0.406 0.11414 0.76286 0.0
C5566 C 0.40623 0.11581 0.75167 0.0
C5567 C 0.40828 0.11929 0.74606 0.0
C5568 C 0.4078 0.12583 0.74584 0.0
C5569 C 0.40976 0.12909 0.74056 0.0
C5570 C 0.41218 0.12587 0.73545 0.0
C5571 C 0.41262 0.11937 0.7356 0.0
C5572 C 0.41067 0.11609 0.74087 0.0
C5573 C 0.38455 0.0983 0.75695 0.0
C5574 C 0.3861 0.09307 0.75332 0.0
C5575 C 0.38886 0.10312 0.75783 0.0
C5576 C 0.39478 0.10281 0.75506 0.0
C5577 C 0.39629 0.09766 0.75133 0.0
C5578 C 0.39201 0.09282 0.75049 0.0
C5579 C 0.39945 0.1078 0.75612 0.0
C5580 C 0.40182 0.11103 0.75096 0.0
C5581 C 0.40155 0.10939 0.76215 0.0
C5582 C 0.39936 0.10603 0.76777 0.0
C5583 C 0.40009 0.09954 0.76827 0.0
C5584 C 0.39797 0.09639 0.77356 0.0
C5585 C 0.39517 0.0997 0.77842 0.0
C5586 C 0.39449 0.10616 0.77799 0.0
C5587 C 0.39659 0.10933 0.7727 0.0
H5588 H 0.39354 0.09726 0.78251 0.0
H5589 H 0.4137 0.1284 0.73137 0.0
H5590 H 0.87905 0.41633 0.75993 0.0
H5591 H 0.8867 0.40802 0.7584 0.0
H5592 H 0.90159 0.42148 0.7595 0.0
H5593 H 0.894 0.4298 0.76108 0.0
H5594 H 0.90332 0.41357 0.74993 0.0
H5595 H 0.89818 0.41191 0.77172 0.0
H5596 H 0.89111 0.41071 0.78069 0.0
H5597 H 0.88496 0.39302 0.77364 0.0
H5598 H 0.89193 0.39416 0.76458 0.0
H5599 H 0.92937 0.39424 0.75449 0.0
H5600 H 0.92107 0.40187 0.75586 0.0
H5601 H 0.90735 0.3872 0.75496 0.0
H5602 H 0.91566 0.37948 0.75383 0.0
H5603 H 0.90456 0.39531 0.76403 0.0
H5604 H 0.90993 0.39669 0.74249 0.0
H5605 H 0.91693 0.39781 0.73346 0.0
H5606 H 0.92251 0.41593 0.73988 0.0
H5607 H 0.9156 0.41488 0.749 0.0
C5608 C 0.88396 0.41752 0.75989 0.0
C5609 C 0.88591 0.42374 0.76062 0.0
C5610 C 0.88832 0.41276 0.75901 0.0
C5611 C 0.89472 0.41412 0.75888 0.0
C5612 C 0.89668 0.42032 0.75956 0.0
C5613 C 0.89232 0.42508 0.76044 0.0
C5614 C 0.89941 0.40911 0.75801 0.0
C5615 C 0.90363 0.40961 0.75305 0.0
C5616 C 0.8997 0.40385 0.76198 0.0
C5617 C 0.89553 0.40315 0.76744 0.0
C5618 C 0.89528 0.40779 0.77206 0.0
C5619 C 0.8913 0.40712 0.77716 0.0
C5620 C 0.88758 0.4018 0.77773 0.0
C5621 C 0.88784 0.39714 0.77319 0.0
C5622 C 0.89181 0.39779 0.76807 0.0
C5623 C 0.9246 0.39261 0.75466 0.0
C5624 C 0.92319 0.38624 0.75404 0.0
C5625 C 0.91985 0.397 0.75537 0.0
C5626 C 0.91358 0.39512 0.75542 0.0
C5627 C 0.91215 0.38876 0.7549 0.0
C5628 C 0.91691 0.38436 0.7542 0.0
C5629 C 0.90853 0.39982 0.756 0.0
C5630 C 0.90423 0.39925 0.76089 0.0
C5631 C 0.90815 0.40502 0.75196 0.0
C5632 C 0.91229 0.40568 0.74646 0.0
C5633 C 0.91268 0.40089 0.742 0.0
C5634 C 0.91663 0.40152 0.73686 0.0
C5635 C 0.92017 0.40693 0.7361 0.0
C5636 C 0.91976 0.41174 0.74047 0.0
C5637 C 0.91583 0.41113 0.74563 0.0
H5638 H 0.92322 0.40741 0.73212 0.0
H5639 H 0.8845 0.40129 0.78169 0.0
H5640 H 0.58629 0.12212 0.25602 0.0
H5641 H 0.5946 0.11458 0.25783 0.0
H5642 H 0.60835 0.12901 0.25521 0.0
H5643 H 0.60004 0.13662 0.25346 0.0
H5644 H 0.61144 0.1184 0.24901 0.0
H5645 H 0.60515 0.12387 0.26963 0.0
H5646 H 0.59776 0.12561 0.27824 0.0
H5647 H 0.59232 0.10636 0.27762 0.0
H5648 H 0.59962 0.10452 0.26894 0.0
H5649 H 0.63656 0.09983 0.26036 0.0
H5650 H 0.62893 0.10819 0.25902 0.0
H5651 H 0.61399 0.095 0.26172 0.0
H5652 H 0.62158 0.08668 0.26326 0.0
H5653 H 0.61193 0.10553 0.26817 0.0
H5654 H 0.61788 0.10021 0.24721 0.0
H5655 H 0.62524 0.09849 0.23857 0.0
H5656 H 0.63135 0.11751 0.23984 0.0
H5657 H 0.62408 0.11932 0.24856 0.0
C5658 C 0.59107 0.12372 0.2559 0.0
C5659 C 0.59249 0.12999 0.25463 0.0
C5660 C 0.59582 0.11939 0.25692 0.0
C5661 C 0.60209 0.12125 0.25673 0.0
C5662 C 0.60354 0.12748 0.25538 0.0
C5663 C 0.59879 0.13182 0.25436 0.0
C5664 C 0.60712 0.11664 0.25788 0.0
C5665 C 0.61161 0.11565 0.25324 0.0
C5666 C 0.60727 0.11299 0.26336 0.0
C5667 C 0.60289 0.11407 0.26859 0.0
C5668 C 0.60234 0.12002 0.27129 0.0
C5669 C 0.59818 0.12102 0.2762 0.0
C5670 C 0.59456 0.11611 0.27847 0.0
C5671 C 0.59512 0.11017 0.27585 0.0
C5672 C 0.59927 0.10914 0.27094 0.0
C5673 C 0.63165 0.09872 0.26072 0.0
C5674 C 0.62968 0.09258 0.26189 0.0
C5675 C 0.62729 0.10349 0.25989 0.0
C5676 C 0.62088 0.10221 0.2602 0.0
C5677 C 0.61891 0.0961 0.26145 0.0
C5678 C 0.62326 0.09133 0.26226 0.0
C5679 C 0.61621 0.10722 0.25926 0.0
C5680 C 0.61178 0.10829 0.26395 0.0
C5681 C 0.61612 0.11095 0.25383 0.0
C5682 C 0.62049 0.10988 0.24858 0.0
C5683 C 0.62083 0.10401 0.24569 0.0
C5684 C 0.62498 0.10302 0.24076 0.0
C5685 C 0.62877 0.10788 0.23867 0.0
C5686 C 0.62842 0.11374 0.24148 0.0
C5687 C 0.62428 0.11475 0.24641 0.0
H5688 H 0.63198 0.10711 0.23486 0.0
H5689 H 0.59134 0.11689 0.28226 0.0
H5690 H 0.91649 0.63482 0.26785 0.0
H5691 H 0.90793 0.62749 0.26624 0.0
H5692 H 0.91835 0.61847 0.25163 0.0
H5693 H 0.9268 0.62596 0.25299 0.0
H5694 H 0.90659 0.61953 0.24831 0.0
H5695 H 0.91739 0.61237 0.26658 0.0
H5696 H 0.92185 0.6133 0.27711 0.0
H5697 H 0.90376 0.61756 0.28452 0.0
H5698 H 0.8992 0.61673 0.27401 0.0
H5699 H 0.89199 0.58992 0.24731 0.0
H5700 H 0.89931 0.59854 0.24873 0.0
H5701 H 0.88668 0.60717 0.26175 0.0
H5702 H 0.87934 0.5985 0.26039 0.0
H5703 H 0.89886 0.60685 0.26601 0.0
H5704 H 0.888 0.61319 0.24765 0.0
H5705 H 0.88369 0.61197 0.23709 0.0
H5706 H 0.90208 0.60895 0.22982 0.0
H5707 H 0.9065 0.61006 0.24035 0.0
C5708 C 0.91693 0.63133 0.26423 0.0
C5709 C 0.92237 0.63096 0.26058 0.0
C5710 C 0.91205 0.6271 0.26336 0.0
C5711 C 0.91253 0.62236 0.25888 0.0
C5712 C 0.91788 0.62206 0.25514 0.0
C5713 C 0.92274 0.62631 0.25597 0.0
C5714 C 0.9075 0.61765 0.25811 0.0
C5715 C 0.90494 0.61672 0.25217 0.0
C5716 C 0.90524 0.61407 0.26318 0.0
C5717 C 0.90797 0.61456 0.2695 0.0
C5718 C 0.91437 0.61355 0.27045 0.0
C5719 C 0.91692 0.61405 0.27641 0.0
C5720 C 0.9131 0.61551 0.28148 0.0
C5721 C 0.90672 0.61644 0.28059 0.0
C5722 C 0.90415 0.61596 0.27463 0.0
C5723 C 0.89078 0.59364 0.25049 0.0
C5724 C 0.8851 0.59353 0.25374 0.0
C5725 C 0.89494 0.59859 0.25126 0.0
C5726 C 0.89351 0.60352 0.2553 0.0
C5727 C 0.88785 0.60342 0.25858 0.0
C5728 C 0.88366 0.59849 0.25778 0.0
C5729 C 0.89801 0.60869 0.25621 0.0
C5730 C 0.90047 0.6097 0.26217 0.0
C5731 C 0.90021 0.61231 0.25116 0.0
C5732 C 0.89757 0.61166 0.24481 0.0
C5733 C 0.89112 0.61222 0.24381 0.0
C5734 C 0.88866 0.61156 0.23783 0.0
C5735 C 0.8926 0.61037 0.23279 0.0
C5736 C 0.89902 0.60986 0.23372 0.0
C5737 C 0.90151 0.61052 0.2397 0.0
H5738 H 0.89069 0.60986 0.22816 0.0
H5739 H 0.91508 0.61589 0.28609 0.0
H5740 H 0.42026 0.88583 0.24352 0.0
H5741 H 0.41174 0.89325 0.24496 0.0
H5742 H 0.41595 0.89436 0.26455 0.0
H5743 H 0.42437 0.88681 0.26318 0.0
H5744 H 0.40345 0.89366 0.26248 0.0
H5745 H 0.42078 0.90567 0.2547 0.0
H5746 H 0.42918 0.90823 0.24729 0.0
H5747 H 0.41574 0.91036 0.23266 0.0
H5748 H 0.40726 0.90773 0.23997 0.0
H5749 H 0.38789 0.92165 0.27038 0.0
H5750 H 0.39547 0.91336 0.26856 0.0
H5751 H 0.3915 0.91398 0.24889 0.0
H5752 H 0.38397 0.92235 0.25068 0.0
H5753 H 0.40357 0.9135 0.25065 0.0
H5754 H 0.38616 0.90195 0.25838 0.0
H5755 H 0.37769 0.8993 0.26567 0.0
H5756 H 0.39104 0.89616 0.28019 0.0
H5757 H 0.3996 0.89887 0.27301 0.0
C5758 C 0.41932 0.8876 0.24815 0.0
C5759 C 0.42301 0.88575 0.25323 0.0
C5760 C 0.41449 0.89188 0.24895 0.0
C5761 C 0.41326 0.89442 0.25485 0.0
C5762 C 0.41683 0.89248 0.25996 0.0
C5763 C 0.42167 0.8882 0.25915 0.0
C5764 C 0.40832 0.89919 0.25569 0.0
C5765 C 0.4035 0.89803 0.25995 0.0
C5766 C 0.40831 0.90482 0.25225 0.0
C5767 C 0.4134 0.90644 0.24787 0.0
C5768 C 0.41962 0.90664 0.24989 0.0
C5769 C 0.4244 0.90811 0.24572 0.0
C5770 C 0.423 0.90944 0.23951 0.0
C5771 C 0.41682 0.90932 0.23747 0.0
C5772 C 0.41203 0.90784 0.24163 0.0
C5773 C 0.38859 0.91997 0.26568 0.0
C5774 C 0.38532 0.92264 0.26068 0.0
C5775 C 0.39292 0.91522 0.26464 0.0
C5776 C 0.394 0.91298 0.2586 0.0
C5777 C 0.39074 0.91563 0.25359 0.0
C5778 C 0.38645 0.92042 0.25462 0.0
C5779 C 0.39869 0.908 0.25748 0.0
C5780 C 0.40348 0.90912 0.25317 0.0
C5781 C 0.39865 0.90232 0.26084 0.0
C5782 C 0.39352 0.90067 0.26517 0.0
C5783 C 0.38729 0.90074 0.26314 0.0
C5784 C 0.38247 0.89922 0.26725 0.0
C5785 C 0.38382 0.89758 0.27339 0.0
C5786 C 0.39 0.89744 0.27543 0.0
C5787 C 0.39484 0.89896 0.27134 0.0
H5788 H 0.38009 0.8964 0.27657 0.0
H5789 H 0.4267 0.91058 0.23628 0.0
H5790 H 0.13565 0.41806 0.26039 0.0
H5791 H 0.12797 0.40976 0.26188 0.0
H5792 H 0.11588 0.41851 0.24844 0.0
H5793 H 0.1235 0.42685 0.24701 0.0
H5794 H 0.10942 0.41522 0.2582 0.0
H5795 H 0.12444 0.40506 0.24513 0.0
H5796 H 0.13488 0.4014 0.24203 0.0
H5797 H 0.13604 0.39035 0.25864 0.0
H5798 H 0.12564 0.39402 0.26188 0.0
H5799 H 0.08837 0.39044 0.25298 0.0
H5800 H 0.09667 0.39808 0.25152 0.0
H5801 H 0.10694 0.38993 0.2667 0.0
H5802 H 0.09858 0.38233 0.26829 0.0
H5803 H 0.11443 0.39273 0.25641 0.0
H5804 H 0.09922 0.40288 0.26929 0.0
H5805 H 0.08868 0.40646 0.27215 0.0
H5806 H 0.08783 0.41751 0.25552 0.0
H5807 H 0.09833 0.41392 0.25252 0.0
C5808 C 0.13138 0.41817 0.25771 0.0
C5809 C 0.13018 0.42311 0.25359 0.0
C5810 C 0.12699 0.41342 0.25856 0.0
C5811 C 0.12136 0.41347 0.25523 0.0
C5812 C 0.12018 0.41838 0.25108 0.0
C5813 C 0.12453 0.42315 0.25027 0.0
C5814 C 0.1166 0.40851 0.25618 0.0
C5815 C 0.11051 0.41031 0.25772 0.0
C5816 C 0.11804 0.40209 0.25572 0.0
C5817 C 0.12429 0.39987 0.25378 0.0
C5818 C 0.12695 0.40189 0.24814 0.0
C5819 C 0.13285 0.39981 0.24636 0.0
C5820 C 0.13613 0.39566 0.25014 0.0
C5821 C 0.1335 0.39358 0.25571 0.0
C5822 C 0.1276 0.39565 0.25753 0.0
C5823 C 0.09236 0.39029 0.25605 0.0
C5824 C 0.09276 0.38579 0.2608 0.0
C5825 C 0.09712 0.39465 0.25518 0.0
C5826 C 0.10239 0.39461 0.25905 0.0
C5827 C 0.10291 0.39003 0.26367 0.0
C5828 C 0.09813 0.38568 0.26456 0.0
C5829 C 0.10726 0.39947 0.25834 0.0
C5830 C 0.11336 0.39765 0.25688 0.0
C5831 C 0.10583 0.40588 0.25884 0.0
C5832 C 0.09953 0.40808 0.26065 0.0
C5833 C 0.09676 0.40603 0.26622 0.0
C5834 C 0.0908 0.40807 0.26787 0.0
C5835 C 0.08758 0.4122 0.26402 0.0
C5836 C 0.09033 0.41431 0.2585 0.0
C5837 C 0.09628 0.41227 0.25683 0.0
H5838 H 0.08297 0.41377 0.2653 0.0
H5839 H 0.1407 0.39405 0.24875 0.0
H5840 H 0.74426 0.63014 0.91947 0.0
H5841 H 0.74578 0.62266 0.91102 0.0
H5842 H 0.76544 0.62198 0.91509 0.0
H5843 H 0.76398 0.6296 0.92345 0.0
H5844 H 0.76322 0.62253 0.90257 0.0
H5845 H 0.75597 0.61051 0.92004 0.0
H5846 H 0.74879 0.60783 0.9286 0.0
H5847 H 0.7339 0.60529 0.91551 0.0
H5848 H 0.74097 0.60804 0.90687 0.0
H5849 H 0.77093 0.59449 0.88679 0.0
H5850 H 0.7693 0.6028 0.89439 0.0
H5851 H 0.74952 0.6022 0.89085 0.0
H5852 H 0.75113 0.59384 0.88327 0.0
H5853 H 0.75163 0.60252 0.90292 0.0
H5854 H 0.75883 0.61422 0.88539 0.0
H5855 H 0.76591 0.61697 0.87678 0.0
H5856 H 0.78073 0.62022 0.8898 0.0
H5857 H 0.77376 0.6174 0.89849 0.0
C5858 C 0.74892 0.62846 0.91852 0.0
C5859 C 0.754 0.63045 0.92215 0.0
C5860 C 0.74977 0.62414 0.91373 0.0
C5861 C 0.75571 0.62171 0.91247 0.0
C5862 C 0.76081 0.62379 0.91599 0.0
C5863 C 0.75996 0.6281 0.9208 0.0
C5864 C 0.75658 0.61691 0.90757 0.0
C5865 C 0.76074 0.61812 0.90268 0.0
C5866 C 0.75323 0.61122 0.90764 0.0
C5867 C 0.74898 0.60954 0.91282 0.0
C5868 C 0.75115 0.60943 0.91899 0.0
C5869 C 0.74711 0.60789 0.92386 0.0
C5870 C 0.74089 0.60641 0.9226 0.0
C5871 C 0.73871 0.60645 0.91648 0.0
C5872 C 0.74274 0.60799 0.91159 0.0
C5873 C 0.76624 0.59618 0.88757 0.0
C5874 C 0.76116 0.59351 0.88442 0.0
C5875 C 0.76531 0.60094 0.89192 0.0
C5876 C 0.75929 0.60318 0.89315 0.0
C5877 C 0.75421 0.60054 0.88999 0.0
C5878 C 0.75513 0.59576 0.88567 0.0
C5879 C 0.75827 0.60812 0.8979 0.0
C5880 C 0.75409 0.60693 0.90278 0.0
C5881 C 0.76158 0.61384 0.89781 0.0
C5882 C 0.76578 0.61555 0.89259 0.0
C5883 C 0.76361 0.61548 0.88642 0.0
C5884 C 0.7676 0.61705 0.88152 0.0
C5885 C 0.77377 0.61875 0.88274 0.0
C5886 C 0.77595 0.61889 0.88886 0.0
C5887 C 0.77198 0.61731 0.89378 0.0
H5888 H 0.77685 0.61997 0.87894 0.0
H5889 H 0.73777 0.60522 0.92637 0.0
H5890 H 0.74498 0.38751 0.09339 0.0
H5891 H 0.74639 0.3952 0.10167 0.0
H5892 H 0.76625 0.39225 0.10109 0.0
H5893 H 0.76486 0.38446 0.09287 0.0
H5894 H 0.76174 0.39296 0.11312 0.0
H5895 H 0.76026 0.40469 0.09414 0.0
H5896 H 0.75545 0.40794 0.08424 0.0
H5897 H 0.73914 0.41409 0.09405 0.0
H5898 H 0.74382 0.41079 0.104 0.0
H5899 H 0.77136 0.42044 0.12902 0.0
H5900 H 0.76974 0.41201 0.12153 0.0
H5901 H 0.75005 0.41597 0.12126 0.0
H5902 H 0.75163 0.42441 0.12875 0.0
H5903 H 0.75437 0.4146 0.10976 0.0
H5904 H 0.75584 0.40311 0.12877 0.0
H5905 H 0.76053 0.39981 0.1387 0.0
H5906 H 0.77669 0.39316 0.12898 0.0
H5907 H 0.77213 0.3965 0.11899 0.0
C5908 C 0.74964 0.38844 0.09507 0.0
C5909 C 0.75481 0.38539 0.09246 0.0
C5910 C 0.75044 0.39287 0.09978 0.0
C5911 C 0.75643 0.39434 0.10195 0.0
C5912 C 0.76159 0.3912 0.09947 0.0
C5913 C 0.7608 0.38678 0.09474 0.0
C5914 C 0.75732 0.39927 0.10672 0.0
C5915 C 0.7602 0.39771 0.11237 0.0
C5916 C 0.75517 0.40543 0.10578 0.0
C5917 C 0.75236 0.40744 0.09981 0.0
C5918 C 0.75562 0.40669 0.09418 0.0
C5919 C 0.75293 0.40855 0.08856 0.0
C5920 C 0.74699 0.4112 0.08851 0.0
C5921 C 0.74374 0.41202 0.09409 0.0
C5922 C 0.74641 0.41017 0.09972 0.0
C5923 C 0.76667 0.41946 0.12743 0.0
C5924 C 0.76162 0.4231 0.12948 0.0
C5925 C 0.76575 0.41464 0.12314 0.0
C5926 C 0.75976 0.41332 0.12087 0.0
C5927 C 0.75471 0.41692 0.12293 0.0
C5928 C 0.75562 0.42175 0.1272 0.0
C5929 C 0.75879 0.40831 0.11619 0.0
C5930 C 0.7559 0.40985 0.11054 0.0
C5931 C 0.76091 0.40214 0.11714 0.0
C5932 C 0.76367 0.40011 0.12314 0.0
C5933 C 0.76041 0.40099 0.12876 0.0
C5934 C 0.76305 0.3991 0.1344 0.0
C5935 C 0.76891 0.39629 0.13447 0.0
C5936 C 0.77215 0.39534 0.12891 0.0
C5937 C 0.76954 0.39723 0.12326 0.0
H5938 H 0.77094 0.39483 0.13884 0.0
H5939 H 0.74491 0.41264 0.08416 0.0
H5940 H 0.58665 0.76285 0.12078 0.0
H5941 H 0.59499 0.76118 0.11323 0.0
H5942 H 0.60828 0.75951 0.12817 0.0
H5943 H 0.59993 0.76113 0.13578 0.0
H5944 H 0.61275 0.76673 0.11882 0.0
H5945 H 0.60323 0.74665 0.12064 0.0
H5946 H 0.59455 0.73911 0.12074 0.0
H5947 H 0.59026 0.74365 0.10176 0.0
H5948 H 0.59886 0.75128 0.10158 0.0
H5949 H 0.63691 0.75461 0.09943 0.0
H5950 H 0.62913 0.75602 0.10764 0.0
H5951 H 0.61466 0.75727 0.09377 0.0
H5952 H 0.62236 0.75561 0.08557 0.0
H5953 H 0.61111 0.74992 0.10304 0.0
H5954 H 0.6204 0.77029 0.10135 0.0
H5955 H 0.62903 0.77788 0.10128 0.0
H5956 H 0.63378 0.7728 0.12001 0.0
H5957 H 0.62521 0.76512 0.12016 0.0
C5958 C 0.59133 0.76206 0.12247 0.0
C5959 C 0.59261 0.76207 0.12889 0.0
C5960 C 0.5961 0.76113 0.11815 0.0
C5961 C 0.60224 0.76014 0.12014 0.0
C5962 C 0.60357 0.76026 0.12654 0.0
C5963 C 0.5988 0.7612 0.13087 0.0
C5964 C 0.60727 0.75899 0.11553 0.0
C5965 C 0.61244 0.763 0.11543 0.0
C5966 C 0.60681 0.75419 0.11103 0.0
C5967 C 0.60166 0.74958 0.11112 0.0
C5968 C 0.60041 0.74607 0.1165 0.0
C5969 C 0.59551 0.74178 0.11657 0.0
C5970 C 0.59185 0.74091 0.11126 0.0
C5971 C 0.5931 0.74433 0.10587 0.0
C5972 C 0.59799 0.74863 0.10578 0.0
C5973 C 0.63207 0.75514 0.09813 0.0
C5974 C 0.63027 0.75502 0.09183 0.0
C5975 C 0.62763 0.75601 0.10283 0.0
C5976 C 0.62132 0.75682 0.10132 0.0
C5977 C 0.61951 0.75667 0.09505 0.0
C5978 C 0.62393 0.75579 0.09036 0.0
C5979 C 0.61656 0.75772 0.10627 0.0
C5980 C 0.61144 0.75365 0.10644 0.0
C5981 C 0.61707 0.76246 0.11083 0.0
C5982 C 0.62221 0.76708 0.11075 0.0
C5983 C 0.62331 0.77076 0.10544 0.0
C5984 C 0.62819 0.77508 0.10539 0.0
C5985 C 0.63196 0.77581 0.11063 0.0
C5986 C 0.63086 0.77223 0.11595 0.0
C5987 C 0.62599 0.76789 0.11602 0.0
H5988 H 0.63573 0.77916 0.11059 0.0
H5989 H 0.58806 0.73758 0.11133 0.0
H5990 H 0.24465 0.59613 0.12996 0.0
H5991 H 0.246 0.60461 0.12249 0.0
H5992 H 0.26559 0.60036 0.1211 0.0
H5993 H 0.26431 0.59198 0.12871 0.0
H5994 H 0.26356 0.61287 0.12171 0.0
H5995 H 0.25553 0.59545 0.11001 0.0
H5996 H 0.24807 0.58703 0.10765 0.0
H5997 H 0.23339 0.60046 0.10567 0.0
H5998 H 0.24076 0.60896 0.1081 0.0
H5999 H 0.2709 0.62817 0.09341 0.0
H6000 H 0.26926 0.62067 0.1018 0.0
H6001 H 0.24957 0.62472 0.10165 0.0
H6002 H 0.25118 0.63219 0.0932 0.0
H6003 H 0.25134 0.61261 0.10212 0.0
H6004 H 0.25933 0.6301 0.11338 0.0
H6005 H 0.2667 0.63858 0.11581 0.0
H6006 H 0.28127 0.62522 0.11875 0.0
H6007 H 0.27401 0.61666 0.11625 0.0
C6008 C 0.24926 0.59705 0.12813 0.0
C6009 C 0.25437 0.59335 0.12991 0.0
C6010 C 0.25001 0.60186 0.12382 0.0
C6011 C 0.25588 0.60307 0.12118 0.0
C6012 C 0.26101 0.5995 0.12306 0.0
C6013 C 0.26026 0.59468 0.12737 0.0
C6014 C 0.25664 0.60796 0.11635 0.0
C6015 C 0.26094 0.61278 0.11739 0.0
C6016 C 0.2531 0.60793 0.1108 0.0
C6017 C 0.24868 0.60283 0.1093 0.0
C6018 C 0.2507 0.5966 0.10912 0.0
C6019 C 0.24649 0.59182 0.10776 0.0
C6020 C 0.24026 0.59321 0.10653 0.0
C6021 C 0.23822 0.59939 0.10663 0.0
C6022 C 0.24241 0.60419 0.108 0.0
C6023 C 0.26623 0.62752 0.09522 0.0
C6024 C 0.26117 0.63079 0.09265 0.0
C6025 C 0.2653 0.62323 0.10002 0.0
C6026 C 0.2593 0.62218 0.10242 0.0
C6027 C 0.25424 0.62544 0.09988 0.0
C6028 C 0.25516 0.6297 0.09504 0.0
C6029 C 0.25828 0.61753 0.10745 0.0
C6030 C 0.25394 0.61273 0.10645 0.0
C6031 C 0.26177 0.6176 0.11305 0.0
C6032 C 0.26614 0.62274 0.11457 0.0
C6033 C 0.26412 0.62897 0.1145 0.0
C6034 C 0.26827 0.63379 0.11589 0.0
C6035 C 0.27445 0.63244 0.11742 0.0
C6036 C 0.27649 0.62626 0.11756 0.0
C6037 C 0.27235 0.62142 0.11616 0.0
H6038 H 0.27766 0.63618 0.1185 0.0
H6039 H 0.237 0.5895 0.10548 0.0
H6040 H 0.41552 0.25382 0.13648 0.0
H6041 H 0.40711 0.25518 0.12893 0.0
H6042 H 0.42064 0.25724 0.11423 0.0
H6043 H 0.42906 0.25581 0.12172 0.0
H6044 H 0.41165 0.26605 0.11352 0.0
H6045 H 0.4126 0.24374 0.11605 0.0
H6046 H 0.41247 0.23391 0.12199 0.0
H6047 H 0.39404 0.23803 0.1286 0.0
H6048 H 0.3941 0.24793 0.12276 0.0
H6049 H 0.39342 0.26193 0.08667 0.0
H6050 H 0.40101 0.26064 0.09501 0.0
H6051 H 0.38609 0.25848 0.1083 0.0
H6052 H 0.37844 0.25956 0.09991 0.0
H6053 H 0.39524 0.25006 0.11029 0.0
H6054 H 0.394 0.27208 0.10744 0.0
H6055 H 0.39405 0.28194 0.10156 0.0
H6056 H 0.41289 0.27852 0.09575 0.0
H6057 H 0.41292 0.26859 0.10152 0.0
C6058 C 0.41671 0.2545 0.13163 0.0
C6059 C 0.42297 0.2547 0.12971 0.0
C6060 C 0.41189 0.25529 0.12732 0.0
C6061 C 0.41324 0.25627 0.121 0.0
C6062 C 0.41949 0.25652 0.11908 0.0
C6063 C 0.4243 0.25572 0.12338 0.0
C6064 C 0.40818 0.25708 0.11638 0.0
C6065 C 0.4081 0.26252 0.11277 0.0
C6066 C 0.40344 0.25256 0.11553 0.0
C6067 C 0.40338 0.24661 0.11902 0.0
C6068 C 0.40854 0.24257 0.11881 0.0
C6069 C 0.40847 0.23699 0.12215 0.0
C6070 C 0.40325 0.23536 0.12568 0.0
C6071 C 0.39808 0.2393 0.12587 0.0
C6072 C 0.39813 0.2449 0.12254 0.0
C6073 C 0.39174 0.26111 0.09135 0.0
C6074 C 0.38531 0.26085 0.09262 0.0
C6075 C 0.39609 0.26044 0.09613 0.0
C6076 C 0.39412 0.25955 0.10229 0.0
C6077 C 0.38772 0.25919 0.10358 0.0
C6078 C 0.38335 0.25986 0.09879 0.0
C6079 C 0.39877 0.25899 0.10737 0.0
C6080 C 0.39877 0.25361 0.11107 0.0
C6081 C 0.40343 0.26357 0.10833 0.0
C6082 C 0.40344 0.26956 0.10487 0.0
C6083 C 0.39814 0.2734 0.10487 0.0
C6084 C 0.39815 0.27901 0.10156 0.0
C6085 C 0.40346 0.28085 0.09828 0.0
C6086 C 0.40877 0.27709 0.0983 0.0
C6087 C 0.40878 0.27147 0.10159 0.0
H6088 H 0.40347 0.2852 0.09572 0.0
H6089 H 0.40321 0.23103 0.12827 0.0
H6090 H 0.26479 0.42328 0.8854 0.0
H6091 H 0.26603 0.41485 0.89295 0.0
H6092 H 0.24615 0.41189 0.89301 0.0
H6093 H 0.24486 0.42043 0.88558 0.0
H6094 H 0.25077 0.41224 0.90466 0.0
H6095 H 0.25578 0.40174 0.88563 0.0
H6096 H 0.26126 0.40014 0.87567 0.0
H6097 H 0.27876 0.39925 0.88529 0.0
H6098 H 0.27339 0.40092 0.89531 0.0
H6099 H 0.25139 0.3842 0.92204 0.0
H6100 H 0.24981 0.39176 0.91367 0.0
H6101 H 0.26965 0.39483 0.91263 0.0
H6102 H 0.27126 0.38724 0.92096 0.0
H6103 H 0.26479 0.3942 0.90125 0.0
H6104 H 0.25993 0.40513 0.92017 0.0
H6105 H 0.25456 0.40683 0.93018 0.0
H6106 H 0.2369 0.40706 0.9208 0.0
H6107 H 0.24217 0.40528 0.91075 0.0
C6108 C 0.26068 0.42085 0.88703 0.0
C6109 C 0.25473 0.42253 0.88489 0.0
C6110 C 0.2614 0.41599 0.8913 0.0
C6111 C 0.25619 0.4127 0.8935 0.0
C6112 C 0.25024 0.41435 0.89136 0.0
C6113 C 0.24952 0.4192 0.88708 0.0
C6114 C 0.25692 0.40768 0.89819 0.0
C6115 C 0.25375 0.40824 0.90388 0.0
C6116 C 0.26094 0.40254 0.89723 0.0
C6117 C 0.26418 0.40152 0.89121 0.0
C6118 C 0.2608 0.40125 0.88561 0.0
C6119 C 0.26388 0.40032 0.87996 0.0
C6120 C 0.27035 0.39961 0.87984 0.0
C6121 C 0.27375 0.39981 0.88539 0.0
C6122 C 0.27068 0.40074 0.89105 0.0
C6123 C 0.25541 0.3865 0.92004 0.0
C6124 C 0.26145 0.38515 0.92219 0.0
C6125 C 0.25451 0.39082 0.91526 0.0
C6126 C 0.2596 0.39393 0.91258 0.0
C6127 C 0.26564 0.39249 0.91462 0.0
C6128 C 0.26656 0.38814 0.91938 0.0
C6129 C 0.25865 0.39877 0.90773 0.0
C6130 C 0.26178 0.39818 0.90203 0.0
C6131 C 0.25461 0.4039 0.90868 0.0
C6132 C 0.25144 0.40501 0.91472 0.0
C6133 C 0.2549 0.4055 0.92025 0.0
C6134 C 0.25187 0.40648 0.92593 0.0
C6135 C 0.24539 0.40704 0.92613 0.0
C6136 C 0.24192 0.40662 0.92064 0.0
C6137 C 0.24492 0.40563 0.91495 0.0
H6138 H 0.24306 0.4078 0.93053 0.0
H6139 H 0.27273 0.39889 0.87546 0.0
H6140 H 0.60018 0.25638 0.87867 0.0
H6141 H 0.60855 0.25777 0.88628 0.0
H6142 H 0.59535 0.25531 0.90123 0.0
H6143 H 0.58698 0.25392 0.89367 0.0
H6144 H 0.6028 0.26505 0.90343 0.0
H6145 H 0.60552 0.2437 0.89699 0.0
H6146 H 0.6071 0.23521 0.8894 0.0
H6147 H 0.62432 0.24355 0.88352 0.0
H6148 H 0.6228 0.25213 0.89102 0.0
H6149 H 0.62269 0.26012 0.92892 0.0
H6150 H 0.61505 0.2587 0.92065 0.0
H6151 H 0.62944 0.26129 0.90687 0.0
H6152 H 0.63718 0.26247 0.91514 0.0
H6153 H 0.62179 0.25189 0.90364 0.0
H6154 H 0.61933 0.27302 0.91028 0.0
H6155 H 0.61782 0.28156 0.91781 0.0
H6156 H 0.60017 0.2738 0.9232 0.0
H6157 H 0.60162 0.26516 0.91576 0.0
C6158 C 0.59907 0.25608 0.88358 0.0
C6159 C 0.59291 0.25505 0.88556 0.0
C6160 C 0.60386 0.25688 0.88792 0.0
C6161 C 0.60259 0.2566 0.89433 0.0
C6162 C 0.59644 0.25557 0.89631 0.0
C6163 C 0.59166 0.2548 0.89198 0.0
C6164 C 0.60762 0.25745 0.899 0.0
C6165 C 0.60692 0.26213 0.90352 0.0
C6166 C 0.61309 0.25376 0.899 0.0
C6167 C 0.61402 0.24859 0.89451 0.0
C6168 C 0.60962 0.24375 0.89404 0.0
C6169 C 0.61051 0.23892 0.88976 0.0
C6170 C 0.6158 0.23885 0.88597 0.0
C6171 C 0.62022 0.24361 0.88646 0.0
C6172 C 0.61935 0.24846 0.89072 0.0
C6173 C 0.62426 0.2603 0.92414 0.0
C6174 C 0.63056 0.26142 0.92271 0.0
C6175 C 0.61987 0.25956 0.91941 0.0
C6176 C 0.62165 0.25999 0.91313 0.0
C6177 C 0.62795 0.26098 0.91167 0.0
C6178 C 0.63236 0.2617 0.91641 0.0
C6179 C 0.61692 0.25943 0.90812 0.0
C6180 C 0.61768 0.25483 0.90353 0.0
C6181 C 0.61151 0.26321 0.90803 0.0
C6182 C 0.61061 0.26841 0.91249 0.0
C6183 C 0.61515 0.27311 0.9131 0.0
C6184 C 0.6143 0.27797 0.91735 0.0
C6185 C 0.60891 0.27821 0.92099 0.0
C6186 C 0.60435 0.2736 0.92038 0.0
C6187 C 0.60518 0.26873 0.91614 0.0
H6188 H 0.60826 0.28198 0.92428 0.0
H6189 H 0.61648 0.23511 0.88266 0.0
H6190 H 0.41797 0.75583 0.88029 0.0
H6191 H 0.40958 0.75441 0.88789 0.0
H6192 H 0.41798 0.76832 0.89973 0.0
H6193 H 0.42641 0.76968 0.89221 0.0
H6194 H 0.41475 0.7587 0.9064 0.0
H6195 H 0.40459 0.77117 0.8909 0.0
H6196 H 0.40101 0.77392 0.88035 0.0
H6197 H 0.39024 0.75707 0.8795 0.0
H6198 H 0.39382 0.75418 0.89001 0.0
H6199 H 0.38964 0.76405 0.92696 0.0
H6200 H 0.39729 0.76548 0.91868 0.0
H6201 H 0.38963 0.74975 0.90881 0.0
H6202 H 0.38202 0.74817 0.91715 0.0
H6203 H 0.3923 0.75994 0.90105 0.0
H6204 H 0.40247 0.74767 0.91672 0.0
H6205 H 0.40595 0.74519 0.92736 0.0
H6206 H 0.41668 0.76208 0.92791 0.0
H6207 H 0.41318 0.76471 0.9173 0.0
C6208 C 0.41799 0.75862 0.88449 0.0
C6209 C 0.42285 0.76286 0.88566 0.0
C6210 C 0.41319 0.75782 0.88883 0.0
C6211 C 0.41311 0.7613 0.89437 0.0
C6212 C 0.41794 0.76556 0.89551 0.0
C6213 C 0.42277 0.76633 0.89121 0.0
C6214 C 0.4081 0.7604 0.89907 0.0
C6215 C 0.40984 0.75906 0.90523 0.0
C6216 C 0.40169 0.7607 0.89754 0.0
C6217 C 0.39952 0.76243 0.89122 0.0
C6218 C 0.4015 0.76803 0.88844 0.0
C6219 C 0.39946 0.76962 0.88247 0.0
C6220 C 0.39542 0.76566 0.87925 0.0
C6221 C 0.39339 0.76012 0.88199 0.0
C6222 C 0.39541 0.75851 0.88796 0.0
C6223 C 0.38959 0.76086 0.92306 0.0
C6224 C 0.38524 0.75595 0.92277 0.0
C6225 C 0.39395 0.76171 0.91831 0.0
C6226 C 0.39407 0.75768 0.91316 0.0
C6227 C 0.38961 0.75291 0.91274 0.0
C6228 C 0.38526 0.75203 0.91751 0.0
C6229 C 0.39897 0.75834 0.90834 0.0
C6230 C 0.39721 0.7596 0.90218 0.0
C6231 C 0.40537 0.75801 0.90987 0.0
C6232 C 0.40751 0.75641 0.91624 0.0
C6233 C 0.40553 0.75088 0.91913 0.0
C6234 C 0.40751 0.74944 0.92515 0.0
C6235 C 0.41152 0.75348 0.92832 0.0
C6236 C 0.41357 0.75896 0.92546 0.0
C6237 C 0.41159 0.76042 0.91943 0.0
H6238 H 0.41305 0.75236 0.93298 0.0
H6239 H 0.39385 0.7669 0.87463 0.0
H6240 H 0.08907 0.30014 0.33559 0.0
H6241 H 0.0894 0.30779 0.3272 0.0
H6242 H 0.07567 0.29723 0.31701 0.0
H6243 H 0.07549 0.28941 0.32529 0.0
H6244 H 0.0846 0.30154 0.30934 0.0
H6245 H 0.07148 0.31009 0.32525 0.0
H6246 H 0.06871 0.3134 0.33589 0.0
H6247 H 0.08383 0.32651 0.33587 0.0
H6248 H 0.08675 0.32321 0.32526 0.0
H6249 H 0.07535 0.32597 0.28882 0.0
H6250 H 0.07569 0.31764 0.29657 0.0
H6251 H 0.0893 0.32801 0.30711 0.0
H6252 H 0.08881 0.33645 0.29952 0.0
H6253 H 0.08036 0.32367 0.31451 0.0
H6254 H 0.09336 0.31512 0.2984 0.0
H6255 H 0.09594 0.31178 0.28772 0.0
H6256 H 0.08079 0.29869 0.28803 0.0
H6257 H 0.07807 0.30201 0.29868 0.0
C6258 C 0.08619 0.29938 0.33153 0.0
C6259 C 0.08223 0.29417 0.33113 0.0
C6260 C 0.08634 0.3038 0.32676 0.0
C6261 C 0.08248 0.30314 0.32152 0.0
C6262 C 0.07866 0.29785 0.32102 0.0
C6263 C 0.07852 0.29342 0.32579 0.0
C6264 C 0.08234 0.30804 0.31665 0.0
C6265 C 0.0836 0.30637 0.31045 0.0
C6266 C 0.08113 0.31435 0.31811 0.0
C6267 C 0.07937 0.31636 0.32448 0.0
C6268 C 0.07424 0.31364 0.32754 0.0
C6269 C 0.07264 0.31552 0.33356 0.0
C6270 C 0.0761 0.32015 0.33656 0.0
C6271 C 0.08116 0.32292 0.33354 0.0
C6272 C 0.08279 0.32105 0.32752 0.0
C6273 C 0.0784 0.32649 0.2928 0.0
C6274 C 0.08206 0.33189 0.29354 0.0
C6275 C 0.07864 0.32169 0.29719 0.0
C6276 C 0.08257 0.32217 0.30239 0.0
C6277 C 0.08625 0.32753 0.30313 0.0
C6278 C 0.08601 0.33233 0.29875 0.0
C6279 C 0.08268 0.3172 0.3072 0.0
C6280 C 0.08138 0.31885 0.31339 0.0
C6281 C 0.08383 0.31087 0.30572 0.0
C6282 C 0.08547 0.30886 0.29932 0.0
C6283 C 0.09055 0.31156 0.29617 0.0
C6284 C 0.09204 0.30967 0.29013 0.0
C6285 C 0.08852 0.30504 0.28719 0.0
C6286 C 0.08351 0.30228 0.29031 0.0
C6287 C 0.08199 0.30417 0.29635 0.0
H6288 H 0.08969 0.30358 0.28251 0.0
H6289 H 0.07485 0.32159 0.34122 0.0
H6290 H 0.67881 0.08842 0.30106 0.0
H6291 H 0.68744 0.08891 0.30844 0.0
H6292 H 0.69853 0.07735 0.29631 0.0
H6293 H 0.68992 0.07688 0.28887 0.0
H6294 H 0.69911 0.07334 0.30812 0.0
H6295 H 0.70159 0.09283 0.29769 0.0
H6296 H 0.69832 0.103 0.29351 0.0
H6297 H 0.69364 0.10922 0.31192 0.0
H6298 H 0.69681 0.09905 0.31621 0.0
H6299 H 0.72705 0.07747 0.32538 0.0
H6300 H 0.71944 0.07773 0.31692 0.0
H6301 H 0.70719 0.08895 0.32822 0.0
H6302 H 0.71475 0.08867 0.33672 0.0
H6303 H 0.70769 0.09319 0.31633 0.0
H6304 H 0.70469 0.07347 0.32662 0.0
H6305 H 0.70796 0.06328 0.33077 0.0
H6306 H 0.71365 0.05751 0.31249 0.0
H6307 H 0.71049 0.06771 0.30824 0.0
C6308 C 0.68311 0.08606 0.29991 0.0
C6309 C 0.68368 0.08263 0.29436 0.0
C6310 C 0.68804 0.08634 0.30414 0.0
C6311 C 0.69366 0.08322 0.3029 0.0
C6312 C 0.69424 0.07979 0.29737 0.0
C6313 C 0.68931 0.07951 0.29313 0.0
C6314 C 0.69882 0.08336 0.30749 0.0
C6315 C 0.70106 0.07768 0.30984 0.0
C6316 C 0.70128 0.08902 0.30982 0.0
C6317 C 0.69939 0.09515 0.30726 0.0
C6318 C 0.69982 0.09635 0.30084 0.0
C6319 C 0.69799 0.10212 0.29845 0.0
C6320 C 0.69576 0.10675 0.30244 0.0
C6321 C 0.69537 0.10563 0.30884 0.0
C6322 C 0.69718 0.09986 0.31125 0.0
C6323 C 0.72273 0.07997 0.32608 0.0
C6324 C 0.72149 0.08302 0.33174 0.0
C6325 C 0.71839 0.08013 0.32123 0.0
C6326 C 0.71272 0.0833 0.32197 0.0
C6327 C 0.71155 0.08649 0.32755 0.0
C6328 C 0.71588 0.08634 0.3324 0.0
C6329 C 0.70793 0.08318 0.31699 0.0
C6330 C 0.70576 0.08885 0.31458 0.0
C6331 C 0.70554 0.07752 0.31459 0.0
C6332 C 0.70742 0.07138 0.31713 0.0
C6333 C 0.70668 0.07004 0.32349 0.0
C6334 C 0.70851 0.06426 0.32586 0.0
C6335 C 0.71103 0.05976 0.3219 0.0
C6336 C 0.71171 0.06101 0.31556 0.0
C6337 C 0.7099 0.06679 0.31317 0.0
H6338 H 0.71244 0.05528 0.32374 0.0
H6339 H 0.69435 0.11122 0.30058 0.0
H6340 H 0.92894 0.71576 0.33542 0.0
H6341 H 0.9289 0.70804 0.32706 0.0
H6342 H 0.93832 0.72104 0.31498 0.0
H6343 H 0.93826 0.72886 0.3233 0.0
H6344 H 0.92891 0.71478 0.30894 0.0
H6345 H 0.94648 0.70974 0.32159 0.0
H6346 H 0.95208 0.70743 0.33133 0.0
H6347 H 0.94059 0.6913 0.33423 0.0
H6348 H 0.93485 0.69356 0.32455 0.0
H6349 H 0.93812 0.69175 0.28663 0.0
H6350 H 0.93807 0.70017 0.29433 0.0
H6351 H 0.92894 0.68805 0.3075 0.0
H6352 H 0.92911 0.67958 0.29989 0.0
H6353 H 0.93862 0.69416 0.31273 0.0
H6354 H 0.92091 0.69944 0.30007 0.0
H6355 H 0.91543 0.70182 0.29027 0.0
H6356 H 0.92743 0.71756 0.28728 0.0
H6357 H 0.93303 0.71523 0.29702 0.0
C6358 C 0.93092 0.71701 0.33096 0.0
C6359 C 0.93361 0.72292 0.33003 0.0
C6360 C 0.93095 0.71258 0.3262 0.0
C6361 C 0.93367 0.71394 0.32042 0.0
C6362 C 0.93622 0.71989 0.31941 0.0
C6363 C 0.93622 0.72432 0.32418 0.0
C6364 C 0.93395 0.70911 0.31549 0.0
C6365 C 0.93111 0.7103 0.30973 0.0
C6366 C 0.93675 0.70324 0.31656 0.0
C6367 C 0.9402 0.70186 0.32238 0.0
C6368 C 0.94511 0.70573 0.32433 0.0
C6369 C 0.94832 0.70442 0.32984 0.0
C6370 C 0.94669 0.69923 0.33341 0.0
C6371 C 0.94185 0.69533 0.33147 0.0
C6372 C 0.93862 0.69661 0.32597 0.0
C6373 C 0.93611 0.69088 0.29117 0.0
C6374 C 0.93361 0.685 0.29264 0.0
C6375 C 0.93604 0.69571 0.29555 0.0
C6376 C 0.93345 0.69475 0.30147 0.0
C6377 C 0.93094 0.68889 0.30295 0.0
C6378 C 0.931 0.68408 0.29858 0.0
C6379 C 0.93349 0.69979 0.30621 0.0
C6380 C 0.93643 0.69864 0.31193 0.0
C6381 C 0.9308 0.7057 0.30509 0.0
C6382 C 0.92743 0.70712 0.29924 0.0
C6383 C 0.92241 0.70338 0.29729 0.0
C6384 C 0.91928 0.70473 0.29176 0.0
C6385 C 0.92109 0.70983 0.28815 0.0
C6386 C 0.92603 0.71361 0.29008 0.0
C6387 C 0.92919 0.71228 0.29561 0.0
H6388 H 0.91866 0.71087 0.28386 0.0
H6389 H 0.94918 0.69823 0.33767 0.0
H6390 H 0.33563 0.92659 0.29929 0.0
H6391 H 0.32706 0.92639 0.30677 0.0
H6392 H 0.31704 0.93984 0.29575 0.0
H6393 H 0.32557 0.94002 0.2882 0.0
H6394 H 0.31713 0.94305 0.30785 0.0
H6395 H 0.31238 0.92476 0.2961 0.0
H6396 H 0.31446 0.91463 0.29111 0.0
H6397 H 0.3187 0.90661 0.30891 0.0
H6398 H 0.31674 0.91672 0.314 0.0
H6399 H 0.28911 0.94066 0.32535 0.0
H6400 H 0.29657 0.94022 0.31675 0.0
H6401 H 0.30769 0.92702 0.327 0.0
H6402 H 0.3003 0.92748 0.33564 0.0
H6403 H 0.30657 0.92369 0.31482 0.0
H6404 H 0.31184 0.94217 0.32643 0.0
H6405 H 0.30977 0.95232 0.33139 0.0
H6406 H 0.30449 0.96 0.31372 0.0
H6407 H 0.30645 0.94986 0.30867 0.0
C6408 C 0.33156 0.92943 0.2984 0.0
C6409 C 0.33129 0.93332 0.29314 0.0
C6410 C 0.32667 0.92931 0.30269 0.0
C6411 C 0.32139 0.93306 0.3018 0.0
C6412 C 0.32108 0.93692 0.29653 0.0
C6413 C 0.32597 0.93703 0.29224 0.0
C6414 C 0.31631 0.93314 0.30649 0.0
C6415 C 0.31474 0.93883 0.3093 0.0
C6416 C 0.31329 0.92762 0.30847 0.0
C6417 C 0.31447 0.92152 0.30543 0.0
C6418 C 0.31381 0.92085 0.29895 0.0
C6419 C 0.31495 0.91511 0.2961 0.0
C6420 C 0.31672 0.90998 0.29969 0.0
C6421 C 0.31734 0.91058 0.30613 0.0
C6422 C 0.3162 0.91632 0.309 0.0
C6423 C 0.29316 0.93768 0.32579 0.0
C6424 C 0.29412 0.93413 0.3312 0.0
C6425 C 0.29741 0.93742 0.32086 0.0
C6426 C 0.30272 0.93363 0.32126 0.0
C6427 C 0.30361 0.92996 0.32658 0.0
C6428 C 0.29937 0.93022 0.33152 0.0
C6429 C 0.30742 0.9336 0.3162 0.0
C6430 C 0.30893 0.92791 0.31333 0.0
C6431 C 0.31038 0.93913 0.31416 0.0
C6432 C 0.30923 0.94524 0.31718 0.0
C6433 C 0.31019 0.94601 0.32361 0.0
C6434 C 0.30904 0.95176 0.32644 0.0
C6435 C 0.30698 0.9568 0.32288 0.0
C6436 C 0.30608 0.95609 0.31648 0.0
C6437 C 0.30721 0.95034 0.31363 0.0
H6438 H 0.3061 0.96125 0.32508 0.0
H6439 H 0.31761 0.90554 0.29747 0.0
H6440 H 0.07222 0.71673 0.68043 0.0
H6441 H 0.07235 0.70926 0.68899 0.0
H6442 H 0.08868 0.7182 0.69657 0.0
H6443 H 0.08859 0.7257 0.68798 0.0
H6444 H 0.08998 0.70586 0.69666 0.0
H6445 H 0.0743 0.7202 0.70329 0.0
H6446 H 0.0648 0.72656 0.70233 0.0
H6447 H 0.05386 0.71002 0.69964 0.0
H6448 H 0.06331 0.70356 0.7005 0.0
H6449 H 0.08847 0.68865 0.72501 0.0
H6450 H 0.08863 0.6972 0.71748 0.0
H6451 H 0.07237 0.68955 0.70848 0.0
H6452 H 0.07217 0.68102 0.716 0.0
H6453 H 0.07132 0.70187 0.70971 0.0
H6454 H 0.08713 0.68764 0.70241 0.0
H6455 H 0.09665 0.68129 0.70335 0.0
H6456 H 0.10735 0.69773 0.70736 0.0
H6457 H 0.09787 0.70417 0.70652 0.0
C6458 C 0.0758 0.71716 0.68396 0.0
C6459 C 0.08038 0.72183 0.68355 0.0
C6460 C 0.07587 0.71288 0.68885 0.0
C6461 C 0.08047 0.71322 0.69348 0.0
C6462 C 0.08508 0.71786 0.69306 0.0
C6463 C 0.08503 0.72213 0.68815 0.0
C6464 C 0.08055 0.70864 0.69866 0.0
C6465 C 0.08594 0.70506 0.69959 0.0
C6466 C 0.07523 0.70752 0.7024 0.0
C6467 C 0.06953 0.7114 0.70191 0.0
C6468 C 0.06988 0.71792 0.70245 0.0
C6469 C 0.0645 0.72155 0.70193 0.0
C6470 C 0.05873 0.7187 0.70091 0.0
C6471 C 0.05833 0.71222 0.70042 0.0
C6472 C 0.0637 0.70857 0.70094 0.0
C6473 C 0.08495 0.68878 0.72141 0.0
C6474 C 0.08032 0.68415 0.72109 0.0
C6475 C 0.08505 0.69367 0.71711 0.0
C6476 C 0.08055 0.69398 0.71237 0.0
C6477 C 0.07588 0.68941 0.7121 0.0
C6478 C 0.07576 0.68455 0.71641 0.0
C6479 C 0.08072 0.69903 0.70765 0.0
C6480 C 0.07538 0.7027 0.70681 0.0
C6481 C 0.08608 0.70024 0.70399 0.0
C6482 C 0.09178 0.69638 0.70446 0.0
C6483 C 0.0915 0.68989 0.70353 0.0
C6484 C 0.09689 0.68628 0.70404 0.0
C6485 C 0.10259 0.6891 0.70543 0.0
C6486 C 0.10292 0.69555 0.70629 0.0
C6487 C 0.09755 0.69918 0.7058 0.0
H6488 H 0.10676 0.68629 0.70582 0.0
H6489 H 0.05457 0.72151 0.70051 0.0
H6490 H 0.28982 0.07533 0.68923 0.0
H6491 H 0.2976 0.07558 0.69753 0.0
H6492 H 0.30841 0.08891 0.68707 0.0
H6493 H 0.30077 0.08852 0.67866 0.0
H6494 H 0.31565 0.07987 0.69149 0.0
H6495 H 0.29975 0.09326 0.69986 0.0
H6496 H 0.2891 0.09605 0.70315 0.0
H6497 H 0.28913 0.08107 0.71638 0.0
H6498 H 0.29975 0.07814 0.71312 0.0
H6499 H 0.33686 0.08872 0.71488 0.0
H6500 H 0.32849 0.08898 0.70721 0.0
H6501 H 0.31807 0.0756 0.71799 0.0
H6502 H 0.32633 0.07549 0.72582 0.0
H6503 H 0.31054 0.08454 0.71353 0.0
H6504 H 0.32626 0.07106 0.70521 0.0
H6505 H 0.33686 0.06807 0.70196 0.0
H6506 H 0.33709 0.08296 0.68862 0.0
H6507 H 0.32651 0.08609 0.69185 0.0
C6508 C 0.29386 0.0783 0.68869 0.0
C6509 C 0.29466 0.08191 0.68328 0.0
C6510 C 0.29828 0.07848 0.69346 0.0
C6511 C 0.30356 0.08232 0.69295 0.0
C6512 C 0.30436 0.08594 0.68757 0.0
C6513 C 0.29996 0.08575 0.68279 0.0
C6514 C 0.30837 0.0824 0.69792 0.0
C6515 C 0.31454 0.08098 0.69629 0.0
C6516 C 0.3069 0.08367 0.70422 0.0
C6517 C 0.30052 0.08544 0.7062 0.0
C6518 C 0.29747 0.09053 0.70344 0.0
C6519 C 0.29144 0.09215 0.70531 0.0
C6520 C 0.28843 0.08873 0.70996 0.0
C6521 C 0.29146 0.08371 0.71277 0.0
C6522 C 0.29748 0.08207 0.71092 0.0
C6523 C 0.33275 0.08591 0.71568 0.0
C6524 C 0.33229 0.08206 0.72096 0.0
C6525 C 0.32799 0.08601 0.71125 0.0
C6526 C 0.3227 0.08223 0.71197 0.0
C6527 C 0.32213 0.07852 0.71732 0.0
C6528 C 0.32688 0.07843 0.72176 0.0
C6529 C 0.31781 0.08206 0.70708 0.0
C6530 C 0.31164 0.08344 0.70872 0.0
C6531 C 0.31927 0.08073 0.70079 0.0
C6532 C 0.32562 0.07884 0.69882 0.0
C6533 C 0.32859 0.07372 0.70162 0.0
C6534 C 0.33459 0.072 0.69977 0.0
C6535 C 0.33765 0.07533 0.69509 0.0
C6536 C 0.33471 0.08038 0.69224 0.0
C6537 C 0.32871 0.08213 0.69408 0.0
H6538 H 0.3423 0.07399 0.69367 0.0
H6539 H 0.28377 0.08999 0.7114 0.0
H6540 H 0.92749 0.33694 0.71501 0.0
H6541 H 0.92716 0.32839 0.70751 0.0
H6542 H 0.93822 0.31705 0.71983 0.0
H6543 H 0.93856 0.32559 0.72738 0.0
H6544 H 0.9426 0.31653 0.70818 0.0
H6545 H 0.9227 0.3142 0.71789 0.0
H6546 H 0.91242 0.31757 0.72175 0.0
H6547 H 0.90698 0.32254 0.70318 0.0
H6548 H 0.91726 0.31927 0.69922 0.0
H6549 H 0.93875 0.28883 0.69042 0.0
H6550 H 0.93834 0.29638 0.69895 0.0
H6551 H 0.92756 0.30883 0.68748 0.0
H6552 H 0.92797 0.30133 0.67893 0.0
H6553 H 0.92296 0.3083 0.69918 0.0
H6554 H 0.94308 0.31114 0.68962 0.0
H6555 H 0.95338 0.30779 0.68579 0.0
H6556 H 0.95839 0.30184 0.70419 0.0
H6557 H 0.94809 0.30509 0.70812 0.0
C6558 C 0.92977 0.3326 0.71617 0.0
C6559 C 0.93304 0.33195 0.7218 0.0
C6560 C 0.92958 0.32771 0.71187 0.0
C6561 C 0.93261 0.32206 0.71313 0.0
C6562 C 0.93586 0.32138 0.71876 0.0
C6563 C 0.93606 0.32627 0.72306 0.0
C6564 C 0.93258 0.31694 0.70847 0.0
C6565 C 0.9383 0.31466 0.7063 0.0
C6566 C 0.92697 0.31458 0.70591 0.0
C6567 C 0.92077 0.31654 0.70827 0.0
C6568 C 0.91933 0.31605 0.71464 0.0
C6569 C 0.9135 0.31794 0.71684 0.0
C6570 C 0.90906 0.32028 0.71271 0.0
C6571 C 0.91043 0.32073 0.70637 0.0
C6572 C 0.91625 0.31885 0.70414 0.0
C6573 C 0.93631 0.29319 0.68971 0.0
C6574 C 0.93341 0.29449 0.68398 0.0
C6575 C 0.93607 0.29749 0.69459 0.0
C6576 C 0.93298 0.3032 0.69383 0.0
C6577 C 0.92996 0.30445 0.68818 0.0
C6578 C 0.93019 0.30015 0.6833 0.0
C6579 C 0.93298 0.30793 0.69887 0.0
C6580 C 0.92725 0.31015 0.70111 0.0
C6581 C 0.93858 0.31023 0.7015 0.0
C6582 C 0.94479 0.3083 0.69915 0.0
C6583 C 0.94636 0.30908 0.69284 0.0
C6584 C 0.9522 0.3072 0.69066 0.0
C6585 C 0.95653 0.30459 0.69474 0.0
C6586 C 0.95503 0.30386 0.70103 0.0
C6587 C 0.94919 0.30572 0.70324 0.0
H6588 H 0.96105 0.30314 0.69304 0.0
H6589 H 0.90454 0.32174 0.71443 0.0
H6590 H 0.72761 0.93289 0.68958 0.0
H6591 H 0.71987 0.93308 0.69799 0.0
H6592 H 0.7053 0.93627 0.68455 0.0
H6593 H 0.713 0.9361 0.67615 0.0
H6594 H 0.70484 0.94431 0.69489 0.0
H6595 H 0.70686 0.92227 0.69051 0.0
H6596 H 0.71269 0.91245 0.6893 0.0
H6597 H 0.71893 0.91372 0.70823 0.0
H6598 H 0.7132 0.9236 0.70953 0.0
H6599 H 0.67748 0.93885 0.71193 0.0
H6600 H 0.68596 0.93856 0.70434 0.0
H6601 H 0.69858 0.93224 0.71862 0.0
H6602 H 0.69004 0.93237 0.72621 0.0
H6603 H 0.70071 0.92604 0.70842 0.0
H6604 H 0.69866 0.94757 0.71326 0.0
H6605 H 0.69328 0.9576 0.71482 0.0
H6606 H 0.68779 0.95774 0.69561 0.0
H6607 H 0.69306 0.94767 0.69395 0.0
C6608 C 0.72276 0.93364 0.68843 0.0
C6609 C 0.7209 0.93446 0.68221 0.0
C6610 C 0.71834 0.93371 0.69323 0.0
C6611 C 0.71202 0.93466 0.69188 0.0
C6612 C 0.71016 0.93552 0.68568 0.0
C6613 C 0.71456 0.93538 0.68089 0.0
C6614 C 0.70731 0.93482 0.69692 0.0
C6615 C 0.70388 0.9403 0.69781 0.0
C6616 C 0.70624 0.92965 0.70087 0.0
C6617 C 0.70966 0.9237 0.7001 0.0
C6618 C 0.70952 0.92048 0.6944 0.0
C6619 C 0.7128 0.9149 0.6937 0.0
C6620 C 0.7162 0.91247 0.69868 0.0
C6621 C 0.71631 0.91561 0.70438 0.0
C6622 C 0.71304 0.9212 0.7051 0.0
C6623 C 0.68207 0.93743 0.71345 0.0
C6624 C 0.68312 0.93568 0.71966 0.0
C6625 C 0.68692 0.93728 0.70912 0.0
C6626 C 0.69295 0.9355 0.71093 0.0
C6627 C 0.69398 0.93365 0.71712 0.0
C6628 C 0.6891 0.93372 0.72144 0.0
C6629 C 0.69813 0.93552 0.70634 0.0
C6630 C 0.70167 0.93008 0.70553 0.0
C6631 C 0.69938 0.94077 0.70253 0.0
C6632 C 0.69622 0.94684 0.7035 0.0
C6633 C 0.69627 0.94972 0.70938 0.0
C6634 C 0.69324 0.95542 0.71028 0.0
C6635 C 0.69018 0.9583 0.70532 0.0
C6636 C 0.69016 0.9555 0.69945 0.0
C6637 C 0.69317 0.9498 0.69852 0.0
H6638 H 0.68784 0.96271 0.70603 0.0
H6639 H 0.71873 0.90815 0.69813 0.0
H6640 H 0.29963 0.07359 0.33441 0.0
H6641 H 0.3073 0.07406 0.32602 0.0
H6642 H 0.29865 0.09075 0.31897 0.0
H6643 H 0.29085 0.09024 0.3273 0.0
H6644 H 0.30167 0.08254 0.30961 0.0
H6645 H 0.31182 0.09191 0.32709 0.0
H6646 H 0.31546 0.09261 0.33795 0.0
H6647 H 0.32662 0.07623 0.33536 0.0
H6648 H 0.32298 0.07537 0.32451 0.0
H6649 H 0.3274 0.09042 0.28981 0.0
H6650 H 0.3192 0.09072 0.29775 0.0
H6651 H 0.3268 0.07419 0.30624 0.0
H6652 H 0.33507 0.07394 0.29843 0.0
H6653 H 0.32419 0.08301 0.31481 0.0
H6654 H 0.31376 0.07339 0.29749 0.0
H6655 H 0.31006 0.07257 0.28666 0.0
H6656 H 0.29944 0.08936 0.28893 0.0
H6657 H 0.30314 0.09033 0.29975 0.0
C6658 C 0.29931 0.07733 0.33104 0.0
C6659 C 0.29463 0.08189 0.33153 0.0
C6660 C 0.30373 0.07762 0.32628 0.0
C6661 C 0.30359 0.08248 0.32192 0.0
C6662 C 0.29886 0.08697 0.32231 0.0
C6663 C 0.29444 0.0867 0.32709 0.0
C6664 C 0.30843 0.08288 0.317 0.0
C6665 C 0.30659 0.08275 0.31074 0.0
C6666 C 0.31485 0.08303 0.31848 0.0
C6667 C 0.31708 0.08355 0.325 0.0
C6668 C 0.31501 0.08843 0.32885 0.0
C6669 C 0.31708 0.08886 0.335 0.0
C6670 C 0.32126 0.08446 0.33735 0.0
C6671 C 0.32338 0.07963 0.33354 0.0
C6672 C 0.32132 0.07917 0.32739 0.0
C6673 C 0.32734 0.08686 0.29339 0.0
C6674 C 0.33187 0.08214 0.29348 0.0
C6675 C 0.32262 0.08701 0.29789 0.0
C6676 C 0.32236 0.08244 0.30255 0.0
C6677 C 0.3269 0.07775 0.30267 0.0
C6678 C 0.33159 0.07758 0.29817 0.0
C6679 C 0.31744 0.08259 0.30741 0.0
C6680 C 0.31927 0.08284 0.31367 0.0
C6681 C 0.31102 0.08254 0.30592 0.0
C6682 C 0.30879 0.08197 0.29941 0.0
C6683 C 0.31068 0.07694 0.29566 0.0
C6684 C 0.30858 0.07645 0.28953 0.0
C6685 C 0.30453 0.08093 0.2871 0.0
C6686 C 0.30258 0.0859 0.29081 0.0
C6687 C 0.30468 0.08643 0.29695 0.0
H6688 H 0.30291 0.08053 0.28235 0.0
H6689 H 0.32285 0.0848 0.34211 0.0
H6690 H 0.92651 0.2919 0.32846 0.0
H6691 H 0.92619 0.29969 0.32014 0.0
H6692 H 0.94387 0.30704 0.32625 0.0
H6693 H 0.94414 0.2994 0.33467 0.0
H6694 H 0.93566 0.31622 0.3241 0.0
H6695 H 0.94287 0.29799 0.31332 0.0
H6696 H 0.94251 0.28704 0.30983 0.0
H6697 H 0.92507 0.29042 0.30066 0.0
H6698 H 0.92528 0.30137 0.30417 0.0
H6699 H 0.94384 0.33478 0.29834 0.0
H6700 H 0.94365 0.32654 0.30616 0.0
H6701 H 0.92576 0.32039 0.29939 0.0
H6702 H 0.92599 0.32855 0.29142 0.0
H6703 H 0.93357 0.31057 0.3018 0.0
H6704 H 0.92653 0.3289 0.31241 0.0
H6705 H 0.927 0.33986 0.31583 0.0
H6706 H 0.94421 0.33628 0.32533 0.0
H6707 H 0.94389 0.32531 0.32189 0.0
C6708 C 0.93031 0.2952 0.32805 0.0
C6709 C 0.93536 0.29502 0.33222 0.0
C6710 C 0.93015 0.29961 0.32326 0.0
C6711 C 0.93503 0.30391 0.32254 0.0
C6712 C 0.94006 0.30376 0.32671 0.0
C6713 C 0.94023 0.29935 0.33148 0.0
C6714 C 0.93487 0.30867 0.31754 0.0
C6715 C 0.93527 0.31498 0.31922 0.0
C6716 C 0.9342 0.30706 0.31118 0.0
C6717 C 0.93406 0.30048 0.30907 0.0
C6718 C 0.93893 0.29638 0.31061 0.0
C6719 C 0.93876 0.29018 0.30862 0.0
C6720 C 0.93376 0.28803 0.30505 0.0
C6721 C 0.92893 0.29209 0.30344 0.0
C6722 C 0.92908 0.29829 0.30543 0.0
C6723 C 0.9399 0.33163 0.29846 0.0
C6724 C 0.93492 0.33233 0.29426 0.0
C6725 C 0.93977 0.32695 0.30297 0.0
C6726 C 0.93466 0.3229 0.30341 0.0
C6727 C 0.92974 0.32349 0.29915 0.0
C6728 C 0.92985 0.32818 0.29463 0.0
C6729 C 0.93443 0.31811 0.30838 0.0
C6730 C 0.93393 0.31181 0.30669 0.0
C6731 C 0.93502 0.31971 0.31474 0.0
C6732 C 0.93521 0.3263 0.31684 0.0
C6733 C 0.93044 0.33046 0.31519 0.0
C6734 C 0.93067 0.33668 0.31714 0.0
C6735 C 0.93564 0.33877 0.32078 0.0
C6736 C 0.94037 0.33465 0.3225 0.0
C6737 C 0.94016 0.32844 0.32056 0.0
H6738 H 0.93581 0.34358 0.32229 0.0
H6739 H 0.93363 0.28323 0.30351 0.0
H6740 H 0.67777 0.9291 0.30132 0.0
H6741 H 0.68603 0.92886 0.30913 0.0
H6742 H 0.69818 0.93897 0.29671 0.0
H6743 H 0.68999 0.93906 0.28879 0.0
H6744 H 0.70434 0.92963 0.30258 0.0
H6745 H 0.69096 0.94648 0.30841 0.0
H6746 H 0.68098 0.95156 0.31095 0.0
H6747 H 0.67846 0.93916 0.32642 0.0
H6748 H 0.68839 0.93394 0.32392 0.0
H6749 H 0.72628 0.93906 0.32571 0.0
H6750 H 0.71851 0.93885 0.31739 0.0
H6751 H 0.70585 0.92886 0.32937 0.0
H6752 H 0.71351 0.92922 0.33777 0.0
H6753 H 0.70009 0.93831 0.32356 0.0
H6754 H 0.71361 0.92147 0.31762 0.0
H6755 H 0.72366 0.91655 0.31503 0.0
H6756 H 0.72603 0.92919 0.29972 0.0
H6757 H 0.71602 0.93424 0.30228 0.0
C6758 C 0.68223 0.93119 0.30021 0.0
C6759 C 0.68321 0.93412 0.29444 0.0
C6760 C 0.68692 0.93111 0.3047 0.0
C6761 C 0.69269 0.93397 0.30354 0.0
C6762 C 0.69375 0.93675 0.29772 0.0
C6763 C 0.68905 0.93684 0.29322 0.0
C6764 C 0.69756 0.93416 0.30843 0.0
C6765 C 0.70344 0.9316 0.30714 0.0
C6766 C 0.69636 0.93664 0.31442 0.0
C6767 C 0.69039 0.93978 0.31594 0.0
C6768 C 0.68825 0.9448 0.31233 0.0
C6769 C 0.68261 0.94771 0.31376 0.0
C6770 C 0.67908 0.94567 0.31883 0.0
C6771 C 0.68119 0.94073 0.32249 0.0
C6772 C 0.68683 0.93779 0.32107 0.0
C6773 C 0.72183 0.93684 0.32658 0.0
C6774 C 0.72052 0.93415 0.3324 0.0
C6775 C 0.71742 0.93668 0.3218 0.0
C6776 C 0.71162 0.93379 0.32274 0.0
C6777 C 0.7103 0.93109 0.32854 0.0
C6778 C 0.71471 0.93126 0.33332 0.0
C6779 C 0.70685 0.93373 0.31774 0.0
C6780 C 0.70099 0.93633 0.319 0.0
C6781 C 0.70809 0.93131 0.31173 0.0
C6782 C 0.71409 0.92827 0.31018 0.0
C6783 C 0.71629 0.92323 0.31373 0.0
C6784 C 0.72198 0.92041 0.31226 0.0
C6785 C 0.72549 0.92257 0.30722 0.0
C6786 C 0.72331 0.92753 0.30363 0.0
C6787 C 0.71763 0.93037 0.30508 0.0
H6788 H 0.72988 0.92038 0.30609 0.0
H6789 H 0.67471 0.94793 0.31994 0.0
H6790 H 0.09083 0.6823 0.29779 0.0
H6791 H 0.09134 0.69081 0.30532 0.0
H6792 H 0.07579 0.69978 0.29634 0.0
H6793 H 0.0754 0.69141 0.28863 0.0
H6794 H 0.08451 0.70819 0.29964 0.0
H6795 H 0.07368 0.69133 0.30956 0.0
H6796 H 0.07217 0.68052 0.31314 0.0
H6797 H 0.08856 0.68193 0.32451 0.0
H6798 H 0.09022 0.69272 0.32092 0.0
H6799 H 0.07583 0.72808 0.32479 0.0
H6800 H 0.07618 0.72034 0.31644 0.0
H6801 H 0.09152 0.71114 0.32555 0.0
H6802 H 0.09104 0.7187 0.33403 0.0
H6803 H 0.08297 0.70293 0.32207 0.0
H6804 H 0.0936 0.72003 0.31227 0.0
H6805 H 0.09491 0.73086 0.30868 0.0
H6806 H 0.07868 0.72908 0.29714 0.0
H6807 H 0.07722 0.71826 0.30073 0.0
C6808 C 0.08758 0.68613 0.29734 0.0
C6809 C 0.08305 0.68615 0.29261 0.0
C6810 C 0.08784 0.69096 0.3017 0.0
C6811 C 0.08354 0.69588 0.30146 0.0
C6812 C 0.07913 0.69602 0.29664 0.0
C6813 C 0.07888 0.69119 0.29227 0.0
C6814 C 0.08353 0.70079 0.30633 0.0
C6815 C 0.0841 0.70705 0.30454 0.0
C6816 C 0.08311 0.69929 0.31274 0.0
C6817 C 0.08211 0.69281 0.31492 0.0
C6818 C 0.07699 0.68932 0.31278 0.0
C6819 C 0.0761 0.68319 0.31482 0.0
C6820 C 0.08028 0.68053 0.31904 0.0
C6821 C 0.08534 0.68399 0.32124 0.0
C6822 C 0.08625 0.69011 0.31921 0.0
C6823 C 0.07927 0.7244 0.32503 0.0
C6824 C 0.0834 0.72401 0.33009 0.0
C6825 C 0.07951 0.72002 0.32021 0.0
C6826 C 0.08392 0.71519 0.32034 0.0
C6827 C 0.08809 0.71483 0.32535 0.0
C6828 C 0.08785 0.7192 0.33017 0.0
C6829 C 0.084 0.71034 0.31539 0.0
C6830 C 0.08341 0.70408 0.31717 0.0
C6831 C 0.08438 0.71185 0.30899 0.0
C6832 C 0.08527 0.71835 0.30681 0.0
C6833 C 0.09028 0.72196 0.309 0.0
C6834 C 0.09106 0.7281 0.30696 0.0
C6835 C 0.08687 0.73066 0.3027 0.0
C6836 C 0.08191 0.72709 0.30045 0.0
C6837 C 0.08111 0.72095 0.30248 0.0
H6838 H 0.08748 0.73542 0.30113 0.0
H6839 H 0.07958 0.67579 0.32061 0.0
H6840 H 0.28943 0.94046 0.68913 0.0
H6841 H 0.29692 0.9402 0.69769 0.0
H6842 H 0.309 0.92841 0.6868 0.0
H6843 H 0.30156 0.92868 0.6782 0.0
H6844 H 0.30817 0.92437 0.6987 0.0
H6845 H 0.31195 0.94388 0.68825 0.0
H6846 H 0.30906 0.95412 0.68393 0.0
H6847 H 0.30325 0.96026 0.70205 0.0
H6848 H 0.30602 0.95002 0.70646 0.0
H6849 H 0.33692 0.9284 0.71437 0.0
H6850 H 0.3284 0.92813 0.70686 0.0
H6851 H 0.31749 0.94013 0.71872 0.0
H6852 H 0.32599 0.94038 0.7263 0.0
H6853 H 0.31721 0.94404 0.70684 0.0
H6854 H 0.31395 0.92476 0.71745 0.0
H6855 H 0.31684 0.91454 0.7218 0.0
H6856 H 0.32162 0.90797 0.70354 0.0
H6857 H 0.31885 0.91818 0.69908 0.0
C6858 C 0.2937 0.93784 0.68854 0.0
C6859 C 0.29491 0.93462 0.68297 0.0
C6860 C 0.29797 0.93768 0.69345 0.0
C6861 C 0.30355 0.93433 0.69286 0.0
C6862 C 0.30472 0.93101 0.68736 0.0
C6863 C 0.30045 0.93116 0.68246 0.0
C6864 C 0.30825 0.93438 0.69793 0.0
C6865 C 0.31019 0.92867 0.70044 0.0
C6866 C 0.31077 0.93999 0.70031 0.0
C6867 C 0.30912 0.94616 0.69767 0.0
C6868 C 0.31001 0.94739 0.6913 0.0
C6869 C 0.3084 0.9532 0.68884 0.0
C6870 C 0.30596 0.95783 0.69271 0.0
C6871 C 0.30513 0.95666 0.69905 0.0
C6872 C 0.30672 0.95086 0.70154 0.0
C6873 C 0.33267 0.9309 0.71543 0.0
C6874 C 0.33214 0.9344 0.72095 0.0
C6875 C 0.3278 0.93075 0.71113 0.0
C6876 C 0.32228 0.93406 0.71225 0.0
C6877 C 0.32171 0.93754 0.71775 0.0
C6878 C 0.32658 0.9377 0.72207 0.0
C6879 C 0.31718 0.93403 0.70759 0.0
C6880 C 0.31516 0.93974 0.70514 0.0
C6881 C 0.31458 0.92842 0.70528 0.0
C6882 C 0.31624 0.92226 0.70794 0.0
C6883 C 0.31567 0.92115 0.71436 0.0
C6884 C 0.31727 0.91536 0.71685 0.0
C6885 C 0.31942 0.91061 0.71295 0.0
C6886 C 0.31996 0.91165 0.70655 0.0
C6887 C 0.31836 0.91744 0.70404 0.0
H6888 H 0.32067 0.90613 0.71488 0.0
H6889 H 0.30472 0.96232 0.69079 0.0
H6890 H 0.09052 0.32792 0.72477 0.0
H6891 H 0.09083 0.31954 0.71703 0.0
H6892 H 0.07297 0.3254 0.70995 0.0
H6893 H 0.07264 0.33377 0.71764 0.0
H6894 H 0.07346 0.31295 0.71106 0.0
H6895 H 0.08653 0.32911 0.70243 0.0
H6896 H 0.09529 0.33656 0.70248 0.0
H6897 H 0.10823 0.32149 0.70475 0.0
H6898 H 0.09954 0.31395 0.7048 0.0
H6899 H 0.07255 0.29904 0.68135 0.0
H6900 H 0.0729 0.30627 0.6901 0.0
H6901 H 0.09084 0.29899 0.69546 0.0
H6902 H 0.09051 0.29171 0.68668 0.0
H6903 H 0.09079 0.31148 0.69584 0.0
H6904 H 0.07777 0.29523 0.7037 0.0
H6905 H 0.06902 0.28778 0.70362 0.0
H6906 H 0.056 0.30293 0.70283 0.0
H6907 H 0.06467 0.31047 0.70281 0.0
C6908 C 0.08667 0.32744 0.72154 0.0
C6909 C 0.08155 0.33151 0.72182 0.0
C6910 C 0.08685 0.32264 0.71713 0.0
C6911 C 0.08194 0.32188 0.71287 0.0
C6912 C 0.0768 0.32589 0.7132 0.0
C6913 C 0.07661 0.33066 0.71761 0.0
C6914 C 0.08216 0.31694 0.70803 0.0
C6915 C 0.07722 0.31266 0.70769 0.0
C6916 C 0.08716 0.31646 0.70375 0.0
C6917 C 0.09238 0.32098 0.70369 0.0
C6918 C 0.09124 0.32739 0.70299 0.0
C6919 C 0.09619 0.33163 0.70299 0.0
C6920 C 0.10231 0.3295 0.70363 0.0
C6921 C 0.10349 0.32313 0.70426 0.0
C6922 C 0.09855 0.31888 0.70427 0.0
C6923 C 0.07654 0.29892 0.68443 0.0
C6924 C 0.08149 0.29477 0.68334 0.0
C6925 C 0.07674 0.30306 0.68943 0.0
C6926 C 0.08186 0.30312 0.69349 0.0
C6927 C 0.08684 0.29902 0.69239 0.0
C6928 C 0.08665 0.29488 0.68737 0.0
C6929 C 0.08204 0.30755 0.6988 0.0
C6930 C 0.08706 0.31173 0.69923 0.0
C6931 C 0.07712 0.30794 0.70317 0.0
C6932 C 0.07188 0.30342 0.7032 0.0
C6933 C 0.07304 0.29697 0.70346 0.0
C6934 C 0.0681 0.29273 0.70344 0.0
C6935 C 0.06196 0.29488 0.7032 0.0
C6936 C 0.06075 0.30127 0.703 0.0
C6937 C 0.06569 0.30553 0.70302 0.0
H6938 H 0.05813 0.29159 0.70319 0.0
H6939 H 0.10614 0.33279 0.70363 0.0
H6940 H 0.6813 0.07275 0.71593 0.0
H6941 H 0.68988 0.07299 0.70847 0.0
H6942 H 0.69661 0.09008 0.71665 0.0
H6943 H 0.688 0.08987 0.72414 0.0
H6944 H 0.69669 0.09081 0.70426 0.0
H6945 H 0.70405 0.0762 0.7193 0.0
H6946 H 0.70354 0.06697 0.72612 0.0
H6947 H 0.70143 0.05512 0.71015 0.0
H6948 H 0.70184 0.06428 0.70324 0.0
H6949 H 0.72513 0.08982 0.68702 0.0
H6950 H 0.71759 0.09006 0.69558 0.0
H6951 H 0.7093 0.07304 0.6888 0.0
H6952 H 0.71682 0.07276 0.68027 0.0
H6953 H 0.71064 0.07265 0.70114 0.0
H6954 H 0.70257 0.08738 0.68621 0.0
H6955 H 0.70305 0.09662 0.67941 0.0
H6956 H 0.70657 0.10828 0.69527 0.0
H6957 H 0.70618 0.09909 0.70216 0.0
C6958 C 0.68465 0.07652 0.71619 0.0
C6959 C 0.68399 0.08127 0.72066 0.0
C6960 C 0.68955 0.07665 0.71192 0.0
C6961 C 0.69394 0.0815 0.71206 0.0
C6962 C 0.69328 0.08628 0.71647 0.0
C6963 C 0.68835 0.08617 0.72073 0.0
C6964 C 0.69914 0.08163 0.70748 0.0
C6965 C 0.69981 0.08688 0.70365 0.0
C6966 C 0.70314 0.07646 0.70662 0.0
C6967 C 0.70293 0.07094 0.71076 0.0
C6968 C 0.70343 0.07163 0.71725 0.0
C6969 C 0.70317 0.06641 0.72113 0.0
C6970 C 0.70244 0.06046 0.71857 0.0
C6971 C 0.70199 0.05972 0.71213 0.0
C6972 C 0.70225 0.06493 0.70822 0.0
C6973 C 0.72168 0.08615 0.68734 0.0
C6974 C 0.72157 0.08128 0.68296 0.0
C6975 C 0.71738 0.08629 0.69223 0.0
C6976 C 0.71284 0.0816 0.6928 0.0
C6977 C 0.71277 0.0767 0.68847 0.0
C6978 C 0.71708 0.07654 0.68361 0.0
C6979 C 0.70813 0.08179 0.69786 0.0
C6980 C 0.70755 0.0766 0.70179 0.0
C6981 C 0.70422 0.08701 0.69882 0.0
C6982 C 0.70441 0.09254 0.69469 0.0
C6983 C 0.70349 0.09191 0.68824 0.0
C6984 C 0.70374 0.09714 0.68437 0.0
C6985 C 0.70486 0.10303 0.6869 0.0
C6986 C 0.70571 0.10371 0.69331 0.0
C6987 C 0.70548 0.09849 0.6972 0.0
H6988 H 0.70505 0.10707 0.6839 0.0
H6989 H 0.70224 0.05643 0.72158 0.0
H6990 H 0.93948 0.69044 0.72661 0.0
H6991 H 0.93945 0.69872 0.71879 0.0
H6992 H 0.93028 0.68641 0.70582 0.0
H6993 H 0.93045 0.67806 0.71355 0.0
H6994 H 0.9399 0.69245 0.70044 0.0
H6995 H 0.92229 0.69796 0.71317 0.0
H6996 H 0.91687 0.70048 0.72298 0.0
H6997 H 0.92895 0.7162 0.72572 0.0
H6998 H 0.9345 0.71372 0.71597 0.0
H6999 H 0.93041 0.71399 0.6776 0.0
H7000 H 0.93038 0.70628 0.68596 0.0
H7001 H 0.93966 0.71934 0.69808 0.0
H7002 H 0.93956 0.72716 0.68978 0.0
H7003 H 0.93034 0.71317 0.7041 0.0
H7004 H 0.94784 0.70787 0.69141 0.0
H7005 H 0.9534 0.70542 0.68166 0.0
H7006 H 0.94176 0.68935 0.67895 0.0
H7007 H 0.93607 0.69176 0.68864 0.0
C7008 C 0.93748 0.68949 0.72209 0.0
C7009 C 0.93496 0.68359 0.72071 0.0
C7010 C 0.93741 0.69424 0.71764 0.0
C7011 C 0.93481 0.6932 0.71174 0.0
C7012 C 0.9323 0.68732 0.71035 0.0
C7013 C 0.93235 0.68257 0.71479 0.0
C7014 C 0.93484 0.69817 0.70694 0.0
C7015 C 0.93774 0.69695 0.70121 0.0
C7016 C 0.93219 0.70411 0.70802 0.0
C7017 C 0.92885 0.70562 0.71387 0.0
C7018 C 0.92382 0.70193 0.71589 0.0
C7019 C 0.92072 0.70335 0.72144 0.0
C7020 C 0.92258 0.70849 0.72498 0.0
C7021 C 0.92753 0.71222 0.72298 0.0
C7022 C 0.93065 0.71081 0.71744 0.0
C7023 C 0.93238 0.71525 0.68207 0.0
C7024 C 0.935 0.72119 0.68302 0.0
C7025 C 0.93241 0.71082 0.68682 0.0
C7026 C 0.93509 0.71221 0.69262 0.0
C7027 C 0.93759 0.71817 0.69364 0.0
C7028 C 0.93758 0.72261 0.68888 0.0
C7029 C 0.93533 0.70741 0.69758 0.0
C7030 C 0.9325 0.70867 0.70333 0.0
C7031 C 0.93807 0.7015 0.69654 0.0
C7032 C 0.94149 0.70003 0.69072 0.0
C7033 C 0.94643 0.70384 0.68871 0.0
C7034 C 0.94961 0.70246 0.6832 0.0
C7035 C 0.94792 0.69724 0.67968 0.0
C7036 C 0.94306 0.6934 0.68167 0.0
C7037 C 0.93986 0.69476 0.68718 0.0
H7038 H 0.95039 0.69618 0.67542 0.0
H7039 H 0.92017 0.70959 0.72927 0.0
H7040 H 0.33447 0.29846 0.07307 0.0
H7041 H 0.32629 0.30634 0.07339 0.0
H7042 H 0.31896 0.29818 0.09021 0.0
H7043 H 0.32708 0.29015 0.08984 0.0
H7044 H 0.30969 0.30131 0.08189 0.0
H7045 H 0.32741 0.31113 0.09118 0.0
H7046 H 0.33838 0.31447 0.09189 0.0
H7047 H 0.33624 0.32543 0.07531 0.0
H7048 H 0.32528 0.32207 0.07445 0.0
H7049 H 0.29057 0.32768 0.08915 0.0
H7050 H 0.29826 0.31927 0.08963 0.0
H7051 H 0.30712 0.3264 0.07307 0.0
H7052 H 0.29956 0.33488 0.07265 0.0
H7053 H 0.31555 0.32368 0.08197 0.0
H7054 H 0.29799 0.31356 0.07243 0.0
H7055 H 0.28706 0.31015 0.07159 0.0
H7056 H 0.28887 0.29976 0.08856 0.0
H7057 H 0.2998 0.30318 0.08955 0.0
C7058 C 0.33108 0.29829 0.0768 0.0
C7059 C 0.33143 0.29368 0.08144 0.0
C7060 C 0.32643 0.30283 0.07701 0.0
C7061 C 0.32206 0.30289 0.08186 0.0
C7062 C 0.32231 0.29823 0.08643 0.0
C7063 C 0.32698 0.29368 0.08625 0.0
C7064 C 0.31728 0.30787 0.08216 0.0
C7065 C 0.31096 0.3062 0.08201 0.0
C7066 C 0.31895 0.31425 0.0822 0.0
C7067 C 0.32553 0.3163 0.08272 0.0
C7068 C 0.32929 0.31421 0.08766 0.0
C7069 C 0.3355 0.31612 0.08809 0.0
C7070 C 0.33801 0.32015 0.08364 0.0
C7071 C 0.3343 0.3223 0.07875 0.0
C7072 C 0.32808 0.3204 0.07829 0.0
C7073 C 0.29417 0.32747 0.08563 0.0
C7074 C 0.29444 0.33194 0.08085 0.0
C7075 C 0.29853 0.32263 0.08588 0.0
C7076 C 0.30324 0.32218 0.08135 0.0
C7077 C 0.30353 0.32665 0.0766 0.0
C7078 C 0.29917 0.33147 0.07634 0.0
C7079 C 0.30795 0.31713 0.08162 0.0
C7080 C 0.31427 0.31879 0.08189 0.0
C7081 C 0.30627 0.31075 0.08168 0.0
C7082 C 0.29969 0.30869 0.0811 0.0
C7083 C 0.29604 0.3106 0.07601 0.0
C7084 C 0.28985 0.30865 0.0755 0.0
C7085 C 0.28726 0.30475 0.08003 0.0
C7086 C 0.29087 0.30278 0.08506 0.0
C7087 C 0.29707 0.30472 0.0856 0.0
H7088 H 0.28246 0.30325 0.07963 0.0
H7089 H 0.34282 0.32162 0.08398 0.0
H7090 H 0.32599 0.72748 0.93069 0.0
H7091 H 0.31753 0.71979 0.93004 0.0
H7092 H 0.32987 0.70559 0.93704 0.0
H7093 H 0.33832 0.71323 0.9377 0.0
H7094 H 0.32291 0.70189 0.92652 0.0
H7095 H 0.31975 0.71172 0.94657 0.0
H7096 H 0.31806 0.72066 0.95358 0.0
H7097 H 0.30123 0.72525 0.94382 0.0
H7098 H 0.30287 0.71638 0.9367 0.0
H7099 H 0.30304 0.67744 0.93534 0.0
H7100 H 0.3107 0.68585 0.93498 0.0
H7101 H 0.29605 0.69907 0.93118 0.0
H7102 H 0.28833 0.69065 0.93169 0.0
H7103 H 0.30373 0.70384 0.93928 0.0
H7104 H 0.30626 0.69395 0.91962 0.0
H7105 H 0.30777 0.68523 0.91229 0.0
H7106 H 0.32547 0.68114 0.92063 0.0
H7107 H 0.32403 0.68978 0.92807 0.0
C7108 C 0.32689 0.72271 0.93206 0.0
C7109 C 0.3328 0.72095 0.93427 0.0
C7110 C 0.32206 0.71834 0.93172 0.0
C7111 C 0.32308 0.71214 0.93352 0.0
C7112 C 0.329 0.71035 0.93563 0.0
C7113 C 0.3338 0.71473 0.93604 0.0
C7114 C 0.31799 0.70747 0.93324 0.0
C7115 C 0.31873 0.70228 0.92935 0.0
C7116 C 0.31247 0.7081 0.93677 0.0
C7117 C 0.31148 0.71343 0.94106 0.0
C7118 C 0.31572 0.71467 0.94589 0.0
C7119 C 0.31477 0.71972 0.94988 0.0
C7120 C 0.30956 0.72354 0.94913 0.0
C7121 C 0.30528 0.7223 0.94439 0.0
C7122 C 0.30621 0.71726 0.94038 0.0
C7123 C 0.30146 0.68213 0.93438 0.0
C7124 C 0.2951 0.68338 0.93349 0.0
C7125 C 0.30584 0.68694 0.93416 0.0
C7126 C 0.30397 0.69309 0.93294 0.0
C7127 C 0.29761 0.69436 0.93212 0.0
C7128 C 0.29321 0.68956 0.93241 0.0
C7129 C 0.30867 0.69817 0.93263 0.0
C7130 C 0.30787 0.70346 0.9364 0.0
C7131 C 0.31411 0.69767 0.92892 0.0
C7132 C 0.31502 0.69248 0.92443 0.0
C7133 C 0.31046 0.69116 0.91992 0.0
C7134 C 0.3113 0.68624 0.91574 0.0
C7135 C 0.31671 0.68262 0.916 0.0
C7136 C 0.32128 0.68394 0.92043 0.0
C7137 C 0.32046 0.68885 0.92463 0.0
H7138 H 0.31735 0.67881 0.91276 0.0
H7139 H 0.30882 0.72744 0.95223 0.0
H7140 H 0.33345 0.29757 0.9423 0.0
H7141 H 0.32497 0.30513 0.94215 0.0
H7142 H 0.3191 0.29825 0.92422 0.0
H7143 H 0.32759 0.29062 0.92435 0.0
H7144 H 0.31928 0.31077 0.92444 0.0
H7145 H 0.31084 0.2947 0.93728 0.0
H7146 H 0.31068 0.28713 0.94591 0.0
H7147 H 0.31226 0.30206 0.95913 0.0
H7148 H 0.31252 0.30971 0.95058 0.0
H7149 H 0.29105 0.32832 0.9252 0.0
H7150 H 0.29846 0.31966 0.92473 0.0
H7151 H 0.30591 0.32506 0.94257 0.0
H7152 H 0.29855 0.33372 0.94307 0.0
H7153 H 0.3043 0.31266 0.94193 0.0
H7154 H 0.31349 0.32861 0.92904 0.0
H7155 H 0.31371 0.33618 0.92042 0.0
H7156 H 0.31069 0.32141 0.90727 0.0
H7157 H 0.31037 0.31376 0.91583 0.0
C7158 C 0.33031 0.2976 0.93836 0.0
C7159 C 0.33117 0.29346 0.93336 0.0
C7160 C 0.32547 0.30194 0.93828 0.0
C7161 C 0.32134 0.3022 0.93321 0.0
C7162 C 0.32222 0.29812 0.92818 0.0
C7163 C 0.32708 0.29378 0.92825 0.0
C7164 C 0.31623 0.30685 0.93315 0.0
C7165 C 0.31593 0.31111 0.92821 0.0
C7166 C 0.31193 0.30737 0.93812 0.0
C7167 C 0.31175 0.30278 0.94328 0.0
C7168 C 0.3112 0.29637 0.94203 0.0
C7169 C 0.31108 0.29206 0.94691 0.0
C7170 C 0.31147 0.29411 0.95307 0.0
C7171 C 0.31196 0.30048 0.95436 0.0
C7172 C 0.31208 0.3048 0.9495 0.0
C7173 C 0.2943 0.32768 0.92901 0.0
C7174 C 0.29422 0.33172 0.93417 0.0
C7175 C 0.29851 0.32273 0.92873 0.0
C7176 C 0.30278 0.32175 0.93359 0.0
C7177 C 0.30265 0.32572 0.93878 0.0
C7178 C 0.29843 0.33066 0.93906 0.0
C7179 C 0.30742 0.31663 0.93327 0.0
C7180 C 0.30761 0.31228 0.93813 0.0
C7181 C 0.31163 0.31603 0.92823 0.0
C7182 C 0.31184 0.32062 0.92308 0.0
C7183 C 0.31283 0.32698 0.92431 0.0
C7184 C 0.31298 0.33129 0.91944 0.0
C7185 C 0.3122 0.32928 0.9133 0.0
C7186 C 0.31128 0.32296 0.91203 0.0
C7187 C 0.31112 0.31864 0.91689 0.0
H7188 H 0.31231 0.33262 0.90953 0.0
H7189 H 0.31138 0.29077 0.95684 0.0
H7190 H 0.72143 0.33251 0.92343 0.0
H7191 H 0.71366 0.32419 0.92304 0.0
H7192 H 0.71426 0.3226 0.94303 0.0
H7193 H 0.72191 0.33103 0.94349 0.0
H7194 H 0.71432 0.31106 0.93697 0.0
H7195 H 0.70269 0.33031 0.93661 0.0
H7196 H 0.69995 0.3407 0.93256 0.0
H7197 H 0.69544 0.33267 0.91481 0.0
H7198 H 0.69824 0.32224 0.91873 0.0
H7199 H 0.68651 0.29462 0.94324 0.0
H7200 H 0.69508 0.30204 0.94273 0.0
H7201 H 0.69155 0.30484 0.92317 0.0
H7202 H 0.6827 0.29771 0.92373 0.0
H7203 H 0.69333 0.31554 0.92843 0.0
H7204 H 0.70435 0.29623 0.92872 0.0
H7205 H 0.70722 0.28579 0.93253 0.0
H7206 H 0.71309 0.29367 0.94994 0.0
H7207 H 0.71017 0.30415 0.94627 0.0
C7208 C 0.71989 0.33043 0.92775 0.0
C7209 C 0.72229 0.33248 0.9335 0.0
C7210 C 0.71547 0.32565 0.92751 0.0
C7211 C 0.71336 0.32281 0.93301 0.0
C7212 C 0.71585 0.32472 0.93873 0.0
C7213 C 0.72024 0.32952 0.93898 0.0
C7214 C 0.70841 0.31799 0.93282 0.0
C7215 C 0.70971 0.31204 0.93516 0.0
C7216 C 0.70246 0.31924 0.93029 0.0
C7217 C 0.70074 0.32551 0.92794 0.0
C7218 C 0.70116 0.33077 0.93182 0.0
C7219 C 0.69959 0.33666 0.92956 0.0
C7220 C 0.69754 0.33735 0.92342 0.0
C7221 C 0.69704 0.33214 0.91955 0.0
C7222 C 0.69862 0.32623 0.9218 0.0
C7223 C 0.68751 0.29684 0.93884 0.0
C7224 C 0.68387 0.29557 0.93353 0.0
C7225 C 0.69249 0.30103 0.93853 0.0
C7226 C 0.69404 0.30394 0.93289 0.0
C7227 C 0.69047 0.30263 0.92757 0.0
C7228 C 0.68544 0.2985 0.92789 0.0
C7229 C 0.6992 0.30856 0.93261 0.0
C7230 C 0.69795 0.31451 0.93019 0.0
C7231 C 0.70521 0.30728 0.93502 0.0
C7232 C 0.70699 0.30098 0.93724 0.0
C7233 C 0.70621 0.29573 0.93338 0.0
C7234 C 0.70785 0.28981 0.93551 0.0
C7235 C 0.71033 0.28906 0.94148 0.0
C7236 C 0.71117 0.29425 0.94532 0.0
C7237 C 0.70953 0.30019 0.94321 0.0
H7238 H 0.7116 0.28447 0.94312 0.0
H7239 H 0.69633 0.34192 0.92168 0.0
H7240 H 0.71441 0.67886 0.92728 0.0
H7241 H 0.70709 0.68755 0.92684 0.0
H7242 H 0.71998 0.69901 0.93717 0.0
H7243 H 0.72734 0.69033 0.9376 0.0
H7244 H 0.70845 0.69996 0.94181 0.0
H7245 H 0.71772 0.70131 0.92162 0.0
H7246 H 0.72122 0.69744 0.91139 0.0
H7247 H 0.70237 0.69275 0.90661 0.0
H7248 H 0.69877 0.69651 0.91685 0.0
H7249 H 0.69129 0.72791 0.93751 0.0
H7250 H 0.69963 0.72016 0.93712 0.0
H7251 H 0.6876 0.70767 0.92696 0.0
H7252 H 0.67924 0.71539 0.92734 0.0
H7253 H 0.69918 0.7077 0.92213 0.0
H7254 H 0.69004 0.70584 0.94254 0.0
H7255 H 0.68655 0.70967 0.95279 0.0
H7256 H 0.70524 0.71531 0.95715 0.0
H7257 H 0.70883 0.71159 0.94688 0.0
C7258 C 0.71573 0.68325 0.92937 0.0
C7259 C 0.72147 0.6839 0.93246 0.0
C7260 C 0.71153 0.68822 0.92913 0.0
C7261 C 0.71301 0.69395 0.93192 0.0
C7262 C 0.71874 0.69462 0.93499 0.0
C7263 C 0.72294 0.68965 0.93525 0.0
C7264 C 0.70847 0.69917 0.93181 0.0
C7265 C 0.7065 0.70172 0.9375 0.0
C7266 C 0.70583 0.70139 0.9262 0.0
C7267 C 0.70798 0.69914 0.92002 0.0
C7268 C 0.71433 0.69941 0.91841 0.0
C7269 C 0.71633 0.69725 0.9126 0.0
C7270 C 0.71202 0.69484 0.90836 0.0
C7271 C 0.7057 0.69461 0.9099 0.0
C7272 C 0.70368 0.69676 0.9157 0.0
C7273 C 0.69042 0.72351 0.93521 0.0
C7274 C 0.68459 0.72226 0.93248 0.0
C7275 C 0.69519 0.71909 0.93498 0.0
C7276 C 0.69421 0.71331 0.93208 0.0
C7277 C 0.68846 0.71211 0.92922 0.0
C7278 C 0.68369 0.71653 0.92942 0.0
C7279 C 0.69913 0.70844 0.93213 0.0
C7280 C 0.70116 0.70596 0.92644 0.0
C7281 C 0.70183 0.70629 0.93773 0.0
C7282 C 0.69969 0.7085 0.94392 0.0
C7283 C 0.69339 0.70794 0.94566 0.0
C7284 C 0.6914 0.71009 0.95148 0.0
C7285 C 0.69567 0.71275 0.95561 0.0
C7286 C 0.70194 0.71326 0.95394 0.0
C7287 C 0.70396 0.71113 0.94813 0.0
H7288 H 0.69412 0.71441 0.96011 0.0
H7289 H 0.71358 0.69317 0.90387 0.0
H7290 H 0.69105 0.72811 0.07759 0.0
H7291 H 0.69954 0.72053 0.07798 0.0
H7292 H 0.68791 0.70802 0.08858 0.0
H7293 H 0.6794 0.71557 0.08819 0.0
H7294 H 0.69959 0.70838 0.09319 0.0
H7295 H 0.69011 0.70591 0.07302 0.0
H7296 H 0.68635 0.70945 0.06278 0.0
H7297 H 0.70485 0.71535 0.05791 0.0
H7298 H 0.7087 0.71192 0.06817 0.0
H7299 H 0.71517 0.67967 0.08821 0.0
H7300 H 0.70776 0.68828 0.08869 0.0
H7301 H 0.72028 0.69973 0.07792 0.0
H7302 H 0.72776 0.69115 0.07746 0.0
H7303 H 0.70864 0.70039 0.07349 0.0
H7304 H 0.71827 0.70233 0.09344 0.0
H7305 H 0.72203 0.69875 0.10367 0.0
H7306 H 0.70336 0.69385 0.10894 0.0
H7307 H 0.69949 0.69732 0.09871 0.0
C7308 C 0.6903 0.72374 0.07999 0.0
C7309 C 0.68454 0.72243 0.08283 0.0
C7310 C 0.69516 0.71942 0.08021 0.0
C7311 C 0.69434 0.71368 0.08324 0.0
C7312 C 0.68865 0.71243 0.08622 0.0
C7313 C 0.6838 0.71675 0.08601 0.0
C7314 C 0.69934 0.70891 0.08319 0.0
C7315 C 0.70153 0.70658 0.08888 0.0
C7316 C 0.70198 0.70668 0.07757 0.0
C7317 C 0.69968 0.70872 0.07139 0.0
C7318 C 0.69336 0.70801 0.06979 0.0
C7319 C 0.69122 0.70998 0.06397 0.0
C7320 C 0.69535 0.71264 0.0597 0.0
C7321 C 0.70165 0.7133 0.06123 0.0
C7322 C 0.70381 0.71134 0.06704 0.0
C7323 C 0.7164 0.68406 0.08603 0.0
C7324 C 0.72207 0.68472 0.08281 0.0
C7325 C 0.71215 0.68897 0.0863 0.0
C7326 C 0.71349 0.69468 0.08339 0.0
C7327 C 0.71915 0.69537 0.0802 0.0
C7328 C 0.72341 0.69045 0.07992 0.0
C7329 C 0.70887 0.69982 0.08349 0.0
C7330 C 0.70674 0.70222 0.0778 0.0
C7331 C 0.70629 0.70211 0.08911 0.0
C7332 C 0.7086 0.70003 0.09528 0.0
C7333 C 0.71497 0.70044 0.09676 0.0
C7334 C 0.71712 0.69844 0.10256 0.0
C7335 C 0.71294 0.69606 0.10695 0.0
C7336 C 0.7066 0.69569 0.10554 0.0
C7337 C 0.70442 0.69768 0.09974 0.0
H7338 H 0.71461 0.69452 0.11144 0.0
H7339 H 0.69369 0.71416 0.05521 0.0
H7340 H 0.30094 0.67981 0.07236 0.0
H7341 H 0.30865 0.68817 0.07279 0.0
H7342 H 0.2997 0.69568 0.08912 0.0
H7343 H 0.29185 0.68738 0.08864 0.0
H7344 H 0.3029 0.70483 0.08072 0.0
H7345 H 0.31279 0.68758 0.09074 0.0
H7346 H 0.31639 0.67673 0.09182 0.0
H7347 H 0.32792 0.67883 0.07562 0.0
H7348 H 0.32432 0.68967 0.07439 0.0
H7349 H 0.32845 0.72479 0.08868 0.0
H7350 H 0.32025 0.71685 0.08897 0.0
H7351 H 0.32823 0.70799 0.0728 0.0
H7352 H 0.33649 0.71582 0.07256 0.0
H7353 H 0.32539 0.6996 0.08177 0.0
H7354 H 0.31523 0.7167 0.07152 0.0
H7355 H 0.31158 0.72752 0.07035 0.0
H7356 H 0.30055 0.72571 0.08693 0.0
H7357 H 0.30421 0.7149 0.08825 0.0
C7358 C 0.30056 0.68328 0.07601 0.0
C7359 C 0.29578 0.68293 0.08047 0.0
C7360 C 0.30501 0.68802 0.07628 0.0
C7361 C 0.30479 0.69251 0.08103 0.0
C7362 C 0.29996 0.69225 0.08543 0.0
C7363 C 0.29552 0.68748 0.08518 0.0
C7364 C 0.30964 0.69743 0.08139 0.0
C7365 C 0.30782 0.7037 0.08105 0.0
C7366 C 0.31605 0.69594 0.08171 0.0
C7367 C 0.31824 0.68942 0.08245 0.0
C7368 C 0.31606 0.68571 0.08738 0.0
C7369 C 0.3181 0.67957 0.08802 0.0
C7370 C 0.32237 0.67708 0.08378 0.0
C7371 C 0.32461 0.68075 0.0789 0.0
C7372 C 0.32257 0.6869 0.07823 0.0
C7373 C 0.32847 0.72113 0.08521 0.0
C7374 C 0.33311 0.72095 0.08059 0.0
C7375 C 0.32375 0.71663 0.08535 0.0
C7376 C 0.3236 0.71186 0.08088 0.0
C7377 C 0.32825 0.71164 0.07629 0.0
C7378 C 0.33294 0.71615 0.07613 0.0
C7379 C 0.31867 0.70701 0.08102 0.0
C7380 C 0.32048 0.70074 0.08147 0.0
C7381 C 0.31225 0.70851 0.0808 0.0
C7382 C 0.31005 0.71501 0.08003 0.0
C7383 C 0.31207 0.71862 0.07495 0.0
C7384 C 0.30999 0.72475 0.07426 0.0
C7385 C 0.30585 0.72731 0.07858 0.0
C7386 C 0.30377 0.72373 0.0836 0.0
C7387 C 0.30584 0.7176 0.08432 0.0
H7388 H 0.30424 0.73205 0.07803 0.0
H7389 H 0.32394 0.67232 0.08429 0.0
H7390 H 0.69013 0.28917 0.0753 0.0
H7391 H 0.69838 0.29704 0.07533 0.0
H7392 H 0.68683 0.30914 0.08647 0.0
H7393 H 0.67849 0.30138 0.08629 0.0
H7394 H 0.69202 0.31536 0.07698 0.0
H7395 H 0.69912 0.30122 0.09282 0.0
H7396 H 0.70213 0.29101 0.09712 0.0
H7397 H 0.7167 0.28946 0.0835 0.0
H7398 H 0.71372 0.29963 0.07907 0.0
H7399 H 0.71443 0.33763 0.08602 0.0
H7400 H 0.70674 0.32924 0.08621 0.0
H7401 H 0.71883 0.3178 0.07496 0.0
H7402 H 0.72665 0.32611 0.07491 0.0
H7403 H 0.71354 0.3111 0.08423 0.0
H7404 H 0.70659 0.32515 0.06842 0.0
H7405 H 0.70363 0.33531 0.06398 0.0
H7406 H 0.6888 0.33695 0.0773 0.0
H7407 H 0.69173 0.32683 0.08189 0.0
C7408 C 0.68934 0.29351 0.07774 0.0
C7409 C 0.68365 0.29464 0.0808 0.0
C7410 C 0.69408 0.29799 0.0778 0.0
C7411 C 0.69324 0.30366 0.08095 0.0
C7412 C 0.68758 0.30479 0.08402 0.0
C7413 C 0.68284 0.30032 0.08397 0.0
C7414 C 0.69819 0.3085 0.08091 0.0
C7415 C 0.6967 0.31445 0.07865 0.0
C7416 C 0.70435 0.30727 0.08291 0.0
C7417 C 0.70616 0.30116 0.08558 0.0
C7418 C 0.70293 0.29868 0.09071 0.0
C7419 C 0.70464 0.2929 0.09318 0.0
C7420 C 0.70959 0.28958 0.09057 0.0
C7421 C 0.71286 0.29203 0.08551 0.0
C7422 C 0.71117 0.29781 0.08302 0.0
C7423 C 0.7155 0.3333 0.08365 0.0
C7424 C 0.72116 0.33255 0.08043 0.0
C7425 C 0.71107 0.32853 0.08371 0.0
C7426 C 0.71217 0.32293 0.08053 0.0
C7427 C 0.71787 0.3221 0.07742 0.0
C7428 C 0.72231 0.32687 0.07736 0.0
C7429 C 0.70734 0.31797 0.08037 0.0
C7430 C 0.70885 0.31201 0.08257 0.0
C7431 C 0.70121 0.31918 0.07829 0.0
C7432 C 0.69942 0.32526 0.07554 0.0
C7433 C 0.70273 0.3277 0.07044 0.0
C7434 C 0.70105 0.33345 0.06789 0.0
C7435 C 0.69604 0.33678 0.07037 0.0
C7436 C 0.69269 0.33436 0.07539 0.0
C7437 C 0.69435 0.32862 0.07796 0.0
H7438 H 0.69475 0.34123 0.06838 0.0
H7439 H 0.71091 0.28511 0.09249 0.0
H7440 H 0.59011 0.82798 0.79093 0.0
H7441 H 0.59047 0.81971 0.79877 0.0
H7442 H 0.57335 0.82654 0.8068 0.0
H7443 H 0.57305 0.83489 0.79909 0.0
H7444 H 0.58192 0.8242 0.81562 0.0
H7445 H 0.57345 0.81349 0.79792 0.0
H7446 H 0.57315 0.80987 0.78703 0.0
H7447 H 0.59037 0.80006 0.78969 0.0
H7448 H 0.59081 0.8037 0.80058 0.0
H7449 H 0.57342 0.79891 0.8347 0.0
H7450 H 0.57363 0.80666 0.8264 0.0
H7451 H 0.59105 0.79917 0.81975 0.0
H7452 H 0.5908 0.79127 0.828 0.0
H7453 H 0.58288 0.80175 0.81018 0.0
H7454 H 0.59115 0.81226 0.82803 0.0
H7455 H 0.5913 0.81582 0.83894 0.0
H7456 H 0.57435 0.826 0.83599 0.0
H7457 H 0.57405 0.82243 0.82508 0.0
C7458 C 0.58644 0.82773 0.79439 0.0
C7459 C 0.58154 0.83209 0.79438 0.0
C7460 C 0.58662 0.82298 0.79883 0.0
C7461 C 0.58191 0.82248 0.80334 0.0
C7462 C 0.57703 0.82683 0.80335 0.0
C7463 C 0.57684 0.83157 0.79891 0.0
C7464 C 0.58211 0.81752 0.80814 0.0
C7465 C 0.58206 0.81929 0.81443 0.0
C7466 C 0.58245 0.81112 0.80659 0.0
C7467 C 0.5822 0.80893 0.80004 0.0
C7468 C 0.5772 0.81061 0.79617 0.0
C7469 C 0.577 0.80854 0.79 0.0
C7470 C 0.58175 0.80475 0.78767 0.0
C7471 C 0.5867 0.803 0.7915 0.0
C7472 C 0.58693 0.80506 0.79767 0.0
C7473 C 0.57726 0.79886 0.83144 0.0
C7474 C 0.58209 0.79448 0.83201 0.0
C7475 C 0.5774 0.80333 0.82672 0.0
C7476 C 0.58239 0.80353 0.8225 0.0
C7477 C 0.58717 0.7991 0.82298 0.0
C7478 C 0.58704 0.79463 0.82772 0.0
C7479 C 0.58263 0.80844 0.81765 0.0
C7480 C 0.58277 0.80666 0.81137 0.0
C7481 C 0.58236 0.81485 0.8192 0.0
C7482 C 0.58255 0.81703 0.82575 0.0
C7483 C 0.58743 0.81522 0.82972 0.0
C7484 C 0.58755 0.81725 0.8359 0.0
C7485 C 0.58283 0.82112 0.83816 0.0
C7486 C 0.578 0.82299 0.83424 0.0
C7487 C 0.57785 0.82097 0.82805 0.0
H7488 H 0.58293 0.82269 0.84295 0.0
H7489 H 0.58158 0.80315 0.78289 0.0
H7490 H 0.18985 0.58487 0.78884 0.0
H7491 H 0.19823 0.58541 0.79659 0.0
H7492 H 0.18593 0.57751 0.81038 0.0
H7493 H 0.17756 0.57697 0.80267 0.0
H7494 H 0.19252 0.58806 0.81454 0.0
H7495 H 0.19646 0.56853 0.80401 0.0
H7496 H 0.19847 0.56191 0.79484 0.0
H7497 H 0.21501 0.57242 0.79076 0.0
H7498 H 0.21305 0.57916 0.79986 0.0
H7499 H 0.21265 0.57938 0.83875 0.0
H7500 H 0.20502 0.57956 0.83033 0.0
H7501 H 0.21951 0.58447 0.81728 0.0
H7502 H 0.22721 0.58414 0.8257 0.0
H7503 H 0.21219 0.57615 0.81224 0.0
H7504 H 0.20881 0.59539 0.82276 0.0
H7505 H 0.20698 0.60236 0.83171 0.0
H7506 H 0.18964 0.5931 0.83547 0.0
H7507 H 0.19141 0.58602 0.8266 0.0
C7508 C 0.18894 0.58327 0.79353 0.0
C7509 C 0.18307 0.58086 0.79515 0.0
C7510 C 0.19373 0.58355 0.79794 0.0
C7511 C 0.1927 0.58147 0.80404 0.0
C7512 C 0.18682 0.57913 0.80569 0.0
C7513 C 0.18206 0.57879 0.80127 0.0
C7514 C 0.19772 0.58174 0.80876 0.0
C7515 C 0.1968 0.58542 0.81408 0.0
C7516 C 0.20338 0.57845 0.80804 0.0
C7517 C 0.20457 0.57439 0.80258 0.0
C7518 C 0.2005 0.56946 0.80113 0.0
C7519 C 0.20163 0.56568 0.79595 0.0
C7520 C 0.20685 0.56676 0.79221 0.0
C7521 C 0.21096 0.5716 0.79365 0.0
C7522 C 0.20984 0.5754 0.79882 0.0
C7523 C 0.2142 0.58054 0.83409 0.0
C7524 C 0.22051 0.5818 0.83289 0.0
C7525 C 0.20984 0.58065 0.82928 0.0
C7526 C 0.21166 0.58215 0.82318 0.0
C7527 C 0.21798 0.58332 0.82195 0.0
C7528 C 0.22237 0.58314 0.82676 0.0
C7529 C 0.20696 0.58241 0.81811 0.0
C7530 C 0.20794 0.57884 0.81271 0.0
C7531 C 0.20138 0.58587 0.81872 0.0
C7532 C 0.20027 0.59014 0.82404 0.0
C7533 C 0.20463 0.59481 0.82552 0.0
C7534 C 0.2036 0.59879 0.83058 0.0
C7535 C 0.1982 0.59816 0.83416 0.0
C7536 C 0.19382 0.59357 0.83269 0.0
C7537 C 0.19483 0.58958 0.82765 0.0
H7538 H 0.19741 0.60124 0.83807 0.0
H7539 H 0.20772 0.56383 0.7882 0.0
H7540 H 0.42941 0.17868 0.80097 0.0
H7541 H 0.42904 0.18722 0.80847 0.0
H7542 H 0.43877 0.19911 0.79553 0.0
H7543 H 0.43916 0.19057 0.78798 0.0
H7544 H 0.44366 0.20007 0.80692 0.0
H7545 H 0.42319 0.201 0.79825 0.0
H7546 H 0.41298 0.19691 0.79494 0.0
H7547 H 0.4088 0.19172 0.81378 0.0
H7548 H 0.41903 0.1957 0.81719 0.0
H7549 H 0.43885 0.22752 0.82492 0.0
H7550 H 0.43861 0.21993 0.81642 0.0
H7551 H 0.42912 0.20682 0.82832 0.0
H7552 H 0.42934 0.21437 0.83683 0.0
H7553 H 0.424 0.20702 0.8169 0.0
H7554 H 0.44473 0.20558 0.82542 0.0
H7555 H 0.45496 0.20966 0.82869 0.0
H7556 H 0.45862 0.21584 0.81004 0.0
H7557 H 0.44837 0.21188 0.80667 0.0
C7558 C 0.43139 0.18314 0.79968 0.0
C7559 C 0.43429 0.18395 0.79386 0.0
C7560 C 0.43118 0.18801 0.80398 0.0
C7561 C 0.43381 0.19383 0.80254 0.0
C7562 C 0.43671 0.19466 0.79674 0.0
C7563 C 0.43694 0.18978 0.79244 0.0
C7564 C 0.43368 0.19898 0.80716 0.0
C7565 C 0.43935 0.20166 0.80903 0.0
C7566 C 0.42807 0.20098 0.80999 0.0
C7567 C 0.4219 0.1986 0.80796 0.0
C7568 C 0.42011 0.19894 0.80168 0.0
C7569 C 0.41432 0.19665 0.79978 0.0
C7570 C 0.41025 0.19404 0.80414 0.0
C7571 C 0.41196 0.19374 0.81041 0.0
C7572 C 0.41775 0.19602 0.81232 0.0
C7573 C 0.43674 0.22301 0.82573 0.0
C7574 C 0.43413 0.22154 0.83156 0.0
C7575 C 0.4366 0.21868 0.82087 0.0
C7576 C 0.43391 0.21278 0.82175 0.0
C7577 C 0.4312 0.21135 0.82752 0.0
C7578 C 0.43132 0.21568 0.83238 0.0
C7579 C 0.43398 0.20805 0.8167 0.0
C7580 C 0.4283 0.20545 0.81476 0.0
C7581 C 0.43958 0.20613 0.81379 0.0
C7582 C 0.44575 0.20849 0.81581 0.0
C7583 C 0.44769 0.20785 0.82202 0.0
C7584 C 0.4535 0.21014 0.8239 0.0
C7585 C 0.45743 0.21302 0.81958 0.0
C7586 C 0.45557 0.21361 0.81338 0.0
C7587 C 0.44976 0.21135 0.81149 0.0
H7588 H 0.46192 0.21479 0.82104 0.0
H7589 H 0.40576 0.19227 0.80267 0.0
H7590 H 0.79506 0.42368 0.83141 0.0
H7591 H 0.80269 0.4233 0.82297 0.0
H7592 H 0.80174 0.44327 0.82112 0.0
H7593 H 0.79425 0.44374 0.82967 0.0
H7594 H 0.80157 0.43702 0.80967 0.0
H7595 H 0.81354 0.43717 0.82869 0.0
H7596 H 0.81653 0.43333 0.83908 0.0
H7597 H 0.8212 0.41552 0.83126 0.0
H7598 H 0.81816 0.41923 0.82083 0.0
H7599 H 0.829 0.4436 0.79273 0.0
H7600 H 0.82051 0.44301 0.80024 0.0
H7601 H 0.82452 0.42355 0.80331 0.0
H7602 H 0.83329 0.42421 0.7961 0.0
H7603 H 0.82278 0.42893 0.81392 0.0
H7604 H 0.81145 0.42873 0.79482 0.0
H7605 H 0.80833 0.43232 0.78438 0.0
H7606 H 0.80225 0.44975 0.79209 0.0
H7607 H 0.80542 0.4463 0.80256 0.0
C7608 C 0.7965 0.42801 0.82925 0.0
C7609 C 0.79405 0.43375 0.83126 0.0
C7610 C 0.80083 0.42777 0.82439 0.0
C7611 C 0.8028 0.43326 0.82145 0.0
C7612 C 0.80026 0.43898 0.82332 0.0
C7613 C 0.79595 0.43923 0.8282 0.0
C7614 C 0.80767 0.43308 0.81656 0.0
C7615 C 0.80623 0.43531 0.81059 0.0
C7616 C 0.81369 0.43068 0.81774 0.0
C7617 C 0.81556 0.42846 0.824 0.0
C7618 C 0.81516 0.43242 0.8292 0.0
C7619 C 0.81687 0.43027 0.83509 0.0
C7620 C 0.81904 0.42418 0.83583 0.0
C7621 C 0.81951 0.42023 0.83068 0.0
C7622 C 0.8178 0.42236 0.82478 0.0
C7623 C 0.82812 0.4392 0.79503 0.0
C7624 C 0.83187 0.43396 0.79381 0.0
C7625 C 0.82319 0.43884 0.79926 0.0
C7626 C 0.8218 0.43321 0.80229 0.0
C7627 C 0.82548 0.42795 0.80102 0.0
C7628 C 0.83046 0.42832 0.79684 0.0
C7629 C 0.81672 0.4329 0.80698 0.0
C7630 C 0.81812 0.43059 0.81294 0.0
C7631 C 0.81065 0.43518 0.80577 0.0
C7632 C 0.80872 0.43727 0.79947 0.0
C7633 C 0.80949 0.43335 0.79428 0.0
C7634 C 0.80771 0.43536 0.78836 0.0
C7635 C 0.80511 0.44127 0.78757 0.0
C7636 C 0.80427 0.44518 0.79271 0.0
C7637 C 0.80605 0.44319 0.79864 0.0
H7638 H 0.80373 0.44282 0.78298 0.0
H7639 H 0.82036 0.42252 0.8404 0.0
H7640 H 0.58674 0.17759 0.2131 0.0
H7641 H 0.58716 0.1861 0.20557 0.0
H7642 H 0.57802 0.19825 0.21871 0.0
H7643 H 0.57759 0.18974 0.22628 0.0
H7644 H 0.5729 0.19928 0.20744 0.0
H7645 H 0.59358 0.19972 0.21567 0.0
H7646 H 0.60376 0.19538 0.21872 0.0
H7647 H 0.60736 0.19017 0.19976 0.0
H7648 H 0.59716 0.1944 0.19661 0.0
H7649 H 0.57798 0.22683 0.18975 0.0
H7650 H 0.57823 0.2191 0.19812 0.0
H7651 H 0.58715 0.20598 0.18579 0.0
H7652 H 0.58691 0.21367 0.17741 0.0
H7653 H 0.5925 0.20587 0.1971 0.0
H7654 H 0.57159 0.20501 0.18901 0.0
H7655 H 0.5614 0.20935 0.18599 0.0
H7656 H 0.55825 0.21538 0.20479 0.0
H7657 H 0.56847 0.21115 0.2079 0.0
C7658 C 0.58489 0.18209 0.21442 0.0
C7659 C 0.58215 0.18299 0.2203 0.0
C7660 C 0.58513 0.18696 0.21011 0.0
C7661 C 0.58268 0.19284 0.2116 0.0
C7662 C 0.57993 0.19375 0.21746 0.0
C7663 C 0.57968 0.18888 0.22177 0.0
C7664 C 0.58284 0.19797 0.20698 0.0
C7665 C 0.5772 0.20079 0.20525 0.0
C7666 C 0.58843 0.19986 0.20404 0.0
C7667 C 0.59458 0.19733 0.20591 0.0
C7668 C 0.59652 0.19761 0.21216 0.0
C7669 C 0.6023 0.19518 0.2139 0.0
C7670 C 0.6062 0.19249 0.20944 0.0
C7671 C 0.60434 0.19225 0.20321 0.0
C7672 C 0.59856 0.19467 0.20144 0.0
C7673 C 0.57997 0.22229 0.18882 0.0
C7674 C 0.5824 0.22085 0.18291 0.0
C7675 C 0.58012 0.21788 0.1936 0.0
C7676 C 0.58265 0.21194 0.19256 0.0
C7677 C 0.58519 0.21054 0.18671 0.0
C7678 C 0.58507 0.21495 0.18192 0.0
C7679 C 0.58256 0.20713 0.19753 0.0
C7680 C 0.58821 0.20438 0.19932 0.0
C7681 C 0.57698 0.20531 0.20053 0.0
C7682 C 0.57082 0.20782 0.19867 0.0
C7683 C 0.56874 0.2073 0.19249 0.0
C7684 C 0.56296 0.20973 0.19076 0.0
C7685 C 0.55919 0.21265 0.19519 0.0
C7686 C 0.56118 0.21313 0.20136 0.0
C7687 C 0.56697 0.21071 0.20311 0.0
H7688 H 0.55471 0.21453 0.19385 0.0
H7689 H 0.61067 0.19061 0.2108 0.0
H7690 H 0.78777 0.58306 0.19008 0.0
H7691 H 0.79541 0.58281 0.19858 0.0
H7692 H 0.81022 0.58035 0.18523 0.0
H7693 H 0.80263 0.58058 0.17674 0.0
H7694 H 0.81071 0.572 0.19534 0.0
H7695 H 0.80823 0.59413 0.19154 0.0
H7696 H 0.80216 0.60383 0.19059 0.0
H7697 H 0.79585 0.60188 0.20945 0.0
H7698 H 0.80182 0.59212 0.21049 0.0
H7699 H 0.83799 0.57768 0.21227 0.0
H7700 H 0.82944 0.57797 0.20479 0.0
H7701 H 0.81683 0.58371 0.21935 0.0
H7702 H 0.82545 0.58359 0.22684 0.0
H7703 H 0.81443 0.59004 0.20931 0.0
H7704 H 0.81701 0.56849 0.21363 0.0
H7705 H 0.82263 0.55856 0.21494 0.0
H7706 H 0.82802 0.55892 0.1957 0.0
H7707 H 0.82251 0.56891 0.1943 0.0
C7708 C 0.79266 0.58246 0.18897 0.0
C7709 C 0.79462 0.58187 0.18275 0.0
C7710 C 0.79701 0.58235 0.19382 0.0
C7711 C 0.80338 0.58159 0.19252 0.0
C7712 C 0.80533 0.58095 0.18632 0.0
C7713 C 0.801 0.58113 0.18148 0.0
C7714 C 0.80803 0.58139 0.1976 0.0
C7715 C 0.81157 0.57596 0.19836 0.0
C7716 C 0.80898 0.58648 0.20168 0.0
C7717 C 0.80542 0.59236 0.20107 0.0
C7718 C 0.80551 0.59574 0.19547 0.0
C7719 C 0.80209 0.60126 0.19492 0.0
C7720 C 0.79861 0.60346 0.19995 0.0
C7721 C 0.79854 0.60017 0.20555 0.0
C7722 C 0.80195 0.59464 0.20613 0.0
C7723 C 0.83339 0.57898 0.21388 0.0
C7724 C 0.83237 0.58056 0.22014 0.0
C7725 C 0.8285 0.57913 0.20961 0.0
C7726 C 0.82245 0.58073 0.21153 0.0
C7727 C 0.82144 0.58243 0.21776 0.0
C7728 C 0.82636 0.58237 0.22203 0.0
C7729 C 0.81722 0.58068 0.20699 0.0
C7730 C 0.81355 0.58605 0.20633 0.0
C7731 C 0.81608 0.57549 0.20306 0.0
C7732 C 0.81939 0.56947 0.20387 0.0
C7733 C 0.81943 0.56647 0.20969 0.0
C7734 C 0.82259 0.56083 0.21045 0.0
C7735 C 0.82569 0.55812 0.20541 0.0
C7736 C 0.82562 0.56103 0.1996 0.0
C7737 C 0.82248 0.56668 0.19882 0.0
H7738 H 0.82813 0.55375 0.20601 0.0
H7739 H 0.79597 0.60774 0.19951 0.0
H7740 H 0.44012 0.82609 0.22629 0.0
H7741 H 0.43983 0.81752 0.21879 0.0
H7742 H 0.42853 0.82864 0.20649 0.0
H7743 H 0.42882 0.83724 0.21394 0.0
H7744 H 0.42424 0.81681 0.20719 0.0
H7745 H 0.44404 0.8269 0.20391 0.0
H7746 H 0.4543 0.83103 0.20704 0.0
H7747 H 0.45992 0.81277 0.21295 0.0
H7748 H 0.44965 0.80855 0.20993 0.0
H7749 H 0.42859 0.80105 0.17854 0.0
H7750 H 0.42828 0.80858 0.18706 0.0
H7751 H 0.4398 0.79649 0.1982 0.0
H7752 H 0.4401 0.7889 0.1897 0.0
H7753 H 0.44394 0.80829 0.1986 0.0
H7754 H 0.42436 0.79805 0.20137 0.0
H7755 H 0.41413 0.7939 0.19822 0.0
H7756 H 0.40807 0.81232 0.19333 0.0
H7757 H 0.41831 0.81657 0.19637 0.0
C7758 C 0.4376 0.82673 0.22198 0.0
C7759 C 0.43452 0.83237 0.2207 0.0
C7760 C 0.43743 0.82182 0.2177 0.0
C7761 C 0.43421 0.82247 0.21205 0.0
C7762 C 0.43102 0.82804 0.21082 0.0
C7763 C 0.43118 0.83294 0.2151 0.0
C7764 C 0.43426 0.81739 0.20735 0.0
C7765 C 0.42855 0.81499 0.20526 0.0
C7766 C 0.43988 0.8149 0.20496 0.0
C7767 C 0.44606 0.81743 0.20675 0.0
C7768 C 0.44745 0.82378 0.20592 0.0
C7769 C 0.45327 0.82613 0.20767 0.0
C7770 C 0.45775 0.82216 0.21021 0.0
C7771 C 0.45644 0.81584 0.21099 0.0
C7772 C 0.45062 0.81346 0.20926 0.0
C7773 C 0.43098 0.79994 0.18284 0.0
C7774 C 0.43436 0.79436 0.18344 0.0
C7775 C 0.43081 0.80426 0.1877 0.0
C7776 C 0.43397 0.80307 0.1933 0.0
C7777 C 0.43733 0.7975 0.19393 0.0
C7778 C 0.43751 0.79318 0.18906 0.0
C7779 C 0.43392 0.80774 0.1984 0.0
C7780 C 0.43963 0.81007 0.20056 0.0
C7781 C 0.4283 0.81016 0.20086 0.0
C7782 C 0.42213 0.80762 0.19905 0.0
C7783 C 0.42087 0.80121 0.19958 0.0
C7784 C 0.41506 0.79884 0.19782 0.0
C7785 C 0.41046 0.80284 0.19557 0.0
C7786 C 0.41164 0.80922 0.19508 0.0
C7787 C 0.41745 0.81162 0.19682 0.0
H7788 H 0.40596 0.80099 0.19421 0.0
H7789 H 0.46225 0.82399 0.21155 0.0
H7790 H 0.18231 0.44346 0.21777 0.0
H7791 H 0.19062 0.44323 0.21002 0.0
H7792 H 0.19664 0.42535 0.2169 0.0
H7793 H 0.18839 0.42561 0.2248 0.0
H7794 H 0.20652 0.43325 0.21451 0.0
H7795 H 0.18831 0.42596 0.20388 0.0
H7796 H 0.17737 0.4263 0.20041 0.0
H7797 H 0.1809 0.44347 0.19077 0.0
H7798 H 0.19184 0.44328 0.19427 0.0
H7799 H 0.22534 0.42619 0.18789 0.0
H7800 H 0.21758 0.42587 0.19625 0.0
H7801 H 0.21013 0.44346 0.19004 0.0
H7802 H 0.21775 0.44373 0.1816 0.0
H7803 H 0.20101 0.43513 0.19217 0.0
H7804 H 0.2191 0.44261 0.20299 0.0
H7805 H 0.23002 0.4424 0.20654 0.0
H7806 H 0.22674 0.42498 0.2158 0.0
H7807 H 0.21582 0.42505 0.21224 0.0
C7808 C 0.18545 0.43951 0.2177 0.0
C7809 C 0.18469 0.43455 0.2219 0.0
C7810 C 0.19016 0.43936 0.21322 0.0
C7811 C 0.1942 0.43424 0.21284 0.0
C7812 C 0.19356 0.42933 0.21711 0.0
C7813 C 0.18882 0.42947 0.22158 0.0
C7814 C 0.19903 0.43399 0.20789 0.0
C7815 C 0.20532 0.43356 0.20962 0.0
C7816 C 0.19746 0.43452 0.20152 0.0
C7817 C 0.19088 0.43463 0.19938 0.0
C7818 C 0.18674 0.42984 0.20106 0.0
C7819 C 0.18054 0.43 0.19908 0.0
C7820 C 0.17844 0.43491 0.19538 0.0
C7821 C 0.18253 0.43967 0.19364 0.0
C7822 C 0.18874 0.43953 0.19562 0.0
C7823 C 0.22203 0.42997 0.1883 0.0
C7824 C 0.22217 0.43499 0.18409 0.0
C7825 C 0.21764 0.42981 0.1931 0.0
C7826 C 0.2133 0.43466 0.1938 0.0
C7827 C 0.21344 0.43967 0.1896 0.0
C7828 C 0.21783 0.43984 0.18481 0.0
C7829 C 0.20852 0.43447 0.19878 0.0
C7830 C 0.20222 0.4348 0.19706 0.0
C7831 C 0.21009 0.43386 0.20515 0.0
C7832 C 0.21666 0.4338 0.20729 0.0
C7833 C 0.22072 0.43871 0.20574 0.0
C7834 C 0.22691 0.43862 0.20776 0.0
C7835 C 0.22908 0.43367 0.21138 0.0
C7836 C 0.22506 0.4288 0.21299 0.0
C7837 C 0.21887 0.42887 0.21097 0.0
H7838 H 0.23387 0.43361 0.21294 0.0
H7839 H 0.17364 0.43503 0.19385 0.0
H7840 H 0.82531 0.5844 0.78726 0.0
H7841 H 0.81694 0.58411 0.79505 0.0
H7842 H 0.83048 0.58056 0.80944 0.0
H7843 H 0.83884 0.58085 0.80169 0.0
H7844 H 0.82005 0.57252 0.80975 0.0
H7845 H 0.82465 0.59458 0.80826 0.0
H7846 H 0.82591 0.60453 0.80266 0.0
H7847 H 0.80687 0.60359 0.79659 0.0
H7848 H 0.80553 0.59358 0.8021 0.0
H7849 H 0.80354 0.5775 0.83748 0.0
H7850 H 0.81097 0.57789 0.82888 0.0
H7851 H 0.79653 0.58472 0.8167 0.0
H7852 H 0.7891 0.58448 0.82538 0.0
H7853 H 0.80679 0.59083 0.81453 0.0
H7854 H 0.80169 0.56933 0.81612 0.0
H7855 H 0.80007 0.55919 0.82125 0.0
H7856 H 0.81938 0.55863 0.8264 0.0
H7857 H 0.8211 0.56882 0.82138 0.0
C7858 C 0.82649 0.58356 0.79209 0.0
C7859 C 0.83272 0.58268 0.79388 0.0
C7860 C 0.82172 0.58342 0.79653 0.0
C7861 C 0.82311 0.58234 0.80282 0.0
C7862 C 0.82932 0.58141 0.80461 0.0
C7863 C 0.83409 0.58162 0.80019 0.0
C7864 C 0.8181 0.5821 0.80756 0.0
C7865 C 0.81718 0.57654 0.81085 0.0
C7866 C 0.81422 0.58728 0.80881 0.0
C7867 C 0.81502 0.5933 0.80553 0.0
C7868 C 0.82075 0.59647 0.80569 0.0
C7869 C 0.82147 0.60212 0.80254 0.0
C7870 C 0.81648 0.60468 0.79926 0.0
C7871 C 0.81074 0.6016 0.79913 0.0
C7872 C 0.81 0.59594 0.80227 0.0
C7873 C 0.80195 0.57906 0.83296 0.0
C7874 C 0.79574 0.58092 0.83208 0.0
C7875 C 0.80619 0.57927 0.82804 0.0
C7876 C 0.80429 0.58122 0.8221 0.0
C7877 C 0.7981 0.58318 0.82123 0.0
C7878 C 0.79387 0.58304 0.82619 0.0
C7879 C 0.80879 0.58127 0.81683 0.0
C7880 C 0.80961 0.58679 0.81342 0.0
C7881 C 0.81252 0.57601 0.8154 0.0
C7882 C 0.81151 0.56987 0.81841 0.0
C7883 C 0.80558 0.56707 0.81838 0.0
C7884 C 0.80465 0.56131 0.82127 0.0
C7885 C 0.80962 0.55827 0.82416 0.0
C7886 C 0.81554 0.56099 0.82416 0.0
C7887 C 0.8165 0.56675 0.82129 0.0
H7888 H 0.80889 0.55381 0.82639 0.0
H7889 H 0.81704 0.60906 0.79682 0.0
H7890 H 0.44291 0.82947 0.79277 0.0
H7891 H 0.44254 0.82092 0.80024 0.0
H7892 H 0.42267 0.82324 0.80204 0.0
H7893 H 0.42295 0.83169 0.79442 0.0
H7894 H 0.42883 0.82269 0.81342 0.0
H7895 H 0.42805 0.81103 0.79433 0.0
H7896 H 0.4316 0.80791 0.78386 0.0
H7897 H 0.44915 0.80205 0.79142 0.0
H7898 H 0.44574 0.80522 0.80192 0.0
H7899 H 0.42408 0.79643 0.83254 0.0
H7900 H 0.4234 0.80372 0.82387 0.0
H7901 H 0.44268 0.80027 0.81936 0.0
H7902 H 0.44329 0.79267 0.82777 0.0
H7903 H 0.43636 0.80127 0.80909 0.0
H7904 H 0.43783 0.81338 0.8278 0.0
H7905 H 0.43488 0.81679 0.83835 0.0
H7906 H 0.41681 0.82217 0.83169 0.0
H7907 H 0.41964 0.81871 0.8211 0.0
C7908 C 0.43843 0.82809 0.79465 0.0
C7909 C 0.43296 0.83128 0.79297 0.0
C7910 C 0.43824 0.82322 0.79894 0.0
C7911 C 0.43257 0.82142 0.80167 0.0
C7912 C 0.42709 0.82456 0.8 0.0
C7913 C 0.42727 0.82941 0.79566 0.0
C7914 C 0.43241 0.81644 0.80644 0.0
C7915 C 0.43037 0.81797 0.81245 0.0
C7916 C 0.43461 0.81035 0.80521 0.0
C7917 C 0.43666 0.80842 0.79891 0.0
C7918 C 0.43269 0.80913 0.79375 0.0
C7919 C 0.43467 0.80734 0.78782 0.0
C7920 C 0.4406 0.8048 0.78698 0.0
C7921 C 0.44456 0.80403 0.79208 0.0
C7922 C 0.4426 0.80581 0.79802 0.0
C7923 C 0.42815 0.79712 0.82964 0.0
C7924 C 0.43376 0.79398 0.83091 0.0
C7925 C 0.42777 0.80136 0.82472 0.0
C7926 C 0.43302 0.80265 0.82103 0.0
C7927 C 0.43857 0.79939 0.82216 0.0
C7928 C 0.43894 0.79509 0.82703 0.0
C7929 C 0.43279 0.80751 0.8161 0.0
C7930 C 0.43477 0.80596 0.81006 0.0
C7931 C 0.43063 0.81362 0.81732 0.0
C7932 C 0.42892 0.81572 0.82367 0.0
C7933 C 0.43321 0.81525 0.82859 0.0
C7934 C 0.43156 0.8172 0.83458 0.0
C7935 C 0.42565 0.81968 0.83569 0.0
C7936 C 0.42138 0.82023 0.83082 0.0
C7937 C 0.42301 0.81828 0.82482 0.0
H7938 H 0.42438 0.82119 0.84033 0.0
H7939 H 0.44213 0.80342 0.78238 0.0
H7940 H 0.217 0.44452 0.83491 0.0
H7941 H 0.20924 0.44432 0.8266 0.0
H7942 H 0.21658 0.42679 0.82007 0.0
H7943 H 0.22448 0.42703 0.82829 0.0
H7944 H 0.21404 0.43481 0.81045 0.0
H7945 H 0.20348 0.42695 0.82846 0.0
H7946 H 0.19993 0.42702 0.83938 0.0
H7947 H 0.18992 0.44402 0.83615 0.0
H7948 H 0.19348 0.4441 0.82523 0.0
H7949 H 0.18776 0.42714 0.79149 0.0
H7950 H 0.19606 0.42702 0.7993 0.0
H7951 H 0.18924 0.44434 0.80687 0.0
H7952 H 0.18085 0.44441 0.79919 0.0
H7953 H 0.19161 0.43602 0.81592 0.0
H7954 H 0.20229 0.44401 0.79798 0.0
H7955 H 0.20588 0.44402 0.78708 0.0
H7956 H 0.21566 0.42686 0.79015 0.0
H7957 H 0.21205 0.42669 0.80105 0.0
C7958 C 0.21702 0.44065 0.83166 0.0
C7959 C 0.22135 0.43578 0.83227 0.0
C7960 C 0.21254 0.44052 0.82695 0.0
C7961 C 0.21229 0.43551 0.82276 0.0
C7962 C 0.21668 0.4307 0.82327 0.0
C7963 C 0.22116 0.43082 0.828 0.0
C7964 C 0.20736 0.43526 0.81793 0.0
C7965 C 0.20913 0.43498 0.81164 0.0
C7966 C 0.20097 0.43561 0.81948 0.0
C7967 C 0.19879 0.43556 0.82604 0.0
C7968 C 0.20056 0.43073 0.83009 0.0
C7969 C 0.19854 0.43073 0.83628 0.0
C7970 C 0.19471 0.43552 0.83846 0.0
C7971 C 0.19289 0.44031 0.83445 0.0
C7972 C 0.1949 0.44033 0.82826 0.0
C7973 C 0.18801 0.43091 0.79484 0.0
C7974 C 0.18365 0.43579 0.79471 0.0
C7975 C 0.19279 0.43086 0.79926 0.0
C7976 C 0.1933 0.4357 0.80363 0.0
C7977 C 0.18895 0.44057 0.80353 0.0
C7978 C 0.18418 0.44063 0.7991 0.0
C7979 C 0.19827 0.43563 0.80843 0.0
C7980 C 0.19651 0.43584 0.81472 0.0
C7981 C 0.20467 0.43522 0.80687 0.0
C7982 C 0.20684 0.4353 0.80031 0.0
C7983 C 0.20516 0.44021 0.79631 0.0
C7984 C 0.20721 0.44025 0.79014 0.0
C7985 C 0.21098 0.43543 0.78792 0.0
C7986 C 0.21273 0.43058 0.79187 0.0
C7987 C 0.21068 0.43051 0.79805 0.0
H7988 H 0.21257 0.43548 0.78313 0.0
H7989 H 0.19315 0.43552 0.84325 0.0
H7990 H 0.57733 0.21329 0.83793 0.0
H7991 H 0.57798 0.20574 0.82942 0.0
H7992 H 0.58589 0.21984 0.81749 0.0
H7993 H 0.58526 0.22744 0.82602 0.0
H7994 H 0.57611 0.21265 0.81191 0.0
H7995 H 0.59532 0.20959 0.82292 0.0
H7996 H 0.60183 0.2078 0.83219 0.0
H7997 H 0.5925 0.1904 0.83547 0.0
H7998 H 0.58586 0.19213 0.82627 0.0
H7999 H 0.58428 0.19105 0.78803 0.0
H8000 H 0.5845 0.19938 0.79583 0.0
H8001 H 0.58 0.18602 0.81016 0.0
H8002 H 0.57993 0.17769 0.8024 0.0
H8003 H 0.58866 0.19339 0.81421 0.0
H8004 H 0.56905 0.19646 0.80388 0.0
H8005 H 0.56207 0.19815 0.79493 0.0
H8006 H 0.57153 0.21527 0.79068 0.0
H8007 H 0.57862 0.21364 0.79956 0.0
C8008 C 0.57918 0.21479 0.83348 0.0
C8009 C 0.58125 0.22095 0.83263 0.0
C8010 C 0.57958 0.21047 0.82864 0.0
C8011 C 0.58201 0.21223 0.82284 0.0
C8012 C 0.58401 0.21839 0.82194 0.0
C8013 C 0.58368 0.22271 0.82681 0.0
C8014 C 0.58248 0.20759 0.81775 0.0
C8015 C 0.57893 0.20848 0.81235 0.0
C8016 C 0.58605 0.2021 0.81842 0.0
C8017 C 0.59006 0.20102 0.82393 0.0
C8018 C 0.59462 0.20541 0.82564 0.0
C8019 C 0.59834 0.2044 0.83088 0.0
C8020 C 0.59757 0.19899 0.83443 0.0
C8021 C 0.59309 0.19458 0.83273 0.0
C8022 C 0.58935 0.19558 0.82749 0.0
C8023 C 0.58332 0.18991 0.79284 0.0
C8024 C 0.58209 0.18373 0.79461 0.0
C8025 C 0.58343 0.19467 0.7973 0.0
C8026 C 0.58219 0.19335 0.80358 0.0
C8027 C 0.58099 0.18716 0.80535 0.0
C8028 C 0.58096 0.1824 0.80092 0.0
C8029 C 0.5822 0.19837 0.80836 0.0
C8030 C 0.58586 0.19756 0.81372 0.0
C8031 C 0.57867 0.2039 0.80768 0.0
C8032 C 0.57441 0.20489 0.80234 0.0
C8033 C 0.56967 0.20056 0.80101 0.0
C8034 C 0.56569 0.20151 0.79595 0.0
C8035 C 0.56636 0.20681 0.79223 0.0
C8036 C 0.57101 0.21117 0.79356 0.0
C8037 C 0.57501 0.21024 0.79861 0.0
H8038 H 0.56328 0.20754 0.78832 0.0
H8039 H 0.60045 0.19822 0.83848 0.0
H8040 H 0.78895 0.43969 0.18915 0.0
H8041 H 0.79646 0.43937 0.1977 0.0
H8042 H 0.80903 0.42859 0.18631 0.0
H8043 H 0.80156 0.42892 0.17773 0.0
H8044 H 0.80843 0.42401 0.19798 0.0
H8045 H 0.81126 0.44416 0.18848 0.0
H8046 H 0.80788 0.45445 0.18467 0.0
H8047 H 0.80181 0.45942 0.20306 0.0
H8048 H 0.80507 0.44912 0.20697 0.0
H8049 H 0.83694 0.42857 0.21392 0.0
H8050 H 0.82846 0.42829 0.20636 0.0
H8051 H 0.817 0.43923 0.21873 0.0
H8052 H 0.82547 0.4395 0.22634 0.0
H8053 H 0.81654 0.44367 0.20707 0.0
H8054 H 0.8142 0.42375 0.21671 0.0
H8055 H 0.81759 0.41348 0.22056 0.0
H8056 H 0.82268 0.40806 0.202 0.0
H8057 H 0.81941 0.41834 0.19805 0.0
C8058 C 0.79333 0.43727 0.18845 0.0
C8059 C 0.79467 0.43435 0.18274 0.0
C8060 C 0.79761 0.43709 0.19335 0.0
C8061 C 0.80333 0.43401 0.19262 0.0
C8062 C 0.80463 0.43098 0.18698 0.0
C8063 C 0.80035 0.43115 0.18209 0.0
C8064 C 0.80803 0.43403 0.19769 0.0
C8065 C 0.81025 0.42831 0.19992 0.0
C8066 C 0.81028 0.43964 0.20034 0.0
C8067 C 0.80835 0.44584 0.198 0.0
C8068 C 0.80916 0.44743 0.1917 0.0
C8069 C 0.80727 0.45327 0.18953 0.0
C8070 C 0.80462 0.45758 0.19361 0.0
C8071 C 0.80386 0.45607 0.19989 0.0
C8072 C 0.80573 0.45023 0.20209 0.0
C8073 C 0.83259 0.43084 0.21508 0.0
C8074 C 0.83188 0.43404 0.22075 0.0
C8075 C 0.82774 0.43069 0.21074 0.0
C8076 C 0.82207 0.43369 0.212 0.0
C8077 C 0.82134 0.43688 0.21766 0.0
C8078 C 0.82619 0.43705 0.22199 0.0
C8079 C 0.81698 0.43364 0.20733 0.0
C8080 C 0.81469 0.43937 0.20516 0.0
C8081 C 0.81465 0.42804 0.20474 0.0
C8082 C 0.81661 0.42184 0.2071 0.0
C8083 C 0.81609 0.42039 0.21346 0.0
C8084 C 0.81798 0.41456 0.21566 0.0
C8085 C 0.82036 0.41013 0.21153 0.0
C8086 C 0.82084 0.41151 0.2052 0.0
C8087 C 0.81896 0.41733 0.20297 0.0
H8088 H 0.82182 0.40562 0.21324 0.0
H8089 H 0.80316 0.4621 0.19192 0.0
H8090 H 0.57639 0.78889 0.18929 0.0
H8091 H 0.57669 0.79637 0.19788 0.0
H8092 H 0.58854 0.80844 0.18704 0.0
H8093 H 0.58823 0.80102 0.17842 0.0
H8094 H 0.59252 0.80761 0.19898 0.0
H8095 H 0.57309 0.81139 0.18841 0.0
H8096 H 0.56287 0.8085 0.18403 0.0
H8097 H 0.55661 0.80271 0.20211 0.0
H8098 H 0.56683 0.80548 0.20658 0.0
H8099 H 0.58844 0.83646 0.21449 0.0
H8100 H 0.58876 0.82787 0.20704 0.0
H8101 H 0.57668 0.81704 0.21889 0.0
H8102 H 0.57637 0.8256 0.22641 0.0
H8103 H 0.57283 0.81669 0.20699 0.0
H8104 H 0.59203 0.81348 0.21772 0.0
H8105 H 0.60223 0.81638 0.22213 0.0
H8106 H 0.60893 0.82107 0.20389 0.0
H8107 H 0.59874 0.81828 0.19938 0.0
C8108 C 0.57904 0.79315 0.18872 0.0
C8109 C 0.58226 0.79437 0.18315 0.0
C8110 C 0.57922 0.79741 0.19364 0.0
C8111 C 0.58258 0.80299 0.19308 0.0
C8112 C 0.58592 0.80416 0.18758 0.0
C8113 C 0.58575 0.7999 0.18266 0.0
C8114 C 0.58253 0.8077 0.19815 0.0
C8115 C 0.58822 0.80965 0.20069 0.0
C8116 C 0.57691 0.81022 0.20049 0.0
C8117 C 0.57075 0.80858 0.19782 0.0
C8118 C 0.56956 0.80945 0.19144 0.0
C8119 C 0.56376 0.80784 0.18895 0.0
C8120 C 0.5591 0.8054 0.19279 0.0
C8121 C 0.56023 0.80458 0.19914 0.0
C8122 C 0.56602 0.80618 0.20166 0.0
C8123 C 0.58593 0.83221 0.21557 0.0
C8124 C 0.58239 0.83172 0.22106 0.0
C8125 C 0.58611 0.82731 0.2113 0.0
C8126 C 0.58279 0.82178 0.21244 0.0
C8127 C 0.57927 0.82126 0.21792 0.0
C8128 C 0.57909 0.82617 0.2222 0.0
C8129 C 0.58284 0.81666 0.20779 0.0
C8130 C 0.57713 0.81463 0.20532 0.0
C8131 C 0.58845 0.81405 0.20552 0.0
C8132 C 0.5946 0.81572 0.20822 0.0
C8133 C 0.59566 0.81517 0.21465 0.0
C8134 C 0.60145 0.81679 0.21717 0.0
C8135 C 0.60622 0.81892 0.21329 0.0
C8136 C 0.60523 0.81942 0.20689 0.0
C8137 C 0.59945 0.81782 0.20435 0.0
H8138 H 0.6107 0.82017 0.21525 0.0
H8139 H 0.55462 0.80416 0.19085 0.0
H8140 H 0.22421 0.5899 0.18642 0.0
H8141 H 0.21648 0.59023 0.1948 0.0
H8142 H 0.20971 0.57211 0.18932 0.0
H8143 H 0.21729 0.57183 0.18084 0.0
H8144 H 0.20028 0.58001 0.19125 0.0
H8145 H 0.21877 0.57393 0.20222 0.0
H8146 H 0.2297 0.57481 0.20564 0.0
H8147 H 0.22573 0.59249 0.21413 0.0
H8148 H 0.21479 0.59175 0.21068 0.0
H8149 H 0.18199 0.57247 0.21743 0.0
H8150 H 0.19022 0.57253 0.20958 0.0
H8151 H 0.19585 0.5909 0.21551 0.0
H8152 H 0.18772 0.59081 0.22352 0.0
H8153 H 0.20588 0.58329 0.21341 0.0
H8154 H 0.18731 0.58923 0.20257 0.0
H8155 H 0.17637 0.58823 0.19922 0.0
H8156 H 0.18053 0.5707 0.1905 0.0
H8157 H 0.19148 0.57156 0.19388 0.0
C8158 C 0.22106 0.586 0.18699 0.0
C8159 C 0.22138 0.58083 0.18297 0.0
C8160 C 0.21668 0.58617 0.19181 0.0
C8161 C 0.21256 0.58117 0.19272 0.0
C8162 C 0.21286 0.57601 0.18872 0.0
C8163 C 0.21723 0.57583 0.1839 0.0
C8164 C 0.2078 0.58136 0.19774 0.0
C8165 C 0.20152 0.58065 0.1961 0.0
C8166 C 0.2094 0.58235 0.20406 0.0
C8167 C 0.21598 0.58281 0.20613 0.0
C8168 C 0.22024 0.57803 0.20477 0.0
C8169 C 0.22643 0.5785 0.20672 0.0
C8170 C 0.22841 0.58371 0.21008 0.0
C8171 C 0.22419 0.58846 0.21151 0.0
C8172 C 0.21799 0.58801 0.20957 0.0
C8173 C 0.18503 0.5765 0.21712 0.0
C8174 C 0.18419 0.58164 0.2211 0.0
C8175 C 0.1897 0.57655 0.2126 0.0
C8176 C 0.1936 0.58175 0.21191 0.0
C8177 C 0.19287 0.58684 0.21595 0.0
C8178 C 0.18819 0.5868 0.22048 0.0
C8179 C 0.19838 0.58189 0.20692 0.0
C8180 C 0.20466 0.58267 0.20855 0.0
C8181 C 0.19678 0.58095 0.20059 0.0
C8182 C 0.1902 0.58044 0.19852 0.0
C8183 C 0.18588 0.58514 0.19998 0.0
C8184 C 0.17968 0.5846 0.19807 0.0
C8185 C 0.17775 0.5794 0.19466 0.0
C8186 C 0.18203 0.57473 0.19314 0.0
C8187 C 0.18823 0.57524 0.19505 0.0
H8188 H 0.17295 0.57899 0.19318 0.0
H8189 H 0.23321 0.58407 0.21159 0.0
H8190 H 0.42593 0.18717 0.22349 0.0
H8191 H 0.4256 0.19565 0.21588 0.0
H8192 H 0.44376 0.19034 0.20911 0.0
H8193 H 0.44411 0.18185 0.21667 0.0
H8194 H 0.44292 0.20276 0.2104 0.0
H8195 H 0.43049 0.18643 0.20121 0.0
H8196 H 0.42195 0.17874 0.20092 0.0
H8197 H 0.40853 0.19339 0.20322 0.0
H8198 H 0.417 0.20117 0.20361 0.0
H8199 H 0.4439 0.21745 0.18104 0.0
H8200 H 0.44365 0.20999 0.1896 0.0
H8201 H 0.42542 0.21658 0.19491 0.0
H8202 H 0.42564 0.22409 0.18633 0.0
H8203 H 0.42584 0.20409 0.19491 0.0
H8204 H 0.43824 0.22051 0.20342 0.0
H8205 H 0.44677 0.22821 0.20367 0.0
H8206 H 0.46024 0.21346 0.20269 0.0
H8207 H 0.45179 0.20567 0.20234 0.0
C8208 C 0.42984 0.18779 0.22035 0.0
C8209 C 0.43504 0.18383 0.22068 0.0
C8210 C 0.42964 0.19264 0.21602 0.0
C8211 C 0.43463 0.19359 0.21189 0.0
C8212 C 0.43986 0.1897 0.21226 0.0
C8213 C 0.44007 0.18487 0.2166 0.0
C8214 C 0.4344 0.1986 0.20713 0.0
C8215 C 0.43922 0.20301 0.20697 0.0
C8216 C 0.42947 0.19904 0.20277 0.0
C8217 C 0.42438 0.19437 0.2025 0.0
C8218 C 0.42572 0.18801 0.2017 0.0
C8219 C 0.42089 0.18363 0.20151 0.0
C8220 C 0.41471 0.18557 0.20207 0.0
C8221 C 0.41333 0.19189 0.2028 0.0
C8222 C 0.41814 0.19629 0.203 0.0
C8223 C 0.43986 0.21737 0.18407 0.0
C8224 C 0.4348 0.22139 0.18302 0.0
C8225 C 0.43973 0.2131 0.18896 0.0
C8226 C 0.43455 0.21278 0.19295 0.0
C8227 C 0.42946 0.21675 0.19189 0.0
C8228 C 0.42959 0.22102 0.18698 0.0
C8229 C 0.43442 0.2082 0.19813 0.0
C8230 C 0.42952 0.20387 0.19836 0.0
C8231 C 0.43927 0.20784 0.20256 0.0
C8232 C 0.44438 0.21251 0.2028 0.0
C8233 C 0.44302 0.21891 0.20321 0.0
C8234 C 0.44784 0.22329 0.20338 0.0
C8235 C 0.45405 0.22133 0.20318 0.0
C8236 C 0.45544 0.21498 0.20284 0.0
C8237 C 0.45063 0.21058 0.20266 0.0
H8238 H 0.45777 0.22472 0.20332 0.0
H8239 H 0.41098 0.18217 0.20192 0.0
H8240 H 0.83805 0.80199 0.58586 0.0
H8241 H 0.82956 0.80955 0.5862 0.0
H8242 H 0.81717 0.79605 0.57791 0.0
H8243 H 0.82567 0.78846 0.57755 0.0
H8244 H 0.81595 0.80713 0.57243 0.0
H8245 H 0.81614 0.79971 0.5934 0.0
H8246 H 0.8208 0.79705 0.60354 0.0
H8247 H 0.82617 0.81614 0.60622 0.0
H8248 H 0.82161 0.81891 0.59606 0.0
H8249 H 0.78871 0.82531 0.57764 0.0
H8250 H 0.79636 0.81687 0.57792 0.0
H8251 H 0.80985 0.82935 0.58606 0.0
H8252 H 0.80224 0.83781 0.5858 0.0
H8253 H 0.81002 0.81828 0.59178 0.0
H8254 H 0.81029 0.82554 0.57055 0.0
H8255 H 0.80566 0.82818 0.56039 0.0
H8256 H 0.79941 0.80929 0.55821 0.0
H8257 H 0.80393 0.80656 0.5684 0.0
C8258 C 0.8335 0.8006 0.58419 0.0
C8259 C 0.83253 0.79461 0.58171 0.0
C8260 C 0.82865 0.80493 0.58438 0.0
C8261 C 0.82271 0.80334 0.58215 0.0
C8262 C 0.82172 0.79737 0.57966 0.0
C8263 C 0.82658 0.79305 0.57944 0.0
C8264 C 0.81757 0.80798 0.58228 0.0
C8265 C 0.81458 0.80949 0.57668 0.0
C8266 C 0.81587 0.81115 0.58781 0.0
C8267 C 0.81858 0.80951 0.59394 0.0
C8268 C 0.81836 0.80334 0.59613 0.0
C8269 C 0.82097 0.80181 0.60189 0.0
C8270 C 0.82379 0.80642 0.60552 0.0
C8271 C 0.82399 0.81257 0.6034 0.0
C8272 C 0.82138 0.81413 0.59765 0.0
C8273 C 0.79331 0.82626 0.57947 0.0
C8274 C 0.79487 0.83224 0.58168 0.0
C8275 C 0.79768 0.82143 0.57963 0.0
C8276 C 0.8037 0.8225 0.58195 0.0
C8277 C 0.80523 0.82842 0.58426 0.0
C8278 C 0.80086 0.83324 0.58412 0.0
C8279 C 0.80845 0.81747 0.58191 0.0
C8280 C 0.81137 0.81588 0.58754 0.0
C8281 C 0.81009 0.81423 0.57641 0.0
C8282 C 0.80739 0.81586 0.57027 0.0
C8283 C 0.80788 0.82196 0.56793 0.0
C8284 C 0.80529 0.82347 0.56216 0.0
C8285 C 0.80222 0.81891 0.55867 0.0
C8286 C 0.80177 0.81282 0.56093 0.0
C8287 C 0.80435 0.81129 0.5667 0.0
H8288 H 0.80021 0.82009 0.5542 0.0
H8289 H 0.82581 0.80523 0.60997 0.0
H8290 H 0.82587 0.22758 0.43747 0.0
H8291 H 0.81738 0.21997 0.43721 0.0
H8292 H 0.8297 0.20646 0.42887 0.0
H8293 H 0.8382 0.21404 0.42912 0.0
H8294 H 0.81856 0.20637 0.42325 0.0
H8295 H 0.82603 0.20595 0.4444 0.0
H8296 H 0.8288 0.21052 0.45457 0.0
H8297 H 0.80997 0.21683 0.45698 0.0
H8298 H 0.80711 0.21237 0.44678 0.0
H8299 H 0.80224 0.17833 0.42914 0.0
H8300 H 0.80981 0.18683 0.42877 0.0
H8301 H 0.79645 0.19917 0.43731 0.0
H8302 H 0.78884 0.19067 0.4377 0.0
H8303 H 0.80759 0.20036 0.44267 0.0
H8304 H 0.79994 0.20031 0.42179 0.0
H8305 H 0.79715 0.19573 0.41164 0.0
H8306 H 0.81618 0.19034 0.4087 0.0
H8307 H 0.81908 0.19482 0.41887 0.0
C8308 C 0.82678 0.22298 0.43561 0.0
C8309 C 0.83272 0.22141 0.43333 0.0
C8310 C 0.82192 0.21864 0.43545 0.0
C8311 C 0.82292 0.21262 0.43309 0.0
C8312 C 0.82881 0.21108 0.43071 0.0
C8313 C 0.83366 0.21542 0.43084 0.0
C8314 C 0.81786 0.20789 0.43314 0.0
C8315 C 0.8162 0.20501 0.42751 0.0
C8316 C 0.81467 0.20623 0.43866 0.0
C8317 C 0.81638 0.20889 0.4448 0.0
C8318 C 0.82249 0.20836 0.44708 0.0
C8319 C 0.82408 0.21092 0.45285 0.0
C8320 C 0.81957 0.21398 0.45641 0.0
C8321 C 0.81346 0.21447 0.45421 0.0
C8322 C 0.81186 0.21192 0.44844 0.0
C8323 C 0.80088 0.18288 0.43086 0.0
C8324 C 0.79492 0.18383 0.43342 0.0
C8325 C 0.80521 0.18773 0.43065 0.0
C8326 C 0.80367 0.19366 0.43294 0.0
C8327 C 0.79774 0.19463 0.43551 0.0
C8328 C 0.7934 0.18977 0.43575 0.0
C8329 C 0.80832 0.19879 0.4328 0.0
C8330 C 0.80991 0.20175 0.43841 0.0
C8331 C 0.81144 0.20053 0.42725 0.0
C8332 C 0.80972 0.19786 0.42112 0.0
C8333 C 0.80353 0.19811 0.419 0.0
C8334 C 0.80192 0.19554 0.41324 0.0
C8335 C 0.80648 0.19273 0.40953 0.0
C8336 C 0.81266 0.19251 0.41157 0.0
C8337 C 0.81428 0.19507 0.41733 0.0
H8338 H 0.80523 0.19075 0.40508 0.0
H8339 H 0.8208 0.21596 0.46088 0.0
H8340 H 0.82539 0.78849 0.43224 0.0
H8341 H 0.81702 0.79627 0.43249 0.0
H8342 H 0.83055 0.81074 0.4359 0.0
H8343 H 0.83892 0.80301 0.43566 0.0
H8344 H 0.82013 0.81119 0.44387 0.0
H8345 H 0.82472 0.80931 0.42186 0.0
H8346 H 0.82596 0.80352 0.41203 0.0
H8347 H 0.80693 0.79743 0.41307 0.0
H8348 H 0.8056 0.80311 0.42297 0.0
H8349 H 0.80362 0.83883 0.43843 0.0
H8350 H 0.81105 0.83023 0.43817 0.0
H8351 H 0.7966 0.81788 0.43158 0.0
H8352 H 0.78917 0.82655 0.43169 0.0
H8353 H 0.80685 0.81562 0.42551 0.0
H8354 H 0.80178 0.81761 0.44696 0.0
H8355 H 0.80018 0.82294 0.45699 0.0
H8356 H 0.81949 0.82814 0.45744 0.0
H8357 H 0.8212 0.82291 0.44735 0.0
C8358 C 0.82657 0.79333 0.43305 0.0
C8359 C 0.8328 0.79515 0.4339 0.0
C8360 C 0.82179 0.79776 0.43316 0.0
C8361 C 0.82318 0.80408 0.43418 0.0
C8362 C 0.82939 0.80589 0.43509 0.0
C8363 C 0.83416 0.80148 0.43491 0.0
C8364 C 0.81817 0.80882 0.43434 0.0
C8365 C 0.81726 0.81221 0.43984 0.0
C8366 C 0.81429 0.80997 0.42915 0.0
C8367 C 0.81508 0.80658 0.42319 0.0
C8368 C 0.82082 0.80669 0.42002 0.0
C8369 C 0.82153 0.80344 0.41443 0.0
C8370 C 0.81654 0.80009 0.41194 0.0
C8371 C 0.8108 0.80001 0.41502 0.0
C8372 C 0.81006 0.80325 0.42062 0.0
C8373 C 0.80202 0.83427 0.43696 0.0
C8374 C 0.79581 0.83335 0.43512 0.0
C8375 C 0.80627 0.82935 0.43682 0.0
C8376 C 0.80436 0.82337 0.43498 0.0
C8377 C 0.79818 0.82245 0.43304 0.0
C8378 C 0.79394 0.8274 0.4331 0.0
C8379 C 0.80886 0.8181 0.43502 0.0
C8380 C 0.80968 0.81459 0.42956 0.0
C8381 C 0.8126 0.81677 0.44029 0.0
C8382 C 0.8116 0.81991 0.44637 0.0
C8383 C 0.80568 0.81993 0.44917 0.0
C8384 C 0.80475 0.82293 0.45487 0.0
C8385 C 0.80973 0.82589 0.45785 0.0
C8386 C 0.81564 0.82585 0.45513 0.0
C8387 C 0.81659 0.82286 0.44942 0.0
H8388 H 0.809 0.82821 0.46226 0.0
H8389 H 0.8171 0.79758 0.4076 0.0
H8390 H 0.21503 0.83765 0.42744 0.0
H8391 H 0.20737 0.82923 0.42717 0.0
H8392 H 0.21865 0.81849 0.43982 0.0
H8393 H 0.22645 0.8268 0.43994 0.0
H8394 H 0.21397 0.81123 0.4307 0.0
H8395 H 0.20598 0.82632 0.44507 0.0
H8396 H 0.20274 0.83676 0.44859 0.0
H8397 H 0.18888 0.83742 0.43422 0.0
H8398 H 0.1921 0.82701 0.43054 0.0
H8399 H 0.19014 0.78991 0.43989 0.0
H8400 H 0.19837 0.7978 0.43966 0.0
H8401 H 0.18738 0.80895 0.4271 0.0
H8402 H 0.17904 0.8012 0.42748 0.0
H8403 H 0.19204 0.8159 0.4363 0.0
H8404 H 0.20009 0.80064 0.42201 0.0
H8405 H 0.20336 0.79015 0.41866 0.0
H8406 H 0.21712 0.78973 0.43315 0.0
H8407 H 0.21387 0.80019 0.43664 0.0
C8408 C 0.21593 0.83346 0.43009 0.0
C8409 C 0.22135 0.83292 0.43373 0.0
C8410 C 0.21151 0.82868 0.42998 0.0
C8411 C 0.21239 0.82327 0.43355 0.0
C8412 C 0.21786 0.82263 0.43706 0.0
C8413 C 0.22229 0.82741 0.43717 0.0
C8414 C 0.20754 0.81833 0.43369 0.0
C8415 C 0.20919 0.81223 0.432 0.0
C8416 C 0.20128 0.81966 0.43528 0.0
C8417 C 0.19932 0.82591 0.43749 0.0
C8418 C 0.20228 0.82871 0.44263 0.0
C8419 C 0.20044 0.83462 0.44466 0.0
C8420 C 0.19562 0.83775 0.44162 0.0
C8421 C 0.19262 0.83498 0.43656 0.0
C8422 C 0.19444 0.82908 0.4345 0.0
C8423 C 0.18947 0.79405 0.4371 0.0
C8424 C 0.18393 0.79492 0.4337 0.0
C8425 C 0.1942 0.79853 0.43692 0.0
C8426 C 0.19352 0.80394 0.43331 0.0
C8427 C 0.18802 0.8048 0.4299 0.0
C8428 C 0.18328 0.80034 0.43008 0.0
C8429 C 0.19844 0.8088 0.43326 0.0
C8430 C 0.19681 0.8149 0.43498 0.0
C8431 C 0.20471 0.80745 0.43172 0.0
C8432 C 0.20669 0.80117 0.42962 0.0
C8433 C 0.20378 0.79829 0.42451 0.0
C8434 C 0.20564 0.79236 0.42258 0.0
C8435 C 0.21044 0.78927 0.4257 0.0
C8436 C 0.2134 0.79212 0.43074 0.0
C8437 C 0.21155 0.79805 0.43269 0.0
H8438 H 0.21187 0.78467 0.4242 0.0
H8439 H 0.1942 0.84233 0.4432 0.0
H8440 H 0.18789 0.22492 0.42363 0.0
H8441 H 0.1964 0.21732 0.42346 0.0
H8442 H 0.1919 0.21186 0.44225 0.0
H8443 H 0.18339 0.21939 0.44244 0.0
H8444 H 0.2043 0.21309 0.44074 0.0
H8445 H 0.18739 0.20304 0.42987 0.0
H8446 H 0.17929 0.20213 0.42179 0.0
H8447 H 0.19327 0.20333 0.40753 0.0
H8448 H 0.20145 0.20434 0.41554 0.0
H8449 H 0.21863 0.18357 0.44322 0.0
H8450 H 0.21135 0.19228 0.4427 0.0
H8451 H 0.21725 0.19615 0.4239 0.0
H8452 H 0.2246 0.18744 0.4244 0.0
H8453 H 0.20476 0.19629 0.42487 0.0
H8454 H 0.22178 0.20555 0.4358 0.0
H8455 H 0.22985 0.20639 0.44392 0.0
H8456 H 0.21571 0.20665 0.45807 0.0
H8457 H 0.20756 0.20572 0.45004 0.0
C8458 C 0.1887 0.22208 0.42771 0.0
C8459 C 0.18496 0.22276 0.43304 0.0
C8460 C 0.19357 0.21775 0.42761 0.0
C8461 C 0.19475 0.21399 0.43283 0.0
C8462 C 0.19109 0.21473 0.43818 0.0
C8463 C 0.18623 0.21906 0.43829 0.0
C8464 C 0.19974 0.2092 0.4327 0.0
C8465 C 0.20437 0.20938 0.4373 0.0
C8466 C 0.19993 0.20446 0.42812 0.0
C8467 C 0.19502 0.20383 0.4233 0.0
C8468 C 0.18873 0.20316 0.42501 0.0
C8469 C 0.18413 0.20262 0.42045 0.0
C8470 C 0.18576 0.20269 0.41415 0.0
C8471 C 0.19201 0.20329 0.41241 0.0
C8472 C 0.19663 0.20384 0.41696 0.0
C8473 C 0.21845 0.18633 0.439 0.0
C8474 C 0.22223 0.18482 0.43386 0.0
C8475 C 0.21428 0.1913 0.43871 0.0
C8476 C 0.21381 0.19491 0.43329 0.0
C8477 C 0.21754 0.19342 0.42813 0.0
C8478 C 0.22172 0.18844 0.42842 0.0
C8479 C 0.20928 0.20013 0.43296 0.0
C8480 C 0.20473 0.20003 0.42827 0.0
C8481 C 0.20916 0.20494 0.43747 0.0
C8482 C 0.21406 0.20552 0.44232 0.0
C8483 C 0.22039 0.20574 0.44065 0.0
C8484 C 0.22498 0.20624 0.44523 0.0
C8485 C 0.2233 0.20656 0.45151 0.0
C8486 C 0.21701 0.2064 0.45321 0.0
C8487 C 0.2124 0.20589 0.44864 0.0
H8488 H 0.22686 0.20694 0.45505 0.0
H8489 H 0.18219 0.20227 0.41062 0.0
H8490 H 0.21302 0.17767 0.57966 0.0
H8491 H 0.20546 0.18619 0.57975 0.0
H8492 H 0.22029 0.19942 0.58273 0.0
H8493 H 0.22791 0.19089 0.58266 0.0
H8494 H 0.20972 0.20129 0.5905 0.0
H8495 H 0.21456 0.19864 0.5689 0.0
H8496 H 0.21602 0.19274 0.55916 0.0
H8497 H 0.19683 0.18707 0.55958 0.0
H8498 H 0.19528 0.19287 0.56938 0.0
H8499 H 0.1901 0.22758 0.58455 0.0
H8500 H 0.19867 0.22004 0.58463 0.0
H8501 H 0.18607 0.20563 0.57844 0.0
H8502 H 0.17756 0.21317 0.5782 0.0
H8503 H 0.1963 0.20495 0.57208 0.0
H8504 H 0.1915 0.20691 0.59391 0.0
H8505 H 0.18992 0.21253 0.6038 0.0
H8506 H 0.20878 0.2192 0.60314 0.0
H8507 H 0.21045 0.21368 0.5932 0.0
C8508 C 0.21467 0.18239 0.58038 0.0
C8509 C 0.22105 0.18362 0.58116 0.0
C8510 C 0.21035 0.18725 0.58039 0.0
C8511 C 0.21233 0.19343 0.5812 0.0
C8512 C 0.21868 0.19468 0.58208 0.0
C8513 C 0.22302 0.18982 0.58201 0.0
C8514 C 0.20772 0.19857 0.58107 0.0
C8515 C 0.20684 0.20217 0.58645 0.0
C8516 C 0.20391 0.19962 0.57581 0.0
C8517 C 0.20482 0.19615 0.56991 0.0
C8518 C 0.21066 0.1961 0.56694 0.0
C8519 C 0.21151 0.19278 0.56141 0.0
C8520 C 0.20653 0.18952 0.55876 0.0
C8521 C 0.20069 0.18959 0.56164 0.0
C8522 C 0.19982 0.1929 0.56718 0.0
C8523 C 0.18917 0.22279 0.58326 0.0
C8524 C 0.18317 0.22095 0.58136 0.0
C8525 C 0.19406 0.21848 0.58331 0.0
C8526 C 0.19302 0.21224 0.5816 0.0
C8527 C 0.18701 0.21042 0.57976 0.0
C8528 C 0.18214 0.21472 0.57963 0.0
C8529 C 0.19817 0.20762 0.58157 0.0
C8530 C 0.19918 0.20411 0.57614 0.0
C8531 C 0.20207 0.20663 0.5868 0.0
C8532 C 0.20108 0.20994 0.59278 0.0
C8533 C 0.1953 0.20961 0.59585 0.0
C8534 C 0.19439 0.21277 0.60147 0.0
C8535 C 0.19924 0.21623 0.60409 0.0
C8536 C 0.20502 0.21653 0.6011 0.0
C8537 C 0.20595 0.21338 0.59548 0.0
H8538 H 0.19853 0.21868 0.60844 0.0
H8539 H 0.20719 0.18696 0.55447 0.0
H8540 H 0.78983 0.19025 0.57412 0.0
H8541 H 0.79734 0.19881 0.57438 0.0
H8542 H 0.80818 0.18895 0.58808 0.0
H8543 H 0.80073 0.18033 0.5878 0.0
H8544 H 0.80704 0.20127 0.59097 0.0
H8545 H 0.81261 0.18897 0.57306 0.0
H8546 H 0.81071 0.18364 0.56307 0.0
H8547 H 0.80569 0.20107 0.55465 0.0
H8548 H 0.80747 0.20649 0.56463 0.0
H8549 H 0.83625 0.2165 0.58811 0.0
H8550 H 0.82764 0.20906 0.58835 0.0
H8551 H 0.81791 0.21979 0.57446 0.0
H8552 H 0.82648 0.22732 0.57425 0.0
H8553 H 0.81801 0.20751 0.57161 0.0
H8554 H 0.81297 0.21994 0.58934 0.0
H8555 H 0.81486 0.2253 0.59931 0.0
H8556 H 0.81884 0.20777 0.60805 0.0
H8557 H 0.81706 0.20231 0.59811 0.0
C8558 C 0.79383 0.18988 0.57716 0.0
C8559 C 0.79469 0.18458 0.58091 0.0
C8560 C 0.7981 0.19479 0.57732 0.0
C8561 C 0.80335 0.19449 0.5812 0.0
C8562 C 0.80415 0.18928 0.58506 0.0
C8563 C 0.79988 0.18436 0.58491 0.0
C8564 C 0.80808 0.19953 0.58115 0.0
C8565 C 0.80949 0.2026 0.58675 0.0
C8566 C 0.81116 0.20137 0.57562 0.0
C8567 C 0.81011 0.19812 0.56961 0.0
C8568 C 0.81105 0.19166 0.5691 0.0
C8569 C 0.81001 0.18862 0.56343 0.0
C8570 C 0.80807 0.19201 0.55824 0.0
C8571 C 0.80718 0.19845 0.55869 0.0
C8572 C 0.80821 0.2015 0.56434 0.0
C8573 C 0.83224 0.21735 0.58518 0.0
C8574 C 0.83206 0.22252 0.58117 0.0
C8575 C 0.82732 0.21308 0.58532 0.0
C8576 C 0.82211 0.2139 0.58146 0.0
C8577 C 0.8219 0.21906 0.57747 0.0
C8578 C 0.82681 0.22335 0.57734 0.0
C8579 C 0.817 0.20923 0.58144 0.0
C8580 C 0.81553 0.20623 0.57583 0.0
C8581 C 0.81387 0.20746 0.58696 0.0
C8582 C 0.81494 0.21072 0.59296 0.0
C8583 C 0.8143 0.21723 0.59337 0.0
C8584 C 0.81534 0.22029 0.59902 0.0
C8585 C 0.81699 0.21688 0.60431 0.0
C8586 C 0.81758 0.21041 0.60396 0.0
C8587 C 0.81655 0.20733 0.59831 0.0
H8588 H 0.81779 0.21925 0.60868 0.0
H8589 H 0.80726 0.18965 0.55385 0.0
H8590 H 0.21511 0.83729 0.58675 0.0
H8591 H 0.20772 0.82864 0.58717 0.0
H8592 H 0.21984 0.81764 0.57551 0.0
H8593 H 0.22729 0.82627 0.57511 0.0
H8594 H 0.20801 0.81702 0.57155 0.0
H8595 H 0.21852 0.81452 0.59097 0.0
H8596 H 0.22273 0.81779 0.60114 0.0
H8597 H 0.2043 0.82237 0.60741 0.0
H8598 H 0.19998 0.81921 0.59725 0.0
H8599 H 0.19078 0.78898 0.57562 0.0
H8600 H 0.19922 0.79665 0.5758 0.0
H8601 H 0.188 0.80878 0.58723 0.0
H8602 H 0.17954 0.80116 0.58705 0.0
H8603 H 0.19988 0.80834 0.59135 0.0
H8604 H 0.18951 0.81135 0.5717 0.0
H8605 H 0.18533 0.80809 0.56152 0.0
H8606 H 0.20363 0.80251 0.55568 0.0
H8607 H 0.2079 0.80566 0.56587 0.0
C8608 C 0.21625 0.833 0.58435 0.0
C8609 C 0.2218 0.83247 0.58091 0.0
C8610 C 0.21201 0.82806 0.58458 0.0
C8611 C 0.21325 0.82247 0.58142 0.0
C8612 C 0.21879 0.82192 0.57799 0.0
C8613 C 0.22303 0.82686 0.57775 0.0
C8614 C 0.20867 0.81728 0.58155 0.0
C8615 C 0.20631 0.81505 0.57588 0.0
C8616 C 0.20636 0.81479 0.5872 0.0
C8617 C 0.20894 0.81668 0.59332 0.0
C8618 C 0.21537 0.81627 0.5945 0.0
C8619 C 0.21777 0.8181 0.60027 0.0
C8620 C 0.21378 0.8203 0.60491 0.0
C8621 C 0.20738 0.82067 0.60381 0.0
C8622 C 0.20495 0.81885 0.59804 0.0
C8623 C 0.1901 0.7933 0.57815 0.0
C8624 C 0.18447 0.79447 0.5813 0.0
C8625 C 0.19493 0.79767 0.57826 0.0
C8626 C 0.19421 0.80332 0.58148 0.0
C8627 C 0.18866 0.80445 0.58474 0.0
C8628 C 0.18383 0.80007 0.58464 0.0
C8629 C 0.19919 0.80813 0.58136 0.0
C8630 C 0.20162 0.81029 0.58702 0.0
C8631 C 0.20157 0.81055 0.5757 0.0
C8632 C 0.19901 0.80868 0.56957 0.0
C8633 C 0.19263 0.80938 0.56826 0.0
C8634 C 0.19025 0.80756 0.56249 0.0
C8635 C 0.19421 0.80508 0.55796 0.0
C8636 C 0.20056 0.80443 0.55919 0.0
C8637 C 0.20297 0.80623 0.56497 0.0
H8638 H 0.19235 0.80367 0.55349 0.0
H8639 H 0.21565 0.82171 0.60937 0.0
H8640 H 0.98198 0.26726 0.36643 0.0
H8641 H 0.99315 0.26558 0.36791 0.0
H8642 H 0.99489 0.25991 0.34873 0.0
H8643 H 0.9837 0.26134 0.34728 0.0
H8644 H 1.00234 0.253 0.35608 0.0
H8645 H 0.99781 0.27494 0.35323 0.0
H8646 H 0.99264 0.28488 0.3558 0.0
H8647 H 1.00068 0.28446 0.37409 0.0
H8648 H 1.00582 0.27447 0.37165 0.0
H8649 H 0.03296 0.26121 0.34728 0.0
H8650 H 0.02181 0.25963 0.34883 0.0
H8651 H 0.0235 0.26599 0.3678 0.0
H8652 H 0.03464 0.26782 0.3662 0.0
H8653 H 0.01433 0.27182 0.36217 0.0
H8654 H 0.02021 0.25055 0.36432 0.0
H8655 H 0.02546 0.24072 0.36155 0.0
H8656 H 0.01507 0.23983 0.3445 0.0
H8657 H 0.00982 0.24971 0.34712 0.0
C8658 C 0.98471 0.26551 0.36256 0.0
C8659 C 0.98196 0.26451 0.35671 0.0
C8660 C 0.99111 0.2646 0.36341 0.0
C8661 C 0.99488 0.26272 0.3584 0.0
C8662 C 0.99208 0.26139 0.35265 0.0
C8663 C 0.98569 0.26227 0.35181 0.0
C8664 C 1.00177 0.26259 0.35897 0.0
C8665 C 1.00497 0.25711 0.35739 0.0
C8666 C 1.0052 0.26791 0.36084 0.0
C8667 C 1.00214 0.27393 0.36229 0.0
C8668 C 0.99843 0.27695 0.35782 0.0
C8669 C 0.99552 0.28259 0.35925 0.0
C8670 C 0.99632 0.28529 0.36511 0.0
C8671 C 1.00005 0.28236 0.36956 0.0
C8672 C 1.00297 0.27671 0.36815 0.0
C8673 C 0.03097 0.26225 0.35179 0.0
C8674 C 0.03469 0.26469 0.3566 0.0
C8675 C 0.0246 0.26127 0.3527 0.0
C8676 C 0.02181 0.26264 0.35845 0.0
C8677 C 0.02555 0.26488 0.36333 0.0
C8678 C 0.03193 0.26588 0.36242 0.0
C8679 C 0.01494 0.26225 0.35917 0.0
C8680 C 0.01172 0.26765 0.36098 0.0
C8681 C 0.01152 0.25686 0.35749 0.0
C8682 C 0.01465 0.2509 0.3559 0.0
C8683 C 0.01907 0.24829 0.35996 0.0
C8684 C 0.02204 0.2427 0.35842 0.0
C8685 C 0.0206 0.23966 0.35285 0.0
C8686 C 0.01618 0.24219 0.34882 0.0
C8687 C 0.0132 0.24778 0.35033 0.0
H8688 H 0.02291 0.23533 0.35167 0.0
H8689 H 0.99406 0.28966 0.36621 0.0
H8690 H 0.74554 0.98391 0.34586 0.0
H8691 H 0.7471 0.99513 0.34643 0.0
H8692 H 0.7574 0.99294 0.36351 0.0
H8693 H 0.7559 0.98161 0.36294 0.0
H8694 H 0.74898 1.00229 0.36436 0.0
H8695 H 0.76506 0.99662 0.35025 0.0
H8696 H 0.76979 0.9914 0.34118 0.0
H8697 H 0.75775 1.0016 0.32893 0.0
H8698 H 0.75288 1.00682 0.33793 0.0
H8699 H 0.7556 0.03513 0.36278 0.0
H8700 H 0.75714 0.02383 0.36342 0.0
H8701 H 0.74672 0.02141 0.34643 0.0
H8702 H 0.74512 0.03263 0.34578 0.0
H8703 H 0.7571 0.01436 0.34641 0.0
H8704 H 0.74014 0.01881 0.3607 0.0
H8705 H 0.73534 0.02395 0.36978 0.0
H8706 H 0.74923 0.01598 0.38173 0.0
H8707 H 0.75416 0.01086 0.3727 0.0
C8708 C 0.74824 0.98578 0.34968 0.0
C8709 C 0.75065 0.98184 0.35432 0.0
C8710 C 0.74911 0.99221 0.35001 0.0
C8711 C 0.75245 0.99487 0.35496 0.0
C8712 C 0.75483 0.99098 0.35963 0.0
C8713 C 0.75396 0.98452 0.35931 0.0
C8714 C 0.75323 1.00174 0.35529 0.0
C8715 C 0.75089 1.00493 0.36049 0.0
C8716 C 0.75565 1.00519 0.35022 0.0
C8717 C 0.75858 1.00208 0.34478 0.0
C8718 C 0.76339 0.99772 0.34563 0.0
C8719 C 0.7661 0.99477 0.3405 0.0
C8720 C 0.76406 0.99616 0.33448 0.0
C8721 C 0.75932 1.00052 0.33359 0.0
C8722 C 0.75659 1.00349 0.3387 0.0
C8723 C 0.75362 0.03218 0.35919 0.0
C8724 C 0.75025 0.03479 0.35422 0.0
C8725 C 0.75451 0.02573 0.35956 0.0
C8726 C 0.75202 0.02177 0.35499 0.0
C8727 C 0.74872 0.02437 0.34999 0.0
C8728 C 0.74784 0.0308 0.34962 0.0
C8729 C 0.75268 0.0149 0.35539 0.0
C8730 C 0.7553 0.01171 0.35032 0.0
C8731 C 0.75053 0.01146 0.36059 0.0
C8732 C 0.74756 0.01452 0.36602 0.0
C8733 C 0.74219 0.0182 0.36526 0.0
C8734 C 0.73945 0.0211 0.3704 0.0
C8735 C 0.74199 0.02031 0.37633 0.0
C8736 C 0.74727 0.0166 0.37713 0.0
C8737 C 0.75004 0.01369 0.37201 0.0
H8738 H 0.73985 0.02256 0.3803 0.0
H8739 H 0.76617 0.99387 0.33052 0.0
H8740 H 0.03338 0.73942 0.36322 0.0
H8741 H 0.02209 0.74053 0.36401 0.0
H8742 H 0.02308 0.758 0.35415 0.0
H8743 H 0.03443 0.75692 0.35334 0.0
H8744 H 0.01415 0.75808 0.36375 0.0
H8745 H 0.01967 0.74556 0.34615 0.0
H8746 H 0.02508 0.73705 0.34065 0.0
H8747 H 0.01582 0.72357 0.35218 0.0
H8748 H 0.01042 0.73202 0.35781 0.0
H8749 H 0.98208 0.75669 0.35346 0.0
H8750 H 0.99339 0.7579 0.3545 0.0
H8751 H 0.99447 0.73991 0.36338 0.0
H8752 H 0.98321 0.73868 0.36235 0.0
H8753 H 1.00243 0.74076 0.35387 0.0
H8754 H 0.99685 0.75346 0.3715 0.0
H8755 H 0.99149 0.76208 0.37689 0.0
H8756 H 1.00073 0.77534 0.3651 0.0
H8757 H 1.00607 0.76679 0.35958 0.0
C8758 C 0.03121 0.74353 0.36126 0.0
C8759 C 0.03478 0.74803 0.35813 0.0
C8760 C 0.02476 0.74416 0.36174 0.0
C8761 C 0.02174 0.7493 0.35905 0.0
C8762 C 0.02532 0.754 0.35625 0.0
C8763 C 0.0318 0.75338 0.35579 0.0
C8764 C 0.01484 0.74943 0.35872 0.0
C8765 C 0.01157 0.75434 0.36153 0.0
C8766 C 0.0115 0.74452 0.35585 0.0
C8767 C 0.01468 0.73942 0.35243 0.0
C8768 C 0.01882 0.74079 0.34754 0.0
C8769 C 0.02188 0.73597 0.3444 0.0
C8770 C 0.02081 0.72978 0.34607 0.0
C8771 C 0.01666 0.72838 0.35089 0.0
C8772 C 0.01359 0.73317 0.35405 0.0
C8773 C 0.98472 0.75305 0.35574 0.0
C8774 C 0.98177 0.74756 0.35777 0.0
C8775 C 0.99118 0.75375 0.35634 0.0
C8776 C 0.99478 0.74899 0.35901 0.0
C8777 C 0.99179 0.74363 0.36126 0.0
C8778 C 0.98536 0.74292 0.36066 0.0
C8779 C 1.00168 0.74933 0.35905 0.0
C8780 C 1.00498 0.74451 0.35611 0.0
C8781 C 1.00502 0.75434 0.36176 0.0
C8782 C 1.00181 0.75948 0.36508 0.0
C8783 C 0.99769 0.75821 0.37001 0.0
C8784 C 0.99467 0.76308 0.3731 0.0
C8785 C 0.99576 0.76925 0.37132 0.0
C8786 C 0.99988 0.77056 0.36646 0.0
C8787 C 1.00291 0.7657 0.36336 0.0
H8788 H 0.99341 0.77301 0.37372 0.0
H8789 H 0.02318 0.72606 0.34364 0.0
H8790 H 0.26 0.03339 0.34882 0.0
H8791 H 0.25885 0.02216 0.35029 0.0
H8792 H 0.26889 0.02339 0.36763 0.0
H8793 H 0.27023 0.0346 0.36609 0.0
H8794 H 0.27356 0.01449 0.36045 0.0
H8795 H 0.25321 0.0201 0.36735 0.0
H8796 H 0.24298 0.02527 0.36688 0.0
H8797 H 0.23852 0.01514 0.35022 0.0
H8798 H 0.24877 0.00997 0.35054 0.0
H8799 H 0.27007 0.98231 0.36619 0.0
H8800 H 0.2687 0.99352 0.36765 0.0
H8801 H 0.25929 0.99471 0.34997 0.0
H8802 H 0.26046 0.98346 0.34856 0.0
H8803 H 0.25395 1.00238 0.35856 0.0
H8804 H 0.27465 0.99785 0.35101 0.0
H8805 H 0.28493 0.99274 0.35127 0.0
H8806 H 0.28869 1.00101 0.36907 0.0
H8807 H 0.27839 1.00611 0.36895 0.0
C8808 C 0.26193 0.03128 0.35296 0.0
C8809 C 0.26524 0.03489 0.35732 0.0
C8810 C 0.26121 0.02487 0.35383 0.0
C8811 C 0.26374 0.02193 0.35909 0.0
C8812 C 0.26688 0.02556 0.36355 0.0
C8813 C 0.2676 0.03197 0.36268 0.0
C8814 C 0.26357 0.01504 0.35966 0.0
C8815 C 0.26925 0.01185 0.36018 0.0
C8816 C 0.25797 0.01158 0.35915 0.0
C8817 C 0.25179 0.01468 0.35894 0.0
C8818 C 0.25007 0.01901 0.36356 0.0
C8819 C 0.24426 0.02193 0.36332 0.0
C8820 C 0.24011 0.02054 0.35851 0.0
C8821 C 0.24175 0.01621 0.35394 0.0
C8822 C 0.24756 0.01328 0.35415 0.0
C8823 C 0.26758 0.98493 0.36268 0.0
C8824 C 0.26543 0.982 0.35723 0.0
C8825 C 0.26685 0.99135 0.3635 0.0
C8826 C 0.26398 0.99497 0.35888 0.0
C8827 C 0.26154 0.99201 0.35359 0.0
C8828 C 0.26226 0.98559 0.35276 0.0
C8829 C 0.26394 1.00187 0.35931 0.0
C8830 C 0.25823 1.00504 0.35894 0.0
C8831 C 0.26952 1.00533 0.35994 0.0
C8832 C 0.27572 1.0023 0.36 0.0
C8833 C 0.27765 0.99854 0.355 0.0
C8834 C 0.28348 0.99565 0.35512 0.0
C8835 C 0.28745 0.99653 0.36019 0.0
C8836 C 0.2856 1.00032 0.36515 0.0
C8837 C 0.27977 1.00321 0.36506 0.0
H8838 H 0.29197 0.9943 0.36028 0.0
H8839 H 0.23561 0.02281 0.35834 0.0
H8840 H 0.98194 0.74666 0.64886 0.0
H8841 H 0.99316 0.74796 0.64738 0.0
H8842 H 0.99424 0.75849 0.66445 0.0
H8843 H 0.98298 0.75735 0.66588 0.0
H8844 H 1.002 0.76327 0.65543 0.0
H8845 H 0.99738 0.74327 0.66459 0.0
H8846 H 0.99221 0.73302 0.66516 0.0
H8847 H 1.00046 0.72777 0.64772 0.0
H8848 H 1.0056 0.73803 0.647 0.0
H8849 H 0.03315 0.75781 0.66527 0.0
H8850 H 0.02191 0.75895 0.66387 0.0
H8851 H 0.02279 0.74763 0.6473 0.0
H8852 H 0.034 0.74631 0.64877 0.0
H8853 H 0.01401 0.74353 0.655 0.0
H8854 H 0.01961 0.76327 0.64646 0.0
H8855 H 0.02483 0.7735 0.64609 0.0
H8856 H 0.01491 0.77928 0.66246 0.0
H8857 H 0.0097 0.76904 0.66299 0.0
C8858 C 0.98454 0.74938 0.65222 0.0
C8859 C 0.98158 0.75185 0.65752 0.0
C8860 C 0.99096 0.75008 0.6514 0.0
C8861 C 0.99455 0.75324 0.65586 0.0
C8862 C 0.99156 0.75601 0.66097 0.0
C8863 C 0.98514 0.75531 0.6618 0.0
C8864 C 1.00145 0.75325 0.65546 0.0
C8865 C 1.00464 0.75896 0.65538 0.0
C8866 C 1.00488 0.74763 0.65526 0.0
C8867 C 1.00181 0.74144 0.6557 0.0
C8868 C 0.99805 0.73995 0.66085 0.0
C8869 C 0.99513 0.73414 0.66121 0.0
C8870 C 0.99599 0.72975 0.65647 0.0
C8871 C 0.99978 0.73117 0.65138 0.0
C8872 C 1.0027 0.73699 0.65099 0.0
C8873 C 0.03096 0.7556 0.6613 0.0
C8874 C 0.03447 0.75194 0.65715 0.0
C8875 C 0.02454 0.75631 0.66047 0.0
C8876 C 0.02151 0.75341 0.65546 0.0
C8877 C 0.02503 0.74992 0.65119 0.0
C8878 C 0.03145 0.74921 0.65202 0.0
C8879 C 0.01461 0.75356 0.65499 0.0
C8880 C 0.0114 0.74786 0.65496 0.0
C8881 C 0.01118 0.75919 0.6551 0.0
C8882 C 0.0143 0.76536 0.6548 0.0
C8883 C 0.01858 0.7667 0.65002 0.0
C8884 C 0.02153 0.7725 0.64977 0.0
C8885 C 0.02021 0.77703 0.65426 0.0
C8886 C 0.01593 0.77576 0.65899 0.0
C8887 C 0.01298 0.76996 0.65926 0.0
H8888 H 0.0225 0.78152 0.65405 0.0
H8889 H 0.99373 0.72525 0.65676 0.0
H8890 H 0.27089 0.03342 0.65093 0.0
H8891 H 0.26931 0.02218 0.65007 0.0
H8892 H 0.25573 0.02291 0.66486 0.0
H8893 H 0.2573 0.03417 0.66575 0.0
H8894 H 0.26401 0.01414 0.66705 0.0
H8895 H 0.25147 0.01983 0.64964 0.0
H8896 H 0.24895 0.0251 0.63977 0.0
H8897 H 0.26374 0.01524 0.63061 0.0
H8898 H 0.26641 0.00997 0.64045 0.0
H8899 H 0.25725 0.98203 0.66507 0.0
H8900 H 0.25566 0.99329 0.66436 0.0
H8901 H 0.26978 0.99442 0.65012 0.0
H8902 H 0.27137 0.98316 0.65078 0.0
H8903 H 0.26017 1.00223 0.64763 0.0
H8904 H 0.2733 0.99743 0.66522 0.0
H8905 H 0.27592 0.99219 0.67509 0.0
H8906 H 0.26001 1.00053 0.68388 0.0
H8907 H 0.25724 1.00576 0.67403 0.0
C8908 C 0.26746 0.03121 0.6539 0.0
C8909 C 0.26423 0.03469 0.65842 0.0
C8910 C 0.26656 0.02478 0.65341 0.0
C8911 C 0.26237 0.0217 0.65737 0.0
C8912 C 0.259 0.02519 0.66176 0.0
C8913 C 0.25991 0.03161 0.66227 0.0
C8914 C 0.26188 0.01479 0.65728 0.0
C8915 C 0.26304 0.01155 0.66283 0.0
C8916 C 0.26077 0.01139 0.65173 0.0
C8917 C 0.25917 0.01454 0.6458 0.0
C8918 C 0.25422 0.01882 0.64553 0.0
C8919 C 0.25275 0.0218 0.63994 0.0
C8920 C 0.25619 0.02051 0.63457 0.0
C8921 C 0.26109 0.01623 0.63477 0.0
C8922 C 0.26257 0.01324 0.64036 0.0
C8923 C 0.25998 0.98467 0.66176 0.0
C8924 C 0.26448 0.98171 0.65803 0.0
C8925 C 0.25906 0.9911 0.66135 0.0
C8926 C 0.26267 0.99471 0.65726 0.0
C8927 C 0.26694 0.99173 0.65331 0.0
C8928 C 0.26784 0.98529 0.65369 0.0
C8929 C 0.26233 1.00162 0.65739 0.0
C8930 C 0.26105 1.00485 0.65186 0.0
C8931 C 0.26334 1.00502 0.66294 0.0
C8932 C 0.26503 1.00193 0.66888 0.0
C8933 C 0.27033 0.99811 0.66925 0.0
C8934 C 0.27185 0.99515 0.67484 0.0
C8935 C 0.26812 0.99601 0.6801 0.0
C8936 C 0.26288 0.99986 0.67979 0.0
C8937 C 0.26134 1.00282 0.67421 0.0
H8938 H 0.26931 0.99372 0.68442 0.0
H8939 H 0.25505 0.02283 0.63024 0.0
H8940 H 0.98263 0.27089 0.65131 0.0
H8941 H 0.99386 0.26925 0.65047 0.0
H8942 H 0.99346 0.25787 0.66701 0.0
H8943 H 0.98221 0.25947 0.66786 0.0
H8944 H 1.00218 0.26657 0.66786 0.0
H8945 H 0.99627 0.25149 0.65262 0.0
H8946 H 0.99088 0.24749 0.64331 0.0
H8947 H 1.00065 0.26071 0.6319 0.0
H8948 H 1.00603 0.26485 0.64117 0.0
H8949 H 0.03398 0.25871 0.66681 0.0
H8950 H 0.02268 0.25733 0.66622 0.0
H8951 H 0.022 0.26957 0.65032 0.0
H8952 H 0.0333 0.27099 0.65089 0.0
H8953 H 0.01385 0.25969 0.64914 0.0
H8954 H 0.01906 0.27525 0.66448 0.0
H8955 H 0.02445 0.27929 0.67378 0.0
H8956 H 0.01585 0.26512 0.68499 0.0
H8957 H 0.01049 0.26094 0.67573 0.0
C8958 C 0.98491 0.26792 0.65469 0.0
C8959 C 0.98153 0.26534 0.65967 0.0
C8960 C 0.99134 0.26699 0.6542 0.0
C8961 C 0.99451 0.26341 0.65866 0.0
C8962 C 0.99111 0.26066 0.66353 0.0
C8963 C 0.98469 0.2616 0.66402 0.0
C8964 C 1.00141 0.26296 0.65854 0.0
C8965 C 1.00472 0.26495 0.66381 0.0
C8966 C 1.00474 0.261 0.65319 0.0
C8967 C 1.00151 0.25852 0.6476 0.0
C8968 C 0.99723 0.25358 0.64814 0.0
C8969 C 0.99419 0.25128 0.64286 0.0
C8970 C 0.99541 0.25385 0.63702 0.0
C8971 C 0.9997 0.25872 0.63644 0.0
C8972 C 1.00275 0.26105 0.6417 0.0
C8973 C 0.03143 0.26108 0.66316 0.0
C8974 C 0.03452 0.26502 0.65894 0.0
C8975 C 0.02498 0.26027 0.66282 0.0
C8976 C 0.02149 0.26343 0.65829 0.0
C8977 C 0.0246 0.26709 0.65386 0.0
C8978 C 0.03106 0.26789 0.65418 0.0
C8979 C 0.01458 0.26329 0.65846 0.0
C8980 C 0.01129 0.26124 0.65321 0.0
C8981 C 0.01125 0.2652 0.66382 0.0
C8982 C 0.01443 0.26774 0.6694 0.0
C8983 C 0.01836 0.27297 0.66892 0.0
C8984 C 0.0214 0.27528 0.67418 0.0
C8985 C 0.02051 0.27245 0.67997 0.0
C8986 C 0.01655 0.2673 0.6805 0.0
C8987 C 0.01351 0.26496 0.67525 0.0
H8988 H 0.02287 0.27426 0.68404 0.0
H8989 H 0.99305 0.25207 0.63294 0.0
H8990 H 0.75635 0.03473 0.65132 0.0
H8991 H 0.75785 0.02342 0.65075 0.0
H8992 H 0.74842 0.02128 0.66835 0.0
H8993 H 0.74687 0.03251 0.66893 0.0
H8994 H 0.7587 0.01415 0.66786 0.0
H8995 H 0.74103 0.01853 0.6545 0.0
H8996 H 0.73574 0.02359 0.64565 0.0
H8997 H 0.74891 0.01542 0.633 0.0
H8998 H 0.75432 0.01038 0.64179 0.0
H8999 H 0.74689 0.98375 0.66917 0.0
H9000 H 0.74854 0.99496 0.66849 0.0
H9001 H 0.75813 0.99257 0.65101 0.0
H9002 H 0.75656 0.98127 0.65169 0.0
H9003 H 0.7496 1.00193 0.65048 0.0
H9004 H 0.76636 0.99632 0.6638 0.0
H9005 H 0.77149 0.99117 0.67267 0.0
H9006 H 0.7601 1.00155 0.68542 0.0
H9007 H 0.75484 1.00671 0.67662 0.0
C9008 C 0.75459 0.03184 0.65505 0.0
C9009 C 0.75151 0.03453 0.66018 0.0
C9010 C 0.75546 0.02538 0.65473 0.0
C9011 C 0.75322 0.0215 0.65949 0.0
C9012 C 0.75023 0.02418 0.66464 0.0
C9013 C 0.74937 0.03062 0.66497 0.0
C9014 C 0.75382 0.01462 0.65912 0.0
C9015 C 0.75669 0.01147 0.66408 0.0
C9016 C 0.75138 0.01114 0.65408 0.0
C9017 C 0.74812 0.01415 0.6488 0.0
C9018 C 0.74282 0.01786 0.64984 0.0
C9019 C 0.7398 0.02071 0.64483 0.0
C9020 C 0.742 0.01984 0.63877 0.0
C9021 C 0.74722 0.0161 0.6377 0.0
C9022 C 0.75027 0.01325 0.64269 0.0
C9023 C 0.74946 0.98557 0.66523 0.0
C9024 C 0.75164 0.98159 0.66051 0.0
C9025 C 0.75038 0.992 0.66484 0.0
C9026 C 0.75353 0.9946 0.65974 0.0
C9027 C 0.7557 0.99066 0.655 0.0
C9028 C 0.75479 0.98421 0.65539 0.0
C9029 C 0.75431 1.00146 0.65932 0.0
C9030 C 0.75171 1.0046 0.65422 0.0
C9031 C 0.757 1.00494 0.66423 0.0
C9032 C 0.76017 1.00188 0.66954 0.0
C9033 C 0.76491 0.99748 0.66849 0.0
C9034 C 0.76785 0.99456 0.67351 0.0
C9035 C 0.76611 0.99603 0.6796 0.0
C9036 C 0.76144 1.00042 0.68069 0.0
C9037 C 0.75849 1.00335 0.6757 0.0
H9038 H 0.76839 0.99376 0.68348 0.0
H9039 H 0.73966 0.02206 0.63491 0.0
H9040 H 0.35834 0.98119 0.25839 0.0
H9041 H 0.35931 0.99252 0.25702 0.0
H9042 H 0.35792 0.99502 0.2769 0.0
H9043 H 0.35696 0.98379 0.27828 0.0
H9044 H 0.34977 1.00226 0.27076 0.0
H9045 H 0.37167 0.99699 0.26911 0.0
H9046 H 0.38073 0.99161 0.26453 0.0
H9047 H 0.37697 1.00012 0.24685 0.0
H9048 H 0.36784 1.00549 0.25131 0.0
H9049 H 0.35825 0.03242 0.27797 0.0
H9050 H 0.35902 0.02117 0.2766 0.0
H9051 H 0.35883 0.02349 0.25667 0.0
H9052 H 0.35801 0.03485 0.25802 0.0
H9053 H 0.36721 0.01392 0.26102 0.0
H9054 H 0.34584 0.0198 0.26282 0.0
H9055 H 0.33685 0.0253 0.26738 0.0
H9056 H 0.3395 0.01555 0.28462 0.0
H9057 H 0.34857 0.01006 0.28019 0.0
C9058 C 0.35834 0.98416 0.26246 0.0
C9059 C 0.3575 0.98161 0.26843 0.0
C9060 C 0.35889 0.99063 0.26168 0.0
C9061 C 0.35866 0.99461 0.26686 0.0
C9062 C 0.35805 0.99204 0.27283 0.0
C9063 C 0.35749 0.98562 0.27361 0.0
C9064 C 0.35865 1.00149 0.26615 0.0
C9065 C 0.35361 1.0048 0.26866 0.0
C9066 C 0.36354 1.0048 0.2632 0.0
C9067 C 0.36903 1.00158 0.26052 0.0
C9068 C 0.37274 0.99767 0.26423 0.0
C9069 C 0.3779 0.99464 0.26166 0.0
C9070 C 0.37941 0.99551 0.2554 0.0
C9071 C 0.37579 0.99944 0.25169 0.0
C9072 C 0.37062 1.00248 0.25424 0.0
C9073 C 0.3584 0.03055 0.27329 0.0
C9074 C 0.35796 0.03451 0.2681 0.0
C9075 C 0.35888 0.02413 0.27251 0.0
C9076 C 0.35888 0.0215 0.26653 0.0
C9077 C 0.35881 0.02544 0.26132 0.0
C9078 C 0.35835 0.03191 0.2621 0.0
C9079 C 0.35845 0.01464 0.26585 0.0
C9080 C 0.36335 0.01136 0.26305 0.0
C9081 C 0.35342 0.01132 0.26851 0.0
C9082 C 0.34791 0.01455 0.27118 0.0
C9083 C 0.34453 0.01886 0.2676 0.0
C9084 C 0.33942 0.02197 0.27016 0.0
C9085 C 0.33761 0.02078 0.27629 0.0
C9086 C 0.34091 0.01647 0.27987 0.0
C9087 C 0.34603 0.01335 0.27733 0.0
H9088 H 0.33365 0.0232 0.27827 0.0
H9089 H 0.38341 0.99316 0.25341 0.0
H9090 H 0.98255 0.36437 0.27076 0.0
H9091 H 0.9938 0.3652 0.26932 0.0
H9092 H 0.99306 0.35096 0.25515 0.0
H9093 H 0.98178 0.35009 0.25661 0.0
H9094 H 1.00177 0.34836 0.26335 0.0
H9095 H 0.99628 0.36638 0.25156 0.0
H9096 H 0.9911 0.3764 0.24945 0.0
H9097 H 1.00091 0.38484 0.26469 0.0
H9098 H 1.00609 0.37484 0.26695 0.0
H9099 H 0.03394 0.35046 0.25689 0.0
H9100 H 0.02268 0.35127 0.2553 0.0
H9101 H 0.02156 0.36496 0.26997 0.0
H9102 H 0.03282 0.3642 0.27155 0.0
H9103 H 0.01382 0.36789 0.26047 0.0
H9104 H 0.01843 0.34967 0.27281 0.0
H9105 H 0.02358 0.33964 0.27502 0.0
H9106 H 0.01527 0.33162 0.2587 0.0
H9107 H 0.01013 0.34163 0.25635 0.0
C9108 C 0.98476 0.36151 0.26724 0.0
C9109 C 0.98128 0.35715 0.26381 0.0
C9110 C 0.9912 0.36199 0.26642 0.0
C9111 C 0.99428 0.35817 0.26209 0.0
C9112 C 0.99079 0.35395 0.25852 0.0
C9113 C 0.98435 0.35344 0.25937 0.0
C9114 C 1.00119 0.35824 0.26165 0.0
C9115 C 1.00439 0.35262 0.26259 0.0
C9116 C 1.00464 0.36381 0.26081 0.0
C9117 C 1.00154 0.36984 0.25946 0.0
C9118 C 0.9973 0.37036 0.2545 0.0
C9119 C 0.99437 0.37604 0.25327 0.0
C9120 C 0.99567 0.38125 0.25694 0.0
C9121 C 0.99991 0.3808 0.26185 0.0
C9122 C 1.00285 0.37513 0.2631 0.0
C9123 C 0.03129 0.35367 0.25975 0.0
C9124 C 0.03425 0.35722 0.26439 0.0
C9125 C 0.02487 0.35413 0.25883 0.0
C9126 C 0.02126 0.3581 0.26259 0.0
C9127 C 0.02425 0.36187 0.26702 0.0
C9128 C 0.03068 0.36143 0.26791 0.0
C9129 C 0.01436 0.35802 0.26219 0.0
C9130 C 0.01117 0.36363 0.26114 0.0
C9131 C 0.01091 0.35244 0.26293 0.0
C9132 C 0.01395 0.34641 0.26437 0.0
C9133 C 0.01773 0.34577 0.26967 0.0
C9134 C 0.02065 0.3401 0.27095 0.0
C9135 C 0.01977 0.335 0.267 0.0
C9136 C 0.01595 0.33557 0.26176 0.0
C9137 C 0.01304 0.34124 0.26045 0.0
H9138 H 0.02202 0.33061 0.268 0.0
H9139 H 0.99339 0.38564 0.25598 0.0
H9140 H 0.65164 0.98288 0.26941 0.0
H9141 H 0.65094 0.99414 0.26785 0.0
H9142 H 0.66797 0.99377 0.25719 0.0
H9143 H 0.66869 0.98251 0.25872 0.0
H9144 H 0.66849 1.00238 0.26607 0.0
H9145 H 0.65394 0.99675 0.25024 0.0
H9146 H 0.64477 0.99147 0.24575 0.0
H9147 H 0.63281 1.00114 0.25853 0.0
H9148 H 0.64191 1.00642 0.26315 0.0
H9149 H 0.66808 0.03426 0.25853 0.0
H9150 H 0.66747 0.02298 0.25702 0.0
H9151 H 0.65097 0.02229 0.26847 0.0
H9152 H 0.65156 0.03357 0.27003 0.0
H9153 H 0.65019 0.01425 0.25847 0.0
H9154 H 0.6648 0.01917 0.27477 0.0
H9155 H 0.67394 0.02445 0.27933 0.0
H9156 H 0.68579 0.01595 0.26564 0.0
H9157 H 0.6767 0.0107 0.26095 0.0
C9158 C 0.65516 0.98517 0.26661 0.0
C9159 C 0.66024 0.9818 0.26422 0.0
C9160 C 0.65475 0.99161 0.26573 0.0
C9161 C 0.65939 0.9948 0.26238 0.0
C9162 C 0.66435 0.99141 0.25981 0.0
C9163 C 0.66477 0.98498 0.2607 0.0
C9164 C 0.65934 1.00171 0.26201 0.0
C9165 C 0.66453 1.00496 0.26429 0.0
C9166 C 0.65411 1.0051 0.25985 0.0
C9167 C 0.64862 1.00193 0.25708 0.0
C9168 C 0.64936 0.99771 0.25213 0.0
C9169 C 0.64417 0.99473 0.24955 0.0
C9170 C 0.63821 0.99596 0.25186 0.0
C9171 C 0.63743 1.00019 0.25675 0.0
C9172 C 0.6426 1.00318 0.25934 0.0
C9173 C 0.6643 0.03171 0.2607 0.0
C9174 C 0.65992 0.0348 0.26446 0.0
C9175 C 0.66394 0.02527 0.25981 0.0
C9176 C 0.65923 0.02179 0.26271 0.0
C9177 C 0.65465 0.02489 0.26619 0.0
C9178 C 0.65499 0.03134 0.26707 0.0
C9179 C 0.65935 0.01488 0.26251 0.0
C9180 C 0.65417 0.01164 0.26017 0.0
C9181 C 0.66459 0.01148 0.26463 0.0
C9182 C 0.67006 0.0146 0.26747 0.0
C9183 C 0.66935 0.01847 0.27271 0.0
C9184 C 0.67452 0.02145 0.27532 0.0
C9185 C 0.68044 0.02055 0.27276 0.0
C9186 C 0.6812 0.01665 0.26761 0.0
C9187 C 0.67604 0.01367 0.26497 0.0
H9188 H 0.68444 0.02286 0.27479 0.0
H9189 H 0.6342 0.99365 0.24986 0.0
H9190 H 0.98274 0.66562 0.25849 0.0
H9191 H 0.99407 0.66443 0.25795 0.0
H9192 H 0.99323 0.65006 0.27194 0.0
H9193 H 0.98193 0.65131 0.2726 0.0
H9194 H 1.00165 0.65899 0.2748 0.0
H9195 H 0.9967 0.64644 0.25702 0.0
H9196 H 0.99182 0.64405 0.24691 0.0
H9197 H 1.00195 0.65907 0.23841 0.0
H9198 H 1.00682 0.6616 0.24849 0.0
H9199 H 0.0333 0.65095 0.2744 0.0
H9200 H 0.02203 0.65005 0.27305 0.0
H9201 H 0.02259 0.66421 0.25883 0.0
H9202 H 0.0339 0.66511 0.26014 0.0
H9203 H 0.01432 0.65505 0.25588 0.0
H9204 H 0.01874 0.66805 0.27349 0.0
H9205 H 0.0236 0.67076 0.28353 0.0
H9206 H 0.01432 0.65533 0.29227 0.0
H9207 H 0.00947 0.65248 0.28225 0.0
C9208 C 0.98497 0.66217 0.26142 0.0
C9209 C 0.98144 0.65857 0.26561 0.0
C9210 C 0.99144 0.66146 0.26107 0.0
C9211 C 0.99449 0.65713 0.26489 0.0
C9212 C 0.99096 0.65341 0.26894 0.0
C9213 C 0.9845 0.6541 0.26928 0.0
C9214 C 1.0014 0.65683 0.26502 0.0
C9215 C 1.00442 0.65802 0.27068 0.0
C9216 C 1.005 0.65576 0.2596 0.0
C9217 C 1.00208 0.65424 0.25353 0.0
C9218 C 0.99784 0.64927 0.25301 0.0
C9219 C 0.99509 0.64788 0.24728 0.0
C9220 C 0.99656 0.65142 0.24203 0.0
C9221 C 1.0008 0.65634 0.24248 0.0
C9222 C 1.00357 0.65775 0.24821 0.0
C9223 C 0.03103 0.65385 0.27096 0.0
C9224 C 0.03447 0.65816 0.26743 0.0
C9225 C 0.02459 0.65332 0.27019 0.0
C9226 C 0.02146 0.65714 0.26592 0.0
C9227 C 0.02492 0.66122 0.26216 0.0
C9228 C 0.03137 0.66173 0.26291 0.0
C9229 C 0.01455 0.65716 0.26568 0.0
C9230 C 0.01154 0.65597 0.26 0.0
C9231 C 0.01093 0.65828 0.27107 0.0
C9232 C 0.0138 0.66001 0.27711 0.0
C9233 C 0.01778 0.66521 0.27755 0.0
C9234 C 0.02052 0.66677 0.28323 0.0
C9235 C 0.01928 0.66321 0.28853 0.0
C9236 C 0.01528 0.65808 0.28816 0.0
C9237 C 0.01253 0.65649 0.28248 0.0
H9238 H 0.02141 0.66443 0.29293 0.0
H9239 H 0.99442 0.65034 0.23759 0.0
H9240 H 0.34924 0.98221 0.75735 0.0
H9241 H 0.34996 0.99348 0.75891 0.0
H9242 H 0.36542 0.99431 0.74611 0.0
H9243 H 0.36474 0.98304 0.74453 0.0
H9244 H 0.36706 1.00226 0.75598 0.0
H9245 H 0.35095 0.9974 0.7411 0.0
H9246 H 0.34141 0.99215 0.73744 0.0
H9247 H 0.33094 1.0006 0.75223 0.0
H9248 H 0.34045 1.00583 0.75604 0.0
H9249 H 0.36474 0.03354 0.74508 0.0
H9250 H 0.36553 0.0223 0.74668 0.0
H9251 H 0.3495 0.02285 0.75879 0.0
H9252 H 0.3487 0.03411 0.75722 0.0
H9253 H 0.34815 0.01417 0.75013 0.0
H9254 H 0.36414 0.01982 0.76449 0.0
H9255 H 0.37369 0.02508 0.76808 0.0
H9256 H 0.38439 0.01531 0.75431 0.0
H9257 H 0.37488 0.01005 0.75056 0.0
C9258 C 0.35282 0.98479 0.7549 0.0
C9259 C 0.35689 0.98174 0.75076 0.0
C9260 C 0.35324 0.99122 0.75581 0.0
C9261 C 0.35768 0.99474 0.75255 0.0
C9262 C 0.36196 0.99168 0.74867 0.0
C9263 C 0.36157 0.98524 0.74778 0.0
C9264 C 0.35756 1.00165 0.75281 0.0
C9265 C 0.36295 1.00488 0.75466 0.0
C9266 C 0.35215 1.00506 0.75121 0.0
C9267 C 0.34642 1.00195 0.74889 0.0
C9268 C 0.34663 0.9981 0.7436 0.0
C9269 C 0.34122 0.99513 0.74149 0.0
C9270 C 0.33558 0.99603 0.74461 0.0
C9271 C 0.33532 0.99991 0.74983 0.0
C9272 C 0.34071 1.00288 0.75196 0.0
C9273 C 0.36147 0.0313 0.7482 0.0
C9274 C 0.35664 0.03472 0.751 0.0
C9275 C 0.36193 0.02486 0.74911 0.0
C9276 C 0.35759 0.02173 0.75288 0.0
C9277 C 0.35289 0.02517 0.75584 0.0
C9278 C 0.35242 0.03159 0.75493 0.0
C9279 C 0.35765 0.01482 0.7533 0.0
C9280 C 0.35225 0.01158 0.75153 0.0
C9281 C 0.36305 0.01143 0.75497 0.0
C9282 C 0.36878 0.01458 0.75721 0.0
C9283 C 0.36852 0.01883 0.76219 0.0
C9284 C 0.37393 0.02181 0.76426 0.0
C9285 C 0.37964 0.02054 0.76142 0.0
C9286 C 0.37996 0.01629 0.7565 0.0
C9287 C 0.37456 0.0133 0.75441 0.0
H9288 H 0.38383 0.02285 0.76303 0.0
H9289 H 0.3314 0.99373 0.74297 0.0
H9290 H 0.03157 0.35653 0.73795 0.0
H9291 H 0.02046 0.35837 0.73937 0.0
H9292 H 0.02351 0.36232 0.75882 0.0
H9293 H 0.0347 0.36034 0.75744 0.0
H9294 H 0.01375 0.35434 0.75706 0.0
H9295 H 0.01977 0.37408 0.74925 0.0
H9296 H 0.02507 0.38155 0.74232 0.0
H9297 H 0.01447 0.37478 0.72679 0.0
H9298 H 0.00916 0.36721 0.7336 0.0
H9299 H 0.98074 0.36048 0.75724 0.0
H9300 H 0.99195 0.36232 0.75866 0.0
H9301 H 0.99509 0.35811 0.73928 0.0
H9302 H 0.98396 0.35639 0.73782 0.0
H9303 H 1.00177 0.36819 0.74299 0.0
H9304 H 0.99743 0.34722 0.75058 0.0
H9305 H 0.99226 0.3396 0.75746 0.0
H9306 H 0.99984 0.34885 0.77349 0.0
H9307 H 1.00498 0.35658 0.76669 0.0
C9308 C 0.02989 0.35778 0.74254 0.0
C9309 C 0.03401 0.35825 0.74759 0.0
C9310 C 0.02354 0.3589 0.74333 0.0
C9311 C 0.02116 0.36055 0.74918 0.0
C9312 C 0.02526 0.36108 0.75425 0.0
C9313 C 0.03164 0.35998 0.75345 0.0
C9314 C 0.01434 0.36141 0.74997 0.0
C9315 C 0.01114 0.35749 0.75409 0.0
C9316 C 0.01093 0.36548 0.74607 0.0
C9317 C 0.01408 0.37005 0.74194 0.0
C9318 C 0.01859 0.37416 0.74435 0.0
C9319 C 0.0216 0.37841 0.74044 0.0
C9320 C 0.02011 0.37863 0.73412 0.0
C9321 C 0.01561 0.3746 0.73169 0.0
C9322 C 0.01259 0.37034 0.73558 0.0
C9323 C 0.98382 0.36002 0.75328 0.0
C9324 C 0.98148 0.35823 0.74743 0.0
C9325 C 0.99022 0.36104 0.7541 0.0
C9326 C 0.99436 0.3603 0.74909 0.0
C9327 C 0.99199 0.3587 0.74322 0.0
C9328 C 0.98563 0.35766 0.7424 0.0
C9329 C 1.00119 0.36095 0.74989 0.0
C9330 C 1.0044 0.36517 0.74606 0.0
C9331 C 1.0046 0.35716 0.75407 0.0
C9332 C 1.00152 0.35252 0.75814 0.0
C9333 C 0.99794 0.34766 0.75557 0.0
C9334 C 0.99503 0.34332 0.75945 0.0
C9335 C 0.9957 0.34376 0.76591 0.0
C9336 C 0.99931 0.34853 0.76849 0.0
C9337 C 1.00222 0.35289 0.76463 0.0
H9338 H 0.99344 0.34039 0.76891 0.0
H9339 H 0.02245 0.38193 0.7311 0.0
H9340 H 0.66614 0.03452 0.75825 0.0
H9341 H 0.66531 0.02327 0.75987 0.0
H9342 H 0.65058 0.02233 0.74625 0.0
H9343 H 0.65136 0.03358 0.74463 0.0
H9344 H 0.64831 0.01452 0.75596 0.0
H9345 H 0.66548 0.01915 0.74219 0.0
H9346 H 0.67531 0.02429 0.73917 0.0
H9347 H 0.68461 0.01586 0.75471 0.0
H9348 H 0.6748 0.01073 0.75787 0.0
H9349 H 0.65097 0.98332 0.74507 0.0
H9350 H 0.65023 0.99455 0.74673 0.0
H9351 H 0.66544 0.99368 0.75982 0.0
H9352 H 0.66621 0.98243 0.75817 0.0
H9353 H 0.66747 1.00243 0.75141 0.0
H9354 H 0.65044 0.9969 0.7646 0.0
H9355 H 0.6406 0.99173 0.76749 0.0
H9356 H 0.631 1.00168 0.75307 0.0
H9357 H 0.64081 1.00685 0.75003 0.0
C9358 C 0.66269 0.03192 0.75563 0.0
C9359 C 0.65886 0.03493 0.75126 0.0
C9360 C 0.66221 0.0255 0.75657 0.0
C9361 C 0.65795 0.02195 0.75311 0.0
C9362 C 0.6539 0.02498 0.74898 0.0
C9363 C 0.65435 0.03141 0.74806 0.0
C9364 C 0.65801 0.01504 0.75344 0.0
C9365 C 0.65248 0.01186 0.75493 0.0
C9366 C 0.66349 0.01158 0.75222 0.0
C9367 C 0.66939 0.01461 0.7503 0.0
C9368 C 0.66961 0.01843 0.74499 0.0
C9369 C 0.67517 0.02133 0.74325 0.0
C9370 C 0.68057 0.02041 0.74676 0.0
C9371 C 0.68042 0.01657 0.752 0.0
C9372 C 0.67486 0.01366 0.75377 0.0
C9373 C 0.65406 0.98549 0.74841 0.0
C9374 C 0.65866 0.98198 0.75147 0.0
C9375 C 0.65363 0.99192 0.74936 0.0
C9376 C 0.65776 0.99496 0.75343 0.0
C9377 C 0.66222 0.99144 0.75664 0.0
C9378 C 0.66266 0.98501 0.75569 0.0
C9379 C 0.65776 1.00187 0.75391 0.0
C9380 C 0.6633 1.00506 0.75254 0.0
C9381 C 0.65229 1.00532 0.75523 0.0
C9382 C 0.64638 1.00223 0.75705 0.0
C9383 C 0.64625 0.99795 0.76201 0.0
C9384 C 0.64067 0.99503 0.76368 0.0
C9385 C 0.63518 0.99637 0.76046 0.0
C9386 C 0.63526 1.00064 0.75556 0.0
C9387 C 0.64082 1.00358 0.75386 0.0
H9388 H 0.63087 0.9941 0.76177 0.0
H9389 H 0.68488 0.02267 0.7454 0.0
H9390 H 0.03308 0.66688 0.75683 0.0
H9391 H 0.02187 0.66548 0.75814 0.0
H9392 H 0.0229 0.64784 0.74856 0.0
H9393 H 0.03409 0.64932 0.74703 0.0
H9394 H 0.01405 0.65488 0.74375 0.0
H9395 H 0.01965 0.64866 0.76428 0.0
H9396 H 0.02486 0.64944 0.77447 0.0
H9397 H 0.01491 0.66634 0.77839 0.0
H9398 H 0.00971 0.66571 0.76818 0.0
H9399 H 0.98183 0.64961 0.74747 0.0
H9400 H 0.99302 0.64805 0.74894 0.0
H9401 H 0.99446 0.66612 0.75762 0.0
H9402 H 0.98324 0.66764 0.75635 0.0
H9403 H 1.00203 0.6576 0.76329 0.0
H9404 H 0.99754 0.66446 0.74236 0.0
H9405 H 0.99239 0.66386 0.73212 0.0
H9406 H 1.0004 0.6458 0.72901 0.0
H9407 H 1.00554 0.64626 0.73927 0.0
C9408 C 0.03093 0.66268 0.75503 0.0
C9409 C 0.03448 0.65823 0.75179 0.0
C9410 C 0.02453 0.66185 0.75585 0.0
C9411 C 0.02154 0.65653 0.75349 0.0
C9412 C 0.0251 0.65198 0.75044 0.0
C9413 C 0.03151 0.65281 0.74961 0.0
C9414 C 0.01464 0.65602 0.7537 0.0
C9415 C 0.01143 0.65533 0.74805 0.0
C9416 C 0.01121 0.65676 0.75928 0.0
C9417 C 0.01432 0.65716 0.76544 0.0
C9418 C 0.01861 0.65257 0.76729 0.0
C9419 C 0.02155 0.65298 0.77308 0.0
C9420 C 0.02023 0.65794 0.77707 0.0
C9421 C 0.01594 0.6625 0.77529 0.0
C9422 C 0.01298 0.66211 0.76951 0.0
C9423 C 0.9845 0.65319 0.74983 0.0
C9424 C 0.98166 0.65878 0.75174 0.0
C9425 C 0.9909 0.65231 0.75062 0.0
C9426 C 0.99459 0.65701 0.7533 0.0
C9427 C 0.99171 0.66244 0.75551 0.0
C9428 C 0.98531 0.66333 0.75473 0.0
C9429 C 1.00148 0.6565 0.75335 0.0
C9430 C 1.00467 0.65703 0.75903 0.0
C9431 C 1.00491 0.65562 0.74779 0.0
C9432 C 1.00186 0.65536 0.74161 0.0
C9433 C 0.99817 0.66034 0.73951 0.0
C9434 C 0.99526 0.66003 0.7337 0.0
C9435 C 0.99605 0.65479 0.72992 0.0
C9436 C 0.99978 0.64985 0.73194 0.0
C9437 C 1.00269 0.65014 0.73775 0.0
H9438 H 0.9938 0.65456 0.72543 0.0
H9439 H 0.02251 0.65825 0.78155 0.0
H9440 H 0.2691 0.36703 0.98129 0.0
H9441 H 0.2677 0.36857 0.99248 0.0
H9442 H 0.25939 0.35032 0.99398 0.0
H9443 H 0.26057 0.34883 0.98277 0.0
H9444 H 0.25361 0.35857 1.00159 0.0
H9445 H 0.27479 0.35249 0.9969 0.0
H9446 H 0.28499 0.3535 0.9917 0.0
H9447 H 0.28747 0.37162 0.99982 0.0
H9448 H 0.27725 0.37075 1.00501 0.0
H9449 H 0.26056 0.34906 0.03236 0.0
H9450 H 0.25921 0.35058 0.02118 0.0
H9451 H 0.26813 0.36856 0.02251 0.0
H9452 H 0.26969 0.36697 0.03368 0.0
H9453 H 0.27315 0.36186 0.01347 0.0
H9454 H 0.25244 0.36724 0.01935 0.0
H9455 H 0.24231 0.36601 0.02462 0.0
H9456 H 0.23892 0.34912 0.01445 0.0
H9457 H 0.24907 0.3502 0.00917 0.0
C9458 C 0.26684 0.3634 0.98397 0.0
C9459 C 0.26501 0.35777 0.98114 0.0
C9460 C 0.26609 0.36427 0.99038 0.0
C9461 C 0.26354 0.35951 0.99408 0.0
C9462 C 0.2614 0.35404 0.99122 0.0
C9463 C 0.26213 0.35317 0.98482 0.0
C9464 C 0.26352 0.36002 1.00097 0.0
C9465 C 0.25788 0.35926 1.0042 0.0
C9466 C 0.26907 0.36107 1.00437 0.0
C9467 C 0.27523 0.36158 1.00128 0.0
C9468 C 0.27749 0.35671 0.99754 0.0
C9469 C 0.28328 0.35725 0.9946 0.0
C9470 C 0.28687 0.36263 0.99541 0.0
C9471 C 0.28468 0.36747 0.99919 0.0
C9472 C 0.27889 0.36695 1.00213 0.0
C9473 C 0.26221 0.35336 0.03028 0.0
C9474 C 0.26527 0.35788 0.03391 0.0
C9475 C 0.26137 0.35425 0.0239 0.0
C9476 C 0.26352 0.35971 0.02101 0.0
C9477 C 0.26641 0.36432 0.02465 0.0
C9478 C 0.26726 0.36343 0.03104 0.0
C9479 C 0.26325 0.36034 0.01413 0.0
C9480 C 0.26885 0.36129 0.01089 0.0
C9481 C 0.25766 0.35944 0.01074 0.0
C9482 C 0.25154 0.35878 0.01389 0.0
C9483 C 0.24955 0.36324 0.01827 0.0
C9484 C 0.2438 0.36257 0.02125 0.0
C9485 C 0.23998 0.35748 0.01988 0.0
C9486 C 0.24189 0.35306 0.01551 0.0
C9487 C 0.24764 0.3537 0.01251 0.0
H9488 H 0.23553 0.35697 0.0222 0.0
H9489 H 0.29135 0.36304 0.99313 0.0
H9490 H 0.26585 0.64917 0.03385 0.0
H9491 H 0.26386 0.64787 0.02271 0.0
H9492 H 0.26117 0.6677 0.02088 0.0
H9493 H 0.26288 0.669 0.03203 0.0
H9494 H 0.2532 0.66156 0.01357 0.0
H9495 H 0.2754 0.6607 0.01791 0.0
H9496 H 0.28479 0.65645 0.02296 0.0
H9497 H 0.28112 0.6385 0.01489 0.0
H9498 H 0.27166 0.64264 0.00986 0.0
H9499 H 0.26252 0.66943 0.98316 0.0
H9500 H 0.26081 0.66792 0.99427 0.0
H9501 H 0.26408 0.6482 0.99213 0.0
H9502 H 0.26607 0.64973 0.98102 0.0
H9503 H 0.27068 0.65258 1.00141 0.0
H9504 H 0.24935 0.65406 0.99561 0.0
H9505 H 0.2401 0.65849 0.99045 0.0
H9506 H 0.24208 0.6753 1.00112 0.0
H9507 H 0.25139 0.67101 1.00627 0.0
C9508 C 0.26469 0.65324 0.03111 0.0
C9509 C 0.26461 0.65921 0.03382 0.0
C9510 C 0.26361 0.65249 0.02473 0.0
C9511 C 0.26248 0.65771 0.02094 0.0
C9512 C 0.26206 0.66362 0.0237 0.0
C9513 C 0.26311 0.66436 0.03007 0.0
C9514 C 0.26218 0.65713 0.01405 0.0
C9515 C 0.25702 0.65961 0.0109 0.0
C9516 C 0.26709 0.65443 0.01057 0.0
C9517 C 0.27279 0.65196 0.01357 0.0
C9518 C 0.27658 0.65584 0.01725 0.0
C9519 C 0.28191 0.65345 0.0201 0.0
C9520 C 0.28354 0.6472 0.01927 0.0
C9521 C 0.27985 0.64334 0.01555 0.0
C9522 C 0.2745 0.6457 0.01269 0.0
C9523 C 0.26286 0.66477 0.98504 0.0
C9524 C 0.26449 0.65971 0.9812 0.0
C9525 C 0.26179 0.66389 0.99139 0.0
C9526 C 0.26224 0.65793 0.99404 0.0
C9527 C 0.26368 0.65284 0.99019 0.0
C9528 C 0.26477 0.65371 0.98383 0.0
C9529 C 0.26175 0.65714 1.0009 0.0
C9530 C 0.26677 0.65441 1.00406 0.0
C9531 C 0.25672 0.65962 1.00437 0.0
C9532 C 0.2511 0.66222 1.0013 0.0
C9533 C 0.24784 0.65872 0.99682 0.0
C9534 C 0.24258 0.6612 0.99391 0.0
C9535 C 0.24051 0.66718 0.99545 0.0
C9536 C 0.24369 0.67067 0.99992 0.0
C9537 C 0.24895 0.66821 1.00285 0.0
H9538 H 0.23644 0.66909 0.99319 0.0
H9539 H 0.28768 0.64536 0.02148 0.0
H9540 H 0.36141 0.27814 0.03208 0.0
H9541 H 0.36216 0.27688 0.02081 0.0
H9542 H 0.35654 0.25766 0.02249 0.0
H9543 H 0.35575 0.2589 0.03384 0.0
H9544 H 0.36592 0.25974 0.01323 0.0
H9545 H 0.3458 0.26738 0.01894 0.0
H9546 H 0.33839 0.27424 0.02441 0.0
H9547 H 0.34596 0.29015 0.01493 0.0
H9548 H 0.35349 0.28339 0.00948 0.0
H9549 H 0.35605 0.25908 0.98086 0.0
H9550 H 0.35703 0.25782 0.99217 0.0
H9551 H 0.36127 0.2774 0.99398 0.0
H9552 H 0.36032 0.27867 0.98274 0.0
H9553 H 0.35195 0.27396 1.00158 0.0
H9554 H 0.37237 0.26623 0.99613 0.0
H9555 H 0.37977 0.25929 0.99076 0.0
H9556 H 0.37147 0.24339 0.99962 0.0
H9557 H 0.36395 0.25023 1.00498 0.0
C9558 C 0.36038 0.27363 0.03006 0.0
C9559 C 0.35842 0.26864 0.03383 0.0
C9560 C 0.36083 0.27291 0.02363 0.0
C9561 C 0.35931 0.26721 0.02082 0.0
C9562 C 0.35772 0.2621 0.02458 0.0
C9563 C 0.35728 0.26281 0.03105 0.0
C9564 C 0.35886 0.26682 0.01395 0.0
C9565 C 0.36281 0.26277 0.01067 0.0
C9566 C 0.35481 0.27081 0.01062 0.0
C9567 C 0.35024 0.27488 0.01384 0.0
C9568 C 0.34592 0.27235 0.01806 0.0
C9569 C 0.34169 0.27622 0.02115 0.0
C9570 C 0.34171 0.28263 0.02003 0.0
C9571 C 0.34595 0.28518 0.0158 0.0
C9572 C 0.3502 0.28133 0.0127 0.0
C9573 C 0.35731 0.26308 0.98367 0.0
C9574 C 0.35804 0.26899 0.98093 0.0
C9575 C 0.35786 0.26236 0.99013 0.0
C9576 C 0.3592 0.26752 0.99392 0.0
C9577 C 0.36018 0.27336 0.99115 0.0
C9578 C 0.35962 0.27409 0.98473 0.0
C9579 C 0.35915 0.26703 1.00081 0.0
C9580 C 0.35505 0.27089 1.00411 0.0
C9581 C 0.36303 0.26285 1.00412 0.0
C9582 C 0.36755 0.25873 1.0009 0.0
C9583 C 0.37208 0.26125 0.99689 0.0
C9584 C 0.37631 0.25733 0.99385 0.0
C9585 C 0.37608 0.2509 0.99483 0.0
C9586 C 0.37163 0.24837 0.99886 0.0
C9587 C 0.36739 0.25226 1.0019 0.0
H9588 H 0.37936 0.24787 0.99248 0.0
H9589 H 0.33844 0.28562 0.02243 0.0
H9590 H 0.75694 0.34873 0.03228 0.0
H9591 H 0.7583 0.35011 0.02108 0.0
H9592 H 0.74911 0.36795 0.02214 0.0
H9593 H 0.74754 0.3665 0.03331 0.0
H9594 H 0.74418 0.361 0.01324 0.0
H9595 H 0.76482 0.36684 0.01899 0.0
H9596 H 0.77497 0.36585 0.02424 0.0
H9597 H 0.77862 0.34891 0.01424 0.0
H9598 H 0.76844 0.34975 0.00898 0.0
H9599 H 0.74822 0.3664 0.98112 0.0
H9600 H 0.74959 0.36785 0.99232 0.0
H9601 H 0.75802 0.34966 0.99365 0.0
H9602 H 0.75685 0.34826 0.98242 0.0
H9603 H 0.76376 0.35801 1.00133 0.0
H9604 H 0.74271 0.35154 0.99665 0.0
H9605 H 0.73251 0.35234 0.99146 0.0
H9606 H 0.72967 0.37039 0.99961 0.0
H9607 H 0.73991 0.36973 1.00479 0.0
C9608 C 0.75524 0.35297 0.03014 0.0
C9609 C 0.7521 0.35749 0.03369 0.0
C9610 C 0.75609 0.35378 0.02374 0.0
C9611 C 0.75385 0.35915 0.02077 0.0
C9612 C 0.75089 0.36377 0.02433 0.0
C9613 C 0.75004 0.36296 0.03073 0.0
C9614 C 0.75411 0.35969 0.01388 0.0
C9615 C 0.74849 0.36049 0.01064 0.0
C9616 C 0.75971 0.35886 0.01048 0.0
C9617 C 0.76584 0.35834 0.01363 0.0
C9618 C 0.76776 0.36288 0.01794 0.0
C9619 C 0.77353 0.36235 0.02092 0.0
C9620 C 0.77743 0.35732 0.01958 0.0
C9621 C 0.77559 0.35281 0.01527 0.0
C9622 C 0.76982 0.35331 0.01228 0.0
C9623 C 0.7505 0.36277 0.98377 0.0
C9624 C 0.75237 0.35718 0.98088 0.0
C9625 C 0.75124 0.36358 0.99018 0.0
C9626 C 0.75382 0.35882 0.99383 0.0
C9627 C 0.75599 0.35339 0.99093 0.0
C9628 C 0.75526 0.35257 0.98451 0.0
C9629 C 0.75384 0.35928 1.00073 0.0
C9630 C 0.75949 0.35863 1.00395 0.0
C9631 C 0.74827 0.36023 1.00413 0.0
C9632 C 0.7421 0.36062 1.00105 0.0
C9633 C 0.73993 0.3557 0.9973 0.0
C9634 C 0.73414 0.35613 0.99436 0.0
C9635 C 0.73045 0.36142 0.99519 0.0
C9636 C 0.73254 0.3663 0.99897 0.0
C9637 C 0.73833 0.3659 1.0019 0.0
H9638 H 0.72596 0.36174 0.99291 0.0
H9639 H 0.7819 0.35691 0.02189 0.0
H9640 H 0.65692 0.75769 0.98078 0.0
H9641 H 0.65512 0.75906 0.992 0.0
H9642 H 0.65899 0.73956 0.99496 0.0
H9643 H 0.66066 0.73815 0.98382 0.0
H9644 H 0.64899 0.74338 1.00167 0.0
H9645 H 0.67007 0.7507 0.99741 0.0
H9646 H 0.67781 0.75751 0.99231 0.0
H9647 H 0.66882 0.77365 0.99998 0.0
H9648 H 0.66099 0.76693 1.00507 0.0
H9649 H 0.66038 0.73812 0.03152 0.0
H9650 H 0.65869 0.73957 0.02041 0.0
H9651 H 0.65499 0.75909 0.02345 0.0
H9652 H 0.65682 0.75768 0.03465 0.0
H9653 H 0.66303 0.75722 0.01375 0.0
H9654 H 0.64313 0.74968 0.01963 0.0
H9655 H 0.63552 0.74284 0.02486 0.0
H9656 H 0.6421 0.72721 0.01426 0.0
H9657 H 0.64981 0.73393 0.00902 0.0
C9658 C 0.65731 0.75369 0.98383 0.0
C9659 C 0.659 0.74783 0.98143 0.0
C9660 C 0.65632 0.75449 0.99023 0.0
C9661 C 0.65698 0.74942 0.99432 0.0
C9662 C 0.65847 0.74354 0.99189 0.0
C9663 C 0.65948 0.74275 0.98553 0.0
C9664 C 0.65634 0.75019 1.00115 0.0
C9665 C 0.65206 0.7464 1.00432 0.0
C9666 C 0.66019 0.7543 1.00459 0.0
C9667 C 0.6649 0.75832 1.00155 0.0
C9668 C 0.66972 0.75571 0.99796 0.0
C9669 C 0.67413 0.75955 0.99508 0.0
C9670 C 0.67379 0.76601 0.9958 0.0
C9671 C 0.66906 0.76864 0.99942 0.0
C9672 C 0.66464 0.76482 1.0023 0.0
C9673 C 0.65922 0.74273 0.02983 0.0
C9674 C 0.65877 0.74779 0.03396 0.0
C9675 C 0.65819 0.74354 0.02348 0.0
C9676 C 0.65664 0.74942 0.0211 0.0
C9677 C 0.65615 0.7545 0.0252 0.0
C9678 C 0.65716 0.75368 0.03159 0.0
C9679 C 0.65584 0.75022 0.01429 0.0
C9680 C 0.65984 0.75431 0.01112 0.0
C9681 C 0.65173 0.74639 0.01084 0.0
C9682 C 0.64707 0.74231 0.01395 0.0
C9683 C 0.64298 0.74478 0.01844 0.0
C9684 C 0.63865 0.74092 0.0214 0.0
C9685 C 0.63833 0.73459 0.0199 0.0
C9686 C 0.64235 0.73211 0.01542 0.0
C9687 C 0.64669 0.73595 0.01244 0.0
H9688 H 0.63498 0.73161 0.0222 0.0
H9689 H 0.67721 0.76897 0.99357 0.0
H9690 H 0.74127 0.66779 0.98317 0.0
H9691 H 0.74274 0.66727 0.9944 0.0
H9692 H 0.75726 0.65362 0.99194 0.0
H9693 H 0.75582 0.65412 0.98061 0.0
H9694 H 0.74944 0.65055 1.00153 0.0
H9695 H 0.76121 0.66834 0.9955 0.0
H9696 H 0.76329 0.67826 0.99012 0.0
H9697 H 0.74855 0.68705 1.0004 0.0
H9698 H 0.74632 0.67715 1.00578 0.0
H9699 H 0.75592 0.65465 0.03432 0.0
H9700 H 0.75723 0.65388 0.023 0.0
H9701 H 0.74285 0.66766 0.02042 0.0
H9702 H 0.74151 0.66844 0.03165 0.0
H9703 H 0.75277 0.67017 0.0133 0.0
H9704 H 0.74022 0.65193 0.01822 0.0
H9705 H 0.73812 0.64195 0.02351 0.0
H9706 H 0.75456 0.63403 0.01531 0.0
H9707 H 0.7568 0.644 0.01003 0.0
C9708 C 0.74483 0.66472 0.985 0.0
C9709 C 0.7485 0.66107 0.98099 0.0
C9710 C 0.74565 0.66442 0.99142 0.0
C9711 C 0.75019 0.6605 0.994 0.0
C9712 C 0.75376 0.6567 0.99004 0.0
C9713 C 0.75292 0.65699 0.98358 0.0
C9714 C 0.75114 0.66042 1.00085 0.0
C9715 C 0.7503 0.65481 1.0041 0.0
C9716 C 0.75222 0.66599 1.00421 0.0
C9717 C 0.75358 0.67198 1.00102 0.0
C9718 C 0.75839 0.67237 0.99659 0.0
C9719 C 0.7596 0.678 0.99354 0.0
C9720 C 0.75605 0.68328 0.99491 0.0
C9721 C 0.7513 0.68295 0.99934 0.0
C9722 C 0.75006 0.67733 1.0024 0.0
C9723 C 0.75301 0.65748 0.03133 0.0
C9724 C 0.74864 0.66164 0.03389 0.0
C9725 C 0.75378 0.65704 0.02487 0.0
C9726 C 0.75013 0.6607 0.02086 0.0
C9727 C 0.74575 0.66482 0.02342 0.0
C9728 C 0.745 0.66528 0.02985 0.0
C9729 C 0.75082 0.66035 0.01399 0.0
C9730 C 0.75201 0.66588 0.01073 0.0
C9731 C 0.75008 0.65471 0.01064 0.0
C9732 C 0.74871 0.64872 0.01379 0.0
C9733 C 0.74341 0.64807 0.01758 0.0
C9734 C 0.74219 0.64242 0.02057 0.0
C9735 C 0.74621 0.63736 0.01976 0.0
C9736 C 0.75145 0.63795 0.01595 0.0
C9737 C 0.7527 0.6436 0.01295 0.0
H9738 H 0.74526 0.63299 0.02208 0.0
H9739 H 0.75699 0.68763 0.99254 0.0
H9740 H 0.34938 0.75593 0.983 0.0
H9741 H 0.35088 0.7574 0.99417 0.0
H9742 H 0.36885 0.74851 0.99296 0.0
H9743 H 0.3673 0.74684 0.9818 0.0
H9744 H 0.36208 0.74352 1.00198 0.0
H9745 H 0.36755 0.7642 0.99604 0.0
H9746 H 0.36638 0.7743 0.99071 0.0
H9747 H 0.34947 0.77778 1.00083 0.0
H9748 H 0.3505 0.76765 1.00615 0.0
H9749 H 0.36727 0.74775 0.03411 0.0
H9750 H 0.36881 0.74914 0.02293 0.0
H9751 H 0.35053 0.75733 0.02141 0.0
H9752 H 0.34904 0.75615 0.03263 0.0
H9753 H 0.35883 0.76314 0.01377 0.0
H9754 H 0.35266 0.742 0.01854 0.0
H9755 H 0.35361 0.73183 0.02379 0.0
H9756 H 0.37173 0.72925 0.01572 0.0
H9757 H 0.37092 0.73945 0.01048 0.0
C9758 C 0.35367 0.75432 0.98511 0.0
C9759 C 0.3582 0.75123 0.98152 0.0
C9760 C 0.35455 0.75523 0.99148 0.0
C9761 C 0.36 0.75311 0.9944 0.0
C9762 C 0.36462 0.7502 0.9908 0.0
C9763 C 0.36374 0.74929 0.98441 0.0
C9764 C 0.36061 0.75343 1.00128 0.0
C9765 C 0.36152 0.74784 1.00455 0.0
C9766 C 0.35971 0.75903 1.00464 0.0
C9767 C 0.35908 0.76514 1.00146 0.0
C9768 C 0.36356 0.76709 0.99709 0.0
C9769 C 0.36292 0.77283 0.99408 0.0
C9770 C 0.35785 0.77667 0.99542 0.0
C9771 C 0.3534 0.77479 0.99979 0.0
C9772 C 0.35401 0.76906 1.00281 0.0
C9773 C 0.36363 0.74998 0.03143 0.0
C9774 C 0.358 0.75177 0.03426 0.0
C9775 C 0.3645 0.75073 0.02503 0.0
C9776 C 0.35974 0.75324 0.02132 0.0
C9777 C 0.35426 0.75536 0.02418 0.0
C9778 C 0.35339 0.75462 0.03058 0.0
C9779 C 0.36025 0.75323 0.01443 0.0
C9780 C 0.35951 0.75885 0.01118 0.0
C9781 C 0.36128 0.74766 0.01106 0.0
C9782 C 0.36176 0.74151 0.01418 0.0
C9783 C 0.35686 0.73928 0.01792 0.0
C9784 C 0.35737 0.73351 0.02089 0.0
C9785 C 0.36273 0.7299 0.02011 0.0
C9786 C 0.36758 0.73205 0.01633 0.0
C9787 C 0.3671 0.73783 0.01336 0.0
H9788 H 0.36312 0.72544 0.02241 0.0
H9789 H 0.35736 0.78111 0.99309 0.0
H9790 H 0.65028 0.26417 0.98072 0.0
H9791 H 0.64942 0.26165 0.99181 0.0
H9792 H 0.66892 0.26586 0.99427 0.0
H9793 H 0.66987 0.26813 0.9832 0.0
H9794 H 0.66584 0.25598 1.00099 0.0
H9795 H 0.65726 0.27661 0.99751 0.0
H9796 H 0.65004 0.28417 0.99275 0.0
H9797 H 0.63443 0.27409 1.00018 0.0
H9798 H 0.64156 0.26643 1.00492 0.0
H9799 H 0.66966 0.26662 0.03169 0.0
H9800 H 0.66879 0.26509 0.02049 0.0
H9801 H 0.64952 0.25982 0.02262 0.0
H9802 H 0.65037 0.26122 0.0339 0.0
H9803 H 0.6511 0.26855 0.01359 0.0
H9804 H 0.66005 0.24892 0.0186 0.0
H9805 H 0.66746 0.24167 0.02352 0.0
H9806 H 0.68255 0.25002 0.01338 0.0
H9807 H 0.67525 0.25738 0.00846 0.0
C9808 C 0.65441 0.26445 0.98361 0.0
C9809 C 0.66013 0.26644 0.98109 0.0
C9810 C 0.6539 0.26306 0.98995 0.0
C9811 C 0.65908 0.26366 0.99389 0.0
C9812 C 0.66485 0.26538 0.99133 0.0
C9813 C 0.66537 0.26675 0.98501 0.0
C9814 C 0.65852 0.26284 1.00074 0.0
C9815 C 0.66263 0.25874 1.00375 0.0
C9816 C 0.65421 0.2663 1.00433 0.0
C9817 C 0.64993 0.27091 1.0015 0.0
C9818 C 0.65228 0.27598 0.99809 0.0
C9819 C 0.64821 0.28029 0.9954 0.0
C9820 C 0.64178 0.2796 0.99615 0.0
C9821 C 0.63941 0.27461 0.99959 0.0
C9822 C 0.64346 0.27029 1.00228 0.0
C9823 C 0.66526 0.26499 0.02982 0.0
C9824 C 0.66009 0.26402 0.03372 0.0
C9825 C 0.66478 0.26413 0.0234 0.0
C9826 C 0.65911 0.26228 0.02072 0.0
C9827 C 0.65394 0.26124 0.02459 0.0
C9828 C 0.65443 0.26207 0.03103 0.0
C9829 C 0.65854 0.26183 0.01385 0.0
C9830 C 0.65422 0.26569 0.01084 0.0
C9831 C 0.66268 0.25817 0.01026 0.0
C9832 C 0.6671 0.25373 0.01318 0.0
C9833 C 0.66496 0.24924 0.01745 0.0
C9834 C 0.66914 0.24511 0.02023 0.0
C9835 C 0.67547 0.24539 0.01877 0.0
C9836 C 0.67764 0.2498 0.01451 0.0
C9837 C 0.67348 0.25395 0.01171 0.0
H9838 H 0.6787 0.24219 0.02093 0.0
H9839 H 0.63863 0.28293 0.99406 0.0
H9840 H 0.53507 0.76094 0.86401 0.0
H9841 H 0.52369 0.76045 0.86499 0.0
H9842 H 0.52179 0.77089 0.84795 0.0
H9843 H 0.53308 0.77155 0.84704 0.0
H9844 H 0.51454 0.77556 0.857 0.0
H9845 H 0.51914 0.75519 0.84848 0.0
H9846 H 0.52418 0.74487 0.84835 0.0
H9847 H 0.51561 0.74036 0.86584 0.0
H9848 H 0.51058 0.75069 0.86611 0.0
H9849 H 0.48397 0.77178 0.847 0.0
H9850 H 0.49524 0.77094 0.84798 0.0
H9851 H 0.49306 0.76111 0.86535 0.0
H9852 H 0.48168 0.76178 0.86431 0.0
H9853 H 0.5023 0.75595 0.85781 0.0
H9854 H 0.49695 0.77595 0.86587 0.0
H9855 H 0.49181 0.78622 0.86594 0.0
H9856 H 0.50182 0.79146 0.84945 0.0
H9857 H 0.50696 0.78118 0.84922 0.0
C9858 C 0.53222 0.76313 0.86048 0.0
C9859 C 0.53499 0.76626 0.85543 0.0
C9860 C 0.52573 0.76281 0.86102 0.0
C9861 C 0.5219 0.76561 0.85653 0.0
C9862 C 0.52466 0.76869 0.85148 0.0
C9863 C 0.53112 0.76901 0.85093 0.0
C9864 C 0.51501 0.76554 0.85711 0.0
C9865 C 0.51187 0.77127 0.85713 0.0
C9866 C 0.51152 0.75994 0.85751 0.0
C9867 C 0.51455 0.75374 0.85735 0.0
C9868 C 0.51837 0.75202 0.85232 0.0
C9869 C 0.52122 0.74616 0.85222 0.0
C9870 C 0.52023 0.74197 0.85709 0.0
C9871 C 0.51638 0.74362 0.86207 0.0
C9872 C 0.51353 0.74947 0.8622 0.0
C9873 C 0.48586 0.76934 0.85098 0.0
C9874 C 0.48192 0.76684 0.85557 0.0
C9875 C 0.49232 0.76892 0.85157 0.0
C9876 C 0.49499 0.76603 0.85678 0.0
C9877 C 0.49108 0.76338 0.8613 0.0
C9878 C 0.4846 0.76381 0.86073 0.0
C9879 C 0.50186 0.76597 0.8575 0.0
C9880 C 0.50498 0.76024 0.85776 0.0
C9881 C 0.50535 0.77157 0.85737 0.0
C9882 C 0.50231 0.77778 0.85751 0.0
C9883 C 0.49803 0.77928 0.86223 0.0
C9884 C 0.49512 0.7851 0.86231 0.0
C9885 C 0.49648 0.78948 0.8577 0.0
C9886 C 0.50077 0.78806 0.85301 0.0
C9887 C 0.50369 0.78224 0.85292 0.0
H9888 H 0.49422 0.79399 0.85776 0.0
H9889 H 0.52244 0.73744 0.857 0.0
H9890 H 0.25899 0.53458 0.84979 0.0
H9891 H 0.26065 0.52332 0.85057 0.0
H9892 H 0.24662 0.52223 0.86492 0.0
H9893 H 0.24498 0.53348 0.86419 0.0
H9894 H 0.25622 0.51451 0.86744 0.0
H9895 H 0.24309 0.51905 0.84978 0.0
H9896 H 0.24043 0.52416 0.83986 0.0
H9897 H 0.2564 0.51582 0.83117 0.0
H9898 H 0.2592 0.51072 0.84107 0.0
H9899 H 0.24559 0.48327 0.86442 0.0
H9900 H 0.24714 0.49452 0.86517 0.0
H9901 H 0.26082 0.49366 0.85047 0.0
H9902 H 0.25927 0.48239 0.84969 0.0
H9903 H 0.25248 0.50238 0.84814 0.0
H9904 H 0.265 0.49693 0.86565 0.0
H9905 H 0.2675 0.49177 0.87558 0.0
H9906 H 0.25264 0.50168 0.88459 0.0
H9907 H 0.24999 0.50683 0.87468 0.0
C9908 C 0.25629 0.53194 0.85314 0.0
C9909 C 0.25182 0.53491 0.85689 0.0
C9910 C 0.25725 0.52552 0.85359 0.0
C9911 C 0.25368 0.52192 0.85774 0.0
C9912 C 0.24942 0.52491 0.86169 0.0
C9913 C 0.2485 0.53135 0.86127 0.0
C9914 C 0.25408 0.51501 0.85767 0.0
C9915 C 0.25536 0.51185 0.86324 0.0
C9916 C 0.25309 0.51154 0.85215 0.0
C9917 C 0.25139 0.51456 0.84618 0.0
C9918 C 0.24606 0.51834 0.84576 0.0
C9919 C 0.24452 0.52123 0.84014 0.0
C9920 C 0.24826 0.52033 0.83489 0.0
C9921 C 0.25352 0.51652 0.83524 0.0
C9922 C 0.25508 0.51363 0.84086 0.0
C9923 C 0.24903 0.48545 0.86144 0.0
C9924 C 0.25229 0.48194 0.85698 0.0
C9925 C 0.24992 0.49189 0.86188 0.0
C9926 C 0.25413 0.49494 0.85791 0.0
C9927 C 0.25753 0.49141 0.85358 0.0
C9928 C 0.25663 0.48498 0.85312 0.0
C9929 C 0.25459 0.50185 0.85792 0.0
C9930 C 0.25343 0.50503 0.85234 0.0
C9931 C 0.25568 0.50531 0.86343 0.0
C9932 C 0.25727 0.50223 0.86941 0.0
C9933 C 0.26223 0.49797 0.86973 0.0
C9934 C 0.26368 0.49506 0.87536 0.0
C9935 C 0.26022 0.49639 0.88071 0.0
C9936 C 0.25531 0.50065 0.88044 0.0
C9937 C 0.25384 0.50357 0.87482 0.0
H9938 H 0.26135 0.49412 0.88507 0.0
H9939 H 0.24706 0.52257 0.83054 0.0
H9940 H 0.48187 0.25895 0.84881 0.0
H9941 H 0.49313 0.26055 0.84965 0.0
H9942 H 0.49395 0.24708 0.86452 0.0
H9943 H 0.48269 0.24548 0.86372 0.0
H9944 H 0.50176 0.25678 0.86672 0.0
H9945 H 0.4972 0.24288 0.84963 0.0
H9946 H 0.49212 0.23981 0.83981 0.0
H9947 H 0.50067 0.2553 0.83047 0.0
H9948 H 0.50574 0.25851 0.84027 0.0
H9949 H 0.53293 0.2458 0.86433 0.0
H9950 H 0.5217 0.24748 0.86497 0.0
H9951 H 0.52274 0.26046 0.84969 0.0
H9952 H 0.53399 0.2588 0.84901 0.0
H9953 H 0.51397 0.25206 0.84768 0.0
H9954 H 0.51943 0.26537 0.86462 0.0
H9955 H 0.52454 0.26832 0.87446 0.0
H9956 H 0.51447 0.25397 0.88409 0.0
H9957 H 0.50935 0.25087 0.87429 0.0
C9958 C 0.48445 0.25636 0.85229 0.0
C9959 C 0.48141 0.25204 0.85616 0.0
C9960 C 0.49087 0.25729 0.85277 0.0
C9961 C 0.49439 0.25386 0.85708 0.0
C9962 C 0.49132 0.24978 0.86116 0.0
C9963 C 0.48489 0.24887 0.86071 0.0
C9964 C 0.5013 0.25419 0.85705 0.0
C9965 C 0.50444 0.25571 0.86257 0.0
C9966 C 0.50479 0.25293 0.8516 0.0
C9967 C 0.50179 0.25097 0.8457 0.0
C9968 C 0.49796 0.24565 0.84549 0.0
C9969 C 0.49509 0.24389 0.83993 0.0
C9970 C 0.49606 0.24737 0.83452 0.0
C9971 C 0.49992 0.25261 0.83466 0.0
C9972 C 0.50279 0.25441 0.84022 0.0
C9973 C 0.53079 0.24912 0.8612 0.0
C9974 C 0.53435 0.25215 0.8566 0.0
C9975 C 0.52436 0.25008 0.86157 0.0
C9976 C 0.52137 0.25413 0.8574 0.0
C9977 C 0.52494 0.25731 0.85294 0.0
C9978 C 0.53137 0.25634 0.85255 0.0
C9979 C 0.51447 0.25463 0.85736 0.0
C9980 C 0.51131 0.25323 0.85181 0.0
C9981 C 0.51099 0.256 0.86279 0.0
C9982 C 0.51404 0.25785 0.8687 0.0
C9983 C 0.51834 0.26281 0.86882 0.0
C9984 C 0.52123 0.26452 0.8744 0.0
C9985 C 0.51984 0.26133 0.87989 0.0
C9986 C 0.51554 0.25644 0.87983 0.0
C9987 C 0.51264 0.2547 0.87427 0.0
H9988 H 0.52208 0.26266 0.8842 0.0
H9989 H 0.49383 0.24599 0.83022 0.0
H9990 H 0.76955 0.53383 0.86642 0.0
H9991 H 0.7681 0.52261 0.86777 0.0
H9992 H 0.75901 0.52157 0.8499 0.0
H9993 H 0.76026 0.53282 0.84861 0.0
H9994 H 0.75353 0.51378 0.85828 0.0
H9995 H 0.77436 0.51848 0.85119 0.0
H9996 H 0.78462 0.52363 0.8517 0.0
H9997 H 0.78805 0.5152 0.86949 0.0
H9998 H 0.77776 0.51006 0.86911 0.0
H9999 H 0.75988 0.48288 0.84831 0.0
H10000 H 0.75867 0.49409 0.84987 0.0
H10001 H 0.7683 0.49277 0.86743 0.0
H10002 H 0.7697 0.48157 0.86581 0.0
H10003 H 0.77313 0.50174 0.86042 0.0
H10004 H 0.75265 0.49598 0.86683 0.0
H10005 H 0.74244 0.49076 0.86608 0.0
H10006 H 0.73832 0.50104 0.84945 0.0
H10007 H 0.74854 0.50626 0.85005 0.0
C10008 C 0.76711 0.53124 0.86284 0.0
C10009 C 0.76508 0.53421 0.85737 0.0
C10010 C 0.76632 0.52482 0.8636 0.0
C10011 C 0.76354 0.52124 0.85889 0.0
C10012 C 0.7612 0.52424 0.85359 0.0
C10013 C 0.76197 0.53066 0.85283 0.0
C10014 C 0.7635 0.51433 0.85924 0.0
C10015 C 0.75781 0.51114 0.85872 0.0
C10016 C 0.76907 0.51089 0.85994 0.0
C10017 C 0.77527 0.51394 0.86015 0.0
C10018 C 0.77728 0.51776 0.85523 0.0
C10019 C 0.78311 0.52067 0.85549 0.0
C10020 C 0.78698 0.51976 0.86064 0.0
C10021 C 0.78504 0.51591 0.86552 0.0
C10022 C 0.77922 0.513 0.86528 0.0
C10023 C 0.76171 0.48497 0.85253 0.0
C10024 C 0.76492 0.48134 0.85692 0.0
C10025 C 0.76095 0.49137 0.85344 0.0
C10026 C 0.76335 0.49427 0.85879 0.0
C10027 C 0.76639 0.49063 0.86328 0.0
C10028 C 0.76715 0.48422 0.86237 0.0
C10029 C 0.76315 0.50116 0.85942 0.0
C10030 C 0.76882 0.50436 0.86009 0.0
C10031 C 0.75755 0.50459 0.85884 0.0
C10032 C 0.75139 0.50147 0.85846 0.0
C10033 C 0.74959 0.49709 0.86299 0.0
C10034 C 0.74379 0.49414 0.86259 0.0
C10035 C 0.73974 0.49556 0.85771 0.0
C10036 C 0.74146 0.49994 0.85322 0.0
C10037 C 0.74726 0.5029 0.8536 0.0
H10038 H 0.73525 0.49327 0.85742 0.0
H10039 H 0.79149 0.52201 0.86083 0.0
H10040 H 0.4816 0.25599 0.15156 0.0
H10041 H 0.49291 0.25742 0.15099 0.0
H10042 H 0.4949 0.24882 0.16902 0.0
H10043 H 0.48366 0.24732 0.16959 0.0
H10044 H 0.5022 0.25904 0.16802 0.0
H10045 H 0.49756 0.24069 0.15565 0.0
H10046 H 0.49241 0.23497 0.14713 0.0
H10047 H 0.50069 0.24731 0.13375 0.0
H10048 H 0.50582 0.25316 0.14221 0.0
H10049 H 0.53248 0.24698 0.1698 0.0
H10050 H 0.5213 0.24876 0.16913 0.0
H10051 H 0.52367 0.25732 0.15113 0.0
H10052 H 0.53495 0.25564 0.1518 0.0
H10053 H 0.51424 0.24886 0.15112 0.0
H10054 H 0.52009 0.26629 0.16347 0.0
H10055 H 0.52532 0.27188 0.17202 0.0
H10056 H 0.51486 0.26136 0.18542 0.0
H10057 H 0.50962 0.25563 0.17696 0.0
C10058 C 0.48445 0.2544 0.15539 0.0
C10059 C 0.48171 0.25154 0.16062 0.0
C10060 C 0.49091 0.25524 0.15507 0.0
C10061 C 0.49475 0.2532 0.15995 0.0
C10062 C 0.49202 0.25047 0.16521 0.0
C10063 C 0.48558 0.24963 0.16554 0.0
C10064 C 0.50164 0.25369 0.15955 0.0
C10065 C 0.50484 0.25679 0.16434 0.0
C10066 C 0.50508 0.25093 0.15464 0.0
C10067 C 0.50201 0.24741 0.14956 0.0
C10068 C 0.49824 0.24221 0.1509 0.0
C10069 C 0.49533 0.23894 0.14608 0.0
C10070 C 0.4962 0.24079 0.1399 0.0
C10071 C 0.5 0.2459 0.13853 0.0
C10072 C 0.50291 0.24919 0.14334 0.0
C10073 C 0.53066 0.24936 0.16574 0.0
C10074 C 0.53464 0.25121 0.16087 0.0
C10075 C 0.52425 0.25035 0.16536 0.0
C10076 C 0.52166 0.25324 0.16012 0.0
C10077 C 0.52558 0.25509 0.15523 0.0
C10078 C 0.53202 0.25411 0.15561 0.0
C10079 C 0.5148 0.25406 0.15969 0.0
C10080 C 0.51161 0.25121 0.15474 0.0
C10081 C 0.51137 0.25705 0.16445 0.0
C10082 C 0.51449 0.2605 0.16957 0.0
C10083 C 0.51893 0.26513 0.16824 0.0
C10084 C 0.5219 0.26833 0.17307 0.0
C10085 C 0.52043 0.26697 0.17926 0.0
C10086 C 0.51599 0.26241 0.18063 0.0
C10087 C 0.51302 0.25919 0.17581 0.0
H10088 H 0.52273 0.26945 0.183 0.0
H10089 H 0.49395 0.23825 0.13618 0.0
H10090 H 0.77125 0.53366 0.15106 0.0
H10091 H 0.76975 0.52241 0.15023 0.0
H10092 H 0.75611 0.52309 0.16497 0.0
H10093 H 0.75762 0.53436 0.16584 0.0
H10094 H 0.76438 0.51433 0.16719 0.0
H10095 H 0.75193 0.52001 0.14971 0.0
H10096 H 0.74946 0.52529 0.13983 0.0
H10097 H 0.76434 0.51548 0.13074 0.0
H10098 H 0.76696 0.51021 0.14059 0.0
H10099 H 0.75763 0.48221 0.16509 0.0
H10100 H 0.75607 0.49348 0.16442 0.0
H10101 H 0.77027 0.49463 0.15025 0.0
H10102 H 0.77182 0.48336 0.15087 0.0
H10103 H 0.76069 0.50245 0.14772 0.0
H10104 H 0.77369 0.49762 0.16541 0.0
H10105 H 0.77624 0.49237 0.17529 0.0
H10106 H 0.76027 0.50071 0.18397 0.0
H10107 H 0.75757 0.50594 0.17411 0.0
C10108 C 0.76783 0.53144 0.15403 0.0
C10109 C 0.76456 0.5349 0.15852 0.0
C10110 C 0.76698 0.525 0.15355 0.0
C10111 C 0.76278 0.5219 0.1575 0.0
C10112 C 0.75938 0.52538 0.16188 0.0
C10113 C 0.76026 0.53181 0.16238 0.0
C10114 C 0.76231 0.51499 0.1574 0.0
C10115 C 0.76344 0.51174 0.16295 0.0
C10116 C 0.76124 0.5116 0.15185 0.0
C10117 C 0.75967 0.51475 0.14591 0.0
C10118 C 0.75471 0.51901 0.14562 0.0
C10119 C 0.75328 0.522 0.14002 0.0
C10120 C 0.75675 0.52073 0.13466 0.0
C10121 C 0.76166 0.51646 0.1349 0.0
C10122 C 0.76311 0.51347 0.14048 0.0
C10123 C 0.76039 0.48486 0.1618 0.0
C10124 C 0.76489 0.4819 0.15807 0.0
C10125 C 0.75949 0.4913 0.16142 0.0
C10126 C 0.76313 0.49491 0.15736 0.0
C10127 C 0.76741 0.49193 0.15341 0.0
C10128 C 0.76829 0.48549 0.15377 0.0
C10129 C 0.76278 0.50182 0.1575 0.0
C10130 C 0.76153 0.50506 0.15196 0.0
C10131 C 0.76375 0.50522 0.16307 0.0
C10132 C 0.76539 0.50212 0.16901 0.0
C10133 C 0.7707 0.4983 0.16941 0.0
C10134 C 0.77217 0.49533 0.17501 0.0
C10135 C 0.76841 0.49619 0.18025 0.0
C10136 C 0.76317 0.50004 0.17991 0.0
C10137 C 0.76167 0.50301 0.17432 0.0
H10138 H 0.76956 0.49389 0.18458 0.0
H10139 H 0.75563 0.52305 0.13033 0.0
H10140 H 0.5332 0.76036 0.16649 0.0
H10141 H 0.52199 0.75901 0.16512 0.0
H10142 H 0.52305 0.76821 0.14731 0.0
H10143 H 0.53425 0.76977 0.14875 0.0
H10144 H 0.51412 0.77313 0.15426 0.0
H10145 H 0.51993 0.75251 0.14839 0.0
H10146 H 0.52522 0.74236 0.14936 0.0
H10147 H 0.5152 0.73866 0.16626 0.0
H10148 H 0.50991 0.74882 0.16544 0.0
H10149 H 0.48196 0.76905 0.14894 0.0
H10150 H 0.49317 0.7677 0.14744 0.0
H10151 H 0.49457 0.75917 0.16555 0.0
H10152 H 0.48333 0.76031 0.167 0.0
H10153 H 0.50224 0.7535 0.1572 0.0
H10154 H 0.49753 0.77452 0.16373 0.0
H10155 H 0.49231 0.78472 0.16297 0.0
H10156 H 0.50043 0.78764 0.14494 0.0
H10157 H 0.50564 0.77741 0.14556 0.0
C10158 C 0.53106 0.76206 0.16226 0.0
C10159 C 0.53462 0.7652 0.15775 0.0
C10160 C 0.52465 0.76123 0.16145 0.0
C10161 C 0.52168 0.76347 0.15609 0.0
C10162 C 0.52525 0.76643 0.15148 0.0
C10163 C 0.53166 0.76727 0.15229 0.0
C10164 C 0.51478 0.76319 0.15555 0.0
C10165 C 0.51154 0.76881 0.15476 0.0
C10166 C 0.5114 0.75758 0.15636 0.0
C10167 C 0.51456 0.75146 0.15687 0.0
C10168 C 0.51889 0.74956 0.15234 0.0
C10169 C 0.52188 0.7438 0.15286 0.0
C10170 C 0.52055 0.73987 0.15788 0.0
C10171 C 0.51622 0.7417 0.16238 0.0
C10172 C 0.51322 0.74746 0.16188 0.0
C10173 C 0.48462 0.76676 0.15254 0.0
C10174 C 0.48176 0.76485 0.15812 0.0
C10175 C 0.49104 0.76603 0.1517 0.0
C10176 C 0.49472 0.76343 0.15643 0.0
C10177 C 0.49183 0.76122 0.16185 0.0
C10178 C 0.48541 0.76193 0.1627 0.0
C10179 C 0.50162 0.76343 0.15595 0.0
C10180 C 0.50485 0.75779 0.15659 0.0
C10181 C 0.50501 0.76901 0.15502 0.0
C10182 C 0.50192 0.77517 0.15466 0.0
C10183 C 0.49817 0.77732 0.15958 0.0
C10184 C 0.49521 0.78311 0.15918 0.0
C10185 C 0.49602 0.78682 0.1539 0.0
C10186 C 0.4998 0.78476 0.14902 0.0
C10187 C 0.50276 0.77896 0.14939 0.0
H10188 H 0.49373 0.7913 0.1536 0.0
H10189 H 0.52287 0.73542 0.15827 0.0
H10190 H 0.24779 0.53412 0.14812 0.0
H10191 H 0.24935 0.52293 0.14664 0.0
H10192 H 0.25708 0.52153 0.1651 0.0
H10193 H 0.25575 0.53274 0.16654 0.0
H10194 H 0.26318 0.51395 0.15708 0.0
H10195 H 0.24175 0.51847 0.16244 0.0
H10196 H 0.23156 0.52358 0.16107 0.0
H10197 H 0.22979 0.51536 0.14293 0.0
H10198 H 0.24002 0.51026 0.14417 0.0
H10199 H 0.25615 0.48319 0.16661 0.0
H10200 H 0.2575 0.49436 0.165 0.0
H10201 H 0.24908 0.49278 0.14685 0.0
H10202 H 0.24749 0.48162 0.14852 0.0
H10203 H 0.24385 0.50186 0.15324 0.0
H10204 H 0.26477 0.49611 0.14859 0.0
H10205 H 0.27488 0.49092 0.15019 0.0
H10206 H 0.27764 0.50129 0.16707 0.0
H10207 H 0.2675 0.50648 0.16562 0.0
C10208 C 0.24996 0.53146 0.15181 0.0
C10209 C 0.25158 0.53431 0.15748 0.0
C10210 C 0.2508 0.52505 0.15097 0.0
C10211 C 0.25323 0.52137 0.1558 0.0
C10212 C 0.25517 0.52427 0.16132 0.0
C10213 C 0.25435 0.53067 0.16216 0.0
C10214 C 0.25332 0.51447 0.15531 0.0
C10215 C 0.25896 0.5113 0.15626 0.0
C10216 C 0.24784 0.51101 0.1541 0.0
C10217 C 0.24168 0.51405 0.15337 0.0
C10218 C 0.23921 0.51779 0.15814 0.0
C10219 C 0.23342 0.52068 0.15739 0.0
C10220 C 0.23004 0.51981 0.1519 0.0
C10221 C 0.23242 0.51604 0.14717 0.0
C10222 C 0.23821 0.51315 0.14789 0.0
C10223 C 0.25461 0.48521 0.16226 0.0
C10224 C 0.25167 0.48151 0.15771 0.0
C10225 C 0.25546 0.49159 0.16131 0.0
C10226 C 0.25344 0.49441 0.15578 0.0
C10227 C 0.25069 0.4907 0.15114 0.0
C10228 C 0.24983 0.48431 0.15209 0.0
C10229 C 0.2537 0.5013 0.15509 0.0
C10230 C 0.24811 0.50449 0.15394 0.0
C10231 C 0.25923 0.50475 0.15613 0.0
C10232 C 0.26534 0.50165 0.15702 0.0
C10233 C 0.26751 0.49725 0.15267 0.0
C10234 C 0.27325 0.49432 0.15355 0.0
C10235 C 0.2769 0.49577 0.15873 0.0
C10236 C 0.27481 0.50017 0.16305 0.0
C10237 C 0.26907 0.50312 0.1622 0.0
H10238 H 0.28134 0.49349 0.1594 0.0
H10239 H 0.22556 0.52205 0.15133 0.0
H10240 H 0.86113 0.53546 0.75772 0.0
H10241 H 0.86298 0.52419 0.75681 0.0
H10242 H 0.85455 0.52138 0.77482 0.0
H10243 H 0.8528 0.53255 0.77579 0.0
H10244 H 0.86533 0.5148 0.77353 0.0
H10245 H 0.84648 0.51868 0.76153 0.0
H10246 H 0.84048 0.52357 0.75306 0.0
H10247 H 0.85297 0.51571 0.73956 0.0
H10248 H 0.85909 0.51084 0.74797 0.0
H10249 H 0.85358 0.48482 0.7767 0.0
H10250 H 0.85518 0.49597 0.77533 0.0
H10251 H 0.86348 0.49266 0.75734 0.0
H10252 H 0.86176 0.4814 0.75863 0.0
H10253 H 0.85499 0.50228 0.75709 0.0
H10254 H 0.87273 0.49687 0.76903 0.0
H10255 H 0.87862 0.49185 0.77749 0.0
H10256 H 0.86847 0.50251 0.79102 0.0
H10257 H 0.86244 0.50753 0.78265 0.0
C10258 C 0.85972 0.53242 0.76149 0.0
C10259 C 0.85677 0.53488 0.7668 0.0
C10260 C 0.86075 0.526 0.76095 0.0
C10261 C 0.85887 0.52195 0.76573 0.0
C10262 C 0.85604 0.52441 0.77107 0.0
C10263 C 0.85498 0.5308 0.7716 0.0
C10264 C 0.85972 0.5151 0.76524 0.0
C10265 C 0.86307 0.51206 0.76994 0.0
C10266 C 0.85697 0.51154 0.76042 0.0
C10267 C 0.85329 0.51447 0.75538 0.0
C10268 C 0.84798 0.51804 0.75676 0.0
C10269 C 0.84455 0.5208 0.75197 0.0
C10270 C 0.84636 0.51997 0.74578 0.0
C10271 C 0.85159 0.51636 0.74436 0.0
C10272 C 0.85503 0.5136 0.74914 0.0
C10273 C 0.85572 0.48645 0.77243 0.0
C10274 C 0.85751 0.48223 0.76776 0.0
C10275 C 0.85669 0.49283 0.77168 0.0
C10276 C 0.85952 0.49514 0.76627 0.0
C10277 C 0.86132 0.49096 0.76157 0.0
C10278 C 0.86037 0.48454 0.76233 0.0
C10279 C 0.86038 0.50197 0.76554 0.0
C10280 C 0.85738 0.50501 0.7606 0.0
C10281 C 0.86347 0.50554 0.77014 0.0
C10282 C 0.86711 0.50256 0.7752 0.0
C10283 C 0.87172 0.49812 0.77381 0.0
C10284 C 0.87509 0.49528 0.77859 0.0
C10285 C 0.87392 0.49686 0.78479 0.0
C10286 C 0.86938 0.50129 0.78622 0.0
C10287 C 0.86599 0.50415 0.78146 0.0
H10288 H 0.87653 0.49465 0.78849 0.0
H10289 H 0.8437 0.52211 0.74207 0.0
H10290 H 0.48096 0.86302 0.75974 0.0
H10291 H 0.49231 0.86428 0.75905 0.0
H10292 H 0.49474 0.84903 0.77189 0.0
H10293 H 0.48348 0.84787 0.77272 0.0
H10294 H 0.50187 0.85886 0.77501 0.0
H10295 H 0.49709 0.84721 0.75627 0.0
H10296 H 0.49188 0.84547 0.74619 0.0
H10297 H 0.50011 0.86222 0.73897 0.0
H10298 H 0.5053 0.8641 0.74904 0.0
H10299 H 0.5322 0.84792 0.77218 0.0
H10300 H 0.52093 0.84907 0.77147 0.0
H10301 H 0.52325 0.86479 0.75919 0.0
H10302 H 0.53462 0.86357 0.75977 0.0
H10303 H 0.51379 0.85665 0.75534 0.0
H10304 H 0.51954 0.86764 0.77372 0.0
H10305 H 0.52486 0.86927 0.78375 0.0
H10306 H 0.51483 0.85388 0.79167 0.0
H10307 H 0.50951 0.85209 0.78166 0.0
C10308 C 0.48392 0.85996 0.76242 0.0
C10309 C 0.48132 0.85532 0.76625 0.0
C10310 C 0.4904 0.86065 0.76199 0.0
C10311 C 0.49437 0.85672 0.76539 0.0
C10312 C 0.49177 0.85211 0.76922 0.0
C10313 C 0.48532 0.85141 0.76964 0.0
C10314 C 0.50125 0.85742 0.76511 0.0
C10315 C 0.50448 0.85835 0.77071 0.0
C10316 C 0.50464 0.85697 0.75948 0.0
C10317 C 0.50152 0.85584 0.75343 0.0
C10318 C 0.49774 0.85055 0.75255 0.0
C10319 C 0.4948 0.84953 0.74683 0.0
C10320 C 0.49565 0.85374 0.74195 0.0
C10321 C 0.49945 0.85897 0.74276 0.0
C10322 C 0.50239 0.86001 0.74847 0.0
C10323 C 0.53033 0.85157 0.76925 0.0
C10324 C 0.53431 0.85565 0.76602 0.0
C10325 C 0.52388 0.85226 0.7689 0.0
C10326 C 0.52126 0.85706 0.76534 0.0
C10327 C 0.52519 0.86107 0.76199 0.0
C10328 C 0.53168 0.86039 0.76235 0.0
C10329 C 0.5144 0.85788 0.76527 0.0
C10330 C 0.51118 0.85726 0.75962 0.0
C10331 C 0.511 0.85862 0.77086 0.0
C10332 C 0.51415 0.85971 0.77692 0.0
C10333 C 0.5185 0.86457 0.77759 0.0
C10334 C 0.52151 0.86553 0.78327 0.0
C10335 C 0.52019 0.86167 0.78834 0.0
C10336 C 0.51584 0.85686 0.78774 0.0
C10337 C 0.51282 0.85588 0.78206 0.0
H10338 H 0.52253 0.86242 0.79274 0.0
H10339 H 0.49337 0.85295 0.73752 0.0
H10340 H 0.16571 0.48181 0.7561 0.0
H10341 H 0.16489 0.49307 0.75453 0.0
H10342 H 0.1502 0.49394 0.76821 0.0
H10343 H 0.15098 0.48268 0.76978 0.0
H10344 H 0.14797 0.50184 0.75853 0.0
H10345 H 0.16507 0.49702 0.77228 0.0
H10346 H 0.17486 0.49181 0.77525 0.0
H10347 H 0.18425 0.50034 0.75979 0.0
H10348 H 0.17448 0.50553 0.75668 0.0
H10349 H 0.1508 0.53294 0.76972 0.0
H10350 H 0.14998 0.52172 0.76795 0.0
H10351 H 0.16525 0.52264 0.75491 0.0
H10352 H 0.16609 0.53388 0.75667 0.0
H10353 H 0.16719 0.51382 0.76322 0.0
H10354 H 0.15023 0.51954 0.75008 0.0
H10355 H 0.14043 0.52478 0.74722 0.0
H10356 H 0.13073 0.51473 0.76153 0.0
H10357 H 0.1405 0.50949 0.76454 0.0
C10358 C 0.16227 0.48439 0.75873 0.0
C10359 C 0.15845 0.48137 0.76311 0.0
C10360 C 0.1618 0.49082 0.75782 0.0
C10361 C 0.15756 0.49436 0.76133 0.0
C10362 C 0.15351 0.4913 0.76545 0.0
C10363 C 0.15396 0.48486 0.76634 0.0
C10364 C 0.15765 0.50127 0.76105 0.0
C10365 C 0.15215 0.50448 0.75959 0.0
C10366 C 0.16315 0.50469 0.76231 0.0
C10367 C 0.16903 0.50161 0.76421 0.0
C10368 C 0.16921 0.49775 0.76949 0.0
C10369 C 0.17476 0.4948 0.7712 0.0
C10370 C 0.18017 0.49572 0.7677 0.0
C10371 C 0.18005 0.49962 0.76249 0.0
C10372 C 0.17451 0.50256 0.76075 0.0
C10373 C 0.15389 0.53078 0.76637 0.0
C10374 C 0.15853 0.53429 0.76335 0.0
C10375 C 0.15342 0.52436 0.76536 0.0
C10376 C 0.15753 0.52134 0.76127 0.0
C10377 C 0.16203 0.52487 0.75809 0.0
C10378 C 0.16252 0.53129 0.75912 0.0
C10379 C 0.15749 0.51444 0.76072 0.0
C10380 C 0.16301 0.51121 0.76206 0.0
C10381 C 0.152 0.51102 0.75936 0.0
C10382 C 0.14611 0.51416 0.75757 0.0
C10383 C 0.14602 0.51848 0.75265 0.0
C10384 C 0.14047 0.52144 0.751 0.0
C10385 C 0.13496 0.5201 0.7542 0.0
C10386 C 0.135 0.51577 0.75906 0.0
C10387 C 0.14054 0.51279 0.76073 0.0
H10388 H 0.13067 0.52239 0.75291 0.0
H10389 H 0.18446 0.49344 0.76904 0.0
H10390 H 0.48315 0.16698 0.75909 0.0
H10391 H 0.49439 0.1658 0.75777 0.0
H10392 H 0.49393 0.14898 0.76874 0.0
H10393 H 0.4827 0.15023 0.77023 0.0
H10394 H 0.50269 0.15673 0.77283 0.0
H10395 H 0.49681 0.14848 0.75307 0.0
H10396 H 0.49141 0.14823 0.74295 0.0
H10397 H 0.50103 0.16484 0.73731 0.0
H10398 H 0.50643 0.16525 0.74743 0.0
H10399 H 0.5347 0.15075 0.76884 0.0
H10400 H 0.52346 0.1493 0.76778 0.0
H10401 H 0.52216 0.16662 0.7577 0.0
H10402 H 0.53344 0.16802 0.7586 0.0
H10403 H 0.51432 0.15764 0.75288 0.0
H10404 H 0.51929 0.16644 0.77292 0.0
H10405 H 0.52465 0.16686 0.78306 0.0
H10406 H 0.51658 0.14926 0.78814 0.0
H10407 H 0.51124 0.1487 0.77798 0.0
C10408 C 0.48543 0.163 0.76119 0.0
C10409 C 0.48203 0.15871 0.76479 0.0
C10410 C 0.49185 0.1623 0.76038 0.0
C10411 C 0.495 0.15727 0.76313 0.0
C10412 C 0.49159 0.15288 0.76657 0.0
C10413 C 0.48516 0.15358 0.76738 0.0
C10414 C 0.5019 0.1569 0.76283 0.0
C10415 C 0.50522 0.15679 0.76845 0.0
C10416 C 0.50522 0.15715 0.75714 0.0
C10417 C 0.50199 0.15692 0.75104 0.0
C10418 C 0.49774 0.15211 0.74969 0.0
C10419 C 0.49469 0.15193 0.74395 0.0
C10420 C 0.49587 0.15652 0.73949 0.0
C10421 C 0.50012 0.16129 0.74077 0.0
C10422 C 0.50318 0.1615 0.74651 0.0
C10423 C 0.53205 0.15418 0.76627 0.0
C10424 C 0.53496 0.15953 0.76385 0.0
C10425 C 0.52562 0.15337 0.76571 0.0
C10426 C 0.52196 0.1579 0.76274 0.0
C10427 C 0.52489 0.16308 0.76003 0.0
C10428 C 0.53133 0.1639 0.7606 0.0
C10429 C 0.51506 0.15748 0.76287 0.0
C10430 C 0.51176 0.15748 0.75723 0.0
C10431 C 0.51174 0.15715 0.76855 0.0
C10432 C 0.51492 0.1575 0.77467 0.0
C10433 C 0.5187 0.16264 0.77618 0.0
C10434 C 0.52173 0.1629 0.78193 0.0
C10435 C 0.52097 0.15808 0.78623 0.0
C10436 C 0.51717 0.15299 0.7848 0.0
C10437 C 0.51414 0.1527 0.77905 0.0
H10438 H 0.52332 0.1583 0.79068 0.0
H10439 H 0.4935 0.15638 0.73505 0.0
H10440 H 0.86424 0.48242 0.24536 0.0
H10441 H 0.86515 0.49364 0.24707 0.0
H10442 H 0.84925 0.49308 0.25935 0.0
H10443 H 0.84831 0.48184 0.25764 0.0
H10444 H 0.84788 0.50189 0.25093 0.0
H10445 H 0.86407 0.49593 0.26489 0.0
H10446 H 0.87363 0.49054 0.26825 0.0
H10447 H 0.88419 0.50034 0.25438 0.0
H10448 H 0.87468 0.50573 0.25088 0.0
H10449 H 0.84958 0.53383 0.25825 0.0
H10450 H 0.85019 0.52255 0.25982 0.0
H10451 H 0.86532 0.52151 0.24664 0.0
H10452 H 0.86473 0.53278 0.24504 0.0
H10453 H 0.86707 0.51354 0.25649 0.0
H10454 H 0.85069 0.51865 0.24197 0.0
H10455 H 0.84114 0.52404 0.23857 0.0
H10456 H 0.83092 0.51567 0.25359 0.0
H10457 H 0.84044 0.5103 0.25713 0.0
C10458 C 0.86102 0.48466 0.24853 0.0
C10459 C 0.85619 0.48124 0.25134 0.0
C10460 C 0.86155 0.49108 0.24951 0.0
C10461 C 0.85729 0.4942 0.25337 0.0
C10462 C 0.85258 0.49077 0.25634 0.0
C10463 C 0.85204 0.48436 0.25534 0.0
C10464 C 0.85744 0.50111 0.25389 0.0
C10465 C 0.85204 0.50442 0.25227 0.0
C10466 C 0.86291 0.50443 0.25549 0.0
C10467 C 0.86865 0.5012 0.25758 0.0
C10468 C 0.86842 0.4969 0.26252 0.0
C10469 C 0.87383 0.49385 0.26446 0.0
C10470 C 0.87951 0.49508 0.26152 0.0
C10471 C 0.87979 0.49938 0.25665 0.0
C10472 C 0.87439 0.50244 0.25469 0.0
C10473 C 0.85307 0.5312 0.25572 0.0
C10474 C 0.85706 0.53418 0.25146 0.0
C10475 C 0.85343 0.52477 0.25664 0.0
C10476 C 0.85774 0.52118 0.25327 0.0
C10477 C 0.86196 0.52419 0.24928 0.0
C10478 C 0.86162 0.53063 0.24838 0.0
C10479 C 0.85752 0.51428 0.25352 0.0
C10480 C 0.86289 0.51098 0.25523 0.0
C10481 C 0.85203 0.51095 0.25201 0.0
C10482 C 0.84629 0.51413 0.24985 0.0
C10483 C 0.84642 0.518 0.24457 0.0
C10484 C 0.84101 0.52104 0.24262 0.0
C10485 C 0.83543 0.52021 0.24587 0.0
C10486 C 0.83525 0.51632 0.25108 0.0
C10487 C 0.84065 0.51327 0.25306 0.0
H10488 H 0.83125 0.52258 0.24435 0.0
H10489 H 0.8837 0.49271 0.26303 0.0
H10490 H 0.53365 0.86452 0.2441 0.0
H10491 H 0.52242 0.86537 0.24573 0.0
H10492 H 0.52313 0.85024 0.25891 0.0
H10493 H 0.53437 0.84935 0.25729 0.0
H10494 H 0.51433 0.84826 0.25057 0.0
H10495 H 0.52013 0.86532 0.2636 0.0
H10496 H 0.52544 0.87512 0.26639 0.0
H10497 H 0.51557 0.88474 0.25194 0.0
H10498 H 0.51025 0.87497 0.24899 0.0
H10499 H 0.48231 0.85008 0.25764 0.0
H10500 H 0.49358 0.85078 0.25916 0.0
H10501 H 0.4946 0.86536 0.24539 0.0
H10502 H 0.48333 0.8647 0.24387 0.0
H10503 H 0.50251 0.86762 0.25504 0.0
H10504 H 0.49756 0.85038 0.24145 0.0
H10505 H 0.49227 0.84059 0.23857 0.0
H10506 H 0.5007 0.83133 0.25414 0.0
H10507 H 0.50598 0.8411 0.25716 0.0
C10508 C 0.53144 0.86146 0.24745 0.0
C10509 C 0.5349 0.85685 0.25055 0.0
C10510 C 0.52501 0.86196 0.24838 0.0
C10511 C 0.52193 0.85789 0.25248 0.0
C10512 C 0.5254 0.85341 0.25572 0.0
C10513 C 0.53183 0.8529 0.25477 0.0
C10514 C 0.51502 0.85799 0.25299 0.0
C10515 C 0.51176 0.85247 0.25168 0.0
C10516 C 0.51165 0.86351 0.25428 0.0
C10517 C 0.51483 0.8694 0.25604 0.0
C10518 C 0.51913 0.86951 0.26098 0.0
C10519 C 0.52213 0.87506 0.2626 0.0
C10520 C 0.52085 0.88054 0.25934 0.0
C10521 C 0.51655 0.88049 0.25446 0.0
C10522 C 0.51354 0.87495 0.25281 0.0
C10523 C 0.48493 0.85347 0.25497 0.0
C10524 C 0.48194 0.85729 0.25059 0.0
C10525 C 0.49137 0.85387 0.25585 0.0
C10526 C 0.49495 0.85805 0.25232 0.0
C10527 C 0.49193 0.8621 0.24817 0.0
C10528 C 0.48549 0.86172 0.24731 0.0
C10529 C 0.50185 0.85791 0.2526 0.0
C10530 C 0.50511 0.8634 0.25402 0.0
C10531 C 0.50523 0.85237 0.25141 0.0
C10532 C 0.50211 0.84648 0.24957 0.0
C10533 C 0.49825 0.84627 0.24428 0.0
C10534 C 0.49526 0.84072 0.24262 0.0
C10535 C 0.49614 0.83534 0.24618 0.0
C10536 C 0.50002 0.8355 0.25139 0.0
C10537 C 0.50301 0.84104 0.25308 0.0
H10538 H 0.49382 0.83105 0.24488 0.0
H10539 H 0.52318 0.88484 0.2606 0.0
H10540 H 0.16908 0.53289 0.24447 0.0
H10541 H 0.16804 0.52162 0.24513 0.0
H10542 H 0.15108 0.52369 0.25569 0.0
H10543 H 0.15218 0.53508 0.25519 0.0
H10544 H 0.15876 0.51431 0.26035 0.0
H10545 H 0.14992 0.52008 0.24085 0.0
H10546 H 0.14945 0.52543 0.23072 0.0
H10547 H 0.16567 0.51547 0.22458 0.0
H10548 H 0.16629 0.51013 0.23471 0.0
H10549 H 0.15242 0.48159 0.25509 0.0
H10550 H 0.15137 0.49296 0.25575 0.0
H10551 H 0.16799 0.49515 0.24466 0.0
H10552 H 0.16897 0.48388 0.24384 0.0
H10553 H 0.15872 0.50245 0.24051 0.0
H10554 H 0.16809 0.49749 0.2604 0.0
H10555 H 0.16863 0.49224 0.27059 0.0
H10556 H 0.1513 0.50066 0.27597 0.0
H10557 H 0.15062 0.5059 0.26577 0.0
C10558 C 0.16518 0.53098 0.24703 0.0
C10559 C 0.16071 0.5349 0.24979 0.0
C10560 C 0.16456 0.52452 0.24735 0.0
C10561 C 0.15944 0.52182 0.25039 0.0
C10562 C 0.15505 0.52569 0.2533 0.0
C10563 C 0.15566 0.53218 0.25297 0.0
C10564 C 0.15867 0.51495 0.25035 0.0
C10565 C 0.15863 0.51171 0.25602 0.0
C10566 C 0.15855 0.51157 0.24469 0.0
C10567 C 0.15817 0.51473 0.23856 0.0
C10568 C 0.15341 0.51906 0.23736 0.0
C10569 C 0.15311 0.52209 0.23161 0.0
C10570 C 0.15753 0.5208 0.22701 0.0
C10571 C 0.16225 0.51647 0.22815 0.0
C10572 C 0.16257 0.51343 0.23389 0.0
C10573 C 0.15584 0.48451 0.25279 0.0
C10574 C 0.1608 0.48183 0.24944 0.0
C10575 C 0.15526 0.491 0.25321 0.0
C10576 C 0.15962 0.4949 0.25029 0.0
C10577 C 0.16457 0.49223 0.24696 0.0
C10578 C 0.16516 0.48577 0.24655 0.0
C10579 C 0.15902 0.50179 0.25051 0.0
C10580 C 0.15877 0.50504 0.24485 0.0
C10581 C 0.15886 0.50516 0.25617 0.0
C10582 C 0.15927 0.50202 0.2623 0.0
C10583 C 0.16437 0.49817 0.26374 0.0
C10584 C 0.16471 0.49521 0.26952 0.0
C10585 C 0.15999 0.4961 0.27392 0.0
C10586 C 0.15494 0.49997 0.27255 0.0
C10587 C 0.15458 0.50293 0.26678 0.0
H10588 H 0.16026 0.4938 0.27839 0.0
H10589 H 0.15729 0.52315 0.22256 0.0
H10590 H 0.48218 0.16759 0.25775 0.0
H10591 H 0.49346 0.16692 0.25923 0.0
H10592 H 0.49418 0.1511 0.24686 0.0
H10593 H 0.4829 0.15174 0.24535 0.0
H10594 H 0.50218 0.14973 0.25671 0.0
H10595 H 0.49727 0.16543 0.24143 0.0
H10596 H 0.49202 0.17488 0.23755 0.0
H10597 H 0.50062 0.18574 0.25198 0.0
H10598 H 0.50585 0.17633 0.256 0.0
H10599 H 0.53337 0.15161 0.2455 0.0
H10600 H 0.52214 0.15093 0.2472 0.0
H10601 H 0.52287 0.16734 0.25879 0.0
H10602 H 0.53412 0.16805 0.25711 0.0
H10603 H 0.51411 0.16846 0.25022 0.0
H10604 H 0.51982 0.15286 0.26496 0.0
H10605 H 0.52507 0.14339 0.26877 0.0
H10606 H 0.51514 0.13233 0.25538 0.0
H10607 H 0.50989 0.14175 0.25143 0.0
C10608 C 0.48474 0.16394 0.25538 0.0
C10609 C 0.48166 0.15976 0.25138 0.0
C10610 C 0.49118 0.16355 0.25624 0.0
C10611 C 0.49467 0.15902 0.25308 0.0
C10612 C 0.49157 0.15463 0.24935 0.0
C10613 C 0.48512 0.155 0.2485 0.0
C10614 C 0.50158 0.15914 0.25328 0.0
C10615 C 0.5048 0.1538 0.25525 0.0
C10616 C 0.50499 0.1645 0.2515 0.0
C10617 C 0.50189 0.17017 0.24905 0.0
C10618 C 0.498 0.16982 0.2438 0.0
C10619 C 0.49504 0.17517 0.24157 0.0
C10620 C 0.49597 0.1809 0.24453 0.0
C10621 C 0.49989 0.18129 0.2497 0.0
C10622 C 0.50286 0.17596 0.25196 0.0
C10623 C 0.53117 0.155 0.24853 0.0
C10624 C 0.53464 0.1599 0.25115 0.0
C10625 C 0.52473 0.1546 0.24949 0.0
C10626 C 0.52165 0.15907 0.25315 0.0
C10627 C 0.52514 0.16385 0.25593 0.0
C10628 C 0.53157 0.16426 0.25496 0.0
C10629 C 0.51475 0.15904 0.25364 0.0
C10630 C 0.51151 0.1644 0.25176 0.0
C10631 C 0.51135 0.1537 0.2555 0.0
C10632 C 0.51449 0.14802 0.25787 0.0
C10633 C 0.51879 0.14841 0.26279 0.0
C10634 C 0.52176 0.14305 0.26498 0.0
C10635 C 0.52045 0.13726 0.26231 0.0
C10636 C 0.51615 0.13682 0.25745 0.0
C10637 C 0.51317 0.14217 0.25524 0.0
H10638 H 0.52276 0.13312 0.26401 0.0
H10639 H 0.49368 0.18504 0.24279 0.0
H10640 H 0.77034 0.86432 0.5332 0.0
H10641 H 0.76867 0.86528 0.522 0.0
H10642 H 0.75613 0.84956 0.52249 0.0
H10643 H 0.7578 0.84857 0.53371 0.0
H10644 H 0.76449 0.84809 0.51366 0.0
H10645 H 0.75083 0.86453 0.51972 0.0
H10646 H 0.74765 0.87412 0.52518 0.0
H10647 H 0.76176 0.88447 0.51547 0.0
H10648 H 0.76509 0.87492 0.51001 0.0
H10649 H 0.75741 0.85016 0.48172 0.0
H10650 H 0.75579 0.85067 0.49297 0.0
H10651 H 0.76917 0.86563 0.49425 0.0
H10652 H 0.77081 0.86515 0.48299 0.0
H10653 H 0.75935 0.86745 0.50216 0.0
H10654 H 0.77358 0.85082 0.49697 0.0
H10655 H 0.77681 0.84123 0.49152 0.0
H10656 H 0.76153 0.83127 0.49976 0.0
H10657 H 0.75815 0.84083 0.50518 0.0
C10658 C 0.76712 0.86116 0.53095 0.0
C10659 C 0.76421 0.85636 0.53434 0.0
C10660 C 0.76616 0.86171 0.52454 0.0
C10661 C 0.76224 0.85752 0.5214 0.0
C10662 C 0.75919 0.85284 0.52481 0.0
C10663 C 0.76016 0.85227 0.53121 0.0
C10664 C 0.76172 0.8577 0.51451 0.0
C10665 C 0.76324 0.8523 0.51116 0.0
C10666 C 0.76023 0.86323 0.51123 0.0
C10667 C 0.75824 0.86899 0.51449 0.0
C10668 C 0.75329 0.86884 0.51878 0.0
C10669 C 0.75146 0.87427 0.52187 0.0
C10670 C 0.75451 0.8799 0.52068 0.0
C10671 C 0.7594 0.8801 0.51639 0.0
C10672 C 0.76126 0.87468 0.51329 0.0
C10673 C 0.75997 0.85359 0.48439 0.0
C10674 C 0.76429 0.85757 0.48147 0.0
C10675 C 0.75903 0.85389 0.49082 0.0
C10676 C 0.76244 0.85812 0.49446 0.0
C10677 C 0.7665 0.86233 0.49153 0.0
C10678 C 0.76742 0.86205 0.48509 0.0
C10679 C 0.76213 0.85785 0.50136 0.0
C10680 C 0.76051 0.86324 0.50469 0.0
C10681 C 0.76352 0.85231 0.50464 0.0
C10682 C 0.76558 0.84655 0.50142 0.0
C10683 C 0.77088 0.84659 0.49758 0.0
C10684 C 0.77274 0.84116 0.4945 0.0
C10685 C 0.76937 0.83565 0.49528 0.0
C10686 C 0.76413 0.83555 0.49915 0.0
C10687 C 0.76225 0.84097 0.50223 0.0
H10688 H 0.77081 0.83145 0.49289 0.0
H10689 H 0.75308 0.8841 0.52307 0.0
H10690 H 0.76874 0.14971 0.53362 0.0
H10691 H 0.76729 0.14824 0.52243 0.0
H10692 H 0.75945 0.16668 0.52102 0.0
H10693 H 0.76068 0.1681 0.53223 0.0
H10694 H 0.75348 0.15861 0.51336 0.0
H10695 H 0.77478 0.16419 0.51808 0.0
H10696 H 0.78494 0.16295 0.52329 0.0
H10697 H 0.78702 0.1448 0.51512 0.0
H10698 H 0.77683 0.1459 0.50993 0.0
H10699 H 0.76077 0.16789 0.48255 0.0
H10700 H 0.75935 0.16645 0.49373 0.0
H10701 H 0.76776 0.14825 0.49248 0.0
H10702 H 0.76939 0.14975 0.48132 0.0
H10703 H 0.77295 0.15487 0.50149 0.0
H10704 H 0.75211 0.14997 0.49561 0.0
H10705 H 0.74203 0.15145 0.49033 0.0
H10706 H 0.73907 0.16843 0.50049 0.0
H10707 H 0.74918 0.1671 0.50577 0.0
C10708 C 0.76657 0.15339 0.53096 0.0
C10709 C 0.76489 0.15905 0.53381 0.0
C10710 C 0.76579 0.15257 0.52455 0.0
C10711 C 0.76337 0.15739 0.52087 0.0
C10712 C 0.76137 0.16291 0.52376 0.0
C10713 C 0.76213 0.16373 0.53016 0.0
C10714 C 0.76334 0.15691 0.51398 0.0
C10715 C 0.75774 0.15782 0.51075 0.0
C10716 C 0.76888 0.15575 0.51058 0.0
C10717 C 0.77502 0.1551 0.51368 0.0
C10718 C 0.77739 0.15992 0.51743 0.0
C10719 C 0.78315 0.15924 0.52038 0.0
C10720 C 0.78661 0.15379 0.51955 0.0
C10721 C 0.78432 0.14901 0.51577 0.0
C10722 C 0.77856 0.14966 0.51282 0.0
C10723 C 0.76229 0.16357 0.48465 0.0
C10724 C 0.76523 0.15895 0.48104 0.0
C10725 C 0.76141 0.16272 0.49103 0.0
C10726 C 0.7634 0.15722 0.49395 0.0
C10727 C 0.76616 0.15252 0.49033 0.0
C10728 C 0.76705 0.15337 0.48394 0.0
C10729 C 0.76309 0.15661 0.50083 0.0
C10730 C 0.76866 0.15554 0.50407 0.0
C10731 C 0.75753 0.15765 0.50421 0.0
C10732 C 0.75143 0.15846 0.50105 0.0
C10733 C 0.74934 0.15405 0.49668 0.0
C10734 C 0.74361 0.15485 0.4937 0.0
C10735 C 0.73992 0.16004 0.49506 0.0
C10736 C 0.74194 0.16442 0.49943 0.0
C10737 C 0.74766 0.16364 0.50243 0.0
H10738 H 0.73549 0.16065 0.49275 0.0
H10739 H 0.79108 0.15328 0.52184 0.0
H10740 H 0.84736 0.77142 0.48284 0.0
H10741 H 0.84845 0.77073 0.49409 0.0
H10742 H 0.8644 0.75873 0.49188 0.0
H10743 H 0.86324 0.75927 0.48052 0.0
H10744 H 0.85635 0.7548 0.50138 0.0
H10745 H 0.86698 0.77335 0.4954 0.0
H10746 H 0.8684 0.78337 0.48997 0.0
H10747 H 0.85291 0.7911 0.49999 0.0
H10748 H 0.85134 0.7811 0.50541 0.0
H10749 H 0.86316 0.75972 0.53403 0.0
H10750 H 0.86419 0.75888 0.52268 0.0
H10751 H 0.84867 0.77142 0.52038 0.0
H10752 H 0.84772 0.7724 0.53163 0.0
H10753 H 0.85833 0.77466 0.51307 0.0
H10754 H 0.84709 0.75574 0.5182 0.0
H10755 H 0.84559 0.74567 0.52352 0.0
H10756 H 0.86234 0.73864 0.51514 0.0
H10757 H 0.86398 0.7487 0.50982 0.0
C10758 C 0.85104 0.76854 0.48472 0.0
C10759 C 0.85521 0.76539 0.48077 0.0
C10760 C 0.8517 0.7682 0.49117 0.0
C10761 C 0.85656 0.76474 0.49382 0.0
C10762 C 0.86064 0.76144 0.48992 0.0
C10763 C 0.85999 0.76179 0.48344 0.0
C10764 C 0.85739 0.76476 0.50067 0.0
C10765 C 0.85691 0.75912 0.50395 0.0
C10766 C 0.85807 0.7704 0.504 0.0
C10767 C 0.85902 0.77645 0.50078 0.0
C10768 C 0.86385 0.77717 0.49641 0.0
C10769 C 0.86468 0.78285 0.49334 0.0
C10770 C 0.86074 0.78786 0.49462 0.0
C10771 C 0.85596 0.78721 0.499 0.0
C10772 C 0.8551 0.78154 0.50208 0.0
C10773 C 0.85998 0.7623 0.5311 0.0
C10774 C 0.85533 0.7661 0.53374 0.0
C10775 C 0.86055 0.76178 0.52462 0.0
C10776 C 0.85648 0.76506 0.52069 0.0
C10777 C 0.85185 0.76884 0.52332 0.0
C10778 C 0.85127 0.76935 0.52976 0.0
C10779 C 0.85707 0.76473 0.51381 0.0
C10780 C 0.85786 0.77032 0.51052 0.0
C10781 C 0.85668 0.75904 0.51049 0.0
C10782 C 0.8557 0.753 0.51368 0.0
C10783 C 0.85048 0.75207 0.51754 0.0
C10784 C 0.8496 0.74636 0.52054 0.0
C10785 C 0.85388 0.74153 0.51968 0.0
C10786 C 0.85903 0.74239 0.51581 0.0
C10787 C 0.85994 0.74809 0.51279 0.0
H10788 H 0.85319 0.73711 0.52201 0.0
H10789 H 0.86139 0.79226 0.49224 0.0
H10790 H 0.25517 0.84844 0.53183 0.0
H10791 H 0.25674 0.84992 0.52068 0.0
H10792 H 0.24992 0.86877 0.5222 0.0
H10793 H 0.24812 0.86723 0.53334 0.0
H10794 H 0.24425 0.86285 0.51307 0.0
H10795 H 0.26543 0.86567 0.51902 0.0
H10796 H 0.27531 0.86321 0.52432 0.0
H10797 H 0.27669 0.84611 0.51402 0.0
H10798 H 0.26677 0.84843 0.50872 0.0
H10799 H 0.24885 0.86729 0.48083 0.0
H10800 H 0.25044 0.86879 0.492 0.0
H10801 H 0.25663 0.84975 0.49367 0.0
H10802 H 0.25528 0.84829 0.48247 0.0
H10803 H 0.26328 0.85728 0.5012 0.0
H10804 H 0.24149 0.85376 0.49653 0.0
H10805 H 0.2315 0.856 0.49132 0.0
H10806 H 0.2313 0.87432 0.49938 0.0
H10807 H 0.24133 0.87221 0.50457 0.0
C10808 C 0.25403 0.85291 0.5298 0.0
C10809 C 0.25147 0.8577 0.53347 0.0
C10810 C 0.255 0.85378 0.52343 0.0
C10811 C 0.2535 0.85948 0.5206 0.0
C10812 C 0.25114 0.86434 0.52429 0.0
C10813 C 0.25015 0.86347 0.53066 0.0
C10814 C 0.25389 0.86015 0.51373 0.0
C10815 C 0.24846 0.86177 0.51049 0.0
C10816 C 0.25934 0.85861 0.51034 0.0
C10817 C 0.26532 0.85721 0.5135 0.0
C10818 C 0.26781 0.86136 0.51792 0.0
C10819 C 0.27342 0.86 0.52091 0.0
C10820 C 0.27662 0.8545 0.51951 0.0
C10821 C 0.27421 0.85037 0.5151 0.0
C10822 C 0.26859 0.85171 0.51209 0.0
C10823 C 0.25069 0.86347 0.48354 0.0
C10824 C 0.25186 0.85765 0.48077 0.0
C10825 C 0.25155 0.86432 0.48994 0.0
C10826 C 0.25354 0.85934 0.49369 0.0
C10827 C 0.25505 0.85364 0.49087 0.0
C10828 C 0.25422 0.8528 0.48448 0.0
C10829 C 0.25362 0.8599 0.50057 0.0
C10830 C 0.25912 0.85848 0.50381 0.0
C10831 C 0.24823 0.8616 0.50397 0.0
C10832 C 0.24219 0.86286 0.50088 0.0
C10833 C 0.23933 0.85828 0.49715 0.0
C10834 C 0.23366 0.85952 0.49421 0.0
C10835 C 0.23078 0.8653 0.495 0.0
C10836 C 0.23354 0.86985 0.49876 0.0
C10837 C 0.23922 0.86863 0.5017 0.0
H10838 H 0.22639 0.86626 0.49272 0.0
H10839 H 0.28096 0.85345 0.52184 0.0
H10840 H 0.15628 0.25709 0.534 0.0
H10841 H 0.15539 0.25834 0.52266 0.0
H10842 H 0.16075 0.23913 0.52015 0.0
H10843 H 0.16165 0.23787 0.53138 0.0
H10844 H 0.16754 0.24669 0.51296 0.0
H10845 H 0.14565 0.24416 0.51815 0.0
H10846 H 0.13588 0.24701 0.52348 0.0
H10847 H 0.13637 0.26508 0.51493 0.0
H10848 H 0.14619 0.26237 0.50961 0.0
H10849 H 0.1604 0.23736 0.48305 0.0
H10850 H 0.15964 0.23887 0.49427 0.0
H10851 H 0.15583 0.25839 0.49151 0.0
H10852 H 0.15662 0.25692 0.48018 0.0
H10853 H 0.14859 0.25277 0.50123 0.0
H10854 H 0.16989 0.25493 0.49523 0.0
H10855 H 0.17957 0.25204 0.48977 0.0
H10856 H 0.18028 0.23483 0.49992 0.0
H10857 H 0.17054 0.23757 0.50537 0.0
C10858 C 0.15719 0.25313 0.53102 0.0
C10859 C 0.15911 0.24741 0.53356 0.0
C10860 C 0.15668 0.25384 0.52455 0.0
C10861 C 0.15803 0.24883 0.52056 0.0
C10862 C 0.15975 0.24308 0.52313 0.0
C10863 C 0.16028 0.24237 0.52955 0.0
C10864 C 0.15795 0.24953 0.51369 0.0
C10865 C 0.16338 0.24799 0.5104 0.0
C10866 C 0.1526 0.25147 0.51035 0.0
C10867 C 0.14669 0.25309 0.51354 0.0
C10868 C 0.14371 0.24876 0.51745 0.0
C10869 C 0.13815 0.25035 0.52046 0.0
C10870 C 0.13552 0.25623 0.51956 0.0
C10871 C 0.13842 0.26053 0.51563 0.0
C10872 C 0.14398 0.25897 0.51261 0.0
C10873 C 0.15938 0.24198 0.48482 0.0
C10874 C 0.15868 0.24705 0.48074 0.0
C10875 C 0.15893 0.24283 0.49123 0.0
C10876 C 0.15779 0.24876 0.49372 0.0
C10877 C 0.15673 0.25378 0.48967 0.0
C10878 C 0.15718 0.25293 0.48322 0.0
C10879 C 0.15811 0.24968 0.50055 0.0
C10880 C 0.15276 0.25156 0.50381 0.0
C10881 C 0.16355 0.24808 0.50389 0.0
C10882 C 0.16946 0.24644 0.50068 0.0
C10883 C 0.17208 0.25051 0.49627 0.0
C10884 C 0.17759 0.2489 0.49318 0.0
C10885 C 0.18053 0.24325 0.49449 0.0
C10886 C 0.17799 0.2392 0.49891 0.0
C10887 C 0.17248 0.24079 0.50201 0.0
H10888 H 0.18479 0.24201 0.4921 0.0
H10889 H 0.13122 0.25745 0.52189 0.0
H10890 H 0.25895 0.16662 0.53357 0.0
H10891 H 0.26038 0.16589 0.52229 0.0
H10892 H 0.2465 0.15136 0.52145 0.0
H10893 H 0.24508 0.15204 0.53272 0.0
H10894 H 0.25602 0.14901 0.51348 0.0
H10895 H 0.24267 0.16641 0.51843 0.0
H10896 H 0.23992 0.17625 0.52368 0.0
H10897 H 0.25556 0.18532 0.51509 0.0
H10898 H 0.25845 0.1755 0.50986 0.0
H10899 H 0.24503 0.15207 0.4824 0.0
H10900 H 0.24665 0.15127 0.49362 0.0
H10901 H 0.26006 0.16624 0.49279 0.0
H10902 H 0.25845 0.16707 0.48155 0.0
H10903 H 0.25174 0.16835 0.50161 0.0
H10904 H 0.26453 0.1511 0.49583 0.0
H10905 H 0.26716 0.14124 0.49056 0.0
H10906 H 0.25258 0.13187 0.50055 0.0
H10907 H 0.2498 0.1417 0.50582 0.0
C10908 C 0.25624 0.16324 0.53098 0.0
C10909 C 0.25186 0.15942 0.53403 0.0
C10910 C 0.25706 0.16282 0.52455 0.0
C10911 C 0.25347 0.15864 0.52101 0.0
C10912 C 0.24932 0.15462 0.52408 0.0
C10913 C 0.24852 0.155 0.53052 0.0
C10914 C 0.25372 0.15875 0.51411 0.0
C10915 C 0.25505 0.15322 0.51088 0.0
C10916 C 0.25257 0.16428 0.51071 0.0
C10917 C 0.25081 0.1702 0.51381 0.0
C10918 C 0.24554 0.17049 0.5177 0.0
C10919 C 0.24396 0.17607 0.52066 0.0
C10920 C 0.24758 0.18141 0.51973 0.0
C10921 C 0.25277 0.18118 0.51582 0.0
C10922 C 0.25438 0.17561 0.51285 0.0
C10923 C 0.24843 0.1551 0.48458 0.0
C10924 C 0.2516 0.15964 0.48108 0.0
C10925 C 0.24935 0.15463 0.491 0.0
C10926 C 0.25351 0.15867 0.49405 0.0
C10927 C 0.25682 0.16309 0.49054 0.0
C10928 C 0.25588 0.16357 0.48413 0.0
C10929 C 0.25403 0.1586 0.50095 0.0
C10930 C 0.25281 0.16414 0.50419 0.0
C10931 C 0.25526 0.15308 0.50434 0.0
C10932 C 0.25693 0.14715 0.50118 0.0
C10933 C 0.26185 0.14695 0.49687 0.0
C10934 C 0.26338 0.14137 0.49389 0.0
C10935 C 0.26003 0.13594 0.49521 0.0
C10936 C 0.25517 0.13608 0.49953 0.0
C10937 C 0.25362 0.14166 0.50252 0.0
H10938 H 0.26122 0.13162 0.4929 0.0
H10939 H 0.24634 0.18572 0.52203 0.0
H10940 H 0.86479 0.2556 0.48068 0.0
H10941 H 0.86557 0.25713 0.49195 0.0
H10942 H 0.84704 0.24968 0.49425 0.0
H10943 H 0.84626 0.24805 0.48305 0.0
H10944 H 0.84888 0.25999 0.50144 0.0
H10945 H 0.85971 0.2407 0.49678 0.0
H10946 H 0.86769 0.23432 0.49154 0.0
H10947 H 0.88213 0.24567 0.49948 0.0
H10948 H 0.87422 0.25217 0.50471 0.0
H10949 H 0.84657 0.24842 0.53184 0.0
H10950 H 0.8472 0.25008 0.52066 0.0
H10951 H 0.86597 0.25699 0.52263 0.0
H10952 H 0.86536 0.25539 0.53391 0.0
H10953 H 0.86511 0.24861 0.5133 0.0
H10954 H 0.85431 0.267 0.51917 0.0
H10955 H 0.84633 0.27333 0.52448 0.0
H10956 H 0.83192 0.26387 0.51434 0.0
H10957 H 0.8398 0.25741 0.50903 0.0
C10958 C 0.86089 0.25428 0.48359 0.0
C10959 C 0.85547 0.25169 0.48095 0.0
C10960 C 0.86133 0.25518 0.49002 0.0
C10961 C 0.85637 0.25348 0.49394 0.0
C10962 C 0.85091 0.25105 0.49131 0.0
C10963 C 0.85047 0.25014 0.48489 0.0
C10964 C 0.8569 0.254 0.50081 0.0
C10965 C 0.85241 0.25748 0.50404 0.0
C10966 C 0.86162 0.25089 0.50418 0.0
C10967 C 0.86637 0.24697 0.50107 0.0
C10968 C 0.86458 0.24187 0.49737 0.0
C10969 C 0.86909 0.23822 0.49441 0.0
C10970 C 0.87541 0.2396 0.49516 0.0
C10971 C 0.87723 0.24461 0.49889 0.0
C10972 C 0.87274 0.24828 0.50185 0.0
C10973 C 0.8508 0.25041 0.52993 0.0
C10974 C 0.8559 0.25182 0.5338 0.0
C10975 C 0.85115 0.25135 0.52352 0.0
C10976 C 0.8566 0.25374 0.52081 0.0
C10977 C 0.86171 0.25515 0.52463 0.0
C10978 C 0.86136 0.25422 0.53107 0.0
C10979 C 0.85699 0.25447 0.51395 0.0
C10980 C 0.86164 0.25122 0.51071 0.0
C10981 C 0.85242 0.2578 0.51057 0.0
C10982 C 0.84765 0.26169 0.51373 0.0
C10983 C 0.84944 0.26623 0.5181 0.0
C10984 C 0.84493 0.26985 0.52111 0.0
C10985 C 0.83862 0.269 0.51975 0.0
C10986 C 0.83681 0.26453 0.51538 0.0
C10987 C 0.84129 0.26089 0.51237 0.0
H10988 H 0.83514 0.2718 0.52208 0.0
H10989 H 0.8789 0.23677 0.49287 0.0
H10990 H 0.15008 0.77039 0.48153 0.0
H10991 H 0.14869 0.76917 0.49276 0.0
H10992 H 0.16579 0.75868 0.49374 0.0
H10993 H 0.16712 0.75974 0.48248 0.0
H10994 H 0.15684 0.75391 0.50155 0.0
H10995 H 0.16591 0.77393 0.49687 0.0
H10996 H 0.16643 0.78417 0.49171 0.0
H10997 H 0.14901 0.78937 0.50005 0.0
H10998 H 0.14834 0.77911 0.50519 0.0
H10999 H 0.16672 0.75943 0.53265 0.0
H11000 H 0.16535 0.75832 0.52142 0.0
H11001 H 0.14869 0.76951 0.52233 0.0
H11002 H 0.15013 0.77079 0.53354 0.0
H11003 H 0.15639 0.77366 0.51354 0.0
H11004 H 0.14792 0.75389 0.51916 0.0
H11005 H 0.1476 0.74366 0.52437 0.0
H11006 H 0.16399 0.73797 0.51443 0.0
H11007 H 0.16447 0.7482 0.50922 0.0
C11008 C 0.15347 0.7677 0.48411 0.0
C11009 C 0.15874 0.76521 0.48112 0.0
C11010 C 0.15269 0.76705 0.49053 0.0
C11011 C 0.15719 0.76391 0.4941 0.0
C11012 C 0.16228 0.76114 0.49109 0.0
C11013 C 0.16306 0.7618 0.48466 0.0
C11014 C 0.15683 0.76392 0.50099 0.0
C11015 C 0.15678 0.75822 0.50419 0.0
C11016 C 0.15663 0.76955 0.50442 0.0
C11017 C 0.15704 0.77573 0.50136 0.0
C11018 C 0.16217 0.77724 0.49756 0.0
C11019 C 0.16249 0.78305 0.49465 0.0
C11020 C 0.15775 0.78741 0.49553 0.0
C11021 C 0.15267 0.78598 0.49935 0.0
C11022 C 0.15232 0.78017 0.50227 0.0
C11023 C 0.16274 0.76162 0.53047 0.0
C11024 C 0.15855 0.76523 0.53399 0.0
C11025 C 0.16193 0.76093 0.52405 0.0
C11026 C 0.15689 0.7638 0.52103 0.0
C11027 C 0.1526 0.76724 0.52457 0.0
C11028 C 0.1534 0.76793 0.53098 0.0
C11029 C 0.15641 0.76364 0.51414 0.0
C11030 C 0.15635 0.76934 0.51093 0.0
C11031 C 0.15653 0.758 0.51072 0.0
C11032 C 0.15626 0.75184 0.51384 0.0
C11033 C 0.15149 0.75048 0.51812 0.0
C11034 C 0.15127 0.74468 0.52107 0.0
C11035 C 0.15578 0.74017 0.51974 0.0
C11036 C 0.16051 0.74146 0.51546 0.0
C11037 C 0.16075 0.74726 0.5125 0.0
H11038 H 0.1556 0.73568 0.52203 0.0
H11039 H 0.15801 0.79191 0.49327 0.0
loop_
_geom_bond_atom_site_label_1
_geom_bond_atom_site_label_2
_geom_bond_distance
_geom_bond_site_symmetry_2
_ccdc_geom_bond_type
C0 C1 1.264 . S
C0 C5 1.479 . S
C0 C10 1.465 . S
C1 C0 1.264 . S
C1 C3 1.339 . S
C1 H28 0.931 . S
C2 C3 1.395 . S
C2 C4 1.320 . S
C3 C1 1.339 . S
C3 C2 1.395 . S
C3 H29 0.929 . S
C4 C2 1.320 . S
C4 C5 1.405 . S
C4 H30 0.930 . S
C5 C0 1.479 . S
C5 C4 1.405 . S
C5 H31 0.931 . S
U6 O7 2.454 . S
U6 O8 2.458 . S
U6 C9 2.984 . S
U6 C10 2.847 . S
U6 C23 2.882 . S
U6 O24 2.441 . S
U6 O25 2.420 . S
U6 O26 2.455 . S
U6 O27 2.449 . S
O7 U6 2.454 . S
O7 C9 1.353 . S
O8 U6 2.458 . S
O8 C9 1.286 . S
C9 U6 2.984 . S
C9 O7 1.353 . S
C9 O8 1.286 . S
C9 C11 1.363 . S
C10 C0 1.465 . S
C10 U6 2.847 . S
C10 O24 1.249 . S
C10 O25 1.202 . S
C11 C9 1.363 . S
C11 C13 1.408 . S
C11 C16 1.342 . S
C12 C13 1.310 . S
C12 C15 1.461 . S
C12 H32 0.932 . S
C13 C11 1.408 . S
C13 C12 1.310 . S
C13 H33 0.930 . S
C14 C15 1.474 . S
C14 C16 1.285 . S
C14 H34 0.929 . S
C15 C12 1.461 . S
C15 C14 1.474 . S
C16 C11 1.342 . S
C16 C14 1.285 . S
C16 H35 0.930 . S
C17 C20 1.424 . S
C17 C22 1.245 . S
C17 C23 1.428 . S
C18 C21 1.260 . S
C18 C22 1.477 . S
C18 H36 0.932 . S
C19 C20 1.384 . S
C19 C21 1.479 . S
C19 H37 0.929 . S
C20 C17 1.424 . S
C20 C19 1.384 . S
C20 H38 0.928 . S
C21 C18 1.260 . S
C21 C19 1.479 . S
C22 C17 1.245 . S
C22 C18 1.477 . S
C22 H39 0.932 . S
C23 U6 2.882 . S
C23 C17 1.428 . S
C23 O26 1.301 . S
C23 O27 1.282 . S
O24 U6 2.441 . S
O24 C10 1.249 . S
O25 U6 2.420 . S
O25 C10 1.202 . S
O26 U6 2.455 . S
O26 C23 1.301 . S
O27 U6 2.449 . S
O27 C23 1.282 . S
H28 C1 0.931 . S
H29 C3 0.929 . S
H30 C4 0.930 . S
H31 C5 0.931 . S
H32 C12 0.932 . S
H33 C13 0.930 . S
H34 C14 0.929 . S
H35 C16 0.930 . S
H36 C18 0.932 . S
H37 C19 0.929 . S
H38 C20 0.928 . S
H39 C22 0.932 . S
C40 C41 1.264 . S
C40 C45 1.479 . S
C40 C50 1.465 . S
C41 C40 1.264 . S
C41 C43 1.339 . S
C41 H68 0.931 . S
C42 C43 1.395 . S
C42 C44 1.320 . S
C43 C41 1.339 . S
C43 C42 1.395 . S
C43 H69 0.929 . S
C44 C42 1.320 . S
C44 C45 1.405 . S
C44 H70 0.930 . S
C45 C40 1.479 . S
C45 C44 1.405 . S
C45 H71 0.931 . S
U46 O47 2.454 . S
U46 O48 2.458 . S
U46 C49 2.984 . S
U46 C50 2.847 . S
U46 C63 2.882 . S
U46 O64 2.441 . S
U46 O65 2.420 . S
U46 O66 2.455 . S
U46 O67 2.449 . S
O47 U46 2.454 . S
O47 C49 1.353 . S
O48 U46 2.458 . S
O48 C49 1.286 . S
C49 U46 2.984 . S
C49 O47 1.353 . S
C49 O48 1.286 . S
C49 C51 1.363 . S
C50 C40 1.465 . S
C50 U46 2.847 . S
C50 O64 1.249 . S
C50 O65 1.202 . S
C51 C49 1.363 . S
C51 C53 1.408 . S
C51 C56 1.342 . S
C52 C53 1.310 . S
C52 C55 1.461 . S
C52 H72 0.932 . S
C53 C51 1.408 . S
C53 C52 1.310 . S
C53 H73 0.930 . S
C54 C55 1.474 . S
C54 C56 1.285 . S
C54 H74 0.929 . S
C55 C52 1.461 . S
C55 C54 1.474 . S
C56 C51 1.342 . S
C56 C54 1.285 . S
C56 H75 0.930 . S
C57 C60 1.424 . S
C57 C62 1.245 . S
C57 C63 1.428 . S
C58 C61 1.260 . S
C58 C62 1.477 . S
C58 H76 0.932 . S
C59 C60 1.384 . S
C59 C61 1.479 . S
C59 H77 0.929 . S
C60 C57 1.424 . S
C60 C59 1.384 . S
C60 H78 0.928 . S
C61 C58 1.260 . S
C61 C59 1.479 . S
C62 C57 1.245 . S
C62 C58 1.477 . S
C62 H79 0.932 . S
C63 U46 2.882 . S
C63 C57 1.428 . S
C63 O66 1.301 . S
C63 O67 1.282 . S
O64 U46 2.441 . S
O64 C50 1.249 . S
O65 U46 2.420 . S
O65 C50 1.202 . S
O66 U46 2.455 . S
O66 C63 1.301 . S
O67 U46 2.449 . S
O67 C63 1.282 . S
H68 C41 0.931 . S
H69 C43 0.929 . S
H70 C44 0.930 . S
H71 C45 0.931 . S
H72 C52 0.932 . S
H73 C53 0.930 . S
H74 C54 0.929 . S
H75 C56 0.930 . S
H76 C58 0.932 . S
H77 C59 0.929 . S
H78 C60 0.928 . S
H79 C62 0.932 . S
C80 C81 1.264 . S
C80 C85 1.479 . S
C80 C90 1.465 . S
C81 C80 1.264 . S
C81 C83 1.339 . S
C81 H108 0.931 . S
C82 C83 1.395 . S
C82 C84 1.320 . S
C83 C81 1.339 . S
C83 C82 1.395 . S
C83 H109 0.929 . S
C84 C82 1.320 . S
C84 C85 1.405 . S
C84 H110 0.930 . S
C85 C80 1.479 . S
C85 C84 1.405 . S
C85 H111 0.931 . S
U86 O87 2.454 . S
U86 O88 2.458 . S
U86 C89 2.984 . S
U86 C90 2.847 . S
U86 C103 2.882 . S
U86 O104 2.441 . S
U86 O105 2.420 . S
U86 O106 2.455 . S
U86 O107 2.449 . S
O87 U86 2.454 . S
O87 C89 1.353 . S
O88 U86 2.458 . S
O88 C89 1.286 . S
C89 U86 2.984 . S
C89 O87 1.353 . S
C89 O88 1.286 . S
C89 C91 1.363 . S
C90 C80 1.465 . S
C90 U86 2.847 . S
C90 O104 1.249 . S
C90 O105 1.202 . S
C91 C89 1.363 . S
C91 C93 1.408 . S
C91 C96 1.342 . S
C92 C93 1.310 . S
C92 C95 1.461 . S
C92 H112 0.932 . S
C93 C91 1.408 . S
C93 C92 1.310 . S
C93 H113 0.930 . S
C94 C95 1.474 . S
C94 C96 1.285 . S
C94 H114 0.929 . S
C95 C92 1.461 . S
C95 C94 1.474 . S
C96 C91 1.342 . S
C96 C94 1.285 . S
C96 H115 0.930 . S
C97 C100 1.424 . S
C97 C102 1.245 . S
C97 C103 1.428 . S
C98 C101 1.260 . S
C98 C102 1.477 . S
C98 H116 0.932 . S
C99 C100 1.384 . S
C99 C101 1.479 . S
C99 H117 0.929 . S
C100 C97 1.424 . S
C100 C99 1.384 . S
C100 H118 0.928 . S
C101 C98 1.260 . S
C101 C99 1.479 . S
C102 C97 1.245 . S
C102 C98 1.477 . S
C102 H119 0.932 . S
C103 U86 2.882 . S
C103 C97 1.428 . S
C103 O106 1.301 . S
C103 O107 1.282 . S
O104 U86 2.441 . S
O104 C90 1.249 . S
O105 U86 2.420 . S
O105 C90 1.202 . S
O106 U86 2.455 . S
O106 C103 1.301 . S
O107 U86 2.449 . S
O107 C103 1.282 . S
H108 C81 0.931 . S
H109 C83 0.929 . S
H110 C84 0.930 . S
H111 C85 0.931 . S
H112 C92 0.932 . S
H113 C93 0.930 . S
H114 C94 0.929 . S
H115 C96 0.930 . S
H116 C98 0.932 . S
H117 C99 0.929 . S
H118 C100 0.928 . S
H119 C102 0.932 . S
C120 C121 1.264 . S
C120 C125 1.479 . S
C120 C130 1.465 . S
C121 C120 1.264 . S
C121 C123 1.339 . S
C121 H148 0.931 . S
C122 C123 1.395 . S
C122 C124 1.320 . S
C123 C121 1.339 . S
C123 C122 1.395 . S
C123 H149 0.929 . S
C124 C122 1.320 . S
C124 C125 1.405 . S
C124 H150 0.930 . S
C125 C120 1.479 . S
C125 C124 1.405 . S
C125 H151 0.931 . S
U126 O127 2.454 . S
U126 O128 2.458 . S
U126 C129 2.984 . S
U126 C130 2.847 . S
U126 C143 2.882 . S
U126 O144 2.441 . S
U126 O145 2.420 . S
U126 O146 2.455 . S
U126 O147 2.449 . S
O127 U126 2.454 . S
O127 C129 1.353 . S
O128 U126 2.458 . S
O128 C129 1.286 . S
C129 U126 2.984 . S
C129 O127 1.353 . S
C129 O128 1.286 . S
C129 C131 1.363 . S
C130 C120 1.465 . S
C130 U126 2.847 . S
C130 O144 1.249 . S
C130 O145 1.202 . S
C131 C129 1.363 . S
C131 C133 1.408 . S
C131 C136 1.342 . S
C132 C133 1.310 . S
C132 C135 1.461 . S
C132 H152 0.932 . S
C133 C131 1.408 . S
C133 C132 1.310 . S
C133 H153 0.930 . S
C134 C135 1.474 . S
C134 C136 1.285 . S
C134 H154 0.929 . S
C135 C132 1.461 . S
C135 C134 1.474 . S
C136 C131 1.342 . S
C136 C134 1.285 . S
C136 H155 0.930 . S
C137 C140 1.424 . S
C137 C142 1.245 . S
C137 C143 1.428 . S
C138 C141 1.260 . S
C138 C142 1.477 . S
C138 H156 0.932 . S
C139 C140 1.384 . S
C139 C141 1.479 . S
C139 H157 0.929 . S
C140 C137 1.424 . S
C140 C139 1.384 . S
C140 H158 0.928 . S
C141 C138 1.260 . S
C141 C139 1.479 . S
C142 C137 1.245 . S
C142 C138 1.477 . S
C142 H159 0.932 . S
C143 U126 2.882 . S
C143 C137 1.428 . S
C143 O146 1.301 . S
C143 O147 1.282 . S
O144 U126 2.441 . S
O144 C130 1.249 . S
O145 U126 2.420 . S
O145 C130 1.202 . S
O146 U126 2.455 . S
O146 C143 1.301 . S
O147 U126 2.449 . S
O147 C143 1.282 . S
H148 C121 0.931 . S
H149 C123 0.929 . S
H150 C124 0.930 . S
H151 C125 0.931 . S
H152 C132 0.932 . S
H153 C133 0.930 . S
H154 C134 0.929 . S
H155 C136 0.930 . S
H156 C138 0.932 . S
H157 C139 0.929 . S
H158 C140 0.928 . S
H159 C142 0.932 . S
C160 C161 1.264 . S
C160 C165 1.479 . S
C160 C170 1.465 . S
C161 C160 1.264 . S
C161 C163 1.339 . S
C161 H188 0.931 . S
C162 C163 1.395 . S
C162 C164 1.320 . S
C163 C161 1.339 . S
C163 C162 1.395 . S
C163 H189 0.929 . S
C164 C162 1.320 . S
C164 C165 1.405 . S
C164 H190 0.930 . S
C165 C160 1.479 . S
C165 C164 1.405 . S
C165 H191 0.931 . S
U166 O167 2.454 . S
U166 O168 2.458 . S
U166 C169 2.984 . S
U166 C170 2.847 . S
U166 C183 2.882 . S
U166 O184 2.441 . S
U166 O185 2.420 . S
U166 O186 2.455 . S
U166 O187 2.449 . S
O167 U166 2.454 . S
O167 C169 1.353 . S
O168 U166 2.458 . S
O168 C169 1.286 . S
C169 U166 2.984 . S
C169 O167 1.353 . S
C169 O168 1.286 . S
C169 C171 1.363 . S
C170 C160 1.465 . S
C170 U166 2.847 . S
C170 O184 1.249 . S
C170 O185 1.202 . S
C171 C169 1.363 . S
C171 C173 1.408 . S
C171 C176 1.342 . S
C172 C173 1.310 . S
C172 C175 1.461 . S
C172 H192 0.932 . S
C173 C171 1.408 . S
C173 C172 1.310 . S
C173 H193 0.930 . S
C174 C175 1.474 . S
C174 C176 1.285 . S
C174 H194 0.929 . S
C175 C172 1.461 . S
C175 C174 1.474 . S
C176 C171 1.342 . S
C176 C174 1.285 . S
C176 H195 0.930 . S
C177 C180 1.424 . S
C177 C182 1.245 . S
C177 C183 1.428 . S
C178 C181 1.260 . S
C178 C182 1.477 . S
C178 H196 0.932 . S
C179 C180 1.384 . S
C179 C181 1.479 . S
C179 H197 0.929 . S
C180 C177 1.424 . S
C180 C179 1.384 . S
C180 H198 0.928 . S
C181 C178 1.260 . S
C181 C179 1.479 . S
C182 C177 1.245 . S
C182 C178 1.477 . S
C182 H199 0.932 . S
C183 U166 2.882 . S
C183 C177 1.428 . S
C183 O186 1.301 . S
C183 O187 1.282 . S
O184 U166 2.441 . S
O184 C170 1.249 . S
O185 U166 2.420 . S
O185 C170 1.202 . S
O186 U166 2.455 . S
O186 C183 1.301 . S
O187 U166 2.449 . S
O187 C183 1.282 . S
H188 C161 0.931 . S
H189 C163 0.929 . S
H190 C164 0.930 . S
H191 C165 0.931 . S
H192 C172 0.932 . S
H193 C173 0.930 . S
H194 C174 0.929 . S
H195 C176 0.930 . S
H196 C178 0.932 . S
H197 C179 0.929 . S
H198 C180 0.928 . S
H199 C182 0.932 . S
C200 C201 1.264 . S
C200 C205 1.479 . S
C200 C210 1.465 . S
C201 C200 1.264 . S
C201 C203 1.339 . S
C201 H228 0.931 . S
C202 C203 1.395 . S
C202 C204 1.320 . S
C203 C201 1.339 . S
C203 C202 1.395 . S
C203 H229 0.929 . S
C204 C202 1.320 . S
C204 C205 1.405 . S
C204 H230 0.930 . S
C205 C200 1.479 . S
C205 C204 1.405 . S
C205 H231 0.931 . S
U206 O207 2.454 . S
U206 O208 2.458 . S
U206 C209 2.984 . S
U206 C210 2.847 . S
U206 C223 2.882 . S
U206 O224 2.441 . S
U206 O225 2.420 . S
U206 O226 2.455 . S
U206 O227 2.449 . S
O207 U206 2.454 . S
O207 C209 1.353 . S
O208 U206 2.458 . S
O208 C209 1.286 . S
C209 U206 2.984 . S
C209 O207 1.353 . S
C209 O208 1.286 . S
C209 C211 1.363 . S
C210 C200 1.465 . S
C210 U206 2.847 . S
C210 O224 1.249 . S
C210 O225 1.202 . S
C211 C209 1.363 . S
C211 C213 1.408 . S
C211 C216 1.342 . S
C212 C213 1.310 . S
C212 C215 1.461 . S
C212 H232 0.932 . S
C213 C211 1.408 . S
C213 C212 1.310 . S
C213 H233 0.930 . S
C214 C215 1.474 . S
C214 C216 1.285 . S
C214 H234 0.929 . S
C215 C212 1.461 . S
C215 C214 1.474 . S
C216 C211 1.342 . S
C216 C214 1.285 . S
C216 H235 0.930 . S
C217 C220 1.424 . S
C217 C222 1.245 . S
C217 C223 1.428 . S
C218 C221 1.260 . S
C218 C222 1.477 . S
C218 H236 0.932 . S
C219 C220 1.384 . S
C219 C221 1.479 . S
C219 H237 0.929 . S
C220 C217 1.424 . S
C220 C219 1.384 . S
C220 H238 0.928 . S
C221 C218 1.260 . S
C221 C219 1.479 . S
C222 C217 1.245 . S
C222 C218 1.477 . S
C222 H239 0.932 . S
C223 U206 2.882 . S
C223 C217 1.428 . S
C223 O226 1.301 . S
C223 O227 1.282 . S
O224 U206 2.441 . S
O224 C210 1.249 . S
O225 U206 2.420 . S
O225 C210 1.202 . S
O226 U206 2.455 . S
O226 C223 1.301 . S
O227 U206 2.449 . S
O227 C223 1.282 . S
H228 C201 0.931 . S
H229 C203 0.929 . S
H230 C204 0.930 . S
H231 C205 0.931 . S
H232 C212 0.932 . S
H233 C213 0.930 . S
H234 C214 0.929 . S
H235 C216 0.930 . S
H236 C218 0.932 . S
H237 C219 0.929 . S
H238 C220 0.928 . S
H239 C222 0.932 . S
C240 C241 1.264 . S
C240 C245 1.479 . S
C240 C250 1.465 . S
C241 C240 1.264 . S
C241 C243 1.339 . S
C241 H268 0.931 . S
C242 C243 1.395 . S
C242 C244 1.320 . S
C243 C241 1.339 . S
C243 C242 1.395 . S
C243 H269 0.929 . S
C244 C242 1.320 . S
C244 C245 1.405 . S
C244 H270 0.930 . S
C245 C240 1.479 . S
C245 C244 1.405 . S
C245 H271 0.931 . S
U246 O247 2.454 . S
U246 O248 2.458 . S
U246 C249 2.984 . S
U246 C250 2.847 . S
U246 C263 2.882 . S
U246 O264 2.441 . S
U246 O265 2.420 . S
U246 O266 2.455 . S
U246 O267 2.449 . S
O247 U246 2.454 . S
O247 C249 1.353 . S
O248 U246 2.458 . S
O248 C249 1.286 . S
C249 U246 2.984 . S
C249 O247 1.353 . S
C249 O248 1.286 . S
C249 C251 1.363 . S
C250 C240 1.465 . S
C250 U246 2.847 . S
C250 O264 1.249 . S
C250 O265 1.202 . S
C251 C249 1.363 . S
C251 C253 1.408 . S
C251 C256 1.342 . S
C252 C253 1.310 . S
C252 C255 1.461 . S
C252 H272 0.932 . S
C253 C251 1.408 . S
C253 C252 1.310 . S
C253 H273 0.930 . S
C254 C255 1.474 . S
C254 C256 1.285 . S
C254 H274 0.929 . S
C255 C252 1.461 . S
C255 C254 1.474 . S
C256 C251 1.342 . S
C256 C254 1.285 . S
C256 H275 0.930 . S
C257 C260 1.424 . S
C257 C262 1.245 . S
C257 C263 1.428 . S
C258 C261 1.260 . S
C258 C262 1.477 . S
C258 H276 0.932 . S
C259 C260 1.384 . S
C259 C261 1.479 . S
C259 H277 0.929 . S
C260 C257 1.424 . S
C260 C259 1.384 . S
C260 H278 0.928 . S
C261 C258 1.260 . S
C261 C259 1.479 . S
C262 C257 1.245 . S
C262 C258 1.477 . S
C262 H279 0.932 . S
C263 U246 2.882 . S
C263 C257 1.428 . S
C263 O266 1.301 . S
C263 O267 1.282 . S
O264 U246 2.441 . S
O264 C250 1.249 . S
O265 U246 2.420 . S
O265 C250 1.202 . S
O266 U246 2.455 . S
O266 C263 1.301 . S
O267 U246 2.449 . S
O267 C263 1.282 . S
H268 C241 0.931 . S
H269 C243 0.929 . S
H270 C244 0.930 . S
H271 C245 0.931 . S
H272 C252 0.932 . S
H273 C253 0.930 . S
H274 C254 0.929 . S
H275 C256 0.930 . S
H276 C258 0.932 . S
H277 C259 0.929 . S
H278 C260 0.928 . S
H279 C262 0.932 . S
C280 C281 1.264 . S
C280 C285 1.479 . S
C280 C290 1.465 . S
C281 C280 1.264 . S
C281 C283 1.339 . S
C281 H308 0.931 . S
C282 C283 1.395 . S
C282 C284 1.320 . S
C283 C281 1.339 . S
C283 C282 1.395 . S
C283 H309 0.929 . S
C284 C282 1.320 . S
C284 C285 1.405 . S
C284 H310 0.930 . S
C285 C280 1.479 . S
C285 C284 1.405 . S
C285 H311 0.931 . S
U286 O287 2.454 . S
U286 O288 2.458 . S
U286 C289 2.984 . S
U286 C290 2.847 . S
U286 C303 2.882 . S
U286 O304 2.441 . S
U286 O305 2.420 . S
U286 O306 2.455 . S
U286 O307 2.449 . S
O287 U286 2.454 . S
O287 C289 1.353 . S
O288 U286 2.458 . S
O288 C289 1.286 . S
C289 U286 2.984 . S
C289 O287 1.353 . S
C289 O288 1.286 . S
C289 C291 1.363 . S
C290 C280 1.465 . S
C290 U286 2.847 . S
C290 O304 1.249 . S
C290 O305 1.202 . S
C291 C289 1.363 . S
C291 C293 1.408 . S
C291 C296 1.342 . S
C292 C293 1.310 . S
C292 C295 1.461 . S
C292 H312 0.932 . S
C293 C291 1.408 . S
C293 C292 1.310 . S
C293 H313 0.930 . S
C294 C295 1.474 . S
C294 C296 1.285 . S
C294 H314 0.929 . S
C295 C292 1.461 . S
C295 C294 1.474 . S
C296 C291 1.342 . S
C296 C294 1.285 . S
C296 H315 0.930 . S
C297 C300 1.424 . S
C297 C302 1.245 . S
C297 C303 1.428 . S
C298 C301 1.260 . S
C298 C302 1.477 . S
C298 H316 0.932 . S
C299 C300 1.384 . S
C299 C301 1.479 . S
C299 H317 0.929 . S
C300 C297 1.424 . S
C300 C299 1.384 . S
C300 H318 0.928 . S
C301 C298 1.260 . S
C301 C299 1.479 . S
C302 C297 1.245 . S
C302 C298 1.477 . S
C302 H319 0.932 . S
C303 U286 2.882 . S
C303 C297 1.428 . S
C303 O306 1.301 . S
C303 O307 1.282 . S
O304 U286 2.441 . S
O304 C290 1.249 . S
O305 U286 2.420 . S
O305 C290 1.202 . S
O306 U286 2.455 . S
O306 C303 1.301 . S
O307 U286 2.449 . S
O307 C303 1.282 . S
H308 C281 0.931 . S
H309 C283 0.929 . S
H310 C284 0.930 . S
H311 C285 0.931 . S
H312 C292 0.932 . S
H313 C293 0.930 . S
H314 C294 0.929 . S
H315 C296 0.930 . S
H316 C298 0.932 . S
H317 C299 0.929 . S
H318 C300 0.928 . S
H319 C302 0.932 . S
C320 C321 1.264 . S
C320 C325 1.479 . S
C320 C330 1.465 . S
C321 C320 1.264 . S
C321 C323 1.339 . S
C321 H348 0.931 . S
C322 C323 1.395 . S
C322 C324 1.320 . S
C323 C321 1.339 . S
C323 C322 1.395 . S
C323 H349 0.929 . S
C324 C322 1.320 . S
C324 C325 1.405 . S
C324 H350 0.930 . S
C325 C320 1.479 . S
C325 C324 1.405 . S
C325 H351 0.931 . S
U326 O327 2.454 . S
U326 O328 2.458 . S
U326 C329 2.984 . S
U326 C330 2.847 . S
U326 C343 2.882 . S
U326 O344 2.441 . S
U326 O345 2.420 . S
U326 O346 2.455 . S
U326 O347 2.449 . S
O327 U326 2.454 . S
O327 C329 1.353 . S
O328 U326 2.458 . S
O328 C329 1.286 . S
C329 U326 2.984 . S
C329 O327 1.353 . S
C329 O328 1.286 . S
C329 C331 1.363 . S
C330 C320 1.465 . S
C330 U326 2.847 . S
C330 O344 1.249 . S
C330 O345 1.202 . S
C331 C329 1.363 . S
C331 C333 1.408 . S
C331 C336 1.342 . S
C332 C333 1.310 . S
C332 C335 1.461 . S
C332 H352 0.932 . S
C333 C331 1.408 . S
C333 C332 1.310 . S
C333 H353 0.930 . S
C334 C335 1.474 . S
C334 C336 1.285 . S
C334 H354 0.929 . S
C335 C332 1.461 . S
C335 C334 1.474 . S
C336 C331 1.342 . S
C336 C334 1.285 . S
C336 H355 0.930 . S
C337 C340 1.424 . S
C337 C342 1.245 . S
C337 C343 1.428 . S
C338 C341 1.260 . S
C338 C342 1.477 . S
C338 H356 0.932 . S
C339 C340 1.384 . S
C339 C341 1.479 . S
C339 H357 0.929 . S
C340 C337 1.424 . S
C340 C339 1.384 . S
C340 H358 0.928 . S
C341 C338 1.260 . S
C341 C339 1.479 . S
C342 C337 1.245 . S
C342 C338 1.477 . S
C342 H359 0.932 . S
C343 U326 2.882 . S
C343 C337 1.428 . S
C343 O346 1.301 . S
C343 O347 1.282 . S
O344 U326 2.441 . S
O344 C330 1.249 . S
O345 U326 2.420 . S
O345 C330 1.202 . S
O346 U326 2.455 . S
O346 C343 1.301 . S
O347 U326 2.449 . S
O347 C343 1.282 . S
H348 C321 0.931 . S
H349 C323 0.929 . S
H350 C324 0.930 . S
H351 C325 0.931 . S
H352 C332 0.932 . S
H353 C333 0.930 . S
H354 C334 0.929 . S
H355 C336 0.930 . S
H356 C338 0.932 . S
H357 C339 0.929 . S
H358 C340 0.928 . S
H359 C342 0.932 . S
C360 C361 1.264 . S
C360 C365 1.479 . S
C360 C370 1.465 . S
C361 C360 1.264 . S
C361 C363 1.339 . S
C361 H388 0.931 . S
C362 C363 1.395 . S
C362 C364 1.320 . S
C363 C361 1.339 . S
C363 C362 1.395 . S
C363 H389 0.929 . S
C364 C362 1.320 . S
C364 C365 1.405 . S
C364 H390 0.930 . S
C365 C360 1.479 . S
C365 C364 1.405 . S
C365 H391 0.931 . S
U366 O367 2.454 . S
U366 O368 2.458 . S
U366 C369 2.984 . S
U366 C370 2.847 . S
U366 C383 2.882 . S
U366 O384 2.441 . S
U366 O385 2.420 . S
U366 O386 2.455 . S
U366 O387 2.449 . S
O367 U366 2.454 . S
O367 C369 1.353 . S
O368 U366 2.458 . S
O368 C369 1.286 . S
C369 U366 2.984 . S
C369 O367 1.353 . S
C369 O368 1.286 . S
C369 C371 1.363 . S
C370 C360 1.465 . S
C370 U366 2.847 . S
C370 O384 1.249 . S
C370 O385 1.202 . S
C371 C369 1.363 . S
C371 C373 1.408 . S
C371 C376 1.342 . S
C372 C373 1.310 . S
C372 C375 1.461 . S
C372 H392 0.932 . S
C373 C371 1.408 . S
C373 C372 1.310 . S
C373 H393 0.930 . S
C374 C375 1.474 . S
C374 C376 1.285 . S
C374 H394 0.929 . S
C375 C372 1.461 . S
C375 C374 1.474 . S
C376 C371 1.342 . S
C376 C374 1.285 . S
C376 H395 0.930 . S
C377 C380 1.424 . S
C377 C382 1.245 . S
C377 C383 1.428 . S
C378 C381 1.260 . S
C378 C382 1.477 . S
C378 H396 0.932 . S
C379 C380 1.384 . S
C379 C381 1.479 . S
C379 H397 0.929 . S
C380 C377 1.424 . S
C380 C379 1.384 . S
C380 H398 0.928 . S
C381 C378 1.260 . S
C381 C379 1.479 . S
C382 C377 1.245 . S
C382 C378 1.477 . S
C382 H399 0.932 . S
C383 U366 2.882 . S
C383 C377 1.428 . S
C383 O386 1.301 . S
C383 O387 1.282 . S
O384 U366 2.441 . S
O384 C370 1.249 . S
O385 U366 2.420 . S
O385 C370 1.202 . S
O386 U366 2.455 . S
O386 C383 1.301 . S
O387 U366 2.449 . S
O387 C383 1.282 . S
H388 C361 0.931 . S
H389 C363 0.929 . S
H390 C364 0.930 . S
H391 C365 0.931 . S
H392 C372 0.932 . S
H393 C373 0.930 . S
H394 C374 0.929 . S
H395 C376 0.930 . S
H396 C378 0.932 . S
H397 C379 0.929 . S
H398 C380 0.928 . S
H399 C382 0.932 . S
C400 C401 1.264 . S
C400 C405 1.479 . S
C400 C410 1.465 . S
C401 C400 1.264 . S
C401 C403 1.339 . S
C401 H428 0.931 . S
C402 C403 1.395 . S
C402 C404 1.320 . S
C403 C401 1.339 . S
C403 C402 1.395 . S
C403 H429 0.929 . S
C404 C402 1.320 . S
C404 C405 1.405 . S
C404 H430 0.930 . S
C405 C400 1.479 . S
C405 C404 1.405 . S
C405 H431 0.931 . S
U406 O407 2.454 . S
U406 O408 2.458 . S
U406 C409 2.984 . S
U406 C410 2.847 . S
U406 C423 2.882 . S
U406 O424 2.441 . S
U406 O425 2.420 . S
U406 O426 2.455 . S
U406 O427 2.449 . S
O407 U406 2.454 . S
O407 C409 1.353 . S
O408 U406 2.458 . S
O408 C409 1.286 . S
C409 U406 2.984 . S
C409 O407 1.353 . S
C409 O408 1.286 . S
C409 C411 1.363 . S
C410 C400 1.465 . S
C410 U406 2.847 . S
C410 O424 1.249 . S
C410 O425 1.202 . S
C411 C409 1.363 . S
C411 C413 1.408 . S
C411 C416 1.342 . S
C412 C413 1.310 . S
C412 C415 1.461 . S
C412 H432 0.932 . S
C413 C411 1.408 . S
C413 C412 1.310 . S
C413 H433 0.930 . S
C414 C415 1.474 . S
C414 C416 1.285 . S
C414 H434 0.929 . S
C415 C412 1.461 . S
C415 C414 1.474 . S
C416 C411 1.342 . S
C416 C414 1.285 . S
C416 H435 0.930 . S
C417 C420 1.424 . S
C417 C422 1.245 . S
C417 C423 1.428 . S
C418 C421 1.260 . S
C418 C422 1.477 . S
C418 H436 0.932 . S
C419 C420 1.384 . S
C419 C421 1.479 . S
C419 H437 0.929 . S
C420 C417 1.424 . S
C420 C419 1.384 . S
C420 H438 0.928 . S
C421 C418 1.260 . S
C421 C419 1.479 . S
C422 C417 1.245 . S
C422 C418 1.477 . S
C422 H439 0.932 . S
C423 U406 2.882 . S
C423 C417 1.428 . S
C423 O426 1.301 . S
C423 O427 1.282 . S
O424 U406 2.441 . S
O424 C410 1.249 . S
O425 U406 2.420 . S
O425 C410 1.202 . S
O426 U406 2.455 . S
O426 C423 1.301 . S
O427 U406 2.449 . S
O427 C423 1.282 . S
H428 C401 0.931 . S
H429 C403 0.929 . S
H430 C404 0.930 . S
H431 C405 0.931 . S
H432 C412 0.932 . S
H433 C413 0.930 . S
H434 C414 0.929 . S
H435 C416 0.930 . S
H436 C418 0.932 . S
H437 C419 0.929 . S
H438 C420 0.928 . S
H439 C422 0.932 . S
C440 C441 1.264 . S
C440 C445 1.479 . S
C440 C450 1.465 . S
C441 C440 1.264 . S
C441 C443 1.339 . S
C441 H468 0.931 . S
C442 C443 1.395 . S
C442 C444 1.320 . S
C443 C441 1.339 . S
C443 C442 1.395 . S
C443 H469 0.929 . S
C444 C442 1.320 . S
C444 C445 1.405 . S
C444 H470 0.930 . S
C445 C440 1.479 . S
C445 C444 1.405 . S
C445 H471 0.931 . S
U446 O447 2.454 . S
U446 O448 2.458 . S
U446 C449 2.984 . S
U446 C450 2.847 . S
U446 C463 2.882 . S
U446 O464 2.441 . S
U446 O465 2.420 . S
U446 O466 2.455 . S
U446 O467 2.449 . S
O447 U446 2.454 . S
O447 C449 1.353 . S
O448 U446 2.458 . S
O448 C449 1.286 . S
C449 U446 2.984 . S
C449 O447 1.353 . S
C449 O448 1.286 . S
C449 C451 1.363 . S
C450 C440 1.465 . S
C450 U446 2.847 . S
C450 O464 1.249 . S
C450 O465 1.202 . S
C451 C449 1.363 . S
C451 C453 1.408 . S
C451 C456 1.342 . S
C452 C453 1.310 . S
C452 C455 1.461 . S
C452 H472 0.932 . S
C453 C451 1.408 . S
C453 C452 1.310 . S
C453 H473 0.930 . S
C454 C455 1.474 . S
C454 C456 1.285 . S
C454 H474 0.929 . S
C455 C452 1.461 . S
C455 C454 1.474 . S
C456 C451 1.342 . S
C456 C454 1.285 . S
C456 H475 0.930 . S
C457 C460 1.424 . S
C457 C462 1.245 . S
C457 C463 1.428 . S
C458 C461 1.260 . S
C458 C462 1.477 . S
C458 H476 0.932 . S
C459 C460 1.384 . S
C459 C461 1.479 . S
C459 H477 0.929 . S
C460 C457 1.424 . S
C460 C459 1.384 . S
C460 H478 0.928 . S
C461 C458 1.260 . S
C461 C459 1.479 . S
C462 C457 1.245 . S
C462 C458 1.477 . S
C462 H479 0.932 . S
C463 U446 2.882 . S
C463 C457 1.428 . S
C463 O466 1.301 . S
C463 O467 1.282 . S
O464 U446 2.441 . S
O464 C450 1.249 . S
O465 U446 2.420 . S
O465 C450 1.202 . S
O466 U446 2.455 . S
O466 C463 1.301 . S
O467 U446 2.449 . S
O467 C463 1.282 . S
H468 C441 0.931 . S
H469 C443 0.929 . S
H470 C444 0.930 . S
H471 C445 0.931 . S
H472 C452 0.932 . S
H473 C453 0.930 . S
H474 C454 0.929 . S
H475 C456 0.930 . S
H476 C458 0.932 . S
H477 C459 0.929 . S
H478 C460 0.928 . S
H479 C462 0.932 . S
C480 C481 1.264 . S
C480 C485 1.479 . S
C480 C490 1.465 . S
C481 C480 1.264 . S
C481 C483 1.339 . S
C481 H508 0.931 . S
C482 C483 1.395 . S
C482 C484 1.320 . S
C483 C481 1.339 . S
C483 C482 1.395 . S
C483 H509 0.929 . S
C484 C482 1.320 . S
C484 C485 1.405 . S
C484 H510 0.930 . S
C485 C480 1.479 . S
C485 C484 1.405 . S
C485 H511 0.931 . S
U486 O487 2.454 . S
U486 O488 2.458 . S
U486 C489 2.984 . S
U486 C490 2.847 . S
U486 C503 2.882 . S
U486 O504 2.441 . S
U486 O505 2.420 . S
U486 O506 2.455 . S
U486 O507 2.449 . S
O487 U486 2.454 . S
O487 C489 1.353 . S
O488 U486 2.458 . S
O488 C489 1.286 . S
C489 U486 2.984 . S
C489 O487 1.353 . S
C489 O488 1.286 . S
C489 C491 1.363 . S
C490 C480 1.465 . S
C490 U486 2.847 . S
C490 O504 1.249 . S
C490 O505 1.202 . S
C491 C489 1.363 . S
C491 C493 1.408 . S
C491 C496 1.342 . S
C492 C493 1.310 . S
C492 C495 1.461 . S
C492 H512 0.932 . S
C493 C491 1.408 . S
C493 C492 1.310 . S
C493 H513 0.930 . S
C494 C495 1.474 . S
C494 C496 1.285 . S
C494 H514 0.929 . S
C495 C492 1.461 . S
C495 C494 1.474 . S
C496 C491 1.342 . S
C496 C494 1.285 . S
C496 H515 0.930 . S
C497 C500 1.424 . S
C497 C502 1.245 . S
C497 C503 1.428 . S
C498 C501 1.260 . S
C498 C502 1.477 . S
C498 H516 0.932 . S
C499 C500 1.384 . S
C499 C501 1.479 . S
C499 H517 0.929 . S
C500 C497 1.424 . S
C500 C499 1.384 . S
C500 H518 0.928 . S
C501 C498 1.260 . S
C501 C499 1.479 . S
C502 C497 1.245 . S
C502 C498 1.477 . S
C502 H519 0.932 . S
C503 U486 2.882 . S
C503 C497 1.428 . S
C503 O506 1.301 . S
C503 O507 1.282 . S
O504 U486 2.441 . S
O504 C490 1.249 . S
O505 U486 2.420 . S
O505 C490 1.202 . S
O506 U486 2.455 . S
O506 C503 1.301 . S
O507 U486 2.449 . S
O507 C503 1.282 . S
H508 C481 0.931 . S
H509 C483 0.929 . S
H510 C484 0.930 . S
H511 C485 0.931 . S
H512 C492 0.932 . S
H513 C493 0.930 . S
H514 C494 0.929 . S
H515 C496 0.930 . S
H516 C498 0.932 . S
H517 C499 0.929 . S
H518 C500 0.928 . S
H519 C502 0.932 . S
C520 C521 1.264 . S
C520 C525 1.479 . S
C520 C530 1.465 . S
C521 C520 1.264 . S
C521 C523 1.339 . S
C521 H548 0.931 . S
C522 C523 1.395 . S
C522 C524 1.320 . S
C523 C521 1.339 . S
C523 C522 1.395 . S
C523 H549 0.929 . S
C524 C522 1.320 . S
C524 C525 1.405 . S
C524 H550 0.930 . S
C525 C520 1.479 . S
C525 C524 1.405 . S
C525 H551 0.931 . S
U526 O527 2.454 . S
U526 O528 2.458 . S
U526 C529 2.984 . S
U526 C530 2.847 . S
U526 C543 2.882 . S
U526 O544 2.441 . S
U526 O545 2.420 . S
U526 O546 2.455 . S
U526 O547 2.449 . S
O527 U526 2.454 . S
O527 C529 1.353 . S
O528 U526 2.458 . S
O528 C529 1.286 . S
C529 U526 2.984 . S
C529 O527 1.353 . S
C529 O528 1.286 . S
C529 C531 1.363 . S
C530 C520 1.465 . S
C530 U526 2.847 . S
C530 O544 1.249 . S
C530 O545 1.202 . S
C531 C529 1.363 . S
C531 C533 1.408 . S
C531 C536 1.342 . S
C532 C533 1.310 . S
C532 C535 1.461 . S
C532 H552 0.932 . S
C533 C531 1.408 . S
C533 C532 1.310 . S
C533 H553 0.930 . S
C534 C535 1.474 . S
C534 C536 1.285 . S
C534 H554 0.929 . S
C535 C532 1.461 . S
C535 C534 1.474 . S
C536 C531 1.342 . S
C536 C534 1.285 . S
C536 H555 0.930 . S
C537 C540 1.424 . S
C537 C542 1.245 . S
C537 C543 1.428 . S
C538 C541 1.260 . S
C538 C542 1.477 . S
C538 H556 0.932 . S
C539 C540 1.384 . S
C539 C541 1.479 . S
C539 H557 0.929 . S
C540 C537 1.424 . S
C540 C539 1.384 . S
C540 H558 0.928 . S
C541 C538 1.260 . S
C541 C539 1.479 . S
C542 C537 1.245 . S
C542 C538 1.477 . S
C542 H559 0.932 . S
C543 U526 2.882 . S
C543 C537 1.428 . S
C543 O546 1.301 . S
C543 O547 1.282 . S
O544 U526 2.441 . S
O544 C530 1.249 . S
O545 U526 2.420 . S
O545 C530 1.202 . S
O546 U526 2.455 . S
O546 C543 1.301 . S
O547 U526 2.449 . S
O547 C543 1.282 . S
H548 C521 0.931 . S
H549 C523 0.929 . S
H550 C524 0.930 . S
H551 C525 0.931 . S
H552 C532 0.932 . S
H553 C533 0.930 . S
H554 C534 0.929 . S
H555 C536 0.930 . S
H556 C538 0.932 . S
H557 C539 0.929 . S
H558 C540 0.928 . S
H559 C542 0.932 . S
C560 C561 1.264 . S
C560 C565 1.479 . S
C560 C570 1.465 . S
C561 C560 1.264 . S
C561 C563 1.339 . S
C561 H588 0.931 . S
C562 C563 1.395 . S
C562 C564 1.320 . S
C563 C561 1.339 . S
C563 C562 1.395 . S
C563 H589 0.929 . S
C564 C562 1.320 . S
C564 C565 1.405 . S
C564 H590 0.930 . S
C565 C560 1.479 . S
C565 C564 1.405 . S
C565 H591 0.931 . S
U566 O567 2.454 . S
U566 O568 2.458 . S
U566 C569 2.984 . S
U566 C570 2.847 . S
U566 C583 2.882 . S
U566 O584 2.441 . S
U566 O585 2.420 . S
U566 O586 2.455 . S
U566 O587 2.449 . S
O567 U566 2.454 . S
O567 C569 1.353 . S
O568 U566 2.458 . S
O568 C569 1.286 . S
C569 U566 2.984 . S
C569 O567 1.353 . S
C569 O568 1.286 . S
C569 C571 1.363 . S
C570 C560 1.465 . S
C570 U566 2.847 . S
C570 O584 1.249 . S
C570 O585 1.202 . S
C571 C569 1.363 . S
C571 C573 1.408 . S
C571 C576 1.342 . S
C572 C573 1.310 . S
C572 C575 1.461 . S
C572 H592 0.932 . S
C573 C571 1.408 . S
C573 C572 1.310 . S
C573 H593 0.930 . S
C574 C575 1.474 . S
C574 C576 1.285 . S
C574 H594 0.929 . S
C575 C572 1.461 . S
C575 C574 1.474 . S
C576 C571 1.342 . S
C576 C574 1.285 . S
C576 H595 0.930 . S
C577 C580 1.424 . S
C577 C582 1.245 . S
C577 C583 1.428 . S
C578 C581 1.260 . S
C578 C582 1.477 . S
C578 H596 0.932 . S
C579 C580 1.384 . S
C579 C581 1.479 . S
C579 H597 0.929 . S
C580 C577 1.424 . S
C580 C579 1.384 . S
C580 H598 0.928 . S
C581 C578 1.260 . S
C581 C579 1.479 . S
C582 C577 1.245 . S
C582 C578 1.477 . S
C582 H599 0.932 . S
C583 U566 2.882 . S
C583 C577 1.428 . S
C583 O586 1.301 . S
C583 O587 1.282 . S
O584 U566 2.441 . S
O584 C570 1.249 . S
O585 U566 2.420 . S
O585 C570 1.202 . S
O586 U566 2.455 . S
O586 C583 1.301 . S
O587 U566 2.449 . S
O587 C583 1.282 . S
H588 C561 0.931 . S
H589 C563 0.929 . S
H590 C564 0.930 . S
H591 C565 0.931 . S
H592 C572 0.932 . S
H593 C573 0.930 . S
H594 C574 0.929 . S
H595 C576 0.930 . S
H596 C578 0.932 . S
H597 C579 0.929 . S
H598 C580 0.928 . S
H599 C582 0.932 . S
C600 C601 1.264 . S
C600 C605 1.479 . S
C600 C610 1.465 . S
C601 C600 1.264 . S
C601 C603 1.339 . S
C601 H628 0.931 . S
C602 C603 1.395 . S
C602 C604 1.320 . S
C603 C601 1.339 . S
C603 C602 1.395 . S
C603 H629 0.929 . S
C604 C602 1.320 . S
C604 C605 1.405 . S
C604 H630 0.930 . S
C605 C600 1.479 . S
C605 C604 1.405 . S
C605 H631 0.931 . S
U606 O607 2.454 . S
U606 O608 2.458 . S
U606 C609 2.984 . S
U606 C610 2.847 . S
U606 C623 2.882 . S
U606 O624 2.441 . S
U606 O625 2.420 . S
U606 O626 2.455 . S
U606 O627 2.449 . S
O607 U606 2.454 . S
O607 C609 1.353 . S
O608 U606 2.458 . S
O608 C609 1.286 . S
C609 U606 2.984 . S
C609 O607 1.353 . S
C609 O608 1.286 . S
C609 C611 1.363 . S
C610 C600 1.465 . S
C610 U606 2.847 . S
C610 O624 1.249 . S
C610 O625 1.202 . S
C611 C609 1.363 . S
C611 C613 1.408 . S
C611 C616 1.342 . S
C612 C613 1.310 . S
C612 C615 1.461 . S
C612 H632 0.932 . S
C613 C611 1.408 . S
C613 C612 1.310 . S
C613 H633 0.930 . S
C614 C615 1.474 . S
C614 C616 1.285 . S
C614 H634 0.929 . S
C615 C612 1.461 . S
C615 C614 1.474 . S
C616 C611 1.342 . S
C616 C614 1.285 . S
C616 H635 0.930 . S
C617 C620 1.424 . S
C617 C622 1.245 . S
C617 C623 1.428 . S
C618 C621 1.260 . S
C618 C622 1.477 . S
C618 H636 0.932 . S
C619 C620 1.384 . S
C619 C621 1.479 . S
C619 H637 0.929 . S
C620 C617 1.424 . S
C620 C619 1.384 . S
C620 H638 0.928 . S
C621 C618 1.260 . S
C621 C619 1.479 . S
C622 C617 1.245 . S
C622 C618 1.477 . S
C622 H639 0.932 . S
C623 U606 2.882 . S
C623 C617 1.428 . S
C623 O626 1.301 . S
C623 O627 1.282 . S
O624 U606 2.441 . S
O624 C610 1.249 . S
O625 U606 2.420 . S
O625 C610 1.202 . S
O626 U606 2.455 . S
O626 C623 1.301 . S
O627 U606 2.449 . S
O627 C623 1.282 . S
H628 C601 0.931 . S
H629 C603 0.929 . S
H630 C604 0.930 . S
H631 C605 0.931 . S
H632 C612 0.932 . S
H633 C613 0.930 . S
H634 C614 0.929 . S
H635 C616 0.930 . S
H636 C618 0.932 . S
H637 C619 0.929 . S
H638 C620 0.928 . S
H639 C622 0.932 . S
C640 C641 1.264 . S
C640 C645 1.479 . S
C640 C650 1.465 . S
C641 C640 1.264 . S
C641 C643 1.339 . S
C641 H668 0.931 . S
C642 C643 1.395 . S
C642 C644 1.320 . S
C643 C641 1.339 . S
C643 C642 1.395 . S
C643 H669 0.929 . S
C644 C642 1.320 . S
C644 C645 1.405 . S
C644 H670 0.930 . S
C645 C640 1.479 . S
C645 C644 1.405 . S
C645 H671 0.931 . S
U646 O647 2.454 . S
U646 O648 2.458 . S
U646 C649 2.984 . S
U646 C650 2.847 . S
U646 C663 2.882 . S
U646 O664 2.441 . S
U646 O665 2.420 . S
U646 O666 2.455 . S
U646 O667 2.449 . S
O647 U646 2.454 . S
O647 C649 1.353 . S
O648 U646 2.458 . S
O648 C649 1.286 . S
C649 U646 2.984 . S
C649 O647 1.353 . S
C649 O648 1.286 . S
C649 C651 1.363 . S
C650 C640 1.465 . S
C650 U646 2.847 . S
C650 O664 1.249 . S
C650 O665 1.202 . S
C651 C649 1.363 . S
C651 C653 1.408 . S
C651 C656 1.342 . S
C652 C653 1.310 . S
C652 C655 1.461 . S
C652 H672 0.932 . S
C653 C651 1.408 . S
C653 C652 1.310 . S
C653 H673 0.930 . S
C654 C655 1.474 . S
C654 C656 1.285 . S
C654 H674 0.929 . S
C655 C652 1.461 . S
C655 C654 1.474 . S
C656 C651 1.342 . S
C656 C654 1.285 . S
C656 H675 0.930 . S
C657 C660 1.424 . S
C657 C662 1.245 . S
C657 C663 1.428 . S
C658 C661 1.260 . S
C658 C662 1.477 . S
C658 H676 0.932 . S
C659 C660 1.384 . S
C659 C661 1.479 . S
C659 H677 0.929 . S
C660 C657 1.424 . S
C660 C659 1.384 . S
C660 H678 0.928 . S
C661 C658 1.260 . S
C661 C659 1.479 . S
C662 C657 1.245 . S
C662 C658 1.477 . S
C662 H679 0.932 . S
C663 U646 2.882 . S
C663 C657 1.428 . S
C663 O666 1.301 . S
C663 O667 1.282 . S
O664 U646 2.441 . S
O664 C650 1.249 . S
O665 U646 2.420 . S
O665 C650 1.202 . S
O666 U646 2.455 . S
O666 C663 1.301 . S
O667 U646 2.449 . S
O667 C663 1.282 . S
H668 C641 0.931 . S
H669 C643 0.929 . S
H670 C644 0.930 . S
H671 C645 0.931 . S
H672 C652 0.932 . S
H673 C653 0.930 . S
H674 C654 0.929 . S
H675 C656 0.930 . S
H676 C658 0.932 . S
H677 C659 0.929 . S
H678 C660 0.928 . S
H679 C662 0.932 . S
C680 C681 1.264 . S
C680 C685 1.479 . S
C680 C690 1.465 . S
C681 C680 1.264 . S
C681 C683 1.339 . S
C681 H708 0.931 . S
C682 C683 1.395 . S
C682 C684 1.320 . S
C683 C681 1.339 . S
C683 C682 1.395 . S
C683 H709 0.929 . S
C684 C682 1.320 . S
C684 C685 1.405 . S
C684 H710 0.930 . S
C685 C680 1.479 . S
C685 C684 1.405 . S
C685 H711 0.931 . S
U686 O687 2.454 . S
U686 O688 2.458 . S
U686 C689 2.984 . S
U686 C690 2.847 . S
U686 C703 2.882 . S
U686 O704 2.441 . S
U686 O705 2.420 . S
U686 O706 2.455 . S
U686 O707 2.449 . S
O687 U686 2.454 . S
O687 C689 1.353 . S
O688 U686 2.458 . S
O688 C689 1.286 . S
C689 U686 2.984 . S
C689 O687 1.353 . S
C689 O688 1.286 . S
C689 C691 1.363 . S
C690 C680 1.465 . S
C690 U686 2.847 . S
C690 O704 1.249 . S
C690 O705 1.202 . S
C691 C689 1.363 . S
C691 C693 1.408 . S
C691 C696 1.342 . S
C692 C693 1.310 . S
C692 C695 1.461 . S
C692 H712 0.932 . S
C693 C691 1.408 . S
C693 C692 1.310 . S
C693 H713 0.930 . S
C694 C695 1.474 . S
C694 C696 1.285 . S
C694 H714 0.929 . S
C695 C692 1.461 . S
C695 C694 1.474 . S
C696 C691 1.342 . S
C696 C694 1.285 . S
C696 H715 0.930 . S
C697 C700 1.424 . S
C697 C702 1.245 . S
C697 C703 1.428 . S
C698 C701 1.260 . S
C698 C702 1.477 . S
C698 H716 0.932 . S
C699 C700 1.384 . S
C699 C701 1.479 . S
C699 H717 0.929 . S
C700 C697 1.424 . S
C700 C699 1.384 . S
C700 H718 0.928 . S
C701 C698 1.260 . S
C701 C699 1.479 . S
C702 C697 1.245 . S
C702 C698 1.477 . S
C702 H719 0.932 . S
C703 U686 2.882 . S
C703 C697 1.428 . S
C703 O706 1.301 . S
C703 O707 1.282 . S
O704 U686 2.441 . S
O704 C690 1.249 . S
O705 U686 2.420 . S
O705 C690 1.202 . S
O706 U686 2.455 . S
O706 C703 1.301 . S
O707 U686 2.449 . S
O707 C703 1.282 . S
H708 C681 0.931 . S
H709 C683 0.929 . S
H710 C684 0.930 . S
H711 C685 0.931 . S
H712 C692 0.932 . S
H713 C693 0.930 . S
H714 C694 0.929 . S
H715 C696 0.930 . S
H716 C698 0.932 . S
H717 C699 0.929 . S
H718 C700 0.928 . S
H719 C702 0.932 . S
C720 C721 1.264 . S
C720 C725 1.479 . S
C720 C730 1.465 . S
C721 C720 1.264 . S
C721 C723 1.339 . S
C721 H748 0.931 . S
C722 C723 1.395 . S
C722 C724 1.320 . S
C723 C721 1.339 . S
C723 C722 1.395 . S
C723 H749 0.929 . S
C724 C722 1.320 . S
C724 C725 1.405 . S
C724 H750 0.930 . S
C725 C720 1.479 . S
C725 C724 1.405 . S
C725 H751 0.931 . S
U726 O727 2.454 . S
U726 O728 2.458 . S
U726 C729 2.984 . S
U726 C730 2.847 . S
U726 C743 2.882 . S
U726 O744 2.441 . S
U726 O745 2.420 . S
U726 O746 2.455 . S
U726 O747 2.449 . S
O727 U726 2.454 . S
O727 C729 1.353 . S
O728 U726 2.458 . S
O728 C729 1.286 . S
C729 U726 2.984 . S
C729 O727 1.353 . S
C729 O728 1.286 . S
C729 C731 1.363 . S
C730 C720 1.465 . S
C730 U726 2.847 . S
C730 O744 1.249 . S
C730 O745 1.202 . S
C731 C729 1.363 . S
C731 C733 1.408 . S
C731 C736 1.342 . S
C732 C733 1.310 . S
C732 C735 1.461 . S
C732 H752 0.932 . S
C733 C731 1.408 . S
C733 C732 1.310 . S
C733 H753 0.930 . S
C734 C735 1.474 . S
C734 C736 1.285 . S
C734 H754 0.929 . S
C735 C732 1.461 . S
C735 C734 1.474 . S
C736 C731 1.342 . S
C736 C734 1.285 . S
C736 H755 0.930 . S
C737 C740 1.424 . S
C737 C742 1.245 . S
C737 C743 1.428 . S
C738 C741 1.260 . S
C738 C742 1.477 . S
C738 H756 0.932 . S
C739 C740 1.384 . S
C739 C741 1.479 . S
C739 H757 0.929 . S
C740 C737 1.424 . S
C740 C739 1.384 . S
C740 H758 0.928 . S
C741 C738 1.260 . S
C741 C739 1.479 . S
C742 C737 1.245 . S
C742 C738 1.477 . S
C742 H759 0.932 . S
C743 U726 2.882 . S
C743 C737 1.428 . S
C743 O746 1.301 . S
C743 O747 1.282 . S
O744 U726 2.441 . S
O744 C730 1.249 . S
O745 U726 2.420 . S
O745 C730 1.202 . S
O746 U726 2.455 . S
O746 C743 1.301 . S
O747 U726 2.449 . S
O747 C743 1.282 . S
H748 C721 0.931 . S
H749 C723 0.929 . S
H750 C724 0.930 . S
H751 C725 0.931 . S
H752 C732 0.932 . S
H753 C733 0.930 . S
H754 C734 0.929 . S
H755 C736 0.930 . S
H756 C738 0.932 . S
H757 C739 0.929 . S
H758 C740 0.928 . S
H759 C742 0.932 . S
C760 C761 1.264 . S
C760 C765 1.479 . S
C760 C770 1.465 . S
C761 C760 1.264 . S
C761 C763 1.339 . S
C761 H788 0.931 . S
C762 C763 1.395 . S
C762 C764 1.320 . S
C763 C761 1.339 . S
C763 C762 1.395 . S
C763 H789 0.929 . S
C764 C762 1.320 . S
C764 C765 1.405 . S
C764 H790 0.930 . S
C765 C760 1.479 . S
C765 C764 1.405 . S
C765 H791 0.931 . S
U766 O767 2.454 . S
U766 O768 2.458 . S
U766 C769 2.984 . S
U766 C770 2.847 . S
U766 C783 2.882 . S
U766 O784 2.441 . S
U766 O785 2.420 . S
U766 O786 2.455 . S
U766 O787 2.449 . S
O767 U766 2.454 . S
O767 C769 1.353 . S
O768 U766 2.458 . S
O768 C769 1.286 . S
C769 U766 2.984 . S
C769 O767 1.353 . S
C769 O768 1.286 . S
C769 C771 1.363 . S
C770 C760 1.465 . S
C770 U766 2.847 . S
C770 O784 1.249 . S
C770 O785 1.202 . S
C771 C769 1.363 . S
C771 C773 1.408 . S
C771 C776 1.342 . S
C772 C773 1.310 . S
C772 C775 1.461 . S
C772 H792 0.932 . S
C773 C771 1.408 . S
C773 C772 1.310 . S
C773 H793 0.930 . S
C774 C775 1.474 . S
C774 C776 1.285 . S
C774 H794 0.929 . S
C775 C772 1.461 . S
C775 C774 1.474 . S
C776 C771 1.342 . S
C776 C774 1.285 . S
C776 H795 0.930 . S
C777 C780 1.424 . S
C777 C782 1.245 . S
C777 C783 1.428 . S
C778 C781 1.260 . S
C778 C782 1.477 . S
C778 H796 0.932 . S
C779 C780 1.384 . S
C779 C781 1.479 . S
C779 H797 0.929 . S
C780 C777 1.424 . S
C780 C779 1.384 . S
C780 H798 0.928 . S
C781 C778 1.260 . S
C781 C779 1.479 . S
C782 C777 1.245 . S
C782 C778 1.477 . S
C782 H799 0.932 . S
C783 U766 2.882 . S
C783 C777 1.428 . S
C783 O786 1.301 . S
C783 O787 1.282 . S
O784 U766 2.441 . S
O784 C770 1.249 . S
O785 U766 2.420 . S
O785 C770 1.202 . S
O786 U766 2.455 . S
O786 C783 1.301 . S
O787 U766 2.449 . S
O787 C783 1.282 . S
H788 C761 0.931 . S
H789 C763 0.929 . S
H790 C764 0.930 . S
H791 C765 0.931 . S
H792 C772 0.932 . S
H793 C773 0.930 . S
H794 C774 0.929 . S
H795 C776 0.930 . S
H796 C778 0.932 . S
H797 C779 0.929 . S
H798 C780 0.928 . S
H799 C782 0.932 . S
C800 C801 1.264 . S
C800 C805 1.479 . S
C800 C810 1.465 . S
C801 C800 1.264 . S
C801 C803 1.339 . S
C801 H828 0.931 . S
C802 C803 1.395 . S
C802 C804 1.320 . S
C803 C801 1.339 . S
C803 C802 1.395 . S
C803 H829 0.929 . S
C804 C802 1.320 . S
C804 C805 1.405 . S
C804 H830 0.930 . S
C805 C800 1.479 . S
C805 C804 1.405 . S
C805 H831 0.931 . S
U806 O807 2.454 . S
U806 O808 2.458 . S
U806 C809 2.984 . S
U806 C810 2.847 . S
U806 C823 2.882 . S
U806 O824 2.441 . S
U806 O825 2.420 . S
U806 O826 2.455 . S
U806 O827 2.449 . S
O807 U806 2.454 . S
O807 C809 1.353 . S
O808 U806 2.458 . S
O808 C809 1.286 . S
C809 U806 2.984 . S
C809 O807 1.353 . S
C809 O808 1.286 . S
C809 C811 1.363 . S
C810 C800 1.465 . S
C810 U806 2.847 . S
C810 O824 1.249 . S
C810 O825 1.202 . S
C811 C809 1.363 . S
C811 C813 1.408 . S
C811 C816 1.342 . S
C812 C813 1.310 . S
C812 C815 1.461 . S
C812 H832 0.932 . S
C813 C811 1.408 . S
C813 C812 1.310 . S
C813 H833 0.930 . S
C814 C815 1.474 . S
C814 C816 1.285 . S
C814 H834 0.929 . S
C815 C812 1.461 . S
C815 C814 1.474 . S
C816 C811 1.342 . S
C816 C814 1.285 . S
C816 H835 0.930 . S
C817 C820 1.424 . S
C817 C822 1.245 . S
C817 C823 1.428 . S
C818 C821 1.260 . S
C818 C822 1.477 . S
C818 H836 0.932 . S
C819 C820 1.384 . S
C819 C821 1.479 . S
C819 H837 0.929 . S
C820 C817 1.424 . S
C820 C819 1.384 . S
C820 H838 0.928 . S
C821 C818 1.260 . S
C821 C819 1.479 . S
C822 C817 1.245 . S
C822 C818 1.477 . S
C822 H839 0.932 . S
C823 U806 2.882 . S
C823 C817 1.428 . S
C823 O826 1.301 . S
C823 O827 1.282 . S
O824 U806 2.441 . S
O824 C810 1.249 . S
O825 U806 2.420 . S
O825 C810 1.202 . S
O826 U806 2.455 . S
O826 C823 1.301 . S
O827 U806 2.449 . S
O827 C823 1.282 . S
H828 C801 0.931 . S
H829 C803 0.929 . S
H830 C804 0.930 . S
H831 C805 0.931 . S
H832 C812 0.932 . S
H833 C813 0.930 . S
H834 C814 0.929 . S
H835 C816 0.930 . S
H836 C818 0.932 . S
H837 C819 0.929 . S
H838 C820 0.928 . S
H839 C822 0.932 . S
C840 C841 1.264 . S
C840 C845 1.479 . S
C840 C850 1.465 . S
C841 C840 1.264 . S
C841 C843 1.339 . S
C841 H868 0.931 . S
C842 C843 1.395 . S
C842 C844 1.320 . S
C843 C841 1.339 . S
C843 C842 1.395 . S
C843 H869 0.929 . S
C844 C842 1.320 . S
C844 C845 1.405 . S
C844 H870 0.930 . S
C845 C840 1.479 . S
C845 C844 1.405 . S
C845 H871 0.931 . S
U846 O847 2.454 . S
U846 O848 2.458 . S
U846 C849 2.984 . S
U846 C850 2.847 . S
U846 C863 2.882 . S
U846 O864 2.441 . S
U846 O865 2.420 . S
U846 O866 2.455 . S
U846 O867 2.449 . S
O847 U846 2.454 . S
O847 C849 1.353 . S
O848 U846 2.458 . S
O848 C849 1.286 . S
C849 U846 2.984 . S
C849 O847 1.353 . S
C849 O848 1.286 . S
C849 C851 1.363 . S
C850 C840 1.465 . S
C850 U846 2.847 . S
C850 O864 1.249 . S
C850 O865 1.202 . S
C851 C849 1.363 . S
C851 C853 1.408 . S
C851 C856 1.342 . S
C852 C853 1.310 . S
C852 C855 1.461 . S
C852 H872 0.932 . S
C853 C851 1.408 . S
C853 C852 1.310 . S
C853 H873 0.930 . S
C854 C855 1.474 . S
C854 C856 1.285 . S
C854 H874 0.929 . S
C855 C852 1.461 . S
C855 C854 1.474 . S
C856 C851 1.342 . S
C856 C854 1.285 . S
C856 H875 0.930 . S
C857 C860 1.424 . S
C857 C862 1.245 . S
C857 C863 1.428 . S
C858 C861 1.260 . S
C858 C862 1.477 . S
C858 H876 0.932 . S
C859 C860 1.384 . S
C859 C861 1.479 . S
C859 H877 0.929 . S
C860 C857 1.424 . S
C860 C859 1.384 . S
C860 H878 0.928 . S
C861 C858 1.260 . S
C861 C859 1.479 . S
C862 C857 1.245 . S
C862 C858 1.477 . S
C862 H879 0.932 . S
C863 U846 2.882 . S
C863 C857 1.428 . S
C863 O866 1.301 . S
C863 O867 1.282 . S
O864 U846 2.441 . S
O864 C850 1.249 . S
O865 U846 2.420 . S
O865 C850 1.202 . S
O866 U846 2.455 . S
O866 C863 1.301 . S
O867 U846 2.449 . S
O867 C863 1.282 . S
H868 C841 0.931 . S
H869 C843 0.929 . S
H870 C844 0.930 . S
H871 C845 0.931 . S
H872 C852 0.932 . S
H873 C853 0.930 . S
H874 C854 0.929 . S
H875 C856 0.930 . S
H876 C858 0.932 . S
H877 C859 0.929 . S
H878 C860 0.928 . S
H879 C862 0.932 . S
C880 C881 1.264 . S
C880 C885 1.479 . S
C880 C890 1.465 . S
C881 C880 1.264 . S
C881 C883 1.339 . S
C881 H908 0.931 . S
C882 C883 1.395 . S
C882 C884 1.320 . S
C883 C881 1.339 . S
C883 C882 1.395 . S
C883 H909 0.929 . S
C884 C882 1.320 . S
C884 C885 1.405 . S
C884 H910 0.930 . S
C885 C880 1.479 . S
C885 C884 1.405 . S
C885 H911 0.931 . S
U886 O887 2.454 . S
U886 O888 2.458 . S
U886 C889 2.984 . S
U886 C890 2.847 . S
U886 C903 2.882 . S
U886 O904 2.441 . S
U886 O905 2.420 . S
U886 O906 2.455 . S
U886 O907 2.449 . S
O887 U886 2.454 . S
O887 C889 1.353 . S
O888 U886 2.458 . S
O888 C889 1.286 . S
C889 U886 2.984 . S
C889 O887 1.353 . S
C889 O888 1.286 . S
C889 C891 1.363 . S
C890 C880 1.465 . S
C890 U886 2.847 . S
C890 O904 1.249 . S
C890 O905 1.202 . S
C891 C889 1.363 . S
C891 C893 1.408 . S
C891 C896 1.342 . S
C892 C893 1.310 . S
C892 C895 1.461 . S
C892 H912 0.932 . S
C893 C891 1.408 . S
C893 C892 1.310 . S
C893 H913 0.930 . S
C894 C895 1.474 . S
C894 C896 1.285 . S
C894 H914 0.929 . S
C895 C892 1.461 . S
C895 C894 1.474 . S
C896 C891 1.342 . S
C896 C894 1.285 . S
C896 H915 0.930 . S
C897 C900 1.424 . S
C897 C902 1.245 . S
C897 C903 1.428 . S
C898 C901 1.260 . S
C898 C902 1.477 . S
C898 H916 0.932 . S
C899 C900 1.384 . S
C899 C901 1.479 . S
C899 H917 0.929 . S
C900 C897 1.424 . S
C900 C899 1.384 . S
C900 H918 0.928 . S
C901 C898 1.260 . S
C901 C899 1.479 . S
C902 C897 1.245 . S
C902 C898 1.477 . S
C902 H919 0.932 . S
C903 U886 2.882 . S
C903 C897 1.428 . S
C903 O906 1.301 . S
C903 O907 1.282 . S
O904 U886 2.441 . S
O904 C890 1.249 . S
O905 U886 2.420 . S
O905 C890 1.202 . S
O906 U886 2.455 . S
O906 C903 1.301 . S
O907 U886 2.449 . S
O907 C903 1.282 . S
H908 C881 0.931 . S
H909 C883 0.929 . S
H910 C884 0.930 . S
H911 C885 0.931 . S
H912 C892 0.932 . S
H913 C893 0.930 . S
H914 C894 0.929 . S
H915 C896 0.930 . S
H916 C898 0.932 . S
H917 C899 0.929 . S
H918 C900 0.928 . S
H919 C902 0.932 . S
C920 C921 1.264 . S
C920 C925 1.479 . S
C920 C930 1.465 . S
C921 C920 1.264 . S
C921 C923 1.339 . S
C921 H948 0.931 . S
C922 C923 1.395 . S
C922 C924 1.320 . S
C923 C921 1.339 . S
C923 C922 1.395 . S
C923 H949 0.929 . S
C924 C922 1.320 . S
C924 C925 1.405 . S
C924 H950 0.930 . S
C925 C920 1.479 . S
C925 C924 1.405 . S
C925 H951 0.931 . S
U926 O927 2.454 . S
U926 O928 2.458 . S
U926 C929 2.984 . S
U926 C930 2.847 . S
U926 C943 2.882 . S
U926 O944 2.441 . S
U926 O945 2.420 . S
U926 O946 2.455 . S
U926 O947 2.449 . S
O927 U926 2.454 . S
O927 C929 1.353 . S
O928 U926 2.458 . S
O928 C929 1.286 . S
C929 U926 2.984 . S
C929 O927 1.353 . S
C929 O928 1.286 . S
C929 C931 1.363 . S
C930 C920 1.465 . S
C930 U926 2.847 . S
C930 O944 1.249 . S
C930 O945 1.202 . S
C931 C929 1.363 . S
C931 C933 1.408 . S
C931 C936 1.342 . S
C932 C933 1.310 . S
C932 C935 1.461 . S
C932 H952 0.932 . S
C933 C931 1.408 . S
C933 C932 1.310 . S
C933 H953 0.930 . S
C934 C935 1.474 . S
C934 C936 1.285 . S
C934 H954 0.929 . S
C935 C932 1.461 . S
C935 C934 1.474 . S
C936 C931 1.342 . S
C936 C934 1.285 . S
C936 H955 0.930 . S
C937 C940 1.424 . S
C937 C942 1.245 . S
C937 C943 1.428 . S
C938 C941 1.260 . S
C938 C942 1.477 . S
C938 H956 0.932 . S
C939 C940 1.384 . S
C939 C941 1.479 . S
C939 H957 0.929 . S
C940 C937 1.424 . S
C940 C939 1.384 . S
C940 H958 0.928 . S
C941 C938 1.260 . S
C941 C939 1.479 . S
C942 C937 1.245 . S
C942 C938 1.477 . S
C942 H959 0.932 . S
C943 U926 2.882 . S
C943 C937 1.428 . S
C943 O946 1.301 . S
C943 O947 1.282 . S
O944 U926 2.441 . S
O944 C930 1.249 . S
O945 U926 2.420 . S
O945 C930 1.202 . S
O946 U926 2.455 . S
O946 C943 1.301 . S
O947 U926 2.449 . S
O947 C943 1.282 . S
H948 C921 0.931 . S
H949 C923 0.929 . S
H950 C924 0.930 . S
H951 C925 0.931 . S
H952 C932 0.932 . S
H953 C933 0.930 . S
H954 C934 0.929 . S
H955 C936 0.930 . S
H956 C938 0.932 . S
H957 C939 0.929 . S
H958 C940 0.928 . S
H959 C942 0.932 . S
C960 C961 1.264 . S
C960 C965 1.479 . S
C960 C970 1.465 . S
C961 C960 1.264 . S
C961 C963 1.339 . S
C961 H988 0.931 . S
C962 C963 1.395 . S
C962 C964 1.320 . S
C963 C961 1.339 . S
C963 C962 1.395 . S
C963 H989 0.929 . S
C964 C962 1.320 . S
C964 C965 1.405 . S
C964 H990 0.930 . S
C965 C960 1.479 . S
C965 C964 1.405 . S
C965 H991 0.931 . S
U966 O967 2.454 . S
U966 O968 2.458 . S
U966 C969 2.984 . S
U966 C970 2.847 . S
U966 C983 2.882 . S
U966 O984 2.441 . S
U966 O985 2.420 . S
U966 O986 2.455 . S
U966 O987 2.449 . S
O967 U966 2.454 . S
O967 C969 1.353 . S
O968 U966 2.458 . S
O968 C969 1.286 . S
C969 U966 2.984 . S
C969 O967 1.353 . S
C969 O968 1.286 . S
C969 C971 1.363 . S
C970 C960 1.465 . S
C970 U966 2.847 . S
C970 O984 1.249 . S
C970 O985 1.202 . S
C971 C969 1.363 . S
C971 C973 1.408 . S
C971 C976 1.342 . S
C972 C973 1.310 . S
C972 C975 1.461 . S
C972 H992 0.932 . S
C973 C971 1.408 . S
C973 C972 1.310 . S
C973 H993 0.930 . S
C974 C975 1.474 . S
C974 C976 1.285 . S
C974 H994 0.929 . S
C975 C972 1.461 . S
C975 C974 1.474 . S
C976 C971 1.342 . S
C976 C974 1.285 . S
C976 H995 0.930 . S
C977 C980 1.424 . S
C977 C982 1.245 . S
C977 C983 1.428 . S
C978 C981 1.260 . S
C978 C982 1.477 . S
C978 H996 0.932 . S
C979 C980 1.384 . S
C979 C981 1.479 . S
C979 H997 0.929 . S
C980 C977 1.424 . S
C980 C979 1.384 . S
C980 H998 0.928 . S
C981 C978 1.260 . S
C981 C979 1.479 . S
C982 C977 1.245 . S
C982 C978 1.477 . S
C982 H999 0.932 . S
C983 U966 2.882 . S
C983 C977 1.428 . S
C983 O986 1.301 . S
C983 O987 1.282 . S
O984 U966 2.441 . S
O984 C970 1.249 . S
O985 U966 2.420 . S
O985 C970 1.202 . S
O986 U966 2.455 . S
O986 C983 1.301 . S
O987 U966 2.449 . S
O987 C983 1.282 . S
H988 C961 0.931 . S
H989 C963 0.929 . S
H990 C964 0.930 . S
H991 C965 0.931 . S
H992 C972 0.932 . S
H993 C973 0.930 . S
H994 C974 0.929 . S
H995 C976 0.930 . S
H996 C978 0.932 . S
H997 C979 0.929 . S
H998 C980 0.928 . S
H999 C982 0.932 . S
C1000 C1001 1.264 . S
C1000 C1005 1.479 . S
C1000 C1010 1.465 . S
C1001 C1000 1.264 . S
C1001 C1003 1.339 . S
C1001 H1028 0.931 . S
C1002 C1003 1.395 . S
C1002 C1004 1.320 . S
C1003 C1001 1.339 . S
C1003 C1002 1.395 . S
C1003 H1029 0.929 . S
C1004 C1002 1.320 . S
C1004 C1005 1.405 . S
C1004 H1030 0.930 . S
C1005 C1000 1.479 . S
C1005 C1004 1.405 . S
C1005 H1031 0.931 . S
U1006 O1007 2.454 . S
U1006 O1008 2.458 . S
U1006 C1009 2.984 . S
U1006 C1010 2.847 . S
U1006 C1023 2.882 . S
U1006 O1024 2.441 . S
U1006 O1025 2.420 . S
U1006 O1026 2.455 . S
U1006 O1027 2.449 . S
O1007 U1006 2.454 . S
O1007 C1009 1.353 . S
O1008 U1006 2.458 . S
O1008 C1009 1.286 . S
C1009 U1006 2.984 . S
C1009 O1007 1.353 . S
C1009 O1008 1.286 . S
C1009 C1011 1.363 . S
C1010 C1000 1.465 . S
C1010 U1006 2.847 . S
C1010 O1024 1.249 . S
C1010 O1025 1.202 . S
C1011 C1009 1.363 . S
C1011 C1013 1.408 . S
C1011 C1016 1.342 . S
C1012 C1013 1.310 . S
C1012 C1015 1.461 . S
C1012 H1032 0.932 . S
C1013 C1011 1.408 . S
C1013 C1012 1.310 . S
C1013 H1033 0.930 . S
C1014 C1015 1.474 . S
C1014 C1016 1.285 . S
C1014 H1034 0.929 . S
C1015 C1012 1.461 . S
C1015 C1014 1.474 . S
C1016 C1011 1.342 . S
C1016 C1014 1.285 . S
C1016 H1035 0.930 . S
C1017 C1020 1.424 . S
C1017 C1022 1.245 . S
C1017 C1023 1.428 . S
C1018 C1021 1.260 . S
C1018 C1022 1.477 . S
C1018 H1036 0.932 . S
C1019 C1020 1.384 . S
C1019 C1021 1.479 . S
C1019 H1037 0.929 . S
C1020 C1017 1.424 . S
C1020 C1019 1.384 . S
C1020 H1038 0.928 . S
C1021 C1018 1.260 . S
C1021 C1019 1.479 . S
C1022 C1017 1.245 . S
C1022 C1018 1.477 . S
C1022 H1039 0.932 . S
C1023 U1006 2.882 . S
C1023 C1017 1.428 . S
C1023 O1026 1.301 . S
C1023 O1027 1.282 . S
O1024 U1006 2.441 . S
O1024 C1010 1.249 . S
O1025 U1006 2.420 . S
O1025 C1010 1.202 . S
O1026 U1006 2.455 . S
O1026 C1023 1.301 . S
O1027 U1006 2.449 . S
O1027 C1023 1.282 . S
H1028 C1001 0.931 . S
H1029 C1003 0.929 . S
H1030 C1004 0.930 . S
H1031 C1005 0.931 . S
H1032 C1012 0.932 . S
H1033 C1013 0.930 . S
H1034 C1014 0.929 . S
H1035 C1016 0.930 . S
H1036 C1018 0.932 . S
H1037 C1019 0.929 . S
H1038 C1020 0.928 . S
H1039 C1022 0.932 . S
C1040 C1041 1.264 . S
C1040 C1045 1.479 . S
C1040 C1050 1.465 . S
C1041 C1040 1.264 . S
C1041 C1043 1.339 . S
C1041 H1068 0.931 . S
C1042 C1043 1.395 . S
C1042 C1044 1.320 . S
C1043 C1041 1.339 . S
C1043 C1042 1.395 . S
C1043 H1069 0.929 . S
C1044 C1042 1.320 . S
C1044 C1045 1.405 . S
C1044 H1070 0.930 . S
C1045 C1040 1.479 . S
C1045 C1044 1.405 . S
C1045 H1071 0.931 . S
U1046 O1047 2.454 . S
U1046 O1048 2.458 . S
U1046 C1049 2.984 . S
U1046 C1050 2.847 . S
U1046 C1063 2.882 . S
U1046 O1064 2.441 . S
U1046 O1065 2.420 . S
U1046 O1066 2.455 . S
U1046 O1067 2.449 . S
O1047 U1046 2.454 . S
O1047 C1049 1.353 . S
O1048 U1046 2.458 . S
O1048 C1049 1.286 . S
C1049 U1046 2.984 . S
C1049 O1047 1.353 . S
C1049 O1048 1.286 . S
C1049 C1051 1.363 . S
C1050 C1040 1.465 . S
C1050 U1046 2.847 . S
C1050 O1064 1.249 . S
C1050 O1065 1.202 . S
C1051 C1049 1.363 . S
C1051 C1053 1.408 . S
C1051 C1056 1.342 . S
C1052 C1053 1.310 . S
C1052 C1055 1.461 . S
C1052 H1072 0.932 . S
C1053 C1051 1.408 . S
C1053 C1052 1.310 . S
C1053 H1073 0.930 . S
C1054 C1055 1.474 . S
C1054 C1056 1.285 . S
C1054 H1074 0.929 . S
C1055 C1052 1.461 . S
C1055 C1054 1.474 . S
C1056 C1051 1.342 . S
C1056 C1054 1.285 . S
C1056 H1075 0.930 . S
C1057 C1060 1.424 . S
C1057 C1062 1.245 . S
C1057 C1063 1.428 . S
C1058 C1061 1.260 . S
C1058 C1062 1.477 . S
C1058 H1076 0.932 . S
C1059 C1060 1.384 . S
C1059 C1061 1.479 . S
C1059 H1077 0.929 . S
C1060 C1057 1.424 . S
C1060 C1059 1.384 . S
C1060 H1078 0.928 . S
C1061 C1058 1.260 . S
C1061 C1059 1.479 . S
C1062 C1057 1.245 . S
C1062 C1058 1.477 . S
C1062 H1079 0.932 . S
C1063 U1046 2.882 . S
C1063 C1057 1.428 . S
C1063 O1066 1.301 . S
C1063 O1067 1.282 . S
O1064 U1046 2.441 . S
O1064 C1050 1.249 . S
O1065 U1046 2.420 . S
O1065 C1050 1.202 . S
O1066 U1046 2.455 . S
O1066 C1063 1.301 . S
O1067 U1046 2.449 . S
O1067 C1063 1.282 . S
H1068 C1041 0.931 . S
H1069 C1043 0.929 . S
H1070 C1044 0.930 . S
H1071 C1045 0.931 . S
H1072 C1052 0.932 . S
H1073 C1053 0.930 . S
H1074 C1054 0.929 . S
H1075 C1056 0.930 . S
H1076 C1058 0.932 . S
H1077 C1059 0.929 . S
H1078 C1060 0.928 . S
H1079 C1062 0.932 . S
C1080 C1081 1.264 . S
C1080 C1085 1.479 . S
C1080 C1090 1.465 . S
C1081 C1080 1.264 . S
C1081 C1083 1.339 . S
C1081 H1108 0.931 . S
C1082 C1083 1.395 . S
C1082 C1084 1.320 . S
C1083 C1081 1.339 . S
C1083 C1082 1.395 . S
C1083 H1109 0.929 . S
C1084 C1082 1.320 . S
C1084 C1085 1.405 . S
C1084 H1110 0.930 . S
C1085 C1080 1.479 . S
C1085 C1084 1.405 . S
C1085 H1111 0.931 . S
U1086 O1087 2.454 . S
U1086 O1088 2.458 . S
U1086 C1089 2.984 . S
U1086 C1090 2.847 . S
U1086 C1103 2.882 . S
U1086 O1104 2.441 . S
U1086 O1105 2.420 . S
U1086 O1106 2.455 . S
U1086 O1107 2.449 . S
O1087 U1086 2.454 . S
O1087 C1089 1.353 . S
O1088 U1086 2.458 . S
O1088 C1089 1.286 . S
C1089 U1086 2.984 . S
C1089 O1087 1.353 . S
C1089 O1088 1.286 . S
C1089 C1091 1.363 . S
C1090 C1080 1.465 . S
C1090 U1086 2.847 . S
C1090 O1104 1.249 . S
C1090 O1105 1.202 . S
C1091 C1089 1.363 . S
C1091 C1093 1.408 . S
C1091 C1096 1.342 . S
C1092 C1093 1.310 . S
C1092 C1095 1.461 . S
C1092 H1112 0.932 . S
C1093 C1091 1.408 . S
C1093 C1092 1.310 . S
C1093 H1113 0.930 . S
C1094 C1095 1.474 . S
C1094 C1096 1.285 . S
C1094 H1114 0.929 . S
C1095 C1092 1.461 . S
C1095 C1094 1.474 . S
C1096 C1091 1.342 . S
C1096 C1094 1.285 . S
C1096 H1115 0.930 . S
C1097 C1100 1.424 . S
C1097 C1102 1.245 . S
C1097 C1103 1.428 . S
C1098 C1101 1.260 . S
C1098 C1102 1.477 . S
C1098 H1116 0.932 . S
C1099 C1100 1.384 . S
C1099 C1101 1.479 . S
C1099 H1117 0.929 . S
C1100 C1097 1.424 . S
C1100 C1099 1.384 . S
C1100 H1118 0.928 . S
C1101 C1098 1.260 . S
C1101 C1099 1.479 . S
C1102 C1097 1.245 . S
C1102 C1098 1.477 . S
C1102 H1119 0.932 . S
C1103 U1086 2.882 . S
C1103 C1097 1.428 . S
C1103 O1106 1.301 . S
C1103 O1107 1.282 . S
O1104 U1086 2.441 . S
O1104 C1090 1.249 . S
O1105 U1086 2.420 . S
O1105 C1090 1.202 . S
O1106 U1086 2.455 . S
O1106 C1103 1.301 . S
O1107 U1086 2.449 . S
O1107 C1103 1.282 . S
H1108 C1081 0.931 . S
H1109 C1083 0.929 . S
H1110 C1084 0.930 . S
H1111 C1085 0.931 . S
H1112 C1092 0.932 . S
H1113 C1093 0.930 . S
H1114 C1094 0.929 . S
H1115 C1096 0.930 . S
H1116 C1098 0.932 . S
H1117 C1099 0.929 . S
H1118 C1100 0.928 . S
H1119 C1102 0.932 . S
C1120 C1121 1.264 . S
C1120 C1125 1.479 . S
C1120 C1130 1.465 . S
C1121 C1120 1.264 . S
C1121 C1123 1.339 . S
C1121 H1148 0.931 . S
C1122 C1123 1.395 . S
C1122 C1124 1.320 . S
C1123 C1121 1.339 . S
C1123 C1122 1.395 . S
C1123 H1149 0.929 . S
C1124 C1122 1.320 . S
C1124 C1125 1.405 . S
C1124 H1150 0.930 . S
C1125 C1120 1.479 . S
C1125 C1124 1.405 . S
C1125 H1151 0.931 . S
U1126 O1127 2.454 . S
U1126 O1128 2.458 . S
U1126 C1129 2.984 . S
U1126 C1130 2.847 . S
U1126 C1143 2.882 . S
U1126 O1144 2.441 . S
U1126 O1145 2.420 . S
U1126 O1146 2.455 . S
U1126 O1147 2.449 . S
O1127 U1126 2.454 . S
O1127 C1129 1.353 . S
O1128 U1126 2.458 . S
O1128 C1129 1.286 . S
C1129 U1126 2.984 . S
C1129 O1127 1.353 . S
C1129 O1128 1.286 . S
C1129 C1131 1.363 . S
C1130 C1120 1.465 . S
C1130 U1126 2.847 . S
C1130 O1144 1.249 . S
C1130 O1145 1.202 . S
C1131 C1129 1.363 . S
C1131 C1133 1.408 . S
C1131 C1136 1.342 . S
C1132 C1133 1.310 . S
C1132 C1135 1.461 . S
C1132 H1152 0.932 . S
C1133 C1131 1.408 . S
C1133 C1132 1.310 . S
C1133 H1153 0.930 . S
C1134 C1135 1.474 . S
C1134 C1136 1.285 . S
C1134 H1154 0.929 . S
C1135 C1132 1.461 . S
C1135 C1134 1.474 . S
C1136 C1131 1.342 . S
C1136 C1134 1.285 . S
C1136 H1155 0.930 . S
C1137 C1140 1.424 . S
C1137 C1142 1.245 . S
C1137 C1143 1.428 . S
C1138 C1141 1.260 . S
C1138 C1142 1.477 . S
C1138 H1156 0.932 . S
C1139 C1140 1.384 . S
C1139 C1141 1.479 . S
C1139 H1157 0.929 . S
C1140 C1137 1.424 . S
C1140 C1139 1.384 . S
C1140 H1158 0.928 . S
C1141 C1138 1.260 . S
C1141 C1139 1.479 . S
C1142 C1137 1.245 . S
C1142 C1138 1.477 . S
C1142 H1159 0.932 . S
C1143 U1126 2.882 . S
C1143 C1137 1.428 . S
C1143 O1146 1.301 . S
C1143 O1147 1.282 . S
O1144 U1126 2.441 . S
O1144 C1130 1.249 . S
O1145 U1126 2.420 . S
O1145 C1130 1.202 . S
O1146 U1126 2.455 . S
O1146 C1143 1.301 . S
O1147 U1126 2.449 . S
O1147 C1143 1.282 . S
H1148 C1121 0.931 . S
H1149 C1123 0.929 . S
H1150 C1124 0.930 . S
H1151 C1125 0.931 . S
H1152 C1132 0.932 . S
H1153 C1133 0.930 . S
H1154 C1134 0.929 . S
H1155 C1136 0.930 . S
H1156 C1138 0.932 . S
H1157 C1139 0.929 . S
H1158 C1140 0.928 . S
H1159 C1142 0.932 . S
C1160 C1161 1.264 . S
C1160 C1165 1.479 . S
C1160 C1170 1.465 . S
C1161 C1160 1.264 . S
C1161 C1163 1.339 . S
C1161 H1188 0.931 . S
C1162 C1163 1.395 . S
C1162 C1164 1.320 . S
C1163 C1161 1.339 . S
C1163 C1162 1.395 . S
C1163 H1189 0.929 . S
C1164 C1162 1.320 . S
C1164 C1165 1.405 . S
C1164 H1190 0.930 . S
C1165 C1160 1.479 . S
C1165 C1164 1.405 . S
C1165 H1191 0.931 . S
U1166 O1167 2.454 . S
U1166 O1168 2.458 . S
U1166 C1169 2.984 . S
U1166 C1170 2.847 . S
U1166 C1183 2.882 . S
U1166 O1184 2.441 . S
U1166 O1185 2.420 . S
U1166 O1186 2.455 . S
U1166 O1187 2.449 . S
O1167 U1166 2.454 . S
O1167 C1169 1.353 . S
O1168 U1166 2.458 . S
O1168 C1169 1.286 . S
C1169 U1166 2.984 . S
C1169 O1167 1.353 . S
C1169 O1168 1.286 . S
C1169 C1171 1.363 . S
C1170 C1160 1.465 . S
C1170 U1166 2.847 . S
C1170 O1184 1.249 . S
C1170 O1185 1.202 . S
C1171 C1169 1.363 . S
C1171 C1173 1.408 . S
C1171 C1176 1.342 . S
C1172 C1173 1.310 . S
C1172 C1175 1.461 . S
C1172 H1192 0.932 . S
C1173 C1171 1.408 . S
C1173 C1172 1.310 . S
C1173 H1193 0.930 . S
C1174 C1175 1.474 . S
C1174 C1176 1.285 . S
C1174 H1194 0.929 . S
C1175 C1172 1.461 . S
C1175 C1174 1.474 . S
C1176 C1171 1.342 . S
C1176 C1174 1.285 . S
C1176 H1195 0.930 . S
C1177 C1180 1.424 . S
C1177 C1182 1.245 . S
C1177 C1183 1.428 . S
C1178 C1181 1.260 . S
C1178 C1182 1.477 . S
C1178 H1196 0.932 . S
C1179 C1180 1.384 . S
C1179 C1181 1.479 . S
C1179 H1197 0.929 . S
C1180 C1177 1.424 . S
C1180 C1179 1.384 . S
C1180 H1198 0.928 . S
C1181 C1178 1.260 . S
C1181 C1179 1.479 . S
C1182 C1177 1.245 . S
C1182 C1178 1.477 . S
C1182 H1199 0.932 . S
C1183 U1166 2.882 . S
C1183 C1177 1.428 . S
C1183 O1186 1.301 . S
C1183 O1187 1.282 . S
O1184 U1166 2.441 . S
O1184 C1170 1.249 . S
O1185 U1166 2.420 . S
O1185 C1170 1.202 . S
O1186 U1166 2.455 . S
O1186 C1183 1.301 . S
O1187 U1166 2.449 . S
O1187 C1183 1.282 . S
H1188 C1161 0.931 . S
H1189 C1163 0.929 . S
H1190 C1164 0.930 . S
H1191 C1165 0.931 . S
H1192 C1172 0.932 . S
H1193 C1173 0.930 . S
H1194 C1174 0.929 . S
H1195 C1176 0.930 . S
H1196 C1178 0.932 . S
H1197 C1179 0.929 . S
H1198 C1180 0.928 . S
H1199 C1182 0.932 . S
C1200 C1201 1.264 . S
C1200 C1205 1.479 . S
C1200 C1210 1.465 . S
C1201 C1200 1.264 . S
C1201 C1203 1.339 . S
C1201 H1228 0.931 . S
C1202 C1203 1.395 . S
C1202 C1204 1.320 . S
C1203 C1201 1.339 . S
C1203 C1202 1.395 . S
C1203 H1229 0.929 . S
C1204 C1202 1.320 . S
C1204 C1205 1.405 . S
C1204 H1230 0.930 . S
C1205 C1200 1.479 . S
C1205 C1204 1.405 . S
C1205 H1231 0.931 . S
U1206 O1207 2.454 . S
U1206 O1208 2.458 . S
U1206 C1209 2.984 . S
U1206 C1210 2.847 . S
U1206 C1223 2.882 . S
U1206 O1224 2.441 . S
U1206 O1225 2.420 . S
U1206 O1226 2.455 . S
U1206 O1227 2.449 . S
O1207 U1206 2.454 . S
O1207 C1209 1.353 . S
O1208 U1206 2.458 . S
O1208 C1209 1.286 . S
C1209 U1206 2.984 . S
C1209 O1207 1.353 . S
C1209 O1208 1.286 . S
C1209 C1211 1.363 . S
C1210 C1200 1.465 . S
C1210 U1206 2.847 . S
C1210 O1224 1.249 . S
C1210 O1225 1.202 . S
C1211 C1209 1.363 . S
C1211 C1213 1.408 . S
C1211 C1216 1.342 . S
C1212 C1213 1.310 . S
C1212 C1215 1.461 . S
C1212 H1232 0.932 . S
C1213 C1211 1.408 . S
C1213 C1212 1.310 . S
C1213 H1233 0.930 . S
C1214 C1215 1.474 . S
C1214 C1216 1.285 . S
C1214 H1234 0.929 . S
C1215 C1212 1.461 . S
C1215 C1214 1.474 . S
C1216 C1211 1.342 . S
C1216 C1214 1.285 . S
C1216 H1235 0.930 . S
C1217 C1220 1.424 . S
C1217 C1222 1.245 . S
C1217 C1223 1.428 . S
C1218 C1221 1.260 . S
C1218 C1222 1.477 . S
C1218 H1236 0.932 . S
C1219 C1220 1.384 . S
C1219 C1221 1.479 . S
C1219 H1237 0.929 . S
C1220 C1217 1.424 . S
C1220 C1219 1.384 . S
C1220 H1238 0.928 . S
C1221 C1218 1.260 . S
C1221 C1219 1.479 . S
C1222 C1217 1.245 . S
C1222 C1218 1.477 . S
C1222 H1239 0.932 . S
C1223 U1206 2.882 . S
C1223 C1217 1.428 . S
C1223 O1226 1.301 . S
C1223 O1227 1.282 . S
O1224 U1206 2.441 . S
O1224 C1210 1.249 . S
O1225 U1206 2.420 . S
O1225 C1210 1.202 . S
O1226 U1206 2.455 . S
O1226 C1223 1.301 . S
O1227 U1206 2.449 . S
O1227 C1223 1.282 . S
H1228 C1201 0.931 . S
H1229 C1203 0.929 . S
H1230 C1204 0.930 . S
H1231 C1205 0.931 . S
H1232 C1212 0.932 . S
H1233 C1213 0.930 . S
H1234 C1214 0.929 . S
H1235 C1216 0.930 . S
H1236 C1218 0.932 . S
H1237 C1219 0.929 . S
H1238 C1220 0.928 . S
H1239 C1222 0.932 . S
C1240 C1241 1.264 . S
C1240 C1245 1.479 . S
C1240 C1250 1.465 . S
C1241 C1240 1.264 . S
C1241 C1243 1.339 . S
C1241 H1268 0.931 . S
C1242 C1243 1.395 . S
C1242 C1244 1.320 . S
C1243 C1241 1.339 . S
C1243 C1242 1.395 . S
C1243 H1269 0.929 . S
C1244 C1242 1.320 . S
C1244 C1245 1.405 . S
C1244 H1270 0.930 . S
C1245 C1240 1.479 . S
C1245 C1244 1.405 . S
C1245 H1271 0.931 . S
U1246 O1247 2.454 . S
U1246 O1248 2.458 . S
U1246 C1249 2.984 . S
U1246 C1250 2.847 . S
U1246 C1263 2.882 . S
U1246 O1264 2.441 . S
U1246 O1265 2.420 . S
U1246 O1266 2.455 . S
U1246 O1267 2.449 . S
O1247 U1246 2.454 . S
O1247 C1249 1.353 . S
O1248 U1246 2.458 . S
O1248 C1249 1.286 . S
C1249 U1246 2.984 . S
C1249 O1247 1.353 . S
C1249 O1248 1.286 . S
C1249 C1251 1.363 . S
C1250 C1240 1.465 . S
C1250 U1246 2.847 . S
C1250 O1264 1.249 . S
C1250 O1265 1.202 . S
C1251 C1249 1.363 . S
C1251 C1253 1.408 . S
C1251 C1256 1.342 . S
C1252 C1253 1.310 . S
C1252 C1255 1.461 . S
C1252 H1272 0.932 . S
C1253 C1251 1.408 . S
C1253 C1252 1.310 . S
C1253 H1273 0.930 . S
C1254 C1255 1.474 . S
C1254 C1256 1.285 . S
C1254 H1274 0.929 . S
C1255 C1252 1.461 . S
C1255 C1254 1.474 . S
C1256 C1251 1.342 . S
C1256 C1254 1.285 . S
C1256 H1275 0.930 . S
C1257 C1260 1.424 . S
C1257 C1262 1.245 . S
C1257 C1263 1.428 . S
C1258 C1261 1.260 . S
C1258 C1262 1.477 . S
C1258 H1276 0.932 . S
C1259 C1260 1.384 . S
C1259 C1261 1.479 . S
C1259 H1277 0.929 . S
C1260 C1257 1.424 . S
C1260 C1259 1.384 . S
C1260 H1278 0.928 . S
C1261 C1258 1.260 . S
C1261 C1259 1.479 . S
C1262 C1257 1.245 . S
C1262 C1258 1.477 . S
C1262 H1279 0.932 . S
C1263 U1246 2.882 . S
C1263 C1257 1.428 . S
C1263 O1266 1.301 . S
C1263 O1267 1.282 . S
O1264 U1246 2.441 . S
O1264 C1250 1.249 . S
O1265 U1246 2.420 . S
O1265 C1250 1.202 . S
O1266 U1246 2.455 . S
O1266 C1263 1.301 . S
O1267 U1246 2.449 . S
O1267 C1263 1.282 . S
H1268 C1241 0.931 . S
H1269 C1243 0.929 . S
H1270 C1244 0.930 . S
H1271 C1245 0.931 . S
H1272 C1252 0.932 . S
H1273 C1253 0.930 . S
H1274 C1254 0.929 . S
H1275 C1256 0.930 . S
H1276 C1258 0.932 . S
H1277 C1259 0.929 . S
H1278 C1260 0.928 . S
H1279 C1262 0.932 . S
C1280 C1281 1.264 . S
C1280 C1285 1.479 . S
C1280 C1290 1.465 . S
C1281 C1280 1.264 . S
C1281 C1283 1.339 . S
C1281 H1308 0.931 . S
C1282 C1283 1.395 . S
C1282 C1284 1.320 . S
C1283 C1281 1.339 . S
C1283 C1282 1.395 . S
C1283 H1309 0.929 . S
C1284 C1282 1.320 . S
C1284 C1285 1.405 . S
C1284 H1310 0.930 . S
C1285 C1280 1.479 . S
C1285 C1284 1.405 . S
C1285 H1311 0.931 . S
U1286 O1287 2.454 . S
U1286 O1288 2.458 . S
U1286 C1289 2.984 . S
U1286 C1290 2.847 . S
U1286 C1303 2.882 . S
U1286 O1304 2.441 . S
U1286 O1305 2.420 . S
U1286 O1306 2.455 . S
U1286 O1307 2.449 . S
O1287 U1286 2.454 . S
O1287 C1289 1.353 . S
O1288 U1286 2.458 . S
O1288 C1289 1.286 . S
C1289 U1286 2.984 . S
C1289 O1287 1.353 . S
C1289 O1288 1.286 . S
C1289 C1291 1.363 . S
C1290 C1280 1.465 . S
C1290 U1286 2.847 . S
C1290 O1304 1.249 . S
C1290 O1305 1.202 . S
C1291 C1289 1.363 . S
C1291 C1293 1.408 . S
C1291 C1296 1.342 . S
C1292 C1293 1.310 . S
C1292 C1295 1.461 . S
C1292 H1312 0.932 . S
C1293 C1291 1.408 . S
C1293 C1292 1.310 . S
C1293 H1313 0.930 . S
C1294 C1295 1.474 . S
C1294 C1296 1.285 . S
C1294 H1314 0.929 . S
C1295 C1292 1.461 . S
C1295 C1294 1.474 . S
C1296 C1291 1.342 . S
C1296 C1294 1.285 . S
C1296 H1315 0.930 . S
C1297 C1300 1.424 . S
C1297 C1302 1.245 . S
C1297 C1303 1.428 . S
C1298 C1301 1.260 . S
C1298 C1302 1.477 . S
C1298 H1316 0.932 . S
C1299 C1300 1.384 . S
C1299 C1301 1.479 . S
C1299 H1317 0.929 . S
C1300 C1297 1.424 . S
C1300 C1299 1.384 . S
C1300 H1318 0.928 . S
C1301 C1298 1.260 . S
C1301 C1299 1.479 . S
C1302 C1297 1.245 . S
C1302 C1298 1.477 . S
C1302 H1319 0.932 . S
C1303 U1286 2.882 . S
C1303 C1297 1.428 . S
C1303 O1306 1.301 . S
C1303 O1307 1.282 . S
O1304 U1286 2.441 . S
O1304 C1290 1.249 . S
O1305 U1286 2.420 . S
O1305 C1290 1.202 . S
O1306 U1286 2.455 . S
O1306 C1303 1.301 . S
O1307 U1286 2.449 . S
O1307 C1303 1.282 . S
H1308 C1281 0.931 . S
H1309 C1283 0.929 . S
H1310 C1284 0.930 . S
H1311 C1285 0.931 . S
H1312 C1292 0.932 . S
H1313 C1293 0.930 . S
H1314 C1294 0.929 . S
H1315 C1296 0.930 . S
H1316 C1298 0.932 . S
H1317 C1299 0.929 . S
H1318 C1300 0.928 . S
H1319 C1302 0.932 . S
C1320 C1321 1.264 . S
C1320 C1325 1.479 . S
C1320 C1330 1.465 . S
C1321 C1320 1.264 . S
C1321 C1323 1.339 . S
C1321 H1348 0.931 . S
C1322 C1323 1.395 . S
C1322 C1324 1.320 . S
C1323 C1321 1.339 . S
C1323 C1322 1.395 . S
C1323 H1349 0.929 . S
C1324 C1322 1.320 . S
C1324 C1325 1.405 . S
C1324 H1350 0.930 . S
C1325 C1320 1.479 . S
C1325 C1324 1.405 . S
C1325 H1351 0.931 . S
U1326 O1327 2.454 . S
U1326 O1328 2.458 . S
U1326 C1329 2.984 . S
U1326 C1330 2.847 . S
U1326 C1343 2.882 . S
U1326 O1344 2.441 . S
U1326 O1345 2.420 . S
U1326 O1346 2.455 . S
U1326 O1347 2.449 . S
O1327 U1326 2.454 . S
O1327 C1329 1.353 . S
O1328 U1326 2.458 . S
O1328 C1329 1.286 . S
C1329 U1326 2.984 . S
C1329 O1327 1.353 . S
C1329 O1328 1.286 . S
C1329 C1331 1.363 . S
C1330 C1320 1.465 . S
C1330 U1326 2.847 . S
C1330 O1344 1.249 . S
C1330 O1345 1.202 . S
C1331 C1329 1.363 . S
C1331 C1333 1.408 . S
C1331 C1336 1.342 . S
C1332 C1333 1.310 . S
C1332 C1335 1.461 . S
C1332 H1352 0.932 . S
C1333 C1331 1.408 . S
C1333 C1332 1.310 . S
C1333 H1353 0.930 . S
C1334 C1335 1.474 . S
C1334 C1336 1.285 . S
C1334 H1354 0.929 . S
C1335 C1332 1.461 . S
C1335 C1334 1.474 . S
C1336 C1331 1.342 . S
C1336 C1334 1.285 . S
C1336 H1355 0.930 . S
C1337 C1340 1.424 . S
C1337 C1342 1.245 . S
C1337 C1343 1.428 . S
C1338 C1341 1.260 . S
C1338 C1342 1.477 . S
C1338 H1356 0.932 . S
C1339 C1340 1.384 . S
C1339 C1341 1.479 . S
C1339 H1357 0.929 . S
C1340 C1337 1.424 . S
C1340 C1339 1.384 . S
C1340 H1358 0.928 . S
C1341 C1338 1.260 . S
C1341 C1339 1.479 . S
C1342 C1337 1.245 . S
C1342 C1338 1.477 . S
C1342 H1359 0.932 . S
C1343 U1326 2.882 . S
C1343 C1337 1.428 . S
C1343 O1346 1.301 . S
C1343 O1347 1.282 . S
O1344 U1326 2.441 . S
O1344 C1330 1.249 . S
O1345 U1326 2.420 . S
O1345 C1330 1.202 . S
O1346 U1326 2.455 . S
O1346 C1343 1.301 . S
O1347 U1326 2.449 . S
O1347 C1343 1.282 . S
H1348 C1321 0.931 . S
H1349 C1323 0.929 . S
H1350 C1324 0.930 . S
H1351 C1325 0.931 . S
H1352 C1332 0.932 . S
H1353 C1333 0.930 . S
H1354 C1334 0.929 . S
H1355 C1336 0.930 . S
H1356 C1338 0.932 . S
H1357 C1339 0.929 . S
H1358 C1340 0.928 . S
H1359 C1342 0.932 . S
C1360 C1361 1.264 . S
C1360 C1365 1.479 . S
C1360 C1370 1.465 . S
C1361 C1360 1.264 . S
C1361 C1363 1.339 . S
C1361 H1388 0.931 . S
C1362 C1363 1.395 . S
C1362 C1364 1.320 . S
C1363 C1361 1.339 . S
C1363 C1362 1.395 . S
C1363 H1389 0.929 . S
C1364 C1362 1.320 . S
C1364 C1365 1.405 . S
C1364 H1390 0.930 . S
C1365 C1360 1.479 . S
C1365 C1364 1.405 . S
C1365 H1391 0.931 . S
U1366 O1367 2.454 . S
U1366 O1368 2.458 . S
U1366 C1369 2.984 . S
U1366 C1370 2.847 . S
U1366 C1383 2.882 . S
U1366 O1384 2.441 . S
U1366 O1385 2.420 . S
U1366 O1386 2.455 . S
U1366 O1387 2.449 . S
O1367 U1366 2.454 . S
O1367 C1369 1.353 . S
O1368 U1366 2.458 . S
O1368 C1369 1.286 . S
C1369 U1366 2.984 . S
C1369 O1367 1.353 . S
C1369 O1368 1.286 . S
C1369 C1371 1.363 . S
C1370 C1360 1.465 . S
C1370 U1366 2.847 . S
C1370 O1384 1.249 . S
C1370 O1385 1.202 . S
C1371 C1369 1.363 . S
C1371 C1373 1.408 . S
C1371 C1376 1.342 . S
C1372 C1373 1.310 . S
C1372 C1375 1.461 . S
C1372 H1392 0.932 . S
C1373 C1371 1.408 . S
C1373 C1372 1.310 . S
C1373 H1393 0.930 . S
C1374 C1375 1.474 . S
C1374 C1376 1.285 . S
C1374 H1394 0.929 . S
C1375 C1372 1.461 . S
C1375 C1374 1.474 . S
C1376 C1371 1.342 . S
C1376 C1374 1.285 . S
C1376 H1395 0.930 . S
C1377 C1380 1.424 . S
C1377 C1382 1.245 . S
C1377 C1383 1.428 . S
C1378 C1381 1.260 . S
C1378 C1382 1.477 . S
C1378 H1396 0.932 . S
C1379 C1380 1.384 . S
C1379 C1381 1.479 . S
C1379 H1397 0.929 . S
C1380 C1377 1.424 . S
C1380 C1379 1.384 . S
C1380 H1398 0.928 . S
C1381 C1378 1.260 . S
C1381 C1379 1.479 . S
C1382 C1377 1.245 . S
C1382 C1378 1.477 . S
C1382 H1399 0.932 . S
C1383 U1366 2.882 . S
C1383 C1377 1.428 . S
C1383 O1386 1.301 . S
C1383 O1387 1.282 . S
O1384 U1366 2.441 . S
O1384 C1370 1.249 . S
O1385 U1366 2.420 . S
O1385 C1370 1.202 . S
O1386 U1366 2.455 . S
O1386 C1383 1.301 . S
O1387 U1366 2.449 . S
O1387 C1383 1.282 . S
H1388 C1361 0.931 . S
H1389 C1363 0.929 . S
H1390 C1364 0.930 . S
H1391 C1365 0.931 . S
H1392 C1372 0.932 . S
H1393 C1373 0.930 . S
H1394 C1374 0.929 . S
H1395 C1376 0.930 . S
H1396 C1378 0.932 . S
H1397 C1379 0.929 . S
H1398 C1380 0.928 . S
H1399 C1382 0.932 . S
C1400 C1401 1.264 . S
C1400 C1405 1.479 . S
C1400 C1410 1.465 . S
C1401 C1400 1.264 . S
C1401 C1403 1.339 . S
C1401 H1428 0.931 . S
C1402 C1403 1.395 . S
C1402 C1404 1.320 . S
C1403 C1401 1.339 . S
C1403 C1402 1.395 . S
C1403 H1429 0.929 . S
C1404 C1402 1.320 . S
C1404 C1405 1.405 . S
C1404 H1430 0.930 . S
C1405 C1400 1.479 . S
C1405 C1404 1.405 . S
C1405 H1431 0.931 . S
U1406 O1407 2.454 . S
U1406 O1408 2.458 . S
U1406 C1409 2.984 . S
U1406 C1410 2.847 . S
U1406 C1423 2.882 . S
U1406 O1424 2.441 . S
U1406 O1425 2.420 . S
U1406 O1426 2.455 . S
U1406 O1427 2.449 . S
O1407 U1406 2.454 . S
O1407 C1409 1.353 . S
O1408 U1406 2.458 . S
O1408 C1409 1.286 . S
C1409 U1406 2.984 . S
C1409 O1407 1.353 . S
C1409 O1408 1.286 . S
C1409 C1411 1.363 . S
C1410 C1400 1.465 . S
C1410 U1406 2.847 . S
C1410 O1424 1.249 . S
C1410 O1425 1.202 . S
C1411 C1409 1.363 . S
C1411 C1413 1.408 . S
C1411 C1416 1.342 . S
C1412 C1413 1.310 . S
C1412 C1415 1.461 . S
C1412 H1432 0.932 . S
C1413 C1411 1.408 . S
C1413 C1412 1.310 . S
C1413 H1433 0.930 . S
C1414 C1415 1.474 . S
C1414 C1416 1.285 . S
C1414 H1434 0.929 . S
C1415 C1412 1.461 . S
C1415 C1414 1.474 . S
C1416 C1411 1.342 . S
C1416 C1414 1.285 . S
C1416 H1435 0.930 . S
C1417 C1420 1.424 . S
C1417 C1422 1.245 . S
C1417 C1423 1.428 . S
C1418 C1421 1.260 . S
C1418 C1422 1.477 . S
C1418 H1436 0.932 . S
C1419 C1420 1.384 . S
C1419 C1421 1.479 . S
C1419 H1437 0.929 . S
C1420 C1417 1.424 . S
C1420 C1419 1.384 . S
C1420 H1438 0.928 . S
C1421 C1418 1.260 . S
C1421 C1419 1.479 . S
C1422 C1417 1.245 . S
C1422 C1418 1.477 . S
C1422 H1439 0.932 . S
C1423 U1406 2.882 . S
C1423 C1417 1.428 . S
C1423 O1426 1.301 . S
C1423 O1427 1.282 . S
O1424 U1406 2.441 . S
O1424 C1410 1.249 . S
O1425 U1406 2.420 . S
O1425 C1410 1.202 . S
O1426 U1406 2.455 . S
O1426 C1423 1.301 . S
O1427 U1406 2.449 . S
O1427 C1423 1.282 . S
H1428 C1401 0.931 . S
H1429 C1403 0.929 . S
H1430 C1404 0.930 . S
H1431 C1405 0.931 . S
H1432 C1412 0.932 . S
H1433 C1413 0.930 . S
H1434 C1414 0.929 . S
H1435 C1416 0.930 . S
H1436 C1418 0.932 . S
H1437 C1419 0.929 . S
H1438 C1420 0.928 . S
H1439 C1422 0.932 . S
C1440 C1441 1.264 . S
C1440 C1445 1.479 . S
C1440 C1450 1.465 . S
C1441 C1440 1.264 . S
C1441 C1443 1.339 . S
C1441 H1468 0.931 . S
C1442 C1443 1.395 . S
C1442 C1444 1.320 . S
C1443 C1441 1.339 . S
C1443 C1442 1.395 . S
C1443 H1469 0.929 . S
C1444 C1442 1.320 . S
C1444 C1445 1.405 . S
C1444 H1470 0.930 . S
C1445 C1440 1.479 . S
C1445 C1444 1.405 . S
C1445 H1471 0.931 . S
U1446 O1447 2.454 . S
U1446 O1448 2.458 . S
U1446 C1449 2.984 . S
U1446 C1450 2.847 . S
U1446 C1463 2.882 . S
U1446 O1464 2.441 . S
U1446 O1465 2.420 . S
U1446 O1466 2.455 . S
U1446 O1467 2.449 . S
O1447 U1446 2.454 . S
O1447 C1449 1.353 . S
O1448 U1446 2.458 . S
O1448 C1449 1.286 . S
C1449 U1446 2.984 . S
C1449 O1447 1.353 . S
C1449 O1448 1.286 . S
C1449 C1451 1.363 . S
C1450 C1440 1.465 . S
C1450 U1446 2.847 . S
C1450 O1464 1.249 . S
C1450 O1465 1.202 . S
C1451 C1449 1.363 . S
C1451 C1453 1.408 . S
C1451 C1456 1.342 . S
C1452 C1453 1.310 . S
C1452 C1455 1.461 . S
C1452 H1472 0.932 . S
C1453 C1451 1.408 . S
C1453 C1452 1.310 . S
C1453 H1473 0.930 . S
C1454 C1455 1.474 . S
C1454 C1456 1.285 . S
C1454 H1474 0.929 . S
C1455 C1452 1.461 . S
C1455 C1454 1.474 . S
C1456 C1451 1.342 . S
C1456 C1454 1.285 . S
C1456 H1475 0.930 . S
C1457 C1460 1.424 . S
C1457 C1462 1.245 . S
C1457 C1463 1.428 . S
C1458 C1461 1.260 . S
C1458 C1462 1.477 . S
C1458 H1476 0.932 . S
C1459 C1460 1.384 . S
C1459 C1461 1.479 . S
C1459 H1477 0.929 . S
C1460 C1457 1.424 . S
C1460 C1459 1.384 . S
C1460 H1478 0.928 . S
C1461 C1458 1.260 . S
C1461 C1459 1.479 . S
C1462 C1457 1.245 . S
C1462 C1458 1.477 . S
C1462 H1479 0.932 . S
C1463 U1446 2.882 . S
C1463 C1457 1.428 . S
C1463 O1466 1.301 . S
C1463 O1467 1.282 . S
O1464 U1446 2.441 . S
O1464 C1450 1.249 . S
O1465 U1446 2.420 . S
O1465 C1450 1.202 . S
O1466 U1446 2.455 . S
O1466 C1463 1.301 . S
O1467 U1446 2.449 . S
O1467 C1463 1.282 . S
H1468 C1441 0.931 . S
H1469 C1443 0.929 . S
H1470 C1444 0.930 . S
H1471 C1445 0.931 . S
H1472 C1452 0.932 . S
H1473 C1453 0.930 . S
H1474 C1454 0.929 . S
H1475 C1456 0.930 . S
H1476 C1458 0.932 . S
H1477 C1459 0.929 . S
H1478 C1460 0.928 . S
H1479 C1462 0.932 . S
C1480 C1481 1.264 . S
C1480 C1485 1.479 . S
C1480 C1490 1.465 . S
C1481 C1480 1.264 . S
C1481 C1483 1.339 . S
C1481 H1508 0.931 . S
C1482 C1483 1.395 . S
C1482 C1484 1.320 . S
C1483 C1481 1.339 . S
C1483 C1482 1.395 . S
C1483 H1509 0.929 . S
C1484 C1482 1.320 . S
C1484 C1485 1.405 . S
C1484 H1510 0.930 . S
C1485 C1480 1.479 . S
C1485 C1484 1.405 . S
C1485 H1511 0.931 . S
U1486 O1487 2.454 . S
U1486 O1488 2.458 . S
U1486 C1489 2.984 . S
U1486 C1490 2.847 . S
U1486 C1503 2.882 . S
U1486 O1504 2.441 . S
U1486 O1505 2.420 . S
U1486 O1506 2.455 . S
U1486 O1507 2.449 . S
O1487 U1486 2.454 . S
O1487 C1489 1.353 . S
O1488 U1486 2.458 . S
O1488 C1489 1.286 . S
C1489 U1486 2.984 . S
C1489 O1487 1.353 . S
C1489 O1488 1.286 . S
C1489 C1491 1.363 . S
C1490 C1480 1.465 . S
C1490 U1486 2.847 . S
C1490 O1504 1.249 . S
C1490 O1505 1.202 . S
C1491 C1489 1.363 . S
C1491 C1493 1.408 . S
C1491 C1496 1.342 . S
C1492 C1493 1.310 . S
C1492 C1495 1.461 . S
C1492 H1512 0.932 . S
C1493 C1491 1.408 . S
C1493 C1492 1.310 . S
C1493 H1513 0.930 . S
C1494 C1495 1.474 . S
C1494 C1496 1.285 . S
C1494 H1514 0.929 . S
C1495 C1492 1.461 . S
C1495 C1494 1.474 . S
C1496 C1491 1.342 . S
C1496 C1494 1.285 . S
C1496 H1515 0.930 . S
C1497 C1500 1.424 . S
C1497 C1502 1.245 . S
C1497 C1503 1.428 . S
C1498 C1501 1.260 . S
C1498 C1502 1.477 . S
C1498 H1516 0.932 . S
C1499 C1500 1.384 . S
C1499 C1501 1.479 . S
C1499 H1517 0.929 . S
C1500 C1497 1.424 . S
C1500 C1499 1.384 . S
C1500 H1518 0.928 . S
C1501 C1498 1.260 . S
C1501 C1499 1.479 . S
C1502 C1497 1.245 . S
C1502 C1498 1.477 . S
C1502 H1519 0.932 . S
C1503 U1486 2.882 . S
C1503 C1497 1.428 . S
C1503 O1506 1.301 . S
C1503 O1507 1.282 . S
O1504 U1486 2.441 . S
O1504 C1490 1.249 . S
O1505 U1486 2.420 . S
O1505 C1490 1.202 . S
O1506 U1486 2.455 . S
O1506 C1503 1.301 . S
O1507 U1486 2.449 . S
O1507 C1503 1.282 . S
H1508 C1481 0.931 . S
H1509 C1483 0.929 . S
H1510 C1484 0.930 . S
H1511 C1485 0.931 . S
H1512 C1492 0.932 . S
H1513 C1493 0.930 . S
H1514 C1494 0.929 . S
H1515 C1496 0.930 . S
H1516 C1498 0.932 . S
H1517 C1499 0.929 . S
H1518 C1500 0.928 . S
H1519 C1502 0.932 . S
C1520 C1521 1.264 . S
C1520 C1525 1.479 . S
C1520 C1530 1.465 . S
C1521 C1520 1.264 . S
C1521 C1523 1.339 . S
C1521 H1548 0.931 . S
C1522 C1523 1.395 . S
C1522 C1524 1.320 . S
C1523 C1521 1.339 . S
C1523 C1522 1.395 . S
C1523 H1549 0.929 . S
C1524 C1522 1.320 . S
C1524 C1525 1.405 . S
C1524 H1550 0.930 . S
C1525 C1520 1.479 . S
C1525 C1524 1.405 . S
C1525 H1551 0.931 . S
U1526 O1527 2.454 . S
U1526 O1528 2.458 . S
U1526 C1529 2.984 . S
U1526 C1530 2.847 . S
U1526 C1543 2.882 . S
U1526 O1544 2.441 . S
U1526 O1545 2.420 . S
U1526 O1546 2.455 . S
U1526 O1547 2.449 . S
O1527 U1526 2.454 . S
O1527 C1529 1.353 . S
O1528 U1526 2.458 . S
O1528 C1529 1.286 . S
C1529 U1526 2.984 . S
C1529 O1527 1.353 . S
C1529 O1528 1.286 . S
C1529 C1531 1.363 . S
C1530 C1520 1.465 . S
C1530 U1526 2.847 . S
C1530 O1544 1.249 . S
C1530 O1545 1.202 . S
C1531 C1529 1.363 . S
C1531 C1533 1.408 . S
C1531 C1536 1.342 . S
C1532 C1533 1.310 . S
C1532 C1535 1.461 . S
C1532 H1552 0.932 . S
C1533 C1531 1.408 . S
C1533 C1532 1.310 . S
C1533 H1553 0.930 . S
C1534 C1535 1.474 . S
C1534 C1536 1.285 . S
C1534 H1554 0.929 . S
C1535 C1532 1.461 . S
C1535 C1534 1.474 . S
C1536 C1531 1.342 . S
C1536 C1534 1.285 . S
C1536 H1555 0.930 . S
C1537 C1540 1.424 . S
C1537 C1542 1.245 . S
C1537 C1543 1.428 . S
C1538 C1541 1.260 . S
C1538 C1542 1.477 . S
C1538 H1556 0.932 . S
C1539 C1540 1.384 . S
C1539 C1541 1.479 . S
C1539 H1557 0.929 . S
C1540 C1537 1.424 . S
C1540 C1539 1.384 . S
C1540 H1558 0.928 . S
C1541 C1538 1.260 . S
C1541 C1539 1.479 . S
C1542 C1537 1.245 . S
C1542 C1538 1.477 . S
C1542 H1559 0.932 . S
C1543 U1526 2.882 . S
C1543 C1537 1.428 . S
C1543 O1546 1.301 . S
C1543 O1547 1.282 . S
O1544 U1526 2.441 . S
O1544 C1530 1.249 . S
O1545 U1526 2.420 . S
O1545 C1530 1.202 . S
O1546 U1526 2.455 . S
O1546 C1543 1.301 . S
O1547 U1526 2.449 . S
O1547 C1543 1.282 . S
H1548 C1521 0.931 . S
H1549 C1523 0.929 . S
H1550 C1524 0.930 . S
H1551 C1525 0.931 . S
H1552 C1532 0.932 . S
H1553 C1533 0.930 . S
H1554 C1534 0.929 . S
H1555 C1536 0.930 . S
H1556 C1538 0.932 . S
H1557 C1539 0.929 . S
H1558 C1540 0.928 . S
H1559 C1542 0.932 . S
C1560 C1561 1.264 . S
C1560 C1565 1.479 . S
C1560 C1570 1.465 . S
C1561 C1560 1.264 . S
C1561 C1563 1.339 . S
C1561 H1588 0.931 . S
C1562 C1563 1.395 . S
C1562 C1564 1.320 . S
C1563 C1561 1.339 . S
C1563 C1562 1.395 . S
C1563 H1589 0.929 . S
C1564 C1562 1.320 . S
C1564 C1565 1.405 . S
C1564 H1590 0.930 . S
C1565 C1560 1.479 . S
C1565 C1564 1.405 . S
C1565 H1591 0.931 . S
U1566 O1567 2.454 . S
U1566 O1568 2.458 . S
U1566 C1569 2.984 . S
U1566 C1570 2.847 . S
U1566 C1583 2.882 . S
U1566 O1584 2.441 . S
U1566 O1585 2.420 . S
U1566 O1586 2.455 . S
U1566 O1587 2.449 . S
O1567 U1566 2.454 . S
O1567 C1569 1.353 . S
O1568 U1566 2.458 . S
O1568 C1569 1.286 . S
C1569 U1566 2.984 . S
C1569 O1567 1.353 . S
C1569 O1568 1.286 . S
C1569 C1571 1.363 . S
C1570 C1560 1.465 . S
C1570 U1566 2.847 . S
C1570 O1584 1.249 . S
C1570 O1585 1.202 . S
C1571 C1569 1.363 . S
C1571 C1573 1.408 . S
C1571 C1576 1.342 . S
C1572 C1573 1.310 . S
C1572 C1575 1.461 . S
C1572 H1592 0.932 . S
C1573 C1571 1.408 . S
C1573 C1572 1.310 . S
C1573 H1593 0.930 . S
C1574 C1575 1.474 . S
C1574 C1576 1.285 . S
C1574 H1594 0.929 . S
C1575 C1572 1.461 . S
C1575 C1574 1.474 . S
C1576 C1571 1.342 . S
C1576 C1574 1.285 . S
C1576 H1595 0.930 . S
C1577 C1580 1.424 . S
C1577 C1582 1.245 . S
C1577 C1583 1.428 . S
C1578 C1581 1.260 . S
C1578 C1582 1.477 . S
C1578 H1596 0.932 . S
C1579 C1580 1.384 . S
C1579 C1581 1.479 . S
C1579 H1597 0.929 . S
C1580 C1577 1.424 . S
C1580 C1579 1.384 . S
C1580 H1598 0.928 . S
C1581 C1578 1.260 . S
C1581 C1579 1.479 . S
C1582 C1577 1.245 . S
C1582 C1578 1.477 . S
C1582 H1599 0.932 . S
C1583 U1566 2.882 . S
C1583 C1577 1.428 . S
C1583 O1586 1.301 . S
C1583 O1587 1.282 . S
O1584 U1566 2.441 . S
O1584 C1570 1.249 . S
O1585 U1566 2.420 . S
O1585 C1570 1.202 . S
O1586 U1566 2.455 . S
O1586 C1583 1.301 . S
O1587 U1566 2.449 . S
O1587 C1583 1.282 . S
H1588 C1561 0.931 . S
H1589 C1563 0.929 . S
H1590 C1564 0.930 . S
H1591 C1565 0.931 . S
H1592 C1572 0.932 . S
H1593 C1573 0.930 . S
H1594 C1574 0.929 . S
H1595 C1576 0.930 . S
H1596 C1578 0.932 . S
H1597 C1579 0.929 . S
H1598 C1580 0.928 . S
H1599 C1582 0.932 . S
C1600 C1601 1.264 . S
C1600 C1605 1.479 . S
C1600 C1610 1.465 . S
C1601 C1600 1.264 . S
C1601 C1603 1.339 . S
C1601 H1628 0.931 . S
C1602 C1603 1.395 . S
C1602 C1604 1.320 . S
C1603 C1601 1.339 . S
C1603 C1602 1.395 . S
C1603 H1629 0.929 . S
C1604 C1602 1.320 . S
C1604 C1605 1.405 . S
C1604 H1630 0.930 . S
C1605 C1600 1.479 . S
C1605 C1604 1.405 . S
C1605 H1631 0.931 . S
U1606 O1607 2.454 . S
U1606 O1608 2.458 . S
U1606 C1609 2.984 . S
U1606 C1610 2.847 . S
U1606 C1623 2.882 . S
U1606 O1624 2.441 . S
U1606 O1625 2.420 . S
U1606 O1626 2.455 . S
U1606 O1627 2.449 . S
O1607 U1606 2.454 . S
O1607 C1609 1.353 . S
O1608 U1606 2.458 . S
O1608 C1609 1.286 . S
C1609 U1606 2.984 . S
C1609 O1607 1.353 . S
C1609 O1608 1.286 . S
C1609 C1611 1.363 . S
C1610 C1600 1.465 . S
C1610 U1606 2.847 . S
C1610 O1624 1.249 . S
C1610 O1625 1.202 . S
C1611 C1609 1.363 . S
C1611 C1613 1.408 . S
C1611 C1616 1.342 . S
C1612 C1613 1.310 . S
C1612 C1615 1.461 . S
C1612 H1632 0.932 . S
C1613 C1611 1.408 . S
C1613 C1612 1.310 . S
C1613 H1633 0.930 . S
C1614 C1615 1.474 . S
C1614 C1616 1.285 . S
C1614 H1634 0.929 . S
C1615 C1612 1.461 . S
C1615 C1614 1.474 . S
C1616 C1611 1.342 . S
C1616 C1614 1.285 . S
C1616 H1635 0.930 . S
C1617 C1620 1.424 . S
C1617 C1622 1.245 . S
C1617 C1623 1.428 . S
C1618 C1621 1.260 . S
C1618 C1622 1.477 . S
C1618 H1636 0.932 . S
C1619 C1620 1.384 . S
C1619 C1621 1.479 . S
C1619 H1637 0.929 . S
C1620 C1617 1.424 . S
C1620 C1619 1.384 . S
C1620 H1638 0.928 . S
C1621 C1618 1.260 . S
C1621 C1619 1.479 . S
C1622 C1617 1.245 . S
C1622 C1618 1.477 . S
C1622 H1639 0.932 . S
C1623 U1606 2.882 . S
C1623 C1617 1.428 . S
C1623 O1626 1.301 . S
C1623 O1627 1.282 . S
O1624 U1606 2.441 . S
O1624 C1610 1.249 . S
O1625 U1606 2.420 . S
O1625 C1610 1.202 . S
O1626 U1606 2.455 . S
O1626 C1623 1.301 . S
O1627 U1606 2.449 . S
O1627 C1623 1.282 . S
H1628 C1601 0.931 . S
H1629 C1603 0.929 . S
H1630 C1604 0.930 . S
H1631 C1605 0.931 . S
H1632 C1612 0.932 . S
H1633 C1613 0.930 . S
H1634 C1614 0.929 . S
H1635 C1616 0.930 . S
H1636 C1618 0.932 . S
H1637 C1619 0.929 . S
H1638 C1620 0.928 . S
H1639 C1622 0.932 . S
C1640 C1641 1.264 . S
C1640 C1645 1.479 . S
C1640 C1650 1.465 . S
C1641 C1640 1.264 . S
C1641 C1643 1.339 . S
C1641 H1668 0.931 . S
C1642 C1643 1.395 . S
C1642 C1644 1.320 . S
C1643 C1641 1.339 . S
C1643 C1642 1.395 . S
C1643 H1669 0.929 . S
C1644 C1642 1.320 . S
C1644 C1645 1.405 . S
C1644 H1670 0.930 . S
C1645 C1640 1.479 . S
C1645 C1644 1.405 . S
C1645 H1671 0.931 . S
U1646 O1647 2.454 . S
U1646 O1648 2.458 . S
U1646 C1649 2.984 . S
U1646 C1650 2.847 . S
U1646 C1663 2.882 . S
U1646 O1664 2.441 . S
U1646 O1665 2.420 . S
U1646 O1666 2.455 . S
U1646 O1667 2.449 . S
O1647 U1646 2.454 . S
O1647 C1649 1.353 . S
O1648 U1646 2.458 . S
O1648 C1649 1.286 . S
C1649 U1646 2.984 . S
C1649 O1647 1.353 . S
C1649 O1648 1.286 . S
C1649 C1651 1.363 . S
C1650 C1640 1.465 . S
C1650 U1646 2.847 . S
C1650 O1664 1.249 . S
C1650 O1665 1.202 . S
C1651 C1649 1.363 . S
C1651 C1653 1.408 . S
C1651 C1656 1.342 . S
C1652 C1653 1.310 . S
C1652 C1655 1.461 . S
C1652 H1672 0.932 . S
C1653 C1651 1.408 . S
C1653 C1652 1.310 . S
C1653 H1673 0.930 . S
C1654 C1655 1.474 . S
C1654 C1656 1.285 . S
C1654 H1674 0.929 . S
C1655 C1652 1.461 . S
C1655 C1654 1.474 . S
C1656 C1651 1.342 . S
C1656 C1654 1.285 . S
C1656 H1675 0.930 . S
C1657 C1660 1.424 . S
C1657 C1662 1.245 . S
C1657 C1663 1.428 . S
C1658 C1661 1.260 . S
C1658 C1662 1.477 . S
C1658 H1676 0.932 . S
C1659 C1660 1.384 . S
C1659 C1661 1.479 . S
C1659 H1677 0.929 . S
C1660 C1657 1.424 . S
C1660 C1659 1.384 . S
C1660 H1678 0.928 . S
C1661 C1658 1.260 . S
C1661 C1659 1.479 . S
C1662 C1657 1.245 . S
C1662 C1658 1.477 . S
C1662 H1679 0.932 . S
C1663 U1646 2.882 . S
C1663 C1657 1.428 . S
C1663 O1666 1.301 . S
C1663 O1667 1.282 . S
O1664 U1646 2.441 . S
O1664 C1650 1.249 . S
O1665 U1646 2.420 . S
O1665 C1650 1.202 . S
O1666 U1646 2.455 . S
O1666 C1663 1.301 . S
O1667 U1646 2.449 . S
O1667 C1663 1.282 . S
H1668 C1641 0.931 . S
H1669 C1643 0.929 . S
H1670 C1644 0.930 . S
H1671 C1645 0.931 . S
H1672 C1652 0.932 . S
H1673 C1653 0.930 . S
H1674 C1654 0.929 . S
H1675 C1656 0.930 . S
H1676 C1658 0.932 . S
H1677 C1659 0.929 . S
H1678 C1660 0.928 . S
H1679 C1662 0.932 . S
C1680 C1681 1.264 . S
C1680 C1685 1.479 . S
C1680 C1690 1.465 . S
C1681 C1680 1.264 . S
C1681 C1683 1.339 . S
C1681 H1708 0.931 . S
C1682 C1683 1.395 . S
C1682 C1684 1.320 . S
C1683 C1681 1.339 . S
C1683 C1682 1.395 . S
C1683 H1709 0.929 . S
C1684 C1682 1.320 . S
C1684 C1685 1.405 . S
C1684 H1710 0.930 . S
C1685 C1680 1.479 . S
C1685 C1684 1.405 . S
C1685 H1711 0.931 . S
U1686 O1687 2.454 . S
U1686 O1688 2.458 . S
U1686 C1689 2.984 . S
U1686 C1690 2.847 . S
U1686 C1703 2.882 . S
U1686 O1704 2.441 . S
U1686 O1705 2.420 . S
U1686 O1706 2.455 . S
U1686 O1707 2.449 . S
O1687 U1686 2.454 . S
O1687 C1689 1.353 . S
O1688 U1686 2.458 . S
O1688 C1689 1.286 . S
C1689 U1686 2.984 . S
C1689 O1687 1.353 . S
C1689 O1688 1.286 . S
C1689 C1691 1.363 . S
C1690 C1680 1.465 . S
C1690 U1686 2.847 . S
C1690 O1704 1.249 . S
C1690 O1705 1.202 . S
C1691 C1689 1.363 . S
C1691 C1693 1.408 . S
C1691 C1696 1.342 . S
C1692 C1693 1.310 . S
C1692 C1695 1.461 . S
C1692 H1712 0.932 . S
C1693 C1691 1.408 . S
C1693 C1692 1.310 . S
C1693 H1713 0.930 . S
C1694 C1695 1.474 . S
C1694 C1696 1.285 . S
C1694 H1714 0.929 . S
C1695 C1692 1.461 . S
C1695 C1694 1.474 . S
C1696 C1691 1.342 . S
C1696 C1694 1.285 . S
C1696 H1715 0.930 . S
C1697 C1700 1.424 . S
C1697 C1702 1.245 . S
C1697 C1703 1.428 . S
C1698 C1701 1.260 . S
C1698 C1702 1.477 . S
C1698 H1716 0.932 . S
C1699 C1700 1.384 . S
C1699 C1701 1.479 . S
C1699 H1717 0.929 . S
C1700 C1697 1.424 . S
C1700 C1699 1.384 . S
C1700 H1718 0.928 . S
C1701 C1698 1.260 . S
C1701 C1699 1.479 . S
C1702 C1697 1.245 . S
C1702 C1698 1.477 . S
C1702 H1719 0.932 . S
C1703 U1686 2.882 . S
C1703 C1697 1.428 . S
C1703 O1706 1.301 . S
C1703 O1707 1.282 . S
O1704 U1686 2.441 . S
O1704 C1690 1.249 . S
O1705 U1686 2.420 . S
O1705 C1690 1.202 . S
O1706 U1686 2.455 . S
O1706 C1703 1.301 . S
O1707 U1686 2.449 . S
O1707 C1703 1.282 . S
H1708 C1681 0.931 . S
H1709 C1683 0.929 . S
H1710 C1684 0.930 . S
H1711 C1685 0.931 . S
H1712 C1692 0.932 . S
H1713 C1693 0.930 . S
H1714 C1694 0.929 . S
H1715 C1696 0.930 . S
H1716 C1698 0.932 . S
H1717 C1699 0.929 . S
H1718 C1700 0.928 . S
H1719 C1702 0.932 . S
C1720 C1721 1.264 . S
C1720 C1725 1.479 . S
C1720 C1730 1.465 . S
C1721 C1720 1.264 . S
C1721 C1723 1.339 . S
C1721 H1748 0.931 . S
C1722 C1723 1.395 . S
C1722 C1724 1.320 . S
C1723 C1721 1.339 . S
C1723 C1722 1.395 . S
C1723 H1749 0.929 . S
C1724 C1722 1.320 . S
C1724 C1725 1.405 . S
C1724 H1750 0.930 . S
C1725 C1720 1.479 . S
C1725 C1724 1.405 . S
C1725 H1751 0.931 . S
U1726 O1727 2.454 . S
U1726 O1728 2.458 . S
U1726 C1729 2.984 . S
U1726 C1730 2.847 . S
U1726 C1743 2.882 . S
U1726 O1744 2.441 . S
U1726 O1745 2.420 . S
U1726 O1746 2.455 . S
U1726 O1747 2.449 . S
O1727 U1726 2.454 . S
O1727 C1729 1.353 . S
O1728 U1726 2.458 . S
O1728 C1729 1.286 . S
C1729 U1726 2.984 . S
C1729 O1727 1.353 . S
C1729 O1728 1.286 . S
C1729 C1731 1.363 . S
C1730 C1720 1.465 . S
C1730 U1726 2.847 . S
C1730 O1744 1.249 . S
C1730 O1745 1.202 . S
C1731 C1729 1.363 . S
C1731 C1733 1.408 . S
C1731 C1736 1.342 . S
C1732 C1733 1.310 . S
C1732 C1735 1.461 . S
C1732 H1752 0.932 . S
C1733 C1731 1.408 . S
C1733 C1732 1.310 . S
C1733 H1753 0.930 . S
C1734 C1735 1.474 . S
C1734 C1736 1.285 . S
C1734 H1754 0.929 . S
C1735 C1732 1.461 . S
C1735 C1734 1.474 . S
C1736 C1731 1.342 . S
C1736 C1734 1.285 . S
C1736 H1755 0.930 . S
C1737 C1740 1.424 . S
C1737 C1742 1.245 . S
C1737 C1743 1.428 . S
C1738 C1741 1.260 . S
C1738 C1742 1.477 . S
C1738 H1756 0.932 . S
C1739 C1740 1.384 . S
C1739 C1741 1.479 . S
C1739 H1757 0.929 . S
C1740 C1737 1.424 . S
C1740 C1739 1.384 . S
C1740 H1758 0.928 . S
C1741 C1738 1.260 . S
C1741 C1739 1.479 . S
C1742 C1737 1.245 . S
C1742 C1738 1.477 . S
C1742 H1759 0.932 . S
C1743 U1726 2.882 . S
C1743 C1737 1.428 . S
C1743 O1746 1.301 . S
C1743 O1747 1.282 . S
O1744 U1726 2.441 . S
O1744 C1730 1.249 . S
O1745 U1726 2.420 . S
O1745 C1730 1.202 . S
O1746 U1726 2.455 . S
O1746 C1743 1.301 . S
O1747 U1726 2.449 . S
O1747 C1743 1.282 . S
H1748 C1721 0.931 . S
H1749 C1723 0.929 . S
H1750 C1724 0.930 . S
H1751 C1725 0.931 . S
H1752 C1732 0.932 . S
H1753 C1733 0.930 . S
H1754 C1734 0.929 . S
H1755 C1736 0.930 . S
H1756 C1738 0.932 . S
H1757 C1739 0.929 . S
H1758 C1740 0.928 . S
H1759 C1742 0.932 . S
C1760 C1761 1.264 . S
C1760 C1765 1.479 . S
C1760 C1770 1.465 . S
C1761 C1760 1.264 . S
C1761 C1763 1.339 . S
C1761 H1788 0.931 . S
C1762 C1763 1.395 . S
C1762 C1764 1.320 . S
C1763 C1761 1.339 . S
C1763 C1762 1.395 . S
C1763 H1789 0.929 . S
C1764 C1762 1.320 . S
C1764 C1765 1.405 . S
C1764 H1790 0.930 . S
C1765 C1760 1.479 . S
C1765 C1764 1.405 . S
C1765 H1791 0.931 . S
U1766 O1767 2.454 . S
U1766 O1768 2.458 . S
U1766 C1769 2.984 . S
U1766 C1770 2.847 . S
U1766 C1783 2.882 . S
U1766 O1784 2.441 . S
U1766 O1785 2.420 . S
U1766 O1786 2.455 . S
U1766 O1787 2.449 . S
O1767 U1766 2.454 . S
O1767 C1769 1.353 . S
O1768 U1766 2.458 . S
O1768 C1769 1.286 . S
C1769 U1766 2.984 . S
C1769 O1767 1.353 . S
C1769 O1768 1.286 . S
C1769 C1771 1.363 . S
C1770 C1760 1.465 . S
C1770 U1766 2.847 . S
C1770 O1784 1.249 . S
C1770 O1785 1.202 . S
C1771 C1769 1.363 . S
C1771 C1773 1.408 . S
C1771 C1776 1.342 . S
C1772 C1773 1.310 . S
C1772 C1775 1.461 . S
C1772 H1792 0.932 . S
C1773 C1771 1.408 . S
C1773 C1772 1.310 . S
C1773 H1793 0.930 . S
C1774 C1775 1.474 . S
C1774 C1776 1.285 . S
C1774 H1794 0.929 . S
C1775 C1772 1.461 . S
C1775 C1774 1.474 . S
C1776 C1771 1.342 . S
C1776 C1774 1.285 . S
C1776 H1795 0.930 . S
C1777 C1780 1.424 . S
C1777 C1782 1.245 . S
C1777 C1783 1.428 . S
C1778 C1781 1.260 . S
C1778 C1782 1.477 . S
C1778 H1796 0.932 . S
C1779 C1780 1.384 . S
C1779 C1781 1.479 . S
C1779 H1797 0.929 . S
C1780 C1777 1.424 . S
C1780 C1779 1.384 . S
C1780 H1798 0.928 . S
C1781 C1778 1.260 . S
C1781 C1779 1.479 . S
C1782 C1777 1.245 . S
C1782 C1778 1.477 . S
C1782 H1799 0.932 . S
C1783 U1766 2.882 . S
C1783 C1777 1.428 . S
C1783 O1786 1.301 . S
C1783 O1787 1.282 . S
O1784 U1766 2.441 . S
O1784 C1770 1.249 . S
O1785 U1766 2.420 . S
O1785 C1770 1.202 . S
O1786 U1766 2.455 . S
O1786 C1783 1.301 . S
O1787 U1766 2.449 . S
O1787 C1783 1.282 . S
H1788 C1761 0.931 . S
H1789 C1763 0.929 . S
H1790 C1764 0.930 . S
H1791 C1765 0.931 . S
H1792 C1772 0.932 . S
H1793 C1773 0.930 . S
H1794 C1774 0.929 . S
H1795 C1776 0.930 . S
H1796 C1778 0.932 . S
H1797 C1779 0.929 . S
H1798 C1780 0.928 . S
H1799 C1782 0.932 . S
C1800 C1801 1.264 . S
C1800 C1805 1.479 . S
C1800 C1810 1.465 . S
C1801 C1800 1.264 . S
C1801 C1803 1.339 . S
C1801 H1828 0.931 . S
C1802 C1803 1.395 . S
C1802 C1804 1.320 . S
C1803 C1801 1.339 . S
C1803 C1802 1.395 . S
C1803 H1829 0.929 . S
C1804 C1802 1.320 . S
C1804 C1805 1.405 . S
C1804 H1830 0.930 . S
C1805 C1800 1.479 . S
C1805 C1804 1.405 . S
C1805 H1831 0.931 . S
U1806 O1807 2.454 . S
U1806 O1808 2.458 . S
U1806 C1809 2.984 . S
U1806 C1810 2.847 . S
U1806 C1823 2.882 . S
U1806 O1824 2.441 . S
U1806 O1825 2.420 . S
U1806 O1826 2.455 . S
U1806 O1827 2.449 . S
O1807 U1806 2.454 . S
O1807 C1809 1.353 . S
O1808 U1806 2.458 . S
O1808 C1809 1.286 . S
C1809 U1806 2.984 . S
C1809 O1807 1.353 . S
C1809 O1808 1.286 . S
C1809 C1811 1.363 . S
C1810 C1800 1.465 . S
C1810 U1806 2.847 . S
C1810 O1824 1.249 . S
C1810 O1825 1.202 . S
C1811 C1809 1.363 . S
C1811 C1813 1.408 . S
C1811 C1816 1.342 . S
C1812 C1813 1.310 . S
C1812 C1815 1.461 . S
C1812 H1832 0.932 . S
C1813 C1811 1.408 . S
C1813 C1812 1.310 . S
C1813 H1833 0.930 . S
C1814 C1815 1.474 . S
C1814 C1816 1.285 . S
C1814 H1834 0.929 . S
C1815 C1812 1.461 . S
C1815 C1814 1.474 . S
C1816 C1811 1.342 . S
C1816 C1814 1.285 . S
C1816 H1835 0.930 . S
C1817 C1820 1.424 . S
C1817 C1822 1.245 . S
C1817 C1823 1.428 . S
C1818 C1821 1.260 . S
C1818 C1822 1.477 . S
C1818 H1836 0.932 . S
C1819 C1820 1.384 . S
C1819 C1821 1.479 . S
C1819 H1837 0.929 . S
C1820 C1817 1.424 . S
C1820 C1819 1.384 . S
C1820 H1838 0.928 . S
C1821 C1818 1.260 . S
C1821 C1819 1.479 . S
C1822 C1817 1.245 . S
C1822 C1818 1.477 . S
C1822 H1839 0.932 . S
C1823 U1806 2.882 . S
C1823 C1817 1.428 . S
C1823 O1826 1.301 . S
C1823 O1827 1.282 . S
O1824 U1806 2.441 . S
O1824 C1810 1.249 . S
O1825 U1806 2.420 . S
O1825 C1810 1.202 . S
O1826 U1806 2.455 . S
O1826 C1823 1.301 . S
O1827 U1806 2.449 . S
O1827 C1823 1.282 . S
H1828 C1801 0.931 . S
H1829 C1803 0.929 . S
H1830 C1804 0.930 . S
H1831 C1805 0.931 . S
H1832 C1812 0.932 . S
H1833 C1813 0.930 . S
H1834 C1814 0.929 . S
H1835 C1816 0.930 . S
H1836 C1818 0.932 . S
H1837 C1819 0.929 . S
H1838 C1820 0.928 . S
H1839 C1822 0.932 . S
C1840 C1841 1.264 . S
C1840 C1845 1.479 . S
C1840 C1850 1.465 . S
C1841 C1840 1.264 . S
C1841 C1843 1.339 . S
C1841 H1868 0.931 . S
C1842 C1843 1.395 . S
C1842 C1844 1.320 . S
C1843 C1841 1.339 . S
C1843 C1842 1.395 . S
C1843 H1869 0.929 . S
C1844 C1842 1.320 . S
C1844 C1845 1.405 . S
C1844 H1870 0.930 . S
C1845 C1840 1.479 . S
C1845 C1844 1.405 . S
C1845 H1871 0.931 . S
U1846 O1847 2.454 . S
U1846 O1848 2.458 . S
U1846 C1849 2.984 . S
U1846 C1850 2.847 . S
U1846 C1863 2.882 . S
U1846 O1864 2.441 . S
U1846 O1865 2.420 . S
U1846 O1866 2.455 . S
U1846 O1867 2.449 . S
O1847 U1846 2.454 . S
O1847 C1849 1.353 . S
O1848 U1846 2.458 . S
O1848 C1849 1.286 . S
C1849 U1846 2.984 . S
C1849 O1847 1.353 . S
C1849 O1848 1.286 . S
C1849 C1851 1.363 . S
C1850 C1840 1.465 . S
C1850 U1846 2.847 . S
C1850 O1864 1.249 . S
C1850 O1865 1.202 . S
C1851 C1849 1.363 . S
C1851 C1853 1.408 . S
C1851 C1856 1.342 . S
C1852 C1853 1.310 . S
C1852 C1855 1.461 . S
C1852 H1872 0.932 . S
C1853 C1851 1.408 . S
C1853 C1852 1.310 . S
C1853 H1873 0.930 . S
C1854 C1855 1.474 . S
C1854 C1856 1.285 . S
C1854 H1874 0.929 . S
C1855 C1852 1.461 . S
C1855 C1854 1.474 . S
C1856 C1851 1.342 . S
C1856 C1854 1.285 . S
C1856 H1875 0.930 . S
C1857 C1860 1.424 . S
C1857 C1862 1.245 . S
C1857 C1863 1.428 . S
C1858 C1861 1.260 . S
C1858 C1862 1.477 . S
C1858 H1876 0.932 . S
C1859 C1860 1.384 . S
C1859 C1861 1.479 . S
C1859 H1877 0.929 . S
C1860 C1857 1.424 . S
C1860 C1859 1.384 . S
C1860 H1878 0.928 . S
C1861 C1858 1.260 . S
C1861 C1859 1.479 . S
C1862 C1857 1.245 . S
C1862 C1858 1.477 . S
C1862 H1879 0.932 . S
C1863 U1846 2.882 . S
C1863 C1857 1.428 . S
C1863 O1866 1.301 . S
C1863 O1867 1.282 . S
O1864 U1846 2.441 . S
O1864 C1850 1.249 . S
O1865 U1846 2.420 . S
O1865 C1850 1.202 . S
O1866 U1846 2.455 . S
O1866 C1863 1.301 . S
O1867 U1846 2.449 . S
O1867 C1863 1.282 . S
H1868 C1841 0.931 . S
H1869 C1843 0.929 . S
H1870 C1844 0.930 . S
H1871 C1845 0.931 . S
H1872 C1852 0.932 . S
H1873 C1853 0.930 . S
H1874 C1854 0.929 . S
H1875 C1856 0.930 . S
H1876 C1858 0.932 . S
H1877 C1859 0.929 . S
H1878 C1860 0.928 . S
H1879 C1862 0.932 . S
C1880 C1881 1.264 . S
C1880 C1885 1.479 . S
C1880 C1890 1.465 . S
C1881 C1880 1.264 . S
C1881 C1883 1.339 . S
C1881 H1908 0.931 . S
C1882 C1883 1.395 . S
C1882 C1884 1.320 . S
C1883 C1881 1.339 . S
C1883 C1882 1.395 . S
C1883 H1909 0.929 . S
C1884 C1882 1.320 . S
C1884 C1885 1.405 . S
C1884 H1910 0.930 . S
C1885 C1880 1.479 . S
C1885 C1884 1.405 . S
C1885 H1911 0.931 . S
U1886 O1887 2.454 . S
U1886 O1888 2.458 . S
U1886 C1889 2.984 . S
U1886 C1890 2.847 . S
U1886 C1903 2.882 . S
U1886 O1904 2.441 . S
U1886 O1905 2.420 . S
U1886 O1906 2.455 . S
U1886 O1907 2.449 . S
O1887 U1886 2.454 . S
O1887 C1889 1.353 . S
O1888 U1886 2.458 . S
O1888 C1889 1.286 . S
C1889 U1886 2.984 . S
C1889 O1887 1.353 . S
C1889 O1888 1.286 . S
C1889 C1891 1.363 . S
C1890 C1880 1.465 . S
C1890 U1886 2.847 . S
C1890 O1904 1.249 . S
C1890 O1905 1.202 . S
C1891 C1889 1.363 . S
C1891 C1893 1.408 . S
C1891 C1896 1.342 . S
C1892 C1893 1.310 . S
C1892 C1895 1.461 . S
C1892 H1912 0.932 . S
C1893 C1891 1.408 . S
C1893 C1892 1.310 . S
C1893 H1913 0.930 . S
C1894 C1895 1.474 . S
C1894 C1896 1.285 . S
C1894 H1914 0.929 . S
C1895 C1892 1.461 . S
C1895 C1894 1.474 . S
C1896 C1891 1.342 . S
C1896 C1894 1.285 . S
C1896 H1915 0.930 . S
C1897 C1900 1.424 . S
C1897 C1902 1.245 . S
C1897 C1903 1.428 . S
C1898 C1901 1.260 . S
C1898 C1902 1.477 . S
C1898 H1916 0.932 . S
C1899 C1900 1.384 . S
C1899 C1901 1.479 . S
C1899 H1917 0.929 . S
C1900 C1897 1.424 . S
C1900 C1899 1.384 . S
C1900 H1918 0.928 . S
C1901 C1898 1.260 . S
C1901 C1899 1.479 . S
C1902 C1897 1.245 . S
C1902 C1898 1.477 . S
C1902 H1919 0.932 . S
C1903 U1886 2.882 . S
C1903 C1897 1.428 . S
C1903 O1906 1.301 . S
C1903 O1907 1.282 . S
O1904 U1886 2.441 . S
O1904 C1890 1.249 . S
O1905 U1886 2.420 . S
O1905 C1890 1.202 . S
O1906 U1886 2.455 . S
O1906 C1903 1.301 . S
O1907 U1886 2.449 . S
O1907 C1903 1.282 . S
H1908 C1881 0.931 . S
H1909 C1883 0.929 . S
H1910 C1884 0.930 . S
H1911 C1885 0.931 . S
H1912 C1892 0.932 . S
H1913 C1893 0.930 . S
H1914 C1894 0.929 . S
H1915 C1896 0.930 . S
H1916 C1898 0.932 . S
H1917 C1899 0.929 . S
H1918 C1900 0.928 . S
H1919 C1902 0.932 . S
C1920 C1921 1.264 . S
C1920 C1925 1.479 . S
C1920 C1930 1.465 . S
C1921 C1920 1.264 . S
C1921 C1923 1.339 . S
C1921 H1948 0.931 . S
C1922 C1923 1.395 . S
C1922 C1924 1.320 . S
C1923 C1921 1.339 . S
C1923 C1922 1.395 . S
C1923 H1949 0.929 . S
C1924 C1922 1.320 . S
C1924 C1925 1.405 . S
C1924 H1950 0.930 . S
C1925 C1920 1.479 . S
C1925 C1924 1.405 . S
C1925 H1951 0.931 . S
U1926 O1927 2.454 . S
U1926 O1928 2.458 . S
U1926 C1929 2.984 . S
U1926 C1930 2.847 . S
U1926 C1943 2.882 . S
U1926 O1944 2.441 . S
U1926 O1945 2.420 . S
U1926 O1946 2.455 . S
U1926 O1947 2.449 . S
O1927 U1926 2.454 . S
O1927 C1929 1.353 . S
O1928 U1926 2.458 . S
O1928 C1929 1.286 . S
C1929 U1926 2.984 . S
C1929 O1927 1.353 . S
C1929 O1928 1.286 . S
C1929 C1931 1.363 . S
C1930 C1920 1.465 . S
C1930 U1926 2.847 . S
C1930 O1944 1.249 . S
C1930 O1945 1.202 . S
C1931 C1929 1.363 . S
C1931 C1933 1.408 . S
C1931 C1936 1.342 . S
C1932 C1933 1.310 . S
C1932 C1935 1.461 . S
C1932 H1952 0.932 . S
C1933 C1931 1.408 . S
C1933 C1932 1.310 . S
C1933 H1953 0.930 . S
C1934 C1935 1.474 . S
C1934 C1936 1.285 . S
C1934 H1954 0.929 . S
C1935 C1932 1.461 . S
C1935 C1934 1.474 . S
C1936 C1931 1.342 . S
C1936 C1934 1.285 . S
C1936 H1955 0.930 . S
C1937 C1940 1.424 . S
C1937 C1942 1.245 . S
C1937 C1943 1.428 . S
C1938 C1941 1.260 . S
C1938 C1942 1.477 . S
C1938 H1956 0.932 . S
C1939 C1940 1.384 . S
C1939 C1941 1.479 . S
C1939 H1957 0.929 . S
C1940 C1937 1.424 . S
C1940 C1939 1.384 . S
C1940 H1958 0.928 . S
C1941 C1938 1.260 . S
C1941 C1939 1.479 . S
C1942 C1937 1.245 . S
C1942 C1938 1.477 . S
C1942 H1959 0.932 . S
C1943 U1926 2.882 . S
C1943 C1937 1.428 . S
C1943 O1946 1.301 . S
C1943 O1947 1.282 . S
O1944 U1926 2.441 . S
O1944 C1930 1.249 . S
O1945 U1926 2.420 . S
O1945 C1930 1.202 . S
O1946 U1926 2.455 . S
O1946 C1943 1.301 . S
O1947 U1926 2.449 . S
O1947 C1943 1.282 . S
H1948 C1921 0.931 . S
H1949 C1923 0.929 . S
H1950 C1924 0.930 . S
H1951 C1925 0.931 . S
H1952 C1932 0.932 . S
H1953 C1933 0.930 . S
H1954 C1934 0.929 . S
H1955 C1936 0.930 . S
H1956 C1938 0.932 . S
H1957 C1939 0.929 . S
H1958 C1940 0.928 . S
H1959 C1942 0.932 . S
C1960 C1961 1.264 . S
C1960 C1965 1.479 . S
C1960 C1970 1.465 . S
C1961 C1960 1.264 . S
C1961 C1963 1.339 . S
C1961 H1988 0.931 . S
C1962 C1963 1.395 . S
C1962 C1964 1.320 . S
C1963 C1961 1.339 . S
C1963 C1962 1.395 . S
C1963 H1989 0.929 . S
C1964 C1962 1.320 . S
C1964 C1965 1.405 . S
C1964 H1990 0.930 . S
C1965 C1960 1.479 . S
C1965 C1964 1.405 . S
C1965 H1991 0.931 . S
U1966 O1967 2.454 . S
U1966 O1968 2.458 . S
U1966 C1969 2.984 . S
U1966 C1970 2.847 . S
U1966 C1983 2.882 . S
U1966 O1984 2.441 . S
U1966 O1985 2.420 . S
U1966 O1986 2.455 . S
U1966 O1987 2.449 . S
O1967 U1966 2.454 . S
O1967 C1969 1.353 . S
O1968 U1966 2.458 . S
O1968 C1969 1.286 . S
C1969 U1966 2.984 . S
C1969 O1967 1.353 . S
C1969 O1968 1.286 . S
C1969 C1971 1.363 . S
C1970 C1960 1.465 . S
C1970 U1966 2.847 . S
C1970 O1984 1.249 . S
C1970 O1985 1.202 . S
C1971 C1969 1.363 . S
C1971 C1973 1.408 . S
C1971 C1976 1.342 . S
C1972 C1973 1.310 . S
C1972 C1975 1.461 . S
C1972 H1992 0.932 . S
C1973 C1971 1.408 . S
C1973 C1972 1.310 . S
C1973 H1993 0.930 . S
C1974 C1975 1.474 . S
C1974 C1976 1.285 . S
C1974 H1994 0.929 . S
C1975 C1972 1.461 . S
C1975 C1974 1.474 . S
C1976 C1971 1.342 . S
C1976 C1974 1.285 . S
C1976 H1995 0.930 . S
C1977 C1980 1.424 . S
C1977 C1982 1.245 . S
C1977 C1983 1.428 . S
C1978 C1981 1.260 . S
C1978 C1982 1.477 . S
C1978 H1996 0.932 . S
C1979 C1980 1.384 . S
C1979 C1981 1.479 . S
C1979 H1997 0.929 . S
C1980 C1977 1.424 . S
C1980 C1979 1.384 . S
C1980 H1998 0.928 . S
C1981 C1978 1.260 . S
C1981 C1979 1.479 . S
C1982 C1977 1.245 . S
C1982 C1978 1.477 . S
C1982 H1999 0.932 . S
C1983 U1966 2.882 . S
C1983 C1977 1.428 . S
C1983 O1986 1.301 . S
C1983 O1987 1.282 . S
O1984 U1966 2.441 . S
O1984 C1970 1.249 . S
O1985 U1966 2.420 . S
O1985 C1970 1.202 . S
O1986 U1966 2.455 . S
O1986 C1983 1.301 . S
O1987 U1966 2.449 . S
O1987 C1983 1.282 . S
H1988 C1961 0.931 . S
H1989 C1963 0.929 . S
H1990 C1964 0.930 . S
H1991 C1965 0.931 . S
H1992 C1972 0.932 . S
H1993 C1973 0.930 . S
H1994 C1974 0.929 . S
H1995 C1976 0.930 . S
H1996 C1978 0.932 . S
H1997 C1979 0.929 . S
H1998 C1980 0.928 . S
H1999 C1982 0.932 . S
C2000 C2001 1.264 . S
C2000 C2005 1.479 . S
C2000 C2010 1.465 . S
C2001 C2000 1.264 . S
C2001 C2003 1.339 . S
C2001 H2028 0.931 . S
C2002 C2003 1.395 . S
C2002 C2004 1.320 . S
C2003 C2001 1.339 . S
C2003 C2002 1.395 . S
C2003 H2029 0.929 . S
C2004 C2002 1.320 . S
C2004 C2005 1.405 . S
C2004 H2030 0.930 . S
C2005 C2000 1.479 . S
C2005 C2004 1.405 . S
C2005 H2031 0.931 . S
U2006 O2007 2.454 . S
U2006 O2008 2.458 . S
U2006 C2009 2.984 . S
U2006 C2010 2.847 . S
U2006 C2023 2.882 . S
U2006 O2024 2.441 . S
U2006 O2025 2.420 . S
U2006 O2026 2.455 . S
U2006 O2027 2.449 . S
O2007 U2006 2.454 . S
O2007 C2009 1.353 . S
O2008 U2006 2.458 . S
O2008 C2009 1.286 . S
C2009 U2006 2.984 . S
C2009 O2007 1.353 . S
C2009 O2008 1.286 . S
C2009 C2011 1.363 . S
C2010 C2000 1.465 . S
C2010 U2006 2.847 . S
C2010 O2024 1.249 . S
C2010 O2025 1.202 . S
C2011 C2009 1.363 . S
C2011 C2013 1.408 . S
C2011 C2016 1.342 . S
C2012 C2013 1.310 . S
C2012 C2015 1.461 . S
C2012 H2032 0.932 . S
C2013 C2011 1.408 . S
C2013 C2012 1.310 . S
C2013 H2033 0.930 . S
C2014 C2015 1.474 . S
C2014 C2016 1.285 . S
C2014 H2034 0.929 . S
C2015 C2012 1.461 . S
C2015 C2014 1.474 . S
C2016 C2011 1.342 . S
C2016 C2014 1.285 . S
C2016 H2035 0.930 . S
C2017 C2020 1.424 . S
C2017 C2022 1.245 . S
C2017 C2023 1.428 . S
C2018 C2021 1.260 . S
C2018 C2022 1.477 . S
C2018 H2036 0.932 . S
C2019 C2020 1.384 . S
C2019 C2021 1.479 . S
C2019 H2037 0.929 . S
C2020 C2017 1.424 . S
C2020 C2019 1.384 . S
C2020 H2038 0.928 . S
C2021 C2018 1.260 . S
C2021 C2019 1.479 . S
C2022 C2017 1.245 . S
C2022 C2018 1.477 . S
C2022 H2039 0.932 . S
C2023 U2006 2.882 . S
C2023 C2017 1.428 . S
C2023 O2026 1.301 . S
C2023 O2027 1.282 . S
O2024 U2006 2.441 . S
O2024 C2010 1.249 . S
O2025 U2006 2.420 . S
O2025 C2010 1.202 . S
O2026 U2006 2.455 . S
O2026 C2023 1.301 . S
O2027 U2006 2.449 . S
O2027 C2023 1.282 . S
H2028 C2001 0.931 . S
H2029 C2003 0.929 . S
H2030 C2004 0.930 . S
H2031 C2005 0.931 . S
H2032 C2012 0.932 . S
H2033 C2013 0.930 . S
H2034 C2014 0.929 . S
H2035 C2016 0.930 . S
H2036 C2018 0.932 . S
H2037 C2019 0.929 . S
H2038 C2020 0.928 . S
H2039 C2022 0.932 . S
C2040 C2041 1.264 . S
C2040 C2045 1.479 . S
C2040 C2050 1.465 . S
C2041 C2040 1.264 . S
C2041 C2043 1.339 . S
C2041 H2068 0.931 . S
C2042 C2043 1.395 . S
C2042 C2044 1.320 . S
C2043 C2041 1.339 . S
C2043 C2042 1.395 . S
C2043 H2069 0.929 . S
C2044 C2042 1.320 . S
C2044 C2045 1.405 . S
C2044 H2070 0.930 . S
C2045 C2040 1.479 . S
C2045 C2044 1.405 . S
C2045 H2071 0.931 . S
U2046 O2047 2.454 . S
U2046 O2048 2.458 . S
U2046 C2049 2.984 . S
U2046 C2050 2.847 . S
U2046 C2063 2.882 . S
U2046 O2064 2.441 . S
U2046 O2065 2.420 . S
U2046 O2066 2.455 . S
U2046 O2067 2.449 . S
O2047 U2046 2.454 . S
O2047 C2049 1.353 . S
O2048 U2046 2.458 . S
O2048 C2049 1.286 . S
C2049 U2046 2.984 . S
C2049 O2047 1.353 . S
C2049 O2048 1.286 . S
C2049 C2051 1.363 . S
C2050 C2040 1.465 . S
C2050 U2046 2.847 . S
C2050 O2064 1.249 . S
C2050 O2065 1.202 . S
C2051 C2049 1.363 . S
C2051 C2053 1.408 . S
C2051 C2056 1.342 . S
C2052 C2053 1.310 . S
C2052 C2055 1.461 . S
C2052 H2072 0.932 . S
C2053 C2051 1.408 . S
C2053 C2052 1.310 . S
C2053 H2073 0.930 . S
C2054 C2055 1.474 . S
C2054 C2056 1.285 . S
C2054 H2074 0.929 . S
C2055 C2052 1.461 . S
C2055 C2054 1.474 . S
C2056 C2051 1.342 . S
C2056 C2054 1.285 . S
C2056 H2075 0.930 . S
C2057 C2060 1.424 . S
C2057 C2062 1.245 . S
C2057 C2063 1.428 . S
C2058 C2061 1.260 . S
C2058 C2062 1.477 . S
C2058 H2076 0.932 . S
C2059 C2060 1.384 . S
C2059 C2061 1.479 . S
C2059 H2077 0.929 . S
C2060 C2057 1.424 . S
C2060 C2059 1.384 . S
C2060 H2078 0.928 . S
C2061 C2058 1.260 . S
C2061 C2059 1.479 . S
C2062 C2057 1.245 . S
C2062 C2058 1.477 . S
C2062 H2079 0.932 . S
C2063 U2046 2.882 . S
C2063 C2057 1.428 . S
C2063 O2066 1.301 . S
C2063 O2067 1.282 . S
O2064 U2046 2.441 . S
O2064 C2050 1.249 . S
O2065 U2046 2.420 . S
O2065 C2050 1.202 . S
O2066 U2046 2.455 . S
O2066 C2063 1.301 . S
O2067 U2046 2.449 . S
O2067 C2063 1.282 . S
H2068 C2041 0.931 . S
H2069 C2043 0.929 . S
H2070 C2044 0.930 . S
H2071 C2045 0.931 . S
H2072 C2052 0.932 . S
H2073 C2053 0.930 . S
H2074 C2054 0.929 . S
H2075 C2056 0.930 . S
H2076 C2058 0.932 . S
H2077 C2059 0.929 . S
H2078 C2060 0.928 . S
H2079 C2062 0.932 . S
C2080 C2081 1.264 . S
C2080 C2085 1.479 . S
C2080 C2090 1.465 . S
C2081 C2080 1.264 . S
C2081 C2083 1.339 . S
C2081 H2108 0.931 . S
C2082 C2083 1.395 . S
C2082 C2084 1.320 . S
C2083 C2081 1.339 . S
C2083 C2082 1.395 . S
C2083 H2109 0.929 . S
C2084 C2082 1.320 . S
C2084 C2085 1.405 . S
C2084 H2110 0.930 . S
C2085 C2080 1.479 . S
C2085 C2084 1.405 . S
C2085 H2111 0.931 . S
U2086 O2087 2.454 . S
U2086 O2088 2.458 . S
U2086 C2089 2.984 . S
U2086 C2090 2.847 . S
U2086 C2103 2.882 . S
U2086 O2104 2.441 . S
U2086 O2105 2.420 . S
U2086 O2106 2.455 . S
U2086 O2107 2.449 . S
O2087 U2086 2.454 . S
O2087 C2089 1.353 . S
O2088 U2086 2.458 . S
O2088 C2089 1.286 . S
C2089 U2086 2.984 . S
C2089 O2087 1.353 . S
C2089 O2088 1.286 . S
C2089 C2091 1.363 . S
C2090 C2080 1.465 . S
C2090 U2086 2.847 . S
C2090 O2104 1.249 . S
C2090 O2105 1.202 . S
C2091 C2089 1.363 . S
C2091 C2093 1.408 . S
C2091 C2096 1.342 . S
C2092 C2093 1.310 . S
C2092 C2095 1.461 . S
C2092 H2112 0.932 . S
C2093 C2091 1.408 . S
C2093 C2092 1.310 . S
C2093 H2113 0.930 . S
C2094 C2095 1.474 . S
C2094 C2096 1.285 . S
C2094 H2114 0.929 . S
C2095 C2092 1.461 . S
C2095 C2094 1.474 . S
C2096 C2091 1.342 . S
C2096 C2094 1.285 . S
C2096 H2115 0.930 . S
C2097 C2100 1.424 . S
C2097 C2102 1.245 . S
C2097 C2103 1.428 . S
C2098 C2101 1.260 . S
C2098 C2102 1.477 . S
C2098 H2116 0.932 . S
C2099 C2100 1.384 . S
C2099 C2101 1.479 . S
C2099 H2117 0.929 . S
C2100 C2097 1.424 . S
C2100 C2099 1.384 . S
C2100 H2118 0.928 . S
C2101 C2098 1.260 . S
C2101 C2099 1.479 . S
C2102 C2097 1.245 . S
C2102 C2098 1.477 . S
C2102 H2119 0.932 . S
C2103 U2086 2.882 . S
C2103 C2097 1.428 . S
C2103 O2106 1.301 . S
C2103 O2107 1.282 . S
O2104 U2086 2.441 . S
O2104 C2090 1.249 . S
O2105 U2086 2.420 . S
O2105 C2090 1.202 . S
O2106 U2086 2.455 . S
O2106 C2103 1.301 . S
O2107 U2086 2.449 . S
O2107 C2103 1.282 . S
H2108 C2081 0.931 . S
H2109 C2083 0.929 . S
H2110 C2084 0.930 . S
H2111 C2085 0.931 . S
H2112 C2092 0.932 . S
H2113 C2093 0.930 . S
H2114 C2094 0.929 . S
H2115 C2096 0.930 . S
H2116 C2098 0.932 . S
H2117 C2099 0.929 . S
H2118 C2100 0.928 . S
H2119 C2102 0.932 . S
C2120 C2121 1.264 . S
C2120 C2125 1.479 . S
C2120 C2130 1.465 . S
C2121 C2120 1.264 . S
C2121 C2123 1.339 . S
C2121 H2148 0.931 . S
C2122 C2123 1.395 . S
C2122 C2124 1.320 . S
C2123 C2121 1.339 . S
C2123 C2122 1.395 . S
C2123 H2149 0.929 . S
C2124 C2122 1.320 . S
C2124 C2125 1.405 . S
C2124 H2150 0.930 . S
C2125 C2120 1.479 . S
C2125 C2124 1.405 . S
C2125 H2151 0.931 . S
U2126 O2127 2.454 . S
U2126 O2128 2.458 . S
U2126 C2129 2.984 . S
U2126 C2130 2.847 . S
U2126 C2143 2.882 . S
U2126 O2144 2.441 . S
U2126 O2145 2.420 . S
U2126 O2146 2.455 . S
U2126 O2147 2.449 . S
O2127 U2126 2.454 . S
O2127 C2129 1.353 . S
O2128 U2126 2.458 . S
O2128 C2129 1.286 . S
C2129 U2126 2.984 . S
C2129 O2127 1.353 . S
C2129 O2128 1.286 . S
C2129 C2131 1.363 . S
C2130 C2120 1.465 . S
C2130 U2126 2.847 . S
C2130 O2144 1.249 . S
C2130 O2145 1.202 . S
C2131 C2129 1.363 . S
C2131 C2133 1.408 . S
C2131 C2136 1.342 . S
C2132 C2133 1.310 . S
C2132 C2135 1.461 . S
C2132 H2152 0.932 . S
C2133 C2131 1.408 . S
C2133 C2132 1.310 . S
C2133 H2153 0.930 . S
C2134 C2135 1.474 . S
C2134 C2136 1.285 . S
C2134 H2154 0.929 . S
C2135 C2132 1.461 . S
C2135 C2134 1.474 . S
C2136 C2131 1.342 . S
C2136 C2134 1.285 . S
C2136 H2155 0.930 . S
C2137 C2140 1.424 . S
C2137 C2142 1.245 . S
C2137 C2143 1.428 . S
C2138 C2141 1.260 . S
C2138 C2142 1.477 . S
C2138 H2156 0.932 . S
C2139 C2140 1.384 . S
C2139 C2141 1.479 . S
C2139 H2157 0.929 . S
C2140 C2137 1.424 . S
C2140 C2139 1.384 . S
C2140 H2158 0.928 . S
C2141 C2138 1.260 . S
C2141 C2139 1.479 . S
C2142 C2137 1.245 . S
C2142 C2138 1.477 . S
C2142 H2159 0.932 . S
C2143 U2126 2.882 . S
C2143 C2137 1.428 . S
C2143 O2146 1.301 . S
C2143 O2147 1.282 . S
O2144 U2126 2.441 . S
O2144 C2130 1.249 . S
O2145 U2126 2.420 . S
O2145 C2130 1.202 . S
O2146 U2126 2.455 . S
O2146 C2143 1.301 . S
O2147 U2126 2.449 . S
O2147 C2143 1.282 . S
H2148 C2121 0.931 . S
H2149 C2123 0.929 . S
H2150 C2124 0.930 . S
H2151 C2125 0.931 . S
H2152 C2132 0.932 . S
H2153 C2133 0.930 . S
H2154 C2134 0.929 . S
H2155 C2136 0.930 . S
H2156 C2138 0.932 . S
H2157 C2139 0.929 . S
H2158 C2140 0.928 . S
H2159 C2142 0.932 . S
C2160 C2161 1.264 . S
C2160 C2165 1.479 . S
C2160 C2170 1.465 . S
C2161 C2160 1.264 . S
C2161 C2163 1.339 . S
C2161 H2188 0.931 . S
C2162 C2163 1.395 . S
C2162 C2164 1.320 . S
C2163 C2161 1.339 . S
C2163 C2162 1.395 . S
C2163 H2189 0.929 . S
C2164 C2162 1.320 . S
C2164 C2165 1.405 . S
C2164 H2190 0.930 . S
C2165 C2160 1.479 . S
C2165 C2164 1.405 . S
C2165 H2191 0.931 . S
U2166 O2167 2.454 . S
U2166 O2168 2.458 . S
U2166 C2169 2.984 . S
U2166 C2170 2.847 . S
U2166 C2183 2.882 . S
U2166 O2184 2.441 . S
U2166 O2185 2.420 . S
U2166 O2186 2.455 . S
U2166 O2187 2.449 . S
O2167 U2166 2.454 . S
O2167 C2169 1.353 . S
O2168 U2166 2.458 . S
O2168 C2169 1.286 . S
C2169 U2166 2.984 . S
C2169 O2167 1.353 . S
C2169 O2168 1.286 . S
C2169 C2171 1.363 . S
C2170 C2160 1.465 . S
C2170 U2166 2.847 . S
C2170 O2184 1.249 . S
C2170 O2185 1.202 . S
C2171 C2169 1.363 . S
C2171 C2173 1.408 . S
C2171 C2176 1.342 . S
C2172 C2173 1.310 . S
C2172 C2175 1.461 . S
C2172 H2192 0.932 . S
C2173 C2171 1.408 . S
C2173 C2172 1.310 . S
C2173 H2193 0.930 . S
C2174 C2175 1.474 . S
C2174 C2176 1.285 . S
C2174 H2194 0.929 . S
C2175 C2172 1.461 . S
C2175 C2174 1.474 . S
C2176 C2171 1.342 . S
C2176 C2174 1.285 . S
C2176 H2195 0.930 . S
C2177 C2180 1.424 . S
C2177 C2182 1.245 . S
C2177 C2183 1.428 . S
C2178 C2181 1.260 . S
C2178 C2182 1.477 . S
C2178 H2196 0.932 . S
C2179 C2180 1.384 . S
C2179 C2181 1.479 . S
C2179 H2197 0.929 . S
C2180 C2177 1.424 . S
C2180 C2179 1.384 . S
C2180 H2198 0.928 . S
C2181 C2178 1.260 . S
C2181 C2179 1.479 . S
C2182 C2177 1.245 . S
C2182 C2178 1.477 . S
C2182 H2199 0.932 . S
C2183 U2166 2.882 . S
C2183 C2177 1.428 . S
C2183 O2186 1.301 . S
C2183 O2187 1.282 . S
O2184 U2166 2.441 . S
O2184 C2170 1.249 . S
O2185 U2166 2.420 . S
O2185 C2170 1.202 . S
O2186 U2166 2.455 . S
O2186 C2183 1.301 . S
O2187 U2166 2.449 . S
O2187 C2183 1.282 . S
H2188 C2161 0.931 . S
H2189 C2163 0.929 . S
H2190 C2164 0.930 . S
H2191 C2165 0.931 . S
H2192 C2172 0.932 . S
H2193 C2173 0.930 . S
H2194 C2174 0.929 . S
H2195 C2176 0.930 . S
H2196 C2178 0.932 . S
H2197 C2179 0.929 . S
H2198 C2180 0.928 . S
H2199 C2182 0.932 . S
C2200 C2201 1.264 . S
C2200 C2205 1.479 . S
C2200 C2210 1.465 . S
C2201 C2200 1.264 . S
C2201 C2203 1.339 . S
C2201 H2228 0.931 . S
C2202 C2203 1.395 . S
C2202 C2204 1.320 . S
C2203 C2201 1.339 . S
C2203 C2202 1.395 . S
C2203 H2229 0.929 . S
C2204 C2202 1.320 . S
C2204 C2205 1.405 . S
C2204 H2230 0.930 . S
C2205 C2200 1.479 . S
C2205 C2204 1.405 . S
C2205 H2231 0.931 . S
U2206 O2207 2.454 . S
U2206 O2208 2.458 . S
U2206 C2209 2.984 . S
U2206 C2210 2.847 . S
U2206 C2223 2.882 . S
U2206 O2224 2.441 . S
U2206 O2225 2.420 . S
U2206 O2226 2.455 . S
U2206 O2227 2.449 . S
O2207 U2206 2.454 . S
O2207 C2209 1.353 . S
O2208 U2206 2.458 . S
O2208 C2209 1.286 . S
C2209 U2206 2.984 . S
C2209 O2207 1.353 . S
C2209 O2208 1.286 . S
C2209 C2211 1.363 . S
C2210 C2200 1.465 . S
C2210 U2206 2.847 . S
C2210 O2224 1.249 . S
C2210 O2225 1.202 . S
C2211 C2209 1.363 . S
C2211 C2213 1.408 . S
C2211 C2216 1.342 . S
C2212 C2213 1.310 . S
C2212 C2215 1.461 . S
C2212 H2232 0.932 . S
C2213 C2211 1.408 . S
C2213 C2212 1.310 . S
C2213 H2233 0.930 . S
C2214 C2215 1.474 . S
C2214 C2216 1.285 . S
C2214 H2234 0.929 . S
C2215 C2212 1.461 . S
C2215 C2214 1.474 . S
C2216 C2211 1.342 . S
C2216 C2214 1.285 . S
C2216 H2235 0.930 . S
C2217 C2220 1.424 . S
C2217 C2222 1.245 . S
C2217 C2223 1.428 . S
C2218 C2221 1.260 . S
C2218 C2222 1.477 . S
C2218 H2236 0.932 . S
C2219 C2220 1.384 . S
C2219 C2221 1.479 . S
C2219 H2237 0.929 . S
C2220 C2217 1.424 . S
C2220 C2219 1.384 . S
C2220 H2238 0.928 . S
C2221 C2218 1.260 . S
C2221 C2219 1.479 . S
C2222 C2217 1.245 . S
C2222 C2218 1.477 . S
C2222 H2239 0.932 . S
C2223 U2206 2.882 . S
C2223 C2217 1.428 . S
C2223 O2226 1.301 . S
C2223 O2227 1.282 . S
O2224 U2206 2.441 . S
O2224 C2210 1.249 . S
O2225 U2206 2.420 . S
O2225 C2210 1.202 . S
O2226 U2206 2.455 . S
O2226 C2223 1.301 . S
O2227 U2206 2.449 . S
O2227 C2223 1.282 . S
H2228 C2201 0.931 . S
H2229 C2203 0.929 . S
H2230 C2204 0.930 . S
H2231 C2205 0.931 . S
H2232 C2212 0.932 . S
H2233 C2213 0.930 . S
H2234 C2214 0.929 . S
H2235 C2216 0.930 . S
H2236 C2218 0.932 . S
H2237 C2219 0.929 . S
H2238 C2220 0.928 . S
H2239 C2222 0.932 . S
C2240 C2241 1.264 . S
C2240 C2245 1.479 . S
C2240 C2250 1.465 . S
C2241 C2240 1.264 . S
C2241 C2243 1.339 . S
C2241 H2268 0.931 . S
C2242 C2243 1.395 . S
C2242 C2244 1.320 . S
C2243 C2241 1.339 . S
C2243 C2242 1.395 . S
C2243 H2269 0.929 . S
C2244 C2242 1.320 . S
C2244 C2245 1.405 . S
C2244 H2270 0.930 . S
C2245 C2240 1.479 . S
C2245 C2244 1.405 . S
C2245 H2271 0.931 . S
U2246 O2247 2.454 . S
U2246 O2248 2.458 . S
U2246 C2249 2.984 . S
U2246 C2250 2.847 . S
U2246 C2263 2.882 . S
U2246 O2264 2.441 . S
U2246 O2265 2.420 . S
U2246 O2266 2.455 . S
U2246 O2267 2.449 . S
O2247 U2246 2.454 . S
O2247 C2249 1.353 . S
O2248 U2246 2.458 . S
O2248 C2249 1.286 . S
C2249 U2246 2.984 . S
C2249 O2247 1.353 . S
C2249 O2248 1.286 . S
C2249 C2251 1.363 . S
C2250 C2240 1.465 . S
C2250 U2246 2.847 . S
C2250 O2264 1.249 . S
C2250 O2265 1.202 . S
C2251 C2249 1.363 . S
C2251 C2253 1.408 . S
C2251 C2256 1.342 . S
C2252 C2253 1.310 . S
C2252 C2255 1.461 . S
C2252 H2272 0.932 . S
C2253 C2251 1.408 . S
C2253 C2252 1.310 . S
C2253 H2273 0.930 . S
C2254 C2255 1.474 . S
C2254 C2256 1.285 . S
C2254 H2274 0.929 . S
C2255 C2252 1.461 . S
C2255 C2254 1.474 . S
C2256 C2251 1.342 . S
C2256 C2254 1.285 . S
C2256 H2275 0.930 . S
C2257 C2260 1.424 . S
C2257 C2262 1.245 . S
C2257 C2263 1.428 . S
C2258 C2261 1.260 . S
C2258 C2262 1.477 . S
C2258 H2276 0.932 . S
C2259 C2260 1.384 . S
C2259 C2261 1.479 . S
C2259 H2277 0.929 . S
C2260 C2257 1.424 . S
C2260 C2259 1.384 . S
C2260 H2278 0.928 . S
C2261 C2258 1.260 . S
C2261 C2259 1.479 . S
C2262 C2257 1.245 . S
C2262 C2258 1.477 . S
C2262 H2279 0.932 . S
C2263 U2246 2.882 . S
C2263 C2257 1.428 . S
C2263 O2266 1.301 . S
C2263 O2267 1.282 . S
O2264 U2246 2.441 . S
O2264 C2250 1.249 . S
O2265 U2246 2.420 . S
O2265 C2250 1.202 . S
O2266 U2246 2.455 . S
O2266 C2263 1.301 . S
O2267 U2246 2.449 . S
O2267 C2263 1.282 . S
H2268 C2241 0.931 . S
H2269 C2243 0.929 . S
H2270 C2244 0.930 . S
H2271 C2245 0.931 . S
H2272 C2252 0.932 . S
H2273 C2253 0.930 . S
H2274 C2254 0.929 . S
H2275 C2256 0.930 . S
H2276 C2258 0.932 . S
H2277 C2259 0.929 . S
H2278 C2260 0.928 . S
H2279 C2262 0.932 . S
C2280 C2281 1.264 . S
C2280 C2285 1.479 . S
C2280 C2290 1.465 . S
C2281 C2280 1.264 . S
C2281 C2283 1.339 . S
C2281 H2308 0.931 . S
C2282 C2283 1.395 . S
C2282 C2284 1.320 . S
C2283 C2281 1.339 . S
C2283 C2282 1.395 . S
C2283 H2309 0.929 . S
C2284 C2282 1.320 . S
C2284 C2285 1.405 . S
C2284 H2310 0.930 . S
C2285 C2280 1.479 . S
C2285 C2284 1.405 . S
C2285 H2311 0.931 . S
U2286 O2287 2.454 . S
U2286 O2288 2.458 . S
U2286 C2289 2.984 . S
U2286 C2290 2.847 . S
U2286 C2303 2.882 . S
U2286 O2304 2.441 . S
U2286 O2305 2.420 . S
U2286 O2306 2.455 . S
U2286 O2307 2.449 . S
O2287 U2286 2.454 . S
O2287 C2289 1.353 . S
O2288 U2286 2.458 . S
O2288 C2289 1.286 . S
C2289 U2286 2.984 . S
C2289 O2287 1.353 . S
C2289 O2288 1.286 . S
C2289 C2291 1.363 . S
C2290 C2280 1.465 . S
C2290 U2286 2.847 . S
C2290 O2304 1.249 . S
C2290 O2305 1.202 . S
C2291 C2289 1.363 . S
C2291 C2293 1.408 . S
C2291 C2296 1.342 . S
C2292 C2293 1.310 . S
C2292 C2295 1.461 . S
C2292 H2312 0.932 . S
C2293 C2291 1.408 . S
C2293 C2292 1.310 . S
C2293 H2313 0.930 . S
C2294 C2295 1.474 . S
C2294 C2296 1.285 . S
C2294 H2314 0.929 . S
C2295 C2292 1.461 . S
C2295 C2294 1.474 . S
C2296 C2291 1.342 . S
C2296 C2294 1.285 . S
C2296 H2315 0.930 . S
C2297 C2300 1.424 . S
C2297 C2302 1.245 . S
C2297 C2303 1.428 . S
C2298 C2301 1.260 . S
C2298 C2302 1.477 . S
C2298 H2316 0.932 . S
C2299 C2300 1.384 . S
C2299 C2301 1.479 . S
C2299 H2317 0.929 . S
C2300 C2297 1.424 . S
C2300 C2299 1.384 . S
C2300 H2318 0.928 . S
C2301 C2298 1.260 . S
C2301 C2299 1.479 . S
C2302 C2297 1.245 . S
C2302 C2298 1.477 . S
C2302 H2319 0.932 . S
C2303 U2286 2.882 . S
C2303 C2297 1.428 . S
C2303 O2306 1.301 . S
C2303 O2307 1.282 . S
O2304 U2286 2.441 . S
O2304 C2290 1.249 . S
O2305 U2286 2.420 . S
O2305 C2290 1.202 . S
O2306 U2286 2.455 . S
O2306 C2303 1.301 . S
O2307 U2286 2.449 . S
O2307 C2303 1.282 . S
H2308 C2281 0.931 . S
H2309 C2283 0.929 . S
H2310 C2284 0.930 . S
H2311 C2285 0.931 . S
H2312 C2292 0.932 . S
H2313 C2293 0.930 . S
H2314 C2294 0.929 . S
H2315 C2296 0.930 . S
H2316 C2298 0.932 . S
H2317 C2299 0.929 . S
H2318 C2300 0.928 . S
H2319 C2302 0.932 . S
C2320 C2321 1.264 . S
C2320 C2325 1.479 . S
C2320 C2330 1.465 . S
C2321 C2320 1.264 . S
C2321 C2323 1.339 . S
C2321 H2348 0.931 . S
C2322 C2323 1.395 . S
C2322 C2324 1.320 . S
C2323 C2321 1.339 . S
C2323 C2322 1.395 . S
C2323 H2349 0.929 . S
C2324 C2322 1.320 . S
C2324 C2325 1.405 . S
C2324 H2350 0.930 . S
C2325 C2320 1.479 . S
C2325 C2324 1.405 . S
C2325 H2351 0.931 . S
U2326 O2327 2.454 . S
U2326 O2328 2.458 . S
U2326 C2329 2.984 . S
U2326 C2330 2.847 . S
U2326 C2343 2.882 . S
U2326 O2344 2.441 . S
U2326 O2345 2.420 . S
U2326 O2346 2.455 . S
U2326 O2347 2.449 . S
O2327 U2326 2.454 . S
O2327 C2329 1.353 . S
O2328 U2326 2.458 . S
O2328 C2329 1.286 . S
C2329 U2326 2.984 . S
C2329 O2327 1.353 . S
C2329 O2328 1.286 . S
C2329 C2331 1.363 . S
C2330 C2320 1.465 . S
C2330 U2326 2.847 . S
C2330 O2344 1.249 . S
C2330 O2345 1.202 . S
C2331 C2329 1.363 . S
C2331 C2333 1.408 . S
C2331 C2336 1.342 . S
C2332 C2333 1.310 . S
C2332 C2335 1.461 . S
C2332 H2352 0.932 . S
C2333 C2331 1.408 . S
C2333 C2332 1.310 . S
C2333 H2353 0.930 . S
C2334 C2335 1.474 . S
C2334 C2336 1.285 . S
C2334 H2354 0.929 . S
C2335 C2332 1.461 . S
C2335 C2334 1.474 . S
C2336 C2331 1.342 . S
C2336 C2334 1.285 . S
C2336 H2355 0.930 . S
C2337 C2340 1.424 . S
C2337 C2342 1.245 . S
C2337 C2343 1.428 . S
C2338 C2341 1.260 . S
C2338 C2342 1.477 . S
C2338 H2356 0.932 . S
C2339 C2340 1.384 . S
C2339 C2341 1.479 . S
C2339 H2357 0.929 . S
C2340 C2337 1.424 . S
C2340 C2339 1.384 . S
C2340 H2358 0.928 . S
C2341 C2338 1.260 . S
C2341 C2339 1.479 . S
C2342 C2337 1.245 . S
C2342 C2338 1.477 . S
C2342 H2359 0.932 . S
C2343 U2326 2.882 . S
C2343 C2337 1.428 . S
C2343 O2346 1.301 . S
C2343 O2347 1.282 . S
O2344 U2326 2.441 . S
O2344 C2330 1.249 . S
O2345 U2326 2.420 . S
O2345 C2330 1.202 . S
O2346 U2326 2.455 . S
O2346 C2343 1.301 . S
O2347 U2326 2.449 . S
O2347 C2343 1.282 . S
H2348 C2321 0.931 . S
H2349 C2323 0.929 . S
H2350 C2324 0.930 . S
H2351 C2325 0.931 . S
H2352 C2332 0.932 . S
H2353 C2333 0.930 . S
H2354 C2334 0.929 . S
H2355 C2336 0.930 . S
H2356 C2338 0.932 . S
H2357 C2339 0.929 . S
H2358 C2340 0.928 . S
H2359 C2342 0.932 . S
C2360 C2361 1.264 . S
C2360 C2365 1.479 . S
C2360 C2370 1.465 . S
C2361 C2360 1.264 . S
C2361 C2363 1.339 . S
C2361 H2388 0.931 . S
C2362 C2363 1.395 . S
C2362 C2364 1.320 . S
C2363 C2361 1.339 . S
C2363 C2362 1.395 . S
C2363 H2389 0.929 . S
C2364 C2362 1.320 . S
C2364 C2365 1.405 . S
C2364 H2390 0.930 . S
C2365 C2360 1.479 . S
C2365 C2364 1.405 . S
C2365 H2391 0.931 . S
U2366 O2367 2.454 . S
U2366 O2368 2.458 . S
U2366 C2369 2.984 . S
U2366 C2370 2.847 . S
U2366 C2383 2.882 . S
U2366 O2384 2.441 . S
U2366 O2385 2.420 . S
U2366 O2386 2.455 . S
U2366 O2387 2.449 . S
O2367 U2366 2.454 . S
O2367 C2369 1.353 . S
O2368 U2366 2.458 . S
O2368 C2369 1.286 . S
C2369 U2366 2.984 . S
C2369 O2367 1.353 . S
C2369 O2368 1.286 . S
C2369 C2371 1.363 . S
C2370 C2360 1.465 . S
C2370 U2366 2.847 . S
C2370 O2384 1.249 . S
C2370 O2385 1.202 . S
C2371 C2369 1.363 . S
C2371 C2373 1.408 . S
C2371 C2376 1.342 . S
C2372 C2373 1.310 . S
C2372 C2375 1.461 . S
C2372 H2392 0.932 . S
C2373 C2371 1.408 . S
C2373 C2372 1.310 . S
C2373 H2393 0.930 . S
C2374 C2375 1.474 . S
C2374 C2376 1.285 . S
C2374 H2394 0.929 . S
C2375 C2372 1.461 . S
C2375 C2374 1.474 . S
C2376 C2371 1.342 . S
C2376 C2374 1.285 . S
C2376 H2395 0.930 . S
C2377 C2380 1.424 . S
C2377 C2382 1.245 . S
C2377 C2383 1.428 . S
C2378 C2381 1.260 . S
C2378 C2382 1.477 . S
C2378 H2396 0.932 . S
C2379 C2380 1.384 . S
C2379 C2381 1.479 . S
C2379 H2397 0.929 . S
C2380 C2377 1.424 . S
C2380 C2379 1.384 . S
C2380 H2398 0.928 . S
C2381 C2378 1.260 . S
C2381 C2379 1.479 . S
C2382 C2377 1.245 . S
C2382 C2378 1.477 . S
C2382 H2399 0.932 . S
C2383 U2366 2.882 . S
C2383 C2377 1.428 . S
C2383 O2386 1.301 . S
C2383 O2387 1.282 . S
O2384 U2366 2.441 . S
O2384 C2370 1.249 . S
O2385 U2366 2.420 . S
O2385 C2370 1.202 . S
O2386 U2366 2.455 . S
O2386 C2383 1.301 . S
O2387 U2366 2.449 . S
O2387 C2383 1.282 . S
H2388 C2361 0.931 . S
H2389 C2363 0.929 . S
H2390 C2364 0.930 . S
H2391 C2365 0.931 . S
H2392 C2372 0.932 . S
H2393 C2373 0.930 . S
H2394 C2374 0.929 . S
H2395 C2376 0.930 . S
H2396 C2378 0.932 . S
H2397 C2379 0.929 . S
H2398 C2380 0.928 . S
H2399 C2382 0.932 . S
C2400 C2401 1.264 . S
C2400 C2405 1.479 . S
C2400 C2410 1.465 . S
C2401 C2400 1.264 . S
C2401 C2403 1.339 . S
C2401 H2428 0.931 . S
C2402 C2403 1.395 . S
C2402 C2404 1.320 . S
C2403 C2401 1.339 . S
C2403 C2402 1.395 . S
C2403 H2429 0.929 . S
C2404 C2402 1.320 . S
C2404 C2405 1.405 . S
C2404 H2430 0.930 . S
C2405 C2400 1.479 . S
C2405 C2404 1.405 . S
C2405 H2431 0.931 . S
U2406 O2407 2.454 . S
U2406 O2408 2.458 . S
U2406 C2409 2.984 . S
U2406 C2410 2.847 . S
U2406 C2423 2.882 . S
U2406 O2424 2.441 . S
U2406 O2425 2.420 . S
U2406 O2426 2.455 . S
U2406 O2427 2.449 . S
O2407 U2406 2.454 . S
O2407 C2409 1.353 . S
O2408 U2406 2.458 . S
O2408 C2409 1.286 . S
C2409 U2406 2.984 . S
C2409 O2407 1.353 . S
C2409 O2408 1.286 . S
C2409 C2411 1.363 . S
C2410 C2400 1.465 . S
C2410 U2406 2.847 . S
C2410 O2424 1.249 . S
C2410 O2425 1.202 . S
C2411 C2409 1.363 . S
C2411 C2413 1.408 . S
C2411 C2416 1.342 . S
C2412 C2413 1.310 . S
C2412 C2415 1.461 . S
C2412 H2432 0.932 . S
C2413 C2411 1.408 . S
C2413 C2412 1.310 . S
C2413 H2433 0.930 . S
C2414 C2415 1.474 . S
C2414 C2416 1.285 . S
C2414 H2434 0.929 . S
C2415 C2412 1.461 . S
C2415 C2414 1.474 . S
C2416 C2411 1.342 . S
C2416 C2414 1.285 . S
C2416 H2435 0.930 . S
C2417 C2420 1.424 . S
C2417 C2422 1.245 . S
C2417 C2423 1.428 . S
C2418 C2421 1.260 . S
C2418 C2422 1.477 . S
C2418 H2436 0.932 . S
C2419 C2420 1.384 . S
C2419 C2421 1.479 . S
C2419 H2437 0.929 . S
C2420 C2417 1.424 . S
C2420 C2419 1.384 . S
C2420 H2438 0.928 . S
C2421 C2418 1.260 . S
C2421 C2419 1.479 . S
C2422 C2417 1.245 . S
C2422 C2418 1.477 . S
C2422 H2439 0.932 . S
C2423 U2406 2.882 . S
C2423 C2417 1.428 . S
C2423 O2426 1.301 . S
C2423 O2427 1.282 . S
O2424 U2406 2.441 . S
O2424 C2410 1.249 . S
O2425 U2406 2.420 . S
O2425 C2410 1.202 . S
O2426 U2406 2.455 . S
O2426 C2423 1.301 . S
O2427 U2406 2.449 . S
O2427 C2423 1.282 . S
H2428 C2401 0.931 . S
H2429 C2403 0.929 . S
H2430 C2404 0.930 . S
H2431 C2405 0.931 . S
H2432 C2412 0.932 . S
H2433 C2413 0.930 . S
H2434 C2414 0.929 . S
H2435 C2416 0.930 . S
H2436 C2418 0.932 . S
H2437 C2419 0.929 . S
H2438 C2420 0.928 . S
H2439 C2422 0.932 . S
C2440 C2441 1.264 . S
C2440 C2445 1.479 . S
C2440 C2450 1.465 . S
C2441 C2440 1.264 . S
C2441 C2443 1.339 . S
C2441 H2468 0.931 . S
C2442 C2443 1.395 . S
C2442 C2444 1.320 . S
C2443 C2441 1.339 . S
C2443 C2442 1.395 . S
C2443 H2469 0.929 . S
C2444 C2442 1.320 . S
C2444 C2445 1.405 . S
C2444 H2470 0.930 . S
C2445 C2440 1.479 . S
C2445 C2444 1.405 . S
C2445 H2471 0.931 . S
U2446 O2447 2.454 . S
U2446 O2448 2.458 . S
U2446 C2449 2.984 . S
U2446 C2450 2.847 . S
U2446 C2463 2.882 . S
U2446 O2464 2.441 . S
U2446 O2465 2.420 . S
U2446 O2466 2.455 . S
U2446 O2467 2.449 . S
O2447 U2446 2.454 . S
O2447 C2449 1.353 . S
O2448 U2446 2.458 . S
O2448 C2449 1.286 . S
C2449 U2446 2.984 . S
C2449 O2447 1.353 . S
C2449 O2448 1.286 . S
C2449 C2451 1.363 . S
C2450 C2440 1.465 . S
C2450 U2446 2.847 . S
C2450 O2464 1.249 . S
C2450 O2465 1.202 . S
C2451 C2449 1.363 . S
C2451 C2453 1.408 . S
C2451 C2456 1.342 . S
C2452 C2453 1.310 . S
C2452 C2455 1.461 . S
C2452 H2472 0.932 . S
C2453 C2451 1.408 . S
C2453 C2452 1.310 . S
C2453 H2473 0.930 . S
C2454 C2455 1.474 . S
C2454 C2456 1.285 . S
C2454 H2474 0.929 . S
C2455 C2452 1.461 . S
C2455 C2454 1.474 . S
C2456 C2451 1.342 . S
C2456 C2454 1.285 . S
C2456 H2475 0.930 . S
C2457 C2460 1.424 . S
C2457 C2462 1.245 . S
C2457 C2463 1.428 . S
C2458 C2461 1.260 . S
C2458 C2462 1.477 . S
C2458 H2476 0.932 . S
C2459 C2460 1.384 . S
C2459 C2461 1.479 . S
C2459 H2477 0.929 . S
C2460 C2457 1.424 . S
C2460 C2459 1.384 . S
C2460 H2478 0.928 . S
C2461 C2458 1.260 . S
C2461 C2459 1.479 . S
C2462 C2457 1.245 . S
C2462 C2458 1.477 . S
C2462 H2479 0.932 . S
C2463 U2446 2.882 . S
C2463 C2457 1.428 . S
C2463 O2466 1.301 . S
C2463 O2467 1.282 . S
O2464 U2446 2.441 . S
O2464 C2450 1.249 . S
O2465 U2446 2.420 . S
O2465 C2450 1.202 . S
O2466 U2446 2.455 . S
O2466 C2463 1.301 . S
O2467 U2446 2.449 . S
O2467 C2463 1.282 . S
H2468 C2441 0.931 . S
H2469 C2443 0.929 . S
H2470 C2444 0.930 . S
H2471 C2445 0.931 . S
H2472 C2452 0.932 . S
H2473 C2453 0.930 . S
H2474 C2454 0.929 . S
H2475 C2456 0.930 . S
H2476 C2458 0.932 . S
H2477 C2459 0.929 . S
H2478 C2460 0.928 . S
H2479 C2462 0.932 . S
C2480 C2481 1.264 . S
C2480 C2485 1.479 . S
C2480 C2490 1.465 . S
C2481 C2480 1.264 . S
C2481 C2483 1.339 . S
C2481 H2508 0.931 . S
C2482 C2483 1.395 . S
C2482 C2484 1.320 . S
C2483 C2481 1.339 . S
C2483 C2482 1.395 . S
C2483 H2509 0.929 . S
C2484 C2482 1.320 . S
C2484 C2485 1.405 . S
C2484 H2510 0.930 . S
C2485 C2480 1.479 . S
C2485 C2484 1.405 . S
C2485 H2511 0.931 . S
U2486 O2487 2.454 . S
U2486 O2488 2.458 . S
U2486 C2489 2.984 . S
U2486 C2490 2.847 . S
U2486 C2503 2.882 . S
U2486 O2504 2.441 . S
U2486 O2505 2.420 . S
U2486 O2506 2.455 . S
U2486 O2507 2.449 . S
O2487 U2486 2.454 . S
O2487 C2489 1.353 . S
O2488 U2486 2.458 . S
O2488 C2489 1.286 . S
C2489 U2486 2.984 . S
C2489 O2487 1.353 . S
C2489 O2488 1.286 . S
C2489 C2491 1.363 . S
C2490 C2480 1.465 . S
C2490 U2486 2.847 . S
C2490 O2504 1.249 . S
C2490 O2505 1.202 . S
C2491 C2489 1.363 . S
C2491 C2493 1.408 . S
C2491 C2496 1.342 . S
C2492 C2493 1.310 . S
C2492 C2495 1.461 . S
C2492 H2512 0.932 . S
C2493 C2491 1.408 . S
C2493 C2492 1.310 . S
C2493 H2513 0.930 . S
C2494 C2495 1.474 . S
C2494 C2496 1.285 . S
C2494 H2514 0.929 . S
C2495 C2492 1.461 . S
C2495 C2494 1.474 . S
C2496 C2491 1.342 . S
C2496 C2494 1.285 . S
C2496 H2515 0.930 . S
C2497 C2500 1.424 . S
C2497 C2502 1.245 . S
C2497 C2503 1.428 . S
C2498 C2501 1.260 . S
C2498 C2502 1.477 . S
C2498 H2516 0.932 . S
C2499 C2500 1.384 . S
C2499 C2501 1.479 . S
C2499 H2517 0.929 . S
C2500 C2497 1.424 . S
C2500 C2499 1.384 . S
C2500 H2518 0.928 . S
C2501 C2498 1.260 . S
C2501 C2499 1.479 . S
C2502 C2497 1.245 . S
C2502 C2498 1.477 . S
C2502 H2519 0.932 . S
C2503 U2486 2.882 . S
C2503 C2497 1.428 . S
C2503 O2506 1.301 . S
C2503 O2507 1.282 . S
O2504 U2486 2.441 . S
O2504 C2490 1.249 . S
O2505 U2486 2.420 . S
O2505 C2490 1.202 . S
O2506 U2486 2.455 . S
O2506 C2503 1.301 . S
O2507 U2486 2.449 . S
O2507 C2503 1.282 . S
H2508 C2481 0.931 . S
H2509 C2483 0.929 . S
H2510 C2484 0.930 . S
H2511 C2485 0.931 . S
H2512 C2492 0.932 . S
H2513 C2493 0.930 . S
H2514 C2494 0.929 . S
H2515 C2496 0.930 . S
H2516 C2498 0.932 . S
H2517 C2499 0.929 . S
H2518 C2500 0.928 . S
H2519 C2502 0.932 . S
C2520 C2521 1.264 . S
C2520 C2525 1.479 . S
C2520 C2530 1.465 . S
C2521 C2520 1.264 . S
C2521 C2523 1.339 . S
C2521 H2548 0.931 . S
C2522 C2523 1.395 . S
C2522 C2524 1.320 . S
C2523 C2521 1.339 . S
C2523 C2522 1.395 . S
C2523 H2549 0.929 . S
C2524 C2522 1.320 . S
C2524 C2525 1.405 . S
C2524 H2550 0.930 . S
C2525 C2520 1.479 . S
C2525 C2524 1.405 . S
C2525 H2551 0.931 . S
U2526 O2527 2.454 . S
U2526 O2528 2.458 . S
U2526 C2529 2.984 . S
U2526 C2530 2.847 . S
U2526 C2543 2.882 . S
U2526 O2544 2.441 . S
U2526 O2545 2.420 . S
U2526 O2546 2.455 . S
U2526 O2547 2.449 . S
O2527 U2526 2.454 . S
O2527 C2529 1.353 . S
O2528 U2526 2.458 . S
O2528 C2529 1.286 . S
C2529 U2526 2.984 . S
C2529 O2527 1.353 . S
C2529 O2528 1.286 . S
C2529 C2531 1.363 . S
C2530 C2520 1.465 . S
C2530 U2526 2.847 . S
C2530 O2544 1.249 . S
C2530 O2545 1.202 . S
C2531 C2529 1.363 . S
C2531 C2533 1.408 . S
C2531 C2536 1.342 . S
C2532 C2533 1.310 . S
C2532 C2535 1.461 . S
C2532 H2552 0.932 . S
C2533 C2531 1.408 . S
C2533 C2532 1.310 . S
C2533 H2553 0.930 . S
C2534 C2535 1.474 . S
C2534 C2536 1.285 . S
C2534 H2554 0.929 . S
C2535 C2532 1.461 . S
C2535 C2534 1.474 . S
C2536 C2531 1.342 . S
C2536 C2534 1.285 . S
C2536 H2555 0.930 . S
C2537 C2540 1.424 . S
C2537 C2542 1.245 . S
C2537 C2543 1.428 . S
C2538 C2541 1.260 . S
C2538 C2542 1.477 . S
C2538 H2556 0.932 . S
C2539 C2540 1.384 . S
C2539 C2541 1.479 . S
C2539 H2557 0.929 . S
C2540 C2537 1.424 . S
C2540 C2539 1.384 . S
C2540 H2558 0.928 . S
C2541 C2538 1.260 . S
C2541 C2539 1.479 . S
C2542 C2537 1.245 . S
C2542 C2538 1.477 . S
C2542 H2559 0.932 . S
C2543 U2526 2.882 . S
C2543 C2537 1.428 . S
C2543 O2546 1.301 . S
C2543 O2547 1.282 . S
O2544 U2526 2.441 . S
O2544 C2530 1.249 . S
O2545 U2526 2.420 . S
O2545 C2530 1.202 . S
O2546 U2526 2.455 . S
O2546 C2543 1.301 . S
O2547 U2526 2.449 . S
O2547 C2543 1.282 . S
H2548 C2521 0.931 . S
H2549 C2523 0.929 . S
H2550 C2524 0.930 . S
H2551 C2525 0.931 . S
H2552 C2532 0.932 . S
H2553 C2533 0.930 . S
H2554 C2534 0.929 . S
H2555 C2536 0.930 . S
H2556 C2538 0.932 . S
H2557 C2539 0.929 . S
H2558 C2540 0.928 . S
H2559 C2542 0.932 . S
C2560 C2561 1.264 . S
C2560 C2565 1.479 . S
C2560 C2570 1.465 . S
C2561 C2560 1.264 . S
C2561 C2563 1.339 . S
C2561 H2588 0.931 . S
C2562 C2563 1.395 . S
C2562 C2564 1.320 . S
C2563 C2561 1.339 . S
C2563 C2562 1.395 . S
C2563 H2589 0.929 . S
C2564 C2562 1.320 . S
C2564 C2565 1.405 . S
C2564 H2590 0.930 . S
C2565 C2560 1.479 . S
C2565 C2564 1.405 . S
C2565 H2591 0.931 . S
U2566 O2567 2.454 . S
U2566 O2568 2.458 . S
U2566 C2569 2.984 . S
U2566 C2570 2.847 . S
U2566 C2583 2.882 . S
U2566 O2584 2.441 . S
U2566 O2585 2.420 . S
U2566 O2586 2.455 . S
U2566 O2587 2.449 . S
O2567 U2566 2.454 . S
O2567 C2569 1.353 . S
O2568 U2566 2.458 . S
O2568 C2569 1.286 . S
C2569 U2566 2.984 . S
C2569 O2567 1.353 . S
C2569 O2568 1.286 . S
C2569 C2571 1.363 . S
C2570 C2560 1.465 . S
C2570 U2566 2.847 . S
C2570 O2584 1.249 . S
C2570 O2585 1.202 . S
C2571 C2569 1.363 . S
C2571 C2573 1.408 . S
C2571 C2576 1.342 . S
C2572 C2573 1.310 . S
C2572 C2575 1.461 . S
C2572 H2592 0.932 . S
C2573 C2571 1.408 . S
C2573 C2572 1.310 . S
C2573 H2593 0.930 . S
C2574 C2575 1.474 . S
C2574 C2576 1.285 . S
C2574 H2594 0.929 . S
C2575 C2572 1.461 . S
C2575 C2574 1.474 . S
C2576 C2571 1.342 . S
C2576 C2574 1.285 . S
C2576 H2595 0.930 . S
C2577 C2580 1.424 . S
C2577 C2582 1.245 . S
C2577 C2583 1.428 . S
C2578 C2581 1.260 . S
C2578 C2582 1.477 . S
C2578 H2596 0.932 . S
C2579 C2580 1.384 . S
C2579 C2581 1.479 . S
C2579 H2597 0.929 . S
C2580 C2577 1.424 . S
C2580 C2579 1.384 . S
C2580 H2598 0.928 . S
C2581 C2578 1.260 . S
C2581 C2579 1.479 . S
C2582 C2577 1.245 . S
C2582 C2578 1.477 . S
C2582 H2599 0.932 . S
C2583 U2566 2.882 . S
C2583 C2577 1.428 . S
C2583 O2586 1.301 . S
C2583 O2587 1.282 . S
O2584 U2566 2.441 . S
O2584 C2570 1.249 . S
O2585 U2566 2.420 . S
O2585 C2570 1.202 . S
O2586 U2566 2.455 . S
O2586 C2583 1.301 . S
O2587 U2566 2.449 . S
O2587 C2583 1.282 . S
H2588 C2561 0.931 . S
H2589 C2563 0.929 . S
H2590 C2564 0.930 . S
H2591 C2565 0.931 . S
H2592 C2572 0.932 . S
H2593 C2573 0.930 . S
H2594 C2574 0.929 . S
H2595 C2576 0.930 . S
H2596 C2578 0.932 . S
H2597 C2579 0.929 . S
H2598 C2580 0.928 . S
H2599 C2582 0.932 . S
C2600 C2601 1.264 . S
C2600 C2605 1.479 . S
C2600 C2610 1.465 . S
C2601 C2600 1.264 . S
C2601 C2603 1.339 . S
C2601 H2628 0.931 . S
C2602 C2603 1.395 . S
C2602 C2604 1.320 . S
C2603 C2601 1.339 . S
C2603 C2602 1.395 . S
C2603 H2629 0.929 . S
C2604 C2602 1.320 . S
C2604 C2605 1.405 . S
C2604 H2630 0.930 . S
C2605 C2600 1.479 . S
C2605 C2604 1.405 . S
C2605 H2631 0.931 . S
U2606 O2607 2.454 . S
U2606 O2608 2.458 . S
U2606 C2609 2.984 . S
U2606 C2610 2.847 . S
U2606 C2623 2.882 . S
U2606 O2624 2.441 . S
U2606 O2625 2.420 . S
U2606 O2626 2.455 . S
U2606 O2627 2.449 . S
O2607 U2606 2.454 . S
O2607 C2609 1.353 . S
O2608 U2606 2.458 . S
O2608 C2609 1.286 . S
C2609 U2606 2.984 . S
C2609 O2607 1.353 . S
C2609 O2608 1.286 . S
C2609 C2611 1.363 . S
C2610 C2600 1.465 . S
C2610 U2606 2.847 . S
C2610 O2624 1.249 . S
C2610 O2625 1.202 . S
C2611 C2609 1.363 . S
C2611 C2613 1.408 . S
C2611 C2616 1.342 . S
C2612 C2613 1.310 . S
C2612 C2615 1.461 . S
C2612 H2632 0.932 . S
C2613 C2611 1.408 . S
C2613 C2612 1.310 . S
C2613 H2633 0.930 . S
C2614 C2615 1.474 . S
C2614 C2616 1.285 . S
C2614 H2634 0.929 . S
C2615 C2612 1.461 . S
C2615 C2614 1.474 . S
C2616 C2611 1.342 . S
C2616 C2614 1.285 . S
C2616 H2635 0.930 . S
C2617 C2620 1.424 . S
C2617 C2622 1.245 . S
C2617 C2623 1.428 . S
C2618 C2621 1.260 . S
C2618 C2622 1.477 . S
C2618 H2636 0.932 . S
C2619 C2620 1.384 . S
C2619 C2621 1.479 . S
C2619 H2637 0.929 . S
C2620 C2617 1.424 . S
C2620 C2619 1.384 . S
C2620 H2638 0.928 . S
C2621 C2618 1.260 . S
C2621 C2619 1.479 . S
C2622 C2617 1.245 . S
C2622 C2618 1.477 . S
C2622 H2639 0.932 . S
C2623 U2606 2.882 . S
C2623 C2617 1.428 . S
C2623 O2626 1.301 . S
C2623 O2627 1.282 . S
O2624 U2606 2.441 . S
O2624 C2610 1.249 . S
O2625 U2606 2.420 . S
O2625 C2610 1.202 . S
O2626 U2606 2.455 . S
O2626 C2623 1.301 . S
O2627 U2606 2.449 . S
O2627 C2623 1.282 . S
H2628 C2601 0.931 . S
H2629 C2603 0.929 . S
H2630 C2604 0.930 . S
H2631 C2605 0.931 . S
H2632 C2612 0.932 . S
H2633 C2613 0.930 . S
H2634 C2614 0.929 . S
H2635 C2616 0.930 . S
H2636 C2618 0.932 . S
H2637 C2619 0.929 . S
H2638 C2620 0.928 . S
H2639 C2622 0.932 . S
C2640 C2641 1.264 . S
C2640 C2645 1.479 . S
C2640 C2650 1.465 . S
C2641 C2640 1.264 . S
C2641 C2643 1.339 . S
C2641 H2668 0.931 . S
C2642 C2643 1.395 . S
C2642 C2644 1.320 . S
C2643 C2641 1.339 . S
C2643 C2642 1.395 . S
C2643 H2669 0.929 . S
C2644 C2642 1.320 . S
C2644 C2645 1.405 . S
C2644 H2670 0.930 . S
C2645 C2640 1.479 . S
C2645 C2644 1.405 . S
C2645 H2671 0.931 . S
U2646 O2647 2.454 . S
U2646 O2648 2.458 . S
U2646 C2649 2.984 . S
U2646 C2650 2.847 . S
U2646 C2663 2.882 . S
U2646 O2664 2.441 . S
U2646 O2665 2.420 . S
U2646 O2666 2.455 . S
U2646 O2667 2.449 . S
O2647 U2646 2.454 . S
O2647 C2649 1.353 . S
O2648 U2646 2.458 . S
O2648 C2649 1.286 . S
C2649 U2646 2.984 . S
C2649 O2647 1.353 . S
C2649 O2648 1.286 . S
C2649 C2651 1.363 . S
C2650 C2640 1.465 . S
C2650 U2646 2.847 . S
C2650 O2664 1.249 . S
C2650 O2665 1.202 . S
C2651 C2649 1.363 . S
C2651 C2653 1.408 . S
C2651 C2656 1.342 . S
C2652 C2653 1.310 . S
C2652 C2655 1.461 . S
C2652 H2672 0.932 . S
C2653 C2651 1.408 . S
C2653 C2652 1.310 . S
C2653 H2673 0.930 . S
C2654 C2655 1.474 . S
C2654 C2656 1.285 . S
C2654 H2674 0.929 . S
C2655 C2652 1.461 . S
C2655 C2654 1.474 . S
C2656 C2651 1.342 . S
C2656 C2654 1.285 . S
C2656 H2675 0.930 . S
C2657 C2660 1.424 . S
C2657 C2662 1.245 . S
C2657 C2663 1.428 . S
C2658 C2661 1.260 . S
C2658 C2662 1.477 . S
C2658 H2676 0.932 . S
C2659 C2660 1.384 . S
C2659 C2661 1.479 . S
C2659 H2677 0.929 . S
C2660 C2657 1.424 . S
C2660 C2659 1.384 . S
C2660 H2678 0.928 . S
C2661 C2658 1.260 . S
C2661 C2659 1.479 . S
C2662 C2657 1.245 . S
C2662 C2658 1.477 . S
C2662 H2679 0.932 . S
C2663 U2646 2.882 . S
C2663 C2657 1.428 . S
C2663 O2666 1.301 . S
C2663 O2667 1.282 . S
O2664 U2646 2.441 . S
O2664 C2650 1.249 . S
O2665 U2646 2.420 . S
O2665 C2650 1.202 . S
O2666 U2646 2.455 . S
O2666 C2663 1.301 . S
O2667 U2646 2.449 . S
O2667 C2663 1.282 . S
H2668 C2641 0.931 . S
H2669 C2643 0.929 . S
H2670 C2644 0.930 . S
H2671 C2645 0.931 . S
H2672 C2652 0.932 . S
H2673 C2653 0.930 . S
H2674 C2654 0.929 . S
H2675 C2656 0.930 . S
H2676 C2658 0.932 . S
H2677 C2659 0.929 . S
H2678 C2660 0.928 . S
H2679 C2662 0.932 . S
C2680 C2681 1.264 . S
C2680 C2685 1.479 . S
C2680 C2690 1.465 . S
C2681 C2680 1.264 . S
C2681 C2683 1.339 . S
C2681 H2708 0.931 . S
C2682 C2683 1.395 . S
C2682 C2684 1.320 . S
C2683 C2681 1.339 . S
C2683 C2682 1.395 . S
C2683 H2709 0.929 . S
C2684 C2682 1.320 . S
C2684 C2685 1.405 . S
C2684 H2710 0.930 . S
C2685 C2680 1.479 . S
C2685 C2684 1.405 . S
C2685 H2711 0.931 . S
U2686 O2687 2.454 . S
U2686 O2688 2.458 . S
U2686 C2689 2.984 . S
U2686 C2690 2.847 . S
U2686 C2703 2.882 . S
U2686 O2704 2.441 . S
U2686 O2705 2.420 . S
U2686 O2706 2.455 . S
U2686 O2707 2.449 . S
O2687 U2686 2.454 . S
O2687 C2689 1.353 . S
O2688 U2686 2.458 . S
O2688 C2689 1.286 . S
C2689 U2686 2.984 . S
C2689 O2687 1.353 . S
C2689 O2688 1.286 . S
C2689 C2691 1.363 . S
C2690 C2680 1.465 . S
C2690 U2686 2.847 . S
C2690 O2704 1.249 . S
C2690 O2705 1.202 . S
C2691 C2689 1.363 . S
C2691 C2693 1.408 . S
C2691 C2696 1.342 . S
C2692 C2693 1.310 . S
C2692 C2695 1.461 . S
C2692 H2712 0.932 . S
C2693 C2691 1.408 . S
C2693 C2692 1.310 . S
C2693 H2713 0.930 . S
C2694 C2695 1.474 . S
C2694 C2696 1.285 . S
C2694 H2714 0.929 . S
C2695 C2692 1.461 . S
C2695 C2694 1.474 . S
C2696 C2691 1.342 . S
C2696 C2694 1.285 . S
C2696 H2715 0.930 . S
C2697 C2700 1.424 . S
C2697 C2702 1.245 . S
C2697 C2703 1.428 . S
C2698 C2701 1.260 . S
C2698 C2702 1.477 . S
C2698 H2716 0.932 . S
C2699 C2700 1.384 . S
C2699 C2701 1.479 . S
C2699 H2717 0.929 . S
C2700 C2697 1.424 . S
C2700 C2699 1.384 . S
C2700 H2718 0.928 . S
C2701 C2698 1.260 . S
C2701 C2699 1.479 . S
C2702 C2697 1.245 . S
C2702 C2698 1.477 . S
C2702 H2719 0.932 . S
C2703 U2686 2.882 . S
C2703 C2697 1.428 . S
C2703 O2706 1.301 . S
C2703 O2707 1.282 . S
O2704 U2686 2.441 . S
O2704 C2690 1.249 . S
O2705 U2686 2.420 . S
O2705 C2690 1.202 . S
O2706 U2686 2.455 . S
O2706 C2703 1.301 . S
O2707 U2686 2.449 . S
O2707 C2703 1.282 . S
H2708 C2681 0.931 . S
H2709 C2683 0.929 . S
H2710 C2684 0.930 . S
H2711 C2685 0.931 . S
H2712 C2692 0.932 . S
H2713 C2693 0.930 . S
H2714 C2694 0.929 . S
H2715 C2696 0.930 . S
H2716 C2698 0.932 . S
H2717 C2699 0.929 . S
H2718 C2700 0.928 . S
H2719 C2702 0.932 . S
C2720 C2721 1.264 . S
C2720 C2725 1.479 . S
C2720 C2730 1.465 . S
C2721 C2720 1.264 . S
C2721 C2723 1.339 . S
C2721 H2748 0.931 . S
C2722 C2723 1.395 . S
C2722 C2724 1.320 . S
C2723 C2721 1.339 . S
C2723 C2722 1.395 . S
C2723 H2749 0.929 . S
C2724 C2722 1.320 . S
C2724 C2725 1.405 . S
C2724 H2750 0.930 . S
C2725 C2720 1.479 . S
C2725 C2724 1.405 . S
C2725 H2751 0.931 . S
U2726 O2727 2.454 . S
U2726 O2728 2.458 . S
U2726 C2729 2.984 . S
U2726 C2730 2.847 . S
U2726 C2743 2.882 . S
U2726 O2744 2.441 . S
U2726 O2745 2.420 . S
U2726 O2746 2.455 . S
U2726 O2747 2.449 . S
O2727 U2726 2.454 . S
O2727 C2729 1.353 . S
O2728 U2726 2.458 . S
O2728 C2729 1.286 . S
C2729 U2726 2.984 . S
C2729 O2727 1.353 . S
C2729 O2728 1.286 . S
C2729 C2731 1.363 . S
C2730 C2720 1.465 . S
C2730 U2726 2.847 . S
C2730 O2744 1.249 . S
C2730 O2745 1.202 . S
C2731 C2729 1.363 . S
C2731 C2733 1.408 . S
C2731 C2736 1.342 . S
C2732 C2733 1.310 . S
C2732 C2735 1.461 . S
C2732 H2752 0.932 . S
C2733 C2731 1.408 . S
C2733 C2732 1.310 . S
C2733 H2753 0.930 . S
C2734 C2735 1.474 . S
C2734 C2736 1.285 . S
C2734 H2754 0.929 . S
C2735 C2732 1.461 . S
C2735 C2734 1.474 . S
C2736 C2731 1.342 . S
C2736 C2734 1.285 . S
C2736 H2755 0.930 . S
C2737 C2740 1.424 . S
C2737 C2742 1.245 . S
C2737 C2743 1.428 . S
C2738 C2741 1.260 . S
C2738 C2742 1.477 . S
C2738 H2756 0.932 . S
C2739 C2740 1.384 . S
C2739 C2741 1.479 . S
C2739 H2757 0.929 . S
C2740 C2737 1.424 . S
C2740 C2739 1.384 . S
C2740 H2758 0.928 . S
C2741 C2738 1.260 . S
C2741 C2739 1.479 . S
C2742 C2737 1.245 . S
C2742 C2738 1.477 . S
C2742 H2759 0.932 . S
C2743 U2726 2.882 . S
C2743 C2737 1.428 . S
C2743 O2746 1.301 . S
C2743 O2747 1.282 . S
O2744 U2726 2.441 . S
O2744 C2730 1.249 . S
O2745 U2726 2.420 . S
O2745 C2730 1.202 . S
O2746 U2726 2.455 . S
O2746 C2743 1.301 . S
O2747 U2726 2.449 . S
O2747 C2743 1.282 . S
H2748 C2721 0.931 . S
H2749 C2723 0.929 . S
H2750 C2724 0.930 . S
H2751 C2725 0.931 . S
H2752 C2732 0.932 . S
H2753 C2733 0.930 . S
H2754 C2734 0.929 . S
H2755 C2736 0.930 . S
H2756 C2738 0.932 . S
H2757 C2739 0.929 . S
H2758 C2740 0.928 . S
H2759 C2742 0.932 . S
C2760 C2761 1.264 . S
C2760 C2765 1.479 . S
C2760 C2770 1.465 . S
C2761 C2760 1.264 . S
C2761 C2763 1.339 . S
C2761 H2788 0.931 . S
C2762 C2763 1.395 . S
C2762 C2764 1.320 . S
C2763 C2761 1.339 . S
C2763 C2762 1.395 . S
C2763 H2789 0.929 . S
C2764 C2762 1.320 . S
C2764 C2765 1.405 . S
C2764 H2790 0.930 . S
C2765 C2760 1.479 . S
C2765 C2764 1.405 . S
C2765 H2791 0.931 . S
U2766 O2767 2.454 . S
U2766 O2768 2.458 . S
U2766 C2769 2.984 . S
U2766 C2770 2.847 . S
U2766 C2783 2.882 . S
U2766 O2784 2.441 . S
U2766 O2785 2.420 . S
U2766 O2786 2.455 . S
U2766 O2787 2.449 . S
O2767 U2766 2.454 . S
O2767 C2769 1.353 . S
O2768 U2766 2.458 . S
O2768 C2769 1.286 . S
C2769 U2766 2.984 . S
C2769 O2767 1.353 . S
C2769 O2768 1.286 . S
C2769 C2771 1.363 . S
C2770 C2760 1.465 . S
C2770 U2766 2.847 . S
C2770 O2784 1.249 . S
C2770 O2785 1.202 . S
C2771 C2769 1.363 . S
C2771 C2773 1.408 . S
C2771 C2776 1.342 . S
C2772 C2773 1.310 . S
C2772 C2775 1.461 . S
C2772 H2792 0.932 . S
C2773 C2771 1.408 . S
C2773 C2772 1.310 . S
C2773 H2793 0.930 . S
C2774 C2775 1.474 . S
C2774 C2776 1.285 . S
C2774 H2794 0.929 . S
C2775 C2772 1.461 . S
C2775 C2774 1.474 . S
C2776 C2771 1.342 . S
C2776 C2774 1.285 . S
C2776 H2795 0.930 . S
C2777 C2780 1.424 . S
C2777 C2782 1.245 . S
C2777 C2783 1.428 . S
C2778 C2781 1.260 . S
C2778 C2782 1.477 . S
C2778 H2796 0.932 . S
C2779 C2780 1.384 . S
C2779 C2781 1.479 . S
C2779 H2797 0.929 . S
C2780 C2777 1.424 . S
C2780 C2779 1.384 . S
C2780 H2798 0.928 . S
C2781 C2778 1.260 . S
C2781 C2779 1.479 . S
C2782 C2777 1.245 . S
C2782 C2778 1.477 . S
C2782 H2799 0.932 . S
C2783 U2766 2.882 . S
C2783 C2777 1.428 . S
C2783 O2786 1.301 . S
C2783 O2787 1.282 . S
O2784 U2766 2.441 . S
O2784 C2770 1.249 . S
O2785 U2766 2.420 . S
O2785 C2770 1.202 . S
O2786 U2766 2.455 . S
O2786 C2783 1.301 . S
O2787 U2766 2.449 . S
O2787 C2783 1.282 . S
H2788 C2761 0.931 . S
H2789 C2763 0.929 . S
H2790 C2764 0.930 . S
H2791 C2765 0.931 . S
H2792 C2772 0.932 . S
H2793 C2773 0.930 . S
H2794 C2774 0.929 . S
H2795 C2776 0.930 . S
H2796 C2778 0.932 . S
H2797 C2779 0.929 . S
H2798 C2780 0.928 . S
H2799 C2782 0.932 . S
C2800 C2801 1.264 . S
C2800 C2805 1.479 . S
C2800 C2810 1.465 . S
C2801 C2800 1.264 . S
C2801 C2803 1.339 . S
C2801 H2828 0.931 . S
C2802 C2803 1.395 . S
C2802 C2804 1.320 . S
C2803 C2801 1.339 . S
C2803 C2802 1.395 . S
C2803 H2829 0.929 . S
C2804 C2802 1.320 . S
C2804 C2805 1.405 . S
C2804 H2830 0.930 . S
C2805 C2800 1.479 . S
C2805 C2804 1.405 . S
C2805 H2831 0.931 . S
U2806 O2807 2.454 . S
U2806 O2808 2.458 . S
U2806 C2809 2.984 . S
U2806 C2810 2.847 . S
U2806 C2823 2.882 . S
U2806 O2824 2.441 . S
U2806 O2825 2.420 . S
U2806 O2826 2.455 . S
U2806 O2827 2.449 . S
O2807 U2806 2.454 . S
O2807 C2809 1.353 . S
O2808 U2806 2.458 . S
O2808 C2809 1.286 . S
C2809 U2806 2.984 . S
C2809 O2807 1.353 . S
C2809 O2808 1.286 . S
C2809 C2811 1.363 . S
C2810 C2800 1.465 . S
C2810 U2806 2.847 . S
C2810 O2824 1.249 . S
C2810 O2825 1.202 . S
C2811 C2809 1.363 . S
C2811 C2813 1.408 . S
C2811 C2816 1.342 . S
C2812 C2813 1.310 . S
C2812 C2815 1.461 . S
C2812 H2832 0.932 . S
C2813 C2811 1.408 . S
C2813 C2812 1.310 . S
C2813 H2833 0.930 . S
C2814 C2815 1.474 . S
C2814 C2816 1.285 . S
C2814 H2834 0.929 . S
C2815 C2812 1.461 . S
C2815 C2814 1.474 . S
C2816 C2811 1.342 . S
C2816 C2814 1.285 . S
C2816 H2835 0.930 . S
C2817 C2820 1.424 . S
C2817 C2822 1.245 . S
C2817 C2823 1.428 . S
C2818 C2821 1.260 . S
C2818 C2822 1.477 . S
C2818 H2836 0.932 . S
C2819 C2820 1.384 . S
C2819 C2821 1.479 . S
C2819 H2837 0.929 . S
C2820 C2817 1.424 . S
C2820 C2819 1.384 . S
C2820 H2838 0.928 . S
C2821 C2818 1.260 . S
C2821 C2819 1.479 . S
C2822 C2817 1.245 . S
C2822 C2818 1.477 . S
C2822 H2839 0.932 . S
C2823 U2806 2.882 . S
C2823 C2817 1.428 . S
C2823 O2826 1.301 . S
C2823 O2827 1.282 . S
O2824 U2806 2.441 . S
O2824 C2810 1.249 . S
O2825 U2806 2.420 . S
O2825 C2810 1.202 . S
O2826 U2806 2.455 . S
O2826 C2823 1.301 . S
O2827 U2806 2.449 . S
O2827 C2823 1.282 . S
H2828 C2801 0.931 . S
H2829 C2803 0.929 . S
H2830 C2804 0.930 . S
H2831 C2805 0.931 . S
H2832 C2812 0.932 . S
H2833 C2813 0.930 . S
H2834 C2814 0.929 . S
H2835 C2816 0.930 . S
H2836 C2818 0.932 . S
H2837 C2819 0.929 . S
H2838 C2820 0.928 . S
H2839 C2822 0.932 . S
C2840 C2841 1.264 . S
C2840 C2845 1.479 . S
C2840 C2850 1.465 . S
C2841 C2840 1.264 . S
C2841 C2843 1.339 . S
C2841 H2868 0.931 . S
C2842 C2843 1.395 . S
C2842 C2844 1.320 . S
C2843 C2841 1.339 . S
C2843 C2842 1.395 . S
C2843 H2869 0.929 . S
C2844 C2842 1.320 . S
C2844 C2845 1.405 . S
C2844 H2870 0.930 . S
C2845 C2840 1.479 . S
C2845 C2844 1.405 . S
C2845 H2871 0.931 . S
U2846 O2847 2.454 . S
U2846 O2848 2.458 . S
U2846 C2849 2.984 . S
U2846 C2850 2.847 . S
U2846 C2863 2.882 . S
U2846 O2864 2.441 . S
U2846 O2865 2.420 . S
U2846 O2866 2.455 . S
U2846 O2867 2.449 . S
O2847 U2846 2.454 . S
O2847 C2849 1.353 . S
O2848 U2846 2.458 . S
O2848 C2849 1.286 . S
C2849 U2846 2.984 . S
C2849 O2847 1.353 . S
C2849 O2848 1.286 . S
C2849 C2851 1.363 . S
C2850 C2840 1.465 . S
C2850 U2846 2.847 . S
C2850 O2864 1.249 . S
C2850 O2865 1.202 . S
C2851 C2849 1.363 . S
C2851 C2853 1.408 . S
C2851 C2856 1.342 . S
C2852 C2853 1.310 . S
C2852 C2855 1.461 . S
C2852 H2872 0.932 . S
C2853 C2851 1.408 . S
C2853 C2852 1.310 . S
C2853 H2873 0.930 . S
C2854 C2855 1.474 . S
C2854 C2856 1.285 . S
C2854 H2874 0.929 . S
C2855 C2852 1.461 . S
C2855 C2854 1.474 . S
C2856 C2851 1.342 . S
C2856 C2854 1.285 . S
C2856 H2875 0.930 . S
C2857 C2860 1.424 . S
C2857 C2862 1.245 . S
C2857 C2863 1.428 . S
C2858 C2861 1.260 . S
C2858 C2862 1.477 . S
C2858 H2876 0.932 . S
C2859 C2860 1.384 . S
C2859 C2861 1.479 . S
C2859 H2877 0.929 . S
C2860 C2857 1.424 . S
C2860 C2859 1.384 . S
C2860 H2878 0.928 . S
C2861 C2858 1.260 . S
C2861 C2859 1.479 . S
C2862 C2857 1.245 . S
C2862 C2858 1.477 . S
C2862 H2879 0.932 . S
C2863 U2846 2.882 . S
C2863 C2857 1.428 . S
C2863 O2866 1.301 . S
C2863 O2867 1.282 . S
O2864 U2846 2.441 . S
O2864 C2850 1.249 . S
O2865 U2846 2.420 . S
O2865 C2850 1.202 . S
O2866 U2846 2.455 . S
O2866 C2863 1.301 . S
O2867 U2846 2.449 . S
O2867 C2863 1.282 . S
H2868 C2841 0.931 . S
H2869 C2843 0.929 . S
H2870 C2844 0.930 . S
H2871 C2845 0.931 . S
H2872 C2852 0.932 . S
H2873 C2853 0.930 . S
H2874 C2854 0.929 . S
H2875 C2856 0.930 . S
H2876 C2858 0.932 . S
H2877 C2859 0.929 . S
H2878 C2860 0.928 . S
H2879 C2862 0.932 . S
C2880 C2881 1.264 . S
C2880 C2885 1.479 . S
C2880 C2890 1.465 . S
C2881 C2880 1.264 . S
C2881 C2883 1.339 . S
C2881 H2908 0.931 . S
C2882 C2883 1.395 . S
C2882 C2884 1.320 . S
C2883 C2881 1.339 . S
C2883 C2882 1.395 . S
C2883 H2909 0.929 . S
C2884 C2882 1.320 . S
C2884 C2885 1.405 . S
C2884 H2910 0.930 . S
C2885 C2880 1.479 . S
C2885 C2884 1.405 . S
C2885 H2911 0.931 . S
U2886 O2887 2.454 . S
U2886 O2888 2.458 . S
U2886 C2889 2.984 . S
U2886 C2890 2.847 . S
U2886 C2903 2.882 . S
U2886 O2904 2.441 . S
U2886 O2905 2.420 . S
U2886 O2906 2.455 . S
U2886 O2907 2.449 . S
O2887 U2886 2.454 . S
O2887 C2889 1.353 . S
O2888 U2886 2.458 . S
O2888 C2889 1.286 . S
C2889 U2886 2.984 . S
C2889 O2887 1.353 . S
C2889 O2888 1.286 . S
C2889 C2891 1.363 . S
C2890 C2880 1.465 . S
C2890 U2886 2.847 . S
C2890 O2904 1.249 . S
C2890 O2905 1.202 . S
C2891 C2889 1.363 . S
C2891 C2893 1.408 . S
C2891 C2896 1.342 . S
C2892 C2893 1.310 . S
C2892 C2895 1.461 . S
C2892 H2912 0.932 . S
C2893 C2891 1.408 . S
C2893 C2892 1.310 . S
C2893 H2913 0.930 . S
C2894 C2895 1.474 . S
C2894 C2896 1.285 . S
C2894 H2914 0.929 . S
C2895 C2892 1.461 . S
C2895 C2894 1.474 . S
C2896 C2891 1.342 . S
C2896 C2894 1.285 . S
C2896 H2915 0.930 . S
C2897 C2900 1.424 . S
C2897 C2902 1.245 . S
C2897 C2903 1.428 . S
C2898 C2901 1.260 . S
C2898 C2902 1.477 . S
C2898 H2916 0.932 . S
C2899 C2900 1.384 . S
C2899 C2901 1.479 . S
C2899 H2917 0.929 . S
C2900 C2897 1.424 . S
C2900 C2899 1.384 . S
C2900 H2918 0.928 . S
C2901 C2898 1.260 . S
C2901 C2899 1.479 . S
C2902 C2897 1.245 . S
C2902 C2898 1.477 . S
C2902 H2919 0.932 . S
C2903 U2886 2.882 . S
C2903 C2897 1.428 . S
C2903 O2906 1.301 . S
C2903 O2907 1.282 . S
O2904 U2886 2.441 . S
O2904 C2890 1.249 . S
O2905 U2886 2.420 . S
O2905 C2890 1.202 . S
O2906 U2886 2.455 . S
O2906 C2903 1.301 . S
O2907 U2886 2.449 . S
O2907 C2903 1.282 . S
H2908 C2881 0.931 . S
H2909 C2883 0.929 . S
H2910 C2884 0.930 . S
H2911 C2885 0.931 . S
H2912 C2892 0.932 . S
H2913 C2893 0.930 . S
H2914 C2894 0.929 . S
H2915 C2896 0.930 . S
H2916 C2898 0.932 . S
H2917 C2899 0.929 . S
H2918 C2900 0.928 . S
H2919 C2902 0.932 . S
C2920 C2921 1.264 . S
C2920 C2925 1.479 . S
C2920 C2930 1.465 . S
C2921 C2920 1.264 . S
C2921 C2923 1.339 . S
C2921 H2948 0.931 . S
C2922 C2923 1.395 . S
C2922 C2924 1.320 . S
C2923 C2921 1.339 . S
C2923 C2922 1.395 . S
C2923 H2949 0.929 . S
C2924 C2922 1.320 . S
C2924 C2925 1.405 . S
C2924 H2950 0.930 . S
C2925 C2920 1.479 . S
C2925 C2924 1.405 . S
C2925 H2951 0.931 . S
U2926 O2927 2.454 . S
U2926 O2928 2.458 . S
U2926 C2929 2.984 . S
U2926 C2930 2.847 . S
U2926 C2943 2.882 . S
U2926 O2944 2.441 . S
U2926 O2945 2.420 . S
U2926 O2946 2.455 . S
U2926 O2947 2.449 . S
O2927 U2926 2.454 . S
O2927 C2929 1.353 . S
O2928 U2926 2.458 . S
O2928 C2929 1.286 . S
C2929 U2926 2.984 . S
C2929 O2927 1.353 . S
C2929 O2928 1.286 . S
C2929 C2931 1.363 . S
C2930 C2920 1.465 . S
C2930 U2926 2.847 . S
C2930 O2944 1.249 . S
C2930 O2945 1.202 . S
C2931 C2929 1.363 . S
C2931 C2933 1.408 . S
C2931 C2936 1.342 . S
C2932 C2933 1.310 . S
C2932 C2935 1.461 . S
C2932 H2952 0.932 . S
C2933 C2931 1.408 . S
C2933 C2932 1.310 . S
C2933 H2953 0.930 . S
C2934 C2935 1.474 . S
C2934 C2936 1.285 . S
C2934 H2954 0.929 . S
C2935 C2932 1.461 . S
C2935 C2934 1.474 . S
C2936 C2931 1.342 . S
C2936 C2934 1.285 . S
C2936 H2955 0.930 . S
C2937 C2940 1.424 . S
C2937 C2942 1.245 . S
C2937 C2943 1.428 . S
C2938 C2941 1.260 . S
C2938 C2942 1.477 . S
C2938 H2956 0.932 . S
C2939 C2940 1.384 . S
C2939 C2941 1.479 . S
C2939 H2957 0.929 . S
C2940 C2937 1.424 . S
C2940 C2939 1.384 . S
C2940 H2958 0.928 . S
C2941 C2938 1.260 . S
C2941 C2939 1.479 . S
C2942 C2937 1.245 . S
C2942 C2938 1.477 . S
C2942 H2959 0.932 . S
C2943 U2926 2.882 . S
C2943 C2937 1.428 . S
C2943 O2946 1.301 . S
C2943 O2947 1.282 . S
O2944 U2926 2.441 . S
O2944 C2930 1.249 . S
O2945 U2926 2.420 . S
O2945 C2930 1.202 . S
O2946 U2926 2.455 . S
O2946 C2943 1.301 . S
O2947 U2926 2.449 . S
O2947 C2943 1.282 . S
H2948 C2921 0.931 . S
H2949 C2923 0.929 . S
H2950 C2924 0.930 . S
H2951 C2925 0.931 . S
H2952 C2932 0.932 . S
H2953 C2933 0.930 . S
H2954 C2934 0.929 . S
H2955 C2936 0.930 . S
H2956 C2938 0.932 . S
H2957 C2939 0.929 . S
H2958 C2940 0.928 . S
H2959 C2942 0.932 . S
C2960 C2961 1.264 . S
C2960 C2965 1.479 . S
C2960 C2970 1.465 . S
C2961 C2960 1.264 . S
C2961 C2963 1.339 . S
C2961 H2988 0.931 . S
C2962 C2963 1.395 . S
C2962 C2964 1.320 . S
C2963 C2961 1.339 . S
C2963 C2962 1.395 . S
C2963 H2989 0.929 . S
C2964 C2962 1.320 . S
C2964 C2965 1.405 . S
C2964 H2990 0.930 . S
C2965 C2960 1.479 . S
C2965 C2964 1.405 . S
C2965 H2991 0.931 . S
U2966 O2967 2.454 . S
U2966 O2968 2.458 . S
U2966 C2969 2.984 . S
U2966 C2970 2.847 . S
U2966 C2983 2.882 . S
U2966 O2984 2.441 . S
U2966 O2985 2.420 . S
U2966 O2986 2.455 . S
U2966 O2987 2.449 . S
O2967 U2966 2.454 . S
O2967 C2969 1.353 . S
O2968 U2966 2.458 . S
O2968 C2969 1.286 . S
C2969 U2966 2.984 . S
C2969 O2967 1.353 . S
C2969 O2968 1.286 . S
C2969 C2971 1.363 . S
C2970 C2960 1.465 . S
C2970 U2966 2.847 . S
C2970 O2984 1.249 . S
C2970 O2985 1.202 . S
C2971 C2969 1.363 . S
C2971 C2973 1.408 . S
C2971 C2976 1.342 . S
C2972 C2973 1.310 . S
C2972 C2975 1.461 . S
C2972 H2992 0.932 . S
C2973 C2971 1.408 . S
C2973 C2972 1.310 . S
C2973 H2993 0.930 . S
C2974 C2975 1.474 . S
C2974 C2976 1.285 . S
C2974 H2994 0.929 . S
C2975 C2972 1.461 . S
C2975 C2974 1.474 . S
C2976 C2971 1.342 . S
C2976 C2974 1.285 . S
C2976 H2995 0.930 . S
C2977 C2980 1.424 . S
C2977 C2982 1.245 . S
C2977 C2983 1.428 . S
C2978 C2981 1.260 . S
C2978 C2982 1.477 . S
C2978 H2996 0.932 . S
C2979 C2980 1.384 . S
C2979 C2981 1.479 . S
C2979 H2997 0.929 . S
C2980 C2977 1.424 . S
C2980 C2979 1.384 . S
C2980 H2998 0.928 . S
C2981 C2978 1.260 . S
C2981 C2979 1.479 . S
C2982 C2977 1.245 . S
C2982 C2978 1.477 . S
C2982 H2999 0.932 . S
C2983 U2966 2.882 . S
C2983 C2977 1.428 . S
C2983 O2986 1.301 . S
C2983 O2987 1.282 . S
O2984 U2966 2.441 . S
O2984 C2970 1.249 . S
O2985 U2966 2.420 . S
O2985 C2970 1.202 . S
O2986 U2966 2.455 . S
O2986 C2983 1.301 . S
O2987 U2966 2.449 . S
O2987 C2983 1.282 . S
H2988 C2961 0.931 . S
H2989 C2963 0.929 . S
H2990 C2964 0.930 . S
H2991 C2965 0.931 . S
H2992 C2972 0.932 . S
H2993 C2973 0.930 . S
H2994 C2974 0.929 . S
H2995 C2976 0.930 . S
H2996 C2978 0.932 . S
H2997 C2979 0.929 . S
H2998 C2980 0.928 . S
H2999 C2982 0.932 . S
C3000 C3001 1.264 . S
C3000 C3005 1.479 . S
C3000 C3010 1.465 . S
C3001 C3000 1.264 . S
C3001 C3003 1.339 . S
C3001 H3028 0.931 . S
C3002 C3003 1.395 . S
C3002 C3004 1.320 . S
C3003 C3001 1.339 . S
C3003 C3002 1.395 . S
C3003 H3029 0.929 . S
C3004 C3002 1.320 . S
C3004 C3005 1.405 . S
C3004 H3030 0.930 . S
C3005 C3000 1.479 . S
C3005 C3004 1.405 . S
C3005 H3031 0.931 . S
U3006 O3007 2.454 . S
U3006 O3008 2.458 . S
U3006 C3009 2.984 . S
U3006 C3010 2.847 . S
U3006 C3023 2.882 . S
U3006 O3024 2.441 . S
U3006 O3025 2.420 . S
U3006 O3026 2.455 . S
U3006 O3027 2.449 . S
O3007 U3006 2.454 . S
O3007 C3009 1.353 . S
O3008 U3006 2.458 . S
O3008 C3009 1.286 . S
C3009 U3006 2.984 . S
C3009 O3007 1.353 . S
C3009 O3008 1.286 . S
C3009 C3011 1.363 . S
C3010 C3000 1.465 . S
C3010 U3006 2.847 . S
C3010 O3024 1.249 . S
C3010 O3025 1.202 . S
C3011 C3009 1.363 . S
C3011 C3013 1.408 . S
C3011 C3016 1.342 . S
C3012 C3013 1.310 . S
C3012 C3015 1.461 . S
C3012 H3032 0.932 . S
C3013 C3011 1.408 . S
C3013 C3012 1.310 . S
C3013 H3033 0.930 . S
C3014 C3015 1.474 . S
C3014 C3016 1.285 . S
C3014 H3034 0.929 . S
C3015 C3012 1.461 . S
C3015 C3014 1.474 . S
C3016 C3011 1.342 . S
C3016 C3014 1.285 . S
C3016 H3035 0.930 . S
C3017 C3020 1.424 . S
C3017 C3022 1.245 . S
C3017 C3023 1.428 . S
C3018 C3021 1.260 . S
C3018 C3022 1.477 . S
C3018 H3036 0.932 . S
C3019 C3020 1.384 . S
C3019 C3021 1.479 . S
C3019 H3037 0.929 . S
C3020 C3017 1.424 . S
C3020 C3019 1.384 . S
C3020 H3038 0.928 . S
C3021 C3018 1.260 . S
C3021 C3019 1.479 . S
C3022 C3017 1.245 . S
C3022 C3018 1.477 . S
C3022 H3039 0.932 . S
C3023 U3006 2.882 . S
C3023 C3017 1.428 . S
C3023 O3026 1.301 . S
C3023 O3027 1.282 . S
O3024 U3006 2.441 . S
O3024 C3010 1.249 . S
O3025 U3006 2.420 . S
O3025 C3010 1.202 . S
O3026 U3006 2.455 . S
O3026 C3023 1.301 . S
O3027 U3006 2.449 . S
O3027 C3023 1.282 . S
H3028 C3001 0.931 . S
H3029 C3003 0.929 . S
H3030 C3004 0.930 . S
H3031 C3005 0.931 . S
H3032 C3012 0.932 . S
H3033 C3013 0.930 . S
H3034 C3014 0.929 . S
H3035 C3016 0.930 . S
H3036 C3018 0.932 . S
H3037 C3019 0.929 . S
H3038 C3020 0.928 . S
H3039 C3022 0.932 . S
C3040 C3041 1.264 . S
C3040 C3045 1.479 . S
C3040 C3050 1.465 . S
C3041 C3040 1.264 . S
C3041 C3043 1.339 . S
C3041 H3068 0.931 . S
C3042 C3043 1.395 . S
C3042 C3044 1.320 . S
C3043 C3041 1.339 . S
C3043 C3042 1.395 . S
C3043 H3069 0.929 . S
C3044 C3042 1.320 . S
C3044 C3045 1.405 . S
C3044 H3070 0.930 . S
C3045 C3040 1.479 . S
C3045 C3044 1.405 . S
C3045 H3071 0.931 . S
U3046 O3047 2.454 . S
U3046 O3048 2.458 . S
U3046 C3049 2.984 . S
U3046 C3050 2.847 . S
U3046 C3063 2.882 . S
U3046 O3064 2.441 . S
U3046 O3065 2.420 . S
U3046 O3066 2.455 . S
U3046 O3067 2.449 . S
O3047 U3046 2.454 . S
O3047 C3049 1.353 . S
O3048 U3046 2.458 . S
O3048 C3049 1.286 . S
C3049 U3046 2.984 . S
C3049 O3047 1.353 . S
C3049 O3048 1.286 . S
C3049 C3051 1.363 . S
C3050 C3040 1.465 . S
C3050 U3046 2.847 . S
C3050 O3064 1.249 . S
C3050 O3065 1.202 . S
C3051 C3049 1.363 . S
C3051 C3053 1.408 . S
C3051 C3056 1.342 . S
C3052 C3053 1.310 . S
C3052 C3055 1.461 . S
C3052 H3072 0.932 . S
C3053 C3051 1.408 . S
C3053 C3052 1.310 . S
C3053 H3073 0.930 . S
C3054 C3055 1.474 . S
C3054 C3056 1.285 . S
C3054 H3074 0.929 . S
C3055 C3052 1.461 . S
C3055 C3054 1.474 . S
C3056 C3051 1.342 . S
C3056 C3054 1.285 . S
C3056 H3075 0.930 . S
C3057 C3060 1.424 . S
C3057 C3062 1.245 . S
C3057 C3063 1.428 . S
C3058 C3061 1.260 . S
C3058 C3062 1.477 . S
C3058 H3076 0.932 . S
C3059 C3060 1.384 . S
C3059 C3061 1.479 . S
C3059 H3077 0.929 . S
C3060 C3057 1.424 . S
C3060 C3059 1.384 . S
C3060 H3078 0.928 . S
C3061 C3058 1.260 . S
C3061 C3059 1.479 . S
C3062 C3057 1.245 . S
C3062 C3058 1.477 . S
C3062 H3079 0.932 . S
C3063 U3046 2.882 . S
C3063 C3057 1.428 . S
C3063 O3066 1.301 . S
C3063 O3067 1.282 . S
O3064 U3046 2.441 . S
O3064 C3050 1.249 . S
O3065 U3046 2.420 . S
O3065 C3050 1.202 . S
O3066 U3046 2.455 . S
O3066 C3063 1.301 . S
O3067 U3046 2.449 . S
O3067 C3063 1.282 . S
H3068 C3041 0.931 . S
H3069 C3043 0.929 . S
H3070 C3044 0.930 . S
H3071 C3045 0.931 . S
H3072 C3052 0.932 . S
H3073 C3053 0.930 . S
H3074 C3054 0.929 . S
H3075 C3056 0.930 . S
H3076 C3058 0.932 . S
H3077 C3059 0.929 . S
H3078 C3060 0.928 . S
H3079 C3062 0.932 . S
C3080 C3081 1.264 . S
C3080 C3085 1.479 . S
C3080 C3090 1.465 . S
C3081 C3080 1.264 . S
C3081 C3083 1.339 . S
C3081 H3108 0.931 . S
C3082 C3083 1.395 . S
C3082 C3084 1.320 . S
C3083 C3081 1.339 . S
C3083 C3082 1.395 . S
C3083 H3109 0.929 . S
C3084 C3082 1.320 . S
C3084 C3085 1.405 . S
C3084 H3110 0.930 . S
C3085 C3080 1.479 . S
C3085 C3084 1.405 . S
C3085 H3111 0.931 . S
U3086 O3087 2.454 . S
U3086 O3088 2.458 . S
U3086 C3089 2.984 . S
U3086 C3090 2.847 . S
U3086 C3103 2.882 . S
U3086 O3104 2.441 . S
U3086 O3105 2.420 . S
U3086 O3106 2.455 . S
U3086 O3107 2.449 . S
O3087 U3086 2.454 . S
O3087 C3089 1.353 . S
O3088 U3086 2.458 . S
O3088 C3089 1.286 . S
C3089 U3086 2.984 . S
C3089 O3087 1.353 . S
C3089 O3088 1.286 . S
C3089 C3091 1.363 . S
C3090 C3080 1.465 . S
C3090 U3086 2.847 . S
C3090 O3104 1.249 . S
C3090 O3105 1.202 . S
C3091 C3089 1.363 . S
C3091 C3093 1.408 . S
C3091 C3096 1.342 . S
C3092 C3093 1.310 . S
C3092 C3095 1.461 . S
C3092 H3112 0.932 . S
C3093 C3091 1.408 . S
C3093 C3092 1.310 . S
C3093 H3113 0.930 . S
C3094 C3095 1.474 . S
C3094 C3096 1.285 . S
C3094 H3114 0.929 . S
C3095 C3092 1.461 . S
C3095 C3094 1.474 . S
C3096 C3091 1.342 . S
C3096 C3094 1.285 . S
C3096 H3115 0.930 . S
C3097 C3100 1.424 . S
C3097 C3102 1.245 . S
C3097 C3103 1.428 . S
C3098 C3101 1.260 . S
C3098 C3102 1.477 . S
C3098 H3116 0.932 . S
C3099 C3100 1.384 . S
C3099 C3101 1.479 . S
C3099 H3117 0.929 . S
C3100 C3097 1.424 . S
C3100 C3099 1.384 . S
C3100 H3118 0.928 . S
C3101 C3098 1.260 . S
C3101 C3099 1.479 . S
C3102 C3097 1.245 . S
C3102 C3098 1.477 . S
C3102 H3119 0.932 . S
C3103 U3086 2.882 . S
C3103 C3097 1.428 . S
C3103 O3106 1.301 . S
C3103 O3107 1.282 . S
O3104 U3086 2.441 . S
O3104 C3090 1.249 . S
O3105 U3086 2.420 . S
O3105 C3090 1.202 . S
O3106 U3086 2.455 . S
O3106 C3103 1.301 . S
O3107 U3086 2.449 . S
O3107 C3103 1.282 . S
H3108 C3081 0.931 . S
H3109 C3083 0.929 . S
H3110 C3084 0.930 . S
H3111 C3085 0.931 . S
H3112 C3092 0.932 . S
H3113 C3093 0.930 . S
H3114 C3094 0.929 . S
H3115 C3096 0.930 . S
H3116 C3098 0.932 . S
H3117 C3099 0.929 . S
H3118 C3100 0.928 . S
H3119 C3102 0.932 . S
C3120 C3121 1.264 . S
C3120 C3125 1.479 . S
C3120 C3130 1.465 . S
C3121 C3120 1.264 . S
C3121 C3123 1.339 . S
C3121 H3148 0.931 . S
C3122 C3123 1.395 . S
C3122 C3124 1.320 . S
C3123 C3121 1.339 . S
C3123 C3122 1.395 . S
C3123 H3149 0.929 . S
C3124 C3122 1.320 . S
C3124 C3125 1.405 . S
C3124 H3150 0.930 . S
C3125 C3120 1.479 . S
C3125 C3124 1.405 . S
C3125 H3151 0.931 . S
U3126 O3127 2.454 . S
U3126 O3128 2.458 . S
U3126 C3129 2.984 . S
U3126 C3130 2.847 . S
U3126 C3143 2.882 . S
U3126 O3144 2.441 . S
U3126 O3145 2.420 . S
U3126 O3146 2.455 . S
U3126 O3147 2.449 . S
O3127 U3126 2.454 . S
O3127 C3129 1.353 . S
O3128 U3126 2.458 . S
O3128 C3129 1.286 . S
C3129 U3126 2.984 . S
C3129 O3127 1.353 . S
C3129 O3128 1.286 . S
C3129 C3131 1.363 . S
C3130 C3120 1.465 . S
C3130 U3126 2.847 . S
C3130 O3144 1.249 . S
C3130 O3145 1.202 . S
C3131 C3129 1.363 . S
C3131 C3133 1.408 . S
C3131 C3136 1.342 . S
C3132 C3133 1.310 . S
C3132 C3135 1.461 . S
C3132 H3152 0.932 . S
C3133 C3131 1.408 . S
C3133 C3132 1.310 . S
C3133 H3153 0.930 . S
C3134 C3135 1.474 . S
C3134 C3136 1.285 . S
C3134 H3154 0.929 . S
C3135 C3132 1.461 . S
C3135 C3134 1.474 . S
C3136 C3131 1.342 . S
C3136 C3134 1.285 . S
C3136 H3155 0.930 . S
C3137 C3140 1.424 . S
C3137 C3142 1.245 . S
C3137 C3143 1.428 . S
C3138 C3141 1.260 . S
C3138 C3142 1.477 . S
C3138 H3156 0.932 . S
C3139 C3140 1.384 . S
C3139 C3141 1.479 . S
C3139 H3157 0.929 . S
C3140 C3137 1.424 . S
C3140 C3139 1.384 . S
C3140 H3158 0.928 . S
C3141 C3138 1.260 . S
C3141 C3139 1.479 . S
C3142 C3137 1.245 . S
C3142 C3138 1.477 . S
C3142 H3159 0.932 . S
C3143 U3126 2.882 . S
C3143 C3137 1.428 . S
C3143 O3146 1.301 . S
C3143 O3147 1.282 . S
O3144 U3126 2.441 . S
O3144 C3130 1.249 . S
O3145 U3126 2.420 . S
O3145 C3130 1.202 . S
O3146 U3126 2.455 . S
O3146 C3143 1.301 . S
O3147 U3126 2.449 . S
O3147 C3143 1.282 . S
H3148 C3121 0.931 . S
H3149 C3123 0.929 . S
H3150 C3124 0.930 . S
H3151 C3125 0.931 . S
H3152 C3132 0.932 . S
H3153 C3133 0.930 . S
H3154 C3134 0.929 . S
H3155 C3136 0.930 . S
H3156 C3138 0.932 . S
H3157 C3139 0.929 . S
H3158 C3140 0.928 . S
H3159 C3142 0.932 . S
C3160 C3161 1.264 . S
C3160 C3165 1.479 . S
C3160 C3170 1.465 . S
C3161 C3160 1.264 . S
C3161 C3163 1.339 . S
C3161 H3188 0.931 . S
C3162 C3163 1.395 . S
C3162 C3164 1.320 . S
C3163 C3161 1.339 . S
C3163 C3162 1.395 . S
C3163 H3189 0.929 . S
C3164 C3162 1.320 . S
C3164 C3165 1.405 . S
C3164 H3190 0.930 . S
C3165 C3160 1.479 . S
C3165 C3164 1.405 . S
C3165 H3191 0.931 . S
U3166 O3167 2.454 . S
U3166 O3168 2.458 . S
U3166 C3169 2.984 . S
U3166 C3170 2.847 . S
U3166 C3183 2.882 . S
U3166 O3184 2.441 . S
U3166 O3185 2.420 . S
U3166 O3186 2.455 . S
U3166 O3187 2.449 . S
O3167 U3166 2.454 . S
O3167 C3169 1.353 . S
O3168 U3166 2.458 . S
O3168 C3169 1.286 . S
C3169 U3166 2.984 . S
C3169 O3167 1.353 . S
C3169 O3168 1.286 . S
C3169 C3171 1.363 . S
C3170 C3160 1.465 . S
C3170 U3166 2.847 . S
C3170 O3184 1.249 . S
C3170 O3185 1.202 . S
C3171 C3169 1.363 . S
C3171 C3173 1.408 . S
C3171 C3176 1.342 . S
C3172 C3173 1.310 . S
C3172 C3175 1.461 . S
C3172 H3192 0.932 . S
C3173 C3171 1.408 . S
C3173 C3172 1.310 . S
C3173 H3193 0.930 . S
C3174 C3175 1.474 . S
C3174 C3176 1.285 . S
C3174 H3194 0.929 . S
C3175 C3172 1.461 . S
C3175 C3174 1.474 . S
C3176 C3171 1.342 . S
C3176 C3174 1.285 . S
C3176 H3195 0.930 . S
C3177 C3180 1.424 . S
C3177 C3182 1.245 . S
C3177 C3183 1.428 . S
C3178 C3181 1.260 . S
C3178 C3182 1.477 . S
C3178 H3196 0.932 . S
C3179 C3180 1.384 . S
C3179 C3181 1.479 . S
C3179 H3197 0.929 . S
C3180 C3177 1.424 . S
C3180 C3179 1.384 . S
C3180 H3198 0.928 . S
C3181 C3178 1.260 . S
C3181 C3179 1.479 . S
C3182 C3177 1.245 . S
C3182 C3178 1.477 . S
C3182 H3199 0.932 . S
C3183 U3166 2.882 . S
C3183 C3177 1.428 . S
C3183 O3186 1.301 . S
C3183 O3187 1.282 . S
O3184 U3166 2.441 . S
O3184 C3170 1.249 . S
O3185 U3166 2.420 . S
O3185 C3170 1.202 . S
O3186 U3166 2.455 . S
O3186 C3183 1.301 . S
O3187 U3166 2.449 . S
O3187 C3183 1.282 . S
H3188 C3161 0.931 . S
H3189 C3163 0.929 . S
H3190 C3164 0.930 . S
H3191 C3165 0.931 . S
H3192 C3172 0.932 . S
H3193 C3173 0.930 . S
H3194 C3174 0.929 . S
H3195 C3176 0.930 . S
H3196 C3178 0.932 . S
H3197 C3179 0.929 . S
H3198 C3180 0.928 . S
H3199 C3182 0.932 . S
C3200 C3201 1.264 . S
C3200 C3205 1.479 . S
C3200 C3210 1.465 . S
C3201 C3200 1.264 . S
C3201 C3203 1.339 . S
C3201 H3228 0.931 . S
C3202 C3203 1.395 . S
C3202 C3204 1.320 . S
C3203 C3201 1.339 . S
C3203 C3202 1.395 . S
C3203 H3229 0.929 . S
C3204 C3202 1.320 . S
C3204 C3205 1.405 . S
C3204 H3230 0.930 . S
C3205 C3200 1.479 . S
C3205 C3204 1.405 . S
C3205 H3231 0.931 . S
U3206 O3207 2.454 . S
U3206 O3208 2.458 . S
U3206 C3209 2.984 . S
U3206 C3210 2.847 . S
U3206 C3223 2.882 . S
U3206 O3224 2.441 . S
U3206 O3225 2.420 . S
U3206 O3226 2.455 . S
U3206 O3227 2.449 . S
O3207 U3206 2.454 . S
O3207 C3209 1.353 . S
O3208 U3206 2.458 . S
O3208 C3209 1.286 . S
C3209 U3206 2.984 . S
C3209 O3207 1.353 . S
C3209 O3208 1.286 . S
C3209 C3211 1.363 . S
C3210 C3200 1.465 . S
C3210 U3206 2.847 . S
C3210 O3224 1.249 . S
C3210 O3225 1.202 . S
C3211 C3209 1.363 . S
C3211 C3213 1.408 . S
C3211 C3216 1.342 . S
C3212 C3213 1.310 . S
C3212 C3215 1.461 . S
C3212 H3232 0.932 . S
C3213 C3211 1.408 . S
C3213 C3212 1.310 . S
C3213 H3233 0.930 . S
C3214 C3215 1.474 . S
C3214 C3216 1.285 . S
C3214 H3234 0.929 . S
C3215 C3212 1.461 . S
C3215 C3214 1.474 . S
C3216 C3211 1.342 . S
C3216 C3214 1.285 . S
C3216 H3235 0.930 . S
C3217 C3220 1.424 . S
C3217 C3222 1.245 . S
C3217 C3223 1.428 . S
C3218 C3221 1.260 . S
C3218 C3222 1.477 . S
C3218 H3236 0.932 . S
C3219 C3220 1.384 . S
C3219 C3221 1.479 . S
C3219 H3237 0.929 . S
C3220 C3217 1.424 . S
C3220 C3219 1.384 . S
C3220 H3238 0.928 . S
C3221 C3218 1.260 . S
C3221 C3219 1.479 . S
C3222 C3217 1.245 . S
C3222 C3218 1.477 . S
C3222 H3239 0.932 . S
C3223 U3206 2.882 . S
C3223 C3217 1.428 . S
C3223 O3226 1.301 . S
C3223 O3227 1.282 . S
O3224 U3206 2.441 . S
O3224 C3210 1.249 . S
O3225 U3206 2.420 . S
O3225 C3210 1.202 . S
O3226 U3206 2.455 . S
O3226 C3223 1.301 . S
O3227 U3206 2.449 . S
O3227 C3223 1.282 . S
H3228 C3201 0.931 . S
H3229 C3203 0.929 . S
H3230 C3204 0.930 . S
H3231 C3205 0.931 . S
H3232 C3212 0.932 . S
H3233 C3213 0.930 . S
H3234 C3214 0.929 . S
H3235 C3216 0.930 . S
H3236 C3218 0.932 . S
H3237 C3219 0.929 . S
H3238 C3220 0.928 . S
H3239 C3222 0.932 . S
C3240 C3241 1.264 . S
C3240 C3245 1.479 . S
C3240 C3250 1.465 . S
C3241 C3240 1.264 . S
C3241 C3243 1.339 . S
C3241 H3268 0.931 . S
C3242 C3243 1.395 . S
C3242 C3244 1.320 . S
C3243 C3241 1.339 . S
C3243 C3242 1.395 . S
C3243 H3269 0.929 . S
C3244 C3242 1.320 . S
C3244 C3245 1.405 . S
C3244 H3270 0.930 . S
C3245 C3240 1.479 . S
C3245 C3244 1.405 . S
C3245 H3271 0.931 . S
U3246 O3247 2.454 . S
U3246 O3248 2.458 . S
U3246 C3249 2.984 . S
U3246 C3250 2.847 . S
U3246 C3263 2.882 . S
U3246 O3264 2.441 . S
U3246 O3265 2.420 . S
U3246 O3266 2.455 . S
U3246 O3267 2.449 . S
O3247 U3246 2.454 . S
O3247 C3249 1.353 . S
O3248 U3246 2.458 . S
O3248 C3249 1.286 . S
C3249 U3246 2.984 . S
C3249 O3247 1.353 . S
C3249 O3248 1.286 . S
C3249 C3251 1.363 . S
C3250 C3240 1.465 . S
C3250 U3246 2.847 . S
C3250 O3264 1.249 . S
C3250 O3265 1.202 . S
C3251 C3249 1.363 . S
C3251 C3253 1.408 . S
C3251 C3256 1.342 . S
C3252 C3253 1.310 . S
C3252 C3255 1.461 . S
C3252 H3272 0.932 . S
C3253 C3251 1.408 . S
C3253 C3252 1.310 . S
C3253 H3273 0.930 . S
C3254 C3255 1.474 . S
C3254 C3256 1.285 . S
C3254 H3274 0.929 . S
C3255 C3252 1.461 . S
C3255 C3254 1.474 . S
C3256 C3251 1.342 . S
C3256 C3254 1.285 . S
C3256 H3275 0.930 . S
C3257 C3260 1.424 . S
C3257 C3262 1.245 . S
C3257 C3263 1.428 . S
C3258 C3261 1.260 . S
C3258 C3262 1.477 . S
C3258 H3276 0.932 . S
C3259 C3260 1.384 . S
C3259 C3261 1.479 . S
C3259 H3277 0.929 . S
C3260 C3257 1.424 . S
C3260 C3259 1.384 . S
C3260 H3278 0.928 . S
C3261 C3258 1.260 . S
C3261 C3259 1.479 . S
C3262 C3257 1.245 . S
C3262 C3258 1.477 . S
C3262 H3279 0.932 . S
C3263 U3246 2.882 . S
C3263 C3257 1.428 . S
C3263 O3266 1.301 . S
C3263 O3267 1.282 . S
O3264 U3246 2.441 . S
O3264 C3250 1.249 . S
O3265 U3246 2.420 . S
O3265 C3250 1.202 . S
O3266 U3246 2.455 . S
O3266 C3263 1.301 . S
O3267 U3246 2.449 . S
O3267 C3263 1.282 . S
H3268 C3241 0.931 . S
H3269 C3243 0.929 . S
H3270 C3244 0.930 . S
H3271 C3245 0.931 . S
H3272 C3252 0.932 . S
H3273 C3253 0.930 . S
H3274 C3254 0.929 . S
H3275 C3256 0.930 . S
H3276 C3258 0.932 . S
H3277 C3259 0.929 . S
H3278 C3260 0.928 . S
H3279 C3262 0.932 . S
C3280 C3281 1.264 . S
C3280 C3285 1.479 . S
C3280 C3290 1.465 . S
C3281 C3280 1.264 . S
C3281 C3283 1.339 . S
C3281 H3308 0.931 . S
C3282 C3283 1.395 . S
C3282 C3284 1.320 . S
C3283 C3281 1.339 . S
C3283 C3282 1.395 . S
C3283 H3309 0.929 . S
C3284 C3282 1.320 . S
C3284 C3285 1.405 . S
C3284 H3310 0.930 . S
C3285 C3280 1.479 . S
C3285 C3284 1.405 . S
C3285 H3311 0.931 . S
U3286 O3287 2.454 . S
U3286 O3288 2.458 . S
U3286 C3289 2.984 . S
U3286 C3290 2.847 . S
U3286 C3303 2.882 . S
U3286 O3304 2.441 . S
U3286 O3305 2.420 . S
U3286 O3306 2.455 . S
U3286 O3307 2.449 . S
O3287 U3286 2.454 . S
O3287 C3289 1.353 . S
O3288 U3286 2.458 . S
O3288 C3289 1.286 . S
C3289 U3286 2.984 . S
C3289 O3287 1.353 . S
C3289 O3288 1.286 . S
C3289 C3291 1.363 . S
C3290 C3280 1.465 . S
C3290 U3286 2.847 . S
C3290 O3304 1.249 . S
C3290 O3305 1.202 . S
C3291 C3289 1.363 . S
C3291 C3293 1.408 . S
C3291 C3296 1.342 . S
C3292 C3293 1.310 . S
C3292 C3295 1.461 . S
C3292 H3312 0.932 . S
C3293 C3291 1.408 . S
C3293 C3292 1.310 . S
C3293 H3313 0.930 . S
C3294 C3295 1.474 . S
C3294 C3296 1.285 . S
C3294 H3314 0.929 . S
C3295 C3292 1.461 . S
C3295 C3294 1.474 . S
C3296 C3291 1.342 . S
C3296 C3294 1.285 . S
C3296 H3315 0.930 . S
C3297 C3300 1.424 . S
C3297 C3302 1.245 . S
C3297 C3303 1.428 . S
C3298 C3301 1.260 . S
C3298 C3302 1.477 . S
C3298 H3316 0.932 . S
C3299 C3300 1.384 . S
C3299 C3301 1.479 . S
C3299 H3317 0.929 . S
C3300 C3297 1.424 . S
C3300 C3299 1.384 . S
C3300 H3318 0.928 . S
C3301 C3298 1.260 . S
C3301 C3299 1.479 . S
C3302 C3297 1.245 . S
C3302 C3298 1.477 . S
C3302 H3319 0.932 . S
C3303 U3286 2.882 . S
C3303 C3297 1.428 . S
C3303 O3306 1.301 . S
C3303 O3307 1.282 . S
O3304 U3286 2.441 . S
O3304 C3290 1.249 . S
O3305 U3286 2.420 . S
O3305 C3290 1.202 . S
O3306 U3286 2.455 . S
O3306 C3303 1.301 . S
O3307 U3286 2.449 . S
O3307 C3303 1.282 . S
H3308 C3281 0.931 . S
H3309 C3283 0.929 . S
H3310 C3284 0.930 . S
H3311 C3285 0.931 . S
H3312 C3292 0.932 . S
H3313 C3293 0.930 . S
H3314 C3294 0.929 . S
H3315 C3296 0.930 . S
H3316 C3298 0.932 . S
H3317 C3299 0.929 . S
H3318 C3300 0.928 . S
H3319 C3302 0.932 . S
C3320 C3321 1.264 . S
C3320 C3325 1.479 . S
C3320 C3330 1.465 . S
C3321 C3320 1.264 . S
C3321 C3323 1.339 . S
C3321 H3348 0.931 . S
C3322 C3323 1.395 . S
C3322 C3324 1.320 . S
C3323 C3321 1.339 . S
C3323 C3322 1.395 . S
C3323 H3349 0.929 . S
C3324 C3322 1.320 . S
C3324 C3325 1.405 . S
C3324 H3350 0.930 . S
C3325 C3320 1.479 . S
C3325 C3324 1.405 . S
C3325 H3351 0.931 . S
U3326 O3327 2.454 . S
U3326 O3328 2.458 . S
U3326 C3329 2.984 . S
U3326 C3330 2.847 . S
U3326 C3343 2.882 . S
U3326 O3344 2.441 . S
U3326 O3345 2.420 . S
U3326 O3346 2.455 . S
U3326 O3347 2.449 . S
O3327 U3326 2.454 . S
O3327 C3329 1.353 . S
O3328 U3326 2.458 . S
O3328 C3329 1.286 . S
C3329 U3326 2.984 . S
C3329 O3327 1.353 . S
C3329 O3328 1.286 . S
C3329 C3331 1.363 . S
C3330 C3320 1.465 . S
C3330 U3326 2.847 . S
C3330 O3344 1.249 . S
C3330 O3345 1.202 . S
C3331 C3329 1.363 . S
C3331 C3333 1.408 . S
C3331 C3336 1.342 . S
C3332 C3333 1.310 . S
C3332 C3335 1.461 . S
C3332 H3352 0.932 . S
C3333 C3331 1.408 . S
C3333 C3332 1.310 . S
C3333 H3353 0.930 . S
C3334 C3335 1.474 . S
C3334 C3336 1.285 . S
C3334 H3354 0.929 . S
C3335 C3332 1.461 . S
C3335 C3334 1.474 . S
C3336 C3331 1.342 . S
C3336 C3334 1.285 . S
C3336 H3355 0.930 . S
C3337 C3340 1.424 . S
C3337 C3342 1.245 . S
C3337 C3343 1.428 . S
C3338 C3341 1.260 . S
C3338 C3342 1.477 . S
C3338 H3356 0.932 . S
C3339 C3340 1.384 . S
C3339 C3341 1.479 . S
C3339 H3357 0.929 . S
C3340 C3337 1.424 . S
C3340 C3339 1.384 . S
C3340 H3358 0.928 . S
C3341 C3338 1.260 . S
C3341 C3339 1.479 . S
C3342 C3337 1.245 . S
C3342 C3338 1.477 . S
C3342 H3359 0.932 . S
C3343 U3326 2.882 . S
C3343 C3337 1.428 . S
C3343 O3346 1.301 . S
C3343 O3347 1.282 . S
O3344 U3326 2.441 . S
O3344 C3330 1.249 . S
O3345 U3326 2.420 . S
O3345 C3330 1.202 . S
O3346 U3326 2.455 . S
O3346 C3343 1.301 . S
O3347 U3326 2.449 . S
O3347 C3343 1.282 . S
H3348 C3321 0.931 . S
H3349 C3323 0.929 . S
H3350 C3324 0.930 . S
H3351 C3325 0.931 . S
H3352 C3332 0.932 . S
H3353 C3333 0.930 . S
H3354 C3334 0.929 . S
H3355 C3336 0.930 . S
H3356 C3338 0.932 . S
H3357 C3339 0.929 . S
H3358 C3340 0.928 . S
H3359 C3342 0.932 . S
C3360 C3361 1.264 . S
C3360 C3365 1.479 . S
C3360 C3370 1.465 . S
C3361 C3360 1.264 . S
C3361 C3363 1.339 . S
C3361 H3388 0.931 . S
C3362 C3363 1.395 . S
C3362 C3364 1.320 . S
C3363 C3361 1.339 . S
C3363 C3362 1.395 . S
C3363 H3389 0.929 . S
C3364 C3362 1.320 . S
C3364 C3365 1.405 . S
C3364 H3390 0.930 . S
C3365 C3360 1.479 . S
C3365 C3364 1.405 . S
C3365 H3391 0.931 . S
U3366 O3367 2.454 . S
U3366 O3368 2.458 . S
U3366 C3369 2.984 . S
U3366 C3370 2.847 . S
U3366 C3383 2.882 . S
U3366 O3384 2.441 . S
U3366 O3385 2.420 . S
U3366 O3386 2.455 . S
U3366 O3387 2.449 . S
O3367 U3366 2.454 . S
O3367 C3369 1.353 . S
O3368 U3366 2.458 . S
O3368 C3369 1.286 . S
C3369 U3366 2.984 . S
C3369 O3367 1.353 . S
C3369 O3368 1.286 . S
C3369 C3371 1.363 . S
C3370 C3360 1.465 . S
C3370 U3366 2.847 . S
C3370 O3384 1.249 . S
C3370 O3385 1.202 . S
C3371 C3369 1.363 . S
C3371 C3373 1.408 . S
C3371 C3376 1.342 . S
C3372 C3373 1.310 . S
C3372 C3375 1.461 . S
C3372 H3392 0.932 . S
C3373 C3371 1.408 . S
C3373 C3372 1.310 . S
C3373 H3393 0.930 . S
C3374 C3375 1.474 . S
C3374 C3376 1.285 . S
C3374 H3394 0.929 . S
C3375 C3372 1.461 . S
C3375 C3374 1.474 . S
C3376 C3371 1.342 . S
C3376 C3374 1.285 . S
C3376 H3395 0.930 . S
C3377 C3380 1.424 . S
C3377 C3382 1.245 . S
C3377 C3383 1.428 . S
C3378 C3381 1.260 . S
C3378 C3382 1.477 . S
C3378 H3396 0.932 . S
C3379 C3380 1.384 . S
C3379 C3381 1.479 . S
C3379 H3397 0.929 . S
C3380 C3377 1.424 . S
C3380 C3379 1.384 . S
C3380 H3398 0.928 . S
C3381 C3378 1.260 . S
C3381 C3379 1.479 . S
C3382 C3377 1.245 . S
C3382 C3378 1.477 . S
C3382 H3399 0.932 . S
C3383 U3366 2.882 . S
C3383 C3377 1.428 . S
C3383 O3386 1.301 . S
C3383 O3387 1.282 . S
O3384 U3366 2.441 . S
O3384 C3370 1.249 . S
O3385 U3366 2.420 . S
O3385 C3370 1.202 . S
O3386 U3366 2.455 . S
O3386 C3383 1.301 . S
O3387 U3366 2.449 . S
O3387 C3383 1.282 . S
H3388 C3361 0.931 . S
H3389 C3363 0.929 . S
H3390 C3364 0.930 . S
H3391 C3365 0.931 . S
H3392 C3372 0.932 . S
H3393 C3373 0.930 . S
H3394 C3374 0.929 . S
H3395 C3376 0.930 . S
H3396 C3378 0.932 . S
H3397 C3379 0.929 . S
H3398 C3380 0.928 . S
H3399 C3382 0.932 . S
C3400 C3401 1.264 . S
C3400 C3405 1.479 . S
C3400 C3410 1.465 . S
C3401 C3400 1.264 . S
C3401 C3403 1.339 . S
C3401 H3428 0.931 . S
C3402 C3403 1.395 . S
C3402 C3404 1.320 . S
C3403 C3401 1.339 . S
C3403 C3402 1.395 . S
C3403 H3429 0.929 . S
C3404 C3402 1.320 . S
C3404 C3405 1.405 . S
C3404 H3430 0.930 . S
C3405 C3400 1.479 . S
C3405 C3404 1.405 . S
C3405 H3431 0.931 . S
U3406 O3407 2.454 . S
U3406 O3408 2.458 . S
U3406 C3409 2.984 . S
U3406 C3410 2.847 . S
U3406 C3423 2.882 . S
U3406 O3424 2.441 . S
U3406 O3425 2.420 . S
U3406 O3426 2.455 . S
U3406 O3427 2.449 . S
O3407 U3406 2.454 . S
O3407 C3409 1.353 . S
O3408 U3406 2.458 . S
O3408 C3409 1.286 . S
C3409 U3406 2.984 . S
C3409 O3407 1.353 . S
C3409 O3408 1.286 . S
C3409 C3411 1.363 . S
C3410 C3400 1.465 . S
C3410 U3406 2.847 . S
C3410 O3424 1.249 . S
C3410 O3425 1.202 . S
C3411 C3409 1.363 . S
C3411 C3413 1.408 . S
C3411 C3416 1.342 . S
C3412 C3413 1.310 . S
C3412 C3415 1.461 . S
C3412 H3432 0.932 . S
C3413 C3411 1.408 . S
C3413 C3412 1.310 . S
C3413 H3433 0.930 . S
C3414 C3415 1.474 . S
C3414 C3416 1.285 . S
C3414 H3434 0.929 . S
C3415 C3412 1.461 . S
C3415 C3414 1.474 . S
C3416 C3411 1.342 . S
C3416 C3414 1.285 . S
C3416 H3435 0.930 . S
C3417 C3420 1.424 . S
C3417 C3422 1.245 . S
C3417 C3423 1.428 . S
C3418 C3421 1.260 . S
C3418 C3422 1.477 . S
C3418 H3436 0.932 . S
C3419 C3420 1.384 . S
C3419 C3421 1.479 . S
C3419 H3437 0.929 . S
C3420 C3417 1.424 . S
C3420 C3419 1.384 . S
C3420 H3438 0.928 . S
C3421 C3418 1.260 . S
C3421 C3419 1.479 . S
C3422 C3417 1.245 . S
C3422 C3418 1.477 . S
C3422 H3439 0.932 . S
C3423 U3406 2.882 . S
C3423 C3417 1.428 . S
C3423 O3426 1.301 . S
C3423 O3427 1.282 . S
O3424 U3406 2.441 . S
O3424 C3410 1.249 . S
O3425 U3406 2.420 . S
O3425 C3410 1.202 . S
O3426 U3406 2.455 . S
O3426 C3423 1.301 . S
O3427 U3406 2.449 . S
O3427 C3423 1.282 . S
H3428 C3401 0.931 . S
H3429 C3403 0.929 . S
H3430 C3404 0.930 . S
H3431 C3405 0.931 . S
H3432 C3412 0.932 . S
H3433 C3413 0.930 . S
H3434 C3414 0.929 . S
H3435 C3416 0.930 . S
H3436 C3418 0.932 . S
H3437 C3419 0.929 . S
H3438 C3420 0.928 . S
H3439 C3422 0.932 . S
C3440 C3441 1.264 . S
C3440 C3445 1.479 . S
C3440 C3450 1.465 . S
C3441 C3440 1.264 . S
C3441 C3443 1.339 . S
C3441 H3468 0.931 . S
C3442 C3443 1.395 . S
C3442 C3444 1.320 . S
C3443 C3441 1.339 . S
C3443 C3442 1.395 . S
C3443 H3469 0.929 . S
C3444 C3442 1.320 . S
C3444 C3445 1.405 . S
C3444 H3470 0.930 . S
C3445 C3440 1.479 . S
C3445 C3444 1.405 . S
C3445 H3471 0.931 . S
U3446 O3447 2.454 . S
U3446 O3448 2.458 . S
U3446 C3449 2.984 . S
U3446 C3450 2.847 . S
U3446 C3463 2.882 . S
U3446 O3464 2.441 . S
U3446 O3465 2.420 . S
U3446 O3466 2.455 . S
U3446 O3467 2.449 . S
O3447 U3446 2.454 . S
O3447 C3449 1.353 . S
O3448 U3446 2.458 . S
O3448 C3449 1.286 . S
C3449 U3446 2.984 . S
C3449 O3447 1.353 . S
C3449 O3448 1.286 . S
C3449 C3451 1.363 . S
C3450 C3440 1.465 . S
C3450 U3446 2.847 . S
C3450 O3464 1.249 . S
C3450 O3465 1.202 . S
C3451 C3449 1.363 . S
C3451 C3453 1.408 . S
C3451 C3456 1.342 . S
C3452 C3453 1.310 . S
C3452 C3455 1.461 . S
C3452 H3472 0.932 . S
C3453 C3451 1.408 . S
C3453 C3452 1.310 . S
C3453 H3473 0.930 . S
C3454 C3455 1.474 . S
C3454 C3456 1.285 . S
C3454 H3474 0.929 . S
C3455 C3452 1.461 . S
C3455 C3454 1.474 . S
C3456 C3451 1.342 . S
C3456 C3454 1.285 . S
C3456 H3475 0.930 . S
C3457 C3460 1.424 . S
C3457 C3462 1.245 . S
C3457 C3463 1.428 . S
C3458 C3461 1.260 . S
C3458 C3462 1.477 . S
C3458 H3476 0.932 . S
C3459 C3460 1.384 . S
C3459 C3461 1.479 . S
C3459 H3477 0.929 . S
C3460 C3457 1.424 . S
C3460 C3459 1.384 . S
C3460 H3478 0.928 . S
C3461 C3458 1.260 . S
C3461 C3459 1.479 . S
C3462 C3457 1.245 . S
C3462 C3458 1.477 . S
C3462 H3479 0.932 . S
C3463 U3446 2.882 . S
C3463 C3457 1.428 . S
C3463 O3466 1.301 . S
C3463 O3467 1.282 . S
O3464 U3446 2.441 . S
O3464 C3450 1.249 . S
O3465 U3446 2.420 . S
O3465 C3450 1.202 . S
O3466 U3446 2.455 . S
O3466 C3463 1.301 . S
O3467 U3446 2.449 . S
O3467 C3463 1.282 . S
H3468 C3441 0.931 . S
H3469 C3443 0.929 . S
H3470 C3444 0.930 . S
H3471 C3445 0.931 . S
H3472 C3452 0.932 . S
H3473 C3453 0.930 . S
H3474 C3454 0.929 . S
H3475 C3456 0.930 . S
H3476 C3458 0.932 . S
H3477 C3459 0.929 . S
H3478 C3460 0.928 . S
H3479 C3462 0.932 . S
C3480 C3481 1.264 . S
C3480 C3485 1.479 . S
C3480 C3490 1.465 . S
C3481 C3480 1.264 . S
C3481 C3483 1.339 . S
C3481 H3508 0.931 . S
C3482 C3483 1.395 . S
C3482 C3484 1.320 . S
C3483 C3481 1.339 . S
C3483 C3482 1.395 . S
C3483 H3509 0.929 . S
C3484 C3482 1.320 . S
C3484 C3485 1.405 . S
C3484 H3510 0.930 . S
C3485 C3480 1.479 . S
C3485 C3484 1.405 . S
C3485 H3511 0.931 . S
U3486 O3487 2.454 . S
U3486 O3488 2.458 . S
U3486 C3489 2.984 . S
U3486 C3490 2.847 . S
U3486 C3503 2.882 . S
U3486 O3504 2.441 . S
U3486 O3505 2.420 . S
U3486 O3506 2.455 . S
U3486 O3507 2.449 . S
O3487 U3486 2.454 . S
O3487 C3489 1.353 . S
O3488 U3486 2.458 . S
O3488 C3489 1.286 . S
C3489 U3486 2.984 . S
C3489 O3487 1.353 . S
C3489 O3488 1.286 . S
C3489 C3491 1.363 . S
C3490 C3480 1.465 . S
C3490 U3486 2.847 . S
C3490 O3504 1.249 . S
C3490 O3505 1.202 . S
C3491 C3489 1.363 . S
C3491 C3493 1.408 . S
C3491 C3496 1.342 . S
C3492 C3493 1.310 . S
C3492 C3495 1.461 . S
C3492 H3512 0.932 . S
C3493 C3491 1.408 . S
C3493 C3492 1.310 . S
C3493 H3513 0.930 . S
C3494 C3495 1.474 . S
C3494 C3496 1.285 . S
C3494 H3514 0.929 . S
C3495 C3492 1.461 . S
C3495 C3494 1.474 . S
C3496 C3491 1.342 . S
C3496 C3494 1.285 . S
C3496 H3515 0.930 . S
C3497 C3500 1.424 . S
C3497 C3502 1.245 . S
C3497 C3503 1.428 . S
C3498 C3501 1.260 . S
C3498 C3502 1.477 . S
C3498 H3516 0.932 . S
C3499 C3500 1.384 . S
C3499 C3501 1.479 . S
C3499 H3517 0.929 . S
C3500 C3497 1.424 . S
C3500 C3499 1.384 . S
C3500 H3518 0.928 . S
C3501 C3498 1.260 . S
C3501 C3499 1.479 . S
C3502 C3497 1.245 . S
C3502 C3498 1.477 . S
C3502 H3519 0.932 . S
C3503 U3486 2.882 . S
C3503 C3497 1.428 . S
C3503 O3506 1.301 . S
C3503 O3507 1.282 . S
O3504 U3486 2.441 . S
O3504 C3490 1.249 . S
O3505 U3486 2.420 . S
O3505 C3490 1.202 . S
O3506 U3486 2.455 . S
O3506 C3503 1.301 . S
O3507 U3486 2.449 . S
O3507 C3503 1.282 . S
H3508 C3481 0.931 . S
H3509 C3483 0.929 . S
H3510 C3484 0.930 . S
H3511 C3485 0.931 . S
H3512 C3492 0.932 . S
H3513 C3493 0.930 . S
H3514 C3494 0.929 . S
H3515 C3496 0.930 . S
H3516 C3498 0.932 . S
H3517 C3499 0.929 . S
H3518 C3500 0.928 . S
H3519 C3502 0.932 . S
C3520 C3521 1.264 . S
C3520 C3525 1.479 . S
C3520 C3530 1.465 . S
C3521 C3520 1.264 . S
C3521 C3523 1.339 . S
C3521 H3548 0.931 . S
C3522 C3523 1.395 . S
C3522 C3524 1.320 . S
C3523 C3521 1.339 . S
C3523 C3522 1.395 . S
C3523 H3549 0.929 . S
C3524 C3522 1.320 . S
C3524 C3525 1.405 . S
C3524 H3550 0.930 . S
C3525 C3520 1.479 . S
C3525 C3524 1.405 . S
C3525 H3551 0.931 . S
U3526 O3527 2.454 . S
U3526 O3528 2.458 . S
U3526 C3529 2.984 . S
U3526 C3530 2.847 . S
U3526 C3543 2.882 . S
U3526 O3544 2.441 . S
U3526 O3545 2.420 . S
U3526 O3546 2.455 . S
U3526 O3547 2.449 . S
O3527 U3526 2.454 . S
O3527 C3529 1.353 . S
O3528 U3526 2.458 . S
O3528 C3529 1.286 . S
C3529 U3526 2.984 . S
C3529 O3527 1.353 . S
C3529 O3528 1.286 . S
C3529 C3531 1.363 . S
C3530 C3520 1.465 . S
C3530 U3526 2.847 . S
C3530 O3544 1.249 . S
C3530 O3545 1.202 . S
C3531 C3529 1.363 . S
C3531 C3533 1.408 . S
C3531 C3536 1.342 . S
C3532 C3533 1.310 . S
C3532 C3535 1.461 . S
C3532 H3552 0.932 . S
C3533 C3531 1.408 . S
C3533 C3532 1.310 . S
C3533 H3553 0.930 . S
C3534 C3535 1.474 . S
C3534 C3536 1.285 . S
C3534 H3554 0.929 . S
C3535 C3532 1.461 . S
C3535 C3534 1.474 . S
C3536 C3531 1.342 . S
C3536 C3534 1.285 . S
C3536 H3555 0.930 . S
C3537 C3540 1.424 . S
C3537 C3542 1.245 . S
C3537 C3543 1.428 . S
C3538 C3541 1.260 . S
C3538 C3542 1.477 . S
C3538 H3556 0.932 . S
C3539 C3540 1.384 . S
C3539 C3541 1.479 . S
C3539 H3557 0.929 . S
C3540 C3537 1.424 . S
C3540 C3539 1.384 . S
C3540 H3558 0.928 . S
C3541 C3538 1.260 . S
C3541 C3539 1.479 . S
C3542 C3537 1.245 . S
C3542 C3538 1.477 . S
C3542 H3559 0.932 . S
C3543 U3526 2.882 . S
C3543 C3537 1.428 . S
C3543 O3546 1.301 . S
C3543 O3547 1.282 . S
O3544 U3526 2.441 . S
O3544 C3530 1.249 . S
O3545 U3526 2.420 . S
O3545 C3530 1.202 . S
O3546 U3526 2.455 . S
O3546 C3543 1.301 . S
O3547 U3526 2.449 . S
O3547 C3543 1.282 . S
H3548 C3521 0.931 . S
H3549 C3523 0.929 . S
H3550 C3524 0.930 . S
H3551 C3525 0.931 . S
H3552 C3532 0.932 . S
H3553 C3533 0.930 . S
H3554 C3534 0.929 . S
H3555 C3536 0.930 . S
H3556 C3538 0.932 . S
H3557 C3539 0.929 . S
H3558 C3540 0.928 . S
H3559 C3542 0.932 . S
C3560 C3561 1.264 . S
C3560 C3565 1.479 . S
C3560 C3570 1.465 . S
C3561 C3560 1.264 . S
C3561 C3563 1.339 . S
C3561 H3588 0.931 . S
C3562 C3563 1.395 . S
C3562 C3564 1.320 . S
C3563 C3561 1.339 . S
C3563 C3562 1.395 . S
C3563 H3589 0.929 . S
C3564 C3562 1.320 . S
C3564 C3565 1.405 . S
C3564 H3590 0.930 . S
C3565 C3560 1.479 . S
C3565 C3564 1.405 . S
C3565 H3591 0.931 . S
U3566 O3567 2.454 . S
U3566 O3568 2.458 . S
U3566 C3569 2.984 . S
U3566 C3570 2.847 . S
U3566 C3583 2.882 . S
U3566 O3584 2.441 . S
U3566 O3585 2.420 . S
U3566 O3586 2.455 . S
U3566 O3587 2.449 . S
O3567 U3566 2.454 . S
O3567 C3569 1.353 . S
O3568 U3566 2.458 . S
O3568 C3569 1.286 . S
C3569 U3566 2.984 . S
C3569 O3567 1.353 . S
C3569 O3568 1.286 . S
C3569 C3571 1.363 . S
C3570 C3560 1.465 . S
C3570 U3566 2.847 . S
C3570 O3584 1.249 . S
C3570 O3585 1.202 . S
C3571 C3569 1.363 . S
C3571 C3573 1.408 . S
C3571 C3576 1.342 . S
C3572 C3573 1.310 . S
C3572 C3575 1.461 . S
C3572 H3592 0.932 . S
C3573 C3571 1.408 . S
C3573 C3572 1.310 . S
C3573 H3593 0.930 . S
C3574 C3575 1.474 . S
C3574 C3576 1.285 . S
C3574 H3594 0.929 . S
C3575 C3572 1.461 . S
C3575 C3574 1.474 . S
C3576 C3571 1.342 . S
C3576 C3574 1.285 . S
C3576 H3595 0.930 . S
C3577 C3580 1.424 . S
C3577 C3582 1.245 . S
C3577 C3583 1.428 . S
C3578 C3581 1.260 . S
C3578 C3582 1.477 . S
C3578 H3596 0.932 . S
C3579 C3580 1.384 . S
C3579 C3581 1.479 . S
C3579 H3597 0.929 . S
C3580 C3577 1.424 . S
C3580 C3579 1.384 . S
C3580 H3598 0.928 . S
C3581 C3578 1.260 . S
C3581 C3579 1.479 . S
C3582 C3577 1.245 . S
C3582 C3578 1.477 . S
C3582 H3599 0.932 . S
C3583 U3566 2.882 . S
C3583 C3577 1.428 . S
C3583 O3586 1.301 . S
C3583 O3587 1.282 . S
O3584 U3566 2.441 . S
O3584 C3570 1.249 . S
O3585 U3566 2.420 . S
O3585 C3570 1.202 . S
O3586 U3566 2.455 . S
O3586 C3583 1.301 . S
O3587 U3566 2.449 . S
O3587 C3583 1.282 . S
H3588 C3561 0.931 . S
H3589 C3563 0.929 . S
H3590 C3564 0.930 . S
H3591 C3565 0.931 . S
H3592 C3572 0.932 . S
H3593 C3573 0.930 . S
H3594 C3574 0.929 . S
H3595 C3576 0.930 . S
H3596 C3578 0.932 . S
H3597 C3579 0.929 . S
H3598 C3580 0.928 . S
H3599 C3582 0.932 . S
C3600 C3601 1.264 . S
C3600 C3605 1.479 . S
C3600 C3610 1.465 . S
C3601 C3600 1.264 . S
C3601 C3603 1.339 . S
C3601 H3628 0.931 . S
C3602 C3603 1.395 . S
C3602 C3604 1.320 . S
C3603 C3601 1.339 . S
C3603 C3602 1.395 . S
C3603 H3629 0.929 . S
C3604 C3602 1.320 . S
C3604 C3605 1.405 . S
C3604 H3630 0.930 . S
C3605 C3600 1.479 . S
C3605 C3604 1.405 . S
C3605 H3631 0.931 . S
U3606 O3607 2.454 . S
U3606 O3608 2.458 . S
U3606 C3609 2.984 . S
U3606 C3610 2.847 . S
U3606 C3623 2.882 . S
U3606 O3624 2.441 . S
U3606 O3625 2.420 . S
U3606 O3626 2.455 . S
U3606 O3627 2.449 . S
O3607 U3606 2.454 . S
O3607 C3609 1.353 . S
O3608 U3606 2.458 . S
O3608 C3609 1.286 . S
C3609 U3606 2.984 . S
C3609 O3607 1.353 . S
C3609 O3608 1.286 . S
C3609 C3611 1.363 . S
C3610 C3600 1.465 . S
C3610 U3606 2.847 . S
C3610 O3624 1.249 . S
C3610 O3625 1.202 . S
C3611 C3609 1.363 . S
C3611 C3613 1.408 . S
C3611 C3616 1.342 . S
C3612 C3613 1.310 . S
C3612 C3615 1.461 . S
C3612 H3632 0.932 . S
C3613 C3611 1.408 . S
C3613 C3612 1.310 . S
C3613 H3633 0.930 . S
C3614 C3615 1.474 . S
C3614 C3616 1.285 . S
C3614 H3634 0.929 . S
C3615 C3612 1.461 . S
C3615 C3614 1.474 . S
C3616 C3611 1.342 . S
C3616 C3614 1.285 . S
C3616 H3635 0.930 . S
C3617 C3620 1.424 . S
C3617 C3622 1.245 . S
C3617 C3623 1.428 . S
C3618 C3621 1.260 . S
C3618 C3622 1.477 . S
C3618 H3636 0.932 . S
C3619 C3620 1.384 . S
C3619 C3621 1.479 . S
C3619 H3637 0.929 . S
C3620 C3617 1.424 . S
C3620 C3619 1.384 . S
C3620 H3638 0.928 . S
C3621 C3618 1.260 . S
C3621 C3619 1.479 . S
C3622 C3617 1.245 . S
C3622 C3618 1.477 . S
C3622 H3639 0.932 . S
C3623 U3606 2.882 . S
C3623 C3617 1.428 . S
C3623 O3626 1.301 . S
C3623 O3627 1.282 . S
O3624 U3606 2.441 . S
O3624 C3610 1.249 . S
O3625 U3606 2.420 . S
O3625 C3610 1.202 . S
O3626 U3606 2.455 . S
O3626 C3623 1.301 . S
O3627 U3606 2.449 . S
O3627 C3623 1.282 . S
H3628 C3601 0.931 . S
H3629 C3603 0.929 . S
H3630 C3604 0.930 . S
H3631 C3605 0.931 . S
H3632 C3612 0.932 . S
H3633 C3613 0.930 . S
H3634 C3614 0.929 . S
H3635 C3616 0.930 . S
H3636 C3618 0.932 . S
H3637 C3619 0.929 . S
H3638 C3620 0.928 . S
H3639 C3622 0.932 . S
C3640 C3641 1.264 . S
C3640 C3645 1.479 . S
C3640 C3650 1.465 . S
C3641 C3640 1.264 . S
C3641 C3643 1.339 . S
C3641 H3668 0.931 . S
C3642 C3643 1.395 . S
C3642 C3644 1.320 . S
C3643 C3641 1.339 . S
C3643 C3642 1.395 . S
C3643 H3669 0.929 . S
C3644 C3642 1.320 . S
C3644 C3645 1.405 . S
C3644 H3670 0.930 . S
C3645 C3640 1.479 . S
C3645 C3644 1.405 . S
C3645 H3671 0.931 . S
U3646 O3647 2.454 . S
U3646 O3648 2.458 . S
U3646 C3649 2.984 . S
U3646 C3650 2.847 . S
U3646 C3663 2.882 . S
U3646 O3664 2.441 . S
U3646 O3665 2.420 . S
U3646 O3666 2.455 . S
U3646 O3667 2.449 . S
O3647 U3646 2.454 . S
O3647 C3649 1.353 . S
O3648 U3646 2.458 . S
O3648 C3649 1.286 . S
C3649 U3646 2.984 . S
C3649 O3647 1.353 . S
C3649 O3648 1.286 . S
C3649 C3651 1.363 . S
C3650 C3640 1.465 . S
C3650 U3646 2.847 . S
C3650 O3664 1.249 . S
C3650 O3665 1.202 . S
C3651 C3649 1.363 . S
C3651 C3653 1.408 . S
C3651 C3656 1.342 . S
C3652 C3653 1.310 . S
C3652 C3655 1.461 . S
C3652 H3672 0.932 . S
C3653 C3651 1.408 . S
C3653 C3652 1.310 . S
C3653 H3673 0.930 . S
C3654 C3655 1.474 . S
C3654 C3656 1.285 . S
C3654 H3674 0.929 . S
C3655 C3652 1.461 . S
C3655 C3654 1.474 . S
C3656 C3651 1.342 . S
C3656 C3654 1.285 . S
C3656 H3675 0.930 . S
C3657 C3660 1.424 . S
C3657 C3662 1.245 . S
C3657 C3663 1.428 . S
C3658 C3661 1.260 . S
C3658 C3662 1.477 . S
C3658 H3676 0.932 . S
C3659 C3660 1.384 . S
C3659 C3661 1.479 . S
C3659 H3677 0.929 . S
C3660 C3657 1.424 . S
C3660 C3659 1.384 . S
C3660 H3678 0.928 . S
C3661 C3658 1.260 . S
C3661 C3659 1.479 . S
C3662 C3657 1.245 . S
C3662 C3658 1.477 . S
C3662 H3679 0.932 . S
C3663 U3646 2.882 . S
C3663 C3657 1.428 . S
C3663 O3666 1.301 . S
C3663 O3667 1.282 . S
O3664 U3646 2.441 . S
O3664 C3650 1.249 . S
O3665 U3646 2.420 . S
O3665 C3650 1.202 . S
O3666 U3646 2.455 . S
O3666 C3663 1.301 . S
O3667 U3646 2.449 . S
O3667 C3663 1.282 . S
H3668 C3641 0.931 . S
H3669 C3643 0.929 . S
H3670 C3644 0.930 . S
H3671 C3645 0.931 . S
H3672 C3652 0.932 . S
H3673 C3653 0.930 . S
H3674 C3654 0.929 . S
H3675 C3656 0.930 . S
H3676 C3658 0.932 . S
H3677 C3659 0.929 . S
H3678 C3660 0.928 . S
H3679 C3662 0.932 . S
C3680 C3681 1.264 . S
C3680 C3685 1.479 . S
C3680 C3690 1.465 . S
C3681 C3680 1.264 . S
C3681 C3683 1.339 . S
C3681 H3708 0.931 . S
C3682 C3683 1.395 . S
C3682 C3684 1.320 . S
C3683 C3681 1.339 . S
C3683 C3682 1.395 . S
C3683 H3709 0.929 . S
C3684 C3682 1.320 . S
C3684 C3685 1.405 . S
C3684 H3710 0.930 . S
C3685 C3680 1.479 . S
C3685 C3684 1.405 . S
C3685 H3711 0.931 . S
U3686 O3687 2.454 . S
U3686 O3688 2.458 . S
U3686 C3689 2.984 . S
U3686 C3690 2.847 . S
U3686 C3703 2.882 . S
U3686 O3704 2.441 . S
U3686 O3705 2.420 . S
U3686 O3706 2.455 . S
U3686 O3707 2.449 . S
O3687 U3686 2.454 . S
O3687 C3689 1.353 . S
O3688 U3686 2.458 . S
O3688 C3689 1.286 . S
C3689 U3686 2.984 . S
C3689 O3687 1.353 . S
C3689 O3688 1.286 . S
C3689 C3691 1.363 . S
C3690 C3680 1.465 . S
C3690 U3686 2.847 . S
C3690 O3704 1.249 . S
C3690 O3705 1.202 . S
C3691 C3689 1.363 . S
C3691 C3693 1.408 . S
C3691 C3696 1.342 . S
C3692 C3693 1.310 . S
C3692 C3695 1.461 . S
C3692 H3712 0.932 . S
C3693 C3691 1.408 . S
C3693 C3692 1.310 . S
C3693 H3713 0.930 . S
C3694 C3695 1.474 . S
C3694 C3696 1.285 . S
C3694 H3714 0.929 . S
C3695 C3692 1.461 . S
C3695 C3694 1.474 . S
C3696 C3691 1.342 . S
C3696 C3694 1.285 . S
C3696 H3715 0.930 . S
C3697 C3700 1.424 . S
C3697 C3702 1.245 . S
C3697 C3703 1.428 . S
C3698 C3701 1.260 . S
C3698 C3702 1.477 . S
C3698 H3716 0.932 . S
C3699 C3700 1.384 . S
C3699 C3701 1.479 . S
C3699 H3717 0.929 . S
C3700 C3697 1.424 . S
C3700 C3699 1.384 . S
C3700 H3718 0.928 . S
C3701 C3698 1.260 . S
C3701 C3699 1.479 . S
C3702 C3697 1.245 . S
C3702 C3698 1.477 . S
C3702 H3719 0.932 . S
C3703 U3686 2.882 . S
C3703 C3697 1.428 . S
C3703 O3706 1.301 . S
C3703 O3707 1.282 . S
O3704 U3686 2.441 . S
O3704 C3690 1.249 . S
O3705 U3686 2.420 . S
O3705 C3690 1.202 . S
O3706 U3686 2.455 . S
O3706 C3703 1.301 . S
O3707 U3686 2.449 . S
O3707 C3703 1.282 . S
H3708 C3681 0.931 . S
H3709 C3683 0.929 . S
H3710 C3684 0.930 . S
H3711 C3685 0.931 . S
H3712 C3692 0.932 . S
H3713 C3693 0.930 . S
H3714 C3694 0.929 . S
H3715 C3696 0.930 . S
H3716 C3698 0.932 . S
H3717 C3699 0.929 . S
H3718 C3700 0.928 . S
H3719 C3702 0.932 . S
C3720 C3721 1.264 . S
C3720 C3725 1.479 . S
C3720 C3730 1.465 . S
C3721 C3720 1.264 . S
C3721 C3723 1.339 . S
C3721 H3748 0.931 . S
C3722 C3723 1.395 . S
C3722 C3724 1.320 . S
C3723 C3721 1.339 . S
C3723 C3722 1.395 . S
C3723 H3749 0.929 . S
C3724 C3722 1.320 . S
C3724 C3725 1.405 . S
C3724 H3750 0.930 . S
C3725 C3720 1.479 . S
C3725 C3724 1.405 . S
C3725 H3751 0.931 . S
U3726 O3727 2.454 . S
U3726 O3728 2.458 . S
U3726 C3729 2.984 . S
U3726 C3730 2.847 . S
U3726 C3743 2.882 . S
U3726 O3744 2.441 . S
U3726 O3745 2.420 . S
U3726 O3746 2.455 . S
U3726 O3747 2.449 . S
O3727 U3726 2.454 . S
O3727 C3729 1.353 . S
O3728 U3726 2.458 . S
O3728 C3729 1.286 . S
C3729 U3726 2.984 . S
C3729 O3727 1.353 . S
C3729 O3728 1.286 . S
C3729 C3731 1.363 . S
C3730 C3720 1.465 . S
C3730 U3726 2.847 . S
C3730 O3744 1.249 . S
C3730 O3745 1.202 . S
C3731 C3729 1.363 . S
C3731 C3733 1.408 . S
C3731 C3736 1.342 . S
C3732 C3733 1.310 . S
C3732 C3735 1.461 . S
C3732 H3752 0.932 . S
C3733 C3731 1.408 . S
C3733 C3732 1.310 . S
C3733 H3753 0.930 . S
C3734 C3735 1.474 . S
C3734 C3736 1.285 . S
C3734 H3754 0.929 . S
C3735 C3732 1.461 . S
C3735 C3734 1.474 . S
C3736 C3731 1.342 . S
C3736 C3734 1.285 . S
C3736 H3755 0.930 . S
C3737 C3740 1.424 . S
C3737 C3742 1.245 . S
C3737 C3743 1.428 . S
C3738 C3741 1.260 . S
C3738 C3742 1.477 . S
C3738 H3756 0.932 . S
C3739 C3740 1.384 . S
C3739 C3741 1.479 . S
C3739 H3757 0.929 . S
C3740 C3737 1.424 . S
C3740 C3739 1.384 . S
C3740 H3758 0.928 . S
C3741 C3738 1.260 . S
C3741 C3739 1.479 . S
C3742 C3737 1.245 . S
C3742 C3738 1.477 . S
C3742 H3759 0.932 . S
C3743 U3726 2.882 . S
C3743 C3737 1.428 . S
C3743 O3746 1.301 . S
C3743 O3747 1.282 . S
O3744 U3726 2.441 . S
O3744 C3730 1.249 . S
O3745 U3726 2.420 . S
O3745 C3730 1.202 . S
O3746 U3726 2.455 . S
O3746 C3743 1.301 . S
O3747 U3726 2.449 . S
O3747 C3743 1.282 . S
H3748 C3721 0.931 . S
H3749 C3723 0.929 . S
H3750 C3724 0.930 . S
H3751 C3725 0.931 . S
H3752 C3732 0.932 . S
H3753 C3733 0.930 . S
H3754 C3734 0.929 . S
H3755 C3736 0.930 . S
H3756 C3738 0.932 . S
H3757 C3739 0.929 . S
H3758 C3740 0.928 . S
H3759 C3742 0.932 . S
C3760 C3761 1.264 . S
C3760 C3765 1.479 . S
C3760 C3770 1.465 . S
C3761 C3760 1.264 . S
C3761 C3763 1.339 . S
C3761 H3788 0.931 . S
C3762 C3763 1.395 . S
C3762 C3764 1.320 . S
C3763 C3761 1.339 . S
C3763 C3762 1.395 . S
C3763 H3789 0.929 . S
C3764 C3762 1.320 . S
C3764 C3765 1.405 . S
C3764 H3790 0.930 . S
C3765 C3760 1.479 . S
C3765 C3764 1.405 . S
C3765 H3791 0.931 . S
U3766 O3767 2.454 . S
U3766 O3768 2.458 . S
U3766 C3769 2.984 . S
U3766 C3770 2.847 . S
U3766 C3783 2.882 . S
U3766 O3784 2.441 . S
U3766 O3785 2.420 . S
U3766 O3786 2.455 . S
U3766 O3787 2.449 . S
O3767 U3766 2.454 . S
O3767 C3769 1.353 . S
O3768 U3766 2.458 . S
O3768 C3769 1.286 . S
C3769 U3766 2.984 . S
C3769 O3767 1.353 . S
C3769 O3768 1.286 . S
C3769 C3771 1.363 . S
C3770 C3760 1.465 . S
C3770 U3766 2.847 . S
C3770 O3784 1.249 . S
C3770 O3785 1.202 . S
C3771 C3769 1.363 . S
C3771 C3773 1.408 . S
C3771 C3776 1.342 . S
C3772 C3773 1.310 . S
C3772 C3775 1.461 . S
C3772 H3792 0.932 . S
C3773 C3771 1.408 . S
C3773 C3772 1.310 . S
C3773 H3793 0.930 . S
C3774 C3775 1.474 . S
C3774 C3776 1.285 . S
C3774 H3794 0.929 . S
C3775 C3772 1.461 . S
C3775 C3774 1.474 . S
C3776 C3771 1.342 . S
C3776 C3774 1.285 . S
C3776 H3795 0.930 . S
C3777 C3780 1.424 . S
C3777 C3782 1.245 . S
C3777 C3783 1.428 . S
C3778 C3781 1.260 . S
C3778 C3782 1.477 . S
C3778 H3796 0.932 . S
C3779 C3780 1.384 . S
C3779 C3781 1.479 . S
C3779 H3797 0.929 . S
C3780 C3777 1.424 . S
C3780 C3779 1.384 . S
C3780 H3798 0.928 . S
C3781 C3778 1.260 . S
C3781 C3779 1.479 . S
C3782 C3777 1.245 . S
C3782 C3778 1.477 . S
C3782 H3799 0.932 . S
C3783 U3766 2.882 . S
C3783 C3777 1.428 . S
C3783 O3786 1.301 . S
C3783 O3787 1.282 . S
O3784 U3766 2.441 . S
O3784 C3770 1.249 . S
O3785 U3766 2.420 . S
O3785 C3770 1.202 . S
O3786 U3766 2.455 . S
O3786 C3783 1.301 . S
O3787 U3766 2.449 . S
O3787 C3783 1.282 . S
H3788 C3761 0.931 . S
H3789 C3763 0.929 . S
H3790 C3764 0.930 . S
H3791 C3765 0.931 . S
H3792 C3772 0.932 . S
H3793 C3773 0.930 . S
H3794 C3774 0.929 . S
H3795 C3776 0.930 . S
H3796 C3778 0.932 . S
H3797 C3779 0.929 . S
H3798 C3780 0.928 . S
H3799 C3782 0.932 . S
C3800 C3801 1.264 . S
C3800 C3805 1.479 . S
C3800 C3810 1.465 . S
C3801 C3800 1.264 . S
C3801 C3803 1.339 . S
C3801 H3828 0.931 . S
C3802 C3803 1.395 . S
C3802 C3804 1.320 . S
C3803 C3801 1.339 . S
C3803 C3802 1.395 . S
C3803 H3829 0.929 . S
C3804 C3802 1.320 . S
C3804 C3805 1.405 . S
C3804 H3830 0.930 . S
C3805 C3800 1.479 . S
C3805 C3804 1.405 . S
C3805 H3831 0.931 . S
U3806 O3807 2.454 . S
U3806 O3808 2.458 . S
U3806 C3809 2.984 . S
U3806 C3810 2.847 . S
U3806 C3823 2.882 . S
U3806 O3824 2.441 . S
U3806 O3825 2.420 . S
U3806 O3826 2.455 . S
U3806 O3827 2.449 . S
O3807 U3806 2.454 . S
O3807 C3809 1.353 . S
O3808 U3806 2.458 . S
O3808 C3809 1.286 . S
C3809 U3806 2.984 . S
C3809 O3807 1.353 . S
C3809 O3808 1.286 . S
C3809 C3811 1.363 . S
C3810 C3800 1.465 . S
C3810 U3806 2.847 . S
C3810 O3824 1.249 . S
C3810 O3825 1.202 . S
C3811 C3809 1.363 . S
C3811 C3813 1.408 . S
C3811 C3816 1.342 . S
C3812 C3813 1.310 . S
C3812 C3815 1.461 . S
C3812 H3832 0.932 . S
C3813 C3811 1.408 . S
C3813 C3812 1.310 . S
C3813 H3833 0.930 . S
C3814 C3815 1.474 . S
C3814 C3816 1.285 . S
C3814 H3834 0.929 . S
C3815 C3812 1.461 . S
C3815 C3814 1.474 . S
C3816 C3811 1.342 . S
C3816 C3814 1.285 . S
C3816 H3835 0.930 . S
C3817 C3820 1.424 . S
C3817 C3822 1.245 . S
C3817 C3823 1.428 . S
C3818 C3821 1.260 . S
C3818 C3822 1.477 . S
C3818 H3836 0.932 . S
C3819 C3820 1.384 . S
C3819 C3821 1.479 . S
C3819 H3837 0.929 . S
C3820 C3817 1.424 . S
C3820 C3819 1.384 . S
C3820 H3838 0.928 . S
C3821 C3818 1.260 . S
C3821 C3819 1.479 . S
C3822 C3817 1.245 . S
C3822 C3818 1.477 . S
C3822 H3839 0.932 . S
C3823 U3806 2.882 . S
C3823 C3817 1.428 . S
C3823 O3826 1.301 . S
C3823 O3827 1.282 . S
O3824 U3806 2.441 . S
O3824 C3810 1.249 . S
O3825 U3806 2.420 . S
O3825 C3810 1.202 . S
O3826 U3806 2.455 . S
O3826 C3823 1.301 . S
O3827 U3806 2.449 . S
O3827 C3823 1.282 . S
H3828 C3801 0.931 . S
H3829 C3803 0.929 . S
H3830 C3804 0.930 . S
H3831 C3805 0.931 . S
H3832 C3812 0.932 . S
H3833 C3813 0.930 . S
H3834 C3814 0.929 . S
H3835 C3816 0.930 . S
H3836 C3818 0.932 . S
H3837 C3819 0.929 . S
H3838 C3820 0.928 . S
H3839 C3822 0.932 . S
H3840 C3858 0.951 . S
H3841 C3860 0.951 . S
H3842 C3862 0.950 . S
H3843 C3863 0.950 . S
H3844 C3865 0.950 . S
H3845 C3868 0.950 . S
H3846 C3869 0.950 . S
H3847 C3871 0.950 . S
H3848 C3872 0.950 . S
H3849 C3873 0.951 . S
H3850 C3875 0.951 . S
H3851 C3877 0.950 . S
H3852 C3878 0.950 . S
H3853 C3880 0.950 . S
H3854 C3883 0.950 . S
H3855 C3884 0.950 . S
H3856 C3886 0.950 . S
H3857 C3887 0.950 . S
C3858 H3840 0.951 . S
C3858 C3859 1.366 . S
C3858 C3860 1.388 . S
C3859 C3858 1.366 . S
C3859 C3863 1.385 . S
C3860 H3841 0.951 . S
C3860 C3858 1.388 . S
C3860 C3861 1.366 . S
C3861 C3860 1.366 . S
C3861 C3862 1.414 . S
C3861 C3864 1.499 . S
C3862 H3842 0.950 . S
C3862 C3861 1.414 . S
C3862 C3863 1.374 . S
C3863 H3843 0.950 . S
C3863 C3859 1.385 . S
C3863 C3862 1.374 . S
C3864 C3861 1.499 . S
C3864 C3865 1.373 . S
C3864 C3866 1.389 . S
C3865 H3844 0.950 . S
C3865 C3864 1.373 . S
C3865 C3881 1.377 . S
C3866 C3864 1.389 . S
C3866 C3867 1.524 . S
C3866 C3880 1.377 . S
C3867 C3866 1.524 . S
C3867 C3868 1.397 . S
C3867 C3872 1.363 . S
C3868 H3845 0.950 . S
C3868 C3867 1.397 . S
C3868 C3869 1.334 . S
C3869 H3846 0.950 . S
C3869 C3868 1.334 . S
C3869 C3870 1.287 . S
C3870 C3869 1.287 . S
C3870 C3871 1.524 . S
C3870 H3889 0.913 . S
C3871 H3847 0.950 . S
C3871 C3870 1.524 . S
C3871 C3872 1.415 . S
C3872 H3848 0.950 . S
C3872 C3867 1.363 . S
C3872 C3871 1.415 . S
C3873 H3849 0.951 . S
C3873 C3874 1.366 . S
C3873 C3875 1.388 . S
C3874 C3873 1.366 . S
C3874 C3878 1.385 . S
C3875 H3850 0.951 . S
C3875 C3873 1.388 . S
C3875 C3876 1.366 . S
C3876 C3875 1.366 . S
C3876 C3877 1.414 . S
C3876 C3879 1.499 . S
C3877 H3851 0.950 . S
C3877 C3876 1.414 . S
C3877 C3878 1.374 . S
C3878 H3852 0.950 . S
C3878 C3874 1.385 . S
C3878 C3877 1.374 . S
C3879 C3876 1.499 . S
C3879 C3880 1.373 . S
C3879 C3881 1.389 . S
C3880 H3853 0.950 . S
C3880 C3866 1.377 . S
C3880 C3879 1.373 . S
C3881 C3865 1.377 . S
C3881 C3879 1.389 . S
C3881 C3882 1.524 . S
C3882 C3881 1.524 . S
C3882 C3883 1.397 . S
C3882 C3887 1.363 . S
C3883 H3854 0.950 . S
C3883 C3882 1.397 . S
C3883 C3884 1.334 . S
C3884 H3855 0.950 . S
C3884 C3883 1.334 . S
C3884 C3885 1.287 . S
C3885 C3884 1.287 . S
C3885 C3886 1.524 . S
C3885 H3888 0.999 . S
C3886 H3856 0.950 . S
C3886 C3885 1.524 . S
C3886 C3887 1.415 . S
C3887 H3857 0.950 . S
C3887 C3882 1.363 . S
C3887 C3886 1.415 . S
H3888 C3885 0.999 . S
H3889 C3870 0.913 . S
H3890 C3908 0.951 . S
H3891 C3910 0.951 . S
H3892 C3912 0.950 . S
H3893 C3913 0.950 . S
H3894 C3915 0.950 . S
H3895 C3918 0.950 . S
H3896 C3919 0.950 . S
H3897 C3921 0.950 . S
H3898 C3922 0.950 . S
H3899 C3923 0.951 . S
H3900 C3925 0.951 . S
H3901 C3927 0.950 . S
H3902 C3928 0.950 . S
H3903 C3930 0.950 . S
H3904 C3933 0.950 . S
H3905 C3934 0.950 . S
H3906 C3936 0.950 . S
H3907 C3937 0.950 . S
C3908 H3890 0.951 . S
C3908 C3909 1.366 . S
C3908 C3910 1.388 . S
C3909 C3908 1.366 . S
C3909 C3913 1.385 . S
C3910 H3891 0.951 . S
C3910 C3908 1.388 . S
C3910 C3911 1.366 . S
C3911 C3910 1.366 . S
C3911 C3912 1.414 . S
C3911 C3914 1.499 . S
C3912 H3892 0.950 . S
C3912 C3911 1.414 . S
C3912 C3913 1.374 . S
C3913 H3893 0.950 . S
C3913 C3909 1.385 . S
C3913 C3912 1.374 . S
C3914 C3911 1.499 . S
C3914 C3915 1.373 . S
C3914 C3916 1.389 . S
C3915 H3894 0.950 . S
C3915 C3914 1.373 . S
C3915 C3931 1.377 . S
C3916 C3914 1.389 . S
C3916 C3917 1.524 . S
C3916 C3930 1.377 . S
C3917 C3916 1.524 . S
C3917 C3918 1.397 . S
C3917 C3922 1.363 . S
C3918 H3895 0.950 . S
C3918 C3917 1.397 . S
C3918 C3919 1.334 . S
C3919 H3896 0.950 . S
C3919 C3918 1.334 . S
C3919 C3920 1.287 . S
C3920 C3919 1.287 . S
C3920 C3921 1.524 . S
C3920 H3939 0.913 . S
C3921 H3897 0.950 . S
C3921 C3920 1.524 . S
C3921 C3922 1.415 . S
C3922 H3898 0.950 . S
C3922 C3917 1.363 . S
C3922 C3921 1.415 . S
C3923 H3899 0.951 . S
C3923 C3924 1.366 . S
C3923 C3925 1.388 . S
C3924 C3923 1.366 . S
C3924 C3928 1.385 . S
C3925 H3900 0.951 . S
C3925 C3923 1.388 . S
C3925 C3926 1.366 . S
C3926 C3925 1.366 . S
C3926 C3927 1.414 . S
C3926 C3929 1.499 . S
C3927 H3901 0.950 . S
C3927 C3926 1.414 . S
C3927 C3928 1.374 . S
C3928 H3902 0.950 . S
C3928 C3924 1.385 . S
C3928 C3927 1.374 . S
C3929 C3926 1.499 . S
C3929 C3930 1.373 . S
C3929 C3931 1.389 . S
C3930 H3903 0.950 . S
C3930 C3916 1.377 . S
C3930 C3929 1.373 . S
C3931 C3915 1.377 . S
C3931 C3929 1.389 . S
C3931 C3932 1.524 . S
C3932 C3931 1.524 . S
C3932 C3933 1.397 . S
C3932 C3937 1.363 . S
C3933 H3904 0.950 . S
C3933 C3932 1.397 . S
C3933 C3934 1.334 . S
C3934 H3905 0.950 . S
C3934 C3933 1.334 . S
C3934 C3935 1.287 . S
C3935 C3934 1.287 . S
C3935 C3936 1.524 . S
C3935 H3938 0.999 . S
C3936 H3906 0.950 . S
C3936 C3935 1.524 . S
C3936 C3937 1.415 . S
C3937 H3907 0.950 . S
C3937 C3932 1.363 . S
C3937 C3936 1.415 . S
H3938 C3935 0.999 . S
H3939 C3920 0.913 . S
H3940 C3958 0.951 . S
H3941 C3960 0.951 . S
H3942 C3962 0.950 . S
H3943 C3963 0.950 . S
H3944 C3965 0.950 . S
H3945 C3968 0.950 . S
H3946 C3969 0.950 . S
H3947 C3971 0.950 . S
H3948 C3972 0.950 . S
H3949 C3973 0.951 . S
H3950 C3975 0.951 . S
H3951 C3977 0.950 . S
H3952 C3978 0.950 . S
H3953 C3980 0.950 . S
H3954 C3983 0.950 . S
H3955 C3984 0.950 . S
H3956 C3986 0.950 . S
H3957 C3987 0.950 . S
C3958 H3940 0.951 . S
C3958 C3959 1.366 . S
C3958 C3960 1.388 . S
C3959 C3958 1.366 . S
C3959 C3963 1.385 . S
C3960 H3941 0.951 . S
C3960 C3958 1.388 . S
C3960 C3961 1.366 . S
C3961 C3960 1.366 . S
C3961 C3962 1.414 . S
C3961 C3964 1.499 . S
C3962 H3942 0.950 . S
C3962 C3961 1.414 . S
C3962 C3963 1.374 . S
C3963 H3943 0.950 . S
C3963 C3959 1.385 . S
C3963 C3962 1.374 . S
C3964 C3961 1.499 . S
C3964 C3965 1.373 . S
C3964 C3966 1.389 . S
C3965 H3944 0.950 . S
C3965 C3964 1.373 . S
C3965 C3981 1.377 . S
C3966 C3964 1.389 . S
C3966 C3967 1.524 . S
C3966 C3980 1.377 . S
C3967 C3966 1.524 . S
C3967 C3968 1.397 . S
C3967 C3972 1.363 . S
C3968 H3945 0.950 . S
C3968 C3967 1.397 . S
C3968 C3969 1.334 . S
C3969 H3946 0.950 . S
C3969 C3968 1.334 . S
C3969 C3970 1.287 . S
C3970 C3969 1.287 . S
C3970 C3971 1.524 . S
C3970 H3989 0.913 . S
C3971 H3947 0.950 . S
C3971 C3970 1.524 . S
C3971 C3972 1.415 . S
C3972 H3948 0.950 . S
C3972 C3967 1.363 . S
C3972 C3971 1.415 . S
C3973 H3949 0.951 . S
C3973 C3974 1.366 . S
C3973 C3975 1.388 . S
C3974 C3973 1.366 . S
C3974 C3978 1.385 . S
C3975 H3950 0.951 . S
C3975 C3973 1.388 . S
C3975 C3976 1.366 . S
C3976 C3975 1.366 . S
C3976 C3977 1.414 . S
C3976 C3979 1.499 . S
C3977 H3951 0.950 . S
C3977 C3976 1.414 . S
C3977 C3978 1.374 . S
C3978 H3952 0.950 . S
C3978 C3974 1.385 . S
C3978 C3977 1.374 . S
C3979 C3976 1.499 . S
C3979 C3980 1.373 . S
C3979 C3981 1.389 . S
C3980 H3953 0.950 . S
C3980 C3966 1.377 . S
C3980 C3979 1.373 . S
C3981 C3965 1.377 . S
C3981 C3979 1.389 . S
C3981 C3982 1.524 . S
C3982 C3981 1.524 . S
C3982 C3983 1.397 . S
C3982 C3987 1.363 . S
C3983 H3954 0.950 . S
C3983 C3982 1.397 . S
C3983 C3984 1.334 . S
C3984 H3955 0.950 . S
C3984 C3983 1.334 . S
C3984 C3985 1.287 . S
C3985 C3984 1.287 . S
C3985 C3986 1.524 . S
C3985 H3988 0.999 . S
C3986 H3956 0.950 . S
C3986 C3985 1.524 . S
C3986 C3987 1.415 . S
C3987 H3957 0.950 . S
C3987 C3982 1.363 . S
C3987 C3986 1.415 . S
H3988 C3985 0.999 . S
H3989 C3970 0.913 . S
H3990 C4008 0.951 . S
H3991 C4010 0.951 . S
H3992 C4012 0.950 . S
H3993 C4013 0.950 . S
H3994 C4015 0.950 . S
H3995 C4018 0.950 . S
H3996 C4019 0.950 . S
H3997 C4021 0.950 . S
H3998 C4022 0.950 . S
H3999 C4023 0.951 . S
H4000 C4025 0.951 . S
H4001 C4027 0.950 . S
H4002 C4028 0.950 . S
H4003 C4030 0.950 . S
H4004 C4033 0.950 . S
H4005 C4034 0.950 . S
H4006 C4036 0.950 . S
H4007 C4037 0.950 . S
C4008 H3990 0.951 . S
C4008 C4009 1.366 . S
C4008 C4010 1.388 . S
C4009 C4008 1.366 . S
C4009 C4013 1.385 . S
C4010 H3991 0.951 . S
C4010 C4008 1.388 . S
C4010 C4011 1.366 . S
C4011 C4010 1.366 . S
C4011 C4012 1.414 . S
C4011 C4014 1.499 . S
C4012 H3992 0.950 . S
C4012 C4011 1.414 . S
C4012 C4013 1.374 . S
C4013 H3993 0.950 . S
C4013 C4009 1.385 . S
C4013 C4012 1.374 . S
C4014 C4011 1.499 . S
C4014 C4015 1.373 . S
C4014 C4016 1.389 . S
C4015 H3994 0.950 . S
C4015 C4014 1.373 . S
C4015 C4031 1.377 . S
C4016 C4014 1.389 . S
C4016 C4017 1.524 . S
C4016 C4030 1.377 . S
C4017 C4016 1.524 . S
C4017 C4018 1.397 . S
C4017 C4022 1.363 . S
C4018 H3995 0.950 . S
C4018 C4017 1.397 . S
C4018 C4019 1.334 . S
C4019 H3996 0.950 . S
C4019 C4018 1.334 . S
C4019 C4020 1.287 . S
C4020 C4019 1.287 . S
C4020 C4021 1.524 . S
C4020 H4039 0.913 . S
C4021 H3997 0.950 . S
C4021 C4020 1.524 . S
C4021 C4022 1.415 . S
C4022 H3998 0.950 . S
C4022 C4017 1.363 . S
C4022 C4021 1.415 . S
C4023 H3999 0.951 . S
C4023 C4024 1.366 . S
C4023 C4025 1.388 . S
C4024 C4023 1.366 . S
C4024 C4028 1.385 . S
C4025 H4000 0.951 . S
C4025 C4023 1.388 . S
C4025 C4026 1.366 . S
C4026 C4025 1.366 . S
C4026 C4027 1.414 . S
C4026 C4029 1.499 . S
C4027 H4001 0.950 . S
C4027 C4026 1.414 . S
C4027 C4028 1.374 . S
C4028 H4002 0.950 . S
C4028 C4024 1.385 . S
C4028 C4027 1.374 . S
C4029 C4026 1.499 . S
C4029 C4030 1.373 . S
C4029 C4031 1.389 . S
C4030 H4003 0.950 . S
C4030 C4016 1.377 . S
C4030 C4029 1.373 . S
C4031 C4015 1.377 . S
C4031 C4029 1.389 . S
C4031 C4032 1.524 . S
C4032 C4031 1.524 . S
C4032 C4033 1.397 . S
C4032 C4037 1.363 . S
C4033 H4004 0.950 . S
C4033 C4032 1.397 . S
C4033 C4034 1.334 . S
C4034 H4005 0.950 . S
C4034 C4033 1.334 . S
C4034 C4035 1.287 . S
C4035 C4034 1.287 . S
C4035 C4036 1.524 . S
C4035 H4038 0.999 . S
C4036 H4006 0.950 . S
C4036 C4035 1.524 . S
C4036 C4037 1.415 . S
C4037 H4007 0.950 . S
C4037 C4032 1.363 . S
C4037 C4036 1.415 . S
H4038 C4035 0.999 . S
H4039 C4020 0.913 . S
H4040 C4058 0.951 . S
H4041 C4060 0.951 . S
H4042 C4062 0.950 . S
H4043 C4063 0.950 . S
H4044 C4065 0.950 . S
H4045 C4068 0.950 . S
H4046 C4069 0.950 . S
H4047 C4071 0.950 . S
H4048 C4072 0.950 . S
H4049 C4073 0.951 . S
H4050 C4075 0.951 . S
H4051 C4077 0.950 . S
H4052 C4078 0.950 . S
H4053 C4080 0.950 . S
H4054 C4083 0.950 . S
H4055 C4084 0.950 . S
H4056 C4086 0.950 . S
H4057 C4087 0.950 . S
C4058 H4040 0.951 . S
C4058 C4059 1.366 . S
C4058 C4060 1.388 . S
C4059 C4058 1.366 . S
C4059 C4063 1.385 . S
C4060 H4041 0.951 . S
C4060 C4058 1.388 . S
C4060 C4061 1.366 . S
C4061 C4060 1.366 . S
C4061 C4062 1.414 . S
C4061 C4064 1.499 . S
C4062 H4042 0.950 . S
C4062 C4061 1.414 . S
C4062 C4063 1.374 . S
C4063 H4043 0.950 . S
C4063 C4059 1.385 . S
C4063 C4062 1.374 . S
C4064 C4061 1.499 . S
C4064 C4065 1.373 . S
C4064 C4066 1.389 . S
C4065 H4044 0.950 . S
C4065 C4064 1.373 . S
C4065 C4081 1.377 . S
C4066 C4064 1.389 . S
C4066 C4067 1.524 . S
C4066 C4080 1.377 . S
C4067 C4066 1.524 . S
C4067 C4068 1.397 . S
C4067 C4072 1.363 . S
C4068 H4045 0.950 . S
C4068 C4067 1.397 . S
C4068 C4069 1.334 . S
C4069 H4046 0.950 . S
C4069 C4068 1.334 . S
C4069 C4070 1.287 . S
C4070 C4069 1.287 . S
C4070 C4071 1.524 . S
C4070 H4089 0.913 . S
C4071 H4047 0.950 . S
C4071 C4070 1.524 . S
C4071 C4072 1.415 . S
C4072 H4048 0.950 . S
C4072 C4067 1.363 . S
C4072 C4071 1.415 . S
C4073 H4049 0.951 . S
C4073 C4074 1.366 . S
C4073 C4075 1.388 . S
C4074 C4073 1.366 . S
C4074 C4078 1.385 . S
C4075 H4050 0.951 . S
C4075 C4073 1.388 . S
C4075 C4076 1.366 . S
C4076 C4075 1.366 . S
C4076 C4077 1.414 . S
C4076 C4079 1.499 . S
C4077 H4051 0.950 . S
C4077 C4076 1.414 . S
C4077 C4078 1.374 . S
C4078 H4052 0.950 . S
C4078 C4074 1.385 . S
C4078 C4077 1.374 . S
C4079 C4076 1.499 . S
C4079 C4080 1.373 . S
C4079 C4081 1.389 . S
C4080 H4053 0.950 . S
C4080 C4066 1.377 . S
C4080 C4079 1.373 . S
C4081 C4065 1.377 . S
C4081 C4079 1.389 . S
C4081 C4082 1.524 . S
C4082 C4081 1.524 . S
C4082 C4083 1.397 . S
C4082 C4087 1.363 . S
C4083 H4054 0.950 . S
C4083 C4082 1.397 . S
C4083 C4084 1.334 . S
C4084 H4055 0.950 . S
C4084 C4083 1.334 . S
C4084 C4085 1.287 . S
C4085 C4084 1.287 . S
C4085 C4086 1.524 . S
C4085 H4088 0.999 . S
C4086 H4056 0.950 . S
C4086 C4085 1.524 . S
C4086 C4087 1.415 . S
C4087 H4057 0.950 . S
C4087 C4082 1.363 . S
C4087 C4086 1.415 . S
H4088 C4085 0.999 . S
H4089 C4070 0.913 . S
H4090 C4108 0.951 . S
H4091 C4110 0.951 . S
H4092 C4112 0.950 . S
H4093 C4113 0.950 . S
H4094 C4115 0.950 . S
H4095 C4118 0.950 . S
H4096 C4119 0.950 . S
H4097 C4121 0.950 . S
H4098 C4122 0.950 . S
H4099 C4123 0.951 . S
H4100 C4125 0.951 . S
H4101 C4127 0.950 . S
H4102 C4128 0.950 . S
H4103 C4130 0.950 . S
H4104 C4133 0.950 . S
H4105 C4134 0.950 . S
H4106 C4136 0.950 . S
H4107 C4137 0.950 . S
C4108 H4090 0.951 . S
C4108 C4109 1.366 . S
C4108 C4110 1.388 . S
C4109 C4108 1.366 . S
C4109 C4113 1.385 . S
C4110 H4091 0.951 . S
C4110 C4108 1.388 . S
C4110 C4111 1.366 . S
C4111 C4110 1.366 . S
C4111 C4112 1.414 . S
C4111 C4114 1.499 . S
C4112 H4092 0.950 . S
C4112 C4111 1.414 . S
C4112 C4113 1.374 . S
C4113 H4093 0.950 . S
C4113 C4109 1.385 . S
C4113 C4112 1.374 . S
C4114 C4111 1.499 . S
C4114 C4115 1.373 . S
C4114 C4116 1.389 . S
C4115 H4094 0.950 . S
C4115 C4114 1.373 . S
C4115 C4131 1.377 . S
C4116 C4114 1.389 . S
C4116 C4117 1.524 . S
C4116 C4130 1.377 . S
C4117 C4116 1.524 . S
C4117 C4118 1.397 . S
C4117 C4122 1.363 . S
C4118 H4095 0.950 . S
C4118 C4117 1.397 . S
C4118 C4119 1.334 . S
C4119 H4096 0.950 . S
C4119 C4118 1.334 . S
C4119 C4120 1.287 . S
C4120 C4119 1.287 . S
C4120 C4121 1.524 . S
C4120 H4139 0.913 . S
C4121 H4097 0.950 . S
C4121 C4120 1.524 . S
C4121 C4122 1.415 . S
C4122 H4098 0.950 . S
C4122 C4117 1.363 . S
C4122 C4121 1.415 . S
C4123 H4099 0.951 . S
C4123 C4124 1.366 . S
C4123 C4125 1.388 . S
C4124 C4123 1.366 . S
C4124 C4128 1.385 . S
C4125 H4100 0.951 . S
C4125 C4123 1.388 . S
C4125 C4126 1.366 . S
C4126 C4125 1.366 . S
C4126 C4127 1.414 . S
C4126 C4129 1.499 . S
C4127 H4101 0.950 . S
C4127 C4126 1.414 . S
C4127 C4128 1.374 . S
C4128 H4102 0.950 . S
C4128 C4124 1.385 . S
C4128 C4127 1.374 . S
C4129 C4126 1.499 . S
C4129 C4130 1.373 . S
C4129 C4131 1.389 . S
C4130 H4103 0.950 . S
C4130 C4116 1.377 . S
C4130 C4129 1.373 . S
C4131 C4115 1.377 . S
C4131 C4129 1.389 . S
C4131 C4132 1.524 . S
C4132 C4131 1.524 . S
C4132 C4133 1.397 . S
C4132 C4137 1.363 . S
C4133 H4104 0.950 . S
C4133 C4132 1.397 . S
C4133 C4134 1.334 . S
C4134 H4105 0.950 . S
C4134 C4133 1.334 . S
C4134 C4135 1.287 . S
C4135 C4134 1.287 . S
C4135 C4136 1.524 . S
C4135 H4138 0.999 . S
C4136 H4106 0.950 . S
C4136 C4135 1.524 . S
C4136 C4137 1.415 . S
C4137 H4107 0.950 . S
C4137 C4132 1.363 . S
C4137 C4136 1.415 . S
H4138 C4135 0.999 . S
H4139 C4120 0.913 . S
H4140 C4158 0.951 . S
H4141 C4160 0.951 . S
H4142 C4162 0.950 . S
H4143 C4163 0.950 . S
H4144 C4165 0.950 . S
H4145 C4168 0.950 . S
H4146 C4169 0.950 . S
H4147 C4171 0.950 . S
H4148 C4172 0.950 . S
H4149 C4173 0.951 . S
H4150 C4175 0.951 . S
H4151 C4177 0.950 . S
H4152 C4178 0.950 . S
H4153 C4180 0.950 . S
H4154 C4183 0.950 . S
H4155 C4184 0.950 . S
H4156 C4186 0.950 . S
H4157 C4187 0.950 . S
C4158 H4140 0.951 . S
C4158 C4159 1.366 . S
C4158 C4160 1.388 . S
C4159 C4158 1.366 . S
C4159 C4163 1.385 . S
C4160 H4141 0.951 . S
C4160 C4158 1.388 . S
C4160 C4161 1.366 . S
C4161 C4160 1.366 . S
C4161 C4162 1.414 . S
C4161 C4164 1.499 . S
C4162 H4142 0.950 . S
C4162 C4161 1.414 . S
C4162 C4163 1.374 . S
C4163 H4143 0.950 . S
C4163 C4159 1.385 . S
C4163 C4162 1.374 . S
C4164 C4161 1.499 . S
C4164 C4165 1.373 . S
C4164 C4166 1.389 . S
C4165 H4144 0.950 . S
C4165 C4164 1.373 . S
C4165 C4181 1.377 . S
C4166 C4164 1.389 . S
C4166 C4167 1.524 . S
C4166 C4180 1.377 . S
C4167 C4166 1.524 . S
C4167 C4168 1.397 . S
C4167 C4172 1.363 . S
C4168 H4145 0.950 . S
C4168 C4167 1.397 . S
C4168 C4169 1.334 . S
C4169 H4146 0.950 . S
C4169 C4168 1.334 . S
C4169 C4170 1.287 . S
C4170 C4169 1.287 . S
C4170 C4171 1.524 . S
C4170 H4189 0.913 . S
C4171 H4147 0.950 . S
C4171 C4170 1.524 . S
C4171 C4172 1.415 . S
C4172 H4148 0.950 . S
C4172 C4167 1.363 . S
C4172 C4171 1.415 . S
C4173 H4149 0.951 . S
C4173 C4174 1.366 . S
C4173 C4175 1.388 . S
C4174 C4173 1.366 . S
C4174 C4178 1.385 . S
C4175 H4150 0.951 . S
C4175 C4173 1.388 . S
C4175 C4176 1.366 . S
C4176 C4175 1.366 . S
C4176 C4177 1.414 . S
C4176 C4179 1.499 . S
C4177 H4151 0.950 . S
C4177 C4176 1.414 . S
C4177 C4178 1.374 . S
C4178 H4152 0.950 . S
C4178 C4174 1.385 . S
C4178 C4177 1.374 . S
C4179 C4176 1.499 . S
C4179 C4180 1.373 . S
C4179 C4181 1.389 . S
C4180 H4153 0.950 . S
C4180 C4166 1.377 . S
C4180 C4179 1.373 . S
C4181 C4165 1.377 . S
C4181 C4179 1.389 . S
C4181 C4182 1.524 . S
C4182 C4181 1.524 . S
C4182 C4183 1.397 . S
C4182 C4187 1.363 . S
C4183 H4154 0.950 . S
C4183 C4182 1.397 . S
C4183 C4184 1.334 . S
C4184 H4155 0.950 . S
C4184 C4183 1.334 . S
C4184 C4185 1.287 . S
C4185 C4184 1.287 . S
C4185 C4186 1.524 . S
C4185 H4188 0.999 . S
C4186 H4156 0.950 . S
C4186 C4185 1.524 . S
C4186 C4187 1.415 . S
C4187 H4157 0.950 . S
C4187 C4182 1.363 . S
C4187 C4186 1.415 . S
H4188 C4185 0.999 . S
H4189 C4170 0.913 . S
H4190 C4208 0.951 . S
H4191 C4210 0.951 . S
H4192 C4212 0.950 . S
H4193 C4213 0.950 . S
H4194 C4215 0.950 . S
H4195 C4218 0.950 . S
H4196 C4219 0.950 . S
H4197 C4221 0.950 . S
H4198 C4222 0.950 . S
H4199 C4223 0.951 . S
H4200 C4225 0.951 . S
H4201 C4227 0.950 . S
H4202 C4228 0.950 . S
H4203 C4230 0.950 . S
H4204 C4233 0.950 . S
H4205 C4234 0.950 . S
H4206 C4236 0.950 . S
H4207 C4237 0.950 . S
C4208 H4190 0.951 . S
C4208 C4209 1.366 . S
C4208 C4210 1.388 . S
C4209 C4208 1.366 . S
C4209 C4213 1.385 . S
C4210 H4191 0.951 . S
C4210 C4208 1.388 . S
C4210 C4211 1.366 . S
C4211 C4210 1.366 . S
C4211 C4212 1.414 . S
C4211 C4214 1.499 . S
C4212 H4192 0.950 . S
C4212 C4211 1.414 . S
C4212 C4213 1.374 . S
C4213 H4193 0.950 . S
C4213 C4209 1.385 . S
C4213 C4212 1.374 . S
C4214 C4211 1.499 . S
C4214 C4215 1.373 . S
C4214 C4216 1.389 . S
C4215 H4194 0.950 . S
C4215 C4214 1.373 . S
C4215 C4231 1.377 . S
C4216 C4214 1.389 . S
C4216 C4217 1.524 . S
C4216 C4230 1.377 . S
C4217 C4216 1.524 . S
C4217 C4218 1.397 . S
C4217 C4222 1.363 . S
C4218 H4195 0.950 . S
C4218 C4217 1.397 . S
C4218 C4219 1.334 . S
C4219 H4196 0.950 . S
C4219 C4218 1.334 . S
C4219 C4220 1.287 . S
C4220 C4219 1.287 . S
C4220 C4221 1.524 . S
C4220 H4239 0.913 . S
C4221 H4197 0.950 . S
C4221 C4220 1.524 . S
C4221 C4222 1.415 . S
C4222 H4198 0.950 . S
C4222 C4217 1.363 . S
C4222 C4221 1.415 . S
C4223 H4199 0.951 . S
C4223 C4224 1.366 . S
C4223 C4225 1.388 . S
C4224 C4223 1.366 . S
C4224 C4228 1.385 . S
C4225 H4200 0.951 . S
C4225 C4223 1.388 . S
C4225 C4226 1.366 . S
C4226 C4225 1.366 . S
C4226 C4227 1.414 . S
C4226 C4229 1.499 . S
C4227 H4201 0.950 . S
C4227 C4226 1.414 . S
C4227 C4228 1.374 . S
C4228 H4202 0.950 . S
C4228 C4224 1.385 . S
C4228 C4227 1.374 . S
C4229 C4226 1.499 . S
C4229 C4230 1.373 . S
C4229 C4231 1.389 . S
C4230 H4203 0.950 . S
C4230 C4216 1.377 . S
C4230 C4229 1.373 . S
C4231 C4215 1.377 . S
C4231 C4229 1.389 . S
C4231 C4232 1.524 . S
C4232 C4231 1.524 . S
C4232 C4233 1.397 . S
C4232 C4237 1.363 . S
C4233 H4204 0.950 . S
C4233 C4232 1.397 . S
C4233 C4234 1.334 . S
C4234 H4205 0.950 . S
C4234 C4233 1.334 . S
C4234 C4235 1.287 . S
C4235 C4234 1.287 . S
C4235 C4236 1.524 . S
C4235 H4238 0.999 . S
C4236 H4206 0.950 . S
C4236 C4235 1.524 . S
C4236 C4237 1.415 . S
C4237 H4207 0.950 . S
C4237 C4232 1.363 . S
C4237 C4236 1.415 . S
H4238 C4235 0.999 . S
H4239 C4220 0.913 . S
H4240 C4258 0.951 . S
H4241 C4260 0.951 . S
H4242 C4262 0.950 . S
H4243 C4263 0.950 . S
H4244 C4265 0.950 . S
H4245 C4268 0.950 . S
H4246 C4269 0.950 . S
H4247 C4271 0.950 . S
H4248 C4272 0.950 . S
H4249 C4273 0.951 . S
H4250 C4275 0.951 . S
H4251 C4277 0.950 . S
H4252 C4278 0.950 . S
H4253 C4280 0.950 . S
H4254 C4283 0.950 . S
H4255 C4284 0.950 . S
H4256 C4286 0.950 . S
H4257 C4287 0.950 . S
C4258 H4240 0.951 . S
C4258 C4259 1.366 . S
C4258 C4260 1.388 . S
C4259 C4258 1.366 . S
C4259 C4263 1.385 . S
C4260 H4241 0.951 . S
C4260 C4258 1.388 . S
C4260 C4261 1.366 . S
C4261 C4260 1.366 . S
C4261 C4262 1.414 . S
C4261 C4264 1.499 . S
C4262 H4242 0.950 . S
C4262 C4261 1.414 . S
C4262 C4263 1.374 . S
C4263 H4243 0.950 . S
C4263 C4259 1.385 . S
C4263 C4262 1.374 . S
C4264 C4261 1.499 . S
C4264 C4265 1.373 . S
C4264 C4266 1.389 . S
C4265 H4244 0.950 . S
C4265 C4264 1.373 . S
C4265 C4281 1.377 . S
C4266 C4264 1.389 . S
C4266 C4267 1.524 . S
C4266 C4280 1.377 . S
C4267 C4266 1.524 . S
C4267 C4268 1.397 . S
C4267 C4272 1.363 . S
C4268 H4245 0.950 . S
C4268 C4267 1.397 . S
C4268 C4269 1.334 . S
C4269 H4246 0.950 . S
C4269 C4268 1.334 . S
C4269 C4270 1.287 . S
C4270 C4269 1.287 . S
C4270 C4271 1.524 . S
C4270 H4289 0.913 . S
C4271 H4247 0.950 . S
C4271 C4270 1.524 . S
C4271 C4272 1.415 . S
C4272 H4248 0.950 . S
C4272 C4267 1.363 . S
C4272 C4271 1.415 . S
C4273 H4249 0.951 . S
C4273 C4274 1.366 . S
C4273 C4275 1.388 . S
C4274 C4273 1.366 . S
C4274 C4278 1.385 . S
C4275 H4250 0.951 . S
C4275 C4273 1.388 . S
C4275 C4276 1.366 . S
C4276 C4275 1.366 . S
C4276 C4277 1.414 . S
C4276 C4279 1.499 . S
C4277 H4251 0.950 . S
C4277 C4276 1.414 . S
C4277 C4278 1.374 . S
C4278 H4252 0.950 . S
C4278 C4274 1.385 . S
C4278 C4277 1.374 . S
C4279 C4276 1.499 . S
C4279 C4280 1.373 . S
C4279 C4281 1.389 . S
C4280 H4253 0.950 . S
C4280 C4266 1.377 . S
C4280 C4279 1.373 . S
C4281 C4265 1.377 . S
C4281 C4279 1.389 . S
C4281 C4282 1.524 . S
C4282 C4281 1.524 . S
C4282 C4283 1.397 . S
C4282 C4287 1.363 . S
C4283 H4254 0.950 . S
C4283 C4282 1.397 . S
C4283 C4284 1.334 . S
C4284 H4255 0.950 . S
C4284 C4283 1.334 . S
C4284 C4285 1.287 . S
C4285 C4284 1.287 . S
C4285 C4286 1.524 . S
C4285 H4288 0.999 . S
C4286 H4256 0.950 . S
C4286 C4285 1.524 . S
C4286 C4287 1.415 . S
C4287 H4257 0.950 . S
C4287 C4282 1.363 . S
C4287 C4286 1.415 . S
H4288 C4285 0.999 . S
H4289 C4270 0.913 . S
H4290 C4308 0.951 . S
H4291 C4310 0.951 . S
H4292 C4312 0.950 . S
H4293 C4313 0.950 . S
H4294 C4315 0.950 . S
H4295 C4318 0.950 . S
H4296 C4319 0.950 . S
H4297 C4321 0.950 . S
H4298 C4322 0.950 . S
H4299 C4323 0.951 . S
H4300 C4325 0.951 . S
H4301 C4327 0.950 . S
H4302 C4328 0.950 . S
H4303 C4330 0.950 . S
H4304 C4333 0.950 . S
H4305 C4334 0.950 . S
H4306 C4336 0.950 . S
H4307 C4337 0.950 . S
C4308 H4290 0.951 . S
C4308 C4309 1.366 . S
C4308 C4310 1.388 . S
C4309 C4308 1.366 . S
C4309 C4313 1.385 . S
C4310 H4291 0.951 . S
C4310 C4308 1.388 . S
C4310 C4311 1.366 . S
C4311 C4310 1.366 . S
C4311 C4312 1.414 . S
C4311 C4314 1.499 . S
C4312 H4292 0.950 . S
C4312 C4311 1.414 . S
C4312 C4313 1.374 . S
C4313 H4293 0.950 . S
C4313 C4309 1.385 . S
C4313 C4312 1.374 . S
C4314 C4311 1.499 . S
C4314 C4315 1.373 . S
C4314 C4316 1.389 . S
C4315 H4294 0.950 . S
C4315 C4314 1.373 . S
C4315 C4331 1.377 . S
C4316 C4314 1.389 . S
C4316 C4317 1.524 . S
C4316 C4330 1.377 . S
C4317 C4316 1.524 . S
C4317 C4318 1.397 . S
C4317 C4322 1.363 . S
C4318 H4295 0.950 . S
C4318 C4317 1.397 . S
C4318 C4319 1.334 . S
C4319 H4296 0.950 . S
C4319 C4318 1.334 . S
C4319 C4320 1.287 . S
C4320 C4319 1.287 . S
C4320 C4321 1.524 . S
C4320 H4339 0.913 . S
C4321 H4297 0.950 . S
C4321 C4320 1.524 . S
C4321 C4322 1.415 . S
C4322 H4298 0.950 . S
C4322 C4317 1.363 . S
C4322 C4321 1.415 . S
C4323 H4299 0.951 . S
C4323 C4324 1.366 . S
C4323 C4325 1.388 . S
C4324 C4323 1.366 . S
C4324 C4328 1.385 . S
C4325 H4300 0.951 . S
C4325 C4323 1.388 . S
C4325 C4326 1.366 . S
C4326 C4325 1.366 . S
C4326 C4327 1.414 . S
C4326 C4329 1.499 . S
C4327 H4301 0.950 . S
C4327 C4326 1.414 . S
C4327 C4328 1.374 . S
C4328 H4302 0.950 . S
C4328 C4324 1.385 . S
C4328 C4327 1.374 . S
C4329 C4326 1.499 . S
C4329 C4330 1.373 . S
C4329 C4331 1.389 . S
C4330 H4303 0.950 . S
C4330 C4316 1.377 . S
C4330 C4329 1.373 . S
C4331 C4315 1.377 . S
C4331 C4329 1.389 . S
C4331 C4332 1.524 . S
C4332 C4331 1.524 . S
C4332 C4333 1.397 . S
C4332 C4337 1.363 . S
C4333 H4304 0.950 . S
C4333 C4332 1.397 . S
C4333 C4334 1.334 . S
C4334 H4305 0.950 . S
C4334 C4333 1.334 . S
C4334 C4335 1.287 . S
C4335 C4334 1.287 . S
C4335 C4336 1.524 . S
C4335 H4338 0.999 . S
C4336 H4306 0.950 . S
C4336 C4335 1.524 . S
C4336 C4337 1.415 . S
C4337 H4307 0.950 . S
C4337 C4332 1.363 . S
C4337 C4336 1.415 . S
H4338 C4335 0.999 . S
H4339 C4320 0.913 . S
H4340 C4358 0.951 . S
H4341 C4360 0.951 . S
H4342 C4362 0.950 . S
H4343 C4363 0.950 . S
H4344 C4365 0.950 . S
H4345 C4368 0.950 . S
H4346 C4369 0.950 . S
H4347 C4371 0.950 . S
H4348 C4372 0.950 . S
H4349 C4373 0.951 . S
H4350 C4375 0.951 . S
H4351 C4377 0.950 . S
H4352 C4378 0.950 . S
H4353 C4380 0.950 . S
H4354 C4383 0.950 . S
H4355 C4384 0.950 . S
H4356 C4386 0.950 . S
H4357 C4387 0.950 . S
C4358 H4340 0.951 . S
C4358 C4359 1.366 . S
C4358 C4360 1.388 . S
C4359 C4358 1.366 . S
C4359 C4363 1.385 . S
C4360 H4341 0.951 . S
C4360 C4358 1.388 . S
C4360 C4361 1.366 . S
C4361 C4360 1.366 . S
C4361 C4362 1.414 . S
C4361 C4364 1.499 . S
C4362 H4342 0.950 . S
C4362 C4361 1.414 . S
C4362 C4363 1.374 . S
C4363 H4343 0.950 . S
C4363 C4359 1.385 . S
C4363 C4362 1.374 . S
C4364 C4361 1.499 . S
C4364 C4365 1.373 . S
C4364 C4366 1.389 . S
C4365 H4344 0.950 . S
C4365 C4364 1.373 . S
C4365 C4381 1.377 . S
C4366 C4364 1.389 . S
C4366 C4367 1.524 . S
C4366 C4380 1.377 . S
C4367 C4366 1.524 . S
C4367 C4368 1.397 . S
C4367 C4372 1.363 . S
C4368 H4345 0.950 . S
C4368 C4367 1.397 . S
C4368 C4369 1.334 . S
C4369 H4346 0.950 . S
C4369 C4368 1.334 . S
C4369 C4370 1.287 . S
C4370 C4369 1.287 . S
C4370 C4371 1.524 . S
C4370 H4389 0.913 . S
C4371 H4347 0.950 . S
C4371 C4370 1.524 . S
C4371 C4372 1.415 . S
C4372 H4348 0.950 . S
C4372 C4367 1.363 . S
C4372 C4371 1.415 . S
C4373 H4349 0.951 . S
C4373 C4374 1.366 . S
C4373 C4375 1.388 . S
C4374 C4373 1.366 . S
C4374 C4378 1.385 . S
C4375 H4350 0.951 . S
C4375 C4373 1.388 . S
C4375 C4376 1.366 . S
C4376 C4375 1.366 . S
C4376 C4377 1.414 . S
C4376 C4379 1.499 . S
C4377 H4351 0.950 . S
C4377 C4376 1.414 . S
C4377 C4378 1.374 . S
C4378 H4352 0.950 . S
C4378 C4374 1.385 . S
C4378 C4377 1.374 . S
C4379 C4376 1.499 . S
C4379 C4380 1.373 . S
C4379 C4381 1.389 . S
C4380 H4353 0.950 . S
C4380 C4366 1.377 . S
C4380 C4379 1.373 . S
C4381 C4365 1.377 . S
C4381 C4379 1.389 . S
C4381 C4382 1.524 . S
C4382 C4381 1.524 . S
C4382 C4383 1.397 . S
C4382 C4387 1.363 . S
C4383 H4354 0.950 . S
C4383 C4382 1.397 . S
C4383 C4384 1.334 . S
C4384 H4355 0.950 . S
C4384 C4383 1.334 . S
C4384 C4385 1.287 . S
C4385 C4384 1.287 . S
C4385 C4386 1.524 . S
C4385 H4388 0.999 . S
C4386 H4356 0.950 . S
C4386 C4385 1.524 . S
C4386 C4387 1.415 . S
C4387 H4357 0.950 . S
C4387 C4382 1.363 . S
C4387 C4386 1.415 . S
H4388 C4385 0.999 . S
H4389 C4370 0.913 . S
H4390 C4408 0.951 . S
H4391 C4410 0.951 . S
H4392 C4412 0.950 . S
H4393 C4413 0.950 . S
H4394 C4415 0.950 . S
H4395 C4418 0.950 . S
H4396 C4419 0.950 . S
H4397 C4421 0.950 . S
H4398 C4422 0.950 . S
H4399 C4423 0.951 . S
H4400 C4425 0.951 . S
H4401 C4427 0.950 . S
H4402 C4428 0.950 . S
H4403 C4430 0.950 . S
H4404 C4433 0.950 . S
H4405 C4434 0.950 . S
H4406 C4436 0.950 . S
H4407 C4437 0.950 . S
C4408 H4390 0.951 . S
C4408 C4409 1.366 . S
C4408 C4410 1.388 . S
C4409 C4408 1.366 . S
C4409 C4413 1.385 . S
C4410 H4391 0.951 . S
C4410 C4408 1.388 . S
C4410 C4411 1.366 . S
C4411 C4410 1.366 . S
C4411 C4412 1.414 . S
C4411 C4414 1.499 . S
C4412 H4392 0.950 . S
C4412 C4411 1.414 . S
C4412 C4413 1.374 . S
C4413 H4393 0.950 . S
C4413 C4409 1.385 . S
C4413 C4412 1.374 . S
C4414 C4411 1.499 . S
C4414 C4415 1.373 . S
C4414 C4416 1.389 . S
C4415 H4394 0.950 . S
C4415 C4414 1.373 . S
C4415 C4431 1.377 . S
C4416 C4414 1.389 . S
C4416 C4417 1.524 . S
C4416 C4430 1.377 . S
C4417 C4416 1.524 . S
C4417 C4418 1.397 . S
C4417 C4422 1.363 . S
C4418 H4395 0.950 . S
C4418 C4417 1.397 . S
C4418 C4419 1.334 . S
C4419 H4396 0.950 . S
C4419 C4418 1.334 . S
C4419 C4420 1.287 . S
C4420 C4419 1.287 . S
C4420 C4421 1.524 . S
C4420 H4439 0.913 . S
C4421 H4397 0.950 . S
C4421 C4420 1.524 . S
C4421 C4422 1.415 . S
C4422 H4398 0.950 . S
C4422 C4417 1.363 . S
C4422 C4421 1.415 . S
C4423 H4399 0.951 . S
C4423 C4424 1.366 . S
C4423 C4425 1.388 . S
C4424 C4423 1.366 . S
C4424 C4428 1.385 . S
C4425 H4400 0.951 . S
C4425 C4423 1.388 . S
C4425 C4426 1.366 . S
C4426 C4425 1.366 . S
C4426 C4427 1.414 . S
C4426 C4429 1.499 . S
C4427 H4401 0.950 . S
C4427 C4426 1.414 . S
C4427 C4428 1.374 . S
C4428 H4402 0.950 . S
C4428 C4424 1.385 . S
C4428 C4427 1.374 . S
C4429 C4426 1.499 . S
C4429 C4430 1.373 . S
C4429 C4431 1.389 . S
C4430 H4403 0.950 . S
C4430 C4416 1.377 . S
C4430 C4429 1.373 . S
C4431 C4415 1.377 . S
C4431 C4429 1.389 . S
C4431 C4432 1.524 . S
C4432 C4431 1.524 . S
C4432 C4433 1.397 . S
C4432 C4437 1.363 . S
C4433 H4404 0.950 . S
C4433 C4432 1.397 . S
C4433 C4434 1.334 . S
C4434 H4405 0.950 . S
C4434 C4433 1.334 . S
C4434 C4435 1.287 . S
C4435 C4434 1.287 . S
C4435 C4436 1.524 . S
C4435 H4438 0.999 . S
C4436 H4406 0.950 . S
C4436 C4435 1.524 . S
C4436 C4437 1.415 . S
C4437 H4407 0.950 . S
C4437 C4432 1.363 . S
C4437 C4436 1.415 . S
H4438 C4435 0.999 . S
H4439 C4420 0.913 . S
H4440 C4458 0.951 . S
H4441 C4460 0.951 . S
H4442 C4462 0.950 . S
H4443 C4463 0.950 . S
H4444 C4465 0.950 . S
H4445 C4468 0.950 . S
H4446 C4469 0.950 . S
H4447 C4471 0.950 . S
H4448 C4472 0.950 . S
H4449 C4473 0.951 . S
H4450 C4475 0.951 . S
H4451 C4477 0.950 . S
H4452 C4478 0.950 . S
H4453 C4480 0.950 . S
H4454 C4483 0.950 . S
H4455 C4484 0.950 . S
H4456 C4486 0.950 . S
H4457 C4487 0.950 . S
C4458 H4440 0.951 . S
C4458 C4459 1.366 . S
C4458 C4460 1.388 . S
C4459 C4458 1.366 . S
C4459 C4463 1.385 . S
C4460 H4441 0.951 . S
C4460 C4458 1.388 . S
C4460 C4461 1.366 . S
C4461 C4460 1.366 . S
C4461 C4462 1.414 . S
C4461 C4464 1.499 . S
C4462 H4442 0.950 . S
C4462 C4461 1.414 . S
C4462 C4463 1.374 . S
C4463 H4443 0.950 . S
C4463 C4459 1.385 . S
C4463 C4462 1.374 . S
C4464 C4461 1.499 . S
C4464 C4465 1.373 . S
C4464 C4466 1.389 . S
C4465 H4444 0.950 . S
C4465 C4464 1.373 . S
C4465 C4481 1.377 . S
C4466 C4464 1.389 . S
C4466 C4467 1.524 . S
C4466 C4480 1.377 . S
C4467 C4466 1.524 . S
C4467 C4468 1.397 . S
C4467 C4472 1.363 . S
C4468 H4445 0.950 . S
C4468 C4467 1.397 . S
C4468 C4469 1.334 . S
C4469 H4446 0.950 . S
C4469 C4468 1.334 . S
C4469 C4470 1.287 . S
C4470 C4469 1.287 . S
C4470 C4471 1.524 . S
C4470 H4489 0.913 . S
C4471 H4447 0.950 . S
C4471 C4470 1.524 . S
C4471 C4472 1.415 . S
C4472 H4448 0.950 . S
C4472 C4467 1.363 . S
C4472 C4471 1.415 . S
C4473 H4449 0.951 . S
C4473 C4474 1.366 . S
C4473 C4475 1.388 . S
C4474 C4473 1.366 . S
C4474 C4478 1.385 . S
C4475 H4450 0.951 . S
C4475 C4473 1.388 . S
C4475 C4476 1.366 . S
C4476 C4475 1.366 . S
C4476 C4477 1.414 . S
C4476 C4479 1.499 . S
C4477 H4451 0.950 . S
C4477 C4476 1.414 . S
C4477 C4478 1.374 . S
C4478 H4452 0.950 . S
C4478 C4474 1.385 . S
C4478 C4477 1.374 . S
C4479 C4476 1.499 . S
C4479 C4480 1.373 . S
C4479 C4481 1.389 . S
C4480 H4453 0.950 . S
C4480 C4466 1.377 . S
C4480 C4479 1.373 . S
C4481 C4465 1.377 . S
C4481 C4479 1.389 . S
C4481 C4482 1.524 . S
C4482 C4481 1.524 . S
C4482 C4483 1.397 . S
C4482 C4487 1.363 . S
C4483 H4454 0.950 . S
C4483 C4482 1.397 . S
C4483 C4484 1.334 . S
C4484 H4455 0.950 . S
C4484 C4483 1.334 . S
C4484 C4485 1.287 . S
C4485 C4484 1.287 . S
C4485 C4486 1.524 . S
C4485 H4488 0.999 . S
C4486 H4456 0.950 . S
C4486 C4485 1.524 . S
C4486 C4487 1.415 . S
C4487 H4457 0.950 . S
C4487 C4482 1.363 . S
C4487 C4486 1.415 . S
H4488 C4485 0.999 . S
H4489 C4470 0.913 . S
H4490 C4508 0.951 . S
H4491 C4510 0.951 . S
H4492 C4512 0.950 . S
H4493 C4513 0.950 . S
H4494 C4515 0.950 . S
H4495 C4518 0.950 . S
H4496 C4519 0.950 . S
H4497 C4521 0.950 . S
H4498 C4522 0.950 . S
H4499 C4523 0.951 . S
H4500 C4525 0.951 . S
H4501 C4527 0.950 . S
H4502 C4528 0.950 . S
H4503 C4530 0.950 . S
H4504 C4533 0.950 . S
H4505 C4534 0.950 . S
H4506 C4536 0.950 . S
H4507 C4537 0.950 . S
C4508 H4490 0.951 . S
C4508 C4509 1.366 . S
C4508 C4510 1.388 . S
C4509 C4508 1.366 . S
C4509 C4513 1.385 . S
C4510 H4491 0.951 . S
C4510 C4508 1.388 . S
C4510 C4511 1.366 . S
C4511 C4510 1.366 . S
C4511 C4512 1.414 . S
C4511 C4514 1.499 . S
C4512 H4492 0.950 . S
C4512 C4511 1.414 . S
C4512 C4513 1.374 . S
C4513 H4493 0.950 . S
C4513 C4509 1.385 . S
C4513 C4512 1.374 . S
C4514 C4511 1.499 . S
C4514 C4515 1.373 . S
C4514 C4516 1.389 . S
C4515 H4494 0.950 . S
C4515 C4514 1.373 . S
C4515 C4531 1.377 . S
C4516 C4514 1.389 . S
C4516 C4517 1.524 . S
C4516 C4530 1.377 . S
C4517 C4516 1.524 . S
C4517 C4518 1.397 . S
C4517 C4522 1.363 . S
C4518 H4495 0.950 . S
C4518 C4517 1.397 . S
C4518 C4519 1.334 . S
C4519 H4496 0.950 . S
C4519 C4518 1.334 . S
C4519 C4520 1.287 . S
C4520 C4519 1.287 . S
C4520 C4521 1.524 . S
C4520 H4539 0.913 . S
C4521 H4497 0.950 . S
C4521 C4520 1.524 . S
C4521 C4522 1.415 . S
C4522 H4498 0.950 . S
C4522 C4517 1.363 . S
C4522 C4521 1.415 . S
C4523 H4499 0.951 . S
C4523 C4524 1.366 . S
C4523 C4525 1.388 . S
C4524 C4523 1.366 . S
C4524 C4528 1.385 . S
C4525 H4500 0.951 . S
C4525 C4523 1.388 . S
C4525 C4526 1.366 . S
C4526 C4525 1.366 . S
C4526 C4527 1.414 . S
C4526 C4529 1.499 . S
C4527 H4501 0.950 . S
C4527 C4526 1.414 . S
C4527 C4528 1.374 . S
C4528 H4502 0.950 . S
C4528 C4524 1.385 . S
C4528 C4527 1.374 . S
C4529 C4526 1.499 . S
C4529 C4530 1.373 . S
C4529 C4531 1.389 . S
C4530 H4503 0.950 . S
C4530 C4516 1.377 . S
C4530 C4529 1.373 . S
C4531 C4515 1.377 . S
C4531 C4529 1.389 . S
C4531 C4532 1.524 . S
C4532 C4531 1.524 . S
C4532 C4533 1.397 . S
C4532 C4537 1.363 . S
C4533 H4504 0.950 . S
C4533 C4532 1.397 . S
C4533 C4534 1.334 . S
C4534 H4505 0.950 . S
C4534 C4533 1.334 . S
C4534 C4535 1.287 . S
C4535 C4534 1.287 . S
C4535 C4536 1.524 . S
C4535 H4538 0.999 . S
C4536 H4506 0.950 . S
C4536 C4535 1.524 . S
C4536 C4537 1.415 . S
C4537 H4507 0.950 . S
C4537 C4532 1.363 . S
C4537 C4536 1.415 . S
H4538 C4535 0.999 . S
H4539 C4520 0.913 . S
H4540 C4558 0.951 . S
H4541 C4560 0.951 . S
H4542 C4562 0.950 . S
H4543 C4563 0.950 . S
H4544 C4565 0.950 . S
H4545 C4568 0.950 . S
H4546 C4569 0.950 . S
H4547 C4571 0.950 . S
H4548 C4572 0.950 . S
H4549 C4573 0.951 . S
H4550 C4575 0.951 . S
H4551 C4577 0.950 . S
H4552 C4578 0.950 . S
H4553 C4580 0.950 . S
H4554 C4583 0.950 . S
H4555 C4584 0.950 . S
H4556 C4586 0.950 . S
H4557 C4587 0.950 . S
C4558 H4540 0.951 . S
C4558 C4559 1.366 . S
C4558 C4560 1.388 . S
C4559 C4558 1.366 . S
C4559 C4563 1.385 . S
C4560 H4541 0.951 . S
C4560 C4558 1.388 . S
C4560 C4561 1.366 . S
C4561 C4560 1.366 . S
C4561 C4562 1.414 . S
C4561 C4564 1.499 . S
C4562 H4542 0.950 . S
C4562 C4561 1.414 . S
C4562 C4563 1.374 . S
C4563 H4543 0.950 . S
C4563 C4559 1.385 . S
C4563 C4562 1.374 . S
C4564 C4561 1.499 . S
C4564 C4565 1.373 . S
C4564 C4566 1.389 . S
C4565 H4544 0.950 . S
C4565 C4564 1.373 . S
C4565 C4581 1.377 . S
C4566 C4564 1.389 . S
C4566 C4567 1.524 . S
C4566 C4580 1.377 . S
C4567 C4566 1.524 . S
C4567 C4568 1.397 . S
C4567 C4572 1.363 . S
C4568 H4545 0.950 . S
C4568 C4567 1.397 . S
C4568 C4569 1.334 . S
C4569 H4546 0.950 . S
C4569 C4568 1.334 . S
C4569 C4570 1.287 . S
C4570 C4569 1.287 . S
C4570 C4571 1.524 . S
C4570 H4589 0.913 . S
C4571 H4547 0.950 . S
C4571 C4570 1.524 . S
C4571 C4572 1.415 . S
C4572 H4548 0.950 . S
C4572 C4567 1.363 . S
C4572 C4571 1.415 . S
C4573 H4549 0.951 . S
C4573 C4574 1.366 . S
C4573 C4575 1.388 . S
C4574 C4573 1.366 . S
C4574 C4578 1.385 . S
C4575 H4550 0.951 . S
C4575 C4573 1.388 . S
C4575 C4576 1.366 . S
C4576 C4575 1.366 . S
C4576 C4577 1.414 . S
C4576 C4579 1.499 . S
C4577 H4551 0.950 . S
C4577 C4576 1.414 . S
C4577 C4578 1.374 . S
C4578 H4552 0.950 . S
C4578 C4574 1.385 . S
C4578 C4577 1.374 . S
C4579 C4576 1.499 . S
C4579 C4580 1.373 . S
C4579 C4581 1.389 . S
C4580 H4553 0.950 . S
C4580 C4566 1.377 . S
C4580 C4579 1.373 . S
C4581 C4565 1.377 . S
C4581 C4579 1.389 . S
C4581 C4582 1.524 . S
C4582 C4581 1.524 . S
C4582 C4583 1.397 . S
C4582 C4587 1.363 . S
C4583 H4554 0.950 . S
C4583 C4582 1.397 . S
C4583 C4584 1.334 . S
C4584 H4555 0.950 . S
C4584 C4583 1.334 . S
C4584 C4585 1.287 . S
C4585 C4584 1.287 . S
C4585 C4586 1.524 . S
C4585 H4588 0.999 . S
C4586 H4556 0.950 . S
C4586 C4585 1.524 . S
C4586 C4587 1.415 . S
C4587 H4557 0.950 . S
C4587 C4582 1.363 . S
C4587 C4586 1.415 . S
H4588 C4585 0.999 . S
H4589 C4570 0.913 . S
H4590 C4608 0.951 . S
H4591 C4610 0.951 . S
H4592 C4612 0.950 . S
H4593 C4613 0.950 . S
H4594 C4615 0.950 . S
H4595 C4618 0.950 . S
H4596 C4619 0.950 . S
H4597 C4621 0.950 . S
H4598 C4622 0.950 . S
H4599 C4623 0.951 . S
H4600 C4625 0.951 . S
H4601 C4627 0.950 . S
H4602 C4628 0.950 . S
H4603 C4630 0.950 . S
H4604 C4633 0.950 . S
H4605 C4634 0.950 . S
H4606 C4636 0.950 . S
H4607 C4637 0.950 . S
C4608 H4590 0.951 . S
C4608 C4609 1.366 . S
C4608 C4610 1.388 . S
C4609 C4608 1.366 . S
C4609 C4613 1.385 . S
C4610 H4591 0.951 . S
C4610 C4608 1.388 . S
C4610 C4611 1.366 . S
C4611 C4610 1.366 . S
C4611 C4612 1.414 . S
C4611 C4614 1.499 . S
C4612 H4592 0.950 . S
C4612 C4611 1.414 . S
C4612 C4613 1.374 . S
C4613 H4593 0.950 . S
C4613 C4609 1.385 . S
C4613 C4612 1.374 . S
C4614 C4611 1.499 . S
C4614 C4615 1.373 . S
C4614 C4616 1.389 . S
C4615 H4594 0.950 . S
C4615 C4614 1.373 . S
C4615 C4631 1.377 . S
C4616 C4614 1.389 . S
C4616 C4617 1.524 . S
C4616 C4630 1.377 . S
C4617 C4616 1.524 . S
C4617 C4618 1.397 . S
C4617 C4622 1.363 . S
C4618 H4595 0.950 . S
C4618 C4617 1.397 . S
C4618 C4619 1.334 . S
C4619 H4596 0.950 . S
C4619 C4618 1.334 . S
C4619 C4620 1.287 . S
C4620 C4619 1.287 . S
C4620 C4621 1.524 . S
C4620 H4639 0.913 . S
C4621 H4597 0.950 . S
C4621 C4620 1.524 . S
C4621 C4622 1.415 . S
C4622 H4598 0.950 . S
C4622 C4617 1.363 . S
C4622 C4621 1.415 . S
C4623 H4599 0.951 . S
C4623 C4624 1.366 . S
C4623 C4625 1.388 . S
C4624 C4623 1.366 . S
C4624 C4628 1.385 . S
C4625 H4600 0.951 . S
C4625 C4623 1.388 . S
C4625 C4626 1.366 . S
C4626 C4625 1.366 . S
C4626 C4627 1.414 . S
C4626 C4629 1.499 . S
C4627 H4601 0.950 . S
C4627 C4626 1.414 . S
C4627 C4628 1.374 . S
C4628 H4602 0.950 . S
C4628 C4624 1.385 . S
C4628 C4627 1.374 . S
C4629 C4626 1.499 . S
C4629 C4630 1.373 . S
C4629 C4631 1.389 . S
C4630 H4603 0.950 . S
C4630 C4616 1.377 . S
C4630 C4629 1.373 . S
C4631 C4615 1.377 . S
C4631 C4629 1.389 . S
C4631 C4632 1.524 . S
C4632 C4631 1.524 . S
C4632 C4633 1.397 . S
C4632 C4637 1.363 . S
C4633 H4604 0.950 . S
C4633 C4632 1.397 . S
C4633 C4634 1.334 . S
C4634 H4605 0.950 . S
C4634 C4633 1.334 . S
C4634 C4635 1.287 . S
C4635 C4634 1.287 . S
C4635 C4636 1.524 . S
C4635 H4638 0.999 . S
C4636 H4606 0.950 . S
C4636 C4635 1.524 . S
C4636 C4637 1.415 . S
C4637 H4607 0.950 . S
C4637 C4632 1.363 . S
C4637 C4636 1.415 . S
H4638 C4635 0.999 . S
H4639 C4620 0.913 . S
H4640 C4658 0.951 . S
H4641 C4660 0.951 . S
H4642 C4662 0.950 . S
H4643 C4663 0.950 . S
H4644 C4665 0.950 . S
H4645 C4668 0.950 . S
H4646 C4669 0.950 . S
H4647 C4671 0.950 . S
H4648 C4672 0.950 . S
H4649 C4673 0.951 . S
H4650 C4675 0.951 . S
H4651 C4677 0.950 . S
H4652 C4678 0.950 . S
H4653 C4680 0.950 . S
H4654 C4683 0.950 . S
H4655 C4684 0.950 . S
H4656 C4686 0.950 . S
H4657 C4687 0.950 . S
C4658 H4640 0.951 . S
C4658 C4659 1.366 . S
C4658 C4660 1.388 . S
C4659 C4658 1.366 . S
C4659 C4663 1.385 . S
C4660 H4641 0.951 . S
C4660 C4658 1.388 . S
C4660 C4661 1.366 . S
C4661 C4660 1.366 . S
C4661 C4662 1.414 . S
C4661 C4664 1.499 . S
C4662 H4642 0.950 . S
C4662 C4661 1.414 . S
C4662 C4663 1.374 . S
C4663 H4643 0.950 . S
C4663 C4659 1.385 . S
C4663 C4662 1.374 . S
C4664 C4661 1.499 . S
C4664 C4665 1.373 . S
C4664 C4666 1.389 . S
C4665 H4644 0.950 . S
C4665 C4664 1.373 . S
C4665 C4681 1.377 . S
C4666 C4664 1.389 . S
C4666 C4667 1.524 . S
C4666 C4680 1.377 . S
C4667 C4666 1.524 . S
C4667 C4668 1.397 . S
C4667 C4672 1.363 . S
C4668 H4645 0.950 . S
C4668 C4667 1.397 . S
C4668 C4669 1.334 . S
C4669 H4646 0.950 . S
C4669 C4668 1.334 . S
C4669 C4670 1.287 . S
C4670 C4669 1.287 . S
C4670 C4671 1.524 . S
C4670 H4689 0.913 . S
C4671 H4647 0.950 . S
C4671 C4670 1.524 . S
C4671 C4672 1.415 . S
C4672 H4648 0.950 . S
C4672 C4667 1.363 . S
C4672 C4671 1.415 . S
C4673 H4649 0.951 . S
C4673 C4674 1.366 . S
C4673 C4675 1.388 . S
C4674 C4673 1.366 . S
C4674 C4678 1.385 . S
C4675 H4650 0.951 . S
C4675 C4673 1.388 . S
C4675 C4676 1.366 . S
C4676 C4675 1.366 . S
C4676 C4677 1.414 . S
C4676 C4679 1.499 . S
C4677 H4651 0.950 . S
C4677 C4676 1.414 . S
C4677 C4678 1.374 . S
C4678 H4652 0.950 . S
C4678 C4674 1.385 . S
C4678 C4677 1.374 . S
C4679 C4676 1.499 . S
C4679 C4680 1.373 . S
C4679 C4681 1.389 . S
C4680 H4653 0.950 . S
C4680 C4666 1.377 . S
C4680 C4679 1.373 . S
C4681 C4665 1.377 . S
C4681 C4679 1.389 . S
C4681 C4682 1.524 . S
C4682 C4681 1.524 . S
C4682 C4683 1.397 . S
C4682 C4687 1.363 . S
C4683 H4654 0.950 . S
C4683 C4682 1.397 . S
C4683 C4684 1.334 . S
C4684 H4655 0.950 . S
C4684 C4683 1.334 . S
C4684 C4685 1.287 . S
C4685 C4684 1.287 . S
C4685 C4686 1.524 . S
C4685 H4688 0.999 . S
C4686 H4656 0.950 . S
C4686 C4685 1.524 . S
C4686 C4687 1.415 . S
C4687 H4657 0.950 . S
C4687 C4682 1.363 . S
C4687 C4686 1.415 . S
H4688 C4685 0.999 . S
H4689 C4670 0.913 . S
H4690 C4708 0.951 . S
H4691 C4710 0.951 . S
H4692 C4712 0.950 . S
H4693 C4713 0.950 . S
H4694 C4715 0.950 . S
H4695 C4718 0.950 . S
H4696 C4719 0.950 . S
H4697 C4721 0.950 . S
H4698 C4722 0.950 . S
H4699 C4723 0.951 . S
H4700 C4725 0.951 . S
H4701 C4727 0.950 . S
H4702 C4728 0.950 . S
H4703 C4730 0.950 . S
H4704 C4733 0.950 . S
H4705 C4734 0.950 . S
H4706 C4736 0.950 . S
H4707 C4737 0.950 . S
C4708 H4690 0.951 . S
C4708 C4709 1.366 . S
C4708 C4710 1.388 . S
C4709 C4708 1.366 . S
C4709 C4713 1.385 . S
C4710 H4691 0.951 . S
C4710 C4708 1.388 . S
C4710 C4711 1.366 . S
C4711 C4710 1.366 . S
C4711 C4712 1.414 . S
C4711 C4714 1.499 . S
C4712 H4692 0.950 . S
C4712 C4711 1.414 . S
C4712 C4713 1.374 . S
C4713 H4693 0.950 . S
C4713 C4709 1.385 . S
C4713 C4712 1.374 . S
C4714 C4711 1.499 . S
C4714 C4715 1.373 . S
C4714 C4716 1.389 . S
C4715 H4694 0.950 . S
C4715 C4714 1.373 . S
C4715 C4731 1.377 . S
C4716 C4714 1.389 . S
C4716 C4717 1.524 . S
C4716 C4730 1.377 . S
C4717 C4716 1.524 . S
C4717 C4718 1.397 . S
C4717 C4722 1.363 . S
C4718 H4695 0.950 . S
C4718 C4717 1.397 . S
C4718 C4719 1.334 . S
C4719 H4696 0.950 . S
C4719 C4718 1.334 . S
C4719 C4720 1.287 . S
C4720 C4719 1.287 . S
C4720 C4721 1.524 . S
C4720 H4739 0.913 . S
C4721 H4697 0.950 . S
C4721 C4720 1.524 . S
C4721 C4722 1.415 . S
C4722 H4698 0.950 . S
C4722 C4717 1.363 . S
C4722 C4721 1.415 . S
C4723 H4699 0.951 . S
C4723 C4724 1.366 . S
C4723 C4725 1.388 . S
C4724 C4723 1.366 . S
C4724 C4728 1.385 . S
C4725 H4700 0.951 . S
C4725 C4723 1.388 . S
C4725 C4726 1.366 . S
C4726 C4725 1.366 . S
C4726 C4727 1.414 . S
C4726 C4729 1.499 . S
C4727 H4701 0.950 . S
C4727 C4726 1.414 . S
C4727 C4728 1.374 . S
C4728 H4702 0.950 . S
C4728 C4724 1.385 . S
C4728 C4727 1.374 . S
C4729 C4726 1.499 . S
C4729 C4730 1.373 . S
C4729 C4731 1.389 . S
C4730 H4703 0.950 . S
C4730 C4716 1.377 . S
C4730 C4729 1.373 . S
C4731 C4715 1.377 . S
C4731 C4729 1.389 . S
C4731 C4732 1.524 . S
C4732 C4731 1.524 . S
C4732 C4733 1.397 . S
C4732 C4737 1.363 . S
C4733 H4704 0.950 . S
C4733 C4732 1.397 . S
C4733 C4734 1.334 . S
C4734 H4705 0.950 . S
C4734 C4733 1.334 . S
C4734 C4735 1.287 . S
C4735 C4734 1.287 . S
C4735 C4736 1.524 . S
C4735 H4738 0.999 . S
C4736 H4706 0.950 . S
C4736 C4735 1.524 . S
C4736 C4737 1.415 . S
C4737 H4707 0.950 . S
C4737 C4732 1.363 . S
C4737 C4736 1.415 . S
H4738 C4735 0.999 . S
H4739 C4720 0.913 . S
H4740 C4758 0.951 . S
H4741 C4760 0.951 . S
H4742 C4762 0.950 . S
H4743 C4763 0.950 . S
H4744 C4765 0.950 . S
H4745 C4768 0.950 . S
H4746 C4769 0.950 . S
H4747 C4771 0.950 . S
H4748 C4772 0.950 . S
H4749 C4773 0.951 . S
H4750 C4775 0.951 . S
H4751 C4777 0.950 . S
H4752 C4778 0.950 . S
H4753 C4780 0.950 . S
H4754 C4783 0.950 . S
H4755 C4784 0.950 . S
H4756 C4786 0.950 . S
H4757 C4787 0.950 . S
C4758 H4740 0.951 . S
C4758 C4759 1.366 . S
C4758 C4760 1.388 . S
C4759 C4758 1.366 . S
C4759 C4763 1.385 . S
C4760 H4741 0.951 . S
C4760 C4758 1.388 . S
C4760 C4761 1.366 . S
C4761 C4760 1.366 . S
C4761 C4762 1.414 . S
C4761 C4764 1.499 . S
C4762 H4742 0.950 . S
C4762 C4761 1.414 . S
C4762 C4763 1.374 . S
C4763 H4743 0.950 . S
C4763 C4759 1.385 . S
C4763 C4762 1.374 . S
C4764 C4761 1.499 . S
C4764 C4765 1.373 . S
C4764 C4766 1.389 . S
C4765 H4744 0.950 . S
C4765 C4764 1.373 . S
C4765 C4781 1.377 . S
C4766 C4764 1.389 . S
C4766 C4767 1.524 . S
C4766 C4780 1.377 . S
C4767 C4766 1.524 . S
C4767 C4768 1.397 . S
C4767 C4772 1.363 . S
C4768 H4745 0.950 . S
C4768 C4767 1.397 . S
C4768 C4769 1.334 . S
C4769 H4746 0.950 . S
C4769 C4768 1.334 . S
C4769 C4770 1.287 . S
C4770 C4769 1.287 . S
C4770 C4771 1.524 . S
C4770 H4789 0.913 . S
C4771 H4747 0.950 . S
C4771 C4770 1.524 . S
C4771 C4772 1.415 . S
C4772 H4748 0.950 . S
C4772 C4767 1.363 . S
C4772 C4771 1.415 . S
C4773 H4749 0.951 . S
C4773 C4774 1.366 . S
C4773 C4775 1.388 . S
C4774 C4773 1.366 . S
C4774 C4778 1.385 . S
C4775 H4750 0.951 . S
C4775 C4773 1.388 . S
C4775 C4776 1.366 . S
C4776 C4775 1.366 . S
C4776 C4777 1.414 . S
C4776 C4779 1.499 . S
C4777 H4751 0.950 . S
C4777 C4776 1.414 . S
C4777 C4778 1.374 . S
C4778 H4752 0.950 . S
C4778 C4774 1.385 . S
C4778 C4777 1.374 . S
C4779 C4776 1.499 . S
C4779 C4780 1.373 . S
C4779 C4781 1.389 . S
C4780 H4753 0.950 . S
C4780 C4766 1.377 . S
C4780 C4779 1.373 . S
C4781 C4765 1.377 . S
C4781 C4779 1.389 . S
C4781 C4782 1.524 . S
C4782 C4781 1.524 . S
C4782 C4783 1.397 . S
C4782 C4787 1.363 . S
C4783 H4754 0.950 . S
C4783 C4782 1.397 . S
C4783 C4784 1.334 . S
C4784 H4755 0.950 . S
C4784 C4783 1.334 . S
C4784 C4785 1.287 . S
C4785 C4784 1.287 . S
C4785 C4786 1.524 . S
C4785 H4788 0.999 . S
C4786 H4756 0.950 . S
C4786 C4785 1.524 . S
C4786 C4787 1.415 . S
C4787 H4757 0.950 . S
C4787 C4782 1.363 . S
C4787 C4786 1.415 . S
H4788 C4785 0.999 . S
H4789 C4770 0.913 . S
H4790 C4808 0.951 . S
H4791 C4810 0.951 . S
H4792 C4812 0.950 . S
H4793 C4813 0.950 . S
H4794 C4815 0.950 . S
H4795 C4818 0.950 . S
H4796 C4819 0.950 . S
H4797 C4821 0.950 . S
H4798 C4822 0.950 . S
H4799 C4823 0.951 . S
H4800 C4825 0.951 . S
H4801 C4827 0.950 . S
H4802 C4828 0.950 . S
H4803 C4830 0.950 . S
H4804 C4833 0.950 . S
H4805 C4834 0.950 . S
H4806 C4836 0.950 . S
H4807 C4837 0.950 . S
C4808 H4790 0.951 . S
C4808 C4809 1.366 . S
C4808 C4810 1.388 . S
C4809 C4808 1.366 . S
C4809 C4813 1.385 . S
C4810 H4791 0.951 . S
C4810 C4808 1.388 . S
C4810 C4811 1.366 . S
C4811 C4810 1.366 . S
C4811 C4812 1.414 . S
C4811 C4814 1.499 . S
C4812 H4792 0.950 . S
C4812 C4811 1.414 . S
C4812 C4813 1.374 . S
C4813 H4793 0.950 . S
C4813 C4809 1.385 . S
C4813 C4812 1.374 . S
C4814 C4811 1.499 . S
C4814 C4815 1.373 . S
C4814 C4816 1.389 . S
C4815 H4794 0.950 . S
C4815 C4814 1.373 . S
C4815 C4831 1.377 . S
C4816 C4814 1.389 . S
C4816 C4817 1.524 . S
C4816 C4830 1.377 . S
C4817 C4816 1.524 . S
C4817 C4818 1.397 . S
C4817 C4822 1.363 . S
C4818 H4795 0.950 . S
C4818 C4817 1.397 . S
C4818 C4819 1.334 . S
C4819 H4796 0.950 . S
C4819 C4818 1.334 . S
C4819 C4820 1.287 . S
C4820 C4819 1.287 . S
C4820 C4821 1.524 . S
C4820 H4839 0.913 . S
C4821 H4797 0.950 . S
C4821 C4820 1.524 . S
C4821 C4822 1.415 . S
C4822 H4798 0.950 . S
C4822 C4817 1.363 . S
C4822 C4821 1.415 . S
C4823 H4799 0.951 . S
C4823 C4824 1.366 . S
C4823 C4825 1.388 . S
C4824 C4823 1.366 . S
C4824 C4828 1.385 . S
C4825 H4800 0.951 . S
C4825 C4823 1.388 . S
C4825 C4826 1.366 . S
C4826 C4825 1.366 . S
C4826 C4827 1.414 . S
C4826 C4829 1.499 . S
C4827 H4801 0.950 . S
C4827 C4826 1.414 . S
C4827 C4828 1.374 . S
C4828 H4802 0.950 . S
C4828 C4824 1.385 . S
C4828 C4827 1.374 . S
C4829 C4826 1.499 . S
C4829 C4830 1.373 . S
C4829 C4831 1.389 . S
C4830 H4803 0.950 . S
C4830 C4816 1.377 . S
C4830 C4829 1.373 . S
C4831 C4815 1.377 . S
C4831 C4829 1.389 . S
C4831 C4832 1.524 . S
C4832 C4831 1.524 . S
C4832 C4833 1.397 . S
C4832 C4837 1.363 . S
C4833 H4804 0.950 . S
C4833 C4832 1.397 . S
C4833 C4834 1.334 . S
C4834 H4805 0.950 . S
C4834 C4833 1.334 . S
C4834 C4835 1.287 . S
C4835 C4834 1.287 . S
C4835 C4836 1.524 . S
C4835 H4838 0.999 . S
C4836 H4806 0.950 . S
C4836 C4835 1.524 . S
C4836 C4837 1.415 . S
C4837 H4807 0.950 . S
C4837 C4832 1.363 . S
C4837 C4836 1.415 . S
H4838 C4835 0.999 . S
H4839 C4820 0.913 . S
H4840 C4858 0.951 . S
H4841 C4860 0.951 . S
H4842 C4862 0.950 . S
H4843 C4863 0.950 . S
H4844 C4865 0.950 . S
H4845 C4868 0.950 . S
H4846 C4869 0.950 . S
H4847 C4871 0.950 . S
H4848 C4872 0.950 . S
H4849 C4873 0.951 . S
H4850 C4875 0.951 . S
H4851 C4877 0.950 . S
H4852 C4878 0.950 . S
H4853 C4880 0.950 . S
H4854 C4883 0.950 . S
H4855 C4884 0.950 . S
H4856 C4886 0.950 . S
H4857 C4887 0.950 . S
C4858 H4840 0.951 . S
C4858 C4859 1.366 . S
C4858 C4860 1.388 . S
C4859 C4858 1.366 . S
C4859 C4863 1.385 . S
C4860 H4841 0.951 . S
C4860 C4858 1.388 . S
C4860 C4861 1.366 . S
C4861 C4860 1.366 . S
C4861 C4862 1.414 . S
C4861 C4864 1.499 . S
C4862 H4842 0.950 . S
C4862 C4861 1.414 . S
C4862 C4863 1.374 . S
C4863 H4843 0.950 . S
C4863 C4859 1.385 . S
C4863 C4862 1.374 . S
C4864 C4861 1.499 . S
C4864 C4865 1.373 . S
C4864 C4866 1.389 . S
C4865 H4844 0.950 . S
C4865 C4864 1.373 . S
C4865 C4881 1.377 . S
C4866 C4864 1.389 . S
C4866 C4867 1.524 . S
C4866 C4880 1.377 . S
C4867 C4866 1.524 . S
C4867 C4868 1.397 . S
C4867 C4872 1.363 . S
C4868 H4845 0.950 . S
C4868 C4867 1.397 . S
C4868 C4869 1.334 . S
C4869 H4846 0.950 . S
C4869 C4868 1.334 . S
C4869 C4870 1.287 . S
C4870 C4869 1.287 . S
C4870 C4871 1.524 . S
C4870 H4889 0.913 . S
C4871 H4847 0.950 . S
C4871 C4870 1.524 . S
C4871 C4872 1.415 . S
C4872 H4848 0.950 . S
C4872 C4867 1.363 . S
C4872 C4871 1.415 . S
C4873 H4849 0.951 . S
C4873 C4874 1.366 . S
C4873 C4875 1.388 . S
C4874 C4873 1.366 . S
C4874 C4878 1.385 . S
C4875 H4850 0.951 . S
C4875 C4873 1.388 . S
C4875 C4876 1.366 . S
C4876 C4875 1.366 . S
C4876 C4877 1.414 . S
C4876 C4879 1.499 . S
C4877 H4851 0.950 . S
C4877 C4876 1.414 . S
C4877 C4878 1.374 . S
C4878 H4852 0.950 . S
C4878 C4874 1.385 . S
C4878 C4877 1.374 . S
C4879 C4876 1.499 . S
C4879 C4880 1.373 . S
C4879 C4881 1.389 . S
C4880 H4853 0.950 . S
C4880 C4866 1.377 . S
C4880 C4879 1.373 . S
C4881 C4865 1.377 . S
C4881 C4879 1.389 . S
C4881 C4882 1.524 . S
C4882 C4881 1.524 . S
C4882 C4883 1.397 . S
C4882 C4887 1.363 . S
C4883 H4854 0.950 . S
C4883 C4882 1.397 . S
C4883 C4884 1.334 . S
C4884 H4855 0.950 . S
C4884 C4883 1.334 . S
C4884 C4885 1.287 . S
C4885 C4884 1.287 . S
C4885 C4886 1.524 . S
C4885 H4888 0.999 . S
C4886 H4856 0.950 . S
C4886 C4885 1.524 . S
C4886 C4887 1.415 . S
C4887 H4857 0.950 . S
C4887 C4882 1.363 . S
C4887 C4886 1.415 . S
H4888 C4885 0.999 . S
H4889 C4870 0.913 . S
H4890 C4908 0.951 . S
H4891 C4910 0.951 . S
H4892 C4912 0.950 . S
H4893 C4913 0.950 . S
H4894 C4915 0.950 . S
H4895 C4918 0.950 . S
H4896 C4919 0.950 . S
H4897 C4921 0.950 . S
H4898 C4922 0.950 . S
H4899 C4923 0.951 . S
H4900 C4925 0.951 . S
H4901 C4927 0.950 . S
H4902 C4928 0.950 . S
H4903 C4930 0.950 . S
H4904 C4933 0.950 . S
H4905 C4934 0.950 . S
H4906 C4936 0.950 . S
H4907 C4937 0.950 . S
C4908 H4890 0.951 . S
C4908 C4909 1.366 . S
C4908 C4910 1.388 . S
C4909 C4908 1.366 . S
C4909 C4913 1.385 . S
C4910 H4891 0.951 . S
C4910 C4908 1.388 . S
C4910 C4911 1.366 . S
C4911 C4910 1.366 . S
C4911 C4912 1.414 . S
C4911 C4914 1.499 . S
C4912 H4892 0.950 . S
C4912 C4911 1.414 . S
C4912 C4913 1.374 . S
C4913 H4893 0.950 . S
C4913 C4909 1.385 . S
C4913 C4912 1.374 . S
C4914 C4911 1.499 . S
C4914 C4915 1.373 . S
C4914 C4916 1.389 . S
C4915 H4894 0.950 . S
C4915 C4914 1.373 . S
C4915 C4931 1.377 . S
C4916 C4914 1.389 . S
C4916 C4917 1.524 . S
C4916 C4930 1.377 . S
C4917 C4916 1.524 . S
C4917 C4918 1.397 . S
C4917 C4922 1.363 . S
C4918 H4895 0.950 . S
C4918 C4917 1.397 . S
C4918 C4919 1.334 . S
C4919 H4896 0.950 . S
C4919 C4918 1.334 . S
C4919 C4920 1.287 . S
C4920 C4919 1.287 . S
C4920 C4921 1.524 . S
C4920 H4939 0.913 . S
C4921 H4897 0.950 . S
C4921 C4920 1.524 . S
C4921 C4922 1.415 . S
C4922 H4898 0.950 . S
C4922 C4917 1.363 . S
C4922 C4921 1.415 . S
C4923 H4899 0.951 . S
C4923 C4924 1.366 . S
C4923 C4925 1.388 . S
C4924 C4923 1.366 . S
C4924 C4928 1.385 . S
C4925 H4900 0.951 . S
C4925 C4923 1.388 . S
C4925 C4926 1.366 . S
C4926 C4925 1.366 . S
C4926 C4927 1.414 . S
C4926 C4929 1.499 . S
C4927 H4901 0.950 . S
C4927 C4926 1.414 . S
C4927 C4928 1.374 . S
C4928 H4902 0.950 . S
C4928 C4924 1.385 . S
C4928 C4927 1.374 . S
C4929 C4926 1.499 . S
C4929 C4930 1.373 . S
C4929 C4931 1.389 . S
C4930 H4903 0.950 . S
C4930 C4916 1.377 . S
C4930 C4929 1.373 . S
C4931 C4915 1.377 . S
C4931 C4929 1.389 . S
C4931 C4932 1.524 . S
C4932 C4931 1.524 . S
C4932 C4933 1.397 . S
C4932 C4937 1.363 . S
C4933 H4904 0.950 . S
C4933 C4932 1.397 . S
C4933 C4934 1.334 . S
C4934 H4905 0.950 . S
C4934 C4933 1.334 . S
C4934 C4935 1.287 . S
C4935 C4934 1.287 . S
C4935 C4936 1.524 . S
C4935 H4938 0.999 . S
C4936 H4906 0.950 . S
C4936 C4935 1.524 . S
C4936 C4937 1.415 . S
C4937 H4907 0.950 . S
C4937 C4932 1.363 . S
C4937 C4936 1.415 . S
H4938 C4935 0.999 . S
H4939 C4920 0.913 . S
H4940 C4958 0.951 . S
H4941 C4960 0.951 . S
H4942 C4962 0.950 . S
H4943 C4963 0.950 . S
H4944 C4965 0.950 . S
H4945 C4968 0.950 . S
H4946 C4969 0.950 . S
H4947 C4971 0.950 . S
H4948 C4972 0.950 . S
H4949 C4973 0.951 . S
H4950 C4975 0.951 . S
H4951 C4977 0.950 . S
H4952 C4978 0.950 . S
H4953 C4980 0.950 . S
H4954 C4983 0.950 . S
H4955 C4984 0.950 . S
H4956 C4986 0.950 . S
H4957 C4987 0.950 . S
C4958 H4940 0.951 . S
C4958 C4959 1.366 . S
C4958 C4960 1.388 . S
C4959 C4958 1.366 . S
C4959 C4963 1.385 . S
C4960 H4941 0.951 . S
C4960 C4958 1.388 . S
C4960 C4961 1.366 . S
C4961 C4960 1.366 . S
C4961 C4962 1.414 . S
C4961 C4964 1.499 . S
C4962 H4942 0.950 . S
C4962 C4961 1.414 . S
C4962 C4963 1.374 . S
C4963 H4943 0.950 . S
C4963 C4959 1.385 . S
C4963 C4962 1.374 . S
C4964 C4961 1.499 . S
C4964 C4965 1.373 . S
C4964 C4966 1.389 . S
C4965 H4944 0.950 . S
C4965 C4964 1.373 . S
C4965 C4981 1.377 . S
C4966 C4964 1.389 . S
C4966 C4967 1.524 . S
C4966 C4980 1.377 . S
C4967 C4966 1.524 . S
C4967 C4968 1.397 . S
C4967 C4972 1.363 . S
C4968 H4945 0.950 . S
C4968 C4967 1.397 . S
C4968 C4969 1.334 . S
C4969 H4946 0.950 . S
C4969 C4968 1.334 . S
C4969 C4970 1.287 . S
C4970 C4969 1.287 . S
C4970 C4971 1.524 . S
C4970 H4989 0.913 . S
C4971 H4947 0.950 . S
C4971 C4970 1.524 . S
C4971 C4972 1.415 . S
C4972 H4948 0.950 . S
C4972 C4967 1.363 . S
C4972 C4971 1.415 . S
C4973 H4949 0.951 . S
C4973 C4974 1.366 . S
C4973 C4975 1.388 . S
C4974 C4973 1.366 . S
C4974 C4978 1.385 . S
C4975 H4950 0.951 . S
C4975 C4973 1.388 . S
C4975 C4976 1.366 . S
C4976 C4975 1.366 . S
C4976 C4977 1.414 . S
C4976 C4979 1.499 . S
C4977 H4951 0.950 . S
C4977 C4976 1.414 . S
C4977 C4978 1.374 . S
C4978 H4952 0.950 . S
C4978 C4974 1.385 . S
C4978 C4977 1.374 . S
C4979 C4976 1.499 . S
C4979 C4980 1.373 . S
C4979 C4981 1.389 . S
C4980 H4953 0.950 . S
C4980 C4966 1.377 . S
C4980 C4979 1.373 . S
C4981 C4965 1.377 . S
C4981 C4979 1.389 . S
C4981 C4982 1.524 . S
C4982 C4981 1.524 . S
C4982 C4983 1.397 . S
C4982 C4987 1.363 . S
C4983 H4954 0.950 . S
C4983 C4982 1.397 . S
C4983 C4984 1.334 . S
C4984 H4955 0.950 . S
C4984 C4983 1.334 . S
C4984 C4985 1.287 . S
C4985 C4984 1.287 . S
C4985 C4986 1.524 . S
C4985 H4988 0.999 . S
C4986 H4956 0.950 . S
C4986 C4985 1.524 . S
C4986 C4987 1.415 . S
C4987 H4957 0.950 . S
C4987 C4982 1.363 . S
C4987 C4986 1.415 . S
H4988 C4985 0.999 . S
H4989 C4970 0.913 . S
H4990 C5008 0.951 . S
H4991 C5010 0.951 . S
H4992 C5012 0.950 . S
H4993 C5013 0.950 . S
H4994 C5015 0.950 . S
H4995 C5018 0.950 . S
H4996 C5019 0.950 . S
H4997 C5021 0.950 . S
H4998 C5022 0.950 . S
H4999 C5023 0.951 . S
H5000 C5025 0.951 . S
H5001 C5027 0.950 . S
H5002 C5028 0.950 . S
H5003 C5030 0.950 . S
H5004 C5033 0.950 . S
H5005 C5034 0.950 . S
H5006 C5036 0.950 . S
H5007 C5037 0.950 . S
C5008 H4990 0.951 . S
C5008 C5009 1.366 . S
C5008 C5010 1.388 . S
C5009 C5008 1.366 . S
C5009 C5013 1.385 . S
C5010 H4991 0.951 . S
C5010 C5008 1.388 . S
C5010 C5011 1.366 . S
C5011 C5010 1.366 . S
C5011 C5012 1.414 . S
C5011 C5014 1.499 . S
C5012 H4992 0.950 . S
C5012 C5011 1.414 . S
C5012 C5013 1.374 . S
C5013 H4993 0.950 . S
C5013 C5009 1.385 . S
C5013 C5012 1.374 . S
C5014 C5011 1.499 . S
C5014 C5015 1.373 . S
C5014 C5016 1.389 . S
C5015 H4994 0.950 . S
C5015 C5014 1.373 . S
C5015 C5031 1.377 . S
C5016 C5014 1.389 . S
C5016 C5017 1.524 . S
C5016 C5030 1.377 . S
C5017 C5016 1.524 . S
C5017 C5018 1.397 . S
C5017 C5022 1.363 . S
C5018 H4995 0.950 . S
C5018 C5017 1.397 . S
C5018 C5019 1.334 . S
C5019 H4996 0.950 . S
C5019 C5018 1.334 . S
C5019 C5020 1.287 . S
C5020 C5019 1.287 . S
C5020 C5021 1.524 . S
C5020 H5039 0.913 . S
C5021 H4997 0.950 . S
C5021 C5020 1.524 . S
C5021 C5022 1.415 . S
C5022 H4998 0.950 . S
C5022 C5017 1.363 . S
C5022 C5021 1.415 . S
C5023 H4999 0.951 . S
C5023 C5024 1.366 . S
C5023 C5025 1.388 . S
C5024 C5023 1.366 . S
C5024 C5028 1.385 . S
C5025 H5000 0.951 . S
C5025 C5023 1.388 . S
C5025 C5026 1.366 . S
C5026 C5025 1.366 . S
C5026 C5027 1.414 . S
C5026 C5029 1.499 . S
C5027 H5001 0.950 . S
C5027 C5026 1.414 . S
C5027 C5028 1.374 . S
C5028 H5002 0.950 . S
C5028 C5024 1.385 . S
C5028 C5027 1.374 . S
C5029 C5026 1.499 . S
C5029 C5030 1.373 . S
C5029 C5031 1.389 . S
C5030 H5003 0.950 . S
C5030 C5016 1.377 . S
C5030 C5029 1.373 . S
C5031 C5015 1.377 . S
C5031 C5029 1.389 . S
C5031 C5032 1.524 . S
C5032 C5031 1.524 . S
C5032 C5033 1.397 . S
C5032 C5037 1.363 . S
C5033 H5004 0.950 . S
C5033 C5032 1.397 . S
C5033 C5034 1.334 . S
C5034 H5005 0.950 . S
C5034 C5033 1.334 . S
C5034 C5035 1.287 . S
C5035 C5034 1.287 . S
C5035 C5036 1.524 . S
C5035 H5038 0.999 . S
C5036 H5006 0.950 . S
C5036 C5035 1.524 . S
C5036 C5037 1.415 . S
C5037 H5007 0.950 . S
C5037 C5032 1.363 . S
C5037 C5036 1.415 . S
H5038 C5035 0.999 . S
H5039 C5020 0.913 . S
H5040 C5058 0.951 . S
H5041 C5060 0.951 . S
H5042 C5062 0.950 . S
H5043 C5063 0.950 . S
H5044 C5065 0.950 . S
H5045 C5068 0.950 . S
H5046 C5069 0.950 . S
H5047 C5071 0.950 . S
H5048 C5072 0.950 . S
H5049 C5073 0.951 . S
H5050 C5075 0.951 . S
H5051 C5077 0.950 . S
H5052 C5078 0.950 . S
H5053 C5080 0.950 . S
H5054 C5083 0.950 . S
H5055 C5084 0.950 . S
H5056 C5086 0.950 . S
H5057 C5087 0.950 . S
C5058 H5040 0.951 . S
C5058 C5059 1.366 . S
C5058 C5060 1.388 . S
C5059 C5058 1.366 . S
C5059 C5063 1.385 . S
C5060 H5041 0.951 . S
C5060 C5058 1.388 . S
C5060 C5061 1.366 . S
C5061 C5060 1.366 . S
C5061 C5062 1.414 . S
C5061 C5064 1.499 . S
C5062 H5042 0.950 . S
C5062 C5061 1.414 . S
C5062 C5063 1.374 . S
C5063 H5043 0.950 . S
C5063 C5059 1.385 . S
C5063 C5062 1.374 . S
C5064 C5061 1.499 . S
C5064 C5065 1.373 . S
C5064 C5066 1.389 . S
C5065 H5044 0.950 . S
C5065 C5064 1.373 . S
C5065 C5081 1.377 . S
C5066 C5064 1.389 . S
C5066 C5067 1.524 . S
C5066 C5080 1.377 . S
C5067 C5066 1.524 . S
C5067 C5068 1.397 . S
C5067 C5072 1.363 . S
C5068 H5045 0.950 . S
C5068 C5067 1.397 . S
C5068 C5069 1.334 . S
C5069 H5046 0.950 . S
C5069 C5068 1.334 . S
C5069 C5070 1.287 . S
C5070 C5069 1.287 . S
C5070 C5071 1.524 . S
C5070 H5089 0.913 . S
C5071 H5047 0.950 . S
C5071 C5070 1.524 . S
C5071 C5072 1.415 . S
C5072 H5048 0.950 . S
C5072 C5067 1.363 . S
C5072 C5071 1.415 . S
C5073 H5049 0.951 . S
C5073 C5074 1.366 . S
C5073 C5075 1.388 . S
C5074 C5073 1.366 . S
C5074 C5078 1.385 . S
C5075 H5050 0.951 . S
C5075 C5073 1.388 . S
C5075 C5076 1.366 . S
C5076 C5075 1.366 . S
C5076 C5077 1.414 . S
C5076 C5079 1.499 . S
C5077 H5051 0.950 . S
C5077 C5076 1.414 . S
C5077 C5078 1.374 . S
C5078 H5052 0.950 . S
C5078 C5074 1.385 . S
C5078 C5077 1.374 . S
C5079 C5076 1.499 . S
C5079 C5080 1.373 . S
C5079 C5081 1.389 . S
C5080 H5053 0.950 . S
C5080 C5066 1.377 . S
C5080 C5079 1.373 . S
C5081 C5065 1.377 . S
C5081 C5079 1.389 . S
C5081 C5082 1.524 . S
C5082 C5081 1.524 . S
C5082 C5083 1.397 . S
C5082 C5087 1.363 . S
C5083 H5054 0.950 . S
C5083 C5082 1.397 . S
C5083 C5084 1.334 . S
C5084 H5055 0.950 . S
C5084 C5083 1.334 . S
C5084 C5085 1.287 . S
C5085 C5084 1.287 . S
C5085 C5086 1.524 . S
C5085 H5088 0.999 . S
C5086 H5056 0.950 . S
C5086 C5085 1.524 . S
C5086 C5087 1.415 . S
C5087 H5057 0.950 . S
C5087 C5082 1.363 . S
C5087 C5086 1.415 . S
H5088 C5085 0.999 . S
H5089 C5070 0.913 . S
H5090 C5108 0.951 . S
H5091 C5110 0.951 . S
H5092 C5112 0.950 . S
H5093 C5113 0.950 . S
H5094 C5115 0.950 . S
H5095 C5118 0.950 . S
H5096 C5119 0.950 . S
H5097 C5121 0.950 . S
H5098 C5122 0.950 . S
H5099 C5123 0.951 . S
H5100 C5125 0.951 . S
H5101 C5127 0.950 . S
H5102 C5128 0.950 . S
H5103 C5130 0.950 . S
H5104 C5133 0.950 . S
H5105 C5134 0.950 . S
H5106 C5136 0.950 . S
H5107 C5137 0.950 . S
C5108 H5090 0.951 . S
C5108 C5109 1.366 . S
C5108 C5110 1.388 . S
C5109 C5108 1.366 . S
C5109 C5113 1.385 . S
C5110 H5091 0.951 . S
C5110 C5108 1.388 . S
C5110 C5111 1.366 . S
C5111 C5110 1.366 . S
C5111 C5112 1.414 . S
C5111 C5114 1.499 . S
C5112 H5092 0.950 . S
C5112 C5111 1.414 . S
C5112 C5113 1.374 . S
C5113 H5093 0.950 . S
C5113 C5109 1.385 . S
C5113 C5112 1.374 . S
C5114 C5111 1.499 . S
C5114 C5115 1.373 . S
C5114 C5116 1.389 . S
C5115 H5094 0.950 . S
C5115 C5114 1.373 . S
C5115 C5131 1.377 . S
C5116 C5114 1.389 . S
C5116 C5117 1.524 . S
C5116 C5130 1.377 . S
C5117 C5116 1.524 . S
C5117 C5118 1.397 . S
C5117 C5122 1.363 . S
C5118 H5095 0.950 . S
C5118 C5117 1.397 . S
C5118 C5119 1.334 . S
C5119 H5096 0.950 . S
C5119 C5118 1.334 . S
C5119 C5120 1.287 . S
C5120 C5119 1.287 . S
C5120 C5121 1.524 . S
C5120 H5139 0.913 . S
C5121 H5097 0.950 . S
C5121 C5120 1.524 . S
C5121 C5122 1.415 . S
C5122 H5098 0.950 . S
C5122 C5117 1.363 . S
C5122 C5121 1.415 . S
C5123 H5099 0.951 . S
C5123 C5124 1.366 . S
C5123 C5125 1.388 . S
C5124 C5123 1.366 . S
C5124 C5128 1.385 . S
C5125 H5100 0.951 . S
C5125 C5123 1.388 . S
C5125 C5126 1.366 . S
C5126 C5125 1.366 . S
C5126 C5127 1.414 . S
C5126 C5129 1.499 . S
C5127 H5101 0.950 . S
C5127 C5126 1.414 . S
C5127 C5128 1.374 . S
C5128 H5102 0.950 . S
C5128 C5124 1.385 . S
C5128 C5127 1.374 . S
C5129 C5126 1.499 . S
C5129 C5130 1.373 . S
C5129 C5131 1.389 . S
C5130 H5103 0.950 . S
C5130 C5116 1.377 . S
C5130 C5129 1.373 . S
C5131 C5115 1.377 . S
C5131 C5129 1.389 . S
C5131 C5132 1.524 . S
C5132 C5131 1.524 . S
C5132 C5133 1.397 . S
C5132 C5137 1.363 . S
C5133 H5104 0.950 . S
C5133 C5132 1.397 . S
C5133 C5134 1.334 . S
C5134 H5105 0.950 . S
C5134 C5133 1.334 . S
C5134 C5135 1.287 . S
C5135 C5134 1.287 . S
C5135 C5136 1.524 . S
C5135 H5138 0.999 . S
C5136 H5106 0.950 . S
C5136 C5135 1.524 . S
C5136 C5137 1.415 . S
C5137 H5107 0.950 . S
C5137 C5132 1.363 . S
C5137 C5136 1.415 . S
H5138 C5135 0.999 . S
H5139 C5120 0.913 . S
H5140 C5158 0.951 . S
H5141 C5160 0.951 . S
H5142 C5162 0.950 . S
H5143 C5163 0.950 . S
H5144 C5165 0.950 . S
H5145 C5168 0.950 . S
H5146 C5169 0.950 . S
H5147 C5171 0.950 . S
H5148 C5172 0.950 . S
H5149 C5173 0.951 . S
H5150 C5175 0.951 . S
H5151 C5177 0.950 . S
H5152 C5178 0.950 . S
H5153 C5180 0.950 . S
H5154 C5183 0.950 . S
H5155 C5184 0.950 . S
H5156 C5186 0.950 . S
H5157 C5187 0.950 . S
C5158 H5140 0.951 . S
C5158 C5159 1.366 . S
C5158 C5160 1.388 . S
C5159 C5158 1.366 . S
C5159 C5163 1.385 . S
C5160 H5141 0.951 . S
C5160 C5158 1.388 . S
C5160 C5161 1.366 . S
C5161 C5160 1.366 . S
C5161 C5162 1.414 . S
C5161 C5164 1.499 . S
C5162 H5142 0.950 . S
C5162 C5161 1.414 . S
C5162 C5163 1.374 . S
C5163 H5143 0.950 . S
C5163 C5159 1.385 . S
C5163 C5162 1.374 . S
C5164 C5161 1.499 . S
C5164 C5165 1.373 . S
C5164 C5166 1.389 . S
C5165 H5144 0.950 . S
C5165 C5164 1.373 . S
C5165 C5181 1.377 . S
C5166 C5164 1.389 . S
C5166 C5167 1.524 . S
C5166 C5180 1.377 . S
C5167 C5166 1.524 . S
C5167 C5168 1.397 . S
C5167 C5172 1.363 . S
C5168 H5145 0.950 . S
C5168 C5167 1.397 . S
C5168 C5169 1.334 . S
C5169 H5146 0.950 . S
C5169 C5168 1.334 . S
C5169 C5170 1.287 . S
C5170 C5169 1.287 . S
C5170 C5171 1.524 . S
C5170 H5189 0.913 . S
C5171 H5147 0.950 . S
C5171 C5170 1.524 . S
C5171 C5172 1.415 . S
C5172 H5148 0.950 . S
C5172 C5167 1.363 . S
C5172 C5171 1.415 . S
C5173 H5149 0.951 . S
C5173 C5174 1.366 . S
C5173 C5175 1.388 . S
C5174 C5173 1.366 . S
C5174 C5178 1.385 . S
C5175 H5150 0.951 . S
C5175 C5173 1.388 . S
C5175 C5176 1.366 . S
C5176 C5175 1.366 . S
C5176 C5177 1.414 . S
C5176 C5179 1.499 . S
C5177 H5151 0.950 . S
C5177 C5176 1.414 . S
C5177 C5178 1.374 . S
C5178 H5152 0.950 . S
C5178 C5174 1.385 . S
C5178 C5177 1.374 . S
C5179 C5176 1.499 . S
C5179 C5180 1.373 . S
C5179 C5181 1.389 . S
C5180 H5153 0.950 . S
C5180 C5166 1.377 . S
C5180 C5179 1.373 . S
C5181 C5165 1.377 . S
C5181 C5179 1.389 . S
C5181 C5182 1.524 . S
C5182 C5181 1.524 . S
C5182 C5183 1.397 . S
C5182 C5187 1.363 . S
C5183 H5154 0.950 . S
C5183 C5182 1.397 . S
C5183 C5184 1.334 . S
C5184 H5155 0.950 . S
C5184 C5183 1.334 . S
C5184 C5185 1.287 . S
C5185 C5184 1.287 . S
C5185 C5186 1.524 . S
C5185 H5188 0.999 . S
C5186 H5156 0.950 . S
C5186 C5185 1.524 . S
C5186 C5187 1.415 . S
C5187 H5157 0.950 . S
C5187 C5182 1.363 . S
C5187 C5186 1.415 . S
H5188 C5185 0.999 . S
H5189 C5170 0.913 . S
H5190 C5208 0.951 . S
H5191 C5210 0.951 . S
H5192 C5212 0.950 . S
H5193 C5213 0.950 . S
H5194 C5215 0.950 . S
H5195 C5218 0.950 . S
H5196 C5219 0.950 . S
H5197 C5221 0.950 . S
H5198 C5222 0.950 . S
H5199 C5223 0.951 . S
H5200 C5225 0.951 . S
H5201 C5227 0.950 . S
H5202 C5228 0.950 . S
H5203 C5230 0.950 . S
H5204 C5233 0.950 . S
H5205 C5234 0.950 . S
H5206 C5236 0.950 . S
H5207 C5237 0.950 . S
C5208 H5190 0.951 . S
C5208 C5209 1.366 . S
C5208 C5210 1.388 . S
C5209 C5208 1.366 . S
C5209 C5213 1.385 . S
C5210 H5191 0.951 . S
C5210 C5208 1.388 . S
C5210 C5211 1.366 . S
C5211 C5210 1.366 . S
C5211 C5212 1.414 . S
C5211 C5214 1.499 . S
C5212 H5192 0.950 . S
C5212 C5211 1.414 . S
C5212 C5213 1.374 . S
C5213 H5193 0.950 . S
C5213 C5209 1.385 . S
C5213 C5212 1.374 . S
C5214 C5211 1.499 . S
C5214 C5215 1.373 . S
C5214 C5216 1.389 . S
C5215 H5194 0.950 . S
C5215 C5214 1.373 . S
C5215 C5231 1.377 . S
C5216 C5214 1.389 . S
C5216 C5217 1.524 . S
C5216 C5230 1.377 . S
C5217 C5216 1.524 . S
C5217 C5218 1.397 . S
C5217 C5222 1.363 . S
C5218 H5195 0.950 . S
C5218 C5217 1.397 . S
C5218 C5219 1.334 . S
C5219 H5196 0.950 . S
C5219 C5218 1.334 . S
C5219 C5220 1.287 . S
C5220 C5219 1.287 . S
C5220 C5221 1.524 . S
C5220 H5239 0.913 . S
C5221 H5197 0.950 . S
C5221 C5220 1.524 . S
C5221 C5222 1.415 . S
C5222 H5198 0.950 . S
C5222 C5217 1.363 . S
C5222 C5221 1.415 . S
C5223 H5199 0.951 . S
C5223 C5224 1.366 . S
C5223 C5225 1.388 . S
C5224 C5223 1.366 . S
C5224 C5228 1.385 . S
C5225 H5200 0.951 . S
C5225 C5223 1.388 . S
C5225 C5226 1.366 . S
C5226 C5225 1.366 . S
C5226 C5227 1.414 . S
C5226 C5229 1.499 . S
C5227 H5201 0.950 . S
C5227 C5226 1.414 . S
C5227 C5228 1.374 . S
C5228 H5202 0.950 . S
C5228 C5224 1.385 . S
C5228 C5227 1.374 . S
C5229 C5226 1.499 . S
C5229 C5230 1.373 . S
C5229 C5231 1.389 . S
C5230 H5203 0.950 . S
C5230 C5216 1.377 . S
C5230 C5229 1.373 . S
C5231 C5215 1.377 . S
C5231 C5229 1.389 . S
C5231 C5232 1.524 . S
C5232 C5231 1.524 . S
C5232 C5233 1.397 . S
C5232 C5237 1.363 . S
C5233 H5204 0.950 . S
C5233 C5232 1.397 . S
C5233 C5234 1.334 . S
C5234 H5205 0.950 . S
C5234 C5233 1.334 . S
C5234 C5235 1.287 . S
C5235 C5234 1.287 . S
C5235 C5236 1.524 . S
C5235 H5238 0.999 . S
C5236 H5206 0.950 . S
C5236 C5235 1.524 . S
C5236 C5237 1.415 . S
C5237 H5207 0.950 . S
C5237 C5232 1.363 . S
C5237 C5236 1.415 . S
H5238 C5235 0.999 . S
H5239 C5220 0.913 . S
H5240 C5258 0.951 . S
H5241 C5260 0.951 . S
H5242 C5262 0.950 . S
H5243 C5263 0.950 . S
H5244 C5265 0.950 . S
H5245 C5268 0.950 . S
H5246 C5269 0.950 . S
H5247 C5271 0.950 . S
H5248 C5272 0.950 . S
H5249 C5273 0.951 . S
H5250 C5275 0.951 . S
H5251 C5277 0.950 . S
H5252 C5278 0.950 . S
H5253 C5280 0.950 . S
H5254 C5283 0.950 . S
H5255 C5284 0.950 . S
H5256 C5286 0.950 . S
H5257 C5287 0.950 . S
C5258 H5240 0.951 . S
C5258 C5259 1.366 . S
C5258 C5260 1.388 . S
C5259 C5258 1.366 . S
C5259 C5263 1.385 . S
C5260 H5241 0.951 . S
C5260 C5258 1.388 . S
C5260 C5261 1.366 . S
C5261 C5260 1.366 . S
C5261 C5262 1.414 . S
C5261 C5264 1.499 . S
C5262 H5242 0.950 . S
C5262 C5261 1.414 . S
C5262 C5263 1.374 . S
C5263 H5243 0.950 . S
C5263 C5259 1.385 . S
C5263 C5262 1.374 . S
C5264 C5261 1.499 . S
C5264 C5265 1.373 . S
C5264 C5266 1.389 . S
C5265 H5244 0.950 . S
C5265 C5264 1.373 . S
C5265 C5281 1.377 . S
C5266 C5264 1.389 . S
C5266 C5267 1.524 . S
C5266 C5280 1.377 . S
C5267 C5266 1.524 . S
C5267 C5268 1.397 . S
C5267 C5272 1.363 . S
C5268 H5245 0.950 . S
C5268 C5267 1.397 . S
C5268 C5269 1.334 . S
C5269 H5246 0.950 . S
C5269 C5268 1.334 . S
C5269 C5270 1.287 . S
C5270 C5269 1.287 . S
C5270 C5271 1.524 . S
C5270 H5289 0.913 . S
C5271 H5247 0.950 . S
C5271 C5270 1.524 . S
C5271 C5272 1.415 . S
C5272 H5248 0.950 . S
C5272 C5267 1.363 . S
C5272 C5271 1.415 . S
C5273 H5249 0.951 . S
C5273 C5274 1.366 . S
C5273 C5275 1.388 . S
C5274 C5273 1.366 . S
C5274 C5278 1.385 . S
C5275 H5250 0.951 . S
C5275 C5273 1.388 . S
C5275 C5276 1.366 . S
C5276 C5275 1.366 . S
C5276 C5277 1.414 . S
C5276 C5279 1.499 . S
C5277 H5251 0.950 . S
C5277 C5276 1.414 . S
C5277 C5278 1.374 . S
C5278 H5252 0.950 . S
C5278 C5274 1.385 . S
C5278 C5277 1.374 . S
C5279 C5276 1.499 . S
C5279 C5280 1.373 . S
C5279 C5281 1.389 . S
C5280 H5253 0.950 . S
C5280 C5266 1.377 . S
C5280 C5279 1.373 . S
C5281 C5265 1.377 . S
C5281 C5279 1.389 . S
C5281 C5282 1.524 . S
C5282 C5281 1.524 . S
C5282 C5283 1.397 . S
C5282 C5287 1.363 . S
C5283 H5254 0.950 . S
C5283 C5282 1.397 . S
C5283 C5284 1.334 . S
C5284 H5255 0.950 . S
C5284 C5283 1.334 . S
C5284 C5285 1.287 . S
C5285 C5284 1.287 . S
C5285 C5286 1.524 . S
C5285 H5288 0.999 . S
C5286 H5256 0.950 . S
C5286 C5285 1.524 . S
C5286 C5287 1.415 . S
C5287 H5257 0.950 . S
C5287 C5282 1.363 . S
C5287 C5286 1.415 . S
H5288 C5285 0.999 . S
H5289 C5270 0.913 . S
H5290 C5308 0.951 . S
H5291 C5310 0.951 . S
H5292 C5312 0.950 . S
H5293 C5313 0.950 . S
H5294 C5315 0.950 . S
H5295 C5318 0.950 . S
H5296 C5319 0.950 . S
H5297 C5321 0.950 . S
H5298 C5322 0.950 . S
H5299 C5323 0.951 . S
H5300 C5325 0.951 . S
H5301 C5327 0.950 . S
H5302 C5328 0.950 . S
H5303 C5330 0.950 . S
H5304 C5333 0.950 . S
H5305 C5334 0.950 . S
H5306 C5336 0.950 . S
H5307 C5337 0.950 . S
C5308 H5290 0.951 . S
C5308 C5309 1.366 . S
C5308 C5310 1.388 . S
C5309 C5308 1.366 . S
C5309 C5313 1.385 . S
C5310 H5291 0.951 . S
C5310 C5308 1.388 . S
C5310 C5311 1.366 . S
C5311 C5310 1.366 . S
C5311 C5312 1.414 . S
C5311 C5314 1.499 . S
C5312 H5292 0.950 . S
C5312 C5311 1.414 . S
C5312 C5313 1.374 . S
C5313 H5293 0.950 . S
C5313 C5309 1.385 . S
C5313 C5312 1.374 . S
C5314 C5311 1.499 . S
C5314 C5315 1.373 . S
C5314 C5316 1.389 . S
C5315 H5294 0.950 . S
C5315 C5314 1.373 . S
C5315 C5331 1.377 . S
C5316 C5314 1.389 . S
C5316 C5317 1.524 . S
C5316 C5330 1.377 . S
C5317 C5316 1.524 . S
C5317 C5318 1.397 . S
C5317 C5322 1.363 . S
C5318 H5295 0.950 . S
C5318 C5317 1.397 . S
C5318 C5319 1.334 . S
C5319 H5296 0.950 . S
C5319 C5318 1.334 . S
C5319 C5320 1.287 . S
C5320 C5319 1.287 . S
C5320 C5321 1.524 . S
C5320 H5339 0.913 . S
C5321 H5297 0.950 . S
C5321 C5320 1.524 . S
C5321 C5322 1.415 . S
C5322 H5298 0.950 . S
C5322 C5317 1.363 . S
C5322 C5321 1.415 . S
C5323 H5299 0.951 . S
C5323 C5324 1.366 . S
C5323 C5325 1.388 . S
C5324 C5323 1.366 . S
C5324 C5328 1.385 . S
C5325 H5300 0.951 . S
C5325 C5323 1.388 . S
C5325 C5326 1.366 . S
C5326 C5325 1.366 . S
C5326 C5327 1.414 . S
C5326 C5329 1.499 . S
C5327 H5301 0.950 . S
C5327 C5326 1.414 . S
C5327 C5328 1.374 . S
C5328 H5302 0.950 . S
C5328 C5324 1.385 . S
C5328 C5327 1.374 . S
C5329 C5326 1.499 . S
C5329 C5330 1.373 . S
C5329 C5331 1.389 . S
C5330 H5303 0.950 . S
C5330 C5316 1.377 . S
C5330 C5329 1.373 . S
C5331 C5315 1.377 . S
C5331 C5329 1.389 . S
C5331 C5332 1.524 . S
C5332 C5331 1.524 . S
C5332 C5333 1.397 . S
C5332 C5337 1.363 . S
C5333 H5304 0.950 . S
C5333 C5332 1.397 . S
C5333 C5334 1.334 . S
C5334 H5305 0.950 . S
C5334 C5333 1.334 . S
C5334 C5335 1.287 . S
C5335 C5334 1.287 . S
C5335 C5336 1.524 . S
C5335 H5338 0.999 . S
C5336 H5306 0.950 . S
C5336 C5335 1.524 . S
C5336 C5337 1.415 . S
C5337 H5307 0.950 . S
C5337 C5332 1.363 . S
C5337 C5336 1.415 . S
H5338 C5335 0.999 . S
H5339 C5320 0.913 . S
H5340 C5358 0.951 . S
H5341 C5360 0.951 . S
H5342 C5362 0.950 . S
H5343 C5363 0.950 . S
H5344 C5365 0.950 . S
H5345 C5368 0.950 . S
H5346 C5369 0.950 . S
H5347 C5371 0.950 . S
H5348 C5372 0.950 . S
H5349 C5373 0.951 . S
H5350 C5375 0.951 . S
H5351 C5377 0.950 . S
H5352 C5378 0.950 . S
H5353 C5380 0.950 . S
H5354 C5383 0.950 . S
H5355 C5384 0.950 . S
H5356 C5386 0.950 . S
H5357 C5387 0.950 . S
C5358 H5340 0.951 . S
C5358 C5359 1.366 . S
C5358 C5360 1.388 . S
C5359 C5358 1.366 . S
C5359 C5363 1.385 . S
C5360 H5341 0.951 . S
C5360 C5358 1.388 . S
C5360 C5361 1.366 . S
C5361 C5360 1.366 . S
C5361 C5362 1.414 . S
C5361 C5364 1.499 . S
C5362 H5342 0.950 . S
C5362 C5361 1.414 . S
C5362 C5363 1.374 . S
C5363 H5343 0.950 . S
C5363 C5359 1.385 . S
C5363 C5362 1.374 . S
C5364 C5361 1.499 . S
C5364 C5365 1.373 . S
C5364 C5366 1.389 . S
C5365 H5344 0.950 . S
C5365 C5364 1.373 . S
C5365 C5381 1.377 . S
C5366 C5364 1.389 . S
C5366 C5367 1.524 . S
C5366 C5380 1.377 . S
C5367 C5366 1.524 . S
C5367 C5368 1.397 . S
C5367 C5372 1.363 . S
C5368 H5345 0.950 . S
C5368 C5367 1.397 . S
C5368 C5369 1.334 . S
C5369 H5346 0.950 . S
C5369 C5368 1.334 . S
C5369 C5370 1.287 . S
C5370 C5369 1.287 . S
C5370 C5371 1.524 . S
C5370 H5389 0.913 . S
C5371 H5347 0.950 . S
C5371 C5370 1.524 . S
C5371 C5372 1.415 . S
C5372 H5348 0.950 . S
C5372 C5367 1.363 . S
C5372 C5371 1.415 . S
C5373 H5349 0.951 . S
C5373 C5374 1.366 . S
C5373 C5375 1.388 . S
C5374 C5373 1.366 . S
C5374 C5378 1.385 . S
C5375 H5350 0.951 . S
C5375 C5373 1.388 . S
C5375 C5376 1.366 . S
C5376 C5375 1.366 . S
C5376 C5377 1.414 . S
C5376 C5379 1.499 . S
C5377 H5351 0.950 . S
C5377 C5376 1.414 . S
C5377 C5378 1.374 . S
C5378 H5352 0.950 . S
C5378 C5374 1.385 . S
C5378 C5377 1.374 . S
C5379 C5376 1.499 . S
C5379 C5380 1.373 . S
C5379 C5381 1.389 . S
C5380 H5353 0.950 . S
C5380 C5366 1.377 . S
C5380 C5379 1.373 . S
C5381 C5365 1.377 . S
C5381 C5379 1.389 . S
C5381 C5382 1.524 . S
C5382 C5381 1.524 . S
C5382 C5383 1.397 . S
C5382 C5387 1.363 . S
C5383 H5354 0.950 . S
C5383 C5382 1.397 . S
C5383 C5384 1.334 . S
C5384 H5355 0.950 . S
C5384 C5383 1.334 . S
C5384 C5385 1.287 . S
C5385 C5384 1.287 . S
C5385 C5386 1.524 . S
C5385 H5388 0.999 . S
C5386 H5356 0.950 . S
C5386 C5385 1.524 . S
C5386 C5387 1.415 . S
C5387 H5357 0.950 . S
C5387 C5382 1.363 . S
C5387 C5386 1.415 . S
H5388 C5385 0.999 . S
H5389 C5370 0.913 . S
H5390 C5408 0.951 . S
H5391 C5410 0.951 . S
H5392 C5412 0.950 . S
H5393 C5413 0.950 . S
H5394 C5415 0.950 . S
H5395 C5418 0.950 . S
H5396 C5419 0.950 . S
H5397 C5421 0.950 . S
H5398 C5422 0.950 . S
H5399 C5423 0.951 . S
H5400 C5425 0.951 . S
H5401 C5427 0.950 . S
H5402 C5428 0.950 . S
H5403 C5430 0.950 . S
H5404 C5433 0.950 . S
H5405 C5434 0.950 . S
H5406 C5436 0.950 . S
H5407 C5437 0.950 . S
C5408 H5390 0.951 . S
C5408 C5409 1.366 . S
C5408 C5410 1.388 . S
C5409 C5408 1.366 . S
C5409 C5413 1.385 . S
C5410 H5391 0.951 . S
C5410 C5408 1.388 . S
C5410 C5411 1.366 . S
C5411 C5410 1.366 . S
C5411 C5412 1.414 . S
C5411 C5414 1.499 . S
C5412 H5392 0.950 . S
C5412 C5411 1.414 . S
C5412 C5413 1.374 . S
C5413 H5393 0.950 . S
C5413 C5409 1.385 . S
C5413 C5412 1.374 . S
C5414 C5411 1.499 . S
C5414 C5415 1.373 . S
C5414 C5416 1.389 . S
C5415 H5394 0.950 . S
C5415 C5414 1.373 . S
C5415 C5431 1.377 . S
C5416 C5414 1.389 . S
C5416 C5417 1.524 . S
C5416 C5430 1.377 . S
C5417 C5416 1.524 . S
C5417 C5418 1.397 . S
C5417 C5422 1.363 . S
C5418 H5395 0.950 . S
C5418 C5417 1.397 . S
C5418 C5419 1.334 . S
C5419 H5396 0.950 . S
C5419 C5418 1.334 . S
C5419 C5420 1.287 . S
C5420 C5419 1.287 . S
C5420 C5421 1.524 . S
C5420 H5439 0.913 . S
C5421 H5397 0.950 . S
C5421 C5420 1.524 . S
C5421 C5422 1.415 . S
C5422 H5398 0.950 . S
C5422 C5417 1.363 . S
C5422 C5421 1.415 . S
C5423 H5399 0.951 . S
C5423 C5424 1.366 . S
C5423 C5425 1.388 . S
C5424 C5423 1.366 . S
C5424 C5428 1.385 . S
C5425 H5400 0.951 . S
C5425 C5423 1.388 . S
C5425 C5426 1.366 . S
C5426 C5425 1.366 . S
C5426 C5427 1.414 . S
C5426 C5429 1.499 . S
C5427 H5401 0.950 . S
C5427 C5426 1.414 . S
C5427 C5428 1.374 . S
C5428 H5402 0.950 . S
C5428 C5424 1.385 . S
C5428 C5427 1.374 . S
C5429 C5426 1.499 . S
C5429 C5430 1.373 . S
C5429 C5431 1.389 . S
C5430 H5403 0.950 . S
C5430 C5416 1.377 . S
C5430 C5429 1.373 . S
C5431 C5415 1.377 . S
C5431 C5429 1.389 . S
C5431 C5432 1.524 . S
C5432 C5431 1.524 . S
C5432 C5433 1.397 . S
C5432 C5437 1.363 . S
C5433 H5404 0.950 . S
C5433 C5432 1.397 . S
C5433 C5434 1.334 . S
C5434 H5405 0.950 . S
C5434 C5433 1.334 . S
C5434 C5435 1.287 . S
C5435 C5434 1.287 . S
C5435 C5436 1.524 . S
C5435 H5438 0.999 . S
C5436 H5406 0.950 . S
C5436 C5435 1.524 . S
C5436 C5437 1.415 . S
C5437 H5407 0.950 . S
C5437 C5432 1.363 . S
C5437 C5436 1.415 . S
H5438 C5435 0.999 . S
H5439 C5420 0.913 . S
H5440 C5458 0.951 . S
H5441 C5460 0.951 . S
H5442 C5462 0.950 . S
H5443 C5463 0.950 . S
H5444 C5465 0.950 . S
H5445 C5468 0.950 . S
H5446 C5469 0.950 . S
H5447 C5471 0.950 . S
H5448 C5472 0.950 . S
H5449 C5473 0.951 . S
H5450 C5475 0.951 . S
H5451 C5477 0.950 . S
H5452 C5478 0.950 . S
H5453 C5480 0.950 . S
H5454 C5483 0.950 . S
H5455 C5484 0.950 . S
H5456 C5486 0.950 . S
H5457 C5487 0.950 . S
C5458 H5440 0.951 . S
C5458 C5459 1.366 . S
C5458 C5460 1.388 . S
C5459 C5458 1.366 . S
C5459 C5463 1.385 . S
C5460 H5441 0.951 . S
C5460 C5458 1.388 . S
C5460 C5461 1.366 . S
C5461 C5460 1.366 . S
C5461 C5462 1.414 . S
C5461 C5464 1.499 . S
C5462 H5442 0.950 . S
C5462 C5461 1.414 . S
C5462 C5463 1.374 . S
C5463 H5443 0.950 . S
C5463 C5459 1.385 . S
C5463 C5462 1.374 . S
C5464 C5461 1.499 . S
C5464 C5465 1.373 . S
C5464 C5466 1.389 . S
C5465 H5444 0.950 . S
C5465 C5464 1.373 . S
C5465 C5481 1.377 . S
C5466 C5464 1.389 . S
C5466 C5467 1.524 . S
C5466 C5480 1.377 . S
C5467 C5466 1.524 . S
C5467 C5468 1.397 . S
C5467 C5472 1.363 . S
C5468 H5445 0.950 . S
C5468 C5467 1.397 . S
C5468 C5469 1.334 . S
C5469 H5446 0.950 . S
C5469 C5468 1.334 . S
C5469 C5470 1.287 . S
C5470 C5469 1.287 . S
C5470 C5471 1.524 . S
C5470 H5489 0.913 . S
C5471 H5447 0.950 . S
C5471 C5470 1.524 . S
C5471 C5472 1.415 . S
C5472 H5448 0.950 . S
C5472 C5467 1.363 . S
C5472 C5471 1.415 . S
C5473 H5449 0.951 . S
C5473 C5474 1.366 . S
C5473 C5475 1.388 . S
C5474 C5473 1.366 . S
C5474 C5478 1.385 . S
C5475 H5450 0.951 . S
C5475 C5473 1.388 . S
C5475 C5476 1.366 . S
C5476 C5475 1.366 . S
C5476 C5477 1.414 . S
C5476 C5479 1.499 . S
C5477 H5451 0.950 . S
C5477 C5476 1.414 . S
C5477 C5478 1.374 . S
C5478 H5452 0.950 . S
C5478 C5474 1.385 . S
C5478 C5477 1.374 . S
C5479 C5476 1.499 . S
C5479 C5480 1.373 . S
C5479 C5481 1.389 . S
C5480 H5453 0.950 . S
C5480 C5466 1.377 . S
C5480 C5479 1.373 . S
C5481 C5465 1.377 . S
C5481 C5479 1.389 . S
C5481 C5482 1.524 . S
C5482 C5481 1.524 . S
C5482 C5483 1.397 . S
C5482 C5487 1.363 . S
C5483 H5454 0.950 . S
C5483 C5482 1.397 . S
C5483 C5484 1.334 . S
C5484 H5455 0.950 . S
C5484 C5483 1.334 . S
C5484 C5485 1.287 . S
C5485 C5484 1.287 . S
C5485 C5486 1.524 . S
C5485 H5488 0.999 . S
C5486 H5456 0.950 . S
C5486 C5485 1.524 . S
C5486 C5487 1.415 . S
C5487 H5457 0.950 . S
C5487 C5482 1.363 . S
C5487 C5486 1.415 . S
H5488 C5485 0.999 . S
H5489 C5470 0.913 . S
H5490 C5508 0.951 . S
H5491 C5510 0.951 . S
H5492 C5512 0.950 . S
H5493 C5513 0.950 . S
H5494 C5515 0.950 . S
H5495 C5518 0.950 . S
H5496 C5519 0.950 . S
H5497 C5521 0.950 . S
H5498 C5522 0.950 . S
H5499 C5523 0.951 . S
H5500 C5525 0.951 . S
H5501 C5527 0.950 . S
H5502 C5528 0.950 . S
H5503 C5530 0.950 . S
H5504 C5533 0.950 . S
H5505 C5534 0.950 . S
H5506 C5536 0.950 . S
H5507 C5537 0.950 . S
C5508 H5490 0.951 . S
C5508 C5509 1.366 . S
C5508 C5510 1.388 . S
C5509 C5508 1.366 . S
C5509 C5513 1.385 . S
C5510 H5491 0.951 . S
C5510 C5508 1.388 . S
C5510 C5511 1.366 . S
C5511 C5510 1.366 . S
C5511 C5512 1.414 . S
C5511 C5514 1.499 . S
C5512 H5492 0.950 . S
C5512 C5511 1.414 . S
C5512 C5513 1.374 . S
C5513 H5493 0.950 . S
C5513 C5509 1.385 . S
C5513 C5512 1.374 . S
C5514 C5511 1.499 . S
C5514 C5515 1.373 . S
C5514 C5516 1.389 . S
C5515 H5494 0.950 . S
C5515 C5514 1.373 . S
C5515 C5531 1.377 . S
C5516 C5514 1.389 . S
C5516 C5517 1.524 . S
C5516 C5530 1.377 . S
C5517 C5516 1.524 . S
C5517 C5518 1.397 . S
C5517 C5522 1.363 . S
C5518 H5495 0.950 . S
C5518 C5517 1.397 . S
C5518 C5519 1.334 . S
C5519 H5496 0.950 . S
C5519 C5518 1.334 . S
C5519 C5520 1.287 . S
C5520 C5519 1.287 . S
C5520 C5521 1.524 . S
C5520 H5539 0.913 . S
C5521 H5497 0.950 . S
C5521 C5520 1.524 . S
C5521 C5522 1.415 . S
C5522 H5498 0.950 . S
C5522 C5517 1.363 . S
C5522 C5521 1.415 . S
C5523 H5499 0.951 . S
C5523 C5524 1.366 . S
C5523 C5525 1.388 . S
C5524 C5523 1.366 . S
C5524 C5528 1.385 . S
C5525 H5500 0.951 . S
C5525 C5523 1.388 . S
C5525 C5526 1.366 . S
C5526 C5525 1.366 . S
C5526 C5527 1.414 . S
C5526 C5529 1.499 . S
C5527 H5501 0.950 . S
C5527 C5526 1.414 . S
C5527 C5528 1.374 . S
C5528 H5502 0.950 . S
C5528 C5524 1.385 . S
C5528 C5527 1.374 . S
C5529 C5526 1.499 . S
C5529 C5530 1.373 . S
C5529 C5531 1.389 . S
C5530 H5503 0.950 . S
C5530 C5516 1.377 . S
C5530 C5529 1.373 . S
C5531 C5515 1.377 . S
C5531 C5529 1.389 . S
C5531 C5532 1.524 . S
C5532 C5531 1.524 . S
C5532 C5533 1.397 . S
C5532 C5537 1.363 . S
C5533 H5504 0.950 . S
C5533 C5532 1.397 . S
C5533 C5534 1.334 . S
C5534 H5505 0.950 . S
C5534 C5533 1.334 . S
C5534 C5535 1.287 . S
C5535 C5534 1.287 . S
C5535 C5536 1.524 . S
C5535 H5538 0.999 . S
C5536 H5506 0.950 . S
C5536 C5535 1.524 . S
C5536 C5537 1.415 . S
C5537 H5507 0.950 . S
C5537 C5532 1.363 . S
C5537 C5536 1.415 . S
H5538 C5535 0.999 . S
H5539 C5520 0.913 . S
H5540 C5558 0.951 . S
H5541 C5560 0.951 . S
H5542 C5562 0.950 . S
H5543 C5563 0.950 . S
H5544 C5565 0.950 . S
H5545 C5568 0.950 . S
H5546 C5569 0.950 . S
H5547 C5571 0.950 . S
H5548 C5572 0.950 . S
H5549 C5573 0.951 . S
H5550 C5575 0.951 . S
H5551 C5577 0.950 . S
H5552 C5578 0.950 . S
H5553 C5580 0.950 . S
H5554 C5583 0.950 . S
H5555 C5584 0.950 . S
H5556 C5586 0.950 . S
H5557 C5587 0.950 . S
C5558 H5540 0.951 . S
C5558 C5559 1.366 . S
C5558 C5560 1.388 . S
C5559 C5558 1.366 . S
C5559 C5563 1.385 . S
C5560 H5541 0.951 . S
C5560 C5558 1.388 . S
C5560 C5561 1.366 . S
C5561 C5560 1.366 . S
C5561 C5562 1.414 . S
C5561 C5564 1.499 . S
C5562 H5542 0.950 . S
C5562 C5561 1.414 . S
C5562 C5563 1.374 . S
C5563 H5543 0.950 . S
C5563 C5559 1.385 . S
C5563 C5562 1.374 . S
C5564 C5561 1.499 . S
C5564 C5565 1.373 . S
C5564 C5566 1.389 . S
C5565 H5544 0.950 . S
C5565 C5564 1.373 . S
C5565 C5581 1.377 . S
C5566 C5564 1.389 . S
C5566 C5567 1.524 . S
C5566 C5580 1.377 . S
C5567 C5566 1.524 . S
C5567 C5568 1.397 . S
C5567 C5572 1.363 . S
C5568 H5545 0.950 . S
C5568 C5567 1.397 . S
C5568 C5569 1.334 . S
C5569 H5546 0.950 . S
C5569 C5568 1.334 . S
C5569 C5570 1.287 . S
C5570 C5569 1.287 . S
C5570 C5571 1.524 . S
C5570 H5589 0.913 . S
C5571 H5547 0.950 . S
C5571 C5570 1.524 . S
C5571 C5572 1.415 . S
C5572 H5548 0.950 . S
C5572 C5567 1.363 . S
C5572 C5571 1.415 . S
C5573 H5549 0.951 . S
C5573 C5574 1.366 . S
C5573 C5575 1.388 . S
C5574 C5573 1.366 . S
C5574 C5578 1.385 . S
C5575 H5550 0.951 . S
C5575 C5573 1.388 . S
C5575 C5576 1.366 . S
C5576 C5575 1.366 . S
C5576 C5577 1.414 . S
C5576 C5579 1.499 . S
C5577 H5551 0.950 . S
C5577 C5576 1.414 . S
C5577 C5578 1.374 . S
C5578 H5552 0.950 . S
C5578 C5574 1.385 . S
C5578 C5577 1.374 . S
C5579 C5576 1.499 . S
C5579 C5580 1.373 . S
C5579 C5581 1.389 . S
C5580 H5553 0.950 . S
C5580 C5566 1.377 . S
C5580 C5579 1.373 . S
C5581 C5565 1.377 . S
C5581 C5579 1.389 . S
C5581 C5582 1.524 . S
C5582 C5581 1.524 . S
C5582 C5583 1.397 . S
C5582 C5587 1.363 . S
C5583 H5554 0.950 . S
C5583 C5582 1.397 . S
C5583 C5584 1.334 . S
C5584 H5555 0.950 . S
C5584 C5583 1.334 . S
C5584 C5585 1.287 . S
C5585 C5584 1.287 . S
C5585 C5586 1.524 . S
C5585 H5588 0.999 . S
C5586 H5556 0.950 . S
C5586 C5585 1.524 . S
C5586 C5587 1.415 . S
C5587 H5557 0.950 . S
C5587 C5582 1.363 . S
C5587 C5586 1.415 . S
H5588 C5585 0.999 . S
H5589 C5570 0.913 . S
H5590 C5608 0.951 . S
H5591 C5610 0.951 . S
H5592 C5612 0.950 . S
H5593 C5613 0.950 . S
H5594 C5615 0.950 . S
H5595 C5618 0.950 . S
H5596 C5619 0.950 . S
H5597 C5621 0.950 . S
H5598 C5622 0.950 . S
H5599 C5623 0.951 . S
H5600 C5625 0.951 . S
H5601 C5627 0.950 . S
H5602 C5628 0.950 . S
H5603 C5630 0.950 . S
H5604 C5633 0.950 . S
H5605 C5634 0.950 . S
H5606 C5636 0.950 . S
H5607 C5637 0.950 . S
C5608 H5590 0.951 . S
C5608 C5609 1.366 . S
C5608 C5610 1.388 . S
C5609 C5608 1.366 . S
C5609 C5613 1.385 . S
C5610 H5591 0.951 . S
C5610 C5608 1.388 . S
C5610 C5611 1.366 . S
C5611 C5610 1.366 . S
C5611 C5612 1.414 . S
C5611 C5614 1.499 . S
C5612 H5592 0.950 . S
C5612 C5611 1.414 . S
C5612 C5613 1.374 . S
C5613 H5593 0.950 . S
C5613 C5609 1.385 . S
C5613 C5612 1.374 . S
C5614 C5611 1.499 . S
C5614 C5615 1.373 . S
C5614 C5616 1.389 . S
C5615 H5594 0.950 . S
C5615 C5614 1.373 . S
C5615 C5631 1.377 . S
C5616 C5614 1.389 . S
C5616 C5617 1.524 . S
C5616 C5630 1.377 . S
C5617 C5616 1.524 . S
C5617 C5618 1.397 . S
C5617 C5622 1.363 . S
C5618 H5595 0.950 . S
C5618 C5617 1.397 . S
C5618 C5619 1.334 . S
C5619 H5596 0.950 . S
C5619 C5618 1.334 . S
C5619 C5620 1.287 . S
C5620 C5619 1.287 . S
C5620 C5621 1.524 . S
C5620 H5639 0.913 . S
C5621 H5597 0.950 . S
C5621 C5620 1.524 . S
C5621 C5622 1.415 . S
C5622 H5598 0.950 . S
C5622 C5617 1.363 . S
C5622 C5621 1.415 . S
C5623 H5599 0.951 . S
C5623 C5624 1.366 . S
C5623 C5625 1.388 . S
C5624 C5623 1.366 . S
C5624 C5628 1.385 . S
C5625 H5600 0.951 . S
C5625 C5623 1.388 . S
C5625 C5626 1.366 . S
C5626 C5625 1.366 . S
C5626 C5627 1.414 . S
C5626 C5629 1.499 . S
C5627 H5601 0.950 . S
C5627 C5626 1.414 . S
C5627 C5628 1.374 . S
C5628 H5602 0.950 . S
C5628 C5624 1.385 . S
C5628 C5627 1.374 . S
C5629 C5626 1.499 . S
C5629 C5630 1.373 . S
C5629 C5631 1.389 . S
C5630 H5603 0.950 . S
C5630 C5616 1.377 . S
C5630 C5629 1.373 . S
C5631 C5615 1.377 . S
C5631 C5629 1.389 . S
C5631 C5632 1.524 . S
C5632 C5631 1.524 . S
C5632 C5633 1.397 . S
C5632 C5637 1.363 . S
C5633 H5604 0.950 . S
C5633 C5632 1.397 . S
C5633 C5634 1.334 . S
C5634 H5605 0.950 . S
C5634 C5633 1.334 . S
C5634 C5635 1.287 . S
C5635 C5634 1.287 . S
C5635 C5636 1.524 . S
C5635 H5638 0.999 . S
C5636 H5606 0.950 . S
C5636 C5635 1.524 . S
C5636 C5637 1.415 . S
C5637 H5607 0.950 . S
C5637 C5632 1.363 . S
C5637 C5636 1.415 . S
H5638 C5635 0.999 . S
H5639 C5620 0.913 . S
H5640 C5658 0.951 . S
H5641 C5660 0.951 . S
H5642 C5662 0.950 . S
H5643 C5663 0.950 . S
H5644 C5665 0.950 . S
H5645 C5668 0.950 . S
H5646 C5669 0.950 . S
H5647 C5671 0.950 . S
H5648 C5672 0.950 . S
H5649 C5673 0.951 . S
H5650 C5675 0.951 . S
H5651 C5677 0.950 . S
H5652 C5678 0.950 . S
H5653 C5680 0.950 . S
H5654 C5683 0.950 . S
H5655 C5684 0.950 . S
H5656 C5686 0.950 . S
H5657 C5687 0.950 . S
C5658 H5640 0.951 . S
C5658 C5659 1.366 . S
C5658 C5660 1.388 . S
C5659 C5658 1.366 . S
C5659 C5663 1.385 . S
C5660 H5641 0.951 . S
C5660 C5658 1.388 . S
C5660 C5661 1.366 . S
C5661 C5660 1.366 . S
C5661 C5662 1.414 . S
C5661 C5664 1.499 . S
C5662 H5642 0.950 . S
C5662 C5661 1.414 . S
C5662 C5663 1.374 . S
C5663 H5643 0.950 . S
C5663 C5659 1.385 . S
C5663 C5662 1.374 . S
C5664 C5661 1.499 . S
C5664 C5665 1.373 . S
C5664 C5666 1.389 . S
C5665 H5644 0.950 . S
C5665 C5664 1.373 . S
C5665 C5681 1.377 . S
C5666 C5664 1.389 . S
C5666 C5667 1.524 . S
C5666 C5680 1.377 . S
C5667 C5666 1.524 . S
C5667 C5668 1.397 . S
C5667 C5672 1.363 . S
C5668 H5645 0.950 . S
C5668 C5667 1.397 . S
C5668 C5669 1.334 . S
C5669 H5646 0.950 . S
C5669 C5668 1.334 . S
C5669 C5670 1.287 . S
C5670 C5669 1.287 . S
C5670 C5671 1.524 . S
C5670 H5689 0.913 . S
C5671 H5647 0.950 . S
C5671 C5670 1.524 . S
C5671 C5672 1.415 . S
C5672 H5648 0.950 . S
C5672 C5667 1.363 . S
C5672 C5671 1.415 . S
C5673 H5649 0.951 . S
C5673 C5674 1.366 . S
C5673 C5675 1.388 . S
C5674 C5673 1.366 . S
C5674 C5678 1.385 . S
C5675 H5650 0.951 . S
C5675 C5673 1.388 . S
C5675 C5676 1.366 . S
C5676 C5675 1.366 . S
C5676 C5677 1.414 . S
C5676 C5679 1.499 . S
C5677 H5651 0.950 . S
C5677 C5676 1.414 . S
C5677 C5678 1.374 . S
C5678 H5652 0.950 . S
C5678 C5674 1.385 . S
C5678 C5677 1.374 . S
C5679 C5676 1.499 . S
C5679 C5680 1.373 . S
C5679 C5681 1.389 . S
C5680 H5653 0.950 . S
C5680 C5666 1.377 . S
C5680 C5679 1.373 . S
C5681 C5665 1.377 . S
C5681 C5679 1.389 . S
C5681 C5682 1.524 . S
C5682 C5681 1.524 . S
C5682 C5683 1.397 . S
C5682 C5687 1.363 . S
C5683 H5654 0.950 . S
C5683 C5682 1.397 . S
C5683 C5684 1.334 . S
C5684 H5655 0.950 . S
C5684 C5683 1.334 . S
C5684 C5685 1.287 . S
C5685 C5684 1.287 . S
C5685 C5686 1.524 . S
C5685 H5688 0.999 . S
C5686 H5656 0.950 . S
C5686 C5685 1.524 . S
C5686 C5687 1.415 . S
C5687 H5657 0.950 . S
C5687 C5682 1.363 . S
C5687 C5686 1.415 . S
H5688 C5685 0.999 . S
H5689 C5670 0.913 . S
H5690 C5708 0.951 . S
H5691 C5710 0.951 . S
H5692 C5712 0.950 . S
H5693 C5713 0.950 . S
H5694 C5715 0.950 . S
H5695 C5718 0.950 . S
H5696 C5719 0.950 . S
H5697 C5721 0.950 . S
H5698 C5722 0.950 . S
H5699 C5723 0.951 . S
H5700 C5725 0.951 . S
H5701 C5727 0.950 . S
H5702 C5728 0.950 . S
H5703 C5730 0.950 . S
H5704 C5733 0.950 . S
H5705 C5734 0.950 . S
H5706 C5736 0.950 . S
H5707 C5737 0.950 . S
C5708 H5690 0.951 . S
C5708 C5709 1.366 . S
C5708 C5710 1.388 . S
C5709 C5708 1.366 . S
C5709 C5713 1.385 . S
C5710 H5691 0.951 . S
C5710 C5708 1.388 . S
C5710 C5711 1.366 . S
C5711 C5710 1.366 . S
C5711 C5712 1.414 . S
C5711 C5714 1.499 . S
C5712 H5692 0.950 . S
C5712 C5711 1.414 . S
C5712 C5713 1.374 . S
C5713 H5693 0.950 . S
C5713 C5709 1.385 . S
C5713 C5712 1.374 . S
C5714 C5711 1.499 . S
C5714 C5715 1.373 . S
C5714 C5716 1.389 . S
C5715 H5694 0.950 . S
C5715 C5714 1.373 . S
C5715 C5731 1.377 . S
C5716 C5714 1.389 . S
C5716 C5717 1.524 . S
C5716 C5730 1.377 . S
C5717 C5716 1.524 . S
C5717 C5718 1.397 . S
C5717 C5722 1.363 . S
C5718 H5695 0.950 . S
C5718 C5717 1.397 . S
C5718 C5719 1.334 . S
C5719 H5696 0.950 . S
C5719 C5718 1.334 . S
C5719 C5720 1.287 . S
C5720 C5719 1.287 . S
C5720 C5721 1.524 . S
C5720 H5739 0.913 . S
C5721 H5697 0.950 . S
C5721 C5720 1.524 . S
C5721 C5722 1.415 . S
C5722 H5698 0.950 . S
C5722 C5717 1.363 . S
C5722 C5721 1.415 . S
C5723 H5699 0.951 . S
C5723 C5724 1.366 . S
C5723 C5725 1.388 . S
C5724 C5723 1.366 . S
C5724 C5728 1.385 . S
C5725 H5700 0.951 . S
C5725 C5723 1.388 . S
C5725 C5726 1.366 . S
C5726 C5725 1.366 . S
C5726 C5727 1.414 . S
C5726 C5729 1.499 . S
C5727 H5701 0.950 . S
C5727 C5726 1.414 . S
C5727 C5728 1.374 . S
C5728 H5702 0.950 . S
C5728 C5724 1.385 . S
C5728 C5727 1.374 . S
C5729 C5726 1.499 . S
C5729 C5730 1.373 . S
C5729 C5731 1.389 . S
C5730 H5703 0.950 . S
C5730 C5716 1.377 . S
C5730 C5729 1.373 . S
C5731 C5715 1.377 . S
C5731 C5729 1.389 . S
C5731 C5732 1.524 . S
C5732 C5731 1.524 . S
C5732 C5733 1.397 . S
C5732 C5737 1.363 . S
C5733 H5704 0.950 . S
C5733 C5732 1.397 . S
C5733 C5734 1.334 . S
C5734 H5705 0.950 . S
C5734 C5733 1.334 . S
C5734 C5735 1.287 . S
C5735 C5734 1.287 . S
C5735 C5736 1.524 . S
C5735 H5738 0.999 . S
C5736 H5706 0.950 . S
C5736 C5735 1.524 . S
C5736 C5737 1.415 . S
C5737 H5707 0.950 . S
C5737 C5732 1.363 . S
C5737 C5736 1.415 . S
H5738 C5735 0.999 . S
H5739 C5720 0.913 . S
H5740 C5758 0.951 . S
H5741 C5760 0.951 . S
H5742 C5762 0.950 . S
H5743 C5763 0.950 . S
H5744 C5765 0.950 . S
H5745 C5768 0.950 . S
H5746 C5769 0.950 . S
H5747 C5771 0.950 . S
H5748 C5772 0.950 . S
H5749 C5773 0.951 . S
H5750 C5775 0.951 . S
H5751 C5777 0.950 . S
H5752 C5778 0.950 . S
H5753 C5780 0.950 . S
H5754 C5783 0.950 . S
H5755 C5784 0.950 . S
H5756 C5786 0.950 . S
H5757 C5787 0.950 . S
C5758 H5740 0.951 . S
C5758 C5759 1.366 . S
C5758 C5760 1.388 . S
C5759 C5758 1.366 . S
C5759 C5763 1.385 . S
C5760 H5741 0.951 . S
C5760 C5758 1.388 . S
C5760 C5761 1.366 . S
C5761 C5760 1.366 . S
C5761 C5762 1.414 . S
C5761 C5764 1.499 . S
C5762 H5742 0.950 . S
C5762 C5761 1.414 . S
C5762 C5763 1.374 . S
C5763 H5743 0.950 . S
C5763 C5759 1.385 . S
C5763 C5762 1.374 . S
C5764 C5761 1.499 . S
C5764 C5765 1.373 . S
C5764 C5766 1.389 . S
C5765 H5744 0.950 . S
C5765 C5764 1.373 . S
C5765 C5781 1.377 . S
C5766 C5764 1.389 . S
C5766 C5767 1.524 . S
C5766 C5780 1.377 . S
C5767 C5766 1.524 . S
C5767 C5768 1.397 . S
C5767 C5772 1.363 . S
C5768 H5745 0.950 . S
C5768 C5767 1.397 . S
C5768 C5769 1.334 . S
C5769 H5746 0.950 . S
C5769 C5768 1.334 . S
C5769 C5770 1.287 . S
C5770 C5769 1.287 . S
C5770 C5771 1.524 . S
C5770 H5789 0.913 . S
C5771 H5747 0.950 . S
C5771 C5770 1.524 . S
C5771 C5772 1.415 . S
C5772 H5748 0.950 . S
C5772 C5767 1.363 . S
C5772 C5771 1.415 . S
C5773 H5749 0.951 . S
C5773 C5774 1.366 . S
C5773 C5775 1.388 . S
C5774 C5773 1.366 . S
C5774 C5778 1.385 . S
C5775 H5750 0.951 . S
C5775 C5773 1.388 . S
C5775 C5776 1.366 . S
C5776 C5775 1.366 . S
C5776 C5777 1.414 . S
C5776 C5779 1.499 . S
C5777 H5751 0.950 . S
C5777 C5776 1.414 . S
C5777 C5778 1.374 . S
C5778 H5752 0.950 . S
C5778 C5774 1.385 . S
C5778 C5777 1.374 . S
C5779 C5776 1.499 . S
C5779 C5780 1.373 . S
C5779 C5781 1.389 . S
C5780 H5753 0.950 . S
C5780 C5766 1.377 . S
C5780 C5779 1.373 . S
C5781 C5765 1.377 . S
C5781 C5779 1.389 . S
C5781 C5782 1.524 . S
C5782 C5781 1.524 . S
C5782 C5783 1.397 . S
C5782 C5787 1.363 . S
C5783 H5754 0.950 . S
C5783 C5782 1.397 . S
C5783 C5784 1.334 . S
C5784 H5755 0.950 . S
C5784 C5783 1.334 . S
C5784 C5785 1.287 . S
C5785 C5784 1.287 . S
C5785 C5786 1.524 . S
C5785 H5788 0.999 . S
C5786 H5756 0.950 . S
C5786 C5785 1.524 . S
C5786 C5787 1.415 . S
C5787 H5757 0.950 . S
C5787 C5782 1.363 . S
C5787 C5786 1.415 . S
H5788 C5785 0.999 . S
H5789 C5770 0.913 . S
H5790 C5808 0.951 . S
H5791 C5810 0.951 . S
H5792 C5812 0.950 . S
H5793 C5813 0.950 . S
H5794 C5815 0.950 . S
H5795 C5818 0.950 . S
H5796 C5819 0.950 . S
H5797 C5821 0.950 . S
H5798 C5822 0.950 . S
H5799 C5823 0.951 . S
H5800 C5825 0.951 . S
H5801 C5827 0.950 . S
H5802 C5828 0.950 . S
H5803 C5830 0.950 . S
H5804 C5833 0.950 . S
H5805 C5834 0.950 . S
H5806 C5836 0.950 . S
H5807 C5837 0.950 . S
C5808 H5790 0.951 . S
C5808 C5809 1.366 . S
C5808 C5810 1.388 . S
C5809 C5808 1.366 . S
C5809 C5813 1.385 . S
C5810 H5791 0.951 . S
C5810 C5808 1.388 . S
C5810 C5811 1.366 . S
C5811 C5810 1.366 . S
C5811 C5812 1.414 . S
C5811 C5814 1.499 . S
C5812 H5792 0.950 . S
C5812 C5811 1.414 . S
C5812 C5813 1.374 . S
C5813 H5793 0.950 . S
C5813 C5809 1.385 . S
C5813 C5812 1.374 . S
C5814 C5811 1.499 . S
C5814 C5815 1.373 . S
C5814 C5816 1.389 . S
C5815 H5794 0.950 . S
C5815 C5814 1.373 . S
C5815 C5831 1.377 . S
C5816 C5814 1.389 . S
C5816 C5817 1.524 . S
C5816 C5830 1.377 . S
C5817 C5816 1.524 . S
C5817 C5818 1.397 . S
C5817 C5822 1.363 . S
C5818 H5795 0.950 . S
C5818 C5817 1.397 . S
C5818 C5819 1.334 . S
C5819 H5796 0.950 . S
C5819 C5818 1.334 . S
C5819 C5820 1.287 . S
C5820 C5819 1.287 . S
C5820 C5821 1.524 . S
C5820 H5839 0.913 . S
C5821 H5797 0.950 . S
C5821 C5820 1.524 . S
C5821 C5822 1.415 . S
C5822 H5798 0.950 . S
C5822 C5817 1.363 . S
C5822 C5821 1.415 . S
C5823 H5799 0.951 . S
C5823 C5824 1.366 . S
C5823 C5825 1.388 . S
C5824 C5823 1.366 . S
C5824 C5828 1.385 . S
C5825 H5800 0.951 . S
C5825 C5823 1.388 . S
C5825 C5826 1.366 . S
C5826 C5825 1.366 . S
C5826 C5827 1.414 . S
C5826 C5829 1.499 . S
C5827 H5801 0.950 . S
C5827 C5826 1.414 . S
C5827 C5828 1.374 . S
C5828 H5802 0.950 . S
C5828 C5824 1.385 . S
C5828 C5827 1.374 . S
C5829 C5826 1.499 . S
C5829 C5830 1.373 . S
C5829 C5831 1.389 . S
C5830 H5803 0.950 . S
C5830 C5816 1.377 . S
C5830 C5829 1.373 . S
C5831 C5815 1.377 . S
C5831 C5829 1.389 . S
C5831 C5832 1.524 . S
C5832 C5831 1.524 . S
C5832 C5833 1.397 . S
C5832 C5837 1.363 . S
C5833 H5804 0.950 . S
C5833 C5832 1.397 . S
C5833 C5834 1.334 . S
C5834 H5805 0.950 . S
C5834 C5833 1.334 . S
C5834 C5835 1.287 . S
C5835 C5834 1.287 . S
C5835 C5836 1.524 . S
C5835 H5838 0.999 . S
C5836 H5806 0.950 . S
C5836 C5835 1.524 . S
C5836 C5837 1.415 . S
C5837 H5807 0.950 . S
C5837 C5832 1.363 . S
C5837 C5836 1.415 . S
H5838 C5835 0.999 . S
H5839 C5820 0.913 . S
H5840 C5858 0.951 . S
H5841 C5860 0.951 . S
H5842 C5862 0.950 . S
H5843 C5863 0.950 . S
H5844 C5865 0.950 . S
H5845 C5868 0.950 . S
H5846 C5869 0.950 . S
H5847 C5871 0.950 . S
H5848 C5872 0.950 . S
H5849 C5873 0.951 . S
H5850 C5875 0.951 . S
H5851 C5877 0.950 . S
H5852 C5878 0.950 . S
H5853 C5880 0.950 . S
H5854 C5883 0.950 . S
H5855 C5884 0.950 . S
H5856 C5886 0.950 . S
H5857 C5887 0.950 . S
C5858 H5840 0.951 . S
C5858 C5859 1.366 . S
C5858 C5860 1.388 . S
C5859 C5858 1.366 . S
C5859 C5863 1.385 . S
C5860 H5841 0.951 . S
C5860 C5858 1.388 . S
C5860 C5861 1.366 . S
C5861 C5860 1.366 . S
C5861 C5862 1.414 . S
C5861 C5864 1.499 . S
C5862 H5842 0.950 . S
C5862 C5861 1.414 . S
C5862 C5863 1.374 . S
C5863 H5843 0.950 . S
C5863 C5859 1.385 . S
C5863 C5862 1.374 . S
C5864 C5861 1.499 . S
C5864 C5865 1.373 . S
C5864 C5866 1.389 . S
C5865 H5844 0.950 . S
C5865 C5864 1.373 . S
C5865 C5881 1.377 . S
C5866 C5864 1.389 . S
C5866 C5867 1.524 . S
C5866 C5880 1.377 . S
C5867 C5866 1.524 . S
C5867 C5868 1.397 . S
C5867 C5872 1.363 . S
C5868 H5845 0.950 . S
C5868 C5867 1.397 . S
C5868 C5869 1.334 . S
C5869 H5846 0.950 . S
C5869 C5868 1.334 . S
C5869 C5870 1.287 . S
C5870 C5869 1.287 . S
C5870 C5871 1.524 . S
C5870 H5889 0.913 . S
C5871 H5847 0.950 . S
C5871 C5870 1.524 . S
C5871 C5872 1.415 . S
C5872 H5848 0.950 . S
C5872 C5867 1.363 . S
C5872 C5871 1.415 . S
C5873 H5849 0.951 . S
C5873 C5874 1.366 . S
C5873 C5875 1.388 . S
C5874 C5873 1.366 . S
C5874 C5878 1.385 . S
C5875 H5850 0.951 . S
C5875 C5873 1.388 . S
C5875 C5876 1.366 . S
C5876 C5875 1.366 . S
C5876 C5877 1.414 . S
C5876 C5879 1.499 . S
C5877 H5851 0.950 . S
C5877 C5876 1.414 . S
C5877 C5878 1.374 . S
C5878 H5852 0.950 . S
C5878 C5874 1.385 . S
C5878 C5877 1.374 . S
C5879 C5876 1.499 . S
C5879 C5880 1.373 . S
C5879 C5881 1.389 . S
C5880 H5853 0.950 . S
C5880 C5866 1.377 . S
C5880 C5879 1.373 . S
C5881 C5865 1.377 . S
C5881 C5879 1.389 . S
C5881 C5882 1.524 . S
C5882 C5881 1.524 . S
C5882 C5883 1.397 . S
C5882 C5887 1.363 . S
C5883 H5854 0.950 . S
C5883 C5882 1.397 . S
C5883 C5884 1.334 . S
C5884 H5855 0.950 . S
C5884 C5883 1.334 . S
C5884 C5885 1.287 . S
C5885 C5884 1.287 . S
C5885 C5886 1.524 . S
C5885 H5888 0.999 . S
C5886 H5856 0.950 . S
C5886 C5885 1.524 . S
C5886 C5887 1.415 . S
C5887 H5857 0.950 . S
C5887 C5882 1.363 . S
C5887 C5886 1.415 . S
H5888 C5885 0.999 . S
H5889 C5870 0.913 . S
H5890 C5908 0.951 . S
H5891 C5910 0.951 . S
H5892 C5912 0.950 . S
H5893 C5913 0.950 . S
H5894 C5915 0.950 . S
H5895 C5918 0.950 . S
H5896 C5919 0.950 . S
H5897 C5921 0.950 . S
H5898 C5922 0.950 . S
H5899 C5923 0.951 . S
H5900 C5925 0.951 . S
H5901 C5927 0.950 . S
H5902 C5928 0.950 . S
H5903 C5930 0.950 . S
H5904 C5933 0.950 . S
H5905 C5934 0.950 . S
H5906 C5936 0.950 . S
H5907 C5937 0.950 . S
C5908 H5890 0.951 . S
C5908 C5909 1.366 . S
C5908 C5910 1.388 . S
C5909 C5908 1.366 . S
C5909 C5913 1.385 . S
C5910 H5891 0.951 . S
C5910 C5908 1.388 . S
C5910 C5911 1.366 . S
C5911 C5910 1.366 . S
C5911 C5912 1.414 . S
C5911 C5914 1.499 . S
C5912 H5892 0.950 . S
C5912 C5911 1.414 . S
C5912 C5913 1.374 . S
C5913 H5893 0.950 . S
C5913 C5909 1.385 . S
C5913 C5912 1.374 . S
C5914 C5911 1.499 . S
C5914 C5915 1.373 . S
C5914 C5916 1.389 . S
C5915 H5894 0.950 . S
C5915 C5914 1.373 . S
C5915 C5931 1.377 . S
C5916 C5914 1.389 . S
C5916 C5917 1.524 . S
C5916 C5930 1.377 . S
C5917 C5916 1.524 . S
C5917 C5918 1.397 . S
C5917 C5922 1.363 . S
C5918 H5895 0.950 . S
C5918 C5917 1.397 . S
C5918 C5919 1.334 . S
C5919 H5896 0.950 . S
C5919 C5918 1.334 . S
C5919 C5920 1.287 . S
C5920 C5919 1.287 . S
C5920 C5921 1.524 . S
C5920 H5939 0.913 . S
C5921 H5897 0.950 . S
C5921 C5920 1.524 . S
C5921 C5922 1.415 . S
C5922 H5898 0.950 . S
C5922 C5917 1.363 . S
C5922 C5921 1.415 . S
C5923 H5899 0.951 . S
C5923 C5924 1.366 . S
C5923 C5925 1.388 . S
C5924 C5923 1.366 . S
C5924 C5928 1.385 . S
C5925 H5900 0.951 . S
C5925 C5923 1.388 . S
C5925 C5926 1.366 . S
C5926 C5925 1.366 . S
C5926 C5927 1.414 . S
C5926 C5929 1.499 . S
C5927 H5901 0.950 . S
C5927 C5926 1.414 . S
C5927 C5928 1.374 . S
C5928 H5902 0.950 . S
C5928 C5924 1.385 . S
C5928 C5927 1.374 . S
C5929 C5926 1.499 . S
C5929 C5930 1.373 . S
C5929 C5931 1.389 . S
C5930 H5903 0.950 . S
C5930 C5916 1.377 . S
C5930 C5929 1.373 . S
C5931 C5915 1.377 . S
C5931 C5929 1.389 . S
C5931 C5932 1.524 . S
C5932 C5931 1.524 . S
C5932 C5933 1.397 . S
C5932 C5937 1.363 . S
C5933 H5904 0.950 . S
C5933 C5932 1.397 . S
C5933 C5934 1.334 . S
C5934 H5905 0.950 . S
C5934 C5933 1.334 . S
C5934 C5935 1.287 . S
C5935 C5934 1.287 . S
C5935 C5936 1.524 . S
C5935 H5938 0.999 . S
C5936 H5906 0.950 . S
C5936 C5935 1.524 . S
C5936 C5937 1.415 . S
C5937 H5907 0.950 . S
C5937 C5932 1.363 . S
C5937 C5936 1.415 . S
H5938 C5935 0.999 . S
H5939 C5920 0.913 . S
H5940 C5958 0.951 . S
H5941 C5960 0.951 . S
H5942 C5962 0.950 . S
H5943 C5963 0.950 . S
H5944 C5965 0.950 . S
H5945 C5968 0.950 . S
H5946 C5969 0.950 . S
H5947 C5971 0.950 . S
H5948 C5972 0.950 . S
H5949 C5973 0.951 . S
H5950 C5975 0.951 . S
H5951 C5977 0.950 . S
H5952 C5978 0.950 . S
H5953 C5980 0.950 . S
H5954 C5983 0.950 . S
H5955 C5984 0.950 . S
H5956 C5986 0.950 . S
H5957 C5987 0.950 . S
C5958 H5940 0.951 . S
C5958 C5959 1.366 . S
C5958 C5960 1.388 . S
C5959 C5958 1.366 . S
C5959 C5963 1.385 . S
C5960 H5941 0.951 . S
C5960 C5958 1.388 . S
C5960 C5961 1.366 . S
C5961 C5960 1.366 . S
C5961 C5962 1.414 . S
C5961 C5964 1.499 . S
C5962 H5942 0.950 . S
C5962 C5961 1.414 . S
C5962 C5963 1.374 . S
C5963 H5943 0.950 . S
C5963 C5959 1.385 . S
C5963 C5962 1.374 . S
C5964 C5961 1.499 . S
C5964 C5965 1.373 . S
C5964 C5966 1.389 . S
C5965 H5944 0.950 . S
C5965 C5964 1.373 . S
C5965 C5981 1.377 . S
C5966 C5964 1.389 . S
C5966 C5967 1.524 . S
C5966 C5980 1.377 . S
C5967 C5966 1.524 . S
C5967 C5968 1.397 . S
C5967 C5972 1.363 . S
C5968 H5945 0.950 . S
C5968 C5967 1.397 . S
C5968 C5969 1.334 . S
C5969 H5946 0.950 . S
C5969 C5968 1.334 . S
C5969 C5970 1.287 . S
C5970 C5969 1.287 . S
C5970 C5971 1.524 . S
C5970 H5989 0.913 . S
C5971 H5947 0.950 . S
C5971 C5970 1.524 . S
C5971 C5972 1.415 . S
C5972 H5948 0.950 . S
C5972 C5967 1.363 . S
C5972 C5971 1.415 . S
C5973 H5949 0.951 . S
C5973 C5974 1.366 . S
C5973 C5975 1.388 . S
C5974 C5973 1.366 . S
C5974 C5978 1.385 . S
C5975 H5950 0.951 . S
C5975 C5973 1.388 . S
C5975 C5976 1.366 . S
C5976 C5975 1.366 . S
C5976 C5977 1.414 . S
C5976 C5979 1.499 . S
C5977 H5951 0.950 . S
C5977 C5976 1.414 . S
C5977 C5978 1.374 . S
C5978 H5952 0.950 . S
C5978 C5974 1.385 . S
C5978 C5977 1.374 . S
C5979 C5976 1.499 . S
C5979 C5980 1.373 . S
C5979 C5981 1.389 . S
C5980 H5953 0.950 . S
C5980 C5966 1.377 . S
C5980 C5979 1.373 . S
C5981 C5965 1.377 . S
C5981 C5979 1.389 . S
C5981 C5982 1.524 . S
C5982 C5981 1.524 . S
C5982 C5983 1.397 . S
C5982 C5987 1.363 . S
C5983 H5954 0.950 . S
C5983 C5982 1.397 . S
C5983 C5984 1.334 . S
C5984 H5955 0.950 . S
C5984 C5983 1.334 . S
C5984 C5985 1.287 . S
C5985 C5984 1.287 . S
C5985 C5986 1.524 . S
C5985 H5988 0.999 . S
C5986 H5956 0.950 . S
C5986 C5985 1.524 . S
C5986 C5987 1.415 . S
C5987 H5957 0.950 . S
C5987 C5982 1.363 . S
C5987 C5986 1.415 . S
H5988 C5985 0.999 . S
H5989 C5970 0.913 . S
H5990 C6008 0.951 . S
H5991 C6010 0.951 . S
H5992 C6012 0.950 . S
H5993 C6013 0.950 . S
H5994 C6015 0.950 . S
H5995 C6018 0.950 . S
H5996 C6019 0.950 . S
H5997 C6021 0.950 . S
H5998 C6022 0.950 . S
H5999 C6023 0.951 . S
H6000 C6025 0.951 . S
H6001 C6027 0.950 . S
H6002 C6028 0.950 . S
H6003 C6030 0.950 . S
H6004 C6033 0.950 . S
H6005 C6034 0.950 . S
H6006 C6036 0.950 . S
H6007 C6037 0.950 . S
C6008 H5990 0.951 . S
C6008 C6009 1.366 . S
C6008 C6010 1.388 . S
C6009 C6008 1.366 . S
C6009 C6013 1.385 . S
C6010 H5991 0.951 . S
C6010 C6008 1.388 . S
C6010 C6011 1.366 . S
C6011 C6010 1.366 . S
C6011 C6012 1.414 . S
C6011 C6014 1.499 . S
C6012 H5992 0.950 . S
C6012 C6011 1.414 . S
C6012 C6013 1.374 . S
C6013 H5993 0.950 . S
C6013 C6009 1.385 . S
C6013 C6012 1.374 . S
C6014 C6011 1.499 . S
C6014 C6015 1.373 . S
C6014 C6016 1.389 . S
C6015 H5994 0.950 . S
C6015 C6014 1.373 . S
C6015 C6031 1.377 . S
C6016 C6014 1.389 . S
C6016 C6017 1.524 . S
C6016 C6030 1.377 . S
C6017 C6016 1.524 . S
C6017 C6018 1.397 . S
C6017 C6022 1.363 . S
C6018 H5995 0.950 . S
C6018 C6017 1.397 . S
C6018 C6019 1.334 . S
C6019 H5996 0.950 . S
C6019 C6018 1.334 . S
C6019 C6020 1.287 . S
C6020 C6019 1.287 . S
C6020 C6021 1.524 . S
C6020 H6039 0.913 . S
C6021 H5997 0.950 . S
C6021 C6020 1.524 . S
C6021 C6022 1.415 . S
C6022 H5998 0.950 . S
C6022 C6017 1.363 . S
C6022 C6021 1.415 . S
C6023 H5999 0.951 . S
C6023 C6024 1.366 . S
C6023 C6025 1.388 . S
C6024 C6023 1.366 . S
C6024 C6028 1.385 . S
C6025 H6000 0.951 . S
C6025 C6023 1.388 . S
C6025 C6026 1.366 . S
C6026 C6025 1.366 . S
C6026 C6027 1.414 . S
C6026 C6029 1.499 . S
C6027 H6001 0.950 . S
C6027 C6026 1.414 . S
C6027 C6028 1.374 . S
C6028 H6002 0.950 . S
C6028 C6024 1.385 . S
C6028 C6027 1.374 . S
C6029 C6026 1.499 . S
C6029 C6030 1.373 . S
C6029 C6031 1.389 . S
C6030 H6003 0.950 . S
C6030 C6016 1.377 . S
C6030 C6029 1.373 . S
C6031 C6015 1.377 . S
C6031 C6029 1.389 . S
C6031 C6032 1.524 . S
C6032 C6031 1.524 . S
C6032 C6033 1.397 . S
C6032 C6037 1.363 . S
C6033 H6004 0.950 . S
C6033 C6032 1.397 . S
C6033 C6034 1.334 . S
C6034 H6005 0.950 . S
C6034 C6033 1.334 . S
C6034 C6035 1.287 . S
C6035 C6034 1.287 . S
C6035 C6036 1.524 . S
C6035 H6038 0.999 . S
C6036 H6006 0.950 . S
C6036 C6035 1.524 . S
C6036 C6037 1.415 . S
C6037 H6007 0.950 . S
C6037 C6032 1.363 . S
C6037 C6036 1.415 . S
H6038 C6035 0.999 . S
H6039 C6020 0.913 . S
H6040 C6058 0.951 . S
H6041 C6060 0.951 . S
H6042 C6062 0.950 . S
H6043 C6063 0.950 . S
H6044 C6065 0.950 . S
H6045 C6068 0.950 . S
H6046 C6069 0.950 . S
H6047 C6071 0.950 . S
H6048 C6072 0.950 . S
H6049 C6073 0.951 . S
H6050 C6075 0.951 . S
H6051 C6077 0.950 . S
H6052 C6078 0.950 . S
H6053 C6080 0.950 . S
H6054 C6083 0.950 . S
H6055 C6084 0.950 . S
H6056 C6086 0.950 . S
H6057 C6087 0.950 . S
C6058 H6040 0.951 . S
C6058 C6059 1.366 . S
C6058 C6060 1.388 . S
C6059 C6058 1.366 . S
C6059 C6063 1.385 . S
C6060 H6041 0.951 . S
C6060 C6058 1.388 . S
C6060 C6061 1.366 . S
C6061 C6060 1.366 . S
C6061 C6062 1.414 . S
C6061 C6064 1.499 . S
C6062 H6042 0.950 . S
C6062 C6061 1.414 . S
C6062 C6063 1.374 . S
C6063 H6043 0.950 . S
C6063 C6059 1.385 . S
C6063 C6062 1.374 . S
C6064 C6061 1.499 . S
C6064 C6065 1.373 . S
C6064 C6066 1.389 . S
C6065 H6044 0.950 . S
C6065 C6064 1.373 . S
C6065 C6081 1.377 . S
C6066 C6064 1.389 . S
C6066 C6067 1.524 . S
C6066 C6080 1.377 . S
C6067 C6066 1.524 . S
C6067 C6068 1.397 . S
C6067 C6072 1.363 . S
C6068 H6045 0.950 . S
C6068 C6067 1.397 . S
C6068 C6069 1.334 . S
C6069 H6046 0.950 . S
C6069 C6068 1.334 . S
C6069 C6070 1.287 . S
C6070 C6069 1.287 . S
C6070 C6071 1.524 . S
C6070 H6089 0.913 . S
C6071 H6047 0.950 . S
C6071 C6070 1.524 . S
C6071 C6072 1.415 . S
C6072 H6048 0.950 . S
C6072 C6067 1.363 . S
C6072 C6071 1.415 . S
C6073 H6049 0.951 . S
C6073 C6074 1.366 . S
C6073 C6075 1.388 . S
C6074 C6073 1.366 . S
C6074 C6078 1.385 . S
C6075 H6050 0.951 . S
C6075 C6073 1.388 . S
C6075 C6076 1.366 . S
C6076 C6075 1.366 . S
C6076 C6077 1.414 . S
C6076 C6079 1.499 . S
C6077 H6051 0.950 . S
C6077 C6076 1.414 . S
C6077 C6078 1.374 . S
C6078 H6052 0.950 . S
C6078 C6074 1.385 . S
C6078 C6077 1.374 . S
C6079 C6076 1.499 . S
C6079 C6080 1.373 . S
C6079 C6081 1.389 . S
C6080 H6053 0.950 . S
C6080 C6066 1.377 . S
C6080 C6079 1.373 . S
C6081 C6065 1.377 . S
C6081 C6079 1.389 . S
C6081 C6082 1.524 . S
C6082 C6081 1.524 . S
C6082 C6083 1.397 . S
C6082 C6087 1.363 . S
C6083 H6054 0.950 . S
C6083 C6082 1.397 . S
C6083 C6084 1.334 . S
C6084 H6055 0.950 . S
C6084 C6083 1.334 . S
C6084 C6085 1.287 . S
C6085 C6084 1.287 . S
C6085 C6086 1.524 . S
C6085 H6088 0.999 . S
C6086 H6056 0.950 . S
C6086 C6085 1.524 . S
C6086 C6087 1.415 . S
C6087 H6057 0.950 . S
C6087 C6082 1.363 . S
C6087 C6086 1.415 . S
H6088 C6085 0.999 . S
H6089 C6070 0.913 . S
H6090 C6108 0.951 . S
H6091 C6110 0.951 . S
H6092 C6112 0.950 . S
H6093 C6113 0.950 . S
H6094 C6115 0.950 . S
H6095 C6118 0.950 . S
H6096 C6119 0.950 . S
H6097 C6121 0.950 . S
H6098 C6122 0.950 . S
H6099 C6123 0.951 . S
H6100 C6125 0.951 . S
H6101 C6127 0.950 . S
H6102 C6128 0.950 . S
H6103 C6130 0.950 . S
H6104 C6133 0.950 . S
H6105 C6134 0.950 . S
H6106 C6136 0.950 . S
H6107 C6137 0.950 . S
C6108 H6090 0.951 . S
C6108 C6109 1.366 . S
C6108 C6110 1.388 . S
C6109 C6108 1.366 . S
C6109 C6113 1.385 . S
C6110 H6091 0.951 . S
C6110 C6108 1.388 . S
C6110 C6111 1.366 . S
C6111 C6110 1.366 . S
C6111 C6112 1.414 . S
C6111 C6114 1.499 . S
C6112 H6092 0.950 . S
C6112 C6111 1.414 . S
C6112 C6113 1.374 . S
C6113 H6093 0.950 . S
C6113 C6109 1.385 . S
C6113 C6112 1.374 . S
C6114 C6111 1.499 . S
C6114 C6115 1.373 . S
C6114 C6116 1.389 . S
C6115 H6094 0.950 . S
C6115 C6114 1.373 . S
C6115 C6131 1.377 . S
C6116 C6114 1.389 . S
C6116 C6117 1.524 . S
C6116 C6130 1.377 . S
C6117 C6116 1.524 . S
C6117 C6118 1.397 . S
C6117 C6122 1.363 . S
C6118 H6095 0.950 . S
C6118 C6117 1.397 . S
C6118 C6119 1.334 . S
C6119 H6096 0.950 . S
C6119 C6118 1.334 . S
C6119 C6120 1.287 . S
C6120 C6119 1.287 . S
C6120 C6121 1.524 . S
C6120 H6139 0.913 . S
C6121 H6097 0.950 . S
C6121 C6120 1.524 . S
C6121 C6122 1.415 . S
C6122 H6098 0.950 . S
C6122 C6117 1.363 . S
C6122 C6121 1.415 . S
C6123 H6099 0.951 . S
C6123 C6124 1.366 . S
C6123 C6125 1.388 . S
C6124 C6123 1.366 . S
C6124 C6128 1.385 . S
C6125 H6100 0.951 . S
C6125 C6123 1.388 . S
C6125 C6126 1.366 . S
C6126 C6125 1.366 . S
C6126 C6127 1.414 . S
C6126 C6129 1.499 . S
C6127 H6101 0.950 . S
C6127 C6126 1.414 . S
C6127 C6128 1.374 . S
C6128 H6102 0.950 . S
C6128 C6124 1.385 . S
C6128 C6127 1.374 . S
C6129 C6126 1.499 . S
C6129 C6130 1.373 . S
C6129 C6131 1.389 . S
C6130 H6103 0.950 . S
C6130 C6116 1.377 . S
C6130 C6129 1.373 . S
C6131 C6115 1.377 . S
C6131 C6129 1.389 . S
C6131 C6132 1.524 . S
C6132 C6131 1.524 . S
C6132 C6133 1.397 . S
C6132 C6137 1.363 . S
C6133 H6104 0.950 . S
C6133 C6132 1.397 . S
C6133 C6134 1.334 . S
C6134 H6105 0.950 . S
C6134 C6133 1.334 . S
C6134 C6135 1.287 . S
C6135 C6134 1.287 . S
C6135 C6136 1.524 . S
C6135 H6138 0.999 . S
C6136 H6106 0.950 . S
C6136 C6135 1.524 . S
C6136 C6137 1.415 . S
C6137 H6107 0.950 . S
C6137 C6132 1.363 . S
C6137 C6136 1.415 . S
H6138 C6135 0.999 . S
H6139 C6120 0.913 . S
H6140 C6158 0.951 . S
H6141 C6160 0.951 . S
H6142 C6162 0.950 . S
H6143 C6163 0.950 . S
H6144 C6165 0.950 . S
H6145 C6168 0.950 . S
H6146 C6169 0.950 . S
H6147 C6171 0.950 . S
H6148 C6172 0.950 . S
H6149 C6173 0.951 . S
H6150 C6175 0.951 . S
H6151 C6177 0.950 . S
H6152 C6178 0.950 . S
H6153 C6180 0.950 . S
H6154 C6183 0.950 . S
H6155 C6184 0.950 . S
H6156 C6186 0.950 . S
H6157 C6187 0.950 . S
C6158 H6140 0.951 . S
C6158 C6159 1.366 . S
C6158 C6160 1.388 . S
C6159 C6158 1.366 . S
C6159 C6163 1.385 . S
C6160 H6141 0.951 . S
C6160 C6158 1.388 . S
C6160 C6161 1.366 . S
C6161 C6160 1.366 . S
C6161 C6162 1.414 . S
C6161 C6164 1.499 . S
C6162 H6142 0.950 . S
C6162 C6161 1.414 . S
C6162 C6163 1.374 . S
C6163 H6143 0.950 . S
C6163 C6159 1.385 . S
C6163 C6162 1.374 . S
C6164 C6161 1.499 . S
C6164 C6165 1.373 . S
C6164 C6166 1.389 . S
C6165 H6144 0.950 . S
C6165 C6164 1.373 . S
C6165 C6181 1.377 . S
C6166 C6164 1.389 . S
C6166 C6167 1.524 . S
C6166 C6180 1.377 . S
C6167 C6166 1.524 . S
C6167 C6168 1.397 . S
C6167 C6172 1.363 . S
C6168 H6145 0.950 . S
C6168 C6167 1.397 . S
C6168 C6169 1.334 . S
C6169 H6146 0.950 . S
C6169 C6168 1.334 . S
C6169 C6170 1.287 . S
C6170 C6169 1.287 . S
C6170 C6171 1.524 . S
C6170 H6189 0.913 . S
C6171 H6147 0.950 . S
C6171 C6170 1.524 . S
C6171 C6172 1.415 . S
C6172 H6148 0.950 . S
C6172 C6167 1.363 . S
C6172 C6171 1.415 . S
C6173 H6149 0.951 . S
C6173 C6174 1.366 . S
C6173 C6175 1.388 . S
C6174 C6173 1.366 . S
C6174 C6178 1.385 . S
C6175 H6150 0.951 . S
C6175 C6173 1.388 . S
C6175 C6176 1.366 . S
C6176 C6175 1.366 . S
C6176 C6177 1.414 . S
C6176 C6179 1.499 . S
C6177 H6151 0.950 . S
C6177 C6176 1.414 . S
C6177 C6178 1.374 . S
C6178 H6152 0.950 . S
C6178 C6174 1.385 . S
C6178 C6177 1.374 . S
C6179 C6176 1.499 . S
C6179 C6180 1.373 . S
C6179 C6181 1.389 . S
C6180 H6153 0.950 . S
C6180 C6166 1.377 . S
C6180 C6179 1.373 . S
C6181 C6165 1.377 . S
C6181 C6179 1.389 . S
C6181 C6182 1.524 . S
C6182 C6181 1.524 . S
C6182 C6183 1.397 . S
C6182 C6187 1.363 . S
C6183 H6154 0.950 . S
C6183 C6182 1.397 . S
C6183 C6184 1.334 . S
C6184 H6155 0.950 . S
C6184 C6183 1.334 . S
C6184 C6185 1.287 . S
C6185 C6184 1.287 . S
C6185 C6186 1.524 . S
C6185 H6188 0.999 . S
C6186 H6156 0.950 . S
C6186 C6185 1.524 . S
C6186 C6187 1.415 . S
C6187 H6157 0.950 . S
C6187 C6182 1.363 . S
C6187 C6186 1.415 . S
H6188 C6185 0.999 . S
H6189 C6170 0.913 . S
H6190 C6208 0.951 . S
H6191 C6210 0.951 . S
H6192 C6212 0.950 . S
H6193 C6213 0.950 . S
H6194 C6215 0.950 . S
H6195 C6218 0.950 . S
H6196 C6219 0.950 . S
H6197 C6221 0.950 . S
H6198 C6222 0.950 . S
H6199 C6223 0.951 . S
H6200 C6225 0.951 . S
H6201 C6227 0.950 . S
H6202 C6228 0.950 . S
H6203 C6230 0.950 . S
H6204 C6233 0.950 . S
H6205 C6234 0.950 . S
H6206 C6236 0.950 . S
H6207 C6237 0.950 . S
C6208 H6190 0.951 . S
C6208 C6209 1.366 . S
C6208 C6210 1.388 . S
C6209 C6208 1.366 . S
C6209 C6213 1.385 . S
C6210 H6191 0.951 . S
C6210 C6208 1.388 . S
C6210 C6211 1.366 . S
C6211 C6210 1.366 . S
C6211 C6212 1.414 . S
C6211 C6214 1.499 . S
C6212 H6192 0.950 . S
C6212 C6211 1.414 . S
C6212 C6213 1.374 . S
C6213 H6193 0.950 . S
C6213 C6209 1.385 . S
C6213 C6212 1.374 . S
C6214 C6211 1.499 . S
C6214 C6215 1.373 . S
C6214 C6216 1.389 . S
C6215 H6194 0.950 . S
C6215 C6214 1.373 . S
C6215 C6231 1.377 . S
C6216 C6214 1.389 . S
C6216 C6217 1.524 . S
C6216 C6230 1.377 . S
C6217 C6216 1.524 . S
C6217 C6218 1.397 . S
C6217 C6222 1.363 . S
C6218 H6195 0.950 . S
C6218 C6217 1.397 . S
C6218 C6219 1.334 . S
C6219 H6196 0.950 . S
C6219 C6218 1.334 . S
C6219 C6220 1.287 . S
C6220 C6219 1.287 . S
C6220 C6221 1.524 . S
C6220 H6239 0.913 . S
C6221 H6197 0.950 . S
C6221 C6220 1.524 . S
C6221 C6222 1.415 . S
C6222 H6198 0.950 . S
C6222 C6217 1.363 . S
C6222 C6221 1.415 . S
C6223 H6199 0.951 . S
C6223 C6224 1.366 . S
C6223 C6225 1.388 . S
C6224 C6223 1.366 . S
C6224 C6228 1.385 . S
C6225 H6200 0.951 . S
C6225 C6223 1.388 . S
C6225 C6226 1.366 . S
C6226 C6225 1.366 . S
C6226 C6227 1.414 . S
C6226 C6229 1.499 . S
C6227 H6201 0.950 . S
C6227 C6226 1.414 . S
C6227 C6228 1.374 . S
C6228 H6202 0.950 . S
C6228 C6224 1.385 . S
C6228 C6227 1.374 . S
C6229 C6226 1.499 . S
C6229 C6230 1.373 . S
C6229 C6231 1.389 . S
C6230 H6203 0.950 . S
C6230 C6216 1.377 . S
C6230 C6229 1.373 . S
C6231 C6215 1.377 . S
C6231 C6229 1.389 . S
C6231 C6232 1.524 . S
C6232 C6231 1.524 . S
C6232 C6233 1.397 . S
C6232 C6237 1.363 . S
C6233 H6204 0.950 . S
C6233 C6232 1.397 . S
C6233 C6234 1.334 . S
C6234 H6205 0.950 . S
C6234 C6233 1.334 . S
C6234 C6235 1.287 . S
C6235 C6234 1.287 . S
C6235 C6236 1.524 . S
C6235 H6238 0.999 . S
C6236 H6206 0.950 . S
C6236 C6235 1.524 . S
C6236 C6237 1.415 . S
C6237 H6207 0.950 . S
C6237 C6232 1.363 . S
C6237 C6236 1.415 . S
H6238 C6235 0.999 . S
H6239 C6220 0.913 . S
H6240 C6258 0.951 . S
H6241 C6260 0.951 . S
H6242 C6262 0.950 . S
H6243 C6263 0.950 . S
H6244 C6265 0.950 . S
H6245 C6268 0.950 . S
H6246 C6269 0.950 . S
H6247 C6271 0.950 . S
H6248 C6272 0.950 . S
H6249 C6273 0.951 . S
H6250 C6275 0.951 . S
H6251 C6277 0.950 . S
H6252 C6278 0.950 . S
H6253 C6280 0.950 . S
H6254 C6283 0.950 . S
H6255 C6284 0.950 . S
H6256 C6286 0.950 . S
H6257 C6287 0.950 . S
C6258 H6240 0.951 . S
C6258 C6259 1.366 . S
C6258 C6260 1.388 . S
C6259 C6258 1.366 . S
C6259 C6263 1.385 . S
C6260 H6241 0.951 . S
C6260 C6258 1.388 . S
C6260 C6261 1.366 . S
C6261 C6260 1.366 . S
C6261 C6262 1.414 . S
C6261 C6264 1.499 . S
C6262 H6242 0.950 . S
C6262 C6261 1.414 . S
C6262 C6263 1.374 . S
C6263 H6243 0.950 . S
C6263 C6259 1.385 . S
C6263 C6262 1.374 . S
C6264 C6261 1.499 . S
C6264 C6265 1.373 . S
C6264 C6266 1.389 . S
C6265 H6244 0.950 . S
C6265 C6264 1.373 . S
C6265 C6281 1.377 . S
C6266 C6264 1.389 . S
C6266 C6267 1.524 . S
C6266 C6280 1.377 . S
C6267 C6266 1.524 . S
C6267 C6268 1.397 . S
C6267 C6272 1.363 . S
C6268 H6245 0.950 . S
C6268 C6267 1.397 . S
C6268 C6269 1.334 . S
C6269 H6246 0.950 . S
C6269 C6268 1.334 . S
C6269 C6270 1.287 . S
C6270 C6269 1.287 . S
C6270 C6271 1.524 . S
C6270 H6289 0.913 . S
C6271 H6247 0.950 . S
C6271 C6270 1.524 . S
C6271 C6272 1.415 . S
C6272 H6248 0.950 . S
C6272 C6267 1.363 . S
C6272 C6271 1.415 . S
C6273 H6249 0.951 . S
C6273 C6274 1.366 . S
C6273 C6275 1.388 . S
C6274 C6273 1.366 . S
C6274 C6278 1.385 . S
C6275 H6250 0.951 . S
C6275 C6273 1.388 . S
C6275 C6276 1.366 . S
C6276 C6275 1.366 . S
C6276 C6277 1.414 . S
C6276 C6279 1.499 . S
C6277 H6251 0.950 . S
C6277 C6276 1.414 . S
C6277 C6278 1.374 . S
C6278 H6252 0.950 . S
C6278 C6274 1.385 . S
C6278 C6277 1.374 . S
C6279 C6276 1.499 . S
C6279 C6280 1.373 . S
C6279 C6281 1.389 . S
C6280 H6253 0.950 . S
C6280 C6266 1.377 . S
C6280 C6279 1.373 . S
C6281 C6265 1.377 . S
C6281 C6279 1.389 . S
C6281 C6282 1.524 . S
C6282 C6281 1.524 . S
C6282 C6283 1.397 . S
C6282 C6287 1.363 . S
C6283 H6254 0.950 . S
C6283 C6282 1.397 . S
C6283 C6284 1.334 . S
C6284 H6255 0.950 . S
C6284 C6283 1.334 . S
C6284 C6285 1.287 . S
C6285 C6284 1.287 . S
C6285 C6286 1.524 . S
C6285 H6288 0.999 . S
C6286 H6256 0.950 . S
C6286 C6285 1.524 . S
C6286 C6287 1.415 . S
C6287 H6257 0.950 . S
C6287 C6282 1.363 . S
C6287 C6286 1.415 . S
H6288 C6285 0.999 . S
H6289 C6270 0.913 . S
H6290 C6308 0.951 . S
H6291 C6310 0.951 . S
H6292 C6312 0.950 . S
H6293 C6313 0.950 . S
H6294 C6315 0.950 . S
H6295 C6318 0.950 . S
H6296 C6319 0.950 . S
H6297 C6321 0.950 . S
H6298 C6322 0.950 . S
H6299 C6323 0.951 . S
H6300 C6325 0.951 . S
H6301 C6327 0.950 . S
H6302 C6328 0.950 . S
H6303 C6330 0.950 . S
H6304 C6333 0.950 . S
H6305 C6334 0.950 . S
H6306 C6336 0.950 . S
H6307 C6337 0.950 . S
C6308 H6290 0.951 . S
C6308 C6309 1.366 . S
C6308 C6310 1.388 . S
C6309 C6308 1.366 . S
C6309 C6313 1.385 . S
C6310 H6291 0.951 . S
C6310 C6308 1.388 . S
C6310 C6311 1.366 . S
C6311 C6310 1.366 . S
C6311 C6312 1.414 . S
C6311 C6314 1.499 . S
C6312 H6292 0.950 . S
C6312 C6311 1.414 . S
C6312 C6313 1.374 . S
C6313 H6293 0.950 . S
C6313 C6309 1.385 . S
C6313 C6312 1.374 . S
C6314 C6311 1.499 . S
C6314 C6315 1.373 . S
C6314 C6316 1.389 . S
C6315 H6294 0.950 . S
C6315 C6314 1.373 . S
C6315 C6331 1.377 . S
C6316 C6314 1.389 . S
C6316 C6317 1.524 . S
C6316 C6330 1.377 . S
C6317 C6316 1.524 . S
C6317 C6318 1.397 . S
C6317 C6322 1.363 . S
C6318 H6295 0.950 . S
C6318 C6317 1.397 . S
C6318 C6319 1.334 . S
C6319 H6296 0.950 . S
C6319 C6318 1.334 . S
C6319 C6320 1.287 . S
C6320 C6319 1.287 . S
C6320 C6321 1.524 . S
C6320 H6339 0.913 . S
C6321 H6297 0.950 . S
C6321 C6320 1.524 . S
C6321 C6322 1.415 . S
C6322 H6298 0.950 . S
C6322 C6317 1.363 . S
C6322 C6321 1.415 . S
C6323 H6299 0.951 . S
C6323 C6324 1.366 . S
C6323 C6325 1.388 . S
C6324 C6323 1.366 . S
C6324 C6328 1.385 . S
C6325 H6300 0.951 . S
C6325 C6323 1.388 . S
C6325 C6326 1.366 . S
C6326 C6325 1.366 . S
C6326 C6327 1.414 . S
C6326 C6329 1.499 . S
C6327 H6301 0.950 . S
C6327 C6326 1.414 . S
C6327 C6328 1.374 . S
C6328 H6302 0.950 . S
C6328 C6324 1.385 . S
C6328 C6327 1.374 . S
C6329 C6326 1.499 . S
C6329 C6330 1.373 . S
C6329 C6331 1.389 . S
C6330 H6303 0.950 . S
C6330 C6316 1.377 . S
C6330 C6329 1.373 . S
C6331 C6315 1.377 . S
C6331 C6329 1.389 . S
C6331 C6332 1.524 . S
C6332 C6331 1.524 . S
C6332 C6333 1.397 . S
C6332 C6337 1.363 . S
C6333 H6304 0.950 . S
C6333 C6332 1.397 . S
C6333 C6334 1.334 . S
C6334 H6305 0.950 . S
C6334 C6333 1.334 . S
C6334 C6335 1.287 . S
C6335 C6334 1.287 . S
C6335 C6336 1.524 . S
C6335 H6338 0.999 . S
C6336 H6306 0.950 . S
C6336 C6335 1.524 . S
C6336 C6337 1.415 . S
C6337 H6307 0.950 . S
C6337 C6332 1.363 . S
C6337 C6336 1.415 . S
H6338 C6335 0.999 . S
H6339 C6320 0.913 . S
H6340 C6358 0.951 . S
H6341 C6360 0.951 . S
H6342 C6362 0.950 . S
H6343 C6363 0.950 . S
H6344 C6365 0.950 . S
H6345 C6368 0.950 . S
H6346 C6369 0.950 . S
H6347 C6371 0.950 . S
H6348 C6372 0.950 . S
H6349 C6373 0.951 . S
H6350 C6375 0.951 . S
H6351 C6377 0.950 . S
H6352 C6378 0.950 . S
H6353 C6380 0.950 . S
H6354 C6383 0.950 . S
H6355 C6384 0.950 . S
H6356 C6386 0.950 . S
H6357 C6387 0.950 . S
C6358 H6340 0.951 . S
C6358 C6359 1.366 . S
C6358 C6360 1.388 . S
C6359 C6358 1.366 . S
C6359 C6363 1.385 . S
C6360 H6341 0.951 . S
C6360 C6358 1.388 . S
C6360 C6361 1.366 . S
C6361 C6360 1.366 . S
C6361 C6362 1.414 . S
C6361 C6364 1.499 . S
C6362 H6342 0.950 . S
C6362 C6361 1.414 . S
C6362 C6363 1.374 . S
C6363 H6343 0.950 . S
C6363 C6359 1.385 . S
C6363 C6362 1.374 . S
C6364 C6361 1.499 . S
C6364 C6365 1.373 . S
C6364 C6366 1.389 . S
C6365 H6344 0.950 . S
C6365 C6364 1.373 . S
C6365 C6381 1.377 . S
C6366 C6364 1.389 . S
C6366 C6367 1.524 . S
C6366 C6380 1.377 . S
C6367 C6366 1.524 . S
C6367 C6368 1.397 . S
C6367 C6372 1.363 . S
C6368 H6345 0.950 . S
C6368 C6367 1.397 . S
C6368 C6369 1.334 . S
C6369 H6346 0.950 . S
C6369 C6368 1.334 . S
C6369 C6370 1.287 . S
C6370 C6369 1.287 . S
C6370 C6371 1.524 . S
C6370 H6389 0.913 . S
C6371 H6347 0.950 . S
C6371 C6370 1.524 . S
C6371 C6372 1.415 . S
C6372 H6348 0.950 . S
C6372 C6367 1.363 . S
C6372 C6371 1.415 . S
C6373 H6349 0.951 . S
C6373 C6374 1.366 . S
C6373 C6375 1.388 . S
C6374 C6373 1.366 . S
C6374 C6378 1.385 . S
C6375 H6350 0.951 . S
C6375 C6373 1.388 . S
C6375 C6376 1.366 . S
C6376 C6375 1.366 . S
C6376 C6377 1.414 . S
C6376 C6379 1.499 . S
C6377 H6351 0.950 . S
C6377 C6376 1.414 . S
C6377 C6378 1.374 . S
C6378 H6352 0.950 . S
C6378 C6374 1.385 . S
C6378 C6377 1.374 . S
C6379 C6376 1.499 . S
C6379 C6380 1.373 . S
C6379 C6381 1.389 . S
C6380 H6353 0.950 . S
C6380 C6366 1.377 . S
C6380 C6379 1.373 . S
C6381 C6365 1.377 . S
C6381 C6379 1.389 . S
C6381 C6382 1.524 . S
C6382 C6381 1.524 . S
C6382 C6383 1.397 . S
C6382 C6387 1.363 . S
C6383 H6354 0.950 . S
C6383 C6382 1.397 . S
C6383 C6384 1.334 . S
C6384 H6355 0.950 . S
C6384 C6383 1.334 . S
C6384 C6385 1.287 . S
C6385 C6384 1.287 . S
C6385 C6386 1.524 . S
C6385 H6388 0.999 . S
C6386 H6356 0.950 . S
C6386 C6385 1.524 . S
C6386 C6387 1.415 . S
C6387 H6357 0.950 . S
C6387 C6382 1.363 . S
C6387 C6386 1.415 . S
H6388 C6385 0.999 . S
H6389 C6370 0.913 . S
H6390 C6408 0.951 . S
H6391 C6410 0.951 . S
H6392 C6412 0.950 . S
H6393 C6413 0.950 . S
H6394 C6415 0.950 . S
H6395 C6418 0.950 . S
H6396 C6419 0.950 . S
H6397 C6421 0.950 . S
H6398 C6422 0.950 . S
H6399 C6423 0.951 . S
H6400 C6425 0.951 . S
H6401 C6427 0.950 . S
H6402 C6428 0.950 . S
H6403 C6430 0.950 . S
H6404 C6433 0.950 . S
H6405 C6434 0.950 . S
H6406 C6436 0.950 . S
H6407 C6437 0.950 . S
C6408 H6390 0.951 . S
C6408 C6409 1.366 . S
C6408 C6410 1.388 . S
C6409 C6408 1.366 . S
C6409 C6413 1.385 . S
C6410 H6391 0.951 . S
C6410 C6408 1.388 . S
C6410 C6411 1.366 . S
C6411 C6410 1.366 . S
C6411 C6412 1.414 . S
C6411 C6414 1.499 . S
C6412 H6392 0.950 . S
C6412 C6411 1.414 . S
C6412 C6413 1.374 . S
C6413 H6393 0.950 . S
C6413 C6409 1.385 . S
C6413 C6412 1.374 . S
C6414 C6411 1.499 . S
C6414 C6415 1.373 . S
C6414 C6416 1.389 . S
C6415 H6394 0.950 . S
C6415 C6414 1.373 . S
C6415 C6431 1.377 . S
C6416 C6414 1.389 . S
C6416 C6417 1.524 . S
C6416 C6430 1.377 . S
C6417 C6416 1.524 . S
C6417 C6418 1.397 . S
C6417 C6422 1.363 . S
C6418 H6395 0.950 . S
C6418 C6417 1.397 . S
C6418 C6419 1.334 . S
C6419 H6396 0.950 . S
C6419 C6418 1.334 . S
C6419 C6420 1.287 . S
C6420 C6419 1.287 . S
C6420 C6421 1.524 . S
C6420 H6439 0.913 . S
C6421 H6397 0.950 . S
C6421 C6420 1.524 . S
C6421 C6422 1.415 . S
C6422 H6398 0.950 . S
C6422 C6417 1.363 . S
C6422 C6421 1.415 . S
C6423 H6399 0.951 . S
C6423 C6424 1.366 . S
C6423 C6425 1.388 . S
C6424 C6423 1.366 . S
C6424 C6428 1.385 . S
C6425 H6400 0.951 . S
C6425 C6423 1.388 . S
C6425 C6426 1.366 . S
C6426 C6425 1.366 . S
C6426 C6427 1.414 . S
C6426 C6429 1.499 . S
C6427 H6401 0.950 . S
C6427 C6426 1.414 . S
C6427 C6428 1.374 . S
C6428 H6402 0.950 . S
C6428 C6424 1.385 . S
C6428 C6427 1.374 . S
C6429 C6426 1.499 . S
C6429 C6430 1.373 . S
C6429 C6431 1.389 . S
C6430 H6403 0.950 . S
C6430 C6416 1.377 . S
C6430 C6429 1.373 . S
C6431 C6415 1.377 . S
C6431 C6429 1.389 . S
C6431 C6432 1.524 . S
C6432 C6431 1.524 . S
C6432 C6433 1.397 . S
C6432 C6437 1.363 . S
C6433 H6404 0.950 . S
C6433 C6432 1.397 . S
C6433 C6434 1.334 . S
C6434 H6405 0.950 . S
C6434 C6433 1.334 . S
C6434 C6435 1.287 . S
C6435 C6434 1.287 . S
C6435 C6436 1.524 . S
C6435 H6438 0.999 . S
C6436 H6406 0.950 . S
C6436 C6435 1.524 . S
C6436 C6437 1.415 . S
C6437 H6407 0.950 . S
C6437 C6432 1.363 . S
C6437 C6436 1.415 . S
H6438 C6435 0.999 . S
H6439 C6420 0.913 . S
H6440 C6458 0.951 . S
H6441 C6460 0.951 . S
H6442 C6462 0.950 . S
H6443 C6463 0.950 . S
H6444 C6465 0.950 . S
H6445 C6468 0.950 . S
H6446 C6469 0.950 . S
H6447 C6471 0.950 . S
H6448 C6472 0.950 . S
H6449 C6473 0.951 . S
H6450 C6475 0.951 . S
H6451 C6477 0.950 . S
H6452 C6478 0.950 . S
H6453 C6480 0.950 . S
H6454 C6483 0.950 . S
H6455 C6484 0.950 . S
H6456 C6486 0.950 . S
H6457 C6487 0.950 . S
C6458 H6440 0.951 . S
C6458 C6459 1.366 . S
C6458 C6460 1.388 . S
C6459 C6458 1.366 . S
C6459 C6463 1.385 . S
C6460 H6441 0.951 . S
C6460 C6458 1.388 . S
C6460 C6461 1.366 . S
C6461 C6460 1.366 . S
C6461 C6462 1.414 . S
C6461 C6464 1.499 . S
C6462 H6442 0.950 . S
C6462 C6461 1.414 . S
C6462 C6463 1.374 . S
C6463 H6443 0.950 . S
C6463 C6459 1.385 . S
C6463 C6462 1.374 . S
C6464 C6461 1.499 . S
C6464 C6465 1.373 . S
C6464 C6466 1.389 . S
C6465 H6444 0.950 . S
C6465 C6464 1.373 . S
C6465 C6481 1.377 . S
C6466 C6464 1.389 . S
C6466 C6467 1.524 . S
C6466 C6480 1.377 . S
C6467 C6466 1.524 . S
C6467 C6468 1.397 . S
C6467 C6472 1.363 . S
C6468 H6445 0.950 . S
C6468 C6467 1.397 . S
C6468 C6469 1.334 . S
C6469 H6446 0.950 . S
C6469 C6468 1.334 . S
C6469 C6470 1.287 . S
C6470 C6469 1.287 . S
C6470 C6471 1.524 . S
C6470 H6489 0.913 . S
C6471 H6447 0.950 . S
C6471 C6470 1.524 . S
C6471 C6472 1.415 . S
C6472 H6448 0.950 . S
C6472 C6467 1.363 . S
C6472 C6471 1.415 . S
C6473 H6449 0.951 . S
C6473 C6474 1.366 . S
C6473 C6475 1.388 . S
C6474 C6473 1.366 . S
C6474 C6478 1.385 . S
C6475 H6450 0.951 . S
C6475 C6473 1.388 . S
C6475 C6476 1.366 . S
C6476 C6475 1.366 . S
C6476 C6477 1.414 . S
C6476 C6479 1.499 . S
C6477 H6451 0.950 . S
C6477 C6476 1.414 . S
C6477 C6478 1.374 . S
C6478 H6452 0.950 . S
C6478 C6474 1.385 . S
C6478 C6477 1.374 . S
C6479 C6476 1.499 . S
C6479 C6480 1.373 . S
C6479 C6481 1.389 . S
C6480 H6453 0.950 . S
C6480 C6466 1.377 . S
C6480 C6479 1.373 . S
C6481 C6465 1.377 . S
C6481 C6479 1.389 . S
C6481 C6482 1.524 . S
C6482 C6481 1.524 . S
C6482 C6483 1.397 . S
C6482 C6487 1.363 . S
C6483 H6454 0.950 . S
C6483 C6482 1.397 . S
C6483 C6484 1.334 . S
C6484 H6455 0.950 . S
C6484 C6483 1.334 . S
C6484 C6485 1.287 . S
C6485 C6484 1.287 . S
C6485 C6486 1.524 . S
C6485 H6488 0.999 . S
C6486 H6456 0.950 . S
C6486 C6485 1.524 . S
C6486 C6487 1.415 . S
C6487 H6457 0.950 . S
C6487 C6482 1.363 . S
C6487 C6486 1.415 . S
H6488 C6485 0.999 . S
H6489 C6470 0.913 . S
H6490 C6508 0.951 . S
H6491 C6510 0.951 . S
H6492 C6512 0.950 . S
H6493 C6513 0.950 . S
H6494 C6515 0.950 . S
H6495 C6518 0.950 . S
H6496 C6519 0.950 . S
H6497 C6521 0.950 . S
H6498 C6522 0.950 . S
H6499 C6523 0.951 . S
H6500 C6525 0.951 . S
H6501 C6527 0.950 . S
H6502 C6528 0.950 . S
H6503 C6530 0.950 . S
H6504 C6533 0.950 . S
H6505 C6534 0.950 . S
H6506 C6536 0.950 . S
H6507 C6537 0.950 . S
C6508 H6490 0.951 . S
C6508 C6509 1.366 . S
C6508 C6510 1.388 . S
C6509 C6508 1.366 . S
C6509 C6513 1.385 . S
C6510 H6491 0.951 . S
C6510 C6508 1.388 . S
C6510 C6511 1.366 . S
C6511 C6510 1.366 . S
C6511 C6512 1.414 . S
C6511 C6514 1.499 . S
C6512 H6492 0.950 . S
C6512 C6511 1.414 . S
C6512 C6513 1.374 . S
C6513 H6493 0.950 . S
C6513 C6509 1.385 . S
C6513 C6512 1.374 . S
C6514 C6511 1.499 . S
C6514 C6515 1.373 . S
C6514 C6516 1.389 . S
C6515 H6494 0.950 . S
C6515 C6514 1.373 . S
C6515 C6531 1.377 . S
C6516 C6514 1.389 . S
C6516 C6517 1.524 . S
C6516 C6530 1.377 . S
C6517 C6516 1.524 . S
C6517 C6518 1.397 . S
C6517 C6522 1.363 . S
C6518 H6495 0.950 . S
C6518 C6517 1.397 . S
C6518 C6519 1.334 . S
C6519 H6496 0.950 . S
C6519 C6518 1.334 . S
C6519 C6520 1.287 . S
C6520 C6519 1.287 . S
C6520 C6521 1.524 . S
C6520 H6539 0.913 . S
C6521 H6497 0.950 . S
C6521 C6520 1.524 . S
C6521 C6522 1.415 . S
C6522 H6498 0.950 . S
C6522 C6517 1.363 . S
C6522 C6521 1.415 . S
C6523 H6499 0.951 . S
C6523 C6524 1.366 . S
C6523 C6525 1.388 . S
C6524 C6523 1.366 . S
C6524 C6528 1.385 . S
C6525 H6500 0.951 . S
C6525 C6523 1.388 . S
C6525 C6526 1.366 . S
C6526 C6525 1.366 . S
C6526 C6527 1.414 . S
C6526 C6529 1.499 . S
C6527 H6501 0.950 . S
C6527 C6526 1.414 . S
C6527 C6528 1.374 . S
C6528 H6502 0.950 . S
C6528 C6524 1.385 . S
C6528 C6527 1.374 . S
C6529 C6526 1.499 . S
C6529 C6530 1.373 . S
C6529 C6531 1.389 . S
C6530 H6503 0.950 . S
C6530 C6516 1.377 . S
C6530 C6529 1.373 . S
C6531 C6515 1.377 . S
C6531 C6529 1.389 . S
C6531 C6532 1.524 . S
C6532 C6531 1.524 . S
C6532 C6533 1.397 . S
C6532 C6537 1.363 . S
C6533 H6504 0.950 . S
C6533 C6532 1.397 . S
C6533 C6534 1.334 . S
C6534 H6505 0.950 . S
C6534 C6533 1.334 . S
C6534 C6535 1.287 . S
C6535 C6534 1.287 . S
C6535 C6536 1.524 . S
C6535 H6538 0.999 . S
C6536 H6506 0.950 . S
C6536 C6535 1.524 . S
C6536 C6537 1.415 . S
C6537 H6507 0.950 . S
C6537 C6532 1.363 . S
C6537 C6536 1.415 . S
H6538 C6535 0.999 . S
H6539 C6520 0.913 . S
H6540 C6558 0.951 . S
H6541 C6560 0.951 . S
H6542 C6562 0.950 . S
H6543 C6563 0.950 . S
H6544 C6565 0.950 . S
H6545 C6568 0.950 . S
H6546 C6569 0.950 . S
H6547 C6571 0.950 . S
H6548 C6572 0.950 . S
H6549 C6573 0.951 . S
H6550 C6575 0.951 . S
H6551 C6577 0.950 . S
H6552 C6578 0.950 . S
H6553 C6580 0.950 . S
H6554 C6583 0.950 . S
H6555 C6584 0.950 . S
H6556 C6586 0.950 . S
H6557 C6587 0.950 . S
C6558 H6540 0.951 . S
C6558 C6559 1.366 . S
C6558 C6560 1.388 . S
C6559 C6558 1.366 . S
C6559 C6563 1.385 . S
C6560 H6541 0.951 . S
C6560 C6558 1.388 . S
C6560 C6561 1.366 . S
C6561 C6560 1.366 . S
C6561 C6562 1.414 . S
C6561 C6564 1.499 . S
C6562 H6542 0.950 . S
C6562 C6561 1.414 . S
C6562 C6563 1.374 . S
C6563 H6543 0.950 . S
C6563 C6559 1.385 . S
C6563 C6562 1.374 . S
C6564 C6561 1.499 . S
C6564 C6565 1.373 . S
C6564 C6566 1.389 . S
C6565 H6544 0.950 . S
C6565 C6564 1.373 . S
C6565 C6581 1.377 . S
C6566 C6564 1.389 . S
C6566 C6567 1.524 . S
C6566 C6580 1.377 . S
C6567 C6566 1.524 . S
C6567 C6568 1.397 . S
C6567 C6572 1.363 . S
C6568 H6545 0.950 . S
C6568 C6567 1.397 . S
C6568 C6569 1.334 . S
C6569 H6546 0.950 . S
C6569 C6568 1.334 . S
C6569 C6570 1.287 . S
C6570 C6569 1.287 . S
C6570 C6571 1.524 . S
C6570 H6589 0.913 . S
C6571 H6547 0.950 . S
C6571 C6570 1.524 . S
C6571 C6572 1.415 . S
C6572 H6548 0.950 . S
C6572 C6567 1.363 . S
C6572 C6571 1.415 . S
C6573 H6549 0.951 . S
C6573 C6574 1.366 . S
C6573 C6575 1.388 . S
C6574 C6573 1.366 . S
C6574 C6578 1.385 . S
C6575 H6550 0.951 . S
C6575 C6573 1.388 . S
C6575 C6576 1.366 . S
C6576 C6575 1.366 . S
C6576 C6577 1.414 . S
C6576 C6579 1.499 . S
C6577 H6551 0.950 . S
C6577 C6576 1.414 . S
C6577 C6578 1.374 . S
C6578 H6552 0.950 . S
C6578 C6574 1.385 . S
C6578 C6577 1.374 . S
C6579 C6576 1.499 . S
C6579 C6580 1.373 . S
C6579 C6581 1.389 . S
C6580 H6553 0.950 . S
C6580 C6566 1.377 . S
C6580 C6579 1.373 . S
C6581 C6565 1.377 . S
C6581 C6579 1.389 . S
C6581 C6582 1.524 . S
C6582 C6581 1.524 . S
C6582 C6583 1.397 . S
C6582 C6587 1.363 . S
C6583 H6554 0.950 . S
C6583 C6582 1.397 . S
C6583 C6584 1.334 . S
C6584 H6555 0.950 . S
C6584 C6583 1.334 . S
C6584 C6585 1.287 . S
C6585 C6584 1.287 . S
C6585 C6586 1.524 . S
C6585 H6588 0.999 . S
C6586 H6556 0.950 . S
C6586 C6585 1.524 . S
C6586 C6587 1.415 . S
C6587 H6557 0.950 . S
C6587 C6582 1.363 . S
C6587 C6586 1.415 . S
H6588 C6585 0.999 . S
H6589 C6570 0.913 . S
H6590 C6608 0.951 . S
H6591 C6610 0.951 . S
H6592 C6612 0.950 . S
H6593 C6613 0.950 . S
H6594 C6615 0.950 . S
H6595 C6618 0.950 . S
H6596 C6619 0.950 . S
H6597 C6621 0.950 . S
H6598 C6622 0.950 . S
H6599 C6623 0.951 . S
H6600 C6625 0.951 . S
H6601 C6627 0.950 . S
H6602 C6628 0.950 . S
H6603 C6630 0.950 . S
H6604 C6633 0.950 . S
H6605 C6634 0.950 . S
H6606 C6636 0.950 . S
H6607 C6637 0.950 . S
C6608 H6590 0.951 . S
C6608 C6609 1.366 . S
C6608 C6610 1.388 . S
C6609 C6608 1.366 . S
C6609 C6613 1.385 . S
C6610 H6591 0.951 . S
C6610 C6608 1.388 . S
C6610 C6611 1.366 . S
C6611 C6610 1.366 . S
C6611 C6612 1.414 . S
C6611 C6614 1.499 . S
C6612 H6592 0.950 . S
C6612 C6611 1.414 . S
C6612 C6613 1.374 . S
C6613 H6593 0.950 . S
C6613 C6609 1.385 . S
C6613 C6612 1.374 . S
C6614 C6611 1.499 . S
C6614 C6615 1.373 . S
C6614 C6616 1.389 . S
C6615 H6594 0.950 . S
C6615 C6614 1.373 . S
C6615 C6631 1.377 . S
C6616 C6614 1.389 . S
C6616 C6617 1.524 . S
C6616 C6630 1.377 . S
C6617 C6616 1.524 . S
C6617 C6618 1.397 . S
C6617 C6622 1.363 . S
C6618 H6595 0.950 . S
C6618 C6617 1.397 . S
C6618 C6619 1.334 . S
C6619 H6596 0.950 . S
C6619 C6618 1.334 . S
C6619 C6620 1.287 . S
C6620 C6619 1.287 . S
C6620 C6621 1.524 . S
C6620 H6639 0.913 . S
C6621 H6597 0.950 . S
C6621 C6620 1.524 . S
C6621 C6622 1.415 . S
C6622 H6598 0.950 . S
C6622 C6617 1.363 . S
C6622 C6621 1.415 . S
C6623 H6599 0.951 . S
C6623 C6624 1.366 . S
C6623 C6625 1.388 . S
C6624 C6623 1.366 . S
C6624 C6628 1.385 . S
C6625 H6600 0.951 . S
C6625 C6623 1.388 . S
C6625 C6626 1.366 . S
C6626 C6625 1.366 . S
C6626 C6627 1.414 . S
C6626 C6629 1.499 . S
C6627 H6601 0.950 . S
C6627 C6626 1.414 . S
C6627 C6628 1.374 . S
C6628 H6602 0.950 . S
C6628 C6624 1.385 . S
C6628 C6627 1.374 . S
C6629 C6626 1.499 . S
C6629 C6630 1.373 . S
C6629 C6631 1.389 . S
C6630 H6603 0.950 . S
C6630 C6616 1.377 . S
C6630 C6629 1.373 . S
C6631 C6615 1.377 . S
C6631 C6629 1.389 . S
C6631 C6632 1.524 . S
C6632 C6631 1.524 . S
C6632 C6633 1.397 . S
C6632 C6637 1.363 . S
C6633 H6604 0.950 . S
C6633 C6632 1.397 . S
C6633 C6634 1.334 . S
C6634 H6605 0.950 . S
C6634 C6633 1.334 . S
C6634 C6635 1.287 . S
C6635 C6634 1.287 . S
C6635 C6636 1.524 . S
C6635 H6638 0.999 . S
C6636 H6606 0.950 . S
C6636 C6635 1.524 . S
C6636 C6637 1.415 . S
C6637 H6607 0.950 . S
C6637 C6632 1.363 . S
C6637 C6636 1.415 . S
H6638 C6635 0.999 . S
H6639 C6620 0.913 . S
H6640 C6658 0.951 . S
H6641 C6660 0.951 . S
H6642 C6662 0.950 . S
H6643 C6663 0.950 . S
H6644 C6665 0.950 . S
H6645 C6668 0.950 . S
H6646 C6669 0.950 . S
H6647 C6671 0.950 . S
H6648 C6672 0.950 . S
H6649 C6673 0.951 . S
H6650 C6675 0.951 . S
H6651 C6677 0.950 . S
H6652 C6678 0.950 . S
H6653 C6680 0.950 . S
H6654 C6683 0.950 . S
H6655 C6684 0.950 . S
H6656 C6686 0.950 . S
H6657 C6687 0.950 . S
C6658 H6640 0.951 . S
C6658 C6659 1.366 . S
C6658 C6660 1.388 . S
C6659 C6658 1.366 . S
C6659 C6663 1.385 . S
C6660 H6641 0.951 . S
C6660 C6658 1.388 . S
C6660 C6661 1.366 . S
C6661 C6660 1.366 . S
C6661 C6662 1.414 . S
C6661 C6664 1.499 . S
C6662 H6642 0.950 . S
C6662 C6661 1.414 . S
C6662 C6663 1.374 . S
C6663 H6643 0.950 . S
C6663 C6659 1.385 . S
C6663 C6662 1.374 . S
C6664 C6661 1.499 . S
C6664 C6665 1.373 . S
C6664 C6666 1.389 . S
C6665 H6644 0.950 . S
C6665 C6664 1.373 . S
C6665 C6681 1.377 . S
C6666 C6664 1.389 . S
C6666 C6667 1.524 . S
C6666 C6680 1.377 . S
C6667 C6666 1.524 . S
C6667 C6668 1.397 . S
C6667 C6672 1.363 . S
C6668 H6645 0.950 . S
C6668 C6667 1.397 . S
C6668 C6669 1.334 . S
C6669 H6646 0.950 . S
C6669 C6668 1.334 . S
C6669 C6670 1.287 . S
C6670 C6669 1.287 . S
C6670 C6671 1.524 . S
C6670 H6689 0.913 . S
C6671 H6647 0.950 . S
C6671 C6670 1.524 . S
C6671 C6672 1.415 . S
C6672 H6648 0.950 . S
C6672 C6667 1.363 . S
C6672 C6671 1.415 . S
C6673 H6649 0.951 . S
C6673 C6674 1.366 . S
C6673 C6675 1.388 . S
C6674 C6673 1.366 . S
C6674 C6678 1.385 . S
C6675 H6650 0.951 . S
C6675 C6673 1.388 . S
C6675 C6676 1.366 . S
C6676 C6675 1.366 . S
C6676 C6677 1.414 . S
C6676 C6679 1.499 . S
C6677 H6651 0.950 . S
C6677 C6676 1.414 . S
C6677 C6678 1.374 . S
C6678 H6652 0.950 . S
C6678 C6674 1.385 . S
C6678 C6677 1.374 . S
C6679 C6676 1.499 . S
C6679 C6680 1.373 . S
C6679 C6681 1.389 . S
C6680 H6653 0.950 . S
C6680 C6666 1.377 . S
C6680 C6679 1.373 . S
C6681 C6665 1.377 . S
C6681 C6679 1.389 . S
C6681 C6682 1.524 . S
C6682 C6681 1.524 . S
C6682 C6683 1.397 . S
C6682 C6687 1.363 . S
C6683 H6654 0.950 . S
C6683 C6682 1.397 . S
C6683 C6684 1.334 . S
C6684 H6655 0.950 . S
C6684 C6683 1.334 . S
C6684 C6685 1.287 . S
C6685 C6684 1.287 . S
C6685 C6686 1.524 . S
C6685 H6688 0.999 . S
C6686 H6656 0.950 . S
C6686 C6685 1.524 . S
C6686 C6687 1.415 . S
C6687 H6657 0.950 . S
C6687 C6682 1.363 . S
C6687 C6686 1.415 . S
H6688 C6685 0.999 . S
H6689 C6670 0.913 . S
H6690 C6708 0.951 . S
H6691 C6710 0.951 . S
H6692 C6712 0.950 . S
H6693 C6713 0.950 . S
H6694 C6715 0.950 . S
H6695 C6718 0.950 . S
H6696 C6719 0.950 . S
H6697 C6721 0.950 . S
H6698 C6722 0.950 . S
H6699 C6723 0.951 . S
H6700 C6725 0.951 . S
H6701 C6727 0.950 . S
H6702 C6728 0.950 . S
H6703 C6730 0.950 . S
H6704 C6733 0.950 . S
H6705 C6734 0.950 . S
H6706 C6736 0.950 . S
H6707 C6737 0.950 . S
C6708 H6690 0.951 . S
C6708 C6709 1.366 . S
C6708 C6710 1.388 . S
C6709 C6708 1.366 . S
C6709 C6713 1.385 . S
C6710 H6691 0.951 . S
C6710 C6708 1.388 . S
C6710 C6711 1.366 . S
C6711 C6710 1.366 . S
C6711 C6712 1.414 . S
C6711 C6714 1.499 . S
C6712 H6692 0.950 . S
C6712 C6711 1.414 . S
C6712 C6713 1.374 . S
C6713 H6693 0.950 . S
C6713 C6709 1.385 . S
C6713 C6712 1.374 . S
C6714 C6711 1.499 . S
C6714 C6715 1.373 . S
C6714 C6716 1.389 . S
C6715 H6694 0.950 . S
C6715 C6714 1.373 . S
C6715 C6731 1.377 . S
C6716 C6714 1.389 . S
C6716 C6717 1.524 . S
C6716 C6730 1.377 . S
C6717 C6716 1.524 . S
C6717 C6718 1.397 . S
C6717 C6722 1.363 . S
C6718 H6695 0.950 . S
C6718 C6717 1.397 . S
C6718 C6719 1.334 . S
C6719 H6696 0.950 . S
C6719 C6718 1.334 . S
C6719 C6720 1.287 . S
C6720 C6719 1.287 . S
C6720 C6721 1.524 . S
C6720 H6739 0.913 . S
C6721 H6697 0.950 . S
C6721 C6720 1.524 . S
C6721 C6722 1.415 . S
C6722 H6698 0.950 . S
C6722 C6717 1.363 . S
C6722 C6721 1.415 . S
C6723 H6699 0.951 . S
C6723 C6724 1.366 . S
C6723 C6725 1.388 . S
C6724 C6723 1.366 . S
C6724 C6728 1.385 . S
C6725 H6700 0.951 . S
C6725 C6723 1.388 . S
C6725 C6726 1.366 . S
C6726 C6725 1.366 . S
C6726 C6727 1.414 . S
C6726 C6729 1.499 . S
C6727 H6701 0.950 . S
C6727 C6726 1.414 . S
C6727 C6728 1.374 . S
C6728 H6702 0.950 . S
C6728 C6724 1.385 . S
C6728 C6727 1.374 . S
C6729 C6726 1.499 . S
C6729 C6730 1.373 . S
C6729 C6731 1.389 . S
C6730 H6703 0.950 . S
C6730 C6716 1.377 . S
C6730 C6729 1.373 . S
C6731 C6715 1.377 . S
C6731 C6729 1.389 . S
C6731 C6732 1.524 . S
C6732 C6731 1.524 . S
C6732 C6733 1.397 . S
C6732 C6737 1.363 . S
C6733 H6704 0.950 . S
C6733 C6732 1.397 . S
C6733 C6734 1.334 . S
C6734 H6705 0.950 . S
C6734 C6733 1.334 . S
C6734 C6735 1.287 . S
C6735 C6734 1.287 . S
C6735 C6736 1.524 . S
C6735 H6738 0.999 . S
C6736 H6706 0.950 . S
C6736 C6735 1.524 . S
C6736 C6737 1.415 . S
C6737 H6707 0.950 . S
C6737 C6732 1.363 . S
C6737 C6736 1.415 . S
H6738 C6735 0.999 . S
H6739 C6720 0.913 . S
H6740 C6758 0.951 . S
H6741 C6760 0.951 . S
H6742 C6762 0.950 . S
H6743 C6763 0.950 . S
H6744 C6765 0.950 . S
H6745 C6768 0.950 . S
H6746 C6769 0.950 . S
H6747 C6771 0.950 . S
H6748 C6772 0.950 . S
H6749 C6773 0.951 . S
H6750 C6775 0.951 . S
H6751 C6777 0.950 . S
H6752 C6778 0.950 . S
H6753 C6780 0.950 . S
H6754 C6783 0.950 . S
H6755 C6784 0.950 . S
H6756 C6786 0.950 . S
H6757 C6787 0.950 . S
C6758 H6740 0.951 . S
C6758 C6759 1.366 . S
C6758 C6760 1.388 . S
C6759 C6758 1.366 . S
C6759 C6763 1.385 . S
C6760 H6741 0.951 . S
C6760 C6758 1.388 . S
C6760 C6761 1.366 . S
C6761 C6760 1.366 . S
C6761 C6762 1.414 . S
C6761 C6764 1.499 . S
C6762 H6742 0.950 . S
C6762 C6761 1.414 . S
C6762 C6763 1.374 . S
C6763 H6743 0.950 . S
C6763 C6759 1.385 . S
C6763 C6762 1.374 . S
C6764 C6761 1.499 . S
C6764 C6765 1.373 . S
C6764 C6766 1.389 . S
C6765 H6744 0.950 . S
C6765 C6764 1.373 . S
C6765 C6781 1.377 . S
C6766 C6764 1.389 . S
C6766 C6767 1.524 . S
C6766 C6780 1.377 . S
C6767 C6766 1.524 . S
C6767 C6768 1.397 . S
C6767 C6772 1.363 . S
C6768 H6745 0.950 . S
C6768 C6767 1.397 . S
C6768 C6769 1.334 . S
C6769 H6746 0.950 . S
C6769 C6768 1.334 . S
C6769 C6770 1.287 . S
C6770 C6769 1.287 . S
C6770 C6771 1.524 . S
C6770 H6789 0.913 . S
C6771 H6747 0.950 . S
C6771 C6770 1.524 . S
C6771 C6772 1.415 . S
C6772 H6748 0.950 . S
C6772 C6767 1.363 . S
C6772 C6771 1.415 . S
C6773 H6749 0.951 . S
C6773 C6774 1.366 . S
C6773 C6775 1.388 . S
C6774 C6773 1.366 . S
C6774 C6778 1.385 . S
C6775 H6750 0.951 . S
C6775 C6773 1.388 . S
C6775 C6776 1.366 . S
C6776 C6775 1.366 . S
C6776 C6777 1.414 . S
C6776 C6779 1.499 . S
C6777 H6751 0.950 . S
C6777 C6776 1.414 . S
C6777 C6778 1.374 . S
C6778 H6752 0.950 . S
C6778 C6774 1.385 . S
C6778 C6777 1.374 . S
C6779 C6776 1.499 . S
C6779 C6780 1.373 . S
C6779 C6781 1.389 . S
C6780 H6753 0.950 . S
C6780 C6766 1.377 . S
C6780 C6779 1.373 . S
C6781 C6765 1.377 . S
C6781 C6779 1.389 . S
C6781 C6782 1.524 . S
C6782 C6781 1.524 . S
C6782 C6783 1.397 . S
C6782 C6787 1.363 . S
C6783 H6754 0.950 . S
C6783 C6782 1.397 . S
C6783 C6784 1.334 . S
C6784 H6755 0.950 . S
C6784 C6783 1.334 . S
C6784 C6785 1.287 . S
C6785 C6784 1.287 . S
C6785 C6786 1.524 . S
C6785 H6788 0.999 . S
C6786 H6756 0.950 . S
C6786 C6785 1.524 . S
C6786 C6787 1.415 . S
C6787 H6757 0.950 . S
C6787 C6782 1.363 . S
C6787 C6786 1.415 . S
H6788 C6785 0.999 . S
H6789 C6770 0.913 . S
H6790 C6808 0.951 . S
H6791 C6810 0.951 . S
H6792 C6812 0.950 . S
H6793 C6813 0.950 . S
H6794 C6815 0.950 . S
H6795 C6818 0.950 . S
H6796 C6819 0.950 . S
H6797 C6821 0.950 . S
H6798 C6822 0.950 . S
H6799 C6823 0.951 . S
H6800 C6825 0.951 . S
H6801 C6827 0.950 . S
H6802 C6828 0.950 . S
H6803 C6830 0.950 . S
H6804 C6833 0.950 . S
H6805 C6834 0.950 . S
H6806 C6836 0.950 . S
H6807 C6837 0.950 . S
C6808 H6790 0.951 . S
C6808 C6809 1.366 . S
C6808 C6810 1.388 . S
C6809 C6808 1.366 . S
C6809 C6813 1.385 . S
C6810 H6791 0.951 . S
C6810 C6808 1.388 . S
C6810 C6811 1.366 . S
C6811 C6810 1.366 . S
C6811 C6812 1.414 . S
C6811 C6814 1.499 . S
C6812 H6792 0.950 . S
C6812 C6811 1.414 . S
C6812 C6813 1.374 . S
C6813 H6793 0.950 . S
C6813 C6809 1.385 . S
C6813 C6812 1.374 . S
C6814 C6811 1.499 . S
C6814 C6815 1.373 . S
C6814 C6816 1.389 . S
C6815 H6794 0.950 . S
C6815 C6814 1.373 . S
C6815 C6831 1.377 . S
C6816 C6814 1.389 . S
C6816 C6817 1.524 . S
C6816 C6830 1.377 . S
C6817 C6816 1.524 . S
C6817 C6818 1.397 . S
C6817 C6822 1.363 . S
C6818 H6795 0.950 . S
C6818 C6817 1.397 . S
C6818 C6819 1.334 . S
C6819 H6796 0.950 . S
C6819 C6818 1.334 . S
C6819 C6820 1.287 . S
C6820 C6819 1.287 . S
C6820 C6821 1.524 . S
C6820 H6839 0.913 . S
C6821 H6797 0.950 . S
C6821 C6820 1.524 . S
C6821 C6822 1.415 . S
C6822 H6798 0.950 . S
C6822 C6817 1.363 . S
C6822 C6821 1.415 . S
C6823 H6799 0.951 . S
C6823 C6824 1.366 . S
C6823 C6825 1.388 . S
C6824 C6823 1.366 . S
C6824 C6828 1.385 . S
C6825 H6800 0.951 . S
C6825 C6823 1.388 . S
C6825 C6826 1.366 . S
C6826 C6825 1.366 . S
C6826 C6827 1.414 . S
C6826 C6829 1.499 . S
C6827 H6801 0.950 . S
C6827 C6826 1.414 . S
C6827 C6828 1.374 . S
C6828 H6802 0.950 . S
C6828 C6824 1.385 . S
C6828 C6827 1.374 . S
C6829 C6826 1.499 . S
C6829 C6830 1.373 . S
C6829 C6831 1.389 . S
C6830 H6803 0.950 . S
C6830 C6816 1.377 . S
C6830 C6829 1.373 . S
C6831 C6815 1.377 . S
C6831 C6829 1.389 . S
C6831 C6832 1.524 . S
C6832 C6831 1.524 . S
C6832 C6833 1.397 . S
C6832 C6837 1.363 . S
C6833 H6804 0.950 . S
C6833 C6832 1.397 . S
C6833 C6834 1.334 . S
C6834 H6805 0.950 . S
C6834 C6833 1.334 . S
C6834 C6835 1.287 . S
C6835 C6834 1.287 . S
C6835 C6836 1.524 . S
C6835 H6838 0.999 . S
C6836 H6806 0.950 . S
C6836 C6835 1.524 . S
C6836 C6837 1.415 . S
C6837 H6807 0.950 . S
C6837 C6832 1.363 . S
C6837 C6836 1.415 . S
H6838 C6835 0.999 . S
H6839 C6820 0.913 . S
H6840 C6858 0.951 . S
H6841 C6860 0.951 . S
H6842 C6862 0.950 . S
H6843 C6863 0.950 . S
H6844 C6865 0.950 . S
H6845 C6868 0.950 . S
H6846 C6869 0.950 . S
H6847 C6871 0.950 . S
H6848 C6872 0.950 . S
H6849 C6873 0.951 . S
H6850 C6875 0.951 . S
H6851 C6877 0.950 . S
H6852 C6878 0.950 . S
H6853 C6880 0.950 . S
H6854 C6883 0.950 . S
H6855 C6884 0.950 . S
H6856 C6886 0.950 . S
H6857 C6887 0.950 . S
C6858 H6840 0.951 . S
C6858 C6859 1.366 . S
C6858 C6860 1.388 . S
C6859 C6858 1.366 . S
C6859 C6863 1.385 . S
C6860 H6841 0.951 . S
C6860 C6858 1.388 . S
C6860 C6861 1.366 . S
C6861 C6860 1.366 . S
C6861 C6862 1.414 . S
C6861 C6864 1.499 . S
C6862 H6842 0.950 . S
C6862 C6861 1.414 . S
C6862 C6863 1.374 . S
C6863 H6843 0.950 . S
C6863 C6859 1.385 . S
C6863 C6862 1.374 . S
C6864 C6861 1.499 . S
C6864 C6865 1.373 . S
C6864 C6866 1.389 . S
C6865 H6844 0.950 . S
C6865 C6864 1.373 . S
C6865 C6881 1.377 . S
C6866 C6864 1.389 . S
C6866 C6867 1.524 . S
C6866 C6880 1.377 . S
C6867 C6866 1.524 . S
C6867 C6868 1.397 . S
C6867 C6872 1.363 . S
C6868 H6845 0.950 . S
C6868 C6867 1.397 . S
C6868 C6869 1.334 . S
C6869 H6846 0.950 . S
C6869 C6868 1.334 . S
C6869 C6870 1.287 . S
C6870 C6869 1.287 . S
C6870 C6871 1.524 . S
C6870 H6889 0.913 . S
C6871 H6847 0.950 . S
C6871 C6870 1.524 . S
C6871 C6872 1.415 . S
C6872 H6848 0.950 . S
C6872 C6867 1.363 . S
C6872 C6871 1.415 . S
C6873 H6849 0.951 . S
C6873 C6874 1.366 . S
C6873 C6875 1.388 . S
C6874 C6873 1.366 . S
C6874 C6878 1.385 . S
C6875 H6850 0.951 . S
C6875 C6873 1.388 . S
C6875 C6876 1.366 . S
C6876 C6875 1.366 . S
C6876 C6877 1.414 . S
C6876 C6879 1.499 . S
C6877 H6851 0.950 . S
C6877 C6876 1.414 . S
C6877 C6878 1.374 . S
C6878 H6852 0.950 . S
C6878 C6874 1.385 . S
C6878 C6877 1.374 . S
C6879 C6876 1.499 . S
C6879 C6880 1.373 . S
C6879 C6881 1.389 . S
C6880 H6853 0.950 . S
C6880 C6866 1.377 . S
C6880 C6879 1.373 . S
C6881 C6865 1.377 . S
C6881 C6879 1.389 . S
C6881 C6882 1.524 . S
C6882 C6881 1.524 . S
C6882 C6883 1.397 . S
C6882 C6887 1.363 . S
C6883 H6854 0.950 . S
C6883 C6882 1.397 . S
C6883 C6884 1.334 . S
C6884 H6855 0.950 . S
C6884 C6883 1.334 . S
C6884 C6885 1.287 . S
C6885 C6884 1.287 . S
C6885 C6886 1.524 . S
C6885 H6888 0.999 . S
C6886 H6856 0.950 . S
C6886 C6885 1.524 . S
C6886 C6887 1.415 . S
C6887 H6857 0.950 . S
C6887 C6882 1.363 . S
C6887 C6886 1.415 . S
H6888 C6885 0.999 . S
H6889 C6870 0.913 . S
H6890 C6908 0.951 . S
H6891 C6910 0.951 . S
H6892 C6912 0.950 . S
H6893 C6913 0.950 . S
H6894 C6915 0.950 . S
H6895 C6918 0.950 . S
H6896 C6919 0.950 . S
H6897 C6921 0.950 . S
H6898 C6922 0.950 . S
H6899 C6923 0.951 . S
H6900 C6925 0.951 . S
H6901 C6927 0.950 . S
H6902 C6928 0.950 . S
H6903 C6930 0.950 . S
H6904 C6933 0.950 . S
H6905 C6934 0.950 . S
H6906 C6936 0.950 . S
H6907 C6937 0.950 . S
C6908 H6890 0.951 . S
C6908 C6909 1.366 . S
C6908 C6910 1.388 . S
C6909 C6908 1.366 . S
C6909 C6913 1.385 . S
C6910 H6891 0.951 . S
C6910 C6908 1.388 . S
C6910 C6911 1.366 . S
C6911 C6910 1.366 . S
C6911 C6912 1.414 . S
C6911 C6914 1.499 . S
C6912 H6892 0.950 . S
C6912 C6911 1.414 . S
C6912 C6913 1.374 . S
C6913 H6893 0.950 . S
C6913 C6909 1.385 . S
C6913 C6912 1.374 . S
C6914 C6911 1.499 . S
C6914 C6915 1.373 . S
C6914 C6916 1.389 . S
C6915 H6894 0.950 . S
C6915 C6914 1.373 . S
C6915 C6931 1.377 . S
C6916 C6914 1.389 . S
C6916 C6917 1.524 . S
C6916 C6930 1.377 . S
C6917 C6916 1.524 . S
C6917 C6918 1.397 . S
C6917 C6922 1.363 . S
C6918 H6895 0.950 . S
C6918 C6917 1.397 . S
C6918 C6919 1.334 . S
C6919 H6896 0.950 . S
C6919 C6918 1.334 . S
C6919 C6920 1.287 . S
C6920 C6919 1.287 . S
C6920 C6921 1.524 . S
C6920 H6939 0.913 . S
C6921 H6897 0.950 . S
C6921 C6920 1.524 . S
C6921 C6922 1.415 . S
C6922 H6898 0.950 . S
C6922 C6917 1.363 . S
C6922 C6921 1.415 . S
C6923 H6899 0.951 . S
C6923 C6924 1.366 . S
C6923 C6925 1.388 . S
C6924 C6923 1.366 . S
C6924 C6928 1.385 . S
C6925 H6900 0.951 . S
C6925 C6923 1.388 . S
C6925 C6926 1.366 . S
C6926 C6925 1.366 . S
C6926 C6927 1.414 . S
C6926 C6929 1.499 . S
C6927 H6901 0.950 . S
C6927 C6926 1.414 . S
C6927 C6928 1.374 . S
C6928 H6902 0.950 . S
C6928 C6924 1.385 . S
C6928 C6927 1.374 . S
C6929 C6926 1.499 . S
C6929 C6930 1.373 . S
C6929 C6931 1.389 . S
C6930 H6903 0.950 . S
C6930 C6916 1.377 . S
C6930 C6929 1.373 . S
C6931 C6915 1.377 . S
C6931 C6929 1.389 . S
C6931 C6932 1.524 . S
C6932 C6931 1.524 . S
C6932 C6933 1.397 . S
C6932 C6937 1.363 . S
C6933 H6904 0.950 . S
C6933 C6932 1.397 . S
C6933 C6934 1.334 . S
C6934 H6905 0.950 . S
C6934 C6933 1.334 . S
C6934 C6935 1.287 . S
C6935 C6934 1.287 . S
C6935 C6936 1.524 . S
C6935 H6938 0.999 . S
C6936 H6906 0.950 . S
C6936 C6935 1.524 . S
C6936 C6937 1.415 . S
C6937 H6907 0.950 . S
C6937 C6932 1.363 . S
C6937 C6936 1.415 . S
H6938 C6935 0.999 . S
H6939 C6920 0.913 . S
H6940 C6958 0.951 . S
H6941 C6960 0.951 . S
H6942 C6962 0.950 . S
H6943 C6963 0.950 . S
H6944 C6965 0.950 . S
H6945 C6968 0.950 . S
H6946 C6969 0.950 . S
H6947 C6971 0.950 . S
H6948 C6972 0.950 . S
H6949 C6973 0.951 . S
H6950 C6975 0.951 . S
H6951 C6977 0.950 . S
H6952 C6978 0.950 . S
H6953 C6980 0.950 . S
H6954 C6983 0.950 . S
H6955 C6984 0.950 . S
H6956 C6986 0.950 . S
H6957 C6987 0.950 . S
C6958 H6940 0.951 . S
C6958 C6959 1.366 . S
C6958 C6960 1.388 . S
C6959 C6958 1.366 . S
C6959 C6963 1.385 . S
C6960 H6941 0.951 . S
C6960 C6958 1.388 . S
C6960 C6961 1.366 . S
C6961 C6960 1.366 . S
C6961 C6962 1.414 . S
C6961 C6964 1.499 . S
C6962 H6942 0.950 . S
C6962 C6961 1.414 . S
C6962 C6963 1.374 . S
C6963 H6943 0.950 . S
C6963 C6959 1.385 . S
C6963 C6962 1.374 . S
C6964 C6961 1.499 . S
C6964 C6965 1.373 . S
C6964 C6966 1.389 . S
C6965 H6944 0.950 . S
C6965 C6964 1.373 . S
C6965 C6981 1.377 . S
C6966 C6964 1.389 . S
C6966 C6967 1.524 . S
C6966 C6980 1.377 . S
C6967 C6966 1.524 . S
C6967 C6968 1.397 . S
C6967 C6972 1.363 . S
C6968 H6945 0.950 . S
C6968 C6967 1.397 . S
C6968 C6969 1.334 . S
C6969 H6946 0.950 . S
C6969 C6968 1.334 . S
C6969 C6970 1.287 . S
C6970 C6969 1.287 . S
C6970 C6971 1.524 . S
C6970 H6989 0.913 . S
C6971 H6947 0.950 . S
C6971 C6970 1.524 . S
C6971 C6972 1.415 . S
C6972 H6948 0.950 . S
C6972 C6967 1.363 . S
C6972 C6971 1.415 . S
C6973 H6949 0.951 . S
C6973 C6974 1.366 . S
C6973 C6975 1.388 . S
C6974 C6973 1.366 . S
C6974 C6978 1.385 . S
C6975 H6950 0.951 . S
C6975 C6973 1.388 . S
C6975 C6976 1.366 . S
C6976 C6975 1.366 . S
C6976 C6977 1.414 . S
C6976 C6979 1.499 . S
C6977 H6951 0.950 . S
C6977 C6976 1.414 . S
C6977 C6978 1.374 . S
C6978 H6952 0.950 . S
C6978 C6974 1.385 . S
C6978 C6977 1.374 . S
C6979 C6976 1.499 . S
C6979 C6980 1.373 . S
C6979 C6981 1.389 . S
C6980 H6953 0.950 . S
C6980 C6966 1.377 . S
C6980 C6979 1.373 . S
C6981 C6965 1.377 . S
C6981 C6979 1.389 . S
C6981 C6982 1.524 . S
C6982 C6981 1.524 . S
C6982 C6983 1.397 . S
C6982 C6987 1.363 . S
C6983 H6954 0.950 . S
C6983 C6982 1.397 . S
C6983 C6984 1.334 . S
C6984 H6955 0.950 . S
C6984 C6983 1.334 . S
C6984 C6985 1.287 . S
C6985 C6984 1.287 . S
C6985 C6986 1.524 . S
C6985 H6988 0.999 . S
C6986 H6956 0.950 . S
C6986 C6985 1.524 . S
C6986 C6987 1.415 . S
C6987 H6957 0.950 . S
C6987 C6982 1.363 . S
C6987 C6986 1.415 . S
H6988 C6985 0.999 . S
H6989 C6970 0.913 . S
H6990 C7008 0.951 . S
H6991 C7010 0.951 . S
H6992 C7012 0.950 . S
H6993 C7013 0.950 . S
H6994 C7015 0.950 . S
H6995 C7018 0.950 . S
H6996 C7019 0.950 . S
H6997 C7021 0.950 . S
H6998 C7022 0.950 . S
H6999 C7023 0.951 . S
H7000 C7025 0.951 . S
H7001 C7027 0.950 . S
H7002 C7028 0.950 . S
H7003 C7030 0.950 . S
H7004 C7033 0.950 . S
H7005 C7034 0.950 . S
H7006 C7036 0.950 . S
H7007 C7037 0.950 . S
C7008 H6990 0.951 . S
C7008 C7009 1.366 . S
C7008 C7010 1.388 . S
C7009 C7008 1.366 . S
C7009 C7013 1.385 . S
C7010 H6991 0.951 . S
C7010 C7008 1.388 . S
C7010 C7011 1.366 . S
C7011 C7010 1.366 . S
C7011 C7012 1.414 . S
C7011 C7014 1.499 . S
C7012 H6992 0.950 . S
C7012 C7011 1.414 . S
C7012 C7013 1.374 . S
C7013 H6993 0.950 . S
C7013 C7009 1.385 . S
C7013 C7012 1.374 . S
C7014 C7011 1.499 . S
C7014 C7015 1.373 . S
C7014 C7016 1.389 . S
C7015 H6994 0.950 . S
C7015 C7014 1.373 . S
C7015 C7031 1.377 . S
C7016 C7014 1.389 . S
C7016 C7017 1.524 . S
C7016 C7030 1.377 . S
C7017 C7016 1.524 . S
C7017 C7018 1.397 . S
C7017 C7022 1.363 . S
C7018 H6995 0.950 . S
C7018 C7017 1.397 . S
C7018 C7019 1.334 . S
C7019 H6996 0.950 . S
C7019 C7018 1.334 . S
C7019 C7020 1.287 . S
C7020 C7019 1.287 . S
C7020 C7021 1.524 . S
C7020 H7039 0.913 . S
C7021 H6997 0.950 . S
C7021 C7020 1.524 . S
C7021 C7022 1.415 . S
C7022 H6998 0.950 . S
C7022 C7017 1.363 . S
C7022 C7021 1.415 . S
C7023 H6999 0.951 . S
C7023 C7024 1.366 . S
C7023 C7025 1.388 . S
C7024 C7023 1.366 . S
C7024 C7028 1.385 . S
C7025 H7000 0.951 . S
C7025 C7023 1.388 . S
C7025 C7026 1.366 . S
C7026 C7025 1.366 . S
C7026 C7027 1.414 . S
C7026 C7029 1.499 . S
C7027 H7001 0.950 . S
C7027 C7026 1.414 . S
C7027 C7028 1.374 . S
C7028 H7002 0.950 . S
C7028 C7024 1.385 . S
C7028 C7027 1.374 . S
C7029 C7026 1.499 . S
C7029 C7030 1.373 . S
C7029 C7031 1.389 . S
C7030 H7003 0.950 . S
C7030 C7016 1.377 . S
C7030 C7029 1.373 . S
C7031 C7015 1.377 . S
C7031 C7029 1.389 . S
C7031 C7032 1.524 . S
C7032 C7031 1.524 . S
C7032 C7033 1.397 . S
C7032 C7037 1.363 . S
C7033 H7004 0.950 . S
C7033 C7032 1.397 . S
C7033 C7034 1.334 . S
C7034 H7005 0.950 . S
C7034 C7033 1.334 . S
C7034 C7035 1.287 . S
C7035 C7034 1.287 . S
C7035 C7036 1.524 . S
C7035 H7038 0.999 . S
C7036 H7006 0.950 . S
C7036 C7035 1.524 . S
C7036 C7037 1.415 . S
C7037 H7007 0.950 . S
C7037 C7032 1.363 . S
C7037 C7036 1.415 . S
H7038 C7035 0.999 . S
H7039 C7020 0.913 . S
H7040 C7058 0.951 . S
H7041 C7060 0.951 . S
H7042 C7062 0.950 . S
H7043 C7063 0.950 . S
H7044 C7065 0.950 . S
H7045 C7068 0.950 . S
H7046 C7069 0.950 . S
H7047 C7071 0.950 . S
H7048 C7072 0.950 . S
H7049 C7073 0.951 . S
H7050 C7075 0.951 . S
H7051 C7077 0.950 . S
H7052 C7078 0.950 . S
H7053 C7080 0.950 . S
H7054 C7083 0.950 . S
H7055 C7084 0.950 . S
H7056 C7086 0.950 . S
H7057 C7087 0.950 . S
C7058 H7040 0.951 . S
C7058 C7059 1.366 . S
C7058 C7060 1.388 . S
C7059 C7058 1.366 . S
C7059 C7063 1.385 . S
C7060 H7041 0.951 . S
C7060 C7058 1.388 . S
C7060 C7061 1.366 . S
C7061 C7060 1.366 . S
C7061 C7062 1.414 . S
C7061 C7064 1.499 . S
C7062 H7042 0.950 . S
C7062 C7061 1.414 . S
C7062 C7063 1.374 . S
C7063 H7043 0.950 . S
C7063 C7059 1.385 . S
C7063 C7062 1.374 . S
C7064 C7061 1.499 . S
C7064 C7065 1.373 . S
C7064 C7066 1.389 . S
C7065 H7044 0.950 . S
C7065 C7064 1.373 . S
C7065 C7081 1.377 . S
C7066 C7064 1.389 . S
C7066 C7067 1.524 . S
C7066 C7080 1.377 . S
C7067 C7066 1.524 . S
C7067 C7068 1.397 . S
C7067 C7072 1.363 . S
C7068 H7045 0.950 . S
C7068 C7067 1.397 . S
C7068 C7069 1.334 . S
C7069 H7046 0.950 . S
C7069 C7068 1.334 . S
C7069 C7070 1.287 . S
C7070 C7069 1.287 . S
C7070 C7071 1.524 . S
C7070 H7089 0.913 . S
C7071 H7047 0.950 . S
C7071 C7070 1.524 . S
C7071 C7072 1.415 . S
C7072 H7048 0.950 . S
C7072 C7067 1.363 . S
C7072 C7071 1.415 . S
C7073 H7049 0.951 . S
C7073 C7074 1.366 . S
C7073 C7075 1.388 . S
C7074 C7073 1.366 . S
C7074 C7078 1.385 . S
C7075 H7050 0.951 . S
C7075 C7073 1.388 . S
C7075 C7076 1.366 . S
C7076 C7075 1.366 . S
C7076 C7077 1.414 . S
C7076 C7079 1.499 . S
C7077 H7051 0.950 . S
C7077 C7076 1.414 . S
C7077 C7078 1.374 . S
C7078 H7052 0.950 . S
C7078 C7074 1.385 . S
C7078 C7077 1.374 . S
C7079 C7076 1.499 . S
C7079 C7080 1.373 . S
C7079 C7081 1.389 . S
C7080 H7053 0.950 . S
C7080 C7066 1.377 . S
C7080 C7079 1.373 . S
C7081 C7065 1.377 . S
C7081 C7079 1.389 . S
C7081 C7082 1.524 . S
C7082 C7081 1.524 . S
C7082 C7083 1.397 . S
C7082 C7087 1.363 . S
C7083 H7054 0.950 . S
C7083 C7082 1.397 . S
C7083 C7084 1.334 . S
C7084 H7055 0.950 . S
C7084 C7083 1.334 . S
C7084 C7085 1.287 . S
C7085 C7084 1.287 . S
C7085 C7086 1.524 . S
C7085 H7088 0.999 . S
C7086 H7056 0.950 . S
C7086 C7085 1.524 . S
C7086 C7087 1.415 . S
C7087 H7057 0.950 . S
C7087 C7082 1.363 . S
C7087 C7086 1.415 . S
H7088 C7085 0.999 . S
H7089 C7070 0.913 . S
H7090 C7108 0.951 . S
H7091 C7110 0.951 . S
H7092 C7112 0.950 . S
H7093 C7113 0.950 . S
H7094 C7115 0.950 . S
H7095 C7118 0.950 . S
H7096 C7119 0.950 . S
H7097 C7121 0.950 . S
H7098 C7122 0.950 . S
H7099 C7123 0.951 . S
H7100 C7125 0.951 . S
H7101 C7127 0.950 . S
H7102 C7128 0.950 . S
H7103 C7130 0.950 . S
H7104 C7133 0.950 . S
H7105 C7134 0.950 . S
H7106 C7136 0.950 . S
H7107 C7137 0.950 . S
C7108 H7090 0.951 . S
C7108 C7109 1.366 . S
C7108 C7110 1.388 . S
C7109 C7108 1.366 . S
C7109 C7113 1.385 . S
C7110 H7091 0.951 . S
C7110 C7108 1.388 . S
C7110 C7111 1.366 . S
C7111 C7110 1.366 . S
C7111 C7112 1.414 . S
C7111 C7114 1.499 . S
C7112 H7092 0.950 . S
C7112 C7111 1.414 . S
C7112 C7113 1.374 . S
C7113 H7093 0.950 . S
C7113 C7109 1.385 . S
C7113 C7112 1.374 . S
C7114 C7111 1.499 . S
C7114 C7115 1.373 . S
C7114 C7116 1.389 . S
C7115 H7094 0.950 . S
C7115 C7114 1.373 . S
C7115 C7131 1.377 . S
C7116 C7114 1.389 . S
C7116 C7117 1.524 . S
C7116 C7130 1.377 . S
C7117 C7116 1.524 . S
C7117 C7118 1.397 . S
C7117 C7122 1.363 . S
C7118 H7095 0.950 . S
C7118 C7117 1.397 . S
C7118 C7119 1.334 . S
C7119 H7096 0.950 . S
C7119 C7118 1.334 . S
C7119 C7120 1.287 . S
C7120 C7119 1.287 . S
C7120 C7121 1.524 . S
C7120 H7139 0.913 . S
C7121 H7097 0.950 . S
C7121 C7120 1.524 . S
C7121 C7122 1.415 . S
C7122 H7098 0.950 . S
C7122 C7117 1.363 . S
C7122 C7121 1.415 . S
C7123 H7099 0.951 . S
C7123 C7124 1.366 . S
C7123 C7125 1.388 . S
C7124 C7123 1.366 . S
C7124 C7128 1.385 . S
C7125 H7100 0.951 . S
C7125 C7123 1.388 . S
C7125 C7126 1.366 . S
C7126 C7125 1.366 . S
C7126 C7127 1.414 . S
C7126 C7129 1.499 . S
C7127 H7101 0.950 . S
C7127 C7126 1.414 . S
C7127 C7128 1.374 . S
C7128 H7102 0.950 . S
C7128 C7124 1.385 . S
C7128 C7127 1.374 . S
C7129 C7126 1.499 . S
C7129 C7130 1.373 . S
C7129 C7131 1.389 . S
C7130 H7103 0.950 . S
C7130 C7116 1.377 . S
C7130 C7129 1.373 . S
C7131 C7115 1.377 . S
C7131 C7129 1.389 . S
C7131 C7132 1.524 . S
C7132 C7131 1.524 . S
C7132 C7133 1.397 . S
C7132 C7137 1.363 . S
C7133 H7104 0.950 . S
C7133 C7132 1.397 . S
C7133 C7134 1.334 . S
C7134 H7105 0.950 . S
C7134 C7133 1.334 . S
C7134 C7135 1.287 . S
C7135 C7134 1.287 . S
C7135 C7136 1.524 . S
C7135 H7138 0.999 . S
C7136 H7106 0.950 . S
C7136 C7135 1.524 . S
C7136 C7137 1.415 . S
C7137 H7107 0.950 . S
C7137 C7132 1.363 . S
C7137 C7136 1.415 . S
H7138 C7135 0.999 . S
H7139 C7120 0.913 . S
H7140 C7158 0.951 . S
H7141 C7160 0.951 . S
H7142 C7162 0.950 . S
H7143 C7163 0.950 . S
H7144 C7165 0.950 . S
H7145 C7168 0.950 . S
H7146 C7169 0.950 . S
H7147 C7171 0.950 . S
H7148 C7172 0.950 . S
H7149 C7173 0.951 . S
H7150 C7175 0.951 . S
H7151 C7177 0.950 . S
H7152 C7178 0.950 . S
H7153 C7180 0.950 . S
H7154 C7183 0.950 . S
H7155 C7184 0.950 . S
H7156 C7186 0.950 . S
H7157 C7187 0.950 . S
C7158 H7140 0.951 . S
C7158 C7159 1.366 . S
C7158 C7160 1.388 . S
C7159 C7158 1.366 . S
C7159 C7163 1.385 . S
C7160 H7141 0.951 . S
C7160 C7158 1.388 . S
C7160 C7161 1.366 . S
C7161 C7160 1.366 . S
C7161 C7162 1.414 . S
C7161 C7164 1.499 . S
C7162 H7142 0.950 . S
C7162 C7161 1.414 . S
C7162 C7163 1.374 . S
C7163 H7143 0.950 . S
C7163 C7159 1.385 . S
C7163 C7162 1.374 . S
C7164 C7161 1.499 . S
C7164 C7165 1.373 . S
C7164 C7166 1.389 . S
C7165 H7144 0.950 . S
C7165 C7164 1.373 . S
C7165 C7181 1.377 . S
C7166 C7164 1.389 . S
C7166 C7167 1.524 . S
C7166 C7180 1.377 . S
C7167 C7166 1.524 . S
C7167 C7168 1.397 . S
C7167 C7172 1.363 . S
C7168 H7145 0.950 . S
C7168 C7167 1.397 . S
C7168 C7169 1.334 . S
C7169 H7146 0.950 . S
C7169 C7168 1.334 . S
C7169 C7170 1.287 . S
C7170 C7169 1.287 . S
C7170 C7171 1.524 . S
C7170 H7189 0.913 . S
C7171 H7147 0.950 . S
C7171 C7170 1.524 . S
C7171 C7172 1.415 . S
C7172 H7148 0.950 . S
C7172 C7167 1.363 . S
C7172 C7171 1.415 . S
C7173 H7149 0.951 . S
C7173 C7174 1.366 . S
C7173 C7175 1.388 . S
C7174 C7173 1.366 . S
C7174 C7178 1.385 . S
C7175 H7150 0.951 . S
C7175 C7173 1.388 . S
C7175 C7176 1.366 . S
C7176 C7175 1.366 . S
C7176 C7177 1.414 . S
C7176 C7179 1.499 . S
C7177 H7151 0.950 . S
C7177 C7176 1.414 . S
C7177 C7178 1.374 . S
C7178 H7152 0.950 . S
C7178 C7174 1.385 . S
C7178 C7177 1.374 . S
C7179 C7176 1.499 . S
C7179 C7180 1.373 . S
C7179 C7181 1.389 . S
C7180 H7153 0.950 . S
C7180 C7166 1.377 . S
C7180 C7179 1.373 . S
C7181 C7165 1.377 . S
C7181 C7179 1.389 . S
C7181 C7182 1.524 . S
C7182 C7181 1.524 . S
C7182 C7183 1.397 . S
C7182 C7187 1.363 . S
C7183 H7154 0.950 . S
C7183 C7182 1.397 . S
C7183 C7184 1.334 . S
C7184 H7155 0.950 . S
C7184 C7183 1.334 . S
C7184 C7185 1.287 . S
C7185 C7184 1.287 . S
C7185 C7186 1.524 . S
C7185 H7188 0.999 . S
C7186 H7156 0.950 . S
C7186 C7185 1.524 . S
C7186 C7187 1.415 . S
C7187 H7157 0.950 . S
C7187 C7182 1.363 . S
C7187 C7186 1.415 . S
H7188 C7185 0.999 . S
H7189 C7170 0.913 . S
H7190 C7208 0.951 . S
H7191 C7210 0.951 . S
H7192 C7212 0.950 . S
H7193 C7213 0.950 . S
H7194 C7215 0.950 . S
H7195 C7218 0.950 . S
H7196 C7219 0.950 . S
H7197 C7221 0.950 . S
H7198 C7222 0.950 . S
H7199 C7223 0.951 . S
H7200 C7225 0.951 . S
H7201 C7227 0.950 . S
H7202 C7228 0.950 . S
H7203 C7230 0.950 . S
H7204 C7233 0.950 . S
H7205 C7234 0.950 . S
H7206 C7236 0.950 . S
H7207 C7237 0.950 . S
C7208 H7190 0.951 . S
C7208 C7209 1.366 . S
C7208 C7210 1.388 . S
C7209 C7208 1.366 . S
C7209 C7213 1.385 . S
C7210 H7191 0.951 . S
C7210 C7208 1.388 . S
C7210 C7211 1.366 . S
C7211 C7210 1.366 . S
C7211 C7212 1.414 . S
C7211 C7214 1.499 . S
C7212 H7192 0.950 . S
C7212 C7211 1.414 . S
C7212 C7213 1.374 . S
C7213 H7193 0.950 . S
C7213 C7209 1.385 . S
C7213 C7212 1.374 . S
C7214 C7211 1.499 . S
C7214 C7215 1.373 . S
C7214 C7216 1.389 . S
C7215 H7194 0.950 . S
C7215 C7214 1.373 . S
C7215 C7231 1.377 . S
C7216 C7214 1.389 . S
C7216 C7217 1.524 . S
C7216 C7230 1.377 . S
C7217 C7216 1.524 . S
C7217 C7218 1.397 . S
C7217 C7222 1.363 . S
C7218 H7195 0.950 . S
C7218 C7217 1.397 . S
C7218 C7219 1.334 . S
C7219 H7196 0.950 . S
C7219 C7218 1.334 . S
C7219 C7220 1.287 . S
C7220 C7219 1.287 . S
C7220 C7221 1.524 . S
C7220 H7239 0.913 . S
C7221 H7197 0.950 . S
C7221 C7220 1.524 . S
C7221 C7222 1.415 . S
C7222 H7198 0.950 . S
C7222 C7217 1.363 . S
C7222 C7221 1.415 . S
C7223 H7199 0.951 . S
C7223 C7224 1.366 . S
C7223 C7225 1.388 . S
C7224 C7223 1.366 . S
C7224 C7228 1.385 . S
C7225 H7200 0.951 . S
C7225 C7223 1.388 . S
C7225 C7226 1.366 . S
C7226 C7225 1.366 . S
C7226 C7227 1.414 . S
C7226 C7229 1.499 . S
C7227 H7201 0.950 . S
C7227 C7226 1.414 . S
C7227 C7228 1.374 . S
C7228 H7202 0.950 . S
C7228 C7224 1.385 . S
C7228 C7227 1.374 . S
C7229 C7226 1.499 . S
C7229 C7230 1.373 . S
C7229 C7231 1.389 . S
C7230 H7203 0.950 . S
C7230 C7216 1.377 . S
C7230 C7229 1.373 . S
C7231 C7215 1.377 . S
C7231 C7229 1.389 . S
C7231 C7232 1.524 . S
C7232 C7231 1.524 . S
C7232 C7233 1.397 . S
C7232 C7237 1.363 . S
C7233 H7204 0.950 . S
C7233 C7232 1.397 . S
C7233 C7234 1.334 . S
C7234 H7205 0.950 . S
C7234 C7233 1.334 . S
C7234 C7235 1.287 . S
C7235 C7234 1.287 . S
C7235 C7236 1.524 . S
C7235 H7238 0.999 . S
C7236 H7206 0.950 . S
C7236 C7235 1.524 . S
C7236 C7237 1.415 . S
C7237 H7207 0.950 . S
C7237 C7232 1.363 . S
C7237 C7236 1.415 . S
H7238 C7235 0.999 . S
H7239 C7220 0.913 . S
H7240 C7258 0.951 . S
H7241 C7260 0.951 . S
H7242 C7262 0.950 . S
H7243 C7263 0.950 . S
H7244 C7265 0.950 . S
H7245 C7268 0.950 . S
H7246 C7269 0.950 . S
H7247 C7271 0.950 . S
H7248 C7272 0.950 . S
H7249 C7273 0.951 . S
H7250 C7275 0.951 . S
H7251 C7277 0.950 . S
H7252 C7278 0.950 . S
H7253 C7280 0.950 . S
H7254 C7283 0.950 . S
H7255 C7284 0.950 . S
H7256 C7286 0.950 . S
H7257 C7287 0.950 . S
C7258 H7240 0.951 . S
C7258 C7259 1.366 . S
C7258 C7260 1.388 . S
C7259 C7258 1.366 . S
C7259 C7263 1.385 . S
C7260 H7241 0.951 . S
C7260 C7258 1.388 . S
C7260 C7261 1.366 . S
C7261 C7260 1.366 . S
C7261 C7262 1.414 . S
C7261 C7264 1.499 . S
C7262 H7242 0.950 . S
C7262 C7261 1.414 . S
C7262 C7263 1.374 . S
C7263 H7243 0.950 . S
C7263 C7259 1.385 . S
C7263 C7262 1.374 . S
C7264 C7261 1.499 . S
C7264 C7265 1.373 . S
C7264 C7266 1.389 . S
C7265 H7244 0.950 . S
C7265 C7264 1.373 . S
C7265 C7281 1.377 . S
C7266 C7264 1.389 . S
C7266 C7267 1.524 . S
C7266 C7280 1.377 . S
C7267 C7266 1.524 . S
C7267 C7268 1.397 . S
C7267 C7272 1.363 . S
C7268 H7245 0.950 . S
C7268 C7267 1.397 . S
C7268 C7269 1.334 . S
C7269 H7246 0.950 . S
C7269 C7268 1.334 . S
C7269 C7270 1.287 . S
C7270 C7269 1.287 . S
C7270 C7271 1.524 . S
C7270 H7289 0.913 . S
C7271 H7247 0.950 . S
C7271 C7270 1.524 . S
C7271 C7272 1.415 . S
C7272 H7248 0.950 . S
C7272 C7267 1.363 . S
C7272 C7271 1.415 . S
C7273 H7249 0.951 . S
C7273 C7274 1.366 . S
C7273 C7275 1.388 . S
C7274 C7273 1.366 . S
C7274 C7278 1.385 . S
C7275 H7250 0.951 . S
C7275 C7273 1.388 . S
C7275 C7276 1.366 . S
C7276 C7275 1.366 . S
C7276 C7277 1.414 . S
C7276 C7279 1.499 . S
C7277 H7251 0.950 . S
C7277 C7276 1.414 . S
C7277 C7278 1.374 . S
C7278 H7252 0.950 . S
C7278 C7274 1.385 . S
C7278 C7277 1.374 . S
C7279 C7276 1.499 . S
C7279 C7280 1.373 . S
C7279 C7281 1.389 . S
C7280 H7253 0.950 . S
C7280 C7266 1.377 . S
C7280 C7279 1.373 . S
C7281 C7265 1.377 . S
C7281 C7279 1.389 . S
C7281 C7282 1.524 . S
C7282 C7281 1.524 . S
C7282 C7283 1.397 . S
C7282 C7287 1.363 . S
C7283 H7254 0.950 . S
C7283 C7282 1.397 . S
C7283 C7284 1.334 . S
C7284 H7255 0.950 . S
C7284 C7283 1.334 . S
C7284 C7285 1.287 . S
C7285 C7284 1.287 . S
C7285 C7286 1.524 . S
C7285 H7288 0.999 . S
C7286 H7256 0.950 . S
C7286 C7285 1.524 . S
C7286 C7287 1.415 . S
C7287 H7257 0.950 . S
C7287 C7282 1.363 . S
C7287 C7286 1.415 . S
H7288 C7285 0.999 . S
H7289 C7270 0.913 . S
H7290 C7308 0.951 . S
H7291 C7310 0.951 . S
H7292 C7312 0.950 . S
H7293 C7313 0.950 . S
H7294 C7315 0.950 . S
H7295 C7318 0.950 . S
H7296 C7319 0.950 . S
H7297 C7321 0.950 . S
H7298 C7322 0.950 . S
H7299 C7323 0.951 . S
H7300 C7325 0.951 . S
H7301 C7327 0.950 . S
H7302 C7328 0.950 . S
H7303 C7330 0.950 . S
H7304 C7333 0.950 . S
H7305 C7334 0.950 . S
H7306 C7336 0.950 . S
H7307 C7337 0.950 . S
C7308 H7290 0.951 . S
C7308 C7309 1.366 . S
C7308 C7310 1.388 . S
C7309 C7308 1.366 . S
C7309 C7313 1.385 . S
C7310 H7291 0.951 . S
C7310 C7308 1.388 . S
C7310 C7311 1.366 . S
C7311 C7310 1.366 . S
C7311 C7312 1.414 . S
C7311 C7314 1.499 . S
C7312 H7292 0.950 . S
C7312 C7311 1.414 . S
C7312 C7313 1.374 . S
C7313 H7293 0.950 . S
C7313 C7309 1.385 . S
C7313 C7312 1.374 . S
C7314 C7311 1.499 . S
C7314 C7315 1.373 . S
C7314 C7316 1.389 . S
C7315 H7294 0.950 . S
C7315 C7314 1.373 . S
C7315 C7331 1.377 . S
C7316 C7314 1.389 . S
C7316 C7317 1.524 . S
C7316 C7330 1.377 . S
C7317 C7316 1.524 . S
C7317 C7318 1.397 . S
C7317 C7322 1.363 . S
C7318 H7295 0.950 . S
C7318 C7317 1.397 . S
C7318 C7319 1.334 . S
C7319 H7296 0.950 . S
C7319 C7318 1.334 . S
C7319 C7320 1.287 . S
C7320 C7319 1.287 . S
C7320 C7321 1.524 . S
C7320 H7339 0.913 . S
C7321 H7297 0.950 . S
C7321 C7320 1.524 . S
C7321 C7322 1.415 . S
C7322 H7298 0.950 . S
C7322 C7317 1.363 . S
C7322 C7321 1.415 . S
C7323 H7299 0.951 . S
C7323 C7324 1.366 . S
C7323 C7325 1.388 . S
C7324 C7323 1.366 . S
C7324 C7328 1.385 . S
C7325 H7300 0.951 . S
C7325 C7323 1.388 . S
C7325 C7326 1.366 . S
C7326 C7325 1.366 . S
C7326 C7327 1.414 . S
C7326 C7329 1.499 . S
C7327 H7301 0.950 . S
C7327 C7326 1.414 . S
C7327 C7328 1.374 . S
C7328 H7302 0.950 . S
C7328 C7324 1.385 . S
C7328 C7327 1.374 . S
C7329 C7326 1.499 . S
C7329 C7330 1.373 . S
C7329 C7331 1.389 . S
C7330 H7303 0.950 . S
C7330 C7316 1.377 . S
C7330 C7329 1.373 . S
C7331 C7315 1.377 . S
C7331 C7329 1.389 . S
C7331 C7332 1.524 . S
C7332 C7331 1.524 . S
C7332 C7333 1.397 . S
C7332 C7337 1.363 . S
C7333 H7304 0.950 . S
C7333 C7332 1.397 . S
C7333 C7334 1.334 . S
C7334 H7305 0.950 . S
C7334 C7333 1.334 . S
C7334 C7335 1.287 . S
C7335 C7334 1.287 . S
C7335 C7336 1.524 . S
C7335 H7338 0.999 . S
C7336 H7306 0.950 . S
C7336 C7335 1.524 . S
C7336 C7337 1.415 . S
C7337 H7307 0.950 . S
C7337 C7332 1.363 . S
C7337 C7336 1.415 . S
H7338 C7335 0.999 . S
H7339 C7320 0.913 . S
H7340 C7358 0.951 . S
H7341 C7360 0.951 . S
H7342 C7362 0.950 . S
H7343 C7363 0.950 . S
H7344 C7365 0.950 . S
H7345 C7368 0.950 . S
H7346 C7369 0.950 . S
H7347 C7371 0.950 . S
H7348 C7372 0.950 . S
H7349 C7373 0.951 . S
H7350 C7375 0.951 . S
H7351 C7377 0.950 . S
H7352 C7378 0.950 . S
H7353 C7380 0.950 . S
H7354 C7383 0.950 . S
H7355 C7384 0.950 . S
H7356 C7386 0.950 . S
H7357 C7387 0.950 . S
C7358 H7340 0.951 . S
C7358 C7359 1.366 . S
C7358 C7360 1.388 . S
C7359 C7358 1.366 . S
C7359 C7363 1.385 . S
C7360 H7341 0.951 . S
C7360 C7358 1.388 . S
C7360 C7361 1.366 . S
C7361 C7360 1.366 . S
C7361 C7362 1.414 . S
C7361 C7364 1.499 . S
C7362 H7342 0.950 . S
C7362 C7361 1.414 . S
C7362 C7363 1.374 . S
C7363 H7343 0.950 . S
C7363 C7359 1.385 . S
C7363 C7362 1.374 . S
C7364 C7361 1.499 . S
C7364 C7365 1.373 . S
C7364 C7366 1.389 . S
C7365 H7344 0.950 . S
C7365 C7364 1.373 . S
C7365 C7381 1.377 . S
C7366 C7364 1.389 . S
C7366 C7367 1.524 . S
C7366 C7380 1.377 . S
C7367 C7366 1.524 . S
C7367 C7368 1.397 . S
C7367 C7372 1.363 . S
C7368 H7345 0.950 . S
C7368 C7367 1.397 . S
C7368 C7369 1.334 . S
C7369 H7346 0.950 . S
C7369 C7368 1.334 . S
C7369 C7370 1.287 . S
C7370 C7369 1.287 . S
C7370 C7371 1.524 . S
C7370 H7389 0.913 . S
C7371 H7347 0.950 . S
C7371 C7370 1.524 . S
C7371 C7372 1.415 . S
C7372 H7348 0.950 . S
C7372 C7367 1.363 . S
C7372 C7371 1.415 . S
C7373 H7349 0.951 . S
C7373 C7374 1.366 . S
C7373 C7375 1.388 . S
C7374 C7373 1.366 . S
C7374 C7378 1.385 . S
C7375 H7350 0.951 . S
C7375 C7373 1.388 . S
C7375 C7376 1.366 . S
C7376 C7375 1.366 . S
C7376 C7377 1.414 . S
C7376 C7379 1.499 . S
C7377 H7351 0.950 . S
C7377 C7376 1.414 . S
C7377 C7378 1.374 . S
C7378 H7352 0.950 . S
C7378 C7374 1.385 . S
C7378 C7377 1.374 . S
C7379 C7376 1.499 . S
C7379 C7380 1.373 . S
C7379 C7381 1.389 . S
C7380 H7353 0.950 . S
C7380 C7366 1.377 . S
C7380 C7379 1.373 . S
C7381 C7365 1.377 . S
C7381 C7379 1.389 . S
C7381 C7382 1.524 . S
C7382 C7381 1.524 . S
C7382 C7383 1.397 . S
C7382 C7387 1.363 . S
C7383 H7354 0.950 . S
C7383 C7382 1.397 . S
C7383 C7384 1.334 . S
C7384 H7355 0.950 . S
C7384 C7383 1.334 . S
C7384 C7385 1.287 . S
C7385 C7384 1.287 . S
C7385 C7386 1.524 . S
C7385 H7388 0.999 . S
C7386 H7356 0.950 . S
C7386 C7385 1.524 . S
C7386 C7387 1.415 . S
C7387 H7357 0.950 . S
C7387 C7382 1.363 . S
C7387 C7386 1.415 . S
H7388 C7385 0.999 . S
H7389 C7370 0.913 . S
H7390 C7408 0.951 . S
H7391 C7410 0.951 . S
H7392 C7412 0.950 . S
H7393 C7413 0.950 . S
H7394 C7415 0.950 . S
H7395 C7418 0.950 . S
H7396 C7419 0.950 . S
H7397 C7421 0.950 . S
H7398 C7422 0.950 . S
H7399 C7423 0.951 . S
H7400 C7425 0.951 . S
H7401 C7427 0.950 . S
H7402 C7428 0.950 . S
H7403 C7430 0.950 . S
H7404 C7433 0.950 . S
H7405 C7434 0.950 . S
H7406 C7436 0.950 . S
H7407 C7437 0.950 . S
C7408 H7390 0.951 . S
C7408 C7409 1.366 . S
C7408 C7410 1.388 . S
C7409 C7408 1.366 . S
C7409 C7413 1.385 . S
C7410 H7391 0.951 . S
C7410 C7408 1.388 . S
C7410 C7411 1.366 . S
C7411 C7410 1.366 . S
C7411 C7412 1.414 . S
C7411 C7414 1.499 . S
C7412 H7392 0.950 . S
C7412 C7411 1.414 . S
C7412 C7413 1.374 . S
C7413 H7393 0.950 . S
C7413 C7409 1.385 . S
C7413 C7412 1.374 . S
C7414 C7411 1.499 . S
C7414 C7415 1.373 . S
C7414 C7416 1.389 . S
C7415 H7394 0.950 . S
C7415 C7414 1.373 . S
C7415 C7431 1.377 . S
C7416 C7414 1.389 . S
C7416 C7417 1.524 . S
C7416 C7430 1.377 . S
C7417 C7416 1.524 . S
C7417 C7418 1.397 . S
C7417 C7422 1.363 . S
C7418 H7395 0.950 . S
C7418 C7417 1.397 . S
C7418 C7419 1.334 . S
C7419 H7396 0.950 . S
C7419 C7418 1.334 . S
C7419 C7420 1.287 . S
C7420 C7419 1.287 . S
C7420 C7421 1.524 . S
C7420 H7439 0.913 . S
C7421 H7397 0.950 . S
C7421 C7420 1.524 . S
C7421 C7422 1.415 . S
C7422 H7398 0.950 . S
C7422 C7417 1.363 . S
C7422 C7421 1.415 . S
C7423 H7399 0.951 . S
C7423 C7424 1.366 . S
C7423 C7425 1.388 . S
C7424 C7423 1.366 . S
C7424 C7428 1.385 . S
C7425 H7400 0.951 . S
C7425 C7423 1.388 . S
C7425 C7426 1.366 . S
C7426 C7425 1.366 . S
C7426 C7427 1.414 . S
C7426 C7429 1.499 . S
C7427 H7401 0.950 . S
C7427 C7426 1.414 . S
C7427 C7428 1.374 . S
C7428 H7402 0.950 . S
C7428 C7424 1.385 . S
C7428 C7427 1.374 . S
C7429 C7426 1.499 . S
C7429 C7430 1.373 . S
C7429 C7431 1.389 . S
C7430 H7403 0.950 . S
C7430 C7416 1.377 . S
C7430 C7429 1.373 . S
C7431 C7415 1.377 . S
C7431 C7429 1.389 . S
C7431 C7432 1.524 . S
C7432 C7431 1.524 . S
C7432 C7433 1.397 . S
C7432 C7437 1.363 . S
C7433 H7404 0.950 . S
C7433 C7432 1.397 . S
C7433 C7434 1.334 . S
C7434 H7405 0.950 . S
C7434 C7433 1.334 . S
C7434 C7435 1.287 . S
C7435 C7434 1.287 . S
C7435 C7436 1.524 . S
C7435 H7438 0.999 . S
C7436 H7406 0.950 . S
C7436 C7435 1.524 . S
C7436 C7437 1.415 . S
C7437 H7407 0.950 . S
C7437 C7432 1.363 . S
C7437 C7436 1.415 . S
H7438 C7435 0.999 . S
H7439 C7420 0.913 . S
H7440 C7458 0.951 . S
H7441 C7460 0.951 . S
H7442 C7462 0.950 . S
H7443 C7463 0.950 . S
H7444 C7465 0.950 . S
H7445 C7468 0.950 . S
H7446 C7469 0.950 . S
H7447 C7471 0.950 . S
H7448 C7472 0.950 . S
H7449 C7473 0.951 . S
H7450 C7475 0.951 . S
H7451 C7477 0.950 . S
H7452 C7478 0.950 . S
H7453 C7480 0.950 . S
H7454 C7483 0.950 . S
H7455 C7484 0.950 . S
H7456 C7486 0.950 . S
H7457 C7487 0.950 . S
C7458 H7440 0.951 . S
C7458 C7459 1.366 . S
C7458 C7460 1.388 . S
C7459 C7458 1.366 . S
C7459 C7463 1.385 . S
C7460 H7441 0.951 . S
C7460 C7458 1.388 . S
C7460 C7461 1.366 . S
C7461 C7460 1.366 . S
C7461 C7462 1.414 . S
C7461 C7464 1.499 . S
C7462 H7442 0.950 . S
C7462 C7461 1.414 . S
C7462 C7463 1.374 . S
C7463 H7443 0.950 . S
C7463 C7459 1.385 . S
C7463 C7462 1.374 . S
C7464 C7461 1.499 . S
C7464 C7465 1.373 . S
C7464 C7466 1.389 . S
C7465 H7444 0.950 . S
C7465 C7464 1.373 . S
C7465 C7481 1.377 . S
C7466 C7464 1.389 . S
C7466 C7467 1.524 . S
C7466 C7480 1.377 . S
C7467 C7466 1.524 . S
C7467 C7468 1.397 . S
C7467 C7472 1.363 . S
C7468 H7445 0.950 . S
C7468 C7467 1.397 . S
C7468 C7469 1.334 . S
C7469 H7446 0.950 . S
C7469 C7468 1.334 . S
C7469 C7470 1.287 . S
C7470 C7469 1.287 . S
C7470 C7471 1.524 . S
C7470 H7489 0.913 . S
C7471 H7447 0.950 . S
C7471 C7470 1.524 . S
C7471 C7472 1.415 . S
C7472 H7448 0.950 . S
C7472 C7467 1.363 . S
C7472 C7471 1.415 . S
C7473 H7449 0.951 . S
C7473 C7474 1.366 . S
C7473 C7475 1.388 . S
C7474 C7473 1.366 . S
C7474 C7478 1.385 . S
C7475 H7450 0.951 . S
C7475 C7473 1.388 . S
C7475 C7476 1.366 . S
C7476 C7475 1.366 . S
C7476 C7477 1.414 . S
C7476 C7479 1.499 . S
C7477 H7451 0.950 . S
C7477 C7476 1.414 . S
C7477 C7478 1.374 . S
C7478 H7452 0.950 . S
C7478 C7474 1.385 . S
C7478 C7477 1.374 . S
C7479 C7476 1.499 . S
C7479 C7480 1.373 . S
C7479 C7481 1.389 . S
C7480 H7453 0.950 . S
C7480 C7466 1.377 . S
C7480 C7479 1.373 . S
C7481 C7465 1.377 . S
C7481 C7479 1.389 . S
C7481 C7482 1.524 . S
C7482 C7481 1.524 . S
C7482 C7483 1.397 . S
C7482 C7487 1.363 . S
C7483 H7454 0.950 . S
C7483 C7482 1.397 . S
C7483 C7484 1.334 . S
C7484 H7455 0.950 . S
C7484 C7483 1.334 . S
C7484 C7485 1.287 . S
C7485 C7484 1.287 . S
C7485 C7486 1.524 . S
C7485 H7488 0.999 . S
C7486 H7456 0.950 . S
C7486 C7485 1.524 . S
C7486 C7487 1.415 . S
C7487 H7457 0.950 . S
C7487 C7482 1.363 . S
C7487 C7486 1.415 . S
H7488 C7485 0.999 . S
H7489 C7470 0.913 . S
H7490 C7508 0.951 . S
H7491 C7510 0.951 . S
H7492 C7512 0.950 . S
H7493 C7513 0.950 . S
H7494 C7515 0.950 . S
H7495 C7518 0.950 . S
H7496 C7519 0.950 . S
H7497 C7521 0.950 . S
H7498 C7522 0.950 . S
H7499 C7523 0.951 . S
H7500 C7525 0.951 . S
H7501 C7527 0.950 . S
H7502 C7528 0.950 . S
H7503 C7530 0.950 . S
H7504 C7533 0.950 . S
H7505 C7534 0.950 . S
H7506 C7536 0.950 . S
H7507 C7537 0.950 . S
C7508 H7490 0.951 . S
C7508 C7509 1.366 . S
C7508 C7510 1.388 . S
C7509 C7508 1.366 . S
C7509 C7513 1.385 . S
C7510 H7491 0.951 . S
C7510 C7508 1.388 . S
C7510 C7511 1.366 . S
C7511 C7510 1.366 . S
C7511 C7512 1.414 . S
C7511 C7514 1.499 . S
C7512 H7492 0.950 . S
C7512 C7511 1.414 . S
C7512 C7513 1.374 . S
C7513 H7493 0.950 . S
C7513 C7509 1.385 . S
C7513 C7512 1.374 . S
C7514 C7511 1.499 . S
C7514 C7515 1.373 . S
C7514 C7516 1.389 . S
C7515 H7494 0.950 . S
C7515 C7514 1.373 . S
C7515 C7531 1.377 . S
C7516 C7514 1.389 . S
C7516 C7517 1.524 . S
C7516 C7530 1.377 . S
C7517 C7516 1.524 . S
C7517 C7518 1.397 . S
C7517 C7522 1.363 . S
C7518 H7495 0.950 . S
C7518 C7517 1.397 . S
C7518 C7519 1.334 . S
C7519 H7496 0.950 . S
C7519 C7518 1.334 . S
C7519 C7520 1.287 . S
C7520 C7519 1.287 . S
C7520 C7521 1.524 . S
C7520 H7539 0.913 . S
C7521 H7497 0.950 . S
C7521 C7520 1.524 . S
C7521 C7522 1.415 . S
C7522 H7498 0.950 . S
C7522 C7517 1.363 . S
C7522 C7521 1.415 . S
C7523 H7499 0.951 . S
C7523 C7524 1.366 . S
C7523 C7525 1.388 . S
C7524 C7523 1.366 . S
C7524 C7528 1.385 . S
C7525 H7500 0.951 . S
C7525 C7523 1.388 . S
C7525 C7526 1.366 . S
C7526 C7525 1.366 . S
C7526 C7527 1.414 . S
C7526 C7529 1.499 . S
C7527 H7501 0.950 . S
C7527 C7526 1.414 . S
C7527 C7528 1.374 . S
C7528 H7502 0.950 . S
C7528 C7524 1.385 . S
C7528 C7527 1.374 . S
C7529 C7526 1.499 . S
C7529 C7530 1.373 . S
C7529 C7531 1.389 . S
C7530 H7503 0.950 . S
C7530 C7516 1.377 . S
C7530 C7529 1.373 . S
C7531 C7515 1.377 . S
C7531 C7529 1.389 . S
C7531 C7532 1.524 . S
C7532 C7531 1.524 . S
C7532 C7533 1.397 . S
C7532 C7537 1.363 . S
C7533 H7504 0.950 . S
C7533 C7532 1.397 . S
C7533 C7534 1.334 . S
C7534 H7505 0.950 . S
C7534 C7533 1.334 . S
C7534 C7535 1.287 . S
C7535 C7534 1.287 . S
C7535 C7536 1.524 . S
C7535 H7538 0.999 . S
C7536 H7506 0.950 . S
C7536 C7535 1.524 . S
C7536 C7537 1.415 . S
C7537 H7507 0.950 . S
C7537 C7532 1.363 . S
C7537 C7536 1.415 . S
H7538 C7535 0.999 . S
H7539 C7520 0.913 . S
H7540 C7558 0.951 . S
H7541 C7560 0.951 . S
H7542 C7562 0.950 . S
H7543 C7563 0.950 . S
H7544 C7565 0.950 . S
H7545 C7568 0.950 . S
H7546 C7569 0.950 . S
H7547 C7571 0.950 . S
H7548 C7572 0.950 . S
H7549 C7573 0.951 . S
H7550 C7575 0.951 . S
H7551 C7577 0.950 . S
H7552 C7578 0.950 . S
H7553 C7580 0.950 . S
H7554 C7583 0.950 . S
H7555 C7584 0.950 . S
H7556 C7586 0.950 . S
H7557 C7587 0.950 . S
C7558 H7540 0.951 . S
C7558 C7559 1.366 . S
C7558 C7560 1.388 . S
C7559 C7558 1.366 . S
C7559 C7563 1.385 . S
C7560 H7541 0.951 . S
C7560 C7558 1.388 . S
C7560 C7561 1.366 . S
C7561 C7560 1.366 . S
C7561 C7562 1.414 . S
C7561 C7564 1.499 . S
C7562 H7542 0.950 . S
C7562 C7561 1.414 . S
C7562 C7563 1.374 . S
C7563 H7543 0.950 . S
C7563 C7559 1.385 . S
C7563 C7562 1.374 . S
C7564 C7561 1.499 . S
C7564 C7565 1.373 . S
C7564 C7566 1.389 . S
C7565 H7544 0.950 . S
C7565 C7564 1.373 . S
C7565 C7581 1.377 . S
C7566 C7564 1.389 . S
C7566 C7567 1.524 . S
C7566 C7580 1.377 . S
C7567 C7566 1.524 . S
C7567 C7568 1.397 . S
C7567 C7572 1.363 . S
C7568 H7545 0.950 . S
C7568 C7567 1.397 . S
C7568 C7569 1.334 . S
C7569 H7546 0.950 . S
C7569 C7568 1.334 . S
C7569 C7570 1.287 . S
C7570 C7569 1.287 . S
C7570 C7571 1.524 . S
C7570 H7589 0.913 . S
C7571 H7547 0.950 . S
C7571 C7570 1.524 . S
C7571 C7572 1.415 . S
C7572 H7548 0.950 . S
C7572 C7567 1.363 . S
C7572 C7571 1.415 . S
C7573 H7549 0.951 . S
C7573 C7574 1.366 . S
C7573 C7575 1.388 . S
C7574 C7573 1.366 . S
C7574 C7578 1.385 . S
C7575 H7550 0.951 . S
C7575 C7573 1.388 . S
C7575 C7576 1.366 . S
C7576 C7575 1.366 . S
C7576 C7577 1.414 . S
C7576 C7579 1.499 . S
C7577 H7551 0.950 . S
C7577 C7576 1.414 . S
C7577 C7578 1.374 . S
C7578 H7552 0.950 . S
C7578 C7574 1.385 . S
C7578 C7577 1.374 . S
C7579 C7576 1.499 . S
C7579 C7580 1.373 . S
C7579 C7581 1.389 . S
C7580 H7553 0.950 . S
C7580 C7566 1.377 . S
C7580 C7579 1.373 . S
C7581 C7565 1.377 . S
C7581 C7579 1.389 . S
C7581 C7582 1.524 . S
C7582 C7581 1.524 . S
C7582 C7583 1.397 . S
C7582 C7587 1.363 . S
C7583 H7554 0.950 . S
C7583 C7582 1.397 . S
C7583 C7584 1.334 . S
C7584 H7555 0.950 . S
C7584 C7583 1.334 . S
C7584 C7585 1.287 . S
C7585 C7584 1.287 . S
C7585 C7586 1.524 . S
C7585 H7588 0.999 . S
C7586 H7556 0.950 . S
C7586 C7585 1.524 . S
C7586 C7587 1.415 . S
C7587 H7557 0.950 . S
C7587 C7582 1.363 . S
C7587 C7586 1.415 . S
H7588 C7585 0.999 . S
H7589 C7570 0.913 . S
H7590 C7608 0.951 . S
H7591 C7610 0.951 . S
H7592 C7612 0.950 . S
H7593 C7613 0.950 . S
H7594 C7615 0.950 . S
H7595 C7618 0.950 . S
H7596 C7619 0.950 . S
H7597 C7621 0.950 . S
H7598 C7622 0.950 . S
H7599 C7623 0.951 . S
H7600 C7625 0.951 . S
H7601 C7627 0.950 . S
H7602 C7628 0.950 . S
H7603 C7630 0.950 . S
H7604 C7633 0.950 . S
H7605 C7634 0.950 . S
H7606 C7636 0.950 . S
H7607 C7637 0.950 . S
C7608 H7590 0.951 . S
C7608 C7609 1.366 . S
C7608 C7610 1.388 . S
C7609 C7608 1.366 . S
C7609 C7613 1.385 . S
C7610 H7591 0.951 . S
C7610 C7608 1.388 . S
C7610 C7611 1.366 . S
C7611 C7610 1.366 . S
C7611 C7612 1.414 . S
C7611 C7614 1.499 . S
C7612 H7592 0.950 . S
C7612 C7611 1.414 . S
C7612 C7613 1.374 . S
C7613 H7593 0.950 . S
C7613 C7609 1.385 . S
C7613 C7612 1.374 . S
C7614 C7611 1.499 . S
C7614 C7615 1.373 . S
C7614 C7616 1.389 . S
C7615 H7594 0.950 . S
C7615 C7614 1.373 . S
C7615 C7631 1.377 . S
C7616 C7614 1.389 . S
C7616 C7617 1.524 . S
C7616 C7630 1.377 . S
C7617 C7616 1.524 . S
C7617 C7618 1.397 . S
C7617 C7622 1.363 . S
C7618 H7595 0.950 . S
C7618 C7617 1.397 . S
C7618 C7619 1.334 . S
C7619 H7596 0.950 . S
C7619 C7618 1.334 . S
C7619 C7620 1.287 . S
C7620 C7619 1.287 . S
C7620 C7621 1.524 . S
C7620 H7639 0.913 . S
C7621 H7597 0.950 . S
C7621 C7620 1.524 . S
C7621 C7622 1.415 . S
C7622 H7598 0.950 . S
C7622 C7617 1.363 . S
C7622 C7621 1.415 . S
C7623 H7599 0.951 . S
C7623 C7624 1.366 . S
C7623 C7625 1.388 . S
C7624 C7623 1.366 . S
C7624 C7628 1.385 . S
C7625 H7600 0.951 . S
C7625 C7623 1.388 . S
C7625 C7626 1.366 . S
C7626 C7625 1.366 . S
C7626 C7627 1.414 . S
C7626 C7629 1.499 . S
C7627 H7601 0.950 . S
C7627 C7626 1.414 . S
C7627 C7628 1.374 . S
C7628 H7602 0.950 . S
C7628 C7624 1.385 . S
C7628 C7627 1.374 . S
C7629 C7626 1.499 . S
C7629 C7630 1.373 . S
C7629 C7631 1.389 . S
C7630 H7603 0.950 . S
C7630 C7616 1.377 . S
C7630 C7629 1.373 . S
C7631 C7615 1.377 . S
C7631 C7629 1.389 . S
C7631 C7632 1.524 . S
C7632 C7631 1.524 . S
C7632 C7633 1.397 . S
C7632 C7637 1.363 . S
C7633 H7604 0.950 . S
C7633 C7632 1.397 . S
C7633 C7634 1.334 . S
C7634 H7605 0.950 . S
C7634 C7633 1.334 . S
C7634 C7635 1.287 . S
C7635 C7634 1.287 . S
C7635 C7636 1.524 . S
C7635 H7638 0.999 . S
C7636 H7606 0.950 . S
C7636 C7635 1.524 . S
C7636 C7637 1.415 . S
C7637 H7607 0.950 . S
C7637 C7632 1.363 . S
C7637 C7636 1.415 . S
H7638 C7635 0.999 . S
H7639 C7620 0.913 . S
H7640 C7658 0.951 . S
H7641 C7660 0.951 . S
H7642 C7662 0.950 . S
H7643 C7663 0.950 . S
H7644 C7665 0.950 . S
H7645 C7668 0.950 . S
H7646 C7669 0.950 . S
H7647 C7671 0.950 . S
H7648 C7672 0.950 . S
H7649 C7673 0.951 . S
H7650 C7675 0.951 . S
H7651 C7677 0.950 . S
H7652 C7678 0.950 . S
H7653 C7680 0.950 . S
H7654 C7683 0.950 . S
H7655 C7684 0.950 . S
H7656 C7686 0.950 . S
H7657 C7687 0.950 . S
C7658 H7640 0.951 . S
C7658 C7659 1.366 . S
C7658 C7660 1.388 . S
C7659 C7658 1.366 . S
C7659 C7663 1.385 . S
C7660 H7641 0.951 . S
C7660 C7658 1.388 . S
C7660 C7661 1.366 . S
C7661 C7660 1.366 . S
C7661 C7662 1.414 . S
C7661 C7664 1.499 . S
C7662 H7642 0.950 . S
C7662 C7661 1.414 . S
C7662 C7663 1.374 . S
C7663 H7643 0.950 . S
C7663 C7659 1.385 . S
C7663 C7662 1.374 . S
C7664 C7661 1.499 . S
C7664 C7665 1.373 . S
C7664 C7666 1.389 . S
C7665 H7644 0.950 . S
C7665 C7664 1.373 . S
C7665 C7681 1.377 . S
C7666 C7664 1.389 . S
C7666 C7667 1.524 . S
C7666 C7680 1.377 . S
C7667 C7666 1.524 . S
C7667 C7668 1.397 . S
C7667 C7672 1.363 . S
C7668 H7645 0.950 . S
C7668 C7667 1.397 . S
C7668 C7669 1.334 . S
C7669 H7646 0.950 . S
C7669 C7668 1.334 . S
C7669 C7670 1.287 . S
C7670 C7669 1.287 . S
C7670 C7671 1.524 . S
C7670 H7689 0.913 . S
C7671 H7647 0.950 . S
C7671 C7670 1.524 . S
C7671 C7672 1.415 . S
C7672 H7648 0.950 . S
C7672 C7667 1.363 . S
C7672 C7671 1.415 . S
C7673 H7649 0.951 . S
C7673 C7674 1.366 . S
C7673 C7675 1.388 . S
C7674 C7673 1.366 . S
C7674 C7678 1.385 . S
C7675 H7650 0.951 . S
C7675 C7673 1.388 . S
C7675 C7676 1.366 . S
C7676 C7675 1.366 . S
C7676 C7677 1.414 . S
C7676 C7679 1.499 . S
C7677 H7651 0.950 . S
C7677 C7676 1.414 . S
C7677 C7678 1.374 . S
C7678 H7652 0.950 . S
C7678 C7674 1.385 . S
C7678 C7677 1.374 . S
C7679 C7676 1.499 . S
C7679 C7680 1.373 . S
C7679 C7681 1.389 . S
C7680 H7653 0.950 . S
C7680 C7666 1.377 . S
C7680 C7679 1.373 . S
C7681 C7665 1.377 . S
C7681 C7679 1.389 . S
C7681 C7682 1.524 . S
C7682 C7681 1.524 . S
C7682 C7683 1.397 . S
C7682 C7687 1.363 . S
C7683 H7654 0.950 . S
C7683 C7682 1.397 . S
C7683 C7684 1.334 . S
C7684 H7655 0.950 . S
C7684 C7683 1.334 . S
C7684 C7685 1.287 . S
C7685 C7684 1.287 . S
C7685 C7686 1.524 . S
C7685 H7688 0.999 . S
C7686 H7656 0.950 . S
C7686 C7685 1.524 . S
C7686 C7687 1.415 . S
C7687 H7657 0.950 . S
C7687 C7682 1.363 . S
C7687 C7686 1.415 . S
H7688 C7685 0.999 . S
H7689 C7670 0.913 . S
H7690 C7708 0.951 . S
H7691 C7710 0.951 . S
H7692 C7712 0.950 . S
H7693 C7713 0.950 . S
H7694 C7715 0.950 . S
H7695 C7718 0.950 . S
H7696 C7719 0.950 . S
H7697 C7721 0.950 . S
H7698 C7722 0.950 . S
H7699 C7723 0.951 . S
H7700 C7725 0.951 . S
H7701 C7727 0.950 . S
H7702 C7728 0.950 . S
H7703 C7730 0.950 . S
H7704 C7733 0.950 . S
H7705 C7734 0.950 . S
H7706 C7736 0.950 . S
H7707 C7737 0.950 . S
C7708 H7690 0.951 . S
C7708 C7709 1.366 . S
C7708 C7710 1.388 . S
C7709 C7708 1.366 . S
C7709 C7713 1.385 . S
C7710 H7691 0.951 . S
C7710 C7708 1.388 . S
C7710 C7711 1.366 . S
C7711 C7710 1.366 . S
C7711 C7712 1.414 . S
C7711 C7714 1.499 . S
C7712 H7692 0.950 . S
C7712 C7711 1.414 . S
C7712 C7713 1.374 . S
C7713 H7693 0.950 . S
C7713 C7709 1.385 . S
C7713 C7712 1.374 . S
C7714 C7711 1.499 . S
C7714 C7715 1.373 . S
C7714 C7716 1.389 . S
C7715 H7694 0.950 . S
C7715 C7714 1.373 . S
C7715 C7731 1.377 . S
C7716 C7714 1.389 . S
C7716 C7717 1.524 . S
C7716 C7730 1.377 . S
C7717 C7716 1.524 . S
C7717 C7718 1.397 . S
C7717 C7722 1.363 . S
C7718 H7695 0.950 . S
C7718 C7717 1.397 . S
C7718 C7719 1.334 . S
C7719 H7696 0.950 . S
C7719 C7718 1.334 . S
C7719 C7720 1.287 . S
C7720 C7719 1.287 . S
C7720 C7721 1.524 . S
C7720 H7739 0.913 . S
C7721 H7697 0.950 . S
C7721 C7720 1.524 . S
C7721 C7722 1.415 . S
C7722 H7698 0.950 . S
C7722 C7717 1.363 . S
C7722 C7721 1.415 . S
C7723 H7699 0.951 . S
C7723 C7724 1.366 . S
C7723 C7725 1.388 . S
C7724 C7723 1.366 . S
C7724 C7728 1.385 . S
C7725 H7700 0.951 . S
C7725 C7723 1.388 . S
C7725 C7726 1.366 . S
C7726 C7725 1.366 . S
C7726 C7727 1.414 . S
C7726 C7729 1.499 . S
C7727 H7701 0.950 . S
C7727 C7726 1.414 . S
C7727 C7728 1.374 . S
C7728 H7702 0.950 . S
C7728 C7724 1.385 . S
C7728 C7727 1.374 . S
C7729 C7726 1.499 . S
C7729 C7730 1.373 . S
C7729 C7731 1.389 . S
C7730 H7703 0.950 . S
C7730 C7716 1.377 . S
C7730 C7729 1.373 . S
C7731 C7715 1.377 . S
C7731 C7729 1.389 . S
C7731 C7732 1.524 . S
C7732 C7731 1.524 . S
C7732 C7733 1.397 . S
C7732 C7737 1.363 . S
C7733 H7704 0.950 . S
C7733 C7732 1.397 . S
C7733 C7734 1.334 . S
C7734 H7705 0.950 . S
C7734 C7733 1.334 . S
C7734 C7735 1.287 . S
C7735 C7734 1.287 . S
C7735 C7736 1.524 . S
C7735 H7738 0.999 . S
C7736 H7706 0.950 . S
C7736 C7735 1.524 . S
C7736 C7737 1.415 . S
C7737 H7707 0.950 . S
C7737 C7732 1.363 . S
C7737 C7736 1.415 . S
H7738 C7735 0.999 . S
H7739 C7720 0.913 . S
H7740 C7758 0.951 . S
H7741 C7760 0.951 . S
H7742 C7762 0.950 . S
H7743 C7763 0.950 . S
H7744 C7765 0.950 . S
H7745 C7768 0.950 . S
H7746 C7769 0.950 . S
H7747 C7771 0.950 . S
H7748 C7772 0.950 . S
H7749 C7773 0.951 . S
H7750 C7775 0.951 . S
H7751 C7777 0.950 . S
H7752 C7778 0.950 . S
H7753 C7780 0.950 . S
H7754 C7783 0.950 . S
H7755 C7784 0.950 . S
H7756 C7786 0.950 . S
H7757 C7787 0.950 . S
C7758 H7740 0.951 . S
C7758 C7759 1.366 . S
C7758 C7760 1.388 . S
C7759 C7758 1.366 . S
C7759 C7763 1.385 . S
C7760 H7741 0.951 . S
C7760 C7758 1.388 . S
C7760 C7761 1.366 . S
C7761 C7760 1.366 . S
C7761 C7762 1.414 . S
C7761 C7764 1.499 . S
C7762 H7742 0.950 . S
C7762 C7761 1.414 . S
C7762 C7763 1.374 . S
C7763 H7743 0.950 . S
C7763 C7759 1.385 . S
C7763 C7762 1.374 . S
C7764 C7761 1.499 . S
C7764 C7765 1.373 . S
C7764 C7766 1.389 . S
C7765 H7744 0.950 . S
C7765 C7764 1.373 . S
C7765 C7781 1.377 . S
C7766 C7764 1.389 . S
C7766 C7767 1.524 . S
C7766 C7780 1.377 . S
C7767 C7766 1.524 . S
C7767 C7768 1.397 . S
C7767 C7772 1.363 . S
C7768 H7745 0.950 . S
C7768 C7767 1.397 . S
C7768 C7769 1.334 . S
C7769 H7746 0.950 . S
C7769 C7768 1.334 . S
C7769 C7770 1.287 . S
C7770 C7769 1.287 . S
C7770 C7771 1.524 . S
C7770 H7789 0.913 . S
C7771 H7747 0.950 . S
C7771 C7770 1.524 . S
C7771 C7772 1.415 . S
C7772 H7748 0.950 . S
C7772 C7767 1.363 . S
C7772 C7771 1.415 . S
C7773 H7749 0.951 . S
C7773 C7774 1.366 . S
C7773 C7775 1.388 . S
C7774 C7773 1.366 . S
C7774 C7778 1.385 . S
C7775 H7750 0.951 . S
C7775 C7773 1.388 . S
C7775 C7776 1.366 . S
C7776 C7775 1.366 . S
C7776 C7777 1.414 . S
C7776 C7779 1.499 . S
C7777 H7751 0.950 . S
C7777 C7776 1.414 . S
C7777 C7778 1.374 . S
C7778 H7752 0.950 . S
C7778 C7774 1.385 . S
C7778 C7777 1.374 . S
C7779 C7776 1.499 . S
C7779 C7780 1.373 . S
C7779 C7781 1.389 . S
C7780 H7753 0.950 . S
C7780 C7766 1.377 . S
C7780 C7779 1.373 . S
C7781 C7765 1.377 . S
C7781 C7779 1.389 . S
C7781 C7782 1.524 . S
C7782 C7781 1.524 . S
C7782 C7783 1.397 . S
C7782 C7787 1.363 . S
C7783 H7754 0.950 . S
C7783 C7782 1.397 . S
C7783 C7784 1.334 . S
C7784 H7755 0.950 . S
C7784 C7783 1.334 . S
C7784 C7785 1.287 . S
C7785 C7784 1.287 . S
C7785 C7786 1.524 . S
C7785 H7788 0.999 . S
C7786 H7756 0.950 . S
C7786 C7785 1.524 . S
C7786 C7787 1.415 . S
C7787 H7757 0.950 . S
C7787 C7782 1.363 . S
C7787 C7786 1.415 . S
H7788 C7785 0.999 . S
H7789 C7770 0.913 . S
H7790 C7808 0.951 . S
H7791 C7810 0.951 . S
H7792 C7812 0.950 . S
H7793 C7813 0.950 . S
H7794 C7815 0.950 . S
H7795 C7818 0.950 . S
H7796 C7819 0.950 . S
H7797 C7821 0.950 . S
H7798 C7822 0.950 . S
H7799 C7823 0.951 . S
H7800 C7825 0.951 . S
H7801 C7827 0.950 . S
H7802 C7828 0.950 . S
H7803 C7830 0.950 . S
H7804 C7833 0.950 . S
H7805 C7834 0.950 . S
H7806 C7836 0.950 . S
H7807 C7837 0.950 . S
C7808 H7790 0.951 . S
C7808 C7809 1.366 . S
C7808 C7810 1.388 . S
C7809 C7808 1.366 . S
C7809 C7813 1.385 . S
C7810 H7791 0.951 . S
C7810 C7808 1.388 . S
C7810 C7811 1.366 . S
C7811 C7810 1.366 . S
C7811 C7812 1.414 . S
C7811 C7814 1.499 . S
C7812 H7792 0.950 . S
C7812 C7811 1.414 . S
C7812 C7813 1.374 . S
C7813 H7793 0.950 . S
C7813 C7809 1.385 . S
C7813 C7812 1.374 . S
C7814 C7811 1.499 . S
C7814 C7815 1.373 . S
C7814 C7816 1.389 . S
C7815 H7794 0.950 . S
C7815 C7814 1.373 . S
C7815 C7831 1.377 . S
C7816 C7814 1.389 . S
C7816 C7817 1.524 . S
C7816 C7830 1.377 . S
C7817 C7816 1.524 . S
C7817 C7818 1.397 . S
C7817 C7822 1.363 . S
C7818 H7795 0.950 . S
C7818 C7817 1.397 . S
C7818 C7819 1.334 . S
C7819 H7796 0.950 . S
C7819 C7818 1.334 . S
C7819 C7820 1.287 . S
C7820 C7819 1.287 . S
C7820 C7821 1.524 . S
C7820 H7839 0.913 . S
C7821 H7797 0.950 . S
C7821 C7820 1.524 . S
C7821 C7822 1.415 . S
C7822 H7798 0.950 . S
C7822 C7817 1.363 . S
C7822 C7821 1.415 . S
C7823 H7799 0.951 . S
C7823 C7824 1.366 . S
C7823 C7825 1.388 . S
C7824 C7823 1.366 . S
C7824 C7828 1.385 . S
C7825 H7800 0.951 . S
C7825 C7823 1.388 . S
C7825 C7826 1.366 . S
C7826 C7825 1.366 . S
C7826 C7827 1.414 . S
C7826 C7829 1.499 . S
C7827 H7801 0.950 . S
C7827 C7826 1.414 . S
C7827 C7828 1.374 . S
C7828 H7802 0.950 . S
C7828 C7824 1.385 . S
C7828 C7827 1.374 . S
C7829 C7826 1.499 . S
C7829 C7830 1.373 . S
C7829 C7831 1.389 . S
C7830 H7803 0.950 . S
C7830 C7816 1.377 . S
C7830 C7829 1.373 . S
C7831 C7815 1.377 . S
C7831 C7829 1.389 . S
C7831 C7832 1.524 . S
C7832 C7831 1.524 . S
C7832 C7833 1.397 . S
C7832 C7837 1.363 . S
C7833 H7804 0.950 . S
C7833 C7832 1.397 . S
C7833 C7834 1.334 . S
C7834 H7805 0.950 . S
C7834 C7833 1.334 . S
C7834 C7835 1.287 . S
C7835 C7834 1.287 . S
C7835 C7836 1.524 . S
C7835 H7838 0.999 . S
C7836 H7806 0.950 . S
C7836 C7835 1.524 . S
C7836 C7837 1.415 . S
C7837 H7807 0.950 . S
C7837 C7832 1.363 . S
C7837 C7836 1.415 . S
H7838 C7835 0.999 . S
H7839 C7820 0.913 . S
H7840 C7858 0.951 . S
H7841 C7860 0.951 . S
H7842 C7862 0.950 . S
H7843 C7863 0.950 . S
H7844 C7865 0.950 . S
H7845 C7868 0.950 . S
H7846 C7869 0.950 . S
H7847 C7871 0.950 . S
H7848 C7872 0.950 . S
H7849 C7873 0.951 . S
H7850 C7875 0.951 . S
H7851 C7877 0.950 . S
H7852 C7878 0.950 . S
H7853 C7880 0.950 . S
H7854 C7883 0.950 . S
H7855 C7884 0.950 . S
H7856 C7886 0.950 . S
H7857 C7887 0.950 . S
C7858 H7840 0.951 . S
C7858 C7859 1.366 . S
C7858 C7860 1.388 . S
C7859 C7858 1.366 . S
C7859 C7863 1.385 . S
C7860 H7841 0.951 . S
C7860 C7858 1.388 . S
C7860 C7861 1.366 . S
C7861 C7860 1.366 . S
C7861 C7862 1.414 . S
C7861 C7864 1.499 . S
C7862 H7842 0.950 . S
C7862 C7861 1.414 . S
C7862 C7863 1.374 . S
C7863 H7843 0.950 . S
C7863 C7859 1.385 . S
C7863 C7862 1.374 . S
C7864 C7861 1.499 . S
C7864 C7865 1.373 . S
C7864 C7866 1.389 . S
C7865 H7844 0.950 . S
C7865 C7864 1.373 . S
C7865 C7881 1.377 . S
C7866 C7864 1.389 . S
C7866 C7867 1.524 . S
C7866 C7880 1.377 . S
C7867 C7866 1.524 . S
C7867 C7868 1.397 . S
C7867 C7872 1.363 . S
C7868 H7845 0.950 . S
C7868 C7867 1.397 . S
C7868 C7869 1.334 . S
C7869 H7846 0.950 . S
C7869 C7868 1.334 . S
C7869 C7870 1.287 . S
C7870 C7869 1.287 . S
C7870 C7871 1.524 . S
C7870 H7889 0.913 . S
C7871 H7847 0.950 . S
C7871 C7870 1.524 . S
C7871 C7872 1.415 . S
C7872 H7848 0.950 . S
C7872 C7867 1.363 . S
C7872 C7871 1.415 . S
C7873 H7849 0.951 . S
C7873 C7874 1.366 . S
C7873 C7875 1.388 . S
C7874 C7873 1.366 . S
C7874 C7878 1.385 . S
C7875 H7850 0.951 . S
C7875 C7873 1.388 . S
C7875 C7876 1.366 . S
C7876 C7875 1.366 . S
C7876 C7877 1.414 . S
C7876 C7879 1.499 . S
C7877 H7851 0.950 . S
C7877 C7876 1.414 . S
C7877 C7878 1.374 . S
C7878 H7852 0.950 . S
C7878 C7874 1.385 . S
C7878 C7877 1.374 . S
C7879 C7876 1.499 . S
C7879 C7880 1.373 . S
C7879 C7881 1.389 . S
C7880 H7853 0.950 . S
C7880 C7866 1.377 . S
C7880 C7879 1.373 . S
C7881 C7865 1.377 . S
C7881 C7879 1.389 . S
C7881 C7882 1.524 . S
C7882 C7881 1.524 . S
C7882 C7883 1.397 . S
C7882 C7887 1.363 . S
C7883 H7854 0.950 . S
C7883 C7882 1.397 . S
C7883 C7884 1.334 . S
C7884 H7855 0.950 . S
C7884 C7883 1.334 . S
C7884 C7885 1.287 . S
C7885 C7884 1.287 . S
C7885 C7886 1.524 . S
C7885 H7888 0.999 . S
C7886 H7856 0.950 . S
C7886 C7885 1.524 . S
C7886 C7887 1.415 . S
C7887 H7857 0.950 . S
C7887 C7882 1.363 . S
C7887 C7886 1.415 . S
H7888 C7885 0.999 . S
H7889 C7870 0.913 . S
H7890 C7908 0.951 . S
H7891 C7910 0.951 . S
H7892 C7912 0.950 . S
H7893 C7913 0.950 . S
H7894 C7915 0.950 . S
H7895 C7918 0.950 . S
H7896 C7919 0.950 . S
H7897 C7921 0.950 . S
H7898 C7922 0.950 . S
H7899 C7923 0.951 . S
H7900 C7925 0.951 . S
H7901 C7927 0.950 . S
H7902 C7928 0.950 . S
H7903 C7930 0.950 . S
H7904 C7933 0.950 . S
H7905 C7934 0.950 . S
H7906 C7936 0.950 . S
H7907 C7937 0.950 . S
C7908 H7890 0.951 . S
C7908 C7909 1.366 . S
C7908 C7910 1.388 . S
C7909 C7908 1.366 . S
C7909 C7913 1.385 . S
C7910 H7891 0.951 . S
C7910 C7908 1.388 . S
C7910 C7911 1.366 . S
C7911 C7910 1.366 . S
C7911 C7912 1.414 . S
C7911 C7914 1.499 . S
C7912 H7892 0.950 . S
C7912 C7911 1.414 . S
C7912 C7913 1.374 . S
C7913 H7893 0.950 . S
C7913 C7909 1.385 . S
C7913 C7912 1.374 . S
C7914 C7911 1.499 . S
C7914 C7915 1.373 . S
C7914 C7916 1.389 . S
C7915 H7894 0.950 . S
C7915 C7914 1.373 . S
C7915 C7931 1.377 . S
C7916 C7914 1.389 . S
C7916 C7917 1.524 . S
C7916 C7930 1.377 . S
C7917 C7916 1.524 . S
C7917 C7918 1.397 . S
C7917 C7922 1.363 . S
C7918 H7895 0.950 . S
C7918 C7917 1.397 . S
C7918 C7919 1.334 . S
C7919 H7896 0.950 . S
C7919 C7918 1.334 . S
C7919 C7920 1.287 . S
C7920 C7919 1.287 . S
C7920 C7921 1.524 . S
C7920 H7939 0.913 . S
C7921 H7897 0.950 . S
C7921 C7920 1.524 . S
C7921 C7922 1.415 . S
C7922 H7898 0.950 . S
C7922 C7917 1.363 . S
C7922 C7921 1.415 . S
C7923 H7899 0.951 . S
C7923 C7924 1.366 . S
C7923 C7925 1.388 . S
C7924 C7923 1.366 . S
C7924 C7928 1.385 . S
C7925 H7900 0.951 . S
C7925 C7923 1.388 . S
C7925 C7926 1.366 . S
C7926 C7925 1.366 . S
C7926 C7927 1.414 . S
C7926 C7929 1.499 . S
C7927 H7901 0.950 . S
C7927 C7926 1.414 . S
C7927 C7928 1.374 . S
C7928 H7902 0.950 . S
C7928 C7924 1.385 . S
C7928 C7927 1.374 . S
C7929 C7926 1.499 . S
C7929 C7930 1.373 . S
C7929 C7931 1.389 . S
C7930 H7903 0.950 . S
C7930 C7916 1.377 . S
C7930 C7929 1.373 . S
C7931 C7915 1.377 . S
C7931 C7929 1.389 . S
C7931 C7932 1.524 . S
C7932 C7931 1.524 . S
C7932 C7933 1.397 . S
C7932 C7937 1.363 . S
C7933 H7904 0.950 . S
C7933 C7932 1.397 . S
C7933 C7934 1.334 . S
C7934 H7905 0.950 . S
C7934 C7933 1.334 . S
C7934 C7935 1.287 . S
C7935 C7934 1.287 . S
C7935 C7936 1.524 . S
C7935 H7938 0.999 . S
C7936 H7906 0.950 . S
C7936 C7935 1.524 . S
C7936 C7937 1.415 . S
C7937 H7907 0.950 . S
C7937 C7932 1.363 . S
C7937 C7936 1.415 . S
H7938 C7935 0.999 . S
H7939 C7920 0.913 . S
H7940 C7958 0.951 . S
H7941 C7960 0.951 . S
H7942 C7962 0.950 . S
H7943 C7963 0.950 . S
H7944 C7965 0.950 . S
H7945 C7968 0.950 . S
H7946 C7969 0.950 . S
H7947 C7971 0.950 . S
H7948 C7972 0.950 . S
H7949 C7973 0.951 . S
H7950 C7975 0.951 . S
H7951 C7977 0.950 . S
H7952 C7978 0.950 . S
H7953 C7980 0.950 . S
H7954 C7983 0.950 . S
H7955 C7984 0.950 . S
H7956 C7986 0.950 . S
H7957 C7987 0.950 . S
C7958 H7940 0.951 . S
C7958 C7959 1.366 . S
C7958 C7960 1.388 . S
C7959 C7958 1.366 . S
C7959 C7963 1.385 . S
C7960 H7941 0.951 . S
C7960 C7958 1.388 . S
C7960 C7961 1.366 . S
C7961 C7960 1.366 . S
C7961 C7962 1.414 . S
C7961 C7964 1.499 . S
C7962 H7942 0.950 . S
C7962 C7961 1.414 . S
C7962 C7963 1.374 . S
C7963 H7943 0.950 . S
C7963 C7959 1.385 . S
C7963 C7962 1.374 . S
C7964 C7961 1.499 . S
C7964 C7965 1.373 . S
C7964 C7966 1.389 . S
C7965 H7944 0.950 . S
C7965 C7964 1.373 . S
C7965 C7981 1.377 . S
C7966 C7964 1.389 . S
C7966 C7967 1.524 . S
C7966 C7980 1.377 . S
C7967 C7966 1.524 . S
C7967 C7968 1.397 . S
C7967 C7972 1.363 . S
C7968 H7945 0.950 . S
C7968 C7967 1.397 . S
C7968 C7969 1.334 . S
C7969 H7946 0.950 . S
C7969 C7968 1.334 . S
C7969 C7970 1.287 . S
C7970 C7969 1.287 . S
C7970 C7971 1.524 . S
C7970 H7989 0.913 . S
C7971 H7947 0.950 . S
C7971 C7970 1.524 . S
C7971 C7972 1.415 . S
C7972 H7948 0.950 . S
C7972 C7967 1.363 . S
C7972 C7971 1.415 . S
C7973 H7949 0.951 . S
C7973 C7974 1.366 . S
C7973 C7975 1.388 . S
C7974 C7973 1.366 . S
C7974 C7978 1.385 . S
C7975 H7950 0.951 . S
C7975 C7973 1.388 . S
C7975 C7976 1.366 . S
C7976 C7975 1.366 . S
C7976 C7977 1.414 . S
C7976 C7979 1.499 . S
C7977 H7951 0.950 . S
C7977 C7976 1.414 . S
C7977 C7978 1.374 . S
C7978 H7952 0.950 . S
C7978 C7974 1.385 . S
C7978 C7977 1.374 . S
C7979 C7976 1.499 . S
C7979 C7980 1.373 . S
C7979 C7981 1.389 . S
C7980 H7953 0.950 . S
C7980 C7966 1.377 . S
C7980 C7979 1.373 . S
C7981 C7965 1.377 . S
C7981 C7979 1.389 . S
C7981 C7982 1.524 . S
C7982 C7981 1.524 . S
C7982 C7983 1.397 . S
C7982 C7987 1.363 . S
C7983 H7954 0.950 . S
C7983 C7982 1.397 . S
C7983 C7984 1.334 . S
C7984 H7955 0.950 . S
C7984 C7983 1.334 . S
C7984 C7985 1.287 . S
C7985 C7984 1.287 . S
C7985 C7986 1.524 . S
C7985 H7988 0.999 . S
C7986 H7956 0.950 . S
C7986 C7985 1.524 . S
C7986 C7987 1.415 . S
C7987 H7957 0.950 . S
C7987 C7982 1.363 . S
C7987 C7986 1.415 . S
H7988 C7985 0.999 . S
H7989 C7970 0.913 . S
H7990 C8008 0.951 . S
H7991 C8010 0.951 . S
H7992 C8012 0.950 . S
H7993 C8013 0.950 . S
H7994 C8015 0.950 . S
H7995 C8018 0.950 . S
H7996 C8019 0.950 . S
H7997 C8021 0.950 . S
H7998 C8022 0.950 . S
H7999 C8023 0.951 . S
H8000 C8025 0.951 . S
H8001 C8027 0.950 . S
H8002 C8028 0.950 . S
H8003 C8030 0.950 . S
H8004 C8033 0.950 . S
H8005 C8034 0.950 . S
H8006 C8036 0.950 . S
H8007 C8037 0.950 . S
C8008 H7990 0.951 . S
C8008 C8009 1.366 . S
C8008 C8010 1.388 . S
C8009 C8008 1.366 . S
C8009 C8013 1.385 . S
C8010 H7991 0.951 . S
C8010 C8008 1.388 . S
C8010 C8011 1.366 . S
C8011 C8010 1.366 . S
C8011 C8012 1.414 . S
C8011 C8014 1.499 . S
C8012 H7992 0.950 . S
C8012 C8011 1.414 . S
C8012 C8013 1.374 . S
C8013 H7993 0.950 . S
C8013 C8009 1.385 . S
C8013 C8012 1.374 . S
C8014 C8011 1.499 . S
C8014 C8015 1.373 . S
C8014 C8016 1.389 . S
C8015 H7994 0.950 . S
C8015 C8014 1.373 . S
C8015 C8031 1.377 . S
C8016 C8014 1.389 . S
C8016 C8017 1.524 . S
C8016 C8030 1.377 . S
C8017 C8016 1.524 . S
C8017 C8018 1.397 . S
C8017 C8022 1.363 . S
C8018 H7995 0.950 . S
C8018 C8017 1.397 . S
C8018 C8019 1.334 . S
C8019 H7996 0.950 . S
C8019 C8018 1.334 . S
C8019 C8020 1.287 . S
C8020 C8019 1.287 . S
C8020 C8021 1.524 . S
C8020 H8039 0.913 . S
C8021 H7997 0.950 . S
C8021 C8020 1.524 . S
C8021 C8022 1.415 . S
C8022 H7998 0.950 . S
C8022 C8017 1.363 . S
C8022 C8021 1.415 . S
C8023 H7999 0.951 . S
C8023 C8024 1.366 . S
C8023 C8025 1.388 . S
C8024 C8023 1.366 . S
C8024 C8028 1.385 . S
C8025 H8000 0.951 . S
C8025 C8023 1.388 . S
C8025 C8026 1.366 . S
C8026 C8025 1.366 . S
C8026 C8027 1.414 . S
C8026 C8029 1.499 . S
C8027 H8001 0.950 . S
C8027 C8026 1.414 . S
C8027 C8028 1.374 . S
C8028 H8002 0.950 . S
C8028 C8024 1.385 . S
C8028 C8027 1.374 . S
C8029 C8026 1.499 . S
C8029 C8030 1.373 . S
C8029 C8031 1.389 . S
C8030 H8003 0.950 . S
C8030 C8016 1.377 . S
C8030 C8029 1.373 . S
C8031 C8015 1.377 . S
C8031 C8029 1.389 . S
C8031 C8032 1.524 . S
C8032 C8031 1.524 . S
C8032 C8033 1.397 . S
C8032 C8037 1.363 . S
C8033 H8004 0.950 . S
C8033 C8032 1.397 . S
C8033 C8034 1.334 . S
C8034 H8005 0.950 . S
C8034 C8033 1.334 . S
C8034 C8035 1.287 . S
C8035 C8034 1.287 . S
C8035 C8036 1.524 . S
C8035 H8038 0.999 . S
C8036 H8006 0.950 . S
C8036 C8035 1.524 . S
C8036 C8037 1.415 . S
C8037 H8007 0.950 . S
C8037 C8032 1.363 . S
C8037 C8036 1.415 . S
H8038 C8035 0.999 . S
H8039 C8020 0.913 . S
H8040 C8058 0.951 . S
H8041 C8060 0.951 . S
H8042 C8062 0.950 . S
H8043 C8063 0.950 . S
H8044 C8065 0.950 . S
H8045 C8068 0.950 . S
H8046 C8069 0.950 . S
H8047 C8071 0.950 . S
H8048 C8072 0.950 . S
H8049 C8073 0.951 . S
H8050 C8075 0.951 . S
H8051 C8077 0.950 . S
H8052 C8078 0.950 . S
H8053 C8080 0.950 . S
H8054 C8083 0.950 . S
H8055 C8084 0.950 . S
H8056 C8086 0.950 . S
H8057 C8087 0.950 . S
C8058 H8040 0.951 . S
C8058 C8059 1.366 . S
C8058 C8060 1.388 . S
C8059 C8058 1.366 . S
C8059 C8063 1.385 . S
C8060 H8041 0.951 . S
C8060 C8058 1.388 . S
C8060 C8061 1.366 . S
C8061 C8060 1.366 . S
C8061 C8062 1.414 . S
C8061 C8064 1.499 . S
C8062 H8042 0.950 . S
C8062 C8061 1.414 . S
C8062 C8063 1.374 . S
C8063 H8043 0.950 . S
C8063 C8059 1.385 . S
C8063 C8062 1.374 . S
C8064 C8061 1.499 . S
C8064 C8065 1.373 . S
C8064 C8066 1.389 . S
C8065 H8044 0.950 . S
C8065 C8064 1.373 . S
C8065 C8081 1.377 . S
C8066 C8064 1.389 . S
C8066 C8067 1.524 . S
C8066 C8080 1.377 . S
C8067 C8066 1.524 . S
C8067 C8068 1.397 . S
C8067 C8072 1.363 . S
C8068 H8045 0.950 . S
C8068 C8067 1.397 . S
C8068 C8069 1.334 . S
C8069 H8046 0.950 . S
C8069 C8068 1.334 . S
C8069 C8070 1.287 . S
C8070 C8069 1.287 . S
C8070 C8071 1.524 . S
C8070 H8089 0.913 . S
C8071 H8047 0.950 . S
C8071 C8070 1.524 . S
C8071 C8072 1.415 . S
C8072 H8048 0.950 . S
C8072 C8067 1.363 . S
C8072 C8071 1.415 . S
C8073 H8049 0.951 . S
C8073 C8074 1.366 . S
C8073 C8075 1.388 . S
C8074 C8073 1.366 . S
C8074 C8078 1.385 . S
C8075 H8050 0.951 . S
C8075 C8073 1.388 . S
C8075 C8076 1.366 . S
C8076 C8075 1.366 . S
C8076 C8077 1.414 . S
C8076 C8079 1.499 . S
C8077 H8051 0.950 . S
C8077 C8076 1.414 . S
C8077 C8078 1.374 . S
C8078 H8052 0.950 . S
C8078 C8074 1.385 . S
C8078 C8077 1.374 . S
C8079 C8076 1.499 . S
C8079 C8080 1.373 . S
C8079 C8081 1.389 . S
C8080 H8053 0.950 . S
C8080 C8066 1.377 . S
C8080 C8079 1.373 . S
C8081 C8065 1.377 . S
C8081 C8079 1.389 . S
C8081 C8082 1.524 . S
C8082 C8081 1.524 . S
C8082 C8083 1.397 . S
C8082 C8087 1.363 . S
C8083 H8054 0.950 . S
C8083 C8082 1.397 . S
C8083 C8084 1.334 . S
C8084 H8055 0.950 . S
C8084 C8083 1.334 . S
C8084 C8085 1.287 . S
C8085 C8084 1.287 . S
C8085 C8086 1.524 . S
C8085 H8088 0.999 . S
C8086 H8056 0.950 . S
C8086 C8085 1.524 . S
C8086 C8087 1.415 . S
C8087 H8057 0.950 . S
C8087 C8082 1.363 . S
C8087 C8086 1.415 . S
H8088 C8085 0.999 . S
H8089 C8070 0.913 . S
H8090 C8108 0.951 . S
H8091 C8110 0.951 . S
H8092 C8112 0.950 . S
H8093 C8113 0.950 . S
H8094 C8115 0.950 . S
H8095 C8118 0.950 . S
H8096 C8119 0.950 . S
H8097 C8121 0.950 . S
H8098 C8122 0.950 . S
H8099 C8123 0.951 . S
H8100 C8125 0.951 . S
H8101 C8127 0.950 . S
H8102 C8128 0.950 . S
H8103 C8130 0.950 . S
H8104 C8133 0.950 . S
H8105 C8134 0.950 . S
H8106 C8136 0.950 . S
H8107 C8137 0.950 . S
C8108 H8090 0.951 . S
C8108 C8109 1.366 . S
C8108 C8110 1.388 . S
C8109 C8108 1.366 . S
C8109 C8113 1.385 . S
C8110 H8091 0.951 . S
C8110 C8108 1.388 . S
C8110 C8111 1.366 . S
C8111 C8110 1.366 . S
C8111 C8112 1.414 . S
C8111 C8114 1.499 . S
C8112 H8092 0.950 . S
C8112 C8111 1.414 . S
C8112 C8113 1.374 . S
C8113 H8093 0.950 . S
C8113 C8109 1.385 . S
C8113 C8112 1.374 . S
C8114 C8111 1.499 . S
C8114 C8115 1.373 . S
C8114 C8116 1.389 . S
C8115 H8094 0.950 . S
C8115 C8114 1.373 . S
C8115 C8131 1.377 . S
C8116 C8114 1.389 . S
C8116 C8117 1.524 . S
C8116 C8130 1.377 . S
C8117 C8116 1.524 . S
C8117 C8118 1.397 . S
C8117 C8122 1.363 . S
C8118 H8095 0.950 . S
C8118 C8117 1.397 . S
C8118 C8119 1.334 . S
C8119 H8096 0.950 . S
C8119 C8118 1.334 . S
C8119 C8120 1.287 . S
C8120 C8119 1.287 . S
C8120 C8121 1.524 . S
C8120 H8139 0.913 . S
C8121 H8097 0.950 . S
C8121 C8120 1.524 . S
C8121 C8122 1.415 . S
C8122 H8098 0.950 . S
C8122 C8117 1.363 . S
C8122 C8121 1.415 . S
C8123 H8099 0.951 . S
C8123 C8124 1.366 . S
C8123 C8125 1.388 . S
C8124 C8123 1.366 . S
C8124 C8128 1.385 . S
C8125 H8100 0.951 . S
C8125 C8123 1.388 . S
C8125 C8126 1.366 . S
C8126 C8125 1.366 . S
C8126 C8127 1.414 . S
C8126 C8129 1.499 . S
C8127 H8101 0.950 . S
C8127 C8126 1.414 . S
C8127 C8128 1.374 . S
C8128 H8102 0.950 . S
C8128 C8124 1.385 . S
C8128 C8127 1.374 . S
C8129 C8126 1.499 . S
C8129 C8130 1.373 . S
C8129 C8131 1.389 . S
C8130 H8103 0.950 . S
C8130 C8116 1.377 . S
C8130 C8129 1.373 . S
C8131 C8115 1.377 . S
C8131 C8129 1.389 . S
C8131 C8132 1.524 . S
C8132 C8131 1.524 . S
C8132 C8133 1.397 . S
C8132 C8137 1.363 . S
C8133 H8104 0.950 . S
C8133 C8132 1.397 . S
C8133 C8134 1.334 . S
C8134 H8105 0.950 . S
C8134 C8133 1.334 . S
C8134 C8135 1.287 . S
C8135 C8134 1.287 . S
C8135 C8136 1.524 . S
C8135 H8138 0.999 . S
C8136 H8106 0.950 . S
C8136 C8135 1.524 . S
C8136 C8137 1.415 . S
C8137 H8107 0.950 . S
C8137 C8132 1.363 . S
C8137 C8136 1.415 . S
H8138 C8135 0.999 . S
H8139 C8120 0.913 . S
H8140 C8158 0.951 . S
H8141 C8160 0.951 . S
H8142 C8162 0.950 . S
H8143 C8163 0.950 . S
H8144 C8165 0.950 . S
H8145 C8168 0.950 . S
H8146 C8169 0.950 . S
H8147 C8171 0.950 . S
H8148 C8172 0.950 . S
H8149 C8173 0.951 . S
H8150 C8175 0.951 . S
H8151 C8177 0.950 . S
H8152 C8178 0.950 . S
H8153 C8180 0.950 . S
H8154 C8183 0.950 . S
H8155 C8184 0.950 . S
H8156 C8186 0.950 . S
H8157 C8187 0.950 . S
C8158 H8140 0.951 . S
C8158 C8159 1.366 . S
C8158 C8160 1.388 . S
C8159 C8158 1.366 . S
C8159 C8163 1.385 . S
C8160 H8141 0.951 . S
C8160 C8158 1.388 . S
C8160 C8161 1.366 . S
C8161 C8160 1.366 . S
C8161 C8162 1.414 . S
C8161 C8164 1.499 . S
C8162 H8142 0.950 . S
C8162 C8161 1.414 . S
C8162 C8163 1.374 . S
C8163 H8143 0.950 . S
C8163 C8159 1.385 . S
C8163 C8162 1.374 . S
C8164 C8161 1.499 . S
C8164 C8165 1.373 . S
C8164 C8166 1.389 . S
C8165 H8144 0.950 . S
C8165 C8164 1.373 . S
C8165 C8181 1.377 . S
C8166 C8164 1.389 . S
C8166 C8167 1.524 . S
C8166 C8180 1.377 . S
C8167 C8166 1.524 . S
C8167 C8168 1.397 . S
C8167 C8172 1.363 . S
C8168 H8145 0.950 . S
C8168 C8167 1.397 . S
C8168 C8169 1.334 . S
C8169 H8146 0.950 . S
C8169 C8168 1.334 . S
C8169 C8170 1.287 . S
C8170 C8169 1.287 . S
C8170 C8171 1.524 . S
C8170 H8189 0.913 . S
C8171 H8147 0.950 . S
C8171 C8170 1.524 . S
C8171 C8172 1.415 . S
C8172 H8148 0.950 . S
C8172 C8167 1.363 . S
C8172 C8171 1.415 . S
C8173 H8149 0.951 . S
C8173 C8174 1.366 . S
C8173 C8175 1.388 . S
C8174 C8173 1.366 . S
C8174 C8178 1.385 . S
C8175 H8150 0.951 . S
C8175 C8173 1.388 . S
C8175 C8176 1.366 . S
C8176 C8175 1.366 . S
C8176 C8177 1.414 . S
C8176 C8179 1.499 . S
C8177 H8151 0.950 . S
C8177 C8176 1.414 . S
C8177 C8178 1.374 . S
C8178 H8152 0.950 . S
C8178 C8174 1.385 . S
C8178 C8177 1.374 . S
C8179 C8176 1.499 . S
C8179 C8180 1.373 . S
C8179 C8181 1.389 . S
C8180 H8153 0.950 . S
C8180 C8166 1.377 . S
C8180 C8179 1.373 . S
C8181 C8165 1.377 . S
C8181 C8179 1.389 . S
C8181 C8182 1.524 . S
C8182 C8181 1.524 . S
C8182 C8183 1.397 . S
C8182 C8187 1.363 . S
C8183 H8154 0.950 . S
C8183 C8182 1.397 . S
C8183 C8184 1.334 . S
C8184 H8155 0.950 . S
C8184 C8183 1.334 . S
C8184 C8185 1.287 . S
C8185 C8184 1.287 . S
C8185 C8186 1.524 . S
C8185 H8188 0.999 . S
C8186 H8156 0.950 . S
C8186 C8185 1.524 . S
C8186 C8187 1.415 . S
C8187 H8157 0.950 . S
C8187 C8182 1.363 . S
C8187 C8186 1.415 . S
H8188 C8185 0.999 . S
H8189 C8170 0.913 . S
H8190 C8208 0.951 . S
H8191 C8210 0.951 . S
H8192 C8212 0.950 . S
H8193 C8213 0.950 . S
H8194 C8215 0.950 . S
H8195 C8218 0.950 . S
H8196 C8219 0.950 . S
H8197 C8221 0.950 . S
H8198 C8222 0.950 . S
H8199 C8223 0.951 . S
H8200 C8225 0.951 . S
H8201 C8227 0.950 . S
H8202 C8228 0.950 . S
H8203 C8230 0.950 . S
H8204 C8233 0.950 . S
H8205 C8234 0.950 . S
H8206 C8236 0.950 . S
H8207 C8237 0.950 . S
C8208 H8190 0.951 . S
C8208 C8209 1.366 . S
C8208 C8210 1.388 . S
C8209 C8208 1.366 . S
C8209 C8213 1.385 . S
C8210 H8191 0.951 . S
C8210 C8208 1.388 . S
C8210 C8211 1.366 . S
C8211 C8210 1.366 . S
C8211 C8212 1.414 . S
C8211 C8214 1.499 . S
C8212 H8192 0.950 . S
C8212 C8211 1.414 . S
C8212 C8213 1.374 . S
C8213 H8193 0.950 . S
C8213 C8209 1.385 . S
C8213 C8212 1.374 . S
C8214 C8211 1.499 . S
C8214 C8215 1.373 . S
C8214 C8216 1.389 . S
C8215 H8194 0.950 . S
C8215 C8214 1.373 . S
C8215 C8231 1.377 . S
C8216 C8214 1.389 . S
C8216 C8217 1.524 . S
C8216 C8230 1.377 . S
C8217 C8216 1.524 . S
C8217 C8218 1.397 . S
C8217 C8222 1.363 . S
C8218 H8195 0.950 . S
C8218 C8217 1.397 . S
C8218 C8219 1.334 . S
C8219 H8196 0.950 . S
C8219 C8218 1.334 . S
C8219 C8220 1.287 . S
C8220 C8219 1.287 . S
C8220 C8221 1.524 . S
C8220 H8239 0.913 . S
C8221 H8197 0.950 . S
C8221 C8220 1.524 . S
C8221 C8222 1.415 . S
C8222 H8198 0.950 . S
C8222 C8217 1.363 . S
C8222 C8221 1.415 . S
C8223 H8199 0.951 . S
C8223 C8224 1.366 . S
C8223 C8225 1.388 . S
C8224 C8223 1.366 . S
C8224 C8228 1.385 . S
C8225 H8200 0.951 . S
C8225 C8223 1.388 . S
C8225 C8226 1.366 . S
C8226 C8225 1.366 . S
C8226 C8227 1.414 . S
C8226 C8229 1.499 . S
C8227 H8201 0.950 . S
C8227 C8226 1.414 . S
C8227 C8228 1.374 . S
C8228 H8202 0.950 . S
C8228 C8224 1.385 . S
C8228 C8227 1.374 . S
C8229 C8226 1.499 . S
C8229 C8230 1.373 . S
C8229 C8231 1.389 . S
C8230 H8203 0.950 . S
C8230 C8216 1.377 . S
C8230 C8229 1.373 . S
C8231 C8215 1.377 . S
C8231 C8229 1.389 . S
C8231 C8232 1.524 . S
C8232 C8231 1.524 . S
C8232 C8233 1.397 . S
C8232 C8237 1.363 . S
C8233 H8204 0.950 . S
C8233 C8232 1.397 . S
C8233 C8234 1.334 . S
C8234 H8205 0.950 . S
C8234 C8233 1.334 . S
C8234 C8235 1.287 . S
C8235 C8234 1.287 . S
C8235 C8236 1.524 . S
C8235 H8238 0.999 . S
C8236 H8206 0.950 . S
C8236 C8235 1.524 . S
C8236 C8237 1.415 . S
C8237 H8207 0.950 . S
C8237 C8232 1.363 . S
C8237 C8236 1.415 . S
H8238 C8235 0.999 . S
H8239 C8220 0.913 . S
H8240 C8258 0.951 . S
H8241 C8260 0.951 . S
H8242 C8262 0.950 . S
H8243 C8263 0.950 . S
H8244 C8265 0.950 . S
H8245 C8268 0.950 . S
H8246 C8269 0.950 . S
H8247 C8271 0.950 . S
H8248 C8272 0.950 . S
H8249 C8273 0.951 . S
H8250 C8275 0.951 . S
H8251 C8277 0.950 . S
H8252 C8278 0.950 . S
H8253 C8280 0.950 . S
H8254 C8283 0.950 . S
H8255 C8284 0.950 . S
H8256 C8286 0.950 . S
H8257 C8287 0.950 . S
C8258 H8240 0.951 . S
C8258 C8259 1.366 . S
C8258 C8260 1.388 . S
C8259 C8258 1.366 . S
C8259 C8263 1.385 . S
C8260 H8241 0.951 . S
C8260 C8258 1.388 . S
C8260 C8261 1.366 . S
C8261 C8260 1.366 . S
C8261 C8262 1.414 . S
C8261 C8264 1.499 . S
C8262 H8242 0.950 . S
C8262 C8261 1.414 . S
C8262 C8263 1.374 . S
C8263 H8243 0.950 . S
C8263 C8259 1.385 . S
C8263 C8262 1.374 . S
C8264 C8261 1.499 . S
C8264 C8265 1.373 . S
C8264 C8266 1.389 . S
C8265 H8244 0.950 . S
C8265 C8264 1.373 . S
C8265 C8281 1.377 . S
C8266 C8264 1.389 . S
C8266 C8267 1.524 . S
C8266 C8280 1.377 . S
C8267 C8266 1.524 . S
C8267 C8268 1.397 . S
C8267 C8272 1.363 . S
C8268 H8245 0.950 . S
C8268 C8267 1.397 . S
C8268 C8269 1.334 . S
C8269 H8246 0.950 . S
C8269 C8268 1.334 . S
C8269 C8270 1.287 . S
C8270 C8269 1.287 . S
C8270 C8271 1.524 . S
C8270 H8289 0.913 . S
C8271 H8247 0.950 . S
C8271 C8270 1.524 . S
C8271 C8272 1.415 . S
C8272 H8248 0.950 . S
C8272 C8267 1.363 . S
C8272 C8271 1.415 . S
C8273 H8249 0.951 . S
C8273 C8274 1.366 . S
C8273 C8275 1.388 . S
C8274 C8273 1.366 . S
C8274 C8278 1.385 . S
C8275 H8250 0.951 . S
C8275 C8273 1.388 . S
C8275 C8276 1.366 . S
C8276 C8275 1.366 . S
C8276 C8277 1.414 . S
C8276 C8279 1.499 . S
C8277 H8251 0.950 . S
C8277 C8276 1.414 . S
C8277 C8278 1.374 . S
C8278 H8252 0.950 . S
C8278 C8274 1.385 . S
C8278 C8277 1.374 . S
C8279 C8276 1.499 . S
C8279 C8280 1.373 . S
C8279 C8281 1.389 . S
C8280 H8253 0.950 . S
C8280 C8266 1.377 . S
C8280 C8279 1.373 . S
C8281 C8265 1.377 . S
C8281 C8279 1.389 . S
C8281 C8282 1.524 . S
C8282 C8281 1.524 . S
C8282 C8283 1.397 . S
C8282 C8287 1.363 . S
C8283 H8254 0.950 . S
C8283 C8282 1.397 . S
C8283 C8284 1.334 . S
C8284 H8255 0.950 . S
C8284 C8283 1.334 . S
C8284 C8285 1.287 . S
C8285 C8284 1.287 . S
C8285 C8286 1.524 . S
C8285 H8288 0.999 . S
C8286 H8256 0.950 . S
C8286 C8285 1.524 . S
C8286 C8287 1.415 . S
C8287 H8257 0.950 . S
C8287 C8282 1.363 . S
C8287 C8286 1.415 . S
H8288 C8285 0.999 . S
H8289 C8270 0.913 . S
H8290 C8308 0.951 . S
H8291 C8310 0.951 . S
H8292 C8312 0.950 . S
H8293 C8313 0.950 . S
H8294 C8315 0.950 . S
H8295 C8318 0.950 . S
H8296 C8319 0.950 . S
H8297 C8321 0.950 . S
H8298 C8322 0.950 . S
H8299 C8323 0.951 . S
H8300 C8325 0.951 . S
H8301 C8327 0.950 . S
H8302 C8328 0.950 . S
H8303 C8330 0.950 . S
H8304 C8333 0.950 . S
H8305 C8334 0.950 . S
H8306 C8336 0.950 . S
H8307 C8337 0.950 . S
C8308 H8290 0.951 . S
C8308 C8309 1.366 . S
C8308 C8310 1.388 . S
C8309 C8308 1.366 . S
C8309 C8313 1.385 . S
C8310 H8291 0.951 . S
C8310 C8308 1.388 . S
C8310 C8311 1.366 . S
C8311 C8310 1.366 . S
C8311 C8312 1.414 . S
C8311 C8314 1.499 . S
C8312 H8292 0.950 . S
C8312 C8311 1.414 . S
C8312 C8313 1.374 . S
C8313 H8293 0.950 . S
C8313 C8309 1.385 . S
C8313 C8312 1.374 . S
C8314 C8311 1.499 . S
C8314 C8315 1.373 . S
C8314 C8316 1.389 . S
C8315 H8294 0.950 . S
C8315 C8314 1.373 . S
C8315 C8331 1.377 . S
C8316 C8314 1.389 . S
C8316 C8317 1.524 . S
C8316 C8330 1.377 . S
C8317 C8316 1.524 . S
C8317 C8318 1.397 . S
C8317 C8322 1.363 . S
C8318 H8295 0.950 . S
C8318 C8317 1.397 . S
C8318 C8319 1.334 . S
C8319 H8296 0.950 . S
C8319 C8318 1.334 . S
C8319 C8320 1.287 . S
C8320 C8319 1.287 . S
C8320 C8321 1.524 . S
C8320 H8339 0.913 . S
C8321 H8297 0.950 . S
C8321 C8320 1.524 . S
C8321 C8322 1.415 . S
C8322 H8298 0.950 . S
C8322 C8317 1.363 . S
C8322 C8321 1.415 . S
C8323 H8299 0.951 . S
C8323 C8324 1.366 . S
C8323 C8325 1.388 . S
C8324 C8323 1.366 . S
C8324 C8328 1.385 . S
C8325 H8300 0.951 . S
C8325 C8323 1.388 . S
C8325 C8326 1.366 . S
C8326 C8325 1.366 . S
C8326 C8327 1.414 . S
C8326 C8329 1.499 . S
C8327 H8301 0.950 . S
C8327 C8326 1.414 . S
C8327 C8328 1.374 . S
C8328 H8302 0.950 . S
C8328 C8324 1.385 . S
C8328 C8327 1.374 . S
C8329 C8326 1.499 . S
C8329 C8330 1.373 . S
C8329 C8331 1.389 . S
C8330 H8303 0.950 . S
C8330 C8316 1.377 . S
C8330 C8329 1.373 . S
C8331 C8315 1.377 . S
C8331 C8329 1.389 . S
C8331 C8332 1.524 . S
C8332 C8331 1.524 . S
C8332 C8333 1.397 . S
C8332 C8337 1.363 . S
C8333 H8304 0.950 . S
C8333 C8332 1.397 . S
C8333 C8334 1.334 . S
C8334 H8305 0.950 . S
C8334 C8333 1.334 . S
C8334 C8335 1.287 . S
C8335 C8334 1.287 . S
C8335 C8336 1.524 . S
C8335 H8338 0.999 . S
C8336 H8306 0.950 . S
C8336 C8335 1.524 . S
C8336 C8337 1.415 . S
C8337 H8307 0.950 . S
C8337 C8332 1.363 . S
C8337 C8336 1.415 . S
H8338 C8335 0.999 . S
H8339 C8320 0.913 . S
H8340 C8358 0.951 . S
H8341 C8360 0.951 . S
H8342 C8362 0.950 . S
H8343 C8363 0.950 . S
H8344 C8365 0.950 . S
H8345 C8368 0.950 . S
H8346 C8369 0.950 . S
H8347 C8371 0.950 . S
H8348 C8372 0.950 . S
H8349 C8373 0.951 . S
H8350 C8375 0.951 . S
H8351 C8377 0.950 . S
H8352 C8378 0.950 . S
H8353 C8380 0.950 . S
H8354 C8383 0.950 . S
H8355 C8384 0.950 . S
H8356 C8386 0.950 . S
H8357 C8387 0.950 . S
C8358 H8340 0.951 . S
C8358 C8359 1.366 . S
C8358 C8360 1.388 . S
C8359 C8358 1.366 . S
C8359 C8363 1.385 . S
C8360 H8341 0.951 . S
C8360 C8358 1.388 . S
C8360 C8361 1.366 . S
C8361 C8360 1.366 . S
C8361 C8362 1.414 . S
C8361 C8364 1.499 . S
C8362 H8342 0.950 . S
C8362 C8361 1.414 . S
C8362 C8363 1.374 . S
C8363 H8343 0.950 . S
C8363 C8359 1.385 . S
C8363 C8362 1.374 . S
C8364 C8361 1.499 . S
C8364 C8365 1.373 . S
C8364 C8366 1.389 . S
C8365 H8344 0.950 . S
C8365 C8364 1.373 . S
C8365 C8381 1.377 . S
C8366 C8364 1.389 . S
C8366 C8367 1.524 . S
C8366 C8380 1.377 . S
C8367 C8366 1.524 . S
C8367 C8368 1.397 . S
C8367 C8372 1.363 . S
C8368 H8345 0.950 . S
C8368 C8367 1.397 . S
C8368 C8369 1.334 . S
C8369 H8346 0.950 . S
C8369 C8368 1.334 . S
C8369 C8370 1.287 . S
C8370 C8369 1.287 . S
C8370 C8371 1.524 . S
C8370 H8389 0.913 . S
C8371 H8347 0.950 . S
C8371 C8370 1.524 . S
C8371 C8372 1.415 . S
C8372 H8348 0.950 . S
C8372 C8367 1.363 . S
C8372 C8371 1.415 . S
C8373 H8349 0.951 . S
C8373 C8374 1.366 . S
C8373 C8375 1.388 . S
C8374 C8373 1.366 . S
C8374 C8378 1.385 . S
C8375 H8350 0.951 . S
C8375 C8373 1.388 . S
C8375 C8376 1.366 . S
C8376 C8375 1.366 . S
C8376 C8377 1.414 . S
C8376 C8379 1.499 . S
C8377 H8351 0.950 . S
C8377 C8376 1.414 . S
C8377 C8378 1.374 . S
C8378 H8352 0.950 . S
C8378 C8374 1.385 . S
C8378 C8377 1.374 . S
C8379 C8376 1.499 . S
C8379 C8380 1.373 . S
C8379 C8381 1.389 . S
C8380 H8353 0.950 . S
C8380 C8366 1.377 . S
C8380 C8379 1.373 . S
C8381 C8365 1.377 . S
C8381 C8379 1.389 . S
C8381 C8382 1.524 . S
C8382 C8381 1.524 . S
C8382 C8383 1.397 . S
C8382 C8387 1.363 . S
C8383 H8354 0.950 . S
C8383 C8382 1.397 . S
C8383 C8384 1.334 . S
C8384 H8355 0.950 . S
C8384 C8383 1.334 . S
C8384 C8385 1.287 . S
C8385 C8384 1.287 . S
C8385 C8386 1.524 . S
C8385 H8388 0.999 . S
C8386 H8356 0.950 . S
C8386 C8385 1.524 . S
C8386 C8387 1.415 . S
C8387 H8357 0.950 . S
C8387 C8382 1.363 . S
C8387 C8386 1.415 . S
H8388 C8385 0.999 . S
H8389 C8370 0.913 . S
H8390 C8408 0.951 . S
H8391 C8410 0.951 . S
H8392 C8412 0.950 . S
H8393 C8413 0.950 . S
H8394 C8415 0.950 . S
H8395 C8418 0.950 . S
H8396 C8419 0.950 . S
H8397 C8421 0.950 . S
H8398 C8422 0.950 . S
H8399 C8423 0.951 . S
H8400 C8425 0.951 . S
H8401 C8427 0.950 . S
H8402 C8428 0.950 . S
H8403 C8430 0.950 . S
H8404 C8433 0.950 . S
H8405 C8434 0.950 . S
H8406 C8436 0.950 . S
H8407 C8437 0.950 . S
C8408 H8390 0.951 . S
C8408 C8409 1.366 . S
C8408 C8410 1.388 . S
C8409 C8408 1.366 . S
C8409 C8413 1.385 . S
C8410 H8391 0.951 . S
C8410 C8408 1.388 . S
C8410 C8411 1.366 . S
C8411 C8410 1.366 . S
C8411 C8412 1.414 . S
C8411 C8414 1.499 . S
C8412 H8392 0.950 . S
C8412 C8411 1.414 . S
C8412 C8413 1.374 . S
C8413 H8393 0.950 . S
C8413 C8409 1.385 . S
C8413 C8412 1.374 . S
C8414 C8411 1.499 . S
C8414 C8415 1.373 . S
C8414 C8416 1.389 . S
C8415 H8394 0.950 . S
C8415 C8414 1.373 . S
C8415 C8431 1.377 . S
C8416 C8414 1.389 . S
C8416 C8417 1.524 . S
C8416 C8430 1.377 . S
C8417 C8416 1.524 . S
C8417 C8418 1.397 . S
C8417 C8422 1.363 . S
C8418 H8395 0.950 . S
C8418 C8417 1.397 . S
C8418 C8419 1.334 . S
C8419 H8396 0.950 . S
C8419 C8418 1.334 . S
C8419 C8420 1.287 . S
C8420 C8419 1.287 . S
C8420 C8421 1.524 . S
C8420 H8439 0.913 . S
C8421 H8397 0.950 . S
C8421 C8420 1.524 . S
C8421 C8422 1.415 . S
C8422 H8398 0.950 . S
C8422 C8417 1.363 . S
C8422 C8421 1.415 . S
C8423 H8399 0.951 . S
C8423 C8424 1.366 . S
C8423 C8425 1.388 . S
C8424 C8423 1.366 . S
C8424 C8428 1.385 . S
C8425 H8400 0.951 . S
C8425 C8423 1.388 . S
C8425 C8426 1.366 . S
C8426 C8425 1.366 . S
C8426 C8427 1.414 . S
C8426 C8429 1.499 . S
C8427 H8401 0.950 . S
C8427 C8426 1.414 . S
C8427 C8428 1.374 . S
C8428 H8402 0.950 . S
C8428 C8424 1.385 . S
C8428 C8427 1.374 . S
C8429 C8426 1.499 . S
C8429 C8430 1.373 . S
C8429 C8431 1.389 . S
C8430 H8403 0.950 . S
C8430 C8416 1.377 . S
C8430 C8429 1.373 . S
C8431 C8415 1.377 . S
C8431 C8429 1.389 . S
C8431 C8432 1.524 . S
C8432 C8431 1.524 . S
C8432 C8433 1.397 . S
C8432 C8437 1.363 . S
C8433 H8404 0.950 . S
C8433 C8432 1.397 . S
C8433 C8434 1.334 . S
C8434 H8405 0.950 . S
C8434 C8433 1.334 . S
C8434 C8435 1.287 . S
C8435 C8434 1.287 . S
C8435 C8436 1.524 . S
C8435 H8438 0.999 . S
C8436 H8406 0.950 . S
C8436 C8435 1.524 . S
C8436 C8437 1.415 . S
C8437 H8407 0.950 . S
C8437 C8432 1.363 . S
C8437 C8436 1.415 . S
H8438 C8435 0.999 . S
H8439 C8420 0.913 . S
H8440 C8458 0.951 . S
H8441 C8460 0.951 . S
H8442 C8462 0.950 . S
H8443 C8463 0.950 . S
H8444 C8465 0.950 . S
H8445 C8468 0.950 . S
H8446 C8469 0.950 . S
H8447 C8471 0.950 . S
H8448 C8472 0.950 . S
H8449 C8473 0.951 . S
H8450 C8475 0.951 . S
H8451 C8477 0.950 . S
H8452 C8478 0.950 . S
H8453 C8480 0.950 . S
H8454 C8483 0.950 . S
H8455 C8484 0.950 . S
H8456 C8486 0.950 . S
H8457 C8487 0.950 . S
C8458 H8440 0.951 . S
C8458 C8459 1.366 . S
C8458 C8460 1.388 . S
C8459 C8458 1.366 . S
C8459 C8463 1.385 . S
C8460 H8441 0.951 . S
C8460 C8458 1.388 . S
C8460 C8461 1.366 . S
C8461 C8460 1.366 . S
C8461 C8462 1.414 . S
C8461 C8464 1.499 . S
C8462 H8442 0.950 . S
C8462 C8461 1.414 . S
C8462 C8463 1.374 . S
C8463 H8443 0.950 . S
C8463 C8459 1.385 . S
C8463 C8462 1.374 . S
C8464 C8461 1.499 . S
C8464 C8465 1.373 . S
C8464 C8466 1.389 . S
C8465 H8444 0.950 . S
C8465 C8464 1.373 . S
C8465 C8481 1.377 . S
C8466 C8464 1.389 . S
C8466 C8467 1.524 . S
C8466 C8480 1.377 . S
C8467 C8466 1.524 . S
C8467 C8468 1.397 . S
C8467 C8472 1.363 . S
C8468 H8445 0.950 . S
C8468 C8467 1.397 . S
C8468 C8469 1.334 . S
C8469 H8446 0.950 . S
C8469 C8468 1.334 . S
C8469 C8470 1.287 . S
C8470 C8469 1.287 . S
C8470 C8471 1.524 . S
C8470 H8489 0.913 . S
C8471 H8447 0.950 . S
C8471 C8470 1.524 . S
C8471 C8472 1.415 . S
C8472 H8448 0.950 . S
C8472 C8467 1.363 . S
C8472 C8471 1.415 . S
C8473 H8449 0.951 . S
C8473 C8474 1.366 . S
C8473 C8475 1.388 . S
C8474 C8473 1.366 . S
C8474 C8478 1.385 . S
C8475 H8450 0.951 . S
C8475 C8473 1.388 . S
C8475 C8476 1.366 . S
C8476 C8475 1.366 . S
C8476 C8477 1.414 . S
C8476 C8479 1.499 . S
C8477 H8451 0.950 . S
C8477 C8476 1.414 . S
C8477 C8478 1.374 . S
C8478 H8452 0.950 . S
C8478 C8474 1.385 . S
C8478 C8477 1.374 . S
C8479 C8476 1.499 . S
C8479 C8480 1.373 . S
C8479 C8481 1.389 . S
C8480 H8453 0.950 . S
C8480 C8466 1.377 . S
C8480 C8479 1.373 . S
C8481 C8465 1.377 . S
C8481 C8479 1.389 . S
C8481 C8482 1.524 . S
C8482 C8481 1.524 . S
C8482 C8483 1.397 . S
C8482 C8487 1.363 . S
C8483 H8454 0.950 . S
C8483 C8482 1.397 . S
C8483 C8484 1.334 . S
C8484 H8455 0.950 . S
C8484 C8483 1.334 . S
C8484 C8485 1.287 . S
C8485 C8484 1.287 . S
C8485 C8486 1.524 . S
C8485 H8488 0.999 . S
C8486 H8456 0.950 . S
C8486 C8485 1.524 . S
C8486 C8487 1.415 . S
C8487 H8457 0.950 . S
C8487 C8482 1.363 . S
C8487 C8486 1.415 . S
H8488 C8485 0.999 . S
H8489 C8470 0.913 . S
H8490 C8508 0.951 . S
H8491 C8510 0.951 . S
H8492 C8512 0.950 . S
H8493 C8513 0.950 . S
H8494 C8515 0.950 . S
H8495 C8518 0.950 . S
H8496 C8519 0.950 . S
H8497 C8521 0.950 . S
H8498 C8522 0.950 . S
H8499 C8523 0.951 . S
H8500 C8525 0.951 . S
H8501 C8527 0.950 . S
H8502 C8528 0.950 . S
H8503 C8530 0.950 . S
H8504 C8533 0.950 . S
H8505 C8534 0.950 . S
H8506 C8536 0.950 . S
H8507 C8537 0.950 . S
C8508 H8490 0.951 . S
C8508 C8509 1.366 . S
C8508 C8510 1.388 . S
C8509 C8508 1.366 . S
C8509 C8513 1.385 . S
C8510 H8491 0.951 . S
C8510 C8508 1.388 . S
C8510 C8511 1.366 . S
C8511 C8510 1.366 . S
C8511 C8512 1.414 . S
C8511 C8514 1.499 . S
C8512 H8492 0.950 . S
C8512 C8511 1.414 . S
C8512 C8513 1.374 . S
C8513 H8493 0.950 . S
C8513 C8509 1.385 . S
C8513 C8512 1.374 . S
C8514 C8511 1.499 . S
C8514 C8515 1.373 . S
C8514 C8516 1.389 . S
C8515 H8494 0.950 . S
C8515 C8514 1.373 . S
C8515 C8531 1.377 . S
C8516 C8514 1.389 . S
C8516 C8517 1.524 . S
C8516 C8530 1.377 . S
C8517 C8516 1.524 . S
C8517 C8518 1.397 . S
C8517 C8522 1.363 . S
C8518 H8495 0.950 . S
C8518 C8517 1.397 . S
C8518 C8519 1.334 . S
C8519 H8496 0.950 . S
C8519 C8518 1.334 . S
C8519 C8520 1.287 . S
C8520 C8519 1.287 . S
C8520 C8521 1.524 . S
C8520 H8539 0.913 . S
C8521 H8497 0.950 . S
C8521 C8520 1.524 . S
C8521 C8522 1.415 . S
C8522 H8498 0.950 . S
C8522 C8517 1.363 . S
C8522 C8521 1.415 . S
C8523 H8499 0.951 . S
C8523 C8524 1.366 . S
C8523 C8525 1.388 . S
C8524 C8523 1.366 . S
C8524 C8528 1.385 . S
C8525 H8500 0.951 . S
C8525 C8523 1.388 . S
C8525 C8526 1.366 . S
C8526 C8525 1.366 . S
C8526 C8527 1.414 . S
C8526 C8529 1.499 . S
C8527 H8501 0.950 . S
C8527 C8526 1.414 . S
C8527 C8528 1.374 . S
C8528 H8502 0.950 . S
C8528 C8524 1.385 . S
C8528 C8527 1.374 . S
C8529 C8526 1.499 . S
C8529 C8530 1.373 . S
C8529 C8531 1.389 . S
C8530 H8503 0.950 . S
C8530 C8516 1.377 . S
C8530 C8529 1.373 . S
C8531 C8515 1.377 . S
C8531 C8529 1.389 . S
C8531 C8532 1.524 . S
C8532 C8531 1.524 . S
C8532 C8533 1.397 . S
C8532 C8537 1.363 . S
C8533 H8504 0.950 . S
C8533 C8532 1.397 . S
C8533 C8534 1.334 . S
C8534 H8505 0.950 . S
C8534 C8533 1.334 . S
C8534 C8535 1.287 . S
C8535 C8534 1.287 . S
C8535 C8536 1.524 . S
C8535 H8538 0.999 . S
C8536 H8506 0.950 . S
C8536 C8535 1.524 . S
C8536 C8537 1.415 . S
C8537 H8507 0.950 . S
C8537 C8532 1.363 . S
C8537 C8536 1.415 . S
H8538 C8535 0.999 . S
H8539 C8520 0.913 . S
H8540 C8558 0.951 . S
H8541 C8560 0.951 . S
H8542 C8562 0.950 . S
H8543 C8563 0.950 . S
H8544 C8565 0.950 . S
H8545 C8568 0.950 . S
H8546 C8569 0.950 . S
H8547 C8571 0.950 . S
H8548 C8572 0.950 . S
H8549 C8573 0.951 . S
H8550 C8575 0.951 . S
H8551 C8577 0.950 . S
H8552 C8578 0.950 . S
H8553 C8580 0.950 . S
H8554 C8583 0.950 . S
H8555 C8584 0.950 . S
H8556 C8586 0.950 . S
H8557 C8587 0.950 . S
C8558 H8540 0.951 . S
C8558 C8559 1.366 . S
C8558 C8560 1.388 . S
C8559 C8558 1.366 . S
C8559 C8563 1.385 . S
C8560 H8541 0.951 . S
C8560 C8558 1.388 . S
C8560 C8561 1.366 . S
C8561 C8560 1.366 . S
C8561 C8562 1.414 . S
C8561 C8564 1.499 . S
C8562 H8542 0.950 . S
C8562 C8561 1.414 . S
C8562 C8563 1.374 . S
C8563 H8543 0.950 . S
C8563 C8559 1.385 . S
C8563 C8562 1.374 . S
C8564 C8561 1.499 . S
C8564 C8565 1.373 . S
C8564 C8566 1.389 . S
C8565 H8544 0.950 . S
C8565 C8564 1.373 . S
C8565 C8581 1.377 . S
C8566 C8564 1.389 . S
C8566 C8567 1.524 . S
C8566 C8580 1.377 . S
C8567 C8566 1.524 . S
C8567 C8568 1.397 . S
C8567 C8572 1.363 . S
C8568 H8545 0.950 . S
C8568 C8567 1.397 . S
C8568 C8569 1.334 . S
C8569 H8546 0.950 . S
C8569 C8568 1.334 . S
C8569 C8570 1.287 . S
C8570 C8569 1.287 . S
C8570 C8571 1.524 . S
C8570 H8589 0.913 . S
C8571 H8547 0.950 . S
C8571 C8570 1.524 . S
C8571 C8572 1.415 . S
C8572 H8548 0.950 . S
C8572 C8567 1.363 . S
C8572 C8571 1.415 . S
C8573 H8549 0.951 . S
C8573 C8574 1.366 . S
C8573 C8575 1.388 . S
C8574 C8573 1.366 . S
C8574 C8578 1.385 . S
C8575 H8550 0.951 . S
C8575 C8573 1.388 . S
C8575 C8576 1.366 . S
C8576 C8575 1.366 . S
C8576 C8577 1.414 . S
C8576 C8579 1.499 . S
C8577 H8551 0.950 . S
C8577 C8576 1.414 . S
C8577 C8578 1.374 . S
C8578 H8552 0.950 . S
C8578 C8574 1.385 . S
C8578 C8577 1.374 . S
C8579 C8576 1.499 . S
C8579 C8580 1.373 . S
C8579 C8581 1.389 . S
C8580 H8553 0.950 . S
C8580 C8566 1.377 . S
C8580 C8579 1.373 . S
C8581 C8565 1.377 . S
C8581 C8579 1.389 . S
C8581 C8582 1.524 . S
C8582 C8581 1.524 . S
C8582 C8583 1.397 . S
C8582 C8587 1.363 . S
C8583 H8554 0.950 . S
C8583 C8582 1.397 . S
C8583 C8584 1.334 . S
C8584 H8555 0.950 . S
C8584 C8583 1.334 . S
C8584 C8585 1.287 . S
C8585 C8584 1.287 . S
C8585 C8586 1.524 . S
C8585 H8588 0.999 . S
C8586 H8556 0.950 . S
C8586 C8585 1.524 . S
C8586 C8587 1.415 . S
C8587 H8557 0.950 . S
C8587 C8582 1.363 . S
C8587 C8586 1.415 . S
H8588 C8585 0.999 . S
H8589 C8570 0.913 . S
H8590 C8608 0.951 . S
H8591 C8610 0.951 . S
H8592 C8612 0.950 . S
H8593 C8613 0.950 . S
H8594 C8615 0.950 . S
H8595 C8618 0.950 . S
H8596 C8619 0.950 . S
H8597 C8621 0.950 . S
H8598 C8622 0.950 . S
H8599 C8623 0.951 . S
H8600 C8625 0.951 . S
H8601 C8627 0.950 . S
H8602 C8628 0.950 . S
H8603 C8630 0.950 . S
H8604 C8633 0.950 . S
H8605 C8634 0.950 . S
H8606 C8636 0.950 . S
H8607 C8637 0.950 . S
C8608 H8590 0.951 . S
C8608 C8609 1.366 . S
C8608 C8610 1.388 . S
C8609 C8608 1.366 . S
C8609 C8613 1.385 . S
C8610 H8591 0.951 . S
C8610 C8608 1.388 . S
C8610 C8611 1.366 . S
C8611 C8610 1.366 . S
C8611 C8612 1.414 . S
C8611 C8614 1.499 . S
C8612 H8592 0.950 . S
C8612 C8611 1.414 . S
C8612 C8613 1.374 . S
C8613 H8593 0.950 . S
C8613 C8609 1.385 . S
C8613 C8612 1.374 . S
C8614 C8611 1.499 . S
C8614 C8615 1.373 . S
C8614 C8616 1.389 . S
C8615 H8594 0.950 . S
C8615 C8614 1.373 . S
C8615 C8631 1.377 . S
C8616 C8614 1.389 . S
C8616 C8617 1.524 . S
C8616 C8630 1.377 . S
C8617 C8616 1.524 . S
C8617 C8618 1.397 . S
C8617 C8622 1.363 . S
C8618 H8595 0.950 . S
C8618 C8617 1.397 . S
C8618 C8619 1.334 . S
C8619 H8596 0.950 . S
C8619 C8618 1.334 . S
C8619 C8620 1.287 . S
C8620 C8619 1.287 . S
C8620 C8621 1.524 . S
C8620 H8639 0.913 . S
C8621 H8597 0.950 . S
C8621 C8620 1.524 . S
C8621 C8622 1.415 . S
C8622 H8598 0.950 . S
C8622 C8617 1.363 . S
C8622 C8621 1.415 . S
C8623 H8599 0.951 . S
C8623 C8624 1.366 . S
C8623 C8625 1.388 . S
C8624 C8623 1.366 . S
C8624 C8628 1.385 . S
C8625 H8600 0.951 . S
C8625 C8623 1.388 . S
C8625 C8626 1.366 . S
C8626 C8625 1.366 . S
C8626 C8627 1.414 . S
C8626 C8629 1.499 . S
C8627 H8601 0.950 . S
C8627 C8626 1.414 . S
C8627 C8628 1.374 . S
C8628 H8602 0.950 . S
C8628 C8624 1.385 . S
C8628 C8627 1.374 . S
C8629 C8626 1.499 . S
C8629 C8630 1.373 . S
C8629 C8631 1.389 . S
C8630 H8603 0.950 . S
C8630 C8616 1.377 . S
C8630 C8629 1.373 . S
C8631 C8615 1.377 . S
C8631 C8629 1.389 . S
C8631 C8632 1.524 . S
C8632 C8631 1.524 . S
C8632 C8633 1.397 . S
C8632 C8637 1.363 . S
C8633 H8604 0.950 . S
C8633 C8632 1.397 . S
C8633 C8634 1.334 . S
C8634 H8605 0.950 . S
C8634 C8633 1.334 . S
C8634 C8635 1.287 . S
C8635 C8634 1.287 . S
C8635 C8636 1.524 . S
C8635 H8638 0.999 . S
C8636 H8606 0.950 . S
C8636 C8635 1.524 . S
C8636 C8637 1.415 . S
C8637 H8607 0.950 . S
C8637 C8632 1.363 . S
C8637 C8636 1.415 . S
H8638 C8635 0.999 . S
H8639 C8620 0.913 . S
H8640 C8658 0.951 . S
H8641 C8660 0.951 . S
H8642 C8662 0.950 . S
H8643 C8663 0.950 . S
H8644 C8665 0.950 . S
H8645 C8668 0.950 . S
H8646 C8669 0.950 . S
H8647 C8671 0.950 . S
H8648 C8672 0.950 . S
H8649 C8673 0.951 . S
H8650 C8675 0.951 . S
H8651 C8677 0.950 . S
H8652 C8678 0.950 . S
H8653 C8680 0.950 . S
H8654 C8683 0.950 . S
H8655 C8684 0.950 . S
H8656 C8686 0.950 . S
H8657 C8687 0.950 . S
C8658 H8640 0.951 . S
C8658 C8659 1.366 . S
C8658 C8660 1.388 . S
C8659 C8658 1.366 . S
C8659 C8663 1.385 . S
C8660 H8641 0.951 . S
C8660 C8658 1.388 . S
C8660 C8661 1.366 . S
C8661 C8660 1.366 . S
C8661 C8662 1.414 . S
C8661 C8664 1.499 . S
C8662 H8642 0.950 . S
C8662 C8661 1.414 . S
C8662 C8663 1.374 . S
C8663 H8643 0.950 . S
C8663 C8659 1.385 . S
C8663 C8662 1.374 . S
C8664 C8661 1.499 . S
C8664 C8665 1.373 . S
C8664 C8666 1.389 . S
C8665 H8644 0.950 . S
C8665 C8664 1.373 . S
C8665 C8681 1.377 1_655 S
C8666 C8664 1.389 . S
C8666 C8667 1.524 . S
C8666 C8680 1.377 1_655 S
C8667 C8666 1.524 . S
C8667 C8668 1.397 . S
C8667 C8672 1.363 . S
C8668 H8645 0.950 . S
C8668 C8667 1.397 . S
C8668 C8669 1.334 . S
C8669 H8646 0.950 . S
C8669 C8668 1.334 . S
C8669 C8670 1.287 . S
C8670 C8669 1.287 . S
C8670 C8671 1.524 . S
C8670 H8689 0.913 . S
C8671 H8647 0.950 . S
C8671 C8670 1.524 . S
C8671 C8672 1.415 . S
C8672 H8648 0.950 . S
C8672 C8667 1.363 . S
C8672 C8671 1.415 . S
C8673 H8649 0.951 . S
C8673 C8674 1.366 . S
C8673 C8675 1.388 . S
C8674 C8673 1.366 . S
C8674 C8678 1.385 . S
C8675 H8650 0.951 . S
C8675 C8673 1.388 . S
C8675 C8676 1.366 . S
C8676 C8675 1.366 . S
C8676 C8677 1.414 . S
C8676 C8679 1.499 . S
C8677 H8651 0.950 . S
C8677 C8676 1.414 . S
C8677 C8678 1.374 . S
C8678 H8652 0.950 . S
C8678 C8674 1.385 . S
C8678 C8677 1.374 . S
C8679 C8676 1.499 . S
C8679 C8680 1.373 . S
C8679 C8681 1.389 . S
C8680 H8653 0.950 . S
C8680 C8666 1.377 1_455 S
C8680 C8679 1.373 . S
C8681 C8665 1.377 1_455 S
C8681 C8679 1.389 . S
C8681 C8682 1.524 . S
C8682 C8681 1.524 . S
C8682 C8683 1.397 . S
C8682 C8687 1.363 . S
C8683 H8654 0.950 . S
C8683 C8682 1.397 . S
C8683 C8684 1.334 . S
C8684 H8655 0.950 . S
C8684 C8683 1.334 . S
C8684 C8685 1.287 . S
C8685 C8684 1.287 . S
C8685 C8686 1.524 . S
C8685 H8688 0.999 . S
C8686 H8656 0.950 . S
C8686 C8685 1.524 . S
C8686 C8687 1.415 . S
C8687 H8657 0.950 . S
C8687 C8682 1.363 . S
C8687 C8686 1.415 . S
H8688 C8685 0.999 . S
H8689 C8670 0.913 . S
H8690 C8708 0.951 . S
H8691 C8710 0.951 . S
H8692 C8712 0.950 . S
H8693 C8713 0.950 . S
H8694 C8715 0.950 . S
H8695 C8718 0.950 . S
H8696 C8719 0.950 . S
H8697 C8721 0.950 . S
H8698 C8722 0.950 . S
H8699 C8723 0.951 . S
H8700 C8725 0.951 . S
H8701 C8727 0.950 . S
H8702 C8728 0.950 . S
H8703 C8730 0.950 . S
H8704 C8733 0.950 . S
H8705 C8734 0.950 . S
H8706 C8736 0.950 . S
H8707 C8737 0.950 . S
C8708 H8690 0.951 . S
C8708 C8709 1.366 . S
C8708 C8710 1.388 . S
C8709 C8708 1.366 . S
C8709 C8713 1.385 . S
C8710 H8691 0.951 . S
C8710 C8708 1.388 . S
C8710 C8711 1.366 . S
C8711 C8710 1.366 . S
C8711 C8712 1.414 . S
C8711 C8714 1.499 . S
C8712 H8692 0.950 . S
C8712 C8711 1.414 . S
C8712 C8713 1.374 . S
C8713 H8693 0.950 . S
C8713 C8709 1.385 . S
C8713 C8712 1.374 . S
C8714 C8711 1.499 . S
C8714 C8715 1.373 . S
C8714 C8716 1.389 . S
C8715 H8694 0.950 . S
C8715 C8714 1.373 . S
C8715 C8731 1.377 1_565 S
C8716 C8714 1.389 . S
C8716 C8717 1.524 . S
C8716 C8730 1.377 1_565 S
C8717 C8716 1.524 . S
C8717 C8718 1.397 . S
C8717 C8722 1.363 . S
C8718 H8695 0.950 . S
C8718 C8717 1.397 . S
C8718 C8719 1.334 . S
C8719 H8696 0.950 . S
C8719 C8718 1.334 . S
C8719 C8720 1.287 . S
C8720 C8719 1.287 . S
C8720 C8721 1.524 . S
C8720 H8739 0.913 . S
C8721 H8697 0.950 . S
C8721 C8720 1.524 . S
C8721 C8722 1.415 . S
C8722 H8698 0.950 . S
C8722 C8717 1.363 . S
C8722 C8721 1.415 . S
C8723 H8699 0.951 . S
C8723 C8724 1.366 . S
C8723 C8725 1.388 . S
C8724 C8723 1.366 . S
C8724 C8728 1.385 . S
C8725 H8700 0.951 . S
C8725 C8723 1.388 . S
C8725 C8726 1.366 . S
C8726 C8725 1.366 . S
C8726 C8727 1.414 . S
C8726 C8729 1.499 . S
C8727 H8701 0.950 . S
C8727 C8726 1.414 . S
C8727 C8728 1.374 . S
C8728 H8702 0.950 . S
C8728 C8724 1.385 . S
C8728 C8727 1.374 . S
C8729 C8726 1.499 . S
C8729 C8730 1.373 . S
C8729 C8731 1.389 . S
C8730 H8703 0.950 . S
C8730 C8716 1.377 1_545 S
C8730 C8729 1.373 . S
C8731 C8715 1.377 1_545 S
C8731 C8729 1.389 . S
C8731 C8732 1.524 . S
C8732 C8731 1.524 . S
C8732 C8733 1.397 . S
C8732 C8737 1.363 . S
C8733 H8704 0.950 . S
C8733 C8732 1.397 . S
C8733 C8734 1.334 . S
C8734 H8705 0.950 . S
C8734 C8733 1.334 . S
C8734 C8735 1.287 . S
C8735 C8734 1.287 . S
C8735 C8736 1.524 . S
C8735 H8738 0.999 . S
C8736 H8706 0.950 . S
C8736 C8735 1.524 . S
C8736 C8737 1.415 . S
C8737 H8707 0.950 . S
C8737 C8732 1.363 . S
C8737 C8736 1.415 . S
H8738 C8735 0.999 . S
H8739 C8720 0.913 . S
H8740 C8758 0.951 . S
H8741 C8760 0.951 . S
H8742 C8762 0.950 . S
H8743 C8763 0.950 . S
H8744 C8765 0.950 . S
H8745 C8768 0.950 . S
H8746 C8769 0.950 . S
H8747 C8771 0.950 . S
H8748 C8772 0.950 . S
H8749 C8773 0.951 . S
H8750 C8775 0.951 . S
H8751 C8777 0.950 . S
H8752 C8778 0.950 . S
H8753 C8780 0.950 . S
H8754 C8783 0.950 . S
H8755 C8784 0.950 . S
H8756 C8786 0.950 . S
H8757 C8787 0.950 . S
C8758 H8740 0.951 . S
C8758 C8759 1.366 . S
C8758 C8760 1.388 . S
C8759 C8758 1.366 . S
C8759 C8763 1.385 . S
C8760 H8741 0.951 . S
C8760 C8758 1.388 . S
C8760 C8761 1.366 . S
C8761 C8760 1.366 . S
C8761 C8762 1.414 . S
C8761 C8764 1.499 . S
C8762 H8742 0.950 . S
C8762 C8761 1.414 . S
C8762 C8763 1.374 . S
C8763 H8743 0.950 . S
C8763 C8759 1.385 . S
C8763 C8762 1.374 . S
C8764 C8761 1.499 . S
C8764 C8765 1.373 . S
C8764 C8766 1.389 . S
C8765 H8744 0.950 . S
C8765 C8764 1.373 . S
C8765 C8781 1.377 1_455 S
C8766 C8764 1.389 . S
C8766 C8767 1.524 . S
C8766 C8780 1.377 1_455 S
C8767 C8766 1.524 . S
C8767 C8768 1.397 . S
C8767 C8772 1.363 . S
C8768 H8745 0.950 . S
C8768 C8767 1.397 . S
C8768 C8769 1.334 . S
C8769 H8746 0.950 . S
C8769 C8768 1.334 . S
C8769 C8770 1.287 . S
C8770 C8769 1.287 . S
C8770 C8771 1.524 . S
C8770 H8789 0.913 . S
C8771 H8747 0.950 . S
C8771 C8770 1.524 . S
C8771 C8772 1.415 . S
C8772 H8748 0.950 . S
C8772 C8767 1.363 . S
C8772 C8771 1.415 . S
C8773 H8749 0.951 . S
C8773 C8774 1.366 . S
C8773 C8775 1.388 . S
C8774 C8773 1.366 . S
C8774 C8778 1.385 . S
C8775 H8750 0.951 . S
C8775 C8773 1.388 . S
C8775 C8776 1.366 . S
C8776 C8775 1.366 . S
C8776 C8777 1.414 . S
C8776 C8779 1.499 . S
C8777 H8751 0.950 . S
C8777 C8776 1.414 . S
C8777 C8778 1.374 . S
C8778 H8752 0.950 . S
C8778 C8774 1.385 . S
C8778 C8777 1.374 . S
C8779 C8776 1.499 . S
C8779 C8780 1.373 . S
C8779 C8781 1.389 . S
C8780 H8753 0.950 . S
C8780 C8766 1.377 1_655 S
C8780 C8779 1.373 . S
C8781 C8765 1.377 1_655 S
C8781 C8779 1.389 . S
C8781 C8782 1.524 . S
C8782 C8781 1.524 . S
C8782 C8783 1.397 . S
C8782 C8787 1.363 . S
C8783 H8754 0.950 . S
C8783 C8782 1.397 . S
C8783 C8784 1.334 . S
C8784 H8755 0.950 . S
C8784 C8783 1.334 . S
C8784 C8785 1.287 . S
C8785 C8784 1.287 . S
C8785 C8786 1.524 . S
C8785 H8788 0.999 . S
C8786 H8756 0.950 . S
C8786 C8785 1.524 . S
C8786 C8787 1.415 . S
C8787 H8757 0.950 . S
C8787 C8782 1.363 . S
C8787 C8786 1.415 . S
H8788 C8785 0.999 . S
H8789 C8770 0.913 . S
H8790 C8808 0.951 . S
H8791 C8810 0.951 . S
H8792 C8812 0.950 . S
H8793 C8813 0.950 . S
H8794 C8815 0.950 . S
H8795 C8818 0.950 . S
H8796 C8819 0.950 . S
H8797 C8821 0.950 . S
H8798 C8822 0.950 . S
H8799 C8823 0.951 . S
H8800 C8825 0.951 . S
H8801 C8827 0.950 . S
H8802 C8828 0.950 . S
H8803 C8830 0.950 . S
H8804 C8833 0.950 . S
H8805 C8834 0.950 . S
H8806 C8836 0.950 . S
H8807 C8837 0.950 . S
C8808 H8790 0.951 . S
C8808 C8809 1.366 . S
C8808 C8810 1.388 . S
C8809 C8808 1.366 . S
C8809 C8813 1.385 . S
C8810 H8791 0.951 . S
C8810 C8808 1.388 . S
C8810 C8811 1.366 . S
C8811 C8810 1.366 . S
C8811 C8812 1.414 . S
C8811 C8814 1.499 . S
C8812 H8792 0.950 . S
C8812 C8811 1.414 . S
C8812 C8813 1.374 . S
C8813 H8793 0.950 . S
C8813 C8809 1.385 . S
C8813 C8812 1.374 . S
C8814 C8811 1.499 . S
C8814 C8815 1.373 . S
C8814 C8816 1.389 . S
C8815 H8794 0.950 . S
C8815 C8814 1.373 . S
C8815 C8831 1.377 1_545 S
C8816 C8814 1.389 . S
C8816 C8817 1.524 . S
C8816 C8830 1.377 1_545 S
C8817 C8816 1.524 . S
C8817 C8818 1.397 . S
C8817 C8822 1.363 . S
C8818 H8795 0.950 . S
C8818 C8817 1.397 . S
C8818 C8819 1.334 . S
C8819 H8796 0.950 . S
C8819 C8818 1.334 . S
C8819 C8820 1.287 . S
C8820 C8819 1.287 . S
C8820 C8821 1.524 . S
C8820 H8839 0.913 . S
C8821 H8797 0.950 . S
C8821 C8820 1.524 . S
C8821 C8822 1.415 . S
C8822 H8798 0.950 . S
C8822 C8817 1.363 . S
C8822 C8821 1.415 . S
C8823 H8799 0.951 . S
C8823 C8824 1.366 . S
C8823 C8825 1.388 . S
C8824 C8823 1.366 . S
C8824 C8828 1.385 . S
C8825 H8800 0.951 . S
C8825 C8823 1.388 . S
C8825 C8826 1.366 . S
C8826 C8825 1.366 . S
C8826 C8827 1.414 . S
C8826 C8829 1.499 . S
C8827 H8801 0.950 . S
C8827 C8826 1.414 . S
C8827 C8828 1.374 . S
C8828 H8802 0.950 . S
C8828 C8824 1.385 . S
C8828 C8827 1.374 . S
C8829 C8826 1.499 . S
C8829 C8830 1.373 . S
C8829 C8831 1.389 . S
C8830 H8803 0.950 . S
C8830 C8816 1.377 1_565 S
C8830 C8829 1.373 . S
C8831 C8815 1.377 1_565 S
C8831 C8829 1.389 . S
C8831 C8832 1.524 . S
C8832 C8831 1.524 . S
C8832 C8833 1.397 . S
C8832 C8837 1.363 . S
C8833 H8804 0.950 . S
C8833 C8832 1.397 . S
C8833 C8834 1.334 . S
C8834 H8805 0.950 . S
C8834 C8833 1.334 . S
C8834 C8835 1.287 . S
C8835 C8834 1.287 . S
C8835 C8836 1.524 . S
C8835 H8838 0.999 . S
C8836 H8806 0.950 . S
C8836 C8835 1.524 . S
C8836 C8837 1.415 . S
C8837 H8807 0.950 . S
C8837 C8832 1.363 . S
C8837 C8836 1.415 . S
H8838 C8835 0.999 . S
H8839 C8820 0.913 . S
H8840 C8858 0.951 . S
H8841 C8860 0.951 . S
H8842 C8862 0.950 . S
H8843 C8863 0.950 . S
H8844 C8865 0.950 . S
H8845 C8868 0.950 . S
H8846 C8869 0.950 . S
H8847 C8871 0.950 . S
H8848 C8872 0.950 . S
H8849 C8873 0.951 . S
H8850 C8875 0.951 . S
H8851 C8877 0.950 . S
H8852 C8878 0.950 . S
H8853 C8880 0.950 . S
H8854 C8883 0.950 . S
H8855 C8884 0.950 . S
H8856 C8886 0.950 . S
H8857 C8887 0.950 . S
C8858 H8840 0.951 . S
C8858 C8859 1.366 . S
C8858 C8860 1.388 . S
C8859 C8858 1.366 . S
C8859 C8863 1.385 . S
C8860 H8841 0.951 . S
C8860 C8858 1.388 . S
C8860 C8861 1.366 . S
C8861 C8860 1.366 . S
C8861 C8862 1.414 . S
C8861 C8864 1.499 . S
C8862 H8842 0.950 . S
C8862 C8861 1.414 . S
C8862 C8863 1.374 . S
C8863 H8843 0.950 . S
C8863 C8859 1.385 . S
C8863 C8862 1.374 . S
C8864 C8861 1.499 . S
C8864 C8865 1.373 . S
C8864 C8866 1.389 . S
C8865 H8844 0.950 . S
C8865 C8864 1.373 . S
C8865 C8881 1.377 1_655 S
C8866 C8864 1.389 . S
C8866 C8867 1.524 . S
C8866 C8880 1.377 1_655 S
C8867 C8866 1.524 . S
C8867 C8868 1.397 . S
C8867 C8872 1.363 . S
C8868 H8845 0.950 . S
C8868 C8867 1.397 . S
C8868 C8869 1.334 . S
C8869 H8846 0.950 . S
C8869 C8868 1.334 . S
C8869 C8870 1.287 . S
C8870 C8869 1.287 . S
C8870 C8871 1.524 . S
C8870 H8889 0.913 . S
C8871 H8847 0.950 . S
C8871 C8870 1.524 . S
C8871 C8872 1.415 . S
C8872 H8848 0.950 . S
C8872 C8867 1.363 . S
C8872 C8871 1.415 . S
C8873 H8849 0.951 . S
C8873 C8874 1.366 . S
C8873 C8875 1.388 . S
C8874 C8873 1.366 . S
C8874 C8878 1.385 . S
C8875 H8850 0.951 . S
C8875 C8873 1.388 . S
C8875 C8876 1.366 . S
C8876 C8875 1.366 . S
C8876 C8877 1.414 . S
C8876 C8879 1.499 . S
C8877 H8851 0.950 . S
C8877 C8876 1.414 . S
C8877 C8878 1.374 . S
C8878 H8852 0.950 . S
C8878 C8874 1.385 . S
C8878 C8877 1.374 . S
C8879 C8876 1.499 . S
C8879 C8880 1.373 . S
C8879 C8881 1.389 . S
C8880 H8853 0.950 . S
C8880 C8866 1.377 1_455 S
C8880 C8879 1.373 . S
C8881 C8865 1.377 1_455 S
C8881 C8879 1.389 . S
C8881 C8882 1.524 . S
C8882 C8881 1.524 . S
C8882 C8883 1.397 . S
C8882 C8887 1.363 . S
C8883 H8854 0.950 . S
C8883 C8882 1.397 . S
C8883 C8884 1.334 . S
C8884 H8855 0.950 . S
C8884 C8883 1.334 . S
C8884 C8885 1.287 . S
C8885 C8884 1.287 . S
C8885 C8886 1.524 . S
C8885 H8888 0.999 . S
C8886 H8856 0.950 . S
C8886 C8885 1.524 . S
C8886 C8887 1.415 . S
C8887 H8857 0.950 . S
C8887 C8882 1.363 . S
C8887 C8886 1.415 . S
H8888 C8885 0.999 . S
H8889 C8870 0.913 . S
H8890 C8908 0.951 . S
H8891 C8910 0.951 . S
H8892 C8912 0.950 . S
H8893 C8913 0.950 . S
H8894 C8915 0.950 . S
H8895 C8918 0.950 . S
H8896 C8919 0.950 . S
H8897 C8921 0.950 . S
H8898 C8922 0.950 . S
H8899 C8923 0.951 . S
H8900 C8925 0.951 . S
H8901 C8927 0.950 . S
H8902 C8928 0.950 . S
H8903 C8930 0.950 . S
H8904 C8933 0.950 . S
H8905 C8934 0.950 . S
H8906 C8936 0.950 . S
H8907 C8937 0.950 . S
C8908 H8890 0.951 . S
C8908 C8909 1.366 . S
C8908 C8910 1.388 . S
C8909 C8908 1.366 . S
C8909 C8913 1.385 . S
C8910 H8891 0.951 . S
C8910 C8908 1.388 . S
C8910 C8911 1.366 . S
C8911 C8910 1.366 . S
C8911 C8912 1.414 . S
C8911 C8914 1.499 . S
C8912 H8892 0.950 . S
C8912 C8911 1.414 . S
C8912 C8913 1.374 . S
C8913 H8893 0.950 . S
C8913 C8909 1.385 . S
C8913 C8912 1.374 . S
C8914 C8911 1.499 . S
C8914 C8915 1.373 . S
C8914 C8916 1.389 . S
C8915 H8894 0.950 . S
C8915 C8914 1.373 . S
C8915 C8931 1.377 1_545 S
C8916 C8914 1.389 . S
C8916 C8917 1.524 . S
C8916 C8930 1.377 1_545 S
C8917 C8916 1.524 . S
C8917 C8918 1.397 . S
C8917 C8922 1.363 . S
C8918 H8895 0.950 . S
C8918 C8917 1.397 . S
C8918 C8919 1.334 . S
C8919 H8896 0.950 . S
C8919 C8918 1.334 . S
C8919 C8920 1.287 . S
C8920 C8919 1.287 . S
C8920 C8921 1.524 . S
C8920 H8939 0.913 . S
C8921 H8897 0.950 . S
C8921 C8920 1.524 . S
C8921 C8922 1.415 . S
C8922 H8898 0.950 . S
C8922 C8917 1.363 . S
C8922 C8921 1.415 . S
C8923 H8899 0.951 . S
C8923 C8924 1.366 . S
C8923 C8925 1.388 . S
C8924 C8923 1.366 . S
C8924 C8928 1.385 . S
C8925 H8900 0.951 . S
C8925 C8923 1.388 . S
C8925 C8926 1.366 . S
C8926 C8925 1.366 . S
C8926 C8927 1.414 . S
C8926 C8929 1.499 . S
C8927 H8901 0.950 . S
C8927 C8926 1.414 . S
C8927 C8928 1.374 . S
C8928 H8902 0.950 . S
C8928 C8924 1.385 . S
C8928 C8927 1.374 . S
C8929 C8926 1.499 . S
C8929 C8930 1.373 . S
C8929 C8931 1.389 . S
C8930 H8903 0.950 . S
C8930 C8916 1.377 1_565 S
C8930 C8929 1.373 . S
C8931 C8915 1.377 1_565 S
C8931 C8929 1.389 . S
C8931 C8932 1.524 . S
C8932 C8931 1.524 . S
C8932 C8933 1.397 . S
C8932 C8937 1.363 . S
C8933 H8904 0.950 . S
C8933 C8932 1.397 . S
C8933 C8934 1.334 . S
C8934 H8905 0.950 . S
C8934 C8933 1.334 . S
C8934 C8935 1.287 . S
C8935 C8934 1.287 . S
C8935 C8936 1.524 . S
C8935 H8938 0.999 . S
C8936 H8906 0.950 . S
C8936 C8935 1.524 . S
C8936 C8937 1.415 . S
C8937 H8907 0.950 . S
C8937 C8932 1.363 . S
C8937 C8936 1.415 . S
H8938 C8935 0.999 . S
H8939 C8920 0.913 . S
H8940 C8958 0.951 . S
H8941 C8960 0.951 . S
H8942 C8962 0.950 . S
H8943 C8963 0.950 . S
H8944 C8965 0.950 . S
H8945 C8968 0.950 . S
H8946 C8969 0.950 . S
H8947 C8971 0.950 . S
H8948 C8972 0.950 . S
H8949 C8973 0.951 . S
H8950 C8975 0.951 . S
H8951 C8977 0.950 . S
H8952 C8978 0.950 . S
H8953 C8980 0.950 . S
H8954 C8983 0.950 . S
H8955 C8984 0.950 . S
H8956 C8986 0.950 . S
H8957 C8987 0.950 . S
C8958 H8940 0.951 . S
C8958 C8959 1.366 . S
C8958 C8960 1.388 . S
C8959 C8958 1.366 . S
C8959 C8963 1.385 . S
C8960 H8941 0.951 . S
C8960 C8958 1.388 . S
C8960 C8961 1.366 . S
C8961 C8960 1.366 . S
C8961 C8962 1.414 . S
C8961 C8964 1.499 . S
C8962 H8942 0.950 . S
C8962 C8961 1.414 . S
C8962 C8963 1.374 . S
C8963 H8943 0.950 . S
C8963 C8959 1.385 . S
C8963 C8962 1.374 . S
C8964 C8961 1.499 . S
C8964 C8965 1.373 . S
C8964 C8966 1.389 . S
C8965 H8944 0.950 . S
C8965 C8964 1.373 . S
C8965 C8981 1.377 1_655 S
C8966 C8964 1.389 . S
C8966 C8967 1.524 . S
C8966 C8980 1.377 1_655 S
C8967 C8966 1.524 . S
C8967 C8968 1.397 . S
C8967 C8972 1.363 . S
C8968 H8945 0.950 . S
C8968 C8967 1.397 . S
C8968 C8969 1.334 . S
C8969 H8946 0.950 . S
C8969 C8968 1.334 . S
C8969 C8970 1.287 . S
C8970 C8969 1.287 . S
C8970 C8971 1.524 . S
C8970 H8989 0.913 . S
C8971 H8947 0.950 . S
C8971 C8970 1.524 . S
C8971 C8972 1.415 . S
C8972 H8948 0.950 . S
C8972 C8967 1.363 . S
C8972 C8971 1.415 . S
C8973 H8949 0.951 . S
C8973 C8974 1.366 . S
C8973 C8975 1.388 . S
C8974 C8973 1.366 . S
C8974 C8978 1.385 . S
C8975 H8950 0.951 . S
C8975 C8973 1.388 . S
C8975 C8976 1.366 . S
C8976 C8975 1.366 . S
C8976 C8977 1.414 . S
C8976 C8979 1.499 . S
C8977 H8951 0.950 . S
C8977 C8976 1.414 . S
C8977 C8978 1.374 . S
C8978 H8952 0.950 . S
C8978 C8974 1.385 . S
C8978 C8977 1.374 . S
C8979 C8976 1.499 . S
C8979 C8980 1.373 . S
C8979 C8981 1.389 . S
C8980 H8953 0.950 . S
C8980 C8966 1.377 1_455 S
C8980 C8979 1.373 . S
C8981 C8965 1.377 1_455 S
C8981 C8979 1.389 . S
C8981 C8982 1.524 . S
C8982 C8981 1.524 . S
C8982 C8983 1.397 . S
C8982 C8987 1.363 . S
C8983 H8954 0.950 . S
C8983 C8982 1.397 . S
C8983 C8984 1.334 . S
C8984 H8955 0.950 . S
C8984 C8983 1.334 . S
C8984 C8985 1.287 . S
C8985 C8984 1.287 . S
C8985 C8986 1.524 . S
C8985 H8988 0.999 . S
C8986 H8956 0.950 . S
C8986 C8985 1.524 . S
C8986 C8987 1.415 . S
C8987 H8957 0.950 . S
C8987 C8982 1.363 . S
C8987 C8986 1.415 . S
H8988 C8985 0.999 . S
H8989 C8970 0.913 . S
H8990 C9008 0.951 . S
H8991 C9010 0.951 . S
H8992 C9012 0.950 . S
H8993 C9013 0.950 . S
H8994 C9015 0.950 . S
H8995 C9018 0.950 . S
H8996 C9019 0.950 . S
H8997 C9021 0.950 . S
H8998 C9022 0.950 . S
H8999 C9023 0.951 . S
H9000 C9025 0.951 . S
H9001 C9027 0.950 . S
H9002 C9028 0.950 . S
H9003 C9030 0.950 . S
H9004 C9033 0.950 . S
H9005 C9034 0.950 . S
H9006 C9036 0.950 . S
H9007 C9037 0.950 . S
C9008 H8990 0.951 . S
C9008 C9009 1.366 . S
C9008 C9010 1.388 . S
C9009 C9008 1.366 . S
C9009 C9013 1.385 . S
C9010 H8991 0.951 . S
C9010 C9008 1.388 . S
C9010 C9011 1.366 . S
C9011 C9010 1.366 . S
C9011 C9012 1.414 . S
C9011 C9014 1.499 . S
C9012 H8992 0.950 . S
C9012 C9011 1.414 . S
C9012 C9013 1.374 . S
C9013 H8993 0.950 . S
C9013 C9009 1.385 . S
C9013 C9012 1.374 . S
C9014 C9011 1.499 . S
C9014 C9015 1.373 . S
C9014 C9016 1.389 . S
C9015 H8994 0.950 . S
C9015 C9014 1.373 . S
C9015 C9031 1.377 1_545 S
C9016 C9014 1.389 . S
C9016 C9017 1.524 . S
C9016 C9030 1.377 1_545 S
C9017 C9016 1.524 . S
C9017 C9018 1.397 . S
C9017 C9022 1.363 . S
C9018 H8995 0.950 . S
C9018 C9017 1.397 . S
C9018 C9019 1.334 . S
C9019 H8996 0.950 . S
C9019 C9018 1.334 . S
C9019 C9020 1.287 . S
C9020 C9019 1.287 . S
C9020 C9021 1.524 . S
C9020 H9039 0.913 . S
C9021 H8997 0.950 . S
C9021 C9020 1.524 . S
C9021 C9022 1.415 . S
C9022 H8998 0.950 . S
C9022 C9017 1.363 . S
C9022 C9021 1.415 . S
C9023 H8999 0.951 . S
C9023 C9024 1.366 . S
C9023 C9025 1.388 . S
C9024 C9023 1.366 . S
C9024 C9028 1.385 . S
C9025 H9000 0.951 . S
C9025 C9023 1.388 . S
C9025 C9026 1.366 . S
C9026 C9025 1.366 . S
C9026 C9027 1.414 . S
C9026 C9029 1.499 . S
C9027 H9001 0.950 . S
C9027 C9026 1.414 . S
C9027 C9028 1.374 . S
C9028 H9002 0.950 . S
C9028 C9024 1.385 . S
C9028 C9027 1.374 . S
C9029 C9026 1.499 . S
C9029 C9030 1.373 . S
C9029 C9031 1.389 . S
C9030 H9003 0.950 . S
C9030 C9016 1.377 1_565 S
C9030 C9029 1.373 . S
C9031 C9015 1.377 1_565 S
C9031 C9029 1.389 . S
C9031 C9032 1.524 . S
C9032 C9031 1.524 . S
C9032 C9033 1.397 . S
C9032 C9037 1.363 . S
C9033 H9004 0.950 . S
C9033 C9032 1.397 . S
C9033 C9034 1.334 . S
C9034 H9005 0.950 . S
C9034 C9033 1.334 . S
C9034 C9035 1.287 . S
C9035 C9034 1.287 . S
C9035 C9036 1.524 . S
C9035 H9038 0.999 . S
C9036 H9006 0.950 . S
C9036 C9035 1.524 . S
C9036 C9037 1.415 . S
C9037 H9007 0.950 . S
C9037 C9032 1.363 . S
C9037 C9036 1.415 . S
H9038 C9035 0.999 . S
H9039 C9020 0.913 . S
H9040 C9058 0.951 . S
H9041 C9060 0.951 . S
H9042 C9062 0.950 . S
H9043 C9063 0.950 . S
H9044 C9065 0.950 . S
H9045 C9068 0.950 . S
H9046 C9069 0.950 . S
H9047 C9071 0.950 . S
H9048 C9072 0.950 . S
H9049 C9073 0.951 . S
H9050 C9075 0.951 . S
H9051 C9077 0.950 . S
H9052 C9078 0.950 . S
H9053 C9080 0.950 . S
H9054 C9083 0.950 . S
H9055 C9084 0.950 . S
H9056 C9086 0.950 . S
H9057 C9087 0.950 . S
C9058 H9040 0.951 . S
C9058 C9059 1.366 . S
C9058 C9060 1.388 . S
C9059 C9058 1.366 . S
C9059 C9063 1.385 . S
C9060 H9041 0.951 . S
C9060 C9058 1.388 . S
C9060 C9061 1.366 . S
C9061 C9060 1.366 . S
C9061 C9062 1.414 . S
C9061 C9064 1.499 . S
C9062 H9042 0.950 . S
C9062 C9061 1.414 . S
C9062 C9063 1.374 . S
C9063 H9043 0.950 . S
C9063 C9059 1.385 . S
C9063 C9062 1.374 . S
C9064 C9061 1.499 . S
C9064 C9065 1.373 . S
C9064 C9066 1.389 . S
C9065 H9044 0.950 . S
C9065 C9064 1.373 . S
C9065 C9081 1.377 1_565 S
C9066 C9064 1.389 . S
C9066 C9067 1.524 . S
C9066 C9080 1.377 1_565 S
C9067 C9066 1.524 . S
C9067 C9068 1.397 . S
C9067 C9072 1.363 . S
C9068 H9045 0.950 . S
C9068 C9067 1.397 . S
C9068 C9069 1.334 . S
C9069 H9046 0.950 . S
C9069 C9068 1.334 . S
C9069 C9070 1.287 . S
C9070 C9069 1.287 . S
C9070 C9071 1.524 . S
C9070 H9089 0.913 . S
C9071 H9047 0.950 . S
C9071 C9070 1.524 . S
C9071 C9072 1.415 . S
C9072 H9048 0.950 . S
C9072 C9067 1.363 . S
C9072 C9071 1.415 . S
C9073 H9049 0.951 . S
C9073 C9074 1.366 . S
C9073 C9075 1.388 . S
C9074 C9073 1.366 . S
C9074 C9078 1.385 . S
C9075 H9050 0.951 . S
C9075 C9073 1.388 . S
C9075 C9076 1.366 . S
C9076 C9075 1.366 . S
C9076 C9077 1.414 . S
C9076 C9079 1.499 . S
C9077 H9051 0.950 . S
C9077 C9076 1.414 . S
C9077 C9078 1.374 . S
C9078 H9052 0.950 . S
C9078 C9074 1.385 . S
C9078 C9077 1.374 . S
C9079 C9076 1.499 . S
C9079 C9080 1.373 . S
C9079 C9081 1.389 . S
C9080 H9053 0.950 . S
C9080 C9066 1.377 1_545 S
C9080 C9079 1.373 . S
C9081 C9065 1.377 1_545 S
C9081 C9079 1.389 . S
C9081 C9082 1.524 . S
C9082 C9081 1.524 . S
C9082 C9083 1.397 . S
C9082 C9087 1.363 . S
C9083 H9054 0.950 . S
C9083 C9082 1.397 . S
C9083 C9084 1.334 . S
C9084 H9055 0.950 . S
C9084 C9083 1.334 . S
C9084 C9085 1.287 . S
C9085 C9084 1.287 . S
C9085 C9086 1.524 . S
C9085 H9088 0.999 . S
C9086 H9056 0.950 . S
C9086 C9085 1.524 . S
C9086 C9087 1.415 . S
C9087 H9057 0.950 . S
C9087 C9082 1.363 . S
C9087 C9086 1.415 . S
H9088 C9085 0.999 . S
H9089 C9070 0.913 . S
H9090 C9108 0.951 . S
H9091 C9110 0.951 . S
H9092 C9112 0.950 . S
H9093 C9113 0.950 . S
H9094 C9115 0.950 . S
H9095 C9118 0.950 . S
H9096 C9119 0.950 . S
H9097 C9121 0.950 . S
H9098 C9122 0.950 . S
H9099 C9123 0.951 . S
H9100 C9125 0.951 . S
H9101 C9127 0.950 . S
H9102 C9128 0.950 . S
H9103 C9130 0.950 . S
H9104 C9133 0.950 . S
H9105 C9134 0.950 . S
H9106 C9136 0.950 . S
H9107 C9137 0.950 . S
C9108 H9090 0.951 . S
C9108 C9109 1.366 . S
C9108 C9110 1.388 . S
C9109 C9108 1.366 . S
C9109 C9113 1.385 . S
C9110 H9091 0.951 . S
C9110 C9108 1.388 . S
C9110 C9111 1.366 . S
C9111 C9110 1.366 . S
C9111 C9112 1.414 . S
C9111 C9114 1.499 . S
C9112 H9092 0.950 . S
C9112 C9111 1.414 . S
C9112 C9113 1.374 . S
C9113 H9093 0.950 . S
C9113 C9109 1.385 . S
C9113 C9112 1.374 . S
C9114 C9111 1.499 . S
C9114 C9115 1.373 . S
C9114 C9116 1.389 . S
C9115 H9094 0.950 . S
C9115 C9114 1.373 . S
C9115 C9131 1.377 1_655 S
C9116 C9114 1.389 . S
C9116 C9117 1.524 . S
C9116 C9130 1.377 1_655 S
C9117 C9116 1.524 . S
C9117 C9118 1.397 . S
C9117 C9122 1.363 . S
C9118 H9095 0.950 . S
C9118 C9117 1.397 . S
C9118 C9119 1.334 . S
C9119 H9096 0.950 . S
C9119 C9118 1.334 . S
C9119 C9120 1.287 . S
C9120 C9119 1.287 . S
C9120 C9121 1.524 . S
C9120 H9139 0.913 . S
C9121 H9097 0.950 . S
C9121 C9120 1.524 . S
C9121 C9122 1.415 . S
C9122 H9098 0.950 . S
C9122 C9117 1.363 . S
C9122 C9121 1.415 . S
C9123 H9099 0.951 . S
C9123 C9124 1.366 . S
C9123 C9125 1.388 . S
C9124 C9123 1.366 . S
C9124 C9128 1.385 . S
C9125 H9100 0.951 . S
C9125 C9123 1.388 . S
C9125 C9126 1.366 . S
C9126 C9125 1.366 . S
C9126 C9127 1.414 . S
C9126 C9129 1.499 . S
C9127 H9101 0.950 . S
C9127 C9126 1.414 . S
C9127 C9128 1.374 . S
C9128 H9102 0.950 . S
C9128 C9124 1.385 . S
C9128 C9127 1.374 . S
C9129 C9126 1.499 . S
C9129 C9130 1.373 . S
C9129 C9131 1.389 . S
C9130 H9103 0.950 . S
C9130 C9116 1.377 1_455 S
C9130 C9129 1.373 . S
C9131 C9115 1.377 1_455 S
C9131 C9129 1.389 . S
C9131 C9132 1.524 . S
C9132 C9131 1.524 . S
C9132 C9133 1.397 . S
C9132 C9137 1.363 . S
C9133 H9104 0.950 . S
C9133 C9132 1.397 . S
C9133 C9134 1.334 . S
C9134 H9105 0.950 . S
C9134 C9133 1.334 . S
C9134 C9135 1.287 . S
C9135 C9134 1.287 . S
C9135 C9136 1.524 . S
C9135 H9138 0.999 . S
C9136 H9106 0.950 . S
C9136 C9135 1.524 . S
C9136 C9137 1.415 . S
C9137 H9107 0.950 . S
C9137 C9132 1.363 . S
C9137 C9136 1.415 . S
H9138 C9135 0.999 . S
H9139 C9120 0.913 . S
H9140 C9158 0.951 . S
H9141 C9160 0.951 . S
H9142 C9162 0.950 . S
H9143 C9163 0.950 . S
H9144 C9165 0.950 . S
H9145 C9168 0.950 . S
H9146 C9169 0.950 . S
H9147 C9171 0.950 . S
H9148 C9172 0.950 . S
H9149 C9173 0.951 . S
H9150 C9175 0.951 . S
H9151 C9177 0.950 . S
H9152 C9178 0.950 . S
H9153 C9180 0.950 . S
H9154 C9183 0.950 . S
H9155 C9184 0.950 . S
H9156 C9186 0.950 . S
H9157 C9187 0.950 . S
C9158 H9140 0.951 . S
C9158 C9159 1.366 . S
C9158 C9160 1.388 . S
C9159 C9158 1.366 . S
C9159 C9163 1.385 . S
C9160 H9141 0.951 . S
C9160 C9158 1.388 . S
C9160 C9161 1.366 . S
C9161 C9160 1.366 . S
C9161 C9162 1.414 . S
C9161 C9164 1.499 . S
C9162 H9142 0.950 . S
C9162 C9161 1.414 . S
C9162 C9163 1.374 . S
C9163 H9143 0.950 . S
C9163 C9159 1.385 . S
C9163 C9162 1.374 . S
C9164 C9161 1.499 . S
C9164 C9165 1.373 . S
C9164 C9166 1.389 . S
C9165 H9144 0.950 . S
C9165 C9164 1.373 . S
C9165 C9181 1.377 1_565 S
C9166 C9164 1.389 . S
C9166 C9167 1.524 . S
C9166 C9180 1.377 1_565 S
C9167 C9166 1.524 . S
C9167 C9168 1.397 . S
C9167 C9172 1.363 . S
C9168 H9145 0.950 . S
C9168 C9167 1.397 . S
C9168 C9169 1.334 . S
C9169 H9146 0.950 . S
C9169 C9168 1.334 . S
C9169 C9170 1.287 . S
C9170 C9169 1.287 . S
C9170 C9171 1.524 . S
C9170 H9189 0.913 . S
C9171 H9147 0.950 . S
C9171 C9170 1.524 . S
C9171 C9172 1.415 . S
C9172 H9148 0.950 . S
C9172 C9167 1.363 . S
C9172 C9171 1.415 . S
C9173 H9149 0.951 . S
C9173 C9174 1.366 . S
C9173 C9175 1.388 . S
C9174 C9173 1.366 . S
C9174 C9178 1.385 . S
C9175 H9150 0.951 . S
C9175 C9173 1.388 . S
C9175 C9176 1.366 . S
C9176 C9175 1.366 . S
C9176 C9177 1.414 . S
C9176 C9179 1.499 . S
C9177 H9151 0.950 . S
C9177 C9176 1.414 . S
C9177 C9178 1.374 . S
C9178 H9152 0.950 . S
C9178 C9174 1.385 . S
C9178 C9177 1.374 . S
C9179 C9176 1.499 . S
C9179 C9180 1.373 . S
C9179 C9181 1.389 . S
C9180 H9153 0.950 . S
C9180 C9166 1.377 1_545 S
C9180 C9179 1.373 . S
C9181 C9165 1.377 1_545 S
C9181 C9179 1.389 . S
C9181 C9182 1.524 . S
C9182 C9181 1.524 . S
C9182 C9183 1.397 . S
C9182 C9187 1.363 . S
C9183 H9154 0.950 . S
C9183 C9182 1.397 . S
C9183 C9184 1.334 . S
C9184 H9155 0.950 . S
C9184 C9183 1.334 . S
C9184 C9185 1.287 . S
C9185 C9184 1.287 . S
C9185 C9186 1.524 . S
C9185 H9188 0.999 . S
C9186 H9156 0.950 . S
C9186 C9185 1.524 . S
C9186 C9187 1.415 . S
C9187 H9157 0.950 . S
C9187 C9182 1.363 . S
C9187 C9186 1.415 . S
H9188 C9185 0.999 . S
H9189 C9170 0.913 . S
H9190 C9208 0.951 . S
H9191 C9210 0.951 . S
H9192 C9212 0.950 . S
H9193 C9213 0.950 . S
H9194 C9215 0.950 . S
H9195 C9218 0.950 . S
H9196 C9219 0.950 . S
H9197 C9221 0.950 . S
H9198 C9222 0.950 . S
H9199 C9223 0.951 . S
H9200 C9225 0.951 . S
H9201 C9227 0.950 . S
H9202 C9228 0.950 . S
H9203 C9230 0.950 . S
H9204 C9233 0.950 . S
H9205 C9234 0.950 . S
H9206 C9236 0.950 . S
H9207 C9237 0.950 . S
C9208 H9190 0.951 . S
C9208 C9209 1.366 . S
C9208 C9210 1.388 . S
C9209 C9208 1.366 . S
C9209 C9213 1.385 . S
C9210 H9191 0.951 . S
C9210 C9208 1.388 . S
C9210 C9211 1.366 . S
C9211 C9210 1.366 . S
C9211 C9212 1.414 . S
C9211 C9214 1.499 . S
C9212 H9192 0.950 . S
C9212 C9211 1.414 . S
C9212 C9213 1.374 . S
C9213 H9193 0.950 . S
C9213 C9209 1.385 . S
C9213 C9212 1.374 . S
C9214 C9211 1.499 . S
C9214 C9215 1.373 . S
C9214 C9216 1.389 . S
C9215 H9194 0.950 . S
C9215 C9214 1.373 . S
C9215 C9231 1.377 1_655 S
C9216 C9214 1.389 . S
C9216 C9217 1.524 . S
C9216 C9230 1.377 1_655 S
C9217 C9216 1.524 . S
C9217 C9218 1.397 . S
C9217 C9222 1.363 . S
C9218 H9195 0.950 . S
C9218 C9217 1.397 . S
C9218 C9219 1.334 . S
C9219 H9196 0.950 . S
C9219 C9218 1.334 . S
C9219 C9220 1.287 . S
C9220 C9219 1.287 . S
C9220 C9221 1.524 . S
C9220 H9239 0.913 . S
C9221 H9197 0.950 . S
C9221 C9220 1.524 . S
C9221 C9222 1.415 . S
C9222 H9198 0.950 . S
C9222 C9217 1.363 . S
C9222 C9221 1.415 . S
C9223 H9199 0.951 . S
C9223 C9224 1.366 . S
C9223 C9225 1.388 . S
C9224 C9223 1.366 . S
C9224 C9228 1.385 . S
C9225 H9200 0.951 . S
C9225 C9223 1.388 . S
C9225 C9226 1.366 . S
C9226 C9225 1.366 . S
C9226 C9227 1.414 . S
C9226 C9229 1.499 . S
C9227 H9201 0.950 . S
C9227 C9226 1.414 . S
C9227 C9228 1.374 . S
C9228 H9202 0.950 . S
C9228 C9224 1.385 . S
C9228 C9227 1.374 . S
C9229 C9226 1.499 . S
C9229 C9230 1.373 . S
C9229 C9231 1.389 . S
C9230 H9203 0.950 . S
C9230 C9216 1.377 1_455 S
C9230 C9229 1.373 . S
C9231 C9215 1.377 1_455 S
C9231 C9229 1.389 . S
C9231 C9232 1.524 . S
C9232 C9231 1.524 . S
C9232 C9233 1.397 . S
C9232 C9237 1.363 . S
C9233 H9204 0.950 . S
C9233 C9232 1.397 . S
C9233 C9234 1.334 . S
C9234 H9205 0.950 . S
C9234 C9233 1.334 . S
C9234 C9235 1.287 . S
C9235 C9234 1.287 . S
C9235 C9236 1.524 . S
C9235 H9238 0.999 . S
C9236 H9206 0.950 . S
C9236 C9235 1.524 . S
C9236 C9237 1.415 . S
C9237 H9207 0.950 . S
C9237 C9232 1.363 . S
C9237 C9236 1.415 . S
H9238 C9235 0.999 . S
H9239 C9220 0.913 . S
H9240 C9258 0.951 . S
H9241 C9260 0.951 . S
H9242 C9262 0.950 . S
H9243 C9263 0.950 . S
H9244 C9265 0.950 . S
H9245 C9268 0.950 . S
H9246 C9269 0.950 . S
H9247 C9271 0.950 . S
H9248 C9272 0.950 . S
H9249 C9273 0.951 . S
H9250 C9275 0.951 . S
H9251 C9277 0.950 . S
H9252 C9278 0.950 . S
H9253 C9280 0.950 . S
H9254 C9283 0.950 . S
H9255 C9284 0.950 . S
H9256 C9286 0.950 . S
H9257 C9287 0.950 . S
C9258 H9240 0.951 . S
C9258 C9259 1.366 . S
C9258 C9260 1.388 . S
C9259 C9258 1.366 . S
C9259 C9263 1.385 . S
C9260 H9241 0.951 . S
C9260 C9258 1.388 . S
C9260 C9261 1.366 . S
C9261 C9260 1.366 . S
C9261 C9262 1.414 . S
C9261 C9264 1.499 . S
C9262 H9242 0.950 . S
C9262 C9261 1.414 . S
C9262 C9263 1.374 . S
C9263 H9243 0.950 . S
C9263 C9259 1.385 . S
C9263 C9262 1.374 . S
C9264 C9261 1.499 . S
C9264 C9265 1.373 . S
C9264 C9266 1.389 . S
C9265 H9244 0.950 . S
C9265 C9264 1.373 . S
C9265 C9281 1.377 1_565 S
C9266 C9264 1.389 . S
C9266 C9267 1.524 . S
C9266 C9280 1.377 1_565 S
C9267 C9266 1.524 . S
C9267 C9268 1.397 . S
C9267 C9272 1.363 . S
C9268 H9245 0.950 . S
C9268 C9267 1.397 . S
C9268 C9269 1.334 . S
C9269 H9246 0.950 . S
C9269 C9268 1.334 . S
C9269 C9270 1.287 . S
C9270 C9269 1.287 . S
C9270 C9271 1.524 . S
C9270 H9289 0.913 . S
C9271 H9247 0.950 . S
C9271 C9270 1.524 . S
C9271 C9272 1.415 . S
C9272 H9248 0.950 . S
C9272 C9267 1.363 . S
C9272 C9271 1.415 . S
C9273 H9249 0.951 . S
C9273 C9274 1.366 . S
C9273 C9275 1.388 . S
C9274 C9273 1.366 . S
C9274 C9278 1.385 . S
C9275 H9250 0.951 . S
C9275 C9273 1.388 . S
C9275 C9276 1.366 . S
C9276 C9275 1.366 . S
C9276 C9277 1.414 . S
C9276 C9279 1.499 . S
C9277 H9251 0.950 . S
C9277 C9276 1.414 . S
C9277 C9278 1.374 . S
C9278 H9252 0.950 . S
C9278 C9274 1.385 . S
C9278 C9277 1.374 . S
C9279 C9276 1.499 . S
C9279 C9280 1.373 . S
C9279 C9281 1.389 . S
C9280 H9253 0.950 . S
C9280 C9266 1.377 1_545 S
C9280 C9279 1.373 . S
C9281 C9265 1.377 1_545 S
C9281 C9279 1.389 . S
C9281 C9282 1.524 . S
C9282 C9281 1.524 . S
C9282 C9283 1.397 . S
C9282 C9287 1.363 . S
C9283 H9254 0.950 . S
C9283 C9282 1.397 . S
C9283 C9284 1.334 . S
C9284 H9255 0.950 . S
C9284 C9283 1.334 . S
C9284 C9285 1.287 . S
C9285 C9284 1.287 . S
C9285 C9286 1.524 . S
C9285 H9288 0.999 . S
C9286 H9256 0.950 . S
C9286 C9285 1.524 . S
C9286 C9287 1.415 . S
C9287 H9257 0.950 . S
C9287 C9282 1.363 . S
C9287 C9286 1.415 . S
H9288 C9285 0.999 . S
H9289 C9270 0.913 . S
H9290 C9308 0.951 . S
H9291 C9310 0.951 . S
H9292 C9312 0.950 . S
H9293 C9313 0.950 . S
H9294 C9315 0.950 . S
H9295 C9318 0.950 . S
H9296 C9319 0.950 . S
H9297 C9321 0.950 . S
H9298 C9322 0.950 . S
H9299 C9323 0.951 . S
H9300 C9325 0.951 . S
H9301 C9327 0.950 . S
H9302 C9328 0.950 . S
H9303 C9330 0.950 . S
H9304 C9333 0.950 . S
H9305 C9334 0.950 . S
H9306 C9336 0.950 . S
H9307 C9337 0.950 . S
C9308 H9290 0.951 . S
C9308 C9309 1.366 . S
C9308 C9310 1.388 . S
C9309 C9308 1.366 . S
C9309 C9313 1.385 . S
C9310 H9291 0.951 . S
C9310 C9308 1.388 . S
C9310 C9311 1.366 . S
C9311 C9310 1.366 . S
C9311 C9312 1.414 . S
C9311 C9314 1.499 . S
C9312 H9292 0.950 . S
C9312 C9311 1.414 . S
C9312 C9313 1.374 . S
C9313 H9293 0.950 . S
C9313 C9309 1.385 . S
C9313 C9312 1.374 . S
C9314 C9311 1.499 . S
C9314 C9315 1.373 . S
C9314 C9316 1.389 . S
C9315 H9294 0.950 . S
C9315 C9314 1.373 . S
C9315 C9331 1.377 1_455 S
C9316 C9314 1.389 . S
C9316 C9317 1.524 . S
C9316 C9330 1.377 1_455 S
C9317 C9316 1.524 . S
C9317 C9318 1.397 . S
C9317 C9322 1.363 . S
C9318 H9295 0.950 . S
C9318 C9317 1.397 . S
C9318 C9319 1.334 . S
C9319 H9296 0.950 . S
C9319 C9318 1.334 . S
C9319 C9320 1.287 . S
C9320 C9319 1.287 . S
C9320 C9321 1.524 . S
C9320 H9339 0.913 . S
C9321 H9297 0.950 . S
C9321 C9320 1.524 . S
C9321 C9322 1.415 . S
C9322 H9298 0.950 . S
C9322 C9317 1.363 . S
C9322 C9321 1.415 . S
C9323 H9299 0.951 . S
C9323 C9324 1.366 . S
C9323 C9325 1.388 . S
C9324 C9323 1.366 . S
C9324 C9328 1.385 . S
C9325 H9300 0.951 . S
C9325 C9323 1.388 . S
C9325 C9326 1.366 . S
C9326 C9325 1.366 . S
C9326 C9327 1.414 . S
C9326 C9329 1.499 . S
C9327 H9301 0.950 . S
C9327 C9326 1.414 . S
C9327 C9328 1.374 . S
C9328 H9302 0.950 . S
C9328 C9324 1.385 . S
C9328 C9327 1.374 . S
C9329 C9326 1.499 . S
C9329 C9330 1.373 . S
C9329 C9331 1.389 . S
C9330 H9303 0.950 . S
C9330 C9316 1.377 1_655 S
C9330 C9329 1.373 . S
C9331 C9315 1.377 1_655 S
C9331 C9329 1.389 . S
C9331 C9332 1.524 . S
C9332 C9331 1.524 . S
C9332 C9333 1.397 . S
C9332 C9337 1.363 . S
C9333 H9304 0.950 . S
C9333 C9332 1.397 . S
C9333 C9334 1.334 . S
C9334 H9305 0.950 . S
C9334 C9333 1.334 . S
C9334 C9335 1.287 . S
C9335 C9334 1.287 . S
C9335 C9336 1.524 . S
C9335 H9338 0.999 . S
C9336 H9306 0.950 . S
C9336 C9335 1.524 . S
C9336 C9337 1.415 . S
C9337 H9307 0.950 . S
C9337 C9332 1.363 . S
C9337 C9336 1.415 . S
H9338 C9335 0.999 . S
H9339 C9320 0.913 . S
H9340 C9358 0.951 . S
H9341 C9360 0.951 . S
H9342 C9362 0.950 . S
H9343 C9363 0.950 . S
H9344 C9365 0.950 . S
H9345 C9368 0.950 . S
H9346 C9369 0.950 . S
H9347 C9371 0.950 . S
H9348 C9372 0.950 . S
H9349 C9373 0.951 . S
H9350 C9375 0.951 . S
H9351 C9377 0.950 . S
H9352 C9378 0.950 . S
H9353 C9380 0.950 . S
H9354 C9383 0.950 . S
H9355 C9384 0.950 . S
H9356 C9386 0.950 . S
H9357 C9387 0.950 . S
C9358 H9340 0.951 . S
C9358 C9359 1.366 . S
C9358 C9360 1.388 . S
C9359 C9358 1.366 . S
C9359 C9363 1.385 . S
C9360 H9341 0.951 . S
C9360 C9358 1.388 . S
C9360 C9361 1.366 . S
C9361 C9360 1.366 . S
C9361 C9362 1.414 . S
C9361 C9364 1.499 . S
C9362 H9342 0.950 . S
C9362 C9361 1.414 . S
C9362 C9363 1.374 . S
C9363 H9343 0.950 . S
C9363 C9359 1.385 . S
C9363 C9362 1.374 . S
C9364 C9361 1.499 . S
C9364 C9365 1.373 . S
C9364 C9366 1.389 . S
C9365 H9344 0.950 . S
C9365 C9364 1.373 . S
C9365 C9381 1.377 1_545 S
C9366 C9364 1.389 . S
C9366 C9367 1.524 . S
C9366 C9380 1.377 1_545 S
C9367 C9366 1.524 . S
C9367 C9368 1.397 . S
C9367 C9372 1.363 . S
C9368 H9345 0.950 . S
C9368 C9367 1.397 . S
C9368 C9369 1.334 . S
C9369 H9346 0.950 . S
C9369 C9368 1.334 . S
C9369 C9370 1.287 . S
C9370 C9369 1.287 . S
C9370 C9371 1.524 . S
C9370 H9389 0.913 . S
C9371 H9347 0.950 . S
C9371 C9370 1.524 . S
C9371 C9372 1.415 . S
C9372 H9348 0.950 . S
C9372 C9367 1.363 . S
C9372 C9371 1.415 . S
C9373 H9349 0.951 . S
C9373 C9374 1.366 . S
C9373 C9375 1.388 . S
C9374 C9373 1.366 . S
C9374 C9378 1.385 . S
C9375 H9350 0.951 . S
C9375 C9373 1.388 . S
C9375 C9376 1.366 . S
C9376 C9375 1.366 . S
C9376 C9377 1.414 . S
C9376 C9379 1.499 . S
C9377 H9351 0.950 . S
C9377 C9376 1.414 . S
C9377 C9378 1.374 . S
C9378 H9352 0.950 . S
C9378 C9374 1.385 . S
C9378 C9377 1.374 . S
C9379 C9376 1.499 . S
C9379 C9380 1.373 . S
C9379 C9381 1.389 . S
C9380 H9353 0.950 . S
C9380 C9366 1.377 1_565 S
C9380 C9379 1.373 . S
C9381 C9365 1.377 1_565 S
C9381 C9379 1.389 . S
C9381 C9382 1.524 . S
C9382 C9381 1.524 . S
C9382 C9383 1.397 . S
C9382 C9387 1.363 . S
C9383 H9354 0.950 . S
C9383 C9382 1.397 . S
C9383 C9384 1.334 . S
C9384 H9355 0.950 . S
C9384 C9383 1.334 . S
C9384 C9385 1.287 . S
C9385 C9384 1.287 . S
C9385 C9386 1.524 . S
C9385 H9388 0.999 . S
C9386 H9356 0.950 . S
C9386 C9385 1.524 . S
C9386 C9387 1.415 . S
C9387 H9357 0.950 . S
C9387 C9382 1.363 . S
C9387 C9386 1.415 . S
H9388 C9385 0.999 . S
H9389 C9370 0.913 . S
H9390 C9408 0.951 . S
H9391 C9410 0.951 . S
H9392 C9412 0.950 . S
H9393 C9413 0.950 . S
H9394 C9415 0.950 . S
H9395 C9418 0.950 . S
H9396 C9419 0.950 . S
H9397 C9421 0.950 . S
H9398 C9422 0.950 . S
H9399 C9423 0.951 . S
H9400 C9425 0.951 . S
H9401 C9427 0.950 . S
H9402 C9428 0.950 . S
H9403 C9430 0.950 . S
H9404 C9433 0.950 . S
H9405 C9434 0.950 . S
H9406 C9436 0.950 . S
H9407 C9437 0.950 . S
C9408 H9390 0.951 . S
C9408 C9409 1.366 . S
C9408 C9410 1.388 . S
C9409 C9408 1.366 . S
C9409 C9413 1.385 . S
C9410 H9391 0.951 . S
C9410 C9408 1.388 . S
C9410 C9411 1.366 . S
C9411 C9410 1.366 . S
C9411 C9412 1.414 . S
C9411 C9414 1.499 . S
C9412 H9392 0.950 . S
C9412 C9411 1.414 . S
C9412 C9413 1.374 . S
C9413 H9393 0.950 . S
C9413 C9409 1.385 . S
C9413 C9412 1.374 . S
C9414 C9411 1.499 . S
C9414 C9415 1.373 . S
C9414 C9416 1.389 . S
C9415 H9394 0.950 . S
C9415 C9414 1.373 . S
C9415 C9431 1.377 1_455 S
C9416 C9414 1.389 . S
C9416 C9417 1.524 . S
C9416 C9430 1.377 1_455 S
C9417 C9416 1.524 . S
C9417 C9418 1.397 . S
C9417 C9422 1.363 . S
C9418 H9395 0.950 . S
C9418 C9417 1.397 . S
C9418 C9419 1.334 . S
C9419 H9396 0.950 . S
C9419 C9418 1.334 . S
C9419 C9420 1.287 . S
C9420 C9419 1.287 . S
C9420 C9421 1.524 . S
C9420 H9439 0.913 . S
C9421 H9397 0.950 . S
C9421 C9420 1.524 . S
C9421 C9422 1.415 . S
C9422 H9398 0.950 . S
C9422 C9417 1.363 . S
C9422 C9421 1.415 . S
C9423 H9399 0.951 . S
C9423 C9424 1.366 . S
C9423 C9425 1.388 . S
C9424 C9423 1.366 . S
C9424 C9428 1.385 . S
C9425 H9400 0.951 . S
C9425 C9423 1.388 . S
C9425 C9426 1.366 . S
C9426 C9425 1.366 . S
C9426 C9427 1.414 . S
C9426 C9429 1.499 . S
C9427 H9401 0.950 . S
C9427 C9426 1.414 . S
C9427 C9428 1.374 . S
C9428 H9402 0.950 . S
C9428 C9424 1.385 . S
C9428 C9427 1.374 . S
C9429 C9426 1.499 . S
C9429 C9430 1.373 . S
C9429 C9431 1.389 . S
C9430 H9403 0.950 . S
C9430 C9416 1.377 1_655 S
C9430 C9429 1.373 . S
C9431 C9415 1.377 1_655 S
C9431 C9429 1.389 . S
C9431 C9432 1.524 . S
C9432 C9431 1.524 . S
C9432 C9433 1.397 . S
C9432 C9437 1.363 . S
C9433 H9404 0.950 . S
C9433 C9432 1.397 . S
C9433 C9434 1.334 . S
C9434 H9405 0.950 . S
C9434 C9433 1.334 . S
C9434 C9435 1.287 . S
C9435 C9434 1.287 . S
C9435 C9436 1.524 . S
C9435 H9438 0.999 . S
C9436 H9406 0.950 . S
C9436 C9435 1.524 . S
C9436 C9437 1.415 . S
C9437 H9407 0.950 . S
C9437 C9432 1.363 . S
C9437 C9436 1.415 . S
H9438 C9435 0.999 . S
H9439 C9420 0.913 . S
H9440 C9458 0.951 . S
H9441 C9460 0.951 . S
H9442 C9462 0.950 . S
H9443 C9463 0.950 . S
H9444 C9465 0.950 . S
H9445 C9468 0.950 . S
H9446 C9469 0.950 . S
H9447 C9471 0.950 . S
H9448 C9472 0.950 . S
H9449 C9473 0.951 . S
H9450 C9475 0.951 . S
H9451 C9477 0.950 . S
H9452 C9478 0.950 . S
H9453 C9480 0.950 . S
H9454 C9483 0.950 . S
H9455 C9484 0.950 . S
H9456 C9486 0.950 . S
H9457 C9487 0.950 . S
C9458 H9440 0.951 . S
C9458 C9459 1.366 . S
C9458 C9460 1.388 . S
C9459 C9458 1.366 . S
C9459 C9463 1.385 . S
C9460 H9441 0.951 . S
C9460 C9458 1.388 . S
C9460 C9461 1.366 . S
C9461 C9460 1.366 . S
C9461 C9462 1.414 . S
C9461 C9464 1.499 . S
C9462 H9442 0.950 . S
C9462 C9461 1.414 . S
C9462 C9463 1.374 . S
C9463 H9443 0.950 . S
C9463 C9459 1.385 . S
C9463 C9462 1.374 . S
C9464 C9461 1.499 . S
C9464 C9465 1.373 . S
C9464 C9466 1.389 . S
C9465 H9444 0.950 . S
C9465 C9464 1.373 . S
C9465 C9481 1.377 1_556 S
C9466 C9464 1.389 . S
C9466 C9467 1.524 . S
C9466 C9480 1.377 1_556 S
C9467 C9466 1.524 . S
C9467 C9468 1.397 . S
C9467 C9472 1.363 . S
C9468 H9445 0.950 . S
C9468 C9467 1.397 . S
C9468 C9469 1.334 . S
C9469 H9446 0.950 . S
C9469 C9468 1.334 . S
C9469 C9470 1.287 . S
C9470 C9469 1.287 . S
C9470 C9471 1.524 . S
C9470 H9489 0.913 . S
C9471 H9447 0.950 . S
C9471 C9470 1.524 . S
C9471 C9472 1.415 . S
C9472 H9448 0.950 . S
C9472 C9467 1.363 . S
C9472 C9471 1.415 . S
C9473 H9449 0.951 . S
C9473 C9474 1.366 . S
C9473 C9475 1.388 . S
C9474 C9473 1.366 . S
C9474 C9478 1.385 . S
C9475 H9450 0.951 . S
C9475 C9473 1.388 . S
C9475 C9476 1.366 . S
C9476 C9475 1.366 . S
C9476 C9477 1.414 . S
C9476 C9479 1.499 . S
C9477 H9451 0.950 . S
C9477 C9476 1.414 . S
C9477 C9478 1.374 . S
C9478 H9452 0.950 . S
C9478 C9474 1.385 . S
C9478 C9477 1.374 . S
C9479 C9476 1.499 . S
C9479 C9480 1.373 . S
C9479 C9481 1.389 . S
C9480 H9453 0.950 . S
C9480 C9466 1.377 1_554 S
C9480 C9479 1.373 . S
C9481 C9465 1.377 1_554 S
C9481 C9479 1.389 . S
C9481 C9482 1.524 . S
C9482 C9481 1.524 . S
C9482 C9483 1.397 . S
C9482 C9487 1.363 . S
C9483 H9454 0.950 . S
C9483 C9482 1.397 . S
C9483 C9484 1.334 . S
C9484 H9455 0.950 . S
C9484 C9483 1.334 . S
C9484 C9485 1.287 . S
C9485 C9484 1.287 . S
C9485 C9486 1.524 . S
C9485 H9488 0.999 . S
C9486 H9456 0.950 . S
C9486 C9485 1.524 . S
C9486 C9487 1.415 . S
C9487 H9457 0.950 . S
C9487 C9482 1.363 . S
C9487 C9486 1.415 . S
H9488 C9485 0.999 . S
H9489 C9470 0.913 . S
H9490 C9508 0.951 . S
H9491 C9510 0.951 . S
H9492 C9512 0.950 . S
H9493 C9513 0.950 . S
H9494 C9515 0.950 . S
H9495 C9518 0.950 . S
H9496 C9519 0.950 . S
H9497 C9521 0.950 . S
H9498 C9522 0.950 . S
H9499 C9523 0.951 . S
H9500 C9525 0.951 . S
H9501 C9527 0.950 . S
H9502 C9528 0.950 . S
H9503 C9530 0.950 . S
H9504 C9533 0.950 . S
H9505 C9534 0.950 . S
H9506 C9536 0.950 . S
H9507 C9537 0.950 . S
C9508 H9490 0.951 . S
C9508 C9509 1.366 . S
C9508 C9510 1.388 . S
C9509 C9508 1.366 . S
C9509 C9513 1.385 . S
C9510 H9491 0.951 . S
C9510 C9508 1.388 . S
C9510 C9511 1.366 . S
C9511 C9510 1.366 . S
C9511 C9512 1.414 . S
C9511 C9514 1.499 . S
C9512 H9492 0.950 . S
C9512 C9511 1.414 . S
C9512 C9513 1.374 . S
C9513 H9493 0.950 . S
C9513 C9509 1.385 . S
C9513 C9512 1.374 . S
C9514 C9511 1.499 . S
C9514 C9515 1.373 . S
C9514 C9516 1.389 . S
C9515 H9494 0.950 . S
C9515 C9514 1.373 . S
C9515 C9531 1.377 1_554 S
C9516 C9514 1.389 . S
C9516 C9517 1.524 . S
C9516 C9530 1.377 1_554 S
C9517 C9516 1.524 . S
C9517 C9518 1.397 . S
C9517 C9522 1.363 . S
C9518 H9495 0.950 . S
C9518 C9517 1.397 . S
C9518 C9519 1.334 . S
C9519 H9496 0.950 . S
C9519 C9518 1.334 . S
C9519 C9520 1.287 . S
C9520 C9519 1.287 . S
C9520 C9521 1.524 . S
C9520 H9539 0.913 . S
C9521 H9497 0.950 . S
C9521 C9520 1.524 . S
C9521 C9522 1.415 . S
C9522 H9498 0.950 . S
C9522 C9517 1.363 . S
C9522 C9521 1.415 . S
C9523 H9499 0.951 . S
C9523 C9524 1.366 . S
C9523 C9525 1.388 . S
C9524 C9523 1.366 . S
C9524 C9528 1.385 . S
C9525 H9500 0.951 . S
C9525 C9523 1.388 . S
C9525 C9526 1.366 . S
C9526 C9525 1.366 . S
C9526 C9527 1.414 . S
C9526 C9529 1.499 . S
C9527 H9501 0.950 . S
C9527 C9526 1.414 . S
C9527 C9528 1.374 . S
C9528 H9502 0.950 . S
C9528 C9524 1.385 . S
C9528 C9527 1.374 . S
C9529 C9526 1.499 . S
C9529 C9530 1.373 . S
C9529 C9531 1.389 . S
C9530 H9503 0.950 . S
C9530 C9516 1.377 1_556 S
C9530 C9529 1.373 . S
C9531 C9515 1.377 1_556 S
C9531 C9529 1.389 . S
C9531 C9532 1.524 . S
C9532 C9531 1.524 . S
C9532 C9533 1.397 . S
C9532 C9537 1.363 . S
C9533 H9504 0.950 . S
C9533 C9532 1.397 . S
C9533 C9534 1.334 . S
C9534 H9505 0.950 . S
C9534 C9533 1.334 . S
C9534 C9535 1.287 . S
C9535 C9534 1.287 . S
C9535 C9536 1.524 . S
C9535 H9538 0.999 . S
C9536 H9506 0.950 . S
C9536 C9535 1.524 . S
C9536 C9537 1.415 . S
C9537 H9507 0.950 . S
C9537 C9532 1.363 . S
C9537 C9536 1.415 . S
H9538 C9535 0.999 . S
H9539 C9520 0.913 . S
H9540 C9558 0.951 . S
H9541 C9560 0.951 . S
H9542 C9562 0.950 . S
H9543 C9563 0.950 . S
H9544 C9565 0.950 . S
H9545 C9568 0.950 . S
H9546 C9569 0.950 . S
H9547 C9571 0.950 . S
H9548 C9572 0.950 . S
H9549 C9573 0.951 . S
H9550 C9575 0.951 . S
H9551 C9577 0.950 . S
H9552 C9578 0.950 . S
H9553 C9580 0.950 . S
H9554 C9583 0.950 . S
H9555 C9584 0.950 . S
H9556 C9586 0.950 . S
H9557 C9587 0.950 . S
C9558 H9540 0.951 . S
C9558 C9559 1.366 . S
C9558 C9560 1.388 . S
C9559 C9558 1.366 . S
C9559 C9563 1.385 . S
C9560 H9541 0.951 . S
C9560 C9558 1.388 . S
C9560 C9561 1.366 . S
C9561 C9560 1.366 . S
C9561 C9562 1.414 . S
C9561 C9564 1.499 . S
C9562 H9542 0.950 . S
C9562 C9561 1.414 . S
C9562 C9563 1.374 . S
C9563 H9543 0.950 . S
C9563 C9559 1.385 . S
C9563 C9562 1.374 . S
C9564 C9561 1.499 . S
C9564 C9565 1.373 . S
C9564 C9566 1.389 . S
C9565 H9544 0.950 . S
C9565 C9564 1.373 . S
C9565 C9581 1.377 1_554 S
C9566 C9564 1.389 . S
C9566 C9567 1.524 . S
C9566 C9580 1.377 1_554 S
C9567 C9566 1.524 . S
C9567 C9568 1.397 . S
C9567 C9572 1.363 . S
C9568 H9545 0.950 . S
C9568 C9567 1.397 . S
C9568 C9569 1.334 . S
C9569 H9546 0.950 . S
C9569 C9568 1.334 . S
C9569 C9570 1.287 . S
C9570 C9569 1.287 . S
C9570 C9571 1.524 . S
C9570 H9589 0.913 . S
C9571 H9547 0.950 . S
C9571 C9570 1.524 . S
C9571 C9572 1.415 . S
C9572 H9548 0.950 . S
C9572 C9567 1.363 . S
C9572 C9571 1.415 . S
C9573 H9549 0.951 . S
C9573 C9574 1.366 . S
C9573 C9575 1.388 . S
C9574 C9573 1.366 . S
C9574 C9578 1.385 . S
C9575 H9550 0.951 . S
C9575 C9573 1.388 . S
C9575 C9576 1.366 . S
C9576 C9575 1.366 . S
C9576 C9577 1.414 . S
C9576 C9579 1.499 . S
C9577 H9551 0.950 . S
C9577 C9576 1.414 . S
C9577 C9578 1.374 . S
C9578 H9552 0.950 . S
C9578 C9574 1.385 . S
C9578 C9577 1.374 . S
C9579 C9576 1.499 . S
C9579 C9580 1.373 . S
C9579 C9581 1.389 . S
C9580 H9553 0.950 . S
C9580 C9566 1.377 1_556 S
C9580 C9579 1.373 . S
C9581 C9565 1.377 1_556 S
C9581 C9579 1.389 . S
C9581 C9582 1.524 . S
C9582 C9581 1.524 . S
C9582 C9583 1.397 . S
C9582 C9587 1.363 . S
C9583 H9554 0.950 . S
C9583 C9582 1.397 . S
C9583 C9584 1.334 . S
C9584 H9555 0.950 . S
C9584 C9583 1.334 . S
C9584 C9585 1.287 . S
C9585 C9584 1.287 . S
C9585 C9586 1.524 . S
C9585 H9588 0.999 . S
C9586 H9556 0.950 . S
C9586 C9585 1.524 . S
C9586 C9587 1.415 . S
C9587 H9557 0.950 . S
C9587 C9582 1.363 . S
C9587 C9586 1.415 . S
H9588 C9585 0.999 . S
H9589 C9570 0.913 . S
H9590 C9608 0.951 . S
H9591 C9610 0.951 . S
H9592 C9612 0.950 . S
H9593 C9613 0.950 . S
H9594 C9615 0.950 . S
H9595 C9618 0.950 . S
H9596 C9619 0.950 . S
H9597 C9621 0.950 . S
H9598 C9622 0.950 . S
H9599 C9623 0.951 . S
H9600 C9625 0.951 . S
H9601 C9627 0.950 . S
H9602 C9628 0.950 . S
H9603 C9630 0.950 . S
H9604 C9633 0.950 . S
H9605 C9634 0.950 . S
H9606 C9636 0.950 . S
H9607 C9637 0.950 . S
C9608 H9590 0.951 . S
C9608 C9609 1.366 . S
C9608 C9610 1.388 . S
C9609 C9608 1.366 . S
C9609 C9613 1.385 . S
C9610 H9591 0.951 . S
C9610 C9608 1.388 . S
C9610 C9611 1.366 . S
C9611 C9610 1.366 . S
C9611 C9612 1.414 . S
C9611 C9614 1.499 . S
C9612 H9592 0.950 . S
C9612 C9611 1.414 . S
C9612 C9613 1.374 . S
C9613 H9593 0.950 . S
C9613 C9609 1.385 . S
C9613 C9612 1.374 . S
C9614 C9611 1.499 . S
C9614 C9615 1.373 . S
C9614 C9616 1.389 . S
C9615 H9594 0.950 . S
C9615 C9614 1.373 . S
C9615 C9631 1.377 1_554 S
C9616 C9614 1.389 . S
C9616 C9617 1.524 . S
C9616 C9630 1.377 1_554 S
C9617 C9616 1.524 . S
C9617 C9618 1.397 . S
C9617 C9622 1.363 . S
C9618 H9595 0.950 . S
C9618 C9617 1.397 . S
C9618 C9619 1.334 . S
C9619 H9596 0.950 . S
C9619 C9618 1.334 . S
C9619 C9620 1.287 . S
C9620 C9619 1.287 . S
C9620 C9621 1.524 . S
C9620 H9639 0.913 . S
C9621 H9597 0.950 . S
C9621 C9620 1.524 . S
C9621 C9622 1.415 . S
C9622 H9598 0.950 . S
C9622 C9617 1.363 . S
C9622 C9621 1.415 . S
C9623 H9599 0.951 . S
C9623 C9624 1.366 . S
C9623 C9625 1.388 . S
C9624 C9623 1.366 . S
C9624 C9628 1.385 . S
C9625 H9600 0.951 . S
C9625 C9623 1.388 . S
C9625 C9626 1.366 . S
C9626 C9625 1.366 . S
C9626 C9627 1.414 . S
C9626 C9629 1.499 . S
C9627 H9601 0.950 . S
C9627 C9626 1.414 . S
C9627 C9628 1.374 . S
C9628 H9602 0.950 . S
C9628 C9624 1.385 . S
C9628 C9627 1.374 . S
C9629 C9626 1.499 . S
C9629 C9630 1.373 . S
C9629 C9631 1.389 . S
C9630 H9603 0.950 . S
C9630 C9616 1.377 1_556 S
C9630 C9629 1.373 . S
C9631 C9615 1.377 1_556 S
C9631 C9629 1.389 . S
C9631 C9632 1.524 . S
C9632 C9631 1.524 . S
C9632 C9633 1.397 . S
C9632 C9637 1.363 . S
C9633 H9604 0.950 . S
C9633 C9632 1.397 . S
C9633 C9634 1.334 . S
C9634 H9605 0.950 . S
C9634 C9633 1.334 . S
C9634 C9635 1.287 . S
C9635 C9634 1.287 . S
C9635 C9636 1.524 . S
C9635 H9638 0.999 . S
C9636 H9606 0.950 . S
C9636 C9635 1.524 . S
C9636 C9637 1.415 . S
C9637 H9607 0.950 . S
C9637 C9632 1.363 . S
C9637 C9636 1.415 . S
H9638 C9635 0.999 . S
H9639 C9620 0.913 . S
H9640 C9658 0.951 . S
H9641 C9660 0.951 . S
H9642 C9662 0.950 . S
H9643 C9663 0.950 . S
H9644 C9665 0.950 . S
H9645 C9668 0.950 . S
H9646 C9669 0.950 . S
H9647 C9671 0.950 . S
H9648 C9672 0.950 . S
H9649 C9673 0.951 . S
H9650 C9675 0.951 . S
H9651 C9677 0.950 . S
H9652 C9678 0.950 . S
H9653 C9680 0.950 . S
H9654 C9683 0.950 . S
H9655 C9684 0.950 . S
H9656 C9686 0.950 . S
H9657 C9687 0.950 . S
C9658 H9640 0.951 . S
C9658 C9659 1.366 . S
C9658 C9660 1.388 . S
C9659 C9658 1.366 . S
C9659 C9663 1.385 . S
C9660 H9641 0.951 . S
C9660 C9658 1.388 . S
C9660 C9661 1.366 . S
C9661 C9660 1.366 . S
C9661 C9662 1.414 . S
C9661 C9664 1.499 . S
C9662 H9642 0.950 . S
C9662 C9661 1.414 . S
C9662 C9663 1.374 . S
C9663 H9643 0.950 . S
C9663 C9659 1.385 . S
C9663 C9662 1.374 . S
C9664 C9661 1.499 . S
C9664 C9665 1.373 . S
C9664 C9666 1.389 . S
C9665 H9644 0.950 . S
C9665 C9664 1.373 . S
C9665 C9681 1.377 1_556 S
C9666 C9664 1.389 . S
C9666 C9667 1.524 . S
C9666 C9680 1.377 1_556 S
C9667 C9666 1.524 . S
C9667 C9668 1.397 . S
C9667 C9672 1.363 . S
C9668 H9645 0.950 . S
C9668 C9667 1.397 . S
C9668 C9669 1.334 . S
C9669 H9646 0.950 . S
C9669 C9668 1.334 . S
C9669 C9670 1.287 . S
C9670 C9669 1.287 . S
C9670 C9671 1.524 . S
C9670 H9689 0.913 . S
C9671 H9647 0.950 . S
C9671 C9670 1.524 . S
C9671 C9672 1.415 . S
C9672 H9648 0.950 . S
C9672 C9667 1.363 . S
C9672 C9671 1.415 . S
C9673 H9649 0.951 . S
C9673 C9674 1.366 . S
C9673 C9675 1.388 . S
C9674 C9673 1.366 . S
C9674 C9678 1.385 . S
C9675 H9650 0.951 . S
C9675 C9673 1.388 . S
C9675 C9676 1.366 . S
C9676 C9675 1.366 . S
C9676 C9677 1.414 . S
C9676 C9679 1.499 . S
C9677 H9651 0.950 . S
C9677 C9676 1.414 . S
C9677 C9678 1.374 . S
C9678 H9652 0.950 . S
C9678 C9674 1.385 . S
C9678 C9677 1.374 . S
C9679 C9676 1.499 . S
C9679 C9680 1.373 . S
C9679 C9681 1.389 . S
C9680 H9653 0.950 . S
C9680 C9666 1.377 1_554 S
C9680 C9679 1.373 . S
C9681 C9665 1.377 1_554 S
C9681 C9679 1.389 . S
C9681 C9682 1.524 . S
C9682 C9681 1.524 . S
C9682 C9683 1.397 . S
C9682 C9687 1.363 . S
C9683 H9654 0.950 . S
C9683 C9682 1.397 . S
C9683 C9684 1.334 . S
C9684 H9655 0.950 . S
C9684 C9683 1.334 . S
C9684 C9685 1.287 . S
C9685 C9684 1.287 . S
C9685 C9686 1.524 . S
C9685 H9688 0.999 . S
C9686 H9656 0.950 . S
C9686 C9685 1.524 . S
C9686 C9687 1.415 . S
C9687 H9657 0.950 . S
C9687 C9682 1.363 . S
C9687 C9686 1.415 . S
H9688 C9685 0.999 . S
H9689 C9670 0.913 . S
H9690 C9708 0.951 . S
H9691 C9710 0.951 . S
H9692 C9712 0.950 . S
H9693 C9713 0.950 . S
H9694 C9715 0.950 . S
H9695 C9718 0.950 . S
H9696 C9719 0.950 . S
H9697 C9721 0.950 . S
H9698 C9722 0.950 . S
H9699 C9723 0.951 . S
H9700 C9725 0.951 . S
H9701 C9727 0.950 . S
H9702 C9728 0.950 . S
H9703 C9730 0.950 . S
H9704 C9733 0.950 . S
H9705 C9734 0.950 . S
H9706 C9736 0.950 . S
H9707 C9737 0.950 . S
C9708 H9690 0.951 . S
C9708 C9709 1.366 . S
C9708 C9710 1.388 . S
C9709 C9708 1.366 . S
C9709 C9713 1.385 . S
C9710 H9691 0.951 . S
C9710 C9708 1.388 . S
C9710 C9711 1.366 . S
C9711 C9710 1.366 . S
C9711 C9712 1.414 . S
C9711 C9714 1.499 . S
C9712 H9692 0.950 . S
C9712 C9711 1.414 . S
C9712 C9713 1.374 . S
C9713 H9693 0.950 . S
C9713 C9709 1.385 . S
C9713 C9712 1.374 . S
C9714 C9711 1.499 . S
C9714 C9715 1.373 . S
C9714 C9716 1.389 . S
C9715 H9694 0.950 . S
C9715 C9714 1.373 . S
C9715 C9731 1.377 1_556 S
C9716 C9714 1.389 . S
C9716 C9717 1.524 . S
C9716 C9730 1.377 1_556 S
C9717 C9716 1.524 . S
C9717 C9718 1.397 . S
C9717 C9722 1.363 . S
C9718 H9695 0.950 . S
C9718 C9717 1.397 . S
C9718 C9719 1.334 . S
C9719 H9696 0.950 . S
C9719 C9718 1.334 . S
C9719 C9720 1.287 . S
C9720 C9719 1.287 . S
C9720 C9721 1.524 . S
C9720 H9739 0.913 . S
C9721 H9697 0.950 . S
C9721 C9720 1.524 . S
C9721 C9722 1.415 . S
C9722 H9698 0.950 . S
C9722 C9717 1.363 . S
C9722 C9721 1.415 . S
C9723 H9699 0.951 . S
C9723 C9724 1.366 . S
C9723 C9725 1.388 . S
C9724 C9723 1.366 . S
C9724 C9728 1.385 . S
C9725 H9700 0.951 . S
C9725 C9723 1.388 . S
C9725 C9726 1.366 . S
C9726 C9725 1.366 . S
C9726 C9727 1.414 . S
C9726 C9729 1.499 . S
C9727 H9701 0.950 . S
C9727 C9726 1.414 . S
C9727 C9728 1.374 . S
C9728 H9702 0.950 . S
C9728 C9724 1.385 . S
C9728 C9727 1.374 . S
C9729 C9726 1.499 . S
C9729 C9730 1.373 . S
C9729 C9731 1.389 . S
C9730 H9703 0.950 . S
C9730 C9716 1.377 1_554 S
C9730 C9729 1.373 . S
C9731 C9715 1.377 1_554 S
C9731 C9729 1.389 . S
C9731 C9732 1.524 . S
C9732 C9731 1.524 . S
C9732 C9733 1.397 . S
C9732 C9737 1.363 . S
C9733 H9704 0.950 . S
C9733 C9732 1.397 . S
C9733 C9734 1.334 . S
C9734 H9705 0.950 . S
C9734 C9733 1.334 . S
C9734 C9735 1.287 . S
C9735 C9734 1.287 . S
C9735 C9736 1.524 . S
C9735 H9738 0.999 . S
C9736 H9706 0.950 . S
C9736 C9735 1.524 . S
C9736 C9737 1.415 . S
C9737 H9707 0.950 . S
C9737 C9732 1.363 . S
C9737 C9736 1.415 . S
H9738 C9735 0.999 . S
H9739 C9720 0.913 . S
H9740 C9758 0.951 . S
H9741 C9760 0.951 . S
H9742 C9762 0.950 . S
H9743 C9763 0.950 . S
H9744 C9765 0.950 . S
H9745 C9768 0.950 . S
H9746 C9769 0.950 . S
H9747 C9771 0.950 . S
H9748 C9772 0.950 . S
H9749 C9773 0.951 . S
H9750 C9775 0.951 . S
H9751 C9777 0.950 . S
H9752 C9778 0.950 . S
H9753 C9780 0.950 . S
H9754 C9783 0.950 . S
H9755 C9784 0.950 . S
H9756 C9786 0.950 . S
H9757 C9787 0.950 . S
C9758 H9740 0.951 . S
C9758 C9759 1.366 . S
C9758 C9760 1.388 . S
C9759 C9758 1.366 . S
C9759 C9763 1.385 . S
C9760 H9741 0.951 . S
C9760 C9758 1.388 . S
C9760 C9761 1.366 . S
C9761 C9760 1.366 . S
C9761 C9762 1.414 . S
C9761 C9764 1.499 . S
C9762 H9742 0.950 . S
C9762 C9761 1.414 . S
C9762 C9763 1.374 . S
C9763 H9743 0.950 . S
C9763 C9759 1.385 . S
C9763 C9762 1.374 . S
C9764 C9761 1.499 . S
C9764 C9765 1.373 . S
C9764 C9766 1.389 . S
C9765 H9744 0.950 . S
C9765 C9764 1.373 . S
C9765 C9781 1.377 1_556 S
C9766 C9764 1.389 . S
C9766 C9767 1.524 . S
C9766 C9780 1.377 1_556 S
C9767 C9766 1.524 . S
C9767 C9768 1.397 . S
C9767 C9772 1.363 . S
C9768 H9745 0.950 . S
C9768 C9767 1.397 . S
C9768 C9769 1.334 . S
C9769 H9746 0.950 . S
C9769 C9768 1.334 . S
C9769 C9770 1.287 . S
C9770 C9769 1.287 . S
C9770 C9771 1.524 . S
C9770 H9789 0.913 . S
C9771 H9747 0.950 . S
C9771 C9770 1.524 . S
C9771 C9772 1.415 . S
C9772 H9748 0.950 . S
C9772 C9767 1.363 . S
C9772 C9771 1.415 . S
C9773 H9749 0.951 . S
C9773 C9774 1.366 . S
C9773 C9775 1.388 . S
C9774 C9773 1.366 . S
C9774 C9778 1.385 . S
C9775 H9750 0.951 . S
C9775 C9773 1.388 . S
C9775 C9776 1.366 . S
C9776 C9775 1.366 . S
C9776 C9777 1.414 . S
C9776 C9779 1.499 . S
C9777 H9751 0.950 . S
C9777 C9776 1.414 . S
C9777 C9778 1.374 . S
C9778 H9752 0.950 . S
C9778 C9774 1.385 . S
C9778 C9777 1.374 . S
C9779 C9776 1.499 . S
C9779 C9780 1.373 . S
C9779 C9781 1.389 . S
C9780 H9753 0.950 . S
C9780 C9766 1.377 1_554 S
C9780 C9779 1.373 . S
C9781 C9765 1.377 1_554 S
C9781 C9779 1.389 . S
C9781 C9782 1.524 . S
C9782 C9781 1.524 . S
C9782 C9783 1.397 . S
C9782 C9787 1.363 . S
C9783 H9754 0.950 . S
C9783 C9782 1.397 . S
C9783 C9784 1.334 . S
C9784 H9755 0.950 . S
C9784 C9783 1.334 . S
C9784 C9785 1.287 . S
C9785 C9784 1.287 . S
C9785 C9786 1.524 . S
C9785 H9788 0.999 . S
C9786 H9756 0.950 . S
C9786 C9785 1.524 . S
C9786 C9787 1.415 . S
C9787 H9757 0.950 . S
C9787 C9782 1.363 . S
C9787 C9786 1.415 . S
H9788 C9785 0.999 . S
H9789 C9770 0.913 . S
H9790 C9808 0.951 . S
H9791 C9810 0.951 . S
H9792 C9812 0.950 . S
H9793 C9813 0.950 . S
H9794 C9815 0.950 . S
H9795 C9818 0.950 . S
H9796 C9819 0.950 . S
H9797 C9821 0.950 . S
H9798 C9822 0.950 . S
H9799 C9823 0.951 . S
H9800 C9825 0.951 . S
H9801 C9827 0.950 . S
H9802 C9828 0.950 . S
H9803 C9830 0.950 . S
H9804 C9833 0.950 . S
H9805 C9834 0.950 . S
H9806 C9836 0.950 . S
H9807 C9837 0.950 . S
C9808 H9790 0.951 . S
C9808 C9809 1.366 . S
C9808 C9810 1.388 . S
C9809 C9808 1.366 . S
C9809 C9813 1.385 . S
C9810 H9791 0.951 . S
C9810 C9808 1.388 . S
C9810 C9811 1.366 . S
C9811 C9810 1.366 . S
C9811 C9812 1.414 . S
C9811 C9814 1.499 . S
C9812 H9792 0.950 . S
C9812 C9811 1.414 . S
C9812 C9813 1.374 . S
C9813 H9793 0.950 . S
C9813 C9809 1.385 . S
C9813 C9812 1.374 . S
C9814 C9811 1.499 . S
C9814 C9815 1.373 . S
C9814 C9816 1.389 . S
C9815 H9794 0.950 . S
C9815 C9814 1.373 . S
C9815 C9831 1.377 1_556 S
C9816 C9814 1.389 . S
C9816 C9817 1.524 . S
C9816 C9830 1.377 1_556 S
C9817 C9816 1.524 . S
C9817 C9818 1.397 . S
C9817 C9822 1.363 . S
C9818 H9795 0.950 . S
C9818 C9817 1.397 . S
C9818 C9819 1.334 . S
C9819 H9796 0.950 . S
C9819 C9818 1.334 . S
C9819 C9820 1.287 . S
C9820 C9819 1.287 . S
C9820 C9821 1.524 . S
C9820 H9839 0.913 . S
C9821 H9797 0.950 . S
C9821 C9820 1.524 . S
C9821 C9822 1.415 . S
C9822 H9798 0.950 . S
C9822 C9817 1.363 . S
C9822 C9821 1.415 . S
C9823 H9799 0.951 . S
C9823 C9824 1.366 . S
C9823 C9825 1.388 . S
C9824 C9823 1.366 . S
C9824 C9828 1.385 . S
C9825 H9800 0.951 . S
C9825 C9823 1.388 . S
C9825 C9826 1.366 . S
C9826 C9825 1.366 . S
C9826 C9827 1.414 . S
C9826 C9829 1.499 . S
C9827 H9801 0.950 . S
C9827 C9826 1.414 . S
C9827 C9828 1.374 . S
C9828 H9802 0.950 . S
C9828 C9824 1.385 . S
C9828 C9827 1.374 . S
C9829 C9826 1.499 . S
C9829 C9830 1.373 . S
C9829 C9831 1.389 . S
C9830 H9803 0.950 . S
C9830 C9816 1.377 1_554 S
C9830 C9829 1.373 . S
C9831 C9815 1.377 1_554 S
C9831 C9829 1.389 . S
C9831 C9832 1.524 . S
C9832 C9831 1.524 . S
C9832 C9833 1.397 . S
C9832 C9837 1.363 . S
C9833 H9804 0.950 . S
C9833 C9832 1.397 . S
C9833 C9834 1.334 . S
C9834 H9805 0.950 . S
C9834 C9833 1.334 . S
C9834 C9835 1.287 . S
C9835 C9834 1.287 . S
C9835 C9836 1.524 . S
C9835 H9838 0.999 . S
C9836 H9806 0.950 . S
C9836 C9835 1.524 . S
C9836 C9837 1.415 . S
C9837 H9807 0.950 . S
C9837 C9832 1.363 . S
C9837 C9836 1.415 . S
H9838 C9835 0.999 . S
H9839 C9820 0.913 . S
H9840 C9858 0.951 . S
H9841 C9860 0.951 . S
H9842 C9862 0.950 . S
H9843 C9863 0.950 . S
H9844 C9865 0.950 . S
H9845 C9868 0.950 . S
H9846 C9869 0.950 . S
H9847 C9871 0.950 . S
H9848 C9872 0.950 . S
H9849 C9873 0.951 . S
H9850 C9875 0.951 . S
H9851 C9877 0.950 . S
H9852 C9878 0.950 . S
H9853 C9880 0.950 . S
H9854 C9883 0.950 . S
H9855 C9884 0.950 . S
H9856 C9886 0.950 . S
H9857 C9887 0.950 . S
C9858 H9840 0.951 . S
C9858 C9859 1.366 . S
C9858 C9860 1.388 . S
C9859 C9858 1.366 . S
C9859 C9863 1.385 . S
C9860 H9841 0.951 . S
C9860 C9858 1.388 . S
C9860 C9861 1.366 . S
C9861 C9860 1.366 . S
C9861 C9862 1.414 . S
C9861 C9864 1.499 . S
C9862 H9842 0.950 . S
C9862 C9861 1.414 . S
C9862 C9863 1.374 . S
C9863 H9843 0.950 . S
C9863 C9859 1.385 . S
C9863 C9862 1.374 . S
C9864 C9861 1.499 . S
C9864 C9865 1.373 . S
C9864 C9866 1.389 . S
C9865 H9844 0.950 . S
C9865 C9864 1.373 . S
C9865 C9881 1.377 . S
C9866 C9864 1.389 . S
C9866 C9867 1.524 . S
C9866 C9880 1.377 . S
C9867 C9866 1.524 . S
C9867 C9868 1.397 . S
C9867 C9872 1.363 . S
C9868 H9845 0.950 . S
C9868 C9867 1.397 . S
C9868 C9869 1.334 . S
C9869 H9846 0.950 . S
C9869 C9868 1.334 . S
C9869 C9870 1.287 . S
C9870 C9869 1.287 . S
C9870 C9871 1.524 . S
C9870 H9889 0.913 . S
C9871 H9847 0.950 . S
C9871 C9870 1.524 . S
C9871 C9872 1.415 . S
C9872 H9848 0.950 . S
C9872 C9867 1.363 . S
C9872 C9871 1.415 . S
C9873 H9849 0.951 . S
C9873 C9874 1.366 . S
C9873 C9875 1.388 . S
C9874 C9873 1.366 . S
C9874 C9878 1.385 . S
C9875 H9850 0.951 . S
C9875 C9873 1.388 . S
C9875 C9876 1.366 . S
C9876 C9875 1.366 . S
C9876 C9877 1.414 . S
C9876 C9879 1.499 . S
C9877 H9851 0.950 . S
C9877 C9876 1.414 . S
C9877 C9878 1.374 . S
C9878 H9852 0.950 . S
C9878 C9874 1.385 . S
C9878 C9877 1.374 . S
C9879 C9876 1.499 . S
C9879 C9880 1.373 . S
C9879 C9881 1.389 . S
C9880 H9853 0.950 . S
C9880 C9866 1.377 . S
C9880 C9879 1.373 . S
C9881 C9865 1.377 . S
C9881 C9879 1.389 . S
C9881 C9882 1.524 . S
C9882 C9881 1.524 . S
C9882 C9883 1.397 . S
C9882 C9887 1.363 . S
C9883 H9854 0.950 . S
C9883 C9882 1.397 . S
C9883 C9884 1.334 . S
C9884 H9855 0.950 . S
C9884 C9883 1.334 . S
C9884 C9885 1.287 . S
C9885 C9884 1.287 . S
C9885 C9886 1.524 . S
C9885 H9888 0.999 . S
C9886 H9856 0.950 . S
C9886 C9885 1.524 . S
C9886 C9887 1.415 . S
C9887 H9857 0.950 . S
C9887 C9882 1.363 . S
C9887 C9886 1.415 . S
H9888 C9885 0.999 . S
H9889 C9870 0.913 . S
H9890 C9908 0.951 . S
H9891 C9910 0.951 . S
H9892 C9912 0.950 . S
H9893 C9913 0.950 . S
H9894 C9915 0.950 . S
H9895 C9918 0.950 . S
H9896 C9919 0.950 . S
H9897 C9921 0.950 . S
H9898 C9922 0.950 . S
H9899 C9923 0.951 . S
H9900 C9925 0.951 . S
H9901 C9927 0.950 . S
H9902 C9928 0.950 . S
H9903 C9930 0.950 . S
H9904 C9933 0.950 . S
H9905 C9934 0.950 . S
H9906 C9936 0.950 . S
H9907 C9937 0.950 . S
C9908 H9890 0.951 . S
C9908 C9909 1.366 . S
C9908 C9910 1.388 . S
C9909 C9908 1.366 . S
C9909 C9913 1.385 . S
C9910 H9891 0.951 . S
C9910 C9908 1.388 . S
C9910 C9911 1.366 . S
C9911 C9910 1.366 . S
C9911 C9912 1.414 . S
C9911 C9914 1.499 . S
C9912 H9892 0.950 . S
C9912 C9911 1.414 . S
C9912 C9913 1.374 . S
C9913 H9893 0.950 . S
C9913 C9909 1.385 . S
C9913 C9912 1.374 . S
C9914 C9911 1.499 . S
C9914 C9915 1.373 . S
C9914 C9916 1.389 . S
C9915 H9894 0.950 . S
C9915 C9914 1.373 . S
C9915 C9931 1.377 . S
C9916 C9914 1.389 . S
C9916 C9917 1.524 . S
C9916 C9930 1.377 . S
C9917 C9916 1.524 . S
C9917 C9918 1.397 . S
C9917 C9922 1.363 . S
C9918 H9895 0.950 . S
C9918 C9917 1.397 . S
C9918 C9919 1.334 . S
C9919 H9896 0.950 . S
C9919 C9918 1.334 . S
C9919 C9920 1.287 . S
C9920 C9919 1.287 . S
C9920 C9921 1.524 . S
C9920 H9939 0.913 . S
C9921 H9897 0.950 . S
C9921 C9920 1.524 . S
C9921 C9922 1.415 . S
C9922 H9898 0.950 . S
C9922 C9917 1.363 . S
C9922 C9921 1.415 . S
C9923 H9899 0.951 . S
C9923 C9924 1.366 . S
C9923 C9925 1.388 . S
C9924 C9923 1.366 . S
C9924 C9928 1.385 . S
C9925 H9900 0.951 . S
C9925 C9923 1.388 . S
C9925 C9926 1.366 . S
C9926 C9925 1.366 . S
C9926 C9927 1.414 . S
C9926 C9929 1.499 . S
C9927 H9901 0.950 . S
C9927 C9926 1.414 . S
C9927 C9928 1.374 . S
C9928 H9902 0.950 . S
C9928 C9924 1.385 . S
C9928 C9927 1.374 . S
C9929 C9926 1.499 . S
C9929 C9930 1.373 . S
C9929 C9931 1.389 . S
C9930 H9903 0.950 . S
C9930 C9916 1.377 . S
C9930 C9929 1.373 . S
C9931 C9915 1.377 . S
C9931 C9929 1.389 . S
C9931 C9932 1.524 . S
C9932 C9931 1.524 . S
C9932 C9933 1.397 . S
C9932 C9937 1.363 . S
C9933 H9904 0.950 . S
C9933 C9932 1.397 . S
C9933 C9934 1.334 . S
C9934 H9905 0.950 . S
C9934 C9933 1.334 . S
C9934 C9935 1.287 . S
C9935 C9934 1.287 . S
C9935 C9936 1.524 . S
C9935 H9938 0.999 . S
C9936 H9906 0.950 . S
C9936 C9935 1.524 . S
C9936 C9937 1.415 . S
C9937 H9907 0.950 . S
C9937 C9932 1.363 . S
C9937 C9936 1.415 . S
H9938 C9935 0.999 . S
H9939 C9920 0.913 . S
H9940 C9958 0.951 . S
H9941 C9960 0.951 . S
H9942 C9962 0.950 . S
H9943 C9963 0.950 . S
H9944 C9965 0.950 . S
H9945 C9968 0.950 . S
H9946 C9969 0.950 . S
H9947 C9971 0.950 . S
H9948 C9972 0.950 . S
H9949 C9973 0.951 . S
H9950 C9975 0.951 . S
H9951 C9977 0.950 . S
H9952 C9978 0.950 . S
H9953 C9980 0.950 . S
H9954 C9983 0.950 . S
H9955 C9984 0.950 . S
H9956 C9986 0.950 . S
H9957 C9987 0.950 . S
C9958 H9940 0.951 . S
C9958 C9959 1.366 . S
C9958 C9960 1.388 . S
C9959 C9958 1.366 . S
C9959 C9963 1.385 . S
C9960 H9941 0.951 . S
C9960 C9958 1.388 . S
C9960 C9961 1.366 . S
C9961 C9960 1.366 . S
C9961 C9962 1.414 . S
C9961 C9964 1.499 . S
C9962 H9942 0.950 . S
C9962 C9961 1.414 . S
C9962 C9963 1.374 . S
C9963 H9943 0.950 . S
C9963 C9959 1.385 . S
C9963 C9962 1.374 . S
C9964 C9961 1.499 . S
C9964 C9965 1.373 . S
C9964 C9966 1.389 . S
C9965 H9944 0.950 . S
C9965 C9964 1.373 . S
C9965 C9981 1.377 . S
C9966 C9964 1.389 . S
C9966 C9967 1.524 . S
C9966 C9980 1.377 . S
C9967 C9966 1.524 . S
C9967 C9968 1.397 . S
C9967 C9972 1.363 . S
C9968 H9945 0.950 . S
C9968 C9967 1.397 . S
C9968 C9969 1.334 . S
C9969 H9946 0.950 . S
C9969 C9968 1.334 . S
C9969 C9970 1.287 . S
C9970 C9969 1.287 . S
C9970 C9971 1.524 . S
C9970 H9989 0.913 . S
C9971 H9947 0.950 . S
C9971 C9970 1.524 . S
C9971 C9972 1.415 . S
C9972 H9948 0.950 . S
C9972 C9967 1.363 . S
C9972 C9971 1.415 . S
C9973 H9949 0.951 . S
C9973 C9974 1.366 . S
C9973 C9975 1.388 . S
C9974 C9973 1.366 . S
C9974 C9978 1.385 . S
C9975 H9950 0.951 . S
C9975 C9973 1.388 . S
C9975 C9976 1.366 . S
C9976 C9975 1.366 . S
C9976 C9977 1.414 . S
C9976 C9979 1.499 . S
C9977 H9951 0.950 . S
C9977 C9976 1.414 . S
C9977 C9978 1.374 . S
C9978 H9952 0.950 . S
C9978 C9974 1.385 . S
C9978 C9977 1.374 . S
C9979 C9976 1.499 . S
C9979 C9980 1.373 . S
C9979 C9981 1.389 . S
C9980 H9953 0.950 . S
C9980 C9966 1.377 . S
C9980 C9979 1.373 . S
C9981 C9965 1.377 . S
C9981 C9979 1.389 . S
C9981 C9982 1.524 . S
C9982 C9981 1.524 . S
C9982 C9983 1.397 . S
C9982 C9987 1.363 . S
C9983 H9954 0.950 . S
C9983 C9982 1.397 . S
C9983 C9984 1.334 . S
C9984 H9955 0.950 . S
C9984 C9983 1.334 . S
C9984 C9985 1.287 . S
C9985 C9984 1.287 . S
C9985 C9986 1.524 . S
C9985 H9988 0.999 . S
C9986 H9956 0.950 . S
C9986 C9985 1.524 . S
C9986 C9987 1.415 . S
C9987 H9957 0.950 . S
C9987 C9982 1.363 . S
C9987 C9986 1.415 . S
H9988 C9985 0.999 . S
H9989 C9970 0.913 . S
H9990 C10008 0.951 . S
H9991 C10010 0.951 . S
H9992 C10012 0.950 . S
H9993 C10013 0.950 . S
H9994 C10015 0.950 . S
H9995 C10018 0.950 . S
H9996 C10019 0.950 . S
H9997 C10021 0.950 . S
H9998 C10022 0.950 . S
H9999 C10023 0.951 . S
H10000 C10025 0.951 . S
H10001 C10027 0.950 . S
H10002 C10028 0.950 . S
H10003 C10030 0.950 . S
H10004 C10033 0.950 . S
H10005 C10034 0.950 . S
H10006 C10036 0.950 . S
H10007 C10037 0.950 . S
C10008 H9990 0.951 . S
C10008 C10009 1.366 . S
C10008 C10010 1.388 . S
C10009 C10008 1.366 . S
C10009 C10013 1.385 . S
C10010 H9991 0.951 . S
C10010 C10008 1.388 . S
C10010 C10011 1.366 . S
C10011 C10010 1.366 . S
C10011 C10012 1.414 . S
C10011 C10014 1.499 . S
C10012 H9992 0.950 . S
C10012 C10011 1.414 . S
C10012 C10013 1.374 . S
C10013 H9993 0.950 . S
C10013 C10009 1.385 . S
C10013 C10012 1.374 . S
C10014 C10011 1.499 . S
C10014 C10015 1.373 . S
C10014 C10016 1.389 . S
C10015 H9994 0.950 . S
C10015 C10014 1.373 . S
C10015 C10031 1.377 . S
C10016 C10014 1.389 . S
C10016 C10017 1.524 . S
C10016 C10030 1.377 . S
C10017 C10016 1.524 . S
C10017 C10018 1.397 . S
C10017 C10022 1.363 . S
C10018 H9995 0.950 . S
C10018 C10017 1.397 . S
C10018 C10019 1.334 . S
C10019 H9996 0.950 . S
C10019 C10018 1.334 . S
C10019 C10020 1.287 . S
C10020 C10019 1.287 . S
C10020 C10021 1.524 . S
C10020 H10039 0.913 . S
C10021 H9997 0.950 . S
C10021 C10020 1.524 . S
C10021 C10022 1.415 . S
C10022 H9998 0.950 . S
C10022 C10017 1.363 . S
C10022 C10021 1.415 . S
C10023 H9999 0.951 . S
C10023 C10024 1.366 . S
C10023 C10025 1.388 . S
C10024 C10023 1.366 . S
C10024 C10028 1.385 . S
C10025 H10000 0.951 . S
C10025 C10023 1.388 . S
C10025 C10026 1.366 . S
C10026 C10025 1.366 . S
C10026 C10027 1.414 . S
C10026 C10029 1.499 . S
C10027 H10001 0.950 . S
C10027 C10026 1.414 . S
C10027 C10028 1.374 . S
C10028 H10002 0.950 . S
C10028 C10024 1.385 . S
C10028 C10027 1.374 . S
C10029 C10026 1.499 . S
C10029 C10030 1.373 . S
C10029 C10031 1.389 . S
C10030 H10003 0.950 . S
C10030 C10016 1.377 . S
C10030 C10029 1.373 . S
C10031 C10015 1.377 . S
C10031 C10029 1.389 . S
C10031 C10032 1.524 . S
C10032 C10031 1.524 . S
C10032 C10033 1.397 . S
C10032 C10037 1.363 . S
C10033 H10004 0.950 . S
C10033 C10032 1.397 . S
C10033 C10034 1.334 . S
C10034 H10005 0.950 . S
C10034 C10033 1.334 . S
C10034 C10035 1.287 . S
C10035 C10034 1.287 . S
C10035 C10036 1.524 . S
C10035 H10038 0.999 . S
C10036 H10006 0.950 . S
C10036 C10035 1.524 . S
C10036 C10037 1.415 . S
C10037 H10007 0.950 . S
C10037 C10032 1.363 . S
C10037 C10036 1.415 . S
H10038 C10035 0.999 . S
H10039 C10020 0.913 . S
H10040 C10058 0.951 . S
H10041 C10060 0.951 . S
H10042 C10062 0.950 . S
H10043 C10063 0.950 . S
H10044 C10065 0.950 . S
H10045 C10068 0.950 . S
H10046 C10069 0.950 . S
H10047 C10071 0.950 . S
H10048 C10072 0.950 . S
H10049 C10073 0.951 . S
H10050 C10075 0.951 . S
H10051 C10077 0.950 . S
H10052 C10078 0.950 . S
H10053 C10080 0.950 . S
H10054 C10083 0.950 . S
H10055 C10084 0.950 . S
H10056 C10086 0.950 . S
H10057 C10087 0.950 . S
C10058 H10040 0.951 . S
C10058 C10059 1.366 . S
C10058 C10060 1.388 . S
C10059 C10058 1.366 . S
C10059 C10063 1.385 . S
C10060 H10041 0.951 . S
C10060 C10058 1.388 . S
C10060 C10061 1.366 . S
C10061 C10060 1.366 . S
C10061 C10062 1.414 . S
C10061 C10064 1.499 . S
C10062 H10042 0.950 . S
C10062 C10061 1.414 . S
C10062 C10063 1.374 . S
C10063 H10043 0.950 . S
C10063 C10059 1.385 . S
C10063 C10062 1.374 . S
C10064 C10061 1.499 . S
C10064 C10065 1.373 . S
C10064 C10066 1.389 . S
C10065 H10044 0.950 . S
C10065 C10064 1.373 . S
C10065 C10081 1.377 . S
C10066 C10064 1.389 . S
C10066 C10067 1.524 . S
C10066 C10080 1.377 . S
C10067 C10066 1.524 . S
C10067 C10068 1.397 . S
C10067 C10072 1.363 . S
C10068 H10045 0.950 . S
C10068 C10067 1.397 . S
C10068 C10069 1.334 . S
C10069 H10046 0.950 . S
C10069 C10068 1.334 . S
C10069 C10070 1.287 . S
C10070 C10069 1.287 . S
C10070 C10071 1.524 . S
C10070 H10089 0.913 . S
C10071 H10047 0.950 . S
C10071 C10070 1.524 . S
C10071 C10072 1.415 . S
C10072 H10048 0.950 . S
C10072 C10067 1.363 . S
C10072 C10071 1.415 . S
C10073 H10049 0.951 . S
C10073 C10074 1.366 . S
C10073 C10075 1.388 . S
C10074 C10073 1.366 . S
C10074 C10078 1.385 . S
C10075 H10050 0.951 . S
C10075 C10073 1.388 . S
C10075 C10076 1.366 . S
C10076 C10075 1.366 . S
C10076 C10077 1.414 . S
C10076 C10079 1.499 . S
C10077 H10051 0.950 . S
C10077 C10076 1.414 . S
C10077 C10078 1.374 . S
C10078 H10052 0.950 . S
C10078 C10074 1.385 . S
C10078 C10077 1.374 . S
C10079 C10076 1.499 . S
C10079 C10080 1.373 . S
C10079 C10081 1.389 . S
C10080 H10053 0.950 . S
C10080 C10066 1.377 . S
C10080 C10079 1.373 . S
C10081 C10065 1.377 . S
C10081 C10079 1.389 . S
C10081 C10082 1.524 . S
C10082 C10081 1.524 . S
C10082 C10083 1.397 . S
C10082 C10087 1.363 . S
C10083 H10054 0.950 . S
C10083 C10082 1.397 . S
C10083 C10084 1.334 . S
C10084 H10055 0.950 . S
C10084 C10083 1.334 . S
C10084 C10085 1.287 . S
C10085 C10084 1.287 . S
C10085 C10086 1.524 . S
C10085 H10088 0.999 . S
C10086 H10056 0.950 . S
C10086 C10085 1.524 . S
C10086 C10087 1.415 . S
C10087 H10057 0.950 . S
C10087 C10082 1.363 . S
C10087 C10086 1.415 . S
H10088 C10085 0.999 . S
H10089 C10070 0.913 . S
H10090 C10108 0.951 . S
H10091 C10110 0.951 . S
H10092 C10112 0.950 . S
H10093 C10113 0.950 . S
H10094 C10115 0.950 . S
H10095 C10118 0.950 . S
H10096 C10119 0.950 . S
H10097 C10121 0.950 . S
H10098 C10122 0.950 . S
H10099 C10123 0.951 . S
H10100 C10125 0.951 . S
H10101 C10127 0.950 . S
H10102 C10128 0.950 . S
H10103 C10130 0.950 . S
H10104 C10133 0.950 . S
H10105 C10134 0.950 . S
H10106 C10136 0.950 . S
H10107 C10137 0.950 . S
C10108 H10090 0.951 . S
C10108 C10109 1.366 . S
C10108 C10110 1.388 . S
C10109 C10108 1.366 . S
C10109 C10113 1.385 . S
C10110 H10091 0.951 . S
C10110 C10108 1.388 . S
C10110 C10111 1.366 . S
C10111 C10110 1.366 . S
C10111 C10112 1.414 . S
C10111 C10114 1.499 . S
C10112 H10092 0.950 . S
C10112 C10111 1.414 . S
C10112 C10113 1.374 . S
C10113 H10093 0.950 . S
C10113 C10109 1.385 . S
C10113 C10112 1.374 . S
C10114 C10111 1.499 . S
C10114 C10115 1.373 . S
C10114 C10116 1.389 . S
C10115 H10094 0.950 . S
C10115 C10114 1.373 . S
C10115 C10131 1.377 . S
C10116 C10114 1.389 . S
C10116 C10117 1.524 . S
C10116 C10130 1.377 . S
C10117 C10116 1.524 . S
C10117 C10118 1.397 . S
C10117 C10122 1.363 . S
C10118 H10095 0.950 . S
C10118 C10117 1.397 . S
C10118 C10119 1.334 . S
C10119 H10096 0.950 . S
C10119 C10118 1.334 . S
C10119 C10120 1.287 . S
C10120 C10119 1.287 . S
C10120 C10121 1.524 . S
C10120 H10139 0.913 . S
C10121 H10097 0.950 . S
C10121 C10120 1.524 . S
C10121 C10122 1.415 . S
C10122 H10098 0.950 . S
C10122 C10117 1.363 . S
C10122 C10121 1.415 . S
C10123 H10099 0.951 . S
C10123 C10124 1.366 . S
C10123 C10125 1.388 . S
C10124 C10123 1.366 . S
C10124 C10128 1.385 . S
C10125 H10100 0.951 . S
C10125 C10123 1.388 . S
C10125 C10126 1.366 . S
C10126 C10125 1.366 . S
C10126 C10127 1.414 . S
C10126 C10129 1.499 . S
C10127 H10101 0.950 . S
C10127 C10126 1.414 . S
C10127 C10128 1.374 . S
C10128 H10102 0.950 . S
C10128 C10124 1.385 . S
C10128 C10127 1.374 . S
C10129 C10126 1.499 . S
C10129 C10130 1.373 . S
C10129 C10131 1.389 . S
C10130 H10103 0.950 . S
C10130 C10116 1.377 . S
C10130 C10129 1.373 . S
C10131 C10115 1.377 . S
C10131 C10129 1.389 . S
C10131 C10132 1.524 . S
C10132 C10131 1.524 . S
C10132 C10133 1.397 . S
C10132 C10137 1.363 . S
C10133 H10104 0.950 . S
C10133 C10132 1.397 . S
C10133 C10134 1.334 . S
C10134 H10105 0.950 . S
C10134 C10133 1.334 . S
C10134 C10135 1.287 . S
C10135 C10134 1.287 . S
C10135 C10136 1.524 . S
C10135 H10138 0.999 . S
C10136 H10106 0.950 . S
C10136 C10135 1.524 . S
C10136 C10137 1.415 . S
C10137 H10107 0.950 . S
C10137 C10132 1.363 . S
C10137 C10136 1.415 . S
H10138 C10135 0.999 . S
H10139 C10120 0.913 . S
H10140 C10158 0.951 . S
H10141 C10160 0.951 . S
H10142 C10162 0.950 . S
H10143 C10163 0.950 . S
H10144 C10165 0.950 . S
H10145 C10168 0.950 . S
H10146 C10169 0.950 . S
H10147 C10171 0.950 . S
H10148 C10172 0.950 . S
H10149 C10173 0.951 . S
H10150 C10175 0.951 . S
H10151 C10177 0.950 . S
H10152 C10178 0.950 . S
H10153 C10180 0.950 . S
H10154 C10183 0.950 . S
H10155 C10184 0.950 . S
H10156 C10186 0.950 . S
H10157 C10187 0.950 . S
C10158 H10140 0.951 . S
C10158 C10159 1.366 . S
C10158 C10160 1.388 . S
C10159 C10158 1.366 . S
C10159 C10163 1.385 . S
C10160 H10141 0.951 . S
C10160 C10158 1.388 . S
C10160 C10161 1.366 . S
C10161 C10160 1.366 . S
C10161 C10162 1.414 . S
C10161 C10164 1.499 . S
C10162 H10142 0.950 . S
C10162 C10161 1.414 . S
C10162 C10163 1.374 . S
C10163 H10143 0.950 . S
C10163 C10159 1.385 . S
C10163 C10162 1.374 . S
C10164 C10161 1.499 . S
C10164 C10165 1.373 . S
C10164 C10166 1.389 . S
C10165 H10144 0.950 . S
C10165 C10164 1.373 . S
C10165 C10181 1.377 . S
C10166 C10164 1.389 . S
C10166 C10167 1.524 . S
C10166 C10180 1.377 . S
C10167 C10166 1.524 . S
C10167 C10168 1.397 . S
C10167 C10172 1.363 . S
C10168 H10145 0.950 . S
C10168 C10167 1.397 . S
C10168 C10169 1.334 . S
C10169 H10146 0.950 . S
C10169 C10168 1.334 . S
C10169 C10170 1.287 . S
C10170 C10169 1.287 . S
C10170 C10171 1.524 . S
C10170 H10189 0.913 . S
C10171 H10147 0.950 . S
C10171 C10170 1.524 . S
C10171 C10172 1.415 . S
C10172 H10148 0.950 . S
C10172 C10167 1.363 . S
C10172 C10171 1.415 . S
C10173 H10149 0.951 . S
C10173 C10174 1.366 . S
C10173 C10175 1.388 . S
C10174 C10173 1.366 . S
C10174 C10178 1.385 . S
C10175 H10150 0.951 . S
C10175 C10173 1.388 . S
C10175 C10176 1.366 . S
C10176 C10175 1.366 . S
C10176 C10177 1.414 . S
C10176 C10179 1.499 . S
C10177 H10151 0.950 . S
C10177 C10176 1.414 . S
C10177 C10178 1.374 . S
C10178 H10152 0.950 . S
C10178 C10174 1.385 . S
C10178 C10177 1.374 . S
C10179 C10176 1.499 . S
C10179 C10180 1.373 . S
C10179 C10181 1.389 . S
C10180 H10153 0.950 . S
C10180 C10166 1.377 . S
C10180 C10179 1.373 . S
C10181 C10165 1.377 . S
C10181 C10179 1.389 . S
C10181 C10182 1.524 . S
C10182 C10181 1.524 . S
C10182 C10183 1.397 . S
C10182 C10187 1.363 . S
C10183 H10154 0.950 . S
C10183 C10182 1.397 . S
C10183 C10184 1.334 . S
C10184 H10155 0.950 . S
C10184 C10183 1.334 . S
C10184 C10185 1.287 . S
C10185 C10184 1.287 . S
C10185 C10186 1.524 . S
C10185 H10188 0.999 . S
C10186 H10156 0.950 . S
C10186 C10185 1.524 . S
C10186 C10187 1.415 . S
C10187 H10157 0.950 . S
C10187 C10182 1.363 . S
C10187 C10186 1.415 . S
H10188 C10185 0.999 . S
H10189 C10170 0.913 . S
H10190 C10208 0.951 . S
H10191 C10210 0.951 . S
H10192 C10212 0.950 . S
H10193 C10213 0.950 . S
H10194 C10215 0.950 . S
H10195 C10218 0.950 . S
H10196 C10219 0.950 . S
H10197 C10221 0.950 . S
H10198 C10222 0.950 . S
H10199 C10223 0.951 . S
H10200 C10225 0.951 . S
H10201 C10227 0.950 . S
H10202 C10228 0.950 . S
H10203 C10230 0.950 . S
H10204 C10233 0.950 . S
H10205 C10234 0.950 . S
H10206 C10236 0.950 . S
H10207 C10237 0.950 . S
C10208 H10190 0.951 . S
C10208 C10209 1.366 . S
C10208 C10210 1.388 . S
C10209 C10208 1.366 . S
C10209 C10213 1.385 . S
C10210 H10191 0.951 . S
C10210 C10208 1.388 . S
C10210 C10211 1.366 . S
C10211 C10210 1.366 . S
C10211 C10212 1.414 . S
C10211 C10214 1.499 . S
C10212 H10192 0.950 . S
C10212 C10211 1.414 . S
C10212 C10213 1.374 . S
C10213 H10193 0.950 . S
C10213 C10209 1.385 . S
C10213 C10212 1.374 . S
C10214 C10211 1.499 . S
C10214 C10215 1.373 . S
C10214 C10216 1.389 . S
C10215 H10194 0.950 . S
C10215 C10214 1.373 . S
C10215 C10231 1.377 . S
C10216 C10214 1.389 . S
C10216 C10217 1.524 . S
C10216 C10230 1.377 . S
C10217 C10216 1.524 . S
C10217 C10218 1.397 . S
C10217 C10222 1.363 . S
C10218 H10195 0.950 . S
C10218 C10217 1.397 . S
C10218 C10219 1.334 . S
C10219 H10196 0.950 . S
C10219 C10218 1.334 . S
C10219 C10220 1.287 . S
C10220 C10219 1.287 . S
C10220 C10221 1.524 . S
C10220 H10239 0.913 . S
C10221 H10197 0.950 . S
C10221 C10220 1.524 . S
C10221 C10222 1.415 . S
C10222 H10198 0.950 . S
C10222 C10217 1.363 . S
C10222 C10221 1.415 . S
C10223 H10199 0.951 . S
C10223 C10224 1.366 . S
C10223 C10225 1.388 . S
C10224 C10223 1.366 . S
C10224 C10228 1.385 . S
C10225 H10200 0.951 . S
C10225 C10223 1.388 . S
C10225 C10226 1.366 . S
C10226 C10225 1.366 . S
C10226 C10227 1.414 . S
C10226 C10229 1.499 . S
C10227 H10201 0.950 . S
C10227 C10226 1.414 . S
C10227 C10228 1.374 . S
C10228 H10202 0.950 . S
C10228 C10224 1.385 . S
C10228 C10227 1.374 . S
C10229 C10226 1.499 . S
C10229 C10230 1.373 . S
C10229 C10231 1.389 . S
C10230 H10203 0.950 . S
C10230 C10216 1.377 . S
C10230 C10229 1.373 . S
C10231 C10215 1.377 . S
C10231 C10229 1.389 . S
C10231 C10232 1.524 . S
C10232 C10231 1.524 . S
C10232 C10233 1.397 . S
C10232 C10237 1.363 . S
C10233 H10204 0.950 . S
C10233 C10232 1.397 . S
C10233 C10234 1.334 . S
C10234 H10205 0.950 . S
C10234 C10233 1.334 . S
C10234 C10235 1.287 . S
C10235 C10234 1.287 . S
C10235 C10236 1.524 . S
C10235 H10238 0.999 . S
C10236 H10206 0.950 . S
C10236 C10235 1.524 . S
C10236 C10237 1.415 . S
C10237 H10207 0.950 . S
C10237 C10232 1.363 . S
C10237 C10236 1.415 . S
H10238 C10235 0.999 . S
H10239 C10220 0.913 . S
H10240 C10258 0.951 . S
H10241 C10260 0.951 . S
H10242 C10262 0.950 . S
H10243 C10263 0.950 . S
H10244 C10265 0.950 . S
H10245 C10268 0.950 . S
H10246 C10269 0.950 . S
H10247 C10271 0.950 . S
H10248 C10272 0.950 . S
H10249 C10273 0.951 . S
H10250 C10275 0.951 . S
H10251 C10277 0.950 . S
H10252 C10278 0.950 . S
H10253 C10280 0.950 . S
H10254 C10283 0.950 . S
H10255 C10284 0.950 . S
H10256 C10286 0.950 . S
H10257 C10287 0.950 . S
C10258 H10240 0.951 . S
C10258 C10259 1.366 . S
C10258 C10260 1.388 . S
C10259 C10258 1.366 . S
C10259 C10263 1.385 . S
C10260 H10241 0.951 . S
C10260 C10258 1.388 . S
C10260 C10261 1.366 . S
C10261 C10260 1.366 . S
C10261 C10262 1.414 . S
C10261 C10264 1.499 . S
C10262 H10242 0.950 . S
C10262 C10261 1.414 . S
C10262 C10263 1.374 . S
C10263 H10243 0.950 . S
C10263 C10259 1.385 . S
C10263 C10262 1.374 . S
C10264 C10261 1.499 . S
C10264 C10265 1.373 . S
C10264 C10266 1.389 . S
C10265 H10244 0.950 . S
C10265 C10264 1.373 . S
C10265 C10281 1.377 . S
C10266 C10264 1.389 . S
C10266 C10267 1.524 . S
C10266 C10280 1.377 . S
C10267 C10266 1.524 . S
C10267 C10268 1.397 . S
C10267 C10272 1.363 . S
C10268 H10245 0.950 . S
C10268 C10267 1.397 . S
C10268 C10269 1.334 . S
C10269 H10246 0.950 . S
C10269 C10268 1.334 . S
C10269 C10270 1.287 . S
C10270 C10269 1.287 . S
C10270 C10271 1.524 . S
C10270 H10289 0.913 . S
C10271 H10247 0.950 . S
C10271 C10270 1.524 . S
C10271 C10272 1.415 . S
C10272 H10248 0.950 . S
C10272 C10267 1.363 . S
C10272 C10271 1.415 . S
C10273 H10249 0.951 . S
C10273 C10274 1.366 . S
C10273 C10275 1.388 . S
C10274 C10273 1.366 . S
C10274 C10278 1.385 . S
C10275 H10250 0.951 . S
C10275 C10273 1.388 . S
C10275 C10276 1.366 . S
C10276 C10275 1.366 . S
C10276 C10277 1.414 . S
C10276 C10279 1.499 . S
C10277 H10251 0.950 . S
C10277 C10276 1.414 . S
C10277 C10278 1.374 . S
C10278 H10252 0.950 . S
C10278 C10274 1.385 . S
C10278 C10277 1.374 . S
C10279 C10276 1.499 . S
C10279 C10280 1.373 . S
C10279 C10281 1.389 . S
C10280 H10253 0.950 . S
C10280 C10266 1.377 . S
C10280 C10279 1.373 . S
C10281 C10265 1.377 . S
C10281 C10279 1.389 . S
C10281 C10282 1.524 . S
C10282 C10281 1.524 . S
C10282 C10283 1.397 . S
C10282 C10287 1.363 . S
C10283 H10254 0.950 . S
C10283 C10282 1.397 . S
C10283 C10284 1.334 . S
C10284 H10255 0.950 . S
C10284 C10283 1.334 . S
C10284 C10285 1.287 . S
C10285 C10284 1.287 . S
C10285 C10286 1.524 . S
C10285 H10288 0.999 . S
C10286 H10256 0.950 . S
C10286 C10285 1.524 . S
C10286 C10287 1.415 . S
C10287 H10257 0.950 . S
C10287 C10282 1.363 . S
C10287 C10286 1.415 . S
H10288 C10285 0.999 . S
H10289 C10270 0.913 . S
H10290 C10308 0.951 . S
H10291 C10310 0.951 . S
H10292 C10312 0.950 . S
H10293 C10313 0.950 . S
H10294 C10315 0.950 . S
H10295 C10318 0.950 . S
H10296 C10319 0.950 . S
H10297 C10321 0.950 . S
H10298 C10322 0.950 . S
H10299 C10323 0.951 . S
H10300 C10325 0.951 . S
H10301 C10327 0.950 . S
H10302 C10328 0.950 . S
H10303 C10330 0.950 . S
H10304 C10333 0.950 . S
H10305 C10334 0.950 . S
H10306 C10336 0.950 . S
H10307 C10337 0.950 . S
C10308 H10290 0.951 . S
C10308 C10309 1.366 . S
C10308 C10310 1.388 . S
C10309 C10308 1.366 . S
C10309 C10313 1.385 . S
C10310 H10291 0.951 . S
C10310 C10308 1.388 . S
C10310 C10311 1.366 . S
C10311 C10310 1.366 . S
C10311 C10312 1.414 . S
C10311 C10314 1.499 . S
C10312 H10292 0.950 . S
C10312 C10311 1.414 . S
C10312 C10313 1.374 . S
C10313 H10293 0.950 . S
C10313 C10309 1.385 . S
C10313 C10312 1.374 . S
C10314 C10311 1.499 . S
C10314 C10315 1.373 . S
C10314 C10316 1.389 . S
C10315 H10294 0.950 . S
C10315 C10314 1.373 . S
C10315 C10331 1.377 . S
C10316 C10314 1.389 . S
C10316 C10317 1.524 . S
C10316 C10330 1.377 . S
C10317 C10316 1.524 . S
C10317 C10318 1.397 . S
C10317 C10322 1.363 . S
C10318 H10295 0.950 . S
C10318 C10317 1.397 . S
C10318 C10319 1.334 . S
C10319 H10296 0.950 . S
C10319 C10318 1.334 . S
C10319 C10320 1.287 . S
C10320 C10319 1.287 . S
C10320 C10321 1.524 . S
C10320 H10339 0.913 . S
C10321 H10297 0.950 . S
C10321 C10320 1.524 . S
C10321 C10322 1.415 . S
C10322 H10298 0.950 . S
C10322 C10317 1.363 . S
C10322 C10321 1.415 . S
C10323 H10299 0.951 . S
C10323 C10324 1.366 . S
C10323 C10325 1.388 . S
C10324 C10323 1.366 . S
C10324 C10328 1.385 . S
C10325 H10300 0.951 . S
C10325 C10323 1.388 . S
C10325 C10326 1.366 . S
C10326 C10325 1.366 . S
C10326 C10327 1.414 . S
C10326 C10329 1.499 . S
C10327 H10301 0.950 . S
C10327 C10326 1.414 . S
C10327 C10328 1.374 . S
C10328 H10302 0.950 . S
C10328 C10324 1.385 . S
C10328 C10327 1.374 . S
C10329 C10326 1.499 . S
C10329 C10330 1.373 . S
C10329 C10331 1.389 . S
C10330 H10303 0.950 . S
C10330 C10316 1.377 . S
C10330 C10329 1.373 . S
C10331 C10315 1.377 . S
C10331 C10329 1.389 . S
C10331 C10332 1.524 . S
C10332 C10331 1.524 . S
C10332 C10333 1.397 . S
C10332 C10337 1.363 . S
C10333 H10304 0.950 . S
C10333 C10332 1.397 . S
C10333 C10334 1.334 . S
C10334 H10305 0.950 . S
C10334 C10333 1.334 . S
C10334 C10335 1.287 . S
C10335 C10334 1.287 . S
C10335 C10336 1.524 . S
C10335 H10338 0.999 . S
C10336 H10306 0.950 . S
C10336 C10335 1.524 . S
C10336 C10337 1.415 . S
C10337 H10307 0.950 . S
C10337 C10332 1.363 . S
C10337 C10336 1.415 . S
H10338 C10335 0.999 . S
H10339 C10320 0.913 . S
H10340 C10358 0.951 . S
H10341 C10360 0.951 . S
H10342 C10362 0.950 . S
H10343 C10363 0.950 . S
H10344 C10365 0.950 . S
H10345 C10368 0.950 . S
H10346 C10369 0.950 . S
H10347 C10371 0.950 . S
H10348 C10372 0.950 . S
H10349 C10373 0.951 . S
H10350 C10375 0.951 . S
H10351 C10377 0.950 . S
H10352 C10378 0.950 . S
H10353 C10380 0.950 . S
H10354 C10383 0.950 . S
H10355 C10384 0.950 . S
H10356 C10386 0.950 . S
H10357 C10387 0.950 . S
C10358 H10340 0.951 . S
C10358 C10359 1.366 . S
C10358 C10360 1.388 . S
C10359 C10358 1.366 . S
C10359 C10363 1.385 . S
C10360 H10341 0.951 . S
C10360 C10358 1.388 . S
C10360 C10361 1.366 . S
C10361 C10360 1.366 . S
C10361 C10362 1.414 . S
C10361 C10364 1.499 . S
C10362 H10342 0.950 . S
C10362 C10361 1.414 . S
C10362 C10363 1.374 . S
C10363 H10343 0.950 . S
C10363 C10359 1.385 . S
C10363 C10362 1.374 . S
C10364 C10361 1.499 . S
C10364 C10365 1.373 . S
C10364 C10366 1.389 . S
C10365 H10344 0.950 . S
C10365 C10364 1.373 . S
C10365 C10381 1.377 . S
C10366 C10364 1.389 . S
C10366 C10367 1.524 . S
C10366 C10380 1.377 . S
C10367 C10366 1.524 . S
C10367 C10368 1.397 . S
C10367 C10372 1.363 . S
C10368 H10345 0.950 . S
C10368 C10367 1.397 . S
C10368 C10369 1.334 . S
C10369 H10346 0.950 . S
C10369 C10368 1.334 . S
C10369 C10370 1.287 . S
C10370 C10369 1.287 . S
C10370 C10371 1.524 . S
C10370 H10389 0.913 . S
C10371 H10347 0.950 . S
C10371 C10370 1.524 . S
C10371 C10372 1.415 . S
C10372 H10348 0.950 . S
C10372 C10367 1.363 . S
C10372 C10371 1.415 . S
C10373 H10349 0.951 . S
C10373 C10374 1.366 . S
C10373 C10375 1.388 . S
C10374 C10373 1.366 . S
C10374 C10378 1.385 . S
C10375 H10350 0.951 . S
C10375 C10373 1.388 . S
C10375 C10376 1.366 . S
C10376 C10375 1.366 . S
C10376 C10377 1.414 . S
C10376 C10379 1.499 . S
C10377 H10351 0.950 . S
C10377 C10376 1.414 . S
C10377 C10378 1.374 . S
C10378 H10352 0.950 . S
C10378 C10374 1.385 . S
C10378 C10377 1.374 . S
C10379 C10376 1.499 . S
C10379 C10380 1.373 . S
C10379 C10381 1.389 . S
C10380 H10353 0.950 . S
C10380 C10366 1.377 . S
C10380 C10379 1.373 . S
C10381 C10365 1.377 . S
C10381 C10379 1.389 . S
C10381 C10382 1.524 . S
C10382 C10381 1.524 . S
C10382 C10383 1.397 . S
C10382 C10387 1.363 . S
C10383 H10354 0.950 . S
C10383 C10382 1.397 . S
C10383 C10384 1.334 . S
C10384 H10355 0.950 . S
C10384 C10383 1.334 . S
C10384 C10385 1.287 . S
C10385 C10384 1.287 . S
C10385 C10386 1.524 . S
C10385 H10388 0.999 . S
C10386 H10356 0.950 . S
C10386 C10385 1.524 . S
C10386 C10387 1.415 . S
C10387 H10357 0.950 . S
C10387 C10382 1.363 . S
C10387 C10386 1.415 . S
H10388 C10385 0.999 . S
H10389 C10370 0.913 . S
H10390 C10408 0.951 . S
H10391 C10410 0.951 . S
H10392 C10412 0.950 . S
H10393 C10413 0.950 . S
H10394 C10415 0.950 . S
H10395 C10418 0.950 . S
H10396 C10419 0.950 . S
H10397 C10421 0.950 . S
H10398 C10422 0.950 . S
H10399 C10423 0.951 . S
H10400 C10425 0.951 . S
H10401 C10427 0.950 . S
H10402 C10428 0.950 . S
H10403 C10430 0.950 . S
H10404 C10433 0.950 . S
H10405 C10434 0.950 . S
H10406 C10436 0.950 . S
H10407 C10437 0.950 . S
C10408 H10390 0.951 . S
C10408 C10409 1.366 . S
C10408 C10410 1.388 . S
C10409 C10408 1.366 . S
C10409 C10413 1.385 . S
C10410 H10391 0.951 . S
C10410 C10408 1.388 . S
C10410 C10411 1.366 . S
C10411 C10410 1.366 . S
C10411 C10412 1.414 . S
C10411 C10414 1.499 . S
C10412 H10392 0.950 . S
C10412 C10411 1.414 . S
C10412 C10413 1.374 . S
C10413 H10393 0.950 . S
C10413 C10409 1.385 . S
C10413 C10412 1.374 . S
C10414 C10411 1.499 . S
C10414 C10415 1.373 . S
C10414 C10416 1.389 . S
C10415 H10394 0.950 . S
C10415 C10414 1.373 . S
C10415 C10431 1.377 . S
C10416 C10414 1.389 . S
C10416 C10417 1.524 . S
C10416 C10430 1.377 . S
C10417 C10416 1.524 . S
C10417 C10418 1.397 . S
C10417 C10422 1.363 . S
C10418 H10395 0.950 . S
C10418 C10417 1.397 . S
C10418 C10419 1.334 . S
C10419 H10396 0.950 . S
C10419 C10418 1.334 . S
C10419 C10420 1.287 . S
C10420 C10419 1.287 . S
C10420 C10421 1.524 . S
C10420 H10439 0.913 . S
C10421 H10397 0.950 . S
C10421 C10420 1.524 . S
C10421 C10422 1.415 . S
C10422 H10398 0.950 . S
C10422 C10417 1.363 . S
C10422 C10421 1.415 . S
C10423 H10399 0.951 . S
C10423 C10424 1.366 . S
C10423 C10425 1.388 . S
C10424 C10423 1.366 . S
C10424 C10428 1.385 . S
C10425 H10400 0.951 . S
C10425 C10423 1.388 . S
C10425 C10426 1.366 . S
C10426 C10425 1.366 . S
C10426 C10427 1.414 . S
C10426 C10429 1.499 . S
C10427 H10401 0.950 . S
C10427 C10426 1.414 . S
C10427 C10428 1.374 . S
C10428 H10402 0.950 . S
C10428 C10424 1.385 . S
C10428 C10427 1.374 . S
C10429 C10426 1.499 . S
C10429 C10430 1.373 . S
C10429 C10431 1.389 . S
C10430 H10403 0.950 . S
C10430 C10416 1.377 . S
C10430 C10429 1.373 . S
C10431 C10415 1.377 . S
C10431 C10429 1.389 . S
C10431 C10432 1.524 . S
C10432 C10431 1.524 . S
C10432 C10433 1.397 . S
C10432 C10437 1.363 . S
C10433 H10404 0.950 . S
C10433 C10432 1.397 . S
C10433 C10434 1.334 . S
C10434 H10405 0.950 . S
C10434 C10433 1.334 . S
C10434 C10435 1.287 . S
C10435 C10434 1.287 . S
C10435 C10436 1.524 . S
C10435 H10438 0.999 . S
C10436 H10406 0.950 . S
C10436 C10435 1.524 . S
C10436 C10437 1.415 . S
C10437 H10407 0.950 . S
C10437 C10432 1.363 . S
C10437 C10436 1.415 . S
H10438 C10435 0.999 . S
H10439 C10420 0.913 . S
H10440 C10458 0.951 . S
H10441 C10460 0.951 . S
H10442 C10462 0.950 . S
H10443 C10463 0.950 . S
H10444 C10465 0.950 . S
H10445 C10468 0.950 . S
H10446 C10469 0.950 . S
H10447 C10471 0.950 . S
H10448 C10472 0.950 . S
H10449 C10473 0.951 . S
H10450 C10475 0.951 . S
H10451 C10477 0.950 . S
H10452 C10478 0.950 . S
H10453 C10480 0.950 . S
H10454 C10483 0.950 . S
H10455 C10484 0.950 . S
H10456 C10486 0.950 . S
H10457 C10487 0.950 . S
C10458 H10440 0.951 . S
C10458 C10459 1.366 . S
C10458 C10460 1.388 . S
C10459 C10458 1.366 . S
C10459 C10463 1.385 . S
C10460 H10441 0.951 . S
C10460 C10458 1.388 . S
C10460 C10461 1.366 . S
C10461 C10460 1.366 . S
C10461 C10462 1.414 . S
C10461 C10464 1.499 . S
C10462 H10442 0.950 . S
C10462 C10461 1.414 . S
C10462 C10463 1.374 . S
C10463 H10443 0.950 . S
C10463 C10459 1.385 . S
C10463 C10462 1.374 . S
C10464 C10461 1.499 . S
C10464 C10465 1.373 . S
C10464 C10466 1.389 . S
C10465 H10444 0.950 . S
C10465 C10464 1.373 . S
C10465 C10481 1.377 . S
C10466 C10464 1.389 . S
C10466 C10467 1.524 . S
C10466 C10480 1.377 . S
C10467 C10466 1.524 . S
C10467 C10468 1.397 . S
C10467 C10472 1.363 . S
C10468 H10445 0.950 . S
C10468 C10467 1.397 . S
C10468 C10469 1.334 . S
C10469 H10446 0.950 . S
C10469 C10468 1.334 . S
C10469 C10470 1.287 . S
C10470 C10469 1.287 . S
C10470 C10471 1.524 . S
C10470 H10489 0.913 . S
C10471 H10447 0.950 . S
C10471 C10470 1.524 . S
C10471 C10472 1.415 . S
C10472 H10448 0.950 . S
C10472 C10467 1.363 . S
C10472 C10471 1.415 . S
C10473 H10449 0.951 . S
C10473 C10474 1.366 . S
C10473 C10475 1.388 . S
C10474 C10473 1.366 . S
C10474 C10478 1.385 . S
C10475 H10450 0.951 . S
C10475 C10473 1.388 . S
C10475 C10476 1.366 . S
C10476 C10475 1.366 . S
C10476 C10477 1.414 . S
C10476 C10479 1.499 . S
C10477 H10451 0.950 . S
C10477 C10476 1.414 . S
C10477 C10478 1.374 . S
C10478 H10452 0.950 . S
C10478 C10474 1.385 . S
C10478 C10477 1.374 . S
C10479 C10476 1.499 . S
C10479 C10480 1.373 . S
C10479 C10481 1.389 . S
C10480 H10453 0.950 . S
C10480 C10466 1.377 . S
C10480 C10479 1.373 . S
C10481 C10465 1.377 . S
C10481 C10479 1.389 . S
C10481 C10482 1.524 . S
C10482 C10481 1.524 . S
C10482 C10483 1.397 . S
C10482 C10487 1.363 . S
C10483 H10454 0.950 . S
C10483 C10482 1.397 . S
C10483 C10484 1.334 . S
C10484 H10455 0.950 . S
C10484 C10483 1.334 . S
C10484 C10485 1.287 . S
C10485 C10484 1.287 . S
C10485 C10486 1.524 . S
C10485 H10488 0.999 . S
C10486 H10456 0.950 . S
C10486 C10485 1.524 . S
C10486 C10487 1.415 . S
C10487 H10457 0.950 . S
C10487 C10482 1.363 . S
C10487 C10486 1.415 . S
H10488 C10485 0.999 . S
H10489 C10470 0.913 . S
H10490 C10508 0.951 . S
H10491 C10510 0.951 . S
H10492 C10512 0.950 . S
H10493 C10513 0.950 . S
H10494 C10515 0.950 . S
H10495 C10518 0.950 . S
H10496 C10519 0.950 . S
H10497 C10521 0.950 . S
H10498 C10522 0.950 . S
H10499 C10523 0.951 . S
H10500 C10525 0.951 . S
H10501 C10527 0.950 . S
H10502 C10528 0.950 . S
H10503 C10530 0.950 . S
H10504 C10533 0.950 . S
H10505 C10534 0.950 . S
H10506 C10536 0.950 . S
H10507 C10537 0.950 . S
C10508 H10490 0.951 . S
C10508 C10509 1.366 . S
C10508 C10510 1.388 . S
C10509 C10508 1.366 . S
C10509 C10513 1.385 . S
C10510 H10491 0.951 . S
C10510 C10508 1.388 . S
C10510 C10511 1.366 . S
C10511 C10510 1.366 . S
C10511 C10512 1.414 . S
C10511 C10514 1.499 . S
C10512 H10492 0.950 . S
C10512 C10511 1.414 . S
C10512 C10513 1.374 . S
C10513 H10493 0.950 . S
C10513 C10509 1.385 . S
C10513 C10512 1.374 . S
C10514 C10511 1.499 . S
C10514 C10515 1.373 . S
C10514 C10516 1.389 . S
C10515 H10494 0.950 . S
C10515 C10514 1.373 . S
C10515 C10531 1.377 . S
C10516 C10514 1.389 . S
C10516 C10517 1.524 . S
C10516 C10530 1.377 . S
C10517 C10516 1.524 . S
C10517 C10518 1.397 . S
C10517 C10522 1.363 . S
C10518 H10495 0.950 . S
C10518 C10517 1.397 . S
C10518 C10519 1.334 . S
C10519 H10496 0.950 . S
C10519 C10518 1.334 . S
C10519 C10520 1.287 . S
C10520 C10519 1.287 . S
C10520 C10521 1.524 . S
C10520 H10539 0.913 . S
C10521 H10497 0.950 . S
C10521 C10520 1.524 . S
C10521 C10522 1.415 . S
C10522 H10498 0.950 . S
C10522 C10517 1.363 . S
C10522 C10521 1.415 . S
C10523 H10499 0.951 . S
C10523 C10524 1.366 . S
C10523 C10525 1.388 . S
C10524 C10523 1.366 . S
C10524 C10528 1.385 . S
C10525 H10500 0.951 . S
C10525 C10523 1.388 . S
C10525 C10526 1.366 . S
C10526 C10525 1.366 . S
C10526 C10527 1.414 . S
C10526 C10529 1.499 . S
C10527 H10501 0.950 . S
C10527 C10526 1.414 . S
C10527 C10528 1.374 . S
C10528 H10502 0.950 . S
C10528 C10524 1.385 . S
C10528 C10527 1.374 . S
C10529 C10526 1.499 . S
C10529 C10530 1.373 . S
C10529 C10531 1.389 . S
C10530 H10503 0.950 . S
C10530 C10516 1.377 . S
C10530 C10529 1.373 . S
C10531 C10515 1.377 . S
C10531 C10529 1.389 . S
C10531 C10532 1.524 . S
C10532 C10531 1.524 . S
C10532 C10533 1.397 . S
C10532 C10537 1.363 . S
C10533 H10504 0.950 . S
C10533 C10532 1.397 . S
C10533 C10534 1.334 . S
C10534 H10505 0.950 . S
C10534 C10533 1.334 . S
C10534 C10535 1.287 . S
C10535 C10534 1.287 . S
C10535 C10536 1.524 . S
C10535 H10538 0.999 . S
C10536 H10506 0.950 . S
C10536 C10535 1.524 . S
C10536 C10537 1.415 . S
C10537 H10507 0.950 . S
C10537 C10532 1.363 . S
C10537 C10536 1.415 . S
H10538 C10535 0.999 . S
H10539 C10520 0.913 . S
H10540 C10558 0.951 . S
H10541 C10560 0.951 . S
H10542 C10562 0.950 . S
H10543 C10563 0.950 . S
H10544 C10565 0.950 . S
H10545 C10568 0.950 . S
H10546 C10569 0.950 . S
H10547 C10571 0.950 . S
H10548 C10572 0.950 . S
H10549 C10573 0.951 . S
H10550 C10575 0.951 . S
H10551 C10577 0.950 . S
H10552 C10578 0.950 . S
H10553 C10580 0.950 . S
H10554 C10583 0.950 . S
H10555 C10584 0.950 . S
H10556 C10586 0.950 . S
H10557 C10587 0.950 . S
C10558 H10540 0.951 . S
C10558 C10559 1.366 . S
C10558 C10560 1.388 . S
C10559 C10558 1.366 . S
C10559 C10563 1.385 . S
C10560 H10541 0.951 . S
C10560 C10558 1.388 . S
C10560 C10561 1.366 . S
C10561 C10560 1.366 . S
C10561 C10562 1.414 . S
C10561 C10564 1.499 . S
C10562 H10542 0.950 . S
C10562 C10561 1.414 . S
C10562 C10563 1.374 . S
C10563 H10543 0.950 . S
C10563 C10559 1.385 . S
C10563 C10562 1.374 . S
C10564 C10561 1.499 . S
C10564 C10565 1.373 . S
C10564 C10566 1.389 . S
C10565 H10544 0.950 . S
C10565 C10564 1.373 . S
C10565 C10581 1.377 . S
C10566 C10564 1.389 . S
C10566 C10567 1.524 . S
C10566 C10580 1.377 . S
C10567 C10566 1.524 . S
C10567 C10568 1.397 . S
C10567 C10572 1.363 . S
C10568 H10545 0.950 . S
C10568 C10567 1.397 . S
C10568 C10569 1.334 . S
C10569 H10546 0.950 . S
C10569 C10568 1.334 . S
C10569 C10570 1.287 . S
C10570 C10569 1.287 . S
C10570 C10571 1.524 . S
C10570 H10589 0.913 . S
C10571 H10547 0.950 . S
C10571 C10570 1.524 . S
C10571 C10572 1.415 . S
C10572 H10548 0.950 . S
C10572 C10567 1.363 . S
C10572 C10571 1.415 . S
C10573 H10549 0.951 . S
C10573 C10574 1.366 . S
C10573 C10575 1.388 . S
C10574 C10573 1.366 . S
C10574 C10578 1.385 . S
C10575 H10550 0.951 . S
C10575 C10573 1.388 . S
C10575 C10576 1.366 . S
C10576 C10575 1.366 . S
C10576 C10577 1.414 . S
C10576 C10579 1.499 . S
C10577 H10551 0.950 . S
C10577 C10576 1.414 . S
C10577 C10578 1.374 . S
C10578 H10552 0.950 . S
C10578 C10574 1.385 . S
C10578 C10577 1.374 . S
C10579 C10576 1.499 . S
C10579 C10580 1.373 . S
C10579 C10581 1.389 . S
C10580 H10553 0.950 . S
C10580 C10566 1.377 . S
C10580 C10579 1.373 . S
C10581 C10565 1.377 . S
C10581 C10579 1.389 . S
C10581 C10582 1.524 . S
C10582 C10581 1.524 . S
C10582 C10583 1.397 . S
C10582 C10587 1.363 . S
C10583 H10554 0.950 . S
C10583 C10582 1.397 . S
C10583 C10584 1.334 . S
C10584 H10555 0.950 . S
C10584 C10583 1.334 . S
C10584 C10585 1.287 . S
C10585 C10584 1.287 . S
C10585 C10586 1.524 . S
C10585 H10588 0.999 . S
C10586 H10556 0.950 . S
C10586 C10585 1.524 . S
C10586 C10587 1.415 . S
C10587 H10557 0.950 . S
C10587 C10582 1.363 . S
C10587 C10586 1.415 . S
H10588 C10585 0.999 . S
H10589 C10570 0.913 . S
H10590 C10608 0.951 . S
H10591 C10610 0.951 . S
H10592 C10612 0.950 . S
H10593 C10613 0.950 . S
H10594 C10615 0.950 . S
H10595 C10618 0.950 . S
H10596 C10619 0.950 . S
H10597 C10621 0.950 . S
H10598 C10622 0.950 . S
H10599 C10623 0.951 . S
H10600 C10625 0.951 . S
H10601 C10627 0.950 . S
H10602 C10628 0.950 . S
H10603 C10630 0.950 . S
H10604 C10633 0.950 . S
H10605 C10634 0.950 . S
H10606 C10636 0.950 . S
H10607 C10637 0.950 . S
C10608 H10590 0.951 . S
C10608 C10609 1.366 . S
C10608 C10610 1.388 . S
C10609 C10608 1.366 . S
C10609 C10613 1.385 . S
C10610 H10591 0.951 . S
C10610 C10608 1.388 . S
C10610 C10611 1.366 . S
C10611 C10610 1.366 . S
C10611 C10612 1.414 . S
C10611 C10614 1.499 . S
C10612 H10592 0.950 . S
C10612 C10611 1.414 . S
C10612 C10613 1.374 . S
C10613 H10593 0.950 . S
C10613 C10609 1.385 . S
C10613 C10612 1.374 . S
C10614 C10611 1.499 . S
C10614 C10615 1.373 . S
C10614 C10616 1.389 . S
C10615 H10594 0.950 . S
C10615 C10614 1.373 . S
C10615 C10631 1.377 . S
C10616 C10614 1.389 . S
C10616 C10617 1.524 . S
C10616 C10630 1.377 . S
C10617 C10616 1.524 . S
C10617 C10618 1.397 . S
C10617 C10622 1.363 . S
C10618 H10595 0.950 . S
C10618 C10617 1.397 . S
C10618 C10619 1.334 . S
C10619 H10596 0.950 . S
C10619 C10618 1.334 . S
C10619 C10620 1.287 . S
C10620 C10619 1.287 . S
C10620 C10621 1.524 . S
C10620 H10639 0.913 . S
C10621 H10597 0.950 . S
C10621 C10620 1.524 . S
C10621 C10622 1.415 . S
C10622 H10598 0.950 . S
C10622 C10617 1.363 . S
C10622 C10621 1.415 . S
C10623 H10599 0.951 . S
C10623 C10624 1.366 . S
C10623 C10625 1.388 . S
C10624 C10623 1.366 . S
C10624 C10628 1.385 . S
C10625 H10600 0.951 . S
C10625 C10623 1.388 . S
C10625 C10626 1.366 . S
C10626 C10625 1.366 . S
C10626 C10627 1.414 . S
C10626 C10629 1.499 . S
C10627 H10601 0.950 . S
C10627 C10626 1.414 . S
C10627 C10628 1.374 . S
C10628 H10602 0.950 . S
C10628 C10624 1.385 . S
C10628 C10627 1.374 . S
C10629 C10626 1.499 . S
C10629 C10630 1.373 . S
C10629 C10631 1.389 . S
C10630 H10603 0.950 . S
C10630 C10616 1.377 . S
C10630 C10629 1.373 . S
C10631 C10615 1.377 . S
C10631 C10629 1.389 . S
C10631 C10632 1.524 . S
C10632 C10631 1.524 . S
C10632 C10633 1.397 . S
C10632 C10637 1.363 . S
C10633 H10604 0.950 . S
C10633 C10632 1.397 . S
C10633 C10634 1.334 . S
C10634 H10605 0.950 . S
C10634 C10633 1.334 . S
C10634 C10635 1.287 . S
C10635 C10634 1.287 . S
C10635 C10636 1.524 . S
C10635 H10638 0.999 . S
C10636 H10606 0.950 . S
C10636 C10635 1.524 . S
C10636 C10637 1.415 . S
C10637 H10607 0.950 . S
C10637 C10632 1.363 . S
C10637 C10636 1.415 . S
H10638 C10635 0.999 . S
H10639 C10620 0.913 . S
H10640 C10658 0.951 . S
H10641 C10660 0.951 . S
H10642 C10662 0.950 . S
H10643 C10663 0.950 . S
H10644 C10665 0.950 . S
H10645 C10668 0.950 . S
H10646 C10669 0.950 . S
H10647 C10671 0.950 . S
H10648 C10672 0.950 . S
H10649 C10673 0.951 . S
H10650 C10675 0.951 . S
H10651 C10677 0.950 . S
H10652 C10678 0.950 . S
H10653 C10680 0.950 . S
H10654 C10683 0.950 . S
H10655 C10684 0.950 . S
H10656 C10686 0.950 . S
H10657 C10687 0.950 . S
C10658 H10640 0.951 . S
C10658 C10659 1.366 . S
C10658 C10660 1.388 . S
C10659 C10658 1.366 . S
C10659 C10663 1.385 . S
C10660 H10641 0.951 . S
C10660 C10658 1.388 . S
C10660 C10661 1.366 . S
C10661 C10660 1.366 . S
C10661 C10662 1.414 . S
C10661 C10664 1.499 . S
C10662 H10642 0.950 . S
C10662 C10661 1.414 . S
C10662 C10663 1.374 . S
C10663 H10643 0.950 . S
C10663 C10659 1.385 . S
C10663 C10662 1.374 . S
C10664 C10661 1.499 . S
C10664 C10665 1.373 . S
C10664 C10666 1.389 . S
C10665 H10644 0.950 . S
C10665 C10664 1.373 . S
C10665 C10681 1.377 . S
C10666 C10664 1.389 . S
C10666 C10667 1.524 . S
C10666 C10680 1.377 . S
C10667 C10666 1.524 . S
C10667 C10668 1.397 . S
C10667 C10672 1.363 . S
C10668 H10645 0.950 . S
C10668 C10667 1.397 . S
C10668 C10669 1.334 . S
C10669 H10646 0.950 . S
C10669 C10668 1.334 . S
C10669 C10670 1.287 . S
C10670 C10669 1.287 . S
C10670 C10671 1.524 . S
C10670 H10689 0.913 . S
C10671 H10647 0.950 . S
C10671 C10670 1.524 . S
C10671 C10672 1.415 . S
C10672 H10648 0.950 . S
C10672 C10667 1.363 . S
C10672 C10671 1.415 . S
C10673 H10649 0.951 . S
C10673 C10674 1.366 . S
C10673 C10675 1.388 . S
C10674 C10673 1.366 . S
C10674 C10678 1.385 . S
C10675 H10650 0.951 . S
C10675 C10673 1.388 . S
C10675 C10676 1.366 . S
C10676 C10675 1.366 . S
C10676 C10677 1.414 . S
C10676 C10679 1.499 . S
C10677 H10651 0.950 . S
C10677 C10676 1.414 . S
C10677 C10678 1.374 . S
C10678 H10652 0.950 . S
C10678 C10674 1.385 . S
C10678 C10677 1.374 . S
C10679 C10676 1.499 . S
C10679 C10680 1.373 . S
C10679 C10681 1.389 . S
C10680 H10653 0.950 . S
C10680 C10666 1.377 . S
C10680 C10679 1.373 . S
C10681 C10665 1.377 . S
C10681 C10679 1.389 . S
C10681 C10682 1.524 . S
C10682 C10681 1.524 . S
C10682 C10683 1.397 . S
C10682 C10687 1.363 . S
C10683 H10654 0.950 . S
C10683 C10682 1.397 . S
C10683 C10684 1.334 . S
C10684 H10655 0.950 . S
C10684 C10683 1.334 . S
C10684 C10685 1.287 . S
C10685 C10684 1.287 . S
C10685 C10686 1.524 . S
C10685 H10688 0.999 . S
C10686 H10656 0.950 . S
C10686 C10685 1.524 . S
C10686 C10687 1.415 . S
C10687 H10657 0.950 . S
C10687 C10682 1.363 . S
C10687 C10686 1.415 . S
H10688 C10685 0.999 . S
H10689 C10670 0.913 . S
H10690 C10708 0.951 . S
H10691 C10710 0.951 . S
H10692 C10712 0.950 . S
H10693 C10713 0.950 . S
H10694 C10715 0.950 . S
H10695 C10718 0.950 . S
H10696 C10719 0.950 . S
H10697 C10721 0.950 . S
H10698 C10722 0.950 . S
H10699 C10723 0.951 . S
H10700 C10725 0.951 . S
H10701 C10727 0.950 . S
H10702 C10728 0.950 . S
H10703 C10730 0.950 . S
H10704 C10733 0.950 . S
H10705 C10734 0.950 . S
H10706 C10736 0.950 . S
H10707 C10737 0.950 . S
C10708 H10690 0.951 . S
C10708 C10709 1.366 . S
C10708 C10710 1.388 . S
C10709 C10708 1.366 . S
C10709 C10713 1.385 . S
C10710 H10691 0.951 . S
C10710 C10708 1.388 . S
C10710 C10711 1.366 . S
C10711 C10710 1.366 . S
C10711 C10712 1.414 . S
C10711 C10714 1.499 . S
C10712 H10692 0.950 . S
C10712 C10711 1.414 . S
C10712 C10713 1.374 . S
C10713 H10693 0.950 . S
C10713 C10709 1.385 . S
C10713 C10712 1.374 . S
C10714 C10711 1.499 . S
C10714 C10715 1.373 . S
C10714 C10716 1.389 . S
C10715 H10694 0.950 . S
C10715 C10714 1.373 . S
C10715 C10731 1.377 . S
C10716 C10714 1.389 . S
C10716 C10717 1.524 . S
C10716 C10730 1.377 . S
C10717 C10716 1.524 . S
C10717 C10718 1.397 . S
C10717 C10722 1.363 . S
C10718 H10695 0.950 . S
C10718 C10717 1.397 . S
C10718 C10719 1.334 . S
C10719 H10696 0.950 . S
C10719 C10718 1.334 . S
C10719 C10720 1.287 . S
C10720 C10719 1.287 . S
C10720 C10721 1.524 . S
C10720 H10739 0.913 . S
C10721 H10697 0.950 . S
C10721 C10720 1.524 . S
C10721 C10722 1.415 . S
C10722 H10698 0.950 . S
C10722 C10717 1.363 . S
C10722 C10721 1.415 . S
C10723 H10699 0.951 . S
C10723 C10724 1.366 . S
C10723 C10725 1.388 . S
C10724 C10723 1.366 . S
C10724 C10728 1.385 . S
C10725 H10700 0.951 . S
C10725 C10723 1.388 . S
C10725 C10726 1.366 . S
C10726 C10725 1.366 . S
C10726 C10727 1.414 . S
C10726 C10729 1.499 . S
C10727 H10701 0.950 . S
C10727 C10726 1.414 . S
C10727 C10728 1.374 . S
C10728 H10702 0.950 . S
C10728 C10724 1.385 . S
C10728 C10727 1.374 . S
C10729 C10726 1.499 . S
C10729 C10730 1.373 . S
C10729 C10731 1.389 . S
C10730 H10703 0.950 . S
C10730 C10716 1.377 . S
C10730 C10729 1.373 . S
C10731 C10715 1.377 . S
C10731 C10729 1.389 . S
C10731 C10732 1.524 . S
C10732 C10731 1.524 . S
C10732 C10733 1.397 . S
C10732 C10737 1.363 . S
C10733 H10704 0.950 . S
C10733 C10732 1.397 . S
C10733 C10734 1.334 . S
C10734 H10705 0.950 . S
C10734 C10733 1.334 . S
C10734 C10735 1.287 . S
C10735 C10734 1.287 . S
C10735 C10736 1.524 . S
C10735 H10738 0.999 . S
C10736 H10706 0.950 . S
C10736 C10735 1.524 . S
C10736 C10737 1.415 . S
C10737 H10707 0.950 . S
C10737 C10732 1.363 . S
C10737 C10736 1.415 . S
H10738 C10735 0.999 . S
H10739 C10720 0.913 . S
H10740 C10758 0.951 . S
H10741 C10760 0.951 . S
H10742 C10762 0.950 . S
H10743 C10763 0.950 . S
H10744 C10765 0.950 . S
H10745 C10768 0.950 . S
H10746 C10769 0.950 . S
H10747 C10771 0.950 . S
H10748 C10772 0.950 . S
H10749 C10773 0.951 . S
H10750 C10775 0.951 . S
H10751 C10777 0.950 . S
H10752 C10778 0.950 . S
H10753 C10780 0.950 . S
H10754 C10783 0.950 . S
H10755 C10784 0.950 . S
H10756 C10786 0.950 . S
H10757 C10787 0.950 . S
C10758 H10740 0.951 . S
C10758 C10759 1.366 . S
C10758 C10760 1.388 . S
C10759 C10758 1.366 . S
C10759 C10763 1.385 . S
C10760 H10741 0.951 . S
C10760 C10758 1.388 . S
C10760 C10761 1.366 . S
C10761 C10760 1.366 . S
C10761 C10762 1.414 . S
C10761 C10764 1.499 . S
C10762 H10742 0.950 . S
C10762 C10761 1.414 . S
C10762 C10763 1.374 . S
C10763 H10743 0.950 . S
C10763 C10759 1.385 . S
C10763 C10762 1.374 . S
C10764 C10761 1.499 . S
C10764 C10765 1.373 . S
C10764 C10766 1.389 . S
C10765 H10744 0.950 . S
C10765 C10764 1.373 . S
C10765 C10781 1.377 . S
C10766 C10764 1.389 . S
C10766 C10767 1.524 . S
C10766 C10780 1.377 . S
C10767 C10766 1.524 . S
C10767 C10768 1.397 . S
C10767 C10772 1.363 . S
C10768 H10745 0.950 . S
C10768 C10767 1.397 . S
C10768 C10769 1.334 . S
C10769 H10746 0.950 . S
C10769 C10768 1.334 . S
C10769 C10770 1.287 . S
C10770 C10769 1.287 . S
C10770 C10771 1.524 . S
C10770 H10789 0.913 . S
C10771 H10747 0.950 . S
C10771 C10770 1.524 . S
C10771 C10772 1.415 . S
C10772 H10748 0.950 . S
C10772 C10767 1.363 . S
C10772 C10771 1.415 . S
C10773 H10749 0.951 . S
C10773 C10774 1.366 . S
C10773 C10775 1.388 . S
C10774 C10773 1.366 . S
C10774 C10778 1.385 . S
C10775 H10750 0.951 . S
C10775 C10773 1.388 . S
C10775 C10776 1.366 . S
C10776 C10775 1.366 . S
C10776 C10777 1.414 . S
C10776 C10779 1.499 . S
C10777 H10751 0.950 . S
C10777 C10776 1.414 . S
C10777 C10778 1.374 . S
C10778 H10752 0.950 . S
C10778 C10774 1.385 . S
C10778 C10777 1.374 . S
C10779 C10776 1.499 . S
C10779 C10780 1.373 . S
C10779 C10781 1.389 . S
C10780 H10753 0.950 . S
C10780 C10766 1.377 . S
C10780 C10779 1.373 . S
C10781 C10765 1.377 . S
C10781 C10779 1.389 . S
C10781 C10782 1.524 . S
C10782 C10781 1.524 . S
C10782 C10783 1.397 . S
C10782 C10787 1.363 . S
C10783 H10754 0.950 . S
C10783 C10782 1.397 . S
C10783 C10784 1.334 . S
C10784 H10755 0.950 . S
C10784 C10783 1.334 . S
C10784 C10785 1.287 . S
C10785 C10784 1.287 . S
C10785 C10786 1.524 . S
C10785 H10788 0.999 . S
C10786 H10756 0.950 . S
C10786 C10785 1.524 . S
C10786 C10787 1.415 . S
C10787 H10757 0.950 . S
C10787 C10782 1.363 . S
C10787 C10786 1.415 . S
H10788 C10785 0.999 . S
H10789 C10770 0.913 . S
H10790 C10808 0.951 . S
H10791 C10810 0.951 . S
H10792 C10812 0.950 . S
H10793 C10813 0.950 . S
H10794 C10815 0.950 . S
H10795 C10818 0.950 . S
H10796 C10819 0.950 . S
H10797 C10821 0.950 . S
H10798 C10822 0.950 . S
H10799 C10823 0.951 . S
H10800 C10825 0.951 . S
H10801 C10827 0.950 . S
H10802 C10828 0.950 . S
H10803 C10830 0.950 . S
H10804 C10833 0.950 . S
H10805 C10834 0.950 . S
H10806 C10836 0.950 . S
H10807 C10837 0.950 . S
C10808 H10790 0.951 . S
C10808 C10809 1.366 . S
C10808 C10810 1.388 . S
C10809 C10808 1.366 . S
C10809 C10813 1.385 . S
C10810 H10791 0.951 . S
C10810 C10808 1.388 . S
C10810 C10811 1.366 . S
C10811 C10810 1.366 . S
C10811 C10812 1.414 . S
C10811 C10814 1.499 . S
C10812 H10792 0.950 . S
C10812 C10811 1.414 . S
C10812 C10813 1.374 . S
C10813 H10793 0.950 . S
C10813 C10809 1.385 . S
C10813 C10812 1.374 . S
C10814 C10811 1.499 . S
C10814 C10815 1.373 . S
C10814 C10816 1.389 . S
C10815 H10794 0.950 . S
C10815 C10814 1.373 . S
C10815 C10831 1.377 . S
C10816 C10814 1.389 . S
C10816 C10817 1.524 . S
C10816 C10830 1.377 . S
C10817 C10816 1.524 . S
C10817 C10818 1.397 . S
C10817 C10822 1.363 . S
C10818 H10795 0.950 . S
C10818 C10817 1.397 . S
C10818 C10819 1.334 . S
C10819 H10796 0.950 . S
C10819 C10818 1.334 . S
C10819 C10820 1.287 . S
C10820 C10819 1.287 . S
C10820 C10821 1.524 . S
C10820 H10839 0.913 . S
C10821 H10797 0.950 . S
C10821 C10820 1.524 . S
C10821 C10822 1.415 . S
C10822 H10798 0.950 . S
C10822 C10817 1.363 . S
C10822 C10821 1.415 . S
C10823 H10799 0.951 . S
C10823 C10824 1.366 . S
C10823 C10825 1.388 . S
C10824 C10823 1.366 . S
C10824 C10828 1.385 . S
C10825 H10800 0.951 . S
C10825 C10823 1.388 . S
C10825 C10826 1.366 . S
C10826 C10825 1.366 . S
C10826 C10827 1.414 . S
C10826 C10829 1.499 . S
C10827 H10801 0.950 . S
C10827 C10826 1.414 . S
C10827 C10828 1.374 . S
C10828 H10802 0.950 . S
C10828 C10824 1.385 . S
C10828 C10827 1.374 . S
C10829 C10826 1.499 . S
C10829 C10830 1.373 . S
C10829 C10831 1.389 . S
C10830 H10803 0.950 . S
C10830 C10816 1.377 . S
C10830 C10829 1.373 . S
C10831 C10815 1.377 . S
C10831 C10829 1.389 . S
C10831 C10832 1.524 . S
C10832 C10831 1.524 . S
C10832 C10833 1.397 . S
C10832 C10837 1.363 . S
C10833 H10804 0.950 . S
C10833 C10832 1.397 . S
C10833 C10834 1.334 . S
C10834 H10805 0.950 . S
C10834 C10833 1.334 . S
C10834 C10835 1.287 . S
C10835 C10834 1.287 . S
C10835 C10836 1.524 . S
C10835 H10838 0.999 . S
C10836 H10806 0.950 . S
C10836 C10835 1.524 . S
C10836 C10837 1.415 . S
C10837 H10807 0.950 . S
C10837 C10832 1.363 . S
C10837 C10836 1.415 . S
H10838 C10835 0.999 . S
H10839 C10820 0.913 . S
H10840 C10858 0.951 . S
H10841 C10860 0.951 . S
H10842 C10862 0.950 . S
H10843 C10863 0.950 . S
H10844 C10865 0.950 . S
H10845 C10868 0.950 . S
H10846 C10869 0.950 . S
H10847 C10871 0.950 . S
H10848 C10872 0.950 . S
H10849 C10873 0.951 . S
H10850 C10875 0.951 . S
H10851 C10877 0.950 . S
H10852 C10878 0.950 . S
H10853 C10880 0.950 . S
H10854 C10883 0.950 . S
H10855 C10884 0.950 . S
H10856 C10886 0.950 . S
H10857 C10887 0.950 . S
C10858 H10840 0.951 . S
C10858 C10859 1.366 . S
C10858 C10860 1.388 . S
C10859 C10858 1.366 . S
C10859 C10863 1.385 . S
C10860 H10841 0.951 . S
C10860 C10858 1.388 . S
C10860 C10861 1.366 . S
C10861 C10860 1.366 . S
C10861 C10862 1.414 . S
C10861 C10864 1.499 . S
C10862 H10842 0.950 . S
C10862 C10861 1.414 . S
C10862 C10863 1.374 . S
C10863 H10843 0.950 . S
C10863 C10859 1.385 . S
C10863 C10862 1.374 . S
C10864 C10861 1.499 . S
C10864 C10865 1.373 . S
C10864 C10866 1.389 . S
C10865 H10844 0.950 . S
C10865 C10864 1.373 . S
C10865 C10881 1.377 . S
C10866 C10864 1.389 . S
C10866 C10867 1.524 . S
C10866 C10880 1.377 . S
C10867 C10866 1.524 . S
C10867 C10868 1.397 . S
C10867 C10872 1.363 . S
C10868 H10845 0.950 . S
C10868 C10867 1.397 . S
C10868 C10869 1.334 . S
C10869 H10846 0.950 . S
C10869 C10868 1.334 . S
C10869 C10870 1.287 . S
C10870 C10869 1.287 . S
C10870 C10871 1.524 . S
C10870 H10889 0.913 . S
C10871 H10847 0.950 . S
C10871 C10870 1.524 . S
C10871 C10872 1.415 . S
C10872 H10848 0.950 . S
C10872 C10867 1.363 . S
C10872 C10871 1.415 . S
C10873 H10849 0.951 . S
C10873 C10874 1.366 . S
C10873 C10875 1.388 . S
C10874 C10873 1.366 . S
C10874 C10878 1.385 . S
C10875 H10850 0.951 . S
C10875 C10873 1.388 . S
C10875 C10876 1.366 . S
C10876 C10875 1.366 . S
C10876 C10877 1.414 . S
C10876 C10879 1.499 . S
C10877 H10851 0.950 . S
C10877 C10876 1.414 . S
C10877 C10878 1.374 . S
C10878 H10852 0.950 . S
C10878 C10874 1.385 . S
C10878 C10877 1.374 . S
C10879 C10876 1.499 . S
C10879 C10880 1.373 . S
C10879 C10881 1.389 . S
C10880 H10853 0.950 . S
C10880 C10866 1.377 . S
C10880 C10879 1.373 . S
C10881 C10865 1.377 . S
C10881 C10879 1.389 . S
C10881 C10882 1.524 . S
C10882 C10881 1.524 . S
C10882 C10883 1.397 . S
C10882 C10887 1.363 . S
C10883 H10854 0.950 . S
C10883 C10882 1.397 . S
C10883 C10884 1.334 . S
C10884 H10855 0.950 . S
C10884 C10883 1.334 . S
C10884 C10885 1.287 . S
C10885 C10884 1.287 . S
C10885 C10886 1.524 . S
C10885 H10888 0.999 . S
C10886 H10856 0.950 . S
C10886 C10885 1.524 . S
C10886 C10887 1.415 . S
C10887 H10857 0.950 . S
C10887 C10882 1.363 . S
C10887 C10886 1.415 . S
H10888 C10885 0.999 . S
H10889 C10870 0.913 . S
H10890 C10908 0.951 . S
H10891 C10910 0.951 . S
H10892 C10912 0.950 . S
H10893 C10913 0.950 . S
H10894 C10915 0.950 . S
H10895 C10918 0.950 . S
H10896 C10919 0.950 . S
H10897 C10921 0.950 . S
H10898 C10922 0.950 . S
H10899 C10923 0.951 . S
H10900 C10925 0.951 . S
H10901 C10927 0.950 . S
H10902 C10928 0.950 . S
H10903 C10930 0.950 . S
H10904 C10933 0.950 . S
H10905 C10934 0.950 . S
H10906 C10936 0.950 . S
H10907 C10937 0.950 . S
C10908 H10890 0.951 . S
C10908 C10909 1.366 . S
C10908 C10910 1.388 . S
C10909 C10908 1.366 . S
C10909 C10913 1.385 . S
C10910 H10891 0.951 . S
C10910 C10908 1.388 . S
C10910 C10911 1.366 . S
C10911 C10910 1.366 . S
C10911 C10912 1.414 . S
C10911 C10914 1.499 . S
C10912 H10892 0.950 . S
C10912 C10911 1.414 . S
C10912 C10913 1.374 . S
C10913 H10893 0.950 . S
C10913 C10909 1.385 . S
C10913 C10912 1.374 . S
C10914 C10911 1.499 . S
C10914 C10915 1.373 . S
C10914 C10916 1.389 . S
C10915 H10894 0.950 . S
C10915 C10914 1.373 . S
C10915 C10931 1.377 . S
C10916 C10914 1.389 . S
C10916 C10917 1.524 . S
C10916 C10930 1.377 . S
C10917 C10916 1.524 . S
C10917 C10918 1.397 . S
C10917 C10922 1.363 . S
C10918 H10895 0.950 . S
C10918 C10917 1.397 . S
C10918 C10919 1.334 . S
C10919 H10896 0.950 . S
C10919 C10918 1.334 . S
C10919 C10920 1.287 . S
C10920 C10919 1.287 . S
C10920 C10921 1.524 . S
C10920 H10939 0.913 . S
C10921 H10897 0.950 . S
C10921 C10920 1.524 . S
C10921 C10922 1.415 . S
C10922 H10898 0.950 . S
C10922 C10917 1.363 . S
C10922 C10921 1.415 . S
C10923 H10899 0.951 . S
C10923 C10924 1.366 . S
C10923 C10925 1.388 . S
C10924 C10923 1.366 . S
C10924 C10928 1.385 . S
C10925 H10900 0.951 . S
C10925 C10923 1.388 . S
C10925 C10926 1.366 . S
C10926 C10925 1.366 . S
C10926 C10927 1.414 . S
C10926 C10929 1.499 . S
C10927 H10901 0.950 . S
C10927 C10926 1.414 . S
C10927 C10928 1.374 . S
C10928 H10902 0.950 . S
C10928 C10924 1.385 . S
C10928 C10927 1.374 . S
C10929 C10926 1.499 . S
C10929 C10930 1.373 . S
C10929 C10931 1.389 . S
C10930 H10903 0.950 . S
C10930 C10916 1.377 . S
C10930 C10929 1.373 . S
C10931 C10915 1.377 . S
C10931 C10929 1.389 . S
C10931 C10932 1.524 . S
C10932 C10931 1.524 . S
C10932 C10933 1.397 . S
C10932 C10937 1.363 . S
C10933 H10904 0.950 . S
C10933 C10932 1.397 . S
C10933 C10934 1.334 . S
C10934 H10905 0.950 . S
C10934 C10933 1.334 . S
C10934 C10935 1.287 . S
C10935 C10934 1.287 . S
C10935 C10936 1.524 . S
C10935 H10938 0.999 . S
C10936 H10906 0.950 . S
C10936 C10935 1.524 . S
C10936 C10937 1.415 . S
C10937 H10907 0.950 . S
C10937 C10932 1.363 . S
C10937 C10936 1.415 . S
H10938 C10935 0.999 . S
H10939 C10920 0.913 . S
H10940 C10958 0.951 . S
H10941 C10960 0.951 . S
H10942 C10962 0.950 . S
H10943 C10963 0.950 . S
H10944 C10965 0.950 . S
H10945 C10968 0.950 . S
H10946 C10969 0.950 . S
H10947 C10971 0.950 . S
H10948 C10972 0.950 . S
H10949 C10973 0.951 . S
H10950 C10975 0.951 . S
H10951 C10977 0.950 . S
H10952 C10978 0.950 . S
H10953 C10980 0.950 . S
H10954 C10983 0.950 . S
H10955 C10984 0.950 . S
H10956 C10986 0.950 . S
H10957 C10987 0.950 . S
C10958 H10940 0.951 . S
C10958 C10959 1.366 . S
C10958 C10960 1.388 . S
C10959 C10958 1.366 . S
C10959 C10963 1.385 . S
C10960 H10941 0.951 . S
C10960 C10958 1.388 . S
C10960 C10961 1.366 . S
C10961 C10960 1.366 . S
C10961 C10962 1.414 . S
C10961 C10964 1.499 . S
C10962 H10942 0.950 . S
C10962 C10961 1.414 . S
C10962 C10963 1.374 . S
C10963 H10943 0.950 . S
C10963 C10959 1.385 . S
C10963 C10962 1.374 . S
C10964 C10961 1.499 . S
C10964 C10965 1.373 . S
C10964 C10966 1.389 . S
C10965 H10944 0.950 . S
C10965 C10964 1.373 . S
C10965 C10981 1.377 . S
C10966 C10964 1.389 . S
C10966 C10967 1.524 . S
C10966 C10980 1.377 . S
C10967 C10966 1.524 . S
C10967 C10968 1.397 . S
C10967 C10972 1.363 . S
C10968 H10945 0.950 . S
C10968 C10967 1.397 . S
C10968 C10969 1.334 . S
C10969 H10946 0.950 . S
C10969 C10968 1.334 . S
C10969 C10970 1.287 . S
C10970 C10969 1.287 . S
C10970 C10971 1.524 . S
C10970 H10989 0.913 . S
C10971 H10947 0.950 . S
C10971 C10970 1.524 . S
C10971 C10972 1.415 . S
C10972 H10948 0.950 . S
C10972 C10967 1.363 . S
C10972 C10971 1.415 . S
C10973 H10949 0.951 . S
C10973 C10974 1.366 . S
C10973 C10975 1.388 . S
C10974 C10973 1.366 . S
C10974 C10978 1.385 . S
C10975 H10950 0.951 . S
C10975 C10973 1.388 . S
C10975 C10976 1.366 . S
C10976 C10975 1.366 . S
C10976 C10977 1.414 . S
C10976 C10979 1.499 . S
C10977 H10951 0.950 . S
C10977 C10976 1.414 . S
C10977 C10978 1.374 . S
C10978 H10952 0.950 . S
C10978 C10974 1.385 . S
C10978 C10977 1.374 . S
C10979 C10976 1.499 . S
C10979 C10980 1.373 . S
C10979 C10981 1.389 . S
C10980 H10953 0.950 . S
C10980 C10966 1.377 . S
C10980 C10979 1.373 . S
C10981 C10965 1.377 . S
C10981 C10979 1.389 . S
C10981 C10982 1.524 . S
C10982 C10981 1.524 . S
C10982 C10983 1.397 . S
C10982 C10987 1.363 . S
C10983 H10954 0.950 . S
C10983 C10982 1.397 . S
C10983 C10984 1.334 . S
C10984 H10955 0.950 . S
C10984 C10983 1.334 . S
C10984 C10985 1.287 . S
C10985 C10984 1.287 . S
C10985 C10986 1.524 . S
C10985 H10988 0.999 . S
C10986 H10956 0.950 . S
C10986 C10985 1.524 . S
C10986 C10987 1.415 . S
C10987 H10957 0.950 . S
C10987 C10982 1.363 . S
C10987 C10986 1.415 . S
H10988 C10985 0.999 . S
H10989 C10970 0.913 . S
H10990 C11008 0.951 . S
H10991 C11010 0.951 . S
H10992 C11012 0.950 . S
H10993 C11013 0.950 . S
H10994 C11015 0.950 . S
H10995 C11018 0.950 . S
H10996 C11019 0.950 . S
H10997 C11021 0.950 . S
H10998 C11022 0.950 . S
H10999 C11023 0.951 . S
H11000 C11025 0.951 . S
H11001 C11027 0.950 . S
H11002 C11028 0.950 . S
H11003 C11030 0.950 . S
H11004 C11033 0.950 . S
H11005 C11034 0.950 . S
H11006 C11036 0.950 . S
H11007 C11037 0.950 . S
C11008 H10990 0.951 . S
C11008 C11009 1.366 . S
C11008 C11010 1.388 . S
C11009 C11008 1.366 . S
C11009 C11013 1.385 . S
C11010 H10991 0.951 . S
C11010 C11008 1.388 . S
C11010 C11011 1.366 . S
C11011 C11010 1.366 . S
C11011 C11012 1.414 . S
C11011 C11014 1.499 . S
C11012 H10992 0.950 . S
C11012 C11011 1.414 . S
C11012 C11013 1.374 . S
C11013 H10993 0.950 . S
C11013 C11009 1.385 . S
C11013 C11012 1.374 . S
C11014 C11011 1.499 . S
C11014 C11015 1.373 . S
C11014 C11016 1.389 . S
C11015 H10994 0.950 . S
C11015 C11014 1.373 . S
C11015 C11031 1.377 . S
C11016 C11014 1.389 . S
C11016 C11017 1.524 . S
C11016 C11030 1.377 . S
C11017 C11016 1.524 . S
C11017 C11018 1.397 . S
C11017 C11022 1.363 . S
C11018 H10995 0.950 . S
C11018 C11017 1.397 . S
C11018 C11019 1.334 . S
C11019 H10996 0.950 . S
C11019 C11018 1.334 . S
C11019 C11020 1.287 . S
C11020 C11019 1.287 . S
C11020 C11021 1.524 . S
C11020 H11039 0.913 . S
C11021 H10997 0.950 . S
C11021 C11020 1.524 . S
C11021 C11022 1.415 . S
C11022 H10998 0.950 . S
C11022 C11017 1.363 . S
C11022 C11021 1.415 . S
C11023 H10999 0.951 . S
C11023 C11024 1.366 . S
C11023 C11025 1.388 . S
C11024 C11023 1.366 . S
C11024 C11028 1.385 . S
C11025 H11000 0.951 . S
C11025 C11023 1.388 . S
C11025 C11026 1.366 . S
C11026 C11025 1.366 . S
C11026 C11027 1.414 . S
C11026 C11029 1.499 . S
C11027 H11001 0.950 . S
C11027 C11026 1.414 . S
C11027 C11028 1.374 . S
C11028 H11002 0.950 . S
C11028 C11024 1.385 . S
C11028 C11027 1.374 . S
C11029 C11026 1.499 . S
C11029 C11030 1.373 . S
C11029 C11031 1.389 . S
C11030 H11003 0.950 . S
C11030 C11016 1.377 . S
C11030 C11029 1.373 . S
C11031 C11015 1.377 . S
C11031 C11029 1.389 . S
C11031 C11032 1.524 . S
C11032 C11031 1.524 . S
C11032 C11033 1.397 . S
C11032 C11037 1.363 . S
C11033 H11004 0.950 . S
C11033 C11032 1.397 . S
C11033 C11034 1.334 . S
C11034 H11005 0.950 . S
C11034 C11033 1.334 . S
C11034 C11035 1.287 . S
C11035 C11034 1.287 . S
C11035 C11036 1.524 . S
C11035 H11038 0.999 . S
C11036 H11006 0.950 . S
C11036 C11035 1.524 . S
C11036 C11037 1.415 . S
C11037 H11007 0.950 . S
C11037 C11032 1.363 . S
C11037 C11036 1.415 . S
H11038 C11035 0.999 . S
H11039 C11020 0.913 . S
C3859 C15 1.383 . S
C3874 C2735 1.383 . S
C3909 C2615 1.382 . S
C3924 C55 1.382 . S
C3959 C95 1.382 . S
C3974 C2655 1.382 . S
C4009 C2695 1.382 . S
C4024 C135 1.382 . S
C4059 C175 1.382 . S
C4074 C2855 1.382 . S
C4109 C2775 1.382 . S
C4124 C215 1.382 . S
C4159 C2815 1.382 . S
C4174 C255 1.382 . S
C4209 C2575 1.383 . S
C4224 C295 1.383 . S
C4259 C335 1.383 . S
C4274 C2535 1.383 . S
C4309 C375 1.383 . S
C4324 C2415 1.383 . S
C4359 C415 1.382 . S
C4374 C2455 1.382 . S
C4409 C455 1.382 . S
C4424 C2495 1.382 . S
C4459 C2295 1.383 . S
C4474 C495 1.383 . S
C4509 C535 1.382 . S
C4524 C2335 1.382 . S
C4559 C2375 1.383 . S
C4574 C575 1.382 . S
C4609 C615 1.383 . S
C4624 C2255 1.383 . S
C4659 C655 1.382 . S
C4674 C2215 1.382 . S
C4709 C695 1.383 . S
C4724 C1975 1.383 . S
C4759 C735 1.383 . S
C4774 C2015 1.383 . S
C4809 C775 1.383 . S
C4824 C2055 1.383 . S
C4859 C1935 1.382 . S
C4874 C815 1.382 . S
C4909 C2135 1.382 . S
C4924 C855 1.382 . S
C4959 C2175 1.382 . S
C4974 C895 1.382 . S
C5009 C935 1.382 . S
C5024 C2095 1.382 . S
C5059 C3695 1.376 . S
C5074 C975 1.376 . S
C5109 C1015 1.376 . S
C5124 C3575 1.376 . S
C5159 C1055 1.377 . S
C5174 C3615 1.377 . S
C5209 C1095 1.376 . S
C5224 C3655 1.376 . S
C5259 C1135 1.376 . S
C5274 C3815 1.376 . S
C5309 C1175 1.376 . S
C5324 C3735 1.376 . S
C5359 C3775 1.376 . S
C5374 C1215 1.376 . S
C5409 C1255 1.377 . S
C5424 C3535 1.377 . S
C5459 C1295 1.376 . S
C5474 C3495 1.376 . S
C5509 C3375 1.377 . S
C5524 C1335 1.377 . S
C5559 C3415 1.376 . S
C5574 C1375 1.376 . S
C5609 C3455 1.377 . S
C5624 C1415 1.377 . S
C5659 C3255 1.376 . S
C5674 C1455 1.376 . S
C5709 C1495 1.377 . S
C5724 C3295 1.377 . S
C5759 C3335 1.377 . S
C5774 C1535 1.377 . S
C5809 C3215 1.377 . S
C5824 C1575 1.377 . S
C5859 C1615 1.377 . S
C5874 C3175 1.377 . S
C5909 C1655 1.376 . S
C5924 C2935 1.376 . S
C5959 C2975 1.376 . S
C5974 C1695 1.376 . S
C6009 C3015 1.377 . S
C6024 C1735 1.377 . S
C6059 C2895 1.377 . S
C6074 C1775 1.377 . S
C6109 C3095 1.376 . S
C6124 C1815 1.376 . S
C6159 C3135 1.377 . S
C6174 C1855 1.377 . S
C6209 C3055 1.377 . S
C6224 C1895 1.377 . S
C6259 C2 1.724 . S
C6274 C1562 1.689 . S
C6309 C1442 1.689 . S
C6324 C42 1.724 . S
C6359 C82 1.724 . S
C6374 C1482 1.689 . S
C6409 C1522 1.689 . S
C6424 C122 1.724 . S
C6459 C162 1.724 . S
C6474 C1322 1.689 . S
C6509 C202 1.724 . S
C6524 C1362 1.689 . S
C6559 C1402 1.689 . S
C6574 C242 1.724 . S
C6609 C282 1.724 . S
C6624 C1282 1.689 . S
C6659 C1242 1.689 . S
C6674 C322 1.724 . S
C6709 C1122 1.689 . S
C6724 C362 1.724 . S
C6759 C402 1.724 . S
C6774 C1162 1.689 . S
C6809 C442 1.724 . S
C6824 C1202 1.689 . S
C6859 C1002 1.689 . S
C6874 C482 1.724 . S
C6909 C522 1.724 . S
C6924 C1042 1.689 . S
C6959 C562 1.724 . S
C6974 C1082 1.689 . S
C7009 C602 1.724 . S
C7024 C962 1.689 . S
C7059 C1762 1.689 . S
C7074 C642 1.724 . S
C7109 C1882 1.689 . S
C7124 C682 1.724 . S
C7159 C722 1.724 . S
C7174 C1802 1.689 . S
C7209 C762 1.724 . S
C7224 C1842 1.689 . S
C7259 C1602 1.689 . S
C7274 C802 1.724 . S
C7309 C1682 1.689 . S
C7324 C842 1.724 . S
C7359 C1722 1.689 . S
C7374 C882 1.724 . S
C7409 C922 1.724 . S
C7424 C1642 1.689 . S
C7459 C3482 1.689 . S
C7474 C1922 1.724 . S
C7509 C3362 1.689 . S
C7524 C1962 1.724 . S
C7559 C3402 1.689 . S
C7574 C2002 1.724 . S
C7609 C2042 1.724 . S
C7624 C3442 1.689 . S
C7659 C3242 1.689 . S
C7674 C2082 1.724 . S
C7709 C2122 1.724 . S
C7724 C3282 1.689 . S
C7759 C3322 1.689 . S
C7774 C2162 1.724 . S
C7809 C3202 1.689 . S
C7824 C2202 1.724 . S
C7859 C2242 1.724 . S
C7874 C3162 1.689 . S
C7909 C2282 1.724 . S
C7924 C3042 1.689 . S
C7959 C3082 1.689 . S
C7974 C2322 1.724 . S
C8009 C3122 1.689 . S
C8024 C2362 1.724 . S
C8059 C2922 1.689 . S
C8074 C2402 1.724 . S
C8109 C2962 1.689 . S
C8124 C2442 1.724 . S
C8159 C3002 1.689 . S
C8174 C2482 1.724 . S
C8209 C2522 1.724 . S
C8224 C2882 1.689 . S
C8259 C3682 1.689 . S
C8274 C2562 1.724 . S
C8309 C3802 1.689 . S
C8324 C2602 1.724 . S
C8359 C2642 1.724 . S
C8374 C3722 1.689 . S
C8409 C2682 1.724 . S
C8424 C3762 1.689 . S
C8459 C2722 1.724 . S
C8474 C3522 1.689 . S
C8509 C2762 1.724 . S
C8524 C3602 1.689 . S
C8559 C3642 1.689 . S
C8574 C2802 1.724 . S
C8609 C3562 1.689 . S
C8624 C2842 1.724 . S
C8659 C1141 1.432 . S
C8674 C21 1.466 . S
C8709 C1181 1.431 . S
C8724 C61 1.466 . S
C8759 C1221 1.432 . S
C8774 C101 1.466 . S
C8809 C1261 1.431 . S
C8824 C141 1.466 . S
C8859 C981 1.432 . S
C8874 C181 1.466 . S
C8909 C221 1.466 . S
C8924 C1021 1.432 . S
C8959 C261 1.466 . S
C8974 C1061 1.432 . S
C9009 C1101 1.432 . S
C9024 C301 1.466 . S
C9059 C1541 1.431 . S
C9074 C341 1.467 . S
C9109 C381 1.466 . S
C9124 C1581 1.432 . S
C9159 C421 1.466 . S
C9174 C1461 1.432 . S
C9209 C1501 1.431 . S
C9224 C461 1.467 . S
C9259 C501 1.466 . S
C9274 C1381 1.431 . S
C9309 C541 1.466 . S
C9324 C1421 1.431 . S
C9359 C581 1.466 . S
C9374 C1301 1.431 . S
C9409 C1341 1.431 . S
C9424 C621 1.466 . S
C9459 C1821 1.432 . S
C9474 C661 1.466 . S
C9509 C1741 1.432 . S
C9524 C701 1.466 . S
C9559 C1781 1.432 . S
C9574 C741 1.466 . S
C9609 C1661 1.431 . S
C9624 C781 1.466 . S
C9659 C821 1.466 . S
C9674 C1701 1.432 . S
C9709 C1621 1.432 . S
C9724 C861 1.466 . S
C9759 C1901 1.431 . S
C9774 C901 1.466 . S
C9809 C1861 1.432 . S
C9824 C941 1.466 . S
C9859 C1941 1.466 . S
C9874 C3061 1.432 . S
C9909 C1981 1.467 . S
C9924 C3101 1.431 . S
C9959 C2021 1.467 . S
C9974 C3141 1.431 . S
C10009 C3181 1.432 . S
C10024 C2061 1.466 . S
C10059 C2901 1.432 . S
C10074 C2101 1.466 . S
C10109 C2141 1.466 . S
C10124 C2941 1.432 . S
C10159 C2981 1.431 . S
C10174 C2181 1.466 . S
C10209 C3021 1.432 . S
C10224 C2221 1.466 . S
C10259 C2261 1.466 . S
C10274 C3461 1.432 . S
C10309 C2301 1.466 . S
C10324 C3501 1.432 . S
C10359 C2341 1.466 . S
C10374 C3381 1.431 . S
C10409 C3421 1.431 . S
C10424 C2381 1.466 . S
C10459 C2421 1.466 . S
C10474 C3301 1.432 . S
C10509 C2461 1.466 . S
C10524 C3341 1.432 . S
C10559 C2501 1.466 . S
C10574 C3221 1.431 . S
C10609 C2541 1.466 . S
C10624 C3261 1.431 . S
C10659 C2581 1.466 . S
C10674 C3741 1.432 . S
C10709 C3661 1.432 . S
C10724 C2621 1.466 . S
C10759 C2661 1.466 . S
C10774 C3701 1.431 . S
C10809 C3581 1.431 . S
C10824 C2701 1.466 . S
C10859 C3621 1.431 . S
C10874 C2741 1.467 . S
C10909 C2781 1.467 . S
C10924 C3541 1.431 . S
C10959 C3821 1.432 . S
C10974 C2821 1.466 . S
C11009 C3781 1.432 . S
C11024 C2861 1.466 . S
