# Generated by pormake.
# Topology unb, (4)-cn, num edge types: 1
# Building blocks:
#     Node 0, Type 0, BuildingBlock: QUQFOY_clean_sbu_1, # of connection points: 4
#     Node 1, Type 0, BuildingBlock: QUQFOY_clean_sbu_1, # of connection points: 4
#     Node 2, Type 0, BuildingBlock: QUQFOY_clean_sbu_1, # of connection points: 4
#     Node 3, Type 0, BuildingBlock: QUQFOY_clean_sbu_1, # of connection points: 4
#     Node 4, Type 0, BuildingBlock: QUQFOY_clean_sbu_1, # of connection points: 4
#     Node 5, Type 0, BuildingBlock: QUQFOY_clean_sbu_1, # of connection points: 4
#     Node 6, Type 0, BuildingBlock: QUQFOY_clean_sbu_1, # of connection points: 4
#     Node 7, Type 0, BuildingBlock: QUQFOY_clean_sbu_1, # of connection points: 4
#     Node 8, Type 0, BuildingBlock: QUQFOY_clean_sbu_1, # of connection points: 4
#     Node 9, Type 0, BuildingBlock: QUQFOY_clean_sbu_1, # of connection points: 4
#     Node 10, Type 0, BuildingBlock: QUQFOY_clean_sbu_1, # of connection points: 4
#     Node 11, Type 0, BuildingBlock: QUQFOY_clean_sbu_1, # of connection points: 4
#     Node 12, Type 0, BuildingBlock: QUQFOY_clean_sbu_1, # of connection points: 4
#     Node 13, Type 0, BuildingBlock: QUQFOY_clean_sbu_1, # of connection points: 4
#     Node 14, Type 0, BuildingBlock: QUQFOY_clean_sbu_1, # of connection points: 4
#     Node 15, Type 0, BuildingBlock: QUQFOY_clean_sbu_1, # of connection points: 4
#     Node 16, Type 0, BuildingBlock: QUQFOY_clean_sbu_1, # of connection points: 4
#     Node 17, Type 0, BuildingBlock: QUQFOY_clean_sbu_1, # of connection points: 4
#     Edge 18, Type (0, 0), BuildingBlock: XIVTED_clean_linker_0, # of connection points: 2
#     Edge 19, Type (0, 0), BuildingBlock: XIVTED_clean_linker_0, # of connection points: 2
#     Edge 20, Type (0, 0), BuildingBlock: XIVTED_clean_linker_0, # of connection points: 2
#     Edge 21, Type (0, 0), BuildingBlock: XIVTED_clean_linker_0, # of connection points: 2
#     Edge 22, Type (0, 0), BuildingBlock: XIVTED_clean_linker_0, # of connection points: 2
#     Edge 23, Type (0, 0), BuildingBlock: XIVTED_clean_linker_0, # of connection points: 2
#     Edge 24, Type (0, 0), BuildingBlock: XIVTED_clean_linker_0, # of connection points: 2
#     Edge 25, Type (0, 0), BuildingBlock: XIVTED_clean_linker_0, # of connection points: 2
#     Edge 26, Type (0, 0), BuildingBlock: XIVTED_clean_linker_0, # of connection points: 2
#     Edge 27, Type (0, 0), BuildingBlock: XIVTED_clean_linker_0, # of connection points: 2
#     Edge 28, Type (0, 0), BuildingBlock: XIVTED_clean_linker_0, # of connection points: 2
#     Edge 29, Type (0, 0), BuildingBlock: XIVTED_clean_linker_0, # of connection points: 2
#     Edge 30, Type (0, 0), BuildingBlock: XIVTED_clean_linker_0, # of connection points: 2
#     Edge 31, Type (0, 0), BuildingBlock: XIVTED_clean_linker_0, # of connection points: 2
#     Edge 32, Type (0, 0), BuildingBlock: XIVTED_clean_linker_0, # of connection points: 2
#     Edge 33, Type (0, 0), BuildingBlock: XIVTED_clean_linker_0, # of connection points: 2
#     Edge 34, Type (0, 0), BuildingBlock: XIVTED_clean_linker_0, # of connection points: 2
#     Edge 35, Type (0, 0), BuildingBlock: XIVTED_clean_linker_0, # of connection points: 2
#     Edge 36, Type (0, 0), BuildingBlock: XIVTED_clean_linker_0, # of connection points: 2
#     Edge 37, Type (0, 0), BuildingBlock: XIVTED_clean_linker_0, # of connection points: 2
#     Edge 38, Type (0, 0), BuildingBlock: XIVTED_clean_linker_0, # of connection points: 2
#     Edge 39, Type (0, 0), BuildingBlock: XIVTED_clean_linker_0, # of connection points: 2
#     Edge 40, Type (0, 0), BuildingBlock: XIVTED_clean_linker_0, # of connection points: 2
#     Edge 41, Type (0, 0), BuildingBlock: XIVTED_clean_linker_0, # of connection points: 2
#     Edge 42, Type (0, 0), BuildingBlock: XIVTED_clean_linker_0, # of connection points: 2
#     Edge 43, Type (0, 0), BuildingBlock: XIVTED_clean_linker_0, # of connection points: 2
#     Edge 44, Type (0, 0), BuildingBlock: XIVTED_clean_linker_0, # of connection points: 2
#     Edge 45, Type (0, 0), BuildingBlock: XIVTED_clean_linker_0, # of connection points: 2
#     Edge 46, Type (0, 0), BuildingBlock: XIVTED_clean_linker_0, # of connection points: 2
#     Edge 47, Type (0, 0), BuildingBlock: XIVTED_clean_linker_0, # of connection points: 2
#     Edge 48, Type (0, 0), BuildingBlock: XIVTED_clean_linker_0, # of connection points: 2
#     Edge 49, Type (0, 0), BuildingBlock: XIVTED_clean_linker_0, # of connection points: 2
#     Edge 50, Type (0, 0), BuildingBlock: XIVTED_clean_linker_0, # of connection points: 2
#     Edge 51, Type (0, 0), BuildingBlock: XIVTED_clean_linker_0, # of connection points: 2
#     Edge 52, Type (0, 0), BuildingBlock: XIVTED_clean_linker_0, # of connection points: 2
#     Edge 53, Type (0, 0), BuildingBlock: XIVTED_clean_linker_0, # of connection points: 2
# Relax obj value: 0.082
# Max RMSD: 0.097
# Mean RMSD: 0.097
data_MOF--net-unb--node1-QUQFOY_clean_sbu_1--edge1-XIVTED_clean_linker_0
_symmetry_space_group_name_H-M    P1
_symmetry_Int_Tables_number       1
_symmetry_cell_setting            triclinic
loop_
_symmetry_equiv_pos_as_xyz
'x, y, z'
_cell_length_a     64.719479
_cell_length_b     64.507306
_cell_length_c     28.462218
_cell_angle_alpha  90.009436
_cell_angle_beta   90.096788
_cell_angle_gamma 119.70932
loop_
_atom_site_label
_atom_site_type_symbol
_atom_site_fract_x
_atom_site_fract_y
_atom_site_fract_z
_atom_type_partial_charge
O0 O 0.16806 0.27293 0.08411 0.0
Cd1 Cd 0.15193 0.2931 0.09429 0.0
Cd2 Cd 0.11207 0.25241 0.0604 0.0
O3 O 0.13465 0.23905 0.07275 0.0
O4 O 0.16921 0.31737 0.14394 0.0
O5 O 0.13232 0.28731 0.15229 0.0
C6 C 0.15058 0.30583 0.16993 0.0
C7 C 0.0715 0.22445 0.05479 0.0
C8 C 0.15715 0.25053 0.07718 0.0
C9 C 0.13523 0.29797 1.00144 0.0
O10 O 0.1205 0.2759 1.00569 0.0
O11 O 0.14939 0.30962 0.03462 0.0
O12 O 0.08691 0.22379 0.02753 0.0
O13 O 0.0791 0.24028 0.08771 0.0
O14 O 0.70859 0.90325 0.06977 0.0
Cd15 Cd 0.68792 0.86729 0.08238 0.0
Cd16 Cd 0.72741 0.86474 0.05039 0.0
O17 O 0.74062 0.90109 0.05137 0.0
O18 O 0.6646 0.861 0.13351 0.0
O19 O 0.69463 0.8537 0.13993 0.0
C20 C 0.67639 0.85368 0.15859 0.0
C21 C 0.75603 0.85253 0.04747 0.0
C22 C 0.73026 0.91328 0.05721 0.0
C23 C 0.68103 0.84102 0.99394 0.0
O24 O 0.70236 0.84591 1.00017 0.0
O25 O 0.67076 0.84748 0.02373 0.0
O26 O 0.75385 0.86494 0.01474 0.0
O27 O 0.7428 0.84803 0.08413 0.0
O28 O 0.08554 0.81882 0.08302 0.0
Cd29 Cd 0.12065 0.82972 0.09589 0.0
Cd30 Cd 0.127 0.87298 0.05296 0.0
O31 O 0.09046 0.85267 0.05375 0.0
O32 O 0.12035 0.80782 0.14535 0.0
O33 O 0.13695 0.84691 0.15551 0.0
C34 C 0.13134 0.82618 0.17242 0.0
C35 C 0.14098 0.91376 0.04102 0.0
C36 C 0.07698 0.83105 0.06542 0.0
C37 C 0.14778 0.84403 1.00744 0.0
O38 O 0.14534 0.86232 0.00979 0.0
O39 O 0.13898 0.82786 0.0386 0.0
O40 O 0.12923 0.89808 0.0095 0.0
O41 O 0.1443 0.90636 0.08089 0.0
O42 O 0.26706 0.1846 0.938 0.0
Cd43 Cd 0.29038 0.17221 0.9262 0.0
Cd44 Cd 0.25181 0.12875 0.96056 0.0
O45 O 0.23644 0.15004 0.95877 0.0
O46 O 0.31302 0.19284 0.87686 0.0
O47 O 0.28858 0.15403 0.86742 0.0
C48 C 0.30474 0.17417 0.85031 0.0
C49 C 0.22446 0.08786 0.96762 0.0
C50 C 0.24559 0.17228 0.9513 0.0
C51 C 0.29912 0.15453 0.01502 0.0
O52 O 0.27828 0.13716 0.00895 0.0
O53 O 0.30839 0.17145 0.98541 0.0
O54 O 0.22689 0.10296 0.99939 0.0
O55 O 0.23687 0.09598 0.92982 0.0
O56 O 0.80929 0.09338 0.93681 0.0
Cd57 Cd 0.82983 0.12982 0.92651 0.0
Cd58 Cd 0.86318 0.12071 0.94919 0.0
O59 O 0.83944 0.08734 0.92489 0.0
O60 O 0.8148 0.14093 0.87917 0.0
O61 O 0.84841 0.14039 0.8668 0.0
C62 C 0.83192 0.14439 0.85115 0.0
C63 C 0.90405 0.13667 0.94309 0.0
C64 C 0.81728 0.0791 0.93079 0.0
C65 C 0.84827 0.14433 0.02051 0.0
O66 O 0.85567 0.12972 0.01335 0.0
O67 O 0.83961 0.15046 0.98669 0.0
O68 O 0.8911 0.11731 0.96605 0.0
O69 O 0.89354 0.14599 0.91979 0.0
O70 O 0.89829 0.7235 0.94586 0.0
Cd71 Cd 0.86263 0.69959 0.93859 0.0
Cd72 Cd 0.85939 0.73903 0.97497 0.0
O73 O 0.8956 0.75516 0.96581 0.0
O74 O 0.86052 0.67589 0.89118 0.0
O75 O 0.84512 0.69943 0.87981 0.0
C76 C 0.8496 0.6833 0.86385 0.0
C77 C 0.84408 0.7651 0.98116 0.0
C78 C 0.90809 0.74548 0.9566 0.0
C79 C 0.84113 0.69269 0.03235 0.0
O80 O 0.84498 0.71382 0.02689 0.0
O81 O 0.84619 0.68234 1.00006 0.0
O82 O 0.85833 0.76462 0.0119 0.0
O83 O 0.83912 0.75141 0.94495 0.0
O84 O 0.82291 0.58769 0.43541 0.0
Cd85 Cd 0.82285 0.61901 0.44809 0.0
Cd86 Cd 0.78283 0.59834 0.38997 0.0
O87 O 0.80193 0.58178 0.37078 0.0
O88 O 0.84484 0.63489 0.50186 0.0
O89 O 0.80638 0.6232 0.50428 0.0
C90 C 0.82681 0.63277 0.52523 0.0
C91 C 0.74265 0.57552 0.37 0.0
C92 C 0.8154 0.57728 0.39613 0.0
C93 C 0.81878 0.64628 0.36916 0.0
O94 O 0.79687 0.63422 0.37889 0.0
O95 O 0.83332 0.6418 0.39071 0.0
O96 O 0.75875 0.58642 0.33876 0.0
O97 O 0.74925 0.57776 0.4134 0.0
O98 O 0.39102 0.23382 0.41737 0.0
Cd99 Cd 0.36619 0.19928 0.43361 0.0
Cd100 Cd 0.39955 0.18931 0.38316 0.0
O101 O 0.41562 0.22593 0.37766 0.0
O102 O 0.34654 0.20225 0.48422 0.0
O103 O 0.3669 0.18336 0.49423 0.0
C104 C 0.35317 0.19067 0.5115 0.0
C105 C 0.42562 0.17476 0.36623 0.0
C106 C 0.40963 0.24074 0.39273 0.0
C107 C 0.34862 0.1697 0.34716 0.0
O108 O 0.36819 0.16965 0.34741 0.0
O109 O 0.34408 0.18104 0.37817 0.0
O110 O 0.41903 0.18453 0.3349 0.0
O111 O 0.41788 0.17355 0.40842 0.0
O112 O 0.75659 0.13959 0.41645 0.0
Cd113 Cd 0.79238 0.15654 0.43305 0.0
Cd114 Cd 0.79214 0.19701 0.39897 0.0
O115 O 0.75635 0.17309 0.40205 0.0
O116 O 0.79864 0.13994 0.4853 0.0
O117 O 0.80379 0.17652 0.49141 0.0
C118 C 0.80469 0.15877 0.51046 0.0
C119 C 0.80221 0.23723 0.39378 0.0
C120 C 0.7454 0.1505 0.40572 0.0
C121 C 0.81935 0.17656 0.34621 0.0
O122 O 0.81146 0.19098 0.34941 0.0
O123 O 0.8149 0.16116 0.37809 0.0
O124 O 0.78987 0.22192 0.36211 0.0
O125 O 0.80797 0.22956 0.4306 0.0
O126 O 0.91257 0.5006 0.25505 0.0
Cd127 Cd 0.94077 0.49471 0.24584 0.0
Cd128 Cd 0.91037 0.45124 0.29673 0.0
O129 O 0.89205 0.4697 0.30161 0.0
O130 O 0.96031 0.51695 0.19477 0.0
O131 O 0.9433 0.47769 0.18841 0.0
C132 C 0.95593 0.49854 0.16973 0.0
C133 C 0.88638 0.41045 0.31326 0.0
C134 C 0.89498 0.48865 0.28201 0.0
C135 C 0.95964 0.48545 0.33421 0.0
O136 O 0.94201 0.46449 0.33187 0.0
O137 O 0.96212 0.50131 0.30467 0.0
O138 O 0.89174 0.42657 0.34465 0.0
O139 O 0.89423 0.41734 0.27127 0.0
O140 O 0.47752 0.41758 0.25979 0.0
Cd141 Cd 0.492 0.45392 0.24923 0.0
Cd142 Cd 0.53084 0.45274 0.28124 0.0
O143 O 0.51133 0.41729 0.26455 0.0
O144 O 0.47112 0.45735 0.20203 0.0
O145 O 0.50917 0.46939 0.18913 0.0
C146 C 0.48909 0.46655 0.17388 0.0
C147 C 0.57226 0.47047 0.28195 0.0
C148 C 0.48878 0.40614 0.26287 0.0
C149 C 0.50674 0.47261 0.34403 0.0
O150 O 0.5201 0.46354 0.3396 0.0
O151 O 0.4949 0.47341 0.30906 0.0
O152 O 0.55907 0.45336 0.30988 0.0
O153 O 0.56187 0.47674 0.25089 0.0
O154 O 0.56665 0.04681 0.27882 0.0
Cd155 Cd 0.53018 0.03088 0.26878 0.0
Cd156 Cd 0.5391 0.07402 0.29156 0.0
O157 O 0.57267 0.08328 0.26975 0.0
O158 O 0.51912 0.0047 0.22132 0.0
O159 O 0.51912 0.03865 0.20887 0.0
C160 C 0.5153 0.0182 0.19327 0.0
C161 C 0.52494 0.10091 0.28693 0.0
C162 C 0.58086 0.06911 0.27454 0.0
C163 C 0.51569 0.03491 0.36301 0.0
O164 O 0.52924 0.05692 0.35497 0.0
O165 O 0.51006 0.01987 0.32978 0.0
O166 O 0.54295 0.10508 0.31261 0.0
O167 O 0.51605 0.08227 0.26025 0.0
O168 O 0.50967 0.93893 0.76277 0.0
Cd169 Cd 0.4951 0.96057 0.77619 0.0
Cd170 Cd 0.45377 0.92227 0.73336 0.0
O171 O 0.4771 0.90949 0.73093 0.0
O172 O 0.51336 0.98345 0.82767 0.0
O173 O 0.47575 0.95499 0.83496 0.0
C174 C 0.49452 0.97265 0.85335 0.0
C175 C 0.41361 0.89328 0.72397 0.0
C176 C 0.49878 0.9186 0.74291 0.0
C177 C 0.47769 0.97154 0.68765 0.0
O178 O 0.46105 0.95007 0.6897 0.0
O179 O 0.49368 0.98002 0.71932 0.0
O180 O 0.42907 0.89779 0.69176 0.0
O181 O 0.42102 0.90446 0.76336 0.0
O182 O 0.05003 0.56903 0.74878 0.0
Cd183 Cd 0.02506 0.53372 0.75769 0.0
Cd184 Cd 0.06273 0.52759 0.718 0.0
O185 O 0.07977 0.56411 0.72489 0.0
O186 O 0.00252 0.53341 0.80575 0.0
O187 O 0.02427 0.51602 0.81675 0.0
C188 C 0.0091 0.52174 0.83298 0.0
C189 C 0.08866 0.51234 0.70742 0.0
C190 C 0.07143 0.57767 0.73534 0.0
C191 C 0.01537 0.51022 0.66488 0.0
O192 O 0.0359 0.51251 0.6692 0.0
O193 O 0.00667 0.51725 0.69704 0.0
O194 O 0.08679 0.52601 0.67715 0.0
O195 O 0.07633 0.50773 0.74541 0.0
O196 O 0.41809 0.48249 0.74687 0.0
Cd197 Cd 0.4541 0.49712 0.75958 0.0
Cd198 Cd 0.45384 0.53723 0.72187 0.0
O199 O 0.41794 0.51595 0.7318 0.0
O200 O 0.4566 0.4762 0.80815 0.0
O201 O 0.46903 0.51454 0.82 0.0
C202 C 0.46573 0.49437 0.83605 0.0
C203 C 0.46782 0.57839 0.71757 0.0
C204 C 0.40684 0.49349 0.7376 0.0
C205 C 0.47614 0.51229 0.66663 0.0
O206 O 0.46866 0.5271 0.66931 0.0
O207 O 0.47397 0.49897 0.70137 0.0
O208 O 0.45345 0.56372 0.68695 0.0
O209 O 0.4737 0.56966 0.75254 0.0
O210 O 0.59685 0.84307 0.58667 0.0
Cd211 Cd 0.62116 0.83209 0.57465 0.0
Cd212 Cd 0.59037 0.79175 0.62797 0.0
O213 O 0.57994 0.81664 0.64357 0.0
O214 O 0.64257 0.85098 0.52222 0.0
O215 O 0.61766 0.81197 0.5181 0.0
C216 C 0.63361 0.8314 0.49833 0.0
C217 C 0.56148 0.75222 0.64466 0.0
C218 C 0.58294 0.83511 0.62168 0.0
C219 C 0.64032 0.81867 0.65677 0.0
O220 O 0.62313 0.79787 0.6496 0.0
O221 O 0.64211 0.83599 0.63253 0.0
O222 O 0.57176 0.76782 0.67716 0.0
O223 O 0.56699 0.75913 0.60171 0.0
O224 O 0.1462 0.75445 0.59943 0.0
Cd225 Cd 0.15852 0.79004 0.58741 0.0
Cd226 Cd 0.20078 0.79424 0.62901 0.0
O227 O 0.17963 0.7577 0.62673 0.0
O228 O 0.13747 0.79121 0.53778 0.0
O229 O 0.17629 0.80626 0.52841 0.0
C230 C 0.15596 0.80171 0.51117 0.0
C231 C 0.24136 0.80731 0.63956 0.0
C232 C 0.15783 0.74498 0.61577 0.0
C233 C 0.17352 0.81619 0.67705 0.0
O234 O 0.19105 0.8126 0.67435 0.0
O235 O 0.15762 0.80864 0.64531 0.0
O236 O 0.22581 0.79522 0.67089 0.0
O237 O 0.23389 0.81141 0.60052 0.0
O238 O 0.23155 0.38369 0.59717 0.0
Cd239 Cd 0.19596 0.36164 0.5839 0.0
Cd240 Cd 0.1904 0.39852 0.62427 0.0
O241 O 0.22688 0.4131 0.6249 0.0
O242 O 0.1909 0.34002 0.52997 0.0
O243 O 0.181 0.36844 0.52871 0.0
C244 C 0.18203 0.35122 0.50753 0.0
C245 C 0.17732 0.42628 0.63357 0.0
C246 C 0.24023 0.40449 0.61464 0.0
C247 C 0.16762 0.34929 0.67067 0.0
O248 O 0.17066 0.37023 0.66796 0.0
O249 O 0.17659 0.34166 0.64034 0.0
O250 O 0.18888 0.42246 0.66577 0.0
O251 O 0.17398 0.41512 0.59425 0.0
H252 H 0.18037 0.37981 0.43824 0.0
H253 H 0.12506 0.2775 0.24348 0.0
H254 H 0.1652 0.30782 0.46543 0.0
H255 H 0.17734 0.35001 0.20908 0.0
H256 H 0.12976 0.28858 0.32699 0.0
H257 H 0.16956 0.36904 0.35533 0.0
C258 C 0.17447 0.36169 0.42688 0.0
C259 C 0.17382 0.3447 0.45851 0.0
C260 C 0.13995 0.30207 0.30097 0.0
C261 C 0.1611 0.33227 0.36454 0.0
C262 C 0.13719 0.29582 0.25343 0.0
C263 C 0.15095 0.31285 0.21946 0.0
C264 C 0.15615 0.3256 0.31439 0.0
C265 C 0.16654 0.33632 0.23426 0.0
C266 C 0.16842 0.35562 0.3797 0.0
C267 C 0.16614 0.32149 0.44202 0.0
N268 N 0.16871 0.34203 0.28068 0.0
N269 N 0.15999 0.31592 0.39616 0.0
H270 H 0.67643 0.86168 0.45839 0.0
H271 H 0.63229 0.83481 0.19793 0.0
H272 H 0.60724 0.80201 0.42628 0.0
H273 H 0.7053 0.85677 0.23165 0.0
H274 H 0.62206 0.8262 0.28132 0.0
H275 H 0.68721 0.86402 0.37519 0.0
C276 C 0.66358 0.84898 0.43383 0.0
C277 C 0.64092 0.83163 0.4491 0.0
C278 C 0.64025 0.83265 0.27029 0.0
C279 C 0.65294 0.83457 0.3541 0.0
C280 C 0.64612 0.83765 0.22287 0.0
C281 C 0.66967 0.84651 0.208 0.0
C282 C 0.6582 0.83723 0.30317 0.0
C283 C 0.68691 0.84985 0.2417 0.0
C284 C 0.66978 0.85027 0.38653 0.0
C285 C 0.62494 0.81557 0.41591 0.0
N286 N 0.68092 0.84559 0.28792 0.0
N287 N 0.6311 0.81768 0.36973 0.0
H288 H 0.19044 0.83391 0.45169 0.0
H289 H 0.10939 0.78565 0.22462 0.0
H290 H 0.11577 0.78151 0.45791 0.0
H291 H 0.16412 0.85964 0.23305 0.0
H292 H 0.11606 0.78072 0.30734 0.0
H293 H 0.18536 0.841 0.36847 0.0
C294 C 0.17302 0.82396 0.43561 0.0
C295 C 0.15348 0.80713 0.46169 0.0
C296 C 0.12663 0.79802 0.29104 0.0
C297 C 0.14775 0.81476 0.36699 0.0
C298 C 0.12295 0.80084 0.24379 0.0
C299 C 0.1362 0.82312 0.22198 0.0
C300 C 0.14402 0.81747 0.31656 0.0
C301 C 0.15346 0.8422 0.24867 0.0
C302 C 0.17015 0.82806 0.38835 0.0
C303 C 0.13129 0.79473 0.43922 0.0
N304 N 0.15702 0.83892 0.29465 0.0
N305 N 0.12909 0.79861 0.39309 0.0
H306 H 0.35178 0.157 0.57291 0.0
H307 H 0.3268 0.21444 0.79712 0.0
H308 H 0.33823 0.21598 0.56396 0.0
H309 H 0.30112 0.13868 0.79123 0.0
H310 H 0.33866 0.21776 0.71479 0.0
H311 H 0.34012 0.15211 0.65631 0.0
C312 C 0.34638 0.16889 0.58846 0.0
C313 C 0.3459 0.18688 0.56149 0.0
C314 C 0.33048 0.20042 0.73157 0.0
C315 C 0.33309 0.18169 0.65648 0.0
C316 C 0.32382 0.19851 0.77862 0.0
C317 C 0.31288 0.17623 0.80105 0.0
C318 C 0.32664 0.17999 0.70684 0.0
C319 C 0.30939 0.15618 0.77517 0.0
C320 C 0.33967 0.16604 0.63585 0.0
C321 C 0.33873 0.20179 0.58333 0.0
N322 N 0.31638 0.15854 0.7294 0.0
N323 N 0.33283 0.19901 0.62957 0.0
H324 H 0.82188 0.13227 0.55189 0.0
H325 H 0.80717 0.16441 0.81246 0.0
H326 H 0.80389 0.18698 0.58173 0.0
H327 H 0.85544 0.13887 0.77673 0.0
H328 H 0.80337 0.17096 0.72881 0.0
H329 H 0.83176 0.13209 0.63484 0.0
C330 C 0.8201 0.14431 0.5759 0.0
C331 C 0.81198 0.15961 0.55999 0.0
C332 C 0.81501 0.16421 0.7394 0.0
C333 C 0.82297 0.15928 0.65498 0.0
C334 C 0.81715 0.16041 0.78705 0.0
C335 C 0.83159 0.15101 0.80152 0.0
C336 C 0.82696 0.15804 0.70595 0.0
C337 C 0.84415 0.14619 0.76713 0.0
C338 C 0.82586 0.14429 0.62315 0.0
C339 C 0.81013 0.17494 0.59258 0.0
N340 N 0.84127 0.14942 0.72087 0.0
N341 N 0.81527 0.17417 0.63872 0.0
H342 H 0.82042 0.68878 0.8004 0.0
H343 H 0.86367 0.64212 0.58404 0.0
H344 H 0.86626 0.65828 0.81509 0.0
H345 H 0.79631 0.64067 0.58 0.0
H346 H 0.86792 0.65361 0.66668 0.0
H347 H 0.81379 0.6761 0.71758 0.0
C348 C 0.82897 0.67932 0.78634 0.0
C349 C 0.84391 0.67457 0.81474 0.0
C350 C 0.85219 0.65076 0.64776 0.0
C351 C 0.83675 0.66049 0.72021 0.0
C352 C 0.8498 0.64433 0.60047 0.0
C353 C 0.82958 0.64039 0.57505 0.0
C354 C 0.83443 0.6537 0.66985 0.0
C355 C 0.81214 0.64345 0.59837 0.0
C356 C 0.82515 0.67209 0.73919 0.0
C357 C 0.85454 0.66227 0.79466 0.0
N358 N 0.81503 0.65008 0.64447 0.0
N359 N 0.85095 0.65589 0.74863 0.0
H360 H 0.97143 0.53794 0.11453 0.0
H361 H 0.01096 0.48982 0.89489 0.0
H362 H 0.95954 0.46594 0.1126 0.0
H363 H -0.01218 0.54189 0.88326 0.0
H364 H -0.0021 0.48319 0.97744 0.0
H365 H 0.98395 0.54256 0.03255 0.0
C366 C 0.97158 0.52312 0.09695 0.0
C367 C 0.96436 0.50148 0.12047 0.0
C368 C -0.00439 0.49594 0.95656 0.0
C369 C 0.97886 0.50676 0.02645 0.0
C370 C 0.00308 0.49977 0.90959 0.0
C371 C 0.00043 0.5164 0.8821 0.0
C372 C 0.98597 0.50925 0.97631 0.0
C373 C -0.00988 0.52882 0.90296 0.0
C374 C 0.97861 0.52574 0.05005 0.0
C375 C 0.96487 0.48288 0.09571 0.0
N376 N 0.9835 0.52516 0.94882 0.0
N377 N 0.97213 0.48598 0.05003 0.0
H378 H 0.44816 0.44775 0.12294 0.0
H379 H 0.4977 0.52855 0.8967 0.0
H380 H 0.52328 0.49806 0.11292 0.0
H381 H 0.44514 0.45381 0.88834 0.0
H382 H 0.50452 0.52291 0.97987 0.0
H383 H 0.44342 0.45533 0.04053 0.0
C384 C 0.46363 0.46058 0.10353 0.0
C385 C 0.48617 0.47226 0.12477 0.0
C386 C 0.49159 0.50781 0.95954 0.0
C387 C 0.48075 0.48118 0.03064 0.0
C388 C 0.48764 0.51101 0.91232 0.0
C389 C 0.47089 0.49159 0.88562 0.0
C390 C 0.47815 0.48525 0.9803 0.0
C391 C 0.45833 0.46923 0.90752 0.0
C392 C 0.46091 0.46477 0.05648 0.0
C393 C 0.50562 0.48861 0.09776 0.0
N394 N 0.46201 0.46673 0.95367 0.0
N395 N 0.50245 0.49275 0.05204 0.0
H396 H 0.4939 0.97316 0.15587 0.0
H397 H 0.52388 0.01612 0.89291 0.0
H398 H 0.52128 0.04692 0.11777 0.0
H399 H 0.46622 0.94591 0.92637 0.0
H400 H 0.52605 0.0274 0.9757 0.0
H401 H 0.48607 0.96213 0.0726 0.0
C402 C 0.49807 0.987 0.13003 0.0
C403 C 0.50828 0.011 0.14375 0.0
C404 C 0.51279 0.00959 0.96483 0.0
C405 C 0.49983 -0.00145 0.04852 0.0
C406 C 0.5116 0.00311 0.91767 0.0
C407 C 0.49487 0.98002 0.90277 0.0
C408 C 0.49753 -0.00729 0.99763 0.0
C409 C 0.47934 0.96391 0.93635 0.0
C410 C 0.49354 0.98068 0.08259 0.0
C411 C 0.51331 0.0282 0.10877 0.0
N412 N 0.48126 0.97044 0.98238 0.0
N413 N 0.50937 0.02169 0.0627 0.0
H414 H 0.10038 0.29259 0.9407 0.0
H415 H 0.18311 0.32374 0.72044 0.0
H416 H 0.17655 0.32547 0.95516 0.0
H417 H 0.13089 0.34677 0.72179 0.0
H418 H 0.17406 0.31203 0.80313 0.0
H419 H 0.10552 0.30283 0.8566 0.0
C420 C 0.11817 0.30242 0.92627 0.0
C421 C 0.13813 0.30854 0.95465 0.0
C422 C 0.16432 0.31924 0.78485 0.0
C423 C 0.1439 0.3189 0.85914 0.0
C424 C 0.16916 0.32553 0.73767 0.0
C425 C 0.15765 0.33615 0.71453 0.0
C426 C 0.14751 0.32311 0.80837 0.0
C427 C 0.14006 0.33858 0.73864 0.0
C428 C 0.12103 0.30802 0.87853 0.0
C429 C 0.16079 0.32085 0.93445 0.0
N430 N 0.13548 0.3321 0.78451 0.0
N431 N 0.16307 0.32526 0.88756 0.0
H432 H 0.65018 0.78849 0.70708 0.0
H433 H 0.65217 0.85265 0.94458 0.0
H434 H 0.65637 0.85822 0.71158 0.0
H435 H 0.6879 0.81134 0.93598 0.0
H436 H 0.64499 0.8477 0.85971 0.0
H437 H 0.65867 0.79147 0.79169 0.0
C438 C 0.65402 0.80469 0.72559 0.0
C439 C 0.65264 0.82317 0.70233 0.0
C440 C 0.65411 0.83946 0.87666 0.0
C441 C 0.66106 0.82607 0.79882 0.0
C442 C 0.6578 0.84188 0.9251 0.0
C443 C 0.67063 0.83238 0.94714 0.0
C444 C 0.66294 0.82711 0.85047 0.0
C445 C 0.67794 0.81894 0.92011 0.0
C446 C 0.65857 0.80624 0.7738 0.0
C447 C 0.65747 0.84366 0.72801 0.0
N448 N 0.67404 0.81673 0.873 0.0
N449 N 0.66096 0.84435 0.77514 0.0
H450 H 0.18453 0.8766 0.95444 0.0
H451 H 0.13175 0.80118 0.72325 0.0
H452 H 0.12948 0.80269 0.9579 0.0
H453 H 0.20724 0.84977 0.73431 0.0
H454 H 0.12754 0.80787 0.80668 0.0
H455 H 0.19149 0.87196 0.87126 0.0
C456 C 0.1744 0.85925 0.93794 0.0
C457 C 0.15661 0.8399 0.96293 0.0
C458 C 0.14495 0.8173 0.7905 0.0
C459 C 0.16352 0.83494 0.868 0.0
C460 C 0.14729 0.81385 0.74286 0.0
C461 C 0.16986 0.82503 0.72208 0.0
C462 C 0.16524 0.83236 0.81699 0.0
C463 C 0.18954 0.84089 0.74923 0.0
C464 C 0.17819 0.85671 0.89059 0.0
C465 C 0.14361 0.81791 0.93995 0.0
N466 N 0.1868 0.84412 0.79547 0.0
N467 N 0.147 0.81612 0.89338 0.0
H468 H 0.34029 0.13183 0.29174 0.0
H469 H 0.32477 0.19468 0.06747 0.0
H470 H 0.32739 0.19118 0.3016 0.0
H471 H 0.29673 0.11849 0.06863 0.0
H472 H 0.33346 0.19587 0.15168 0.0
H473 H 0.32893 0.12733 0.20851 0.0
C474 C 0.33432 0.14339 0.27671 0.0
C475 C 0.3346 0.16179 0.30352 0.0
C476 C 0.32566 0.17896 0.13323 0.0
C477 C 0.32295 0.15759 0.20837 0.0
C478 C 0.32114 0.17834 0.08514 0.0
C479 C 0.31015 0.15648 0.06123 0.0
C480 C 0.31952 0.15764 0.15712 0.0
C481 C 0.3053 0.13571 0.08596 0.0
C482 C 0.32814 0.14101 0.22924 0.0
C483 C 0.32712 0.17658 0.28229 0.0
N484 N 0.31004 0.13678 0.13268 0.0
N485 N 0.32209 0.1745 0.2356 0.0
H486 H 0.83715 0.17813 0.05039 0.0
H487 H 0.83415 0.14504 0.31927 0.0
H488 H 0.86081 0.13017 0.1007 0.0
H489 H 0.8305 0.20672 0.27156 0.0
H490 H 0.84597 0.14041 0.24008 0.0
H491 H 0.83578 0.18975 0.13167 0.0
C492 C 0.8422 0.17018 0.07844 0.0
C493 C 0.84886 0.15299 0.06877 0.0
C494 C 0.84292 0.15517 0.24722 0.0
C495 C 0.84726 0.16608 0.16165 0.0
C496 C 0.83624 0.15785 0.29245 0.0
C497 C 0.83094 0.17604 0.3019 0.0
C498 C 0.84401 0.17063 0.21126 0.0
C499 C 0.83405 0.19219 0.26578 0.0
C500 C 0.84152 0.17687 0.1248 0.0
C501 C 0.85539 0.14337 0.1065 0.0
N502 N 0.84 0.18888 0.2219 0.0
N503 N 0.85417 0.14984 0.15129 0.0
H504 H 0.85331 0.6626 0.0767 0.0
H505 H 0.79642 0.66654 0.32245 0.0
H506 H 0.81464 0.70047 0.09647 0.0
H507 H 0.85462 0.65222 0.31031 0.0
H508 H 0.80033 0.67652 0.23884 0.0
H509 H 0.84954 0.65362 0.16107 0.0
C510 C 0.8435 0.66847 0.09857 0.0
C511 C 0.83425 0.68226 0.0797 0.0
C512 C 0.81248 0.67154 0.25466 0.0
C513 C 0.83035 0.67258 0.17594 0.0
C514 C 0.81042 0.6661 0.30244 0.0
C515 C 0.82526 0.65862 0.32339 0.0
C516 C 0.8292 0.66905 0.22747 0.0
C517 C 0.84295 0.65811 0.29572 0.0
C518 C 0.84171 0.66371 0.14676 0.0
C519 C 0.82205 0.6898 0.10971 0.0
N520 N 0.84419 0.66288 0.24896 0.0
N521 N 0.82051 0.68492 0.15636 0.0
H522 H 0.97706 0.52675 0.38465 0.0
H523 H 0.01649 0.47813 0.60458 0.0
H524 H 0.97265 0.45781 0.38415 0.0
H525 H -0.00978 0.52758 0.61834 0.0
H526 H 0.0059 0.47343 0.52113 0.0
H527 H -0.01025 0.53186 0.46717 0.0
C528 C 0.97956 0.51307 0.40142 0.0
C529 C 0.9739 0.49185 0.37766 0.0
C530 C 0.00218 0.48507 0.54255 0.0
C531 C -0.01224 0.49731 0.47184 0.0
C532 C 0.00799 0.48758 0.59017 0.0
C533 C 0.00397 0.50306 0.61837 0.0
C534 C -0.00718 0.49858 0.52278 0.0
C535 C -0.00675 0.51517 0.59792 0.0
C536 C 0.98634 0.51579 0.44867 0.0
C537 C 0.97692 0.47445 0.40131 0.0
N538 N -0.01168 0.51293 0.5511 0.0
N539 N 0.98356 0.47751 0.44719 0.0
H540 H 0.49344 0.48221 0.64359 0.0
H541 H 0.48528 0.49881 0.36818 0.0
H542 H 0.4784 0.53502 0.58441 0.0
H543 H 0.52285 0.46522 0.42735 0.0
H544 H 0.48065 0.51071 0.44758 0.0
H545 H 0.50302 0.47436 0.56461 0.0
C546 C 0.49241 0.49233 0.6142 0.0
C547 C 0.48496 0.50918 0.6207 0.0
C548 C 0.49005 0.50086 0.443 0.0
C549 C 0.49547 0.50003 0.53039 0.0
C550 C 0.49261 0.49402 0.39775 0.0
C551 C 0.50442 0.48099 0.39107 0.0
C552 C 0.49906 0.4943 0.48177 0.0
C553 C 0.51363 0.47529 0.43073 0.0
C554 C 0.49784 0.48783 0.56915 0.0
C555 C 0.48395 0.52177 0.58121 0.0
N556 N 0.51059 0.48181 0.47436 0.0
N557 N 0.48887 0.51674 0.53776 0.0
H558 H 0.44585 0.95813 0.61545 0.0
H559 H 0.53321 0.06149 0.44257 0.0
H560 H 0.51486 0.0149 0.65905 0.0
H561 H 0.48046 0.99129 0.39501 0.0
H562 H 0.52168 0.04885 0.52359 0.0
H563 H 0.45316 0.97512 0.5368 0.0
C564 C 0.4624 0.97444 0.60882 0.0
C565 C 0.47997 0.9849 0.64389 0.0
C566 C 0.51256 0.03628 0.49541 0.0
C567 C 0.48834 0.00432 0.55358 0.0
C568 C 0.51905 0.04343 0.44908 0.0
C569 C 0.50784 0.02733 0.41185 0.0
C570 C 0.4945 0.01296 0.50472 0.0
C571 C 0.48966 0.00421 0.42259 0.0
C572 C 0.46657 0.984 0.56374 0.0
C573 C 0.5009 0.00615 0.63313 0.0
N574 N 0.48353 -0.0023 0.46814 0.0
N575 N 0.50461 0.01507 0.58869 0.0
H576 H 0.14004 0.20262 0.066 0.0
H577 H 0.26173 0.22032 0.95805 0.0
H578 H 0.20504 0.27058 0.06151 0.0
H579 H 0.19887 0.15153 0.97732 0.0
H580 H 0.24071 0.23931 0.99256 0.0
H581 H 0.16135 0.18359 0.0336 0.0
C582 C 0.15889 0.21351 0.0589 0.0
C583 C 0.17073 0.23827 0.06629 0.0
C584 C 0.2315 0.22007 0.98902 0.0
C585 C 0.19514 0.21663 0.02824 0.0
C586 C 0.2434 0.20922 0.96886 0.0
C587 C 0.23207 0.18427 0.96488 0.0
C588 C 0.20808 0.20587 1.00514 0.0
C589 C 0.20835 0.17081 0.97979 0.0
C590 C 0.17101 0.20263 0.04008 0.0
C591 C 0.19518 0.25144 0.05642 0.0
N592 N 0.19719 0.18178 0.99942 0.0
N593 N 0.20652 0.24048 0.03745 0.0
H594 H 0.82852 0.04381 0.91985 0.0
H595 H 0.71277 0.94439 0.05248 0.0
H596 H 0.77155 0.05579 0.96455 0.0
H597 H 0.77606 0.93963 0.02671 0.0
H598 H 0.73229 0.98409 0.01644 0.0
H599 H 0.80677 0.00345 0.95104 0.0
C600 C 0.81124 0.03783 0.93554 0.0
C601 C 0.80198 0.05332 0.94002 0.0
C602 C 0.74189 0.97435 0.01898 0.0
C603 C 0.77712 0.00717 0.97672 0.0
C604 C 0.73085 0.95179 0.03989 0.0
C605 C 0.74276 0.9386 0.04257 0.0
C606 C 0.7649 0.98367 1.00044 0.0
C607 C 0.76611 0.94905 0.02538 0.0
C608 C 0.7989 0.01482 0.95375 0.0
C609 C 0.77941 0.04449 0.96048 0.0
N610 N 0.77632 0.97085 1.00483 0.0
N611 N 0.76784 0.02203 0.97855 0.0
H612 H 0.9392 0.72839 0.95971 0.0
H613 H 0.05108 0.85199 0.0375 0.0
H614 H 0.93587 0.79332 0.97451 0.0
H615 H 0.04512 0.78322 0.0629 0.0
H616 H 0.0104 0.83182 1.00681 0.0
H617 H 0.98037 0.74966 0.9869 0.0
C618 C 0.94722 0.74721 0.96795 0.0
C619 C 0.934 0.75905 0.96514 0.0
C620 C 0.01799 0.82119 0.01943 0.0
C621 C 0.98101 0.78338 0.99683 0.0
C622 C 0.04114 0.83266 0.03711 0.0
C623 C 0.05152 0.81926 0.05282 0.0
C624 C 0.00526 0.79619 0.01687 0.0
C625 C 0.03783 0.79427 0.05139 0.0
C626 C 0.97065 0.75927 0.98393 0.0
C627 C 0.94535 0.78345 0.97641 0.0
N628 N 0.01547 0.78355 0.03333 0.0
N629 N 0.96821 0.79481 0.99197 0.0
H630 H 0.82029 0.77805 0.91819 0.0
H631 H 0.76962 0.82965 0.11168 0.0
H632 H 0.84194 0.7852 0.06359 0.0
H633 H 0.77723 0.85115 0.96618 0.0
H634 H 0.79261 0.80951 0.09531 0.0
H635 H 0.80033 0.80113 0.93526 0.0
C636 C 0.82092 0.78455 0.95355 0.0
C637 C 0.83282 0.77981 0.98945 0.0
C638 C 0.78936 0.81885 0.06719 0.0
C639 C 0.80986 0.80573 0.00932 0.0
C640 C 0.77629 0.83031 0.07651 0.0
C641 C 0.77156 0.8421 0.0403 0.0
C642 C 0.79726 0.81884 0.02121 0.0
C643 C 0.78053 0.84235 0.99524 0.0
C644 C 0.80961 0.79773 0.96326 0.0
C645 C 0.83308 0.78859 0.03477 0.0
N646 N 0.79273 0.83067 0.98686 0.0
N647 N 0.82158 0.80095 0.04353 0.0
H648 H 0.14467 0.93364 0.95502 0.0
H649 H 0.20262 0.0669 0.0496 0.0
H650 H 0.16071 0.95197 0.10158 0.0
H651 H 0.21226 0.05021 0.90717 0.0
H652 H 0.18075 0.02442 0.06754 0.0
H653 H 0.16319 0.97596 0.93583 0.0
C654 C 0.15194 0.94657 0.98327 0.0
C655 C 0.15119 0.9393 0.03005 0.0
C656 C 0.18756 0.03006 0.03234 0.0
C657 C 0.17228 0.98771 1.00814 0.0
C658 C 0.19994 0.05429 0.02188 0.0
C659 C 0.20936 0.06211 0.97677 0.0
C660 C 0.18432 0.01345 0.99734 0.0
C661 C 0.20535 0.04494 0.9424 0.0
C662 C 0.16259 0.97071 0.97216 0.0
C663 C 0.16098 0.95683 0.0651 0.0
N664 N 0.19308 0.02133 0.95341 0.0
N665 N 0.1711 0.9803 0.05342 0.0
H666 H 0.93421 0.18474 0.94163 0.0
H667 H 0.04968 0.17992 0.01704 0.0
H668 H 0.93231 0.11767 0.96398 0.0
H669 H 0.03614 0.23546 0.06523 0.0
H670 H 0.00914 0.15816 0.98546 0.0
H671 H 0.97516 0.20573 0.97162 0.0
C672 C 0.94264 0.17449 0.95162 0.0
C673 C 0.92997 0.14947 0.95029 0.0
C674 C 0.01499 0.17497 1.00342 0.0
C675 C 0.97638 0.17322 0.98499 0.0
C676 C 0.03798 0.18729 0.02165 0.0
C677 C 0.04607 0.20935 0.04408 0.0
C678 C 0.00028 0.18515 1.00651 0.0
C679 C 0.03039 0.21832 0.04875 0.0
C680 C 0.9658 0.18643 0.96939 0.0
C681 C 0.94154 0.13699 0.96445 0.0
N682 N 0.00827 0.20632 0.02945 0.0
N683 N 0.96414 0.149 0.98124 0.0
H684 H 0.81786 0.56629 0.30459 0.0
H685 H 0.86673 0.47753 0.35945 0.0
H686 H 0.83231 0.55239 0.44575 0.0
H687 H 0.88783 0.52184 0.23541 0.0
H688 H 0.84467 0.49697 0.38628 0.0
H689 H 0.83452 0.54219 0.27407 0.0
C690 C 0.82427 0.55793 0.32918 0.0
C691 C 0.8238 0.56138 0.3778 0.0
C692 C 0.85396 0.50222 0.35301 0.0
C693 C 0.84254 0.53371 0.34307 0.0
C694 C 0.86641 0.49106 0.33745 0.0
C695 C 0.87924 0.49819 0.29519 0.0
C696 C 0.85396 0.5203 0.32573 0.0
C697 C 0.87829 0.51593 0.26832 0.0
C698 C 0.83385 0.54432 0.31169 0.0
C699 C 0.83248 0.55028 0.40804 0.0
N700 N 0.86584 0.52641 0.28405 0.0
N701 N 0.84144 0.53683 0.39016 0.0
H702 H 0.44162 0.3781 0.28428 0.0
H703 H 0.45268 0.26334 0.34786 0.0
H704 H 0.50652 0.37544 0.26643 0.0
H705 H 0.39603 0.27466 0.39768 0.0
H706 H 0.47128 0.3027 0.31097 0.0
H707 H 0.42251 0.33764 0.31595 0.0
C708 C 0.45174 0.36887 0.28617 0.0
C709 C 0.47578 0.38027 0.273 0.0
C710 C 0.45486 0.2966 0.33023 0.0
C711 C 0.45409 0.3341 0.3099 0.0
C712 C 0.44428 0.2742 0.35151 0.0
C713 C 0.42277 0.26569 0.376 0.0
C714 C 0.44371 0.31049 0.333 0.0
C715 C 0.41267 0.28052 0.37942 0.0
C716 C 0.44088 0.34586 0.30475 0.0
C717 C 0.488 0.36741 0.27643 0.0
N718 N 0.42314 0.30212 0.35784 0.0
N719 N 0.47706 0.34505 0.29482 0.0
H720 H 0.6043 0.04594 0.30595 0.0
H721 H 0.71642 0.16864 0.38489 0.0
H722 H 0.61574 0.11568 0.268 0.0
H723 H 0.71712 0.10208 0.39097 0.0
H724 H 0.67747 0.14802 0.34816 0.0
H725 H 0.64457 0.06483 0.33914 0.0
C726 C 0.61541 0.06515 0.30366 0.0
C727 C 0.60651 0.07927 0.28461 0.0
C728 C 0.68607 0.13785 0.35754 0.0
C729 C 0.6522 0.10089 0.32346 0.0
C730 C 0.70828 0.14959 0.37898 0.0
C731 C 0.72019 0.13712 0.39082 0.0
C732 C 0.67546 0.11335 0.34792 0.0
C733 C 0.70858 0.1124 0.38245 0.0
C734 C 0.6383 0.0759 0.32296 0.0
C735 C 0.6217 0.10406 0.28273 0.0
N736 N 0.68683 0.10129 0.36128 0.0
N737 N 0.64364 0.11406 0.30245 0.0
H738 H 0.53407 0.13425 0.3545 0.0
H739 H 0.43223 0.16214 0.27885 0.0
H740 H 0.48839 0.0997 0.23529 0.0
H741 H 0.45405 0.16502 0.42321 0.0
H742 H 0.45794 0.14604 0.25629 0.0
H743 H 0.51055 0.15324 0.37303 0.0
C744 C 0.51934 0.13096 0.33168 0.0
C745 C 0.51312 0.11527 0.2933 0.0
C746 C 0.45708 0.15022 0.29285 0.0
C747 C 0.48616 0.13695 0.31464 0.0
C748 C 0.44251 0.15946 0.30581 0.0
C749 C 0.44104 0.1649 0.35303 0.0
C750 C 0.47063 0.14683 0.32721 0.0
C751 C 0.45462 0.16096 0.38649 0.0
C752 C 0.50582 0.14165 0.34263 0.0
C753 C 0.49377 0.11163 0.26522 0.0
N754 N 0.46903 0.1523 0.37287 0.0
N755 N 0.48092 0.1224 0.27647 0.0
H756 H 0.79589 0.25744 0.31519 0.0
H757 H 0.87633 0.39168 0.40135 0.0
H758 H 0.82949 0.27537 0.45176 0.0
H759 H 0.86445 0.37146 0.25498 0.0
H760 H 0.85371 0.34963 0.42321 0.0
H761 H 0.81492 0.29975 0.2962 0.0
C762 C 0.80705 0.27028 0.34149 0.0
C763 C 0.81124 0.26285 0.38511 0.0
C764 C 0.85602 0.35441 0.38635 0.0
C765 C 0.83312 0.31134 0.36329 0.0
C766 C 0.86886 0.37838 0.37376 0.0
C767 C 0.87229 0.38504 0.32619 0.0
C768 C 0.84628 0.33696 0.35117 0.0
C769 C 0.86229 0.36707 0.29201 0.0
C770 C 0.81801 0.29443 0.33041 0.0
C771 C 0.82585 0.28033 0.41771 0.0
N772 N 0.84964 0.3438 0.30519 0.0
N773 N 0.83635 0.30383 0.40606 0.0
H774 H 0.59756 0.46216 0.34835 0.0
H775 H 0.7227 0.57493 0.28521 0.0
H776 H 0.60601 0.50968 0.23389 0.0
H777 H 0.70583 0.5415 0.42178 0.0
H778 H 0.68168 0.54828 0.26023 0.0
H779 H 0.63928 0.48757 0.36871 0.0
C780 C 0.60826 0.4778 0.32706 0.0
C781 C 0.59823 0.4839 0.28949 0.0
C782 C 0.68697 0.54685 0.29567 0.0
C783 C 0.64604 0.51316 0.31303 0.0
C784 C 0.71034 0.56201 0.30999 0.0
C785 C 0.71763 0.5604 0.35569 0.0
C786 C 0.67089 0.52974 0.32705 0.0
C787 C 0.7009 0.5434 0.38634 0.0
C788 C 0.63205 0.49238 0.339 0.0
C789 C 0.61302 0.50435 0.26317 0.0
N790 N 0.67831 0.5286 0.37135 0.0
N791 N 0.63624 0.51835 0.27557 0.0
H792 H 0.56675 0.86021 0.57098 0.0
H793 H 0.53693 0.91843 0.78566 0.0
H794 H 0.57287 0.83982 0.71247 0.0
H795 H 0.49057 0.8917 0.66487 0.0
H796 H 0.55851 0.89844 0.75643 0.0
H797 H 0.54683 0.88136 0.60195 0.0
C798 C 0.56398 0.8603 0.60849 0.0
C799 C 0.57116 0.84811 0.63924 0.0
C800 C 0.54356 0.89703 0.73663 0.0
C801 C 0.54919 0.8726 0.67465 0.0
C802 C 0.53133 0.90838 0.75316 0.0
C803 C 0.51185 0.90645 0.72785 0.0
C804 C 0.53666 0.8845 0.69389 0.0
C805 C 0.50531 0.89334 0.68577 0.0
C806 C 0.55265 0.87227 0.62604 0.0
C807 C 0.56727 0.84877 0.68762 0.0
N808 N 0.51784 0.88307 0.66983 0.0
N809 N 0.55668 0.861 0.70398 0.0
H810 H 0.10979 0.71445 0.6183 0.0
H811 H 0.11904 0.6035 0.71554 0.0
H812 H 0.17708 0.71751 0.64361 0.0
H813 H 0.0561 0.61015 0.72879 0.0
H814 H 0.1405 0.64413 0.68447 0.0
H815 H 0.08932 0.67417 0.65078 0.0
C816 C 0.12027 0.70654 0.63002 0.0
C817 C 0.14521 0.71942 0.62837 0.0
C818 C 0.12206 0.63675 0.69464 0.0
C819 C 0.12187 0.67346 0.66615 0.0
C820 C 0.10983 0.61362 0.71258 0.0
C821 C 0.0857 0.60338 0.72465 0.0
C822 C 0.11 0.64958 0.68815 0.0
C823 C 0.07468 0.61731 0.72004 0.0
C824 C 0.10857 0.68364 0.64904 0.0
C825 C 0.15783 0.70827 0.64436 0.0
N826 N 0.08685 0.63961 0.70164 0.0
N827 N 0.14602 0.68592 0.66268 0.0
H828 H 0.37629 0.51083 0.72518 0.0
H829 H 0.27233 0.38844 0.61942 0.0
H830 H 0.37915 0.44536 0.72263 0.0
H831 H 0.26562 0.45096 0.64319 0.0
H832 H 0.31243 0.40961 0.65291 0.0
H833 H 0.33593 0.4893 0.69383 0.0
C834 C 0.36831 0.49185 0.71865 0.0
C835 C 0.38117 0.47991 0.72642 0.0
C836 C 0.30219 0.41869 0.65061 0.0
C837 C 0.33508 0.45522 0.68961 0.0
C838 C 0.27939 0.40671 0.63106 0.0
C839 C 0.26556 0.41792 0.62856 0.0
C840 C 0.31124 0.44209 0.6675 0.0
C841 C 0.27558 0.44156 0.64454 0.0
C842 C 0.34529 0.47958 0.7005 0.0
C843 C 0.36989 0.45529 0.71729 0.0
N844 N 0.29776 0.45282 0.6634 0.0
N845 N 0.34756 0.4438 0.69892 0.0
H846 H 0.17515 0.44473 0.71814 0.0
H847 H 0.108 0.51146 0.62324 0.0
H848 H 0.15518 0.44216 0.5725 0.0
H849 H 0.10309 0.48849 0.76728 0.0
H850 H 0.13121 0.49215 0.6045 0.0
H851 H 0.15487 0.46702 0.73666 0.0
C852 C 0.1667 0.44906 0.68989 0.0
C853 C 0.16679 0.44152 0.64363 0.0
C854 C 0.12509 0.49139 0.6402 0.0
C855 C 0.14358 0.46704 0.66484 0.0
C856 C 0.11195 0.50249 0.65106 0.0
C857 C 0.10358 0.50154 0.69697 0.0
C858 C 0.13021 0.47952 0.67558 0.0
C859 C 0.10915 0.48958 0.73147 0.0
C860 C 0.15501 0.46165 0.70065 0.0
C861 C 0.15548 0.44758 0.6086 0.0
N862 N 0.12221 0.47906 0.72008 0.0
N863 N 0.14431 0.46005 0.61994 0.0
H864 H 0.46166 0.60074 0.64215 0.0
H865 H 0.55245 0.73232 0.73193 0.0
H866 H 0.49839 0.61514 0.77527 0.0
H867 H 0.53321 0.71487 0.58607 0.0
H868 H 0.52738 0.69033 0.75222 0.0
H869 H 0.48228 0.6434 0.62562 0.0
C870 C 0.47389 0.61289 0.6682 0.0
C871 C 0.47843 0.60434 0.71011 0.0
C872 C 0.52856 0.69571 0.71583 0.0
C873 C 0.50211 0.65324 0.69116 0.0
C874 C 0.54279 0.71968 0.70415 0.0
C875 C 0.545 0.72709 0.65712 0.0
C876 C 0.51624 0.67901 0.68032 0.0
C877 C 0.53208 0.70991 0.6227 0.0
C878 C 0.48572 0.63724 0.65855 0.0
C879 C 0.49443 0.62096 0.74248 0.0
N880 N 0.51825 0.68663 0.635 0.0
N881 N 0.50578 0.64466 0.73224 0.0
H882 H 0.27943 0.82958 0.57959 0.0
H883 H 0.37565 0.87682 0.78451 0.0
H884 H 0.26125 0.80809 0.7242 0.0
H885 H 0.39365 0.874 0.6395 0.0
H886 H 0.33338 0.85357 0.76347 0.0
H887 H 0.32167 0.84832 0.60079 0.0
C888 C 0.28432 0.82866 0.61563 0.0
C889 C 0.26685 0.8173 0.65015 0.0
C890 C 0.34666 0.85789 0.73644 0.0
C891 C 0.31487 0.83884 0.67471 0.0
C892 C 0.37072 0.87112 0.74844 0.0
C893 C 0.38815 0.87737 0.71374 0.0
C894 C 0.3401 0.85125 0.68935 0.0
C895 C 0.38081 0.86958 0.66745 0.0
C896 C 0.30836 0.83929 0.62771 0.0
C897 C 0.27413 0.81663 0.6964 0.0
N898 N 0.35734 0.85714 0.65651 0.0
N899 N 0.29759 0.82745 0.70743 0.0
loop_
_geom_bond_atom_site_label_1
_geom_bond_atom_site_label_2
_geom_bond_distance
_geom_bond_site_symmetry_2
_ccdc_geom_bond_type
O0 Cd1 2.223 . S
O0 C8 1.315 . S
Cd1 O0 2.223 . S
Cd1 O4 2.297 . S
Cd1 O5 2.439 . S
Cd1 O11 2.240 . S
Cd2 O3 2.240 . S
Cd2 O10 2.223 1_554 S
Cd2 O12 2.297 1_554 S
Cd2 O13 2.439 . S
O3 Cd2 2.240 . S
O3 C8 1.279 . S
O4 Cd1 2.297 . S
O4 C6 1.247 . S
O5 Cd1 2.439 . S
O5 C6 1.208 . S
C6 O4 1.247 . S
C6 O5 1.208 . S
C7 O12 1.247 1_554 S
C7 O13 1.208 . S
C8 O0 1.315 . S
C8 O3 1.279 . S
C9 O10 1.315 . S
C9 O11 1.279 1_556 S
O10 Cd2 2.223 1_556 S
O10 C9 1.315 . S
O11 Cd1 2.240 . S
O11 C9 1.279 1_554 S
O12 Cd2 2.297 1_556 S
O12 C7 1.247 1_556 S
O13 Cd2 2.439 . S
O13 C7 1.208 . S
O14 Cd15 2.223 . S
O14 C22 1.315 . S
Cd15 O14 2.223 . S
Cd15 O18 2.297 . S
Cd15 O19 2.439 . S
Cd15 O25 2.240 . S
Cd16 O17 2.240 . S
Cd16 O24 2.223 1_554 S
Cd16 O26 2.297 1_554 S
Cd16 O27 2.439 . S
O17 Cd16 2.240 . S
O17 C22 1.279 . S
O18 Cd15 2.297 . S
O18 C20 1.247 . S
O19 Cd15 2.439 . S
O19 C20 1.208 . S
C20 O18 1.247 . S
C20 O19 1.208 . S
C21 O26 1.247 1_554 S
C21 O27 1.208 . S
C22 O14 1.315 . S
C22 O17 1.279 . S
C23 O24 1.315 . S
C23 O25 1.279 1_556 S
O24 Cd16 2.223 1_556 S
O24 C23 1.315 . S
O25 Cd15 2.240 . S
O25 C23 1.279 1_554 S
O26 Cd16 2.297 1_556 S
O26 C21 1.247 1_556 S
O27 Cd16 2.439 . S
O27 C21 1.208 . S
O28 Cd29 2.223 . S
O28 C36 1.315 . S
Cd29 O28 2.223 . S
Cd29 O32 2.297 . S
Cd29 O33 2.439 . S
Cd29 O39 2.240 . S
Cd30 O31 2.240 . S
Cd30 O38 2.223 1_554 S
Cd30 O40 2.297 1_554 S
Cd30 O41 2.439 . S
O31 Cd30 2.240 . S
O31 C36 1.279 . S
O32 Cd29 2.297 . S
O32 C34 1.247 . S
O33 Cd29 2.439 . S
O33 C34 1.208 . S
C34 O32 1.247 . S
C34 O33 1.208 . S
C35 O40 1.247 1_554 S
C35 O41 1.208 . S
C36 O28 1.315 . S
C36 O31 1.279 . S
C37 O38 1.315 . S
C37 O39 1.279 1_556 S
O38 Cd30 2.223 1_556 S
O38 C37 1.315 . S
O39 Cd29 2.240 . S
O39 C37 1.279 1_554 S
O40 Cd30 2.297 1_556 S
O40 C35 1.247 1_556 S
O41 Cd30 2.439 . S
O41 C35 1.208 . S
O42 Cd43 2.223 . S
O42 C50 1.315 . S
Cd43 O42 2.223 . S
Cd43 O46 2.297 . S
Cd43 O47 2.439 . S
Cd43 O53 2.240 . S
Cd44 O45 2.240 . S
Cd44 O52 2.223 1_556 S
Cd44 O54 2.297 1_556 S
Cd44 O55 2.439 . S
O45 Cd44 2.240 . S
O45 C50 1.279 . S
O46 Cd43 2.297 . S
O46 C48 1.247 . S
O47 Cd43 2.439 . S
O47 C48 1.208 . S
C48 O46 1.247 . S
C48 O47 1.208 . S
C49 O54 1.247 1_556 S
C49 O55 1.208 . S
C50 O42 1.315 . S
C50 O45 1.279 . S
C51 O52 1.315 . S
C51 O53 1.279 1_554 S
O52 Cd44 2.223 1_554 S
O52 C51 1.315 . S
O53 Cd43 2.240 . S
O53 C51 1.279 1_556 S
O54 Cd44 2.297 1_554 S
O54 C49 1.247 1_554 S
O55 Cd44 2.439 . S
O55 C49 1.208 . S
O56 Cd57 2.223 . S
O56 C64 1.315 . S
Cd57 O56 2.223 . S
Cd57 O60 2.297 . S
Cd57 O61 2.439 . S
Cd57 O67 2.240 . S
Cd58 O59 2.240 . S
Cd58 O66 2.223 1_556 S
Cd58 O68 2.297 1_556 S
Cd58 O69 2.439 . S
O59 Cd58 2.240 . S
O59 C64 1.279 . S
O60 Cd57 2.297 . S
O60 C62 1.247 . S
O61 Cd57 2.439 . S
O61 C62 1.208 . S
C62 O60 1.247 . S
C62 O61 1.208 . S
C63 O68 1.247 1_556 S
C63 O69 1.208 . S
C64 O56 1.315 . S
C64 O59 1.279 . S
C65 O66 1.315 . S
C65 O67 1.279 1_554 S
O66 Cd58 2.223 1_554 S
O66 C65 1.315 . S
O67 Cd57 2.240 . S
O67 C65 1.279 1_556 S
O68 Cd58 2.297 1_554 S
O68 C63 1.247 1_554 S
O69 Cd58 2.439 . S
O69 C63 1.208 . S
O70 Cd71 2.223 . S
O70 C78 1.315 . S
Cd71 O70 2.223 . S
Cd71 O74 2.297 . S
Cd71 O75 2.439 . S
Cd71 O81 2.240 . S
Cd72 O73 2.240 . S
Cd72 O80 2.223 1_556 S
Cd72 O82 2.297 1_556 S
Cd72 O83 2.439 . S
O73 Cd72 2.240 . S
O73 C78 1.279 . S
O74 Cd71 2.297 . S
O74 C76 1.247 . S
O75 Cd71 2.439 . S
O75 C76 1.208 . S
C76 O74 1.247 . S
C76 O75 1.208 . S
C77 O82 1.247 1_556 S
C77 O83 1.208 . S
C78 O70 1.315 . S
C78 O73 1.279 . S
C79 O80 1.315 . S
C79 O81 1.279 1_554 S
O80 Cd72 2.223 1_554 S
O80 C79 1.315 . S
O81 Cd71 2.240 . S
O81 C79 1.279 1_556 S
O82 Cd72 2.297 1_554 S
O82 C77 1.247 1_554 S
O83 Cd72 2.439 . S
O83 C77 1.208 . S
O84 Cd85 2.223 . S
O84 C92 1.315 . S
Cd85 O84 2.223 . S
Cd85 O88 2.297 . S
Cd85 O89 2.439 . S
Cd85 O95 2.240 . S
Cd86 O87 2.240 . S
Cd86 O94 2.223 . S
Cd86 O96 2.297 . S
Cd86 O97 2.439 . S
O87 Cd86 2.240 . S
O87 C92 1.279 . S
O88 Cd85 2.297 . S
O88 C90 1.247 . S
O89 Cd85 2.439 . S
O89 C90 1.208 . S
C90 O88 1.247 . S
C90 O89 1.208 . S
C91 O96 1.247 . S
C91 O97 1.208 . S
C92 O84 1.315 . S
C92 O87 1.279 . S
C93 O94 1.315 . S
C93 O95 1.279 . S
O94 Cd86 2.223 . S
O94 C93 1.315 . S
O95 Cd85 2.240 . S
O95 C93 1.279 . S
O96 Cd86 2.297 . S
O96 C91 1.247 . S
O97 Cd86 2.439 . S
O97 C91 1.208 . S
O98 Cd99 2.223 . S
O98 C106 1.315 . S
Cd99 O98 2.223 . S
Cd99 O102 2.297 . S
Cd99 O103 2.439 . S
Cd99 O109 2.240 . S
Cd100 O101 2.240 . S
Cd100 O108 2.223 . S
Cd100 O110 2.297 . S
Cd100 O111 2.439 . S
O101 Cd100 2.240 . S
O101 C106 1.279 . S
O102 Cd99 2.297 . S
O102 C104 1.247 . S
O103 Cd99 2.439 . S
O103 C104 1.208 . S
C104 O102 1.247 . S
C104 O103 1.208 . S
C105 O110 1.247 . S
C105 O111 1.208 . S
C106 O98 1.315 . S
C106 O101 1.279 . S
C107 O108 1.315 . S
C107 O109 1.279 . S
O108 Cd100 2.223 . S
O108 C107 1.315 . S
O109 Cd99 2.240 . S
O109 C107 1.279 . S
O110 Cd100 2.297 . S
O110 C105 1.247 . S
O111 Cd100 2.439 . S
O111 C105 1.208 . S
O112 Cd113 2.223 . S
O112 C120 1.315 . S
Cd113 O112 2.223 . S
Cd113 O116 2.297 . S
Cd113 O117 2.439 . S
Cd113 O123 2.240 . S
Cd114 O115 2.240 . S
Cd114 O122 2.223 . S
Cd114 O124 2.297 . S
Cd114 O125 2.439 . S
O115 Cd114 2.240 . S
O115 C120 1.279 . S
O116 Cd113 2.297 . S
O116 C118 1.247 . S
O117 Cd113 2.439 . S
O117 C118 1.208 . S
C118 O116 1.247 . S
C118 O117 1.208 . S
C119 O124 1.247 . S
C119 O125 1.208 . S
C120 O112 1.315 . S
C120 O115 1.279 . S
C121 O122 1.315 . S
C121 O123 1.279 . S
O122 Cd114 2.223 . S
O122 C121 1.315 . S
O123 Cd113 2.240 . S
O123 C121 1.279 . S
O124 Cd114 2.297 . S
O124 C119 1.247 . S
O125 Cd114 2.439 . S
O125 C119 1.208 . S
O126 Cd127 2.223 . S
O126 C134 1.315 . S
Cd127 O126 2.223 . S
Cd127 O130 2.297 . S
Cd127 O131 2.439 . S
Cd127 O137 2.240 . S
Cd128 O129 2.240 . S
Cd128 O136 2.223 . S
Cd128 O138 2.297 . S
Cd128 O139 2.439 . S
O129 Cd128 2.240 . S
O129 C134 1.279 . S
O130 Cd127 2.297 . S
O130 C132 1.247 . S
O131 Cd127 2.439 . S
O131 C132 1.208 . S
C132 O130 1.247 . S
C132 O131 1.208 . S
C133 O138 1.247 . S
C133 O139 1.208 . S
C134 O126 1.315 . S
C134 O129 1.279 . S
C135 O136 1.315 . S
C135 O137 1.279 . S
O136 Cd128 2.223 . S
O136 C135 1.315 . S
O137 Cd127 2.240 . S
O137 C135 1.279 . S
O138 Cd128 2.297 . S
O138 C133 1.247 . S
O139 Cd128 2.439 . S
O139 C133 1.208 . S
O140 Cd141 2.223 . S
O140 C148 1.315 . S
Cd141 O140 2.223 . S
Cd141 O144 2.297 . S
Cd141 O145 2.439 . S
Cd141 O151 2.240 . S
Cd142 O143 2.240 . S
Cd142 O150 2.223 . S
Cd142 O152 2.297 . S
Cd142 O153 2.439 . S
O143 Cd142 2.240 . S
O143 C148 1.279 . S
O144 Cd141 2.297 . S
O144 C146 1.247 . S
O145 Cd141 2.439 . S
O145 C146 1.208 . S
C146 O144 1.247 . S
C146 O145 1.208 . S
C147 O152 1.247 . S
C147 O153 1.208 . S
C148 O140 1.315 . S
C148 O143 1.279 . S
C149 O150 1.315 . S
C149 O151 1.279 . S
O150 Cd142 2.223 . S
O150 C149 1.315 . S
O151 Cd141 2.240 . S
O151 C149 1.279 . S
O152 Cd142 2.297 . S
O152 C147 1.247 . S
O153 Cd142 2.439 . S
O153 C147 1.208 . S
O154 Cd155 2.223 . S
O154 C162 1.315 . S
Cd155 O154 2.223 . S
Cd155 O158 2.297 . S
Cd155 O159 2.439 . S
Cd155 O165 2.240 . S
Cd156 O157 2.240 . S
Cd156 O164 2.223 . S
Cd156 O166 2.297 . S
Cd156 O167 2.439 . S
O157 Cd156 2.240 . S
O157 C162 1.279 . S
O158 Cd155 2.297 . S
O158 C160 1.247 . S
O159 Cd155 2.439 . S
O159 C160 1.208 . S
C160 O158 1.247 . S
C160 O159 1.208 . S
C161 O166 1.247 . S
C161 O167 1.208 . S
C162 O154 1.315 . S
C162 O157 1.279 . S
C163 O164 1.315 . S
C163 O165 1.279 . S
O164 Cd156 2.223 . S
O164 C163 1.315 . S
O165 Cd155 2.240 . S
O165 C163 1.279 . S
O166 Cd156 2.297 . S
O166 C161 1.247 . S
O167 Cd156 2.439 . S
O167 C161 1.208 . S
O168 Cd169 2.223 . S
O168 C176 1.315 . S
Cd169 O168 2.223 . S
Cd169 O172 2.297 . S
Cd169 O173 2.439 . S
Cd169 O179 2.240 . S
Cd170 O171 2.240 . S
Cd170 O178 2.223 . S
Cd170 O180 2.297 . S
Cd170 O181 2.439 . S
O171 Cd170 2.240 . S
O171 C176 1.279 . S
O172 Cd169 2.297 . S
O172 C174 1.247 . S
O173 Cd169 2.439 . S
O173 C174 1.208 . S
C174 O172 1.247 . S
C174 O173 1.208 . S
C175 O180 1.247 . S
C175 O181 1.208 . S
C176 O168 1.315 . S
C176 O171 1.279 . S
C177 O178 1.315 . S
C177 O179 1.279 . S
O178 Cd170 2.223 . S
O178 C177 1.315 . S
O179 Cd169 2.240 . S
O179 C177 1.279 . S
O180 Cd170 2.297 . S
O180 C175 1.247 . S
O181 Cd170 2.439 . S
O181 C175 1.208 . S
O182 Cd183 2.223 . S
O182 C190 1.315 . S
Cd183 O182 2.223 . S
Cd183 O186 2.297 . S
Cd183 O187 2.439 . S
Cd183 O193 2.240 . S
Cd184 O185 2.240 . S
Cd184 O192 2.223 . S
Cd184 O194 2.297 . S
Cd184 O195 2.439 . S
O185 Cd184 2.240 . S
O185 C190 1.279 . S
O186 Cd183 2.297 . S
O186 C188 1.247 . S
O187 Cd183 2.439 . S
O187 C188 1.208 . S
C188 O186 1.247 . S
C188 O187 1.208 . S
C189 O194 1.247 . S
C189 O195 1.208 . S
C190 O182 1.315 . S
C190 O185 1.279 . S
C191 O192 1.315 . S
C191 O193 1.279 . S
O192 Cd184 2.223 . S
O192 C191 1.315 . S
O193 Cd183 2.240 . S
O193 C191 1.279 . S
O194 Cd184 2.297 . S
O194 C189 1.247 . S
O195 Cd184 2.439 . S
O195 C189 1.208 . S
O196 Cd197 2.223 . S
O196 C204 1.315 . S
Cd197 O196 2.223 . S
Cd197 O200 2.297 . S
Cd197 O201 2.439 . S
Cd197 O207 2.240 . S
Cd198 O199 2.240 . S
Cd198 O206 2.223 . S
Cd198 O208 2.297 . S
Cd198 O209 2.439 . S
O199 Cd198 2.240 . S
O199 C204 1.279 . S
O200 Cd197 2.297 . S
O200 C202 1.247 . S
O201 Cd197 2.439 . S
O201 C202 1.208 . S
C202 O200 1.247 . S
C202 O201 1.208 . S
C203 O208 1.247 . S
C203 O209 1.208 . S
C204 O196 1.315 . S
C204 O199 1.279 . S
C205 O206 1.315 . S
C205 O207 1.279 . S
O206 Cd198 2.223 . S
O206 C205 1.315 . S
O207 Cd197 2.240 . S
O207 C205 1.279 . S
O208 Cd198 2.297 . S
O208 C203 1.247 . S
O209 Cd198 2.439 . S
O209 C203 1.208 . S
O210 Cd211 2.223 . S
O210 C218 1.315 . S
Cd211 O210 2.223 . S
Cd211 O214 2.297 . S
Cd211 O215 2.439 . S
Cd211 O221 2.240 . S
Cd212 O213 2.240 . S
Cd212 O220 2.223 . S
Cd212 O222 2.297 . S
Cd212 O223 2.439 . S
O213 Cd212 2.240 . S
O213 C218 1.279 . S
O214 Cd211 2.297 . S
O214 C216 1.247 . S
O215 Cd211 2.439 . S
O215 C216 1.208 . S
C216 O214 1.247 . S
C216 O215 1.208 . S
C217 O222 1.247 . S
C217 O223 1.208 . S
C218 O210 1.315 . S
C218 O213 1.279 . S
C219 O220 1.315 . S
C219 O221 1.279 . S
O220 Cd212 2.223 . S
O220 C219 1.315 . S
O221 Cd211 2.240 . S
O221 C219 1.279 . S
O222 Cd212 2.297 . S
O222 C217 1.247 . S
O223 Cd212 2.439 . S
O223 C217 1.208 . S
O224 Cd225 2.223 . S
O224 C232 1.315 . S
Cd225 O224 2.223 . S
Cd225 O228 2.297 . S
Cd225 O229 2.439 . S
Cd225 O235 2.240 . S
Cd226 O227 2.240 . S
Cd226 O234 2.223 . S
Cd226 O236 2.297 . S
Cd226 O237 2.439 . S
O227 Cd226 2.240 . S
O227 C232 1.279 . S
O228 Cd225 2.297 . S
O228 C230 1.247 . S
O229 Cd225 2.439 . S
O229 C230 1.208 . S
C230 O228 1.247 . S
C230 O229 1.208 . S
C231 O236 1.247 . S
C231 O237 1.208 . S
C232 O224 1.315 . S
C232 O227 1.279 . S
C233 O234 1.315 . S
C233 O235 1.279 . S
O234 Cd226 2.223 . S
O234 C233 1.315 . S
O235 Cd225 2.240 . S
O235 C233 1.279 . S
O236 Cd226 2.297 . S
O236 C231 1.247 . S
O237 Cd226 2.439 . S
O237 C231 1.208 . S
O238 Cd239 2.223 . S
O238 C246 1.315 . S
Cd239 O238 2.223 . S
Cd239 O242 2.297 . S
Cd239 O243 2.439 . S
Cd239 O249 2.240 . S
Cd240 O241 2.240 . S
Cd240 O248 2.223 . S
Cd240 O250 2.297 . S
Cd240 O251 2.439 . S
O241 Cd240 2.240 . S
O241 C246 1.279 . S
O242 Cd239 2.297 . S
O242 C244 1.247 . S
O243 Cd239 2.439 . S
O243 C244 1.208 . S
C244 O242 1.247 . S
C244 O243 1.208 . S
C245 O250 1.247 . S
C245 O251 1.208 . S
C246 O238 1.315 . S
C246 O241 1.279 . S
C247 O248 1.315 . S
C247 O249 1.279 . S
O248 Cd240 2.223 . S
O248 C247 1.315 . S
O249 Cd239 2.240 . S
O249 C247 1.279 . S
O250 Cd240 2.297 . S
O250 C245 1.247 . S
O251 Cd240 2.439 . S
O251 C245 1.208 . S
H252 C258 0.930 . S
H253 C262 0.930 . S
H254 C267 0.929 . S
H255 C265 0.929 . S
H256 C260 0.929 . S
H257 C266 0.929 . S
C258 H252 0.930 . S
C258 C259 1.367 . S
C258 C266 1.378 . S
C259 C258 1.367 . S
C259 C267 1.433 . S
C260 H256 0.929 . S
C260 C262 1.378 . S
C260 C264 1.350 . S
C261 C264 1.463 . S
C261 C266 1.350 . S
C261 N269 1.427 . S
C262 H253 0.930 . S
C262 C260 1.378 . S
C262 C263 1.367 . S
C263 C262 1.367 . S
C263 C265 1.433 . S
C264 C260 1.350 . S
C264 C261 1.463 . S
C264 N268 1.427 . S
C265 H255 0.929 . S
C265 C263 1.433 . S
C265 N268 1.384 . S
C266 H257 0.929 . S
C266 C258 1.378 . S
C266 C261 1.350 . S
C267 H254 0.929 . S
C267 C259 1.433 . S
C267 N269 1.384 . S
N268 C264 1.427 . S
N268 C265 1.384 . S
N269 C261 1.427 . S
N269 C267 1.384 . S
H270 C276 0.930 . S
H271 C280 0.930 . S
H272 C285 0.929 . S
H273 C283 0.929 . S
H274 C278 0.929 . S
H275 C284 0.929 . S
C276 H270 0.930 . S
C276 C277 1.367 . S
C276 C284 1.378 . S
C277 C276 1.367 . S
C277 C285 1.433 . S
C278 H274 0.929 . S
C278 C280 1.378 . S
C278 C282 1.350 . S
C279 C282 1.463 . S
C279 C284 1.350 . S
C279 N287 1.427 . S
C280 H271 0.930 . S
C280 C278 1.378 . S
C280 C281 1.367 . S
C281 C280 1.367 . S
C281 C283 1.433 . S
C282 C278 1.350 . S
C282 C279 1.463 . S
C282 N286 1.427 . S
C283 H273 0.929 . S
C283 C281 1.433 . S
C283 N286 1.384 . S
C284 H275 0.929 . S
C284 C276 1.378 . S
C284 C279 1.350 . S
C285 H272 0.929 . S
C285 C277 1.433 . S
C285 N287 1.384 . S
N286 C282 1.427 . S
N286 C283 1.384 . S
N287 C279 1.427 . S
N287 C285 1.384 . S
H288 C294 0.930 . S
H289 C298 0.930 . S
H290 C303 0.929 . S
H291 C301 0.929 . S
H292 C296 0.929 . S
H293 C302 0.929 . S
C294 H288 0.930 . S
C294 C295 1.367 . S
C294 C302 1.378 . S
C295 C294 1.367 . S
C295 C303 1.433 . S
C296 H292 0.929 . S
C296 C298 1.378 . S
C296 C300 1.350 . S
C297 C300 1.463 . S
C297 C302 1.350 . S
C297 N305 1.427 . S
C298 H289 0.930 . S
C298 C296 1.378 . S
C298 C299 1.367 . S
C299 C298 1.367 . S
C299 C301 1.433 . S
C300 C296 1.350 . S
C300 C297 1.463 . S
C300 N304 1.427 . S
C301 H291 0.929 . S
C301 C299 1.433 . S
C301 N304 1.384 . S
C302 H293 0.929 . S
C302 C294 1.378 . S
C302 C297 1.350 . S
C303 H290 0.929 . S
C303 C295 1.433 . S
C303 N305 1.384 . S
N304 C300 1.427 . S
N304 C301 1.384 . S
N305 C297 1.427 . S
N305 C303 1.384 . S
H306 C312 0.930 . S
H307 C316 0.930 . S
H308 C321 0.929 . S
H309 C319 0.929 . S
H310 C314 0.929 . S
H311 C320 0.929 . S
C312 H306 0.930 . S
C312 C313 1.367 . S
C312 C320 1.378 . S
C313 C312 1.367 . S
C313 C321 1.433 . S
C314 H310 0.929 . S
C314 C316 1.378 . S
C314 C318 1.350 . S
C315 C318 1.463 . S
C315 C320 1.350 . S
C315 N323 1.427 . S
C316 H307 0.930 . S
C316 C314 1.378 . S
C316 C317 1.367 . S
C317 C316 1.367 . S
C317 C319 1.433 . S
C318 C314 1.350 . S
C318 C315 1.463 . S
C318 N322 1.427 . S
C319 H309 0.929 . S
C319 C317 1.433 . S
C319 N322 1.384 . S
C320 H311 0.929 . S
C320 C312 1.378 . S
C320 C315 1.350 . S
C321 H308 0.929 . S
C321 C313 1.433 . S
C321 N323 1.384 . S
N322 C318 1.427 . S
N322 C319 1.384 . S
N323 C315 1.427 . S
N323 C321 1.384 . S
H324 C330 0.930 . S
H325 C334 0.930 . S
H326 C339 0.929 . S
H327 C337 0.929 . S
H328 C332 0.929 . S
H329 C338 0.929 . S
C330 H324 0.930 . S
C330 C331 1.367 . S
C330 C338 1.378 . S
C331 C330 1.367 . S
C331 C339 1.433 . S
C332 H328 0.929 . S
C332 C334 1.378 . S
C332 C336 1.350 . S
C333 C336 1.463 . S
C333 C338 1.350 . S
C333 N341 1.427 . S
C334 H325 0.930 . S
C334 C332 1.378 . S
C334 C335 1.367 . S
C335 C334 1.367 . S
C335 C337 1.433 . S
C336 C332 1.350 . S
C336 C333 1.463 . S
C336 N340 1.427 . S
C337 H327 0.929 . S
C337 C335 1.433 . S
C337 N340 1.384 . S
C338 H329 0.929 . S
C338 C330 1.378 . S
C338 C333 1.350 . S
C339 H326 0.929 . S
C339 C331 1.433 . S
C339 N341 1.384 . S
N340 C336 1.427 . S
N340 C337 1.384 . S
N341 C333 1.427 . S
N341 C339 1.384 . S
H342 C348 0.930 . S
H343 C352 0.930 . S
H344 C357 0.929 . S
H345 C355 0.929 . S
H346 C350 0.929 . S
H347 C356 0.929 . S
C348 H342 0.930 . S
C348 C349 1.367 . S
C348 C356 1.378 . S
C349 C348 1.367 . S
C349 C357 1.433 . S
C350 H346 0.929 . S
C350 C352 1.378 . S
C350 C354 1.350 . S
C351 C354 1.463 . S
C351 C356 1.350 . S
C351 N359 1.427 . S
C352 H343 0.930 . S
C352 C350 1.378 . S
C352 C353 1.367 . S
C353 C352 1.367 . S
C353 C355 1.433 . S
C354 C350 1.350 . S
C354 C351 1.463 . S
C354 N358 1.427 . S
C355 H345 0.929 . S
C355 C353 1.433 . S
C355 N358 1.384 . S
C356 H347 0.929 . S
C356 C348 1.378 . S
C356 C351 1.350 . S
C357 H344 0.929 . S
C357 C349 1.433 . S
C357 N359 1.384 . S
N358 C354 1.427 . S
N358 C355 1.384 . S
N359 C351 1.427 . S
N359 C357 1.384 . S
H360 C366 0.930 . S
H361 C370 0.930 . S
H362 C375 0.929 . S
H363 C373 0.901 1_655 S
H364 C368 0.929 . S
H365 C374 0.929 . S
C366 H360 0.930 . S
C366 C367 1.367 . S
C366 C374 1.378 . S
C367 C366 1.367 . S
C367 C375 1.433 1_655 S
C368 H364 0.929 . S
C368 C370 1.378 . S
C368 C372 1.350 . S
C369 C372 1.469 1_554 S
C369 C374 1.329 1_455 S
C369 N377 1.443 . S
C370 H361 0.930 . S
C370 C368 1.378 . S
C370 C371 1.367 . S
C371 C370 1.367 . S
C371 C373 1.433 . S
C372 C368 1.350 . S
C372 C369 1.469 1_556 S
C372 N376 1.427 1_455 S
C373 H363 0.901 1_455 S
C373 C371 1.433 . S
C373 N376 1.384 1_455 S
C374 H365 0.929 . S
C374 C366 1.378 . S
C374 C369 1.329 1_655 S
C375 H362 0.929 . S
C375 C367 1.433 1_455 S
C375 N377 1.384 . S
N376 C372 1.427 1_655 S
N376 C373 1.384 1_655 S
N377 C369 1.443 . S
N377 C375 1.384 . S
H378 C384 0.930 . S
H379 C388 0.930 . S
H380 C393 0.929 . S
H381 C391 0.929 . S
H382 C386 0.929 . S
H383 C392 0.929 . S
C384 H378 0.930 . S
C384 C385 1.367 . S
C384 C392 1.378 . S
C385 C384 1.367 . S
C385 C393 1.433 . S
C386 H382 0.929 . S
C386 C388 1.378 . S
C386 C390 1.350 . S
C387 C390 1.463 1_554 S
C387 C392 1.350 . S
C387 N395 1.427 . S
C388 H379 0.930 . S
C388 C386 1.378 . S
C388 C389 1.367 . S
C389 C388 1.367 . S
C389 C391 1.433 . S
C390 C386 1.350 . S
C390 C387 1.463 1_556 S
C390 N394 1.427 . S
C391 H381 0.929 . S
C391 C389 1.433 . S
C391 N394 1.384 . S
C392 H383 0.929 . S
C392 C384 1.378 . S
C392 C387 1.350 . S
C393 H380 0.929 . S
C393 C385 1.433 . S
C393 N395 1.384 . S
N394 C390 1.427 . S
N394 C391 1.384 . S
N395 C387 1.427 . S
N395 C393 1.384 . S
H396 C402 0.929 1_565 S
H397 C406 0.930 . S
H398 C411 0.929 . S
H399 C409 0.929 . S
H400 C404 0.929 . S
H401 C410 0.929 . S
C402 H396 0.929 1_545 S
C402 C403 1.369 . S
C402 C410 1.377 1_545 S
C403 C402 1.369 . S
C403 C411 1.433 . S
C404 H400 0.929 . S
C404 C406 1.378 . S
C404 C408 1.350 . S
C405 C408 1.463 1_554 S
C405 C410 1.350 1_545 S
C405 N413 1.427 . S
C406 H397 0.930 . S
C406 C404 1.378 . S
C406 C407 1.367 1_545 S
C407 C406 1.367 1_565 S
C407 C409 1.433 . S
C408 C404 1.350 . S
C408 C405 1.463 1_556 S
C408 N412 1.427 1_545 S
C409 H399 0.929 . S
C409 C407 1.433 . S
C409 N412 1.384 . S
C410 H401 0.929 . S
C410 C402 1.377 1_565 S
C410 C405 1.350 1_565 S
C411 H398 0.929 . S
C411 C403 1.433 . S
C411 N413 1.384 . S
N412 C408 1.427 1_565 S
N412 C409 1.384 . S
N413 C405 1.427 . S
N413 C411 1.384 . S
H414 C420 0.930 . S
H415 C424 0.930 . S
H416 C429 0.929 . S
H417 C427 0.929 . S
H418 C422 0.929 . S
H419 C428 0.929 . S
C420 H414 0.930 . S
C420 C421 1.367 . S
C420 C428 1.378 . S
C421 C420 1.367 . S
C421 C429 1.433 . S
C422 H418 0.929 . S
C422 C424 1.378 . S
C422 C426 1.350 . S
C423 C426 1.463 . S
C423 C428 1.350 . S
C423 N431 1.427 . S
C424 H415 0.930 . S
C424 C422 1.378 . S
C424 C425 1.367 . S
C425 C424 1.367 . S
C425 C427 1.433 . S
C426 C422 1.350 . S
C426 C423 1.463 . S
C426 N430 1.427 . S
C427 H417 0.929 . S
C427 C425 1.433 . S
C427 N430 1.384 . S
C428 H419 0.929 . S
C428 C420 1.378 . S
C428 C423 1.350 . S
C429 H416 0.929 . S
C429 C421 1.433 . S
C429 N431 1.384 . S
N430 C426 1.427 . S
N430 C427 1.384 . S
N431 C423 1.427 . S
N431 C429 1.384 . S
H432 C438 0.930 . S
H433 C442 0.930 . S
H434 C447 0.929 . S
H435 C445 0.929 . S
H436 C440 0.929 . S
H437 C446 0.929 . S
C438 H432 0.930 . S
C438 C439 1.367 . S
C438 C446 1.378 . S
C439 C438 1.367 . S
C439 C447 1.433 . S
C440 H436 0.929 . S
C440 C442 1.378 . S
C440 C444 1.350 . S
C441 C444 1.463 . S
C441 C446 1.350 . S
C441 N449 1.427 . S
C442 H433 0.930 . S
C442 C440 1.378 . S
C442 C443 1.367 . S
C443 C442 1.367 . S
C443 C445 1.433 . S
C444 C440 1.350 . S
C444 C441 1.463 . S
C444 N448 1.427 . S
C445 H435 0.929 . S
C445 C443 1.433 . S
C445 N448 1.384 . S
C446 H437 0.929 . S
C446 C438 1.378 . S
C446 C441 1.350 . S
C447 H434 0.929 . S
C447 C439 1.433 . S
C447 N449 1.384 . S
N448 C444 1.427 . S
N448 C445 1.384 . S
N449 C441 1.427 . S
N449 C447 1.384 . S
H450 C456 0.930 . S
H451 C460 0.930 . S
H452 C465 0.929 . S
H453 C463 0.929 . S
H454 C458 0.929 . S
H455 C464 0.929 . S
C456 H450 0.930 . S
C456 C457 1.367 . S
C456 C464 1.378 . S
C457 C456 1.367 . S
C457 C465 1.433 . S
C458 H454 0.929 . S
C458 C460 1.378 . S
C458 C462 1.350 . S
C459 C462 1.463 . S
C459 C464 1.350 . S
C459 N467 1.427 . S
C460 H451 0.930 . S
C460 C458 1.378 . S
C460 C461 1.367 . S
C461 C460 1.367 . S
C461 C463 1.433 . S
C462 C458 1.350 . S
C462 C459 1.463 . S
C462 N466 1.427 . S
C463 H453 0.929 . S
C463 C461 1.433 . S
C463 N466 1.384 . S
C464 H455 0.929 . S
C464 C456 1.378 . S
C464 C459 1.350 . S
C465 H452 0.929 . S
C465 C457 1.433 . S
C465 N467 1.384 . S
N466 C462 1.427 . S
N466 C463 1.384 . S
N467 C459 1.427 . S
N467 C465 1.384 . S
H468 C474 0.930 . S
H469 C478 0.930 . S
H470 C483 0.929 . S
H471 C481 0.929 . S
H472 C476 0.929 . S
H473 C482 0.929 . S
C474 H468 0.930 . S
C474 C475 1.367 . S
C474 C482 1.378 . S
C475 C474 1.367 . S
C475 C483 1.433 . S
C476 H472 0.929 . S
C476 C478 1.378 . S
C476 C480 1.350 . S
C477 C480 1.463 . S
C477 C482 1.350 . S
C477 N485 1.427 . S
C478 H469 0.930 . S
C478 C476 1.378 . S
C478 C479 1.367 . S
C479 C478 1.367 . S
C479 C481 1.433 . S
C480 C476 1.350 . S
C480 C477 1.463 . S
C480 N484 1.427 . S
C481 H471 0.929 . S
C481 C479 1.433 . S
C481 N484 1.384 . S
C482 H473 0.929 . S
C482 C474 1.378 . S
C482 C477 1.350 . S
C483 H470 0.929 . S
C483 C475 1.433 . S
C483 N485 1.384 . S
N484 C480 1.427 . S
N484 C481 1.384 . S
N485 C477 1.427 . S
N485 C483 1.384 . S
H486 C492 0.930 . S
H487 C496 0.930 . S
H488 C501 0.929 . S
H489 C499 0.929 . S
H490 C494 0.929 . S
H491 C500 0.929 . S
C492 H486 0.930 . S
C492 C493 1.367 . S
C492 C500 1.378 . S
C493 C492 1.367 . S
C493 C501 1.433 . S
C494 H490 0.929 . S
C494 C496 1.378 . S
C494 C498 1.350 . S
C495 C498 1.463 . S
C495 C500 1.350 . S
C495 N503 1.427 . S
C496 H487 0.930 . S
C496 C494 1.378 . S
C496 C497 1.367 . S
C497 C496 1.367 . S
C497 C499 1.433 . S
C498 C494 1.350 . S
C498 C495 1.463 . S
C498 N502 1.427 . S
C499 H489 0.929 . S
C499 C497 1.433 . S
C499 N502 1.384 . S
C500 H491 0.929 . S
C500 C492 1.378 . S
C500 C495 1.350 . S
C501 H488 0.929 . S
C501 C493 1.433 . S
C501 N503 1.384 . S
N502 C498 1.427 . S
N502 C499 1.384 . S
N503 C495 1.427 . S
N503 C501 1.384 . S
H504 C510 0.930 . S
H505 C514 0.930 . S
H506 C519 0.929 . S
H507 C517 0.929 . S
H508 C512 0.929 . S
H509 C518 0.929 . S
C510 H504 0.930 . S
C510 C511 1.367 . S
C510 C518 1.378 . S
C511 C510 1.367 . S
C511 C519 1.433 . S
C512 H508 0.929 . S
C512 C514 1.378 . S
C512 C516 1.350 . S
C513 C516 1.463 . S
C513 C518 1.350 . S
C513 N521 1.427 . S
C514 H505 0.930 . S
C514 C512 1.378 . S
C514 C515 1.367 . S
C515 C514 1.367 . S
C515 C517 1.433 . S
C516 C512 1.350 . S
C516 C513 1.463 . S
C516 N520 1.427 . S
C517 H507 0.929 . S
C517 C515 1.433 . S
C517 N520 1.384 . S
C518 H509 0.929 . S
C518 C510 1.378 . S
C518 C513 1.350 . S
C519 H506 0.929 . S
C519 C511 1.433 . S
C519 N521 1.384 . S
N520 C516 1.427 . S
N520 C517 1.384 . S
N521 C513 1.427 . S
N521 C519 1.384 . S
H522 C528 0.930 . S
H523 C532 0.930 . S
H524 C537 0.929 . S
H525 C535 0.929 . S
H526 C530 0.929 . S
H527 C536 0.929 . S
C528 H522 0.930 . S
C528 C529 1.367 . S
C528 C536 1.378 . S
C529 C528 1.367 . S
C529 C537 1.433 . S
C530 H526 0.929 . S
C530 C532 1.378 . S
C530 C534 1.350 . S
C531 C534 1.462 . S
C531 C536 1.351 1_455 S
C531 N539 1.426 . S
C532 H523 0.930 . S
C532 C530 1.378 . S
C532 C533 1.367 . S
C533 C532 1.367 . S
C533 C535 1.433 . S
C534 C530 1.350 . S
C534 C531 1.462 . S
C534 N538 1.427 . S
C535 H525 0.929 . S
C535 C533 1.433 . S
C535 N538 1.384 . S
C536 H527 0.929 . S
C536 C528 1.378 . S
C536 C531 1.351 1_655 S
C537 H524 0.929 . S
C537 C529 1.433 . S
C537 N539 1.384 1_655 S
N538 C534 1.427 . S
N538 C535 1.384 . S
N539 C531 1.426 . S
N539 C537 1.384 1_455 S
H540 C546 0.930 . S
H541 C550 0.930 . S
H542 C555 0.929 . S
H543 C553 0.929 . S
H544 C548 0.929 . S
H545 C554 0.929 . S
C546 H540 0.930 . S
C546 C547 1.367 . S
C546 C554 1.378 . S
C547 C546 1.367 . S
C547 C555 1.433 . S
C548 H544 0.929 . S
C548 C550 1.378 . S
C548 C552 1.350 . S
C549 C552 1.463 . S
C549 C554 1.350 . S
C549 N557 1.427 . S
C550 H541 0.930 . S
C550 C548 1.378 . S
C550 C551 1.367 . S
C551 C550 1.367 . S
C551 C553 1.433 . S
C552 C548 1.350 . S
C552 C549 1.463 . S
C552 N556 1.427 . S
C553 H543 0.929 . S
C553 C551 1.433 . S
C553 N556 1.384 . S
C554 H545 0.929 . S
C554 C546 1.378 . S
C554 C549 1.350 . S
C555 H542 0.929 . S
C555 C547 1.433 . S
C555 N557 1.384 . S
N556 C552 1.427 . S
N556 C553 1.384 . S
N557 C549 1.427 . S
N557 C555 1.384 . S
H558 C564 0.930 . S
H559 C568 0.930 . S
H560 C573 0.929 . S
H561 C571 0.929 1_565 S
H562 C566 0.929 . S
H563 C572 0.929 . S
C564 H558 0.930 . S
C564 C565 1.367 . S
C564 C572 1.378 . S
C565 C564 1.367 . S
C565 C573 1.433 1_565 S
C566 H562 0.929 . S
C566 C568 1.378 . S
C566 C570 1.350 . S
C567 C570 1.460 1_565 S
C567 C572 1.354 . S
C567 N575 1.426 1_565 S
C568 H559 0.930 . S
C568 C566 1.378 . S
C568 C569 1.367 . S
C569 C568 1.367 . S
C569 C571 1.433 . S
C570 C566 1.350 . S
C570 C567 1.460 1_545 S
C570 N574 1.427 1_545 S
C571 H561 0.929 1_545 S
C571 C569 1.433 . S
C571 N574 1.384 1_545 S
C572 H563 0.929 . S
C572 C564 1.378 . S
C572 C567 1.354 . S
C573 H560 0.929 . S
C573 C565 1.433 1_545 S
C573 N575 1.384 . S
N574 C570 1.427 1_565 S
N574 C571 1.384 1_565 S
N575 C567 1.426 1_545 S
N575 C573 1.384 . S
H576 C582 0.930 . S
H577 C586 0.930 . S
H578 C591 0.929 . S
H579 C589 0.929 . S
H580 C584 0.929 . S
H581 C590 0.929 . S
C582 H576 0.930 . S
C582 C583 1.367 1_556 S
C582 C590 1.378 . S
C583 C582 1.367 1_554 S
C583 C591 1.433 . S
C584 H580 0.929 . S
C584 C586 1.378 . S
C584 C588 1.350 1_554 S
C585 C588 1.463 1_554 S
C585 C590 1.350 1_554 S
C585 N593 1.427 . S
C586 H577 0.930 . S
C586 C584 1.378 . S
C586 C587 1.367 1_554 S
C587 C586 1.367 1_556 S
C587 C589 1.433 . S
C588 C584 1.350 1_556 S
C588 C585 1.463 1_556 S
C588 N592 1.427 . S
C589 H579 0.929 . S
C589 C587 1.433 . S
C589 N592 1.384 . S
C590 H581 0.929 . S
C590 C582 1.378 . S
C590 C585 1.350 1_556 S
C591 H578 0.929 . S
C591 C583 1.433 . S
C591 N593 1.384 . S
N592 C588 1.427 . S
N592 C589 1.384 . S
N593 C585 1.427 . S
N593 C591 1.384 . S
H594 C600 0.930 . S
H595 C604 0.930 . S
H596 C609 0.929 . S
H597 C607 0.929 . S
H598 C602 0.929 . S
H599 C608 0.929 . S
C600 H594 0.930 . S
C600 C601 1.367 . S
C600 C608 1.378 . S
C601 C600 1.367 . S
C601 C609 1.433 1_556 S
C602 H598 0.929 . S
C602 C604 1.378 . S
C602 C606 1.350 . S
C603 C606 1.463 1_546 S
C603 C608 1.350 . S
C603 N611 1.427 1_556 S
C604 H595 0.930 . S
C604 C602 1.378 . S
C604 C605 1.367 . S
C605 C604 1.367 . S
C605 C607 1.433 1_554 S
C606 C602 1.350 . S
C606 C603 1.463 1_564 S
C606 N610 1.427 1_554 S
C607 H597 0.929 . S
C607 C605 1.433 1_556 S
C607 N610 1.384 . S
C608 H599 0.929 . S
C608 C600 1.378 . S
C608 C603 1.350 . S
C609 H596 0.929 . S
C609 C601 1.433 1_554 S
C609 N611 1.384 . S
N610 C606 1.427 1_556 S
N610 C607 1.384 . S
N611 C603 1.427 1_554 S
N611 C609 1.384 . S
H612 C618 0.930 . S
H613 C622 0.930 . S
H614 C627 0.929 . S
H615 C625 0.929 . S
H616 C620 0.929 . S
H617 C626 0.929 . S
C618 H612 0.930 . S
C618 C619 1.367 . S
C618 C626 1.378 . S
C619 C618 1.367 . S
C619 C627 1.433 1_556 S
C620 H616 0.929 . S
C620 C622 1.378 . S
C620 C624 1.350 . S
C621 C624 1.463 1_656 S
C621 C626 1.350 . S
C621 N629 1.427 1_556 S
C622 H613 0.930 . S
C622 C620 1.378 . S
C622 C623 1.367 . S
C623 C622 1.367 . S
C623 C625 1.433 1_554 S
C624 C620 1.350 . S
C624 C621 1.463 1_454 S
C624 N628 1.427 1_554 S
C625 H615 0.929 . S
C625 C623 1.433 1_556 S
C625 N628 1.384 . S
C626 H617 0.929 . S
C626 C618 1.378 . S
C626 C621 1.350 . S
C627 H614 0.929 . S
C627 C619 1.433 1_554 S
C627 N629 1.384 . S
N628 C624 1.427 1_556 S
N628 C625 1.384 . S
N629 C621 1.427 1_554 S
N629 C627 1.384 . S
H630 C636 0.930 . S
H631 C640 0.930 . S
H632 C645 0.929 . S
H633 C643 0.929 . S
H634 C638 0.929 . S
H635 C644 0.929 . S
C636 H630 0.930 . S
C636 C637 1.367 . S
C636 C644 1.378 . S
C637 C636 1.367 . S
C637 C645 1.433 1_556 S
C638 H634 0.929 . S
C638 C640 1.378 . S
C638 C642 1.350 . S
C639 C642 1.463 1_556 S
C639 C644 1.350 . S
C639 N647 1.427 1_556 S
C640 H631 0.930 . S
C640 C638 1.378 . S
C640 C641 1.367 . S
C641 C640 1.367 . S
C641 C643 1.433 1_554 S
C642 C638 1.350 . S
C642 C639 1.463 1_554 S
C642 N646 1.427 1_554 S
C643 H633 0.929 . S
C643 C641 1.433 1_556 S
C643 N646 1.384 . S
C644 H635 0.929 . S
C644 C636 1.378 . S
C644 C639 1.350 . S
C645 H632 0.929 . S
C645 C637 1.433 1_554 S
C645 N647 1.384 . S
N646 C642 1.427 1_556 S
N646 C643 1.384 . S
N647 C639 1.427 1_554 S
N647 C645 1.384 . S
H648 C654 0.930 . S
H649 C658 0.930 . S
H650 C663 0.929 . S
H651 C661 0.929 . S
H652 C656 0.929 . S
H653 C662 0.929 . S
C654 H648 0.930 . S
C654 C655 1.367 1_556 S
C654 C662 1.378 . S
C655 C654 1.367 1_554 S
C655 C663 1.433 . S
C656 H652 0.929 . S
C656 C658 1.378 . S
C656 C660 1.350 1_554 S
C657 C660 1.463 1_564 S
C657 C662 1.350 1_554 S
C657 N665 1.427 . S
C658 H649 0.930 . S
C658 C656 1.378 . S
C658 C659 1.367 1_554 S
C659 C658 1.367 1_556 S
C659 C661 1.433 . S
C660 C656 1.350 1_556 S
C660 C657 1.463 1_546 S
C660 N664 1.427 . S
C661 H651 0.929 . S
C661 C659 1.433 . S
C661 N664 1.384 . S
C662 H653 0.929 . S
C662 C654 1.378 . S
C662 C657 1.350 1_556 S
C663 H650 0.929 . S
C663 C655 1.433 . S
C663 N665 1.384 . S
N664 C660 1.427 . S
N664 C661 1.384 . S
N665 C657 1.427 . S
N665 C663 1.384 . S
H666 C672 0.930 . S
H667 C676 0.930 . S
H668 C681 0.929 . S
H669 C679 0.929 . S
H670 C674 0.929 . S
H671 C680 0.929 . S
C672 H666 0.930 . S
C672 C673 1.367 . S
C672 C680 1.378 . S
C673 C672 1.367 . S
C673 C681 1.433 . S
C674 H670 0.929 . S
C674 C676 1.378 . S
C674 C678 1.350 . S
C675 C678 1.463 1_656 S
C675 C680 1.350 . S
C675 N683 1.427 . S
C676 H667 0.930 . S
C676 C674 1.378 . S
C676 C677 1.367 . S
C677 C676 1.367 . S
C677 C679 1.433 . S
C678 C674 1.350 . S
C678 C675 1.463 1_454 S
C678 N682 1.427 . S
C679 H669 0.929 . S
C679 C677 1.433 . S
C679 N682 1.384 . S
C680 H671 0.929 . S
C680 C672 1.378 . S
C680 C675 1.350 . S
C681 H668 0.929 . S
C681 C673 1.433 . S
C681 N683 1.384 . S
N682 C678 1.427 . S
N682 C679 1.384 . S
N683 C675 1.427 . S
N683 C681 1.384 . S
H684 C690 0.930 . S
H685 C694 0.930 . S
H686 C699 0.929 . S
H687 C697 0.929 . S
H688 C692 0.929 . S
H689 C698 0.929 . S
C690 H684 0.930 . S
C690 C691 1.367 . S
C690 C698 1.378 . S
C691 C690 1.367 . S
C691 C699 1.433 . S
C692 H688 0.929 . S
C692 C694 1.378 . S
C692 C696 1.350 . S
C693 C696 1.463 . S
C693 C698 1.350 . S
C693 N701 1.427 . S
C694 H685 0.930 . S
C694 C692 1.378 . S
C694 C695 1.367 . S
C695 C694 1.367 . S
C695 C697 1.433 . S
C696 C692 1.350 . S
C696 C693 1.463 . S
C696 N700 1.427 . S
C697 H687 0.929 . S
C697 C695 1.433 . S
C697 N700 1.384 . S
C698 H689 0.929 . S
C698 C690 1.378 . S
C698 C693 1.350 . S
C699 H686 0.929 . S
C699 C691 1.433 . S
C699 N701 1.384 . S
N700 C696 1.427 . S
N700 C697 1.384 . S
N701 C693 1.427 . S
N701 C699 1.384 . S
H702 C708 0.930 . S
H703 C712 0.930 . S
H704 C717 0.929 . S
H705 C715 0.929 . S
H706 C710 0.929 . S
H707 C716 0.929 . S
C708 H702 0.930 . S
C708 C709 1.367 . S
C708 C716 1.378 . S
C709 C708 1.367 . S
C709 C717 1.433 . S
C710 H706 0.929 . S
C710 C712 1.378 . S
C710 C714 1.350 . S
C711 C714 1.463 . S
C711 C716 1.350 . S
C711 N719 1.427 . S
C712 H703 0.930 . S
C712 C710 1.378 . S
C712 C713 1.367 . S
C713 C712 1.367 . S
C713 C715 1.433 . S
C714 C710 1.350 . S
C714 C711 1.463 . S
C714 N718 1.427 . S
C715 H705 0.929 . S
C715 C713 1.433 . S
C715 N718 1.384 . S
C716 H707 0.929 . S
C716 C708 1.378 . S
C716 C711 1.350 . S
C717 H704 0.929 . S
C717 C709 1.433 . S
C717 N719 1.384 . S
N718 C714 1.427 . S
N718 C715 1.384 . S
N719 C711 1.427 . S
N719 C717 1.384 . S
H720 C726 0.930 . S
H721 C730 0.930 . S
H722 C735 0.929 . S
H723 C733 0.929 . S
H724 C728 0.929 . S
H725 C734 0.929 . S
C726 H720 0.930 . S
C726 C727 1.367 . S
C726 C734 1.378 . S
C727 C726 1.367 . S
C727 C735 1.433 . S
C728 H724 0.929 . S
C728 C730 1.378 . S
C728 C732 1.350 . S
C729 C732 1.463 . S
C729 C734 1.350 . S
C729 N737 1.427 . S
C730 H721 0.930 . S
C730 C728 1.378 . S
C730 C731 1.367 . S
C731 C730 1.367 . S
C731 C733 1.433 . S
C732 C728 1.350 . S
C732 C729 1.463 . S
C732 N736 1.427 . S
C733 H723 0.929 . S
C733 C731 1.433 . S
C733 N736 1.384 . S
C734 H725 0.929 . S
C734 C726 1.378 . S
C734 C729 1.350 . S
C735 H722 0.929 . S
C735 C727 1.433 . S
C735 N737 1.384 . S
N736 C732 1.427 . S
N736 C733 1.384 . S
N737 C729 1.427 . S
N737 C735 1.384 . S
H738 C744 0.930 . S
H739 C748 0.930 . S
H740 C753 0.929 . S
H741 C751 0.929 . S
H742 C746 0.929 . S
H743 C752 0.929 . S
C744 H738 0.930 . S
C744 C745 1.367 . S
C744 C752 1.378 . S
C745 C744 1.367 . S
C745 C753 1.433 . S
C746 H742 0.929 . S
C746 C748 1.378 . S
C746 C750 1.350 . S
C747 C750 1.463 . S
C747 C752 1.350 . S
C747 N755 1.427 . S
C748 H739 0.930 . S
C748 C746 1.378 . S
C748 C749 1.367 . S
C749 C748 1.367 . S
C749 C751 1.433 . S
C750 C746 1.350 . S
C750 C747 1.463 . S
C750 N754 1.427 . S
C751 H741 0.929 . S
C751 C749 1.433 . S
C751 N754 1.384 . S
C752 H743 0.929 . S
C752 C744 1.378 . S
C752 C747 1.350 . S
C753 H740 0.929 . S
C753 C745 1.433 . S
C753 N755 1.384 . S
N754 C750 1.427 . S
N754 C751 1.384 . S
N755 C747 1.427 . S
N755 C753 1.384 . S
H756 C762 0.930 . S
H757 C766 0.930 . S
H758 C771 0.929 . S
H759 C769 0.929 . S
H760 C764 0.929 . S
H761 C770 0.929 . S
C762 H756 0.930 . S
C762 C763 1.367 . S
C762 C770 1.378 . S
C763 C762 1.367 . S
C763 C771 1.433 . S
C764 H760 0.929 . S
C764 C766 1.378 . S
C764 C768 1.350 . S
C765 C768 1.463 . S
C765 C770 1.350 . S
C765 N773 1.427 . S
C766 H757 0.930 . S
C766 C764 1.378 . S
C766 C767 1.367 . S
C767 C766 1.367 . S
C767 C769 1.433 . S
C768 C764 1.350 . S
C768 C765 1.463 . S
C768 N772 1.427 . S
C769 H759 0.929 . S
C769 C767 1.433 . S
C769 N772 1.384 . S
C770 H761 0.929 . S
C770 C762 1.378 . S
C770 C765 1.350 . S
C771 H758 0.929 . S
C771 C763 1.433 . S
C771 N773 1.384 . S
N772 C768 1.427 . S
N772 C769 1.384 . S
N773 C765 1.427 . S
N773 C771 1.384 . S
H774 C780 0.930 . S
H775 C784 0.930 . S
H776 C789 0.929 . S
H777 C787 0.929 . S
H778 C782 0.929 . S
H779 C788 0.929 . S
C780 H774 0.930 . S
C780 C781 1.367 . S
C780 C788 1.378 . S
C781 C780 1.367 . S
C781 C789 1.433 . S
C782 H778 0.929 . S
C782 C784 1.378 . S
C782 C786 1.350 . S
C783 C786 1.463 . S
C783 C788 1.350 . S
C783 N791 1.427 . S
C784 H775 0.930 . S
C784 C782 1.378 . S
C784 C785 1.367 . S
C785 C784 1.367 . S
C785 C787 1.433 . S
C786 C782 1.350 . S
C786 C783 1.463 . S
C786 N790 1.427 . S
C787 H777 0.929 . S
C787 C785 1.433 . S
C787 N790 1.384 . S
C788 H779 0.929 . S
C788 C780 1.378 . S
C788 C783 1.350 . S
C789 H776 0.929 . S
C789 C781 1.433 . S
C789 N791 1.384 . S
N790 C786 1.427 . S
N790 C787 1.384 . S
N791 C783 1.427 . S
N791 C789 1.384 . S
H792 C798 0.930 . S
H793 C802 0.930 . S
H794 C807 0.929 . S
H795 C805 0.929 . S
H796 C800 0.929 . S
H797 C806 0.929 . S
C798 H792 0.930 . S
C798 C799 1.367 . S
C798 C806 1.378 . S
C799 C798 1.367 . S
C799 C807 1.433 . S
C800 H796 0.929 . S
C800 C802 1.378 . S
C800 C804 1.350 . S
C801 C804 1.463 . S
C801 C806 1.350 . S
C801 N809 1.427 . S
C802 H793 0.930 . S
C802 C800 1.378 . S
C802 C803 1.367 . S
C803 C802 1.367 . S
C803 C805 1.433 . S
C804 C800 1.350 . S
C804 C801 1.463 . S
C804 N808 1.427 . S
C805 H795 0.929 . S
C805 C803 1.433 . S
C805 N808 1.384 . S
C806 H797 0.929 . S
C806 C798 1.378 . S
C806 C801 1.350 . S
C807 H794 0.929 . S
C807 C799 1.433 . S
C807 N809 1.384 . S
N808 C804 1.427 . S
N808 C805 1.384 . S
N809 C801 1.427 . S
N809 C807 1.384 . S
H810 C816 0.930 . S
H811 C820 0.930 . S
H812 C825 0.929 . S
H813 C823 0.929 . S
H814 C818 0.929 . S
H815 C824 0.929 . S
C816 H810 0.930 . S
C816 C817 1.367 . S
C816 C824 1.378 . S
C817 C816 1.367 . S
C817 C825 1.433 . S
C818 H814 0.929 . S
C818 C820 1.378 . S
C818 C822 1.350 . S
C819 C822 1.463 . S
C819 C824 1.350 . S
C819 N827 1.427 . S
C820 H811 0.930 . S
C820 C818 1.378 . S
C820 C821 1.367 . S
C821 C820 1.367 . S
C821 C823 1.433 . S
C822 C818 1.350 . S
C822 C819 1.463 . S
C822 N826 1.427 . S
C823 H813 0.929 . S
C823 C821 1.433 . S
C823 N826 1.384 . S
C824 H815 0.929 . S
C824 C816 1.378 . S
C824 C819 1.350 . S
C825 H812 0.929 . S
C825 C817 1.433 . S
C825 N827 1.384 . S
N826 C822 1.427 . S
N826 C823 1.384 . S
N827 C819 1.427 . S
N827 C825 1.384 . S
H828 C834 0.930 . S
H829 C838 0.930 . S
H830 C843 0.929 . S
H831 C841 0.929 . S
H832 C836 0.929 . S
H833 C842 0.929 . S
C834 H828 0.930 . S
C834 C835 1.367 . S
C834 C842 1.378 . S
C835 C834 1.367 . S
C835 C843 1.433 . S
C836 H832 0.929 . S
C836 C838 1.378 . S
C836 C840 1.350 . S
C837 C840 1.463 . S
C837 C842 1.350 . S
C837 N845 1.427 . S
C838 H829 0.930 . S
C838 C836 1.378 . S
C838 C839 1.367 . S
C839 C838 1.367 . S
C839 C841 1.433 . S
C840 C836 1.350 . S
C840 C837 1.463 . S
C840 N844 1.427 . S
C841 H831 0.929 . S
C841 C839 1.433 . S
C841 N844 1.384 . S
C842 H833 0.929 . S
C842 C834 1.378 . S
C842 C837 1.350 . S
C843 H830 0.929 . S
C843 C835 1.433 . S
C843 N845 1.384 . S
N844 C840 1.427 . S
N844 C841 1.384 . S
N845 C837 1.427 . S
N845 C843 1.384 . S
H846 C852 0.930 . S
H847 C856 0.930 . S
H848 C861 0.929 . S
H849 C859 0.929 . S
H850 C854 0.929 . S
H851 C860 0.929 . S
C852 H846 0.930 . S
C852 C853 1.367 . S
C852 C860 1.378 . S
C853 C852 1.367 . S
C853 C861 1.433 . S
C854 H850 0.929 . S
C854 C856 1.378 . S
C854 C858 1.350 . S
C855 C858 1.463 . S
C855 C860 1.350 . S
C855 N863 1.427 . S
C856 H847 0.930 . S
C856 C854 1.378 . S
C856 C857 1.367 . S
C857 C856 1.367 . S
C857 C859 1.433 . S
C858 C854 1.350 . S
C858 C855 1.463 . S
C858 N862 1.427 . S
C859 H849 0.929 . S
C859 C857 1.433 . S
C859 N862 1.384 . S
C860 H851 0.929 . S
C860 C852 1.378 . S
C860 C855 1.350 . S
C861 H848 0.929 . S
C861 C853 1.433 . S
C861 N863 1.384 . S
N862 C858 1.427 . S
N862 C859 1.384 . S
N863 C855 1.427 . S
N863 C861 1.384 . S
H864 C870 0.930 . S
H865 C874 0.930 . S
H866 C879 0.929 . S
H867 C877 0.929 . S
H868 C872 0.929 . S
H869 C878 0.929 . S
C870 H864 0.930 . S
C870 C871 1.367 . S
C870 C878 1.378 . S
C871 C870 1.367 . S
C871 C879 1.433 . S
C872 H868 0.929 . S
C872 C874 1.378 . S
C872 C876 1.350 . S
C873 C876 1.463 . S
C873 C878 1.350 . S
C873 N881 1.427 . S
C874 H865 0.930 . S
C874 C872 1.378 . S
C874 C875 1.367 . S
C875 C874 1.367 . S
C875 C877 1.433 . S
C876 C872 1.350 . S
C876 C873 1.463 . S
C876 N880 1.427 . S
C877 H867 0.929 . S
C877 C875 1.433 . S
C877 N880 1.384 . S
C878 H869 0.929 . S
C878 C870 1.378 . S
C878 C873 1.350 . S
C879 H866 0.929 . S
C879 C871 1.433 . S
C879 N881 1.384 . S
N880 C876 1.427 . S
N880 C877 1.384 . S
N881 C873 1.427 . S
N881 C879 1.384 . S
H882 C888 0.930 . S
H883 C892 0.930 . S
H884 C897 0.929 . S
H885 C895 0.929 . S
H886 C890 0.929 . S
H887 C896 0.929 . S
C888 H882 0.930 . S
C888 C889 1.367 . S
C888 C896 1.378 . S
C889 C888 1.367 . S
C889 C897 1.433 . S
C890 H886 0.929 . S
C890 C892 1.378 . S
C890 C894 1.350 . S
C891 C894 1.463 . S
C891 C896 1.350 . S
C891 N899 1.427 . S
C892 H883 0.930 . S
C892 C890 1.378 . S
C892 C893 1.367 . S
C893 C892 1.367 . S
C893 C895 1.433 . S
C894 C890 1.350 . S
C894 C891 1.463 . S
C894 N898 1.427 . S
C895 H885 0.929 . S
C895 C893 1.433 . S
C895 N898 1.384 . S
C896 H887 0.929 . S
C896 C888 1.378 . S
C896 C891 1.350 . S
C897 H884 0.929 . S
C897 C889 1.433 . S
C897 N899 1.384 . S
N898 C894 1.427 . S
N898 C895 1.384 . S
N899 C891 1.427 . S
N899 C897 1.384 . S
C259 C244 1.653 . S
C263 C6 1.653 . S
C277 C216 1.646 . S
C281 C20 1.646 . S
C295 C230 1.651 . S
C299 C34 1.648 . S
C313 C104 1.648 . S
C317 C48 1.646 . S
C331 C118 1.646 . S
C335 C62 1.647 . S
C349 C76 1.653 . S
C353 C90 1.652 . S
C367 C132 1.651 . S
C371 C188 1.653 . S
C385 C146 1.648 . S
C389 C202 1.651 . S
C403 C160 1.647 . S
C407 C174 1.646 . S
C421 C9 0.850 . S
C425 C247 0.860 . S
C439 C219 0.845 . S
C443 C23 0.854 . S
C457 C37 0.849 . S
C461 C233 0.859 . S
C475 C107 0.857 . S
C479 C51 0.865 . S
C493 C65 0.864 . S
C497 C121 0.865 . S
C511 C79 0.863 . S
C515 C93 0.854 . S
C529 C135 0.856 . S
C533 C191 0.847 . S
C547 C205 0.865 . S
C551 C149 0.858 . S
C565 C177 0.843 . S
C569 C163 0.849 . S
C583 C8 1.789 . S
C587 C50 1.788 . S
C601 C64 1.789 . S
C605 C22 1.788 . S
C619 C78 1.787 . S
C623 C36 1.789 . S
C637 C77 1.722 . S
C641 C21 1.722 . S
C655 C35 1.717 . S
C659 C49 1.715 . S
C673 C63 1.724 . S
C677 C7 1.714 . S
C691 C92 1.789 . S
C695 C134 1.789 . S
C709 C148 1.788 . S
C713 C106 1.789 . S
C727 C162 1.787 . S
C731 C120 1.790 . S
C745 C161 1.713 . S
C749 C105 1.719 . S
C763 C119 1.720 . S
C767 C133 1.713 . S
C781 C147 1.714 . S
C785 C91 1.718 . S
C799 C218 1.788 . S
C803 C176 1.788 . S
C817 C232 1.788 . S
C821 C190 1.789 . S
C835 C204 1.790 . S
C839 C246 1.788 . S
C853 C245 1.714 . S
C857 C189 1.718 . S
C871 C203 1.713 . S
C875 C217 1.719 . S
C889 C231 1.725 . S
C893 C175 1.717 . S
