# Generated by pormake.
# Topology ske, (6)-cn, num edge types: 1
# Building blocks:
#     Node 0, Type 0, BuildingBlock: MIFKUJ_clean_sbu_0, # of connection points: 6
#     Node 1, Type 0, BuildingBlock: MIFKUJ_clean_sbu_0, # of connection points: 6
#     Node 2, Type 0, BuildingBlock: MIFKUJ_clean_sbu_0, # of connection points: 6
#     Node 3, Type 0, BuildingBlock: MIFKUJ_clean_sbu_0, # of connection points: 6
#     Node 4, Type 0, BuildingBlock: MIFKUJ_clean_sbu_0, # of connection points: 6
#     Node 5, Type 0, BuildingBlock: MIFKUJ_clean_sbu_0, # of connection points: 6
#     Node 6, Type 0, BuildingBlock: MIFKUJ_clean_sbu_0, # of connection points: 6
#     Node 7, Type 0, BuildingBlock: MIFKUJ_clean_sbu_0, # of connection points: 6
#     Edge 8, Type (0, 0), BuildingBlock: CIFDUS_clean_linker_0, # of connection points: 2
#     Edge 9, Type (0, 0), BuildingBlock: CIFDUS_clean_linker_0, # of connection points: 2
#     Edge 10, Type (0, 0), BuildingBlock: CIFDUS_clean_linker_0, # of connection points: 2
#     Edge 11, Type (0, 0), BuildingBlock: CIFDUS_clean_linker_0, # of connection points: 2
#     Edge 12, Type (0, 0), BuildingBlock: CIFDUS_clean_linker_0, # of connection points: 2
#     Edge 13, Type (0, 0), BuildingBlock: CIFDUS_clean_linker_0, # of connection points: 2
#     Edge 14, Type (0, 0), BuildingBlock: CIFDUS_clean_linker_0, # of connection points: 2
#     Edge 15, Type (0, 0), BuildingBlock: CIFDUS_clean_linker_0, # of connection points: 2
#     Edge 16, Type (0, 0), BuildingBlock: CIFDUS_clean_linker_0, # of connection points: 2
#     Edge 17, Type (0, 0), BuildingBlock: CIFDUS_clean_linker_0, # of connection points: 2
#     Edge 18, Type (0, 0), BuildingBlock: CIFDUS_clean_linker_0, # of connection points: 2
#     Edge 19, Type (0, 0), BuildingBlock: CIFDUS_clean_linker_0, # of connection points: 2
#     Edge 20, Type (0, 0), BuildingBlock: CIFDUS_clean_linker_0, # of connection points: 2
#     Edge 21, Type (0, 0), BuildingBlock: CIFDUS_clean_linker_0, # of connection points: 2
#     Edge 22, Type (0, 0), BuildingBlock: CIFDUS_clean_linker_0, # of connection points: 2
#     Edge 23, Type (0, 0), BuildingBlock: CIFDUS_clean_linker_0, # of connection points: 2
#     Edge 24, Type (0, 0), BuildingBlock: CIFDUS_clean_linker_0, # of connection points: 2
#     Edge 25, Type (0, 0), BuildingBlock: CIFDUS_clean_linker_0, # of connection points: 2
#     Edge 26, Type (0, 0), BuildingBlock: CIFDUS_clean_linker_0, # of connection points: 2
#     Edge 27, Type (0, 0), BuildingBlock: CIFDUS_clean_linker_0, # of connection points: 2
#     Edge 28, Type (0, 0), BuildingBlock: CIFDUS_clean_linker_0, # of connection points: 2
#     Edge 29, Type (0, 0), BuildingBlock: CIFDUS_clean_linker_0, # of connection points: 2
#     Edge 30, Type (0, 0), BuildingBlock: CIFDUS_clean_linker_0, # of connection points: 2
#     Edge 31, Type (0, 0), BuildingBlock: CIFDUS_clean_linker_0, # of connection points: 2
# Relax obj value: 0.140
# Max RMSD: 0.177
# Mean RMSD: 0.156
data_MOF--net-ske--node1-MIFKUJ_clean_sbu_0--edge1-CIFDUS_clean_linker_0
_symmetry_space_group_name_H-M    P1
_symmetry_Int_Tables_number       1
_symmetry_cell_setting            triclinic
loop_
_symmetry_equiv_pos_as_xyz
'x, y, z'
_cell_length_a     64.767008
_cell_length_b     24.073513
_cell_length_c     15.492095
_cell_angle_alpha  91.110114
_cell_angle_beta   90.120527
_cell_angle_gamma 84.778287
loop_
_atom_site_label
_atom_site_type_symbol
_atom_site_fract_x
_atom_site_fract_y
_atom_site_fract_z
_atom_type_partial_charge
Zn0 Zn 0.15255 0.24982 0.70497 0.0
Zn1 Zn 0.10286 0.28248 0.53055 0.0
C2 C 0.15304 0.27904 0.88486 0.0
O3 O 0.16827 0.30738 0.85949 0.0
C4 C 0.10032 0.27273 0.3499 0.0
O5 O 0.0855 0.24247 0.37373 0.0
O6 O 0.18335 0.22948 0.69675 0.0
O7 O 0.1349 0.1926 0.63725 0.0
O8 O 0.10782 0.20136 0.54546 0.0
C9 C 0.1946 0.19075 0.73326 0.0
O10 O 0.18585 0.15369 0.77845 0.0
O11 O 0.14413 0.24948 0.82978 0.0
C12 C 0.06279 0.3479 0.52939 0.0
O13 O 0.07166 0.38046 0.47644 0.0
O14 O 0.07338 0.30618 0.56106 0.0
O15 O 0.12306 0.30303 0.61181 0.0
O16 O 0.14958 0.33245 0.67213 0.0
O17 O 0.11009 0.2979 0.4077 0.0
C18 C 0.12133 0.17146 0.58864 0.0
C19 C 0.13364 0.34311 0.6268 0.0
Zn20 Zn 0.90764 0.26062 0.46715 0.0
Zn21 Zn 0.85658 0.23879 0.62652 0.0
C22 C 0.91036 0.25411 0.2836 0.0
O23 O 0.91991 0.20505 0.30071 0.0
C24 C 0.86814 0.26725 0.80117 0.0
O25 O 0.85926 0.3168 0.78247 0.0
O26 O 0.93594 0.27016 0.5165 0.0
O27 O 0.88416 0.29117 0.53614 0.0
O28 O 0.85622 0.3216 0.60064 0.0
C29 C 0.94257 0.31482 0.54618 0.0
O30 O 0.93017 0.361 0.55034 0.0
O31 O 0.90447 0.28691 0.34561 0.0
C32 C 0.81776 0.20074 0.68681 0.0
O33 O 0.82891 0.18141 0.75242 0.0
O34 O 0.82662 0.22323 0.62513 0.0
O35 O 0.8746 0.1822 0.54811 0.0
O36 O 0.90279 0.18002 0.46453 0.0
O37 O 0.86831 0.22796 0.74525 0.0
C38 C 0.87154 0.33236 0.55598 0.0
C39 C 0.88794 0.15612 0.49736 0.0
Zn40 Zn 0.14895 0.75288 0.38994 0.0
Zn41 Zn 0.10292 0.75947 0.53137 0.0
C42 C 0.13657 0.74421 0.21667 0.0
O43 O 0.15083 0.70207 0.22348 0.0
C44 C 0.10381 0.7829 0.72124 0.0
O45 O 0.08676 0.81607 0.71097 0.0
O46 O 0.17863 0.7449 0.35077 0.0
O47 O 0.14747 0.81291 0.48099 0.0
O48 O 0.11352 0.82767 0.47727 0.0
C49 C 0.18568 0.78285 0.30657 0.0
O50 O 0.17338 0.82754 0.2882 0.0
O51 O 0.13172 0.7739 0.28375 0.0
C52 C 0.05955 0.73238 0.52174 0.0
O53 O 0.06773 0.68064 0.51262 0.0
O54 O 0.07146 0.77136 0.53045 0.0
O55 O 0.1122 0.68054 0.48923 0.0
O56 O 0.14343 0.67782 0.42927 0.0
O57 O 0.11247 0.75806 0.65576 0.0
C58 C 0.13105 0.84382 0.49796 0.0
C59 C 0.12861 0.65345 0.46017 0.0
Zn60 Zn 0.84419 0.74517 0.32269 0.0
Zn61 Zn 0.89228 0.72722 0.48392 0.0
C62 C 0.84955 0.76261 0.14388 0.0
O63 O 0.83703 0.80617 0.16789 0.0
C64 C 0.88965 0.68449 0.66202 0.0
O65 O 0.90412 0.64591 0.63643 0.0
O66 O 0.8131 0.75732 0.3078 0.0
O67 O 0.84789 0.6793 0.40122 0.0
O68 O 0.88187 0.66896 0.40456 0.0
C69 C 0.80386 0.71447 0.28751 0.0
O70 O 0.81495 0.6664 0.27612 0.0
O71 O 0.85595 0.72786 0.20123 0.0
C72 C 0.93544 0.75284 0.50459 0.0
O73 O 0.92709 0.80291 0.52646 0.0
O74 O 0.92367 0.71518 0.48398 0.0
O75 O 0.88304 0.8063 0.45082 0.0
O76 O 0.85434 0.81712 0.36991 0.0
O77 O 0.88225 0.72032 0.60808 0.0
C78 C 0.86458 0.65172 0.42342 0.0
C79 C 0.86886 0.83704 0.41302 0.0
Zn80 Zn 0.6417 0.73496 0.19628 0.0
Zn81 Zn 0.59303 0.76085 0.04988 0.0
C82 C 0.63204 0.7697 0.37434 0.0
O83 O 0.64773 0.80001 0.36504 0.0
C84 C 0.59592 0.76141 0.86673 0.0
O85 O 0.58382 0.72108 0.877 0.0
O86 O 0.67247 0.72668 0.22045 0.0
O87 O 0.634 0.66497 0.1323 0.0
O88 O 0.60466 0.6812 0.05743 0.0
C89 C 0.68303 0.67981 0.22683 0.0
O90 O 0.67363 0.63385 0.21938 0.0
O91 O 0.62654 0.74022 0.31071 0.0
C92 C 0.54991 0.7972 0.01469 0.0
O93 O 0.55784 0.83726 0.97303 0.0
O94 O 0.56196 0.76142 0.05381 0.0
O95 O 0.6032 0.80804 0.14463 0.0
O96 O 0.63679 0.80651 0.13164 0.0
O97 O 0.60191 0.78724 0.93333 0.0
C98 C 0.61957 0.64814 0.08504 0.0
C99 C 0.61893 0.83185 0.1223 0.0
Zn100 Zn 0.38965 0.75054 0.95649 0.0
Zn101 Zn 0.342 0.75356 0.12193 0.0
C102 C 0.38991 0.73781 0.77495 0.0
O103 O 0.40388 0.69809 0.799 0.0
C104 C 0.34645 0.79455 0.29659 0.0
O105 O 0.32997 0.82683 0.27373 0.0
O106 O 0.42055 0.75475 0.96571 0.0
O107 O 0.37655 0.80432 0.04437 0.0
O108 O 0.34324 0.8232 0.05327 0.0
C109 C 0.42822 0.79513 0.92939 0.0
O110 O 0.41593 0.83066 0.88543 0.0
O111 O 0.38078 0.7691 0.8331 0.0
C112 C 0.30518 0.7108 0.18974 0.0
O113 O 0.31849 0.67181 0.22098 0.0
O114 O 0.31176 0.7485 0.14366 0.0
O115 O 0.35371 0.6812 0.06209 0.0
O116 O 0.38188 0.67203 0.97776 0.0
O117 O 0.35518 0.7607 0.24072 0.0
C118 C 0.36052 0.83586 0.0256 0.0
C119 C 0.36695 0.65145 0.0159 0.0
Zn120 Zn 0.65689 0.22532 0.87731 0.0
Zn121 Zn 0.61076 0.24829 0.01604 0.0
C122 C 0.649 0.21915 0.69358 0.0
O123 O 0.66282 0.17589 0.69917 0.0
C124 C 0.61665 0.27247 0.20107 0.0
O125 O 0.59845 0.3011 0.19543 0.0
O126 O 0.68746 0.20606 0.85761 0.0
O127 O 0.65476 0.29232 0.95788 0.0
O128 O 0.62125 0.30478 0.93761 0.0
C129 C 0.69761 0.23305 0.80519 0.0
O130 O 0.688 0.27469 0.76319 0.0
O131 O 0.6435 0.24663 0.76208 0.0
C132 C 0.56735 0.26557 0.97248 0.0
O133 O 0.57418 0.24916 0.89548 0.0
O134 O 0.58024 0.26856 0.03395 0.0
O135 O 0.61456 0.16797 0.97738 0.0
O136 O 0.64593 0.15463 0.91827 0.0
O137 O 0.62493 0.24969 0.13316 0.0
C138 C 0.63795 0.32362 0.96255 0.0
C139 C 0.6298 0.13578 0.94893 0.0
Zn140 Zn 0.35344 0.23577 0.81512 0.0
Zn141 Zn 0.40304 0.25025 0.99205 0.0
C142 C 0.35614 0.26953 0.64132 0.0
O143 O 0.34086 0.30528 0.66827 0.0
C144 C 0.40664 0.23228 0.17188 0.0
O145 O 0.41956 0.19096 0.14267 0.0
O146 O 0.32359 0.21785 0.80885 0.0
O147 O 0.37175 0.17562 0.88459 0.0
O148 O 0.39905 0.16961 0.97374 0.0
C149 C 0.31758 0.16979 0.79356 0.0
O150 O 0.33134 0.12674 0.78272 0.0
O151 O 0.36424 0.23375 0.69358 0.0
C152 C 0.44399 0.28883 1.00231 0.0
O153 O 0.43735 0.30797 0.07821 0.0
O154 O 0.43168 0.26502 0.95278 0.0
O155 O 0.38026 0.28398 0.92361 0.0
O156 O 0.35333 0.31748 0.8556 0.0
O157 O 0.39798 0.26646 0.11848 0.0
C158 C 0.38495 0.14692 0.93164 0.0
C159 C 0.3685 0.32632 0.90369 0.0
H160 H 0.22456 0.10913 0.78038 0.0
H161 H 0.21593 0.27807 0.68909 0.0
H162 H 0.25296 0.28637 0.70091 0.0
H163 H 0.28772 0.24734 0.74099 0.0
H164 H 0.29742 0.07713 0.82428 0.0
H165 H 0.26014 0.06764 0.81188 0.0
C166 C 0.23082 0.14758 0.76263 0.0
C167 C 0.21741 0.19292 0.73431 0.0
C168 C 0.25232 0.15204 0.76863 0.0
C169 C 0.22582 0.24236 0.71088 0.0
C170 C 0.24703 0.24735 0.71796 0.0
C171 C 0.28166 0.20819 0.75661 0.0
C172 C 0.2952 0.16322 0.78445 0.0
C173 C 0.26038 0.20273 0.74754 0.0
C174 C 0.28723 0.11239 0.80287 0.0
C175 C 0.26594 0.10699 0.79588 0.0
H176 H 0.7212 0.26159 0.67165 0.0
H177 H 0.72422 0.16981 0.90854 0.0
H178 H 0.76157 0.14834 0.88989 0.0
H179 H 0.79363 0.15999 0.8102 0.0
H180 H 0.7903 0.25064 0.57196 0.0
H181 H 0.7528 0.26744 0.58678 0.0
C182 C 0.73003 0.23682 0.71913 0.0
C183 C 0.72001 0.21789 0.79183 0.0
C184 C 0.75144 0.22426 0.70768 0.0
C185 C 0.73159 0.18507 0.8521 0.0
C186 C 0.75295 0.1728 0.84154 0.0
C187 C 0.78469 0.18291 0.76103 0.0
C188 C 0.79483 0.20442 0.69055 0.0
C189 C 0.76308 0.19273 0.77007 0.0
C190 C 0.78295 0.23372 0.62712 0.0
C191 C 0.76148 0.2436 0.63565 0.0
H192 H 0.27521 0.79312 0.15252 0.0
H193 H 0.28534 0.6356 0.2816 0.0
H194 H 0.24912 0.64357 0.32786 0.0
H195 H 0.21491 0.69659 0.33508 0.0
H196 H 0.20515 0.85486 0.20779 0.0
H197 H 0.24098 0.84516 0.15752 0.0
C198 C 0.26951 0.76028 0.19032 0.0
C199 C 0.28299 0.71384 0.21362 0.0
C200 C 0.24877 0.76541 0.21744 0.0
C201 C 0.27531 0.67183 0.26285 0.0
C202 C 0.25461 0.67639 0.28945 0.0
C203 C 0.2206 0.72896 0.29625 0.0
C204 C 0.20736 0.77649 0.27554 0.0
C205 C 0.24125 0.72324 0.26776 0.0
C206 C 0.21499 0.81793 0.22497 0.0
C207 C 0.23549 0.81242 0.19609 0.0
H208 H 0.7068 0.76652 0.25265 0.0
H209 H 0.71051 0.58686 0.22873 0.0
H210 H 0.7481 0.58206 0.24501 0.0
H211 H 0.77991 0.62858 0.26451 0.0
H212 H 0.77642 0.80807 0.29023 0.0
H213 H 0.73872 0.81312 0.27463 0.0
C214 C 0.71581 0.72628 0.25111 0.0
C215 C 0.7058 0.67712 0.23929 0.0
C216 C 0.73746 0.72376 0.26063 0.0
C217 C 0.71775 0.62536 0.23779 0.0
C218 C 0.73928 0.62255 0.24695 0.0
C219 C 0.77094 0.66889 0.2666 0.0
C220 C 0.78101 0.71789 0.27824 0.0
C221 C 0.74929 0.67146 0.25808 0.0
C222 C 0.76908 0.76968 0.28132 0.0
C223 C 0.74752 0.77261 0.27239 0.0
H224 H 0.09974 0.9255 0.52122 0.0
H225 H 0.16623 0.89339 0.54084 0.0
H226 H 0.16914 0.99127 0.57918 0.0
H227 H 0.15288 0.08797 0.59688 0.0
H228 H 0.08651 0.11882 0.56989 0.0
H229 H 0.08352 0.01974 0.54569 0.0
C230 C 0.11488 0.93973 0.53431 0.0
C231 C 0.13272 0.90222 0.52709 0.0
C232 C 0.11649 0.99611 0.555 0.0
C233 C 0.1522 0.92145 0.54509 0.0
C234 C 0.1539 0.97748 0.56709 0.0
C235 C 0.13779 0.07269 0.58694 0.0
C236 C 0.11999 0.1106 0.58451 0.0
C237 C 0.13617 0.01547 0.57082 0.0
C238 C 0.10049 0.09045 0.57107 0.0
C239 C 0.09873 0.0338 0.55721 0.0
H240 H 0.84605 0.42562 0.59171 0.0
H241 H 0.90066 0.36703 0.44657 0.0
H242 H 0.90427 0.46121 0.39792 0.0
H243 H 0.89154 0.56052 0.39509 0.0
H244 H 0.83518 0.61779 0.52987 0.0
H245 H 0.83259 0.524 0.58463 0.0
C246 C 0.85874 0.43338 0.54934 0.0
C247 C 0.87332 0.38923 0.52385 0.0
C248 C 0.86039 0.48759 0.5201 0.0
C249 C 0.88946 0.40012 0.46821 0.0
C250 C 0.8915 0.4541 0.44022 0.0
C251 C 0.87881 0.55243 0.43703 0.0
C252 C 0.86364 0.59577 0.45905 0.0
C253 C 0.87707 0.49818 0.4659 0.0
C254 C 0.84701 0.58482 0.51218 0.0
C255 C 0.84552 0.53131 0.54337 0.0
H256 H 0.90208 0.89615 0.43578 0.0
H257 H 0.83542 0.91484 0.41427 0.0
H258 H 0.83522 0.01535 0.44209 0.0
H259 H 0.85415 0.09797 0.47507 0.0
H260 H 0.92098 0.07909 0.48479 0.0
H261 H 0.92099 0.97866 0.45974 0.0
C262 C 0.88752 0.92228 0.43702 0.0
C263 C 0.8688 0.89818 0.42357 0.0
C264 C 0.88756 0.97996 0.45144 0.0
C265 C 0.85005 0.93255 0.42411 0.0
C266 C 0.84992 0.98994 0.44046 0.0
C267 C 0.86866 0.07165 0.47189 0.0
C268 C 0.88752 0.09558 0.48238 0.0
C269 C 0.86858 0.01407 0.45479 0.0
C270 C 0.90627 0.06145 0.4768 0.0
C271 C 0.90629 0.00408 0.46255 0.0
H272 H 0.10021 0.58333 0.51089 0.0
H273 H 0.1645 0.58618 0.43858 0.0
H274 H 0.17155 0.48951 0.48052 0.0
H275 H 0.16028 0.40652 0.54993 0.0
H276 H 0.09614 0.40184 0.61899 0.0
H277 H 0.08813 0.4966 0.56584 0.0
C278 C 0.11569 0.56262 0.50323 0.0
C279 C 0.13182 0.59242 0.47278 0.0
C280 C 0.11972 0.50675 0.52751 0.0
C281 C 0.15176 0.56457 0.46229 0.0
C282 C 0.15589 0.50923 0.48666 0.0
C283 C 0.14455 0.42628 0.55239 0.0
C284 C 0.12876 0.39781 0.58785 0.0
C285 C 0.14012 0.48041 0.52139 0.0
C286 C 0.1084 0.42314 0.59052 0.0
C287 C 0.10388 0.47733 0.56084 0.0
H288 H 0.65163 0.56663 0.0995 0.0
H289 H 0.58788 0.59481 0.01634 0.0
H290 H 0.58786 0.497 0.97421 0.0
H291 H 0.60588 0.40396 0.95806 0.0
H292 H 0.6699 0.37489 0.03623 0.0
H293 H 0.66978 0.47243 0.08357 0.0
C294 C 0.63771 0.55132 0.07254 0.0
C295 C 0.61981 0.5882 0.06112 0.0
C296 C 0.63782 0.49485 0.0474 0.0
C297 C 0.60194 0.5676 0.02552 0.0
C298 C 0.60187 0.51155 1.00147 0.0
C299 C 0.61981 0.41881 0.98568 0.0
C300 C 0.63787 0.38219 0.9934 0.0
C301 C 0.61973 0.47491 0.01168 0.0
C302 C 0.65579 0.40226 0.02923 0.0
C303 C 0.65574 0.45803 0.05635 0.0
H304 H 0.39524 0.89068 0.01302 0.0
H305 H 0.32947 0.9081 0.96231 0.0
H306 H 0.33143 0.00514 0.92201 0.0
H307 H 0.35134 0.08737 0.91449 0.0
H308 H 0.41698 0.06965 0.96718 0.0
H309 H 0.41559 0.97042 0.99316 0.0
C310 C 0.38142 0.91526 0.99128 0.0
C311 C 0.36225 0.89212 0.99073 0.0
C312 C 0.3826 0.97123 0.96941 0.0
C313 C 0.34442 0.92496 0.96374 0.0
C314 C 0.34551 0.9805 0.9408 0.0
C315 C 0.3654 0.06147 0.92922 0.0
C316 C 0.38422 0.08585 0.93825 0.0
C317 C 0.36445 0.00444 0.94519 0.0
C318 C 0.40225 0.052 0.96018 0.0
C319 C 0.40149 0.99521 0.97503 0.0
H320 H 0.33915 0.4117 0.93441 0.0
H321 H 0.40513 0.36818 0.94396 0.0
H322 H 0.41076 0.46528 0.97981 0.0
H323 H 0.39679 0.56403 1.00025 0.0
H324 H 0.33054 0.60482 1.0024 0.0
H325 H 0.3251 0.50752 0.97035 0.0
C326 C 0.35474 0.42345 0.94517 0.0
C327 C 0.37172 0.38312 0.93582 0.0
C328 C 0.35779 0.47898 0.96726 0.0
C329 C 0.39183 0.39858 0.95103 0.0
C330 C 0.39504 0.45413 0.97099 0.0
C331 C 0.3812 0.55139 0.99407 0.0
C332 C 0.36409 0.59158 1.00266 0.0
C333 C 0.37815 0.49492 0.97788 0.0
C334 C 0.34395 0.57463 0.99598 0.0
C335 C 0.34082 0.51904 0.97745 0.0
H336 H 0.59785 0.0791 0.0042 0.0
H337 H 0.66169 0.05513 0.92049 0.0
H338 H 0.66342 0.95758 0.96113 0.0
H339 H 0.64802 0.88184 0.03373 0.0
H340 H 0.58423 0.90512 0.11711 0.0
H341 H 0.58128 0.0001 0.06268 0.0
C342 C 0.61208 0.05244 0.99378 0.0
C343 C 0.6297 0.07483 0.96056 0.0
C344 C 0.61307 0.99636 0.01802 0.0
C345 C 0.64791 0.03931 0.94649 0.0
C346 C 0.64897 0.98347 0.97006 0.0
C347 C 0.63342 0.90753 0.03945 0.0
C348 C 0.61649 0.88684 0.08084 0.0
C349 C 0.63184 0.96203 0.00814 0.0
C350 C 0.59756 0.92026 0.08624 0.0
C351 C 0.59587 0.97461 0.05526 0.0
H352 H 0.13334 0.31925 0.28162 0.0
H353 H 0.0819 0.22522 0.21218 0.0
H354 H 0.09372 0.21864 0.06274 0.0
H355 H 0.11907 0.23737 0.95236 0.0
H356 H 0.17058 0.33132 0.02097 0.0
H357 H 0.15835 0.33982 0.17007 0.0
C358 C 0.12463 0.29767 0.2337 0.0
C359 C 0.10678 0.27269 0.25826 0.0
C360 C 0.13161 0.2936 0.14777 0.0
C361 C 0.09571 0.24478 0.19525 0.0
C362 C 0.10248 0.24085 0.10969 0.0
C363 C 0.12767 0.25961 0.9999 0.0
C364 C 0.14577 0.28343 0.9755 0.0
C365 C 0.12051 0.26461 0.0854 0.0
C366 C 0.15662 0.31246 0.03793 0.0
C367 C 0.14962 0.31743 0.12326 0.0
H368 H 0.91254 0.18473 0.1435 0.0
H369 H 0.89302 0.35395 0.22461 0.0
H370 H 0.8787 0.37345 0.08128 0.0
H371 H 0.87011 0.34093 0.93556 0.0
H372 H 0.88882 0.17074 0.85666 0.0
H373 H 0.90499 0.15319 0.99683 0.0
C374 C 0.90538 0.22608 0.12961 0.0
C375 C 0.90381 0.26774 0.19462 0.0
C376 C 0.89683 0.2367 0.04778 0.0
C377 C 0.89439 0.32106 0.17566 0.0
C378 C 0.88613 0.33222 0.09384 0.0
C379 C 0.87776 0.30004 0.94892 0.0
C380 C 0.87814 0.25717 0.88589 0.0
C381 C 0.88696 0.29007 0.02987 0.0
C382 C 0.88819 0.20445 0.90417 0.0
C383 C 0.8975 0.19435 0.98427 0.0
H384 H 0.1494 0.70042 0.06177 0.0
H385 H 0.10375 0.82045 0.17829 0.0
H386 H 0.08962 0.84373 0.03522 0.0
H387 H 0.09027 0.82935 0.87645 0.0
H388 H 0.1368 0.7101 0.76293 0.0
H389 H 0.15054 0.68751 0.90544 0.0
C390 C 0.13629 0.73156 0.05622 0.0
C391 C 0.12757 0.75837 0.13084 0.0
C392 C 0.12844 0.74508 0.97407 0.0
C393 C 0.11073 0.79905 0.12197 0.0
C394 C 0.10266 0.8124 0.04014 0.0
C395 C 0.10345 0.79854 0.8829 0.0
C396 C 0.11242 0.77145 0.80871 0.0
C397 C 0.1114 0.78565 0.96561 0.0
C398 C 0.12954 0.73172 0.81851 0.0
C399 C 0.13742 0.7186 0.90017 0.0
H400 H 0.86437 0.76715 0.74047 0.0
H401 H 0.90077 0.61228 0.79242 0.0
H402 H 0.89176 0.62214 0.94552 0.0
H403 H 0.87393 0.67596 0.06618 0.0
H404 H 0.83801 0.83136 0.01168 0.0
H405 H 0.84651 0.81999 0.85924 0.0
C406 C 0.87026 0.7353 0.78502 0.0
C407 C 0.88324 0.68902 0.75446 0.0
C408 C 0.86519 0.74146 0.87325 0.0
C409 C 0.89076 0.6484 0.81374 0.0
C410 C 0.88564 0.65405 0.90158 0.0
C411 C 0.86799 0.70734 0.02097 0.0
C412 C 0.85535 0.75452 0.05108 0.0
C413 C 0.87296 0.70064 0.93235 0.0
C414 C 0.84778 0.79462 0.99106 0.0
C415 C 0.85261 0.78819 0.90343 0.0
H416 H 0.64053 0.82483 0.52428 0.0
H417 H 0.60062 0.70693 0.4166 0.0
H418 H 0.58541 0.69612 0.55838 0.0
H419 H 0.5845 0.71644 0.71382 0.0
H420 H 0.6243 0.83396 0.823 0.0
H421 H 0.63835 0.8488 0.67968 0.0
C422 C 0.62841 0.79703 0.53165 0.0
C423 C 0.62186 0.76649 0.45968 0.0
C424 C 0.61973 0.79076 0.61374 0.0
C425 C 0.60606 0.73085 0.47064 0.0
C426 C 0.59734 0.72454 0.55185 0.0
C427 C 0.59617 0.74555 0.70641 0.0
C428 C 0.60342 0.7737 0.77931 0.0
C429 C 0.60424 0.75371 0.62398 0.0
C430 C 0.61846 0.81157 0.76813 0.0
C431 C 0.62654 0.82001 0.68615 0.0
H432 H 0.36139 0.81345 0.70007 0.0
H433 H 0.40713 0.67646 0.63958 0.0
H434 H 0.39851 0.68345 0.48695 0.0
H435 H 0.37722 0.72597 0.37022 0.0
H436 H 0.33121 0.86238 0.42961 0.0
H437 H 0.34079 0.85822 0.58195 0.0
C438 C 0.36952 0.78527 0.65348 0.0
C439 C 0.38482 0.74433 0.6818 0.0
C440 C 0.36444 0.78932 0.5651 0.0
C441 C 0.39522 0.7083 0.62014 0.0
C442 C 0.39031 0.71221 0.5325 0.0
C443 C 0.36938 0.7551 0.41629 0.0
C444 C 0.35347 0.79431 0.38811 0.0
C445 C 0.37485 0.75224 0.50421 0.0
C446 C 0.34349 0.83163 0.44913 0.0
C447 C 0.34894 0.82926 0.53654 0.0
H448 H 0.6029 0.31282 0.35878 0.0
H449 H 0.65199 0.20596 0.23667 0.0
H450 H 0.6662 0.18042 0.37779 0.0
H451 H 0.66408 0.18548 0.5358 0.0
H452 H 0.6155 0.29325 0.65897 0.0
H453 H 0.60172 0.32119 0.51756 0.0
C454 C 0.6168 0.28425 0.36292 0.0
C455 C 0.62627 0.2612 0.28689 0.0
C456 C 0.62491 0.26952 0.44456 0.0
C457 C 0.64432 0.22439 0.29381 0.0
C458 C 0.65245 0.20955 0.37463 0.0
C459 C 0.65045 0.21503 0.53185 0.0
C460 C 0.64073 0.23682 0.608 0.0
C461 C 0.64273 0.23128 0.4504 0.0
C462 C 0.62325 0.27567 0.60147 0.0
C463 C 0.61536 0.29168 0.52058 0.0
H464 H 0.37694 0.30362 0.24913 0.0
H465 H 0.42313 0.1677 0.30218 0.0
H466 H 0.41183 0.16784 0.4523 0.0
H467 H 0.38802 0.20412 0.56722 0.0
H468 H 0.34154 0.33927 0.51374 0.0
H469 H 0.35378 0.34168 0.36516 0.0
C470 C 0.38466 0.27432 0.29365 0.0
C471 C 0.40083 0.23564 0.26429 0.0
C472 C 0.37794 0.27417 0.37975 0.0
C473 C 0.41062 0.19789 0.32291 0.0
C474 C 0.40414 0.19782 0.40882 0.0
C475 C 0.38057 0.23417 0.52315 0.0
C476 C 0.36382 0.27125 0.55158 0.0
C477 C 0.38766 0.23533 0.43768 0.0
C478 C 0.35442 0.31007 0.49361 0.0
C479 C 0.36142 0.31156 0.40855 0.0
H480 H 0.03882 0.27076 0.58853 0.0
H481 H 0.03597 0.43998 0.49917 0.0
H482 H 0.99807 0.447 0.50736 0.0
H483 H 0.96583 0.4017 0.52667 0.0
H484 H 0.96919 0.22968 0.60281 0.0
H485 H 0.0069 0.22718 0.61408 0.0
C486 C 0.02995 0.30952 0.57202 0.0
C487 C 0.04015 0.35475 0.54299 0.0
C488 C 0.00827 0.31255 0.57418 0.0
C489 C 0.02843 0.40448 0.52122 0.0
C490 C 0.00679 0.40848 0.52585 0.0
C491 C 0.97483 0.36406 0.54729 0.0
C492 C 0.96486 0.31592 0.56398 0.0
C493 C 0.99654 0.36233 0.55035 0.0
C494 C 0.97662 0.26712 0.58941 0.0
C495 C 0.99814 0.26567 0.59568 0.0
H496 H 0.96496 0.82502 0.53296 0.0
H497 H 0.95741 0.6517 0.47649 0.0
H498 H 0.99496 0.63016 0.47739 0.0
H499 H 0.03 0.66029 0.49409 0.0
H500 H 0.03761 0.83375 0.54904 0.0
H501 H 4e-05 0.85527 0.5488 0.0
C502 C 0.9715 0.78251 0.52087 0.0
C503 C 0.95831 0.7401 0.50471 0.0
C504 C 0.99317 0.77035 0.52118 0.0
C505 C 0.96714 0.68527 0.48896 0.0
C506 C 0.98864 0.67284 0.48954 0.0
C507 C 0.02347 0.70283 0.5061 0.0
C508 C 0.03668 0.74528 0.52161 0.0
C509 C 0.00181 0.71503 0.50556 0.0
C510 C 0.02787 0.80018 0.53682 0.0
C511 C 0.00635 0.81257 0.53675 0.0
H512 H 0.52036 0.86114 0.92708 0.0
H513 H 0.52879 0.71903 0.09348 0.0
H514 H 0.49199 0.7058 0.08179 0.0
H515 H 0.45749 0.73336 0.02221 0.0
H516 H 0.4491 0.8755 0.85583 0.0
H517 H 0.48577 0.88966 0.86956 0.0
C518 C 0.51415 0.82743 0.96117 0.0
C519 C 0.52736 0.79115 0.01098 0.0
C520 C 0.49297 0.8198 0.95384 0.0
C521 C 0.51901 0.74763 0.05461 0.0
C522 C 0.49795 0.73991 0.04787 0.0
C523 C 0.46368 0.7674 0.98886 0.0
C524 C 0.45055 0.80311 0.93778 0.0
C525 C 0.4848 0.7755 0.9972 0.0
C526 C 0.45884 0.8472 0.89538 0.0
C527 C 0.47983 0.85544 0.90325 0.0
H528 H 0.47553 0.3161 0.10609 0.0
H529 H 0.46237 0.26003 0.84707 0.0
H530 H 0.49938 0.25067 0.8136 0.0
H531 H 0.53555 0.25301 0.86057 0.0
H532 H 0.54859 0.30616 0.12129 0.0
H533 H 0.51155 0.32209 0.15117 0.0
C534 C 0.48071 0.30243 0.04197 0.0
C535 C 0.46618 0.28861 0.97932 0.0
C536 C 0.50202 0.29617 0.02362 0.0
C537 C 0.47321 0.27077 0.89666 0.0
C538 C 0.49439 0.26528 0.87748 0.0
C539 C 0.53031 0.26843 0.92376 0.0
C540 C 0.54486 0.27804 0.98867 0.0
C541 C 0.50895 0.27696 0.94091 0.0
C542 C 0.53776 0.29809 0.0702 0.0
C543 C 0.51656 0.30726 0.08741 0.0
loop_
_geom_bond_atom_site_label_1
_geom_bond_atom_site_label_2
_geom_bond_distance
_geom_bond_site_symmetry_2
_ccdc_geom_bond_type
Zn0 O6 1.969 . S
Zn0 O7 1.965 . S
Zn0 O11 2.024 . S
Zn0 O16 1.969 . S
Zn1 O8 1.969 . S
Zn1 O14 1.969 . S
Zn1 O15 1.965 . S
Zn1 O17 2.024 . S
C2 O3 1.229 . S
C2 O11 1.058 . S
O3 C2 1.229 . S
C4 O5 1.229 . S
C4 O17 1.058 . S
O5 C4 1.229 . S
O6 Zn0 1.969 . S
O6 C9 1.267 . S
O7 Zn0 1.965 . S
O7 C18 1.260 . S
O8 Zn1 1.969 . S
O8 C18 1.258 . S
C9 O6 1.267 . S
C9 O10 1.228 . S
O10 C9 1.228 . S
O11 Zn0 2.024 . S
O11 C2 1.058 . S
C12 O13 1.228 . S
C12 O14 1.267 . S
O13 C12 1.228 . S
O14 Zn1 1.969 . S
O14 C12 1.267 . S
O15 Zn1 1.965 . S
O15 C19 1.260 . S
O16 Zn0 1.969 . S
O16 C19 1.258 . S
O17 Zn1 2.024 . S
O17 C4 1.058 . S
C18 O7 1.260 . S
C18 O8 1.258 . S
C19 O15 1.260 . S
C19 O16 1.258 . S
Zn20 O26 1.969 . S
Zn20 O27 1.965 . S
Zn20 O31 2.024 . S
Zn20 O36 1.969 . S
Zn21 O28 1.969 . S
Zn21 O34 1.969 . S
Zn21 O35 1.965 . S
Zn21 O37 2.024 . S
C22 O23 1.229 . S
C22 O31 1.058 . S
O23 C22 1.229 . S
C24 O25 1.229 . S
C24 O37 1.058 . S
O25 C24 1.229 . S
O26 Zn20 1.969 . S
O26 C29 1.267 . S
O27 Zn20 1.965 . S
O27 C38 1.260 . S
O28 Zn21 1.969 . S
O28 C38 1.258 . S
C29 O26 1.267 . S
C29 O30 1.228 . S
O30 C29 1.228 . S
O31 Zn20 2.024 . S
O31 C22 1.058 . S
C32 O33 1.228 . S
C32 O34 1.267 . S
O33 C32 1.228 . S
O34 Zn21 1.969 . S
O34 C32 1.267 . S
O35 Zn21 1.965 . S
O35 C39 1.260 . S
O36 Zn20 1.969 . S
O36 C39 1.258 . S
O37 Zn21 2.024 . S
O37 C24 1.058 . S
C38 O27 1.260 . S
C38 O28 1.258 . S
C39 O35 1.260 . S
C39 O36 1.258 . S
Zn40 O46 1.969 . S
Zn40 O47 1.965 . S
Zn40 O51 2.024 . S
Zn40 O56 1.969 . S
Zn41 O48 1.969 . S
Zn41 O54 1.969 . S
Zn41 O55 1.965 . S
Zn41 O57 2.024 . S
C42 O43 1.229 . S
C42 O51 1.058 . S
O43 C42 1.229 . S
C44 O45 1.229 . S
C44 O57 1.058 . S
O45 C44 1.229 . S
O46 Zn40 1.969 . S
O46 C49 1.267 . S
O47 Zn40 1.965 . S
O47 C58 1.260 . S
O48 Zn41 1.969 . S
O48 C58 1.258 . S
C49 O46 1.267 . S
C49 O50 1.228 . S
O50 C49 1.228 . S
O51 Zn40 2.024 . S
O51 C42 1.058 . S
C52 O53 1.228 . S
C52 O54 1.267 . S
O53 C52 1.228 . S
O54 Zn41 1.969 . S
O54 C52 1.267 . S
O55 Zn41 1.965 . S
O55 C59 1.260 . S
O56 Zn40 1.969 . S
O56 C59 1.258 . S
O57 Zn41 2.024 . S
O57 C44 1.058 . S
C58 O47 1.260 . S
C58 O48 1.258 . S
C59 O55 1.260 . S
C59 O56 1.258 . S
Zn60 O66 1.969 . S
Zn60 O67 1.965 . S
Zn60 O71 2.024 . S
Zn60 O76 1.969 . S
Zn61 O68 1.969 . S
Zn61 O74 1.969 . S
Zn61 O75 1.965 . S
Zn61 O77 2.024 . S
C62 O63 1.229 . S
C62 O71 1.058 . S
O63 C62 1.229 . S
C64 O65 1.229 . S
C64 O77 1.058 . S
O65 C64 1.229 . S
O66 Zn60 1.969 . S
O66 C69 1.267 . S
O67 Zn60 1.965 . S
O67 C78 1.260 . S
O68 Zn61 1.969 . S
O68 C78 1.258 . S
C69 O66 1.267 . S
C69 O70 1.228 . S
O70 C69 1.228 . S
O71 Zn60 2.024 . S
O71 C62 1.058 . S
C72 O73 1.228 . S
C72 O74 1.267 . S
O73 C72 1.228 . S
O74 Zn61 1.969 . S
O74 C72 1.267 . S
O75 Zn61 1.965 . S
O75 C79 1.260 . S
O76 Zn60 1.969 . S
O76 C79 1.258 . S
O77 Zn61 2.024 . S
O77 C64 1.058 . S
C78 O67 1.260 . S
C78 O68 1.258 . S
C79 O75 1.260 . S
C79 O76 1.258 . S
Zn80 O86 1.969 . S
Zn80 O87 1.965 . S
Zn80 O91 2.024 . S
Zn80 O96 1.969 . S
Zn81 O88 1.969 . S
Zn81 O94 1.969 . S
Zn81 O95 1.965 1_556 S
Zn81 O97 2.024 . S
C82 O83 1.229 . S
C82 O91 1.058 . S
O83 C82 1.229 . S
C84 O85 1.229 . S
C84 O97 1.058 . S
O85 C84 1.229 . S
O86 Zn80 1.969 . S
O86 C89 1.267 . S
O87 Zn80 1.965 . S
O87 C98 1.260 1_554 S
O88 Zn81 1.969 . S
O88 C98 1.258 . S
C89 O86 1.267 . S
C89 O90 1.228 . S
O90 C89 1.228 . S
O91 Zn80 2.024 . S
O91 C82 1.058 . S
C92 O93 1.228 . S
C92 O94 1.267 . S
O93 C92 1.228 . S
O94 Zn81 1.969 . S
O94 C92 1.267 . S
O95 Zn81 1.965 1_554 S
O95 C99 1.260 . S
O96 Zn80 1.969 . S
O96 C99 1.258 . S
O97 Zn81 2.024 . S
O97 C84 1.058 . S
C98 O87 1.260 1_556 S
C98 O88 1.258 . S
C99 O95 1.260 . S
C99 O96 1.258 . S
Zn100 O106 1.969 . S
Zn100 O107 1.965 1_556 S
Zn100 O111 2.024 . S
Zn100 O116 1.969 . S
Zn101 O108 1.969 . S
Zn101 O114 1.969 . S
Zn101 O115 1.965 . S
Zn101 O117 2.024 . S
C102 O103 1.229 . S
C102 O111 1.058 . S
O103 C102 1.229 . S
C104 O105 1.229 . S
C104 O117 1.058 . S
O105 C104 1.229 . S
O106 Zn100 1.969 . S
O106 C109 1.267 . S
O107 Zn100 1.965 1_554 S
O107 C118 1.260 . S
O108 Zn101 1.969 . S
O108 C118 1.258 . S
C109 O106 1.267 . S
C109 O110 1.228 . S
O110 C109 1.228 . S
O111 Zn100 2.024 . S
O111 C102 1.058 . S
C112 O113 1.228 . S
C112 O114 1.267 . S
O113 C112 1.228 . S
O114 Zn101 1.969 . S
O114 C112 1.267 . S
O115 Zn101 1.965 . S
O115 C119 1.260 1_554 S
O116 Zn100 1.969 . S
O116 C119 1.258 . S
O117 Zn101 2.024 . S
O117 C104 1.058 . S
C118 O107 1.260 . S
C118 O108 1.258 . S
C119 O115 1.260 1_556 S
C119 O116 1.258 . S
Zn120 O126 1.969 . S
Zn120 O127 1.965 . S
Zn120 O131 2.024 . S
Zn120 O136 1.969 . S
Zn121 O128 1.969 . S
Zn121 O134 1.969 . S
Zn121 O135 1.965 1_554 S
Zn121 O137 2.024 . S
C122 O123 1.229 . S
C122 O131 1.058 . S
O123 C122 1.229 . S
C124 O125 1.229 . S
C124 O137 1.058 . S
O125 C124 1.229 . S
O126 Zn120 1.969 . S
O126 C129 1.267 . S
O127 Zn120 1.965 . S
O127 C138 1.260 1_556 S
O128 Zn121 1.969 . S
O128 C138 1.258 . S
C129 O126 1.267 . S
C129 O130 1.228 . S
O130 C129 1.228 . S
O131 Zn120 2.024 . S
O131 C122 1.058 . S
C132 O133 1.228 . S
C132 O134 1.267 . S
O133 C132 1.228 . S
O134 Zn121 1.969 . S
O134 C132 1.267 . S
O135 Zn121 1.965 1_556 S
O135 C139 1.260 . S
O136 Zn120 1.969 . S
O136 C139 1.258 . S
O137 Zn121 2.024 . S
O137 C124 1.058 . S
C138 O127 1.260 1_554 S
C138 O128 1.258 . S
C139 O135 1.260 . S
C139 O136 1.258 . S
Zn140 O146 1.969 . S
Zn140 O147 1.965 . S
Zn140 O151 2.024 . S
Zn140 O156 1.969 . S
Zn141 O148 1.969 . S
Zn141 O154 1.969 . S
Zn141 O155 1.965 1_554 S
Zn141 O157 2.024 . S
C142 O143 1.229 . S
C142 O151 1.058 . S
O143 C142 1.229 . S
C144 O145 1.229 . S
C144 O157 1.058 . S
O145 C144 1.229 . S
O146 Zn140 1.969 . S
O146 C149 1.267 . S
O147 Zn140 1.965 . S
O147 C158 1.260 1_556 S
O148 Zn141 1.969 . S
O148 C158 1.258 . S
C149 O146 1.267 . S
C149 O150 1.228 . S
O150 C149 1.228 . S
O151 Zn140 2.024 . S
O151 C142 1.058 . S
C152 O153 1.228 . S
C152 O154 1.267 . S
O153 C152 1.228 . S
O154 Zn141 1.969 . S
O154 C152 1.267 . S
O155 Zn141 1.965 1_556 S
O155 C159 1.260 . S
O156 Zn140 1.969 . S
O156 C159 1.258 . S
O157 Zn141 2.024 . S
O157 C144 1.058 . S
C158 O147 1.260 1_554 S
C158 O148 1.258 . S
C159 O155 1.260 . S
C159 O156 1.258 . S
H160 C166 0.930 . S
H161 C169 0.930 . S
H162 C170 0.930 . S
H163 C171 0.930 . S
H164 C174 0.930 . S
H165 C175 0.930 . S
C166 H160 0.930 . S
C166 C167 1.355 . S
C166 C168 1.415 . S
C167 C166 1.355 . S
C167 C169 1.419 . S
C168 C166 1.415 . S
C168 C173 1.425 . S
C168 C175 1.409 . S
C169 H161 0.930 . S
C169 C167 1.419 . S
C169 C170 1.362 . S
C170 H162 0.930 . S
C170 C169 1.362 . S
C170 C173 1.409 . S
C171 H163 0.930 . S
C171 C172 1.355 . S
C171 C173 1.415 . S
C172 C171 1.355 . S
C172 C174 1.419 . S
C173 C168 1.425 . S
C173 C170 1.409 . S
C173 C171 1.415 . S
C174 H164 0.930 . S
C174 C172 1.419 . S
C174 C175 1.362 . S
C175 H165 0.930 . S
C175 C168 1.409 . S
C175 C174 1.362 . S
H176 C182 0.930 . S
H177 C185 0.930 . S
H178 C186 0.930 . S
H179 C187 0.930 . S
H180 C190 0.930 . S
H181 C191 0.930 . S
C182 H176 0.930 . S
C182 C183 1.355 . S
C182 C184 1.415 . S
C183 C182 1.355 . S
C183 C185 1.419 . S
C184 C182 1.415 . S
C184 C189 1.425 . S
C184 C191 1.409 . S
C185 H177 0.930 . S
C185 C183 1.419 . S
C185 C186 1.362 . S
C186 H178 0.930 . S
C186 C185 1.362 . S
C186 C189 1.409 . S
C187 H179 0.930 . S
C187 C188 1.355 . S
C187 C189 1.415 . S
C188 C187 1.355 . S
C188 C190 1.419 . S
C189 C184 1.425 . S
C189 C186 1.409 . S
C189 C187 1.415 . S
C190 H180 0.930 . S
C190 C188 1.419 . S
C190 C191 1.362 . S
C191 H181 0.930 . S
C191 C184 1.409 . S
C191 C190 1.362 . S
H192 C198 0.930 . S
H193 C201 0.930 . S
H194 C202 0.930 . S
H195 C203 0.930 . S
H196 C206 0.930 . S
H197 C207 0.930 . S
C198 H192 0.930 . S
C198 C199 1.355 . S
C198 C200 1.415 . S
C199 C198 1.355 . S
C199 C201 1.419 . S
C200 C198 1.415 . S
C200 C205 1.425 . S
C200 C207 1.409 . S
C201 H193 0.930 . S
C201 C199 1.419 . S
C201 C202 1.362 . S
C202 H194 0.930 . S
C202 C201 1.362 . S
C202 C205 1.409 . S
C203 H195 0.930 . S
C203 C204 1.355 . S
C203 C205 1.415 . S
C204 C203 1.355 . S
C204 C206 1.419 . S
C205 C200 1.425 . S
C205 C202 1.409 . S
C205 C203 1.415 . S
C206 H196 0.930 . S
C206 C204 1.419 . S
C206 C207 1.362 . S
C207 H197 0.930 . S
C207 C200 1.409 . S
C207 C206 1.362 . S
H208 C214 0.930 . S
H209 C217 0.930 . S
H210 C218 0.930 . S
H211 C219 0.930 . S
H212 C222 0.930 . S
H213 C223 0.930 . S
C214 H208 0.930 . S
C214 C215 1.355 . S
C214 C216 1.415 . S
C215 C214 1.355 . S
C215 C217 1.419 . S
C216 C214 1.415 . S
C216 C221 1.425 . S
C216 C223 1.409 . S
C217 H209 0.930 . S
C217 C215 1.419 . S
C217 C218 1.362 . S
C218 H210 0.930 . S
C218 C217 1.362 . S
C218 C221 1.409 . S
C219 H211 0.930 . S
C219 C220 1.355 . S
C219 C221 1.415 . S
C220 C219 1.355 . S
C220 C222 1.419 . S
C221 C216 1.425 . S
C221 C218 1.409 . S
C221 C219 1.415 . S
C222 H212 0.930 . S
C222 C220 1.419 . S
C222 C223 1.362 . S
C223 H213 0.930 . S
C223 C216 1.409 . S
C223 C222 1.362 . S
H224 C230 0.930 . S
H225 C233 0.930 . S
H226 C234 0.930 . S
H227 C235 0.930 . S
H228 C238 0.930 . S
H229 C239 0.930 . S
C230 H224 0.930 . S
C230 C231 1.355 . S
C230 C232 1.415 . S
C231 C230 1.355 . S
C231 C233 1.419 . S
C232 C230 1.415 . S
C232 C237 1.425 1_565 S
C232 C239 1.409 1_565 S
C233 H225 0.930 . S
C233 C231 1.419 . S
C233 C234 1.362 . S
C234 H226 0.930 . S
C234 C233 1.362 . S
C234 C237 1.409 1_565 S
C235 H227 0.930 . S
C235 C236 1.355 . S
C235 C237 1.415 . S
C236 C235 1.355 . S
C236 C238 1.419 . S
C237 C232 1.425 1_545 S
C237 C234 1.409 1_545 S
C237 C235 1.415 . S
C238 H228 0.930 . S
C238 C236 1.419 . S
C238 C239 1.362 . S
C239 H229 0.930 . S
C239 C232 1.409 1_545 S
C239 C238 1.362 . S
H240 C246 0.930 . S
H241 C249 0.930 . S
H242 C250 0.930 . S
H243 C251 0.930 . S
H244 C254 0.930 . S
H245 C255 0.930 . S
C246 H240 0.930 . S
C246 C247 1.355 . S
C246 C248 1.415 . S
C247 C246 1.355 . S
C247 C249 1.419 . S
C248 C246 1.415 . S
C248 C253 1.425 . S
C248 C255 1.409 . S
C249 H241 0.930 . S
C249 C247 1.419 . S
C249 C250 1.362 . S
C250 H242 0.930 . S
C250 C249 1.362 . S
C250 C253 1.409 . S
C251 H243 0.930 . S
C251 C252 1.355 . S
C251 C253 1.415 . S
C252 C251 1.355 . S
C252 C254 1.419 . S
C253 C248 1.425 . S
C253 C250 1.409 . S
C253 C251 1.415 . S
C254 H244 0.930 . S
C254 C252 1.419 . S
C254 C255 1.362 . S
C255 H245 0.930 . S
C255 C248 1.409 . S
C255 C254 1.362 . S
H256 C262 0.930 . S
H257 C265 0.930 . S
H258 C266 0.930 . S
H259 C267 0.930 . S
H260 C270 0.930 . S
H261 C271 0.930 . S
C262 H256 0.930 . S
C262 C263 1.355 . S
C262 C264 1.415 . S
C263 C262 1.355 . S
C263 C265 1.419 . S
C264 C262 1.415 . S
C264 C269 1.425 1_565 S
C264 C271 1.409 1_565 S
C265 H257 0.930 . S
C265 C263 1.419 . S
C265 C266 1.362 . S
C266 H258 0.930 . S
C266 C265 1.362 . S
C266 C269 1.409 1_565 S
C267 H259 0.930 . S
C267 C268 1.355 . S
C267 C269 1.415 . S
C268 C267 1.355 . S
C268 C270 1.419 . S
C269 C264 1.425 1_545 S
C269 C266 1.409 1_545 S
C269 C267 1.415 . S
C270 H260 0.930 . S
C270 C268 1.419 . S
C270 C271 1.362 . S
C271 H261 0.930 . S
C271 C264 1.409 1_545 S
C271 C270 1.362 . S
H272 C278 0.930 . S
H273 C281 0.930 . S
H274 C282 0.930 . S
H275 C283 0.930 . S
H276 C286 0.930 . S
H277 C287 0.930 . S
C278 H272 0.930 . S
C278 C279 1.355 . S
C278 C280 1.415 . S
C279 C278 1.355 . S
C279 C281 1.419 . S
C280 C278 1.415 . S
C280 C285 1.425 . S
C280 C287 1.409 . S
C281 H273 0.930 . S
C281 C279 1.419 . S
C281 C282 1.362 . S
C282 H274 0.930 . S
C282 C281 1.362 . S
C282 C285 1.409 . S
C283 H275 0.930 . S
C283 C284 1.355 . S
C283 C285 1.415 . S
C284 C283 1.355 . S
C284 C286 1.419 . S
C285 C280 1.425 . S
C285 C282 1.409 . S
C285 C283 1.415 . S
C286 H276 0.930 . S
C286 C284 1.419 . S
C286 C287 1.362 . S
C287 H277 0.930 . S
C287 C280 1.409 . S
C287 C286 1.362 . S
H288 C294 0.930 . S
H289 C297 0.930 . S
H290 C298 0.930 . S
H291 C299 0.930 . S
H292 C302 0.930 . S
H293 C303 0.930 . S
C294 H288 0.930 . S
C294 C295 1.354 1_556 S
C294 C296 1.415 . S
C295 C294 1.354 1_554 S
C295 C297 1.419 . S
C296 C294 1.415 . S
C296 C301 1.425 1_556 S
C296 C303 1.410 . S
C297 H289 0.930 . S
C297 C295 1.419 . S
C297 C298 1.362 . S
C298 H290 0.930 . S
C298 C297 1.362 . S
C298 C301 1.409 . S
C299 H291 0.930 . S
C299 C300 1.355 1_554 S
C299 C301 1.415 . S
C300 C299 1.355 1_556 S
C300 C302 1.419 . S
C301 C296 1.425 1_554 S
C301 C298 1.409 . S
C301 C299 1.415 . S
C302 H292 0.930 . S
C302 C300 1.419 . S
C302 C303 1.362 . S
C303 H293 0.930 . S
C303 C296 1.410 . S
C303 C302 1.362 . S
H304 C310 0.930 . S
H305 C313 0.930 . S
H306 C314 0.930 . S
H307 C315 0.930 . S
H308 C318 0.930 . S
H309 C319 0.930 . S
C310 H304 0.930 . S
C310 C311 1.353 1_556 S
C310 C312 1.415 . S
C311 C310 1.353 1_554 S
C311 C313 1.419 . S
C312 C310 1.415 . S
C312 C317 1.425 1_566 S
C312 C319 1.409 1_565 S
C313 H305 0.930 . S
C313 C311 1.419 . S
C313 C314 1.362 . S
C314 H306 0.930 . S
C314 C313 1.362 . S
C314 C317 1.409 1_565 S
C315 H307 0.930 . S
C315 C316 1.355 1_554 S
C315 C317 1.415 . S
C316 C315 1.355 1_556 S
C316 C318 1.419 . S
C317 C312 1.425 1_544 S
C317 C314 1.409 1_545 S
C317 C315 1.415 . S
C318 H308 0.930 . S
C318 C316 1.419 . S
C318 C319 1.362 . S
C319 H309 0.930 . S
C319 C312 1.409 1_545 S
C319 C318 1.362 . S
H320 C326 0.930 . S
H321 C329 0.930 . S
H322 C330 0.930 . S
H323 C331 0.930 . S
H324 C334 0.930 . S
H325 C335 0.930 . S
C326 H320 0.930 . S
C326 C327 1.355 . S
C326 C328 1.415 . S
C327 C326 1.355 . S
C327 C329 1.419 1_556 S
C328 C326 1.415 . S
C328 C333 1.425 1_556 S
C328 C335 1.409 . S
C329 H321 0.930 . S
C329 C327 1.419 1_554 S
C329 C330 1.362 . S
C330 H322 0.930 . S
C330 C329 1.362 . S
C330 C333 1.409 . S
C331 H323 0.930 . S
C331 C332 1.355 . S
C331 C333 1.415 . S
C332 C331 1.355 . S
C332 C334 1.419 1_554 S
C333 C328 1.425 1_554 S
C333 C330 1.409 . S
C333 C331 1.415 . S
C334 H324 0.930 . S
C334 C332 1.419 1_556 S
C334 C335 1.362 . S
C335 H325 0.930 . S
C335 C328 1.409 . S
C335 C334 1.362 . S
H336 C342 0.930 . S
H337 C345 0.930 . S
H338 C346 0.930 . S
H339 C347 0.930 . S
H340 C350 0.930 . S
H341 C351 0.930 . S
C342 H336 0.930 . S
C342 C343 1.355 1_554 S
C342 C344 1.415 . S
C343 C342 1.355 1_556 S
C343 C345 1.419 . S
C344 C342 1.415 . S
C344 C349 1.425 1_544 S
C344 C351 1.409 1_545 S
C345 H337 0.930 . S
C345 C343 1.419 . S
C345 C346 1.362 . S
C346 H338 0.930 . S
C346 C345 1.362 . S
C346 C349 1.409 1_545 S
C347 H339 0.930 . S
C347 C348 1.355 1_556 S
C347 C349 1.415 . S
C348 C347 1.355 1_554 S
C348 C350 1.419 . S
C349 C344 1.425 1_566 S
C349 C346 1.409 1_565 S
C349 C347 1.415 . S
C350 H340 0.930 . S
C350 C348 1.419 . S
C350 C351 1.362 . S
C351 H341 0.930 . S
C351 C344 1.409 1_565 S
C351 C350 1.362 . S
H352 C358 0.930 . S
H353 C361 0.930 . S
H354 C362 0.930 . S
H355 C363 0.930 . S
H356 C366 0.930 . S
H357 C367 0.930 1_554 S
C358 H352 0.930 . S
C358 C359 1.355 . S
C358 C360 1.415 . S
C359 C358 1.355 . S
C359 C361 1.419 . S
C360 C358 1.415 . S
C360 C365 1.425 1_554 S
C360 C367 1.409 1_554 S
C361 H353 0.930 . S
C361 C359 1.419 . S
C361 C362 1.362 . S
C362 H354 0.930 . S
C362 C361 1.362 . S
C362 C365 1.409 1_554 S
C363 H355 0.930 . S
C363 C364 1.355 . S
C363 C365 1.415 . S
C364 C363 1.355 . S
C364 C366 1.419 . S
C365 C360 1.425 1_556 S
C365 C362 1.409 1_556 S
C365 C363 1.415 . S
C366 H356 0.930 . S
C366 C364 1.419 . S
C366 C367 1.362 . S
C367 H357 0.930 1_556 S
C367 C360 1.409 1_556 S
C367 C366 1.362 . S
H368 C374 0.930 . S
H369 C377 0.930 . S
H370 C378 0.930 . S
H371 C379 0.930 . S
H372 C382 0.930 . S
H373 C383 0.930 . S
C374 H368 0.930 . S
C374 C375 1.355 . S
C374 C376 1.415 . S
C375 C374 1.355 . S
C375 C377 1.419 . S
C376 C374 1.415 . S
C376 C381 1.425 1_554 S
C376 C383 1.409 1_554 S
C377 H369 0.930 . S
C377 C375 1.419 . S
C377 C378 1.362 . S
C378 H370 0.930 . S
C378 C377 1.362 . S
C378 C381 1.408 1_554 S
C379 H371 0.930 . S
C379 C380 1.355 . S
C379 C381 1.416 . S
C380 C379 1.355 . S
C380 C382 1.419 . S
C381 C376 1.425 1_556 S
C381 C378 1.408 1_556 S
C381 C379 1.416 . S
C382 H372 0.930 . S
C382 C380 1.419 . S
C382 C383 1.362 . S
C383 H373 0.930 . S
C383 C376 1.409 1_556 S
C383 C382 1.362 . S
H384 C390 0.930 . S
H385 C393 0.930 . S
H386 C394 0.930 . S
H387 C395 0.930 . S
H388 C398 0.930 . S
H389 C399 0.930 . S
C390 H384 0.930 . S
C390 C391 1.355 . S
C390 C392 1.415 . S
C391 C390 1.355 . S
C391 C393 1.419 . S
C392 C390 1.415 . S
C392 C397 1.425 1_554 S
C392 C399 1.409 1_554 S
C393 H385 0.930 . S
C393 C391 1.419 . S
C393 C394 1.362 . S
C394 H386 0.930 . S
C394 C393 1.362 . S
C394 C397 1.409 1_554 S
C395 H387 0.930 . S
C395 C396 1.355 . S
C395 C397 1.415 . S
C396 C395 1.355 . S
C396 C398 1.419 . S
C397 C392 1.425 1_556 S
C397 C394 1.409 1_556 S
C397 C395 1.415 . S
C398 H388 0.930 . S
C398 C396 1.419 . S
C398 C399 1.362 . S
C399 H389 0.930 . S
C399 C392 1.409 1_556 S
C399 C398 1.362 . S
H400 C406 0.930 . S
H401 C409 0.930 . S
H402 C410 0.930 . S
H403 C411 0.930 . S
H404 C414 0.930 . S
H405 C415 0.930 . S
C406 H400 0.930 . S
C406 C407 1.355 . S
C406 C408 1.415 . S
C407 C406 1.355 . S
C407 C409 1.419 . S
C408 C406 1.415 . S
C408 C413 1.425 1_556 S
C408 C415 1.409 1_556 S
C409 H401 0.930 . S
C409 C407 1.419 . S
C409 C410 1.362 . S
C410 H402 0.930 . S
C410 C409 1.362 . S
C410 C413 1.409 1_556 S
C411 H403 0.930 . S
C411 C412 1.355 . S
C411 C413 1.415 . S
C412 C411 1.355 . S
C412 C414 1.419 . S
C413 C408 1.425 1_554 S
C413 C410 1.409 1_554 S
C413 C411 1.415 . S
C414 H404 0.930 . S
C414 C412 1.419 . S
C414 C415 1.362 . S
C415 H405 0.930 . S
C415 C408 1.409 1_554 S
C415 C414 1.362 . S
H416 C422 0.930 . S
H417 C425 0.930 . S
H418 C426 0.930 . S
H419 C427 0.930 . S
H420 C430 0.930 . S
H421 C431 0.930 . S
C422 H416 0.930 . S
C422 C423 1.355 . S
C422 C424 1.415 . S
C423 C422 1.355 . S
C423 C425 1.419 . S
C424 C422 1.415 . S
C424 C429 1.425 . S
C424 C431 1.409 . S
C425 H417 0.930 . S
C425 C423 1.419 . S
C425 C426 1.362 . S
C426 H418 0.930 . S
C426 C425 1.362 . S
C426 C429 1.409 . S
C427 H419 0.930 . S
C427 C428 1.355 . S
C427 C429 1.415 . S
C428 C427 1.355 . S
C428 C430 1.419 . S
C429 C424 1.425 . S
C429 C426 1.409 . S
C429 C427 1.415 . S
C430 H420 0.930 . S
C430 C428 1.419 . S
C430 C431 1.362 . S
C431 H421 0.930 . S
C431 C424 1.409 . S
C431 C430 1.362 . S
H432 C438 0.930 . S
H433 C441 0.930 . S
H434 C442 0.930 . S
H435 C443 0.930 . S
H436 C446 0.930 . S
H437 C447 0.930 . S
C438 H432 0.930 . S
C438 C439 1.355 . S
C438 C440 1.415 . S
C439 C438 1.355 . S
C439 C441 1.419 . S
C440 C438 1.415 . S
C440 C445 1.425 . S
C440 C447 1.409 . S
C441 H433 0.930 . S
C441 C439 1.419 . S
C441 C442 1.362 . S
C442 H434 0.930 . S
C442 C441 1.362 . S
C442 C445 1.409 . S
C443 H435 0.930 . S
C443 C444 1.355 . S
C443 C445 1.415 . S
C444 C443 1.355 . S
C444 C446 1.419 . S
C445 C440 1.425 . S
C445 C442 1.409 . S
C445 C443 1.415 . S
C446 H436 0.930 . S
C446 C444 1.419 . S
C446 C447 1.362 . S
C447 H437 0.930 . S
C447 C440 1.409 . S
C447 C446 1.362 . S
H448 C454 0.930 . S
H449 C457 0.930 . S
H450 C458 0.930 . S
H451 C459 0.930 . S
H452 C462 0.930 . S
H453 C463 0.930 . S
C454 H448 0.930 . S
C454 C455 1.355 . S
C454 C456 1.415 . S
C455 C454 1.355 . S
C455 C457 1.419 . S
C456 C454 1.415 . S
C456 C461 1.425 . S
C456 C463 1.409 . S
C457 H449 0.930 . S
C457 C455 1.419 . S
C457 C458 1.362 . S
C458 H450 0.930 . S
C458 C457 1.362 . S
C458 C461 1.409 . S
C459 H451 0.930 . S
C459 C460 1.355 . S
C459 C461 1.415 . S
C460 C459 1.355 . S
C460 C462 1.419 . S
C461 C456 1.425 . S
C461 C458 1.409 . S
C461 C459 1.415 . S
C462 H452 0.930 . S
C462 C460 1.419 . S
C462 C463 1.362 . S
C463 H453 0.930 . S
C463 C456 1.409 . S
C463 C462 1.362 . S
H464 C470 0.930 . S
H465 C473 0.930 . S
H466 C474 0.930 . S
H467 C475 0.930 . S
H468 C478 0.930 . S
H469 C479 0.930 . S
C470 H464 0.930 . S
C470 C471 1.355 . S
C470 C472 1.415 . S
C471 C470 1.355 . S
C471 C473 1.419 . S
C472 C470 1.415 . S
C472 C477 1.425 . S
C472 C479 1.409 . S
C473 H465 0.930 . S
C473 C471 1.419 . S
C473 C474 1.362 . S
C474 H466 0.930 . S
C474 C473 1.362 . S
C474 C477 1.409 . S
C475 H467 0.930 . S
C475 C476 1.355 . S
C475 C477 1.415 . S
C476 C475 1.355 . S
C476 C478 1.419 . S
C477 C472 1.425 . S
C477 C474 1.409 . S
C477 C475 1.415 . S
C478 H468 0.930 . S
C478 C476 1.419 . S
C478 C479 1.362 . S
C479 H469 0.930 . S
C479 C472 1.409 . S
C479 C478 1.362 . S
H480 C486 0.930 . S
H481 C489 0.930 . S
H482 C490 0.930 . S
H483 C491 0.930 . S
H484 C494 0.930 . S
H485 C495 0.930 . S
C486 H480 0.930 . S
C486 C487 1.355 . S
C486 C488 1.415 . S
C487 C486 1.355 . S
C487 C489 1.419 . S
C488 C486 1.415 . S
C488 C493 1.425 1_455 S
C488 C495 1.409 1_455 S
C489 H481 0.930 . S
C489 C487 1.419 . S
C489 C490 1.362 . S
C490 H482 0.930 . S
C490 C489 1.362 . S
C490 C493 1.409 1_455 S
C491 H483 0.930 . S
C491 C492 1.355 . S
C491 C493 1.415 . S
C492 C491 1.355 . S
C492 C494 1.419 . S
C493 C488 1.425 1_655 S
C493 C490 1.409 1_655 S
C493 C491 1.415 . S
C494 H484 0.930 . S
C494 C492 1.419 . S
C494 C495 1.362 . S
C495 H485 0.930 . S
C495 C488 1.409 1_655 S
C495 C494 1.362 . S
H496 C502 0.930 . S
H497 C505 0.930 . S
H498 C506 0.930 . S
H499 C507 0.930 . S
H500 C510 0.930 . S
H501 C511 0.930 . S
C502 H496 0.930 . S
C502 C503 1.355 . S
C502 C504 1.415 . S
C503 C502 1.355 . S
C503 C505 1.419 . S
C504 C502 1.415 . S
C504 C509 1.425 1_655 S
C504 C511 1.409 1_655 S
C505 H497 0.930 . S
C505 C503 1.419 . S
C505 C506 1.362 . S
C506 H498 0.930 . S
C506 C505 1.362 . S
C506 C509 1.409 1_655 S
C507 H499 0.930 . S
C507 C508 1.355 . S
C507 C509 1.415 . S
C508 C507 1.355 . S
C508 C510 1.419 . S
C509 C504 1.425 1_455 S
C509 C506 1.409 1_455 S
C509 C507 1.415 . S
C510 H500 0.930 . S
C510 C508 1.419 . S
C510 C511 1.362 . S
C511 H501 0.930 . S
C511 C504 1.409 1_455 S
C511 C510 1.362 . S
H512 C518 0.930 . S
H513 C521 0.930 1_554 S
H514 C522 0.930 . S
H515 C523 0.930 1_554 S
H516 C526 0.930 . S
H517 C527 0.930 . S
C518 H512 0.930 . S
C518 C519 1.355 . S
C518 C520 1.415 . S
C519 C518 1.355 . S
C519 C521 1.419 . S
C520 C518 1.415 . S
C520 C525 1.425 . S
C520 C527 1.409 . S
C521 H513 0.930 1_556 S
C521 C519 1.419 . S
C521 C522 1.362 1_556 S
C522 H514 0.930 . S
C522 C521 1.362 1_554 S
C522 C525 1.409 1_554 S
C523 H515 0.930 1_556 S
C523 C524 1.355 . S
C523 C525 1.415 . S
C524 C523 1.355 . S
C524 C526 1.419 . S
C525 C520 1.425 . S
C525 C522 1.409 1_556 S
C525 C523 1.415 . S
C526 H516 0.930 . S
C526 C524 1.419 . S
C526 C527 1.362 . S
C527 H517 0.930 . S
C527 C520 1.409 . S
C527 C526 1.362 . S
H528 C534 0.930 . S
H529 C537 0.930 1_556 S
H530 C538 0.930 . S
H531 C539 0.930 1_556 S
H532 C542 0.930 . S
H533 C543 0.930 . S
C534 H528 0.930 . S
C534 C535 1.355 . S
C534 C536 1.415 . S
C535 C534 1.355 . S
C535 C537 1.419 . S
C536 C534 1.415 . S
C536 C541 1.425 . S
C536 C543 1.409 . S
C537 H529 0.930 1_554 S
C537 C535 1.419 . S
C537 C538 1.362 1_554 S
C538 H530 0.930 . S
C538 C537 1.362 1_556 S
C538 C541 1.409 1_556 S
C539 H531 0.930 1_554 S
C539 C540 1.355 . S
C539 C541 1.415 . S
C540 C539 1.355 . S
C540 C542 1.419 . S
C541 C536 1.425 . S
C541 C538 1.409 1_554 S
C541 C539 1.415 . S
C542 H532 0.930 . S
C542 C540 1.419 . S
C542 C543 1.362 . S
C543 H533 0.930 . S
C543 C536 1.409 . S
C543 C542 1.362 . S
C167 C9 1.632 . S
C172 C149 1.620 . S
C183 C129 1.674 . S
C188 C32 1.674 . S
C199 C112 1.610 . S
C204 C49 1.611 . S
C215 C89 1.643 . S
C220 C69 1.647 . S
C231 C58 1.454 . S
C236 C18 1.437 . S
C247 C38 1.236 . S
C252 C78 1.174 . S
C263 C79 1.754 . S
C268 C39 1.741 . S
C279 C59 1.498 . S
C284 C19 1.501 . S
C295 C98 1.446 1_554 S
C300 C138 1.467 1_556 S
C311 C118 1.196 . S
C316 C158 1.210 1_556 S
C327 C159 1.768 . S
C332 C119 1.751 1_554 S
C343 C139 1.495 . S
C348 C99 1.496 . S
C359 C4 1.462 . S
C364 C2 1.462 . S
C375 C22 1.489 . S
C380 C24 1.489 . S
C391 C42 1.459 . S
C396 C44 1.459 . S
C407 C64 1.450 . S
C412 C62 1.450 . S
C423 C82 1.500 . S
C428 C84 1.500 . S
C439 C102 1.463 . S
C444 C104 1.463 . S
C455 C124 1.472 . S
C460 C122 1.472 . S
C471 C144 1.447 . S
C476 C142 1.447 . S
C487 C12 1.935 . S
C492 C29 1.932 . S
C503 C72 1.914 . S
C508 C52 1.910 . S
C519 C92 1.938 . S
C524 C109 1.923 . S
C535 C152 1.915 . S
C540 C132 1.904 . S
