# Generated by pormake.
# Topology wlj, (5)-cn, num edge types: 1
# Building blocks:
#     Node 0, Type 0, BuildingBlock: XOMCOT_clean_sbu_0, # of connection points: 5
#     Node 1, Type 0, BuildingBlock: XOMCOT_clean_sbu_0, # of connection points: 5
#     Node 2, Type 0, BuildingBlock: XOMCOT_clean_sbu_0, # of connection points: 5
#     Node 3, Type 0, BuildingBlock: XOMCOT_clean_sbu_0, # of connection points: 5
#     Node 4, Type 0, BuildingBlock: XOMCOT_clean_sbu_0, # of connection points: 5
#     Node 5, Type 0, BuildingBlock: XOMCOT_clean_sbu_0, # of connection points: 5
#     Edge 6, Type (0, 0), BuildingBlock: CIFDUS_clean_linker_0, # of connection points: 2
#     Edge 7, Type (0, 0), BuildingBlock: CIFDUS_clean_linker_0, # of connection points: 2
#     Edge 8, Type (0, 0), BuildingBlock: CIFDUS_clean_linker_0, # of connection points: 2
#     Edge 9, Type (0, 0), BuildingBlock: CIFDUS_clean_linker_0, # of connection points: 2
#     Edge 10, Type (0, 0), BuildingBlock: CIFDUS_clean_linker_0, # of connection points: 2
#     Edge 11, Type (0, 0), BuildingBlock: CIFDUS_clean_linker_0, # of connection points: 2
#     Edge 12, Type (0, 0), BuildingBlock: CIFDUS_clean_linker_0, # of connection points: 2
#     Edge 13, Type (0, 0), BuildingBlock: CIFDUS_clean_linker_0, # of connection points: 2
#     Edge 14, Type (0, 0), BuildingBlock: CIFDUS_clean_linker_0, # of connection points: 2
#     Edge 15, Type (0, 0), BuildingBlock: CIFDUS_clean_linker_0, # of connection points: 2
#     Edge 16, Type (0, 0), BuildingBlock: CIFDUS_clean_linker_0, # of connection points: 2
#     Edge 17, Type (0, 0), BuildingBlock: CIFDUS_clean_linker_0, # of connection points: 2
#     Edge 18, Type (0, 0), BuildingBlock: CIFDUS_clean_linker_0, # of connection points: 2
#     Edge 19, Type (0, 0), BuildingBlock: CIFDUS_clean_linker_0, # of connection points: 2
#     Edge 20, Type (0, 0), BuildingBlock: CIFDUS_clean_linker_0, # of connection points: 2
# Relax obj value: 0.148
# Max RMSD: 0.204
# Mean RMSD: 0.204
data_MOF--net-wlj--node1-XOMCOT_clean_sbu_0--edge1-CIFDUS_clean_linker_0
_symmetry_space_group_name_H-M    P1
_symmetry_Int_Tables_number       1
_symmetry_cell_setting            triclinic
loop_
_symmetry_equiv_pos_as_xyz
'x, y, z'
_cell_length_a     22.612372
_cell_length_b     22.819865
_cell_length_c     48.237386
_cell_angle_alpha  90.169943
_cell_angle_beta   90.034661
_cell_angle_gamma 120.05352
loop_
_atom_site_label
_atom_site_type_symbol
_atom_site_fract_x
_atom_site_fract_y
_atom_site_fract_z
_atom_type_partial_charge
Co0 Co 0.55655 0.28252 0.26535 0.0
C1 C 0.55785 0.39278 0.23218 0.0
C2 C 0.48217 0.29377 0.21794 0.0
C3 C 0.47934 0.34101 0.20141 0.0
N4 N 0.53188 0.32601 0.237 0.0
N5 N 0.52671 0.403 0.21036 0.0
H6 H 0.59796 0.43279 0.24442 0.0
H7 H 0.44865 0.23966 0.21647 0.0
C8 C 0.53049 0.15299 0.23696 0.0
O9 O 0.5848 0.15701 0.24872 0.0
N10 N 0.57892 0.23653 0.29405 0.0
C11 C 0.63635 0.2598 0.30943 0.0
C12 C 0.63159 0.20806 0.3256 0.0
C13 C 0.53878 0.17157 0.30226 0.0
N14 N 0.57054 0.15241 0.32088 0.0
C15 C 0.70143 0.36798 0.26005 0.0
C16 C 0.71453 0.32849 0.20731 0.0
C17 C 0.77323 0.3764 0.22142 0.0
C18 C 0.76586 0.39676 0.24795 0.0
C19 C 0.65081 0.29995 0.22049 0.0
N20 N 0.64523 0.31707 0.24721 0.0
H21 H 0.69692 0.38829 0.2796 0.0
H22 H 0.60607 0.26589 0.20871 0.0
H23 H 0.67917 0.31051 0.30948 0.0
H24 H 0.48848 0.13808 0.2938 0.0
O25 O 0.58 0.35764 0.29003 0.0
O26 O 0.47687 0.26765 0.28663 0.0
O27 O 0.51327 0.19746 0.24187 0.0
C28 C 0.51643 0.32721 0.29755 0.0
H29 H 0.44319 0.33076 0.18478 0.0
H30 H 0.6701 0.21127 0.33986 0.0
H31 H 0.71783 0.31324 0.18634 0.0
H32 H 0.8095 0.43613 0.25901 0.0
Co33 Co 0.73936 0.28644 0.9354 0.0
C34 C 0.64014 0.17541 0.89892 0.0
C35 C 0.74085 0.18769 0.89748 0.0
C36 C 0.69775 0.1319 0.88197 0.0
N37 N 0.70487 0.21496 0.90806 0.0
N38 N 0.63488 0.12454 0.88286 0.0
H39 H 0.59745 0.18137 0.90513 0.0
H40 H 0.79392 0.20492 0.90198 0.0
C41 C 0.86568 0.38465 0.90334 0.0
O42 O 0.84852 0.43172 0.90493 0.0
N43 N 0.7763 0.35775 0.96386 0.0
C44 C 0.74188 0.36399 0.98549 0.0
C45 C 0.78652 0.41644 1.00226 0.0
C46 C 0.84243 0.40524 0.96875 0.0
N47 N 0.84993 0.44268 0.99174 0.0
C48 C 0.666 0.35605 0.92526 0.0
C49 C 0.67921 0.36292 0.86821 0.0
C50 C 0.6367 0.38353 0.88083 0.0
C51 C 0.63186 0.38134 0.90979 0.0
C52 C 0.71321 0.3383 0.88461 0.0
N53 N 0.70659 0.3353 0.91288 0.0
H54 H 0.65631 0.34979 0.94713 0.0
H55 H 0.74278 0.3192 0.87446 0.0
H56 H 0.68807 0.33132 0.98958 0.0
H57 H 0.88476 0.41117 0.95641 0.0
O58 O 0.65741 0.23344 0.95685 0.0
O59 O 0.75175 0.22711 0.96041 0.0
O60 O 0.83019 0.32812 0.91569 0.0
C61 C 0.68836 0.20401 0.96776 0.0
H62 H 0.71069 0.09748 0.87177 0.0
H63 H 0.77346 0.43188 0.02145 0.0
H64 H 0.68374 0.36286 0.84587 0.0
H65 H 0.60007 0.39713 0.92052 0.0
Co66 Co 0.75453 0.46566 0.60329 0.0
C67 C 0.88273 0.48759 0.57575 0.0
C68 C 0.85033 0.55592 0.56119 0.0
C69 C 0.91199 0.57359 0.54929 0.0
N70 N 0.83141 0.50178 0.57776 0.0
N71 N 0.93216 0.53079 0.5584 0.0
H72 H 0.88607 0.44955 0.58789 0.0
H73 H 0.82352 0.58365 0.55886 0.0
C74 C 0.65926 0.49701 0.57222 0.0
O75 O 0.61188 0.43296 0.57417 0.0
N76 N 0.67856 0.43398 0.62957 0.0
C77 C 0.65447 0.38257 0.64799 0.0
C78 C 0.60473 0.38405 0.66413 0.0
C79 C 0.64566 0.46799 0.63615 0.0
N80 N 0.59939 0.43798 0.6566 0.0
C81 C 0.6811 0.32392 0.58911 0.0
C82 C 0.67946 0.34093 0.53249 0.0
C83 C 0.65426 0.2755 0.54299 0.0
C84 C 0.65428 0.26731 0.57172 0.0
C85 C 0.70494 0.39616 0.55068 0.0
N86 N 0.70491 0.38743 0.57876 0.0
H87 H 0.68681 0.31655 0.61066 0.0
H88 H 0.7267 0.4463 0.54201 0.0
H89 H 0.6743 0.34882 0.65113 0.0
H90 H 0.65697 0.51548 0.62687 0.0
O91 O 0.79806 0.42925 0.62615 0.0
O92 O 0.81417 0.53307 0.63026 0.0
O93 O 0.71804 0.5188 0.58328 0.0
C94 C 0.82987 0.48795 0.63832 0.0
H95 H 0.94187 0.61705 0.53618 0.0
H96 H 0.57767 0.35052 0.68118 0.0
H97 H 0.68137 0.34958 0.51036 0.0
H98 H 0.63795 0.218 0.58062 0.0
Co99 Co 0.29857 0.56794 0.76614 0.0
C100 C 0.36888 0.5079 0.7989 0.0
C101 C 0.31764 0.54601 0.82434 0.0
C102 C 0.34603 0.51854 0.84131 0.0
N103 N 0.33102 0.53874 0.79768 0.0
N104 N 0.37815 0.49472 0.82532 0.0
H105 H 0.38845 0.49419 0.78112 0.0
H106 H 0.28886 0.56966 0.83103 0.0
C107 C 0.17011 0.47876 0.79595 0.0
O108 O 0.18459 0.43008 0.79289 0.0
N109 N 0.26469 0.59726 0.7355 0.0
C110 C 0.30087 0.65118 0.71907 0.0
C111 C 0.2561 0.65853 0.70196 0.0
C112 C 0.19872 0.57246 0.7282 0.0
N113 N 0.1917 0.60917 0.70782 0.0
C114 C 0.4041 0.68818 0.78972 0.0
C115 C 0.32543 0.74349 0.80665 0.0
C116 C 0.39385 0.77371 0.81514 0.0
C117 C 0.43369 0.74656 0.80581 0.0
C118 C 0.29733 0.68415 0.79059 0.0
N119 N 0.33635 0.6563 0.78324 0.0
H120 H 0.43483 0.66619 0.78372 0.0
H121 H 0.24401 0.65964 0.7848 0.0
H122 H 0.35571 0.68392 0.72001 0.0
H123 H 0.15655 0.52988 0.73836 0.0
O124 O 0.3769 0.58444 0.7446 0.0
O125 O 0.27988 0.48662 0.74541 0.0
O126 O 0.20988 0.5371 0.78592 0.0
C127 C 0.34212 0.52236 0.73593 0.0
H128 H 0.34382 0.51669 0.86373 0.0
H129 H 0.27017 0.69765 0.68656 0.0
H130 H 0.29352 0.7638 0.81331 0.0
H131 H 0.48702 0.76929 0.81164 0.0
Co132 Co 0.47655 0.74174 0.43221 0.0
C133 C 0.49941 0.86473 0.46524 0.0
C134 C 0.58593 0.85032 0.46341 0.0
C135 C 0.60606 0.91149 0.47586 0.0
N136 N 0.51871 0.8198 0.4571 0.0
N137 N 0.55177 0.92049 0.47698 0.0
H138 H 0.45067 0.86041 0.46089 0.0
H139 H 0.61928 0.83094 0.45787 0.0
C140 C 0.53062 0.69805 0.47904 0.0
O141 O 0.50643 0.72681 0.49561 0.0
N142 N 0.4405 0.66612 0.4067 0.0
C143 C 0.37719 0.62869 0.39607 0.0
C144 C 0.37598 0.57832 0.37956 0.0
C145 C 0.47673 0.63878 0.39649 0.0
N146 N 0.43886 0.585 0.37983 0.0
C147 C 0.35402 0.7193 0.45934 0.0
C148 C 0.31526 0.59229 0.4801 0.0
C149 C 0.27511 0.6216 0.48595 0.0
C150 C 0.29481 0.68565 0.4752 0.0
C151 C 0.37525 0.6286 0.46463 0.0
N152 N 0.39547 0.69259 0.45535 0.0
H153 H 0.36471 0.76556 0.44931 0.0
H154 H 0.40439 0.60434 0.45952 0.0
H155 H 0.33494 0.63703 0.40019 0.0
H156 H 0.52984 0.65756 0.40161 0.0
O157 O 0.44466 0.7887 0.40887 0.0
O158 O 0.54626 0.79712 0.40536 0.0
O159 O 0.52427 0.69984 0.45274 0.0
C160 C 0.50416 0.81694 0.39704 0.0
H161 H 0.65721 0.94768 0.48279 0.0
H162 H 0.3325 0.54043 0.36798 0.0
H163 H 0.30029 0.54183 0.4873 0.0
H164 H 0.26318 0.70843 0.47815 0.0
Co165 Co 0.29274 0.7218 0.09583 0.0
C166 C 0.15806 0.62651 0.12302 0.0
C167 C 0.24129 0.67656 0.15175 0.0
C168 C 0.18325 0.6348 0.16638 0.0
N169 N 0.22593 0.67161 0.12453 0.0
N170 N 0.13084 0.60314 0.14837 0.0
H171 H 0.129 0.61035 0.10399 0.0
H172 H 0.29159 0.70853 0.16046 0.0
C173 C 0.38081 0.86339 0.12211 0.0
O174 O 0.4253 0.88575 0.10191 0.0
N175 N 0.35974 0.77117 0.06709 0.0
C176 C 0.40523 0.75505 0.05682 0.0
C177 C 0.44753 0.80448 0.03859 0.0
C178 C 0.37202 0.82783 0.05339 0.0
N179 N 0.42767 0.85109 0.03685 0.0
C180 C 0.32654 0.62359 0.11211 0.0
C181 C 0.45648 0.70903 0.13257 0.0
C182 C 0.43121 0.63914 0.13203 0.0
C183 C 0.36535 0.59629 0.12187 0.0
C184 C 0.41608 0.73461 0.12211 0.0
N185 N 0.352 0.69185 0.11193 0.0
H186 H 0.27552 0.58959 0.10457 0.0
H187 H 0.43746 0.78851 0.12157 0.0
H188 H 0.40888 0.7113 0.0627 0.0
H189 H 0.3448 0.85475 0.05744 0.0
O190 O 0.2462 0.64915 0.06959 0.0
O191 O 0.22402 0.7325 0.07536 0.0
O192 O 0.32984 0.80291 0.12206 0.0
C193 C 0.21061 0.67684 0.06236 0.0
H194 H 0.17982 0.62936 0.18869 0.0
H195 H 0.49091 0.80688 0.02803 0.0
H196 H 0.50742 0.74344 0.14027 0.0
H197 H 0.34391 0.54187 0.12152 0.0
H198 H 0.48746 0.0181 0.23586 0.0
H199 H 0.49715 0.18017 0.1867 0.0
H200 H 0.4492 0.10424 0.14694 0.0
H201 H 0.41066 0.99319 0.12522 0.0
H202 H 0.39017 0.82765 0.17494 0.0
H203 H 0.4351 0.90265 0.21548 0.0
C204 C 0.47848 0.03632 0.21645 0.0
C205 C 0.49639 0.1046 0.21404 0.0
C206 C 0.44879 0.99169 0.19384 0.0
C207 C 0.48374 0.12775 0.18901 0.0
C208 C 0.45647 0.08443 0.16624 0.0
C209 C 0.41507 0.97355 0.1451 0.0
C210 C 0.39734 0.90541 0.14727 0.0
C211 C 0.4396 0.01656 0.1683 0.0
C212 C 0.40293 0.87998 0.173 0.0
C213 C 0.42912 0.92294 0.19607 0.0
H214 H 0.09578 0.37585 0.83202 0.0
H215 H 0.11525 0.56108 0.79996 0.0
H216 H 0.02477 0.54982 0.83086 0.0
H217 H 0.94007 0.48768 0.8672 0.0
H218 H 0.92148 0.30295 0.89951 0.0
H219 H 1.01165 0.31414 0.86855 0.0
C220 C 0.07987 0.41347 0.83163 0.0
C221 C 0.11221 0.46907 0.8136 0.0
C222 C 0.0282 0.40716 0.84972 0.0
C223 C 0.09133 0.51773 0.81362 0.0
C224 C 0.03961 0.51145 0.83134 0.0
C225 C 0.95606 0.45012 0.86764 0.0
C226 C 0.92387 0.39462 0.88575 0.0
C227 C 1.0079 0.45657 0.8496 0.0
C228 C 0.94512 0.34623 0.88582 0.0
C229 C 0.9967 0.35244 0.86804 0.0
H230 H 0.60158 0.72215 0.52686 0.0
H231 H 0.51874 0.58131 0.45857 0.0
H232 H 0.55077 0.50574 0.48163 0.0
H233 H 0.5972 0.47727 0.52249 0.0
H234 H 0.6887 0.62246 0.58884 0.0
H235 H 0.65849 0.69907 0.56539 0.0
C236 C 0.59119 0.67516 0.51697 0.0
C237 C 0.55749 0.65688 0.49123 0.0
C238 C 0.6108 0.63271 0.53012 0.0
C239 C 0.54493 0.59642 0.47836 0.0
C240 C 0.56281 0.55307 0.49161 0.0
C241 C 0.61049 0.52581 0.53168 0.0
C242 C 0.64408 0.54419 0.55742 0.0
C243 C 0.5948 0.57022 0.51768 0.0
C244 C 0.66256 0.60753 0.56903 0.0
C245 C 0.64525 0.65113 0.55567 0.0
H246 H 0.47975 0.64253 0.18394 0.0
H247 H 0.4711 0.56637 0.10128 0.0
H248 H 0.51313 0.49314 0.11824 0.0
H249 H 0.53221 0.43694 0.15744 0.0
H250 H 0.53522 0.50689 0.24059 0.0
H251 H 0.51718 0.59754 0.22284 0.0
C252 C 0.48927 0.61138 0.16966 0.0
C253 C 0.47212 0.60908 0.14151 0.0
C254 C 0.51155 0.56786 0.17974 0.0
C255 C 0.48384 0.56835 0.12306 0.0
C256 C 0.5075 0.52637 0.13275 0.0
C257 C 0.53065 0.47332 0.1715 0.0
C258 C 0.53414 0.4653 0.20014 0.0
C259 C 0.51848 0.52355 0.16117 0.0
C260 C 0.5328 0.5126 0.21841 0.0
C261 C 0.52178 0.56382 0.20826 0.0
H262 H 0.40854 0.89929 0.80927 0.0
H263 H 0.44894 0.77576 0.86484 0.0
H264 H 0.52103 0.87446 0.89357 0.0
H265 H 0.58609 0.99771 0.89874 0.0
H266 H 0.55052 0.12375 0.84322 0.0
H267 H 0.46228 0.02284 0.81867 0.0
C268 C 0.43179 0.8941 0.82808 0.0
C269 C 0.42441 0.83094 0.83489 0.0
C270 C 0.47452 0.95157 0.84422 0.0
C271 C 0.45474 0.82431 0.85919 0.0
C272 C 0.49602 0.88061 0.87554 0.0
C273 C 0.5575 1.00247 0.88167 0.0
C274 C 0.57419 0.06707 0.8725 0.0
C275 C 0.50834 0.94472 0.86764 0.0
C276 C 0.53763 0.0739 0.85049 0.0
C277 C 0.48783 0.01639 0.83643 0.0
H278 H 0.96901 0.46133 0.52463 0.0
H279 H 0.04555 0.62699 0.58257 0.0
H280 H 0.16282 0.66646 0.56726 0.0
H281 H 0.24034 0.66327 0.5324 0.0
H282 H 0.16479 0.49851 0.47378 0.0
H283 H 0.0505 0.44826 0.49432 0.0
C284 C 1.01193 0.5045 0.53444 0.0
C285 C 0.9996 0.54131 0.5547 0.0
C286 C 0.07892 0.52752 0.52503 0.0
C287 C 0.05478 0.59799 0.56711 0.0
C288 C 0.12144 0.62075 0.55817 0.0
C289 C 0.19902 0.61562 0.52457 0.0
C290 C 0.21033 0.5848 0.50154 0.0
C291 C 0.13374 0.58749 0.53638 0.0
C292 C 0.15693 0.5229 0.49157 0.0
C293 C 0.09163 0.49447 0.5032 0.0
H294 H 0.50466 0.34722 0.88978 0.0
H295 H 0.67285 0.46424 0.83445 0.0
H296 H 0.60443 0.50421 0.81014 0.0
H297 H 0.49951 0.51348 0.80751 0.0
H298 H 0.33621 0.40142 0.86536 0.0
H299 H 0.40009 0.35236 0.88605 0.0
C300 C 0.5267 0.38187 0.87251 0.0
C301 C 0.59426 0.40375 0.8643 0.0
C302 C 0.4879 0.40576 0.85921 0.0
C303 C 0.62103 0.44674 0.84125 0.0
C304 C 0.58205 0.46989 0.82746 0.0
C305 C 0.47788 0.47754 0.82436 0.0
C306 C 0.4136 0.46123 0.83511 0.0
C307 C 0.51583 0.45079 0.83662 0.0
C308 C 0.38596 0.4151 0.85707 0.0
C309 C 0.42238 0.38708 0.86884 0.0
H310 H 0.54207 0.14895 0.54519 0.0
H311 H 0.72751 0.27114 0.49922 0.0
H312 H 0.70853 0.17195 0.47269 0.0
H313 H 0.6458 0.04863 0.46601 0.0
H314 H 0.45981 0.92543 0.51101 0.0
H315 H 0.4716 0.02665 0.53435 0.0
C316 C 0.57771 0.1538 0.52909 0.0
C317 C 0.63631 0.21716 0.52428 0.0
C318 C 0.56656 0.09636 0.51394 0.0
C319 C 0.68179 0.22308 0.50318 0.0
C320 C 0.67127 0.16629 0.48815 0.0
C321 C 0.60755 0.04436 0.48069 0.0
C322 C 0.55254 0.98009 0.48717 0.0
C323 C 0.61486 0.10249 0.49386 0.0
C324 C 0.50246 0.97468 0.5058 0.0
C325 C 0.50953 0.03238 0.51922 0.0
H326 H 0.08595 0.52113 0.19267 0.0
H327 H 1.01672 0.57903 0.11995 0.0
H328 H 0.89798 0.50785 0.13472 0.0
H329 H 0.81437 0.43694 0.17076 0.0
H330 H 0.88668 0.38526 0.2443 0.0
H331 H 1.00362 0.44663 0.22693 0.0
C332 C 0.04504 0.51852 0.18005 0.0
C333 C 0.06052 0.55633 0.15545 0.0
C334 C 0.97728 0.47876 0.18895 0.0
C335 C 1.00647 0.55051 0.13896 0.0
C336 C 0.9385 0.51009 0.1475 0.0
C337 C 0.85574 0.43834 0.18267 0.0
C338 C 0.84216 0.407 0.20883 0.0
C339 C 0.92334 0.47503 0.17277 0.0
C340 C 0.89613 0.40954 0.22423 0.0
C341 C 0.96292 0.44459 0.21432 0.0
H342 H 0.42513 0.86515 0.37619 0.0
H343 H 0.63207 0.90256 0.37689 0.0
H344 H 0.67063 1.00946 0.35253 0.0
H345 H 0.64671 0.09583 0.33384 0.0
H346 H 0.44011 0.05862 0.33319 0.0
H347 H 0.40007 0.94788 0.35459 0.0
C348 C 0.47856 0.89618 0.37067 0.0
C349 C 0.52569 0.87586 0.37845 0.0
C350 C 0.50047 0.95796 0.35693 0.0
C351 C 0.59466 0.91673 0.37108 0.0
C352 C 0.61682 0.97816 0.35732 0.0
C353 C 0.59296 0.06354 0.33848 0.0
C354 C 0.54653 0.08584 0.33229 0.0
C355 C 0.57043 0.99993 0.35068 0.0
C356 C 0.47679 0.04267 0.33774 0.0
C357 C 0.45398 0.97946 0.35005 0.0
H358 H 0.97843 0.4644 0.98494 0.0
H359 H 0.86329 0.54311 0.0261 0.0
H360 H 0.96655 0.62814 0.0496 0.0
H361 H 0.08881 0.67528 0.0612 0.0
H362 H 0.20208 0.59408 0.0205 0.0
H363 H 0.10128 0.51682 0.99357 0.0
C364 C 0.97583 0.50073 0.99863 0.0
C365 C 0.91247 0.49634 1.00387 0.0
C366 C 0.03558 0.54969 1.01216 0.0
C367 C 0.91075 0.54396 0.02203 0.0
C368 C 0.97005 0.59313 0.03538 0.0
C369 C 0.09169 0.64184 0.04592 0.0
C370 C 0.15287 0.64058 0.04278 0.0
C371 C 0.03267 0.59586 0.03098 0.0
C372 C 0.15554 0.59603 0.02329 0.0
C373 C 0.09779 0.55152 1.00797 0.0
H374 H 0.46137 0.59204 0.70856 0.0
H375 H 0.30098 0.38835 0.72576 0.0
H376 H 0.36678 0.34354 0.70253 0.0
H377 H 0.47328 0.36332 0.67903 0.0
H378 H 0.63208 0.56848 0.66274 0.0
H379 H 0.56366 0.61152 0.68391 0.0
C380 C 0.44033 0.53772 0.70706 0.0
C381 C 0.37632 0.49361 0.71893 0.0
C382 C 0.47859 0.51262 0.69398 0.0
C383 C 0.34987 0.42342 0.71663 0.0
C384 C 0.38778 0.39785 0.70354 0.0
C385 C 0.49281 0.41739 0.68023 0.0
C386 C 0.55789 0.46253 0.66925 0.0
C387 C 0.45278 0.44207 0.69248 0.0
C388 C 0.58208 0.53248 0.67065 0.0
C389 C 0.54303 0.55724 0.68289 0.0
H390 H 0.06874 0.49376 0.70701 0.0
H391 H 0.17137 0.70281 0.68129 0.0
H392 H 0.06629 0.68571 0.65979 0.0
H393 H 0.9459 0.60968 0.64615 0.0
H394 H 0.845 0.40052 0.67127 0.0
H395 H 0.94775 0.42001 0.69588 0.0
C396 C 0.0682 0.53601 0.69711 0.0
C397 C 0.12865 0.59942 0.69575 0.0
C398 C 1.00733 0.52596 0.68483 0.0
C399 C 0.12643 0.65305 0.68233 0.0
C400 C 0.06597 0.64351 0.67018 0.0
C401 C 0.94602 0.56892 0.65761 0.0
C402 C 0.88775 0.5039 0.65713 0.0
C403 C 1.00618 0.58002 0.67107 0.0
C404 C 0.88912 0.4511 0.67148 0.0
C405 C 0.94802 0.4621 0.68541 0.0
H406 H 0.58877 0.45468 0.31771 0.0
H407 H 0.38524 0.2813 0.31611 0.0
H408 H 0.34257 0.34584 0.34159 0.0
H409 H 0.36339 0.45341 0.36342 0.0
H410 H 0.56769 0.62612 0.36292 0.0
H411 H 0.60948 0.5599 0.33928 0.0
C412 C 0.53507 0.43053 0.32311 0.0
C413 C 0.49036 0.36303 0.31508 0.0
C414 C 0.51091 0.46813 0.33732 0.0
C415 C 0.4209 0.33303 0.32214 0.0
C416 C 0.39645 0.37008 0.33661 0.0
C417 C 0.41691 0.47662 0.35799 0.0
C418 C 0.46224 0.54486 0.36522 0.0
C419 C 0.44092 0.43803 0.34408 0.0
C420 C 0.53167 0.57368 0.35818 0.0
C421 C 0.5557 0.53585 0.34447 0.0
H422 H 0.55205 0.13509 0.97891 0.0
H423 H 0.73852 0.13134 0.99339 0.0
H424 H 0.67378 0.02157 0.01618 0.0
H425 H 0.56423 0.9251 0.03046 0.0
H426 H 0.37721 0.92707 1.01561 0.0
H427 H 0.44224 0.03947 0.99457 0.0
C428 C 0.5787 0.1107 0.98736 0.0
C429 C 0.65021 0.1416 0.98448 0.0
C430 C 0.54096 0.04703 1.0001 0.0
C431 C 0.68369 0.10894 0.99539 0.0
C432 C 0.64662 0.04596 1.0083 0.0
C433 C 0.53747 0.94963 0.02234 0.0
C434 C 0.46568 0.91713 0.02424 0.0
C435 C 0.5752 0.01412 1.01039 0.0
C436 C 0.43226 0.95083 1.01436 0.0
C437 C 0.46948 0.01504 1.00231 0.0
loop_
_geom_bond_atom_site_label_1
_geom_bond_atom_site_label_2
_geom_bond_distance
_geom_bond_site_symmetry_2
_ccdc_geom_bond_type
Co0 N4 2.148 . S
Co0 N10 2.128 . S
Co0 N20 2.194 . S
Co0 O25 2.351 . S
Co0 O26 2.155 . S
Co0 O27 2.096 . S
C1 N4 1.301 . S
C1 N5 1.328 . S
C1 H6 0.930 . S
C2 C3 1.333 . S
C2 N4 1.317 . S
C2 H7 0.930 . S
C3 C2 1.333 . S
C3 N5 1.350 . S
C3 H29 0.931 . S
N4 Co0 2.148 . S
N4 C1 1.301 . S
N4 C2 1.317 . S
N5 C1 1.328 . S
N5 C3 1.350 . S
H6 C1 0.930 . S
H7 C2 0.930 . S
C8 O9 1.224 . S
C8 O27 1.247 . S
O9 C8 1.224 . S
N10 Co0 2.128 . S
N10 C11 1.355 . S
N10 C13 1.311 . S
C11 N10 1.355 . S
C11 C12 1.363 . S
C11 H23 0.929 . S
C12 C11 1.363 . S
C12 N14 1.375 . S
C12 H30 0.931 . S
C13 N10 1.311 . S
C13 N14 1.347 . S
C13 H24 0.929 . S
N14 C12 1.375 . S
N14 C13 1.347 . S
C15 C18 1.365 . S
C15 N20 1.328 . S
C15 H21 0.929 . S
C16 C17 1.362 . S
C16 C19 1.378 . S
C16 H31 0.929 . S
C17 C16 1.362 . S
C17 C18 1.366 . S
C18 C15 1.365 . S
C18 C17 1.366 . S
C18 H32 0.930 . S
C19 C16 1.378 . S
C19 N20 1.315 . S
C19 H22 0.930 . S
N20 Co0 2.194 . S
N20 C15 1.328 . S
N20 C19 1.315 . S
H21 C15 0.929 . S
H22 C19 0.930 . S
H23 C11 0.929 . S
H24 C13 0.929 . S
O25 Co0 2.351 . S
O25 C28 1.244 . S
O26 Co0 2.155 . S
O26 C28 1.240 . S
O27 Co0 2.096 . S
O27 C8 1.247 . S
C28 O25 1.244 . S
C28 O26 1.240 . S
H29 C3 0.931 . S
H30 C12 0.931 . S
H31 C16 0.929 . S
H32 C18 0.930 . S
Co33 N37 2.148 . S
Co33 N43 2.128 . S
Co33 N53 2.194 . S
Co33 O58 2.351 . S
Co33 O59 2.155 . S
Co33 O60 2.096 . S
C34 N37 1.301 . S
C34 N38 1.328 . S
C34 H39 0.930 . S
C35 C36 1.333 . S
C35 N37 1.317 . S
C35 H40 0.930 . S
C36 C35 1.333 . S
C36 N38 1.350 . S
C36 H62 0.931 . S
N37 Co33 2.148 . S
N37 C34 1.301 . S
N37 C35 1.317 . S
N38 C34 1.328 . S
N38 C36 1.350 . S
H39 C34 0.930 . S
H40 C35 0.930 . S
C41 O42 1.224 . S
C41 O60 1.247 . S
O42 C41 1.224 . S
N43 Co33 2.128 . S
N43 C44 1.355 . S
N43 C46 1.311 . S
C44 N43 1.355 . S
C44 C45 1.363 . S
C44 H56 0.929 . S
C45 C44 1.363 . S
C45 N47 1.375 . S
C45 H63 0.931 . S
C46 N43 1.311 . S
C46 N47 1.347 . S
C46 H57 0.929 . S
N47 C45 1.375 . S
N47 C46 1.347 . S
C48 C51 1.365 . S
C48 N53 1.328 . S
C48 H54 0.929 . S
C49 C50 1.362 . S
C49 C52 1.378 . S
C49 H64 0.929 . S
C50 C49 1.362 . S
C50 C51 1.366 . S
C51 C48 1.365 . S
C51 C50 1.366 . S
C51 H65 0.930 . S
C52 C49 1.378 . S
C52 N53 1.315 . S
C52 H55 0.930 . S
N53 Co33 2.194 . S
N53 C48 1.328 . S
N53 C52 1.315 . S
H54 C48 0.929 . S
H55 C52 0.930 . S
H56 C44 0.929 . S
H57 C46 0.929 . S
O58 Co33 2.351 . S
O58 C61 1.244 . S
O59 Co33 2.155 . S
O59 C61 1.240 . S
O60 Co33 2.096 . S
O60 C41 1.247 . S
C61 O58 1.244 . S
C61 O59 1.240 . S
H62 C36 0.931 . S
H63 C45 0.931 . S
H64 C49 0.929 . S
H65 C51 0.930 . S
Co66 N70 2.148 . S
Co66 N76 2.128 . S
Co66 N86 2.194 . S
Co66 O91 2.351 . S
Co66 O92 2.155 . S
Co66 O93 2.096 . S
C67 N70 1.301 . S
C67 N71 1.328 . S
C67 H72 0.930 . S
C68 C69 1.333 . S
C68 N70 1.317 . S
C68 H73 0.930 . S
C69 C68 1.333 . S
C69 N71 1.350 . S
C69 H95 0.931 . S
N70 Co66 2.148 . S
N70 C67 1.301 . S
N70 C68 1.317 . S
N71 C67 1.328 . S
N71 C69 1.350 . S
H72 C67 0.930 . S
H73 C68 0.930 . S
C74 O75 1.224 . S
C74 O93 1.247 . S
O75 C74 1.224 . S
N76 Co66 2.128 . S
N76 C77 1.355 . S
N76 C79 1.311 . S
C77 N76 1.355 . S
C77 C78 1.363 . S
C77 H89 0.929 . S
C78 C77 1.363 . S
C78 N80 1.375 . S
C78 H96 0.931 . S
C79 N76 1.311 . S
C79 N80 1.347 . S
C79 H90 0.929 . S
N80 C78 1.375 . S
N80 C79 1.347 . S
C81 C84 1.365 . S
C81 N86 1.328 . S
C81 H87 0.929 . S
C82 C83 1.362 . S
C82 C85 1.378 . S
C82 H97 0.929 . S
C83 C82 1.362 . S
C83 C84 1.366 . S
C84 C81 1.365 . S
C84 C83 1.366 . S
C84 H98 0.930 . S
C85 C82 1.378 . S
C85 N86 1.315 . S
C85 H88 0.930 . S
N86 Co66 2.194 . S
N86 C81 1.328 . S
N86 C85 1.315 . S
H87 C81 0.929 . S
H88 C85 0.930 . S
H89 C77 0.929 . S
H90 C79 0.929 . S
O91 Co66 2.351 . S
O91 C94 1.244 . S
O92 Co66 2.155 . S
O92 C94 1.240 . S
O93 Co66 2.096 . S
O93 C74 1.247 . S
C94 O91 1.244 . S
C94 O92 1.240 . S
H95 C69 0.931 . S
H96 C78 0.931 . S
H97 C82 0.929 . S
H98 C84 0.930 . S
Co99 N103 2.148 . S
Co99 N109 2.128 . S
Co99 N119 2.194 . S
Co99 O124 2.351 . S
Co99 O125 2.155 . S
Co99 O126 2.096 . S
C100 N103 1.301 . S
C100 N104 1.328 . S
C100 H105 0.930 . S
C101 C102 1.333 . S
C101 N103 1.317 . S
C101 H106 0.930 . S
C102 C101 1.333 . S
C102 N104 1.350 . S
C102 H128 0.931 . S
N103 Co99 2.148 . S
N103 C100 1.301 . S
N103 C101 1.317 . S
N104 C100 1.328 . S
N104 C102 1.350 . S
H105 C100 0.930 . S
H106 C101 0.930 . S
C107 O108 1.224 . S
C107 O126 1.247 . S
O108 C107 1.224 . S
N109 Co99 2.128 . S
N109 C110 1.355 . S
N109 C112 1.311 . S
C110 N109 1.355 . S
C110 C111 1.363 . S
C110 H122 0.929 . S
C111 C110 1.363 . S
C111 N113 1.375 . S
C111 H129 0.931 . S
C112 N109 1.311 . S
C112 N113 1.347 . S
C112 H123 0.929 . S
N113 C111 1.375 . S
N113 C112 1.347 . S
C114 C117 1.365 . S
C114 N119 1.328 . S
C114 H120 0.929 . S
C115 C116 1.362 . S
C115 C118 1.378 . S
C115 H130 0.929 . S
C116 C115 1.362 . S
C116 C117 1.366 . S
C117 C114 1.365 . S
C117 C116 1.366 . S
C117 H131 0.930 . S
C118 C115 1.378 . S
C118 N119 1.315 . S
C118 H121 0.930 . S
N119 Co99 2.194 . S
N119 C114 1.328 . S
N119 C118 1.315 . S
H120 C114 0.929 . S
H121 C118 0.930 . S
H122 C110 0.929 . S
H123 C112 0.929 . S
O124 Co99 2.351 . S
O124 C127 1.244 . S
O125 Co99 2.155 . S
O125 C127 1.240 . S
O126 Co99 2.096 . S
O126 C107 1.247 . S
C127 O124 1.244 . S
C127 O125 1.240 . S
H128 C102 0.931 . S
H129 C111 0.931 . S
H130 C115 0.929 . S
H131 C117 0.930 . S
Co132 N136 2.148 . S
Co132 N142 2.128 . S
Co132 N152 2.194 . S
Co132 O157 2.351 . S
Co132 O158 2.155 . S
Co132 O159 2.096 . S
C133 N136 1.301 . S
C133 N137 1.328 . S
C133 H138 0.930 . S
C134 C135 1.333 . S
C134 N136 1.317 . S
C134 H139 0.930 . S
C135 C134 1.333 . S
C135 N137 1.350 . S
C135 H161 0.931 . S
N136 Co132 2.148 . S
N136 C133 1.301 . S
N136 C134 1.317 . S
N137 C133 1.328 . S
N137 C135 1.350 . S
H138 C133 0.930 . S
H139 C134 0.930 . S
C140 O141 1.224 . S
C140 O159 1.247 . S
O141 C140 1.224 . S
N142 Co132 2.128 . S
N142 C143 1.355 . S
N142 C145 1.311 . S
C143 N142 1.355 . S
C143 C144 1.363 . S
C143 H155 0.929 . S
C144 C143 1.363 . S
C144 N146 1.375 . S
C144 H162 0.931 . S
C145 N142 1.311 . S
C145 N146 1.347 . S
C145 H156 0.929 . S
N146 C144 1.375 . S
N146 C145 1.347 . S
C147 C150 1.365 . S
C147 N152 1.328 . S
C147 H153 0.929 . S
C148 C149 1.362 . S
C148 C151 1.378 . S
C148 H163 0.929 . S
C149 C148 1.362 . S
C149 C150 1.366 . S
C150 C147 1.365 . S
C150 C149 1.366 . S
C150 H164 0.930 . S
C151 C148 1.378 . S
C151 N152 1.315 . S
C151 H154 0.930 . S
N152 Co132 2.194 . S
N152 C147 1.328 . S
N152 C151 1.315 . S
H153 C147 0.929 . S
H154 C151 0.930 . S
H155 C143 0.929 . S
H156 C145 0.929 . S
O157 Co132 2.351 . S
O157 C160 1.244 . S
O158 Co132 2.155 . S
O158 C160 1.240 . S
O159 Co132 2.096 . S
O159 C140 1.247 . S
C160 O157 1.244 . S
C160 O158 1.240 . S
H161 C135 0.931 . S
H162 C144 0.931 . S
H163 C148 0.929 . S
H164 C150 0.930 . S
Co165 N169 2.148 . S
Co165 N175 2.128 . S
Co165 N185 2.194 . S
Co165 O190 2.351 . S
Co165 O191 2.155 . S
Co165 O192 2.096 . S
C166 N169 1.301 . S
C166 N170 1.328 . S
C166 H171 0.930 . S
C167 C168 1.333 . S
C167 N169 1.317 . S
C167 H172 0.930 . S
C168 C167 1.333 . S
C168 N170 1.350 . S
C168 H194 0.931 . S
N169 Co165 2.148 . S
N169 C166 1.301 . S
N169 C167 1.317 . S
N170 C166 1.328 . S
N170 C168 1.350 . S
H171 C166 0.930 . S
H172 C167 0.930 . S
C173 O174 1.224 . S
C173 O192 1.247 . S
O174 C173 1.224 . S
N175 Co165 2.128 . S
N175 C176 1.355 . S
N175 C178 1.311 . S
C176 N175 1.355 . S
C176 C177 1.363 . S
C176 H188 0.929 . S
C177 C176 1.363 . S
C177 N179 1.375 . S
C177 H195 0.931 . S
C178 N175 1.311 . S
C178 N179 1.347 . S
C178 H189 0.929 . S
N179 C177 1.375 . S
N179 C178 1.347 . S
C180 C183 1.365 . S
C180 N185 1.328 . S
C180 H186 0.929 . S
C181 C182 1.362 . S
C181 C184 1.378 . S
C181 H196 0.929 . S
C182 C181 1.362 . S
C182 C183 1.366 . S
C183 C180 1.365 . S
C183 C182 1.366 . S
C183 H197 0.930 . S
C184 C181 1.378 . S
C184 N185 1.315 . S
C184 H187 0.930 . S
N185 Co165 2.194 . S
N185 C180 1.328 . S
N185 C184 1.315 . S
H186 C180 0.929 . S
H187 C184 0.930 . S
H188 C176 0.929 . S
H189 C178 0.929 . S
O190 Co165 2.351 . S
O190 C193 1.244 . S
O191 Co165 2.155 . S
O191 C193 1.240 . S
O192 Co165 2.096 . S
O192 C173 1.247 . S
C193 O190 1.244 . S
C193 O191 1.240 . S
H194 C168 0.931 . S
H195 C177 0.931 . S
H196 C181 0.929 . S
H197 C183 0.930 . S
H198 C204 0.930 . S
H199 C207 0.930 . S
H200 C208 0.930 . S
H201 C209 0.930 . S
H202 C212 0.930 . S
H203 C213 0.930 . S
C204 H198 0.930 . S
C204 C205 1.355 . S
C204 C206 1.415 1_545 S
C205 C204 1.355 . S
C205 C207 1.419 . S
C206 C204 1.415 1_565 S
C206 C211 1.425 1_565 S
C206 C213 1.409 . S
C207 H199 0.930 . S
C207 C205 1.419 . S
C207 C208 1.362 . S
C208 H200 0.930 . S
C208 C207 1.362 . S
C208 C211 1.409 . S
C209 H201 0.930 . S
C209 C210 1.355 . S
C209 C211 1.415 1_565 S
C210 C209 1.355 . S
C210 C212 1.419 . S
C211 C206 1.425 1_545 S
C211 C208 1.409 . S
C211 C209 1.415 1_545 S
C212 H202 0.930 . S
C212 C210 1.419 . S
C212 C213 1.362 . S
C213 H203 0.930 . S
C213 C206 1.409 . S
C213 C212 1.362 . S
H214 C220 0.930 . S
H215 C223 0.930 . S
H216 C224 0.930 . S
H217 C225 0.930 . S
H218 C228 0.930 . S
H219 C229 0.930 . S
C220 H214 0.930 . S
C220 C221 1.355 . S
C220 C222 1.415 1_455 S
C221 C220 1.355 . S
C221 C223 1.419 . S
C222 C220 1.415 1_655 S
C222 C227 1.425 1_655 S
C222 C229 1.409 . S
C223 H215 0.930 . S
C223 C221 1.419 . S
C223 C224 1.362 . S
C224 H216 0.930 . S
C224 C223 1.362 . S
C224 C227 1.409 . S
C225 H217 0.930 . S
C225 C226 1.355 . S
C225 C227 1.415 1_655 S
C226 C225 1.355 . S
C226 C228 1.419 . S
C227 C222 1.425 1_455 S
C227 C224 1.409 . S
C227 C225 1.415 1_455 S
C228 H218 0.930 . S
C228 C226 1.419 . S
C228 C229 1.362 . S
C229 H219 0.930 . S
C229 C222 1.409 . S
C229 C228 1.362 . S
H230 C236 0.930 . S
H231 C239 0.930 . S
H232 C240 0.930 . S
H233 C241 0.930 . S
H234 C244 0.930 . S
H235 C245 0.930 . S
C236 H230 0.930 . S
C236 C237 1.355 . S
C236 C238 1.415 . S
C237 C236 1.355 . S
C237 C239 1.419 . S
C238 C236 1.415 . S
C238 C243 1.425 . S
C238 C245 1.409 . S
C239 H231 0.930 . S
C239 C237 1.419 . S
C239 C240 1.362 . S
C240 H232 0.930 . S
C240 C239 1.362 . S
C240 C243 1.409 . S
C241 H233 0.930 . S
C241 C242 1.355 . S
C241 C243 1.415 . S
C242 C241 1.355 . S
C242 C244 1.419 . S
C243 C238 1.425 . S
C243 C240 1.409 . S
C243 C241 1.415 . S
C244 H234 0.930 . S
C244 C242 1.419 . S
C244 C245 1.362 . S
C245 H235 0.930 . S
C245 C238 1.409 . S
C245 C244 1.362 . S
H246 C252 0.930 . S
H247 C255 0.930 . S
H248 C256 0.930 . S
H249 C257 0.930 . S
H250 C260 0.930 . S
H251 C261 0.930 . S
C252 H246 0.930 . S
C252 C253 1.355 . S
C252 C254 1.415 . S
C253 C252 1.355 . S
C253 C255 1.419 . S
C254 C252 1.415 . S
C254 C259 1.425 . S
C254 C261 1.409 . S
C255 H247 0.930 . S
C255 C253 1.419 . S
C255 C256 1.362 . S
C256 H248 0.930 . S
C256 C255 1.362 . S
C256 C259 1.409 . S
C257 H249 0.930 . S
C257 C258 1.355 . S
C257 C259 1.415 . S
C258 C257 1.355 . S
C258 C260 1.419 . S
C259 C254 1.425 . S
C259 C256 1.409 . S
C259 C257 1.415 . S
C260 H250 0.930 . S
C260 C258 1.419 . S
C260 C261 1.362 . S
C261 H251 0.930 . S
C261 C254 1.409 . S
C261 C260 1.362 . S
H262 C268 0.930 . S
H263 C271 0.930 . S
H264 C272 0.930 . S
H265 C273 0.930 . S
H266 C276 0.930 . S
H267 C277 0.930 . S
C268 H262 0.930 . S
C268 C269 1.355 . S
C268 C270 1.415 . S
C269 C268 1.355 . S
C269 C271 1.419 . S
C270 C268 1.415 . S
C270 C275 1.425 . S
C270 C277 1.409 . S
C271 H263 0.930 . S
C271 C269 1.419 . S
C271 C272 1.362 . S
C272 H264 0.930 . S
C272 C271 1.362 . S
C272 C275 1.409 . S
C273 H265 0.930 . S
C273 C274 1.355 1_565 S
C273 C275 1.415 . S
C274 C273 1.355 1_545 S
C274 C276 1.419 . S
C275 C270 1.425 . S
C275 C272 1.409 . S
C275 C273 1.415 . S
C276 H266 0.930 . S
C276 C274 1.419 . S
C276 C277 1.362 1_545 S
C277 H267 0.930 . S
C277 C270 1.409 . S
C277 C276 1.362 1_565 S
H278 C284 0.930 . S
H279 C287 0.930 1_655 S
H280 C288 0.930 . S
H281 C289 0.930 . S
H282 C292 0.930 . S
H283 C293 0.930 . S
C284 H278 0.930 . S
C284 C285 1.355 1_455 S
C284 C286 1.415 . S
C285 C284 1.355 1_655 S
C285 C287 1.419 1_655 S
C286 C284 1.415 . S
C286 C291 1.425 . S
C286 C293 1.409 . S
C287 H279 0.930 1_455 S
C287 C285 1.419 1_455 S
C287 C288 1.362 . S
C288 H280 0.930 . S
C288 C287 1.362 . S
C288 C291 1.409 . S
C289 H281 0.930 . S
C289 C290 1.355 . S
C289 C291 1.415 . S
C290 C289 1.355 . S
C290 C292 1.419 . S
C291 C286 1.425 . S
C291 C288 1.409 . S
C291 C289 1.415 . S
C292 H282 0.930 . S
C292 C290 1.419 . S
C292 C293 1.362 . S
C293 H283 0.930 . S
C293 C286 1.409 . S
C293 C292 1.362 . S
H294 C300 0.930 . S
H295 C303 0.930 . S
H296 C304 0.930 . S
H297 C305 0.930 . S
H298 C308 0.930 . S
H299 C309 0.930 . S
C300 H294 0.930 . S
C300 C301 1.355 . S
C300 C302 1.415 . S
C301 C300 1.355 . S
C301 C303 1.419 . S
C302 C300 1.415 . S
C302 C307 1.425 . S
C302 C309 1.409 . S
C303 H295 0.930 . S
C303 C301 1.419 . S
C303 C304 1.362 . S
C304 H296 0.930 . S
C304 C303 1.362 . S
C304 C307 1.409 . S
C305 H297 0.930 . S
C305 C306 1.355 . S
C305 C307 1.415 . S
C306 C305 1.355 . S
C306 C308 1.419 . S
C307 C302 1.425 . S
C307 C304 1.409 . S
C307 C305 1.415 . S
C308 H298 0.930 . S
C308 C306 1.419 . S
C308 C309 1.362 . S
C309 H299 0.930 . S
C309 C302 1.409 . S
C309 C308 1.362 . S
H310 C316 0.930 . S
H311 C319 0.930 . S
H312 C320 0.930 . S
H313 C321 0.930 . S
H314 C324 0.930 . S
H315 C325 0.930 . S
C316 H310 0.930 . S
C316 C317 1.355 . S
C316 C318 1.415 . S
C317 C316 1.355 . S
C317 C319 1.419 . S
C318 C316 1.415 . S
C318 C323 1.425 . S
C318 C325 1.409 . S
C319 H311 0.930 . S
C319 C317 1.419 . S
C319 C320 1.362 . S
C320 H312 0.930 . S
C320 C319 1.362 . S
C320 C323 1.409 . S
C321 H313 0.930 . S
C321 C322 1.355 1_545 S
C321 C323 1.415 . S
C322 C321 1.355 1_565 S
C322 C324 1.419 . S
C323 C318 1.425 . S
C323 C320 1.409 . S
C323 C321 1.415 . S
C324 H314 0.930 . S
C324 C322 1.419 . S
C324 C325 1.362 1_565 S
C325 H315 0.930 . S
C325 C318 1.409 . S
C325 C324 1.362 1_545 S
H326 C332 0.930 1_455 S
H327 C335 0.930 . S
H328 C336 0.930 . S
H329 C337 0.930 . S
H330 C340 0.930 . S
H331 C341 0.930 . S
C332 H326 0.930 1_655 S
C332 C333 1.355 1_655 S
C332 C334 1.415 . S
C333 C332 1.355 1_455 S
C333 C335 1.419 1_455 S
C334 C332 1.415 . S
C334 C339 1.425 . S
C334 C341 1.409 . S
C335 H327 0.930 . S
C335 C333 1.419 1_655 S
C335 C336 1.362 . S
C336 H328 0.930 . S
C336 C335 1.362 . S
C336 C339 1.409 . S
C337 H329 0.930 . S
C337 C338 1.355 . S
C337 C339 1.415 . S
C338 C337 1.355 . S
C338 C340 1.419 . S
C339 C334 1.425 . S
C339 C336 1.409 . S
C339 C337 1.415 . S
C340 H330 0.930 . S
C340 C338 1.419 . S
C340 C341 1.362 . S
C341 H331 0.930 . S
C341 C334 1.409 . S
C341 C340 1.362 . S
H342 C348 0.930 . S
H343 C351 0.930 . S
H344 C352 0.930 . S
H345 C353 0.930 . S
H346 C356 0.930 . S
H347 C357 0.930 . S
C348 H342 0.930 . S
C348 C349 1.355 . S
C348 C350 1.415 . S
C349 C348 1.355 . S
C349 C351 1.419 . S
C350 C348 1.415 . S
C350 C355 1.425 1_565 S
C350 C357 1.409 . S
C351 H343 0.930 . S
C351 C349 1.419 . S
C351 C352 1.362 1_565 S
C352 H344 0.930 . S
C352 C351 1.362 1_545 S
C352 C355 1.409 . S
C353 H345 0.930 . S
C353 C354 1.355 . S
C353 C355 1.415 . S
C354 C353 1.355 . S
C354 C356 1.419 . S
C355 C350 1.425 1_545 S
C355 C352 1.409 . S
C355 C353 1.415 . S
C356 H346 0.930 . S
C356 C354 1.419 . S
C356 C357 1.362 1_545 S
C357 H347 0.930 . S
C357 C350 1.409 . S
C357 C356 1.362 1_565 S
H358 C364 0.930 . S
H359 C367 0.930 . S
H360 C368 0.943 . S
H361 C369 0.930 . S
H362 C372 0.930 . S
H363 C373 0.930 1_556 S
C364 H358 0.930 . S
C364 C365 1.355 . S
C364 C366 1.414 . S
C365 C364 1.355 . S
C365 C367 1.419 . S
C366 C364 1.414 . S
C366 C371 1.425 1_556 S
C366 C373 1.410 1_656 S
C367 H359 0.930 . S
C367 C365 1.419 . S
C367 C368 1.343 1_556 S
C368 H360 0.943 . S
C368 C367 1.343 1_554 S
C368 C371 1.417 . S
C369 H361 0.930 . S
C369 C370 1.355 . S
C369 C371 1.415 1_455 S
C370 C369 1.355 . S
C370 C372 1.419 . S
C371 C366 1.425 1_554 S
C371 C368 1.417 . S
C371 C369 1.415 1_655 S
C372 H362 0.930 . S
C372 C370 1.419 . S
C372 C373 1.362 . S
C373 H363 0.930 1_554 S
C373 C366 1.410 1_454 S
C373 C372 1.362 . S
H374 C380 0.930 . S
H375 C383 0.930 . S
H376 C384 0.930 . S
H377 C385 0.930 . S
H378 C388 0.930 . S
H379 C389 0.930 . S
C380 H374 0.930 . S
C380 C381 1.355 . S
C380 C382 1.415 . S
C381 C380 1.355 . S
C381 C383 1.419 . S
C382 C380 1.415 . S
C382 C387 1.425 . S
C382 C389 1.409 . S
C383 H375 0.930 . S
C383 C381 1.419 . S
C383 C384 1.362 . S
C384 H376 0.930 . S
C384 C383 1.362 . S
C384 C387 1.409 . S
C385 H377 0.930 . S
C385 C386 1.355 . S
C385 C387 1.415 . S
C386 C385 1.355 . S
C386 C388 1.419 . S
C387 C382 1.425 . S
C387 C384 1.409 . S
C387 C385 1.415 . S
C388 H378 0.930 . S
C388 C386 1.419 . S
C388 C389 1.362 . S
C389 H379 0.930 . S
C389 C382 1.409 . S
C389 C388 1.362 . S
H390 C396 0.930 . S
H391 C399 0.930 . S
H392 C400 0.930 . S
H393 C401 0.930 . S
H394 C404 0.930 . S
H395 C405 0.930 . S
C396 H390 0.930 . S
C396 C397 1.355 . S
C396 C398 1.415 1_455 S
C397 C396 1.355 . S
C397 C399 1.419 . S
C398 C396 1.415 1_655 S
C398 C403 1.425 1_655 S
C398 C405 1.409 . S
C399 H391 0.930 . S
C399 C397 1.419 . S
C399 C400 1.362 . S
C400 H392 0.930 . S
C400 C399 1.362 . S
C400 C403 1.409 . S
C401 H393 0.930 . S
C401 C402 1.355 . S
C401 C403 1.415 1_655 S
C402 C401 1.355 . S
C402 C404 1.419 . S
C403 C398 1.425 1_455 S
C403 C400 1.409 . S
C403 C401 1.415 1_455 S
C404 H394 0.930 . S
C404 C402 1.419 . S
C404 C405 1.362 . S
C405 H395 0.930 . S
C405 C398 1.409 . S
C405 C404 1.362 . S
H406 C412 0.930 . S
H407 C415 0.930 . S
H408 C416 0.930 . S
H409 C417 0.930 . S
H410 C420 0.930 . S
H411 C421 0.930 . S
C412 H406 0.930 . S
C412 C413 1.355 . S
C412 C414 1.415 . S
C413 C412 1.355 . S
C413 C415 1.419 . S
C414 C412 1.415 . S
C414 C419 1.425 . S
C414 C421 1.409 . S
C415 H407 0.930 . S
C415 C413 1.419 . S
C415 C416 1.362 . S
C416 H408 0.930 . S
C416 C415 1.362 . S
C416 C419 1.409 . S
C417 H409 0.930 . S
C417 C418 1.355 . S
C417 C419 1.415 . S
C418 C417 1.355 . S
C418 C420 1.419 . S
C419 C414 1.425 . S
C419 C416 1.409 . S
C419 C417 1.415 . S
C420 H410 0.930 . S
C420 C418 1.419 . S
C420 C421 1.362 . S
C421 H411 0.930 . S
C421 C414 1.409 . S
C421 C420 1.362 . S
H422 C428 0.930 . S
H423 C431 0.930 . S
H424 C432 0.930 . S
H425 C433 0.930 . S
H426 C436 0.930 1_556 S
H427 C437 0.930 . S
C428 H422 0.930 . S
C428 C429 1.355 . S
C428 C430 1.415 1_545 S
C429 C428 1.355 . S
C429 C431 1.419 . S
C430 C428 1.415 1_565 S
C430 C435 1.425 1_566 S
C430 C437 1.409 . S
C431 H423 0.930 . S
C431 C429 1.419 . S
C431 C432 1.362 1_556 S
C432 H424 0.930 . S
C432 C431 1.362 1_554 S
C432 C435 1.409 . S
C433 H425 0.930 . S
C433 C434 1.355 . S
C433 C435 1.415 1_565 S
C434 C433 1.355 . S
C434 C436 1.419 . S
C435 C430 1.425 1_544 S
C435 C432 1.409 . S
C435 C433 1.415 1_545 S
C436 H426 0.930 1_554 S
C436 C434 1.419 . S
C436 C437 1.362 1_554 S
C437 H427 0.930 . S
C437 C430 1.409 . S
C437 C436 1.362 1_556 S
C205 C8 1.448 . S
C210 C173 1.444 . S
C221 C107 1.439 . S
C226 C41 1.459 . S
C237 C140 1.454 . S
C242 C74 1.490 . S
C253 C182 1.180 . S
C258 N5 1.185 . S
C269 C116 1.164 . S
C274 N38 1.199 . S
C285 N71 1.128 . S
C290 C149 1.199 . S
C301 C50 1.188 . S
C306 N104 1.138 . S
C317 C83 1.168 . S
C322 N137 1.200 . S
C333 N170 1.162 . S
C338 C17 1.193 . S
C349 C160 1.680 . S
C354 N14 1.659 . S
C365 N47 1.643 . S
C370 C193 1.668 . S
C381 C127 1.680 . S
C386 N80 1.659 . S
C397 N113 1.638 . S
C402 C94 1.671 . S
C413 C28 1.682 . S
C418 N146 1.650 . S
C429 C61 1.671 . S
C434 N179 1.638 . S
