# Generated by pormake.
# Topology unm, (4)-cn, num edge types: 1
# Building blocks:
#     Node 0, Type 0, BuildingBlock: KUFVIS_clean_sbu_0, # of connection points: 4
#     Node 1, Type 0, BuildingBlock: KUFVIS_clean_sbu_0, # of connection points: 4
#     Node 2, Type 0, BuildingBlock: KUFVIS_clean_sbu_0, # of connection points: 4
#     Node 3, Type 0, BuildingBlock: KUFVIS_clean_sbu_0, # of connection points: 4
#     Node 4, Type 0, BuildingBlock: KUFVIS_clean_sbu_0, # of connection points: 4
#     Node 5, Type 0, BuildingBlock: KUFVIS_clean_sbu_0, # of connection points: 4
#     Node 6, Type 0, BuildingBlock: KUFVIS_clean_sbu_0, # of connection points: 4
#     Node 7, Type 0, BuildingBlock: KUFVIS_clean_sbu_0, # of connection points: 4
#     Edge 8, Type (0, 0), BuildingBlock: KIFKEQ_clean_linker_1, # of connection points: 2
#     Edge 9, Type (0, 0), BuildingBlock: KIFKEQ_clean_linker_1, # of connection points: 2
#     Edge 10, Type (0, 0), BuildingBlock: KIFKEQ_clean_linker_1, # of connection points: 2
#     Edge 11, Type (0, 0), BuildingBlock: KIFKEQ_clean_linker_1, # of connection points: 2
#     Edge 12, Type (0, 0), BuildingBlock: KIFKEQ_clean_linker_1, # of connection points: 2
#     Edge 13, Type (0, 0), BuildingBlock: KIFKEQ_clean_linker_1, # of connection points: 2
#     Edge 14, Type (0, 0), BuildingBlock: KIFKEQ_clean_linker_1, # of connection points: 2
#     Edge 15, Type (0, 0), BuildingBlock: KIFKEQ_clean_linker_1, # of connection points: 2
#     Edge 16, Type (0, 0), BuildingBlock: KIFKEQ_clean_linker_1, # of connection points: 2
#     Edge 17, Type (0, 0), BuildingBlock: KIFKEQ_clean_linker_1, # of connection points: 2
#     Edge 18, Type (0, 0), BuildingBlock: KIFKEQ_clean_linker_1, # of connection points: 2
#     Edge 19, Type (0, 0), BuildingBlock: KIFKEQ_clean_linker_1, # of connection points: 2
#     Edge 20, Type (0, 0), BuildingBlock: KIFKEQ_clean_linker_1, # of connection points: 2
#     Edge 21, Type (0, 0), BuildingBlock: KIFKEQ_clean_linker_1, # of connection points: 2
#     Edge 22, Type (0, 0), BuildingBlock: KIFKEQ_clean_linker_1, # of connection points: 2
#     Edge 23, Type (0, 0), BuildingBlock: KIFKEQ_clean_linker_1, # of connection points: 2
# Relax obj value: 0.139
# Max RMSD: 0.133
# Mean RMSD: 0.133
data_MOF--net-unm--node1-KUFVIS_clean_sbu_0--edge1-KIFKEQ_clean_linker_1
_symmetry_space_group_name_H-M    P1
_symmetry_Int_Tables_number       1
_symmetry_cell_setting            triclinic
loop_
_symmetry_equiv_pos_as_xyz
'x, y, z'
_cell_length_a     25.578855
_cell_length_b     25.578912
_cell_length_c     44.911001
_cell_angle_alpha  90.019025
_cell_angle_beta   90.020408
_cell_angle_gamma 89.838712
loop_
_atom_site_label
_atom_site_type_symbol
_atom_site_fract_x
_atom_site_fract_y
_atom_site_fract_z
_atom_type_partial_charge
Mn0 Mn 0.19093 0.30134 0.18483 0.0
Mn1 Mn 0.25335 0.40679 0.15747 0.0
C2 C 0.14456 0.36877 0.16335 0.0
C3 C 0.14329 0.26276 0.22376 0.0
C4 C 0.24501 0.30448 0.12376 0.0
O5 O 0.26369 0.29469 0.20418 0.0
O6 O 0.30112 0.366 0.18367 0.0
C7 C 0.2655 0.4643 0.21426 0.0
N8 N 0.24703 0.46219 0.18584 0.0
C9 C 0.20775 0.54743 0.19046 0.0
C10 C 0.22669 0.55066 0.21971 0.0
C11 C 0.25568 0.50891 0.23165 0.0
C12 C 0.2192 0.50222 0.1741 0.0
H13 H 0.28738 0.43212 0.22364 0.0
C14 C 0.3028 0.32522 0.20025 0.0
O15 O 0.16274 0.23447 0.20234 0.0
O16 O 0.15674 0.31139 0.22412 0.0
N17 N 0.21136 0.44979 0.13199 0.0
C18 C 0.19445 0.4398 0.10378 0.0
C19 C 0.16396 0.47727 0.08885 0.0
C20 C 0.15137 0.52463 0.103 0.0
C21 C 0.16986 0.53433 0.13187 0.0
C22 C 0.20058 0.49578 0.14552 0.0
H23 H 0.20365 0.40329 0.09288 0.0
O24 O 0.12448 0.32258 0.16523 0.0
O25 O 0.19127 0.37431 0.17429 0.0
O26 O 0.21987 0.27881 0.14364 0.0
O27 O 0.25963 0.3519 0.12698 0.0
C28 C 0.15825 0.58035 0.14783 0.0
C29 C 0.17718 0.5869 0.1771 0.0
H30 H 0.21886 0.58482 0.23327 0.0
H31 H 0.27018 0.51099 0.25425 0.0
H32 H 0.14984 0.46948 0.06657 0.0
H33 H 0.12729 0.55315 0.09156 0.0
H34 H 0.13436 0.61074 0.1379 0.0
H35 H 0.16758 0.62224 0.18924 0.0
Mn36 Mn 0.21692 0.68969 0.68345 0.0
Mn37 Mn 0.11093 0.75481 0.65826 0.0
C38 C 0.14688 0.64501 0.66384 0.0
C39 C 0.25809 0.64178 0.72142 0.0
C40 C 0.21053 0.74328 0.62228 0.0
O41 O 0.22652 0.76247 0.70236 0.0
O42 O 0.15449 0.80158 0.68343 0.0
C43 C 0.05756 0.76913 0.71619 0.0
N44 N 0.05733 0.75038 0.6878 0.0
C45 C 0.97133 0.71414 0.69426 0.0
C46 C 0.97052 0.73339 0.72349 0.0
C47 C 0.01383 0.76099 0.7345 0.0
C48 C 0.0158 0.72388 0.67696 0.0
H49 H 0.09092 0.78997 0.72484 0.0
C50 C 0.19643 0.80228 0.69907 0.0
O51 O 0.2846 0.65996 0.69899 0.0
O52 O 0.20975 0.65624 0.72323 0.0
N53 N 0.06527 0.71388 0.63386 0.0
C54 C 0.07297 0.69641 0.60552 0.0
C55 C 0.03373 0.66711 0.59145 0.0
C56 C 0.98695 0.6563 0.60658 0.0
C57 C 0.9796 0.67537 0.63556 0.0
C58 C 0.01987 0.70482 0.64833 0.0
H59 H 0.10901 0.70427 0.59385 0.0
O60 O 0.19271 0.62364 0.66471 0.0
O61 O 0.14315 0.69199 0.6747 0.0
O62 O 0.23691 0.71752 0.64164 0.0
O63 O 0.16376 0.75934 0.62654 0.0
C64 C 0.9343 0.66552 0.65246 0.0
C65 C 0.93017 0.68489 0.68178 0.0
H66 H 0.93702 0.72686 0.73775 0.0
H67 H 0.0136 0.77573 0.75709 0.0
H68 H 0.03969 0.65255 0.56907 0.0
H69 H 0.95703 0.63314 0.59579 0.0
H70 H 0.90262 0.64265 0.64322 0.0
H71 H 0.89534 0.67664 0.69465 0.0
Mn72 Mn 0.82461 0.71349 0.18144 0.0
Mn73 Mn 0.76068 0.60721 0.15619 0.0
C74 C 0.87005 0.64391 0.16162 0.0
C75 C 0.87215 0.75462 0.21949 0.0
C76 C 0.77104 0.70695 0.12027 0.0
O77 O 0.7518 0.72261 0.2004 0.0
O78 O 0.71343 0.65048 0.18139 0.0
C79 C 0.74717 0.55376 0.21414 0.0
N80 N 0.76585 0.55365 0.18574 0.0
C81 C 0.80344 0.46804 0.19225 0.0
C82 C 0.78426 0.46709 0.22149 0.0
C83 C 0.75602 0.51015 0.23247 0.0
C84 C 0.79298 0.51236 0.17493 0.0
H85 H 0.72584 0.58694 0.22277 0.0
C86 C 0.71229 0.69236 0.19708 0.0
O87 O 0.85366 0.78123 0.19712 0.0
O88 O 0.8582 0.70622 0.22119 0.0
N89 N 0.80208 0.56181 0.13177 0.0
C90 C 0.81924 0.56956 0.10339 0.0
C91 C 0.84905 0.53054 0.08932 0.0
C92 C 0.86066 0.48392 0.1045 0.0
C93 C 0.84187 0.47651 0.13351 0.0
C94 C 0.81188 0.51655 0.14628 0.0
H95 H 0.81077 0.60547 0.09169 0.0
O96 O 0.89086 0.68987 0.16261 0.0
O97 O 0.8232 0.63977 0.17256 0.0
O98 O 0.79644 0.73348 0.13967 0.0
O99 O 0.75554 0.66006 0.12449 0.0
C100 C 0.85247 0.43135 0.15044 0.0
C101 C 0.83328 0.42712 0.17979 0.0
H102 H 0.79134 0.4337 0.23577 0.0
H103 H 0.74133 0.50982 0.25506 0.0
H104 H 0.86338 0.53654 0.06691 0.0
H105 H 0.88421 0.45419 0.09371 0.0
H106 H 0.87578 0.39986 0.14121 0.0
H107 H 0.84209 0.39241 0.19268 0.0
Mn108 Mn 0.80087 0.32521 0.68237 0.0
Mn109 Mn 0.91126 0.26566 0.6591 0.0
C110 C 0.86922 0.37358 0.66358 0.0
C111 C 0.7563 0.37084 0.71995 0.0
C112 C 0.8118 0.27008 0.62212 0.0
O113 O 0.79408 0.25173 0.70082 0.0
O114 O 0.87116 0.21795 0.68551 0.0
C115 C 0.96578 0.25887 0.71715 0.0
N116 N 0.96462 0.27564 0.68837 0.0
C117 C 0.04801 0.31796 0.6938 0.0
C118 C 0.05028 0.30077 0.72342 0.0
C119 C 0.00897 0.27112 0.73513 0.0
C120 C 1.00423 0.30409 0.67685 0.0
H121 H 0.93391 0.23651 0.72634 0.0
C122 C 0.82792 0.21456 0.69983 0.0
O123 O 0.73135 0.3516 0.6972 0.0
O124 O 0.80514 0.35855 0.72229 0.0
N125 N 0.95383 0.30811 0.63376 0.0
C126 C 0.94465 0.32349 0.60517 0.0
C127 C 0.9817 0.35453 0.59041 0.0
C128 C 0.02781 0.36928 0.60514 0.0
C129 C 0.03669 0.35244 0.63442 0.0
C130 C 0.99865 0.32105 0.64788 0.0
H131 H 0.90911 0.31262 0.59379 0.0
O132 O 0.8224 0.39266 0.66404 0.0
O133 O 0.87483 0.32686 0.67447 0.0
O134 O 0.78401 0.29658 0.64045 0.0
O135 O 0.85872 0.25537 0.62745 0.0
C136 C 0.08132 0.3664 0.65097 0.0
C137 C 0.08699 0.34917 0.68063 0.0
H138 H 0.08331 0.31051 0.73745 0.0
H139 H 0.01029 0.25798 0.75802 0.0
H140 H 0.97454 0.36738 0.56782 0.0
H141 H 0.05597 0.39379 0.59382 0.0
H142 H 0.11125 0.39088 0.6412 0.0
H143 H 0.12121 0.36063 0.69323 0.0
Mn144 Mn 0.68897 0.21327 0.34457 0.0
Mn145 Mn 0.74852 0.10288 0.36783 0.0
C146 C 0.64059 0.14491 0.36334 0.0
C147 C 0.64334 0.25785 0.30698 0.0
C148 C 0.74408 0.20233 0.40482 0.0
O149 O 0.76245 0.22006 0.32611 0.0
O150 O 0.79623 0.14298 0.34143 0.0
C151 C 0.75533 0.04837 0.30978 0.0
N152 N 0.73855 0.04953 0.33856 0.0
C153 C 0.69624 0.96613 0.33312 0.0
C154 C 0.71343 0.96387 0.3035 0.0
C155 C 0.74308 1.00519 0.29179 0.0
C156 C 0.7101 0.00991 0.35007 0.0
H157 H 0.77769 0.08025 0.30059 0.0
C158 C 0.79962 0.18623 0.32711 0.0
O159 O 0.66258 0.2828 0.32973 0.0
O160 O 0.65564 0.20901 0.30465 0.0
N161 N 0.70606 0.0603 0.39317 0.0
C162 C 0.69068 0.06947 0.42176 0.0
C163 C 0.65964 0.03242 0.43651 0.0
C164 C 0.64489 0.98632 0.42177 0.0
C165 C 0.66174 0.97744 0.3925 0.0
C166 C 0.69313 0.01549 0.37904 0.0
H167 H 0.70155 0.10501 0.43313 0.0
O168 O 0.62151 0.19174 0.36289 0.0
O169 O 0.68732 0.13931 0.35246 0.0
O170 O 0.71759 0.23012 0.38648 0.0
O171 O 0.75879 0.15542 0.39949 0.0
C172 C 0.64778 0.93281 0.37595 0.0
C173 C 0.66502 0.92715 0.34628 0.0
H174 H 0.7037 0.93084 0.28947 0.0
H175 H 0.75623 1.00387 0.2689 0.0
H176 H 0.64677 0.03958 0.4591 0.0
H177 H 0.62038 0.95815 0.43309 0.0
H178 H 0.62331 0.90288 0.38571 0.0
H179 H 0.65357 0.89293 0.33368 0.0
Mn180 Mn 0.30063 0.18955 0.84548 0.0
Mn181 Mn 0.4069 0.25348 0.87073 0.0
C182 C 0.37022 0.14411 0.8653 0.0
C183 C 0.25949 0.142 0.80744 0.0
C184 C 0.30718 0.24311 0.90666 0.0
O185 O 0.2915 0.26236 0.82653 0.0
O186 O 0.36363 0.30074 0.84554 0.0
C187 C 0.46035 0.26701 0.81278 0.0
N188 N 0.46046 0.24832 0.84118 0.0
C189 C 0.54608 0.21075 0.83467 0.0
C190 C 0.54702 0.22992 0.80543 0.0
C191 C 0.50395 0.25816 0.79445 0.0
C192 C 0.50175 0.2212 0.85199 0.0
H193 H 0.42717 0.28833 0.80415 0.0
C194 C 0.32175 0.30187 0.82985 0.0
O195 O 0.23289 0.16049 0.82981 0.0
O196 O 0.3079 0.15596 0.80574 0.0
N197 N 0.45232 0.2121 0.89515 0.0
C198 C 0.44458 0.19493 0.92354 0.0
C199 C 0.4836 0.16513 0.9376 0.0
C200 C 0.53022 0.15352 0.92242 0.0
C201 C 0.53762 0.17231 0.89341 0.0
C202 C 0.49758 0.2023 0.88064 0.0
H203 H 0.40866 0.2034 0.93524 0.0
O204 O 0.32426 0.1233 0.86432 0.0
O205 O 0.37435 0.19097 0.85436 0.0
O206 O 0.28065 0.21772 0.88726 0.0
O207 O 0.35406 0.25862 0.90243 0.0
C208 C 0.58278 0.16171 0.87647 0.0
C209 C 0.587 0.18091 0.84713 0.0
H210 H 0.58041 0.22285 0.79114 0.0
H211 H 0.50427 0.27285 0.77186 0.0
H212 H 0.47761 0.1508 0.96001 0.0
H213 H 0.55996 0.12998 0.93321 0.0
H214 H 0.61428 0.13842 0.8857 0.0
H215 H 0.62171 0.1721 0.83423 0.0
Mn216 Mn 0.32448 0.79721 0.34346 0.0
Mn217 Mn 0.25937 0.90321 0.36864 0.0
C218 C 0.36917 0.86725 0.36307 0.0
C219 C 0.37238 0.75602 0.3055 0.0
C220 C 0.27089 0.80362 0.40464 0.0
O221 O 0.2517 0.7876 0.32456 0.0
O222 O 0.2126 0.85965 0.34349 0.0
C223 C 0.24505 0.95656 0.3107 0.0
N224 N 0.2638 0.9568 0.33909 0.0
C225 C 0.30004 0.04279 0.33262 0.0
C226 C 0.28079 0.0436 0.30339 0.0
C227 C 0.25319 1.00028 0.29239 0.0
C228 C 0.2903 0.99834 0.34992 0.0
H229 H 0.2242 0.9232 0.30205 0.0
C230 C 0.21189 0.8177 0.32785 0.0
O231 O 0.3542 0.72952 0.32793 0.0
O232 O 0.35793 0.80436 0.30368 0.0
N233 N 0.3003 0.94888 0.39304 0.0
C234 C 0.31777 0.94119 0.42138 0.0
C235 C 0.34708 0.98044 0.43544 0.0
C236 C 0.35789 0.02722 0.4203 0.0
C237 C 0.33882 0.03454 0.39132 0.0
C238 C 0.30936 0.99427 0.37855 0.0
H239 H 0.30991 0.90516 0.43305 0.0
O240 O 0.39053 0.82142 0.3622 0.0
O241 O 0.32219 0.87098 0.35221 0.0
O242 O 0.29665 0.77723 0.38528 0.0
O243 O 0.25484 0.85039 0.40037 0.0
C244 C 0.34867 0.07984 0.37442 0.0
C245 C 0.3293 0.08396 0.34509 0.0
H246 H 0.28732 0.07708 0.28912 0.0
H247 H 0.23845 1.0005 0.2698 0.0
H248 H 0.36164 0.97449 0.45782 0.0
H249 H 0.38106 0.05713 0.43109 0.0
H250 H 0.37154 0.11153 0.38365 0.0
H251 H 0.33755 0.11878 0.33222 0.0
Mn252 Mn 0.7128 0.82324 0.8421 0.0
Mn253 Mn 0.60735 0.76082 0.86946 0.0
C254 C 0.64536 0.86961 0.86358 0.0
C255 C 0.75139 0.87089 0.80317 0.0
C256 C 0.70964 0.76916 0.90317 0.0
O257 O 0.71945 0.75049 0.82276 0.0
O258 O 0.64813 0.71306 0.84325 0.0
C259 C 0.54984 0.74869 0.81266 0.0
N260 N 0.55195 0.76716 0.84108 0.0
C261 C 0.46671 0.80644 0.83645 0.0
C262 C 0.46348 0.7875 0.80721 0.0
C263 C 0.50524 0.75851 0.79527 0.0
C264 C 0.51192 0.79498 0.85282 0.0
H265 H 0.58202 0.7268 0.80328 0.0
C266 C 0.68892 0.71138 0.82668 0.0
O267 O 0.77968 0.85143 0.8246 0.0
O268 O 0.70276 0.85743 0.80281 0.0
N269 N 0.56434 0.80282 0.89493 0.0
C270 C 0.57433 0.81973 0.92314 0.0
C271 C 0.53686 0.85022 0.93807 0.0
C272 C 0.4895 0.86281 0.92391 0.0
C273 C 0.4798 0.84432 0.89504 0.0
C274 C 0.51835 0.8136 0.88139 0.0
H275 H 0.61084 0.81052 0.93405 0.0
O276 O 0.69156 0.88969 0.8617 0.0
O277 O 0.63983 0.8229 0.85264 0.0
O278 O 0.73532 0.7943 0.8833 0.0
O279 O 0.66223 0.75454 0.89995 0.0
C280 C 0.43378 0.85594 0.87909 0.0
C281 C 0.42724 0.83701 0.84981 0.0
H282 H 0.42933 0.79534 0.79364 0.0
H283 H 0.50316 0.74401 0.77266 0.0
H284 H 0.54464 0.86433 0.96035 0.0
H285 H 0.46098 0.88689 0.93536 0.0
H286 H 0.4034 0.87983 0.88901 0.0
H287 H 0.3919 0.84661 0.83767 0.0
H288 H 0.33244 0.31302 0.09042 0.0
H289 H 0.17756 0.24684 0.08945 0.0
H290 H 0.34167 0.29486 0.03756 0.0
H291 H 0.18592 0.22999 0.03579 0.0
H292 H 0.24672 0.17703 0.9404 0.0
H293 H 0.23033 0.18405 0.99417 0.0
H294 H 0.30426 0.33571 0.99464 0.0
H295 H 0.32178 0.32784 0.94169 0.0
C296 C 0.30069 0.29362 0.07891 0.0
C297 C 0.25434 0.28136 0.09403 0.0
C298 C 0.30561 0.28386 0.04849 0.0
C299 C 0.26389 0.26246 0.03213 0.0
C300 C 0.21872 0.24673 0.04765 0.0
C301 C 0.21404 0.25602 0.0784 0.0
C302 C 0.2582 0.21233 0.95198 0.0
C303 C 0.28577 0.2518 0.93691 0.0
C304 C 0.24913 0.21623 0.9828 0.0
C305 C 0.26734 0.25977 0.99895 0.0
C306 C 0.29132 0.30076 0.98322 0.0
C307 C 0.30078 0.29663 0.95273 0.0
H308 H 0.19778 0.82911 0.58789 0.0
H309 H 0.26931 0.67619 0.58801 0.0
H310 H 0.21529 0.83758 0.53496 0.0
H311 H 0.28557 0.68379 0.53426 0.0
H312 H 0.18508 0.81642 0.43903 0.0
H313 H 0.17661 0.79892 0.49196 0.0
H314 H 0.33037 0.72857 0.49265 0.0
H315 H 0.33797 0.74482 0.43891 0.0
C316 C 0.21802 0.79756 0.57659 0.0
C317 C 0.23205 0.75198 0.59207 0.0
C318 C 0.22747 0.80205 0.54612 0.0
C319 C 0.25039 0.76068 0.53006 0.0
C320 C 0.26763 0.7163 0.54588 0.0
C321 C 0.25863 0.71205 0.57669 0.0
C322 C 0.21663 0.79617 0.45033 0.0
C323 C 0.26219 0.78212 0.43485 0.0
C324 C 0.21214 0.78673 0.4808 0.0
C325 C 0.2535 0.76379 0.49687 0.0
C326 C 0.29786 0.74653 0.48104 0.0
C327 C 0.30212 0.75552 0.45023 0.0
H328 H 0.68631 0.69235 0.08524 0.0
H329 H 0.83712 0.76741 0.08653 0.0
H330 H 0.67843 0.70987 0.03229 0.0
H331 H 0.83008 0.78382 0.03276 0.0
H332 H 0.76728 0.83659 0.93748 0.0
H333 H 0.78414 0.82823 0.99114 0.0
H334 H 0.71927 0.67248 0.98937 0.0
H335 H 0.7011 0.68172 0.93651 0.0
C336 C 0.71752 0.71335 0.0742 0.0
C337 C 0.76236 0.72836 0.09002 0.0
C338 C 0.71338 0.72281 0.04372 0.0
C339 C 0.75437 0.7468 0.02798 0.0
C340 C 0.79791 0.76501 0.04413 0.0
C341 C 0.80182 0.75593 0.07495 0.0
C342 C 0.7581 0.80012 0.94853 0.0
C343 C 0.73276 0.75982 0.9329 0.0
C344 C 0.7674 0.79543 0.97929 0.0
C345 C 0.75166 0.75026 0.9948 0.0
C346 C 0.73026 0.70855 0.97844 0.0
C347 C 0.7205 0.71346 0.94802 0.0
H348 H 0.68073 0.26275 0.44015 0.0
H349 H 0.83051 0.18494 0.43839 0.0
H350 H 0.6913 0.27938 0.49352 0.0
H351 H 0.84251 0.20352 0.49098 0.0
H352 H 0.7514 0.33344 0.58678 0.0
H353 H 0.73478 0.32286 0.5334 0.0
H354 H 0.81059 0.17162 0.53597 0.0
H355 H 0.82917 0.18363 0.58857 0.0
C356 C 0.7166 0.25065 0.451 0.0
C357 C 0.75474 0.2224 0.43515 0.0
C358 C 0.72263 0.25997 0.48164 0.0
C359 C 0.76722 0.24169 0.49693 0.0
C360 C 0.80675 0.21655 0.48039 0.0
C361 C 0.80031 0.20651 0.45006 0.0
C362 C 0.7635 0.29756 0.57593 0.0
C363 C 0.79173 0.25942 0.59179 0.0
C364 C 0.75418 0.29152 0.54529 0.0
C365 C 0.77245 0.24693 0.53001 0.0
C366 C 0.79757 0.2074 0.54655 0.0
C367 C 0.8076 0.21384 0.57688 0.0
H368 H 0.32098 0.28394 0.25606 0.0
H369 H 0.39982 0.3431 0.17814 0.0
H370 H 0.406 0.27406 0.28123 0.0
H371 H 0.48416 0.33205 0.20289 0.0
H372 H 0.61988 0.23354 0.24949 0.0
H373 H 0.53751 0.25058 0.2234 0.0
H374 H 0.48276 0.34107 0.29826 0.0
H375 H 0.56598 0.32534 0.32406 0.0
C376 C 0.35637 0.29416 0.24421 0.0
C377 C 0.35365 0.31422 0.21511 0.0
C378 C 0.40492 0.28904 0.25868 0.0
C379 C 0.45168 0.30266 0.24406 0.0
C380 C 0.44888 0.32132 0.21472 0.0
C381 C 0.40052 0.32759 0.20059 0.0
C382 C 0.59094 0.25849 0.25997 0.0
C383 C 0.5998 0.27878 0.28863 0.0
C384 C 0.54362 0.26785 0.24515 0.0
C385 C 0.50343 0.29653 0.25897 0.0
C386 C 0.51286 0.31837 0.28721 0.0
C387 C 0.56081 0.3101 0.30175 0.0
H388 H 0.23611 0.81914 0.75531 0.0
H389 H 0.18295 0.89962 0.67644 0.0
H390 H 0.24606 0.90381 0.78081 0.0
H391 H 0.1941 0.98364 0.70151 0.0
H392 H 0.28853 0.11839 0.75066 0.0
H393 H 0.2739 0.03615 0.72405 0.0
H394 H 0.17859 0.9809 0.79666 0.0
H395 H 0.19197 0.06396 0.82296 0.0
C396 C 0.22744 0.85484 0.7433 0.0
C397 C 0.20894 0.85273 0.71386 0.0
C398 C 0.23254 0.9032 0.75796 0.0
C399 C 0.22046 0.95032 0.74319 0.0
C400 C 0.20366 0.94809 0.71346 0.0
C401 C 0.19737 0.89995 0.69913 0.0
C402 C 0.26317 0.08933 0.76054 0.0
C403 C 0.24077 0.09803 0.78871 0.0
C404 C 0.25516 0.04208 0.74542 0.0
C405 C 0.22572 1.00182 0.75847 0.0
C406 C 0.20193 0.01104 0.78622 0.0
C407 C 0.20888 0.0589 0.80104 0.0
H408 H 0.45086 0.68863 0.32113 0.0
H409 H 0.39581 0.7848 0.24865 0.0
H410 H 0.5339 0.67498 0.29481 0.0
H411 H 0.47805 0.76984 0.22202 0.0
H412 H 0.61495 0.67775 0.17469 0.0
H413 H 0.53091 0.6891 0.19977 0.0
H414 H 0.61055 0.74288 0.27866 0.0
H415 H 0.69521 0.73279 0.25315 0.0
C416 C 0.45578 0.70541 0.29917 0.0
C417 C 0.41648 0.73726 0.28679 0.0
C418 C 0.50363 0.69829 0.28434 0.0
C419 C 0.51267 0.72185 0.25653 0.0
C420 C 0.47225 0.75127 0.24344 0.0
C421 C 0.42502 0.75947 0.25857 0.0
C422 C 0.61458 0.69259 0.19729 0.0
C423 C 0.66175 0.70465 0.2119 0.0
C424 C 0.56642 0.69899 0.21163 0.0
C425 C 0.56415 0.7164 0.24124 0.0
C426 C 0.61121 0.72891 0.25589 0.0
C427 C 0.65956 0.72371 0.24123 0.0
H428 H 0.89805 0.13644 0.71166 0.0
H429 H 0.73544 0.17755 0.7237 0.0
H430 H 0.88259 0.0519 0.73455 0.0
H431 H 0.72015 0.09246 0.7471 0.0
H432 H 0.6983 0.91675 0.75747 0.0
H433 H 0.7173 0.99951 0.73311 0.0
H434 H 0.86202 0.0104 0.78218 0.0
H435 H 0.843 0.92705 0.80664 0.0
C436 C 0.85888 0.12765 0.71928 0.0
C437 C 0.81788 0.1641 0.71558 0.0
C438 C 0.85018 0.07903 0.73263 0.0
C439 C 0.80012 0.065 0.74258 0.0
C440 C 0.75912 0.10161 0.73931 0.0
C441 C 0.76793 0.15063 0.7261 0.0
C442 C 0.73472 0.93619 0.76273 0.0
C443 C 0.76916 0.91501 0.78407 0.0
C444 C 0.74525 0.98413 0.749 0.0
C445 C 0.7907 0.01229 0.75602 0.0
C446 C 0.8266 0.98982 0.77618 0.0
C447 C 0.8159 0.94181 0.79011 0.0
H448 H 0.87776 0.11611 0.31529 0.0
H449 H 0.83663 0.27871 0.30323 0.0
H450 H 0.96229 0.13157 0.2924 0.0
H451 H 0.92172 0.294 0.27983 0.0
H452 H 0.09742 0.31586 0.26946 0.0
H453 H 0.01467 0.29687 0.29382 0.0
H454 H 1.00379 0.15212 0.24477 0.0
H455 H 0.08713 0.17115 0.22031 0.0
C456 C 0.88654 0.15527 0.30766 0.0
C457 C 0.85008 0.19627 0.31136 0.0
C458 C 0.93516 0.16398 0.29431 0.0
C459 C 0.94918 0.21403 0.28437 0.0
C460 C 0.91257 0.25503 0.28763 0.0
C461 C 0.86355 0.24622 0.30084 0.0
C462 C 0.07799 0.27944 0.2642 0.0
C463 C 0.09917 0.24499 0.24287 0.0
C464 C 0.03004 0.26891 0.27793 0.0
C465 C 1.00189 0.22346 0.27092 0.0
C466 C 0.02436 0.18755 0.25076 0.0
C467 C 0.07237 0.19825 0.23684 0.0
H468 H 0.32549 0.56331 0.7058 0.0
H469 H 0.22928 0.61834 0.77827 0.0
H470 H 0.33914 0.48026 0.73212 0.0
H471 H 0.24423 0.5361 0.8049 0.0
H472 H 0.33632 0.39921 0.85224 0.0
H473 H 0.32497 0.48325 0.82716 0.0
H474 H 0.27123 0.4036 0.74826 0.0
H475 H 0.28132 0.31894 0.77378 0.0
C476 C 0.3087 0.55838 0.72776 0.0
C477 C 0.27684 0.59768 0.74013 0.0
C478 C 0.31582 0.51053 0.74259 0.0
C479 C 0.29224 0.50149 0.7704 0.0
C480 C 0.26281 0.5419 0.78348 0.0
C481 C 0.25462 0.58914 0.76835 0.0
C482 C 0.3215 0.39958 0.82964 0.0
C483 C 0.30945 0.35241 0.81503 0.0
C484 C 0.31509 0.44774 0.8153 0.0
C485 C 0.2977 0.45001 0.78569 0.0
C486 C 0.28519 0.40294 0.77103 0.0
C487 C 0.2904 0.3546 0.7857 0.0
H488 H 0.19502 0.77801 0.27161 0.0
H489 H 0.11455 0.83119 0.35048 0.0
H490 H 0.11034 0.76806 0.24611 0.0
H491 H 0.03053 0.82003 0.32541 0.0
H492 H 0.89577 0.72558 0.27627 0.0
H493 H 0.97802 0.74021 0.30287 0.0
H494 H 0.03325 0.83554 0.23027 0.0
H495 H 0.95018 0.82216 0.20397 0.0
C496 C 0.15932 0.78668 0.28362 0.0
C497 C 0.16144 0.80519 0.31306 0.0
C498 C 0.11096 0.78158 0.26897 0.0
C499 C 0.06384 0.79367 0.28374 0.0
C500 C 0.06607 0.81047 0.31346 0.0
C501 C 0.11422 0.81676 0.32779 0.0
C502 C 0.92483 0.75095 0.26639 0.0
C503 C 0.91612 0.77335 0.23822 0.0
C504 C 0.97208 0.75896 0.2815 0.0
C505 C 0.01234 0.7884 0.26846 0.0
C506 C 1.00311 0.81219 0.2407 0.0
C507 C 0.95525 0.80524 0.22589 0.0
H508 H 0.68883 0.4482 0.70286 0.0
H509 H 0.7806 0.3943 0.77744 0.0
H510 H 0.67309 0.53142 0.72867 0.0
H511 H 0.76355 0.47666 0.80354 0.0
H512 H 0.67103 0.61436 0.84879 0.0
H513 H 0.68208 0.53002 0.82404 0.0
H514 H 0.7401 0.60818 0.7457 0.0
H515 H 0.73021 0.6932 0.77087 0.0
C516 C 0.70405 0.45337 0.72518 0.0
C517 C 0.73537 0.41438 0.7383 0.0
C518 C 0.69578 0.50132 0.73972 0.0
C519 C 0.71761 0.51075 0.76796 0.0
C520 C 0.74629 0.47056 0.78178 0.0
C521 C 0.75565 0.42323 0.76696 0.0
C522 C 0.68654 0.61365 0.82634 0.0
C523 C 0.69993 0.66053 0.81182 0.0
C524 C 0.69281 0.5653 0.8122 0.0
C525 C 0.71148 0.5625 0.78287 0.0
C526 C 0.72511 0.60925 0.76825 0.0
C527 C 0.71999 0.6578 0.78272 0.0
H528 H 0.93478 0.62558 0.11493 0.0
H529 H 0.88616 0.56487 0.2001 0.0
H530 H 1.00364 0.55842 0.11217 0.0
H531 H 0.95472 0.4982 0.19749 0.0
H532 H 0.12754 0.44911 0.20078 0.0
H533 H 0.0583 0.51491 0.19735 0.0
H534 H 0.00952 0.45046 0.11297 0.0
H535 H 0.07909 0.38411 0.11656 0.0
C536 C 0.93819 0.59698 0.13262 0.0
C537 C 0.9046 0.59896 0.15729 0.0
C538 C 0.97734 0.5589 0.13107 0.0
C539 C 0.98422 0.52366 0.15468 0.0
C540 C 0.95006 0.52524 0.17911 0.0
C541 C 0.91061 0.56277 0.18044 0.0
C542 C 0.10292 0.45004 0.18114 0.0
C543 C 0.10923 0.41294 0.15847 0.0
C544 C 0.06307 0.48706 0.17936 0.0
C545 C 0.02879 0.48725 0.15496 0.0
C546 C 0.03588 0.45102 0.13185 0.0
C547 C 0.07545 0.41342 0.13386 0.0
H548 H 0.88777 0.43805 0.6168 0.0
H549 H 0.94525 0.39303 0.7034 0.0
H550 H 0.95428 0.50719 0.61417 0.0
H551 H 0.01132 0.46177 0.70092 0.0
H552 H 0.06766 0.63072 0.70238 0.0
H553 H 0.99969 0.56385 0.69983 0.0
H554 H 0.0597 0.51243 0.61483 0.0
H555 H 0.12793 0.57979 0.61747 0.0
C556 C 0.9154 0.44246 0.63491 0.0
C557 C 0.91295 0.4096 0.65986 0.0
C558 C 0.95311 0.48178 0.63345 0.0
C559 C 0.98746 0.4896 0.6574 0.0
C560 C 0.98493 0.45654 0.68228 0.0
C561 C 0.94779 0.41694 0.68354 0.0
C562 C 0.06524 0.60608 0.6828 0.0
C563 C 0.10161 0.61106 0.65967 0.0
C564 C 0.02698 0.56756 0.68151 0.0
C565 C 0.02486 0.53319 0.65717 0.0
C566 C 0.06047 0.53893 0.63365 0.0
C567 C 0.09922 0.57721 0.63513 0.0
H568 H 0.57611 0.12635 0.41012 0.0
H569 H 0.62116 0.06889 0.32352 0.0
H570 H 0.50698 0.05985 0.41274 0.0
H571 H 0.55242 1.00282 0.32599 0.0
H572 H 0.43438 0.8862 0.40944 0.0
H573 H 0.50174 0.95443 0.41208 0.0
H574 H 0.45034 0.01444 0.32708 0.0
H575 H 0.38347 0.94647 0.32452 0.0
C576 C 0.57171 0.09873 0.392 0.0
C577 C 0.60458 0.10118 0.36706 0.0
C578 C 0.53239 0.06102 0.39346 0.0
C579 C 0.52458 0.02667 0.36951 0.0
C580 C 0.55765 0.0292 0.34463 0.0
C581 C 0.59725 0.06634 0.34337 0.0
C582 C 0.43696 0.91491 0.39177 0.0
C583 C 0.40312 0.91252 0.36723 0.0
C584 C 0.47524 0.95366 0.39326 0.0
C585 C 0.48099 0.98926 0.36974 0.0
C586 C 0.44663 0.98715 0.3454 0.0
C587 C 0.4081 0.94888 0.3441 0.0
H588 H 0.44925 0.12801 0.82682 0.0
H589 H 0.38856 0.07938 0.912 0.0
H590 H 0.51593 0.05946 0.82944 0.0
H591 H 0.45572 0.01053 0.91475 0.0
H592 H 0.63002 0.93508 0.91037 0.0
H593 H 0.56368 1.00465 0.91396 0.0
H594 H 0.49923 0.95589 0.82957 0.0
H595 H 0.56503 0.88664 0.82614 0.0
C596 C 0.45136 0.10356 0.84649 0.0
C597 C 0.41517 0.10957 0.86964 0.0
C598 C 0.48889 0.06411 0.84782 0.0
C599 C 0.49048 0.02995 0.87225 0.0
C600 C 0.45525 0.03684 0.89585 0.0
C601 C 0.41715 0.07598 0.89431 0.0
C602 C 0.60072 0.93872 0.89306 0.0
C603 C 0.6012 0.90495 0.86845 0.0
C604 C 0.56311 0.97829 0.89507 0.0
C605 C 0.52689 0.98539 0.87196 0.0
C606 C 0.52708 0.95111 0.84756 0.0
C607 C 0.5641 0.91126 0.84578 0.0
loop_
_geom_bond_atom_site_label_1
_geom_bond_atom_site_label_2
_geom_bond_distance
_geom_bond_site_symmetry_2
_ccdc_geom_bond_type
Mn0 O5 2.095 . S
Mn0 O15 2.162 . S
Mn0 O16 2.297 . S
Mn0 O24 2.385 . S
Mn0 O25 2.209 . S
Mn0 O26 2.094 . S
Mn1 O6 2.121 . S
Mn1 N8 2.257 . S
Mn1 N17 2.282 . S
Mn1 O25 2.215 . S
Mn1 O27 2.117 . S
C2 O24 1.234 . S
C2 O25 1.283 . S
C3 O15 1.281 . S
C3 O16 1.236 . S
C4 O26 1.240 . S
C4 O27 1.264 . S
O5 Mn0 2.095 . S
O5 C14 1.250 . S
O6 Mn1 2.121 . S
O6 C14 1.258 . S
C7 N8 1.326 . S
C7 C11 1.460 . S
C7 H13 0.929 . S
N8 Mn1 2.257 . S
N8 C7 1.326 . S
N8 C12 1.362 . S
C9 C10 1.258 . S
C9 C12 1.431 . S
C9 C29 1.449 . S
C10 C9 1.258 . S
C10 C11 1.477 . S
C10 H30 0.931 . S
C11 C7 1.460 . S
C11 C10 1.477 . S
C11 H31 0.930 . S
C12 N8 1.362 . S
C12 C9 1.431 . S
C12 C22 1.476 . S
H13 C7 0.929 . S
C14 O5 1.250 . S
C14 O6 1.258 . S
O15 Mn0 2.162 . S
O15 C3 1.281 . S
O16 Mn0 2.297 . S
O16 C3 1.236 . S
N17 Mn1 2.282 . S
N17 C18 1.328 . S
N17 C22 1.318 . S
C18 N17 1.328 . S
C18 C19 1.457 . S
C18 H23 0.929 . S
C19 C18 1.457 . S
C19 C20 1.291 . S
C19 H32 0.931 . S
C20 C19 1.291 . S
C20 C21 1.373 . S
C20 H33 0.929 . S
C21 C20 1.373 . S
C21 C22 1.396 . S
C21 C28 1.403 . S
C22 C12 1.476 . S
C22 N17 1.318 . S
C22 C21 1.396 . S
H23 C18 0.929 . S
O24 Mn0 2.385 . S
O24 C2 1.234 . S
O25 Mn0 2.209 . S
O25 Mn1 2.215 . S
O25 C2 1.283 . S
O26 Mn0 2.094 . S
O26 C4 1.240 . S
O27 Mn1 2.117 . S
O27 C4 1.264 . S
C28 C21 1.403 . S
C28 C29 1.399 . S
C28 H34 0.929 . S
C29 C9 1.449 . S
C29 C28 1.399 . S
C29 H35 0.930 . S
H30 C10 0.931 . S
H31 C11 0.930 . S
H32 C19 0.931 . S
H33 C20 0.929 . S
H34 C28 0.929 . S
H35 C29 0.930 . S
Mn36 O41 2.095 . S
Mn36 O51 2.162 . S
Mn36 O52 2.297 . S
Mn36 O60 2.385 . S
Mn36 O61 2.209 . S
Mn36 O62 2.094 . S
Mn37 O42 2.121 . S
Mn37 N44 2.257 . S
Mn37 N53 2.282 . S
Mn37 O61 2.215 . S
Mn37 O63 2.117 . S
C38 O60 1.234 . S
C38 O61 1.283 . S
C39 O51 1.281 . S
C39 O52 1.236 . S
C40 O62 1.240 . S
C40 O63 1.264 . S
O41 Mn36 2.095 . S
O41 C50 1.250 . S
O42 Mn37 2.121 . S
O42 C50 1.258 . S
C43 N44 1.326 . S
C43 C47 1.460 . S
C43 H49 0.929 . S
N44 Mn37 2.257 . S
N44 C43 1.326 . S
N44 C48 1.362 . S
C45 C46 1.258 . S
C45 C48 1.431 1_655 S
C45 C65 1.449 . S
C46 C45 1.258 . S
C46 C47 1.477 1_655 S
C46 H66 0.931 . S
C47 C43 1.460 . S
C47 C46 1.477 1_455 S
C47 H67 0.930 . S
C48 N44 1.362 . S
C48 C45 1.431 1_455 S
C48 C58 1.476 . S
H49 C43 0.929 . S
C50 O41 1.250 . S
C50 O42 1.258 . S
O51 Mn36 2.162 . S
O51 C39 1.281 . S
O52 Mn36 2.297 . S
O52 C39 1.236 . S
N53 Mn37 2.282 . S
N53 C54 1.328 . S
N53 C58 1.318 . S
C54 N53 1.328 . S
C54 C55 1.457 . S
C54 H59 0.929 . S
C55 C54 1.457 . S
C55 C56 1.291 . S
C55 H68 0.931 . S
C56 C55 1.291 . S
C56 C57 1.376 . S
C56 H69 0.929 1_455 S
C57 C56 1.376 . S
C57 C58 1.409 . S
C57 C64 1.387 1_455 S
C58 C48 1.476 . S
C58 N53 1.318 . S
C58 C57 1.409 . S
H59 C54 0.929 . S
O60 Mn36 2.385 . S
O60 C38 1.234 . S
O61 Mn36 2.209 . S
O61 Mn37 2.215 . S
O61 C38 1.283 . S
O62 Mn36 2.094 . S
O62 C40 1.240 . S
O63 Mn37 2.117 . S
O63 C40 1.264 . S
C64 C57 1.387 1_655 S
C64 C65 1.399 . S
C64 H70 0.929 . S
C65 C45 1.449 . S
C65 C64 1.399 . S
C65 H71 0.930 . S
H66 C46 0.931 . S
H67 C47 0.930 . S
H68 C55 0.931 . S
H69 C56 0.929 1_655 S
H70 C64 0.929 . S
H71 C65 0.930 . S
Mn72 O77 2.095 . S
Mn72 O87 2.162 . S
Mn72 O88 2.297 . S
Mn72 O96 2.385 . S
Mn72 O97 2.209 . S
Mn72 O98 2.094 . S
Mn73 O78 2.121 . S
Mn73 N80 2.257 . S
Mn73 N89 2.282 . S
Mn73 O97 2.215 . S
Mn73 O99 2.117 . S
C74 O96 1.234 . S
C74 O97 1.283 . S
C75 O87 1.281 . S
C75 O88 1.236 . S
C76 O98 1.240 . S
C76 O99 1.264 . S
O77 Mn72 2.095 . S
O77 C86 1.250 . S
O78 Mn73 2.121 . S
O78 C86 1.258 . S
C79 N80 1.326 . S
C79 C83 1.460 . S
C79 H85 0.929 . S
N80 Mn73 2.257 . S
N80 C79 1.326 . S
N80 C84 1.362 . S
C81 C82 1.258 . S
C81 C84 1.431 . S
C81 C101 1.449 . S
C82 C81 1.258 . S
C82 C83 1.477 . S
C82 H102 0.931 . S
C83 C79 1.460 . S
C83 C82 1.477 . S
C83 H103 0.930 . S
C84 N80 1.362 . S
C84 C81 1.431 . S
C84 C94 1.476 . S
H85 C79 0.929 . S
C86 O77 1.250 . S
C86 O78 1.258 . S
O87 Mn72 2.162 . S
O87 C75 1.281 . S
O88 Mn72 2.297 . S
O88 C75 1.236 . S
N89 Mn73 2.282 . S
N89 C90 1.328 . S
N89 C94 1.318 . S
C90 N89 1.328 . S
C90 C91 1.457 . S
C90 H95 0.929 . S
C91 C90 1.457 . S
C91 C92 1.291 . S
C91 H104 0.931 . S
C92 C91 1.291 . S
C92 C93 1.373 . S
C92 H105 0.929 . S
C93 C92 1.373 . S
C93 C94 1.396 . S
C93 C100 1.403 . S
C94 C84 1.476 . S
C94 N89 1.318 . S
C94 C93 1.396 . S
H95 C90 0.929 . S
O96 Mn72 2.385 . S
O96 C74 1.234 . S
O97 Mn72 2.209 . S
O97 Mn73 2.215 . S
O97 C74 1.283 . S
O98 Mn72 2.094 . S
O98 C76 1.240 . S
O99 Mn73 2.117 . S
O99 C76 1.264 . S
C100 C93 1.403 . S
C100 C101 1.399 . S
C100 H106 0.929 . S
C101 C81 1.449 . S
C101 C100 1.399 . S
C101 H107 0.930 . S
H102 C82 0.931 . S
H103 C83 0.930 . S
H104 C91 0.931 . S
H105 C92 0.929 . S
H106 C100 0.929 . S
H107 C101 0.930 . S
Mn108 O113 2.095 . S
Mn108 O123 2.162 . S
Mn108 O124 2.297 . S
Mn108 O132 2.385 . S
Mn108 O133 2.209 . S
Mn108 O134 2.094 . S
Mn109 O114 2.121 . S
Mn109 N116 2.257 . S
Mn109 N125 2.282 . S
Mn109 O133 2.215 . S
Mn109 O135 2.117 . S
C110 O132 1.234 . S
C110 O133 1.283 . S
C111 O123 1.281 . S
C111 O124 1.236 . S
C112 O134 1.240 . S
C112 O135 1.264 . S
O113 Mn108 2.095 . S
O113 C122 1.250 . S
O114 Mn109 2.121 . S
O114 C122 1.258 . S
C115 N116 1.326 . S
C115 C119 1.460 . S
C115 H121 0.929 . S
N116 Mn109 2.257 . S
N116 C115 1.326 . S
N116 C120 1.362 . S
C117 C118 1.258 . S
C117 C120 1.431 1_455 S
C117 C137 1.449 . S
C118 C117 1.258 . S
C118 C119 1.477 1_455 S
C118 H138 0.931 . S
C119 C115 1.460 . S
C119 C118 1.477 1_655 S
C119 H139 0.930 . S
C120 N116 1.362 . S
C120 C117 1.431 1_655 S
C120 C130 1.476 . S
H121 C115 0.929 . S
C122 O113 1.250 . S
C122 O114 1.258 . S
O123 Mn108 2.162 . S
O123 C111 1.281 . S
O124 Mn108 2.297 . S
O124 C111 1.236 . S
N125 Mn109 2.282 . S
N125 C126 1.328 . S
N125 C130 1.318 . S
C126 N125 1.328 . S
C126 C127 1.457 . S
C126 H131 0.929 . S
C127 C126 1.457 . S
C127 C128 1.291 . S
C127 H140 0.931 . S
C128 C127 1.291 . S
C128 C129 1.376 . S
C128 H141 0.929 1_655 S
C129 C128 1.376 . S
C129 C130 1.409 . S
C129 C136 1.387 1_655 S
C130 C120 1.476 . S
C130 N125 1.318 . S
C130 C129 1.409 . S
H131 C126 0.929 . S
O132 Mn108 2.385 . S
O132 C110 1.234 . S
O133 Mn108 2.209 . S
O133 Mn109 2.215 . S
O133 C110 1.283 . S
O134 Mn108 2.094 . S
O134 C112 1.240 . S
O135 Mn109 2.117 . S
O135 C112 1.264 . S
C136 C129 1.387 1_455 S
C136 C137 1.399 . S
C136 H142 0.929 . S
C137 C117 1.449 . S
C137 C136 1.399 . S
C137 H143 0.930 . S
H138 C118 0.931 . S
H139 C119 0.930 . S
H140 C127 0.931 . S
H141 C128 0.929 1_455 S
H142 C136 0.929 . S
H143 C137 0.930 . S
Mn144 O149 2.095 . S
Mn144 O159 2.162 . S
Mn144 O160 2.297 . S
Mn144 O168 2.385 . S
Mn144 O169 2.209 . S
Mn144 O170 2.094 . S
Mn145 O150 2.121 . S
Mn145 N152 2.257 . S
Mn145 N161 2.282 . S
Mn145 O169 2.215 . S
Mn145 O171 2.117 . S
C146 O168 1.234 . S
C146 O169 1.283 . S
C147 O159 1.281 . S
C147 O160 1.236 . S
C148 O170 1.240 . S
C148 O171 1.264 . S
O149 Mn144 2.095 . S
O149 C158 1.250 . S
O150 Mn145 2.121 . S
O150 C158 1.258 . S
C151 N152 1.326 . S
C151 C155 1.460 . S
C151 H157 0.929 . S
N152 Mn145 2.257 . S
N152 C151 1.326 . S
N152 C156 1.362 . S
C153 C154 1.258 . S
C153 C156 1.431 1_565 S
C153 C173 1.449 . S
C154 C153 1.258 . S
C154 C155 1.477 1_565 S
C154 H174 0.931 . S
C155 C151 1.460 . S
C155 C154 1.477 1_545 S
C155 H175 0.930 . S
C156 N152 1.362 . S
C156 C153 1.431 1_545 S
C156 C166 1.476 . S
H157 C151 0.929 . S
C158 O149 1.250 . S
C158 O150 1.258 . S
O159 Mn144 2.162 . S
O159 C147 1.281 . S
O160 Mn144 2.297 . S
O160 C147 1.236 . S
N161 Mn145 2.282 . S
N161 C162 1.328 . S
N161 C166 1.318 . S
C162 N161 1.328 . S
C162 C163 1.457 . S
C162 H167 0.929 . S
C163 C162 1.457 . S
C163 C164 1.291 . S
C163 H176 0.931 . S
C164 C163 1.291 . S
C164 C165 1.376 . S
C164 H177 0.929 1_545 S
C165 C164 1.376 . S
C165 C166 1.409 . S
C165 C172 1.387 1_545 S
C166 C156 1.476 . S
C166 N161 1.318 . S
C166 C165 1.409 . S
H167 C162 0.929 . S
O168 Mn144 2.385 . S
O168 C146 1.234 . S
O169 Mn144 2.209 . S
O169 Mn145 2.215 . S
O169 C146 1.283 . S
O170 Mn144 2.094 . S
O170 C148 1.240 . S
O171 Mn145 2.117 . S
O171 C148 1.264 . S
C172 C165 1.387 1_565 S
C172 C173 1.399 . S
C172 H178 0.929 . S
C173 C153 1.449 . S
C173 C172 1.399 . S
C173 H179 0.930 . S
H174 C154 0.931 . S
H175 C155 0.930 . S
H176 C163 0.931 . S
H177 C164 0.929 1_565 S
H178 C172 0.929 . S
H179 C173 0.930 . S
Mn180 O185 2.095 . S
Mn180 O195 2.162 . S
Mn180 O196 2.297 . S
Mn180 O204 2.385 . S
Mn180 O205 2.209 . S
Mn180 O206 2.094 . S
Mn181 O186 2.121 . S
Mn181 N188 2.257 . S
Mn181 N197 2.282 . S
Mn181 O205 2.215 . S
Mn181 O207 2.117 . S
C182 O204 1.234 . S
C182 O205 1.283 . S
C183 O195 1.281 . S
C183 O196 1.236 . S
C184 O206 1.240 . S
C184 O207 1.264 . S
O185 Mn180 2.095 . S
O185 C194 1.250 . S
O186 Mn181 2.121 . S
O186 C194 1.258 . S
C187 N188 1.326 . S
C187 C191 1.460 . S
C187 H193 0.929 . S
N188 Mn181 2.257 . S
N188 C187 1.326 . S
N188 C192 1.362 . S
C189 C190 1.258 . S
C189 C192 1.431 . S
C189 C209 1.449 . S
C190 C189 1.258 . S
C190 C191 1.477 . S
C190 H210 0.931 . S
C191 C187 1.460 . S
C191 C190 1.477 . S
C191 H211 0.930 . S
C192 N188 1.362 . S
C192 C189 1.431 . S
C192 C202 1.476 . S
H193 C187 0.929 . S
C194 O185 1.250 . S
C194 O186 1.258 . S
O195 Mn180 2.162 . S
O195 C183 1.281 . S
O196 Mn180 2.297 . S
O196 C183 1.236 . S
N197 Mn181 2.282 . S
N197 C198 1.328 . S
N197 C202 1.318 . S
C198 N197 1.328 . S
C198 C199 1.457 . S
C198 H203 0.929 . S
C199 C198 1.457 . S
C199 C200 1.291 . S
C199 H212 0.931 . S
C200 C199 1.291 . S
C200 C201 1.373 . S
C200 H213 0.929 . S
C201 C200 1.373 . S
C201 C202 1.396 . S
C201 C208 1.403 . S
C202 C192 1.476 . S
C202 N197 1.318 . S
C202 C201 1.396 . S
H203 C198 0.929 . S
O204 Mn180 2.385 . S
O204 C182 1.234 . S
O205 Mn180 2.209 . S
O205 Mn181 2.215 . S
O205 C182 1.283 . S
O206 Mn180 2.094 . S
O206 C184 1.240 . S
O207 Mn181 2.117 . S
O207 C184 1.264 . S
C208 C201 1.403 . S
C208 C209 1.399 . S
C208 H214 0.929 . S
C209 C189 1.449 . S
C209 C208 1.399 . S
C209 H215 0.930 . S
H210 C190 0.931 . S
H211 C191 0.930 . S
H212 C199 0.931 . S
H213 C200 0.929 . S
H214 C208 0.929 . S
H215 C209 0.930 . S
Mn216 O221 2.095 . S
Mn216 O231 2.162 . S
Mn216 O232 2.297 . S
Mn216 O240 2.385 . S
Mn216 O241 2.209 . S
Mn216 O242 2.094 . S
Mn217 O222 2.121 . S
Mn217 N224 2.257 . S
Mn217 N233 2.282 . S
Mn217 O241 2.215 . S
Mn217 O243 2.117 . S
C218 O240 1.234 . S
C218 O241 1.283 . S
C219 O231 1.281 . S
C219 O232 1.236 . S
C220 O242 1.240 . S
C220 O243 1.264 . S
O221 Mn216 2.095 . S
O221 C230 1.250 . S
O222 Mn217 2.121 . S
O222 C230 1.258 . S
C223 N224 1.326 . S
C223 C227 1.460 . S
C223 H229 0.929 . S
N224 Mn217 2.257 . S
N224 C223 1.326 . S
N224 C228 1.362 . S
C225 C226 1.258 . S
C225 C228 1.431 1_545 S
C225 C245 1.449 . S
C226 C225 1.258 . S
C226 C227 1.477 1_545 S
C226 H246 0.931 . S
C227 C223 1.460 . S
C227 C226 1.477 1_565 S
C227 H247 0.930 . S
C228 N224 1.362 . S
C228 C225 1.431 1_565 S
C228 C238 1.476 . S
H229 C223 0.929 . S
C230 O221 1.250 . S
C230 O222 1.258 . S
O231 Mn216 2.162 . S
O231 C219 1.281 . S
O232 Mn216 2.297 . S
O232 C219 1.236 . S
N233 Mn217 2.282 . S
N233 C234 1.328 . S
N233 C238 1.318 . S
C234 N233 1.328 . S
C234 C235 1.457 . S
C234 H239 0.929 . S
C235 C234 1.457 . S
C235 C236 1.291 . S
C235 H248 0.931 . S
C236 C235 1.291 . S
C236 C237 1.376 . S
C236 H249 0.929 1_565 S
C237 C236 1.376 . S
C237 C238 1.409 . S
C237 C244 1.387 1_565 S
C238 C228 1.476 . S
C238 N233 1.318 . S
C238 C237 1.409 . S
H239 C234 0.929 . S
O240 Mn216 2.385 . S
O240 C218 1.234 . S
O241 Mn216 2.209 . S
O241 Mn217 2.215 . S
O241 C218 1.283 . S
O242 Mn216 2.094 . S
O242 C220 1.240 . S
O243 Mn217 2.117 . S
O243 C220 1.264 . S
C244 C237 1.387 1_545 S
C244 C245 1.399 . S
C244 H250 0.929 . S
C245 C225 1.449 . S
C245 C244 1.399 . S
C245 H251 0.930 . S
H246 C226 0.931 . S
H247 C227 0.930 . S
H248 C235 0.931 . S
H249 C236 0.929 1_545 S
H250 C244 0.929 . S
H251 C245 0.930 . S
Mn252 O257 2.095 . S
Mn252 O267 2.162 . S
Mn252 O268 2.297 . S
Mn252 O276 2.385 . S
Mn252 O277 2.209 . S
Mn252 O278 2.094 . S
Mn253 O258 2.121 . S
Mn253 N260 2.257 . S
Mn253 N269 2.282 . S
Mn253 O277 2.215 . S
Mn253 O279 2.117 . S
C254 O276 1.234 . S
C254 O277 1.283 . S
C255 O267 1.281 . S
C255 O268 1.236 . S
C256 O278 1.240 . S
C256 O279 1.264 . S
O257 Mn252 2.095 . S
O257 C266 1.250 . S
O258 Mn253 2.121 . S
O258 C266 1.258 . S
C259 N260 1.326 . S
C259 C263 1.460 . S
C259 H265 0.929 . S
N260 Mn253 2.257 . S
N260 C259 1.326 . S
N260 C264 1.362 . S
C261 C262 1.258 . S
C261 C264 1.431 . S
C261 C281 1.449 . S
C262 C261 1.258 . S
C262 C263 1.477 . S
C262 H282 0.931 . S
C263 C259 1.460 . S
C263 C262 1.477 . S
C263 H283 0.930 . S
C264 N260 1.362 . S
C264 C261 1.431 . S
C264 C274 1.476 . S
H265 C259 0.929 . S
C266 O257 1.250 . S
C266 O258 1.258 . S
O267 Mn252 2.162 . S
O267 C255 1.281 . S
O268 Mn252 2.297 . S
O268 C255 1.236 . S
N269 Mn253 2.282 . S
N269 C270 1.328 . S
N269 C274 1.318 . S
C270 N269 1.328 . S
C270 C271 1.457 . S
C270 H275 0.929 . S
C271 C270 1.457 . S
C271 C272 1.291 . S
C271 H284 0.931 . S
C272 C271 1.291 . S
C272 C273 1.373 . S
C272 H285 0.929 . S
C273 C272 1.373 . S
C273 C274 1.396 . S
C273 C280 1.403 . S
C274 C264 1.476 . S
C274 N269 1.318 . S
C274 C273 1.396 . S
H275 C270 0.929 . S
O276 Mn252 2.385 . S
O276 C254 1.234 . S
O277 Mn252 2.209 . S
O277 Mn253 2.215 . S
O277 C254 1.283 . S
O278 Mn252 2.094 . S
O278 C256 1.240 . S
O279 Mn253 2.117 . S
O279 C256 1.264 . S
C280 C273 1.403 . S
C280 C281 1.399 . S
C280 H286 0.929 . S
C281 C261 1.449 . S
C281 C280 1.399 . S
C281 H287 0.930 . S
H282 C262 0.931 . S
H283 C263 0.930 . S
H284 C271 0.931 . S
H285 C272 0.929 . S
H286 C280 0.929 . S
H287 C281 0.930 . S
H288 C296 0.950 . S
H289 C301 0.950 . S
H290 C298 0.950 . S
H291 C300 0.950 . S
H292 C302 0.950 . S
H293 C304 0.950 . S
H294 C306 0.950 . S
H295 C307 0.950 . S
C296 H288 0.950 . S
C296 C297 1.386 . S
C296 C298 1.391 . S
C297 C296 1.386 . S
C297 C301 1.393 . S
C298 H290 0.950 . S
C298 C296 1.391 . S
C298 C299 1.400 . S
C299 C298 1.400 . S
C299 C300 1.398 . S
C299 C305 1.491 1_554 S
C300 H291 0.950 . S
C300 C299 1.398 . S
C300 C301 1.391 . S
C301 H289 0.950 . S
C301 C297 1.393 . S
C301 C300 1.391 . S
C302 H292 0.950 . S
C302 C303 1.386 . S
C302 C304 1.391 . S
C303 C302 1.386 . S
C303 C307 1.393 . S
C304 H293 0.950 . S
C304 C302 1.391 . S
C304 C305 1.400 . S
C305 C299 1.491 1_556 S
C305 C304 1.400 . S
C305 C306 1.398 . S
C306 H294 0.950 . S
C306 C305 1.398 . S
C306 C307 1.391 . S
C307 H295 0.950 . S
C307 C303 1.393 . S
C307 C306 1.391 . S
H308 C316 0.950 . S
H309 C321 0.950 . S
H310 C318 0.950 . S
H311 C320 0.950 . S
H312 C322 0.950 . S
H313 C324 0.950 . S
H314 C326 0.950 . S
H315 C327 0.950 . S
C316 H308 0.950 . S
C316 C317 1.386 . S
C316 C318 1.391 . S
C317 C316 1.386 . S
C317 C321 1.393 . S
C318 H310 0.950 . S
C318 C316 1.391 . S
C318 C319 1.400 . S
C319 C318 1.400 . S
C319 C320 1.398 . S
C319 C325 1.491 . S
C320 H311 0.950 . S
C320 C319 1.398 . S
C320 C321 1.391 . S
C321 H309 0.950 . S
C321 C317 1.393 . S
C321 C320 1.391 . S
C322 H312 0.950 . S
C322 C323 1.386 . S
C322 C324 1.391 . S
C323 C322 1.386 . S
C323 C327 1.393 . S
C324 H313 0.950 . S
C324 C322 1.391 . S
C324 C325 1.400 . S
C325 C319 1.491 . S
C325 C324 1.400 . S
C325 C326 1.398 . S
C326 H314 0.950 . S
C326 C325 1.398 . S
C326 C327 1.391 . S
C327 H315 0.950 . S
C327 C323 1.393 . S
C327 C326 1.391 . S
H328 C336 0.950 . S
H329 C341 0.950 . S
H330 C338 0.950 . S
H331 C340 0.950 . S
H332 C342 0.950 . S
H333 C344 0.950 . S
H334 C346 0.950 . S
H335 C347 0.950 . S
C336 H328 0.950 . S
C336 C337 1.386 . S
C336 C338 1.391 . S
C337 C336 1.386 . S
C337 C341 1.393 . S
C338 H330 0.950 . S
C338 C336 1.391 . S
C338 C339 1.400 . S
C339 C338 1.400 . S
C339 C340 1.398 . S
C339 C345 1.491 1_554 S
C340 H331 0.950 . S
C340 C339 1.398 . S
C340 C341 1.391 . S
C341 H329 0.950 . S
C341 C337 1.393 . S
C341 C340 1.391 . S
C342 H332 0.950 . S
C342 C343 1.386 . S
C342 C344 1.391 . S
C343 C342 1.386 . S
C343 C347 1.393 . S
C344 H333 0.950 . S
C344 C342 1.391 . S
C344 C345 1.400 . S
C345 C339 1.491 1_556 S
C345 C344 1.400 . S
C345 C346 1.398 . S
C346 H334 0.950 . S
C346 C345 1.398 . S
C346 C347 1.391 . S
C347 H335 0.950 . S
C347 C343 1.393 . S
C347 C346 1.391 . S
H348 C356 0.950 . S
H349 C361 0.950 . S
H350 C358 0.950 . S
H351 C360 0.950 . S
H352 C362 0.950 . S
H353 C364 0.950 . S
H354 C366 0.950 . S
H355 C367 0.950 . S
C356 H348 0.950 . S
C356 C357 1.386 . S
C356 C358 1.391 . S
C357 C356 1.386 . S
C357 C361 1.393 . S
C358 H350 0.950 . S
C358 C356 1.391 . S
C358 C359 1.400 . S
C359 C358 1.400 . S
C359 C360 1.398 . S
C359 C365 1.491 . S
C360 H351 0.950 . S
C360 C359 1.398 . S
C360 C361 1.391 . S
C361 H349 0.950 . S
C361 C357 1.393 . S
C361 C360 1.391 . S
C362 H352 0.950 . S
C362 C363 1.386 . S
C362 C364 1.391 . S
C363 C362 1.386 . S
C363 C367 1.393 . S
C364 H353 0.950 . S
C364 C362 1.391 . S
C364 C365 1.400 . S
C365 C359 1.491 . S
C365 C364 1.400 . S
C365 C366 1.398 . S
C366 H354 0.950 . S
C366 C365 1.398 . S
C366 C367 1.391 . S
C367 H355 0.950 . S
C367 C363 1.393 . S
C367 C366 1.391 . S
H368 C376 0.950 . S
H369 C381 0.950 . S
H370 C378 0.950 . S
H371 C380 0.950 . S
H372 C382 0.950 . S
H373 C384 0.950 . S
H374 C386 0.950 . S
H375 C387 0.950 . S
C376 H368 0.950 . S
C376 C377 1.386 . S
C376 C378 1.391 . S
C377 C376 1.386 . S
C377 C381 1.393 . S
C378 H370 0.950 . S
C378 C376 1.391 . S
C378 C379 1.400 . S
C379 C378 1.400 . S
C379 C380 1.398 . S
C379 C385 1.491 . S
C380 H371 0.950 . S
C380 C379 1.398 . S
C380 C381 1.391 . S
C381 H369 0.950 . S
C381 C377 1.393 . S
C381 C380 1.391 . S
C382 H372 0.950 . S
C382 C383 1.386 . S
C382 C384 1.391 . S
C383 C382 1.386 . S
C383 C387 1.393 . S
C384 H373 0.950 . S
C384 C382 1.391 . S
C384 C385 1.400 . S
C385 C379 1.491 . S
C385 C384 1.400 . S
C385 C386 1.398 . S
C386 H374 0.950 . S
C386 C385 1.398 . S
C386 C387 1.391 . S
C387 H375 0.950 . S
C387 C383 1.393 . S
C387 C386 1.391 . S
H388 C396 0.950 . S
H389 C401 0.950 . S
H390 C398 0.950 . S
H391 C400 0.950 . S
H392 C402 0.950 . S
H393 C404 0.950 . S
H394 C406 0.950 . S
H395 C407 0.950 . S
C396 H388 0.950 . S
C396 C397 1.386 . S
C396 C398 1.391 . S
C397 C396 1.386 . S
C397 C401 1.393 . S
C398 H390 0.950 . S
C398 C396 1.391 . S
C398 C399 1.400 . S
C399 C398 1.400 . S
C399 C400 1.398 . S
C399 C405 1.491 . S
C400 H391 0.950 . S
C400 C399 1.398 . S
C400 C401 1.391 . S
C401 H389 0.950 . S
C401 C397 1.393 . S
C401 C400 1.391 . S
C402 H392 0.950 . S
C402 C403 1.386 . S
C402 C404 1.391 . S
C403 C402 1.386 . S
C403 C407 1.393 . S
C404 H393 0.950 . S
C404 C402 1.391 . S
C404 C405 1.400 . S
C405 C399 1.491 . S
C405 C404 1.400 . S
C405 C406 1.398 . S
C406 H394 0.950 . S
C406 C405 1.398 . S
C406 C407 1.391 . S
C407 H395 0.950 . S
C407 C403 1.393 . S
C407 C406 1.391 . S
H408 C416 0.950 . S
H409 C421 0.950 . S
H410 C418 0.950 . S
H411 C420 0.950 . S
H412 C422 0.950 . S
H413 C424 0.950 . S
H414 C426 0.950 . S
H415 C427 0.950 . S
C416 H408 0.950 . S
C416 C417 1.386 . S
C416 C418 1.391 . S
C417 C416 1.386 . S
C417 C421 1.393 . S
C418 H410 0.950 . S
C418 C416 1.391 . S
C418 C419 1.400 . S
C419 C418 1.400 . S
C419 C420 1.398 . S
C419 C425 1.491 . S
C420 H411 0.950 . S
C420 C419 1.398 . S
C420 C421 1.391 . S
C421 H409 0.950 . S
C421 C417 1.393 . S
C421 C420 1.391 . S
C422 H412 0.950 . S
C422 C423 1.386 . S
C422 C424 1.391 . S
C423 C422 1.386 . S
C423 C427 1.393 . S
C424 H413 0.950 . S
C424 C422 1.391 . S
C424 C425 1.400 . S
C425 C419 1.491 . S
C425 C424 1.400 . S
C425 C426 1.398 . S
C426 H414 0.950 . S
C426 C425 1.398 . S
C426 C427 1.391 . S
C427 H415 0.950 . S
C427 C423 1.393 . S
C427 C426 1.391 . S
H428 C436 0.950 . S
H429 C441 0.950 . S
H430 C438 0.950 . S
H431 C440 0.950 . S
H432 C442 0.950 . S
H433 C444 0.950 . S
H434 C446 0.950 . S
H435 C447 0.950 . S
C436 H428 0.950 . S
C436 C437 1.386 . S
C436 C438 1.391 . S
C437 C436 1.386 . S
C437 C441 1.393 . S
C438 H430 0.950 . S
C438 C436 1.391 . S
C438 C439 1.400 . S
C439 C438 1.400 . S
C439 C440 1.398 . S
C439 C445 1.491 . S
C440 H431 0.950 . S
C440 C439 1.398 . S
C440 C441 1.391 . S
C441 H429 0.950 . S
C441 C437 1.393 . S
C441 C440 1.391 . S
C442 H432 0.950 . S
C442 C443 1.386 . S
C442 C444 1.391 . S
C443 C442 1.386 . S
C443 C447 1.393 . S
C444 H433 0.950 . S
C444 C442 1.391 . S
C444 C445 1.400 . S
C445 C439 1.491 . S
C445 C444 1.400 . S
C445 C446 1.398 . S
C446 H434 0.950 . S
C446 C445 1.398 . S
C446 C447 1.391 . S
C447 H435 0.950 . S
C447 C443 1.393 . S
C447 C446 1.391 . S
H448 C456 0.950 . S
H449 C461 0.950 . S
H450 C458 0.950 . S
H451 C460 0.950 . S
H452 C462 0.950 . S
H453 C464 0.950 . S
H454 C466 0.950 . S
H455 C467 0.950 1_455 S
C456 H448 0.950 . S
C456 C457 1.386 . S
C456 C458 1.391 . S
C457 C456 1.386 . S
C457 C461 1.393 . S
C458 H450 0.950 . S
C458 C456 1.391 . S
C458 C459 1.400 . S
C459 C458 1.400 . S
C459 C460 1.398 . S
C459 C465 1.491 . S
C460 H451 0.950 . S
C460 C459 1.398 . S
C460 C461 1.391 . S
C461 H449 0.950 . S
C461 C457 1.393 . S
C461 C460 1.391 . S
C462 H452 0.950 . S
C462 C463 1.386 . S
C462 C464 1.391 . S
C463 C462 1.386 . S
C463 C467 1.393 . S
C464 H453 0.950 . S
C464 C462 1.391 . S
C464 C465 1.400 . S
C465 C459 1.491 . S
C465 C464 1.400 . S
C465 C466 1.398 . S
C466 H454 0.950 . S
C466 C465 1.398 . S
C466 C467 1.391 . S
C467 H455 0.950 1_655 S
C467 C463 1.393 . S
C467 C466 1.391 . S
H468 C476 0.950 . S
H469 C481 0.950 . S
H470 C478 0.950 . S
H471 C480 0.950 . S
H472 C482 0.950 . S
H473 C484 0.950 . S
H474 C486 0.950 . S
H475 C487 0.950 . S
C476 H468 0.950 . S
C476 C477 1.386 . S
C476 C478 1.391 . S
C477 C476 1.386 . S
C477 C481 1.393 . S
C478 H470 0.950 . S
C478 C476 1.391 . S
C478 C479 1.400 . S
C479 C478 1.400 . S
C479 C480 1.398 . S
C479 C485 1.491 . S
C480 H471 0.950 . S
C480 C479 1.398 . S
C480 C481 1.391 . S
C481 H469 0.950 . S
C481 C477 1.393 . S
C481 C480 1.391 . S
C482 H472 0.950 . S
C482 C483 1.386 . S
C482 C484 1.391 . S
C483 C482 1.386 . S
C483 C487 1.393 . S
C484 H473 0.950 . S
C484 C482 1.391 . S
C484 C485 1.400 . S
C485 C479 1.491 . S
C485 C484 1.400 . S
C485 C486 1.398 . S
C486 H474 0.950 . S
C486 C485 1.398 . S
C486 C487 1.391 . S
C487 H475 0.950 . S
C487 C483 1.393 . S
C487 C486 1.391 . S
H488 C496 0.950 . S
H489 C501 0.950 . S
H490 C498 0.950 . S
H491 C500 0.950 . S
H492 C502 0.950 . S
H493 C504 0.950 . S
H494 C506 0.950 . S
H495 C507 0.950 . S
C496 H488 0.950 . S
C496 C497 1.386 . S
C496 C498 1.391 . S
C497 C496 1.386 . S
C497 C501 1.393 . S
C498 H490 0.950 . S
C498 C496 1.391 . S
C498 C499 1.400 . S
C499 C498 1.400 . S
C499 C500 1.398 . S
C499 C505 1.491 . S
C500 H491 0.950 . S
C500 C499 1.398 . S
C500 C501 1.391 . S
C501 H489 0.950 . S
C501 C497 1.393 . S
C501 C500 1.391 . S
C502 H492 0.950 . S
C502 C503 1.386 . S
C502 C504 1.391 . S
C503 C502 1.386 . S
C503 C507 1.393 . S
C504 H493 0.950 . S
C504 C502 1.391 . S
C504 C505 1.400 . S
C505 C499 1.491 . S
C505 C504 1.400 . S
C505 C506 1.398 . S
C506 H494 0.950 . S
C506 C505 1.398 . S
C506 C507 1.391 . S
C507 H495 0.950 . S
C507 C503 1.393 . S
C507 C506 1.391 . S
H508 C516 0.950 . S
H509 C521 0.950 . S
H510 C518 0.950 . S
H511 C520 0.950 . S
H512 C522 0.950 . S
H513 C524 0.950 . S
H514 C526 0.950 . S
H515 C527 0.950 . S
C516 H508 0.950 . S
C516 C517 1.386 . S
C516 C518 1.391 . S
C517 C516 1.386 . S
C517 C521 1.393 . S
C518 H510 0.950 . S
C518 C516 1.391 . S
C518 C519 1.400 . S
C519 C518 1.400 . S
C519 C520 1.398 . S
C519 C525 1.491 . S
C520 H511 0.950 . S
C520 C519 1.398 . S
C520 C521 1.391 . S
C521 H509 0.950 . S
C521 C517 1.393 . S
C521 C520 1.391 . S
C522 H512 0.950 . S
C522 C523 1.386 . S
C522 C524 1.391 . S
C523 C522 1.386 . S
C523 C527 1.393 . S
C524 H513 0.950 . S
C524 C522 1.391 . S
C524 C525 1.400 . S
C525 C519 1.491 . S
C525 C524 1.400 . S
C525 C526 1.398 . S
C526 H514 0.950 . S
C526 C525 1.398 . S
C526 C527 1.391 . S
C527 H515 0.950 . S
C527 C523 1.393 . S
C527 C526 1.391 . S
H528 C536 0.950 . S
H529 C541 0.950 . S
H530 C538 0.950 . S
H531 C540 0.950 1_455 S
H532 C542 0.950 . S
H533 C544 0.950 . S
H534 C546 0.950 1_655 S
H535 C547 0.950 . S
C536 H528 0.950 . S
C536 C537 1.386 . S
C536 C538 1.391 . S
C537 C536 1.386 . S
C537 C541 1.393 . S
C538 H530 0.950 . S
C538 C536 1.391 . S
C538 C539 1.400 . S
C539 C538 1.400 . S
C539 C540 1.398 . S
C539 C545 1.491 1_655 S
C540 H531 0.950 1_655 S
C540 C539 1.398 . S
C540 C541 1.391 . S
C541 H529 0.950 . S
C541 C537 1.393 . S
C541 C540 1.391 . S
C542 H532 0.950 . S
C542 C543 1.386 . S
C542 C544 1.391 . S
C543 C542 1.386 . S
C543 C547 1.393 . S
C544 H533 0.950 . S
C544 C542 1.391 . S
C544 C545 1.400 . S
C545 C539 1.491 1_455 S
C545 C544 1.400 . S
C545 C546 1.398 . S
C546 H534 0.950 1_455 S
C546 C545 1.398 . S
C546 C547 1.391 . S
C547 H535 0.950 . S
C547 C543 1.393 . S
C547 C546 1.391 . S
H548 C556 0.950 . S
H549 C561 0.950 . S
H550 C558 0.950 . S
H551 C560 0.950 . S
H552 C562 0.950 . S
H553 C564 0.950 . S
H554 C566 0.950 . S
H555 C567 0.950 . S
C556 H548 0.950 . S
C556 C557 1.386 . S
C556 C558 1.391 . S
C557 C556 1.386 . S
C557 C561 1.393 . S
C558 H550 0.950 . S
C558 C556 1.391 . S
C558 C559 1.400 . S
C559 C558 1.400 . S
C559 C560 1.398 . S
C559 C565 1.491 1_655 S
C560 H551 0.950 . S
C560 C559 1.398 . S
C560 C561 1.391 . S
C561 H549 0.950 . S
C561 C557 1.393 . S
C561 C560 1.391 . S
C562 H552 0.950 . S
C562 C563 1.386 . S
C562 C564 1.391 . S
C563 C562 1.386 . S
C563 C567 1.393 . S
C564 H553 0.950 . S
C564 C562 1.391 . S
C564 C565 1.400 . S
C565 C559 1.491 1_455 S
C565 C564 1.400 . S
C565 C566 1.398 . S
C566 H554 0.950 . S
C566 C565 1.398 . S
C566 C567 1.391 . S
C567 H555 0.950 . S
C567 C563 1.393 . S
C567 C566 1.391 . S
H568 C576 0.950 . S
H569 C581 0.950 . S
H570 C578 0.950 . S
H571 C580 0.950 1_565 S
H572 C582 0.950 . S
H573 C584 0.950 . S
H574 C586 0.950 1_545 S
H575 C587 0.950 . S
C576 H568 0.950 . S
C576 C577 1.386 . S
C576 C578 1.391 . S
C577 C576 1.386 . S
C577 C581 1.393 . S
C578 H570 0.950 . S
C578 C576 1.391 . S
C578 C579 1.400 . S
C579 C578 1.400 . S
C579 C580 1.398 . S
C579 C585 1.491 1_545 S
C580 H571 0.950 1_545 S
C580 C579 1.398 . S
C580 C581 1.391 . S
C581 H569 0.950 . S
C581 C577 1.393 . S
C581 C580 1.391 . S
C582 H572 0.950 . S
C582 C583 1.386 . S
C582 C584 1.391 . S
C583 C582 1.386 . S
C583 C587 1.393 . S
C584 H573 0.950 . S
C584 C582 1.391 . S
C584 C585 1.400 . S
C585 C579 1.491 1_565 S
C585 C584 1.400 . S
C585 C586 1.398 . S
C586 H574 0.950 1_565 S
C586 C585 1.398 . S
C586 C587 1.391 . S
C587 H575 0.950 . S
C587 C583 1.393 . S
C587 C586 1.391 . S
H588 C596 0.950 . S
H589 C601 0.950 . S
H590 C598 0.950 1_565 S
H591 C600 0.950 . S
H592 C602 0.950 . S
H593 C604 0.950 1_545 S
H594 C606 0.950 . S
H595 C607 0.950 . S
C596 H588 0.950 . S
C596 C597 1.386 . S
C596 C598 1.391 . S
C597 C596 1.386 . S
C597 C601 1.393 . S
C598 H590 0.950 1_545 S
C598 C596 1.391 . S
C598 C599 1.400 . S
C599 C598 1.400 . S
C599 C600 1.398 . S
C599 C605 1.491 1_545 S
C600 H591 0.950 . S
C600 C599 1.398 . S
C600 C601 1.391 . S
C601 H589 0.950 . S
C601 C597 1.393 . S
C601 C600 1.391 . S
C602 H592 0.950 . S
C602 C603 1.386 . S
C602 C604 1.391 . S
C603 C602 1.386 . S
C603 C607 1.393 . S
C604 H593 0.950 1_565 S
C604 C602 1.391 . S
C604 C605 1.400 . S
C605 C599 1.491 1_565 S
C605 C604 1.400 . S
C605 C606 1.398 . S
C606 H594 0.950 . S
C606 C605 1.398 . S
C606 C607 1.391 . S
C607 H595 0.950 . S
C607 C603 1.393 . S
C607 C606 1.391 . S
C297 C4 1.358 . S
C303 C184 1.357 . S
C317 C40 1.360 . S
C323 C220 1.349 . S
C337 C76 1.358 . S
C343 C256 1.356 . S
C357 C148 1.349 . S
C363 C112 1.360 . S
C377 C14 1.589 . S
C383 C147 1.646 . S
C397 C50 1.585 . S
C403 C183 1.642 1_565 S
C417 C219 1.646 . S
C423 C86 1.588 . S
C437 C122 1.583 . S
C443 C255 1.640 1_545 S
C457 C158 1.574 . S
C463 C3 1.636 1_655 S
C477 C39 1.646 . S
C483 C194 1.588 . S
C497 C230 1.588 . S
C503 C75 1.644 1_455 S
C517 C111 1.640 . S
C523 C266 1.584 . S
C537 C74 0.483 . S
C543 C2 0.478 . S
C557 C110 0.481 . S
C563 C38 0.486 . S
C577 C146 0.492 . S
C583 C218 0.500 . S
C597 C182 0.527 . S
C603 C254 0.531 . S
