# Generated by pormake.
# Topology uop, (4)-cn, num edge types: 1
# Building blocks:
#     Node 0, Type 0, BuildingBlock: QUQFOY_clean_sbu_3, # of connection points: 4
#     Node 1, Type 0, BuildingBlock: QUQFOY_clean_sbu_3, # of connection points: 4
#     Node 2, Type 0, BuildingBlock: QUQFOY_clean_sbu_3, # of connection points: 4
#     Node 3, Type 0, BuildingBlock: QUQFOY_clean_sbu_3, # of connection points: 4
#     Node 4, Type 0, BuildingBlock: QUQFOY_clean_sbu_3, # of connection points: 4
#     Node 5, Type 0, BuildingBlock: QUQFOY_clean_sbu_3, # of connection points: 4
#     Node 6, Type 0, BuildingBlock: QUQFOY_clean_sbu_3, # of connection points: 4
#     Node 7, Type 0, BuildingBlock: QUQFOY_clean_sbu_3, # of connection points: 4
#     Node 8, Type 0, BuildingBlock: QUQFOY_clean_sbu_3, # of connection points: 4
#     Node 9, Type 0, BuildingBlock: QUQFOY_clean_sbu_3, # of connection points: 4
#     Node 10, Type 0, BuildingBlock: QUQFOY_clean_sbu_3, # of connection points: 4
#     Node 11, Type 0, BuildingBlock: QUQFOY_clean_sbu_3, # of connection points: 4
#     Edge 12, Type (0, 0), BuildingBlock: XUDNAN_clean_linker_2, # of connection points: 2
#     Edge 13, Type (0, 0), BuildingBlock: XUDNAN_clean_linker_2, # of connection points: 2
#     Edge 14, Type (0, 0), BuildingBlock: XUDNAN_clean_linker_2, # of connection points: 2
#     Edge 15, Type (0, 0), BuildingBlock: XUDNAN_clean_linker_2, # of connection points: 2
#     Edge 16, Type (0, 0), BuildingBlock: XUDNAN_clean_linker_2, # of connection points: 2
#     Edge 17, Type (0, 0), BuildingBlock: XUDNAN_clean_linker_2, # of connection points: 2
#     Edge 18, Type (0, 0), BuildingBlock: XUDNAN_clean_linker_2, # of connection points: 2
#     Edge 19, Type (0, 0), BuildingBlock: XUDNAN_clean_linker_2, # of connection points: 2
#     Edge 20, Type (0, 0), BuildingBlock: XUDNAN_clean_linker_2, # of connection points: 2
#     Edge 21, Type (0, 0), BuildingBlock: XUDNAN_clean_linker_2, # of connection points: 2
#     Edge 22, Type (0, 0), BuildingBlock: XUDNAN_clean_linker_2, # of connection points: 2
#     Edge 23, Type (0, 0), BuildingBlock: XUDNAN_clean_linker_2, # of connection points: 2
#     Edge 24, Type (0, 0), BuildingBlock: XUDNAN_clean_linker_2, # of connection points: 2
#     Edge 25, Type (0, 0), BuildingBlock: XUDNAN_clean_linker_2, # of connection points: 2
#     Edge 26, Type (0, 0), BuildingBlock: XUDNAN_clean_linker_2, # of connection points: 2
#     Edge 27, Type (0, 0), BuildingBlock: XUDNAN_clean_linker_2, # of connection points: 2
#     Edge 28, Type (0, 0), BuildingBlock: XUDNAN_clean_linker_2, # of connection points: 2
#     Edge 29, Type (0, 0), BuildingBlock: XUDNAN_clean_linker_2, # of connection points: 2
#     Edge 30, Type (0, 0), BuildingBlock: XUDNAN_clean_linker_2, # of connection points: 2
#     Edge 31, Type (0, 0), BuildingBlock: XUDNAN_clean_linker_2, # of connection points: 2
#     Edge 32, Type (0, 0), BuildingBlock: XUDNAN_clean_linker_2, # of connection points: 2
#     Edge 33, Type (0, 0), BuildingBlock: XUDNAN_clean_linker_2, # of connection points: 2
#     Edge 34, Type (0, 0), BuildingBlock: XUDNAN_clean_linker_2, # of connection points: 2
#     Edge 35, Type (0, 0), BuildingBlock: XUDNAN_clean_linker_2, # of connection points: 2
# Relax obj value: 0.157
# Max RMSD: 0.166
# Mean RMSD: 0.161
data_MOF--net-uop--node1-QUQFOY_clean_sbu_3--edge1-XUDNAN_clean_linker_2
_symmetry_space_group_name_H-M    P1
_symmetry_Int_Tables_number       1
_symmetry_cell_setting            triclinic
loop_
_symmetry_equiv_pos_as_xyz
'x, y, z'
_cell_length_a     33.246249
_cell_length_b     33.930742
_cell_length_c     48.481996
_cell_angle_alpha  90.258337
_cell_angle_beta   89.916061
_cell_angle_gamma 119.6937
loop_
_atom_site_label
_atom_site_type_symbol
_atom_site_fract_x
_atom_site_fract_y
_atom_site_fract_z
_atom_type_partial_charge
C0 C 0.11311 0.29784 0.15366 0.0
O1 O 0.12651 0.31679 0.13037 0.0
Cd2 Cd 0.19751 0.3875 0.12738 0.0
O3 O 0.13659 0.31669 0.17526 0.0
Cd4 Cd 0.20842 0.38482 0.18963 0.0
C5 C 0.17539 0.45801 0.16753 0.0
O6 O 0.25626 0.38066 0.15251 0.0
O7 O 0.28425 0.44407 0.17502 0.0
O8 O 0.20311 0.32835 0.22248 0.0
C9 C 0.29052 0.41923 0.15802 0.0
O10 O 0.18476 0.44893 0.14366 0.0
C11 C 0.22532 0.35572 0.24183 0.0
O12 O 0.1766 0.43629 0.18861 0.0
O13 O 0.23941 0.39743 0.2375 0.0
C14 C 0.84324 0.26143 0.60063 0.0
O15 O 0.81938 0.28127 0.60099 0.0
Cd16 Cd 0.7701 0.27483 0.56194 0.0
O17 O 0.84149 0.2376 0.5799 0.0
Cd18 Cd 0.80421 0.21428 0.53449 0.0
C19 C 0.85397 0.32215 0.5128 0.0
O20 O 0.72412 0.20023 0.5425 0.0
O21 O 0.74809 0.20466 0.50044 0.0
O22 O 0.79467 0.14221 0.5492 0.0
C23 C 0.71516 0.19678 0.51675 0.0
O24 O 0.82152 0.32296 0.52628 0.0
C25 C 0.80748 0.1325 0.52677 0.0
O26 O 0.86072 0.2883 0.51425 0.0
O27 O 0.82062 0.16181 0.5076 0.0
C28 C 0.67227 0.84704 0.82158 0.0
O29 O 0.66162 0.84823 0.79662 0.0
Cd30 Cd 0.59103 0.84712 0.78543 0.0
O31 O 0.64691 0.84794 0.84097 0.0
Cd32 Cd 0.57756 0.85552 0.84759 0.0
C33 C 0.50942 0.75213 0.82021 0.0
O34 O 0.58432 0.90545 0.80938 0.0
O35 O 0.51677 0.86621 0.82821 0.0
O36 O 0.62147 0.9227 0.87514 0.0
C37 C 0.54328 0.8983 0.81233 0.0
O38 O 0.52868 0.77226 0.79787 0.0
C39 C 0.59978 0.90798 0.89761 0.0
O40 O 0.52133 0.77332 0.84323 0.0
O41 O 0.56706 0.86692 0.89771 0.0
C42 C 0.78925 0.63737 0.14721 0.0
O43 O 0.76972 0.61491 0.12555 0.0
Cd44 Cd 0.69985 0.54392 0.12791 0.0
O45 O 0.77135 0.62279 0.17084 0.0
Cd46 Cd 0.70161 0.55975 0.1922 0.0
C47 C 0.73042 0.48229 0.17127 0.0
O48 O 0.64996 0.55889 0.15624 0.0
O49 O 0.62102 0.50227 0.18425 0.0
O50 O 0.71363 0.62215 0.22285 0.0
C51 C 0.61466 0.52358 0.16493 0.0
O52 O 0.7187 0.48848 0.14736 0.0
C53 C 0.69469 0.59778 0.24384 0.0
O54 O 0.73052 0.506 0.19176 0.0
O55 O 0.68014 0.55557 0.24134 0.0
C56 C 0.0738 0.6997 0.59945 0.0
O57 O 0.10656 0.69173 0.60445 0.0
Cd58 Cd 0.1557 0.69256 0.56705 0.0
O59 O 0.0714 0.71539 0.57612 0.0
Cd60 Cd 0.11758 0.74318 0.53339 0.0
C61 C 0.07291 0.63311 0.51764 0.0
O62 O 0.19892 0.76264 0.54276 0.0
O63 O 0.17332 0.74785 0.50066 0.0
O64 O 0.13071 0.81909 0.54172 0.0
C65 C 0.20715 0.76114 0.51718 0.0
O66 O 0.10319 0.63535 0.53463 0.0
C67 C 0.113 0.8224 0.51928 0.0
O68 O 0.06751 0.66737 0.51367 0.0
O69 O 0.09483 0.78752 0.50369 0.0
C70 C 0.27497 0.12608 0.83387 0.0
O71 O 0.29251 0.12945 0.81013 0.0
Cd72 Cd 0.36595 0.1333 0.80353 0.0
O73 O 0.29548 0.12307 0.85521 0.0
Cd74 Cd 0.36642 0.12137 0.86703 0.0
C75 C 0.4335 0.22768 0.84247 0.0
O76 O 0.37105 0.07571 0.82943 0.0
O77 O 0.43471 0.11944 0.85137 0.0
O78 O 0.32781 0.05896 0.90034 0.0
C79 C 0.41317 0.0878 0.83399 0.0
O80 O 0.42457 0.20953 0.81857 0.0
C81 C 0.35024 0.08222 0.92117 0.0
O82 O 0.41405 0.204 0.86381 0.0
O83 O 0.38012 0.12347 0.91682 0.0
C84 C 0.56822 0.69073 0.39755 0.0
O85 O 0.5245 0.67075 0.39496 0.0
Cd86 Cd 0.47361 0.67602 0.42837 0.0
O87 O 0.58785 0.71545 0.41861 0.0
Cd88 Cd 0.56434 0.73811 0.46195 0.0
C89 C 0.50064 0.62868 0.48223 0.0
O90 O 0.504 0.75251 0.44422 0.0
O91 O 0.50683 0.74725 0.48845 0.0
O92 O 0.62951 0.81401 0.45551 0.0
C93 C 0.48952 0.75626 0.46779 0.0
O94 O 0.47034 0.6266 0.46536 0.0
C95 C 0.64676 0.81774 0.47935 0.0
O96 O 0.54026 0.66439 0.48398 0.0
O97 O 0.62658 0.78344 0.49505 0.0
C98 C 0.82581 0.67762 0.84835 0.0
O99 O 0.83074 0.66285 0.87134 0.0
Cd100 Cd 0.82079 0.58842 0.8749 0.0
O101 O 0.81971 0.65457 0.8264 0.0
Cd102 Cd 0.81833 0.58443 0.81095 0.0
C103 C 0.71601 0.5207 0.84178 0.0
O104 O 0.87038 0.57812 0.84362 0.0
O105 O 0.81971 0.51607 0.82335 0.0
O106 O 0.88311 0.62169 0.77943 0.0
C107 C 0.85551 0.53648 0.83837 0.0
O108 O 0.74001 0.53477 0.8638 0.0
C109 C 0.8603 0.60615 0.75731 0.0
O110 O 0.73478 0.53445 0.8182 0.0
O111 O 0.81678 0.58027 0.75971 0.0
C112 C 0.1112 0.84053 0.16617 0.0
O113 O 0.12365 0.84478 0.19122 0.0
Cd114 Cd 0.19213 0.84261 0.2035 0.0
O115 O 0.1374 0.83994 0.14724 0.0
Cd116 Cd 0.21519 0.84973 0.14122 0.0
C117 C 0.17551 0.74639 0.16823 0.0
O118 O 0.25947 0.89822 0.18008 0.0
O119 O 0.28423 0.85607 0.16133 0.0
O120 O 0.24007 0.91797 0.11519 0.0
C121 C 0.2915 0.88829 0.17764 0.0
O122 O 0.17668 0.76707 0.19047 0.0
C123 C 0.2485 0.90459 0.09261 0.0
O124 O 0.18628 0.7673 0.1452 0.0
O125 O 0.23989 0.8636 0.09161 0.0
C126 C 0.3581 0.27144 0.39604 0.0
O127 O 0.40181 0.29093 0.39358 0.0
Cd128 Cd 0.44999 0.28197 0.42754 0.0
O129 O 0.33819 0.24598 0.41664 0.0
Cd130 Cd 0.35782 0.21847 0.45906 0.0
C131 C 0.42075 0.32489 0.48329 0.0
O132 O 0.41881 0.20457 0.44112 0.0
O133 O 0.41371 0.20716 0.48541 0.0
O134 O 0.2899 0.14755 0.44625 0.0
C135 C 0.43222 0.19956 0.46471 0.0
O136 O 0.45193 0.32708 0.46707 0.0
C137 C 0.27318 0.13675 0.47035 0.0
O138 O 0.37991 0.29072 0.48301 0.0
O139 O 0.29501 0.16493 0.48959 0.0
C140 C 0.12905 0.30583 0.84668 0.0
O141 O 0.13009 0.32599 0.86898 0.0
Cd142 Cd 0.12697 0.39462 0.86901 0.0
O143 O 0.12444 0.32096 0.8236 0.0
Cd144 Cd 0.11095 0.3823 0.80654 0.0
C145 C 0.21708 0.46335 0.82604 0.0
O146 O 0.05883 0.37829 0.84347 0.0
O147 O 0.08974 0.43921 0.81894 0.0
O148 O 0.05737 0.32168 0.77591 0.0
C149 C 0.05958 0.41454 0.8365 0.0
O150 O 0.19983 0.45588 0.85021 0.0
C151 C 0.06156 0.34681 0.7556 0.0
O152 O 0.19342 0.43888 0.80573 0.0
O153 O 0.09035 0.38884 0.75826 0.0
C154 C 0.78974 0.09542 0.1649 0.0
O155 O 0.76957 0.08554 0.18813 0.0
Cd156 Cd 0.7016 0.09114 0.1962 0.0
O157 O 0.77091 0.10292 0.14426 0.0
Cd158 Cd 0.69779 0.10045 0.1319 0.0
C159 C 0.73427 0.19676 0.16823 0.0
O160 O 0.64122 0.0466 0.16435 0.0
O161 O 0.62787 0.09812 0.14751 0.0
O162 O 0.6757 0.04372 0.09518 0.0
C163 C 0.614 0.06255 0.16183 0.0
O164 O 0.72501 0.17115 0.18921 0.0
C165 C 0.67883 0.0699 0.07567 0.0
O166 O 0.72995 0.1808 0.14384 0.0
O167 O 0.69129 0.11072 0.08219 0.0
H168 H 0.19295 0.69514 0.13063 0.0
H169 H 0.13153 0.68885 0.21076 0.0
H170 H 0.11917 0.61187 0.21752 0.0
H171 H 0.11757 0.57298 0.1126 0.0
H172 H 0.16438 0.56942 0.09622 0.0
H173 H 0.16366 0.62219 0.09609 0.0
H174 H 0.24527 0.66277 0.11831 0.0
H175 H 0.24611 0.61017 0.11869 0.0
H176 H 0.25481 0.64166 0.15027 0.0
H177 H 0.12134 0.53971 0.21829 0.0
H178 H 0.13489 0.47499 0.21179 0.0
H179 H 0.19332 0.5263 0.13095 0.0
C180 C 0.17585 0.67709 0.14926 0.0
C181 C 0.1632 0.6981 0.17013 0.0
C182 C 0.14169 0.67361 0.19448 0.0
C183 C 0.13434 0.62973 0.19851 0.0
C184 C 0.1484 0.61047 0.17797 0.0
C185 C 0.16829 0.63305 0.15369 0.0
C186 C 0.18284 0.60554 0.13576 0.0
C187 C 0.15547 0.59171 0.10855 0.0
C188 C 0.23537 0.63159 0.13046 0.0
C189 C 0.16914 0.56473 0.15411 0.0
C190 C 0.1491 0.56818 0.17829 0.0
C191 C 0.1363 0.53617 0.19924 0.0
C192 C 0.14431 0.49964 0.19543 0.0
C193 C 0.1648 0.49534 0.17081 0.0
C194 C 0.17687 0.52819 0.14982 0.0
H195 H 0.64471 0.20261 0.54333 0.0
H196 H 0.68406 0.17096 0.4644 0.0
H197 H 0.61292 0.16268 0.4434 0.0
H198 H 0.51803 0.12597 0.53549 0.0
H199 H 0.50425 0.16562 0.55186 0.0
H200 H 0.55594 0.16441 0.56158 0.0
H201 H 0.60523 0.25011 0.55061 0.0
H202 H 0.55381 0.25152 0.54073 0.0
H203 H 0.6014 0.27018 0.51688 0.0
H204 H 0.54192 0.16479 0.4297 0.0
H205 H 0.47397 0.1754 0.42462 0.0
H206 H 0.47951 0.20502 0.5122 0.0
C207 C 0.63775 0.19294 0.5218 0.0
C208 C 0.66985 0.18729 0.50553 0.0
C209 C 0.65999 0.17549 0.47728 0.0
C210 C 0.61959 0.17057 0.46514 0.0
C211 C 0.58918 0.17741 0.48151 0.0
C212 C 0.59749 0.18804 0.50925 0.0
C213 C 0.56042 0.1963 0.52167 0.0
C214 C 0.53303 0.16095 0.54397 0.0
C215 C 0.58149 0.24491 0.53314 0.0
C216 C 0.53074 0.18963 0.49644 0.0
C217 C 0.54782 0.17846 0.47354 0.0
C218 C 0.52779 0.17293 0.44754 0.0
C219 C 0.48932 0.17916 0.44484 0.0
C220 C 0.47131 0.19078 0.468 0.0
C221 C 0.49214 0.19561 0.49415 0.0
H222 H 0.44187 0.70232 0.85884 0.0
H223 H 0.49108 0.69382 0.77721 0.0
H224 H 0.4244 0.61719 0.77124 0.0
H225 H 0.39402 0.58089 0.87671 0.0
H226 H 0.3449 0.57793 0.89443 0.0
H227 H 0.39906 0.63058 0.89361 0.0
H228 H 0.35724 0.67089 0.87291 0.0
H229 H 0.30309 0.61839 0.87349 0.0
H230 H 0.32406 0.64907 0.84163 0.0
H231 H 0.34927 0.54495 0.77191 0.0
H232 H 0.27128 0.47991 0.78018 0.0
H233 H 0.27025 0.53365 0.8615 0.0
C234 C 0.43912 0.68391 0.83999 0.0
C235 C 0.47182 0.70418 0.81852 0.0
C236 C 0.4665 0.67918 0.79395 0.0
C237 C 0.42876 0.6355 0.79035 0.0
C238 C 0.39654 0.61695 0.81154 0.0
C239 C 0.4014 0.64007 0.83599 0.0
C240 C 0.36028 0.61309 0.85479 0.0
C241 C 0.37549 0.59983 0.88147 0.0
C242 C 0.33467 0.63944 0.86106 0.0
C243 C 0.33128 0.57186 0.8368 0.0
C244 C 0.35301 0.57472 0.812 0.0
C245 C 0.33211 0.54196 0.7914 0.0
C246 C 0.28771 0.50522 0.79625 0.0
C247 C 0.26468 0.50146 0.82152 0.0
C248 C 0.28712 0.53518 0.84209 0.0
H249 H 0.72686 0.42113 0.13281 0.0
H250 H 0.75898 0.45984 0.2189 0.0
H251 H 0.77212 0.39509 0.22613 0.0
H252 H 0.66295 0.30489 0.14361 0.0
H253 H 0.68286 0.28916 0.11311 0.0
H254 H 0.68159 0.34152 0.11392 0.0
H255 H 0.76887 0.38594 0.10158 0.0
H256 H 0.7704 0.33358 0.10073 0.0
H257 H 0.80983 0.37954 0.1227 0.0
H258 H 0.77392 0.32207 0.22509 0.0
H259 H 0.76347 0.24596 0.21608 0.0
H260 H 0.73076 0.25518 0.13053 0.0
C261 C 0.73752 0.41661 0.15309 0.0
C262 C 0.74203 0.44576 0.17528 0.0
C263 C 0.75542 0.43812 0.20156 0.0
C264 C 0.76312 0.4015 0.20584 0.0
C265 C 0.75759 0.37302 0.18362 0.0
C266 C 0.74529 0.38028 0.15772 0.0
C267 C 0.73829 0.34288 0.13779 0.0
C268 C 0.68847 0.31816 0.12646 0.0
C269 C 0.77399 0.36162 0.11431 0.0
C270 C 0.74719 0.31266 0.15671 0.0
C271 C 0.75879 0.33092 0.18298 0.0
C272 C 0.76552 0.30776 0.20451 0.0
C273 C 0.7594 0.26448 0.19918 0.0
C274 C 0.74656 0.24468 0.17255 0.0
C275 C 0.74138 0.26966 0.15097 0.0
H276 H 0.44232 0.75266 0.5151 0.0
H277 H 0.44914 0.78091 0.42744 0.0
H278 H 0.38205 0.79293 0.43199 0.0
H279 H 0.32137 0.68928 0.5193 0.0
H280 H 0.31716 0.71002 0.55286 0.0
H281 H 0.36868 0.7084 0.54343 0.0
H282 H 0.41842 0.79427 0.55425 0.0
H283 H 0.36695 0.79617 0.56371 0.0
H284 H 0.4051 0.83384 0.5376 0.0
H285 H 0.31099 0.79521 0.4449 0.0
H286 H 0.23909 0.78654 0.46516 0.0
H287 H 0.27765 0.75739 0.54479 0.0
C288 C 0.43017 0.76211 0.49694 0.0
C289 C 0.45105 0.76602 0.4709 0.0
C290 C 0.43374 0.77781 0.44758 0.0
C291 C 0.39578 0.78488 0.44999 0.0
C292 C 0.37565 0.78021 0.47587 0.0
C293 C 0.3922 0.76918 0.49897 0.0
C294 C 0.36224 0.76326 0.52398 0.0
C295 C 0.34111 0.71486 0.53556 0.0
C296 C 0.38983 0.79903 0.5462 0.0
C297 C 0.32555 0.77153 0.51115 0.0
C298 C 0.33434 0.7817 0.48343 0.0
C299 C 0.30404 0.78789 0.46665 0.0
C300 C 0.26324 0.78276 0.47834 0.0
C301 C 0.25302 0.7716 0.50657 0.0
C302 C 0.28506 0.76679 0.5233 0.0
H303 H 0.497 0.28356 0.80424 0.0
H304 H 0.44959 0.28157 0.88799 0.0
H305 H 0.51137 0.36096 0.89441 0.0
H306 H 0.61438 0.34304 0.81928 0.0
H307 H 0.63185 0.37552 0.78787 0.0
H308 H 0.58007 0.32098 0.78841 0.0
H309 H 0.53254 0.3574 0.77065 0.0
H310 H 0.58431 0.41221 0.77009 0.0
H311 H 0.53441 0.40439 0.78928 0.0
H312 H 0.58249 0.43675 0.89365 0.0
H313 H 0.65985 0.50304 0.88639 0.0
H314 H 0.66199 0.45666 0.80312 0.0
C315 C 0.49892 0.30014 0.82373 0.0
C316 C 0.46823 0.27639 0.84557 0.0
C317 C 0.4726 0.29904 0.87094 0.0
C318 C 0.50744 0.34424 0.87473 0.0
C319 C 0.53758 0.3664 0.85295 0.0
C320 C 0.5337 0.34518 0.82792 0.0
C321 C 0.57316 0.3752 0.80878 0.0
C322 C 0.60153 0.35232 0.80062 0.0
C323 C 0.55501 0.38806 0.78318 0.0
C324 C 0.60067 0.41602 0.8273 0.0
C325 C 0.57908 0.41045 0.85253 0.0
C326 C 0.59938 0.44184 0.87384 0.0
C327 C 0.64339 0.47935 0.86953 0.0
C328 C 0.66679 0.48519 0.84412 0.0
C329 C 0.64453 0.45363 0.82253 0.0
H330 H 0.53513 0.44456 0.17573 0.0
H331 H 0.58942 0.56984 0.12946 0.0
H332 H 0.51006 0.54939 0.11554 0.0
H333 H 0.43544 0.37348 0.12786 0.0
H334 H 0.39833 0.34329 0.15646 0.0
H335 H 0.4597 0.36382 0.15861 0.0
H336 H 0.46391 0.40731 0.2036 0.0
H337 H 0.40284 0.38709 0.20157 0.0
H338 H 0.44293 0.44718 0.20348 0.0
H339 H 0.42609 0.52387 0.11508 0.0
H340 H 0.34281 0.49199 0.12572 0.0
H341 H 0.34246 0.38062 0.16906 0.0
C342 C 0.53039 0.46707 0.16204 0.0
C343 C 0.56823 0.50874 0.15367 0.0
C344 C 0.56079 0.53762 0.13601 0.0
C345 C 0.51589 0.52622 0.12791 0.0
C346 C 0.4791 0.48547 0.13722 0.0
C347 C 0.4859 0.45596 0.15355 0.0
C348 C 0.44042 0.41655 0.16304 0.0
C349 C 0.43304 0.37162 0.15075 0.0
C350 C 0.43737 0.41446 0.19479 0.0
C351 C 0.40706 0.42978 0.15075 0.0
C352 C 0.43002 0.46946 0.1357 0.0
C353 C 0.40742 0.49193 0.12587 0.0
C354 C 0.36036 0.47378 0.132 0.0
C355 C 0.33668 0.4334 0.14736 0.0
C356 C 0.35984 0.41055 0.15624 0.0
H357 H 0.07684 0.55491 0.5218 0.0
H358 H -0.00232 0.61082 0.48424 0.0
H359 H 0.93956 0.53409 0.46851 0.0
H360 H 0.04395 0.45826 0.47035 0.0
H361 H 0.04125 0.42112 0.49763 0.0
H362 H 0.08212 0.48107 0.49964 0.0
H363 H 0.04882 0.48506 0.5473 0.0
H364 H 0.00818 0.42548 0.54545 0.0
H365 H -0.01231 0.46524 0.55048 0.0
H366 H 0.88289 0.45197 0.46639 0.0
H367 H 0.83195 0.37181 0.47894 0.0
H368 H 0.94778 0.36805 0.51678 0.0
C369 C 0.04809 0.55134 0.50947 0.0
C370 C 0.04184 0.58894 0.50424 0.0
C371 C 0.00337 0.58262 0.48839 0.0
C372 C -0.0297 0.53914 0.47923 0.0
C373 C -0.0234 0.50251 0.48572 0.0
C374 C 0.01487 0.50827 0.50026 0.0
C375 C 0.01039 0.46312 0.50819 0.0
C376 C 0.04658 0.45545 0.49304 0.0
C377 C 0.01393 0.45954 0.5397 0.0
C378 C -0.03791 0.43101 0.49767 0.0
C379 C 0.9437 0.45435 0.48407 0.0
C380 C 0.89736 0.43312 0.47613 0.0
C381 C 0.86867 0.3876 0.48331 0.0
C382 C 0.88644 0.36381 0.4982 0.0
C383 C 0.93404 0.38514 0.50438 0.0
H384 H 0.37803 -0.00117 0.82154 0.0
H385 H 0.50195 0.1302 0.81551 0.0
H386 H 0.54506 0.09382 0.79725 0.0
H387 H 0.43075 0.9478 0.85066 0.0
H388 H 0.39723 0.89292 0.83458 0.0
H389 H 0.37274 0.92925 0.83865 0.0
H390 H 0.35697 0.92486 0.78605 0.0
H391 H 0.38158 0.88829 0.78183 0.0
H392 H 0.40386 0.93982 0.76212 0.0
H393 H 0.57773 0.04375 0.78807 0.0
H394 H 0.59953 -0.01537 0.79397 0.0
H395 H 0.45578 0.88516 0.80916 0.0
C396 C 0.4137 0.01986 0.81517 0.0
C397 C 0.4367 0.06712 0.81934 0.0
C398 C 0.48385 0.09384 0.8121 0.0
C399 C 0.5084 0.07352 0.8015 0.0
C400 C 0.48529 0.02645 0.79855 0.0
C401 C 0.43895 -0.00012 0.8053 0.0
C402 C 0.42465 0.95004 0.80565 0.0
C403 C 0.40526 0.92882 0.83407 0.0
C404 C 0.3897 0.92424 0.78253 0.0
C405 C 0.47079 0.953 0.79988 0.0
C406 C 0.50489 -0.00286 0.79468 0.0
C407 C 0.55121 0.00893 0.79152 0.0
C408 C 0.56328 0.97513 0.79493 0.0
C409 C 0.52927 0.93048 0.80208 0.0
C410 C 0.48233 0.91901 0.80346 0.0
H411 H 0.41824 0.54974 0.48542 0.0
H412 H 0.56171 0.61245 0.51147 0.0
H413 H 0.54895 0.53788 0.52669 0.0
H414 H 0.36909 0.45383 0.53948 0.0
H415 H 0.32924 0.41505 0.51422 0.0
H416 H 0.34543 0.47424 0.51338 0.0
H417 H 0.37149 0.47876 0.46254 0.0
H418 H 0.35566 0.42006 0.46325 0.0
H419 H 0.41383 0.46217 0.45395 0.0
H420 H 0.52768 0.45716 0.52666 0.0
H421 H 0.49943 0.37797 0.51213 0.0
H422 H 0.3687 0.36588 0.4876 0.0
C423 C 0.44653 0.54812 0.49535 0.0
C424 C 0.491 0.58693 0.4972 0.0
C425 C 0.52726 0.5833 0.50999 0.0
C426 C 0.52024 0.54101 0.5188 0.0
C427 C 0.47658 0.50288 0.51517 0.0
C428 C 0.44003 0.5062 0.50418 0.0
C429 C 0.39887 0.45979 0.49826 0.0
C430 C 0.35826 0.45016 0.51749 0.0
C431 C 0.38418 0.45495 0.4677 0.0
C432 C 0.41932 0.42993 0.50527 0.0
C433 C 0.46374 0.45533 0.51579 0.0
C434 C 0.49241 0.43664 0.51948 0.0
C435 C 0.47615 0.39166 0.51115 0.0
C436 C 0.43158 0.36583 0.49939 0.0
C437 C 0.40212 0.3845 0.49762 0.0
H438 H 0.94811 0.57125 0.84203 0.0
H439 H 0.81695 0.44856 0.85478 0.0
H440 H 0.8583 0.40658 0.86513 0.0
H441 H -0.00583 0.5204 0.80357 0.0
H442 H 0.05303 0.55403 0.81546 0.0
H443 H 0.01474 0.57707 0.81659 0.0
H444 H 0.03012 0.5927 0.869 0.0
H445 H 0.06881 0.56978 0.86801 0.0
H446 H 0.0208 0.54704 0.89174 0.0
H447 H 0.91247 0.37605 0.8677 0.0
H448 H -0.0261 0.35733 0.85733 0.0
H449 H 0.06878 0.49866 0.83871 0.0
C450 C 0.92838 0.536 0.84813 0.0
C451 C 0.87968 0.5131 0.84824 0.0
C452 C 0.85447 0.46655 0.85499 0.0
C453 C 0.87764 0.44263 0.86108 0.0
C454 C 0.92587 0.46581 0.85995 0.0
C455 C 0.95096 0.51145 0.85345 0.0
C456 C 0.00146 0.52649 0.84864 0.0
C457 C 0.01669 0.54558 0.81933 0.0
C458 C 0.0321 0.56105 0.87067 0.0
C459 C 0.00045 0.48179 0.85215 0.0
C460 C 0.95694 0.44755 0.85965 0.0
C461 C 0.94687 0.40268 0.86226 0.0
C462 C -0.01812 0.39236 0.85633 0.0
C463 C 0.02579 0.42663 0.84721 0.0
C464 C 0.03545 0.47195 0.84577 0.0
H465 H 0.36119 0.86866 0.18093 0.0
H466 H 0.32653 0.97334 0.19969 0.0
H467 H 0.40896 0.02765 0.2083 0.0
H468 H 0.46747 0.9138 0.22973 0.0
H469 H 0.49712 0.89769 0.20485 0.0
H470 H 0.43511 0.86409 0.20852 0.0
H471 H 0.42574 0.87305 0.15628 0.0
H472 H 0.48724 0.9071 0.15247 0.0
H473 H 0.45033 0.9292 0.14187 0.0
H474 H 0.49287 0.07398 0.20111 0.0
H475 H 0.57257 0.1076 0.18316 0.0
H476 H 0.55475 0.97327 0.1713 0.0
C477 C 0.37082 0.9025 0.18804 0.0
C478 C 0.33777 0.91699 0.18957 0.0
C479 C 0.35139 0.96155 0.19857 0.0
C480 C 0.39814 -0.00741 0.20357 0.0
C481 C 0.43043 0.97808 0.2001 0.0
C482 C 0.41725 0.93369 0.19324 0.0
C483 C 0.45878 0.9282 0.18675 0.0
C484 C 0.46499 0.89924 0.20879 0.0
C485 C 0.45528 0.90826 0.15763 0.0
C486 C 0.49695 0.97711 0.18852 0.0
C487 C 0.48002 0.00522 0.19686 0.0
C488 C 0.50698 0.05231 0.19564 0.0
C489 C 0.55198 0.07108 0.18518 0.0
C490 C 0.56951 0.04278 0.17628 0.0
C491 C 0.5423 -0.00459 0.17882 0.0
H492 H 0.30588 0.39491 0.27183 0.0
H493 H 0.16776 0.27802 0.26883 0.0
H494 H 0.18563 0.24586 0.30958 0.0
H495 H 0.3618 0.332 0.28725 0.0
H496 H 0.40513 0.37434 0.30955 0.0
H497 H 0.38004 0.39115 0.28236 0.0
H498 H 0.35552 0.43255 0.31788 0.0
H499 H 0.38086 0.41612 0.34519 0.0
H500 H 0.32102 0.40189 0.34724 0.0
H501 H 0.21878 0.22546 0.34964 0.0
H502 H 0.2665 0.21552 0.38486 0.0
H503 H 0.38557 0.34246 0.35973 0.0
C504 C 0.27918 0.3631 0.28024 0.0
C505 C 0.23515 0.3392 0.26763 0.0
C506 C 0.20149 0.29692 0.27847 0.0
C507 C 0.21132 0.27847 0.30158 0.0
C508 C 0.25528 0.30238 0.3133 0.0
C509 C 0.28884 0.3436 0.30293 0.0
C510 C 0.33449 0.36032 0.31797 0.0
C511 C 0.3726 0.36469 0.29809 0.0
C512 C 0.3488 0.40539 0.33296 0.0
C513 C 0.32134 0.32195 0.33828 0.0
C514 C 0.27529 0.28927 0.33548 0.0
C515 C 0.2549 0.25078 0.35203 0.0
C516 C 0.28229 0.24545 0.37198 0.0
C517 C 0.3298 0.27803 0.37494 0.0
C518 C 0.34946 0.31676 0.35779 0.0
H519 H 0.8918 0.33515 0.63494 0.0
H520 H 0.86528 0.1986 0.61818 0.0
H521 H 0.9196 0.2064 0.65525 0.0
H522 H 0.01416 0.38262 0.64737 0.0
H523 H 0.01673 0.42059 0.67431 0.0
H524 H -0.02593 0.40389 0.64733 0.0
H525 H 0.90865 0.37472 0.68382 0.0
H526 H 0.95113 0.39168 0.7109 0.0
H527 H 0.90435 0.3339 0.70903 0.0
H528 H -0.02565 0.22765 0.69496 0.0
H529 H 0.02906 0.26247 0.7338 0.0
H530 H 0.0259 0.38765 0.72261 0.0
C531 C 0.89709 0.30678 0.63936 0.0
C532 C 0.87399 0.26606 0.62393 0.0
C533 C 0.88253 0.23001 0.62984 0.0
C534 C 0.91331 0.23412 0.65083 0.0
C535 C 0.93597 0.27482 0.66545 0.0
C536 C 0.92861 0.31069 0.6599 0.0
C537 C 0.95879 0.35124 0.67813 0.0
C538 C -0.00703 0.39199 0.66074 0.0
C539 C 0.92894 0.36359 0.69656 0.0
C540 C -0.01623 0.3323 0.69496 0.0
C541 C -0.03024 0.28803 0.6874 0.0
C542 C -0.01397 0.26246 0.70086 0.0
C543 C 0.01707 0.28249 0.72285 0.0
C544 C 0.03217 0.32786 0.73085 0.0
C545 C 0.01571 0.35323 0.71647 0.0
H546 H 0.5858 0.88592 0.95312 0.0
H547 H 0.64206 -0.00034 0.89656 0.0
H548 H 0.66564 0.05284 0.93579 0.0
H549 H 0.54384 0.93514 0.00515 0.0
H550 H 0.56054 0.91271 0.03381 0.0
H551 H 0.54519 0.88294 0.00127 0.0
H552 H 0.6242 0.88518 4e-05 0.0
H553 H 0.6398 0.91502 0.03253 0.0
H554 H 0.67691 0.93896 0.00296 0.0
H555 H 0.6839 0.09412 0.98067 0.0
H556 H 0.69924 0.12107 0.02895 0.0
H557 H 0.63522 -0.01838 0.05708 0.0
C558 C 0.60261 0.92199 0.94908 0.0
C559 C 0.6119 0.93865 0.92178 0.0
C560 C 0.63466 -0.01388 0.9173 0.0
C561 C 0.64807 0.01665 0.93944 0.0
C562 C 0.63895 -0.00067 0.96607 0.0
C563 C 0.61703 0.95319 0.97108 0.0
C564 C 0.61364 0.94397 0.00185 0.0
C565 C 0.56277 0.9171 0.01106 0.0
C566 C 0.64023 0.91933 0.0098 0.0
C567 C 0.63719 -0.00792 0.01318 0.0
C568 C 0.65104 0.02341 0.99215 0.0
C569 C 0.67328 0.06994 0.99736 0.0
C570 C 0.68182 0.08494 0.02484 0.0
C571 C 0.66864 0.05354 0.04677 0.0
C572 C 0.64596 0.00649 0.04075 0.0
H573 H 0.54292 0.61602 0.36498 0.0
H574 H 0.65729 0.75065 0.38253 0.0
H575 H 0.70404 0.74026 0.34644 0.0
H576 H 0.61471 0.56386 0.35357 0.0
H577 H 0.57783 0.52674 0.32669 0.0
H578 H 0.55356 0.54483 0.35388 0.0
H579 H 0.51945 0.5761 0.31763 0.0
H580 H 0.54343 0.55796 0.29035 0.0
H581 H 0.55731 0.61642 0.29245 0.0
H582 H 0.73542 0.71743 0.30567 0.0
H583 H 0.7514 0.6816 0.26568 0.0
H584 H 0.61958 0.55921 0.27792 0.0
C585 C 0.5778 0.64331 0.36119 0.0
C586 C 0.59643 0.68434 0.37629 0.0
C587 C 0.64242 0.719 0.37111 0.0
C588 C 0.66917 0.71339 0.35068 0.0
C589 C 0.64974 0.67253 0.33609 0.0
C590 C 0.60534 0.63783 0.34137 0.0
C591 C 0.59282 0.59703 0.32308 0.0
C592 C 0.58423 0.55567 0.34034 0.0
C593 C 0.55077 0.58627 0.30479 0.0
C594 C 0.63669 0.61458 0.30617 0.0
C595 C 0.66901 0.65832 0.31388 0.0
C596 C 0.71079 0.68289 0.29982 0.0
C597 C 0.71956 0.66236 0.27716 0.0
C598 C 0.68712 0.61746 0.26917 0.0
C599 C 0.64551 0.59314 0.28413 0.0
H600 H 0.07568 0.68673 0.65541 0.0
H601 H -0.01355 0.68452 0.58944 0.0
H602 H 0.92163 0.65915 0.6223 0.0
H603 H -0.00892 0.58916 0.69158 0.0
H604 H 0.01162 0.61286 0.7254 0.0
H605 H 0.05117 0.63081 0.69671 0.0
H606 H 0.07394 0.71456 0.7062 0.0
H607 H 0.03469 0.69688 0.73504 0.0
H608 H 0.02937 0.73007 0.70784 0.0
H609 H 0.86494 0.62947 0.66201 0.0
H610 H 0.82343 0.6061 0.70669 0.0
H611 H 0.95086 0.63267 0.74705 0.0
C612 C 0.04257 0.68111 0.64792 0.0
C613 C 0.03616 0.68753 0.61982 0.0
C614 C -0.00768 0.68007 0.61088 0.0
C615 C 0.95516 0.6654 0.62936 0.0
C616 C -0.03752 0.65893 0.65684 0.0
C617 C 0.00527 0.66722 0.66619 0.0
C618 C 0.00425 0.65882 0.69691 0.0
C619 C 0.01517 0.62064 0.703 0.0
C620 C 0.03753 0.7027 0.71241 0.0
C621 C 0.95417 0.64419 0.7033 0.0
C622 C 0.93044 0.64391 0.67988 0.0
C623 C 0.88328 0.63001 0.68055 0.0
C624 C 0.85994 0.61662 0.70594 0.0
C625 C 0.88402 0.61798 0.73029 0.0
C626 C 0.93167 0.63183 0.72881 0.0
H627 H 0.24332 0.88695 0.03633 0.0
H628 H 0.30101 -0.00431 0.09698 0.0
H629 H 0.33545 0.05189 0.05986 0.0
H630 H 0.3389 0.93814 0.98696 0.0
H631 H 0.3016 0.91939 0.95713 0.0
H632 H 0.28359 0.88676 0.98847 0.0
H633 H 0.20837 0.89184 0.98884 0.0
H634 H 0.22619 0.9245 0.95754 0.0
H635 H 0.21226 0.94673 0.98766 0.0
H636 H 0.36336 0.0967 0.01692 0.0
H637 H 0.37954 0.12818 0.96989 0.0
H638 H 0.30093 -0.00797 0.93597 0.0
C639 C 0.26362 0.92255 0.04169 0.0
C640 C 0.26966 0.93694 0.06956 0.0
C641 C 0.29582 -0.01612 0.07579 0.0
C642 C 0.31571 0.01612 0.05486 0.0
C643 C 0.30883 0.00107 0.02765 0.0
C644 C 0.2832 0.95553 0.02088 0.0
C645 C 0.27934 0.94913 0.98978 0.0
C646 C 0.30223 0.92173 0.98002 0.0
C647 C 0.22852 0.92673 0.98041 0.0
C648 C 0.30659 -0.00187 0.9803 0.0
C649 C 0.3237 0.02738 0.00256 0.0
C650 C 0.35014 0.0742 -0.00073 0.0
C651 C 0.3592 0.09176 0.97246 0.0
C652 C 0.34142 0.06265 0.94926 0.0
C653 C 0.31483 0.01517 0.95332 0.0
H654 H 0.84985 0.13707 0.12248 0.0
H655 H 0.84018 0.08021 0.20382 0.0
H656 H 0.92514 0.11555 0.20547 0.0
H657 H 0.96015 0.13622 0.09937 0.0
H658 H -0.01977 0.18968 0.0821 0.0
H659 H 0.9191 0.14945 0.08377 0.0
H660 H 0.90501 0.21137 0.1056 0.0
H661 H -0.03417 0.25142 0.10454 0.0
H662 H 0.93517 0.23935 0.13686 0.0
H663 H 0.0088 0.17088 0.20347 0.0
H664 H 0.08534 0.23859 0.19676 0.0
H665 H 0.04157 0.2602 0.11669 0.0
C666 C 0.86542 0.13025 0.14009 0.0
C667 C 0.8384 0.10584 0.163 0.0
C668 C 0.86018 0.09865 0.18598 0.0
C669 C 0.90846 0.1185 0.18706 0.0
C670 C 0.93434 0.14492 0.16487 0.0
C671 C 0.91356 0.15016 0.14155 0.0
C672 C 0.94892 0.18567 0.12246 0.0
C673 C 0.9523 0.16394 0.09532 0.0
C674 C 0.93807 0.2242 0.11709 0.0
C675 C -0.0077 0.20191 0.1396 0.0
C676 C -0.01664 0.17726 0.16369 0.0
C677 C 0.01659 0.18955 0.18434 0.0
C678 C 0.05984 0.2283 0.18044 0.0
C679 C 0.06938 0.25444 0.15613 0.0
C680 C 0.03552 0.24031 0.13521 0.0
H681 H 0.78816 0.08453 0.47862 0.0
H682 H 0.81041 0.07688 0.566 0.0
H683 H 0.78465 -0.00464 0.56105 0.0
H684 H 0.68553 -0.01141 0.47581 0.0
H685 H 0.69184 0.96961 0.44212 0.0
H686 H 0.72337 0.02892 0.45062 0.0
H687 H 0.80063 0.03175 0.43836 0.0
H688 H 0.76921 0.97226 0.42954 0.0
H689 H 0.81525 -0.00719 0.45463 0.0
H690 H 0.7432 0.91336 0.54876 0.0
H691 H 0.68833 0.83746 0.53022 0.0
H692 H 0.69082 0.89754 0.45098 0.0
C693 C 0.78965 0.06606 0.49639 0.0
C694 C 0.80195 0.08698 0.52259 0.0
C695 C 0.80159 0.06146 0.54569 0.0
C696 C 0.78716 0.01519 0.54305 0.0
C697 C 0.77314 -0.00508 0.51716 0.0
C698 C 0.77457 0.01961 0.49415 0.0
C699 C 0.75103 -0.01133 0.46971 0.0
C700 C 0.71055 -0.00571 0.45897 0.0
C701 C 0.78613 -0.00314 0.4467 0.0
C702 C 0.73398 0.94276 0.48296 0.0
C703 C 0.74808 0.94708 0.51014 0.0
C704 C 0.73282 0.90948 0.52732 0.0
C705 C 0.70154 0.86648 0.51664 0.0
C706 C 0.68547 0.86154 0.48913 0.0
C707 C 0.70301 0.90012 0.47197 0.0
H708 H 0.80513 0.71302 0.80365 0.0
H709 H 0.83549 0.73465 0.89123 0.0
H710 H 0.8137 0.79426 0.89132 0.0
H711 H 0.83819 0.83532 0.78626 0.0
H712 H 0.79094 0.8155 0.76205 0.0
H713 H 0.82036 0.78351 0.7672 0.0
H714 H 0.7419 0.71217 0.77846 0.0
H715 H 0.71239 0.7438 0.77361 0.0
H716 H 0.70646 0.71493 0.80576 0.0
H717 H 0.77247 0.83737 0.88454 0.0
H718 H 0.71693 0.86209 0.87108 0.0
H719 H 0.71415 0.8138 0.78773 0.0
C720 C 0.80895 0.73151 0.82263 0.0
C721 C 0.82201 0.71918 0.84742 0.0
C722 C 0.82569 0.74358 0.87195 0.0
C723 C 0.81361 0.77769 0.87217 0.0
C724 C 0.79857 0.78743 0.84764 0.0
C725 C 0.79689 0.76551 0.82319 0.0
C726 C 0.7733 0.77734 0.80063 0.0
C727 C 0.80777 0.80455 0.77768 0.0
C728 C 0.73102 0.73453 0.78897 0.0
C729 C 0.759 0.80669 0.81672 0.0
C730 C 0.77487 0.81302 0.84363 0.0
C731 C 0.76099 0.83386 0.86334 0.0
C732 C 0.72922 0.84754 0.85555 0.0
C733 C 0.71158 0.84014 0.82831 0.0
C734 C 0.72794 0.82088 0.80851 0.0
H735 H 0.8469 0.68669 0.18937 0.0
H736 H 0.83305 0.68346 0.10027 0.0
H737 H 0.91153 0.74958 0.09669 0.0
H738 H 0.92411 0.81441 0.19677 0.0
H739 H 0.95704 0.80697 0.2237 0.0
H740 H 0.89618 0.76682 0.21985 0.0
H741 H 0.91459 0.70111 0.21626 0.0
H742 H -0.02487 0.74085 0.22019 0.0
H743 H 0.95508 0.70379 0.19052 0.0
H744 H -0.00521 0.80487 0.10186 0.0
H745 H 0.07707 0.8421 0.11517 0.0
H746 H 0.03737 0.81033 0.20096 0.0
C747 C 0.85979 0.70078 0.16916 0.0
C748 C 0.83387 0.68001 0.14512 0.0
C749 C 0.8523 0.69885 0.119 0.0
C750 C 0.89669 0.73669 0.11677 0.0
C751 C 0.92197 0.75552 0.14085 0.0
C752 C 0.90407 0.73834 0.1666 0.0
C753 C 0.94046 0.76017 0.18889 0.0
C754 C 0.92874 0.7888 0.20846 0.0
C755 C 0.94668 0.72435 0.20486 0.0
C756 C -0.01762 0.78996 0.17145 0.0
C757 C -0.02928 0.78785 0.14389 0.0
C758 C 0.00427 0.80778 0.12343 0.0
C759 C 0.05093 0.82874 0.13118 0.0
C760 C 0.06351 0.8292 0.15912 0.0
C761 C 0.02878 0.81138 0.17954 0.0
H762 H 0.15659 0.90296 0.54724 0.0
H763 H 0.08435 0.84208 0.47078 0.0
H764 H 0.10686 0.91824 0.4528 0.0
H765 H 0.13456 0.00247 0.54793 0.0
H766 H 0.19159 0.03954 0.5616 0.0
H767 H 0.16138 -0.01974 0.57063 0.0
H768 H 0.23106 0.97279 0.55327 0.0
H769 H 0.26126 0.03171 0.54405 0.0
H770 H 0.25139 -0.01083 0.51843 0.0
H771 H 0.14948 0.0001 0.43995 0.0
H772 H 0.20727 0.08092 0.43359 0.0
H773 H 0.25098 0.0892 0.51863 0.0
C774 C 0.14404 0.90548 0.52709 0.0
C775 C 0.11847 0.86653 0.51046 0.0
C776 C 0.10362 0.87138 0.48398 0.0
C777 C 0.11618 0.91454 0.47362 0.0
C778 C 0.1431 0.95242 0.49013 0.0
C779 C 0.15635 0.94826 0.51648 0.0
C780 C 0.18976 -0.0058 0.52878 0.0
C781 C 0.16801 0.00473 0.55371 0.0
C782 C 0.23609 -0.00289 0.53656 0.0
C783 C 0.19532 0.02473 0.50469 0.0
C784 C 0.16746 6e-05 0.48276 0.0
C785 C 0.17049 0.01995 0.45719 0.0
C786 C 0.20352 0.06584 0.45374 0.0
C787 C 0.23311 0.09138 0.47573 0.0
C788 C 0.2279 0.07081 0.50172 0.0
H789 H 0.15612 0.27033 0.80463 0.0
H790 H 0.1165 0.25129 0.89092 0.0
H791 H 0.13425 0.18897 0.89366 0.0
H792 H 0.11897 0.1474 0.78814 0.0
H793 H 0.1687 0.16429 0.76626 0.0
H794 H 0.14258 0.19973 0.76913 0.0
H795 H 0.22178 0.2678 0.78357 0.0
H796 H 0.24798 0.23275 0.78062 0.0
H797 H 0.25224 0.26193 0.81259 0.0
H798 H 0.16857 0.13924 0.88959 0.0
H799 H 0.22162 0.1098 0.87995 0.0
H800 H 0.23993 0.161 0.79634 0.0
C801 C 0.1497 0.25199 0.82384 0.0
C802 C 0.13468 0.26537 0.84751 0.0
C803 C 0.12794 0.2415 0.87251 0.0
C804 C 0.13749 0.20576 0.87419 0.0
C805 C 0.15358 0.19421 0.85068 0.0
C806 C 0.15958 0.21656 0.82592 0.0
C807 C 0.1839 0.20247 0.80496 0.0
C808 C 0.15159 0.17694 0.78069 0.0
C809 C 0.22914 0.24367 0.79488 0.0
C810 C 0.19324 0.1709 0.82234 0.0
C811 C 0.17421 0.16553 0.84838 0.0
C812 C 0.18274 0.14229 0.8691 0.0
C813 C 0.21304 0.12578 0.86345 0.0
C814 C 0.23478 0.13301 0.83737 0.0
C815 C 0.22308 0.15411 0.81627 0.0
loop_
_geom_bond_atom_site_label_1
_geom_bond_atom_site_label_2
_geom_bond_distance
_geom_bond_site_symmetry_2
_ccdc_geom_bond_type
C0 O1 1.306 . S
C0 O3 1.160 . S
O1 C0 1.306 . S
O1 Cd2 2.228 . S
Cd2 O1 2.228 . S
Cd2 O6 2.273 . S
Cd2 O10 2.277 . S
O3 C0 1.160 . S
O3 Cd4 2.203 . S
Cd4 O3 2.203 . S
Cd4 O6 2.411 . S
Cd4 O7 2.333 . S
Cd4 O8 2.352 . S
Cd4 O12 2.277 . S
Cd4 O13 2.356 . S
C5 O10 1.209 . S
C5 O12 1.226 . S
O6 Cd2 2.273 . S
O6 Cd4 2.411 . S
O6 C9 1.320 . S
O7 Cd4 2.333 . S
O7 C9 1.214 . S
O8 Cd4 2.352 . S
O8 C11 1.258 . S
C9 O6 1.320 . S
C9 O7 1.214 . S
O10 Cd2 2.277 . S
O10 C5 1.209 . S
C11 O8 1.258 . S
C11 O13 1.282 . S
O12 Cd4 2.277 . S
O12 C5 1.226 . S
O13 Cd4 2.356 . S
O13 C11 1.282 . S
C14 O15 1.306 . S
C14 O17 1.160 . S
O15 C14 1.306 . S
O15 Cd16 2.228 . S
Cd16 O15 2.228 . S
Cd16 O20 2.273 . S
Cd16 O24 2.277 . S
O17 C14 1.160 . S
O17 Cd18 2.203 . S
Cd18 O17 2.203 . S
Cd18 O20 2.411 . S
Cd18 O21 2.333 . S
Cd18 O22 2.352 . S
Cd18 O26 2.277 . S
Cd18 O27 2.356 . S
C19 O24 1.209 . S
C19 O26 1.226 . S
O20 Cd16 2.273 . S
O20 Cd18 2.411 . S
O20 C23 1.320 . S
O21 Cd18 2.333 . S
O21 C23 1.214 . S
O22 Cd18 2.352 . S
O22 C25 1.258 . S
C23 O20 1.320 . S
C23 O21 1.214 . S
O24 Cd16 2.277 . S
O24 C19 1.209 . S
C25 O22 1.258 . S
C25 O27 1.282 . S
O26 Cd18 2.277 . S
O26 C19 1.226 . S
O27 Cd18 2.356 . S
O27 C25 1.282 . S
C28 O29 1.306 . S
C28 O31 1.160 . S
O29 C28 1.306 . S
O29 Cd30 2.228 . S
Cd30 O29 2.228 . S
Cd30 O34 2.273 . S
Cd30 O38 2.277 . S
O31 C28 1.160 . S
O31 Cd32 2.203 . S
Cd32 O31 2.203 . S
Cd32 O34 2.411 . S
Cd32 O35 2.333 . S
Cd32 O36 2.352 . S
Cd32 O40 2.277 . S
Cd32 O41 2.356 . S
C33 O38 1.209 . S
C33 O40 1.226 . S
O34 Cd30 2.273 . S
O34 Cd32 2.411 . S
O34 C37 1.320 . S
O35 Cd32 2.333 . S
O35 C37 1.214 . S
O36 Cd32 2.352 . S
O36 C39 1.258 . S
C37 O34 1.320 . S
C37 O35 1.214 . S
O38 Cd30 2.277 . S
O38 C33 1.209 . S
C39 O36 1.258 . S
C39 O41 1.282 . S
O40 Cd32 2.277 . S
O40 C33 1.226 . S
O41 Cd32 2.356 . S
O41 C39 1.282 . S
C42 O43 1.306 . S
C42 O45 1.160 . S
O43 C42 1.306 . S
O43 Cd44 2.228 . S
Cd44 O43 2.228 . S
Cd44 O48 2.273 . S
Cd44 O52 2.277 . S
O45 C42 1.160 . S
O45 Cd46 2.203 . S
Cd46 O45 2.203 . S
Cd46 O48 2.411 . S
Cd46 O49 2.333 . S
Cd46 O50 2.352 . S
Cd46 O54 2.277 . S
Cd46 O55 2.356 . S
C47 O52 1.209 . S
C47 O54 1.226 . S
O48 Cd44 2.273 . S
O48 Cd46 2.411 . S
O48 C51 1.320 . S
O49 Cd46 2.333 . S
O49 C51 1.214 . S
O50 Cd46 2.352 . S
O50 C53 1.258 . S
C51 O48 1.320 . S
C51 O49 1.214 . S
O52 Cd44 2.277 . S
O52 C47 1.209 . S
C53 O50 1.258 . S
C53 O55 1.282 . S
O54 Cd46 2.277 . S
O54 C47 1.226 . S
O55 Cd46 2.356 . S
O55 C53 1.282 . S
C56 O57 1.306 . S
C56 O59 1.160 . S
O57 C56 1.306 . S
O57 Cd58 2.228 . S
Cd58 O57 2.228 . S
Cd58 O62 2.273 . S
Cd58 O66 2.277 . S
O59 C56 1.160 . S
O59 Cd60 2.203 . S
Cd60 O59 2.203 . S
Cd60 O62 2.411 . S
Cd60 O63 2.333 . S
Cd60 O64 2.352 . S
Cd60 O68 2.277 . S
Cd60 O69 2.356 . S
C61 O66 1.209 . S
C61 O68 1.226 . S
O62 Cd58 2.273 . S
O62 Cd60 2.411 . S
O62 C65 1.320 . S
O63 Cd60 2.333 . S
O63 C65 1.214 . S
O64 Cd60 2.352 . S
O64 C67 1.258 . S
C65 O62 1.320 . S
C65 O63 1.214 . S
O66 Cd58 2.277 . S
O66 C61 1.209 . S
C67 O64 1.258 . S
C67 O69 1.282 . S
O68 Cd60 2.277 . S
O68 C61 1.226 . S
O69 Cd60 2.356 . S
O69 C67 1.282 . S
C70 O71 1.306 . S
C70 O73 1.160 . S
O71 C70 1.306 . S
O71 Cd72 2.228 . S
Cd72 O71 2.228 . S
Cd72 O76 2.273 . S
Cd72 O80 2.277 . S
O73 C70 1.160 . S
O73 Cd74 2.203 . S
Cd74 O73 2.203 . S
Cd74 O76 2.411 . S
Cd74 O77 2.333 . S
Cd74 O78 2.352 . S
Cd74 O82 2.277 . S
Cd74 O83 2.356 . S
C75 O80 1.209 . S
C75 O82 1.226 . S
O76 Cd72 2.273 . S
O76 Cd74 2.411 . S
O76 C79 1.320 . S
O77 Cd74 2.333 . S
O77 C79 1.214 . S
O78 Cd74 2.352 . S
O78 C81 1.258 . S
C79 O76 1.320 . S
C79 O77 1.214 . S
O80 Cd72 2.277 . S
O80 C75 1.209 . S
C81 O78 1.258 . S
C81 O83 1.282 . S
O82 Cd74 2.277 . S
O82 C75 1.226 . S
O83 Cd74 2.356 . S
O83 C81 1.282 . S
C84 O85 1.306 . S
C84 O87 1.160 . S
O85 C84 1.306 . S
O85 Cd86 2.228 . S
Cd86 O85 2.228 . S
Cd86 O90 2.273 . S
Cd86 O94 2.277 . S
O87 C84 1.160 . S
O87 Cd88 2.203 . S
Cd88 O87 2.203 . S
Cd88 O90 2.411 . S
Cd88 O91 2.333 . S
Cd88 O92 2.352 . S
Cd88 O96 2.277 . S
Cd88 O97 2.356 . S
C89 O94 1.209 . S
C89 O96 1.226 . S
O90 Cd86 2.273 . S
O90 Cd88 2.411 . S
O90 C93 1.320 . S
O91 Cd88 2.333 . S
O91 C93 1.214 . S
O92 Cd88 2.352 . S
O92 C95 1.258 . S
C93 O90 1.320 . S
C93 O91 1.214 . S
O94 Cd86 2.277 . S
O94 C89 1.209 . S
C95 O92 1.258 . S
C95 O97 1.282 . S
O96 Cd88 2.277 . S
O96 C89 1.226 . S
O97 Cd88 2.356 . S
O97 C95 1.282 . S
C98 O99 1.306 . S
C98 O101 1.160 . S
O99 C98 1.306 . S
O99 Cd100 2.228 . S
Cd100 O99 2.228 . S
Cd100 O104 2.273 . S
Cd100 O108 2.277 . S
O101 C98 1.160 . S
O101 Cd102 2.203 . S
Cd102 O101 2.203 . S
Cd102 O104 2.411 . S
Cd102 O105 2.333 . S
Cd102 O106 2.352 . S
Cd102 O110 2.277 . S
Cd102 O111 2.356 . S
C103 O108 1.209 . S
C103 O110 1.226 . S
O104 Cd100 2.273 . S
O104 Cd102 2.411 . S
O104 C107 1.320 . S
O105 Cd102 2.333 . S
O105 C107 1.214 . S
O106 Cd102 2.352 . S
O106 C109 1.258 . S
C107 O104 1.320 . S
C107 O105 1.214 . S
O108 Cd100 2.277 . S
O108 C103 1.209 . S
C109 O106 1.258 . S
C109 O111 1.282 . S
O110 Cd102 2.277 . S
O110 C103 1.226 . S
O111 Cd102 2.356 . S
O111 C109 1.282 . S
C112 O113 1.306 . S
C112 O115 1.160 . S
O113 C112 1.306 . S
O113 Cd114 2.228 . S
Cd114 O113 2.228 . S
Cd114 O118 2.273 . S
Cd114 O122 2.277 . S
O115 C112 1.160 . S
O115 Cd116 2.203 . S
Cd116 O115 2.203 . S
Cd116 O118 2.411 . S
Cd116 O119 2.333 . S
Cd116 O120 2.352 . S
Cd116 O124 2.277 . S
Cd116 O125 2.356 . S
C117 O122 1.209 . S
C117 O124 1.226 . S
O118 Cd114 2.273 . S
O118 Cd116 2.411 . S
O118 C121 1.320 . S
O119 Cd116 2.333 . S
O119 C121 1.214 . S
O120 Cd116 2.352 . S
O120 C123 1.258 . S
C121 O118 1.320 . S
C121 O119 1.214 . S
O122 Cd114 2.277 . S
O122 C117 1.209 . S
C123 O120 1.258 . S
C123 O125 1.282 . S
O124 Cd116 2.277 . S
O124 C117 1.226 . S
O125 Cd116 2.356 . S
O125 C123 1.282 . S
C126 O127 1.306 . S
C126 O129 1.160 . S
O127 C126 1.306 . S
O127 Cd128 2.228 . S
Cd128 O127 2.228 . S
Cd128 O132 2.273 . S
Cd128 O136 2.277 . S
O129 C126 1.160 . S
O129 Cd130 2.203 . S
Cd130 O129 2.203 . S
Cd130 O132 2.411 . S
Cd130 O133 2.333 . S
Cd130 O134 2.352 . S
Cd130 O138 2.277 . S
Cd130 O139 2.356 . S
C131 O136 1.209 . S
C131 O138 1.226 . S
O132 Cd128 2.273 . S
O132 Cd130 2.411 . S
O132 C135 1.320 . S
O133 Cd130 2.333 . S
O133 C135 1.214 . S
O134 Cd130 2.352 . S
O134 C137 1.258 . S
C135 O132 1.320 . S
C135 O133 1.214 . S
O136 Cd128 2.277 . S
O136 C131 1.209 . S
C137 O134 1.258 . S
C137 O139 1.282 . S
O138 Cd130 2.277 . S
O138 C131 1.226 . S
O139 Cd130 2.356 . S
O139 C137 1.282 . S
C140 O141 1.306 . S
C140 O143 1.160 . S
O141 C140 1.306 . S
O141 Cd142 2.228 . S
Cd142 O141 2.228 . S
Cd142 O146 2.273 . S
Cd142 O150 2.277 . S
O143 C140 1.160 . S
O143 Cd144 2.203 . S
Cd144 O143 2.203 . S
Cd144 O146 2.411 . S
Cd144 O147 2.333 . S
Cd144 O148 2.352 . S
Cd144 O152 2.277 . S
Cd144 O153 2.356 . S
C145 O150 1.209 . S
C145 O152 1.226 . S
O146 Cd142 2.273 . S
O146 Cd144 2.411 . S
O146 C149 1.320 . S
O147 Cd144 2.333 . S
O147 C149 1.214 . S
O148 Cd144 2.352 . S
O148 C151 1.258 . S
C149 O146 1.320 . S
C149 O147 1.214 . S
O150 Cd142 2.277 . S
O150 C145 1.209 . S
C151 O148 1.258 . S
C151 O153 1.282 . S
O152 Cd144 2.277 . S
O152 C145 1.226 . S
O153 Cd144 2.356 . S
O153 C151 1.282 . S
C154 O155 1.306 . S
C154 O157 1.160 . S
O155 C154 1.306 . S
O155 Cd156 2.228 . S
Cd156 O155 2.228 . S
Cd156 O160 2.273 . S
Cd156 O164 2.277 . S
O157 C154 1.160 . S
O157 Cd158 2.203 . S
Cd158 O157 2.203 . S
Cd158 O160 2.411 . S
Cd158 O161 2.333 . S
Cd158 O162 2.352 . S
Cd158 O166 2.277 . S
Cd158 O167 2.356 . S
C159 O164 1.209 . S
C159 O166 1.226 . S
O160 Cd156 2.273 . S
O160 Cd158 2.411 . S
O160 C163 1.320 . S
O161 Cd158 2.333 . S
O161 C163 1.214 . S
O162 Cd158 2.352 . S
O162 C165 1.258 . S
C163 O160 1.320 . S
C163 O161 1.214 . S
O164 Cd156 2.277 . S
O164 C159 1.209 . S
C165 O162 1.258 . S
C165 O167 1.282 . S
O166 Cd158 2.277 . S
O166 C159 1.226 . S
O167 Cd158 2.356 . S
O167 C165 1.282 . S
H168 C180 0.930 . S
H169 C182 0.930 . S
H170 C183 0.930 . S
H171 C187 0.959 . S
H172 C187 0.959 . S
H173 C187 0.961 . S
H174 C188 0.960 . S
H175 C188 0.961 . S
H176 C188 0.959 . S
H177 C191 0.929 . S
H178 C192 0.931 . S
H179 C194 0.930 . S
C180 H168 0.930 . S
C180 C181 1.399 . S
C180 C185 1.399 . S
C181 C180 1.399 . S
C181 C182 1.376 . S
C182 H169 0.930 . S
C182 C181 1.376 . S
C182 C183 1.388 . S
C183 H170 0.930 . S
C183 C182 1.388 . S
C183 C184 1.390 . S
C184 C183 1.390 . S
C184 C185 1.394 . S
C184 C190 1.465 . S
C185 C180 1.399 . S
C185 C184 1.394 . S
C185 C186 1.516 . S
C186 C185 1.516 . S
C186 C187 1.502 . S
C186 C188 1.561 . S
C186 C189 1.526 . S
C187 H171 0.959 . S
C187 H172 0.959 . S
C187 H173 0.961 . S
C187 C186 1.502 . S
C188 H174 0.960 . S
C188 H175 0.961 . S
C188 H176 0.959 . S
C188 C186 1.561 . S
C189 C186 1.526 . S
C189 C190 1.396 . S
C189 C194 1.390 . S
C190 C184 1.465 . S
C190 C189 1.396 . S
C190 C191 1.399 . S
C191 H177 0.929 . S
C191 C190 1.399 . S
C191 C192 1.385 . S
C192 H178 0.931 . S
C192 C191 1.385 . S
C192 C193 1.389 . S
C193 C192 1.389 . S
C193 C194 1.387 . S
C194 H179 0.930 . S
C194 C189 1.390 . S
C194 C193 1.387 . S
H195 C207 0.930 . S
H196 C209 0.930 . S
H197 C210 0.930 . S
H198 C214 0.959 . S
H199 C214 0.959 . S
H200 C214 0.961 . S
H201 C215 0.960 . S
H202 C215 0.961 . S
H203 C215 0.959 . S
H204 C218 0.929 . S
H205 C219 0.931 . S
H206 C221 0.930 . S
C207 H195 0.930 . S
C207 C208 1.399 . S
C207 C212 1.399 . S
C208 C207 1.399 . S
C208 C209 1.376 . S
C209 H196 0.930 . S
C209 C208 1.376 . S
C209 C210 1.388 . S
C210 H197 0.930 . S
C210 C209 1.388 . S
C210 C211 1.390 . S
C211 C210 1.390 . S
C211 C212 1.394 . S
C211 C217 1.465 . S
C212 C207 1.399 . S
C212 C211 1.394 . S
C212 C213 1.516 . S
C213 C212 1.516 . S
C213 C214 1.502 . S
C213 C215 1.561 . S
C213 C216 1.526 . S
C214 H198 0.959 . S
C214 H199 0.959 . S
C214 H200 0.961 . S
C214 C213 1.502 . S
C215 H201 0.960 . S
C215 H202 0.961 . S
C215 H203 0.959 . S
C215 C213 1.561 . S
C216 C213 1.526 . S
C216 C217 1.396 . S
C216 C221 1.390 . S
C217 C211 1.465 . S
C217 C216 1.396 . S
C217 C218 1.399 . S
C218 H204 0.929 . S
C218 C217 1.399 . S
C218 C219 1.385 . S
C219 H205 0.931 . S
C219 C218 1.385 . S
C219 C220 1.389 . S
C220 C219 1.389 . S
C220 C221 1.387 . S
C221 H206 0.930 . S
C221 C216 1.390 . S
C221 C220 1.387 . S
H222 C234 0.930 . S
H223 C236 0.930 . S
H224 C237 0.930 . S
H225 C241 0.959 . S
H226 C241 0.959 . S
H227 C241 0.961 . S
H228 C242 0.960 . S
H229 C242 0.961 . S
H230 C242 0.959 . S
H231 C245 0.929 . S
H232 C246 0.931 . S
H233 C248 0.930 . S
C234 H222 0.930 . S
C234 C235 1.399 . S
C234 C239 1.399 . S
C235 C234 1.399 . S
C235 C236 1.376 . S
C236 H223 0.930 . S
C236 C235 1.376 . S
C236 C237 1.388 . S
C237 H224 0.930 . S
C237 C236 1.388 . S
C237 C238 1.390 . S
C238 C237 1.390 . S
C238 C239 1.394 . S
C238 C244 1.465 . S
C239 C234 1.399 . S
C239 C238 1.394 . S
C239 C240 1.516 . S
C240 C239 1.516 . S
C240 C241 1.502 . S
C240 C242 1.561 . S
C240 C243 1.526 . S
C241 H225 0.959 . S
C241 H226 0.959 . S
C241 H227 0.961 . S
C241 C240 1.502 . S
C242 H228 0.960 . S
C242 H229 0.961 . S
C242 H230 0.959 . S
C242 C240 1.561 . S
C243 C240 1.526 . S
C243 C244 1.396 . S
C243 C248 1.390 . S
C244 C238 1.465 . S
C244 C243 1.396 . S
C244 C245 1.399 . S
C245 H231 0.929 . S
C245 C244 1.399 . S
C245 C246 1.385 . S
C246 H232 0.931 . S
C246 C245 1.385 . S
C246 C247 1.389 . S
C247 C246 1.389 . S
C247 C248 1.387 . S
C248 H233 0.930 . S
C248 C243 1.390 . S
C248 C247 1.387 . S
H249 C261 0.930 . S
H250 C263 0.930 . S
H251 C264 0.930 . S
H252 C268 0.959 . S
H253 C268 0.959 . S
H254 C268 0.961 . S
H255 C269 0.960 . S
H256 C269 0.961 . S
H257 C269 0.959 . S
H258 C272 0.929 . S
H259 C273 0.931 . S
H260 C275 0.930 . S
C261 H249 0.930 . S
C261 C262 1.399 . S
C261 C266 1.399 . S
C262 C261 1.399 . S
C262 C263 1.376 . S
C263 H250 0.930 . S
C263 C262 1.376 . S
C263 C264 1.388 . S
C264 H251 0.930 . S
C264 C263 1.388 . S
C264 C265 1.390 . S
C265 C264 1.390 . S
C265 C266 1.394 . S
C265 C271 1.465 . S
C266 C261 1.399 . S
C266 C265 1.394 . S
C266 C267 1.516 . S
C267 C266 1.516 . S
C267 C268 1.502 . S
C267 C269 1.561 . S
C267 C270 1.526 . S
C268 H252 0.959 . S
C268 H253 0.959 . S
C268 H254 0.961 . S
C268 C267 1.502 . S
C269 H255 0.960 . S
C269 H256 0.961 . S
C269 H257 0.959 . S
C269 C267 1.561 . S
C270 C267 1.526 . S
C270 C271 1.396 . S
C270 C275 1.390 . S
C271 C265 1.465 . S
C271 C270 1.396 . S
C271 C272 1.399 . S
C272 H258 0.929 . S
C272 C271 1.399 . S
C272 C273 1.385 . S
C273 H259 0.931 . S
C273 C272 1.385 . S
C273 C274 1.389 . S
C274 C273 1.389 . S
C274 C275 1.387 . S
C275 H260 0.930 . S
C275 C270 1.390 . S
C275 C274 1.387 . S
H276 C288 0.930 . S
H277 C290 0.930 . S
H278 C291 0.930 . S
H279 C295 0.959 . S
H280 C295 0.959 . S
H281 C295 0.961 . S
H282 C296 0.960 . S
H283 C296 0.961 . S
H284 C296 0.959 . S
H285 C299 0.929 . S
H286 C300 0.931 . S
H287 C302 0.930 . S
C288 H276 0.930 . S
C288 C289 1.399 . S
C288 C293 1.399 . S
C289 C288 1.399 . S
C289 C290 1.376 . S
C290 H277 0.930 . S
C290 C289 1.376 . S
C290 C291 1.388 . S
C291 H278 0.930 . S
C291 C290 1.388 . S
C291 C292 1.390 . S
C292 C291 1.390 . S
C292 C293 1.394 . S
C292 C298 1.465 . S
C293 C288 1.399 . S
C293 C292 1.394 . S
C293 C294 1.516 . S
C294 C293 1.516 . S
C294 C295 1.502 . S
C294 C296 1.561 . S
C294 C297 1.526 . S
C295 H279 0.959 . S
C295 H280 0.959 . S
C295 H281 0.961 . S
C295 C294 1.502 . S
C296 H282 0.960 . S
C296 H283 0.961 . S
C296 H284 0.959 . S
C296 C294 1.561 . S
C297 C294 1.526 . S
C297 C298 1.396 . S
C297 C302 1.390 . S
C298 C292 1.465 . S
C298 C297 1.396 . S
C298 C299 1.399 . S
C299 H285 0.929 . S
C299 C298 1.399 . S
C299 C300 1.385 . S
C300 H286 0.931 . S
C300 C299 1.385 . S
C300 C301 1.389 . S
C301 C300 1.389 . S
C301 C302 1.387 . S
C302 H287 0.930 . S
C302 C297 1.390 . S
C302 C301 1.387 . S
H303 C315 0.930 . S
H304 C317 0.930 . S
H305 C318 0.930 . S
H306 C322 0.959 . S
H307 C322 0.959 . S
H308 C322 0.961 . S
H309 C323 0.960 . S
H310 C323 0.961 . S
H311 C323 0.959 . S
H312 C326 0.929 . S
H313 C327 0.931 . S
H314 C329 0.930 . S
C315 H303 0.930 . S
C315 C316 1.399 . S
C315 C320 1.399 . S
C316 C315 1.399 . S
C316 C317 1.376 . S
C317 H304 0.930 . S
C317 C316 1.376 . S
C317 C318 1.388 . S
C318 H305 0.930 . S
C318 C317 1.388 . S
C318 C319 1.390 . S
C319 C318 1.390 . S
C319 C320 1.394 . S
C319 C325 1.465 . S
C320 C315 1.399 . S
C320 C319 1.394 . S
C320 C321 1.516 . S
C321 C320 1.516 . S
C321 C322 1.502 . S
C321 C323 1.561 . S
C321 C324 1.526 . S
C322 H306 0.959 . S
C322 H307 0.959 . S
C322 H308 0.961 . S
C322 C321 1.502 . S
C323 H309 0.960 . S
C323 H310 0.961 . S
C323 H311 0.959 . S
C323 C321 1.561 . S
C324 C321 1.526 . S
C324 C325 1.396 . S
C324 C329 1.390 . S
C325 C319 1.465 . S
C325 C324 1.396 . S
C325 C326 1.399 . S
C326 H312 0.929 . S
C326 C325 1.399 . S
C326 C327 1.385 . S
C327 H313 0.931 . S
C327 C326 1.385 . S
C327 C328 1.389 . S
C328 C327 1.389 . S
C328 C329 1.387 . S
C329 H314 0.930 . S
C329 C324 1.390 . S
C329 C328 1.387 . S
H330 C342 0.930 . S
H331 C344 0.930 . S
H332 C345 0.930 . S
H333 C349 0.959 . S
H334 C349 0.959 . S
H335 C349 0.961 . S
H336 C350 0.960 . S
H337 C350 0.961 . S
H338 C350 0.959 . S
H339 C353 0.929 . S
H340 C354 0.931 . S
H341 C356 0.930 . S
C342 H330 0.930 . S
C342 C343 1.399 . S
C342 C347 1.399 . S
C343 C342 1.399 . S
C343 C344 1.376 . S
C344 H331 0.930 . S
C344 C343 1.376 . S
C344 C345 1.388 . S
C345 H332 0.930 . S
C345 C344 1.388 . S
C345 C346 1.390 . S
C346 C345 1.390 . S
C346 C347 1.394 . S
C346 C352 1.465 . S
C347 C342 1.399 . S
C347 C346 1.394 . S
C347 C348 1.516 . S
C348 C347 1.516 . S
C348 C349 1.502 . S
C348 C350 1.561 . S
C348 C351 1.526 . S
C349 H333 0.959 . S
C349 H334 0.959 . S
C349 H335 0.961 . S
C349 C348 1.502 . S
C350 H336 0.960 . S
C350 H337 0.961 . S
C350 H338 0.959 . S
C350 C348 1.561 . S
C351 C348 1.526 . S
C351 C352 1.396 . S
C351 C356 1.390 . S
C352 C346 1.465 . S
C352 C351 1.396 . S
C352 C353 1.399 . S
C353 H339 0.929 . S
C353 C352 1.399 . S
C353 C354 1.385 . S
C354 H340 0.931 . S
C354 C353 1.385 . S
C354 C355 1.389 . S
C355 C354 1.389 . S
C355 C356 1.387 . S
C356 H341 0.930 . S
C356 C351 1.390 . S
C356 C355 1.387 . S
H357 C369 0.930 . S
H358 C371 0.921 1_655 S
H359 C372 0.930 . S
H360 C376 0.959 . S
H361 C376 0.959 . S
H362 C376 0.961 . S
H363 C377 0.960 . S
H364 C377 0.961 . S
H365 C377 0.959 1_655 S
H366 C380 0.929 . S
H367 C381 0.931 . S
H368 C383 0.930 1_455 S
C369 H357 0.930 . S
C369 C370 1.399 . S
C369 C374 1.399 . S
C370 C369 1.399 . S
C370 C371 1.385 . S
C371 H358 0.921 1_455 S
C371 C370 1.385 . S
C371 C372 1.389 1_455 S
C372 H359 0.930 . S
C372 C371 1.389 1_655 S
C372 C373 1.390 . S
C373 C372 1.390 . S
C373 C374 1.394 1_655 S
C373 C379 1.465 . S
C374 C369 1.399 . S
C374 C373 1.394 1_455 S
C374 C375 1.516 . S
C375 C374 1.516 . S
C375 C376 1.502 . S
C375 C377 1.561 . S
C375 C378 1.526 1_455 S
C376 H360 0.959 . S
C376 H361 0.959 . S
C376 H362 0.961 . S
C376 C375 1.502 . S
C377 H363 0.960 . S
C377 H364 0.961 . S
C377 H365 0.959 1_455 S
C377 C375 1.561 . S
C378 C375 1.526 1_655 S
C378 C379 1.396 . S
C378 C383 1.390 . S
C379 C373 1.465 . S
C379 C378 1.396 . S
C379 C380 1.399 . S
C380 H366 0.929 . S
C380 C379 1.399 . S
C380 C381 1.385 . S
C381 H367 0.931 . S
C381 C380 1.385 . S
C381 C382 1.389 . S
C382 C381 1.389 . S
C382 C383 1.387 . S
C383 H368 0.930 1_655 S
C383 C378 1.390 . S
C383 C382 1.387 . S
H384 C396 0.930 . S
H385 C398 0.930 . S
H386 C399 0.930 . S
H387 C403 0.959 . S
H388 C403 0.959 . S
H389 C403 0.961 . S
H390 C404 0.960 . S
H391 C404 0.961 . S
H392 C404 0.959 . S
H393 C407 0.930 . S
H394 C408 0.931 . S
H395 C410 0.930 . S
C396 H384 0.930 . S
C396 C397 1.399 . S
C396 C401 1.399 . S
C397 C396 1.399 . S
C397 C398 1.376 . S
C398 H385 0.930 . S
C398 C397 1.376 . S
C398 C399 1.388 . S
C399 H386 0.930 . S
C399 C398 1.388 . S
C399 C400 1.390 . S
C400 C399 1.390 . S
C400 C401 1.394 . S
C400 C406 1.465 1_545 S
C401 C396 1.399 . S
C401 C400 1.394 . S
C401 C402 1.516 1_545 S
C402 C401 1.516 1_565 S
C402 C403 1.502 . S
C402 C404 1.561 1_565 S
C402 C405 1.526 . S
C403 H387 0.959 . S
C403 H388 0.959 . S
C403 H389 0.961 . S
C403 C402 1.502 . S
C404 H390 0.960 . S
C404 H391 0.961 . S
C404 H392 0.959 . S
C404 C402 1.561 1_545 S
C405 C402 1.526 . S
C405 C406 1.396 . S
C405 C410 1.390 . S
C406 C400 1.465 1_565 S
C406 C405 1.396 . S
C406 C407 1.399 . S
C407 H393 0.930 . S
C407 C406 1.399 . S
C407 C408 1.385 . S
C408 H394 0.931 . S
C408 C407 1.385 . S
C408 C409 1.389 . S
C409 C408 1.389 . S
C409 C410 1.387 . S
C410 H395 0.930 . S
C410 C405 1.390 . S
C410 C409 1.387 . S
H411 C423 0.930 . S
H412 C425 0.930 . S
H413 C426 0.930 . S
H414 C430 0.959 . S
H415 C430 0.959 . S
H416 C430 0.961 . S
H417 C431 0.960 . S
H418 C431 0.961 . S
H419 C431 0.959 . S
H420 C434 0.929 . S
H421 C435 0.931 . S
H422 C437 0.930 . S
C423 H411 0.930 . S
C423 C424 1.399 . S
C423 C428 1.399 . S
C424 C423 1.399 . S
C424 C425 1.376 . S
C425 H412 0.930 . S
C425 C424 1.376 . S
C425 C426 1.388 . S
C426 H413 0.930 . S
C426 C425 1.388 . S
C426 C427 1.390 . S
C427 C426 1.390 . S
C427 C428 1.394 . S
C427 C433 1.465 . S
C428 C423 1.399 . S
C428 C427 1.394 . S
C428 C429 1.516 . S
C429 C428 1.516 . S
C429 C430 1.502 . S
C429 C431 1.561 . S
C429 C432 1.526 . S
C430 H414 0.959 . S
C430 H415 0.959 . S
C430 H416 0.961 . S
C430 C429 1.502 . S
C431 H417 0.960 . S
C431 H418 0.961 . S
C431 H419 0.959 . S
C431 C429 1.561 . S
C432 C429 1.526 . S
C432 C433 1.396 . S
C432 C437 1.390 . S
C433 C427 1.465 . S
C433 C432 1.396 . S
C433 C434 1.399 . S
C434 H420 0.929 . S
C434 C433 1.399 . S
C434 C435 1.385 . S
C435 H421 0.931 . S
C435 C434 1.385 . S
C435 C436 1.389 . S
C436 C435 1.389 . S
C436 C437 1.387 . S
C437 H422 0.930 . S
C437 C432 1.390 . S
C437 C436 1.387 . S
H438 C450 0.930 . S
H439 C452 0.930 . S
H440 C453 0.930 . S
H441 C457 0.959 . S
H442 C457 0.959 . S
H443 C457 0.961 . S
H444 C458 0.960 . S
H445 C458 0.961 1_455 S
H446 C458 0.959 . S
H447 C461 0.929 . S
H448 C462 0.931 . S
H449 C464 0.930 . S
C450 H438 0.930 . S
C450 C451 1.399 . S
C450 C455 1.399 . S
C451 C450 1.399 . S
C451 C452 1.376 . S
C452 H439 0.930 . S
C452 C451 1.376 . S
C452 C453 1.388 . S
C453 H440 0.930 . S
C453 C452 1.388 . S
C453 C454 1.390 . S
C454 C453 1.390 . S
C454 C455 1.394 . S
C454 C460 1.465 . S
C455 C450 1.399 . S
C455 C454 1.394 . S
C455 C456 1.516 1_655 S
C456 C455 1.516 1_455 S
C456 C457 1.502 . S
C456 C458 1.561 1_455 S
C456 C459 1.526 . S
C457 H441 0.959 . S
C457 H442 0.959 . S
C457 H443 0.961 . S
C457 C456 1.502 . S
C458 H444 0.960 . S
C458 H445 0.961 1_655 S
C458 H446 0.959 . S
C458 C456 1.561 1_655 S
C459 C456 1.526 . S
C459 C460 1.396 1_455 S
C459 C464 1.390 . S
C460 C454 1.465 . S
C460 C459 1.396 1_655 S
C460 C461 1.399 . S
C461 H447 0.929 . S
C461 C460 1.399 . S
C461 C462 1.385 1_655 S
C462 H448 0.931 . S
C462 C461 1.385 1_455 S
C462 C463 1.389 . S
C463 C462 1.389 . S
C463 C464 1.387 . S
C464 H449 0.930 . S
C464 C459 1.390 . S
C464 C463 1.387 . S
H465 C477 0.930 . S
H466 C479 0.930 . S
H467 C480 0.930 . S
H468 C484 0.959 . S
H469 C484 0.959 . S
H470 C484 0.961 . S
H471 C485 0.960 . S
H472 C485 0.961 . S
H473 C485 0.959 . S
H474 C488 0.929 . S
H475 C489 0.931 . S
H476 C491 0.930 1_565 S
C477 H465 0.930 . S
C477 C478 1.399 . S
C477 C482 1.399 . S
C478 C477 1.399 . S
C478 C479 1.376 1_565 S
C479 H466 0.930 . S
C479 C478 1.376 1_545 S
C479 C480 1.388 . S
C480 H467 0.930 . S
C480 C479 1.388 . S
C480 C481 1.390 . S
C481 C480 1.390 . S
C481 C482 1.394 1_545 S
C481 C487 1.465 . S
C482 C477 1.399 . S
C482 C481 1.394 1_565 S
C482 C483 1.516 . S
C483 C482 1.516 . S
C483 C484 1.502 . S
C483 C485 1.561 . S
C483 C486 1.526 . S
C484 H468 0.959 . S
C484 H469 0.959 . S
C484 H470 0.961 . S
C484 C483 1.502 . S
C485 H471 0.960 . S
C485 H472 0.961 . S
C485 H473 0.959 . S
C485 C483 1.561 . S
C486 C483 1.526 . S
C486 C487 1.396 1_565 S
C486 C491 1.390 1_565 S
C487 C481 1.465 . S
C487 C486 1.396 1_545 S
C487 C488 1.399 . S
C488 H474 0.929 . S
C488 C487 1.399 . S
C488 C489 1.385 . S
C489 H475 0.931 . S
C489 C488 1.385 . S
C489 C490 1.389 . S
C490 C489 1.389 . S
C490 C491 1.387 . S
C491 H476 0.930 1_545 S
C491 C486 1.390 1_545 S
C491 C490 1.387 . S
H492 C504 0.930 . S
H493 C506 0.930 . S
H494 C507 0.930 . S
H495 C511 0.959 . S
H496 C511 0.959 . S
H497 C511 0.961 . S
H498 C512 0.960 . S
H499 C512 0.961 . S
H500 C512 0.959 . S
H501 C515 0.929 . S
H502 C516 0.931 . S
H503 C518 0.930 . S
C504 H492 0.930 . S
C504 C505 1.399 . S
C504 C509 1.399 . S
C505 C504 1.399 . S
C505 C506 1.376 . S
C506 H493 0.930 . S
C506 C505 1.376 . S
C506 C507 1.388 . S
C507 H494 0.930 . S
C507 C506 1.388 . S
C507 C508 1.390 . S
C508 C507 1.390 . S
C508 C509 1.394 . S
C508 C514 1.465 . S
C509 C504 1.399 . S
C509 C508 1.394 . S
C509 C510 1.516 . S
C510 C509 1.516 . S
C510 C511 1.502 . S
C510 C512 1.561 . S
C510 C513 1.526 . S
C511 H495 0.959 . S
C511 H496 0.959 . S
C511 H497 0.961 . S
C511 C510 1.502 . S
C512 H498 0.960 . S
C512 H499 0.961 . S
C512 H500 0.959 . S
C512 C510 1.561 . S
C513 C510 1.526 . S
C513 C514 1.396 . S
C513 C518 1.390 . S
C514 C508 1.465 . S
C514 C513 1.396 . S
C514 C515 1.399 . S
C515 H501 0.929 . S
C515 C514 1.399 . S
C515 C516 1.385 . S
C516 H502 0.931 . S
C516 C515 1.385 . S
C516 C517 1.389 . S
C517 C516 1.389 . S
C517 C518 1.387 . S
C518 H503 0.930 . S
C518 C513 1.390 . S
C518 C517 1.387 . S
H519 C531 0.930 . S
H520 C533 0.930 . S
H521 C534 0.930 . S
H522 C538 0.959 . S
H523 C538 0.959 . S
H524 C538 0.961 . S
H525 C539 0.960 . S
H526 C539 0.961 . S
H527 C539 0.959 1_655 S
H528 C542 0.929 . S
H529 C543 0.931 . S
H530 C545 0.930 . S
C531 H519 0.930 . S
C531 C532 1.399 . S
C531 C536 1.399 . S
C532 C531 1.399 . S
C532 C533 1.376 . S
C533 H520 0.930 . S
C533 C532 1.376 . S
C533 C534 1.388 . S
C534 H521 0.930 . S
C534 C533 1.388 . S
C534 C535 1.390 . S
C535 C534 1.390 . S
C535 C536 1.394 . S
C535 C541 1.465 . S
C536 C531 1.399 . S
C536 C535 1.394 . S
C536 C537 1.516 1_655 S
C537 C536 1.516 1_455 S
C537 C538 1.502 . S
C537 C539 1.561 . S
C537 C540 1.526 . S
C538 H522 0.959 . S
C538 H523 0.959 . S
C538 H524 0.961 . S
C538 C537 1.502 . S
C539 H525 0.960 . S
C539 H526 0.961 . S
C539 H527 0.959 1_455 S
C539 C537 1.561 . S
C540 C537 1.526 . S
C540 C541 1.396 1_455 S
C540 C545 1.390 . S
C541 C535 1.465 . S
C541 C540 1.396 1_655 S
C541 C542 1.399 . S
C542 H528 0.929 . S
C542 C541 1.399 . S
C542 C543 1.385 1_655 S
C543 H529 0.931 . S
C543 C542 1.385 1_455 S
C543 C544 1.389 . S
C544 C543 1.389 . S
C544 C545 1.387 . S
C545 H530 0.930 . S
C545 C540 1.390 . S
C545 C544 1.387 . S
H546 C558 0.930 . S
H547 C560 0.929 1_545 S
H548 C561 0.930 . S
H549 C565 0.959 . S
H550 C565 0.959 . S
H551 C565 0.961 . S
H552 C566 0.960 . S
H553 C566 0.961 . S
H554 C566 0.959 . S
H555 C569 0.929 . S
H556 C570 0.931 . S
H557 C572 0.930 1_565 S
C558 H546 0.930 . S
C558 C559 1.399 . S
C558 C563 1.399 . S
C559 C558 1.399 . S
C559 C560 1.376 . S
C560 H547 0.929 1_565 S
C560 C559 1.376 . S
C560 C561 1.388 1_565 S
C561 H548 0.930 . S
C561 C560 1.388 1_545 S
C561 C562 1.390 . S
C562 C561 1.390 . S
C562 C563 1.394 1_545 S
C562 C568 1.465 1_556 S
C563 C558 1.399 . S
C563 C562 1.394 1_565 S
C563 C564 1.516 1_556 S
C564 C563 1.516 1_554 S
C564 C565 1.502 . S
C564 C566 1.561 . S
C564 C567 1.542 . S
C565 H549 0.959 . S
C565 H550 0.959 . S
C565 H551 0.961 . S
C565 C564 1.502 . S
C566 H552 0.960 . S
C566 H553 0.961 . S
C566 H554 0.959 . S
C566 C564 1.561 . S
C567 C564 1.542 . S
C567 C568 1.388 1_565 S
C567 C572 1.382 1_565 S
C568 C562 1.465 1_554 S
C568 C567 1.388 1_545 S
C568 C569 1.399 . S
C569 H555 0.929 . S
C569 C568 1.399 . S
C569 C570 1.385 . S
C570 H556 0.931 . S
C570 C569 1.385 . S
C570 C571 1.389 . S
C571 C570 1.389 . S
C571 C572 1.387 . S
C572 H557 0.930 1_545 S
C572 C567 1.382 1_545 S
C572 C571 1.387 . S
H573 C585 0.930 . S
H574 C587 0.930 . S
H575 C588 0.930 . S
H576 C592 0.959 . S
H577 C592 0.959 . S
H578 C592 0.961 . S
H579 C593 0.960 . S
H580 C593 0.961 . S
H581 C593 0.959 . S
H582 C596 0.929 . S
H583 C597 0.931 . S
H584 C599 0.930 . S
C585 H573 0.930 . S
C585 C586 1.399 . S
C585 C590 1.399 . S
C586 C585 1.399 . S
C586 C587 1.376 . S
C587 H574 0.930 . S
C587 C586 1.376 . S
C587 C588 1.388 . S
C588 H575 0.930 . S
C588 C587 1.388 . S
C588 C589 1.390 . S
C589 C588 1.390 . S
C589 C590 1.394 . S
C589 C595 1.465 . S
C590 C585 1.399 . S
C590 C589 1.394 . S
C590 C591 1.516 . S
C591 C590 1.516 . S
C591 C592 1.502 . S
C591 C593 1.561 . S
C591 C594 1.526 . S
C592 H576 0.959 . S
C592 H577 0.959 . S
C592 H578 0.961 . S
C592 C591 1.502 . S
C593 H579 0.960 . S
C593 H580 0.961 . S
C593 H581 0.959 . S
C593 C591 1.561 . S
C594 C591 1.526 . S
C594 C595 1.396 . S
C594 C599 1.390 . S
C595 C589 1.465 . S
C595 C594 1.396 . S
C595 C596 1.399 . S
C596 H582 0.929 . S
C596 C595 1.399 . S
C596 C597 1.385 . S
C597 H583 0.931 . S
C597 C596 1.385 . S
C597 C598 1.389 . S
C598 C597 1.389 . S
C598 C599 1.387 . S
C599 H584 0.930 . S
C599 C594 1.390 . S
C599 C598 1.387 . S
H600 C612 0.930 . S
H601 C614 0.930 1_655 S
H602 C615 0.930 . S
H603 C619 0.959 . S
H604 C619 0.959 . S
H605 C619 0.961 . S
H606 C620 0.960 . S
H607 C620 0.961 . S
H608 C620 0.959 . S
H609 C623 0.929 . S
H610 C624 0.931 . S
H611 C626 0.930 1_455 S
C612 H600 0.930 . S
C612 C613 1.399 . S
C612 C617 1.399 . S
C613 C612 1.399 . S
C613 C614 1.376 . S
C614 H601 0.930 1_455 S
C614 C613 1.376 . S
C614 C615 1.388 1_455 S
C615 H602 0.930 . S
C615 C614 1.388 1_655 S
C615 C616 1.390 . S
C616 C615 1.390 . S
C616 C617 1.394 1_655 S
C616 C622 1.465 . S
C617 C612 1.399 . S
C617 C616 1.394 1_455 S
C617 C618 1.516 . S
C618 C617 1.516 . S
C618 C619 1.502 . S
C618 C620 1.561 . S
C618 C621 1.526 1_455 S
C619 H603 0.959 . S
C619 H604 0.959 . S
C619 H605 0.961 . S
C619 C618 1.502 . S
C620 H606 0.960 . S
C620 H607 0.961 . S
C620 H608 0.959 . S
C620 C618 1.561 . S
C621 C618 1.526 1_655 S
C621 C622 1.396 . S
C621 C626 1.390 . S
C622 C616 1.465 . S
C622 C621 1.396 . S
C622 C623 1.399 . S
C623 H609 0.929 . S
C623 C622 1.399 . S
C623 C624 1.385 . S
C624 H610 0.931 . S
C624 C623 1.385 . S
C624 C625 1.389 . S
C625 C624 1.389 . S
C625 C626 1.387 . S
C626 H611 0.930 1_655 S
C626 C621 1.390 . S
C626 C625 1.387 . S
H627 C639 0.930 . S
H628 C641 0.930 1_545 S
H629 C642 0.930 . S
H630 C646 0.959 . S
H631 C646 0.959 . S
H632 C646 0.961 . S
H633 C647 0.960 . S
H634 C647 0.961 . S
H635 C647 0.959 . S
H636 C650 0.929 . S
H637 C651 0.931 . S
H638 C653 0.930 1_565 S
C639 H627 0.930 . S
C639 C640 1.399 . S
C639 C644 1.399 . S
C640 C639 1.399 . S
C640 C641 1.376 . S
C641 H628 0.930 1_565 S
C641 C640 1.376 . S
C641 C642 1.388 1_565 S
C642 H629 0.930 . S
C642 C641 1.388 1_545 S
C642 C643 1.390 . S
C643 C642 1.390 . S
C643 C644 1.394 1_545 S
C643 C649 1.465 1_554 S
C644 C639 1.399 . S
C644 C643 1.394 1_565 S
C644 C645 1.516 1_554 S
C645 C644 1.516 1_556 S
C645 C646 1.502 . S
C645 C647 1.561 . S
C645 C648 1.526 . S
C646 H630 0.959 . S
C646 H631 0.959 . S
C646 H632 0.961 . S
C646 C645 1.502 . S
C647 H633 0.960 . S
C647 H634 0.961 . S
C647 H635 0.959 . S
C647 C645 1.561 . S
C648 C645 1.526 . S
C648 C649 1.396 1_565 S
C648 C653 1.390 1_565 S
C649 C643 1.465 1_556 S
C649 C648 1.396 1_545 S
C649 C650 1.399 . S
C650 H636 0.929 . S
C650 C649 1.399 . S
C650 C651 1.385 . S
C651 H637 0.931 . S
C651 C650 1.385 . S
C651 C652 1.389 . S
C652 C651 1.389 . S
C652 C653 1.387 . S
C653 H638 0.930 1_545 S
C653 C648 1.390 1_545 S
C653 C652 1.387 . S
H654 C666 0.930 . S
H655 C668 0.930 . S
H656 C669 0.930 . S
H657 C673 0.959 . S
H658 C673 0.959 . S
H659 C673 0.961 1_655 S
H660 C674 0.960 . S
H661 C674 0.961 1_455 S
H662 C674 0.959 1_455 S
H663 C677 0.929 . S
H664 C678 0.931 . S
H665 C680 0.930 . S
C666 H654 0.930 . S
C666 C667 1.399 . S
C666 C671 1.399 . S
C667 C666 1.399 . S
C667 C668 1.376 . S
C668 H655 0.930 . S
C668 C667 1.376 . S
C668 C669 1.388 . S
C669 H656 0.930 . S
C669 C668 1.388 . S
C669 C670 1.390 . S
C670 C669 1.390 . S
C670 C671 1.394 . S
C670 C676 1.465 1_655 S
C671 C666 1.399 . S
C671 C670 1.394 . S
C671 C672 1.504 1_655 S
C672 C671 1.504 1_455 S
C672 C673 1.509 . S
C672 C674 1.550 1_455 S
C672 C675 1.543 . S
C673 H657 0.959 . S
C673 H658 0.959 . S
C673 H659 0.961 1_455 S
C673 C672 1.509 . S
C674 H660 0.960 . S
C674 H661 0.961 1_655 S
C674 H662 0.959 1_655 S
C674 C672 1.550 1_655 S
C675 C672 1.543 . S
C675 C676 1.396 . S
C675 C680 1.390 . S
C676 C670 1.465 1_455 S
C676 C675 1.396 . S
C676 C677 1.399 . S
C677 H663 0.929 . S
C677 C676 1.399 . S
C677 C678 1.385 . S
C678 H664 0.931 . S
C678 C677 1.385 . S
C678 C679 1.389 . S
C679 C678 1.389 . S
C679 C680 1.387 . S
C680 H665 0.930 . S
C680 C675 1.390 . S
C680 C679 1.387 . S
H681 C693 0.930 . S
H682 C695 0.930 . S
H683 C696 0.930 . S
H684 C700 0.959 . S
H685 C700 0.959 . S
H686 C700 0.961 1_545 S
H687 C701 0.960 1_545 S
H688 C701 0.961 . S
H689 C701 0.959 . S
H690 C704 0.929 . S
H691 C705 0.931 . S
H692 C707 0.930 . S
C693 H681 0.930 . S
C693 C694 1.399 . S
C693 C698 1.399 . S
C694 C693 1.399 . S
C694 C695 1.376 . S
C695 H682 0.930 . S
C695 C694 1.376 . S
C695 C696 1.388 . S
C696 H683 0.930 . S
C696 C695 1.388 . S
C696 C697 1.390 . S
C697 C696 1.390 . S
C697 C698 1.394 . S
C697 C703 1.465 1_545 S
C698 C693 1.399 . S
C698 C697 1.394 . S
C698 C699 1.516 1_545 S
C699 C698 1.516 1_565 S
C699 C700 1.502 . S
C699 C701 1.561 . S
C699 C702 1.526 . S
C700 H684 0.959 . S
C700 H685 0.959 . S
C700 H686 0.961 1_565 S
C700 C699 1.502 . S
C701 H687 0.960 1_565 S
C701 H688 0.961 . S
C701 H689 0.959 . S
C701 C699 1.561 . S
C702 C699 1.526 . S
C702 C703 1.396 . S
C702 C707 1.390 . S
C703 C697 1.465 1_565 S
C703 C702 1.396 . S
C703 C704 1.399 . S
C704 H690 0.929 . S
C704 C703 1.399 . S
C704 C705 1.385 . S
C705 H691 0.931 . S
C705 C704 1.385 . S
C705 C706 1.389 . S
C706 C705 1.389 . S
C706 C707 1.387 . S
C707 H692 0.930 . S
C707 C702 1.390 . S
C707 C706 1.387 . S
H708 C720 0.930 . S
H709 C722 0.930 . S
H710 C723 0.930 . S
H711 C727 0.959 . S
H712 C727 0.959 . S
H713 C727 0.961 . S
H714 C728 0.960 . S
H715 C728 0.961 . S
H716 C728 0.959 . S
H717 C731 0.929 . S
H718 C732 0.931 . S
H719 C734 0.930 . S
C720 H708 0.930 . S
C720 C721 1.399 . S
C720 C725 1.399 . S
C721 C720 1.399 . S
C721 C722 1.376 . S
C722 H709 0.930 . S
C722 C721 1.376 . S
C722 C723 1.388 . S
C723 H710 0.930 . S
C723 C722 1.388 . S
C723 C724 1.390 . S
C724 C723 1.390 . S
C724 C725 1.394 . S
C724 C730 1.465 . S
C725 C720 1.399 . S
C725 C724 1.394 . S
C725 C726 1.516 . S
C726 C725 1.516 . S
C726 C727 1.502 . S
C726 C728 1.561 . S
C726 C729 1.526 . S
C727 H711 0.959 . S
C727 H712 0.959 . S
C727 H713 0.961 . S
C727 C726 1.502 . S
C728 H714 0.960 . S
C728 H715 0.961 . S
C728 H716 0.959 . S
C728 C726 1.561 . S
C729 C726 1.526 . S
C729 C730 1.396 . S
C729 C734 1.390 . S
C730 C724 1.465 . S
C730 C729 1.396 . S
C730 C731 1.399 . S
C731 H717 0.929 . S
C731 C730 1.399 . S
C731 C732 1.385 . S
C732 H718 0.931 . S
C732 C731 1.385 . S
C732 C733 1.389 . S
C733 C732 1.389 . S
C733 C734 1.387 . S
C734 H719 0.930 . S
C734 C729 1.390 . S
C734 C733 1.387 . S
H735 C747 0.930 . S
H736 C749 0.930 . S
H737 C750 0.930 . S
H738 C754 0.959 . S
H739 C754 0.959 1_455 S
H740 C754 0.961 . S
H741 C755 0.960 . S
H742 C755 0.961 1_455 S
H743 C755 0.958 . S
H744 C758 0.929 . S
H745 C759 0.931 . S
H746 C761 0.930 . S
C747 H735 0.930 . S
C747 C748 1.399 . S
C747 C752 1.399 . S
C748 C747 1.399 . S
C748 C749 1.376 . S
C749 H736 0.930 . S
C749 C748 1.376 . S
C749 C750 1.388 . S
C750 H737 0.930 . S
C750 C749 1.388 . S
C750 C751 1.390 . S
C751 C750 1.390 . S
C751 C752 1.394 . S
C751 C757 1.465 1_655 S
C752 C747 1.399 . S
C752 C751 1.394 . S
C752 C753 1.516 . S
C753 C752 1.516 . S
C753 C754 1.502 . S
C753 C755 1.561 . S
C753 C756 1.526 1_655 S
C754 H738 0.959 . S
C754 H739 0.959 1_655 S
C754 H740 0.961 . S
C754 C753 1.502 . S
C755 H741 0.960 . S
C755 H742 0.961 1_655 S
C755 H743 0.958 . S
C755 C753 1.561 . S
C756 C753 1.526 1_455 S
C756 C757 1.396 . S
C756 C761 1.390 . S
C757 C751 1.465 1_455 S
C757 C756 1.396 . S
C757 C758 1.399 . S
C758 H744 0.929 . S
C758 C757 1.399 . S
C758 C759 1.385 . S
C759 H745 0.931 . S
C759 C758 1.385 . S
C759 C760 1.389 . S
C760 C759 1.389 . S
C760 C761 1.387 . S
C761 H746 0.930 . S
C761 C756 1.390 . S
C761 C760 1.387 . S
H762 C774 0.930 . S
H763 C776 0.930 . S
H764 C777 0.930 . S
H765 C781 0.951 1_545 S
H766 C781 0.959 1_545 S
H767 C781 0.961 . S
H768 C782 0.960 . S
H769 C782 0.961 1_545 S
H770 C782 0.959 . S
H771 C785 0.929 . S
H772 C786 0.931 . S
H773 C788 0.930 . S
C774 H762 0.930 . S
C774 C775 1.399 . S
C774 C779 1.399 . S
C775 C774 1.399 . S
C775 C776 1.376 . S
C776 H763 0.930 . S
C776 C775 1.376 . S
C776 C777 1.388 . S
C777 H764 0.930 . S
C777 C776 1.388 . S
C777 C778 1.390 . S
C778 C777 1.390 . S
C778 C779 1.394 . S
C778 C784 1.465 1_565 S
C779 C774 1.399 . S
C779 C778 1.394 . S
C779 C780 1.516 . S
C780 C779 1.516 . S
C780 C781 1.502 . S
C780 C782 1.561 . S
C780 C783 1.526 1_565 S
C781 H765 0.951 1_565 S
C781 H766 0.959 1_565 S
C781 H767 0.961 . S
C781 C780 1.502 . S
C782 H768 0.960 . S
C782 H769 0.961 1_565 S
C782 H770 0.959 . S
C782 C780 1.561 . S
C783 C780 1.526 1_545 S
C783 C784 1.396 . S
C783 C788 1.390 . S
C784 C778 1.465 1_545 S
C784 C783 1.396 . S
C784 C785 1.399 . S
C785 H771 0.929 . S
C785 C784 1.399 . S
C785 C786 1.385 . S
C786 H772 0.931 . S
C786 C785 1.385 . S
C786 C787 1.389 . S
C787 C786 1.389 . S
C787 C788 1.387 . S
C788 H773 0.930 . S
C788 C783 1.390 . S
C788 C787 1.387 . S
H789 C801 0.930 . S
H790 C803 0.930 . S
H791 C804 0.930 . S
H792 C808 0.959 . S
H793 C808 0.959 . S
H794 C808 0.961 . S
H795 C809 0.960 . S
H796 C809 0.961 . S
H797 C809 0.959 . S
H798 C812 0.929 . S
H799 C813 0.931 . S
H800 C815 0.930 . S
C801 H789 0.930 . S
C801 C802 1.399 . S
C801 C806 1.399 . S
C802 C801 1.399 . S
C802 C803 1.376 . S
C803 H790 0.930 . S
C803 C802 1.376 . S
C803 C804 1.388 . S
C804 H791 0.930 . S
C804 C803 1.388 . S
C804 C805 1.390 . S
C805 C804 1.390 . S
C805 C806 1.394 . S
C805 C811 1.465 . S
C806 C801 1.399 . S
C806 C805 1.394 . S
C806 C807 1.516 . S
C807 C806 1.516 . S
C807 C808 1.502 . S
C807 C809 1.561 . S
C807 C810 1.526 . S
C808 H792 0.959 . S
C808 H793 0.959 . S
C808 H794 0.961 . S
C808 C807 1.502 . S
C809 H795 0.960 . S
C809 H796 0.961 . S
C809 H797 0.959 . S
C809 C807 1.561 . S
C810 C807 1.526 . S
C810 C811 1.396 . S
C810 C815 1.390 . S
C811 C805 1.465 . S
C811 C810 1.396 . S
C811 C812 1.399 . S
C812 H798 0.929 . S
C812 C811 1.399 . S
C812 C813 1.385 . S
C813 H799 0.931 . S
C813 C812 1.385 . S
C813 C814 1.389 . S
C814 C813 1.389 . S
C814 C815 1.387 . S
C815 H800 0.930 . S
C815 C810 1.390 . S
C815 C814 1.387 . S
C181 C117 1.816 . S
C193 C5 1.803 . S
C208 C23 1.751 . S
C220 C135 1.751 . S
C235 C33 1.815 . S
C247 C145 1.803 . S
C262 C47 1.809 . S
C274 C159 1.817 . S
C289 C93 1.755 . S
C301 C65 1.756 . S
C316 C75 1.807 . S
C328 C103 1.818 . S
C343 C51 0.999 . S
C355 C9 0.962 . S
C370 C61 0.998 . S
C382 C19 0.936 . S
C397 C79 0.989 . S
C409 C37 1.013 . S
C424 C89 0.921 . S
C436 C131 0.876 . S
C451 C107 0.862 . S
C463 C149 0.907 . S
C478 C121 1.091 . S
C490 C163 1.042 . S
C505 C11 1.556 . S
C517 C126 1.562 . S
C532 C14 1.549 . S
C544 C151 1.562 . S
C559 C39 1.576 . S
C571 C165 1.566 . S
C586 C84 1.560 . S
C598 C53 1.566 . S
C613 C56 1.544 . S
C625 C109 1.535 . S
C640 C123 1.575 . S
C652 C81 1.563 . S
C667 C154 1.261 . S
C679 C0 1.241 . S
C694 C25 1.186 . S
C706 C95 1.216 . S
C721 C98 1.270 . S
C733 C28 1.235 . S
C748 C42 1.248 . S
C760 C112 1.218 . S
C775 C67 1.182 . S
C787 C137 1.150 . S
C802 C140 1.262 . S
C814 C70 1.227 . S
