# Generated by pormake.
# Topology wka, (5)-cn, num edge types: 1
# Building blocks:
#     Node 0, Type 0, BuildingBlock: XOMCOT_clean_sbu_1, # of connection points: 5
#     Node 1, Type 0, BuildingBlock: XOMCOT_clean_sbu_1, # of connection points: 5
#     Node 2, Type 0, BuildingBlock: XOMCOT_clean_sbu_1, # of connection points: 5
#     Node 3, Type 0, BuildingBlock: XOMCOT_clean_sbu_1, # of connection points: 5
#     Node 4, Type 0, BuildingBlock: XOMCOT_clean_sbu_1, # of connection points: 5
#     Node 5, Type 0, BuildingBlock: XOMCOT_clean_sbu_1, # of connection points: 5
#     Node 6, Type 0, BuildingBlock: XOMCOT_clean_sbu_1, # of connection points: 5
#     Node 7, Type 0, BuildingBlock: XOMCOT_clean_sbu_1, # of connection points: 5
#     Node 8, Type 0, BuildingBlock: XOMCOT_clean_sbu_1, # of connection points: 5
#     Node 9, Type 0, BuildingBlock: XOMCOT_clean_sbu_1, # of connection points: 5
#     Node 10, Type 0, BuildingBlock: XOMCOT_clean_sbu_1, # of connection points: 5
#     Node 11, Type 0, BuildingBlock: XOMCOT_clean_sbu_1, # of connection points: 5
#     Edge 12, Type (0, 0), BuildingBlock: ZUJKAS_clean_linker_0, # of connection points: 2
#     Edge 13, Type (0, 0), BuildingBlock: ZUJKAS_clean_linker_0, # of connection points: 2
#     Edge 14, Type (0, 0), BuildingBlock: ZUJKAS_clean_linker_0, # of connection points: 2
#     Edge 15, Type (0, 0), BuildingBlock: ZUJKAS_clean_linker_0, # of connection points: 2
#     Edge 16, Type (0, 0), BuildingBlock: ZUJKAS_clean_linker_0, # of connection points: 2
#     Edge 17, Type (0, 0), BuildingBlock: ZUJKAS_clean_linker_0, # of connection points: 2
#     Edge 18, Type (0, 0), BuildingBlock: ZUJKAS_clean_linker_0, # of connection points: 2
#     Edge 19, Type (0, 0), BuildingBlock: ZUJKAS_clean_linker_0, # of connection points: 2
#     Edge 20, Type (0, 0), BuildingBlock: ZUJKAS_clean_linker_0, # of connection points: 2
#     Edge 21, Type (0, 0), BuildingBlock: ZUJKAS_clean_linker_0, # of connection points: 2
#     Edge 22, Type (0, 0), BuildingBlock: ZUJKAS_clean_linker_0, # of connection points: 2
#     Edge 23, Type (0, 0), BuildingBlock: ZUJKAS_clean_linker_0, # of connection points: 2
#     Edge 24, Type (0, 0), BuildingBlock: ZUJKAS_clean_linker_0, # of connection points: 2
#     Edge 25, Type (0, 0), BuildingBlock: ZUJKAS_clean_linker_0, # of connection points: 2
#     Edge 26, Type (0, 0), BuildingBlock: ZUJKAS_clean_linker_0, # of connection points: 2
#     Edge 27, Type (0, 0), BuildingBlock: ZUJKAS_clean_linker_0, # of connection points: 2
#     Edge 28, Type (0, 0), BuildingBlock: ZUJKAS_clean_linker_0, # of connection points: 2
#     Edge 29, Type (0, 0), BuildingBlock: ZUJKAS_clean_linker_0, # of connection points: 2
#     Edge 30, Type (0, 0), BuildingBlock: ZUJKAS_clean_linker_0, # of connection points: 2
#     Edge 31, Type (0, 0), BuildingBlock: ZUJKAS_clean_linker_0, # of connection points: 2
#     Edge 32, Type (0, 0), BuildingBlock: ZUJKAS_clean_linker_0, # of connection points: 2
#     Edge 33, Type (0, 0), BuildingBlock: ZUJKAS_clean_linker_0, # of connection points: 2
#     Edge 34, Type (0, 0), BuildingBlock: ZUJKAS_clean_linker_0, # of connection points: 2
#     Edge 35, Type (0, 0), BuildingBlock: ZUJKAS_clean_linker_0, # of connection points: 2
#     Edge 36, Type (0, 0), BuildingBlock: ZUJKAS_clean_linker_0, # of connection points: 2
#     Edge 37, Type (0, 0), BuildingBlock: ZUJKAS_clean_linker_0, # of connection points: 2
#     Edge 38, Type (0, 0), BuildingBlock: ZUJKAS_clean_linker_0, # of connection points: 2
#     Edge 39, Type (0, 0), BuildingBlock: ZUJKAS_clean_linker_0, # of connection points: 2
#     Edge 40, Type (0, 0), BuildingBlock: ZUJKAS_clean_linker_0, # of connection points: 2
#     Edge 41, Type (0, 0), BuildingBlock: ZUJKAS_clean_linker_0, # of connection points: 2
# Relax obj value: 0.225
# Max RMSD: 0.178
# Mean RMSD: 0.178
data_MOF--net-wka--node1-XOMCOT_clean_sbu_1--edge1-ZUJKAS_clean_linker_0
_symmetry_space_group_name_H-M    P1
_symmetry_Int_Tables_number       1
_symmetry_cell_setting            triclinic
loop_
_symmetry_equiv_pos_as_xyz
'x, y, z'
_cell_length_a     86.422214
_cell_length_b     86.320914
_cell_length_c     21.352679
_cell_angle_alpha  89.988688
_cell_angle_beta   90.040186
_cell_angle_gamma 120.00361
loop_
_atom_site_label
_atom_site_type_symbol
_atom_site_fract_x
_atom_site_fract_y
_atom_site_fract_z
_atom_type_partial_charge
C0 C 0.13944 0.45035 0.01863 0.0
C1 C 0.14491 0.45223 0.95718 0.0
N2 N 0.13548 0.43621 0.9288 0.0
N3 N 0.12658 0.43326 0.02841 0.0
C4 C 0.12465 0.42493 0.97329 0.0
H5 H 0.14419 0.4608 0.05361 0.0
Co6 Co 0.11433 0.42367 0.10192 0.0
C7 C 0.077 0.40084 0.05844 0.0
O8 O 0.07219 0.40803 0.10317 0.0
N9 N 0.10281 0.41384 0.1781 0.0
C10 C 0.08941 0.39404 0.25492 0.0
C11 C 0.08999 0.39685 0.19141 0.0
C12 C 0.11035 0.42067 0.23418 0.0
N13 N 0.10241 0.40903 0.28152 0.0
O14 O 0.1252 0.40886 0.10866 0.0
H15 H 0.08277 0.38643 0.15737 0.0
H16 H 0.12251 0.43335 0.23962 0.0
O17 O 0.0935 0.40523 0.05343 0.0
C18 C 0.13996 0.41816 0.13776 0.0
O19 O 0.14497 0.43493 0.15031 0.0
N20 N 0.10535 0.43988 0.09768 0.0
C21 C 0.09813 0.4681 0.08851 0.0
C22 C 0.09359 0.45571 0.03963 0.0
C23 C 0.09762 0.44193 0.04461 0.0
C24 C 0.11005 0.45203 0.14503 0.0
C25 C 0.10633 0.46599 0.1419 0.0
H26 H 0.09518 0.43337 0.00453 0.0
H27 H 0.11764 0.4517 0.18425 0.0
H28 H 0.11541 0.41086 0.96587 0.0
H29 H 0.15456 0.46456 0.93468 0.0
H30 H 0.08126 0.38145 0.2788 0.0
H31 H 0.08778 0.45715 -0.00337 0.0
H32 H 0.1103 0.47535 0.18052 0.0
C33 C 0.69676 0.13821 0.18289 0.0
C34 C 0.69971 0.14307 0.12073 0.0
N35 N 0.70576 0.13317 0.09237 0.0
N36 N 0.70077 0.12521 0.19321 0.0
C37 C 0.70646 0.12263 0.13754 0.0
H38 H 0.69136 0.14328 0.21778 0.0
Co39 Co 0.69703 0.11235 0.26644 0.0
C40 C 0.7008 0.08173 0.21863 0.0
O41 O 0.71284 0.0841 0.26094 0.0
N42 N 0.69319 0.09959 0.34022 0.0
C43 C 0.68271 0.07902 0.41523 0.0
C44 C 0.68236 0.08201 0.35199 0.0
C45 C 0.69974 0.10698 0.3965 0.0
N46 N 0.69362 0.09482 0.44305 0.0
O47 O 0.72261 0.12233 0.27579 0.0
H48 H 0.67424 0.07213 0.31731 0.0
H49 H 0.70854 0.12114 0.40346 0.0
O50 O 0.69412 0.09197 0.21793 0.0
C51 C 0.72871 0.13779 0.3006 0.0
O52 O 0.71752 0.14372 0.30951 0.0
N53 N 0.67257 0.1043 0.26101 0.0
C54 C 0.63752 0.09784 0.25958 0.0
C55 C 0.6433 0.08992 0.21474 0.0
C56 C 0.66101 0.09345 0.21591 0.0
C57 C 0.6671 0.11188 0.30527 0.0
C58 C 0.64966 0.10876 0.30565 0.0
H59 H 0.66549 0.08792 0.17957 0.0
H60 H 0.67653 0.12072 0.33988 0.0
H61 H 0.71009 0.1125 0.12931 0.0
H62 H 0.69707 0.1527 0.09787 0.0
H63 H 0.67495 0.06635 0.43909 0.0
H64 H 0.63443 0.08159 0.17786 0.0
H65 H 0.64576 0.115 0.34154 0.0
C66 C 0.56484 0.69054 0.35874 0.0
C67 C 0.56195 0.69308 0.29719 0.0
N68 N 0.57777 0.70063 0.26729 0.0
N69 N 0.58234 0.69615 0.36689 0.0
C70 C 0.58993 0.70249 0.3106 0.0
H71 H 0.5548 0.6845 0.3949 0.0
Co72 Co 0.59285 0.69443 0.44028 0.0
C73 C 0.61458 0.67891 0.39346 0.0
O74 O 0.60731 0.66669 0.43752 0.0
N75 N 0.60346 0.69366 0.51593 0.0
C76 C 0.62238 0.69711 0.5929 0.0
C77 C 0.61944 0.69508 0.52938 0.0
C78 C 0.59763 0.69609 0.57171 0.0
N79 N 0.60866 0.69786 0.6191 0.0
O80 O 0.60783 0.72013 0.44238 0.0
H81 H 0.62918 0.69609 0.49565 0.0
H82 H 0.58583 0.69731 0.57713 0.0
O83 O 0.61068 0.69142 0.3903 0.0
C84 C 0.5988 0.72714 0.46239 0.0
O85 O 0.58173 0.71655 0.47431 0.0
N86 N 0.57661 0.66917 0.44063 0.0
C87 C 0.54829 0.63369 0.43744 0.0
C88 C 0.55935 0.64133 0.38516 0.0
C89 C 0.57329 0.65908 0.38748 0.0
C90 C 0.56583 0.6619 0.49164 0.0
C91 C 0.55185 0.64416 0.49143 0.0
H92 H 0.581 0.66492 0.34547 0.0
H93 H 0.56726 0.66999 0.53187 0.0
H94 H 0.60397 0.70773 0.30087 0.0
H95 H 0.54921 0.68942 0.2758 0.0
H96 H 0.63423 0.69914 0.61738 0.0
H97 H 0.55701 0.63379 0.34223 0.0
H98 H 0.5433 0.63902 0.53219 0.0
C99 C 0.88167 0.56102 0.52846 0.0
C100 C 0.87649 0.55779 0.4667 0.0
N101 N 0.88358 0.57365 0.43705 0.0
N102 N 0.89228 0.57879 0.53695 0.0
C103 C 0.89298 0.58616 0.48065 0.0
H104 H 0.87832 0.55106 0.56461 0.0
Co105 Co 0.90361 0.59004 0.6106 0.0
C106 C 0.94102 0.61399 0.56844 0.0
O107 O 0.94645 0.6083 0.61617 0.0
N108 N 0.9141 0.60137 0.68643 0.0
C109 C 0.92778 0.62154 0.76209 0.0
C110 C 0.92706 0.61839 0.69878 0.0
C111 C 0.90635 0.59501 0.74262 0.0
N112 N 0.91463 0.60681 0.78924 0.0
O113 O 0.89169 0.6039 0.609 0.0
H114 H 0.93462 0.62851 0.66422 0.0
H115 H 0.89415 0.58238 0.74889 0.0
O116 O 0.92428 0.60833 0.56129 0.0
C117 C 0.87571 0.59429 0.62893 0.0
O118 O 0.87012 0.57746 0.64275 0.0
N119 N 0.91385 0.5749 0.61448 0.0
C120 C 0.92194 0.54715 0.61393 0.0
C121 C 0.92694 0.55923 0.56377 0.0
C122 C 0.92249 0.57273 0.56439 0.0
C123 C 0.90891 0.56325 0.66354 0.0
C124 C 0.91298 0.54949 0.6646 0.0
H125 H 0.92516 0.58082 0.52283 0.0
H126 H 0.90065 0.56366 0.70034 0.0
H127 H 0.9007 0.60037 0.47125 0.0
H128 H 0.8683 0.54484 0.44506 0.0
H129 H 0.93636 0.63407 0.78575 0.0
H130 H 0.93375 0.55795 0.52326 0.0
H131 H 0.90818 0.54014 0.70331 0.0
C132 C 0.3219 0.8741 0.66922 0.0
C133 C 0.319 0.86925 0.60704 0.0
N134 N 0.31211 0.87847 0.57917 0.0
N135 N 0.31699 0.88642 0.68004 0.0
C136 C 0.31087 0.88862 0.62466 0.0
H137 H 0.32776 0.86943 0.70387 0.0
Co138 Co 0.31977 0.8988 0.75381 0.0
C139 C 0.31588 0.92934 0.70804 0.0
O140 O 0.30404 0.92674 0.75143 0.0
N141 N 0.32257 0.911 0.82786 0.0
C142 C 0.33213 0.93093 0.90478 0.0
C143 C 0.33352 0.9284 0.84183 0.0
C144 C 0.31484 0.90322 0.88246 0.0
N145 N 0.32041 0.91501 0.93022 0.0
O146 O 0.2941 0.88856 0.75957 0.0
H147 H 0.34242 0.93844 0.80893 0.0
H148 H 0.30562 0.88903 0.8872 0.0
O149 O 0.32271 0.91925 0.70566 0.0
C150 C 0.2864 0.87204 0.77491 0.0
O151 O 0.29628 0.86454 0.78234 0.0
N152 N 0.34442 0.90735 0.75119 0.0
C153 C 0.37981 0.91471 0.75129 0.0
C154 C 0.37348 0.92134 0.70353 0.0
C155 C 0.35566 0.91744 0.70416 0.0
C156 C 0.35037 0.90101 0.79822 0.0
C157 C 0.36801 0.90468 0.79957 0.0
H158 H 0.35078 0.92193 0.66565 0.0
H159 H 0.34121 0.89269 0.83435 0.0
H160 H 0.30642 0.89816 0.61706 0.0
H161 H 0.32216 0.86002 0.58391 0.0
H162 H 0.3398 0.94333 0.93026 0.0
H163 H 0.38198 0.92888 0.66473 0.0
H164 H 0.37228 0.89947 0.83787 0.0
C165 C 0.45198 0.32145 0.86066 0.0
C166 C 0.45499 0.31894 0.79918 0.0
N167 N 0.43921 0.31136 0.7687 0.0
N168 N 0.43445 0.31566 0.86836 0.0
C169 C 0.427 0.30942 0.8119 0.0
H170 H 0.46193 0.32732 0.89726 0.0
Co171 Co 0.42328 0.31622 0.94128 0.0
C172 C 0.39907 0.32928 0.8984 0.0
O173 O 0.40456 0.34032 0.94634 0.0
N174 N 0.4119 0.31584 0.01629 0.0
C175 C 0.39084 0.30771 0.08946 0.0
C176 C 0.39433 0.30983 0.02633 0.0
C177 C 0.41846 0.31622 0.07397 0.0
N178 N 0.4061 0.31176 0.11928 0.0
O179 O 0.4093 0.29045 0.94121 0.0
H180 H 0.38426 0.30576 0.99029 0.0
H181 H 0.43148 0.31776 0.08237 0.0
O182 O 0.40501 0.31842 0.89129 0.0
C183 C 0.41863 0.28383 0.96177 0.0
O184 O 0.43549 0.29481 0.97565 0.0
N185 N 0.43851 0.3416 0.94344 0.0
C186 C 0.46561 0.37767 0.943 0.0
C187 C 0.45354 0.37045 0.89291 0.0
C188 C 0.44032 0.35235 0.89352 0.0
C189 C 0.45055 0.34836 0.99135 0.0
C190 C 0.46389 0.36633 0.99274 0.0
H191 H 0.4321 0.34686 0.85232 0.0
H192 H 0.45077 0.33967 0.02685 0.0
H193 H 0.41294 0.30398 0.8023 0.0
H194 H 0.46778 0.3225 0.77855 0.0
H195 H 0.37791 0.30274 0.11132 0.0
H196 H 0.45456 0.37857 0.85276 0.0
H197 H 0.47342 0.37103 0.03093 0.0
C198 C 0.56473 0.87656 0.81266 0.0
C199 C 0.56272 0.87124 0.87436 0.0
N200 N 0.57872 0.88056 0.90285 0.0
N201 N 0.58188 0.88922 0.80285 0.0
C202 C 0.59011 0.89117 0.85821 0.0
H203 H 0.55433 0.87183 0.77749 0.0
Co204 Co 0.59191 0.90129 0.72923 0.0
C205 C 0.61421 0.93868 0.77375 0.0
O206 O 0.60719 0.94355 0.7286 0.0
N207 N 0.60225 0.91264 0.65321 0.0
C208 C 0.62218 0.9264 0.57714 0.0
C209 C 0.61902 0.92598 0.64039 0.0
C210 C 0.59596 0.90465 0.59729 0.0
N211 N 0.60767 0.91281 0.55035 0.0
O212 O 0.6067 0.89034 0.72536 0.0
H213 H 0.6291 0.93383 0.67472 0.0
H214 H 0.58353 0.89221 0.59178 0.0
O215 O 0.61001 0.9222 0.77823 0.0
C216 C 0.59735 0.87536 0.69749 0.0
O217 O 0.58061 0.87032 0.6846 0.0
N218 N 0.57572 0.91032 0.7303 0.0
C219 C 0.54725 0.91727 0.73408 0.0
C220 C 0.55886 0.92145 0.78532 0.0
C221 C 0.57284 0.91765 0.78282 0.0
C222 C 0.5644 0.90609 0.68052 0.0
C223 C 0.55042 0.90976 0.68089 0.0
H224 H 0.58087 0.91991 0.82431 0.0
H225 H 0.5654 0.89892 0.64118 0.0
H226 H 0.60421 0.90023 0.86566 0.0
H227 H 0.55034 0.86173 0.8969 0.0
H228 H 0.6347 0.93503 0.55366 0.0
H229 H 0.55668 0.9268 0.82815 0.0
H230 H 0.54183 0.90623 0.64016 0.0
C231 C 0.69152 0.56021 0.99422 0.0
C232 C 0.6956 0.56007 0.0565 0.0
N233 N 0.70439 0.57712 0.07731 0.0
N234 N 0.69756 0.57725 0.97634 0.0
C235 C 0.70571 0.58721 0.02721 0.0
H236 H 0.68378 0.54863 0.96487 0.0
Co237 Co 0.69362 0.58555 0.90165 0.0
C238 C 0.70018 0.6207 0.95386 0.0
O239 O 0.71572 0.62987 0.92594 0.0
N240 N 0.68981 0.59395 0.82707 0.0
C241 C 0.6812 0.60581 0.75211 0.0
C242 C 0.68019 0.60203 0.81514 0.0
C243 C 0.69629 0.59275 0.77119 0.0
N244 N 0.69133 0.59991 0.72474 0.0
O245 O 0.71921 0.60062 0.89044 0.0
H246 H 0.67276 0.60479 0.84975 0.0
H247 H 0.70456 0.58676 0.76473 0.0
O248 O 0.69106 0.60376 0.947 0.0
C249 C 0.72517 0.59073 0.86944 0.0
O250 O 0.71378 0.57352 0.86365 0.0
N251 N 0.66902 0.56953 0.90917 0.0
C252 C 0.63377 0.5414 0.91777 0.0
C253 C 0.641 0.55479 0.96394 0.0
C254 C 0.65875 0.5687 0.95906 0.0
C255 C 0.66216 0.55679 0.86359 0.0
C256 C 0.64457 0.54272 0.86668 0.0
H257 H 0.66446 0.57823 -0.00314 0.0
H258 H 0.67059 0.55728 0.82535 0.0
H259 H 0.71198 0.60161 0.02785 0.0
H260 H 0.69136 0.54826 0.085 0.0
H261 H 0.67465 0.61203 0.72818 0.0
H262 H 0.63328 0.55411 0.00484 0.0
H263 H 0.63956 0.53279 0.82973 0.0
C264 C 0.13349 0.68615 0.12426 0.0
C265 C 0.13881 0.68816 0.1859 0.0
N266 N 0.13161 0.69674 0.21599 0.0
N267 N 0.1227 0.69311 0.11628 0.0
C268 C 0.12205 0.69974 0.17272 0.0
H269 H 0.13676 0.67952 0.08799 0.0
Co270 Co 0.11079 0.69241 0.0433 0.0
C271 C 0.07382 0.67946 0.08961 0.0
O272 O 0.06786 0.66769 0.04384 0.0
N273 N 0.09973 0.6926 0.96798 0.0
C274 C 0.08542 0.69809 0.8919 0.0
C275 C 0.0864 0.69608 0.9554 0.0
C276 C 0.10736 0.69385 0.91166 0.0
N277 N 0.09872 0.69678 0.86481 0.0
O278 O 0.12292 0.71822 0.04195 0.0
H279 H 0.07876 0.69857 0.98976 0.0
H280 H 0.11967 0.69364 0.9054 0.0
O281 O 0.09062 0.69067 0.09392 0.0
C282 C 0.13867 0.72431 0.0201 0.0
O283 O 0.14396 0.71284 0.00646 0.0
N284 N 0.10032 0.66697 0.04229 0.0
C285 C 0.09176 0.63102 0.04586 0.0
C286 C 0.08775 0.63874 0.09657 0.0
C287 C 0.09237 0.65674 0.09427 0.0
C288 C 0.10432 0.65962 0.99273 0.0
C289 C 0.09995 0.6417 0.99315 0.0
H290 H 0.09037 0.66266 0.13582 0.0
H291 H 0.11199 0.66781 0.95404 0.0
H292 H 0.11415 0.70599 0.18259 0.0
H293 H 0.14703 0.68341 0.20725 0.0
H294 H 0.07652 0.70157 0.868 0.0
H295 H 0.08157 0.63111 0.13859 0.0
H296 H 0.10396 0.63659 0.95381 0.0
C297 C 0.4534 0.13807 0.33102 0.0
C298 C 0.4555 0.14308 0.39302 0.0
N299 N 0.43956 0.13359 0.42167 0.0
N300 N 0.43625 0.12538 0.32101 0.0
C301 C 0.42811 0.12311 0.37681 0.0
H302 H 0.4638 0.14287 0.29594 0.0
Co303 Co 0.42697 0.11265 0.24749 0.0
C304 C 0.39255 0.08202 0.29222 0.0
O305 O 0.38351 0.08432 0.24725 0.0
N306 N 0.41795 0.10007 0.17368 0.0
C307 C 0.40868 0.07968 0.09825 0.0
C308 C 0.41234 0.08272 0.16124 0.0
C309 C 0.41768 0.10729 0.11809 0.0
N310 N 0.41207 0.09518 0.07135 0.0
O311 O 0.41135 0.1226 0.23919 0.0
H312 H 0.41158 0.07309 0.1953 0.0
H313 H 0.42247 0.1214 0.11145 0.0
O314 O 0.40942 0.09232 0.29589 0.0
C315 C 0.42011 0.13894 0.22194 0.0
O316 O 0.43749 0.14641 0.21473 0.0
N317 N 0.44326 0.1044 0.2524 0.0
C318 C 0.47152 0.09745 0.25436 0.0
C319 C 0.45778 0.0897 0.29907 0.0
C320 C 0.44378 0.09348 0.29765 0.0
C321 C 0.45631 0.11179 0.20816 0.0
C322 C 0.4705 0.10844 0.20809 0.0
H323 H 0.43376 0.08809 0.33399 0.0
H324 H 0.45586 0.12067 0.1734 0.0
H325 H 0.41426 0.1133 0.38529 0.0
H326 H 0.46788 0.15259 0.41557 0.0
H327 H 0.4043 0.06715 0.07396 0.0
H328 H 0.45819 0.08135 0.33614 0.0
H329 H 0.48071 0.11458 0.17238 0.0
C330 C 0.32121 0.45127 0.49349 0.0
C331 C 0.3182 0.45342 0.55532 0.0
N332 N 0.31206 0.43756 0.58454 0.0
N333 N 0.31709 0.43419 0.48417 0.0
C334 C 0.31136 0.42613 0.54015 0.0
H335 H 0.3266 0.46159 0.458 0.0
Co336 Co 0.32037 0.42475 0.41091 0.0
C337 C 0.31543 0.39011 0.46011 0.0
O338 O 0.30204 0.38072 0.42179 0.0
N339 N 0.32357 0.4155 0.33732 0.0
C340 C 0.33302 0.40485 0.26103 0.0
C341 C 0.33392 0.40831 0.32432 0.0
C342 C 0.31663 0.41637 0.28195 0.0
N343 N 0.32218 0.41005 0.23453 0.0
O344 O 0.29474 0.4093 0.4031 0.0
H345 H 0.34212 0.40635 0.35813 0.0
H346 H 0.308 0.422 0.27652 0.0
O347 O 0.32325 0.40716 0.45906 0.0
C348 C 0.28735 0.4182 0.3852 0.0
O349 O 0.2975 0.43553 0.37698 0.0
N350 N 0.34505 0.44092 0.41563 0.0
C351 C 0.38054 0.46869 0.4206 0.0
C352 C 0.37314 0.45634 0.46988 0.0
C353 C 0.35533 0.44254 0.46654 0.0
C354 C 0.352 0.45281 0.36741 0.0
C355 C 0.36975 0.46665 0.36857 0.0
H356 H 0.34961 0.43368 0.50605 0.0
H357 H 0.34356 0.45185 0.32847 0.0
H358 H 0.30761 0.41236 0.54902 0.0
H359 H 0.32077 0.46578 0.57729 0.0
H360 H 0.34043 0.39972 0.23618 0.0
H361 H 0.38096 0.45748 0.51108 0.0
H362 H 0.37476 0.47611 0.33016 0.0
C363 C 0.87603 0.31847 0.66766 0.0
C364 C 0.87113 0.3147 0.72956 0.0
N365 N 0.88072 0.30793 0.75543 0.0
N366 N 0.88865 0.31413 0.65493 0.0
C367 C 0.89104 0.30753 0.7089 0.0
H368 H 0.87116 0.32454 0.63457 0.0
Co369 Co 0.90093 0.31784 0.58054 0.0
C370 C 0.93189 0.3141 0.6236 0.0
O371 O 0.92936 0.30234 0.57991 0.0
N372 N 0.91304 0.32157 0.50593 0.0
C373 C 0.93286 0.33189 0.42877 0.0
C374 C 0.93036 0.33288 0.49201 0.0
C375 C 0.9053 0.31401 0.45108 0.0
N376 N 0.91704 0.31996 0.40331 0.0
O377 O 0.89107 0.29227 0.57118 0.0
H378 H 0.94038 0.3416 0.52531 0.0
H379 H 0.89111 0.30493 0.44586 0.0
O380 O 0.92158 0.32067 0.62682 0.0
C381 C 0.87465 0.28463 0.55488 0.0
O382 O 0.86707 0.2945 0.54934 0.0
N383 N 0.90915 0.34242 0.58673 0.0
C384 C 0.91681 0.37796 0.59086 0.0
C385 C 0.92404 0.37137 0.63554 0.0
C386 C 0.91995 0.3535 0.63291 0.0
C387 C 0.902 0.34854 0.54306 0.0
C388 C 0.90569 0.36622 0.54408 0.0
H389 H 0.92512 0.34854 0.66892 0.0
H390 H 0.89304 0.33945 0.50789 0.0
H391 H 0.90043 0.30279 0.71426 0.0
H392 H 0.8619 0.31755 0.75423 0.0
H393 H 0.94528 0.33955 0.40345 0.0
H394 H 0.9327 0.3799 0.67248 0.0
H395 H 0.89942 0.37048 0.50951 0.0
H396 H 0.09682 0.61453 0.14734 0.0
H397 H 0.09487 0.58532 0.151 0.0
H398 H 0.07902 0.5765 0.95695 0.0
H399 H 0.08061 0.60562 0.95297 0.0
H400 H 0.06595 0.54964 0.12155 0.0
H401 H 0.12501 0.57242 0.9658 0.0
H402 H 0.11969 0.58783 0.00402 0.0
H403 H 0.10727 0.57557 0.93632 0.0
C404 C 0.09255 0.60627 0.10569 0.0
C405 C 0.08895 0.61252 0.04972 0.0
C406 C 0.09154 0.58959 0.10784 0.0
C407 C 0.08704 0.57886 0.05405 0.0
C408 C 0.08281 0.58472 -0.00127 0.0
H409 H 0.06909 0.46919 0.0412 0.0
H410 H 0.06529 0.49542 0.03081 0.0
C411 C 0.08376 0.60138 -0.00346 0.0
C412 C 0.08757 0.56194 0.05539 0.0
H413 H 0.11072 0.54239 -0.0008 0.0
C414 C 0.07565 0.54797 0.09453 0.0
C415 C 0.10037 0.55992 0.02059 0.0
C416 C 0.11393 0.57474 0.97961 0.0
C417 C 0.07623 0.53203 0.09986 0.0
C418 C 0.08899 0.53 0.06486 0.0
C419 C 0.10085 0.54394 0.02558 0.0
C420 C 0.09101 0.51397 0.07107 0.0
C421 C 0.06356 0.51769 0.14426 0.0
C422 C 0.10683 0.51575 0.0961 0.0
C423 C 0.10905 0.50087 0.10189 0.0
C424 C 0.09554 0.48384 0.08238 0.0
C425 C 0.07976 0.48211 0.05657 0.0
C426 C 0.0775 0.49705 0.05107 0.0
H427 H 0.0568 0.52262 0.1761 0.0
H428 H 0.05315 0.50631 0.11688 0.0
H429 H 0.07078 0.51258 0.17295 0.0
H430 H 0.11747 0.52871 0.11137 0.0
H431 H 0.12151 0.50276 0.12084 0.0
H432 H 0.5066 0.12281 0.24027 0.0
H433 H 0.53265 0.11877 0.24282 0.0
H434 H 0.49848 0.06246 0.27826 0.0
H435 H 0.47215 0.06634 0.27539 0.0
H436 H 0.5398 0.0982 0.35645 0.0
H437 H 0.53393 0.07234 0.11314 0.0
H438 H 0.52585 0.08742 0.13264 0.0
H439 H 0.51431 0.06492 0.16136 0.0
C440 C 0.50457 0.10952 0.24809 0.0
C441 C 0.48728 0.09486 0.25717 0.0
C442 C 0.51948 0.10727 0.24983 0.0
C443 C 0.51743 0.09032 0.2603 0.0
C444 C 0.50027 0.07563 0.26983 0.0
H445 H 0.60558 0.06691 0.23874 0.0
H446 H 0.57544 0.06313 0.24105 0.0
C447 C 0.48529 0.07789 0.26851 0.0
C448 C 0.53345 0.0883 0.26205 0.0
H449 H 0.55985 0.07873 0.16982 0.0
C450 C 0.54412 0.09374 0.31599 0.0
C451 C 0.5389 0.08236 0.20933 0.0
C452 C 0.52774 0.0764 0.15054 0.0
C453 C 0.5604 0.09385 0.31806 0.0
C454 C 0.56638 0.08882 0.26411 0.0
C455 C 0.55532 0.08267 0.21098 0.0
C456 C 0.58453 0.09097 0.26085 0.0
C457 C 0.5711 0.09944 0.37799 0.0
C458 C 0.59963 0.10793 0.26938 0.0
C459 C 0.61675 0.11011 0.26809 0.0
C460 C 0.61922 0.0954 0.25767 0.0
C461 C 0.60412 0.0785 0.24686 0.0
C462 C 0.58691 0.07631 0.24841 0.0
H463 H 0.56242 0.09725 0.41927 0.0
H464 H 0.57834 0.09197 0.38517 0.0
H465 H 0.58106 0.11393 0.37568 0.0
H466 H 0.59817 0.11954 0.27708 0.0
H467 H 0.6281 0.12339 0.27502 0.0
H468 H 0.39662 0.49059 0.52123 0.0
H469 H 0.42615 0.51759 0.52528 0.0
H470 H 0.4356 0.50928 0.33331 0.0
H471 H 0.40611 0.48217 0.32891 0.0
H472 H 0.4656 0.51913 0.42741 0.0
H473 H 0.43691 0.56427 0.42231 0.0
H474 H 0.42756 0.54622 0.47809 0.0
H475 H 0.42458 0.54134 0.39587 0.0
C476 C 0.40508 0.49434 0.48017 0.0
C477 C 0.399 0.48426 0.42466 0.0
C478 C 0.42189 0.50983 0.48245 0.0
C479 C 0.43296 0.51547 0.42945 0.0
C480 C 0.42721 0.50515 0.37464 0.0
H481 H 0.52406 0.61902 0.34208 0.0
H482 H 0.49672 0.58977 0.33968 0.0
C483 C 0.41034 0.48974 0.37213 0.0
C484 C 0.45024 0.5325 0.43041 0.0
H485 H 0.46819 0.57786 0.43315 0.0
C486 C 0.46621 0.53198 0.42879 0.0
C487 C 0.45093 0.54921 0.43158 0.0
C488 C 0.43412 0.55045 0.43165 0.0
C489 C 0.48291 0.54782 0.42905 0.0
C490 C 0.48359 0.56452 0.43099 0.0
C491 C 0.46761 0.56501 0.43194 0.0
C492 C 0.50075 0.58171 0.43132 0.0
C493 C 0.49973 0.54663 0.42631 0.0
C494 C 0.51209 0.58683 0.48365 0.0
C495 C 0.52772 0.60356 0.48523 0.0
C496 C 0.53234 0.61543 0.43435 0.0
C497 C 0.52106 0.6101 0.38161 0.0
C498 C 0.50537 0.59344 0.3803 0.0
H499 H 0.49692 0.53299 0.41354 0.0
H500 H 0.50925 0.55634 0.39181 0.0
H501 H 0.50631 0.55006 0.47289 0.0
H502 H 0.50865 0.57805 0.52379 0.0
H503 H 0.53616 0.60726 0.52641 0.0
H504 H 0.91908 0.39757 0.6955 0.0
H505 H 0.92248 0.42748 0.69965 0.0
H506 H 0.92496 0.43045 0.49818 0.0
H507 H 0.92206 0.40081 0.49338 0.0
H508 H 0.95084 0.46206 0.64095 0.0
H509 H 0.88177 0.43746 0.55332 0.0
H510 H 0.8887 0.42275 0.58751 0.0
H511 H 0.89529 0.43091 0.50915 0.0
C512 C 0.92068 0.40469 0.65204 0.0
C513 C 0.92015 0.39666 0.59403 0.0
C514 C 0.92253 0.42175 0.65456 0.0
C515 C 0.92375 0.43105 0.59921 0.0
C516 C 0.92379 0.42337 0.5414 0.0
H517 H 0.91902 0.52657 0.51168 0.0
H518 H 0.92129 0.49954 0.50848 0.0
C519 C 0.92204 0.40638 0.5388 0.0
C520 C 0.92438 0.44852 0.60162 0.0
H521 H 0.89998 0.46859 0.56688 0.0
C522 C 0.93974 0.46354 0.62494 0.0
C523 C 0.90987 0.45036 0.58053 0.0
C524 C 0.89288 0.43453 0.55657 0.0
C525 C 0.94112 0.48048 0.62656 0.0
C526 C 0.92655 0.48232 0.60572 0.0
C527 C 0.91117 0.46723 0.58267 0.0
C528 C 0.92681 0.4997 0.60739 0.0
C529 C 0.95834 0.4963 0.649 0.0
C530 C 0.9293 0.50894 0.66401 0.0
C531 C 0.92831 0.52464 0.66586 0.0
C532 C 0.92457 0.53133 0.61124 0.0
C533 C 0.92228 0.52211 0.5545 0.0
C534 C 0.9234 0.5065 0.55265 0.0
H535 H 0.9697 0.49377 0.64527 0.0
H536 H 0.96161 0.50854 0.62185 0.0
H537 H 0.95692 0.49886 0.69901 0.0
H538 H 0.93157 0.50379 0.70716 0.0
H539 H 0.93028 0.53141 0.71031 0.0
H540 H 0.41105 0.9448 0.7158 0.0
H541 H 0.44124 0.94884 0.71342 0.0
H542 H 0.42056 0.89501 0.78125 0.0
H543 H 0.39045 0.89071 0.78266 0.0
H544 H 0.45195 0.92179 0.84541 0.0
H545 H 0.45945 0.92493 0.586 0.0
H546 H 0.45306 0.93983 0.62124 0.0
H547 H 0.43798 0.91614 0.62371 0.0
C548 C 0.4129 0.93377 0.72967 0.0
C549 C 0.39827 0.91745 0.74967 0.0
C550 C 0.43017 0.93612 0.72843 0.0
C551 C 0.43311 0.92219 0.74695 0.0
C552 C 0.41859 0.90596 0.76709 0.0
H553 H 0.5137 0.8946 0.68888 0.0
H554 H 0.48742 0.89808 0.69279 0.0
C555 C 0.40138 0.90358 0.76817 0.0
C556 C 0.45123 0.92428 0.74531 0.0
H557 H 0.48344 0.92718 0.64542 0.0
C558 C 0.45896 0.92318 0.8018 0.0
C559 C 0.46024 0.92594 0.68826 0.0
C560 C 0.45229 0.92667 0.62616 0.0
C561 C 0.47531 0.92335 0.80266 0.0
C562 C 0.4842 0.92477 0.74554 0.0
C563 C 0.47664 0.92622 0.68916 0.0
C564 C 0.50054 0.92323 0.74276 0.0
C565 C 0.4826 0.92126 0.86434 0.0
C566 C 0.51673 0.9363 0.76935 0.0
C567 C 0.53194 0.93444 0.7667 0.0
C568 C 0.53122 0.9195 0.73721 0.0
C569 C 0.51492 0.90648 0.71076 0.0
C570 C 0.49981 0.90838 0.71325 0.0
H571 H 0.4727 0.91741 0.90284 0.0
H572 H 0.4867 0.91098 0.86051 0.0
H573 H 0.4946 0.93413 0.87704 0.0
H574 H 0.51762 0.94797 0.79176 0.0
H575 H 0.54429 0.9448 0.78701 0.0
H576 H 0.60304 0.54064 0.95636 0.0
H577 H 0.57304 0.51436 0.96665 0.0
H578 H 0.59318 0.48041 0.9029 0.0
H579 H 0.62311 0.50638 0.89385 0.0
H580 H 0.55166 0.48914 0.87252 0.0
H581 H 0.5673 0.45678 0.06748 0.0
H582 H 0.58159 0.48 0.04687 0.0
H583 H 0.58237 0.46271 0.00241 0.0
C584 C 0.60109 0.52755 0.9451 0.0
C585 C 0.61548 0.52563 0.92417 0.0
C586 C 0.58394 0.51258 0.95066 0.0
C587 C 0.58093 0.49542 0.93621 0.0
C588 C 0.59524 0.49349 0.91514 0.0
H589 H 0.48683 0.39598 0.84304 0.0
H590 H 0.51353 0.42562 0.84312 0.0
C591 C 0.61232 0.50839 0.90934 0.0
C592 C 0.56283 0.47946 0.94197 0.0
H593 H 0.53997 0.43861 0.01279 0.0
C594 C 0.54902 0.47816 0.90362 0.0
C595 C 0.55935 0.46524 0.98317 0.0
C596 C 0.57338 0.46627 0.0278 0.0
C597 C 0.53201 0.4627 0.90366 0.0
C598 C 0.52883 0.44811 0.94251 0.0
C599 C 0.54245 0.44972 0.98258 0.0
C600 C 0.51169 0.43082 0.94119 0.0
C601 C 0.51762 0.46216 0.86214 0.0
C602 C 0.50179 0.42378 -0.00364 0.0
C603 C 0.4865 0.40679 -0.00352 0.0
C604 C 0.48083 0.39643 0.94147 0.0
C605 C 0.49058 0.4037 0.88596 0.0
C606 C 0.50588 0.42068 0.88591 0.0
H607 H 0.52038 0.47584 0.85013 0.0
H608 H 0.5171 0.45521 0.81781 0.0
H609 H 0.50432 0.45477 0.88494 0.0
H610 H 0.50604 0.43134 0.03961 0.0
H611 H 0.47922 0.40168 0.03991 0.0
H612 H 0.04122 0.38827 0.06248 0.0
H613 H 0.01895 0.37187 0.98209 0.0
H614 H 0.05915 0.37056 0.86667 0.0
H615 H 0.08186 0.38727 0.94744 0.0
H616 H 0.02489 0.3861 0.84477 0.0
H617 H 0.01218 0.31666 0.87843 0.0
H618 H 0.01961 0.33242 0.94261 0.0
H619 H 0.03473 0.33536 0.88041 0.0
C620 C 0.04542 0.3844 0.0204 0.0
C621 C 0.06341 0.38918 0.01149 0.0
C622 C 0.0326 0.37499 0.97445 0.0
C623 C 0.03737 0.36997 0.91855 0.0
C624 C 0.05519 0.37422 0.90979 0.0
H625 H 0.96182 0.31076 0.613 0.0
H626 H 0.98839 0.32417 0.68056 0.0
C627 C 0.06813 0.38375 0.95597 0.0
C628 C 0.0237 0.36132 0.86859 0.0
H629 H 0.9936 0.32062 0.80718 0.0
C630 C 0.01817 0.37182 0.83597 0.0
C631 C 0.01506 0.34273 0.85701 0.0
C632 C 0.02057 0.33099 0.89129 0.0
C633 C 1.00394 0.36416 0.79309 0.0
C634 C 0.99462 0.34539 0.78379 0.0
C635 C 1.00062 0.33497 0.81464 0.0
C636 C 0.97818 0.33639 0.74439 0.0
C637 C 0.99902 0.3763 0.75824 0.0
C638 C 0.96337 0.33831 0.75877 0.0
C639 C 0.94826 0.33075 0.72025 0.0
C640 C 0.94748 0.32091 0.66666 0.0
C641 C 0.962 0.31832 0.65375 0.0
C642 C 0.97721 0.32599 0.69229 0.0
H643 H 0.0105 0.39018 0.75538 0.0
H644 H 0.99436 0.37135 0.71 0.0
H645 H 0.98807 0.37681 0.78356 0.0
H646 H 0.96355 0.34581 0.7997 0.0
H647 H 0.93719 0.33272 0.73241 0.0
H648 H 0.62549 0.9743 0.77321 0.0
H649 H 0.64172 0.99633 0.85451 0.0
H650 H 0.64499 0.95624 0.96469 0.0
H651 H 0.62848 0.93379 0.88302 0.0
H652 H 0.62854 0.99003 0.99139 0.0
H653 H 0.69801 1.00354 0.95344 0.0
H654 H 0.68187 0.99582 0.89043 0.0
H655 H 0.6796 0.98082 0.95232 0.0
C656 C 0.62976 0.97008 0.81432 0.0
C657 C 0.62561 0.95218 0.82144 0.0
C658 C 0.63906 0.98276 0.86083 0.0
C659 C 0.64461 0.97796 0.9155 0.0
C660 C 0.64093 0.96024 0.92253 0.0
H661 H 0.70438 0.05183 0.22434 0.0
H662 H 0.69086 0.02572 0.15453 0.0
C663 C 0.6315 0.94744 0.87584 0.0
C664 C 0.6533 0.99147 0.96599 0.0
H665 H 0.69399 0.02136 0.0279 0.0
C666 C 0.64282 0.99676 -0.00011 0.0
C667 C 0.6719 1.00014 0.97722 0.0
C668 C 0.68364 0.99493 0.94157 0.0
C669 C 0.65047 0.01074 0.04383 0.0
C670 C 0.66924 0.02008 0.05293 0.0
C671 C 0.67965 0.01433 0.02064 0.0
C672 C 0.67824 0.03624 0.09381 0.0
C673 C 0.63833 0.01533 0.08014 0.0
C674 C 0.67612 0.05108 0.08196 0.0
C675 C 0.68373 0.06593 0.12183 0.0
C676 C 0.69385 0.06642 0.17422 0.0
C677 C 0.69662 0.05187 0.18458 0.0
C678 C 0.68888 0.03693 0.14474 0.0
H679 H 0.62451 1.00374 0.08281 0.0
H680 H 0.64334 0.01972 0.1285 0.0
H681 H 0.63766 0.02638 0.05607 0.0
H682 H 0.66845 0.05115 0.04194 0.0
H683 H 0.68161 0.07702 0.11161 0.0
H684 H 0.62961 0.69881 0.28612 0.0
H685 H 0.6472 0.69382 0.20643 0.0
H686 H 0.64309 0.64968 0.31433 0.0
H687 H 0.62606 0.65477 0.39398 0.0
H688 H 0.67652 0.6703 0.2688 0.0
H689 H 0.62648 0.65342 0.07894 0.0
H690 H 0.63496 0.67514 0.11368 0.0
H691 H 0.62164 0.65543 0.15972 0.0
C692 C 0.6326 0.68816 0.29302 0.0
C693 C 0.62632 0.67715 0.34642 0.0
C694 C 0.64254 0.68522 0.24718 0.0
C695 C 0.64626 0.67117 0.2538 0.0
C696 C 0.6404 0.66057 0.30792 0.0
H697 H 0.66651 0.60673 0.00216 0.0
H698 H 0.65509 0.62104 0.07191 0.0
C699 C 0.63058 0.6635 0.35351 0.0
C700 C 0.65586 0.66697 0.20458 0.0
H701 H 0.65196 0.65142 0.05473 0.0
C702 C 0.67128 0.66638 0.22172 0.0
C703 C 0.6489 0.66164 0.14333 0.0
C704 C 0.63202 0.66126 0.12267 0.0
C705 C 0.6796 0.66017 0.18014 0.0
C706 C 0.67255 0.6547 0.11912 0.0
C707 C 0.65743 0.65573 0.10135 0.0
C708 C 0.67972 0.64645 0.07499 0.0
C709 C 0.69533 0.65866 0.20293 0.0
C710 C 0.69737 0.65601 0.05264 0.0
C711 C 0.70403 0.64777 0.01276 0.0
C712 C 0.69315 0.62981 0.99444 0.0
C713 C 0.67539 0.62046 0.01595 0.0
C714 C 0.66876 0.62868 0.05559 0.0
H715 H 0.69684 0.65999 0.25465 0.0
H716 H 0.69392 0.64562 0.18898 0.0
H717 H 0.70775 0.66944 0.18144 0.0
H718 H 0.70601 0.66983 0.0661 0.0
H719 H 0.71773 0.65542 -0.00312 0.0
H720 H 0.93581 0.617 0.44283 0.0
H721 H 0.95905 0.63203 0.36266 0.0
H722 H 0.99954 0.65169 0.50645 0.0
H723 H 0.97656 0.63635 0.58601 0.0
H724 H 0.98596 0.66664 0.33923 0.0
H725 H 0.0154 0.62418 0.39687 0.0
H726 H 0.99409 0.6197 0.42726 0.0
H727 H 0.01452 0.63655 0.46288 0.0
C728 C 0.94965 0.62476 0.45731 0.0
C729 C 0.95437 0.62533 0.52066 0.0
C730 C 0.96293 0.6333 0.41147 0.0
C731 C 0.98112 0.6426 0.4283 0.0
C732 C 0.98568 0.64415 0.49199 0.0
H733 H 0.08079 0.69074 0.21222 0.0
H734 H 0.05878 0.68416 0.29571 0.0
C735 C 0.9725 0.63547 0.53753 0.0
C736 C 0.99539 0.65 0.37954 0.0
H737 H 0.03168 0.64802 0.32608 0.0
C738 C 0.99594 0.66255 0.33633 0.0
C739 C 0.00843 0.64464 0.37546 0.0
C740 C 0.00802 0.6304 0.41765 0.0
C741 C 0.00925 0.66999 0.28979 0.0
C742 C 0.02229 0.66469 0.28609 0.0
C743 C 0.02182 0.65226 0.32949 0.0
C744 C 0.03574 0.67074 0.23483 0.0
C745 C 0.00934 0.68358 0.24514 0.0
C746 C 0.03014 0.66555 0.17291 0.0
C747 C 0.04263 0.66916 0.12546 0.0
C748 C 0.06105 0.67813 0.13872 0.0
C749 C 0.06673 0.68398 0.20033 0.0
C750 C 0.05416 0.68016 0.2481 0.0
H751 H 1.00157 0.68964 0.26375 0.0
H752 H 0.02322 0.6944 0.23538 0.0
H753 H 1.00319 0.67689 0.20014 0.0
H754 H 0.01603 0.65801 0.16165 0.0
H755 H 0.03781 0.66445 0.07852 0.0
H756 H 0.40419 0.07836 0.40734 0.0
H757 H 0.39008 0.05269 0.47799 0.0
H758 H 0.34682 0.02506 0.34656 0.0
H759 H 0.3605 0.05109 0.27695 0.0
H760 H 0.33395 0.01912 0.46023 0.0
H761 H 0.39138 0.00757 0.46005 0.0
H762 H 0.39761 0.02951 0.48784 0.0
H763 H 0.39019 0.0234 0.40811 0.0
C764 C 0.39165 0.06683 0.39351 0.0
C765 C 0.38354 0.06672 0.33623 0.0
C766 C 0.38365 0.05207 0.43379 0.0
C767 C 0.3676 0.03664 0.41703 0.0
C768 C 0.35925 0.0367 0.36053 0.0
H769 H 0.33224 0.93333 0.595 0.0
H770 H 0.34348 0.95876 0.52331 0.0
C771 C 0.36709 0.05161 0.3207 0.0
C772 C 0.35952 0.02048 0.45829 0.0
H773 H 0.36877 0.99141 0.53592 0.0
C774 C 0.34155 0.01301 0.47647 0.0
C775 C 0.36925 0.0122 0.47874 0.0
C776 C 0.3881 0.01846 0.45713 0.0
C777 C 0.33317 0.99775 0.51502 0.0
C778 C 0.34318 0.99002 0.53802 0.0
C779 C 0.36108 0.99737 0.51912 0.0
C780 C 0.33541 0.97417 0.58075 0.0
C781 C 0.31354 0.98983 0.52911 0.0
C782 C 0.32704 0.97419 0.63724 0.0
C783 C 0.32028 0.95947 0.67786 0.0
C784 C 0.32214 0.94457 0.66369 0.0
C785 C 0.33062 0.94461 0.60744 0.0
C786 C 0.33709 0.95918 0.56638 0.0
H787 H 0.30674 0.99346 0.4926 0.0
H788 H 0.30669 0.97502 0.53244 0.0
H789 H 0.31198 0.99519 0.57442 0.0
H790 H 0.32604 0.98575 0.65067 0.0
H791 H 0.31403 0.95996 0.72118 0.0
H792 H 0.39211 0.31626 0.77747 0.0
H793 H 0.37553 0.32224 0.6965 0.0
H794 H 0.36368 0.35234 0.82995 0.0
H795 H 0.38 0.34638 0.91068 0.0
H796 H 0.3342 0.32931 0.75262 0.0
H797 H 0.39583 0.37238 0.6154 0.0
H798 H 0.39116 0.35003 0.63221 0.0
H799 H 0.39658 0.36575 0.695 0.0
C800 C 0.38576 0.32394 0.78973 0.0
C801 C 0.38749 0.33094 0.85051 0.0
C802 C 0.37639 0.32745 0.7433 0.0
C803 C 0.36856 0.33795 0.75695 0.0
C804 C 0.36965 0.34426 0.81822 0.0
H805 H 0.34191 0.40558 0.54815 0.0
H806 H 0.35369 0.39118 0.61589 0.0
C807 C 0.37905 0.34087 0.86434 0.0
C808 C 0.35988 0.34318 0.70753 0.0
H809 H 0.36906 0.36995 0.57879 0.0
C810 C 0.34174 0.338 0.71408 0.0
C811 C 0.3698 0.35471 0.65774 0.0
C812 C 0.38945 0.36121 0.64953 0.0
C813 C 0.33337 0.34429 0.67293 0.0
C814 C 0.34336 0.356 0.62367 0.0
C815 C 0.36139 0.36089 0.61637 0.0
C816 C 0.33579 0.36441 0.58213 0.0
C817 C 0.3141 0.33897 0.68399 0.0
C818 C 0.32175 0.35418 0.54035 0.0
C819 C 0.31497 0.36243 0.50109 0.0
C820 C 0.32213 0.3811 0.50276 0.0
C821 C 0.33611 0.39123 0.54503 0.0
C822 C 0.34289 0.383 0.58396 0.0
H823 H 0.30919 0.33239 0.73016 0.0
H824 H 0.31236 0.35086 0.68151 0.0
H825 H 0.30566 0.32948 0.64694 0.0
H826 H 0.31619 0.33983 0.53759 0.0
H827 H 0.30424 0.3542 0.46905 0.0
H828 H 0.14096 0.38773 0.10138 0.0
H829 H 0.16081 0.37728 0.14378 0.0
H830 H 0.18309 0.4214 0.27381 0.0
H831 H 0.16372 0.43175 0.23253 0.0
H832 H 0.19983 0.39795 0.14944 0.0
H833 H 0.17069 0.37792 0.38583 0.0
H834 H 0.15843 0.37984 0.32052 0.0
H835 H 0.17387 0.3994 0.36413 0.0
C836 C 0.14999 0.39503 0.1394 0.0
C837 C 0.15081 0.41062 0.16327 0.0
C838 C 0.16132 0.38908 0.16351 0.0
C839 C 0.17327 0.39842 0.21268 0.0
C840 C 0.1738 0.41377 0.23676 0.0
H841 H 0.26645 0.43283 0.40072 0.0
H842 H 0.23658 0.42238 0.35897 0.0
C843 C 0.16277 0.41977 0.21252 0.0
C844 C 0.18616 0.39325 0.23758 0.0
H845 H 0.20247 0.38819 0.37724 0.0
C846 C 0.20014 0.39517 0.19881 0.0
C847 C 0.18655 0.3896 0.30203 0.0
C848 C 0.17146 0.38639 0.3454 0.0
C849 C 0.21526 0.39524 0.22392 0.0
C850 C 0.21633 0.39321 0.28932 0.0
C851 C 0.20169 0.3898 0.32716 0.0
C852 C 0.23357 0.39788 0.32026 0.0
C853 C 0.23065 0.39898 0.18129 0.0
C854 C 0.24165 0.38727 0.31424 0.0
C855 C 0.25881 0.39316 0.33908 0.0
C856 C 0.26813 0.40983 0.36945 0.0
C857 C 0.25962 0.41995 0.37751 0.0
C858 C 0.24253 0.41399 0.35362 0.0
H859 H 0.22804 0.40104 0.1319 0.0
H860 H 0.24298 0.41108 0.19754 0.0
H861 H 0.23318 0.38758 0.18295 0.0
H862 H 0.23491 0.37472 0.28896 0.0
H863 H 0.26514 0.3852 0.33164 0.0
H864 H 0.75989 0.13794 0.26696 0.0
H865 H 0.79018 0.15766 0.30994 0.0
H866 H 0.76858 0.18088 0.43675 0.0
H867 H 0.73891 0.1617 0.39469 0.0
H868 H 0.80857 0.19743 0.31456 0.0
H869 H 0.7993 0.16783 0.55055 0.0
H870 H 0.78551 0.15551 0.4845 0.0
H871 H 0.78089 0.17067 0.52757 0.0
C872 C 0.76168 0.14714 0.30445 0.0
C873 C 0.74701 0.14831 0.32711 0.0
C874 C 0.77894 0.1584 0.32885 0.0
C875 C 0.7816 0.1706 0.37718 0.0
C876 C 0.76687 0.17142 0.40026 0.0
H877 H 0.83925 0.26295 0.57096 0.0
H878 H 0.82024 0.23318 0.52754 0.0
C879 C 0.74987 0.16049 0.37563 0.0
C880 C 0.79964 0.18348 0.40226 0.0
H881 H 0.82074 0.19961 0.54242 0.0
C882 C 0.81163 0.19765 0.36393 0.0
C883 C 0.80361 0.18376 0.46671 0.0
C884 C 0.79172 0.16852 0.50962 0.0
C885 C 0.82654 0.21284 0.38951 0.0
C886 C 0.82958 0.21378 0.45496 0.0
C887 C 0.81842 0.19894 0.4923 0.0
C888 C 0.84195 0.231 0.48654 0.0
C889 C 0.83807 0.22843 0.34734 0.0
C890 C 0.86063 0.23954 0.47972 0.0
C891 C 0.87167 0.25665 0.50545 0.0
C892 C 0.86408 0.26546 0.53762 0.0
C893 C 0.84548 0.25651 0.54637 0.0
C894 C 0.83458 0.23948 0.52155 0.0
H895 H 0.83331 0.226 0.29805 0.0
H896 H 0.8383 0.24069 0.36448 0.0
H897 H 0.852 0.231 0.3483 0.0
H898 H 0.86662 0.23318 0.45324 0.0
H899 H 0.88594 0.26333 0.49743 0.0
H900 H 0.62831 0.87522 0.7327 0.0
H901 H 0.63885 0.85528 0.69193 0.0
H902 H 0.59356 0.83082 0.56728 0.0
H903 H 0.58311 0.85026 0.60695 0.0
H904 H 0.61859 0.81589 0.6908 0.0
H905 H 0.63644 0.84338 0.45137 0.0
H906 H 0.63485 0.85602 0.51609 0.0
H907 H 0.61505 0.84003 0.47489 0.0
C908 C 0.62074 0.86567 0.69629 0.0
C909 C 0.60483 0.8643 0.6734 0.0
C910 C 0.62675 0.85429 0.67309 0.0
C911 C 0.61712 0.84172 0.62582 0.0
C912 C 0.6014 0.84058 0.60286 0.0
H913 H 0.5829 0.74694 0.44811 0.0
H914 H 0.59294 0.77705 0.4872 0.0
C915 C 0.59535 0.85167 0.62619 0.0
C916 C 0.62245 0.82889 0.60156 0.0
H917 H 0.62688 0.8118 0.46272 0.0
C918 C 0.62106 0.81529 0.64132 0.0
C919 C 0.62568 0.8281 0.53696 0.0
C920 C 0.62827 0.84278 0.49247 0.0
C921 C 0.62114 0.80013 0.61719 0.0
C922 C 0.62276 0.79863 0.55179 0.0
C923 C 0.62561 0.81291 0.51282 0.0
C924 C 0.61823 0.78125 0.52228 0.0
C925 C 0.618 0.78511 0.66094 0.0
C926 C 0.62939 0.77376 0.52715 0.0
C927 C 0.62373 0.75649 0.50376 0.0
C928 C 0.60676 0.74646 0.47606 0.0
C929 C 0.59604 0.75435 0.46919 0.0
C930 C 0.60175 0.77156 0.49158 0.0
H931 H 0.61643 0.7881 0.71038 0.0
H932 H 0.6058 0.7726 0.64656 0.0
H933 H 0.62942 0.78266 0.65817 0.0
H934 H 0.6422 0.78106 0.55046 0.0
H935 H 0.63215 0.75063 0.51037 0.0
H936 H 0.75372 0.62572 0.8691 0.0
H937 H 0.78377 0.63629 0.82426 0.0
H938 H 0.76807 0.58227 0.77077 0.0
H939 H 0.73866 0.57169 0.81515 0.0
H940 H 0.80844 0.61799 0.85335 0.0
H941 H 0.78766 0.61763 0.60718 0.0
H942 H 0.77679 0.62143 0.67296 0.0
H943 H 0.77199 0.59916 0.65448 0.0
C944 C 0.75677 0.61614 0.84808 0.0
C945 C 0.74372 0.59786 0.8458 0.0
C946 C 0.7739 0.62219 0.82247 0.0
C947 C 0.77805 0.61004 0.79376 0.0
C948 C 0.76512 0.59188 0.7923 0.0
H949 H 0.8397 0.57586 0.62372 0.0
H950 H 0.81888 0.58518 0.65986 0.0
C951 C 0.74825 0.58586 0.81798 0.0
C952 C 0.7957 0.61569 0.76463 0.0
H953 H 0.81332 0.61428 0.62301 0.0
C954 C 0.80986 0.61786 0.80292 0.0
C955 C 0.79741 0.61535 0.69887 0.0
C956 C 0.78272 0.61341 0.65573 0.0
C957 C 0.82506 0.61821 0.77728 0.0
C958 C 0.82613 0.61647 0.71167 0.0
C959 C 0.81255 0.61567 0.67323 0.0
C960 C 0.83929 0.61214 0.68356 0.0
C961 C 0.83915 0.6189 0.82079 0.0
C962 C 0.85779 0.62438 0.68292 0.0
C963 C 0.86985 0.61908 0.66144 0.0
C964 C 0.86353 0.60142 0.641 0.0
C965 C 0.845 0.58954 0.63935 0.0
C966 C 0.83305 0.59485 0.65999 0.0
H967 H 0.83565 0.61885 0.87087 0.0
H968 H 0.84107 0.60729 0.81211 0.0
H969 H 0.85207 0.63124 0.81158 0.0
H970 H 0.8629 0.63785 0.70039 0.0
H971 H 0.88407 0.62847 0.66373 0.0
H972 H 0.26472 0.83711 0.7491 0.0
H973 H 0.23489 0.81726 0.79025 0.0
H974 H 0.2348 0.86215 0.87848 0.0
H975 H 0.26494 0.88229 0.83633 0.0
H976 H 0.22779 0.83346 0.96077 0.0
H977 H 0.18434 0.80784 0.75207 0.0
H978 H 0.20466 0.80725 0.7425 0.0
H979 H 0.20558 0.82844 0.75121 0.0
C980 C 0.25815 0.84286 0.77569 0.0
C981 C 0.26709 0.86126 0.78913 0.0
C982 C 0.24103 0.83149 0.79903 0.0
C983 C 0.23245 0.83819 0.83692 0.0
C984 C 0.24107 0.85671 0.84874 0.0
H985 H 0.13025 0.75044 0.9907 0.0
H986 H 0.15104 0.78091 0.95209 0.0
C987 C 0.25821 0.86822 0.82435 0.0
C988 C 0.21563 0.82533 0.8697 0.0
H989 H 0.17497 0.78818 0.8427 0.0
C990 C 0.21603 0.82387 0.93512 0.0
C991 C 0.20018 0.81285 0.83653 0.0
C992 C 0.19856 0.81426 0.76673 0.0
C993 C 0.20208 0.80943 0.96739 0.0
C994 C 0.18739 0.79607 0.93344 0.0
C995 C 0.18628 0.79834 0.86879 0.0
C996 C 0.17468 0.77851 0.96222 0.0
C997 C 0.20357 0.80808 0.0373 0.0
C998 C 0.18106 0.76715 0.98094 0.0
C999 C 0.16931 0.7499 0.00231 0.0
C1000 C 0.15084 0.74352 0.00589 0.0
C1001 C 0.14443 0.75506 0.98919 0.0
C1002 C 0.15627 0.7724 0.96682 0.0
H1003 H 0.21251 0.8214 0.05851 0.0
H1004 H 0.19024 0.80212 0.05993 0.0
H1005 H 0.20929 0.79935 0.04739 0.0
H1006 H 0.19513 0.77143 0.9769 0.0
H1007 H 0.17469 0.74134 0.01457 0.0
H1008 H 0.43366 0.17428 0.24022 0.0
H1009 H 0.42327 0.19345 0.19571 0.0
H1010 H 0.37744 0.14724 0.11721 0.0
H1011 H 0.3879 0.12778 0.16256 0.0
H1012 H 0.3974 0.17439 0.02928 0.0
H1013 H 0.38289 0.20351 0.23559 0.0
H1014 H 0.40405 0.20453 0.24308 0.0
H1015 H 0.38386 0.18309 0.23979 0.0
C1016 C 0.42109 0.16811 0.21497 0.0
C1017 C 0.41152 0.14953 0.20525 0.0
C1018 C 0.41511 0.1791 0.18973 0.0
C1019 C 0.39944 0.17182 0.15371 0.0
C1020 C 0.38947 0.15315 0.14546 0.0
H1021 H 0.38477 0.25928 0.00228 0.0
H1022 H 0.37496 0.22892 0.04216 0.0
C1023 C 0.39536 0.14203 0.17169 0.0
C1024 C 0.395 0.18415 0.1195 0.0
H1025 H 0.39223 0.2219 0.14155 0.0
C1026 C 0.39577 0.18448 0.05377 0.0
C1027 C 0.39263 0.19724 0.1511 0.0
C1028 C 0.39062 0.19698 0.22129 0.0
C1029 C 0.3958 0.19841 0.01939 0.0
C1030 C 0.39523 0.21246 0.05152 0.0
C1031 C 0.39286 0.21127 0.11677 0.0
C1032 C 0.39974 0.22961 0.01994 0.0
C1033 C 0.39723 0.19836 0.94902 0.0
C1034 C 0.41679 0.23999 0.99372 0.0
C1035 C 0.42239 0.25722 0.97164 0.0
C1036 C 0.41107 0.26451 0.97479 0.0
C1037 C 0.39367 0.25388 -0.00161 0.0
C1038 C 0.38811 0.23661 0.0215 0.0
H1039 H 0.3914 0.18451 0.93067 0.0
H1040 H 0.39036 0.20488 0.92653 0.0
H1041 H 0.41153 0.20581 0.93543 0.0
H1042 H 0.42615 0.23511 0.9931 0.0
H1043 H 0.4359 0.26511 0.95402 0.0
H1044 H 0.08203 0.39393 0.38373 0.0
H1045 H 0.09214 0.39815 0.49288 0.0
H1046 H 0.14642 0.43295 0.43263 0.0
H1047 H 0.13649 0.42864 0.32365 0.0
H1048 H 0.11964 0.39211 0.55009 0.0
H1049 H 0.13528 0.46304 0.55896 0.0
H1050 H 0.12122 0.44771 0.49896 0.0
H1051 H 0.14498 0.45692 0.49596 0.0
C1052 C 0.09612 0.40237 0.39383 0.0
C1053 C 0.1084 0.41118 0.34536 0.0
C1054 C 0.10186 0.40477 0.45597 0.0
C1055 C 0.11996 0.41603 0.47045 0.0
C1056 C 0.13235 0.42447 0.42218 0.0
H1057 H 0.16294 0.45295 0.84691 0.0
H1058 H 0.16202 0.44748 0.73393 0.0
C1059 C 0.12662 0.42208 0.36007 0.0
C1060 C 0.12571 0.41929 0.53639 0.0
H1061 H 0.13953 0.45087 0.65125 0.0
C1062 C 0.12415 0.40498 0.57226 0.0
C1063 C 0.13174 0.43617 0.56459 0.0
C1064 C 0.13334 0.45186 0.52798 0.0
C1065 C 0.12806 0.40699 0.63644 0.0
C1066 C 0.13327 0.42363 0.66529 0.0
C1067 C 0.13555 0.43814 0.62882 0.0
C1068 C 0.13459 0.42582 0.73396 0.0
C1069 C 0.12637 0.39124 0.67285 0.0
C1070 C 0.11946 0.41551 0.77097 0.0
C1071 C 0.11992 0.41865 0.83506 0.0
C1072 C 0.13549 0.43228 0.86337 0.0
C1073 C 0.15073 0.44246 0.8263 0.0
C1074 C 0.15026 0.43928 0.76199 0.0
H1075 H 0.12829 0.38195 0.64207 0.0
H1076 H 0.13624 0.39564 0.71165 0.0
H1077 H 0.11276 0.38368 0.69321 0.0
H1078 H 0.10706 0.40544 0.74991 0.0
H1079 H 0.10782 0.41084 0.86186 0.0
H1080 H 0.68826 0.13878 -0.00226 0.0
H1081 H 0.68908 0.13215 0.88693 0.0
H1082 H 0.72837 0.11663 0.92642 0.0
H1083 H 0.72792 0.12359 0.03738 0.0
H1084 H 0.7347 0.13837 0.81442 0.0
H1085 H 0.66654 0.07898 0.82717 0.0
H1086 H 0.66831 0.09931 0.8567 0.0
H1087 H 0.67985 0.08962 0.89591 0.0
C1088 C 0.69736 0.13434 0.98274 0.0
C1089 C 0.70792 0.13156 0.02635 0.0
C1090 C 0.69767 0.13038 0.91958 0.0
C1091 C 0.70853 0.1236 0.89907 0.0
C1092 C 0.71978 0.12169 0.94172 0.0
H1093 H 0.6923 0.07197 0.53294 0.0
H1094 H 0.69766 0.07818 0.64537 0.0
C1095 C 0.71945 0.1256 0.00496 0.0
C1096 C 0.7076 0.11789 0.83345 0.0
H1097 H 0.6789 0.08845 0.72539 0.0
C1098 C 0.72258 0.12737 0.79491 0.0
C1099 C 0.69187 0.10329 0.80883 0.0
C1100 C 0.67576 0.09207 0.84933 0.0
C1101 C 0.72194 0.12312 0.73123 0.0
C1102 C 0.70585 0.1092 0.70578 0.0
C1103 C 0.69116 0.0992 0.74506 0.0
C1104 C 0.70354 0.10559 0.63785 0.0
C1105 C 0.73843 0.13364 0.69165 0.0
C1106 C 0.70482 0.11886 0.59693 0.0
C1107 C 0.70165 0.11533 0.53316 0.0
C1108 C 0.69705 0.0984 0.50896 0.0
C1109 C 0.6957 0.08508 0.55019 0.0
C1110 C 0.69887 0.08864 0.61423 0.0
H1111 H 0.75075 0.13981 0.72071 0.0
H1112 H 0.7396 0.12503 0.6555 0.0
H1113 H 0.73759 0.14458 0.66752 0.0
H1114 H 0.70789 0.13186 0.61456 0.0
H1115 H 0.70238 0.12578 0.50319 0.0
H1116 H 0.59868 0.72075 0.66386 0.0
H1117 H 0.59568 0.72661 0.7743 0.0
H1118 H 0.61069 0.68775 0.8292 0.0
H1119 H 0.61461 0.68271 0.71901 0.0
H1120 H 0.57423 0.70659 0.85917 0.0
H1121 H 0.64207 0.72703 0.94311 0.0
H1122 H 0.6366 0.72463 0.86086 0.0
H1123 H 0.6326 0.70546 0.90706 0.0
C1124 C 0.60145 0.71362 0.69983 0.0
C1125 C 0.60694 0.70135 0.68355 0.0
C1126 C 0.59978 0.71697 0.76274 0.0
C1127 C 0.60334 0.70792 0.81026 0.0
C1128 C 0.60853 0.69541 0.79366 0.0
H1129 H 0.55697 0.67974 0.17373 0.0
H1130 H 0.56344 0.68405 0.06176 0.0
C1131 C 0.6106 0.69239 0.73086 0.0
C1132 C 0.60058 0.71066 0.87699 0.0
H1133 H 0.61891 0.71582 0.02228 0.0
C1134 C 0.58414 0.70893 0.89472 0.0
C1135 C 0.61364 0.71421 0.92343 0.0
C1136 C 0.63227 0.71815 0.90743 0.0
C1137 C 0.58005 0.70968 0.95778 0.0
C1138 C 0.59243 0.71142 0.00457 0.0
C1139 C 0.60924 0.71413 0.98663 0.0
C1140 C 0.58794 0.70947 0.07221 0.0
C1141 C 0.56251 0.70863 0.97324 0.0
C1142 C 0.5998 0.722 0.11574 0.0
C1143 C 0.59634 0.71924 0.17989 0.0
C1144 C 0.58083 0.70406 0.20145 0.0
C1145 C 0.56881 0.69172 0.158 0.0
C1146 C 0.57246 0.69426 0.09402 0.0
H1147 H 0.55823 0.71434 0.93482 0.0
H1148 H 0.55201 0.69439 0.97862 0.0
H1149 H 0.56336 0.71586 0.01725 0.0
H1150 H 0.61188 0.73378 0.10013 0.0
H1151 H 0.60576 0.72891 0.21277 0.0
H1152 H 0.88119 0.5933 0.83415 0.0
H1153 H 0.8723 0.58957 0.94465 0.0
H1154 H 0.92743 0.61099 -0.0008 0.0
H1155 H 0.9363 0.61561 0.8889 0.0
H1156 H 0.87372 0.5696 0.02936 0.0
H1157 H 0.91482 0.63885 0.11337 0.0
H1158 H 0.91231 0.6334 0.03111 0.0
H1159 H 0.92895 0.63179 0.07727 0.0
C1160 C 0.89134 0.59733 0.87008 0.0
C1161 C 0.9094 0.60478 0.85369 0.0
C1162 C 0.8863 0.59525 0.933 0.0
C1163 C 0.89923 0.60035 0.98044 0.0
C1164 C 0.91727 0.60758 0.96373 0.0
H1165 H 0.8864 0.55453 0.34301 0.0
H1166 H 0.88781 0.56102 0.23116 0.0
C1167 C 0.92234 0.61006 0.90088 0.0
C1168 C 0.8938 0.59704 0.04718 0.0
H1169 H 0.90547 0.61573 0.1925 0.0
C1170 C 0.88045 0.5798 0.06491 0.0
C1171 C 0.90217 0.61041 0.09363 0.0
C1172 C 0.91519 0.62968 0.07765 0.0
C1173 C 0.87594 0.57532 0.12797 0.0
C1174 C 0.88562 0.5882 0.17476 0.0
C1175 C 0.89826 0.6057 0.15684 0.0
C1176 C 0.88363 0.58363 0.24233 0.0
C1177 C 0.86082 0.55683 0.14343 0.0
C1178 C 0.88144 0.59451 0.28621 0.0
C1179 C 0.8812 0.59111 0.35026 0.0
C1180 C 0.88287 0.57662 0.37134 0.0
C1181 C 0.88473 0.56555 0.32758 0.0
C1182 C 0.88539 0.56919 0.2637 0.0
H1183 H 0.85075 0.55157 0.1052 0.0
H1184 H 0.86617 0.54758 0.14836 0.0
H1185 H 0.85402 0.55672 0.18766 0.0
H1186 H 0.88016 0.60579 0.27095 0.0
H1187 H 0.87974 0.59978 0.38343 0.0
H1188 H 0.32946 0.87327 0.48312 0.0
H1189 H 0.32743 0.87908 0.37233 0.0
H1190 H 0.28709 0.89295 0.41489 0.0
H1191 H 0.28871 0.88672 0.52584 0.0
H1192 H 0.2805 0.87113 0.30398 0.0
H1193 H 0.34803 0.93155 0.30975 0.0
H1194 H 0.34716 0.91161 0.33902 0.0
H1195 H 0.33551 0.92092 0.37985 0.0
C1196 C 0.31988 0.87717 0.46887 0.0
C1197 C 0.30937 0.8797 0.51333 0.0
C1198 C 0.31887 0.88066 0.40567 0.0
C1199 C 0.30736 0.88675 0.38595 0.0
C1200 C 0.29617 0.88841 0.42953 0.0
H1201 H 0.32116 0.9375 0.02034 0.0
H1202 H 0.31576 0.93109 0.1325 0.0
C1203 C 0.29719 0.88495 0.4928 0.0
C1204 C 0.30759 0.89207 0.3202 0.0
H1205 H 0.33495 0.92135 0.20928 0.0
C1206 C 0.29232 0.88218 0.28321 0.0
C1207 C 0.32292 0.90676 0.29396 0.0
C1208 C 0.3393 0.91846 0.33274 0.0
C1209 C 0.29228 0.88613 0.2195 0.0
C1210 C 0.308 0.90015 0.19239 0.0
C1211 C 0.32297 0.91052 0.23015 0.0
C1212 C 0.30966 0.90361 0.12429 0.0
C1213 C 0.27548 0.87522 0.18177 0.0
C1214 C 0.30809 0.89032 0.08285 0.0
C1215 C 0.31125 0.89395 0.01909 0.0
C1216 C 0.31618 0.91103 0.99553 0.0
C1217 C 0.31755 0.92428 0.03713 0.0
C1218 C 0.31436 0.92061 0.10105 0.0
H1219 H 0.26344 0.86912 0.21217 0.0
H1220 H 0.27385 0.88352 0.1455 0.0
H1221 H 0.27625 0.8642 0.15793 0.0
H1222 H 0.30499 0.87727 0.1001 0.0
H1223 H 0.31044 0.88355 0.98873 0.0
H1224 H 0.40858 0.28638 0.71359 0.0
H1225 H 0.40212 0.28273 0.6014 0.0
H1226 H 0.45608 0.32432 0.56218 0.0
H1227 H 0.4626 0.32821 0.67421 0.0
H1228 H 0.40475 0.31054 0.52597 0.0
H1229 H 0.44786 0.28471 0.43695 0.0
H1230 H 0.44202 0.28369 0.51867 0.0
H1231 H 0.45936 0.30422 0.48553 0.0
C1232 C 0.41911 0.29466 0.68109 0.0
C1233 C 0.43607 0.30768 0.7028 0.0
C1234 C 0.41542 0.29247 0.61708 0.0
C1235 C 0.42867 0.30314 0.57372 0.0
C1236 C 0.44579 0.31571 0.59499 0.0
H1237 H 0.43647 0.33048 0.18582 0.0
H1238 H 0.44092 0.32701 0.29689 0.0
C1239 C 0.44949 0.31792 0.65903 0.0
C1240 C 0.42413 0.30241 0.50679 0.0
H1241 H 0.43582 0.29604 0.36065 0.0
C1242 C 0.41135 0.30714 0.48975 0.0
C1243 C 0.43285 0.29805 0.45999 0.0
C1244 C 0.44618 0.29222 0.47608 0.0
C1245 C 0.40752 0.30827 0.42673 0.0
C1246 C 0.4165 0.30424 0.37984 0.0
C1247 C 0.429 0.29914 0.39691 0.0
C1248 C 0.41366 0.30599 0.31269 0.0
C1249 C 0.39442 0.31442 0.41082 0.0
C1250 C 0.39689 0.29522 0.285 0.0
C1251 C 0.39431 0.29719 0.22159 0.0
C1252 C 0.40853 0.30986 0.18487 0.0
C1253 C 0.42533 0.3205 0.21282 0.0
C1254 C 0.42788 0.31856 0.27617 0.0
H1255 H 0.39172 0.32072 0.45158 0.0
H1256 H 0.39948 0.32417 0.37159 0.0
H1257 H 0.38158 0.30273 0.39594 0.0
H1258 H 0.38585 0.28522 0.31233 0.0
H1259 H 0.38131 0.28858 0.20114 0.0
H1260 H 0.60418 0.90822 0.96943 0.0
H1261 H 0.60991 0.90894 0.08116 0.0
H1262 H 0.5677 0.85403 0.09787 0.0
H1263 H 0.56188 0.85317 0.98511 0.0
H1264 H 0.56495 0.87639 0.18241 0.0
H1265 H 0.63373 0.88742 0.18541 0.0
H1266 H 0.63184 0.90314 0.13567 0.0
H1267 H 0.6197 0.87968 0.1166 0.0
C1268 C 0.59638 0.89614 -0.00362 0.0
C1269 C 0.58264 0.88058 0.96831 0.0
C1270 C 0.59971 0.89657 0.06033 0.0
C1271 C 0.58949 0.88142 0.09746 0.0
C1272 C 0.57585 0.8658 0.06972 0.0
H1273 H 0.58877 0.87867 0.50779 0.0
H1274 H 0.58428 0.86893 0.39857 0.0
C1275 C 0.57247 0.86536 0.00554 0.0
C1276 C 0.59206 0.88265 0.166 0.0
H1277 H 0.62417 0.896 0.27898 0.0
C1278 C 0.57778 0.88031 0.20381 0.0
C1279 C 0.60883 0.88777 0.19355 0.0
C1280 C 0.62434 0.88947 0.15571 0.0
C1281 C 0.58012 0.88397 0.26812 0.0
C1282 C 0.59711 0.88993 0.29503 0.0
C1283 C 0.6112 0.89155 0.25781 0.0
C1284 C 0.60073 0.89554 0.36106 0.0
C1285 C 0.56465 0.8823 0.30626 0.0
C1286 C 0.61183 0.91367 0.37578 0.0
C1287 C 0.61434 0.91931 0.43806 0.0
C1288 C 0.60578 0.90689 0.48646 0.0
C1289 C 0.59514 0.88864 0.47148 0.0
C1290 C 0.59265 0.88301 0.40923 0.0
H1291 H 0.55327 0.88032 0.27637 0.0
H1292 H 0.55985 0.87065 0.33821 0.0
H1293 H 0.56895 0.89442 0.33548 0.0
H1294 H 0.61818 0.9235 0.33895 0.0
H1295 H 0.62256 0.93343 0.44829 0.0
H1296 H 0.70885 0.55967 0.17537 0.0
H1297 H 0.71087 0.56782 0.28604 0.0
H1298 H 0.71131 0.61639 0.23554 0.0
H1299 H 0.7085 0.60814 0.12587 0.0
H1300 H 0.73533 0.59906 0.35699 0.0
H1301 H 0.66657 0.58909 0.3458 0.0
H1302 H 0.67562 0.58152 0.28469 0.0
H1303 H 0.68216 0.60477 0.29038 0.0
C1304 C 0.70943 0.5721 0.18772 0.0
C1305 C 0.70824 0.58306 0.14144 0.0
C1306 C 0.71074 0.5768 0.25089 0.0
C1307 C 0.71092 0.59253 0.26863 0.0
C1308 C 0.71092 0.60406 0.22259 0.0
H1309 H 0.69416 0.62439 0.6392 0.0
H1310 H 0.70126 0.6251 0.52775 0.0
C1311 C 0.70949 0.59934 0.15962 0.0
C1312 C 0.70968 0.59617 0.3353 0.0
H1313 H 0.68158 0.5984 0.44225 0.0
C1314 C 0.72364 0.59902 0.37575 0.0
C1315 C 0.69441 0.59615 0.35921 0.0
C1316 C 0.67875 0.59258 0.318 0.0
C1317 C 0.72266 0.60172 0.44004 0.0
C1318 C 0.70718 0.60121 0.46414 0.0
C1319 C 0.69345 0.59884 0.42338 0.0
C1320 C 0.70423 0.60167 0.53195 0.0
C1321 C 0.73817 0.60506 0.48156 0.0
C1322 C 0.70331 0.58813 0.57061 0.0
C1323 C 0.69916 0.58762 0.63383 0.0
C1324 C 0.69571 0.60059 0.65951 0.0
C1325 C 0.6966 0.61414 0.6206 0.0
C1326 C 0.70079 0.61465 0.5572 0.0
H1327 H 0.75081 0.61055 0.4545 0.0
H1328 H 0.74001 0.61449 0.52004 0.0
H1329 H 0.73553 0.59222 0.50271 0.0
H1330 H 0.70536 0.57766 0.55154 0.0
H1331 H 0.6982 0.57678 0.66217 0.0
H1332 H 0.13456 0.7261 0.27172 0.0
H1333 H 0.13332 0.7308 0.3845 0.0
H1334 H 0.12672 0.6786 0.42061 0.0
H1335 H 0.12891 0.67441 0.30853 0.0
H1336 H 0.10751 0.71423 0.46086 0.0
H1337 H 0.16288 0.70607 0.5496 0.0
H1338 H 0.15993 0.70837 0.46718 0.0
H1339 H 0.14795 0.68679 0.50474 0.0
C1340 C 0.13317 0.71584 0.30416 0.0
C1341 C 0.13202 0.7 0.28196 0.0
C1342 C 0.13245 0.71849 0.36838 0.0
C1343 C 0.13029 0.70521 0.41131 0.0
C1344 C 0.12907 0.68934 0.38885 0.0
H1345 H 0.07692 0.68308 0.76566 0.0
H1346 H 0.08563 0.68708 0.65514 0.0
C1347 C 0.13021 0.68688 0.32482 0.0
C1348 C 0.12782 0.70724 0.47895 0.0
H1349 H 0.13963 0.70054 0.62452 0.0
C1350 C 0.11477 0.71155 0.49665 0.0
C1351 C 0.13754 0.70417 0.52591 0.0
C1352 C 0.15299 0.70131 0.51077 0.0
C1353 C 0.1106 0.71203 0.55978 0.0
C1354 C 0.11914 0.70728 0.60638 0.0
C1355 C 0.13279 0.70383 0.58886 0.0
C1356 C 0.11376 0.70521 0.67318 0.0
C1357 C 0.09716 0.71774 0.57554 0.0
C1358 C 0.12672 0.71345 0.7203 0.0
C1359 C 0.12179 0.71064 0.78333 0.0
C1360 C 0.1038 0.69978 0.80019 0.0
C1361 C 0.09082 0.69169 0.75332 0.0
C1362 C 0.09579 0.69412 0.69034 0.0
H1363 H 0.09719 0.72708 0.53963 0.0
H1364 H 0.08357 0.70581 0.57616 0.0
H1365 H 0.0999 0.72441 0.62195 0.0
H1366 H 0.14067 0.72199 0.70832 0.0
H1367 H 0.13197 0.7171 0.81897 0.0
H1368 H 0.46244 0.1385 0.51614 0.0
H1369 H 0.45526 0.13328 0.62747 0.0
H1370 H 0.4013 0.121 0.58862 0.0
H1371 H 0.40838 0.12603 0.47678 0.0
H1372 H 0.44297 0.14811 0.71332 0.0
H1373 H 0.39375 0.07606 0.67747 0.0
H1374 H 0.40874 0.08992 0.61657 0.0
H1375 H 0.38906 0.09114 0.63454 0.0
C1376 C 0.44914 0.13498 0.53136 0.0
C1377 C 0.43592 0.13253 0.48772 0.0
C1378 C 0.44503 0.13192 0.59495 0.0
C1379 C 0.42766 0.1264 0.61605 0.0
C1380 C 0.41466 0.12481 0.57304 0.0
H1381 H 0.40506 0.11951 0.01886 0.0
H1382 H 0.40712 0.12724 0.90759 0.0
C1383 C 0.41873 0.12773 0.50931 0.0
C1384 C 0.42315 0.12177 0.6828 0.0
H1385 H 0.39742 0.08703 0.78079 0.0
C1386 C 0.43294 0.13479 0.7282 0.0
C1387 C 0.41021 0.1043 0.70183 0.0
C1388 C 0.39993 0.08948 0.65518 0.0
C1389 C 0.43035 0.13077 0.7923 0.0
C1390 C 0.41729 0.11335 0.81136 0.0
C1391 C 0.4073 0.10041 0.76595 0.0
C1392 C 0.41466 0.10794 0.87801 0.0
C1393 C 0.44214 0.14499 0.83882 0.0
C1394 C 0.41744 0.09401 0.89778 0.0
C1395 C 0.41605 0.08945 0.96104 0.0
C1396 C 0.41193 0.09878 0.00567 0.0
C1397 C 0.40856 0.11232 0.98551 0.0
C1398 C 0.40978 0.11677 0.9221 0.0
H1399 H 0.45422 0.156 0.81619 0.0
H1400 H 0.43453 0.15085 0.86026 0.0
H1401 H 0.44649 0.13923 0.87683 0.0
H1402 H 0.42117 0.087 0.86443 0.0
H1403 H 0.41887 0.07907 0.97523 0.0
H1404 H 0.29002 0.40584 0.6403 0.0
H1405 H 0.28886 0.39898 0.75196 0.0
H1406 H 0.32704 0.45429 0.79032 0.0
H1407 H 0.32865 0.46116 0.67878 0.0
H1408 H 0.33618 0.42903 0.83762 0.0
H1409 H 0.26708 0.412 0.9023 0.0
H1410 H 0.26916 0.40091 0.83422 0.0
H1411 H 0.27817 0.42469 0.83292 0.0
C1412 C 0.29806 0.41656 0.67259 0.0
C1413 C 0.30951 0.43403 0.65067 0.0
C1414 C 0.29725 0.41265 0.73634 0.0
C1415 C 0.3078 0.42617 0.77914 0.0
C1416 C 0.31875 0.44372 0.7578 0.0
H1417 H 0.31365 0.43275 0.17673 0.0
H1418 H 0.30887 0.43443 0.06527 0.0
C1419 C 0.31955 0.44764 0.69413 0.0
C1420 C 0.30854 0.42183 0.84548 0.0
H1421 H 0.28413 0.40778 0.98009 0.0
C1422 C 0.3248 0.42432 0.86884 0.0
C1423 C 0.29364 0.41572 0.88566 0.0
C1424 C 0.27603 0.41327 0.86289 0.0
C1425 C 0.32666 0.42109 0.93189 0.0
C1426 C 0.31177 0.41498 0.97216 0.0
C1427 C 0.29544 0.4123 0.94868 0.0
C1428 C 0.31336 0.41275 0.0399 0.0
C1429 C 0.34468 0.4248 0.95539 0.0
C1430 C 0.31719 0.39977 0.06249 0.0
C1431 C 0.31987 0.3987 0.12654 0.0
C1432 C 0.31868 0.41054 0.16885 0.0
C1433 C 0.31442 0.42323 0.14584 0.0
C1434 C 0.31174 0.42428 0.08202 0.0
H1435 H 0.35549 0.43254 0.921 0.0
H1436 H 0.34808 0.43235 0.00016 0.0
H1437 H 0.34426 0.41192 0.96424 0.0
H1438 H 0.31827 0.39061 0.03054 0.0
H1439 H 0.32287 0.38862 0.14291 0.0
H1440 H 0.93375 0.34135 0.30397 0.0
H1441 H 0.92483 0.33497 0.19409 0.0
H1442 H 0.8817 0.28275 0.24505 0.0
H1443 H 0.89079 0.28887 0.35504 0.0
H1444 H 0.90161 0.28372 0.13512 0.0
H1445 H 0.87863 0.33334 0.12885 0.0
H1446 H 0.90104 0.3421 0.15746 0.0
H1447 H 0.88262 0.32502 0.20111 0.0
C1448 C 0.92256 0.32841 0.29174 0.0
C1449 C 0.91286 0.31568 0.33818 0.0
C1450 C 0.91739 0.32485 0.22909 0.0
C1451 C 0.90243 0.30854 0.21196 0.0
C1452 C 0.89317 0.29549 0.25768 0.0
H1453 H 0.8546 0.29796 0.84244 0.0
H1454 H 0.85738 0.29473 0.95526 0.0
C1455 C 0.89832 0.29905 0.32038 0.0
C1456 C 0.89622 0.30537 0.14643 0.0
H1457 H 0.88143 0.32191 0.03061 0.0
C1458 C 0.89702 0.29192 0.11225 0.0
C1459 C 0.88988 0.31584 0.11745 0.0
C1460 C 0.8878 0.32978 0.15317 0.0
C1461 C 0.89246 0.28927 0.04855 0.0
C1462 C 0.88719 0.30052 0.0186 0.0
C1463 C 0.88557 0.31337 0.05366 0.0
C1464 C 0.88468 0.30025 0.95013 0.0
C1465 C 0.89347 0.27459 0.01378 0.0
C1466 C 0.89909 0.30438 0.91018 0.0
C1467 C 0.89758 0.30632 0.84607 0.0
C1468 C 0.88165 0.30431 0.82069 0.0
C1469 C 0.86708 0.29975 0.86069 0.0
C1470 C 0.86861 0.29779 0.92497 0.0
H1471 H 0.89204 0.26387 0.04614 0.0
H1472 H 0.88295 0.26856 0.97718 0.0
H1473 H 0.90669 0.28027 0.99064 0.0
H1474 H 0.91178 0.30683 0.9289 0.0
H1475 H 0.9092 0.3102 0.81698 0.0
loop_
_geom_bond_atom_site_label_1
_geom_bond_atom_site_label_2
_geom_bond_distance
_geom_bond_site_symmetry_2
_ccdc_geom_bond_type
C0 C1 1.351 . S
C0 N3 1.368 . S
C0 H5 0.931 . S
C1 C0 1.351 . S
C1 N2 1.373 . S
C1 H29 0.930 . S
N2 C1 1.373 . S
N2 C4 1.340 . S
N3 C0 1.368 . S
N3 C4 1.321 . S
N3 Co6 2.135 1_556 S
C4 N2 1.340 . S
C4 N3 1.321 . S
C4 H28 0.930 . S
H5 C0 0.931 . S
Co6 N3 2.135 1_554 S
Co6 N9 2.121 . S
Co6 O14 2.055 . S
Co6 O17 2.039 . S
Co6 N20 2.140 . S
C7 O8 1.227 . S
C7 O17 1.265 . S
O8 C7 1.227 . S
N9 Co6 2.121 . S
N9 C11 1.375 . S
N9 C12 1.313 . S
C10 C11 1.338 . S
C10 N13 1.377 . S
C10 H30 0.930 . S
C11 N9 1.375 . S
C11 C10 1.338 . S
C11 H15 0.931 . S
C12 N9 1.313 . S
C12 N13 1.344 . S
C12 H16 0.930 . S
N13 C10 1.377 . S
N13 C12 1.344 . S
O14 Co6 2.055 . S
O14 C18 1.253 . S
H15 C11 0.931 . S
H16 C12 0.930 . S
O17 Co6 2.039 . S
O17 C7 1.265 . S
C18 O14 1.253 . S
C18 O19 1.227 . S
O19 C18 1.227 . S
N20 Co6 2.140 . S
N20 C23 1.346 . S
N20 C24 1.345 . S
C21 C22 1.387 . S
C21 C25 1.391 . S
C22 C21 1.387 . S
C22 C23 1.369 . S
C22 H31 0.929 1_554 S
C23 N20 1.346 . S
C23 C22 1.369 . S
C23 H26 0.928 1_554 S
C24 N20 1.345 . S
C24 C25 1.371 . S
C24 H27 0.931 . S
C25 C21 1.391 . S
C25 C24 1.371 . S
C25 H32 0.930 . S
H26 C23 0.928 1_556 S
H27 C24 0.931 . S
H28 C4 0.930 . S
H29 C1 0.930 . S
H30 C10 0.930 . S
H31 C22 0.929 1_556 S
H32 C25 0.930 . S
C33 C34 1.351 . S
C33 N36 1.368 . S
C33 H38 0.931 . S
C34 C33 1.351 . S
C34 N35 1.373 . S
C34 H62 0.930 . S
N35 C34 1.373 . S
N35 C37 1.340 . S
N36 C33 1.368 . S
N36 C37 1.321 . S
N36 Co39 2.135 . S
C37 N35 1.340 . S
C37 N36 1.321 . S
C37 H61 0.930 . S
H38 C33 0.931 . S
Co39 N36 2.135 . S
Co39 N42 2.121 . S
Co39 O47 2.055 . S
Co39 O50 2.039 . S
Co39 N53 2.140 . S
C40 O41 1.227 . S
C40 O50 1.265 . S
O41 C40 1.227 . S
N42 Co39 2.121 . S
N42 C44 1.375 . S
N42 C45 1.313 . S
C43 C44 1.338 . S
C43 N46 1.377 . S
C43 H63 0.930 . S
C44 N42 1.375 . S
C44 C43 1.338 . S
C44 H48 0.931 . S
C45 N42 1.313 . S
C45 N46 1.344 . S
C45 H49 0.930 . S
N46 C43 1.377 . S
N46 C45 1.344 . S
O47 Co39 2.055 . S
O47 C51 1.253 . S
H48 C44 0.931 . S
H49 C45 0.930 . S
O50 Co39 2.039 . S
O50 C40 1.265 . S
C51 O47 1.253 . S
C51 O52 1.227 . S
O52 C51 1.227 . S
N53 Co39 2.140 . S
N53 C56 1.346 . S
N53 C57 1.345 . S
C54 C55 1.387 . S
C54 C58 1.391 . S
C55 C54 1.387 . S
C55 C56 1.369 . S
C55 H64 0.929 . S
C56 N53 1.346 . S
C56 C55 1.369 . S
C56 H59 0.928 . S
C57 N53 1.345 . S
C57 C58 1.371 . S
C57 H60 0.931 . S
C58 C54 1.391 . S
C58 C57 1.371 . S
C58 H65 0.930 . S
H59 C56 0.928 . S
H60 C57 0.931 . S
H61 C37 0.930 . S
H62 C34 0.930 . S
H63 C43 0.930 . S
H64 C55 0.929 . S
H65 C58 0.930 . S
C66 C67 1.351 . S
C66 N69 1.368 . S
C66 H71 0.931 . S
C67 C66 1.351 . S
C67 N68 1.373 . S
C67 H95 0.930 . S
N68 C67 1.373 . S
N68 C70 1.340 . S
N69 C66 1.368 . S
N69 C70 1.321 . S
N69 Co72 2.135 . S
C70 N68 1.340 . S
C70 N69 1.321 . S
C70 H94 0.930 . S
H71 C66 0.931 . S
Co72 N69 2.135 . S
Co72 N75 2.121 . S
Co72 O80 2.055 . S
Co72 O83 2.039 . S
Co72 N86 2.140 . S
C73 O74 1.227 . S
C73 O83 1.265 . S
O74 C73 1.227 . S
N75 Co72 2.121 . S
N75 C77 1.375 . S
N75 C78 1.313 . S
C76 C77 1.338 . S
C76 N79 1.377 . S
C76 H96 0.930 . S
C77 N75 1.375 . S
C77 C76 1.338 . S
C77 H81 0.931 . S
C78 N75 1.313 . S
C78 N79 1.344 . S
C78 H82 0.930 . S
N79 C76 1.377 . S
N79 C78 1.344 . S
O80 Co72 2.055 . S
O80 C84 1.253 . S
H81 C77 0.931 . S
H82 C78 0.930 . S
O83 Co72 2.039 . S
O83 C73 1.265 . S
C84 O80 1.253 . S
C84 O85 1.227 . S
O85 C84 1.227 . S
N86 Co72 2.140 . S
N86 C89 1.346 . S
N86 C90 1.345 . S
C87 C88 1.387 . S
C87 C91 1.391 . S
C88 C87 1.387 . S
C88 C89 1.369 . S
C88 H97 0.929 . S
C89 N86 1.346 . S
C89 C88 1.369 . S
C89 H92 0.928 . S
C90 N86 1.345 . S
C90 C91 1.371 . S
C90 H93 0.931 . S
C91 C87 1.391 . S
C91 C90 1.371 . S
C91 H98 0.930 . S
H92 C89 0.928 . S
H93 C90 0.931 . S
H94 C70 0.930 . S
H95 C67 0.930 . S
H96 C76 0.930 . S
H97 C88 0.929 . S
H98 C91 0.930 . S
C99 C100 1.351 . S
C99 N102 1.368 . S
C99 H104 0.931 . S
C100 C99 1.351 . S
C100 N101 1.373 . S
C100 H128 0.930 . S
N101 C100 1.373 . S
N101 C103 1.340 . S
N102 C99 1.368 . S
N102 C103 1.321 . S
N102 Co105 2.135 . S
C103 N101 1.340 . S
C103 N102 1.321 . S
C103 H127 0.930 . S
H104 C99 0.931 . S
Co105 N102 2.135 . S
Co105 N108 2.121 . S
Co105 O113 2.055 . S
Co105 O116 2.039 . S
Co105 N119 2.140 . S
C106 O107 1.227 . S
C106 O116 1.265 . S
O107 C106 1.227 . S
N108 Co105 2.121 . S
N108 C110 1.375 . S
N108 C111 1.313 . S
C109 C110 1.338 . S
C109 N112 1.377 . S
C109 H129 0.930 . S
C110 N108 1.375 . S
C110 C109 1.338 . S
C110 H114 0.931 . S
C111 N108 1.313 . S
C111 N112 1.344 . S
C111 H115 0.930 . S
N112 C109 1.377 . S
N112 C111 1.344 . S
O113 Co105 2.055 . S
O113 C117 1.253 . S
H114 C110 0.931 . S
H115 C111 0.930 . S
O116 Co105 2.039 . S
O116 C106 1.265 . S
C117 O113 1.253 . S
C117 O118 1.227 . S
O118 C117 1.227 . S
N119 Co105 2.140 . S
N119 C122 1.346 . S
N119 C123 1.345 . S
C120 C121 1.387 . S
C120 C124 1.391 . S
C121 C120 1.387 . S
C121 C122 1.369 . S
C121 H130 0.929 . S
C122 N119 1.346 . S
C122 C121 1.369 . S
C122 H125 0.928 . S
C123 N119 1.345 . S
C123 C124 1.371 . S
C123 H126 0.931 . S
C124 C120 1.391 . S
C124 C123 1.371 . S
C124 H131 0.930 . S
H125 C122 0.928 . S
H126 C123 0.931 . S
H127 C103 0.930 . S
H128 C100 0.930 . S
H129 C109 0.930 . S
H130 C121 0.929 . S
H131 C124 0.930 . S
C132 C133 1.351 . S
C132 N135 1.368 . S
C132 H137 0.931 . S
C133 C132 1.351 . S
C133 N134 1.373 . S
C133 H161 0.930 . S
N134 C133 1.373 . S
N134 C136 1.340 . S
N135 C132 1.368 . S
N135 C136 1.321 . S
N135 Co138 2.135 . S
C136 N134 1.340 . S
C136 N135 1.321 . S
C136 H160 0.930 . S
H137 C132 0.931 . S
Co138 N135 2.135 . S
Co138 N141 2.121 . S
Co138 O146 2.055 . S
Co138 O149 2.039 . S
Co138 N152 2.140 . S
C139 O140 1.227 . S
C139 O149 1.265 . S
O140 C139 1.227 . S
N141 Co138 2.121 . S
N141 C143 1.375 . S
N141 C144 1.313 . S
C142 C143 1.338 . S
C142 N145 1.377 . S
C142 H162 0.930 . S
C143 N141 1.375 . S
C143 C142 1.338 . S
C143 H147 0.931 . S
C144 N141 1.313 . S
C144 N145 1.344 . S
C144 H148 0.930 . S
N145 C142 1.377 . S
N145 C144 1.344 . S
O146 Co138 2.055 . S
O146 C150 1.253 . S
H147 C143 0.931 . S
H148 C144 0.930 . S
O149 Co138 2.039 . S
O149 C139 1.265 . S
C150 O146 1.253 . S
C150 O151 1.227 . S
O151 C150 1.227 . S
N152 Co138 2.140 . S
N152 C155 1.346 . S
N152 C156 1.345 . S
C153 C154 1.387 . S
C153 C157 1.391 . S
C154 C153 1.387 . S
C154 C155 1.369 . S
C154 H163 0.929 . S
C155 N152 1.346 . S
C155 C154 1.369 . S
C155 H158 0.928 . S
C156 N152 1.345 . S
C156 C157 1.371 . S
C156 H159 0.931 . S
C157 C153 1.391 . S
C157 C156 1.371 . S
C157 H164 0.930 . S
H158 C155 0.928 . S
H159 C156 0.931 . S
H160 C136 0.930 . S
H161 C133 0.930 . S
H162 C142 0.930 . S
H163 C154 0.929 . S
H164 C157 0.930 . S
C165 C166 1.351 . S
C165 N168 1.368 . S
C165 H170 0.931 . S
C166 C165 1.351 . S
C166 N167 1.373 . S
C166 H194 0.930 . S
N167 C166 1.373 . S
N167 C169 1.340 . S
N168 C165 1.368 . S
N168 C169 1.321 . S
N168 Co171 2.135 . S
C169 N167 1.340 . S
C169 N168 1.321 . S
C169 H193 0.930 . S
H170 C165 0.931 . S
Co171 N168 2.135 . S
Co171 N174 2.121 . S
Co171 O179 2.055 . S
Co171 O182 2.039 . S
Co171 N185 2.140 . S
C172 O173 1.227 . S
C172 O182 1.265 . S
O173 C172 1.227 . S
N174 Co171 2.121 . S
N174 C176 1.375 1_556 S
N174 C177 1.313 1_556 S
C175 C176 1.338 . S
C175 N178 1.377 . S
C175 H195 0.930 . S
C176 N174 1.375 1_554 S
C176 C175 1.338 . S
C176 H180 0.931 1_554 S
C177 N174 1.313 1_554 S
C177 N178 1.344 . S
C177 H181 0.930 . S
N178 C175 1.377 . S
N178 C177 1.344 . S
O179 Co171 2.055 . S
O179 C183 1.253 . S
H180 C176 0.931 1_556 S
H181 C177 0.930 . S
O182 Co171 2.039 . S
O182 C172 1.265 . S
C183 O179 1.253 . S
C183 O184 1.227 . S
O184 C183 1.227 . S
N185 Co171 2.140 . S
N185 C188 1.346 . S
N185 C189 1.345 . S
C186 C187 1.387 . S
C186 C190 1.391 . S
C187 C186 1.387 . S
C187 C188 1.369 . S
C187 H196 0.929 . S
C188 N185 1.346 . S
C188 C187 1.369 . S
C188 H191 0.928 . S
C189 N185 1.345 . S
C189 C190 1.371 . S
C189 H192 0.931 . S
C190 C186 1.391 . S
C190 C189 1.371 . S
C190 H197 0.930 . S
H191 C188 0.928 . S
H192 C189 0.931 . S
H193 C169 0.930 . S
H194 C166 0.930 . S
H195 C175 0.930 . S
H196 C187 0.929 . S
H197 C190 0.930 . S
C198 C199 1.351 . S
C198 N201 1.368 . S
C198 H203 0.931 . S
C199 C198 1.351 . S
C199 N200 1.373 . S
C199 H227 0.930 . S
N200 C199 1.373 . S
N200 C202 1.340 . S
N201 C198 1.368 . S
N201 C202 1.321 . S
N201 Co204 2.135 . S
C202 N200 1.340 . S
C202 N201 1.321 . S
C202 H226 0.930 . S
H203 C198 0.931 . S
Co204 N201 2.135 . S
Co204 N207 2.121 . S
Co204 O212 2.055 . S
Co204 O215 2.039 . S
Co204 N218 2.140 . S
C205 O206 1.227 . S
C205 O215 1.265 . S
O206 C205 1.227 . S
N207 Co204 2.121 . S
N207 C209 1.375 . S
N207 C210 1.313 . S
C208 C209 1.338 . S
C208 N211 1.377 . S
C208 H228 0.930 . S
C209 N207 1.375 . S
C209 C208 1.338 . S
C209 H213 0.931 . S
C210 N207 1.313 . S
C210 N211 1.344 . S
C210 H214 0.930 . S
N211 C208 1.377 . S
N211 C210 1.344 . S
O212 Co204 2.055 . S
O212 C216 1.253 . S
H213 C209 0.931 . S
H214 C210 0.930 . S
O215 Co204 2.039 . S
O215 C205 1.265 . S
C216 O212 1.253 . S
C216 O217 1.227 . S
O217 C216 1.227 . S
N218 Co204 2.140 . S
N218 C221 1.346 . S
N218 C222 1.345 . S
C219 C220 1.387 . S
C219 C223 1.391 . S
C220 C219 1.387 . S
C220 C221 1.369 . S
C220 H229 0.929 . S
C221 N218 1.346 . S
C221 C220 1.369 . S
C221 H224 0.928 . S
C222 N218 1.345 . S
C222 C223 1.371 . S
C222 H225 0.931 . S
C223 C219 1.391 . S
C223 C222 1.371 . S
C223 H230 0.930 . S
H224 C221 0.928 . S
H225 C222 0.931 . S
H226 C202 0.930 . S
H227 C199 0.930 . S
H228 C208 0.930 . S
H229 C220 0.929 . S
H230 C223 0.930 . S
C231 C232 1.351 . S
C231 N234 1.368 . S
C231 H236 0.931 . S
C232 C231 1.351 . S
C232 N233 1.373 . S
C232 H260 0.930 . S
N233 C232 1.373 . S
N233 C235 1.340 . S
N234 C231 1.368 . S
N234 C235 1.321 . S
N234 Co237 2.135 1_554 S
C235 N233 1.340 . S
C235 N234 1.321 . S
C235 H259 0.930 . S
H236 C231 0.931 . S
Co237 N234 2.135 1_556 S
Co237 N240 2.121 . S
Co237 O245 2.055 . S
Co237 O248 2.039 . S
Co237 N251 2.140 . S
C238 O239 1.227 1_556 S
C238 O248 1.265 . S
O239 C238 1.227 1_554 S
N240 Co237 2.121 . S
N240 C242 1.375 . S
N240 C243 1.313 . S
C241 C242 1.338 . S
C241 N244 1.377 . S
C241 H261 0.930 . S
C242 N240 1.375 . S
C242 C241 1.338 . S
C242 H246 0.931 . S
C243 N240 1.313 . S
C243 N244 1.344 . S
C243 H247 0.930 . S
N244 C241 1.377 . S
N244 C243 1.344 . S
O245 Co237 2.055 . S
O245 C249 1.253 . S
H246 C242 0.931 . S
H247 C243 0.930 . S
O248 Co237 2.039 . S
O248 C238 1.265 . S
C249 O245 1.253 . S
C249 O250 1.227 . S
O250 C249 1.227 . S
N251 Co237 2.140 . S
N251 C254 1.346 1_556 S
N251 C255 1.345 . S
C252 C253 1.387 1_556 S
C252 C256 1.391 . S
C253 C252 1.387 1_554 S
C253 C254 1.369 . S
C253 H262 0.929 . S
C254 N251 1.346 1_554 S
C254 C253 1.369 . S
C254 H257 0.928 . S
C255 N251 1.345 . S
C255 C256 1.371 . S
C255 H258 0.931 . S
C256 C252 1.391 . S
C256 C255 1.371 . S
C256 H263 0.930 . S
H257 C254 0.928 . S
H258 C255 0.931 . S
H259 C235 0.930 . S
H260 C232 0.930 . S
H261 C241 0.930 . S
H262 C253 0.929 . S
H263 C256 0.930 . S
C264 C265 1.351 . S
C264 N267 1.368 . S
C264 H269 0.931 . S
C265 C264 1.351 . S
C265 N266 1.373 . S
C265 H293 0.930 . S
N266 C265 1.373 . S
N266 C268 1.340 . S
N267 C264 1.368 . S
N267 C268 1.321 . S
N267 Co270 2.135 . S
C268 N266 1.340 . S
C268 N267 1.321 . S
C268 H292 0.930 . S
H269 C264 0.931 . S
Co270 N267 2.135 . S
Co270 N273 2.121 . S
Co270 O278 2.055 . S
Co270 O281 2.039 . S
Co270 N284 2.140 . S
C271 O272 1.227 . S
C271 O281 1.265 . S
O272 C271 1.227 . S
N273 Co270 2.121 . S
N273 C275 1.375 . S
N273 C276 1.313 1_554 S
C274 C275 1.338 1_556 S
C274 N277 1.377 . S
C274 H294 0.930 . S
C275 N273 1.375 . S
C275 C274 1.338 1_554 S
C275 H279 0.931 . S
C276 N273 1.313 1_556 S
C276 N277 1.344 . S
C276 H280 0.930 . S
N277 C274 1.377 . S
N277 C276 1.344 . S
O278 Co270 2.055 . S
O278 C282 1.253 . S
H279 C275 0.931 . S
H280 C276 0.930 . S
O281 Co270 2.039 . S
O281 C271 1.265 . S
C282 O278 1.253 . S
C282 O283 1.227 . S
O283 C282 1.227 . S
N284 Co270 2.140 . S
N284 C287 1.346 . S
N284 C288 1.345 . S
C285 C286 1.387 . S
C285 C289 1.391 . S
C286 C285 1.387 . S
C286 C287 1.369 . S
C286 H295 0.929 . S
C287 N284 1.346 . S
C287 C286 1.369 . S
C287 H290 0.928 . S
C288 N284 1.345 . S
C288 C289 1.371 . S
C288 H291 0.931 . S
C289 C285 1.391 . S
C289 C288 1.371 . S
C289 H296 0.930 . S
H290 C287 0.928 . S
H291 C288 0.931 . S
H292 C268 0.930 . S
H293 C265 0.930 . S
H294 C274 0.930 . S
H295 C286 0.929 . S
H296 C289 0.930 . S
C297 C298 1.351 . S
C297 N300 1.368 . S
C297 H302 0.931 . S
C298 C297 1.351 . S
C298 N299 1.373 . S
C298 H326 0.930 . S
N299 C298 1.373 . S
N299 C301 1.340 . S
N300 C297 1.368 . S
N300 C301 1.321 . S
N300 Co303 2.135 . S
C301 N299 1.340 . S
C301 N300 1.321 . S
C301 H325 0.930 . S
H302 C297 0.931 . S
Co303 N300 2.135 . S
Co303 N306 2.121 . S
Co303 O311 2.055 . S
Co303 O314 2.039 . S
Co303 N317 2.140 . S
C304 O305 1.227 . S
C304 O314 1.265 . S
O305 C304 1.227 . S
N306 Co303 2.121 . S
N306 C308 1.375 . S
N306 C309 1.313 . S
C307 C308 1.338 . S
C307 N310 1.377 . S
C307 H327 0.930 . S
C308 N306 1.375 . S
C308 C307 1.338 . S
C308 H312 0.931 . S
C309 N306 1.313 . S
C309 N310 1.344 . S
C309 H313 0.930 . S
N310 C307 1.377 . S
N310 C309 1.344 . S
O311 Co303 2.055 . S
O311 C315 1.253 . S
H312 C308 0.931 . S
H313 C309 0.930 . S
O314 Co303 2.039 . S
O314 C304 1.265 . S
C315 O311 1.253 . S
C315 O316 1.227 . S
O316 C315 1.227 . S
N317 Co303 2.140 . S
N317 C320 1.346 . S
N317 C321 1.345 . S
C318 C319 1.387 . S
C318 C322 1.391 . S
C319 C318 1.387 . S
C319 C320 1.369 . S
C319 H328 0.929 . S
C320 N317 1.346 . S
C320 C319 1.369 . S
C320 H323 0.928 . S
C321 N317 1.345 . S
C321 C322 1.371 . S
C321 H324 0.931 . S
C322 C318 1.391 . S
C322 C321 1.371 . S
C322 H329 0.930 . S
H323 C320 0.928 . S
H324 C321 0.931 . S
H325 C301 0.930 . S
H326 C298 0.930 . S
H327 C307 0.930 . S
H328 C319 0.929 . S
H329 C322 0.930 . S
C330 C331 1.351 . S
C330 N333 1.368 . S
C330 H335 0.931 . S
C331 C330 1.351 . S
C331 N332 1.373 . S
C331 H359 0.930 . S
N332 C331 1.373 . S
N332 C334 1.340 . S
N333 C330 1.368 . S
N333 C334 1.321 . S
N333 Co336 2.135 . S
C334 N332 1.340 . S
C334 N333 1.321 . S
C334 H358 0.930 . S
H335 C330 0.931 . S
Co336 N333 2.135 . S
Co336 N339 2.121 . S
Co336 O344 2.055 . S
Co336 O347 2.039 . S
Co336 N350 2.140 . S
C337 O338 1.227 . S
C337 O347 1.265 . S
O338 C337 1.227 . S
N339 Co336 2.121 . S
N339 C341 1.375 . S
N339 C342 1.313 . S
C340 C341 1.338 . S
C340 N343 1.377 . S
C340 H360 0.930 . S
C341 N339 1.375 . S
C341 C340 1.338 . S
C341 H345 0.931 . S
C342 N339 1.313 . S
C342 N343 1.344 . S
C342 H346 0.930 . S
N343 C340 1.377 . S
N343 C342 1.344 . S
O344 Co336 2.055 . S
O344 C348 1.253 . S
H345 C341 0.931 . S
H346 C342 0.930 . S
O347 Co336 2.039 . S
O347 C337 1.265 . S
C348 O344 1.253 . S
C348 O349 1.227 . S
O349 C348 1.227 . S
N350 Co336 2.140 . S
N350 C353 1.346 . S
N350 C354 1.345 . S
C351 C352 1.387 . S
C351 C355 1.391 . S
C352 C351 1.387 . S
C352 C353 1.369 . S
C352 H361 0.929 . S
C353 N350 1.346 . S
C353 C352 1.369 . S
C353 H356 0.928 . S
C354 N350 1.345 . S
C354 C355 1.371 . S
C354 H357 0.931 . S
C355 C351 1.391 . S
C355 C354 1.371 . S
C355 H362 0.930 . S
H356 C353 0.928 . S
H357 C354 0.931 . S
H358 C334 0.930 . S
H359 C331 0.930 . S
H360 C340 0.930 . S
H361 C352 0.929 . S
H362 C355 0.930 . S
C363 C364 1.351 . S
C363 N366 1.368 . S
C363 H368 0.931 . S
C364 C363 1.351 . S
C364 N365 1.373 . S
C364 H392 0.930 . S
N365 C364 1.373 . S
N365 C367 1.340 . S
N366 C363 1.368 . S
N366 C367 1.321 . S
N366 Co369 2.135 . S
C367 N365 1.340 . S
C367 N366 1.321 . S
C367 H391 0.930 . S
H368 C363 0.931 . S
Co369 N366 2.135 . S
Co369 N372 2.121 . S
Co369 O377 2.055 . S
Co369 O380 2.039 . S
Co369 N383 2.140 . S
C370 O371 1.227 . S
C370 O380 1.265 . S
O371 C370 1.227 . S
N372 Co369 2.121 . S
N372 C374 1.375 . S
N372 C375 1.313 . S
C373 C374 1.338 . S
C373 N376 1.377 . S
C373 H393 0.930 . S
C374 N372 1.375 . S
C374 C373 1.338 . S
C374 H378 0.931 . S
C375 N372 1.313 . S
C375 N376 1.344 . S
C375 H379 0.930 . S
N376 C373 1.377 . S
N376 C375 1.344 . S
O377 Co369 2.055 . S
O377 C381 1.253 . S
H378 C374 0.931 . S
H379 C375 0.930 . S
O380 Co369 2.039 . S
O380 C370 1.265 . S
C381 O377 1.253 . S
C381 O382 1.227 . S
O382 C381 1.227 . S
N383 Co369 2.140 . S
N383 C386 1.346 . S
N383 C387 1.345 . S
C384 C385 1.387 . S
C384 C388 1.391 . S
C385 C384 1.387 . S
C385 C386 1.369 . S
C385 H394 0.929 . S
C386 N383 1.346 . S
C386 C385 1.369 . S
C386 H389 0.928 . S
C387 N383 1.345 . S
C387 C388 1.371 . S
C387 H390 0.931 . S
C388 C384 1.391 . S
C388 C387 1.371 . S
C388 H395 0.930 . S
H389 C386 0.928 . S
H390 C387 0.931 . S
H391 C367 0.930 . S
H392 C364 0.930 . S
H393 C373 0.930 . S
H394 C385 0.929 . S
H395 C388 0.930 . S
H396 C404 0.929 . S
H397 C406 0.930 . S
H398 C408 0.930 . S
H399 C411 0.929 . S
H400 C414 0.930 . S
H401 C416 0.960 . S
H402 C416 0.960 . S
H403 C416 0.960 . S
C404 H396 0.929 . S
C404 C405 1.377 . S
C404 C406 1.384 . S
C405 C404 1.377 . S
C405 C411 1.390 . S
C406 H397 0.930 . S
C406 C404 1.384 . S
C406 C407 1.372 . S
C407 C406 1.372 . S
C407 C408 1.400 . S
C407 C412 1.490 . S
C408 H398 0.930 . S
C408 C407 1.400 . S
C408 C411 1.386 . S
H409 C425 0.930 . S
H410 C426 0.931 . S
C411 H399 0.929 . S
C411 C405 1.390 . S
C411 C408 1.386 . S
C412 C407 1.490 . S
C412 C414 1.395 . S
C412 C415 1.403 . S
H413 C419 0.930 . S
C414 H400 0.930 . S
C414 C412 1.395 . S
C414 C417 1.403 . S
C415 C412 1.403 . S
C415 C416 1.524 1_554 S
C415 C419 1.400 . S
C416 H401 0.960 . S
C416 H402 0.960 . S
C416 H403 0.960 . S
C416 C415 1.524 1_556 S
C417 C414 1.403 . S
C417 C418 1.392 . S
C417 C421 1.495 . S
C418 C417 1.392 . S
C418 C419 1.385 . S
C418 C420 1.478 . S
C419 H413 0.930 . S
C419 C415 1.400 . S
C419 C418 1.385 . S
C420 C418 1.478 . S
C420 C422 1.381 . S
C420 C426 1.383 . S
C421 C417 1.495 . S
C421 H427 0.959 . S
C421 H428 0.961 . S
C421 H429 0.960 . S
C422 C420 1.381 . S
C422 C423 1.394 . S
C422 H430 0.930 . S
C423 C422 1.394 . S
C423 C424 1.383 . S
C423 H431 0.929 . S
C424 C423 1.383 . S
C424 C425 1.377 . S
C425 H409 0.930 . S
C425 C424 1.377 . S
C425 C426 1.379 . S
C426 H410 0.931 . S
C426 C420 1.383 . S
C426 C425 1.379 . S
H427 C421 0.959 . S
H428 C421 0.961 . S
H429 C421 0.960 . S
H430 C422 0.930 . S
H431 C423 0.929 . S
H432 C440 0.929 . S
H433 C442 0.930 . S
H434 C444 0.930 . S
H435 C447 0.929 . S
H436 C450 0.930 . S
H437 C452 0.960 . S
H438 C452 0.960 . S
H439 C452 0.960 . S
C440 H432 0.929 . S
C440 C441 1.377 . S
C440 C442 1.384 . S
C441 C440 1.377 . S
C441 C447 1.390 . S
C442 H433 0.930 . S
C442 C440 1.384 . S
C442 C443 1.372 . S
C443 C442 1.372 . S
C443 C444 1.400 . S
C443 C448 1.490 . S
C444 H434 0.930 . S
C444 C443 1.400 . S
C444 C447 1.386 . S
H445 C461 0.930 . S
H446 C462 0.931 . S
C447 H435 0.929 . S
C447 C441 1.390 . S
C447 C444 1.386 . S
C448 C443 1.490 . S
C448 C450 1.395 . S
C448 C451 1.403 . S
H449 C455 0.930 . S
C450 H436 0.930 . S
C450 C448 1.395 . S
C450 C453 1.403 . S
C451 C448 1.403 . S
C451 C452 1.524 . S
C451 C455 1.400 . S
C452 H437 0.960 . S
C452 H438 0.960 . S
C452 H439 0.960 . S
C452 C451 1.524 . S
C453 C450 1.403 . S
C453 C454 1.392 . S
C453 C457 1.495 . S
C454 C453 1.392 . S
C454 C455 1.385 . S
C454 C456 1.478 . S
C455 H449 0.930 . S
C455 C451 1.400 . S
C455 C454 1.385 . S
C456 C454 1.478 . S
C456 C458 1.381 . S
C456 C462 1.383 . S
C457 C453 1.495 . S
C457 H463 0.959 . S
C457 H464 0.961 . S
C457 H465 0.960 . S
C458 C456 1.381 . S
C458 C459 1.394 . S
C458 H466 0.930 . S
C459 C458 1.394 . S
C459 C460 1.383 . S
C459 H467 0.929 . S
C460 C459 1.383 . S
C460 C461 1.377 . S
C461 H445 0.930 . S
C461 C460 1.377 . S
C461 C462 1.379 . S
C462 H446 0.931 . S
C462 C456 1.383 . S
C462 C461 1.379 . S
H463 C457 0.959 . S
H464 C457 0.961 . S
H465 C457 0.960 . S
H466 C458 0.930 . S
H467 C459 0.929 . S
H468 C476 0.929 . S
H469 C478 0.930 . S
H470 C480 0.930 . S
H471 C483 0.929 . S
H472 C486 0.930 . S
H473 C488 0.960 . S
H474 C488 0.960 . S
H475 C488 0.960 . S
C476 H468 0.929 . S
C476 C477 1.377 . S
C476 C478 1.384 . S
C477 C476 1.377 . S
C477 C483 1.390 . S
C478 H469 0.930 . S
C478 C476 1.384 . S
C478 C479 1.372 . S
C479 C478 1.372 . S
C479 C480 1.400 . S
C479 C484 1.490 . S
C480 H470 0.930 . S
C480 C479 1.400 . S
C480 C483 1.386 . S
H481 C497 0.930 . S
H482 C498 0.931 . S
C483 H471 0.929 . S
C483 C477 1.390 . S
C483 C480 1.386 . S
C484 C479 1.490 . S
C484 C486 1.395 . S
C484 C487 1.403 . S
H485 C491 0.930 . S
C486 H472 0.930 . S
C486 C484 1.395 . S
C486 C489 1.403 . S
C487 C484 1.403 . S
C487 C488 1.524 . S
C487 C491 1.400 . S
C488 H473 0.960 . S
C488 H474 0.960 . S
C488 H475 0.960 . S
C488 C487 1.524 . S
C489 C486 1.403 . S
C489 C490 1.392 . S
C489 C493 1.495 . S
C490 C489 1.392 . S
C490 C491 1.385 . S
C490 C492 1.478 . S
C491 H485 0.930 . S
C491 C487 1.400 . S
C491 C490 1.385 . S
C492 C490 1.478 . S
C492 C494 1.381 . S
C492 C498 1.383 . S
C493 C489 1.495 . S
C493 H499 0.959 . S
C493 H500 0.961 . S
C493 H501 0.960 . S
C494 C492 1.381 . S
C494 C495 1.394 . S
C494 H502 0.930 . S
C495 C494 1.394 . S
C495 C496 1.383 . S
C495 H503 0.929 . S
C496 C495 1.383 . S
C496 C497 1.377 . S
C497 H481 0.930 . S
C497 C496 1.377 . S
C497 C498 1.379 . S
C498 H482 0.931 . S
C498 C492 1.383 . S
C498 C497 1.379 . S
H499 C493 0.959 . S
H500 C493 0.961 . S
H501 C493 0.960 . S
H502 C494 0.930 . S
H503 C495 0.929 . S
H504 C512 0.929 . S
H505 C514 0.930 . S
H506 C516 0.930 . S
H507 C519 0.929 . S
H508 C522 0.930 . S
H509 C524 0.960 . S
H510 C524 0.960 . S
H511 C524 0.960 . S
C512 H504 0.929 . S
C512 C513 1.377 . S
C512 C514 1.384 . S
C513 C512 1.377 . S
C513 C519 1.390 . S
C514 H505 0.930 . S
C514 C512 1.384 . S
C514 C515 1.372 . S
C515 C514 1.372 . S
C515 C516 1.400 . S
C515 C520 1.490 . S
C516 H506 0.930 . S
C516 C515 1.400 . S
C516 C519 1.386 . S
H517 C533 0.930 . S
H518 C534 0.931 . S
C519 H507 0.929 . S
C519 C513 1.390 . S
C519 C516 1.386 . S
C520 C515 1.490 . S
C520 C522 1.395 . S
C520 C523 1.403 . S
H521 C527 0.930 . S
C522 H508 0.930 . S
C522 C520 1.395 . S
C522 C525 1.403 . S
C523 C520 1.403 . S
C523 C524 1.524 . S
C523 C527 1.400 . S
C524 H509 0.960 . S
C524 H510 0.960 . S
C524 H511 0.960 . S
C524 C523 1.524 . S
C525 C522 1.403 . S
C525 C526 1.392 . S
C525 C529 1.495 . S
C526 C525 1.392 . S
C526 C527 1.385 . S
C526 C528 1.478 . S
C527 H521 0.930 . S
C527 C523 1.400 . S
C527 C526 1.385 . S
C528 C526 1.478 . S
C528 C530 1.381 . S
C528 C534 1.383 . S
C529 C525 1.495 . S
C529 H535 0.959 . S
C529 H536 0.961 . S
C529 H537 0.960 . S
C530 C528 1.381 . S
C530 C531 1.394 . S
C530 H538 0.930 . S
C531 C530 1.394 . S
C531 C532 1.383 . S
C531 H539 0.929 . S
C532 C531 1.383 . S
C532 C533 1.377 . S
C533 H517 0.930 . S
C533 C532 1.377 . S
C533 C534 1.379 . S
C534 H518 0.931 . S
C534 C528 1.383 . S
C534 C533 1.379 . S
H535 C529 0.959 . S
H536 C529 0.961 . S
H537 C529 0.960 . S
H538 C530 0.930 . S
H539 C531 0.929 . S
H540 C548 0.929 . S
H541 C550 0.930 . S
H542 C552 0.930 . S
H543 C555 0.929 . S
H544 C558 0.930 . S
H545 C560 0.960 . S
H546 C560 0.960 . S
H547 C560 0.960 . S
C548 H540 0.929 . S
C548 C549 1.377 . S
C548 C550 1.384 . S
C549 C548 1.377 . S
C549 C555 1.390 . S
C550 H541 0.930 . S
C550 C548 1.384 . S
C550 C551 1.372 . S
C551 C550 1.372 . S
C551 C552 1.400 . S
C551 C556 1.490 . S
C552 H542 0.930 . S
C552 C551 1.400 . S
C552 C555 1.386 . S
H553 C569 0.930 . S
H554 C570 0.931 . S
C555 H543 0.929 . S
C555 C549 1.390 . S
C555 C552 1.386 . S
C556 C551 1.490 . S
C556 C558 1.395 . S
C556 C559 1.403 . S
H557 C563 0.930 . S
C558 H544 0.930 . S
C558 C556 1.395 . S
C558 C561 1.403 . S
C559 C556 1.403 . S
C559 C560 1.524 . S
C559 C563 1.400 . S
C560 H545 0.960 . S
C560 H546 0.960 . S
C560 H547 0.960 . S
C560 C559 1.524 . S
C561 C558 1.403 . S
C561 C562 1.392 . S
C561 C565 1.495 . S
C562 C561 1.392 . S
C562 C563 1.385 . S
C562 C564 1.478 . S
C563 H557 0.930 . S
C563 C559 1.400 . S
C563 C562 1.385 . S
C564 C562 1.478 . S
C564 C566 1.381 . S
C564 C570 1.383 . S
C565 C561 1.495 . S
C565 H571 0.959 . S
C565 H572 0.961 . S
C565 H573 0.960 . S
C566 C564 1.381 . S
C566 C567 1.394 . S
C566 H574 0.930 . S
C567 C566 1.394 . S
C567 C568 1.383 . S
C567 H575 0.929 . S
C568 C567 1.383 . S
C568 C569 1.377 . S
C569 H553 0.930 . S
C569 C568 1.377 . S
C569 C570 1.379 . S
C570 H554 0.931 . S
C570 C564 1.383 . S
C570 C569 1.379 . S
H571 C565 0.959 . S
H572 C565 0.961 . S
H573 C565 0.960 . S
H574 C566 0.930 . S
H575 C567 0.929 . S
H576 C584 0.929 1_554 S
H577 C586 0.930 1_554 S
H578 C588 0.930 . S
H579 C591 0.929 . S
H580 C594 0.930 . S
H581 C596 0.960 . S
H582 C596 0.960 . S
H583 C596 0.960 . S
C584 H576 0.929 1_556 S
C584 C585 1.377 . S
C584 C586 1.384 . S
C585 C584 1.377 . S
C585 C591 1.390 . S
C586 H577 0.930 1_556 S
C586 C584 1.384 . S
C586 C587 1.372 . S
C587 C586 1.372 . S
C587 C588 1.400 . S
C587 C592 1.490 . S
C588 H578 0.930 . S
C588 C587 1.400 . S
C588 C591 1.386 . S
H589 C605 0.930 . S
H590 C606 0.931 . S
C591 H579 0.929 . S
C591 C585 1.390 . S
C591 C588 1.386 . S
C592 C587 1.490 . S
C592 C594 1.395 . S
C592 C595 1.403 . S
H593 C599 0.930 . S
C594 H580 0.930 . S
C594 C592 1.395 . S
C594 C597 1.403 . S
C595 C592 1.403 . S
C595 C596 1.524 . S
C595 C599 1.400 . S
C596 H581 0.960 . S
C596 H582 0.960 . S
C596 H583 0.960 . S
C596 C595 1.524 . S
C597 C594 1.403 . S
C597 C598 1.392 . S
C597 C601 1.495 . S
C598 C597 1.392 . S
C598 C599 1.385 . S
C598 C600 1.478 . S
C599 H593 0.930 . S
C599 C595 1.400 . S
C599 C598 1.385 . S
C600 C598 1.478 . S
C600 C602 1.381 . S
C600 C606 1.383 . S
C601 C597 1.495 . S
C601 H607 0.959 . S
C601 H608 0.961 . S
C601 H609 0.960 . S
C602 C600 1.381 . S
C602 C603 1.394 . S
C602 H610 0.930 . S
C603 C602 1.394 . S
C603 C604 1.383 . S
C603 H611 0.929 . S
C604 C603 1.383 . S
C604 C605 1.377 . S
C605 H589 0.930 . S
C605 C604 1.377 . S
C605 C606 1.379 . S
C606 H590 0.931 . S
C606 C600 1.383 . S
C606 C605 1.379 . S
H607 C601 0.959 . S
H608 C601 0.961 . S
H609 C601 0.960 . S
H610 C602 0.930 . S
H611 C603 0.929 . S
H612 C620 0.929 . S
H613 C622 0.930 . S
H614 C624 0.930 . S
H615 C627 0.929 . S
H616 C630 0.930 . S
H617 C632 0.960 . S
H618 C632 0.960 . S
H619 C632 0.960 . S
C620 H612 0.929 . S
C620 C621 1.377 1_554 S
C620 C622 1.384 1_554 S
C621 C620 1.377 1_556 S
C621 C627 1.390 . S
C622 H613 0.930 . S
C622 C620 1.384 1_556 S
C622 C623 1.372 . S
C623 C622 1.372 . S
C623 C624 1.400 . S
C623 C628 1.490 . S
C624 H614 0.930 . S
C624 C623 1.400 . S
C624 C627 1.386 . S
H625 C641 0.930 . S
H626 C642 0.931 . S
C627 H615 0.929 . S
C627 C621 1.390 . S
C627 C624 1.386 . S
C628 C623 1.490 . S
C628 C630 1.395 1_455 S
C628 C631 1.403 . S
H629 C635 0.930 . S
C630 H616 0.930 . S
C630 C628 1.395 1_655 S
C630 C633 1.403 . S
C631 C628 1.403 . S
C631 C632 1.524 . S
C631 C635 1.400 1_455 S
C632 H617 0.960 . S
C632 H618 0.960 . S
C632 H619 0.960 . S
C632 C631 1.524 . S
C633 C630 1.403 . S
C633 C634 1.392 . S
C633 C637 1.495 . S
C634 C633 1.392 . S
C634 C635 1.385 . S
C634 C636 1.478 . S
C635 H629 0.930 . S
C635 C631 1.400 1_655 S
C635 C634 1.385 . S
C636 C634 1.478 . S
C636 C638 1.381 . S
C636 C642 1.383 . S
C637 C633 1.495 . S
C637 H643 0.959 . S
C637 H644 0.961 . S
C637 H645 0.960 . S
C638 C636 1.381 . S
C638 C639 1.394 . S
C638 H646 0.930 . S
C639 C638 1.394 . S
C639 C640 1.383 . S
C639 H647 0.929 . S
C640 C639 1.383 . S
C640 C641 1.377 . S
C641 H625 0.930 . S
C641 C640 1.377 . S
C641 C642 1.379 . S
C642 H626 0.931 . S
C642 C636 1.383 . S
C642 C641 1.379 . S
H643 C637 0.959 . S
H644 C637 0.961 . S
H645 C637 0.960 . S
H646 C638 0.930 . S
H647 C639 0.929 . S
H648 C656 0.929 . S
H649 C658 0.930 . S
H650 C660 0.930 . S
H651 C663 0.929 . S
H652 C666 0.930 . S
H653 C668 0.960 1_545 S
H654 C668 0.960 . S
H655 C668 0.960 . S
C656 H648 0.929 . S
C656 C657 1.377 . S
C656 C658 1.384 . S
C657 C656 1.377 . S
C657 C663 1.390 . S
C658 H649 0.930 . S
C658 C656 1.384 . S
C658 C659 1.372 . S
C659 C658 1.372 . S
C659 C660 1.400 . S
C659 C664 1.490 . S
C660 H650 0.930 . S
C660 C659 1.400 . S
C660 C663 1.386 . S
H661 C677 0.930 . S
H662 C678 0.931 . S
C663 H651 0.929 . S
C663 C657 1.390 . S
C663 C660 1.386 . S
C664 C659 1.490 . S
C664 C666 1.395 . S
C664 C667 1.403 . S
H665 C671 0.930 . S
C666 H652 0.930 . S
C666 C664 1.395 . S
C666 C669 1.403 1_566 S
C667 C664 1.403 . S
C667 C668 1.524 . S
C667 C671 1.400 1_566 S
C668 H653 0.960 1_565 S
C668 H654 0.960 . S
C668 H655 0.960 . S
C668 C667 1.524 . S
C669 C666 1.403 1_544 S
C669 C670 1.392 . S
C669 C673 1.495 . S
C670 C669 1.392 . S
C670 C671 1.385 . S
C670 C672 1.478 . S
C671 H665 0.930 . S
C671 C667 1.400 1_544 S
C671 C670 1.385 . S
C672 C670 1.478 . S
C672 C674 1.381 . S
C672 C678 1.383 . S
C673 C669 1.495 . S
C673 H679 0.945 1_545 S
C673 H680 0.961 . S
C673 H681 0.960 . S
C674 C672 1.381 . S
C674 C675 1.394 . S
C674 H682 0.930 . S
C675 C674 1.394 . S
C675 C676 1.383 . S
C675 H683 0.929 . S
C676 C675 1.383 . S
C676 C677 1.377 . S
C677 H661 0.930 . S
C677 C676 1.377 . S
C677 C678 1.379 . S
C678 H662 0.931 . S
C678 C672 1.383 . S
C678 C677 1.379 . S
H679 C673 0.945 1_565 S
H680 C673 0.961 . S
H681 C673 0.960 . S
H682 C674 0.930 . S
H683 C675 0.929 . S
H684 C692 0.929 . S
H685 C694 0.930 . S
H686 C696 0.930 . S
H687 C699 0.929 . S
H688 C702 0.930 . S
H689 C704 0.960 . S
H690 C704 0.960 . S
H691 C704 0.960 . S
C692 H684 0.929 . S
C692 C693 1.377 . S
C692 C694 1.384 . S
C693 C692 1.377 . S
C693 C699 1.390 . S
C694 H685 0.930 . S
C694 C692 1.384 . S
C694 C695 1.372 . S
C695 C694 1.372 . S
C695 C696 1.400 . S
C695 C700 1.490 . S
C696 H686 0.930 . S
C696 C695 1.400 . S
C696 C699 1.386 . S
H697 C713 0.930 . S
H698 C714 0.931 . S
C699 H687 0.929 . S
C699 C693 1.390 . S
C699 C696 1.386 . S
C700 C695 1.490 . S
C700 C702 1.395 . S
C700 C703 1.403 . S
H701 C707 0.930 . S
C702 H688 0.930 . S
C702 C700 1.395 . S
C702 C705 1.403 . S
C703 C700 1.403 . S
C703 C704 1.524 . S
C703 C707 1.400 . S
C704 H689 0.960 . S
C704 H690 0.960 . S
C704 H691 0.960 . S
C704 C703 1.524 . S
C705 C702 1.403 . S
C705 C706 1.392 . S
C705 C709 1.495 . S
C706 C705 1.392 . S
C706 C707 1.385 . S
C706 C708 1.478 . S
C707 H701 0.930 . S
C707 C703 1.400 . S
C707 C706 1.385 . S
C708 C706 1.478 . S
C708 C710 1.381 . S
C708 C714 1.383 . S
C709 C705 1.495 . S
C709 H715 0.959 . S
C709 H716 0.961 . S
C709 H717 0.960 . S
C710 C708 1.381 . S
C710 C711 1.394 . S
C710 H718 0.930 . S
C711 C710 1.394 . S
C711 C712 1.383 . S
C711 H719 0.929 . S
C712 C711 1.383 . S
C712 C713 1.377 . S
C713 H697 0.930 . S
C713 C712 1.377 . S
C713 C714 1.379 . S
C714 H698 0.931 . S
C714 C708 1.383 . S
C714 C713 1.379 . S
H715 C709 0.959 . S
H716 C709 0.961 . S
H717 C709 0.960 . S
H718 C710 0.930 . S
H719 C711 0.929 . S
H720 C728 0.929 . S
H721 C730 0.930 . S
H722 C732 0.930 . S
H723 C735 0.929 . S
H724 C738 0.930 . S
H725 C740 0.960 . S
H726 C740 0.960 1_655 S
H727 C740 0.960 . S
C728 H720 0.929 . S
C728 C729 1.377 . S
C728 C730 1.384 . S
C729 C728 1.377 . S
C729 C735 1.390 . S
C730 H721 0.930 . S
C730 C728 1.384 . S
C730 C731 1.372 . S
C731 C730 1.372 . S
C731 C732 1.400 . S
C731 C736 1.490 . S
C732 H722 0.930 . S
C732 C731 1.400 . S
C732 C735 1.386 . S
H733 C749 0.930 . S
H734 C750 0.931 . S
C735 H723 0.929 . S
C735 C729 1.390 . S
C735 C732 1.386 . S
C736 C731 1.490 . S
C736 C738 1.395 . S
C736 C739 1.403 1_655 S
H737 C743 0.930 . S
C738 H724 0.930 . S
C738 C736 1.395 . S
C738 C741 1.403 . S
C739 C736 1.403 1_455 S
C739 C740 1.524 . S
C739 C743 1.400 . S
C740 H725 0.960 . S
C740 H726 0.960 1_455 S
C740 H727 0.960 . S
C740 C739 1.524 . S
C741 C738 1.403 . S
C741 C742 1.392 1_655 S
C741 C745 1.495 . S
C742 C741 1.392 1_455 S
C742 C743 1.385 . S
C742 C744 1.478 . S
C743 H737 0.930 . S
C743 C739 1.400 . S
C743 C742 1.385 . S
C744 C742 1.478 . S
C744 C746 1.381 . S
C744 C750 1.383 . S
C745 C741 1.495 . S
C745 H751 0.959 . S
C745 H752 0.961 1_655 S
C745 H753 0.960 . S
C746 C744 1.381 . S
C746 C747 1.394 . S
C746 H754 0.930 . S
C747 C746 1.394 . S
C747 C748 1.383 . S
C747 H755 0.929 . S
C748 C747 1.383 . S
C748 C749 1.377 . S
C749 H733 0.930 . S
C749 C748 1.377 . S
C749 C750 1.379 . S
C750 H734 0.931 . S
C750 C744 1.383 . S
C750 C749 1.379 . S
H751 C745 0.959 . S
H752 C745 0.961 1_455 S
H753 C745 0.960 . S
H754 C746 0.930 . S
H755 C747 0.929 . S
H756 C764 0.929 . S
H757 C766 0.930 . S
H758 C768 0.930 . S
H759 C771 0.929 . S
H760 C774 0.930 . S
H761 C776 0.960 1_565 S
H762 C776 0.960 . S
H763 C776 0.960 . S
C764 H756 0.929 . S
C764 C765 1.377 . S
C764 C766 1.384 . S
C765 C764 1.377 . S
C765 C771 1.390 . S
C766 H757 0.930 . S
C766 C764 1.384 . S
C766 C767 1.372 . S
C767 C766 1.372 . S
C767 C768 1.400 . S
C767 C772 1.490 . S
C768 H758 0.930 . S
C768 C767 1.400 . S
C768 C771 1.386 . S
H769 C785 0.930 . S
H770 C786 0.931 . S
C771 H759 0.929 . S
C771 C765 1.390 . S
C771 C768 1.386 . S
C772 C767 1.490 . S
C772 C774 1.395 . S
C772 C775 1.403 . S
H773 C779 0.930 . S
C774 H760 0.930 . S
C774 C772 1.395 . S
C774 C777 1.394 1_545 S
C775 C772 1.403 . S
C775 C776 1.524 . S
C775 C779 1.400 1_545 S
C776 H761 0.960 1_545 S
C776 H762 0.960 . S
C776 H763 0.960 . S
C776 C775 1.524 . S
C777 C774 1.394 1_565 S
C777 C778 1.407 . S
C777 C781 1.490 . S
C778 C777 1.407 . S
C778 C779 1.385 . S
C778 C780 1.478 . S
C779 H773 0.930 . S
C779 C775 1.400 1_565 S
C779 C778 1.385 . S
C780 C778 1.478 . S
C780 C782 1.381 . S
C780 C786 1.383 . S
C781 C777 1.490 . S
C781 H787 0.959 1_565 S
C781 H788 0.961 . S
C781 H789 0.960 . S
C782 C780 1.381 . S
C782 C783 1.394 . S
C782 H790 0.930 . S
C783 C782 1.394 . S
C783 C784 1.383 . S
C783 H791 0.929 . S
C784 C783 1.383 . S
C784 C785 1.377 . S
C785 H769 0.930 . S
C785 C784 1.377 . S
C785 C786 1.379 . S
C786 H770 0.931 . S
C786 C780 1.383 . S
C786 C785 1.379 . S
H787 C781 0.959 1_545 S
H788 C781 0.961 . S
H789 C781 0.960 . S
H790 C782 0.930 . S
H791 C783 0.929 . S
H792 C800 0.929 . S
H793 C802 0.930 . S
H794 C804 0.930 . S
H795 C807 0.929 . S
H796 C810 0.930 . S
H797 C812 0.960 . S
H798 C812 0.960 . S
H799 C812 0.960 . S
C800 H792 0.929 . S
C800 C801 1.377 . S
C800 C802 1.384 . S
C801 C800 1.377 . S
C801 C807 1.390 . S
C802 H793 0.930 . S
C802 C800 1.384 . S
C802 C803 1.372 . S
C803 C802 1.372 . S
C803 C804 1.400 . S
C803 C808 1.490 . S
C804 H794 0.930 . S
C804 C803 1.400 . S
C804 C807 1.386 . S
H805 C821 0.930 . S
H806 C822 0.931 . S
C807 H795 0.929 . S
C807 C801 1.390 . S
C807 C804 1.386 . S
C808 C803 1.490 . S
C808 C810 1.395 . S
C808 C811 1.403 . S
H809 C815 0.930 . S
C810 H796 0.930 . S
C810 C808 1.395 . S
C810 C813 1.403 . S
C811 C808 1.403 . S
C811 C812 1.524 . S
C811 C815 1.400 . S
C812 H797 0.960 . S
C812 H798 0.960 . S
C812 H799 0.960 . S
C812 C811 1.524 . S
C813 C810 1.403 . S
C813 C814 1.392 . S
C813 C817 1.495 . S
C814 C813 1.392 . S
C814 C815 1.385 . S
C814 C816 1.478 . S
C815 H809 0.930 . S
C815 C811 1.400 . S
C815 C814 1.385 . S
C816 C814 1.478 . S
C816 C818 1.381 . S
C816 C822 1.383 . S
C817 C813 1.495 . S
C817 H823 0.959 . S
C817 H824 0.961 . S
C817 H825 0.960 . S
C818 C816 1.381 . S
C818 C819 1.394 . S
C818 H826 0.930 . S
C819 C818 1.394 . S
C819 C820 1.383 . S
C819 H827 0.929 . S
C820 C819 1.383 . S
C820 C821 1.377 . S
C821 H805 0.930 . S
C821 C820 1.377 . S
C821 C822 1.379 . S
C822 H806 0.931 . S
C822 C816 1.383 . S
C822 C821 1.379 . S
H823 C817 0.959 . S
H824 C817 0.961 . S
H825 C817 0.960 . S
H826 C818 0.930 . S
H827 C819 0.929 . S
H828 C836 0.929 . S
H829 C838 0.930 . S
H830 C840 0.930 . S
H831 C843 0.929 . S
H832 C846 0.930 . S
H833 C848 0.960 . S
H834 C848 0.960 . S
H835 C848 0.960 . S
C836 H828 0.929 . S
C836 C837 1.377 . S
C836 C838 1.384 . S
C837 C836 1.377 . S
C837 C843 1.390 . S
C838 H829 0.930 . S
C838 C836 1.384 . S
C838 C839 1.372 . S
C839 C838 1.372 . S
C839 C840 1.400 . S
C839 C844 1.490 . S
C840 H830 0.930 . S
C840 C839 1.400 . S
C840 C843 1.386 . S
H841 C857 0.930 . S
H842 C858 0.931 . S
C843 H831 0.929 . S
C843 C837 1.390 . S
C843 C840 1.386 . S
C844 C839 1.490 . S
C844 C846 1.395 . S
C844 C847 1.403 . S
H845 C851 0.930 . S
C846 H832 0.930 . S
C846 C844 1.395 . S
C846 C849 1.403 . S
C847 C844 1.403 . S
C847 C848 1.524 . S
C847 C851 1.400 . S
C848 H833 0.960 . S
C848 H834 0.960 . S
C848 H835 0.960 . S
C848 C847 1.524 . S
C849 C846 1.403 . S
C849 C850 1.392 . S
C849 C853 1.495 . S
C850 C849 1.392 . S
C850 C851 1.385 . S
C850 C852 1.478 . S
C851 H845 0.930 . S
C851 C847 1.400 . S
C851 C850 1.385 . S
C852 C850 1.478 . S
C852 C854 1.381 . S
C852 C858 1.383 . S
C853 C849 1.495 . S
C853 H859 0.959 . S
C853 H860 0.961 . S
C853 H861 0.960 . S
C854 C852 1.381 . S
C854 C855 1.394 . S
C854 H862 0.930 . S
C855 C854 1.394 . S
C855 C856 1.383 . S
C855 H863 0.929 . S
C856 C855 1.383 . S
C856 C857 1.377 . S
C857 H841 0.930 . S
C857 C856 1.377 . S
C857 C858 1.379 . S
C858 H842 0.931 . S
C858 C852 1.383 . S
C858 C857 1.379 . S
H859 C853 0.959 . S
H860 C853 0.961 . S
H861 C853 0.960 . S
H862 C854 0.930 . S
H863 C855 0.929 . S
H864 C872 0.929 . S
H865 C874 0.930 . S
H866 C876 0.930 . S
H867 C879 0.929 . S
H868 C882 0.930 . S
H869 C884 0.960 . S
H870 C884 0.960 . S
H871 C884 0.960 . S
C872 H864 0.929 . S
C872 C873 1.377 . S
C872 C874 1.384 . S
C873 C872 1.377 . S
C873 C879 1.390 . S
C874 H865 0.930 . S
C874 C872 1.384 . S
C874 C875 1.372 . S
C875 C874 1.372 . S
C875 C876 1.400 . S
C875 C880 1.490 . S
C876 H866 0.930 . S
C876 C875 1.400 . S
C876 C879 1.386 . S
H877 C893 0.930 . S
H878 C894 0.931 . S
C879 H867 0.929 . S
C879 C873 1.390 . S
C879 C876 1.386 . S
C880 C875 1.490 . S
C880 C882 1.395 . S
C880 C883 1.403 . S
H881 C887 0.930 . S
C882 H868 0.930 . S
C882 C880 1.395 . S
C882 C885 1.403 . S
C883 C880 1.403 . S
C883 C884 1.524 . S
C883 C887 1.400 . S
C884 H869 0.960 . S
C884 H870 0.960 . S
C884 H871 0.960 . S
C884 C883 1.524 . S
C885 C882 1.403 . S
C885 C886 1.392 . S
C885 C889 1.495 . S
C886 C885 1.392 . S
C886 C887 1.385 . S
C886 C888 1.478 . S
C887 H881 0.930 . S
C887 C883 1.400 . S
C887 C886 1.385 . S
C888 C886 1.478 . S
C888 C890 1.381 . S
C888 C894 1.383 . S
C889 C885 1.495 . S
C889 H895 0.959 . S
C889 H896 0.961 . S
C889 H897 0.960 . S
C890 C888 1.381 . S
C890 C891 1.394 . S
C890 H898 0.930 . S
C891 C890 1.394 . S
C891 C892 1.383 . S
C891 H899 0.929 . S
C892 C891 1.383 . S
C892 C893 1.377 . S
C893 H877 0.930 . S
C893 C892 1.377 . S
C893 C894 1.379 . S
C894 H878 0.931 . S
C894 C888 1.383 . S
C894 C893 1.379 . S
H895 C889 0.959 . S
H896 C889 0.961 . S
H897 C889 0.960 . S
H898 C890 0.930 . S
H899 C891 0.929 . S
H900 C908 0.929 . S
H901 C910 0.930 . S
H902 C912 0.930 . S
H903 C915 0.929 . S
H904 C918 0.930 . S
H905 C920 0.960 . S
H906 C920 0.960 . S
H907 C920 0.960 . S
C908 H900 0.929 . S
C908 C909 1.377 . S
C908 C910 1.384 . S
C909 C908 1.377 . S
C909 C915 1.390 . S
C910 H901 0.930 . S
C910 C908 1.384 . S
C910 C911 1.372 . S
C911 C910 1.372 . S
C911 C912 1.400 . S
C911 C916 1.490 . S
C912 H902 0.930 . S
C912 C911 1.400 . S
C912 C915 1.386 . S
H913 C929 0.930 . S
H914 C930 0.931 . S
C915 H903 0.929 . S
C915 C909 1.390 . S
C915 C912 1.386 . S
C916 C911 1.490 . S
C916 C918 1.395 . S
C916 C919 1.403 . S
H917 C923 0.930 . S
C918 H904 0.930 . S
C918 C916 1.395 . S
C918 C921 1.403 . S
C919 C916 1.403 . S
C919 C920 1.524 . S
C919 C923 1.400 . S
C920 H905 0.960 . S
C920 H906 0.960 . S
C920 H907 0.960 . S
C920 C919 1.524 . S
C921 C918 1.403 . S
C921 C922 1.392 . S
C921 C925 1.495 . S
C922 C921 1.392 . S
C922 C923 1.385 . S
C922 C924 1.478 . S
C923 H917 0.930 . S
C923 C919 1.400 . S
C923 C922 1.385 . S
C924 C922 1.478 . S
C924 C926 1.381 . S
C924 C930 1.383 . S
C925 C921 1.495 . S
C925 H931 0.959 . S
C925 H932 0.961 . S
C925 H933 0.960 . S
C926 C924 1.381 . S
C926 C927 1.394 . S
C926 H934 0.930 . S
C927 C926 1.394 . S
C927 C928 1.383 . S
C927 H935 0.929 . S
C928 C927 1.383 . S
C928 C929 1.377 . S
C929 H913 0.930 . S
C929 C928 1.377 . S
C929 C930 1.379 . S
C930 H914 0.931 . S
C930 C924 1.383 . S
C930 C929 1.379 . S
H931 C925 0.959 . S
H932 C925 0.961 . S
H933 C925 0.960 . S
H934 C926 0.930 . S
H935 C927 0.929 . S
H936 C944 0.929 . S
H937 C946 0.930 . S
H938 C948 0.930 . S
H939 C951 0.929 . S
H940 C954 0.930 . S
H941 C956 0.960 . S
H942 C956 0.960 . S
H943 C956 0.960 . S
C944 H936 0.929 . S
C944 C945 1.377 . S
C944 C946 1.384 . S
C945 C944 1.377 . S
C945 C951 1.390 . S
C946 H937 0.930 . S
C946 C944 1.384 . S
C946 C947 1.372 . S
C947 C946 1.372 . S
C947 C948 1.400 . S
C947 C952 1.490 . S
C948 H938 0.930 . S
C948 C947 1.400 . S
C948 C951 1.386 . S
H949 C965 0.930 . S
H950 C966 0.931 . S
C951 H939 0.929 . S
C951 C945 1.390 . S
C951 C948 1.386 . S
C952 C947 1.490 . S
C952 C954 1.395 . S
C952 C955 1.403 . S
H953 C959 0.930 . S
C954 H940 0.930 . S
C954 C952 1.395 . S
C954 C957 1.403 . S
C955 C952 1.403 . S
C955 C956 1.524 . S
C955 C959 1.400 . S
C956 H941 0.960 . S
C956 H942 0.960 . S
C956 H943 0.960 . S
C956 C955 1.524 . S
C957 C954 1.403 . S
C957 C958 1.392 . S
C957 C961 1.495 . S
C958 C957 1.392 . S
C958 C959 1.385 . S
C958 C960 1.478 . S
C959 H953 0.930 . S
C959 C955 1.400 . S
C959 C958 1.385 . S
C960 C958 1.478 . S
C960 C962 1.381 . S
C960 C966 1.383 . S
C961 C957 1.495 . S
C961 H967 0.959 . S
C961 H968 0.961 . S
C961 H969 0.960 . S
C962 C960 1.381 . S
C962 C963 1.394 . S
C962 H970 0.930 . S
C963 C962 1.394 . S
C963 C964 1.383 . S
C963 H971 0.929 . S
C964 C963 1.383 . S
C964 C965 1.377 . S
C965 H949 0.930 . S
C965 C964 1.377 . S
C965 C966 1.379 . S
C966 H950 0.931 . S
C966 C960 1.383 . S
C966 C965 1.379 . S
H967 C961 0.959 . S
H968 C961 0.961 . S
H969 C961 0.960 . S
H970 C962 0.930 . S
H971 C963 0.929 . S
H972 C980 0.929 . S
H973 C982 0.930 . S
H974 C984 0.930 . S
H975 C987 0.929 . S
H976 C990 0.930 . S
H977 C992 0.960 . S
H978 C992 0.960 . S
H979 C992 0.960 . S
C980 H972 0.929 . S
C980 C981 1.377 . S
C980 C982 1.384 . S
C981 C980 1.377 . S
C981 C987 1.390 . S
C982 H973 0.930 . S
C982 C980 1.384 . S
C982 C983 1.372 . S
C983 C982 1.372 . S
C983 C984 1.400 . S
C983 C988 1.490 . S
C984 H974 0.930 . S
C984 C983 1.400 . S
C984 C987 1.386 . S
H985 C1001 0.930 . S
H986 C1002 0.931 . S
C987 H975 0.929 . S
C987 C981 1.390 . S
C987 C984 1.386 . S
C988 C983 1.490 . S
C988 C990 1.395 . S
C988 C991 1.403 . S
H989 C995 0.930 . S
C990 H976 0.930 . S
C990 C988 1.395 . S
C990 C993 1.403 . S
C991 C988 1.403 . S
C991 C992 1.524 . S
C991 C995 1.400 . S
C992 H977 0.960 . S
C992 H978 0.960 . S
C992 H979 0.960 . S
C992 C991 1.524 . S
C993 C990 1.403 . S
C993 C994 1.392 . S
C993 C997 1.495 1_556 S
C994 C993 1.392 . S
C994 C995 1.385 . S
C994 C996 1.478 . S
C995 H989 0.930 . S
C995 C991 1.400 . S
C995 C994 1.385 . S
C996 C994 1.478 . S
C996 C998 1.381 . S
C996 C1002 1.383 1_556 S
C997 C993 1.495 1_554 S
C997 H1003 0.959 . S
C997 H1004 0.961 . S
C997 H1005 0.961 . S
C998 C996 1.381 . S
C998 C999 1.394 1_556 S
C998 H1006 0.930 . S
C999 C998 1.394 1_554 S
C999 C1000 1.383 . S
C999 H1007 0.929 . S
C1000 C999 1.383 . S
C1000 C1001 1.377 . S
C1001 H985 0.930 . S
C1001 C1000 1.377 . S
C1001 C1002 1.379 . S
C1002 H986 0.931 . S
C1002 C996 1.383 1_554 S
C1002 C1001 1.379 . S
H1003 C997 0.959 . S
H1004 C997 0.961 . S
H1005 C997 0.961 . S
H1006 C998 0.930 . S
H1007 C999 0.929 . S
H1008 C1016 0.929 . S
H1009 C1018 0.930 . S
H1010 C1020 0.930 . S
H1011 C1023 0.929 . S
H1012 C1026 0.930 . S
H1013 C1028 0.960 . S
H1014 C1028 0.960 . S
H1015 C1028 0.960 . S
C1016 H1008 0.929 . S
C1016 C1017 1.377 . S
C1016 C1018 1.384 . S
C1017 C1016 1.377 . S
C1017 C1023 1.390 . S
C1018 H1009 0.930 . S
C1018 C1016 1.384 . S
C1018 C1019 1.372 . S
C1019 C1018 1.372 . S
C1019 C1020 1.400 . S
C1019 C1024 1.490 . S
C1020 H1010 0.930 . S
C1020 C1019 1.400 . S
C1020 C1023 1.386 . S
H1021 C1037 0.930 . S
H1022 C1038 0.931 . S
C1023 H1011 0.929 . S
C1023 C1017 1.390 . S
C1023 C1020 1.386 . S
C1024 C1019 1.490 . S
C1024 C1026 1.395 . S
C1024 C1027 1.403 . S
H1025 C1031 0.930 . S
C1026 H1012 0.930 . S
C1026 C1024 1.395 . S
C1026 C1029 1.403 . S
C1027 C1024 1.403 . S
C1027 C1028 1.524 . S
C1027 C1031 1.400 . S
C1028 H1013 0.960 . S
C1028 H1014 0.960 . S
C1028 H1015 0.960 . S
C1028 C1027 1.524 . S
C1029 C1026 1.403 . S
C1029 C1030 1.392 . S
C1029 C1033 1.489 1_554 S
C1030 C1029 1.392 . S
C1030 C1031 1.385 . S
C1030 C1032 1.478 . S
C1031 H1025 0.930 . S
C1031 C1027 1.400 . S
C1031 C1030 1.385 . S
C1032 C1030 1.478 . S
C1032 C1034 1.381 1_554 S
C1032 C1038 1.383 . S
C1033 C1029 1.489 1_556 S
C1033 H1039 0.959 1_556 S
C1033 H1040 0.958 1_556 S
C1033 H1041 0.969 . S
C1034 C1032 1.381 1_556 S
C1034 C1035 1.394 . S
C1034 H1042 0.930 . S
C1035 C1034 1.394 . S
C1035 C1036 1.383 . S
C1035 H1043 0.929 . S
C1036 C1035 1.383 . S
C1036 C1037 1.377 1_556 S
C1037 H1021 0.930 . S
C1037 C1036 1.377 1_554 S
C1037 C1038 1.379 . S
C1038 H1022 0.931 . S
C1038 C1032 1.383 . S
C1038 C1037 1.379 . S
H1039 C1033 0.959 1_554 S
H1040 C1033 0.958 1_554 S
H1041 C1033 0.969 . S
H1042 C1034 0.930 . S
H1043 C1035 0.929 . S
H1044 C1052 0.929 . S
H1045 C1054 0.930 . S
H1046 C1056 0.930 . S
H1047 C1059 0.929 . S
H1048 C1062 0.930 . S
H1049 C1064 0.960 . S
H1050 C1064 0.960 . S
H1051 C1064 0.960 . S
C1052 H1044 0.929 . S
C1052 C1053 1.377 . S
C1052 C1054 1.384 . S
C1053 C1052 1.377 . S
C1053 C1059 1.390 . S
C1054 H1045 0.930 . S
C1054 C1052 1.384 . S
C1054 C1055 1.372 . S
C1055 C1054 1.372 . S
C1055 C1056 1.400 . S
C1055 C1060 1.490 . S
C1056 H1046 0.930 . S
C1056 C1055 1.400 . S
C1056 C1059 1.386 . S
H1057 C1073 0.930 . S
H1058 C1074 0.931 . S
C1059 H1047 0.929 . S
C1059 C1053 1.390 . S
C1059 C1056 1.386 . S
C1060 C1055 1.490 . S
C1060 C1062 1.395 . S
C1060 C1063 1.403 . S
H1061 C1067 0.930 . S
C1062 H1048 0.930 . S
C1062 C1060 1.395 . S
C1062 C1065 1.403 . S
C1063 C1060 1.403 . S
C1063 C1064 1.524 . S
C1063 C1067 1.400 . S
C1064 H1049 0.960 . S
C1064 H1050 0.960 . S
C1064 H1051 0.960 . S
C1064 C1063 1.524 . S
C1065 C1062 1.403 . S
C1065 C1066 1.392 . S
C1065 C1069 1.495 . S
C1066 C1065 1.392 . S
C1066 C1067 1.385 . S
C1066 C1068 1.478 . S
C1067 H1061 0.930 . S
C1067 C1063 1.400 . S
C1067 C1066 1.385 . S
C1068 C1066 1.478 . S
C1068 C1070 1.381 . S
C1068 C1074 1.383 . S
C1069 C1065 1.495 . S
C1069 H1075 0.959 . S
C1069 H1076 0.961 . S
C1069 H1077 0.960 . S
C1070 C1068 1.381 . S
C1070 C1071 1.394 . S
C1070 H1078 0.930 . S
C1071 C1070 1.394 . S
C1071 C1072 1.383 . S
C1071 H1079 0.929 . S
C1072 C1071 1.383 . S
C1072 C1073 1.377 . S
C1073 H1057 0.930 . S
C1073 C1072 1.377 . S
C1073 C1074 1.379 . S
C1074 H1058 0.931 . S
C1074 C1068 1.383 . S
C1074 C1073 1.379 . S
H1075 C1069 0.959 . S
H1076 C1069 0.961 . S
H1077 C1069 0.960 . S
H1078 C1070 0.930 . S
H1079 C1071 0.929 . S
H1080 C1088 0.929 . S
H1081 C1090 0.930 . S
H1082 C1092 0.930 . S
H1083 C1095 0.929 . S
H1084 C1098 0.930 . S
H1085 C1100 0.960 . S
H1086 C1100 0.960 . S
H1087 C1100 0.960 . S
C1088 H1080 0.929 . S
C1088 C1089 1.377 . S
C1088 C1090 1.384 . S
C1089 C1088 1.377 . S
C1089 C1095 1.390 . S
C1090 H1081 0.930 . S
C1090 C1088 1.384 . S
C1090 C1091 1.372 . S
C1091 C1090 1.372 . S
C1091 C1092 1.400 . S
C1091 C1096 1.490 . S
C1092 H1082 0.930 . S
C1092 C1091 1.400 . S
C1092 C1095 1.386 . S
H1093 C1109 0.930 . S
H1094 C1110 0.931 . S
C1095 H1083 0.929 . S
C1095 C1089 1.390 . S
C1095 C1092 1.386 . S
C1096 C1091 1.490 . S
C1096 C1098 1.395 . S
C1096 C1099 1.403 . S
H1097 C1103 0.930 . S
C1098 H1084 0.930 . S
C1098 C1096 1.395 . S
C1098 C1101 1.403 . S
C1099 C1096 1.403 . S
C1099 C1100 1.524 . S
C1099 C1103 1.400 . S
C1100 H1085 0.960 . S
C1100 H1086 0.960 . S
C1100 H1087 0.960 . S
C1100 C1099 1.524 . S
C1101 C1098 1.403 . S
C1101 C1102 1.392 . S
C1101 C1105 1.495 . S
C1102 C1101 1.392 . S
C1102 C1103 1.385 . S
C1102 C1104 1.478 . S
C1103 H1097 0.930 . S
C1103 C1099 1.400 . S
C1103 C1102 1.385 . S
C1104 C1102 1.478 . S
C1104 C1106 1.381 . S
C1104 C1110 1.383 . S
C1105 C1101 1.495 . S
C1105 H1111 0.959 . S
C1105 H1112 0.961 . S
C1105 H1113 0.960 . S
C1106 C1104 1.381 . S
C1106 C1107 1.394 . S
C1106 H1114 0.930 . S
C1107 C1106 1.394 . S
C1107 C1108 1.383 . S
C1107 H1115 0.929 . S
C1108 C1107 1.383 . S
C1108 C1109 1.377 . S
C1109 H1093 0.930 . S
C1109 C1108 1.377 . S
C1109 C1110 1.379 . S
C1110 H1094 0.931 . S
C1110 C1104 1.383 . S
C1110 C1109 1.379 . S
H1111 C1105 0.959 . S
H1112 C1105 0.961 . S
H1113 C1105 0.960 . S
H1114 C1106 0.930 . S
H1115 C1107 0.929 . S
H1116 C1124 0.929 . S
H1117 C1126 0.930 . S
H1118 C1128 0.930 . S
H1119 C1131 0.929 . S
H1120 C1134 0.930 . S
H1121 C1136 0.960 . S
H1122 C1136 0.960 . S
H1123 C1136 0.960 . S
C1124 H1116 0.929 . S
C1124 C1125 1.377 . S
C1124 C1126 1.384 . S
C1125 C1124 1.377 . S
C1125 C1131 1.390 . S
C1126 H1117 0.930 . S
C1126 C1124 1.384 . S
C1126 C1127 1.372 . S
C1127 C1126 1.372 . S
C1127 C1128 1.400 . S
C1127 C1132 1.490 . S
C1128 H1118 0.930 . S
C1128 C1127 1.400 . S
C1128 C1131 1.386 . S
H1129 C1145 0.930 . S
H1130 C1146 0.931 . S
C1131 H1119 0.929 . S
C1131 C1125 1.390 . S
C1131 C1128 1.386 . S
C1132 C1127 1.490 . S
C1132 C1134 1.395 . S
C1132 C1135 1.403 . S
H1133 C1139 0.930 . S
C1134 H1120 0.930 . S
C1134 C1132 1.395 . S
C1134 C1137 1.403 . S
C1135 C1132 1.403 . S
C1135 C1136 1.524 . S
C1135 C1139 1.400 . S
C1136 H1121 0.960 . S
C1136 H1122 0.960 . S
C1136 H1123 0.960 . S
C1136 C1135 1.524 . S
C1137 C1134 1.403 . S
C1137 C1138 1.392 . S
C1137 C1141 1.495 . S
C1138 C1137 1.392 . S
C1138 C1139 1.385 . S
C1138 C1140 1.478 1_556 S
C1139 H1133 0.930 . S
C1139 C1135 1.400 . S
C1139 C1138 1.385 . S
C1140 C1138 1.478 1_554 S
C1140 C1142 1.381 . S
C1140 C1146 1.383 . S
C1141 C1137 1.495 . S
C1141 H1147 0.959 . S
C1141 H1148 0.961 . S
C1141 H1149 0.960 . S
C1142 C1140 1.381 . S
C1142 C1143 1.394 . S
C1142 H1150 0.930 . S
C1143 C1142 1.394 . S
C1143 C1144 1.383 . S
C1143 H1151 0.929 . S
C1144 C1143 1.383 . S
C1144 C1145 1.377 . S
C1145 H1129 0.930 . S
C1145 C1144 1.377 . S
C1145 C1146 1.379 . S
C1146 H1130 0.931 . S
C1146 C1140 1.383 . S
C1146 C1145 1.379 . S
H1147 C1141 0.959 . S
H1148 C1141 0.961 . S
H1149 C1141 0.960 . S
H1150 C1142 0.930 . S
H1151 C1143 0.929 . S
H1152 C1160 0.929 . S
H1153 C1162 0.930 . S
H1154 C1164 0.930 . S
H1155 C1167 0.929 . S
H1156 C1170 0.930 1_556 S
H1157 C1172 0.960 . S
H1158 C1172 0.960 1_556 S
H1159 C1172 0.960 1_556 S
C1160 H1152 0.929 . S
C1160 C1161 1.377 . S
C1160 C1162 1.384 . S
C1161 C1160 1.377 . S
C1161 C1167 1.390 . S
C1162 H1153 0.930 . S
C1162 C1160 1.384 . S
C1162 C1163 1.372 . S
C1163 C1162 1.372 . S
C1163 C1164 1.400 . S
C1163 C1168 1.490 . S
C1164 H1154 0.930 . S
C1164 C1163 1.400 . S
C1164 C1167 1.386 . S
H1165 C1181 0.930 . S
H1166 C1182 0.931 . S
C1167 H1155 0.929 . S
C1167 C1161 1.390 . S
C1167 C1164 1.386 . S
C1168 C1163 1.490 . S
C1168 C1170 1.395 1_556 S
C1168 C1171 1.403 1_556 S
H1169 C1175 0.930 . S
C1170 H1156 0.930 1_554 S
C1170 C1168 1.395 1_554 S
C1170 C1173 1.403 . S
C1171 C1168 1.403 1_554 S
C1171 C1172 1.524 . S
C1171 C1175 1.400 . S
C1172 H1157 0.960 . S
C1172 H1158 0.960 1_554 S
C1172 H1159 0.960 1_554 S
C1172 C1171 1.524 . S
C1173 C1170 1.403 . S
C1173 C1174 1.392 . S
C1173 C1177 1.495 . S
C1174 C1173 1.392 . S
C1174 C1175 1.385 . S
C1174 C1176 1.478 . S
C1175 H1169 0.930 . S
C1175 C1171 1.400 . S
C1175 C1174 1.385 . S
C1176 C1174 1.478 . S
C1176 C1178 1.381 . S
C1176 C1182 1.383 . S
C1177 C1173 1.495 . S
C1177 H1183 0.959 . S
C1177 H1184 0.961 . S
C1177 H1185 0.960 . S
C1178 C1176 1.381 . S
C1178 C1179 1.394 . S
C1178 H1186 0.930 . S
C1179 C1178 1.394 . S
C1179 C1180 1.383 . S
C1179 H1187 0.929 . S
C1180 C1179 1.383 . S
C1180 C1181 1.377 . S
C1181 H1165 0.930 . S
C1181 C1180 1.377 . S
C1181 C1182 1.379 . S
C1182 H1166 0.931 . S
C1182 C1176 1.383 . S
C1182 C1181 1.379 . S
H1183 C1177 0.959 . S
H1184 C1177 0.961 . S
H1185 C1177 0.960 . S
H1186 C1178 0.930 . S
H1187 C1179 0.929 . S
H1188 C1196 0.929 . S
H1189 C1198 0.930 . S
H1190 C1200 0.930 . S
H1191 C1203 0.929 . S
H1192 C1206 0.930 . S
H1193 C1208 0.960 . S
H1194 C1208 0.960 . S
H1195 C1208 0.960 . S
C1196 H1188 0.929 . S
C1196 C1197 1.377 . S
C1196 C1198 1.384 . S
C1197 C1196 1.377 . S
C1197 C1203 1.390 . S
C1198 H1189 0.930 . S
C1198 C1196 1.384 . S
C1198 C1199 1.372 . S
C1199 C1198 1.372 . S
C1199 C1200 1.400 . S
C1199 C1204 1.490 . S
C1200 H1190 0.930 . S
C1200 C1199 1.400 . S
C1200 C1203 1.386 . S
H1201 C1217 0.934 . S
H1202 C1218 0.931 . S
C1203 H1191 0.929 . S
C1203 C1197 1.390 . S
C1203 C1200 1.386 . S
C1204 C1199 1.490 . S
C1204 C1206 1.395 . S
C1204 C1207 1.403 . S
H1205 C1211 0.930 . S
C1206 H1192 0.930 . S
C1206 C1204 1.395 . S
C1206 C1209 1.403 . S
C1207 C1204 1.403 . S
C1207 C1208 1.524 . S
C1207 C1211 1.400 . S
C1208 H1193 0.960 . S
C1208 H1194 0.960 . S
C1208 H1195 0.960 . S
C1208 C1207 1.524 . S
C1209 C1206 1.403 . S
C1209 C1210 1.392 . S
C1209 C1213 1.495 . S
C1210 C1209 1.392 . S
C1210 C1211 1.385 . S
C1210 C1212 1.478 . S
C1211 H1205 0.930 . S
C1211 C1207 1.400 . S
C1211 C1210 1.385 . S
C1212 C1210 1.478 . S
C1212 C1214 1.381 . S
C1212 C1218 1.383 . S
C1213 C1209 1.495 . S
C1213 H1219 0.959 . S
C1213 H1220 0.961 . S
C1213 H1221 0.960 . S
C1214 C1212 1.381 . S
C1214 C1215 1.394 1_554 S
C1214 H1222 0.930 . S
C1215 C1214 1.394 1_556 S
C1215 C1216 1.383 . S
C1215 H1223 0.929 . S
C1216 C1215 1.383 . S
C1216 C1217 1.384 . S
C1217 H1201 0.934 . S
C1217 C1216 1.384 . S
C1217 C1218 1.368 1_556 S
C1218 H1202 0.931 . S
C1218 C1212 1.383 . S
C1218 C1217 1.368 1_554 S
H1219 C1213 0.959 . S
H1220 C1213 0.961 . S
H1221 C1213 0.960 . S
H1222 C1214 0.930 . S
H1223 C1215 0.929 . S
H1224 C1232 0.929 . S
H1225 C1234 0.930 . S
H1226 C1236 0.930 . S
H1227 C1239 0.929 . S
H1228 C1242 0.930 . S
H1229 C1244 0.960 . S
H1230 C1244 0.960 . S
H1231 C1244 0.960 . S
C1232 H1224 0.929 . S
C1232 C1233 1.377 . S
C1232 C1234 1.384 . S
C1233 C1232 1.377 . S
C1233 C1239 1.390 . S
C1234 H1225 0.930 . S
C1234 C1232 1.384 . S
C1234 C1235 1.372 . S
C1235 C1234 1.372 . S
C1235 C1236 1.400 . S
C1235 C1240 1.490 . S
C1236 H1226 0.930 . S
C1236 C1235 1.400 . S
C1236 C1239 1.386 . S
H1237 C1253 0.930 . S
H1238 C1254 0.931 . S
C1239 H1227 0.929 . S
C1239 C1233 1.390 . S
C1239 C1236 1.386 . S
C1240 C1235 1.490 . S
C1240 C1242 1.395 . S
C1240 C1243 1.403 . S
H1241 C1247 0.930 . S
C1242 H1228 0.930 . S
C1242 C1240 1.395 . S
C1242 C1245 1.403 . S
C1243 C1240 1.403 . S
C1243 C1244 1.524 . S
C1243 C1247 1.400 . S
C1244 H1229 0.960 . S
C1244 H1230 0.960 . S
C1244 H1231 0.960 . S
C1244 C1243 1.524 . S
C1245 C1242 1.403 . S
C1245 C1246 1.392 . S
C1245 C1249 1.495 . S
C1246 C1245 1.392 . S
C1246 C1247 1.385 . S
C1246 C1248 1.478 . S
C1247 H1241 0.930 . S
C1247 C1243 1.400 . S
C1247 C1246 1.385 . S
C1248 C1246 1.478 . S
C1248 C1250 1.381 . S
C1248 C1254 1.383 . S
C1249 C1245 1.495 . S
C1249 H1255 0.959 . S
C1249 H1256 0.961 . S
C1249 H1257 0.960 . S
C1250 C1248 1.381 . S
C1250 C1251 1.394 . S
C1250 H1258 0.930 . S
C1251 C1250 1.394 . S
C1251 C1252 1.383 . S
C1251 H1259 0.929 . S
C1252 C1251 1.383 . S
C1252 C1253 1.377 . S
C1253 H1237 0.930 . S
C1253 C1252 1.377 . S
C1253 C1254 1.379 . S
C1254 H1238 0.931 . S
C1254 C1248 1.383 . S
C1254 C1253 1.379 . S
H1255 C1249 0.959 . S
H1256 C1249 0.961 . S
H1257 C1249 0.960 . S
H1258 C1250 0.930 . S
H1259 C1251 0.929 . S
H1260 C1268 0.929 . S
H1261 C1270 0.930 . S
H1262 C1272 0.930 . S
H1263 C1275 0.929 . S
H1264 C1278 0.930 . S
H1265 C1280 0.960 . S
H1266 C1280 0.960 . S
H1267 C1280 0.960 . S
C1268 H1260 0.929 . S
C1268 C1269 1.377 . S
C1268 C1270 1.384 . S
C1269 C1268 1.377 . S
C1269 C1275 1.390 . S
C1270 H1261 0.930 . S
C1270 C1268 1.384 . S
C1270 C1271 1.372 . S
C1271 C1270 1.372 . S
C1271 C1272 1.400 . S
C1271 C1276 1.490 . S
C1272 H1262 0.930 . S
C1272 C1271 1.400 . S
C1272 C1275 1.386 . S
H1273 C1289 0.930 . S
H1274 C1290 0.931 . S
C1275 H1263 0.929 . S
C1275 C1269 1.390 . S
C1275 C1272 1.386 . S
C1276 C1271 1.490 . S
C1276 C1278 1.395 . S
C1276 C1279 1.403 . S
H1277 C1283 0.930 . S
C1278 H1264 0.930 . S
C1278 C1276 1.395 . S
C1278 C1281 1.403 . S
C1279 C1276 1.403 . S
C1279 C1280 1.524 . S
C1279 C1283 1.400 . S
C1280 H1265 0.960 . S
C1280 H1266 0.960 . S
C1280 H1267 0.960 . S
C1280 C1279 1.524 . S
C1281 C1278 1.403 . S
C1281 C1282 1.392 . S
C1281 C1285 1.495 . S
C1282 C1281 1.392 . S
C1282 C1283 1.385 . S
C1282 C1284 1.478 . S
C1283 H1277 0.930 . S
C1283 C1279 1.400 . S
C1283 C1282 1.385 . S
C1284 C1282 1.478 . S
C1284 C1286 1.381 . S
C1284 C1290 1.383 . S
C1285 C1281 1.495 . S
C1285 H1291 0.959 . S
C1285 H1292 0.961 . S
C1285 H1293 0.960 . S
C1286 C1284 1.381 . S
C1286 C1287 1.394 . S
C1286 H1294 0.930 . S
C1287 C1286 1.394 . S
C1287 C1288 1.383 . S
C1287 H1295 0.929 . S
C1288 C1287 1.383 . S
C1288 C1289 1.377 . S
C1289 H1273 0.930 . S
C1289 C1288 1.377 . S
C1289 C1290 1.379 . S
C1290 H1274 0.931 . S
C1290 C1284 1.383 . S
C1290 C1289 1.379 . S
H1291 C1285 0.959 . S
H1292 C1285 0.961 . S
H1293 C1285 0.960 . S
H1294 C1286 0.930 . S
H1295 C1287 0.929 . S
H1296 C1304 0.929 . S
H1297 C1306 0.930 . S
H1298 C1308 0.930 . S
H1299 C1311 0.929 . S
H1300 C1314 0.930 . S
H1301 C1316 0.960 . S
H1302 C1316 0.960 . S
H1303 C1316 0.960 . S
C1304 H1296 0.929 . S
C1304 C1305 1.377 . S
C1304 C1306 1.384 . S
C1305 C1304 1.377 . S
C1305 C1311 1.390 . S
C1306 H1297 0.930 . S
C1306 C1304 1.384 . S
C1306 C1307 1.372 . S
C1307 C1306 1.372 . S
C1307 C1308 1.400 . S
C1307 C1312 1.490 . S
C1308 H1298 0.930 . S
C1308 C1307 1.400 . S
C1308 C1311 1.386 . S
H1309 C1325 0.930 . S
H1310 C1326 0.931 . S
C1311 H1299 0.929 . S
C1311 C1305 1.390 . S
C1311 C1308 1.386 . S
C1312 C1307 1.490 . S
C1312 C1314 1.395 . S
C1312 C1315 1.403 . S
H1313 C1319 0.930 . S
C1314 H1300 0.930 . S
C1314 C1312 1.395 . S
C1314 C1317 1.403 . S
C1315 C1312 1.403 . S
C1315 C1316 1.524 . S
C1315 C1319 1.400 . S
C1316 H1301 0.960 . S
C1316 H1302 0.960 . S
C1316 H1303 0.960 . S
C1316 C1315 1.524 . S
C1317 C1314 1.403 . S
C1317 C1318 1.392 . S
C1317 C1321 1.495 . S
C1318 C1317 1.392 . S
C1318 C1319 1.385 . S
C1318 C1320 1.478 . S
C1319 H1313 0.930 . S
C1319 C1315 1.400 . S
C1319 C1318 1.385 . S
C1320 C1318 1.478 . S
C1320 C1322 1.381 . S
C1320 C1326 1.383 . S
C1321 C1317 1.495 . S
C1321 H1327 0.959 . S
C1321 H1328 0.961 . S
C1321 H1329 0.960 . S
C1322 C1320 1.381 . S
C1322 C1323 1.394 . S
C1322 H1330 0.930 . S
C1323 C1322 1.394 . S
C1323 C1324 1.383 . S
C1323 H1331 0.929 . S
C1324 C1323 1.383 . S
C1324 C1325 1.377 . S
C1325 H1309 0.930 . S
C1325 C1324 1.377 . S
C1325 C1326 1.379 . S
C1326 H1310 0.931 . S
C1326 C1320 1.383 . S
C1326 C1325 1.379 . S
H1327 C1321 0.959 . S
H1328 C1321 0.961 . S
H1329 C1321 0.960 . S
H1330 C1322 0.930 . S
H1331 C1323 0.929 . S
H1332 C1340 0.929 . S
H1333 C1342 0.930 . S
H1334 C1344 0.930 . S
H1335 C1347 0.929 . S
H1336 C1350 0.930 . S
H1337 C1352 0.960 . S
H1338 C1352 0.960 . S
H1339 C1352 0.960 . S
C1340 H1332 0.929 . S
C1340 C1341 1.377 . S
C1340 C1342 1.384 . S
C1341 C1340 1.377 . S
C1341 C1347 1.390 . S
C1342 H1333 0.930 . S
C1342 C1340 1.384 . S
C1342 C1343 1.372 . S
C1343 C1342 1.372 . S
C1343 C1344 1.400 . S
C1343 C1348 1.490 . S
C1344 H1334 0.930 . S
C1344 C1343 1.400 . S
C1344 C1347 1.386 . S
H1345 C1361 0.930 . S
H1346 C1362 0.931 . S
C1347 H1335 0.929 . S
C1347 C1341 1.390 . S
C1347 C1344 1.386 . S
C1348 C1343 1.490 . S
C1348 C1350 1.395 . S
C1348 C1351 1.403 . S
H1349 C1355 0.930 . S
C1350 H1336 0.930 . S
C1350 C1348 1.395 . S
C1350 C1353 1.403 . S
C1351 C1348 1.403 . S
C1351 C1352 1.524 . S
C1351 C1355 1.400 . S
C1352 H1337 0.960 . S
C1352 H1338 0.960 . S
C1352 H1339 0.960 . S
C1352 C1351 1.524 . S
C1353 C1350 1.403 . S
C1353 C1354 1.392 . S
C1353 C1357 1.495 . S
C1354 C1353 1.392 . S
C1354 C1355 1.385 . S
C1354 C1356 1.478 . S
C1355 H1349 0.930 . S
C1355 C1351 1.400 . S
C1355 C1354 1.385 . S
C1356 C1354 1.478 . S
C1356 C1358 1.381 . S
C1356 C1362 1.383 . S
C1357 C1353 1.495 . S
C1357 H1363 0.959 . S
C1357 H1364 0.961 . S
C1357 H1365 0.960 . S
C1358 C1356 1.381 . S
C1358 C1359 1.394 . S
C1358 H1366 0.930 . S
C1359 C1358 1.394 . S
C1359 C1360 1.383 . S
C1359 H1367 0.929 . S
C1360 C1359 1.383 . S
C1360 C1361 1.377 . S
C1361 H1345 0.930 . S
C1361 C1360 1.377 . S
C1361 C1362 1.379 . S
C1362 H1346 0.931 . S
C1362 C1356 1.383 . S
C1362 C1361 1.379 . S
H1363 C1357 0.959 . S
H1364 C1357 0.961 . S
H1365 C1357 0.960 . S
H1366 C1358 0.930 . S
H1367 C1359 0.929 . S
H1368 C1376 0.929 . S
H1369 C1378 0.930 . S
H1370 C1380 0.930 . S
H1371 C1383 0.929 . S
H1372 C1386 0.930 . S
H1373 C1388 0.960 . S
H1374 C1388 0.960 . S
H1375 C1388 0.960 . S
C1376 H1368 0.929 . S
C1376 C1377 1.377 . S
C1376 C1378 1.384 . S
C1377 C1376 1.377 . S
C1377 C1383 1.390 . S
C1378 H1369 0.930 . S
C1378 C1376 1.384 . S
C1378 C1379 1.372 . S
C1379 C1378 1.372 . S
C1379 C1380 1.400 . S
C1379 C1384 1.490 . S
C1380 H1370 0.930 . S
C1380 C1379 1.400 . S
C1380 C1383 1.386 . S
H1381 C1397 0.930 . S
H1382 C1398 0.931 . S
C1383 H1371 0.929 . S
C1383 C1377 1.390 . S
C1383 C1380 1.386 . S
C1384 C1379 1.490 . S
C1384 C1386 1.395 . S
C1384 C1387 1.403 . S
H1385 C1391 0.930 . S
C1386 H1372 0.930 . S
C1386 C1384 1.395 . S
C1386 C1389 1.403 . S
C1387 C1384 1.403 . S
C1387 C1388 1.524 . S
C1387 C1391 1.400 . S
C1388 H1373 0.960 . S
C1388 H1374 0.960 . S
C1388 H1375 0.960 . S
C1388 C1387 1.524 . S
C1389 C1386 1.403 . S
C1389 C1390 1.392 . S
C1389 C1393 1.495 . S
C1390 C1389 1.392 . S
C1390 C1391 1.385 . S
C1390 C1392 1.478 . S
C1391 H1385 0.930 . S
C1391 C1387 1.400 . S
C1391 C1390 1.385 . S
C1392 C1390 1.478 . S
C1392 C1394 1.381 . S
C1392 C1398 1.383 . S
C1393 C1389 1.495 . S
C1393 H1399 0.959 . S
C1393 H1400 0.961 . S
C1393 H1401 0.960 . S
C1394 C1392 1.381 . S
C1394 C1395 1.394 1_556 S
C1394 H1402 0.930 . S
C1395 C1394 1.394 1_554 S
C1395 C1396 1.383 . S
C1395 H1403 0.929 . S
C1396 C1395 1.383 . S
C1396 C1397 1.377 . S
C1397 H1381 0.930 . S
C1397 C1396 1.377 . S
C1397 C1398 1.379 1_554 S
C1398 H1382 0.931 . S
C1398 C1392 1.383 . S
C1398 C1397 1.379 1_556 S
H1399 C1393 0.959 . S
H1400 C1393 0.961 . S
H1401 C1393 0.960 . S
H1402 C1394 0.930 . S
H1403 C1395 0.929 . S
H1404 C1412 0.929 . S
H1405 C1414 0.930 . S
H1406 C1416 0.930 . S
H1407 C1419 0.929 . S
H1408 C1422 0.930 . S
H1409 C1424 0.960 . S
H1410 C1424 0.960 . S
H1411 C1424 0.960 . S
C1412 H1404 0.929 . S
C1412 C1413 1.377 . S
C1412 C1414 1.384 . S
C1413 C1412 1.377 . S
C1413 C1419 1.390 . S
C1414 H1405 0.930 . S
C1414 C1412 1.384 . S
C1414 C1415 1.372 . S
C1415 C1414 1.372 . S
C1415 C1416 1.400 . S
C1415 C1420 1.490 . S
C1416 H1406 0.930 . S
C1416 C1415 1.400 . S
C1416 C1419 1.386 . S
H1417 C1433 0.930 . S
H1418 C1434 0.931 . S
C1419 H1407 0.929 . S
C1419 C1413 1.390 . S
C1419 C1416 1.386 . S
C1420 C1415 1.490 . S
C1420 C1422 1.395 . S
C1420 C1423 1.403 . S
H1421 C1427 0.930 1_554 S
C1422 H1408 0.930 . S
C1422 C1420 1.395 . S
C1422 C1425 1.403 . S
C1423 C1420 1.403 . S
C1423 C1424 1.524 . S
C1423 C1427 1.400 . S
C1424 H1409 0.960 . S
C1424 H1410 0.960 . S
C1424 H1411 0.960 . S
C1424 C1423 1.524 . S
C1425 C1422 1.403 . S
C1425 C1426 1.392 1_556 S
C1425 C1429 1.495 1_556 S
C1426 C1425 1.392 1_554 S
C1426 C1427 1.385 1_554 S
C1426 C1428 1.478 . S
C1427 H1421 0.930 1_556 S
C1427 C1423 1.400 . S
C1427 C1426 1.385 1_556 S
C1428 C1426 1.478 . S
C1428 C1430 1.381 . S
C1428 C1434 1.383 . S
C1429 C1425 1.495 1_554 S
C1429 H1435 0.959 1_554 S
C1429 H1436 0.961 . S
C1429 H1437 0.960 . S
C1430 C1428 1.381 . S
C1430 C1431 1.394 . S
C1430 H1438 0.930 . S
C1431 C1430 1.394 . S
C1431 C1432 1.383 . S
C1431 H1439 0.929 . S
C1432 C1431 1.383 . S
C1432 C1433 1.377 . S
C1433 H1417 0.930 . S
C1433 C1432 1.377 . S
C1433 C1434 1.379 . S
C1434 H1418 0.931 . S
C1434 C1428 1.383 . S
C1434 C1433 1.379 . S
H1435 C1429 0.959 1_556 S
H1436 C1429 0.961 . S
H1437 C1429 0.960 . S
H1438 C1430 0.930 . S
H1439 C1431 0.929 . S
H1440 C1448 0.929 . S
H1441 C1450 0.930 . S
H1442 C1452 0.930 . S
H1443 C1455 0.929 . S
H1444 C1458 0.930 . S
H1445 C1460 0.960 . S
H1446 C1460 0.960 . S
H1447 C1460 0.960 . S
C1448 H1440 0.929 . S
C1448 C1449 1.377 . S
C1448 C1450 1.384 . S
C1449 C1448 1.377 . S
C1449 C1455 1.390 . S
C1450 H1441 0.930 . S
C1450 C1448 1.384 . S
C1450 C1451 1.372 . S
C1451 C1450 1.372 . S
C1451 C1452 1.400 . S
C1451 C1456 1.490 . S
C1452 H1442 0.930 . S
C1452 C1451 1.400 . S
C1452 C1455 1.386 . S
H1453 C1469 0.930 . S
H1454 C1470 0.931 . S
C1455 H1443 0.929 . S
C1455 C1449 1.390 . S
C1455 C1452 1.386 . S
C1456 C1451 1.490 . S
C1456 C1458 1.395 . S
C1456 C1459 1.403 . S
H1457 C1463 0.930 . S
C1458 H1444 0.930 . S
C1458 C1456 1.395 . S
C1458 C1461 1.403 . S
C1459 C1456 1.403 . S
C1459 C1460 1.524 . S
C1459 C1463 1.400 . S
C1460 H1445 0.960 . S
C1460 H1446 0.960 . S
C1460 H1447 0.960 . S
C1460 C1459 1.524 . S
C1461 C1458 1.403 . S
C1461 C1462 1.392 . S
C1461 C1465 1.495 . S
C1462 C1461 1.392 . S
C1462 C1463 1.385 . S
C1462 C1464 1.478 1_554 S
C1463 H1457 0.930 . S
C1463 C1459 1.400 . S
C1463 C1462 1.385 . S
C1464 C1462 1.478 1_556 S
C1464 C1466 1.381 . S
C1464 C1470 1.383 . S
C1465 C1461 1.495 . S
C1465 H1471 0.959 . S
C1465 H1472 0.961 . S
C1465 H1473 0.960 . S
C1466 C1464 1.381 . S
C1466 C1467 1.394 . S
C1466 H1474 0.930 . S
C1467 C1466 1.394 . S
C1467 C1468 1.383 . S
C1467 H1475 0.929 . S
C1468 C1467 1.383 . S
C1468 C1469 1.377 . S
C1469 H1453 0.930 . S
C1469 C1468 1.377 . S
C1469 C1470 1.379 . S
C1470 H1454 0.931 . S
C1470 C1464 1.383 . S
C1470 C1469 1.379 . S
H1471 C1465 0.959 . S
H1472 C1465 0.961 . S
H1473 C1465 0.960 . S
H1474 C1466 0.930 . S
H1475 C1467 0.929 . S
C405 C285 1.643 . S
C424 C21 1.635 . S
C441 C318 1.643 . S
C460 C54 1.638 . S
C477 C351 1.644 . S
C496 C87 1.633 . S
C513 C384 1.643 . S
C532 C120 1.633 . S
C549 C153 1.642 . S
C568 C219 1.642 . S
C585 C252 1.643 . S
C604 C186 1.635 . S
C621 C7 1.113 1_556 S
C640 C370 1.068 . S
C657 C205 1.114 . S
C676 C40 1.090 . S
C693 C73 1.110 . S
C712 C238 1.075 1_554 S
C729 C106 1.102 . S
C748 C271 1.144 . S
C765 C304 1.099 . S
C784 C139 1.143 . S
C801 C172 1.100 . S
C820 C337 1.145 . S
C837 C18 1.271 . S
C856 C348 1.246 . S
C873 C51 1.269 . S
C892 C381 1.245 . S
C909 C216 1.271 . S
C928 C84 1.246 . S
C945 C249 1.270 . S
C964 C117 1.246 . S
C981 C150 1.271 . S
C1000 C282 1.268 . S
C1017 C315 1.263 . S
C1036 C183 1.281 . S
C1053 N13 0.817 . S
C1072 N2 0.818 . S
C1089 N35 0.824 1_556 S
C1108 N46 0.837 . S
C1125 N79 0.822 . S
C1144 N68 0.806 . S
C1161 N112 0.820 . S
C1180 N101 0.800 . S
C1197 N134 0.824 . S
C1216 N145 0.838 . S
C1233 N167 0.816 . S
C1252 N178 0.804 . S
C1269 N200 0.822 1_554 S
C1288 N211 0.808 . S
C1305 N233 0.820 . S
C1324 N244 0.836 . S
C1341 N266 0.816 . S
C1360 N277 0.819 . S
C1377 N299 0.824 . S
C1396 N310 0.818 . S
C1413 N332 0.818 . S
C1432 N343 0.800 . S
C1449 N376 0.816 . S
C1468 N365 0.811 . S
