# Generated by pormake.
# Topology uog, (4)-cn, num edge types: 1
# Building blocks:
#     Node 0, Type 0, BuildingBlock: MUDLON_clean_sbu_0, # of connection points: 4
#     Node 1, Type 0, BuildingBlock: MUDLON_clean_sbu_0, # of connection points: 4
#     Node 2, Type 0, BuildingBlock: MUDLON_clean_sbu_0, # of connection points: 4
#     Node 3, Type 0, BuildingBlock: MUDLON_clean_sbu_0, # of connection points: 4
#     Node 4, Type 0, BuildingBlock: MUDLON_clean_sbu_0, # of connection points: 4
#     Node 5, Type 0, BuildingBlock: MUDLON_clean_sbu_0, # of connection points: 4
#     Edge 6, Type (0, 0), BuildingBlock: FUNLAD_clean_linker_1, # of connection points: 2
#     Edge 7, Type (0, 0), BuildingBlock: FUNLAD_clean_linker_1, # of connection points: 2
#     Edge 8, Type (0, 0), BuildingBlock: FUNLAD_clean_linker_1, # of connection points: 2
#     Edge 9, Type (0, 0), BuildingBlock: FUNLAD_clean_linker_1, # of connection points: 2
#     Edge 10, Type (0, 0), BuildingBlock: FUNLAD_clean_linker_1, # of connection points: 2
#     Edge 11, Type (0, 0), BuildingBlock: FUNLAD_clean_linker_1, # of connection points: 2
#     Edge 12, Type (0, 0), BuildingBlock: FUNLAD_clean_linker_1, # of connection points: 2
#     Edge 13, Type (0, 0), BuildingBlock: FUNLAD_clean_linker_1, # of connection points: 2
#     Edge 14, Type (0, 0), BuildingBlock: FUNLAD_clean_linker_1, # of connection points: 2
#     Edge 15, Type (0, 0), BuildingBlock: FUNLAD_clean_linker_1, # of connection points: 2
#     Edge 16, Type (0, 0), BuildingBlock: FUNLAD_clean_linker_1, # of connection points: 2
#     Edge 17, Type (0, 0), BuildingBlock: FUNLAD_clean_linker_1, # of connection points: 2
# Relax obj value: 0.035
# Max RMSD: 0.253
# Mean RMSD: 0.253
data_MOF--net-uog--node1-MUDLON_clean_sbu_0--edge1-FUNLAD_clean_linker_1
_symmetry_space_group_name_H-M    P1
_symmetry_Int_Tables_number       1
_symmetry_cell_setting            triclinic
loop_
_symmetry_equiv_pos_as_xyz
'x, y, z'
_cell_length_a     31.433921
_cell_length_b     30.788003
_cell_length_c     46.229486
_cell_angle_alpha  89.594394
_cell_angle_beta   90.239464
_cell_angle_gamma 122.08272
loop_
_atom_site_label
_atom_site_type_symbol
_atom_site_fract_x
_atom_site_fract_y
_atom_site_fract_z
_atom_type_partial_charge
Mg0 Mg 0.59018 0.32076 0.19409 0.0
C1 C 0.64241 0.32277 0.13768 0.0
O2 O 0.6428 0.28397 0.14936 0.0
C3 C 0.68429 0.3742 0.23387 0.0
O4 O 0.70902 0.40117 0.21098 0.0
C5 C 0.56219 0.21306 0.19945 0.0
O6 O 0.60942 0.23858 0.2077 0.0
O7 O 0.54147 0.23774 0.19279 0.0
O8 O 0.62634 0.34603 0.15217 0.0
O9 O 0.553 0.36284 0.1995 0.0
C10 C 0.58395 0.41111 0.20031 0.0
O11 O 0.63216 0.42907 0.19826 0.0
O12 O 0.63802 0.33966 0.23178 0.0
Mg13 Mg 0.30114 0.60003 0.52041 0.0
C14 C 0.31594 0.67588 0.47151 0.0
O15 O 0.30201 0.69691 0.49083 0.0
C16 C 0.32976 0.62797 0.58138 0.0
O17 O 0.31712 0.57988 0.58065 0.0
C18 C 0.38161 0.57826 0.52075 0.0
O19 O 0.40679 0.62861 0.51982 0.0
O20 O 0.33397 0.55356 0.52131 0.0
O21 O 0.32006 0.63833 0.47864 0.0
O22 O 0.22011 0.55484 0.52347 0.0
C23 C 0.19933 0.57769 0.53306 0.0
O24 O 0.22754 0.62585 0.54098 0.0
O25 O 0.32854 0.64946 0.55808 0.0
Mg26 Mg 0.73334 0.32728 0.8576 0.0
C27 C 0.7118 0.33696 0.79747 0.0
O28 O 0.72531 0.30322 0.7972 0.0
C29 C 0.685 0.32723 0.91535 0.0
O30 O 0.64317 0.29071 0.90351 0.0
C31 C 0.8332 0.4159 0.85257 0.0
O32 O 0.80263 0.43257 0.85485 0.0
O33 O 0.81472 0.36767 0.85254 0.0
O34 O 0.71001 0.3556 0.82156 0.0
O35 O 0.68743 0.24335 0.85579 0.0
C36 C 0.64199 0.22544 0.84828 0.0
O37 O 0.62786 0.25743 0.84161 0.0
O38 O 0.7252 0.34972 0.90063 0.0
Mg39 Mg 0.4167 0.71863 0.19061 0.0
C40 C 0.34127 0.69172 0.13938 0.0
O41 O 0.31005 0.69155 0.15821 0.0
C42 C 0.3868 0.72808 0.24953 0.0
O43 O 0.43256 0.76844 0.24719 0.0
C44 C 0.44733 0.82643 0.18638 0.0
O45 O 0.39877 0.80118 0.18132 0.0
O46 O 0.46832 0.80131 0.19091 0.0
O47 O 0.3836 0.70029 0.14771 0.0
O48 O 0.45013 0.67285 0.1957 0.0
C49 C 0.41743 0.62514 0.19798 0.0
O50 O 0.36965 0.60968 0.19757 0.0
O51 O 0.36705 0.69894 0.22776 0.0
Mg52 Mg 0.72319 0.44594 0.51834 0.0
C53 C 0.73368 0.43046 0.45635 0.0
O54 O 0.77205 0.47725 0.46071 0.0
C55 C 0.69906 0.42014 0.57981 0.0
O56 O 0.71263 0.46851 0.57853 0.0
C57 C 0.6412 0.46579 0.52009 0.0
O58 O 0.61655 0.41548 0.52141 0.0
O59 O 0.68878 0.49094 0.51848 0.0
O60 O 0.70511 0.40543 0.47748 0.0
O61 O 0.80411 0.49261 0.52201 0.0
C62 C 0.82513 0.46895 0.53009 0.0
O63 O 0.79718 0.41959 0.53574 0.0
O64 O 0.69764 0.39751 0.55661 0.0
Mg65 Mg 0.32237 0.72662 0.85998 0.0
C66 C 0.3433 0.7189 0.79965 0.0
O67 O 0.32982 0.75266 0.79984 0.0
C68 C 0.37287 0.71366 0.91415 0.0
O69 O 0.41364 0.73483 0.89825 0.0
C70 C 0.22255 0.63828 0.85158 0.0
O71 O 0.25294 0.62119 0.852 0.0
O72 O 0.24107 0.68624 0.85441 0.0
O73 O 0.34587 0.69979 0.82358 0.0
O74 O 0.3677 0.81057 0.85806 0.0
C75 C 0.41355 0.82866 0.85159 0.0
O76 O 0.42812 0.7968 0.84598 0.0
O77 O 0.3318 0.70443 0.90313 0.0
H78 H 0.49554 0.13671 0.18948 0.0
C79 C 0.53465 0.15684 0.19617 0.0
H80 H 0.59626 0.15025 0.20743 0.0
H81 H 0.46606 0.9156 0.24097 0.0
H82 H 0.49218 0.95409 0.28836 0.0
H83 H 0.53637 0.04784 0.29427 0.0
H84 H 0.55436 0.10363 0.25277 0.0
C85 C 0.55747 0.13064 0.20018 0.0
C86 C 0.53065 0.07413 0.1963 0.0
C87 C 0.52131 0.0421 0.2207 0.0
C88 C 0.49643 0.98808 0.21725 0.0
C89 C 0.4859 0.95693 0.24217 0.0
C90 C 0.50044 0.97851 0.26958 0.0
C91 C 0.52528 0.03128 0.27291 0.0
C92 C 0.53551 0.06288 0.24887 0.0
H93 H 0.51581 0.90254 0.19427 0.0
C94 C 0.47616 0.88282 0.1888 0.0
H95 H 0.41459 0.89055 0.1794 0.0
H96 H 0.54708 0.12484 0.14453 0.0
H97 H 0.52091 0.08631 0.09716 0.0
H98 H 0.4765 0.99253 0.09128 0.0
H99 H 0.45817 0.93672 0.13284 0.0
C100 C 0.4539 0.90971 0.18556 0.0
C101 C 0.48172 0.96628 0.18928 0.0
C102 C 0.49128 0.99831 0.16486 0.0
C103 C 0.51622 0.05235 0.1683 0.0
C104 C 0.52703 0.0835 0.14335 0.0
C105 C 0.51253 0.06189 0.11595 0.0
C106 C 0.48754 1.0091 0.11264 0.0
C107 C 0.47712 0.9775 0.1367 0.0
H108 H 0.38596 0.50894 0.52127 0.0
C109 C 0.40809 0.55061 0.52081 0.0
H110 H 0.48107 0.61721 0.52049 0.0
H111 H 0.5837 0.50516 0.57373 0.0
H112 H 0.58602 0.55469 0.61491 0.0
H113 H 0.54236 0.60167 0.61344 0.0
H114 H 0.49589 0.59915 0.5708 0.0
C115 C 0.45845 0.57557 0.52006 0.0
C116 C 0.48507 0.5476 0.52057 0.0
C117 C 0.51281 0.55024 0.54547 0.0
C118 C 0.53848 0.52368 0.54619 0.0
C119 C 0.56448 0.52556 0.57172 0.0
C120 C 0.56588 0.55362 0.59561 0.0
C121 C 0.54127 0.58003 0.59479 0.0
C122 C 0.51484 0.57836 0.57013 0.0
H123 H 0.63602 0.5346 0.5198 0.0
C124 C 0.61425 0.49294 0.52067 0.0
H125 H 0.54159 0.42594 0.52218 0.0
H126 H 0.43887 0.5381 0.46846 0.0
H127 H 0.43646 0.48847 0.42734 0.0
H128 H 0.47967 0.44105 0.42895 0.0
H129 H 0.52585 0.44332 0.47168 0.0
C130 C 0.56394 0.46759 0.52221 0.0
C131 C 0.53695 0.4952 0.5218 0.0
C132 C 0.50916 0.49248 0.49692 0.0
C133 C 0.4836 0.51915 0.49616 0.0
C134 C 0.45785 0.51749 0.47056 0.0
C135 C 0.45643 0.48939 0.44669 0.0
C136 C 0.4808 0.46274 0.44759 0.0
C137 C 0.50707 0.46428 0.47229 0.0
H138 H 0.89909 0.49428 0.85279 0.0
C139 C 0.88764 0.45421 0.85156 0.0
H140 H 0.91336 0.40342 0.84807 0.0
H141 H 0.12115 0.58848 0.79607 0.0
H142 H 0.08268 0.53875 0.75268 0.0
H143 H 0.9958 0.46382 0.75353 0.0
H144 H 0.94678 0.43825 0.79779 0.0
C145 C 0.92328 0.44287 0.85012 0.0
C146 C 0.97735 0.48506 0.85037 0.0
C147 C 1.00591 0.49882 0.82455 0.0
C148 C 0.05633 0.5416 0.82418 0.0
C149 C 0.08325 0.55555 0.79778 0.0
C150 C 0.06148 0.52755 0.77265 0.0
C151 C 1.01254 0.48541 0.77312 0.0
C152 C 0.98483 0.47113 0.79867 0.0
H153 H 0.15679 0.56083 0.84541 0.0
C154 C 0.16824 0.6006 0.84849 0.0
H155 H 0.14277 0.65099 0.85473 0.0
H156 H 0.93461 0.46672 0.90412 0.0
H157 H 0.97299 0.51645 0.94748 0.0
H158 H 0.0599 0.59125 0.94669 0.0
H159 H 0.10901 0.6167 0.90254 0.0
C160 C 0.13267 0.61201 0.85035 0.0
C161 C 0.07852 0.57 0.84983 0.0
C162 C 0.04991 0.55627 0.87565 0.0
C163 C 0.99951 0.5135 0.87601 0.0
C164 C 0.97254 0.4996 0.9024 0.0
C165 C 0.99424 0.52761 0.92752 0.0
C166 C 0.04319 0.56968 0.92709 0.0
C167 C 0.07094 0.5839 0.90157 0.0
H168 H 0.12212 0.51221 0.52562 0.0
C169 C 0.1442 0.55125 0.53364 0.0
H170 H 0.14236 0.61331 0.55151 0.0
H171 H 0.92197 0.4805 0.48502 0.0
H172 H 0.97049 0.50852 0.44071 0.0
H173 H 0.06306 0.55701 0.44208 0.0
H174 H 0.10755 0.57692 0.48775 0.0
C175 C 0.12095 0.5748 0.54271 0.0
C176 C 0.06539 0.54879 0.54181 0.0
C177 C 0.04012 0.53919 0.5149 0.0
C178 C 0.98686 0.5132 0.51417 0.0
C179 C 0.96242 0.50176 0.48695 0.0
C180 C 0.98982 0.51737 0.4613 0.0
C181 C 0.04191 0.54451 0.46206 0.0
C182 C 0.06698 0.55543 0.48846 0.0
H183 H 0.90228 0.5363 0.52552 0.0
C184 C 0.88026 0.49607 0.53174 0.0
H185 H 0.88209 0.43212 0.54692 0.0
H186 H 0.10247 0.56226 0.59691 0.0
H187 H 0.05408 0.53679 0.64137 0.0
H188 H 0.96181 0.49389 0.64017 0.0
H189 H 0.91735 0.4761 0.59448 0.0
C190 C 0.90358 0.4719 0.53983 0.0
C191 C 0.95922 0.49877 0.54039 0.0
C192 C 0.98455 0.50899 0.56727 0.0
C193 C 0.03774 0.53411 0.56798 0.0
C194 C 0.06213 0.54362 0.59513 0.0
C195 C 0.0348 0.52915 0.62082 0.0
C196 C 0.98285 0.50496 0.62014 0.0
C197 C 0.9578 0.49491 0.59376 0.0
H198 H 0.48872 0.89554 0.84284 0.0
C199 C 0.45141 0.88418 0.85032 0.0
H200 H 0.40684 0.91044 0.86738 0.0
H201 H 0.59715 0.11852 0.9121 0.0
H202 H 0.55881 0.07495 0.9573 0.0
H203 H 0.48676 0.98552 0.9577 0.0
H204 H 0.45224 0.93922 0.91286 0.0
C205 C 0.44302 0.92073 0.85853 0.0
C206 C 0.48488 0.9758 0.85808 0.0
C207 C 0.50484 1.00231 0.88448 0.0
C208 C 0.54692 0.05372 0.88428 0.0
C209 C 0.56561 0.07934 0.91098 0.0
C210 C 0.54394 0.05479 0.9371 0.0
C211 C 0.50335 1.00445 0.93732 0.0
C212 C 0.48389 0.97832 0.91141 0.0
H213 H 0.56735 0.15862 0.83855 0.0
C214 C 0.604 0.16997 0.8473 0.0
H215 H 0.64667 0.14393 0.86777 0.0
H216 H 0.45247 0.93875 0.80344 0.0
H217 H 0.49243 0.98124 0.75832 0.0
H218 H 0.56903 0.06783 0.75813 0.0
H219 H 0.60559 0.11277 0.80305 0.0
C220 C 0.61132 0.13354 0.85755 0.0
C221 C 0.56913 0.07863 0.85768 0.0
C222 C 0.54941 0.05197 0.83127 0.0
C223 C 0.50659 1.00104 0.83144 0.0
C224 C 0.48612 0.97657 0.80466 0.0
C225 C 0.50847 1.00067 0.77857 0.0
C226 C 0.55148 0.04949 0.77846 0.0
C227 C 0.57188 0.075 0.80441 0.0
H228 H 0.40075 0.54633 0.20099 0.0
C229 C 0.43121 0.58633 0.19981 0.0
H230 H 0.50999 0.63738 0.19881 0.0
H231 H 0.54285 0.46761 0.25569 0.0
H232 H 0.56371 0.52517 0.29623 0.0
H233 H 0.55092 0.59751 0.29327 0.0
H234 H 0.51707 0.61266 0.24976 0.0
C235 C 0.47874 0.59775 0.19919 0.0
C236 C 0.48945 0.55607 0.20015 0.0
C237 C 0.51014 0.54834 0.22551 0.0
C238 C 0.51823 0.50708 0.22704 0.0
C239 C 0.53728 0.49919 0.25304 0.0
C240 C 0.54905 0.53172 0.27656 0.0
C241 C 0.54178 0.5724 0.27491 0.0
C242 C 0.52238 0.5807 0.24979 0.0
H243 H 0.59693 0.48837 0.20311 0.0
C244 C 0.5677 0.44786 0.20262 0.0
H245 H 0.48951 0.39407 0.20163 0.0
H246 H 0.45289 0.56248 0.1474 0.0
H247 H 0.43202 0.50494 0.10692 0.0
H248 H 0.44469 0.43254 0.1099 0.0
H249 H 0.47852 0.41741 0.15336 0.0
C250 C 0.51946 0.43413 0.20326 0.0
C251 C 0.50656 0.47424 0.20296 0.0
C252 C 0.4855 0.48174 0.17768 0.0
C253 C 0.47746 0.52302 0.17613 0.0
C254 C 0.45844 0.5309 0.15011 0.0
C255 C 0.44663 0.49837 0.1266 0.0
C256 C 0.45384 0.45766 0.12826 0.0
C257 C 0.47324 0.44938 0.15337 0.0
H258 H 0.72561 0.35784 0.95634 0.0
C259 C 0.68833 0.33618 0.94679 0.0
H260 H 0.6105 0.29255 0.95456 0.0
H261 H 0.6143 0.21485 0.07925 0.0
H262 H 0.56827 0.13622 0.05205 0.0
H263 H 0.5614 0.13795 0.99899 0.0
H264 H 0.59988 0.21836 0.97285 0.0
C265 C 0.64776 0.31511 0.96401 0.0
C266 C 0.65273 0.31498 0.99616 0.0
C267 C 0.63116 0.26741 1.0111 0.0
C268 C 0.63665 0.2664 0.04164 0.0
C269 C 0.61275 0.21823 0.05603 0.0
C270 C 0.58592 0.17259 0.04069 0.0
C271 C 0.58198 0.17356 1.01083 0.0
C272 C 0.6042 0.2202 0.9961 0.0
H273 H 0.63855 0.35722 0.09671 0.0
C274 C 0.65084 0.3334 0.1064 0.0
H275 H 0.6798 0.28658 0.09895 0.0
H276 H 0.69192 0.4128 0.97546 0.0
H277 H 0.74438 0.49167 1.00187 0.0
H278 H 0.76451 0.48967 0.05332 0.0
H279 H 0.73071 0.40882 0.07887 0.0
C280 C 0.66841 0.31119 0.08936 0.0
C281 C 0.66526 0.31296 0.05715 0.0
C282 C 0.68853 0.36048 0.04202 0.0
C283 C 0.68028 0.36154 1.01179 0.0
C284 C 0.69967 0.40965 0.99793 0.0
C285 C 0.72947 0.45526 1.01291 0.0
C286 C 0.74055 0.45415 0.0419 0.0
C287 C 0.72047 0.40745 0.05639 0.0
H288 H 0.32972 0.67419 0.28096 0.0
C289 C 0.36252 0.71261 0.27824 0.0
H290 H 0.41709 0.78101 0.29869 0.0
H291 H 0.24825 0.66174 0.40396 0.0
H292 H 0.19023 0.67064 0.37357 0.0
H293 H 0.21386 0.7055 0.32401 0.0
H294 H 0.29539 0.73083 0.30436 0.0
C295 C 0.38355 0.74308 0.30139 0.0
C296 C 0.36892 0.72362 0.33157 0.0
C297 C 0.32178 0.71063 0.34304 0.0
C298 C 0.30894 0.69244 0.37206 0.0
C299 C 0.26068 0.67742 0.38247 0.0
C300 C 0.22688 0.68208 0.36519 0.0
C301 C 0.24013 0.70157 0.33725 0.0
C302 C 0.28697 0.71576 0.32619 0.0
H303 H 0.32804 0.73089 0.43655 0.0
C304 C 0.32576 0.69511 0.44138 0.0
H305 H 0.32937 0.63344 0.42479 0.0
H306 H 0.46201 0.74383 0.31615 0.0
H307 H 0.5209 0.73738 0.34698 0.0
H308 H 0.50007 0.70949 0.39784 0.0
H309 H 0.42005 0.68756 0.41811 0.0
C310 C 0.331 0.66891 0.41999 0.0
C311 C 0.344 0.68899 0.38982 0.0
C312 C 0.39129 0.70244 0.3784 0.0
C313 C 0.40366 0.7195 0.34925 0.0
C314 C 0.45085 0.73159 0.3383 0.0
C315 C 0.48504 0.72789 0.35573 0.0
C316 C 0.47328 0.7121 0.38434 0.0
C317 C 0.42707 0.69948 0.39566 0.0
H318 H 0.69686 0.38724 0.77054 0.0
C319 C 0.70211 0.35509 0.77006 0.0
H320 H 0.70851 0.30272 0.74409 0.0
H321 H 0.6075 0.38794 0.65062 0.0
H322 H 0.5345 0.34884 0.68209 0.0
H323 H 0.53598 0.31146 0.72919 0.0
H324 H 0.61048 0.31336 0.74526 0.0
C325 C 0.70203 0.33405 0.74464 0.0
C326 C 0.70015 0.35637 0.71637 0.0
C327 C 0.65593 0.35423 0.70721 0.0
C328 C 0.65469 0.37485 0.6798 0.0
C329 C 0.61032 0.37267 0.6712 0.0
C330 C 0.56816 0.35026 0.68902 0.0
C331 C 0.56902 0.32928 0.71556 0.0
C332 C 0.61219 0.33092 0.72461 0.0
H333 H 0.68628 0.35654 0.60851 0.0
C334 C 0.69184 0.39453 0.60803 0.0
H335 H 0.70118 0.45648 0.63293 0.0
H336 H 0.79113 0.36722 0.72742 0.0
H337 H 0.86355 0.40566 0.69572 0.0
H338 H 0.86107 0.44096 0.64812 0.0
H339 H 0.78619 0.43799 0.63196 0.0
C340 C 0.69616 0.41873 0.63298 0.0
C341 C 0.69714 0.39643 0.66139 0.0
C342 C 0.74133 0.39854 0.6705 0.0
C343 C 0.74277 0.37833 0.69797 0.0
C344 C 0.78763 0.38145 0.70665 0.0
C345 C 0.82963 0.40363 0.68871 0.0
C346 C 0.82825 0.42351 0.66192 0.0
C347 C 0.78484 0.42131 0.65286 0.0
H348 H 0.41229 0.716 0.95437 0.0
C349 C 0.37628 0.70658 0.94553 0.0
H350 H 0.30126 0.6833 0.95505 0.0
H351 H 0.29778 0.594 0.07942 0.0
H352 H 0.24346 0.51555 0.05295 0.0
H353 H 0.23402 0.51727 1.00002 0.0
H354 H 0.279 0.59741 0.9732 0.0
C355 C 0.33768 0.69343 0.96357 0.0
C356 C 0.3431 0.69273 0.99558 0.0
C357 C 0.31601 0.64567 1.01099 0.0
C358 C 0.32123 0.64468 0.04156 0.0
C359 C 0.29473 0.597 0.05628 0.0
C360 C 0.26353 0.55167 0.04133 0.0
C361 C 0.25822 0.55263 1.01153 0.0
C362 C 0.28417 0.59892 0.99641 0.0
H363 H 0.2931 0.67976 0.10133 0.0
C364 C 0.32892 0.68568 0.10818 0.0
H365 H 0.39873 0.69786 0.09483 0.0
H366 H 0.39456 0.79068 0.97344 0.0
H367 H 0.44806 0.86891 1.00002 0.0
H368 H 0.45927 0.86675 0.05275 0.0
H369 H 0.41651 0.78623 0.07922 0.0
C370 C 0.36209 0.69004 0.08824 0.0
C371 C 0.35326 0.69084 0.05666 0.0
C372 C 0.37947 0.73805 0.04136 0.0
C373 C 0.37388 0.73914 1.01086 0.0
C374 C 0.39872 0.78722 0.99641 0.0
C375 C 0.42929 0.83258 1.01146 0.0
C376 C 0.43555 0.83137 0.04114 0.0
C377 C 0.4109 0.78483 0.05605 0.0
H378 H 0.68764 0.37145 0.42373 0.0
C379 C 0.72159 0.40884 0.42691 0.0
H380 H 0.78299 0.47364 0.40686 0.0
H381 H 0.70765 0.30101 0.30211 0.0
H382 H 0.73687 0.258 0.33308 0.0
H383 H 0.76603 0.28819 0.38277 0.0
H384 H 0.76584 0.36129 0.40189 0.0
C385 C 0.74995 0.43549 0.40399 0.0
C386 C 0.7338 0.41751 0.37384 0.0
C387 C 0.73471 0.37507 0.36295 0.0
C388 C 0.71855 0.35807 0.33415 0.0
C389 C 0.71951 0.31543 0.32383 0.0
C390 C 0.7363 0.2905 0.34134 0.0
C391 C 0.75268 0.30748 0.36933 0.0
C392 C 0.75213 0.34934 0.38009 0.0
H393 H 0.74565 0.42257 0.26449 0.0
C394 C 0.70802 0.38879 0.26272 0.0
H395 H 0.64499 0.32999 0.28539 0.0
H396 H 0.72814 0.50065 0.38786 0.0
H397 H 0.69864 0.54326 0.35698 0.0
H398 H 0.66954 0.51306 0.3073 0.0
H399 H 0.67017 0.44041 0.28816 0.0
C400 C 0.68238 0.36421 0.28681 0.0
C401 C 0.70224 0.38398 0.31622 0.0
C402 C 0.70161 0.42664 0.32705 0.0
C403 C 0.71783 0.44367 0.35581 0.0
C404 C 0.71648 0.48616 0.36615 0.0
C405 C 0.69947 0.51093 0.34868 0.0
C406 C 0.68313 0.49395 0.32071 0.0
C407 C 0.68394 0.45226 0.30994 0.0
H408 H 0.35577 0.66804 0.77209 0.0
C409 C 0.35073 0.70034 0.7719 0.0
H410 H 0.34172 0.75202 0.74636 0.0
H411 H 0.43035 0.66409 0.64787 0.0
H412 H 0.50719 0.70408 0.67617 0.0
H413 H 0.51168 0.7425 0.72361 0.0
H414 H 0.43933 0.74077 0.7432 0.0
C415 C 0.34817 0.72066 0.74656 0.0
C416 C 0.3463 0.69713 0.71819 0.0
C417 C 0.38922 0.69906 0.70697 0.0
C418 C 0.38693 0.67771 0.67937 0.0
C419 C 0.43014 0.67981 0.66869 0.0
C420 C 0.47448 0.70274 0.68467 0.0
C421 C 0.47698 0.72432 0.71141 0.0
C422 C 0.43505 0.72281 0.72248 0.0
H423 H 0.3443 0.69226 0.60958 0.0
C424 C 0.33967 0.65468 0.60929 0.0
H425 H 0.33566 0.59485 0.63439 0.0
H426 H 0.25685 0.68605 0.73357 0.0
H427 H 0.18033 0.64615 0.70521 0.0
H428 H 0.17659 0.60946 0.65731 0.0
H429 H 0.24937 0.61254 0.63751 0.0
C430 C 0.33943 0.63203 0.63433 0.0
C431 C 0.34217 0.65549 0.66282 0.0
C432 C 0.29922 0.65341 0.67406 0.0
C433 C 0.30135 0.67441 0.70172 0.0
C434 C 0.25764 0.67126 0.71255 0.0
C435 C 0.21333 0.64824 0.69655 0.0
C436 C 0.21122 0.62759 0.66959 0.0
C437 C 0.25343 0.62984 0.65842 0.0
loop_
_geom_bond_atom_site_label_1
_geom_bond_atom_site_label_2
_geom_bond_distance
_geom_bond_site_symmetry_2
_ccdc_geom_bond_type
Mg0 O7 2.141 . S
Mg0 O8 2.048 . S
Mg0 O9 2.048 . S
Mg0 O12 2.141 . S
C1 O2 1.313 . S
C1 O8 1.195 . S
O2 C1 1.313 . S
C3 O4 1.245 . S
C3 O12 1.289 . S
O4 C3 1.245 . S
C5 O6 1.245 . S
C5 O7 1.289 . S
O6 C5 1.245 . S
O7 Mg0 2.141 . S
O7 C5 1.289 . S
O8 Mg0 2.048 . S
O8 C1 1.195 . S
O9 Mg0 2.048 . S
O9 C10 1.195 . S
C10 O9 1.195 . S
C10 O11 1.313 . S
O11 C10 1.313 . S
O12 Mg0 2.141 . S
O12 C3 1.289 . S
Mg13 O20 2.141 . S
Mg13 O21 2.048 . S
Mg13 O22 2.048 . S
Mg13 O25 2.141 . S
C14 O15 1.313 . S
C14 O21 1.195 . S
O15 C14 1.313 . S
C16 O17 1.245 . S
C16 O25 1.289 . S
O17 C16 1.245 . S
C18 O19 1.245 . S
C18 O20 1.289 . S
O19 C18 1.245 . S
O20 Mg13 2.141 . S
O20 C18 1.289 . S
O21 Mg13 2.048 . S
O21 C14 1.195 . S
O22 Mg13 2.048 . S
O22 C23 1.195 . S
C23 O22 1.195 . S
C23 O24 1.313 . S
O24 C23 1.313 . S
O25 Mg13 2.141 . S
O25 C16 1.289 . S
Mg26 O33 2.141 . S
Mg26 O34 2.048 . S
Mg26 O35 2.048 . S
Mg26 O38 2.141 . S
C27 O28 1.313 . S
C27 O34 1.195 . S
O28 C27 1.313 . S
C29 O30 1.245 . S
C29 O38 1.289 . S
O30 C29 1.245 . S
C31 O32 1.245 . S
C31 O33 1.289 . S
O32 C31 1.245 . S
O33 Mg26 2.141 . S
O33 C31 1.289 . S
O34 Mg26 2.048 . S
O34 C27 1.195 . S
O35 Mg26 2.048 . S
O35 C36 1.195 . S
C36 O35 1.195 . S
C36 O37 1.313 . S
O37 C36 1.313 . S
O38 Mg26 2.141 . S
O38 C29 1.289 . S
Mg39 O46 2.141 . S
Mg39 O47 2.048 . S
Mg39 O48 2.048 . S
Mg39 O51 2.141 . S
C40 O41 1.313 . S
C40 O47 1.195 . S
O41 C40 1.313 . S
C42 O43 1.245 . S
C42 O51 1.289 . S
O43 C42 1.245 . S
C44 O45 1.245 . S
C44 O46 1.289 . S
O45 C44 1.245 . S
O46 Mg39 2.141 . S
O46 C44 1.289 . S
O47 Mg39 2.048 . S
O47 C40 1.195 . S
O48 Mg39 2.048 . S
O48 C49 1.195 . S
C49 O48 1.195 . S
C49 O50 1.313 . S
O50 C49 1.313 . S
O51 Mg39 2.141 . S
O51 C42 1.289 . S
Mg52 O59 2.141 . S
Mg52 O60 2.048 . S
Mg52 O61 2.048 . S
Mg52 O64 2.141 . S
C53 O54 1.313 . S
C53 O60 1.195 . S
O54 C53 1.313 . S
C55 O56 1.245 . S
C55 O64 1.289 . S
O56 C55 1.245 . S
C57 O58 1.245 . S
C57 O59 1.289 . S
O58 C57 1.245 . S
O59 Mg52 2.141 . S
O59 C57 1.289 . S
O60 Mg52 2.048 . S
O60 C53 1.195 . S
O61 Mg52 2.048 . S
O61 C62 1.195 . S
C62 O61 1.195 . S
C62 O63 1.313 . S
O63 C62 1.313 . S
O64 Mg52 2.141 . S
O64 C55 1.289 . S
Mg65 O72 2.141 . S
Mg65 O73 2.048 . S
Mg65 O74 2.048 . S
Mg65 O77 2.141 . S
C66 O67 1.313 . S
C66 O73 1.195 . S
O67 C66 1.313 . S
C68 O69 1.245 . S
C68 O77 1.289 . S
O69 C68 1.245 . S
C70 O71 1.245 . S
C70 O72 1.289 . S
O71 C70 1.245 . S
O72 Mg65 2.141 . S
O72 C70 1.289 . S
O73 Mg65 2.048 . S
O73 C66 1.195 . S
O74 Mg65 2.048 . S
O74 C75 1.195 . S
C75 O74 1.195 . S
C75 O76 1.313 . S
O76 C75 1.313 . S
O77 Mg65 2.141 . S
O77 C68 1.289 . S
H78 C79 0.951 . S
C79 H78 0.951 . S
C79 C85 1.265 . S
H80 C85 0.950 . S
H81 C89 0.949 . S
H82 C90 0.950 . S
H83 C91 0.951 . S
H84 C92 0.951 . S
C85 C79 1.265 . S
C85 H80 0.950 . S
C85 C86 1.478 . S
C86 C85 1.478 . S
C86 C87 1.397 . S
C86 C103 1.394 . S
C87 C86 1.397 . S
C87 C88 1.438 1_545 S
C87 C92 1.429 . S
C88 C87 1.438 1_565 S
C88 C89 1.428 . S
C88 C101 1.394 . S
C89 H81 0.949 . S
C89 C88 1.428 . S
C89 C90 1.345 . S
C90 H82 0.950 . S
C90 C89 1.345 . S
C90 C91 1.424 1_565 S
C91 H83 0.951 . S
C91 C90 1.424 1_545 S
C91 C92 1.347 . S
C92 H84 0.951 . S
C92 C87 1.429 . S
C92 C91 1.347 . S
H93 C94 0.951 . S
C94 H93 0.951 . S
C94 C100 1.265 . S
H95 C100 0.950 . S
H96 C104 0.949 . S
H97 C105 0.950 . S
H98 C106 0.951 . S
H99 C107 0.951 . S
C100 C94 1.265 . S
C100 H95 0.950 . S
C100 C101 1.478 . S
C101 C88 1.394 . S
C101 C100 1.478 . S
C101 C102 1.397 . S
C102 C101 1.397 . S
C102 C103 1.438 1_565 S
C102 C107 1.429 . S
C103 C86 1.394 . S
C103 C102 1.438 1_545 S
C103 C104 1.428 . S
C104 H96 0.949 . S
C104 C103 1.428 . S
C104 C105 1.345 . S
C105 H97 0.950 . S
C105 C104 1.345 . S
C105 C106 1.424 1_545 S
C106 H98 0.951 . S
C106 C105 1.424 1_565 S
C106 C107 1.347 . S
C107 H99 0.951 . S
C107 C102 1.429 . S
C107 C106 1.347 . S
H108 C109 0.951 . S
C109 H108 0.951 . S
C109 C115 1.265 . S
H110 C115 0.950 . S
H111 C119 0.949 . S
H112 C120 0.950 . S
H113 C121 0.951 . S
H114 C122 0.951 . S
C115 C109 1.265 . S
C115 H110 0.950 . S
C115 C116 1.478 . S
C116 C115 1.478 . S
C116 C117 1.397 . S
C116 C133 1.394 . S
C117 C116 1.397 . S
C117 C118 1.438 . S
C117 C122 1.429 . S
C118 C117 1.438 . S
C118 C119 1.428 . S
C118 C131 1.394 . S
C119 H111 0.949 . S
C119 C118 1.428 . S
C119 C120 1.345 . S
C120 H112 0.950 . S
C120 C119 1.345 . S
C120 C121 1.424 . S
C121 H113 0.951 . S
C121 C120 1.424 . S
C121 C122 1.347 . S
C122 H114 0.951 . S
C122 C117 1.429 . S
C122 C121 1.347 . S
H123 C124 0.951 . S
C124 H123 0.951 . S
C124 C130 1.265 . S
H125 C130 0.950 . S
H126 C134 0.949 . S
H127 C135 0.950 . S
H128 C136 0.951 . S
H129 C137 0.951 . S
C130 C124 1.265 . S
C130 H125 0.950 . S
C130 C131 1.478 . S
C131 C118 1.394 . S
C131 C130 1.478 . S
C131 C132 1.397 . S
C132 C131 1.397 . S
C132 C133 1.438 . S
C132 C137 1.429 . S
C133 C116 1.394 . S
C133 C132 1.438 . S
C133 C134 1.428 . S
C134 H126 0.949 . S
C134 C133 1.428 . S
C134 C135 1.345 . S
C135 H127 0.950 . S
C135 C134 1.345 . S
C135 C136 1.424 . S
C136 H128 0.951 . S
C136 C135 1.424 . S
C136 C137 1.347 . S
C137 H129 0.951 . S
C137 C132 1.429 . S
C137 C136 1.347 . S
H138 C139 0.951 . S
C139 H138 0.951 . S
C139 C145 1.265 . S
H140 C145 0.950 . S
H141 C149 0.949 . S
H142 C150 0.950 . S
H143 C151 0.951 . S
H144 C152 0.951 . S
C145 C139 1.265 . S
C145 H140 0.950 . S
C145 C146 1.478 . S
C146 C145 1.478 . S
C146 C147 1.397 . S
C146 C163 1.394 . S
C147 C146 1.397 . S
C147 C148 1.438 1_655 S
C147 C152 1.429 . S
C148 C147 1.438 1_455 S
C148 C149 1.428 . S
C148 C161 1.394 . S
C149 H141 0.949 . S
C149 C148 1.428 . S
C149 C150 1.345 . S
C150 H142 0.950 . S
C150 C149 1.345 . S
C150 C151 1.424 1_455 S
C151 H143 0.951 . S
C151 C150 1.424 1_655 S
C151 C152 1.347 . S
C152 H144 0.951 . S
C152 C147 1.429 . S
C152 C151 1.347 . S
H153 C154 0.951 . S
C154 H153 0.951 . S
C154 C160 1.265 . S
H155 C160 0.950 . S
H156 C164 0.949 . S
H157 C165 0.950 . S
H158 C166 0.951 . S
H159 C167 0.951 . S
C160 C154 1.265 . S
C160 H155 0.950 . S
C160 C161 1.478 . S
C161 C148 1.394 . S
C161 C160 1.478 . S
C161 C162 1.397 . S
C162 C161 1.397 . S
C162 C163 1.438 1_455 S
C162 C167 1.429 . S
C163 C146 1.394 . S
C163 C162 1.438 1_655 S
C163 C164 1.428 . S
C164 H156 0.949 . S
C164 C163 1.428 . S
C164 C165 1.345 . S
C165 H157 0.950 . S
C165 C164 1.345 . S
C165 C166 1.424 1_655 S
C166 H158 0.951 . S
C166 C165 1.424 1_455 S
C166 C167 1.347 . S
C167 H159 0.951 . S
C167 C162 1.429 . S
C167 C166 1.347 . S
H168 C169 0.951 . S
C169 H168 0.951 . S
C169 C175 1.265 . S
H170 C175 0.950 . S
H171 C179 0.949 . S
H172 C180 0.950 . S
H173 C181 0.951 . S
H174 C182 0.951 . S
C175 C169 1.265 . S
C175 H170 0.950 . S
C175 C176 1.478 . S
C176 C175 1.478 . S
C176 C177 1.397 . S
C176 C193 1.394 . S
C177 C176 1.397 . S
C177 C178 1.438 1_455 S
C177 C182 1.429 . S
C178 C177 1.438 1_655 S
C178 C179 1.428 . S
C178 C191 1.394 . S
C179 H171 0.949 . S
C179 C178 1.428 . S
C179 C180 1.345 . S
C180 H172 0.950 . S
C180 C179 1.345 . S
C180 C181 1.424 1_655 S
C181 H173 0.951 . S
C181 C180 1.424 1_455 S
C181 C182 1.347 . S
C182 H174 0.951 . S
C182 C177 1.429 . S
C182 C181 1.347 . S
H183 C184 0.951 . S
C184 H183 0.951 . S
C184 C190 1.265 . S
H185 C190 0.950 . S
H186 C194 0.949 . S
H187 C195 0.950 . S
H188 C196 0.951 . S
H189 C197 0.951 . S
C190 C184 1.265 . S
C190 H185 0.950 . S
C190 C191 1.478 . S
C191 C178 1.394 . S
C191 C190 1.478 . S
C191 C192 1.397 . S
C192 C191 1.397 . S
C192 C193 1.438 1_655 S
C192 C197 1.429 . S
C193 C176 1.394 . S
C193 C192 1.438 1_455 S
C193 C194 1.428 . S
C194 H186 0.949 . S
C194 C193 1.428 . S
C194 C195 1.345 . S
C195 H187 0.950 . S
C195 C194 1.345 . S
C195 C196 1.424 1_455 S
C196 H188 0.951 . S
C196 C195 1.424 1_655 S
C196 C197 1.347 . S
C197 H189 0.951 . S
C197 C192 1.429 . S
C197 C196 1.347 . S
H198 C199 0.951 . S
C199 H198 0.951 . S
C199 C205 1.265 . S
H200 C205 0.950 . S
H201 C209 0.949 . S
H202 C210 0.950 . S
H203 C211 0.951 . S
H204 C212 0.951 . S
C205 C199 1.265 . S
C205 H200 0.950 . S
C205 C206 1.478 . S
C206 C205 1.478 . S
C206 C207 1.397 . S
C206 C223 1.394 . S
C207 C206 1.397 . S
C207 C208 1.438 1_565 S
C207 C212 1.429 . S
C208 C207 1.438 1_545 S
C208 C209 1.428 . S
C208 C221 1.394 . S
C209 H201 0.949 . S
C209 C208 1.428 . S
C209 C210 1.345 . S
C210 H202 0.950 . S
C210 C209 1.345 . S
C210 C211 1.424 1_545 S
C211 H203 0.951 . S
C211 C210 1.424 1_565 S
C211 C212 1.347 . S
C212 H204 0.951 . S
C212 C207 1.429 . S
C212 C211 1.347 . S
H213 C214 0.951 . S
C214 H213 0.951 . S
C214 C220 1.265 . S
H215 C220 0.950 . S
H216 C224 0.949 . S
H217 C225 0.950 . S
H218 C226 0.951 . S
H219 C227 0.951 . S
C220 C214 1.265 . S
C220 H215 0.950 . S
C220 C221 1.478 . S
C221 C208 1.394 . S
C221 C220 1.478 . S
C221 C222 1.397 . S
C222 C221 1.397 . S
C222 C223 1.438 1_545 S
C222 C227 1.429 . S
C223 C206 1.394 . S
C223 C222 1.438 1_565 S
C223 C224 1.428 . S
C224 H216 0.949 . S
C224 C223 1.428 . S
C224 C225 1.345 . S
C225 H217 0.950 . S
C225 C224 1.345 . S
C225 C226 1.424 1_565 S
C226 H218 0.951 . S
C226 C225 1.424 1_545 S
C226 C227 1.347 . S
C227 H219 0.951 . S
C227 C222 1.429 . S
C227 C226 1.347 . S
H228 C229 0.951 . S
C229 H228 0.951 . S
C229 C235 1.265 . S
H230 C235 0.950 . S
H231 C239 0.949 . S
H232 C240 0.950 . S
H233 C241 0.951 . S
H234 C242 0.951 . S
C235 C229 1.265 . S
C235 H230 0.950 . S
C235 C236 1.478 . S
C236 C235 1.478 . S
C236 C237 1.397 . S
C236 C253 1.394 . S
C237 C236 1.397 . S
C237 C238 1.438 . S
C237 C242 1.429 . S
C238 C237 1.438 . S
C238 C239 1.428 . S
C238 C251 1.394 . S
C239 H231 0.949 . S
C239 C238 1.428 . S
C239 C240 1.345 . S
C240 H232 0.950 . S
C240 C239 1.345 . S
C240 C241 1.424 . S
C241 H233 0.951 . S
C241 C240 1.424 . S
C241 C242 1.347 . S
C242 H234 0.951 . S
C242 C237 1.429 . S
C242 C241 1.347 . S
H243 C244 0.951 . S
C244 H243 0.951 . S
C244 C250 1.265 . S
H245 C250 0.950 . S
H246 C254 0.949 . S
H247 C255 0.950 . S
H248 C256 0.951 . S
H249 C257 0.951 . S
C250 C244 1.265 . S
C250 H245 0.950 . S
C250 C251 1.478 . S
C251 C238 1.394 . S
C251 C250 1.478 . S
C251 C252 1.397 . S
C252 C251 1.397 . S
C252 C253 1.438 . S
C252 C257 1.429 . S
C253 C236 1.394 . S
C253 C252 1.438 . S
C253 C254 1.428 . S
C254 H246 0.949 . S
C254 C253 1.428 . S
C254 C255 1.345 . S
C255 H247 0.950 . S
C255 C254 1.345 . S
C255 C256 1.424 . S
C256 H248 0.951 . S
C256 C255 1.424 . S
C256 C257 1.347 . S
C257 H249 0.951 . S
C257 C252 1.429 . S
C257 C256 1.347 . S
H258 C259 0.951 . S
C259 H258 0.951 . S
C259 C265 1.265 . S
H260 C265 0.950 . S
H261 C269 0.949 . S
H262 C270 0.950 . S
H263 C271 0.951 . S
H264 C272 0.951 . S
C265 C259 1.265 . S
C265 H260 0.950 . S
C265 C266 1.478 . S
C266 C265 1.478 . S
C266 C267 1.397 . S
C266 C283 1.394 . S
C267 C266 1.397 . S
C267 C268 1.438 1_556 S
C267 C272 1.429 . S
C268 C267 1.438 1_554 S
C268 C269 1.428 . S
C268 C281 1.394 . S
C269 H261 0.949 . S
C269 C268 1.428 . S
C269 C270 1.345 . S
C270 H262 0.950 . S
C270 C269 1.345 . S
C270 C271 1.424 1_554 S
C271 H263 0.951 . S
C271 C270 1.424 1_556 S
C271 C272 1.347 . S
C272 H264 0.951 . S
C272 C267 1.429 . S
C272 C271 1.347 . S
H273 C274 0.951 . S
C274 H273 0.951 . S
C274 C280 1.265 . S
H275 C280 0.950 . S
H276 C284 0.949 . S
H277 C285 0.950 . S
H278 C286 0.951 . S
H279 C287 0.951 . S
C280 C274 1.265 . S
C280 H275 0.950 . S
C280 C281 1.478 . S
C281 C268 1.394 . S
C281 C280 1.478 . S
C281 C282 1.397 . S
C282 C281 1.397 . S
C282 C283 1.438 1_554 S
C282 C287 1.429 . S
C283 C266 1.394 . S
C283 C282 1.438 1_556 S
C283 C284 1.428 . S
C284 H276 0.949 . S
C284 C283 1.428 . S
C284 C285 1.345 . S
C285 H277 0.950 . S
C285 C284 1.345 . S
C285 C286 1.424 1_556 S
C286 H278 0.951 . S
C286 C285 1.424 1_554 S
C286 C287 1.347 . S
C287 H279 0.951 . S
C287 C282 1.429 . S
C287 C286 1.347 . S
H288 C289 0.951 . S
C289 H288 0.951 . S
C289 C295 1.265 . S
H290 C295 0.950 . S
H291 C299 0.949 . S
H292 C300 0.950 . S
H293 C301 0.951 . S
H294 C302 0.951 . S
C295 C289 1.265 . S
C295 H290 0.950 . S
C295 C296 1.478 . S
C296 C295 1.478 . S
C296 C297 1.397 . S
C296 C313 1.394 . S
C297 C296 1.397 . S
C297 C298 1.438 . S
C297 C302 1.429 . S
C298 C297 1.438 . S
C298 C299 1.428 . S
C298 C311 1.394 . S
C299 H291 0.949 . S
C299 C298 1.428 . S
C299 C300 1.345 . S
C300 H292 0.950 . S
C300 C299 1.345 . S
C300 C301 1.424 . S
C301 H293 0.951 . S
C301 C300 1.424 . S
C301 C302 1.347 . S
C302 H294 0.951 . S
C302 C297 1.429 . S
C302 C301 1.347 . S
H303 C304 0.951 . S
C304 H303 0.951 . S
C304 C310 1.265 . S
H305 C310 0.950 . S
H306 C314 0.949 . S
H307 C315 0.950 . S
H308 C316 0.951 . S
H309 C317 0.951 . S
C310 C304 1.265 . S
C310 H305 0.950 . S
C310 C311 1.478 . S
C311 C298 1.394 . S
C311 C310 1.478 . S
C311 C312 1.397 . S
C312 C311 1.397 . S
C312 C313 1.438 . S
C312 C317 1.429 . S
C313 C296 1.394 . S
C313 C312 1.438 . S
C313 C314 1.428 . S
C314 H306 0.949 . S
C314 C313 1.428 . S
C314 C315 1.345 . S
C315 H307 0.950 . S
C315 C314 1.345 . S
C315 C316 1.424 . S
C316 H308 0.951 . S
C316 C315 1.424 . S
C316 C317 1.347 . S
C317 H309 0.951 . S
C317 C312 1.429 . S
C317 C316 1.347 . S
H318 C319 0.951 . S
C319 H318 0.951 . S
C319 C325 1.265 . S
H320 C325 0.950 . S
H321 C329 0.949 . S
H322 C330 0.950 . S
H323 C331 0.951 . S
H324 C332 0.951 . S
C325 C319 1.265 . S
C325 H320 0.950 . S
C325 C326 1.478 . S
C326 C325 1.478 . S
C326 C327 1.397 . S
C326 C343 1.394 . S
C327 C326 1.397 . S
C327 C328 1.438 . S
C327 C332 1.429 . S
C328 C327 1.438 . S
C328 C329 1.428 . S
C328 C341 1.394 . S
C329 H321 0.949 . S
C329 C328 1.428 . S
C329 C330 1.345 . S
C330 H322 0.950 . S
C330 C329 1.345 . S
C330 C331 1.424 . S
C331 H323 0.951 . S
C331 C330 1.424 . S
C331 C332 1.347 . S
C332 H324 0.951 . S
C332 C327 1.429 . S
C332 C331 1.347 . S
H333 C334 0.951 . S
C334 H333 0.951 . S
C334 C340 1.265 . S
H335 C340 0.950 . S
H336 C344 0.949 . S
H337 C345 0.950 . S
H338 C346 0.951 . S
H339 C347 0.951 . S
C340 C334 1.265 . S
C340 H335 0.950 . S
C340 C341 1.478 . S
C341 C328 1.394 . S
C341 C340 1.478 . S
C341 C342 1.397 . S
C342 C341 1.397 . S
C342 C343 1.438 . S
C342 C347 1.429 . S
C343 C326 1.394 . S
C343 C342 1.438 . S
C343 C344 1.428 . S
C344 H336 0.949 . S
C344 C343 1.428 . S
C344 C345 1.345 . S
C345 H337 0.950 . S
C345 C344 1.345 . S
C345 C346 1.424 . S
C346 H338 0.951 . S
C346 C345 1.424 . S
C346 C347 1.347 . S
C347 H339 0.951 . S
C347 C342 1.429 . S
C347 C346 1.347 . S
H348 C349 0.951 . S
C349 H348 0.951 . S
C349 C355 1.265 . S
H350 C355 0.950 . S
H351 C359 0.949 . S
H352 C360 0.950 . S
H353 C361 0.942 1_556 S
H354 C362 0.951 . S
C355 C349 1.265 . S
C355 H350 0.950 . S
C355 C356 1.478 . S
C356 C355 1.478 . S
C356 C357 1.397 . S
C356 C373 1.394 . S
C357 C356 1.397 . S
C357 C358 1.438 1_556 S
C357 C362 1.429 . S
C358 C357 1.438 1_554 S
C358 C359 1.428 . S
C358 C371 1.394 . S
C359 H351 0.949 . S
C359 C358 1.428 . S
C359 C360 1.345 . S
C360 H352 0.950 . S
C360 C359 1.345 . S
C360 C361 1.424 . S
C361 H353 0.942 1_554 S
C361 C360 1.424 . S
C361 C362 1.347 1_554 S
C362 H354 0.951 . S
C362 C357 1.429 . S
C362 C361 1.347 1_556 S
H363 C364 0.951 . S
C364 H363 0.951 . S
C364 C370 1.265 . S
H365 C370 0.950 . S
H366 C374 0.949 . S
H367 C375 0.950 . S
H368 C376 0.951 1_554 S
H369 C377 0.951 . S
C370 C364 1.265 . S
C370 H365 0.950 . S
C370 C371 1.478 . S
C371 C358 1.394 . S
C371 C370 1.478 . S
C371 C372 1.397 . S
C372 C371 1.397 . S
C372 C373 1.438 1_554 S
C372 C377 1.429 . S
C373 C356 1.394 . S
C373 C372 1.438 1_556 S
C373 C374 1.428 . S
C374 H366 0.949 . S
C374 C373 1.428 . S
C374 C375 1.345 . S
C375 H367 0.950 . S
C375 C374 1.345 . S
C375 C376 1.424 . S
C376 H368 0.951 1_556 S
C376 C375 1.424 . S
C376 C377 1.347 1_556 S
C377 H369 0.951 . S
C377 C372 1.429 . S
C377 C376 1.347 1_554 S
H378 C379 0.951 . S
C379 H378 0.951 . S
C379 C385 1.265 . S
H380 C385 0.950 . S
H381 C389 0.949 . S
H382 C390 0.950 . S
H383 C391 0.951 . S
H384 C392 0.951 . S
C385 C379 1.265 . S
C385 H380 0.950 . S
C385 C386 1.478 . S
C386 C385 1.478 . S
C386 C387 1.397 . S
C386 C403 1.394 . S
C387 C386 1.397 . S
C387 C388 1.438 . S
C387 C392 1.429 . S
C388 C387 1.438 . S
C388 C389 1.428 . S
C388 C401 1.394 . S
C389 H381 0.949 . S
C389 C388 1.428 . S
C389 C390 1.345 . S
C390 H382 0.950 . S
C390 C389 1.345 . S
C390 C391 1.424 . S
C391 H383 0.951 . S
C391 C390 1.424 . S
C391 C392 1.347 . S
C392 H384 0.951 . S
C392 C387 1.429 . S
C392 C391 1.347 . S
H393 C394 0.951 . S
C394 H393 0.951 . S
C394 C400 1.265 . S
H395 C400 0.950 . S
H396 C404 0.949 . S
H397 C405 0.950 . S
H398 C406 0.951 . S
H399 C407 0.951 . S
C400 C394 1.265 . S
C400 H395 0.950 . S
C400 C401 1.478 . S
C401 C388 1.394 . S
C401 C400 1.478 . S
C401 C402 1.397 . S
C402 C401 1.397 . S
C402 C403 1.438 . S
C402 C407 1.429 . S
C403 C386 1.394 . S
C403 C402 1.438 . S
C403 C404 1.428 . S
C404 H396 0.949 . S
C404 C403 1.428 . S
C404 C405 1.345 . S
C405 H397 0.950 . S
C405 C404 1.345 . S
C405 C406 1.424 . S
C406 H398 0.951 . S
C406 C405 1.424 . S
C406 C407 1.347 . S
C407 H399 0.951 . S
C407 C402 1.429 . S
C407 C406 1.347 . S
H408 C409 0.951 . S
C409 H408 0.951 . S
C409 C415 1.265 . S
H410 C415 0.950 . S
H411 C419 0.949 . S
H412 C420 0.950 . S
H413 C421 0.951 . S
H414 C422 0.951 . S
C415 C409 1.265 . S
C415 H410 0.950 . S
C415 C416 1.478 . S
C416 C415 1.478 . S
C416 C417 1.397 . S
C416 C433 1.394 . S
C417 C416 1.397 . S
C417 C418 1.438 . S
C417 C422 1.429 . S
C418 C417 1.438 . S
C418 C419 1.428 . S
C418 C431 1.394 . S
C419 H411 0.949 . S
C419 C418 1.428 . S
C419 C420 1.345 . S
C420 H412 0.950 . S
C420 C419 1.345 . S
C420 C421 1.424 . S
C421 H413 0.951 . S
C421 C420 1.424 . S
C421 C422 1.347 . S
C422 H414 0.951 . S
C422 C417 1.429 . S
C422 C421 1.347 . S
H423 C424 0.951 . S
C424 H423 0.951 . S
C424 C430 1.265 . S
H425 C430 0.950 . S
H426 C434 0.949 . S
H427 C435 0.950 . S
H428 C436 0.951 . S
H429 C437 0.951 . S
C430 C424 1.265 . S
C430 H425 0.950 . S
C430 C431 1.478 . S
C431 C418 1.394 . S
C431 C430 1.478 . S
C431 C432 1.397 . S
C432 C431 1.397 . S
C432 C433 1.438 . S
C432 C437 1.429 . S
C433 C416 1.394 . S
C433 C432 1.438 . S
C433 C434 1.428 . S
C434 H426 0.949 . S
C434 C433 1.428 . S
C434 C435 1.345 . S
C435 H427 0.950 . S
C435 C434 1.345 . S
C435 C436 1.424 . S
C436 H428 0.951 . S
C436 C435 1.424 . S
C436 C437 1.347 . S
C437 H429 0.951 . S
C437 C432 1.429 . S
C437 C436 1.347 . S
C79 C5 1.909 . S
C94 C44 1.909 . S
C109 C18 1.908 . S
C124 C57 1.908 . S
C139 C31 1.951 . S
C154 C70 1.951 . S
C169 C23 1.988 . S
C184 C62 1.987 . S
C199 C75 2.033 . S
C214 C36 2.033 . S
C229 C49 2.033 . S
C244 C10 2.033 . S
C259 C29 1.643 . S
C274 C1 1.663 . S
C289 C42 1.649 . S
C304 C14 1.632 . S
C319 C27 1.659 . S
C334 C55 1.623 . S
C349 C68 1.577 . S
C364 C40 1.592 . S
C379 C53 1.631 . S
C394 C3 1.586 . S
C409 C66 1.663 . S
C424 C16 1.635 . S
