# Generated by pormake.
# Topology pcb, (4)-cn, num edge types: 1
# Building blocks:
#     Node 0, Type 0, BuildingBlock: GALJAG_clean_sbu_0, # of connection points: 4
#     Node 1, Type 0, BuildingBlock: GALJAG_clean_sbu_0, # of connection points: 4
#     Node 2, Type 0, BuildingBlock: GALJAG_clean_sbu_0, # of connection points: 4
#     Node 3, Type 0, BuildingBlock: GALJAG_clean_sbu_0, # of connection points: 4
#     Node 4, Type 0, BuildingBlock: GALJAG_clean_sbu_0, # of connection points: 4
#     Node 5, Type 0, BuildingBlock: GALJAG_clean_sbu_0, # of connection points: 4
#     Node 6, Type 0, BuildingBlock: GALJAG_clean_sbu_0, # of connection points: 4
#     Node 7, Type 0, BuildingBlock: GALJAG_clean_sbu_0, # of connection points: 4
#     Node 8, Type 0, BuildingBlock: GALJAG_clean_sbu_0, # of connection points: 4
#     Node 9, Type 0, BuildingBlock: GALJAG_clean_sbu_0, # of connection points: 4
#     Node 10, Type 0, BuildingBlock: GALJAG_clean_sbu_0, # of connection points: 4
#     Node 11, Type 0, BuildingBlock: GALJAG_clean_sbu_0, # of connection points: 4
#     Node 12, Type 0, BuildingBlock: GALJAG_clean_sbu_0, # of connection points: 4
#     Node 13, Type 0, BuildingBlock: GALJAG_clean_sbu_0, # of connection points: 4
#     Node 14, Type 0, BuildingBlock: GALJAG_clean_sbu_0, # of connection points: 4
#     Node 15, Type 0, BuildingBlock: GALJAG_clean_sbu_0, # of connection points: 4
#     Edge 16, Type (0, 0), BuildingBlock: TEMPAE_clean_linker_10, # of connection points: 2
#     Edge 17, Type (0, 0), BuildingBlock: TEMPAE_clean_linker_10, # of connection points: 2
#     Edge 18, Type (0, 0), BuildingBlock: TEMPAE_clean_linker_10, # of connection points: 2
#     Edge 19, Type (0, 0), BuildingBlock: TEMPAE_clean_linker_10, # of connection points: 2
#     Edge 20, Type (0, 0), BuildingBlock: TEMPAE_clean_linker_10, # of connection points: 2
#     Edge 21, Type (0, 0), BuildingBlock: TEMPAE_clean_linker_10, # of connection points: 2
#     Edge 22, Type (0, 0), BuildingBlock: TEMPAE_clean_linker_10, # of connection points: 2
#     Edge 23, Type (0, 0), BuildingBlock: TEMPAE_clean_linker_10, # of connection points: 2
#     Edge 24, Type (0, 0), BuildingBlock: TEMPAE_clean_linker_10, # of connection points: 2
#     Edge 25, Type (0, 0), BuildingBlock: TEMPAE_clean_linker_10, # of connection points: 2
#     Edge 26, Type (0, 0), BuildingBlock: TEMPAE_clean_linker_10, # of connection points: 2
#     Edge 27, Type (0, 0), BuildingBlock: TEMPAE_clean_linker_10, # of connection points: 2
#     Edge 28, Type (0, 0), BuildingBlock: TEMPAE_clean_linker_10, # of connection points: 2
#     Edge 29, Type (0, 0), BuildingBlock: TEMPAE_clean_linker_10, # of connection points: 2
#     Edge 30, Type (0, 0), BuildingBlock: TEMPAE_clean_linker_10, # of connection points: 2
#     Edge 31, Type (0, 0), BuildingBlock: TEMPAE_clean_linker_10, # of connection points: 2
#     Edge 32, Type (0, 0), BuildingBlock: TEMPAE_clean_linker_10, # of connection points: 2
#     Edge 33, Type (0, 0), BuildingBlock: TEMPAE_clean_linker_10, # of connection points: 2
#     Edge 34, Type (0, 0), BuildingBlock: TEMPAE_clean_linker_10, # of connection points: 2
#     Edge 35, Type (0, 0), BuildingBlock: TEMPAE_clean_linker_10, # of connection points: 2
#     Edge 36, Type (0, 0), BuildingBlock: TEMPAE_clean_linker_10, # of connection points: 2
#     Edge 37, Type (0, 0), BuildingBlock: TEMPAE_clean_linker_10, # of connection points: 2
#     Edge 38, Type (0, 0), BuildingBlock: TEMPAE_clean_linker_10, # of connection points: 2
#     Edge 39, Type (0, 0), BuildingBlock: TEMPAE_clean_linker_10, # of connection points: 2
#     Edge 40, Type (0, 0), BuildingBlock: TEMPAE_clean_linker_10, # of connection points: 2
#     Edge 41, Type (0, 0), BuildingBlock: TEMPAE_clean_linker_10, # of connection points: 2
#     Edge 42, Type (0, 0), BuildingBlock: TEMPAE_clean_linker_10, # of connection points: 2
#     Edge 43, Type (0, 0), BuildingBlock: TEMPAE_clean_linker_10, # of connection points: 2
#     Edge 44, Type (0, 0), BuildingBlock: TEMPAE_clean_linker_10, # of connection points: 2
#     Edge 45, Type (0, 0), BuildingBlock: TEMPAE_clean_linker_10, # of connection points: 2
#     Edge 46, Type (0, 0), BuildingBlock: TEMPAE_clean_linker_10, # of connection points: 2
#     Edge 47, Type (0, 0), BuildingBlock: TEMPAE_clean_linker_10, # of connection points: 2
# Relax obj value: 0.356
# Max RMSD: 0.193
# Mean RMSD: 0.171
data_MOF--net-pcb--node1-GALJAG_clean_sbu_0--edge1-TEMPAE_clean_linker_10
_symmetry_space_group_name_H-M    P1
_symmetry_Int_Tables_number       1
_symmetry_cell_setting            triclinic
loop_
_symmetry_equiv_pos_as_xyz
'x, y, z'
_cell_length_a     38.330234
_cell_length_b     48.357426
_cell_length_c     48.373205
_cell_angle_alpha  99.119726
_cell_angle_beta   95.916262
_cell_angle_gamma 95.987244
loop_
_atom_site_label
_atom_site_type_symbol
_atom_site_fract_x
_atom_site_fract_y
_atom_site_fract_z
_atom_type_partial_charge
In0 In 0.21097 0.16012 0.109 0.0
O1 O 0.24847 0.19575 0.13683 0.0
O2 O 0.20292 0.20625 0.11369 0.0
C3 C 0.2376 0.11395 0.12244 0.0
C4 C 0.14808 0.15278 0.1289 0.0
C5 C 0.22081 0.1577 0.05454 0.0
O6 O 0.24849 0.13837 0.13604 0.0
O7 O 0.21446 0.11319 0.10175 0.0
O8 O 0.19097 0.15239 0.06265 0.0
O9 O 0.24624 0.16443 0.0741 0.0
C10 C 0.22996 0.21478 0.13129 0.0
O11 O 0.15074 0.15358 0.10324 0.0
O12 O 0.17713 0.1555 0.14443 0.0
In13 In 0.83277 0.11574 0.17698 0.0
O14 O 0.82576 0.13304 0.22252 0.0
O15 O 0.7809 0.12662 0.19142 0.0
C16 C 0.90408 0.1229 0.18285 0.0
C17 C 0.81178 0.06029 0.17141 0.0
C18 C 0.82196 0.14305 0.13295 0.0
O19 O 0.88577 0.10042 0.17038 0.0
O20 O 0.88649 0.14175 0.19325 0.0
O21 O 0.82184 0.11665 0.12995 0.0
O22 O 0.82699 0.15562 0.15818 0.0
C23 C 0.79319 0.13466 0.21695 0.0
O24 O 0.80147 0.0749 0.1534 0.0
O25 O 0.83227 0.07383 0.19242 0.0
In26 In 0.80727 0.79602 0.10503 0.0
O27 O 0.77601 0.77797 0.13668 0.0
O28 O 0.79598 0.74893 0.10633 0.0
C29 C 0.80054 0.85093 0.12012 0.0
C30 C 0.87679 0.7989 0.12284 0.0
C31 C 0.7756 0.79043 0.05172 0.0
O32 O 0.78204 0.83181 0.12905 0.0
O33 O 0.82203 0.84221 0.10368 0.0
O34 O 0.80749 0.78668 0.05737 0.0
O35 O 0.75935 0.79558 0.07296 0.0
C36 C 0.77898 0.75258 0.12734 0.0
O37 O 0.86407 0.78943 0.09755 0.0
O38 O 0.85429 0.80583 0.13907 0.0
In39 In 0.20824 0.87159 0.17968 0.0
O40 O 0.15195 0.87955 0.16608 0.0
O41 O 0.15883 0.84528 0.18799 0.0
C42 C 0.22813 0.92704 0.18178 0.0
C43 C 0.24077 0.8569 0.22637 0.0
C44 C 0.21839 0.84459 0.12824 0.0
O45 O 0.19811 0.91759 0.18726 0.0
O46 O 0.24836 0.90854 0.17595 0.0
O47 O 0.195 0.83569 0.14219 0.0
O48 O 0.23795 0.86646 0.14078 0.0
C49 C 0.13755 0.85892 0.17563 0.0
O50 O 0.24511 0.84572 0.20181 0.0
O51 O 0.22042 0.87576 0.22738 0.0
In52 In 0.14046 0.81459 0.86604 0.0
O53 O 0.15062 0.77034 0.84719 0.0
O54 O 0.19011 0.80474 0.84701 0.0
C55 C 0.06924 0.80479 0.86286 0.0
C56 C 0.16695 0.81782 0.9202 0.0
C57 C 0.14902 0.8612 0.84212 0.0
O58 O 0.0857 0.79793 0.84209 0.0
O59 O 0.08876 0.81528 0.88538 0.0
O60 O 0.1593 0.86121 0.86775 0.0
O61 O 0.13487 0.83762 0.82849 0.0
C62 C 0.18066 0.77852 0.84073 0.0
O63 O 0.15879 0.8391 0.91002 0.0
O64 O 0.16173 0.79482 0.90304 0.0
In65 In 0.16484 0.10594 0.79684 0.0
O66 O 0.11617 0.10499 0.82008 0.0
O67 O 0.12168 0.13476 0.79244 0.0
C68 C 0.15785 0.04924 0.7831 0.0
C69 C 0.19015 0.12677 0.75348 0.0
C70 C 0.20482 0.12379 0.8471 0.0
O71 O 0.13176 0.06291 0.7857 0.0
O72 O 0.18732 0.06431 0.78592 0.0
O73 O 0.18996 0.14038 0.83348 0.0
O74 O 0.20041 0.09843 0.83493 0.0
C75 C 0.10364 0.12474 0.80975 0.0
O76 O 0.20812 0.12871 0.7772 0.0
O77 O 0.15955 0.11356 0.75132 0.0
In78 In 0.82456 0.20773 0.89898 0.0
O79 O 0.88479 0.21146 0.90081 0.0
O80 O 0.85408 0.18765 0.86409 0.0
C81 C 0.82307 0.21967 0.95509 0.0
C82 C 0.80223 0.25123 0.87626 0.0
C83 C 0.79019 0.15491 0.88772 0.0
O84 O 0.85133 0.21751 0.94409 0.0
O85 O 0.79563 0.21737 0.93763 0.0
O86 O 0.7867 0.17218 0.87089 0.0
O87 O 0.81057 0.16444 0.91011 0.0
C88 C 0.88448 0.19643 0.87692 0.0
O89 O 0.78199 0.22928 0.87741 0.0
O90 O 0.8335 0.25165 0.88743 0.0
In91 In 0.76931 0.89055 0.83647 0.0
O92 O 0.7317 0.86592 0.79892 0.0
O93 O 0.77921 0.88839 0.79093 0.0
C94 C 0.74176 0.87291 0.88051 0.0
C95 C 0.83027 0.86791 0.84368 0.0
C96 C 0.76258 0.94587 0.84239 0.0
O97 O 0.72992 0.86223 0.85531 0.0
O98 O 0.76595 0.89328 0.8832 0.0
O99 O 0.792 0.93636 0.84343 0.0
O100 O 0.73592 0.92732 0.83835 0.0
C101 C 0.7516 0.87193 0.78091 0.0
O102 O 0.8293 0.8942 0.84631 0.0
O103 O 0.80057 0.85317 0.83753 0.0
In104 In 0.73527 0.66278 0.60474 0.0
O105 O 0.77365 0.69826 0.6321 0.0
O106 O 0.72955 0.7092 0.60759 0.0
C107 C 0.76007 0.616 0.61822 0.0
C108 C 0.67436 0.65753 0.62786 0.0
C109 C 0.74195 0.65803 0.54951 0.0
O110 O 0.77433 0.64042 0.62973 0.0
O111 O 0.73459 0.61549 0.59936 0.0
O112 O 0.71252 0.65603 0.55901 0.0
O113 O 0.76862 0.6626 0.56805 0.0
C114 C 0.75622 0.71757 0.62559 0.0
O115 O 0.6751 0.65775 0.60188 0.0
O116 O 0.70427 0.65983 0.64208 0.0
In117 In 0.36478 0.63143 0.68684 0.0
O118 O 0.35606 0.65125 0.7314 0.0
O119 O 0.31506 0.64946 0.69776 0.0
C120 C 0.43577 0.63416 0.69221 0.0
C121 C 0.33856 0.57739 0.68513 0.0
C122 C 0.35856 0.65644 0.64095 0.0
O123 O 0.4202 0.65343 0.70452 0.0
O124 O 0.41555 0.61331 0.67826 0.0
O125 O 0.3518 0.63012 0.63963 0.0
O126 O 0.36813 0.67014 0.66546 0.0
C127 C 0.32545 0.65684 0.7237 0.0
O128 O 0.32984 0.59124 0.66602 0.0
O129 O 0.36031 0.59095 0.70534 0.0
In130 In 0.30262 0.31186 0.61766 0.0
O131 O 0.35845 0.30613 0.60744 0.0
O132 O 0.34988 0.31302 0.65059 0.0
C133 C 0.26937 0.30877 0.56519 0.0
C134 C 0.27064 0.26815 0.63742 0.0
C135 C 0.30389 0.3674 0.63647 0.0
O136 O 0.29952 0.30096 0.56985 0.0
O137 O 0.25547 0.31709 0.58704 0.0
O138 O 0.28393 0.34914 0.64535 0.0
O139 O 0.32258 0.35753 0.61823 0.0
C140 C 0.37174 0.30952 0.63293 0.0
O141 O 0.26801 0.29351 0.64728 0.0
O142 O 0.28909 0.26481 0.61728 0.0
In143 In 0.70179 0.38237 0.68346 0.0
O144 O 0.73688 0.35405 0.70353 0.0
O145 O 0.71296 0.38344 0.73076 0.0
C146 C 0.70397 0.36391 0.62831 0.0
C147 C 0.63265 0.36489 0.68357 0.0
C148 C 0.73311 0.43561 0.68739 0.0
O149 O 0.7221 0.35441 0.6472 0.0
O150 O 0.68543 0.38261 0.6374 0.0
O151 O 0.70252 0.42998 0.69411 0.0
O152 O 0.74844 0.41432 0.67977 0.0
C153 C 0.73235 0.36387 0.7285 0.0
O154 O 0.6448 0.39068 0.68726 0.0
O155 O 0.65554 0.34806 0.68073 0.0
In156 In 0.63328 0.30509 0.3667 0.0
O157 O 0.67466 0.32254 0.40423 0.0
O158 O 0.63594 0.28914 0.40856 0.0
C159 C 0.64405 0.35172 0.34333 0.0
C160 C 0.6647 0.26369 0.33914 0.0
C161 C 0.56273 0.30465 0.36522 0.0
O162 O 0.65251 0.35164 0.36924 0.0
O163 O 0.63045 0.32818 0.32917 0.0
O164 O 0.57656 0.29054 0.34592 0.0
O165 O 0.58439 0.31804 0.38546 0.0
C166 C 0.66256 0.30629 0.41991 0.0
O167 O 0.67607 0.28946 0.34178 0.0
O168 O 0.63708 0.25849 0.35047 0.0
In169 In 0.67079 0.59697 0.29145 0.0
O170 O 0.71551 0.61198 0.26769 0.0
O171 O 0.66321 0.60814 0.24728 0.0
C172 C 0.71191 0.6105 0.34156 0.0
C173 C 0.61344 0.62262 0.30335 0.0
C174 C 0.65981 0.54019 0.28362 0.0
O175 O 0.7077 0.62808 0.32516 0.0
O176 O 0.69608 0.58608 0.33233 0.0
O177 O 0.63717 0.55568 0.29199 0.0
O178 O 0.68783 0.55336 0.27822 0.0
C179 C 0.6956 0.61495 0.24625 0.0
O180 O 0.61162 0.60094 0.28466 0.0
O181 O 0.64413 0.63157 0.31547 0.0
In182 In 0.33838 0.70757 0.39904 0.0
O183 O 0.38343 0.68051 0.39616 0.0
O184 O 0.38327 0.71358 0.37206 0.0
C185 C 0.34753 0.72098 0.45581 0.0
C186 C 0.3138 0.75077 0.3775 0.0
C187 C 0.29543 0.65864 0.38186 0.0
O188 O 0.3728 0.71702 0.4415 0.0
O189 O 0.3179 0.71967 0.44136 0.0
O190 O 0.31141 0.67127 0.36506 0.0
O191 O 0.30039 0.67111 0.40712 0.0
C192 C 0.39832 0.69324 0.37889 0.0
O193 O 0.29586 0.72698 0.37528 0.0
O194 O 0.34395 0.75314 0.39147 0.0
In195 In 0.26374 0.39489 0.34067 0.0
O196 O 0.32364 0.39708 0.34195 0.0
O197 O 0.29509 0.35807 0.34561 0.0
C198 C 0.25893 0.45047 0.34594 0.0
C199 C 0.24069 0.3734 0.2864 0.0
C200 C 0.23851 0.38129 0.38729 0.0
O201 O 0.28758 0.44043 0.3507 0.0
O202 O 0.23205 0.43232 0.33839 0.0
O203 O 0.22492 0.36943 0.36283 0.0
O204 O 0.26351 0.4006 0.38792 0.0
C205 C 0.32471 0.37169 0.34477 0.0
O206 O 0.22326 0.36843 0.30622 0.0
O207 O 0.26866 0.3902 0.29398 0.0
C208 C 0.20877 0.33239 0.25243 0.0
C209 C 0.23306 0.35687 0.25768 0.0
C210 C 0.20771 0.31257 0.22778 0.0
C211 C 0.23121 0.31767 0.20786 0.0
C212 C 0.25323 0.34366 0.21176 0.0
C213 C 0.25405 0.36295 0.23678 0.0
C214 C 0.18365 0.28512 0.22428 0.0
C215 C 0.27791 0.35016 0.19063 0.0
C216 C 0.26 0.25012 0.17202 0.0
C217 C 0.23578 0.24368 0.14753 0.0
C218 C 0.26022 0.27516 0.19111 0.0
C219 C 0.23591 0.29425 0.1853 0.0
C220 C 0.2136 0.28902 0.15941 0.0
C221 C 0.21365 0.26363 0.14083 0.0
C222 C 0.28461 0.28009 0.21849 0.0
C223 C 0.18797 0.30921 0.15218 0.0
H224 H 0.19237 0.32769 0.26847 0.0
H225 H 0.27262 0.38205 0.24066 0.0
H226 H 0.16854 0.28024 0.20292 0.0
H227 H 0.19979 0.26766 0.22654 0.0
H228 H 0.16467 0.28561 0.24018 0.0
H229 H 0.28783 0.373 0.19385 0.0
H230 H 0.30095 0.33823 0.19288 0.0
H231 H 0.2646 0.34353 0.16874 0.0
H232 H 0.27724 0.2348 0.17719 0.0
H233 H 0.19509 0.25882 0.12174 0.0
H234 H 0.26876 0.27872 0.23629 0.0
H235 H 0.2995 0.30154 0.22223 0.0
H236 H 0.30382 0.26442 0.21874 0.0
H237 H 0.16527 0.30708 0.1645 0.0
H238 H 0.17763 0.3049 0.1294 0.0
H239 H 0.20065 0.33137 0.1578 0.0
C240 C 0.67488 0.21327 0.32608 0.0
C241 C 0.68232 0.24167 0.32347 0.0
C242 C 0.69193 0.19242 0.3111 0.0
C243 C 0.71632 0.20028 0.29282 0.0
C244 C 0.72382 0.22895 0.29016 0.0
C245 C 0.70694 0.24931 0.30572 0.0
C246 C 0.68382 0.16207 0.31471 0.0
C247 C 0.74927 0.23813 0.27052 0.0
C248 C 0.78651 0.15741 0.26587 0.0
C249 C 0.77163 0.14731 0.23794 0.0
C250 C 0.76762 0.173 0.28484 0.0
C251 C 0.73333 0.17873 0.27546 0.0
C252 C 0.71736 0.16697 0.24784 0.0
C253 C 0.73671 0.15128 0.22943 0.0
C254 C 0.78525 0.18488 0.31431 0.0
C255 C 0.68091 0.17273 0.237 0.0
H256 H 0.65598 0.20741 0.33999 0.0
H257 H 0.71262 0.27126 0.30359 0.0
H258 H 0.67199 0.14901 0.2943 0.0
H259 H 0.7086 0.1536 0.32129 0.0
H260 H 0.6653 0.15964 0.33063 0.0
H261 H 0.75214 0.2613 0.27096 0.0
H262 H 0.77571 0.23187 0.27637 0.0
H263 H 0.73998 0.22743 0.24857 0.0
H264 H 0.81341 0.15412 0.27259 0.0
H265 H 0.72498 0.14327 0.2079 0.0
H266 H 0.76674 0.18186 0.33006 0.0
H267 H 0.79295 0.20792 0.31608 0.0
H268 H 0.80935 0.17495 0.31968 0.0
H269 H 0.662 0.16913 0.25232 0.0
H270 H 0.67067 0.15929 0.21635 0.0
H271 H 0.68183 0.19518 0.2344 0.0
C272 C 0.76854 0.70117 0.12999 0.0
C273 C 0.76502 0.72924 0.14093 0.0
C274 C 0.75697 0.6791 0.14383 0.0
C275 C 0.74185 0.68543 0.16922 0.0
C276 C 0.73764 0.71369 0.18001 0.0
C277 C 0.74917 0.73523 0.16567 0.0
C278 C 0.76154 0.64916 0.13164 0.0
C279 C 0.72172 0.7213 0.2071 0.0
C280 C 0.68512 0.63291 0.20091 0.0
C281 C 0.70873 0.62857 0.22349 0.0
C282 C 0.69618 0.6499 0.18171 0.0
C283 C 0.73155 0.6629 0.1854 0.0
C284 C 0.75603 0.65702 0.20703 0.0
C285 C 0.74431 0.63981 0.2258 0.0
C286 C 0.66944 0.65542 0.15868 0.0
C287 C 0.79398 0.6705 0.21165 0.0
H288 H 0.78071 0.69647 0.1108 0.0
H289 H 0.74637 0.7569 0.17419 0.0
H290 H 0.78033 0.6408 0.1463 0.0
H291 H 0.73598 0.63542 0.12921 0.0
H292 H 0.77165 0.6476 0.1108 0.0
H293 H 0.71961 0.74424 0.21225 0.0
H294 H 0.69495 0.70954 0.20552 0.0
H295 H 0.73816 0.71514 0.22484 0.0
H296 H 0.65763 0.62406 0.19892 0.0
H297 H 0.7627 0.63637 0.24315 0.0
H298 H 0.68053 0.65357 0.13826 0.0
H299 H 0.66279 0.67728 0.16387 0.0
H300 H 0.64466 0.64063 0.15608 0.0
H301 H 0.80571 0.66811 0.19151 0.0
H302 H 0.8105 0.66127 0.22722 0.0
H303 H 0.79499 0.69345 0.2195 0.0
C304 C 0.32574 0.79621 0.35985 0.0
C305 C 0.30223 0.77252 0.36167 0.0
C306 C 0.31721 0.81423 0.34078 0.0
C307 C 0.2845 0.80825 0.32324 0.0
C308 C 0.25972 0.78551 0.32647 0.0
C309 C 0.2689 0.76791 0.3457 0.0
C310 C 0.34409 0.83849 0.33811 0.0
C311 C 0.22444 0.77856 0.30827 0.0
C312 C 0.24792 0.85866 0.27852 0.0
C313 C 0.25584 0.84701 0.25179 0.0
C314 C 0.25865 0.84718 0.30243 0.0
C315 C 0.27756 0.8235 0.29936 0.0
C316 C 0.28714 0.81259 0.27264 0.0
C317 C 0.27618 0.82453 0.24916 0.0
C318 C 0.24827 0.85949 0.33064 0.0
C319 C 0.30742 0.78737 0.26856 0.0
H320 H 0.3515 0.7999 0.37227 0.0
H321 H 0.25054 0.74974 0.34722 0.0
H322 H 0.35597 0.83338 0.31823 0.0
H323 H 0.33134 0.85793 0.33707 0.0
H324 H 0.36567 0.84287 0.35599 0.0
H325 H 0.20691 0.76192 0.31528 0.0
H326 H 0.21071 0.79767 0.30853 0.0
H327 H 0.22865 0.77108 0.28611 0.0
H328 H 0.23234 0.87617 0.28065 0.0
H329 H 0.28253 0.81558 0.22855 0.0
H330 H 0.27125 0.86264 0.34723 0.0
H331 H 0.22764 0.84456 0.33674 0.0
H332 H 0.23773 0.87998 0.33018 0.0
H333 H 0.33174 0.79092 0.28385 0.0
H334 H 0.31499 0.78281 0.24689 0.0
H335 H 0.291 0.76846 0.27258 0.0
C336 C 0.31432 0.67793 0.77215 0.0
C337 C 0.30376 0.67195 0.74302 0.0
C338 C 0.29444 0.69357 0.79029 0.0
C339 C 0.26369 0.70365 0.77883 0.0
C340 C 0.25257 0.69712 0.7495 0.0
C341 C 0.27264 0.68119 0.73197 0.0
C342 C 0.30673 0.69988 0.82155 0.0
C343 C 0.22011 0.70776 0.73646 0.0
C344 C 0.19402 0.72984 0.82314 0.0
C345 C 0.20296 0.75912 0.82652 0.0
C346 C 0.2145 0.71135 0.80865 0.0
C347 C 0.24419 0.72255 0.79704 0.0
C348 C 0.25374 0.75209 0.80097 0.0
C349 C 0.2331 0.77003 0.81583 0.0
C350 C 0.20385 0.67993 0.80512 0.0
C351 C 0.28499 0.76481 0.78859 0.0
H352 H 0.33828 0.67065 0.78073 0.0
H353 H 0.26438 0.6766 0.70944 0.0
H354 H 0.31469 0.72289 0.82826 0.0
H355 H 0.28482 0.6938 0.83354 0.0
H356 H 0.32951 0.68862 0.82733 0.0
H357 H 0.21439 0.69991 0.71341 0.0
H358 H 0.19672 0.70113 0.74664 0.0
H359 H 0.22385 0.73117 0.74004 0.0
H360 H 0.17087 0.72138 0.8316 0.0
H361 H 0.2401 0.79268 0.81845 0.0
H362 H 0.22681 0.66926 0.81171 0.0
H363 H 0.19507 0.67126 0.78255 0.0
H364 H 0.18205 0.67461 0.81755 0.0
H365 H 0.30921 0.7558 0.79551 0.0
H366 H 0.28986 0.78814 0.79476 0.0
H367 H 0.28034 0.75952 0.76523 0.0
C368 C 0.17941 0.1436 0.7075 0.0
C369 C 0.20257 0.14169 0.73133 0.0
C370 C 0.18923 0.16142 0.68864 0.0
C371 C 0.22294 0.17756 0.69385 0.0
C372 C 0.24717 0.17432 0.7169 0.0
C373 C 0.23666 0.15641 0.73539 0.0
C374 C 0.1628 0.16422 0.66416 0.0
C375 C 0.28347 0.19106 0.72304 0.0
C376 C 0.26151 0.21671 0.63983 0.0
C377 C 0.2553 0.24439 0.6498 0.0
C378 C 0.24987 0.19438 0.65326 0.0
C379 C 0.23172 0.2 0.67717 0.0
C380 C 0.22415 0.22773 0.68658 0.0
C381 C 0.23604 0.2496 0.67276 0.0
C382 C 0.25821 0.16504 0.64257 0.0
C383 C 0.20474 0.23453 0.71199 0.0
H384 H 0.15304 0.13217 0.70425 0.0
H385 H 0.25473 0.15482 0.75369 0.0
H386 H 0.15309 0.18514 0.66817 0.0
H387 H 0.17541 0.16304 0.64444 0.0
H388 H 0.13973 0.14762 0.66089 0.0
H389 H 0.30024 0.18414 0.74016 0.0
H390 H 0.29715 0.18903 0.70383 0.0
H391 H 0.28091 0.21376 0.72945 0.0
H392 H 0.27631 0.2126 0.622 0.0
H393 H 0.23104 0.27095 0.68045 0.0
H394 H 0.2341 0.14958 0.63995 0.0
H395 H 0.27773 0.15875 0.65825 0.0
H396 H 0.26926 0.16367 0.62212 0.0
H397 H 0.17942 0.22048 0.70945 0.0
H398 H 0.19904 0.25679 0.71548 0.0
H399 H 0.22086 0.23077 0.73114 0.0
C400 C 0.81582 0.29564 0.85718 0.0
C401 C 0.79135 0.27292 0.86003 0.0
C402 C 0.80747 0.3139 0.83833 0.0
C403 C 0.77396 0.30914 0.82194 0.0
C404 C 0.74846 0.28723 0.82596 0.0
C405 C 0.75746 0.2694 0.84504 0.0
C406 C 0.83516 0.33726 0.83482 0.0
C407 C 0.71239 0.28154 0.80891 0.0
C408 C 0.73963 0.36289 0.78023 0.0
C409 C 0.74629 0.35183 0.75295 0.0
C410 C 0.74971 0.34985 0.80323 0.0
C411 C 0.76658 0.32514 0.79869 0.0
C412 C 0.77451 0.31453 0.77135 0.0
C413 C 0.76434 0.32806 0.7488 0.0
C414 C 0.74116 0.36189 0.83215 0.0
C415 C 0.79249 0.2882 0.76568 0.0
H416 H 0.84202 0.29851 0.86885 0.0
H417 H 0.73841 0.25193 0.84727 0.0
H418 H 0.84491 0.33208 0.81403 0.0
H419 H 0.82367 0.35742 0.8352 0.0
H420 H 0.85807 0.34038 0.85153 0.0
H421 H 0.69465 0.26529 0.81627 0.0
H422 H 0.69967 0.3012 0.81001 0.0
H423 H 0.71517 0.27414 0.78641 0.0
H424 H 0.72578 0.38134 0.78353 0.0
H425 H 0.76959 0.31949 0.72775 0.0
H426 H 0.76495 0.36441 0.84789 0.0
H427 H 0.72081 0.34708 0.83876 0.0
H428 H 0.73107 0.38266 0.83262 0.0
H429 H 0.81758 0.29041 0.77993 0.0
H430 H 0.79837 0.28355 0.74352 0.0
H431 H 0.7753 0.26985 0.77005 0.0
C432 C 0.72318 0.83199 0.74395 0.0
C433 C 0.74713 0.8566 0.75166 0.0
C434 C 0.72513 0.81306 0.7192 0.0
C435 C 0.75135 0.81919 0.70169 0.0
C436 C 0.77313 0.84538 0.70791 0.0
C437 C 0.7709 0.86377 0.73299 0.0
C438 C 0.70118 0.78539 0.71315 0.0
C439 C 0.80069 0.85301 0.68935 0.0
C440 C 0.78378 0.75259 0.66743 0.0
C441 C 0.76192 0.74655 0.64167 0.0
C442 C 0.78235 0.77734 0.68651 0.0
C443 C 0.75883 0.79657 0.67938 0.0
C444 C 0.73942 0.79193 0.65224 0.0
C445 C 0.74102 0.7668 0.6337 0.0
C446 C 0.80373 0.78166 0.71523 0.0
C447 C 0.71486 0.81232 0.64358 0.0
H448 H 0.70466 0.82645 0.75826 0.0
H449 H 0.78924 0.88297 0.73876 0.0
H450 H 0.68855 0.78124 0.69098 0.0
H451 H 0.71706 0.7679 0.71604 0.0
H452 H 0.68013 0.78503 0.7273 0.0
H453 H 0.81007 0.87598 0.6937 0.0
H454 H 0.82373 0.84145 0.69327 0.0
H455 H 0.79019 0.8468 0.66671 0.0
H456 H 0.80008 0.73704 0.6736 0.0
H457 H 0.72433 0.76232 0.61363 0.0
H458 H 0.78568 0.77945 0.7315 0.0
H459 H 0.81828 0.80324 0.72047 0.0
H460 H 0.82304 0.76616 0.7165 0.0
H461 H 0.69029 0.80953 0.65363 0.0
H462 H 0.70754 0.80878 0.62035 0.0
H463 H 0.72709 0.83447 0.65072 0.0
C464 C 0.23193 0.11194 0.89208 0.0
C465 C 0.22089 0.13236 0.87668 0.0
C466 C 0.23921 0.11811 0.92153 0.0
C467 C 0.23545 0.14535 0.93577 0.0
C468 C 0.22798 0.16683 0.92008 0.0
C469 C 0.22067 0.16004 0.89062 0.0
C470 C 0.24732 0.09464 0.93747 0.0
C471 C 0.22426 0.19625 0.93447 0.0
C472 C 0.19559 0.14677 0.00415 0.0
C473 C 0.22517 0.15553 0.02436 0.0
C474 C 0.19874 0.1437 0.97533 0.0
C475 C 0.23235 0.14967 0.96643 0.0
C476 C 0.26234 0.15894 0.98669 0.0
C477 C 0.25841 0.1617 0.01554 0.0
C478 C 0.16604 0.1337 0.9544 0.0
C479 C 0.29848 0.16562 0.97788 0.0
H480 H 0.23254 0.09057 0.88134 0.0
H481 H 0.21256 0.17599 0.87875 0.0
H482 H 0.26868 0.10226 0.95514 0.0
H483 H 0.22342 0.08719 0.94665 0.0
H484 H 0.25529 0.0764 0.92357 0.0
H485 H 0.22523 0.21159 0.91964 0.0
H486 H 0.1985 0.19615 0.94306 0.0
H487 H 0.24536 0.20357 0.9524 0.0
H488 H 0.16983 0.142 0.01085 0.0
H489 H 0.28133 0.16854 0.03115 0.0
H490 H 0.16946 0.11363 0.94085 0.0
H491 H 0.16191 0.14945 0.94038 0.0
H492 H 0.14188 0.13021 0.96487 0.0
H493 H 0.30669 0.14632 0.96596 0.0
H494 H 0.31879 0.17392 0.99623 0.0
H495 H 0.29771 0.18141 0.96357 0.0
C496 C 0.85265 0.21819 0.00301 0.0
C497 C 0.8215 0.21878 0.9853 0.0
C498 C 0.85142 0.21008 0.02949 0.0
C499 C 0.81824 0.20245 0.03838 0.0
C500 C 0.78677 0.20563 0.02175 0.0
C501 C 0.78878 0.21379 0.99533 0.0
C502 C 0.88561 0.20724 0.04673 0.0
C503 C 0.75091 0.19807 0.03069 0.0
C504 C 0.81654 0.14338 0.08126 0.0
C505 C 0.81842 0.1582 0.1088 0.0
C506 C 0.8157 0.15758 0.05816 0.0
C507 C 0.81655 0.18733 0.06272 0.0
C508 C 0.81738 0.20235 0.09041 0.0
C509 C 0.81844 0.18759 0.11319 0.0
C510 C 0.81486 0.14078 0.02891 0.0
C511 C 0.81801 0.23402 0.09601 0.0
H512 H 0.87803 0.22227 0.99545 0.0
H513 H 0.7646 0.21437 0.98178 0.0
H514 H 0.88542 0.2165 0.0692 0.0
H515 H 0.88862 0.18454 0.04577 0.0
H516 H 0.90895 0.21765 0.03888 0.0
H517 H 0.72962 0.20618 0.01804 0.0
H518 H 0.74502 0.17476 0.02789 0.0
H519 H 0.7505 0.20655 0.05333 0.0
H520 H 0.81651 0.12067 0.07777 0.0
H521 H 0.81979 0.19912 0.13448 0.0
H522 H 0.83905 0.14746 0.01969 0.0
H523 H 0.79187 0.14489 0.01492 0.0
H524 H 0.81322 0.1177 0.02892 0.0
H525 H 0.84305 0.24414 0.09043 0.0
H526 H 0.81579 0.24226 0.11846 0.0
H527 H 0.79606 0.24042 0.08258 0.0
C528 C 0.74661 0.87331 0.93213 0.0
C529 C 0.73309 0.85968 0.90482 0.0
C530 C 0.74628 0.85886 0.955 0.0
C531 C 0.73204 0.83005 0.9504 0.0
C532 C 0.71554 0.81688 0.92331 0.0
C533 C 0.71627 0.83191 0.90073 0.0
C534 C 0.76371 0.87385 0.98366 0.0
C535 C 0.69953 0.78638 0.91768 0.0
C536 C 0.78164 0.79209 0.00123 0.0
C537 C 0.76054 0.7938 0.02327 0.0
C538 C 0.77116 0.80176 0.9762 0.0
C539 C 0.73876 0.8133 0.97319 0.0
C540 C 0.71582 0.81251 0.99424 0.0
C541 C 0.72704 0.8028 0.01913 0.0
C542 C 0.79624 0.80191 0.95409 0.0
C543 C 0.68079 0.82409 0.99157 0.0
H544 H 0.75932 0.89488 0.93542 0.0
H545 H 0.70569 0.82129 0.87963 0.0
H546 H 0.74614 0.87081 5e-05 0.0
H547 H 0.78837 0.86476 0.98927 0.0
H548 H 0.77049 0.89686 0.98425 0.0
H549 H 0.68166 0.7811 0.89749 0.0
H550 H 0.72095 0.77264 0.91643 0.0
H551 H 0.68451 0.78139 0.93506 0.0
H552 H 0.80741 0.7849 0.00422 0.0
H553 H 0.71045 0.80392 0.03602 0.0
H554 H 0.80767 0.82394 0.95397 0.0
H555 H 0.78198 0.79345 0.93281 0.0
H556 H 0.81826 0.78927 0.95805 0.0
H557 H 0.68537 0.84749 0.99627 0.0
H558 H 0.66321 0.81671 0.00649 0.0
H559 H 0.66705 0.8179 0.96978 0.0
C560 C 0.1891 0.81559 0.08323 0.0
C561 C 0.21844 0.83354 0.09803 0.0
C562 C 0.18438 0.81004 0.05369 0.0
C563 C 0.21003 0.82229 0.03872 0.0
C564 C 0.24134 0.83819 0.05361 0.0
C565 C 0.24502 0.84391 0.08319 0.0
C566 C 0.15043 0.79322 0.03863 0.0
C567 C 0.26973 0.85089 0.03833 0.0
C568 C 0.19757 0.798 0.95937 0.0
C569 C 0.18008 0.81957 0.9502 0.0
C570 C 0.20887 0.79907 0.98811 0.0
C571 C 0.20159 0.82186 0.00801 0.0
C572 C 0.1843 0.84384 -0.00126 0.0
C573 C 0.17415 0.84258 0.96988 0.0
C574 C 0.22806 0.77568 -0.00279 0.0
C575 C 0.17549 0.86827 0.01935 0.0
H576 H 0.16851 0.80746 0.09463 0.0
H577 H 0.2679 0.8576 0.09462 0.0
H578 H 0.13373 0.80754 0.02915 0.0
H579 H 0.15591 0.77702 0.02122 0.0
H580 H 0.13512 0.78258 0.0531 0.0
H581 H 0.2948 0.85817 0.05251 0.0
H582 H 0.27504 0.8354 0.02022 0.0
H583 H 0.26068 0.86928 0.02984 0.0
H584 H 0.20242 0.7803 0.94408 0.0
H585 H 0.16052 0.85921 0.9628 0.0
H586 H 0.21148 0.76353 0.00972 0.0
H587 H 0.25291 0.78466 0.011 0.0
H588 H 0.23453 0.76091 0.97895 0.0
H589 H 0.15794 0.86029 0.03397 0.0
H590 H 0.1621 0.88368 0.00863 0.0
H591 H 0.19992 0.8795 0.03231 0.0
C592 C 0.08226 0.14749 0.1219 0.0
C593 C 0.11372 0.14915 0.13992 0.0
C594 C 0.04938 0.14393 0.13197 0.0
C595 C 0.04798 0.14188 0.16073 0.0
C596 C 0.07966 0.14372 0.17909 0.0
C597 C 0.11223 0.14738 0.16845 0.0
C598 C 0.01611 0.14213 0.11176 0.0
C599 C 0.07913 0.1415 0.20983 0.0
C600 C 0.96022 0.15516 0.18664 0.0
C601 C 0.94256 0.12767 0.18211 0.0
C602 C 0.99535 0.16012 0.18109 0.0
C603 C 0.01314 0.13697 0.17113 0.0
C604 C 0.99616 0.10909 0.16844 0.0
C605 C 0.96095 0.10478 0.17379 0.0
C606 C 0.01259 0.19015 0.18412 0.0
C607 C 0.01446 0.08385 0.15833 0.0
H608 H 0.0833 0.14892 0.09986 0.0
H609 H 0.13654 0.14869 0.18245 0.0
H610 H 0.00018 0.12132 0.11028 0.0
H611 H -0.00032 0.15854 0.11969 0.0
H612 H 0.02182 0.14491 0.09024 0.0
H613 H 0.06415 0.15783 0.22013 0.0
H614 H 0.06537 0.12066 0.21173 0.0
H615 H 0.10614 0.14405 0.22145 0.0
H616 H 0.94602 0.1729 0.19303 0.0
H617 H 0.9474 0.08348 0.1705 0.0
H618 H 0.01571 0.19535 0.16291 0.0
H619 H 0.03937 0.1927 0.19603 0.0
H620 H 0.99677 0.20553 0.19502 0.0
H621 H 0.0181 0.08324 0.13579 0.0
H622 H -0.00087 0.06366 0.16048 0.0
H623 H 0.04108 0.0855 0.17033 0.0
C624 C 0.77242 0.89045 0.1453 0.0
C625 C 0.79809 0.88125 0.12854 0.0
C626 C 0.77056 0.91938 0.15366 0.0
C627 C 0.79514 0.93935 0.14518 0.0
C628 C 0.82096 0.9301 0.12815 0.0
C629 C 0.82202 0.90116 0.11996 0.0
C630 C 0.74254 0.92858 0.17165 0.0
C631 C 0.84777 0.95077 0.1188 0.0
C632 C 0.78068 0.01521 0.14314 0.0
C633 C 0.80327 0.02935 0.16694 0.0
C634 C 0.77603 0.98566 0.13668 0.0
C635 C 0.79462 0.97003 0.15436 0.0
C636 C 0.81594 0.98416 0.17924 0.0
C637 C 0.81992 0.01371 0.18529 0.0
C638 C 0.75282 0.97128 0.11009 0.0
C639 C 0.83628 0.96819 0.19855 0.0
H640 H 0.75382 0.87507 0.1519 0.0
H641 H 0.84195 0.89413 0.10703 0.0
H642 H 0.75517 0.941 0.19215 0.0
H643 H 0.72633 0.94254 0.16114 0.0
H644 H 0.7248 0.9104 0.17576 0.0
H645 H 0.86601 0.94006 0.10549 0.0
H646 H 0.83409 0.96495 0.10664 0.0
H647 H 0.8637 0.96422 0.13751 0.0
H648 H 0.76756 0.02725 0.12901 0.0
H649 H 0.83731 0.02457 0.20378 0.0
H650 H 0.73469 0.95351 0.1145 0.0
H651 H 0.76954 0.96234 0.09436 0.0
H652 H 0.73686 0.98607 0.10059 0.0
H653 H 0.81869 0.95059 0.20385 0.0
H654 H 0.84867 0.982 0.21845 0.0
H655 H 0.85744 0.95881 0.18762 0.0
C656 C 0.93958 0.79691 0.11355 0.0
C657 C 0.91518 0.80429 0.13226 0.0
C658 C 0.97602 0.80458 0.12152 0.0
C659 C 0.9882 0.82017 0.14876 0.0
C660 C 0.96372 0.82693 0.168 0.0
C661 C 0.92751 0.81881 0.15956 0.0
C662 C 0.0014 0.79673 0.10053 0.0
C663 C 0.97567 0.84364 0.19717 0.0
C664 C 0.08516 0.82399 0.17689 0.0
C665 C 0.09907 0.84989 0.17048 0.0
C666 C 0.04908 0.81405 0.17003 0.0
C667 C 0.02638 0.83055 0.15668 0.0
C668 C 0.04017 0.857 0.15071 0.0
C669 C 0.0764 0.8663 0.15759 0.0
C670 C 0.03537 0.78568 0.17658 0.0
C671 C 0.01671 0.87533 0.13675 0.0
H672 H 0.93017 0.78566 0.09245 0.0
H673 H 0.90876 0.82462 0.17411 0.0
H674 H 0.0148 0.81614 0.09484 0.0
H675 H 0.0222 0.78558 0.11003 0.0
H676 H 0.98791 0.78304 0.08092 0.0
H677 H 0.95346 0.84596 0.21008 0.0
H678 H 0.99593 0.83327 0.20841 0.0
H679 H 0.9881 0.86499 0.19552 0.0
H680 H 0.10263 0.81115 0.18673 0.0
H681 H 0.08704 0.88633 0.15258 0.0
H682 H 0.024 0.77131 0.15677 0.0
H683 H 0.01384 0.788 0.19013 0.0
H684 H 0.05638 0.77566 0.18744 0.0
H685 H 0.00467 0.86399 0.11562 0.0
H686 H 0.03139 0.89565 0.13423 0.0
H687 H 0.99477 0.8799 0.14938 0.0
C688 C 0.2639 0.08869 0.15926 0.0
C689 C 0.24722 0.08791 0.13191 0.0
C690 C 0.267 0.06366 0.17013 0.0
C691 C 0.25312 0.03744 0.15315 0.0
C692 C 0.2386 0.03653 0.12485 0.0
C693 C 0.23579 0.06179 0.1146 0.0
C694 C 0.283 0.06542 0.20029 0.0
C695 C 0.22386 0.00897 0.10592 0.0
C696 C 0.26949 0.96563 0.16985 0.0
C697 C 0.23733 0.95684 0.17915 0.0
C698 C 0.27617 0.99268 0.16302 0.0
C699 C 0.24998 0.01119 0.16547 0.0
C700 C 0.21848 0.00305 0.17663 0.0
C701 C 0.21255 0.97596 0.18336 0.0
C702 C 0.31023 0.00071 0.1515 0.0
C703 C 0.18997 0.02227 0.17972 0.0
H704 H 0.27282 0.10888 0.1727 0.0
H705 H 0.22318 0.06111 0.09334 0.0
H706 H 0.2617 0.06109 0.21348 0.0
H707 H 0.30133 0.04929 0.20193 0.0
H708 H 0.29754 0.0866 0.2091 0.0
H709 H 0.21641 0.01172 0.0838 0.0
H710 H 0.24346 0.99364 0.10601 0.0
H711 H 0.20003 -0.00036 0.11396 0.0
H712 H 0.28885 0.95097 0.16674 0.0
H713 H 0.18776 0.96933 0.19074 0.0
H714 H 0.32181 0.02251 0.16119 0.0
H715 H 0.30478 0.00019 0.12844 0.0
H716 H 0.33003 0.98607 0.15522 0.0
H717 H 0.20138 0.04355 0.19109 0.0
H718 H 0.1687 0.01392 0.19124 0.0
H719 H 0.17795 0.02475 0.15851 0.0
C720 C 0.86282 0.82622 0.84708 0.0
C721 C 0.86352 0.85528 0.84704 0.0
C722 C 0.89428 0.81389 0.84986 0.0
C723 C 0.92706 0.83104 0.85235 0.0
C724 C 0.92786 0.86039 0.85232 0.0
C725 C 0.89605 0.87218 0.84981 0.0
C726 C 0.89246 0.7826 0.85011 0.0
C727 C 0.96235 0.87935 0.85476 0.0
C728 C 0.01389 0.81234 0.88424 0.0
C729 C 0.03065 0.80531 0.86012 0.0
C730 C 0.97902 0.81884 0.88196 0.0
C731 C 0.96079 0.81858 0.85494 0.0
C732 C 0.9767 0.80949 0.83048 0.0
C733 C 0.01147 0.80279 0.83338 0.0
C734 C 0.96268 0.82791 0.90853 0.0
C735 C 0.95808 0.80896 0.8013 0.0
H736 H 0.83766 0.8131 0.84502 0.0
H737 H 0.89666 0.89463 0.84971 0.0
H738 H 0.90519 0.77229 0.8323 0.0
H739 H 0.90726 0.77883 0.86984 0.0
H740 H 0.86485 0.77232 0.84847 0.0
H741 H 0.95835 0.90167 0.85412 0.0
H742 H 0.97872 0.87849 0.87483 0.0
H743 H 0.97755 0.87189 0.8373 0.0
H744 H 0.02858 0.8141 0.90496 0.0
H745 H 0.02435 0.79735 0.81467 0.0
H746 H 0.93526 0.81732 0.90688 0.0
H747 H 0.96136 0.85099 0.91145 0.0
H748 H 0.97818 0.82314 0.92753 0.0
H749 H 0.9307 0.79819 0.79914 0.0
H750 H 0.9722 0.79818 0.78457 0.0
H751 H 0.95632 0.83093 0.79777 0.0
C752 C 0.14359 0.88541 0.80017 0.0
C753 C 0.15192 0.88698 0.82935 0.0
C754 C 0.14465 0.90996 0.78804 0.0
C755 C 0.15377 0.9366 0.8056 0.0
C756 C 0.16266 0.93823 0.83502 0.0
C757 C 0.16183 0.91337 0.84651 0.0
C758 C 0.13551 0.90744 0.75656 0.0
C759 C 0.17226 0.96629 0.8545 0.0
C760 C 0.18503 0.00439 0.78101 0.0
C761 C 0.1549 0.01844 0.78228 0.0
C762 C 0.18438 0.97672 0.78649 0.0
C763 C 0.15296 0.96304 0.79369 0.0
C764 C 0.12177 0.97634 0.79287 0.0
C765 C 0.12307 0.00387 0.78699 0.0
C766 C 0.21798 0.96298 0.7866 0.0
C767 C 0.08773 0.96247 0.80046 0.0
H768 H 0.13604 0.865 0.78683 0.0
H769 H 0.1682 0.91465 0.86908 0.0
H770 H 0.11119 0.91734 0.752 0.0
H771 H 0.15699 0.91892 0.74755 0.0
H772 H 0.13113 0.88512 0.74566 0.0
H773 H 0.17885 0.96385 0.87683 0.0
H774 H 0.19526 0.97835 0.84788 0.0
H775 H 0.14988 0.97904 0.85324 0.0
H776 H 0.20965 0.01551 0.77717 0.0
H777 H 0.09966 0.01462 0.78792 0.0
H778 H 0.21259 0.94074 0.77562 0.0
H779 H 0.22898 0.96276 0.80869 0.0
H780 H 0.23832 0.97438 0.77635 0.0
H781 H 0.08167 0.94044 0.78903 0.0
H782 H 0.06499 0.97411 0.79559 0.0
H783 H 0.09065 0.96164 0.82337 0.0
C784 C 0.05141 0.12289 0.83646 0.0
C785 C 0.07111 0.13583 0.81812 0.0
C786 C 0.02107 0.1336 0.84537 0.0
C787 C 0.0103 0.15795 0.83582 0.0
C788 C 0.03 0.17106 0.81721 0.0
C789 C 0.06017 0.15978 0.8085 0.0
C790 C 0.00061 0.11892 0.86509 0.0
C791 C 0.01934 0.19711 0.80668 0.0
C792 C 0.91445 0.1693 0.84004 0.0
C793 C 0.91691 0.18832 0.86546 0.0
C794 C 0.94474 0.15973 0.82981 0.0
C795 C 0.97829 0.16952 0.84532 0.0
C796 C 0.98104 0.18935 0.87059 0.0
C797 C 0.95026 0.19847 0.88041 0.0
C798 C 0.94074 0.1385 0.80283 0.0
C799 C 0.01641 0.20037 0.88761 0.0
H800 H 0.05977 0.10436 0.84395 0.0
H801 H 0.0754 0.16991 0.7944 0.0
H802 H -0.0002 0.13372 0.88498 0.0
H803 H 0.97289 0.11224 0.85538 0.0
H804 H 0.01234 0.10006 0.87034 0.0
H805 H 0.03748 0.20475 0.79227 0.0
H806 H 0.99216 0.1926 0.79535 0.0
H807 H 0.01906 0.21428 0.8248 0.0
H808 H 0.88871 0.16138 0.8284 0.0
H809 H 0.95227 0.21322 0.90005 0.0
H810 H 0.94975 0.11842 0.80734 0.0
H811 H 0.95761 0.14631 0.78769 0.0
H812 H 0.91297 0.13402 0.7926 0.0
H813 H 0.02836 0.18277 0.89556 0.0
H814 H 0.01421 0.21689 0.90591 0.0
H815 H 0.03479 0.2093 0.8741 0.0
C816 C 0.72819 0.98713 0.85078 0.0
C817 C 0.76016 0.97646 0.84632 0.0
C818 C 0.72673 0.01639 0.85645 0.0
C819 C 0.75793 0.03518 0.85744 0.0
C820 C 0.78994 0.02441 0.85196 0.0
C821 C 0.79066 0.99521 0.84658 0.0
C822 C 0.6922 0.02717 0.86227 0.0
C823 C 0.82377 0.04373 0.85258 0.0
C824 C 0.76218 0.11279 0.85279 0.0
C825 C 0.77506 0.12499 0.88069 0.0
C826 C 0.75382 0.08342 0.8451 0.0
C827 C 0.75827 0.06609 0.8659 0.0
C828 C 0.76843 0.07858 0.89448 0.0
C829 C 0.77688 0.10791 0.90151 0.0
C830 C 0.74298 0.07087 0.81442 0.0
C831 C 0.77307 0.06087 0.91735 0.0
H832 H 0.70455 0.97265 0.85058 0.0
H833 H 0.81538 0.98705 0.8429 0.0
H834 H 0.69425 0.0375 0.88466 0.0
H835 H 0.68633 0.04333 0.84912 0.0
H836 H 0.66975 0.00998 0.85813 0.0
H837 H 0.84591 0.03197 0.84632 0.0
H838 H 0.81968 0.05913 0.83817 0.0
H839 H 0.83163 0.05593 0.87416 0.0
H840 H 0.7606 0.12598 0.83666 0.0
H841 H 0.78641 0.11735 0.92319 0.0
H842 H 0.72066 0.05379 0.81207 0.0
H843 H 0.76547 0.06141 0.80558 0.0
H844 H 0.73516 0.087 0.80177 0.0
H845 H 0.75013 0.0444 0.91546 0.0
H846 H 0.7762 0.07381 0.93879 0.0
H847 H 0.79695 0.04997 0.91503 0.0
C848 C 0.73862 0.64722 0.38262 0.0
C849 C 0.7292 0.61868 0.37084 0.0
C850 C 0.74778 0.65557 0.41183 0.0
C851 C 0.74747 0.63482 0.42945 0.0
C852 C 0.74125 0.60587 0.41731 0.0
C853 C 0.73212 0.59814 0.38809 0.0
C854 C 0.75462 0.68664 0.42396 0.0
C855 C 0.74098 0.58307 0.43534 0.0
C856 C 0.77702 0.65267 0.50839 0.0
C857 C 0.74441 0.65425 0.51893 0.0
C858 C 0.77878 0.64716 0.47917 0.0
C859 C 0.7472 0.64319 0.4603 0.0
C860 C 0.71439 0.64567 0.47091 0.0
C861 C 0.71343 0.65114 0.50007 0.0
C862 C 0.81419 0.64476 0.46855 0.0
C863 C 0.68007 0.64173 0.45149 0.0
H864 H 0.73666 0.66318 0.36931 0.0
H865 H 0.72529 0.57601 0.37901 0.0
H866 H 0.73092 0.69337 0.43322 0.0
H867 H 0.77706 0.691 0.44109 0.0
H868 H 0.7604 0.69964 0.4076 0.0
H869 H 0.74104 0.56182 0.42262 0.0
H870 H 0.76419 0.5873 0.45177 0.0
H871 H 0.71691 0.58283 0.44627 0.0
H872 H 0.80104 0.65511 0.52295 0.0
H873 H 0.68818 0.65254 0.5081 0.0
H874 H 0.81763 0.65794 0.452 0.0
H875 H 0.81549 0.62259 0.45878 0.0
H876 H 0.83648 0.65127 0.48573 0.0
H877 H 0.68154 0.65636 0.43603 0.0
H878 H 0.65703 0.64551 0.46314 0.0
H879 H 0.67538 0.61991 0.43939 0.0
C880 C 0.36336 0.69949 0.61832 0.0
C881 C 0.35638 0.67007 0.61571 0.0
C882 C 0.36241 0.71254 0.59436 0.0
C883 C 0.35447 0.6957 0.56727 0.0
C884 C 0.34707 0.666 0.56458 0.0
C885 C 0.34804 0.65357 0.58885 0.0
C886 C 0.37023 0.74424 0.59798 0.0
C887 C 0.33857 0.6473 0.53601 0.0
C888 C 0.32117 0.72164 0.50088 0.0
C889 C 0.35114 0.72145 0.48655 0.0
C890 C 0.32248 0.71536 0.52827 0.0
C891 C 0.3545 0.70869 0.54146 0.0
C892 C 0.38553 0.7109 0.52803 0.0
C893 C 0.38349 0.71734 0.5007 0.0
C894 C 0.28894 0.71361 0.54209 0.0
C895 C 0.42023 0.70412 0.54148 0.0
H896 H 0.36978 0.71233 0.63909 0.0
H897 H 0.34265 0.63082 0.58675 0.0
H898 H 0.39411 0.74997 0.58797 0.0
H899 H 0.34802 0.75304 0.58723 0.0
H900 H 0.37467 0.75438 0.62053 0.0
H901 H 0.3331 0.62463 0.53761 0.0
H902 H 0.31515 0.65354 0.52416 0.0
H903 H 0.36102 0.64992 0.52351 0.0
H904 H 0.29614 0.725 0.4901 0.0
H905 H 0.40681 0.71734 0.48977 0.0
H906 H 0.29405 0.72396 0.56453 0.0
H907 H 0.279 0.69113 0.54161 0.0
H908 H 0.26791 0.72358 0.53119 0.0
H909 H 0.42574 0.71473 0.56381 0.0
H910 H 0.4427 0.71055 0.53015 0.0
H911 H 0.41872 0.68104 0.54129 0.0
C912 C 0.24668 0.3851 0.43938 0.0
C913 C 0.23024 0.37064 0.41312 0.0
C914 C 0.2458 0.37268 0.46357 0.0
C915 C 0.22789 0.34516 0.46143 0.0
C916 C 0.20868 0.33143 0.43546 0.0
C917 C 0.21015 0.34435 0.41148 0.0
C918 C 0.26637 0.38821 0.49093 0.0
C919 C 0.1887 0.30233 0.43251 0.0
C920 C 0.2734 0.30657 0.51387 0.0
C921 C 0.25418 0.31218 0.53679 0.0
C922 C 0.2634 0.31532 0.48826 0.0
C923 C 0.23333 0.32986 0.48553 0.0
C924 C 0.212 0.33325 0.50772 0.0
C925 C 0.22277 0.32444 0.53321 0.0
C926 C 0.28675 0.3111 0.465 0.0
C927 C 0.17938 0.34812 0.50541 0.0
H928 H 0.26193 0.40557 0.44079 0.0
H929 H 0.19726 0.33314 0.39121 0.0
H930 H 0.24969 0.38845 0.50836 0.0
H931 H 0.28938 0.37712 0.49645 0.0
H932 H 0.27625 0.41033 0.48962 0.0
H933 H 0.16974 0.29704 0.41292 0.0
H934 H 0.20768 0.28649 0.43179 0.0
H935 H 0.17405 0.30049 0.45089 0.0
H936 H 0.29752 0.29687 0.51645 0.0
H937 H 0.2076 0.32858 0.55081 0.0
H938 H 0.30078 0.33178 0.46288 0.0
H939 H 0.27065 0.30228 0.44451 0.0
H940 H 0.30678 0.29676 0.46921 0.0
H941 H 0.18734 0.37121 0.50814 0.0
H942 H 0.1621 0.34403 0.52177 0.0
H943 H 0.1639 0.34141 0.48428 0.0
C944 C 0.65777 0.29421 0.46769 0.0
C945 C 0.67604 0.30927 0.45005 0.0
C946 C 0.66658 0.3003 0.49705 0.0
C947 C 0.69441 0.32183 0.50889 0.0
C948 C 0.71474 0.3355 0.49103 0.0
C949 C 0.7052 0.32911 0.46175 0.0
C950 C 0.64427 0.28525 0.5154 0.0
C951 C 0.74486 0.35835 0.50286 0.0
C952 C 0.68142 0.36492 0.57855 0.0
C953 C 0.70319 0.35361 0.59784 0.0
C954 C 0.67875 0.35489 0.54958 0.0
C955 C 0.69849 0.33304 0.53958 0.0
C956 C 0.72106 0.32182 0.55885 0.0
C957 C 0.7231 0.33222 0.58788 0.0
C958 C 0.65433 0.36744 0.52972 0.0
C959 C 0.7426 0.29863 0.54882 0.0
H960 H 0.63535 0.27869 0.45871 0.0
H961 H 0.71964 0.34059 0.44813 0.0
H962 H 0.66121 0.27832 0.53236 0.0
H963 H 0.62727 0.29999 0.52569 0.0
H964 H 0.62699 0.26655 0.50308 0.0
H965 H 0.7614 0.36361 0.48641 0.0
H966 H 0.73408 0.37773 0.51199 0.0
H967 H 0.76191 0.35187 0.52006 0.0
H968 H 0.666 0.38148 0.58613 0.0
H969 H 0.74 0.32346 0.60276 0.0
H970 H 0.63362 0.35077 0.51796 0.0
H971 H 0.66934 0.37615 0.51397 0.0
H972 H 0.64118 0.38454 0.54094 0.0
H973 H 0.72473 0.27943 0.5385 0.0
H974 H 0.76015 0.29314 0.56637 0.0
H975 H 0.75904 0.3051 0.53282 0.0
C976 C 0.64161 0.65099 0.66886 0.0
C977 C 0.64115 0.6548 0.64068 0.0
C978 C 0.61013 0.64789 0.68113 0.0
C979 C 0.57758 0.64889 0.66486 0.0
C980 C 0.57706 0.65319 0.63653 0.0
C981 C 0.60887 0.65595 0.62474 0.0
C982 C 0.61162 0.6431 0.7113 0.0
C983 C 0.54284 0.65459 0.61856 0.0
C984 C 0.49007 0.61387 0.67931 0.0
C985 C 0.47414 0.63723 0.69059 0.0
C986 C 0.52476 0.61716 0.67255 0.0
C987 C 0.54372 0.64451 0.67687 0.0
C988 C 0.52859 0.66794 0.68995 0.0
C989 C 0.49393 0.66398 0.69683 0.0
C990 C 0.54022 0.59159 0.6591 0.0
C991 C 0.54799 0.69743 0.69484 0.0
H992 H 0.66657 0.65007 0.68125 0.0
H993 H 0.60845 0.65905 0.603 0.0
H994 H 0.59694 0.62226 0.71206 0.0
H995 H 0.63916 0.64376 0.72135 0.0
H996 H 0.59859 0.65933 0.72392 0.0
H997 H 0.54715 0.65908 0.59726 0.0
H998 H 0.52554 0.63426 0.61606 0.0
H999 H 0.52848 0.67126 0.62906 0.0
H1000 H 0.47489 0.59312 0.67467 0.0
H1001 H 0.48164 0.68209 0.70551 0.0
H1002 H 0.56737 0.59119 0.66936 0.0
H1003 H 0.54206 0.59263 0.63653 0.0
H1004 H 0.5239 0.57156 0.66039 0.0
H1005 H 0.57539 0.6978 0.70497 0.0
H1006 H 0.53446 0.71273 0.70826 0.0
H1007 H 0.54977 0.70454 0.67426 0.0
C1008 C 0.34226 0.53125 0.70148 0.0
C1009 C 0.32679 0.54697 0.68262 0.0
C1010 C 0.33518 0.50173 0.69686 0.0
C1011 C 0.31198 0.48776 0.67291 0.0
C1012 C 0.29441 0.50369 0.65493 0.0
C1013 C 0.30214 0.53315 0.65996 0.0
C1014 C 0.35444 0.48545 0.71649 0.0
C1015 C 0.26926 0.48956 0.62931 0.0
C1016 C 0.33146 0.41643 0.63772 0.0
C1017 C 0.30581 0.39802 0.64649 0.0
C1018 C 0.33391 0.44561 0.64652 0.0
C1019 C 0.30993 0.45672 0.66442 0.0
C1020 C 0.28404 0.43828 0.67353 0.0
C1021 C 0.28234 0.40902 0.6645 0.0
C1022 C 0.36206 0.46457 0.63646 0.0
C1023 C 0.25799 0.44947 0.69252 0.0
H1024 H 0.3612 0.54188 0.71912 0.0
H1025 H 0.28985 0.54527 0.64548 0.0
H1026 H 0.33594 0.46876 0.72237 0.0
H1027 H 0.37478 0.47486 0.70558 0.0
H1028 H 0.36772 0.49935 0.73605 0.0
H1029 H 0.2543 0.50486 0.61972 0.0
H1030 H 0.28438 0.47899 0.61321 0.0
H1031 H 0.25019 0.47307 0.63489 0.0
H1032 H 0.34978 0.40802 0.6239 0.0
H1033 H 0.26247 0.3948 0.6713 0.0
H1034 H 0.37905 0.47773 0.6548 0.0
H1035 H 0.34954 0.47912 0.62405 0.0
H1036 H 0.37914 0.45248 0.62312 0.0
H1037 H 0.27228 0.4625 0.71216 0.0
H1038 H 0.24002 0.43229 0.69824 0.0
H1039 H 0.24181 0.46336 0.68187 0.0
C1040 C 0.56974 0.3744 0.67873 0.0
C1041 C 0.59439 0.35506 0.68012 0.0
C1042 C 0.53346 0.36515 0.67239 0.0
C1043 C 0.52157 0.33586 0.66753 0.0
C1044 C 0.54623 0.31629 0.66997 0.0
C1045 C 0.58241 0.32613 0.67614 0.0
C1046 C 0.50795 0.38667 0.66991 0.0
C1047 C 0.53451 0.28493 0.66521 0.0
C1048 C 0.42357 0.31659 0.67019 0.0
C1049 C 0.41025 0.31254 0.64154 0.0
C1050 C 0.45997 0.3231 0.67894 0.0
C1051 C 0.48349 0.32581 0.65855 0.0
C1052 C 0.4703 0.3206 0.62952 0.0
C1053 C 0.43381 0.31391 0.62135 0.0
C1054 C 0.4731 0.32818 0.71006 0.0
C1055 C 0.49456 0.32332 0.60713 0.0
H1056 H 0.57888 0.39678 0.68174 0.0
H1057 H 0.60138 0.31109 0.67725 0.0
H1058 H 0.49458 0.38345 0.64797 0.0
H1059 H 0.48714 0.38394 0.68391 0.0
H1060 H 0.5213 0.40868 0.67546 0.0
H1061 H 0.55667 0.27268 0.66997 0.0
H1062 H 0.51354 0.28019 0.67856 0.0
H1063 H 0.52303 0.27762 0.64291 0.0
H1064 H 0.40545 0.31547 0.68588 0.0
H1065 H 0.42365 0.31082 0.59919 0.0
H1066 H 0.48364 0.35074 0.71709 0.0
H1067 H 0.49507 0.31558 0.71419 0.0
H1068 H 0.45189 0.32273 0.72298 0.0
H1069 H 0.50681 0.34553 0.60957 0.0
H1070 H 0.4804 0.31695 0.58546 0.0
H1071 H 0.51629 0.31012 0.60961 0.0
C1072 C 0.78839 0.59147 0.65487 0.0
C1073 C 0.7685 0.59006 0.62856 0.0
C1074 C 0.79019 0.56722 0.66733 0.0
C1075 C 0.7716 0.54118 0.65309 0.0
C1076 C 0.75384 0.53934 0.62559 0.0
C1077 C 0.75254 0.56382 0.61367 0.0
C1078 C 0.80988 0.56989 0.69647 0.0
C1079 C 0.73397 0.51192 0.60951 0.0
C1080 C 0.77885 0.469 0.67244 0.0
C1081 C 0.74739 0.46441 0.68442 0.0
C1082 C 0.78886 0.49492 0.66412 0.0
C1083 C 0.76674 0.51655 0.66779 0.0
C1084 C 0.73656 0.51279 0.68204 0.0
C1085 C 0.72729 0.48675 0.69023 0.0
C1086 C 0.82157 0.49831 0.64948 0.0
C1087 C 0.71238 0.53542 0.68656 0.0
H1088 H 0.80085 0.61174 0.66643 0.0
H1089 H 0.73744 0.56259 0.59319 0.0
H1090 H 0.79066 0.56968 0.71211 0.0
H1091 H 0.82519 0.55183 0.69798 0.0
H1092 H 0.82821 0.58983 0.70232 0.0
H1093 H 0.72419 0.51356 0.58746 0.0
H1094 H 0.75112 0.49479 0.60901 0.0
H1095 H 0.71095 0.50572 0.62032 0.0
H1096 H 0.79468 0.45185 0.66811 0.0
H1097 H 0.70312 0.4834 0.69973 0.0
H1098 H 0.83649 0.51959 0.65671 0.0
H1099 H 0.81374 0.49605 0.62643 0.0
H1100 H 0.83931 0.48216 0.65318 0.0
H1101 H 0.72786 0.55609 0.69576 0.0
H1102 H 0.69237 0.53045 0.70068 0.0
H1103 H 0.69831 0.53765 0.66594 0.0
C1104 C 0.3582 0.33169 0.35358 0.0
C1105 C 0.35797 0.35891 0.34704 0.0
C1106 C 0.38982 0.31958 0.35642 0.0
C1107 C 0.42179 0.33503 0.35241 0.0
C1108 C 0.42157 0.36234 0.34533 0.0
C1109 C 0.38965 0.374 0.34285 0.0
C1110 C 0.38912 0.29051 0.36418 0.0
C1111 C 0.45514 0.37939 0.3407 0.0
C1112 C 0.51089 0.3223 0.3861 0.0
C1113 C 0.52484 0.30819 0.36294 0.0
C1114 C 0.47655 0.32983 0.38329 0.0
C1115 C 0.45585 0.3233 0.35661 0.0
C1116 C 0.4691 0.30772 0.3335 0.0
C1117 C 0.50348 0.30022 0.33699 0.0
C1118 C 0.46316 0.34609 0.40853 0.0
C1119 C 0.44778 0.30042 0.30473 0.0
H1120 H 0.33372 0.31996 0.35685 0.0
H1121 H 0.38954 0.39499 0.33765 0.0
H1122 H 0.40094 0.27636 0.34834 0.0
H1123 H 0.40531 0.2917 0.38481 0.0
H1124 H 0.36189 0.2809 0.36562 0.0
H1125 H 0.45021 0.39984 0.33426 0.0
H1126 H 0.47388 0.38374 0.36038 0.0
H1127 H 0.46819 0.36722 0.32417 0.0
H1128 H 0.52727 0.32833 0.40626 0.0
H1129 H 0.51422 0.28934 0.31902 0.0
H1130 H 0.43646 0.33639 0.41123 0.0
H1131 H 0.46079 0.36801 0.40512 0.0
H1132 H 0.48102 0.34696 0.42834 0.0
H1133 H 0.42075 0.2906 0.3063 0.0
H1134 H 0.46031 0.28579 0.28978 0.0
H1135 H 0.44508 0.32001 0.29587 0.0
C1136 C 0.6379 0.37673 0.30199 0.0
C1137 C 0.64842 0.37758 0.33078 0.0
C1138 C 0.64003 0.4015 0.29022 0.0
C1139 C 0.65285 0.42762 0.30775 0.0
C1140 C 0.66435 0.42846 0.33668 0.0
C1141 C 0.66203 0.4034 0.34784 0.0
C1142 C 0.62771 0.39983 0.25927 0.0
C1143 C 0.67817 0.45595 0.35607 0.0
C1144 C 0.68433 0.49407 0.28062 0.0
C1145 C 0.65584 0.50966 0.28446 0.0
C1146 C 0.683 0.4665 0.28652 0.0
C1147 C 0.65249 0.45444 0.2965 0.0
C1148 C 0.62279 0.46941 0.29855 0.0
C1149 C 0.62482 0.49685 0.29246 0.0
C1150 C 0.71504 0.45104 0.28381 0.0
C1151 C 0.58969 0.4572 0.30898 0.0
H1152 H 0.62744 0.35677 0.2887 0.0
H1153 H 0.67027 0.40413 0.37009 0.0
H1154 H 0.60396 0.41093 0.2568 0.0
H1155 H 0.64844 0.41057 0.24892 0.0
H1156 H 0.62102 0.37769 0.24811 0.0
H1157 H 0.68741 0.45281 0.37776 0.0
H1158 H 0.70043 0.46702 0.34757 0.0
H1159 H 0.65705 0.46999 0.3573 0.0
H1160 H 0.70833 0.50386 0.27434 0.0
H1161 H 0.60263 0.50877 0.29528 0.0
H1162 H 0.70721 0.42903 0.27271 0.0
H1163 H 0.72805 0.45002 0.30514 0.0
H1164 H 0.73461 0.46163 0.27226 0.0
H1165 H 0.58072 0.43554 0.29736 0.0
H1166 H 0.56777 0.4703 0.30662 0.0
H1167 H 0.59545 0.45573 0.33162 0.0
C1168 C 0.54817 0.62437 0.29842 0.0
C1169 C 0.58202 0.63541 0.3119 0.0
C1170 C 0.51798 0.63489 0.30799 0.0
C1171 C 0.52184 0.65686 0.33164 0.0
C1172 C 0.55602 0.66864 0.34477 0.0
C1173 C 0.58571 0.6578 0.33469 0.0
C1174 C 0.48194 0.62192 0.29336 0.0
C1175 C 0.56119 0.69204 0.37007 0.0
C1176 C 0.44454 0.69789 0.34645 0.0
C1177 C 0.43023 0.68441 0.36707 0.0
C1178 C 0.47433 0.6891 0.33459 0.0
C1179 C 0.49013 0.66639 0.3437 0.0
C1180 C 0.47586 0.65282 0.36462 0.0
C1181 C 0.44604 0.66197 0.37602 0.0
C1182 C 0.48881 0.70402 0.31229 0.0
C1183 C 0.49208 0.62859 0.37496 0.0
H1184 H 0.54521 0.60709 0.28076 0.0
H1185 H 0.61184 0.66643 0.34518 0.0
H1186 H 0.46725 0.61111 0.30802 0.0
H1187 H 0.46636 0.63859 0.28732 0.0
H1188 H 0.48355 0.60635 0.27415 0.0
H1189 H 0.58953 0.69997 0.37683 0.0
H1190 H 0.54707 0.70992 0.36527 0.0
H1191 H 0.54977 0.68427 0.38799 0.0
H1192 H 0.43233 0.7152 0.33942 0.0
H1193 H 0.43505 0.65146 0.39194 0.0
H1194 H 0.48868 0.68871 0.29259 0.0
H1195 H 0.51667 0.71315 0.31937 0.0
H1196 H 0.47334 0.72121 0.30743 0.0
H1197 H 0.49197 0.6111 0.35707 0.0
H1198 H 0.47778 0.62034 0.39137 0.0
H1199 H 0.52005 0.6355 0.38387 0.0
C1200 C 0.22571 0.49224 0.34348 0.0
C1201 C 0.25755 0.48118 0.34927 0.0
C1202 C 0.22478 0.52157 0.34688 0.0
C1203 C 0.25639 0.54002 0.35635 0.0
C1204 C 0.28854 0.52885 0.36212 0.0
C1205 C 0.2887 0.49962 0.35848 0.0
C1206 C 0.19011 0.53282 0.34048 0.0
C1207 C 0.32289 0.5478 0.37231 0.0
C1208 C 0.2761 0.61536 0.34587 0.0
C1209 C 0.27698 0.62971 0.37352 0.0
C1210 C 0.26592 0.58615 0.33916 0.0
C1211 C 0.2566 0.57111 0.36069 0.0
C1212 C 0.25411 0.58596 0.38795 0.0
C1213 C 0.26432 0.61517 0.39404 0.0
C1214 C 0.26848 0.57111 0.30975 0.0
C1215 C 0.24408 0.57073 0.41145 0.0
H1216 H 0.20158 0.47801 0.33632 0.0
H1217 H 0.31339 0.49119 0.36298 0.0
H1218 H 0.18349 0.54602 0.3597 0.0
H1219 H 0.19236 0.54656 0.32427 0.0
H1220 H 0.16802 0.51566 0.33279 0.0
H1221 H 0.34556 0.53567 0.37578 0.0
H1222 H 0.32885 0.56158 0.35669 0.0
H1223 H 0.32054 0.56172 0.39242 0.0
H1224 H 0.28546 0.62659 0.32984 0.0
H1225 H 0.26456 0.62625 0.41539 0.0
H1226 H 0.24572 0.55452 0.30244 0.0
H1227 H 0.29288 0.56061 0.30986 0.0
H1228 H 0.26952 0.58593 0.29441 0.0
H1229 H 0.22127 0.55425 0.40389 0.0
H1230 H 0.23736 0.58543 0.42966 0.0
H1231 H 0.26664 0.56005 0.41892 0.0
loop_
_geom_bond_atom_site_label_1
_geom_bond_atom_site_label_2
_geom_bond_distance
_geom_bond_site_symmetry_2
_ccdc_geom_bond_type
In0 O1 2.294 . S
In0 O2 2.326 . S
In0 O6 2.266 . S
In0 O7 2.326 . S
In0 O8 2.266 . S
In0 O9 2.326 . S
In0 O11 2.294 . S
In0 O12 2.326 . S
O1 In0 2.294 . S
O1 C10 1.240 . S
O2 In0 2.326 . S
O2 C10 1.252 . S
C3 O6 1.252 . S
C3 O7 1.260 . S
C4 O11 1.240 . S
C4 O12 1.252 . S
C5 O8 1.252 . S
C5 O9 1.260 . S
O6 In0 2.266 . S
O6 C3 1.252 . S
O7 In0 2.326 . S
O7 C3 1.260 . S
O8 In0 2.266 . S
O8 C5 1.252 . S
O9 In0 2.326 . S
O9 C5 1.260 . S
C10 O1 1.240 . S
C10 O2 1.252 . S
O11 In0 2.294 . S
O11 C4 1.240 . S
O12 In0 2.326 . S
O12 C4 1.252 . S
In13 O14 2.294 . S
In13 O15 2.326 . S
In13 O19 2.266 . S
In13 O20 2.326 . S
In13 O21 2.266 . S
In13 O22 2.326 . S
In13 O24 2.294 . S
In13 O25 2.326 . S
O14 In13 2.294 . S
O14 C23 1.240 . S
O15 In13 2.326 . S
O15 C23 1.252 . S
C16 O19 1.252 . S
C16 O20 1.260 . S
C17 O24 1.240 . S
C17 O25 1.252 . S
C18 O21 1.252 . S
C18 O22 1.260 . S
O19 In13 2.266 . S
O19 C16 1.252 . S
O20 In13 2.326 . S
O20 C16 1.260 . S
O21 In13 2.266 . S
O21 C18 1.252 . S
O22 In13 2.326 . S
O22 C18 1.260 . S
C23 O14 1.240 . S
C23 O15 1.252 . S
O24 In13 2.294 . S
O24 C17 1.240 . S
O25 In13 2.326 . S
O25 C17 1.252 . S
In26 O27 2.294 . S
In26 O28 2.326 . S
In26 O32 2.266 . S
In26 O33 2.326 . S
In26 O34 2.266 . S
In26 O35 2.326 . S
In26 O37 2.294 . S
In26 O38 2.326 . S
O27 In26 2.294 . S
O27 C36 1.240 . S
O28 In26 2.326 . S
O28 C36 1.252 . S
C29 O32 1.252 . S
C29 O33 1.260 . S
C30 O37 1.240 . S
C30 O38 1.252 . S
C31 O34 1.252 . S
C31 O35 1.260 . S
O32 In26 2.266 . S
O32 C29 1.252 . S
O33 In26 2.326 . S
O33 C29 1.260 . S
O34 In26 2.266 . S
O34 C31 1.252 . S
O35 In26 2.326 . S
O35 C31 1.260 . S
C36 O27 1.240 . S
C36 O28 1.252 . S
O37 In26 2.294 . S
O37 C30 1.240 . S
O38 In26 2.326 . S
O38 C30 1.252 . S
In39 O40 2.294 . S
In39 O41 2.326 . S
In39 O45 2.266 . S
In39 O46 2.326 . S
In39 O47 2.266 . S
In39 O48 2.326 . S
In39 O50 2.294 . S
In39 O51 2.326 . S
O40 In39 2.294 . S
O40 C49 1.240 . S
O41 In39 2.326 . S
O41 C49 1.252 . S
C42 O45 1.252 . S
C42 O46 1.260 . S
C43 O50 1.240 . S
C43 O51 1.252 . S
C44 O47 1.252 . S
C44 O48 1.260 . S
O45 In39 2.266 . S
O45 C42 1.252 . S
O46 In39 2.326 . S
O46 C42 1.260 . S
O47 In39 2.266 . S
O47 C44 1.252 . S
O48 In39 2.326 . S
O48 C44 1.260 . S
C49 O40 1.240 . S
C49 O41 1.252 . S
O50 In39 2.294 . S
O50 C43 1.240 . S
O51 In39 2.326 . S
O51 C43 1.252 . S
In52 O53 2.294 . S
In52 O54 2.326 . S
In52 O58 2.266 . S
In52 O59 2.326 . S
In52 O60 2.266 . S
In52 O61 2.326 . S
In52 O63 2.294 . S
In52 O64 2.326 . S
O53 In52 2.294 . S
O53 C62 1.240 . S
O54 In52 2.326 . S
O54 C62 1.252 . S
C55 O58 1.252 . S
C55 O59 1.260 . S
C56 O63 1.240 . S
C56 O64 1.252 . S
C57 O60 1.252 . S
C57 O61 1.260 . S
O58 In52 2.266 . S
O58 C55 1.252 . S
O59 In52 2.326 . S
O59 C55 1.260 . S
O60 In52 2.266 . S
O60 C57 1.252 . S
O61 In52 2.326 . S
O61 C57 1.260 . S
C62 O53 1.240 . S
C62 O54 1.252 . S
O63 In52 2.294 . S
O63 C56 1.240 . S
O64 In52 2.326 . S
O64 C56 1.252 . S
In65 O66 2.294 . S
In65 O67 2.326 . S
In65 O71 2.266 . S
In65 O72 2.326 . S
In65 O73 2.266 . S
In65 O74 2.326 . S
In65 O76 2.294 . S
In65 O77 2.326 . S
O66 In65 2.294 . S
O66 C75 1.240 . S
O67 In65 2.326 . S
O67 C75 1.252 . S
C68 O71 1.252 . S
C68 O72 1.260 . S
C69 O76 1.240 . S
C69 O77 1.252 . S
C70 O73 1.252 . S
C70 O74 1.260 . S
O71 In65 2.266 . S
O71 C68 1.252 . S
O72 In65 2.326 . S
O72 C68 1.260 . S
O73 In65 2.266 . S
O73 C70 1.252 . S
O74 In65 2.326 . S
O74 C70 1.260 . S
C75 O66 1.240 . S
C75 O67 1.252 . S
O76 In65 2.294 . S
O76 C69 1.240 . S
O77 In65 2.326 . S
O77 C69 1.252 . S
In78 O79 2.294 . S
In78 O80 2.326 . S
In78 O84 2.266 . S
In78 O85 2.326 . S
In78 O86 2.266 . S
In78 O87 2.326 . S
In78 O89 2.294 . S
In78 O90 2.326 . S
O79 In78 2.294 . S
O79 C88 1.240 . S
O80 In78 2.326 . S
O80 C88 1.252 . S
C81 O84 1.252 . S
C81 O85 1.260 . S
C82 O89 1.240 . S
C82 O90 1.252 . S
C83 O86 1.252 . S
C83 O87 1.260 . S
O84 In78 2.266 . S
O84 C81 1.252 . S
O85 In78 2.326 . S
O85 C81 1.260 . S
O86 In78 2.266 . S
O86 C83 1.252 . S
O87 In78 2.326 . S
O87 C83 1.260 . S
C88 O79 1.240 . S
C88 O80 1.252 . S
O89 In78 2.294 . S
O89 C82 1.240 . S
O90 In78 2.326 . S
O90 C82 1.252 . S
In91 O92 2.294 . S
In91 O93 2.326 . S
In91 O97 2.266 . S
In91 O98 2.326 . S
In91 O99 2.266 . S
In91 O100 2.326 . S
In91 O102 2.294 . S
In91 O103 2.326 . S
O92 In91 2.294 . S
O92 C101 1.240 . S
O93 In91 2.326 . S
O93 C101 1.252 . S
C94 O97 1.252 . S
C94 O98 1.260 . S
C95 O102 1.240 . S
C95 O103 1.252 . S
C96 O99 1.252 . S
C96 O100 1.260 . S
O97 In91 2.266 . S
O97 C94 1.252 . S
O98 In91 2.326 . S
O98 C94 1.260 . S
O99 In91 2.266 . S
O99 C96 1.252 . S
O100 In91 2.326 . S
O100 C96 1.260 . S
C101 O92 1.240 . S
C101 O93 1.252 . S
O102 In91 2.294 . S
O102 C95 1.240 . S
O103 In91 2.326 . S
O103 C95 1.252 . S
In104 O105 2.294 . S
In104 O106 2.326 . S
In104 O110 2.266 . S
In104 O111 2.326 . S
In104 O112 2.266 . S
In104 O113 2.326 . S
In104 O115 2.294 . S
In104 O116 2.326 . S
O105 In104 2.294 . S
O105 C114 1.240 . S
O106 In104 2.326 . S
O106 C114 1.252 . S
C107 O110 1.252 . S
C107 O111 1.260 . S
C108 O115 1.240 . S
C108 O116 1.252 . S
C109 O112 1.252 . S
C109 O113 1.260 . S
O110 In104 2.266 . S
O110 C107 1.252 . S
O111 In104 2.326 . S
O111 C107 1.260 . S
O112 In104 2.266 . S
O112 C109 1.252 . S
O113 In104 2.326 . S
O113 C109 1.260 . S
C114 O105 1.240 . S
C114 O106 1.252 . S
O115 In104 2.294 . S
O115 C108 1.240 . S
O116 In104 2.326 . S
O116 C108 1.252 . S
In117 O118 2.294 . S
In117 O119 2.326 . S
In117 O123 2.266 . S
In117 O124 2.326 . S
In117 O125 2.266 . S
In117 O126 2.326 . S
In117 O128 2.294 . S
In117 O129 2.326 . S
O118 In117 2.294 . S
O118 C127 1.240 . S
O119 In117 2.326 . S
O119 C127 1.252 . S
C120 O123 1.252 . S
C120 O124 1.260 . S
C121 O128 1.240 . S
C121 O129 1.252 . S
C122 O125 1.252 . S
C122 O126 1.260 . S
O123 In117 2.266 . S
O123 C120 1.252 . S
O124 In117 2.326 . S
O124 C120 1.260 . S
O125 In117 2.266 . S
O125 C122 1.252 . S
O126 In117 2.326 . S
O126 C122 1.260 . S
C127 O118 1.240 . S
C127 O119 1.252 . S
O128 In117 2.294 . S
O128 C121 1.240 . S
O129 In117 2.326 . S
O129 C121 1.252 . S
In130 O131 2.294 . S
In130 O132 2.326 . S
In130 O136 2.266 . S
In130 O137 2.326 . S
In130 O138 2.266 . S
In130 O139 2.326 . S
In130 O141 2.294 . S
In130 O142 2.326 . S
O131 In130 2.294 . S
O131 C140 1.240 . S
O132 In130 2.326 . S
O132 C140 1.252 . S
C133 O136 1.252 . S
C133 O137 1.260 . S
C134 O141 1.240 . S
C134 O142 1.252 . S
C135 O138 1.252 . S
C135 O139 1.260 . S
O136 In130 2.266 . S
O136 C133 1.252 . S
O137 In130 2.326 . S
O137 C133 1.260 . S
O138 In130 2.266 . S
O138 C135 1.252 . S
O139 In130 2.326 . S
O139 C135 1.260 . S
C140 O131 1.240 . S
C140 O132 1.252 . S
O141 In130 2.294 . S
O141 C134 1.240 . S
O142 In130 2.326 . S
O142 C134 1.252 . S
In143 O144 2.294 . S
In143 O145 2.326 . S
In143 O149 2.266 . S
In143 O150 2.326 . S
In143 O151 2.266 . S
In143 O152 2.326 . S
In143 O154 2.294 . S
In143 O155 2.326 . S
O144 In143 2.294 . S
O144 C153 1.240 . S
O145 In143 2.326 . S
O145 C153 1.252 . S
C146 O149 1.252 . S
C146 O150 1.260 . S
C147 O154 1.240 . S
C147 O155 1.252 . S
C148 O151 1.252 . S
C148 O152 1.260 . S
O149 In143 2.266 . S
O149 C146 1.252 . S
O150 In143 2.326 . S
O150 C146 1.260 . S
O151 In143 2.266 . S
O151 C148 1.252 . S
O152 In143 2.326 . S
O152 C148 1.260 . S
C153 O144 1.240 . S
C153 O145 1.252 . S
O154 In143 2.294 . S
O154 C147 1.240 . S
O155 In143 2.326 . S
O155 C147 1.252 . S
In156 O157 2.294 . S
In156 O158 2.326 . S
In156 O162 2.266 . S
In156 O163 2.326 . S
In156 O164 2.266 . S
In156 O165 2.326 . S
In156 O167 2.294 . S
In156 O168 2.326 . S
O157 In156 2.294 . S
O157 C166 1.240 . S
O158 In156 2.326 . S
O158 C166 1.252 . S
C159 O162 1.252 . S
C159 O163 1.260 . S
C160 O167 1.240 . S
C160 O168 1.252 . S
C161 O164 1.252 . S
C161 O165 1.260 . S
O162 In156 2.266 . S
O162 C159 1.252 . S
O163 In156 2.326 . S
O163 C159 1.260 . S
O164 In156 2.266 . S
O164 C161 1.252 . S
O165 In156 2.326 . S
O165 C161 1.260 . S
C166 O157 1.240 . S
C166 O158 1.252 . S
O167 In156 2.294 . S
O167 C160 1.240 . S
O168 In156 2.326 . S
O168 C160 1.252 . S
In169 O170 2.294 . S
In169 O171 2.326 . S
In169 O175 2.266 . S
In169 O176 2.326 . S
In169 O177 2.266 . S
In169 O178 2.326 . S
In169 O180 2.294 . S
In169 O181 2.326 . S
O170 In169 2.294 . S
O170 C179 1.240 . S
O171 In169 2.326 . S
O171 C179 1.252 . S
C172 O175 1.252 . S
C172 O176 1.260 . S
C173 O180 1.240 . S
C173 O181 1.252 . S
C174 O177 1.252 . S
C174 O178 1.260 . S
O175 In169 2.266 . S
O175 C172 1.252 . S
O176 In169 2.326 . S
O176 C172 1.260 . S
O177 In169 2.266 . S
O177 C174 1.252 . S
O178 In169 2.326 . S
O178 C174 1.260 . S
C179 O170 1.240 . S
C179 O171 1.252 . S
O180 In169 2.294 . S
O180 C173 1.240 . S
O181 In169 2.326 . S
O181 C173 1.252 . S
In182 O183 2.294 . S
In182 O184 2.326 . S
In182 O188 2.266 . S
In182 O189 2.326 . S
In182 O190 2.266 . S
In182 O191 2.326 . S
In182 O193 2.294 . S
In182 O194 2.326 . S
O183 In182 2.294 . S
O183 C192 1.240 . S
O184 In182 2.326 . S
O184 C192 1.252 . S
C185 O188 1.252 . S
C185 O189 1.260 . S
C186 O193 1.240 . S
C186 O194 1.252 . S
C187 O190 1.252 . S
C187 O191 1.260 . S
O188 In182 2.266 . S
O188 C185 1.252 . S
O189 In182 2.326 . S
O189 C185 1.260 . S
O190 In182 2.266 . S
O190 C187 1.252 . S
O191 In182 2.326 . S
O191 C187 1.260 . S
C192 O183 1.240 . S
C192 O184 1.252 . S
O193 In182 2.294 . S
O193 C186 1.240 . S
O194 In182 2.326 . S
O194 C186 1.252 . S
In195 O196 2.294 . S
In195 O197 2.326 . S
In195 O201 2.266 . S
In195 O202 2.326 . S
In195 O203 2.266 . S
In195 O204 2.326 . S
In195 O206 2.294 . S
In195 O207 2.326 . S
O196 In195 2.294 . S
O196 C205 1.240 . S
O197 In195 2.326 . S
O197 C205 1.252 . S
C198 O201 1.252 . S
C198 O202 1.260 . S
C199 O206 1.240 . S
C199 O207 1.252 . S
C200 O203 1.252 . S
C200 O204 1.260 . S
O201 In195 2.266 . S
O201 C198 1.252 . S
O202 In195 2.326 . S
O202 C198 1.260 . S
O203 In195 2.266 . S
O203 C200 1.252 . S
O204 In195 2.326 . S
O204 C200 1.260 . S
C205 O196 1.240 . S
C205 O197 1.252 . S
O206 In195 2.294 . S
O206 C199 1.240 . S
O207 In195 2.326 . S
O207 C199 1.252 . S
C208 C209 1.391 . S
C208 C210 1.394 . S
C208 H224 0.931 . S
C209 C208 1.391 . S
C209 C213 1.376 . S
C210 C208 1.394 . S
C210 C211 1.369 . S
C210 C214 1.531 . S
C211 C210 1.369 . S
C211 C212 1.410 . S
C211 C219 1.503 . S
C212 C211 1.410 . S
C212 C213 1.392 . S
C212 C215 1.511 . S
C213 C209 1.376 . S
C213 C212 1.392 . S
C213 H225 0.929 . S
C214 C210 1.531 . S
C214 H226 0.960 . S
C214 H227 0.962 . S
C214 H228 0.960 . S
C215 C212 1.511 . S
C215 H229 0.961 . S
C215 H230 0.961 . S
C215 H231 0.961 . S
C216 C217 1.370 . S
C216 C218 1.363 . S
C216 H232 0.931 . S
C217 C216 1.370 . S
C217 C221 1.408 . S
C218 C216 1.363 . S
C218 C219 1.370 . S
C218 C222 1.524 . S
C219 C211 1.503 . S
C219 C218 1.370 . S
C219 C220 1.403 . S
C220 C219 1.403 . S
C220 C221 1.404 . S
C220 C223 1.539 . S
C221 C217 1.408 . S
C221 C220 1.404 . S
C221 H233 0.930 . S
C222 C218 1.524 . S
C222 H234 0.956 . S
C222 H235 0.961 . S
C222 H236 0.961 . S
C223 C220 1.539 . S
C223 H237 0.958 . S
C223 H238 0.961 . S
C223 H239 0.960 . S
H224 C208 0.931 . S
H225 C213 0.929 . S
H226 C214 0.960 . S
H227 C214 0.962 . S
H228 C214 0.960 . S
H229 C215 0.961 . S
H230 C215 0.961 . S
H231 C215 0.961 . S
H232 C216 0.931 . S
H233 C221 0.930 . S
H234 C222 0.956 . S
H235 C222 0.961 . S
H236 C222 0.961 . S
H237 C223 0.958 . S
H238 C223 0.961 . S
H239 C223 0.960 . S
C240 C241 1.391 . S
C240 C242 1.394 . S
C240 H256 0.931 . S
C241 C240 1.391 . S
C241 C245 1.376 . S
C242 C240 1.394 . S
C242 C243 1.369 . S
C242 C246 1.531 . S
C243 C242 1.369 . S
C243 C244 1.410 . S
C243 C251 1.503 . S
C244 C243 1.410 . S
C244 C245 1.392 . S
C244 C247 1.511 . S
C245 C241 1.376 . S
C245 C244 1.392 . S
C245 H257 0.929 . S
C246 C242 1.531 . S
C246 H258 0.960 . S
C246 H259 0.962 . S
C246 H260 0.960 . S
C247 C244 1.511 . S
C247 H261 0.961 . S
C247 H262 0.961 . S
C247 H263 0.961 . S
C248 C249 1.370 . S
C248 C250 1.363 . S
C248 H264 0.931 . S
C249 C248 1.370 . S
C249 C253 1.408 . S
C250 C248 1.363 . S
C250 C251 1.370 . S
C250 C254 1.524 . S
C251 C243 1.503 . S
C251 C250 1.370 . S
C251 C252 1.403 . S
C252 C251 1.403 . S
C252 C253 1.404 . S
C252 C255 1.539 . S
C253 C249 1.408 . S
C253 C252 1.404 . S
C253 H265 0.930 . S
C254 C250 1.524 . S
C254 H266 0.956 . S
C254 H267 0.961 . S
C254 H268 0.961 . S
C255 C252 1.539 . S
C255 H269 0.958 . S
C255 H270 0.961 . S
C255 H271 0.960 . S
H256 C240 0.931 . S
H257 C245 0.929 . S
H258 C246 0.960 . S
H259 C246 0.962 . S
H260 C246 0.960 . S
H261 C247 0.961 . S
H262 C247 0.961 . S
H263 C247 0.961 . S
H264 C248 0.931 . S
H265 C253 0.930 . S
H266 C254 0.956 . S
H267 C254 0.961 . S
H268 C254 0.961 . S
H269 C255 0.958 . S
H270 C255 0.961 . S
H271 C255 0.960 . S
C272 C273 1.391 . S
C272 C274 1.394 . S
C272 H288 0.931 . S
C273 C272 1.391 . S
C273 C277 1.376 . S
C274 C272 1.394 . S
C274 C275 1.369 . S
C274 C278 1.531 . S
C275 C274 1.369 . S
C275 C276 1.410 . S
C275 C283 1.503 . S
C276 C275 1.410 . S
C276 C277 1.392 . S
C276 C279 1.511 . S
C277 C273 1.376 . S
C277 C276 1.392 . S
C277 H289 0.929 . S
C278 C274 1.531 . S
C278 H290 0.960 . S
C278 H291 0.962 . S
C278 H292 0.960 . S
C279 C276 1.511 . S
C279 H293 0.961 . S
C279 H294 0.961 . S
C279 H295 0.961 . S
C280 C281 1.370 . S
C280 C282 1.363 . S
C280 H296 0.931 . S
C281 C280 1.370 . S
C281 C285 1.408 . S
C282 C280 1.363 . S
C282 C283 1.370 . S
C282 C286 1.524 . S
C283 C275 1.503 . S
C283 C282 1.370 . S
C283 C284 1.403 . S
C284 C283 1.403 . S
C284 C285 1.404 . S
C284 C287 1.539 . S
C285 C281 1.408 . S
C285 C284 1.404 . S
C285 H297 0.930 . S
C286 C282 1.524 . S
C286 H298 0.956 . S
C286 H299 0.961 . S
C286 H300 0.961 . S
C287 C284 1.539 . S
C287 H301 0.958 . S
C287 H302 0.961 . S
C287 H303 0.960 . S
H288 C272 0.931 . S
H289 C277 0.929 . S
H290 C278 0.960 . S
H291 C278 0.962 . S
H292 C278 0.960 . S
H293 C279 0.961 . S
H294 C279 0.961 . S
H295 C279 0.961 . S
H296 C280 0.931 . S
H297 C285 0.930 . S
H298 C286 0.956 . S
H299 C286 0.961 . S
H300 C286 0.961 . S
H301 C287 0.958 . S
H302 C287 0.961 . S
H303 C287 0.960 . S
C304 C305 1.391 . S
C304 C306 1.394 . S
C304 H320 0.931 . S
C305 C304 1.391 . S
C305 C309 1.376 . S
C306 C304 1.394 . S
C306 C307 1.369 . S
C306 C310 1.531 . S
C307 C306 1.369 . S
C307 C308 1.410 . S
C307 C315 1.503 . S
C308 C307 1.410 . S
C308 C309 1.392 . S
C308 C311 1.511 . S
C309 C305 1.376 . S
C309 C308 1.392 . S
C309 H321 0.929 . S
C310 C306 1.531 . S
C310 H322 0.960 . S
C310 H323 0.962 . S
C310 H324 0.960 . S
C311 C308 1.511 . S
C311 H325 0.961 . S
C311 H326 0.961 . S
C311 H327 0.961 . S
C312 C313 1.370 . S
C312 C314 1.363 . S
C312 H328 0.931 . S
C313 C312 1.370 . S
C313 C317 1.408 . S
C314 C312 1.363 . S
C314 C315 1.370 . S
C314 C318 1.524 . S
C315 C307 1.503 . S
C315 C314 1.370 . S
C315 C316 1.403 . S
C316 C315 1.403 . S
C316 C317 1.404 . S
C316 C319 1.539 . S
C317 C313 1.408 . S
C317 C316 1.404 . S
C317 H329 0.930 . S
C318 C314 1.524 . S
C318 H330 0.956 . S
C318 H331 0.961 . S
C318 H332 0.961 . S
C319 C316 1.539 . S
C319 H333 0.958 . S
C319 H334 0.961 . S
C319 H335 0.960 . S
H320 C304 0.931 . S
H321 C309 0.929 . S
H322 C310 0.960 . S
H323 C310 0.962 . S
H324 C310 0.960 . S
H325 C311 0.961 . S
H326 C311 0.961 . S
H327 C311 0.961 . S
H328 C312 0.931 . S
H329 C317 0.930 . S
H330 C318 0.956 . S
H331 C318 0.961 . S
H332 C318 0.961 . S
H333 C319 0.958 . S
H334 C319 0.961 . S
H335 C319 0.960 . S
C336 C337 1.391 . S
C336 C338 1.394 . S
C336 H352 0.931 . S
C337 C336 1.391 . S
C337 C341 1.376 . S
C338 C336 1.394 . S
C338 C339 1.369 . S
C338 C342 1.531 . S
C339 C338 1.369 . S
C339 C340 1.410 . S
C339 C347 1.503 . S
C340 C339 1.410 . S
C340 C341 1.392 . S
C340 C343 1.511 . S
C341 C337 1.376 . S
C341 C340 1.392 . S
C341 H353 0.929 . S
C342 C338 1.531 . S
C342 H354 0.960 . S
C342 H355 0.962 . S
C342 H356 0.960 . S
C343 C340 1.511 . S
C343 H357 0.961 . S
C343 H358 0.961 . S
C343 H359 0.961 . S
C344 C345 1.370 . S
C344 C346 1.363 . S
C344 H360 0.931 . S
C345 C344 1.370 . S
C345 C349 1.408 . S
C346 C344 1.363 . S
C346 C347 1.370 . S
C346 C350 1.524 . S
C347 C339 1.503 . S
C347 C346 1.370 . S
C347 C348 1.403 . S
C348 C347 1.403 . S
C348 C349 1.404 . S
C348 C351 1.539 . S
C349 C345 1.408 . S
C349 C348 1.404 . S
C349 H361 0.930 . S
C350 C346 1.524 . S
C350 H362 0.956 . S
C350 H363 0.961 . S
C350 H364 0.961 . S
C351 C348 1.539 . S
C351 H365 0.958 . S
C351 H366 0.961 . S
C351 H367 0.960 . S
H352 C336 0.931 . S
H353 C341 0.929 . S
H354 C342 0.960 . S
H355 C342 0.962 . S
H356 C342 0.960 . S
H357 C343 0.961 . S
H358 C343 0.961 . S
H359 C343 0.961 . S
H360 C344 0.931 . S
H361 C349 0.930 . S
H362 C350 0.956 . S
H363 C350 0.961 . S
H364 C350 0.961 . S
H365 C351 0.958 . S
H366 C351 0.961 . S
H367 C351 0.960 . S
C368 C369 1.391 . S
C368 C370 1.394 . S
C368 H384 0.931 . S
C369 C368 1.391 . S
C369 C373 1.376 . S
C370 C368 1.394 . S
C370 C371 1.369 . S
C370 C374 1.531 . S
C371 C370 1.369 . S
C371 C372 1.410 . S
C371 C379 1.503 . S
C372 C371 1.410 . S
C372 C373 1.392 . S
C372 C375 1.511 . S
C373 C369 1.376 . S
C373 C372 1.392 . S
C373 H385 0.929 . S
C374 C370 1.531 . S
C374 H386 0.960 . S
C374 H387 0.962 . S
C374 H388 0.960 . S
C375 C372 1.511 . S
C375 H389 0.961 . S
C375 H390 0.961 . S
C375 H391 0.961 . S
C376 C377 1.370 . S
C376 C378 1.363 . S
C376 H392 0.931 . S
C377 C376 1.370 . S
C377 C381 1.408 . S
C378 C376 1.363 . S
C378 C379 1.370 . S
C378 C382 1.524 . S
C379 C371 1.503 . S
C379 C378 1.370 . S
C379 C380 1.403 . S
C380 C379 1.403 . S
C380 C381 1.404 . S
C380 C383 1.539 . S
C381 C377 1.408 . S
C381 C380 1.404 . S
C381 H393 0.930 . S
C382 C378 1.524 . S
C382 H394 0.956 . S
C382 H395 0.961 . S
C382 H396 0.961 . S
C383 C380 1.539 . S
C383 H397 0.958 . S
C383 H398 0.961 . S
C383 H399 0.960 . S
H384 C368 0.931 . S
H385 C373 0.929 . S
H386 C374 0.960 . S
H387 C374 0.962 . S
H388 C374 0.960 . S
H389 C375 0.961 . S
H390 C375 0.961 . S
H391 C375 0.961 . S
H392 C376 0.931 . S
H393 C381 0.930 . S
H394 C382 0.956 . S
H395 C382 0.961 . S
H396 C382 0.961 . S
H397 C383 0.958 . S
H398 C383 0.961 . S
H399 C383 0.960 . S
C400 C401 1.391 . S
C400 C402 1.394 . S
C400 H416 0.931 . S
C401 C400 1.391 . S
C401 C405 1.376 . S
C402 C400 1.394 . S
C402 C403 1.369 . S
C402 C406 1.531 . S
C403 C402 1.369 . S
C403 C404 1.410 . S
C403 C411 1.503 . S
C404 C403 1.410 . S
C404 C405 1.392 . S
C404 C407 1.511 . S
C405 C401 1.376 . S
C405 C404 1.392 . S
C405 H417 0.929 . S
C406 C402 1.531 . S
C406 H418 0.960 . S
C406 H419 0.962 . S
C406 H420 0.960 . S
C407 C404 1.511 . S
C407 H421 0.961 . S
C407 H422 0.961 . S
C407 H423 0.961 . S
C408 C409 1.370 . S
C408 C410 1.363 . S
C408 H424 0.931 . S
C409 C408 1.370 . S
C409 C413 1.408 . S
C410 C408 1.363 . S
C410 C411 1.370 . S
C410 C414 1.524 . S
C411 C403 1.503 . S
C411 C410 1.370 . S
C411 C412 1.403 . S
C412 C411 1.403 . S
C412 C413 1.404 . S
C412 C415 1.539 . S
C413 C409 1.408 . S
C413 C412 1.404 . S
C413 H425 0.930 . S
C414 C410 1.524 . S
C414 H426 0.956 . S
C414 H427 0.961 . S
C414 H428 0.961 . S
C415 C412 1.539 . S
C415 H429 0.958 . S
C415 H430 0.961 . S
C415 H431 0.960 . S
H416 C400 0.931 . S
H417 C405 0.929 . S
H418 C406 0.960 . S
H419 C406 0.962 . S
H420 C406 0.960 . S
H421 C407 0.961 . S
H422 C407 0.961 . S
H423 C407 0.961 . S
H424 C408 0.931 . S
H425 C413 0.930 . S
H426 C414 0.956 . S
H427 C414 0.961 . S
H428 C414 0.961 . S
H429 C415 0.958 . S
H430 C415 0.961 . S
H431 C415 0.960 . S
C432 C433 1.391 . S
C432 C434 1.394 . S
C432 H448 0.931 . S
C433 C432 1.391 . S
C433 C437 1.376 . S
C434 C432 1.394 . S
C434 C435 1.369 . S
C434 C438 1.531 . S
C435 C434 1.369 . S
C435 C436 1.410 . S
C435 C443 1.503 . S
C436 C435 1.410 . S
C436 C437 1.392 . S
C436 C439 1.511 . S
C437 C433 1.376 . S
C437 C436 1.392 . S
C437 H449 0.929 . S
C438 C434 1.531 . S
C438 H450 0.960 . S
C438 H451 0.962 . S
C438 H452 0.960 . S
C439 C436 1.511 . S
C439 H453 0.961 . S
C439 H454 0.961 . S
C439 H455 0.961 . S
C440 C441 1.370 . S
C440 C442 1.363 . S
C440 H456 0.931 . S
C441 C440 1.370 . S
C441 C445 1.408 . S
C442 C440 1.363 . S
C442 C443 1.370 . S
C442 C446 1.524 . S
C443 C435 1.503 . S
C443 C442 1.370 . S
C443 C444 1.403 . S
C444 C443 1.403 . S
C444 C445 1.404 . S
C444 C447 1.539 . S
C445 C441 1.408 . S
C445 C444 1.404 . S
C445 H457 0.930 . S
C446 C442 1.524 . S
C446 H458 0.956 . S
C446 H459 0.961 . S
C446 H460 0.961 . S
C447 C444 1.539 . S
C447 H461 0.958 . S
C447 H462 0.961 . S
C447 H463 0.960 . S
H448 C432 0.931 . S
H449 C437 0.929 . S
H450 C438 0.960 . S
H451 C438 0.962 . S
H452 C438 0.960 . S
H453 C439 0.961 . S
H454 C439 0.961 . S
H455 C439 0.961 . S
H456 C440 0.931 . S
H457 C445 0.930 . S
H458 C446 0.956 . S
H459 C446 0.961 . S
H460 C446 0.961 . S
H461 C447 0.958 . S
H462 C447 0.961 . S
H463 C447 0.960 . S
C464 C465 1.391 . S
C464 C466 1.394 . S
C464 H480 0.931 . S
C465 C464 1.391 . S
C465 C469 1.376 . S
C466 C464 1.394 . S
C466 C467 1.369 . S
C466 C470 1.531 . S
C467 C466 1.369 . S
C467 C468 1.410 . S
C467 C475 1.503 . S
C468 C467 1.410 . S
C468 C469 1.392 . S
C468 C471 1.511 . S
C469 C465 1.376 . S
C469 C468 1.392 . S
C469 H481 0.929 . S
C470 C466 1.531 . S
C470 H482 0.960 . S
C470 H483 0.962 . S
C470 H484 0.960 . S
C471 C468 1.511 . S
C471 H485 0.961 . S
C471 H486 0.961 . S
C471 H487 0.961 . S
C472 C473 1.370 . S
C472 C474 1.363 . S
C472 H488 0.931 . S
C473 C472 1.370 . S
C473 C477 1.408 . S
C474 C472 1.363 . S
C474 C475 1.370 1_554 S
C474 C478 1.524 1_554 S
C475 C467 1.503 . S
C475 C474 1.370 1_556 S
C475 C476 1.403 . S
C476 C475 1.403 . S
C476 C477 1.404 1_556 S
C476 C479 1.539 . S
C477 C473 1.408 . S
C477 C476 1.404 1_554 S
C477 H489 0.930 . S
C478 C474 1.524 1_556 S
C478 H490 0.956 . S
C478 H491 0.961 . S
C478 H492 0.961 1_556 S
C479 C476 1.539 . S
C479 H493 0.958 . S
C479 H494 0.961 . S
C479 H495 0.960 . S
H480 C464 0.931 . S
H481 C469 0.929 . S
H482 C470 0.960 . S
H483 C470 0.962 . S
H484 C470 0.960 . S
H485 C471 0.961 . S
H486 C471 0.961 . S
H487 C471 0.961 . S
H488 C472 0.931 . S
H489 C477 0.930 . S
H490 C478 0.956 . S
H491 C478 0.961 . S
H492 C478 0.961 1_554 S
H493 C479 0.958 . S
H494 C479 0.961 . S
H495 C479 0.960 . S
C496 C497 1.391 . S
C496 C498 1.394 1_556 S
C496 H512 0.931 . S
C497 C496 1.391 . S
C497 C501 1.376 . S
C498 C496 1.394 1_554 S
C498 C499 1.369 . S
C498 C502 1.531 . S
C499 C498 1.369 . S
C499 C500 1.410 1_554 S
C499 C507 1.503 . S
C500 C499 1.410 1_556 S
C500 C501 1.392 . S
C500 C503 1.511 1_556 S
C501 C497 1.376 . S
C501 C500 1.392 . S
C501 H513 0.929 . S
C502 C498 1.531 . S
C502 H514 0.960 . S
C502 H515 0.962 . S
C502 H516 0.960 . S
C503 C500 1.511 1_554 S
C503 H517 0.961 1_554 S
C503 H518 0.961 . S
C503 H519 0.961 . S
C504 C505 1.370 . S
C504 C506 1.363 . S
C504 H520 0.931 . S
C505 C504 1.370 . S
C505 C509 1.408 . S
C506 C504 1.363 . S
C506 C507 1.370 . S
C506 C510 1.524 . S
C507 C499 1.503 . S
C507 C506 1.370 . S
C507 C508 1.403 . S
C508 C507 1.403 . S
C508 C509 1.404 . S
C508 C511 1.539 . S
C509 C505 1.408 . S
C509 C508 1.404 . S
C509 H521 0.930 . S
C510 C506 1.524 . S
C510 H522 0.956 . S
C510 H523 0.961 . S
C510 H524 0.961 . S
C511 C508 1.539 . S
C511 H525 0.958 . S
C511 H526 0.961 . S
C511 H527 0.960 . S
H512 C496 0.931 . S
H513 C501 0.929 . S
H514 C502 0.960 . S
H515 C502 0.962 . S
H516 C502 0.960 . S
H517 C503 0.961 1_556 S
H518 C503 0.961 . S
H519 C503 0.961 . S
H520 C504 0.931 . S
H521 C509 0.930 . S
H522 C510 0.956 . S
H523 C510 0.961 . S
H524 C510 0.961 . S
H525 C511 0.958 . S
H526 C511 0.961 . S
H527 C511 0.960 . S
C528 C529 1.391 . S
C528 C530 1.394 . S
C528 H544 0.931 . S
C529 C528 1.391 . S
C529 C533 1.376 . S
C530 C528 1.394 . S
C530 C531 1.369 1_556 S
C530 C534 1.531 1_556 S
C531 C530 1.369 1_554 S
C531 C532 1.410 1_554 S
C531 C539 1.503 . S
C532 C531 1.410 1_556 S
C532 C533 1.392 . S
C532 C535 1.511 1_556 S
C533 C529 1.376 . S
C533 C532 1.392 . S
C533 H545 0.929 . S
C534 C530 1.531 1_554 S
C534 H546 0.960 . S
C534 H547 0.962 . S
C534 H548 0.960 . S
C535 C532 1.511 1_554 S
C535 H549 0.961 1_554 S
C535 H550 0.961 . S
C535 H551 0.961 . S
C536 C537 1.370 . S
C536 C538 1.363 . S
C536 H552 0.931 . S
C537 C536 1.370 . S
C537 C541 1.408 . S
C538 C536 1.363 . S
C538 C539 1.370 . S
C538 C542 1.524 . S
C539 C531 1.503 . S
C539 C538 1.370 . S
C539 C540 1.403 . S
C540 C539 1.403 . S
C540 C541 1.404 . S
C540 C543 1.539 . S
C541 C537 1.408 . S
C541 C540 1.404 . S
C541 H553 0.930 . S
C542 C538 1.524 . S
C542 H554 0.956 . S
C542 H555 0.961 . S
C542 H556 0.961 . S
C543 C540 1.539 . S
C543 H557 0.958 . S
C543 H558 0.961 . S
C543 H559 0.960 . S
H544 C528 0.931 . S
H545 C533 0.929 . S
H546 C534 0.960 . S
H547 C534 0.962 . S
H548 C534 0.960 . S
H549 C535 0.961 1_556 S
H550 C535 0.961 . S
H551 C535 0.961 . S
H552 C536 0.931 . S
H553 C541 0.930 . S
H554 C542 0.956 . S
H555 C542 0.961 . S
H556 C542 0.961 . S
H557 C543 0.958 . S
H558 C543 0.961 . S
H559 C543 0.960 . S
C560 C561 1.391 . S
C560 C562 1.394 . S
C560 H576 0.931 . S
C561 C560 1.391 . S
C561 C565 1.376 . S
C562 C560 1.394 . S
C562 C563 1.369 1_554 S
C562 C566 1.531 1_554 S
C563 C562 1.369 1_556 S
C563 C564 1.410 1_556 S
C563 C571 1.503 . S
C564 C563 1.410 1_554 S
C564 C565 1.392 . S
C564 C567 1.527 . S
C565 C561 1.376 . S
C565 C564 1.392 . S
C565 H577 0.929 . S
C566 C562 1.531 1_556 S
C566 H578 0.960 . S
C566 H579 0.962 . S
C566 H580 0.960 1_556 S
C567 C564 1.527 . S
C567 H581 0.972 . S
C567 H582 0.937 1_554 S
C567 H583 0.959 1_554 S
C568 C569 1.370 . S
C568 C570 1.363 . S
C568 H584 0.931 . S
C569 C568 1.370 . S
C569 C573 1.408 . S
C570 C568 1.363 . S
C570 C571 1.370 . S
C570 C574 1.524 . S
C571 C563 1.503 . S
C571 C570 1.370 . S
C571 C572 1.403 . S
C572 C571 1.403 . S
C572 C573 1.404 . S
C572 C575 1.539 . S
C573 C569 1.408 . S
C573 C572 1.404 . S
C573 H585 0.930 . S
C574 C570 1.524 . S
C574 H586 0.956 . S
C574 H587 0.961 . S
C574 H588 0.961 . S
C575 C572 1.539 . S
C575 H589 0.958 . S
C575 H590 0.961 . S
C575 H591 0.960 . S
H576 C560 0.931 . S
H577 C565 0.929 . S
H578 C566 0.960 . S
H579 C566 0.962 . S
H580 C566 0.960 1_554 S
H581 C567 0.972 . S
H582 C567 0.937 1_556 S
H583 C567 0.959 1_556 S
H584 C568 0.931 . S
H585 C573 0.930 . S
H586 C574 0.956 . S
H587 C574 0.961 . S
H588 C574 0.961 . S
H589 C575 0.958 . S
H590 C575 0.961 . S
H591 C575 0.960 . S
C592 C593 1.391 . S
C592 C594 1.394 . S
C592 H608 0.931 . S
C593 C592 1.391 . S
C593 C597 1.376 . S
C594 C592 1.394 . S
C594 C595 1.369 . S
C594 C598 1.531 . S
C595 C594 1.369 . S
C595 C596 1.410 . S
C595 C603 1.503 . S
C596 C595 1.410 . S
C596 C597 1.392 . S
C596 C599 1.511 . S
C597 C593 1.376 . S
C597 C596 1.392 . S
C597 H609 0.929 . S
C598 C594 1.531 . S
C598 H610 0.960 . S
C598 H611 0.962 . S
C598 H612 0.960 . S
C599 C596 1.511 . S
C599 H613 0.961 . S
C599 H614 0.961 . S
C599 H615 0.961 . S
C600 C601 1.370 . S
C600 C602 1.363 1_655 S
C600 H616 0.931 . S
C601 C600 1.370 . S
C601 C605 1.408 . S
C602 C600 1.363 1_455 S
C602 C603 1.370 . S
C602 C606 1.524 . S
C603 C595 1.503 . S
C603 C602 1.370 . S
C603 C604 1.403 . S
C604 C603 1.403 . S
C604 C605 1.404 1_455 S
C604 C607 1.539 . S
C605 C601 1.408 . S
C605 C604 1.404 1_655 S
C605 H617 0.930 . S
C606 C602 1.524 . S
C606 H618 0.956 . S
C606 H619 0.961 . S
C606 H620 0.961 . S
C607 C604 1.539 . S
C607 H621 0.958 . S
C607 H622 0.961 . S
C607 H623 0.960 . S
H608 C592 0.931 . S
H609 C597 0.929 . S
H610 C598 0.960 . S
H611 C598 0.962 . S
H612 C598 0.960 . S
H613 C599 0.961 . S
H614 C599 0.961 . S
H615 C599 0.961 . S
H616 C600 0.931 . S
H617 C605 0.930 . S
H618 C606 0.956 . S
H619 C606 0.961 . S
H620 C606 0.961 . S
H621 C607 0.958 . S
H622 C607 0.961 . S
H623 C607 0.960 . S
C624 C625 1.391 . S
C624 C626 1.394 . S
C624 H640 0.931 . S
C625 C624 1.391 . S
C625 C629 1.376 . S
C626 C624 1.394 . S
C626 C627 1.369 1_565 S
C626 C630 1.531 1_565 S
C627 C626 1.369 1_545 S
C627 C628 1.410 1_545 S
C627 C635 1.503 . S
C628 C627 1.410 1_565 S
C628 C629 1.392 . S
C628 C631 1.511 . S
C629 C625 1.376 . S
C629 C628 1.392 . S
C629 H641 0.929 . S
C630 C626 1.531 1_545 S
C630 H642 0.960 . S
C630 H643 0.962 . S
C630 H644 0.943 1_545 S
C631 C628 1.511 . S
C631 H645 0.961 . S
C631 H646 0.961 1_565 S
C631 H647 0.961 1_565 S
C632 C633 1.370 . S
C632 C634 1.363 . S
C632 H648 0.931 . S
C633 C632 1.370 . S
C633 C637 1.408 . S
C634 C632 1.363 . S
C634 C635 1.370 . S
C634 C638 1.524 . S
C635 C627 1.503 . S
C635 C634 1.370 . S
C635 C636 1.403 . S
C636 C635 1.403 . S
C636 C637 1.404 . S
C636 C639 1.539 . S
C637 C633 1.408 . S
C637 C636 1.404 . S
C637 H649 0.930 . S
C638 C634 1.524 . S
C638 H650 0.956 . S
C638 H651 0.961 . S
C638 H652 0.961 . S
C639 C636 1.539 . S
C639 H653 0.958 . S
C639 H654 0.961 . S
C639 H655 0.960 . S
H640 C624 0.931 . S
H641 C629 0.929 . S
H642 C630 0.960 . S
H643 C630 0.962 . S
H644 C630 0.943 1_565 S
H645 C631 0.961 . S
H646 C631 0.961 1_545 S
H647 C631 0.961 1_545 S
H648 C632 0.931 . S
H649 C637 0.930 . S
H650 C638 0.956 . S
H651 C638 0.961 . S
H652 C638 0.961 . S
H653 C639 0.958 . S
H654 C639 0.961 . S
H655 C639 0.960 . S
C656 C657 1.391 . S
C656 C658 1.394 . S
C656 H672 0.931 . S
C657 C656 1.391 . S
C657 C661 1.376 . S
C658 C656 1.394 . S
C658 C659 1.369 . S
C658 C662 1.531 . S
C659 C658 1.369 . S
C659 C660 1.410 . S
C659 C667 1.503 1_655 S
C660 C659 1.410 . S
C660 C661 1.392 . S
C660 C663 1.511 . S
C661 C657 1.376 . S
C661 C660 1.392 . S
C661 H673 0.929 . S
C662 C658 1.531 . S
C662 H674 0.960 1_655 S
C662 H675 0.962 . S
C662 H676 0.960 . S
C663 C660 1.511 . S
C663 H677 0.961 . S
C663 H678 0.961 . S
C663 H679 0.961 . S
C664 C665 1.370 . S
C664 C666 1.363 . S
C664 H680 0.931 . S
C665 C664 1.370 . S
C665 C669 1.408 . S
C666 C664 1.363 . S
C666 C667 1.370 . S
C666 C670 1.524 1_455 S
C667 C659 1.503 1_455 S
C667 C666 1.370 . S
C667 C668 1.403 . S
C668 C667 1.403 . S
C668 C669 1.404 . S
C668 C671 1.539 . S
C669 C665 1.408 . S
C669 C668 1.404 . S
C669 H681 0.930 . S
C670 C666 1.524 1_655 S
C670 H682 0.956 . S
C670 H683 0.961 . S
C670 H684 0.961 . S
C671 C668 1.539 . S
C671 H685 0.958 . S
C671 H686 0.961 . S
C671 H687 0.960 . S
H672 C656 0.931 . S
H673 C661 0.929 . S
H674 C662 0.960 1_455 S
H675 C662 0.962 . S
H676 C662 0.960 . S
H677 C663 0.961 . S
H678 C663 0.961 . S
H679 C663 0.961 . S
H680 C664 0.931 . S
H681 C669 0.930 . S
H682 C670 0.956 . S
H683 C670 0.961 . S
H684 C670 0.961 . S
H685 C671 0.958 . S
H686 C671 0.961 . S
H687 C671 0.960 . S
C688 C689 1.391 . S
C688 C690 1.394 . S
C688 H704 0.931 . S
C689 C688 1.391 . S
C689 C693 1.376 . S
C690 C688 1.394 . S
C690 C691 1.369 1_545 S
C690 C694 1.531 . S
C691 C690 1.369 1_565 S
C691 C692 1.410 1_565 S
C691 C699 1.503 . S
C692 C691 1.410 1_545 S
C692 C693 1.392 . S
C692 C695 1.511 1_545 S
C693 C689 1.376 . S
C693 C692 1.392 . S
C693 H705 0.929 . S
C694 C690 1.531 . S
C694 H706 0.960 1_545 S
C694 H707 0.962 1_545 S
C694 H708 0.960 . S
C695 C692 1.511 1_565 S
C695 H709 0.961 . S
C695 H710 0.961 . S
C695 H711 0.961 . S
C696 C697 1.370 . S
C696 C698 1.363 . S
C696 H712 0.931 . S
C697 C696 1.370 . S
C697 C701 1.408 . S
C698 C696 1.363 . S
C698 C699 1.370 . S
C698 C702 1.524 . S
C699 C691 1.503 . S
C699 C698 1.370 . S
C699 C700 1.403 . S
C700 C699 1.403 . S
C700 C701 1.404 . S
C700 C703 1.539 . S
C701 C697 1.408 . S
C701 C700 1.404 . S
C701 H713 0.930 . S
C702 C698 1.524 . S
C702 H714 0.956 . S
C702 H715 0.961 . S
C702 H716 0.961 . S
C703 C700 1.539 . S
C703 H717 0.958 . S
C703 H718 0.961 . S
C703 H719 0.960 . S
H704 C688 0.931 . S
H705 C693 0.929 . S
H706 C694 0.960 1_565 S
H707 C694 0.962 1_565 S
H708 C694 0.960 . S
H709 C695 0.961 . S
H710 C695 0.961 . S
H711 C695 0.961 . S
H712 C696 0.931 . S
H713 C701 0.930 . S
H714 C702 0.956 . S
H715 C702 0.961 . S
H716 C702 0.961 . S
H717 C703 0.958 . S
H718 C703 0.961 . S
H719 C703 0.960 . S
C720 C721 1.391 . S
C720 C722 1.394 . S
C720 H736 0.931 . S
C721 C720 1.391 . S
C721 C725 1.376 . S
C722 C720 1.394 . S
C722 C723 1.369 . S
C722 C726 1.531 . S
C723 C722 1.369 . S
C723 C724 1.410 . S
C723 C731 1.503 . S
C724 C723 1.410 . S
C724 C725 1.392 . S
C724 C727 1.511 . S
C725 C721 1.376 . S
C725 C724 1.392 . S
C725 H737 0.929 . S
C726 C722 1.531 . S
C726 H738 0.960 . S
C726 H739 0.962 . S
C726 H740 0.960 . S
C727 C724 1.511 . S
C727 H741 0.961 . S
C727 H742 0.961 . S
C727 H743 0.961 . S
C728 C729 1.370 . S
C728 C730 1.363 1_455 S
C728 H744 0.931 . S
C729 C728 1.370 . S
C729 C733 1.408 . S
C730 C728 1.363 1_655 S
C730 C731 1.370 . S
C730 C734 1.524 . S
C731 C723 1.503 . S
C731 C730 1.370 . S
C731 C732 1.403 . S
C732 C731 1.403 . S
C732 C733 1.404 1_655 S
C732 C735 1.539 . S
C733 C729 1.408 . S
C733 C732 1.404 1_455 S
C733 H745 0.930 . S
C734 C730 1.524 . S
C734 H746 0.956 . S
C734 H747 0.961 . S
C734 H748 0.961 . S
C735 C732 1.539 . S
C735 H749 0.958 . S
C735 H750 0.961 . S
C735 H751 0.960 . S
H736 C720 0.931 . S
H737 C725 0.929 . S
H738 C726 0.960 . S
H739 C726 0.962 . S
H740 C726 0.960 . S
H741 C727 0.961 . S
H742 C727 0.961 . S
H743 C727 0.961 . S
H744 C728 0.931 . S
H745 C733 0.930 . S
H746 C734 0.956 . S
H747 C734 0.961 . S
H748 C734 0.961 . S
H749 C735 0.958 . S
H750 C735 0.961 . S
H751 C735 0.960 . S
C752 C753 1.391 . S
C752 C754 1.394 . S
C752 H768 0.931 . S
C753 C752 1.391 . S
C753 C757 1.376 . S
C754 C752 1.394 . S
C754 C755 1.369 . S
C754 C758 1.531 . S
C755 C754 1.369 . S
C755 C756 1.410 . S
C755 C763 1.503 . S
C756 C755 1.410 . S
C756 C757 1.392 . S
C756 C759 1.511 . S
C757 C753 1.376 . S
C757 C756 1.392 . S
C757 H769 0.929 . S
C758 C754 1.531 . S
C758 H770 0.960 . S
C758 H771 0.962 . S
C758 H772 0.960 . S
C759 C756 1.511 . S
C759 H773 0.961 . S
C759 H774 0.961 . S
C759 H775 0.961 . S
C760 C761 1.370 . S
C760 C762 1.363 . S
C760 H776 0.931 . S
C761 C760 1.370 . S
C761 C765 1.408 . S
C762 C760 1.363 . S
C762 C763 1.370 1_545 S
C762 C766 1.524 1_545 S
C763 C755 1.503 . S
C763 C762 1.370 1_565 S
C763 C764 1.403 . S
C764 C763 1.403 . S
C764 C765 1.404 1_565 S
C764 C767 1.539 . S
C765 C761 1.408 . S
C765 C764 1.404 1_545 S
C765 H777 0.930 . S
C766 C762 1.524 1_565 S
C766 H778 0.956 . S
C766 H779 0.961 . S
C766 H780 0.961 1_565 S
C767 C764 1.539 . S
C767 H781 0.958 . S
C767 H782 0.961 . S
C767 H783 0.960 . S
H768 C752 0.931 . S
H769 C757 0.929 . S
H770 C758 0.960 . S
H771 C758 0.962 . S
H772 C758 0.960 . S
H773 C759 0.961 . S
H774 C759 0.961 . S
H775 C759 0.961 . S
H776 C760 0.931 . S
H777 C765 0.930 . S
H778 C766 0.956 . S
H779 C766 0.961 . S
H780 C766 0.961 1_545 S
H781 C767 0.958 . S
H782 C767 0.961 . S
H783 C767 0.960 . S
C784 C785 1.391 . S
C784 C786 1.394 . S
C784 H800 0.931 . S
C785 C784 1.391 . S
C785 C789 1.376 . S
C786 C784 1.394 . S
C786 C787 1.369 . S
C786 C790 1.531 . S
C787 C786 1.369 . S
C787 C788 1.410 . S
C787 C795 1.503 1_455 S
C788 C787 1.410 . S
C788 C789 1.392 . S
C788 C791 1.511 . S
C789 C785 1.376 . S
C789 C788 1.392 . S
C789 H801 0.929 . S
C790 C786 1.531 . S
C790 H802 0.960 1_455 S
C790 H803 0.962 1_455 S
C790 H804 0.960 . S
C791 C788 1.511 . S
C791 H805 0.961 . S
C791 H806 0.961 . S
C791 H807 0.961 . S
C792 C793 1.370 . S
C792 C794 1.363 . S
C792 H808 0.931 . S
C793 C792 1.370 . S
C793 C797 1.408 . S
C794 C792 1.363 . S
C794 C795 1.370 . S
C794 C798 1.524 . S
C795 C787 1.503 1_655 S
C795 C794 1.370 . S
C795 C796 1.403 . S
C796 C795 1.403 . S
C796 C797 1.404 . S
C796 C799 1.539 1_655 S
C797 C793 1.408 . S
C797 C796 1.404 . S
C797 H809 0.930 . S
C798 C794 1.524 . S
C798 H810 0.956 . S
C798 H811 0.961 . S
C798 H812 0.961 . S
C799 C796 1.539 1_455 S
C799 H813 0.958 . S
C799 H814 0.961 . S
C799 H815 0.960 . S
H800 C784 0.931 . S
H801 C789 0.929 . S
H802 C790 0.960 1_655 S
H803 C790 0.962 1_655 S
H804 C790 0.960 . S
H805 C791 0.961 . S
H806 C791 0.961 . S
H807 C791 0.961 . S
H808 C792 0.931 . S
H809 C797 0.930 . S
H810 C798 0.956 . S
H811 C798 0.961 . S
H812 C798 0.961 . S
H813 C799 0.958 . S
H814 C799 0.961 . S
H815 C799 0.960 . S
C816 C817 1.391 . S
C816 C818 1.394 1_565 S
C816 H832 0.931 . S
C817 C816 1.391 . S
C817 C821 1.376 . S
C818 C816 1.394 1_545 S
C818 C819 1.369 . S
C818 C822 1.531 . S
C819 C818 1.369 . S
C819 C820 1.410 1_545 S
C819 C827 1.503 . S
C820 C819 1.410 1_565 S
C820 C821 1.392 . S
C820 C823 1.511 1_565 S
C821 C817 1.376 . S
C821 C820 1.392 . S
C821 H833 0.929 . S
C822 C818 1.531 . S
C822 H834 0.960 . S
C822 H835 0.962 . S
C822 H836 0.960 . S
C823 C820 1.511 1_545 S
C823 H837 0.961 1_545 S
C823 H838 0.961 . S
C823 H839 0.961 . S
C824 C825 1.370 . S
C824 C826 1.363 . S
C824 H840 0.931 . S
C825 C824 1.370 . S
C825 C829 1.408 . S
C826 C824 1.363 . S
C826 C827 1.370 . S
C826 C830 1.524 . S
C827 C819 1.503 . S
C827 C826 1.370 . S
C827 C828 1.403 . S
C828 C827 1.403 . S
C828 C829 1.404 . S
C828 C831 1.539 . S
C829 C825 1.408 . S
C829 C828 1.404 . S
C829 H841 0.930 . S
C830 C826 1.524 . S
C830 H842 0.956 . S
C830 H843 0.961 . S
C830 H844 0.961 . S
C831 C828 1.539 . S
C831 H845 0.958 . S
C831 H846 0.961 . S
C831 H847 0.960 . S
H832 C816 0.931 . S
H833 C821 0.929 . S
H834 C822 0.960 . S
H835 C822 0.962 . S
H836 C822 0.960 . S
H837 C823 0.961 1_565 S
H838 C823 0.961 . S
H839 C823 0.961 . S
H840 C824 0.931 . S
H841 C829 0.930 . S
H842 C830 0.956 . S
H843 C830 0.961 . S
H844 C830 0.961 . S
H845 C831 0.958 . S
H846 C831 0.961 . S
H847 C831 0.960 . S
C848 C849 1.391 . S
C848 C850 1.394 . S
C848 H864 0.931 . S
C849 C848 1.391 . S
C849 C853 1.376 . S
C850 C848 1.394 . S
C850 C851 1.369 . S
C850 C854 1.531 . S
C851 C850 1.369 . S
C851 C852 1.410 . S
C851 C859 1.503 . S
C852 C851 1.410 . S
C852 C853 1.392 . S
C852 C855 1.511 . S
C853 C849 1.376 . S
C853 C852 1.392 . S
C853 H865 0.929 . S
C854 C850 1.531 . S
C854 H866 0.960 . S
C854 H867 0.962 . S
C854 H868 0.960 . S
C855 C852 1.511 . S
C855 H869 0.961 . S
C855 H870 0.961 . S
C855 H871 0.961 . S
C856 C857 1.370 . S
C856 C858 1.363 . S
C856 H872 0.931 . S
C857 C856 1.370 . S
C857 C861 1.408 . S
C858 C856 1.363 . S
C858 C859 1.370 . S
C858 C862 1.524 . S
C859 C851 1.503 . S
C859 C858 1.370 . S
C859 C860 1.403 . S
C860 C859 1.403 . S
C860 C861 1.404 . S
C860 C863 1.539 . S
C861 C857 1.408 . S
C861 C860 1.404 . S
C861 H873 0.930 . S
C862 C858 1.524 . S
C862 H874 0.956 . S
C862 H875 0.961 . S
C862 H876 0.961 . S
C863 C860 1.539 . S
C863 H877 0.958 . S
C863 H878 0.961 . S
C863 H879 0.960 . S
H864 C848 0.931 . S
H865 C853 0.929 . S
H866 C854 0.960 . S
H867 C854 0.962 . S
H868 C854 0.960 . S
H869 C855 0.961 . S
H870 C855 0.961 . S
H871 C855 0.961 . S
H872 C856 0.931 . S
H873 C861 0.930 . S
H874 C862 0.956 . S
H875 C862 0.961 . S
H876 C862 0.961 . S
H877 C863 0.958 . S
H878 C863 0.961 . S
H879 C863 0.960 . S
C880 C881 1.391 . S
C880 C882 1.394 . S
C880 H896 0.931 . S
C881 C880 1.391 . S
C881 C885 1.376 . S
C882 C880 1.394 . S
C882 C883 1.369 . S
C882 C886 1.531 . S
C883 C882 1.369 . S
C883 C884 1.410 . S
C883 C891 1.503 . S
C884 C883 1.410 . S
C884 C885 1.392 . S
C884 C887 1.511 . S
C885 C881 1.376 . S
C885 C884 1.392 . S
C885 H897 0.929 . S
C886 C882 1.531 . S
C886 H898 0.960 . S
C886 H899 0.962 . S
C886 H900 0.960 . S
C887 C884 1.511 . S
C887 H901 0.961 . S
C887 H902 0.961 . S
C887 H903 0.961 . S
C888 C889 1.370 . S
C888 C890 1.363 . S
C888 H904 0.931 . S
C889 C888 1.370 . S
C889 C893 1.408 . S
C890 C888 1.363 . S
C890 C891 1.370 . S
C890 C894 1.524 . S
C891 C883 1.503 . S
C891 C890 1.370 . S
C891 C892 1.403 . S
C892 C891 1.403 . S
C892 C893 1.404 . S
C892 C895 1.539 . S
C893 C889 1.408 . S
C893 C892 1.404 . S
C893 H905 0.930 . S
C894 C890 1.524 . S
C894 H906 0.956 . S
C894 H907 0.961 . S
C894 H908 0.961 . S
C895 C892 1.539 . S
C895 H909 0.958 . S
C895 H910 0.961 . S
C895 H911 0.960 . S
H896 C880 0.931 . S
H897 C885 0.929 . S
H898 C886 0.960 . S
H899 C886 0.962 . S
H900 C886 0.960 . S
H901 C887 0.961 . S
H902 C887 0.961 . S
H903 C887 0.961 . S
H904 C888 0.931 . S
H905 C893 0.930 . S
H906 C894 0.956 . S
H907 C894 0.961 . S
H908 C894 0.961 . S
H909 C895 0.958 . S
H910 C895 0.961 . S
H911 C895 0.960 . S
C912 C913 1.391 . S
C912 C914 1.394 . S
C912 H928 0.931 . S
C913 C912 1.391 . S
C913 C917 1.376 . S
C914 C912 1.394 . S
C914 C915 1.369 . S
C914 C918 1.531 . S
C915 C914 1.369 . S
C915 C916 1.410 . S
C915 C923 1.503 . S
C916 C915 1.410 . S
C916 C917 1.392 . S
C916 C919 1.511 . S
C917 C913 1.376 . S
C917 C916 1.392 . S
C917 H929 0.929 . S
C918 C914 1.531 . S
C918 H930 0.960 . S
C918 H931 0.962 . S
C918 H932 0.960 . S
C919 C916 1.511 . S
C919 H933 0.961 . S
C919 H934 0.961 . S
C919 H935 0.961 . S
C920 C921 1.370 . S
C920 C922 1.363 . S
C920 H936 0.931 . S
C921 C920 1.370 . S
C921 C925 1.408 . S
C922 C920 1.363 . S
C922 C923 1.370 . S
C922 C926 1.524 . S
C923 C915 1.503 . S
C923 C922 1.370 . S
C923 C924 1.403 . S
C924 C923 1.403 . S
C924 C925 1.404 . S
C924 C927 1.539 . S
C925 C921 1.408 . S
C925 C924 1.404 . S
C925 H937 0.930 . S
C926 C922 1.524 . S
C926 H938 0.956 . S
C926 H939 0.961 . S
C926 H940 0.961 . S
C927 C924 1.539 . S
C927 H941 0.958 . S
C927 H942 0.961 . S
C927 H943 0.960 . S
H928 C912 0.931 . S
H929 C917 0.929 . S
H930 C918 0.960 . S
H931 C918 0.962 . S
H932 C918 0.960 . S
H933 C919 0.961 . S
H934 C919 0.961 . S
H935 C919 0.961 . S
H936 C920 0.931 . S
H937 C925 0.930 . S
H938 C926 0.956 . S
H939 C926 0.961 . S
H940 C926 0.961 . S
H941 C927 0.958 . S
H942 C927 0.961 . S
H943 C927 0.960 . S
C944 C945 1.391 . S
C944 C946 1.394 . S
C944 H960 0.931 . S
C945 C944 1.391 . S
C945 C949 1.376 . S
C946 C944 1.394 . S
C946 C947 1.369 . S
C946 C950 1.531 . S
C947 C946 1.369 . S
C947 C948 1.410 . S
C947 C955 1.503 . S
C948 C947 1.410 . S
C948 C949 1.392 . S
C948 C951 1.511 . S
C949 C945 1.376 . S
C949 C948 1.392 . S
C949 H961 0.929 . S
C950 C946 1.531 . S
C950 H962 0.960 . S
C950 H963 0.962 . S
C950 H964 0.960 . S
C951 C948 1.511 . S
C951 H965 0.961 . S
C951 H966 0.961 . S
C951 H967 0.961 . S
C952 C953 1.370 . S
C952 C954 1.363 . S
C952 H968 0.931 . S
C953 C952 1.370 . S
C953 C957 1.408 . S
C954 C952 1.363 . S
C954 C955 1.370 . S
C954 C958 1.524 . S
C955 C947 1.503 . S
C955 C954 1.370 . S
C955 C956 1.403 . S
C956 C955 1.403 . S
C956 C957 1.404 . S
C956 C959 1.539 . S
C957 C953 1.408 . S
C957 C956 1.404 . S
C957 H969 0.930 . S
C958 C954 1.524 . S
C958 H970 0.956 . S
C958 H971 0.961 . S
C958 H972 0.961 . S
C959 C956 1.539 . S
C959 H973 0.958 . S
C959 H974 0.961 . S
C959 H975 0.960 . S
H960 C944 0.931 . S
H961 C949 0.929 . S
H962 C950 0.960 . S
H963 C950 0.962 . S
H964 C950 0.960 . S
H965 C951 0.961 . S
H966 C951 0.961 . S
H967 C951 0.961 . S
H968 C952 0.931 . S
H969 C957 0.930 . S
H970 C958 0.956 . S
H971 C958 0.961 . S
H972 C958 0.961 . S
H973 C959 0.958 . S
H974 C959 0.961 . S
H975 C959 0.960 . S
C976 C977 1.391 . S
C976 C978 1.394 . S
C976 H992 0.931 . S
C977 C976 1.391 . S
C977 C981 1.376 . S
C978 C976 1.394 . S
C978 C979 1.369 . S
C978 C982 1.531 . S
C979 C978 1.369 . S
C979 C980 1.410 . S
C979 C987 1.503 . S
C980 C979 1.410 . S
C980 C981 1.392 . S
C980 C983 1.511 . S
C981 C977 1.376 . S
C981 C980 1.392 . S
C981 H993 0.929 . S
C982 C978 1.531 . S
C982 H994 0.960 . S
C982 H995 0.962 . S
C982 H996 0.960 . S
C983 C980 1.511 . S
C983 H997 0.961 . S
C983 H998 0.961 . S
C983 H999 0.961 . S
C984 C985 1.370 . S
C984 C986 1.363 . S
C984 H1000 0.931 . S
C985 C984 1.370 . S
C985 C989 1.408 . S
C986 C984 1.363 . S
C986 C987 1.370 . S
C986 C990 1.524 . S
C987 C979 1.503 . S
C987 C986 1.370 . S
C987 C988 1.403 . S
C988 C987 1.403 . S
C988 C989 1.404 . S
C988 C991 1.539 . S
C989 C985 1.408 . S
C989 C988 1.404 . S
C989 H1001 0.930 . S
C990 C986 1.524 . S
C990 H1002 0.956 . S
C990 H1003 0.961 . S
C990 H1004 0.961 . S
C991 C988 1.539 . S
C991 H1005 0.958 . S
C991 H1006 0.961 . S
C991 H1007 0.960 . S
H992 C976 0.931 . S
H993 C981 0.929 . S
H994 C982 0.960 . S
H995 C982 0.962 . S
H996 C982 0.960 . S
H997 C983 0.961 . S
H998 C983 0.961 . S
H999 C983 0.961 . S
H1000 C984 0.931 . S
H1001 C989 0.930 . S
H1002 C990 0.956 . S
H1003 C990 0.961 . S
H1004 C990 0.961 . S
H1005 C991 0.958 . S
H1006 C991 0.961 . S
H1007 C991 0.960 . S
C1008 C1009 1.391 . S
C1008 C1010 1.394 . S
C1008 H1024 0.931 . S
C1009 C1008 1.391 . S
C1009 C1013 1.376 . S
C1010 C1008 1.394 . S
C1010 C1011 1.369 . S
C1010 C1014 1.531 . S
C1011 C1010 1.369 . S
C1011 C1012 1.410 . S
C1011 C1019 1.503 . S
C1012 C1011 1.410 . S
C1012 C1013 1.392 . S
C1012 C1015 1.511 . S
C1013 C1009 1.376 . S
C1013 C1012 1.392 . S
C1013 H1025 0.929 . S
C1014 C1010 1.531 . S
C1014 H1026 0.960 . S
C1014 H1027 0.962 . S
C1014 H1028 0.960 . S
C1015 C1012 1.511 . S
C1015 H1029 0.961 . S
C1015 H1030 0.961 . S
C1015 H1031 0.961 . S
C1016 C1017 1.370 . S
C1016 C1018 1.363 . S
C1016 H1032 0.931 . S
C1017 C1016 1.370 . S
C1017 C1021 1.408 . S
C1018 C1016 1.363 . S
C1018 C1019 1.370 . S
C1018 C1022 1.524 . S
C1019 C1011 1.503 . S
C1019 C1018 1.370 . S
C1019 C1020 1.403 . S
C1020 C1019 1.403 . S
C1020 C1021 1.404 . S
C1020 C1023 1.539 . S
C1021 C1017 1.408 . S
C1021 C1020 1.404 . S
C1021 H1033 0.930 . S
C1022 C1018 1.524 . S
C1022 H1034 0.956 . S
C1022 H1035 0.961 . S
C1022 H1036 0.961 . S
C1023 C1020 1.539 . S
C1023 H1037 0.958 . S
C1023 H1038 0.961 . S
C1023 H1039 0.960 . S
H1024 C1008 0.931 . S
H1025 C1013 0.929 . S
H1026 C1014 0.960 . S
H1027 C1014 0.962 . S
H1028 C1014 0.960 . S
H1029 C1015 0.961 . S
H1030 C1015 0.961 . S
H1031 C1015 0.961 . S
H1032 C1016 0.931 . S
H1033 C1021 0.930 . S
H1034 C1022 0.956 . S
H1035 C1022 0.961 . S
H1036 C1022 0.961 . S
H1037 C1023 0.958 . S
H1038 C1023 0.961 . S
H1039 C1023 0.960 . S
C1040 C1041 1.391 . S
C1040 C1042 1.394 . S
C1040 H1056 0.931 . S
C1041 C1040 1.391 . S
C1041 C1045 1.376 . S
C1042 C1040 1.394 . S
C1042 C1043 1.369 . S
C1042 C1046 1.531 . S
C1043 C1042 1.369 . S
C1043 C1044 1.410 . S
C1043 C1051 1.503 . S
C1044 C1043 1.410 . S
C1044 C1045 1.392 . S
C1044 C1047 1.511 . S
C1045 C1041 1.376 . S
C1045 C1044 1.392 . S
C1045 H1057 0.929 . S
C1046 C1042 1.531 . S
C1046 H1058 0.960 . S
C1046 H1059 0.962 . S
C1046 H1060 0.960 . S
C1047 C1044 1.511 . S
C1047 H1061 0.961 . S
C1047 H1062 0.961 . S
C1047 H1063 0.961 . S
C1048 C1049 1.370 . S
C1048 C1050 1.363 . S
C1048 H1064 0.931 . S
C1049 C1048 1.370 . S
C1049 C1053 1.408 . S
C1050 C1048 1.363 . S
C1050 C1051 1.370 . S
C1050 C1054 1.524 . S
C1051 C1043 1.503 . S
C1051 C1050 1.370 . S
C1051 C1052 1.403 . S
C1052 C1051 1.403 . S
C1052 C1053 1.404 . S
C1052 C1055 1.539 . S
C1053 C1049 1.408 . S
C1053 C1052 1.404 . S
C1053 H1065 0.930 . S
C1054 C1050 1.524 . S
C1054 H1066 0.956 . S
C1054 H1067 0.961 . S
C1054 H1068 0.961 . S
C1055 C1052 1.539 . S
C1055 H1069 0.958 . S
C1055 H1070 0.961 . S
C1055 H1071 0.960 . S
H1056 C1040 0.931 . S
H1057 C1045 0.929 . S
H1058 C1046 0.960 . S
H1059 C1046 0.962 . S
H1060 C1046 0.960 . S
H1061 C1047 0.961 . S
H1062 C1047 0.961 . S
H1063 C1047 0.961 . S
H1064 C1048 0.931 . S
H1065 C1053 0.930 . S
H1066 C1054 0.956 . S
H1067 C1054 0.961 . S
H1068 C1054 0.961 . S
H1069 C1055 0.958 . S
H1070 C1055 0.961 . S
H1071 C1055 0.960 . S
C1072 C1073 1.391 . S
C1072 C1074 1.394 . S
C1072 H1088 0.931 . S
C1073 C1072 1.391 . S
C1073 C1077 1.376 . S
C1074 C1072 1.394 . S
C1074 C1075 1.369 . S
C1074 C1078 1.531 . S
C1075 C1074 1.369 . S
C1075 C1076 1.410 . S
C1075 C1083 1.503 . S
C1076 C1075 1.410 . S
C1076 C1077 1.392 . S
C1076 C1079 1.511 . S
C1077 C1073 1.376 . S
C1077 C1076 1.392 . S
C1077 H1089 0.929 . S
C1078 C1074 1.531 . S
C1078 H1090 0.960 . S
C1078 H1091 0.962 . S
C1078 H1092 0.960 . S
C1079 C1076 1.511 . S
C1079 H1093 0.961 . S
C1079 H1094 0.961 . S
C1079 H1095 0.961 . S
C1080 C1081 1.370 . S
C1080 C1082 1.363 . S
C1080 H1096 0.931 . S
C1081 C1080 1.370 . S
C1081 C1085 1.408 . S
C1082 C1080 1.363 . S
C1082 C1083 1.370 . S
C1082 C1086 1.524 . S
C1083 C1075 1.503 . S
C1083 C1082 1.370 . S
C1083 C1084 1.403 . S
C1084 C1083 1.403 . S
C1084 C1085 1.404 . S
C1084 C1087 1.539 . S
C1085 C1081 1.408 . S
C1085 C1084 1.404 . S
C1085 H1097 0.930 . S
C1086 C1082 1.524 . S
C1086 H1098 0.956 . S
C1086 H1099 0.961 . S
C1086 H1100 0.961 . S
C1087 C1084 1.539 . S
C1087 H1101 0.958 . S
C1087 H1102 0.961 . S
C1087 H1103 0.960 . S
H1088 C1072 0.931 . S
H1089 C1077 0.929 . S
H1090 C1078 0.960 . S
H1091 C1078 0.962 . S
H1092 C1078 0.960 . S
H1093 C1079 0.961 . S
H1094 C1079 0.961 . S
H1095 C1079 0.961 . S
H1096 C1080 0.931 . S
H1097 C1085 0.930 . S
H1098 C1086 0.956 . S
H1099 C1086 0.961 . S
H1100 C1086 0.961 . S
H1101 C1087 0.958 . S
H1102 C1087 0.961 . S
H1103 C1087 0.960 . S
C1104 C1105 1.391 . S
C1104 C1106 1.394 . S
C1104 H1120 0.931 . S
C1105 C1104 1.391 . S
C1105 C1109 1.376 . S
C1106 C1104 1.394 . S
C1106 C1107 1.369 . S
C1106 C1110 1.531 . S
C1107 C1106 1.369 . S
C1107 C1108 1.410 . S
C1107 C1115 1.503 . S
C1108 C1107 1.410 . S
C1108 C1109 1.392 . S
C1108 C1111 1.511 . S
C1109 C1105 1.376 . S
C1109 C1108 1.392 . S
C1109 H1121 0.929 . S
C1110 C1106 1.531 . S
C1110 H1122 0.960 . S
C1110 H1123 0.962 . S
C1110 H1124 0.960 . S
C1111 C1108 1.511 . S
C1111 H1125 0.961 . S
C1111 H1126 0.961 . S
C1111 H1127 0.961 . S
C1112 C1113 1.370 . S
C1112 C1114 1.363 . S
C1112 H1128 0.931 . S
C1113 C1112 1.370 . S
C1113 C1117 1.408 . S
C1114 C1112 1.363 . S
C1114 C1115 1.370 . S
C1114 C1118 1.524 . S
C1115 C1107 1.503 . S
C1115 C1114 1.370 . S
C1115 C1116 1.403 . S
C1116 C1115 1.403 . S
C1116 C1117 1.404 . S
C1116 C1119 1.539 . S
C1117 C1113 1.408 . S
C1117 C1116 1.404 . S
C1117 H1129 0.930 . S
C1118 C1114 1.524 . S
C1118 H1130 0.956 . S
C1118 H1131 0.961 . S
C1118 H1132 0.961 . S
C1119 C1116 1.539 . S
C1119 H1133 0.958 . S
C1119 H1134 0.961 . S
C1119 H1135 0.960 . S
H1120 C1104 0.931 . S
H1121 C1109 0.929 . S
H1122 C1110 0.960 . S
H1123 C1110 0.962 . S
H1124 C1110 0.960 . S
H1125 C1111 0.961 . S
H1126 C1111 0.961 . S
H1127 C1111 0.961 . S
H1128 C1112 0.931 . S
H1129 C1117 0.930 . S
H1130 C1118 0.956 . S
H1131 C1118 0.961 . S
H1132 C1118 0.961 . S
H1133 C1119 0.958 . S
H1134 C1119 0.961 . S
H1135 C1119 0.960 . S
C1136 C1137 1.391 . S
C1136 C1138 1.394 . S
C1136 H1152 0.931 . S
C1137 C1136 1.391 . S
C1137 C1141 1.376 . S
C1138 C1136 1.394 . S
C1138 C1139 1.369 . S
C1138 C1142 1.531 . S
C1139 C1138 1.369 . S
C1139 C1140 1.410 . S
C1139 C1147 1.503 . S
C1140 C1139 1.410 . S
C1140 C1141 1.392 . S
C1140 C1143 1.511 . S
C1141 C1137 1.376 . S
C1141 C1140 1.392 . S
C1141 H1153 0.929 . S
C1142 C1138 1.531 . S
C1142 H1154 0.960 . S
C1142 H1155 0.962 . S
C1142 H1156 0.960 . S
C1143 C1140 1.511 . S
C1143 H1157 0.961 . S
C1143 H1158 0.961 . S
C1143 H1159 0.961 . S
C1144 C1145 1.370 . S
C1144 C1146 1.363 . S
C1144 H1160 0.931 . S
C1145 C1144 1.370 . S
C1145 C1149 1.408 . S
C1146 C1144 1.363 . S
C1146 C1147 1.370 . S
C1146 C1150 1.524 . S
C1147 C1139 1.503 . S
C1147 C1146 1.370 . S
C1147 C1148 1.403 . S
C1148 C1147 1.403 . S
C1148 C1149 1.404 . S
C1148 C1151 1.539 . S
C1149 C1145 1.408 . S
C1149 C1148 1.404 . S
C1149 H1161 0.930 . S
C1150 C1146 1.524 . S
C1150 H1162 0.956 . S
C1150 H1163 0.961 . S
C1150 H1164 0.961 . S
C1151 C1148 1.539 . S
C1151 H1165 0.958 . S
C1151 H1166 0.961 . S
C1151 H1167 0.960 . S
H1152 C1136 0.931 . S
H1153 C1141 0.929 . S
H1154 C1142 0.960 . S
H1155 C1142 0.962 . S
H1156 C1142 0.960 . S
H1157 C1143 0.961 . S
H1158 C1143 0.961 . S
H1159 C1143 0.961 . S
H1160 C1144 0.931 . S
H1161 C1149 0.930 . S
H1162 C1150 0.956 . S
H1163 C1150 0.961 . S
H1164 C1150 0.961 . S
H1165 C1151 0.958 . S
H1166 C1151 0.961 . S
H1167 C1151 0.960 . S
C1168 C1169 1.391 . S
C1168 C1170 1.394 . S
C1168 H1184 0.931 . S
C1169 C1168 1.391 . S
C1169 C1173 1.376 . S
C1170 C1168 1.394 . S
C1170 C1171 1.369 . S
C1170 C1174 1.531 . S
C1171 C1170 1.369 . S
C1171 C1172 1.410 . S
C1171 C1179 1.503 . S
C1172 C1171 1.410 . S
C1172 C1173 1.392 . S
C1172 C1175 1.511 . S
C1173 C1169 1.376 . S
C1173 C1172 1.392 . S
C1173 H1185 0.929 . S
C1174 C1170 1.531 . S
C1174 H1186 0.960 . S
C1174 H1187 0.962 . S
C1174 H1188 0.960 . S
C1175 C1172 1.511 . S
C1175 H1189 0.961 . S
C1175 H1190 0.961 . S
C1175 H1191 0.961 . S
C1176 C1177 1.370 . S
C1176 C1178 1.363 . S
C1176 H1192 0.931 . S
C1177 C1176 1.370 . S
C1177 C1181 1.408 . S
C1178 C1176 1.363 . S
C1178 C1179 1.370 . S
C1178 C1182 1.524 . S
C1179 C1171 1.503 . S
C1179 C1178 1.370 . S
C1179 C1180 1.403 . S
C1180 C1179 1.403 . S
C1180 C1181 1.404 . S
C1180 C1183 1.539 . S
C1181 C1177 1.408 . S
C1181 C1180 1.404 . S
C1181 H1193 0.930 . S
C1182 C1178 1.524 . S
C1182 H1194 0.956 . S
C1182 H1195 0.961 . S
C1182 H1196 0.961 . S
C1183 C1180 1.539 . S
C1183 H1197 0.958 . S
C1183 H1198 0.961 . S
C1183 H1199 0.960 . S
H1184 C1168 0.931 . S
H1185 C1173 0.929 . S
H1186 C1174 0.960 . S
H1187 C1174 0.962 . S
H1188 C1174 0.960 . S
H1189 C1175 0.961 . S
H1190 C1175 0.961 . S
H1191 C1175 0.961 . S
H1192 C1176 0.931 . S
H1193 C1181 0.930 . S
H1194 C1182 0.956 . S
H1195 C1182 0.961 . S
H1196 C1182 0.961 . S
H1197 C1183 0.958 . S
H1198 C1183 0.961 . S
H1199 C1183 0.960 . S
C1200 C1201 1.391 . S
C1200 C1202 1.394 . S
C1200 H1216 0.931 . S
C1201 C1200 1.391 . S
C1201 C1205 1.376 . S
C1202 C1200 1.394 . S
C1202 C1203 1.369 . S
C1202 C1206 1.531 . S
C1203 C1202 1.369 . S
C1203 C1204 1.410 . S
C1203 C1211 1.503 . S
C1204 C1203 1.410 . S
C1204 C1205 1.392 . S
C1204 C1207 1.511 . S
C1205 C1201 1.376 . S
C1205 C1204 1.392 . S
C1205 H1217 0.929 . S
C1206 C1202 1.531 . S
C1206 H1218 0.960 . S
C1206 H1219 0.962 . S
C1206 H1220 0.960 . S
C1207 C1204 1.511 . S
C1207 H1221 0.961 . S
C1207 H1222 0.961 . S
C1207 H1223 0.961 . S
C1208 C1209 1.370 . S
C1208 C1210 1.363 . S
C1208 H1224 0.931 . S
C1209 C1208 1.370 . S
C1209 C1213 1.408 . S
C1210 C1208 1.363 . S
C1210 C1211 1.370 . S
C1210 C1214 1.524 . S
C1211 C1203 1.503 . S
C1211 C1210 1.370 . S
C1211 C1212 1.403 . S
C1212 C1211 1.403 . S
C1212 C1213 1.404 . S
C1212 C1215 1.539 . S
C1213 C1209 1.408 . S
C1213 C1212 1.404 . S
C1213 H1225 0.930 . S
C1214 C1210 1.524 . S
C1214 H1226 0.956 . S
C1214 H1227 0.961 . S
C1214 H1228 0.961 . S
C1215 C1212 1.539 . S
C1215 H1229 0.958 . S
C1215 H1230 0.961 . S
C1215 H1231 0.960 . S
H1216 C1200 0.931 . S
H1217 C1205 0.929 . S
H1218 C1206 0.960 . S
H1219 C1206 0.962 . S
H1220 C1206 0.960 . S
H1221 C1207 0.961 . S
H1222 C1207 0.961 . S
H1223 C1207 0.961 . S
H1224 C1208 0.931 . S
H1225 C1213 0.930 . S
H1226 C1214 0.956 . S
H1227 C1214 0.961 . S
H1228 C1214 0.961 . S
H1229 C1215 0.958 . S
H1230 C1215 0.961 . S
H1231 C1215 0.960 . S
C209 C199 1.480 . S
C217 C10 1.430 . S
C241 C160 0.921 . S
C249 C23 0.914 . S
C273 C36 1.134 . S
C281 C179 1.109 . S
C305 C186 1.072 . S
C313 C43 1.148 . S
C337 C127 0.917 . S
C345 C62 0.912 . S
C369 C69 1.081 . S
C377 C134 1.149 . S
C401 C82 1.072 . S
C409 C153 1.148 . S
C433 C101 1.449 . S
C441 C114 1.451 . S
C465 C70 1.756 . S
C473 C5 1.690 . S
C497 C81 1.505 . S
C505 C18 1.539 . S
C529 C94 1.737 . S
C537 C31 1.695 . S
C561 C44 1.346 . S
C569 C56 1.333 . S
C593 C4 1.454 . S
C601 C16 1.444 . S
C625 C29 1.360 . S
C633 C17 1.347 . S
C657 C30 1.839 . S
C665 C49 1.821 . S
C689 C3 1.711 . S
C697 C42 1.685 . S
C721 C95 1.435 . S
C729 C55 1.449 . S
C753 C57 1.549 . S
C761 C68 1.481 . S
C785 C75 1.543 . S
C793 C88 1.550 . S
C817 C96 1.673 . S
C825 C83 1.759 . S
C849 C172 1.749 . S
C857 C109 1.670 . S
C881 C122 1.549 . S
C889 C185 1.475 . S
C913 C200 1.737 . S
C921 C133 1.695 . S
C945 C166 1.362 . S
C953 C146 1.367 . S
C977 C108 1.425 . S
C985 C120 1.444 . S
C1009 C121 1.365 . S
C1017 C135 1.368 . S
C1041 C147 1.838 . S
C1049 C140 1.819 . S
C1073 C107 1.716 . S
C1081 C148 1.690 . S
C1105 C205 1.437 . S
C1113 C161 1.449 . S
C1137 C159 1.529 . S
C1145 C174 1.464 . S
C1169 C173 1.534 . S
C1177 C192 1.546 . S
C1201 C198 1.650 . S
C1209 C187 1.758 . S
