# Generated by pormake.
# Topology una, (4)-cn, num edge types: 1
# Building blocks:
#     Node 0, Type 0, BuildingBlock: ICAMEG_clean_sbu_1, # of connection points: 4
#     Node 1, Type 0, BuildingBlock: ICAMEG_clean_sbu_1, # of connection points: 4
#     Node 2, Type 0, BuildingBlock: ICAMEG_clean_sbu_1, # of connection points: 4
#     Node 3, Type 0, BuildingBlock: ICAMEG_clean_sbu_1, # of connection points: 4
#     Node 4, Type 0, BuildingBlock: ICAMEG_clean_sbu_1, # of connection points: 4
#     Node 5, Type 0, BuildingBlock: ICAMEG_clean_sbu_1, # of connection points: 4
#     Node 6, Type 0, BuildingBlock: ICAMEG_clean_sbu_1, # of connection points: 4
#     Node 7, Type 0, BuildingBlock: ICAMEG_clean_sbu_1, # of connection points: 4
#     Node 8, Type 0, BuildingBlock: ICAMEG_clean_sbu_1, # of connection points: 4
#     Node 9, Type 0, BuildingBlock: ICAMEG_clean_sbu_1, # of connection points: 4
#     Node 10, Type 0, BuildingBlock: ICAMEG_clean_sbu_1, # of connection points: 4
#     Node 11, Type 0, BuildingBlock: ICAMEG_clean_sbu_1, # of connection points: 4
#     Edge 12, Type (0, 0), BuildingBlock: CIFDUS_clean_linker_0, # of connection points: 2
#     Edge 13, Type (0, 0), BuildingBlock: CIFDUS_clean_linker_0, # of connection points: 2
#     Edge 14, Type (0, 0), BuildingBlock: CIFDUS_clean_linker_0, # of connection points: 2
#     Edge 15, Type (0, 0), BuildingBlock: CIFDUS_clean_linker_0, # of connection points: 2
#     Edge 16, Type (0, 0), BuildingBlock: CIFDUS_clean_linker_0, # of connection points: 2
#     Edge 17, Type (0, 0), BuildingBlock: CIFDUS_clean_linker_0, # of connection points: 2
#     Edge 18, Type (0, 0), BuildingBlock: CIFDUS_clean_linker_0, # of connection points: 2
#     Edge 19, Type (0, 0), BuildingBlock: CIFDUS_clean_linker_0, # of connection points: 2
#     Edge 20, Type (0, 0), BuildingBlock: CIFDUS_clean_linker_0, # of connection points: 2
#     Edge 21, Type (0, 0), BuildingBlock: CIFDUS_clean_linker_0, # of connection points: 2
#     Edge 22, Type (0, 0), BuildingBlock: CIFDUS_clean_linker_0, # of connection points: 2
#     Edge 23, Type (0, 0), BuildingBlock: CIFDUS_clean_linker_0, # of connection points: 2
#     Edge 24, Type (0, 0), BuildingBlock: CIFDUS_clean_linker_0, # of connection points: 2
#     Edge 25, Type (0, 0), BuildingBlock: CIFDUS_clean_linker_0, # of connection points: 2
#     Edge 26, Type (0, 0), BuildingBlock: CIFDUS_clean_linker_0, # of connection points: 2
#     Edge 27, Type (0, 0), BuildingBlock: CIFDUS_clean_linker_0, # of connection points: 2
#     Edge 28, Type (0, 0), BuildingBlock: CIFDUS_clean_linker_0, # of connection points: 2
#     Edge 29, Type (0, 0), BuildingBlock: CIFDUS_clean_linker_0, # of connection points: 2
#     Edge 30, Type (0, 0), BuildingBlock: CIFDUS_clean_linker_0, # of connection points: 2
#     Edge 31, Type (0, 0), BuildingBlock: CIFDUS_clean_linker_0, # of connection points: 2
#     Edge 32, Type (0, 0), BuildingBlock: CIFDUS_clean_linker_0, # of connection points: 2
#     Edge 33, Type (0, 0), BuildingBlock: CIFDUS_clean_linker_0, # of connection points: 2
#     Edge 34, Type (0, 0), BuildingBlock: CIFDUS_clean_linker_0, # of connection points: 2
#     Edge 35, Type (0, 0), BuildingBlock: CIFDUS_clean_linker_0, # of connection points: 2
# Relax obj value: 0.055
# Max RMSD: 0.083
# Mean RMSD: 0.083
data_MOF--net-una--node1-ICAMEG_clean_sbu_1--edge1-CIFDUS_clean_linker_0
_symmetry_space_group_name_H-M    P1
_symmetry_Int_Tables_number       1
_symmetry_cell_setting            triclinic
loop_
_symmetry_equiv_pos_as_xyz
'x, y, z'
_cell_length_a     55.364755
_cell_length_b     55.412871
_cell_length_c     19.256746
_cell_angle_alpha  89.880269
_cell_angle_beta   90.124523
_cell_angle_gamma 120.04057
loop_
_atom_site_label
_atom_site_type_symbol
_atom_site_fract_x
_atom_site_fract_y
_atom_site_fract_z
_atom_type_partial_charge
Co0 Co 0.18897 0.48906 0.03856 0.0
Co1 Co 0.14027 0.41981 0.04669 0.0
O2 O 0.14984 0.459 0.03555 0.0
C3 C 0.1559 0.51496 0.09738 0.0
O4 O 0.13175 0.4922 0.08794 0.0
C5 C 0.10376 0.41887 0.93043 0.0
O6 O 0.12479 0.44218 0.9071 0.0
O7 O 0.16428 0.42366 0.96515 0.0
O8 O 0.20152 0.46435 0.9951 0.0
H9 H 0.16168 0.34186 0.05938 0.0
H10 H 0.14629 0.49828 0.96478 0.0
O11 O 0.17871 0.51573 0.08235 0.0
H12 H 0.2198 0.5194 0.79239 0.0
H13 H 0.26832 0.58805 0.01895 0.0
H14 H 0.2419 0.49131 0.07826 0.0
H15 H 0.22354 0.50458 0.91053 0.0
H16 H 0.21929 0.55038 0.01072 0.0
O17 O 0.10681 0.40712 0.98396 0.0
H18 H 0.17296 0.39075 0.04808 0.0
H19 H 0.08707 0.3658 0.06477 0.0
H20 H 0.29118 0.52831 0.08665 0.0
H21 H 0.14206 0.51362 0.84809 0.0
H22 H 0.30469 0.5771 0.05688 0.0
H23 H 0.17893 0.52424 0.7605 0.0
O24 O 0.19287 0.47645 0.13253 0.0
H25 H 0.06759 0.43165 0.17316 0.0
H26 H 0.13405 0.39723 0.19074 0.0
H27 H 0.10531 0.39358 0.29215 0.0
H28 H 0.07172 0.4108 0.2837 0.0
H29 H 0.09692 0.4351 0.07317 0.0
H30 H 0.07486 0.31663 0.07562 0.0
H31 H 0.11232 0.3044 0.07325 0.0
O32 O 0.17284 0.43068 0.112 0.0
C33 C 0.19012 0.44183 0.95987 0.0
C34 C 0.14518 0.34693 0.06066 0.0
C35 C 0.09645 0.33277 0.06969 0.0
N36 N 0.13073 0.38117 0.05617 0.0
C37 C 0.15144 0.37459 0.05443 0.0
C38 C 0.10349 0.36065 0.06333 0.0
C39 C 0.11747 0.32592 0.06838 0.0
C40 C 0.16282 0.5035 0.9282 0.0
N41 N 0.18546 0.50113 0.94577 0.0
C42 C 0.16014 0.5119 0.86156 0.0
C43 C 0.18077 0.51776 0.81237 0.0
C44 C 0.20367 0.51504 0.83022 0.0
C45 C 0.20564 0.50659 0.89735 0.0
C46 C 0.26271 0.56686 0.03194 0.0
C47 C 0.2476 0.51244 0.06479 0.0
C48 C 0.23496 0.54544 0.02756 0.0
N49 N 0.22772 0.51859 0.04354 0.0
C50 C 0.27555 0.53333 0.06983 0.0
C51 C 0.2831 0.5607 0.0532 0.0
C52 C 0.1888 0.45231 0.14804 0.0
C53 C 0.08214 0.42406 0.17749 0.0
C54 C 0.11964 0.40496 0.18675 0.0
C55 C 0.10334 0.40274 0.2443 0.0
C56 C 0.08449 0.41238 0.23951 0.0
N57 N 0.11721 0.41643 0.12606 0.0
C58 C 0.09877 0.42592 0.121 0.0
Co59 Co 0.71322 0.17735 0.21641 0.0
Co60 Co 0.73449 0.12928 0.22603 0.0
O61 O 0.70467 0.13843 0.21452 0.0
C62 C 0.65889 0.14542 0.29421 0.0
O63 O 0.66579 0.12719 0.3156 0.0
C64 C 0.70028 0.09422 0.10739 0.0
O65 O 0.6992 0.11593 0.08417 0.0
O66 O 0.75503 0.15378 0.14543 0.0
O67 O 0.7509 0.19063 0.17442 0.0
H68 H 0.83422 0.1518 0.24236 0.0
H69 H 0.66064 0.13503 0.14925 0.0
O70 O 0.67566 0.16611 0.25713 0.0
H71 H 0.71281 0.20401 0.96623 0.0
H72 H 0.69177 0.25517 0.18923 0.0
H73 H 0.76288 0.23085 0.25718 0.0
H74 H 0.73227 0.20996 0.08428 0.0
H75 H 0.68144 0.20648 0.18353 0.0
O76 O 0.71427 0.09632 0.16192 0.0
H77 H 0.79624 0.16256 0.23033 0.0
H78 H 0.73589 0.07638 0.24231 0.0
H79 H 0.77414 0.27983 0.26315 0.0
H80 H 0.6402 0.12854 0.0322 0.0
H81 H 0.73844 0.29227 0.22903 0.0
H82 H 0.66639 0.16312 0.93959 0.0
O83 O 0.72955 0.18175 0.31081 0.0
H84 H 0.64986 0.05424 0.348 0.0
H85 H 0.75011 0.12279 0.37062 0.0
H86 H 0.72476 0.09298 0.47049 0.0
H87 H 0.67428 0.05831 0.45948 0.0
H88 H 0.67593 0.08478 0.24974 0.0
H89 H 0.77323 0.06468 0.25385 0.0
H90 H 0.82281 0.10255 0.2542 0.0
O91 O 0.75538 0.16154 0.2925 0.0
C92 C 0.76248 0.17952 0.14006 0.0
C93 C 0.8127 0.13512 0.24245 0.0
C94 C 0.77847 0.08622 0.24881 0.0
N95 N 0.76388 0.12015 0.23603 0.0
C96 C 0.7911 0.14109 0.23581 0.0
C97 C 0.75742 0.09298 0.24207 0.0
C98 C 0.80628 0.10748 0.24903 0.0
C99 C 0.67201 0.15038 0.10956 0.0
N100 N 0.69757 0.17289 0.1238 0.0
C101 C 0.66039 0.1465 0.04322 0.0
C102 C 0.67513 0.16588 0.99125 0.0
C103 C 0.70118 0.1888 1.00614 0.0
C104 C 0.71215 0.19199 0.07306 0.0
C105 C 0.70751 0.25002 0.20414 0.0
C106 C 0.74727 0.23608 0.24192 0.0
C107 C 0.70177 0.22246 0.2012 0.0
N108 N 0.72159 0.21581 0.21968 0.0
C109 C 0.75375 0.26386 0.24555 0.0
C110 C 0.73371 0.27083 0.22646 0.0
C111 C 0.74949 0.17755 0.32757 0.0
C112 C 0.67187 0.06923 0.35342 0.0
C113 C 0.7281 0.10796 0.36555 0.0
C114 C 0.71388 0.09103 0.42222 0.0
C115 C 0.68557 0.07156 0.41598 0.0
N116 N 0.71451 0.10557 0.30435 0.0
C117 C 0.68677 0.0865 0.29784 0.0
Co118 Co 0.6186 0.72821 0.39371 0.0
Co119 Co 0.55214 0.7149 0.36026 0.0
O120 O 0.57941 0.70235 0.37008 0.0
C121 C 0.62461 0.69857 0.27164 0.0
O122 O 0.60894 0.70569 0.23577 0.0
C123 C 0.52006 0.65636 0.42126 0.0
O124 O 0.5421 0.65336 0.41975 0.0
O125 O 0.56164 0.73141 0.45497 0.0
O126 O 0.6082 0.75121 0.45425 0.0
H127 H 0.52016 0.78501 0.37914 0.0
H128 H 0.59678 0.66772 0.41438 0.0
O129 O 0.63021 0.70577 0.33506 0.0
H130 H 0.62829 0.70999 0.64582 0.0
H131 H 0.7169 0.75336 0.45536 0.0
H132 H 0.65362 0.78967 0.40447 0.0
H133 H 0.63322 0.73923 0.54422 0.0
H134 H 0.6673 0.72121 0.42846 0.0
O135 O 0.52146 0.67903 0.40148 0.0
H136 H 0.55389 0.7684 0.38757 0.0
H137 H 0.49235 0.68823 0.31688 0.0
H138 H 0.70302 0.82254 0.43169 0.0
H139 H 0.59172 0.63773 0.5145 0.0
H140 H 0.73503 0.80441 0.45738 0.0
H141 H 0.60747 0.65885 0.63131 0.0
O142 O 0.62203 0.75189 0.31217 0.0
H143 H 0.53308 0.64296 0.17536 0.0
H144 H 0.54349 0.73495 0.22418 0.0
H145 H 0.53364 0.71675 0.10483 0.0
H146 H 0.52819 0.67033 0.07968 0.0
H147 H 0.54333 0.66207 0.29346 0.0
H148 H 0.45789 0.70392 0.30831 0.0
H149 H 0.47176 0.75267 0.33924 0.0
O150 O 0.5811 0.75111 0.31827 0.0
C151 C 0.58565 0.74841 0.47974 0.0
C152 C 0.51389 0.76375 0.3653 0.0
C153 C 0.47893 0.71822 0.32566 0.0
N154 N 0.52518 0.72744 0.35227 0.0
C155 C 0.53292 0.75424 0.36978 0.0
C156 C 0.49851 0.70943 0.33084 0.0
C157 C 0.48673 0.74558 0.34298 0.0
C158 C 0.60373 0.67708 0.46499 0.0
N159 N 0.61508 0.70517 0.47344 0.0
C160 C 0.60079 0.65998 0.52152 0.0
C161 C 0.60961 0.67184 0.58705 0.0
C162 C 0.62126 0.70053 0.59524 0.0
C163 C 0.62385 0.71696 0.53753 0.0
C164 C 0.70315 0.76151 0.44438 0.0
C165 C 0.66738 0.78162 0.41598 0.0
C166 C 0.67505 0.74341 0.42897 0.0
N167 N 0.65753 0.75356 0.41543 0.0
C168 C 0.69535 0.80033 0.43118 0.0
C169 C 0.71331 0.79015 0.44553 0.0
C170 C 0.60581 0.76099 0.29485 0.0
C171 C 0.53505 0.66306 0.1858 0.0
C172 C 0.5409 0.71461 0.2141 0.0
C173 C 0.53539 0.70445 0.14619 0.0
C174 C 0.53238 0.67844 0.1321 0.0
N175 N 0.54317 0.69928 0.26689 0.0
C176 C 0.54059 0.67391 0.25309 0.0
Co177 Co 0.8416 0.5346 0.54003 0.0
Co178 Co 0.88998 0.60376 0.55261 0.0
O179 O 0.88059 0.56486 0.5404 0.0
C180 C 0.87192 0.51264 0.62469 0.0
O181 O 0.88771 0.53748 0.65146 0.0
C182 C 0.92548 0.60505 0.43516 0.0
O183 O 0.90373 0.58257 0.41075 0.0
O184 O 0.86622 0.60049 0.47095 0.0
O185 O 0.82886 0.55927 0.49683 0.0
H186 H 0.86832 0.68144 0.56871 0.0
H187 H 0.88443 0.52442 0.47627 0.0
O188 O 0.85265 0.50838 0.58186 0.0
H189 H 0.81759 0.509 0.2883 0.0
H190 H 0.76401 0.4354 0.50935 0.0
H191 H 0.78767 0.53058 0.57656 0.0
H192 H 0.81042 0.52186 0.40575 0.0
H193 H 0.81281 0.47384 0.50662 0.0
O194 O 0.92328 0.61658 0.49004 0.0
H195 H 0.85715 0.63265 0.55564 0.0
H196 H 0.94309 0.65771 0.57166 0.0
H197 H 0.73859 0.4928 0.57956 0.0
H198 H 0.89213 0.51112 0.35983 0.0
H199 H 0.72648 0.44478 0.54578 0.0
H200 H 0.85864 0.50344 0.26476 0.0
O201 O 0.83622 0.546 0.63394 0.0
H202 H 0.96342 0.59238 0.67777 0.0
H203 H 0.89564 0.62505 0.69764 0.0
H204 H 0.92452 0.62848 0.79887 0.0
H205 H 0.95879 0.61217 0.78925 0.0
H206 H 0.93381 0.58894 0.57811 0.0
H207 H 0.95521 0.70679 0.58427 0.0
H208 H 0.91765 0.71891 0.58313 0.0
O209 O 0.85727 0.59222 0.61738 0.0
C210 C 0.84053 0.58227 0.46356 0.0
C211 C 0.88486 0.67642 0.56947 0.0
C212 C 0.93363 0.69065 0.57811 0.0
N213 N 0.89942 0.64231 0.56333 0.0
C214 C 0.87866 0.64882 0.56225 0.0
C215 C 0.92664 0.66282 0.57077 0.0
C216 C 0.91255 0.69743 0.5775 0.0
C217 C 0.86956 0.52076 0.43545 0.0
N218 N 0.84698 0.52385 0.44795 0.0
C219 C 0.87412 0.51338 0.36949 0.0
C220 C 0.85535 0.50914 0.31614 0.0
C221 C 0.83234 0.51228 0.32929 0.0
C222 C 0.82846 0.51969 0.39588 0.0
C223 C 0.76901 0.45624 0.52409 0.0
C224 C 0.78258 0.50979 0.56145 0.0
C225 C 0.79663 0.47809 0.52281 0.0
N226 N 0.8031 0.50449 0.54105 0.0
C227 C 0.75474 0.48846 0.5634 0.0
C228 C 0.74796 0.46152 0.54451 0.0
C229 C 0.84063 0.57011 0.65116 0.0
C230 C 0.9486 0.59962 0.68257 0.0
C231 C 0.91032 0.61767 0.69316 0.0
C232 C 0.92671 0.61979 0.7506 0.0
C233 C 0.94596 0.61068 0.74514 0.0
N234 N 0.91302 0.60679 0.63196 0.0
C235 C 0.93187 0.59784 0.62621 0.0
Co236 Co 0.32193 0.8416 0.69119 0.0
Co237 Co 0.29639 0.88562 0.71967 0.0
O238 O 0.32761 0.87937 0.69977 0.0
C239 C 0.37335 0.87155 0.77817 0.0
O240 O 0.36198 0.88393 0.81176 0.0
C241 C 0.33513 0.93186 0.62141 0.0
O242 O 0.35116 0.92082 0.6162 0.0
O243 O 0.27589 0.86274 0.63711 0.0
O244 O 0.2835 0.82702 0.65219 0.0
H245 H 0.195 0.85502 0.75128 0.0
H246 H 0.37348 0.88758 0.62874 0.0
O247 O 0.36013 0.85446 0.72943 0.0
H248 H 0.32207 0.82498 0.43408 0.0
H249 H 0.35093 0.77077 0.63797 0.0
H250 H 0.27514 0.78502 0.72383 0.0
H251 H 0.30324 0.81384 0.55296 0.0
H252 H 0.35736 0.81806 0.6451 0.0
O253 O 0.31307 0.92029 0.65868 0.0
H254 H 0.23514 0.84844 0.72834 0.0
H255 H 0.29078 0.93546 0.74967 0.0
H256 H 0.26775 0.73736 0.71702 0.0
H257 H 0.39327 0.89932 0.51072 0.0
H258 H 0.30583 0.73 0.67385 0.0
H259 H 0.36745 0.86796 0.41231 0.0
O260 O 0.30627 0.83292 0.7862 0.0
H261 H 0.38035 0.95903 0.84924 0.0
H262 H 0.2809 0.88749 0.86671 0.0
H263 H 0.30559 0.91486 0.97015 0.0
H264 H 0.35566 0.95108 0.9618 0.0
H265 H 0.35507 0.93091 0.74762 0.0
H266 H 0.25121 0.94302 0.77211 0.0
H267 H 0.20292 0.9026 0.77334 0.0
O268 O 0.27838 0.85143 0.78213 0.0
C269 C 0.27015 0.83784 0.62475 0.0
C270 C 0.21595 0.87279 0.75104 0.0
C271 C 0.2475 0.92219 0.76263 0.0
N272 N 0.26528 0.89151 0.73807 0.0
C273 C 0.23877 0.86918 0.73826 0.0
C274 C 0.26981 0.91779 0.74966 0.0
C275 C 0.22041 0.8995 0.76336 0.0
C276 C 0.36216 0.87378 0.58627 0.0
N277 N 0.3371 0.85022 0.59777 0.0
C278 C 0.37346 0.88056 0.51951 0.0
C279 C 0.35894 0.86297 0.46431 0.0
C280 C 0.33347 0.83888 0.47647 0.0
C281 C 0.32282 0.83278 0.54391 0.0
C282 C 0.33416 0.7737 0.65673 0.0
C283 C 0.29175 0.78199 0.70458 0.0
C284 C 0.33769 0.80044 0.66101 0.0
N285 N 0.31657 0.8043 0.68441 0.0
C286 C 0.28747 0.75495 0.70102 0.0
C287 C 0.30885 0.75083 0.67686 0.0
C288 C 0.28605 0.83526 0.80978 0.0
C289 C 0.35847 0.94348 0.85341 0.0
C290 C 0.3027 0.90316 0.86246 0.0
C291 C 0.31656 0.91863 0.92131 0.0
C292 C 0.34463 0.93896 0.91659 0.0
N293 N 0.31632 0.90785 0.80037 0.0
C294 C 0.34391 0.92761 0.79563 0.0
Co295 Co 0.41363 0.28864 0.88229 0.0
Co296 Co 0.48299 0.30934 0.87414 0.0
O297 O 0.45285 0.31834 0.87142 0.0
C298 C 0.41258 0.33152 0.78444 0.0
O299 O 0.43981 0.34721 0.78717 0.0
C300 C 0.50894 0.3682 0.93356 0.0
O301 O 0.48649 0.37 0.92264 0.0
O302 O 0.47073 0.29325 0.96818 0.0
O303 O 0.42484 0.2674 0.94847 0.0
H304 H 0.52259 0.24679 0.92272 0.0
H305 H 0.43043 0.34799 0.91452 0.0
O306 O 0.40011 0.30835 0.81721 0.0
H307 H 0.3848 0.2949 0.12635 0.0
H308 H 0.31007 0.24943 0.90893 0.0
H309 H 0.38526 0.22691 0.88466 0.0
H310 H 0.3894 0.27112 0.02372 0.0
H311 H 0.35912 0.28692 0.89859 0.0
O312 O 0.5097 0.34626 0.91779 0.0
H313 H 0.48549 0.2589 0.91472 0.0
H314 H 0.54422 0.34037 0.84508 0.0
H315 H 0.33652 0.1888 0.89554 0.0
H316 H 0.42598 0.37248 0.01539 0.0
H317 H 0.29852 0.19996 0.90777 0.0
H318 H 0.40302 0.34595 0.1226 0.0
O319 O 0.4177 0.26862 0.801 0.0
H320 H 0.50735 0.38028 0.68259 0.0
H321 H 0.49769 0.28966 0.74601 0.0
H322 H 0.51175 0.30761 0.62722 0.0
H323 H 0.51682 0.35332 0.59475 0.0
H324 H 0.49298 0.36142 0.80016 0.0
H325 H 0.582 0.32918 0.85282 0.0
H326 H 0.57127 0.28205 0.89162 0.0
O327 O 0.45822 0.2719 0.83162 0.0
C328 C 0.44663 0.27326 0.98425 0.0
C329 C 0.52751 0.26736 0.90552 0.0
C330 C 0.56086 0.31361 0.86639 0.0
N331 N 0.51259 0.30025 0.87896 0.0
C332 C 0.50657 0.27433 0.90071 0.0
C333 C 0.53938 0.31985 0.86227 0.0
C334 C 0.55482 0.28717 0.88814 0.0
C335 C 0.42008 0.33612 0.9601 0.0
N336 N 0.40979 0.30799 0.96216 0.0
C337 C 0.41776 0.35019 0.01753 0.0
C338 C 0.40494 0.33531 0.0777 0.0
C339 C 0.39472 0.30669 0.07983 0.0
C340 C 0.39742 0.29334 0.02141 0.0
C341 C 0.32645 0.2443 0.90369 0.0
C342 C 0.36887 0.23195 0.89029 0.0
C343 C 0.35425 0.26544 0.89758 0.0
N344 N 0.37507 0.25912 0.89138 0.0
C345 C 0.3413 0.21027 0.89628 0.0
C346 C 0.31998 0.21655 0.90308 0.0
C347 C 0.43574 0.26083 0.79621 0.0
C348 C 0.50537 0.3604 0.69618 0.0
C349 C 0.49974 0.30955 0.73257 0.0
C350 C 0.50778 0.31962 0.66506 0.0
C351 C 0.51063 0.34526 0.64689 0.0
N352 N 0.49475 0.32459 0.78099 0.0
C353 C 0.49736 0.34965 0.76319 0.0
Co354 Co 0.54377 0.84203 0.91457 0.0
Co355 Co 0.61198 0.88911 0.87708 0.0
O356 O 0.57401 0.88071 0.90167 0.0
C357 C 0.51571 0.87265 0.8534 0.0
O358 O 0.53884 0.89687 0.85326 0.0
C359 C 0.61896 0.93667 0.97003 0.0
O360 O 0.59187 0.92535 0.97663 0.0
O361 O 0.61291 0.86851 0.96117 0.0
O362 O 0.57049 0.83072 0.95182 0.0
H363 H 0.68682 0.86439 0.84031 0.0
H364 H 0.53769 0.8876 0.98127 0.0
O365 O 0.51517 0.85078 0.87631 0.0
H366 H 0.5308 0.82528 0.17231 0.0
H367 H 0.4469 0.76611 0.97832 0.0
H368 H 0.53822 0.78693 0.88494 0.0
H369 H 0.53741 0.81485 0.05203 0.0
H370 H 0.48505 0.81475 0.96589 0.0
O371 O 0.62942 0.92478 0.93403 0.0
H372 H 0.63946 0.85504 0.8685 0.0
H373 H 0.66504 0.94048 0.83801 0.0
H374 H 0.50073 0.73801 0.89702 0.0
H375 H 0.5307 0.89859 0.10041 0.0
H376 H 0.45467 0.72733 0.94403 0.0
H377 H 0.52728 0.86737 0.19726 0.0
O378 O 0.55 0.83332 0.81919 0.0
H379 H 0.59303 0.95622 0.74267 0.0
H380 H 0.62679 0.88926 0.72855 0.0
H381 H 0.62531 0.91348 0.62277 0.0
H382 H 0.60847 0.94737 0.62934 0.0
H383 H 0.59451 0.93135 0.84675 0.0
H384 H 0.71275 0.9508 0.81021 0.0
H385 H 0.72386 0.91257 0.81092 0.0
O386 O 0.59661 0.854 0.81851 0.0
C387 C 0.59518 0.84337 0.97635 0.0
C388 C 0.68222 0.88121 0.83965 0.0
C389 C 0.69678 0.92972 0.82286 0.0
N390 N 0.64944 0.89714 0.85448 0.0
C391 C 0.65543 0.87603 0.85541 0.0
C392 C 0.66975 0.92376 0.83887 0.0
C393 C 0.703 0.90826 0.82323 0.0
C394 C 0.53594 0.87371 0.02247 0.0
N395 N 0.53782 0.85052 0.00896 0.0
C396 C 0.5321 0.88013 0.0902 0.0
C397 C 0.53023 0.86264 0.14453 0.0
C398 C 0.53222 0.83905 0.13057 0.0
C399 C 0.53606 0.83331 0.06221 0.0
C400 C 0.4669 0.77049 0.95791 0.0
C401 C 0.5183 0.78247 0.90582 0.0
C402 C 0.48857 0.798 0.95061 0.0
N403 N 0.51393 0.80369 0.92523 0.0
C404 C 0.49712 0.75472 0.91237 0.0
C405 C 0.47127 0.74874 0.93868 0.0
C406 C 0.57263 0.83671 0.79331 0.0
C407 C 0.60057 0.94162 0.73918 0.0
C408 C 0.61936 0.90391 0.73211 0.0
C409 C 0.61862 0.91761 0.67188 0.0
C410 C 0.60919 0.93662 0.6756 0.0
N411 N 0.61108 0.90906 0.79458 0.0
C412 C 0.60162 0.92754 0.79833 0.0
Co413 Co 0.70261 0.53398 0.08635 0.0
Co414 Co 0.72564 0.60157 0.03282 0.0
O415 O 0.69617 0.56468 0.0632 0.0
C416 C 0.65402 0.5088 0.98884 0.0
O417 O 0.66601 0.5316 0.95113 0.0
C418 C 0.70001 0.61417 0.15203 0.0
O419 O 0.70408 0.59639 0.18814 0.0
O420 O 0.74969 0.60466 0.11368 0.0
O421 O 0.73861 0.5602 0.13315 0.0
H422 H 0.82406 0.67536 0.97746 0.0
H423 H 0.65007 0.5321 0.12699 0.0
O424 O 0.66622 0.50654 0.04246 0.0
H425 H 0.69067 0.52189 0.34561 0.0
H426 H 0.67449 0.43665 0.16535 0.0
H427 H 0.75175 0.52623 0.08088 0.0
H428 H 0.71414 0.52625 0.23379 0.0
H429 H 0.66673 0.47579 0.1386 0.0
O430 O 0.70778 0.61912 0.08879 0.0
H431 H 0.78696 0.62882 0.0149 0.0
H432 H 0.72612 0.65339 0.98845 0.0
H433 H 0.7605 0.48771 0.10772 0.0
H434 H 0.62576 0.52757 0.23761 0.0
H435 H 0.72169 0.44252 0.15026 0.0
H436 H 0.64612 0.52251 0.34799 0.0
O437 O 0.72229 0.53862 0.99634 0.0
H438 H 0.63641 0.58218 0.91605 0.0
H439 H 0.73526 0.61041 0.88015 0.0
H440 H 0.70591 0.60609 0.77917 0.0
H441 H 0.65611 0.59196 0.79681 0.0
H442 H 0.66641 0.5864 0.0155 0.0
H443 H 0.7626 0.70029 0.95134 0.0
H444 H 0.81196 0.71147 0.94537 0.0
O445 O 0.74379 0.58471 0.9758 0.0
C446 C 0.75352 0.58635 0.14393 0.0
C447 C 0.80262 0.67071 0.97965 0.0
C448 C 0.76812 0.68472 0.96508 0.0
N449 N 0.75439 0.63834 1.00333 0.0
C450 C 0.78151 0.64438 1.00063 0.0
C451 C 0.74757 0.65815 0.98629 0.0
C452 C 0.79581 0.69097 0.96171 0.0
C453 C 0.65896 0.52972 0.17475 0.0
N454 N 0.68351 0.52946 0.17392 0.0
C455 C 0.64514 0.52723 0.23725 0.0
C456 C 0.65658 0.52442 0.29917 0.0
C457 C 0.68157 0.52407 0.29788 0.0
C458 C 0.69481 0.52662 0.23441 0.0
C459 C 0.69158 0.45625 0.14694 0.0
C460 C 0.7348 0.50668 0.09977 0.0
C461 C 0.68729 0.47846 0.13148 0.0
N462 N 0.70882 0.50333 0.10858 0.0
C463 C 0.73986 0.48492 0.1147 0.0
C464 C 0.71807 0.45956 0.13849 0.0
C465 C 0.73961 0.56031 0.96259 0.0
C466 C 0.65809 0.58843 0.90771 0.0
C467 C 0.71358 0.60408 0.88825 0.0
C468 C 0.69708 0.60177 0.83087 0.0
C469 C 0.66915 0.59387 0.84082 0.0
N470 N 0.70258 0.59871 0.95372 0.0
C471 C 0.67522 0.59099 0.96387 0.0
Co472 Co 0.12875 0.72709 0.2042 0.0
Co473 Co 0.17792 0.70725 0.23291 0.0
O474 O 0.13884 0.69813 0.22139 0.0
C475 C 0.08279 0.68389 0.29669 0.0
O476 O 0.09461 0.66849 0.29862 0.0
C477 C 0.15219 0.65666 0.14008 0.0
O478 O 0.13633 0.66508 0.11039 0.0
O479 O 0.1878 0.72706 0.14185 0.0
O480 O 0.16293 0.74886 0.145 0.0
H481 H 0.28182 0.771 0.22563 0.0
H482 H 0.08786 0.6674 0.16954 0.0
O483 O 0.09386 0.70682 0.26297 0.0
H484 H 0.10107 0.7197 0.95256 0.0
H485 H 0.06348 0.76367 0.15449 0.0
H486 H 0.16088 0.78885 0.20213 0.0
H487 H 0.12623 0.74397 0.05878 0.0
H488 H 0.07585 0.72713 0.17331 0.0
O489 O 0.1698 0.67156 0.18635 0.0
H490 H 0.23258 0.75876 0.21494 0.0
H491 H 0.2061 0.675 0.27143 0.0
H492 H 0.14947 0.82605 0.18297 0.0
H493 H 0.06189 0.64247 0.06521 0.0
H494 H 0.10046 0.81354 0.15896 0.0
H495 H 0.06844 0.66857 0.95534 0.0
O496 O 0.14974 0.74758 0.28862 0.0
H497 H 0.11987 0.62712 0.39326 0.0
H498 H 0.20323 0.72053 0.37468 0.0
H499 H 0.19117 0.69632 0.48764 0.0
H500 H 0.14921 0.64923 0.49748 0.0
H501 H 0.13259 0.65221 0.28146 0.0
H502 H 0.25504 0.68628 0.28209 0.0
H503 H 0.29331 0.73461 0.25941 0.0
O504 O 0.18764 0.74278 0.28268 0.0
C505 C 0.18225 0.74542 0.11928 0.0
C506 C 0.26533 0.74988 0.23582 0.0
C507 C 0.2503 0.70233 0.2674 0.0
N508 N 0.21646 0.71623 0.24284 0.0
C509 C 0.2374 0.74284 0.23001 0.0
C510 C 0.22261 0.69604 0.26103 0.0
C511 C 0.27176 0.72945 0.2547 0.0
C512 C 0.09048 0.67913 0.12287 0.0
N513 N 0.10828 0.70729 0.12123 0.0
C514 C 0.07587 0.66479 0.06345 0.0
C515 C 0.07961 0.67942 1.00179 0.0
C516 C 0.09793 0.70809 1.00019 0.0
C517 C 0.11219 0.72171 0.06061 0.0
C518 C 0.08492 0.76938 0.16482 0.0
C519 C 0.13953 0.78324 0.19135 0.0
C520 C 0.09204 0.74879 0.17573 0.0
N521 N 0.1191 0.75585 0.1884 0.0
C522 C 0.13318 0.80439 0.1807 0.0
C523 C 0.10568 0.79736 0.1673 0.0
C524 C 0.1743 0.75404 0.30749 0.0
C525 C 0.13815 0.64766 0.38972 0.0
C526 C 0.18478 0.70017 0.37864 0.0
C527 C 0.17814 0.68649 0.4427 0.0
C528 C 0.15462 0.66008 0.44817 0.0
N529 N 0.16841 0.68797 0.32165 0.0
C530 C 0.14545 0.66198 0.32653 0.0
Co531 Co 0.48777 0.17509 0.4195 0.0
Co532 Co 0.42014 0.1277 0.36839 0.0
O533 O 0.45821 0.13714 0.39646 0.0
C534 C 0.51735 0.14916 0.34278 0.0
O535 O 0.49427 0.12517 0.33528 0.0
C536 C 0.41231 0.08943 0.48464 0.0
O537 O 0.43198 0.11128 0.51705 0.0
O538 O 0.41636 0.14755 0.45026 0.0
O539 O 0.46027 0.18234 0.46848 0.0
H540 H 0.3426 0.14753 0.319 0.0
H541 H 0.49177 0.12513 0.46374 0.0
O542 O 0.51719 0.16971 0.37209 0.0
H543 H 0.50378 0.17855 0.67759 0.0
H544 H 0.58405 0.24935 0.49367 0.0
H545 H 0.49117 0.23015 0.41584 0.0
H546 H 0.49637 0.19523 0.56544 0.0
H547 H 0.54698 0.20128 0.46798 0.0
O548 O 0.40427 0.09219 0.42455 0.0
H549 H 0.39018 0.15926 0.35352 0.0
H550 H 0.36934 0.07499 0.32564 0.0
H551 H 0.52756 0.27851 0.44174 0.0
H552 H 0.49972 0.10807 0.57423 0.0
H553 H 0.5744 0.28835 0.48096 0.0
H554 H 0.50568 0.13473 0.68256 0.0
O555 O 0.48115 0.18918 0.33046 0.0
H556 H 0.44189 0.06052 0.24747 0.0
H557 H 0.41001 0.12851 0.21633 0.0
H558 H 0.41465 0.10446 0.11409 0.0
H559 H 0.43061 0.07011 0.12931 0.0
H560 H 0.43729 0.08531 0.34823 0.0
H561 H 0.32145 0.06229 0.29145 0.0
H562 H 0.30785 0.09873 0.28768 0.0
O563 O 0.43506 0.16279 0.3113 0.0
C564 C 0.43413 0.16997 0.48024 0.0
C565 C 0.34829 0.13148 0.32026 0.0
C566 C 0.33641 0.08363 0.30488 0.0
N567 N 0.38258 0.11788 0.3411 0.0
C568 C 0.37522 0.13802 0.33958 0.0
C569 C 0.36354 0.09093 0.32444 0.0
C570 C 0.3288 0.10409 0.30275 0.0
C571 C 0.49507 0.13735 0.50975 0.0
N572 N 0.4943 0.1616 0.50714 0.0
C573 C 0.49926 0.12736 0.57265 0.0
C574 C 0.50251 0.14227 0.63344 0.0
C575 C 0.50145 0.16684 0.63068 0.0
C576 C 0.49725 0.17619 0.56685 0.0
C577 C 0.56371 0.24532 0.47674 0.0
C578 C 0.51144 0.23424 0.43334 0.0
C579 C 0.54266 0.21815 0.46189 0.0
N580 N 0.51684 0.21288 0.44093 0.0
C581 C 0.53199 0.26168 0.44771 0.0
C582 C 0.55828 0.26719 0.46963 0.0
C583 C 0.45898 0.18379 0.29748 0.0
C584 C 0.4349 0.07543 0.24016 0.0
C585 C 0.41723 0.1138 0.22338 0.0
C586 C 0.41968 0.10014 0.16529 0.0
C587 C 0.4286 0.08084 0.17387 0.0
N588 N 0.42347 0.1084 0.28824 0.0
C589 C 0.43217 0.08947 0.29706 0.0
Co590 Co 0.3287 0.48945 0.58102 0.0
Co591 Co 0.3052 0.42108 0.53185 0.0
O592 O 0.33509 0.45867 0.5578 0.0
C593 C 0.37624 0.51422 0.47976 0.0
O594 O 0.36546 0.49038 0.44659 0.0
C595 C 0.33584 0.41261 0.64704 0.0
O596 O 0.33498 0.43309 0.67883 0.0
O597 O 0.28237 0.41889 0.61437 0.0
O598 O 0.29395 0.46349 0.63269 0.0
H599 H 0.20611 0.34639 0.48682 0.0
H600 H 0.38287 0.49348 0.61487 0.0
O601 O 0.36383 0.51694 0.53212 0.0
H602 H 0.34641 0.50504 0.83815 0.0
H603 H 0.35686 0.58734 0.65435 0.0
H604 H 0.27891 0.49616 0.58095 0.0
H605 H 0.32012 0.49849 0.7296 0.0
H606 H 0.36489 0.54842 0.62766 0.0
O607 O 0.32401 0.40424 0.58809 0.0
H608 H 0.24367 0.3935 0.51881 0.0
H609 H 0.30423 0.36869 0.4912 0.0
H610 H 0.2699 0.53446 0.60786 0.0
H611 H 0.41009 0.50043 0.72199 0.0
H612 H 0.30905 0.58045 0.64483 0.0
H613 H 0.3918 0.5061 0.83473 0.0
O614 O 0.30706 0.48332 0.49363 0.0
H615 H 0.39256 0.4389 0.40852 0.0
H616 H 0.29314 0.41002 0.38052 0.0
H617 H 0.32085 0.41283 0.2776 0.0
H618 H 0.37092 0.42727 0.29127 0.0
H619 H 0.36418 0.43619 0.50993 0.0
H620 H 0.2673 0.32123 0.45955 0.0
H621 H 0.21784 0.30987 0.45693 0.0
O622 O 0.28604 0.43714 0.47453 0.0
C623 C 0.27911 0.43745 0.6449 0.0
C624 C 0.22758 0.3511 0.48759 0.0
C625 C 0.26193 0.33698 0.47238 0.0
N626 N 0.27611 0.38388 0.50643 0.0
C627 C 0.24895 0.37776 0.50549 0.0
C628 C 0.28274 0.36386 0.49052 0.0
C629 C 0.23418 0.33062 0.47089 0.0
C630 C 0.37491 0.49622 0.66361 0.0
N631 N 0.3499 0.4955 0.66599 0.0
C632 C 0.39037 0.50004 0.72414 0.0
C633 C 0.38007 0.50318 0.7874 0.0
C634 C 0.3546 0.50256 0.78937 0.0
C635 C 0.33974 0.49871 0.72778 0.0
C636 C 0.33962 0.56738 0.63841 0.0
C637 C 0.29602 0.51606 0.59745 0.0
C638 C 0.34405 0.54528 0.62303 0.0
N639 N 0.32234 0.51997 0.60322 0.0
C640 C 0.2908 0.53769 0.61241 0.0
C641 C 0.31279 0.5635 0.63308 0.0
C642 C 0.28967 0.46136 0.46091 0.0
C643 C 0.37074 0.4325 0.40192 0.0
C644 C 0.31496 0.41651 0.38687 0.0
C645 C 0.33052 0.41795 0.32842 0.0
C646 C 0.3586 0.42603 0.33613 0.0
N647 N 0.32701 0.42288 0.45125 0.0
C648 C 0.35453 0.43079 0.45922 0.0
Co649 Co 0.89628 0.29563 0.7101 0.0
Co650 Co 0.84947 0.31665 0.76149 0.0
O651 O 0.88741 0.32482 0.73708 0.0
C652 C 0.94495 0.33712 0.79957 0.0
O653 O 0.93283 0.35196 0.8094 0.0
C654 C 0.87468 0.37125 0.6806 0.0
O655 O 0.89884 0.37251 0.67356 0.0
O656 O 0.83469 0.29553 0.67368 0.0
O657 O 0.86028 0.27503 0.65613 0.0
H658 H 0.7461 0.25323 0.78852 0.0
H659 H 0.93744 0.35556 0.67818 0.0
O660 O 0.93308 0.31485 0.76315 0.0
H661 H 0.91545 0.30699 0.45322 0.0
H662 H 0.95881 0.25925 0.63113 0.0
H663 H 0.86345 0.23396 0.70213 0.0
H664 H 0.89352 0.28113 0.56054 0.0
H665 H 0.9477 0.29567 0.66325 0.0
O666 O 0.85449 0.35094 0.71212 0.0
H667 H 0.79428 0.26498 0.76117 0.0
H668 H 0.82371 0.35004 0.80914 0.0
H669 H 0.87359 0.19689 0.66977 0.0
H670 H 0.96012 0.38206 0.57253 0.0
H671 H 0.92157 0.20946 0.63397 0.0
H672 H 0.94917 0.35783 0.4587 0.0
O673 O 0.8776 0.27353 0.79516 0.0
H674 H 0.91565 0.39798 0.91139 0.0
H675 H 0.83064 0.30549 0.90833 0.0
H676 H 0.84752 0.33043 0.0192 0.0
H677 H 0.89029 0.37713 0.02132 0.0
H678 H 0.89837 0.37215 0.80222 0.0
H679 H 0.77581 0.33925 0.83628 0.0
H680 H 0.73662 0.29052 0.82636 0.0
O681 O 0.84247 0.2822 0.81198 0.0
C682 C 0.83949 0.27822 0.64187 0.0
C683 C 0.76301 0.27452 0.79328 0.0
C684 C 0.77969 0.32281 0.81997 0.0
N685 N 0.81183 0.30811 0.78411 0.0
C686 C 0.79035 0.28129 0.77808 0.0
C687 C 0.80676 0.3288 0.80433 0.0
C688 C 0.75771 0.29546 0.81443 0.0
C689 C 0.93276 0.34466 0.6295 0.0
N690 N 0.91434 0.31667 0.6263 0.0
C691 C 0.94559 0.35988 0.56948 0.0
C692 C 0.93939 0.3463 0.50562 0.0
C693 C 0.92048 0.31779 0.50252 0.0
C694 C 0.90805 0.30327 0.56361 0.0
C695 C 0.93781 0.25351 0.64659 0.0
C696 C 0.88435 0.2396 0.68629 0.0
C697 C 0.93142 0.27403 0.66505 0.0
N698 N 0.90491 0.26695 0.68422 0.0
C699 C 0.88998 0.21851 0.66817 0.0
C700 C 0.91691 0.22558 0.64815 0.0
C701 C 0.8552 0.26891 0.82528 0.0
C702 C 0.89694 0.37768 0.91116 0.0
C703 C 0.84939 0.3257 0.9086 0.0
C704 C 0.85878 0.33978 0.97167 0.0
C705 C 0.88274 0.36597 0.97283 0.0
N706 N 0.86341 0.33726 0.84811 0.0
C707 C 0.88691 0.36295 0.84907 0.0
H708 H 0.22858 0.49347 0.23016 0.0
H709 H 0.18516 0.40435 0.1987 0.0
H710 H 0.21223 0.3993 0.29174 0.0
H711 H 0.24873 0.42003 0.38137 0.0
H712 H 0.29213 0.50916 0.41295 0.0
H713 H 0.26465 0.51414 0.32087 0.0
C714 C 0.22487 0.47289 0.24377 0.0
C715 C 0.20469 0.44936 0.20706 0.0
C716 C 0.24066 0.47006 0.29743 0.0
C717 C 0.20043 0.42291 0.2257 0.0
C718 C 0.21598 0.41996 0.27903 0.0
C719 C 0.25226 0.44058 0.36826 0.0
C720 C 0.27269 0.46416 0.40441 0.0
C721 C 0.23626 0.44338 0.31509 0.0
C722 C 0.2767 0.49057 0.38633 0.0
C723 C 0.26093 0.49348 0.33352 0.0
H724 H 0.84051 0.23747 0.56333 0.0
H725 H 0.79383 0.27996 0.59328 0.0
H726 H 0.76184 0.25245 0.50067 0.0
H727 H 0.74721 0.21677 0.40959 0.0
H728 H 0.7938 0.17419 0.37972 0.0
H729 H 0.82537 0.20116 0.4736 0.0
C730 C 0.82336 0.24076 0.54976 0.0
C731 C 0.81984 0.26098 0.58555 0.0
C732 C 0.80483 0.22476 0.49623 0.0
C733 C 0.79728 0.2647 0.56693 0.0
C734 C 0.77887 0.24892 0.5138 0.0
C735 C 0.76416 0.21322 0.42373 0.0
C736 C 0.76793 0.19332 0.38719 0.0
C737 C 0.78245 0.22893 0.47791 0.0
C738 C 0.79019 0.18925 0.40656 0.0
C739 C 0.80838 0.20474 0.46038 0.0
H740 H 0.54344 0.75145 0.54545 0.0
H741 H 0.63289 0.78671 0.54796 0.0
H742 H 0.63685 0.81716 0.64375 0.0
H743 H 0.61508 0.83403 0.72734 0.0
H744 H 0.52558 0.79847 0.72488 0.0
H745 H 0.52172 0.76819 0.62894 0.0
C746 C 0.56383 0.7657 0.56697 0.0
C747 C 0.58777 0.76656 0.53923 0.0
C748 C 0.56605 0.78331 0.62225 0.0
C749 C 0.614 0.78539 0.568 0.0
C750 C 0.61634 0.80292 0.62292 0.0
C751 C 0.59472 0.81973 0.70581 0.0
C752 C 0.57071 0.81872 0.73367 0.0
C753 C 0.59252 0.80211 0.65048 0.0
C754 C 0.54451 0.79988 0.70483 0.0
C755 C 0.54221 0.78244 0.6498 0.0
H756 H 0.79988 0.52834 0.73033 0.0
H757 H 0.84484 0.61781 0.70423 0.0
H758 H 0.81767 0.62249 0.79695 0.0
H759 H 0.7809 0.60152 0.88473 0.0
H760 H 0.73586 0.51216 0.9124 0.0
H761 H 0.76325 0.50729 0.81991 0.0
C762 C 0.80388 0.54889 0.74507 0.0
C763 C 0.82455 0.57265 0.70995 0.0
C764 C 0.78804 0.55153 0.79868 0.0
C765 C 0.8292 0.59908 0.72998 0.0
C766 C 0.81359 0.60183 0.78312 0.0
C767 C 0.77695 0.58091 0.87069 0.0
C768 C 0.75615 0.55725 0.90574 0.0
C769 C 0.79289 0.57822 0.81764 0.0
C770 C 0.75161 0.53079 0.88652 0.0
C771 C 0.76733 0.52796 0.83355 0.0
H772 H 0.24123 0.83299 0.87626 0.0
H773 H 0.2941 0.79631 0.87751 0.0
H774 H 0.26692 0.7655 0.97227 0.0
H775 H 0.22778 0.74835 0.0546 0.0
H776 H 0.17521 0.78538 0.05371 0.0
H777 H 0.20254 0.81633 0.95952 0.0
C778 C 0.24692 0.81834 0.89728 0.0
C779 C 0.26981 0.81716 0.86933 0.0
C780 C 0.23112 0.8005 0.95201 0.0
C781 C 0.2767 0.7979 0.89767 0.0
C782 C 0.2611 0.78013 0.95199 0.0
C783 C 0.22221 0.76312 0.03379 0.0
C784 C 0.1992 0.7642 0.06139 0.0
C785 C 0.23818 0.78115 0.97947 0.0
C786 C 0.1926 0.78376 0.03368 0.0
C787 C 0.2083 0.80161 0.97965 0.0
H788 H 0.4168 0.18199 0.21849 0.0
H789 H 0.5061 0.22957 0.24845 0.0
H790 H 0.50999 0.26145 0.1561 0.0
H791 H 0.48838 0.27582 0.06585 0.0
H792 H 0.39912 0.22848 0.03572 0.0
H793 H 0.39507 0.19682 0.12908 0.0
C794 C 0.43716 0.1993 0.20493 0.0
C795 C 0.46111 0.20314 0.24069 0.0
C796 C 0.43933 0.21778 0.15165 0.0
C797 C 0.48724 0.22588 0.22211 0.0
C798 C 0.48953 0.24423 0.16917 0.0
C799 C 0.46798 0.25869 0.07979 0.0
C800 C 0.44411 0.25472 0.04342 0.0
C801 C 0.46574 0.24039 0.13351 0.0
C802 C 0.41791 0.23222 0.0625 0.0
C803 C 0.41554 0.214 0.11597 0.0
H804 H 0.11888 0.53228 0.0647 0.0
H805 H 0.19688 0.55773 0.16981 0.0
H806 H 0.20256 0.60365 0.1917 0.0
H807 H 0.18634 0.63701 0.17811 0.0
H808 H 0.10954 0.61322 0.06872 0.0
H809 H 0.10262 0.56641 0.05043 0.0
C810 C 0.13686 0.54777 0.09335 0.0
C811 C 0.15727 0.5415 0.1164 0.0
C812 C 0.14043 0.57456 0.10397 0.0
C813 C 0.1808 0.56199 0.15197 0.0
C814 C 0.18413 0.5883 0.16422 0.0
C815 C 0.16804 0.62165 0.15023 0.0
C816 C 0.14849 0.62871 0.12487 0.0
C817 C 0.16426 0.59491 0.13981 0.0
C818 C 0.12503 0.60848 0.08844 0.0
C819 C 0.12098 0.58163 0.07834 0.0
H820 H 0.64229 0.18368 0.28115 0.0
H821 H 0.61191 0.09779 0.33719 0.0
H822 H 0.56485 0.0907 0.35227 0.0
H823 H 0.53231 0.10918 0.35004 0.0
H824 H 0.56401 0.19583 0.30021 0.0
H825 H 0.61046 0.20222 0.2811 0.0
C826 C 0.62541 0.16337 0.2967 0.0
C827 C 0.63067 0.14129 0.30789 0.0
C828 C 0.59854 0.15952 0.30569 0.0
C829 C 0.60853 0.1152 0.32863 0.0
C830 C 0.58157 0.11109 0.33685 0.0
C831 C 0.54934 0.12932 0.33405 0.0
C832 C 0.54467 0.15192 0.3256 0.0
C833 C 0.57629 0.13309 0.32527 0.0
C834 C 0.56706 0.17809 0.30654 0.0
C835 C 0.59364 0.18179 0.2959 0.0
H836 H 0.3967 0.56893 0.508 0.0
H837 H 0.41821 0.51247 0.40901 0.0
H838 H 0.46527 0.55126 0.38567 0.0
H839 H 0.50052 0.60141 0.3945 0.0
H840 H 0.4774 0.6579 0.48616 0.0
H841 H 0.43087 0.61892 0.51201 0.0
C842 C 0.41166 0.5651 0.48112 0.0
C843 C 0.40399 0.53783 0.46048 0.0
C844 C 0.43848 0.58751 0.46718 0.0
C845 C 0.42352 0.53328 0.42508 0.0
C846 C 0.45049 0.55543 0.41212 0.0
C847 C 0.48533 0.60507 0.42073 0.0
C848 C 0.49247 0.63241 0.43941 0.0
C849 C 0.45827 0.58263 0.43334 0.0
C850 C 0.47242 0.63701 0.47178 0.0
C851 C 0.44581 0.61475 0.48638 0.0
H852 H 0.83668 0.45758 0.60346 0.0
H853 H 0.9191 0.51557 0.67969 0.0
H854 H 0.92824 0.47709 0.69836 0.0
H855 H 0.91236 0.42658 0.69414 0.0
H856 H 0.82872 0.369 0.62507 0.0
H857 H 0.82064 0.40773 0.60128 0.0
C858 C 0.85668 0.46187 0.62416 0.0
C859 C 0.87719 0.48944 0.64005 0.0
C860 C 0.86164 0.4397 0.63532 0.0
C861 C 0.90288 0.49453 0.66744 0.0
C862 C 0.90817 0.47255 0.67772 0.0
C863 C 0.89257 0.42266 0.67285 0.0
C864 C 0.87129 0.39508 0.66025 0.0
C865 C 0.88772 0.44502 0.66168 0.0
C866 C 0.84545 0.39011 0.63451 0.0
C867 C 0.84078 0.41221 0.62125 0.0
H868 H 0.39509 0.83862 0.74958 0.0
H869 H 0.41496 0.91624 0.84819 0.0
H870 H 0.46186 0.92472 0.87584 0.0
H871 H 0.49696 0.90927 0.87382 0.0
H872 H 0.47471 0.82981 0.78225 0.0
H873 H 0.42913 0.823 0.74918 0.0
C874 C 0.40969 0.85749 0.77689 0.0
C875 C 0.40159 0.87683 0.79656 0.0
C876 C 0.43627 0.86193 0.79353 0.0
C877 C 0.42066 0.90097 0.83271 0.0
C878 C 0.4475 0.90586 0.84827 0.0
C879 C 0.48218 0.89068 0.84588 0.0
C880 C 0.48919 0.87018 0.8298 0.0
C881 C 0.45554 0.88644 0.82904 0.0
C882 C 0.46974 0.84589 0.79493 0.0
C883 C 0.44368 0.84195 0.77616 0.0
H884 H 0.53063 0.4223 0.8929 0.0
H885 H 0.54661 0.36843 0.02315 0.0
H886 H 0.59266 0.40734 0.05269 0.0
H887 H 0.62903 0.4559 0.03778 0.0
H888 H 0.61516 0.50977 0.90173 0.0
H889 H 0.56781 0.47163 0.8774 0.0
C890 C 0.54408 0.41933 0.92868 0.0
C891 C 0.53518 0.39271 0.95674 0.0
C892 C 0.57102 0.44164 0.94342 0.0
C893 C 0.553 0.38882 1.00151 0.0
C894 C 0.57935 0.41101 0.0181 0.0
C895 C 0.61568 0.4594 1.00288 0.0
C896 C 0.62566 0.48569 0.97164 0.0
C897 C 0.58871 0.43738 0.98865 0.0
C898 C 0.60808 0.4897 0.92612 0.0
C899 C 0.58095 0.46793 0.91249 0.0
H900 H 0.28884 0.45238 0.77839 0.0
H901 H 0.22236 0.40459 0.63421 0.0
H902 H 0.18771 0.3988 0.7224 0.0
H903 H 0.17711 0.41243 0.83699 0.0
H904 H 0.24527 0.46168 0.97718 0.0
H905 H 0.27838 0.46185 0.89451 0.0
C906 C 0.26675 0.4405 0.76663 0.0
C907 C 0.25805 0.42918 0.70017 0.0
C908 C 0.24726 0.43776 0.81685 0.0
C909 C 0.22941 0.41336 0.68548 0.0
C910 C 0.20968 0.41027 0.73568 0.0
C911 C 0.19913 0.42267 0.84979 0.0
C912 C 0.20868 0.43734 0.91288 0.0
C913 C 0.2184 0.42307 0.8011 0.0
C914 C 0.23734 0.4506 0.92866 0.0
C915 C 0.25637 0.45071 0.88143 0.0
H916 H 0.77906 0.16681 0.01742 0.0
H917 H 0.7978 0.2346 0.15799 0.0
H918 H 0.83108 0.26785 0.0757 0.0
H919 H 0.85112 0.27851 0.95948 0.0
H920 H 0.83177 0.21233 0.81441 0.0
H921 H 0.8032 0.17757 0.90279 0.0
C922 C 0.7909 0.18878 0.0304 0.0
C923 C 0.78569 0.19821 0.09347 0.0
C924 C 0.80985 0.20811 0.98187 0.0
C925 C 0.80109 0.22679 0.10949 0.0
C926 C 0.82019 0.24589 0.06248 0.0
C927 C 0.8409 0.25645 0.94766 0.0
C928 C 0.84328 0.24788 0.88091 0.0
C929 C 0.82411 0.2369 0.99785 0.0
C930 C 0.83033 0.21929 0.86597 0.0
C931 C 0.81381 0.1995 0.91626 0.0
H932 H 0.59856 0.75137 0.15858 0.0
H933 H 0.62962 0.81714 0.31011 0.0
H934 H 0.63317 0.85043 0.22052 0.0
H935 H 0.62115 0.85891 0.10216 0.0
H936 H 0.58505 0.79105 0.95575 0.0
H937 H 0.58974 0.76047 0.03939 0.0
C938 C 0.6068 0.77319 0.17123 0.0
C939 C 0.61424 0.7821 0.23997 0.0
C940 C 0.60747 0.79168 0.12035 0.0
C941 C 0.62429 0.81014 0.25687 0.0
C942 C 0.62604 0.82902 0.20586 0.0
C943 C 0.61507 0.83765 0.08828 0.0
C944 C 0.60293 0.8272 0.02301 0.0
C945 C 0.61684 0.81983 0.13781 0.0
C946 C 0.59449 0.79946 1.00579 0.0
C947 C 0.5971 0.78197 0.05359 0.0
H948 H 0.85444 0.60977 0.33842 0.0
H949 H 0.78603 0.56533 0.48102 0.0
H950 H 0.75362 0.56609 0.39674 0.0
H951 H 0.74373 0.57475 0.27888 0.0
H952 H 0.8104 0.61646 0.13152 0.0
H953 H 0.84464 0.62218 0.22123 0.0
C954 C 0.83255 0.60084 0.35132 0.0
C955 C 0.8226 0.58733 0.41565 0.0
C956 C 0.81372 0.60075 0.3016 0.0
C957 C 0.79414 0.5756 0.43162 0.0
C958 C 0.77556 0.57601 0.38348 0.0
C959 C 0.76579 0.5853 0.26677 0.0
C960 C 0.77466 0.59493 0.19911 0.0
C961 C 0.78497 0.58776 0.31774 0.0
C962 C 0.80326 0.60903 0.18374 0.0
C963 C 0.82273 0.61206 0.23482 0.0
H964 H 0.17893 0.74233 0.43999 0.0
H965 H 0.20061 0.81083 0.30027 0.0
H966 H 0.23024 0.84396 0.39032 0.0
H967 H 0.25404 0.85259 0.50489 0.0
H968 H 0.23464 0.7826 0.63849 0.0
H969 H 0.20033 0.75086 0.55505 0.0
C970 C 0.19006 0.76453 0.42961 0.0
C971 C 0.18789 0.77426 0.36401 0.0
C972 C 0.20766 0.78312 0.48048 0.0
C973 C 0.20195 0.80303 0.35093 0.0
C974 C 0.219 0.82188 0.40217 0.0
C975 C 0.24186 0.83047 0.51607 0.0
C976 C 0.24688 0.81992 0.57764 0.0
C977 C 0.22262 0.8121 0.46662 0.0
C978 C 0.23125 0.79117 0.59126 0.0
C979 C 0.21162 0.77299 0.54361 0.0
H980 H 0.40755 0.24553 0.67169 0.0
H981 H 0.4543 0.22462 0.81528 0.0
H982 H 0.45476 0.1919 0.73231 0.0
H983 H 0.44673 0.17314 0.61486 0.0
H984 H 0.40182 0.19427 0.46731 0.0
H985 H 0.39514 0.22239 0.55579 0.0
C986 C 0.41726 0.23332 0.68515 0.0
C987 C 0.43116 0.23778 0.74926 0.0
C988 C 0.41791 0.21469 0.63629 0.0
C989 C 0.44379 0.2219 0.76595 0.0
C990 C 0.44407 0.20314 0.71856 0.0
C991 C 0.43515 0.18362 0.60258 0.0
C992 C 0.42491 0.18192 0.53517 0.0
C993 C 0.43199 0.20002 0.65295 0.0
C994 C 0.40968 0.19524 0.51941 0.0
C995 C 0.4061 0.21146 0.56978 0.0
H996 H 0.06195 0.36458 0.92496 0.0
H997 H 0.08221 0.4478 0.86639 0.0
H998 H 0.03471 0.43002 0.82299 0.0
H999 H 0.98696 0.3909 0.80387 0.0
H1000 H 0.96777 0.30713 0.85165 0.0
H1001 H 1.01514 0.32489 0.89698 0.0
C1002 C 0.05597 0.37876 0.90229 0.0
C1003 C 0.07557 0.40751 0.89919 0.0
C1004 C 0.02874 0.36827 0.87584 0.0
C1005 C 0.0676 0.42559 0.86908 0.0
C1006 C 0.04038 0.41545 0.84456 0.0
C1007 C 0.99318 0.37657 0.82439 0.0
C1008 C 0.97379 0.34778 0.82547 0.0
C1009 C 0.02071 0.38687 0.84814 0.0
C1010 C 0.98228 0.32938 0.85067 0.0
C1011 C 1.00935 0.33954 0.87659 0.0
H1012 H 0.6096 0.98023 0.97312 0.0
H1013 H 0.67028 0.95654 0.02905 0.0
H1014 H 0.70087 1.00312 0.07719 0.0
H1015 H 0.71004 0.0506 0.10461 0.0
H1016 H 0.65118 0.07539 0.03812 0.0
H1017 H 0.62034 0.0286 0.99246 0.0
C1018 C 0.62948 0.98529 0.99616 0.0
C1019 C 0.63752 0.96489 0.99865 0.0
C1020 C 0.64735 0.01239 0.02144 0.0
C1021 C 0.66361 0.97187 0.02702 0.0
C1022 C 0.68108 0.99849 0.05448 0.0
C1023 C 0.69052 0.04576 0.07975 0.0
C1024 C 0.68287 0.06643 0.075 0.0
C1025 C 0.67315 0.01892 0.05212 0.0
C1026 C 0.65765 0.05993 0.04209 0.0
C1027 C 0.63992 0.03312 0.0163 0.0
H1028 H 0.67586 0.6407 0.08744 0.0
H1029 H 0.69303 0.61947 0.29027 0.0
H1030 H 0.67119 0.6435 0.34486 0.0
H1031 H 0.64777 0.6711 0.33534 0.0
H1032 H 0.62865 0.69068 0.1328 0.0
H1033 H 0.65053 0.66664 0.07793 0.0
C1034 C 0.67487 0.64138 0.14361 0.0
C1035 C 0.6863 0.62847 0.18468 0.0
C1036 C 0.66186 0.6549 0.17477 0.0
C1037 C 0.68447 0.62923 0.25736 0.0
C1038 C 0.67199 0.64301 0.28868 0.0
C1039 C 0.64835 0.6701 0.27916 0.0
C1040 C 0.63672 0.68287 0.23828 0.0
C1041 C 0.6607 0.65599 0.24794 0.0
C1042 C 0.63741 0.68106 0.16557 0.0
C1043 C 0.65 0.66737 0.13412 0.0
H1044 H 0.03952 0.63065 0.29694 0.0
H1045 H 0.06325 0.71383 0.36361 0.0
H1046 H 0.01676 0.69683 0.41318 0.0
H1047 H 0.96926 0.65818 0.43754 0.0
H1048 H 0.9442 0.57582 0.36107 0.0
H1049 H 0.99109 0.59256 0.31484 0.0
C1050 C 0.0345 0.64496 0.32281 0.0
C1051 C 0.05485 0.67335 0.32774 0.0
C1052 C 1.00741 0.63519 0.34887 0.0
C1053 C 0.04794 0.69185 0.35973 0.0
C1054 C 0.02138 0.68214 0.38793 0.0
C1055 C 0.97407 0.64395 0.41049 0.0
C1056 C 0.95331 0.61578 0.40293 0.0
C1057 C 1.00092 0.65386 0.38273 0.0
C1058 C 0.95975 0.59763 0.36721 0.0
C1059 C 0.98661 0.60716 0.3411 0.0
H1060 H 0.3593 0.04491 0.47806 0.0
H1061 H 0.44141 0.07098 0.55916 0.0
H1062 H 0.42508 0.02428 0.60576 0.0
H1063 H 0.38755 0.97586 0.62322 0.0
H1064 H 0.30415 0.95067 0.55436 0.0
H1065 H 0.32067 0.99701 0.50339 0.0
C1066 C 0.37352 0.04028 0.50609 0.0
C1067 C 0.40156 0.06129 0.5149 0.0
C1068 C 0.36373 0.01352 0.53478 0.0
C1069 C 0.41973 0.05519 0.55199 0.0
C1070 C 0.41042 0.02846 0.57843 0.0
C1071 C 0.37305 0.98054 0.59675 0.0
C1072 C 0.34479 0.95984 0.59143 0.0
C1073 C 0.38251 1.00744 0.57001 0.0
C1074 C 0.32604 0.96628 0.55862 0.0
C1075 C 0.33549 0.99274 0.52951 0.0
H1076 H 0.32738 0.3597 0.6351 0.0
H1077 H 0.38267 0.4401 0.72545 0.0
H1078 H 0.4122 0.42269 0.77174 0.0
H1079 H 0.42228 0.38452 0.78783 0.0
H1080 H 0.36461 0.30271 0.70911 0.0
H1081 H 0.33615 0.32058 0.65699 0.0
C1082 C 0.3459 0.37334 0.66498 0.0
C1083 C 0.35286 0.40119 0.67663 0.0
C1084 C 0.36242 0.36292 0.69335 0.0
C1085 C 0.37675 0.41856 0.71605 0.0
C1086 C 0.39373 0.40865 0.74234 0.0
C1087 C 0.4036 0.37069 0.75869 0.0
C1088 C 0.39579 0.34245 0.75122 0.0
C1089 C 0.3868 0.38089 0.73135 0.0
C1090 C 0.37115 0.32458 0.71501 0.0
C1091 C 0.35487 0.3348 0.68533 0.0
loop_
_geom_bond_atom_site_label_1
_geom_bond_atom_site_label_2
_geom_bond_distance
_geom_bond_site_symmetry_2
_ccdc_geom_bond_type
Co0 O2 2.143 . S
Co0 O8 2.074 1_554 S
Co0 O11 2.093 . S
Co0 O24 2.097 . S
Co0 N41 2.151 1_554 S
Co0 N49 2.214 . S
Co1 O2 2.160 . S
Co1 O7 2.058 1_554 S
Co1 O17 2.057 1_554 S
Co1 O32 2.037 . S
Co1 N36 2.145 . S
Co1 N57 2.257 . S
O2 Co0 2.143 . S
O2 Co1 2.160 . S
C3 O4 1.278 . S
C3 O11 1.224 . S
O4 C3 1.278 . S
C5 O6 1.245 . S
C5 O17 1.232 . S
O6 C5 1.245 . S
O7 Co1 2.058 1_556 S
O7 C33 1.269 . S
O8 Co0 2.074 1_556 S
O8 C33 1.257 . S
H9 C34 0.930 . S
H10 C40 0.930 . S
O11 Co0 2.093 . S
O11 C3 1.224 . S
H12 C44 0.929 . S
H13 C46 0.930 . S
H14 C47 0.930 . S
H15 C45 0.929 . S
H16 C48 0.928 . S
O17 Co1 2.057 1_556 S
O17 C5 1.232 . S
H18 C37 0.929 . S
H19 C38 0.929 . S
H20 C50 0.931 . S
H21 C42 0.929 . S
H22 C51 0.930 . S
H23 C43 0.931 . S
O24 Co0 2.097 . S
O24 C52 1.214 . S
H25 C53 0.929 . S
H26 C54 0.929 . S
H27 C55 0.930 . S
H28 C56 0.929 . S
H29 C58 0.930 . S
H30 C35 0.930 . S
H31 C39 0.930 . S
O32 Co1 2.037 . S
O32 C52 1.234 . S
C33 O7 1.269 . S
C33 O8 1.257 . S
C34 H9 0.930 . S
C34 C37 1.388 . S
C34 C39 1.418 . S
C35 H30 0.930 . S
C35 C38 1.404 . S
C35 C39 1.353 . S
N36 Co1 2.145 . S
N36 C37 1.397 . S
N36 C38 1.334 . S
C37 H18 0.929 . S
C37 C34 1.388 . S
C37 N36 1.397 . S
C38 H19 0.929 . S
C38 C35 1.404 . S
C38 N36 1.334 . S
C39 H31 0.930 . S
C39 C34 1.418 . S
C39 C35 1.353 . S
C40 H10 0.930 . S
C40 N41 1.330 . S
C40 C42 1.446 . S
N41 Co0 2.151 1_556 S
N41 C40 1.330 . S
N41 C45 1.418 . S
C42 H21 0.929 . S
C42 C40 1.446 . S
C42 C43 1.332 . S
C43 H23 0.931 . S
C43 C42 1.332 . S
C43 C44 1.267 . S
C44 H12 0.929 . S
C44 C43 1.267 . S
C44 C45 1.251 . S
C45 H15 0.929 . S
C45 N41 1.418 . S
C45 C44 1.251 . S
C46 H13 0.930 . S
C46 C48 1.406 . S
C46 C51 1.261 . S
C47 H14 0.930 . S
C47 N49 1.325 . S
C47 C50 1.357 . S
C48 H16 0.928 . S
C48 C46 1.406 . S
C48 N49 1.261 . S
N49 Co0 2.214 . S
N49 C47 1.325 . S
N49 C48 1.261 . S
C50 H20 0.931 . S
C50 C47 1.357 . S
C50 C51 1.312 . S
C51 H22 0.930 . S
C51 C46 1.261 . S
C51 C50 1.312 . S
C52 O24 1.214 . S
C52 O32 1.234 . S
C53 H25 0.929 . S
C53 C56 1.391 . S
C53 C58 1.391 . S
C54 H26 0.929 . S
C54 C55 1.390 . S
C54 N57 1.391 . S
C55 H27 0.930 . S
C55 C54 1.390 . S
C55 C56 1.392 . S
C56 H28 0.929 . S
C56 C53 1.391 . S
C56 C55 1.392 . S
N57 Co1 2.257 . S
N57 C54 1.391 . S
N57 C58 1.388 . S
C58 H29 0.930 . S
C58 C53 1.391 . S
C58 N57 1.388 . S
Co59 O61 2.143 . S
Co59 O67 2.074 . S
Co59 O70 2.093 . S
Co59 O83 2.097 . S
Co59 N100 2.151 . S
Co59 N108 2.214 . S
Co60 O61 2.160 . S
Co60 O66 2.058 . S
Co60 O76 2.057 . S
Co60 O91 2.037 . S
Co60 N95 2.145 . S
Co60 N116 2.257 . S
O61 Co59 2.143 . S
O61 Co60 2.160 . S
C62 O63 1.278 . S
C62 O70 1.224 . S
O63 C62 1.278 . S
C64 O65 1.245 . S
C64 O76 1.232 . S
O65 C64 1.245 . S
O66 Co60 2.058 . S
O66 C92 1.269 . S
O67 Co59 2.074 . S
O67 C92 1.257 . S
H68 C93 0.930 . S
H69 C99 0.930 . S
O70 Co59 2.093 . S
O70 C62 1.224 . S
H71 C103 0.929 1_556 S
H72 C105 0.930 . S
H73 C106 0.930 . S
H74 C104 0.929 . S
H75 C107 0.928 . S
O76 Co60 2.057 . S
O76 C64 1.232 . S
H77 C96 0.929 . S
H78 C97 0.929 . S
H79 C109 0.931 . S
H80 C101 0.929 . S
H81 C110 0.930 . S
H82 C102 0.931 1_556 S
O83 Co59 2.097 . S
O83 C111 1.214 . S
H84 C112 0.929 . S
H85 C113 0.929 . S
H86 C114 0.930 . S
H87 C115 0.929 . S
H88 C117 0.930 . S
H89 C94 0.930 . S
H90 C98 0.930 . S
O91 Co60 2.037 . S
O91 C111 1.234 . S
C92 O66 1.269 . S
C92 O67 1.257 . S
C93 H68 0.930 . S
C93 C96 1.388 . S
C93 C98 1.418 . S
C94 H89 0.930 . S
C94 C97 1.404 . S
C94 C98 1.353 . S
N95 Co60 2.145 . S
N95 C96 1.397 . S
N95 C97 1.334 . S
C96 H77 0.929 . S
C96 C93 1.388 . S
C96 N95 1.397 . S
C97 H78 0.929 . S
C97 C94 1.404 . S
C97 N95 1.334 . S
C98 H90 0.930 . S
C98 C93 1.418 . S
C98 C94 1.353 . S
C99 H69 0.930 . S
C99 N100 1.330 . S
C99 C101 1.446 . S
N100 Co59 2.151 . S
N100 C99 1.330 . S
N100 C104 1.418 . S
C101 H80 0.929 . S
C101 C99 1.446 . S
C101 C102 1.332 . S
C102 H82 0.931 1_554 S
C102 C101 1.332 . S
C102 C103 1.267 . S
C103 H71 0.929 1_554 S
C103 C102 1.267 . S
C103 C104 1.251 . S
C104 H74 0.929 . S
C104 N100 1.418 . S
C104 C103 1.251 . S
C105 H72 0.930 . S
C105 C107 1.406 . S
C105 C110 1.261 . S
C106 H73 0.930 . S
C106 N108 1.325 . S
C106 C109 1.357 . S
C107 H75 0.928 . S
C107 C105 1.406 . S
C107 N108 1.261 . S
N108 Co59 2.214 . S
N108 C106 1.325 . S
N108 C107 1.261 . S
C109 H79 0.931 . S
C109 C106 1.357 . S
C109 C110 1.312 . S
C110 H81 0.930 . S
C110 C105 1.261 . S
C110 C109 1.312 . S
C111 O83 1.214 . S
C111 O91 1.234 . S
C112 H84 0.929 . S
C112 C115 1.391 . S
C112 C117 1.391 . S
C113 H85 0.929 . S
C113 C114 1.390 . S
C113 N116 1.391 . S
C114 H86 0.930 . S
C114 C113 1.390 . S
C114 C115 1.392 . S
C115 H87 0.929 . S
C115 C112 1.391 . S
C115 C114 1.392 . S
N116 Co60 2.257 . S
N116 C113 1.391 . S
N116 C117 1.388 . S
C117 H88 0.930 . S
C117 C112 1.391 . S
C117 N116 1.388 . S
Co118 O120 2.143 . S
Co118 O126 2.074 . S
Co118 O129 2.093 . S
Co118 O142 2.097 . S
Co118 N159 2.151 . S
Co118 N167 2.214 . S
Co119 O120 2.160 . S
Co119 O125 2.058 . S
Co119 O135 2.057 . S
Co119 O150 2.037 . S
Co119 N154 2.145 . S
Co119 N175 2.257 . S
O120 Co118 2.143 . S
O120 Co119 2.160 . S
C121 O122 1.278 . S
C121 O129 1.224 . S
O122 C121 1.278 . S
C123 O124 1.245 . S
C123 O135 1.232 . S
O124 C123 1.245 . S
O125 Co119 2.058 . S
O125 C151 1.269 . S
O126 Co118 2.074 . S
O126 C151 1.257 . S
H127 C152 0.930 . S
H128 C158 0.930 . S
O129 Co118 2.093 . S
O129 C121 1.224 . S
H130 C162 0.929 . S
H131 C164 0.930 . S
H132 C165 0.930 . S
H133 C163 0.929 . S
H134 C166 0.928 . S
O135 Co119 2.057 . S
O135 C123 1.232 . S
H136 C155 0.929 . S
H137 C156 0.929 . S
H138 C168 0.931 . S
H139 C160 0.929 . S
H140 C169 0.930 . S
H141 C161 0.931 . S
O142 Co118 2.097 . S
O142 C170 1.214 . S
H143 C171 0.929 . S
H144 C172 0.929 . S
H145 C173 0.930 . S
H146 C174 0.929 . S
H147 C176 0.930 . S
H148 C153 0.930 . S
H149 C157 0.930 . S
O150 Co119 2.037 . S
O150 C170 1.234 . S
C151 O125 1.269 . S
C151 O126 1.257 . S
C152 H127 0.930 . S
C152 C155 1.388 . S
C152 C157 1.418 . S
C153 H148 0.930 . S
C153 C156 1.404 . S
C153 C157 1.353 . S
N154 Co119 2.145 . S
N154 C155 1.397 . S
N154 C156 1.334 . S
C155 H136 0.929 . S
C155 C152 1.388 . S
C155 N154 1.397 . S
C156 H137 0.929 . S
C156 C153 1.404 . S
C156 N154 1.334 . S
C157 H149 0.930 . S
C157 C152 1.418 . S
C157 C153 1.353 . S
C158 H128 0.930 . S
C158 N159 1.330 . S
C158 C160 1.446 . S
N159 Co118 2.151 . S
N159 C158 1.330 . S
N159 C163 1.418 . S
C160 H139 0.929 . S
C160 C158 1.446 . S
C160 C161 1.332 . S
C161 H141 0.931 . S
C161 C160 1.332 . S
C161 C162 1.267 . S
C162 H130 0.929 . S
C162 C161 1.267 . S
C162 C163 1.251 . S
C163 H133 0.929 . S
C163 N159 1.418 . S
C163 C162 1.251 . S
C164 H131 0.930 . S
C164 C166 1.406 . S
C164 C169 1.261 . S
C165 H132 0.930 . S
C165 N167 1.325 . S
C165 C168 1.357 . S
C166 H134 0.928 . S
C166 C164 1.406 . S
C166 N167 1.261 . S
N167 Co118 2.214 . S
N167 C165 1.325 . S
N167 C166 1.261 . S
C168 H138 0.931 . S
C168 C165 1.357 . S
C168 C169 1.312 . S
C169 H140 0.930 . S
C169 C164 1.261 . S
C169 C168 1.312 . S
C170 O142 1.214 . S
C170 O150 1.234 . S
C171 H143 0.929 . S
C171 C174 1.391 . S
C171 C176 1.391 . S
C172 H144 0.929 . S
C172 C173 1.390 . S
C172 N175 1.391 . S
C173 H145 0.930 . S
C173 C172 1.390 . S
C173 C174 1.392 . S
C174 H146 0.929 . S
C174 C171 1.391 . S
C174 C173 1.392 . S
N175 Co119 2.257 . S
N175 C172 1.391 . S
N175 C176 1.388 . S
C176 H147 0.930 . S
C176 C171 1.391 . S
C176 N175 1.388 . S
Co177 O179 2.143 . S
Co177 O185 2.074 . S
Co177 O188 2.093 . S
Co177 O201 2.097 . S
Co177 N218 2.151 . S
Co177 N226 2.214 . S
Co178 O179 2.160 . S
Co178 O184 2.058 . S
Co178 O194 2.057 . S
Co178 O209 2.037 . S
Co178 N213 2.145 . S
Co178 N234 2.257 . S
O179 Co177 2.143 . S
O179 Co178 2.160 . S
C180 O181 1.278 . S
C180 O188 1.224 . S
O181 C180 1.278 . S
C182 O183 1.245 . S
C182 O194 1.232 . S
O183 C182 1.245 . S
O184 Co178 2.058 . S
O184 C210 1.269 . S
O185 Co177 2.074 . S
O185 C210 1.257 . S
H186 C211 0.930 . S
H187 C217 0.930 . S
O188 Co177 2.093 . S
O188 C180 1.224 . S
H189 C221 0.929 . S
H190 C223 0.930 . S
H191 C224 0.930 . S
H192 C222 0.929 . S
H193 C225 0.928 . S
O194 Co178 2.057 . S
O194 C182 1.232 . S
H195 C214 0.929 . S
H196 C215 0.929 . S
H197 C227 0.931 . S
H198 C219 0.929 . S
H199 C228 0.930 . S
H200 C220 0.931 . S
O201 Co177 2.097 . S
O201 C229 1.214 . S
H202 C230 0.929 . S
H203 C231 0.929 . S
H204 C232 0.930 . S
H205 C233 0.929 . S
H206 C235 0.930 . S
H207 C212 0.930 . S
H208 C216 0.930 . S
O209 Co178 2.037 . S
O209 C229 1.234 . S
C210 O184 1.269 . S
C210 O185 1.257 . S
C211 H186 0.930 . S
C211 C214 1.388 . S
C211 C216 1.418 . S
C212 H207 0.930 . S
C212 C215 1.404 . S
C212 C216 1.353 . S
N213 Co178 2.145 . S
N213 C214 1.397 . S
N213 C215 1.334 . S
C214 H195 0.929 . S
C214 C211 1.388 . S
C214 N213 1.397 . S
C215 H196 0.929 . S
C215 C212 1.404 . S
C215 N213 1.334 . S
C216 H208 0.930 . S
C216 C211 1.418 . S
C216 C212 1.353 . S
C217 H187 0.930 . S
C217 N218 1.330 . S
C217 C219 1.446 . S
N218 Co177 2.151 . S
N218 C217 1.330 . S
N218 C222 1.418 . S
C219 H198 0.929 . S
C219 C217 1.446 . S
C219 C220 1.332 . S
C220 H200 0.931 . S
C220 C219 1.332 . S
C220 C221 1.267 . S
C221 H189 0.929 . S
C221 C220 1.267 . S
C221 C222 1.251 . S
C222 H192 0.929 . S
C222 N218 1.418 . S
C222 C221 1.251 . S
C223 H190 0.930 . S
C223 C225 1.406 . S
C223 C228 1.261 . S
C224 H191 0.930 . S
C224 N226 1.325 . S
C224 C227 1.357 . S
C225 H193 0.928 . S
C225 C223 1.406 . S
C225 N226 1.261 . S
N226 Co177 2.214 . S
N226 C224 1.325 . S
N226 C225 1.261 . S
C227 H197 0.931 . S
C227 C224 1.357 . S
C227 C228 1.312 . S
C228 H199 0.930 . S
C228 C223 1.261 . S
C228 C227 1.312 . S
C229 O201 1.214 . S
C229 O209 1.234 . S
C230 H202 0.929 . S
C230 C233 1.391 . S
C230 C235 1.391 . S
C231 H203 0.929 . S
C231 C232 1.390 . S
C231 N234 1.391 . S
C232 H204 0.930 . S
C232 C231 1.390 . S
C232 C233 1.392 . S
C233 H205 0.929 . S
C233 C230 1.391 . S
C233 C232 1.392 . S
N234 Co178 2.257 . S
N234 C231 1.391 . S
N234 C235 1.388 . S
C235 H206 0.930 . S
C235 C230 1.391 . S
C235 N234 1.388 . S
Co236 O238 2.143 . S
Co236 O244 2.074 . S
Co236 O247 2.093 . S
Co236 O260 2.097 . S
Co236 N277 2.151 . S
Co236 N285 2.214 . S
Co237 O238 2.160 . S
Co237 O243 2.058 . S
Co237 O253 2.057 . S
Co237 O268 2.037 . S
Co237 N272 2.145 . S
Co237 N293 2.257 . S
O238 Co236 2.143 . S
O238 Co237 2.160 . S
C239 O240 1.278 . S
C239 O247 1.224 . S
O240 C239 1.278 . S
C241 O242 1.245 . S
C241 O253 1.232 . S
O242 C241 1.245 . S
O243 Co237 2.058 . S
O243 C269 1.269 . S
O244 Co236 2.074 . S
O244 C269 1.257 . S
H245 C270 0.930 . S
H246 C276 0.930 . S
O247 Co236 2.093 . S
O247 C239 1.224 . S
H248 C280 0.929 . S
H249 C282 0.930 . S
H250 C283 0.930 . S
H251 C281 0.929 . S
H252 C284 0.928 . S
O253 Co237 2.057 . S
O253 C241 1.232 . S
H254 C273 0.929 . S
H255 C274 0.929 . S
H256 C286 0.931 . S
H257 C278 0.929 . S
H258 C287 0.930 . S
H259 C279 0.931 . S
O260 Co236 2.097 . S
O260 C288 1.214 . S
H261 C289 0.929 . S
H262 C290 0.929 . S
H263 C291 0.930 . S
H264 C292 0.929 . S
H265 C294 0.930 . S
H266 C271 0.930 . S
H267 C275 0.930 . S
O268 Co237 2.037 . S
O268 C288 1.234 . S
C269 O243 1.269 . S
C269 O244 1.257 . S
C270 H245 0.930 . S
C270 C273 1.388 . S
C270 C275 1.418 . S
C271 H266 0.930 . S
C271 C274 1.404 . S
C271 C275 1.353 . S
N272 Co237 2.145 . S
N272 C273 1.397 . S
N272 C274 1.334 . S
C273 H254 0.929 . S
C273 C270 1.388 . S
C273 N272 1.397 . S
C274 H255 0.929 . S
C274 C271 1.404 . S
C274 N272 1.334 . S
C275 H267 0.930 . S
C275 C270 1.418 . S
C275 C271 1.353 . S
C276 H246 0.930 . S
C276 N277 1.330 . S
C276 C278 1.446 . S
N277 Co236 2.151 . S
N277 C276 1.330 . S
N277 C281 1.418 . S
C278 H257 0.929 . S
C278 C276 1.446 . S
C278 C279 1.332 . S
C279 H259 0.931 . S
C279 C278 1.332 . S
C279 C280 1.267 . S
C280 H248 0.929 . S
C280 C279 1.267 . S
C280 C281 1.251 . S
C281 H251 0.929 . S
C281 N277 1.418 . S
C281 C280 1.251 . S
C282 H249 0.930 . S
C282 C284 1.406 . S
C282 C287 1.261 . S
C283 H250 0.930 . S
C283 N285 1.325 . S
C283 C286 1.357 . S
C284 H252 0.928 . S
C284 C282 1.406 . S
C284 N285 1.261 . S
N285 Co236 2.214 . S
N285 C283 1.325 . S
N285 C284 1.261 . S
C286 H256 0.931 . S
C286 C283 1.357 . S
C286 C287 1.312 . S
C287 H258 0.930 . S
C287 C282 1.261 . S
C287 C286 1.312 . S
C288 O260 1.214 . S
C288 O268 1.234 . S
C289 H261 0.929 . S
C289 C292 1.391 . S
C289 C294 1.391 . S
C290 H262 0.929 . S
C290 C291 1.390 . S
C290 N293 1.391 . S
C291 H263 0.930 . S
C291 C290 1.390 . S
C291 C292 1.392 . S
C292 H264 0.929 . S
C292 C289 1.391 . S
C292 C291 1.392 . S
N293 Co237 2.257 . S
N293 C290 1.391 . S
N293 C294 1.388 . S
C294 H265 0.930 . S
C294 C289 1.391 . S
C294 N293 1.388 . S
Co295 O297 2.143 . S
Co295 O303 2.074 . S
Co295 O306 2.093 . S
Co295 O319 2.097 . S
Co295 N336 2.151 . S
Co295 N344 2.214 . S
Co296 O297 2.160 . S
Co296 O302 2.058 . S
Co296 O312 2.057 . S
Co296 O327 2.037 . S
Co296 N331 2.145 . S
Co296 N352 2.257 . S
O297 Co295 2.143 . S
O297 Co296 2.160 . S
C298 O299 1.278 . S
C298 O306 1.224 . S
O299 C298 1.278 . S
C300 O301 1.245 . S
C300 O312 1.232 . S
O301 C300 1.245 . S
O302 Co296 2.058 . S
O302 C328 1.269 . S
O303 Co295 2.074 . S
O303 C328 1.257 . S
H304 C329 0.930 . S
H305 C335 0.930 . S
O306 Co295 2.093 . S
O306 C298 1.224 . S
H307 C339 0.929 . S
H308 C341 0.930 . S
H309 C342 0.930 . S
H310 C340 0.929 . S
H311 C343 0.928 . S
O312 Co296 2.057 . S
O312 C300 1.232 . S
H313 C332 0.929 . S
H314 C333 0.929 . S
H315 C345 0.931 . S
H316 C337 0.929 . S
H317 C346 0.930 . S
H318 C338 0.931 . S
O319 Co295 2.097 . S
O319 C347 1.214 . S
H320 C348 0.929 . S
H321 C349 0.929 . S
H322 C350 0.930 . S
H323 C351 0.929 . S
H324 C353 0.930 . S
H325 C330 0.930 . S
H326 C334 0.930 . S
O327 Co296 2.037 . S
O327 C347 1.234 . S
C328 O302 1.269 . S
C328 O303 1.257 . S
C329 H304 0.930 . S
C329 C332 1.388 . S
C329 C334 1.418 . S
C330 H325 0.930 . S
C330 C333 1.404 . S
C330 C334 1.353 . S
N331 Co296 2.145 . S
N331 C332 1.397 . S
N331 C333 1.334 . S
C332 H313 0.929 . S
C332 C329 1.388 . S
C332 N331 1.397 . S
C333 H314 0.929 . S
C333 C330 1.404 . S
C333 N331 1.334 . S
C334 H326 0.930 . S
C334 C329 1.418 . S
C334 C330 1.353 . S
C335 H305 0.930 . S
C335 N336 1.330 . S
C335 C337 1.446 1_556 S
N336 Co295 2.151 . S
N336 C335 1.330 . S
N336 C340 1.418 1_556 S
C337 H316 0.929 . S
C337 C335 1.446 1_554 S
C337 C338 1.332 . S
C338 H318 0.931 . S
C338 C337 1.332 . S
C338 C339 1.267 . S
C339 H307 0.929 . S
C339 C338 1.267 . S
C339 C340 1.251 . S
C340 H310 0.929 . S
C340 N336 1.418 1_554 S
C340 C339 1.251 . S
C341 H308 0.930 . S
C341 C343 1.406 . S
C341 C346 1.261 . S
C342 H309 0.930 . S
C342 N344 1.325 . S
C342 C345 1.357 . S
C343 H311 0.928 . S
C343 C341 1.406 . S
C343 N344 1.261 . S
N344 Co295 2.214 . S
N344 C342 1.325 . S
N344 C343 1.261 . S
C345 H315 0.931 . S
C345 C342 1.357 . S
C345 C346 1.312 . S
C346 H317 0.930 . S
C346 C341 1.261 . S
C346 C345 1.312 . S
C347 O319 1.214 . S
C347 O327 1.234 . S
C348 H320 0.929 . S
C348 C351 1.391 . S
C348 C353 1.391 . S
C349 H321 0.929 . S
C349 C350 1.390 . S
C349 N352 1.391 . S
C350 H322 0.930 . S
C350 C349 1.390 . S
C350 C351 1.392 . S
C351 H323 0.929 . S
C351 C348 1.391 . S
C351 C350 1.392 . S
N352 Co296 2.257 . S
N352 C349 1.391 . S
N352 C353 1.388 . S
C353 H324 0.930 . S
C353 C348 1.391 . S
C353 N352 1.388 . S
Co354 O356 2.143 . S
Co354 O362 2.074 . S
Co354 O365 2.093 . S
Co354 O378 2.097 . S
Co354 N395 2.151 . S
Co354 N403 2.214 . S
Co355 O356 2.160 . S
Co355 O361 2.058 . S
Co355 O371 2.057 . S
Co355 O386 2.037 . S
Co355 N390 2.145 . S
Co355 N411 2.257 . S
O356 Co354 2.143 . S
O356 Co355 2.160 . S
C357 O358 1.278 . S
C357 O365 1.224 . S
O358 C357 1.278 . S
C359 O360 1.245 . S
C359 O371 1.232 . S
O360 C359 1.245 . S
O361 Co355 2.058 . S
O361 C387 1.269 . S
O362 Co354 2.074 . S
O362 C387 1.257 . S
H363 C388 0.930 . S
H364 C394 0.930 . S
O365 Co354 2.093 . S
O365 C357 1.224 . S
H366 C398 0.929 . S
H367 C400 0.930 . S
H368 C401 0.930 . S
H369 C399 0.929 . S
H370 C402 0.928 . S
O371 Co355 2.057 . S
O371 C359 1.232 . S
H372 C391 0.929 . S
H373 C392 0.929 . S
H374 C404 0.931 . S
H375 C396 0.929 . S
H376 C405 0.930 . S
H377 C397 0.931 . S
O378 Co354 2.097 . S
O378 C406 1.214 . S
H379 C407 0.929 . S
H380 C408 0.929 . S
H381 C409 0.930 . S
H382 C410 0.929 . S
H383 C412 0.930 . S
H384 C389 0.930 . S
H385 C393 0.930 . S
O386 Co355 2.037 . S
O386 C406 1.234 . S
C387 O361 1.269 . S
C387 O362 1.257 . S
C388 H363 0.930 . S
C388 C391 1.388 . S
C388 C393 1.418 . S
C389 H384 0.930 . S
C389 C392 1.404 . S
C389 C393 1.353 . S
N390 Co355 2.145 . S
N390 C391 1.397 . S
N390 C392 1.334 . S
C391 H372 0.929 . S
C391 C388 1.388 . S
C391 N390 1.397 . S
C392 H373 0.929 . S
C392 C389 1.404 . S
C392 N390 1.334 . S
C393 H385 0.930 . S
C393 C388 1.418 . S
C393 C389 1.353 . S
C394 H364 0.930 . S
C394 N395 1.330 . S
C394 C396 1.446 1_556 S
N395 Co354 2.151 . S
N395 C394 1.330 . S
N395 C399 1.418 1_556 S
C396 H375 0.929 . S
C396 C394 1.446 1_554 S
C396 C397 1.332 . S
C397 H377 0.931 . S
C397 C396 1.332 . S
C397 C398 1.267 . S
C398 H366 0.929 . S
C398 C397 1.267 . S
C398 C399 1.251 . S
C399 H369 0.929 . S
C399 N395 1.418 1_554 S
C399 C398 1.251 . S
C400 H367 0.930 . S
C400 C402 1.406 . S
C400 C405 1.261 . S
C401 H368 0.930 . S
C401 N403 1.325 . S
C401 C404 1.357 . S
C402 H370 0.928 . S
C402 C400 1.406 . S
C402 N403 1.261 . S
N403 Co354 2.214 . S
N403 C401 1.325 . S
N403 C402 1.261 . S
C404 H374 0.931 . S
C404 C401 1.357 . S
C404 C405 1.312 . S
C405 H376 0.930 . S
C405 C400 1.261 . S
C405 C404 1.312 . S
C406 O378 1.214 . S
C406 O386 1.234 . S
C407 H379 0.929 . S
C407 C410 1.391 . S
C407 C412 1.391 . S
C408 H380 0.929 . S
C408 C409 1.390 . S
C408 N411 1.391 . S
C409 H381 0.930 . S
C409 C408 1.390 . S
C409 C410 1.392 . S
C410 H382 0.929 . S
C410 C407 1.391 . S
C410 C409 1.392 . S
N411 Co355 2.257 . S
N411 C408 1.391 . S
N411 C412 1.388 . S
C412 H383 0.930 . S
C412 C407 1.391 . S
C412 N411 1.388 . S
Co413 O415 2.143 . S
Co413 O421 2.074 . S
Co413 O424 2.093 1_554 S
Co413 O437 2.097 1_554 S
Co413 N454 2.151 . S
Co413 N462 2.214 . S
Co414 O415 2.160 . S
Co414 O420 2.058 . S
Co414 O430 2.057 . S
Co414 O445 2.037 1_554 S
Co414 N449 2.145 . S
Co414 N470 2.257 1_554 S
O415 Co413 2.143 . S
O415 Co414 2.160 . S
C416 O417 1.278 . S
C416 O424 1.224 . S
O417 C416 1.278 . S
C418 O419 1.245 . S
C418 O430 1.232 . S
O419 C418 1.245 . S
O420 Co414 2.058 . S
O420 C446 1.269 . S
O421 Co413 2.074 . S
O421 C446 1.257 . S
H422 C447 0.930 . S
H423 C453 0.930 . S
O424 Co413 2.093 1_556 S
O424 C416 1.224 . S
H425 C457 0.929 . S
H426 C459 0.930 . S
H427 C460 0.930 . S
H428 C458 0.929 . S
H429 C461 0.928 . S
O430 Co414 2.057 . S
O430 C418 1.232 . S
H431 C450 0.927 1_556 S
H432 C451 0.929 . S
H433 C463 0.931 . S
H434 C455 0.929 . S
H435 C464 0.930 . S
H436 C456 0.931 . S
O437 Co413 2.097 1_556 S
O437 C465 1.214 . S
H438 C466 0.929 . S
H439 C467 0.929 . S
H440 C468 0.930 . S
H441 C469 0.929 . S
H442 C471 0.930 . S
H443 C448 0.930 . S
H444 C452 0.930 1_556 S
O445 Co414 2.037 1_556 S
O445 C465 1.234 . S
C446 O420 1.269 . S
C446 O421 1.257 . S
C447 H422 0.930 . S
C447 C450 1.388 1_556 S
C447 C452 1.418 1_556 S
C448 H443 0.930 . S
C448 C451 1.404 . S
C448 C452 1.353 . S
N449 Co414 2.145 . S
N449 C450 1.397 . S
N449 C451 1.334 . S
C450 H431 0.927 1_554 S
C450 C447 1.388 1_554 S
C450 N449 1.397 . S
C451 H432 0.929 . S
C451 C448 1.404 . S
C451 N449 1.334 . S
C452 H444 0.930 1_554 S
C452 C447 1.418 1_554 S
C452 C448 1.353 . S
C453 H423 0.930 . S
C453 N454 1.330 . S
C453 C455 1.446 . S
N454 Co413 2.151 . S
N454 C453 1.330 . S
N454 C458 1.418 . S
C455 H434 0.929 . S
C455 C453 1.446 . S
C455 C456 1.332 . S
C456 H436 0.931 . S
C456 C455 1.332 . S
C456 C457 1.267 . S
C457 H425 0.929 . S
C457 C456 1.267 . S
C457 C458 1.251 . S
C458 H428 0.929 . S
C458 N454 1.418 . S
C458 C457 1.251 . S
C459 H426 0.930 . S
C459 C461 1.406 . S
C459 C464 1.261 . S
C460 H427 0.930 . S
C460 N462 1.325 . S
C460 C463 1.357 . S
C461 H429 0.928 . S
C461 C459 1.406 . S
C461 N462 1.261 . S
N462 Co413 2.214 . S
N462 C460 1.325 . S
N462 C461 1.261 . S
C463 H433 0.931 . S
C463 C460 1.357 . S
C463 C464 1.312 . S
C464 H435 0.930 . S
C464 C459 1.261 . S
C464 C463 1.312 . S
C465 O437 1.214 . S
C465 O445 1.234 . S
C466 H438 0.929 . S
C466 C469 1.391 . S
C466 C471 1.391 . S
C467 H439 0.929 . S
C467 C468 1.390 . S
C467 N470 1.391 . S
C468 H440 0.930 . S
C468 C467 1.390 . S
C468 C469 1.392 . S
C469 H441 0.929 . S
C469 C466 1.391 . S
C469 C468 1.392 . S
N470 Co414 2.257 1_556 S
N470 C467 1.391 . S
N470 C471 1.388 . S
C471 H442 0.930 . S
C471 C466 1.391 . S
C471 N470 1.388 . S
Co472 O474 2.143 . S
Co472 O480 2.074 . S
Co472 O483 2.093 . S
Co472 O496 2.097 . S
Co472 N513 2.151 . S
Co472 N521 2.214 . S
Co473 O474 2.160 . S
Co473 O479 2.058 . S
Co473 O489 2.057 . S
Co473 O504 2.037 . S
Co473 N508 2.145 . S
Co473 N529 2.257 . S
O474 Co472 2.143 . S
O474 Co473 2.160 . S
C475 O476 1.278 . S
C475 O483 1.224 . S
O476 C475 1.278 . S
C477 O478 1.245 . S
C477 O489 1.232 . S
O478 C477 1.245 . S
O479 Co473 2.058 . S
O479 C505 1.269 . S
O480 Co472 2.074 . S
O480 C505 1.257 . S
H481 C506 0.930 . S
H482 C512 0.930 . S
O483 Co472 2.093 . S
O483 C475 1.224 . S
H484 C516 0.929 1_556 S
H485 C518 0.930 . S
H486 C519 0.930 . S
H487 C517 0.929 . S
H488 C520 0.928 . S
O489 Co473 2.057 . S
O489 C477 1.232 . S
H490 C509 0.929 . S
H491 C510 0.929 . S
H492 C522 0.931 . S
H493 C514 0.929 . S
H494 C523 0.930 . S
H495 C515 0.931 1_556 S
O496 Co472 2.097 . S
O496 C524 1.214 . S
H497 C525 0.929 . S
H498 C526 0.929 . S
H499 C527 0.930 . S
H500 C528 0.929 . S
H501 C530 0.930 . S
H502 C507 0.930 . S
H503 C511 0.930 . S
O504 Co473 2.037 . S
O504 C524 1.234 . S
C505 O479 1.269 . S
C505 O480 1.257 . S
C506 H481 0.930 . S
C506 C509 1.388 . S
C506 C511 1.418 . S
C507 H502 0.930 . S
C507 C510 1.404 . S
C507 C511 1.353 . S
N508 Co473 2.145 . S
N508 C509 1.397 . S
N508 C510 1.334 . S
C509 H490 0.929 . S
C509 C506 1.388 . S
C509 N508 1.397 . S
C510 H491 0.929 . S
C510 C507 1.404 . S
C510 N508 1.334 . S
C511 H503 0.930 . S
C511 C506 1.418 . S
C511 C507 1.353 . S
C512 H482 0.930 . S
C512 N513 1.330 . S
C512 C514 1.446 . S
N513 Co472 2.151 . S
N513 C512 1.330 . S
N513 C517 1.418 . S
C514 H493 0.929 . S
C514 C512 1.446 . S
C514 C515 1.332 . S
C515 H495 0.931 1_554 S
C515 C514 1.332 . S
C515 C516 1.267 . S
C516 H484 0.929 1_554 S
C516 C515 1.267 . S
C516 C517 1.251 . S
C517 H487 0.929 . S
C517 N513 1.418 . S
C517 C516 1.251 . S
C518 H485 0.930 . S
C518 C520 1.406 . S
C518 C523 1.261 . S
C519 H486 0.930 . S
C519 N521 1.325 . S
C519 C522 1.357 . S
C520 H488 0.928 . S
C520 C518 1.406 . S
C520 N521 1.261 . S
N521 Co472 2.214 . S
N521 C519 1.325 . S
N521 C520 1.261 . S
C522 H492 0.931 . S
C522 C519 1.357 . S
C522 C523 1.312 . S
C523 H494 0.930 . S
C523 C518 1.261 . S
C523 C522 1.312 . S
C524 O496 1.214 . S
C524 O504 1.234 . S
C525 H497 0.929 . S
C525 C528 1.391 . S
C525 C530 1.391 . S
C526 H498 0.929 . S
C526 C527 1.390 . S
C526 N529 1.391 . S
C527 H499 0.930 . S
C527 C526 1.390 . S
C527 C528 1.392 . S
C528 H500 0.929 . S
C528 C525 1.391 . S
C528 C527 1.392 . S
N529 Co473 2.257 . S
N529 C526 1.391 . S
N529 C530 1.388 . S
C530 H501 0.930 . S
C530 C525 1.391 . S
C530 N529 1.388 . S
Co531 O533 2.143 . S
Co531 O539 2.074 . S
Co531 O542 2.093 . S
Co531 O555 2.097 . S
Co531 N572 2.151 . S
Co531 N580 2.214 . S
Co532 O533 2.160 . S
Co532 O538 2.058 . S
Co532 O548 2.057 . S
Co532 O563 2.037 . S
Co532 N567 2.145 . S
Co532 N588 2.257 . S
O533 Co531 2.143 . S
O533 Co532 2.160 . S
C534 O535 1.278 . S
C534 O542 1.224 . S
O535 C534 1.278 . S
C536 O537 1.245 . S
C536 O548 1.232 . S
O537 C536 1.245 . S
O538 Co532 2.058 . S
O538 C564 1.269 . S
O539 Co531 2.074 . S
O539 C564 1.257 . S
H540 C565 0.930 . S
H541 C571 0.930 . S
O542 Co531 2.093 . S
O542 C534 1.224 . S
H543 C575 0.929 . S
H544 C577 0.930 . S
H545 C578 0.930 . S
H546 C576 0.929 . S
H547 C579 0.928 . S
O548 Co532 2.057 . S
O548 C536 1.232 . S
H549 C568 0.929 . S
H550 C569 0.929 . S
H551 C581 0.931 . S
H552 C573 0.929 . S
H553 C582 0.930 . S
H554 C574 0.931 . S
O555 Co531 2.097 . S
O555 C583 1.214 . S
H556 C584 0.929 . S
H557 C585 0.929 . S
H558 C586 0.930 . S
H559 C587 0.929 . S
H560 C589 0.930 . S
H561 C566 0.930 . S
H562 C570 0.930 . S
O563 Co532 2.037 . S
O563 C583 1.234 . S
C564 O538 1.269 . S
C564 O539 1.257 . S
C565 H540 0.930 . S
C565 C568 1.388 . S
C565 C570 1.418 . S
C566 H561 0.930 . S
C566 C569 1.404 . S
C566 C570 1.353 . S
N567 Co532 2.145 . S
N567 C568 1.397 . S
N567 C569 1.334 . S
C568 H549 0.929 . S
C568 C565 1.388 . S
C568 N567 1.397 . S
C569 H550 0.929 . S
C569 C566 1.404 . S
C569 N567 1.334 . S
C570 H562 0.930 . S
C570 C565 1.418 . S
C570 C566 1.353 . S
C571 H541 0.930 . S
C571 N572 1.330 . S
C571 C573 1.446 . S
N572 Co531 2.151 . S
N572 C571 1.330 . S
N572 C576 1.418 . S
C573 H552 0.929 . S
C573 C571 1.446 . S
C573 C574 1.332 . S
C574 H554 0.931 . S
C574 C573 1.332 . S
C574 C575 1.267 . S
C575 H543 0.929 . S
C575 C574 1.267 . S
C575 C576 1.251 . S
C576 H546 0.929 . S
C576 N572 1.418 . S
C576 C575 1.251 . S
C577 H544 0.930 . S
C577 C579 1.406 . S
C577 C582 1.261 . S
C578 H545 0.930 . S
C578 N580 1.325 . S
C578 C581 1.357 . S
C579 H547 0.928 . S
C579 C577 1.406 . S
C579 N580 1.261 . S
N580 Co531 2.214 . S
N580 C578 1.325 . S
N580 C579 1.261 . S
C581 H551 0.931 . S
C581 C578 1.357 . S
C581 C582 1.312 . S
C582 H553 0.930 . S
C582 C577 1.261 . S
C582 C581 1.312 . S
C583 O555 1.214 . S
C583 O563 1.234 . S
C584 H556 0.929 . S
C584 C587 1.391 . S
C584 C589 1.391 . S
C585 H557 0.929 . S
C585 C586 1.390 . S
C585 N588 1.391 . S
C586 H558 0.930 . S
C586 C585 1.390 . S
C586 C587 1.392 . S
C587 H559 0.929 . S
C587 C584 1.391 . S
C587 C586 1.392 . S
N588 Co532 2.257 . S
N588 C585 1.391 . S
N588 C589 1.388 . S
C589 H560 0.930 . S
C589 C584 1.391 . S
C589 N588 1.388 . S
Co590 O592 2.143 . S
Co590 O598 2.074 . S
Co590 O601 2.093 . S
Co590 O614 2.097 . S
Co590 N631 2.151 . S
Co590 N639 2.214 . S
Co591 O592 2.160 . S
Co591 O597 2.058 . S
Co591 O607 2.057 . S
Co591 O622 2.037 . S
Co591 N626 2.145 . S
Co591 N647 2.257 . S
O592 Co590 2.143 . S
O592 Co591 2.160 . S
C593 O594 1.278 . S
C593 O601 1.224 . S
O594 C593 1.278 . S
C595 O596 1.245 . S
C595 O607 1.232 . S
O596 C595 1.245 . S
O597 Co591 2.058 . S
O597 C623 1.269 . S
O598 Co590 2.074 . S
O598 C623 1.257 . S
H599 C624 0.930 . S
H600 C630 0.930 . S
O601 Co590 2.093 . S
O601 C593 1.224 . S
H602 C634 0.929 . S
H603 C636 0.930 . S
H604 C637 0.930 . S
H605 C635 0.929 . S
H606 C638 0.928 . S
O607 Co591 2.057 . S
O607 C595 1.232 . S
H608 C627 0.929 . S
H609 C628 0.929 . S
H610 C640 0.931 . S
H611 C632 0.929 . S
H612 C641 0.930 . S
H613 C633 0.931 . S
O614 Co590 2.097 . S
O614 C642 1.214 . S
H615 C643 0.929 . S
H616 C644 0.929 . S
H617 C645 0.930 . S
H618 C646 0.929 . S
H619 C648 0.930 . S
H620 C625 0.930 . S
H621 C629 0.930 . S
O622 Co591 2.037 . S
O622 C642 1.234 . S
C623 O597 1.269 . S
C623 O598 1.257 . S
C624 H599 0.930 . S
C624 C627 1.388 . S
C624 C629 1.418 . S
C625 H620 0.930 . S
C625 C628 1.404 . S
C625 C629 1.353 . S
N626 Co591 2.145 . S
N626 C627 1.397 . S
N626 C628 1.334 . S
C627 H608 0.929 . S
C627 C624 1.388 . S
C627 N626 1.397 . S
C628 H609 0.929 . S
C628 C625 1.404 . S
C628 N626 1.334 . S
C629 H621 0.930 . S
C629 C624 1.418 . S
C629 C625 1.353 . S
C630 H600 0.930 . S
C630 N631 1.330 . S
C630 C632 1.446 . S
N631 Co590 2.151 . S
N631 C630 1.330 . S
N631 C635 1.418 . S
C632 H611 0.929 . S
C632 C630 1.446 . S
C632 C633 1.332 . S
C633 H613 0.931 . S
C633 C632 1.332 . S
C633 C634 1.267 . S
C634 H602 0.929 . S
C634 C633 1.267 . S
C634 C635 1.251 . S
C635 H605 0.929 . S
C635 N631 1.418 . S
C635 C634 1.251 . S
C636 H603 0.930 . S
C636 C638 1.406 . S
C636 C641 1.261 . S
C637 H604 0.930 . S
C637 N639 1.325 . S
C637 C640 1.357 . S
C638 H606 0.928 . S
C638 C636 1.406 . S
C638 N639 1.261 . S
N639 Co590 2.214 . S
N639 C637 1.325 . S
N639 C638 1.261 . S
C640 H610 0.931 . S
C640 C637 1.357 . S
C640 C641 1.312 . S
C641 H612 0.930 . S
C641 C636 1.261 . S
C641 C640 1.312 . S
C642 O614 1.214 . S
C642 O622 1.234 . S
C643 H615 0.929 . S
C643 C646 1.391 . S
C643 C648 1.391 . S
C644 H616 0.929 . S
C644 C645 1.390 . S
C644 N647 1.391 . S
C645 H617 0.930 . S
C645 C644 1.390 . S
C645 C646 1.392 . S
C646 H618 0.929 . S
C646 C643 1.391 . S
C646 C645 1.392 . S
N647 Co591 2.257 . S
N647 C644 1.391 . S
N647 C648 1.388 . S
C648 H619 0.930 . S
C648 C643 1.391 . S
C648 N647 1.388 . S
Co649 O651 2.143 . S
Co649 O657 2.074 . S
Co649 O660 2.093 . S
Co649 O673 2.097 . S
Co649 N690 2.151 . S
Co649 N698 2.214 . S
Co650 O651 2.160 . S
Co650 O656 2.058 . S
Co650 O666 2.057 . S
Co650 O681 2.037 . S
Co650 N685 2.145 . S
Co650 N706 2.257 . S
O651 Co649 2.143 . S
O651 Co650 2.160 . S
C652 O653 1.278 . S
C652 O660 1.224 . S
O653 C652 1.278 . S
C654 O655 1.245 . S
C654 O666 1.232 . S
O655 C654 1.245 . S
O656 Co650 2.058 . S
O656 C682 1.269 . S
O657 Co649 2.074 . S
O657 C682 1.257 . S
H658 C683 0.930 . S
H659 C689 0.930 . S
O660 Co649 2.093 . S
O660 C652 1.224 . S
H661 C693 0.929 . S
H662 C695 0.930 . S
H663 C696 0.930 . S
H664 C694 0.929 . S
H665 C697 0.928 . S
O666 Co650 2.057 . S
O666 C654 1.232 . S
H667 C686 0.929 . S
H668 C687 0.929 . S
H669 C699 0.931 . S
H670 C691 0.929 . S
H671 C700 0.930 . S
H672 C692 0.931 . S
O673 Co649 2.097 . S
O673 C701 1.214 . S
H674 C702 0.929 . S
H675 C703 0.929 . S
H676 C704 0.930 . S
H677 C705 0.929 . S
H678 C707 0.930 . S
H679 C684 0.930 . S
H680 C688 0.930 . S
O681 Co650 2.037 . S
O681 C701 1.234 . S
C682 O656 1.269 . S
C682 O657 1.257 . S
C683 H658 0.930 . S
C683 C686 1.388 . S
C683 C688 1.418 . S
C684 H679 0.930 . S
C684 C687 1.404 . S
C684 C688 1.353 . S
N685 Co650 2.145 . S
N685 C686 1.397 . S
N685 C687 1.334 . S
C686 H667 0.929 . S
C686 C683 1.388 . S
C686 N685 1.397 . S
C687 H668 0.929 . S
C687 C684 1.404 . S
C687 N685 1.334 . S
C688 H680 0.930 . S
C688 C683 1.418 . S
C688 C684 1.353 . S
C689 H659 0.930 . S
C689 N690 1.330 . S
C689 C691 1.446 . S
N690 Co649 2.151 . S
N690 C689 1.330 . S
N690 C694 1.418 . S
C691 H670 0.929 . S
C691 C689 1.446 . S
C691 C692 1.332 . S
C692 H672 0.931 . S
C692 C691 1.332 . S
C692 C693 1.267 . S
C693 H661 0.929 . S
C693 C692 1.267 . S
C693 C694 1.251 . S
C694 H664 0.929 . S
C694 N690 1.418 . S
C694 C693 1.251 . S
C695 H662 0.930 . S
C695 C697 1.406 . S
C695 C700 1.261 . S
C696 H663 0.930 . S
C696 N698 1.325 . S
C696 C699 1.357 . S
C697 H665 0.928 . S
C697 C695 1.406 . S
C697 N698 1.261 . S
N698 Co649 2.214 . S
N698 C696 1.325 . S
N698 C697 1.261 . S
C699 H669 0.931 . S
C699 C696 1.357 . S
C699 C700 1.312 . S
C700 H671 0.930 . S
C700 C695 1.261 . S
C700 C699 1.312 . S
C701 O673 1.214 . S
C701 O681 1.234 . S
C702 H674 0.929 . S
C702 C705 1.391 . S
C702 C707 1.391 . S
C703 H675 0.929 . S
C703 C704 1.390 . S
C703 N706 1.391 . S
C704 H676 0.930 . S
C704 C703 1.390 . S
C704 C705 1.392 . S
C705 H677 0.929 . S
C705 C702 1.391 . S
C705 C704 1.392 . S
N706 Co650 2.257 . S
N706 C703 1.391 . S
N706 C707 1.388 . S
C707 H678 0.930 . S
C707 C702 1.391 . S
C707 N706 1.388 . S
H708 C714 0.930 . S
H709 C717 0.930 . S
H710 C718 0.930 . S
H711 C719 0.930 . S
H712 C722 0.930 . S
H713 C723 0.930 . S
C714 H708 0.930 . S
C714 C715 1.355 . S
C714 C716 1.415 . S
C715 C714 1.355 . S
C715 C717 1.419 . S
C716 C714 1.415 . S
C716 C721 1.425 . S
C716 C723 1.409 . S
C717 H709 0.930 . S
C717 C715 1.419 . S
C717 C718 1.362 . S
C718 H710 0.930 . S
C718 C717 1.362 . S
C718 C721 1.409 . S
C719 H711 0.930 . S
C719 C720 1.355 . S
C719 C721 1.415 . S
C720 C719 1.355 . S
C720 C722 1.419 . S
C721 C716 1.425 . S
C721 C718 1.409 . S
C721 C719 1.415 . S
C722 H712 0.930 . S
C722 C720 1.419 . S
C722 C723 1.362 . S
C723 H713 0.930 . S
C723 C716 1.409 . S
C723 C722 1.362 . S
H724 C730 0.930 . S
H725 C733 0.930 . S
H726 C734 0.930 . S
H727 C735 0.930 . S
H728 C738 0.930 . S
H729 C739 0.930 . S
C730 H724 0.930 . S
C730 C731 1.355 . S
C730 C732 1.415 . S
C731 C730 1.355 . S
C731 C733 1.419 . S
C732 C730 1.415 . S
C732 C737 1.425 . S
C732 C739 1.409 . S
C733 H725 0.930 . S
C733 C731 1.419 . S
C733 C734 1.362 . S
C734 H726 0.930 . S
C734 C733 1.362 . S
C734 C737 1.409 . S
C735 H727 0.930 . S
C735 C736 1.355 . S
C735 C737 1.415 . S
C736 C735 1.355 . S
C736 C738 1.419 . S
C737 C732 1.425 . S
C737 C734 1.409 . S
C737 C735 1.415 . S
C738 H728 0.930 . S
C738 C736 1.419 . S
C738 C739 1.362 . S
C739 H729 0.930 . S
C739 C732 1.409 . S
C739 C738 1.362 . S
H740 C746 0.930 . S
H741 C749 0.930 . S
H742 C750 0.930 . S
H743 C751 0.930 . S
H744 C754 0.930 . S
H745 C755 0.930 . S
C746 H740 0.930 . S
C746 C747 1.355 . S
C746 C748 1.415 . S
C747 C746 1.355 . S
C747 C749 1.419 . S
C748 C746 1.415 . S
C748 C753 1.425 . S
C748 C755 1.409 . S
C749 H741 0.930 . S
C749 C747 1.419 . S
C749 C750 1.362 . S
C750 H742 0.930 . S
C750 C749 1.362 . S
C750 C753 1.409 . S
C751 H743 0.930 . S
C751 C752 1.355 . S
C751 C753 1.415 . S
C752 C751 1.355 . S
C752 C754 1.419 . S
C753 C748 1.425 . S
C753 C750 1.409 . S
C753 C751 1.415 . S
C754 H744 0.930 . S
C754 C752 1.419 . S
C754 C755 1.362 . S
C755 H745 0.930 . S
C755 C748 1.409 . S
C755 C754 1.362 . S
H756 C762 0.930 . S
H757 C765 0.930 . S
H758 C766 0.930 . S
H759 C767 0.930 . S
H760 C770 0.930 . S
H761 C771 0.930 . S
C762 H756 0.930 . S
C762 C763 1.355 . S
C762 C764 1.415 . S
C763 C762 1.355 . S
C763 C765 1.419 . S
C764 C762 1.415 . S
C764 C769 1.425 . S
C764 C771 1.409 . S
C765 H757 0.930 . S
C765 C763 1.419 . S
C765 C766 1.362 . S
C766 H758 0.930 . S
C766 C765 1.362 . S
C766 C769 1.409 . S
C767 H759 0.930 . S
C767 C768 1.355 . S
C767 C769 1.415 . S
C768 C767 1.355 . S
C768 C770 1.419 . S
C769 C764 1.425 . S
C769 C766 1.409 . S
C769 C767 1.415 . S
C770 H760 0.930 . S
C770 C768 1.419 . S
C770 C771 1.362 . S
C771 H761 0.930 . S
C771 C764 1.409 . S
C771 C770 1.362 . S
H772 C778 0.930 . S
H773 C781 0.930 . S
H774 C782 0.930 . S
H775 C783 0.930 1_556 S
H776 C786 0.930 . S
H777 C787 0.930 . S
C778 H772 0.930 . S
C778 C779 1.355 . S
C778 C780 1.415 . S
C779 C778 1.355 . S
C779 C781 1.419 . S
C780 C778 1.415 . S
C780 C785 1.425 . S
C780 C787 1.409 1_556 S
C781 H773 0.930 . S
C781 C779 1.419 . S
C781 C782 1.362 . S
C782 H774 0.930 . S
C782 C781 1.362 . S
C782 C785 1.409 . S
C783 H775 0.930 1_554 S
C783 C784 1.355 . S
C783 C785 1.415 1_554 S
C784 C783 1.355 . S
C784 C786 1.419 . S
C785 C780 1.425 . S
C785 C782 1.409 . S
C785 C783 1.415 1_556 S
C786 H776 0.930 . S
C786 C784 1.419 . S
C786 C787 1.362 . S
C787 H777 0.930 . S
C787 C780 1.409 1_554 S
C787 C786 1.362 . S
H788 C794 0.930 . S
H789 C797 0.930 . S
H790 C798 0.930 . S
H791 C799 0.930 . S
H792 C802 0.930 . S
H793 C803 0.930 . S
C794 H788 0.930 . S
C794 C795 1.355 . S
C794 C796 1.415 . S
C795 C794 1.355 . S
C795 C797 1.419 . S
C796 C794 1.415 . S
C796 C801 1.425 . S
C796 C803 1.409 . S
C797 H789 0.930 . S
C797 C795 1.419 . S
C797 C798 1.362 . S
C798 H790 0.930 . S
C798 C797 1.362 . S
C798 C801 1.409 . S
C799 H791 0.930 . S
C799 C800 1.355 . S
C799 C801 1.415 . S
C800 C799 1.355 . S
C800 C802 1.419 . S
C801 C796 1.425 . S
C801 C798 1.409 . S
C801 C799 1.415 . S
C802 H792 0.930 . S
C802 C800 1.419 . S
C802 C803 1.362 . S
C803 H793 0.930 . S
C803 C796 1.409 . S
C803 C802 1.362 . S
H804 C810 0.930 . S
H805 C813 0.930 . S
H806 C814 0.930 . S
H807 C815 0.930 . S
H808 C818 0.930 . S
H809 C819 0.930 . S
C810 H804 0.930 . S
C810 C811 1.355 . S
C810 C812 1.415 . S
C811 C810 1.355 . S
C811 C813 1.419 . S
C812 C810 1.415 . S
C812 C817 1.425 . S
C812 C819 1.409 . S
C813 H805 0.930 . S
C813 C811 1.419 . S
C813 C814 1.362 . S
C814 H806 0.930 . S
C814 C813 1.362 . S
C814 C817 1.409 . S
C815 H807 0.930 . S
C815 C816 1.355 . S
C815 C817 1.415 . S
C816 C815 1.355 . S
C816 C818 1.419 . S
C817 C812 1.425 . S
C817 C814 1.409 . S
C817 C815 1.415 . S
C818 H808 0.930 . S
C818 C816 1.419 . S
C818 C819 1.362 . S
C819 H809 0.930 . S
C819 C812 1.409 . S
C819 C818 1.362 . S
H820 C826 0.930 . S
H821 C829 0.930 . S
H822 C830 0.930 . S
H823 C831 0.930 . S
H824 C834 0.930 . S
H825 C835 0.930 . S
C826 H820 0.930 . S
C826 C827 1.355 . S
C826 C828 1.415 . S
C827 C826 1.355 . S
C827 C829 1.419 . S
C828 C826 1.415 . S
C828 C833 1.425 . S
C828 C835 1.409 . S
C829 H821 0.930 . S
C829 C827 1.419 . S
C829 C830 1.362 . S
C830 H822 0.930 . S
C830 C829 1.362 . S
C830 C833 1.409 . S
C831 H823 0.930 . S
C831 C832 1.355 . S
C831 C833 1.415 . S
C832 C831 1.355 . S
C832 C834 1.419 . S
C833 C828 1.425 . S
C833 C830 1.409 . S
C833 C831 1.415 . S
C834 H824 0.930 . S
C834 C832 1.419 . S
C834 C835 1.362 . S
C835 H825 0.930 . S
C835 C828 1.409 . S
C835 C834 1.362 . S
H836 C842 0.930 . S
H837 C845 0.930 . S
H838 C846 0.930 . S
H839 C847 0.930 . S
H840 C850 0.930 . S
H841 C851 0.930 . S
C842 H836 0.930 . S
C842 C843 1.355 . S
C842 C844 1.415 . S
C843 C842 1.355 . S
C843 C845 1.419 . S
C844 C842 1.415 . S
C844 C849 1.425 . S
C844 C851 1.409 . S
C845 H837 0.930 . S
C845 C843 1.419 . S
C845 C846 1.362 . S
C846 H838 0.930 . S
C846 C845 1.362 . S
C846 C849 1.409 . S
C847 H839 0.930 . S
C847 C848 1.355 . S
C847 C849 1.415 . S
C848 C847 1.355 . S
C848 C850 1.419 . S
C849 C844 1.425 . S
C849 C846 1.409 . S
C849 C847 1.415 . S
C850 H840 0.930 . S
C850 C848 1.419 . S
C850 C851 1.362 . S
C851 H841 0.930 . S
C851 C844 1.409 . S
C851 C850 1.362 . S
H852 C858 0.930 . S
H853 C861 0.930 . S
H854 C862 0.930 . S
H855 C863 0.930 . S
H856 C866 0.930 . S
H857 C867 0.930 . S
C858 H852 0.930 . S
C858 C859 1.355 . S
C858 C860 1.415 . S
C859 C858 1.355 . S
C859 C861 1.419 . S
C860 C858 1.415 . S
C860 C865 1.425 . S
C860 C867 1.409 . S
C861 H853 0.930 . S
C861 C859 1.419 . S
C861 C862 1.362 . S
C862 H854 0.930 . S
C862 C861 1.362 . S
C862 C865 1.409 . S
C863 H855 0.930 . S
C863 C864 1.355 . S
C863 C865 1.415 . S
C864 C863 1.355 . S
C864 C866 1.419 . S
C865 C860 1.425 . S
C865 C862 1.409 . S
C865 C863 1.415 . S
C866 H856 0.930 . S
C866 C864 1.419 . S
C866 C867 1.362 . S
C867 H857 0.930 . S
C867 C860 1.409 . S
C867 C866 1.362 . S
H868 C874 0.930 . S
H869 C877 0.930 . S
H870 C878 0.930 . S
H871 C879 0.930 . S
H872 C882 0.930 . S
H873 C883 0.930 . S
C874 H868 0.930 . S
C874 C875 1.355 . S
C874 C876 1.415 . S
C875 C874 1.355 . S
C875 C877 1.419 . S
C876 C874 1.415 . S
C876 C881 1.425 . S
C876 C883 1.409 . S
C877 H869 0.930 . S
C877 C875 1.419 . S
C877 C878 1.362 . S
C878 H870 0.930 . S
C878 C877 1.362 . S
C878 C881 1.409 . S
C879 H871 0.930 . S
C879 C880 1.355 . S
C879 C881 1.415 . S
C880 C879 1.355 . S
C880 C882 1.419 . S
C881 C876 1.425 . S
C881 C878 1.409 . S
C881 C879 1.415 . S
C882 H872 0.930 . S
C882 C880 1.419 . S
C882 C883 1.362 . S
C883 H873 0.930 . S
C883 C876 1.409 . S
C883 C882 1.362 . S
H884 C890 0.930 1_554 S
H885 C893 0.930 . S
H886 C894 0.930 . S
H887 C895 0.930 . S
H888 C898 0.930 . S
H889 C899 0.930 . S
C890 H884 0.930 1_556 S
C890 C891 1.355 . S
C890 C892 1.415 . S
C891 C890 1.355 . S
C891 C893 1.419 . S
C892 C890 1.415 . S
C892 C897 1.425 . S
C892 C899 1.409 1_556 S
C893 H885 0.930 . S
C893 C891 1.419 . S
C893 C894 1.362 . S
C894 H886 0.930 . S
C894 C893 1.362 . S
C894 C897 1.409 . S
C895 H887 0.930 . S
C895 C896 1.355 . S
C895 C897 1.415 . S
C896 C895 1.355 . S
C896 C898 1.419 1_556 S
C897 C892 1.425 . S
C897 C894 1.409 . S
C897 C895 1.415 . S
C898 H888 0.930 . S
C898 C896 1.419 1_554 S
C898 C899 1.362 . S
C899 H889 0.930 . S
C899 C892 1.409 1_554 S
C899 C898 1.362 . S
H900 C906 0.930 . S
H901 C909 0.930 . S
H902 C910 0.930 . S
H903 C911 0.930 . S
H904 C914 0.930 . S
H905 C915 0.930 . S
C906 H900 0.930 . S
C906 C907 1.355 . S
C906 C908 1.415 . S
C907 C906 1.355 . S
C907 C909 1.419 . S
C908 C906 1.415 . S
C908 C913 1.425 . S
C908 C915 1.409 . S
C909 H901 0.930 . S
C909 C907 1.419 . S
C909 C910 1.362 . S
C910 H902 0.930 . S
C910 C909 1.362 . S
C910 C913 1.409 . S
C911 H903 0.930 . S
C911 C912 1.355 . S
C911 C913 1.415 . S
C912 C911 1.355 . S
C912 C914 1.419 . S
C913 C908 1.425 . S
C913 C910 1.409 . S
C913 C911 1.415 . S
C914 H904 0.930 . S
C914 C912 1.419 . S
C914 C915 1.362 . S
C915 H905 0.930 . S
C915 C908 1.409 . S
C915 C914 1.362 . S
H916 C922 0.930 . S
H917 C925 0.930 . S
H918 C926 0.930 . S
H919 C927 0.930 . S
H920 C930 0.930 . S
H921 C931 0.930 . S
C922 H916 0.930 . S
C922 C923 1.355 1_556 S
C922 C924 1.415 . S
C923 C922 1.355 1_554 S
C923 C925 1.419 . S
C924 C922 1.415 . S
C924 C929 1.425 . S
C924 C931 1.409 . S
C925 H917 0.930 . S
C925 C923 1.419 . S
C925 C926 1.362 . S
C926 H918 0.930 . S
C926 C925 1.362 . S
C926 C929 1.409 1_554 S
C927 H919 0.930 . S
C927 C928 1.355 . S
C927 C929 1.415 . S
C928 C927 1.355 . S
C928 C930 1.419 . S
C929 C924 1.425 . S
C929 C926 1.409 1_556 S
C929 C927 1.415 . S
C930 H920 0.930 . S
C930 C928 1.419 . S
C930 C931 1.362 . S
C931 H921 0.930 . S
C931 C924 1.409 . S
C931 C930 1.362 . S
H932 C938 0.930 . S
H933 C941 0.930 . S
H934 C942 0.930 . S
H935 C943 0.930 . S
H936 C946 0.930 1_556 S
H937 C947 0.930 . S
C938 H932 0.930 . S
C938 C939 1.355 . S
C938 C940 1.415 . S
C939 C938 1.355 . S
C939 C941 1.419 . S
C940 C938 1.415 . S
C940 C945 1.425 . S
C940 C947 1.409 . S
C941 H933 0.930 . S
C941 C939 1.419 . S
C941 C942 1.362 . S
C942 H934 0.930 . S
C942 C941 1.362 . S
C942 C945 1.409 . S
C943 H935 0.930 . S
C943 C944 1.355 . S
C943 C945 1.415 . S
C944 C943 1.355 . S
C944 C946 1.419 . S
C945 C940 1.425 . S
C945 C942 1.409 . S
C945 C943 1.415 . S
C946 H936 0.930 1_554 S
C946 C944 1.419 . S
C946 C947 1.362 . S
C947 H937 0.930 . S
C947 C940 1.409 . S
C947 C946 1.362 . S
H948 C954 0.930 . S
H949 C957 0.930 . S
H950 C958 0.930 . S
H951 C959 0.930 . S
H952 C962 0.930 . S
H953 C963 0.930 . S
C954 H948 0.930 . S
C954 C955 1.355 . S
C954 C956 1.415 . S
C955 C954 1.355 . S
C955 C957 1.419 . S
C956 C954 1.415 . S
C956 C961 1.425 . S
C956 C963 1.409 . S
C957 H949 0.930 . S
C957 C955 1.419 . S
C957 C958 1.362 . S
C958 H950 0.930 . S
C958 C957 1.362 . S
C958 C961 1.409 . S
C959 H951 0.930 . S
C959 C960 1.355 . S
C959 C961 1.415 . S
C960 C959 1.355 . S
C960 C962 1.419 . S
C961 C956 1.425 . S
C961 C958 1.409 . S
C961 C959 1.415 . S
C962 H952 0.930 . S
C962 C960 1.419 . S
C962 C963 1.362 . S
C963 H953 0.930 . S
C963 C956 1.409 . S
C963 C962 1.362 . S
H964 C970 0.930 . S
H965 C973 0.930 . S
H966 C974 0.930 . S
H967 C975 0.930 . S
H968 C978 0.930 . S
H969 C979 0.930 . S
C970 H964 0.930 . S
C970 C971 1.355 . S
C970 C972 1.415 . S
C971 C970 1.355 . S
C971 C973 1.419 . S
C972 C970 1.415 . S
C972 C977 1.425 . S
C972 C979 1.409 . S
C973 H965 0.930 . S
C973 C971 1.419 . S
C973 C974 1.362 . S
C974 H966 0.930 . S
C974 C973 1.362 . S
C974 C977 1.409 . S
C975 H967 0.930 . S
C975 C976 1.355 . S
C975 C977 1.415 . S
C976 C975 1.355 . S
C976 C978 1.419 . S
C977 C972 1.425 . S
C977 C974 1.409 . S
C977 C975 1.415 . S
C978 H968 0.930 . S
C978 C976 1.419 . S
C978 C979 1.362 . S
C979 H969 0.930 . S
C979 C972 1.409 . S
C979 C978 1.362 . S
H980 C986 0.930 . S
H981 C989 0.930 . S
H982 C990 0.930 . S
H983 C991 0.930 . S
H984 C994 0.930 . S
H985 C995 0.930 . S
C986 H980 0.930 . S
C986 C987 1.355 . S
C986 C988 1.415 . S
C987 C986 1.355 . S
C987 C989 1.419 . S
C988 C986 1.415 . S
C988 C993 1.425 . S
C988 C995 1.409 . S
C989 H981 0.930 . S
C989 C987 1.419 . S
C989 C990 1.362 . S
C990 H982 0.930 . S
C990 C989 1.362 . S
C990 C993 1.409 . S
C991 H983 0.930 . S
C991 C992 1.355 . S
C991 C993 1.415 . S
C992 C991 1.355 . S
C992 C994 1.419 . S
C993 C988 1.425 . S
C993 C990 1.409 . S
C993 C991 1.415 . S
C994 H984 0.930 . S
C994 C992 1.419 . S
C994 C995 1.362 . S
C995 H985 0.930 . S
C995 C988 1.409 . S
C995 C994 1.362 . S
H996 C1002 0.930 . S
H997 C1005 0.930 . S
H998 C1006 0.930 1_655 S
H999 C1007 0.930 . S
H1000 C1010 0.930 . S
H1001 C1011 0.930 1_455 S
C1002 H996 0.930 . S
C1002 C1003 1.355 . S
C1002 C1004 1.415 . S
C1003 C1002 1.355 . S
C1003 C1005 1.419 . S
C1004 C1002 1.415 . S
C1004 C1009 1.425 1_455 S
C1004 C1011 1.409 1_455 S
C1005 H997 0.930 . S
C1005 C1003 1.419 . S
C1005 C1006 1.362 . S
C1006 H998 0.930 1_455 S
C1006 C1005 1.362 . S
C1006 C1009 1.409 1_455 S
C1007 H999 0.930 . S
C1007 C1008 1.355 . S
C1007 C1009 1.415 . S
C1008 C1007 1.355 . S
C1008 C1010 1.419 . S
C1009 C1004 1.425 1_655 S
C1009 C1006 1.409 1_655 S
C1009 C1007 1.415 . S
C1010 H1000 0.930 . S
C1010 C1008 1.419 . S
C1010 C1011 1.362 . S
C1011 H1001 0.930 1_655 S
C1011 C1004 1.409 1_655 S
C1011 C1010 1.362 . S
H1012 C1018 0.930 1_556 S
H1013 C1021 0.932 . S
H1014 C1022 0.930 . S
H1015 C1023 0.930 . S
H1016 C1026 0.930 . S
H1017 C1027 0.930 . S
C1018 H1012 0.930 1_554 S
C1018 C1019 1.355 1_554 S
C1018 C1020 1.415 . S
C1019 C1018 1.355 1_556 S
C1019 C1021 1.421 . S
C1020 C1018 1.415 . S
C1020 C1025 1.425 1_565 S
C1020 C1027 1.409 1_565 S
C1021 H1013 0.932 . S
C1021 C1019 1.421 . S
C1021 C1022 1.358 1_556 S
C1022 H1014 0.930 . S
C1022 C1021 1.358 1_554 S
C1022 C1025 1.409 1_565 S
C1023 H1015 0.930 . S
C1023 C1024 1.355 . S
C1023 C1025 1.415 . S
C1024 C1023 1.355 . S
C1024 C1026 1.419 . S
C1025 C1020 1.425 1_545 S
C1025 C1022 1.409 1_545 S
C1025 C1023 1.415 . S
C1026 H1016 0.930 . S
C1026 C1024 1.419 . S
C1026 C1027 1.362 . S
C1027 H1017 0.930 . S
C1027 C1020 1.409 1_545 S
C1027 C1026 1.362 . S
H1028 C1034 0.930 . S
H1029 C1037 0.930 . S
H1030 C1038 0.930 . S
H1031 C1039 0.930 . S
H1032 C1042 0.930 . S
H1033 C1043 0.930 . S
C1034 H1028 0.930 . S
C1034 C1035 1.355 . S
C1034 C1036 1.415 . S
C1035 C1034 1.355 . S
C1035 C1037 1.419 . S
C1036 C1034 1.415 . S
C1036 C1041 1.425 . S
C1036 C1043 1.409 . S
C1037 H1029 0.930 . S
C1037 C1035 1.419 . S
C1037 C1038 1.362 . S
C1038 H1030 0.930 . S
C1038 C1037 1.362 . S
C1038 C1041 1.409 . S
C1039 H1031 0.930 . S
C1039 C1040 1.355 . S
C1039 C1041 1.415 . S
C1040 C1039 1.355 . S
C1040 C1042 1.419 . S
C1041 C1036 1.425 . S
C1041 C1038 1.409 . S
C1041 C1039 1.415 . S
C1042 H1032 0.930 . S
C1042 C1040 1.419 . S
C1042 C1043 1.362 . S
C1043 H1033 0.930 . S
C1043 C1036 1.409 . S
C1043 C1042 1.362 . S
H1044 C1050 0.930 . S
H1045 C1053 0.930 . S
H1046 C1054 0.930 . S
H1047 C1055 0.930 . S
H1048 C1058 0.930 . S
H1049 C1059 0.930 . S
C1050 H1044 0.930 . S
C1050 C1051 1.355 . S
C1050 C1052 1.385 1_455 S
C1051 C1050 1.355 . S
C1051 C1053 1.419 . S
C1052 C1050 1.385 1_655 S
C1052 C1057 1.431 1_655 S
C1052 C1059 1.435 . S
C1053 H1045 0.930 . S
C1053 C1051 1.419 . S
C1053 C1054 1.362 . S
C1054 H1046 0.930 . S
C1054 C1053 1.362 . S
C1054 C1057 1.409 . S
C1055 H1047 0.930 . S
C1055 C1056 1.355 . S
C1055 C1057 1.415 1_655 S
C1056 C1055 1.355 . S
C1056 C1058 1.419 . S
C1057 C1052 1.431 1_455 S
C1057 C1054 1.409 . S
C1057 C1055 1.415 1_455 S
C1058 H1048 0.930 . S
C1058 C1056 1.419 . S
C1058 C1059 1.362 . S
C1059 H1049 0.930 . S
C1059 C1052 1.435 . S
C1059 C1058 1.362 . S
H1060 C1066 0.930 . S
H1061 C1069 0.930 . S
H1062 C1070 0.930 . S
H1063 C1071 0.930 . S
H1064 C1074 0.930 . S
H1065 C1075 0.930 . S
C1066 H1060 0.930 . S
C1066 C1067 1.355 . S
C1066 C1068 1.382 1_545 S
C1067 C1066 1.355 . S
C1067 C1069 1.419 . S
C1068 C1066 1.382 1_565 S
C1068 C1073 1.445 1_565 S
C1068 C1075 1.434 . S
C1069 H1061 0.930 . S
C1069 C1067 1.419 . S
C1069 C1070 1.362 . S
C1070 H1062 0.930 . S
C1070 C1069 1.362 . S
C1070 C1073 1.433 . S
C1071 H1063 0.930 . S
C1071 C1072 1.355 . S
C1071 C1073 1.383 1_565 S
C1072 C1071 1.355 . S
C1072 C1074 1.419 . S
C1073 C1068 1.445 1_545 S
C1073 C1070 1.433 . S
C1073 C1071 1.383 1_545 S
C1074 H1064 0.930 . S
C1074 C1072 1.419 . S
C1074 C1075 1.362 . S
C1075 H1065 0.930 . S
C1075 C1068 1.434 . S
C1075 C1074 1.362 . S
H1076 C1082 0.930 . S
H1077 C1085 0.930 . S
H1078 C1086 0.930 . S
H1079 C1087 0.930 . S
H1080 C1090 0.930 . S
H1081 C1091 0.930 . S
C1082 H1076 0.930 . S
C1082 C1083 1.355 . S
C1082 C1084 1.415 . S
C1083 C1082 1.355 . S
C1083 C1085 1.419 . S
C1084 C1082 1.415 . S
C1084 C1089 1.425 . S
C1084 C1091 1.409 . S
C1085 H1077 0.930 . S
C1085 C1083 1.419 . S
C1085 C1086 1.362 . S
C1086 H1078 0.930 . S
C1086 C1085 1.362 . S
C1086 C1089 1.409 . S
C1087 H1079 0.930 . S
C1087 C1088 1.355 . S
C1087 C1089 1.415 . S
C1088 C1087 1.355 . S
C1088 C1090 1.419 . S
C1089 C1084 1.425 . S
C1089 C1086 1.409 . S
C1089 C1087 1.415 . S
C1090 H1080 0.930 . S
C1090 C1088 1.419 . S
C1090 C1091 1.362 . S
C1091 H1081 0.930 . S
C1091 C1084 1.409 . S
C1091 C1090 1.362 . S
C715 C52 1.667 . S
C720 C642 1.658 . S
C731 C682 1.660 . S
C736 C111 1.670 . S
C747 C151 1.670 . S
C752 C406 1.661 . S
C763 C229 1.664 . S
C768 C465 1.660 . S
C779 C288 1.660 . S
C784 C505 1.671 . S
C795 C583 1.658 . S
C800 C328 1.671 1_554 S
C811 C3 1.696 . S
C816 C477 1.714 . S
C827 C62 1.706 . S
C832 C534 1.691 . S
C843 C593 1.704 . S
C848 C123 1.691 . S
C859 C180 1.720 . S
C864 C654 1.719 . S
C875 C239 1.709 . S
C880 C357 1.691 . S
C891 C300 1.691 . S
C896 C416 1.703 . S
C907 C623 1.660 . S
C912 C33 1.642 . S
C923 C92 1.659 . S
C928 C701 1.655 . S
C939 C170 1.661 . S
C944 C387 1.650 1_554 S
C955 C210 1.659 . S
C960 C446 1.658 . S
C971 C524 1.659 . S
C976 C269 1.646 . S
C987 C347 1.649 . S
C992 C564 1.662 . S
C1003 C5 1.323 . S
C1008 C652 1.325 . S
C1019 C359 1.337 . S
C1024 C64 1.325 . S
C1035 C418 1.321 . S
C1040 C121 1.310 . S
C1051 C475 1.312 . S
C1056 C182 1.317 . S
C1067 C536 1.320 . S
C1072 C241 1.323 . S
C1083 C595 1.321 . S
C1088 C298 1.321 . S
