# Generated by pormake.
# Topology dmp, (4)-cn, num edge types: 1
# Building blocks:
#     Node 0, Type 0, BuildingBlock: UXUYUI_clean_sbu_0, # of connection points: 4
#     Node 1, Type 0, BuildingBlock: UXUYUI_clean_sbu_0, # of connection points: 4
#     Node 2, Type 0, BuildingBlock: UXUYUI_clean_sbu_0, # of connection points: 4
#     Node 3, Type 0, BuildingBlock: UXUYUI_clean_sbu_0, # of connection points: 4
#     Edge 4, Type (0, 0), BuildingBlock: MIFKUJ_clean_linker_0, # of connection points: 2
#     Edge 5, Type (0, 0), BuildingBlock: MIFKUJ_clean_linker_0, # of connection points: 2
#     Edge 6, Type (0, 0), BuildingBlock: MIFKUJ_clean_linker_0, # of connection points: 2
#     Edge 7, Type (0, 0), BuildingBlock: MIFKUJ_clean_linker_0, # of connection points: 2
#     Edge 8, Type (0, 0), BuildingBlock: MIFKUJ_clean_linker_0, # of connection points: 2
#     Edge 9, Type (0, 0), BuildingBlock: MIFKUJ_clean_linker_0, # of connection points: 2
#     Edge 10, Type (0, 0), BuildingBlock: MIFKUJ_clean_linker_0, # of connection points: 2
#     Edge 11, Type (0, 0), BuildingBlock: MIFKUJ_clean_linker_0, # of connection points: 2
# Relax obj value: 0.351
# Max RMSD: 0.312
# Mean RMSD: 0.312
data_MOF--net-dmp--node1-UXUYUI_clean_sbu_0--edge1-MIFKUJ_clean_linker_0
_symmetry_space_group_name_H-M    P1
_symmetry_Int_Tables_number       1
_symmetry_cell_setting            triclinic
loop_
_symmetry_equiv_pos_as_xyz
'x, y, z'
_cell_length_a     67.406169
_cell_length_b     28.686456
_cell_length_c     34.806456
_cell_angle_alpha  90.105722
_cell_angle_beta   89.770966
_cell_angle_gamma 90.032209
loop_
_atom_site_label
_atom_site_type_symbol
_atom_site_fract_x
_atom_site_fract_y
_atom_site_fract_z
_atom_type_partial_charge
Li0 Li 0.1091 0.27743 0.22102 0.0
Li1 Li 0.1099 0.21194 0.26066 0.0
Li2 Li 0.08341 0.21962 0.21346 0.0
Li3 Li 0.08547 0.27125 0.27419 0.0
C4 C 0.12428 0.21416 0.17333 0.0
N5 N 0.1495 0.21992 0.1107 0.0
C6 C 0.14461 0.22121 0.17869 0.0
C7 C 0.1168 0.20962 0.13609 0.0
C8 C 0.1571 0.2242 0.14667 0.0
C9 C 0.1298 0.21267 0.10481 0.0
C10 C 0.1281 0.27407 0.3049 0.0
C11 C 0.1367 0.27196 0.37209 0.0
N12 N 0.15608 0.26589 0.36231 0.0
C13 C 0.14814 0.26827 0.29553 0.0
C14 C 0.12232 0.27622 0.34349 0.0
C15 C 0.16204 0.26399 0.32497 0.0
C16 C 0.13665 0.34978 0.2174 0.0
N17 N 0.12517 0.32248 0.19457 0.0
C18 C 0.14026 0.35463 0.13819 0.0
C19 C 0.12615 0.32577 0.15559 0.0
C20 C 0.15304 0.38118 0.16126 0.0
C21 C 0.15072 0.3795 0.20132 0.0
H22 H 0.13531 0.3475 0.24826 0.0
H23 H 0.11646 0.30492 0.13792 0.0
C24 C 0.13862 0.14204 0.25867 0.0
N25 N 0.12712 0.16671 0.28355 0.0
C26 C 0.15404 0.11449 0.27224 0.0
C27 C 0.1444 0.13441 0.33716 0.0
C28 C 0.12914 0.16184 0.32224 0.0
C29 C 0.15751 0.11187 0.31187 0.0
H30 H 0.13632 0.14506 0.22813 0.0
H31 H 0.11957 0.18089 0.34157 0.0
C32 C 0.07892 0.32611 0.19592 0.0
N33 N 0.07815 0.40321 0.14857 0.0
C34 C 0.08212 0.37056 0.21116 0.0
C35 C 0.07522 0.32081 0.15668 0.0
C36 C 0.08173 0.40912 0.18671 0.0
C37 C 0.0749 0.36025 0.13321 0.0
C38 C 0.08056 0.16502 0.29283 0.0
C39 C 0.08294 0.12047 0.27719 0.0
C40 C 0.07821 0.17039 0.3325 0.0
C41 C 0.0831 0.0819 0.30163 0.0
C42 C 0.07842 0.13093 0.35597 0.0
N43 N 0.08086 0.08789 0.34018 0.0
C44 C 0.07294 0.14528 0.16687 0.0
C45 C 0.04832 0.20419 0.17064 0.0
C46 C 0.06125 0.1192 0.14192 0.0
N47 N 0.06638 0.18694 0.18039 0.0
C48 C 0.03607 0.17917 0.14572 0.0
C49 C 0.04254 0.13608 0.13099 0.0
H50 H 0.08742 0.13265 0.17515 0.0
H51 H 0.0435 0.23737 0.18215 0.0
C52 C 0.07878 0.34583 0.32352 0.0
N53 N 0.0709 0.30499 0.311 0.0
C54 C 0.06868 0.37275 0.35057 0.0
C55 C 0.04244 0.31514 0.35111 0.0
C56 C 0.0531 0.28926 0.324 0.0
C57 C 0.05022 0.35755 0.36466 0.0
H58 H 0.093 0.3573 0.31255 0.0
H59 H 0.04718 0.25674 0.31319 0.0
O60 O 0.11181 0.21114 0.20436 0.0
O61 O 0.11425 0.278 0.27645 0.0
O62 O 0.07954 0.2879 0.21926 0.0
O63 O 0.08056 0.20321 0.26943 0.0
H64 H 0.15066 0.22459 0.20727 0.0
H65 H 0.10112 0.20452 0.13131 0.0
H66 H 0.17283 0.22998 0.15042 0.0
H67 H 0.1242 0.20953 0.07584 0.0
H68 H 0.13242 0.27319 0.40206 0.0
H69 H 0.15289 0.26689 0.26585 0.0
H70 H 0.10688 0.28028 0.35133 0.0
H71 H 0.17757 0.25914 0.31812 0.0
H72 H 0.14145 0.35547 0.10716 0.0
H73 H 0.16035 0.39924 0.22016 0.0
H74 H 0.1636 0.09666 0.25189 0.0
H75 H 0.14658 0.13304 0.36795 0.0
H76 H 0.08508 0.37517 0.24145 0.0
H77 H 0.07283 0.28656 0.14444 0.0
H78 H 0.08429 0.44373 0.19805 0.0
H79 H 0.07214 0.3567 0.10275 0.0
H80 H 0.08483 0.11579 0.24655 0.0
H81 H 0.07647 0.20469 0.34506 0.0
H82 H 0.08503 0.04722 0.28996 0.0
H83 H 0.07672 0.13455 0.38675 0.0
H84 H 0.06697 0.0866 0.13075 0.0
H85 H 0.02168 0.19319 0.13831 0.0
H86 H 0.07534 0.40488 0.36061 0.0
H87 H 0.02815 0.30248 0.36088 0.0
Li88 Li 0.40475 0.75904 0.21447 0.0
Li89 Li 0.40649 0.72005 0.27882 0.0
Li90 Li 0.38196 0.70109 0.23406 0.0
Li91 Li 0.37891 0.77362 0.26717 0.0
C92 C 0.4121 0.65016 0.21153 0.0
N93 N 0.41369 0.56162 0.18032 0.0
C94 C 0.40922 0.61116 0.23489 0.0
C95 C 0.41592 0.64416 0.17234 0.0
C96 C 0.41003 0.56668 0.21856 0.0
C97 C 0.41663 0.59909 0.15709 0.0
C98 C 0.42357 0.81385 0.27918 0.0
C99 C 0.43796 0.87045 0.32226 0.0
N100 N 0.45553 0.86679 0.30314 0.0
C101 C 0.44176 0.81084 0.25989 0.0
C102 C 0.42162 0.84412 0.31052 0.0
C103 C 0.45774 0.83781 0.27246 0.0
C104 C 0.41065 0.82837 0.16072 0.0
N105 N 0.41851 0.788 0.17403 0.0
C106 C 0.44592 0.79403 0.13072 0.0
C107 C 0.43565 0.77016 0.15951 0.0
C108 C 0.43828 0.83624 0.11676 0.0
C109 C 0.42031 0.85315 0.13183 0.0
H110 H 0.39702 0.8416 0.17306 0.0
H111 H 0.44157 0.73804 0.17095 0.0
C112 C 0.41583 0.65941 0.33765 0.0
N113 N 0.42347 0.69577 0.31747 0.0
C114 C 0.42665 0.63901 0.36703 0.0
C115 C 0.45351 0.69251 0.35364 0.0
C116 C 0.442 0.71238 0.32469 0.0
C117 C 0.44573 0.65552 0.37527 0.0
H118 H 0.40133 0.64586 0.33071 0.0
H119 H 0.44801 0.74049 0.30785 0.0
C120 C 0.36058 0.754 0.18653 0.0
N121 N 0.33025 0.73329 0.13616 0.0
C122 C 0.3415 0.74491 0.20046 0.0
C123 C 0.3642 0.75319 0.14696 0.0
C124 C 0.32638 0.73422 0.17454 0.0
C125 C 0.34867 0.74258 0.12196 0.0
C126 C 0.37431 0.71642 0.32862 0.0
C127 C 0.35949 0.69086 0.34738 0.0
C128 C 0.38535 0.74903 0.34942 0.0
C129 C 0.35602 0.69833 0.38651 0.0
C130 C 0.38147 0.75545 0.38851 0.0
N131 N 0.36699 0.7302 0.4061 0.0
C132 C 0.35291 0.63211 0.23885 0.0
C133 C 0.36531 0.64172 0.17556 0.0
C134 C 0.3378 0.60326 0.22559 0.0
N135 N 0.36582 0.652 0.21374 0.0
C136 C 0.35041 0.61286 0.16097 0.0
C137 C 0.33599 0.59483 0.18604 0.0
H138 H 0.35371 0.64062 0.26897 0.0
H139 H 0.37564 0.65824 0.15607 0.0
C140 C 0.36692 0.86358 0.29308 0.0
N141 N 0.36175 0.81795 0.28973 0.0
C142 C 0.35405 0.89506 0.31105 0.0
C143 C 0.33088 0.83182 0.32136 0.0
C144 C 0.34412 0.80177 0.30319 0.0
C145 C 0.33578 0.87913 0.32557 0.0
H146 H 0.38099 0.87548 0.28173 0.0
H147 H 0.34032 0.7654 0.29972 0.0
O148 O 0.41134 0.69397 0.22701 0.0
O149 O 0.40759 0.78857 0.26668 0.0
O150 O 0.37568 0.76351 0.21146 0.0
O151 O 0.37749 0.71027 0.28995 0.0
H152 H 0.40618 0.61519 0.26522 0.0
H153 H 0.41806 0.67397 0.15379 0.0
H154 H 0.40773 0.53619 0.23627 0.0
H155 H 0.41946 0.59391 0.12677 0.0
H156 H 0.43666 0.89389 0.34652 0.0
H157 H 0.44366 0.78721 0.236 0.0
H158 H 0.40765 0.84738 0.32566 0.0
H159 H 0.47192 0.83555 0.25792 0.0
H160 H 0.45972 0.7799 0.11973 0.0
H161 H 0.41411 0.88596 0.12228 0.0
H162 H 0.42036 0.60965 0.38238 0.0
H163 H 0.4683 0.70575 0.35899 0.0
H164 H 0.33848 0.74521 0.231 0.0
H165 H 0.37891 0.76011 0.13573 0.0
H166 H 0.3116 0.72651 0.18494 0.0
H167 H 0.35127 0.7415 0.09129 0.0
H168 H 0.35061 0.66574 0.33193 0.0
H169 H 0.39687 0.769 0.33568 0.0
H170 H 0.34456 0.67886 0.40128 0.0
H171 H 0.38997 0.78054 0.40485 0.0
H172 H 0.32712 0.58933 0.24587 0.0
H173 H 0.34942 0.60731 0.13025 0.0
H174 H 0.35831 0.93134 0.31356 0.0
H175 H 0.31673 0.81832 0.33114 0.0
Li176 Li 0.8726 0.76987 0.72618 0.0
Li177 Li 0.89911 0.7735 0.77029 0.0
Li178 Li 0.89898 0.71526 0.71981 0.0
Li179 Li 0.87533 0.71112 0.77421 0.0
C180 C 0.90392 0.82981 0.70654 0.0
N181 N 0.91076 0.92315 0.69211 0.0
C182 C 0.89177 0.86381 0.72323 0.0
C183 C 0.91953 0.84329 0.6825 0.0
C184 C 0.89547 0.91081 0.71558 0.0
C185 C 0.92276 0.89065 0.67556 0.0
C186 C 0.86792 0.78618 0.82066 0.0
C187 C 0.87673 0.77147 0.88665 0.0
N188 N 0.86254 0.80212 0.89834 0.0
C189 C 0.85342 0.81748 0.83334 0.0
C190 C 0.87967 0.7629 0.84753 0.0
C191 C 0.85093 0.82508 0.87272 0.0
C192 C 0.83566 0.81036 0.7176 0.0
N193 N 0.85324 0.80457 0.69903 0.0
C194 C 0.84159 0.84783 0.645 0.0
C195 C 0.85649 0.82241 0.66333 0.0
C196 C 0.82341 0.85453 0.66386 0.0
C197 C 0.82043 0.83545 0.70042 0.0
H198 H 0.83352 0.79545 0.74583 0.0
H199 H 0.87063 0.81696 0.64922 0.0
C200 C 0.93431 0.79879 0.808 0.0
N201 N 0.91558 0.813 0.79985 0.0
C202 C 0.9464 0.82583 0.83173 0.0
C203 C 0.91977 0.88196 0.83737 0.0
C204 C 0.90823 0.85384 0.81368 0.0
C205 C 0.93906 0.86784 0.84697 0.0
H206 H 0.93975 0.76616 0.79646 0.0
H207 H 0.89323 0.86419 0.80699 0.0
C208 C 0.85703 0.69952 0.68955 0.0
N209 N 0.82986 0.69957 0.63034 0.0
C210 C 0.83698 0.6909 0.69712 0.0
C211 C 0.86329 0.70778 0.65184 0.0
C212 C 0.82347 0.69121 0.66679 0.0
C213 C 0.84932 0.7077 0.6223 0.0
C214 C 0.91133 0.66146 0.78199 0.0
C215 C 0.90205 0.62408 0.76348 0.0
C216 C 0.92741 0.65305 0.80621 0.0
C217 C 0.90904 0.57886 0.76955 0.0
C218 C 0.93393 0.60731 0.81159 0.0
N219 N 0.9247 0.57148 0.79328 0.0
C220 C 0.93387 0.69615 0.67907 0.0
C221 C 0.90791 0.64175 0.66858 0.0
C222 C 0.94638 0.67146 0.65433 0.0
N223 N 0.91508 0.6809 0.68562 0.0
C224 C 0.91995 0.61579 0.64393 0.0
C225 C 0.93945 0.63062 0.63657 0.0
H226 H 0.93911 0.7274 0.69321 0.0
H227 H 0.89285 0.63061 0.67423 0.0
C228 C 0.84009 0.68859 0.80728 0.0
N229 N 0.85925 0.67399 0.80716 0.0
C230 C 0.82566 0.66373 0.82722 0.0
C231 C 0.85099 0.60977 0.8479 0.0
C232 C 0.86508 0.63638 0.82807 0.0
C233 C 0.83097 0.62311 0.847 0.0
H234 H 0.83594 0.71899 0.79083 0.0
H235 H 0.88047 0.62624 0.82882 0.0
O236 O 0.90072 0.78349 0.71359 0.0
O237 O 0.87036 0.77844 0.7821 0.0
O238 O 0.87043 0.70078 0.71895 0.0
O239 O 0.9052 0.70628 0.77572 0.0
H240 H 0.87961 0.85416 0.74193 0.0
H241 H 0.92908 0.81737 0.66937 0.0
H242 H 0.88619 0.93746 0.72833 0.0
H243 H 0.93481 0.90158 0.65702 0.0
H244 H 0.88573 0.75373 0.90773 0.0
H245 H 0.84419 0.83573 0.81291 0.0
H246 H 0.89095 0.73848 0.83843 0.0
H247 H 0.83977 0.84924 0.88292 0.0
H248 H 0.84424 0.86239 0.61676 0.0
H249 H 0.80651 0.84025 0.71558 0.0
H250 H 0.96126 0.81395 0.83817 0.0
H251 H 0.91344 0.91372 0.84896 0.0
H252 H 0.83187 0.68427 0.72607 0.0
H253 H 0.87873 0.71497 0.64555 0.0
H254 H 0.80789 0.68491 0.67225 0.0
H255 H 0.85394 0.71439 0.59303 0.0
H256 H 0.88945 0.62973 0.74503 0.0
H257 H 0.9348 0.6816 0.82065 0.0
H258 H 0.90197 0.54964 0.75547 0.0
H259 H 0.94637 0.60031 0.83026 0.0
H260 H 0.96138 0.68378 0.64955 0.0
H261 H 0.91399 0.5848 0.63039 0.0
H262 H 0.81033 0.67475 0.82535 0.0
H263 H 0.85557 0.57859 0.86296 0.0
Li264 Li 0.60292 0.21457 0.73475 0.0
Li265 Li 0.57811 0.2321 0.78379 0.0
Li266 Li 0.57666 0.26593 0.71536 0.0
Li267 Li 0.60184 0.28905 0.7621 0.0
C268 C 0.57336 0.15736 0.71646 0.0
N269 N 0.57286 0.06981 0.68333 0.0
C270 C 0.57826 0.11819 0.73824 0.0
C271 C 0.56805 0.15204 0.67793 0.0
C272 C 0.57798 0.07422 0.72093 0.0
C273 C 0.56792 0.10746 0.66169 0.0
C274 C 0.61905 0.24118 0.81933 0.0
C275 C 0.62372 0.25957 0.88639 0.0
N276 N 0.64347 0.26543 0.87983 0.0
C277 C 0.63943 0.24707 0.81336 0.0
C278 C 0.61114 0.24731 0.85621 0.0
C279 C 0.65151 0.25949 0.84426 0.0
C280 C 0.61972 0.15246 0.67872 0.0
N281 N 0.62029 0.1669 0.71596 0.0
C282 C 0.64964 0.12261 0.72702 0.0
C283 C 0.63446 0.15134 0.7404 0.0
C284 C 0.65014 0.10951 0.68815 0.0
C285 C 0.63461 0.12356 0.6641 0.0
H286 H 0.60826 0.1651 0.65984 0.0
H287 H 0.63435 0.16244 0.77004 0.0
C288 C 0.54502 0.22504 0.83412 0.0
N289 N 0.56297 0.20712 0.82413 0.0
C290 C 0.53378 0.2039 0.86307 0.0
C291 C 0.55995 0.14698 0.87086 0.0
C292 C 0.5706 0.16909 0.84186 0.0
C293 C 0.54122 0.16413 0.88163 0.0
H294 H 0.53935 0.25529 0.81926 0.0
H295 H 0.58492 0.15571 0.8331 0.0
C296 C 0.61968 0.26624 0.68094 0.0
N297 N 0.64925 0.2477 0.62785 0.0
C298 C 0.63953 0.26494 0.69237 0.0
C299 C 0.61489 0.2585 0.64241 0.0
C300 C 0.65425 0.25534 0.66515 0.0
C301 C 0.63005 0.24914 0.61602 0.0
C302 C 0.57132 0.34054 0.78188 0.0
C303 C 0.57247 0.37935 0.75777 0.0
C304 C 0.56936 0.34679 0.82153 0.0
C305 C 0.57178 0.42398 0.77384 0.0
C306 C 0.5687 0.392 0.83648 0.0
N307 N 0.56993 0.42933 0.81253 0.0
C308 C 0.54179 0.27146 0.66963 0.0
C309 C 0.5686 0.32155 0.65364 0.0
C310 C 0.53027 0.29057 0.6403 0.0
N311 N 0.56051 0.28744 0.67562 0.0
C312 C 0.55778 0.34118 0.62393 0.0
C313 C 0.53832 0.32595 0.61713 0.0
H314 H 0.53576 0.24444 0.68792 0.0
H315 H 0.58342 0.334 0.65966 0.0
C316 C 0.62024 0.35431 0.81431 0.0
N317 N 0.61768 0.3415 0.777 0.0
C318 C 0.63536 0.38528 0.82424 0.0
C319 C 0.64307 0.39407 0.7568 0.0
C320 C 0.62793 0.36275 0.74827 0.0
C321 C 0.64762 0.40374 0.79531 0.0
H322 H 0.61134 0.33859 0.8366 0.0
H323 H 0.62503 0.35375 0.71871 0.0
O324 O 0.57367 0.20072 0.73277 0.0
O325 O 0.60699 0.22893 0.78939 0.0
O326 O 0.60503 0.27513 0.70734 0.0
O327 O 0.5722 0.29662 0.76675 0.0
H328 H 0.58246 0.12176 0.76805 0.0
H329 H 0.56427 0.18205 0.66066 0.0
H330 H 0.58186 0.04361 0.73737 0.0
H331 H 0.56394 0.10281 0.63185 0.0
H332 H 0.61776 0.26473 0.91498 0.0
H333 H 0.64587 0.24234 0.78514 0.0
H334 H 0.59541 0.24358 0.86144 0.0
H335 H 0.66727 0.26445 0.83996 0.0
H336 H 0.66112 0.11158 0.7467 0.0
H337 H 0.63448 0.11423 0.63393 0.0
H338 H 0.51943 0.21822 0.87064 0.0
H339 H 0.56606 0.11588 0.88386 0.0
H340 H 0.64351 0.27104 0.722 0.0
H341 H 0.59961 0.25887 0.63305 0.0
H342 H 0.66965 0.25394 0.67368 0.0
H343 H 0.62655 0.24276 0.58617 0.0
H344 H 0.57404 0.37501 0.72702 0.0
H345 H 0.56854 0.31704 0.84056 0.0
H346 H 0.57273 0.45436 0.75556 0.0
H347 H 0.56728 0.39741 0.86714 0.0
H348 H 0.51526 0.27819 0.63595 0.0
H349 H 0.56433 0.36919 0.60734 0.0
H350 H 0.63823 0.39214 0.85432 0.0
H351 H 0.65174 0.40884 0.73355 0.0
H352 H 0.31265 0.86599 0.38936 0.0
H353 H 0.28335 0.91119 0.40779 0.0
H354 H 0.29632 0.0106 0.31832 0.0
H355 H 0.32547 0.96544 0.29948 0.0
H356 H 0.27822 0.05145 0.3836 0.0
H357 H 0.26941 0.92064 0.29576 0.0
H358 H 0.2731 0.83772 0.2783 0.0
H359 H 0.23844 0.79828 0.37682 0.0
H360 H 0.23485 0.88107 0.39521 0.0
H361 H 0.1948 0.12488 0.28503 0.0
H362 H 0.22533 0.08854 0.30722 0.0
H363 H 0.19241 0.01279 0.39343 0.0
H364 H 0.16148 0.04934 0.37103 0.0
H365 H 0.21898 0.95759 0.34884 0.0
H366 H 0.2208 0.095 0.42458 0.0
H367 H 0.21743 0.17916 0.43735 0.0
H368 H 0.26502 0.20789 0.3585 0.0
H369 H 0.26847 0.12394 0.34474 0.0
C370 C 0.30948 0.89803 0.37416 0.0
C371 C 0.32108 0.91168 0.34243 0.0
C372 C 0.29284 0.92395 0.38492 0.0
C373 C 0.28755 0.96373 0.36399 0.0
C374 C 0.3002 0.97997 0.33484 0.0
C375 C 0.31685 0.95408 0.32406 0.0
C376 C 0.26741 0.98359 0.36755 0.0
C377 C 0.26522 0.03101 0.37633 0.0
C378 C 0.25045 0.9565 0.35871 0.0
C379 C 0.25204 0.9069 0.34707 0.0
C380 C 0.26265 0.89424 0.31378 0.0
C381 C 0.26474 0.8473 0.30373 0.0
C382 C 0.25605 0.81274 0.32649 0.0
C383 C 0.24519 0.82509 0.35926 0.0
C384 C 0.24313 0.87201 0.36952 0.0
C385 C 0.19403 0.10035 0.30863 0.0
C386 C 0.1758 0.08953 0.32613 0.0
C387 C 0.21149 0.08003 0.32154 0.0
C388 C 0.21111 0.04849 0.35224 0.0
C389 C 0.19295 0.03738 0.36987 0.0
C390 C 0.17539 0.05821 0.35714 0.0
C391 C 0.2298 0.02583 0.364 0.0
C392 C 0.23179 0.97781 0.35771 0.0
C393 C 0.24654 0.05252 0.37482 0.0
C394 C 0.24485 0.10308 0.38355 0.0
C395 C 0.23049 0.11926 0.40981 0.0
C396 C 0.22857 0.16695 0.41724 0.0
C397 C 0.241 0.19886 0.39874 0.0
C398 C 0.25541 0.18312 0.37284 0.0
C399 C 0.25739 0.13546 0.36528 0.0
H400 H 0.23946 0.23578 0.40448 0.0
H401 H 0.25769 0.7764 0.3187 0.0
H402 H 0.16497 0.46952 0.17864 0.0
H403 H 0.19647 0.50592 0.16142 0.0
H404 H 0.21093 0.38816 0.08924 0.0
H405 H 0.17947 0.35109 0.10709 0.0
H406 H 0.23922 0.40395 0.14067 0.0
H407 H 0.20572 0.49661 0.04944 0.0
H408 H 0.17959 0.54741 0.02326 0.0
H409 H 0.19367 0.6527 0.10664 0.0
H410 H 0.21968 0.60231 0.13374 0.0
H411 H 0.33331 0.52502 0.13208 0.0
H412 H 0.3028 0.48775 0.10829 0.0
H413 H 0.26785 0.57683 0.18212 0.0
H414 H 0.29798 0.61404 0.20554 0.0
H415 H 0.25226 0.56974 0.10925 0.0
H416 H 0.27855 0.46863 0.2094 0.0
H417 H 0.30374 0.41753 0.23856 0.0
H418 H 0.30228 0.32837 0.13937 0.0
H419 H 0.27724 0.37936 0.10942 0.0
C420 C 0.17467 0.4519 0.15843 0.0
C421 C 0.16987 0.40738 0.14443 0.0
C422 C 0.1926 0.47289 0.1483 0.0
C423 C 0.20604 0.44985 0.12386 0.0
C424 C 0.20074 0.40661 0.10799 0.0
C425 C 0.18272 0.38562 0.11803 0.0
C426 C 0.22652 0.46804 0.11979 0.0
C427 C 0.24217 0.43982 0.13259 0.0
C428 C 0.23034 0.51498 0.10981 0.0
C429 C 0.21464 0.54552 0.09371 0.0
C430 C 0.20316 0.53046 0.06239 0.0
C431 C 0.18837 0.55922 0.04735 0.0
C432 C 0.18496 0.60323 0.06329 0.0
C433 C 0.19634 0.6186 0.0943 0.0
C434 C 0.21114 0.58998 0.10946 0.0
C435 C 0.31907 0.53661 0.14298 0.0
C436 C 0.31796 0.57186 0.17102 0.0
C437 C 0.30172 0.51538 0.12944 0.0
C438 C 0.28311 0.52957 0.14352 0.0
C439 C 0.28205 0.56549 0.17081 0.0
C440 C 0.29928 0.58631 0.1845 0.0
C441 C 0.26456 0.50617 0.13163 0.0
C442 C 0.24935 0.53343 0.11591 0.0
C443 C 0.26109 0.45845 0.13913 0.0
C444 C 0.27628 0.42817 0.15693 0.0
C445 C 0.28376 0.43841 0.19364 0.0
C446 C 0.29797 0.40941 0.21035 0.0
C447 C 0.30467 0.36984 0.19076 0.0
C448 C 0.29713 0.35913 0.15445 0.0
C449 C 0.28294 0.38806 0.13759 0.0
H450 H 0.31565 0.34739 0.20376 0.0
H451 H 0.17351 0.62545 0.0516 0.0
H452 H 0.65012 0.03476 0.63886 0.0
H453 H 0.67902 0.99108 0.61523 0.0
H454 H 0.71777 0.08262 0.67872 0.0
H455 H 0.68913 0.12669 0.70171 0.0
H456 H 0.73271 0.06237 0.60734 0.0
H457 H 0.70381 0.97982 0.71617 0.0
H458 H 0.6768 0.93929 0.75055 0.0
H459 H 0.67231 0.83992 0.65856 0.0
H460 H 0.69917 0.88028 0.62343 0.0
H461 H 0.81669 0.94605 0.67548 0.0
H462 H 0.78677 0.98947 0.65861 0.0
H463 H 0.76422 0.86889 0.59846 0.0
H464 H 0.79421 0.8252 0.6161 0.0
H465 H 0.73861 0.89812 0.65003 0.0
H466 H 0.77425 0.97193 0.54966 0.0
H467 H 0.80204 0.01269 0.518 0.0
H468 H 0.79487 0.12876 0.59485 0.0
H469 H 0.76723 0.08847 0.62737 0.0
C470 C 0.66483 0.04577 0.64737 0.0
C471 C 0.66739 0.08364 0.67256 0.0
C472 C 0.68129 0.02081 0.63393 0.0
C473 C 0.7005 0.03351 0.64543 0.0
C474 C 0.70307 0.0723 0.66946 0.0
C475 C 0.68669 0.09706 0.68297 0.0
C476 C 0.71796 0.00487 0.63499 0.0
C477 C 0.73407 0.0264 0.61652 0.0
C478 C 0.71941 0.95757 0.64592 0.0
C479 C 0.70328 0.93339 0.66697 0.0
C480 C 0.69694 0.94956 0.70315 0.0
C481 C 0.68169 0.92659 0.72279 0.0
C482 C 0.67279 0.88716 0.70669 0.0
C483 C 0.67918 0.87054 0.67095 0.0
C484 C 0.69441 0.89344 0.65116 0.0
C485 C 0.80558 0.92951 0.65762 0.0
C486 C 0.80761 0.88274 0.64672 0.0
C487 C 0.78855 0.95428 0.6478 0.0
C488 C 0.77331 0.93261 0.62689 0.0
C489 C 0.77585 0.88637 0.61436 0.0
C490 C 0.79292 0.86155 0.62426 0.0
C491 C 0.75379 0.956 0.62349 0.0
C492 C 0.73721 0.93356 0.63953 0.0
C493 C 0.75201 0.00254 0.6105 0.0
C494 C 0.76867 0.02702 0.59107 0.0
C495 C 0.77868 0.006 0.56001 0.0
C496 C 0.7944 0.02907 0.54186 0.0
C497 C 0.80023 0.07327 0.55442 0.0
C498 C 0.79033 0.09453 0.58513 0.0
C499 C 0.7746 0.07162 0.60338 0.0
H500 H 0.8124 0.09106 0.54033 0.0
H501 H 0.66099 0.86939 0.72195 0.0
H502 H 0.82615 0.53127 0.83121 0.0
H503 H 0.79497 0.48812 0.83585 0.0
H504 H 0.76846 0.6024 0.89806 0.0
H505 H 0.79963 0.64603 0.89325 0.0
H506 H 0.75379 0.49956 0.91455 0.0
H507 H 0.76396 0.61966 0.81535 0.0
H508 H 0.78507 0.65595 0.76563 0.0
H509 H 0.78769 0.52605 0.70433 0.0
H510 H 0.76692 0.48877 0.75418 0.0
H511 H 0.65378 0.46976 0.85144 0.0
H512 H 0.6855 0.50505 0.86993 0.0
H513 H 0.7152 0.42693 0.78061 0.0
H514 H 0.6838 0.39182 0.7621 0.0
H515 H 0.72819 0.51317 0.78138 0.0
H516 H 0.71692 0.39299 0.87407 0.0
H517 H 0.69809 0.35055 0.9238 0.0
H518 H 0.69907 0.4716 -0.00348 0.0
H519 H 0.71763 0.51508 0.94689 0.0
C520 C 0.814 0.54625 0.84754 0.0
C521 C 0.81513 0.59214 0.86143 0.0
C522 C 0.79621 0.52157 0.85014 0.0
C523 C 0.77946 0.54244 0.86692 0.0
C524 C 0.78129 0.58581 0.88514 0.0
C525 C 0.79903 0.61075 0.88217 0.0
C526 C 0.75958 0.52457 0.85737 0.0
C527 C 0.748 0.5029 0.88565 0.0
C528 C 0.75234 0.52844 0.81945 0.0
C529 C 0.76406 0.55135 0.78864 0.0
C530 C 0.76914 0.59879 0.79138 0.0
C531 C 0.78104 0.61953 0.76319 0.0
C532 C 0.78776 0.59328 0.7319 0.0
C533 C 0.7825 0.54631 0.72862 0.0
C534 C 0.77066 0.52537 0.75682 0.0
C535 C 0.66709 0.4603 0.83574 0.0
C536 C 0.66627 0.42826 0.80517 0.0
C537 C 0.68518 0.48036 0.84635 0.0
C538 C 0.70272 0.46823 0.82685 0.0
C539 C 0.70184 0.43694 0.79594 0.0
C540 C 0.68383 0.41711 0.78525 0.0
C541 C 0.72215 0.48764 0.83851 0.0
C542 C 0.73375 0.50989 0.81047 0.0
C543 C 0.72943 0.48361 0.87652 0.0
C544 C 0.71846 0.45746 0.90659 0.0
C545 C 0.71298 0.41069 0.90054 0.0
C546 C 0.70238 0.38643 0.92872 0.0
C547 C 0.69734 0.40841 0.96325 0.0
C548 C 0.70295 0.45466 0.96972 0.0
C549 C 0.71352 0.47913 0.94158 0.0
H550 H 0.68913 0.38956 0.98504 0.0
H551 H 0.79702 0.60934 0.71016 0.0
H552 H 0.02059 0.16935 0.07099 0.0
H553 H 0.00218 0.1241 0.02335 0.0
H554 H 0.01854 -0.00315 0.08095 0.0
H555 H 0.0367 0.0418 0.12903 0.0
H556 H 0.02594 0.99304 0.00409 0.0
H557 H 0.97195 0.03583 0.08698 0.0
H558 H 0.95043 0.08927 0.12381 0.0
H559 H 0.93443 0.15995 0.01982 0.0
H560 H 0.95608 0.10732 0.9824 0.0
H561 H 0.96166 0.83662 0.90655 0.0
H562 H 0.97951 0.88333 0.95392 0.0
H563 H 0.96107 0.00918 0.89655 0.0
H564 H 0.94321 0.96263 0.84894 0.0
H565 H 0.95481 0.01462 0.97274 0.0
H566 H 0.00868 0.97134 0.88976 0.0
H567 H 0.03012 0.9176 0.85303 0.0
H568 H 0.04636 0.84776 0.95727 0.0
H569 H 0.0248 0.9007 0.99459 0.0
C570 C 0.01996 0.1318 0.07393 0.0
C571 C 0.03018 0.10913 0.10367 0.0
C572 C 0.00949 0.10601 0.04664 0.0
C573 C 0.00901 0.05717 0.04871 0.0
C574 C 0.01884 0.03452 0.07877 0.0
C575 C 0.02926 0.06025 0.1061 0.0
C576 C -0.001 0.02952 0.01858 0.0
C577 C 0.01032 -0.00274 -0.00245 0.0
C578 C 0.97877 0.03607 0.00948 0.0
C579 C 0.96582 0.06795 0.03194 0.0
C580 C 0.964 0.06306 0.072 0.0
C581 C 0.95174 0.09314 0.09298 0.0
C582 C 0.94111 0.12808 0.07418 0.0
C583 C 0.94269 0.13293 0.03435 0.0
C584 C 0.95495 0.10296 0.01324 0.0
C585 C 0.9617 0.8742 0.90362 0.0
C586 C 0.95105 0.89598 0.87403 0.0
C587 C 0.97186 0.90085 0.93076 0.0
C588 C 0.9717 0.9497 0.92859 0.0
C589 C 0.96132 0.97152 0.89877 0.0
C590 C 0.95111 0.94491 0.87167 0.0
C591 C 0.98175 0.97804 0.95827 0.0
C592 C 0.97044 0.01045 0.97922 0.0
C593 C 0.002 0.97165 0.9673 0.0
C594 C 0.01497 0.93972 0.94492 0.0
C595 C 0.01669 0.94427 0.90481 0.0
C596 C 0.02889 0.914 0.8839 0.0
C597 C 0.03956 0.87921 0.90279 0.0
C598 C 0.03807 0.87469 0.94266 0.0
C599 C 0.02588 0.90484 0.96372 0.0
H600 H 0.049 0.85582 0.88655 0.0
H601 H 0.93162 0.15131 0.09047 0.0
H602 H 0.55365 0.12597 0.94919 0.0
H603 H 0.53528 0.07184 0.99019 0.0
H604 H 0.48328 0.09 0.92 0.0
H605 H 0.50165 0.14364 0.87841 0.0
H606 H 0.47515 0.08306 0.00028 0.0
H607 H 0.5112 0.00264 0.90031 0.0
H608 H 0.54123 0.98461 0.86247 0.0
H609 H 0.57028 0.93536 0.96418 0.0
H610 H 0.54051 0.95391 0.00278 0.0
H611 H 0.42383 0.88029 0.05335 0.0
H612 H 0.44135 0.9359 0.01221 0.0
H613 H 0.4953 0.91177 0.07542 0.0
H614 H 0.47787 0.85601 0.11662 0.0
H615 H 0.50232 0.9221 -0.00166 0.0
H616 H 0.46696 0.00212 0.09857 0.0
H617 H 0.43741 0.0209 0.13759 0.0
H618 H 0.40764 0.0716 0.03717 0.0
H619 H 0.43692 0.05237 -0.0026 0.0
C620 C 0.53824 0.11881 0.94272 0.0
C621 C 0.52917 0.1384 0.91024 0.0
C622 C 0.52777 0.0881 0.96623 0.0
C623 C 0.50808 0.07648 0.95762 0.0
C624 C 0.49851 0.09857 0.92696 0.0
C625 C 0.509 0.12927 0.90332 0.0
C626 C 0.49814 0.03815 0.97836 0.0
C627 C 0.48092 0.04776 -0.00046 0.0
C628 C 0.50596 0.99236 0.97778 0.0
C629 C 0.52369 0.98005 0.95448 0.0
C630 C 0.52403 0.98823 0.91465 0.0
C631 C 0.54101 0.97791 0.89306 0.0
C632 C 0.55767 0.95894 0.91092 0.0
C633 C 0.55737 0.9501 0.95039 0.0
C634 C 0.54044 0.96049 0.97214 0.0
C635 C 0.43948 0.88653 0.05819 0.0
C636 C 0.44945 0.86435 0.08843 0.0
C637 C 0.44945 0.91819 0.03469 0.0
C638 C 0.46949 0.92852 0.04134 0.0
C639 C 0.4798 0.9043 0.06996 0.0
C640 C 0.46985 0.87243 0.09339 0.0
C641 C 0.47928 0.96693 0.02033 0.0
C642 C 0.49651 0.95736 -0.00093 0.0
C643 C 0.47151 0.0128 0.02101 0.0
C644 C 0.45406 0.02543 0.04496 0.0
C645 C 0.45407 0.01704 0.08477 0.0
C646 C 0.43737 0.02776 0.10702 0.0
C647 C 0.42064 0.04734 0.08985 0.0
C648 C 0.4206 0.05639 0.05041 0.0
C649 C 0.43725 0.04561 0.02801 0.0
H650 H 0.40772 0.05558 0.10712 0.0
H651 H 0.57081 0.95101 0.89417 0.0
H652 H 0.94489 0.53645 0.63476 0.0
H653 H 0.96522 0.4916 0.58954 0.0
H654 H 0.98354 0.61898 0.53402 0.0
H655 H 0.96305 0.66406 0.57897 0.0
H656 H 0.97082 0.55143 0.48292 0.0
H657 H 0.01563 0.56398 0.58881 0.0
H658 H 0.02613 0.55789 0.65638 0.0
H659 H 0.01565 0.41026 0.65397 0.0
H660 H 0.0048 0.41557 0.58651 0.0
H661 H 0.0457 0.45221 0.36566 0.0
H662 H 0.02798 0.49933 0.41311 0.0
H663 H 0.01154 0.37475 0.47479 0.0
H664 H 0.02985 0.32738 0.4281 0.0
H665 H 0.02397 0.44245 0.52303 0.0
H666 H 0.97822 0.42976 0.41831 0.0
H667 H 0.9673 0.43526 0.35094 0.0
H668 H 0.97902 0.58241 0.35146 0.0
H669 H 0.99027 0.57767 0.41871 0.0
C670 C 0.95326 0.55485 0.6129 0.0
C671 C 0.95239 0.60368 0.61027 0.0
C672 C 0.96496 0.52927 0.58732 0.0
C673 C 0.97595 0.55208 0.55866 0.0
C674 C 0.97519 0.60083 0.55605 0.0
C675 C 0.9636 0.62649 0.58183 0.0
C676 C 0.98764 0.52479 0.53054 0.0
C677 C 0.98267 0.52814 0.49157 0.0
C678 C 0.0027 0.49358 0.54211 0.0
C679 C 0.00921 0.49026 0.5827 0.0
C680 C 0.01539 0.53028 0.60278 0.0
C681 C 0.02144 0.52696 0.64105 0.0
C682 C 0.02151 0.48374 0.65949 0.0
C683 C 0.01557 0.44373 0.63966 0.0
C684 C 0.00948 0.44687 0.6014 0.0
C685 C 0.03847 0.43484 0.38951 0.0
C686 C 0.03916 0.38605 0.39313 0.0
C687 C 0.0282 0.46179 0.41639 0.0
C688 C 0.01828 0.44046 0.44721 0.0
C689 C 0.01906 0.39183 0.45112 0.0
C690 C 0.02936 0.36482 0.42425 0.0
C691 C 0.00711 0.46898 0.47538 0.0
C692 C 0.01217 0.46584 0.51436 0.0
C693 C 0.99206 0.50029 0.46385 0.0
C694 C 0.98528 0.50326 0.42342 0.0
C695 C 0.97862 0.46322 0.40396 0.0
C696 C 0.97235 0.46622 0.36581 0.0
C697 C 0.97252 0.50914 0.3469 0.0
C698 C 0.97892 0.54918 0.36613 0.0
C699 C 0.98524 0.54636 0.40427 0.0
H700 H 0.96765 0.51139 0.31737 0.0
H701 H 0.02621 0.48123 0.68911 0.0
H702 H 0.43451 0.63087 0.44761 0.0
H703 H 0.45164 0.57677 0.49027 0.0
H704 H 0.50099 0.57087 0.41101 0.0
H705 H 0.48373 0.62455 0.36792 0.0
H706 H 0.48559 0.48548 0.42643 0.0
H707 H 0.50733 0.61753 0.49878 0.0
H708 H 0.50434 0.69143 0.5346 0.0
H709 H 0.46562 0.62565 0.61641 0.0
H710 H 0.46816 0.55147 0.5808 0.0
H711 H 0.54913 0.34895 0.54409 0.0
H712 H 0.5323 0.40385 0.50177 0.0
H713 H 0.48358 0.41299 0.58225 0.0
H714 H 0.50062 0.35887 0.62521 0.0
H715 H 0.49887 0.49713 0.56612 0.0
H716 H 0.47693 0.36519 0.49343 0.0
H717 H 0.47986 0.2914 0.45743 0.0
H718 H 0.5189 0.35708 0.37613 0.0
H719 H 0.51641 0.43115 0.41192 0.0
C720 C 0.4492 0.61875 0.43975 0.0
C721 C 0.45775 0.63135 0.4044 0.0
C722 C 0.45901 0.58815 0.4642 0.0
C723 C 0.47753 0.5698 0.45366 0.0
C724 C 0.48667 0.58471 0.41953 0.0
C725 C 0.47689 0.61554 0.39512 0.0
C726 C 0.48607 0.53093 0.4758 0.0
C727 C 0.48887 0.48819 0.45686 0.0
C728 C 0.48959 0.53425 0.51568 0.0
C729 C 0.48778 0.57903 0.53686 0.0
C730 C 0.498 0.61893 0.52417 0.0
C731 C 0.49643 0.66085 0.54451 0.0
C732 C 0.48475 0.66327 0.5777 0.0
C733 C 0.47464 0.62375 0.59066 0.0
C734 C 0.47616 0.58174 0.57043 0.0
C735 C 0.53464 0.36198 0.55235 0.0
C736 C 0.52625 0.35017 0.58805 0.0
C737 C 0.52499 0.39306 0.52806 0.0
C738 C 0.50674 0.41254 0.53899 0.0
C739 C 0.49769 0.39834 0.57342 0.0
C740 C 0.50735 0.36718 0.59775 0.0
C741 C 0.49836 0.45161 0.51678 0.0
C742 C 0.4956 0.49441 0.5357 0.0
C743 C 0.49486 0.44834 0.47687 0.0
C744 C 0.49664 0.40362 0.45561 0.0
C745 C 0.48631 0.36379 0.46811 0.0
C746 C 0.48785 0.32193 0.44768 0.0
C747 C 0.4996 0.31952 0.41458 0.0
C748 C 0.50982 0.35898 0.40181 0.0
C749 C 0.50833 0.40092 0.42214 0.0
H750 H 0.50075 0.2871 0.39877 0.0
H751 H 0.48357 0.69574 0.59343 0.0
loop_
_geom_bond_atom_site_label_1
_geom_bond_atom_site_label_2
_geom_bond_distance
_geom_bond_site_symmetry_2
_ccdc_geom_bond_type
Li0 N17 1.990 . S
Li0 O60 1.956 . S
Li0 O61 1.970 . S
Li0 O62 1.961 . S
Li1 N25 1.990 . S
Li1 O60 1.970 . S
Li1 O61 1.956 . S
Li1 O63 1.961 . S
Li2 N47 1.990 . S
Li2 O60 1.961 . S
Li2 O62 1.956 . S
Li2 O63 1.970 . S
Li3 N53 1.990 . S
Li3 O61 1.961 . S
Li3 O62 1.970 . S
Li3 O63 1.956 . S
C4 C6 1.348 . S
C4 C7 1.356 . S
C4 O60 1.325 . S
N5 C8 1.314 . S
N5 C9 1.279 . S
C6 C4 1.348 . S
C6 C8 1.353 . S
C6 H64 0.929 . S
C7 C4 1.356 . S
C7 C9 1.358 . S
C7 H65 0.930 . S
C8 N5 1.314 . S
C8 C6 1.353 . S
C8 H66 0.930 . S
C9 N5 1.279 . S
C9 C7 1.358 . S
C9 H67 0.930 . S
C10 C13 1.348 . S
C10 C14 1.356 . S
C10 O61 1.325 . S
C11 N12 1.279 . S
C11 C14 1.358 . S
C11 H68 0.930 . S
N12 C11 1.279 . S
N12 C15 1.314 . S
C13 C10 1.348 . S
C13 C15 1.353 . S
C13 H69 0.929 . S
C14 C10 1.356 . S
C14 C11 1.358 . S
C14 H70 0.930 . S
C15 N12 1.314 . S
C15 C13 1.353 . S
C15 H71 0.930 . S
C16 N17 1.314 . S
C16 C21 1.353 . S
C16 H22 0.930 . S
N17 Li0 1.990 . S
N17 C16 1.314 . S
N17 C19 1.279 . S
C18 C19 1.358 . S
C18 C20 1.356 . S
C18 H72 0.930 . S
C19 N17 1.279 . S
C19 C18 1.358 . S
C19 H23 0.930 . S
C20 C18 1.356 . S
C20 C21 1.348 . S
C21 C16 1.353 . S
C21 C20 1.348 . S
C21 H73 0.929 . S
H22 C16 0.930 . S
H23 C19 0.930 . S
C24 N25 1.314 . S
C24 C26 1.353 . S
C24 H30 0.930 . S
N25 Li1 1.990 . S
N25 C24 1.314 . S
N25 C28 1.279 . S
C26 C24 1.353 . S
C26 C29 1.348 . S
C26 H74 0.929 . S
C27 C28 1.358 . S
C27 C29 1.356 . S
C27 H75 0.930 . S
C28 N25 1.279 . S
C28 C27 1.358 . S
C28 H31 0.930 . S
C29 C26 1.348 . S
C29 C27 1.356 . S
H30 C24 0.930 . S
H31 C28 0.930 . S
C32 C34 1.348 . S
C32 C35 1.356 . S
C32 O62 1.325 . S
N33 C36 1.314 . S
N33 C37 1.279 . S
C34 C32 1.348 . S
C34 C36 1.353 . S
C34 H76 0.929 . S
C35 C32 1.356 . S
C35 C37 1.358 . S
C35 H77 0.930 . S
C36 N33 1.314 . S
C36 C34 1.353 . S
C36 H78 0.930 . S
C37 N33 1.279 . S
C37 C35 1.358 . S
C37 H79 0.930 . S
C38 C39 1.348 . S
C38 C40 1.356 . S
C38 O63 1.325 . S
C39 C38 1.348 . S
C39 C41 1.353 . S
C39 H80 0.929 . S
C40 C38 1.356 . S
C40 C42 1.358 . S
C40 H81 0.930 . S
C41 C39 1.353 . S
C41 N43 1.314 . S
C41 H82 0.930 . S
C42 C40 1.358 . S
C42 N43 1.279 . S
C42 H83 0.930 . S
N43 C41 1.314 . S
N43 C42 1.279 . S
C44 C46 1.353 . S
C44 N47 1.314 . S
C44 H50 0.930 . S
C45 N47 1.279 . S
C45 C48 1.358 . S
C45 H51 0.930 . S
C46 C44 1.353 . S
C46 C49 1.348 . S
C46 H84 0.929 . S
N47 Li2 1.990 . S
N47 C44 1.314 . S
N47 C45 1.279 . S
C48 C45 1.358 . S
C48 C49 1.356 . S
C48 H85 0.930 . S
C49 C46 1.348 . S
C49 C48 1.356 . S
H50 C44 0.930 . S
H51 C45 0.930 . S
C52 N53 1.314 . S
C52 C54 1.353 . S
C52 H58 0.930 . S
N53 Li3 1.990 . S
N53 C52 1.314 . S
N53 C56 1.279 . S
C54 C52 1.353 . S
C54 C57 1.348 . S
C54 H86 0.929 . S
C55 C56 1.358 . S
C55 C57 1.356 . S
C55 H87 0.930 . S
C56 N53 1.279 . S
C56 C55 1.358 . S
C56 H59 0.930 . S
C57 C54 1.348 . S
C57 C55 1.356 . S
H58 C52 0.930 . S
H59 C56 0.930 . S
O60 Li0 1.956 . S
O60 Li1 1.970 . S
O60 Li2 1.961 . S
O60 C4 1.325 . S
O61 Li0 1.970 . S
O61 Li1 1.956 . S
O61 Li3 1.961 . S
O61 C10 1.325 . S
O62 Li0 1.961 . S
O62 Li2 1.956 . S
O62 Li3 1.970 . S
O62 C32 1.325 . S
O63 Li1 1.961 . S
O63 Li2 1.970 . S
O63 Li3 1.956 . S
O63 C38 1.325 . S
H64 C6 0.929 . S
H65 C7 0.930 . S
H66 C8 0.930 . S
H67 C9 0.930 . S
H68 C11 0.930 . S
H69 C13 0.929 . S
H70 C14 0.930 . S
H71 C15 0.930 . S
H72 C18 0.930 . S
H73 C21 0.929 . S
H74 C26 0.929 . S
H75 C27 0.930 . S
H76 C34 0.929 . S
H77 C35 0.930 . S
H78 C36 0.930 . S
H79 C37 0.930 . S
H80 C39 0.929 . S
H81 C40 0.930 . S
H82 C41 0.930 . S
H83 C42 0.930 . S
H84 C46 0.929 . S
H85 C48 0.930 . S
H86 C54 0.929 . S
H87 C55 0.930 . S
Li88 N105 1.990 . S
Li88 O148 1.956 . S
Li88 O149 1.970 . S
Li88 O150 1.961 . S
Li89 N113 1.990 . S
Li89 O148 1.970 . S
Li89 O149 1.956 . S
Li89 O151 1.961 . S
Li90 N135 1.990 . S
Li90 O148 1.961 . S
Li90 O150 1.956 . S
Li90 O151 1.970 . S
Li91 N141 1.990 . S
Li91 O149 1.961 . S
Li91 O150 1.970 . S
Li91 O151 1.956 . S
C92 C94 1.348 . S
C92 C95 1.356 . S
C92 O148 1.325 . S
N93 C96 1.314 . S
N93 C97 1.279 . S
C94 C92 1.348 . S
C94 C96 1.353 . S
C94 H152 0.929 . S
C95 C92 1.356 . S
C95 C97 1.358 . S
C95 H153 0.930 . S
C96 N93 1.314 . S
C96 C94 1.353 . S
C96 H154 0.930 . S
C97 N93 1.279 . S
C97 C95 1.358 . S
C97 H155 0.930 . S
C98 C101 1.348 . S
C98 C102 1.356 . S
C98 O149 1.325 . S
C99 N100 1.279 . S
C99 C102 1.358 . S
C99 H156 0.930 . S
N100 C99 1.279 . S
N100 C103 1.314 . S
C101 C98 1.348 . S
C101 C103 1.353 . S
C101 H157 0.929 . S
C102 C98 1.356 . S
C102 C99 1.358 . S
C102 H158 0.930 . S
C103 N100 1.314 . S
C103 C101 1.353 . S
C103 H159 0.930 . S
C104 N105 1.314 . S
C104 C109 1.353 . S
C104 H110 0.930 . S
N105 Li88 1.990 . S
N105 C104 1.314 . S
N105 C107 1.279 . S
C106 C107 1.358 . S
C106 C108 1.356 . S
C106 H160 0.930 . S
C107 N105 1.279 . S
C107 C106 1.358 . S
C107 H111 0.930 . S
C108 C106 1.356 . S
C108 C109 1.348 . S
C109 C104 1.353 . S
C109 C108 1.348 . S
C109 H161 0.929 . S
H110 C104 0.930 . S
H111 C107 0.930 . S
C112 N113 1.314 . S
C112 C114 1.353 . S
C112 H118 0.930 . S
N113 Li89 1.990 . S
N113 C112 1.314 . S
N113 C116 1.279 . S
C114 C112 1.353 . S
C114 C117 1.348 . S
C114 H162 0.929 . S
C115 C116 1.358 . S
C115 C117 1.356 . S
C115 H163 0.930 . S
C116 N113 1.279 . S
C116 C115 1.358 . S
C116 H119 0.930 . S
C117 C114 1.348 . S
C117 C115 1.356 . S
H118 C112 0.930 . S
H119 C116 0.930 . S
C120 C122 1.348 . S
C120 C123 1.356 . S
C120 O150 1.325 . S
N121 C124 1.314 . S
N121 C125 1.279 . S
C122 C120 1.348 . S
C122 C124 1.353 . S
C122 H164 0.929 . S
C123 C120 1.356 . S
C123 C125 1.358 . S
C123 H165 0.930 . S
C124 N121 1.314 . S
C124 C122 1.353 . S
C124 H166 0.930 . S
C125 N121 1.279 . S
C125 C123 1.358 . S
C125 H167 0.930 . S
C126 C127 1.348 . S
C126 C128 1.356 . S
C126 O151 1.325 . S
C127 C126 1.348 . S
C127 C129 1.353 . S
C127 H168 0.929 . S
C128 C126 1.356 . S
C128 C130 1.358 . S
C128 H169 0.930 . S
C129 C127 1.353 . S
C129 N131 1.314 . S
C129 H170 0.930 . S
C130 C128 1.358 . S
C130 N131 1.279 . S
C130 H171 0.930 . S
N131 C129 1.314 . S
N131 C130 1.279 . S
C132 C134 1.353 . S
C132 N135 1.314 . S
C132 H138 0.930 . S
C133 N135 1.279 . S
C133 C136 1.358 . S
C133 H139 0.930 . S
C134 C132 1.353 . S
C134 C137 1.348 . S
C134 H172 0.929 . S
N135 Li90 1.990 . S
N135 C132 1.314 . S
N135 C133 1.279 . S
C136 C133 1.358 . S
C136 C137 1.356 . S
C136 H173 0.930 . S
C137 C134 1.348 . S
C137 C136 1.356 . S
H138 C132 0.930 . S
H139 C133 0.930 . S
C140 N141 1.314 . S
C140 C142 1.353 . S
C140 H146 0.930 . S
N141 Li91 1.990 . S
N141 C140 1.314 . S
N141 C144 1.279 . S
C142 C140 1.353 . S
C142 C145 1.348 . S
C142 H174 0.929 . S
C143 C144 1.358 . S
C143 C145 1.356 . S
C143 H175 0.930 . S
C144 N141 1.279 . S
C144 C143 1.358 . S
C144 H147 0.930 . S
C145 C142 1.348 . S
C145 C143 1.356 . S
H146 C140 0.930 . S
H147 C144 0.930 . S
O148 Li88 1.956 . S
O148 Li89 1.970 . S
O148 Li90 1.961 . S
O148 C92 1.325 . S
O149 Li88 1.970 . S
O149 Li89 1.956 . S
O149 Li91 1.961 . S
O149 C98 1.325 . S
O150 Li88 1.961 . S
O150 Li90 1.956 . S
O150 Li91 1.970 . S
O150 C120 1.325 . S
O151 Li89 1.961 . S
O151 Li90 1.970 . S
O151 Li91 1.956 . S
O151 C126 1.325 . S
H152 C94 0.929 . S
H153 C95 0.930 . S
H154 C96 0.930 . S
H155 C97 0.930 . S
H156 C99 0.930 . S
H157 C101 0.929 . S
H158 C102 0.930 . S
H159 C103 0.930 . S
H160 C106 0.930 . S
H161 C109 0.929 . S
H162 C114 0.929 . S
H163 C115 0.930 . S
H164 C122 0.929 . S
H165 C123 0.930 . S
H166 C124 0.930 . S
H167 C125 0.930 . S
H168 C127 0.929 . S
H169 C128 0.930 . S
H170 C129 0.930 . S
H171 C130 0.930 . S
H172 C134 0.929 . S
H173 C136 0.930 . S
H174 C142 0.929 . S
H175 C143 0.930 . S
Li176 N193 1.990 . S
Li176 O236 1.956 . S
Li176 O237 1.970 . S
Li176 O238 1.961 . S
Li177 N201 1.990 . S
Li177 O236 1.970 . S
Li177 O237 1.956 . S
Li177 O239 1.961 . S
Li178 N223 1.990 . S
Li178 O236 1.961 . S
Li178 O238 1.956 . S
Li178 O239 1.970 . S
Li179 N229 1.990 . S
Li179 O237 1.961 . S
Li179 O238 1.970 . S
Li179 O239 1.956 . S
C180 C182 1.348 . S
C180 C183 1.356 . S
C180 O236 1.325 . S
N181 C184 1.314 . S
N181 C185 1.279 . S
C182 C180 1.348 . S
C182 C184 1.353 . S
C182 H240 0.929 . S
C183 C180 1.356 . S
C183 C185 1.358 . S
C183 H241 0.930 . S
C184 N181 1.314 . S
C184 C182 1.353 . S
C184 H242 0.930 . S
C185 N181 1.279 . S
C185 C183 1.358 . S
C185 H243 0.930 . S
C186 C189 1.348 . S
C186 C190 1.356 . S
C186 O237 1.325 . S
C187 N188 1.279 . S
C187 C190 1.358 . S
C187 H244 0.930 . S
N188 C187 1.279 . S
N188 C191 1.314 . S
C189 C186 1.348 . S
C189 C191 1.353 . S
C189 H245 0.929 . S
C190 C186 1.356 . S
C190 C187 1.358 . S
C190 H246 0.930 . S
C191 N188 1.314 . S
C191 C189 1.353 . S
C191 H247 0.930 . S
C192 N193 1.314 . S
C192 C197 1.353 . S
C192 H198 0.930 . S
N193 Li176 1.990 . S
N193 C192 1.314 . S
N193 C195 1.279 . S
C194 C195 1.358 . S
C194 C196 1.356 . S
C194 H248 0.930 . S
C195 N193 1.279 . S
C195 C194 1.358 . S
C195 H199 0.930 . S
C196 C194 1.356 . S
C196 C197 1.348 . S
C197 C192 1.353 . S
C197 C196 1.348 . S
C197 H249 0.929 . S
H198 C192 0.930 . S
H199 C195 0.930 . S
C200 N201 1.314 . S
C200 C202 1.353 . S
C200 H206 0.930 . S
N201 Li177 1.990 . S
N201 C200 1.314 . S
N201 C204 1.279 . S
C202 C200 1.353 . S
C202 C205 1.348 . S
C202 H250 0.929 . S
C203 C204 1.358 . S
C203 C205 1.356 . S
C203 H251 0.930 . S
C204 N201 1.279 . S
C204 C203 1.358 . S
C204 H207 0.930 . S
C205 C202 1.348 . S
C205 C203 1.356 . S
H206 C200 0.930 . S
H207 C204 0.930 . S
C208 C210 1.348 . S
C208 C211 1.356 . S
C208 O238 1.325 . S
N209 C212 1.314 . S
N209 C213 1.279 . S
C210 C208 1.348 . S
C210 C212 1.353 . S
C210 H252 0.929 . S
C211 C208 1.356 . S
C211 C213 1.358 . S
C211 H253 0.930 . S
C212 N209 1.314 . S
C212 C210 1.353 . S
C212 H254 0.930 . S
C213 N209 1.279 . S
C213 C211 1.358 . S
C213 H255 0.930 . S
C214 C215 1.348 . S
C214 C216 1.356 . S
C214 O239 1.325 . S
C215 C214 1.348 . S
C215 C217 1.353 . S
C215 H256 0.929 . S
C216 C214 1.356 . S
C216 C218 1.358 . S
C216 H257 0.930 . S
C217 C215 1.353 . S
C217 N219 1.314 . S
C217 H258 0.930 . S
C218 C216 1.358 . S
C218 N219 1.279 . S
C218 H259 0.930 . S
N219 C217 1.314 . S
N219 C218 1.279 . S
C220 C222 1.353 . S
C220 N223 1.314 . S
C220 H226 0.930 . S
C221 N223 1.279 . S
C221 C224 1.358 . S
C221 H227 0.930 . S
C222 C220 1.353 . S
C222 C225 1.348 . S
C222 H260 0.929 . S
N223 Li178 1.990 . S
N223 C220 1.314 . S
N223 C221 1.279 . S
C224 C221 1.358 . S
C224 C225 1.356 . S
C224 H261 0.930 . S
C225 C222 1.348 . S
C225 C224 1.356 . S
H226 C220 0.930 . S
H227 C221 0.930 . S
C228 N229 1.314 . S
C228 C230 1.353 . S
C228 H234 0.930 . S
N229 Li179 1.990 . S
N229 C228 1.314 . S
N229 C232 1.279 . S
C230 C228 1.353 . S
C230 C233 1.348 . S
C230 H262 0.929 . S
C231 C232 1.358 . S
C231 C233 1.356 . S
C231 H263 0.930 . S
C232 N229 1.279 . S
C232 C231 1.358 . S
C232 H235 0.930 . S
C233 C230 1.348 . S
C233 C231 1.356 . S
H234 C228 0.930 . S
H235 C232 0.930 . S
O236 Li176 1.956 . S
O236 Li177 1.970 . S
O236 Li178 1.961 . S
O236 C180 1.325 . S
O237 Li176 1.970 . S
O237 Li177 1.956 . S
O237 Li179 1.961 . S
O237 C186 1.325 . S
O238 Li176 1.961 . S
O238 Li178 1.956 . S
O238 Li179 1.970 . S
O238 C208 1.325 . S
O239 Li177 1.961 . S
O239 Li178 1.970 . S
O239 Li179 1.956 . S
O239 C214 1.325 . S
H240 C182 0.929 . S
H241 C183 0.930 . S
H242 C184 0.930 . S
H243 C185 0.930 . S
H244 C187 0.930 . S
H245 C189 0.929 . S
H246 C190 0.930 . S
H247 C191 0.930 . S
H248 C194 0.930 . S
H249 C197 0.929 . S
H250 C202 0.929 . S
H251 C203 0.930 . S
H252 C210 0.929 . S
H253 C211 0.930 . S
H254 C212 0.930 . S
H255 C213 0.930 . S
H256 C215 0.929 . S
H257 C216 0.930 . S
H258 C217 0.930 . S
H259 C218 0.930 . S
H260 C222 0.929 . S
H261 C224 0.930 . S
H262 C230 0.929 . S
H263 C231 0.930 . S
Li264 N281 1.990 . S
Li264 O324 1.956 . S
Li264 O325 1.970 . S
Li264 O326 1.961 . S
Li265 N289 1.990 . S
Li265 O324 1.970 . S
Li265 O325 1.956 . S
Li265 O327 1.961 . S
Li266 N311 1.990 . S
Li266 O324 1.961 . S
Li266 O326 1.956 . S
Li266 O327 1.970 . S
Li267 N317 1.990 . S
Li267 O325 1.961 . S
Li267 O326 1.970 . S
Li267 O327 1.956 . S
C268 C270 1.348 . S
C268 C271 1.356 . S
C268 O324 1.325 . S
N269 C272 1.314 . S
N269 C273 1.279 . S
C270 C268 1.348 . S
C270 C272 1.353 . S
C270 H328 0.929 . S
C271 C268 1.356 . S
C271 C273 1.358 . S
C271 H329 0.930 . S
C272 N269 1.314 . S
C272 C270 1.353 . S
C272 H330 0.930 . S
C273 N269 1.279 . S
C273 C271 1.358 . S
C273 H331 0.930 . S
C274 C277 1.348 . S
C274 C278 1.356 . S
C274 O325 1.325 . S
C275 N276 1.279 . S
C275 C278 1.358 . S
C275 H332 0.930 . S
N276 C275 1.279 . S
N276 C279 1.314 . S
C277 C274 1.348 . S
C277 C279 1.353 . S
C277 H333 0.929 . S
C278 C274 1.356 . S
C278 C275 1.358 . S
C278 H334 0.930 . S
C279 N276 1.314 . S
C279 C277 1.353 . S
C279 H335 0.930 . S
C280 N281 1.314 . S
C280 C285 1.353 . S
C280 H286 0.930 . S
N281 Li264 1.990 . S
N281 C280 1.314 . S
N281 C283 1.279 . S
C282 C283 1.358 . S
C282 C284 1.356 . S
C282 H336 0.930 . S
C283 N281 1.279 . S
C283 C282 1.358 . S
C283 H287 0.930 . S
C284 C282 1.356 . S
C284 C285 1.348 . S
C285 C280 1.353 . S
C285 C284 1.348 . S
C285 H337 0.929 . S
H286 C280 0.930 . S
H287 C283 0.930 . S
C288 N289 1.314 . S
C288 C290 1.353 . S
C288 H294 0.930 . S
N289 Li265 1.990 . S
N289 C288 1.314 . S
N289 C292 1.279 . S
C290 C288 1.353 . S
C290 C293 1.348 . S
C290 H338 0.929 . S
C291 C292 1.358 . S
C291 C293 1.356 . S
C291 H339 0.930 . S
C292 N289 1.279 . S
C292 C291 1.358 . S
C292 H295 0.930 . S
C293 C290 1.348 . S
C293 C291 1.356 . S
H294 C288 0.930 . S
H295 C292 0.930 . S
C296 C298 1.348 . S
C296 C299 1.356 . S
C296 O326 1.325 . S
N297 C300 1.314 . S
N297 C301 1.279 . S
C298 C296 1.348 . S
C298 C300 1.353 . S
C298 H340 0.929 . S
C299 C296 1.356 . S
C299 C301 1.358 . S
C299 H341 0.930 . S
C300 N297 1.314 . S
C300 C298 1.353 . S
C300 H342 0.930 . S
C301 N297 1.279 . S
C301 C299 1.358 . S
C301 H343 0.930 . S
C302 C303 1.348 . S
C302 C304 1.356 . S
C302 O327 1.325 . S
C303 C302 1.348 . S
C303 C305 1.353 . S
C303 H344 0.929 . S
C304 C302 1.356 . S
C304 C306 1.358 . S
C304 H345 0.930 . S
C305 C303 1.353 . S
C305 N307 1.314 . S
C305 H346 0.930 . S
C306 C304 1.358 . S
C306 N307 1.279 . S
C306 H347 0.930 . S
N307 C305 1.314 . S
N307 C306 1.279 . S
C308 C310 1.353 . S
C308 N311 1.314 . S
C308 H314 0.930 . S
C309 N311 1.279 . S
C309 C312 1.358 . S
C309 H315 0.930 . S
C310 C308 1.353 . S
C310 C313 1.348 . S
C310 H348 0.929 . S
N311 Li266 1.990 . S
N311 C308 1.314 . S
N311 C309 1.279 . S
C312 C309 1.358 . S
C312 C313 1.356 . S
C312 H349 0.930 . S
C313 C310 1.348 . S
C313 C312 1.356 . S
H314 C308 0.930 . S
H315 C309 0.930 . S
C316 N317 1.314 . S
C316 C318 1.353 . S
C316 H322 0.930 . S
N317 Li267 1.990 . S
N317 C316 1.314 . S
N317 C320 1.279 . S
C318 C316 1.353 . S
C318 C321 1.348 . S
C318 H350 0.929 . S
C319 C320 1.358 . S
C319 C321 1.356 . S
C319 H351 0.930 . S
C320 N317 1.279 . S
C320 C319 1.358 . S
C320 H323 0.930 . S
C321 C318 1.348 . S
C321 C319 1.356 . S
H322 C316 0.930 . S
H323 C320 0.930 . S
O324 Li264 1.956 . S
O324 Li265 1.970 . S
O324 Li266 1.961 . S
O324 C268 1.325 . S
O325 Li264 1.970 . S
O325 Li265 1.956 . S
O325 Li267 1.961 . S
O325 C274 1.325 . S
O326 Li264 1.961 . S
O326 Li266 1.956 . S
O326 Li267 1.970 . S
O326 C296 1.325 . S
O327 Li265 1.961 . S
O327 Li266 1.970 . S
O327 Li267 1.956 . S
O327 C302 1.325 . S
H328 C270 0.929 . S
H329 C271 0.930 . S
H330 C272 0.930 . S
H331 C273 0.930 . S
H332 C275 0.930 . S
H333 C277 0.929 . S
H334 C278 0.930 . S
H335 C279 0.930 . S
H336 C282 0.930 . S
H337 C285 0.929 . S
H338 C290 0.929 . S
H339 C291 0.930 . S
H340 C298 0.929 . S
H341 C299 0.930 . S
H342 C300 0.930 . S
H343 C301 0.930 . S
H344 C303 0.929 . S
H345 C304 0.930 . S
H346 C305 0.930 . S
H347 C306 0.930 . S
H348 C310 0.929 . S
H349 C312 0.930 . S
H350 C318 0.929 . S
H351 C319 0.930 . S
H352 C370 0.951 . S
H353 C372 0.951 . S
H354 C374 0.950 1_545 S
H355 C375 0.950 1_545 S
H356 C377 0.950 . S
H357 C380 0.950 . S
H358 C381 0.950 . S
H359 C383 0.950 . S
H360 C384 0.950 . S
H361 C385 0.951 . S
H362 C387 0.951 . S
H363 C389 0.950 1_565 S
H364 C390 0.950 1_565 S
H365 C392 0.950 . S
H366 C395 0.950 . S
H367 C396 0.950 . S
H368 C398 0.950 . S
H369 C399 0.950 . S
C370 H352 0.951 . S
C370 C371 1.366 . S
C370 C372 1.388 . S
C371 C370 1.366 . S
C371 C375 1.385 . S
C372 H353 0.951 . S
C372 C370 1.388 . S
C372 C373 1.366 . S
C373 C372 1.366 . S
C373 C374 1.414 . S
C373 C376 1.499 . S
C374 H354 0.950 1_565 S
C374 C373 1.414 . S
C374 C375 1.374 . S
C375 H355 0.950 1_565 S
C375 C371 1.385 . S
C375 C374 1.374 . S
C376 C373 1.499 . S
C376 C377 1.373 1_565 S
C376 C378 1.389 . S
C377 H356 0.950 . S
C377 C376 1.373 1_545 S
C377 C393 1.377 . S
C378 C376 1.389 . S
C378 C379 1.524 . S
C378 C392 1.377 . S
C379 C378 1.524 . S
C379 C380 1.397 . S
C379 C384 1.363 . S
C380 H357 0.950 . S
C380 C379 1.397 . S
C380 C381 1.334 . S
C381 H358 0.950 . S
C381 C380 1.334 . S
C381 C382 1.287 . S
C382 C381 1.287 . S
C382 C383 1.524 . S
C382 H401 0.913 . S
C383 H359 0.950 . S
C383 C382 1.524 . S
C383 C384 1.415 . S
C384 H360 0.950 . S
C384 C379 1.363 . S
C384 C383 1.415 . S
C385 H361 0.951 . S
C385 C386 1.366 . S
C385 C387 1.388 . S
C386 C385 1.366 . S
C386 C390 1.385 . S
C387 H362 0.951 . S
C387 C385 1.388 . S
C387 C388 1.366 . S
C388 C387 1.366 . S
C388 C389 1.414 . S
C388 C391 1.499 . S
C389 H363 0.950 1_545 S
C389 C388 1.414 . S
C389 C390 1.374 . S
C390 H364 0.950 1_545 S
C390 C386 1.385 . S
C390 C389 1.374 . S
C391 C388 1.499 . S
C391 C392 1.373 1_545 S
C391 C393 1.389 . S
C392 H365 0.950 . S
C392 C378 1.377 . S
C392 C391 1.373 1_565 S
C393 C377 1.377 . S
C393 C391 1.389 . S
C393 C394 1.524 . S
C394 C393 1.524 . S
C394 C395 1.397 . S
C394 C399 1.363 . S
C395 H366 0.950 . S
C395 C394 1.397 . S
C395 C396 1.334 . S
C396 H367 0.950 . S
C396 C395 1.334 . S
C396 C397 1.287 . S
C397 C396 1.287 . S
C397 C398 1.524 . S
C397 H400 0.999 . S
C398 H368 0.950 . S
C398 C397 1.524 . S
C398 C399 1.415 . S
C399 H369 0.950 . S
C399 C394 1.363 . S
C399 C398 1.415 . S
H400 C397 0.999 . S
H401 C382 0.913 . S
H402 C420 0.951 . S
H403 C422 0.951 . S
H404 C424 0.950 . S
H405 C425 0.950 . S
H406 C427 0.950 . S
H407 C430 0.950 . S
H408 C431 0.950 . S
H409 C433 0.950 . S
H410 C434 0.950 . S
H411 C435 0.951 . S
H412 C437 0.951 . S
H413 C439 0.950 . S
H414 C440 0.950 . S
H415 C442 0.950 . S
H416 C445 0.950 . S
H417 C446 0.950 . S
H418 C448 0.950 . S
H419 C449 0.950 . S
C420 H402 0.951 . S
C420 C421 1.366 . S
C420 C422 1.388 . S
C421 C420 1.366 . S
C421 C425 1.385 . S
C422 H403 0.951 . S
C422 C420 1.388 . S
C422 C423 1.366 . S
C423 C422 1.366 . S
C423 C424 1.414 . S
C423 C426 1.499 . S
C424 H404 0.950 . S
C424 C423 1.414 . S
C424 C425 1.374 . S
C425 H405 0.950 . S
C425 C421 1.385 . S
C425 C424 1.374 . S
C426 C423 1.499 . S
C426 C427 1.373 . S
C426 C428 1.389 . S
C427 H406 0.950 . S
C427 C426 1.373 . S
C427 C443 1.377 . S
C428 C426 1.389 . S
C428 C429 1.524 . S
C428 C442 1.377 . S
C429 C428 1.524 . S
C429 C430 1.397 . S
C429 C434 1.363 . S
C430 H407 0.950 . S
C430 C429 1.397 . S
C430 C431 1.334 . S
C431 H408 0.950 . S
C431 C430 1.334 . S
C431 C432 1.287 . S
C432 C431 1.287 . S
C432 C433 1.524 . S
C432 H451 0.913 . S
C433 H409 0.950 . S
C433 C432 1.524 . S
C433 C434 1.415 . S
C434 H410 0.950 . S
C434 C429 1.363 . S
C434 C433 1.415 . S
C435 H411 0.951 . S
C435 C436 1.366 . S
C435 C437 1.388 . S
C436 C435 1.366 . S
C436 C440 1.385 . S
C437 H412 0.951 . S
C437 C435 1.388 . S
C437 C438 1.366 . S
C438 C437 1.366 . S
C438 C439 1.414 . S
C438 C441 1.499 . S
C439 H413 0.950 . S
C439 C438 1.414 . S
C439 C440 1.374 . S
C440 H414 0.950 . S
C440 C436 1.385 . S
C440 C439 1.374 . S
C441 C438 1.499 . S
C441 C442 1.373 . S
C441 C443 1.389 . S
C442 H415 0.950 . S
C442 C428 1.377 . S
C442 C441 1.373 . S
C443 C427 1.377 . S
C443 C441 1.389 . S
C443 C444 1.524 . S
C444 C443 1.524 . S
C444 C445 1.397 . S
C444 C449 1.363 . S
C445 H416 0.950 . S
C445 C444 1.397 . S
C445 C446 1.334 . S
C446 H417 0.950 . S
C446 C445 1.334 . S
C446 C447 1.287 . S
C447 C446 1.287 . S
C447 C448 1.524 . S
C447 H450 0.999 . S
C448 H418 0.950 . S
C448 C447 1.524 . S
C448 C449 1.415 . S
C449 H419 0.950 . S
C449 C444 1.363 . S
C449 C448 1.415 . S
H450 C447 0.999 . S
H451 C432 0.913 . S
H452 C470 0.951 1_565 S
H453 C472 0.951 1_565 S
H454 C474 0.950 . S
H455 C475 0.950 . S
H456 C477 0.950 . S
H457 C480 0.950 1_545 S
H458 C481 0.950 . S
H459 C483 0.950 . S
H460 C484 0.950 . S
H461 C485 0.951 1_545 S
H462 C487 0.951 1_545 S
H463 C489 0.950 . S
H464 C490 0.950 . S
H465 C492 0.950 . S
H466 C495 0.950 1_565 S
H467 C496 0.950 . S
H468 C498 0.950 . S
H469 C499 0.950 . S
C470 H452 0.951 1_545 S
C470 C471 1.366 . S
C470 C472 1.388 . S
C471 C470 1.366 . S
C471 C475 1.385 . S
C472 H453 0.951 1_545 S
C472 C470 1.388 . S
C472 C473 1.366 . S
C473 C472 1.366 . S
C473 C474 1.414 . S
C473 C476 1.499 . S
C474 H454 0.950 . S
C474 C473 1.414 . S
C474 C475 1.374 . S
C475 H455 0.950 . S
C475 C471 1.385 . S
C475 C474 1.374 . S
C476 C473 1.499 . S
C476 C477 1.373 . S
C476 C478 1.389 1_545 S
C477 H456 0.950 . S
C477 C476 1.373 . S
C477 C493 1.377 . S
C478 C476 1.389 1_565 S
C478 C479 1.524 . S
C478 C492 1.377 . S
C479 C478 1.524 . S
C479 C480 1.397 . S
C479 C484 1.363 . S
C480 H457 0.950 1_565 S
C480 C479 1.397 . S
C480 C481 1.334 . S
C481 H458 0.950 . S
C481 C480 1.334 . S
C481 C482 1.287 . S
C482 C481 1.287 . S
C482 C483 1.524 . S
C482 H501 0.913 . S
C483 H459 0.950 . S
C483 C482 1.524 . S
C483 C484 1.415 . S
C484 H460 0.950 . S
C484 C479 1.363 . S
C484 C483 1.415 . S
C485 H461 0.951 1_565 S
C485 C486 1.366 . S
C485 C487 1.388 . S
C486 C485 1.366 . S
C486 C490 1.385 . S
C487 H462 0.951 1_565 S
C487 C485 1.388 . S
C487 C488 1.366 . S
C488 C487 1.366 . S
C488 C489 1.414 . S
C488 C491 1.499 . S
C489 H463 0.950 . S
C489 C488 1.414 . S
C489 C490 1.374 . S
C490 H464 0.950 . S
C490 C486 1.385 . S
C490 C489 1.374 . S
C491 C488 1.499 . S
C491 C492 1.373 . S
C491 C493 1.389 1_565 S
C492 H465 0.950 . S
C492 C478 1.377 . S
C492 C491 1.373 . S
C493 C477 1.377 . S
C493 C491 1.389 1_545 S
C493 C494 1.524 . S
C494 C493 1.524 . S
C494 C495 1.397 . S
C494 C499 1.363 . S
C495 H466 0.950 1_545 S
C495 C494 1.397 . S
C495 C496 1.334 . S
C496 H467 0.950 . S
C496 C495 1.334 . S
C496 C497 1.287 . S
C497 C496 1.287 . S
C497 C498 1.524 . S
C497 H500 0.999 . S
C498 H468 0.950 . S
C498 C497 1.524 . S
C498 C499 1.415 . S
C499 H469 0.950 . S
C499 C494 1.363 . S
C499 C498 1.415 . S
H500 C497 0.999 . S
H501 C482 0.913 . S
H502 C520 0.951 . S
H503 C522 0.951 . S
H504 C524 0.950 . S
H505 C525 0.950 . S
H506 C527 0.950 . S
H507 C530 0.950 . S
H508 C531 0.950 . S
H509 C533 0.950 . S
H510 C534 0.950 . S
H511 C535 0.951 . S
H512 C537 0.951 . S
H513 C539 0.950 . S
H514 C540 0.950 . S
H515 C542 0.950 . S
H516 C545 0.950 . S
H517 C546 0.950 . S
H518 C548 0.950 . S
H519 C549 0.950 . S
C520 H502 0.951 . S
C520 C521 1.366 . S
C520 C522 1.388 . S
C521 C520 1.366 . S
C521 C525 1.385 . S
C522 H503 0.951 . S
C522 C520 1.388 . S
C522 C523 1.366 . S
C523 C522 1.366 . S
C523 C524 1.414 . S
C523 C526 1.499 . S
C524 H504 0.950 . S
C524 C523 1.414 . S
C524 C525 1.374 . S
C525 H505 0.950 . S
C525 C521 1.385 . S
C525 C524 1.374 . S
C526 C523 1.499 . S
C526 C527 1.373 . S
C526 C528 1.389 . S
C527 H506 0.950 . S
C527 C526 1.373 . S
C527 C543 1.377 . S
C528 C526 1.389 . S
C528 C529 1.524 . S
C528 C542 1.377 . S
C529 C528 1.524 . S
C529 C530 1.397 . S
C529 C534 1.363 . S
C530 H507 0.950 . S
C530 C529 1.397 . S
C530 C531 1.334 . S
C531 H508 0.950 . S
C531 C530 1.334 . S
C531 C532 1.287 . S
C532 C531 1.287 . S
C532 C533 1.524 . S
C532 H551 0.913 . S
C533 H509 0.950 . S
C533 C532 1.524 . S
C533 C534 1.415 . S
C534 H510 0.950 . S
C534 C529 1.363 . S
C534 C533 1.415 . S
C535 H511 0.951 . S
C535 C536 1.366 . S
C535 C537 1.388 . S
C536 C535 1.366 . S
C536 C540 1.385 . S
C537 H512 0.951 . S
C537 C535 1.388 . S
C537 C538 1.366 . S
C538 C537 1.366 . S
C538 C539 1.414 . S
C538 C541 1.499 . S
C539 H513 0.950 . S
C539 C538 1.414 . S
C539 C540 1.374 . S
C540 H514 0.950 . S
C540 C536 1.385 . S
C540 C539 1.374 . S
C541 C538 1.499 . S
C541 C542 1.373 . S
C541 C543 1.389 . S
C542 H515 0.950 . S
C542 C528 1.377 . S
C542 C541 1.373 . S
C543 C527 1.377 . S
C543 C541 1.389 . S
C543 C544 1.524 . S
C544 C543 1.524 . S
C544 C545 1.397 . S
C544 C549 1.363 . S
C545 H516 0.950 . S
C545 C544 1.397 . S
C545 C546 1.334 . S
C546 H517 0.950 . S
C546 C545 1.334 . S
C546 C547 1.287 . S
C547 C546 1.287 . S
C547 C548 1.524 . S
C547 H550 0.999 . S
C548 H518 0.950 . S
C548 C547 1.524 . S
C548 C549 1.415 . S
C549 H519 0.950 . S
C549 C544 1.363 . S
C549 C548 1.415 . S
H550 C547 0.999 . S
H551 C532 0.913 . S
H552 C570 0.951 . S
H553 C572 0.951 . S
H554 C574 0.950 . S
H555 C575 0.950 . S
H556 C577 0.950 . S
H557 C580 0.950 . S
H558 C581 0.950 . S
H559 C583 0.950 . S
H560 C584 0.950 1_556 S
H561 C585 0.951 . S
H562 C587 0.951 . S
H563 C589 0.950 . S
H564 C590 0.950 . S
H565 C592 0.950 1_545 S
H566 C595 0.950 . S
H567 C596 0.950 . S
H568 C598 0.950 . S
H569 C599 0.950 1_554 S
C570 H552 0.951 . S
C570 C571 1.366 . S
C570 C572 1.388 . S
C571 C570 1.366 . S
C571 C575 1.385 . S
C572 H553 0.951 . S
C572 C570 1.388 . S
C572 C573 1.366 . S
C573 C572 1.366 . S
C573 C574 1.414 . S
C573 C576 1.499 . S
C574 H554 0.950 . S
C574 C573 1.414 . S
C574 C575 1.374 . S
C575 H555 0.950 . S
C575 C571 1.385 . S
C575 C574 1.374 . S
C576 C573 1.499 . S
C576 C577 1.374 1_545 S
C576 C578 1.389 1_455 S
C577 H556 0.950 . S
C577 C576 1.374 1_565 S
C577 C593 1.376 1_554 S
C578 C576 1.389 1_655 S
C578 C579 1.524 . S
C578 C592 1.374 1_544 S
C579 C578 1.524 . S
C579 C580 1.397 . S
C579 C584 1.363 . S
C580 H557 0.950 . S
C580 C579 1.397 . S
C580 C581 1.334 . S
C581 H558 0.950 . S
C581 C580 1.334 . S
C581 C582 1.287 . S
C582 C581 1.287 . S
C582 C583 1.524 . S
C582 H601 0.913 . S
C583 H559 0.950 . S
C583 C582 1.524 . S
C583 C584 1.415 . S
C584 H560 0.950 1_554 S
C584 C579 1.363 . S
C584 C583 1.415 . S
C585 H561 0.951 . S
C585 C586 1.366 . S
C585 C587 1.388 . S
C586 C585 1.366 . S
C586 C590 1.385 . S
C587 H562 0.951 . S
C587 C585 1.388 . S
C587 C588 1.366 . S
C588 C587 1.366 . S
C588 C589 1.414 . S
C588 C591 1.499 . S
C589 H563 0.950 . S
C589 C588 1.414 . S
C589 C590 1.374 . S
C590 H564 0.950 . S
C590 C586 1.385 . S
C590 C589 1.374 . S
C591 C588 1.499 . S
C591 C592 1.376 . S
C591 C593 1.389 1_655 S
C592 H565 0.950 1_565 S
C592 C578 1.374 1_566 S
C592 C591 1.376 . S
C593 C577 1.376 1_556 S
C593 C591 1.389 1_455 S
C593 C594 1.524 . S
C594 C593 1.524 . S
C594 C595 1.397 . S
C594 C599 1.363 . S
C595 H566 0.950 . S
C595 C594 1.397 . S
C595 C596 1.334 . S
C596 H567 0.950 . S
C596 C595 1.334 . S
C596 C597 1.287 . S
C597 C596 1.287 . S
C597 C598 1.524 . S
C597 H600 0.999 . S
C598 H568 0.950 . S
C598 C597 1.524 . S
C598 C599 1.415 . S
C599 H569 0.950 1_556 S
C599 C594 1.363 . S
C599 C598 1.415 . S
H600 C597 0.999 . S
H601 C582 0.913 . S
H602 C620 0.951 . S
H603 C622 0.951 . S
H604 C624 0.950 . S
H605 C625 0.950 . S
H606 C627 0.950 . S
H607 C630 0.950 . S
H608 C631 0.950 . S
H609 C633 0.950 . S
H610 C634 0.950 . S
H611 C635 0.951 . S
H612 C637 0.951 . S
H613 C639 0.950 . S
H614 C640 0.950 . S
H615 C642 0.950 . S
H616 C645 0.950 . S
H617 C646 0.950 . S
H618 C648 0.950 . S
H619 C649 0.950 . S
C620 H602 0.951 . S
C620 C621 1.366 . S
C620 C622 1.388 . S
C621 C620 1.366 . S
C621 C625 1.385 . S
C622 H603 0.951 . S
C622 C620 1.388 . S
C622 C623 1.366 . S
C623 C622 1.366 . S
C623 C624 1.414 . S
C623 C626 1.499 . S
C624 H604 0.950 . S
C624 C623 1.414 . S
C624 C625 1.374 . S
C625 H605 0.950 . S
C625 C621 1.385 . S
C625 C624 1.374 . S
C626 C623 1.499 . S
C626 C627 1.370 1_556 S
C626 C628 1.389 1_545 S
C627 H606 0.950 . S
C627 C626 1.370 1_554 S
C627 C643 1.380 . S
C628 C626 1.389 1_565 S
C628 C629 1.524 . S
C628 C642 1.382 . S
C629 C628 1.524 . S
C629 C630 1.397 . S
C629 C634 1.363 . S
C630 H607 0.950 . S
C630 C629 1.397 . S
C630 C631 1.334 . S
C631 H608 0.950 . S
C631 C630 1.334 . S
C631 C632 1.287 . S
C632 C631 1.287 . S
C632 C633 1.524 . S
C632 H651 0.913 . S
C633 H609 0.950 . S
C633 C632 1.524 . S
C633 C634 1.415 . S
C634 H610 0.950 . S
C634 C629 1.363 . S
C634 C633 1.415 . S
C635 H611 0.951 . S
C635 C636 1.366 . S
C635 C637 1.388 . S
C636 C635 1.366 . S
C636 C640 1.385 . S
C637 H612 0.951 . S
C637 C635 1.388 . S
C637 C638 1.366 . S
C638 C637 1.366 . S
C638 C639 1.414 . S
C638 C641 1.499 . S
C639 H613 0.950 . S
C639 C638 1.414 . S
C639 C640 1.374 . S
C640 H614 0.950 . S
C640 C636 1.385 . S
C640 C639 1.374 . S
C641 C638 1.499 . S
C641 C642 1.368 1_554 S
C641 C643 1.389 1_565 S
C642 H615 0.950 . S
C642 C628 1.382 . S
C642 C641 1.368 1_556 S
C643 C627 1.380 . S
C643 C641 1.389 1_545 S
C643 C644 1.524 . S
C644 C643 1.524 . S
C644 C645 1.397 . S
C644 C649 1.363 . S
C645 H616 0.950 . S
C645 C644 1.397 . S
C645 C646 1.334 . S
C646 H617 0.950 . S
C646 C645 1.334 . S
C646 C647 1.287 . S
C647 C646 1.287 . S
C647 C648 1.524 . S
C647 H650 0.999 . S
C648 H618 0.950 . S
C648 C647 1.524 . S
C648 C649 1.415 . S
C649 H619 0.950 . S
C649 C644 1.363 . S
C649 C648 1.415 . S
H650 C647 0.999 . S
H651 C632 0.913 . S
H652 C670 0.951 . S
H653 C672 0.951 . S
H654 C674 0.950 . S
H655 C675 0.950 . S
H656 C677 0.950 . S
H657 C680 0.950 . S
H658 C681 0.950 . S
H659 C683 0.950 . S
H660 C684 0.944 1_655 S
H661 C685 0.951 . S
H662 C687 0.951 . S
H663 C689 0.950 . S
H664 C690 0.950 . S
H665 C692 0.950 . S
H666 C695 0.950 . S
H667 C696 0.950 . S
H668 C698 0.950 . S
H669 C699 0.935 1_455 S
C670 H652 0.951 . S
C670 C671 1.366 . S
C670 C672 1.388 . S
C671 C670 1.366 . S
C671 C675 1.385 . S
C672 H653 0.951 . S
C672 C670 1.388 . S
C672 C673 1.366 . S
C673 C672 1.366 . S
C673 C674 1.414 . S
C673 C676 1.499 . S
C674 H654 0.950 . S
C674 C673 1.414 . S
C674 C675 1.374 . S
C675 H655 0.950 . S
C675 C671 1.385 . S
C675 C674 1.374 . S
C676 C673 1.499 . S
C676 C677 1.373 . S
C676 C678 1.389 1_655 S
C677 H656 0.950 . S
C677 C676 1.373 . S
C677 C693 1.377 . S
C678 C676 1.389 1_455 S
C678 C679 1.524 . S
C678 C692 1.377 . S
C679 C678 1.524 . S
C679 C680 1.397 . S
C679 C684 1.363 . S
C680 H657 0.950 . S
C680 C679 1.397 . S
C680 C681 1.334 . S
C681 H658 0.950 . S
C681 C680 1.334 . S
C681 C682 1.287 . S
C682 C681 1.287 . S
C682 C683 1.524 . S
C682 H701 0.913 . S
C683 H659 0.950 . S
C683 C682 1.524 . S
C683 C684 1.415 . S
C684 H660 0.944 1_455 S
C684 C679 1.363 . S
C684 C683 1.415 . S
C685 H661 0.951 . S
C685 C686 1.366 . S
C685 C687 1.388 . S
C686 C685 1.366 . S
C686 C690 1.385 . S
C687 H662 0.951 . S
C687 C685 1.388 . S
C687 C688 1.366 . S
C688 C687 1.366 . S
C688 C689 1.414 . S
C688 C691 1.499 . S
C689 H663 0.950 . S
C689 C688 1.414 . S
C689 C690 1.374 . S
C690 H664 0.950 . S
C690 C686 1.385 . S
C690 C689 1.374 . S
C691 C688 1.499 . S
C691 C692 1.373 . S
C691 C693 1.389 1_455 S
C692 H665 0.950 . S
C692 C678 1.377 . S
C692 C691 1.373 . S
C693 C677 1.377 . S
C693 C691 1.389 1_655 S
C693 C694 1.524 . S
C694 C693 1.524 . S
C694 C695 1.397 . S
C694 C699 1.363 . S
C695 H666 0.950 . S
C695 C694 1.397 . S
C695 C696 1.334 . S
C696 H667 0.950 . S
C696 C695 1.334 . S
C696 C697 1.287 . S
C697 C696 1.287 . S
C697 C698 1.524 . S
C697 H700 0.999 . S
C698 H668 0.950 . S
C698 C697 1.524 . S
C698 C699 1.415 . S
C699 H669 0.935 1_655 S
C699 C694 1.363 . S
C699 C698 1.415 . S
H700 C697 0.999 . S
H701 C682 0.913 . S
H702 C720 0.951 . S
H703 C722 0.951 . S
H704 C724 0.950 . S
H705 C725 0.950 . S
H706 C727 0.950 . S
H707 C730 0.950 . S
H708 C731 0.950 . S
H709 C733 0.950 . S
H710 C734 0.950 . S
H711 C735 0.951 . S
H712 C737 0.951 . S
H713 C739 0.950 . S
H714 C740 0.950 . S
H715 C742 0.950 . S
H716 C745 0.950 . S
H717 C746 0.950 . S
H718 C748 0.950 . S
H719 C749 0.950 . S
C720 H702 0.951 . S
C720 C721 1.366 . S
C720 C722 1.388 . S
C721 C720 1.366 . S
C721 C725 1.385 . S
C722 H703 0.951 . S
C722 C720 1.388 . S
C722 C723 1.366 . S
C723 C722 1.366 . S
C723 C724 1.414 . S
C723 C726 1.499 . S
C724 H704 0.950 . S
C724 C723 1.414 . S
C724 C725 1.374 . S
C725 H705 0.950 . S
C725 C721 1.385 . S
C725 C724 1.374 . S
C726 C723 1.499 . S
C726 C727 1.373 . S
C726 C728 1.389 . S
C727 H706 0.950 . S
C727 C726 1.373 . S
C727 C743 1.377 . S
C728 C726 1.389 . S
C728 C729 1.524 . S
C728 C742 1.377 . S
C729 C728 1.524 . S
C729 C730 1.397 . S
C729 C734 1.363 . S
C730 H707 0.950 . S
C730 C729 1.397 . S
C730 C731 1.334 . S
C731 H708 0.950 . S
C731 C730 1.334 . S
C731 C732 1.287 . S
C732 C731 1.287 . S
C732 C733 1.524 . S
C732 H751 0.913 . S
C733 H709 0.950 . S
C733 C732 1.524 . S
C733 C734 1.415 . S
C734 H710 0.950 . S
C734 C729 1.363 . S
C734 C733 1.415 . S
C735 H711 0.951 . S
C735 C736 1.366 . S
C735 C737 1.388 . S
C736 C735 1.366 . S
C736 C740 1.385 . S
C737 H712 0.951 . S
C737 C735 1.388 . S
C737 C738 1.366 . S
C738 C737 1.366 . S
C738 C739 1.414 . S
C738 C741 1.499 . S
C739 H713 0.950 . S
C739 C738 1.414 . S
C739 C740 1.374 . S
C740 H714 0.950 . S
C740 C736 1.385 . S
C740 C739 1.374 . S
C741 C738 1.499 . S
C741 C742 1.373 . S
C741 C743 1.389 . S
C742 H715 0.950 . S
C742 C728 1.377 . S
C742 C741 1.373 . S
C743 C727 1.377 . S
C743 C741 1.389 . S
C743 C744 1.524 . S
C744 C743 1.524 . S
C744 C745 1.397 . S
C744 C749 1.363 . S
C745 H716 0.950 . S
C745 C744 1.397 . S
C745 C746 1.334 . S
C746 H717 0.950 . S
C746 C745 1.334 . S
C746 C747 1.287 . S
C747 C746 1.287 . S
C747 C748 1.524 . S
C747 H750 0.999 . S
C748 H718 0.950 . S
C748 C747 1.524 . S
C748 C749 1.415 . S
C749 H719 0.950 . S
C749 C744 1.363 . S
C749 C748 1.415 . S
H750 C747 0.999 . S
H751 C732 0.913 . S
C371 C145 0.474 . S
C386 C29 0.473 . S
C421 C20 0.470 . S
C436 C137 0.472 . S
C471 C284 0.465 . S
C486 C196 0.463 . S
C521 C233 0.467 . S
C536 C321 0.465 . S
C571 C49 1.770 . S
C586 C205 1.767 . S
C621 C293 1.767 . S
C636 C108 1.771 . S
C671 C225 1.767 . S
C686 C57 1.770 . S
C721 C117 1.770 . S
C736 C313 1.766 . S
