# Generated by pormake.
# Topology sow, (4)-cn, num edge types: 1
# Building blocks:
#     Node 0, Type 0, BuildingBlock: NAWXER_clean_sbu_0, # of connection points: 4
#     Node 1, Type 0, BuildingBlock: NAWXER_clean_sbu_0, # of connection points: 4
#     Node 2, Type 0, BuildingBlock: NAWXER_clean_sbu_0, # of connection points: 4
#     Node 3, Type 0, BuildingBlock: NAWXER_clean_sbu_0, # of connection points: 4
#     Node 4, Type 0, BuildingBlock: NAWXER_clean_sbu_0, # of connection points: 4
#     Node 5, Type 0, BuildingBlock: NAWXER_clean_sbu_0, # of connection points: 4
#     Node 6, Type 0, BuildingBlock: NAWXER_clean_sbu_0, # of connection points: 4
#     Node 7, Type 0, BuildingBlock: NAWXER_clean_sbu_0, # of connection points: 4
#     Edge 8, Type (0, 0), BuildingBlock: FUNLAD_clean_linker_0, # of connection points: 2
#     Edge 9, Type (0, 0), BuildingBlock: FUNLAD_clean_linker_0, # of connection points: 2
#     Edge 10, Type (0, 0), BuildingBlock: FUNLAD_clean_linker_0, # of connection points: 2
#     Edge 11, Type (0, 0), BuildingBlock: FUNLAD_clean_linker_0, # of connection points: 2
#     Edge 12, Type (0, 0), BuildingBlock: FUNLAD_clean_linker_0, # of connection points: 2
#     Edge 13, Type (0, 0), BuildingBlock: FUNLAD_clean_linker_0, # of connection points: 2
#     Edge 14, Type (0, 0), BuildingBlock: FUNLAD_clean_linker_0, # of connection points: 2
#     Edge 15, Type (0, 0), BuildingBlock: FUNLAD_clean_linker_0, # of connection points: 2
#     Edge 16, Type (0, 0), BuildingBlock: FUNLAD_clean_linker_0, # of connection points: 2
#     Edge 17, Type (0, 0), BuildingBlock: FUNLAD_clean_linker_0, # of connection points: 2
#     Edge 18, Type (0, 0), BuildingBlock: FUNLAD_clean_linker_0, # of connection points: 2
#     Edge 19, Type (0, 0), BuildingBlock: FUNLAD_clean_linker_0, # of connection points: 2
#     Edge 20, Type (0, 0), BuildingBlock: FUNLAD_clean_linker_0, # of connection points: 2
#     Edge 21, Type (0, 0), BuildingBlock: FUNLAD_clean_linker_0, # of connection points: 2
#     Edge 22, Type (0, 0), BuildingBlock: FUNLAD_clean_linker_0, # of connection points: 2
#     Edge 23, Type (0, 0), BuildingBlock: FUNLAD_clean_linker_0, # of connection points: 2
# Relax obj value: 0.113
# Max RMSD: 0.238
# Mean RMSD: 0.237
data_MOF--net-sow--node1-NAWXER_clean_sbu_0--edge1-FUNLAD_clean_linker_0
_symmetry_space_group_name_H-M    P1
_symmetry_Int_Tables_number       1
_symmetry_cell_setting            triclinic
loop_
_symmetry_equiv_pos_as_xyz
'x, y, z'
_cell_length_a     50.90789
_cell_length_b     22.519434
_cell_length_c     26.611519
_cell_angle_alpha  90.012156
_cell_angle_beta   90.036814
_cell_angle_gamma 89.94672
loop_
_atom_site_label
_atom_site_type_symbol
_atom_site_fract_x
_atom_site_fract_y
_atom_site_fract_z
_atom_type_partial_charge
C0 C 0.18259 0.18851 0.14347 0.0
C1 C 0.10922 0.11028 0.04848 0.0
O2 O 0.17517 0.13539 0.13678 0.0
Zn3 Zn 0.14716 0.15077 0.09139 0.0
O4 O 0.17073 0.23077 0.12017 0.0
Zn5 Zn 0.13807 0.23609 0.06729 0.0
O6 O 0.11453 0.28812 0.10166 0.0
O7 O 0.11858 0.1997 0.13676 0.0
O8 O 0.11087 0.16688 0.04338 0.0
O9 O 0.12716 0.08267 0.07194 0.0
O10 O 0.1669 0.1764 0.02317 0.0
O11 O 0.15237 0.26618 0.00569 0.0
C12 C 0.10792 0.25149 0.13564 0.0
C13 C 0.16663 0.22205 0.99439 0.0
C14 C 0.32524 0.30391 0.65393 0.0
C15 C 0.39427 0.37648 0.54476 0.0
O16 O 0.33305 0.3566 0.64638 0.0
Zn17 Zn 0.35796 0.33974 0.59462 0.0
O18 O 0.33481 0.2613 0.6276 0.0
Zn19 Zn 0.36436 0.25327 0.56941 0.0
O20 O 0.38909 0.19985 0.59999 0.0
O21 O 0.38773 0.28892 0.63458 0.0
O22 O 0.39108 0.32019 0.53971 0.0
O23 O 0.37837 0.40576 0.57192 0.0
O24 O 0.3349 0.3159 0.5294 0.0
O25 O 0.34602 0.22369 0.51206 0.0
C26 C 0.39767 0.23653 0.63234 0.0
C27 C 0.33254 0.26945 0.50178 0.0
C28 C 0.6798 0.30007 0.86149 0.0
C29 C 0.60703 0.36933 0.96418 0.0
O30 O 0.67304 0.35282 0.87214 0.0
Zn31 Zn 0.64497 0.33419 0.91741 0.0
O32 O 0.66775 0.25647 0.88232 0.0
Zn33 Zn 0.63563 0.24604 0.93483 0.0
O34 O 0.61114 0.19965 0.8964 0.0
O35 O 0.61651 0.29127 0.86866 0.0
O36 O 0.60915 0.31251 0.96531 0.0
O37 O 0.62445 0.39978 0.94181 0.0
O38 O 0.66433 0.30084 0.98376 0.0
O39 O 0.65089 0.20855 0.99254 0.0
C40 C 0.60524 0.24041 0.86535 0.0
C41 C 0.66469 0.25164 0.0081 0.0
C42 C 0.82363 0.20589 0.36035 0.0
C43 C 0.89372 0.13004 0.46653 0.0
O44 O 0.82914 0.15262 0.37175 0.0
Zn45 Zn 0.85705 0.16864 0.41809 0.0
O46 O 0.83636 0.2484 0.38135 0.0
Zn47 Zn 0.86794 0.25587 0.43551 0.0
O48 O 0.89391 0.29925 0.3983 0.0
O49 O 0.88712 0.20802 0.37072 0.0
O50 O 0.89267 0.187 0.46736 0.0
O51 O 0.87594 0.10112 0.44368 0.0
O52 O 0.83756 0.2045 0.48329 0.0
O53 O 0.85286 0.29523 0.49253 0.0
C54 C 0.89953 0.25756 0.36794 0.0
C55 C 0.83796 0.25378 0.5075 0.0
C56 C 0.89287 0.88817 0.95952 0.0
C57 C 0.82367 0.81378 0.85171 0.0
O58 O 0.8907 0.83153 0.96373 0.0
Zn59 Zn 0.8646 0.76332 0.93335 0.0
O60 O 0.87636 0.91656 0.93306 0.0
Zn61 Zn 0.85725 0.84924 0.90948 0.0
O62 O 0.83476 0.82291 0.9747 0.0
O63 O 0.847 0.73112 0.9905 0.0
O64 O 0.83132 0.86636 0.86013 0.0
O65 O 0.83433 0.7706 0.87584 0.0
O66 O 0.88985 0.71199 0.90344 0.0
O67 O 0.88789 0.80089 0.8685 0.0
C68 C 0.83299 0.77575 0.00154 0.0
C69 C 0.89841 0.74905 0.8715 0.0
C70 C 0.60581 0.62252 0.45752 0.0
C71 C 0.67821 0.68774 0.35288 0.0
O72 O 0.60926 0.6789 0.46106 0.0
Zn73 Zn 0.63704 0.7436 0.43143 0.0
O74 O 0.62207 0.5916 0.43251 0.0
Zn75 Zn 0.64335 0.65589 0.40934 0.0
O76 O 0.66526 0.68168 0.47512 0.0
O77 O 0.65463 0.77488 0.48936 0.0
O78 O 0.66988 0.63571 0.36159 0.0
O79 O 0.66784 0.73193 0.37606 0.0
O80 O 0.61345 0.7965 0.39739 0.0
O81 O 0.61482 0.70605 0.3654 0.0
C82 C 0.66763 0.72905 0.50151 0.0
C83 C 0.60521 0.75886 0.3655 0.0
C84 C 0.39471 0.61746 0.04433 0.0
C85 C 0.32172 0.68624 0.14655 0.0
O86 O 0.39198 0.67407 0.04174 0.0
Zn87 Zn 0.36494 0.74022 0.07091 0.0
O88 O 0.37772 0.58697 0.06782 0.0
Zn89 Zn 0.35672 0.65227 0.09114 0.0
O90 O 0.3363 0.6817 0.02501 0.0
O91 O 0.34871 0.77401 0.01208 0.0
O92 O 0.3291 0.63361 0.13703 0.0
O93 O 0.33322 0.72996 0.12473 0.0
O94 O 0.38932 0.78936 0.10734 0.0
O95 O 0.38497 0.69867 0.13786 0.0
C96 C 0.33511 0.72948 0.9989 0.0
C97 C 0.39582 0.75011 0.13936 0.0
C98 C 0.10628 0.8835 0.54178 0.0
C99 C 0.17757 0.82059 0.65042 0.0
O100 O 0.11001 0.82719 0.53855 0.0
Zn101 Zn 0.13782 0.7633 0.5698 0.0
O102 O 0.12225 0.91483 0.56706 0.0
Zn103 Zn 0.14343 0.85086 0.5915 0.0
O104 O 0.16625 0.82477 0.52645 0.0
O105 O 0.15591 0.73128 0.51314 0.0
O106 O 0.16896 0.87215 0.64074 0.0
O107 O 0.16791 0.77579 0.6269 0.0
O108 O 0.11371 0.71046 0.60159 0.0
O109 O 0.11423 0.8007 0.63421 0.0
C110 C 0.1689 0.7769 0.50072 0.0
C111 C 0.1047 0.74787 0.63286 0.0
C112 C 0.28985 0.24222 0.69347 0.0
C113 C 0.30679 0.29141 0.69534 0.0
C114 C 0.27309 0.22984 0.73384 0.0
C115 C 0.27357 0.26559 0.77716 0.0
C116 C 0.29072 0.31417 0.77918 0.0
C117 C 0.30686 0.32758 0.73836 0.0
C118 C 0.25699 0.25226 0.82137 0.0
C119 C 0.23153 0.23747 0.8172 0.0
C120 C 0.21465 0.2308 0.86208 0.0
C121 C 0.18999 0.25852 0.86311 0.0
C122 C 0.17441 0.25583 0.90628 0.0
C123 C 0.18287 0.2236 0.94851 0.0
H124 H 0.24189 0.17567 0.9039 0.0
C125 C 0.20712 0.19389 0.94677 0.0
C126 C 0.22305 0.19808 0.90412 0.0
H127 H 0.21405 0.16872 0.97885 0.0
H128 H 0.28952 0.21353 0.6608 0.0
H129 H 0.26026 0.19157 0.73171 0.0
H130 H 0.29148 0.34211 0.81231 0.0
H131 H 0.31994 0.36538 0.74104 0.0
H132 H 0.26532 0.26009 0.85843 0.0
H133 H 0.22232 0.23616 0.78034 0.0
H134 H 0.18312 0.28375 0.83101 0.0
H135 H 0.15568 0.27872 0.90655 0.0
C136 C 0.20762 0.25762 0.20022 0.0
C137 C 0.20421 0.20089 0.17913 0.0
C138 C 0.22694 0.26731 0.2369 0.0
C139 C 0.24333 0.22044 0.25266 0.0
C140 C 0.2405 0.16456 0.23001 0.0
C141 C 0.22105 0.1547 0.19408 0.0
C142 C 0.26352 0.22717 0.29257 0.0
C143 C 0.26165 0.26605 0.33095 0.0
C144 C 0.28037 0.26654 0.37402 0.0
C145 C 0.28321 0.31846 0.4028 0.0
C146 C 0.30015 0.31974 0.44431 0.0
C147 C 0.31445 0.26885 0.45812 0.0
H148 H 0.29206 0.17368 0.36887 0.0
C149 C 0.31132 0.21671 0.42973 0.0
C150 C 0.29442 0.21541 0.38845 0.0
H151 H 0.32177 0.17645 0.43961 0.0
H152 H 0.19499 0.29413 0.18928 0.0
H153 H 0.22901 0.31141 0.25255 0.0
H154 H 0.25299 0.12782 0.24109 0.0
H155 H 0.21909 0.1106 0.17825 0.0
H156 H 0.27977 0.19598 0.29157 0.0
H157 H 0.24561 0.29785 0.33177 0.0
H158 H 0.27237 0.35825 0.39304 0.0
H159 H 0.30202 0.36058 0.46551 0.0
C160 C 0.78995 0.17199 0.29789 0.0
C161 C 0.80357 0.21864 0.3214 0.0
C162 C 0.77216 0.18349 0.25906 0.0
C163 C 0.76741 0.24211 0.243 0.0
C164 C 0.78092 0.2887 0.26672 0.0
C165 C 0.7987 0.27721 0.30564 0.0
C166 C 0.7498 0.25599 0.19986 0.0
C167 C 0.73002 0.2202 0.18498 0.0
C168 C 0.7132 0.23084 0.13996 0.0
C169 C 0.69779 0.18365 0.12202 0.0
C170 C 0.68202 0.19048 0.07944 0.0
C171 C 0.68116 0.24492 0.0537 0.0
H172 H 0.72291 0.32397 0.12756 0.0
C173 C 0.69621 0.29258 0.07194 0.0
C174 C 0.712 0.28578 0.11464 0.0
H175 H 0.69582 0.33529 0.05325 0.0
H176 H 0.7934 0.1263 0.30877 0.0
H177 H 0.76291 0.14602 0.24084 0.0
H178 H 0.77784 0.33422 0.25489 0.0
H179 H 0.80894 0.31419 0.32276 0.0
H180 H 0.75364 0.29705 0.17996 0.0
H181 H 0.72613 0.17993 0.20609 0.0
H182 H 0.69814 0.14092 0.14073 0.0
H183 H 0.67061 0.15284 0.06659 0.0
C184 C 0.71074 0.33606 0.79495 0.0
C185 C 0.70042 0.28893 0.82333 0.0
C186 C 0.72889 0.32538 0.7566 0.0
C187 C 0.73749 0.26716 0.74611 0.0
C188 C 0.72736 0.22021 0.77497 0.0
C189 C 0.70906 0.23089 0.81312 0.0
C190 C 0.75582 0.25302 0.70402 0.0
C191 C 0.7709 0.29373 0.68056 0.0
C192 C 0.78835 0.2806 0.63694 0.0
C193 C 0.80704 0.32335 0.62295 0.0
C194 C 0.82322 0.31449 0.58122 0.0
C195 C 0.8211 0.26251 0.55228 0.0
H196 H 0.77163 0.19499 0.61605 0.0
C197 C 0.80248 0.21952 0.56618 0.0
C198 C 0.78617 0.22852 0.60783 0.0
H199 H 0.80019 0.17918 0.54444 0.0
H200 H 0.7043 0.38127 0.80145 0.0
H201 H 0.7354 0.36293 0.73464 0.0
H202 H 0.73342 0.17489 0.76768 0.0
H203 H 0.70147 0.19351 0.83418 0.0
H204 H 0.75712 0.20678 0.69292 0.0
H205 H 0.77113 0.33905 0.69431 0.0
H206 H 0.80911 0.36408 0.64428 0.0
H207 H 0.83734 0.34858 0.57161 0.0
C208 C 0.81104 0.71883 0.07034 0.0
C209 C 0.8146 0.77266 0.04456 0.0
C210 C 0.79346 0.71491 0.1104 0.0
C211 C 0.77916 0.76511 0.12626 0.0
C212 C 0.78261 0.81886 0.10026 0.0
C213 C 0.80016 0.8227 0.0599 0.0
C214 C 0.75967 0.76243 0.16799 0.0
C215 C 0.75943 0.71919 0.20306 0.0
C216 C 0.73876 0.71335 0.24211 0.0
C217 C 0.73318 0.65654 0.2609 0.0
C218 C 0.7136 0.64837 0.29691 0.0
C219 C 0.69939 0.69708 0.31565 0.0
H220 H 0.7291 0.80706 0.24883 0.0
C221 C 0.70539 0.75428 0.29787 0.0
C222 C 0.72485 0.76239 0.26134 0.0
H223 H 0.69489 0.79276 0.31179 0.0
H224 H 0.8216 0.67919 0.05915 0.0
H225 H 0.79083 0.67194 0.12772 0.0
H226 H 0.77168 0.8581 0.11119 0.0
H227 H 0.80237 0.86482 0.04072 0.0
H228 H 0.74479 0.79699 0.16911 0.0
H229 H 0.77426 0.68463 0.20233 0.0
H230 H 0.74374 0.61806 0.24706 0.0
H231 H 0.70962 0.60375 0.31004 0.0
C232 C 0.68987 0.78421 0.5712 0.0
C233 C 0.68579 0.73083 0.54504 0.0
C234 C 0.70754 0.78685 0.61129 0.0
C235 C 0.7214 0.73582 0.62673 0.0
C236 C 0.71736 0.68249 0.60045 0.0
C237 C 0.69971 0.67991 0.56014 0.0
C238 C 0.74116 0.73739 0.66811 0.0
C239 C 0.74148 0.77971 0.70394 0.0
C240 C 0.76257 0.78581 0.74221 0.0
C241 C 0.76759 0.84254 0.76169 0.0
C242 C 0.78743 0.8513 0.79706 0.0
C243 C 0.8025 0.80326 0.81458 0.0
H244 H 0.77365 0.69272 0.74683 0.0
C245 C 0.79715 0.74604 0.79607 0.0
C246 C 0.77741 0.73736 0.76003 0.0
H247 H 0.80834 0.70811 0.80908 0.0
H248 H 0.67972 0.82447 0.56022 0.0
H249 H 0.71066 0.82952 0.62889 0.0
H250 H 0.72794 0.64264 0.61106 0.0
H251 H 0.69711 0.63808 0.54066 0.0
H252 H 0.75616 0.70309 0.66817 0.0
H253 H 0.72638 0.8137 0.70421 0.0
H254 H 0.75636 0.88057 0.74893 0.0
H255 H 0.79086 0.89591 0.81079 0.0
C256 C 0.31806 0.78288 0.9228 0.0
C257 C 0.31769 0.73284 0.95433 0.0
C258 C 0.30118 0.78664 0.88143 0.0
C259 C 0.28322 0.74065 0.87099 0.0
C260 C 0.28333 0.6901 0.90191 0.0
C261 C 0.30031 0.68621 0.9431 0.0
C262 C 0.26423 0.74331 0.82831 0.0
C263 C 0.2567 0.79442 0.80608 0.0
C264 C 0.23667 0.79871 0.76529 0.0
C265 C 0.22623 0.85491 0.75415 0.0
C266 C 0.20725 0.86186 0.71674 0.0
C267 C 0.19818 0.81267 0.68925 0.0
H268 H 0.23588 0.7055 0.74328 0.0
C269 C 0.20883 0.75639 0.6997 0.0
C270 C 0.22796 0.74943 0.73715 0.0
H271 H 0.20243 0.71766 0.67891 0.0
H272 H 0.33146 0.81924 0.92997 0.0
H273 H 0.30259 0.82545 0.8577 0.0
H274 H 0.26995 0.6537 0.89461 0.0
H275 H 0.29957 0.64686 0.96646 0.0
H276 H 0.25512 0.70183 0.81721 0.0
H277 H 0.26444 0.83614 0.82004 0.0
H278 H 0.23262 0.8938 0.77479 0.0
H279 H 0.19956 0.90594 0.70968 0.0
C280 C 0.2955 0.75407 0.20239 0.0
C281 C 0.30049 0.6968 0.18355 0.0
C282 C 0.27619 0.76311 0.23911 0.0
C283 C 0.26142 0.71496 0.25751 0.0
C284 C 0.26597 0.65818 0.23756 0.0
C285 C 0.28538 0.64907 0.20135 0.0
C286 C 0.24099 0.72156 0.29702 0.0
C287 C 0.24115 0.76457 0.33234 0.0
C288 C 0.22194 0.76714 0.37458 0.0
C289 C 0.21813 0.8211 0.40013 0.0
C290 C 0.20082 0.82469 0.44094 0.0
C291 C 0.18706 0.77416 0.45725 0.0
H292 H 0.21134 0.67341 0.37443 0.0
C293 C 0.19103 0.72012 0.43195 0.0
C294 C 0.20834 0.71649 0.3914 0.0
H295 H 0.18101 0.68011 0.44383 0.0
H296 H 0.30672 0.79183 0.18924 0.0
H297 H 0.27278 0.80782 0.25248 0.0
H298 H 0.25475 0.62037 0.25071 0.0
H299 H 0.28857 0.60444 0.18743 0.0
H300 H 0.22591 0.68758 0.29797 0.0
H301 H 0.25611 0.79886 0.33111 0.0
H302 H 0.22855 0.86069 0.38846 0.0
H303 H 0.19829 0.86697 0.45974 0.0
C304 C 0.07523 0.22149 0.20091 0.0
C305 C 0.08599 0.26582 0.17004 0.0
C306 C 0.05224 0.23221 0.22798 0.0
C307 C 0.0395 0.28754 0.22471 0.0
C308 C 0.05114 0.33305 0.19651 0.0
C309 C 0.07408 0.32221 0.16908 0.0
C310 C 0.0139 0.2983 0.24973 0.0
C311 C 0.99569 0.25517 0.25371 0.0
C312 C 0.96981 0.26191 0.27895 0.0
C313 C 0.95106 0.21699 0.27198 0.0
C314 C 0.92758 0.21737 0.29892 0.0
C315 C 0.92226 0.26278 0.33365 0.0
H316 H 0.97799 0.34399 0.31933 0.0
C317 C 0.9404 0.30937 0.33901 0.0
C318 C 0.96402 0.30888 0.31214 0.0
H319 H 0.93696 0.34482 0.36574 0.0
H320 H 0.08404 0.17774 0.2029 0.0
H321 H 0.04431 0.19684 0.25095 0.0
H322 H 0.04192 0.37633 0.19408 0.0
H323 H 0.08199 0.35749 0.14596 0.0
H324 H 0.00957 0.34317 0.26201 0.0
H325 H 0.99977 0.21219 0.23679 0.0
H326 H 0.95491 0.18034 0.24662 0.0
H327 H 0.914 0.18086 0.29375 0.0
C328 C 0.43148 0.26474 0.69592 0.0
C329 C 0.4206 0.22148 0.66407 0.0
C330 C 0.45492 0.25377 0.72137 0.0
C331 C 0.46809 0.1993 0.71548 0.0
C332 C 0.45649 0.15472 0.68611 0.0
C333 C 0.43302 0.16582 0.66026 0.0
C334 C 0.49398 0.18881 0.7395 0.0
C335 C 0.51179 0.23275 0.74367 0.0
C336 C 0.53737 0.22788 0.77024 0.0
C337 C 0.55557 0.27409 0.76404 0.0
C338 C 0.57836 0.27632 0.79306 0.0
C339 C 0.58351 0.2323 0.82911 0.0
H340 H 0.52955 0.14604 0.81112 0.0
C341 C 0.56607 0.18421 0.83356 0.0
C342 C 0.54314 0.18208 0.80458 0.0
H343 H 0.56944 0.14972 0.86119 0.0
H344 H 0.42229 0.30784 0.70024 0.0
H345 H 0.46283 0.2883 0.74531 0.0
H346 H 0.46607 0.11206 0.68168 0.0
H347 H 0.42504 0.1314 0.63629 0.0
H348 H 0.49863 0.14407 0.75173 0.0
H349 H 0.50734 0.27551 0.72668 0.0
H350 H 0.55172 0.30989 0.73784 0.0
H351 H 0.59144 0.31383 0.78847 0.0
C352 C 0.07469 0.76614 0.70563 0.0
C353 C 0.0809 0.73379 0.6621 0.0
C354 C 0.0503 0.75886 0.72893 0.0
C355 C 0.03152 0.72 0.70841 0.0
C356 C 0.03794 0.68676 0.66563 0.0
C357 C 0.06257 0.69285 0.64311 0.0
C358 C 0.00444 0.71756 0.72843 0.0
C359 C 0.99932 0.71926 0.77787 0.0
C360 C 0.97224 0.72189 0.79777 0.0
C361 C 0.96605 0.69054 0.84164 0.0
C362 C 0.94133 0.69661 0.86375 0.0
C363 C 0.92264 0.73573 0.84325 0.0
H364 H 0.95764 0.78457 0.74249 0.0
C365 C 0.92866 0.76643 0.79882 0.0
C366 C 0.95318 0.75907 0.77591 0.0
H367 H 0.91468 0.79715 0.78246 0.0
H368 H 0.08839 0.79828 0.72081 0.0
H369 H 0.04567 0.78583 0.76145 0.0
H370 H 0.0237 0.65685 0.64906 0.0
H371 H 0.06668 0.66787 0.60922 0.0
H372 H 0.98835 0.71331 0.70179 0.0
H373 H 0.01543 0.71753 0.80469 0.0
H374 H 0.98052 0.662 0.85926 0.0
H375 H 0.93737 0.67292 0.89835 0.0
C376 C 0.43569 0.80716 0.16667 0.0
C377 C 0.41794 0.76026 0.17439 0.0
C378 C 0.45909 0.81016 0.19426 0.0
C379 C 0.465 0.76647 0.23044 0.0
C380 C 0.44647 0.72175 0.23996 0.0
C381 C 0.42324 0.71862 0.21234 0.0
C382 C 0.49095 0.76202 0.25579 0.0
C383 C 0.50933 0.80501 0.25664 0.0
C384 C 0.53534 0.79481 0.28037 0.0
C385 C 0.54756 0.84063 0.30735 0.0
C386 C 0.57094 0.82989 0.33355 0.0
C387 C 0.5827 0.7733 0.33247 0.0
H388 H 0.53946 0.70368 0.25488 0.0
C389 C 0.57128 0.72869 0.30271 0.0
C390 C 0.54789 0.73931 0.27695 0.0
H391 H 0.57993 0.68479 0.30056 0.0
H392 H 0.43222 0.83976 0.13749 0.0
H393 H 0.47288 0.84501 0.18521 0.0
H394 H 0.45039 0.68762 0.26769 0.0
H395 H 0.40991 0.6821 0.21945 0.0
H396 H 0.49516 0.7204 0.2749 0.0
H397 H 0.50506 0.84898 0.24213 0.0
H398 H 0.53846 0.88404 0.30984 0.0
H399 H 0.57935 0.86535 0.35585 0.0
C400 C 0.06293 0.11005 0.01644 0.0
C401 C 0.08526 0.07836 0.0322 0.0
C402 C 0.03928 0.08052 0.00707 0.0
C403 C 0.03747 0.01858 0.01331 0.0
C404 C 0.06013 0.98669 0.02661 0.0
C405 C 0.08373 0.01622 0.03631 0.0
C406 C 0.01248 0.98569 0.00572 0.0
C407 C 0.9886 0.01032 0.01261 0.0
C408 C 0.9636 0.97793 0.00377 0.0
C409 C 0.94125 0.01047 0.98979 0.0
C410 C 0.91785 0.98148 0.97757 0.0
C411 C 0.9162 0.91923 0.97979 0.0
H412 H 0.97807 0.88937 0.02111 0.0
C413 C 0.9381 0.88683 0.9967 0.0
C414 C 0.96158 0.91584 0.00857 0.0
H415 H 0.93744 0.83884 0.99909 0.0
H416 H 0.06348 0.15792 0.01262 0.0
H417 H 0.02254 0.10646 0.99495 0.0
H418 H 0.0594 0.93887 0.03091 0.0
H419 H 0.1006 0.99041 0.04811 0.0
H420 H 0.01403 0.9393 0.99501 0.0
H421 H 0.98709 0.0567 0.02338 0.0
H422 H 0.94213 0.05839 0.98656 0.0
H423 H 0.90129 0.00781 0.96498 0.0
C424 C 0.57578 0.53511 0.46669 0.0
C425 C 0.58146 0.59498 0.47707 0.0
C426 C 0.55133 0.51107 0.47903 0.0
C427 C 0.53195 0.54647 0.50198 0.0
C428 C 0.53814 0.6053 0.51478 0.0
C429 C 0.56255 0.62948 0.50219 0.0
C430 C 0.50525 0.5235 0.51346 0.0
C431 C 0.49361 0.47985 0.48681 0.0
C432 C 0.46704 0.45619 0.4985 0.0
C433 C 0.46096 0.39769 0.48448 0.0
C434 C 0.43682 0.37247 0.49753 0.0
C435 C 0.4181 0.40554 0.52445 0.0
H436 H 0.45125 0.5363 0.53279 0.0
C437 C 0.4236 0.46519 0.536 0.0
C438 C 0.44778 0.49031 0.52313 0.0
H439 H 0.40953 0.49213 0.55632 0.0
H440 H 0.58997 0.5071 0.44775 0.0
H441 H 0.54773 0.46483 0.4704 0.0
H442 H 0.52373 0.63327 0.53319 0.0
H443 H 0.5663 0.67568 0.51094 0.0
H444 H 0.49479 0.54446 0.54424 0.0
H445 H 0.50412 0.45908 0.45597 0.0
H446 H 0.47527 0.37069 0.46479 0.0
H447 H 0.43321 0.32648 0.48784 0.0
C448 C 0.42452 0.52923 0.03613 0.0
C449 C 0.41911 0.58919 0.02555 0.0
C450 C 0.44904 0.50472 0.02458 0.0
C451 C 0.46873 0.53975 0.00225 0.0
C452 C 0.46281 0.59868 0.98929 0.0
C453 C 0.43836 0.62329 0.00106 0.0
C454 C 0.49552 0.51645 0.99162 0.0
C455 C 0.50676 0.47207 0.01805 0.0
C456 C 0.53347 0.44844 0.00723 0.0
C457 C 0.5392 0.38938 0.02005 0.0
C458 C 0.56352 0.36432 0.00795 0.0
C459 C 0.58282 0.3981 0.98331 0.0
H460 H 0.54995 0.5295 0.97605 0.0
C461 C 0.57762 0.4582 0.97293 0.0
C462 C 0.55322 0.48316 0.98475 0.0
H463 H 0.59211 0.48562 0.95428 0.0
H464 H 0.41008 0.50155 0.05464 0.0
H465 H 0.45242 0.45844 0.03335 0.0
H466 H 0.47745 0.6264 0.97137 0.0
H467 H 0.43483 0.66956 0.99217 0.0
H468 H 0.50644 0.53788 0.96168 0.0
H469 H 0.49584 0.45068 0.04802 0.0
H470 H 0.52451 0.36188 0.03807 0.0
H471 H 0.5669 0.31797 0.01673 0.0
C472 C 0.07594 0.97033 0.53192 0.0
C473 C 0.08167 0.91028 0.52245 0.0
C474 C 0.05113 0.99354 0.52093 0.0
C475 C 0.03143 0.95712 0.50029 0.0
C476 C 0.03765 0.89813 0.48803 0.0
C477 C 0.06244 0.87477 0.49926 0.0
C478 C 0.00435 0.97931 0.4909 0.0
C479 C 0.99314 0.02266 0.51859 0.0
C480 C 0.96644 0.04686 0.50877 0.0
C481 C 0.96086 0.10527 0.52377 0.0
C482 C 0.93671 0.13142 0.5122 0.0
C483 C 0.91741 0.09938 0.48591 0.0
H484 H 0.94979 0.96778 0.47435 0.0
C485 C 0.92236 0.03969 0.47356 0.0
C486 C 0.94664 0.01365 0.48482 0.0
H487 H 0.90787 0.01363 0.45352 0.0
H488 H 0.09035 0.99912 0.54932 0.0
H489 H 0.04747 0.03993 0.52892 0.0
H490 H 0.02299 0.86939 0.47132 0.0
H491 H 0.06621 0.82837 0.4913 0.0
H492 H 0.99331 0.95825 0.46089 0.0
H493 H 0.00426 0.04316 0.54878 0.0
H494 H 0.97559 0.13159 0.54295 0.0
H495 H 0.9335 0.17739 0.52252 0.0
loop_
_geom_bond_atom_site_label_1
_geom_bond_atom_site_label_2
_geom_bond_distance
_geom_bond_site_symmetry_2
_ccdc_geom_bond_type
C0 O2 1.247 . S
C0 O4 1.258 . S
C1 O8 1.247 . S
C1 O9 1.258 . S
O2 C0 1.247 . S
O2 Zn3 2.028 . S
Zn3 O2 2.028 . S
Zn3 O7 2.035 . S
Zn3 O9 2.035 . S
Zn3 O10 2.028 . S
O4 C0 1.258 . S
O4 Zn5 2.035 . S
Zn5 O4 2.035 . S
Zn5 O6 2.028 . S
Zn5 O8 2.028 . S
Zn5 O11 2.035 . S
O6 Zn5 2.028 . S
O6 C12 1.247 . S
O7 Zn3 2.035 . S
O7 C12 1.258 . S
O8 C1 1.247 . S
O8 Zn5 2.028 . S
O9 C1 1.258 . S
O9 Zn3 2.035 . S
O10 Zn3 2.028 . S
O10 C13 1.247 . S
O11 Zn5 2.035 . S
O11 C13 1.258 . S
C12 O6 1.247 . S
C12 O7 1.258 . S
C13 O10 1.247 . S
C13 O11 1.258 . S
C14 O16 1.247 . S
C14 O18 1.258 . S
C15 O22 1.247 . S
C15 O23 1.258 . S
O16 C14 1.247 . S
O16 Zn17 2.028 . S
Zn17 O16 2.028 . S
Zn17 O21 2.035 . S
Zn17 O23 2.035 . S
Zn17 O24 2.028 . S
O18 C14 1.258 . S
O18 Zn19 2.035 . S
Zn19 O18 2.035 . S
Zn19 O20 2.028 . S
Zn19 O22 2.028 . S
Zn19 O25 2.035 . S
O20 Zn19 2.028 . S
O20 C26 1.247 . S
O21 Zn17 2.035 . S
O21 C26 1.258 . S
O22 C15 1.247 . S
O22 Zn19 2.028 . S
O23 C15 1.258 . S
O23 Zn17 2.035 . S
O24 Zn17 2.028 . S
O24 C27 1.247 . S
O25 Zn19 2.035 . S
O25 C27 1.258 . S
C26 O20 1.247 . S
C26 O21 1.258 . S
C27 O24 1.247 . S
C27 O25 1.258 . S
C28 O30 1.247 . S
C28 O32 1.258 . S
C29 O36 1.247 . S
C29 O37 1.258 . S
O30 C28 1.247 . S
O30 Zn31 2.028 . S
Zn31 O30 2.028 . S
Zn31 O35 2.035 . S
Zn31 O37 2.035 . S
Zn31 O38 2.028 . S
O32 C28 1.258 . S
O32 Zn33 2.035 . S
Zn33 O32 2.035 . S
Zn33 O34 2.028 . S
Zn33 O36 2.028 . S
Zn33 O39 2.035 . S
O34 Zn33 2.028 . S
O34 C40 1.247 . S
O35 Zn31 2.035 . S
O35 C40 1.258 . S
O36 C29 1.247 . S
O36 Zn33 2.028 . S
O37 C29 1.258 . S
O37 Zn31 2.035 . S
O38 Zn31 2.028 . S
O38 C41 1.247 . S
O39 Zn33 2.035 . S
O39 C41 1.258 . S
C40 O34 1.247 . S
C40 O35 1.258 . S
C41 O38 1.247 . S
C41 O39 1.258 . S
C42 O44 1.247 . S
C42 O46 1.258 . S
C43 O50 1.247 . S
C43 O51 1.258 . S
O44 C42 1.247 . S
O44 Zn45 2.028 . S
Zn45 O44 2.028 . S
Zn45 O49 2.035 . S
Zn45 O51 2.035 . S
Zn45 O52 2.028 . S
O46 C42 1.258 . S
O46 Zn47 2.035 . S
Zn47 O46 2.035 . S
Zn47 O48 2.028 . S
Zn47 O50 2.028 . S
Zn47 O53 2.035 . S
O48 Zn47 2.028 . S
O48 C54 1.247 . S
O49 Zn45 2.035 . S
O49 C54 1.258 . S
O50 C43 1.247 . S
O50 Zn47 2.028 . S
O51 C43 1.258 . S
O51 Zn45 2.035 . S
O52 Zn45 2.028 . S
O52 C55 1.247 . S
O53 Zn47 2.035 . S
O53 C55 1.258 . S
C54 O48 1.247 . S
C54 O49 1.258 . S
C55 O52 1.247 . S
C55 O53 1.258 . S
C56 O58 1.247 . S
C56 O60 1.258 . S
C57 O64 1.247 . S
C57 O65 1.258 . S
O58 C56 1.247 . S
O58 Zn59 2.028 . S
Zn59 O58 2.028 . S
Zn59 O63 2.035 . S
Zn59 O65 2.035 . S
Zn59 O66 2.028 . S
O60 C56 1.258 . S
O60 Zn61 2.035 . S
Zn61 O60 2.035 . S
Zn61 O62 2.028 . S
Zn61 O64 2.028 . S
Zn61 O67 2.035 . S
O62 Zn61 2.028 . S
O62 C68 1.247 . S
O63 Zn59 2.035 . S
O63 C68 1.258 . S
O64 C57 1.247 . S
O64 Zn61 2.028 . S
O65 C57 1.258 . S
O65 Zn59 2.035 . S
O66 Zn59 2.028 . S
O66 C69 1.247 . S
O67 Zn61 2.035 . S
O67 C69 1.258 . S
C68 O62 1.247 . S
C68 O63 1.258 . S
C69 O66 1.247 . S
C69 O67 1.258 . S
C70 O72 1.247 . S
C70 O74 1.258 . S
C71 O78 1.247 . S
C71 O79 1.258 . S
O72 C70 1.247 . S
O72 Zn73 2.028 . S
Zn73 O72 2.028 . S
Zn73 O77 2.035 . S
Zn73 O79 2.035 . S
Zn73 O80 2.028 . S
O74 C70 1.258 . S
O74 Zn75 2.035 . S
Zn75 O74 2.035 . S
Zn75 O76 2.028 . S
Zn75 O78 2.028 . S
Zn75 O81 2.035 . S
O76 Zn75 2.028 . S
O76 C82 1.247 . S
O77 Zn73 2.035 . S
O77 C82 1.258 . S
O78 C71 1.247 . S
O78 Zn75 2.028 . S
O79 C71 1.258 . S
O79 Zn73 2.035 . S
O80 Zn73 2.028 . S
O80 C83 1.247 . S
O81 Zn75 2.035 . S
O81 C83 1.258 . S
C82 O76 1.247 . S
C82 O77 1.258 . S
C83 O80 1.247 . S
C83 O81 1.258 . S
C84 O86 1.247 . S
C84 O88 1.258 . S
C85 O92 1.247 . S
C85 O93 1.258 . S
O86 C84 1.247 . S
O86 Zn87 2.028 . S
Zn87 O86 2.028 . S
Zn87 O91 2.035 . S
Zn87 O93 2.035 . S
Zn87 O94 2.028 . S
O88 C84 1.258 . S
O88 Zn89 2.035 . S
Zn89 O88 2.035 . S
Zn89 O90 2.028 . S
Zn89 O92 2.028 . S
Zn89 O95 2.035 . S
O90 Zn89 2.028 . S
O90 C96 1.247 . S
O91 Zn87 2.035 . S
O91 C96 1.258 . S
O92 C85 1.247 . S
O92 Zn89 2.028 . S
O93 C85 1.258 . S
O93 Zn87 2.035 . S
O94 Zn87 2.028 . S
O94 C97 1.247 . S
O95 Zn89 2.035 . S
O95 C97 1.258 . S
C96 O90 1.247 . S
C96 O91 1.258 . S
C97 O94 1.247 . S
C97 O95 1.258 . S
C98 O100 1.247 . S
C98 O102 1.258 . S
C99 O106 1.247 . S
C99 O107 1.258 . S
O100 C98 1.247 . S
O100 Zn101 2.028 . S
Zn101 O100 2.028 . S
Zn101 O105 2.035 . S
Zn101 O107 2.035 . S
Zn101 O108 2.028 . S
O102 C98 1.258 . S
O102 Zn103 2.035 . S
Zn103 O102 2.035 . S
Zn103 O104 2.028 . S
Zn103 O106 2.028 . S
Zn103 O109 2.035 . S
O104 Zn103 2.028 . S
O104 C110 1.247 . S
O105 Zn101 2.035 . S
O105 C110 1.258 . S
O106 C99 1.247 . S
O106 Zn103 2.028 . S
O107 C99 1.258 . S
O107 Zn101 2.035 . S
O108 Zn101 2.028 . S
O108 C111 1.247 . S
O109 Zn103 2.035 . S
O109 C111 1.258 . S
C110 O104 1.247 . S
C110 O105 1.258 . S
C111 O108 1.247 . S
C111 O109 1.258 . S
C112 C113 1.386 . S
C112 C114 1.383 . S
C112 H128 0.951 . S
C113 C112 1.386 . S
C113 C117 1.383 . S
C114 C112 1.383 . S
C114 C115 1.402 . S
C114 H129 0.951 . S
C115 C114 1.402 . S
C115 C116 1.375 . S
C115 C118 1.481 . S
C116 C115 1.375 . S
C116 C117 1.367 . S
C116 H130 0.951 . S
C117 C113 1.383 . S
C117 C116 1.367 . S
C117 H131 0.950 . S
C118 C115 1.481 . S
C118 C119 1.297 . S
C118 H132 0.950 . S
C119 C118 1.297 . S
C119 C120 1.479 . S
C119 H133 0.950 . S
C120 C119 1.479 . S
C120 C121 1.375 . S
C120 C126 1.404 . S
C121 C120 1.375 . S
C121 C122 1.369 . S
C121 H134 0.950 . S
C122 C121 1.369 . S
C122 C123 1.392 . S
C122 H135 0.951 . S
C123 C122 1.392 . S
C123 C125 1.384 . S
H124 C126 0.949 . S
C125 C123 1.384 . S
C125 C126 1.385 . S
C125 H127 0.950 1_556 S
C126 C120 1.404 . S
C126 H124 0.949 . S
C126 C125 1.385 . S
H127 C125 0.950 1_554 S
H128 C112 0.951 . S
H129 C114 0.951 . S
H130 C116 0.951 . S
H131 C117 0.950 . S
H132 C118 0.950 . S
H133 C119 0.950 . S
H134 C121 0.950 . S
H135 C122 0.951 . S
C136 C137 1.386 . S
C136 C138 1.383 . S
C136 H152 0.951 . S
C137 C136 1.386 . S
C137 C141 1.383 . S
C138 C136 1.383 . S
C138 C139 1.402 . S
C138 H153 0.951 . S
C139 C138 1.402 . S
C139 C140 1.375 . S
C139 C142 1.481 . S
C140 C139 1.375 . S
C140 C141 1.367 . S
C140 H154 0.951 . S
C141 C137 1.383 . S
C141 C140 1.367 . S
C141 H155 0.950 . S
C142 C139 1.481 . S
C142 C143 1.297 . S
C142 H156 0.950 . S
C143 C142 1.297 . S
C143 C144 1.479 . S
C143 H157 0.950 . S
C144 C143 1.479 . S
C144 C145 1.375 . S
C144 C150 1.404 . S
C145 C144 1.375 . S
C145 C146 1.369 . S
C145 H158 0.950 . S
C146 C145 1.369 . S
C146 C147 1.392 . S
C146 H159 0.951 . S
C147 C146 1.392 . S
C147 C149 1.384 . S
H148 C150 0.949 . S
C149 C147 1.384 . S
C149 C150 1.385 . S
C149 H151 0.950 . S
C150 C144 1.404 . S
C150 H148 0.949 . S
C150 C149 1.385 . S
H151 C149 0.950 . S
H152 C136 0.951 . S
H153 C138 0.951 . S
H154 C140 0.951 . S
H155 C141 0.950 . S
H156 C142 0.950 . S
H157 C143 0.950 . S
H158 C145 0.950 . S
H159 C146 0.951 . S
C160 C161 1.386 . S
C160 C162 1.383 . S
C160 H176 0.951 . S
C161 C160 1.386 . S
C161 C165 1.383 . S
C162 C160 1.383 . S
C162 C163 1.402 . S
C162 H177 0.951 . S
C163 C162 1.402 . S
C163 C164 1.375 . S
C163 C166 1.481 . S
C164 C163 1.375 . S
C164 C165 1.367 . S
C164 H178 0.951 . S
C165 C161 1.383 . S
C165 C164 1.367 . S
C165 H179 0.950 . S
C166 C163 1.481 . S
C166 C167 1.297 . S
C166 H180 0.950 . S
C167 C166 1.297 . S
C167 C168 1.479 . S
C167 H181 0.950 . S
C168 C167 1.479 . S
C168 C169 1.375 . S
C168 C174 1.404 . S
C169 C168 1.375 . S
C169 C170 1.369 . S
C169 H182 0.950 . S
C170 C169 1.369 . S
C170 C171 1.392 . S
C170 H183 0.951 . S
C171 C170 1.392 . S
C171 C173 1.384 . S
H172 C174 0.949 . S
C173 C171 1.384 . S
C173 C174 1.385 . S
C173 H175 0.950 . S
C174 C168 1.404 . S
C174 H172 0.949 . S
C174 C173 1.385 . S
H175 C173 0.950 . S
H176 C160 0.951 . S
H177 C162 0.951 . S
H178 C164 0.951 . S
H179 C165 0.950 . S
H180 C166 0.950 . S
H181 C167 0.950 . S
H182 C169 0.950 . S
H183 C170 0.951 . S
C184 C185 1.386 . S
C184 C186 1.383 . S
C184 H200 0.951 . S
C185 C184 1.386 . S
C185 C189 1.383 . S
C186 C184 1.383 . S
C186 C187 1.402 . S
C186 H201 0.951 . S
C187 C186 1.402 . S
C187 C188 1.375 . S
C187 C190 1.481 . S
C188 C187 1.375 . S
C188 C189 1.367 . S
C188 H202 0.951 . S
C189 C185 1.383 . S
C189 C188 1.367 . S
C189 H203 0.950 . S
C190 C187 1.481 . S
C190 C191 1.297 . S
C190 H204 0.950 . S
C191 C190 1.297 . S
C191 C192 1.479 . S
C191 H205 0.950 . S
C192 C191 1.479 . S
C192 C193 1.375 . S
C192 C198 1.404 . S
C193 C192 1.375 . S
C193 C194 1.369 . S
C193 H206 0.950 . S
C194 C193 1.369 . S
C194 C195 1.392 . S
C194 H207 0.951 . S
C195 C194 1.392 . S
C195 C197 1.384 . S
H196 C198 0.949 . S
C197 C195 1.384 . S
C197 C198 1.385 . S
C197 H199 0.950 . S
C198 C192 1.404 . S
C198 H196 0.949 . S
C198 C197 1.385 . S
H199 C197 0.950 . S
H200 C184 0.951 . S
H201 C186 0.951 . S
H202 C188 0.951 . S
H203 C189 0.950 . S
H204 C190 0.950 . S
H205 C191 0.950 . S
H206 C193 0.950 . S
H207 C194 0.951 . S
C208 C209 1.386 . S
C208 C210 1.383 . S
C208 H224 0.951 . S
C209 C208 1.386 . S
C209 C213 1.383 . S
C210 C208 1.383 . S
C210 C211 1.402 . S
C210 H225 0.951 . S
C211 C210 1.402 . S
C211 C212 1.375 . S
C211 C214 1.481 . S
C212 C211 1.375 . S
C212 C213 1.367 . S
C212 H226 0.951 . S
C213 C209 1.383 . S
C213 C212 1.367 . S
C213 H227 0.950 . S
C214 C211 1.481 . S
C214 C215 1.297 . S
C214 H228 0.950 . S
C215 C214 1.297 . S
C215 C216 1.479 . S
C215 H229 0.950 . S
C216 C215 1.479 . S
C216 C217 1.375 . S
C216 C222 1.404 . S
C217 C216 1.375 . S
C217 C218 1.369 . S
C217 H230 0.950 . S
C218 C217 1.369 . S
C218 C219 1.392 . S
C218 H231 0.951 . S
C219 C218 1.392 . S
C219 C221 1.384 . S
H220 C222 0.949 . S
C221 C219 1.384 . S
C221 C222 1.385 . S
C221 H223 0.950 . S
C222 C216 1.404 . S
C222 H220 0.949 . S
C222 C221 1.385 . S
H223 C221 0.950 . S
H224 C208 0.951 . S
H225 C210 0.951 . S
H226 C212 0.951 . S
H227 C213 0.950 . S
H228 C214 0.950 . S
H229 C215 0.950 . S
H230 C217 0.950 . S
H231 C218 0.951 . S
C232 C233 1.386 . S
C232 C234 1.383 . S
C232 H248 0.951 . S
C233 C232 1.386 . S
C233 C237 1.383 . S
C234 C232 1.383 . S
C234 C235 1.402 . S
C234 H249 0.951 . S
C235 C234 1.402 . S
C235 C236 1.375 . S
C235 C238 1.481 . S
C236 C235 1.375 . S
C236 C237 1.367 . S
C236 H250 0.951 . S
C237 C233 1.383 . S
C237 C236 1.367 . S
C237 H251 0.950 . S
C238 C235 1.481 . S
C238 C239 1.297 . S
C238 H252 0.950 . S
C239 C238 1.297 . S
C239 C240 1.479 . S
C239 H253 0.950 . S
C240 C239 1.479 . S
C240 C241 1.375 . S
C240 C246 1.404 . S
C241 C240 1.375 . S
C241 C242 1.369 . S
C241 H254 0.950 . S
C242 C241 1.369 . S
C242 C243 1.392 . S
C242 H255 0.951 . S
C243 C242 1.392 . S
C243 C245 1.384 . S
H244 C246 0.949 . S
C245 C243 1.384 . S
C245 C246 1.385 . S
C245 H247 0.950 . S
C246 C240 1.404 . S
C246 H244 0.949 . S
C246 C245 1.385 . S
H247 C245 0.950 . S
H248 C232 0.951 . S
H249 C234 0.951 . S
H250 C236 0.951 . S
H251 C237 0.950 . S
H252 C238 0.950 . S
H253 C239 0.950 . S
H254 C241 0.950 . S
H255 C242 0.951 . S
C256 C257 1.386 . S
C256 C258 1.383 . S
C256 H272 0.951 . S
C257 C256 1.386 . S
C257 C261 1.383 . S
C258 C256 1.383 . S
C258 C259 1.402 . S
C258 H273 0.951 . S
C259 C258 1.402 . S
C259 C260 1.375 . S
C259 C262 1.481 . S
C260 C259 1.375 . S
C260 C261 1.367 . S
C260 H274 0.951 . S
C261 C257 1.383 . S
C261 C260 1.367 . S
C261 H275 0.950 . S
C262 C259 1.481 . S
C262 C263 1.297 . S
C262 H276 0.950 . S
C263 C262 1.297 . S
C263 C264 1.479 . S
C263 H277 0.950 . S
C264 C263 1.479 . S
C264 C265 1.375 . S
C264 C270 1.404 . S
C265 C264 1.375 . S
C265 C266 1.369 . S
C265 H278 0.950 . S
C266 C265 1.369 . S
C266 C267 1.392 . S
C266 H279 0.951 . S
C267 C266 1.392 . S
C267 C269 1.384 . S
H268 C270 0.949 . S
C269 C267 1.384 . S
C269 C270 1.385 . S
C269 H271 0.950 . S
C270 C264 1.404 . S
C270 H268 0.949 . S
C270 C269 1.385 . S
H271 C269 0.950 . S
H272 C256 0.951 . S
H273 C258 0.951 . S
H274 C260 0.951 . S
H275 C261 0.950 . S
H276 C262 0.950 . S
H277 C263 0.950 . S
H278 C265 0.950 . S
H279 C266 0.951 . S
C280 C281 1.386 . S
C280 C282 1.383 . S
C280 H296 0.951 . S
C281 C280 1.386 . S
C281 C285 1.383 . S
C282 C280 1.383 . S
C282 C283 1.402 . S
C282 H297 0.951 . S
C283 C282 1.402 . S
C283 C284 1.375 . S
C283 C286 1.481 . S
C284 C283 1.375 . S
C284 C285 1.367 . S
C284 H298 0.951 . S
C285 C281 1.383 . S
C285 C284 1.367 . S
C285 H299 0.950 . S
C286 C283 1.481 . S
C286 C287 1.297 . S
C286 H300 0.950 . S
C287 C286 1.297 . S
C287 C288 1.479 . S
C287 H301 0.950 . S
C288 C287 1.479 . S
C288 C289 1.375 . S
C288 C294 1.404 . S
C289 C288 1.375 . S
C289 C290 1.369 . S
C289 H302 0.950 . S
C290 C289 1.369 . S
C290 C291 1.392 . S
C290 H303 0.951 . S
C291 C290 1.392 . S
C291 C293 1.384 . S
H292 C294 0.949 . S
C293 C291 1.384 . S
C293 C294 1.385 . S
C293 H295 0.950 . S
C294 C288 1.404 . S
C294 H292 0.949 . S
C294 C293 1.385 . S
H295 C293 0.950 . S
H296 C280 0.951 . S
H297 C282 0.951 . S
H298 C284 0.951 . S
H299 C285 0.950 . S
H300 C286 0.950 . S
H301 C287 0.950 . S
H302 C289 0.950 . S
H303 C290 0.951 . S
C304 C305 1.386 . S
C304 C306 1.383 . S
C304 H320 0.951 . S
C305 C304 1.386 . S
C305 C309 1.383 . S
C306 C304 1.383 . S
C306 C307 1.402 . S
C306 H321 0.951 . S
C307 C306 1.402 . S
C307 C308 1.375 . S
C307 C310 1.481 . S
C308 C307 1.375 . S
C308 C309 1.367 . S
C308 H322 0.951 . S
C309 C305 1.383 . S
C309 C308 1.367 . S
C309 H323 0.950 . S
C310 C307 1.481 . S
C310 C311 1.297 1_455 S
C310 H324 0.950 . S
C311 C310 1.297 1_655 S
C311 C312 1.479 . S
C311 H325 0.950 . S
C312 C311 1.479 . S
C312 C313 1.375 . S
C312 C318 1.404 . S
C313 C312 1.375 . S
C313 C314 1.369 . S
C313 H326 0.950 . S
C314 C313 1.369 . S
C314 C315 1.392 . S
C314 H327 0.951 . S
C315 C314 1.392 . S
C315 C317 1.384 . S
H316 C318 0.949 . S
C317 C315 1.384 . S
C317 C318 1.385 . S
C317 H319 0.950 . S
C318 C312 1.404 . S
C318 H316 0.949 . S
C318 C317 1.385 . S
H319 C317 0.950 . S
H320 C304 0.951 . S
H321 C306 0.951 . S
H322 C308 0.951 . S
H323 C309 0.950 . S
H324 C310 0.950 . S
H325 C311 0.950 . S
H326 C313 0.950 . S
H327 C314 0.951 . S
C328 C329 1.386 . S
C328 C330 1.383 . S
C328 H344 0.951 . S
C329 C328 1.386 . S
C329 C333 1.383 . S
C330 C328 1.383 . S
C330 C331 1.402 . S
C330 H345 0.951 . S
C331 C330 1.402 . S
C331 C332 1.375 . S
C331 C334 1.481 . S
C332 C331 1.375 . S
C332 C333 1.367 . S
C332 H346 0.951 . S
C333 C329 1.383 . S
C333 C332 1.367 . S
C333 H347 0.950 . S
C334 C331 1.481 . S
C334 C335 1.297 . S
C334 H348 0.950 . S
C335 C334 1.297 . S
C335 C336 1.479 . S
C335 H349 0.950 . S
C336 C335 1.479 . S
C336 C337 1.375 . S
C336 C342 1.404 . S
C337 C336 1.375 . S
C337 C338 1.369 . S
C337 H350 0.950 . S
C338 C337 1.369 . S
C338 C339 1.392 . S
C338 H351 0.951 . S
C339 C338 1.392 . S
C339 C341 1.384 . S
H340 C342 0.949 . S
C341 C339 1.384 . S
C341 C342 1.385 . S
C341 H343 0.950 . S
C342 C336 1.404 . S
C342 H340 0.949 . S
C342 C341 1.385 . S
H343 C341 0.950 . S
H344 C328 0.951 . S
H345 C330 0.951 . S
H346 C332 0.951 . S
H347 C333 0.950 . S
H348 C334 0.950 . S
H349 C335 0.950 . S
H350 C337 0.950 . S
H351 C338 0.951 . S
C352 C353 1.386 . S
C352 C354 1.383 . S
C352 H368 0.951 . S
C353 C352 1.386 . S
C353 C357 1.383 . S
C354 C352 1.383 . S
C354 C355 1.402 . S
C354 H369 0.951 . S
C355 C354 1.402 . S
C355 C356 1.375 . S
C355 C358 1.481 . S
C356 C355 1.375 . S
C356 C357 1.367 . S
C356 H370 0.951 . S
C357 C353 1.383 . S
C357 C356 1.367 . S
C357 H371 0.950 . S
C358 C355 1.481 . S
C358 C359 1.297 1_455 S
C358 H372 0.950 1_455 S
C359 C358 1.297 1_655 S
C359 C360 1.479 . S
C359 H373 0.950 1_655 S
C360 C359 1.479 . S
C360 C361 1.375 . S
C360 C366 1.404 . S
C361 C360 1.375 . S
C361 C362 1.369 . S
C361 H374 0.950 . S
C362 C361 1.369 . S
C362 C363 1.392 . S
C362 H375 0.951 . S
C363 C362 1.392 . S
C363 C365 1.384 . S
H364 C366 0.949 . S
C365 C363 1.384 . S
C365 C366 1.385 . S
C365 H367 0.950 . S
C366 C360 1.404 . S
C366 H364 0.949 . S
C366 C365 1.385 . S
H367 C365 0.950 . S
H368 C352 0.951 . S
H369 C354 0.951 . S
H370 C356 0.951 . S
H371 C357 0.950 . S
H372 C358 0.950 1_655 S
H373 C359 0.950 1_455 S
H374 C361 0.950 . S
H375 C362 0.951 . S
C376 C377 1.386 . S
C376 C378 1.383 . S
C376 H392 0.951 . S
C377 C376 1.386 . S
C377 C381 1.383 . S
C378 C376 1.383 . S
C378 C379 1.402 . S
C378 H393 0.951 . S
C379 C378 1.402 . S
C379 C380 1.375 . S
C379 C382 1.481 . S
C380 C379 1.375 . S
C380 C381 1.367 . S
C380 H394 0.951 . S
C381 C377 1.383 . S
C381 C380 1.367 . S
C381 H395 0.950 . S
C382 C379 1.481 . S
C382 C383 1.297 . S
C382 H396 0.950 . S
C383 C382 1.297 . S
C383 C384 1.479 . S
C383 H397 0.950 . S
C384 C383 1.479 . S
C384 C385 1.375 . S
C384 C390 1.404 . S
C385 C384 1.375 . S
C385 C386 1.369 . S
C385 H398 0.950 . S
C386 C385 1.369 . S
C386 C387 1.392 . S
C386 H399 0.951 . S
C387 C386 1.392 . S
C387 C389 1.384 . S
H388 C390 0.949 . S
C389 C387 1.384 . S
C389 C390 1.385 . S
C389 H391 0.950 . S
C390 C384 1.404 . S
C390 H388 0.949 . S
C390 C389 1.385 . S
H391 C389 0.950 . S
H392 C376 0.951 . S
H393 C378 0.951 . S
H394 C380 0.951 . S
H395 C381 0.950 . S
H396 C382 0.950 . S
H397 C383 0.950 . S
H398 C385 0.950 . S
H399 C386 0.951 . S
C400 C401 1.386 . S
C400 C402 1.383 . S
C400 H416 0.951 . S
C401 C400 1.386 . S
C401 C405 1.383 . S
C402 C400 1.383 . S
C402 C403 1.402 1_554 S
C402 H417 0.951 . S
C403 C402 1.402 1_556 S
C403 C404 1.375 . S
C403 C406 1.481 1_545 S
C404 C403 1.375 . S
C404 C405 1.367 1_556 S
C404 H418 0.951 . S
C405 C401 1.383 . S
C405 C404 1.367 1_554 S
C405 H419 0.950 . S
C406 C403 1.481 1_565 S
C406 C407 1.297 1_465 S
C406 H420 0.950 . S
C407 C406 1.297 1_645 S
C407 C408 1.479 1_545 S
C407 H421 0.950 . S
C408 C407 1.479 1_565 S
C408 C409 1.375 . S
C408 C414 1.404 . S
C409 C408 1.375 . S
C409 C410 1.369 . S
C409 H422 0.953 . S
C410 C409 1.369 . S
C410 C411 1.392 . S
C410 H423 0.951 . S
C411 C410 1.392 . S
C411 C413 1.384 . S
H412 C414 0.949 . S
C413 C411 1.384 . S
C413 C414 1.385 . S
C413 H415 0.950 . S
C414 C408 1.404 . S
C414 H412 0.949 . S
C414 C413 1.385 . S
H415 C413 0.950 . S
H416 C400 0.951 . S
H417 C402 0.951 . S
H418 C404 0.951 . S
H419 C405 0.950 . S
H420 C406 0.950 . S
H421 C407 0.950 . S
H422 C409 0.953 . S
H423 C410 0.951 . S
C424 C425 1.386 . S
C424 C426 1.383 . S
C424 H440 0.951 . S
C425 C424 1.386 . S
C425 C429 1.383 . S
C426 C424 1.383 . S
C426 C427 1.402 . S
C426 H441 0.951 . S
C427 C426 1.402 . S
C427 C428 1.375 . S
C427 C430 1.481 . S
C428 C427 1.375 . S
C428 C429 1.367 . S
C428 H442 0.951 . S
C429 C425 1.383 . S
C429 C428 1.367 . S
C429 H443 0.950 . S
C430 C427 1.481 . S
C430 C431 1.297 . S
C430 H444 0.950 . S
C431 C430 1.297 . S
C431 C432 1.479 . S
C431 H445 0.950 . S
C432 C431 1.479 . S
C432 C433 1.375 . S
C432 C438 1.404 . S
C433 C432 1.375 . S
C433 C434 1.369 . S
C433 H446 0.950 . S
C434 C433 1.369 . S
C434 C435 1.392 . S
C434 H447 0.951 . S
C435 C434 1.392 . S
C435 C437 1.384 . S
H436 C438 0.949 . S
C437 C435 1.384 . S
C437 C438 1.385 . S
C437 H439 0.950 . S
C438 C432 1.404 . S
C438 H436 0.949 . S
C438 C437 1.385 . S
H439 C437 0.950 . S
H440 C424 0.951 . S
H441 C426 0.951 . S
H442 C428 0.951 . S
H443 C429 0.950 . S
H444 C430 0.950 . S
H445 C431 0.950 . S
H446 C433 0.950 . S
H447 C434 0.951 . S
C448 C449 1.386 1_556 S
C448 C450 1.383 . S
C448 H464 0.951 . S
C449 C448 1.386 1_554 S
C449 C453 1.383 . S
C450 C448 1.383 . S
C450 C451 1.402 1_556 S
C450 H465 0.951 . S
C451 C450 1.402 1_554 S
C451 C452 1.375 . S
C451 C454 1.481 . S
C452 C451 1.375 . S
C452 C453 1.367 . S
C452 H466 0.951 . S
C453 C449 1.383 . S
C453 C452 1.367 . S
C453 H467 0.950 . S
C454 C451 1.481 . S
C454 C455 1.297 1_554 S
C454 H468 0.950 . S
C455 C454 1.297 1_556 S
C455 C456 1.479 . S
C455 H469 0.950 . S
C456 C455 1.479 . S
C456 C457 1.375 . S
C456 C462 1.404 1_556 S
C457 C456 1.375 . S
C457 C458 1.369 . S
C457 H470 0.950 . S
C458 C457 1.369 . S
C458 C459 1.392 . S
C458 H471 0.951 . S
C459 C458 1.392 . S
C459 C461 1.384 1_556 S
H460 C462 0.949 . S
C461 C459 1.384 1_554 S
C461 C462 1.385 . S
C461 H463 0.950 . S
C462 C456 1.404 1_554 S
C462 H460 0.949 . S
C462 C461 1.385 . S
H463 C461 0.950 . S
H464 C448 0.951 . S
H465 C450 0.951 . S
H466 C452 0.951 . S
H467 C453 0.950 . S
H468 C454 0.950 . S
H469 C455 0.950 . S
H470 C457 0.950 . S
H471 C458 0.951 . S
C472 C473 1.386 . S
C472 C474 1.383 . S
C472 H488 0.951 . S
C473 C472 1.386 . S
C473 C477 1.383 . S
C474 C472 1.383 . S
C474 C475 1.402 . S
C474 H489 0.951 . S
C475 C474 1.402 . S
C475 C476 1.375 . S
C475 C478 1.481 1_455 S
C476 C475 1.375 . S
C476 C477 1.367 . S
C476 H490 0.951 . S
C477 C473 1.383 . S
C477 C476 1.367 . S
C477 H491 0.950 . S
C478 C475 1.481 1_655 S
C478 C479 1.297 . S
C478 H492 0.950 . S
C479 C478 1.297 . S
C479 C480 1.479 1_565 S
C479 H493 0.950 . S
C480 C479 1.479 1_545 S
C480 C481 1.375 . S
C480 C486 1.404 . S
C481 C480 1.375 . S
C481 C482 1.369 . S
C481 H494 0.950 . S
C482 C481 1.369 . S
C482 C483 1.392 . S
C482 H495 0.951 . S
C483 C482 1.392 . S
C483 C485 1.384 . S
H484 C486 0.949 . S
C485 C483 1.384 . S
C485 C486 1.385 . S
C485 H487 0.950 . S
C486 C480 1.404 . S
C486 H484 0.949 . S
C486 C485 1.385 . S
H487 C485 0.950 . S
H488 C472 0.951 . S
H489 C474 0.951 . S
H490 C476 0.951 . S
H491 C477 0.950 . S
H492 C478 0.950 . S
H493 C479 0.950 . S
H494 C481 0.950 . S
H495 C482 0.951 . S
C113 C14 2.038 . S
C123 C13 2.067 1_556 S
C137 C0 2.030 . S
C147 C27 2.080 . S
C161 C42 2.055 . S
C171 C41 2.055 1_554 S
C185 C28 2.048 . S
C195 C55 2.066 . S
C209 C68 2.071 1_554 S
C219 C71 2.034 . S
C233 C82 2.077 . S
C243 C57 2.057 . S
C257 C96 2.071 1_556 S
C267 C99 2.028 . S
C281 C85 2.052 . S
C291 C110 2.061 . S
C305 C12 0.515 . S
C315 C54 0.436 . S
C329 C26 0.515 . S
C339 C40 0.435 . S
C353 C111 0.447 . S
C363 C69 0.514 . S
C377 C97 0.506 . S
C387 C83 0.424 . S
C401 C1 1.813 . S
C411 C56 1.760 . S
C425 C70 1.831 . S
C435 C15 1.775 . S
C449 C84 1.808 . S
C459 C29 1.763 . S
C473 C98 1.809 . S
C483 C43 1.762 . S
