# Generated by pormake.
# Topology whk, (6)-cn, num edge types: 1
# Building blocks:
#     Node 0, Type 0, BuildingBlock: BETDEL_clean_sbu_0, # of connection points: 6
#     Node 1, Type 0, BuildingBlock: BETDEL_clean_sbu_0, # of connection points: 6
#     Node 2, Type 0, BuildingBlock: BETDEL_clean_sbu_0, # of connection points: 6
#     Node 3, Type 0, BuildingBlock: BETDEL_clean_sbu_0, # of connection points: 6
#     Node 4, Type 0, BuildingBlock: BETDEL_clean_sbu_0, # of connection points: 6
#     Node 5, Type 0, BuildingBlock: BETDEL_clean_sbu_0, # of connection points: 6
#     Node 6, Type 0, BuildingBlock: BETDEL_clean_sbu_0, # of connection points: 6
#     Node 7, Type 0, BuildingBlock: BETDEL_clean_sbu_0, # of connection points: 6
#     Node 8, Type 0, BuildingBlock: BETDEL_clean_sbu_0, # of connection points: 6
#     Node 9, Type 0, BuildingBlock: BETDEL_clean_sbu_0, # of connection points: 6
#     Node 10, Type 0, BuildingBlock: BETDEL_clean_sbu_0, # of connection points: 6
#     Node 11, Type 0, BuildingBlock: BETDEL_clean_sbu_0, # of connection points: 6
#     Node 12, Type 0, BuildingBlock: BETDEL_clean_sbu_0, # of connection points: 6
#     Node 13, Type 0, BuildingBlock: BETDEL_clean_sbu_0, # of connection points: 6
#     Node 14, Type 0, BuildingBlock: BETDEL_clean_sbu_0, # of connection points: 6
#     Node 15, Type 0, BuildingBlock: BETDEL_clean_sbu_0, # of connection points: 6
#     Edge 16, Type (0, 0), BuildingBlock: AJUNOK_clean_linker_0, # of connection points: 2
#     Edge 17, Type (0, 0), BuildingBlock: AJUNOK_clean_linker_0, # of connection points: 2
#     Edge 18, Type (0, 0), BuildingBlock: AJUNOK_clean_linker_0, # of connection points: 2
#     Edge 19, Type (0, 0), BuildingBlock: AJUNOK_clean_linker_0, # of connection points: 2
#     Edge 20, Type (0, 0), BuildingBlock: AJUNOK_clean_linker_0, # of connection points: 2
#     Edge 21, Type (0, 0), BuildingBlock: AJUNOK_clean_linker_0, # of connection points: 2
#     Edge 22, Type (0, 0), BuildingBlock: AJUNOK_clean_linker_0, # of connection points: 2
#     Edge 23, Type (0, 0), BuildingBlock: AJUNOK_clean_linker_0, # of connection points: 2
#     Edge 24, Type (0, 0), BuildingBlock: AJUNOK_clean_linker_0, # of connection points: 2
#     Edge 25, Type (0, 0), BuildingBlock: AJUNOK_clean_linker_0, # of connection points: 2
#     Edge 26, Type (0, 0), BuildingBlock: AJUNOK_clean_linker_0, # of connection points: 2
#     Edge 27, Type (0, 0), BuildingBlock: AJUNOK_clean_linker_0, # of connection points: 2
#     Edge 28, Type (0, 0), BuildingBlock: AJUNOK_clean_linker_0, # of connection points: 2
#     Edge 29, Type (0, 0), BuildingBlock: AJUNOK_clean_linker_0, # of connection points: 2
#     Edge 30, Type (0, 0), BuildingBlock: AJUNOK_clean_linker_0, # of connection points: 2
#     Edge 31, Type (0, 0), BuildingBlock: AJUNOK_clean_linker_0, # of connection points: 2
#     Edge 32, Type (0, 0), BuildingBlock: AJUNOK_clean_linker_0, # of connection points: 2
#     Edge 33, Type (0, 0), BuildingBlock: AJUNOK_clean_linker_0, # of connection points: 2
#     Edge 34, Type (0, 0), BuildingBlock: AJUNOK_clean_linker_0, # of connection points: 2
#     Edge 35, Type (0, 0), BuildingBlock: AJUNOK_clean_linker_0, # of connection points: 2
#     Edge 36, Type (0, 0), BuildingBlock: AJUNOK_clean_linker_0, # of connection points: 2
#     Edge 37, Type (0, 0), BuildingBlock: AJUNOK_clean_linker_0, # of connection points: 2
#     Edge 38, Type (0, 0), BuildingBlock: AJUNOK_clean_linker_0, # of connection points: 2
#     Edge 39, Type (0, 0), BuildingBlock: AJUNOK_clean_linker_0, # of connection points: 2
#     Edge 40, Type (0, 0), BuildingBlock: AJUNOK_clean_linker_0, # of connection points: 2
#     Edge 41, Type (0, 0), BuildingBlock: AJUNOK_clean_linker_0, # of connection points: 2
#     Edge 42, Type (0, 0), BuildingBlock: AJUNOK_clean_linker_0, # of connection points: 2
#     Edge 43, Type (0, 0), BuildingBlock: AJUNOK_clean_linker_0, # of connection points: 2
#     Edge 44, Type (0, 0), BuildingBlock: AJUNOK_clean_linker_0, # of connection points: 2
#     Edge 45, Type (0, 0), BuildingBlock: AJUNOK_clean_linker_0, # of connection points: 2
#     Edge 46, Type (0, 0), BuildingBlock: AJUNOK_clean_linker_0, # of connection points: 2
#     Edge 47, Type (0, 0), BuildingBlock: AJUNOK_clean_linker_0, # of connection points: 2
#     Edge 48, Type (0, 0), BuildingBlock: AJUNOK_clean_linker_0, # of connection points: 2
#     Edge 49, Type (0, 0), BuildingBlock: AJUNOK_clean_linker_0, # of connection points: 2
#     Edge 50, Type (0, 0), BuildingBlock: AJUNOK_clean_linker_0, # of connection points: 2
#     Edge 51, Type (0, 0), BuildingBlock: AJUNOK_clean_linker_0, # of connection points: 2
#     Edge 52, Type (0, 0), BuildingBlock: AJUNOK_clean_linker_0, # of connection points: 2
#     Edge 53, Type (0, 0), BuildingBlock: AJUNOK_clean_linker_0, # of connection points: 2
#     Edge 54, Type (0, 0), BuildingBlock: AJUNOK_clean_linker_0, # of connection points: 2
#     Edge 55, Type (0, 0), BuildingBlock: AJUNOK_clean_linker_0, # of connection points: 2
#     Edge 56, Type (0, 0), BuildingBlock: AJUNOK_clean_linker_0, # of connection points: 2
#     Edge 57, Type (0, 0), BuildingBlock: AJUNOK_clean_linker_0, # of connection points: 2
#     Edge 58, Type (0, 0), BuildingBlock: AJUNOK_clean_linker_0, # of connection points: 2
#     Edge 59, Type (0, 0), BuildingBlock: AJUNOK_clean_linker_0, # of connection points: 2
#     Edge 60, Type (0, 0), BuildingBlock: AJUNOK_clean_linker_0, # of connection points: 2
#     Edge 61, Type (0, 0), BuildingBlock: AJUNOK_clean_linker_0, # of connection points: 2
#     Edge 62, Type (0, 0), BuildingBlock: AJUNOK_clean_linker_0, # of connection points: 2
#     Edge 63, Type (0, 0), BuildingBlock: AJUNOK_clean_linker_0, # of connection points: 2
# Relax obj value: 0.473
# Max RMSD: 0.291
# Mean RMSD: 0.291
data_MOF--net-whk--node1-BETDEL_clean_sbu_0--edge1-AJUNOK_clean_linker_0
_symmetry_space_group_name_H-M    P1
_symmetry_Int_Tables_number       1
_symmetry_cell_setting            triclinic
loop_
_symmetry_equiv_pos_as_xyz
'x, y, z'
_cell_length_a     29.227208
_cell_length_b     29.196425
_cell_length_c     29.603956
_cell_angle_alpha  89.805295
_cell_angle_beta   89.999634
_cell_angle_gamma 90.000044
loop_
_atom_site_label
_atom_site_type_symbol
_atom_site_fract_x
_atom_site_fract_y
_atom_site_fract_z
_atom_type_partial_charge
Dy0 Dy 0.59441 0.21946 0.40409 0.0
C1 C 0.4431 0.11916 0.44771 0.0
C2 C 0.67359 0.23827 0.36186 0.0
Dy3 Dy 0.52144 0.16873 0.45839 0.0
O4 O 0.65057 0.20092 0.35811 0.0
O5 O 0.65259 0.26714 0.38814 0.0
O6 O 0.55375 0.19686 0.34413 0.0
O7 O 0.56287 0.15199 0.39803 0.0
C8 C 0.55023 0.15436 0.35701 0.0
C9 C 0.5573 0.23521 0.51035 0.0
O10 O 0.58285 0.12681 0.48058 0.0
O11 O 0.63625 0.17973 0.45418 0.0
O12 O 0.46578 0.12232 0.48582 0.0
O13 O 0.46358 0.14262 0.41633 0.0
O14 O 0.5245 0.20829 0.5249 0.0
O15 O 0.56687 0.22405 0.47041 0.0
O16 O 0.54632 0.2783 0.40927 0.0
O17 O 0.48537 0.23432 0.43546 0.0
C18 C 0.62593 0.14191 0.47703 0.0
C19 C 0.50323 0.27436 0.42262 0.0
Dy20 Dy 0.29263 0.58711 0.40552 0.0
C21 C 0.39474 0.43877 0.45818 0.0
C22 C 0.26992 0.66316 0.35847 0.0
Dy23 Dy 0.34414 0.51739 0.46438 0.0
O24 O 0.24314 0.64329 0.38773 0.0
O25 O 0.30777 0.64084 0.35485 0.0
O26 O 0.31685 0.54389 0.34812 0.0
O27 O 0.36042 0.5564 0.40193 0.0
C28 C 0.35931 0.54289 0.36119 0.0
C29 C 0.27667 0.55592 0.51377 0.0
O30 O 0.38492 0.58003 0.48367 0.0
O31 O 0.33349 0.63221 0.45222 0.0
O32 O 0.39907 0.46904 0.49055 0.0
O33 O 0.36287 0.45157 0.43026 0.0
O34 O 0.30394 0.52438 0.53055 0.0
O35 O 0.28826 0.56298 0.47335 0.0
O36 O 0.2355 0.53675 0.41085 0.0
O37 O 0.27875 0.4796 0.44568 0.0
C38 C 0.37025 0.62287 0.47709 0.0
C39 C 0.23946 0.49527 0.4288 0.0
Dy40 Dy 0.93137 0.29042 0.40651 0.0
C41 C 0.06803 0.39601 0.45723 0.0
C42 C 0.86379 0.2484 0.35983 0.0
Dy43 Dy 0.99138 0.34201 0.46095 0.0
O44 O 0.89084 0.27924 0.34385 0.0
O45 O 0.87407 0.2401 0.40167 0.0
O46 O 0.96783 0.32131 0.34737 0.0
O47 O 0.94982 0.3626 0.40144 0.0
C48 C 0.96276 0.3633 0.36046 0.0
C49 C 0.94986 0.2764 0.51024 0.0
O50 O 0.92915 0.3825 0.48041 0.0
O51 O 0.87994 0.32947 0.44907 0.0
O52 O 0.04896 0.38168 0.49479 0.0
O53 O 0.04462 0.38153 0.42293 0.0
O54 O 0.96278 0.31573 0.52726 0.0
O55 O 0.9642 0.27296 0.47004 0.0
O56 O 0.98774 0.23911 0.40116 0.0
O57 O 0.03818 0.28187 0.443 0.0
C58 C 0.88701 0.3668 0.47369 0.0
C59 C 0.02861 0.24446 0.41932 0.0
Dy60 Dy 0.22332 0.92659 0.404 0.0
C61 C 0.12345 0.07065 0.44734 0.0
C62 C 0.26303 0.85438 0.36244 0.0
Dy63 Dy 0.17285 0.99128 0.45588 0.0
O64 O 0.23733 0.88436 0.34293 0.0
O65 O 0.26783 0.86441 0.4048 0.0
O66 O 0.19311 0.96084 0.3432 0.0
O67 O 0.15181 0.94732 0.39849 0.0
C68 C 0.1511 0.95818 0.35692 0.0
C69 C 0.23737 0.94964 0.50663 0.0
O70 O 0.13 0.93152 0.47725 0.0
O71 O 0.18134 0.87884 0.44844 0.0
O72 O 0.13433 0.05171 0.48614 0.0
O73 O 0.13866 0.04554 0.41456 0.0
O74 O 0.19898 0.96531 0.52354 0.0
O75 O 0.2407 0.96196 0.46581 0.0
O76 O 0.27691 0.98135 0.39818 0.0
O77 O 0.23374 0.03523 0.43527 0.0
C78 C 0.14438 0.88862 0.47279 0.0
C79 C 0.27175 0.02341 0.41372 0.0
Dy80 Dy 0.09733 0.77811 0.16273 0.0
C81 C 0.94379 0.89654 0.13641 0.0
C82 C 0.1728 0.72527 0.16528 0.0
Dy83 Dy 0.01859 0.84168 0.12593 0.0
O84 O 0.14503 0.73141 0.19898 0.0
O85 O 0.15557 0.74413 0.12955 0.0
O86 O 0.10344 0.80501 0.23334 0.0
O87 O 0.05552 0.8333 0.18959 0.0
C88 C 0.07324 0.83716 0.22864 0.0
C89 C 0.05091 0.77852 0.06741 0.0
O90 O 0.08091 0.88655 0.11075 0.0
O91 O 0.13851 0.836 0.13486 0.0
O92 O 0.97279 0.89997 0.10281 0.0
O93 O 0.9564 0.86421 0.1639 0.0
O94 O 0.00979 0.79581 0.06371 0.0
O95 O 0.07165 0.79976 0.09801 0.0
O96 O 0.04239 0.72704 0.15761 0.0
O97 O 0.98114 0.77554 0.14232 0.0
C98 C 0.12512 0.87525 0.11631 0.0
C99 C 0.99876 0.73407 0.14922 0.0
Dy100 Dy 0.71507 0.08555 0.18065 0.0
C101 C 0.62549 0.93633 0.13701 0.0
C102 C 0.74058 0.16274 0.22255 0.0
Dy103 Dy 0.67102 0.01654 0.12404 0.0
O104 O 0.69947 0.1469 0.22113 0.0
O105 O 0.7685 0.13426 0.20343 0.0
O106 O 0.68959 0.04411 0.23891 0.0
O107 O 0.64708 0.056 0.1838 0.0
C108 C 0.64741 0.04392 0.22513 0.0
C109 C 0.73909 0.05204 0.07346 0.0
O110 O 0.62833 0.0768 0.09989 0.0
O111 O 0.67828 0.13016 0.1302 0.0
O112 O 0.62736 0.958 0.09809 0.0
O113 O 0.64816 0.95859 0.16754 0.0
O114 O 0.71148 0.02023 0.05826 0.0
O115 O 0.72783 0.06235 0.11336 0.0
O116 O 0.77513 0.03945 0.1794 0.0
O117 O 0.73562 0.97945 0.14729 0.0
C118 C 0.64222 0.12013 0.10476 0.0
C119 C 0.77381 0.99722 0.16412 0.0
Dy120 Dy 0.43047 0.72571 0.17854 0.0
C121 C 0.56835 0.61593 0.13836 0.0
C122 C 0.35587 0.77635 0.19838 0.0
Dy123 Dy 0.49234 0.66872 0.12953 0.0
O124 O 0.37452 0.74632 0.22491 0.0
O125 O 0.38337 0.78368 0.16496 0.0
O126 O 0.45649 0.69635 0.24332 0.0
O127 O 0.44696 0.65323 0.18779 0.0
C128 C 0.45677 0.65408 0.22967 0.0
C129 C 0.45601 0.73459 0.07736 0.0
O130 O 0.43096 0.62895 0.10785 0.0
O131 O 0.38145 0.68446 0.13438 0.0
O132 O 0.55138 0.62902 0.09947 0.0
O133 O 0.54291 0.63039 0.1712 0.0
O134 O 0.4675 0.69448 0.06121 0.0
O135 O 0.46901 0.73774 0.11779 0.0
O136 O 0.48983 0.77202 0.19037 0.0
O137 O 0.53925 0.728 0.14845 0.0
C138 C 0.38912 0.64625 0.11115 0.0
C139 C 0.53065 0.76524 0.17266 0.0
Dy140 Dy 0.78819 0.42801 0.16893 0.0
C141 C 0.88761 0.57221 0.12213 0.0
C142 C 0.73935 0.35291 0.18925 0.0
Dy143 Dy 0.83962 0.4926 0.12218 0.0
O144 O 0.75843 0.3793 0.21878 0.0
O145 O 0.74526 0.36915 0.14904 0.0
O146 O 0.81217 0.45511 0.23496 0.0
O147 O 0.85903 0.44975 0.18182 0.0
C148 C 0.85494 0.45845 0.22381 0.0
C149 C 0.77492 0.45529 0.06819 0.0
O150 O 0.88613 0.43453 0.10393 0.0
O151 O 0.83607 0.38048 0.13143 0.0
O152 O 0.88684 0.54352 0.08843 0.0
O153 O 0.86318 0.55699 0.15539 0.0
O154 O 0.81438 0.46948 0.05292 0.0
O155 O 0.77133 0.46643 0.10896 0.0
O156 O 0.73639 0.48265 0.17868 0.0
O157 O 0.77993 0.53761 0.14375 0.0
C158 C 0.87389 0.39121 0.1092 0.0
C159 C 0.74223 0.52533 0.16556 0.0
Dy160 Dy 0.49185 0.83875 0.62911 0.0
C161 C 0.35162 0.74574 0.71777 0.0
C162 C 0.56964 0.89033 0.63792 0.0
Dy163 Dy 0.42507 0.78611 0.67832 0.0
O164 O 0.55271 0.87677 0.59924 0.0
O165 O 0.54338 0.87672 0.67059 0.0
O166 O 0.46808 0.81463 0.56056 0.0
O167 O 0.46311 0.77118 0.61748 0.0
C168 C 0.45229 0.77578 0.57648 0.0
C169 C 0.45863 0.85569 0.72766 0.0
O170 O 0.47936 0.73234 0.68367 0.0
O171 O 0.53506 0.77707 0.65058 0.0
O172 O 0.38032 0.77239 0.7378 0.0
O173 O 0.36394 0.74003 0.67606 0.0
O174 O 0.459 0.81321 0.74042 0.0
O175 O 0.44704 0.85703 0.68639 0.0
O176 O 0.43181 0.88077 0.60583 0.0
O177 O 0.37857 0.82902 0.63355 0.0
C178 C 0.52221 0.73821 0.67051 0.0
C179 C 0.38885 0.86613 0.60944 0.0
Dy180 Dy 0.67033 0.49029 0.62402 0.0
C181 C 0.76671 0.35096 0.70901 0.0
C182 C 0.61825 0.56711 0.63566 0.0
Dy183 Dy 0.72513 0.42523 0.67193 0.0
O184 O 0.63029 0.5509 0.59616 0.0
O185 O 0.63389 0.54088 0.6675 0.0
O186 O 0.6938 0.46653 0.5549 0.0
O187 O 0.73841 0.4635 0.61081 0.0
C188 C 0.73341 0.45207 0.57006 0.0
C189 C 0.65378 0.45457 0.7224 0.0
O190 O 0.7783 0.48022 0.67538 0.0
O191 O 0.73111 0.53513 0.64463 0.0
O192 O 0.74788 0.38386 0.73128 0.0
O193 O 0.76488 0.36032 0.66622 0.0
O194 O 0.69607 0.45556 0.73525 0.0
O195 O 0.65321 0.44393 0.68094 0.0
O196 O 0.62761 0.42975 0.60388 0.0
O197 O 0.68381 0.37863 0.62621 0.0
C198 C 0.77094 0.5231 0.66294 0.0
C199 C 0.64461 0.38759 0.60523 0.0
Dy200 Dy 0.02025 0.67205 0.62474 0.0
C201 C 0.16137 0.76094 0.7145 0.0
C202 C 0.94158 0.62155 0.63173 0.0
Dy203 Dy 0.08652 0.72385 0.67422 0.0
O204 O 0.9597 0.63493 0.59343 0.0
O205 O 0.96712 0.63476 0.66501 0.0
O206 O 0.04466 0.69751 0.55635 0.0
O207 O 0.04852 0.74007 0.61351 0.0
C208 C 0.05961 0.73647 0.57248 0.0
C209 C 0.05259 0.65408 0.72342 0.0
O210 O 0.03332 0.77791 0.68042 0.0
O211 O 0.97717 0.73325 0.6484 0.0
O212 O 0.12941 0.73847 0.73478 0.0
O213 O 0.151 0.76485 0.67205 0.0
O214 O 0.05222 0.69647 0.73594 0.0
O215 O 0.06461 0.65263 0.68226 0.0
O216 O 0.0803 0.62823 0.60447 0.0
O217 O 0.1323 0.68301 0.62765 0.0
C218 C 0.99022 0.77191 0.66847 0.0
C219 C 0.12276 0.64434 0.60623 0.0
Dy220 Dy 0.8399 0.02079 0.63294 0.0
C221 C 0.74239 0.16133 0.71426 0.0
C222 C 0.89307 0.94398 0.64109 0.0
Dy223 Dy 0.78543 0.08678 0.67974 0.0
O224 O 0.87688 0.95958 0.60282 0.0
O225 O 0.88117 0.97102 0.67367 0.0
O226 O 0.81657 0.04391 0.5637 0.0
O227 O 0.77182 0.04759 0.61949 0.0
C228 C 0.7769 0.05831 0.57855 0.0
C229 C 0.8552 0.05641 0.73155 0.0
O230 O 0.73216 0.03176 0.6839 0.0
O231 O 0.77971 0.97612 0.65544 0.0
O232 O 0.76378 0.13056 0.73749 0.0
O233 O 0.74291 0.14982 0.67202 0.0
O234 O 0.81264 0.05617 0.74372 0.0
O235 O 0.85689 0.06683 0.68991 0.0
O236 O 0.88132 0.08097 0.60893 0.0
O237 O 0.82878 0.13366 0.63557 0.0
C238 C 0.73962 0.98858 0.67278 0.0
C239 C 0.86617 0.1238 0.61193 0.0
Dy240 Dy 0.99594 0.16978 0.96519 0.0
C241 C 0.86251 0.28219 0.89342 0.0
C242 C 0.0712 0.11623 0.95329 0.0
Dy243 Dy 0.93369 0.22826 0.91727 0.0
O244 O 0.05509 0.128 0.99291 0.0
O245 O 0.04552 0.13267 0.92145 0.0
O246 O 0.97343 0.19671 1.03405 0.0
O247 O 0.97373 0.23912 0.97682 0.0
C248 C 0.96208 0.2369 1.01761 0.0
C249 C 0.95918 0.15748 0.8652 0.0
O250 O 0.993 0.27531 0.90734 0.0
O251 O 0.04358 0.22906 0.94562 0.0
O252 O 0.88582 0.25692 0.8659 0.0
O253 O 0.88024 0.27936 0.93336 0.0
O254 O 0.95959 0.19997 0.85233 0.0
O255 O 0.94954 0.15586 0.90713 0.0
O256 O 0.93395 0.12916 0.98595 0.0
O257 O 0.88466 0.18533 0.95998 0.0
C258 C 0.03445 0.26761 0.9232 0.0
C259 C 0.89198 0.14632 0.98237 0.0
Dy260 Dy 0.34113 0.99013 0.96054 0.0
C261 C 0.24601 0.85116 0.87377 0.0
C262 C 0.3945 0.0668 0.95356 0.0
Dy263 Dy 0.28807 0.92374 0.91298 0.0
O264 O 0.37825 0.05068 0.99158 0.0
O265 O 0.38255 0.0404 0.92053 0.0
O266 O 0.31694 0.96812 1.02965 0.0
O267 O 0.27291 0.9628 0.97342 0.0
C268 C 0.27752 0.95307 1.01478 0.0
C269 C 0.35744 0.95632 0.86232 0.0
O270 O 0.23449 0.97771 0.90835 0.0
O271 O 0.28126 0.03426 0.93633 0.0
O272 O 0.26794 0.883 0.85264 0.0
O273 O 0.24619 0.85977 0.91673 0.0
O274 O 0.31497 0.95649 0.85007 0.0
O275 O 0.35926 0.94485 0.90365 0.0
O276 O 0.38285 0.92976 0.98353 0.0
O277 O 0.33077 0.8767 0.95684 0.0
C278 C 0.2417 0.02112 0.91836 0.0
C279 C 0.36814 0.88683 0.98025 0.0
Dy280 Dy 0.51694 0.34065 0.95695 0.0
C281 C 0.67335 0.24849 0.88672 0.0
C282 C 0.44009 0.39222 0.94474 0.0
Dy283 Dy 0.59104 0.2837 0.90712 0.0
O284 O 0.45986 0.38534 0.98388 0.0
O285 O 0.46269 0.37148 0.91304 0.0
O286 O 0.51995 0.30189 1.02517 0.0
O287 O 0.5576 0.28259 0.96975 0.0
C288 C 0.54915 0.27163 1.00978 0.0
C289 C 0.55299 0.34933 0.85545 0.0
O290 O 0.53748 0.22954 0.90927 0.0
O291 O 0.47849 0.27702 0.93417 0.0
O292 O 0.64752 0.27067 0.85863 0.0
O293 O 0.6511 0.24056 0.9238 0.0
O294 O 0.55849 0.30692 0.84304 0.0
O295 O 0.56268 0.35223 0.89736 0.0
O296 O 0.57705 0.3829 0.97973 0.0
O297 O 0.63245 0.33574 0.94683 0.0
C298 C 0.49424 0.23635 0.92097 0.0
C299 C 0.62056 0.37159 0.972 0.0
Dy300 Dy 0.17095 0.52372 0.95986 0.0
C301 C 0.25891 0.66143 0.86387 0.0
C302 C 0.12379 0.44298 0.95367 0.0
Dy303 Dy 0.2218 0.58819 0.90706 0.0
O304 O 0.13469 0.46275 0.9919 0.0
O305 O 0.13724 0.46823 0.92012 0.0
O306 O 0.19639 0.55123 1.02695 0.0
O307 O 0.23874 0.55327 0.96949 0.0
C308 C 0.23508 0.56616 1.01003 0.0
C309 C 0.1519 0.5528 0.8598 0.0
O310 O 0.27551 0.53419 0.90136 0.0
O311 O 0.23227 0.48023 0.93883 0.0
O312 O 0.23302 0.63098 0.84553 0.0
O313 O 0.26607 0.65058 0.90581 0.0
O314 O 0.19422 0.55136 0.84697 0.0
O315 O 0.15092 0.56572 0.90069 0.0
O316 O 0.1258 0.58336 0.97766 0.0
O317 O 0.17942 0.63529 0.95148 0.0
C318 C 0.27005 0.492 0.91664 0.0
C319 C 0.14082 0.62611 0.97357 0.0
C320 C 0.59477 0.08282 0.33678 0.0
C321 C 0.56449 0.11815 0.32367 0.0
C322 C 0.61832 0.05604 0.30461 0.0
C323 C 0.61249 0.06282 0.2577 0.0
H324 H 0.60303 0.07789 0.37214 0.0
H325 H 0.64358 0.03174 0.31665 0.0
S326 S 0.53176 0.14606 0.20555 0.0
N327 N 0.52626 0.1548 0.26038 0.0
N328 N 0.56945 0.10429 0.20028 0.0
C329 C 0.57918 0.09522 0.24429 0.0
C330 C 0.55559 0.12285 0.27708 0.0
C331 C 0.40925 0.58406 0.24879 0.0
C332 C 0.44154 0.61732 0.26204 0.0
C333 C 0.38584 0.55682 0.28091 0.0
C334 C 0.39385 0.56121 0.32778 0.0
H335 H 0.39946 0.58124 0.21361 0.0
H336 H 0.35903 0.53426 0.26902 0.0
S337 S 0.48075 0.63794 0.37949 0.0
N338 N 0.48416 0.64914 0.32488 0.0
N339 N 0.4414 0.59771 0.3848 0.0
C340 C 0.42924 0.59133 0.34096 0.0
C341 C 0.45261 0.61943 0.3083 0.0
C342 C 0.95198 0.39117 0.28009 0.0
C343 C 0.94338 0.39696 0.32673 0.0
C344 C 0.92607 0.41428 0.24671 0.0
C345 C 0.88998 0.44407 0.25835 0.0
H346 H 0.97727 0.36646 0.26914 0.0
H347 H 0.93237 0.40622 0.21156 0.0
S348 S 0.85668 0.47585 0.37526 0.0
N349 N 0.89886 0.43889 0.38231 0.0
N350 N 0.85012 0.48141 0.32009 0.0
C351 C 0.88321 0.45268 0.30476 0.0
C352 C 0.90985 0.42949 0.33872 0.0
C353 C 0.12134 0.94535 0.27783 0.0
C354 C 0.11712 0.93724 0.32475 0.0
C355 C 0.10056 0.91633 0.24562 0.0
C356 C 0.07483 0.87779 0.25893 0.0
H357 H 0.14399 0.97211 0.26579 0.0
H358 H 0.10878 0.92138 0.21027 0.0
S359 S 0.04805 0.84418 0.3769 0.0
N360 N 0.07994 0.89053 0.38224 0.0
N361 N 0.04282 0.83561 0.32203 0.0
C362 C 0.06709 0.87165 0.30545 0.0
C363 C 0.08756 0.90147 0.33824 0.0
C364 C 0.42542 0.90786 0.84071 0.0
C365 C 0.39229 0.94078 0.82861 0.0
C366 C 0.44987 0.88328 0.80764 0.0
C367 C 0.44262 0.89075 0.76105 0.0
H368 H 0.43009 0.89844 0.87583 0.0
H369 H 0.47249 0.85607 0.81871 0.0
S370 S 0.36527 0.97864 0.71177 0.0
N371 N 0.35774 0.98343 0.76685 0.0
N372 N 0.40395 0.93801 0.70502 0.0
C373 C 0.41282 0.92664 0.7487 0.0
C374 C 0.38761 0.95135 0.78236 0.0
C375 C 0.56365 0.37647 0.77522 0.0
C376 C 0.56792 0.38526 0.82194 0.0
C377 C 0.58826 0.40185 0.74262 0.0
C378 C 0.61867 0.43705 0.75522 0.0
H379 H 0.54344 0.34762 0.76383 0.0
H380 H 0.58595 0.3914 0.70761 0.0
S381 S 0.63677 0.47931 0.87197 0.0
N382 N 0.60049 0.43637 0.87816 0.0
N383 N 0.64713 0.48314 0.81723 0.0
C384 C 0.6203 0.44878 0.80133 0.0
C385 C 0.59483 0.42328 0.83453 0.0
C386 C 0.10087 0.58597 0.74583 0.0
C387 C 0.06784 0.61911 0.75734 0.0
C388 C 0.12505 0.56149 0.77935 0.0
C389 C 0.11718 0.56884 0.82585 0.0
H390 H 0.11066 0.58129 0.71085 0.0
H391 H 0.15229 0.5388 0.76872 0.0
S392 S 0.02922 0.6468 0.87347 0.0
N393 N 0.02483 0.654 0.81831 0.0
N394 N 0.06964 0.608 0.88101 0.0
C395 C 0.08131 0.59884 0.83755 0.0
C396 C 0.05692 0.62394 0.80342 0.0
C397 C 0.88206 0.0671 0.81187 0.0
C398 C 0.8902 0.07272 0.76513 0.0
C399 C 0.90745 0.09131 0.84462 0.0
C400 C 0.94197 0.12261 0.83212 0.0
H401 H 0.85391 0.04585 0.82325 0.0
H402 H 0.8976 0.08789 0.87975 0.0
S403 S 0.98174 0.14502 0.71498 0.0
N404 N 0.93951 0.108 0.70875 0.0
N405 N 0.9864 0.15376 0.76989 0.0
C406 C 0.95291 0.12575 0.78582 0.0
C407 C 0.92736 0.10078 0.75249 0.0
C408 C 0.3859 0.08334 0.39565 0.0
C409 C 0.39937 0.09447 0.44009 0.0
C410 C 0.34416 0.06107 0.38684 0.0
C411 C 0.31358 0.0508 0.42197 0.0
H412 H 0.40814 0.09131 0.36742 0.0
H413 H 0.33573 0.05193 0.35239 0.0
S414 S 0.33305 0.07101 0.54429 0.0
N415 N 0.37939 0.09166 0.51962 0.0
N416 N 0.30024 0.05183 0.50307 0.0
C417 C 0.32652 0.06192 0.46649 0.0
C418 C 0.36958 0.08323 0.47556 0.0
C419 C 0.40297 0.35785 0.43118 0.0
C420 C 0.42275 0.39674 0.45148 0.0
C421 C 0.42899 0.31837 0.4218 0.0
C422 C 0.47626 0.31696 0.43053 0.0
H423 H 0.36689 0.35778 0.42279 0.0
H424 H 0.41209 0.28897 0.40705 0.0
S425 S 0.54472 0.40996 0.48303 0.0
N426 N 0.49229 0.43098 0.48069 0.0
N427 N 0.54171 0.35812 0.46105 0.0
C428 C 0.49652 0.35587 0.45047 0.0
C429 C 0.46967 0.39538 0.46146 0.0
C430 C 0.11994 0.44616 0.41158 0.0
C431 C 0.11147 0.42216 0.45215 0.0
C432 C 0.1615 0.46921 0.40396 0.0
C433 C 0.19698 0.46798 0.436 0.0
H434 H 0.09402 0.44743 0.38543 0.0
H435 H 0.166 0.48787 0.37258 0.0
S436 S 0.19215 0.41053 0.54809 0.0
N437 N 0.14181 0.3995 0.52519 0.0
N438 N 0.22041 0.44145 0.51051 0.0
C439 C 0.18907 0.44394 0.47669 0.0
C440 C 0.14622 0.42144 0.4849 0.0
C441 C 0.09738 0.14846 0.47432 0.0
C442 C 0.10013 0.11549 0.43986 0.0
C443 C 0.07691 0.19154 0.4665 0.0
C444 C 0.05781 0.20299 0.42415 0.0
H445 H 0.11116 0.14099 0.5075 0.0
H446 H 0.07432 0.21529 0.49442 0.0
S447 S 0.05652 0.12917 0.32261 0.0
N448 N 0.08278 0.09799 0.36135 0.0
N449 N 0.04344 0.17798 0.34746 0.0
C450 C 0.06064 0.17046 0.38949 0.0
C451 C 0.08202 0.12704 0.39713 0.0
C452 C 0.86086 0.90028 0.15665 0.0
C453 C 0.90091 0.92293 0.14226 0.0
C454 C 0.81975 0.9243 0.16378 0.0
C455 C 0.81776 0.97213 0.15871 0.0
H456 H 0.86114 0.86352 0.16179 0.0
H457 H 0.7895 0.90538 0.17379 0.0
S458 S 0.91376 0.04758 0.12289 0.0
N459 N 0.93604 0.99558 0.12294 0.0
N460 N 0.85994 0.04132 0.13881 0.0
C461 C 0.85797 0.99523 0.14512 0.0
C462 C 0.89924 0.97049 0.13623 0.0
C463 C 0.57815 0.81579 0.12322 0.0
C464 C 0.56034 0.80591 0.1665 0.0
C465 C 0.59824 0.85844 0.11332 0.0
C466 C 0.60223 0.89228 0.14666 0.0
H467 H 0.57455 0.79124 0.09609 0.0
H468 H 0.61092 0.86484 0.0795 0.0
S469 S 0.56202 0.88325 0.26538 0.0
N470 N 0.54802 0.83359 0.24267 0.0
N471 N 0.5875 0.91283 0.22491 0.0
C472 C 0.58564 0.88239 0.19032 0.0
C473 C 0.56425 0.83947 0.20002 0.0
C474 C 0.64776 0.5962 0.11332 0.0
C475 C 0.61293 0.59332 0.1459 0.0
C476 C 0.69116 0.57721 0.12151 0.0
C477 C 0.70087 0.55412 0.16228 0.0
H478 H 0.64154 0.61334 0.08139 0.0
H479 H 0.71652 0.57873 0.09486 0.0
S480 S 0.62164 0.53801 0.25871 0.0
N481 N 0.59146 0.56688 0.22102 0.0
N482 N 0.67248 0.53016 0.23566 0.0
C483 C 0.66651 0.5516 0.19526 0.0
C484 C 0.62267 0.57145 0.18725 0.0
C485 C 0.92263 0.69402 0.14824 0.0
C486 C 0.97026 0.69276 0.14187 0.0
C487 C 0.89574 0.65485 0.1409 0.0
C488 C 0.91539 0.61392 0.12515 0.0
H489 H 0.90618 0.72507 0.15987 0.0
H490 H 0.85934 0.65654 0.14761 0.0
S491 S 0.03791 0.59231 0.10251 0.0
N492 N 0.03581 0.64618 0.11912 0.0
N493 N 0.98451 0.57394 0.10349 0.0
C494 C 0.96253 0.61233 0.11768 0.0
C495 C 0.99018 0.65145 0.12655 0.0
C496 C 0.66328 0.95808 0.69712 0.0
C497 C 0.69897 0.95902 0.66535 0.0
C498 C 0.62178 0.93567 0.68776 0.0
C499 C 0.61365 0.91465 0.64566 0.0
H500 H 0.66732 0.97517 0.7293 0.0
H501 H 0.59548 0.93551 0.71355 0.0
S502 S 0.69513 0.90973 0.54987 0.0
N503 N 0.72308 0.93781 0.58958 0.0
N504 N 0.64469 0.89694 0.57171 0.0
C505 C 0.64884 0.91577 0.6134 0.0
C506 C 0.69156 0.93761 0.62333 0.0
C507 C 0.59557 0.6474 0.61403 0.0
C508 C 0.59379 0.61071 0.64483 0.0
C509 C 0.57484 0.68972 0.62402 0.0
C510 C 0.55086 0.69662 0.66482 0.0
H511 H 0.61339 0.64354 0.58219 0.0
H512 H 0.57609 0.71662 0.59876 0.0
S513 S 0.53609 0.61133 0.75665 0.0
N514 N 0.56675 0.58433 0.71818 0.0
N515 N 0.52665 0.66309 0.73599 0.0
C516 C 0.54892 0.66019 0.6958 0.0
C517 C 0.57069 0.61749 0.68607 0.0
C518 C 0.88855 0.57548 0.68012 0.0
C519 C 0.89729 0.59741 0.63849 0.0
C520 C 0.84687 0.55303 0.68859 0.0
C521 C 0.81162 0.55288 0.65634 0.0
H522 H 0.91452 0.5749 0.70624 0.0
H523 H 0.84239 0.53521 0.72044 0.0
S524 S 0.81691 0.60534 0.54195 0.0
N525 N 0.86717 0.61729 0.56457 0.0
N526 N 0.78841 0.57625 0.58075 0.0
C527 C 0.81956 0.57538 0.61483 0.0
C528 C 0.86248 0.5973 0.60581 0.0
C529 C 0.91206 0.86311 0.61854 0.0
C530 C 0.9175 0.89996 0.64854 0.0
C531 C 0.93305 0.82048 0.62695 0.0
C532 C 0.9609 0.8134 0.66528 0.0
H533 H 0.89125 0.86713 0.58851 0.0
H534 H 0.92901 0.79354 0.6022 0.0
S535 S 0.98599 0.899 0.75417 0.0
N536 N 0.9521 0.92628 0.71848 0.0
N537 N 0.99238 0.84695 0.73346 0.0
C538 C 0.96626 0.84996 0.69557 0.0
C539 C 0.94439 0.89298 0.68742 0.0
C540 C 0.15142 0.09439 0.97463 0.0
C541 C 0.11475 0.09213 0.94403 0.0
C542 C 0.19387 0.07421 0.96443 0.0
C543 C 0.2008 0.05043 0.92363 0.0
H544 H 0.14742 0.11212 1.00647 0.0
H545 H 0.22077 0.07551 0.98958 0.0
S546 S 0.11567 0.03472 0.83228 0.0
N547 N 0.08844 0.06504 0.87086 0.0
N548 N 0.16754 0.02589 0.85265 0.0
C549 C 0.16447 0.04815 0.89279 0.0
C550 C 0.12163 0.06933 0.90273 0.0
C551 C 0.44614 0.11636 0.90733 0.0
C552 C 0.41964 0.1104 0.94667 0.0
C553 C 0.46907 0.15769 0.89842 0.0
C554 C 0.4651 0.19526 0.9277 0.0
H555 H 0.44978 0.08856 0.88344 0.0
H556 H 0.49025 0.16018 0.86848 0.0
S557 S 0.39967 0.19752 1.03524 0.0
N558 N 0.39105 0.14544 1.01534 0.0
N559 N 0.43275 0.22367 0.99799 0.0
C560 C 0.438 0.19004 0.96679 0.0
C561 C 0.41571 0.14746 0.97649 0.0
C562 C 0.363 0.41935 0.97056 0.0
C563 C 0.39669 0.41731 0.93677 0.0
C564 C 0.32083 0.44113 0.96261 0.0
C565 C 0.31127 0.46268 0.92096 0.0
H566 H 0.36908 0.40368 1.00324 0.0
H567 H 0.29628 0.44272 0.98998 0.0
S568 S 0.3883 0.46748 0.82168 0.0
N569 N 0.4174 0.43805 0.85982 0.0
N570 N 0.33911 0.48076 0.84579 0.0
C571 C 0.34475 0.461 0.88703 0.0
C572 C 0.38717 0.43783 0.89469 0.0
C573 C 0.08525 0.3855 0.90427 0.0
C574 C 0.10267 0.3971 0.94715 0.0
C575 C 0.06574 0.34239 0.89589 0.0
C576 C 0.064 0.30849 0.92964 0.0
H577 H 0.08576 0.41034 0.87701 0.0
H578 H 0.05089 0.33591 0.86299 0.0
S579 S 0.1052 0.32116 0.04768 0.0
N580 N 0.11701 0.37099 1.02377 0.0
N581 N 0.08124 0.28963 1.00796 0.0
C582 C 0.08229 0.31921 0.97244 0.0
C583 C 0.10131 0.36358 0.98124 0.0
C584 C 0.74354 0.28338 0.3483 0.0
C585 C 0.72159 0.24088 0.34954 0.0
C586 C 0.79099 0.28554 0.34527 0.0
C587 C 0.81714 0.24518 0.34461 0.0
H588 H 0.72423 0.31483 0.35196 0.0
H589 H 0.80739 0.31873 0.34798 0.0
S590 S 0.77544 0.12615 0.33801 0.0
N591 N 0.7288 0.15781 0.34186 0.0
N592 N 0.8187 0.16253 0.33881 0.0
C593 C 0.79562 0.20283 0.3416 0.0
C594 C 0.74734 0.2005 0.34348 0.0
C595 C 0.3081 0.73693 0.34673 0.0
C596 C 0.26723 0.71136 0.34652 0.0
C597 C 0.30698 0.78458 0.34792 0.0
C598 C 0.26513 0.8075 0.3472 0.0
H599 H 0.34107 0.7202 0.3497 0.0
H600 H 0.33868 0.80339 0.35198 0.0
S601 S 0.14925 0.7565 0.34023 0.0
N602 N 0.18434 0.71213 0.3418 0.0
N603 N 0.1822 0.80244 0.34149 0.0
C604 C 0.22428 0.78259 0.34264 0.0
C605 C 0.22533 0.73406 0.343 0.0
C606 C 0.27954 0.75564 0.22475 0.0
C607 C 0.30739 0.77029 0.18909 0.0
C608 C 0.23768 0.73471 0.21661 0.0
C609 C 0.22188 0.72865 0.17229 0.0
H610 H 0.29111 0.75898 0.25912 0.0
H611 H 0.21658 0.72546 0.24528 0.0
S612 S 0.28286 0.75869 0.06633 0.0
N613 N 0.31685 0.77622 0.10723 0.0
N614 N 0.23824 0.73577 0.09195 0.0
C615 C 0.24999 0.74173 0.13603 0.0
C616 C 0.29229 0.76374 0.14436 0.0
C617 C 0.71314 0.28638 0.23287 0.0
C618 C 0.73808 0.30435 0.1968 0.0
C619 C 0.71585 0.23985 0.24258 0.0
C620 C 0.74669 0.21157 0.21943 0.0
H621 H 0.69045 0.30794 0.25245 0.0
H622 H 0.69209 0.22538 0.26669 0.0
S623 S 0.81444 0.24211 0.11802 0.0
N624 N 0.78983 0.29024 0.13385 0.0
N625 N 0.7988 0.20368 0.15578 0.0
C626 C 0.77202 0.22954 0.18334 0.0
C627 C 0.76686 0.27597 0.17131 0.0
C628 C 0.23549 0.7903 0.74184 0.0
C629 C 0.20847 0.75376 0.72751 0.0
C630 C 0.28289 0.78526 0.74417 0.0
C631 C 0.30391 0.74401 0.73092 0.0
H632 H 0.22027 0.82338 0.74879 0.0
H633 H 0.30332 0.81507 0.75239 0.0
S634 S 0.24659 0.63751 0.69468 0.0
N635 N 0.20455 0.67398 0.70436 0.0
N636 N 0.29431 0.66545 0.70636 0.0
C637 C 0.27685 0.70648 0.71939 0.0
C638 C 0.22869 0.71119 0.71823 0.0
C639 C 0.79126 0.22742 0.7273 0.0
C640 C 0.74675 0.20907 0.72608 0.0
C641 C 0.7982 0.2746 0.7252 0.0
C642 C 0.76071 0.30411 0.72367 0.0
H643 H 0.82088 0.20509 0.72604 0.0
H644 H 0.83273 0.28782 0.72237 0.0
S645 S 0.63773 0.27287 0.72342 0.0
N646 N 0.66507 0.22332 0.72482 0.0
N647 N 0.67782 0.31276 0.72391 0.0
C648 C 0.71605 0.28627 0.72582 0.0
C649 C 0.70907 0.23827 0.72624 0.0
C650 C 0.79311 0.27099 0.84828 0.0
C651 C 0.81352 0.28823 0.88767 0.0
C652 C 0.74756 0.25693 0.84849 0.0
C653 C 0.72169 0.25945 0.88809 0.0
H654 H 0.81344 0.26477 0.81838 0.0
H655 H 0.73288 0.2426 0.81816 0.0
S656 S 0.75687 0.31146 0.99722 0.0
N657 N 0.80262 0.31464 0.96479 0.0
N658 N 0.71713 0.28726 0.96568 0.0
C659 C 0.74053 0.28051 0.92654 0.0
C660 C 0.78644 0.29571 0.92598 0.0
C661 C 0.29102 0.78372 0.85504 0.0
C662 C 0.24773 0.80448 0.85793 0.0
C663 C 0.29501 0.73629 0.85206 0.0
C664 C 0.25577 0.70906 0.85068 0.0
H665 H 0.3219 0.80394 0.85877 0.0
H666 H 0.32863 0.72076 0.85404 0.0
S667 S 0.13494 0.74786 0.85302 0.0
N668 N 0.16534 0.79544 0.85667 0.0
N669 N 0.17246 0.70579 0.84873 0.0
C670 C 0.21232 0.72982 0.84955 0.0
C671 C 0.20834 0.77796 0.85399 0.0
C672 C 0.65662 0.08712 0.53638 0.0
C673 C 0.66474 0.11782 0.50044 0.0
C674 C 0.69305 0.06753 0.56106 0.0
C675 C 0.73913 0.07693 0.55018 0.0
H676 H 0.62189 0.07917 0.54646 0.0
H677 H 0.68502 0.04496 0.58908 0.0
S678 S 0.77987 0.15443 0.45957 0.0
N679 N 0.72355 0.15627 0.45547 0.0
N680 N 0.79098 0.11865 0.5014 0.0
C681 C 0.74789 0.10649 0.51388 0.0
C682 C 0.71103 0.12711 0.48918 0.0
C683 C 0.44177 0.69162 0.56154 0.0
C684 C 0.43367 0.73752 0.54885 0.0
C685 C 0.42264 0.6548 0.53731 0.0
C686 C 0.39369 0.66229 0.49993 0.0
H687 H 0.46303 0.68401 0.59059 0.0
H688 H 0.42962 0.62026 0.54884 0.0
S689 S 0.36104 0.77664 0.4539 0.0
N690 N 0.39508 0.78855 0.49674 0.0
N691 N 0.35822 0.7202 0.45165 0.0
C692 C 0.38561 0.70832 0.48689 0.0
C693 C 0.4058 0.74564 0.51117 0.0
C694 C 0.85413 0.42021 0.53219 0.0
C695 C 0.84702 0.39035 0.49553 0.0
C696 C 0.81726 0.44042 0.55538 0.0
C697 C 0.7715 0.43263 0.54245 0.0
H698 H 0.88849 0.42719 0.54399 0.0
H699 H 0.82476 0.46228 0.58395 0.0
S700 S 0.73342 0.35847 0.44836 0.0
N701 N 0.7898 0.3546 0.44722 0.0
N702 N 0.72105 0.3936 0.49022 0.0
C703 C 0.76372 0.40393 0.50525 0.0
C704 C 0.80124 0.38255 0.48203 0.0
C705 C 0.10252 0.76824 0.50499 0.0
C706 C 0.07802 0.77567 0.54526 0.0
C707 C 0.12351 0.80484 0.48149 0.0
C708 C 0.11972 0.85056 0.49658 0.0
H709 H 0.10663 0.73378 0.49221 0.0
H710 H 0.14297 0.79717 0.45131 0.0
S711 S 0.05581 0.88887 0.59811 0.0
N712 N 0.04936 0.83275 0.59775 0.0
N713 N 0.0873 0.90098 0.55337 0.0
C714 C 0.0937 0.85851 0.53577 0.0
C715 C 0.07326 0.82127 0.56011 0.0
C716 C 0.1931 0.94122 1.02776 0.0
C717 C 0.23849 0.93821 0.04391 0.0
C718 C 0.1558 0.9244 0.05309 0.0
C719 C 0.1624 0.90324 0.09538 0.0
H720 H 0.18632 0.95582 0.99474 0.0
H721 H 0.12197 0.92558 1.03821 0.0
S722 S 0.27402 0.88943 0.15423 0.0
N723 N 0.28737 0.91486 0.10608 0.0
N724 N 0.2179 0.88283 0.15339 0.0
C725 C 0.20747 0.90177 0.11266 0.0
C726 C 0.24528 0.91931 0.08706 0.0
C727 C 0.57937 0.15161 0.05354 0.0
C728 C 0.61802 0.15927 0.08114 0.0
C729 C 0.55688 0.18803 1.03098 0.0
C730 C 0.57169 0.23374 1.03537 0.0
H731 H 0.56644 0.11717 0.04903 0.0
H732 H 0.52775 0.18026 1.00979 0.0
S733 S 0.67134 0.27354 0.10132 0.0
N734 N 0.67021 0.21768 0.11015 0.0
N735 N 0.62769 0.28477 0.06777 0.0
C736 C 0.61003 0.24209 0.06239 0.0
C737 C 0.63315 0.20531 0.08527 0.0
C738 C 0.2674 0.61028 0.07658 0.0
C739 C 0.27449 0.58494 1.03674 0.0
C740 C 0.30443 0.62981 0.10059 0.0
C741 C 0.35022 0.62397 0.08636 0.0
H742 H 0.23292 0.61594 0.08879 0.0
H743 H 0.2971 0.64952 0.13066 0.0
S744 S 0.38746 0.55996 0.98452 0.0
N745 N 0.33122 0.55523 0.98442 0.0
N746 N 0.40005 0.59056 1.02962 0.0
C747 C 0.35765 0.59811 0.04697 0.0
C748 C 0.32007 0.57906 1.02218 0.0
C749 C 0.90497 0.31037 0.10894 0.0
C750 C 0.90135 0.35375 0.08811 0.0
C751 C 0.9259 0.27292 0.0869 0.0
C752 C 0.94405 0.27743 0.04307 0.0
H753 H 0.89084 0.30516 0.14238 0.0
H754 H 0.92666 0.23997 0.1038 0.0
S755 S 0.94798 0.38537 0.9758 0.0
N756 N 0.92096 0.39978 1.02258 0.0
N757 N 0.9605 0.33057 0.98156 0.0
C758 C 0.94273 0.32144 1.02301 0.0
C759 C 0.92152 0.35931 0.04543 0.0
C760 C 0.30596 0.89036 0.60096 0.0
C761 C 0.35121 0.89005 0.58416 0.0
C762 C 0.26959 0.91052 0.5764 0.0
C763 C 0.2766 0.93018 0.5334 0.0
H764 H 0.29854 0.87489 0.63346 0.0
H765 H 0.23553 0.90979 0.59081 0.0
S766 S 0.38828 0.9371 0.47345 0.0
N767 N 0.40063 0.91136 0.52165 0.0
N768 N 0.33278 0.9473 0.47509 0.0
C769 C 0.32169 0.92978 0.5162 0.0
C770 C 0.35878 0.91031 0.54164 0.0
C771 C 0.64691 0.31783 0.556 0.0
C772 C 0.62102 0.34943 0.58125 0.0
C773 C 0.62594 0.28143 0.53275 0.0
C774 C 0.57844 0.27402 0.5353 0.0
H775 H 0.6837 0.32168 0.55357 0.0
H776 H 0.64722 0.25846 0.5132 0.0
S777 S 0.49509 0.34692 0.59626 0.0
N778 N 0.54502 0.37147 0.6062 0.0
N779 N 0.50599 0.30175 0.56453 0.0
C780 C 0.55219 0.30499 0.56076 0.0
C781 C 0.57336 0.34302 0.58317 0.0
C782 C 0.21067 0.55444 0.56924 0.0
C783 C 0.23729 0.5784 0.53716 0.0
C784 C 0.17257 0.57515 0.59048 0.0
C785 C 0.16067 0.62106 0.58152 0.0
H786 H 0.21895 0.51925 0.57753 0.0
H787 H 0.15304 0.55551 0.61488 0.0
S788 S 0.21981 0.69917 0.50148 0.0
N789 N 0.24831 0.65051 0.49751 0.0
N790 N 0.1791 0.68987 0.53911 0.0
C791 C 0.18742 0.64542 0.55011 0.0
C792 C 0.22504 0.62399 0.52748 0.0
C793 C 0.88673 0.20761 0.6019 0.0
C794 C 0.89005 0.16181 0.58688 0.0
C795 C 0.90694 0.24421 0.57766 0.0
C796 C 0.9305 0.23692 0.53679 0.0
H797 H 0.86834 0.21529 0.63267 0.0
H798 H 0.90319 0.27877 0.59066 0.0
S799 S 0.94871 0.12385 0.48219 0.0
N800 N 0.9193 0.11163 0.5283 0.0
N801 N 0.9559 0.17992 0.48258 0.0
C802 C 0.934 0.19132 0.52142 0.0
C803 C 0.91424 0.15402 0.54649 0.0
C804 C 0.85477 0.07514 1.01634 0.0
C805 C 0.85199 0.12192 1.00406 0.0
C806 C 0.8177 0.05203 1.03722 0.0
C807 C 0.77666 0.07497 0.04764 0.0
H808 H 0.88585 0.05609 1.00978 0.0
H809 H 0.82167 0.0163 0.04637 0.0
S810 S 0.75006 0.19592 1.02181 0.0
N811 N 0.80281 0.1893 1.00295 0.0
N812 N 0.73476 0.14606 0.04315 0.0
C813 C 0.77319 0.12122 1.03539 0.0
C814 C 0.8103 0.14459 1.01338 0.0
C815 C 0.38861 0.80307 0.9891 0.0
C816 C 0.39297 0.84882 1.004 0.0
C817 C 0.41007 0.76641 1.01203 0.0
C818 C 0.43603 0.77381 0.05136 0.0
H819 H 0.36835 0.79541 0.95943 0.0
H820 H 0.40532 0.73192 0.99949 0.0
S821 S 0.45787 0.88667 0.10504 0.0
N822 N 0.42571 0.89899 0.06079 0.0
N823 N 0.46493 0.83061 0.10406 0.0
C824 C 0.44066 0.81933 0.06657 0.0
C825 C 0.41951 0.85663 0.04288 0.0
C826 C 0.69309 0.42881 0.06297 0.0
C827 C 0.73523 0.43759 1.04114 0.0
C828 C 0.65548 0.40975 1.03989 0.0
C829 C 0.65832 0.39809 0.99394 0.0
H830 H 0.68924 0.43593 0.09866 0.0
H831 H 0.62456 0.40233 0.05872 0.0
S832 S 0.7589 0.41765 0.91963 0.0
N833 N 0.77597 0.43597 0.96964 0.0
N834 N 0.70581 0.39948 0.92656 0.0
C835 C 0.69957 0.40815 0.97119 0.0
C836 C 0.73781 0.42804 0.99464 0.0
C837 C 0.1192 0.73981 1.03331 0.0
C838 C 0.07155 0.74064 1.04027 0.0
C839 C 0.1408 0.70309 1.01126 0.0
C840 C 0.11589 0.66495 0.99565 0.0
H841 H 0.14017 0.76796 0.04505 0.0
H842 H 0.17764 0.70423 1.0073 0.0
S843 S 0.9896 0.65209 1.00151 0.0
N844 N 0.99953 0.70177 1.02627 0.0
N845 N 0.04015 0.63177 0.98657 0.0
C846 C 0.06798 0.66579 1.00139 0.0
C847 C 0.04582 0.70393 1.02297 0.0
loop_
_geom_bond_atom_site_label_1
_geom_bond_atom_site_label_2
_geom_bond_distance
_geom_bond_site_symmetry_2
_ccdc_geom_bond_type
Dy0 O4 2.398 . S
Dy0 O5 2.491 . S
Dy0 O6 2.403 . S
Dy0 O7 2.664 . S
Dy0 O11 2.326 . S
Dy0 O15 2.310 . S
Dy0 O16 2.351 . S
C1 O12 1.185 . S
C1 O13 1.355 . S
C2 O4 1.185 . S
C2 O5 1.355 . S
Dy3 O7 2.310 . S
Dy3 O10 2.351 . S
Dy3 O12 2.398 . S
Dy3 O13 2.491 . S
Dy3 O14 2.403 . S
Dy3 O15 2.664 . S
Dy3 O17 2.326 . S
O4 Dy0 2.398 . S
O4 C2 1.185 . S
O5 Dy0 2.491 . S
O5 C2 1.355 . S
O6 Dy0 2.403 . S
O6 C8 1.254 . S
O7 Dy0 2.664 . S
O7 Dy3 2.310 . S
O7 C8 1.268 . S
C8 O6 1.254 . S
C8 O7 1.268 . S
C9 O14 1.254 . S
C9 O15 1.268 . S
O10 Dy3 2.351 . S
O10 C18 1.249 . S
O11 Dy0 2.326 . S
O11 C18 1.267 . S
O12 C1 1.185 . S
O12 Dy3 2.398 . S
O13 C1 1.355 . S
O13 Dy3 2.491 . S
O14 Dy3 2.403 . S
O14 C9 1.254 . S
O15 Dy0 2.310 . S
O15 Dy3 2.664 . S
O15 C9 1.268 . S
O16 Dy0 2.351 . S
O16 C19 1.249 . S
O17 Dy3 2.326 . S
O17 C19 1.267 . S
C18 O10 1.249 . S
C18 O11 1.267 . S
C19 O16 1.249 . S
C19 O17 1.267 . S
Dy20 O24 2.398 . S
Dy20 O25 2.491 . S
Dy20 O26 2.403 . S
Dy20 O27 2.664 . S
Dy20 O31 2.326 . S
Dy20 O35 2.310 . S
Dy20 O36 2.351 . S
C21 O32 1.185 . S
C21 O33 1.355 . S
C22 O24 1.185 . S
C22 O25 1.355 . S
Dy23 O27 2.310 . S
Dy23 O30 2.351 . S
Dy23 O32 2.398 . S
Dy23 O33 2.491 . S
Dy23 O34 2.403 . S
Dy23 O35 2.664 . S
Dy23 O37 2.326 . S
O24 Dy20 2.398 . S
O24 C22 1.185 . S
O25 Dy20 2.491 . S
O25 C22 1.355 . S
O26 Dy20 2.403 . S
O26 C28 1.254 . S
O27 Dy20 2.664 . S
O27 Dy23 2.310 . S
O27 C28 1.268 . S
C28 O26 1.254 . S
C28 O27 1.268 . S
C29 O34 1.254 . S
C29 O35 1.268 . S
O30 Dy23 2.351 . S
O30 C38 1.249 . S
O31 Dy20 2.326 . S
O31 C38 1.267 . S
O32 C21 1.185 . S
O32 Dy23 2.398 . S
O33 C21 1.355 . S
O33 Dy23 2.491 . S
O34 Dy23 2.403 . S
O34 C29 1.254 . S
O35 Dy20 2.310 . S
O35 Dy23 2.664 . S
O35 C29 1.268 . S
O36 Dy20 2.351 . S
O36 C39 1.249 . S
O37 Dy23 2.326 . S
O37 C39 1.267 . S
C38 O30 1.249 . S
C38 O31 1.267 . S
C39 O36 1.249 . S
C39 O37 1.267 . S
Dy40 O44 2.398 . S
Dy40 O45 2.491 . S
Dy40 O46 2.403 . S
Dy40 O47 2.664 . S
Dy40 O51 2.326 . S
Dy40 O55 2.310 . S
Dy40 O56 2.351 . S
C41 O52 1.185 . S
C41 O53 1.355 . S
C42 O44 1.185 . S
C42 O45 1.355 . S
Dy43 O47 2.310 . S
Dy43 O50 2.351 . S
Dy43 O52 2.398 1_655 S
Dy43 O53 2.491 1_655 S
Dy43 O54 2.403 . S
Dy43 O55 2.664 . S
Dy43 O57 2.326 1_655 S
O44 Dy40 2.398 . S
O44 C42 1.185 . S
O45 Dy40 2.491 . S
O45 C42 1.355 . S
O46 Dy40 2.403 . S
O46 C48 1.254 . S
O47 Dy40 2.664 . S
O47 Dy43 2.310 . S
O47 C48 1.268 . S
C48 O46 1.254 . S
C48 O47 1.268 . S
C49 O54 1.254 . S
C49 O55 1.268 . S
O50 Dy43 2.351 . S
O50 C58 1.249 . S
O51 Dy40 2.326 . S
O51 C58 1.267 . S
O52 C41 1.185 . S
O52 Dy43 2.398 1_455 S
O53 C41 1.355 . S
O53 Dy43 2.491 1_455 S
O54 Dy43 2.403 . S
O54 C49 1.254 . S
O55 Dy40 2.310 . S
O55 Dy43 2.664 . S
O55 C49 1.268 . S
O56 Dy40 2.351 . S
O56 C59 1.249 1_655 S
O57 Dy43 2.326 1_455 S
O57 C59 1.267 . S
C58 O50 1.249 . S
C58 O51 1.267 . S
C59 O56 1.249 1_455 S
C59 O57 1.267 . S
Dy60 O64 2.398 . S
Dy60 O65 2.491 . S
Dy60 O66 2.403 . S
Dy60 O67 2.664 . S
Dy60 O71 2.326 . S
Dy60 O75 2.310 . S
Dy60 O76 2.351 . S
C61 O72 1.185 . S
C61 O73 1.355 . S
C62 O64 1.185 . S
C62 O65 1.355 . S
Dy63 O67 2.310 . S
Dy63 O70 2.351 . S
Dy63 O72 2.398 1_565 S
Dy63 O73 2.491 1_565 S
Dy63 O74 2.403 . S
Dy63 O75 2.664 . S
Dy63 O77 2.326 1_565 S
O64 Dy60 2.398 . S
O64 C62 1.185 . S
O65 Dy60 2.491 . S
O65 C62 1.355 . S
O66 Dy60 2.403 . S
O66 C68 1.254 . S
O67 Dy60 2.664 . S
O67 Dy63 2.310 . S
O67 C68 1.268 . S
C68 O66 1.254 . S
C68 O67 1.268 . S
C69 O74 1.254 . S
C69 O75 1.268 . S
O70 Dy63 2.351 . S
O70 C78 1.249 . S
O71 Dy60 2.326 . S
O71 C78 1.267 . S
O72 C61 1.185 . S
O72 Dy63 2.398 1_545 S
O73 C61 1.355 . S
O73 Dy63 2.491 1_545 S
O74 Dy63 2.403 . S
O74 C69 1.254 . S
O75 Dy60 2.310 . S
O75 Dy63 2.664 . S
O75 C69 1.268 . S
O76 Dy60 2.351 . S
O76 C79 1.249 1_565 S
O77 Dy63 2.326 1_545 S
O77 C79 1.267 . S
C78 O70 1.249 . S
C78 O71 1.267 . S
C79 O76 1.249 1_545 S
C79 O77 1.267 . S
Dy80 O84 2.398 . S
Dy80 O85 2.491 . S
Dy80 O86 2.403 . S
Dy80 O87 2.664 . S
Dy80 O91 2.326 . S
Dy80 O95 2.310 . S
Dy80 O96 2.351 . S
C81 O92 1.185 . S
C81 O93 1.355 . S
C82 O84 1.185 . S
C82 O85 1.355 . S
Dy83 O87 2.310 . S
Dy83 O90 2.351 . S
Dy83 O92 2.398 1_455 S
Dy83 O93 2.491 1_455 S
Dy83 O94 2.403 . S
Dy83 O95 2.664 . S
Dy83 O97 2.326 1_455 S
O84 Dy80 2.398 . S
O84 C82 1.185 . S
O85 Dy80 2.491 . S
O85 C82 1.355 . S
O86 Dy80 2.403 . S
O86 C88 1.254 . S
O87 Dy80 2.664 . S
O87 Dy83 2.310 . S
O87 C88 1.268 . S
C88 O86 1.254 . S
C88 O87 1.268 . S
C89 O94 1.254 . S
C89 O95 1.268 . S
O90 Dy83 2.351 . S
O90 C98 1.249 . S
O91 Dy80 2.326 . S
O91 C98 1.267 . S
O92 C81 1.185 . S
O92 Dy83 2.398 1_655 S
O93 C81 1.355 . S
O93 Dy83 2.491 1_655 S
O94 Dy83 2.403 . S
O94 C89 1.254 . S
O95 Dy80 2.310 . S
O95 Dy83 2.664 . S
O95 C89 1.268 . S
O96 Dy80 2.351 . S
O96 C99 1.249 1_455 S
O97 Dy83 2.326 1_655 S
O97 C99 1.267 . S
C98 O90 1.249 . S
C98 O91 1.267 . S
C99 O96 1.249 1_655 S
C99 O97 1.267 . S
Dy100 O104 2.398 . S
Dy100 O105 2.491 . S
Dy100 O106 2.403 . S
Dy100 O107 2.664 . S
Dy100 O111 2.326 . S
Dy100 O115 2.310 . S
Dy100 O116 2.351 . S
C101 O112 1.185 . S
C101 O113 1.355 . S
C102 O104 1.185 . S
C102 O105 1.355 . S
Dy103 O107 2.310 . S
Dy103 O110 2.351 . S
Dy103 O112 2.398 1_545 S
Dy103 O113 2.491 1_545 S
Dy103 O114 2.403 . S
Dy103 O115 2.664 . S
Dy103 O117 2.326 1_545 S
O104 Dy100 2.398 . S
O104 C102 1.185 . S
O105 Dy100 2.491 . S
O105 C102 1.355 . S
O106 Dy100 2.403 . S
O106 C108 1.254 . S
O107 Dy100 2.664 . S
O107 Dy103 2.310 . S
O107 C108 1.268 . S
C108 O106 1.254 . S
C108 O107 1.268 . S
C109 O114 1.254 . S
C109 O115 1.268 . S
O110 Dy103 2.351 . S
O110 C118 1.249 . S
O111 Dy100 2.326 . S
O111 C118 1.267 . S
O112 C101 1.185 . S
O112 Dy103 2.398 1_565 S
O113 C101 1.355 . S
O113 Dy103 2.491 1_565 S
O114 Dy103 2.403 . S
O114 C109 1.254 . S
O115 Dy100 2.310 . S
O115 Dy103 2.664 . S
O115 C109 1.268 . S
O116 Dy100 2.351 . S
O116 C119 1.249 1_545 S
O117 Dy103 2.326 1_565 S
O117 C119 1.267 . S
C118 O110 1.249 . S
C118 O111 1.267 . S
C119 O116 1.249 1_565 S
C119 O117 1.267 . S
Dy120 O124 2.398 . S
Dy120 O125 2.491 . S
Dy120 O126 2.403 . S
Dy120 O127 2.664 . S
Dy120 O131 2.326 . S
Dy120 O135 2.310 . S
Dy120 O136 2.351 . S
C121 O132 1.185 . S
C121 O133 1.355 . S
C122 O124 1.185 . S
C122 O125 1.355 . S
Dy123 O127 2.310 . S
Dy123 O130 2.351 . S
Dy123 O132 2.398 . S
Dy123 O133 2.491 . S
Dy123 O134 2.403 . S
Dy123 O135 2.664 . S
Dy123 O137 2.326 . S
O124 Dy120 2.398 . S
O124 C122 1.185 . S
O125 Dy120 2.491 . S
O125 C122 1.355 . S
O126 Dy120 2.403 . S
O126 C128 1.254 . S
O127 Dy120 2.664 . S
O127 Dy123 2.310 . S
O127 C128 1.268 . S
C128 O126 1.254 . S
C128 O127 1.268 . S
C129 O134 1.254 . S
C129 O135 1.268 . S
O130 Dy123 2.351 . S
O130 C138 1.249 . S
O131 Dy120 2.326 . S
O131 C138 1.267 . S
O132 C121 1.185 . S
O132 Dy123 2.398 . S
O133 C121 1.355 . S
O133 Dy123 2.491 . S
O134 Dy123 2.403 . S
O134 C129 1.254 . S
O135 Dy120 2.310 . S
O135 Dy123 2.664 . S
O135 C129 1.268 . S
O136 Dy120 2.351 . S
O136 C139 1.249 . S
O137 Dy123 2.326 . S
O137 C139 1.267 . S
C138 O130 1.249 . S
C138 O131 1.267 . S
C139 O136 1.249 . S
C139 O137 1.267 . S
Dy140 O144 2.398 . S
Dy140 O145 2.491 . S
Dy140 O146 2.403 . S
Dy140 O147 2.664 . S
Dy140 O151 2.326 . S
Dy140 O155 2.310 . S
Dy140 O156 2.351 . S
C141 O152 1.185 . S
C141 O153 1.355 . S
C142 O144 1.185 . S
C142 O145 1.355 . S
Dy143 O147 2.310 . S
Dy143 O150 2.351 . S
Dy143 O152 2.398 . S
Dy143 O153 2.491 . S
Dy143 O154 2.403 . S
Dy143 O155 2.664 . S
Dy143 O157 2.326 . S
O144 Dy140 2.398 . S
O144 C142 1.185 . S
O145 Dy140 2.491 . S
O145 C142 1.355 . S
O146 Dy140 2.403 . S
O146 C148 1.254 . S
O147 Dy140 2.664 . S
O147 Dy143 2.310 . S
O147 C148 1.268 . S
C148 O146 1.254 . S
C148 O147 1.268 . S
C149 O154 1.254 . S
C149 O155 1.268 . S
O150 Dy143 2.351 . S
O150 C158 1.249 . S
O151 Dy140 2.326 . S
O151 C158 1.267 . S
O152 C141 1.185 . S
O152 Dy143 2.398 . S
O153 C141 1.355 . S
O153 Dy143 2.491 . S
O154 Dy143 2.403 . S
O154 C149 1.254 . S
O155 Dy140 2.310 . S
O155 Dy143 2.664 . S
O155 C149 1.268 . S
O156 Dy140 2.351 . S
O156 C159 1.249 . S
O157 Dy143 2.326 . S
O157 C159 1.267 . S
C158 O150 1.249 . S
C158 O151 1.267 . S
C159 O156 1.249 . S
C159 O157 1.267 . S
Dy160 O164 2.398 . S
Dy160 O165 2.491 . S
Dy160 O166 2.403 . S
Dy160 O167 2.664 . S
Dy160 O171 2.326 . S
Dy160 O175 2.310 . S
Dy160 O176 2.351 . S
C161 O172 1.185 . S
C161 O173 1.355 . S
C162 O164 1.185 . S
C162 O165 1.355 . S
Dy163 O167 2.310 . S
Dy163 O170 2.351 . S
Dy163 O172 2.398 . S
Dy163 O173 2.491 . S
Dy163 O174 2.403 . S
Dy163 O175 2.664 . S
Dy163 O177 2.326 . S
O164 Dy160 2.398 . S
O164 C162 1.185 . S
O165 Dy160 2.491 . S
O165 C162 1.355 . S
O166 Dy160 2.403 . S
O166 C168 1.254 . S
O167 Dy160 2.664 . S
O167 Dy163 2.310 . S
O167 C168 1.268 . S
C168 O166 1.254 . S
C168 O167 1.268 . S
C169 O174 1.254 . S
C169 O175 1.268 . S
O170 Dy163 2.351 . S
O170 C178 1.249 . S
O171 Dy160 2.326 . S
O171 C178 1.267 . S
O172 C161 1.185 . S
O172 Dy163 2.398 . S
O173 C161 1.355 . S
O173 Dy163 2.491 . S
O174 Dy163 2.403 . S
O174 C169 1.254 . S
O175 Dy160 2.310 . S
O175 Dy163 2.664 . S
O175 C169 1.268 . S
O176 Dy160 2.351 . S
O176 C179 1.249 . S
O177 Dy163 2.326 . S
O177 C179 1.267 . S
C178 O170 1.249 . S
C178 O171 1.267 . S
C179 O176 1.249 . S
C179 O177 1.267 . S
Dy180 O184 2.398 . S
Dy180 O185 2.491 . S
Dy180 O186 2.403 . S
Dy180 O187 2.664 . S
Dy180 O191 2.326 . S
Dy180 O195 2.310 . S
Dy180 O196 2.351 . S
C181 O192 1.185 . S
C181 O193 1.355 . S
C182 O184 1.185 . S
C182 O185 1.355 . S
Dy183 O187 2.310 . S
Dy183 O190 2.351 . S
Dy183 O192 2.398 . S
Dy183 O193 2.491 . S
Dy183 O194 2.403 . S
Dy183 O195 2.664 . S
Dy183 O197 2.326 . S
O184 Dy180 2.398 . S
O184 C182 1.185 . S
O185 Dy180 2.491 . S
O185 C182 1.355 . S
O186 Dy180 2.403 . S
O186 C188 1.254 . S
O187 Dy180 2.664 . S
O187 Dy183 2.310 . S
O187 C188 1.268 . S
C188 O186 1.254 . S
C188 O187 1.268 . S
C189 O194 1.254 . S
C189 O195 1.268 . S
O190 Dy183 2.351 . S
O190 C198 1.249 . S
O191 Dy180 2.326 . S
O191 C198 1.267 . S
O192 C181 1.185 . S
O192 Dy183 2.398 . S
O193 C181 1.355 . S
O193 Dy183 2.491 . S
O194 Dy183 2.403 . S
O194 C189 1.254 . S
O195 Dy180 2.310 . S
O195 Dy183 2.664 . S
O195 C189 1.268 . S
O196 Dy180 2.351 . S
O196 C199 1.249 . S
O197 Dy183 2.326 . S
O197 C199 1.267 . S
C198 O190 1.249 . S
C198 O191 1.267 . S
C199 O196 1.249 . S
C199 O197 1.267 . S
Dy200 O204 2.398 1_455 S
Dy200 O205 2.491 1_455 S
Dy200 O206 2.403 . S
Dy200 O207 2.664 . S
Dy200 O211 2.326 1_455 S
Dy200 O215 2.310 . S
Dy200 O216 2.351 . S
C201 O212 1.185 . S
C201 O213 1.355 . S
C202 O204 1.185 . S
C202 O205 1.355 . S
Dy203 O207 2.310 . S
Dy203 O210 2.351 . S
Dy203 O212 2.398 . S
Dy203 O213 2.491 . S
Dy203 O214 2.403 . S
Dy203 O215 2.664 . S
Dy203 O217 2.326 . S
O204 Dy200 2.398 1_655 S
O204 C202 1.185 . S
O205 Dy200 2.491 1_655 S
O205 C202 1.355 . S
O206 Dy200 2.403 . S
O206 C208 1.254 . S
O207 Dy200 2.664 . S
O207 Dy203 2.310 . S
O207 C208 1.268 . S
C208 O206 1.254 . S
C208 O207 1.268 . S
C209 O214 1.254 . S
C209 O215 1.268 . S
O210 Dy203 2.351 . S
O210 C218 1.249 1_455 S
O211 Dy200 2.326 1_655 S
O211 C218 1.267 . S
O212 C201 1.185 . S
O212 Dy203 2.398 . S
O213 C201 1.355 . S
O213 Dy203 2.491 . S
O214 Dy203 2.403 . S
O214 C209 1.254 . S
O215 Dy200 2.310 . S
O215 Dy203 2.664 . S
O215 C209 1.268 . S
O216 Dy200 2.351 . S
O216 C219 1.249 . S
O217 Dy203 2.326 . S
O217 C219 1.267 . S
C218 O210 1.249 1_655 S
C218 O211 1.267 . S
C219 O216 1.249 . S
C219 O217 1.267 . S
Dy220 O224 2.398 1_545 S
Dy220 O225 2.491 1_545 S
Dy220 O226 2.403 . S
Dy220 O227 2.664 . S
Dy220 O231 2.326 1_545 S
Dy220 O235 2.310 . S
Dy220 O236 2.351 . S
C221 O232 1.185 . S
C221 O233 1.355 . S
C222 O224 1.185 . S
C222 O225 1.355 . S
Dy223 O227 2.310 . S
Dy223 O230 2.351 . S
Dy223 O232 2.398 . S
Dy223 O233 2.491 . S
Dy223 O234 2.403 . S
Dy223 O235 2.664 . S
Dy223 O237 2.326 . S
O224 Dy220 2.398 1_565 S
O224 C222 1.185 . S
O225 Dy220 2.491 1_565 S
O225 C222 1.355 . S
O226 Dy220 2.403 . S
O226 C228 1.254 . S
O227 Dy220 2.664 . S
O227 Dy223 2.310 . S
O227 C228 1.268 . S
C228 O226 1.254 . S
C228 O227 1.268 . S
C229 O234 1.254 . S
C229 O235 1.268 . S
O230 Dy223 2.351 . S
O230 C238 1.249 1_545 S
O231 Dy220 2.326 1_565 S
O231 C238 1.267 . S
O232 C221 1.185 . S
O232 Dy223 2.398 . S
O233 C221 1.355 . S
O233 Dy223 2.491 . S
O234 Dy223 2.403 . S
O234 C229 1.254 . S
O235 Dy220 2.310 . S
O235 Dy223 2.664 . S
O235 C229 1.268 . S
O236 Dy220 2.351 . S
O236 C239 1.249 . S
O237 Dy223 2.326 . S
O237 C239 1.267 . S
C238 O230 1.249 1_565 S
C238 O231 1.267 . S
C239 O236 1.249 . S
C239 O237 1.267 . S
Dy240 O244 2.398 1_655 S
Dy240 O245 2.491 1_655 S
Dy240 O246 2.403 . S
Dy240 O247 2.664 . S
Dy240 O251 2.326 1_655 S
Dy240 O255 2.310 . S
Dy240 O256 2.351 . S
C241 O252 1.185 . S
C241 O253 1.355 . S
C242 O244 1.185 . S
C242 O245 1.355 . S
Dy243 O247 2.310 . S
Dy243 O250 2.351 . S
Dy243 O252 2.398 . S
Dy243 O253 2.491 . S
Dy243 O254 2.403 . S
Dy243 O255 2.664 . S
Dy243 O257 2.326 . S
O244 Dy240 2.398 1_455 S
O244 C242 1.185 . S
O245 Dy240 2.491 1_455 S
O245 C242 1.355 . S
O246 Dy240 2.403 . S
O246 C248 1.254 . S
O247 Dy240 2.664 . S
O247 Dy243 2.310 . S
O247 C248 1.268 . S
C248 O246 1.254 . S
C248 O247 1.268 . S
C249 O254 1.254 . S
C249 O255 1.268 . S
O250 Dy243 2.351 . S
O250 C258 1.249 1_655 S
O251 Dy240 2.326 1_455 S
O251 C258 1.267 . S
O252 C241 1.185 . S
O252 Dy243 2.398 . S
O253 C241 1.355 . S
O253 Dy243 2.491 . S
O254 Dy243 2.403 . S
O254 C249 1.254 . S
O255 Dy240 2.310 . S
O255 Dy243 2.664 . S
O255 C249 1.268 . S
O256 Dy240 2.351 . S
O256 C259 1.249 . S
O257 Dy243 2.326 . S
O257 C259 1.267 . S
C258 O250 1.249 1_455 S
C258 O251 1.267 . S
C259 O256 1.249 . S
C259 O257 1.267 . S
Dy260 O264 2.398 1_565 S
Dy260 O265 2.491 1_565 S
Dy260 O266 2.403 . S
Dy260 O267 2.664 . S
Dy260 O271 2.326 1_565 S
Dy260 O275 2.310 . S
Dy260 O276 2.351 . S
C261 O272 1.185 . S
C261 O273 1.355 . S
C262 O264 1.185 . S
C262 O265 1.355 . S
Dy263 O267 2.310 . S
Dy263 O270 2.351 . S
Dy263 O272 2.398 . S
Dy263 O273 2.491 . S
Dy263 O274 2.403 . S
Dy263 O275 2.664 . S
Dy263 O277 2.326 . S
O264 Dy260 2.398 1_545 S
O264 C262 1.185 . S
O265 Dy260 2.491 1_545 S
O265 C262 1.355 . S
O266 Dy260 2.403 . S
O266 C268 1.254 . S
O267 Dy260 2.664 . S
O267 Dy263 2.310 . S
O267 C268 1.268 . S
C268 O266 1.254 . S
C268 O267 1.268 . S
C269 O274 1.254 . S
C269 O275 1.268 . S
O270 Dy263 2.351 . S
O270 C278 1.249 1_565 S
O271 Dy260 2.326 1_545 S
O271 C278 1.267 . S
O272 C261 1.185 . S
O272 Dy263 2.398 . S
O273 C261 1.355 . S
O273 Dy263 2.491 . S
O274 Dy263 2.403 . S
O274 C269 1.254 . S
O275 Dy260 2.310 . S
O275 Dy263 2.664 . S
O275 C269 1.268 . S
O276 Dy260 2.351 . S
O276 C279 1.249 . S
O277 Dy263 2.326 . S
O277 C279 1.267 . S
C278 O270 1.249 1_545 S
C278 O271 1.267 . S
C279 O276 1.249 . S
C279 O277 1.267 . S
Dy280 O284 2.398 . S
Dy280 O285 2.491 . S
Dy280 O286 2.403 . S
Dy280 O287 2.664 . S
Dy280 O291 2.326 . S
Dy280 O295 2.310 . S
Dy280 O296 2.351 . S
C281 O292 1.185 . S
C281 O293 1.355 . S
C282 O284 1.185 . S
C282 O285 1.355 . S
Dy283 O287 2.310 . S
Dy283 O290 2.351 . S
Dy283 O292 2.398 . S
Dy283 O293 2.491 . S
Dy283 O294 2.403 . S
Dy283 O295 2.664 . S
Dy283 O297 2.326 . S
O284 Dy280 2.398 . S
O284 C282 1.185 . S
O285 Dy280 2.491 . S
O285 C282 1.355 . S
O286 Dy280 2.403 . S
O286 C288 1.254 . S
O287 Dy280 2.664 . S
O287 Dy283 2.310 . S
O287 C288 1.268 . S
C288 O286 1.254 . S
C288 O287 1.268 . S
C289 O294 1.254 . S
C289 O295 1.268 . S
O290 Dy283 2.351 . S
O290 C298 1.249 . S
O291 Dy280 2.326 . S
O291 C298 1.267 . S
O292 C281 1.185 . S
O292 Dy283 2.398 . S
O293 C281 1.355 . S
O293 Dy283 2.491 . S
O294 Dy283 2.403 . S
O294 C289 1.254 . S
O295 Dy280 2.310 . S
O295 Dy283 2.664 . S
O295 C289 1.268 . S
O296 Dy280 2.351 . S
O296 C299 1.249 . S
O297 Dy283 2.326 . S
O297 C299 1.267 . S
C298 O290 1.249 . S
C298 O291 1.267 . S
C299 O296 1.249 . S
C299 O297 1.267 . S
Dy300 O304 2.398 . S
Dy300 O305 2.491 . S
Dy300 O306 2.403 . S
Dy300 O307 2.664 . S
Dy300 O311 2.326 . S
Dy300 O315 2.310 . S
Dy300 O316 2.351 . S
C301 O312 1.185 . S
C301 O313 1.355 . S
C302 O304 1.185 . S
C302 O305 1.355 . S
Dy303 O307 2.310 . S
Dy303 O310 2.351 . S
Dy303 O312 2.398 . S
Dy303 O313 2.491 . S
Dy303 O314 2.403 . S
Dy303 O315 2.664 . S
Dy303 O317 2.326 . S
O304 Dy300 2.398 . S
O304 C302 1.185 . S
O305 Dy300 2.491 . S
O305 C302 1.355 . S
O306 Dy300 2.403 . S
O306 C308 1.254 . S
O307 Dy300 2.664 . S
O307 Dy303 2.310 . S
O307 C308 1.268 . S
C308 O306 1.254 . S
C308 O307 1.268 . S
C309 O314 1.254 . S
C309 O315 1.268 . S
O310 Dy303 2.351 . S
O310 C318 1.249 . S
O311 Dy300 2.326 . S
O311 C318 1.267 . S
O312 C301 1.185 . S
O312 Dy303 2.398 . S
O313 C301 1.355 . S
O313 Dy303 2.491 . S
O314 Dy303 2.403 . S
O314 C309 1.254 . S
O315 Dy300 2.310 . S
O315 Dy303 2.664 . S
O315 C309 1.268 . S
O316 Dy300 2.351 . S
O316 C319 1.249 . S
O317 Dy303 2.326 . S
O317 C319 1.267 . S
C318 O310 1.249 . S
C318 O311 1.267 . S
C319 O316 1.249 . S
C319 O317 1.267 . S
C320 C321 1.369 . S
C320 C322 1.419 . S
C320 H324 0.930 . S
C321 C320 1.369 . S
C321 C330 1.429 . S
C322 C320 1.419 . S
C322 C323 1.363 . S
C322 H325 0.929 . S
C323 C322 1.363 . S
C323 C329 1.428 . S
H324 C320 0.930 . S
H325 C322 0.929 . S
S326 N327 1.613 . S
S326 N328 1.610 . S
N327 S326 1.613 . S
N327 C330 1.350 . S
N328 S326 1.610 . S
N328 C329 1.351 . S
C329 C323 1.428 . S
C329 N328 1.351 . S
C329 C330 1.434 . S
C330 C321 1.429 . S
C330 N327 1.350 . S
C330 C329 1.434 . S
C331 C332 1.369 . S
C331 C333 1.419 . S
C331 H335 0.930 . S
C332 C331 1.369 . S
C332 C341 1.429 . S
C333 C331 1.419 . S
C333 C334 1.363 . S
C333 H336 0.929 . S
C334 C333 1.363 . S
C334 C340 1.428 . S
H335 C331 0.930 . S
H336 C333 0.929 . S
S337 N338 1.613 . S
S337 N339 1.610 . S
N338 S337 1.613 . S
N338 C341 1.350 . S
N339 S337 1.610 . S
N339 C340 1.351 . S
C340 C334 1.428 . S
C340 N339 1.351 . S
C340 C341 1.434 . S
C341 C332 1.429 . S
C341 N338 1.350 . S
C341 C340 1.434 . S
C342 C343 1.369 . S
C342 C344 1.419 . S
C342 H346 0.930 . S
C343 C342 1.369 . S
C343 C352 1.429 . S
C344 C342 1.419 . S
C344 C345 1.363 . S
C344 H347 0.929 . S
C345 C344 1.363 . S
C345 C351 1.428 . S
H346 C342 0.930 . S
H347 C344 0.929 . S
S348 N349 1.613 . S
S348 N350 1.610 . S
N349 S348 1.613 . S
N349 C352 1.350 . S
N350 S348 1.610 . S
N350 C351 1.351 . S
C351 C345 1.428 . S
C351 N350 1.351 . S
C351 C352 1.434 . S
C352 C343 1.429 . S
C352 N349 1.350 . S
C352 C351 1.434 . S
C353 C354 1.369 . S
C353 C355 1.419 . S
C353 H357 0.930 . S
C354 C353 1.369 . S
C354 C363 1.429 . S
C355 C353 1.419 . S
C355 C356 1.363 . S
C355 H358 0.929 . S
C356 C355 1.363 . S
C356 C362 1.428 . S
H357 C353 0.930 . S
H358 C355 0.929 . S
S359 N360 1.613 . S
S359 N361 1.610 . S
N360 S359 1.613 . S
N360 C363 1.350 . S
N361 S359 1.610 . S
N361 C362 1.351 . S
C362 C356 1.428 . S
C362 N361 1.351 . S
C362 C363 1.434 . S
C363 C354 1.429 . S
C363 N360 1.350 . S
C363 C362 1.434 . S
C364 C365 1.369 . S
C364 C366 1.419 . S
C364 H368 0.930 . S
C365 C364 1.369 . S
C365 C374 1.429 . S
C366 C364 1.419 . S
C366 C367 1.363 . S
C366 H369 0.929 . S
C367 C366 1.363 . S
C367 C373 1.428 . S
H368 C364 0.930 . S
H369 C366 0.929 . S
S370 N371 1.613 . S
S370 N372 1.610 . S
N371 S370 1.613 . S
N371 C374 1.350 . S
N372 S370 1.610 . S
N372 C373 1.351 . S
C373 C367 1.428 . S
C373 N372 1.351 . S
C373 C374 1.434 . S
C374 C365 1.429 . S
C374 N371 1.350 . S
C374 C373 1.434 . S
C375 C376 1.369 . S
C375 C377 1.419 . S
C375 H379 0.930 . S
C376 C375 1.369 . S
C376 C385 1.429 . S
C377 C375 1.419 . S
C377 C378 1.363 . S
C377 H380 0.929 . S
C378 C377 1.363 . S
C378 C384 1.428 . S
H379 C375 0.930 . S
H380 C377 0.929 . S
S381 N382 1.613 . S
S381 N383 1.610 . S
N382 S381 1.613 . S
N382 C385 1.350 . S
N383 S381 1.610 . S
N383 C384 1.351 . S
C384 C378 1.428 . S
C384 N383 1.351 . S
C384 C385 1.434 . S
C385 C376 1.429 . S
C385 N382 1.350 . S
C385 C384 1.434 . S
C386 C387 1.369 . S
C386 C388 1.419 . S
C386 H390 0.930 . S
C387 C386 1.369 . S
C387 C396 1.429 . S
C388 C386 1.419 . S
C388 C389 1.363 . S
C388 H391 0.929 . S
C389 C388 1.363 . S
C389 C395 1.428 . S
H390 C386 0.930 . S
H391 C388 0.929 . S
S392 N393 1.613 . S
S392 N394 1.610 1_655 S
N393 S392 1.613 . S
N393 C396 1.350 1_655 S
N394 S392 1.610 1_455 S
N394 C395 1.351 . S
C395 C389 1.428 . S
C395 N394 1.351 . S
C395 C396 1.434 . S
C396 C387 1.429 . S
C396 N393 1.350 1_455 S
C396 C395 1.434 . S
C397 C398 1.369 . S
C397 C399 1.419 . S
C397 H401 0.930 . S
C398 C397 1.369 . S
C398 C407 1.429 . S
C399 C397 1.419 . S
C399 C400 1.363 . S
C399 H402 0.929 . S
C400 C399 1.363 . S
C400 C406 1.428 . S
H401 C397 0.930 . S
H402 C399 0.929 . S
S403 N404 1.613 1_455 S
S403 N405 1.610 1_455 S
N404 S403 1.613 1_655 S
N404 C407 1.350 . S
N405 S403 1.610 1_655 S
N405 C406 1.351 . S
C406 C400 1.428 . S
C406 N405 1.351 . S
C406 C407 1.434 . S
C407 C398 1.429 . S
C407 N404 1.350 . S
C407 C406 1.434 . S
C408 C409 1.369 . S
C408 C410 1.419 . S
C408 H412 0.930 . S
C409 C408 1.369 . S
C409 C418 1.429 . S
C410 C408 1.419 . S
C410 C411 1.363 . S
C410 H413 0.929 . S
C411 C410 1.363 . S
C411 C417 1.428 . S
H412 C408 0.930 . S
H413 C410 0.929 . S
S414 N415 1.613 1_565 S
S414 N416 1.612 . S
N415 S414 1.613 1_545 S
N415 C418 1.350 . S
N416 S414 1.612 . S
N416 C417 1.329 1_565 S
C417 C411 1.428 . S
C417 N416 1.329 1_545 S
C417 C418 1.434 . S
C418 C409 1.429 . S
C418 N415 1.350 . S
C418 C417 1.434 . S
C419 C420 1.369 . S
C419 C421 1.419 . S
C419 H423 0.930 . S
C420 C419 1.369 . S
C420 C429 1.429 . S
C421 C419 1.419 . S
C421 C422 1.363 . S
C421 H424 0.929 . S
C422 C421 1.363 . S
C422 C428 1.428 . S
H423 C419 0.930 . S
H424 C421 0.929 . S
S425 N426 1.613 . S
S425 N427 1.610 . S
N426 S425 1.613 . S
N426 C429 1.350 . S
N427 S425 1.610 . S
N427 C428 1.351 . S
C428 C422 1.428 . S
C428 N427 1.351 . S
C428 C429 1.434 . S
C429 C420 1.429 . S
C429 N426 1.350 . S
C429 C428 1.434 . S
C430 C431 1.369 . S
C430 C432 1.419 . S
C430 H434 0.930 . S
C431 C430 1.369 . S
C431 C440 1.429 . S
C432 C430 1.419 . S
C432 C433 1.363 . S
C432 H435 0.929 . S
C433 C432 1.363 . S
C433 C439 1.428 . S
H434 C430 0.930 . S
H435 C432 0.929 . S
S436 N437 1.613 . S
S436 N438 1.610 . S
N437 S436 1.613 . S
N437 C440 1.350 . S
N438 S436 1.610 . S
N438 C439 1.351 . S
C439 C433 1.428 . S
C439 N438 1.351 . S
C439 C440 1.434 . S
C440 C431 1.429 . S
C440 N437 1.350 . S
C440 C439 1.434 . S
C441 C442 1.369 . S
C441 C443 1.419 . S
C441 H445 0.930 . S
C442 C441 1.369 . S
C442 C451 1.429 . S
C443 C441 1.419 . S
C443 C444 1.363 . S
C443 H446 0.929 . S
C444 C443 1.363 . S
C444 C450 1.428 . S
H445 C441 0.930 . S
H446 C443 0.929 . S
S447 N448 1.613 . S
S447 N449 1.610 . S
N448 S447 1.613 . S
N448 C451 1.350 . S
N449 S447 1.610 . S
N449 C450 1.351 . S
C450 C444 1.428 . S
C450 N449 1.351 . S
C450 C451 1.434 . S
C451 C442 1.429 . S
C451 N448 1.350 . S
C451 C450 1.434 . S
C452 C453 1.369 . S
C452 C454 1.419 . S
C452 H456 0.930 . S
C453 C452 1.369 . S
C453 C462 1.429 . S
C454 C452 1.419 . S
C454 C455 1.363 . S
C454 H457 0.929 . S
C455 C454 1.363 . S
C455 C461 1.428 . S
H456 C452 0.930 . S
H457 C454 0.929 . S
S458 N459 1.613 1_545 S
S458 N460 1.610 . S
N459 S458 1.613 1_565 S
N459 C462 1.350 . S
N460 S458 1.610 . S
N460 C461 1.351 1_545 S
C461 C455 1.428 . S
C461 N460 1.351 1_565 S
C461 C462 1.434 . S
C462 C453 1.429 . S
C462 N459 1.350 . S
C462 C461 1.434 . S
C463 C464 1.369 . S
C463 C465 1.419 . S
C463 H467 0.930 . S
C464 C463 1.369 . S
C464 C473 1.429 . S
C465 C463 1.419 . S
C465 C466 1.363 . S
C465 H468 0.929 . S
C466 C465 1.363 . S
C466 C472 1.428 . S
H467 C463 0.930 . S
H468 C465 0.929 . S
S469 N470 1.613 . S
S469 N471 1.610 . S
N470 S469 1.613 . S
N470 C473 1.350 . S
N471 S469 1.610 . S
N471 C472 1.351 . S
C472 C466 1.428 . S
C472 N471 1.351 . S
C472 C473 1.434 . S
C473 C464 1.429 . S
C473 N470 1.350 . S
C473 C472 1.434 . S
C474 C475 1.369 . S
C474 C476 1.419 . S
C474 H478 0.930 . S
C475 C474 1.369 . S
C475 C484 1.429 . S
C476 C474 1.419 . S
C476 C477 1.363 . S
C476 H479 0.929 . S
C477 C476 1.363 . S
C477 C483 1.428 . S
H478 C474 0.930 . S
H479 C476 0.929 . S
S480 N481 1.613 . S
S480 N482 1.610 . S
N481 S480 1.613 . S
N481 C484 1.350 . S
N482 S480 1.610 . S
N482 C483 1.351 . S
C483 C477 1.428 . S
C483 N482 1.351 . S
C483 C484 1.434 . S
C484 C475 1.429 . S
C484 N481 1.350 . S
C484 C483 1.434 . S
C485 C486 1.369 . S
C485 C487 1.419 . S
C485 H489 0.930 . S
C486 C485 1.369 . S
C486 C495 1.429 . S
C487 C485 1.419 . S
C487 C488 1.363 . S
C487 H490 0.929 . S
C488 C487 1.363 . S
C488 C494 1.428 . S
H489 C485 0.930 . S
H490 C487 0.929 . S
S491 N492 1.613 . S
S491 N493 1.610 1_455 S
N492 S491 1.613 . S
N492 C495 1.350 1_455 S
N493 S491 1.610 1_655 S
N493 C494 1.351 . S
C494 C488 1.428 . S
C494 N493 1.351 . S
C494 C495 1.434 . S
C495 C486 1.429 . S
C495 N492 1.350 1_655 S
C495 C494 1.434 . S
C496 C497 1.369 . S
C496 C498 1.419 . S
C496 H500 0.930 . S
C497 C496 1.369 . S
C497 C506 1.429 . S
C498 C496 1.419 . S
C498 C499 1.363 . S
C498 H501 0.929 . S
C499 C498 1.363 . S
C499 C505 1.428 . S
H500 C496 0.930 . S
H501 C498 0.929 . S
S502 N503 1.613 . S
S502 N504 1.610 . S
N503 S502 1.613 . S
N503 C506 1.350 . S
N504 S502 1.610 . S
N504 C505 1.351 . S
C505 C499 1.428 . S
C505 N504 1.351 . S
C505 C506 1.434 . S
C506 C497 1.429 . S
C506 N503 1.350 . S
C506 C505 1.434 . S
C507 C508 1.369 . S
C507 C509 1.419 . S
C507 H511 0.930 . S
C508 C507 1.369 . S
C508 C517 1.429 . S
C509 C507 1.419 . S
C509 C510 1.363 . S
C509 H512 0.929 . S
C510 C509 1.363 . S
C510 C516 1.428 . S
H511 C507 0.930 . S
H512 C509 0.929 . S
S513 N514 1.613 . S
S513 N515 1.610 . S
N514 S513 1.613 . S
N514 C517 1.350 . S
N515 S513 1.610 . S
N515 C516 1.351 . S
C516 C510 1.428 . S
C516 N515 1.351 . S
C516 C517 1.434 . S
C517 C508 1.429 . S
C517 N514 1.350 . S
C517 C516 1.434 . S
C518 C519 1.369 . S
C518 C520 1.419 . S
C518 H522 0.930 . S
C519 C518 1.369 . S
C519 C528 1.429 . S
C520 C518 1.419 . S
C520 C521 1.363 . S
C520 H523 0.929 . S
C521 C520 1.363 . S
C521 C527 1.428 . S
H522 C518 0.930 . S
H523 C520 0.929 . S
S524 N525 1.613 . S
S524 N526 1.610 . S
N525 S524 1.613 . S
N525 C528 1.350 . S
N526 S524 1.610 . S
N526 C527 1.351 . S
C527 C521 1.428 . S
C527 N526 1.351 . S
C527 C528 1.434 . S
C528 C519 1.429 . S
C528 N525 1.350 . S
C528 C527 1.434 . S
C529 C530 1.369 . S
C529 C531 1.419 . S
C529 H533 0.930 . S
C530 C529 1.369 . S
C530 C539 1.429 . S
C531 C529 1.419 . S
C531 C532 1.363 . S
C531 H534 0.929 . S
C532 C531 1.363 . S
C532 C538 1.428 . S
H533 C529 0.930 . S
H534 C531 0.929 . S
S535 N536 1.613 . S
S535 N537 1.610 . S
N536 S535 1.613 . S
N536 C539 1.350 . S
N537 S535 1.610 . S
N537 C538 1.351 . S
C538 C532 1.428 . S
C538 N537 1.351 . S
C538 C539 1.434 . S
C539 C530 1.429 . S
C539 N536 1.350 . S
C539 C538 1.434 . S
C540 C541 1.369 . S
C540 C542 1.419 . S
C540 H544 0.930 . S
C541 C540 1.369 . S
C541 C550 1.429 . S
C542 C540 1.419 . S
C542 C543 1.363 . S
C542 H545 0.929 . S
C543 C542 1.363 . S
C543 C549 1.428 . S
H544 C540 0.930 . S
H545 C542 0.929 . S
S546 N547 1.613 . S
S546 N548 1.610 . S
N547 S546 1.613 . S
N547 C550 1.350 . S
N548 S546 1.610 . S
N548 C549 1.351 . S
C549 C543 1.428 . S
C549 N548 1.351 . S
C549 C550 1.434 . S
C550 C541 1.429 . S
C550 N547 1.350 . S
C550 C549 1.434 . S
C551 C552 1.369 . S
C551 C553 1.419 . S
C551 H555 0.930 . S
C552 C551 1.369 . S
C552 C561 1.429 . S
C553 C551 1.419 . S
C553 C554 1.363 . S
C553 H556 0.929 . S
C554 C553 1.363 . S
C554 C560 1.428 . S
H555 C551 0.930 . S
H556 C553 0.929 . S
S557 N558 1.613 . S
S557 N559 1.610 . S
N558 S557 1.613 . S
N558 C561 1.350 . S
N559 S557 1.610 . S
N559 C560 1.351 . S
C560 C554 1.428 . S
C560 N559 1.351 . S
C560 C561 1.434 . S
C561 C552 1.429 . S
C561 N558 1.350 . S
C561 C560 1.434 . S
C562 C563 1.369 . S
C562 C564 1.419 . S
C562 H566 0.930 . S
C563 C562 1.369 . S
C563 C572 1.429 . S
C564 C562 1.419 . S
C564 C565 1.363 . S
C564 H567 0.929 . S
C565 C564 1.363 . S
C565 C571 1.428 . S
H566 C562 0.930 . S
H567 C564 0.929 . S
S568 N569 1.613 . S
S568 N570 1.610 . S
N569 S568 1.613 . S
N569 C572 1.350 . S
N570 S568 1.610 . S
N570 C571 1.351 . S
C571 C565 1.428 . S
C571 N570 1.351 . S
C571 C572 1.434 . S
C572 C563 1.429 . S
C572 N569 1.350 . S
C572 C571 1.434 . S
C573 C574 1.369 . S
C573 C575 1.419 . S
C573 H577 0.930 . S
C574 C573 1.369 . S
C574 C583 1.429 . S
C575 C573 1.419 . S
C575 C576 1.363 . S
C575 H578 0.929 . S
C576 C575 1.363 . S
C576 C582 1.428 . S
H577 C573 0.930 . S
H578 C575 0.929 . S
S579 N580 1.613 . S
S579 N581 1.610 . S
N580 S579 1.613 . S
N580 C583 1.350 . S
N581 S579 1.610 . S
N581 C582 1.351 . S
C582 C576 1.428 . S
C582 N581 1.351 . S
C582 C583 1.434 . S
C583 C574 1.429 . S
C583 N580 1.350 . S
C583 C582 1.434 . S
C584 C585 1.369 . S
C584 C586 1.419 . S
C584 H588 0.930 . S
C585 C584 1.369 . S
C585 C594 1.429 . S
C586 C584 1.419 . S
C586 C587 1.363 . S
C586 H589 0.929 . S
C587 C586 1.363 . S
C587 C593 1.428 . S
H588 C584 0.930 . S
H589 C586 0.929 . S
S590 N591 1.613 . S
S590 N592 1.610 . S
N591 S590 1.613 . S
N591 C594 1.350 . S
N592 S590 1.610 . S
N592 C593 1.351 . S
C593 C587 1.428 . S
C593 N592 1.351 . S
C593 C594 1.434 . S
C594 C585 1.429 . S
C594 N591 1.350 . S
C594 C593 1.434 . S
C595 C596 1.369 . S
C595 C597 1.419 . S
C595 H599 0.930 . S
C596 C595 1.369 . S
C596 C605 1.429 . S
C597 C595 1.419 . S
C597 C598 1.363 . S
C597 H600 0.929 . S
C598 C597 1.363 . S
C598 C604 1.428 . S
H599 C595 0.930 . S
H600 C597 0.929 . S
S601 N602 1.613 . S
S601 N603 1.610 . S
N602 S601 1.613 . S
N602 C605 1.350 . S
N603 S601 1.610 . S
N603 C604 1.351 . S
C604 C598 1.428 . S
C604 N603 1.351 . S
C604 C605 1.434 . S
C605 C596 1.429 . S
C605 N602 1.350 . S
C605 C604 1.434 . S
C606 C607 1.369 . S
C606 C608 1.419 . S
C606 H610 0.930 . S
C607 C606 1.369 . S
C607 C616 1.429 . S
C608 C606 1.419 . S
C608 C609 1.363 . S
C608 H611 0.929 . S
C609 C608 1.363 . S
C609 C615 1.428 . S
H610 C606 0.930 . S
H611 C608 0.929 . S
S612 N613 1.613 . S
S612 N614 1.610 . S
N613 S612 1.613 . S
N613 C616 1.350 . S
N614 S612 1.610 . S
N614 C615 1.351 . S
C615 C609 1.428 . S
C615 N614 1.351 . S
C615 C616 1.434 . S
C616 C607 1.429 . S
C616 N613 1.350 . S
C616 C615 1.434 . S
C617 C618 1.369 . S
C617 C619 1.419 . S
C617 H621 0.930 . S
C618 C617 1.369 . S
C618 C627 1.429 . S
C619 C617 1.419 . S
C619 C620 1.363 . S
C619 H622 0.929 . S
C620 C619 1.363 . S
C620 C626 1.428 . S
H621 C617 0.930 . S
H622 C619 0.929 . S
S623 N624 1.613 . S
S623 N625 1.610 . S
N624 S623 1.613 . S
N624 C627 1.350 . S
N625 S623 1.610 . S
N625 C626 1.351 . S
C626 C620 1.428 . S
C626 N625 1.351 . S
C626 C627 1.434 . S
C627 C618 1.429 . S
C627 N624 1.350 . S
C627 C626 1.434 . S
C628 C629 1.369 . S
C628 C630 1.419 . S
C628 H632 0.930 . S
C629 C628 1.369 . S
C629 C638 1.429 . S
C630 C628 1.419 . S
C630 C631 1.363 . S
C630 H633 0.929 . S
C631 C630 1.363 . S
C631 C637 1.428 . S
H632 C628 0.930 . S
H633 C630 0.929 . S
S634 N635 1.613 . S
S634 N636 1.610 . S
N635 S634 1.613 . S
N635 C638 1.350 . S
N636 S634 1.610 . S
N636 C637 1.351 . S
C637 C631 1.428 . S
C637 N636 1.351 . S
C637 C638 1.434 . S
C638 C629 1.429 . S
C638 N635 1.350 . S
C638 C637 1.434 . S
C639 C640 1.369 . S
C639 C641 1.419 . S
C639 H643 0.930 . S
C640 C639 1.369 . S
C640 C649 1.429 . S
C641 C639 1.419 . S
C641 C642 1.363 . S
C641 H644 0.929 . S
C642 C641 1.363 . S
C642 C648 1.428 . S
H643 C639 0.930 . S
H644 C641 0.929 . S
S645 N646 1.613 . S
S645 N647 1.610 . S
N646 S645 1.613 . S
N646 C649 1.350 . S
N647 S645 1.610 . S
N647 C648 1.351 . S
C648 C642 1.428 . S
C648 N647 1.351 . S
C648 C649 1.434 . S
C649 C640 1.429 . S
C649 N646 1.350 . S
C649 C648 1.434 . S
C650 C651 1.369 . S
C650 C652 1.419 . S
C650 H654 0.930 . S
C651 C650 1.369 . S
C651 C660 1.429 . S
C652 C650 1.419 . S
C652 C653 1.363 . S
C652 H655 0.929 . S
C653 C652 1.363 . S
C653 C659 1.428 . S
H654 C650 0.930 . S
H655 C652 0.929 . S
S656 N657 1.613 . S
S656 N658 1.610 . S
N657 S656 1.613 . S
N657 C660 1.350 . S
N658 S656 1.610 . S
N658 C659 1.351 . S
C659 C653 1.428 . S
C659 N658 1.351 . S
C659 C660 1.434 . S
C660 C651 1.429 . S
C660 N657 1.350 . S
C660 C659 1.434 . S
C661 C662 1.369 . S
C661 C663 1.419 . S
C661 H665 0.930 . S
C662 C661 1.369 . S
C662 C671 1.429 . S
C663 C661 1.419 . S
C663 C664 1.363 . S
C663 H666 0.929 . S
C664 C663 1.363 . S
C664 C670 1.428 . S
H665 C661 0.930 . S
H666 C663 0.929 . S
S667 N668 1.613 . S
S667 N669 1.610 . S
N668 S667 1.613 . S
N668 C671 1.350 . S
N669 S667 1.610 . S
N669 C670 1.351 . S
C670 C664 1.428 . S
C670 N669 1.351 . S
C670 C671 1.434 . S
C671 C662 1.429 . S
C671 N668 1.350 . S
C671 C670 1.434 . S
C672 C673 1.369 . S
C672 C674 1.419 . S
C672 H676 0.930 . S
C673 C672 1.369 . S
C673 C682 1.429 . S
C674 C672 1.419 . S
C674 C675 1.363 . S
C674 H677 0.929 . S
C675 C674 1.363 . S
C675 C681 1.428 . S
H676 C672 0.930 . S
H677 C674 0.929 . S
S678 N679 1.613 . S
S678 N680 1.610 . S
N679 S678 1.613 . S
N679 C682 1.350 . S
N680 S678 1.610 . S
N680 C681 1.351 . S
C681 C675 1.428 . S
C681 N680 1.351 . S
C681 C682 1.434 . S
C682 C673 1.429 . S
C682 N679 1.350 . S
C682 C681 1.434 . S
C683 C684 1.369 . S
C683 C685 1.419 . S
C683 H687 0.930 . S
C684 C683 1.369 . S
C684 C693 1.429 . S
C685 C683 1.419 . S
C685 C686 1.363 . S
C685 H688 0.929 . S
C686 C685 1.363 . S
C686 C692 1.428 . S
H687 C683 0.930 . S
H688 C685 0.929 . S
S689 N690 1.613 . S
S689 N691 1.610 . S
N690 S689 1.613 . S
N690 C693 1.350 . S
N691 S689 1.610 . S
N691 C692 1.351 . S
C692 C686 1.428 . S
C692 N691 1.351 . S
C692 C693 1.434 . S
C693 C684 1.429 . S
C693 N690 1.350 . S
C693 C692 1.434 . S
C694 C695 1.369 . S
C694 C696 1.419 . S
C694 H698 0.930 . S
C695 C694 1.369 . S
C695 C704 1.429 . S
C696 C694 1.419 . S
C696 C697 1.363 . S
C696 H699 0.929 . S
C697 C696 1.363 . S
C697 C703 1.428 . S
H698 C694 0.930 . S
H699 C696 0.929 . S
S700 N701 1.613 . S
S700 N702 1.610 . S
N701 S700 1.613 . S
N701 C704 1.350 . S
N702 S700 1.610 . S
N702 C703 1.351 . S
C703 C697 1.428 . S
C703 N702 1.351 . S
C703 C704 1.434 . S
C704 C695 1.429 . S
C704 N701 1.350 . S
C704 C703 1.434 . S
C705 C706 1.369 . S
C705 C707 1.419 . S
C705 H709 0.930 . S
C706 C705 1.369 . S
C706 C715 1.429 . S
C707 C705 1.419 . S
C707 C708 1.363 . S
C707 H710 0.929 . S
C708 C707 1.363 . S
C708 C714 1.428 . S
H709 C705 0.930 . S
H710 C707 0.929 . S
S711 N712 1.613 . S
S711 N713 1.610 1_655 S
N712 S711 1.613 . S
N712 C715 1.350 1_655 S
N713 S711 1.610 1_455 S
N713 C714 1.351 . S
C714 C708 1.428 . S
C714 N713 1.351 . S
C714 C715 1.434 . S
C715 C706 1.429 . S
C715 N712 1.350 1_455 S
C715 C714 1.434 . S
C716 C717 1.369 1_556 S
C716 C718 1.419 1_556 S
C716 H720 0.930 . S
C717 C716 1.369 1_554 S
C717 C726 1.429 . S
C718 C716 1.419 1_554 S
C718 C719 1.363 . S
C718 H721 0.929 1_554 S
C719 C718 1.363 . S
C719 C725 1.428 . S
H720 C716 0.930 . S
H721 C718 0.929 1_556 S
S722 N723 1.613 . S
S722 N724 1.610 . S
N723 S722 1.613 . S
N723 C726 1.350 . S
N724 S722 1.610 . S
N724 C725 1.351 . S
C725 C719 1.428 . S
C725 N724 1.351 . S
C725 C726 1.434 . S
C726 C717 1.429 . S
C726 N723 1.350 . S
C726 C725 1.434 . S
C727 C728 1.369 . S
C727 C729 1.419 . S
C727 H731 0.930 . S
C728 C727 1.369 . S
C728 C737 1.429 . S
C729 C727 1.419 . S
C729 C730 1.363 . S
C729 H732 0.929 . S
C730 C729 1.363 . S
C730 C736 1.428 1_554 S
H731 C727 0.930 . S
H732 C729 0.929 . S
S733 N734 1.613 1_556 S
S733 N735 1.610 . S
N734 S733 1.613 1_554 S
N734 C737 1.350 . S
N735 S733 1.610 . S
N735 C736 1.351 . S
C736 C730 1.428 1_556 S
C736 N735 1.351 . S
C736 C737 1.434 1_556 S
C737 C728 1.429 . S
C737 N734 1.350 . S
C737 C736 1.434 1_554 S
C738 C739 1.369 . S
C738 C740 1.419 . S
C738 H742 0.930 . S
C739 C738 1.369 . S
C739 C748 1.429 1_554 S
C740 C738 1.419 . S
C740 C741 1.363 . S
C740 H743 0.929 . S
C741 C740 1.363 . S
C741 C747 1.428 1_554 S
H742 C738 0.930 . S
H743 C740 0.929 . S
S744 N745 1.613 . S
S744 N746 1.610 . S
N745 S744 1.613 . S
N745 C748 1.350 . S
N746 S744 1.610 . S
N746 C747 1.351 . S
C747 C741 1.428 1_556 S
C747 N746 1.351 . S
C747 C748 1.434 . S
C748 C739 1.429 1_556 S
C748 N745 1.350 . S
C748 C747 1.434 . S
C749 C750 1.369 . S
C749 C751 1.419 . S
C749 H753 0.930 . S
C750 C749 1.369 . S
C750 C759 1.429 . S
C751 C749 1.419 . S
C751 C752 1.363 . S
C751 H754 0.929 . S
C752 C751 1.363 . S
C752 C758 1.428 1_554 S
H753 C749 0.930 . S
H754 C751 0.929 . S
S755 N756 1.613 1_556 S
S755 N757 1.610 . S
N756 S755 1.613 1_554 S
N756 C759 1.350 . S
N757 S755 1.610 . S
N757 C758 1.351 . S
C758 C752 1.428 1_556 S
C758 N757 1.351 . S
C758 C759 1.434 1_556 S
C759 C750 1.429 . S
C759 N756 1.350 . S
C759 C758 1.434 1_554 S
C760 C761 1.369 . S
C760 C762 1.419 . S
C760 H764 0.930 . S
C761 C760 1.369 . S
C761 C770 1.429 . S
C762 C760 1.419 . S
C762 C763 1.363 . S
C762 H765 0.929 . S
C763 C762 1.363 . S
C763 C769 1.428 . S
H764 C760 0.930 . S
H765 C762 0.929 . S
S766 N767 1.613 . S
S766 N768 1.610 . S
N767 S766 1.613 . S
N767 C770 1.350 . S
N768 S766 1.610 . S
N768 C769 1.351 . S
C769 C763 1.428 . S
C769 N768 1.351 . S
C769 C770 1.434 . S
C770 C761 1.429 . S
C770 N767 1.350 . S
C770 C769 1.434 . S
C771 C772 1.369 . S
C771 C773 1.419 . S
C771 H775 0.930 . S
C772 C771 1.369 . S
C772 C781 1.429 . S
C773 C771 1.419 . S
C773 C774 1.363 . S
C773 H776 0.929 . S
C774 C773 1.363 . S
C774 C780 1.428 . S
H775 C771 0.930 . S
H776 C773 0.929 . S
S777 N778 1.613 . S
S777 N779 1.610 . S
N778 S777 1.613 . S
N778 C781 1.350 . S
N779 S777 1.610 . S
N779 C780 1.351 . S
C780 C774 1.428 . S
C780 N779 1.351 . S
C780 C781 1.434 . S
C781 C772 1.429 . S
C781 N778 1.350 . S
C781 C780 1.434 . S
C782 C783 1.369 . S
C782 C784 1.419 . S
C782 H786 0.930 . S
C783 C782 1.369 . S
C783 C792 1.429 . S
C784 C782 1.419 . S
C784 C785 1.363 . S
C784 H787 0.929 . S
C785 C784 1.363 . S
C785 C791 1.428 . S
H786 C782 0.930 . S
H787 C784 0.929 . S
S788 N789 1.613 . S
S788 N790 1.610 . S
N789 S788 1.613 . S
N789 C792 1.350 . S
N790 S788 1.610 . S
N790 C791 1.351 . S
C791 C785 1.428 . S
C791 N790 1.351 . S
C791 C792 1.434 . S
C792 C783 1.429 . S
C792 N789 1.350 . S
C792 C791 1.434 . S
C793 C794 1.369 . S
C793 C795 1.419 . S
C793 H797 0.930 . S
C794 C793 1.369 . S
C794 C803 1.429 . S
C795 C793 1.419 . S
C795 C796 1.363 . S
C795 H798 0.929 . S
C796 C795 1.363 . S
C796 C802 1.428 . S
H797 C793 0.930 . S
H798 C795 0.929 . S
S799 N800 1.613 . S
S799 N801 1.610 . S
N800 S799 1.613 . S
N800 C803 1.350 . S
N801 S799 1.610 . S
N801 C802 1.351 . S
C802 C796 1.428 . S
C802 N801 1.351 . S
C802 C803 1.434 . S
C803 C794 1.429 . S
C803 N800 1.350 . S
C803 C802 1.434 . S
C804 C805 1.369 . S
C804 C806 1.419 . S
C804 H808 0.930 . S
C805 C804 1.369 . S
C805 C814 1.429 . S
C806 C804 1.419 . S
C806 C807 1.363 . S
C806 H809 0.929 . S
C807 C806 1.363 . S
C807 C813 1.428 . S
H808 C804 0.930 . S
H809 C806 0.929 . S
S810 N811 1.613 . S
S810 N812 1.610 1_556 S
N811 S810 1.613 . S
N811 C814 1.350 . S
N812 S810 1.610 1_554 S
N812 C813 1.351 1_554 S
C813 C807 1.428 . S
C813 N812 1.351 1_556 S
C813 C814 1.434 . S
C814 C805 1.429 . S
C814 N811 1.350 . S
C814 C813 1.434 . S
C815 C816 1.369 . S
C815 C817 1.419 . S
C815 H819 0.930 . S
C816 C815 1.369 . S
C816 C825 1.429 1_556 S
C817 C815 1.419 . S
C817 C818 1.363 . S
C817 H820 0.929 . S
C818 C817 1.363 . S
C818 C824 1.428 1_556 S
H819 C815 0.930 . S
H820 C817 0.929 . S
S821 N822 1.613 . S
S821 N823 1.610 . S
N822 S821 1.613 . S
N822 C825 1.350 . S
N823 S821 1.610 . S
N823 C824 1.351 . S
C824 C818 1.428 1_554 S
C824 N823 1.351 . S
C824 C825 1.434 . S
C825 C816 1.429 1_554 S
C825 N822 1.350 . S
C825 C824 1.434 . S
C826 C827 1.369 1_554 S
C826 C828 1.419 1_554 S
C826 H830 0.930 . S
C827 C826 1.369 1_556 S
C827 C836 1.429 . S
C828 C826 1.419 1_556 S
C828 C829 1.363 . S
C828 H831 0.929 . S
C829 C828 1.363 . S
C829 C835 1.428 . S
H830 C826 0.930 . S
H831 C828 0.929 . S
S832 N833 1.613 . S
S832 N834 1.610 . S
N833 S832 1.613 . S
N833 C836 1.350 . S
N834 S832 1.610 . S
N834 C835 1.351 . S
C835 C829 1.428 . S
C835 N834 1.351 . S
C835 C836 1.434 . S
C836 C827 1.429 . S
C836 N833 1.350 . S
C836 C835 1.434 . S
C837 C838 1.369 1_554 S
C837 C839 1.419 1_554 S
C837 H841 0.930 . S
C838 C837 1.369 1_556 S
C838 C847 1.429 . S
C839 C837 1.419 1_556 S
C839 C840 1.363 . S
C839 H842 0.929 . S
C840 C839 1.363 . S
C840 C846 1.428 . S
H841 C837 0.930 . S
H842 C839 0.929 . S
S843 N844 1.613 . S
S843 N845 1.610 1_655 S
N844 S843 1.613 . S
N844 C847 1.350 1_655 S
N845 S843 1.610 1_455 S
N845 C846 1.351 . S
C846 C840 1.428 . S
C846 N845 1.351 . S
C846 C847 1.434 . S
C847 C838 1.429 . S
C847 N844 1.350 1_455 S
C847 C846 1.434 . S
C321 C8 1.842 . S
C323 C108 1.840 . S
C332 C128 1.836 . S
C334 C28 1.836 . S
C343 C48 1.832 . S
C345 C148 1.833 . S
C354 C68 1.832 . S
C356 C88 1.834 . S
C365 C269 1.832 . S
C367 C169 1.833 . S
C376 C289 1.837 . S
C378 C189 1.838 . S
C387 C209 1.841 . S
C389 C309 1.839 . S
C398 C229 1.843 . S
C400 C249 1.841 . S
C409 C1 1.843 . S
C411 C79 1.681 . S
C420 C21 1.842 . S
C422 C19 1.683 . S
C431 C41 1.849 . S
C433 C39 1.683 . S
C442 C61 1.848 . S
C444 C59 1.689 . S
C453 C81 1.842 . S
C455 C119 1.683 . S
C464 C139 1.691 . S
C466 C101 1.845 . S
C475 C121 1.844 . S
C477 C159 1.689 . S
C486 C99 1.680 . S
C488 C141 1.843 . S
C497 C238 1.678 . S
C499 C162 1.846 . S
C508 C182 1.842 . S
C510 C178 1.684 . S
C519 C202 1.848 . S
C521 C198 1.681 . S
C530 C222 1.843 . S
C532 C218 1.688 . S
C541 C242 1.842 . S
C543 C278 1.683 . S
C552 C262 1.849 . S
C554 C298 1.682 . S
C563 C282 1.844 . S
C565 C318 1.689 . S
C574 C302 1.849 . S
C576 C258 1.684 . S
C585 C2 0.493 . S
C587 C42 0.477 . S
C596 C22 0.476 . S
C598 C62 0.488 . S
C607 C122 0.477 . S
C609 C82 0.493 . S
C618 C142 0.493 . S
C620 C102 0.484 . S
C629 C201 0.496 . S
C631 C161 0.479 . S
C640 C221 0.481 . S
C642 C181 0.493 . S
C651 C241 0.488 . S
C653 C281 0.489 . S
C662 C261 0.483 . S
C664 C301 0.492 . S
C673 C18 1.732 . S
C675 C228 1.727 . S
C684 C168 1.726 . S
C686 C38 1.733 . S
C695 C58 1.732 . S
C697 C188 1.727 . S
C706 C208 1.728 . S
C708 C78 1.733 . S
C717 C268 1.727 1_554 S
C719 C98 1.733 . S
C728 C118 1.733 . S
C730 C288 1.726 1_554 S
C739 C308 1.726 1_554 S
C741 C138 1.734 . S
C750 C158 1.733 . S
C752 C248 1.726 1_554 S
C761 C179 1.733 . S
C763 C69 1.727 . S
C772 C199 1.733 . S
C774 C9 1.728 . S
C783 C29 1.726 . S
C785 C219 1.733 . S
C794 C239 1.733 . S
C796 C49 1.727 . S
C805 C259 1.733 . S
C807 C109 1.726 1_556 S
C816 C279 1.733 . S
C818 C129 1.727 1_556 S
C827 C149 1.728 1_556 S
C829 C299 1.732 . S
C838 C89 1.728 1_556 S
C840 C319 1.733 . S
