# Generated by pormake.
# Topology cag, (4)-cn, num edge types: 1
# Building blocks:
#     Node 0, Type 0, BuildingBlock: CEKHIL_clean_sbu_0, # of connection points: 4
#     Node 1, Type 0, BuildingBlock: CEKHIL_clean_sbu_0, # of connection points: 4
#     Node 2, Type 0, BuildingBlock: CEKHIL_clean_sbu_0, # of connection points: 4
#     Node 3, Type 0, BuildingBlock: CEKHIL_clean_sbu_0, # of connection points: 4
#     Node 4, Type 0, BuildingBlock: CEKHIL_clean_sbu_0, # of connection points: 4
#     Node 5, Type 0, BuildingBlock: CEKHIL_clean_sbu_0, # of connection points: 4
#     Node 6, Type 0, BuildingBlock: CEKHIL_clean_sbu_0, # of connection points: 4
#     Node 7, Type 0, BuildingBlock: CEKHIL_clean_sbu_0, # of connection points: 4
#     Node 8, Type 0, BuildingBlock: CEKHIL_clean_sbu_0, # of connection points: 4
#     Node 9, Type 0, BuildingBlock: CEKHIL_clean_sbu_0, # of connection points: 4
#     Node 10, Type 0, BuildingBlock: CEKHIL_clean_sbu_0, # of connection points: 4
#     Node 11, Type 0, BuildingBlock: CEKHIL_clean_sbu_0, # of connection points: 4
#     Node 12, Type 0, BuildingBlock: CEKHIL_clean_sbu_0, # of connection points: 4
#     Node 13, Type 0, BuildingBlock: CEKHIL_clean_sbu_0, # of connection points: 4
#     Node 14, Type 0, BuildingBlock: CEKHIL_clean_sbu_0, # of connection points: 4
#     Node 15, Type 0, BuildingBlock: CEKHIL_clean_sbu_0, # of connection points: 4
#     Edge 16, Type (0, 0), BuildingBlock: ZUJKAS_clean_linker_0, # of connection points: 2
#     Edge 17, Type (0, 0), BuildingBlock: ZUJKAS_clean_linker_0, # of connection points: 2
#     Edge 18, Type (0, 0), BuildingBlock: ZUJKAS_clean_linker_0, # of connection points: 2
#     Edge 19, Type (0, 0), BuildingBlock: ZUJKAS_clean_linker_0, # of connection points: 2
#     Edge 20, Type (0, 0), BuildingBlock: ZUJKAS_clean_linker_0, # of connection points: 2
#     Edge 21, Type (0, 0), BuildingBlock: ZUJKAS_clean_linker_0, # of connection points: 2
#     Edge 22, Type (0, 0), BuildingBlock: ZUJKAS_clean_linker_0, # of connection points: 2
#     Edge 23, Type (0, 0), BuildingBlock: ZUJKAS_clean_linker_0, # of connection points: 2
#     Edge 24, Type (0, 0), BuildingBlock: ZUJKAS_clean_linker_0, # of connection points: 2
#     Edge 25, Type (0, 0), BuildingBlock: ZUJKAS_clean_linker_0, # of connection points: 2
#     Edge 26, Type (0, 0), BuildingBlock: ZUJKAS_clean_linker_0, # of connection points: 2
#     Edge 27, Type (0, 0), BuildingBlock: ZUJKAS_clean_linker_0, # of connection points: 2
#     Edge 28, Type (0, 0), BuildingBlock: ZUJKAS_clean_linker_0, # of connection points: 2
#     Edge 29, Type (0, 0), BuildingBlock: ZUJKAS_clean_linker_0, # of connection points: 2
#     Edge 30, Type (0, 0), BuildingBlock: ZUJKAS_clean_linker_0, # of connection points: 2
#     Edge 31, Type (0, 0), BuildingBlock: ZUJKAS_clean_linker_0, # of connection points: 2
#     Edge 32, Type (0, 0), BuildingBlock: ZUJKAS_clean_linker_0, # of connection points: 2
#     Edge 33, Type (0, 0), BuildingBlock: ZUJKAS_clean_linker_0, # of connection points: 2
#     Edge 34, Type (0, 0), BuildingBlock: ZUJKAS_clean_linker_0, # of connection points: 2
#     Edge 35, Type (0, 0), BuildingBlock: ZUJKAS_clean_linker_0, # of connection points: 2
#     Edge 36, Type (0, 0), BuildingBlock: ZUJKAS_clean_linker_0, # of connection points: 2
#     Edge 37, Type (0, 0), BuildingBlock: ZUJKAS_clean_linker_0, # of connection points: 2
#     Edge 38, Type (0, 0), BuildingBlock: ZUJKAS_clean_linker_0, # of connection points: 2
#     Edge 39, Type (0, 0), BuildingBlock: ZUJKAS_clean_linker_0, # of connection points: 2
#     Edge 40, Type (0, 0), BuildingBlock: ZUJKAS_clean_linker_0, # of connection points: 2
#     Edge 41, Type (0, 0), BuildingBlock: ZUJKAS_clean_linker_0, # of connection points: 2
#     Edge 42, Type (0, 0), BuildingBlock: ZUJKAS_clean_linker_0, # of connection points: 2
#     Edge 43, Type (0, 0), BuildingBlock: ZUJKAS_clean_linker_0, # of connection points: 2
#     Edge 44, Type (0, 0), BuildingBlock: ZUJKAS_clean_linker_0, # of connection points: 2
#     Edge 45, Type (0, 0), BuildingBlock: ZUJKAS_clean_linker_0, # of connection points: 2
#     Edge 46, Type (0, 0), BuildingBlock: ZUJKAS_clean_linker_0, # of connection points: 2
#     Edge 47, Type (0, 0), BuildingBlock: ZUJKAS_clean_linker_0, # of connection points: 2
# Relax obj value: 0.095
# Max RMSD: 0.133
# Mean RMSD: 0.131
data_MOF--net-cag--node1-CEKHIL_clean_sbu_0--edge1-ZUJKAS_clean_linker_0
_symmetry_space_group_name_H-M    P1
_symmetry_Int_Tables_number       1
_symmetry_cell_setting            triclinic
loop_
_symmetry_equiv_pos_as_xyz
'x, y, z'
_cell_length_a     56.836652
_cell_length_b     63.183095
_cell_length_c     52.221938
_cell_angle_alpha  89.981188
_cell_angle_beta   89.998719
_cell_angle_gamma 90.003775
loop_
_atom_site_label
_atom_site_type_symbol
_atom_site_fract_x
_atom_site_fract_y
_atom_site_fract_z
_atom_type_partial_charge
Co0 Co 0.32115 0.1385 0.08 0.0
O1 O 0.29038 0.14733 0.06823 0.0
O2 O 0.32217 0.1675 0.06831 0.0
C3 C 0.32121 0.10707 0.05928 0.0
O4 O 0.35615 0.13529 0.08859 0.0
Co5 Co 0.33014 0.09833 0.11267 0.0
O6 O 0.36323 0.10208 0.10175 0.0
C7 C 0.31094 0.13698 0.13728 0.0
C8 C 0.30006 0.16537 0.06254 0.0
C9 C 0.37042 0.1201 0.09412 0.0
O10 O 0.31314 0.14761 0.1163 0.0
O11 O 0.31568 0.11722 0.13911 0.0
O12 O 0.32668 0.12437 0.04718 0.0
O13 O 0.31444 0.10948 0.08269 0.0
Co14 Co 0.18794 0.86625 0.57844 0.0
O15 O 0.21753 0.85671 0.56433 0.0
O16 O 0.18526 0.83725 0.56702 0.0
C17 C 0.18732 0.89765 0.55764 0.0
O18 O 0.15393 0.87042 0.59001 0.0
Co19 Co 0.18346 0.90658 0.61188 0.0
O20 O 0.14914 0.90302 0.60628 0.0
C21 C 0.20588 0.86808 0.63291 0.0
C22 C 0.20704 0.83886 0.55965 0.0
C23 C 0.14076 0.8855 0.59836 0.0
O24 O 0.19816 0.857 0.61396 0.0
O25 O 0.20377 0.88824 0.63415 0.0
O26 O 0.18041 0.8805 0.54614 0.0
O27 O 0.19582 0.89502 0.58033 0.0
Co28 Co 0.31699 0.86828 0.92557 0.0
O29 O 0.28659 0.85929 0.93824 0.0
O30 O 0.31842 0.83918 0.93686 0.0
C31 C 0.31758 0.89963 0.94651 0.0
O32 O 0.35168 0.87177 0.91587 0.0
Co33 Co 0.32417 0.90875 0.8927 0.0
O34 O 0.35808 0.90399 0.89905 0.0
C35 C 0.30437 0.87008 0.86887 0.0
C36 C 0.29645 0.84121 0.94331 0.0
C37 C 0.36561 0.88635 0.90754 0.0
O38 O 0.30817 0.85927 0.88944 0.0
O39 O 0.30805 0.89004 0.8673 0.0
O40 O 0.32337 0.88229 0.95833 0.0
O41 O 0.31004 0.89726 0.92339 0.0
Co42 Co 0.18776 0.13834 0.42842 0.0
O43 O 0.21814 0.14737 0.44107 0.0
O44 O 0.18582 0.16687 0.44153 0.0
C45 C 0.18809 0.10626 0.44765 0.0
O46 O 0.15304 0.13476 0.419 0.0
Co47 Co 0.18034 0.09921 0.39361 0.0
O48 O 0.14686 0.10211 0.4035 0.0
C49 C 0.19819 0.13921 0.37119 0.0
C50 C 0.20793 0.165 0.44746 0.0
C51 C 0.13918 0.11968 0.412 0.0
O52 O 0.19595 0.14889 0.39279 0.0
O53 O 0.19385 0.1195 0.36804 0.0
O54 O 0.182 0.12306 0.46038 0.0
O55 O 0.19527 0.10953 0.42452 0.0
Co56 Co 0.66669 0.87373 0.91138 0.0
O57 O 0.69765 0.87713 0.89627 0.0
O58 O 0.66664 0.86408 0.87618 0.0
C59 C 0.66517 0.906 0.93029 0.0
O60 O 0.6316 0.86913 0.9189 0.0
Co61 Co 0.6569 0.87518 0.96997 0.0
O62 O 0.62365 0.87828 0.95954 0.0
C63 C 0.67808 0.83683 0.94703 0.0
C64 C 0.68866 0.86956 0.8753 0.0
C65 C 0.61693 0.87318 0.93711 0.0
O66 O 0.67547 0.8443 0.92417 0.0
O67 O 0.67298 0.84721 0.96731 0.0
O68 O 0.66037 0.90405 0.90604 0.0
O69 O 0.67231 0.88901 0.94149 0.0
Co70 Co 0.83823 0.12898 0.41302 0.0
O71 O 0.80735 0.1256 0.39777 0.0
O72 O 0.83852 0.13842 0.37774 0.0
C73 C 0.83941 0.09684 0.43224 0.0
O74 O 0.87323 0.13361 0.42082 0.0
Co75 Co 0.8478 0.12767 0.47166 0.0
O76 O 0.88088 0.1233 0.46112 0.0
C77 C 0.82697 0.16608 0.44825 0.0
C78 C 0.81648 0.13304 0.3768 0.0
C79 C 0.88776 0.12878 0.43888 0.0
O80 O 0.82954 0.15846 0.42547 0.0
O81 O 0.832 0.15578 0.46863 0.0
O82 O 0.84446 0.09861 0.40803 0.0
O83 O 0.83232 0.11394 0.4432 0.0
Co84 Co 0.67038 0.12881 0.09856 0.0
O85 O 0.70037 0.12416 0.11527 0.0
O86 O 0.66925 0.1386 0.13371 0.0
C87 C 0.66785 0.09664 0.07962 0.0
O88 O 0.63616 0.1349 0.08883 0.0
Co89 Co 0.66438 0.12789 0.0393 0.0
O90 O 0.63033 0.12633 0.04755 0.0
C91 C 0.68884 0.16355 0.06406 0.0
C92 C 0.69092 0.13225 0.1357 0.0
C93 C 0.62249 0.13146 0.06956 0.0
O94 O 0.68122 0.15772 0.08624 0.0
O95 O 0.68603 0.15265 0.04365 0.0
O96 O 0.66208 0.09884 0.10359 0.0
O97 O 0.67664 0.11322 0.06893 0.0
Co98 Co 0.83899 0.87357 0.59962 0.0
O99 O 0.80797 0.87647 0.61466 0.0
O100 O 0.83906 0.8635 0.63467 0.0
C101 C 0.84006 0.90611 0.58141 0.0
O102 O 0.87414 0.86943 0.59205 0.0
Co103 Co 0.84906 0.87619 0.54114 0.0
O104 O 0.8818 0.88131 0.5524 0.0
C105 C 0.82858 0.83705 0.56314 0.0
C106 C 0.817 0.86883 0.63558 0.0
C107 C 0.88867 0.87531 0.57445 0.0
O108 O 0.83066 0.84426 0.58618 0.0
O109 O 0.83382 0.84777 0.54314 0.0
O110 O 0.84492 0.90385 0.60561 0.0
O111 O 0.8332 0.88921 0.56983 0.0
Co112 Co 0.82225 0.63765 0.07959 0.0
O113 O 0.7924 0.64686 0.06582 0.0
O114 O 0.82418 0.66691 0.06886 0.0
C115 C 0.82334 0.60667 0.05803 0.0
O116 O 0.85646 0.63391 0.09076 0.0
Co117 Co 0.82815 0.59674 0.11168 0.0
O118 O 0.86214 0.60056 0.10422 0.0
C119 C 0.80531 0.63445 0.13451 0.0
C120 C 0.80243 0.66498 0.06149 0.0
C121 C 0.87008 0.61852 0.09726 0.0
O122 O 0.81193 0.64604 0.11545 0.0
O123 O 0.80843 0.61438 0.13528 0.0
O124 O 0.83005 0.62407 0.04692 0.0
O125 O 0.81492 0.60875 0.08081 0.0
Co126 Co 0.68777 0.36762 0.57942 0.0
O127 O 0.71701 0.3582 0.56441 0.0
O128 O 0.68485 0.33868 0.56789 0.0
C129 C 0.68646 0.39903 0.55885 0.0
O130 O 0.65404 0.37175 0.59188 0.0
Co131 Co 0.68425 0.40771 0.6133 0.0
O132 O 0.64973 0.40373 0.61005 0.0
C133 C 0.70738 0.36925 0.63324 0.0
C134 C 0.70644 0.34036 0.55992 0.0
C135 C 0.64113 0.38647 0.60156 0.0
O136 O 0.69894 0.35824 0.61458 0.0
O137 O 0.70541 0.3894 0.63459 0.0
O138 O 0.67923 0.38193 0.5475 0.0
O139 O 0.69571 0.3964 0.58119 0.0
Co140 Co 0.81786 0.36777 0.92664 0.0
O141 O 0.78833 0.35868 0.94127 0.0
O142 O 0.81991 0.33849 0.93726 0.0
C143 C 0.81976 0.39875 0.9481 0.0
O144 O 0.85176 0.37147 0.91438 0.0
Co145 Co 0.82268 0.40856 0.89413 0.0
O146 O 0.85691 0.4047 0.90021 0.0
C147 C 0.79928 0.37079 0.87236 0.0
C148 C 0.79833 0.34048 0.94517 0.0
C149 C 0.86512 0.38682 0.90712 0.0
O150 O 0.80663 0.35934 0.89118 0.0
O151 O 0.80214 0.39089 0.87137 0.0
O152 O 0.82661 0.38132 0.95903 0.0
O153 O 0.81061 0.39669 0.92565 0.0
Co154 Co 0.68873 0.63789 0.42595 0.0
O155 O 0.7186 0.64736 0.43942 0.0
O156 O 0.68642 0.66695 0.43724 0.0
C157 C 0.68831 0.60673 0.44712 0.0
O158 O 0.65438 0.63389 0.41529 0.0
Co159 Co 0.68267 0.59734 0.39341 0.0
O160 O 0.64879 0.6007 0.40134 0.0
C161 C 0.70159 0.63631 0.36929 0.0
C162 C 0.70826 0.66524 0.44432 0.0
C163 C 0.64078 0.61854 0.40858 0.0
O164 O 0.69827 0.64695 0.39007 0.0
O165 O 0.6976 0.61642 0.36745 0.0
O166 O 0.68154 0.62398 0.45848 0.0
O167 O 0.69647 0.60899 0.42422 0.0
Co168 Co 0.16675 0.37314 0.90942 0.0
O169 O 0.19785 0.3752 0.89425 0.0
O170 O 0.16603 0.36414 0.87399 0.0
C171 C 0.16713 0.40529 0.92867 0.0
O172 O 0.13151 0.36989 0.91696 0.0
Co173 Co 0.15674 0.37491 0.96791 0.0
O174 O 0.12394 0.38049 0.95714 0.0
C175 C 0.1761 0.3357 0.94476 0.0
C176 C 0.18834 0.36856 0.87308 0.0
C177 C 0.11702 0.37526 0.93483 0.0
O178 O 0.17406 0.34332 0.92189 0.0
O179 O 0.17126 0.34622 0.96504 0.0
O180 O 0.16193 0.4037 0.90449 0.0
O181 O 0.17334 0.38792 0.93968 0.0
Co182 Co 0.33915 0.62827 0.40996 0.0
O183 O 0.30815 0.62529 0.3949 0.0
O184 O 0.3391 0.63878 0.37511 0.0
C185 C 0.34048 0.5955 0.42756 0.0
O186 O 0.37423 0.63265 0.41759 0.0
Co187 Co 0.3493 0.62502 0.46834 0.0
O188 O 0.3821 0.6203 0.45698 0.0
C189 C 0.32822 0.6642 0.44706 0.0
C190 C 0.31709 0.63329 0.37413 0.0
C191 C 0.38885 0.62668 0.43505 0.0
O192 O 0.33052 0.65732 0.42391 0.0
O193 O 0.33353 0.65326 0.46687 0.0
O194 O 0.34537 0.59812 0.40343 0.0
O195 O 0.33349 0.61221 0.43946 0.0
Co196 Co 0.17031 0.62873 0.09623 0.0
O197 O 0.20045 0.62453 0.11278 0.0
O198 O 0.16926 0.63882 0.13125 0.0
C199 C 0.16835 0.59631 0.07776 0.0
O200 O 0.13592 0.63435 0.08681 0.0
Co201 Co 0.16342 0.62686 0.03715 0.0
O202 O 0.12951 0.62483 0.04596 0.0
C203 C 0.18821 0.66299 0.06082 0.0
C204 C 0.191 0.63266 0.13319 0.0
C205 C 0.12197 0.63028 0.06797 0.0
O206 O 0.18079 0.65759 0.08326 0.0
O207 O 0.18508 0.65168 0.04077 0.0
O208 O 0.16244 0.59867 0.10168 0.0
O209 O 0.17665 0.61296 0.06681 0.0
Co210 Co 0.33956 0.37371 0.59839 0.0
O211 O 0.30835 0.37586 0.61331 0.0
O212 O 0.34018 0.36542 0.63404 0.0
C213 C 0.33933 0.40539 0.57801 0.0
O214 O 0.37486 0.37053 0.59117 0.0
Co215 Co 0.34962 0.37392 0.53982 0.0
O216 O 0.38265 0.37871 0.55019 0.0
C217 C 0.33021 0.33543 0.56438 0.0
C218 C 0.31781 0.36961 0.63469 0.0
C219 C 0.38946 0.37458 0.57288 0.0
O220 O 0.33251 0.34357 0.58693 0.0
O221 O 0.33482 0.34546 0.54368 0.0
O222 O 0.34412 0.40438 0.60234 0.0
O223 O 0.33316 0.38777 0.56756 0.0
H224 H 0.25431 0.16454 0.04606 0.0
H225 H 0.2335 0.19158 0.02124 0.0
H226 H 0.29555 0.23085 0.022 0.0
H227 H 0.31637 0.20403 0.04709 0.0
H228 H 0.25585 0.25283 0.0342 0.0
H229 H 0.24092 0.20646 0.94556 0.0
H230 H 0.23035 0.19362 0.974 0.0
H231 H 0.26136 0.19823 0.97011 0.0
C232 C 0.26352 0.17894 0.04098 0.0
C233 C 0.28701 0.18212 0.04857 0.0
C234 C 0.25167 0.19429 0.02654 0.0
C235 C 0.26311 0.21306 0.01926 0.0
C236 C 0.28643 0.21641 0.02717 0.0
H237 H 0.2124 0.31576 0.91963 0.0
H238 H 0.23384 0.2843 0.935 0.0
C239 C 0.29829 0.20108 0.0416 0.0
C240 C 0.25045 0.2297 0.00452 0.0
H241 H 0.21991 0.23914 0.94916 0.0
C242 C 0.24817 0.24984 0.01553 0.0
C243 C 0.24064 0.22591 0.97998 0.0
C244 C 0.2436 0.20495 0.96656 0.0
C245 C 0.23579 0.26608 1.00309 0.0
C246 C 0.22509 0.26203 0.97912 0.0
C247 C 0.22794 0.24212 0.96765 0.0
C248 C 0.21011 0.27823 0.96657 0.0
C249 C 0.23414 0.28748 0.01581 0.0
C250 C 0.18912 0.28448 0.97841 0.0
C251 C 0.17701 0.3023 0.96979 0.0
C252 C 0.1855 0.31415 0.94894 0.0
C253 C 0.20539 0.30682 0.93561 0.0
C254 C 0.21769 0.28896 0.94445 0.0
H255 H 0.2478 0.28954 0.03083 0.0
H256 H 0.23599 0.3004 1.00153 0.0
H257 H 0.21663 0.28908 0.02504 0.0
H258 H 0.1828 0.27624 0.99527 0.0
H259 H 0.16164 0.3075 0.98033 0.0
H260 H 0.33827 0.69008 0.48688 0.0
H261 H 0.31673 0.72145 0.50052 0.0
H262 H 0.27328 0.71772 0.43302 0.0
H263 H 0.29511 0.68607 0.41895 0.0
H264 H 0.28785 0.76128 0.45038 0.0
H265 H 0.24768 0.71177 0.52647 0.0
H266 H 0.27923 0.7104 0.52525 0.0
H267 H 0.26215 0.70059 0.49882 0.0
C268 C 0.3244 0.6961 0.47464 0.0
C269 C 0.31815 0.68544 0.452 0.0
C270 C 0.31209 0.71403 0.48251 0.0
C271 C 0.29312 0.72161 0.46807 0.0
C272 C 0.28781 0.71198 0.4445 0.0
H273 H 0.18796 0.80179 0.54233 0.0
H274 H 0.20737 0.77399 0.51748 0.0
C275 C 0.30032 0.69399 0.43645 0.0
C276 C 0.27795 0.73844 0.47897 0.0
H277 H 0.24312 0.74903 0.53066 0.0
C278 C 0.27783 0.75861 0.46776 0.0
C279 C 0.26463 0.73481 0.50144 0.0
C280 C 0.26318 0.71318 0.51362 0.0
C281 C 0.26545 0.7755 0.47907 0.0
C282 C 0.25324 0.77213 0.5024 0.0
C283 C 0.25265 0.75171 0.51296 0.0
C284 C 0.24131 0.78952 0.51655 0.0
C285 C 0.26552 0.79673 0.46586 0.0
C286 C 0.25398 0.80738 0.52469 0.0
C287 C 0.2429 0.82333 0.53885 0.0
C288 C 0.21898 0.82161 0.54545 0.0
C289 C 0.20641 0.80358 0.53762 0.0
C290 C 0.21747 0.7877 0.52333 0.0
H291 H 0.26905 0.7951 0.44503 0.0
H292 H 0.24848 0.80505 0.46845 0.0
H293 H 0.27966 0.8067 0.47417 0.0
H294 H 0.27254 0.80889 0.5204 0.0
H295 H 0.25311 0.83697 0.5447 0.0
H296 H 0.31045 0.80032 0.95095 0.0
H297 H 0.2905 0.77291 0.97592 0.0
H298 H 0.2346 0.81671 0.99362 0.0
H299 H 0.25408 0.84396 0.96794 0.0
H300 H 0.27997 0.77181 0.02593 0.0
H301 H 0.19714 0.76671 0.9698 0.0
H302 H 0.22261 0.78087 0.95837 0.0
H303 H 0.20344 0.79272 0.98173 0.0
C304 C 0.29376 0.80404 0.9599 0.0
C305 C 0.28375 0.82426 0.95727 0.0
C306 C 0.28241 0.78838 0.97427 0.0
C307 C 0.26086 0.79261 0.98645 0.0
C308 C 0.25088 0.81284 0.98394 0.0
H309 H 0.17754 0.70241 0.08 0.0
H310 H 0.19511 0.73634 0.06636 0.0
C311 C 0.2621 0.82845 0.9693 0.0
C312 C 0.24929 0.77589 1.00215 0.0
H313 H 0.19935 0.74598 0.00733 0.0
C314 C 0.26228 0.76629 0.02192 0.0
C315 C 0.22613 0.76869 0.99708 0.0
C316 C 0.21157 0.77762 0.97546 0.0
C317 C 0.25301 0.74939 0.03621 0.0
C318 C 0.23016 0.74192 0.0307 0.0
C319 C 0.21679 0.75197 0.01168 0.0
C320 C 0.22118 0.72188 0.04175 0.0
C321 C 0.26787 0.73919 0.0567 0.0
C322 C 0.23027 0.70269 0.0327 0.0
C323 C 0.22017 0.68354 0.04013 0.0
C324 C 0.20093 0.68314 0.05703 0.0
C325 C 0.19253 0.7023 0.06719 0.0
C326 C 0.20244 0.72162 0.05932 0.0
H327 H 0.28297 0.74936 0.0623 0.0
H328 H 0.25711 0.73572 0.07395 0.0
H329 H 0.2749 0.72395 0.0494 0.0
H330 H 0.24458 0.70256 0.01899 0.0
H331 H 0.22695 0.66899 0.03198 0.0
H332 H 0.34358 0.30661 0.52904 0.0
H333 H 0.3221 0.27498 0.51588 0.0
H334 H 0.27302 0.28407 0.57782 0.0
H335 H 0.29472 0.31596 0.59134 0.0
H336 H 0.29402 0.2361 0.55825 0.0
H337 H 0.24837 0.29024 0.49027 0.0
H338 H 0.27952 0.29382 0.49508 0.0
H339 H 0.25951 0.29921 0.5208 0.0
C340 C 0.32862 0.30155 0.54035 0.0
C341 C 0.32073 0.3138 0.56113 0.0
C342 C 0.31639 0.28348 0.5328 0.0
C343 C 0.29594 0.27734 0.54576 0.0
C344 C 0.28887 0.28858 0.56766 0.0
H345 H 0.18913 0.20007 0.47019 0.0
H346 H 0.20934 0.22642 0.4965 0.0
C347 C 0.3013 0.3067 0.57543 0.0
C348 C 0.28069 0.26095 0.53415 0.0
H349 H 0.24274 0.25364 0.4843 0.0
C350 C 0.28255 0.23988 0.5423 0.0
C351 C 0.26572 0.26602 0.51344 0.0
C352 C 0.26293 0.28854 0.50432 0.0
C353 C 0.27015 0.2236 0.52978 0.0
C354 C 0.256 0.22854 0.5082 0.0
C355 C 0.25365 0.24977 0.50068 0.0
C356 C 0.24374 0.21203 0.49282 0.0
C357 C 0.27226 0.20131 0.5399 0.0
C358 C 0.25636 0.19533 0.48155 0.0
C359 C 0.2448 0.18016 0.46659 0.0
C360 C 0.22044 0.18158 0.46225 0.0
C361 C 0.20792 0.19855 0.47309 0.0
C362 C 0.21945 0.21359 0.48823 0.0
H363 H 0.2772 0.2012 0.56048 0.0
H364 H 0.25554 0.19245 0.53753 0.0
H365 H 0.28627 0.19289 0.52917 0.0
H366 H 0.27522 0.19412 0.48409 0.0
H367 H 0.25497 0.16735 0.45839 0.0
H368 H 0.81954 0.7039 0.04784 0.0
H369 H 0.79929 0.7317 0.02369 0.0
H370 H 0.73716 0.69271 0.01936 0.0
H371 H 0.75735 0.66474 0.04322 0.0
H372 H 0.74913 0.71258 0.97224 0.0
H373 H 0.74725 0.76957 0.05329 0.0
H374 H 0.77591 0.75959 0.04527 0.0
H375 H 0.75394 0.74188 0.05765 0.0
C376 C 0.80153 0.70127 0.04185 0.0
C377 C 0.79 0.68217 0.04765 0.0
C378 C 0.78998 0.71718 0.02805 0.0
C379 C 0.76664 0.71435 0.0199 0.0
C380 C 0.75517 0.69522 0.02544 0.0
H381 H 0.66485 0.80855 0.98297 0.0
H382 H 0.68636 0.77729 0.9971 0.0
C383 C 0.7667 0.67931 0.03923 0.0
C384 C 0.75394 0.73148 0.00615 0.0
H385 H 0.73288 0.78168 0.01359 0.0
C386 C 0.74561 0.72774 0.9812 0.0
C387 C 0.74924 0.75117 0.01797 0.0
C388 C 0.75685 0.75583 0.04509 0.0
C389 C 0.73261 0.74316 0.96782 0.0
C390 C 0.72799 0.76283 0.97967 0.0
C391 C 0.73654 0.76661 0.00449 0.0
C392 C 0.71304 0.77939 0.96769 0.0
C393 C 0.72333 0.73814 0.94147 0.0
C394 C 0.72034 0.7905 0.94572 0.0
C395 C 0.70782 0.8084 0.93735 0.0
C396 C 0.68808 0.81549 0.95112 0.0
C397 C 0.68008 0.80351 0.97206 0.0
C398 C 0.69238 0.78566 0.98021 0.0
H399 H 0.72487 0.72103 0.93686 0.0
H400 H 0.70459 0.74292 0.9398 0.0
H401 H 0.73349 0.74722 0.92702 0.0
H402 H 0.7364 0.78607 0.93593 0.0
H403 H 0.7145 0.81749 0.92134 0.0
H404 H 0.83723 0.19339 0.4865 0.0
H405 H 0.81538 0.22495 0.49889 0.0
H406 H 0.77152 0.21867 0.43199 0.0
H407 H 0.79361 0.18676 0.41923 0.0
H408 H 0.78817 0.26411 0.45016 0.0
H409 H 0.74391 0.21336 0.52251 0.0
H410 H 0.77542 0.21097 0.52113 0.0
H411 H 0.75796 0.20272 0.49427 0.0
C412 C 0.82325 0.19893 0.47408 0.0
C413 C 0.81693 0.18746 0.45205 0.0
C414 C 0.81081 0.21697 0.48121 0.0
C415 C 0.79167 0.2239 0.46657 0.0
C416 C 0.78626 0.21347 0.44354 0.0
H417 H 0.68652 0.30437 0.54056 0.0
H418 H 0.70552 0.27685 0.51487 0.0
C419 C 0.7989 0.19533 0.43625 0.0
C420 C 0.77623 0.24066 0.47705 0.0
H421 H 0.73959 0.25048 0.52742 0.0
C422 C 0.77726 0.26116 0.46683 0.0
C423 C 0.76185 0.23666 0.49861 0.0
C424 C 0.75947 0.21471 0.50973 0.0
C425 C 0.76493 0.27799 0.4783 0.0
C426 C 0.75165 0.27421 0.50085 0.0
C427 C 0.7499 0.25348 0.51032 0.0
C428 C 0.73996 0.29149 0.51544 0.0
C429 C 0.76628 0.29961 0.46614 0.0
C430 C 0.75303 0.30873 0.52472 0.0
C431 C 0.74217 0.32453 0.53929 0.0
C432 C 0.71809 0.32324 0.54527 0.0
C433 C 0.70511 0.3058 0.53636 0.0
C434 C 0.71593 0.2901 0.52158 0.0
H435 H 0.77027 0.29849 0.44535 0.0
H436 H 0.74957 0.30848 0.46863 0.0
H437 H 0.78067 0.30876 0.47529 0.0
H438 H 0.77173 0.30985 0.52099 0.0
H439 H 0.7527 0.33771 0.546 0.0
H440 H 0.81496 0.30094 0.95674 0.0
H441 H 0.79513 0.27317 0.98135 0.0
H442 H 0.73457 0.31356 0.99057 0.0
H443 H 0.75408 0.34124 0.96565 0.0
H444 H 0.77885 0.27438 0.03142 0.0
H445 H 0.70524 0.25913 0.9639 0.0
H446 H 0.731 0.27408 0.95491 0.0
H447 H 0.70814 0.28627 0.97357 0.0
C448 C 0.79733 0.30384 0.9638 0.0
C449 C 0.78604 0.32326 0.95908 0.0
C450 C 0.78606 0.28799 0.97795 0.0
C451 C 0.76326 0.29118 0.98758 0.0
C452 C 0.75197 0.31056 0.98294 0.0
H453 H 0.67224 0.20338 0.07336 0.0
H454 H 0.69023 0.23675 0.05864 0.0
C455 C 0.7632 0.32641 0.96874 0.0
C456 C 0.75153 0.27433 1.00283 0.0
H457 H 0.70403 0.24115 1.00355 0.0
C458 C 0.76245 0.26717 0.02536 0.0
C459 C 0.73006 0.26498 0.99498 0.0
C460 C 0.71798 0.27134 0.97041 0.0
C461 C 0.75264 0.25075 0.04006 0.0
C462 C 0.73144 0.2412 0.03196 0.0
C463 C 0.72018 0.24869 0.00984 0.0
C464 C 0.72199 0.22192 0.04447 0.0
C465 C 0.76506 0.24356 0.06404 0.0
C466 C 0.73406 0.2027 0.04172 0.0
C467 C 0.72375 0.18379 0.04978 0.0
C468 C 0.70136 0.18379 0.06111 0.0
C469 C 0.68975 0.20311 0.06515 0.0
C470 C 0.69991 0.22208 0.05661 0.0
H471 H 0.77784 0.25558 0.07097 0.0
H472 H 0.75219 0.24019 0.07952 0.0
H473 H 0.77483 0.22874 0.05995 0.0
H474 H 0.75093 0.2022 0.03208 0.0
H475 H 0.73284 0.16901 0.04616 0.0
H476 H 0.84134 0.8099 0.52566 0.0
H477 H 0.81998 0.7787 0.51103 0.0
H478 H 0.77173 0.78486 0.57427 0.0
H479 H 0.79336 0.81633 0.58931 0.0
H480 H 0.78672 0.74005 0.55806 0.0
H481 H 0.75251 0.79113 0.47994 0.0
H482 H 0.78392 0.7918 0.48391 0.0
H483 H 0.76523 0.80176 0.50891 0.0
C484 C 0.82651 0.80436 0.53684 0.0
C485 C 0.81884 0.81568 0.55848 0.0
C486 C 0.81431 0.78655 0.52841 0.0
C487 C 0.79406 0.77975 0.54128 0.0
C488 C 0.7873 0.78997 0.56403 0.0
H489 H 0.68974 0.70272 0.46105 0.0
H490 H 0.7091 0.72992 0.4869 0.0
C491 C 0.7997 0.80785 0.57266 0.0
C492 C 0.77899 0.76337 0.52925 0.0
H493 H 0.74648 0.75414 0.47543 0.0
C494 C 0.77769 0.74312 0.54015 0.0
C495 C 0.767 0.76754 0.50605 0.0
C496 C 0.76699 0.78928 0.49406 0.0
C497 C 0.76536 0.72667 0.52787 0.0
C498 C 0.75442 0.73056 0.50393 0.0
C499 C 0.75503 0.75107 0.49362 0.0
C500 C 0.74255 0.71363 0.48892 0.0
C501 C 0.76412 0.70531 0.54071 0.0
C502 C 0.75501 0.69559 0.481 0.0
C503 C 0.74398 0.68001 0.4662 0.0
C504 C 0.72032 0.68227 0.4588 0.0
C505 C 0.70799 0.70052 0.46637 0.0
C506 C 0.71902 0.71605 0.48124 0.0
H507 H 0.76693 0.7066 0.56171 0.0
H508 H 0.74688 0.69757 0.53721 0.0
H509 H 0.77815 0.69498 0.53284 0.0
H510 H 0.77337 0.69364 0.48603 0.0
H511 H 0.754 0.66618 0.46062 0.0
H512 H 0.31746 0.06888 0.08317 0.0
H513 H 0.31916 0.03368 0.06379 0.0
H514 H 0.3306 0.0618 0.98963 0.0
H515 H 0.32921 0.09725 0.00893 0.0
H516 H 0.28994 0.02827 0.99878 0.0
H517 H 0.38039 0.00447 0.02809 0.0
H518 H 0.36204 0.01781 0.05115 0.0
H519 H 0.37223 0.03187 0.02349 0.0
C520 C 0.32052 0.06762 0.06276 0.0
C521 C 0.32322 0.08584 0.04755 0.0
C522 C 0.32154 0.04749 0.05176 0.0
C523 C 0.32513 0.04521 0.02537 0.0
C524 C 0.32793 0.06331 0.01009 0.0
H525 H 0.31347 0.93779 0.92274 0.0
H526 H 0.31592 0.97293 0.94188 0.0
C527 C 0.32715 0.0835 0.02113 0.0
C528 C 0.32487 0.0239 0.01368 0.0
H529 H 0.35723 0.9787 0.00727 0.0
C530 C 0.30467 0.01743 1.00046 0.0
C531 C 0.34398 0.0098 0.01636 0.0
C532 C 0.36601 0.01622 0.03043 0.0
C533 C 0.30295 0.99702 0.98998 0.0
C534 C 0.32228 0.98296 0.99215 0.0
C535 C 0.34247 0.98948 0.00553 0.0
C536 C 0.32194 0.96154 0.98042 0.0
C537 C 0.28017 0.99057 0.97733 0.0
C538 C 0.32556 0.9434 0.9955 0.0
C539 C 0.32457 0.9232 0.98448 0.0
C540 C 0.3199 0.92084 0.95821 0.0
C541 C 0.31686 0.93905 0.94309 0.0
C542 C 0.31808 0.95918 0.95404 0.0
H543 H 0.26517 1.00034 0.98415 0.0
H544 H 0.28171 0.99289 0.95634 0.0
H545 H 0.27608 0.97366 0.98104 0.0
H546 H 0.32875 0.94486 0.01587 0.0
H547 H 0.32704 0.90946 0.99659 0.0
H548 H 0.16779 0.90846 0.51141 0.0
H549 H 0.16648 0.94377 0.49175 0.0
H550 H 0.20167 0.96998 0.55763 0.0
H551 H 0.20303 0.93493 0.57738 0.0
H552 H 0.14654 0.98337 0.51317 0.0
H553 H 0.24268 0.98732 0.49416 0.0
H554 H 0.22751 0.96269 0.5002 0.0
H555 H 0.23453 0.9801 0.52628 0.0
C556 C 0.17518 0.92176 0.52171 0.0
C557 C 0.18561 0.9189 0.54588 0.0
C558 C 0.17439 0.9419 0.51048 0.0
C559 C 0.18422 0.95939 0.52314 0.0
C560 C 0.19426 0.95662 0.54743 0.0
H561 H 0.17175 0.09454 0.49493 0.0
H562 H 0.16975 0.05867 0.51277 0.0
C563 C 0.19494 0.93659 0.5587 0.0
C564 C 0.18422 0.98058 0.51098 0.0
H565 H 0.22081 0.01875 0.48736 0.0
C566 C 0.16274 0.99111 0.50741 0.0
C567 C 0.20539 0.99051 0.50334 0.0
C568 C 0.22886 0.97957 0.50595 0.0
C569 C 0.16191 0.01155 0.49682 0.0
C570 C 0.18314 0.02171 0.48982 0.0
C571 C 0.20457 0.01098 0.49294 0.0
C572 C 0.18356 0.04338 0.47888 0.0
C573 C 0.13834 0.02204 0.49294 0.0
C574 C 0.1923 0.04668 0.45408 0.0
C575 C 0.19351 0.06711 0.44389 0.0
C576 C 0.18618 0.08466 0.4584 0.0
C577 C 0.17744 0.08133 0.48326 0.0
C578 C 0.17616 0.06085 0.49342 0.0
H579 H 0.12366 0.01044 0.49372 0.0
H580 H 0.13551 0.0339 0.5083 0.0
H581 H 0.13772 0.03042 0.47425 0.0
H582 H 0.1982 0.03343 0.4426 0.0
H583 H 0.20038 0.06914 0.4247 0.0
H584 H 0.65949 0.94657 0.91204 0.0
H585 H 0.65707 0.97929 0.93748 0.0
H586 H 0.6594 0.94245 0.00697 0.0
H587 H 0.66274 0.91015 0.98197 0.0
H588 H 0.62633 0.99431 0.97359 0.0
H589 H 0.7137 0.98202 0.01813 0.0
H590 H 0.7036 0.96646 0.99136 0.0
H591 H 0.69432 0.96007 0.02343 0.0
C592 C 0.65943 0.94552 0.93274 0.0
C593 C 0.66164 0.9258 0.94497 0.0
C594 C 0.65803 0.96419 0.94725 0.0
C595 C 0.65869 0.96337 0.97417 0.0
C596 C 0.65964 0.94358 0.98628 0.0
H597 H 0.65563 0.05716 0.0974 0.0
H598 H 0.65115 0.02457 0.07204 0.0
C599 C 0.66138 0.92506 0.97189 0.0
C600 C 0.65885 0.98306 0.9898 0.0
H601 H 0.68971 0.00889 0.03652 0.0
C602 C 0.64024 0.99754 0.98724 0.0
C603 C 0.67708 0.98735 0.0076 0.0
C604 C 0.69842 0.97327 0.01013 0.0
C605 C 0.63919 0.01597 1.00233 0.0
C606 C 0.65717 0.01997 0.0204 0.0
C607 C 0.67576 0.00556 0.02293 0.0
C608 C 0.65797 0.03974 0.03564 0.0
C609 C 0.61881 0.03101 0.99905 0.0
C610 C 0.66337 0.05892 0.02355 0.0
C611 C 0.66622 0.07736 0.03793 0.0
C612 C 0.6636 0.07706 0.06472 0.0
C613 C 0.6577 0.05789 0.0768 0.0
C614 C 0.65512 0.03931 0.06236 0.0
H615 H 0.60418 0.02376 0.98799 0.0
H616 H 0.61204 0.03618 0.01799 0.0
H617 H 0.6249 0.0453 0.98863 0.0
H618 H 0.66597 0.05951 1.00301 0.0
H619 H 0.67079 0.09182 0.02798 0.0
H620 H 0.84782 0.05642 0.41469 0.0
H621 H 0.85071 0.02394 0.44057 0.0
H622 H 0.84271 0.06088 0.50945 0.0
H623 H 0.83901 0.09291 0.48399 0.0
H624 H 0.88084 0.01101 0.47904 0.0
H625 H 0.79029 0.01847 0.5173 0.0
H626 H 0.8008 0.03431 0.49094 0.0
H627 H 0.80781 0.04152 0.52341 0.0
C628 C 0.84671 0.05754 0.43535 0.0
C629 C 0.84289 0.07719 0.44725 0.0
C630 C 0.84839 0.03902 0.45011 0.0
C631 C 0.84634 0.03993 0.47694 0.0
C632 C 0.84363 0.05968 0.48878 0.0
H633 H 0.84878 0.94597 0.60042 0.0
H634 H 0.85258 0.979 0.5757 0.0
C635 C 0.84167 0.07803 0.47413 0.0
C636 C 0.84664 0.02036 0.49274 0.0
H637 H 0.81488 0.99293 0.53739 0.0
C638 C 0.86638 0.00701 0.4917 0.0
C639 C 0.82773 0.0151 0.50927 0.0
C640 C 0.80537 0.02798 0.51014 0.0
C641 C 0.86782 0.98874 0.50703 0.0
C642 C 0.84908 0.98374 0.52375 0.0
C643 C 0.82939 0.99705 0.52483 0.0
C644 C 0.84863 0.96387 0.53879 0.0
C645 C 0.88939 0.97491 0.50539 0.0
C646 C 0.84504 0.94459 0.52619 0.0
C647 C 0.84255 0.92591 0.54016 0.0
C648 C 0.84377 0.92606 0.56708 0.0
C649 C 0.84784 0.94535 0.57972 0.0
C650 C 0.85003 0.96418 0.56565 0.0
H651 H 0.90413 0.98297 0.49538 0.0
H652 H 0.89531 0.97018 0.52484 0.0
H653 H 0.885 0.96027 0.49467 0.0
H654 H 0.84358 0.94407 0.50551 0.0
H655 H 0.8394 0.91136 0.52978 0.0
H656 H 0.7942 0.43405 0.9387 0.0
H657 H 0.79907 0.46913 0.95739 0.0
H658 H 0.85824 0.44654 1.00144 0.0
H659 H 0.85239 0.4109 0.98382 0.0
H660 H 0.83361 0.47053 0.02996 0.0
H661 H 0.84438 0.51365 0.93905 0.0
H662 H 0.81685 0.4999 0.93885 0.0
H663 H 0.84401 0.48514 0.94037 0.0
C664 C 0.80828 0.43659 0.95234 0.0
C665 C 0.823 0.41983 0.95974 0.0
C666 C 0.81124 0.45673 0.96281 0.0
C667 C 0.82953 0.46078 0.98023 0.0
C668 C 0.84414 0.44393 0.98786 0.0
H669 H 0.85431 0.59427 0.02067 0.0
H670 H 0.859 0.55859 1.00273 0.0
C671 C 0.8408 0.42358 0.97783 0.0
C672 C 0.83258 0.48236 0.99126 0.0
H673 H 0.83278 0.53483 0.97549 0.0
C674 C 0.8338 0.48456 0.01799 0.0
C675 C 0.8335 0.50077 0.97577 0.0
C676 C 0.8349 0.49971 0.94693 0.0
C677 C 0.83477 0.50457 0.02963 0.0
C678 C 0.83338 0.523 0.0142 0.0
C679 C 0.83333 0.52079 0.98744 0.0
C680 C 0.83107 0.54459 0.02538 0.0
C681 C 0.83751 0.50562 0.05835 0.0
C682 C 0.8136 0.54878 0.04371 0.0
C683 C 0.81131 0.56894 0.05432 0.0
C684 C 0.82589 0.58558 0.0462 0.0
C685 C 0.84285 0.5817 0.02723 0.0
C686 C 0.84553 0.56132 0.01702 0.0
H687 H 0.84717 0.49158 0.06571 0.0
H688 H 0.84709 0.52009 0.0644 0.0
H689 H 0.81985 0.50559 0.06741 0.0
H690 H 0.80154 0.53649 0.04973 0.0
H691 H 0.79785 0.57158 0.06865 0.0
H692 H 0.7119 0.43411 0.57024 0.0
H693 H 0.70871 0.46923 0.55118 0.0
H694 H 0.65157 0.44746 0.50352 0.0
H695 H 0.65573 0.41181 0.52158 0.0
H696 H 0.67858 0.47054 0.4764 0.0
H697 H 0.66344 0.51477 0.56582 0.0
H698 H 0.69061 0.50054 0.56794 0.0
H699 H 0.66325 0.48625 0.56489 0.0
C700 C 0.69858 0.43684 0.55577 0.0
C701 C 0.68397 0.4203 0.54746 0.0
C702 C 0.6966 0.45701 0.54506 0.0
C703 C 0.67942 0.46128 0.52642 0.0
C704 C 0.66484 0.44467 0.51801 0.0
H705 H 0.65631 0.59401 0.48308 0.0
H706 H 0.65161 0.55842 0.50113 0.0
C707 C 0.66721 0.42431 0.52832 0.0
C708 C 0.67752 0.48278 0.5149 0.0
H709 H 0.67687 0.5354 0.52979 0.0
C710 C 0.67786 0.4847 0.48811 0.0
C711 C 0.67598 0.50135 0.53002 0.0
C712 C 0.67301 0.5006 0.55873 0.0
C713 C 0.67763 0.50459 0.47609 0.0
C714 C 0.6782 0.52318 0.49128 0.0
C715 C 0.67691 0.52124 0.51805 0.0
C716 C 0.68063 0.5447 0.47992 0.0
C717 C 0.67641 0.50531 0.44723 0.0
C718 C 0.69867 0.54904 0.46228 0.0
C719 C 0.70093 0.56916 0.45149 0.0
C720 C 0.68578 0.58561 0.45885 0.0
C721 C 0.66824 0.58158 0.47713 0.0
C722 C 0.66556 0.56125 0.48742 0.0
H723 H 0.66733 0.49111 0.43948 0.0
H724 H 0.667 0.51962 0.44035 0.0
H725 H 0.69452 0.50539 0.4393 0.0
H726 H 0.71118 0.5369 0.45693 0.0
H727 H 0.71483 0.57195 0.4377 0.0
H728 H 0.17931 0.58961 0.02791 0.0
H729 H 0.17549 0.55716 1.00319 0.0
H730 H 0.14626 0.52538 0.06898 0.0
H731 H 0.14992 0.55819 0.09412 0.0
H732 H 0.19767 0.51844 0.01585 0.0
H733 H 0.10036 0.51056 0.00887 0.0
H734 H 0.11459 0.53527 0.01687 0.0
H735 H 0.11231 0.51468 0.0404 0.0
C736 C 0.17188 0.57582 0.0372 0.0
C737 C 0.16496 0.57649 0.06305 0.0
C738 C 0.1697 0.55726 0.02297 0.0
C739 C 0.16044 0.53891 0.03414 0.0
C740 C 0.15316 0.53948 0.05988 0.0
H741 H 0.17789 0.4112 0.97881 0.0
H742 H 0.17494 0.44362 0.00392 0.0
C743 C 0.15538 0.55817 0.07425 0.0
C744 C 0.15991 0.51903 0.01899 0.0
H745 H 0.12324 0.48292 0.99094 0.0
C746 C 0.18139 0.51066 0.01045 0.0
C747 C 0.13864 0.50908 0.01172 0.0
C748 C 0.11509 0.51786 0.01972 0.0
C749 C 0.18221 0.49251 0.99502 0.0
C750 C 0.161 0.48236 0.98804 0.0
C751 C 0.13946 0.49078 0.99635 0.0
C752 C 0.16119 0.46255 0.97286 0.0
C753 C 0.20578 0.48434 0.98609 0.0
C754 C 0.15409 0.46239 0.94709 0.0
C755 C 0.15585 0.44379 0.93251 0.0
C756 C 0.1646 0.4251 0.94362 0.0
C757 C 0.17116 0.42531 0.9696 0.0
C758 C 0.16948 0.44383 0.98403 0.0
H759 H 0.22003 0.49613 0.989 0.0
H760 H 0.21032 0.46985 0.99705 0.0
H761 H 0.20508 0.48004 0.96549 0.0
H762 H 0.14764 0.47673 0.93816 0.0
H763 H 0.15056 0.44408 0.91259 0.0
H764 H 0.35027 0.55609 0.40776 0.0
H765 H 0.35376 0.52263 0.43166 0.0
H766 H 0.34223 0.55609 0.50246 0.0
H767 H 0.33848 0.58925 0.47899 0.0
H768 H 0.38216 0.52392 0.50054 0.0
H769 H 0.29406 0.49508 0.4693 0.0
H770 H 0.31394 0.50498 0.44524 0.0
H771 H 0.30183 0.52279 0.46848 0.0
C772 C 0.34863 0.55628 0.42842 0.0
C773 C 0.34398 0.5753 0.44145 0.0
C774 C 0.35061 0.5372 0.44202 0.0
C775 C 0.34816 0.53695 0.4688 0.0
C776 C 0.3442 0.55597 0.48182 0.0
H777 H 0.34814 0.44602 0.59433 0.0
H778 H 0.35179 0.47788 0.56767 0.0
C779 C 0.342 0.57492 0.46831 0.0
C780 C 0.34863 0.51686 0.48344 0.0
H781 H 0.31509 0.47374 0.49804 0.0
C782 C 0.36762 0.51281 0.49991 0.0
C783 C 0.32958 0.50253 0.48259 0.0
C784 C 0.30856 0.50646 0.4656 0.0
C785 C 0.36813 0.49466 0.5155 0.0
C786 C 0.34877 0.48053 0.51514 0.0
C787 C 0.3299 0.48456 0.49841 0.0
C788 C 0.34765 0.46132 0.53161 0.0
C789 C 0.38956 0.49063 0.53183 0.0
C790 C 0.34358 0.4415 0.52037 0.0
C791 C 0.34103 0.42346 0.53554 0.0
C792 C 0.34264 0.42474 0.56237 0.0
C793 C 0.34698 0.44452 0.57371 0.0
C794 C 0.34926 0.4627 0.55846 0.0
H795 H 0.40525 0.49908 0.52429 0.0
H796 H 0.38621 0.49651 0.55151 0.0
H797 H 0.39364 0.47347 0.53293 0.0
H798 H 0.34219 0.43999 0.49976 0.0
H799 H 0.3377 0.40849 0.52613 0.0
H800 H 0.59804 0.14826 0.11027 0.0
H801 H 0.55529 0.1499 0.1159 0.0
H802 H 0.54561 0.11947 0.04274 0.0
H803 H 0.58809 0.11835 0.03661 0.0
H804 H 0.51532 0.15143 0.0484 0.0
H805 H 0.51349 0.10116 0.13558 0.0
H806 H 0.53123 0.12452 0.13871 0.0
H807 H 0.53958 0.10425 0.11629 0.0
C808 C 0.58681 0.14195 0.09535 0.0
C809 C 0.59658 0.1331 0.07302 0.0
C810 C 0.56235 0.14278 0.09868 0.0
C811 C 0.54718 0.13446 0.07995 0.0
C812 C 0.5569 0.12597 0.05749 0.0
H813 H 0.40511 0.09022 0.09436 0.0
H814 H 0.44746 0.09555 0.09116 0.0
C815 C 0.58127 0.12532 0.05403 0.0
C816 C 0.52118 0.13439 0.08353 0.0
H817 H 0.47729 0.11564 0.12207 0.0
C818 C 0.50699 0.14366 0.06456 0.0
C819 C 0.51029 0.12406 0.10448 0.0
C820 C 0.52438 0.11275 0.12482 0.0
C821 C 0.4823 0.14261 0.0657 0.0
C822 C 0.47142 0.13248 0.0868 0.0
C823 C 0.48561 0.12353 0.10599 0.0
C824 C 0.44545 0.12969 0.08857 0.0
C825 C 0.46819 0.15159 0.04376 0.0
C826 C 0.43007 0.14712 0.08828 0.0
C827 C 0.40567 0.14409 0.0898 0.0
C828 C 0.39621 0.12359 0.09211 0.0
C829 C 0.41172 0.10624 0.0927 0.0
C830 C 0.436 0.10926 0.0909 0.0
H831 H 0.47912 0.15376 0.02631 0.0
H832 H 0.45311 0.14116 0.03892 0.0
H833 H 0.46116 0.16731 0.04932 0.0
H834 H 0.43692 0.16308 0.08711 0.0
H835 H 0.39426 0.15782 0.08952 0.0
H836 H 0.91249 0.85576 0.61391 0.0
H837 H 0.95517 0.85473 0.62083 0.0
H838 H 0.96555 0.89332 0.55363 0.0
H839 H 0.9233 0.89394 0.54621 0.0
H840 H 0.99529 0.86072 0.55399 0.0
H841 H 0.99748 0.90057 0.64871 0.0
H842 H 0.97954 0.8772 0.64769 0.0
H843 H 0.97141 0.89997 0.62901 0.0
C844 C 0.92388 0.86409 0.60068 0.0
C845 C 0.91441 0.87489 0.57948 0.0
C846 C 0.94828 0.86359 0.60474 0.0
C847 C 0.96362 0.87418 0.58792 0.0
C848 C 0.95414 0.88501 0.56686 0.0
H849 H 0.10676 0.91553 0.60609 0.0
H850 H 0.06414 0.91102 0.60448 0.0
C851 C 0.92989 0.88535 0.56266 0.0
C852 C 0.9896 0.87374 0.59157 0.0
H853 H 0.03371 0.88796 0.63258 0.0
C854 C 0.00369 0.8666 0.57122 0.0
C855 C 1.00058 0.88161 0.61397 0.0
C856 C 0.98653 0.89046 0.63602 0.0
C857 C 0.02836 0.86747 0.5724 0.0
C858 C 0.03936 0.87512 0.5949 0.0
C859 C 0.02529 0.88195 0.61543 0.0
C860 C 0.06536 0.87737 0.5969 0.0
C861 C 0.04232 0.861 0.54909 0.0
C862 C 0.08034 0.85988 0.5936 0.0
C863 C 0.10481 0.86245 0.5942 0.0
C864 C 0.11481 0.88251 0.59857 0.0
C865 C 0.09973 0.89985 0.60267 0.0
C866 C 0.0753 0.8973 0.6018 0.0
H867 H 0.03131 0.8609 0.53151 0.0
H868 H 0.05745 0.87181 0.54593 0.0
H869 H 0.04926 0.84476 0.55194 0.0
H870 H 0.07311 0.84425 0.59043 0.0
H871 H 0.11586 0.84871 0.59125 0.0
H872 H 0.3995 0.90926 0.88284 0.0
H873 H 0.44202 0.90448 0.88448 0.0
H874 H 0.43316 0.85096 0.93485 0.0
H875 H 0.39038 0.8553 0.93279 0.0
H876 H 0.4697 0.90781 0.92518 0.0
H877 H 0.47997 0.82749 0.88411 0.0
H878 H 0.45285 0.84223 0.8818 0.0
H879 H 0.46009 0.82827 0.91078 0.0
C880 C 0.40651 0.89632 0.89411 0.0
C881 C 0.39144 0.88266 0.90771 0.0
C882 C 0.43088 0.89359 0.89498 0.0
C883 C 0.44086 0.87721 0.90952 0.0
C884 C 0.42591 0.86341 0.92298 0.0
H885 H 0.58123 0.87765 0.97176 0.0
H886 H 0.53904 0.87786 0.96377 0.0
C887 C 0.40142 0.866 0.92193 0.0
C888 C 0.46691 0.87563 0.9119 0.0
H889 H 0.5138 0.8422 0.90473 0.0
C890 C 0.47931 0.89348 0.92054 0.0
C891 C 0.47957 0.85704 0.90554 0.0
C892 C 0.46748 0.83774 0.89479 0.0
C893 C 0.50384 0.89315 0.92351 0.0
C894 C 0.51638 0.8743 0.91825 0.0
C895 C 0.50413 0.85657 0.909 0.0
C896 C 0.54209 0.87268 0.92298 0.0
C897 C 0.51616 0.91309 0.93208 0.0
C898 C 0.5579 0.86893 0.9028 0.0
C899 C 0.58224 0.86869 0.90731 0.0
C900 C 0.59117 0.87211 0.93212 0.0
C901 C 0.57513 0.87517 0.95235 0.0
C902 C 0.55092 0.87537 0.94783 0.0
H903 H 0.50529 0.92739 0.92837 0.0
H904 H 0.51949 0.91221 0.95299 0.0
H905 H 0.53333 0.915 0.9222 0.0
H906 H 0.55143 0.8667 0.88348 0.0
H907 H 0.59403 0.86622 0.89129 0.0
H908 H 0.10466 0.08981 0.40726 0.0
H909 H 0.06221 0.09487 0.4092 0.0
H910 H 0.07226 0.16182 0.42095 0.0
H911 H 0.11498 0.15681 0.41975 0.0
H912 H 0.03997 0.14679 0.45287 0.0
H913 H 0.01893 0.11822 0.35558 0.0
H914 H 0.03515 0.09878 0.37328 0.0
H915 H 0.04866 0.1238 0.36564 0.0
C916 C 0.09792 0.10566 0.4101 0.0
C917 C 0.11331 0.12293 0.41318 0.0
C918 C 0.07356 0.10855 0.411 0.0
C919 C 0.06395 0.1288 0.41456 0.0
C920 C 0.07924 0.14607 0.41793 0.0
H921 H 0.91098 0.14697 0.39811 0.0
H922 H 0.95363 0.14941 0.3915 0.0
C923 C 0.10367 0.14317 0.41727 0.0
C924 C 0.038 0.13169 0.41596 0.0
H925 H 0.98661 0.11945 0.38537 0.0
C926 C 0.02833 0.14105 0.43795 0.0
C927 C 0.02273 0.12463 0.39628 0.0
C928 C 0.03192 0.11602 0.37126 0.0
C929 C 0.00388 0.14264 0.44133 0.0
C930 C 0.98861 0.1341 0.42254 0.0
C931 C 0.99826 0.12568 0.39999 0.0
C932 C 0.96271 0.13289 0.42646 0.0
C933 C 0.99469 0.1535 0.46504 0.0
C934 C 0.9536 0.12244 0.44799 0.0
C935 C 0.92934 0.12117 0.45191 0.0
C936 C 0.91351 0.13003 0.43415 0.0
C937 C 0.92264 0.14003 0.41221 0.0
C938 C 0.94702 0.14146 0.40842 0.0
H939 H 0.0076 0.16517 0.47255 0.0
H940 H 0.97784 0.1618 0.46122 0.0
H941 H 0.99169 0.14151 0.48022 0.0
H942 H 0.96527 0.11508 0.46176 0.0
H943 H 0.92302 0.11305 0.46883 0.0
H944 H 0.09802 0.64675 0.10923 0.0
H945 H 0.0554 0.6476 0.11601 0.0
H946 H 0.04475 0.61695 0.04315 0.0
H947 H 0.08711 0.61659 0.03588 0.0
H948 H 0.01402 0.64838 0.04952 0.0
H949 H 0.01483 0.59833 0.13683 0.0
H950 H 0.03231 0.62186 0.13956 0.0
H951 H 0.04045 0.60172 0.11688 0.0
C952 C 0.08662 0.64023 0.09462 0.0
C953 C 0.09609 0.63154 0.07204 0.0
C954 C 0.06223 0.64059 0.09861 0.0
C955 C 0.04683 0.63197 0.08032 0.0
C956 C 0.05623 0.62364 0.0576 0.0
H957 H 0.90434 0.58817 0.09909 0.0
H958 H 0.94681 0.59292 0.09551 0.0
C959 C 0.08053 0.62345 0.05348 0.0
C960 C 0.02091 0.63155 0.08458 0.0
H961 H 0.97815 0.61282 0.12464 0.0
C962 C 0.00617 0.64064 0.06598 0.0
C963 C 0.01063 0.62122 0.1059 0.0
C964 C 0.02533 0.61004 0.12582 0.0
C965 C 0.98153 0.63952 0.06793 0.0
C966 C 0.97125 0.62954 0.0895 0.0
C967 C 0.98599 0.62063 0.10823 0.0
C968 C 0.94531 0.62705 0.0923 0.0
C969 C 0.96683 0.64832 0.04634 0.0
C970 C 0.93022 0.64467 0.09208 0.0
C971 C 0.9058 0.64198 0.09382 0.0
C972 C 0.89599 0.62163 0.0963 0.0
C973 C 0.91123 0.60408 0.09726 0.0
C974 C 0.93557 0.60677 0.09522 0.0
H975 H 0.97723 0.6501 0.02845 0.0
H976 H 0.95147 0.63799 0.04229 0.0
H977 H 0.96021 0.66421 0.0518 0.0
H978 H 0.93731 0.66053 0.09055 0.0
H979 H 0.89462 0.65586 0.09327 0.0
H980 H 0.61484 0.3562 0.57706 0.0
H981 H 0.57195 0.35336 0.57534 0.0
H982 H 0.56569 0.40689 0.62607 0.0
H983 H 0.6085 0.4102 0.62743 0.0
H984 H 0.53772 0.34734 0.61182 0.0
H985 H 0.52677 0.42567 0.56521 0.0
H986 H 0.55507 0.41306 0.56853 0.0
H987 H 0.54209 0.42676 0.59522 0.0
C988 C 0.60438 0.36732 0.58798 0.0
C989 C 0.61518 0.38359 0.60215 0.0
C990 C 0.57983 0.36565 0.58698 0.0
C991 C 0.56557 0.38017 0.60016 0.0
C992 C 0.5763 0.39584 0.61521 0.0
H993 H 0.41226 0.3684 0.61889 0.0
H994 H 0.45476 0.3692 0.62691 0.0
C995 C 0.60082 0.39764 0.61605 0.0
C996 C 0.53953 0.37926 0.59754 0.0
H997 H 0.49196 0.40789 0.57755 0.0
C998 C 0.52768 0.36058 0.60437 0.0
C999 C 0.52648 0.39646 0.5875 0.0
C1000 C 0.53823 0.41655 0.57845 0.0
C1001 C 0.50316 0.35865 0.60148 0.0
C1002 C 0.49009 0.376 0.59191 0.0
C1003 C 0.50196 0.39467 0.58512 0.0
C1004 C 0.46429 0.37486 0.58736 0.0
C1005 C 0.49155 0.33785 0.60798 0.0
C1006 C 0.45547 0.37811 0.56259 0.0
C1007 C 0.43128 0.37783 0.55798 0.0
C1008 C 0.41521 0.37434 0.57807 0.0
C1009 C 0.42408 0.37101 0.60293 0.0
C1010 C 0.4484 0.37134 0.60753 0.0
H1011 H 0.50453 0.32475 0.60928 0.0
H1012 H 0.48263 0.33926 0.6268 0.0
H1013 H 0.47809 0.33364 0.59343 0.0
H1014 H 0.46738 0.3809 0.54673 0.0
H1015 H 0.42521 0.38046 0.53858 0.0
H1016 H 0.09351 0.35865 0.89328 0.0
H1017 H 0.05093 0.35808 0.88584 0.0
H1018 H 0.0398 0.39124 0.95698 0.0
H1019 H 0.08202 0.3914 0.96489 0.0
H1020 H 0.00984 0.35885 0.9523 0.0
H1021 H 0.00927 0.40617 0.86272 0.0
H1022 H 0.02722 0.38282 0.86124 0.0
H1023 H 0.035 0.40391 0.88276 0.0
C1024 C 0.082 0.36589 0.9073 0.0
C1025 C 0.09127 0.37507 0.92969 0.0
C1026 C 0.05764 0.36565 0.90294 0.0
C1027 C 0.04212 0.37488 0.92068 0.0
C1028 C 0.05137 0.38402 0.943 0.0
H1029 H 0.8992 0.41722 0.90323 0.0
H1030 H 0.94176 0.41265 0.9056 0.0
C1031 C 0.07559 0.38411 0.94747 0.0
C1032 C 0.01619 0.3748 0.91653 0.0
H1033 H 0.97282 0.39206 0.87629 0.0
C1034 C 1.00174 0.36605 0.93563 0.0
C1035 C 0.0056 0.38439 0.8949 0.0
C1036 C 0.02002 0.39504 0.87433 0.0
C1037 C 0.97708 0.36691 0.93396 0.0
C1038 C 0.96648 0.37626 0.91217 0.0
C1039 C 0.98092 0.38474 0.89288 0.0
C1040 C 0.94049 0.37859 0.90976 0.0
C1041 C 0.96271 0.35856 0.95607 0.0
C1042 C 0.92548 0.36093 0.91088 0.0
C1043 C 0.90101 0.36352 0.90984 0.0
C1044 C 0.89106 0.3838 0.90718 0.0
C1045 C 0.90619 0.40136 0.90524 0.0
C1046 C 0.93059 0.39878 0.90657 0.0
H1047 H 0.97336 0.35719 0.97384 0.0
H1048 H 0.94739 0.36897 0.96004 0.0
H1049 H 0.95603 0.34255 0.95124 0.0
H1050 H 0.93267 0.34513 0.91266 0.0
H1051 H 0.88992 0.34962 0.91113 0.0
H1052 H 0.6161 0.65491 0.41945 0.0
H1053 H 0.57335 0.65938 0.4213 0.0
H1054 H 0.56397 0.59369 0.40138 0.0
H1055 H 0.60651 0.58915 0.39895 0.0
H1056 H 0.53374 0.61931 0.37515 0.0
H1057 H 0.53164 0.63826 0.47896 0.0
H1058 H 0.5499 0.65552 0.46022 0.0
H1059 H 0.55754 0.62803 0.46334 0.0
C1060 C 0.60496 0.6414 0.41541 0.0
C1061 C 0.61484 0.62163 0.40918 0.0
C1062 C 0.5805 0.64397 0.41661 0.0
C1063 C 0.56543 0.62679 0.41187 0.0
C1064 C 0.57523 0.60718 0.40517 0.0
H1065 H 0.42357 0.60616 0.46107 0.0
H1066 H 0.46584 0.60748 0.45363 0.0
C1067 C 0.59962 0.60461 0.40385 0.0
C1068 C 0.53946 0.62896 0.41418 0.0
H1069 H 0.49552 0.63975 0.45683 0.0
C1070 C 0.52534 0.62386 0.39297 0.0
C1071 C 0.52853 0.63468 0.43753 0.0
C1072 C 0.54262 0.63926 0.4614 0.0
C1073 C 0.50064 0.62401 0.39455 0.0
C1074 C 0.48971 0.6299 0.41786 0.0
C1075 C 0.50386 0.63535 0.43892 0.0
C1076 C 0.46373 0.62908 0.42154 0.0
C1077 C 0.48656 0.61703 0.37155 0.0
C1078 C 0.44829 0.64078 0.40596 0.0
C1079 C 0.4239 0.63984 0.40998 0.0
C1080 C 0.41455 0.6275 0.42998 0.0
C1081 C 0.43012 0.61595 0.44559 0.0
C1082 C 0.45435 0.61669 0.44137 0.0
H1083 H 0.49749 0.60797 0.35773 0.0
H1084 H 0.47141 0.60704 0.37738 0.0
H1085 H 0.47965 0.63119 0.3615 0.0
H1086 H 0.45509 0.65085 0.39091 0.0
H1087 H 0.41243 0.64906 0.39774 0.0
H1088 H 0.32313 0.12838 0.18628 0.0
H1089 H 0.30251 0.13911 0.22513 0.0
H1090 H 0.25648 0.17883 0.18049 0.0
H1091 H 0.2774 0.16826 0.14116 0.0
H1092 H 0.27544 0.19287 0.23806 0.0
H1093 H 0.22969 0.11573 0.22544 0.0
H1094 H 0.26112 0.11554 0.2213 0.0
H1095 H 0.24301 0.12979 0.19904 0.0
C1096 C 0.30901 0.13984 0.18474 0.0
C1097 C 0.3017 0.14731 0.16066 0.0
C1098 C 0.29733 0.14601 0.20698 0.0
C1099 C 0.27794 0.15965 0.20564 0.0
C1100 C 0.27153 0.16838 0.18188 0.0
H1101 H 0.17515 0.14384 0.32639 0.0
H1102 H 0.19202 0.15469 0.28537 0.0
C1103 C 0.28347 0.16234 0.15948 0.0
C1104 C 0.2626 0.16184 0.22842 0.0
H1105 H 0.2253 0.13268 0.26535 0.0
C1106 C 0.26414 0.17992 0.24394 0.0
C1107 C 0.24777 0.14499 0.23586 0.0
C1108 C 0.24506 0.12543 0.21952 0.0
C1109 C 0.25174 0.18121 0.26729 0.0
C1110 C 0.2379 0.16379 0.27542 0.0
C1111 C 0.23582 0.1461 0.25927 0.0
C1112 C 0.22619 0.16269 0.30095 0.0
C1113 C 0.25364 0.20117 0.28296 0.0
C1114 C 0.23935 0.16453 0.32369 0.0
C1115 C 0.22943 0.15882 0.34732 0.0
C1116 C 0.20643 0.15081 0.34842 0.0
C1117 C 0.19288 0.15016 0.32599 0.0
C1118 C 0.20256 0.15627 0.30255 0.0
H1119 H 0.25758 0.21507 0.27064 0.0
H1120 H 0.23718 0.20432 0.29376 0.0
H1121 H 0.26829 0.19947 0.29685 0.0
H1122 H 0.25775 0.16889 0.32303 0.0
H1123 H 0.24034 0.15904 0.36434 0.0
H1124 H 0.30942 0.88381 0.82006 0.0
H1125 H 0.29244 0.8692 0.7813 0.0
H1126 H 0.26246 0.81774 0.82463 0.0
H1127 H 0.27954 0.83254 0.86422 0.0
H1128 H 0.29749 0.82804 0.75805 0.0
H1129 H 0.20541 0.8466 0.7876 0.0
H1130 H 0.2302 0.85847 0.80375 0.0
H1131 H 0.22381 0.83094 0.80835 0.0
C1132 C 0.29932 0.86932 0.82152 0.0
C1133 C 0.29561 0.85949 0.84535 0.0
C1134 C 0.28973 0.86091 0.79923 0.0
C1135 C 0.27603 0.84249 0.80005 0.0
C1136 C 0.27283 0.83209 0.82362 0.0
H1137 H 0.1954 0.82978 0.65543 0.0
H1138 H 0.21213 0.81567 0.6956 0.0
C1139 C 0.28267 0.84049 0.84616 0.0
C1140 C 0.26442 0.83548 0.77605 0.0
H1141 H 0.21253 0.84149 0.74386 0.0
C1142 C 0.27876 0.83026 0.75508 0.0
C1143 C 0.23997 0.83829 0.77218 0.0
C1144 C 0.22381 0.84393 0.79405 0.0
C1145 C 0.2697 0.82972 0.73008 0.0
C1146 C 0.24576 0.83468 0.72596 0.0
C1147 C 0.23091 0.83773 0.74711 0.0
C1148 C 0.23716 0.84118 0.70032 0.0
C1149 C 0.28613 0.82533 0.70806 0.0
C1150 C 0.24575 0.86005 0.68974 0.0
C1151 C 0.23607 0.86821 0.66731 0.0
C1152 C 0.2177 0.85758 0.65473 0.0
C1153 C 0.20969 0.83817 0.66466 0.0
C1154 C 0.21915 0.83016 0.68757 0.0
H1155 H 0.30138 0.81559 0.71427 0.0
H1156 H 0.27685 0.81705 0.69225 0.0
H1157 H 0.29301 0.84055 0.70055 0.0
H1158 H 0.25939 0.86896 0.69944 0.0
H1159 H 0.24264 0.88316 0.66008 0.0
H1160 H 0.72622 0.89371 0.86089 0.0
H1161 H 0.74719 0.89313 0.81996 0.0
H1162 H 0.70429 0.84062 0.79515 0.0
H1163 H 0.68223 0.84224 0.83535 0.0
H1164 H 0.77383 0.86772 0.79707 0.0
H1165 H 0.69616 0.87611 0.73437 0.0
H1166 H 0.69411 0.87861 0.76863 0.0
H1167 H 0.69379 0.85284 0.75375 0.0
C1168 C 0.72123 0.88209 0.84663 0.0
C1169 C 0.70244 0.86815 0.85122 0.0
C1170 C 0.73324 0.88175 0.82319 0.0
C1171 C 0.72705 0.86718 0.80393 0.0
C1172 C 0.7089 0.85261 0.80906 0.0
H1173 H 0.82432 0.84241 0.67634 0.0
H1174 H 0.80235 0.84105 0.71662 0.0
C1175 C 0.69644 0.85337 0.83221 0.0
C1176 C 0.73985 0.8671 0.77882 0.0
H1177 H 0.73192 0.86604 0.71388 0.0
C1178 C 0.76459 0.86751 0.77891 0.0
C1179 C 0.72801 0.86724 0.75489 0.0
C1180 C 0.70157 0.86892 0.75288 0.0
C1181 C 0.77772 0.86798 0.75604 0.0
C1182 C 0.7659 0.86688 0.73214 0.0
C1183 C 0.74115 0.86657 0.73205 0.0
C1184 C 0.77869 0.86676 0.70703 0.0
C1185 C 0.80408 0.87047 0.75795 0.0
C1186 C 0.77199 0.88074 0.68733 0.0
C1187 C 0.78398 0.88094 0.66388 0.0
C1188 C 0.80323 0.86742 0.65968 0.0
C1189 C 0.80973 0.8532 0.67913 0.0
C1190 C 0.79732 0.8526 0.70234 0.0
H1191 H 0.80924 0.87822 0.77621 0.0
H1192 H 0.81244 0.85461 0.75758 0.0
H1193 H 0.81117 0.88002 0.74186 0.0
H1194 H 0.75767 0.89179 0.69022 0.0
H1195 H 0.7786 0.89213 0.6493 0.0
H1196 H 0.82396 0.1596 0.33629 0.0
H1197 H 0.80171 0.16163 0.29623 0.0
H1198 H 0.7571 0.11059 0.32196 0.0
H1199 H 0.77831 0.10958 0.36266 0.0
H1200 H 0.7966 0.13676 0.25917 0.0
H1201 H 0.70724 0.14839 0.2979 0.0
H1202 H 0.73297 0.14963 0.31798 0.0
H1203 H 0.71973 0.12447 0.31023 0.0
C1204 C 0.80917 0.14904 0.33351 0.0
C1205 C 0.8027 0.13461 0.35273 0.0
C1206 C 0.79646 0.15015 0.31054 0.0
C1207 C 0.77726 0.13658 0.30603 0.0
C1208 C 0.77115 0.12184 0.32513 0.0
H1209 H 0.72793 0.10798 0.15133 0.0
H1210 H 0.7486 0.10923 0.19233 0.0
C1211 C 0.78345 0.12113 0.34838 0.0
C1212 C 0.76441 0.13723 0.28098 0.0
H1213 H 0.70953 0.13729 0.2541 0.0
C1214 C 0.77754 0.13712 0.25815 0.0
C1215 C 0.73951 0.13811 0.27931 0.0
C1216 C 0.72409 0.14041 0.30268 0.0
C1217 C 0.76663 0.13749 0.23396 0.0
C1218 C 0.74173 0.1369 0.23231 0.0
C1219 C 0.72859 0.13741 0.25513 0.0
C1220 C 0.72892 0.13589 0.20726 0.0
C1221 C 0.78209 0.13915 0.21053 0.0
C1222 C 0.71006 0.14972 0.20216 0.0
C1223 C 0.69765 0.1485 0.179 0.0
C1224 C 0.70405 0.13367 0.16021 0.0
C1225 C 0.72284 0.11983 0.16525 0.0
C1226 C 0.73484 0.12067 0.18867 0.0
H1227 H 0.79908 0.147 0.2151 0.0
H1228 H 0.78619 0.12302 0.20342 0.0
H1229 H 0.77337 0.14821 0.19498 0.0
H1230 H 0.70495 0.16156 0.21609 0.0
H1231 H 0.68321 0.15935 0.17568 0.0
H1232 H 0.73221 0.67007 0.36528 0.0
H1233 H 0.75025 0.68377 0.32563 0.0
H1234 H 0.70883 0.63985 0.28133 0.0
H1235 H 0.69106 0.62625 0.32032 0.0
H1236 H 0.77669 0.65845 0.29182 0.0
H1237 H 0.70221 0.6942 0.23985 0.0
H1238 H 0.7017 0.6899 0.27408 0.0
H1239 H 0.6943 0.66875 0.25237 0.0
C1240 C 0.72662 0.66376 0.34699 0.0
C1241 C 0.7103 0.64704 0.3459 0.0
C1242 C 0.73694 0.67154 0.32439 0.0
C1243 C 0.73062 0.66307 0.30045 0.0
C1244 C 0.71363 0.647 0.29944 0.0
H1245 H 0.77542 0.61528 0.16757 0.0
H1246 H 0.75909 0.6292 0.2072 0.0
C1247 C 0.70363 0.63908 0.32184 0.0
C1248 C 0.74339 0.66873 0.27657 0.0
H1249 H 0.73281 0.67787 0.21312 0.0
C1250 C 0.76735 0.66352 0.27478 0.0
C1251 C 0.73128 0.67543 0.2543 0.0
C1252 C 0.706 0.6826 0.25531 0.0
C1253 C 0.77876 0.66269 0.25092 0.0
C1254 C 0.7659 0.66719 0.22842 0.0
C1255 C 0.74262 0.67435 0.23042 0.0
C1256 C 0.77466 0.66021 0.20309 0.0
C1257 C 0.8039 0.65517 0.24957 0.0
C1258 C 0.78847 0.67328 0.18734 0.0
C1259 C 0.79784 0.66534 0.16432 0.0
C1260 C 0.7937 0.6442 0.15708 0.0
C1261 C 0.77922 0.63154 0.17267 0.0
C1262 C 0.76978 0.63948 0.19533 0.0
H1263 H 0.81245 0.65501 0.26871 0.0
H1264 H 0.80433 0.63888 0.24162 0.0
H1265 H 0.81424 0.66549 0.23653 0.0
H1266 H 0.79239 0.68936 0.19311 0.0
H1267 H 0.80897 0.67545 0.15274 0.0
H1268 H 0.74344 0.38481 0.66124 0.0
H1269 H 0.75947 0.37089 0.701 0.0
H1270 H 0.71428 0.31627 0.69504 0.0
H1271 H 0.69807 0.33026 0.65464 0.0
H1272 H 0.71028 0.33805 0.74166 0.0
H1273 H 0.80385 0.32283 0.72094 0.0
H1274 H 0.79506 0.34808 0.70852 0.0
H1275 H 0.78182 0.32431 0.69603 0.0
C1276 C 0.73724 0.36959 0.66804 0.0
C1277 C 0.71943 0.35866 0.65488 0.0
C1278 C 0.74659 0.36154 0.6907 0.0
C1279 C 0.73833 0.34239 0.70088 0.0
C1280 C 0.7211 0.33097 0.68736 0.0
H1281 H 0.80442 0.33023 0.85355 0.0
H1282 H 0.78761 0.31602 0.81357 0.0
C1283 C 0.71191 0.33892 0.66429 0.0
C1284 C 0.74572 0.33628 0.72715 0.0
H1285 H 0.79489 0.33458 0.76463 0.0
C1286 C 0.72874 0.33657 0.74666 0.0
C1287 C 0.76973 0.33398 0.73376 0.0
C1288 C 0.78862 0.33205 0.71363 0.0
C1289 C 0.73535 0.33696 0.77258 0.0
C1290 C 0.75951 0.3373 0.77907 0.0
C1291 C 0.77636 0.33464 0.75968 0.0
C1292 C 0.76762 0.34425 0.80475 0.0
C1293 C 0.71642 0.33828 0.79274 0.0
C1294 C 0.76194 0.36474 0.81301 0.0
C1295 C 0.77164 0.37289 0.83543 0.0
C1296 C 0.78726 0.36076 0.85028 0.0
C1297 C 0.79233 0.3399 0.84258 0.0
C1298 C 0.78279 0.3318 0.81977 0.0
H1299 H 0.70001 0.33041 0.78619 0.0
H1300 H 0.72221 0.3309 0.81099 0.0
H1301 H 0.71224 0.35516 0.79647 0.0
H1302 H 0.75069 0.37481 0.80152 0.0
H1303 H 0.76727 0.38897 0.84085 0.0
H1304 H 0.33455 0.36292 0.68312 0.0
H1305 H 0.31223 0.36182 0.72324 0.0
H1306 H 0.24782 0.3718 0.68144 0.0
H1307 H 0.27004 0.37315 0.64115 0.0
H1308 H 0.27871 0.39674 0.74116 0.0
H1309 H 0.23791 0.31726 0.72921 0.0
H1310 H 0.26483 0.32465 0.71309 0.0
H1311 H 0.23722 0.33508 0.70229 0.0
C1312 C 0.31562 0.36476 0.68239 0.0
C1313 C 0.30408 0.36808 0.65887 0.0
C1314 C 0.3029 0.36417 0.70537 0.0
C1315 C 0.27836 0.36659 0.70532 0.0
C1316 C 0.26673 0.36971 0.68189 0.0
H1317 H 0.1714 0.36171 0.82474 0.0
H1318 H 0.19336 0.36155 0.78444 0.0
C1319 C 0.27947 0.37052 0.65889 0.0
C1320 C 0.26506 0.36642 0.72986 0.0
H1321 H 0.22696 0.33685 0.76571 0.0
C1322 C 0.26742 0.38365 0.74661 0.0
C1323 C 0.25022 0.34941 0.73678 0.0
C1324 C 0.24736 0.33043 0.71956 0.0
C1325 C 0.25507 0.38448 0.76996 0.0
C1326 C 0.24051 0.36724 0.77721 0.0
C1327 C 0.23815 0.35003 0.76033 0.0
C1328 C 0.22734 0.36689 0.802 0.0
C1329 C 0.25723 0.40414 0.78619 0.0
C1330 C 0.23907 0.36949 0.82551 0.0
C1331 C 0.22649 0.36981 0.84861 0.0
C1332 C 0.20192 0.36713 0.84879 0.0
C1333 C 0.1903 0.36382 0.82533 0.0
C1334 C 0.20286 0.36374 0.80223 0.0
H1335 H 0.26285 0.41801 0.77463 0.0
H1336 H 0.24031 0.40803 0.79572 0.0
H1337 H 0.27075 0.40149 0.80119 0.0
H1338 H 0.258 0.37131 0.82604 0.0
H1339 H 0.23602 0.37221 0.86634 0.0
H1340 H 0.27894 0.60985 0.35997 0.0
H1341 H 0.25807 0.61052 0.31903 0.0
H1342 H 0.30217 0.66204 0.29366 0.0
H1343 H 0.3241 0.66037 0.33396 0.0
H1344 H 0.23209 0.63643 0.29555 0.0
H1345 H 0.31 0.62532 0.23373 0.0
H1346 H 0.31169 0.62323 0.26807 0.0
H1347 H 0.31275 0.64879 0.2527 0.0
C1348 C 0.2842 0.62129 0.34562 0.0
C1349 C 0.3033 0.63492 0.35008 0.0
C1350 C 0.27224 0.62168 0.32216 0.0
C1351 C 0.27882 0.63597 0.30274 0.0
C1352 C 0.29725 0.65027 0.30773 0.0
H1353 H 0.18349 0.65994 0.17306 0.0
H1354 H 0.20484 0.66173 0.21372 0.0
C1355 C 0.30964 0.64948 0.33094 0.0
C1356 C 0.26619 0.63594 0.27755 0.0
H1357 H 0.27458 0.63536 0.2127 0.0
C1358 C 0.24144 0.63605 0.27746 0.0
C1359 C 0.27819 0.63505 0.25375 0.0
C1360 C 0.3046 0.63285 0.25204 0.0
C1361 C 0.22846 0.63534 0.25451 0.0
C1362 C 0.24048 0.6356 0.23069 0.0
C1363 C 0.26522 0.63544 0.2308 0.0
C1364 C 0.22789 0.63527 0.20548 0.0
C1365 C 0.20203 0.63349 0.25626 0.0
C1366 C 0.23442 0.62061 0.18646 0.0
C1367 C 0.2228 0.62012 0.16281 0.0
C1368 C 0.20408 0.63403 0.15774 0.0
C1369 C 0.19766 0.64884 0.17655 0.0
C1370 C 0.20972 0.64971 0.19996 0.0
H1371 H 0.1965 0.62638 0.27478 0.0
H1372 H 0.19412 0.64952 0.25514 0.0
H1373 H 0.19479 0.62366 0.2405 0.0
H1374 H 0.24838 0.60931 0.19001 0.0
H1375 H 0.22811 0.60849 0.14872 0.0
loop_
_geom_bond_atom_site_label_1
_geom_bond_atom_site_label_2
_geom_bond_distance
_geom_bond_site_symmetry_2
_ccdc_geom_bond_type
Co0 O1 2.216 . S
Co0 O2 2.091 . S
Co0 O4 2.004 . S
Co0 O10 2.021 . S
Co0 O12 2.137 . S
Co0 O13 2.244 . S
O1 Co0 2.216 . S
O1 C8 1.247 . S
O2 Co0 2.091 . S
O2 C8 1.261 . S
C3 O12 1.247 . S
C3 O13 1.272 . S
O4 Co0 2.004 . S
O4 C9 1.259 . S
Co5 O6 2.061 . S
Co5 O11 2.052 . S
Co5 O13 2.135 . S
O6 Co5 2.061 . S
O6 C9 1.235 . S
C7 O10 1.238 . S
C7 O11 1.241 . S
C8 O1 1.247 . S
C8 O2 1.261 . S
C9 O4 1.259 . S
C9 O6 1.235 . S
O10 Co0 2.021 . S
O10 C7 1.238 . S
O11 Co5 2.052 . S
O11 C7 1.241 . S
O12 Co0 2.137 . S
O12 C3 1.247 . S
O13 Co0 2.244 . S
O13 C3 1.272 . S
O13 Co5 2.135 . S
Co14 O15 2.216 . S
Co14 O16 2.091 . S
Co14 O18 2.004 . S
Co14 O24 2.021 . S
Co14 O26 2.137 . S
Co14 O27 2.244 . S
O15 Co14 2.216 . S
O15 C22 1.247 . S
O16 Co14 2.091 . S
O16 C22 1.261 . S
C17 O26 1.247 . S
C17 O27 1.272 . S
O18 Co14 2.004 . S
O18 C23 1.259 . S
Co19 O20 2.061 . S
Co19 O25 2.052 . S
Co19 O27 2.135 . S
O20 Co19 2.061 . S
O20 C23 1.235 . S
C21 O24 1.238 . S
C21 O25 1.241 . S
C22 O15 1.247 . S
C22 O16 1.261 . S
C23 O18 1.259 . S
C23 O20 1.235 . S
O24 Co14 2.021 . S
O24 C21 1.238 . S
O25 Co19 2.052 . S
O25 C21 1.241 . S
O26 Co14 2.137 . S
O26 C17 1.247 . S
O27 Co14 2.244 . S
O27 C17 1.272 . S
O27 Co19 2.135 . S
Co28 O29 2.216 . S
Co28 O30 2.091 . S
Co28 O32 2.004 . S
Co28 O38 2.021 . S
Co28 O40 2.137 . S
Co28 O41 2.244 . S
O29 Co28 2.216 . S
O29 C36 1.247 . S
O30 Co28 2.091 . S
O30 C36 1.261 . S
C31 O40 1.247 . S
C31 O41 1.272 . S
O32 Co28 2.004 . S
O32 C37 1.259 . S
Co33 O34 2.061 . S
Co33 O39 2.052 . S
Co33 O41 2.135 . S
O34 Co33 2.061 . S
O34 C37 1.235 . S
C35 O38 1.238 . S
C35 O39 1.241 . S
C36 O29 1.247 . S
C36 O30 1.261 . S
C37 O32 1.259 . S
C37 O34 1.235 . S
O38 Co28 2.021 . S
O38 C35 1.238 . S
O39 Co33 2.052 . S
O39 C35 1.241 . S
O40 Co28 2.137 . S
O40 C31 1.247 . S
O41 Co28 2.244 . S
O41 C31 1.272 . S
O41 Co33 2.135 . S
Co42 O43 2.216 . S
Co42 O44 2.091 . S
Co42 O46 2.004 . S
Co42 O52 2.021 . S
Co42 O54 2.137 . S
Co42 O55 2.244 . S
O43 Co42 2.216 . S
O43 C50 1.247 . S
O44 Co42 2.091 . S
O44 C50 1.261 . S
C45 O54 1.247 . S
C45 O55 1.272 . S
O46 Co42 2.004 . S
O46 C51 1.259 . S
Co47 O48 2.061 . S
Co47 O53 2.052 . S
Co47 O55 2.135 . S
O48 Co47 2.061 . S
O48 C51 1.235 . S
C49 O52 1.238 . S
C49 O53 1.241 . S
C50 O43 1.247 . S
C50 O44 1.261 . S
C51 O46 1.259 . S
C51 O48 1.235 . S
O52 Co42 2.021 . S
O52 C49 1.238 . S
O53 Co47 2.052 . S
O53 C49 1.241 . S
O54 Co42 2.137 . S
O54 C45 1.247 . S
O55 Co42 2.244 . S
O55 C45 1.272 . S
O55 Co47 2.135 . S
Co56 O57 2.216 . S
Co56 O58 2.091 . S
Co56 O60 2.004 . S
Co56 O66 2.021 . S
Co56 O68 2.137 . S
Co56 O69 2.244 . S
O57 Co56 2.216 . S
O57 C64 1.247 . S
O58 Co56 2.091 . S
O58 C64 1.261 . S
C59 O68 1.247 . S
C59 O69 1.272 . S
O60 Co56 2.004 . S
O60 C65 1.259 . S
Co61 O62 2.061 . S
Co61 O67 2.052 . S
Co61 O69 2.135 . S
O62 Co61 2.061 . S
O62 C65 1.235 . S
C63 O66 1.238 . S
C63 O67 1.241 . S
C64 O57 1.247 . S
C64 O58 1.261 . S
C65 O60 1.259 . S
C65 O62 1.235 . S
O66 Co56 2.021 . S
O66 C63 1.238 . S
O67 Co61 2.052 . S
O67 C63 1.241 . S
O68 Co56 2.137 . S
O68 C59 1.247 . S
O69 Co56 2.244 . S
O69 C59 1.272 . S
O69 Co61 2.135 . S
Co70 O71 2.216 . S
Co70 O72 2.091 . S
Co70 O74 2.004 . S
Co70 O80 2.021 . S
Co70 O82 2.137 . S
Co70 O83 2.244 . S
O71 Co70 2.216 . S
O71 C78 1.247 . S
O72 Co70 2.091 . S
O72 C78 1.261 . S
C73 O82 1.247 . S
C73 O83 1.272 . S
O74 Co70 2.004 . S
O74 C79 1.259 . S
Co75 O76 2.061 . S
Co75 O81 2.052 . S
Co75 O83 2.135 . S
O76 Co75 2.061 . S
O76 C79 1.235 . S
C77 O80 1.238 . S
C77 O81 1.241 . S
C78 O71 1.247 . S
C78 O72 1.261 . S
C79 O74 1.259 . S
C79 O76 1.235 . S
O80 Co70 2.021 . S
O80 C77 1.238 . S
O81 Co75 2.052 . S
O81 C77 1.241 . S
O82 Co70 2.137 . S
O82 C73 1.247 . S
O83 Co70 2.244 . S
O83 C73 1.272 . S
O83 Co75 2.135 . S
Co84 O85 2.216 . S
Co84 O86 2.091 . S
Co84 O88 2.004 . S
Co84 O94 2.021 . S
Co84 O96 2.137 . S
Co84 O97 2.244 . S
O85 Co84 2.216 . S
O85 C92 1.247 . S
O86 Co84 2.091 . S
O86 C92 1.261 . S
C87 O96 1.247 . S
C87 O97 1.272 . S
O88 Co84 2.004 . S
O88 C93 1.259 . S
Co89 O90 2.061 . S
Co89 O95 2.052 . S
Co89 O97 2.135 . S
O90 Co89 2.061 . S
O90 C93 1.235 . S
C91 O94 1.238 . S
C91 O95 1.241 . S
C92 O85 1.247 . S
C92 O86 1.261 . S
C93 O88 1.259 . S
C93 O90 1.235 . S
O94 Co84 2.021 . S
O94 C91 1.238 . S
O95 Co89 2.052 . S
O95 C91 1.241 . S
O96 Co84 2.137 . S
O96 C87 1.247 . S
O97 Co84 2.244 . S
O97 C87 1.272 . S
O97 Co89 2.135 . S
Co98 O99 2.216 . S
Co98 O100 2.091 . S
Co98 O102 2.004 . S
Co98 O108 2.021 . S
Co98 O110 2.137 . S
Co98 O111 2.244 . S
O99 Co98 2.216 . S
O99 C106 1.247 . S
O100 Co98 2.091 . S
O100 C106 1.261 . S
C101 O110 1.247 . S
C101 O111 1.272 . S
O102 Co98 2.004 . S
O102 C107 1.259 . S
Co103 O104 2.061 . S
Co103 O109 2.052 . S
Co103 O111 2.135 . S
O104 Co103 2.061 . S
O104 C107 1.235 . S
C105 O108 1.238 . S
C105 O109 1.241 . S
C106 O99 1.247 . S
C106 O100 1.261 . S
C107 O102 1.259 . S
C107 O104 1.235 . S
O108 Co98 2.021 . S
O108 C105 1.238 . S
O109 Co103 2.052 . S
O109 C105 1.241 . S
O110 Co98 2.137 . S
O110 C101 1.247 . S
O111 Co98 2.244 . S
O111 C101 1.272 . S
O111 Co103 2.135 . S
Co112 O113 2.216 . S
Co112 O114 2.091 . S
Co112 O116 2.004 . S
Co112 O122 2.021 . S
Co112 O124 2.137 . S
Co112 O125 2.244 . S
O113 Co112 2.216 . S
O113 C120 1.247 . S
O114 Co112 2.091 . S
O114 C120 1.261 . S
C115 O124 1.247 . S
C115 O125 1.272 . S
O116 Co112 2.004 . S
O116 C121 1.259 . S
Co117 O118 2.061 . S
Co117 O123 2.052 . S
Co117 O125 2.135 . S
O118 Co117 2.061 . S
O118 C121 1.235 . S
C119 O122 1.238 . S
C119 O123 1.241 . S
C120 O113 1.247 . S
C120 O114 1.261 . S
C121 O116 1.259 . S
C121 O118 1.235 . S
O122 Co112 2.021 . S
O122 C119 1.238 . S
O123 Co117 2.052 . S
O123 C119 1.241 . S
O124 Co112 2.137 . S
O124 C115 1.247 . S
O125 Co112 2.244 . S
O125 C115 1.272 . S
O125 Co117 2.135 . S
Co126 O127 2.216 . S
Co126 O128 2.091 . S
Co126 O130 2.004 . S
Co126 O136 2.021 . S
Co126 O138 2.137 . S
Co126 O139 2.244 . S
O127 Co126 2.216 . S
O127 C134 1.247 . S
O128 Co126 2.091 . S
O128 C134 1.261 . S
C129 O138 1.247 . S
C129 O139 1.272 . S
O130 Co126 2.004 . S
O130 C135 1.259 . S
Co131 O132 2.061 . S
Co131 O137 2.052 . S
Co131 O139 2.135 . S
O132 Co131 2.061 . S
O132 C135 1.235 . S
C133 O136 1.238 . S
C133 O137 1.241 . S
C134 O127 1.247 . S
C134 O128 1.261 . S
C135 O130 1.259 . S
C135 O132 1.235 . S
O136 Co126 2.021 . S
O136 C133 1.238 . S
O137 Co131 2.052 . S
O137 C133 1.241 . S
O138 Co126 2.137 . S
O138 C129 1.247 . S
O139 Co126 2.244 . S
O139 C129 1.272 . S
O139 Co131 2.135 . S
Co140 O141 2.216 . S
Co140 O142 2.091 . S
Co140 O144 2.004 . S
Co140 O150 2.021 . S
Co140 O152 2.137 . S
Co140 O153 2.244 . S
O141 Co140 2.216 . S
O141 C148 1.247 . S
O142 Co140 2.091 . S
O142 C148 1.261 . S
C143 O152 1.247 . S
C143 O153 1.272 . S
O144 Co140 2.004 . S
O144 C149 1.259 . S
Co145 O146 2.061 . S
Co145 O151 2.052 . S
Co145 O153 2.135 . S
O146 Co145 2.061 . S
O146 C149 1.235 . S
C147 O150 1.238 . S
C147 O151 1.241 . S
C148 O141 1.247 . S
C148 O142 1.261 . S
C149 O144 1.259 . S
C149 O146 1.235 . S
O150 Co140 2.021 . S
O150 C147 1.238 . S
O151 Co145 2.052 . S
O151 C147 1.241 . S
O152 Co140 2.137 . S
O152 C143 1.247 . S
O153 Co140 2.244 . S
O153 C143 1.272 . S
O153 Co145 2.135 . S
Co154 O155 2.216 . S
Co154 O156 2.091 . S
Co154 O158 2.004 . S
Co154 O164 2.021 . S
Co154 O166 2.137 . S
Co154 O167 2.244 . S
O155 Co154 2.216 . S
O155 C162 1.247 . S
O156 Co154 2.091 . S
O156 C162 1.261 . S
C157 O166 1.247 . S
C157 O167 1.272 . S
O158 Co154 2.004 . S
O158 C163 1.259 . S
Co159 O160 2.061 . S
Co159 O165 2.052 . S
Co159 O167 2.135 . S
O160 Co159 2.061 . S
O160 C163 1.235 . S
C161 O164 1.238 . S
C161 O165 1.241 . S
C162 O155 1.247 . S
C162 O156 1.261 . S
C163 O158 1.259 . S
C163 O160 1.235 . S
O164 Co154 2.021 . S
O164 C161 1.238 . S
O165 Co159 2.052 . S
O165 C161 1.241 . S
O166 Co154 2.137 . S
O166 C157 1.247 . S
O167 Co154 2.244 . S
O167 C157 1.272 . S
O167 Co159 2.135 . S
Co168 O169 2.216 . S
Co168 O170 2.091 . S
Co168 O172 2.004 . S
Co168 O178 2.021 . S
Co168 O180 2.137 . S
Co168 O181 2.244 . S
O169 Co168 2.216 . S
O169 C176 1.247 . S
O170 Co168 2.091 . S
O170 C176 1.261 . S
C171 O180 1.247 . S
C171 O181 1.272 . S
O172 Co168 2.004 . S
O172 C177 1.259 . S
Co173 O174 2.061 . S
Co173 O179 2.052 . S
Co173 O181 2.135 . S
O174 Co173 2.061 . S
O174 C177 1.235 . S
C175 O178 1.238 . S
C175 O179 1.241 . S
C176 O169 1.247 . S
C176 O170 1.261 . S
C177 O172 1.259 . S
C177 O174 1.235 . S
O178 Co168 2.021 . S
O178 C175 1.238 . S
O179 Co173 2.052 . S
O179 C175 1.241 . S
O180 Co168 2.137 . S
O180 C171 1.247 . S
O181 Co168 2.244 . S
O181 C171 1.272 . S
O181 Co173 2.135 . S
Co182 O183 2.216 . S
Co182 O184 2.091 . S
Co182 O186 2.004 . S
Co182 O192 2.021 . S
Co182 O194 2.137 . S
Co182 O195 2.244 . S
O183 Co182 2.216 . S
O183 C190 1.247 . S
O184 Co182 2.091 . S
O184 C190 1.261 . S
C185 O194 1.247 . S
C185 O195 1.272 . S
O186 Co182 2.004 . S
O186 C191 1.259 . S
Co187 O188 2.061 . S
Co187 O193 2.052 . S
Co187 O195 2.135 . S
O188 Co187 2.061 . S
O188 C191 1.235 . S
C189 O192 1.238 . S
C189 O193 1.241 . S
C190 O183 1.247 . S
C190 O184 1.261 . S
C191 O186 1.259 . S
C191 O188 1.235 . S
O192 Co182 2.021 . S
O192 C189 1.238 . S
O193 Co187 2.052 . S
O193 C189 1.241 . S
O194 Co182 2.137 . S
O194 C185 1.247 . S
O195 Co182 2.244 . S
O195 C185 1.272 . S
O195 Co187 2.135 . S
Co196 O197 2.216 . S
Co196 O198 2.091 . S
Co196 O200 2.004 . S
Co196 O206 2.021 . S
Co196 O208 2.137 . S
Co196 O209 2.244 . S
O197 Co196 2.216 . S
O197 C204 1.247 . S
O198 Co196 2.091 . S
O198 C204 1.261 . S
C199 O208 1.247 . S
C199 O209 1.272 . S
O200 Co196 2.004 . S
O200 C205 1.259 . S
Co201 O202 2.061 . S
Co201 O207 2.052 . S
Co201 O209 2.135 . S
O202 Co201 2.061 . S
O202 C205 1.235 . S
C203 O206 1.238 . S
C203 O207 1.241 . S
C204 O197 1.247 . S
C204 O198 1.261 . S
C205 O200 1.259 . S
C205 O202 1.235 . S
O206 Co196 2.021 . S
O206 C203 1.238 . S
O207 Co201 2.052 . S
O207 C203 1.241 . S
O208 Co196 2.137 . S
O208 C199 1.247 . S
O209 Co196 2.244 . S
O209 C199 1.272 . S
O209 Co201 2.135 . S
Co210 O211 2.216 . S
Co210 O212 2.091 . S
Co210 O214 2.004 . S
Co210 O220 2.021 . S
Co210 O222 2.137 . S
Co210 O223 2.244 . S
O211 Co210 2.216 . S
O211 C218 1.247 . S
O212 Co210 2.091 . S
O212 C218 1.261 . S
C213 O222 1.247 . S
C213 O223 1.272 . S
O214 Co210 2.004 . S
O214 C219 1.259 . S
Co215 O216 2.061 . S
Co215 O221 2.052 . S
Co215 O223 2.135 . S
O216 Co215 2.061 . S
O216 C219 1.235 . S
C217 O220 1.238 . S
C217 O221 1.241 . S
C218 O211 1.247 . S
C218 O212 1.261 . S
C219 O214 1.259 . S
C219 O216 1.235 . S
O220 Co210 2.021 . S
O220 C217 1.238 . S
O221 Co215 2.052 . S
O221 C217 1.241 . S
O222 Co210 2.137 . S
O222 C213 1.247 . S
O223 Co210 2.244 . S
O223 C213 1.272 . S
O223 Co215 2.135 . S
H224 C232 0.929 . S
H225 C234 0.930 . S
H226 C236 0.946 . S
H227 C239 0.929 . S
H228 C242 0.930 . S
H229 C244 0.960 . S
H230 C244 0.960 . S
H231 C244 0.960 . S
C232 H224 0.929 . S
C232 C233 1.377 . S
C232 C234 1.384 . S
C233 C232 1.377 . S
C233 C239 1.390 . S
C234 H225 0.930 . S
C234 C232 1.384 . S
C234 C235 1.372 . S
C235 C234 1.372 . S
C235 C236 1.400 . S
C235 C240 1.490 . S
C236 H226 0.946 . S
C236 C235 1.400 . S
C236 C239 1.386 . S
H237 C253 0.930 . S
H238 C254 0.931 . S
C239 H227 0.929 . S
C239 C233 1.390 . S
C239 C236 1.386 . S
C240 C235 1.490 . S
C240 C242 1.395 . S
C240 C243 1.403 1_554 S
H241 C247 0.930 . S
C242 H228 0.930 . S
C242 C240 1.395 . S
C242 C245 1.403 . S
C243 C240 1.403 1_556 S
C243 C244 1.524 . S
C243 C247 1.400 . S
C244 H229 0.960 . S
C244 H230 0.960 . S
C244 H231 0.960 . S
C244 C243 1.524 . S
C245 C242 1.403 . S
C245 C246 1.392 1_554 S
C245 C249 1.495 . S
C246 C245 1.392 1_556 S
C246 C247 1.385 . S
C246 C248 1.478 . S
C247 H241 0.930 . S
C247 C243 1.400 . S
C247 C246 1.385 . S
C248 C246 1.478 . S
C248 C250 1.381 . S
C248 C254 1.383 . S
C249 C245 1.495 . S
C249 H255 0.959 . S
C249 H256 0.961 . S
C249 H257 0.960 . S
C250 C248 1.381 . S
C250 C251 1.394 . S
C250 H258 0.930 . S
C251 C250 1.394 . S
C251 C252 1.383 . S
C251 H259 0.929 . S
C252 C251 1.383 . S
C252 C253 1.377 . S
C253 H237 0.930 . S
C253 C252 1.377 . S
C253 C254 1.379 . S
C254 H238 0.931 . S
C254 C248 1.383 . S
C254 C253 1.379 . S
H255 C249 0.959 . S
H256 C249 0.961 . S
H257 C249 0.960 . S
H258 C250 0.930 . S
H259 C251 0.929 . S
H260 C268 0.929 . S
H261 C270 0.930 . S
H262 C272 0.930 . S
H263 C275 0.929 . S
H264 C278 0.930 . S
H265 C280 0.960 . S
H266 C280 0.960 . S
H267 C280 0.960 . S
C268 H260 0.929 . S
C268 C269 1.377 . S
C268 C270 1.384 . S
C269 C268 1.377 . S
C269 C275 1.390 . S
C270 H261 0.930 . S
C270 C268 1.384 . S
C270 C271 1.372 . S
C271 C270 1.372 . S
C271 C272 1.400 . S
C271 C276 1.490 . S
C272 H262 0.930 . S
C272 C271 1.400 . S
C272 C275 1.386 . S
H273 C289 0.930 . S
H274 C290 0.931 . S
C275 H263 0.929 . S
C275 C269 1.390 . S
C275 C272 1.386 . S
C276 C271 1.490 . S
C276 C278 1.395 . S
C276 C279 1.403 . S
H277 C283 0.930 . S
C278 H264 0.930 . S
C278 C276 1.395 . S
C278 C281 1.403 . S
C279 C276 1.403 . S
C279 C280 1.524 . S
C279 C283 1.400 . S
C280 H265 0.960 . S
C280 H266 0.960 . S
C280 H267 0.960 . S
C280 C279 1.524 . S
C281 C278 1.403 . S
C281 C282 1.392 . S
C281 C285 1.495 . S
C282 C281 1.392 . S
C282 C283 1.385 . S
C282 C284 1.478 . S
C283 H277 0.930 . S
C283 C279 1.400 . S
C283 C282 1.385 . S
C284 C282 1.478 . S
C284 C286 1.381 . S
C284 C290 1.383 . S
C285 C281 1.495 . S
C285 H291 0.959 . S
C285 H292 0.961 . S
C285 H293 0.960 . S
C286 C284 1.381 . S
C286 C287 1.394 . S
C286 H294 0.930 . S
C287 C286 1.394 . S
C287 C288 1.383 . S
C287 H295 0.929 . S
C288 C287 1.383 . S
C288 C289 1.377 . S
C289 H273 0.930 . S
C289 C288 1.377 . S
C289 C290 1.379 . S
C290 H274 0.931 . S
C290 C284 1.383 . S
C290 C289 1.379 . S
H291 C285 0.959 . S
H292 C285 0.961 . S
H293 C285 0.960 . S
H294 C286 0.930 . S
H295 C287 0.929 . S
H296 C304 0.929 . S
H297 C306 0.930 . S
H298 C308 0.930 1_554 S
H299 C311 0.929 . S
H300 C314 0.931 . S
H301 C316 0.960 . S
H302 C316 0.960 . S
H303 C316 0.960 . S
C304 H296 0.929 . S
C304 C305 1.377 . S
C304 C306 1.384 . S
C305 C304 1.377 . S
C305 C311 1.390 . S
C306 H297 0.930 . S
C306 C304 1.384 . S
C306 C307 1.372 . S
C307 C306 1.372 . S
C307 C308 1.400 . S
C307 C312 1.490 . S
C308 H298 0.930 1_556 S
C308 C307 1.400 . S
C308 C311 1.386 . S
H309 C325 0.930 . S
H310 C326 0.931 . S
C311 H299 0.929 . S
C311 C305 1.390 . S
C311 C308 1.386 . S
C312 C307 1.490 . S
C312 C314 1.395 1_556 S
C312 C315 1.403 1_556 S
H313 C319 0.930 . S
C314 H300 0.931 . S
C314 C312 1.395 1_554 S
C314 C317 1.403 . S
C315 C312 1.403 1_554 S
C315 C316 1.524 1_554 S
C315 C319 1.400 . S
C316 H301 0.960 . S
C316 H302 0.960 . S
C316 H303 0.960 . S
C316 C315 1.524 1_556 S
C317 C314 1.403 . S
C317 C318 1.392 . S
C317 C321 1.495 . S
C318 C317 1.392 . S
C318 C319 1.385 . S
C318 C320 1.478 . S
C319 H313 0.930 . S
C319 C315 1.400 . S
C319 C318 1.385 . S
C320 C318 1.478 . S
C320 C322 1.381 . S
C320 C326 1.383 . S
C321 C317 1.495 . S
C321 H327 0.959 . S
C321 H328 0.961 . S
C321 H329 0.960 . S
C322 C320 1.381 . S
C322 C323 1.394 . S
C322 H330 0.930 . S
C323 C322 1.394 . S
C323 C324 1.383 . S
C323 H331 0.929 . S
C324 C323 1.383 . S
C324 C325 1.377 . S
C325 H309 0.930 . S
C325 C324 1.377 . S
C325 C326 1.379 . S
C326 H310 0.931 . S
C326 C320 1.383 . S
C326 C325 1.379 . S
H327 C321 0.959 . S
H328 C321 0.961 . S
H329 C321 0.960 . S
H330 C322 0.930 . S
H331 C323 0.929 . S
H332 C340 0.929 . S
H333 C342 0.930 . S
H334 C344 0.930 . S
H335 C347 0.929 . S
H336 C350 0.930 . S
H337 C352 0.960 . S
H338 C352 0.960 . S
H339 C352 0.960 . S
C340 H332 0.929 . S
C340 C341 1.377 . S
C340 C342 1.384 . S
C341 C340 1.377 . S
C341 C347 1.390 . S
C342 H333 0.930 . S
C342 C340 1.384 . S
C342 C343 1.372 . S
C343 C342 1.372 . S
C343 C344 1.400 . S
C343 C348 1.490 . S
C344 H334 0.930 . S
C344 C343 1.400 . S
C344 C347 1.386 . S
H345 C361 0.930 . S
H346 C362 0.931 . S
C347 H335 0.929 . S
C347 C341 1.390 . S
C347 C344 1.386 . S
C348 C343 1.490 . S
C348 C350 1.395 . S
C348 C351 1.403 . S
H349 C355 0.930 . S
C350 H336 0.930 . S
C350 C348 1.395 . S
C350 C353 1.403 . S
C351 C348 1.403 . S
C351 C352 1.524 . S
C351 C355 1.400 . S
C352 H337 0.960 . S
C352 H338 0.960 . S
C352 H339 0.960 . S
C352 C351 1.524 . S
C353 C350 1.403 . S
C353 C354 1.392 . S
C353 C357 1.495 . S
C354 C353 1.392 . S
C354 C355 1.385 . S
C354 C356 1.478 . S
C355 H349 0.930 . S
C355 C351 1.400 . S
C355 C354 1.385 . S
C356 C354 1.478 . S
C356 C358 1.381 . S
C356 C362 1.383 . S
C357 C353 1.495 . S
C357 H363 0.959 . S
C357 H364 0.961 . S
C357 H365 0.960 . S
C358 C356 1.381 . S
C358 C359 1.394 . S
C358 H366 0.930 . S
C359 C358 1.394 . S
C359 C360 1.383 . S
C359 H367 0.929 . S
C360 C359 1.383 . S
C360 C361 1.377 . S
C361 H345 0.930 . S
C361 C360 1.377 . S
C361 C362 1.379 . S
C362 H346 0.931 . S
C362 C356 1.383 . S
C362 C361 1.379 . S
H363 C357 0.959 . S
H364 C357 0.961 . S
H365 C357 0.960 . S
H366 C358 0.930 . S
H367 C359 0.929 . S
H368 C376 0.929 . S
H369 C378 0.930 1_556 S
H370 C380 0.930 . S
H371 C383 0.929 . S
H372 C386 0.930 . S
H373 C388 0.960 . S
H374 C388 0.960 . S
H375 C388 0.960 . S
C376 H368 0.929 . S
C376 C377 1.377 . S
C376 C378 1.384 . S
C377 C376 1.377 . S
C377 C383 1.390 . S
C378 H369 0.930 1_554 S
C378 C376 1.384 . S
C378 C379 1.372 . S
C379 C378 1.372 . S
C379 C380 1.400 . S
C379 C384 1.490 . S
C380 H370 0.930 . S
C380 C379 1.400 . S
C380 C383 1.386 . S
H381 C397 0.930 . S
H382 C398 0.931 . S
C383 H371 0.929 . S
C383 C377 1.390 . S
C383 C380 1.386 . S
C384 C379 1.490 . S
C384 C386 1.395 1_554 S
C384 C387 1.403 . S
H385 C391 0.930 1_554 S
C386 H372 0.930 . S
C386 C384 1.395 1_556 S
C386 C389 1.403 . S
C387 C384 1.403 . S
C387 C388 1.524 . S
C387 C391 1.400 1_554 S
C388 H373 0.960 . S
C388 H374 0.960 . S
C388 H375 0.960 . S
C388 C387 1.524 . S
C389 C386 1.403 . S
C389 C390 1.392 . S
C389 C393 1.495 . S
C390 C389 1.392 . S
C390 C391 1.385 . S
C390 C392 1.478 . S
C391 H385 0.930 1_556 S
C391 C387 1.400 1_556 S
C391 C390 1.385 . S
C392 C390 1.478 . S
C392 C394 1.381 . S
C392 C398 1.383 . S
C393 C389 1.495 . S
C393 H399 0.959 . S
C393 H400 0.961 . S
C393 H401 0.960 . S
C394 C392 1.381 . S
C394 C395 1.394 . S
C394 H402 0.930 . S
C395 C394 1.394 . S
C395 C396 1.383 . S
C395 H403 0.929 . S
C396 C395 1.383 . S
C396 C397 1.377 . S
C397 H381 0.930 . S
C397 C396 1.377 . S
C397 C398 1.379 . S
C398 H382 0.931 . S
C398 C392 1.383 . S
C398 C397 1.379 . S
H399 C393 0.959 . S
H400 C393 0.961 . S
H401 C393 0.960 . S
H402 C394 0.930 . S
H403 C395 0.929 . S
H404 C412 0.929 . S
H405 C414 0.930 . S
H406 C416 0.930 . S
H407 C419 0.929 . S
H408 C422 0.930 . S
H409 C424 0.960 . S
H410 C424 0.960 . S
H411 C424 0.960 . S
C412 H404 0.929 . S
C412 C413 1.377 . S
C412 C414 1.384 . S
C413 C412 1.377 . S
C413 C419 1.390 . S
C414 H405 0.930 . S
C414 C412 1.384 . S
C414 C415 1.372 . S
C415 C414 1.372 . S
C415 C416 1.400 . S
C415 C420 1.490 . S
C416 H406 0.930 . S
C416 C415 1.400 . S
C416 C419 1.386 . S
H417 C433 0.930 . S
H418 C434 0.931 . S
C419 H407 0.929 . S
C419 C413 1.390 . S
C419 C416 1.386 . S
C420 C415 1.490 . S
C420 C422 1.395 . S
C420 C423 1.403 . S
H421 C427 0.930 . S
C422 H408 0.930 . S
C422 C420 1.395 . S
C422 C425 1.403 . S
C423 C420 1.403 . S
C423 C424 1.524 . S
C423 C427 1.400 . S
C424 H409 0.960 . S
C424 H410 0.960 . S
C424 H411 0.960 . S
C424 C423 1.524 . S
C425 C422 1.403 . S
C425 C426 1.392 . S
C425 C429 1.495 . S
C426 C425 1.392 . S
C426 C427 1.385 . S
C426 C428 1.478 . S
C427 H421 0.930 . S
C427 C423 1.400 . S
C427 C426 1.385 . S
C428 C426 1.478 . S
C428 C430 1.381 . S
C428 C434 1.383 . S
C429 C425 1.495 . S
C429 H435 0.959 . S
C429 H436 0.961 . S
C429 H437 0.960 . S
C430 C428 1.381 . S
C430 C431 1.394 . S
C430 H438 0.930 . S
C431 C430 1.394 . S
C431 C432 1.383 . S
C431 H439 0.929 . S
C432 C431 1.383 . S
C432 C433 1.377 . S
C433 H417 0.930 . S
C433 C432 1.377 . S
C433 C434 1.379 . S
C434 H418 0.931 . S
C434 C428 1.383 . S
C434 C433 1.379 . S
H435 C429 0.959 . S
H436 C429 0.961 . S
H437 C429 0.960 . S
H438 C430 0.930 . S
H439 C431 0.929 . S
H440 C448 0.929 . S
H441 C450 0.930 . S
H442 C452 0.930 . S
H443 C455 0.929 . S
H444 C458 0.930 . S
H445 C460 0.960 . S
H446 C460 0.960 . S
H447 C460 0.960 . S
C448 H440 0.929 . S
C448 C449 1.377 . S
C448 C450 1.384 . S
C449 C448 1.377 . S
C449 C455 1.390 . S
C450 H441 0.930 . S
C450 C448 1.384 . S
C450 C451 1.372 . S
C451 C450 1.372 . S
C451 C452 1.400 . S
C451 C456 1.490 . S
C452 H442 0.930 . S
C452 C451 1.400 . S
C452 C455 1.386 . S
H453 C469 0.930 . S
H454 C470 0.931 . S
C455 H443 0.929 . S
C455 C449 1.390 . S
C455 C452 1.386 . S
C456 C451 1.490 . S
C456 C458 1.395 1_556 S
C456 C459 1.403 . S
H457 C463 0.930 1_556 S
C458 H444 0.930 . S
C458 C456 1.395 1_554 S
C458 C461 1.403 . S
C459 C456 1.403 . S
C459 C460 1.524 . S
C459 C463 1.400 1_556 S
C460 H445 0.960 . S
C460 H446 0.960 . S
C460 H447 0.960 . S
C460 C459 1.524 . S
C461 C458 1.403 . S
C461 C462 1.392 . S
C461 C465 1.495 . S
C462 C461 1.392 . S
C462 C463 1.385 . S
C462 C464 1.478 . S
C463 H457 0.930 1_554 S
C463 C459 1.400 1_554 S
C463 C462 1.385 . S
C464 C462 1.478 . S
C464 C466 1.381 . S
C464 C470 1.383 . S
C465 C461 1.495 . S
C465 H471 0.959 . S
C465 H472 0.961 . S
C465 H473 0.960 . S
C466 C464 1.381 . S
C466 C467 1.394 . S
C466 H474 0.930 . S
C467 C466 1.394 . S
C467 C468 1.383 . S
C467 H475 0.929 . S
C468 C467 1.383 . S
C468 C469 1.377 . S
C469 H453 0.930 . S
C469 C468 1.377 . S
C469 C470 1.379 . S
C470 H454 0.931 . S
C470 C464 1.383 . S
C470 C469 1.379 . S
H471 C465 0.959 . S
H472 C465 0.961 . S
H473 C465 0.960 . S
H474 C466 0.930 . S
H475 C467 0.929 . S
H476 C484 0.929 . S
H477 C486 0.930 . S
H478 C488 0.930 . S
H479 C491 0.929 . S
H480 C494 0.930 . S
H481 C496 0.960 . S
H482 C496 0.960 . S
H483 C496 0.960 . S
C484 H476 0.929 . S
C484 C485 1.377 . S
C484 C486 1.384 . S
C485 C484 1.377 . S
C485 C491 1.390 . S
C486 H477 0.930 . S
C486 C484 1.384 . S
C486 C487 1.372 . S
C487 C486 1.372 . S
C487 C488 1.400 . S
C487 C492 1.490 . S
C488 H478 0.930 . S
C488 C487 1.400 . S
C488 C491 1.386 . S
H489 C505 0.930 . S
H490 C506 0.931 . S
C491 H479 0.929 . S
C491 C485 1.390 . S
C491 C488 1.386 . S
C492 C487 1.490 . S
C492 C494 1.395 . S
C492 C495 1.403 . S
H493 C499 0.930 . S
C494 H480 0.930 . S
C494 C492 1.395 . S
C494 C497 1.403 . S
C495 C492 1.403 . S
C495 C496 1.524 . S
C495 C499 1.400 . S
C496 H481 0.960 . S
C496 H482 0.960 . S
C496 H483 0.960 . S
C496 C495 1.524 . S
C497 C494 1.403 . S
C497 C498 1.392 . S
C497 C501 1.495 . S
C498 C497 1.392 . S
C498 C499 1.385 . S
C498 C500 1.478 . S
C499 H493 0.930 . S
C499 C495 1.400 . S
C499 C498 1.385 . S
C500 C498 1.478 . S
C500 C502 1.381 . S
C500 C506 1.383 . S
C501 C497 1.495 . S
C501 H507 0.959 . S
C501 H508 0.961 . S
C501 H509 0.960 . S
C502 C500 1.381 . S
C502 C503 1.394 . S
C502 H510 0.930 . S
C503 C502 1.394 . S
C503 C504 1.383 . S
C503 H511 0.929 . S
C504 C503 1.383 . S
C504 C505 1.377 . S
C505 H489 0.930 . S
C505 C504 1.377 . S
C505 C506 1.379 . S
C506 H490 0.931 . S
C506 C500 1.383 . S
C506 C505 1.379 . S
H507 C501 0.959 . S
H508 C501 0.961 . S
H509 C501 0.960 . S
H510 C502 0.930 . S
H511 C503 0.929 . S
H512 C520 0.929 . S
H513 C522 0.930 . S
H514 C524 0.930 . S
H515 C527 0.929 . S
H516 C530 0.930 . S
H517 C532 0.960 1_565 S
H518 C532 0.960 . S
H519 C532 0.960 . S
C520 H512 0.929 . S
C520 C521 1.377 . S
C520 C522 1.384 . S
C521 C520 1.377 . S
C521 C527 1.390 . S
C522 H513 0.930 . S
C522 C520 1.384 . S
C522 C523 1.372 . S
C523 C522 1.372 . S
C523 C524 1.400 . S
C523 C528 1.490 . S
C524 H514 0.930 . S
C524 C523 1.400 . S
C524 C527 1.386 . S
H525 C541 0.930 . S
H526 C542 0.931 . S
C527 H515 0.929 . S
C527 C521 1.390 . S
C527 C524 1.386 . S
C528 C523 1.490 . S
C528 C530 1.395 1_554 S
C528 C531 1.403 . S
H529 C535 0.930 . S
C530 H516 0.930 . S
C530 C528 1.395 1_556 S
C530 C533 1.403 1_545 S
C531 C528 1.403 . S
C531 C532 1.524 . S
C531 C535 1.400 1_545 S
C532 H517 0.960 1_545 S
C532 H518 0.960 . S
C532 H519 0.960 . S
C532 C531 1.524 . S
C533 C530 1.403 1_565 S
C533 C534 1.392 . S
C533 C537 1.495 . S
C534 C533 1.392 . S
C534 C535 1.385 1_556 S
C534 C536 1.478 . S
C535 H529 0.930 . S
C535 C531 1.400 1_565 S
C535 C534 1.385 1_554 S
C536 C534 1.478 . S
C536 C538 1.381 . S
C536 C542 1.383 . S
C537 C533 1.495 . S
C537 H543 0.959 1_565 S
C537 H544 0.961 . S
C537 H545 0.960 . S
C538 C536 1.381 . S
C538 C539 1.394 . S
C538 H546 0.930 . S
C539 C538 1.394 . S
C539 C540 1.383 . S
C539 H547 0.929 . S
C540 C539 1.383 . S
C540 C541 1.377 . S
C541 H525 0.930 . S
C541 C540 1.377 . S
C541 C542 1.379 . S
C542 H526 0.931 . S
C542 C536 1.383 . S
C542 C541 1.379 . S
H543 C537 0.959 1_545 S
H544 C537 0.961 . S
H545 C537 0.960 . S
H546 C538 0.930 . S
H547 C539 0.929 . S
H548 C556 0.929 . S
H549 C558 0.930 . S
H550 C560 0.930 . S
H551 C563 0.929 . S
H552 C566 0.930 . S
H553 C568 0.960 . S
H554 C568 0.960 . S
H555 C568 0.960 . S
C556 H548 0.929 . S
C556 C557 1.377 . S
C556 C558 1.384 . S
C557 C556 1.377 . S
C557 C563 1.390 . S
C558 H549 0.930 . S
C558 C556 1.384 . S
C558 C559 1.372 . S
C559 C558 1.372 . S
C559 C560 1.400 . S
C559 C564 1.490 . S
C560 H550 0.930 . S
C560 C559 1.400 . S
C560 C563 1.386 . S
H561 C577 0.930 . S
H562 C578 0.931 . S
C563 H551 0.929 . S
C563 C557 1.390 . S
C563 C560 1.386 . S
C564 C559 1.490 . S
C564 C566 1.395 . S
C564 C567 1.403 . S
H565 C571 0.930 . S
C566 H552 0.930 . S
C566 C564 1.395 . S
C566 C569 1.403 1_565 S
C567 C564 1.403 . S
C567 C568 1.524 . S
C567 C571 1.400 1_565 S
C568 H553 0.960 . S
C568 H554 0.960 . S
C568 H555 0.960 . S
C568 C567 1.524 . S
C569 C566 1.403 1_545 S
C569 C570 1.392 . S
C569 C573 1.495 . S
C570 C569 1.392 . S
C570 C571 1.385 . S
C570 C572 1.478 . S
C571 H565 0.930 . S
C571 C567 1.400 1_545 S
C571 C570 1.385 . S
C572 C570 1.478 . S
C572 C574 1.381 . S
C572 C578 1.383 . S
C573 C569 1.495 . S
C573 H579 0.959 . S
C573 H580 0.961 . S
C573 H581 0.960 . S
C574 C572 1.381 . S
C574 C575 1.394 . S
C574 H582 0.930 . S
C575 C574 1.394 . S
C575 C576 1.383 . S
C575 H583 0.929 . S
C576 C575 1.383 . S
C576 C577 1.377 . S
C577 H561 0.930 . S
C577 C576 1.377 . S
C577 C578 1.379 . S
C578 H562 0.931 . S
C578 C572 1.383 . S
C578 C577 1.379 . S
H579 C573 0.959 . S
H580 C573 0.961 . S
H581 C573 0.960 . S
H582 C574 0.930 . S
H583 C575 0.929 . S
H584 C592 0.929 . S
H585 C594 0.930 . S
H586 C596 0.930 . S
H587 C599 0.929 . S
H588 C602 0.930 . S
H589 C604 0.960 . S
H590 C604 0.960 . S
H591 C604 0.960 . S
C592 H584 0.929 . S
C592 C593 1.377 . S
C592 C594 1.384 . S
C593 C592 1.377 . S
C593 C599 1.390 . S
C594 H585 0.930 . S
C594 C592 1.384 . S
C594 C595 1.372 . S
C595 C594 1.372 . S
C595 C596 1.400 . S
C595 C600 1.490 . S
C596 H586 0.930 . S
C596 C595 1.400 . S
C596 C599 1.386 . S
H597 C613 0.930 . S
H598 C614 0.931 . S
C599 H587 0.929 . S
C599 C593 1.390 . S
C599 C596 1.386 . S
C600 C595 1.490 . S
C600 C602 1.395 1_565 S
C600 C603 1.403 1_556 S
H601 C607 0.930 . S
C602 H588 0.930 . S
C602 C600 1.395 1_545 S
C602 C605 1.403 . S
C603 C600 1.403 1_554 S
C603 C604 1.524 . S
C603 C607 1.400 1_565 S
C604 H589 0.960 . S
C604 H590 0.960 . S
C604 H591 0.960 . S
C604 C603 1.524 . S
C605 C602 1.403 . S
C605 C606 1.392 1_556 S
C605 C609 1.495 . S
C606 C605 1.392 1_554 S
C606 C607 1.385 . S
C606 C608 1.478 . S
C607 H601 0.930 . S
C607 C603 1.400 1_545 S
C607 C606 1.385 . S
C608 C606 1.478 . S
C608 C610 1.381 . S
C608 C614 1.383 . S
C609 C605 1.495 . S
C609 H615 0.959 . S
C609 H616 0.961 . S
C609 H617 0.960 . S
C610 C608 1.381 . S
C610 C611 1.394 . S
C610 H618 0.930 . S
C611 C610 1.394 . S
C611 C612 1.383 . S
C611 H619 0.929 . S
C612 C611 1.383 . S
C612 C613 1.377 . S
C613 H597 0.930 . S
C613 C612 1.377 . S
C613 C614 1.379 . S
C614 H598 0.931 . S
C614 C608 1.383 . S
C614 C613 1.379 . S
H615 C609 0.959 . S
H616 C609 0.961 . S
H617 C609 0.960 . S
H618 C610 0.930 . S
H619 C611 0.929 . S
H620 C628 0.929 . S
H621 C630 0.930 . S
H622 C632 0.930 . S
H623 C635 0.929 . S
H624 C638 0.930 . S
H625 C640 0.960 . S
H626 C640 0.960 . S
H627 C640 0.960 . S
C628 H620 0.929 . S
C628 C629 1.377 . S
C628 C630 1.384 . S
C629 C628 1.377 . S
C629 C635 1.390 . S
C630 H621 0.930 . S
C630 C628 1.384 . S
C630 C631 1.372 . S
C631 C630 1.372 . S
C631 C632 1.400 . S
C631 C636 1.490 . S
C632 H622 0.930 . S
C632 C631 1.400 . S
C632 C635 1.386 . S
H633 C649 0.930 . S
H634 C650 0.931 . S
C635 H623 0.929 . S
C635 C629 1.390 . S
C635 C632 1.386 . S
C636 C631 1.490 . S
C636 C638 1.395 . S
C636 C639 1.403 . S
H637 C643 0.930 . S
C638 H624 0.930 . S
C638 C636 1.395 . S
C638 C641 1.403 1_545 S
C639 C636 1.403 . S
C639 C640 1.524 . S
C639 C643 1.400 1_545 S
C640 H625 0.960 . S
C640 H626 0.960 . S
C640 H627 0.960 . S
C640 C639 1.524 . S
C641 C638 1.403 1_565 S
C641 C642 1.392 . S
C641 C645 1.495 . S
C642 C641 1.392 . S
C642 C643 1.385 . S
C642 C644 1.478 . S
C643 H637 0.930 . S
C643 C639 1.400 1_565 S
C643 C642 1.385 . S
C644 C642 1.478 . S
C644 C646 1.381 . S
C644 C650 1.383 . S
C645 C641 1.495 . S
C645 H651 0.959 . S
C645 H652 0.961 . S
C645 H653 0.960 . S
C646 C644 1.381 . S
C646 C647 1.394 . S
C646 H654 0.930 . S
C647 C646 1.394 . S
C647 C648 1.383 . S
C647 H655 0.929 . S
C648 C647 1.383 . S
C648 C649 1.377 . S
C649 H633 0.930 . S
C649 C648 1.377 . S
C649 C650 1.379 . S
C650 H634 0.931 . S
C650 C644 1.383 . S
C650 C649 1.379 . S
H651 C645 0.959 . S
H652 C645 0.961 . S
H653 C645 0.960 . S
H654 C646 0.930 . S
H655 C647 0.929 . S
H656 C664 0.929 . S
H657 C666 0.930 . S
H658 C668 0.930 . S
H659 C671 0.929 . S
H660 C674 0.930 . S
H661 C676 0.960 . S
H662 C676 0.960 . S
H663 C676 0.960 . S
C664 H656 0.929 . S
C664 C665 1.377 . S
C664 C666 1.384 . S
C665 C664 1.377 . S
C665 C671 1.390 . S
C666 H657 0.930 . S
C666 C664 1.384 . S
C666 C667 1.372 . S
C667 C666 1.372 . S
C667 C668 1.400 . S
C667 C672 1.490 . S
C668 H658 0.930 . S
C668 C667 1.400 . S
C668 C671 1.386 . S
H669 C685 0.930 . S
H670 C686 0.931 . S
C671 H659 0.929 . S
C671 C665 1.390 . S
C671 C668 1.386 . S
C672 C667 1.490 . S
C672 C674 1.395 1_556 S
C672 C675 1.403 . S
H673 C679 0.930 . S
C674 H660 0.930 . S
C674 C672 1.395 1_554 S
C674 C677 1.403 . S
C675 C672 1.403 . S
C675 C676 1.524 . S
C675 C679 1.400 . S
C676 H661 0.960 . S
C676 H662 0.960 . S
C676 H663 0.960 . S
C676 C675 1.524 . S
C677 C674 1.403 . S
C677 C678 1.392 . S
C677 C681 1.495 . S
C678 C677 1.392 . S
C678 C679 1.385 1_554 S
C678 C680 1.478 . S
C679 H673 0.930 . S
C679 C675 1.400 . S
C679 C678 1.385 1_556 S
C680 C678 1.478 . S
C680 C682 1.381 . S
C680 C686 1.383 . S
C681 C677 1.495 . S
C681 H687 0.959 . S
C681 H688 0.961 . S
C681 H689 0.960 . S
C682 C680 1.381 . S
C682 C683 1.394 . S
C682 H690 0.930 . S
C683 C682 1.394 . S
C683 C684 1.383 . S
C683 H691 0.929 . S
C684 C683 1.383 . S
C684 C685 1.377 . S
C685 H669 0.930 . S
C685 C684 1.377 . S
C685 C686 1.379 . S
C686 H670 0.931 . S
C686 C680 1.383 . S
C686 C685 1.379 . S
H687 C681 0.959 . S
H688 C681 0.961 . S
H689 C681 0.960 . S
H690 C682 0.930 . S
H691 C683 0.929 . S
H692 C700 0.929 . S
H693 C702 0.930 . S
H694 C704 0.930 . S
H695 C707 0.929 . S
H696 C710 0.930 . S
H697 C712 0.960 . S
H698 C712 0.960 . S
H699 C712 0.960 . S
C700 H692 0.929 . S
C700 C701 1.377 . S
C700 C702 1.384 . S
C701 C700 1.377 . S
C701 C707 1.390 . S
C702 H693 0.930 . S
C702 C700 1.384 . S
C702 C703 1.372 . S
C703 C702 1.372 . S
C703 C704 1.400 . S
C703 C708 1.490 . S
C704 H694 0.930 . S
C704 C703 1.400 . S
C704 C707 1.386 . S
H705 C721 0.930 . S
H706 C722 0.931 . S
C707 H695 0.929 . S
C707 C701 1.390 . S
C707 C704 1.386 . S
C708 C703 1.490 . S
C708 C710 1.395 . S
C708 C711 1.403 . S
H709 C715 0.930 . S
C710 H696 0.930 . S
C710 C708 1.395 . S
C710 C713 1.403 . S
C711 C708 1.403 . S
C711 C712 1.524 . S
C711 C715 1.400 . S
C712 H697 0.960 . S
C712 H698 0.960 . S
C712 H699 0.960 . S
C712 C711 1.524 . S
C713 C710 1.403 . S
C713 C714 1.392 . S
C713 C717 1.495 . S
C714 C713 1.392 . S
C714 C715 1.385 . S
C714 C716 1.478 . S
C715 H709 0.930 . S
C715 C711 1.400 . S
C715 C714 1.385 . S
C716 C714 1.478 . S
C716 C718 1.381 . S
C716 C722 1.383 . S
C717 C713 1.495 . S
C717 H723 0.959 . S
C717 H724 0.961 . S
C717 H725 0.960 . S
C718 C716 1.381 . S
C718 C719 1.394 . S
C718 H726 0.930 . S
C719 C718 1.394 . S
C719 C720 1.383 . S
C719 H727 0.929 . S
C720 C719 1.383 . S
C720 C721 1.377 . S
C721 H705 0.930 . S
C721 C720 1.377 . S
C721 C722 1.379 . S
C722 H706 0.931 . S
C722 C716 1.383 . S
C722 C721 1.379 . S
H723 C717 0.959 . S
H724 C717 0.961 . S
H725 C717 0.960 . S
H726 C718 0.930 . S
H727 C719 0.929 . S
H728 C736 0.929 . S
H729 C738 0.930 . S
H730 C740 0.930 . S
H731 C743 0.929 . S
H732 C746 0.930 . S
H733 C748 0.959 1_556 S
H734 C748 0.975 . S
H735 C748 0.960 . S
C736 H728 0.929 . S
C736 C737 1.377 . S
C736 C738 1.384 . S
C737 C736 1.377 . S
C737 C743 1.390 . S
C738 H729 0.930 . S
C738 C736 1.384 . S
C738 C739 1.372 . S
C739 C738 1.372 . S
C739 C740 1.400 . S
C739 C744 1.490 . S
C740 H730 0.930 . S
C740 C739 1.400 . S
C740 C743 1.386 . S
H741 C757 0.930 . S
H742 C758 0.931 . S
C743 H731 0.929 . S
C743 C737 1.390 . S
C743 C740 1.386 . S
C744 C739 1.490 . S
C744 C746 1.395 . S
C744 C747 1.403 . S
H745 C751 0.930 . S
C746 H732 0.930 . S
C746 C744 1.395 . S
C746 C749 1.403 1_554 S
C747 C744 1.403 . S
C747 C748 1.524 . S
C747 C751 1.400 1_554 S
C748 H733 0.959 1_554 S
C748 H734 0.975 . S
C748 H735 0.960 . S
C748 C747 1.524 . S
C749 C746 1.403 1_556 S
C749 C750 1.392 . S
C749 C753 1.495 . S
C750 C749 1.392 . S
C750 C751 1.385 . S
C750 C752 1.478 . S
C751 H745 0.930 . S
C751 C747 1.400 1_556 S
C751 C750 1.385 . S
C752 C750 1.478 . S
C752 C754 1.381 . S
C752 C758 1.383 . S
C753 C749 1.495 . S
C753 H759 0.959 . S
C753 H760 0.961 . S
C753 H761 0.960 . S
C754 C752 1.381 . S
C754 C755 1.394 . S
C754 H762 0.930 . S
C755 C754 1.394 . S
C755 C756 1.383 . S
C755 H763 0.929 . S
C756 C755 1.383 . S
C756 C757 1.377 . S
C757 H741 0.930 . S
C757 C756 1.377 . S
C757 C758 1.379 . S
C758 H742 0.931 . S
C758 C752 1.383 . S
C758 C757 1.379 . S
H759 C753 0.959 . S
H760 C753 0.961 . S
H761 C753 0.960 . S
H762 C754 0.930 . S
H763 C755 0.929 . S
H764 C772 0.929 . S
H765 C774 0.930 . S
H766 C776 0.930 . S
H767 C779 0.929 . S
H768 C782 0.930 . S
H769 C784 0.960 . S
H770 C784 0.960 . S
H771 C784 0.960 . S
C772 H764 0.929 . S
C772 C773 1.377 . S
C772 C774 1.384 . S
C773 C772 1.377 . S
C773 C779 1.390 . S
C774 H765 0.930 . S
C774 C772 1.384 . S
C774 C775 1.372 . S
C775 C774 1.372 . S
C775 C776 1.400 . S
C775 C780 1.490 . S
C776 H766 0.930 . S
C776 C775 1.400 . S
C776 C779 1.386 . S
H777 C793 0.930 . S
H778 C794 0.931 . S
C779 H767 0.929 . S
C779 C773 1.390 . S
C779 C776 1.386 . S
C780 C775 1.490 . S
C780 C782 1.395 . S
C780 C783 1.403 . S
H781 C787 0.930 . S
C782 H768 0.930 . S
C782 C780 1.395 . S
C782 C785 1.403 . S
C783 C780 1.403 . S
C783 C784 1.524 . S
C783 C787 1.400 . S
C784 H769 0.960 . S
C784 H770 0.960 . S
C784 H771 0.960 . S
C784 C783 1.524 . S
C785 C782 1.403 . S
C785 C786 1.392 . S
C785 C789 1.495 . S
C786 C785 1.392 . S
C786 C787 1.385 . S
C786 C788 1.478 . S
C787 H781 0.930 . S
C787 C783 1.400 . S
C787 C786 1.385 . S
C788 C786 1.478 . S
C788 C790 1.381 . S
C788 C794 1.383 . S
C789 C785 1.495 . S
C789 H795 0.959 . S
C789 H796 0.961 . S
C789 H797 0.960 . S
C790 C788 1.381 . S
C790 C791 1.394 . S
C790 H798 0.930 . S
C791 C790 1.394 . S
C791 C792 1.383 . S
C791 H799 0.929 . S
C792 C791 1.383 . S
C792 C793 1.377 . S
C793 H777 0.930 . S
C793 C792 1.377 . S
C793 C794 1.379 . S
C794 H778 0.931 . S
C794 C788 1.383 . S
C794 C793 1.379 . S
H795 C789 0.959 . S
H796 C789 0.961 . S
H797 C789 0.960 . S
H798 C790 0.930 . S
H799 C791 0.929 . S
H800 C808 0.929 . S
H801 C810 0.930 . S
H802 C812 0.930 . S
H803 C815 0.929 . S
H804 C818 0.930 . S
H805 C820 0.960 . S
H806 C820 0.960 . S
H807 C820 0.960 . S
C808 H800 0.929 . S
C808 C809 1.377 . S
C808 C810 1.384 . S
C809 C808 1.377 . S
C809 C815 1.390 . S
C810 H801 0.930 . S
C810 C808 1.384 . S
C810 C811 1.372 . S
C811 C810 1.372 . S
C811 C812 1.400 . S
C811 C816 1.490 . S
C812 H802 0.930 . S
C812 C811 1.400 . S
C812 C815 1.386 . S
H813 C829 0.930 . S
H814 C830 0.931 . S
C815 H803 0.929 . S
C815 C809 1.390 . S
C815 C812 1.386 . S
C816 C811 1.490 . S
C816 C818 1.395 . S
C816 C819 1.403 . S
H817 C823 0.930 . S
C818 H804 0.930 . S
C818 C816 1.395 . S
C818 C821 1.403 . S
C819 C816 1.403 . S
C819 C820 1.524 . S
C819 C823 1.400 . S
C820 H805 0.960 . S
C820 H806 0.960 . S
C820 H807 0.960 . S
C820 C819 1.524 . S
C821 C818 1.403 . S
C821 C822 1.392 . S
C821 C825 1.495 . S
C822 C821 1.392 . S
C822 C823 1.385 . S
C822 C824 1.478 . S
C823 H817 0.930 . S
C823 C819 1.400 . S
C823 C822 1.385 . S
C824 C822 1.478 . S
C824 C826 1.381 . S
C824 C830 1.383 . S
C825 C821 1.495 . S
C825 H831 0.959 . S
C825 H832 0.961 . S
C825 H833 0.960 . S
C826 C824 1.381 . S
C826 C827 1.394 . S
C826 H834 0.930 . S
C827 C826 1.394 . S
C827 C828 1.383 . S
C827 H835 0.929 . S
C828 C827 1.383 . S
C828 C829 1.377 . S
C829 H813 0.930 . S
C829 C828 1.377 . S
C829 C830 1.379 . S
C830 H814 0.931 . S
C830 C824 1.383 . S
C830 C829 1.379 . S
H831 C825 0.959 . S
H832 C825 0.961 . S
H833 C825 0.960 . S
H834 C826 0.930 . S
H835 C827 0.929 . S
H836 C844 0.929 . S
H837 C846 0.930 . S
H838 C848 0.930 . S
H839 C851 0.929 . S
H840 C854 0.930 . S
H841 C856 0.960 . S
H842 C856 0.960 1_655 S
H843 C856 0.960 1_655 S
C844 H836 0.929 . S
C844 C845 1.377 . S
C844 C846 1.384 . S
C845 C844 1.377 . S
C845 C851 1.390 . S
C846 H837 0.930 . S
C846 C844 1.384 . S
C846 C847 1.372 . S
C847 C846 1.372 . S
C847 C848 1.400 . S
C847 C852 1.490 1_655 S
C848 H838 0.930 . S
C848 C847 1.400 . S
C848 C851 1.386 . S
H849 C865 0.930 . S
H850 C866 0.931 . S
C851 H839 0.929 . S
C851 C845 1.390 . S
C851 C848 1.386 . S
C852 C847 1.490 1_455 S
C852 C854 1.395 . S
C852 C855 1.403 . S
H853 C859 0.930 . S
C854 H840 0.930 . S
C854 C852 1.395 . S
C854 C857 1.403 . S
C855 C852 1.403 . S
C855 C856 1.524 . S
C855 C859 1.400 . S
C856 H841 0.960 . S
C856 H842 0.960 1_455 S
C856 H843 0.960 1_455 S
C856 C855 1.524 . S
C857 C854 1.403 . S
C857 C858 1.392 . S
C857 C861 1.495 . S
C858 C857 1.392 . S
C858 C859 1.385 . S
C858 C860 1.478 . S
C859 H853 0.930 . S
C859 C855 1.400 . S
C859 C858 1.385 . S
C860 C858 1.478 . S
C860 C862 1.381 . S
C860 C866 1.383 . S
C861 C857 1.495 . S
C861 H867 0.959 . S
C861 H868 0.961 . S
C861 H869 0.960 . S
C862 C860 1.381 . S
C862 C863 1.394 . S
C862 H870 0.930 . S
C863 C862 1.394 . S
C863 C864 1.383 . S
C863 H871 0.929 . S
C864 C863 1.383 . S
C864 C865 1.377 . S
C865 H849 0.930 . S
C865 C864 1.377 . S
C865 C866 1.379 . S
C866 H850 0.931 . S
C866 C860 1.383 . S
C866 C865 1.379 . S
H867 C861 0.959 . S
H868 C861 0.961 . S
H869 C861 0.960 . S
H870 C862 0.930 . S
H871 C863 0.929 . S
H872 C880 0.929 . S
H873 C882 0.930 . S
H874 C884 0.930 . S
H875 C887 0.929 . S
H876 C890 0.930 . S
H877 C892 0.960 . S
H878 C892 0.960 . S
H879 C892 0.960 . S
C880 H872 0.929 . S
C880 C881 1.377 . S
C880 C882 1.384 . S
C881 C880 1.377 . S
C881 C887 1.390 . S
C882 H873 0.930 . S
C882 C880 1.384 . S
C882 C883 1.372 . S
C883 C882 1.372 . S
C883 C884 1.400 . S
C883 C888 1.490 . S
C884 H874 0.930 . S
C884 C883 1.400 . S
C884 C887 1.386 . S
H885 C901 0.930 . S
H886 C902 0.931 . S
C887 H875 0.929 . S
C887 C881 1.390 . S
C887 C884 1.386 . S
C888 C883 1.490 . S
C888 C890 1.395 . S
C888 C891 1.403 . S
H889 C895 0.930 . S
C890 H876 0.930 . S
C890 C888 1.395 . S
C890 C893 1.403 . S
C891 C888 1.403 . S
C891 C892 1.524 . S
C891 C895 1.400 . S
C892 H877 0.960 . S
C892 H878 0.960 . S
C892 H879 0.960 . S
C892 C891 1.524 . S
C893 C890 1.403 . S
C893 C894 1.392 . S
C893 C897 1.495 . S
C894 C893 1.392 . S
C894 C895 1.385 . S
C894 C896 1.478 . S
C895 H889 0.930 . S
C895 C891 1.400 . S
C895 C894 1.385 . S
C896 C894 1.478 . S
C896 C898 1.381 . S
C896 C902 1.383 . S
C897 C893 1.495 . S
C897 H903 0.959 . S
C897 H904 0.961 . S
C897 H905 0.960 . S
C898 C896 1.381 . S
C898 C899 1.394 . S
C898 H906 0.930 . S
C899 C898 1.394 . S
C899 C900 1.383 . S
C899 H907 0.929 . S
C900 C899 1.383 . S
C900 C901 1.377 . S
C901 H885 0.930 . S
C901 C900 1.377 . S
C901 C902 1.379 . S
C902 H886 0.931 . S
C902 C896 1.383 . S
C902 C901 1.379 . S
H903 C897 0.959 . S
H904 C897 0.961 . S
H905 C897 0.960 . S
H906 C898 0.930 . S
H907 C899 0.929 . S
H908 C916 0.929 . S
H909 C918 0.930 . S
H910 C920 0.930 . S
H911 C923 0.929 . S
H912 C926 0.930 . S
H913 C928 0.960 . S
H914 C928 0.960 . S
H915 C928 0.960 . S
C916 H908 0.929 . S
C916 C917 1.377 . S
C916 C918 1.384 . S
C917 C916 1.377 . S
C917 C923 1.390 . S
C918 H909 0.930 . S
C918 C916 1.384 . S
C918 C919 1.372 . S
C919 C918 1.372 . S
C919 C920 1.400 . S
C919 C924 1.490 . S
C920 H910 0.930 . S
C920 C919 1.400 . S
C920 C923 1.386 . S
H921 C937 0.930 . S
H922 C938 0.931 . S
C923 H911 0.929 . S
C923 C917 1.390 . S
C923 C920 1.386 . S
C924 C919 1.490 . S
C924 C926 1.395 . S
C924 C927 1.403 . S
H925 C931 0.930 . S
C926 H912 0.930 . S
C926 C924 1.395 . S
C926 C929 1.403 . S
C927 C924 1.403 . S
C927 C928 1.524 . S
C927 C931 1.400 . S
C928 H913 0.960 . S
C928 H914 0.960 . S
C928 H915 0.960 . S
C928 C927 1.524 . S
C929 C926 1.403 . S
C929 C930 1.392 . S
C929 C933 1.495 . S
C930 C929 1.392 . S
C930 C931 1.385 . S
C930 C932 1.478 1_455 S
C931 H925 0.930 . S
C931 C927 1.400 . S
C931 C930 1.385 . S
C932 C930 1.478 1_655 S
C932 C934 1.381 . S
C932 C938 1.383 . S
C933 C929 1.495 . S
C933 H939 0.959 . S
C933 H940 0.961 1_455 S
C933 H941 0.960 1_455 S
C934 C932 1.381 . S
C934 C935 1.394 . S
C934 H942 0.930 . S
C935 C934 1.394 . S
C935 C936 1.383 . S
C935 H943 0.929 . S
C936 C935 1.383 . S
C936 C937 1.377 . S
C937 H921 0.930 . S
C937 C936 1.377 . S
C937 C938 1.379 . S
C938 H922 0.931 . S
C938 C932 1.383 . S
C938 C937 1.379 . S
H939 C933 0.959 . S
H940 C933 0.961 1_655 S
H941 C933 0.960 1_655 S
H942 C934 0.930 . S
H943 C935 0.929 . S
H944 C952 0.929 . S
H945 C954 0.930 . S
H946 C956 0.930 . S
H947 C959 0.929 . S
H948 C962 0.930 . S
H949 C964 0.960 . S
H950 C964 0.960 1_455 S
H951 C964 0.960 1_455 S
C952 H944 0.929 . S
C952 C953 1.377 . S
C952 C954 1.384 . S
C953 C952 1.377 . S
C953 C959 1.390 . S
C954 H945 0.930 . S
C954 C952 1.384 . S
C954 C955 1.372 . S
C955 C954 1.372 . S
C955 C956 1.400 . S
C955 C960 1.490 1_455 S
C956 H946 0.930 . S
C956 C955 1.400 . S
C956 C959 1.386 . S
H957 C973 0.930 . S
H958 C974 0.931 . S
C959 H947 0.929 . S
C959 C953 1.390 . S
C959 C956 1.386 . S
C960 C955 1.490 1_655 S
C960 C962 1.395 . S
C960 C963 1.403 . S
H961 C967 0.930 . S
C962 H948 0.930 . S
C962 C960 1.395 . S
C962 C965 1.403 . S
C963 C960 1.403 . S
C963 C964 1.524 . S
C963 C967 1.400 . S
C964 H949 0.960 . S
C964 H950 0.960 1_655 S
C964 H951 0.960 1_655 S
C964 C963 1.524 . S
C965 C962 1.403 . S
C965 C966 1.392 . S
C965 C969 1.495 . S
C966 C965 1.392 . S
C966 C967 1.385 . S
C966 C968 1.478 . S
C967 H961 0.930 . S
C967 C963 1.400 . S
C967 C966 1.385 . S
C968 C966 1.478 . S
C968 C970 1.381 . S
C968 C974 1.383 . S
C969 C965 1.495 . S
C969 H975 0.959 . S
C969 H976 0.961 . S
C969 H977 0.960 . S
C970 C968 1.381 . S
C970 C971 1.394 . S
C970 H978 0.930 . S
C971 C970 1.394 . S
C971 C972 1.383 . S
C971 H979 0.929 . S
C972 C971 1.383 . S
C972 C973 1.377 . S
C973 H957 0.930 . S
C973 C972 1.377 . S
C973 C974 1.379 . S
C974 H958 0.931 . S
C974 C968 1.383 . S
C974 C973 1.379 . S
H975 C969 0.959 . S
H976 C969 0.961 . S
H977 C969 0.960 . S
H978 C970 0.930 . S
H979 C971 0.929 . S
H980 C988 0.929 . S
H981 C990 0.930 . S
H982 C992 0.930 . S
H983 C995 0.929 . S
H984 C998 0.930 . S
H985 C1000 0.960 . S
H986 C1000 0.960 . S
H987 C1000 0.960 . S
C988 H980 0.929 . S
C988 C989 1.377 . S
C988 C990 1.384 . S
C989 C988 1.377 . S
C989 C995 1.390 . S
C990 H981 0.930 . S
C990 C988 1.384 . S
C990 C991 1.372 . S
C991 C990 1.372 . S
C991 C992 1.400 . S
C991 C996 1.490 . S
C992 H982 0.930 . S
C992 C991 1.400 . S
C992 C995 1.386 . S
H993 C1009 0.930 . S
H994 C1010 0.931 . S
C995 H983 0.929 . S
C995 C989 1.390 . S
C995 C992 1.386 . S
C996 C991 1.490 . S
C996 C998 1.395 . S
C996 C999 1.403 . S
H997 C1003 0.930 . S
C998 H984 0.930 . S
C998 C996 1.395 . S
C998 C1001 1.403 . S
C999 C996 1.403 . S
C999 C1000 1.524 . S
C999 C1003 1.400 . S
C1000 H985 0.960 . S
C1000 H986 0.960 . S
C1000 H987 0.960 . S
C1000 C999 1.524 . S
C1001 C998 1.403 . S
C1001 C1002 1.392 . S
C1001 C1005 1.495 . S
C1002 C1001 1.392 . S
C1002 C1003 1.385 . S
C1002 C1004 1.478 . S
C1003 H997 0.930 . S
C1003 C999 1.400 . S
C1003 C1002 1.385 . S
C1004 C1002 1.478 . S
C1004 C1006 1.381 . S
C1004 C1010 1.383 . S
C1005 C1001 1.495 . S
C1005 H1011 0.959 . S
C1005 H1012 0.961 . S
C1005 H1013 0.960 . S
C1006 C1004 1.381 . S
C1006 C1007 1.394 . S
C1006 H1014 0.930 . S
C1007 C1006 1.394 . S
C1007 C1008 1.383 . S
C1007 H1015 0.929 . S
C1008 C1007 1.383 . S
C1008 C1009 1.377 . S
C1009 H993 0.930 . S
C1009 C1008 1.377 . S
C1009 C1010 1.379 . S
C1010 H994 0.931 . S
C1010 C1004 1.383 . S
C1010 C1009 1.379 . S
H1011 C1005 0.959 . S
H1012 C1005 0.961 . S
H1013 C1005 0.960 . S
H1014 C1006 0.930 . S
H1015 C1007 0.929 . S
H1016 C1024 0.929 . S
H1017 C1026 0.930 . S
H1018 C1028 0.930 . S
H1019 C1031 0.929 . S
H1020 C1034 0.930 . S
H1021 C1036 0.960 . S
H1022 C1036 0.960 1_455 S
H1023 C1036 0.960 1_455 S
C1024 H1016 0.929 . S
C1024 C1025 1.377 . S
C1024 C1026 1.384 . S
C1025 C1024 1.377 . S
C1025 C1031 1.390 . S
C1026 H1017 0.930 . S
C1026 C1024 1.384 . S
C1026 C1027 1.372 . S
C1027 C1026 1.372 . S
C1027 C1028 1.400 . S
C1027 C1032 1.490 1_455 S
C1028 H1018 0.930 . S
C1028 C1027 1.400 . S
C1028 C1031 1.386 . S
H1029 C1045 0.930 . S
H1030 C1046 0.931 . S
C1031 H1019 0.929 . S
C1031 C1025 1.390 . S
C1031 C1028 1.386 . S
C1032 C1027 1.490 1_655 S
C1032 C1034 1.395 . S
C1032 C1035 1.403 . S
H1033 C1039 0.930 . S
C1034 H1020 0.930 . S
C1034 C1032 1.395 . S
C1034 C1037 1.403 . S
C1035 C1032 1.403 . S
C1035 C1036 1.524 . S
C1035 C1039 1.400 . S
C1036 H1021 0.960 . S
C1036 H1022 0.960 1_655 S
C1036 H1023 0.960 1_655 S
C1036 C1035 1.524 . S
C1037 C1034 1.403 . S
C1037 C1038 1.392 . S
C1037 C1041 1.495 . S
C1038 C1037 1.392 . S
C1038 C1039 1.385 . S
C1038 C1040 1.478 . S
C1039 H1033 0.930 . S
C1039 C1035 1.400 . S
C1039 C1038 1.385 . S
C1040 C1038 1.478 . S
C1040 C1042 1.381 . S
C1040 C1046 1.383 . S
C1041 C1037 1.495 . S
C1041 H1047 0.959 . S
C1041 H1048 0.961 . S
C1041 H1049 0.960 . S
C1042 C1040 1.381 . S
C1042 C1043 1.394 . S
C1042 H1050 0.930 . S
C1043 C1042 1.394 . S
C1043 C1044 1.383 . S
C1043 H1051 0.929 . S
C1044 C1043 1.383 . S
C1044 C1045 1.377 . S
C1045 H1029 0.930 . S
C1045 C1044 1.377 . S
C1045 C1046 1.379 . S
C1046 H1030 0.931 . S
C1046 C1040 1.383 . S
C1046 C1045 1.379 . S
H1047 C1041 0.959 . S
H1048 C1041 0.961 . S
H1049 C1041 0.960 . S
H1050 C1042 0.930 . S
H1051 C1043 0.929 . S
H1052 C1060 0.929 . S
H1053 C1062 0.930 . S
H1054 C1064 0.930 . S
H1055 C1067 0.929 . S
H1056 C1070 0.930 . S
H1057 C1072 0.960 . S
H1058 C1072 0.960 . S
H1059 C1072 0.960 . S
C1060 H1052 0.929 . S
C1060 C1061 1.377 . S
C1060 C1062 1.384 . S
C1061 C1060 1.377 . S
C1061 C1067 1.390 . S
C1062 H1053 0.930 . S
C1062 C1060 1.384 . S
C1062 C1063 1.372 . S
C1063 C1062 1.372 . S
C1063 C1064 1.400 . S
C1063 C1068 1.490 . S
C1064 H1054 0.930 . S
C1064 C1063 1.400 . S
C1064 C1067 1.386 . S
H1065 C1081 0.930 . S
H1066 C1082 0.931 . S
C1067 H1055 0.929 . S
C1067 C1061 1.390 . S
C1067 C1064 1.386 . S
C1068 C1063 1.490 . S
C1068 C1070 1.395 . S
C1068 C1071 1.403 . S
H1069 C1075 0.930 . S
C1070 H1056 0.930 . S
C1070 C1068 1.395 . S
C1070 C1073 1.403 . S
C1071 C1068 1.403 . S
C1071 C1072 1.524 . S
C1071 C1075 1.400 . S
C1072 H1057 0.960 . S
C1072 H1058 0.960 . S
C1072 H1059 0.960 . S
C1072 C1071 1.524 . S
C1073 C1070 1.403 . S
C1073 C1074 1.392 . S
C1073 C1077 1.495 . S
C1074 C1073 1.392 . S
C1074 C1075 1.385 . S
C1074 C1076 1.478 . S
C1075 H1069 0.930 . S
C1075 C1071 1.400 . S
C1075 C1074 1.385 . S
C1076 C1074 1.478 . S
C1076 C1078 1.381 . S
C1076 C1082 1.383 . S
C1077 C1073 1.495 . S
C1077 H1083 0.959 . S
C1077 H1084 0.961 . S
C1077 H1085 0.960 . S
C1078 C1076 1.381 . S
C1078 C1079 1.394 . S
C1078 H1086 0.930 . S
C1079 C1078 1.394 . S
C1079 C1080 1.383 . S
C1079 H1087 0.929 . S
C1080 C1079 1.383 . S
C1080 C1081 1.377 . S
C1081 H1065 0.930 . S
C1081 C1080 1.377 . S
C1081 C1082 1.379 . S
C1082 H1066 0.931 . S
C1082 C1076 1.383 . S
C1082 C1081 1.379 . S
H1083 C1077 0.959 . S
H1084 C1077 0.961 . S
H1085 C1077 0.960 . S
H1086 C1078 0.930 . S
H1087 C1079 0.929 . S
H1088 C1096 0.929 . S
H1089 C1098 0.930 . S
H1090 C1100 0.930 . S
H1091 C1103 0.929 . S
H1092 C1106 0.930 . S
H1093 C1108 0.960 . S
H1094 C1108 0.960 . S
H1095 C1108 0.960 . S
C1096 H1088 0.929 . S
C1096 C1097 1.377 . S
C1096 C1098 1.384 . S
C1097 C1096 1.377 . S
C1097 C1103 1.390 . S
C1098 H1089 0.930 . S
C1098 C1096 1.384 . S
C1098 C1099 1.372 . S
C1099 C1098 1.372 . S
C1099 C1100 1.400 . S
C1099 C1104 1.490 . S
C1100 H1090 0.930 . S
C1100 C1099 1.400 . S
C1100 C1103 1.386 . S
H1101 C1117 0.930 . S
H1102 C1118 0.931 . S
C1103 H1091 0.929 . S
C1103 C1097 1.390 . S
C1103 C1100 1.386 . S
C1104 C1099 1.490 . S
C1104 C1106 1.395 . S
C1104 C1107 1.403 . S
H1105 C1111 0.930 . S
C1106 H1092 0.930 . S
C1106 C1104 1.395 . S
C1106 C1109 1.403 . S
C1107 C1104 1.403 . S
C1107 C1108 1.524 . S
C1107 C1111 1.400 . S
C1108 H1093 0.960 . S
C1108 H1094 0.960 . S
C1108 H1095 0.960 . S
C1108 C1107 1.524 . S
C1109 C1106 1.403 . S
C1109 C1110 1.392 . S
C1109 C1113 1.495 . S
C1110 C1109 1.392 . S
C1110 C1111 1.385 . S
C1110 C1112 1.478 . S
C1111 H1105 0.930 . S
C1111 C1107 1.400 . S
C1111 C1110 1.385 . S
C1112 C1110 1.478 . S
C1112 C1114 1.381 . S
C1112 C1118 1.383 . S
C1113 C1109 1.495 . S
C1113 H1119 0.959 . S
C1113 H1120 0.961 . S
C1113 H1121 0.960 . S
C1114 C1112 1.381 . S
C1114 C1115 1.394 . S
C1114 H1122 0.930 . S
C1115 C1114 1.394 . S
C1115 C1116 1.383 . S
C1115 H1123 0.929 . S
C1116 C1115 1.383 . S
C1116 C1117 1.377 . S
C1117 H1101 0.930 . S
C1117 C1116 1.377 . S
C1117 C1118 1.379 . S
C1118 H1102 0.931 . S
C1118 C1112 1.383 . S
C1118 C1117 1.379 . S
H1119 C1113 0.959 . S
H1120 C1113 0.961 . S
H1121 C1113 0.960 . S
H1122 C1114 0.930 . S
H1123 C1115 0.929 . S
H1124 C1132 0.929 . S
H1125 C1134 0.930 . S
H1126 C1136 0.930 . S
H1127 C1139 0.929 . S
H1128 C1142 0.930 . S
H1129 C1144 0.960 . S
H1130 C1144 0.960 . S
H1131 C1144 0.960 . S
C1132 H1124 0.929 . S
C1132 C1133 1.377 . S
C1132 C1134 1.384 . S
C1133 C1132 1.377 . S
C1133 C1139 1.390 . S
C1134 H1125 0.930 . S
C1134 C1132 1.384 . S
C1134 C1135 1.372 . S
C1135 C1134 1.372 . S
C1135 C1136 1.400 . S
C1135 C1140 1.490 . S
C1136 H1126 0.930 . S
C1136 C1135 1.400 . S
C1136 C1139 1.386 . S
H1137 C1153 0.930 . S
H1138 C1154 0.931 . S
C1139 H1127 0.929 . S
C1139 C1133 1.390 . S
C1139 C1136 1.386 . S
C1140 C1135 1.490 . S
C1140 C1142 1.395 . S
C1140 C1143 1.403 . S
H1141 C1147 0.930 . S
C1142 H1128 0.930 . S
C1142 C1140 1.395 . S
C1142 C1145 1.403 . S
C1143 C1140 1.403 . S
C1143 C1144 1.524 . S
C1143 C1147 1.400 . S
C1144 H1129 0.960 . S
C1144 H1130 0.960 . S
C1144 H1131 0.960 . S
C1144 C1143 1.524 . S
C1145 C1142 1.403 . S
C1145 C1146 1.392 . S
C1145 C1149 1.495 . S
C1146 C1145 1.392 . S
C1146 C1147 1.385 . S
C1146 C1148 1.478 . S
C1147 H1141 0.930 . S
C1147 C1143 1.400 . S
C1147 C1146 1.385 . S
C1148 C1146 1.478 . S
C1148 C1150 1.381 . S
C1148 C1154 1.383 . S
C1149 C1145 1.495 . S
C1149 H1155 0.959 . S
C1149 H1156 0.961 . S
C1149 H1157 0.960 . S
C1150 C1148 1.381 . S
C1150 C1151 1.394 . S
C1150 H1158 0.930 . S
C1151 C1150 1.394 . S
C1151 C1152 1.383 . S
C1151 H1159 0.929 . S
C1152 C1151 1.383 . S
C1152 C1153 1.377 . S
C1153 H1137 0.930 . S
C1153 C1152 1.377 . S
C1153 C1154 1.379 . S
C1154 H1138 0.931 . S
C1154 C1148 1.383 . S
C1154 C1153 1.379 . S
H1155 C1149 0.959 . S
H1156 C1149 0.961 . S
H1157 C1149 0.960 . S
H1158 C1150 0.930 . S
H1159 C1151 0.929 . S
H1160 C1168 0.929 . S
H1161 C1170 0.930 . S
H1162 C1172 0.930 . S
H1163 C1175 0.929 . S
H1164 C1178 0.930 . S
H1165 C1180 0.960 . S
H1166 C1180 0.960 . S
H1167 C1180 0.960 . S
C1168 H1160 0.929 . S
C1168 C1169 1.377 . S
C1168 C1170 1.384 . S
C1169 C1168 1.377 . S
C1169 C1175 1.390 . S
C1170 H1161 0.930 . S
C1170 C1168 1.384 . S
C1170 C1171 1.372 . S
C1171 C1170 1.372 . S
C1171 C1172 1.400 . S
C1171 C1176 1.490 . S
C1172 H1162 0.930 . S
C1172 C1171 1.400 . S
C1172 C1175 1.386 . S
H1173 C1189 0.930 . S
H1174 C1190 0.931 . S
C1175 H1163 0.929 . S
C1175 C1169 1.390 . S
C1175 C1172 1.386 . S
C1176 C1171 1.490 . S
C1176 C1178 1.395 . S
C1176 C1179 1.403 . S
H1177 C1183 0.930 . S
C1178 H1164 0.930 . S
C1178 C1176 1.395 . S
C1178 C1181 1.403 . S
C1179 C1176 1.403 . S
C1179 C1180 1.524 . S
C1179 C1183 1.400 . S
C1180 H1165 0.960 . S
C1180 H1166 0.960 . S
C1180 H1167 0.960 . S
C1180 C1179 1.524 . S
C1181 C1178 1.403 . S
C1181 C1182 1.392 . S
C1181 C1185 1.495 . S
C1182 C1181 1.392 . S
C1182 C1183 1.385 . S
C1182 C1184 1.478 . S
C1183 H1177 0.930 . S
C1183 C1179 1.400 . S
C1183 C1182 1.385 . S
C1184 C1182 1.478 . S
C1184 C1186 1.381 . S
C1184 C1190 1.383 . S
C1185 C1181 1.495 . S
C1185 H1191 0.959 . S
C1185 H1192 0.961 . S
C1185 H1193 0.960 . S
C1186 C1184 1.381 . S
C1186 C1187 1.394 . S
C1186 H1194 0.930 . S
C1187 C1186 1.394 . S
C1187 C1188 1.383 . S
C1187 H1195 0.929 . S
C1188 C1187 1.383 . S
C1188 C1189 1.377 . S
C1189 H1173 0.930 . S
C1189 C1188 1.377 . S
C1189 C1190 1.379 . S
C1190 H1174 0.931 . S
C1190 C1184 1.383 . S
C1190 C1189 1.379 . S
H1191 C1185 0.959 . S
H1192 C1185 0.961 . S
H1193 C1185 0.960 . S
H1194 C1186 0.930 . S
H1195 C1187 0.929 . S
H1196 C1204 0.929 . S
H1197 C1206 0.930 . S
H1198 C1208 0.930 . S
H1199 C1211 0.929 . S
H1200 C1214 0.930 . S
H1201 C1216 0.960 . S
H1202 C1216 0.960 . S
H1203 C1216 0.960 . S
C1204 H1196 0.929 . S
C1204 C1205 1.377 . S
C1204 C1206 1.384 . S
C1205 C1204 1.377 . S
C1205 C1211 1.390 . S
C1206 H1197 0.930 . S
C1206 C1204 1.384 . S
C1206 C1207 1.372 . S
C1207 C1206 1.372 . S
C1207 C1208 1.400 . S
C1207 C1212 1.490 . S
C1208 H1198 0.930 . S
C1208 C1207 1.400 . S
C1208 C1211 1.386 . S
H1209 C1225 0.930 . S
H1210 C1226 0.931 . S
C1211 H1199 0.929 . S
C1211 C1205 1.390 . S
C1211 C1208 1.386 . S
C1212 C1207 1.490 . S
C1212 C1214 1.395 . S
C1212 C1215 1.403 . S
H1213 C1219 0.930 . S
C1214 H1200 0.930 . S
C1214 C1212 1.395 . S
C1214 C1217 1.403 . S
C1215 C1212 1.403 . S
C1215 C1216 1.524 . S
C1215 C1219 1.400 . S
C1216 H1201 0.960 . S
C1216 H1202 0.960 . S
C1216 H1203 0.960 . S
C1216 C1215 1.524 . S
C1217 C1214 1.403 . S
C1217 C1218 1.392 . S
C1217 C1221 1.495 . S
C1218 C1217 1.392 . S
C1218 C1219 1.385 . S
C1218 C1220 1.478 . S
C1219 H1213 0.930 . S
C1219 C1215 1.400 . S
C1219 C1218 1.385 . S
C1220 C1218 1.478 . S
C1220 C1222 1.381 . S
C1220 C1226 1.383 . S
C1221 C1217 1.495 . S
C1221 H1227 0.959 . S
C1221 H1228 0.961 . S
C1221 H1229 0.960 . S
C1222 C1220 1.381 . S
C1222 C1223 1.394 . S
C1222 H1230 0.930 . S
C1223 C1222 1.394 . S
C1223 C1224 1.383 . S
C1223 H1231 0.929 . S
C1224 C1223 1.383 . S
C1224 C1225 1.377 . S
C1225 H1209 0.930 . S
C1225 C1224 1.377 . S
C1225 C1226 1.379 . S
C1226 H1210 0.931 . S
C1226 C1220 1.383 . S
C1226 C1225 1.379 . S
H1227 C1221 0.959 . S
H1228 C1221 0.961 . S
H1229 C1221 0.960 . S
H1230 C1222 0.930 . S
H1231 C1223 0.929 . S
H1232 C1240 0.929 . S
H1233 C1242 0.930 . S
H1234 C1244 0.930 . S
H1235 C1247 0.929 . S
H1236 C1250 0.930 . S
H1237 C1252 0.960 . S
H1238 C1252 0.960 . S
H1239 C1252 0.960 . S
C1240 H1232 0.929 . S
C1240 C1241 1.377 . S
C1240 C1242 1.384 . S
C1241 C1240 1.377 . S
C1241 C1247 1.390 . S
C1242 H1233 0.930 . S
C1242 C1240 1.384 . S
C1242 C1243 1.372 . S
C1243 C1242 1.372 . S
C1243 C1244 1.400 . S
C1243 C1248 1.490 . S
C1244 H1234 0.930 . S
C1244 C1243 1.400 . S
C1244 C1247 1.386 . S
H1245 C1261 0.930 . S
H1246 C1262 0.931 . S
C1247 H1235 0.929 . S
C1247 C1241 1.390 . S
C1247 C1244 1.386 . S
C1248 C1243 1.490 . S
C1248 C1250 1.395 . S
C1248 C1251 1.403 . S
H1249 C1255 0.930 . S
C1250 H1236 0.930 . S
C1250 C1248 1.395 . S
C1250 C1253 1.403 . S
C1251 C1248 1.403 . S
C1251 C1252 1.524 . S
C1251 C1255 1.400 . S
C1252 H1237 0.960 . S
C1252 H1238 0.960 . S
C1252 H1239 0.960 . S
C1252 C1251 1.524 . S
C1253 C1250 1.403 . S
C1253 C1254 1.392 . S
C1253 C1257 1.495 . S
C1254 C1253 1.392 . S
C1254 C1255 1.385 . S
C1254 C1256 1.478 . S
C1255 H1249 0.930 . S
C1255 C1251 1.400 . S
C1255 C1254 1.385 . S
C1256 C1254 1.478 . S
C1256 C1258 1.381 . S
C1256 C1262 1.383 . S
C1257 C1253 1.495 . S
C1257 H1263 0.959 . S
C1257 H1264 0.961 . S
C1257 H1265 0.960 . S
C1258 C1256 1.381 . S
C1258 C1259 1.394 . S
C1258 H1266 0.930 . S
C1259 C1258 1.394 . S
C1259 C1260 1.383 . S
C1259 H1267 0.929 . S
C1260 C1259 1.383 . S
C1260 C1261 1.377 . S
C1261 H1245 0.930 . S
C1261 C1260 1.377 . S
C1261 C1262 1.379 . S
C1262 H1246 0.931 . S
C1262 C1256 1.383 . S
C1262 C1261 1.379 . S
H1263 C1257 0.959 . S
H1264 C1257 0.961 . S
H1265 C1257 0.960 . S
H1266 C1258 0.930 . S
H1267 C1259 0.929 . S
H1268 C1276 0.929 . S
H1269 C1278 0.930 . S
H1270 C1280 0.930 . S
H1271 C1283 0.929 . S
H1272 C1286 0.930 . S
H1273 C1288 0.960 . S
H1274 C1288 0.960 . S
H1275 C1288 0.960 . S
C1276 H1268 0.929 . S
C1276 C1277 1.377 . S
C1276 C1278 1.384 . S
C1277 C1276 1.377 . S
C1277 C1283 1.390 . S
C1278 H1269 0.930 . S
C1278 C1276 1.384 . S
C1278 C1279 1.372 . S
C1279 C1278 1.372 . S
C1279 C1280 1.400 . S
C1279 C1284 1.490 . S
C1280 H1270 0.930 . S
C1280 C1279 1.400 . S
C1280 C1283 1.386 . S
H1281 C1297 0.930 . S
H1282 C1298 0.931 . S
C1283 H1271 0.929 . S
C1283 C1277 1.390 . S
C1283 C1280 1.386 . S
C1284 C1279 1.490 . S
C1284 C1286 1.395 . S
C1284 C1287 1.403 . S
H1285 C1291 0.930 . S
C1286 H1272 0.930 . S
C1286 C1284 1.395 . S
C1286 C1289 1.403 . S
C1287 C1284 1.403 . S
C1287 C1288 1.524 . S
C1287 C1291 1.400 . S
C1288 H1273 0.960 . S
C1288 H1274 0.960 . S
C1288 H1275 0.960 . S
C1288 C1287 1.524 . S
C1289 C1286 1.403 . S
C1289 C1290 1.392 . S
C1289 C1293 1.495 . S
C1290 C1289 1.392 . S
C1290 C1291 1.385 . S
C1290 C1292 1.478 . S
C1291 H1285 0.930 . S
C1291 C1287 1.400 . S
C1291 C1290 1.385 . S
C1292 C1290 1.478 . S
C1292 C1294 1.381 . S
C1292 C1298 1.383 . S
C1293 C1289 1.495 . S
C1293 H1299 0.959 . S
C1293 H1300 0.961 . S
C1293 H1301 0.960 . S
C1294 C1292 1.381 . S
C1294 C1295 1.394 . S
C1294 H1302 0.930 . S
C1295 C1294 1.394 . S
C1295 C1296 1.383 . S
C1295 H1303 0.929 . S
C1296 C1295 1.383 . S
C1296 C1297 1.377 . S
C1297 H1281 0.930 . S
C1297 C1296 1.377 . S
C1297 C1298 1.379 . S
C1298 H1282 0.931 . S
C1298 C1292 1.383 . S
C1298 C1297 1.379 . S
H1299 C1293 0.959 . S
H1300 C1293 0.961 . S
H1301 C1293 0.960 . S
H1302 C1294 0.930 . S
H1303 C1295 0.929 . S
H1304 C1312 0.929 . S
H1305 C1314 0.930 . S
H1306 C1316 0.930 . S
H1307 C1319 0.929 . S
H1308 C1322 0.930 . S
H1309 C1324 0.960 . S
H1310 C1324 0.960 . S
H1311 C1324 0.960 . S
C1312 H1304 0.929 . S
C1312 C1313 1.377 . S
C1312 C1314 1.384 . S
C1313 C1312 1.377 . S
C1313 C1319 1.390 . S
C1314 H1305 0.930 . S
C1314 C1312 1.384 . S
C1314 C1315 1.372 . S
C1315 C1314 1.372 . S
C1315 C1316 1.400 . S
C1315 C1320 1.490 . S
C1316 H1306 0.930 . S
C1316 C1315 1.400 . S
C1316 C1319 1.386 . S
H1317 C1333 0.930 . S
H1318 C1334 0.931 . S
C1319 H1307 0.929 . S
C1319 C1313 1.390 . S
C1319 C1316 1.386 . S
C1320 C1315 1.490 . S
C1320 C1322 1.395 . S
C1320 C1323 1.403 . S
H1321 C1327 0.930 . S
C1322 H1308 0.930 . S
C1322 C1320 1.395 . S
C1322 C1325 1.403 . S
C1323 C1320 1.403 . S
C1323 C1324 1.524 . S
C1323 C1327 1.400 . S
C1324 H1309 0.960 . S
C1324 H1310 0.960 . S
C1324 H1311 0.960 . S
C1324 C1323 1.524 . S
C1325 C1322 1.403 . S
C1325 C1326 1.392 . S
C1325 C1329 1.495 . S
C1326 C1325 1.392 . S
C1326 C1327 1.385 . S
C1326 C1328 1.478 . S
C1327 H1321 0.930 . S
C1327 C1323 1.400 . S
C1327 C1326 1.385 . S
C1328 C1326 1.478 . S
C1328 C1330 1.381 . S
C1328 C1334 1.383 . S
C1329 C1325 1.495 . S
C1329 H1335 0.959 . S
C1329 H1336 0.961 . S
C1329 H1337 0.960 . S
C1330 C1328 1.381 . S
C1330 C1331 1.394 . S
C1330 H1338 0.930 . S
C1331 C1330 1.394 . S
C1331 C1332 1.383 . S
C1331 H1339 0.929 . S
C1332 C1331 1.383 . S
C1332 C1333 1.377 . S
C1333 H1317 0.930 . S
C1333 C1332 1.377 . S
C1333 C1334 1.379 . S
C1334 H1318 0.931 . S
C1334 C1328 1.383 . S
C1334 C1333 1.379 . S
H1335 C1329 0.959 . S
H1336 C1329 0.961 . S
H1337 C1329 0.960 . S
H1338 C1330 0.930 . S
H1339 C1331 0.929 . S
H1340 C1348 0.929 . S
H1341 C1350 0.930 . S
H1342 C1352 0.930 . S
H1343 C1355 0.929 . S
H1344 C1358 0.930 . S
H1345 C1360 0.960 . S
H1346 C1360 0.960 . S
H1347 C1360 0.960 . S
C1348 H1340 0.929 . S
C1348 C1349 1.377 . S
C1348 C1350 1.384 . S
C1349 C1348 1.377 . S
C1349 C1355 1.390 . S
C1350 H1341 0.930 . S
C1350 C1348 1.384 . S
C1350 C1351 1.372 . S
C1351 C1350 1.372 . S
C1351 C1352 1.400 . S
C1351 C1356 1.490 . S
C1352 H1342 0.930 . S
C1352 C1351 1.400 . S
C1352 C1355 1.386 . S
H1353 C1369 0.930 . S
H1354 C1370 0.931 . S
C1355 H1343 0.929 . S
C1355 C1349 1.390 . S
C1355 C1352 1.386 . S
C1356 C1351 1.490 . S
C1356 C1358 1.395 . S
C1356 C1359 1.403 . S
H1357 C1363 0.930 . S
C1358 H1344 0.930 . S
C1358 C1356 1.395 . S
C1358 C1361 1.403 . S
C1359 C1356 1.403 . S
C1359 C1360 1.524 . S
C1359 C1363 1.400 . S
C1360 H1345 0.960 . S
C1360 H1346 0.960 . S
C1360 H1347 0.960 . S
C1360 C1359 1.524 . S
C1361 C1358 1.403 . S
C1361 C1362 1.392 . S
C1361 C1365 1.495 . S
C1362 C1361 1.392 . S
C1362 C1363 1.385 . S
C1362 C1364 1.478 . S
C1363 H1357 0.930 . S
C1363 C1359 1.400 . S
C1363 C1362 1.385 . S
C1364 C1362 1.478 . S
C1364 C1366 1.381 . S
C1364 C1370 1.383 . S
C1365 C1361 1.495 . S
C1365 H1371 0.959 . S
C1365 H1372 0.961 . S
C1365 H1373 0.960 . S
C1366 C1364 1.381 . S
C1366 C1367 1.394 . S
C1366 H1374 0.930 . S
C1367 C1366 1.394 . S
C1367 C1368 1.383 . S
C1367 H1375 0.929 . S
C1368 C1367 1.383 . S
C1368 C1369 1.377 . S
C1369 H1353 0.930 . S
C1369 C1368 1.377 . S
C1369 C1370 1.379 . S
C1370 H1354 0.931 . S
C1370 C1364 1.383 . S
C1370 C1369 1.379 . S
H1371 C1365 0.959 . S
H1372 C1365 0.961 . S
H1373 C1365 0.960 . S
H1374 C1366 0.930 . S
H1375 C1367 0.929 . S
C233 C8 1.493 . S
C252 C175 1.438 . S
C269 C189 1.459 . S
C288 C22 1.494 . S
C305 C36 1.493 . S
C324 C203 1.465 . S
C341 C217 1.459 . S
C360 C50 1.497 . S
C377 C120 1.489 . S
C396 C63 1.482 . S
C413 C77 1.460 . S
C432 C134 1.499 . S
C449 C148 1.490 . S
C468 C91 1.481 . S
C485 C105 1.460 . S
C504 C162 1.489 . S
C521 C3 1.510 . S
C540 C31 1.508 . S
C557 C17 1.512 . S
C576 C45 1.507 . S
C593 C59 1.538 . S
C612 C87 1.529 . S
C629 C73 1.539 . S
C648 C101 1.530 . S
C665 C143 1.511 . S
C684 C115 1.502 . S
C701 C129 1.510 . S
C720 C157 1.506 . S
C737 C199 1.537 . S
C756 C171 1.536 . S
C773 C185 1.539 . S
C792 C213 1.534 . S
C809 C93 1.517 . S
C828 C9 1.525 . S
C845 C107 1.517 . S
C864 C23 1.521 . S
C881 C37 1.525 . S
C900 C65 1.502 . S
C917 C51 1.521 . S
C936 C79 1.505 . S
C953 C205 1.516 . S
C972 C121 1.529 . S
C989 C135 1.521 . S
C1008 C219 1.516 . S
C1025 C177 1.516 . S
C1044 C149 1.528 . S
C1061 C163 1.524 . S
C1080 C191 1.525 . S
C1097 C7 1.201 . S
C1116 C49 1.233 . S
C1133 C35 1.200 . S
C1152 C21 1.232 . S
C1169 C64 1.662 . S
C1188 C106 1.655 . S
C1205 C78 1.664 . S
C1224 C92 1.665 . S
C1241 C161 1.212 . S
C1260 C119 1.174 . S
C1277 C133 1.204 . S
C1296 C147 1.208 . S
C1313 C218 1.662 . S
C1332 C176 1.662 . S
C1349 C190 1.662 . S
C1368 C204 1.654 . S
