# Generated by pormake.
# Topology umc, (4)-cn, num edge types: 1
# Building blocks:
#     Node 0, Type 0, BuildingBlock: QUQFOY_clean_sbu_1, # of connection points: 4
#     Node 1, Type 0, BuildingBlock: QUQFOY_clean_sbu_1, # of connection points: 4
#     Node 2, Type 0, BuildingBlock: QUQFOY_clean_sbu_1, # of connection points: 4
#     Node 3, Type 0, BuildingBlock: QUQFOY_clean_sbu_1, # of connection points: 4
#     Node 4, Type 0, BuildingBlock: QUQFOY_clean_sbu_1, # of connection points: 4
#     Node 5, Type 0, BuildingBlock: QUQFOY_clean_sbu_1, # of connection points: 4
#     Node 6, Type 0, BuildingBlock: QUQFOY_clean_sbu_1, # of connection points: 4
#     Node 7, Type 0, BuildingBlock: QUQFOY_clean_sbu_1, # of connection points: 4
#     Node 8, Type 0, BuildingBlock: QUQFOY_clean_sbu_1, # of connection points: 4
#     Node 9, Type 0, BuildingBlock: QUQFOY_clean_sbu_1, # of connection points: 4
#     Node 10, Type 0, BuildingBlock: QUQFOY_clean_sbu_1, # of connection points: 4
#     Node 11, Type 0, BuildingBlock: QUQFOY_clean_sbu_1, # of connection points: 4
#     Node 12, Type 0, BuildingBlock: QUQFOY_clean_sbu_1, # of connection points: 4
#     Node 13, Type 0, BuildingBlock: QUQFOY_clean_sbu_1, # of connection points: 4
#     Node 14, Type 0, BuildingBlock: QUQFOY_clean_sbu_1, # of connection points: 4
#     Node 15, Type 0, BuildingBlock: QUQFOY_clean_sbu_1, # of connection points: 4
#     Edge 16, Type (0, 0), BuildingBlock: AJUNOK_clean_linker_0, # of connection points: 2
#     Edge 17, Type (0, 0), BuildingBlock: AJUNOK_clean_linker_0, # of connection points: 2
#     Edge 18, Type (0, 0), BuildingBlock: AJUNOK_clean_linker_0, # of connection points: 2
#     Edge 19, Type (0, 0), BuildingBlock: AJUNOK_clean_linker_0, # of connection points: 2
#     Edge 20, Type (0, 0), BuildingBlock: AJUNOK_clean_linker_0, # of connection points: 2
#     Edge 21, Type (0, 0), BuildingBlock: AJUNOK_clean_linker_0, # of connection points: 2
#     Edge 22, Type (0, 0), BuildingBlock: AJUNOK_clean_linker_0, # of connection points: 2
#     Edge 23, Type (0, 0), BuildingBlock: AJUNOK_clean_linker_0, # of connection points: 2
#     Edge 24, Type (0, 0), BuildingBlock: AJUNOK_clean_linker_0, # of connection points: 2
#     Edge 25, Type (0, 0), BuildingBlock: AJUNOK_clean_linker_0, # of connection points: 2
#     Edge 26, Type (0, 0), BuildingBlock: AJUNOK_clean_linker_0, # of connection points: 2
#     Edge 27, Type (0, 0), BuildingBlock: AJUNOK_clean_linker_0, # of connection points: 2
#     Edge 28, Type (0, 0), BuildingBlock: AJUNOK_clean_linker_0, # of connection points: 2
#     Edge 29, Type (0, 0), BuildingBlock: AJUNOK_clean_linker_0, # of connection points: 2
#     Edge 30, Type (0, 0), BuildingBlock: AJUNOK_clean_linker_0, # of connection points: 2
#     Edge 31, Type (0, 0), BuildingBlock: AJUNOK_clean_linker_0, # of connection points: 2
#     Edge 32, Type (0, 0), BuildingBlock: AJUNOK_clean_linker_0, # of connection points: 2
#     Edge 33, Type (0, 0), BuildingBlock: AJUNOK_clean_linker_0, # of connection points: 2
#     Edge 34, Type (0, 0), BuildingBlock: AJUNOK_clean_linker_0, # of connection points: 2
#     Edge 35, Type (0, 0), BuildingBlock: AJUNOK_clean_linker_0, # of connection points: 2
#     Edge 36, Type (0, 0), BuildingBlock: AJUNOK_clean_linker_0, # of connection points: 2
#     Edge 37, Type (0, 0), BuildingBlock: AJUNOK_clean_linker_0, # of connection points: 2
#     Edge 38, Type (0, 0), BuildingBlock: AJUNOK_clean_linker_0, # of connection points: 2
#     Edge 39, Type (0, 0), BuildingBlock: AJUNOK_clean_linker_0, # of connection points: 2
#     Edge 40, Type (0, 0), BuildingBlock: AJUNOK_clean_linker_0, # of connection points: 2
#     Edge 41, Type (0, 0), BuildingBlock: AJUNOK_clean_linker_0, # of connection points: 2
#     Edge 42, Type (0, 0), BuildingBlock: AJUNOK_clean_linker_0, # of connection points: 2
#     Edge 43, Type (0, 0), BuildingBlock: AJUNOK_clean_linker_0, # of connection points: 2
#     Edge 44, Type (0, 0), BuildingBlock: AJUNOK_clean_linker_0, # of connection points: 2
#     Edge 45, Type (0, 0), BuildingBlock: AJUNOK_clean_linker_0, # of connection points: 2
#     Edge 46, Type (0, 0), BuildingBlock: AJUNOK_clean_linker_0, # of connection points: 2
#     Edge 47, Type (0, 0), BuildingBlock: AJUNOK_clean_linker_0, # of connection points: 2
# Relax obj value: 0.042
# Max RMSD: 0.111
# Mean RMSD: 0.111
data_MOF--net-umc--node1-QUQFOY_clean_sbu_1--edge1-AJUNOK_clean_linker_0
_symmetry_space_group_name_H-M    P1
_symmetry_Int_Tables_number       1
_symmetry_cell_setting            triclinic
loop_
_symmetry_equiv_pos_as_xyz
'x, y, z'
_cell_length_a     29.244129
_cell_length_b     29.899799
_cell_length_c     41.771977
_cell_angle_alpha  90.009792
_cell_angle_beta   89.97902
_cell_angle_gamma 89.987784
loop_
_atom_site_label
_atom_site_type_symbol
_atom_site_fract_x
_atom_site_fract_y
_atom_site_fract_z
_atom_type_partial_charge
O0 O 0.31967 0.12462 0.44723 0.0
Cd1 Cd 0.34057 0.13953 0.40133 0.0
Cd2 Cd 0.31445 0.05313 0.3948 0.0
O3 O 0.28573 0.05943 0.43995 0.0
O4 O 0.34593 0.20675 0.40081 0.0
O5 O 0.29264 0.17016 0.37421 0.0
C6 C 0.30964 0.20781 0.3833 0.0
C7 C 0.27721 0.04868 0.34569 0.0
C8 C 0.29592 0.09229 0.45798 0.0
C9 C 0.41422 0.07107 0.38767 0.0
O10 O 0.38377 0.04168 0.39316 0.0
O11 O 0.40322 0.11238 0.38661 0.0
O12 O 0.28229 1.01338 0.36326 0.0
O13 O 0.29051 0.08643 0.35735 0.0
O14 O 0.69841 0.95834 0.44901 0.0
Cd15 Cd 0.67666 0.94202 0.40349 0.0
Cd16 Cd 0.70515 1.02741 0.39492 0.0
O17 O 0.73357 1.02259 0.44023 0.0
O18 O 0.67069 0.87479 0.40364 0.0
O19 O 0.72416 0.91046 0.37654 0.0
C20 C 0.70686 0.87312 0.386 0.0
C21 C 0.74209 1.03084 0.34569 0.0
C22 C 0.72279 0.99072 0.45897 0.0
C23 C 0.60485 1.01166 0.38825 0.0
O24 O 0.63624 1.04031 0.39295 0.0
O25 O 0.61439 0.96996 0.38848 0.0
O26 O 0.73757 0.06639 0.36308 0.0
O27 O 0.72871 0.99332 0.35769 0.0
O28 O 0.3232 0.95655 0.1069 0.0
Cd29 Cd 0.34141 0.94169 0.15335 0.0
Cd30 Cd 0.31222 1.02644 0.15993 0.0
O31 O 0.28497 1.01936 0.11433 0.0
O32 O 0.3466 0.87447 0.15487 0.0
O33 O 0.29163 0.91194 0.17917 0.0
C34 C 0.30914 0.87401 0.17119 0.0
C35 C 0.27493 1.03283 0.2089 0.0
C36 C 0.29834 0.98797 0.09596 0.0
C37 C 0.4122 1.01153 0.16869 0.0
O38 O 0.38103 1.03976 0.16228 0.0
O39 O 0.4027 0.96987 0.1697 0.0
O40 O 0.27943 0.06726 0.19041 0.0
O41 O 0.28816 0.99458 0.19802 0.0
O42 O 0.69413 0.12311 0.10715 0.0
Cd43 Cd 0.67576 0.13879 0.15346 0.0
Cd44 Cd 0.70191 0.05294 0.1602 0.0
O45 O 0.72941 0.05871 0.11462 0.0
O46 O 0.67268 0.20616 0.1543 0.0
O47 O 0.72559 0.16751 0.17977 0.0
C48 C 0.70978 0.2058 0.171 0.0
C49 C 0.73982 0.04586 0.20889 0.0
C50 C 0.71762 0.09067 0.09625 0.0
C51 C 0.60235 0.07142 0.16861 0.0
O52 O 0.63258 0.042 0.16263 0.0
O53 O 0.61343 0.1127 0.16954 0.0
O54 O 0.73368 1.01138 0.19068 0.0
O55 O 0.72754 0.08438 0.19797 0.0
O56 O 0.70026 0.96019 0.60686 0.0
Cd57 Cd 0.6768 0.94302 0.65172 0.0
Cd58 Cd 0.70198 1.02903 0.65942 0.0
O59 O 0.73148 1.02641 0.61437 0.0
O60 O 0.67268 0.87659 0.64622 0.0
O61 O 0.72012 0.90843 0.68045 0.0
C62 C 0.7058 0.87275 0.66635 0.0
C63 C 0.73895 1.03318 0.70858 0.0
C64 C 0.72296 0.99325 0.59627 0.0
C65 C 0.60179 1.00941 0.66521 0.0
O66 O 0.63233 1.03919 0.66116 0.0
O67 O 0.61283 0.96809 0.66505 0.0
O68 O 0.73265 0.06869 0.69144 0.0
O69 O 0.72722 0.99518 0.69639 0.0
O70 O 0.31893 0.12399 0.60621 0.0
Cd71 Cd 0.33975 0.13892 0.65208 0.0
Cd72 Cd 0.31075 0.0531 0.65899 0.0
O73 O 0.28279 0.05994 0.61363 0.0
O74 O 0.34403 0.20631 0.65306 0.0
O75 O 0.29149 0.16832 0.67938 0.0
C76 C 0.30743 0.20641 0.67033 0.0
C77 C 0.27328 0.04806 0.70802 0.0
C78 C 0.29431 0.09227 0.5955 0.0
C79 C 0.41122 0.06892 0.66621 0.0
O80 O 0.37976 0.04054 0.66091 0.0
O81 O 0.40183 0.11064 0.66689 0.0
O82 O 0.27806 1.01301 0.69014 0.0
O83 O 0.28683 0.08588 0.69667 0.0
O84 O 0.69476 0.12306 0.94693 0.0
Cd85 Cd 0.67595 0.13884 0.90068 0.0
Cd86 Cd 0.70216 0.05239 0.89414 0.0
O87 O 0.72954 0.0583 0.93969 0.0
O88 O 0.6726 0.20629 0.89994 0.0
O89 O 0.72534 0.16795 0.8741 0.0
C90 C 0.70947 0.20616 0.88297 0.0
C91 C 0.74 0.04671 0.84539 0.0
C92 C 0.71799 0.0905 0.95793 0.0
C93 C 0.60263 0.07105 0.88569 0.0
O94 O 0.63287 0.04165 0.89166 0.0
O95 O 0.61365 0.11236 0.88476 0.0
O96 O 0.73405 1.01166 0.86308 0.0
O97 O 0.72748 0.08484 0.85684 0.0
O98 O 0.32336 0.95586 0.94686 0.0
Cd99 Cd 0.34217 0.94047 0.90061 0.0
Cd100 Cd 0.31233 1.02533 0.8934 0.0
O101 O 0.28528 1.01869 0.93912 0.0
O102 O 0.34617 0.87309 0.89945 0.0
O103 O 0.29274 0.91142 0.87428 0.0
C104 C 0.30895 0.87322 0.88286 0.0
C105 C 0.27422 1.03176 0.84468 0.0
C106 C 0.29852 0.98741 0.95763 0.0
C107 C 0.41269 1.01039 0.88498 0.0
O108 O 0.3812 1.03856 0.89079 0.0
O109 O 0.40355 0.96862 0.88447 0.0
O110 O 0.27924 0.06623 0.86307 0.0
O111 O 0.28761 0.99354 0.85547 0.0
O112 O 0.8178 0.61999 0.44814 0.0
Cd113 Cd 0.83817 0.637 0.40244 0.0
Cd114 Cd 0.80973 0.55167 0.39378 0.0
O115 O 0.78217 0.55604 0.43935 0.0
O116 O 0.84221 0.70442 0.40265 0.0
O117 O 0.78961 0.66723 0.37582 0.0
C118 C 0.80562 0.70506 0.3854 0.0
C119 C 0.77162 0.54699 0.34508 0.0
C120 C 0.79382 0.5874 0.45827 0.0
C121 C 0.91003 0.56814 0.38635 0.0
O122 O 0.87875 0.53939 0.39114 0.0
O123 O 0.90041 0.60982 0.38678 0.0
O124 O 0.77725 0.51174 0.3626 0.0
O125 O 0.78463 0.58488 0.35666 0.0
O126 O 0.19345 0.45686 0.44691 0.0
Cd127 Cd 0.17425 0.4412 0.40078 0.0
Cd128 Cd 0.20031 0.52725 0.39389 0.0
O129 O 0.22868 0.52124 0.43918 0.0
O130 O 0.17123 0.37377 0.39995 0.0
O131 O 0.22381 0.41246 0.37418 0.0
C132 C 0.20819 0.37416 0.38307 0.0
C133 C 0.2375 0.53361 0.34483 0.0
C134 C 0.21723 0.48922 0.45761 0.0
C135 C 0.10063 0.50887 0.38625 0.0
O136 O 0.13093 0.53829 0.39207 0.0
O137 O 0.11174 0.46759 0.38516 0.0
O138 O 0.23193 0.5683 0.36293 0.0
O139 O 0.22498 0.49531 0.35601 0.0
O140 O 0.82213 0.45562 0.1069 0.0
Cd141 Cd 0.84129 0.4409 0.15317 0.0
Cd142 Cd 0.81113 0.52547 0.1599 0.0
O143 O 0.78399 0.51847 0.11436 0.0
O144 O 0.84742 0.37376 0.15421 0.0
O145 O 0.79271 0.41021 0.17954 0.0
C146 C 0.81045 0.3726 0.17104 0.0
C147 C 0.77284 0.53135 0.20852 0.0
C148 C 0.7972 0.48701 0.09601 0.0
C149 C 0.91154 0.51142 0.16812 0.0
O150 O 0.87987 0.53938 0.16232 0.0
O151 O 0.90258 0.46963 0.1689 0.0
O152 O 0.77759 0.56593 0.1902 0.0
O153 O 0.78672 0.49327 0.19772 0.0
O154 O 0.1956 0.62482 0.10646 0.0
Cd155 Cd 0.17509 0.64026 0.1524 0.0
Cd156 Cd 0.20116 0.55351 0.15906 0.0
O157 O 0.22934 0.5595 0.11372 0.0
O158 O 0.17146 0.70766 0.15302 0.0
O159 O 0.22347 0.66955 0.17969 0.0
C160 C 0.20783 0.70768 0.17049 0.0
C161 C 0.23854 0.54861 0.20806 0.0
C162 C 0.21907 0.59231 0.09567 0.0
C163 C 0.1015 0.57224 0.1668 0.0
O164 O 0.13182 0.54276 0.16121 0.0
O165 O 0.1125 0.61356 0.16758 0.0
O166 O 0.23307 0.51336 0.19049 0.0
O167 O 0.22574 0.5865 0.19639 0.0
O168 O 0.19499 0.45691 0.60649 0.0
Cd169 Cd 0.17565 0.44155 0.65264 0.0
Cd170 Cd 0.20487 0.52659 0.65981 0.0
O171 O 0.23239 0.52013 0.61427 0.0
O172 O 0.16999 0.37431 0.65353 0.0
O173 O 0.22446 0.41094 0.67891 0.0
C174 C 0.20693 0.37328 0.67038 0.0
C175 C 0.24214 0.53097 0.70889 0.0
C176 C 0.21958 0.48867 0.59577 0.0
C177 C 0.10459 0.51155 0.66748 0.0
O178 O 0.13603 0.53983 0.66185 0.0
O179 O 0.11397 0.46984 0.66825 0.0
O180 O 0.23779 0.56617 0.69112 0.0
O181 O 0.22841 0.49331 0.69736 0.0
O182 O 0.81675 0.61943 0.60653 0.0
Cd183 Cd 0.83948 0.63741 0.65145 0.0
Cd184 Cd 0.81403 0.55185 0.65986 0.0
O185 O 0.78518 0.55355 0.61466 0.0
O186 O 0.84441 0.70371 0.64559 0.0
O187 O 0.79616 0.67291 0.6797 0.0
C188 C 0.8111 0.70828 0.66551 0.0
C189 C 0.77643 0.54871 0.70876 0.0
C190 C 0.79441 0.58601 0.59611 0.0
C191 C 0.91414 0.57111 0.66601 0.0
O192 O 0.88358 0.54133 0.66208 0.0
O193 O 0.90319 0.61244 0.66539 0.0
O194 O 0.78282 0.51286 0.69199 0.0
O195 O 0.78843 0.58645 0.69632 0.0
O196 O 0.19642 0.62375 0.94694 0.0
Cd197 Cd 0.17691 0.63834 0.90071 0.0
Cd198 Cd 0.20302 0.55236 0.89467 0.0
O199 O 0.23095 0.55878 0.94008 0.0
O200 O 0.1716 0.70548 0.89993 0.0
O201 O 0.2256 0.66869 0.87411 0.0
C202 C 0.20833 0.7064 0.88286 0.0
C203 C 0.2405 0.54625 0.84572 0.0
C204 C 0.22009 0.59156 0.95799 0.0
C205 C 0.10351 0.5702 0.88649 0.0
O206 O 0.13378 0.54087 0.89257 0.0
O207 O 0.11459 0.61146 0.88527 0.0
O208 O 0.23512 0.51156 0.86385 0.0
O209 O 0.22773 0.58452 0.85686 0.0
O210 O 0.82287 0.45554 0.94695 0.0
Cd211 Cd 0.84202 0.44073 0.90064 0.0
Cd212 Cd 0.81306 0.52564 0.89412 0.0
O213 O 0.78541 0.51877 0.9395 0.0
O214 O 0.8474 0.37355 0.89941 0.0
O215 O 0.79301 0.41067 0.87425 0.0
C216 C 0.8104 0.37284 0.88262 0.0
C217 C 0.77543 0.53292 0.84543 0.0
C218 C 0.79816 0.48712 0.95783 0.0
C219 C 0.91324 0.51039 0.88585 0.0
O220 O 0.88196 0.53868 0.89188 0.0
O221 O 0.90374 0.46872 0.88494 0.0
O222 O 0.78064 0.56713 0.86403 0.0
O223 O 0.78832 0.49438 0.85602 0.0
C224 C 0.28322 0.05155 0.50984 0.0
C225 C 0.28435 0.09196 0.49253 0.0
C226 C 0.28273 0.05153 0.54354 0.0
C227 C 0.28336 0.09192 0.56088 0.0
H228 H 0.28593 1.01986 0.49742 0.0
H229 H 0.28513 1.01984 0.55599 0.0
S230 S 0.27617 0.20626 0.52672 0.0
N231 N 0.27859 0.17301 0.49521 0.0
N232 N 0.27773 0.17296 0.55821 0.0
C233 C 0.28013 0.13227 0.54375 0.0
C234 C 0.28061 0.1323 0.50965 0.0
C235 C 0.73371 1.03373 0.54407 0.0
C236 C 0.73489 0.99368 0.56178 0.0
C237 C 0.73358 1.03306 0.51036 0.0
C238 C 0.73453 0.99231 0.49345 0.0
H239 H 0.72951 0.06549 0.55621 0.0
H240 H 0.72935 0.06433 0.49761 0.0
S241 S 0.74793 0.87917 0.52866 0.0
N242 N 0.74465 0.91293 0.55984 0.0
N243 N 0.74408 0.91171 0.49684 0.0
C244 C 0.7401 0.95254 0.51093 0.0
C245 C 0.74039 0.95321 0.54502 0.0
C246 C 0.29349 0.94855 0.04359 0.0
C247 C 0.28859 0.98851 0.06105 0.0
C248 C 0.29352 0.94842 1.01014 0.0
C249 C 0.28866 0.98824 0.99252 0.0
H250 H 0.29932 0.91712 0.05584 0.0
H251 H 0.29937 0.91689 0.99802 0.0
S252 S 0.26915 0.10131 1.02657 0.0
N253 N 0.27431 0.06857 0.05821 0.0
N254 N 0.27438 0.06832 0.99505 0.0
C255 C 0.28026 1.02807 1.00955 0.0
C256 C 0.28022 1.0282 0.04387 0.0
C257 C 0.72415 0.12964 1.01036 0.0
C258 C 0.7277 0.08959 0.99284 0.0
C259 C 0.72405 0.12968 0.04381 0.0
C260 C 0.72749 0.08966 0.06137 0.0
H261 H 0.71943 0.16128 0.99816 0.0
H262 H 0.71925 0.16134 0.05598 0.0
S263 S 0.74327 0.97611 0.02718 0.0
N264 N 0.73928 1.00909 0.99559 0.0
N265 N 0.73909 1.00917 0.05874 0.0
C266 C 0.73457 0.04963 0.04429 0.0
C267 C 0.73468 0.04959 1.00998 0.0
C268 C 0.7836 0.62509 0.54413 0.0
C269 C 0.78336 0.5847 0.56143 0.0
C270 C 0.78361 0.62546 0.51069 0.0
C271 C 0.78322 0.58547 0.49298 0.0
H272 H 0.78611 0.65686 0.55649 0.0
H273 H 0.78612 0.65746 0.49863 0.0
S274 S 0.77622 0.47078 0.52655 0.0
N275 N 0.77784 0.50364 0.55833 0.0
N276 N 0.77766 0.50435 0.49516 0.0
C277 C 0.77906 0.54488 0.50982 0.0
C278 C 0.77916 0.54449 0.54413 0.0
C279 C 0.2255 0.44975 0.54329 0.0
C280 C 0.22929 0.48971 0.56088 0.0
C281 C 0.22484 0.4499 0.50985 0.0
C282 C 0.22789 0.49003 0.49238 0.0
H283 H 0.22093 0.41806 0.55547 0.0
H284 H 0.21983 0.4183 0.49763 0.0
S285 S 0.2442 0.60338 0.52676 0.0
N286 N 0.24079 0.57021 0.5583 0.0
N287 N 0.23952 0.57051 0.49514 0.0
C288 C 0.23531 0.52995 0.5095 0.0
C289 C 0.23602 0.52979 0.54381 0.0
C290 C 0.79272 0.44777 1.01017 0.0
C291 C 0.78799 0.48769 0.99266 0.0
C292 C 0.79245 0.44774 0.04361 0.0
C293 C 0.78742 0.48762 0.06114 0.0
H294 H 0.79871 0.41631 0.99798 0.0
H295 H 0.79825 0.41626 0.05581 0.0
S296 S 0.76802 0.60058 0.0269 0.0
N297 N 0.77352 0.56775 0.99532 0.0
N298 N 0.77301 0.56768 0.05847 0.0
C299 C 0.77909 0.52739 0.04404 0.0
C300 C 0.77937 0.52742 1.00974 0.0
C301 C 0.23095 0.55125 0.04382 0.0
C302 C 0.23024 0.59174 0.06104 0.0
C303 C 0.23122 0.55106 1.01011 0.0
C304 C 0.23079 0.59136 0.99267 0.0
H305 H 0.22814 0.51963 0.05632 0.0
H306 H 0.2286 0.51931 0.99775 0.0
S307 S 0.23895 0.70582 1.02657 0.0
N308 N 0.23649 0.67273 0.05815 0.0
N309 N 0.23697 0.67238 0.99516 0.0
C310 C 0.23434 0.63178 1.00971 0.0
C311 C 0.23408 0.63197 0.04381 0.0
C312 C 0.52024 0.99667 0.38785 0.0
C313 C 0.55659 1.02716 0.38464 0.0
C314 C 0.47454 1.0111 0.38782 0.0
C315 C 0.46297 0.0567 0.38449 0.0
H316 H 0.52705 0.96142 0.39141 0.0
H317 H 0.44811 0.98616 0.39124 0.0
S318 S 0.54514 0.14977 0.37187 0.0
N319 N 0.57765 0.10495 0.3755 0.0
N320 N 0.492 0.1319 0.3755 0.0
C321 C 0.49891 0.08736 0.37986 0.0
C322 C 0.54553 0.07266 0.37993 0.0
C323 C 0.49673 0.99674 0.17022 0.0
C324 C 0.46028 1.02727 0.17256 0.0
C325 C 0.54235 1.01131 0.17006 0.0
C326 C 0.55372 0.05707 0.17235 0.0
H327 H 0.49007 0.96133 0.16737 0.0
H328 H 0.56888 0.98632 0.16726 0.0
S329 S 0.47114 0.15036 0.18278 0.0
N330 N 0.43881 0.10529 0.18002 0.0
N331 N 0.52437 0.13253 0.17969 0.0
C332 C 0.51766 0.0878 0.1763 0.0
C333 C 0.4711 0.07296 0.17639 0.0
C334 C 0.54149 0.06932 0.66662 0.0
C335 C 0.55302 1.02355 0.6685 0.0
C336 C 0.49582 0.08378 0.66707 0.0
C337 C 0.45945 0.05315 0.66934 0.0
H338 H 0.56794 0.09443 0.66403 0.0
H339 H 0.48905 0.11922 0.66464 0.0
S340 S 0.47079 0.92983 0.67809 0.0
N341 N 0.52393 0.94788 0.67503 0.0
N342 N 0.43831 0.97488 0.67594 0.0
C343 C 0.47046 1.00738 0.67256 0.0
C344 C 0.51705 0.99265 0.67212 0.0
C345 C 0.54286 1.01075 0.88394 0.0
C346 C 0.55405 0.05657 0.88184 0.0
C347 C 0.4973 0.996 0.88361 0.0
C348 C 0.46073 1.02638 0.88128 0.0
H349 H 0.56947 0.98584 0.8867 0.0
H350 H 0.49079 0.96054 0.88631 0.0
S351 S 0.47116 0.14962 0.87163 0.0
N352 N 0.52445 0.13197 0.87477 0.0
N353 N 0.439 0.1044 0.87411 0.0
C354 C 0.47139 0.07216 0.87766 0.0
C355 C 0.51789 0.08719 0.87794 0.0
C356 C 0.99461 0.58324 0.386 0.0
C357 C 0.95831 0.55273 0.38262 0.0
C358 C 0.04031 0.56882 0.38612 0.0
C359 C 0.05193 0.52323 0.38278 0.0
H360 H 0.98775 0.61846 0.38964 0.0
H361 H 0.06669 0.59375 0.3897 0.0
S362 S 0.96992 0.43019 0.36957 0.0
N363 N 0.93735 0.47499 0.37317 0.0
N364 N 0.02302 0.44806 0.37346 0.0
C365 C 0.01605 0.49258 0.37789 0.0
C366 C 0.96942 0.50727 0.3778 0.0
C367 C 0.04174 0.51196 0.1691 0.0
C368 C 0.05288 0.55784 0.17059 0.0
C369 C 0.99619 0.49719 0.1696 0.0
C370 C 0.95957 0.5276 0.17151 0.0
H371 H 0.06838 0.487 0.16674 0.0
H372 H 0.98973 0.46166 0.16742 0.0
S373 S 0.96988 0.65111 0.17927 0.0
N374 N 0.02318 0.63341 0.17647 0.0
N375 N 0.93776 0.6058 0.17745 0.0
C376 C 0.97019 0.57348 0.17443 0.0
C377 C 0.01668 0.58853 0.17398 0.0
C378 C 0.97436 0.51117 0.668 0.0
C379 C 0.96286 0.55697 0.66959 0.0
C380 C 0.02002 0.4967 0.66857 0.0
C381 C 0.05639 0.52735 0.67069 0.0
H382 H 0.9479 0.48605 0.66549 0.0
H383 H 0.02677 0.46123 0.66631 0.0
S384 S 0.04511 0.65074 0.67885 0.0
N385 N 0.99196 0.63269 0.67581 0.0
N386 N 0.07756 0.60566 0.67695 0.0
C387 C 0.04541 0.57314 0.67369 0.0
C388 C 0.99882 0.58789 0.67314 0.0
C389 C 0.04346 0.5101 0.88513 0.0
C390 C 0.05487 0.55585 0.88281 0.0
C391 C 0.99782 0.49556 0.88481 0.0
C392 C 0.9614 0.52609 0.88228 0.0
H393 H 0.06996 0.48511 0.88804 0.0
H394 H 0.99111 0.46016 0.88766 0.0
S395 S 0.97242 0.64919 0.8721 0.0
N396 N 0.02562 0.63132 0.87537 0.0
N397 N 0.94005 0.60413 0.87475 0.0
C398 C 0.97229 0.57178 0.87849 0.0
C399 C 0.01885 0.58659 0.87874 0.0
C400 C 0.21204 0.2908 0.37722 0.0
C401 C 0.23448 0.3324 0.37744 0.0
C402 C 0.2368 0.25054 0.37678 0.0
C403 C 0.28495 0.25036 0.37749 0.0
H404 H 0.17506 0.2893 0.37832 0.0
H405 H 0.218 0.21935 0.37778 0.0
S406 S 0.36017 0.35011 0.37589 0.0
N407 N 0.30782 0.37083 0.37594 0.0
N408 N 0.35413 0.2952 0.37633 0.0
C409 C 0.3078 0.29164 0.37641 0.0
C410 C 0.28263 0.33264 0.37604 0.0
C411 C 0.77917 0.82929 0.3803 0.0
C412 C 0.73102 0.83022 0.38033 0.0
C413 C 0.80325 0.78863 0.38062 0.0
C414 C 0.78014 0.74738 0.38003 0.0
H415 H 0.79843 0.86016 0.38187 0.0
H416 H 0.84022 0.78951 0.38223 0.0
S417 S 0.65425 0.73174 0.37651 0.0
N418 N 0.66117 0.78654 0.37773 0.0
N419 N 0.70624 0.71018 0.37704 0.0
C420 C 0.73204 0.74795 0.37798 0.0
C421 C 0.70753 0.78934 0.37851 0.0
C422 C 0.21118 0.79125 0.17439 0.0
C423 C 0.23354 0.74969 0.17648 0.0
C424 C 0.23585 0.83153 0.17497 0.0
C425 C 0.28393 0.83174 0.17679 0.0
H426 H 0.17443 0.79267 0.17129 0.0
H427 H 0.21725 0.86261 0.1721 0.0
S428 S 0.35867 0.73237 0.18553 0.0
N429 N 0.30648 0.71154 0.1832 0.0
N430 N 0.35274 0.78719 0.18305 0.0
C431 C 0.30657 0.79062 0.18029 0.0
C432 C 0.2814 0.74962 0.18051 0.0
C433 C 0.71323 0.28915 0.1767 0.0
C434 C 0.73588 0.24765 0.17667 0.0
C435 C 0.73778 0.32951 0.17716 0.0
C436 C 0.78594 0.3299 0.17671 0.0
H437 H 0.67626 0.2905 0.17542 0.0
H438 H 0.71882 0.3606 0.17601 0.0
S439 S 0.86162 0.23047 0.17892 0.0
N440 N 0.80937 0.20952 0.17862 0.0
N441 N 0.85532 0.28535 0.17835 0.0
C442 C 0.80898 0.28872 0.178 0.0
C443 C 0.78401 0.24761 0.17831 0.0
C444 C 0.75156 0.8143 0.63945 0.0
C445 C 0.7323 0.83085 0.66789 0.0
C446 C 0.77854 0.77564 0.63943 0.0
C447 C 0.78622 0.75126 0.66771 0.0
H448 H 0.74617 0.83175 0.61702 0.0
H449 H 0.79238 0.76402 0.61684 0.0
S450 S 0.74344 0.7807 0.74857 0.0
N451 N 0.72368 0.82101 0.72526 0.0
N452 N 0.77243 0.74648 0.72499 0.0
C453 C 0.76693 0.76727 0.69636 0.0
C454 C 0.74056 0.80765 0.69653 0.0
C455 C 0.27979 0.3303 0.67568 0.0
C456 C 0.23164 0.33072 0.67607 0.0
C457 C 0.30431 0.28991 0.67525 0.0
C458 C 0.28166 0.24844 0.67613 0.0
H459 H 0.29869 0.36136 0.67381 0.0
H460 H 0.34123 0.29118 0.67324 0.0
S461 S 0.15602 0.23149 0.68105 0.0
N462 N 0.16232 0.28634 0.67959 0.0
N463 N 0.20822 0.21047 0.68003 0.0
C464 C 0.2336 0.24851 0.6787 0.0
C465 C 0.20863 0.28963 0.67831 0.0
C466 C 0.71278 0.28969 0.87826 0.0
C467 C 0.73533 0.24815 0.87713 0.0
C468 C 0.73736 0.33005 0.87771 0.0
C469 C 0.7855 0.33037 0.8769 0.0
H470 H 0.67591 0.29106 0.88055 0.0
H471 H 0.71855 0.36113 0.87982 0.0
S472 S 0.86085 0.23099 0.87105 0.0
N473 N 0.80863 0.21007 0.87249 0.0
N474 N 0.85466 0.28585 0.87269 0.0
C475 C 0.80839 0.28922 0.87439 0.0
C476 C 0.78334 0.24814 0.87414 0.0
C477 C 0.28116 0.74936 0.87703 0.0
C478 C 0.233 0.74897 0.87713 0.0
C479 C 0.30569 0.78975 0.87751 0.0
C480 C 0.28302 0.83125 0.87721 0.0
H481 H 0.30008 0.71827 0.87846 0.0
H482 H 0.34265 0.78842 0.87906 0.0
S483 S 0.15728 0.84831 0.87399 0.0
N484 N 0.16363 0.79345 0.87483 0.0
N485 N 0.2095 0.86929 0.87458 0.0
C486 C 0.23491 0.83123 0.87523 0.0
C487 C 0.20996 0.79012 0.87552 0.0
C488 C 0.26311 1.00309 0.29649 0.0
C489 C 0.26359 0.0452 0.31151 0.0
C490 C 0.26253 0.99932 0.26304 0.0
C491 C 0.26233 1.0375 0.24324 0.0
H492 H 0.26656 0.97279 0.31049 0.0
H493 H 0.26539 0.9662 0.25271 0.0
S494 S 0.25286 0.15519 0.27085 0.0
N495 N 0.25585 0.12561 0.30415 0.0
N496 N 0.25488 0.11852 0.24133 0.0
C497 C 0.25775 0.07959 0.258 0.0
C498 C 0.25838 0.08343 0.29212 0.0
C499 C 0.75465 0.07948 0.26269 0.0
C500 C 0.75346 0.04119 0.24302 0.0
C501 C 0.75532 0.07591 0.29615 0.0
C502 C 0.75477 1.03391 0.3113 0.0
H503 H 0.75192 0.11258 0.25232 0.0
H504 H 0.75286 0.10635 0.31011 0.0
S505 S 0.76231 0.92354 0.27079 0.0
N506 N 0.75967 0.96006 0.24121 0.0
N507 N 0.76104 0.95335 0.30405 0.0
C508 C 0.75866 0.99548 0.29194 0.0
C509 C 0.758 0.99912 0.25781 0.0
C510 C 0.75015 1.00096 0.7958 0.0
C511 C 0.75317 0.04272 0.81117 0.0
C512 C 0.74968 0.99778 0.7623 0.0
C513 C 0.75223 1.03623 0.74287 0.0
H514 H 0.74464 0.97076 0.80959 0.0
H515 H 0.74404 0.96516 0.75173 0.0
S516 S 0.77164 0.15232 0.77141 0.0
N517 N 0.76702 0.12243 0.80447 0.0
N518 N 0.76603 0.11649 0.74159 0.0
C519 C 0.76036 0.07759 0.75794 0.0
C520 C 0.76085 0.08082 0.79208 0.0
C521 C 0.26104 0.99819 0.79065 0.0
C522 C 0.26071 1.03632 0.81051 0.0
C523 C 0.26072 1.00204 0.7572 0.0
C524 C 0.26009 0.04419 0.74226 0.0
H525 H 0.26476 0.96509 0.80088 0.0
H526 H 0.26444 0.97185 0.7431 0.0
S527 S 0.24818 0.15386 0.78321 0.0
N528 N 0.2517 0.11718 0.81266 0.0
N529 N 0.25091 0.12442 0.74984 0.0
C530 C 0.25461 0.08227 0.76177 0.0
C531 C 0.25494 0.07835 0.79589 0.0
C532 C 0.75938 0.4975 0.26239 0.0
C533 C 0.75906 0.53571 0.24264 0.0
C534 C 0.75895 0.50121 0.29583 0.0
C535 C 0.75826 0.5433 0.31087 0.0
H536 H 0.76321 0.46446 0.25208 0.0
H537 H 0.7627 0.47095 0.30985 0.0
S538 S 0.74618 0.65312 0.2702 0.0
N539 N 0.74984 0.61657 0.24068 0.0
N540 N 0.74891 0.62354 0.30351 0.0
C541 C 0.7527 0.58146 0.29147 0.0
C542 C 0.75311 0.57767 0.25735 0.0
C543 C 0.25038 0.4995 0.29094 0.0
C544 C 0.25083 0.53782 0.3106 0.0
C545 C 0.25077 0.50303 0.25747 0.0
C546 C 0.25163 0.54503 0.24233 0.0
H547 H 0.24652 0.46652 0.30132 0.0
H548 H 0.24696 0.47272 0.24353 0.0
S549 S 0.26403 0.65503 0.28274 0.0
N550 N 0.26024 0.61865 0.31236 0.0
N551 N 0.2612 0.62528 0.24951 0.0
C552 C 0.25724 0.58328 0.26165 0.0
C553 C 0.25681 0.57968 0.29578 0.0
C554 C 0.25368 0.58022 0.79179 0.0
C555 C 0.2539 0.54195 0.8115 0.0
C556 C 0.25426 0.57661 0.75833 0.0
C557 C 0.25499 0.53457 0.74321 0.0
H558 H 0.24992 0.61324 0.80215 0.0
H559 H 0.25067 0.60691 0.74434 0.0
S560 S 0.26638 0.42458 0.78376 0.0
N561 N 0.26275 0.46105 0.81333 0.0
N562 N 0.2639 0.45428 0.75049 0.0
C563 C 0.26022 0.49634 0.76259 0.0
C564 C 0.25968 0.50002 0.79671 0.0
C565 C 0.76112 0.50376 0.75803 0.0
C566 C 0.76295 0.54584 0.74301 0.0
C567 C 0.76087 0.49996 0.79145 0.0
C568 C 0.76235 0.53807 0.81125 0.0
H569 H 0.76322 0.47334 0.74401 0.0
H570 H 0.76267 0.46674 0.80174 0.0
S571 S 0.75672 0.65607 0.78382 0.0
N572 N 0.7582 0.62648 0.75047 0.0
N573 N 0.75779 0.61931 0.81329 0.0
C574 C 0.75901 0.58033 0.79656 0.0
C575 C 0.75932 0.58422 0.76244 0.0
loop_
_geom_bond_atom_site_label_1
_geom_bond_atom_site_label_2
_geom_bond_distance
_geom_bond_site_symmetry_2
_ccdc_geom_bond_type
O0 Cd1 2.223 . S
O0 C8 1.315 . S
Cd1 O0 2.223 . S
Cd1 O4 2.297 . S
Cd1 O5 2.439 . S
Cd1 O11 2.240 . S
Cd2 O3 2.240 . S
Cd2 O10 2.223 1_545 S
Cd2 O12 2.297 1_545 S
Cd2 O13 2.439 . S
O3 Cd2 2.240 . S
O3 C8 1.279 . S
O4 Cd1 2.297 . S
O4 C6 1.247 . S
O5 Cd1 2.439 . S
O5 C6 1.208 . S
C6 O4 1.247 . S
C6 O5 1.208 . S
C7 O12 1.247 1_545 S
C7 O13 1.208 . S
C8 O0 1.315 . S
C8 O3 1.279 . S
C9 O10 1.315 1_545 S
C9 O11 1.279 . S
O10 Cd2 2.223 1_565 S
O10 C9 1.315 1_565 S
O11 Cd1 2.240 . S
O11 C9 1.279 . S
O12 Cd2 2.297 1_565 S
O12 C7 1.247 1_565 S
O13 Cd2 2.439 . S
O13 C7 1.208 . S
O14 Cd15 2.223 . S
O14 C22 1.315 . S
Cd15 O14 2.223 . S
Cd15 O18 2.297 . S
Cd15 O19 2.439 . S
Cd15 O25 2.240 . S
Cd16 O17 2.240 . S
Cd16 O24 2.223 1_565 S
Cd16 O26 2.297 1_565 S
Cd16 O27 2.439 . S
O17 Cd16 2.240 . S
O17 C22 1.279 . S
O18 Cd15 2.297 . S
O18 C20 1.247 . S
O19 Cd15 2.439 . S
O19 C20 1.208 . S
C20 O18 1.247 . S
C20 O19 1.208 . S
C21 O26 1.247 1_565 S
C21 O27 1.208 . S
C22 O14 1.315 . S
C22 O17 1.279 . S
C23 O24 1.315 1_565 S
C23 O25 1.279 . S
O24 Cd16 2.223 1_545 S
O24 C23 1.315 1_545 S
O25 Cd15 2.240 . S
O25 C23 1.279 . S
O26 Cd16 2.297 1_545 S
O26 C21 1.247 1_545 S
O27 Cd16 2.439 . S
O27 C21 1.208 . S
O28 Cd29 2.223 . S
O28 C36 1.315 . S
Cd29 O28 2.223 . S
Cd29 O32 2.297 . S
Cd29 O33 2.439 . S
Cd29 O39 2.240 . S
Cd30 O31 2.240 . S
Cd30 O38 2.223 1_565 S
Cd30 O40 2.297 1_565 S
Cd30 O41 2.439 . S
O31 Cd30 2.240 . S
O31 C36 1.279 . S
O32 Cd29 2.297 . S
O32 C34 1.247 . S
O33 Cd29 2.439 . S
O33 C34 1.208 . S
C34 O32 1.247 . S
C34 O33 1.208 . S
C35 O40 1.247 1_565 S
C35 O41 1.208 . S
C36 O28 1.315 . S
C36 O31 1.279 . S
C37 O38 1.315 1_565 S
C37 O39 1.279 . S
O38 Cd30 2.223 1_545 S
O38 C37 1.315 1_545 S
O39 Cd29 2.240 . S
O39 C37 1.279 . S
O40 Cd30 2.297 1_545 S
O40 C35 1.247 1_545 S
O41 Cd30 2.439 . S
O41 C35 1.208 . S
O42 Cd43 2.223 . S
O42 C50 1.315 . S
Cd43 O42 2.223 . S
Cd43 O46 2.297 . S
Cd43 O47 2.439 . S
Cd43 O53 2.240 . S
Cd44 O45 2.240 . S
Cd44 O52 2.223 1_545 S
Cd44 O54 2.297 1_545 S
Cd44 O55 2.439 . S
O45 Cd44 2.240 . S
O45 C50 1.279 . S
O46 Cd43 2.297 . S
O46 C48 1.247 . S
O47 Cd43 2.439 . S
O47 C48 1.208 . S
C48 O46 1.247 . S
C48 O47 1.208 . S
C49 O54 1.247 1_545 S
C49 O55 1.208 . S
C50 O42 1.315 . S
C50 O45 1.279 . S
C51 O52 1.315 1_545 S
C51 O53 1.279 . S
O52 Cd44 2.223 1_565 S
O52 C51 1.315 1_565 S
O53 Cd43 2.240 . S
O53 C51 1.279 . S
O54 Cd44 2.297 1_565 S
O54 C49 1.247 1_565 S
O55 Cd44 2.439 . S
O55 C49 1.208 . S
O56 Cd57 2.223 . S
O56 C64 1.315 . S
Cd57 O56 2.223 . S
Cd57 O60 2.297 . S
Cd57 O61 2.439 . S
Cd57 O67 2.240 . S
Cd58 O59 2.240 . S
Cd58 O66 2.223 1_565 S
Cd58 O68 2.297 1_565 S
Cd58 O69 2.439 . S
O59 Cd58 2.240 . S
O59 C64 1.279 . S
O60 Cd57 2.297 . S
O60 C62 1.247 . S
O61 Cd57 2.439 . S
O61 C62 1.208 . S
C62 O60 1.247 . S
C62 O61 1.208 . S
C63 O68 1.247 1_565 S
C63 O69 1.208 . S
C64 O56 1.315 . S
C64 O59 1.279 . S
C65 O66 1.315 1_565 S
C65 O67 1.279 . S
O66 Cd58 2.223 1_545 S
O66 C65 1.315 1_545 S
O67 Cd57 2.240 . S
O67 C65 1.279 . S
O68 Cd58 2.297 1_545 S
O68 C63 1.247 1_545 S
O69 Cd58 2.439 . S
O69 C63 1.208 . S
O70 Cd71 2.223 . S
O70 C78 1.315 . S
Cd71 O70 2.223 . S
Cd71 O74 2.297 . S
Cd71 O75 2.439 . S
Cd71 O81 2.240 . S
Cd72 O73 2.240 . S
Cd72 O80 2.223 1_545 S
Cd72 O82 2.297 1_545 S
Cd72 O83 2.439 . S
O73 Cd72 2.240 . S
O73 C78 1.279 . S
O74 Cd71 2.297 . S
O74 C76 1.247 . S
O75 Cd71 2.439 . S
O75 C76 1.208 . S
C76 O74 1.247 . S
C76 O75 1.208 . S
C77 O82 1.247 1_545 S
C77 O83 1.208 . S
C78 O70 1.315 . S
C78 O73 1.279 . S
C79 O80 1.315 1_545 S
C79 O81 1.279 . S
O80 Cd72 2.223 1_565 S
O80 C79 1.315 1_565 S
O81 Cd71 2.240 . S
O81 C79 1.279 . S
O82 Cd72 2.297 1_565 S
O82 C77 1.247 1_565 S
O83 Cd72 2.439 . S
O83 C77 1.208 . S
O84 Cd85 2.223 . S
O84 C92 1.315 . S
Cd85 O84 2.223 . S
Cd85 O88 2.297 . S
Cd85 O89 2.439 . S
Cd85 O95 2.240 . S
Cd86 O87 2.240 . S
Cd86 O94 2.223 1_545 S
Cd86 O96 2.297 1_545 S
Cd86 O97 2.439 . S
O87 Cd86 2.240 . S
O87 C92 1.279 . S
O88 Cd85 2.297 . S
O88 C90 1.247 . S
O89 Cd85 2.439 . S
O89 C90 1.208 . S
C90 O88 1.247 . S
C90 O89 1.208 . S
C91 O96 1.247 1_545 S
C91 O97 1.208 . S
C92 O84 1.315 . S
C92 O87 1.279 . S
C93 O94 1.315 1_545 S
C93 O95 1.279 . S
O94 Cd86 2.223 1_565 S
O94 C93 1.315 1_565 S
O95 Cd85 2.240 . S
O95 C93 1.279 . S
O96 Cd86 2.297 1_565 S
O96 C91 1.247 1_565 S
O97 Cd86 2.439 . S
O97 C91 1.208 . S
O98 Cd99 2.223 . S
O98 C106 1.315 . S
Cd99 O98 2.223 . S
Cd99 O102 2.297 . S
Cd99 O103 2.439 . S
Cd99 O109 2.240 . S
Cd100 O101 2.240 . S
Cd100 O108 2.223 1_565 S
Cd100 O110 2.297 1_565 S
Cd100 O111 2.439 . S
O101 Cd100 2.240 . S
O101 C106 1.279 . S
O102 Cd99 2.297 . S
O102 C104 1.247 . S
O103 Cd99 2.439 . S
O103 C104 1.208 . S
C104 O102 1.247 . S
C104 O103 1.208 . S
C105 O110 1.247 1_565 S
C105 O111 1.208 . S
C106 O98 1.315 . S
C106 O101 1.279 . S
C107 O108 1.315 1_565 S
C107 O109 1.279 . S
O108 Cd100 2.223 1_545 S
O108 C107 1.315 1_545 S
O109 Cd99 2.240 . S
O109 C107 1.279 . S
O110 Cd100 2.297 1_545 S
O110 C105 1.247 1_545 S
O111 Cd100 2.439 . S
O111 C105 1.208 . S
O112 Cd113 2.223 . S
O112 C120 1.315 . S
Cd113 O112 2.223 . S
Cd113 O116 2.297 . S
Cd113 O117 2.439 . S
Cd113 O123 2.240 . S
Cd114 O115 2.240 . S
Cd114 O122 2.223 . S
Cd114 O124 2.297 . S
Cd114 O125 2.439 . S
O115 Cd114 2.240 . S
O115 C120 1.279 . S
O116 Cd113 2.297 . S
O116 C118 1.247 . S
O117 Cd113 2.439 . S
O117 C118 1.208 . S
C118 O116 1.247 . S
C118 O117 1.208 . S
C119 O124 1.247 . S
C119 O125 1.208 . S
C120 O112 1.315 . S
C120 O115 1.279 . S
C121 O122 1.315 . S
C121 O123 1.279 . S
O122 Cd114 2.223 . S
O122 C121 1.315 . S
O123 Cd113 2.240 . S
O123 C121 1.279 . S
O124 Cd114 2.297 . S
O124 C119 1.247 . S
O125 Cd114 2.439 . S
O125 C119 1.208 . S
O126 Cd127 2.223 . S
O126 C134 1.315 . S
Cd127 O126 2.223 . S
Cd127 O130 2.297 . S
Cd127 O131 2.439 . S
Cd127 O137 2.240 . S
Cd128 O129 2.240 . S
Cd128 O136 2.223 . S
Cd128 O138 2.297 . S
Cd128 O139 2.439 . S
O129 Cd128 2.240 . S
O129 C134 1.279 . S
O130 Cd127 2.297 . S
O130 C132 1.247 . S
O131 Cd127 2.439 . S
O131 C132 1.208 . S
C132 O130 1.247 . S
C132 O131 1.208 . S
C133 O138 1.247 . S
C133 O139 1.208 . S
C134 O126 1.315 . S
C134 O129 1.279 . S
C135 O136 1.315 . S
C135 O137 1.279 . S
O136 Cd128 2.223 . S
O136 C135 1.315 . S
O137 Cd127 2.240 . S
O137 C135 1.279 . S
O138 Cd128 2.297 . S
O138 C133 1.247 . S
O139 Cd128 2.439 . S
O139 C133 1.208 . S
O140 Cd141 2.223 . S
O140 C148 1.315 . S
Cd141 O140 2.223 . S
Cd141 O144 2.297 . S
Cd141 O145 2.439 . S
Cd141 O151 2.240 . S
Cd142 O143 2.240 . S
Cd142 O150 2.223 . S
Cd142 O152 2.297 . S
Cd142 O153 2.439 . S
O143 Cd142 2.240 . S
O143 C148 1.279 . S
O144 Cd141 2.297 . S
O144 C146 1.247 . S
O145 Cd141 2.439 . S
O145 C146 1.208 . S
C146 O144 1.247 . S
C146 O145 1.208 . S
C147 O152 1.247 . S
C147 O153 1.208 . S
C148 O140 1.315 . S
C148 O143 1.279 . S
C149 O150 1.315 . S
C149 O151 1.279 . S
O150 Cd142 2.223 . S
O150 C149 1.315 . S
O151 Cd141 2.240 . S
O151 C149 1.279 . S
O152 Cd142 2.297 . S
O152 C147 1.247 . S
O153 Cd142 2.439 . S
O153 C147 1.208 . S
O154 Cd155 2.223 . S
O154 C162 1.315 . S
Cd155 O154 2.223 . S
Cd155 O158 2.297 . S
Cd155 O159 2.439 . S
Cd155 O165 2.240 . S
Cd156 O157 2.240 . S
Cd156 O164 2.223 . S
Cd156 O166 2.297 . S
Cd156 O167 2.439 . S
O157 Cd156 2.240 . S
O157 C162 1.279 . S
O158 Cd155 2.297 . S
O158 C160 1.247 . S
O159 Cd155 2.439 . S
O159 C160 1.208 . S
C160 O158 1.247 . S
C160 O159 1.208 . S
C161 O166 1.247 . S
C161 O167 1.208 . S
C162 O154 1.315 . S
C162 O157 1.279 . S
C163 O164 1.315 . S
C163 O165 1.279 . S
O164 Cd156 2.223 . S
O164 C163 1.315 . S
O165 Cd155 2.240 . S
O165 C163 1.279 . S
O166 Cd156 2.297 . S
O166 C161 1.247 . S
O167 Cd156 2.439 . S
O167 C161 1.208 . S
O168 Cd169 2.223 . S
O168 C176 1.315 . S
Cd169 O168 2.223 . S
Cd169 O172 2.297 . S
Cd169 O173 2.439 . S
Cd169 O179 2.240 . S
Cd170 O171 2.240 . S
Cd170 O178 2.223 . S
Cd170 O180 2.297 . S
Cd170 O181 2.439 . S
O171 Cd170 2.240 . S
O171 C176 1.279 . S
O172 Cd169 2.297 . S
O172 C174 1.247 . S
O173 Cd169 2.439 . S
O173 C174 1.208 . S
C174 O172 1.247 . S
C174 O173 1.208 . S
C175 O180 1.247 . S
C175 O181 1.208 . S
C176 O168 1.315 . S
C176 O171 1.279 . S
C177 O178 1.315 . S
C177 O179 1.279 . S
O178 Cd170 2.223 . S
O178 C177 1.315 . S
O179 Cd169 2.240 . S
O179 C177 1.279 . S
O180 Cd170 2.297 . S
O180 C175 1.247 . S
O181 Cd170 2.439 . S
O181 C175 1.208 . S
O182 Cd183 2.223 . S
O182 C190 1.315 . S
Cd183 O182 2.223 . S
Cd183 O186 2.297 . S
Cd183 O187 2.439 . S
Cd183 O193 2.240 . S
Cd184 O185 2.240 . S
Cd184 O192 2.223 . S
Cd184 O194 2.297 . S
Cd184 O195 2.439 . S
O185 Cd184 2.240 . S
O185 C190 1.279 . S
O186 Cd183 2.297 . S
O186 C188 1.247 . S
O187 Cd183 2.439 . S
O187 C188 1.208 . S
C188 O186 1.247 . S
C188 O187 1.208 . S
C189 O194 1.247 . S
C189 O195 1.208 . S
C190 O182 1.315 . S
C190 O185 1.279 . S
C191 O192 1.315 . S
C191 O193 1.279 . S
O192 Cd184 2.223 . S
O192 C191 1.315 . S
O193 Cd183 2.240 . S
O193 C191 1.279 . S
O194 Cd184 2.297 . S
O194 C189 1.247 . S
O195 Cd184 2.439 . S
O195 C189 1.208 . S
O196 Cd197 2.223 . S
O196 C204 1.315 . S
Cd197 O196 2.223 . S
Cd197 O200 2.297 . S
Cd197 O201 2.439 . S
Cd197 O207 2.240 . S
Cd198 O199 2.240 . S
Cd198 O206 2.223 . S
Cd198 O208 2.297 . S
Cd198 O209 2.439 . S
O199 Cd198 2.240 . S
O199 C204 1.279 . S
O200 Cd197 2.297 . S
O200 C202 1.247 . S
O201 Cd197 2.439 . S
O201 C202 1.208 . S
C202 O200 1.247 . S
C202 O201 1.208 . S
C203 O208 1.247 . S
C203 O209 1.208 . S
C204 O196 1.315 . S
C204 O199 1.279 . S
C205 O206 1.315 . S
C205 O207 1.279 . S
O206 Cd198 2.223 . S
O206 C205 1.315 . S
O207 Cd197 2.240 . S
O207 C205 1.279 . S
O208 Cd198 2.297 . S
O208 C203 1.247 . S
O209 Cd198 2.439 . S
O209 C203 1.208 . S
O210 Cd211 2.223 . S
O210 C218 1.315 . S
Cd211 O210 2.223 . S
Cd211 O214 2.297 . S
Cd211 O215 2.439 . S
Cd211 O221 2.240 . S
Cd212 O213 2.240 . S
Cd212 O220 2.223 . S
Cd212 O222 2.297 . S
Cd212 O223 2.439 . S
O213 Cd212 2.240 . S
O213 C218 1.279 . S
O214 Cd211 2.297 . S
O214 C216 1.247 . S
O215 Cd211 2.439 . S
O215 C216 1.208 . S
C216 O214 1.247 . S
C216 O215 1.208 . S
C217 O222 1.247 . S
C217 O223 1.208 . S
C218 O210 1.315 . S
C218 O213 1.279 . S
C219 O220 1.315 . S
C219 O221 1.279 . S
O220 Cd212 2.223 . S
O220 C219 1.315 . S
O221 Cd211 2.240 . S
O221 C219 1.279 . S
O222 Cd212 2.297 . S
O222 C217 1.247 . S
O223 Cd212 2.439 . S
O223 C217 1.208 . S
C224 C225 1.369 . S
C224 C226 1.419 . S
C224 H228 0.938 . S
C225 C224 1.369 . S
C225 C234 1.429 . S
C226 C224 1.419 . S
C226 C227 1.363 . S
C226 H229 0.929 . S
C227 C226 1.363 . S
C227 C233 1.428 . S
H228 C224 0.938 . S
H229 C226 0.929 . S
S230 N231 1.613 . S
S230 N232 1.610 . S
N231 S230 1.613 . S
N231 C234 1.350 . S
N232 S230 1.610 . S
N232 C233 1.351 . S
C233 C227 1.428 . S
C233 N232 1.351 . S
C233 C234 1.434 . S
C234 C225 1.429 . S
C234 N231 1.350 . S
C234 C233 1.434 . S
C235 C236 1.369 . S
C235 C237 1.419 . S
C235 H239 0.930 1_565 S
C236 C235 1.369 . S
C236 C245 1.429 . S
C237 C235 1.419 . S
C237 C238 1.363 . S
C237 H240 0.929 1_565 S
C238 C237 1.363 . S
C238 C244 1.428 . S
H239 C235 0.930 1_545 S
H240 C237 0.929 1_545 S
S241 N242 1.613 . S
S241 N243 1.610 . S
N242 S241 1.613 . S
N242 C245 1.350 . S
N243 S241 1.610 . S
N243 C244 1.351 . S
C244 C238 1.428 . S
C244 N243 1.351 . S
C244 C245 1.434 . S
C245 C236 1.429 . S
C245 N242 1.350 . S
C245 C244 1.434 . S
C246 C247 1.369 . S
C246 C248 1.419 1_554 S
C246 H250 0.930 . S
C247 C246 1.369 . S
C247 C256 1.429 . S
C248 C246 1.419 1_556 S
C248 C249 1.363 . S
C248 H251 0.929 . S
C249 C248 1.363 . S
C249 C255 1.428 . S
H250 C246 0.930 . S
H251 C248 0.929 . S
S252 N253 1.616 1_556 S
S252 N254 1.608 . S
N253 S252 1.616 1_554 S
N253 C256 1.350 1_545 S
N254 S252 1.608 . S
N254 C255 1.351 1_545 S
C255 C249 1.428 . S
C255 N254 1.351 1_565 S
C255 C256 1.434 1_556 S
C256 C247 1.429 . S
C256 N253 1.350 1_565 S
C256 C255 1.434 1_554 S
C257 C258 1.369 . S
C257 C259 1.419 1_556 S
C257 H261 0.930 . S
C258 C257 1.369 . S
C258 C267 1.429 . S
C259 C257 1.419 1_554 S
C259 C260 1.363 . S
C259 H262 0.929 . S
C260 C259 1.363 . S
C260 C266 1.428 . S
H261 C257 0.930 . S
H262 C259 0.929 . S
S263 N264 1.616 1_554 S
S263 N265 1.608 . S
N264 S263 1.616 1_556 S
N264 C267 1.350 . S
N265 S263 1.608 . S
N265 C266 1.351 . S
C266 C260 1.428 . S
C266 N265 1.351 . S
C266 C267 1.434 1_554 S
C267 C258 1.429 . S
C267 N264 1.350 . S
C267 C266 1.434 1_556 S
C268 C269 1.369 . S
C268 C270 1.419 . S
C268 H272 0.930 . S
C269 C268 1.369 . S
C269 C278 1.429 . S
C270 C268 1.419 . S
C270 C271 1.363 . S
C270 H273 0.929 . S
C271 C270 1.363 . S
C271 C277 1.428 . S
H272 C268 0.930 . S
H273 C270 0.929 . S
S274 N275 1.613 . S
S274 N276 1.610 . S
N275 S274 1.613 . S
N275 C278 1.350 . S
N276 S274 1.610 . S
N276 C277 1.351 . S
C277 C271 1.428 . S
C277 N276 1.351 . S
C277 C278 1.434 . S
C278 C269 1.429 . S
C278 N275 1.350 . S
C278 C277 1.434 . S
C279 C280 1.369 . S
C279 C281 1.419 . S
C279 H283 0.930 . S
C280 C279 1.369 . S
C280 C289 1.429 . S
C281 C279 1.419 . S
C281 C282 1.363 . S
C281 H284 0.929 . S
C282 C281 1.363 . S
C282 C288 1.428 . S
H283 C279 0.930 . S
H284 C281 0.929 . S
S285 N286 1.613 . S
S285 N287 1.610 . S
N286 S285 1.613 . S
N286 C289 1.350 . S
N287 S285 1.610 . S
N287 C288 1.351 . S
C288 C282 1.428 . S
C288 N287 1.351 . S
C288 C289 1.434 . S
C289 C280 1.429 . S
C289 N286 1.350 . S
C289 C288 1.434 . S
C290 C291 1.369 . S
C290 C292 1.419 1_556 S
C290 H294 0.930 . S
C291 C290 1.369 . S
C291 C300 1.429 . S
C292 C290 1.419 1_554 S
C292 C293 1.363 . S
C292 H295 0.929 . S
C293 C292 1.363 . S
C293 C299 1.428 . S
H294 C290 0.930 . S
H295 C292 0.929 . S
S296 N297 1.616 1_554 S
S296 N298 1.608 . S
N297 S296 1.616 1_556 S
N297 C300 1.350 . S
N298 S296 1.608 . S
N298 C299 1.351 . S
C299 C293 1.428 . S
C299 N298 1.351 . S
C299 C300 1.434 1_554 S
C300 C291 1.429 . S
C300 N297 1.350 . S
C300 C299 1.434 1_556 S
C301 C302 1.369 . S
C301 C303 1.419 1_554 S
C301 H305 0.930 . S
C302 C301 1.369 . S
C302 C311 1.429 . S
C303 C301 1.419 1_556 S
C303 C304 1.363 . S
C303 H306 0.929 . S
C304 C303 1.363 . S
C304 C310 1.428 . S
H305 C301 0.930 . S
H306 C303 0.929 . S
S307 N308 1.616 1_556 S
S307 N309 1.608 . S
N308 S307 1.616 1_554 S
N308 C311 1.350 . S
N309 S307 1.608 . S
N309 C310 1.351 . S
C310 C304 1.428 . S
C310 N309 1.351 . S
C310 C311 1.434 1_556 S
C311 C302 1.429 . S
C311 N308 1.350 . S
C311 C310 1.434 1_554 S
C312 C313 1.369 . S
C312 C314 1.419 . S
C312 H316 0.930 . S
C313 C312 1.369 . S
C313 C322 1.429 1_565 S
C314 C312 1.419 . S
C314 C315 1.363 1_565 S
C314 H317 0.929 . S
C315 C314 1.363 1_545 S
C315 C321 1.428 . S
H316 C312 0.930 . S
H317 C314 0.929 . S
S318 N319 1.613 . S
S318 N320 1.610 . S
N319 S318 1.613 . S
N319 C322 1.350 . S
N320 S318 1.610 . S
N320 C321 1.351 . S
C321 C315 1.428 . S
C321 N320 1.351 . S
C321 C322 1.434 . S
C322 C313 1.429 1_545 S
C322 N319 1.350 . S
C322 C321 1.434 . S
C323 C324 1.369 . S
C323 C325 1.419 . S
C323 H327 0.930 . S
C324 C323 1.369 . S
C324 C333 1.429 1_565 S
C325 C323 1.419 . S
C325 C326 1.363 1_565 S
C325 H328 0.929 . S
C326 C325 1.363 1_545 S
C326 C332 1.428 . S
H327 C323 0.930 . S
H328 C325 0.929 . S
S329 N330 1.613 . S
S329 N331 1.610 . S
N330 S329 1.613 . S
N330 C333 1.350 . S
N331 S329 1.610 . S
N331 C332 1.351 . S
C332 C326 1.428 . S
C332 N331 1.351 . S
C332 C333 1.434 . S
C333 C324 1.429 1_545 S
C333 N330 1.350 . S
C333 C332 1.434 . S
C334 C335 1.369 1_545 S
C334 C336 1.419 . S
C334 H338 0.930 . S
C335 C334 1.369 1_565 S
C335 C344 1.429 . S
C336 C334 1.419 . S
C336 C337 1.363 . S
C336 H339 0.929 . S
C337 C336 1.363 . S
C337 C343 1.428 1_545 S
H338 C334 0.930 . S
H339 C336 0.929 . S
S340 N341 1.613 . S
S340 N342 1.610 . S
N341 S340 1.613 . S
N341 C344 1.350 . S
N342 S340 1.610 . S
N342 C343 1.351 . S
C343 C337 1.428 1_565 S
C343 N342 1.351 . S
C343 C344 1.434 . S
C344 C335 1.429 . S
C344 N341 1.350 . S
C344 C343 1.434 . S
C345 C346 1.369 . S
C345 C347 1.419 1_545 S
C345 H349 0.930 . S
C346 C345 1.369 . S
C346 C355 1.429 . S
C347 C345 1.419 1_565 S
C347 C348 1.363 . S
C347 H350 0.929 . S
C348 C347 1.363 . S
C348 C354 1.431 . S
H349 C345 0.930 . S
H350 C347 0.929 . S
S351 N352 1.613 . S
S351 N353 1.610 . S
N352 S351 1.613 . S
N352 C355 1.350 . S
N353 S351 1.610 . S
N353 C354 1.351 1_545 S
C354 C348 1.431 . S
C354 N353 1.351 1_565 S
C354 C355 1.432 1_565 S
C355 C346 1.429 . S
C355 N352 1.350 . S
C355 C354 1.432 1_545 S
C356 C357 1.369 . S
C356 C358 1.419 1_655 S
C356 H360 0.930 . S
C357 C356 1.369 . S
C357 C366 1.429 . S
C358 C356 1.419 1_455 S
C358 C359 1.363 . S
C358 H361 0.929 . S
C359 C358 1.363 . S
C359 C365 1.428 . S
H360 C356 0.930 . S
H361 C358 0.929 . S
S362 N363 1.613 . S
S362 N364 1.610 1_655 S
N363 S362 1.613 . S
N363 C366 1.350 . S
N364 S362 1.610 1_455 S
N364 C365 1.351 . S
C365 C359 1.428 . S
C365 N364 1.351 . S
C365 C366 1.434 1_455 S
C366 C357 1.429 . S
C366 N363 1.350 . S
C366 C365 1.434 1_655 S
C367 C368 1.369 . S
C367 C369 1.419 1_455 S
C367 H371 0.930 . S
C368 C367 1.369 . S
C368 C377 1.429 . S
C369 C367 1.419 1_655 S
C369 C370 1.363 . S
C369 H372 0.929 . S
C370 C369 1.363 . S
C370 C376 1.428 . S
H371 C367 0.930 . S
H372 C369 0.929 . S
S373 N374 1.613 1_655 S
S373 N375 1.610 . S
N374 S373 1.613 1_455 S
N374 C377 1.350 . S
N375 S373 1.610 . S
N375 C376 1.351 . S
C376 C370 1.428 . S
C376 N375 1.351 . S
C376 C377 1.434 1_655 S
C377 C368 1.429 . S
C377 N374 1.350 . S
C377 C376 1.434 1_455 S
C378 C379 1.369 . S
C378 C380 1.419 1_655 S
C378 H382 0.930 . S
C379 C378 1.369 . S
C379 C388 1.429 . S
C380 C378 1.419 1_455 S
C380 C381 1.363 . S
C380 H383 0.929 . S
C381 C380 1.363 . S
C381 C387 1.428 . S
H382 C378 0.930 . S
H383 C380 0.929 . S
S384 N385 1.613 1_455 S
S384 N386 1.610 . S
N385 S384 1.613 1_655 S
N385 C388 1.350 . S
N386 S384 1.610 . S
N386 C387 1.351 . S
C387 C381 1.428 . S
C387 N386 1.351 . S
C387 C388 1.434 1_455 S
C388 C379 1.429 . S
C388 N385 1.350 . S
C388 C387 1.434 1_655 S
C389 C390 1.369 . S
C389 C391 1.419 1_455 S
C389 H393 0.930 . S
C390 C389 1.369 . S
C390 C399 1.429 . S
C391 C389 1.419 1_655 S
C391 C392 1.363 . S
C391 H394 0.929 . S
C392 C391 1.363 . S
C392 C398 1.428 . S
H393 C389 0.930 . S
H394 C391 0.929 . S
S395 N396 1.613 1_655 S
S395 N397 1.610 . S
N396 S395 1.613 1_455 S
N396 C399 1.350 . S
N397 S395 1.610 . S
N397 C398 1.351 . S
C398 C392 1.428 . S
C398 N397 1.351 . S
C398 C399 1.434 1_655 S
C399 C390 1.429 . S
C399 N396 1.350 . S
C399 C398 1.434 1_455 S
C400 C401 1.369 . S
C400 C402 1.419 . S
C400 H404 0.930 . S
C401 C400 1.369 . S
C401 C410 1.429 . S
C402 C400 1.419 . S
C402 C403 1.363 . S
C402 H405 0.929 . S
C403 C402 1.363 . S
C403 C409 1.428 . S
H404 C400 0.930 . S
H405 C402 0.929 . S
S406 N407 1.613 . S
S406 N408 1.610 . S
N407 S406 1.613 . S
N407 C410 1.350 . S
N408 S406 1.610 . S
N408 C409 1.351 . S
C409 C403 1.428 . S
C409 N408 1.351 . S
C409 C410 1.434 . S
C410 C401 1.429 . S
C410 N407 1.350 . S
C410 C409 1.434 . S
C411 C412 1.369 . S
C411 C413 1.419 . S
C411 H415 0.930 . S
C412 C411 1.369 . S
C412 C421 1.429 . S
C413 C411 1.419 . S
C413 C414 1.363 . S
C413 H416 0.929 . S
C414 C413 1.363 . S
C414 C420 1.428 . S
H415 C411 0.930 . S
H416 C413 0.929 . S
S417 N418 1.613 . S
S417 N419 1.610 . S
N418 S417 1.613 . S
N418 C421 1.350 . S
N419 S417 1.610 . S
N419 C420 1.351 . S
C420 C414 1.428 . S
C420 N419 1.351 . S
C420 C421 1.434 . S
C421 C412 1.429 . S
C421 N418 1.350 . S
C421 C420 1.434 . S
C422 C423 1.369 . S
C422 C424 1.419 . S
C422 H426 0.930 . S
C423 C422 1.369 . S
C423 C432 1.429 . S
C424 C422 1.419 . S
C424 C425 1.363 . S
C424 H427 0.929 . S
C425 C424 1.363 . S
C425 C431 1.428 . S
H426 C422 0.930 . S
H427 C424 0.929 . S
S428 N429 1.613 . S
S428 N430 1.610 . S
N429 S428 1.613 . S
N429 C432 1.350 . S
N430 S428 1.610 . S
N430 C431 1.351 . S
C431 C425 1.428 . S
C431 N430 1.351 . S
C431 C432 1.434 . S
C432 C423 1.429 . S
C432 N429 1.350 . S
C432 C431 1.434 . S
C433 C434 1.369 . S
C433 C435 1.419 . S
C433 H437 0.930 . S
C434 C433 1.369 . S
C434 C443 1.429 . S
C435 C433 1.419 . S
C435 C436 1.363 . S
C435 H438 0.929 . S
C436 C435 1.363 . S
C436 C442 1.428 . S
H437 C433 0.930 . S
H438 C435 0.929 . S
S439 N440 1.613 . S
S439 N441 1.610 . S
N440 S439 1.613 . S
N440 C443 1.350 . S
N441 S439 1.610 . S
N441 C442 1.351 . S
C442 C436 1.428 . S
C442 N441 1.351 . S
C442 C443 1.434 . S
C443 C434 1.429 . S
C443 N440 1.350 . S
C443 C442 1.434 . S
C444 C445 1.369 . S
C444 C446 1.419 . S
C444 H448 0.930 . S
C445 C444 1.369 . S
C445 C454 1.429 . S
C446 C444 1.419 . S
C446 C447 1.363 . S
C446 H449 0.929 . S
C447 C446 1.363 . S
C447 C453 1.428 . S
H448 C444 0.930 . S
H449 C446 0.929 . S
S450 N451 1.613 . S
S450 N452 1.610 . S
N451 S450 1.613 . S
N451 C454 1.350 . S
N452 S450 1.610 . S
N452 C453 1.351 . S
C453 C447 1.428 . S
C453 N452 1.351 . S
C453 C454 1.434 . S
C454 C445 1.429 . S
C454 N451 1.350 . S
C454 C453 1.434 . S
C455 C456 1.369 . S
C455 C457 1.419 . S
C455 H459 0.930 . S
C456 C455 1.369 . S
C456 C465 1.429 . S
C457 C455 1.419 . S
C457 C458 1.363 . S
C457 H460 0.929 . S
C458 C457 1.363 . S
C458 C464 1.428 . S
H459 C455 0.930 . S
H460 C457 0.929 . S
S461 N462 1.613 . S
S461 N463 1.610 . S
N462 S461 1.613 . S
N462 C465 1.350 . S
N463 S461 1.610 . S
N463 C464 1.351 . S
C464 C458 1.428 . S
C464 N463 1.351 . S
C464 C465 1.434 . S
C465 C456 1.429 . S
C465 N462 1.350 . S
C465 C464 1.434 . S
C466 C467 1.369 . S
C466 C468 1.419 . S
C466 H470 0.930 . S
C467 C466 1.369 . S
C467 C476 1.429 . S
C468 C466 1.419 . S
C468 C469 1.363 . S
C468 H471 0.929 . S
C469 C468 1.363 . S
C469 C475 1.428 . S
H470 C466 0.930 . S
H471 C468 0.929 . S
S472 N473 1.613 . S
S472 N474 1.610 . S
N473 S472 1.613 . S
N473 C476 1.350 . S
N474 S472 1.610 . S
N474 C475 1.351 . S
C475 C469 1.428 . S
C475 N474 1.351 . S
C475 C476 1.434 . S
C476 C467 1.429 . S
C476 N473 1.350 . S
C476 C475 1.434 . S
C477 C478 1.369 . S
C477 C479 1.419 . S
C477 H481 0.930 . S
C478 C477 1.369 . S
C478 C487 1.429 . S
C479 C477 1.419 . S
C479 C480 1.363 . S
C479 H482 0.929 . S
C480 C479 1.363 . S
C480 C486 1.428 . S
H481 C477 0.930 . S
H482 C479 0.929 . S
S483 N484 1.613 . S
S483 N485 1.610 . S
N484 S483 1.613 . S
N484 C487 1.350 . S
N485 S483 1.610 . S
N485 C486 1.351 . S
C486 C480 1.428 . S
C486 N485 1.351 . S
C486 C487 1.434 . S
C487 C478 1.429 . S
C487 N484 1.350 . S
C487 C486 1.434 . S
C488 C489 1.369 1_565 S
C488 C490 1.419 . S
C488 H492 0.930 . S
C489 C488 1.369 1_545 S
C489 C498 1.429 . S
C490 C488 1.419 . S
C490 C491 1.363 . S
C490 H493 0.929 . S
C491 C490 1.363 . S
C491 C497 1.428 1_565 S
H492 C488 0.930 . S
H493 C490 0.929 . S
S494 N495 1.613 . S
S494 N496 1.610 . S
N495 S494 1.613 . S
N495 C498 1.350 . S
N496 S494 1.610 . S
N496 C497 1.351 . S
C497 C491 1.428 1_545 S
C497 N496 1.351 . S
C497 C498 1.434 . S
C498 C489 1.429 . S
C498 N495 1.350 . S
C498 C497 1.434 . S
C499 C500 1.369 . S
C499 C501 1.419 . S
C499 H503 0.930 . S
C500 C499 1.369 . S
C500 C509 1.429 1_545 S
C501 C499 1.419 . S
C501 C502 1.363 1_545 S
C501 H504 0.929 . S
C502 C501 1.363 1_565 S
C502 C508 1.428 . S
H503 C499 0.930 . S
H504 C501 0.929 . S
S505 N506 1.613 . S
S505 N507 1.610 . S
N506 S505 1.613 . S
N506 C509 1.350 . S
N507 S505 1.610 . S
N507 C508 1.351 . S
C508 C502 1.428 . S
C508 N507 1.351 . S
C508 C509 1.434 . S
C509 C500 1.429 1_565 S
C509 N506 1.350 . S
C509 C508 1.434 . S
C510 C511 1.369 1_565 S
C510 C512 1.419 . S
C510 H514 0.930 . S
C511 C510 1.369 1_545 S
C511 C520 1.429 . S
C512 C510 1.419 . S
C512 C513 1.363 . S
C512 H515 0.929 . S
C513 C512 1.363 . S
C513 C519 1.428 1_565 S
H514 C510 0.930 . S
H515 C512 0.929 . S
S516 N517 1.613 . S
S516 N518 1.610 . S
N517 S516 1.613 . S
N517 C520 1.350 . S
N518 S516 1.610 . S
N518 C519 1.351 . S
C519 C513 1.428 1_545 S
C519 N518 1.351 . S
C519 C520 1.434 . S
C520 C511 1.429 . S
C520 N517 1.350 . S
C520 C519 1.434 . S
C521 C522 1.369 . S
C521 C523 1.419 . S
C521 H525 0.930 . S
C522 C521 1.369 . S
C522 C531 1.429 1_565 S
C523 C521 1.419 . S
C523 C524 1.363 1_565 S
C523 H526 0.929 . S
C524 C523 1.363 1_545 S
C524 C530 1.428 . S
H525 C521 0.930 . S
H526 C523 0.929 . S
S527 N528 1.613 . S
S527 N529 1.610 . S
N528 S527 1.613 . S
N528 C531 1.350 . S
N529 S527 1.610 . S
N529 C530 1.351 . S
C530 C524 1.428 . S
C530 N529 1.351 . S
C530 C531 1.434 . S
C531 C522 1.429 1_545 S
C531 N528 1.350 . S
C531 C530 1.434 . S
C532 C533 1.369 . S
C532 C534 1.419 . S
C532 H536 0.930 . S
C533 C532 1.369 . S
C533 C542 1.429 . S
C534 C532 1.419 . S
C534 C535 1.363 . S
C534 H537 0.929 . S
C535 C534 1.363 . S
C535 C541 1.428 . S
H536 C532 0.930 . S
H537 C534 0.929 . S
S538 N539 1.613 . S
S538 N540 1.610 . S
N539 S538 1.613 . S
N539 C542 1.350 . S
N540 S538 1.610 . S
N540 C541 1.351 . S
C541 C535 1.428 . S
C541 N540 1.351 . S
C541 C542 1.434 . S
C542 C533 1.429 . S
C542 N539 1.350 . S
C542 C541 1.434 . S
C543 C544 1.369 . S
C543 C545 1.419 . S
C543 H547 0.930 . S
C544 C543 1.369 . S
C544 C553 1.429 . S
C545 C543 1.419 . S
C545 C546 1.363 . S
C545 H548 0.929 . S
C546 C545 1.363 . S
C546 C552 1.428 . S
H547 C543 0.930 . S
H548 C545 0.929 . S
S549 N550 1.613 . S
S549 N551 1.610 . S
N550 S549 1.613 . S
N550 C553 1.350 . S
N551 S549 1.610 . S
N551 C552 1.351 . S
C552 C546 1.428 . S
C552 N551 1.351 . S
C552 C553 1.434 . S
C553 C544 1.429 . S
C553 N550 1.350 . S
C553 C552 1.434 . S
C554 C555 1.369 . S
C554 C556 1.419 . S
C554 H558 0.930 . S
C555 C554 1.369 . S
C555 C564 1.429 . S
C556 C554 1.419 . S
C556 C557 1.363 . S
C556 H559 0.929 . S
C557 C556 1.363 . S
C557 C563 1.428 . S
H558 C554 0.930 . S
H559 C556 0.929 . S
S560 N561 1.613 . S
S560 N562 1.610 . S
N561 S560 1.613 . S
N561 C564 1.350 . S
N562 S560 1.610 . S
N562 C563 1.351 . S
C563 C557 1.428 . S
C563 N562 1.351 . S
C563 C564 1.434 . S
C564 C555 1.429 . S
C564 N561 1.350 . S
C564 C563 1.434 . S
C565 C566 1.369 . S
C565 C567 1.419 . S
C565 H569 0.930 . S
C566 C565 1.369 . S
C566 C575 1.429 . S
C567 C565 1.419 . S
C567 C568 1.363 . S
C567 H570 0.929 . S
C568 C567 1.363 . S
C568 C574 1.428 . S
H569 C565 0.930 . S
H570 C567 0.929 . S
S571 N572 1.613 . S
S571 N573 1.610 . S
N572 S571 1.613 . S
N572 C575 1.350 . S
N573 S571 1.610 . S
N573 C574 1.351 . S
C574 C568 1.428 . S
C574 N573 1.351 . S
C574 C575 1.434 . S
C575 C566 1.429 . S
C575 N572 1.350 . S
C575 C574 1.434 . S
C225 C8 1.263 . S
C227 C78 1.264 . S
C236 C64 1.262 . S
C238 C22 1.263 . S
C247 C36 1.272 . S
C249 C106 1.271 . S
C258 C92 1.273 . S
C260 C50 1.271 . S
C269 C190 1.273 . S
C271 C120 1.272 . S
C280 C176 1.272 . S
C282 C134 1.271 . S
C291 C218 1.272 . S
C293 C148 1.271 . S
C302 C162 1.263 . S
C304 C204 1.264 . S
C313 C23 1.507 . S
C315 C9 1.511 . S
C324 C37 1.510 . S
C326 C51 1.513 . S
C335 C65 1.513 . S
C337 C79 1.508 . S
C346 C93 1.511 . S
C348 C107 1.508 . S
C357 C121 1.508 . S
C359 C135 1.513 . S
C368 C163 1.513 . S
C370 C149 1.509 . S
C379 C191 1.511 . S
C381 C177 1.508 . S
C390 C205 1.513 . S
C392 C219 1.511 . S
C401 C132 1.521 . S
C403 C6 1.521 . S
C412 C20 1.518 . S
C414 C118 1.523 . S
C423 C160 1.521 . S
C425 C34 1.521 . S
C434 C48 1.522 . S
C436 C146 1.520 . S
C445 C62 1.523 . S
C447 C188 1.520 . S
C456 C174 1.521 . S
C458 C76 1.522 . S
C467 C90 1.521 . S
C469 C216 1.517 . S
C478 C202 1.520 . S
C480 C104 1.522 . S
C489 C7 1.526 . S
C491 C35 1.526 . S
C500 C49 1.526 . S
C502 C21 1.526 . S
C511 C91 1.526 . S
C513 C63 1.526 . S
C522 C105 1.526 . S
C524 C77 1.525 . S
C533 C147 1.525 . S
C535 C119 1.525 . S
C544 C133 1.526 . S
C546 C161 1.525 . S
C555 C203 1.527 . S
C557 C175 1.526 . S
C566 C189 1.525 . S
C568 C217 1.526 . S
