# Generated by pormake.
# Topology ict, (4)-cn, num edge types: 1
# Building blocks:
#     Node 0, Type 0, BuildingBlock: NAHDIM_clean_sbu_0, # of connection points: 4
#     Node 1, Type 0, BuildingBlock: NAHDIM_clean_sbu_0, # of connection points: 4
#     Node 2, Type 0, BuildingBlock: NAHDIM_clean_sbu_0, # of connection points: 4
#     Node 3, Type 0, BuildingBlock: NAHDIM_clean_sbu_0, # of connection points: 4
#     Node 4, Type 0, BuildingBlock: NAHDIM_clean_sbu_0, # of connection points: 4
#     Node 5, Type 0, BuildingBlock: NAHDIM_clean_sbu_0, # of connection points: 4
#     Node 6, Type 0, BuildingBlock: NAHDIM_clean_sbu_0, # of connection points: 4
#     Node 7, Type 0, BuildingBlock: NAHDIM_clean_sbu_0, # of connection points: 4
#     Node 8, Type 0, BuildingBlock: NAHDIM_clean_sbu_0, # of connection points: 4
#     Node 9, Type 0, BuildingBlock: NAHDIM_clean_sbu_0, # of connection points: 4
#     Node 10, Type 0, BuildingBlock: NAHDIM_clean_sbu_0, # of connection points: 4
#     Node 11, Type 0, BuildingBlock: NAHDIM_clean_sbu_0, # of connection points: 4
#     Node 12, Type 0, BuildingBlock: NAHDIM_clean_sbu_0, # of connection points: 4
#     Node 13, Type 0, BuildingBlock: NAHDIM_clean_sbu_0, # of connection points: 4
#     Node 14, Type 0, BuildingBlock: NAHDIM_clean_sbu_0, # of connection points: 4
#     Node 15, Type 0, BuildingBlock: NAHDIM_clean_sbu_0, # of connection points: 4
#     Node 16, Type 0, BuildingBlock: NAHDIM_clean_sbu_0, # of connection points: 4
#     Node 17, Type 0, BuildingBlock: NAHDIM_clean_sbu_0, # of connection points: 4
#     Node 18, Type 0, BuildingBlock: NAHDIM_clean_sbu_0, # of connection points: 4
#     Node 19, Type 0, BuildingBlock: NAHDIM_clean_sbu_0, # of connection points: 4
#     Node 20, Type 0, BuildingBlock: NAHDIM_clean_sbu_0, # of connection points: 4
#     Node 21, Type 0, BuildingBlock: NAHDIM_clean_sbu_0, # of connection points: 4
#     Node 22, Type 0, BuildingBlock: NAHDIM_clean_sbu_0, # of connection points: 4
#     Node 23, Type 0, BuildingBlock: NAHDIM_clean_sbu_0, # of connection points: 4
#     Node 24, Type 0, BuildingBlock: NAHDIM_clean_sbu_0, # of connection points: 4
#     Node 25, Type 0, BuildingBlock: NAHDIM_clean_sbu_0, # of connection points: 4
#     Node 26, Type 0, BuildingBlock: NAHDIM_clean_sbu_0, # of connection points: 4
#     Node 27, Type 0, BuildingBlock: NAHDIM_clean_sbu_0, # of connection points: 4
#     Node 28, Type 0, BuildingBlock: NAHDIM_clean_sbu_0, # of connection points: 4
#     Node 29, Type 0, BuildingBlock: NAHDIM_clean_sbu_0, # of connection points: 4
#     Node 30, Type 0, BuildingBlock: NAHDIM_clean_sbu_0, # of connection points: 4
#     Node 31, Type 0, BuildingBlock: NAHDIM_clean_sbu_0, # of connection points: 4
#     Node 32, Type 0, BuildingBlock: NAHDIM_clean_sbu_0, # of connection points: 4
#     Node 33, Type 0, BuildingBlock: NAHDIM_clean_sbu_0, # of connection points: 4
#     Node 34, Type 0, BuildingBlock: NAHDIM_clean_sbu_0, # of connection points: 4
#     Node 35, Type 0, BuildingBlock: NAHDIM_clean_sbu_0, # of connection points: 4
#     Edge 36, Type (0, 0), BuildingBlock: CIFDUS_clean_linker_0, # of connection points: 2
#     Edge 37, Type (0, 0), BuildingBlock: CIFDUS_clean_linker_0, # of connection points: 2
#     Edge 38, Type (0, 0), BuildingBlock: CIFDUS_clean_linker_0, # of connection points: 2
#     Edge 39, Type (0, 0), BuildingBlock: CIFDUS_clean_linker_0, # of connection points: 2
#     Edge 40, Type (0, 0), BuildingBlock: CIFDUS_clean_linker_0, # of connection points: 2
#     Edge 41, Type (0, 0), BuildingBlock: CIFDUS_clean_linker_0, # of connection points: 2
#     Edge 42, Type (0, 0), BuildingBlock: CIFDUS_clean_linker_0, # of connection points: 2
#     Edge 43, Type (0, 0), BuildingBlock: CIFDUS_clean_linker_0, # of connection points: 2
#     Edge 44, Type (0, 0), BuildingBlock: CIFDUS_clean_linker_0, # of connection points: 2
#     Edge 45, Type (0, 0), BuildingBlock: CIFDUS_clean_linker_0, # of connection points: 2
#     Edge 46, Type (0, 0), BuildingBlock: CIFDUS_clean_linker_0, # of connection points: 2
#     Edge 47, Type (0, 0), BuildingBlock: CIFDUS_clean_linker_0, # of connection points: 2
#     Edge 48, Type (0, 0), BuildingBlock: CIFDUS_clean_linker_0, # of connection points: 2
#     Edge 49, Type (0, 0), BuildingBlock: CIFDUS_clean_linker_0, # of connection points: 2
#     Edge 50, Type (0, 0), BuildingBlock: CIFDUS_clean_linker_0, # of connection points: 2
#     Edge 51, Type (0, 0), BuildingBlock: CIFDUS_clean_linker_0, # of connection points: 2
#     Edge 52, Type (0, 0), BuildingBlock: CIFDUS_clean_linker_0, # of connection points: 2
#     Edge 53, Type (0, 0), BuildingBlock: CIFDUS_clean_linker_0, # of connection points: 2
#     Edge 54, Type (0, 0), BuildingBlock: CIFDUS_clean_linker_0, # of connection points: 2
#     Edge 55, Type (0, 0), BuildingBlock: CIFDUS_clean_linker_0, # of connection points: 2
#     Edge 56, Type (0, 0), BuildingBlock: CIFDUS_clean_linker_0, # of connection points: 2
#     Edge 57, Type (0, 0), BuildingBlock: CIFDUS_clean_linker_0, # of connection points: 2
#     Edge 58, Type (0, 0), BuildingBlock: CIFDUS_clean_linker_0, # of connection points: 2
#     Edge 59, Type (0, 0), BuildingBlock: CIFDUS_clean_linker_0, # of connection points: 2
#     Edge 60, Type (0, 0), BuildingBlock: CIFDUS_clean_linker_0, # of connection points: 2
#     Edge 61, Type (0, 0), BuildingBlock: CIFDUS_clean_linker_0, # of connection points: 2
#     Edge 62, Type (0, 0), BuildingBlock: CIFDUS_clean_linker_0, # of connection points: 2
#     Edge 63, Type (0, 0), BuildingBlock: CIFDUS_clean_linker_0, # of connection points: 2
#     Edge 64, Type (0, 0), BuildingBlock: CIFDUS_clean_linker_0, # of connection points: 2
#     Edge 65, Type (0, 0), BuildingBlock: CIFDUS_clean_linker_0, # of connection points: 2
#     Edge 66, Type (0, 0), BuildingBlock: CIFDUS_clean_linker_0, # of connection points: 2
#     Edge 67, Type (0, 0), BuildingBlock: CIFDUS_clean_linker_0, # of connection points: 2
#     Edge 68, Type (0, 0), BuildingBlock: CIFDUS_clean_linker_0, # of connection points: 2
#     Edge 69, Type (0, 0), BuildingBlock: CIFDUS_clean_linker_0, # of connection points: 2
#     Edge 70, Type (0, 0), BuildingBlock: CIFDUS_clean_linker_0, # of connection points: 2
#     Edge 71, Type (0, 0), BuildingBlock: CIFDUS_clean_linker_0, # of connection points: 2
#     Edge 72, Type (0, 0), BuildingBlock: CIFDUS_clean_linker_0, # of connection points: 2
#     Edge 73, Type (0, 0), BuildingBlock: CIFDUS_clean_linker_0, # of connection points: 2
#     Edge 74, Type (0, 0), BuildingBlock: CIFDUS_clean_linker_0, # of connection points: 2
#     Edge 75, Type (0, 0), BuildingBlock: CIFDUS_clean_linker_0, # of connection points: 2
#     Edge 76, Type (0, 0), BuildingBlock: CIFDUS_clean_linker_0, # of connection points: 2
#     Edge 77, Type (0, 0), BuildingBlock: CIFDUS_clean_linker_0, # of connection points: 2
#     Edge 78, Type (0, 0), BuildingBlock: CIFDUS_clean_linker_0, # of connection points: 2
#     Edge 79, Type (0, 0), BuildingBlock: CIFDUS_clean_linker_0, # of connection points: 2
#     Edge 80, Type (0, 0), BuildingBlock: CIFDUS_clean_linker_0, # of connection points: 2
#     Edge 81, Type (0, 0), BuildingBlock: CIFDUS_clean_linker_0, # of connection points: 2
#     Edge 82, Type (0, 0), BuildingBlock: CIFDUS_clean_linker_0, # of connection points: 2
#     Edge 83, Type (0, 0), BuildingBlock: CIFDUS_clean_linker_0, # of connection points: 2
#     Edge 84, Type (0, 0), BuildingBlock: CIFDUS_clean_linker_0, # of connection points: 2
#     Edge 85, Type (0, 0), BuildingBlock: CIFDUS_clean_linker_0, # of connection points: 2
#     Edge 86, Type (0, 0), BuildingBlock: CIFDUS_clean_linker_0, # of connection points: 2
#     Edge 87, Type (0, 0), BuildingBlock: CIFDUS_clean_linker_0, # of connection points: 2
#     Edge 88, Type (0, 0), BuildingBlock: CIFDUS_clean_linker_0, # of connection points: 2
#     Edge 89, Type (0, 0), BuildingBlock: CIFDUS_clean_linker_0, # of connection points: 2
#     Edge 90, Type (0, 0), BuildingBlock: CIFDUS_clean_linker_0, # of connection points: 2
#     Edge 91, Type (0, 0), BuildingBlock: CIFDUS_clean_linker_0, # of connection points: 2
#     Edge 92, Type (0, 0), BuildingBlock: CIFDUS_clean_linker_0, # of connection points: 2
#     Edge 93, Type (0, 0), BuildingBlock: CIFDUS_clean_linker_0, # of connection points: 2
#     Edge 94, Type (0, 0), BuildingBlock: CIFDUS_clean_linker_0, # of connection points: 2
#     Edge 95, Type (0, 0), BuildingBlock: CIFDUS_clean_linker_0, # of connection points: 2
#     Edge 96, Type (0, 0), BuildingBlock: CIFDUS_clean_linker_0, # of connection points: 2
#     Edge 97, Type (0, 0), BuildingBlock: CIFDUS_clean_linker_0, # of connection points: 2
#     Edge 98, Type (0, 0), BuildingBlock: CIFDUS_clean_linker_0, # of connection points: 2
#     Edge 99, Type (0, 0), BuildingBlock: CIFDUS_clean_linker_0, # of connection points: 2
#     Edge 100, Type (0, 0), BuildingBlock: CIFDUS_clean_linker_0, # of connection points: 2
#     Edge 101, Type (0, 0), BuildingBlock: CIFDUS_clean_linker_0, # of connection points: 2
#     Edge 102, Type (0, 0), BuildingBlock: CIFDUS_clean_linker_0, # of connection points: 2
#     Edge 103, Type (0, 0), BuildingBlock: CIFDUS_clean_linker_0, # of connection points: 2
#     Edge 104, Type (0, 0), BuildingBlock: CIFDUS_clean_linker_0, # of connection points: 2
#     Edge 105, Type (0, 0), BuildingBlock: CIFDUS_clean_linker_0, # of connection points: 2
#     Edge 106, Type (0, 0), BuildingBlock: CIFDUS_clean_linker_0, # of connection points: 2
#     Edge 107, Type (0, 0), BuildingBlock: CIFDUS_clean_linker_0, # of connection points: 2
# Relax obj value: 0.088
# Max RMSD: 0.119
# Mean RMSD: 0.119
data_MOF--net-ict--node1-NAHDIM_clean_sbu_0--edge1-CIFDUS_clean_linker_0
_symmetry_space_group_name_H-M    P1
_symmetry_Int_Tables_number       1
_symmetry_cell_setting            triclinic
loop_
_symmetry_equiv_pos_as_xyz
'x, y, z'
_cell_length_a     58.162573
_cell_length_b     58.167457
_cell_length_c     31.824986
_cell_angle_alpha  90.010547
_cell_angle_beta   90.034392
_cell_angle_gamma 120.05396
loop_
_atom_site_label
_atom_site_type_symbol
_atom_site_fract_x
_atom_site_fract_y
_atom_site_fract_z
_atom_type_partial_charge
C0 C 0.2755 0.25386 0.96137 0.0
O1 O 0.2558 0.24957 0.93631 0.0
O2 O 0.20513 0.2196 0.99125 0.0
Zn3 Zn 0.23414 0.215 0.01708 0.0
O4 O 0.22879 0.17887 0.0035 0.0
C5 C 0.21245 0.21573 0.09795 0.0
O6 O 0.19115 0.20943 0.07546 0.0
O7 O 0.2705 0.24203 0.99658 0.0
C8 C 0.21269 0.15802 0.02348 0.0
O9 O 0.19817 0.1597 0.05361 0.0
C10 C 0.19506 0.21139 0.95511 0.0
O11 O 0.20449 0.19981 0.93074 0.0
O12 O 0.23328 0.21892 0.07971 0.0
C13 C 0.75244 0.01389 0.94649 0.0
O14 O 0.76394 0.00256 0.92654 0.0
O15 O 0.77698 0.9755 -0.00013 0.0
Zn16 Zn 0.78357 0.01201 0.01458 0.0
O17 O 0.81998 0.04025 0.99591 0.0
C18 C 0.76686 0.99596 0.10072 0.0
O19 O 0.7529 0.97212 0.08433 0.0
O20 O 0.75722 0.01912 0.98534 0.0
C21 C 0.83957 0.05077 0.02112 0.0
O22 O 0.83641 0.04204 0.05995 0.0
C23 C 0.79142 0.96679 0.01487 0.0
O24 O 0.81117 0.98209 0.03999 0.0
O25 O 0.7808 0.01557 0.07683 0.0
C26 C 0.98549 0.71777 0.00154 0.0
O27 O 0.99508 0.73842 0.97636 0.0
O28 O 0.02758 0.78632 0.04201 0.0
Zn29 Zn 0.99356 0.75646 0.06575 0.0
O30 O 0.96319 0.76326 0.05697 0.0
C31 C 0.02046 0.75971 0.1436 0.0
O32 O 0.04064 0.76548 0.11868 0.0
O33 O 0.98381 0.72111 0.0406 0.0
C34 C 0.96306 0.78262 0.07525 0.0
O35 O 0.98334 0.79852 0.09907 0.0
C36 C 0.02848 0.80332 0.01599 0.0
O37 O 0.0062 0.80077 0.00131 0.0
O38 O 0.99842 0.75484 0.12773 0.0
C39 C 0.23689 0.26231 0.49168 0.0
O40 O 0.22487 0.24086 0.51505 0.0
O41 O 0.20891 0.19557 0.44538 0.0
Zn42 Zn 0.20475 0.22624 0.42601 0.0
O43 O 0.16809 0.2199 0.43793 0.0
C44 C 0.23054 0.23191 0.34654 0.0
O45 O 0.25011 0.23429 0.37026 0.0
O46 O 0.23172 0.26059 0.45264 0.0
C47 C 0.14801 0.20055 0.42066 0.0
O48 O 0.1515 0.18433 0.39626 0.0
C49 C 0.19324 0.17797 0.47109 0.0
O50 O 0.17387 0.18021 0.48808 0.0
O51 O 0.20952 0.22887 0.36378 0.0
C52 C 0.73116 0.97586 0.50236 0.0
O53 O 0.75208 0.983 0.5263 0.0
O54 O 0.79835 0.01004 0.45387 0.0
Zn55 Zn 0.7657 0.9756 0.43741 0.0
O56 O 0.76941 0.94462 0.45585 0.0
C57 C 0.76817 0.99299 0.35123 0.0
O58 O 0.77933 0.01685 0.3679 0.0
O59 O 0.73271 0.97225 0.46335 0.0
C60 C 0.78653 0.94039 0.43817 0.0
O61 O 0.80174 0.95675 0.40868 0.0
C62 C 0.81243 0.01088 0.48506 0.0
O63 O 0.80528 0.98912 0.50676 0.0
O64 O 0.76101 0.97299 0.37493 0.0
C65 C 0.0065 0.7535 0.54944 0.0
O66 O 0.00055 0.77001 0.56807 0.0
O67 O 0.96493 0.77434 0.49287 0.0
Zn68 Zn -0.00059 0.77725 0.47511 0.0
O69 O 0.02997 0.81468 0.48054 0.0
C70 C 0.01512 0.76963 0.39263 0.0
O71 O 0.0387 0.7798 0.4101 0.0
O72 O 0.00694 0.7529 0.50956 0.0
C73 C 0.03214 0.83285 0.45588 0.0
O74 O 0.01366 0.8271 0.42741 0.0
C75 C 0.96285 0.79153 0.51459 0.0
O76 O 0.98444 0.81274 0.5279 0.0
O77 O 0.99555 0.76643 0.4147 0.0
C78 C 0.74635 0.75174 0.06492 0.0
O79 O 0.76889 0.76652 0.08477 0.0
O80 O 0.80908 0.76895 0.00796 0.0
Zn81 Zn 0.77935 0.77578 0.99272 0.0
O82 O 0.78968 0.81379 0.00458 0.0
C83 C 0.79146 0.78283 0.9062 0.0
O84 O 0.81458 0.80018 0.92226 0.0
O85 O 0.74612 0.75195 0.02501 0.0
C86 C 0.77551 0.82281 0.98958 0.0
O87 O 0.75458 0.80704 0.96685 0.0
C88 C 0.82975 0.78581 0.02762 0.0
O89 O 0.83154 0.80817 0.04013 0.0
O90 O 0.77222 0.76914 0.9309 0.0
C91 C 0.24095 0.97892 0.03433 0.0
O92 O 0.22617 0.98649 0.05455 0.0
O93 O 0.21018 0.01216 0.97932 0.0
Zn94 Zn 0.21046 0.97888 0.96251 0.0
O95 O 0.1749 0.94641 0.97277 0.0
C96 C 0.21574 0.9956 0.87618 0.0
O97 O 0.20785 0.0115 0.8914 0.0
O98 O 0.23798 0.97511 0.99492 0.0
C99 C 0.15412 0.94278 0.95376 0.0
O100 O 0.15576 0.96109 0.92776 0.0
C101 C 0.19412 0.01265 0.00587 0.0
O102 O 0.17705 0.99059 0.02495 0.0
O103 O 0.21857 0.98006 0.90092 0.0
C104 C 0.01398 0.26079 0.98496 0.0
O105 O 0.00093 0.24028 0.00993 0.0
O106 O 0.98262 0.1913 0.95336 0.0
Zn107 Zn 0.01571 0.22201 0.92931 0.0
O108 O 0.04777 0.21932 0.94582 0.0
C109 C 0.01043 0.19979 0.84787 0.0
O110 O 0.01217 0.18163 0.86993 0.0
O111 O 0.02138 0.25734 0.9491 0.0
C112 C 0.06724 0.22612 0.92097 0.0
O113 O 0.06668 0.23527 0.88349 0.0
C114 C 0.98222 0.17913 0.98675 0.0
O115 O 0.00419 0.18752 0.00854 0.0
O116 O 0.01157 0.2196 0.86668 0.0
C117 C 0.74191 0.72862 0.51398 0.0
O118 O 0.75304 0.75065 0.49189 0.0
O119 O 0.76816 0.79477 0.55721 0.0
Zn120 Zn 0.77341 0.76505 0.57848 0.0
O121 O 0.80997 0.77214 0.56384 0.0
C122 C 0.75133 0.75085 0.66431 0.0
O123 O 0.72828 0.73492 0.64665 0.0
O124 O 0.74691 0.72981 0.55307 0.0
C125 C 0.83036 0.7915 0.58045 0.0
O126 O 0.82727 0.80732 0.60639 0.0
C127 C 0.78248 0.81025 0.52802 0.0
O128 O 0.80057 0.80627 0.51027 0.0
O129 O 0.77158 0.76442 0.64138 0.0
C130 C 0.25224 0.02135 0.47652 0.0
O131 O 0.23278 0.01786 0.45147 0.0
O132 O 0.18365 0.97517 0.52626 0.0
Zn133 Zn 0.21337 0.0121 0.53963 0.0
O134 O 0.20564 0.04013 0.51882 0.0
C135 C 0.22192 0.00217 0.62595 0.0
O136 O 0.22644 0.98412 0.60937 0.0
O137 O 0.24826 0.01905 0.51592 0.0
C138 C 0.18735 0.04257 0.53633 0.0
O139 O 0.17279 0.02552 0.56557 0.0
C140 C 0.16577 0.97016 0.49897 0.0
O141 O 0.16695 0.98971 0.47663 0.0
O142 O 0.2164 0.01621 0.60206 0.0
C143 C 0.97233 0.24869 0.46045 0.0
O144 O 0.98193 0.23878 0.43305 0.0
O145 O 0.01138 0.21837 0.49473 0.0
Zn146 Zn 0.97646 0.21227 0.51776 0.0
O147 O 0.94563 0.17673 0.49974 0.0
C148 C 0.99282 0.20633 0.60053 0.0
O149 O 0.00474 0.19585 0.57943 0.0
O150 O 0.96899 0.24065 0.49824 0.0
C151 C 0.93745 0.15576 0.52157 0.0
O152 O 0.94972 0.15681 0.55676 0.0
C153 C 0.01413 0.20019 0.47745 0.0
O154 O 0.99317 0.17659 0.47196 0.0
O155 O 0.9793 0.21452 0.58078 0.0
C156 C 0.93995 0.60246 0.33838 0.0
O157 O 0.91879 0.59528 0.315 0.0
O158 O 0.87362 0.57515 0.37396 0.0
Zn159 Zn 0.9007 0.56625 0.39558 0.0
O160 O 0.89299 0.53053 0.37434 0.0
C161 C 0.89084 0.57601 0.48159 0.0
O162 O 0.88093 0.58958 0.46393 0.0
O163 O 0.93704 0.59314 0.37532 0.0
C164 C 0.90944 0.52317 0.38461 0.0
O165 O 0.93 0.53903 0.40795 0.0
C166 C 0.84891 0.55899 0.37806 0.0
O167 O 0.84108 0.53608 0.39666 0.0
O168 O 0.90037 0.56498 0.45858 0.0
C169 C 0.41176 0.3612 0.30684 0.0
O170 O 0.4207 0.34993 0.28083 0.0
O171 O 0.43641 0.31821 0.33902 0.0
Zn172 Zn 0.44381 0.3525 0.36681 0.0
O173 O 0.48129 0.38242 0.3558 0.0
C174 C 0.44332 0.33045 0.44824 0.0
O175 O 0.45055 0.31605 0.42622 0.0
O176 O 0.41865 0.36388 0.34522 0.0
C177 C 0.50033 0.38691 0.38043 0.0
O178 O 0.49581 0.37108 0.41258 0.0
C179 C 0.4544 0.31218 0.33352 0.0
O180 O 0.479 0.32933 0.34406 0.0
O181 O 0.43863 0.34696 0.42952 0.0
C182 C 0.65032 0.06626 0.28574 0.0
O183 O 0.66233 0.08918 0.26603 0.0
O184 O 0.6906 0.1283 0.34065 0.0
Zn185 Zn 0.65345 0.09952 0.35413 0.0
O186 O 0.62758 0.11069 0.33506 0.0
C187 C 0.6678 0.09704 0.44062 0.0
O188 O 0.69151 0.10518 0.42482 0.0
O189 O 0.64491 0.06579 0.3245 0.0
C190 C 0.60356 0.09697 0.34685 0.0
O191 O 0.59657 0.07599 0.37054 0.0
C192 C 0.69875 0.1518 0.35359 0.0
O193 O 0.68267 0.15668 0.37594 0.0
O194 O 0.64889 0.09316 0.41627 0.0
C195 C 0.91154 0.5822 0.87353 0.0
O196 O 0.89656 0.56218 0.8984 0.0
O197 O 0.8841 0.51387 0.82491 0.0
Zn198 Zn 0.87999 0.54509 0.80859 0.0
O199 O 0.8444 0.53888 0.82749 0.0
C200 C 0.89655 0.54355 0.72373 0.0
O201 O 0.91018 0.53392 0.74204 0.0
O202 O 0.9084 0.5791 0.83404 0.0
C203 C 0.83714 0.55552 0.81823 0.0
O204 O 0.85322 0.57671 0.79631 0.0
C205 C 0.8705 0.49841 0.8546 0.0
O206 O 0.85419 0.50347 0.87586 0.0
O207 O 0.88212 0.54945 0.74599 0.0
C208 C 0.41311 0.314 0.84097 0.0
O209 O 0.43218 0.3165 0.86605 0.0
O210 O 0.48242 0.35191 0.80053 0.0
Zn211 Zn 0.45051 0.31955 0.77726 0.0
O212 O 0.45217 0.28618 0.78818 0.0
C213 C 0.46769 0.32328 0.69289 0.0
O214 O 0.48579 0.31965 0.71155 0.0
O215 O 0.41675 0.31519 0.80151 0.0
C216 C 0.44089 0.26695 0.7624 0.0
O217 O 0.42795 0.26899 0.73011 0.0
C218 C 0.49595 0.35214 0.83206 0.0
O219 O 0.4889 0.32995 0.85244 0.0
O220 O 0.45019 0.32449 0.71506 0.0
C221 C 0.68742 0.0938 0.84918 0.0
O222 O 0.68141 0.11021 0.868 0.0
O223 O 0.64925 0.11761 0.78752 0.0
Zn224 Zn 0.68499 0.12118 0.77603 0.0
O225 O 0.71519 0.15742 0.79071 0.0
C226 C 0.66852 0.10263 0.6908 0.0
O227 O 0.64447 0.09213 0.70656 0.0
O228 O 0.68935 0.09441 0.8094 0.0
C229 C 0.72019 0.17765 0.76876 0.0
O230 O 0.70429 0.17501 0.73748 0.0
C231 C 0.64578 0.13382 0.80962 0.0
O232 O 0.66644 0.15434 0.82669 0.0
O233 O 0.68844 0.11543 0.71475 0.0
C234 C 0.39044 0.08701 0.35482 0.0
O235 O 0.41054 0.09526 0.38098 0.0
O236 O 0.45766 0.1071 0.31593 0.0
Zn237 Zn 0.43206 0.11842 0.29592 0.0
O238 O 0.4439 0.1556 0.31485 0.0
C239 C 0.43327 0.10251 0.20945 0.0
O240 O 0.43348 0.08199 0.22629 0.0
O241 O 0.39498 0.09398 0.31652 0.0
C242 C 0.43033 0.16575 0.30159 0.0
O243 O 0.40915 0.15113 0.27857 0.0
C244 C 0.48147 0.12018 0.30287 0.0
O245 O 0.4882 0.14045 0.27763 0.0
O246 O 0.43229 0.11955 0.23314 0.0
C247 C 0.90881 0.32598 0.34848 0.0
O248 O 0.89409 0.33032 0.375 0.0
O249 O 0.88522 0.37202 0.30622 0.0
Zn250 Zn 0.87797 0.3358 0.28874 0.0
O251 O 0.84297 0.30789 0.31224 0.0
C252 C 0.89563 0.33863 0.20294 0.0
O253 O 0.91922 0.34879 0.22037 0.0
O254 O 0.90613 0.32825 0.30937 0.0
C255 C 0.83589 0.28384 0.30421 0.0
O256 O 0.85175 0.27868 0.28182 0.0
C257 C 0.86879 0.37928 0.29532 0.0
O258 O 0.84794 0.36297 0.27288 0.0
O259 O 0.87551 0.33228 0.22601 0.0
C260 C 0.68127 0.60315 0.36186 0.0
O261 O 0.67627 0.58151 0.38233 0.0
O262 O 0.63834 0.53945 0.30007 0.0
Zn263 Zn 0.67541 0.57023 0.29095 0.0
O264 O 0.70195 0.56039 0.31183 0.0
C265 C 0.66319 0.57261 0.20355 0.0
O266 O 0.63875 0.56187 0.21775 0.0
O267 O 0.68123 0.60285 0.32193 0.0
C268 C 0.72667 0.57667 0.30852 0.0
O269 O 0.7346 0.59998 0.29124 0.0
C270 C 0.63407 0.52166 0.3271 0.0
O271 O 0.65395 0.52406 0.35003 0.0
O272 O 0.682 0.57821 0.22925 0.0
C273 C 0.41437 0.06123 0.80873 0.0
O274 O 0.41893 0.08251 0.78769 0.0
O275 O 0.44702 0.12834 0.85914 0.0
Zn276 Zn 0.45251 0.09758 0.87246 0.0
O277 O 0.48949 0.10652 0.8564 0.0
C278 C 0.44931 0.10813 0.96008 0.0
O279 O 0.45334 0.13092 0.94526 0.0
O280 O 0.42606 0.06371 0.84362 0.0
C281 C 0.50944 0.12746 0.87049 0.0
O282 O 0.50549 0.14346 0.89469 0.0
C283 C 0.45464 0.14174 0.82541 0.0
O284 O 0.46578 0.13489 0.79578 0.0
O285 O 0.44834 0.09078 0.93475 0.0
C286 C 0.94482 0.34526 0.79532 0.0
O287 O 0.92428 0.34464 0.77692 0.0
O288 O 0.87925 0.30311 0.85144 0.0
Zn289 Zn 0.91246 0.33728 0.86683 0.0
O290 O 0.90837 0.36891 0.85324 0.0
C291 C 0.89984 0.32494 0.95399 0.0
O292 O 0.87587 0.31025 0.9384 0.0
O293 O 0.94406 0.34147 0.83474 0.0
C294 C 0.8928 0.37404 0.87393 0.0
O295 O 0.87842 0.35794 0.90424 0.0
C296 C 0.8615 0.3022 0.82703 0.0
O297 O 0.86521 0.32415 0.80915 0.0
O298 O 0.9192 0.33791 0.92908 0.0
C299 C 0.64607 0.58089 0.79486 0.0
O300 O 0.65268 0.56516 0.77525 0.0
O301 O 0.69026 0.56315 0.85202 0.0
Zn302 Zn 0.65341 0.5556 0.866 0.0
O303 O 0.62633 0.51867 0.84748 0.0
C304 C 0.6682 0.5722 0.95307 0.0
O305 O 0.69257 0.58509 0.9384 0.0
O306 O 0.64568 0.58086 0.83478 0.0
C307 C 0.61676 0.49881 0.87213 0.0
O308 O 0.62539 0.50205 0.91105 0.0
C309 C 0.69878 0.5482 0.86536 0.0
O310 O 0.68326 0.5277 0.889 0.0
O311 O 0.64904 0.55891 0.92797 0.0
C312 C 0.60019 0.92567 0.63891 0.0
O313 O 0.57877 0.91411 0.61533 0.0
O314 O 0.5355 0.90938 0.68551 0.0
Zn315 Zn 0.56212 0.89918 0.70423 0.0
O316 O 0.5493 0.86149 0.68676 0.0
C317 C 0.56157 0.91676 0.78937 0.0
O318 O 0.55483 0.93281 0.77122 0.0
O319 O 0.59782 0.92263 0.67847 0.0
C320 C 0.56136 0.84985 0.70036 0.0
O321 O 0.58211 0.86297 0.72493 0.0
C322 C 0.51142 0.89401 0.69577 0.0
O323 O 0.50537 0.87278 0.71826 0.0
O324 O 0.56565 0.90112 0.7669 0.0
C325 C 0.07133 0.67296 0.6453 0.0
O326 O 0.08382 0.66314 0.62409 0.0
O327 O 0.10299 0.63884 0.68583 0.0
Zn328 Zn 0.10426 0.67157 0.70971 0.0
O329 O 0.13929 0.70451 0.69734 0.0
C330 C 0.12073 0.66805 0.79062 0.0
O331 O 0.1401 0.66961 0.76734 0.0
O332 O 0.07587 0.67725 0.68442 0.0
C333 C 0.14719 0.72414 0.72225 0.0
O334 O 0.13218 0.72252 0.75423 0.0
C335 C 0.12388 0.63849 0.67525 0.0
O336 O 0.14702 0.66039 0.67829 0.0
O337 O 0.10101 0.66764 0.7726 0.0
C338 C 0.3079 0.39349 0.6308 0.0
O339 O 0.315 0.41461 0.60748 0.0
O340 O 0.35027 0.46087 0.68325 0.0
Zn341 Zn 0.31514 0.4293 0.70009 0.0
O342 O 0.2855 0.43663 0.68753 0.0
C343 C 0.33084 0.44162 0.7868 0.0
O344 O 0.34793 0.46489 0.771 0.0
O345 O 0.30745 0.39551 0.67051 0.0
C346 C 0.28264 0.45334 0.70932 0.0
O347 O 0.29975 0.46638 0.7394 0.0
C348 C 0.35318 0.47464 0.6506 0.0
O349 O 0.33292 0.46796 0.62538 0.0
O350 O 0.31505 0.42319 0.76229 0.0
C351 C 0.57463 0.92058 0.18905 0.0
O352 O 0.55814 0.89818 0.20788 0.0
O353 O 0.55436 0.85789 0.13163 0.0
Zn354 Zn 0.55028 0.88917 0.11576 0.0
O355 O 0.51317 0.88178 0.12636 0.0
C356 C 0.56952 0.88809 0.03219 0.0
O357 O 0.57823 0.87354 0.05006 0.0
O358 O 0.57529 0.92136 0.14915 0.0
C359 C 0.49307 0.86269 0.10868 0.0
O360 O 0.49643 0.84654 0.0839 0.0
C361 C 0.53961 0.84052 0.15836 0.0
O362 O 0.52075 0.84283 0.17714 0.0
O363 O 0.55757 0.89703 0.05433 0.0
C364 C 0.06884 0.66018 0.19656 0.0
O365 O 0.08904 0.66189 0.2177 0.0
O366 O 0.13475 0.69096 0.14497 0.0
Zn367 Zn 0.09968 0.66011 0.12635 0.0
O368 O 0.09799 0.62517 0.13777 0.0
C369 C 0.11512 0.67384 0.04045 0.0
O370 O 0.13897 0.68463 0.05709 0.0
O371 O 0.06939 0.65994 0.15667 0.0
C372 C 0.11135 0.61755 0.11621 0.0
O373 O 0.12733 0.63321 0.0868 0.0
C374 C 0.14946 0.68913 0.17275 0.0
O375 O 0.14149 0.66625 0.19155 0.0
O376 O 0.09493 0.66264 0.06426 0.0
C377 C 0.34688 0.43399 0.18486 0.0
O378 O 0.34449 0.45049 0.2102 0.0
O379 O 0.30302 0.45982 0.13985 0.0
Zn380 Zn 0.33874 0.465 0.12334 0.0
O381 O 0.36868 0.49981 0.1437 0.0
C382 C 0.32995 0.44581 0.03724 0.0
O383 O 0.31462 0.4224 0.05421 0.0
O384 O 0.34433 0.4358 0.14556 0.0
C385 C 0.37202 0.52139 0.12817 0.0
O386 O 0.35441 0.52058 0.10142 0.0
C387 C 0.299 0.46836 0.17424 0.0
O388 O 0.31882 0.48119 0.20058 0.0
O389 O 0.34164 0.4661 0.06075 0.0
C390 C 0.07263 0.41619 0.64957 0.0
O391 O 0.09409 0.41991 0.66919 0.0
O392 O 0.13991 0.45042 0.60795 0.0
Zn393 Zn 0.10999 0.45669 0.59151 0.0
O394 O 0.11664 0.49273 0.61025 0.0
C395 C 0.12706 0.47213 0.50739 0.0
O396 O 0.14868 0.48923 0.5274 0.0
O397 O 0.07496 0.42906 0.61604 0.0
C398 C 0.13919 0.51366 0.61408 0.0
O399 O 0.16088 0.51264 0.60676 0.0
C400 C 0.15298 0.45847 0.64202 0.0
O401 O 0.1466 0.47115 0.6696 0.0
O402 O 0.10715 0.45529 0.52846 0.0
C403 C 0.5722 0.65419 0.70475 0.0
O404 O 0.56045 0.66471 0.72619 0.0
O405 O 0.54703 0.69288 0.66261 0.0
Zn406 Zn 0.54004 0.65738 0.64094 0.0
O407 O 0.50397 0.62731 0.65821 0.0
C408 C 0.52242 0.65343 0.55576 0.0
O409 O 0.50018 0.64769 0.57495 0.0
O410 O 0.56708 0.64956 0.66582 0.0
C411 C 0.49527 0.60548 0.63849 0.0
O412 O 0.50979 0.60361 0.60856 0.0
C413 C 0.5321 0.70253 0.65516 0.0
O414 O 0.51023 0.68857 0.63333 0.0
O415 O 0.5428 0.65873 0.57761 0.0
C416 C 0.34171 0.9283 0.67443 0.0
O417 O 0.34188 0.90919 0.69613 0.0
O418 O 0.29373 0.85954 0.62148 0.0
Zn419 Zn 0.33041 0.89024 0.61048 0.0
O420 O 0.35775 0.88272 0.63539 0.0
C421 C 0.34152 0.8774 0.53025 0.0
O422 O 0.34425 0.86023 0.55345 0.0
O423 O 0.33616 0.92468 0.63548 0.0
C424 C 0.38206 0.89995 0.63004 0.0
O425 O 0.38812 0.92165 0.60884 0.0
C426 C 0.28669 0.84774 0.65668 0.0
O427 O 0.30357 0.85611 0.68813 0.0
O428 O 0.3356 0.89335 0.54792 0.0
C429 C 0.07132 0.39661 0.11046 0.0
O430 O 0.08896 0.41651 0.08775 0.0
O431 O 0.09641 0.46542 0.15501 0.0
Zn432 Zn 0.09806 0.43378 0.17685 0.0
O433 O 0.13453 0.4387 0.16522 0.0
C434 C 0.10541 0.45349 0.25967 0.0
O435 O 0.12205 0.47518 0.23927 0.0
O436 O 0.07074 0.3997 0.14989 0.0
C437 C 0.1494 0.43764 0.19356 0.0
O438 O 0.14095 0.43262 0.23255 0.0
C439 C 0.11259 0.48105 0.12763 0.0
O440 O 0.12974 0.47542 0.11056 0.0
O441 O 0.09188 0.43208 0.23914 0.0
C442 C 0.59924 0.68142 0.15677 0.0
O443 O 0.57692 0.67294 0.13591 0.0
O444 O 0.53398 0.6434 0.20427 0.0
Zn445 Zn 0.56563 0.67723 0.22547 0.0
O446 O 0.56037 0.70846 0.21445 0.0
C447 C 0.54783 0.65899 0.30884 0.0
O448 O 0.52538 0.64478 0.28849 0.0
O449 O 0.5992 0.68415 0.19639 0.0
C450 C 0.54305 0.71143 0.23426 0.0
O451 O 0.52814 0.69369 0.26239 0.0
C452 C 0.51591 0.64324 0.18155 0.0
O453 O 0.5187 0.66586 0.1682 0.0
O454 O 0.56873 0.67427 0.28822 0.0
C455 C 0.32219 0.91387 0.12545 0.0
O456 O 0.33048 0.89983 0.10476 0.0
O457 O 0.35934 0.88661 0.17646 0.0
Zn458 Zn 0.32472 0.88366 0.19418 0.0
O459 O 0.29316 0.84814 0.17912 0.0
C460 C 0.33846 0.88218 0.28009 0.0
O461 O 0.3511 0.8711 0.263 0.0
O462 O 0.31931 0.91111 0.16502 0.0
C463 C 0.28428 0.82734 0.20157 0.0
O464 O 0.29669 0.82805 0.23646 0.0
C465 C 0.36131 0.86809 0.15874 0.0
O466 O 0.33965 0.84573 0.14936 0.0
O467 O 0.32553 0.88939 0.2566 0.0
H468 H 0.3974 0.30513 0.9226 0.0
H469 H 0.3696 0.30736 0.79766 0.0
H470 H 0.3249 0.2914 0.82478 0.0
H471 H 0.29296 0.27306 0.88281 0.0
H472 H 0.32058 0.26941 0.00725 0.0
H473 H 0.36611 0.28995 0.98148 0.0
C474 C 0.38165 0.3024 0.90133 0.0
C475 C 0.38681 0.30715 0.85811 0.0
C476 C 0.35589 0.29284 0.917 0.0
C477 C 0.36616 0.30365 0.83105 0.0
C478 C 0.34056 0.29449 0.84651 0.0
C479 C 0.30897 0.27708 0.90443 0.0
C480 C 0.30331 0.26944 0.94678 0.0
C481 C 0.33508 0.28845 0.88927 0.0
C482 C 0.32434 0.27486 0.97438 0.0
C483 C 0.3504 0.28658 0.95968 0.0
H484 H 0.70155 0.05875 0.81971 0.0
H485 H 0.68997 0.0911 0.93465 0.0
H486 H 0.70698 0.06723 0.97531 0.0
H487 H 0.72866 0.04035 0.97768 0.0
H488 H 0.74116 0.00885 0.86253 0.0
H489 H 0.72 0.02904 0.8226 0.0
C490 C 0.70249 0.0604 0.85369 0.0
C491 C 0.69479 0.07695 0.87403 0.0
C492 C 0.71259 0.04688 0.87685 0.0
C493 C 0.69592 0.07864 0.91812 0.0
C494 C 0.70571 0.06504 0.94143 0.0
C495 C 0.72652 0.03765 0.9439 0.0
C496 C 0.73678 0.02337 0.9231 0.0
C497 C 0.71465 0.04959 0.92103 0.0
C498 C 0.73363 0.0199 0.87934 0.0
C499 C 0.72158 0.03149 0.85643 0.0
H500 H 0.98328 0.70322 0.91965 0.0
H501 H 0.96181 0.67102 0.04501 0.0
H502 H 0.93868 0.62608 0.01653 0.0
H503 H 0.92158 0.59609 0.95594 0.0
H504 H 0.94252 0.62825 0.8305 0.0
H505 H 0.96896 0.67292 0.85922 0.0
C506 C 0.97377 0.68638 0.94079 0.0
C507 C 0.97405 0.69055 0.98435 0.0
C508 C 0.96025 0.66053 0.92421 0.0
C509 C 0.96177 0.66845 0.01129 0.0
C510 C 0.94847 0.64269 0.99505 0.0
C511 C 0.93212 0.61282 0.93486 0.0
C512 C 0.9298 0.60881 0.89114 0.0
C513 C 0.94711 0.63853 0.95153 0.0
C514 C 0.94378 0.63074 0.86431 0.0
C515 C 0.9589 0.65634 0.88068 0.0
H516 H 0.30381 0.38209 0.54737 0.0
H517 H 0.28847 0.34541 0.66986 0.0
H518 H 0.2668 0.30151 0.63736 0.0
H519 H 0.24912 0.27352 0.57451 0.0
H520 H 0.2638 0.31033 0.45217 0.0
H521 H 0.28894 0.35414 0.48436 0.0
C522 C 0.29597 0.36452 0.56699 0.0
C523 C 0.29753 0.36708 0.611 0.0
C524 C 0.28324 0.33931 0.54815 0.0
C525 C 0.28741 0.34406 0.63589 0.0
C526 C 0.27494 0.31891 0.61735 0.0
C527 C 0.25802 0.29109 0.55483 0.0
C528 C 0.2543 0.28861 0.51103 0.0
C529 C 0.27225 0.31629 0.57355 0.0
C530 C 0.26614 0.31163 0.48601 0.0
C531 C 0.28052 0.33673 0.50437 0.0
H532 H 0.61226 0.93277 0.55567 0.0
H533 H 0.64822 0.94997 0.67889 0.0
H534 H 0.69219 0.96896 0.64726 0.0
H535 H 0.72011 0.97749 0.58495 0.0
H536 H 0.68404 0.95943 0.46179 0.0
H537 H 0.64051 0.94421 0.49315 0.0
C538 C 0.62971 0.9409 0.57563 0.0
C539 C 0.62689 0.93968 0.61957 0.0
C540 C 0.65495 0.95153 0.55728 0.0
C541 C 0.64977 0.95047 0.64495 0.0
C542 C 0.67496 0.96132 0.6269 0.0
C543 C 0.70278 0.97048 0.56491 0.0
C544 C 0.70533 0.96935 0.52113 0.0
C545 C 0.67773 0.96144 0.58314 0.0
C546 C 0.68266 0.96034 0.49563 0.0
C547 C 0.65772 0.95158 0.51352 0.0
H548 H 0.01881 0.71704 0.52044 0.0
H549 H 0.01243 0.75353 0.63467 0.0
H550 H 0.02967 0.72977 0.67513 0.0
H551 H 0.04987 0.70148 0.67723 0.0
H552 H 0.05713 0.66589 0.56259 0.0
H553 H 0.03592 0.68624 0.52329 0.0
C554 C 0.02098 0.71966 0.55424 0.0
C555 C 0.01461 0.73728 0.5744 0.0
C556 C 0.03113 0.70615 0.57726 0.0
C557 C 0.01733 0.74022 0.61827 0.0
C558 C 0.02723 0.72666 0.64146 0.0
C559 C 0.0465 0.69787 0.64375 0.0
C560 C 0.05532 0.68239 0.62284 0.0
C561 C 0.03467 0.70998 0.62117 0.0
C562 C 0.05073 0.67788 0.57945 0.0
C563 C 0.03865 0.68956 0.55689 0.0
H564 H 0.64912 0.70393 0.18967 0.0
H565 H 0.60607 0.67857 0.07246 0.0
H566 H 0.64782 0.69654 0.03396 0.0
H567 H 0.69648 0.72203 0.03312 0.0
H568 H 0.73962 0.74829 0.15013 0.0
H569 H 0.69787 0.7272 0.18909 0.0
C570 C 0.64883 0.70211 0.15574 0.0
C571 C 0.62447 0.6901 0.13401 0.0
C572 C 0.67294 0.71276 0.13369 0.0
C573 C 0.62451 0.68784 0.09002 0.0
C574 C 0.64839 0.69815 0.06793 0.0
C575 C 0.6968 0.72298 0.06717 0.0
C576 C 0.72117 0.73693 0.08861 0.0
C577 C 0.67272 0.71106 0.08937 0.0
C578 C 0.72116 0.73782 0.13276 0.0
C579 C 0.69728 0.72579 0.1551 0.0
H580 H 0.29943 0.94087 0.15837 0.0
H581 H 0.32331 0.92207 0.0408 0.0
H582 H 0.30217 0.94279 0.00225 0.0
H583 H 0.27339 0.96234 0.00179 0.0
H584 H 0.24844 0.98003 0.11928 0.0
H585 H 0.27374 0.96382 0.15795 0.0
C586 C 0.30032 0.94158 0.12432 0.0
C587 C 0.31266 0.92963 0.10251 0.0
C588 C 0.28775 0.95314 0.10231 0.0
C589 C 0.31377 0.93092 0.0584 0.0
C590 C 0.30162 0.94271 0.03629 0.0
C591 C 0.27367 0.96291 0.03586 0.0
C592 C 0.25874 0.97207 0.05759 0.0
C593 C 0.28797 0.95325 0.0579 0.0
C594 C 0.25958 0.97291 0.10173 0.0
C595 C 0.27401 0.96359 0.1239 0.0
H596 H 0.07085 0.38257 0.02887 0.0
H597 H 0.03478 0.3508 0.14934 0.0
H598 H 0.01187 0.30603 0.11997 0.0
H599 H 0.00541 0.27555 0.06192 0.0
H600 H 0.04241 0.30736 0.94198 0.0
H601 H 0.0614 0.35242 0.96931 0.0
C602 C 0.05774 0.36591 0.04863 0.0
C603 C 0.05482 0.37004 0.09137 0.0
C604 C 0.04492 0.34016 0.03172 0.0
C605 C 0.03758 0.34821 0.1164 0.0
C606 C 0.0245 0.32255 0.09966 0.0
C607 C 0.01737 0.29232 0.04159 0.0
C608 C 0.02272 0.28802 0.00012 0.0
C609 C 0.02855 0.31823 0.05764 0.0
C610 C 0.03813 0.31004 0.97415 0.0
C611 C 0.04906 0.33586 0.98975 0.0
H612 H 0.68557 0.61096 0.4465 0.0
H613 H 0.69558 0.65184 0.32878 0.0
H614 H 0.71333 0.69402 0.36599 0.0
H615 H 0.72908 0.71969 0.43119 0.0
H616 H 0.71987 0.67905 0.54889 0.0
H617 H 0.6985 0.63638 0.51239 0.0
C618 C 0.6914 0.62905 0.42897 0.0
C619 C 0.68947 0.62823 0.38486 0.0
C620 C 0.70185 0.65332 0.45053 0.0
C621 C 0.69698 0.65187 0.36272 0.0
C622 C 0.70718 0.67604 0.38397 0.0
C623 C 0.72219 0.70151 0.44898 0.0
C624 C 0.72633 0.70263 0.49267 0.0
C625 C 0.71019 0.67706 0.42777 0.0
C626 C 0.71708 0.67881 0.51521 0.0
C627 C 0.7049 0.65438 0.49434 0.0
H628 H 0.26797 0.03093 0.39484 0.0
H629 H 0.29713 0.03245 0.52021 0.0
H630 H 0.34227 0.05144 0.49319 0.0
H631 H 0.37386 0.07029 0.43474 0.0
H632 H 0.34471 0.06931 0.30955 0.0
H633 H 0.29922 0.0473 0.33579 0.0
C634 C 0.28414 0.03519 0.41624 0.0
C635 C 0.27915 0.03047 0.45953 0.0
C636 C 0.31012 0.04635 0.40058 0.0
C637 C 0.30038 0.036 0.48675 0.0
C638 C 0.32624 0.04692 0.47136 0.0
C639 C 0.35756 0.06509 0.41312 0.0
C640 C 0.36276 0.07167 0.37031 0.0
C641 C 0.33141 0.05261 0.42844 0.0
C642 C 0.34134 0.06462 0.34271 0.0
C643 C 0.31528 0.05206 0.35768 0.0
H644 H 0.91668 0.31621 0.42915 0.0
H645 H 0.9387 0.31141 0.30128 0.0
H646 H 0.96212 0.2888 0.3251 0.0
H647 H 0.97314 0.26711 0.38147 0.0
H648 H 0.95035 0.27131 0.50912 0.0
H649 H 0.93065 0.29757 0.48608 0.0
C650 C 0.92684 0.31049 0.4065 0.0
C651 C 0.92567 0.31526 0.36347 0.0
C652 C 0.94 0.2972 0.42032 0.0
C653 C 0.93912 0.30786 0.3346 0.0
C654 C 0.95248 0.29485 0.34816 0.0
C655 C 0.96411 0.27398 0.40433 0.0
C656 C 0.96298 0.26696 0.44687 0.0
C657 C 0.95254 0.28889 0.39084 0.0
C658 C 0.95134 0.27622 0.4761 0.0
C659 C 0.94001 0.29123 0.46297 0.0
H660 H 0.05874 0.65284 0.28033 0.0
H661 H 0.0236 0.65541 0.16214 0.0
H662 H 0.98104 0.64039 0.19685 0.0
H663 H 0.95277 0.62201 0.25902 0.0
H664 H 0.9876 0.61806 0.37674 0.0
H665 H 0.03134 0.63842 0.34396 0.0
C666 C 0.04188 0.65047 0.26223 0.0
C667 C 0.04428 0.65486 0.2186 0.0
C668 C 0.01733 0.64137 0.28222 0.0
C669 C 0.02226 0.65189 0.1957 0.0
C670 C 0.99787 0.64325 0.2155 0.0
C671 C 0.96996 0.6259 0.27768 0.0
C672 C 0.96683 0.61816 0.32011 0.0
C673 C 0.995 0.6372 0.25849 0.0
C674 C 0.98938 0.62359 0.3439 0.0
C675 C 0.01443 0.63518 0.32516 0.0
H676 H 0.39607 0.36165 0.22635 0.0
H677 H 0.39177 0.38705 0.35219 0.0
H678 H 0.36939 0.41007 0.32574 0.0
H679 H 0.35414 0.4258 0.26653 0.0
H680 H 0.35898 0.40115 0.14044 0.0
H681 H 0.3778 0.37481 0.16749 0.0
C682 C 0.39003 0.37201 0.24805 0.0
C683 C 0.39588 0.37285 0.29112 0.0
C684 C 0.37736 0.38545 0.2326 0.0
C685 C 0.38772 0.38623 0.31883 0.0
C686 C 0.37493 0.39944 0.30374 0.0
C687 C 0.35908 0.41449 0.24494 0.0
C688 C 0.35542 0.41569 0.2015 0.0
C689 C 0.37015 0.39963 0.26062 0.0
C690 C 0.36172 0.4007 0.17404 0.0
C691 C 0.37255 0.38568 0.18946 0.0
H692 H 0.60849 0.97018 0.1595 0.0
H693 H 0.57565 0.92625 0.27431 0.0
H694 H 0.5978 0.96741 0.3147 0.0
H695 H 0.62375 0.01602 0.31687 0.0
H696 H 0.65589 0.06006 0.20194 0.0
H697 H 0.63688 0.01861 0.16225 0.0
C698 C 0.60635 0.96955 0.1934 0.0
C699 C 0.59021 0.94518 0.21377 0.0
C700 C 0.6189 0.99332 0.21642 0.0
C701 C 0.58782 0.94474 0.25776 0.0
C702 C 0.60044 0.96828 0.28091 0.0
C703 C 0.6268 0.01659 0.28318 0.0
C704 C 0.641 0.04113 0.26238 0.0
C705 C 0.6156 0.99271 0.26047 0.0
C706 C 0.64491 0.04145 0.21875 0.0
C707 C 0.63401 0.01776 0.19598 0.0
H708 H 0.35367 0.94088 0.75635 0.0
H709 H 0.35093 0.97469 0.63703 0.0
H710 H 0.37142 0.01887 0.66898 0.0
H711 H 0.39352 0.04825 0.7296 0.0
H712 H 0.39706 0.01379 0.84793 0.0
H713 H 0.37276 0.9695 0.81747 0.0
C714 C 0.35731 0.95784 0.73731 0.0
C715 C 0.35102 0.95451 0.69427 0.0
C716 C 0.36943 0.98313 0.75565 0.0
C717 C 0.35567 0.97671 0.67022 0.0
C718 C 0.36747 0.00199 0.68844 0.0
C719 C 0.38872 0.03104 0.74883 0.0
C720 C 0.39737 0.0344 0.79087 0.0
C721 C 0.37498 0.00551 0.73094 0.0
C722 C 0.39091 0.01184 0.81538 0.0
C723 C 0.37699 0.98647 0.79801 0.0
H724 H 0.06113 0.39176 0.72586 0.0
H725 H 0.0244 0.40327 0.61605 0.0
H726 H 0.98112 0.38006 0.65028 0.0
H727 H 0.95439 0.35998 0.71334 0.0
H728 H 0.99122 0.34969 0.82408 0.0
H729 H 0.03368 0.36869 0.7873 0.0
C730 C 0.04363 0.38894 0.7092 0.0
C731 C 0.04609 0.39951 0.6686 0.0
C732 C 0.01881 0.37591 0.72931 0.0
C733 C 0.02315 0.39555 0.64745 0.0
C734 C 0.99836 0.38229 0.66701 0.0
C735 C 0.97161 0.36159 0.72934 0.0
C736 C 0.96965 0.35367 0.77155 0.0
C737 C 0.99606 0.37293 0.70826 0.0
C738 C 0.99218 0.3558 0.79168 0.0
C739 C 0.0165 0.36672 0.77069 0.0
H740 H 0.63043 0.61437 0.82606 0.0
H741 H 0.64002 0.58181 0.70982 0.0
H742 H 0.61976 0.60337 0.67111 0.0
H743 H 0.59619 0.62852 0.67104 0.0
H744 H 0.58593 0.6603 0.78765 0.0
H745 H 0.60978 0.64213 0.8253 0.0
C746 C 0.62832 0.61217 0.79221 0.0
C747 C 0.63648 0.59626 0.77096 0.0
C748 C 0.6164 0.62436 0.77019 0.0
C749 C 0.63378 0.59381 0.72703 0.0
C750 C 0.62214 0.60609 0.70484 0.0
C751 C 0.59938 0.6317 0.70462 0.0
C752 C 0.58903 0.64551 0.72653 0.0
C753 C 0.61288 0.62095 0.72622 0.0
C754 C 0.5935 0.64958 0.77001 0.0
C755 C 0.60712 0.63916 0.79163 0.0
H756 H 0.22317 0.0599 0.96597 0.0
H757 H 0.16531 0.0218 0.06463 0.0
H758 H 0.16553 0.06325 0.07822 0.0
H759 H 0.18248 0.11043 0.0625 0.0
H760 H 0.24023 0.14822 0.96353 0.0
H761 H 0.23957 0.10668 0.94962 0.0
C762 C 0.21063 0.06063 0.99053 0.0
C763 C 0.19433 0.03778 0.01434 0.0
C764 C 0.21076 0.08446 -0.00193 0.0
C765 C 0.17809 0.03909 0.04585 0.0
C766 C 0.17818 0.06279 0.05364 0.0
C767 C 0.19486 0.10958 0.03779 0.0
C768 C 0.2114 0.13246 0.01418 0.0
C769 C 0.19447 0.08561 0.02997 0.0
C770 C 0.22731 0.13095 0.98226 0.0
C771 C 0.22699 0.1072 0.97428 0.0
H772 H 0.93719 0.15137 0.9409 0.0
H773 H 0.9717 0.15268 0.06163 0.0
H774 H 0.9308 0.11267 0.08258 0.0
H775 H 0.8851 0.07762 0.06677 0.0
H776 H 0.85113 0.07619 0.94539 0.0
H777 H 0.89211 0.11587 0.92449 0.0
C778 C 0.93577 0.14298 0.97187 0.0
C779 C 0.95742 0.15509 -0.00025 0.0
C780 C 0.91235 0.11988 0.98353 0.0
C781 C 0.95532 0.14378 0.03958 0.0
C782 C 0.93194 0.12089 0.05158 0.0
C783 C 0.88668 0.08591 0.03567 0.0
C784 C 0.86502 0.07394 0.00776 0.0
C785 C 0.91032 0.10879 0.02381 0.0
C786 C 0.86747 0.08494 0.96754 0.0
C787 C 0.89088 0.1077 0.95556 0.0
H788 H 0.87623 0.8174 0.06864 0.0
H789 H 0.83366 0.74317 0.00131 0.0
H790 H 0.87115 0.73578 0.00987 0.0
H791 H 0.91618 0.75057 0.03568 0.0
H792 H 0.95865 0.82458 0.10354 0.0
H793 H 0.92103 0.83186 0.09542 0.0
C794 C 0.87509 0.79956 0.05593 0.0
C795 C 0.85214 0.7809 0.03432 0.0
C796 C 0.89674 0.79542 0.06091 0.0
C797 C 0.85104 0.75788 0.01812 0.0
C798 C 0.87251 0.75364 0.02292 0.0
C799 C 0.91725 0.76832 0.04866 0.0
C800 C 0.94025 0.78703 0.07009 0.0
C801 C 0.89549 0.77233 0.04409 0.0
C802 C 0.94121 0.80985 0.08689 0.0
C803 C 0.91969 0.81403 0.08227 0.0
H804 H 0.1351 0.23504 0.45621 0.0
H805 H 0.10046 0.15709 0.40023 0.0
H806 H 0.05599 0.15038 0.41178 0.0
H807 H 0.02694 0.16636 0.43882 0.0
H808 H 0.06178 0.24466 0.49371 0.0
H809 H 0.10616 0.25154 0.4812 0.0
C810 C 0.11783 0.21655 0.4466 0.0
C811 C 0.1211 0.19654 0.4276 0.0
C812 C 0.09234 0.21291 0.45297 0.0
C813 C 0.09851 0.17282 0.41496 0.0
C814 C 0.07307 0.16895 0.42154 0.0
C815 C 0.04423 0.18499 0.44787 0.0
C816 C 0.04099 0.20491 0.46728 0.0
C817 C 0.06974 0.18884 0.44062 0.0
C818 C 0.06365 0.22897 0.47867 0.0
C819 C 0.08907 0.23291 0.47166 0.0
H820 H 0.8113 0.84788 0.46964 0.0
H821 H 0.74672 0.82378 0.55758 0.0
H822 H 0.74235 0.86192 0.53758 0.0
H823 H 0.75709 0.90228 0.49566 0.0
H824 H 0.82171 0.9264 0.40779 0.0
H825 H 0.82584 0.88807 0.42739 0.0
C826 C 0.79621 0.8509 0.48439 0.0
C827 C 0.77938 0.83298 0.51508 0.0
C828 C 0.79386 0.87292 0.47286 0.0
C829 C 0.75996 0.83725 0.53387 0.0
C830 C 0.75745 0.85908 0.52249 0.0
C831 C 0.7721 0.89919 0.48078 0.0
C832 C 0.78908 0.91722 0.45033 0.0
C833 C 0.77435 0.87708 0.49213 0.0
C834 C 0.80838 0.91286 0.43135 0.0
C835 C 0.81076 0.89092 0.44251 0.0
H836 H 0.07559 0.84972 0.50591 0.0
H837 H 0.04121 0.87692 0.41177 0.0
H838 H 0.07976 0.9216 0.41602 0.0
H839 H 0.12303 0.95309 0.44701 0.0
H840 H 0.15731 0.92566 0.541 0.0
H841 H 0.11906 0.88094 0.53599 0.0
C842 C 0.07648 0.86541 0.48633 0.0
C843 C 0.05547 0.85996 0.45867 0.0
C844 C 0.09874 0.89104 0.48879 0.0
C845 C 0.05707 0.88054 0.43339 0.0
C846 C 0.07913 0.90612 0.43577 0.0
C847 C 0.1222 0.93732 0.46629 0.0
C848 C 0.14304 0.94279 0.49437 0.0
C849 C 0.10007 0.9116 0.4634 0.0
C850 C 0.14159 0.92207 0.51911 0.0
C851 C 0.11968 0.89646 0.51634 0.0
H852 H 0.81785 0.94207 0.04243 0.0
H853 H 0.75141 0.9299 0.96569 0.0
H854 H 0.74083 0.88447 0.95097 0.0
H855 H 0.75003 0.84804 0.96045 0.0
H856 H 0.81645 0.86007 0.03711 0.0
H857 H 0.8274 0.90572 0.05121 0.0
C858 C 0.80108 0.92952 0.02241 0.0
C859 C 0.78545 0.93942 0.00526 0.0
C860 C 0.79506 0.90336 0.01408 0.0
C861 C 0.7638 0.92284 0.97935 0.0
C862 C 0.7577 0.89682 0.97091 0.0
C863 C 0.76692 0.86062 0.98023 0.0
C864 C 0.78234 0.85059 -0.00225 0.0
C865 C 0.77313 0.88685 0.98822 0.0
C866 C 0.8042 0.86724 0.02323 0.0
C867 C 0.81049 0.89337 0.03134 0.0
H868 H 0.14552 0.8992 -0.00213 0.0
H869 H 0.10513 0.93062 0.92429 0.0
H870 H 0.06284 0.88981 0.93559 0.0
H871 H 0.0372 0.84561 0.96768 0.0
H872 H 0.07786 0.8144 0.04121 0.0
H873 H 0.12018 0.85467 0.02823 0.0
C874 C 0.12748 0.89717 0.98429 0.0
C875 C 0.1285 0.91801 0.96044 0.0
C876 C 0.10327 0.87364 0.99077 0.0
C877 C 0.10493 0.91492 0.94285 0.0
C878 C 0.08073 0.89158 0.94927 0.0
C879 C 0.05533 0.84752 0.98064 0.0
C880 C 0.05429 0.827 0.00547 0.0
C881 C 0.07965 0.87084 0.97331 0.0
C882 C 0.07802 0.82986 0.02202 0.0
C883 C 0.10226 0.85293 0.01471 0.0
H884 H 0.16033 0.21669 0.00486 0.0
H885 H 0.17864 0.21198 0.8749 0.0
H886 H 0.14096 0.21683 0.85275 0.0
H887 H 0.10277 0.22227 0.87056 0.0
H888 H 0.08308 0.22414 0.00077 0.0
H889 H 0.1214 0.22051 0.02267 0.0
C890 C 0.15614 0.21683 0.97167 0.0
C891 C 0.17232 0.21418 0.94151 0.0
C892 C 0.13421 0.21907 0.95928 0.0
C893 C 0.16643 0.21398 0.89867 0.0
C894 C 0.14494 0.21679 0.88602 0.0
C895 C 0.10694 0.22196 0.90372 0.0
C896 C 0.09025 0.22363 0.93403 0.0
C897 C 0.1287 0.21935 0.91607 0.0
C898 C 0.09564 0.22284 0.97687 0.0
C899 C 0.11756 0.22082 0.9894 0.0
H900 H 0.9509 0.82383 0.56027 0.0
H901 H 0.9149 0.75083 0.4889 0.0
H902 H 0.87098 0.74473 0.50242 0.0
H903 H 0.84271 0.7599 0.5344 0.0
H904 H 0.87824 0.83255 0.6065 0.0
H905 H 0.9224 0.83899 0.59263 0.0
C906 C 0.93345 0.80657 0.54771 0.0
C907 C 0.93625 0.78784 0.52363 0.0
C908 C 0.90815 0.80312 0.55563 0.0
C909 C 0.91339 0.76558 0.5076 0.0
C910 C 0.88822 0.76206 0.51525 0.0
C911 C 0.86009 0.7772 0.54702 0.0
C912 C 0.85715 0.79571 0.57142 0.0
C913 C 0.88537 0.7807 0.53917 0.0
C914 C 0.87992 0.81796 0.58763 0.0
C915 C 0.90519 0.82167 0.57973 0.0
H916 H 0.16086 0.13492 0.51885 0.0
H917 H 0.23159 0.16799 0.44226 0.0
H918 H 0.23539 0.12863 0.45445 0.0
H919 H 0.21886 0.08499 0.48701 0.0
H920 H 0.1484 0.05197 0.56415 0.0
H921 H 0.14418 0.09108 0.55121 0.0
C922 C 0.17716 0.13358 0.50492 0.0
C923 C 0.19592 0.15443 0.47976 0.0
C924 C 0.17921 0.11083 0.51192 0.0
C925 C 0.21686 0.15227 0.46183 0.0
C926 C 0.21904 0.12974 0.46869 0.0
C927 C 0.20247 0.08624 0.50081 0.0
C928 C 0.18396 0.06556 0.52648 0.0
C929 C 0.20031 0.10889 0.49361 0.0
C930 C 0.16294 0.0676 0.54426 0.0
C931 C 0.16053 0.08999 0.53696 0.0
H932 H 0.91584 0.1079 0.56058 0.0
H933 H 0.90613 0.14699 0.45236 0.0
H934 H 0.86663 0.10565 0.43145 0.0
H935 H 0.83453 0.0585 0.44439 0.0
H936 H 0.84463 0.01964 0.55263 0.0
H937 H 0.88428 0.06083 0.57295 0.0
C938 C 0.90514 0.10741 0.53236 0.0
C939 C 0.91393 0.13055 0.50816 0.0
C940 C 0.88246 0.08361 0.52054 0.0
C941 C 0.89982 0.12949 0.47162 0.0
C942 C 0.8772 0.10585 0.45965 0.0
C943 C 0.84539 0.05903 0.47244 0.0
C944 C 0.83654 0.03599 0.49698 0.0
C945 C 0.86827 0.08282 0.48396 0.0
C946 C 0.85094 0.03704 0.53314 0.0
C947 C 0.87365 0.06061 0.54483 0.0
H948 H 0.86931 0.48577 0.33653 0.0
H949 H 0.94106 0.50211 0.40179 0.0
H950 H 0.93493 0.45925 0.37973 0.0
H951 H 0.90917 0.41702 0.34232 0.0
H952 H 0.83737 0.40051 0.27709 0.0
H953 H 0.84363 0.44353 0.29872 0.0
C954 C 0.88362 0.47997 0.34592 0.0
C955 C 0.90559 0.49716 0.37082 0.0
C956 C 0.87999 0.45525 0.33314 0.0
C957 C 0.92394 0.4893 0.38266 0.0
C958 C 0.92047 0.46477 0.37006 0.0
C959 C 0.89489 0.42282 0.33277 0.0
C960 C 0.87284 0.40553 0.30813 0.0
C961 C 0.89856 0.44758 0.34535 0.0
C962 C 0.85454 0.4134 0.29607 0.0
C963 C 0.85808 0.43802 0.30843 0.0
H964 H 0.61912 0.48055 0.38117 0.0
H965 H 0.58889 0.5096 0.2832 0.0
H966 H 0.54498 0.47013 0.29021 0.0
H967 H 0.51512 0.42744 0.3245 0.0
H968 H 0.54567 0.39894 0.42286 0.0
H969 H 0.58953 0.43809 0.41508 0.0
C970 C 0.60295 0.47831 0.36134 0.0
C971 C 0.60731 0.49804 0.33176 0.0
C972 C 0.57781 0.4556 0.36548 0.0
C973 C 0.58609 0.49475 0.30632 0.0
C974 C 0.56097 0.47216 0.31024 0.0
C975 C 0.5314 0.42973 0.34409 0.0
C976 C 0.52708 0.41026 0.3742 0.0
C977 C 0.55661 0.45244 0.33971 0.0
C978 C 0.54839 0.41361 0.39946 0.0
C979 C 0.57351 0.43602 0.39509 0.0
H980 H 0.53338 0.14395 0.27996 0.0
H981 H 0.4739 0.079 0.35353 0.0
H982 H 0.5064 0.06607 0.37336 0.0
H983 H 0.55162 0.07314 0.36978 0.0
H984 H 0.61112 0.1382 0.29639 0.0
H985 H 0.57861 0.15109 0.27652 0.0
C986 C 0.52749 0.12697 0.30036 0.0
C987 C 0.50123 0.11249 0.31522 0.0
C988 C 0.54627 0.11963 0.31165 0.0
C989 C 0.49398 0.09053 0.34164 0.0
C990 C 0.51255 0.0831 0.35299 0.0
C991 C 0.5575 0.09013 0.34939 0.0
C992 C 0.58378 0.10466 0.33459 0.0
C993 C 0.53873 0.09749 0.33815 0.0
C994 C 0.59104 0.12665 0.30826 0.0
C995 C 0.57246 0.13406 0.29687 0.0
H996 H 0.81462 0.58551 0.79976 0.0
H997 H 0.80032 0.51491 0.86646 0.0
H998 H 0.75649 0.5067 0.88742 0.0
H999 H 0.722 0.51917 0.88607 0.0
H1000 H 0.73611 0.58954 0.81883 0.0
H1001 H 0.78025 0.59819 0.79892 0.0
C1002 C 0.80195 0.56835 0.81895 0.0
C1003 C 0.81075 0.55085 0.83144 0.0
C1004 C 0.77672 0.56367 0.83078 0.0
C1005 C 0.79405 0.5287 0.8563 0.0
C1006 C 0.76896 0.52397 0.86833 0.0
C1007 C 0.73473 0.53644 0.86713 0.0
C1008 C 0.72571 0.55364 0.85395 0.0
C1009 C 0.76006 0.54127 0.85563 0.0
C1010 C 0.7425 0.57592 0.82939 0.0
C1011 C 0.76777 0.58091 0.81796 0.0
H1012 H 0.45013 0.16357 0.75281 0.0
H1013 H 0.45315 0.1731 0.88746 0.0
H1014 H 0.45 0.21325 0.87997 0.0
H1015 H 0.44654 0.24581 0.83501 0.0
H1016 H 0.44009 0.23434 0.70071 0.0
H1017 H 0.44443 0.19486 0.70809 0.0
C1018 C 0.45012 0.17449 0.78044 0.0
C1019 C 0.452 0.16553 0.82056 0.0
C1020 C 0.4477 0.1972 0.77595 0.0
C1021 C 0.45163 0.17961 0.85621 0.0
C1022 C 0.44991 0.20259 0.85197 0.0
C1023 C 0.44615 0.23465 0.80743 0.0
C1024 C 0.44316 0.24297 0.7674 0.0
C1025 C 0.44798 0.21161 0.81199 0.0
C1026 C 0.4423 0.22821 0.73189 0.0
C1027 C 0.44484 0.20569 0.73606 0.0
H1028 H 0.76086 0.18724 0.82133 0.0
H1029 H 0.73477 0.22573 0.7329 0.0
H1030 H 0.7762 0.26765 0.74305 0.0
H1031 H 0.82011 0.29318 0.77621 0.0
H1032 H 0.84632 0.25424 0.86364 0.0
H1033 H 0.80458 0.21266 0.85444 0.0
C1034 C 0.76413 0.20482 0.80443 0.0
C1035 C 0.7447 0.20334 0.77644 0.0
C1036 C 0.7881 0.22875 0.81 0.0
C1037 C 0.74938 0.2263 0.75463 0.0
C1038 C 0.77309 0.25028 0.76036 0.0
C1039 C 0.81673 0.2756 0.79322 0.0
C1040 C 0.83638 0.27686 0.8205 0.0
C1041 C 0.79266 0.25169 0.78777 0.0
C1042 C 0.83162 0.25386 0.84231 0.0
C1043 C 0.80771 0.23006 0.83717 0.0
H1044 H 0.40353 0.19158 0.28339 0.0
H1045 H 0.47645 0.20325 0.33859 0.0
H1046 H 0.49099 0.25001 0.3509 0.0
H1047 H 0.48269 0.28738 0.34705 0.0
H1048 H 0.40904 0.27529 0.29442 0.0
H1049 H 0.39521 0.2289 0.2796 0.0
C1050 C 0.42261 0.20434 0.29811 0.0
C1051 C 0.43886 0.19391 0.31007 0.0
C1052 C 0.43078 0.23115 0.30532 0.0
C1053 C 0.4635 0.21072 0.32922 0.0
C1054 C 0.47188 0.23749 0.33615 0.0
C1055 C 0.46374 0.27467 0.3319 0.0
C1056 C 0.44697 0.28477 0.32163 0.0
C1057 C 0.45568 0.24791 0.32435 0.0
C1058 C 0.42231 0.26797 0.30259 0.0
C1059 C 0.41437 0.24145 0.2942 0.0
H1060 H 0.81458 0.2311 0.28905 0.0
H1061 H 0.79863 0.28753 0.35156 0.0
H1062 H 0.75508 0.25156 0.37325 0.0
H1063 H 0.72112 0.20425 0.37298 0.0
H1064 H 0.73703 0.14801 0.30965 0.0
H1065 H 0.78105 0.18381 0.28987 0.0
C1066 C 0.80164 0.23557 0.30753 0.0
C1067 C 0.80986 0.262 0.31854 0.0
C1068 C 0.77659 0.21483 0.31969 0.0
C1069 C 0.7928 0.26738 0.34255 0.0
C1070 C 0.76788 0.24681 0.35497 0.0
C1071 C 0.73423 0.19979 0.35496 0.0
C1072 C 0.72572 0.17347 0.34274 0.0
C1073 C 0.7595 0.22049 0.34348 0.0
C1074 C 0.74301 0.16808 0.31941 0.0
C1075 C 0.76821 0.18855 0.30806 0.0
H1076 H 0.79502 0.52938 0.38246 0.0
H1077 H 0.85882 0.60481 0.33885 0.0
H1078 H 0.82668 0.6169 0.31365 0.0
H1079 H 0.78052 0.60617 0.30403 0.0
H1080 H 0.71668 0.53073 0.34749 0.0
H1081 H 0.74882 0.5186 0.37269 0.0
C1082 C 0.80192 0.54846 0.36743 0.0
C1083 C 0.8293 0.56614 0.36259 0.0
C1084 C 0.78333 0.55532 0.35298 0.0
C1085 C 0.83786 0.5908 0.34302 0.0
C1086 C 0.81949 0.59776 0.32858 0.0
C1087 C 0.77361 0.58707 0.31902 0.0
C1088 C 0.74623 0.56941 0.32383 0.0
C1089 C 0.79219 0.58019 0.33342 0.0
C1090 C 0.73765 0.54473 0.34332 0.0
C1091 C 0.75601 0.53775 0.35777 0.0
H1092 H 0.63139 0.16486 0.85349 0.0
H1093 H 0.59908 0.09269 0.78041 0.0
H1094 H 0.55424 0.08477 0.79193 0.0
H1095 H 0.5241 0.0978 0.82369 0.0
H1096 H 0.55622 0.16985 0.89696 0.0
H1097 H 0.6012 0.17834 0.88421 0.0
C1098 C 0.61456 0.14741 0.84003 0.0
C1099 C 0.61865 0.12937 0.81625 0.0
C1100 C 0.58876 0.14293 0.84677 0.0
C1101 C 0.59656 0.1069 0.79894 0.0
C1102 C 0.57088 0.10233 0.80549 0.0
C1103 C 0.54092 0.11542 0.83678 0.0
C1104 C 0.53674 0.13311 0.86134 0.0
C1105 C 0.56673 0.12015 0.82949 0.0
C1106 C 0.55882 0.15586 0.87798 0.0
C1107 C 0.58458 0.16074 0.87076 0.0
H1108 H 0.90021 0.48103 0.81425 0.0
H1109 H 0.84435 0.46162 0.91597 0.0
H1110 H 0.84613 0.42137 0.93054 0.0
H1111 H 0.86336 0.3916 0.91436 0.0
H1112 H 0.9192 0.41093 0.81264 0.0
H1113 H 0.9175 0.45125 0.79811 0.0
C1114 C 0.88847 0.46805 0.8397 0.0
C1115 C 0.8722 0.47438 0.86399 0.0
C1116 C 0.88951 0.44487 0.84785 0.0
C1117 C 0.85708 0.45728 0.89677 0.0
C1118 C 0.85805 0.43421 0.90512 0.0
C1119 C 0.87514 0.40459 0.88895 0.0
C1120 C 0.89137 0.39822 0.86464 0.0
C1121 C 0.87414 0.42778 0.88081 0.0
C1122 C 0.90652 0.41533 0.83187 0.0
C1123 C 0.90559 0.43842 0.82354 0.0
H1124 H 0.59394 0.45186 0.91466 0.0
H1125 H 0.59055 0.48719 0.79714 0.0
H1126 H 0.55312 0.44492 0.7745 0.0
H1127 H 0.52066 0.39838 0.78859 0.0
H1128 H 0.52413 0.36246 0.90532 0.0
H1129 H 0.56227 0.40456 0.92769 0.0
C1130 C 0.58508 0.4503 0.88404 0.0
C1131 C 0.59498 0.47273 0.85776 0.0
C1132 C 0.56353 0.42587 0.87111 0.0
C1133 C 0.58334 0.47028 0.81806 0.0
C1134 C 0.56188 0.44612 0.80508 0.0
C1135 C 0.52972 0.39972 0.81896 0.0
C1136 C 0.51944 0.37735 0.84537 0.0
C1137 C 0.55169 0.42387 0.83147 0.0
C1138 C 0.53163 0.37939 0.8844 0.0
C1139 C 0.55343 0.40346 0.89724 0.0
H1140 H 0.50855 0.73149 0.63574 0.0
H1141 H 0.57401 0.73508 0.70539 0.0
H1142 H 0.5886 0.78079 0.72578 0.0
H1143 H 0.58337 0.82002 0.72275 0.0
H1144 H 0.5183 0.81675 0.65238 0.0
H1145 H 0.50303 0.77065 0.63337 0.0
C1146 C 0.52592 0.74221 0.65557 0.0
C1147 C 0.54015 0.72985 0.66896 0.0
C1148 C 0.53437 0.76859 0.66692 0.0
C1149 C 0.56269 0.74409 0.69454 0.0
C1150 C 0.57108 0.77027 0.70621 0.0
C1151 C 0.56583 0.80924 0.70329 0.0
C1152 C 0.55206 0.82187 0.68897 0.0
C1153 C 0.55718 0.78276 0.69236 0.0
C1154 C 0.52934 0.80756 0.66378 0.0
C1155 C 0.52056 0.78117 0.65291 0.0
H1156 H 0.17447 0.74336 0.64945 0.0
H1157 H 0.17839 0.75864 0.78265 0.0
H1158 H 0.22214 0.79811 0.77425 0.0
H1159 H 0.25938 0.82814 0.72912 0.0
H1160 H 0.25435 0.81464 0.59528 0.0
H1161 H 0.2109 0.7747 0.60375 0.0
C1162 C 0.18498 0.75535 0.67656 0.0
C1163 C 0.17338 0.74811 0.71659 0.0
C1164 C 0.20986 0.77834 0.67138 0.0
C1165 C 0.18694 0.76393 0.75148 0.0
C1166 C 0.21196 0.78644 0.74673 0.0
C1167 C 0.24875 0.81643 0.70184 0.0
C1168 C 0.26006 0.82419 0.66171 0.0
C1169 C 0.22361 0.79381 0.70685 0.0
C1170 C 0.24598 0.80907 0.62652 0.0
C1171 C 0.22119 0.7862 0.63134 0.0
H1172 H 0.2452 0.43129 0.64797 0.0
H1173 H 0.2686 0.48436 0.75442 0.0
H1174 H 0.23028 0.49018 0.74356 0.0
H1175 H 0.1901 0.48019 0.70391 0.0
H1176 H 0.16719 0.42769 0.59677 0.0
H1177 H 0.2053 0.42161 0.60802 0.0
C1178 C 0.24196 0.44415 0.66879 0.0
C1179 C 0.25976 0.45734 0.70197 0.0
C1180 C 0.21991 0.44746 0.66235 0.0
C1181 C 0.25526 0.47399 0.72858 0.0
C1182 C 0.23331 0.4773 0.72246 0.0
C1183 C 0.19337 0.46733 0.68312 0.0
C1184 C 0.17577 0.45438 0.64963 0.0
C1185 C 0.21548 0.46409 0.68951 0.0
C1186 C 0.18043 0.43793 0.6228 0.0
C1187 C 0.20223 0.43443 0.62918 0.0
H1188 H 0.37293 0.83328 0.12014 0.0
H1189 H 0.40943 0.91 0.18087 0.0
H1190 H 0.45317 0.91476 0.17128 0.0
H1191 H 0.48107 0.89718 0.14637 0.0
H1192 H 0.44511 0.82091 0.08449 0.0
H1193 H 0.40113 0.81594 0.094 0.0
C1194 C 0.39045 0.85108 0.13118 0.0
C1195 C 0.38785 0.87122 0.15123 0.0
C1196 C 0.41564 0.85375 0.12554 0.0
C1197 C 0.4108 0.89417 0.16526 0.0
C1198 C 0.43586 0.89692 0.1599 0.0
C1199 C 0.46363 0.87941 0.13505 0.0
C1200 C 0.46638 0.8594 0.11489 0.0
C1201 C 0.43849 0.8768 0.14025 0.0
C1202 C 0.44356 0.83662 0.10014 0.0
C1203 C 0.4184 0.83376 0.10554 0.0
H1204 H 0.1355 0.59495 0.07363 0.0
H1205 H 0.08018 0.58039 0.17445 0.0
H1206 H 0.0748 0.53644 0.18553 0.0
H1207 H 0.08634 0.50247 0.16744 0.0
H1208 H 0.14213 0.51727 0.0673 0.0
H1209 H 0.14658 0.56074 0.05494 0.0
C1210 C 0.12227 0.58219 0.09807 0.0
C1211 C 0.10832 0.59101 0.12323 0.0
C1212 C 0.11925 0.55694 0.10429 0.0
C1213 C 0.09121 0.57416 0.15467 0.0
C1214 C 0.08808 0.54898 0.161 0.0
C1215 C 0.09932 0.51509 0.14267 0.0
C1216 C 0.11386 0.50658 0.11831 0.0
C1217 C 0.10203 0.54019 0.13604 0.0
C1218 C 0.13071 0.5233 0.08653 0.0
C1219 C 0.13332 0.5482 0.07949 0.0
H1220 H 0.47167 0.63666 0.14157 0.0
H1221 H 0.50383 0.59316 0.2045 0.0
H1222 H 0.46182 0.55188 0.19496 0.0
H1223 H 0.41601 0.52812 0.16898 0.0
H1224 H 0.38387 0.57143 0.10546 0.0
H1225 H 0.42579 0.61285 0.11548 0.0
C1226 C 0.46957 0.61815 0.15302 0.0
C1227 C 0.49092 0.61804 0.17362 0.0
C1228 C 0.44529 0.59447 0.14767 0.0
C1229 C 0.48777 0.59385 0.18842 0.0
C1230 C 0.46371 0.57021 0.18311 0.0
C1231 C 0.41808 0.54664 0.15756 0.0
C1232 C 0.3968 0.54667 0.13659 0.0
C1233 C 0.44232 0.57031 0.16295 0.0
C1234 C 0.39992 0.57083 0.12175 0.0
C1235 C 0.42391 0.59453 0.12735 0.0
H1236 H 0.16487 0.62976 0.65988 0.0
H1237 H 0.0792 0.5905 0.66185 0.0
H1238 H 0.07646 0.54849 0.64332 0.0
H1239 H 0.09828 0.52279 0.62748 0.0
H1240 H 0.18394 0.5619 0.62588 0.0
H1241 H 0.18672 0.60406 0.64353 0.0
C1242 C 0.14559 0.61205 0.65607 0.0
C1243 C 0.12229 0.61331 0.66226 0.0
C1244 C 0.14413 0.5879 0.64569 0.0
C1245 C 0.09747 0.59012 0.65732 0.0
C1246 C 0.09586 0.56606 0.64677 0.0
C1247 C 0.11758 0.54051 0.63103 0.0
C1248 C 0.14086 0.53914 0.62542 0.0
C1249 C 0.11906 0.5647 0.6411 0.0
C1250 C 0.16569 0.56234 0.63006 0.0
C1251 C 0.16731 0.58649 0.64011 0.0
H1252 H 0.38782 0.51015 0.70654 0.0
H1253 H 0.37603 0.49211 0.5742 0.0
H1254 H 0.41939 0.53093 0.55881 0.0
H1255 H 0.46076 0.56971 0.58321 0.0
H1256 H 0.47081 0.59035 0.71468 0.0
H1257 H 0.4279 0.55089 0.73042 0.0
C1258 C 0.39486 0.51477 0.67439 0.0
C1259 C 0.37907 0.49826 0.64152 0.0
C1260 C 0.41936 0.53755 0.66574 0.0
C1261 C 0.38799 0.50459 0.59991 0.0
C1262 C 0.41273 0.52672 0.59115 0.0
C1263 C 0.45349 0.56551 0.61528 0.0
C1264 C 0.46889 0.58261 0.64786 0.0
C1265 C 0.4286 0.54328 0.62382 0.0
C1266 C 0.45918 0.57737 0.68918 0.0
C1267 C 0.43475 0.55481 0.69815 0.0
H1268 H 0.43535 0.93157 0.62022 0.0
H1269 H 0.37628 0.85807 0.67703 0.0
H1270 H 0.41117 0.85013 0.70311 0.0
H1271 H 0.45829 0.8636 0.70871 0.0
H1272 H 0.51735 0.93682 0.6512 0.0
H1273 H 0.48254 0.94531 0.62656 0.0
C1274 C 0.43008 0.91383 0.63839 0.0
C1275 C 0.40324 0.89543 0.64657 0.0
C1276 C 0.45022 0.90931 0.65314 0.0
C1277 C 0.39678 0.87255 0.67018 0.0
C1278 C 0.41672 0.86798 0.68513 0.0
C1279 C 0.46359 0.88146 0.69089 0.0
C1280 C 0.49039 0.89951 0.68177 0.0
C1281 C 0.44348 0.88616 0.67663 0.0
C1282 C 0.49687 0.92256 0.65861 0.0
C1283 C 0.47698 0.92744 0.64449 0.0
H1284 H 0.19053 0.45095 0.24698 0.0
H1285 H 0.16846 0.43548 0.11617 0.0
H1286 H 0.21273 0.44324 0.09874 0.0
H1287 H 0.25765 0.45438 0.12072 0.0
H1288 H 0.28028 0.47189 0.25108 0.0
H1289 H 0.23582 0.46341 0.26861 0.0
C1290 C 0.19537 0.44918 0.21467 0.0
C1291 C 0.1762 0.44248 0.18296 0.0
C1292 C 0.22096 0.45409 0.2048 0.0
C1293 C 0.18289 0.44062 0.14116 0.0
C1294 C 0.20817 0.44502 0.13118 0.0
C1295 C 0.25283 0.45629 0.15298 0.0
C1296 C 0.2722 0.46363 0.18458 0.0
C1297 C 0.22735 0.45175 0.16275 0.0
C1298 C 0.26575 0.46631 0.22615 0.0
C1299 C 0.24031 0.46142 0.23623 0.0
H1300 H 0.51263 0.8009 0.21493 0.0
H1301 H 0.57573 0.82933 0.12328 0.0
H1302 H 0.58239 0.792 0.13877 0.0
H1303 H 0.57027 0.75125 0.17809 0.0
H1304 H 0.50722 0.72284 0.26983 0.0
H1305 H 0.50063 0.76023 0.25448 0.0
C1306 C 0.52784 0.79896 0.19833 0.0
C1307 C 0.54363 0.8179 0.168 0.0
C1308 C 0.5316 0.77745 0.20738 0.0
C1309 C 0.56329 0.81506 0.14682 0.0
C1310 C 0.56712 0.7937 0.15563 0.0
C1311 C 0.55509 0.75323 0.19477 0.0
C1312 C 0.53928 0.73425 0.22506 0.0
C1313 C 0.55139 0.77478 0.18582 0.0
C1314 C 0.5197 0.73715 0.24636 0.0
C1315 C 0.51589 0.75853 0.23761 0.0
H1316 H 0.17486 0.73622 0.1314 0.0
H1317 H 0.18255 0.69454 0.2378 0.0
H1318 H 0.22525 0.73339 0.25559 0.0
H1319 H 0.26003 0.77949 0.24159 0.0
H1320 H 0.25228 0.82072 0.1345 0.0
H1321 H 0.21004 0.78167 0.1163 0.0
C1322 C 0.18583 0.73561 0.15854 0.0
C1323 C 0.17544 0.71255 0.18336 0.0
C1324 C 0.21041 0.75793 0.16844 0.0
C1325 C 0.19007 0.71204 0.21817 0.0
C1326 C 0.21449 0.73426 0.22839 0.0
C1327 C 0.24916 0.77992 0.21418 0.0
C1328 C 0.25931 0.80307 0.18958 0.0
C1329 C 0.22481 0.75735 0.20382 0.0
C1330 C 0.24497 0.80321 0.15407 0.0
C1331 C 0.22076 0.78088 0.14363 0.0
H1332 H 0.25241 0.22722 0.15348 0.0
H1333 H 0.17154 0.21121 0.14583 0.0
H1334 H 0.17045 0.2157 0.22184 0.0
H1335 H 0.19197 0.22324 0.29037 0.0
H1336 H 0.2726 0.23869 0.29875 0.0
H1337 H 0.27427 0.23548 0.22236 0.0
C1338 C 0.23455 0.22476 0.16841 0.0
C1339 C 0.21207 0.21882 0.14398 0.0
C1340 C 0.23401 0.22728 0.2122 0.0
C1341 C 0.18911 0.21572 0.16385 0.0
C1342 C 0.18846 0.2183 0.20734 0.0
C1343 C 0.20998 0.22604 0.27556 0.0
C1344 C 0.23211 0.23116 0.30026 0.0
C1345 C 0.21073 0.22396 0.23179 0.0
C1346 C 0.25526 0.23469 0.28048 0.0
C1347 C 0.25623 0.23283 0.23681 0.0
H1348 H 0.74595 0.95794 0.16116 0.0
H1349 H 0.79 0.04295 0.14357 0.0
H1350 H 0.79351 0.04956 0.21951 0.0
H1351 H 0.78543 0.03122 0.29092 0.0
H1352 H 0.74235 0.94616 0.30828 0.0
H1353 H 0.73711 0.93964 0.23247 0.0
C1354 C 0.75617 0.97792 0.17391 0.0
C1355 C 0.76772 -0.00012 0.14671 0.0
C1356 C 0.75841 0.9816 0.21761 0.0
C1357 C 0.78098 0.02565 0.16379 0.0
C1358 C 0.78302 0.02948 0.20724 0.0
C1359 C 0.7748 0.01126 0.27815 0.0
C1360 C 0.76438 0.98925 0.30527 0.0
C1361 C 0.77203 0.0076 0.23445 0.0
C1362 C 0.75067 0.9635 0.28815 0.0
C1363 C 0.74764 0.95971 0.24476 0.0
H1364 H 0.05301 0.77735 0.33505 0.0
H1365 H 0.96899 0.74858 0.34793 0.0
H1366 H 0.96316 0.74172 0.27231 0.0
H1367 H 0.98209 0.7461 0.20236 0.0
H1368 H 0.06606 0.77519 0.18854 0.0
H1369 H 0.07165 0.77952 0.26478 0.0
C1370 C 0.0334 0.7694 0.32136 0.0
C1371 C 0.01153 0.7637 0.34713 0.0
C1372 C 0.03016 0.76565 0.27769 0.0
C1373 C 0.98622 0.7533 0.32886 0.0
C1374 C 0.98284 0.74938 0.28557 0.0
C1375 C 0.00162 0.75326 0.21596 0.0
C1376 C 0.02365 0.76051 0.18976 0.0
C1377 C 0.00471 0.75585 0.25967 0.0
C1378 C 0.04876 0.76954 0.20798 0.0
C1379 C 0.052 0.77208 0.25158 0.0
H1380 H 0.7461 0.75022 0.86277 0.0
H1381 H 0.82915 0.80802 0.84601 0.0
H1382 H 0.82391 0.80302 0.77005 0.0
H1383 H 0.79602 0.78257 0.70855 0.0
H1384 H 0.71288 0.72485 0.72413 0.0
H1385 H 0.71794 0.72953 0.80051 0.0
C1386 C 0.76305 0.7617 0.8425 0.0
C1387 C 0.78799 0.77948 0.86013 0.0
C1388 C 0.75991 0.75878 0.79869 0.0
C1389 C 0.80973 0.79422 0.83338 0.0
C1390 C 0.80677 0.79138 0.78988 0.0
C1391 C 0.77894 0.77095 0.72855 0.0
C1392 C 0.75409 0.75338 0.71058 0.0
C1393 C 0.78198 0.77376 0.77224 0.0
C1394 C 0.73223 0.73853 0.73709 0.0
C1395 C 0.73512 0.7412 0.78078 0.0
H1396 H 0.23118 0.97466 0.6865 0.0
H1397 H 0.21234 0.03704 0.66895 0.0
H1398 H 0.20979 0.04111 0.74471 0.0
H1399 H 0.21118 0.02594 0.81576 0.0
H1400 H 0.22963 0.96338 0.83397 0.0
H1401 H 0.23418 0.96055 0.75815 0.0
C1402 C 0.22665 0.98923 0.69925 0.0
C1403 C 0.22183 0.00539 0.67203 0.0
C1404 C 0.22507 0.99142 0.74297 0.0
C1405 C 0.21606 0.02424 0.68911 0.0
C1406 C 0.21457 0.0266 0.73248 0.0
C1407 C 0.21631 0.01175 0.80323 0.0
C1408 C 0.2199 0.99481 0.8305 0.0
C1409 C 0.21876 0.01012 0.75967 0.0
C1410 C 0.22666 0.97662 0.81367 0.0
C1411 C 0.22925 0.97495 0.7703 0.0
H1412 H 0.00798 0.17956 0.65288 0.0
H1413 H 0.98153 0.2369 0.6519 0.0
H1414 H 0.98489 0.24011 0.72841 0.0
H1415 H 0.99548 0.22674 0.79548 0.0
H1416 H 0.02019 0.16807 0.79669 0.0
H1417 H 0.01731 0.16522 0.72012 0.0
C1418 C 0.00302 0.19281 0.66941 0.0
C1419 C 0.99465 0.20806 0.64679 0.0
C1420 C 0.00464 0.19428 0.7134 0.0
C1421 C 0.98799 0.22492 0.66864 0.0
C1422 C 0.98995 0.2268 0.71236 0.0
C1423 C 0.00026 0.21336 0.77897 0.0
C1424 C 0.00814 0.19772 0.80167 0.0
C1425 C 0.99827 0.21159 0.73504 0.0
C1426 C 0.01402 0.18027 0.77992 0.0
C1427 C 0.01244 0.17868 0.73614 0.0
H1428 H 0.91238 0.55203 0.52722 0.0
H1429 H 0.86778 0.59274 0.53967 0.0
H1430 H 0.8656 0.58621 0.61568 0.0
H1431 H 0.87588 0.56849 0.67834 0.0
H1432 H 0.92093 0.52825 0.6659 0.0
H1433 H 0.92337 0.53506 0.58997 0.0
C1434 C 0.9022 0.55952 0.54652 0.0
C1435 C 0.8902 0.57279 0.52774 0.0
C1436 C 0.90105 0.55573 0.59015 0.0
C1437 C 0.8772 0.58246 0.55328 0.0
C1438 C 0.8759 0.5787 0.59675 0.0
C1439 C 0.88621 0.56117 0.65905 0.0
C1440 C 0.89812 0.54779 0.67778 0.0
C1441 C 0.88766 0.56527 0.61547 0.0
C1442 C 0.91158 0.5386 0.65232 0.0
C1443 C 0.91298 0.54248 0.60888 0.0
H1444 H 0.47061 0.31397 0.49616 0.0
H1445 H 0.41833 0.34642 0.50382 0.0
H1446 H 0.42121 0.34703 0.58059 0.0
H1447 H 0.43901 0.33868 0.64527 0.0
H1448 H 0.49302 0.30825 0.6368 0.0
H1449 H 0.4892 0.30671 0.56038 0.0
C1450 C 0.45966 0.32097 0.51463 0.0
C1451 C 0.44409 0.32992 0.49449 0.0
C1452 C 0.46191 0.32183 0.55849 0.0
C1453 C 0.4304 0.33938 0.51874 0.0
C1454 C 0.43207 0.33976 0.56255 0.0
C1455 C 0.44996 0.33174 0.62667 0.0
C1456 C 0.46624 0.32356 0.64664 0.0
C1457 C 0.44787 0.33113 0.58273 0.0
C1458 C 0.48046 0.31479 0.62217 0.0
C1459 C 0.4782 0.31379 0.57849 0.0
H1460 H 0.63084 0.08298 0.62961 0.0
H1461 H 0.71536 0.11899 0.64962 0.0
H1462 H 0.72244 0.11906 0.57407 0.0
H1463 H 0.70491 0.11096 0.50215 0.0
H1464 H 0.62051 0.07616 0.48212 0.0
H1465 H 0.61316 0.07345 0.55784 0.0
C1466 C 0.65079 0.09066 0.6175 0.0
C1467 C 0.67252 0.10107 0.64524 0.0
C1468 C 0.65478 0.09097 0.57397 0.0
C1469 C 0.69826 0.11097 0.62897 0.0
C1470 C 0.70236 0.11104 0.58574 0.0
C1471 C 0.68489 0.1026 0.51433 0.0
C1472 C 0.66333 0.0939 0.48649 0.0
C1473 C 0.6808 0.1014 0.55793 0.0
C1474 C 0.6375 0.08314 0.50284 0.0
C1475 C 0.63325 0.08158 0.54615 0.0
H1476 H 0.43533 0.0703 0.14907 0.0
H1477 H 0.43611 0.14434 0.16651 0.0
H1478 H 0.4411 0.15244 0.09117 0.0
H1479 H 0.44585 0.13903 0.02052 0.0
H1480 H 0.44476 0.06496 0.00208 0.0
H1481 H 0.43927 0.0564 0.07763 0.0
C1482 C 0.43652 0.08816 0.13638 0.0
C1483 C 0.4354 0.10668 0.16347 0.0
C1484 C 0.4394 0.09276 0.09285 0.0
C1485 C 0.43692 0.12972 0.14645 0.0
C1486 C 0.43981 0.13443 0.10332 0.0
C1487 C 0.44443 0.12101 0.03296 0.0
C1488 C 0.44581 0.10273 0.00571 0.0
C1489 C 0.44119 0.11616 0.07628 0.0
C1490 C 0.44378 0.0794 0.02238 0.0
C1491 C 0.44065 0.07448 0.06558 0.0
H1492 H 0.93428 0.35218 0.14393 0.0
H1493 H 0.84916 0.31393 0.15903 0.0
H1494 H 0.84309 0.30537 0.08377 0.0
H1495 H 0.86175 0.30928 0.01365 0.0
H1496 H 0.94678 0.34849 -0.00253 0.0
H1497 H 0.95304 0.35594 0.07328 0.0
C1498 C 0.9144 0.34197 0.13077 0.0
C1499 C 0.89223 0.33377 0.15713 0.0
C1500 C 0.91101 0.33719 0.08731 0.0
C1501 C 0.86661 0.32056 0.13951 0.0
C1502 C 0.86308 0.31559 0.09644 0.0
C1503 C 0.88167 0.31929 0.02667 0.0
C1504 C 0.90375 0.32827 -4e-05 0.0
C1505 C 0.88512 0.32385 0.07007 0.0
C1506 C 0.92943 0.3414 0.01736 0.0
C1507 C 0.93303 0.3457 0.06069 0.0
H1508 H 0.62721 0.55684 0.14 0.0
H1509 H 0.71154 0.5974 0.16458 0.0
H1510 H 0.72056 0.60193 0.08924 0.0
H1511 H 0.7045 0.59273 0.01639 0.0
H1512 H 0.62009 0.55107 0.99211 0.0
H1513 H 0.61119 0.54873 0.0673 0.0
C1514 C 0.64757 0.56683 0.12893 0.0
C1515 C 0.66864 0.57667 0.15793 0.0
C1516 C 0.65264 0.56909 0.08557 0.0
C1517 C 0.69492 0.58954 0.14296 0.0
C1518 C 0.70012 0.59213 0.09986 0.0
C1519 C 0.68416 0.58328 0.02751 0.0
C1520 C 0.66302 0.57202 -0.00138 0.0
C1521 C 0.67913 0.58173 0.07088 0.0
C1522 C 0.63677 0.55981 0.01363 0.0
C1523 C 0.63163 0.55845 0.05666 0.0
H1524 H 0.55589 0.91909 0.98696 0.0
H1525 H 0.58862 0.86719 0.97428 0.0
H1526 H 0.58987 0.87231 0.89805 0.0
H1527 H 0.57987 0.88987 0.83505 0.0
H1528 H 0.54723 0.94183 0.84758 0.0
H1529 H 0.54787 0.93837 0.92401 0.0
C1530 C 0.56343 0.90898 0.96757 0.0
C1531 C 0.57197 0.89263 0.9863 0.0
C1532 C 0.56403 0.91194 0.92378 0.0
C1533 C 0.58185 0.87985 0.9607 0.0
C1534 C 0.58253 0.88271 0.91709 0.0
C1535 C 0.57297 0.90052 0.85447 0.0
C1536 C 0.56332 0.91592 0.83562 0.0
C1537 C 0.57337 0.89844 0.89831 0.0
C1538 C 0.55469 0.92979 0.86126 0.0
C1539 C 0.55501 0.92779 0.90497 0.0
H1540 H 0.15186 0.68103 0.98214 0.0
H1541 H 0.07079 0.66333 0.99555 0.0
H1542 H 0.06518 0.65987 0.91917 0.0
H1543 H 0.08341 0.66162 0.84858 0.0
H1544 H 0.16411 0.6777 0.83645 0.0
H1545 H 0.16966 0.68186 0.91237 0.0
C1546 C 0.13301 0.67659 0.96837 0.0
C1547 C 0.11184 0.67262 0.99438 0.0
C1548 C 0.1298 0.67416 0.92467 0.0
C1549 C 0.08741 0.66651 0.97611 0.0
C1550 C 0.08419 0.6645 0.93248 0.0
C1551 C 0.10217 0.66597 0.86259 0.0
C1552 C 0.12329 0.66936 0.83685 0.0
C1553 C 0.10523 0.66819 0.90645 0.0
C1554 C 0.14747 0.6749 0.85548 0.0
C1555 C 0.15073 0.67739 0.89893 0.0
H1556 H 0.30605 0.40762 0.97713 0.0
H1557 H 0.36239 0.49109 0.99396 0.0
H1558 H 0.36831 0.49681 0.91822 0.0
H1559 H 0.35684 0.47855 0.84723 0.0
H1560 H 0.29993 0.39537 0.8296 0.0
H1561 H 0.29504 0.38912 0.90564 0.0
C1562 C 0.31967 0.42703 0.96424 0.0
C1563 C 0.33367 0.44887 0.99122 0.0
C1564 C 0.32291 0.43027 0.92051 0.0
C1565 C 0.35126 0.47392 0.97396 0.0
C1566 C 0.3547 0.47724 0.93061 0.0
C1567 C 0.34346 0.45901 0.85996 0.0
C1568 C 0.32876 0.43749 0.83277 0.0
C1569 C 0.34054 0.45561 0.9036 0.0
C1570 C 0.31146 0.41231 0.84984 0.0
C1571 C 0.30863 0.40871 0.89333 0.0
H1572 H 0.08959 0.43505 0.45543 0.0
H1573 H 0.16231 0.51084 0.45536 0.0
H1574 H 0.16124 0.51223 0.37889 0.0
H1575 H 0.14037 0.49163 0.3121 0.0
H1576 H 0.06867 0.41506 0.31125 0.0
H1577 H 0.06855 0.41435 0.38809 0.0
C1578 C 0.10514 0.4519 0.43867 0.0
C1579 C 0.126 0.47279 0.46107 0.0
C1580 C 0.10459 0.45245 0.39458 0.0
C1581 C 0.14609 0.49443 0.4389 0.0
C1582 C 0.14548 0.49529 0.39515 0.0
C1583 C 0.12459 0.47486 0.32868 0.0
C1584 C 0.10453 0.45347 0.30604 0.0
C1585 C 0.12491 0.47437 0.37269 0.0
C1586 C 0.08437 0.43177 0.328 0.0
C1587 C 0.0843 0.43134 0.37191 0.0
H1588 H 0.50521 0.63952 0.36015 0.0
H1589 H 0.59083 0.67898 0.36164 0.0
H1590 H 0.59061 0.68038 0.43853 0.0
H1591 H 0.5659 0.67104 0.50523 0.0
H1592 H 0.48031 0.63311 0.50229 0.0
H1593 H 0.48077 0.63056 0.42595 0.0
C1594 C 0.52385 0.64827 0.37723 0.0
C1595 C 0.54799 0.65902 0.35525 0.0
C1596 C 0.52358 0.64942 0.42116 0.0
C1597 C 0.57197 0.67056 0.37788 0.0
C1598 C 0.57185 0.67138 0.42181 0.0
C1599 C 0.54737 0.6622 0.48785 0.0
C1600 C 0.52312 0.6523 0.50944 0.0
C1601 C 0.54775 0.661 0.44377 0.0
C1602 C 0.49927 0.641 0.48648 0.0
C1603 C 0.49948 0.63946 0.4428 0.0
H1604 H 0.35691 0.8616 0.33865 0.0
H1605 H 0.31961 0.90934 0.32503 0.0
H1606 H 0.31836 0.9131 0.40136 0.0
H1607 H 0.32667 0.9017 0.47197 0.0
H1608 H 0.36253 0.85261 0.48507 0.0
H1609 H 0.36561 0.85063 0.40887 0.0
C1610 C 0.34862 0.87295 0.35232 0.0
C1611 C 0.33836 0.88515 0.32619 0.0
C1612 C 0.34766 0.87476 0.39615 0.0
C1613 C 0.32757 0.89967 0.34446 0.0
C1614 C 0.32686 0.90186 0.3881 0.0
C1615 C 0.33532 0.89072 0.45814 0.0
C1616 C 0.34433 0.87731 0.48414 0.0
C1617 C 0.33669 0.88933 0.41425 0.0
C1618 C 0.35534 0.86302 0.46576 0.0
C1619 C 0.35713 0.86188 0.42218 0.0
loop_
_geom_bond_atom_site_label_1
_geom_bond_atom_site_label_2
_geom_bond_distance
_geom_bond_site_symmetry_2
_ccdc_geom_bond_type
C0 O1 1.160 . S
C0 O7 1.185 1_556 S
O1 C0 1.160 . S
O2 Zn3 1.899 . S
O2 C10 1.284 . S
Zn3 O2 1.899 . S
Zn3 O4 2.032 . S
Zn3 O7 2.086 . S
Zn3 O12 1.977 . S
O4 Zn3 2.032 . S
O4 C8 1.278 . S
C5 O6 1.203 . S
C5 O12 1.267 . S
O6 C5 1.203 . S
O7 C0 1.185 1_554 S
O7 Zn3 2.086 . S
C8 O4 1.278 . S
C8 O9 1.211 . S
O9 C8 1.211 . S
C10 O2 1.284 . S
C10 O11 1.273 . S
O11 C10 1.273 . S
O12 Zn3 1.977 . S
O12 C5 1.267 . S
C13 O14 1.160 . S
C13 O20 1.185 1_556 S
O14 C13 1.160 . S
O15 Zn16 1.899 1_565 S
O15 C23 1.284 . S
Zn16 O15 1.899 1_545 S
Zn16 O17 2.032 . S
Zn16 O20 2.086 . S
Zn16 O25 1.977 . S
O17 Zn16 2.032 . S
O17 C21 1.278 . S
C18 O19 1.203 1_545 S
C18 O25 1.267 . S
O19 C18 1.203 1_565 S
O20 C13 1.185 1_554 S
O20 Zn16 2.086 . S
C21 O17 1.278 . S
C21 O22 1.211 . S
O22 C21 1.211 . S
C23 O15 1.284 . S
C23 O24 1.273 . S
O24 C23 1.273 . S
O25 Zn16 1.977 . S
O25 C18 1.267 . S
C26 O27 1.160 . S
C26 O33 1.185 1_556 S
O27 C26 1.160 . S
O28 Zn29 1.899 1_455 S
O28 C36 1.284 . S
Zn29 O28 1.899 1_655 S
Zn29 O30 2.032 . S
Zn29 O33 2.086 . S
Zn29 O38 1.977 . S
O30 Zn29 2.032 . S
O30 C34 1.278 . S
C31 O32 1.203 1_655 S
C31 O38 1.267 . S
O32 C31 1.203 1_455 S
O33 C26 1.185 1_554 S
O33 Zn29 2.086 . S
C34 O30 1.278 . S
C34 O35 1.211 . S
O35 C34 1.211 . S
C36 O28 1.284 . S
C36 O37 1.273 . S
O37 C36 1.273 . S
O38 Zn29 1.977 . S
O38 C31 1.267 . S
C39 O40 1.160 . S
C39 O46 1.185 . S
O40 C39 1.160 . S
O41 Zn42 1.899 . S
O41 C49 1.284 . S
Zn42 O41 1.899 . S
Zn42 O43 2.032 . S
Zn42 O46 2.086 . S
Zn42 O51 1.977 . S
O43 Zn42 2.032 . S
O43 C47 1.278 . S
C44 O45 1.203 . S
C44 O51 1.267 . S
O45 C44 1.203 . S
O46 C39 1.185 . S
O46 Zn42 2.086 . S
C47 O43 1.278 . S
C47 O48 1.211 . S
O48 C47 1.211 . S
C49 O41 1.284 . S
C49 O50 1.273 . S
O50 C49 1.273 . S
O51 Zn42 1.977 . S
O51 C44 1.267 . S
C52 O53 1.160 . S
C52 O59 1.185 . S
O53 C52 1.160 . S
O54 Zn55 1.899 1_545 S
O54 C62 1.284 . S
Zn55 O54 1.899 1_565 S
Zn55 O56 2.032 . S
Zn55 O59 2.086 . S
Zn55 O64 1.977 . S
O56 Zn55 2.032 . S
O56 C60 1.278 . S
C57 O58 1.203 1_565 S
C57 O64 1.267 . S
O58 C57 1.203 1_545 S
O59 C52 1.185 . S
O59 Zn55 2.086 . S
C60 O56 1.278 . S
C60 O61 1.211 . S
O61 C60 1.211 . S
C62 O54 1.284 . S
C62 O63 1.273 . S
O63 C62 1.273 . S
O64 Zn55 1.977 . S
O64 C57 1.267 . S
C65 O66 1.160 . S
C65 O72 1.185 . S
O66 C65 1.160 . S
O67 Zn68 1.899 1_655 S
O67 C75 1.284 . S
Zn68 O67 1.899 1_455 S
Zn68 O69 2.032 . S
Zn68 O72 2.086 . S
Zn68 O77 1.977 . S
O69 Zn68 2.032 . S
O69 C73 1.278 . S
C70 O71 1.203 1_455 S
C70 O77 1.267 . S
O71 C70 1.203 1_655 S
O72 C65 1.185 . S
O72 Zn68 2.086 . S
C73 O69 1.278 . S
C73 O74 1.211 . S
O74 C73 1.211 . S
C75 O67 1.284 . S
C75 O76 1.273 . S
O76 C75 1.273 . S
O77 Zn68 1.977 . S
O77 C70 1.267 . S
C78 O79 1.160 . S
C78 O85 1.185 1_554 S
O79 C78 1.160 . S
O80 Zn81 1.899 . S
O80 C88 1.284 . S
Zn81 O80 1.899 . S
Zn81 O82 2.032 . S
Zn81 O85 2.086 . S
Zn81 O90 1.977 . S
O82 Zn81 2.032 . S
O82 C86 1.278 . S
C83 O84 1.203 . S
C83 O90 1.267 . S
O84 C83 1.203 . S
O85 C78 1.185 1_556 S
O85 Zn81 2.086 . S
C86 O82 1.278 . S
C86 O87 1.211 . S
O87 C86 1.211 . S
C88 O80 1.284 . S
C88 O89 1.273 . S
O89 C88 1.273 . S
O90 Zn81 1.977 . S
O90 C83 1.267 . S
C91 O92 1.160 . S
C91 O98 1.185 1_554 S
O92 C91 1.160 . S
O93 Zn94 1.899 1_545 S
O93 C101 1.284 . S
Zn94 O93 1.899 1_565 S
Zn94 O95 2.032 . S
Zn94 O98 2.086 . S
Zn94 O103 1.977 . S
O95 Zn94 2.032 . S
O95 C99 1.278 . S
C96 O97 1.203 1_565 S
C96 O103 1.267 . S
O97 C96 1.203 1_545 S
O98 C91 1.185 1_556 S
O98 Zn94 2.086 . S
C99 O95 1.278 . S
C99 O100 1.211 . S
O100 C99 1.211 . S
C101 O93 1.284 . S
C101 O102 1.273 . S
O102 C101 1.273 . S
O103 Zn94 1.977 . S
O103 C96 1.267 . S
C104 O105 1.160 . S
C104 O111 1.185 1_554 S
O105 C104 1.160 . S
O106 Zn107 1.899 1_655 S
O106 C114 1.284 . S
Zn107 O106 1.899 1_455 S
Zn107 O108 2.032 . S
Zn107 O111 2.086 . S
Zn107 O116 1.977 . S
O108 Zn107 2.032 . S
O108 C112 1.278 . S
C109 O110 1.203 1_455 S
C109 O116 1.267 . S
O110 C109 1.203 1_655 S
O111 C104 1.185 1_556 S
O111 Zn107 2.086 . S
C112 O108 1.278 . S
C112 O113 1.211 . S
O113 C112 1.211 . S
C114 O106 1.284 . S
C114 O115 1.273 . S
O115 C114 1.273 . S
O116 Zn107 1.977 . S
O116 C109 1.267 . S
C117 O118 1.160 . S
C117 O124 1.185 . S
O118 C117 1.160 . S
O119 Zn120 1.899 . S
O119 C127 1.284 . S
Zn120 O119 1.899 . S
Zn120 O121 2.032 . S
Zn120 O124 2.086 . S
Zn120 O129 1.977 . S
O121 Zn120 2.032 . S
O121 C125 1.278 . S
C122 O123 1.203 . S
C122 O129 1.267 . S
O123 C122 1.203 . S
O124 C117 1.185 . S
O124 Zn120 2.086 . S
C125 O121 1.278 . S
C125 O126 1.211 . S
O126 C125 1.211 . S
C127 O119 1.284 . S
C127 O128 1.273 . S
O128 C127 1.273 . S
O129 Zn120 1.977 . S
O129 C122 1.267 . S
C130 O131 1.160 . S
C130 O137 1.185 . S
O131 C130 1.160 . S
O132 Zn133 1.899 1_565 S
O132 C140 1.284 . S
Zn133 O132 1.899 1_545 S
Zn133 O134 2.032 . S
Zn133 O137 2.086 . S
Zn133 O142 1.977 . S
O134 Zn133 2.032 . S
O134 C138 1.278 . S
C135 O136 1.203 1_545 S
C135 O142 1.267 . S
O136 C135 1.203 1_565 S
O137 C130 1.185 . S
O137 Zn133 2.086 . S
C138 O134 1.278 . S
C138 O139 1.211 . S
O139 C138 1.211 . S
C140 O132 1.284 . S
C140 O141 1.273 . S
O141 C140 1.273 . S
O142 Zn133 1.977 . S
O142 C135 1.267 . S
C143 O144 1.160 . S
C143 O150 1.185 . S
O144 C143 1.160 . S
O145 Zn146 1.899 1_455 S
O145 C153 1.284 . S
Zn146 O145 1.899 1_655 S
Zn146 O147 2.032 . S
Zn146 O150 2.086 . S
Zn146 O155 1.977 . S
O147 Zn146 2.032 . S
O147 C151 1.278 . S
C148 O149 1.203 1_655 S
C148 O155 1.267 . S
O149 C148 1.203 1_455 S
O150 C143 1.185 . S
O150 Zn146 2.086 . S
C151 O147 1.278 . S
C151 O152 1.211 . S
O152 C151 1.211 . S
C153 O145 1.284 . S
C153 O154 1.273 . S
O154 C153 1.273 . S
O155 Zn146 1.977 . S
O155 C148 1.267 . S
C156 O157 1.160 . S
C156 O163 1.185 . S
O157 C156 1.160 . S
O158 Zn159 1.899 . S
O158 C166 1.284 . S
Zn159 O158 1.899 . S
Zn159 O160 2.032 . S
Zn159 O163 2.086 . S
Zn159 O168 1.977 . S
O160 Zn159 2.032 . S
O160 C164 1.278 . S
C161 O162 1.203 . S
C161 O168 1.267 . S
O162 C161 1.203 . S
O163 C156 1.185 . S
O163 Zn159 2.086 . S
C164 O160 1.278 . S
C164 O165 1.211 . S
O165 C164 1.211 . S
C166 O158 1.284 . S
C166 O167 1.273 . S
O167 C166 1.273 . S
O168 Zn159 1.977 . S
O168 C161 1.267 . S
C169 O170 1.160 . S
C169 O176 1.185 . S
O170 C169 1.160 . S
O171 Zn172 1.899 . S
O171 C179 1.284 . S
Zn172 O171 1.899 . S
Zn172 O173 2.032 . S
Zn172 O176 2.086 . S
Zn172 O181 1.977 . S
O173 Zn172 2.032 . S
O173 C177 1.278 . S
C174 O175 1.203 . S
C174 O181 1.267 . S
O175 C174 1.203 . S
O176 C169 1.185 . S
O176 Zn172 2.086 . S
C177 O173 1.278 . S
C177 O178 1.211 . S
O178 C177 1.211 . S
C179 O171 1.284 . S
C179 O180 1.273 . S
O180 C179 1.273 . S
O181 Zn172 1.977 . S
O181 C174 1.267 . S
C182 O183 1.160 . S
C182 O189 1.185 . S
O183 C182 1.160 . S
O184 Zn185 1.899 . S
O184 C192 1.284 . S
Zn185 O184 1.899 . S
Zn185 O186 2.032 . S
Zn185 O189 2.086 . S
Zn185 O194 1.977 . S
O186 Zn185 2.032 . S
O186 C190 1.278 . S
C187 O188 1.203 . S
C187 O194 1.267 . S
O188 C187 1.203 . S
O189 C182 1.185 . S
O189 Zn185 2.086 . S
C190 O186 1.278 . S
C190 O191 1.211 . S
O191 C190 1.211 . S
C192 O184 1.284 . S
C192 O193 1.273 . S
O193 C192 1.273 . S
O194 Zn185 1.977 . S
O194 C187 1.267 . S
C195 O196 1.160 . S
C195 O202 1.185 . S
O196 C195 1.160 . S
O197 Zn198 1.899 . S
O197 C205 1.284 . S
Zn198 O197 1.899 . S
Zn198 O199 2.032 . S
Zn198 O202 2.086 . S
Zn198 O207 1.977 . S
O199 Zn198 2.032 . S
O199 C203 1.278 . S
C200 O201 1.203 . S
C200 O207 1.267 . S
O201 C200 1.203 . S
O202 C195 1.185 . S
O202 Zn198 2.086 . S
C203 O199 1.278 . S
C203 O204 1.211 . S
O204 C203 1.211 . S
C205 O197 1.284 . S
C205 O206 1.273 . S
O206 C205 1.273 . S
O207 Zn198 1.977 . S
O207 C200 1.267 . S
C208 O209 1.160 . S
C208 O215 1.185 . S
O209 C208 1.160 . S
O210 Zn211 1.899 . S
O210 C218 1.284 . S
Zn211 O210 1.899 . S
Zn211 O212 2.032 . S
Zn211 O215 2.086 . S
Zn211 O220 1.977 . S
O212 Zn211 2.032 . S
O212 C216 1.278 . S
C213 O214 1.203 . S
C213 O220 1.267 . S
O214 C213 1.203 . S
O215 C208 1.185 . S
O215 Zn211 2.086 . S
C216 O212 1.278 . S
C216 O217 1.211 . S
O217 C216 1.211 . S
C218 O210 1.284 . S
C218 O219 1.273 . S
O219 C218 1.273 . S
O220 Zn211 1.977 . S
O220 C213 1.267 . S
C221 O222 1.160 . S
C221 O228 1.185 . S
O222 C221 1.160 . S
O223 Zn224 1.899 . S
O223 C231 1.284 . S
Zn224 O223 1.899 . S
Zn224 O225 2.032 . S
Zn224 O228 2.086 . S
Zn224 O233 1.977 . S
O225 Zn224 2.032 . S
O225 C229 1.278 . S
C226 O227 1.203 . S
C226 O233 1.267 . S
O227 C226 1.203 . S
O228 C221 1.185 . S
O228 Zn224 2.086 . S
C229 O225 1.278 . S
C229 O230 1.211 . S
O230 C229 1.211 . S
C231 O223 1.284 . S
C231 O232 1.273 . S
O232 C231 1.273 . S
O233 Zn224 1.977 . S
O233 C226 1.267 . S
C234 O235 1.160 . S
C234 O241 1.185 . S
O235 C234 1.160 . S
O236 Zn237 1.899 . S
O236 C244 1.284 . S
Zn237 O236 1.899 . S
Zn237 O238 2.032 . S
Zn237 O241 2.086 . S
Zn237 O246 1.977 . S
O238 Zn237 2.032 . S
O238 C242 1.278 . S
C239 O240 1.203 . S
C239 O246 1.267 . S
O240 C239 1.203 . S
O241 C234 1.185 . S
O241 Zn237 2.086 . S
C242 O238 1.278 . S
C242 O243 1.211 . S
O243 C242 1.211 . S
C244 O236 1.284 . S
C244 O245 1.273 . S
O245 C244 1.273 . S
O246 Zn237 1.977 . S
O246 C239 1.267 . S
C247 O248 1.160 . S
C247 O254 1.185 . S
O248 C247 1.160 . S
O249 Zn250 1.899 . S
O249 C257 1.284 . S
Zn250 O249 1.899 . S
Zn250 O251 2.032 . S
Zn250 O254 2.086 . S
Zn250 O259 1.977 . S
O251 Zn250 2.032 . S
O251 C255 1.278 . S
C252 O253 1.203 . S
C252 O259 1.267 . S
O253 C252 1.203 . S
O254 C247 1.185 . S
O254 Zn250 2.086 . S
C255 O251 1.278 . S
C255 O256 1.211 . S
O256 C255 1.211 . S
C257 O249 1.284 . S
C257 O258 1.273 . S
O258 C257 1.273 . S
O259 Zn250 1.977 . S
O259 C252 1.267 . S
C260 O261 1.160 . S
C260 O267 1.185 . S
O261 C260 1.160 . S
O262 Zn263 1.899 . S
O262 C270 1.284 . S
Zn263 O262 1.899 . S
Zn263 O264 2.032 . S
Zn263 O267 2.086 . S
Zn263 O272 1.977 . S
O264 Zn263 2.032 . S
O264 C268 1.278 . S
C265 O266 1.203 . S
C265 O272 1.267 . S
O266 C265 1.203 . S
O267 C260 1.185 . S
O267 Zn263 2.086 . S
C268 O264 1.278 . S
C268 O269 1.211 . S
O269 C268 1.211 . S
C270 O262 1.284 . S
C270 O271 1.273 . S
O271 C270 1.273 . S
O272 Zn263 1.977 . S
O272 C265 1.267 . S
C273 O274 1.160 . S
C273 O280 1.185 . S
O274 C273 1.160 . S
O275 Zn276 1.899 . S
O275 C283 1.284 . S
Zn276 O275 1.899 . S
Zn276 O277 2.032 . S
Zn276 O280 2.086 . S
Zn276 O285 1.977 . S
O277 Zn276 2.032 . S
O277 C281 1.278 . S
C278 O279 1.203 . S
C278 O285 1.267 . S
O279 C278 1.203 . S
O280 C273 1.185 . S
O280 Zn276 2.086 . S
C281 O277 1.278 . S
C281 O282 1.211 . S
O282 C281 1.211 . S
C283 O275 1.284 . S
C283 O284 1.273 . S
O284 C283 1.273 . S
O285 Zn276 1.977 . S
O285 C278 1.267 . S
C286 O287 1.160 . S
C286 O293 1.185 . S
O287 C286 1.160 . S
O288 Zn289 1.899 . S
O288 C296 1.284 . S
Zn289 O288 1.899 . S
Zn289 O290 2.032 . S
Zn289 O293 2.086 . S
Zn289 O298 1.977 . S
O290 Zn289 2.032 . S
O290 C294 1.278 . S
C291 O292 1.203 . S
C291 O298 1.267 . S
O292 C291 1.203 . S
O293 C286 1.185 . S
O293 Zn289 2.086 . S
C294 O290 1.278 . S
C294 O295 1.211 . S
O295 C294 1.211 . S
C296 O288 1.284 . S
C296 O297 1.273 . S
O297 C296 1.273 . S
O298 Zn289 1.977 . S
O298 C291 1.267 . S
C299 O300 1.160 . S
C299 O306 1.185 . S
O300 C299 1.160 . S
O301 Zn302 1.899 . S
O301 C309 1.284 . S
Zn302 O301 1.899 . S
Zn302 O303 2.032 . S
Zn302 O306 2.086 . S
Zn302 O311 1.977 . S
O303 Zn302 2.032 . S
O303 C307 1.278 . S
C304 O305 1.203 . S
C304 O311 1.267 . S
O305 C304 1.203 . S
O306 C299 1.185 . S
O306 Zn302 2.086 . S
C307 O303 1.278 . S
C307 O308 1.211 . S
O308 C307 1.211 . S
C309 O301 1.284 . S
C309 O310 1.273 . S
O310 C309 1.273 . S
O311 Zn302 1.977 . S
O311 C304 1.267 . S
C312 O313 1.160 . S
C312 O319 1.185 . S
O313 C312 1.160 . S
O314 Zn315 1.899 . S
O314 C322 1.284 . S
Zn315 O314 1.899 . S
Zn315 O316 2.032 . S
Zn315 O319 2.086 . S
Zn315 O324 1.977 . S
O316 Zn315 2.032 . S
O316 C320 1.278 . S
C317 O318 1.203 . S
C317 O324 1.267 . S
O318 C317 1.203 . S
O319 C312 1.185 . S
O319 Zn315 2.086 . S
C320 O316 1.278 . S
C320 O321 1.211 . S
O321 C320 1.211 . S
C322 O314 1.284 . S
C322 O323 1.273 . S
O323 C322 1.273 . S
O324 Zn315 1.977 . S
O324 C317 1.267 . S
C325 O326 1.160 . S
C325 O332 1.185 . S
O326 C325 1.160 . S
O327 Zn328 1.899 . S
O327 C335 1.284 . S
Zn328 O327 1.899 . S
Zn328 O329 2.032 . S
Zn328 O332 2.086 . S
Zn328 O337 1.977 . S
O329 Zn328 2.032 . S
O329 C333 1.278 . S
C330 O331 1.203 . S
C330 O337 1.267 . S
O331 C330 1.203 . S
O332 C325 1.185 . S
O332 Zn328 2.086 . S
C333 O329 1.278 . S
C333 O334 1.211 . S
O334 C333 1.211 . S
C335 O327 1.284 . S
C335 O336 1.273 . S
O336 C335 1.273 . S
O337 Zn328 1.977 . S
O337 C330 1.267 . S
C338 O339 1.160 . S
C338 O345 1.185 . S
O339 C338 1.160 . S
O340 Zn341 1.899 . S
O340 C348 1.284 . S
Zn341 O340 1.899 . S
Zn341 O342 2.032 . S
Zn341 O345 2.086 . S
Zn341 O350 1.977 . S
O342 Zn341 2.032 . S
O342 C346 1.278 . S
C343 O344 1.203 . S
C343 O350 1.267 . S
O344 C343 1.203 . S
O345 C338 1.185 . S
O345 Zn341 2.086 . S
C346 O342 1.278 . S
C346 O347 1.211 . S
O347 C346 1.211 . S
C348 O340 1.284 . S
C348 O349 1.273 . S
O349 C348 1.273 . S
O350 Zn341 1.977 . S
O350 C343 1.267 . S
C351 O352 1.160 . S
C351 O358 1.185 . S
O352 C351 1.160 . S
O353 Zn354 1.899 . S
O353 C361 1.284 . S
Zn354 O353 1.899 . S
Zn354 O355 2.032 . S
Zn354 O358 2.086 . S
Zn354 O363 1.977 . S
O355 Zn354 2.032 . S
O355 C359 1.278 . S
C356 O357 1.203 . S
C356 O363 1.267 . S
O357 C356 1.203 . S
O358 C351 1.185 . S
O358 Zn354 2.086 . S
C359 O355 1.278 . S
C359 O360 1.211 . S
O360 C359 1.211 . S
C361 O353 1.284 . S
C361 O362 1.273 . S
O362 C361 1.273 . S
O363 Zn354 1.977 . S
O363 C356 1.267 . S
C364 O365 1.160 . S
C364 O371 1.185 . S
O365 C364 1.160 . S
O366 Zn367 1.899 . S
O366 C374 1.284 . S
Zn367 O366 1.899 . S
Zn367 O368 2.032 . S
Zn367 O371 2.086 . S
Zn367 O376 1.977 . S
O368 Zn367 2.032 . S
O368 C372 1.278 . S
C369 O370 1.203 . S
C369 O376 1.267 . S
O370 C369 1.203 . S
O371 C364 1.185 . S
O371 Zn367 2.086 . S
C372 O368 1.278 . S
C372 O373 1.211 . S
O373 C372 1.211 . S
C374 O366 1.284 . S
C374 O375 1.273 . S
O375 C374 1.273 . S
O376 Zn367 1.977 . S
O376 C369 1.267 . S
C377 O378 1.160 . S
C377 O384 1.185 . S
O378 C377 1.160 . S
O379 Zn380 1.899 . S
O379 C387 1.284 . S
Zn380 O379 1.899 . S
Zn380 O381 2.032 . S
Zn380 O384 2.086 . S
Zn380 O389 1.977 . S
O381 Zn380 2.032 . S
O381 C385 1.278 . S
C382 O383 1.203 . S
C382 O389 1.267 . S
O383 C382 1.203 . S
O384 C377 1.185 . S
O384 Zn380 2.086 . S
C385 O381 1.278 . S
C385 O386 1.211 . S
O386 C385 1.211 . S
C387 O379 1.284 . S
C387 O388 1.273 . S
O388 C387 1.273 . S
O389 Zn380 1.977 . S
O389 C382 1.267 . S
C390 O391 1.160 . S
C390 O397 1.185 . S
O391 C390 1.160 . S
O392 Zn393 1.899 . S
O392 C400 1.284 . S
Zn393 O392 1.899 . S
Zn393 O394 2.032 . S
Zn393 O397 2.086 . S
Zn393 O402 1.977 . S
O394 Zn393 2.032 . S
O394 C398 1.278 . S
C395 O396 1.203 . S
C395 O402 1.267 . S
O396 C395 1.203 . S
O397 C390 1.185 . S
O397 Zn393 2.086 . S
C398 O394 1.278 . S
C398 O399 1.211 . S
O399 C398 1.211 . S
C400 O392 1.284 . S
C400 O401 1.273 . S
O401 C400 1.273 . S
O402 Zn393 1.977 . S
O402 C395 1.267 . S
C403 O404 1.160 . S
C403 O410 1.185 . S
O404 C403 1.160 . S
O405 Zn406 1.899 . S
O405 C413 1.284 . S
Zn406 O405 1.899 . S
Zn406 O407 2.032 . S
Zn406 O410 2.086 . S
Zn406 O415 1.977 . S
O407 Zn406 2.032 . S
O407 C411 1.278 . S
C408 O409 1.203 . S
C408 O415 1.267 . S
O409 C408 1.203 . S
O410 C403 1.185 . S
O410 Zn406 2.086 . S
C411 O407 1.278 . S
C411 O412 1.211 . S
O412 C411 1.211 . S
C413 O405 1.284 . S
C413 O414 1.273 . S
O414 C413 1.273 . S
O415 Zn406 1.977 . S
O415 C408 1.267 . S
C416 O417 1.160 . S
C416 O423 1.185 . S
O417 C416 1.160 . S
O418 Zn419 1.899 . S
O418 C426 1.284 . S
Zn419 O418 1.899 . S
Zn419 O420 2.032 . S
Zn419 O423 2.086 . S
Zn419 O428 1.977 . S
O420 Zn419 2.032 . S
O420 C424 1.278 . S
C421 O422 1.203 . S
C421 O428 1.267 . S
O422 C421 1.203 . S
O423 C416 1.185 . S
O423 Zn419 2.086 . S
C424 O420 1.278 . S
C424 O425 1.211 . S
O425 C424 1.211 . S
C426 O418 1.284 . S
C426 O427 1.273 . S
O427 C426 1.273 . S
O428 Zn419 1.977 . S
O428 C421 1.267 . S
C429 O430 1.160 . S
C429 O436 1.185 . S
O430 C429 1.160 . S
O431 Zn432 1.899 . S
O431 C439 1.284 . S
Zn432 O431 1.899 . S
Zn432 O433 2.032 . S
Zn432 O436 2.086 . S
Zn432 O441 1.977 . S
O433 Zn432 2.032 . S
O433 C437 1.278 . S
C434 O435 1.203 . S
C434 O441 1.267 . S
O435 C434 1.203 . S
O436 C429 1.185 . S
O436 Zn432 2.086 . S
C437 O433 1.278 . S
C437 O438 1.211 . S
O438 C437 1.211 . S
C439 O431 1.284 . S
C439 O440 1.273 . S
O440 C439 1.273 . S
O441 Zn432 1.977 . S
O441 C434 1.267 . S
C442 O443 1.160 . S
C442 O449 1.185 . S
O443 C442 1.160 . S
O444 Zn445 1.899 . S
O444 C452 1.284 . S
Zn445 O444 1.899 . S
Zn445 O446 2.032 . S
Zn445 O449 2.086 . S
Zn445 O454 1.977 . S
O446 Zn445 2.032 . S
O446 C450 1.278 . S
C447 O448 1.203 . S
C447 O454 1.267 . S
O448 C447 1.203 . S
O449 C442 1.185 . S
O449 Zn445 2.086 . S
C450 O446 1.278 . S
C450 O451 1.211 . S
O451 C450 1.211 . S
C452 O444 1.284 . S
C452 O453 1.273 . S
O453 C452 1.273 . S
O454 Zn445 1.977 . S
O454 C447 1.267 . S
C455 O456 1.160 . S
C455 O462 1.185 . S
O456 C455 1.160 . S
O457 Zn458 1.899 . S
O457 C465 1.284 . S
Zn458 O457 1.899 . S
Zn458 O459 2.032 . S
Zn458 O462 2.086 . S
Zn458 O467 1.977 . S
O459 Zn458 2.032 . S
O459 C463 1.278 . S
C460 O461 1.203 . S
C460 O467 1.267 . S
O461 C460 1.203 . S
O462 C455 1.185 . S
O462 Zn458 2.086 . S
C463 O459 1.278 . S
C463 O464 1.211 . S
O464 C463 1.211 . S
C465 O457 1.284 . S
C465 O466 1.273 . S
O466 C465 1.273 . S
O467 Zn458 1.977 . S
O467 C460 1.267 . S
H468 C474 0.930 . S
H469 C477 0.930 . S
H470 C478 0.930 . S
H471 C479 0.930 . S
H472 C482 0.930 1_554 S
H473 C483 0.930 . S
C474 H468 0.930 . S
C474 C475 1.355 . S
C474 C476 1.415 . S
C475 C474 1.355 . S
C475 C477 1.419 . S
C476 C474 1.415 . S
C476 C481 1.425 . S
C476 C483 1.409 . S
C477 H469 0.930 . S
C477 C475 1.419 . S
C477 C478 1.362 . S
C478 H470 0.930 . S
C478 C477 1.362 . S
C478 C481 1.409 . S
C479 H471 0.930 . S
C479 C480 1.355 . S
C479 C481 1.415 . S
C480 C479 1.355 . S
C480 C482 1.419 . S
C481 C476 1.425 . S
C481 C478 1.409 . S
C481 C479 1.415 . S
C482 H472 0.930 1_556 S
C482 C480 1.419 . S
C482 C483 1.362 . S
C483 H473 0.930 . S
C483 C476 1.409 . S
C483 C482 1.362 . S
H484 C490 0.930 . S
H485 C493 0.930 . S
H486 C494 0.930 . S
H487 C495 0.930 . S
H488 C498 0.930 . S
H489 C499 0.930 . S
C490 H484 0.930 . S
C490 C491 1.355 . S
C490 C492 1.415 . S
C491 C490 1.355 . S
C491 C493 1.419 . S
C492 C490 1.415 . S
C492 C497 1.425 . S
C492 C499 1.409 . S
C493 H485 0.930 . S
C493 C491 1.419 . S
C493 C494 1.362 . S
C494 H486 0.930 . S
C494 C493 1.362 . S
C494 C497 1.409 . S
C495 H487 0.930 . S
C495 C496 1.355 . S
C495 C497 1.415 . S
C496 C495 1.355 . S
C496 C498 1.419 . S
C497 C492 1.425 . S
C497 C494 1.409 . S
C497 C495 1.415 . S
C498 H488 0.930 . S
C498 C496 1.419 . S
C498 C499 1.362 . S
C499 H489 0.930 . S
C499 C492 1.409 . S
C499 C498 1.362 . S
H500 C506 0.930 . S
H501 C509 0.930 1_554 S
H502 C510 0.930 . S
H503 C511 0.930 . S
H504 C514 0.930 . S
H505 C515 0.930 . S
C506 H500 0.930 . S
C506 C507 1.355 . S
C506 C508 1.415 . S
C507 C506 1.355 . S
C507 C509 1.419 . S
C508 C506 1.415 . S
C508 C513 1.425 . S
C508 C515 1.409 . S
C509 H501 0.930 1_556 S
C509 C507 1.419 . S
C509 C510 1.362 . S
C510 H502 0.930 . S
C510 C509 1.362 . S
C510 C513 1.409 . S
C511 H503 0.930 . S
C511 C512 1.355 . S
C511 C513 1.415 . S
C512 C511 1.355 . S
C512 C514 1.419 . S
C513 C508 1.425 . S
C513 C510 1.409 . S
C513 C511 1.415 . S
C514 H504 0.930 . S
C514 C512 1.419 . S
C514 C515 1.362 . S
C515 H505 0.930 . S
C515 C508 1.409 . S
C515 C514 1.362 . S
H516 C522 0.930 . S
H517 C525 0.930 . S
H518 C526 0.930 . S
H519 C527 0.930 . S
H520 C530 0.930 . S
H521 C531 0.930 . S
C522 H516 0.930 . S
C522 C523 1.355 . S
C522 C524 1.415 . S
C523 C522 1.355 . S
C523 C525 1.419 . S
C524 C522 1.415 . S
C524 C529 1.425 . S
C524 C531 1.409 . S
C525 H517 0.930 . S
C525 C523 1.419 . S
C525 C526 1.362 . S
C526 H518 0.930 . S
C526 C525 1.362 . S
C526 C529 1.409 . S
C527 H519 0.930 . S
C527 C528 1.355 . S
C527 C529 1.415 . S
C528 C527 1.355 . S
C528 C530 1.419 . S
C529 C524 1.425 . S
C529 C526 1.409 . S
C529 C527 1.415 . S
C530 H520 0.930 . S
C530 C528 1.419 . S
C530 C531 1.362 . S
C531 H521 0.930 . S
C531 C524 1.409 . S
C531 C530 1.362 . S
H532 C538 0.930 . S
H533 C541 0.930 . S
H534 C542 0.930 . S
H535 C543 0.930 . S
H536 C546 0.930 . S
H537 C547 0.930 . S
C538 H532 0.930 . S
C538 C539 1.355 . S
C538 C540 1.415 . S
C539 C538 1.355 . S
C539 C541 1.419 . S
C540 C538 1.415 . S
C540 C545 1.425 . S
C540 C547 1.409 . S
C541 H533 0.930 . S
C541 C539 1.419 . S
C541 C542 1.362 . S
C542 H534 0.930 . S
C542 C541 1.362 . S
C542 C545 1.409 . S
C543 H535 0.930 . S
C543 C544 1.355 . S
C543 C545 1.415 . S
C544 C543 1.355 . S
C544 C546 1.419 . S
C545 C540 1.425 . S
C545 C542 1.409 . S
C545 C543 1.415 . S
C546 H536 0.930 . S
C546 C544 1.419 . S
C546 C547 1.362 . S
C547 H537 0.930 . S
C547 C540 1.409 . S
C547 C546 1.362 . S
H548 C554 0.930 . S
H549 C557 0.930 . S
H550 C558 0.930 . S
H551 C559 0.930 . S
H552 C562 0.930 . S
H553 C563 0.930 . S
C554 H548 0.930 . S
C554 C555 1.355 . S
C554 C556 1.415 . S
C555 C554 1.355 . S
C555 C557 1.419 . S
C556 C554 1.415 . S
C556 C561 1.425 . S
C556 C563 1.409 . S
C557 H549 0.930 . S
C557 C555 1.419 . S
C557 C558 1.362 . S
C558 H550 0.930 . S
C558 C557 1.362 . S
C558 C561 1.409 . S
C559 H551 0.930 . S
C559 C560 1.355 . S
C559 C561 1.415 . S
C560 C559 1.355 . S
C560 C562 1.419 . S
C561 C556 1.425 . S
C561 C558 1.409 . S
C561 C559 1.415 . S
C562 H552 0.930 . S
C562 C560 1.419 . S
C562 C563 1.362 . S
C563 H553 0.930 . S
C563 C556 1.409 . S
C563 C562 1.362 . S
H564 C570 0.930 . S
H565 C573 0.930 . S
H566 C574 0.930 . S
H567 C575 0.930 . S
H568 C578 0.930 . S
H569 C579 0.930 . S
C570 H564 0.930 . S
C570 C571 1.355 . S
C570 C572 1.415 . S
C571 C570 1.355 . S
C571 C573 1.419 . S
C572 C570 1.415 . S
C572 C577 1.425 . S
C572 C579 1.409 . S
C573 H565 0.930 . S
C573 C571 1.419 . S
C573 C574 1.362 . S
C574 H566 0.930 . S
C574 C573 1.362 . S
C574 C577 1.409 . S
C575 H567 0.930 . S
C575 C576 1.355 . S
C575 C577 1.415 . S
C576 C575 1.355 . S
C576 C578 1.419 . S
C577 C572 1.425 . S
C577 C574 1.409 . S
C577 C575 1.415 . S
C578 H568 0.930 . S
C578 C576 1.419 . S
C578 C579 1.362 . S
C579 H569 0.930 . S
C579 C572 1.409 . S
C579 C578 1.362 . S
H580 C586 0.930 . S
H581 C589 0.930 . S
H582 C590 0.930 . S
H583 C591 0.930 . S
H584 C594 0.930 . S
H585 C595 0.930 . S
C586 H580 0.930 . S
C586 C587 1.355 . S
C586 C588 1.415 . S
C587 C586 1.355 . S
C587 C589 1.419 . S
C588 C586 1.415 . S
C588 C593 1.425 . S
C588 C595 1.409 . S
C589 H581 0.930 . S
C589 C587 1.419 . S
C589 C590 1.362 . S
C590 H582 0.930 . S
C590 C589 1.362 . S
C590 C593 1.409 . S
C591 H583 0.930 . S
C591 C592 1.355 . S
C591 C593 1.415 . S
C592 C591 1.355 . S
C592 C594 1.419 . S
C593 C588 1.425 . S
C593 C590 1.409 . S
C593 C591 1.415 . S
C594 H584 0.930 . S
C594 C592 1.419 . S
C594 C595 1.362 . S
C595 H585 0.930 . S
C595 C588 1.409 . S
C595 C594 1.362 . S
H596 C602 0.930 . S
H597 C605 0.930 . S
H598 C606 0.930 . S
H599 C607 0.930 . S
H600 C610 0.930 1_556 S
H601 C611 0.930 . S
C602 H596 0.930 . S
C602 C603 1.355 . S
C602 C604 1.415 . S
C603 C602 1.355 . S
C603 C605 1.419 . S
C604 C602 1.415 . S
C604 C609 1.425 . S
C604 C611 1.409 . S
C605 H597 0.930 . S
C605 C603 1.419 . S
C605 C606 1.362 . S
C606 H598 0.930 . S
C606 C605 1.362 . S
C606 C609 1.409 . S
C607 H599 0.930 . S
C607 C608 1.355 . S
C607 C609 1.415 . S
C608 C607 1.355 . S
C608 C610 1.419 . S
C609 C604 1.425 . S
C609 C606 1.409 . S
C609 C607 1.415 . S
C610 H600 0.930 1_554 S
C610 C608 1.419 . S
C610 C611 1.362 . S
C611 H601 0.930 . S
C611 C604 1.409 . S
C611 C610 1.362 . S
H612 C618 0.930 . S
H613 C621 0.930 . S
H614 C622 0.930 . S
H615 C623 0.930 . S
H616 C626 0.930 . S
H617 C627 0.930 . S
C618 H612 0.930 . S
C618 C619 1.355 . S
C618 C620 1.415 . S
C619 C618 1.355 . S
C619 C621 1.419 . S
C620 C618 1.415 . S
C620 C625 1.425 . S
C620 C627 1.409 . S
C621 H613 0.930 . S
C621 C619 1.419 . S
C621 C622 1.362 . S
C622 H614 0.930 . S
C622 C621 1.362 . S
C622 C625 1.409 . S
C623 H615 0.930 . S
C623 C624 1.355 . S
C623 C625 1.415 . S
C624 C623 1.355 . S
C624 C626 1.419 . S
C625 C620 1.425 . S
C625 C622 1.409 . S
C625 C623 1.415 . S
C626 H616 0.930 . S
C626 C624 1.419 . S
C626 C627 1.362 . S
C627 H617 0.930 . S
C627 C620 1.409 . S
C627 C626 1.362 . S
H628 C634 0.930 . S
H629 C637 0.930 . S
H630 C638 0.930 . S
H631 C639 0.930 . S
H632 C642 0.930 . S
H633 C643 0.930 . S
C634 H628 0.930 . S
C634 C635 1.355 . S
C634 C636 1.415 . S
C635 C634 1.355 . S
C635 C637 1.419 . S
C636 C634 1.415 . S
C636 C641 1.425 . S
C636 C643 1.409 . S
C637 H629 0.930 . S
C637 C635 1.419 . S
C637 C638 1.362 . S
C638 H630 0.930 . S
C638 C637 1.362 . S
C638 C641 1.409 . S
C639 H631 0.930 . S
C639 C640 1.355 . S
C639 C641 1.415 . S
C640 C639 1.355 . S
C640 C642 1.419 . S
C641 C636 1.425 . S
C641 C638 1.409 . S
C641 C639 1.415 . S
C642 H632 0.930 . S
C642 C640 1.419 . S
C642 C643 1.362 . S
C643 H633 0.930 . S
C643 C636 1.409 . S
C643 C642 1.362 . S
H644 C650 0.930 . S
H645 C653 0.930 . S
H646 C654 0.930 . S
H647 C655 0.930 . S
H648 C658 0.930 . S
H649 C659 0.930 . S
C650 H644 0.930 . S
C650 C651 1.355 . S
C650 C652 1.415 . S
C651 C650 1.355 . S
C651 C653 1.419 . S
C652 C650 1.415 . S
C652 C657 1.425 . S
C652 C659 1.409 . S
C653 H645 0.930 . S
C653 C651 1.419 . S
C653 C654 1.362 . S
C654 H646 0.930 . S
C654 C653 1.362 . S
C654 C657 1.409 . S
C655 H647 0.930 . S
C655 C656 1.355 . S
C655 C657 1.415 . S
C656 C655 1.355 . S
C656 C658 1.419 . S
C657 C652 1.425 . S
C657 C654 1.409 . S
C657 C655 1.415 . S
C658 H648 0.930 . S
C658 C656 1.419 . S
C658 C659 1.362 . S
C659 H649 0.930 . S
C659 C652 1.409 . S
C659 C658 1.362 . S
H660 C666 0.930 . S
H661 C669 0.930 . S
H662 C670 0.930 . S
H663 C671 0.930 . S
H664 C674 0.930 . S
H665 C675 0.930 . S
C666 H660 0.930 . S
C666 C667 1.355 . S
C666 C668 1.415 . S
C667 C666 1.355 . S
C667 C669 1.419 . S
C668 C666 1.415 . S
C668 C673 1.425 1_455 S
C668 C675 1.409 . S
C669 H661 0.930 . S
C669 C667 1.419 . S
C669 C670 1.362 1_455 S
C670 H662 0.930 . S
C670 C669 1.362 1_655 S
C670 C673 1.409 . S
C671 H663 0.930 . S
C671 C672 1.355 . S
C671 C673 1.415 . S
C672 C671 1.355 . S
C672 C674 1.419 . S
C673 C668 1.425 1_655 S
C673 C670 1.409 . S
C673 C671 1.415 . S
C674 H664 0.930 . S
C674 C672 1.419 . S
C674 C675 1.362 1_655 S
C675 H665 0.930 . S
C675 C668 1.409 . S
C675 C674 1.362 1_455 S
H676 C682 0.930 . S
H677 C685 0.930 . S
H678 C686 0.930 . S
H679 C687 0.930 . S
H680 C690 0.930 . S
H681 C691 0.930 . S
C682 H676 0.930 . S
C682 C683 1.355 . S
C682 C684 1.415 . S
C683 C682 1.355 . S
C683 C685 1.419 . S
C684 C682 1.415 . S
C684 C689 1.425 . S
C684 C691 1.409 . S
C685 H677 0.930 . S
C685 C683 1.419 . S
C685 C686 1.362 . S
C686 H678 0.930 . S
C686 C685 1.362 . S
C686 C689 1.409 . S
C687 H679 0.930 . S
C687 C688 1.355 . S
C687 C689 1.415 . S
C688 C687 1.355 . S
C688 C690 1.419 . S
C689 C684 1.425 . S
C689 C686 1.409 . S
C689 C687 1.415 . S
C690 H680 0.930 . S
C690 C688 1.419 . S
C690 C691 1.362 . S
C691 H681 0.930 . S
C691 C684 1.409 . S
C691 C690 1.362 . S
H692 C698 0.930 . S
H693 C701 0.930 . S
H694 C702 0.930 . S
H695 C703 0.930 . S
H696 C706 0.930 . S
H697 C707 0.930 . S
C698 H692 0.930 . S
C698 C699 1.355 . S
C698 C700 1.415 1_565 S
C699 C698 1.355 . S
C699 C701 1.419 . S
C700 C698 1.415 1_545 S
C700 C705 1.425 1_545 S
C700 C707 1.409 . S
C701 H693 0.930 . S
C701 C699 1.419 . S
C701 C702 1.362 . S
C702 H694 0.930 . S
C702 C701 1.362 . S
C702 C705 1.409 . S
C703 H695 0.930 . S
C703 C704 1.355 . S
C703 C705 1.415 1_545 S
C704 C703 1.355 . S
C704 C706 1.419 . S
C705 C700 1.425 1_565 S
C705 C702 1.409 . S
C705 C703 1.415 1_565 S
C706 H696 0.930 . S
C706 C704 1.419 . S
C706 C707 1.362 . S
C707 H697 0.930 . S
C707 C700 1.409 . S
C707 C706 1.362 . S
H708 C714 0.930 . S
H709 C717 0.930 . S
H710 C718 0.910 1_545 S
H711 C719 0.930 . S
H712 C722 0.930 . S
H713 C723 0.909 1_565 S
C714 H708 0.930 . S
C714 C715 1.355 . S
C714 C716 1.415 . S
C715 C714 1.355 . S
C715 C717 1.419 . S
C716 C714 1.415 . S
C716 C721 1.425 1_565 S
C716 C723 1.409 1_565 S
C717 H709 0.930 . S
C717 C715 1.419 . S
C717 C718 1.362 . S
C718 H710 0.910 1_565 S
C718 C717 1.362 . S
C718 C721 1.409 1_565 S
C719 H711 0.930 . S
C719 C720 1.355 . S
C719 C721 1.415 . S
C720 C719 1.355 . S
C720 C722 1.419 . S
C721 C716 1.425 1_545 S
C721 C718 1.409 1_545 S
C721 C719 1.415 . S
C722 H712 0.930 . S
C722 C720 1.419 . S
C722 C723 1.362 . S
C723 H713 0.909 1_545 S
C723 C716 1.409 1_545 S
C723 C722 1.362 . S
H724 C730 0.930 . S
H725 C733 0.930 . S
H726 C734 0.930 . S
H727 C735 0.930 . S
H728 C738 0.930 . S
H729 C739 0.930 . S
C730 H724 0.930 . S
C730 C731 1.355 . S
C730 C732 1.415 . S
C731 C730 1.355 . S
C731 C733 1.419 . S
C732 C730 1.415 . S
C732 C737 1.425 1_455 S
C732 C739 1.409 1_455 S
C733 H725 0.930 . S
C733 C731 1.419 . S
C733 C734 1.362 . S
C734 H726 0.930 . S
C734 C733 1.362 . S
C734 C737 1.409 1_455 S
C735 H727 0.930 . S
C735 C736 1.355 . S
C735 C737 1.415 . S
C736 C735 1.355 . S
C736 C738 1.419 . S
C737 C732 1.425 1_655 S
C737 C734 1.409 1_655 S
C737 C735 1.415 . S
C738 H728 0.930 . S
C738 C736 1.419 . S
C738 C739 1.362 . S
C739 H729 0.930 . S
C739 C732 1.409 1_655 S
C739 C738 1.362 . S
H740 C746 0.930 . S
H741 C749 0.930 . S
H742 C750 0.930 . S
H743 C751 0.930 . S
H744 C754 0.930 . S
H745 C755 0.930 . S
C746 H740 0.930 . S
C746 C747 1.355 . S
C746 C748 1.415 . S
C747 C746 1.355 . S
C747 C749 1.419 . S
C748 C746 1.415 . S
C748 C753 1.425 . S
C748 C755 1.409 . S
C749 H741 0.930 . S
C749 C747 1.419 . S
C749 C750 1.362 . S
C750 H742 0.930 . S
C750 C749 1.362 . S
C750 C753 1.409 . S
C751 H743 0.930 . S
C751 C752 1.355 . S
C751 C753 1.415 . S
C752 C751 1.355 . S
C752 C754 1.419 . S
C753 C748 1.425 . S
C753 C750 1.409 . S
C753 C751 1.415 . S
C754 H744 0.930 . S
C754 C752 1.419 . S
C754 C755 1.362 . S
C755 H745 0.930 . S
C755 C748 1.409 . S
C755 C754 1.362 . S
H756 C762 0.930 . S
H757 C765 0.930 . S
H758 C766 0.930 . S
H759 C767 0.930 . S
H760 C770 0.930 . S
H761 C771 0.930 . S
C762 H756 0.930 . S
C762 C763 1.355 . S
C762 C764 1.415 . S
C763 C762 1.355 . S
C763 C765 1.419 1_556 S
C764 C762 1.415 . S
C764 C769 1.425 1_556 S
C764 C771 1.409 . S
C765 H757 0.930 . S
C765 C763 1.419 1_554 S
C765 C766 1.362 . S
C766 H758 0.930 . S
C766 C765 1.362 . S
C766 C769 1.409 . S
C767 H759 0.930 . S
C767 C768 1.355 . S
C767 C769 1.415 . S
C768 C767 1.355 . S
C768 C770 1.419 1_554 S
C769 C764 1.425 1_554 S
C769 C766 1.409 . S
C769 C767 1.415 . S
C770 H760 0.930 . S
C770 C768 1.419 1_556 S
C770 C771 1.362 . S
C771 H761 0.930 . S
C771 C764 1.409 . S
C771 C770 1.362 . S
H772 C778 0.930 . S
H773 C781 0.930 . S
H774 C782 0.930 . S
H775 C783 0.930 . S
H776 C786 0.930 . S
H777 C787 0.930 . S
C778 H772 0.930 . S
C778 C779 1.355 . S
C778 C780 1.415 . S
C779 C778 1.355 . S
C779 C781 1.419 1_556 S
C780 C778 1.415 . S
C780 C785 1.425 1_556 S
C780 C787 1.409 . S
C781 H773 0.930 . S
C781 C779 1.419 1_554 S
C781 C782 1.362 . S
C782 H774 0.930 . S
C782 C781 1.362 . S
C782 C785 1.409 . S
C783 H775 0.930 . S
C783 C784 1.355 . S
C783 C785 1.415 . S
C784 C783 1.355 . S
C784 C786 1.419 1_554 S
C785 C780 1.425 1_554 S
C785 C782 1.409 . S
C785 C783 1.415 . S
C786 H776 0.930 . S
C786 C784 1.419 1_556 S
C786 C787 1.362 . S
C787 H777 0.930 . S
C787 C780 1.409 . S
C787 C786 1.362 . S
H788 C794 0.930 . S
H789 C797 0.930 . S
H790 C798 0.930 . S
H791 C799 0.930 . S
H792 C802 0.930 . S
H793 C803 0.930 . S
C794 H788 0.930 . S
C794 C795 1.355 1_554 S
C794 C796 1.415 . S
C795 C794 1.355 1_556 S
C795 C797 1.419 . S
C796 C794 1.415 . S
C796 C801 1.425 1_554 S
C796 C803 1.409 . S
C797 H789 0.930 . S
C797 C795 1.419 . S
C797 C798 1.362 . S
C798 H790 0.930 . S
C798 C797 1.362 . S
C798 C801 1.409 . S
C799 H791 0.930 . S
C799 C800 1.355 1_556 S
C799 C801 1.415 . S
C800 C799 1.355 1_554 S
C800 C802 1.419 . S
C801 C796 1.425 1_556 S
C801 C798 1.409 . S
C801 C799 1.415 . S
C802 H792 0.930 . S
C802 C800 1.419 . S
C802 C803 1.362 . S
C803 H793 0.930 . S
C803 C796 1.409 . S
C803 C802 1.362 . S
H804 C810 0.930 . S
H805 C813 0.930 . S
H806 C814 0.930 . S
H807 C815 0.930 . S
H808 C818 0.930 . S
H809 C819 0.930 . S
C810 H804 0.930 . S
C810 C811 1.355 . S
C810 C812 1.415 . S
C811 C810 1.355 . S
C811 C813 1.419 . S
C812 C810 1.415 . S
C812 C817 1.425 . S
C812 C819 1.409 . S
C813 H805 0.930 . S
C813 C811 1.419 . S
C813 C814 1.362 . S
C814 H806 0.930 . S
C814 C813 1.362 . S
C814 C817 1.409 . S
C815 H807 0.930 . S
C815 C816 1.355 . S
C815 C817 1.415 . S
C816 C815 1.355 . S
C816 C818 1.419 . S
C817 C812 1.425 . S
C817 C814 1.409 . S
C817 C815 1.415 . S
C818 H808 0.930 . S
C818 C816 1.419 . S
C818 C819 1.362 . S
C819 H809 0.930 . S
C819 C812 1.409 . S
C819 C818 1.362 . S
H820 C826 0.930 . S
H821 C829 0.930 . S
H822 C830 0.930 . S
H823 C831 0.930 . S
H824 C834 0.930 . S
H825 C835 0.930 . S
C826 H820 0.930 . S
C826 C827 1.355 . S
C826 C828 1.415 . S
C827 C826 1.355 . S
C827 C829 1.419 . S
C828 C826 1.415 . S
C828 C833 1.425 . S
C828 C835 1.409 . S
C829 H821 0.930 . S
C829 C827 1.419 . S
C829 C830 1.362 . S
C830 H822 0.930 . S
C830 C829 1.362 . S
C830 C833 1.409 . S
C831 H823 0.930 . S
C831 C832 1.355 . S
C831 C833 1.415 . S
C832 C831 1.355 . S
C832 C834 1.419 . S
C833 C828 1.425 . S
C833 C830 1.409 . S
C833 C831 1.415 . S
C834 H824 0.930 . S
C834 C832 1.419 . S
C834 C835 1.362 . S
C835 H825 0.930 . S
C835 C828 1.409 . S
C835 C834 1.362 . S
H836 C842 0.930 . S
H837 C845 0.930 . S
H838 C846 0.930 . S
H839 C847 0.930 . S
H840 C850 0.930 . S
H841 C851 0.930 . S
C842 H836 0.930 . S
C842 C843 1.355 . S
C842 C844 1.415 . S
C843 C842 1.355 . S
C843 C845 1.419 . S
C844 C842 1.415 . S
C844 C849 1.425 . S
C844 C851 1.409 . S
C845 H837 0.930 . S
C845 C843 1.419 . S
C845 C846 1.362 . S
C846 H838 0.930 . S
C846 C845 1.362 . S
C846 C849 1.409 . S
C847 H839 0.930 . S
C847 C848 1.355 . S
C847 C849 1.415 . S
C848 C847 1.355 . S
C848 C850 1.419 . S
C849 C844 1.425 . S
C849 C846 1.409 . S
C849 C847 1.415 . S
C850 H840 0.930 . S
C850 C848 1.419 . S
C850 C851 1.362 . S
C851 H841 0.930 . S
C851 C844 1.409 . S
C851 C850 1.362 . S
H852 C858 0.930 . S
H853 C861 0.930 . S
H854 C862 0.930 . S
H855 C863 0.930 . S
H856 C866 0.930 . S
H857 C867 0.930 . S
C858 H852 0.930 . S
C858 C859 1.355 . S
C858 C860 1.415 . S
C859 C858 1.355 . S
C859 C861 1.419 1_554 S
C860 C858 1.415 . S
C860 C865 1.425 1_554 S
C860 C867 1.409 . S
C861 H853 0.930 . S
C861 C859 1.419 1_556 S
C861 C862 1.362 . S
C862 H854 0.930 . S
C862 C861 1.362 . S
C862 C865 1.409 . S
C863 H855 0.930 . S
C863 C864 1.355 . S
C863 C865 1.415 . S
C864 C863 1.355 . S
C864 C866 1.419 1_556 S
C865 C860 1.425 1_556 S
C865 C862 1.409 . S
C865 C863 1.415 . S
C866 H856 0.930 . S
C866 C864 1.419 1_554 S
C866 C867 1.362 . S
C867 H857 0.930 . S
C867 C860 1.409 . S
C867 C866 1.362 . S
H868 C874 0.930 . S
H869 C877 0.930 . S
H870 C878 0.930 . S
H871 C879 0.930 . S
H872 C882 0.930 . S
H873 C883 0.930 . S
C874 H868 0.930 . S
C874 C875 1.355 . S
C874 C876 1.415 . S
C875 C874 1.355 . S
C875 C877 1.419 . S
C876 C874 1.415 . S
C876 C881 1.425 . S
C876 C883 1.412 . S
C877 H869 0.930 . S
C877 C875 1.419 . S
C877 C878 1.362 . S
C878 H870 0.930 . S
C878 C877 1.362 . S
C878 C881 1.409 . S
C879 H871 0.930 . S
C879 C880 1.355 . S
C879 C881 1.415 1_554 S
C880 C879 1.355 . S
C880 C882 1.419 . S
C881 C876 1.425 . S
C881 C878 1.409 . S
C881 C879 1.415 1_556 S
C882 H872 0.930 . S
C882 C880 1.419 . S
C882 C883 1.359 1_554 S
C883 H873 0.930 . S
C883 C876 1.412 . S
C883 C882 1.359 1_556 S
H884 C890 0.930 . S
H885 C893 0.930 . S
H886 C894 0.930 . S
H887 C895 0.930 . S
H888 C898 0.930 . S
H889 C899 0.930 . S
C890 H884 0.930 . S
C890 C891 1.355 . S
C890 C892 1.415 . S
C891 C890 1.355 . S
C891 C893 1.419 1_554 S
C892 C890 1.415 . S
C892 C897 1.425 1_554 S
C892 C899 1.409 . S
C893 H885 0.930 . S
C893 C891 1.419 1_556 S
C893 C894 1.362 . S
C894 H886 0.930 . S
C894 C893 1.362 . S
C894 C897 1.409 . S
C895 H887 0.930 . S
C895 C896 1.355 . S
C895 C897 1.415 . S
C896 C895 1.355 . S
C896 C898 1.419 1_556 S
C897 C892 1.425 1_556 S
C897 C894 1.409 . S
C897 C895 1.415 . S
C898 H888 0.930 . S
C898 C896 1.419 1_554 S
C898 C899 1.362 . S
C899 H889 0.930 . S
C899 C892 1.409 . S
C899 C898 1.362 . S
H900 C906 0.930 . S
H901 C909 0.930 . S
H902 C910 0.930 . S
H903 C911 0.930 . S
H904 C914 0.930 . S
H905 C915 0.930 . S
C906 H900 0.930 . S
C906 C907 1.355 . S
C906 C908 1.415 . S
C907 C906 1.355 . S
C907 C909 1.419 . S
C908 C906 1.415 . S
C908 C913 1.425 . S
C908 C915 1.409 . S
C909 H901 0.930 . S
C909 C907 1.419 . S
C909 C910 1.362 . S
C910 H902 0.930 . S
C910 C909 1.362 . S
C910 C913 1.409 . S
C911 H903 0.930 . S
C911 C912 1.355 . S
C911 C913 1.415 . S
C912 C911 1.355 . S
C912 C914 1.419 . S
C913 C908 1.425 . S
C913 C910 1.409 . S
C913 C911 1.415 . S
C914 H904 0.930 . S
C914 C912 1.419 . S
C914 C915 1.362 . S
C915 H905 0.930 . S
C915 C908 1.409 . S
C915 C914 1.362 . S
H916 C922 0.930 . S
H917 C925 0.930 . S
H918 C926 0.930 . S
H919 C927 0.930 . S
H920 C930 0.930 . S
H921 C931 0.930 . S
C922 H916 0.930 . S
C922 C923 1.355 . S
C922 C924 1.415 . S
C923 C922 1.355 . S
C923 C925 1.419 . S
C924 C922 1.415 . S
C924 C929 1.425 . S
C924 C931 1.409 . S
C925 H917 0.930 . S
C925 C923 1.419 . S
C925 C926 1.362 . S
C926 H918 0.930 . S
C926 C925 1.362 . S
C926 C929 1.409 . S
C927 H919 0.930 . S
C927 C928 1.355 . S
C927 C929 1.415 . S
C928 C927 1.355 . S
C928 C930 1.419 . S
C929 C924 1.425 . S
C929 C926 1.409 . S
C929 C927 1.415 . S
C930 H920 0.930 . S
C930 C928 1.419 . S
C930 C931 1.362 . S
C931 H921 0.930 . S
C931 C924 1.409 . S
C931 C930 1.362 . S
H932 C938 0.930 . S
H933 C941 0.930 . S
H934 C942 0.930 . S
H935 C943 0.930 . S
H936 C946 0.930 . S
H937 C947 0.930 . S
C938 H932 0.930 . S
C938 C939 1.355 . S
C938 C940 1.415 . S
C939 C938 1.355 . S
C939 C941 1.419 . S
C940 C938 1.415 . S
C940 C945 1.425 . S
C940 C947 1.409 . S
C941 H933 0.930 . S
C941 C939 1.419 . S
C941 C942 1.362 . S
C942 H934 0.930 . S
C942 C941 1.362 . S
C942 C945 1.409 . S
C943 H935 0.930 . S
C943 C944 1.355 . S
C943 C945 1.415 . S
C944 C943 1.355 . S
C944 C946 1.419 . S
C945 C940 1.425 . S
C945 C942 1.409 . S
C945 C943 1.415 . S
C946 H936 0.930 . S
C946 C944 1.419 . S
C946 C947 1.362 . S
C947 H937 0.930 . S
C947 C940 1.409 . S
C947 C946 1.362 . S
H948 C954 0.930 . S
H949 C957 0.930 . S
H950 C958 0.930 . S
H951 C959 0.930 . S
H952 C962 0.930 . S
H953 C963 0.930 . S
C954 H948 0.930 . S
C954 C955 1.355 . S
C954 C956 1.415 . S
C955 C954 1.355 . S
C955 C957 1.419 . S
C956 C954 1.415 . S
C956 C961 1.425 . S
C956 C963 1.409 . S
C957 H949 0.930 . S
C957 C955 1.419 . S
C957 C958 1.362 . S
C958 H950 0.930 . S
C958 C957 1.362 . S
C958 C961 1.409 . S
C959 H951 0.930 . S
C959 C960 1.355 . S
C959 C961 1.415 . S
C960 C959 1.355 . S
C960 C962 1.419 . S
C961 C956 1.425 . S
C961 C958 1.409 . S
C961 C959 1.415 . S
C962 H952 0.930 . S
C962 C960 1.419 . S
C962 C963 1.362 . S
C963 H953 0.930 . S
C963 C956 1.409 . S
C963 C962 1.362 . S
H964 C970 0.930 . S
H965 C973 0.930 . S
H966 C974 0.930 . S
H967 C975 0.930 . S
H968 C978 0.930 . S
H969 C979 0.930 . S
C970 H964 0.930 . S
C970 C971 1.355 . S
C970 C972 1.415 . S
C971 C970 1.355 . S
C971 C973 1.419 . S
C972 C970 1.415 . S
C972 C977 1.425 . S
C972 C979 1.409 . S
C973 H965 0.930 . S
C973 C971 1.419 . S
C973 C974 1.362 . S
C974 H966 0.930 . S
C974 C973 1.362 . S
C974 C977 1.409 . S
C975 H967 0.930 . S
C975 C976 1.355 . S
C975 C977 1.415 . S
C976 C975 1.355 . S
C976 C978 1.419 . S
C977 C972 1.425 . S
C977 C974 1.409 . S
C977 C975 1.415 . S
C978 H968 0.930 . S
C978 C976 1.419 . S
C978 C979 1.362 . S
C979 H969 0.930 . S
C979 C972 1.409 . S
C979 C978 1.362 . S
H980 C986 0.930 . S
H981 C989 0.930 . S
H982 C990 0.930 . S
H983 C991 0.930 . S
H984 C994 0.930 . S
H985 C995 0.930 . S
C986 H980 0.930 . S
C986 C987 1.355 . S
C986 C988 1.415 . S
C987 C986 1.355 . S
C987 C989 1.419 . S
C988 C986 1.415 . S
C988 C993 1.425 . S
C988 C995 1.409 . S
C989 H981 0.930 . S
C989 C987 1.419 . S
C989 C990 1.362 . S
C990 H982 0.930 . S
C990 C989 1.362 . S
C990 C993 1.409 . S
C991 H983 0.930 . S
C991 C992 1.355 . S
C991 C993 1.415 . S
C992 C991 1.355 . S
C992 C994 1.419 . S
C993 C988 1.425 . S
C993 C990 1.409 . S
C993 C991 1.415 . S
C994 H984 0.930 . S
C994 C992 1.419 . S
C994 C995 1.362 . S
C995 H985 0.930 . S
C995 C988 1.409 . S
C995 C994 1.362 . S
H996 C1002 0.930 . S
H997 C1005 0.930 . S
H998 C1006 0.930 . S
H999 C1007 0.930 . S
H1000 C1010 0.930 . S
H1001 C1011 0.930 . S
C1002 H996 0.930 . S
C1002 C1003 1.355 . S
C1002 C1004 1.415 . S
C1003 C1002 1.355 . S
C1003 C1005 1.419 . S
C1004 C1002 1.415 . S
C1004 C1009 1.425 . S
C1004 C1011 1.409 . S
C1005 H997 0.930 . S
C1005 C1003 1.419 . S
C1005 C1006 1.362 . S
C1006 H998 0.930 . S
C1006 C1005 1.362 . S
C1006 C1009 1.409 . S
C1007 H999 0.930 . S
C1007 C1008 1.355 . S
C1007 C1009 1.415 . S
C1008 C1007 1.355 . S
C1008 C1010 1.419 . S
C1009 C1004 1.425 . S
C1009 C1006 1.409 . S
C1009 C1007 1.415 . S
C1010 H1000 0.930 . S
C1010 C1008 1.419 . S
C1010 C1011 1.362 . S
C1011 H1001 0.930 . S
C1011 C1004 1.409 . S
C1011 C1010 1.362 . S
H1012 C1018 0.930 . S
H1013 C1021 0.930 . S
H1014 C1022 0.930 . S
H1015 C1023 0.930 . S
H1016 C1026 0.930 . S
H1017 C1027 0.930 . S
C1018 H1012 0.930 . S
C1018 C1019 1.355 . S
C1018 C1020 1.415 . S
C1019 C1018 1.355 . S
C1019 C1021 1.419 . S
C1020 C1018 1.415 . S
C1020 C1025 1.425 . S
C1020 C1027 1.409 . S
C1021 H1013 0.930 . S
C1021 C1019 1.419 . S
C1021 C1022 1.362 . S
C1022 H1014 0.930 . S
C1022 C1021 1.362 . S
C1022 C1025 1.409 . S
C1023 H1015 0.930 . S
C1023 C1024 1.355 . S
C1023 C1025 1.415 . S
C1024 C1023 1.355 . S
C1024 C1026 1.419 . S
C1025 C1020 1.425 . S
C1025 C1022 1.409 . S
C1025 C1023 1.415 . S
C1026 H1016 0.930 . S
C1026 C1024 1.419 . S
C1026 C1027 1.362 . S
C1027 H1017 0.930 . S
C1027 C1020 1.409 . S
C1027 C1026 1.362 . S
H1028 C1034 0.930 . S
H1029 C1037 0.930 . S
H1030 C1038 0.930 . S
H1031 C1039 0.930 . S
H1032 C1042 0.930 . S
H1033 C1043 0.930 . S
C1034 H1028 0.930 . S
C1034 C1035 1.355 . S
C1034 C1036 1.415 . S
C1035 C1034 1.355 . S
C1035 C1037 1.419 . S
C1036 C1034 1.415 . S
C1036 C1041 1.425 . S
C1036 C1043 1.409 . S
C1037 H1029 0.930 . S
C1037 C1035 1.419 . S
C1037 C1038 1.362 . S
C1038 H1030 0.930 . S
C1038 C1037 1.362 . S
C1038 C1041 1.409 . S
C1039 H1031 0.930 . S
C1039 C1040 1.355 . S
C1039 C1041 1.415 . S
C1040 C1039 1.355 . S
C1040 C1042 1.419 . S
C1041 C1036 1.425 . S
C1041 C1038 1.409 . S
C1041 C1039 1.415 . S
C1042 H1032 0.930 . S
C1042 C1040 1.419 . S
C1042 C1043 1.362 . S
C1043 H1033 0.930 . S
C1043 C1036 1.409 . S
C1043 C1042 1.362 . S
H1044 C1050 0.930 . S
H1045 C1053 0.930 . S
H1046 C1054 0.930 . S
H1047 C1055 0.930 . S
H1048 C1058 0.930 . S
H1049 C1059 0.930 . S
C1050 H1044 0.930 . S
C1050 C1051 1.355 . S
C1050 C1052 1.415 . S
C1051 C1050 1.355 . S
C1051 C1053 1.419 . S
C1052 C1050 1.415 . S
C1052 C1057 1.425 . S
C1052 C1059 1.409 . S
C1053 H1045 0.930 . S
C1053 C1051 1.419 . S
C1053 C1054 1.362 . S
C1054 H1046 0.930 . S
C1054 C1053 1.362 . S
C1054 C1057 1.409 . S
C1055 H1047 0.930 . S
C1055 C1056 1.355 . S
C1055 C1057 1.415 . S
C1056 C1055 1.355 . S
C1056 C1058 1.419 . S
C1057 C1052 1.425 . S
C1057 C1054 1.409 . S
C1057 C1055 1.415 . S
C1058 H1048 0.930 . S
C1058 C1056 1.419 . S
C1058 C1059 1.362 . S
C1059 H1049 0.930 . S
C1059 C1052 1.409 . S
C1059 C1058 1.362 . S
H1060 C1066 0.930 . S
H1061 C1069 0.930 . S
H1062 C1070 0.930 . S
H1063 C1071 0.930 . S
H1064 C1074 0.930 . S
H1065 C1075 0.930 . S
C1066 H1060 0.930 . S
C1066 C1067 1.355 . S
C1066 C1068 1.415 . S
C1067 C1066 1.355 . S
C1067 C1069 1.419 . S
C1068 C1066 1.415 . S
C1068 C1073 1.425 . S
C1068 C1075 1.409 . S
C1069 H1061 0.930 . S
C1069 C1067 1.419 . S
C1069 C1070 1.362 . S
C1070 H1062 0.930 . S
C1070 C1069 1.362 . S
C1070 C1073 1.409 . S
C1071 H1063 0.930 . S
C1071 C1072 1.355 . S
C1071 C1073 1.415 . S
C1072 C1071 1.355 . S
C1072 C1074 1.419 . S
C1073 C1068 1.425 . S
C1073 C1070 1.409 . S
C1073 C1071 1.415 . S
C1074 H1064 0.930 . S
C1074 C1072 1.419 . S
C1074 C1075 1.362 . S
C1075 H1065 0.930 . S
C1075 C1068 1.409 . S
C1075 C1074 1.362 . S
H1076 C1082 0.930 . S
H1077 C1085 0.930 . S
H1078 C1086 0.930 . S
H1079 C1087 0.930 . S
H1080 C1090 0.930 . S
H1081 C1091 0.930 . S
C1082 H1076 0.930 . S
C1082 C1083 1.355 . S
C1082 C1084 1.415 . S
C1083 C1082 1.355 . S
C1083 C1085 1.419 . S
C1084 C1082 1.415 . S
C1084 C1089 1.425 . S
C1084 C1091 1.409 . S
C1085 H1077 0.930 . S
C1085 C1083 1.419 . S
C1085 C1086 1.362 . S
C1086 H1078 0.930 . S
C1086 C1085 1.362 . S
C1086 C1089 1.409 . S
C1087 H1079 0.930 . S
C1087 C1088 1.355 . S
C1087 C1089 1.415 . S
C1088 C1087 1.355 . S
C1088 C1090 1.419 . S
C1089 C1084 1.425 . S
C1089 C1086 1.409 . S
C1089 C1087 1.415 . S
C1090 H1080 0.930 . S
C1090 C1088 1.419 . S
C1090 C1091 1.362 . S
C1091 H1081 0.930 . S
C1091 C1084 1.409 . S
C1091 C1090 1.362 . S
H1092 C1098 0.930 . S
H1093 C1101 0.930 . S
H1094 C1102 0.930 . S
H1095 C1103 0.930 . S
H1096 C1106 0.930 . S
H1097 C1107 0.930 . S
C1098 H1092 0.930 . S
C1098 C1099 1.355 . S
C1098 C1100 1.415 . S
C1099 C1098 1.355 . S
C1099 C1101 1.419 . S
C1100 C1098 1.415 . S
C1100 C1105 1.425 . S
C1100 C1107 1.409 . S
C1101 H1093 0.930 . S
C1101 C1099 1.419 . S
C1101 C1102 1.362 . S
C1102 H1094 0.930 . S
C1102 C1101 1.362 . S
C1102 C1105 1.409 . S
C1103 H1095 0.930 . S
C1103 C1104 1.355 . S
C1103 C1105 1.415 . S
C1104 C1103 1.355 . S
C1104 C1106 1.419 . S
C1105 C1100 1.425 . S
C1105 C1102 1.409 . S
C1105 C1103 1.415 . S
C1106 H1096 0.930 . S
C1106 C1104 1.419 . S
C1106 C1107 1.362 . S
C1107 H1097 0.930 . S
C1107 C1100 1.409 . S
C1107 C1106 1.362 . S
H1108 C1114 0.930 . S
H1109 C1117 0.930 . S
H1110 C1118 0.930 . S
H1111 C1119 0.930 . S
H1112 C1122 0.930 . S
H1113 C1123 0.930 . S
C1114 H1108 0.930 . S
C1114 C1115 1.355 . S
C1114 C1116 1.415 . S
C1115 C1114 1.355 . S
C1115 C1117 1.419 . S
C1116 C1114 1.415 . S
C1116 C1121 1.425 . S
C1116 C1123 1.409 . S
C1117 H1109 0.930 . S
C1117 C1115 1.419 . S
C1117 C1118 1.362 . S
C1118 H1110 0.930 . S
C1118 C1117 1.362 . S
C1118 C1121 1.409 . S
C1119 H1111 0.930 . S
C1119 C1120 1.355 . S
C1119 C1121 1.415 . S
C1120 C1119 1.355 . S
C1120 C1122 1.419 . S
C1121 C1116 1.425 . S
C1121 C1118 1.409 . S
C1121 C1119 1.415 . S
C1122 H1112 0.930 . S
C1122 C1120 1.419 . S
C1122 C1123 1.362 . S
C1123 H1113 0.930 . S
C1123 C1116 1.409 . S
C1123 C1122 1.362 . S
H1124 C1130 0.930 . S
H1125 C1133 0.930 . S
H1126 C1134 0.930 . S
H1127 C1135 0.930 . S
H1128 C1138 0.930 . S
H1129 C1139 0.930 . S
C1130 H1124 0.930 . S
C1130 C1131 1.355 . S
C1130 C1132 1.415 . S
C1131 C1130 1.355 . S
C1131 C1133 1.419 . S
C1132 C1130 1.415 . S
C1132 C1137 1.425 . S
C1132 C1139 1.409 . S
C1133 H1125 0.930 . S
C1133 C1131 1.419 . S
C1133 C1134 1.362 . S
C1134 H1126 0.930 . S
C1134 C1133 1.362 . S
C1134 C1137 1.409 . S
C1135 H1127 0.930 . S
C1135 C1136 1.355 . S
C1135 C1137 1.415 . S
C1136 C1135 1.355 . S
C1136 C1138 1.419 . S
C1137 C1132 1.425 . S
C1137 C1134 1.409 . S
C1137 C1135 1.415 . S
C1138 H1128 0.930 . S
C1138 C1136 1.419 . S
C1138 C1139 1.362 . S
C1139 H1129 0.930 . S
C1139 C1132 1.409 . S
C1139 C1138 1.362 . S
H1140 C1146 0.930 . S
H1141 C1149 0.930 . S
H1142 C1150 0.930 . S
H1143 C1151 0.930 . S
H1144 C1154 0.930 . S
H1145 C1155 0.930 . S
C1146 H1140 0.930 . S
C1146 C1147 1.355 . S
C1146 C1148 1.415 . S
C1147 C1146 1.355 . S
C1147 C1149 1.419 . S
C1148 C1146 1.415 . S
C1148 C1153 1.425 . S
C1148 C1155 1.409 . S
C1149 H1141 0.930 . S
C1149 C1147 1.419 . S
C1149 C1150 1.362 . S
C1150 H1142 0.930 . S
C1150 C1149 1.362 . S
C1150 C1153 1.409 . S
C1151 H1143 0.930 . S
C1151 C1152 1.355 . S
C1151 C1153 1.415 . S
C1152 C1151 1.355 . S
C1152 C1154 1.419 . S
C1153 C1148 1.425 . S
C1153 C1150 1.409 . S
C1153 C1151 1.415 . S
C1154 H1144 0.930 . S
C1154 C1152 1.419 . S
C1154 C1155 1.362 . S
C1155 H1145 0.930 . S
C1155 C1148 1.409 . S
C1155 C1154 1.362 . S
H1156 C1162 0.930 . S
H1157 C1165 0.930 . S
H1158 C1166 0.930 . S
H1159 C1167 0.930 . S
H1160 C1170 0.930 . S
H1161 C1171 0.930 . S
C1162 H1156 0.930 . S
C1162 C1163 1.355 . S
C1162 C1164 1.415 . S
C1163 C1162 1.355 . S
C1163 C1165 1.419 . S
C1164 C1162 1.415 . S
C1164 C1169 1.425 . S
C1164 C1171 1.409 . S
C1165 H1157 0.930 . S
C1165 C1163 1.419 . S
C1165 C1166 1.362 . S
C1166 H1158 0.930 . S
C1166 C1165 1.362 . S
C1166 C1169 1.409 . S
C1167 H1159 0.930 . S
C1167 C1168 1.355 . S
C1167 C1169 1.415 . S
C1168 C1167 1.355 . S
C1168 C1170 1.419 . S
C1169 C1164 1.425 . S
C1169 C1166 1.409 . S
C1169 C1167 1.415 . S
C1170 H1160 0.930 . S
C1170 C1168 1.419 . S
C1170 C1171 1.362 . S
C1171 H1161 0.930 . S
C1171 C1164 1.409 . S
C1171 C1170 1.362 . S
H1172 C1178 0.930 . S
H1173 C1181 0.930 . S
H1174 C1182 0.930 . S
H1175 C1183 0.930 . S
H1176 C1186 0.930 . S
H1177 C1187 0.930 . S
C1178 H1172 0.930 . S
C1178 C1179 1.355 . S
C1178 C1180 1.415 . S
C1179 C1178 1.355 . S
C1179 C1181 1.419 . S
C1180 C1178 1.415 . S
C1180 C1185 1.425 . S
C1180 C1187 1.409 . S
C1181 H1173 0.930 . S
C1181 C1179 1.419 . S
C1181 C1182 1.362 . S
C1182 H1174 0.930 . S
C1182 C1181 1.362 . S
C1182 C1185 1.409 . S
C1183 H1175 0.930 . S
C1183 C1184 1.355 . S
C1183 C1185 1.415 . S
C1184 C1183 1.355 . S
C1184 C1186 1.419 . S
C1185 C1180 1.425 . S
C1185 C1182 1.409 . S
C1185 C1183 1.415 . S
C1186 H1176 0.930 . S
C1186 C1184 1.419 . S
C1186 C1187 1.362 . S
C1187 H1177 0.930 . S
C1187 C1180 1.409 . S
C1187 C1186 1.362 . S
H1188 C1194 0.930 . S
H1189 C1197 0.930 . S
H1190 C1198 0.930 . S
H1191 C1199 0.930 . S
H1192 C1202 0.930 . S
H1193 C1203 0.930 . S
C1194 H1188 0.930 . S
C1194 C1195 1.355 . S
C1194 C1196 1.415 . S
C1195 C1194 1.355 . S
C1195 C1197 1.419 . S
C1196 C1194 1.415 . S
C1196 C1201 1.425 . S
C1196 C1203 1.409 . S
C1197 H1189 0.930 . S
C1197 C1195 1.419 . S
C1197 C1198 1.362 . S
C1198 H1190 0.930 . S
C1198 C1197 1.362 . S
C1198 C1201 1.409 . S
C1199 H1191 0.930 . S
C1199 C1200 1.355 . S
C1199 C1201 1.415 . S
C1200 C1199 1.355 . S
C1200 C1202 1.419 . S
C1201 C1196 1.425 . S
C1201 C1198 1.409 . S
C1201 C1199 1.415 . S
C1202 H1192 0.930 . S
C1202 C1200 1.419 . S
C1202 C1203 1.362 . S
C1203 H1193 0.930 . S
C1203 C1196 1.409 . S
C1203 C1202 1.362 . S
H1204 C1210 0.930 . S
H1205 C1213 0.930 . S
H1206 C1214 0.930 . S
H1207 C1215 0.930 . S
H1208 C1218 0.930 . S
H1209 C1219 0.930 . S
C1210 H1204 0.930 . S
C1210 C1211 1.355 . S
C1210 C1212 1.415 . S
C1211 C1210 1.355 . S
C1211 C1213 1.419 . S
C1212 C1210 1.415 . S
C1212 C1217 1.425 . S
C1212 C1219 1.409 . S
C1213 H1205 0.930 . S
C1213 C1211 1.419 . S
C1213 C1214 1.362 . S
C1214 H1206 0.930 . S
C1214 C1213 1.362 . S
C1214 C1217 1.409 . S
C1215 H1207 0.930 . S
C1215 C1216 1.355 . S
C1215 C1217 1.415 . S
C1216 C1215 1.355 . S
C1216 C1218 1.419 . S
C1217 C1212 1.425 . S
C1217 C1214 1.409 . S
C1217 C1215 1.415 . S
C1218 H1208 0.930 . S
C1218 C1216 1.419 . S
C1218 C1219 1.362 . S
C1219 H1209 0.930 . S
C1219 C1212 1.409 . S
C1219 C1218 1.362 . S
H1220 C1226 0.930 . S
H1221 C1229 0.930 . S
H1222 C1230 0.930 . S
H1223 C1231 0.930 . S
H1224 C1234 0.930 . S
H1225 C1235 0.930 . S
C1226 H1220 0.930 . S
C1226 C1227 1.355 . S
C1226 C1228 1.415 . S
C1227 C1226 1.355 . S
C1227 C1229 1.419 . S
C1228 C1226 1.415 . S
C1228 C1233 1.425 . S
C1228 C1235 1.409 . S
C1229 H1221 0.930 . S
C1229 C1227 1.419 . S
C1229 C1230 1.362 . S
C1230 H1222 0.930 . S
C1230 C1229 1.362 . S
C1230 C1233 1.409 . S
C1231 H1223 0.930 . S
C1231 C1232 1.355 . S
C1231 C1233 1.415 . S
C1232 C1231 1.355 . S
C1232 C1234 1.419 . S
C1233 C1228 1.425 . S
C1233 C1230 1.409 . S
C1233 C1231 1.415 . S
C1234 H1224 0.930 . S
C1234 C1232 1.419 . S
C1234 C1235 1.362 . S
C1235 H1225 0.930 . S
C1235 C1228 1.409 . S
C1235 C1234 1.362 . S
H1236 C1242 0.930 . S
H1237 C1245 0.930 . S
H1238 C1246 0.930 . S
H1239 C1247 0.930 . S
H1240 C1250 0.930 . S
H1241 C1251 0.930 . S
C1242 H1236 0.930 . S
C1242 C1243 1.355 . S
C1242 C1244 1.415 . S
C1243 C1242 1.355 . S
C1243 C1245 1.419 . S
C1244 C1242 1.415 . S
C1244 C1249 1.425 . S
C1244 C1251 1.409 . S
C1245 H1237 0.930 . S
C1245 C1243 1.419 . S
C1245 C1246 1.362 . S
C1246 H1238 0.930 . S
C1246 C1245 1.362 . S
C1246 C1249 1.409 . S
C1247 H1239 0.930 . S
C1247 C1248 1.355 . S
C1247 C1249 1.415 . S
C1248 C1247 1.355 . S
C1248 C1250 1.419 . S
C1249 C1244 1.425 . S
C1249 C1246 1.409 . S
C1249 C1247 1.415 . S
C1250 H1240 0.930 . S
C1250 C1248 1.419 . S
C1250 C1251 1.362 . S
C1251 H1241 0.930 . S
C1251 C1244 1.409 . S
C1251 C1250 1.362 . S
H1252 C1258 0.930 . S
H1253 C1261 0.930 . S
H1254 C1262 0.930 . S
H1255 C1263 0.930 . S
H1256 C1266 0.930 . S
H1257 C1267 0.930 . S
C1258 H1252 0.930 . S
C1258 C1259 1.355 . S
C1258 C1260 1.415 . S
C1259 C1258 1.355 . S
C1259 C1261 1.419 . S
C1260 C1258 1.415 . S
C1260 C1265 1.425 . S
C1260 C1267 1.409 . S
C1261 H1253 0.930 . S
C1261 C1259 1.419 . S
C1261 C1262 1.362 . S
C1262 H1254 0.930 . S
C1262 C1261 1.362 . S
C1262 C1265 1.409 . S
C1263 H1255 0.930 . S
C1263 C1264 1.355 . S
C1263 C1265 1.415 . S
C1264 C1263 1.355 . S
C1264 C1266 1.419 . S
C1265 C1260 1.425 . S
C1265 C1262 1.409 . S
C1265 C1263 1.415 . S
C1266 H1256 0.930 . S
C1266 C1264 1.419 . S
C1266 C1267 1.362 . S
C1267 H1257 0.930 . S
C1267 C1260 1.409 . S
C1267 C1266 1.362 . S
H1268 C1274 0.930 . S
H1269 C1277 0.930 . S
H1270 C1278 0.930 . S
H1271 C1279 0.930 . S
H1272 C1282 0.930 . S
H1273 C1283 0.930 . S
C1274 H1268 0.930 . S
C1274 C1275 1.355 . S
C1274 C1276 1.415 . S
C1275 C1274 1.355 . S
C1275 C1277 1.419 . S
C1276 C1274 1.415 . S
C1276 C1281 1.425 . S
C1276 C1283 1.409 . S
C1277 H1269 0.930 . S
C1277 C1275 1.419 . S
C1277 C1278 1.362 . S
C1278 H1270 0.930 . S
C1278 C1277 1.362 . S
C1278 C1281 1.409 . S
C1279 H1271 0.930 . S
C1279 C1280 1.355 . S
C1279 C1281 1.415 . S
C1280 C1279 1.355 . S
C1280 C1282 1.419 . S
C1281 C1276 1.425 . S
C1281 C1278 1.409 . S
C1281 C1279 1.415 . S
C1282 H1272 0.930 . S
C1282 C1280 1.419 . S
C1282 C1283 1.362 . S
C1283 H1273 0.930 . S
C1283 C1276 1.409 . S
C1283 C1282 1.362 . S
H1284 C1290 0.930 . S
H1285 C1293 0.930 . S
H1286 C1294 0.930 . S
H1287 C1295 0.930 . S
H1288 C1298 0.930 . S
H1289 C1299 0.930 . S
C1290 H1284 0.930 . S
C1290 C1291 1.355 . S
C1290 C1292 1.415 . S
C1291 C1290 1.355 . S
C1291 C1293 1.419 . S
C1292 C1290 1.415 . S
C1292 C1297 1.425 . S
C1292 C1299 1.409 . S
C1293 H1285 0.930 . S
C1293 C1291 1.419 . S
C1293 C1294 1.362 . S
C1294 H1286 0.930 . S
C1294 C1293 1.362 . S
C1294 C1297 1.409 . S
C1295 H1287 0.930 . S
C1295 C1296 1.355 . S
C1295 C1297 1.415 . S
C1296 C1295 1.355 . S
C1296 C1298 1.419 . S
C1297 C1292 1.425 . S
C1297 C1294 1.409 . S
C1297 C1295 1.415 . S
C1298 H1288 0.930 . S
C1298 C1296 1.419 . S
C1298 C1299 1.362 . S
C1299 H1289 0.930 . S
C1299 C1292 1.409 . S
C1299 C1298 1.362 . S
H1300 C1306 0.930 . S
H1301 C1309 0.930 . S
H1302 C1310 0.930 . S
H1303 C1311 0.930 . S
H1304 C1314 0.930 . S
H1305 C1315 0.930 . S
C1306 H1300 0.930 . S
C1306 C1307 1.355 . S
C1306 C1308 1.415 . S
C1307 C1306 1.355 . S
C1307 C1309 1.419 . S
C1308 C1306 1.415 . S
C1308 C1313 1.425 . S
C1308 C1315 1.409 . S
C1309 H1301 0.930 . S
C1309 C1307 1.419 . S
C1309 C1310 1.362 . S
C1310 H1302 0.930 . S
C1310 C1309 1.362 . S
C1310 C1313 1.409 . S
C1311 H1303 0.930 . S
C1311 C1312 1.355 . S
C1311 C1313 1.415 . S
C1312 C1311 1.355 . S
C1312 C1314 1.419 . S
C1313 C1308 1.425 . S
C1313 C1310 1.409 . S
C1313 C1311 1.415 . S
C1314 H1304 0.930 . S
C1314 C1312 1.419 . S
C1314 C1315 1.362 . S
C1315 H1305 0.930 . S
C1315 C1308 1.409 . S
C1315 C1314 1.362 . S
H1316 C1322 0.930 . S
H1317 C1325 0.930 . S
H1318 C1326 0.930 . S
H1319 C1327 0.930 . S
H1320 C1330 0.930 . S
H1321 C1331 0.930 . S
C1322 H1316 0.930 . S
C1322 C1323 1.355 . S
C1322 C1324 1.415 . S
C1323 C1322 1.355 . S
C1323 C1325 1.419 . S
C1324 C1322 1.415 . S
C1324 C1329 1.425 . S
C1324 C1331 1.409 . S
C1325 H1317 0.930 . S
C1325 C1323 1.419 . S
C1325 C1326 1.362 . S
C1326 H1318 0.930 . S
C1326 C1325 1.362 . S
C1326 C1329 1.409 . S
C1327 H1319 0.930 . S
C1327 C1328 1.355 . S
C1327 C1329 1.415 . S
C1328 C1327 1.355 . S
C1328 C1330 1.419 . S
C1329 C1324 1.425 . S
C1329 C1326 1.409 . S
C1329 C1327 1.415 . S
C1330 H1320 0.930 . S
C1330 C1328 1.419 . S
C1330 C1331 1.362 . S
C1331 H1321 0.930 . S
C1331 C1324 1.409 . S
C1331 C1330 1.362 . S
H1332 C1338 0.930 . S
H1333 C1341 0.930 . S
H1334 C1342 0.930 . S
H1335 C1343 0.930 . S
H1336 C1346 0.930 . S
H1337 C1347 0.930 . S
C1338 H1332 0.930 . S
C1338 C1339 1.355 . S
C1338 C1340 1.415 . S
C1339 C1338 1.355 . S
C1339 C1341 1.419 . S
C1340 C1338 1.415 . S
C1340 C1345 1.425 . S
C1340 C1347 1.409 . S
C1341 H1333 0.930 . S
C1341 C1339 1.419 . S
C1341 C1342 1.362 . S
C1342 H1334 0.930 . S
C1342 C1341 1.362 . S
C1342 C1345 1.409 . S
C1343 H1335 0.930 . S
C1343 C1344 1.355 . S
C1343 C1345 1.415 . S
C1344 C1343 1.355 . S
C1344 C1346 1.419 . S
C1345 C1340 1.425 . S
C1345 C1342 1.409 . S
C1345 C1343 1.415 . S
C1346 H1336 0.930 . S
C1346 C1344 1.419 . S
C1346 C1347 1.362 . S
C1347 H1337 0.930 . S
C1347 C1340 1.409 . S
C1347 C1346 1.362 . S
H1348 C1354 0.930 . S
H1349 C1357 0.930 . S
H1350 C1358 0.930 . S
H1351 C1359 0.930 . S
H1352 C1362 0.930 . S
H1353 C1363 0.930 . S
C1354 H1348 0.930 . S
C1354 C1355 1.355 1_565 S
C1354 C1356 1.415 . S
C1355 C1354 1.355 1_545 S
C1355 C1357 1.419 . S
C1356 C1354 1.415 . S
C1356 C1361 1.425 1_565 S
C1356 C1363 1.409 . S
C1357 H1349 0.930 . S
C1357 C1355 1.419 . S
C1357 C1358 1.362 . S
C1358 H1350 0.930 . S
C1358 C1357 1.362 . S
C1358 C1361 1.409 . S
C1359 H1351 0.930 . S
C1359 C1360 1.355 1_545 S
C1359 C1361 1.415 . S
C1360 C1359 1.355 1_565 S
C1360 C1362 1.419 . S
C1361 C1356 1.425 1_545 S
C1361 C1358 1.409 . S
C1361 C1359 1.415 . S
C1362 H1352 0.930 . S
C1362 C1360 1.419 . S
C1362 C1363 1.362 . S
C1363 H1353 0.930 . S
C1363 C1356 1.409 . S
C1363 C1362 1.362 . S
H1364 C1370 0.930 . S
H1365 C1373 0.930 . S
H1366 C1374 0.930 . S
H1367 C1375 0.930 . S
H1368 C1378 0.930 . S
H1369 C1379 0.930 . S
C1370 H1364 0.930 . S
C1370 C1371 1.355 . S
C1370 C1372 1.415 . S
C1371 C1370 1.355 . S
C1371 C1373 1.419 1_455 S
C1372 C1370 1.415 . S
C1372 C1377 1.425 1_455 S
C1372 C1379 1.409 . S
C1373 H1365 0.930 . S
C1373 C1371 1.419 1_655 S
C1373 C1374 1.362 . S
C1374 H1366 0.930 . S
C1374 C1373 1.362 . S
C1374 C1377 1.409 . S
C1375 H1367 0.930 . S
C1375 C1376 1.355 . S
C1375 C1377 1.415 . S
C1376 C1375 1.355 . S
C1376 C1378 1.419 1_655 S
C1377 C1372 1.425 1_655 S
C1377 C1374 1.409 . S
C1377 C1375 1.415 . S
C1378 H1368 0.930 . S
C1378 C1376 1.419 1_455 S
C1378 C1379 1.362 . S
C1379 H1369 0.930 . S
C1379 C1372 1.409 . S
C1379 C1378 1.362 . S
H1380 C1386 0.930 . S
H1381 C1389 0.930 . S
H1382 C1390 0.930 . S
H1383 C1391 0.930 . S
H1384 C1394 0.930 . S
H1385 C1395 0.930 . S
C1386 H1380 0.930 . S
C1386 C1387 1.355 . S
C1386 C1388 1.415 . S
C1387 C1386 1.355 . S
C1387 C1389 1.419 . S
C1388 C1386 1.415 . S
C1388 C1393 1.425 . S
C1388 C1395 1.409 . S
C1389 H1381 0.930 . S
C1389 C1387 1.419 . S
C1389 C1390 1.362 . S
C1390 H1382 0.930 . S
C1390 C1389 1.362 . S
C1390 C1393 1.409 . S
C1391 H1383 0.930 . S
C1391 C1392 1.355 . S
C1391 C1393 1.415 . S
C1392 C1391 1.355 . S
C1392 C1394 1.419 . S
C1393 C1388 1.425 . S
C1393 C1390 1.409 . S
C1393 C1391 1.415 . S
C1394 H1384 0.930 . S
C1394 C1392 1.419 . S
C1394 C1395 1.362 . S
C1395 H1385 0.930 . S
C1395 C1388 1.409 . S
C1395 C1394 1.362 . S
H1396 C1402 0.930 . S
H1397 C1405 0.930 . S
H1398 C1406 0.930 . S
H1399 C1407 0.930 . S
H1400 C1410 0.930 . S
H1401 C1411 0.930 . S
C1402 H1396 0.930 . S
C1402 C1403 1.355 1_565 S
C1402 C1404 1.415 . S
C1403 C1402 1.355 1_545 S
C1403 C1405 1.419 . S
C1404 C1402 1.415 . S
C1404 C1409 1.425 1_565 S
C1404 C1411 1.409 . S
C1405 H1397 0.930 . S
C1405 C1403 1.419 . S
C1405 C1406 1.362 . S
C1406 H1398 0.930 . S
C1406 C1405 1.362 . S
C1406 C1409 1.409 . S
C1407 H1399 0.930 . S
C1407 C1408 1.355 1_545 S
C1407 C1409 1.415 . S
C1408 C1407 1.355 1_565 S
C1408 C1410 1.419 . S
C1409 C1404 1.425 1_545 S
C1409 C1406 1.409 . S
C1409 C1407 1.415 . S
C1410 H1400 0.930 . S
C1410 C1408 1.419 . S
C1410 C1411 1.362 . S
C1411 H1401 0.930 . S
C1411 C1404 1.409 . S
C1411 C1410 1.362 . S
H1412 C1418 0.930 1_455 S
H1413 C1421 0.930 . S
H1414 C1422 0.930 . S
H1415 C1423 0.930 1_655 S
H1416 C1426 0.930 . S
H1417 C1427 0.930 . S
C1418 H1412 0.930 1_655 S
C1418 C1419 1.355 . S
C1418 C1420 1.415 1_655 S
C1419 C1418 1.355 . S
C1419 C1421 1.419 . S
C1420 C1418 1.415 1_455 S
C1420 C1425 1.425 1_455 S
C1420 C1427 1.409 . S
C1421 H1413 0.930 . S
C1421 C1419 1.419 . S
C1421 C1422 1.362 . S
C1422 H1414 0.930 . S
C1422 C1421 1.362 . S
C1422 C1425 1.409 . S
C1423 H1415 0.930 1_455 S
C1423 C1424 1.355 . S
C1423 C1425 1.415 1_455 S
C1424 C1423 1.355 . S
C1424 C1426 1.419 . S
C1425 C1420 1.425 1_655 S
C1425 C1422 1.409 . S
C1425 C1423 1.415 1_655 S
C1426 H1416 0.930 . S
C1426 C1424 1.419 . S
C1426 C1427 1.362 . S
C1427 H1417 0.930 . S
C1427 C1420 1.409 . S
C1427 C1426 1.362 . S
H1428 C1434 0.930 . S
H1429 C1437 0.930 . S
H1430 C1438 0.930 . S
H1431 C1439 0.930 . S
H1432 C1442 0.930 . S
H1433 C1443 0.930 . S
C1434 H1428 0.930 . S
C1434 C1435 1.355 . S
C1434 C1436 1.415 . S
C1435 C1434 1.355 . S
C1435 C1437 1.419 . S
C1436 C1434 1.415 . S
C1436 C1441 1.425 . S
C1436 C1443 1.409 . S
C1437 H1429 0.930 . S
C1437 C1435 1.419 . S
C1437 C1438 1.362 . S
C1438 H1430 0.930 . S
C1438 C1437 1.362 . S
C1438 C1441 1.409 . S
C1439 H1431 0.930 . S
C1439 C1440 1.355 . S
C1439 C1441 1.415 . S
C1440 C1439 1.355 . S
C1440 C1442 1.419 . S
C1441 C1436 1.425 . S
C1441 C1438 1.409 . S
C1441 C1439 1.415 . S
C1442 H1432 0.930 . S
C1442 C1440 1.419 . S
C1442 C1443 1.362 . S
C1443 H1433 0.930 . S
C1443 C1436 1.409 . S
C1443 C1442 1.362 . S
H1444 C1450 0.930 . S
H1445 C1453 0.930 . S
H1446 C1454 0.930 . S
H1447 C1455 0.930 . S
H1448 C1458 0.930 . S
H1449 C1459 0.930 . S
C1450 H1444 0.930 . S
C1450 C1451 1.355 . S
C1450 C1452 1.415 . S
C1451 C1450 1.355 . S
C1451 C1453 1.419 . S
C1452 C1450 1.415 . S
C1452 C1457 1.425 . S
C1452 C1459 1.409 . S
C1453 H1445 0.930 . S
C1453 C1451 1.419 . S
C1453 C1454 1.362 . S
C1454 H1446 0.930 . S
C1454 C1453 1.362 . S
C1454 C1457 1.409 . S
C1455 H1447 0.930 . S
C1455 C1456 1.355 . S
C1455 C1457 1.415 . S
C1456 C1455 1.355 . S
C1456 C1458 1.419 . S
C1457 C1452 1.425 . S
C1457 C1454 1.409 . S
C1457 C1455 1.415 . S
C1458 H1448 0.930 . S
C1458 C1456 1.419 . S
C1458 C1459 1.362 . S
C1459 H1449 0.930 . S
C1459 C1452 1.409 . S
C1459 C1458 1.362 . S
H1460 C1466 0.930 . S
H1461 C1469 0.930 . S
H1462 C1470 0.930 . S
H1463 C1471 0.930 . S
H1464 C1474 0.930 . S
H1465 C1475 0.930 . S
C1466 H1460 0.930 . S
C1466 C1467 1.355 . S
C1466 C1468 1.415 . S
C1467 C1466 1.355 . S
C1467 C1469 1.419 . S
C1468 C1466 1.415 . S
C1468 C1473 1.425 . S
C1468 C1475 1.409 . S
C1469 H1461 0.930 . S
C1469 C1467 1.419 . S
C1469 C1470 1.362 . S
C1470 H1462 0.930 . S
C1470 C1469 1.362 . S
C1470 C1473 1.409 . S
C1471 H1463 0.930 . S
C1471 C1472 1.355 . S
C1471 C1473 1.415 . S
C1472 C1471 1.355 . S
C1472 C1474 1.419 . S
C1473 C1468 1.425 . S
C1473 C1470 1.409 . S
C1473 C1471 1.415 . S
C1474 H1464 0.930 . S
C1474 C1472 1.419 . S
C1474 C1475 1.362 . S
C1475 H1465 0.930 . S
C1475 C1468 1.409 . S
C1475 C1474 1.362 . S
H1476 C1482 0.930 . S
H1477 C1485 0.930 . S
H1478 C1486 0.930 . S
H1479 C1487 0.930 . S
H1480 C1490 0.930 . S
H1481 C1491 0.930 . S
C1482 H1476 0.930 . S
C1482 C1483 1.355 . S
C1482 C1484 1.415 . S
C1483 C1482 1.355 . S
C1483 C1485 1.419 . S
C1484 C1482 1.415 . S
C1484 C1489 1.425 . S
C1484 C1491 1.409 . S
C1485 H1477 0.930 . S
C1485 C1483 1.419 . S
C1485 C1486 1.362 . S
C1486 H1478 0.930 . S
C1486 C1485 1.362 . S
C1486 C1489 1.409 . S
C1487 H1479 0.930 . S
C1487 C1488 1.355 . S
C1487 C1489 1.415 . S
C1488 C1487 1.355 . S
C1488 C1490 1.419 . S
C1489 C1484 1.425 . S
C1489 C1486 1.409 . S
C1489 C1487 1.415 . S
C1490 H1480 0.930 . S
C1490 C1488 1.419 . S
C1490 C1491 1.362 . S
C1491 H1481 0.930 . S
C1491 C1484 1.409 . S
C1491 C1490 1.362 . S
H1492 C1498 0.930 . S
H1493 C1501 0.930 . S
H1494 C1502 0.930 . S
H1495 C1503 0.930 . S
H1496 C1506 0.930 . S
H1497 C1507 0.930 . S
C1498 H1492 0.930 . S
C1498 C1499 1.355 . S
C1498 C1500 1.415 . S
C1499 C1498 1.355 . S
C1499 C1501 1.419 . S
C1500 C1498 1.415 . S
C1500 C1505 1.425 . S
C1500 C1507 1.409 . S
C1501 H1493 0.930 . S
C1501 C1499 1.419 . S
C1501 C1502 1.362 . S
C1502 H1494 0.930 . S
C1502 C1501 1.362 . S
C1502 C1505 1.409 . S
C1503 H1495 0.930 . S
C1503 C1504 1.355 . S
C1503 C1505 1.415 . S
C1504 C1503 1.355 . S
C1504 C1506 1.419 . S
C1505 C1500 1.425 . S
C1505 C1502 1.409 . S
C1505 C1503 1.415 . S
C1506 H1496 0.930 . S
C1506 C1504 1.419 . S
C1506 C1507 1.362 . S
C1507 H1497 0.930 . S
C1507 C1500 1.409 . S
C1507 C1506 1.362 . S
H1508 C1514 0.930 . S
H1509 C1517 0.930 . S
H1510 C1518 0.930 . S
H1511 C1519 0.930 . S
H1512 C1522 0.930 . S
H1513 C1523 0.930 . S
C1514 H1508 0.930 . S
C1514 C1515 1.355 . S
C1514 C1516 1.415 . S
C1515 C1514 1.355 . S
C1515 C1517 1.419 . S
C1516 C1514 1.415 . S
C1516 C1521 1.425 . S
C1516 C1523 1.409 . S
C1517 H1509 0.930 . S
C1517 C1515 1.419 . S
C1517 C1518 1.362 . S
C1518 H1510 0.930 . S
C1518 C1517 1.362 . S
C1518 C1521 1.409 . S
C1519 H1511 0.930 . S
C1519 C1520 1.355 . S
C1519 C1521 1.415 . S
C1520 C1519 1.355 . S
C1520 C1522 1.419 . S
C1521 C1516 1.425 . S
C1521 C1518 1.409 . S
C1521 C1519 1.415 . S
C1522 H1512 0.930 . S
C1522 C1520 1.419 . S
C1522 C1523 1.362 . S
C1523 H1513 0.930 . S
C1523 C1516 1.409 . S
C1523 C1522 1.362 . S
H1524 C1530 0.930 . S
H1525 C1533 0.930 1_554 S
H1526 C1534 0.930 . S
H1527 C1535 0.930 . S
H1528 C1538 0.930 . S
H1529 C1539 0.930 . S
C1530 H1524 0.930 . S
C1530 C1531 1.355 . S
C1530 C1532 1.415 . S
C1531 C1530 1.355 . S
C1531 C1533 1.419 . S
C1532 C1530 1.415 . S
C1532 C1537 1.425 . S
C1532 C1539 1.409 . S
C1533 H1525 0.930 1_556 S
C1533 C1531 1.419 . S
C1533 C1534 1.362 . S
C1534 H1526 0.930 . S
C1534 C1533 1.362 . S
C1534 C1537 1.409 . S
C1535 H1527 0.930 . S
C1535 C1536 1.355 . S
C1535 C1537 1.415 . S
C1536 C1535 1.355 . S
C1536 C1538 1.419 . S
C1537 C1532 1.425 . S
C1537 C1534 1.409 . S
C1537 C1535 1.415 . S
C1538 H1528 0.930 . S
C1538 C1536 1.419 . S
C1538 C1539 1.362 . S
C1539 H1529 0.930 . S
C1539 C1532 1.409 . S
C1539 C1538 1.362 . S
H1540 C1546 0.930 . S
H1541 C1549 0.930 . S
H1542 C1550 0.930 . S
H1543 C1551 0.930 . S
H1544 C1554 0.930 . S
H1545 C1555 0.930 . S
C1546 H1540 0.930 . S
C1546 C1547 1.355 . S
C1546 C1548 1.415 . S
C1547 C1546 1.355 . S
C1547 C1549 1.419 . S
C1548 C1546 1.415 . S
C1548 C1553 1.425 . S
C1548 C1555 1.409 . S
C1549 H1541 0.930 . S
C1549 C1547 1.419 . S
C1549 C1550 1.362 . S
C1550 H1542 0.930 . S
C1550 C1549 1.362 . S
C1550 C1553 1.409 . S
C1551 H1543 0.930 . S
C1551 C1552 1.355 . S
C1551 C1553 1.415 . S
C1552 C1551 1.355 . S
C1552 C1554 1.419 . S
C1553 C1548 1.425 . S
C1553 C1550 1.409 . S
C1553 C1551 1.415 . S
C1554 H1544 0.930 . S
C1554 C1552 1.419 . S
C1554 C1555 1.362 . S
C1555 H1545 0.930 . S
C1555 C1548 1.409 . S
C1555 C1554 1.362 . S
H1556 C1562 0.930 . S
H1557 C1565 0.930 . S
H1558 C1566 0.930 . S
H1559 C1567 0.930 . S
H1560 C1570 0.930 . S
H1561 C1571 0.930 . S
C1562 H1556 0.930 . S
C1562 C1563 1.355 . S
C1562 C1564 1.415 . S
C1563 C1562 1.355 . S
C1563 C1565 1.419 . S
C1564 C1562 1.415 . S
C1564 C1569 1.425 . S
C1564 C1571 1.409 . S
C1565 H1557 0.930 . S
C1565 C1563 1.419 . S
C1565 C1566 1.362 . S
C1566 H1558 0.930 . S
C1566 C1565 1.362 . S
C1566 C1569 1.409 . S
C1567 H1559 0.930 . S
C1567 C1568 1.355 . S
C1567 C1569 1.415 . S
C1568 C1567 1.355 . S
C1568 C1570 1.419 . S
C1569 C1564 1.425 . S
C1569 C1566 1.409 . S
C1569 C1567 1.415 . S
C1570 H1560 0.930 . S
C1570 C1568 1.419 . S
C1570 C1571 1.362 . S
C1571 H1561 0.930 . S
C1571 C1564 1.409 . S
C1571 C1570 1.362 . S
H1572 C1578 0.930 . S
H1573 C1581 0.930 . S
H1574 C1582 0.930 . S
H1575 C1583 0.930 . S
H1576 C1586 0.930 . S
H1577 C1587 0.930 . S
C1578 H1572 0.930 . S
C1578 C1579 1.355 . S
C1578 C1580 1.415 . S
C1579 C1578 1.355 . S
C1579 C1581 1.419 . S
C1580 C1578 1.415 . S
C1580 C1585 1.425 . S
C1580 C1587 1.409 . S
C1581 H1573 0.930 . S
C1581 C1579 1.419 . S
C1581 C1582 1.362 . S
C1582 H1574 0.930 . S
C1582 C1581 1.362 . S
C1582 C1585 1.409 . S
C1583 H1575 0.930 . S
C1583 C1584 1.355 . S
C1583 C1585 1.415 . S
C1584 C1583 1.355 . S
C1584 C1586 1.419 . S
C1585 C1580 1.425 . S
C1585 C1582 1.409 . S
C1585 C1583 1.415 . S
C1586 H1576 0.930 . S
C1586 C1584 1.419 . S
C1586 C1587 1.362 . S
C1587 H1577 0.930 . S
C1587 C1580 1.409 . S
C1587 C1586 1.362 . S
H1588 C1594 0.930 . S
H1589 C1597 0.930 . S
H1590 C1598 0.930 . S
H1591 C1599 0.930 . S
H1592 C1602 0.930 . S
H1593 C1603 0.930 . S
C1594 H1588 0.930 . S
C1594 C1595 1.355 . S
C1594 C1596 1.415 . S
C1595 C1594 1.355 . S
C1595 C1597 1.419 . S
C1596 C1594 1.415 . S
C1596 C1601 1.425 . S
C1596 C1603 1.409 . S
C1597 H1589 0.930 . S
C1597 C1595 1.419 . S
C1597 C1598 1.362 . S
C1598 H1590 0.930 . S
C1598 C1597 1.362 . S
C1598 C1601 1.409 . S
C1599 H1591 0.930 . S
C1599 C1600 1.355 . S
C1599 C1601 1.415 . S
C1600 C1599 1.355 . S
C1600 C1602 1.419 . S
C1601 C1596 1.425 . S
C1601 C1598 1.409 . S
C1601 C1599 1.415 . S
C1602 H1592 0.930 . S
C1602 C1600 1.419 . S
C1602 C1603 1.362 . S
C1603 H1593 0.930 . S
C1603 C1596 1.409 . S
C1603 C1602 1.362 . S
H1604 C1610 0.930 . S
H1605 C1613 0.930 . S
H1606 C1614 0.930 . S
H1607 C1615 0.930 . S
H1608 C1618 0.930 . S
H1609 C1619 0.930 . S
C1610 H1604 0.930 . S
C1610 C1611 1.355 . S
C1610 C1612 1.415 . S
C1611 C1610 1.355 . S
C1611 C1613 1.419 . S
C1612 C1610 1.415 . S
C1612 C1617 1.425 . S
C1612 C1619 1.409 . S
C1613 H1605 0.930 . S
C1613 C1611 1.419 . S
C1613 C1614 1.362 . S
C1614 H1606 0.930 . S
C1614 C1613 1.362 . S
C1614 C1617 1.409 . S
C1615 H1607 0.930 . S
C1615 C1616 1.355 . S
C1615 C1617 1.415 . S
C1616 C1615 1.355 . S
C1616 C1618 1.419 . S
C1617 C1612 1.425 . S
C1617 C1614 1.409 . S
C1617 C1615 1.415 . S
C1618 H1608 0.930 . S
C1618 C1616 1.419 . S
C1618 C1619 1.362 . S
C1619 H1609 0.930 . S
C1619 C1612 1.409 . S
C1619 C1618 1.362 . S
C475 C208 1.374 . S
C480 C0 1.372 . S
C491 C221 1.325 . S
C496 C13 1.333 . S
C507 C26 1.374 . S
C512 C195 1.371 . S
C523 C338 1.365 . S
C528 C39 1.355 . S
C539 C312 1.373 . S
C544 C52 1.373 . S
C555 C65 1.342 . S
C560 C325 1.331 . S
C571 C442 1.329 . S
C576 C78 1.322 . S
C587 C455 1.322 . S
C592 C91 1.329 . S
C603 C429 1.358 . S
C608 C104 1.367 . S
C619 C260 1.336 . S
C624 C117 1.348 . S
C635 C130 1.369 . S
C640 C234 1.373 . S
C651 C247 1.367 . S
C656 C143 1.373 . S
C667 C364 1.374 . S
C672 C156 1.372 . S
C683 C169 1.374 . S
C688 C377 1.372 . S
C699 C351 1.327 . S
C704 C182 1.321 . S
C715 C416 1.339 . S
C720 C273 1.351 . S
C731 C390 1.362 . S
C736 C286 1.351 . S
C747 C299 1.354 . S
C752 C403 1.342 . S
C763 C101 1.326 . S
C768 C8 1.354 . S
C779 C114 1.338 . S
C784 C21 1.361 . S
C795 C88 1.340 . S
C800 C34 1.312 . S
C811 C47 1.316 . S
C816 C153 1.346 . S
C827 C127 1.358 . S
C832 C60 1.330 . S
C843 C73 1.342 . S
C848 C140 1.363 . S
C859 C23 1.345 . S
C864 C86 1.363 . S
C875 C99 1.333 . S
C880 C36 1.360 . S
C891 C10 1.326 . S
C896 C112 1.354 . S
C907 C75 1.341 . S
C912 C125 1.312 . S
C923 C49 1.364 . S
C928 C138 1.349 . S
C939 C151 1.346 . S
C944 C62 1.317 . S
C955 C164 1.310 . S
C960 C257 1.336 . S
C971 C270 1.362 . S
C976 C177 1.339 . S
C987 C244 1.356 . S
C992 C190 1.362 . S
C1003 C203 1.363 . S
C1008 C309 1.347 . S
C1019 C283 1.331 . S
C1024 C216 1.308 . S
C1035 C229 1.310 . S
C1040 C296 1.338 . S
C1051 C242 1.362 . S
C1056 C179 1.356 . S
C1067 C255 1.353 . S
C1072 C192 1.363 . S
C1083 C166 1.333 . S
C1088 C268 1.359 . S
C1099 C231 1.361 . S
C1104 C281 1.336 . S
C1115 C205 1.311 . S
C1120 C294 1.313 . S
C1131 C307 1.341 . S
C1136 C218 1.314 . S
C1147 C413 1.364 . S
C1152 C320 1.351 . S
C1163 C333 1.311 . S
C1168 C426 1.338 . S
C1179 C346 1.316 . S
C1184 C400 1.346 . S
C1195 C465 1.347 . S
C1200 C359 1.317 . S
C1211 C372 1.318 . S
C1216 C439 1.309 . S
C1227 C452 1.362 . S
C1232 C385 1.339 . S
C1243 C335 1.355 . S
C1248 C398 1.325 . S
C1259 C348 1.311 . S
C1264 C411 1.336 . S
C1275 C424 1.364 . S
C1280 C322 1.349 . S
C1291 C437 1.346 . S
C1296 C387 1.318 . S
C1307 C361 1.341 . S
C1312 C450 1.312 . S
C1323 C374 1.320 . S
C1328 C463 1.348 . S
C1339 C5 1.316 . S
C1344 C44 1.352 . S
C1355 C18 1.356 . S
C1360 C57 1.381 . S
C1371 C70 1.356 . S
C1376 C31 1.316 . S
C1387 C83 1.325 . S
C1392 C122 1.334 . S
C1403 C135 1.345 . S
C1408 C96 1.384 . S
C1419 C148 1.385 . S
C1424 C109 1.340 . S
C1435 C161 1.324 . S
C1440 C200 1.336 . S
C1451 C174 1.380 . S
C1456 C213 1.325 . S
C1467 C226 1.383 . S
C1472 C187 1.351 . S
C1483 C239 1.328 . S
C1488 C278 1.382 1_554 S
C1499 C252 1.365 . S
C1504 C291 1.376 1_554 S
C1515 C265 1.341 . S
C1520 C304 1.385 1_554 S
C1531 C356 1.322 1_556 S
C1536 C317 1.339 . S
C1547 C369 1.377 1_556 S
C1552 C330 1.322 . S
C1563 C382 1.379 1_556 S
C1568 C343 1.360 . S
C1579 C395 1.317 . S
C1584 C434 1.369 . S
C1595 C447 1.384 . S
C1600 C408 1.343 . S
C1611 C460 1.381 . S
C1616 C421 1.326 . S
