# Generated by pormake.
# Topology ukh, (4)-cn, num edge types: 1
# Building blocks:
#     Node 0, Type 0, BuildingBlock: ICAMEG_clean_sbu_1, # of connection points: 4
#     Node 1, Type 0, BuildingBlock: ICAMEG_clean_sbu_1, # of connection points: 4
#     Node 2, Type 0, BuildingBlock: ICAMEG_clean_sbu_1, # of connection points: 4
#     Node 3, Type 0, BuildingBlock: ICAMEG_clean_sbu_1, # of connection points: 4
#     Node 4, Type 0, BuildingBlock: ICAMEG_clean_sbu_1, # of connection points: 4
#     Node 5, Type 0, BuildingBlock: ICAMEG_clean_sbu_1, # of connection points: 4
#     Node 6, Type 0, BuildingBlock: ICAMEG_clean_sbu_1, # of connection points: 4
#     Node 7, Type 0, BuildingBlock: ICAMEG_clean_sbu_1, # of connection points: 4
#     Node 8, Type 0, BuildingBlock: ICAMEG_clean_sbu_1, # of connection points: 4
#     Node 9, Type 0, BuildingBlock: ICAMEG_clean_sbu_1, # of connection points: 4
#     Node 10, Type 0, BuildingBlock: ICAMEG_clean_sbu_1, # of connection points: 4
#     Node 11, Type 0, BuildingBlock: ICAMEG_clean_sbu_1, # of connection points: 4
#     Edge 12, Type (0, 0), BuildingBlock: XIVTED_clean_linker_0, # of connection points: 2
#     Edge 13, Type (0, 0), BuildingBlock: XIVTED_clean_linker_0, # of connection points: 2
#     Edge 14, Type (0, 0), BuildingBlock: XIVTED_clean_linker_0, # of connection points: 2
#     Edge 15, Type (0, 0), BuildingBlock: XIVTED_clean_linker_0, # of connection points: 2
#     Edge 16, Type (0, 0), BuildingBlock: XIVTED_clean_linker_0, # of connection points: 2
#     Edge 17, Type (0, 0), BuildingBlock: XIVTED_clean_linker_0, # of connection points: 2
#     Edge 18, Type (0, 0), BuildingBlock: XIVTED_clean_linker_0, # of connection points: 2
#     Edge 19, Type (0, 0), BuildingBlock: XIVTED_clean_linker_0, # of connection points: 2
#     Edge 20, Type (0, 0), BuildingBlock: XIVTED_clean_linker_0, # of connection points: 2
#     Edge 21, Type (0, 0), BuildingBlock: XIVTED_clean_linker_0, # of connection points: 2
#     Edge 22, Type (0, 0), BuildingBlock: XIVTED_clean_linker_0, # of connection points: 2
#     Edge 23, Type (0, 0), BuildingBlock: XIVTED_clean_linker_0, # of connection points: 2
#     Edge 24, Type (0, 0), BuildingBlock: XIVTED_clean_linker_0, # of connection points: 2
#     Edge 25, Type (0, 0), BuildingBlock: XIVTED_clean_linker_0, # of connection points: 2
#     Edge 26, Type (0, 0), BuildingBlock: XIVTED_clean_linker_0, # of connection points: 2
#     Edge 27, Type (0, 0), BuildingBlock: XIVTED_clean_linker_0, # of connection points: 2
#     Edge 28, Type (0, 0), BuildingBlock: XIVTED_clean_linker_0, # of connection points: 2
#     Edge 29, Type (0, 0), BuildingBlock: XIVTED_clean_linker_0, # of connection points: 2
#     Edge 30, Type (0, 0), BuildingBlock: XIVTED_clean_linker_0, # of connection points: 2
#     Edge 31, Type (0, 0), BuildingBlock: XIVTED_clean_linker_0, # of connection points: 2
#     Edge 32, Type (0, 0), BuildingBlock: XIVTED_clean_linker_0, # of connection points: 2
#     Edge 33, Type (0, 0), BuildingBlock: XIVTED_clean_linker_0, # of connection points: 2
#     Edge 34, Type (0, 0), BuildingBlock: XIVTED_clean_linker_0, # of connection points: 2
#     Edge 35, Type (0, 0), BuildingBlock: XIVTED_clean_linker_0, # of connection points: 2
# Relax obj value: 0.030
# Max RMSD: 0.043
# Mean RMSD: 0.043
data_MOF--net-ukh--node1-ICAMEG_clean_sbu_1--edge1-XIVTED_clean_linker_0
_symmetry_space_group_name_H-M    P1
_symmetry_Int_Tables_number       1
_symmetry_cell_setting            triclinic
loop_
_symmetry_equiv_pos_as_xyz
'x, y, z'
_cell_length_a     34.338338
_cell_length_b     34.333303
_cell_length_c     70.070027
_cell_angle_alpha  89.988012
_cell_angle_beta   90.001081
_cell_angle_gamma 119.98395
loop_
_atom_site_label
_atom_site_type_symbol
_atom_site_fract_x
_atom_site_fract_y
_atom_site_fract_z
_atom_type_partial_charge
Co0 Co 0.34327 0.25061 0.03171 0.0
Co1 Co 0.26759 0.19359 0.06711 0.0
O2 O 0.32821 0.23918 0.05896 0.0
C3 C 0.38055 0.34171 0.04854 0.0
O4 O 0.34462 0.32658 0.0593 0.0
C5 C 0.33068 0.19115 0.09703 0.0
O6 O 0.3668 0.218 0.08718 0.0
O7 O 0.27315 0.14724 0.05229 0.0
O8 O 0.30186 0.18564 0.0252 0.0
H9 H 0.11232 0.0622 0.05665 0.0
H10 H 0.41806 0.28154 0.05946 0.0
O11 O 0.3852 0.3157 0.03703 0.0
H12 H 0.43409 0.17583 0.01703 0.0
H13 H 0.44719 0.32193 0.97574 0.0
H14 H 0.29026 0.22203 0.99587 0.0
H15 H 0.37294 0.19264 0.01203 0.0
H16 H 0.42817 0.3058 0.00985 0.0
O17 O 0.2916 0.17872 0.09042 0.0
H18 H 0.18821 0.12127 0.04703 0.0
H19 H 0.21861 0.16699 0.10435 0.0
H20 H 0.30785 0.23696 0.96162 0.0
H21 H 0.48003 0.26605 0.06486 0.0
H22 H 0.38681 0.28725 0.95135 0.0
H23 H 0.48826 0.21275 0.04358 0.0
O24 O 0.29349 0.26361 0.0279 0.0
H25 H 0.32004 0.32462 0.11226 0.0
H26 H 0.19696 0.21958 0.07026 0.0
H27 H 0.18934 0.27748 0.08788 0.0
H28 H 0.25104 0.33038 0.10917 0.0
H29 H 0.32668 0.26695 0.0941 0.0
H30 H 0.14317 0.10813 0.1146 0.0
H31 H 0.08935 0.05532 0.09066 0.0
O32 O 0.23995 0.20599 0.04448 0.0
C33 C 0.28132 0.14874 0.03446 0.0
C34 C 0.13543 0.08508 0.06721 0.0
C35 C 0.15276 0.11082 0.09974 0.0
N36 N 0.20779 0.14776 0.07508 0.0
C37 C 0.17844 0.11869 0.06184 0.0
C38 C 0.19549 0.14401 0.09385 0.0
C39 C 0.12258 0.08121 0.08629 0.0
C40 C 0.42155 0.25847 0.05009 0.0
N41 N 0.39181 0.23792 0.03551 0.0
C42 C 0.45665 0.24975 0.05324 0.0
C43 C 0.46122 0.21981 0.04131 0.0
C44 C 0.43081 0.19904 0.02643 0.0
C45 C 0.39611 0.20854 0.02372 0.0
C46 C 0.41267 0.29989 0.98003 0.0
C47 C 0.32474 0.24374 0.99152 0.0
C48 C 0.40168 0.29068 0.99933 0.0
N49 N 0.35818 0.2627 0.00484 0.0
C50 C 0.33447 0.25216 0.9721 0.0
C51 C 0.37878 0.28041 0.96636 0.0
C52 C 0.25246 0.23751 0.03226 0.0
C53 C 0.29276 0.30154 0.10315 0.0
C54 C 0.2241 0.24254 0.07942 0.0
C55 C 0.21951 0.27521 0.08941 0.0
C56 C 0.25411 0.30484 0.10137 0.0
N57 N 0.26201 0.23925 0.08132 0.0
C58 C 0.29616 0.26842 0.09294 0.0
Co59 Co 0.09009 0.33757 0.36592 0.0
Co60 Co 0.06574 0.26451 0.40373 0.0
O61 O 0.08616 0.32489 0.39344 0.0
C62 C 0.03778 0.37779 0.38123 0.0
O63 O 0.01562 0.34196 0.39196 0.0
C64 C 0.13999 0.32876 0.43051 0.0
O65 O 0.14811 0.36423 0.42043 0.0
O66 O 0.11065 0.25879 0.3877 0.0
O67 O 0.11118 0.2939 0.36062 0.0
H68 H 0.01784 0.10064 0.39845 0.0
H69 H 0.13579 0.41502 0.39234 0.0
O70 O 0.06888 0.38156 0.37018 0.0
H71 H 0.25603 0.42171 0.35157 0.0
H72 H 0.12656 0.43773 0.30834 0.0
H73 H 0.06428 0.28168 0.33088 0.0
H74 H 0.17729 0.36201 0.34698 0.0
H75 H 0.12275 0.42114 0.34276 0.0
O76 O 0.11069 0.28933 0.42512 0.0
H77 H 0.04164 0.17669 0.38626 0.0
H78 H 0.04879 0.22428 0.44284 0.0
H79 H 0.06777 0.29679 0.29633 0.0
H80 H 0.21405 0.47565 0.39727 0.0
H81 H 0.09909 0.37531 0.28486 0.0
H82 H 0.27484 0.47917 0.37683 0.0
O83 O 0.02685 0.28921 0.36216 0.0
H84 H 0.01081 0.34361 0.44755 0.0
H85 H 0.96894 0.20355 0.41265 0.0
H86 H 0.91183 0.20909 0.4318 0.0
H87 H 0.93266 0.27944 0.44956 0.0
H88 H 0.06643 0.33698 0.42795 0.0
H89 H 0.02551 0.14885 0.45563 0.0
H90 H 0.00967 0.08634 0.43337 0.0
O91 O 0.01943 0.23658 0.38315 0.0
C92 C 0.12096 0.2683 0.37014 0.0
C93 C 0.02449 0.12756 0.40829 0.0
C94 C 0.02887 0.15464 0.44038 0.0
N95 N 0.04626 0.20484 0.41379 0.0
C96 C 0.03784 0.17067 0.40146 0.0
C97 C 0.04217 0.19732 0.43305 0.0
C98 C 0.01997 0.11958 0.42788 0.0
C99 C 0.16202 0.41647 0.38332 0.0
N100 N 0.15197 0.3849 0.36945 0.0
C101 C 0.20629 0.45081 0.38621 0.0
C102 C 0.24038 0.45273 0.37476 0.0
C103 C 0.22986 0.42047 0.3606 0.0
C104 C 0.18522 0.38659 0.35814 0.0
C105 C 0.11295 0.40339 0.31316 0.0
C106 C 0.07824 0.31596 0.326 0.0
C107 C 0.11064 0.39378 0.33263 0.0
N108 N 0.09367 0.35051 0.33882 0.0
C109 C 0.08 0.3243 0.30642 0.0
C110 C 0.09754 0.36835 0.29999 0.0
C111 C 0.00537 0.24961 0.36904 0.0
C112 C 0.0014 0.31261 0.44003 0.0
C113 C 0.97835 0.23436 0.42024 0.0
C114 C 0.94583 0.23724 0.43113 0.0
C115 C 0.95753 0.27667 0.4411 0.0
N116 N 0.0215 0.2696 0.41935 0.0
C117 C 0.03304 0.30847 0.42901 0.0
Co118 Co 0.74997 0.08692 0.69508 0.0
Co119 Co 0.80146 0.0703 0.73312 0.0
O120 O 0.75698 0.08391 0.72259 0.0
C121 C 0.65728 0.03096 0.70962 0.0
O122 O 0.67175 0.00958 0.72039 0.0
C123 C 0.84195 0.13907 0.76382 0.0
O124 O 0.88149 0.15413 0.75578 0.0
O125 O 0.84995 0.123 0.71918 0.0
O126 O 0.816 0.11243 0.69079 0.0
H127 H 0.93799 0.05246 0.73062 0.0
H128 H 0.71487 0.12962 0.72142 0.0
O129 O 0.68405 0.06225 0.69852 0.0
H130 H 0.82143 0.25176 0.67935 0.0
H131 H 0.68538 0.11562 0.63574 0.0
H132 H 0.78592 0.06402 0.66107 0.0
H133 H 0.80747 0.17449 0.67528 0.0
H134 H 0.69622 0.11353 0.67044 0.0
O135 O 0.80679 0.10837 0.75571 0.0
H136 H 0.88017 0.06745 0.71747 0.0
H137 H 0.81911 0.04659 0.77207 0.0
H138 H 0.77635 0.06594 0.62626 0.0
H139 H 0.72753 0.20638 0.72589 0.0
H140 H 0.72578 0.09191 0.61338 0.0
H141 H 0.78118 0.26809 0.70477 0.0
O142 O 0.73979 0.02485 0.69227 0.0
H143 H 0.66296 0.99048 0.774 0.0
H144 H 0.77574 0.97361 0.73696 0.0
H145 H 0.71471 0.90763 0.75319 0.0
H146 H 0.65788 0.91585 0.77197 0.0
H147 H 0.72399 0.05541 0.75723 0.0
H148 H 0.87634 0.03147 0.78581 0.0
H149 H 0.93632 0.03432 0.76503 0.0
O150 O 0.79537 0.03067 0.71099 0.0
C151 C 0.85121 0.13003 0.70122 0.0
C152 C 0.91202 0.0511 0.73982 0.0
C153 C 0.87743 0.03932 0.77079 0.0
N154 N 0.84627 0.05791 0.74396 0.0
C155 C 0.87918 0.05956 0.73245 0.0
C156 C 0.84513 0.04795 0.76293 0.0
C157 C 0.91107 0.04093 0.75913 0.0
C158 C 0.73806 0.15626 0.71211 0.0
N159 N 0.7602 0.14752 0.69805 0.0
C160 C 0.74518 0.19967 0.71473 0.0
C161 C 0.77532 0.23428 0.70289 0.0
C162 C 0.79793 0.22515 0.68863 0.0
C163 C 0.78997 0.18134 0.68643 0.0
C164 C 0.70757 0.10433 0.64117 0.0
C165 C 0.76404 0.07558 0.65557 0.0
C166 C 0.71376 0.10297 0.66081 0.0
N167 N 0.74195 0.08899 0.66776 0.0
C168 C 0.75867 0.07649 0.63585 0.0
C169 C 0.73026 0.09103 0.62864 0.0
C170 C 0.7656 0.01061 0.69811 0.0
C171 C 0.68763 0.9865 0.76593 0.0
C172 C 0.75095 0.97746 0.74495 0.0
C173 C 0.71657 0.93998 0.75419 0.0
C174 C 0.68474 0.94463 0.76475 0.0
N175 N 0.75363 0.01849 0.74619 0.0
C176 C 0.72248 0.02324 0.7565 0.0
Co177 Co 0.65976 0.75641 0.03375 0.0
Co178 Co 0.73862 0.80416 0.06999 0.0
O179 O 0.6768 0.76549 0.0609 0.0
C180 C 0.6234 0.66434 0.04912 0.0
O181 O 0.66071 0.6788 0.05889 0.0
C182 C 0.67982 0.8204 0.09751 0.0
O183 O 0.6435 0.79654 0.08728 0.0
O184 O 0.74516 0.85492 0.05367 0.0
O185 O 0.7014 0.82125 0.0282 0.0
H186 H 0.90329 0.91372 0.06121 0.0
H187 H 0.58656 0.7229 0.0625 0.0
O188 O 0.61763 0.69101 0.03844 0.0
H189 H 0.57081 0.8354 0.0247 0.0
H190 H 0.55031 0.69097 0.97918 0.0
H191 H 0.70919 0.78864 0.99716 0.0
H192 H 0.63076 0.81812 0.01734 0.0
H193 H 0.57277 0.70361 0.01305 0.0
O194 O 0.71795 0.82725 0.09177 0.0
H195 H 0.82521 0.86358 0.05068 0.0
H196 H 0.78345 0.82839 0.10824 0.0
H197 H 0.68818 0.77718 0.96312 0.0
H198 H 0.52568 0.73866 0.07015 0.0
H199 H 0.60821 0.72802 0.95394 0.0
H200 H 0.51764 0.79542 0.05123 0.0
O201 O 0.70833 0.74285 0.02751 0.0
H202 H 0.65842 0.67363 0.11534 0.0
H203 H 0.79721 0.76524 0.07853 0.0
H204 H 0.78992 0.70213 0.09795 0.0
H205 H 0.72019 0.65591 0.11664 0.0
H206 H 0.66672 0.73628 0.09545 0.0
H207 H 0.86095 0.87852 0.11939 0.0
H208 H 0.92156 0.92146 0.0958 0.0
O209 O 0.76229 0.78225 0.04912 0.0
C210 C 0.73087 0.85611 0.03697 0.0
C211 C 0.8772 0.89509 0.07163 0.0
C212 C 0.85342 0.8754 0.10428 0.0
N213 N 0.79983 0.84285 0.0788 0.0
C214 C 0.83295 0.86655 0.06574 0.0
C215 C 0.80955 0.84718 0.09787 0.0
C216 C 0.88742 0.89946 0.09103 0.0
C217 C 0.58304 0.74735 0.05409 0.0
N218 N 0.61228 0.76962 0.03953 0.0
C219 C 0.54861 0.75627 0.05854 0.0
C220 C 0.54416 0.78818 0.04794 0.0
C221 C 0.57403 0.81067 0.03307 0.0
C222 C 0.60808 0.8009 0.02904 0.0
C223 C 0.58526 0.71249 0.983 0.0
C224 C 0.67432 0.76733 0.99328 0.0
C225 C 0.5982 0.71969 0.00215 0.0
N226 N 0.64226 0.74699 0.00708 0.0
C227 C 0.66263 0.76091 0.97398 0.0
C228 C 0.61776 0.7333 0.96884 0.0
C229 C 0.7476 0.75744 0.03435 0.0
C230 C 0.68909 0.69368 0.10736 0.0
C231 C 0.76663 0.74514 0.08648 0.0
C232 C 0.76278 0.70954 0.09753 0.0
C233 C 0.72369 0.68367 0.10803 0.0
N234 N 0.73264 0.75494 0.0859 0.0
C235 C 0.69417 0.72959 0.09615 0.0
Co236 Co 0.90756 0.66171 0.36434 0.0
Co237 Co 0.93601 0.73643 0.40198 0.0
O238 O 0.91303 0.6756 0.39178 0.0
C239 C 0.96108 0.62304 0.37964 0.0
O240 O 0.98365 0.65987 0.38974 0.0
C241 C 0.85838 0.6754 0.42807 0.0
O242 O 0.84577 0.64019 0.41707 0.0
O243 O 0.89302 0.74489 0.38574 0.0
O244 O 0.88598 0.70503 0.35923 0.0
H245 H 0.99224 0.90206 0.39643 0.0
H246 H 0.86401 0.58535 0.3915 0.0
O247 O 0.9294 0.61819 0.36867 0.0
H248 H 0.74067 0.57654 0.35225 0.0
H249 H 0.8673 0.55837 0.3077 0.0
H250 H 0.92988 0.71552 0.32876 0.0
H251 H 0.81895 0.63627 0.34662 0.0
H252 H 0.87393 0.57697 0.34198 0.0
O253 O 0.89096 0.71372 0.42328 0.0
H254 H 0.96446 0.82512 0.38437 0.0
H255 H 0.95492 0.77711 0.44104 0.0
H256 H 0.92354 0.69839 0.29434 0.0
H257 H 0.78627 0.52465 0.39742 0.0
H258 H 0.89205 0.61931 0.28361 0.0
H259 H 0.72392 0.52008 0.37777 0.0
O260 O 0.9705 0.71008 0.35949 0.0
H261 H 0.98204 0.65078 0.44623 0.0
H262 H 0.03336 0.79295 0.41144 0.0
H263 H 0.08749 0.7828 0.4308 0.0
H264 H 0.06188 0.71133 0.44847 0.0
H265 H 0.9294 0.66201 0.42641 0.0
H266 H 0.98212 0.85341 0.4537 0.0
H267 H 0.00119 0.91659 0.43132 0.0
O268 O 0.98273 0.76228 0.38158 0.0
C269 C 0.87962 0.73324 0.36859 0.0
C270 C 0.98416 0.87484 0.40632 0.0
C271 C 0.97841 0.84752 0.43846 0.0
N272 N 0.95834 0.79668 0.41196 0.0
C273 C 0.96854 0.83122 0.39957 0.0
C274 C 0.96288 0.80434 0.4312 0.0
C275 C 0.98913 0.88296 0.4259 0.0
C276 C 0.83713 0.58337 0.38277 0.0
N277 N 0.84605 0.6144 0.36876 0.0
C278 C 0.79314 0.54902 0.38625 0.0
C279 C 0.75817 0.54652 0.37524 0.0
C280 C 0.76753 0.57823 0.36094 0.0
C281 C 0.81192 0.61213 0.35788 0.0
C282 C 0.88099 0.59295 0.3122 0.0
C283 C 0.9159 0.681 0.3242 0.0
C284 C 0.88491 0.6037 0.33159 0.0
N285 N 0.90197 0.64727 0.33736 0.0
C286 C 0.9125 0.67152 0.30469 0.0
C287 C 0.89488 0.62715 0.29869 0.0
C288 C 0.99428 0.749 0.36678 0.0
C289 C 0.99357 0.68218 0.43868 0.0
C290 C 0.02199 0.76165 0.41893 0.0
C291 C 0.05277 0.75616 0.42996 0.0
C292 C 0.03838 0.7161 0.43989 0.0
N293 N 0.978 0.72832 0.41783 0.0
C294 C 0.96373 0.68891 0.42753 0.0
Co295 Co 0.24707 0.91015 0.69823 0.0
Co296 Co 0.19054 0.92185 0.73584 0.0
O297 O 0.2371 0.91025 0.72584 0.0
C298 C 0.33881 0.9638 0.71448 0.0
O299 O 0.32373 0.98278 0.72634 0.0
C300 C 0.19464 0.85577 0.76361 0.0
O301 O 0.22664 0.85415 0.75404 0.0
O302 O 0.14451 0.87125 0.72031 0.0
O303 O 0.18161 0.88538 0.69263 0.0
H304 H 0.05589 0.94218 0.72989 0.0
H305 H 0.28141 0.86505 0.72362 0.0
O306 O 0.3126 0.93442 0.70259 0.0
H307 H 0.17602 0.74679 0.67984 0.0
H308 H 0.31714 0.88698 0.63933 0.0
H309 H 0.21521 0.93736 0.66414 0.0
H310 H 0.19035 0.82442 0.677 0.0
H311 H 0.30277 0.88543 0.67388 0.0
O312 O 0.17774 0.87929 0.75773 0.0
H313 H 0.11639 0.92971 0.71803 0.0
H314 H 0.16321 0.93546 0.77465 0.0
H315 H 0.22837 0.93914 0.62947 0.0
H316 H 0.26839 0.78791 0.72686 0.0
H317 H 0.27965 0.91381 0.61685 0.0
H318 H 0.21526 0.72811 0.70489 0.0
O319 O 0.25779 0.97252 0.69635 0.0
H320 H 0.32449 0.99982 0.77982 0.0
H321 H 0.21164 0.01597 0.74256 0.0
H322 H 0.26833 0.08033 0.76107 0.0
H323 H 0.32515 0.07247 0.78001 0.0
H324 H 0.26803 0.93681 0.76083 0.0
H325 H 0.10295 0.94759 0.78713 0.0
H326 H 0.04889 0.95123 0.76467 0.0
O327 O 0.20099 0.96514 0.71461 0.0
C328 C 0.14531 0.86639 0.70231 0.0
C329 C 0.07933 0.94081 0.73981 0.0
C330 C 0.10571 0.94378 0.77194 0.0
N331 N 0.14355 0.93221 0.7456 0.0
C332 C 0.11374 0.93387 0.73317 0.0
C333 C 0.13969 0.93678 0.76479 0.0
C334 C 0.07539 0.94584 0.75933 0.0
C335 C 0.25835 0.83925 0.71398 0.0
N336 N 0.23652 0.84923 0.70022 0.0
C337 C 0.25107 0.79561 0.71589 0.0
C338 C 0.22123 0.76207 0.70357 0.0
C339 C 0.19916 0.77252 0.68953 0.0
C340 C 0.20726 0.81653 0.68806 0.0
C341 C 0.29465 0.89802 0.64464 0.0
C342 C 0.23739 0.92606 0.65875 0.0
C343 C 0.28644 0.89729 0.6642 0.0
N344 N 0.25789 0.91096 0.67101 0.0
C345 C 0.24479 0.92725 0.63911 0.0
C346 C 0.2736 0.91306 0.63204 0.0
C347 C 0.23181 0.98644 0.70228 0.0
C348 C 0.29961 0.00354 0.77179 0.0
C349 C 0.2362 0.01211 0.75073 0.0
C350 C 0.26823 0.04876 0.76121 0.0
C351 C 0.30007 0.04433 0.77184 0.0
N352 N 0.23559 0.97194 0.75086 0.0
C353 C 0.26705 0.96761 0.76113 0.0
Co354 Co 0.75129 0.65808 0.63443 0.0
Co355 Co 0.80743 0.73492 0.59931 0.0
O356 O 0.76137 0.67423 0.60723 0.0
C357 C 0.65936 0.6218 0.61836 0.0
O358 O 0.67428 0.65756 0.6075 0.0
C359 C 0.80789 0.67245 0.56865 0.0
O360 O 0.78295 0.63627 0.57882 0.0
O361 O 0.8539 0.72738 0.61301 0.0
O362 O 0.81686 0.69818 0.64033 0.0
H363 H 0.94151 0.88838 0.61001 0.0
H364 H 0.71752 0.58433 0.60603 0.0
O365 O 0.68568 0.61715 0.62969 0.0
H366 H 0.82386 0.56395 0.64623 0.0
H367 H 0.68195 0.55243 0.69005 0.0
H368 H 0.78308 0.70961 0.67053 0.0
H369 H 0.80894 0.62593 0.65254 0.0
H370 H 0.69612 0.57261 0.65597 0.0
O371 O 0.82003 0.71142 0.57529 0.0
H372 H 0.88199 0.81249 0.61938 0.0
H373 H 0.83257 0.78577 0.56251 0.0
H374 H 0.77013 0.69084 0.70476 0.0
H375 H 0.73104 0.52153 0.59935 0.0
H376 H 0.71924 0.61175 0.71472 0.0
H377 H 0.78467 0.51112 0.61951 0.0
O378 O 0.73975 0.70855 0.63929 0.0
H379 H 0.67488 0.68736 0.55554 0.0
H380 H 0.78279 0.80682 0.59821 0.0
H381 H 0.72468 0.81653 0.58188 0.0
H382 H 0.67033 0.75666 0.56027 0.0
H383 H 0.73285 0.67858 0.57244 0.0
H384 H 0.89182 0.86126 0.5525 0.0
H385 H 0.94673 0.91323 0.57635 0.0
O386 O 0.79737 0.76207 0.62271 0.0
C387 C 0.85323 0.71817 0.63069 0.0
C388 C 0.91772 0.86608 0.59949 0.0
C389 C 0.88987 0.85084 0.56721 0.0
N390 N 0.85365 0.79472 0.59154 0.0
C391 C 0.88386 0.82307 0.60472 0.0
C392 C 0.85646 0.80807 0.57296 0.0
C393 C 0.92065 0.87999 0.5806 0.0
C394 C 0.74071 0.57987 0.61492 0.0
N395 N 0.76251 0.60888 0.6296 0.0
C396 C 0.74832 0.54432 0.61104 0.0
C397 C 0.77845 0.53853 0.62234 0.0
C398 C 0.80049 0.56819 0.63732 0.0
C399 C 0.79207 0.60338 0.64076 0.0
C400 C 0.70426 0.587 0.68589 0.0
C401 C 0.76107 0.67508 0.67474 0.0
C402 C 0.71235 0.59866 0.66661 0.0
N403 N 0.74065 0.64222 0.66126 0.0
C404 C 0.75379 0.66467 0.69415 0.0
C405 C 0.7252 0.6203 0.69972 0.0
C406 C 0.76648 0.74965 0.63521 0.0
C407 C 0.69856 0.71383 0.56482 0.0
C408 C 0.75915 0.78043 0.58892 0.0
C409 C 0.72638 0.78623 0.57966 0.0
C410 C 0.69594 0.75265 0.56752 0.0
N411 N 0.76167 0.74232 0.58615 0.0
C412 C 0.73179 0.70921 0.57432 0.0
Co413 Co 0.08725 0.75645 0.96704 0.0
Co414 Co 0.06195 0.80714 0.93096 0.0
O415 O 0.0799 0.76413 0.93977 0.0
C416 C 0.03281 0.66285 0.95264 0.0
O417 O 0.01007 0.67559 0.9418 0.0
C418 C 0.13425 0.81873 0.90314 0.0
O419 O 0.15908 0.81556 0.91661 0.0
O420 O 0.11432 0.8569 0.94456 0.0
O421 O 0.11071 0.82174 0.97201 0.0
H422 H 0.03202 0.93529 0.93898 0.0
H423 H 0.12804 0.72364 0.93865 0.0
O424 O 0.06448 0.69096 0.96323 0.0
H425 H 0.25465 0.83428 0.9777 0.0
H426 H 0.12903 0.69408 0.02353 0.0
H427 H 0.0669 0.78924 0.00271 0.0
H428 H 0.17719 0.81709 0.98445 0.0
H429 H 0.12123 0.70531 0.98928 0.0
O430 O 0.09808 0.81858 0.90721 0.0
H431 H 0.05279 0.87963 0.94961 0.0
H432 H 0.03518 0.82771 0.89329 0.0
H433 H 0.07444 0.7792 0.0371 0.0
H434 H 0.20495 0.7394 0.93154 0.0
H435 H 0.10571 0.73132 0.04771 0.0
H436 H 0.26891 0.79519 0.95111 0.0
O437 O 0.02483 0.74329 0.97214 0.0
H438 H 0.98681 0.67082 0.88867 0.0
H439 H 0.96389 0.77673 0.92793 0.0
H440 H 0.89908 0.71444 0.91169 0.0
H441 H 0.91035 0.661 0.89179 0.0
H442 H 0.05047 0.73304 0.90553 0.0
H443 H 0.01459 0.88305 0.88203 0.0
H444 H 0.01273 0.93725 0.90497 0.0
O445 O 0.02318 0.79604 0.95394 0.0
C446 C 0.12456 0.85746 0.96213 0.0
C447 C 0.03262 0.91179 0.92886 0.0
C448 C 0.02291 0.88252 0.89689 0.0
N449 N 0.04506 0.85028 0.92212 0.0
C450 C 0.04429 0.88013 0.9348 0.0
C451 C 0.03476 0.85134 0.90335 0.0
C452 C 0.02184 0.9129 0.90977 0.0
C453 C 0.15566 0.74766 0.94733 0.0
N454 N 0.1481 0.76932 0.96196 0.0
C455 C 0.19915 0.75657 0.94319 0.0
C456 C 0.23503 0.78793 0.95416 0.0
C457 C 0.22706 0.80991 0.96907 0.0
C458 C 0.18313 0.80016 0.97278 0.0
C459 C 0.11545 0.7151 0.01909 0.0
C460 C 0.08077 0.76856 0.00721 0.0
C461 C 0.11087 0.72152 0.99971 0.0
N462 N 0.09396 0.74821 0.994 0.0
C463 C 0.08486 0.76291 0.02671 0.0
C464 C 0.10237 0.73601 0.03265 0.0
C465 C 0.00687 0.76638 0.96706 0.0
C466 C 0.98145 0.69387 0.8973 0.0
C467 C 0.96898 0.7533 0.91958 0.0
C468 C 0.9322 0.71824 0.91027 0.0
C469 C 0.93856 0.68834 0.89908 0.0
N470 N 0.01095 0.75846 0.91784 0.0
C471 C 0.01743 0.72933 0.90682 0.0
Co472 Co 0.33563 0.0905 0.30215 0.0
Co473 Co 0.26187 0.06446 0.26444 0.0
O474 O 0.32252 0.08585 0.27464 0.0
C475 C 0.37592 0.03805 0.28701 0.0
O476 O 0.34017 0.0158 0.27626 0.0
C477 C 0.3245 0.13999 0.23776 0.0
O478 O 0.35956 0.1521 0.24879 0.0
O479 O 0.25554 0.10929 0.28032 0.0
O480 O 0.29204 0.11175 0.30727 0.0
H481 H 0.0976 0.01459 0.27 0.0
H482 H 0.4126 0.13531 0.27543 0.0
O483 O 0.37957 0.06916 0.29802 0.0
H484 H 0.42001 0.25692 0.31547 0.0
H485 H 0.43677 0.1289 0.35948 0.0
H486 H 0.28038 0.06609 0.33736 0.0
H487 H 0.36036 0.17834 0.32053 0.0
H488 H 0.41957 0.12384 0.32509 0.0
O489 O 0.28572 0.10856 0.24277 0.0
H490 H 0.17412 0.04009 0.28203 0.0
H491 H 0.22078 0.04487 0.22545 0.0
H492 H 0.29611 0.07083 0.37188 0.0
H493 H 0.47322 0.21339 0.27006 0.0
H494 H 0.3748 0.10242 0.38314 0.0
H495 H 0.47709 0.27486 0.29012 0.0
O496 O 0.28732 0.02729 0.30639 0.0
H497 H 0.34296 0.01228 0.22057 0.0
H498 H 0.20257 0.96697 0.25583 0.0
H499 H 0.20991 0.91062 0.23686 0.0
H500 H 0.28045 0.9332 0.21894 0.0
H501 H 0.33454 0.06717 0.24003 0.0
H502 H 0.14489 0.01987 0.21281 0.0
H503 H 0.0826 0.00436 0.23515 0.0
O504 O 0.2347 0.01861 0.28517 0.0
C505 C 0.26577 0.12063 0.29775 0.0
C506 C 0.12443 0.02113 0.26012 0.0
C507 C 0.15099 0.02417 0.22802 0.0
N508 N 0.20187 0.04375 0.25448 0.0
C509 C 0.16781 0.03547 0.26685 0.0
C510 C 0.19395 0.03847 0.23527 0.0
C511 C 0.11605 0.01544 0.24057 0.0
C512 C 0.41425 0.16183 0.28431 0.0
N513 N 0.38289 0.15225 0.29823 0.0
C514 C 0.44857 0.206 0.28116 0.0
C515 C 0.45068 0.24048 0.2924 0.0
C516 C 0.41863 0.23045 0.30661 0.0
C517 C 0.38477 0.18589 0.30934 0.0
C518 C 0.40236 0.11516 0.35475 0.0
C519 C 0.31474 0.08014 0.34215 0.0
C520 C 0.3924 0.11215 0.3353 0.0
N521 N 0.34904 0.09502 0.32923 0.0
C522 C 0.32343 0.08262 0.36171 0.0
C523 C 0.36758 0.10031 0.36802 0.0
C524 C 0.24779 0.00528 0.29949 0.0
C525 C 0.31194 0.00207 0.22822 0.0
C526 C 0.23349 0.97704 0.24824 0.0
C527 C 0.23738 0.94499 0.23743 0.0
C528 C 0.27692 0.95769 0.22735 0.0
N529 N 0.26788 0.02061 0.24899 0.0
C530 C 0.3068 0.0332 0.23917 0.0
Co531 Co 0.24617 0.33746 0.63472 0.0
Co532 Co 0.19216 0.25584 0.6014 0.0
O533 O 0.2378 0.31759 0.60803 0.0
C534 C 0.33913 0.37295 0.61982 0.0
O535 O 0.32518 0.33625 0.60968 0.0
C536 C 0.18403 0.31205 0.57037 0.0
O537 O 0.18745 0.34228 0.58277 0.0
O538 O 0.14492 0.26579 0.61293 0.0
O539 O 0.18029 0.29771 0.64025 0.0
H540 H 0.05636 0.10462 0.61392 0.0
H541 H 0.27967 0.40581 0.60399 0.0
O542 O 0.31196 0.37829 0.63033 0.0
H543 H 0.17256 0.43226 0.64072 0.0
H544 H 0.31193 0.45057 0.68804 0.0
H545 H 0.21279 0.29079 0.67179 0.0
H546 H 0.18783 0.37191 0.65003 0.0
H547 H 0.29961 0.42584 0.65445 0.0
O548 O 0.18361 0.27656 0.57592 0.0
H549 H 0.11564 0.18154 0.62208 0.0
H550 H 0.16974 0.19965 0.56615 0.0
H551 H 0.22386 0.31414 0.70555 0.0
H552 H 0.26577 0.4669 0.5943 0.0
H553 H 0.27376 0.39455 0.71386 0.0
H554 H 0.21178 0.48036 0.61271 0.0
O555 O 0.2579 0.28808 0.6418 0.0
H556 H 0.32653 0.29559 0.55997 0.0
H557 H 0.21703 0.1842 0.60494 0.0
H558 H 0.27628 0.17216 0.59126 0.0
H559 H 0.33146 0.22798 0.56853 0.0
H560 H 0.26728 0.30681 0.57428 0.0
H561 H 0.11084 0.12302 0.55735 0.0
H562 H 0.05366 0.07486 0.58135 0.0
O563 O 0.19976 0.23217 0.6264 0.0
C564 C 0.14447 0.27675 0.6303 0.0
C565 C 0.08112 0.12525 0.60335 0.0
C566 C 0.11166 0.1356 0.57159 0.0
N567 N 0.14625 0.19512 0.59463 0.0
C568 C 0.11484 0.16885 0.60789 0.0
C569 C 0.14486 0.17905 0.57664 0.0
C570 C 0.07961 0.10859 0.58507 0.0
C571 C 0.25642 0.41173 0.61215 0.0
N572 N 0.23473 0.38544 0.62758 0.0
C573 C 0.24856 0.44624 0.60656 0.0
C574 C 0.21821 0.45373 0.61688 0.0
C575 C 0.19616 0.42673 0.63259 0.0
C576 C 0.20484 0.39251 0.63775 0.0
C577 C 0.29004 0.41545 0.6846 0.0
C578 C 0.23434 0.32589 0.67527 0.0
C579 C 0.283 0.40122 0.6656 0.0
N580 N 0.25523 0.35694 0.66115 0.0
C581 C 0.24057 0.33889 0.69443 0.0
C582 C 0.2686 0.384 0.69908 0.0
C583 C 0.23099 0.24644 0.63882 0.0
C584 C 0.30262 0.27097 0.56983 0.0
C585 C 0.24116 0.20892 0.59522 0.0
C586 C 0.27452 0.20178 0.58744 0.0
C587 C 0.30543 0.23308 0.57466 0.0
N588 N 0.23866 0.24623 0.59044 0.0
C589 C 0.26883 0.27702 0.5779 0.0
Co590 Co 0.91559 0.25347 0.97296 0.0
Co591 Co 0.93024 0.20133 0.93462 0.0
O592 O 0.91656 0.24552 0.94542 0.0
C593 C 0.96987 0.34559 0.95766 0.0
O594 O 0.99081 0.33075 0.94682 0.0
C595 C 0.85978 0.15886 0.90473 0.0
O596 O 0.84617 0.11969 0.91288 0.0
O597 O 0.87911 0.15278 0.94928 0.0
O598 O 0.89116 0.18764 0.97754 0.0
H599 H 0.95085 0.0664 0.93663 0.0
H600 H 0.87024 0.28704 0.94729 0.0
O601 O 0.93938 0.31926 0.96917 0.0
H602 H 0.75189 0.18075 0.99085 0.0
H603 H 0.89031 0.31948 0.03266 0.0
H604 H 0.94152 0.21922 0.00665 0.0
H605 H 0.82974 0.19573 0.99384 0.0
H606 H 0.89005 0.30751 0.99794 0.0
O607 O 0.89022 0.19461 0.91258 0.0
H608 H 0.93552 0.12373 0.95008 0.0
H609 H 0.95192 0.18327 0.89535 0.0
H610 H 0.94198 0.22993 0.04147 0.0
H611 H 0.79287 0.27335 0.9439 0.0
H612 H 0.91622 0.28037 0.05469 0.0
H613 H 0.73307 0.21983 0.96578 0.0
O614 O 0.97808 0.26438 0.97499 0.0
H615 H 0.00504 0.33871 0.89283 0.0
H616 H 0.02703 0.22861 0.9295 0.0
H617 H 0.09121 0.28982 0.91245 0.0
H618 H 0.0804 0.34529 0.89385 0.0
H619 H 0.94196 0.27755 0.91041 0.0
H620 H 0.96733 0.1265 0.88131 0.0
H621 H 0.96688 0.06752 0.90201 0.0
O622 O 0.97162 0.2087 0.95617 0.0
C623 C 0.87365 0.15201 0.96735 0.0
C624 C 0.95114 0.09192 0.92746 0.0
C625 C 0.96039 0.12565 0.89642 0.0
N626 N 0.94278 0.15684 0.92353 0.0
C627 C 0.94247 0.12449 0.935 0.0
C628 C 0.95161 0.15769 0.90446 0.0
C629 C 0.96013 0.09257 0.90804 0.0
C630 C 0.84445 0.26392 0.95694 0.0
N631 N 0.85456 0.24244 0.97081 0.0
C632 C 0.80068 0.25621 0.95492 0.0
C633 C 0.76713 0.22614 0.96718 0.0
C634 C 0.77766 0.20419 0.98125 0.0
C635 C 0.82179 0.21273 0.98284 0.0
C636 C 0.90153 0.29735 0.02708 0.0
C637 C 0.93004 0.24102 0.0123 0.0
C638 C 0.90155 0.29052 0.00743 0.0
N639 N 0.91543 0.26241 1.00029 0.0
C640 C 0.93048 0.24705 0.03202 0.0
C641 C 0.91606 0.27539 0.03943 0.0
C642 C 0.99207 0.23849 0.96898 0.0
C643 C 0.01013 0.31462 0.90081 0.0
C644 C 0.02206 0.2528 0.92159 0.0
C645 C 0.05853 0.28729 0.91188 0.0
C646 C 0.05242 0.31836 0.90143 0.0
N647 N 0.98061 0.24927 0.92089 0.0
C648 C 0.97443 0.27969 0.91069 0.0
Co649 Co 0.66085 0.90893 0.30274 0.0
Co650 Co 0.73874 0.94217 0.26607 0.0
O651 O 0.67707 0.91787 0.27552 0.0
C652 C 0.62302 0.96401 0.28831 0.0
O653 O 0.66049 0.98781 0.27875 0.0
C654 C 0.68006 0.86774 0.23829 0.0
O655 O 0.64424 0.85341 0.24905 0.0
O656 O 0.74617 0.89747 0.28158 0.0
O657 O 0.70382 0.88687 0.30763 0.0
H658 H 0.90386 0.99799 0.27366 0.0
H659 H 0.58682 0.8688 0.27438 0.0
O660 O 0.61757 0.93118 0.29866 0.0
H661 H 0.5751 0.74072 0.31101 0.0
H662 H 0.55275 0.86137 0.35796 0.0
H663 H 0.71158 0.92664 0.33901 0.0
H664 H 0.63418 0.81822 0.31851 0.0
H665 H 0.57426 0.87243 0.32397 0.0
O666 O 0.71798 0.89976 0.24382 0.0
H667 H 0.82593 0.9688 0.28471 0.0
H668 H 0.78274 0.96578 0.22764 0.0
H669 H 0.69154 0.91586 0.37316 0.0
H670 H 0.52677 0.79188 0.26661 0.0
H671 H 0.6116 0.883 0.38283 0.0
H672 H 0.52076 0.72715 0.28493 0.0
O673 O 0.70871 0.97121 0.30912 0.0
H674 H 0.65601 0.99288 0.22242 0.0
H675 H 0.79599 0.04035 0.25834 0.0
H676 H 0.7871 0.09651 0.23991 0.0
H677 H 0.71675 0.07285 0.22167 0.0
H678 H 0.66593 0.93819 0.24135 0.0
H679 H 0.86008 0.99445 0.21597 0.0
H680 H 0.92133 0.01096 0.23905 0.0
O681 O 0.76263 0.98649 0.28743 0.0
C682 C 0.73305 0.88194 0.29838 0.0
C683 C 0.87748 0.99104 0.26346 0.0
C684 C 0.8529 0.98898 0.23108 0.0
N685 N 0.79983 0.96582 0.25687 0.0
C686 C 0.83331 0.97463 0.26964 0.0
C687 C 0.80912 0.97258 0.23778 0.0
C688 C 0.88725 0.99826 0.24404 0.0
C689 C 0.58418 0.84086 0.28254 0.0
N690 N 0.61405 0.84803 0.29685 0.0
C691 C 0.55022 0.79735 0.27802 0.0
C692 C 0.54691 0.76105 0.28828 0.0
C693 C 0.57743 0.76863 0.3029 0.0
C694 C 0.61098 0.8126 0.30701 0.0
C695 C 0.58769 0.87565 0.35393 0.0
C696 C 0.67671 0.9121 0.3431 0.0
C697 C 0.60009 0.88208 0.3347 0.0
N698 N 0.64412 0.8999 0.3295 0.0
C699 C 0.66557 0.90618 0.36246 0.0
C700 C 0.62072 0.88778 0.36787 0.0
C701 C 0.74809 0.99604 0.30242 0.0
C702 C 0.68692 0.00359 0.23023 0.0
C703 C 0.76513 0.02984 0.25064 0.0
C704 C 0.76037 0.06176 0.24011 0.0
C705 C 0.72094 0.04846 0.22986 0.0
N706 N 0.73168 0.98582 0.25093 0.0
C707 C 0.69291 0.9726 0.24089 0.0
H708 H 0.60271 0.60482 0.07873 0.0
H709 H 0.43441 0.39145 0.0194 0.0
H710 H 0.56332 0.61592 0.0214 0.0
H711 H 0.40681 0.40021 0.07884 0.0
H712 H 0.49364 0.4704 0.02017 0.0
H713 H 0.54185 0.52564 0.07946 0.0
C714 C 0.58142 0.59052 0.06631 0.0
C715 C 0.5879 0.61673 0.04998 0.0
C716 C 0.47456 0.455 0.03302 0.0
C717 C 0.51944 0.52695 0.05064 0.0
C718 C 0.44094 0.41003 0.03263 0.0
C719 C 0.41567 0.3895 0.04907 0.0
C720 C 0.4838 0.47931 0.05009 0.0
C721 C 0.4254 0.41508 0.06584 0.0
C722 C 0.54671 0.54567 0.0668 0.0
C723 C 0.55931 0.59686 0.03429 0.0
N724 N 0.45918 0.45876 0.066 0.0
N725 N 0.52663 0.55301 0.03493 0.0
H726 H 0.04535 0.43273 0.35185 0.0
H727 H 0.99715 0.60086 0.40975 0.0
H728 H 0.00397 0.40442 0.41076 0.0
H729 H 0.95078 0.56343 0.35182 0.0
H730 H 0.01491 0.53967 0.41084 0.0
H731 H 0.02615 0.49246 0.35191 0.0
C732 C 0.03237 0.43924 0.36482 0.0
C733 C 0.02604 0.41361 0.38132 0.0
C734 C 0.00077 0.54502 0.39796 0.0
C735 C 0.00493 0.48223 0.38153 0.0
C736 C 0.99094 0.57992 0.39727 0.0
C737 C 0.97253 0.58706 0.38066 0.0
C738 C 0.9933 0.51819 0.38174 0.0
C739 C 0.96479 0.55888 0.36491 0.0
C740 C 0.02129 0.47312 0.3648 0.0
C741 C 0.00898 0.4233 0.39772 0.0
N742 N 0.9757 0.52598 0.36576 0.0
N743 N 0.9994 0.45729 0.3975 0.0
H744 H 0.39804 0.99322 0.74457 0.0
H745 H 0.60913 0.04192 0.68156 0.0
H746 H 0.38745 0.96142 0.68453 0.0
H747 H 0.59866 0.99642 0.73974 0.0
H748 H 0.53176 0.0269 0.68332 0.0
H749 H 0.47646 0.00908 0.74402 0.0
C750 C 0.41235 0.98999 0.73129 0.0
C751 C 0.38645 0.976 0.71457 0.0
C752 C 0.5464 0.02012 0.69568 0.0
C753 C 0.47527 0.99434 0.71384 0.0
C754 C 0.59046 0.02871 0.69471 0.0
C755 C 0.61006 0.02009 0.7105 0.0
C756 C 0.52208 0.00376 0.71269 0.0
C757 C 0.58446 0.00303 0.7272 0.0
C758 C 0.45674 0.99865 0.73103 0.0
C759 C 0.40627 0.97192 0.69775 0.0
N760 N 0.5417 0.99574 0.72794 0.0
N761 N 0.4496 0.98138 0.69778 0.0
H762 H 0.60067 0.59583 0.58814 0.0
H763 H 0.38648 0.4308 0.64834 0.0
H764 H 0.61013 0.56663 0.6473 0.0
H765 H 0.39928 0.39725 0.59021 0.0
H766 H 0.46457 0.49203 0.64744 0.0
H767 H 0.52206 0.53365 0.58777 0.0
C768 C 0.58609 0.57658 0.60104 0.0
C769 C 0.61172 0.58622 0.61778 0.0
C770 C 0.45025 0.4712 0.63491 0.0
C771 C 0.52259 0.51619 0.61749 0.0
C772 C 0.40579 0.43639 0.63538 0.0
C773 C 0.38663 0.40888 0.61935 0.0
C774 C 0.47542 0.47934 0.61814 0.0
C775 C 0.41309 0.41754 0.60291 0.0
C776 C 0.54159 0.54108 0.60077 0.0
C777 C 0.59152 0.56015 0.63409 0.0
N778 N 0.45622 0.45245 0.60264 0.0
N779 N 0.54802 0.5266 0.6336 0.0
H780 H 0.00176 0.40195 0.92675 0.0
H781 H 0.04178 0.61829 0.98269 0.0
H782 H 0.96087 0.39575 0.98543 0.0
H783 H 0.99965 0.60036 0.92379 0.0
H784 H 0.02638 0.5407 0.98349 0.0
H785 H 0.01544 0.47945 0.92483 0.0
C786 C 0.99604 0.41704 0.93923 0.0
C787 C 0.98029 0.39265 0.95629 0.0
C788 C 0.02041 0.55374 0.97042 0.0
C789 C 0.99615 0.48057 0.95422 0.0
C790 C 0.02926 0.59794 0.96992 0.0
C791 C 0.02177 0.61554 0.95315 0.0
C792 C 0.00503 0.52727 0.95391 0.0
C793 C 0.00546 0.58776 0.93702 0.0
C794 C 0.00345 0.4609 0.93807 0.0
C795 C 0.97293 0.41343 0.97201 0.0
N796 N 0.99804 0.54493 0.93771 0.0
N797 N 0.98134 0.45637 0.97065 0.0
H798 H 0.4303 0.04497 0.3165 0.0
H799 H 0.60187 0.00206 0.25863 0.0
H800 H 0.40359 0.00562 0.25734 0.0
H801 H 0.56204 0.95124 0.31588 0.0
H802 H 0.54021 0.01914 0.25761 0.0
H803 H 0.49056 0.02648 0.31639 0.0
C804 C 0.43727 0.03256 0.30347 0.0
C805 C 0.41194 0.02659 0.28691 0.0
C806 C 0.54515 0.0042 0.27033 0.0
C807 C 0.48119 0.00639 0.28663 0.0
C808 C 0.58032 0.99476 0.27098 0.0
C809 C 0.5869 0.97527 0.28737 0.0
C810 C 0.5175 0.99527 0.28638 0.0
C811 C 0.55794 0.96612 0.30295 0.0
C812 C 0.47145 0.02192 0.30345 0.0
C813 C 0.42222 0.01032 0.27042 0.0
N814 N 0.52479 0.97668 0.30216 0.0
N815 N 0.45652 0.00118 0.27061 0.0
H816 H 0.4026 0.18585 0.21657 0.0
H817 H 0.26347 0.13035 0.11967 0.0
H818 H 0.25864 0.12834 0.21297 0.0
H819 H 0.40472 0.22993 0.12095 0.0
H820 H 0.26481 0.12193 0.15398 0.0
H821 H 0.40755 0.19864 0.18184 0.0
C822 C 0.3722 0.17659 0.20859 0.0
C823 C 0.33007 0.15553 0.21769 0.0
C824 C 0.29564 0.14563 0.14682 0.0
C825 C 0.33547 0.16906 0.17813 0.0
C826 C 0.29498 0.1503 0.12715 0.0
C827 C 0.33394 0.18134 0.11738 0.0
C828 C 0.33558 0.17195 0.157 0.0
C829 C 0.37388 0.20568 0.12791 0.0
C830 C 0.37505 0.18363 0.18878 0.0
C831 C 0.29179 0.14407 0.2066 0.0
N832 N 0.37367 0.20065 0.14724 0.0
N833 N 0.2954 0.15054 0.18747 0.0
H834 H 0.16703 0.40013 0.45518 0.0
H835 H 0.18794 0.26025 0.54196 0.0
H836 H 0.15125 0.26767 0.4507 0.0
H837 H 0.17915 0.38005 0.55104 0.0
H838 H 0.18547 0.26961 0.50788 0.0
H839 H 0.18304 0.40056 0.48945 0.0
C840 C 0.16796 0.37163 0.4613 0.0
C841 C 0.15774 0.33374 0.45011 0.0
C842 C 0.18402 0.29396 0.51723 0.0
C843 C 0.17547 0.33386 0.48913 0.0
C844 C 0.18527 0.28857 0.53682 0.0
C845 C 0.18305 0.31904 0.54952 0.0
C846 C 0.18042 0.33011 0.51001 0.0
C847 C 0.1805 0.3555 0.5418 0.0
C848 C 0.17663 0.37173 0.48086 0.0
C849 C 0.15877 0.2975 0.45879 0.0
N850 N 0.17899 0.35992 0.52249 0.0
N851 N 0.16723 0.29841 0.47773 0.0
H852 H 0.76977 0.09503 0.78771 0.0
H853 H 0.90025 0.23131 0.88072 0.0
H854 H 0.90675 0.20515 0.78648 0.0
H855 H 0.79567 0.09182 0.88218 0.0
H856 H 0.89155 0.23156 0.8462 0.0
H857 H 0.76837 0.10376 0.82219 0.0
C858 C 0.79935 0.12166 0.79458 0.0
C859 C 0.83868 0.14924 0.78412 0.0
C860 C 0.87014 0.20112 0.85413 0.0
C861 C 0.83694 0.15927 0.8237 0.0
C862 C 0.8748 0.20089 0.87389 0.0
C863 C 0.84888 0.16125 0.88443 0.0
C864 C 0.83888 0.16167 0.8448 0.0
C865 C 0.81655 0.12301 0.87465 0.0
C866 C 0.79849 0.12635 0.81432 0.0
C867 C 0.87586 0.18299 0.79395 0.0
N868 N 0.81259 0.1241 0.85535 0.0
N869 N 0.87415 0.18696 0.81322 0.0
H870 H 0.74796 0.87877 0.12043 0.0
H871 H 0.60343 0.82194 0.2163 0.0
H872 H 0.60473 0.78674 0.12061 0.0
H873 H 0.74797 0.88358 0.21387 0.0
H874 H 0.60054 0.81161 0.18147 0.0
H875 H 0.74574 0.88736 0.15473 0.0
C876 C 0.71585 0.86069 0.12767 0.0
C877 C 0.67653 0.83165 0.11762 0.0
C878 C 0.63275 0.82706 0.18867 0.0
C879 C 0.67383 0.84095 0.15719 0.0
C880 C 0.63442 0.83264 0.20854 0.0
C881 C 0.67605 0.854 0.21802 0.0
C882 C 0.673 0.84326 0.17833 0.0
C883 C 0.71514 0.86744 0.20721 0.0
C884 C 0.71465 0.86538 0.14733 0.0
C885 C 0.63585 0.8095 0.1278 0.0
N886 N 0.71264 0.86219 0.188 0.0
N887 N 0.63556 0.81435 0.14711 0.0
H888 H 0.86508 0.7403 0.54534 0.0
H889 H 0.81241 0.59786 0.44955 0.0
H890 H 0.77023 0.59766 0.54512 0.0
H891 H 0.86815 0.74172 0.45211 0.0
H892 H 0.79891 0.59393 0.4842 0.0
H893 H 0.87238 0.73825 0.51104 0.0
C894 C 0.84586 0.70836 0.53809 0.0
C895 C 0.81656 0.66916 0.54817 0.0
C896 C 0.81361 0.62617 0.47705 0.0
C897 C 0.82471 0.66666 0.50852 0.0
C898 C 0.82103 0.62843 0.45729 0.0
C899 C 0.8419 0.67026 0.44794 0.0
C900 C 0.82753 0.66604 0.4874 0.0
C901 C 0.85257 0.7088 0.4587 0.0
C902 C 0.8499 0.70727 0.51841 0.0
C903 C 0.79314 0.62869 0.53791 0.0
N904 N 0.84572 0.70576 0.4778 0.0
N905 N 0.79759 0.62846 0.51856 0.0
H906 H 0.21342 0.83307 0.88605 0.0
H907 H 0.11509 0.82535 0.78174 0.0
H908 H 0.07777 0.80185 0.87331 0.0
H909 H 0.24917 0.84788 0.79026 0.0
H910 H 0.10017 0.80986 0.81559 0.0
H911 H 0.22748 0.83361 0.85147 0.0
C912 C 0.18668 0.82628 0.87606 0.0
C913 C 0.14466 0.8183 0.88263 0.0
C914 C 0.13278 0.81762 0.81015 0.0
C915 C 0.1602 0.8183 0.84333 0.0
C916 C 0.14117 0.82624 0.79075 0.0
C917 C 0.18337 0.83791 0.78322 0.0
C918 C 0.16712 0.82149 0.82231 0.0
C919 C 0.21604 0.83867 0.79554 0.0
C920 C 0.19465 0.82645 0.85638 0.0
C921 C 0.11106 0.80921 0.86905 0.0
N922 N 0.20748 0.83126 0.8146 0.0
N923 N 0.11964 0.80965 0.85019 0.0
H924 H 0.14877 0.87011 0.99973 0.0
H925 H 0.28247 0.13829 0.99569 0.0
H926 H 0.16187 0.9441 0.94795 0.0
H927 H 0.23709 0.06189 0.04802 0.0
H928 H 0.24704 0.06813 0.97762 0.0
H929 H 0.18958 0.94054 0.01696 0.0
C930 C 0.16034 0.90115 0.99188 0.0
C931 C 0.15155 0.90092 0.97225 0.0
C932 C 0.24499 0.06676 0.99305 0.0
C933 C 0.19875 0.9823 0.99219 0.0
C934 C 0.26537 0.10681 0.00344 0.0
C935 C 0.26274 0.10615 0.02349 0.0
C936 C 0.22211 0.02558 0.00272 0.0
C937 C 0.24003 0.06419 0.03262 0.0
C938 C 0.18365 0.94148 0.00183 0.0
C939 C 0.16775 0.94253 0.96303 0.0
N940 N 0.22062 0.02566 0.02217 0.0
N941 N 0.19057 0.98159 0.97309 0.0
H942 H 0.15699 0.21875 0.38491 0.0
H943 H 0.21488 0.15523 0.28298 0.0
H944 H 0.13712 0.27021 0.33176 0.0
H945 H 0.26962 0.13908 0.33596 0.0
H946 H 0.18049 0.19201 0.30063 0.0
H947 H 0.19293 0.18367 0.3672 0.0
C948 C 0.16023 0.22281 0.36956 0.0
C949 C 0.144 0.24763 0.35987 0.0
C950 C 0.20018 0.18049 0.30834 0.0
C951 C 0.18471 0.20712 0.33948 0.0
C952 C 0.21978 0.15944 0.29828 0.0
C953 C 0.24533 0.14402 0.30794 0.0
C954 C 0.20565 0.18567 0.32824 0.0
C955 C 0.25038 0.15042 0.32782 0.0
C956 C 0.1808 0.2028 0.35945 0.0
C957 C 0.14915 0.25156 0.33991 0.0
N958 N 0.23058 0.1705 0.33729 0.0
N959 N 0.16879 0.23137 0.3304 0.0
H960 H 0.93658 0.17283 0.71677 0.0
H961 H 0.05908 0.23017 0.61523 0.0
H962 H 0.86624 0.14783 0.66305 0.0
H963 H 0.13 0.28488 0.66819 0.0
H964 H 0.98794 0.19808 0.63266 0.0
H965 H 0.00809 0.21246 0.69944 0.0
C966 C 0.93607 0.17589 0.7014 0.0
C967 C 0.89517 0.15675 0.69142 0.0
C968 C 0.01911 0.21741 0.64043 0.0
C969 C 0.97684 0.20166 0.67149 0.0
C970 C 0.05977 0.2358 0.63046 0.0
C971 C 0.10075 0.26023 0.6402 0.0
C972 C 0.01933 0.22304 0.66032 0.0
C973 C 0.09937 0.26625 0.66002 0.0
C974 C 0.97691 0.19851 0.69151 0.0
C975 C 0.89675 0.16179 0.67144 0.0
N976 N 0.05942 0.2475 0.66942 0.0
N977 N 0.93678 0.1834 0.66218 0.0
H978 H 0.71816 0.87047 0.99957 0.0
H979 H 0.86286 0.13786 0.00589 0.0
H980 H 0.78727 0.94153 0.05076 0.0
H981 H 0.82934 0.06612 0.95229 0.0
H982 H 0.82728 0.06643 0.0228 0.0
H983 H 0.7509 0.94184 0.98253 0.0
C984 C 0.7401 0.90103 0.0073 0.0
C985 C 0.74993 0.89977 0.02672 0.0
C986 C 0.82763 0.06628 0.00735 0.0
C987 C 0.78742 0.98193 0.00712 0.0
C988 C 0.84783 0.10713 0.9976 0.0
C989 C 0.84932 0.10824 0.97753 0.0
C990 C 0.80822 0.0259 0.99705 0.0
C991 C 0.82907 0.06704 0.96772 0.0
C992 C 0.75889 0.94181 0.99748 0.0
C993 C 0.77871 0.94071 0.03584 0.0
N994 N 0.80931 0.02754 0.97759 0.0
N995 N 0.7963 0.98009 0.02597 0.0
H996 H 0.78713 0.85155 0.2832 0.0
H997 H 0.84501 0.78348 0.38387 0.0
H998 H 0.72665 0.85891 0.33614 0.0
H999 H 0.86226 0.73157 0.33034 0.0
H1000 H 0.80868 0.81889 0.36664 0.0
H1001 H 0.8222 0.81467 0.30031 0.0
C1002 C 0.78112 0.8454 0.29837 0.0
C1003 C 0.75375 0.85836 0.30819 0.0
C1004 C 0.82035 0.7996 0.35872 0.0
C1005 C 0.79428 0.81672 0.32787 0.0
C1006 C 0.84117 0.77946 0.36853 0.0
C1007 C 0.85668 0.75435 0.35859 0.0
C1008 C 0.81561 0.79525 0.33878 0.0
C1009 C 0.85074 0.7504 0.33867 0.0
C1010 C 0.8011 0.82429 0.30812 0.0
C1011 C 0.74731 0.84948 0.3279 0.0
N1012 N 0.83096 0.77082 0.32943 0.0
N1013 N 0.76761 0.82953 0.33708 0.0
H1014 H 0.13369 0.85243 0.66375 0.0
H1015 H 0.86541 0.70977 0.66879 0.0
H1016 H 0.05894 0.82084 0.71655 0.0
H1017 H 0.93951 0.76519 0.61652 0.0
H1018 H 0.93618 0.74236 0.68626 0.0
H1019 H 0.06318 0.81294 0.64623 0.0
C1020 C 0.10249 0.83702 0.67172 0.0
C1021 C 0.10242 0.84021 0.69173 0.0
C1022 C 0.93697 0.74723 0.67096 0.0
C1023 C 0.02124 0.79473 0.67157 0.0
C1024 C 0.89653 0.7285 0.66091 0.0
C1025 C 0.89632 0.73484 0.64109 0.0
C1026 C 0.97773 0.77237 0.66117 0.0
C1027 C 0.93789 0.75942 0.63177 0.0
C1028 C 0.06218 0.81451 0.66164 0.0
C1029 C 0.06075 0.81936 0.70116 0.0
N1030 N 0.97688 0.77736 0.6419 0.0
N1031 N 0.02185 0.79758 0.69099 0.0
H1032 H 0.01434 0.17293 0.96918 0.0
H1033 H 0.25505 0.31274 0.01695 0.0
H1034 H 0.06118 0.30861 0.98861 0.0
H1035 H 0.16866 0.16967 0.02432 0.0
H1036 H 0.19242 0.3158 0.00106 0.0
H1037 H 0.07984 0.17534 0.98366 0.0
C1038 C 0.03851 0.20338 0.97644 0.0
C1039 C 0.03215 0.24059 0.97778 0.0
C1040 C 0.18751 0.28391 0.00621 0.0
C1041 C 0.10756 0.24354 0.99426 0.0
C1042 C 0.22312 0.28208 0.01511 0.0
C1043 C 0.21685 0.24092 0.02197 0.0
C1044 C 0.14614 0.24413 0.00382 0.0
C1045 C 0.17485 0.20215 0.01937 0.0
C1046 C 0.07583 0.20462 0.98474 0.0
C1047 C 0.06469 0.27908 0.98741 0.0
N1048 N 0.14126 0.20468 0.01041 0.0
N1049 N 0.1013 0.27969 0.99527 0.0
H1050 H 0.75039 0.0135 0.34077 0.0
H1051 H 0.97239 0.25495 0.33403 0.0
H1052 H 0.81845 0.07257 0.28779 0.0
H1053 H 0.94126 0.16775 0.38298 0.0
H1054 H 0.90453 0.19654 0.3183 0.0
H1055 H 0.80923 0.07899 0.35787 0.0
C1056 C 0.77721 0.04047 0.3327 0.0
C1057 C 0.77976 0.03735 0.31282 0.0
C1058 C 0.91247 0.19059 0.33258 0.0
C1059 C 0.84646 0.11218 0.33219 0.0
C1060 C 0.95109 0.22387 0.34159 0.0
C1061 C 0.96275 0.21626 0.35986 0.0
C1062 C 0.88496 0.14975 0.34201 0.0
C1063 C 0.93378 0.1752 0.36891 0.0
C1064 C 0.81079 0.07763 0.34246 0.0
C1065 C 0.81534 0.07327 0.3031 0.0
N1066 N 0.89624 0.14348 0.3599 0.0
N1067 N 0.8473 0.10916 0.31286 0.0
H1068 H 0.83671 0.83016 0.64532 0.0
H1069 H 0.69567 0.94341 0.67771 0.0
H1070 H 0.69218 0.75087 0.64927 0.0
H1071 H 0.8294 0.98574 0.6985 0.0
H1072 H 0.69326 0.87662 0.66351 0.0
H1073 H 0.83449 0.89213 0.66116 0.0
C1074 C 0.80444 0.8258 0.6496 0.0
C1075 C 0.76453 0.78541 0.64603 0.0
C1076 C 0.7229 0.90058 0.67129 0.0
C1077 C 0.76174 0.85652 0.66395 0.0
C1078 C 0.72447 0.93875 0.67925 0.0
C1079 C 0.76286 0.97027 0.68924 0.0
C1080 C 0.76032 0.89461 0.67306 0.0
C1081 C 0.79909 0.96241 0.69095 0.0
C1082 C 0.80323 0.86112 0.65869 0.0
C1083 C 0.72366 0.78146 0.65194 0.0
N1084 N 0.79705 0.92565 0.68281 0.0
N1085 N 0.7232 0.81692 0.66046 0.0
H1086 H 0.81014 0.73988 0.04983 0.0
H1087 H 0.95431 0.80224 0.9572 0.0
H1088 H 0.75765 0.75314 0.99584 0.0
H1089 H 0.96512 0.71572 0.9991 0.0
H1090 H 0.88584 0.79034 0.97252 0.0
H1091 H 0.86997 0.73508 0.03296 0.0
C1092 C 0.81098 0.74139 0.03442 0.0
C1093 C 0.77926 0.7475 0.02421 0.0
C1094 C 0.90288 0.77351 0.97821 0.0
C1095 C 0.84781 0.74266 0.00492 0.0
C1096 C 0.94214 0.78026 0.96949 0.0
C1097 C 0.96539 0.75937 0.97666 0.0
C1098 C 0.88721 0.74678 0.99461 0.0
C1099 C 0.9482 0.73224 0.99299 0.0
C1100 C 0.84494 0.73836 0.02482 0.0
C1101 C 0.78149 0.74855 0.00424 0.0
N1102 N 0.91034 0.72713 0.00158 0.0
N1103 N 0.81579 0.74707 0.99523 0.0
H1104 H 0.06636 0.82289 0.38236 0.0
H1105 H 0.16787 0.93935 0.28492 0.0
H1106 H 0.01843 0.75033 0.32932 0.0
H1107 H 0.25089 0.97455 0.3354 0.0
H1108 H 0.1108 0.8721 0.30101 0.0
H1109 H 0.13245 0.8808 0.36582 0.0
C1110 C 0.0699 0.81879 0.36729 0.0
C1111 C 0.0366 0.78166 0.35722 0.0
C1112 C 0.14179 0.89421 0.30845 0.0
C1113 C 0.11192 0.84848 0.33814 0.0
C1114 C 0.17448 0.93276 0.2993 0.0
C1115 C 0.21448 0.96277 0.30877 0.0
C1116 C 0.14846 0.88606 0.32742 0.0
C1117 C 0.22067 0.95239 0.32752 0.0
C1118 C 0.10778 0.85186 0.35787 0.0
C1119 C 0.0432 0.77833 0.33765 0.0
N1120 N 0.18765 0.9152 0.33635 0.0
N1121 N 0.07977 0.81177 0.32866 0.0
H1122 H 0.30048 0.05224 0.68071 0.0
H1123 H 0.16111 0.16996 0.65257 0.0
H1124 H 0.17098 0.01504 0.70516 0.0
H1125 H 0.30605 0.24478 0.65131 0.0
H1126 H 0.1638 0.10898 0.66918 0.0
H1127 H 0.30336 0.11966 0.66701 0.0
C1128 C 0.27276 0.0582 0.68321 0.0
C1129 C 0.23533 0.02777 0.69402 0.0
C1130 C 0.19509 0.13888 0.66547 0.0
C1131 C 0.2384 0.10425 0.67839 0.0
C1132 C 0.19357 0.17363 0.65599 0.0
C1133 C 0.23344 0.21237 0.65068 0.0
C1134 C 0.23679 0.14234 0.66934 0.0
C1135 C 0.27463 0.21549 0.65538 0.0
C1136 C 0.2746 0.09674 0.67551 0.0
C1137 C 0.2005 0.03735 0.69692 0.0
N1138 N 0.27531 0.18051 0.66426 0.0
N1139 N 0.20274 0.07443 0.68902 0.0
loop_
_geom_bond_atom_site_label_1
_geom_bond_atom_site_label_2
_geom_bond_distance
_geom_bond_site_symmetry_2
_ccdc_geom_bond_type
Co0 O2 2.143 . S
Co0 O8 2.074 . S
Co0 O11 2.093 . S
Co0 O24 2.097 . S
Co0 N41 2.151 . S
Co0 N49 2.214 1_554 S
Co1 O2 2.160 . S
Co1 O7 2.058 . S
Co1 O17 2.057 . S
Co1 O32 2.037 . S
Co1 N36 2.145 . S
Co1 N57 2.257 . S
O2 Co0 2.143 . S
O2 Co1 2.160 . S
C3 O4 1.278 . S
C3 O11 1.224 . S
O4 C3 1.278 . S
C5 O6 1.245 . S
C5 O17 1.232 . S
O6 C5 1.245 . S
O7 Co1 2.058 . S
O7 C33 1.269 . S
O8 Co0 2.074 . S
O8 C33 1.257 . S
H9 C34 0.930 . S
H10 C40 0.930 . S
O11 Co0 2.093 . S
O11 C3 1.224 . S
H12 C44 0.929 . S
H13 C46 0.930 . S
H14 C47 0.930 . S
H15 C45 0.929 . S
H16 C48 0.928 . S
O17 Co1 2.057 . S
O17 C5 1.232 . S
H18 C37 0.929 . S
H19 C38 0.929 . S
H20 C50 0.931 . S
H21 C42 0.929 . S
H22 C51 0.930 . S
H23 C43 0.931 . S
O24 Co0 2.097 . S
O24 C52 1.214 . S
H25 C53 0.929 . S
H26 C54 0.929 . S
H27 C55 0.930 . S
H28 C56 0.929 . S
H29 C58 0.930 . S
H30 C35 0.930 . S
H31 C39 0.930 . S
O32 Co1 2.037 . S
O32 C52 1.234 . S
C33 O7 1.269 . S
C33 O8 1.257 . S
C34 H9 0.930 . S
C34 C37 1.388 . S
C34 C39 1.418 . S
C35 H30 0.930 . S
C35 C38 1.404 . S
C35 C39 1.353 . S
N36 Co1 2.145 . S
N36 C37 1.397 . S
N36 C38 1.334 . S
C37 H18 0.929 . S
C37 C34 1.388 . S
C37 N36 1.397 . S
C38 H19 0.929 . S
C38 C35 1.404 . S
C38 N36 1.334 . S
C39 H31 0.930 . S
C39 C34 1.418 . S
C39 C35 1.353 . S
C40 H10 0.930 . S
C40 N41 1.330 . S
C40 C42 1.446 . S
N41 Co0 2.151 . S
N41 C40 1.330 . S
N41 C45 1.418 . S
C42 H21 0.929 . S
C42 C40 1.446 . S
C42 C43 1.332 . S
C43 H23 0.931 . S
C43 C42 1.332 . S
C43 C44 1.267 . S
C44 H12 0.929 . S
C44 C43 1.267 . S
C44 C45 1.251 . S
C45 H15 0.929 . S
C45 N41 1.418 . S
C45 C44 1.251 . S
C46 H13 0.930 . S
C46 C48 1.406 . S
C46 C51 1.261 . S
C47 H14 0.930 . S
C47 N49 1.325 . S
C47 C50 1.357 . S
C48 H16 0.928 . S
C48 C46 1.406 . S
C48 N49 1.261 . S
N49 Co0 2.214 1_556 S
N49 C47 1.325 . S
N49 C48 1.261 . S
C50 H20 0.931 . S
C50 C47 1.357 . S
C50 C51 1.312 . S
C51 H22 0.930 . S
C51 C46 1.261 . S
C51 C50 1.312 . S
C52 O24 1.214 . S
C52 O32 1.234 . S
C53 H25 0.929 . S
C53 C56 1.391 . S
C53 C58 1.391 . S
C54 H26 0.929 . S
C54 C55 1.390 . S
C54 N57 1.391 . S
C55 H27 0.930 . S
C55 C54 1.390 . S
C55 C56 1.392 . S
C56 H28 0.929 . S
C56 C53 1.391 . S
C56 C55 1.392 . S
N57 Co1 2.257 . S
N57 C54 1.391 . S
N57 C58 1.388 . S
C58 H29 0.930 . S
C58 C53 1.391 . S
C58 N57 1.388 . S
Co59 O61 2.143 . S
Co59 O67 2.074 . S
Co59 O70 2.093 . S
Co59 O83 2.097 . S
Co59 N100 2.151 . S
Co59 N108 2.214 . S
Co60 O61 2.160 . S
Co60 O66 2.058 . S
Co60 O76 2.057 . S
Co60 O91 2.037 . S
Co60 N95 2.145 . S
Co60 N116 2.257 . S
O61 Co59 2.143 . S
O61 Co60 2.160 . S
C62 O63 1.278 . S
C62 O70 1.224 . S
O63 C62 1.278 . S
C64 O65 1.245 . S
C64 O76 1.232 . S
O65 C64 1.245 . S
O66 Co60 2.058 . S
O66 C92 1.269 . S
O67 Co59 2.074 . S
O67 C92 1.257 . S
H68 C93 0.930 . S
H69 C99 0.930 . S
O70 Co59 2.093 . S
O70 C62 1.224 . S
H71 C103 0.929 . S
H72 C105 0.930 . S
H73 C106 0.930 . S
H74 C104 0.929 . S
H75 C107 0.928 . S
O76 Co60 2.057 . S
O76 C64 1.232 . S
H77 C96 0.929 . S
H78 C97 0.929 . S
H79 C109 0.931 . S
H80 C101 0.929 . S
H81 C110 0.930 . S
H82 C102 0.931 . S
O83 Co59 2.097 . S
O83 C111 1.214 . S
H84 C112 0.929 . S
H85 C113 0.929 . S
H86 C114 0.930 . S
H87 C115 0.929 . S
H88 C117 0.930 . S
H89 C94 0.930 . S
H90 C98 0.930 . S
O91 Co60 2.037 . S
O91 C111 1.234 . S
C92 O66 1.269 . S
C92 O67 1.257 . S
C93 H68 0.930 . S
C93 C96 1.388 . S
C93 C98 1.418 . S
C94 H89 0.930 . S
C94 C97 1.404 . S
C94 C98 1.353 . S
N95 Co60 2.145 . S
N95 C96 1.397 . S
N95 C97 1.334 . S
C96 H77 0.929 . S
C96 C93 1.388 . S
C96 N95 1.397 . S
C97 H78 0.929 . S
C97 C94 1.404 . S
C97 N95 1.334 . S
C98 H90 0.930 . S
C98 C93 1.418 . S
C98 C94 1.353 . S
C99 H69 0.930 . S
C99 N100 1.330 . S
C99 C101 1.446 . S
N100 Co59 2.151 . S
N100 C99 1.330 . S
N100 C104 1.418 . S
C101 H80 0.929 . S
C101 C99 1.446 . S
C101 C102 1.332 . S
C102 H82 0.931 . S
C102 C101 1.332 . S
C102 C103 1.267 . S
C103 H71 0.929 . S
C103 C102 1.267 . S
C103 C104 1.251 . S
C104 H74 0.929 . S
C104 N100 1.418 . S
C104 C103 1.251 . S
C105 H72 0.930 . S
C105 C107 1.406 . S
C105 C110 1.261 . S
C106 H73 0.930 . S
C106 N108 1.325 . S
C106 C109 1.357 . S
C107 H75 0.928 . S
C107 C105 1.406 . S
C107 N108 1.261 . S
N108 Co59 2.214 . S
N108 C106 1.325 . S
N108 C107 1.261 . S
C109 H79 0.931 . S
C109 C106 1.357 . S
C109 C110 1.312 . S
C110 H81 0.930 . S
C110 C105 1.261 . S
C110 C109 1.312 . S
C111 O83 1.214 . S
C111 O91 1.234 . S
C112 H84 0.929 . S
C112 C115 1.391 . S
C112 C117 1.391 1_655 S
C113 H85 0.929 . S
C113 C114 1.390 . S
C113 N116 1.391 1_655 S
C114 H86 0.930 . S
C114 C113 1.390 . S
C114 C115 1.392 . S
C115 H87 0.929 . S
C115 C112 1.391 . S
C115 C114 1.392 . S
N116 Co60 2.257 . S
N116 C113 1.391 1_455 S
N116 C117 1.388 . S
C117 H88 0.930 . S
C117 C112 1.391 1_455 S
C117 N116 1.388 . S
Co118 O120 2.143 . S
Co118 O126 2.074 . S
Co118 O129 2.093 . S
Co118 O142 2.097 . S
Co118 N159 2.151 . S
Co118 N167 2.214 . S
Co119 O120 2.160 . S
Co119 O125 2.058 . S
Co119 O135 2.057 . S
Co119 O150 2.037 . S
Co119 N154 2.145 . S
Co119 N175 2.257 . S
O120 Co118 2.143 . S
O120 Co119 2.160 . S
C121 O122 1.278 . S
C121 O129 1.224 . S
O122 C121 1.278 . S
C123 O124 1.245 . S
C123 O135 1.232 . S
O124 C123 1.245 . S
O125 Co119 2.058 . S
O125 C151 1.269 . S
O126 Co118 2.074 . S
O126 C151 1.257 . S
H127 C152 0.930 . S
H128 C158 0.930 . S
O129 Co118 2.093 . S
O129 C121 1.224 . S
H130 C162 0.929 . S
H131 C164 0.930 . S
H132 C165 0.930 . S
H133 C163 0.929 . S
H134 C166 0.928 . S
O135 Co119 2.057 . S
O135 C123 1.232 . S
H136 C155 0.929 . S
H137 C156 0.929 . S
H138 C168 0.931 . S
H139 C160 0.929 . S
H140 C169 0.930 . S
H141 C161 0.931 . S
O142 Co118 2.097 . S
O142 C170 1.214 . S
H143 C171 0.929 . S
H144 C172 0.929 . S
H145 C173 0.930 . S
H146 C174 0.929 . S
H147 C176 0.930 . S
H148 C153 0.930 . S
H149 C157 0.930 . S
O150 Co119 2.037 . S
O150 C170 1.234 . S
C151 O125 1.269 . S
C151 O126 1.257 . S
C152 H127 0.930 . S
C152 C155 1.388 . S
C152 C157 1.418 . S
C153 H148 0.930 . S
C153 C156 1.404 . S
C153 C157 1.353 . S
N154 Co119 2.145 . S
N154 C155 1.397 . S
N154 C156 1.334 . S
C155 H136 0.929 . S
C155 C152 1.388 . S
C155 N154 1.397 . S
C156 H137 0.929 . S
C156 C153 1.404 . S
C156 N154 1.334 . S
C157 H149 0.930 . S
C157 C152 1.418 . S
C157 C153 1.353 . S
C158 H128 0.930 . S
C158 N159 1.330 . S
C158 C160 1.446 . S
N159 Co118 2.151 . S
N159 C158 1.330 . S
N159 C163 1.418 . S
C160 H139 0.929 . S
C160 C158 1.446 . S
C160 C161 1.332 . S
C161 H141 0.931 . S
C161 C160 1.332 . S
C161 C162 1.267 . S
C162 H130 0.929 . S
C162 C161 1.267 . S
C162 C163 1.251 . S
C163 H133 0.929 . S
C163 N159 1.418 . S
C163 C162 1.251 . S
C164 H131 0.930 . S
C164 C166 1.406 . S
C164 C169 1.261 . S
C165 H132 0.930 . S
C165 N167 1.325 . S
C165 C168 1.357 . S
C166 H134 0.928 . S
C166 C164 1.406 . S
C166 N167 1.261 . S
N167 Co118 2.214 . S
N167 C165 1.325 . S
N167 C166 1.261 . S
C168 H138 0.931 . S
C168 C165 1.357 . S
C168 C169 1.312 . S
C169 H140 0.930 . S
C169 C164 1.261 . S
C169 C168 1.312 . S
C170 O142 1.214 . S
C170 O150 1.234 . S
C171 H143 0.929 . S
C171 C174 1.391 . S
C171 C176 1.391 1_565 S
C172 H144 0.929 . S
C172 C173 1.390 . S
C172 N175 1.391 1_565 S
C173 H145 0.930 . S
C173 C172 1.390 . S
C173 C174 1.392 . S
C174 H146 0.929 . S
C174 C171 1.391 . S
C174 C173 1.392 . S
N175 Co119 2.257 . S
N175 C172 1.391 1_545 S
N175 C176 1.388 . S
C176 H147 0.930 . S
C176 C171 1.391 1_545 S
C176 N175 1.388 . S
Co177 O179 2.143 . S
Co177 O185 2.074 . S
Co177 O188 2.093 . S
Co177 O201 2.097 . S
Co177 N218 2.151 . S
Co177 N226 2.214 1_554 S
Co178 O179 2.160 . S
Co178 O184 2.058 . S
Co178 O194 2.057 . S
Co178 O209 2.037 . S
Co178 N213 2.145 . S
Co178 N234 2.257 . S
O179 Co177 2.143 . S
O179 Co178 2.160 . S
C180 O181 1.278 . S
C180 O188 1.224 . S
O181 C180 1.278 . S
C182 O183 1.245 . S
C182 O194 1.232 . S
O183 C182 1.245 . S
O184 Co178 2.058 . S
O184 C210 1.269 . S
O185 Co177 2.074 . S
O185 C210 1.257 . S
H186 C211 0.930 . S
H187 C217 0.930 . S
O188 Co177 2.093 . S
O188 C180 1.224 . S
H189 C221 0.929 . S
H190 C223 0.930 . S
H191 C224 0.930 . S
H192 C222 0.929 . S
H193 C225 0.928 . S
O194 Co178 2.057 . S
O194 C182 1.232 . S
H195 C214 0.929 . S
H196 C215 0.929 . S
H197 C227 0.931 . S
H198 C219 0.929 . S
H199 C228 0.930 . S
H200 C220 0.931 . S
O201 Co177 2.097 . S
O201 C229 1.214 . S
H202 C230 0.929 . S
H203 C231 0.929 . S
H204 C232 0.930 . S
H205 C233 0.929 . S
H206 C235 0.930 . S
H207 C212 0.930 . S
H208 C216 0.930 . S
O209 Co178 2.037 . S
O209 C229 1.234 . S
C210 O184 1.269 . S
C210 O185 1.257 . S
C211 H186 0.930 . S
C211 C214 1.388 . S
C211 C216 1.418 . S
C212 H207 0.930 . S
C212 C215 1.404 . S
C212 C216 1.353 . S
N213 Co178 2.145 . S
N213 C214 1.397 . S
N213 C215 1.334 . S
C214 H195 0.929 . S
C214 C211 1.388 . S
C214 N213 1.397 . S
C215 H196 0.929 . S
C215 C212 1.404 . S
C215 N213 1.334 . S
C216 H208 0.930 . S
C216 C211 1.418 . S
C216 C212 1.353 . S
C217 H187 0.930 . S
C217 N218 1.330 . S
C217 C219 1.446 . S
N218 Co177 2.151 . S
N218 C217 1.330 . S
N218 C222 1.418 . S
C219 H198 0.929 . S
C219 C217 1.446 . S
C219 C220 1.332 . S
C220 H200 0.931 . S
C220 C219 1.332 . S
C220 C221 1.267 . S
C221 H189 0.929 . S
C221 C220 1.267 . S
C221 C222 1.251 . S
C222 H192 0.929 . S
C222 N218 1.418 . S
C222 C221 1.251 . S
C223 H190 0.930 . S
C223 C225 1.406 . S
C223 C228 1.261 . S
C224 H191 0.930 . S
C224 N226 1.325 . S
C224 C227 1.357 . S
C225 H193 0.928 . S
C225 C223 1.406 . S
C225 N226 1.261 . S
N226 Co177 2.214 1_556 S
N226 C224 1.325 . S
N226 C225 1.261 . S
C227 H197 0.931 . S
C227 C224 1.357 . S
C227 C228 1.312 . S
C228 H199 0.930 . S
C228 C223 1.261 . S
C228 C227 1.312 . S
C229 O201 1.214 . S
C229 O209 1.234 . S
C230 H202 0.929 . S
C230 C233 1.391 . S
C230 C235 1.391 . S
C231 H203 0.929 . S
C231 C232 1.390 . S
C231 N234 1.391 . S
C232 H204 0.930 . S
C232 C231 1.390 . S
C232 C233 1.392 . S
C233 H205 0.929 . S
C233 C230 1.391 . S
C233 C232 1.392 . S
N234 Co178 2.257 . S
N234 C231 1.391 . S
N234 C235 1.388 . S
C235 H206 0.930 . S
C235 C230 1.391 . S
C235 N234 1.388 . S
Co236 O238 2.143 . S
Co236 O244 2.074 . S
Co236 O247 2.093 . S
Co236 O260 2.097 . S
Co236 N277 2.151 . S
Co236 N285 2.214 . S
Co237 O238 2.160 . S
Co237 O243 2.058 . S
Co237 O253 2.057 . S
Co237 O268 2.037 . S
Co237 N272 2.145 . S
Co237 N293 2.257 . S
O238 Co236 2.143 . S
O238 Co237 2.160 . S
C239 O240 1.278 . S
C239 O247 1.224 . S
O240 C239 1.278 . S
C241 O242 1.245 . S
C241 O253 1.232 . S
O242 C241 1.245 . S
O243 Co237 2.058 . S
O243 C269 1.269 . S
O244 Co236 2.074 . S
O244 C269 1.257 . S
H245 C270 0.930 . S
H246 C276 0.930 . S
O247 Co236 2.093 . S
O247 C239 1.224 . S
H248 C280 0.929 . S
H249 C282 0.930 . S
H250 C283 0.930 . S
H251 C281 0.929 . S
H252 C284 0.928 . S
O253 Co237 2.057 . S
O253 C241 1.232 . S
H254 C273 0.929 . S
H255 C274 0.929 . S
H256 C286 0.931 . S
H257 C278 0.929 . S
H258 C287 0.930 . S
H259 C279 0.931 . S
O260 Co236 2.097 . S
O260 C288 1.214 . S
H261 C289 0.929 . S
H262 C290 0.929 . S
H263 C291 0.930 . S
H264 C292 0.929 . S
H265 C294 0.930 . S
H266 C271 0.930 . S
H267 C275 0.930 . S
O268 Co237 2.037 . S
O268 C288 1.234 . S
C269 O243 1.269 . S
C269 O244 1.257 . S
C270 H245 0.930 . S
C270 C273 1.388 . S
C270 C275 1.418 . S
C271 H266 0.930 . S
C271 C274 1.404 . S
C271 C275 1.353 . S
N272 Co237 2.145 . S
N272 C273 1.397 . S
N272 C274 1.334 . S
C273 H254 0.929 . S
C273 C270 1.388 . S
C273 N272 1.397 . S
C274 H255 0.929 . S
C274 C271 1.404 . S
C274 N272 1.334 . S
C275 H267 0.930 . S
C275 C270 1.418 . S
C275 C271 1.353 . S
C276 H246 0.930 . S
C276 N277 1.330 . S
C276 C278 1.446 . S
N277 Co236 2.151 . S
N277 C276 1.330 . S
N277 C281 1.418 . S
C278 H257 0.929 . S
C278 C276 1.446 . S
C278 C279 1.332 . S
C279 H259 0.931 . S
C279 C278 1.332 . S
C279 C280 1.267 . S
C280 H248 0.929 . S
C280 C279 1.267 . S
C280 C281 1.251 . S
C281 H251 0.929 . S
C281 N277 1.418 . S
C281 C280 1.251 . S
C282 H249 0.930 . S
C282 C284 1.406 . S
C282 C287 1.261 . S
C283 H250 0.930 . S
C283 N285 1.325 . S
C283 C286 1.357 . S
C284 H252 0.928 . S
C284 C282 1.406 . S
C284 N285 1.261 . S
N285 Co236 2.214 . S
N285 C283 1.325 . S
N285 C284 1.261 . S
C286 H256 0.931 . S
C286 C283 1.357 . S
C286 C287 1.312 . S
C287 H258 0.930 . S
C287 C282 1.261 . S
C287 C286 1.312 . S
C288 O260 1.214 . S
C288 O268 1.234 . S
C289 H261 0.929 . S
C289 C292 1.391 . S
C289 C294 1.391 1_455 S
C290 H262 0.929 . S
C290 C291 1.390 . S
C290 N293 1.391 1_455 S
C291 H263 0.930 . S
C291 C290 1.390 . S
C291 C292 1.392 . S
C292 H264 0.929 . S
C292 C289 1.391 . S
C292 C291 1.392 . S
N293 Co237 2.257 . S
N293 C290 1.391 1_655 S
N293 C294 1.388 . S
C294 H265 0.930 . S
C294 C289 1.391 1_655 S
C294 N293 1.388 . S
Co295 O297 2.143 . S
Co295 O303 2.074 . S
Co295 O306 2.093 . S
Co295 O319 2.097 . S
Co295 N336 2.151 . S
Co295 N344 2.214 . S
Co296 O297 2.160 . S
Co296 O302 2.058 . S
Co296 O312 2.057 . S
Co296 O327 2.037 . S
Co296 N331 2.145 . S
Co296 N352 2.257 . S
O297 Co295 2.143 . S
O297 Co296 2.160 . S
C298 O299 1.278 . S
C298 O306 1.224 . S
O299 C298 1.278 . S
C300 O301 1.245 . S
C300 O312 1.232 . S
O301 C300 1.245 . S
O302 Co296 2.058 . S
O302 C328 1.269 . S
O303 Co295 2.074 . S
O303 C328 1.257 . S
H304 C329 0.930 . S
H305 C335 0.930 . S
O306 Co295 2.093 . S
O306 C298 1.224 . S
H307 C339 0.929 . S
H308 C341 0.930 . S
H309 C342 0.930 . S
H310 C340 0.929 . S
H311 C343 0.928 . S
O312 Co296 2.057 . S
O312 C300 1.232 . S
H313 C332 0.929 . S
H314 C333 0.929 . S
H315 C345 0.931 . S
H316 C337 0.929 . S
H317 C346 0.930 . S
H318 C338 0.931 . S
O319 Co295 2.097 . S
O319 C347 1.214 . S
H320 C348 0.929 . S
H321 C349 0.929 . S
H322 C350 0.930 . S
H323 C351 0.929 . S
H324 C353 0.930 . S
H325 C330 0.930 . S
H326 C334 0.930 . S
O327 Co296 2.037 . S
O327 C347 1.234 . S
C328 O302 1.269 . S
C328 O303 1.257 . S
C329 H304 0.930 . S
C329 C332 1.388 . S
C329 C334 1.418 . S
C330 H325 0.930 . S
C330 C333 1.404 . S
C330 C334 1.353 . S
N331 Co296 2.145 . S
N331 C332 1.397 . S
N331 C333 1.334 . S
C332 H313 0.929 . S
C332 C329 1.388 . S
C332 N331 1.397 . S
C333 H314 0.929 . S
C333 C330 1.404 . S
C333 N331 1.334 . S
C334 H326 0.930 . S
C334 C329 1.418 . S
C334 C330 1.353 . S
C335 H305 0.930 . S
C335 N336 1.330 . S
C335 C337 1.446 . S
N336 Co295 2.151 . S
N336 C335 1.330 . S
N336 C340 1.418 . S
C337 H316 0.929 . S
C337 C335 1.446 . S
C337 C338 1.332 . S
C338 H318 0.931 . S
C338 C337 1.332 . S
C338 C339 1.267 . S
C339 H307 0.929 . S
C339 C338 1.267 . S
C339 C340 1.251 . S
C340 H310 0.929 . S
C340 N336 1.418 . S
C340 C339 1.251 . S
C341 H308 0.930 . S
C341 C343 1.406 . S
C341 C346 1.261 . S
C342 H309 0.930 . S
C342 N344 1.325 . S
C342 C345 1.357 . S
C343 H311 0.928 . S
C343 C341 1.406 . S
C343 N344 1.261 . S
N344 Co295 2.214 . S
N344 C342 1.325 . S
N344 C343 1.261 . S
C345 H315 0.931 . S
C345 C342 1.357 . S
C345 C346 1.312 . S
C346 H317 0.930 . S
C346 C341 1.261 . S
C346 C345 1.312 . S
C347 O319 1.214 . S
C347 O327 1.234 . S
C348 H320 0.929 . S
C348 C351 1.391 . S
C348 C353 1.391 1_545 S
C349 H321 0.929 . S
C349 C350 1.390 . S
C349 N352 1.391 1_545 S
C350 H322 0.930 . S
C350 C349 1.390 . S
C350 C351 1.392 . S
C351 H323 0.929 . S
C351 C348 1.391 . S
C351 C350 1.392 . S
N352 Co296 2.257 . S
N352 C349 1.391 1_565 S
N352 C353 1.388 . S
C353 H324 0.930 . S
C353 C348 1.391 1_565 S
C353 N352 1.388 . S
Co354 O356 2.143 . S
Co354 O362 2.074 . S
Co354 O365 2.093 . S
Co354 O378 2.097 . S
Co354 N395 2.151 . S
Co354 N403 2.214 . S
Co355 O356 2.160 . S
Co355 O361 2.058 . S
Co355 O371 2.057 . S
Co355 O386 2.037 . S
Co355 N390 2.145 . S
Co355 N411 2.257 . S
O356 Co354 2.143 . S
O356 Co355 2.160 . S
C357 O358 1.278 . S
C357 O365 1.224 . S
O358 C357 1.278 . S
C359 O360 1.245 . S
C359 O371 1.232 . S
O360 C359 1.245 . S
O361 Co355 2.058 . S
O361 C387 1.269 . S
O362 Co354 2.074 . S
O362 C387 1.257 . S
H363 C388 0.930 . S
H364 C394 0.930 . S
O365 Co354 2.093 . S
O365 C357 1.224 . S
H366 C398 0.929 . S
H367 C400 0.930 . S
H368 C401 0.930 . S
H369 C399 0.929 . S
H370 C402 0.928 . S
O371 Co355 2.057 . S
O371 C359 1.232 . S
H372 C391 0.929 . S
H373 C392 0.929 . S
H374 C404 0.931 . S
H375 C396 0.929 . S
H376 C405 0.930 . S
H377 C397 0.931 . S
O378 Co354 2.097 . S
O378 C406 1.214 . S
H379 C407 0.929 . S
H380 C408 0.929 . S
H381 C409 0.930 . S
H382 C410 0.929 . S
H383 C412 0.930 . S
H384 C389 0.930 . S
H385 C393 0.930 . S
O386 Co355 2.037 . S
O386 C406 1.234 . S
C387 O361 1.269 . S
C387 O362 1.257 . S
C388 H363 0.930 . S
C388 C391 1.388 . S
C388 C393 1.418 . S
C389 H384 0.930 . S
C389 C392 1.404 . S
C389 C393 1.353 . S
N390 Co355 2.145 . S
N390 C391 1.397 . S
N390 C392 1.334 . S
C391 H372 0.929 . S
C391 C388 1.388 . S
C391 N390 1.397 . S
C392 H373 0.929 . S
C392 C389 1.404 . S
C392 N390 1.334 . S
C393 H385 0.930 . S
C393 C388 1.418 . S
C393 C389 1.353 . S
C394 H364 0.930 . S
C394 N395 1.330 . S
C394 C396 1.446 . S
N395 Co354 2.151 . S
N395 C394 1.330 . S
N395 C399 1.418 . S
C396 H375 0.929 . S
C396 C394 1.446 . S
C396 C397 1.332 . S
C397 H377 0.931 . S
C397 C396 1.332 . S
C397 C398 1.267 . S
C398 H366 0.929 . S
C398 C397 1.267 . S
C398 C399 1.251 . S
C399 H369 0.929 . S
C399 N395 1.418 . S
C399 C398 1.251 . S
C400 H367 0.930 . S
C400 C402 1.406 . S
C400 C405 1.261 . S
C401 H368 0.930 . S
C401 N403 1.325 . S
C401 C404 1.357 . S
C402 H370 0.928 . S
C402 C400 1.406 . S
C402 N403 1.261 . S
N403 Co354 2.214 . S
N403 C401 1.325 . S
N403 C402 1.261 . S
C404 H374 0.931 . S
C404 C401 1.357 . S
C404 C405 1.312 . S
C405 H376 0.930 . S
C405 C400 1.261 . S
C405 C404 1.312 . S
C406 O378 1.214 . S
C406 O386 1.234 . S
C407 H379 0.929 . S
C407 C410 1.391 . S
C407 C412 1.391 . S
C408 H380 0.929 . S
C408 C409 1.390 . S
C408 N411 1.391 . S
C409 H381 0.930 . S
C409 C408 1.390 . S
C409 C410 1.392 . S
C410 H382 0.929 . S
C410 C407 1.391 . S
C410 C409 1.392 . S
N411 Co355 2.257 . S
N411 C408 1.391 . S
N411 C412 1.388 . S
C412 H383 0.930 . S
C412 C407 1.391 . S
C412 N411 1.388 . S
Co413 O415 2.143 . S
Co413 O421 2.074 . S
Co413 O424 2.093 . S
Co413 O437 2.097 . S
Co413 N454 2.151 . S
Co413 N462 2.214 1_556 S
Co414 O415 2.160 . S
Co414 O420 2.058 . S
Co414 O430 2.057 . S
Co414 O445 2.037 . S
Co414 N449 2.145 . S
Co414 N470 2.257 . S
O415 Co413 2.143 . S
O415 Co414 2.160 . S
C416 O417 1.278 . S
C416 O424 1.224 . S
O417 C416 1.278 . S
C418 O419 1.245 . S
C418 O430 1.232 . S
O419 C418 1.245 . S
O420 Co414 2.058 . S
O420 C446 1.269 . S
O421 Co413 2.074 . S
O421 C446 1.257 . S
H422 C447 0.930 . S
H423 C453 0.930 . S
O424 Co413 2.093 . S
O424 C416 1.224 . S
H425 C457 0.929 . S
H426 C459 0.930 . S
H427 C460 0.930 . S
H428 C458 0.929 . S
H429 C461 0.928 . S
O430 Co414 2.057 . S
O430 C418 1.232 . S
H431 C450 0.929 . S
H432 C451 0.929 . S
H433 C463 0.931 . S
H434 C455 0.929 . S
H435 C464 0.930 . S
H436 C456 0.931 . S
O437 Co413 2.097 . S
O437 C465 1.214 . S
H438 C466 0.929 . S
H439 C467 0.929 . S
H440 C468 0.930 . S
H441 C469 0.929 . S
H442 C471 0.930 . S
H443 C448 0.930 . S
H444 C452 0.930 . S
O445 Co414 2.037 . S
O445 C465 1.234 . S
C446 O420 1.269 . S
C446 O421 1.257 . S
C447 H422 0.930 . S
C447 C450 1.388 . S
C447 C452 1.418 . S
C448 H443 0.930 . S
C448 C451 1.404 . S
C448 C452 1.353 . S
N449 Co414 2.145 . S
N449 C450 1.397 . S
N449 C451 1.334 . S
C450 H431 0.929 . S
C450 C447 1.388 . S
C450 N449 1.397 . S
C451 H432 0.929 . S
C451 C448 1.404 . S
C451 N449 1.334 . S
C452 H444 0.930 . S
C452 C447 1.418 . S
C452 C448 1.353 . S
C453 H423 0.930 . S
C453 N454 1.330 . S
C453 C455 1.446 . S
N454 Co413 2.151 . S
N454 C453 1.330 . S
N454 C458 1.418 . S
C455 H434 0.929 . S
C455 C453 1.446 . S
C455 C456 1.332 . S
C456 H436 0.931 . S
C456 C455 1.332 . S
C456 C457 1.267 . S
C457 H425 0.929 . S
C457 C456 1.267 . S
C457 C458 1.251 . S
C458 H428 0.929 . S
C458 N454 1.418 . S
C458 C457 1.251 . S
C459 H426 0.930 . S
C459 C461 1.406 . S
C459 C464 1.261 . S
C460 H427 0.930 . S
C460 N462 1.325 . S
C460 C463 1.357 . S
C461 H429 0.928 . S
C461 C459 1.406 . S
C461 N462 1.261 . S
N462 Co413 2.214 1_554 S
N462 C460 1.325 . S
N462 C461 1.261 . S
C463 H433 0.931 . S
C463 C460 1.357 . S
C463 C464 1.312 . S
C464 H435 0.930 . S
C464 C459 1.261 . S
C464 C463 1.312 . S
C465 O437 1.214 . S
C465 O445 1.234 . S
C466 H438 0.929 . S
C466 C469 1.391 . S
C466 C471 1.391 1_655 S
C467 H439 0.929 . S
C467 C468 1.390 . S
C467 N470 1.391 1_655 S
C468 H440 0.930 . S
C468 C467 1.390 . S
C468 C469 1.392 . S
C469 H441 0.929 . S
C469 C466 1.391 . S
C469 C468 1.392 . S
N470 Co414 2.257 . S
N470 C467 1.391 1_455 S
N470 C471 1.388 . S
C471 H442 0.930 . S
C471 C466 1.391 1_455 S
C471 N470 1.388 . S
Co472 O474 2.143 . S
Co472 O480 2.074 . S
Co472 O483 2.093 . S
Co472 O496 2.097 . S
Co472 N513 2.151 . S
Co472 N521 2.214 . S
Co473 O474 2.160 . S
Co473 O479 2.058 . S
Co473 O489 2.057 . S
Co473 O504 2.037 . S
Co473 N508 2.145 . S
Co473 N529 2.257 . S
O474 Co472 2.143 . S
O474 Co473 2.160 . S
C475 O476 1.278 . S
C475 O483 1.224 . S
O476 C475 1.278 . S
C477 O478 1.245 . S
C477 O489 1.232 . S
O478 C477 1.245 . S
O479 Co473 2.058 . S
O479 C505 1.269 . S
O480 Co472 2.074 . S
O480 C505 1.257 . S
H481 C506 0.930 . S
H482 C512 0.930 . S
O483 Co472 2.093 . S
O483 C475 1.224 . S
H484 C516 0.929 . S
H485 C518 0.930 . S
H486 C519 0.930 . S
H487 C517 0.929 . S
H488 C520 0.928 . S
O489 Co473 2.057 . S
O489 C477 1.232 . S
H490 C509 0.929 . S
H491 C510 0.929 . S
H492 C522 0.931 . S
H493 C514 0.929 . S
H494 C523 0.930 . S
H495 C515 0.931 . S
O496 Co472 2.097 . S
O496 C524 1.214 . S
H497 C525 0.929 . S
H498 C526 0.929 . S
H499 C527 0.930 . S
H500 C528 0.929 . S
H501 C530 0.930 . S
H502 C507 0.930 . S
H503 C511 0.930 . S
O504 Co473 2.037 . S
O504 C524 1.234 . S
C505 O479 1.269 . S
C505 O480 1.257 . S
C506 H481 0.930 . S
C506 C509 1.388 . S
C506 C511 1.418 . S
C507 H502 0.930 . S
C507 C510 1.404 . S
C507 C511 1.353 . S
N508 Co473 2.145 . S
N508 C509 1.397 . S
N508 C510 1.334 . S
C509 H490 0.929 . S
C509 C506 1.388 . S
C509 N508 1.397 . S
C510 H491 0.929 . S
C510 C507 1.404 . S
C510 N508 1.334 . S
C511 H503 0.930 . S
C511 C506 1.418 . S
C511 C507 1.353 . S
C512 H482 0.930 . S
C512 N513 1.330 . S
C512 C514 1.446 . S
N513 Co472 2.151 . S
N513 C512 1.330 . S
N513 C517 1.418 . S
C514 H493 0.929 . S
C514 C512 1.446 . S
C514 C515 1.332 . S
C515 H495 0.931 . S
C515 C514 1.332 . S
C515 C516 1.267 . S
C516 H484 0.929 . S
C516 C515 1.267 . S
C516 C517 1.251 . S
C517 H487 0.929 . S
C517 N513 1.418 . S
C517 C516 1.251 . S
C518 H485 0.930 . S
C518 C520 1.406 . S
C518 C523 1.261 . S
C519 H486 0.930 . S
C519 N521 1.325 . S
C519 C522 1.357 . S
C520 H488 0.928 . S
C520 C518 1.406 . S
C520 N521 1.261 . S
N521 Co472 2.214 . S
N521 C519 1.325 . S
N521 C520 1.261 . S
C522 H492 0.931 . S
C522 C519 1.357 . S
C522 C523 1.312 . S
C523 H494 0.930 . S
C523 C518 1.261 . S
C523 C522 1.312 . S
C524 O496 1.214 . S
C524 O504 1.234 . S
C525 H497 0.929 . S
C525 C528 1.391 . S
C525 C530 1.391 1_565 S
C526 H498 0.929 . S
C526 C527 1.390 . S
C526 N529 1.391 1_565 S
C527 H499 0.930 . S
C527 C526 1.390 . S
C527 C528 1.392 . S
C528 H500 0.929 . S
C528 C525 1.391 . S
C528 C527 1.392 . S
N529 Co473 2.257 . S
N529 C526 1.391 1_545 S
N529 C530 1.388 . S
C530 H501 0.930 . S
C530 C525 1.391 1_545 S
C530 N529 1.388 . S
Co531 O533 2.143 . S
Co531 O539 2.074 . S
Co531 O542 2.093 . S
Co531 O555 2.097 . S
Co531 N572 2.151 . S
Co531 N580 2.214 . S
Co532 O533 2.160 . S
Co532 O538 2.058 . S
Co532 O548 2.057 . S
Co532 O563 2.037 . S
Co532 N567 2.145 . S
Co532 N588 2.257 . S
O533 Co531 2.143 . S
O533 Co532 2.160 . S
C534 O535 1.278 . S
C534 O542 1.224 . S
O535 C534 1.278 . S
C536 O537 1.245 . S
C536 O548 1.232 . S
O537 C536 1.245 . S
O538 Co532 2.058 . S
O538 C564 1.269 . S
O539 Co531 2.074 . S
O539 C564 1.257 . S
H540 C565 0.930 . S
H541 C571 0.930 . S
O542 Co531 2.093 . S
O542 C534 1.224 . S
H543 C575 0.929 . S
H544 C577 0.930 . S
H545 C578 0.930 . S
H546 C576 0.929 . S
H547 C579 0.928 . S
O548 Co532 2.057 . S
O548 C536 1.232 . S
H549 C568 0.929 . S
H550 C569 0.929 . S
H551 C581 0.931 . S
H552 C573 0.929 . S
H553 C582 0.930 . S
H554 C574 0.931 . S
O555 Co531 2.097 . S
O555 C583 1.214 . S
H556 C584 0.929 . S
H557 C585 0.929 . S
H558 C586 0.930 . S
H559 C587 0.929 . S
H560 C589 0.930 . S
H561 C566 0.930 . S
H562 C570 0.930 . S
O563 Co532 2.037 . S
O563 C583 1.234 . S
C564 O538 1.269 . S
C564 O539 1.257 . S
C565 H540 0.930 . S
C565 C568 1.388 . S
C565 C570 1.418 . S
C566 H561 0.930 . S
C566 C569 1.404 . S
C566 C570 1.353 . S
N567 Co532 2.145 . S
N567 C568 1.397 . S
N567 C569 1.334 . S
C568 H549 0.929 . S
C568 C565 1.388 . S
C568 N567 1.397 . S
C569 H550 0.929 . S
C569 C566 1.404 . S
C569 N567 1.334 . S
C570 H562 0.930 . S
C570 C565 1.418 . S
C570 C566 1.353 . S
C571 H541 0.930 . S
C571 N572 1.330 . S
C571 C573 1.446 . S
N572 Co531 2.151 . S
N572 C571 1.330 . S
N572 C576 1.418 . S
C573 H552 0.929 . S
C573 C571 1.446 . S
C573 C574 1.332 . S
C574 H554 0.931 . S
C574 C573 1.332 . S
C574 C575 1.267 . S
C575 H543 0.929 . S
C575 C574 1.267 . S
C575 C576 1.251 . S
C576 H546 0.929 . S
C576 N572 1.418 . S
C576 C575 1.251 . S
C577 H544 0.930 . S
C577 C579 1.406 . S
C577 C582 1.261 . S
C578 H545 0.930 . S
C578 N580 1.325 . S
C578 C581 1.357 . S
C579 H547 0.928 . S
C579 C577 1.406 . S
C579 N580 1.261 . S
N580 Co531 2.214 . S
N580 C578 1.325 . S
N580 C579 1.261 . S
C581 H551 0.931 . S
C581 C578 1.357 . S
C581 C582 1.312 . S
C582 H553 0.930 . S
C582 C577 1.261 . S
C582 C581 1.312 . S
C583 O555 1.214 . S
C583 O563 1.234 . S
C584 H556 0.929 . S
C584 C587 1.391 . S
C584 C589 1.391 . S
C585 H557 0.929 . S
C585 C586 1.390 . S
C585 N588 1.391 . S
C586 H558 0.930 . S
C586 C585 1.390 . S
C586 C587 1.392 . S
C587 H559 0.929 . S
C587 C584 1.391 . S
C587 C586 1.392 . S
N588 Co532 2.257 . S
N588 C585 1.391 . S
N588 C589 1.388 . S
C589 H560 0.930 . S
C589 C584 1.391 . S
C589 N588 1.388 . S
Co590 O592 2.143 . S
Co590 O598 2.074 . S
Co590 O601 2.093 . S
Co590 O614 2.097 . S
Co590 N631 2.151 . S
Co590 N639 2.214 1_556 S
Co591 O592 2.160 . S
Co591 O597 2.058 . S
Co591 O607 2.057 . S
Co591 O622 2.037 . S
Co591 N626 2.145 . S
Co591 N647 2.257 . S
O592 Co590 2.143 . S
O592 Co591 2.160 . S
C593 O594 1.278 . S
C593 O601 1.224 . S
O594 C593 1.278 . S
C595 O596 1.245 . S
C595 O607 1.232 . S
O596 C595 1.245 . S
O597 Co591 2.058 . S
O597 C623 1.269 . S
O598 Co590 2.074 . S
O598 C623 1.257 . S
H599 C624 0.930 . S
H600 C630 0.930 . S
O601 Co590 2.093 . S
O601 C593 1.224 . S
H602 C634 0.929 . S
H603 C636 0.930 . S
H604 C637 0.930 . S
H605 C635 0.929 . S
H606 C638 0.928 . S
O607 Co591 2.057 . S
O607 C595 1.232 . S
H608 C627 0.929 . S
H609 C628 0.929 . S
H610 C640 0.931 . S
H611 C632 0.929 . S
H612 C641 0.930 . S
H613 C633 0.931 . S
O614 Co590 2.097 . S
O614 C642 1.214 . S
H615 C643 0.929 . S
H616 C644 0.929 . S
H617 C645 0.930 . S
H618 C646 0.929 . S
H619 C648 0.930 . S
H620 C625 0.930 . S
H621 C629 0.930 . S
O622 Co591 2.037 . S
O622 C642 1.234 . S
C623 O597 1.269 . S
C623 O598 1.257 . S
C624 H599 0.930 . S
C624 C627 1.388 . S
C624 C629 1.418 . S
C625 H620 0.930 . S
C625 C628 1.404 . S
C625 C629 1.353 . S
N626 Co591 2.145 . S
N626 C627 1.397 . S
N626 C628 1.334 . S
C627 H608 0.929 . S
C627 C624 1.388 . S
C627 N626 1.397 . S
C628 H609 0.929 . S
C628 C625 1.404 . S
C628 N626 1.334 . S
C629 H621 0.930 . S
C629 C624 1.418 . S
C629 C625 1.353 . S
C630 H600 0.930 . S
C630 N631 1.330 . S
C630 C632 1.446 . S
N631 Co590 2.151 . S
N631 C630 1.330 . S
N631 C635 1.418 . S
C632 H611 0.929 . S
C632 C630 1.446 . S
C632 C633 1.332 . S
C633 H613 0.931 . S
C633 C632 1.332 . S
C633 C634 1.267 . S
C634 H602 0.929 . S
C634 C633 1.267 . S
C634 C635 1.251 . S
C635 H605 0.929 . S
C635 N631 1.418 . S
C635 C634 1.251 . S
C636 H603 0.930 . S
C636 C638 1.406 . S
C636 C641 1.261 . S
C637 H604 0.930 . S
C637 N639 1.325 . S
C637 C640 1.357 . S
C638 H606 0.928 . S
C638 C636 1.406 . S
C638 N639 1.261 . S
N639 Co590 2.214 1_554 S
N639 C637 1.325 . S
N639 C638 1.261 . S
C640 H610 0.931 . S
C640 C637 1.357 . S
C640 C641 1.312 . S
C641 H612 0.930 . S
C641 C636 1.261 . S
C641 C640 1.312 . S
C642 O614 1.214 . S
C642 O622 1.234 . S
C643 H615 0.929 . S
C643 C646 1.391 . S
C643 C648 1.391 1_455 S
C644 H616 0.929 . S
C644 C645 1.390 . S
C644 N647 1.391 1_455 S
C645 H617 0.930 . S
C645 C644 1.390 . S
C645 C646 1.392 . S
C646 H618 0.929 . S
C646 C643 1.391 . S
C646 C645 1.392 . S
N647 Co591 2.257 . S
N647 C644 1.391 1_655 S
N647 C648 1.388 . S
C648 H619 0.930 . S
C648 C643 1.391 1_655 S
C648 N647 1.388 . S
Co649 O651 2.143 . S
Co649 O657 2.074 . S
Co649 O660 2.093 . S
Co649 O673 2.097 . S
Co649 N690 2.151 . S
Co649 N698 2.214 . S
Co650 O651 2.160 . S
Co650 O656 2.058 . S
Co650 O666 2.057 . S
Co650 O681 2.037 . S
Co650 N685 2.145 . S
Co650 N706 2.257 . S
O651 Co649 2.143 . S
O651 Co650 2.160 . S
C652 O653 1.278 . S
C652 O660 1.224 . S
O653 C652 1.278 . S
C654 O655 1.245 . S
C654 O666 1.232 . S
O655 C654 1.245 . S
O656 Co650 2.058 . S
O656 C682 1.269 . S
O657 Co649 2.074 . S
O657 C682 1.257 . S
H658 C683 0.930 . S
H659 C689 0.930 . S
O660 Co649 2.093 . S
O660 C652 1.224 . S
H661 C693 0.929 . S
H662 C695 0.930 . S
H663 C696 0.930 . S
H664 C694 0.929 . S
H665 C697 0.928 . S
O666 Co650 2.057 . S
O666 C654 1.232 . S
H667 C686 0.929 . S
H668 C687 0.929 . S
H669 C699 0.931 . S
H670 C691 0.929 . S
H671 C700 0.930 . S
H672 C692 0.931 . S
O673 Co649 2.097 . S
O673 C701 1.214 . S
H674 C702 0.929 . S
H675 C703 0.929 . S
H676 C704 0.930 . S
H677 C705 0.929 . S
H678 C707 0.930 . S
H679 C684 0.930 . S
H680 C688 0.930 . S
O681 Co650 2.037 . S
O681 C701 1.234 . S
C682 O656 1.269 . S
C682 O657 1.257 . S
C683 H658 0.930 . S
C683 C686 1.388 . S
C683 C688 1.418 . S
C684 H679 0.930 . S
C684 C687 1.404 . S
C684 C688 1.353 . S
N685 Co650 2.145 . S
N685 C686 1.397 . S
N685 C687 1.334 . S
C686 H667 0.929 . S
C686 C683 1.388 . S
C686 N685 1.397 . S
C687 H668 0.929 . S
C687 C684 1.404 . S
C687 N685 1.334 . S
C688 H680 0.930 . S
C688 C683 1.418 . S
C688 C684 1.353 . S
C689 H659 0.930 . S
C689 N690 1.330 . S
C689 C691 1.446 . S
N690 Co649 2.151 . S
N690 C689 1.330 . S
N690 C694 1.418 . S
C691 H670 0.929 . S
C691 C689 1.446 . S
C691 C692 1.332 . S
C692 H672 0.931 . S
C692 C691 1.332 . S
C692 C693 1.267 . S
C693 H661 0.929 . S
C693 C692 1.267 . S
C693 C694 1.251 . S
C694 H664 0.929 . S
C694 N690 1.418 . S
C694 C693 1.251 . S
C695 H662 0.930 . S
C695 C697 1.406 . S
C695 C700 1.261 . S
C696 H663 0.930 . S
C696 N698 1.325 . S
C696 C699 1.357 . S
C697 H665 0.928 . S
C697 C695 1.406 . S
C697 N698 1.261 . S
N698 Co649 2.214 . S
N698 C696 1.325 . S
N698 C697 1.261 . S
C699 H669 0.931 . S
C699 C696 1.357 . S
C699 C700 1.312 . S
C700 H671 0.930 . S
C700 C695 1.261 . S
C700 C699 1.312 . S
C701 O673 1.214 . S
C701 O681 1.234 . S
C702 H674 0.929 . S
C702 C705 1.391 . S
C702 C707 1.391 1_545 S
C703 H675 0.929 . S
C703 C704 1.390 . S
C703 N706 1.391 1_545 S
C704 H676 0.930 . S
C704 C703 1.390 . S
C704 C705 1.392 . S
C705 H677 0.929 . S
C705 C702 1.391 . S
C705 C704 1.392 . S
N706 Co650 2.257 . S
N706 C703 1.391 1_565 S
N706 C707 1.388 . S
C707 H678 0.930 . S
C707 C702 1.391 1_565 S
C707 N706 1.388 . S
H708 C714 0.930 . S
H709 C718 0.930 . S
H710 C723 0.929 . S
H711 C721 0.929 . S
H712 C716 0.929 . S
H713 C722 0.929 . S
C714 H708 0.930 . S
C714 C715 1.367 . S
C714 C722 1.378 . S
C715 C714 1.367 . S
C715 C723 1.433 . S
C716 H712 0.929 . S
C716 C718 1.378 . S
C716 C720 1.350 . S
C717 C720 1.463 . S
C717 C722 1.350 . S
C717 N725 1.427 . S
C718 H709 0.930 . S
C718 C716 1.378 . S
C718 C719 1.367 . S
C719 C718 1.367 . S
C719 C721 1.433 . S
C720 C716 1.350 . S
C720 C717 1.463 . S
C720 N724 1.427 . S
C721 H711 0.929 . S
C721 C719 1.433 . S
C721 N724 1.384 . S
C722 H713 0.929 . S
C722 C714 1.378 . S
C722 C717 1.350 . S
C723 H710 0.929 . S
C723 C715 1.433 . S
C723 N725 1.384 . S
N724 C720 1.427 . S
N724 C721 1.384 . S
N725 C717 1.427 . S
N725 C723 1.384 . S
H726 C732 0.930 1_655 S
H727 C736 0.930 1_455 S
H728 C741 0.929 . S
H729 C739 0.929 . S
H730 C734 0.929 . S
H731 C740 0.929 . S
C732 H726 0.930 1_455 S
C732 C733 1.367 . S
C732 C740 1.378 1_455 S
C733 C732 1.367 . S
C733 C741 1.433 . S
C734 H730 0.929 . S
C734 C736 1.378 1_455 S
C734 C738 1.350 1_455 S
C735 C738 1.463 1_455 S
C735 C740 1.350 1_455 S
C735 N743 1.427 . S
C736 H727 0.930 1_655 S
C736 C734 1.378 1_655 S
C736 C737 1.367 . S
C737 C736 1.367 . S
C737 C739 1.433 . S
C738 C734 1.350 1_655 S
C738 C735 1.463 1_655 S
C738 N742 1.427 . S
C739 H729 0.929 . S
C739 C737 1.433 . S
C739 N742 1.384 . S
C740 H731 0.929 . S
C740 C732 1.378 1_655 S
C740 C735 1.350 1_655 S
C741 H728 0.929 . S
C741 C733 1.433 . S
C741 N743 1.384 . S
N742 C738 1.427 . S
N742 C739 1.384 . S
N743 C735 1.427 . S
N743 C741 1.384 . S
H744 C750 0.930 . S
H745 C754 0.930 . S
H746 C759 0.929 . S
H747 C757 0.929 . S
H748 C752 0.929 . S
H749 C758 0.929 . S
C750 H744 0.930 . S
C750 C751 1.367 . S
C750 C758 1.378 . S
C751 C750 1.367 . S
C751 C759 1.433 . S
C752 H748 0.929 . S
C752 C754 1.378 . S
C752 C756 1.350 . S
C753 C756 1.463 1_565 S
C753 C758 1.350 . S
C753 N761 1.427 1_565 S
C754 H745 0.930 . S
C754 C752 1.378 . S
C754 C755 1.367 . S
C755 C754 1.367 . S
C755 C757 1.433 . S
C756 C752 1.350 . S
C756 C753 1.463 1_545 S
C756 N760 1.427 1_545 S
C757 H747 0.929 . S
C757 C755 1.433 . S
C757 N760 1.384 1_545 S
C758 H749 0.929 . S
C758 C750 1.378 . S
C758 C753 1.350 . S
C759 H746 0.929 . S
C759 C751 1.433 . S
C759 N761 1.384 1_565 S
N760 C756 1.427 1_565 S
N760 C757 1.384 1_565 S
N761 C753 1.427 1_545 S
N761 C759 1.384 1_545 S
H762 C768 0.930 . S
H763 C772 0.930 . S
H764 C777 0.929 . S
H765 C775 0.929 . S
H766 C770 0.929 . S
H767 C776 0.929 . S
C768 H762 0.930 . S
C768 C769 1.367 . S
C768 C776 1.378 . S
C769 C768 1.367 . S
C769 C777 1.433 . S
C770 H766 0.929 . S
C770 C772 1.378 . S
C770 C774 1.350 . S
C771 C774 1.463 . S
C771 C776 1.350 . S
C771 N779 1.427 . S
C772 H763 0.930 . S
C772 C770 1.378 . S
C772 C773 1.367 . S
C773 C772 1.367 . S
C773 C775 1.433 . S
C774 C770 1.350 . S
C774 C771 1.463 . S
C774 N778 1.427 . S
C775 H765 0.929 . S
C775 C773 1.433 . S
C775 N778 1.384 . S
C776 H767 0.929 . S
C776 C768 1.378 . S
C776 C771 1.350 . S
C777 H764 0.929 . S
C777 C769 1.433 . S
C777 N779 1.384 . S
N778 C774 1.427 . S
N778 C775 1.384 . S
N779 C771 1.427 . S
N779 C777 1.384 . S
H780 C786 0.930 . S
H781 C790 0.930 . S
H782 C795 0.929 . S
H783 C793 0.929 . S
H784 C788 0.929 . S
H785 C794 0.929 . S
C786 H780 0.930 . S
C786 C787 1.367 . S
C786 C794 1.378 1_655 S
C787 C786 1.367 . S
C787 C795 1.433 . S
C788 H784 0.929 . S
C788 C790 1.378 1_655 S
C788 C792 1.350 1_655 S
C789 C792 1.463 1_655 S
C789 C794 1.350 1_655 S
C789 N797 1.427 . S
C790 H781 0.930 . S
C790 C788 1.378 1_455 S
C790 C791 1.367 . S
C791 C790 1.367 . S
C791 C793 1.433 . S
C792 C788 1.350 1_455 S
C792 C789 1.463 1_455 S
C792 N796 1.427 . S
C793 H783 0.929 . S
C793 C791 1.433 . S
C793 N796 1.384 . S
C794 H785 0.929 . S
C794 C786 1.378 1_455 S
C794 C789 1.350 1_455 S
C795 H782 0.929 . S
C795 C787 1.433 . S
C795 N797 1.384 . S
N796 C792 1.427 . S
N796 C793 1.384 . S
N797 C789 1.427 . S
N797 C795 1.384 . S
H798 C804 0.930 1_565 S
H799 C808 0.930 1_545 S
H800 C813 0.929 . S
H801 C811 0.929 . S
H802 C806 0.929 . S
H803 C812 0.929 . S
C804 H798 0.930 1_545 S
C804 C805 1.367 . S
C804 C812 1.378 1_545 S
C805 C804 1.367 . S
C805 C813 1.433 . S
C806 H802 0.929 . S
C806 C808 1.378 1_545 S
C806 C810 1.350 1_545 S
C807 C810 1.463 1_545 S
C807 C812 1.350 1_545 S
C807 N815 1.427 . S
C808 H799 0.930 1_565 S
C808 C806 1.378 1_565 S
C808 C809 1.367 . S
C809 C808 1.367 . S
C809 C811 1.433 . S
C810 C806 1.350 1_565 S
C810 C807 1.463 1_565 S
C810 N814 1.427 . S
C811 H801 0.929 . S
C811 C809 1.433 . S
C811 N814 1.384 . S
C812 H803 0.929 . S
C812 C804 1.378 1_565 S
C812 C807 1.350 1_565 S
C813 H800 0.929 . S
C813 C805 1.433 . S
C813 N815 1.384 . S
N814 C810 1.427 . S
N814 C811 1.384 . S
N815 C807 1.427 . S
N815 C813 1.384 . S
H816 C822 0.930 . S
H817 C826 0.930 . S
H818 C831 0.929 . S
H819 C829 0.929 . S
H820 C824 0.929 . S
H821 C830 0.929 . S
C822 H816 0.930 . S
C822 C823 1.367 . S
C822 C830 1.378 . S
C823 C822 1.367 . S
C823 C831 1.433 . S
C824 H820 0.929 . S
C824 C826 1.378 . S
C824 C828 1.350 . S
C825 C828 1.463 . S
C825 C830 1.350 . S
C825 N833 1.427 . S
C826 H817 0.930 . S
C826 C824 1.378 . S
C826 C827 1.367 . S
C827 C826 1.367 . S
C827 C829 1.433 . S
C828 C824 1.350 . S
C828 C825 1.463 . S
C828 N832 1.427 . S
C829 H819 0.929 . S
C829 C827 1.433 . S
C829 N832 1.384 . S
C830 H821 0.929 . S
C830 C822 1.378 . S
C830 C825 1.350 . S
C831 H818 0.929 . S
C831 C823 1.433 . S
C831 N833 1.384 . S
N832 C828 1.427 . S
N832 C829 1.384 . S
N833 C825 1.427 . S
N833 C831 1.384 . S
H834 C840 0.930 . S
H835 C844 0.930 . S
H836 C849 0.929 . S
H837 C847 0.929 . S
H838 C842 0.929 . S
H839 C848 0.929 . S
C840 H834 0.930 . S
C840 C841 1.367 . S
C840 C848 1.378 . S
C841 C840 1.367 . S
C841 C849 1.433 . S
C842 H838 0.929 . S
C842 C844 1.378 . S
C842 C846 1.350 . S
C843 C846 1.463 . S
C843 C848 1.350 . S
C843 N851 1.427 . S
C844 H835 0.930 . S
C844 C842 1.378 . S
C844 C845 1.367 . S
C845 C844 1.367 . S
C845 C847 1.433 . S
C846 C842 1.350 . S
C846 C843 1.463 . S
C846 N850 1.427 . S
C847 H837 0.929 . S
C847 C845 1.433 . S
C847 N850 1.384 . S
C848 H839 0.929 . S
C848 C840 1.378 . S
C848 C843 1.350 . S
C849 H836 0.929 . S
C849 C841 1.433 . S
C849 N851 1.384 . S
N850 C846 1.427 . S
N850 C847 1.384 . S
N851 C843 1.427 . S
N851 C849 1.384 . S
H852 C858 0.930 . S
H853 C862 0.930 . S
H854 C867 0.929 . S
H855 C865 0.929 . S
H856 C860 0.929 . S
H857 C866 0.929 . S
C858 H852 0.930 . S
C858 C859 1.367 . S
C858 C866 1.378 . S
C859 C858 1.367 . S
C859 C867 1.433 . S
C860 H856 0.929 . S
C860 C862 1.378 . S
C860 C864 1.350 . S
C861 C864 1.463 . S
C861 C866 1.350 . S
C861 N869 1.427 . S
C862 H853 0.930 . S
C862 C860 1.378 . S
C862 C863 1.367 . S
C863 C862 1.367 . S
C863 C865 1.433 . S
C864 C860 1.350 . S
C864 C861 1.463 . S
C864 N868 1.427 . S
C865 H855 0.929 . S
C865 C863 1.433 . S
C865 N868 1.384 . S
C866 H857 0.929 . S
C866 C858 1.378 . S
C866 C861 1.350 . S
C867 H854 0.929 . S
C867 C859 1.433 . S
C867 N869 1.384 . S
N868 C864 1.427 . S
N868 C865 1.384 . S
N869 C861 1.427 . S
N869 C867 1.384 . S
H870 C876 0.930 . S
H871 C880 0.930 . S
H872 C885 0.929 . S
H873 C883 0.929 . S
H874 C878 0.929 . S
H875 C884 0.929 . S
C876 H870 0.930 . S
C876 C877 1.367 . S
C876 C884 1.378 . S
C877 C876 1.367 . S
C877 C885 1.433 . S
C878 H874 0.929 . S
C878 C880 1.378 . S
C878 C882 1.350 . S
C879 C882 1.463 . S
C879 C884 1.350 . S
C879 N887 1.427 . S
C880 H871 0.930 . S
C880 C878 1.378 . S
C880 C881 1.367 . S
C881 C880 1.367 . S
C881 C883 1.433 . S
C882 C878 1.350 . S
C882 C879 1.463 . S
C882 N886 1.427 . S
C883 H873 0.929 . S
C883 C881 1.433 . S
C883 N886 1.384 . S
C884 H875 0.929 . S
C884 C876 1.378 . S
C884 C879 1.350 . S
C885 H872 0.929 . S
C885 C877 1.433 . S
C885 N887 1.384 . S
N886 C882 1.427 . S
N886 C883 1.384 . S
N887 C879 1.427 . S
N887 C885 1.384 . S
H888 C894 0.930 . S
H889 C898 0.930 . S
H890 C903 0.929 . S
H891 C901 0.929 . S
H892 C896 0.929 . S
H893 C902 0.929 . S
C894 H888 0.930 . S
C894 C895 1.367 . S
C894 C902 1.378 . S
C895 C894 1.367 . S
C895 C903 1.433 . S
C896 H892 0.929 . S
C896 C898 1.378 . S
C896 C900 1.350 . S
C897 C900 1.463 . S
C897 C902 1.350 . S
C897 N905 1.427 . S
C898 H889 0.930 . S
C898 C896 1.378 . S
C898 C899 1.367 . S
C899 C898 1.367 . S
C899 C901 1.433 . S
C900 C896 1.350 . S
C900 C897 1.463 . S
C900 N904 1.427 . S
C901 H891 0.929 . S
C901 C899 1.433 . S
C901 N904 1.384 . S
C902 H893 0.929 . S
C902 C894 1.378 . S
C902 C897 1.350 . S
C903 H890 0.929 . S
C903 C895 1.433 . S
C903 N905 1.384 . S
N904 C900 1.427 . S
N904 C901 1.384 . S
N905 C897 1.427 . S
N905 C903 1.384 . S
H906 C912 0.930 . S
H907 C916 0.930 . S
H908 C921 0.929 . S
H909 C919 0.929 . S
H910 C914 0.929 . S
H911 C920 0.929 . S
C912 H906 0.930 . S
C912 C913 1.367 . S
C912 C920 1.378 . S
C913 C912 1.367 . S
C913 C921 1.433 . S
C914 H910 0.929 . S
C914 C916 1.378 . S
C914 C918 1.350 . S
C915 C918 1.463 . S
C915 C920 1.350 . S
C915 N923 1.427 . S
C916 H907 0.930 . S
C916 C914 1.378 . S
C916 C917 1.367 . S
C917 C916 1.367 . S
C917 C919 1.433 . S
C918 C914 1.350 . S
C918 C915 1.463 . S
C918 N922 1.427 . S
C919 H909 0.929 . S
C919 C917 1.433 . S
C919 N922 1.384 . S
C920 H911 0.929 . S
C920 C912 1.378 . S
C920 C915 1.350 . S
C921 H908 0.929 . S
C921 C913 1.433 . S
C921 N923 1.384 . S
N922 C918 1.427 . S
N922 C919 1.384 . S
N923 C915 1.427 . S
N923 C921 1.384 . S
H924 C930 0.930 . S
H925 C934 0.930 . S
H926 C939 0.929 . S
H927 C937 0.929 . S
H928 C932 0.929 1_556 S
H929 C938 0.929 1_554 S
C930 H924 0.930 . S
C930 C931 1.367 . S
C930 C938 1.378 . S
C931 C930 1.367 . S
C931 C939 1.433 . S
C932 H928 0.929 1_554 S
C932 C934 1.378 . S
C932 C936 1.350 . S
C933 C936 1.463 1_566 S
C933 C938 1.350 . S
C933 N941 1.427 . S
C934 H925 0.930 . S
C934 C932 1.378 . S
C934 C935 1.367 . S
C935 C934 1.367 . S
C935 C937 1.433 . S
C936 C932 1.350 . S
C936 C933 1.463 1_544 S
C936 N940 1.427 . S
C937 H927 0.929 . S
C937 C935 1.433 . S
C937 N940 1.384 . S
C938 H929 0.929 1_556 S
C938 C930 1.378 . S
C938 C933 1.350 . S
C939 H926 0.929 . S
C939 C931 1.433 . S
C939 N941 1.384 . S
N940 C936 1.427 . S
N940 C937 1.384 . S
N941 C933 1.427 . S
N941 C939 1.384 . S
H942 C948 0.930 . S
H943 C952 0.930 . S
H944 C957 0.929 . S
H945 C955 0.929 . S
H946 C950 0.929 . S
H947 C956 0.929 . S
C948 H942 0.930 . S
C948 C949 1.367 . S
C948 C956 1.378 . S
C949 C948 1.367 . S
C949 C957 1.433 . S
C950 H946 0.929 . S
C950 C952 1.378 . S
C950 C954 1.350 . S
C951 C954 1.463 . S
C951 C956 1.350 . S
C951 N959 1.427 . S
C952 H943 0.930 . S
C952 C950 1.378 . S
C952 C953 1.367 . S
C953 C952 1.367 . S
C953 C955 1.433 . S
C954 C950 1.350 . S
C954 C951 1.463 . S
C954 N958 1.427 . S
C955 H945 0.929 . S
C955 C953 1.433 . S
C955 N958 1.384 . S
C956 H947 0.929 . S
C956 C948 1.378 . S
C956 C951 1.350 . S
C957 H944 0.929 . S
C957 C949 1.433 . S
C957 N959 1.384 . S
N958 C954 1.427 . S
N958 C955 1.384 . S
N959 C951 1.427 . S
N959 C957 1.384 . S
H960 C966 0.930 . S
H961 C970 0.930 . S
H962 C975 0.929 . S
H963 C973 0.929 . S
H964 C968 0.941 . S
H965 C974 0.941 . S
C966 H960 0.930 . S
C966 C967 1.367 . S
C966 C974 1.378 . S
C967 C966 1.367 . S
C967 C975 1.433 . S
C968 H964 0.941 . S
C968 C970 1.378 . S
C968 C972 1.350 . S
C969 C972 1.463 1_655 S
C969 C974 1.350 . S
C969 N977 1.427 . S
C970 H961 0.930 . S
C970 C968 1.378 . S
C970 C971 1.367 . S
C971 C970 1.367 . S
C971 C973 1.433 . S
C972 C968 1.350 . S
C972 C969 1.463 1_455 S
C972 N976 1.427 . S
C973 H963 0.929 . S
C973 C971 1.433 . S
C973 N976 1.384 . S
C974 H965 0.941 . S
C974 C966 1.378 . S
C974 C969 1.350 . S
C975 H962 0.929 . S
C975 C967 1.433 . S
C975 N977 1.384 . S
N976 C972 1.427 . S
N976 C973 1.384 . S
N977 C969 1.427 . S
N977 C975 1.384 . S
H978 C984 0.930 . S
H979 C988 0.930 . S
H980 C993 0.929 . S
H981 C991 0.929 . S
H982 C986 0.929 1_554 S
H983 C992 0.929 1_556 S
C984 H978 0.930 . S
C984 C985 1.367 . S
C984 C992 1.378 . S
C985 C984 1.367 . S
C985 C993 1.433 . S
C986 H982 0.929 1_556 S
C986 C988 1.378 . S
C986 C990 1.350 . S
C987 C990 1.463 1_564 S
C987 C992 1.350 . S
C987 N995 1.427 . S
C988 H979 0.930 . S
C988 C986 1.378 . S
C988 C989 1.367 . S
C989 C988 1.367 . S
C989 C991 1.433 . S
C990 C986 1.350 . S
C990 C987 1.463 1_546 S
C990 N994 1.427 . S
C991 H981 0.929 . S
C991 C989 1.433 . S
C991 N994 1.384 . S
C992 H983 0.929 1_554 S
C992 C984 1.378 . S
C992 C987 1.350 . S
C993 H980 0.929 . S
C993 C985 1.433 . S
C993 N995 1.384 . S
N994 C990 1.427 . S
N994 C991 1.384 . S
N995 C987 1.427 . S
N995 C993 1.384 . S
H996 C1002 0.930 . S
H997 C1006 0.930 . S
H998 C1011 0.929 . S
H999 C1009 0.929 . S
H1000 C1004 0.929 . S
H1001 C1010 0.929 . S
C1002 H996 0.930 . S
C1002 C1003 1.367 . S
C1002 C1010 1.378 . S
C1003 C1002 1.367 . S
C1003 C1011 1.433 . S
C1004 H1000 0.929 . S
C1004 C1006 1.378 . S
C1004 C1008 1.350 . S
C1005 C1008 1.463 . S
C1005 C1010 1.350 . S
C1005 N1013 1.427 . S
C1006 H997 0.930 . S
C1006 C1004 1.378 . S
C1006 C1007 1.367 . S
C1007 C1006 1.367 . S
C1007 C1009 1.433 . S
C1008 C1004 1.350 . S
C1008 C1005 1.463 . S
C1008 N1012 1.427 . S
C1009 H999 0.929 . S
C1009 C1007 1.433 . S
C1009 N1012 1.384 . S
C1010 H1001 0.929 . S
C1010 C1002 1.378 . S
C1010 C1005 1.350 . S
C1011 H998 0.929 . S
C1011 C1003 1.433 . S
C1011 N1013 1.384 . S
N1012 C1008 1.427 . S
N1012 C1009 1.384 . S
N1013 C1005 1.427 . S
N1013 C1011 1.384 . S
H1014 C1020 0.930 . S
H1015 C1024 0.930 . S
H1016 C1029 0.929 . S
H1017 C1027 0.929 . S
H1018 C1022 0.929 . S
H1019 C1028 0.929 . S
C1020 H1014 0.930 . S
C1020 C1021 1.367 . S
C1020 C1028 1.378 . S
C1021 C1020 1.367 . S
C1021 C1029 1.433 . S
C1022 H1018 0.929 . S
C1022 C1024 1.378 . S
C1022 C1026 1.350 . S
C1023 C1026 1.463 1_455 S
C1023 C1028 1.350 . S
C1023 N1031 1.427 . S
C1024 H1015 0.930 . S
C1024 C1022 1.378 . S
C1024 C1025 1.367 . S
C1025 C1024 1.367 . S
C1025 C1027 1.433 . S
C1026 C1022 1.350 . S
C1026 C1023 1.463 1_655 S
C1026 N1030 1.427 . S
C1027 H1017 0.929 . S
C1027 C1025 1.433 . S
C1027 N1030 1.384 . S
C1028 H1019 0.929 . S
C1028 C1020 1.378 . S
C1028 C1023 1.350 . S
C1029 H1016 0.929 . S
C1029 C1021 1.433 . S
C1029 N1031 1.384 . S
N1030 C1026 1.427 . S
N1030 C1027 1.384 . S
N1031 C1023 1.427 . S
N1031 C1029 1.384 . S
H1032 C1038 0.930 . S
H1033 C1042 0.930 . S
H1034 C1047 0.929 . S
H1035 C1045 0.929 . S
H1036 C1040 0.929 . S
H1037 C1046 0.929 . S
C1038 H1032 0.930 . S
C1038 C1039 1.367 . S
C1038 C1046 1.378 . S
C1039 C1038 1.367 . S
C1039 C1047 1.433 . S
C1040 H1036 0.929 . S
C1040 C1042 1.378 . S
C1040 C1044 1.350 . S
C1041 C1044 1.463 1_556 S
C1041 C1046 1.350 . S
C1041 N1049 1.427 . S
C1042 H1033 0.930 . S
C1042 C1040 1.378 . S
C1042 C1043 1.367 . S
C1043 C1042 1.367 . S
C1043 C1045 1.433 . S
C1044 C1040 1.350 . S
C1044 C1041 1.463 1_554 S
C1044 N1048 1.427 . S
C1045 H1035 0.929 . S
C1045 C1043 1.433 . S
C1045 N1048 1.384 . S
C1046 H1037 0.929 . S
C1046 C1038 1.378 . S
C1046 C1041 1.350 . S
C1047 H1034 0.929 . S
C1047 C1039 1.433 . S
C1047 N1049 1.384 . S
N1048 C1044 1.427 . S
N1048 C1045 1.384 . S
N1049 C1041 1.427 . S
N1049 C1047 1.384 . S
H1050 C1056 0.930 1_565 S
H1051 C1060 0.930 . S
H1052 C1065 0.929 . S
H1053 C1063 0.929 . S
H1054 C1058 0.929 . S
H1055 C1064 0.929 . S
C1056 H1050 0.930 1_545 S
C1056 C1057 1.367 . S
C1056 C1064 1.378 . S
C1057 C1056 1.367 . S
C1057 C1065 1.433 . S
C1058 H1054 0.929 . S
C1058 C1060 1.378 . S
C1058 C1062 1.350 . S
C1059 C1062 1.463 . S
C1059 C1064 1.350 . S
C1059 N1067 1.427 . S
C1060 H1051 0.930 . S
C1060 C1058 1.378 . S
C1060 C1061 1.367 . S
C1061 C1060 1.367 . S
C1061 C1063 1.433 . S
C1062 C1058 1.350 . S
C1062 C1059 1.463 . S
C1062 N1066 1.427 . S
C1063 H1053 0.929 . S
C1063 C1061 1.433 . S
C1063 N1066 1.384 . S
C1064 H1055 0.929 . S
C1064 C1056 1.378 . S
C1064 C1059 1.350 . S
C1065 H1052 0.929 . S
C1065 C1057 1.433 . S
C1065 N1067 1.384 . S
N1066 C1062 1.427 . S
N1066 C1063 1.384 . S
N1067 C1059 1.427 . S
N1067 C1065 1.384 . S
H1068 C1074 0.930 . S
H1069 C1078 0.930 . S
H1070 C1083 0.929 . S
H1071 C1081 0.929 1_545 S
H1072 C1076 0.929 . S
H1073 C1082 0.929 . S
C1074 H1068 0.930 . S
C1074 C1075 1.367 . S
C1074 C1082 1.378 . S
C1075 C1074 1.367 . S
C1075 C1083 1.433 . S
C1076 H1072 0.929 . S
C1076 C1078 1.378 . S
C1076 C1080 1.350 . S
C1077 C1080 1.463 . S
C1077 C1082 1.350 . S
C1077 N1085 1.427 . S
C1078 H1069 0.930 . S
C1078 C1076 1.378 . S
C1078 C1079 1.367 . S
C1079 C1078 1.367 . S
C1079 C1081 1.433 . S
C1080 C1076 1.350 . S
C1080 C1077 1.463 . S
C1080 N1084 1.427 . S
C1081 H1071 0.929 1_565 S
C1081 C1079 1.433 . S
C1081 N1084 1.384 . S
C1082 H1073 0.929 . S
C1082 C1074 1.378 . S
C1082 C1077 1.350 . S
C1083 H1070 0.929 . S
C1083 C1075 1.433 . S
C1083 N1085 1.384 . S
N1084 C1080 1.427 . S
N1084 C1081 1.384 . S
N1085 C1077 1.427 . S
N1085 C1083 1.384 . S
H1086 C1092 0.930 . S
H1087 C1096 0.930 . S
H1088 C1101 0.929 1_556 S
H1089 C1099 0.929 1_554 S
H1090 C1094 0.929 . S
H1091 C1100 0.929 . S
C1092 H1086 0.930 . S
C1092 C1093 1.367 . S
C1092 C1100 1.378 . S
C1093 C1092 1.367 . S
C1093 C1101 1.433 . S
C1094 H1090 0.929 . S
C1094 C1096 1.378 . S
C1094 C1098 1.350 . S
C1095 C1098 1.463 1_554 S
C1095 C1100 1.350 . S
C1095 N1103 1.427 1_554 S
C1096 H1087 0.930 . S
C1096 C1094 1.378 . S
C1096 C1097 1.367 . S
C1097 C1096 1.367 . S
C1097 C1099 1.433 . S
C1098 C1094 1.350 . S
C1098 C1095 1.463 1_556 S
C1098 N1102 1.427 1_556 S
C1099 H1089 0.929 1_556 S
C1099 C1097 1.433 . S
C1099 N1102 1.384 1_556 S
C1100 H1091 0.929 . S
C1100 C1092 1.378 . S
C1100 C1095 1.350 . S
C1101 H1088 0.929 1_554 S
C1101 C1093 1.433 . S
C1101 N1103 1.384 1_554 S
N1102 C1098 1.427 1_554 S
N1102 C1099 1.384 1_554 S
N1103 C1095 1.427 1_556 S
N1103 C1101 1.384 1_556 S
H1104 C1110 0.930 . S
H1105 C1114 0.930 . S
H1106 C1119 0.929 1_655 S
H1107 C1117 0.929 . S
H1108 C1112 0.929 . S
H1109 C1118 0.929 . S
C1110 H1104 0.930 . S
C1110 C1111 1.367 . S
C1110 C1118 1.378 . S
C1111 C1110 1.367 . S
C1111 C1119 1.433 . S
C1112 H1108 0.929 . S
C1112 C1114 1.378 . S
C1112 C1116 1.350 . S
C1113 C1116 1.463 . S
C1113 C1118 1.350 . S
C1113 N1121 1.427 . S
C1114 H1105 0.930 . S
C1114 C1112 1.378 . S
C1114 C1115 1.367 . S
C1115 C1114 1.367 . S
C1115 C1117 1.433 . S
C1116 C1112 1.350 . S
C1116 C1113 1.463 . S
C1116 N1120 1.427 . S
C1117 H1107 0.929 . S
C1117 C1115 1.433 . S
C1117 N1120 1.384 . S
C1118 H1109 0.929 . S
C1118 C1110 1.378 . S
C1118 C1113 1.350 . S
C1119 H1106 0.929 1_455 S
C1119 C1111 1.433 . S
C1119 N1121 1.384 . S
N1120 C1116 1.427 . S
N1120 C1117 1.384 . S
N1121 C1113 1.427 . S
N1121 C1119 1.384 . S
H1122 C1128 0.930 . S
H1123 C1132 0.930 . S
H1124 C1137 0.929 1_565 S
H1125 C1135 0.929 . S
H1126 C1130 0.929 . S
H1127 C1136 0.929 . S
C1128 H1122 0.930 . S
C1128 C1129 1.367 . S
C1128 C1136 1.378 . S
C1129 C1128 1.367 . S
C1129 C1137 1.433 . S
C1130 H1126 0.929 . S
C1130 C1132 1.378 . S
C1130 C1134 1.350 . S
C1131 C1134 1.463 . S
C1131 C1136 1.350 . S
C1131 N1139 1.427 . S
C1132 H1123 0.930 . S
C1132 C1130 1.378 . S
C1132 C1133 1.367 . S
C1133 C1132 1.367 . S
C1133 C1135 1.433 . S
C1134 C1130 1.350 . S
C1134 C1131 1.463 . S
C1134 N1138 1.427 . S
C1135 H1125 0.929 . S
C1135 C1133 1.433 . S
C1135 N1138 1.384 . S
C1136 H1127 0.929 . S
C1136 C1128 1.378 . S
C1136 C1131 1.350 . S
C1137 H1124 0.929 1_545 S
C1137 C1129 1.433 . S
C1137 N1139 1.384 . S
N1138 C1134 1.427 . S
N1138 C1135 1.384 . S
N1139 C1131 1.427 . S
N1139 C1137 1.384 . S
C715 C180 1.350 . S
C719 C3 1.347 . S
C733 C62 1.342 . S
C737 C239 1.345 . S
C751 C298 1.350 . S
C755 C121 1.347 . S
C769 C357 1.348 . S
C773 C534 1.345 . S
C787 C593 1.346 . S
C791 C416 1.342 . S
C805 C475 1.342 . S
C809 C652 1.344 . S
C823 C477 1.648 . S
C827 C5 1.645 . S
C841 C64 1.647 . S
C845 C536 1.644 . S
C859 C123 1.645 . S
C863 C595 1.645 . S
C877 C182 1.644 . S
C881 C654 1.647 . S
C895 C359 1.644 . S
C899 C241 1.647 . S
C913 C418 1.648 . S
C917 C300 1.646 . S
C931 C446 1.593 . S
C935 C33 1.588 . S
C949 C92 1.591 . S
C953 C505 1.589 . S
C967 C151 1.592 . S
C971 C564 1.589 . S
C985 C210 1.593 . S
C989 C623 1.588 . S
C1003 C682 1.588 . S
C1007 C269 1.592 . S
C1021 C328 1.593 . S
C1025 C387 1.588 . S
C1039 C642 1.493 1_455 S
C1043 C52 1.493 . S
C1057 C701 1.496 1_545 S
C1061 C111 1.496 1_655 S
C1075 C406 1.493 . S
C1079 C170 1.493 1_565 S
C1093 C229 1.492 . S
C1097 C465 1.491 1_655 S
C1111 C288 1.491 1_455 S
C1115 C524 1.491 1_565 S
C1129 C347 1.492 1_545 S
C1133 C583 1.492 . S
