# Generated by pormake.
# Topology wiv, (6)-cn, num edge types: 1
# Building blocks:
#     Node 0, Type 0, BuildingBlock: INOVEN_clean_sbu_0, # of connection points: 6
#     Node 1, Type 0, BuildingBlock: INOVEN_clean_sbu_0, # of connection points: 6
#     Node 2, Type 0, BuildingBlock: INOVEN_clean_sbu_0, # of connection points: 6
#     Node 3, Type 0, BuildingBlock: INOVEN_clean_sbu_0, # of connection points: 6
#     Node 4, Type 0, BuildingBlock: INOVEN_clean_sbu_0, # of connection points: 6
#     Node 5, Type 0, BuildingBlock: INOVEN_clean_sbu_0, # of connection points: 6
#     Node 6, Type 0, BuildingBlock: INOVEN_clean_sbu_0, # of connection points: 6
#     Node 7, Type 0, BuildingBlock: INOVEN_clean_sbu_0, # of connection points: 6
#     Node 8, Type 0, BuildingBlock: INOVEN_clean_sbu_0, # of connection points: 6
#     Node 9, Type 0, BuildingBlock: INOVEN_clean_sbu_0, # of connection points: 6
#     Node 10, Type 0, BuildingBlock: INOVEN_clean_sbu_0, # of connection points: 6
#     Node 11, Type 0, BuildingBlock: INOVEN_clean_sbu_0, # of connection points: 6
#     Node 12, Type 0, BuildingBlock: INOVEN_clean_sbu_0, # of connection points: 6
#     Node 13, Type 0, BuildingBlock: INOVEN_clean_sbu_0, # of connection points: 6
#     Node 14, Type 0, BuildingBlock: INOVEN_clean_sbu_0, # of connection points: 6
#     Node 15, Type 0, BuildingBlock: INOVEN_clean_sbu_0, # of connection points: 6
#     Edge 16, Type (0, 0), BuildingBlock: ZUJKAS_clean_linker_0, # of connection points: 2
#     Edge 17, Type (0, 0), BuildingBlock: ZUJKAS_clean_linker_0, # of connection points: 2
#     Edge 18, Type (0, 0), BuildingBlock: ZUJKAS_clean_linker_0, # of connection points: 2
#     Edge 19, Type (0, 0), BuildingBlock: ZUJKAS_clean_linker_0, # of connection points: 2
#     Edge 20, Type (0, 0), BuildingBlock: ZUJKAS_clean_linker_0, # of connection points: 2
#     Edge 21, Type (0, 0), BuildingBlock: ZUJKAS_clean_linker_0, # of connection points: 2
#     Edge 22, Type (0, 0), BuildingBlock: ZUJKAS_clean_linker_0, # of connection points: 2
#     Edge 23, Type (0, 0), BuildingBlock: ZUJKAS_clean_linker_0, # of connection points: 2
#     Edge 24, Type (0, 0), BuildingBlock: ZUJKAS_clean_linker_0, # of connection points: 2
#     Edge 25, Type (0, 0), BuildingBlock: ZUJKAS_clean_linker_0, # of connection points: 2
#     Edge 26, Type (0, 0), BuildingBlock: ZUJKAS_clean_linker_0, # of connection points: 2
#     Edge 27, Type (0, 0), BuildingBlock: ZUJKAS_clean_linker_0, # of connection points: 2
#     Edge 28, Type (0, 0), BuildingBlock: ZUJKAS_clean_linker_0, # of connection points: 2
#     Edge 29, Type (0, 0), BuildingBlock: ZUJKAS_clean_linker_0, # of connection points: 2
#     Edge 30, Type (0, 0), BuildingBlock: ZUJKAS_clean_linker_0, # of connection points: 2
#     Edge 31, Type (0, 0), BuildingBlock: ZUJKAS_clean_linker_0, # of connection points: 2
#     Edge 32, Type (0, 0), BuildingBlock: ZUJKAS_clean_linker_0, # of connection points: 2
#     Edge 33, Type (0, 0), BuildingBlock: ZUJKAS_clean_linker_0, # of connection points: 2
#     Edge 34, Type (0, 0), BuildingBlock: ZUJKAS_clean_linker_0, # of connection points: 2
#     Edge 35, Type (0, 0), BuildingBlock: ZUJKAS_clean_linker_0, # of connection points: 2
#     Edge 36, Type (0, 0), BuildingBlock: ZUJKAS_clean_linker_0, # of connection points: 2
#     Edge 37, Type (0, 0), BuildingBlock: ZUJKAS_clean_linker_0, # of connection points: 2
#     Edge 38, Type (0, 0), BuildingBlock: ZUJKAS_clean_linker_0, # of connection points: 2
#     Edge 39, Type (0, 0), BuildingBlock: ZUJKAS_clean_linker_0, # of connection points: 2
#     Edge 40, Type (0, 0), BuildingBlock: ZUJKAS_clean_linker_0, # of connection points: 2
#     Edge 41, Type (0, 0), BuildingBlock: ZUJKAS_clean_linker_0, # of connection points: 2
#     Edge 42, Type (0, 0), BuildingBlock: ZUJKAS_clean_linker_0, # of connection points: 2
#     Edge 43, Type (0, 0), BuildingBlock: ZUJKAS_clean_linker_0, # of connection points: 2
#     Edge 44, Type (0, 0), BuildingBlock: ZUJKAS_clean_linker_0, # of connection points: 2
#     Edge 45, Type (0, 0), BuildingBlock: ZUJKAS_clean_linker_0, # of connection points: 2
#     Edge 46, Type (0, 0), BuildingBlock: ZUJKAS_clean_linker_0, # of connection points: 2
#     Edge 47, Type (0, 0), BuildingBlock: ZUJKAS_clean_linker_0, # of connection points: 2
#     Edge 48, Type (0, 0), BuildingBlock: ZUJKAS_clean_linker_0, # of connection points: 2
#     Edge 49, Type (0, 0), BuildingBlock: ZUJKAS_clean_linker_0, # of connection points: 2
#     Edge 50, Type (0, 0), BuildingBlock: ZUJKAS_clean_linker_0, # of connection points: 2
#     Edge 51, Type (0, 0), BuildingBlock: ZUJKAS_clean_linker_0, # of connection points: 2
#     Edge 52, Type (0, 0), BuildingBlock: ZUJKAS_clean_linker_0, # of connection points: 2
#     Edge 53, Type (0, 0), BuildingBlock: ZUJKAS_clean_linker_0, # of connection points: 2
#     Edge 54, Type (0, 0), BuildingBlock: ZUJKAS_clean_linker_0, # of connection points: 2
#     Edge 55, Type (0, 0), BuildingBlock: ZUJKAS_clean_linker_0, # of connection points: 2
#     Edge 56, Type (0, 0), BuildingBlock: ZUJKAS_clean_linker_0, # of connection points: 2
#     Edge 57, Type (0, 0), BuildingBlock: ZUJKAS_clean_linker_0, # of connection points: 2
#     Edge 58, Type (0, 0), BuildingBlock: ZUJKAS_clean_linker_0, # of connection points: 2
#     Edge 59, Type (0, 0), BuildingBlock: ZUJKAS_clean_linker_0, # of connection points: 2
#     Edge 60, Type (0, 0), BuildingBlock: ZUJKAS_clean_linker_0, # of connection points: 2
#     Edge 61, Type (0, 0), BuildingBlock: ZUJKAS_clean_linker_0, # of connection points: 2
#     Edge 62, Type (0, 0), BuildingBlock: ZUJKAS_clean_linker_0, # of connection points: 2
#     Edge 63, Type (0, 0), BuildingBlock: ZUJKAS_clean_linker_0, # of connection points: 2
# Relax obj value: 0.090
# Max RMSD: 0.160
# Mean RMSD: 0.160
data_MOF--net-wiv--node1-INOVEN_clean_sbu_0--edge1-ZUJKAS_clean_linker_0
_symmetry_space_group_name_H-M    P1
_symmetry_Int_Tables_number       1
_symmetry_cell_setting            triclinic
loop_
_symmetry_equiv_pos_as_xyz
'x, y, z'
_cell_length_a     68.480219
_cell_length_b     68.452529
_cell_length_c     29.653919
_cell_angle_alpha  90.081031
_cell_angle_beta   90.012596
_cell_angle_gamma 89.858049
loop_
_atom_site_label
_atom_site_type_symbol
_atom_site_fract_x
_atom_site_fract_y
_atom_site_fract_z
_atom_type_partial_charge
Gd0 Gd 0.35513 0.11313 0.15212 0.0
Gd1 Gd 0.38123 0.11649 0.07261 0.0
C2 C 0.4022 0.12143 0.16639 0.0
C3 C 0.33954 0.10404 0.22911 0.0
C4 C 0.34406 0.10556 0.27784 0.0
C5 C 0.32935 0.11152 0.30777 0.0
C6 C 0.36263 0.10094 0.2951 0.0
C7 C 0.35149 0.10794 0.37179 0.0
C8 C 0.36631 0.10213 0.34157 0.0
C9 C 0.333 0.11272 0.35413 0.0
C10 C 0.35765 0.15008 0.11974 0.0
C11 C 0.33448 0.1096 0.05608 0.0
C12 C 0.3974 0.12446 0.99566 0.0
C13 C 0.39287 0.12289 0.94695 0.0
C14 C 0.40742 0.11641 0.91716 0.0
C15 C 0.37445 0.12796 0.92955 0.0
C16 C 0.38539 0.12035 0.85305 0.0
C17 C 0.37073 0.12666 0.88313 0.0
C18 C 0.40375 0.11514 0.87081 0.0
C19 C 0.3797 0.08041 0.11006 0.0
O20 O 0.38572 0.11449 0.18366 0.0
O21 O 0.40327 0.12623 0.12339 0.0
O22 O 0.3359 0.12038 0.20803 0.0
O23 O 0.35005 0.09191 0.20504 0.0
O24 O 0.34169 0.142 0.1339 0.0
O25 O 0.37172 0.1382 0.12364 0.0
O26 O 0.35136 0.11578 0.04003 0.0
O27 O 0.3325 0.10526 0.09936 0.0
O28 O 0.40027 0.10806 1.01723 0.0
O29 O 0.3874 0.13719 0.01928 0.0
O30 O 0.39556 0.08839 0.09503 0.0
O31 O 0.36528 0.09152 0.10297 0.0
H32 H 0.31495 0.11522 0.29524 0.0
H33 H 0.37425 0.09626 0.27279 0.0
H34 H 0.38066 0.09815 0.35386 0.0
H35 H 0.32133 0.11757 0.37611 0.0
H36 H 0.42172 0.11236 0.92978 0.0
H37 H 0.36296 0.13308 0.95174 0.0
H38 H 0.35649 0.13098 0.87073 0.0
H39 H 0.41529 0.10991 0.84891 0.0
Gd40 Gd 0.11905 0.63107 0.96279 0.0
Gd41 Gd 0.11111 0.65724 0.87678 0.0
C42 C 0.11004 0.67806 0.97558 0.0
C43 C 0.13043 0.61753 0.04006 0.0
C44 C 0.12848 0.62298 0.0882 0.0
C45 C 0.11153 0.63207 0.10481 0.0
C46 C 0.1437 0.61867 0.11825 0.0
C47 C 0.12476 0.63168 0.18144 0.0
C48 C 0.1419 0.623 0.16426 0.0
C49 C 0.10966 0.63633 0.1509 0.0
C50 C 0.0824 0.63089 0.92834 0.0
C51 C 0.12357 0.61075 0.86748 0.0
C52 C 0.09371 0.67034 0.80548 0.0
C53 C 0.09684 0.66863 0.75634 0.0
C54 C 0.11482 0.66226 0.73887 0.0
C55 C 0.08143 0.67257 0.72655 0.0
C56 C 0.10193 0.66388 0.66206 0.0
C57 C 0.08394 0.67026 0.67992 0.0
C58 C 0.11735 0.65995 0.69224 0.0
C59 C 0.15034 0.65299 0.88834 0.0
O60 O 0.11466 0.66092 0.99332 0.0
O61 O 0.10714 0.68041 0.93148 0.0
O62 O 0.11453 0.61174 0.01951 0.0
O63 O 0.14126 0.62892 1.01499 0.0
O64 O 0.09082 0.61559 0.94556 0.0
O65 O 0.09344 0.64554 0.93208 0.0
O66 O 0.11392 0.62594 0.85035 0.0
O67 O 0.13004 0.61067 0.90955 0.0
O68 O 0.10665 0.6805 0.82825 0.0
O69 O 0.08864 0.65416 0.8259 0.0
O70 O 0.14239 0.66331 0.85657 0.0
O71 O 0.13688 0.64604 0.91248 0.0
H72 H 0.0996 0.63566 0.08226 0.0
H73 H 0.15698 0.61181 0.10614 0.0
H74 H 0.15402 0.61957 0.18633 0.0
H75 H 0.09617 0.64285 0.16269 0.0
H76 H 0.12686 0.65897 0.76132 0.0
H77 H 0.06735 0.67723 0.73939 0.0
H78 H 0.07163 0.6731 0.65796 0.0
H79 H 0.13147 0.65523 0.67984 0.0
Gd80 Gd 0.65487 0.89669 0.1504 0.0
Gd81 Gd 0.62893 0.8932 0.06997 0.0
C82 C 0.60757 0.88899 0.16378 0.0
C83 C 0.67014 0.90653 0.22736 0.0
C84 C 0.66558 0.90481 0.27584 0.0
C85 C 0.65182 0.8913 0.29174 0.0
C86 C 0.67523 0.9169 0.30677 0.0
C87 C 0.65767 0.90188 0.36934 0.0
C88 C 0.67134 0.91547 0.35298 0.0
C89 C 0.64792 0.88982 0.33806 0.0
C90 C 0.65203 0.85966 0.11873 0.0
C91 C 0.6758 0.89979 0.05443 0.0
C92 C 0.61321 0.88435 0.99295 0.0
C93 C 0.6182 0.88545 0.94455 0.0
C94 C 0.63188 0.89898 0.92833 0.0
C95 C 0.60886 0.87296 0.91395 0.0
C96 C 0.62646 0.88773 0.85108 0.0
C97 C 0.61292 0.87407 0.86775 0.0
C98 C 0.63596 0.90012 0.88206 0.0
C99 C 0.63071 0.92951 0.10629 0.0
O100 O 0.62432 0.89493 0.18173 0.0
O101 O 0.60622 0.88483 0.12043 0.0
O102 O 0.67443 0.89036 0.20603 0.0
O103 O 0.65883 0.91805 0.20382 0.0
O104 O 0.66799 0.86751 0.13367 0.0
O105 O 0.63809 0.87175 0.12187 0.0
O106 O 0.65894 0.89362 0.03815 0.0
O107 O 0.67763 0.90432 0.0977 0.0
O108 O 0.6103 0.90096 1.01374 0.0
O109 O 0.62318 0.87188 1.01723 0.0
O110 O 0.61496 0.92181 0.08983 0.0
O111 O 0.64501 0.91807 0.1005 0.0
H112 H 0.64412 0.88188 0.26836 0.0
H113 H 0.6859 0.92742 0.29517 0.0
H114 H 0.67931 0.92481 0.37598 0.0
H115 H 0.63713 0.87936 0.34932 0.0
H116 H 0.6393 0.90875 0.9514 0.0
H117 H 0.59822 0.86245 0.92576 0.0
H118 H 0.60512 0.86447 0.84499 0.0
H119 H 0.64666 0.91063 0.8706 0.0
Gd120 Gd 0.89401 0.38157 0.96579 0.0
Gd121 Gd 0.89644 0.35524 0.88627 0.0
C122 C 0.9006 0.33468 0.98219 0.0
C123 C 0.88647 0.39786 0.04297 0.0
C124 C 0.8877 0.39308 0.09156 0.0
C125 C 0.89406 0.40742 0.12196 0.0
C126 C 0.88262 0.37455 0.10818 0.0
C127 C 0.89024 0.38491 0.18511 0.0
C128 C 0.88389 0.37051 0.15445 0.0
C129 C 0.89531 0.40342 0.16815 0.0
C130 C 0.92972 0.37969 0.92689 0.0
C131 C 0.8888 0.40252 0.87192 0.0
C132 C 0.90484 0.33952 0.8089 0.0
C133 C 0.90301 0.34424 0.76038 0.0
C134 C 0.89775 0.32945 0.72998 0.0
C135 C 0.90657 0.36314 0.7438 0.0
C136 C 0.89986 0.35219 0.66687 0.0
C137 C 0.90506 0.36705 0.69751 0.0
C138 C 0.89616 0.33336 0.6838 0.0
C139 C 0.85987 0.35834 0.92072 0.0
O140 O 0.89483 0.35171 0.99848 0.0
O141 O 0.90445 0.33253 0.93869 0.0
O142 O 0.90305 0.39996 0.02174 0.0
O143 O 0.8734 0.38856 0.01895 0.0
O144 O 0.92199 0.39559 0.94266 0.0
O145 O 0.9186 0.36532 0.93411 0.0
O146 O 0.89456 0.38564 0.85419 0.0
O147 O 0.88505 0.40412 0.91541 0.0
O148 O 0.88861 0.33611 0.8306 0.0
O149 O 0.91725 0.34981 0.83258 0.0
O150 O 0.86768 0.34221 0.90634 0.0
O151 O 0.87181 0.37225 0.9158 0.0
H152 H 0.89799 0.42184 0.10996 0.0
H153 H 0.87766 0.36321 0.08546 0.0
H154 H 0.88008 0.35603 0.16613 0.0
H155 H 0.89997 0.41497 0.19067 0.0
H156 H 0.89497 0.31477 0.74197 0.0
H157 H 0.91056 0.37486 0.76654 0.0
H158 H 0.90778 0.38177 0.68577 0.0
H159 H 0.89238 0.32151 0.66123 0.0
Gd160 Gd 0.35592 0.39614 0.13528 0.0
Gd161 Gd 0.3821 0.39256 0.21483 0.0
C162 C 0.40304 0.38784 0.12087 0.0
C163 C 0.34034 0.40538 0.05832 0.0
C164 C 0.34485 0.40379 1.00959 0.0
C165 C 0.3302 0.39769 0.97971 0.0
C166 C 0.36337 0.40846 0.99227 0.0
C167 C 0.3523 0.40123 0.91566 0.0
C168 C 0.36705 0.40718 0.94582 0.0
C169 C 0.33386 0.39641 0.93335 0.0
C170 C 0.35853 0.35917 0.16751 0.0
C171 C 0.33534 0.39972 0.2314 0.0
C172 C 0.39824 0.38439 0.29176 0.0
C173 C 0.39364 0.38588 0.34047 0.0
C174 C 0.40801 0.39265 0.37033 0.0
C175 C 0.37532 0.38051 0.35777 0.0
C176 C 0.38597 0.38847 0.43429 0.0
C177 C 0.3715 0.38184 0.40415 0.0
C178 C 0.40424 0.39393 0.41665 0.0
C179 C 0.38047 0.4287 0.17774 0.0
O180 O 0.38649 0.39476 0.10372 0.0
O181 O 0.4042 0.38299 0.16385 0.0
O182 O 0.3366 0.38908 0.07945 0.0
O183 O 0.3509 0.41741 0.08238 0.0
O184 O 0.34255 0.36727 0.15326 0.0
O185 O 0.37257 0.371 0.16362 0.0
O186 O 0.3522 0.39333 0.24735 0.0
O187 O 0.33338 0.40419 0.18818 0.0
O188 O 0.40109 0.40082 0.27038 0.0
O189 O 0.38832 0.37171 0.26792 0.0
O190 O 0.39635 0.42067 0.19278 0.0
O191 O 0.36608 0.4176 0.18468 0.0
H192 H 0.31583 0.39395 0.99226 0.0
H193 H 0.37495 0.41326 1.01452 0.0
H194 H 0.38137 0.41121 0.93349 0.0
H195 H 0.32223 0.39145 0.91142 0.0
H196 H 0.42223 0.39693 0.35779 0.0
H197 H 0.36398 0.37515 0.33555 0.0
H198 H 0.35734 0.37732 0.41648 0.0
H199 H 0.41563 0.39939 0.4386 0.0
Gd200 Gd 0.39309 0.62864 0.82442 0.0
Gd201 Gd 0.39661 0.65478 0.90448 0.0
C202 C 0.39951 0.67551 0.80831 0.0
C203 C 0.38433 0.61278 0.74748 0.0
C204 C 0.38536 0.61768 0.69899 0.0
C205 C 0.39943 0.63067 0.68216 0.0
C206 C 0.37228 0.60887 0.66887 0.0
C207 C 0.38767 0.62542 0.60523 0.0
C208 C 0.3734 0.61269 0.62256 0.0
C209 C 0.40057 0.63451 0.63577 0.0
C210 C 0.42937 0.63058 0.86052 0.0
C211 C 0.38901 0.60746 0.91834 0.0
C212 C 0.40664 0.6701 0.98126 0.0
C213 C 0.40499 0.66562 0.02982 0.0
C214 C 0.39079 0.65269 0.04625 0.0
C215 C 0.41777 0.6746 0.06034 0.0
C216 C 0.40185 0.65832 0.12362 0.0
C217 C 0.41625 0.671 0.10666 0.0
C218 C 0.38922 0.64908 0.09269 0.0
C219 C 0.35949 0.65163 0.87334 0.0
O220 O 0.39341 0.65857 0.7923 0.0
O221 O 0.40401 0.67751 0.85154 0.0
O222 O 0.40094 0.60997 0.76824 0.0
O223 O 0.37179 0.6227 0.77178 0.0
O224 O 0.42163 0.61471 0.8448 0.0
O225 O 0.41796 0.64488 0.8545 0.0
O226 O 0.39496 0.62426 0.93608 0.0
O227 O 0.38475 0.60603 0.87506 0.0
O228 O 0.39046 0.67444 0.96009 0.0
O229 O 0.41813 0.65877 0.95757 0.0
O230 O 0.36727 0.66768 0.88814 0.0
O231 O 0.3717 0.63781 0.87653 0.0
H232 H 0.40968 0.63766 0.70481 0.0
H233 H 0.36125 0.59889 0.68116 0.0
H234 H 0.36297 0.60571 0.60035 0.0
H235 H 0.41185 0.64427 0.62378 0.0
H236 H 0.3808 0.64553 0.02324 0.0
H237 H 0.42893 0.68451 0.04832 0.0
H238 H 0.42648 0.67808 0.12917 0.0
H239 H 0.37786 0.63935 0.10439 0.0
Gd240 Gd 0.65511 0.61402 0.13593 0.0
Gd241 Gd 0.62909 0.617 0.21578 0.0
C242 C 0.60785 0.62175 0.12198 0.0
C243 C 0.6706 0.60521 0.0586 0.0
C244 C 0.666 0.60731 1.01009 0.0
C245 C 0.68097 0.61218 0.9799 0.0
C246 C 0.64703 0.60434 0.9933 0.0
C247 C 0.65825 0.61079 0.91657 0.0
C248 C 0.64321 0.60602 0.94701 0.0
C249 C 0.67716 0.61392 0.9337 0.0
C250 C 0.65219 0.65086 0.16894 0.0
C251 C 0.67592 0.61008 0.23178 0.0
C252 C 0.61309 0.62525 0.29283 0.0
C253 C 0.61783 0.6239 0.34142 0.0
C254 C 0.60334 0.6179 0.37174 0.0
C255 C 0.63647 0.62852 0.3581 0.0
C256 C 0.62594 0.62117 0.43494 0.0
C257 C 0.64049 0.62715 0.40437 0.0
C258 C 0.60731 0.61656 0.41793 0.0
C259 C 0.63085 0.58094 0.17817 0.0
O260 O 0.62465 0.61588 0.10413 0.0
O261 O 0.60641 0.62571 0.16541 0.0
O262 O 0.6746 0.62126 0.08059 0.0
O263 O 0.65982 0.59316 0.08197 0.0
O264 O 0.66823 0.64289 0.15467 0.0
O265 O 0.63824 0.6389 0.16496 0.0
O266 O 0.659 0.61608 0.2482 0.0
O267 O 0.67787 0.606 0.18833 0.0
O268 O 0.61036 0.60873 0.27165 0.0
O269 O 0.62287 0.63794 0.26881 0.0
O270 O 0.61507 0.58869 0.1945 0.0
O271 O 0.6452 0.59218 0.18462 0.0
H272 H 0.69571 0.61449 0.99206 0.0
H273 H 0.63517 0.60066 1.01588 0.0
H274 H 0.62844 0.60374 0.93511 0.0
H275 H 0.68914 0.61737 0.91127 0.0
H276 H 0.58884 0.61434 0.35968 0.0
H277 H 0.64794 0.6332 0.33544 0.0
H278 H 0.65506 0.6306 0.4161 0.0
H279 H 0.59565 0.6122 0.4404 0.0
Gd280 Gd 0.61796 0.38063 0.82408 0.0
Gd281 Gd 0.61358 0.3549 0.9043 0.0
C282 C 0.61083 0.33389 0.80831 0.0
C283 C 0.62737 0.39625 0.74736 0.0
C284 C 0.62576 0.39168 0.6988 0.0
C285 C 0.6125 0.37768 0.68275 0.0
C286 C 0.63756 0.40167 0.66794 0.0
C287 C 0.62264 0.38407 0.60512 0.0
C288 C 0.63603 0.39793 0.62164 0.0
C289 C 0.61098 0.37388 0.63637 0.0
C290 C 0.5813 0.37916 0.85849 0.0
C291 C 0.62188 0.40204 0.9178 0.0
C292 C 0.60339 0.33971 0.98105 0.0
C293 C 0.60517 0.34409 0.02963 0.0
C294 C 0.61785 0.35862 0.0456 0.0
C295 C 0.59403 0.33342 0.0606 0.0
C296 C 0.60851 0.35139 0.12341 0.0
C297 C 0.59565 0.33702 0.10692 0.0
C298 C 0.61951 0.36224 0.09204 0.0
C299 C 0.65092 0.35738 0.87407 0.0
O300 O 0.61753 0.35058 0.79239 0.0
O301 O 0.60579 0.33224 0.8513 0.0
O302 O 0.61108 0.40004 0.76862 0.0
O303 O 0.63927 0.38531 0.77093 0.0
O304 O 0.58928 0.39485 0.84253 0.0
O305 O 0.59268 0.36478 0.85343 0.0
O306 O 0.61478 0.38564 0.93512 0.0
O307 O 0.6271 0.40291 0.87502 0.0
O308 O 0.61948 0.33515 0.95981 0.0
O309 O 0.59213 0.35132 0.95758 0.0
O310 O 0.64277 0.3415 0.88853 0.0
O311 O 0.63893 0.3714 0.87699 0.0
H312 H 0.60321 0.36983 0.70604 0.0
H313 H 0.64795 0.41246 0.67965 0.0
H314 H 0.64549 0.40582 0.5988 0.0
H315 H 0.60039 0.36324 0.62495 0.0
H316 H 0.62657 0.36705 0.0222 0.0
H317 H 0.58405 0.32224 0.04892 0.0
H318 H 0.58666 0.32863 0.1298 0.0
H319 H 0.62968 0.37329 0.10338 0.0
Gd320 Gd 0.85655 0.61321 0.65175 0.0
Gd321 Gd 0.88258 0.6166 0.57189 0.0
C322 C 0.90389 0.62071 0.66562 0.0
C323 C 0.84117 0.60339 0.72852 0.0
C324 C 0.84575 0.60484 0.7771 0.0
C325 C 0.85901 0.61871 0.79372 0.0
C326 C 0.83646 0.59224 0.80744 0.0
C327 C 0.85311 0.6077 0.87095 0.0
C328 C 0.84009 0.59362 0.85379 0.0
C329 C 0.86265 0.62013 0.84018 0.0
C330 C 0.8593 0.65023 0.62018 0.0
C331 C 0.83573 0.61024 0.5557 0.0
C332 C 0.8985 0.62503 0.49489 0.0
C333 C 0.89351 0.62424 0.44641 0.0
C334 C 0.88023 0.61047 0.42935 0.0
C335 C 0.90253 0.63723 0.41651 0.0
C336 C 0.88563 0.62233 0.35263 0.0
C337 C 0.89865 0.63631 0.3702 0.0
C338 C 0.87632 0.60953 0.38295 0.0
C339 C 0.88068 0.58039 0.6085 0.0
O340 O 0.88709 0.61484 0.68338 0.0
O341 O 0.9053 0.62492 0.62235 0.0
O342 O 0.83718 0.61971 0.70762 0.0
O343 O 0.85219 0.59169 0.7046 0.0
O344 O 0.84333 0.64226 0.63469 0.0
O345 O 0.87332 0.63823 0.62353 0.0
O346 O 0.85264 0.61639 0.53973 0.0
O347 O 0.83379 0.60569 0.59888 0.0
O348 O 0.90085 0.6083 0.5154 0.0
O349 O 0.88902 0.63781 0.51944 0.0
O350 O 0.89657 0.58817 0.59312 0.0
O351 O 0.8664 0.59175 0.60195 0.0
H352 H 0.86639 0.62856 0.77083 0.0
H353 H 0.82628 0.58134 0.79528 0.0
H354 H 0.83276 0.58354 0.87618 0.0
H355 H 0.87264 0.63125 0.85203 0.0
H356 H 0.87307 0.60028 0.45182 0.0
H357 H 0.91275 0.64803 0.42898 0.0
H358 H 0.90583 0.64666 0.34816 0.0
H359 H 0.86635 0.59847 0.37076 0.0
Gd360 Gd 0.61669 0.12827 0.46499 0.0
Gd361 Gd 0.61337 0.15447 0.38538 0.0
C362 C 0.60951 0.17506 0.48161 0.0
C363 C 0.62512 0.11243 0.54203 0.0
C364 C 0.62327 0.11718 0.59058 0.0
C365 C 0.61727 0.10261 0.62071 0.0
C366 C 0.6275 0.13591 0.60744 0.0
C367 C 0.61988 0.12527 0.68406 0.0
C368 C 0.62583 0.1399 0.65368 0.0
C369 C 0.61559 0.10658 0.66688 0.0
C370 C 0.58055 0.12995 0.428 0.0
C371 C 0.62144 0.10729 0.37101 0.0
C372 C 0.60454 0.17016 0.30828 0.0
C373 C 0.6061 0.16551 0.25962 0.0
C374 C 0.61221 0.18008 0.22961 0.0
C375 C 0.60142 0.14694 0.24252 0.0
C376 C 0.6089 0.15771 0.16591 0.0
C377 C 0.6028 0.14308 0.19616 0.0
C378 C 0.61361 0.17625 0.18334 0.0
C379 C 0.65025 0.15166 0.41835 0.0
O380 O 0.61551 0.1581 0.49772 0.0
O381 O 0.60549 0.17718 0.43817 0.0
O382 O 0.60889 0.109 0.52026 0.0
O383 O 0.63756 0.12271 0.51842 0.0
O384 O 0.5884 0.11416 0.44397 0.0
O385 O 0.59177 0.14433 0.43431 0.0
O386 O 0.61462 0.12387 0.3538 0.0
O387 O 0.62621 0.10612 0.41404 0.0
O388 O 0.62088 0.17358 0.32954 0.0
O389 O 0.59229 0.15986 0.33224 0.0
O390 O 0.64221 0.16771 0.40432 0.0
O391 O 0.63835 0.13769 0.41392 0.0
H392 H 0.61399 0.08805 0.60853 0.0
H393 H 0.63214 0.14745 0.58496 0.0
H394 H 0.62903 0.15452 0.66555 0.0
H395 H 0.61124 0.09488 0.68922 0.0
H396 H 0.6158 0.19454 0.24197 0.0
H397 H 0.59667 0.13541 0.26492 0.0
H398 H 0.59927 0.12858 0.18409 0.0
H399 H 0.61807 0.18796 0.16112 0.0
Gd400 Gd 0.15565 0.39719 0.65283 0.0
Gd401 Gd 0.12936 0.39485 0.57316 0.0
C402 C 0.10836 0.38979 0.66707 0.0
C403 C 0.17139 0.40576 0.73002 0.0
C404 C 0.16695 0.4039 0.77867 0.0
C405 C 0.18199 0.3989 0.8086 0.0
C406 C 0.14812 0.40732 0.79586 0.0
C407 C 0.15966 0.40118 0.87258 0.0
C408 C 0.14452 0.40598 0.84232 0.0
C409 C 0.17842 0.39752 0.85495 0.0
C410 C 0.15246 0.36054 0.61899 0.0
C411 C 0.17622 0.40104 0.55671 0.0
C412 C 0.11305 0.38723 0.49614 0.0
C413 C 0.11764 0.38847 0.44746 0.0
C414 C 0.10305 0.39452 0.41735 0.0
C415 C 0.13619 0.3836 0.43045 0.0
C416 C 0.12529 0.3906 0.35365 0.0
C417 C 0.13999 0.3847 0.38404 0.0
C418 C 0.1068 0.39558 0.37103 0.0
C419 C 0.13158 0.4307 0.61177 0.0
O420 O 0.12523 0.39543 0.68492 0.0
O421 O 0.10681 0.38609 0.62355 0.0
O422 O 0.17505 0.38957 0.70818 0.0
O423 O 0.16076 0.418 0.70666 0.0
O424 O 0.16857 0.36825 0.63347 0.0
O425 O 0.13858 0.37264 0.62333 0.0
O426 O 0.15919 0.39538 0.54045 0.0
O427 O 0.17837 0.40493 0.60021 0.0
O428 O 0.11079 0.4038 0.51746 0.0
O429 O 0.12258 0.37422 0.51993 0.0
O430 O 0.11564 0.42322 0.59576 0.0
O431 O 0.14578 0.41928 0.60465 0.0
H432 H 0.19661 0.39611 0.79609 0.0
H433 H 0.13622 0.4112 0.7735 0.0
H434 H 0.12994 0.40909 0.85457 0.0
H435 H 0.19037 0.39343 0.87694 0.0
H436 H 0.08866 0.39841 0.42971 0.0
H437 H 0.1477 0.37882 0.45293 0.0
H438 H 0.15433 0.38058 0.37191 0.0
H439 H 0.09523 0.40049 0.34886 0.0
Gd440 Gd 0.39386 0.88146 0.46638 0.0
Gd441 Gd 0.39636 0.85504 0.38672 0.0
C442 C 0.40038 0.83457 0.48287 0.0
C443 C 0.38624 0.89786 0.54339 0.0
C444 C 0.38733 0.8932 0.59207 0.0
C445 C 0.39345 0.90768 0.6224 0.0
C446 C 0.38232 0.87468 0.60884 0.0
C447 C 0.38934 0.88537 0.68583 0.0
C448 C 0.38336 0.87079 0.65522 0.0
C449 C 0.39444 0.90384 0.6687 0.0
C450 C 0.42958 0.8795 0.4275 0.0
C451 C 0.38878 0.90233 0.37233 0.0
C452 C 0.40498 0.83924 0.30955 0.0
C453 C 0.40336 0.84381 0.26092 0.0
C454 C 0.39842 0.82888 0.23062 0.0
C455 C 0.40688 0.86267 0.24412 0.0
C456 C 0.4009 0.85139 0.16707 0.0
C457 C 0.40566 0.86642 0.1977 0.0
C458 C 0.39717 0.8326 0.1843 0.0
C459 C 0.35974 0.85831 0.42083 0.0
O460 O 0.39461 0.85161 0.4991 0.0
O461 O 0.40426 0.83238 0.43939 0.0
O462 O 0.40288 0.89986 0.52234 0.0
O463 O 0.37319 0.88856 0.51932 0.0
O464 O 0.4219 0.89542 0.44334 0.0
O465 O 0.41841 0.86517 0.43472 0.0
O466 O 0.39456 0.88545 0.35462 0.0
O467 O 0.38498 0.90394 0.4158 0.0
O468 O 0.38867 0.83588 0.33098 0.0
O469 O 0.41731 0.84957 0.33334 0.0
O470 O 0.36748 0.84215 0.40641 0.0
O471 O 0.37178 0.87214 0.4161 0.0
H472 H 0.39746 0.92204 0.61024 0.0
H473 H 0.37747 0.86326 0.58618 0.0
H474 H 0.37914 0.85647 0.66715 0.0
H475 H 0.39941 0.91532 0.69104 0.0
H476 H 0.39555 0.81425 0.24281 0.0
H477 H 0.41071 0.87448 0.26677 0.0
H478 H 0.40882 0.88102 0.18577 0.0
H479 H 0.39311 0.82074 0.16203 0.0
Gd480 Gd 0.856 0.89682 0.63344 0.0
Gd481 Gd 0.88201 0.89259 0.71361 0.0
C482 C 0.9032 0.88875 0.61964 0.0
C483 C 0.84086 0.90705 0.55664 0.0
C484 C 0.84547 0.90547 0.50809 0.0
C485 C 0.85717 0.89026 0.4911 0.0
C486 C 0.83783 0.91934 0.47812 0.0
C487 C 0.85286 0.90248 0.41426 0.0
C488 C 0.84149 0.91789 0.43179 0.0
C489 C 0.86079 0.88876 0.44466 0.0
C490 C 0.8588 0.85956 0.66374 0.0
C491 C 0.8352 0.89975 0.72967 0.0
C492 C 0.89756 0.88311 0.79037 0.0
C493 C 0.89278 0.88464 0.83887 0.0
C494 C 0.88082 0.89968 0.85563 0.0
C495 C 0.90052 0.8709 0.869 0.0
C496 C 0.88496 0.88751 0.93254 0.0
C497 C 0.89666 0.87228 0.91526 0.0
C498 C 0.87696 0.90112 0.90198 0.0
C499 C 0.88023 0.92916 0.67876 0.0
O500 O 0.88666 0.89565 0.60245 0.0
O501 O 0.9043 0.88362 0.66246 0.0
O502 O 0.83646 0.89086 0.57759 0.0
O503 O 0.85208 0.91846 0.5806 0.0
O504 O 0.84286 0.86757 0.64898 0.0
O505 O 0.87274 0.87157 0.66093 0.0
O506 O 0.85207 0.89342 0.74567 0.0
O507 O 0.83326 0.90435 0.68648 0.0
O508 O 0.90134 0.89943 0.76924 0.0
O509 O 0.88686 0.87115 0.76645 0.0
O510 O 0.896 0.92128 0.69478 0.0
O511 O 0.86595 0.91776 0.68421 0.0
H512 H 0.86332 0.87944 0.51367 0.0
H513 H 0.82892 0.93128 0.49058 0.0
H514 H 0.83547 0.92897 0.40973 0.0
H515 H 0.86948 0.87661 0.43252 0.0
H516 H 0.87462 0.91043 0.83295 0.0
H517 H 0.90967 0.85909 0.85675 0.0
H518 H 0.90276 0.8613 0.93745 0.0
H519 H 0.86804 0.91314 0.91392 0.0
Gd520 Gd 0.89261 0.12867 0.32338 0.0
Gd521 Gd 0.89588 0.15473 0.40334 0.0
C522 C 0.8994 0.17549 0.3074 0.0
C523 C 0.88425 0.11263 0.24645 0.0
C524 C 0.8859 0.11715 0.19777 0.0
C525 C 0.89287 0.10274 0.16818 0.0
C526 C 0.88045 0.13544 0.18022 0.0
C527 C 0.8887 0.12464 0.10399 0.0
C528 C 0.88187 0.13915 0.13385 0.0
C529 C 0.89427 0.10642 0.12188 0.0
C530 C 0.92882 0.13046 0.36003 0.0
C531 C 0.88818 0.10755 0.4172 0.0
C532 C 0.90471 0.1704 0.48048 0.0
C533 C 0.90308 0.16584 0.52912 0.0
C534 C 0.89655 0.18038 0.55892 0.0
C535 C 0.90816 0.14741 0.54645 0.0
C536 C 0.90046 0.15833 0.62292 0.0
C537 C 0.90685 0.14369 0.59285 0.0
C538 C 0.89523 0.17669 0.60522 0.0
C539 C 0.859 0.15188 0.37055 0.0
O540 O 0.89324 0.15862 0.29112 0.0
O541 O 0.90377 0.17739 0.35072 0.0
O542 O 0.90059 0.10941 0.26802 0.0
O543 O 0.87173 0.12288 0.27011 0.0
O544 O 0.92107 0.11464 0.34403 0.0
O545 O 0.91746 0.14478 0.354 0.0
O546 O 0.89496 0.1241 0.43458 0.0
O547 O 0.88331 0.10647 0.37422 0.0
O548 O 0.88841 0.17398 0.45912 0.0
O549 O 0.91693 0.15995 0.45658 0.0
O550 O 0.86689 0.16793 0.38487 0.0
O551 O 0.87098 0.13793 0.37475 0.0
H552 H 0.89721 0.08855 0.18091 0.0
H553 H 0.87494 0.14682 0.20224 0.0
H554 H 0.87726 0.15328 0.12133 0.0
H555 H 0.8999 0.095 0.10013 0.0
H556 H 0.8925 0.19468 0.54634 0.0
H557 H 0.91329 0.13592 0.52425 0.0
H558 H 0.9112 0.12945 0.60521 0.0
H559 H 0.88993 0.18821 0.6271 0.0
Gd560 Gd 0.15455 0.11483 0.63468 0.0
Gd561 Gd 0.12857 0.11835 0.71473 0.0
C562 C 0.1074 0.12289 0.62095 0.0
C563 C 0.17011 0.10571 0.55759 0.0
C564 C 0.16555 0.10729 0.50893 0.0
C565 C 0.1802 0.1133 0.47902 0.0
C566 C 0.14699 0.10267 0.49171 0.0
C567 C 0.15801 0.10978 0.41511 0.0
C568 C 0.14326 0.10391 0.44531 0.0
C569 C 0.17649 0.11455 0.4327 0.0
C570 C 0.15185 0.15179 0.66715 0.0
C571 C 0.17536 0.11123 0.73064 0.0
C572 C 0.11254 0.12681 0.79162 0.0
C573 C 0.11706 0.12521 0.8403 0.0
C574 C 0.10252 0.11874 0.87001 0.0
C575 C 0.13547 0.13022 0.85774 0.0
C576 C 0.12457 0.12251 0.9341 0.0
C577 C 0.1392 0.12884 0.90412 0.0
C578 C 0.10621 0.1174 0.91633 0.0
C579 C 0.13026 0.08212 0.67781 0.0
O580 O 0.1239 0.11597 0.60353 0.0
O581 O 0.10638 0.12782 0.66392 0.0
O582 O 0.17378 0.12201 0.57884 0.0
O583 O 0.15959 0.09364 0.58153 0.0
O584 O 0.16783 0.14376 0.65268 0.0
O585 O 0.13785 0.13989 0.66337 0.0
O586 O 0.15853 0.11753 0.74694 0.0
O587 O 0.17722 0.10683 0.68732 0.0
O588 O 0.10938 0.11045 0.77009 0.0
O589 O 0.12276 0.13929 0.76797 0.0
O590 O 0.11446 0.08999 0.69374 0.0
O591 O 0.14458 0.09338 0.68413 0.0
H592 H 0.1946 0.117 0.49152 0.0
H593 H 0.13542 0.09793 0.51402 0.0
H594 H 0.12892 0.09993 0.43303 0.0
H595 H 0.18811 0.11944 0.4107 0.0
H596 H 0.08823 0.11475 0.85735 0.0
H597 H 0.14694 0.13535 0.83562 0.0
H598 H 0.15344 0.1331 0.91657 0.0
H599 H 0.09469 0.11217 0.93818 0.0
Gd600 Gd 0.11764 0.8831 0.32035 0.0
Gd601 Gd 0.11412 0.85699 0.39979 0.0
C602 C 0.1105 0.8364 0.30359 0.0
C603 C 0.12608 0.89899 0.2434 0.0
C604 C 0.12438 0.89434 0.19474 0.0
C605 C 0.11725 0.90861 0.16505 0.0
C606 C 0.12994 0.87604 0.17729 0.0
C607 C 0.12136 0.8865 0.10104 0.0
C608 C 0.12843 0.87216 0.13098 0.0
C609 C 0.11575 0.90476 0.11879 0.0
C610 C 0.08136 0.88153 0.35675 0.0
C611 C 0.12217 0.90412 0.4142 0.0
C612 C 0.10526 0.84141 0.47694 0.0
C613 C 0.10706 0.84602 0.52559 0.0
C614 C 0.11357 0.83148 0.55535 0.0
C615 C 0.10216 0.86451 0.54297 0.0
C616 C 0.11009 0.85369 0.61932 0.0
C617 C 0.10364 0.8683 0.58933 0.0
C618 C 0.11509 0.83526 0.60163 0.0
C619 C 0.15112 0.8596 0.36755 0.0
O620 O 0.1169 0.85323 0.28775 0.0
O621 O 0.10604 0.83444 0.34683 0.0
O622 O 0.10977 0.90235 0.26499 0.0
O623 O 0.13856 0.88875 0.26713 0.0
O624 O 0.08926 0.89731 0.34106 0.0
O625 O 0.09262 0.86713 0.35056 0.0
O626 O 0.11523 0.88761 0.43132 0.0
O627 O 0.12712 0.9052 0.37128 0.0
O628 O 0.12146 0.83762 0.45537 0.0
O629 O 0.09311 0.85198 0.45319 0.0
O630 O 0.14299 0.84359 0.38123 0.0
O631 O 0.13923 0.87364 0.37175 0.0
H632 H 0.11296 0.92285 0.17764 0.0
H633 H 0.1355 0.86474 0.19938 0.0
H634 H 0.13266 0.85786 0.11869 0.0
H635 H 0.11052 0.91626 0.09681 0.0
H636 H 0.11735 0.81709 0.54279 0.0
H637 H 0.09713 0.87603 0.5208 0.0
H638 H 0.09988 0.88273 0.60163 0.0
H639 H 0.11985 0.82358 0.62367 0.0
H640 H 0.38794 0.94061 0.39827 0.0
H641 H 0.38477 0.96956 0.35102 0.0
H642 H 0.38057 0.93301 0.2328 0.0
H643 H 0.38472 0.9039 0.28 0.0
H644 H 0.40245 0.96217 0.21378 0.0
H645 H 0.33767 0.99336 0.29782 0.0
H646 H 0.35706 0.99021 0.33766 0.0
H647 H 0.34649 0.96915 0.31043 0.0
C648 C 0.38621 0.93868 0.36224 0.0
C649 C 0.38642 0.91987 0.34305 0.0
C650 C 0.38421 0.95532 0.33516 0.0
C651 C 0.38181 0.95364 0.28822 0.0
C652 C 0.3822 0.93483 0.2689 0.0
H653 H 0.34786 0.05767 0.13046 0.0
H654 H 0.34766 0.02621 0.17033 0.0
C655 C 0.38457 0.91814 0.29595 0.0
C656 C 0.37977 0.97152 0.25934 0.0
H657 H 0.35603 0.01546 0.25135 0.0
C658 C 0.39212 0.9737 0.22183 0.0
C659 C 0.36602 0.98654 0.26876 0.0
C660 C 0.35093 0.98459 0.30555 0.0
C661 C 0.3916 0.99057 0.19469 0.0
C662 C 0.3789 0.00622 0.20622 0.0
C663 C 0.36605 1.00375 0.24273 0.0
C664 C 0.37893 0.02531 0.18141 0.0
C665 C 0.40449 0.99118 0.15343 0.0
C666 C 0.39643 0.03562 0.17484 0.0
C667 C 0.39658 0.05336 0.15136 0.0
C668 C 0.37916 0.06156 0.13485 0.0
C669 C 0.36153 0.05165 0.14256 0.0
C670 C 0.36142 0.03367 0.16544 0.0
H671 H 0.40757 0.97624 0.14055 0.0
H672 H 0.3977 0.99982 0.12588 0.0
H673 H 0.41868 0.99792 0.16245 0.0
H674 H 0.41006 0.03005 0.1882 0.0
H675 H 0.41037 0.0608 0.14666 0.0
H676 H 0.94197 0.62029 0.63866 0.0
H677 H 0.97129 0.62222 0.68516 0.0
H678 H 0.93554 0.62819 0.80421 0.0
H679 H 0.90608 0.62515 0.75781 0.0
H680 H 0.9865 0.64858 0.73426 0.0
H681 H 0.97061 0.58667 0.84808 0.0
H682 H 0.95597 0.59173 0.79898 0.0
H683 H 0.95198 0.60505 0.85067 0.0
C684 C 0.94031 0.62193 0.67479 0.0
C685 C 0.92162 0.62245 0.69448 0.0
C686 C 0.95716 0.62306 0.70147 0.0
C687 C 0.95586 0.62499 0.7486 0.0
C688 C 0.93714 0.62604 0.76824 0.0
H689 H 0.05897 0.6618 0.90549 0.0
H690 H 0.02812 0.66101 0.86352 0.0
C691 C 0.92023 0.62448 0.74159 0.0
C692 C 0.97412 0.62622 0.77652 0.0
H693 H 0.99743 0.6068 0.86829 0.0
C694 C 0.98886 0.63936 0.76347 0.0
C695 C 0.97756 0.61403 0.81438 0.0
C696 C 0.96329 0.59844 0.82858 0.0
C697 C 0.00675 0.64063 0.78682 0.0
C698 C 0.00983 0.62903 0.82579 0.0
C699 C 0.99511 0.6159 0.83885 0.0
C700 C 0.02842 0.6297 0.85254 0.0
C701 C 0.02238 0.6539 0.76828 0.0
C702 C 0.03864 0.61235 0.86233 0.0
C703 C 0.056 0.61276 0.88737 0.0
C704 C 0.06371 0.63054 0.90289 0.0
C705 C 0.05347 0.6479 0.89357 0.0
C706 C 0.03591 0.64745 0.86915 0.0
H707 H 0.02024 0.6567 0.73171 0.0
H708 H 0.0217 0.66818 0.78593 0.0
H709 H 0.03718 0.64759 0.77318 0.0
H710 H 0.03327 0.59843 0.85019 0.0
H711 H 0.06356 0.59914 0.89396 0.0
H712 H 0.59983 0.95283 0.12703 0.0
H713 H 0.59973 0.9835 0.16927 0.0
H714 H 0.66223 0.97968 0.18478 0.0
H715 H 0.66244 0.94902 0.14146 0.0
H716 H 0.61077 0.99008 0.25586 0.0
H717 H 0.65537 0.03565 0.14081 0.0
H718 H 0.6453 0.01241 0.12392 0.0
H719 H 0.66698 0.01332 0.15807 0.0
C720 C 0.6136 0.95859 0.13904 0.0
C721 C 0.63115 0.94847 0.13085 0.0
C722 C 0.61351 0.97614 0.16334 0.0
C723 C 0.63097 0.98413 0.17993 0.0
C724 C 0.64859 0.97408 0.17167 0.0
H725 H 0.63587 0.07138 0.39482 0.0
H726 H 0.63866 0.04205 0.34834 0.0
C727 C 0.64869 0.95646 0.1472 0.0
C728 C 0.63043 1.00254 0.20719 0.0
H729 H 0.64713 0.04962 0.21167 0.0
C730 C 0.61874 1.00308 0.24613 0.0
C731 C 0.64059 0.01966 0.19434 0.0
C732 C 0.65263 0.02039 0.15179 0.0
C733 C 0.61706 0.02008 0.27264 0.0
C734 C 0.62763 0.03705 0.2605 0.0
C735 C 0.63915 0.03661 0.22128 0.0
C736 C 0.62679 0.05533 0.2881 0.0
C737 C 0.60362 0.01981 0.31296 0.0
C738 C 0.61978 0.07289 0.2695 0.0
C739 C 0.61825 0.08984 0.29607 0.0
C740 C 0.6238 0.08964 0.34181 0.0
C741 C 0.63128 0.07214 0.35991 0.0
C742 C 0.63282 0.05525 0.33337 0.0
H743 H 0.59276 0.00782 0.31063 0.0
H744 H 0.61238 0.01748 0.34397 0.0
H745 H 0.59567 0.0339 0.31643 0.0
H746 H 0.61513 0.07339 0.2346 0.0
H747 H 0.6125 0.10302 0.28085 0.0
H748 H 0.95241 0.3477 0.90568 0.0
H749 H 0.98401 0.3475 0.86631 0.0
H750 H 0.9803 0.41002 0.85011 0.0
H751 H 0.94942 0.41033 0.89111 0.0
H752 H 0.99523 0.35624 0.78574 0.0
H753 H 0.03381 0.40702 0.89914 0.0
H754 H 0.01018 0.39716 0.91292 0.0
H755 H 0.01224 0.41837 0.8772 0.0
C756 C 0.95848 0.36139 0.89403 0.0
C757 C 0.94857 0.37906 0.90209 0.0
C758 C 0.97654 0.36128 0.87145 0.0
C759 C 0.98499 0.37883 0.85616 0.0
C760 C 0.97466 0.39636 0.86298 0.0
H761 H 0.07015 0.38916 0.64093 0.0
H762 H 0.04116 0.38565 0.68785 0.0
C763 C 0.95685 0.39651 0.88614 0.0
C764 C 1.0042 0.37885 0.83182 0.0
H765 H 0.04814 0.40243 0.82585 0.0
C766 C 0.00686 0.36621 0.79491 0.0
C767 C 0.01975 0.39146 0.8441 0.0
C768 C 0.01894 0.40409 0.88582 0.0
C769 C 0.02416 0.36634 0.76915 0.0
C770 C 0.03906 0.38004 0.77929 0.0
C771 C 0.0367 0.39215 0.81725 0.0
C772 C 0.05698 0.38233 0.75065 0.0
C773 C 0.02631 0.35147 0.73185 0.0
C774 C 0.07575 0.38266 0.77012 0.0
C775 C 0.09246 0.38523 0.74327 0.0
C776 C 0.09081 0.38735 0.69623 0.0
C777 C 0.07204 0.38722 0.67692 0.0
C778 C 0.05537 0.38502 0.70379 0.0
H779 H 0.01762 0.33814 0.73903 0.0
H780 H 0.02071 0.35778 0.69991 0.0
H781 H 0.04179 0.34711 0.72696 0.0
H782 H 0.07751 0.38081 0.80616 0.0
H783 H 0.10667 0.3853 0.75931 0.0
H784 H 0.41108 0.4483 0.14134 0.0
H785 H 0.41068 0.47919 0.10034 0.0
H786 H 0.34829 0.48318 0.11854 0.0
H787 H 0.34857 0.45158 0.15782 0.0
H788 H 0.35656 0.49418 0.03773 0.0
H789 H 0.40816 0.53283 0.14901 0.0
H790 H 0.41929 0.51119 0.12668 0.0
H791 H 0.39834 0.50923 0.16328 0.0
C792 C 0.39727 0.4558 0.13682 0.0
C793 C 0.37988 0.44761 0.15325 0.0
C794 C 0.39708 0.47361 0.11366 0.0
C795 C 0.37955 0.48401 0.10736 0.0
C796 C 0.36207 0.47565 0.12324 0.0
H797 H 0.38523 0.60568 1.01069 0.0
H798 H 0.38114 0.57646 0.05751 0.0
C799 C 0.36222 0.4576 0.14578 0.0
C800 C 0.37947 0.50318 0.08291 0.0
H801 H 0.40299 0.54714 0.076 0.0
C802 C 0.36659 0.50582 0.0465 0.0
C803 C 0.39217 0.51873 0.09467 0.0
C804 C 0.40509 0.51794 0.13587 0.0
C805 C 0.36651 0.52311 0.02078 0.0
C806 C 0.38027 0.53803 0.03039 0.0
C807 C 0.39266 0.53569 0.06781 0.0
C808 C 0.38229 0.55598 1.00178 0.0
C809 C 0.35137 0.52524 0.98411 0.0
C810 C 0.38461 0.55441 0.9548 0.0
C811 C 0.38656 0.57111 0.92795 0.0
C812 C 0.3868 0.58987 0.94742 0.0
C813 C 0.38505 0.59148 0.99455 0.0
C814 C 0.38272 0.57474 0.02138 0.0
H815 H 0.33812 0.51653 0.9918 0.0
H816 H 0.34694 0.54072 0.97948 0.0
H817 H 0.35746 0.51967 0.95188 0.0
H818 H 0.38515 0.54022 0.93873 0.0
H819 H 0.38822 0.56928 0.89187 0.0
H820 H 0.60607 0.62621 0.02981 0.0
H821 H 0.57686 0.63036 0.9829 0.0
H822 H 0.54058 0.62533 0.1012 0.0
H823 H 0.56963 0.62219 0.1482 0.0
H824 H 0.54795 0.60846 0.96315 0.0
H825 H 0.51616 0.67238 0.04965 0.0
H826 H 0.54045 0.66371 0.06198 0.0
H827 H 0.51951 0.65276 0.08877 0.0
C828 C 0.59186 0.62617 0.04584 0.0
C829 C 0.59024 0.6241 0.09289 0.0
C830 C 0.57512 0.62854 0.01895 0.0
C831 C 0.55634 0.6287 0.03837 0.0
C832 C 0.55477 0.62608 0.08527 0.0
H833 H 0.44948 0.59989 0.89546 0.0
H834 H 0.48026 0.60028 0.93694 0.0
C835 C 0.57148 0.6241 0.1122 0.0
C836 C 0.5384 0.63074 1.00962 0.0
H837 H 0.49422 0.65407 1.00253 0.0
C838 C 0.53633 0.61862 0.9716 0.0
C839 C 0.52325 0.64427 0.01956 0.0
C840 C 0.52506 0.65916 0.0569 0.0
C841 C 0.51944 0.61915 0.94445 0.0
C842 C 0.50367 0.63161 0.95647 0.0
C843 C 0.50603 0.64423 0.99351 0.0
C844 C 0.48456 0.63153 0.93166 0.0
C845 C 0.51897 0.60656 0.90264 0.0
C846 C 0.47594 0.64906 0.91655 0.0
C847 C 0.45794 0.6489 0.89372 0.0
C848 C 0.44826 0.63119 0.88518 0.0
C849 C 0.45673 0.61375 0.9008 0.0
C850 C 0.47449 0.61394 0.92425 0.0
H851 H 0.53394 0.60378 0.88962 0.0
H852 H 0.51244 0.5922 0.91105 0.0
H853 H 0.51022 0.61343 0.87539 0.0
H854 H 0.48321 0.66289 0.92209 0.0
H855 H 0.45171 0.66259 0.88232 0.0
H856 H 0.60006 0.55753 0.15824 0.0
H857 H 0.60003 0.52666 0.11682 0.0
H858 H 0.66247 0.53046 0.10041 0.0
H859 H 0.66261 0.56134 0.1429 0.0
H860 H 0.61088 0.51966 0.03032 0.0
H861 H 0.65604 0.47471 0.14605 0.0
H862 H 0.6459 0.49803 0.16243 0.0
H863 H 0.66747 0.49695 0.12797 0.0
C864 C 0.61384 0.55174 0.14619 0.0
C865 C 0.63135 0.5619 0.15393 0.0
C866 C 0.61379 0.53407 0.12236 0.0
C867 C 0.63125 0.52601 0.1058 0.0
C868 C 0.64883 0.53611 0.11354 0.0
H869 H 0.63631 0.43777 0.89339 0.0
H870 H 0.63905 0.46726 0.93929 0.0
C871 C 0.64889 0.55385 0.13754 0.0
C872 C 0.63073 0.50746 0.07908 0.0
H873 H 0.64762 0.46033 0.07577 0.0
C874 C 0.61893 0.5067 0.04033 0.0
C875 C 0.64101 0.4904 0.0923 0.0
C876 C 0.65318 0.48991 0.13467 0.0
C877 C 0.61726 0.48956 1.01435 0.0
C878 C 0.62793 0.47266 0.02686 0.0
C879 C 0.63956 0.4733 0.0659 0.0
C880 C 0.62713 0.45426 0.99971 0.0
C881 C 0.60372 0.48961 0.97419 0.0
C882 C 0.62009 0.43681 1.01863 0.0
C883 C 0.61857 0.41976 0.99238 0.0
C884 C 0.62417 0.41977 0.94667 0.0
C885 C 0.63169 0.43717 0.92829 0.0
C886 C 0.6332 0.45414 0.95449 0.0
H887 H 0.59283 0.50165 0.97623 0.0
H888 H 0.6124 0.49172 0.943 0.0
H889 H 0.5958 0.47553 0.97128 0.0
H890 H 0.61542 0.43647 0.05351 0.0
H891 H 0.61279 0.40666 1.00781 0.0
H892 H 0.43902 0.3736 0.14472 0.0
H893 H 0.46838 0.37108 0.09839 0.0
H894 H 0.43692 0.3945 0.98469 0.0
H895 H 0.40727 0.39686 0.03079 0.0
H896 H 0.46094 0.3627 0.9616 0.0
H897 H 0.50226 0.41732 0.06129 0.0
H898 H 0.49274 0.39759 0.09441 0.0
H899 H 0.47622 0.4142 0.06688 0.0
C900 C 0.43824 0.37821 0.10985 0.0
C901 C 0.4207 0.38559 0.09173 0.0
C902 C 0.45515 0.37684 0.0834 0.0
C903 C 0.45504 0.38292 0.03819 0.0
C904 C 0.43744 0.38981 0.01955 0.0
H905 H 0.55794 0.41018 0.87847 0.0
H906 H 0.52711 0.41038 0.92006 0.0
C907 C 0.42047 0.39119 0.04603 0.0
C908 C 0.47334 0.38226 1.01069 0.0
H909 H 0.52019 0.39943 1.00659 0.0
C910 C 0.47389 0.37076 0.97137 0.0
C911 C 0.49022 0.39294 0.02303 0.0
C912 C 0.49036 0.40637 0.06345 0.0
C913 C 0.49087 0.36944 0.94459 0.0
C914 C 0.50792 0.3797 0.95768 0.0
C915 C 0.50725 0.39139 0.99666 0.0
C916 C 0.5264 0.37914 0.93078 0.0
C917 C 0.49026 0.35741 0.90198 0.0
C918 C 0.53645 0.3615 0.9228 0.0
C919 C 0.55414 0.36135 0.89873 0.0
C920 C 0.56222 0.37885 0.88249 0.0
C921 C 0.55211 0.39643 0.8904 0.0
C922 C 0.53448 0.39658 0.91433 0.0
H923 H 0.47503 0.35469 0.89069 0.0
H924 H 0.49832 0.36473 0.87428 0.0
H925 H 0.49729 0.34305 0.90833 0.0
H926 H 0.5308 0.34787 0.93584 0.0
H927 H 0.56159 0.34757 0.89326 0.0
H928 H 0.88823 0.44082 0.89779 0.0
H929 H 0.88519 0.46977 0.85048 0.0
H930 H 0.88047 0.43319 0.73242 0.0
H931 H 0.8845 0.40408 0.77966 0.0
H932 H 0.90251 0.46207 0.71294 0.0
H933 H 0.83832 0.49409 0.7977 0.0
H934 H 0.85779 0.49081 0.83728 0.0
H935 H 0.84692 0.46981 0.81041 0.0
C936 C 0.8864 0.43889 0.86178 0.0
C937 C 0.88645 0.42007 0.84264 0.0
C938 C 0.88448 0.45553 0.83467 0.0
C939 C 0.88199 0.45385 0.78774 0.0
C940 C 0.88219 0.43502 0.76849 0.0
H941 H 0.84865 0.55804 0.6297 0.0
H942 H 0.84824 0.52664 0.66986 0.0
C943 C 0.88449 0.41834 0.79557 0.0
C944 C 0.88007 0.47173 0.75878 0.0
H945 H 0.85677 0.51591 0.75074 0.0
C946 C 0.89233 0.47372 0.72104 0.0
C947 C 0.86651 0.48691 0.76828 0.0
C948 C 0.8515 0.4852 0.80531 0.0
C949 C 0.8919 0.49054 0.69373 0.0
C950 C 0.8794 0.50635 0.70531 0.0
C951 C 0.86665 0.50408 0.74208 0.0
C952 C 0.87955 0.52539 0.68028 0.0
C953 C 0.90465 0.49093 0.65224 0.0
C954 C 0.89714 0.53548 0.67322 0.0
C955 C 0.8974 0.55318 0.64956 0.0
C956 C 0.88001 0.56156 0.63337 0.0
C957 C 0.8623 0.55187 0.64154 0.0
C958 C 0.86207 0.53393 0.6646 0.0
H959 H 0.90752 0.47592 0.63945 0.0
H960 H 0.89787 0.49959 0.62473 0.0
H961 H 0.91895 0.49751 0.66094 0.0
H962 H 0.91076 0.52978 0.68634 0.0
H963 H 0.91126 0.56045 0.64451 0.0
H964 H 0.55782 0.099 0.40489 0.0
H965 H 0.52733 0.09907 0.36198 0.0
H966 H 0.53003 0.1618 0.35121 0.0
H967 H 0.56059 0.16184 0.3949 0.0
H968 H 0.49228 0.1476 0.37301 0.0
H969 H 0.52313 0.10825 0.22576 0.0
H970 H 0.52696 0.09592 0.27844 0.0
H971 H 0.53828 0.11921 0.26868 0.0
C972 C 0.55193 0.11284 0.3935 0.0
C973 C 0.56172 0.13041 0.40304 0.0
C974 C 0.53452 0.11284 0.3687 0.0
C975 C 0.52648 0.1304 0.35263 0.0
C976 C 0.53598 0.14805 0.36298 0.0
H977 H 0.43759 0.13687 0.14274 0.0
H978 H 0.46694 0.14 0.18885 0.0
C979 C 0.55347 0.14806 0.38783 0.0
C980 C 0.50823 0.13018 0.32501 0.0
H981 H 0.48861 0.11171 0.22785 0.0
C982 C 0.49149 0.13983 0.34117 0.0
C983 C 0.5072 0.12025 0.28314 0.0
C984 C 0.52488 0.11047 0.26267 0.0
C985 C 0.47371 0.13945 0.31715 0.0
C986 C 0.4725 0.12891 0.27606 0.0
C987 C 0.48938 0.11961 0.25952 0.0
C988 C 0.45409 0.12766 0.249 0.0
C989 C 0.45647 0.15064 0.33566 0.0
C990 C 0.43692 0.11961 0.26719 0.0
C991 C 0.41997 0.11784 0.24079 0.0
C992 C 0.41984 0.12392 0.19544 0.0
C993 C 0.43705 0.13201 0.17746 0.0
C994 C 0.45393 0.13381 0.20384 0.0
H995 H 0.4611 0.16206 0.36005 0.0
H996 H 0.44803 0.1577 0.30814 0.0
H997 H 0.44665 0.14039 0.35359 0.0
H998 H 0.43672 0.11434 0.3016 0.0
H999 H 0.40708 0.11143 0.25577 0.0
H1000 H 0.14183 0.57654 0.8912 0.0
H1001 H 0.14532 0.54669 0.84667 0.0
H1002 H 0.11517 0.57405 0.73578 0.0
H1003 H 0.11177 0.60412 0.77995 0.0
H1004 H 0.11642 0.52339 0.81237 0.0
H1005 H 0.16299 0.55078 0.67336 0.0
H1006 H 0.15948 0.56417 0.72524 0.0
H1007 H 0.14111 0.5648 0.68195 0.0
C1008 C 0.13608 0.57635 0.85719 0.0
C1009 C 0.12653 0.59288 0.83928 0.0
C1010 C 0.13807 0.55919 0.83174 0.0
C1011 C 0.13073 0.55809 0.78757 0.0
C1012 C 0.12133 0.57459 0.7694 0.0
H1013 H 0.101 0.45359 0.6371 0.0
H1014 H 0.10165 0.48416 0.67983 0.0
C1015 C 0.11929 0.59179 0.79488 0.0
C1016 C 0.13212 0.53938 0.76159 0.0
H1017 H 0.1492 0.51911 0.66351 0.0
C1018 C 0.12366 0.52247 0.77992 0.0
C1019 C 0.1418 0.53802 0.71945 0.0
C1020 C 0.15204 0.55535 0.69894 0.0
C1021 C 0.12419 0.50447 0.75693 0.0
C1022 C 0.13322 0.50327 0.71405 0.0
C1023 C 0.14213 0.52003 0.69617 0.0
C1024 C 0.13308 0.48485 0.68697 0.0
C1025 C 0.11518 0.48679 0.77896 0.0
C1026 C 0.15057 0.47519 0.67566 0.0
C1027 C 0.15024 0.45762 0.65103 0.0
C1028 C 0.1324 0.44949 0.63693 0.0
C1029 C 0.11498 0.45941 0.64757 0.0
C1030 C 0.11532 0.47686 0.67224 0.0
H1031 H 0.1135 0.48883 0.81593 0.0
H1032 H 0.10047 0.48429 0.76442 0.0
H1033 H 0.12416 0.47352 0.77278 0.0
H1034 H 0.16447 0.48111 0.68643 0.0
H1035 H 0.1639 0.45038 0.64317 0.0
H1036 H 0.56941 0.88855 0.13716 0.0
H1037 H 0.54024 0.88591 0.18404 0.0
H1038 H 0.57643 0.88068 0.30256 0.0
H1039 H 0.60568 0.8844 0.25586 0.0
H1040 H 0.52575 0.85914 0.2339 0.0
H1041 H 0.54084 0.9219 0.34635 0.0
H1042 H 0.55536 0.91693 0.29699 0.0
H1043 H 0.5598 0.90385 0.34871 0.0
C1044 C 0.57119 0.88693 0.17326 0.0
C1045 C 0.58992 0.88684 0.19273 0.0
C1046 C 0.55444 0.88538 0.20014 0.0
C1047 C 0.55592 0.88346 0.24723 0.0
C1048 C 0.57469 0.8828 0.26663 0.0
H1049 H 0.45228 0.84763 0.40562 0.0
H1050 H 0.48321 0.84748 0.36368 0.0
C1051 C 0.59148 0.88477 0.2398 0.0
C1052 C 0.53778 0.88198 0.27545 0.0
H1053 H 0.5143 0.90161 0.36678 0.0
C1054 C 0.52326 0.8685 0.26289 0.0
C1055 C 0.53423 0.8943 0.31307 0.0
C1056 C 0.54828 0.91019 0.32682 0.0
C1057 C 0.50541 0.8671 0.28636 0.0
C1058 C 0.50214 0.87898 0.32487 0.0
C1059 C 0.51674 0.89233 0.33764 0.0
C1060 C 0.48338 0.87867 0.35101 0.0
C1061 C 0.48998 0.85345 0.26835 0.0
C1062 C 0.47335 0.89624 0.35954 0.0
C1063 C 0.456 0.89637 0.38451 0.0
C1064 C 0.44806 0.87892 0.40129 0.0
C1065 C 0.45797 0.86129 0.39281 0.0
C1066 C 0.47559 0.8612 0.36844 0.0
H1067 H 0.49233 0.85011 0.23207 0.0
H1068 H 0.49068 0.83945 0.2871 0.0
H1069 H 0.47513 0.85973 0.2724 0.0
H1070 H 0.47889 0.90994 0.34664 0.0
H1071 H 0.44868 0.9102 0.3903 0.0
H1072 H 0.84836 0.94915 0.64562 0.0
H1073 H 0.84841 0.97974 0.60209 0.0
H1074 H 0.91109 0.98258 0.61371 0.0
H1075 H 0.91114 0.95206 0.65643 0.0
H1076 H 0.86241 0.01755 0.62386 0.0
H1077 H 0.90223 0.98665 0.47739 0.0
H1078 H 0.89125 0.97151 0.5202 0.0
H1079 H 0.91445 0.98297 0.53029 0.0
C1080 C 0.86213 0.95631 0.63879 0.0
C1081 C 0.87976 0.94808 0.65413 0.0
C1082 C 0.86215 0.97382 0.61402 0.0
C1083 C 0.87979 0.98336 0.6039 0.0
C1084 C 0.89732 0.97536 0.62021 0.0
H1085 H 0.89816 0.10283 0.50665 0.0
H1086 H 0.89545 0.07323 0.55255 0.0
C1087 C 0.89731 0.95793 0.64492 0.0
C1088 C 0.88001 1.0016 0.57623 0.0
H1089 H 0.89857 0.02116 0.47922 0.0
C1090 C 0.87024 0.01833 0.59214 0.0
C1091 C 0.89003 1.00261 0.53451 0.0
C1092 C 0.89994 0.98494 0.51427 0.0
C1093 C 0.87057 0.03608 0.56801 0.0
C1094 C 0.88119 0.03727 0.52706 0.0
C1095 C 0.89061 0.02041 0.51078 0.0
C1096 C 0.88237 0.05565 0.49988 0.0
C1097 C 0.85926 0.05329 0.58625 0.0
C1098 C 0.87631 0.05569 0.45462 0.0
C1099 C 0.878 0.07256 0.42819 0.0
C1100 C 0.88588 0.08988 0.44621 0.0
C1101 C 0.89191 0.08986 0.49163 0.0
C1102 C 0.89024 0.07292 0.51808 0.0
H1103 H 0.84782 0.04864 0.61051 0.0
H1104 H 0.86941 0.06321 0.60427 0.0
H1105 H 0.8522 0.06164 0.55859 0.0
H1106 H 0.87026 0.0426 0.43961 0.0
H1107 H 0.8732 0.07193 0.39342 0.0
H1108 H 0.10251 0.11273 0.53165 0.0
H1109 H 0.0728 0.11545 0.48599 0.0
H1110 H 0.04245 0.14111 0.5989 0.0
H1111 H 0.07187 0.13816 0.64486 0.0
H1112 H 0.02101 0.11263 0.55983 0.0
H1113 H 0.04797 0.16308 0.42783 0.0
H1114 H 0.06265 0.14149 0.43419 0.0
H1115 H 0.0611 0.15882 0.47971 0.0
C1116 C 0.08957 0.11909 0.54671 0.0
C1117 C 0.08969 0.12524 0.59205 0.0
C1118 C 0.07258 0.12076 0.5204 0.0
C1119 C 0.05536 0.12875 0.53868 0.0
C1120 C 0.0555 0.13495 0.58385 0.0
H1121 H 0.94848 0.16241 0.39335 0.0
H1122 H 0.97906 0.1625 0.43696 0.0
C1123 C 0.07242 0.13327 0.61014 0.0
C1124 C 0.03693 0.12991 0.51169 0.0
H1125 H 0.01693 0.14847 0.41487 0.0
C1126 C 0.02015 0.12053 0.52821 0.0
C1127 C 0.0356 0.14043 0.47065 0.0
C1128 C 0.05272 0.1517 0.45218 0.0
C1129 C 1.00232 0.12106 0.50461 0.0
C1130 C 1.00118 0.13098 0.46281 0.0
C1131 C 0.01781 0.14071 0.44667 0.0
C1132 C 0.98291 0.13111 0.43524 0.0
C1133 C 0.98474 0.11119 0.52505 0.0
C1134 C 0.97504 0.11353 0.41902 0.0
C1135 C 0.95763 0.11346 0.39426 0.0
C1136 C 0.94767 0.13098 0.38492 0.0
C1137 C 0.95574 0.14866 0.40027 0.0
C1138 C 0.97324 0.14872 0.42507 0.0
H1139 H 0.98653 0.10896 0.56193 0.0
H1140 H 0.97126 0.11987 0.51915 0.0
H1141 H 0.9828 0.09664 0.50915 0.0
H1142 H 0.98238 0.09978 0.4256 0.0
H1143 H 0.95187 0.09959 0.38275 0.0
H1144 H 0.13752 0.9396 0.39087 0.0
H1145 H 0.14056 0.96891 0.43727 0.0
H1146 H 0.11485 0.93848 0.54966 0.0
H1147 H 0.11203 0.90889 0.50354 0.0
H1148 H 0.11222 0.9905 0.47653 0.0
H1149 H 0.16251 0.96279 0.60838 0.0
H1150 H 0.15819 0.94981 0.55632 0.0
H1151 H 0.14087 0.94832 0.60175 0.0
C1152 C 0.13263 0.93901 0.42557 0.0
C1153 C 0.12456 0.92175 0.44337 0.0
C1154 C 0.13437 0.95586 0.45211 0.0
C1155 C 0.12818 0.95595 0.49727 0.0
C1156 C 0.12014 0.93874 0.51527 0.0
H1157 H 0.09934 0.05943 0.65433 0.0
H1158 H 0.09945 0.029 0.61104 0.0
C1159 C 0.11842 0.92182 0.4887 0.0
C1160 C 0.1294 0.97432 0.52455 0.0
H1161 H 0.148 0.99393 0.62177 0.0
C1162 C 0.1201 0.99122 0.50821 0.0
C1163 C 0.13991 0.97546 0.56566 0.0
C1164 C 0.15111 0.95819 0.58394 0.0
C1165 C 0.1207 0.009 0.53206 0.0
C1166 C 0.1306 0.00996 0.57396 0.0
C1167 C 0.14025 0.9932 0.58991 0.0
C1168 C 0.13078 0.02817 0.60182 0.0
C1169 C 0.11093 0.02673 0.5118 0.0
C1170 C 0.14842 0.03764 0.61239 0.0
C1171 C 0.1484 0.05508 0.63747 0.0
C1172 C 0.13074 0.06331 0.65267 0.0
C1173 C 0.11319 0.05355 0.64293 0.0
C1174 C 0.11321 0.03618 0.61791 0.0
H1175 H 0.10876 0.02505 0.47486 0.0
H1176 H 0.09637 0.02875 0.52754 0.0
H1177 H 0.11964 0.04012 0.51803 0.0
H1178 H 0.16218 0.0317 0.60061 0.0
H1179 H 0.16216 0.06219 0.64469 0.0
H1180 H 0.06177 0.84974 0.39092 0.0
H1181 H 0.03106 0.8498 0.43378 0.0
H1182 H 0.02733 0.9124 0.41993 0.0
H1183 H 0.05809 0.91244 0.3781 0.0
H1184 H 0.02041 0.90099 0.50602 0.0
H1185 H 0.9753 0.8568 0.38892 0.0
H1186 H 0.99755 0.84507 0.40629 0.0
H1187 H 0.99859 0.86692 0.3728 0.0
C1188 C 0.05434 0.86349 0.39691 0.0
C1189 C 0.06238 0.88108 0.38111 0.0
C1190 C 0.03669 0.8635 0.42113 0.0
C1191 C 0.02664 0.88109 0.42969 0.0
C1192 C 0.03469 0.89862 0.41373 0.0
H1193 H 0.90744 0.89819 0.52983 0.0
H1194 H 0.93714 0.89608 0.48377 0.0
C1195 C 0.05229 0.89862 0.38967 0.0
C1196 C 0.00816 0.88149 0.4566 0.0
H1197 H 0.96119 0.86446 0.46 0.0
C1198 C 0.00748 0.89299 0.49588 0.0
C1199 C 0.99112 0.87129 0.44322 0.0
C1200 C 0.99052 0.85946 0.40029 0.0
C1201 C 0.99044 0.89442 0.52224 0.0
C1202 C 0.97357 0.88379 0.50959 0.0
C1203 C 0.97413 0.87248 0.47 0.0
C1204 C 0.95526 0.88432 0.53706 0.0
C1205 C 0.99056 0.90766 0.56298 0.0
C1206 C 0.95536 0.87805 0.58213 0.0
C1207 C 0.93844 0.87927 0.60857 0.0
C1208 C 0.92089 0.88669 0.59055 0.0
C1209 C 0.92067 0.89248 0.54498 0.0
C1210 C 0.93765 0.89125 0.51852 0.0
H1211 H 1.00245 0.91865 0.56108 0.0
H1212 H 0.97641 0.91547 0.5666 0.0
H1213 H 0.99295 0.89876 0.59373 0.0
H1214 H 0.96859 0.87225 0.59703 0.0
H1215 H 0.93921 0.87452 0.64334 0.0
H1216 H 0.39159 0.17154 0.1194 0.0
H1217 H 0.39472 0.20709 0.12934 0.0
H1218 H 0.33201 0.21275 0.12959 0.0
H1219 H 0.32879 0.17743 0.12008 0.0
H1220 H 0.38032 0.23972 0.07886 0.0
H1221 H 0.34824 0.23753 0.25031 0.0
H1222 H 0.35672 0.21587 0.22148 0.0
H1223 H 0.33323 0.22616 0.2082 0.0
C1224 C 0.37849 0.18042 0.12103 0.0
C1225 C 0.35994 0.17166 0.1194 0.0
C1226 C 0.3803 0.20071 0.12684 0.0
C1227 C 0.36359 0.21255 0.1313 0.0
C1228 C 0.3451 0.20389 0.12735 0.0
H1229 H 0.3297 0.33195 0.1685 0.0
H1230 H 0.33294 0.2965 0.16177 0.0
C1231 C 0.34329 0.18369 0.12159 0.0
C1232 C 0.36527 0.23386 0.14102 0.0
H1233 H 0.35123 0.26898 0.21659 0.0
C1234 C 0.37419 0.24612 0.1092 0.0
C1235 C 0.35734 0.24221 0.18076 0.0
C1236 C 0.34851 0.22976 0.21739 0.0
C1237 C 0.37455 0.26656 0.11506 0.0
C1238 C 0.36607 0.27495 0.15417 0.0
C1239 C 0.35768 0.2626 0.18656 0.0
C1240 C 0.36453 0.29651 0.16076 0.0
C1241 C 0.38326 0.27907 0.0784 0.0
C1242 C 0.38122 0.30838 0.1638 0.0
C1243 C 0.37939 0.32876 0.16782 0.0
C1244 C 0.36083 0.3376 0.16889 0.0
C1245 C 0.3442 0.32561 0.16758 0.0
C1246 C 0.34604 0.30532 0.16369 0.0
H1247 H 0.38546 0.27076 0.04658 0.0
H1248 H 0.37377 0.29188 0.07129 0.0
H1249 H 0.39769 0.28458 0.08969 0.0
H1250 H 0.39566 0.30192 0.1626 0.0
H1251 H 0.39248 0.33761 0.16886 0.0
H1252 H 0.33144 0.67973 0.87909 0.0
H1253 H 0.29617 0.67541 0.88625 0.0
H1254 H 0.30334 0.61302 0.8746 0.0
H1255 H 0.33885 0.61728 0.86712 0.0
H1256 H 0.27205 0.62759 0.82365 0.0
H1257 H 0.26809 0.65523 0.99888 0.0
H1258 H 0.28017 0.67188 0.96149 0.0
H1259 H 0.29085 0.64831 0.97245 0.0
C1260 C 0.32554 0.66507 0.87781 0.0
C1261 C 0.33798 0.64884 0.87285 0.0
C1262 C 0.30535 0.66261 0.88233 0.0
C1263 C 0.29709 0.64386 0.88216 0.0
C1264 C 0.30938 0.62762 0.8754 0.0
H1265 H 0.1711 0.6305 0.94988 0.0
H1266 H 0.20681 0.62525 0.95145 0.0
C1267 C 0.32966 0.63007 0.87095 0.0
C1268 C 0.2756 0.64145 0.88832 0.0
H1269 H 0.23776 0.65387 0.95822 0.0
C1270 C 0.2646 0.63308 0.85337 0.0
C1271 C 0.26581 0.64825 0.92746 0.0
C1272 C 0.27685 0.65624 0.96743 0.0
C1273 C 0.24408 0.63241 0.85533 0.0
C1274 C 0.23422 0.64051 0.89302 0.0
C1275 C 0.24526 0.64781 0.92915 0.0
C1276 C 0.21263 0.64337 0.89319 0.0
C1277 C 0.23306 0.62337 0.81653 0.0
C1278 C 0.20412 0.65558 0.86076 0.0
C1279 C 0.18398 0.65867 0.86009 0.0
C1280 C 0.17172 0.6497 0.89193 0.0
C1281 C 0.18017 0.63764 0.925 0.0
C1282 C 0.20053 0.6346 0.9258 0.0
H1283 H 0.24228 0.61271 0.79783 0.0
H1284 H 0.21967 0.61586 0.82843 0.0
H1285 H 0.22865 0.63503 0.79261 0.0
H1286 H 0.21312 0.66285 0.83589 0.0
H1287 H 0.178 0.66811 0.83423 0.0
H1288 H 0.61784 0.8386 0.11683 0.0
H1289 H 0.61427 0.80298 0.12344 0.0
H1290 H 0.67692 0.79663 0.12579 0.0
H1291 H 0.68055 0.832 0.11872 0.0
H1292 H 0.65866 0.76923 0.07084 0.0
H1293 H 0.62362 0.77199 0.23995 0.0
H1294 H 0.61175 0.78583 0.19633 0.0
H1295 H 0.63561 0.79288 0.21537 0.0
C1296 C 0.63083 0.82956 0.11827 0.0
C1297 C 0.64949 0.83812 0.11752 0.0
C1298 C 0.62878 0.80923 0.1225 0.0
C1299 C 0.64533 0.79711 0.12606 0.0
C1300 C 0.66393 0.80564 0.12346 0.0
H1301 H 0.68082 0.67826 0.16978 0.0
H1302 H 0.67745 0.71354 0.15977 0.0
C1303 C 0.66598 0.82588 0.11937 0.0
C1304 C 0.64358 0.77559 0.13282 0.0
H1305 H 0.62888 0.74079 0.20834 0.0
C1306 C 0.65204 0.76304 0.10079 0.0
C1307 C 0.63488 0.76743 0.17185 0.0
C1308 C 0.62606 0.78017 0.20811 0.0
C1309 C 0.65229 0.74267 0.10693 0.0
C1310 C 0.64419 0.73455 0.14663 0.0
C1311 C 0.63516 0.74701 0.17803 0.0
C1312 C 0.64589 0.71329 0.15683 0.0
C1313 C 0.66127 0.72999 0.07074 0.0
C1314 C 0.62923 0.70144 0.16076 0.0
C1315 C 0.63112 0.68116 0.16684 0.0
C1316 C 0.64972 0.67243 0.16926 0.0
C1317 C 0.66629 0.68449 0.16765 0.0
C1318 C 0.6644 0.70467 0.16162 0.0
H1319 H 0.66171 0.73762 0.0377 0.0
H1320 H 0.6765 0.72632 0.08038 0.0
H1321 H 0.65304 0.71614 0.06668 0.0
H1322 H 0.61479 0.70779 0.15759 0.0
H1323 H 0.61807 0.67226 0.16798 0.0
H1324 H 0.83245 0.32977 0.92447 0.0
H1325 H 0.79702 0.33321 0.91829 0.0
H1326 H 0.80291 0.39589 0.91495 0.0
H1327 H 0.83859 0.39251 0.92065 0.0
H1328 H 0.76973 0.35235 0.97219 0.0
H1329 H 0.77147 0.38447 0.80005 0.0
H1330 H 0.79255 0.37296 0.82525 0.0
H1331 H 0.78541 0.39713 0.84227 0.0
C1332 C 0.82622 0.34431 0.92279 0.0
C1333 C 0.83834 0.36086 0.92273 0.0
C1334 C 0.80593 0.34626 0.91921 0.0
C1335 C 0.79726 0.36478 0.91524 0.0
C1336 C 0.80927 0.38142 0.91698 0.0
H1337 H 0.67227 0.3914 0.8722 0.0
H1338 H 0.70777 0.39476 0.88235 0.0
C1339 C 0.82964 0.37948 0.92069 0.0
C1340 C 0.7757 0.36638 0.9088 0.0
H1341 H 0.74047 0.37977 0.83281 0.0
C1342 C 0.76335 0.35845 0.94181 0.0
C1343 C 0.76731 0.3744 0.86921 0.0
C1344 C 0.77981 0.38261 0.83191 0.0
C1345 C 0.74297 0.35809 0.93615 0.0
C1346 C 0.73461 0.36552 0.89595 0.0
C1347 C 0.74687 0.37401 0.86351 0.0
C1348 C 0.71331 0.36368 0.88635 0.0
C1349 C 0.73052 0.34974 0.97339 0.0
C1350 C 0.70471 0.34512 0.88355 0.0
C1351 C 0.68454 0.34317 0.87767 0.0
C1352 C 0.67247 0.35975 0.87421 0.0
C1353 C 0.68118 0.37835 0.87482 0.0
C1354 C 0.70144 0.38029 0.88074 0.0
H1355 H 0.73829 0.34991 1.00629 0.0
H1356 H 0.71663 0.358 0.97696 0.0
H1357 H 0.72693 0.33433 0.96526 0.0
H1358 H 0.7136 0.33207 0.8867 0.0
H1359 H 0.67833 0.32864 0.87696 0.0
H1360 H 0.8933 0.6717 0.62023 0.0
H1361 H 0.89637 0.70731 0.62948 0.0
H1362 H 0.83366 0.71292 0.6282 0.0
H1363 H 0.83051 0.67758 0.6194 0.0
H1364 H 0.88223 0.73977 0.57811 0.0
H1365 H 0.8492 0.73827 0.74857 0.0
H1366 H 0.85783 0.71649 0.72047 0.0
H1367 H 0.83438 0.7267 0.70641 0.0
C1368 C 0.88019 0.68058 0.62139 0.0
C1369 C 0.86165 0.6718 0.61953 0.0
C1370 C 0.88196 0.70091 0.6268 0.0
C1371 C 0.86523 0.71276 0.63063 0.0
C1372 C 0.84677 0.70407 0.62647 0.0
H1373 H 0.83024 0.83205 0.66323 0.0
H1374 H 0.83387 0.79661 0.6572 0.0
C1375 C 0.845 0.68385 0.62112 0.0
C1376 C 0.86682 0.73413 0.6399 0.0
H1377 H 0.85204 0.76957 0.71393 0.0
C1378 C 0.87587 0.74629 0.60806 0.0
C1379 C 0.85859 0.74265 0.67914 0.0
C1380 C 0.84962 0.73035 0.71585 0.0
C1381 C 0.87606 0.76677 0.61333 0.0
C1382 C 0.86723 0.77531 0.65186 0.0
C1383 C 0.85874 0.76308 0.68433 0.0
C1384 C 0.86546 0.79691 0.65773 0.0
C1385 C 0.88494 0.77914 0.57666 0.0
C1386 C 0.88201 0.80895 0.6613 0.0
C1387 C 0.87995 0.82932 0.66495 0.0
C1388 C 0.8613 0.838 0.66508 0.0
C1389 C 0.8448 0.82585 0.66306 0.0
C1390 C 0.84686 0.80556 0.65957 0.0
H1391 H 0.88751 0.77066 0.54524 0.0
H1392 H 0.87535 0.79178 0.56868 0.0
H1393 H 0.89918 0.78491 0.58843 0.0
H1394 H 0.89651 0.80262 0.66091 0.0
H1395 H 0.89295 0.83829 0.66655 0.0
H1396 H 0.83776 0.1178 0.37014 0.0
H1397 H 0.80207 0.11452 0.37546 0.0
H1398 H 0.79615 0.17724 0.37405 0.0
H1399 H 0.83155 0.18058 0.3683 0.0
H1400 H 0.77771 0.12874 0.44391 0.0
H1401 H 0.75634 0.16067 0.27981 0.0
H1402 H 0.78101 0.15285 0.29177 0.0
H1403 H 0.7724 0.17627 0.31118 0.0
C1404 C 0.82879 0.13086 0.37016 0.0
C1405 C 0.83747 0.14946 0.36864 0.0
C1406 C 0.80841 0.12897 0.37345 0.0
C1407 C 0.79635 0.14563 0.37467 0.0
C1408 C 0.80504 0.16416 0.37228 0.0
H1409 H 0.67757 0.18037 0.41822 0.0
H1410 H 0.7129 0.17698 0.40932 0.0
C1411 C 0.82533 0.16605 0.36916 0.0
C1412 C 0.77479 0.1439 0.3807 0.0
H1413 H 0.73123 0.15869 0.33579 0.0
C1414 C 0.76751 0.13503 0.41998 0.0
C1415 C 0.76145 0.15207 0.34947 0.0
C1416 C 0.76817 0.16082 0.30548 0.0
C1417 C 0.74737 0.13495 0.42982 0.0
C1418 C 0.73412 0.14377 0.39932 0.0
C1419 C 0.74137 0.15207 0.3594 0.0
C1420 C 0.71278 0.14539 0.40877 0.0
C1421 C 0.74049 0.12616 0.47363 0.0
C1422 C 0.70088 0.12873 0.41221 0.0
C1423 C 0.68056 0.13064 0.41746 0.0
C1424 C 0.67181 0.14925 0.41908 0.0
C1425 C 0.68384 0.16584 0.41706 0.0
C1426 C 0.70406 0.16392 0.41182 0.0
H1427 H 0.75275 0.12362 0.49747 0.0
H1428 H 0.72955 0.1358 0.49014 0.0
H1429 H 0.73342 0.11191 0.46667 0.0
H1430 H 0.70719 0.11427 0.40932 0.0
H1431 H 0.67167 0.11759 0.41861 0.0
H1432 H 0.18091 0.33282 0.61812 0.0
H1433 H 0.17728 0.29754 0.62701 0.0
H1434 H 0.11464 0.30406 0.62843 0.0
H1435 H 0.1182 0.33955 0.61916 0.0
H1436 H 0.15916 0.27958 0.70115 0.0
H1437 H 0.12326 0.25818 0.54029 0.0
H1438 H 0.13568 0.28124 0.54716 0.0
H1439 H 0.11189 0.27775 0.5712 0.0
C1440 C 0.16633 0.32674 0.61957 0.0
C1441 C 0.14984 0.339 0.61798 0.0
C1442 C 0.16428 0.30655 0.62481 0.0
C1443 C 0.1457 0.29807 0.62829 0.0
C1444 C 0.12913 0.31019 0.62521 0.0
H1445 H 0.11784 0.17328 0.66801 0.0
H1446 H 0.11461 0.209 0.66254 0.0
C1447 C 0.13118 0.33049 0.61995 0.0
C1448 C 0.14398 0.27675 0.6379 0.0
H1449 H 0.12859 0.23323 0.59376 0.0
C1450 C 0.1524 0.26947 0.67771 0.0
C1451 C 0.13497 0.26354 0.60762 0.0
C1452 C 0.12603 0.27045 0.56397 0.0
C1453 C 0.15236 0.2494 0.68771 0.0
C1454 C 0.14402 0.23608 0.65667 0.0
C1455 C 0.13501 0.2434 0.61754 0.0
C1456 C 0.14572 0.2145 0.66273 0.0
C1457 C 0.16126 0.24265 0.73158 0.0
C1458 C 0.16423 0.20568 0.66483 0.0
C1459 C 0.16609 0.18537 0.66804 0.0
C1460 C 0.14948 0.17335 0.66895 0.0
C1461 C 0.13091 0.18216 0.66769 0.0
C1462 C 0.12905 0.20256 0.66432 0.0
H1463 H 0.16123 0.25451 0.75721 0.0
H1464 H 0.15331 0.22988 0.74546 0.0
H1465 H 0.17667 0.23829 0.72563 0.0
H1466 H 0.17732 0.21448 0.66278 0.0
H1467 H 0.18061 0.17904 0.66869 0.0
H1468 H 0.33202 0.82997 0.42264 0.0
H1469 H 0.29668 0.83379 0.41521 0.0
H1470 H 0.30319 0.89642 0.41438 0.0
H1471 H 0.33877 0.89266 0.42126 0.0
H1472 H 0.26917 0.85259 0.46838 0.0
H1473 H 0.27248 0.88637 0.2981 0.0
H1474 H 0.2933 0.87455 0.32367 0.0
H1475 H 0.28613 0.89861 0.34146 0.0
C1476 C 0.32594 0.84458 0.42125 0.0
C1477 C 0.33822 0.861 0.42222 0.0
C1478 C 0.30571 0.84674 0.41694 0.0
C1479 C 0.29724 0.86538 0.41328 0.0
C1480 C 0.30939 0.88188 0.4161 0.0
H1481 H 0.17266 0.89353 0.36868 0.0
H1482 H 0.20815 0.89652 0.37976 0.0
C1483 C 0.32971 0.87972 0.42051 0.0
C1484 C 0.27574 0.86723 0.40605 0.0
H1485 H 0.24119 0.88176 0.32949 0.0
C1486 C 0.26307 0.85907 0.43811 0.0
C1487 C 0.26771 0.87574 0.36659 0.0
C1488 C 0.28055 0.8842 0.33022 0.0
C1489 C 0.24273 0.85895 0.43162 0.0
C1490 C 0.23475 0.8669 0.39155 0.0
C1491 C 0.24731 0.87562 0.36009 0.0
C1492 C 0.21351 0.86536 0.38106 0.0
C1493 C 0.22993 0.85028 0.46781 0.0
C1494 C 0.20483 0.84691 0.37638 0.0
C1495 C 0.18467 0.84518 0.36992 0.0
C1496 C 0.17269 0.86186 0.36781 0.0
C1497 C 0.18149 0.8804 0.37021 0.0
C1498 C 0.20175 0.88212 0.37667 0.0
H1499 H 0.23748 0.84988 0.50096 0.0
H1500 H 0.21614 0.85871 0.4715 0.0
H1501 H 0.22615 0.83506 0.45841 0.0
H1502 H 0.21363 0.83377 0.37861 0.0
H1503 H 0.17839 0.83069 0.36785 0.0
H1504 H 0.17421 0.11167 0.82283 0.0
H1505 H 0.20124 0.11009 0.87621 0.0
H1506 H 0.24187 0.10419 0.76606 0.0
H1507 H 0.21469 0.10599 0.71193 0.0
H1508 H 0.22944 0.08096 0.89134 0.0
H1509 H 0.26429 0.15039 0.83831 0.0
H1510 H 0.23974 0.14393 0.82198 0.0
H1511 H 0.26028 0.13298 0.79389 0.0
C1512 C 0.18886 0.11012 0.80965 0.0
C1513 C 0.19217 0.10918 0.76273 0.0
C1514 C 0.20437 0.10912 0.84046 0.0
C1515 C 0.22373 0.10731 0.82545 0.0
C1516 C 0.22713 0.10595 0.77866 0.0
H1517 H 0.3361 0.10864 0.96405 0.0
H1518 H 0.30935 0.10721 0.91004 0.0
C1519 C 0.21154 0.10683 0.74766 0.0
C1520 C 0.24016 0.10693 0.85901 0.0
H1521 H 0.28073 0.13193 0.89372 0.0
C1522 C 0.24067 0.09211 0.89183 0.0
C1523 C 0.25484 0.12147 0.85999 0.0
C1524 C 0.25478 0.13821 0.82697 0.0
C1525 C 0.25554 0.09122 0.92481 0.0
C1526 C 0.27017 0.10586 0.92605 0.0
C1527 C 0.26962 0.12067 0.89314 0.0
C1528 C 0.28645 0.10593 0.9602 0.0
C1529 C 0.25569 0.07423 0.95716 0.0
C1530 C 0.28279 0.10568 1.00702 0.0
C1531 C 0.29826 0.10636 0.03839 0.0
C1532 C 0.31777 0.10765 0.02372 0.0
C1533 C 0.32133 0.10784 0.97689 0.0
C1534 C 0.30596 0.107 0.94572 0.0
H1535 H 0.24735 0.06161 0.94366 0.0
H1536 H 0.27083 0.06935 0.96455 0.0
H1537 H 0.24872 0.07878 0.98928 0.0
H1538 H 0.26794 0.10535 0.01945 0.0
H1539 H 0.2949 0.10637 0.07407 0.0
H1540 H 0.10845 0.71794 0.95798 0.0
H1541 H 0.10752 0.7448 1.01334 0.0
H1542 H 0.10557 0.70291 0.12158 0.0
H1543 H 0.10691 0.67632 0.06731 0.0
H1544 H 0.08144 0.75582 0.07895 0.0
H1545 H 0.15103 0.7355 0.16157 0.0
H1546 H 0.14338 0.72489 0.10876 0.0
H1547 H 0.13381 0.71581 0.16126 0.0
C1548 C 0.10779 0.71447 0.99356 0.0
C1549 C 0.10802 0.69485 1.00787 0.0
C1550 C 0.10728 0.72986 0.02529 0.0
C1551 C 0.10701 0.726 0.07201 0.0
C1552 C 0.10644 0.70644 0.08605 0.0
H1553 H 0.10523 0.7969 0.3207 0.0
H1554 H 0.10337 0.77012 0.26529 0.0
C1555 C 0.10708 0.69115 0.05464 0.0
C1556 C 0.1072 0.74222 0.10629 0.0
H1557 H 0.13139 0.75898 0.19994 0.0
C1558 C 0.09246 0.75655 0.10516 0.0
C1559 C 0.1215 0.7433 0.14092 0.0
C1560 C 0.13843 0.72917 0.14303 0.0
C1561 C 0.0914 0.77154 0.13789 0.0
C1562 C 0.10562 0.77252 0.17263 0.0
C1563 C 0.12036 0.75821 0.17376 0.0
C1564 C 0.10602 0.78877 0.20672 0.0
C1565 C 0.07478 0.78601 0.13544 0.0
C1566 C 0.10827 0.8082 0.19264 0.0
C1567 C 0.10938 0.82344 0.22413 0.0
C1568 C 0.10836 0.8198 0.27089 0.0
C1569 C 0.10597 0.80033 0.28511 0.0
C1570 C 0.10497 0.78498 0.25338 0.0
H1571 H 0.0623 0.78015 0.11571 0.0
H1572 H 0.06954 0.79002 0.16967 0.0
H1573 H 0.07992 0.79949 0.11848 0.0
H1574 H 0.10952 0.81161 0.1571 0.0
H1575 H 0.11111 0.83817 0.21158 0.0
H1576 H 0.71506 0.90598 0.07271 0.0
H1577 H 0.74219 0.90758 1.01829 0.0
H1578 H 0.70168 0.89915 0.90887 0.0
H1579 H 0.67477 0.8974 0.96238 0.0
H1580 H 0.75323 0.87775 0.95191 0.0
H1581 H 0.73343 0.9478 0.86958 0.0
H1582 H 0.72416 0.94088 0.9243 0.0
H1583 H 0.7139 0.93041 0.87406 0.0
C1584 C 0.71191 0.90462 0.03706 0.0
C1585 C 0.6926 0.90162 0.02223 0.0
C1586 C 0.72746 0.9055 1.00592 0.0
C1587 C 0.72403 0.90375 0.95923 0.0
C1588 C 0.70477 0.90088 0.94448 0.0
H1589 H 0.79555 0.90369 0.71227 0.0
H1590 H 0.7687 0.90456 0.76749 0.0
C1591 C 0.68933 0.89979 0.97541 0.0
C1592 C 0.74048 0.90413 0.92579 0.0
H1593 H 0.75821 0.92896 0.83427 0.0
C1594 C 0.75441 0.88905 0.92645 0.0
C1595 C 0.74193 0.91866 0.89195 0.0
C1596 C 0.72767 0.93547 0.88992 0.0
C1597 C 0.76944 0.88788 0.89394 0.0
C1598 C 0.77109 0.90256 0.86033 0.0
C1599 C 0.75711 0.91767 0.85974 0.0
C1600 C 0.7874 0.90268 0.82627 0.0
C1601 C 0.78297 0.87045 0.8952 0.0
C1602 C 0.80697 0.9019 0.84042 0.0
C1603 C 0.82224 0.9012 0.809 0.0
C1604 C 0.81854 0.90166 0.76222 0.0
C1605 C 0.79899 0.90326 0.7479 0.0
C1606 C 0.78361 0.90374 0.77956 0.0
H1607 H 0.77606 0.85779 0.91224 0.0
H1608 H 0.7874 0.86589 0.86073 0.0
H1609 H 0.79629 0.8743 0.91456 0.0
H1610 H 0.81051 0.90179 0.876 0.0
H1611 H 0.83705 0.90028 0.82163 0.0
H1612 H 0.90222 0.33632 0.07422 0.0
H1613 H 0.90364 0.30956 0.12815 0.0
H1614 H 0.90419 0.26805 1.01867 0.0
H1615 H 0.90316 0.29501 0.96411 0.0
H1616 H 0.87867 0.28134 0.14544 0.0
H1617 H 0.94819 0.24672 0.09269 0.0
H1618 H 0.9406 0.27035 0.07218 0.0
H1619 H 0.93074 0.24839 0.04774 0.0
C1620 C 0.90273 0.32153 0.06134 0.0
C1621 C 0.90255 0.31794 1.0145 0.0
C1622 C 0.90356 0.30615 0.09247 0.0
C1623 C 0.90427 0.2866 0.07795 0.0
C1624 C 0.90415 0.28292 0.03112 0.0
H1625 H 0.89843 0.17437 0.21519 0.0
H1626 H 0.89988 0.20139 0.16187 0.0
C1627 C 0.90346 0.29839 0.99978 0.0
C1628 C 0.90437 0.27032 0.11208 0.0
H1629 H 0.92898 0.22915 0.1457 0.0
C1630 C 0.88978 0.27003 0.14555 0.0
C1631 C 0.91883 0.25543 0.11271 0.0
C1632 C 0.93559 0.25529 0.07971 0.0
C1633 C 0.88902 0.25525 0.17868 0.0
C1634 C 0.90337 0.24031 0.17906 0.0
C1635 C 0.91797 0.24057 0.14567 0.0
C1636 C 0.90303 0.22387 0.2126 0.0
C1637 C 0.87249 0.25547 0.21231 0.0
C1638 C 0.90464 0.22726 0.25937 0.0
C1639 C 0.90382 0.21166 0.29035 0.0
C1640 C 0.90133 0.1923 0.27529 0.0
C1641 C 0.90012 0.18901 0.22838 0.0
C1642 C 0.90104 0.20452 0.1976 0.0
H1643 H 0.86034 0.26514 0.20134 0.0
H1644 H 0.86667 0.24053 0.2176 0.0
H1645 H 0.87798 0.26097 0.24515 0.0
H1646 H 0.90654 0.24198 0.27198 0.0
H1647 H 0.90488 0.21481 0.32606 0.0
H1648 H 0.29595 0.40513 0.21349 0.0
H1649 H 0.26897 0.40703 0.26821 0.0
H1650 H 0.30999 0.40052 0.37739 0.0
H1651 H 0.33678 0.39885 0.32353 0.0
H1652 H 0.25759 0.37892 0.33331 0.0
H1653 H 0.27834 0.44808 0.41782 0.0
H1654 H 0.28836 0.44077 0.36404 0.0
H1655 H 0.29767 0.43035 0.41537 0.0
C1656 C 0.29924 0.4043 0.24915 0.0
C1657 C 0.31865 0.40181 0.26382 0.0
C1658 C 0.28377 0.40533 0.28048 0.0
C1659 C 0.28737 0.40419 0.32721 0.0
C1660 C 0.30674 0.40182 0.34177 0.0
H1661 H 0.21597 0.40294 0.57425 0.0
H1662 H 0.2428 0.40364 0.51904 0.0
C1663 C 0.32211 0.40068 0.31065 0.0
C1664 C 0.27097 0.4047 0.36083 0.0
H1665 H 0.25376 0.42918 0.4537 0.0
C1666 C 0.25668 0.39002 0.35937 0.0
C1667 C 0.26979 0.41901 0.39539 0.0
C1668 C 0.28425 0.43556 0.39818 0.0
C1669 C 0.24159 0.38901 0.39174 0.0
C1670 C 0.24031 0.4034 0.42619 0.0
C1671 C 0.25462 0.4181 0.4276 0.0
C1672 C 0.22403 0.40365 0.46026 0.0
C1673 C 0.22754 0.37209 0.38939 0.0
C1674 C 0.20445 0.404 0.44611 0.0
C1675 C 0.18917 0.40349 0.47751 0.0
C1676 C 0.1929 0.40289 0.52425 0.0
C1677 C 0.21249 0.40333 0.53863 0.0
C1678 C 0.22787 0.40371 0.50699 0.0
H1679 H 0.23398 0.35944 0.37114 0.0
H1680 H 0.22312 0.36721 0.42359 0.0
H1681 H 0.21425 0.37669 0.37077 0.0
H1682 H 0.20092 0.40465 0.41055 0.0
H1683 H 0.17433 0.40359 0.46493 0.0
H1684 H 0.40476 0.71502 0.82579 0.0
H1685 H 0.40571 0.74193 0.77082 0.0
H1686 H 0.39984 0.70047 0.66216 0.0
H1687 H 0.3983 0.67388 0.71629 0.0
H1688 H 0.42977 0.75122 0.70181 0.0
H1689 H 0.35659 0.73707 0.63011 0.0
H1690 H 0.36502 0.72536 0.68096 0.0
H1691 H 0.37213 0.71603 0.62653 0.0
C1692 C 0.40365 0.71166 0.79019 0.0
C1693 C 0.40123 0.69219 0.7758 0.0
C1694 C 0.40419 0.72708 0.75868 0.0
C1695 C 0.40233 0.72342 0.71205 0.0
C1696 C 0.40063 0.70393 0.69775 0.0
H1697 H 0.40328 0.7949 0.46494 0.0
H1698 H 0.40468 0.76795 0.51978 0.0
C1699 C 0.39991 0.68862 0.72904 0.0
C1700 C 0.40236 0.73978 0.67815 0.0
H1701 H 0.37688 0.75892 0.58883 0.0
C1702 C 0.41811 0.75294 0.67737 0.0
C1703 C 0.38721 0.7422 0.64587 0.0
C1704 C 0.3692 0.72954 0.64612 0.0
C1705 C 0.41931 0.76802 0.64501 0.0
C1706 C 0.40428 0.77026 0.6125 0.0
C1707 C 0.38853 0.75715 0.61328 0.0
C1708 C 0.40417 0.78661 0.57876 0.0
C1709 C 0.4369 0.78124 0.64538 0.0
C1710 C 0.4033 0.80612 0.5933 0.0
C1711 C 0.40243 0.82148 0.56211 0.0
C1712 C 0.40235 0.81786 0.51526 0.0
C1713 C 0.40341 0.79831 0.50061 0.0
C1714 C 0.40415 0.78286 0.53201 0.0
H1715 H 0.44936 0.77457 0.6638 0.0
H1716 H 0.44165 0.78475 0.61052 0.0
H1717 H 0.43303 0.79513 0.66257 0.0
H1718 H 0.40296 0.80951 0.62898 0.0
H1719 H 0.40173 0.83627 0.57494 0.0
H1720 H 0.71549 0.60707 0.2133 0.0
H1721 H 0.7426 0.60554 0.26779 0.0
H1722 H 0.70141 0.60723 0.37753 0.0
H1723 H 0.67449 0.60859 0.32384 0.0
H1724 H 0.75179 0.63337 0.33734 0.0
H1725 H 0.73647 0.5606 0.41107 0.0
H1726 H 0.72623 0.56842 0.35793 0.0
H1727 H 0.71588 0.57691 0.41012 0.0
C1728 C 0.71221 0.6069 0.24902 0.0
C1729 C 0.69271 0.608 0.26393 0.0
C1730 C 0.72774 0.6061 0.28021 0.0
C1731 C 0.72414 0.60603 0.32701 0.0
C1732 C 0.70468 0.60692 0.34181 0.0
H1733 H 0.79629 0.6048 0.57332 0.0
H1734 H 0.76928 0.60395 0.51853 0.0
C1735 C 0.68924 0.60788 0.31083 0.0
C1736 C 0.74058 0.60585 0.36054 0.0
H1737 H 0.75991 0.58012 0.44913 0.0
C1738 C 0.75365 0.62164 0.36152 0.0
C1739 C 0.74294 0.59072 0.39271 0.0
C1740 C 0.72976 0.5731 0.39285 0.0
C1741 C 0.76867 0.62289 0.39399 0.0
C1742 C 0.77122 0.60764 0.42593 0.0
C1743 C 0.7581 0.59185 0.42495 0.0
C1744 C 0.78764 0.60761 0.4597 0.0
C1745 C 0.78128 0.64095 0.39451 0.0
C1746 C 0.8071 0.60943 0.4453 0.0
C1747 C 0.82247 0.61009 0.47649 0.0
C1748 C 0.81899 0.60858 0.52325 0.0
C1749 C 0.79958 0.60605 0.53772 0.0
C1750 C 0.7841 0.60557 0.50631 0.0
H1751 H 0.77367 0.65359 0.37884 0.0
H1752 H 0.78553 0.64503 0.4294 0.0
H1753 H 0.79474 0.63812 0.37473 0.0
H1754 H 0.81048 0.61035 0.40971 0.0
H1755 H 0.83716 0.6118 0.46368 0.0
H1756 H 0.60865 0.21491 0.46483 0.0
H1757 H 0.60789 0.24157 0.52063 0.0
H1758 H 0.60417 0.19932 0.62792 0.0
H1759 H 0.60542 0.17289 0.57296 0.0
H1760 H 0.58226 0.25354 0.58362 0.0
H1761 H 0.64946 0.23032 0.67236 0.0
H1762 H 0.64214 0.2198 0.61923 0.0
H1763 H 0.63144 0.21138 0.67118 0.0
C1764 C 0.60764 0.21133 0.50031 0.0
C1765 C 0.60742 0.19167 0.51424 0.0
C1766 C 0.60724 0.2266 0.53231 0.0
C1767 C 0.60656 0.22259 0.57894 0.0
C1768 C 0.60545 0.20297 0.59254 0.0
H1769 H 0.60229 0.29498 0.82579 0.0
H1770 H 0.60031 0.26791 0.77113 0.0
C1771 C 0.60605 0.18779 0.56081 0.0
C1772 C 0.60684 0.23875 0.61343 0.0
H1773 H 0.63024 0.25467 0.70895 0.0
C1774 C 0.59284 0.25379 0.61081 0.0
C1775 C 0.6206 0.23927 0.64929 0.0
C1776 C 0.63687 0.22444 0.653 0.0
C1777 C 0.59204 0.26897 0.64309 0.0
C1778 C 0.60568 0.26936 0.67907 0.0
C1779 C 0.61963 0.25433 0.68181 0.0
C1780 C 0.60638 0.28577 0.71265 0.0
C1781 C 0.57637 0.28438 0.63877 0.0
C1782 C 0.61066 0.30482 0.69836 0.0
C1783 C 0.61193 0.32021 0.72943 0.0
C1784 C 0.60892 0.31711 0.77596 0.0
C1785 C 0.60459 0.298 0.79036 0.0
C1786 C 0.60349 0.28249 0.75908 0.0
H1787 H 0.56411 0.27937 0.61713 0.0
H1788 H 0.57048 0.28851 0.67236 0.0
H1789 H 0.58272 0.29764 0.62313 0.0
H1790 H 0.61333 0.30778 0.66302 0.0
H1791 H 0.6154 0.3346 0.71672 0.0
H1792 H 0.38442 0.12076 0.41597 0.0
H1793 H 0.39022 0.12226 0.4974 0.0
H1794 H 0.33252 0.09956 0.52171 0.0
H1795 H 0.32686 0.09733 0.44056 0.0
H1796 H 0.37014 0.14311 0.56271 0.0
H1797 H 0.36607 0.06377 0.5989 0.0
H1798 H 0.36844 0.07321 0.54238 0.0
H1799 H 0.34505 0.07316 0.56993 0.0
C1800 C 0.37306 0.1158 0.43858 0.0
C1801 C 0.35518 0.10886 0.42147 0.0
C1802 C 0.37635 0.1168 0.48519 0.0
C1803 C 0.36192 0.11076 0.51579 0.0
C1804 C 0.34403 0.10395 0.49888 0.0
H1805 H 0.35224 0.108 0.80909 0.0
H1806 H 0.3464 0.10641 0.72765 0.0
C1807 C 0.34073 0.10293 0.45234 0.0
C1808 C 0.36537 0.11207 0.56535 0.0
H1809 H 0.36661 0.08505 0.66227 0.0
C1810 C 0.36948 0.1304 0.58444 0.0
C1811 C 0.36444 0.09549 0.59381 0.0
C1812 C 0.36095 0.07526 0.57525 0.0
C1813 C 0.37234 0.13266 0.63115 0.0
C1814 C 0.3714 0.11609 0.6596 0.0
C1815 C 0.36728 0.09776 0.64053 0.0
C1816 C 0.37488 0.11741 0.70913 0.0
C1817 C 0.3759 0.15287 0.64974 0.0
C1818 C 0.39288 0.12395 0.72593 0.0
C1819 C 0.39623 0.12498 0.77246 0.0
C1820 C 0.38168 0.11937 0.80339 0.0
C1821 C 0.36368 0.1127 0.7864 0.0
C1822 C 0.36036 0.11166 0.7398 0.0
H1823 H 0.37093 0.1644 0.62599 0.0
H1824 H 0.36829 0.15497 0.68247 0.0
H1825 H 0.39178 0.15487 0.6554 0.0
H1826 H 0.40445 0.12813 0.70302 0.0
H1827 H 0.4102 0.13036 0.78417 0.0
H1828 H 0.12186 0.63467 0.61779 0.0
H1829 H 0.12598 0.6302 0.53648 0.0
H1830 H 0.09136 0.68177 0.51191 0.0
H1831 H 0.08769 0.68674 0.59316 0.0
H1832 H 0.09743 0.6246 0.47103 0.0
H1833 H 0.13964 0.69188 0.4349 0.0
H1834 H 0.13624 0.68272 0.49141 0.0
H1835 H 0.11699 0.69605 0.46386 0.0
C1836 C 0.11536 0.64526 0.5952 0.0
C1837 C 0.10452 0.66115 0.6123 0.0
C1838 C 0.11762 0.64259 0.54861 0.0
C1839 C 0.10923 0.65579 0.51794 0.0
C1840 C 0.0983 0.67159 0.53481 0.0
H1841 H 0.10675 0.66283 0.22364 0.0
H1842 H 0.10239 0.66828 0.30459 0.0
C1843 C 0.09602 0.67427 0.58139 0.0
C1844 C 0.11145 0.65267 0.46839 0.0
H1845 H 0.12894 0.67352 0.37176 0.0
C1846 C 0.10439 0.63526 0.44935 0.0
C1847 C 0.12043 0.66663 0.43997 0.0
C1848 C 0.12893 0.6853 0.45851 0.0
C1849 C 0.10581 0.63154 0.40277 0.0
C1850 C 0.11496 0.64541 0.37436 0.0
C1851 C 0.12193 0.66287 0.39339 0.0
C1852 C 0.11761 0.642 0.32497 0.0
C1853 C 0.09704 0.61296 0.38437 0.0
C1854 C 0.12786 0.62556 0.30921 0.0
C1855 C 0.13016 0.62225 0.26289 0.0
C1856 C 0.1225 0.63545 0.23098 0.0
C1857 C 0.11256 0.65213 0.24696 0.0
C1858 C 0.11018 0.65537 0.29336 0.0
H1859 H 0.0857 0.60701 0.40732 0.0
H1860 H 0.09039 0.61538 0.35068 0.0
H1861 H 0.10869 0.60176 0.38093 0.0
H1862 H 0.13414 0.61524 0.33278 0.0
H1863 H 0.13774 0.60914 0.25216 0.0
H1864 H 0.65427 0.93144 0.43154 0.0
H1865 H 0.64938 0.92867 0.513 0.0
H1866 H 0.64686 0.86597 0.50083 0.0
H1867 H 0.6523 0.86857 0.41946 0.0
H1868 H 0.61851 0.91211 0.56111 0.0
H1869 H 0.68816 0.87386 0.599 0.0
H1870 H 0.68367 0.88587 0.54584 0.0
H1871 H 0.67345 0.86218 0.55674 0.0
C1872 C 0.65288 0.91703 0.44618 0.0
C1873 C 0.65385 0.90022 0.41882 0.0
C1874 C 0.64995 0.91548 0.49278 0.0
C1875 C 0.64807 0.8971 0.51324 0.0
C1876 C 0.64864 0.8803 0.48599 0.0
H1877 H 0.63008 0.85794 0.7894 0.0
H1878 H 0.63494 0.86048 0.70787 0.0
C1879 C 0.65153 0.88183 0.43933 0.0
C1880 C 0.64527 0.89558 0.56295 0.0
H1881 H 0.66556 0.87692 0.65916 0.0
C1882 C 0.62884 0.90448 0.58258 0.0
C1883 C 0.65874 0.88561 0.591 0.0
C1884 C 0.6771 0.87647 0.57226 0.0
C1885 C 0.62532 0.9034 0.62926 0.0
C1886 C 0.6388 0.89346 0.65733 0.0
C1887 C 0.65523 0.88454 0.63769 0.0
C1888 C 0.63606 0.89206 0.70708 0.0
C1889 C 0.60695 0.91253 0.64797 0.0
C1890 C 0.6354 0.90894 0.73404 0.0
C1891 C 0.63252 0.90754 0.78071 0.0
C1892 C 0.63031 0.88921 0.80157 0.0
C1893 C 0.63139 0.87231 0.77451 0.0
C1894 C 0.6343 0.87373 0.72786 0.0
H1895 H 0.59584 0.91499 0.62124 0.0
H1896 H 0.60045 0.90321 0.67463 0.0
H1897 H 0.61055 0.92691 0.66313 0.0
H1898 H 0.6371 0.92323 0.71897 0.0
H1899 H 0.63165 0.92088 0.80032 0.0
H1900 H 0.91844 0.3967 0.24511 0.0
H1901 H 0.91982 0.39088 0.3264 0.0
H1902 H 0.86627 0.35807 0.31884 0.0
H1903 H 0.86467 0.36395 0.23755 0.0
H1904 H 0.89273 0.40152 0.39239 0.0
H1905 H 0.90242 0.32102 0.38779 0.0
H1906 H 0.90591 0.3362 0.33872 0.0
H1907 H 0.88169 0.32981 0.35669 0.0
C1908 C 0.90689 0.3883 0.26067 0.0
C1909 C 0.89144 0.38079 0.23456 0.0
C1910 C 0.90776 0.38491 0.30719 0.0
C1911 C 0.8933 0.37383 0.32874 0.0
C1912 C 0.87785 0.3663 0.30288 0.0
H1913 H 0.87227 0.33904 0.60699 0.0
H1914 H 0.87058 0.34482 0.52567 0.0
C1915 C 0.87696 0.36968 0.25631 0.0
C1916 C 0.8941 0.37068 0.37843 0.0
H1917 H 0.89676 0.33531 0.45949 0.0
C1918 C 0.89369 0.38705 0.40707 0.0
C1919 C 0.89529 0.35179 0.39763 0.0
C1920 C 0.89653 0.33368 0.3687 0.0
C1921 C 0.89411 0.38504 0.45428 0.0
C1922 C 0.89539 0.36615 0.47351 0.0
C1923 C 0.89577 0.34978 0.44484 0.0
C1924 C 0.89635 0.36301 0.52323 0.0
C1925 C 0.8927 0.40317 0.4831 0.0
C1926 C 0.91149 0.37116 0.54909 0.0
C1927 C 0.91249 0.36789 0.59568 0.0
C1928 C 0.89849 0.35618 0.61744 0.0
C1929 C 0.88341 0.34796 0.59136 0.0
C1930 C 0.88238 0.35131 0.54483 0.0
H1931 H 0.88629 0.41563 0.46414 0.0
H1932 H 0.88369 0.40053 0.5136 0.0
H1933 H 0.90755 0.40749 0.49416 0.0
H1934 H 0.92274 0.37983 0.53314 0.0
H1935 H 0.9245 0.37416 0.61449 0.0
H1936 H 0.4108 0.37894 0.50361 0.0
H1937 H 0.40476 0.3811 0.58471 0.0
H1938 H 0.34659 0.40255 0.55894 0.0
H1939 H 0.35253 0.40053 0.47767 0.0
H1940 H 0.39544 0.41323 0.63695 0.0
H1941 H 0.33643 0.35801 0.64669 0.0
H1942 H 0.35188 0.36056 0.59776 0.0
H1943 H 0.33187 0.37717 0.60674 0.0
C1944 C 0.39673 0.38422 0.51508 0.0
C1945 C 0.38215 0.38953 0.48389 0.0
C1946 C 0.39328 0.38535 0.56156 0.0
C1947 C 0.37512 0.39171 0.57807 0.0
C1948 C 0.36056 0.39716 0.54711 0.0
H1949 H 0.3276 0.41151 0.84657 0.0
H1950 H 0.33346 0.40933 0.7654 0.0
C1951 C 0.36399 0.396 0.50057 0.0
C1952 C 0.37168 0.39309 0.62763 0.0
H1953 H 0.34245 0.37657 0.71288 0.0
C1954 C 0.38391 0.40514 0.65357 0.0
C1955 C 0.35661 0.38256 0.6494 0.0
C1956 C 0.34354 0.3687 0.62386 0.0
C1957 C 0.38128 0.40721 0.70041 0.0
C1958 C 0.36622 0.39669 0.72216 0.0
C1959 C 0.35398 0.38466 0.69623 0.0
C1960 C 0.36285 0.39802 0.77173 0.0
C1961 C 0.39439 0.42101 0.72603 0.0
C1962 C 0.37734 0.3922 0.80249 0.0
C1963 C 0.37399 0.39331 0.84907 0.0
C1964 C 0.35602 0.40018 0.86598 0.0
C1965 C 0.34152 0.4059 0.83495 0.0
C1966 C 0.34487 0.40477 0.78843 0.0
H1967 H 0.40168 0.4316 0.70324 0.0
H1968 H 0.38602 0.42926 0.75189 0.0
H1969 H 0.40592 0.41247 0.74349 0.0
H1970 H 0.39117 0.38654 0.79048 0.0
H1971 H 0.38538 0.38845 0.8718 0.0
H1972 H 0.39352 0.62402 0.16804 0.0
H1973 H 0.39048 0.61877 0.2494 0.0
H1974 H 0.40368 0.67944 0.27338 0.0
H1975 H 0.406 0.685 0.19226 0.0
H1976 H 0.41802 0.62385 0.31647 0.0
H1977 H 0.35447 0.67236 0.34772 0.0
H1978 H 0.36165 0.66485 0.29175 0.0
H1979 H 0.37441 0.68429 0.31992 0.0
C1980 C 0.39549 0.63633 0.19053 0.0
C1981 C 0.39995 0.65496 0.17331 0.0
C1982 C 0.39388 0.63326 0.23713 0.0
C1983 C 0.39656 0.64876 0.26763 0.0
C1984 C 0.40115 0.66732 0.25062 0.0
H1985 H 0.39575 0.65982 0.56094 0.0
H1986 H 0.39856 0.66518 0.47956 0.0
C1987 C 0.40274 0.67041 0.20409 0.0
C1988 C 0.39509 0.6454 0.31722 0.0
H1989 H 0.37094 0.66016 0.41239 0.0
C1990 C 0.40765 0.63171 0.3374 0.0
C1991 C 0.38161 0.65571 0.34466 0.0
C1992 C 0.36714 0.66999 0.32493 0.0
C1993 C 0.40735 0.6283 0.38419 0.0
C1994 C 0.39387 0.6386 0.41163 0.0
C1995 C 0.38131 0.6523 0.39147 0.0
C1996 C 0.3924 0.63522 0.46121 0.0
C1997 C 0.42183 0.61403 0.40393 0.0
C1998 C 0.38779 0.61665 0.47815 0.0
C1999 C 0.38632 0.6135 0.52468 0.0
C2000 C 0.38925 0.62889 0.55553 0.0
C2001 C 0.39368 0.64755 0.53838 0.0
C2002 C 0.39516 0.65068 0.49178 0.0
H2003 H 0.43449 0.61166 0.38113 0.0
H2004 H 0.42733 0.61919 0.4371 0.0
H2005 H 0.41456 0.59973 0.40897 0.0
H2006 H 0.3852 0.60457 0.45534 0.0
H2007 H 0.38309 0.5989 0.53645 0.0
H2008 H 0.67223 0.63802 0.85696 0.0
H2009 H 0.66654 0.63989 0.77561 0.0
H2010 H 0.63012 0.5887 0.78258 0.0
H2011 H 0.63569 0.58676 0.86395 0.0
H2012 H 0.67534 0.61337 0.70937 0.0
H2013 H 0.59539 0.62625 0.71372 0.0
H2014 H 0.61056 0.62843 0.76323 0.0
H2015 H 0.60289 0.60476 0.74375 0.0
C2016 C 0.66301 0.62714 0.84121 0.0
C2017 C 0.65436 0.61227 0.86714 0.0
C2018 C 0.65972 0.62827 0.79467 0.0
C2019 C 0.64766 0.61462 0.77295 0.0
C2020 C 0.63908 0.5997 0.79865 0.0
H2021 H 0.61349 0.59325 0.49479 0.0
H2022 H 0.61928 0.59177 0.5761 0.0
C2023 C 0.6423 0.5986 0.84524 0.0
C2024 C 0.64456 0.61568 0.72325 0.0
H2025 H 0.6093 0.61934 0.64201 0.0
C2026 C 0.6609 0.61479 0.69466 0.0
C2027 C 0.62572 0.61751 0.70396 0.0
C2028 C 0.60764 0.61948 0.73271 0.0
C2029 C 0.65891 0.6153 0.64745 0.0
C2030 C 0.64007 0.61704 0.6282 0.0
C2031 C 0.62373 0.61795 0.65675 0.0
C2032 C 0.63696 0.61789 0.57853 0.0
C2033 C 0.67697 0.61351 0.61856 0.0
C2034 C 0.64485 0.63315 0.55274 0.0
C2035 C 0.64149 0.6341 0.50618 0.0
C2036 C 0.63003 0.61988 0.48437 0.0
C2037 C 0.62216 0.60461 0.51041 0.0
C2038 C 0.62553 0.60368 0.55693 0.0
H2039 H 0.68947 0.60732 0.63772 0.0
H2040 H 0.67419 0.60414 0.58866 0.0
H2041 H 0.68123 0.62822 0.60645 0.0
H2042 H 0.65336 0.64453 0.56876 0.0
H2043 H 0.6475 0.64625 0.48746 0.0
H2044 H 0.62356 0.41096 0.53654 0.0
H2045 H 0.62107 0.4051 0.45542 0.0
H2046 H 0.61504 0.34333 0.47969 0.0
H2047 H 0.61762 0.34904 0.56099 0.0
H2048 H 0.6446 0.38291 0.39972 0.0
H2049 H 0.56881 0.35448 0.39722 0.0
H2050 H 0.57896 0.36687 0.44557 0.0
H2051 H 0.58482 0.34166 0.43496 0.0
C2052 C 0.6218 0.39609 0.52472 0.0
C2053 C 0.62078 0.38048 0.55553 0.0
C2054 C 0.62028 0.39278 0.47824 0.0
C2055 C 0.61759 0.37381 0.46133 0.0
C2056 C 0.61666 0.35816 0.49188 0.0
H2057 H 0.60859 0.32426 0.19163 0.0
H2058 H 0.61106 0.32996 0.27281 0.0
C2059 C 0.61815 0.36146 0.53844 0.0
C2060 C 0.61625 0.37044 0.41171 0.0
H2061 H 0.5867 0.35213 0.32889 0.0
C2062 C 0.6319 0.37626 0.38422 0.0
C2063 C 0.59968 0.36174 0.39139 0.0
C2064 C 0.58202 0.35598 0.41868 0.0
C2065 C 0.63159 0.37332 0.33724 0.0
C2066 C 0.61504 0.36462 0.31694 0.0
C2067 C 0.59939 0.35878 0.34441 0.0
C2068 C 0.61368 0.36134 0.26732 0.0
C2069 C 0.64919 0.37916 0.30985 0.0
C2070 C 0.61414 0.3771 0.23703 0.0
C2071 C 0.6126 0.37391 0.19044 0.0
C2072 C 0.61045 0.35487 0.17306 0.0
C2073 C 0.60995 0.33914 0.20363 0.0
C2074 C 0.61146 0.34235 0.25016 0.0
H2075 H 0.66239 0.38091 0.33128 0.0
H2076 H 0.65237 0.36817 0.28324 0.0
H2077 H 0.64623 0.39336 0.29316 0.0
H2078 H 0.61542 0.39192 0.24946 0.0
H2079 H 0.61271 0.38641 0.16812 0.0
H2080 H 0.88755 0.61528 0.91571 0.0
H2081 H 0.89284 0.6178 0.99721 0.0
H2082 H 0.83176 0.60663 0.02049 0.0
H2083 H 0.82626 0.60434 0.93927 0.0
H2084 H 0.87572 0.64324 0.06058 0.0
H2085 H 0.85858 0.56604 0.10098 0.0
H2086 H 0.86333 0.57424 0.04421 0.0
H2087 H 0.83987 0.57845 0.06963 0.0
C2088 C 0.87519 0.61348 0.93808 0.0
C2089 C 0.85648 0.60944 0.92067 0.0
C2090 C 0.87827 0.61483 0.98474 0.0
C2091 C 0.86278 0.61206 1.01509 0.0
C2092 C 0.84406 0.60835 0.99787 0.0
H2093 H 0.85108 0.61495 0.30819 0.0
H2094 H 0.84557 0.61276 0.22671 0.0
C2095 C 0.84094 0.60702 0.95129 0.0
C2096 C 0.86609 0.6134 0.0647 0.0
H2097 H 0.86252 0.58759 0.16305 0.0
C2098 C 0.87293 0.63105 0.08295 0.0
C2099 C 0.86239 0.59751 0.09398 0.0
C2100 C 0.8558 0.57792 0.07629 0.0
C2101 C 0.87584 0.63334 0.12966 0.0
C2102 C 0.87215 0.61744 0.15894 0.0
C2103 C 0.86529 0.5998 0.14068 0.0
C2104 C 0.87556 0.61873 0.20852 0.0
C2105 C 0.8824 0.65293 0.14734 0.0
C2106 C 0.8943 0.6225 0.22557 0.0
C2107 C 0.89753 0.62365 0.27213 0.0
C2108 C 0.8821 0.62097 0.30291 0.0
C2109 C 0.86336 0.61694 0.28567 0.0
C2110 C 0.86015 0.61577 0.23903 0.0
H2111 H 0.8795 0.66482 0.12275 0.0
H2112 H 0.87496 0.65656 0.17956 0.0
H2113 H 0.89836 0.65246 0.15371 0.0
H2114 H 0.90653 0.62435 0.20283 0.0
H2115 H 0.91223 0.62634 0.284 0.0
H2116 H 0.59173 0.11277 0.74324 0.0
H2117 H 0.58983 0.1186 0.82454 0.0
H2118 H 0.64267 0.15259 0.81847 0.0
H2119 H 0.64472 0.14679 0.73718 0.0
H2120 H 0.61614 0.10855 0.89111 0.0
H2121 H 0.60614 0.18897 0.88693 0.0
H2122 H 0.60332 0.17385 0.83745 0.0
H2123 H 0.62728 0.18054 0.85681 0.0
C2124 C 0.60299 0.12146 0.75915 0.0
C2125 C 0.61837 0.12934 0.73348 0.0
C2126 C 0.60183 0.12485 0.80567 0.0
C2127 C 0.61595 0.13627 0.82764 0.0
C2128 C 0.63134 0.14412 0.8022 0.0
H2129 H 0.63705 0.17001 0.10647 0.0
H2130 H 0.63867 0.16436 0.0251 0.0
C2131 C 0.63249 0.14078 0.75563 0.0
C2132 C 0.61487 0.1394 0.87734 0.0
H2133 H 0.61204 0.17476 0.95868 0.0
C2134 C 0.61514 0.12303 0.90587 0.0
C2135 C 0.6136 0.15829 0.89668 0.0
C2136 C 0.61238 0.17642 0.86793 0.0
C2137 C 0.61455 0.12503 0.95309 0.0
C2138 C 0.61331 0.14391 0.97242 0.0
C2139 C 0.61302 0.16029 0.9439 0.0
C2140 C 0.61232 0.14703 0.02213 0.0
C2141 C 0.61574 0.1069 0.98186 0.0
C2142 C 0.59688 0.13932 0.04766 0.0
C2143 C 0.59587 0.14258 0.09427 0.0
C2144 C 0.61021 0.15378 0.1164 0.0
C2145 C 0.62562 0.16152 0.09061 0.0
C2146 C 0.62663 0.15823 0.04404 0.0
H2147 H 0.62182 0.09429 0.9628 0.0
H2148 H 0.62493 0.10943 1.01215 0.0
H2149 H 0.60085 0.10291 0.99332 0.0
H2150 H 0.58542 0.13102 0.03143 0.0
H2151 H 0.58361 0.13669 0.11281 0.0
H2152 H 0.15829 0.4034 0.30987 0.0
H2153 H 0.16403 0.40526 0.22844 0.0
H2154 H 0.10678 0.38151 0.20364 0.0
H2155 H 0.10095 0.37952 0.28477 0.0
H2156 H 0.16412 0.37614 0.16318 0.0
H2157 H 0.10623 0.43064 0.12638 0.0
H2158 H 0.11454 0.42559 0.18294 0.0
H2159 H 0.09755 0.40943 0.15565 0.0
C2160 C 0.14695 0.39847 0.28713 0.0
C2161 C 0.12907 0.39146 0.30404 0.0
C2162 C 0.15023 0.39962 0.24053 0.0
C2163 C 0.1357 0.39389 0.20981 0.0
C2164 C 0.11802 0.38653 0.22657 0.0
H2165 H 0.1274 0.38684 0.9169 0.0
H2166 H 0.12183 0.38503 0.99836 0.0
C2167 C 0.11471 0.38539 0.27307 0.0
C2168 C 0.13915 0.39526 0.16029 0.0
H2169 H 0.12133 0.41549 0.06317 0.0
C2170 C 0.15483 0.38484 0.14136 0.0
C2171 C 0.12701 0.40658 0.13173 0.0
C2172 C 0.1105 0.41885 0.15017 0.0
C2173 C 0.15847 0.38512 0.09466 0.0
C2174 C 0.14628 0.39638 0.06611 0.0
C2175 C 0.13062 0.40681 0.08502 0.0
C2176 C 0.14966 0.39765 1.01659 0.0
C2177 C 0.17508 0.37302 0.07613 0.0
C2178 C 0.16701 0.40567 0.99964 0.0
C2179 C 0.17019 0.40688 0.95309 0.0
C2180 C 0.15606 0.40013 0.92228 0.0
C2181 C 0.13855 0.39235 0.93945 0.0
C2182 C 0.13537 0.3912 0.98607 0.0
H2183 H 0.17979 0.36153 0.10027 0.0
H2184 H 0.17089 0.36593 0.04386 0.0
H2185 H 0.18777 0.38265 0.06953 0.0
H2186 H 0.17806 0.41118 0.02246 0.0
H2187 H 0.18366 0.41335 0.94127 0.0
H2188 H 0.41298 0.82747 0.09792 0.0
H2189 H 0.41088 0.83338 1.0168 0.0
H2190 H 0.38479 0.8897 0.04198 0.0
H2191 H 0.38655 0.88384 0.12327 0.0
H2192 H 0.3776 0.84088 0.96373 0.0
H2193 H 0.42998 0.90256 0.95596 0.0
H2194 H 0.42828 0.88657 1.00416 0.0
H2195 H 0.41058 0.90567 0.99612 0.0
C2196 C 0.40665 0.84108 0.08635 0.0
C2197 C 0.39994 0.85517 0.11742 0.0
C2198 C 0.40557 0.84447 0.03985 0.0
C2199 C 0.39791 0.86208 0.02321 0.0
C2200 C 0.39113 0.87617 0.05399 0.0
H2201 H 0.3785 0.90973 0.7551 0.0
H2202 H 0.38038 0.90362 0.83619 0.0
C2203 C 0.39217 0.87278 0.10055 0.0
C2204 C 0.39665 0.86547 0.97366 0.0
H2205 H 0.41238 0.89548 0.88913 0.0
C2206 C 0.38526 0.85277 0.94736 0.0
C2207 C 0.40663 0.881 0.95231 0.0
C2208 C 0.4197 0.89466 0.97842 0.0
C2209 C 0.38328 0.85539 0.90051 0.0
C2210 C 0.39329 0.87091 0.87912 0.0
C2211 C 0.40469 0.8836 0.90545 0.0
C2212 C 0.39202 0.87436 0.82955 0.0
C2213 C 0.37007 0.8418 0.87457 0.0
C2214 C 0.39811 0.86002 0.79859 0.0
C2215 C 0.39711 0.86349 0.75206 0.0
C2216 C 0.39015 0.88146 0.7354 0.0
C2217 C 0.38416 0.89581 0.76659 0.0
C2218 C 0.38514 0.89232 0.81305 0.0
H2219 H 0.35953 0.83429 0.89709 0.0
H2220 H 0.36177 0.84983 0.84826 0.0
H2221 H 0.37907 0.83044 0.85768 0.0
H2222 H 0.40392 0.84622 0.81042 0.0
H2223 H 0.40215 0.85222 0.72916 0.0
H2224 H 0.82697 0.90988 0.34549 0.0
H2225 H 0.83246 0.90724 0.26429 0.0
H2226 H 0.89155 0.88814 0.28848 0.0
H2227 H 0.88632 0.89101 0.36985 0.0
H2228 H 0.85998 0.92631 0.21022 0.0
H2229 H 0.87035 0.84593 0.20343 0.0
H2230 H 0.86 0.85819 0.25181 0.0
H2231 H 0.88597 0.85823 0.24294 0.0
C2232 C 0.84121 0.90526 0.33369 0.0
C2233 C 0.85619 0.90065 0.36453 0.0
C2234 C 0.84428 0.90365 0.28714 0.0
C2235 C 0.86233 0.89723 0.27019 0.0
C2236 C 0.87736 0.89272 0.30072 0.0
H2237 H 0.91068 0.88048 1.00185 0.0
H2238 H 0.90483 0.88303 0.08293 0.0
C2239 C 0.87433 0.89436 0.34733 0.0
C2240 C 0.86549 0.89568 0.22057 0.0
H2241 H 0.877 0.8635 0.13628 0.0
C2242 C 0.86361 0.91256 0.19402 0.0
C2243 C 0.87023 0.87773 0.19938 0.0
C2244 C 0.8716 0.85893 0.2257 0.0
C2245 C 0.8667 0.91207 0.14711 0.0
C2246 C 0.8715 0.89413 0.12595 0.0
C2247 C 0.87335 0.87724 0.15248 0.0
C2248 C 0.87485 0.89261 0.0764 0.0
C2249 C 0.86529 0.93085 0.12073 0.0
C2250 C 0.85987 0.89692 0.04556 0.0
C2251 C 0.86311 0.89532 0.99901 0.0
C2252 C 0.8814 0.88928 0.9822 0.0
C2253 C 0.89632 0.88489 1.01335 0.0
C2254 C 0.89305 0.88645 0.05983 0.0
H2255 H 0.86626 0.94388 0.143 0.0
H2256 H 0.87704 0.9317 0.095 0.0
H2257 H 0.85103 0.93138 0.10299 0.0
H2258 H 0.84558 0.90132 0.05752 0.0
H2259 H 0.85116 0.8985 0.97624 0.0
H2260 H 0.87959 0.09961 0.03476 0.0
H2261 H 0.88214 0.10541 0.95365 0.0
H2262 H 0.90217 0.16404 0.97929 0.0
H2263 H 0.90029 0.15816 0.06057 0.0
H2264 H 0.86336 0.1331 0.90079 0.0
H2265 H 0.94369 0.14309 0.89301 0.0
H2266 H 0.93161 0.13284 0.94159 0.0
H2267 H 0.93155 0.15882 0.93265 0.0
C2268 C 0.88481 0.11367 0.02326 0.0
C2269 C 0.8899 0.12836 0.0544 0.0
C2270 C 0.88611 0.11701 0.97679 0.0
C2271 C 0.89264 0.13505 0.96028 0.0
C2272 C 0.89746 0.14986 0.99116 0.0
H2273 H 0.91012 0.18319 0.69212 0.0
H2274 H 0.90758 0.17743 0.77322 0.0
C2275 C 0.89615 0.14655 0.03769 0.0
C2276 C 0.89402 0.13843 0.91076 0.0
H2277 H 0.92592 0.14993 0.82622 0.0
C2278 C 0.87705 0.1367 0.88445 0.0
C2279 C 0.91189 0.14316 0.88942 0.0
C2280 C 0.93077 0.14443 0.91547 0.0
C2281 C 0.87738 0.1399 0.8376 0.0
C2282 C 0.89525 0.1446 0.81623 0.0
C2283 C 0.91222 0.14633 0.84256 0.0
C2284 C 0.89665 0.14795 0.76669 0.0
C2285 C 0.85848 0.13869 0.8116 0.0
C2286 C 0.89159 0.13321 0.73583 0.0
C2287 C 0.89287 0.13651 0.68929 0.0
C2288 C 0.89935 0.15461 0.67253 0.0
C2289 C 0.90472 0.16921 0.70364 0.0
C2290 C 0.90342 0.16589 0.75012 0.0
H2291 H 0.84558 0.14021 0.83409 0.0
H2292 H 0.85771 0.15019 0.78528 0.0
H2293 H 0.85757 0.12425 0.79472 0.0
H2294 H 0.88671 0.11909 0.74773 0.0
H2295 H 0.88851 0.12495 0.66646 0.0
H2296 H 0.09985 0.1326 1.00323 0.0
H2297 H 0.10579 0.13041 0.08437 0.0
H2298 H 0.16355 0.10779 0.05889 0.0
H2299 H 0.15771 0.10981 0.9776 0.0
H2300 H 0.11461 0.09798 0.13654 0.0
H2301 H 0.17431 0.15249 0.14649 0.0
H2302 H 0.15877 0.15014 0.09762 0.0
H2303 H 0.17856 0.13326 0.10641 0.0
C2304 C 0.1138 0.12705 1.01479 0.0
C2305 C 0.12831 0.1214 0.98369 0.0
C2306 C 0.1172 0.1259 0.06126 0.0
C2307 C 0.13521 0.1192 0.07783 0.0
C2308 C 0.14969 0.11343 0.04698 0.0
H2309 H 0.18254 0.09912 0.34604 0.0
H2310 H 0.17663 0.10126 0.26489 0.0
C2311 C 0.14632 0.11459 1.00044 0.0
C2312 C 0.1386 0.11784 0.12736 0.0
H2313 H 0.16801 0.1341 0.21265 0.0
C2314 C 0.12623 0.10595 0.15322 0.0
C2315 C 0.15378 0.12822 0.14915 0.0
C2316 C 0.16702 0.14189 0.12364 0.0
C2317 C 0.12882 0.10388 0.20004 0.0
C2318 C 0.14401 0.11425 0.22182 0.0
C2319 C 0.15639 0.12614 0.19597 0.0
C2320 C 0.14738 0.11291 0.27134 0.0
C2321 C 0.11556 0.09025 0.22561 0.0
C2322 C 0.13297 0.11892 0.30213 0.0
C2323 C 0.13634 0.11782 0.34868 0.0
C2324 C 0.15425 0.11079 0.3655 0.0
C2325 C 0.16867 0.10486 0.33445 0.0
C2326 C 0.16529 0.10597 0.28796 0.0
H2327 H 0.10815 0.07974 0.20278 0.0
H2328 H 0.12384 0.08192 0.25145 0.0
H2329 H 0.10414 0.09893 0.2431 0.0
H2330 H 0.11919 0.12473 0.29015 0.0
H2331 H 0.12502 0.12283 0.37146 0.0
H2332 H 0.13876 0.84201 0.67824 0.0
H2333 H 0.14026 0.84729 0.75981 0.0
H2334 H 0.0863 0.87977 0.75428 0.0
H2335 H 0.0844 0.87412 0.67287 0.0
H2336 H 0.14132 0.88244 0.80857 0.0
H2337 H 0.07561 0.8392 0.85281 0.0
H2338 H 0.08729 0.83751 0.79837 0.0
H2339 H 0.07149 0.85777 0.81114 0.0
C2340 C 0.12709 0.85011 0.69438 0.0
C2341 C 0.11138 0.85751 0.66888 0.0
C2342 C 0.12804 0.85322 0.74103 0.0
C2343 C 0.11324 0.86366 0.76336 0.0
C2344 C 0.09771 0.87136 0.73797 0.0
H2345 H 0.09233 0.89748 0.04227 0.0
H2346 H 0.09085 0.89215 0.96075 0.0
C2347 C 0.09677 0.8683 0.69128 0.0
C2348 C 0.11423 0.8667 0.81307 0.0
H2349 H 0.09013 0.85754 0.91177 0.0
C2350 C 0.13018 0.87693 0.83116 0.0
C2351 C 0.09967 0.85952 0.84257 0.0
C2352 C 0.08262 0.84773 0.82542 0.0
C2353 C 0.13177 0.88049 0.87777 0.0
C2354 C 0.11722 0.8733 0.9073 0.0
C2355 C 0.10127 0.86306 0.88919 0.0
C2356 C 0.11819 0.87635 0.95702 0.0
C2357 C 0.14879 0.89235 0.89483 0.0
C2358 C 0.1339 0.86898 0.98234 0.0
C2359 C 0.13486 0.8721 0.029 0.0
C2360 C 0.12006 0.8826 0.0515 0.0
C2361 C 0.10416 0.88963 0.02608 0.0
C2362 C 0.10321 0.88648 0.97945 0.0
H2363 H 0.15563 0.90104 0.86747 0.0
H2364 H 0.14416 0.90245 0.92217 0.0
H2365 H 0.16006 0.88234 0.90865 0.0
H2366 H 0.14545 0.86078 0.966 0.0
H2367 H 0.14739 0.86657 0.0473 0.0
loop_
_geom_bond_atom_site_label_1
_geom_bond_atom_site_label_2
_geom_bond_distance
_geom_bond_site_symmetry_2
_ccdc_geom_bond_type
Gd0 C3 2.818 . S
Gd0 O20 2.377 . S
Gd0 O22 2.448 . S
Gd0 O23 2.506 . S
Gd0 O24 2.435 . S
Gd0 O25 2.717 . S
Gd0 O27 2.395 . S
Gd0 O31 2.327 . S
Gd1 C12 2.818 1_554 S
Gd1 O21 2.395 . S
Gd1 O25 2.327 . S
Gd1 O26 2.377 . S
Gd1 O28 2.448 . S
Gd1 O29 2.506 . S
Gd1 O30 2.435 . S
Gd1 O31 2.717 . S
C2 O20 1.240 . S
C2 O21 1.240 . S
C3 Gd0 2.818 . S
C3 C4 1.510 . S
C3 O22 1.249 . S
C3 O23 1.252 . S
C4 C3 1.510 . S
C4 C5 1.404 . S
C4 C6 1.352 . S
C5 C4 1.404 . S
C5 C9 1.389 . S
C5 H32 0.930 . S
C6 C4 1.352 . S
C6 C8 1.374 . S
C6 H33 0.931 . S
C7 C8 1.359 . S
C7 C9 1.364 . S
C8 C6 1.374 . S
C8 C7 1.359 . S
C8 H34 0.931 . S
C9 C5 1.389 . S
C9 C7 1.364 . S
C9 H35 0.931 . S
C10 O24 1.256 . S
C10 O25 1.257 . S
C11 O26 1.240 . S
C11 O27 1.240 . S
C12 Gd1 2.818 1_556 S
C12 C13 1.510 . S
C12 O28 1.249 1_556 S
C12 O29 1.252 1_556 S
C13 C12 1.510 . S
C13 C14 1.404 . S
C13 C15 1.352 . S
C14 C13 1.404 . S
C14 C18 1.389 . S
C14 H36 0.930 . S
C15 C13 1.352 . S
C15 C17 1.374 . S
C15 H37 0.931 . S
C16 C17 1.359 . S
C16 C18 1.364 . S
C17 C15 1.374 . S
C17 C16 1.359 . S
C17 H38 0.931 . S
C18 C14 1.389 . S
C18 C16 1.364 . S
C18 H39 0.931 . S
C19 O30 1.256 . S
C19 O31 1.257 . S
O20 Gd0 2.377 . S
O20 C2 1.240 . S
O21 Gd1 2.395 . S
O21 C2 1.240 . S
O22 Gd0 2.448 . S
O22 C3 1.249 . S
O23 Gd0 2.506 . S
O23 C3 1.252 . S
O24 Gd0 2.435 . S
O24 C10 1.256 . S
O25 Gd0 2.717 . S
O25 Gd1 2.327 . S
O25 C10 1.257 . S
O26 Gd1 2.377 . S
O26 C11 1.240 . S
O27 Gd0 2.395 . S
O27 C11 1.240 . S
O28 Gd1 2.448 . S
O28 C12 1.249 1_554 S
O29 Gd1 2.506 . S
O29 C12 1.252 1_554 S
O30 Gd1 2.435 . S
O30 C19 1.256 . S
O31 Gd0 2.327 . S
O31 Gd1 2.717 . S
O31 C19 1.257 . S
H32 C5 0.930 . S
H33 C6 0.931 . S
H34 C8 0.931 . S
H35 C9 0.931 . S
H36 C14 0.930 . S
H37 C15 0.931 . S
H38 C17 0.931 . S
H39 C18 0.931 . S
Gd40 C43 2.818 1_556 S
Gd40 O60 2.377 . S
Gd40 O62 2.448 . S
Gd40 O63 2.506 . S
Gd40 O64 2.435 . S
Gd40 O65 2.717 . S
Gd40 O67 2.395 . S
Gd40 O71 2.327 . S
Gd41 C52 2.818 . S
Gd41 O61 2.395 . S
Gd41 O65 2.327 . S
Gd41 O66 2.377 . S
Gd41 O68 2.448 . S
Gd41 O69 2.506 . S
Gd41 O70 2.435 . S
Gd41 O71 2.717 . S
C42 O60 1.240 . S
C42 O61 1.240 . S
C43 Gd40 2.818 1_554 S
C43 C44 1.510 . S
C43 O62 1.249 1_554 S
C43 O63 1.252 1_554 S
C44 C43 1.510 . S
C44 C45 1.404 . S
C44 C46 1.352 . S
C45 C44 1.404 . S
C45 C49 1.389 . S
C45 H72 0.930 . S
C46 C44 1.352 . S
C46 C48 1.374 . S
C46 H73 0.931 . S
C47 C48 1.359 . S
C47 C49 1.364 . S
C48 C46 1.374 . S
C48 C47 1.359 . S
C48 H74 0.931 . S
C49 C45 1.389 . S
C49 C47 1.364 . S
C49 H75 0.931 . S
C50 O64 1.256 . S
C50 O65 1.257 . S
C51 O66 1.240 . S
C51 O67 1.240 . S
C52 Gd41 2.818 . S
C52 C53 1.510 . S
C52 O68 1.249 . S
C52 O69 1.252 . S
C53 C52 1.510 . S
C53 C54 1.404 . S
C53 C55 1.352 . S
C54 C53 1.404 . S
C54 C58 1.389 . S
C54 H76 0.930 . S
C55 C53 1.352 . S
C55 C57 1.374 . S
C55 H77 0.931 . S
C56 C57 1.359 . S
C56 C58 1.364 . S
C57 C55 1.374 . S
C57 C56 1.359 . S
C57 H78 0.931 . S
C58 C54 1.389 . S
C58 C56 1.364 . S
C58 H79 0.931 . S
C59 O70 1.256 . S
C59 O71 1.257 . S
O60 Gd40 2.377 . S
O60 C42 1.240 . S
O61 Gd41 2.395 . S
O61 C42 1.240 . S
O62 Gd40 2.448 . S
O62 C43 1.249 1_556 S
O63 Gd40 2.506 . S
O63 C43 1.252 1_556 S
O64 Gd40 2.435 . S
O64 C50 1.256 . S
O65 Gd40 2.717 . S
O65 Gd41 2.327 . S
O65 C50 1.257 . S
O66 Gd41 2.377 . S
O66 C51 1.240 . S
O67 Gd40 2.395 . S
O67 C51 1.240 . S
O68 Gd41 2.448 . S
O68 C52 1.249 . S
O69 Gd41 2.506 . S
O69 C52 1.252 . S
O70 Gd41 2.435 . S
O70 C59 1.256 . S
O71 Gd40 2.327 . S
O71 Gd41 2.717 . S
O71 C59 1.257 . S
H72 C45 0.930 . S
H73 C46 0.931 . S
H74 C48 0.931 . S
H75 C49 0.931 . S
H76 C54 0.930 . S
H77 C55 0.931 . S
H78 C57 0.931 . S
H79 C58 0.931 . S
Gd80 C83 2.818 . S
Gd80 O100 2.377 . S
Gd80 O102 2.448 . S
Gd80 O103 2.506 . S
Gd80 O104 2.435 . S
Gd80 O105 2.717 . S
Gd80 O107 2.395 . S
Gd80 O111 2.327 . S
Gd81 C92 2.818 1_554 S
Gd81 O101 2.395 . S
Gd81 O105 2.327 . S
Gd81 O106 2.377 . S
Gd81 O108 2.448 . S
Gd81 O109 2.506 . S
Gd81 O110 2.435 . S
Gd81 O111 2.717 . S
C82 O100 1.240 . S
C82 O101 1.240 . S
C83 Gd80 2.818 . S
C83 C84 1.510 . S
C83 O102 1.249 . S
C83 O103 1.252 . S
C84 C83 1.510 . S
C84 C85 1.404 . S
C84 C86 1.352 . S
C85 C84 1.404 . S
C85 C89 1.389 . S
C85 H112 0.930 . S
C86 C84 1.352 . S
C86 C88 1.374 . S
C86 H113 0.931 . S
C87 C88 1.359 . S
C87 C89 1.364 . S
C88 C86 1.374 . S
C88 C87 1.359 . S
C88 H114 0.931 . S
C89 C85 1.389 . S
C89 C87 1.364 . S
C89 H115 0.931 . S
C90 O104 1.256 . S
C90 O105 1.257 . S
C91 O106 1.240 . S
C91 O107 1.240 . S
C92 Gd81 2.818 1_556 S
C92 C93 1.510 . S
C92 O108 1.249 1_556 S
C92 O109 1.252 1_556 S
C93 C92 1.510 . S
C93 C94 1.404 . S
C93 C95 1.352 . S
C94 C93 1.404 . S
C94 C98 1.389 . S
C94 H116 0.930 . S
C95 C93 1.352 . S
C95 C97 1.374 . S
C95 H117 0.931 . S
C96 C97 1.359 . S
C96 C98 1.364 . S
C97 C95 1.374 . S
C97 C96 1.359 . S
C97 H118 0.931 . S
C98 C94 1.389 . S
C98 C96 1.364 . S
C98 H119 0.931 . S
C99 O110 1.256 . S
C99 O111 1.257 . S
O100 Gd80 2.377 . S
O100 C82 1.240 . S
O101 Gd81 2.395 . S
O101 C82 1.240 . S
O102 Gd80 2.448 . S
O102 C83 1.249 . S
O103 Gd80 2.506 . S
O103 C83 1.252 . S
O104 Gd80 2.435 . S
O104 C90 1.256 . S
O105 Gd80 2.717 . S
O105 Gd81 2.327 . S
O105 C90 1.257 . S
O106 Gd81 2.377 . S
O106 C91 1.240 . S
O107 Gd80 2.395 . S
O107 C91 1.240 . S
O108 Gd81 2.448 . S
O108 C92 1.249 1_554 S
O109 Gd81 2.506 . S
O109 C92 1.252 1_554 S
O110 Gd81 2.435 . S
O110 C99 1.256 . S
O111 Gd80 2.327 . S
O111 Gd81 2.717 . S
O111 C99 1.257 . S
H112 C85 0.930 . S
H113 C86 0.931 . S
H114 C88 0.931 . S
H115 C89 0.931 . S
H116 C94 0.930 . S
H117 C95 0.931 . S
H118 C97 0.931 . S
H119 C98 0.931 . S
Gd120 C123 2.818 1_556 S
Gd120 O140 2.377 . S
Gd120 O142 2.448 . S
Gd120 O143 2.506 . S
Gd120 O144 2.435 . S
Gd120 O145 2.717 . S
Gd120 O147 2.395 . S
Gd120 O151 2.327 . S
Gd121 C132 2.818 . S
Gd121 O141 2.395 . S
Gd121 O145 2.327 . S
Gd121 O146 2.377 . S
Gd121 O148 2.448 . S
Gd121 O149 2.506 . S
Gd121 O150 2.435 . S
Gd121 O151 2.717 . S
C122 O140 1.240 . S
C122 O141 1.240 . S
C123 Gd120 2.818 1_554 S
C123 C124 1.510 . S
C123 O142 1.249 1_554 S
C123 O143 1.252 1_554 S
C124 C123 1.510 . S
C124 C125 1.404 . S
C124 C126 1.352 . S
C125 C124 1.404 . S
C125 C129 1.389 . S
C125 H152 0.930 . S
C126 C124 1.352 . S
C126 C128 1.374 . S
C126 H153 0.931 . S
C127 C128 1.359 . S
C127 C129 1.364 . S
C128 C126 1.374 . S
C128 C127 1.359 . S
C128 H154 0.931 . S
C129 C125 1.389 . S
C129 C127 1.364 . S
C129 H155 0.931 . S
C130 O144 1.256 . S
C130 O145 1.257 . S
C131 O146 1.240 . S
C131 O147 1.240 . S
C132 Gd121 2.818 . S
C132 C133 1.510 . S
C132 O148 1.249 . S
C132 O149 1.252 . S
C133 C132 1.510 . S
C133 C134 1.404 . S
C133 C135 1.352 . S
C134 C133 1.404 . S
C134 C138 1.389 . S
C134 H156 0.930 . S
C135 C133 1.352 . S
C135 C137 1.374 . S
C135 H157 0.931 . S
C136 C137 1.359 . S
C136 C138 1.364 . S
C137 C135 1.374 . S
C137 C136 1.359 . S
C137 H158 0.931 . S
C138 C134 1.389 . S
C138 C136 1.364 . S
C138 H159 0.931 . S
C139 O150 1.256 . S
C139 O151 1.257 . S
O140 Gd120 2.377 . S
O140 C122 1.240 . S
O141 Gd121 2.395 . S
O141 C122 1.240 . S
O142 Gd120 2.448 . S
O142 C123 1.249 1_556 S
O143 Gd120 2.506 . S
O143 C123 1.252 1_556 S
O144 Gd120 2.435 . S
O144 C130 1.256 . S
O145 Gd120 2.717 . S
O145 Gd121 2.327 . S
O145 C130 1.257 . S
O146 Gd121 2.377 . S
O146 C131 1.240 . S
O147 Gd120 2.395 . S
O147 C131 1.240 . S
O148 Gd121 2.448 . S
O148 C132 1.249 . S
O149 Gd121 2.506 . S
O149 C132 1.252 . S
O150 Gd121 2.435 . S
O150 C139 1.256 . S
O151 Gd120 2.327 . S
O151 Gd121 2.717 . S
O151 C139 1.257 . S
H152 C125 0.930 . S
H153 C126 0.931 . S
H154 C128 0.931 . S
H155 C129 0.931 . S
H156 C134 0.930 . S
H157 C135 0.931 . S
H158 C137 0.931 . S
H159 C138 0.931 . S
Gd160 C163 2.818 1_554 S
Gd160 O180 2.377 . S
Gd160 O182 2.448 1_554 S
Gd160 O183 2.498 1_554 S
Gd160 O184 2.435 . S
Gd160 O185 2.717 . S
Gd160 O187 2.395 . S
Gd160 O191 2.327 . S
Gd161 C172 2.818 . S
Gd161 O181 2.395 . S
Gd161 O185 2.327 . S
Gd161 O186 2.377 . S
Gd161 O188 2.448 . S
Gd161 O189 2.506 . S
Gd161 O190 2.435 . S
Gd161 O191 2.717 . S
C162 O180 1.240 . S
C162 O181 1.240 . S
C163 Gd160 2.818 1_556 S
C163 C164 1.510 . S
C163 O182 1.249 . S
C163 O183 1.256 . S
C164 C163 1.510 . S
C164 C165 1.404 . S
C164 C166 1.352 . S
C165 C164 1.404 . S
C165 C169 1.389 . S
C165 H192 0.930 . S
C166 C164 1.352 . S
C166 C168 1.374 . S
C166 H193 0.931 . S
C167 C168 1.359 . S
C167 C169 1.364 . S
C168 C166 1.374 . S
C168 C167 1.359 . S
C168 H194 0.931 . S
C169 C165 1.389 . S
C169 C167 1.364 . S
C169 H195 0.931 . S
C170 O184 1.256 . S
C170 O185 1.257 . S
C171 O186 1.240 . S
C171 O187 1.240 . S
C172 Gd161 2.818 . S
C172 C173 1.510 . S
C172 O188 1.249 . S
C172 O189 1.252 . S
C173 C172 1.510 . S
C173 C174 1.404 . S
C173 C175 1.352 . S
C174 C173 1.404 . S
C174 C178 1.389 . S
C174 H196 0.930 . S
C175 C173 1.352 . S
C175 C177 1.374 . S
C175 H197 0.931 . S
C176 C177 1.359 . S
C176 C178 1.364 . S
C177 C175 1.374 . S
C177 C176 1.359 . S
C177 H198 0.931 . S
C178 C174 1.389 . S
C178 C176 1.364 . S
C178 H199 0.931 . S
C179 O190 1.256 . S
C179 O191 1.257 . S
O180 Gd160 2.377 . S
O180 C162 1.240 . S
O181 Gd161 2.395 . S
O181 C162 1.240 . S
O182 Gd160 2.448 1_556 S
O182 C163 1.249 . S
O183 Gd160 2.498 1_556 S
O183 C163 1.256 . S
O184 Gd160 2.435 . S
O184 C170 1.256 . S
O185 Gd160 2.717 . S
O185 Gd161 2.327 . S
O185 C170 1.257 . S
O186 Gd161 2.377 . S
O186 C171 1.240 . S
O187 Gd160 2.395 . S
O187 C171 1.240 . S
O188 Gd161 2.448 . S
O188 C172 1.249 . S
O189 Gd161 2.506 . S
O189 C172 1.252 . S
O190 Gd161 2.435 . S
O190 C179 1.256 . S
O191 Gd160 2.327 . S
O191 Gd161 2.717 . S
O191 C179 1.257 . S
H192 C165 0.930 . S
H193 C166 0.931 . S
H194 C168 0.931 . S
H195 C169 0.931 . S
H196 C174 0.930 . S
H197 C175 0.931 . S
H198 C177 0.931 . S
H199 C178 0.931 . S
Gd200 C203 2.818 . S
Gd200 O220 2.377 . S
Gd200 O222 2.448 . S
Gd200 O223 2.506 . S
Gd200 O224 2.435 . S
Gd200 O225 2.717 . S
Gd200 O227 2.395 . S
Gd200 O231 2.327 . S
Gd201 C212 2.818 1_556 S
Gd201 O221 2.395 . S
Gd201 O225 2.327 . S
Gd201 O226 2.377 . S
Gd201 O228 2.448 1_556 S
Gd201 O229 2.498 1_556 S
Gd201 O230 2.435 . S
Gd201 O231 2.717 . S
C202 O220 1.240 . S
C202 O221 1.240 . S
C203 Gd200 2.818 . S
C203 C204 1.510 . S
C203 O222 1.249 . S
C203 O223 1.252 . S
C204 C203 1.510 . S
C204 C205 1.404 . S
C204 C206 1.352 . S
C205 C204 1.404 . S
C205 C209 1.389 . S
C205 H232 0.930 . S
C206 C204 1.352 . S
C206 C208 1.374 . S
C206 H233 0.931 . S
C207 C208 1.359 . S
C207 C209 1.364 . S
C208 C206 1.374 . S
C208 C207 1.359 . S
C208 H234 0.931 . S
C209 C205 1.389 . S
C209 C207 1.364 . S
C209 H235 0.931 . S
C210 O224 1.256 . S
C210 O225 1.257 . S
C211 O226 1.240 . S
C211 O227 1.240 . S
C212 Gd201 2.818 1_554 S
C212 C213 1.510 . S
C212 O228 1.249 . S
C212 O229 1.256 . S
C213 C212 1.510 . S
C213 C214 1.404 . S
C213 C215 1.352 . S
C214 C213 1.404 . S
C214 C218 1.389 . S
C214 H236 0.930 . S
C215 C213 1.352 . S
C215 C217 1.374 . S
C215 H237 0.931 . S
C216 C217 1.359 . S
C216 C218 1.364 . S
C217 C215 1.374 . S
C217 C216 1.359 . S
C217 H238 0.931 . S
C218 C214 1.389 . S
C218 C216 1.364 . S
C218 H239 0.931 . S
C219 O230 1.256 . S
C219 O231 1.257 . S
O220 Gd200 2.377 . S
O220 C202 1.240 . S
O221 Gd201 2.395 . S
O221 C202 1.240 . S
O222 Gd200 2.448 . S
O222 C203 1.249 . S
O223 Gd200 2.506 . S
O223 C203 1.252 . S
O224 Gd200 2.435 . S
O224 C210 1.256 . S
O225 Gd200 2.717 . S
O225 Gd201 2.327 . S
O225 C210 1.257 . S
O226 Gd201 2.377 . S
O226 C211 1.240 . S
O227 Gd200 2.395 . S
O227 C211 1.240 . S
O228 Gd201 2.448 1_554 S
O228 C212 1.249 . S
O229 Gd201 2.498 1_554 S
O229 C212 1.256 . S
O230 Gd201 2.435 . S
O230 C219 1.256 . S
O231 Gd200 2.327 . S
O231 Gd201 2.717 . S
O231 C219 1.257 . S
H232 C205 0.930 . S
H233 C206 0.931 . S
H234 C208 0.931 . S
H235 C209 0.931 . S
H236 C214 0.930 . S
H237 C215 0.931 . S
H238 C217 0.931 . S
H239 C218 0.931 . S
Gd240 C243 2.818 1_554 S
Gd240 O260 2.377 . S
Gd240 O262 2.448 1_554 S
Gd240 O263 2.498 1_554 S
Gd240 O264 2.435 . S
Gd240 O265 2.717 . S
Gd240 O267 2.395 . S
Gd240 O271 2.327 . S
Gd241 C252 2.818 . S
Gd241 O261 2.395 . S
Gd241 O265 2.327 . S
Gd241 O266 2.377 . S
Gd241 O268 2.448 . S
Gd241 O269 2.506 . S
Gd241 O270 2.435 . S
Gd241 O271 2.717 . S
C242 O260 1.240 . S
C242 O261 1.240 . S
C243 Gd240 2.818 1_556 S
C243 C244 1.510 . S
C243 O262 1.249 . S
C243 O263 1.256 . S
C244 C243 1.510 . S
C244 C245 1.404 . S
C244 C246 1.352 . S
C245 C244 1.404 . S
C245 C249 1.389 . S
C245 H272 0.930 . S
C246 C244 1.352 . S
C246 C248 1.374 . S
C246 H273 0.931 . S
C247 C248 1.359 . S
C247 C249 1.364 . S
C248 C246 1.374 . S
C248 C247 1.359 . S
C248 H274 0.931 . S
C249 C245 1.389 . S
C249 C247 1.364 . S
C249 H275 0.931 . S
C250 O264 1.256 . S
C250 O265 1.257 . S
C251 O266 1.240 . S
C251 O267 1.240 . S
C252 Gd241 2.818 . S
C252 C253 1.510 . S
C252 O268 1.249 . S
C252 O269 1.252 . S
C253 C252 1.510 . S
C253 C254 1.404 . S
C253 C255 1.352 . S
C254 C253 1.404 . S
C254 C258 1.389 . S
C254 H276 0.930 . S
C255 C253 1.352 . S
C255 C257 1.374 . S
C255 H277 0.931 . S
C256 C257 1.359 . S
C256 C258 1.364 . S
C257 C255 1.374 . S
C257 C256 1.359 . S
C257 H278 0.931 . S
C258 C254 1.389 . S
C258 C256 1.364 . S
C258 H279 0.931 . S
C259 O270 1.256 . S
C259 O271 1.257 . S
O260 Gd240 2.377 . S
O260 C242 1.240 . S
O261 Gd241 2.395 . S
O261 C242 1.240 . S
O262 Gd240 2.448 1_556 S
O262 C243 1.249 . S
O263 Gd240 2.498 1_556 S
O263 C243 1.256 . S
O264 Gd240 2.435 . S
O264 C250 1.256 . S
O265 Gd240 2.717 . S
O265 Gd241 2.327 . S
O265 C250 1.257 . S
O266 Gd241 2.377 . S
O266 C251 1.240 . S
O267 Gd240 2.395 . S
O267 C251 1.240 . S
O268 Gd241 2.448 . S
O268 C252 1.249 . S
O269 Gd241 2.506 . S
O269 C252 1.252 . S
O270 Gd241 2.435 . S
O270 C259 1.256 . S
O271 Gd240 2.327 . S
O271 Gd241 2.717 . S
O271 C259 1.257 . S
H272 C245 0.930 . S
H273 C246 0.931 . S
H274 C248 0.931 . S
H275 C249 0.931 . S
H276 C254 0.930 . S
H277 C255 0.931 . S
H278 C257 0.931 . S
H279 C258 0.931 . S
Gd280 C283 2.818 . S
Gd280 O300 2.377 . S
Gd280 O302 2.448 . S
Gd280 O303 2.506 . S
Gd280 O304 2.435 . S
Gd280 O305 2.717 . S
Gd280 O307 2.395 . S
Gd280 O311 2.327 . S
Gd281 C292 2.818 1_556 S
Gd281 O301 2.395 . S
Gd281 O305 2.327 . S
Gd281 O306 2.377 . S
Gd281 O308 2.448 1_556 S
Gd281 O309 2.498 1_556 S
Gd281 O310 2.435 . S
Gd281 O311 2.717 . S
C282 O300 1.240 . S
C282 O301 1.240 . S
C283 Gd280 2.818 . S
C283 C284 1.510 . S
C283 O302 1.249 . S
C283 O303 1.252 . S
C284 C283 1.510 . S
C284 C285 1.404 . S
C284 C286 1.352 . S
C285 C284 1.404 . S
C285 C289 1.389 . S
C285 H312 0.930 . S
C286 C284 1.352 . S
C286 C288 1.374 . S
C286 H313 0.931 . S
C287 C288 1.359 . S
C287 C289 1.364 . S
C288 C286 1.374 . S
C288 C287 1.359 . S
C288 H314 0.931 . S
C289 C285 1.389 . S
C289 C287 1.364 . S
C289 H315 0.931 . S
C290 O304 1.256 . S
C290 O305 1.257 . S
C291 O306 1.240 . S
C291 O307 1.240 . S
C292 Gd281 2.818 1_554 S
C292 C293 1.510 . S
C292 O308 1.249 . S
C292 O309 1.256 . S
C293 C292 1.510 . S
C293 C294 1.404 . S
C293 C295 1.352 . S
C294 C293 1.404 . S
C294 C298 1.389 . S
C294 H316 0.930 . S
C295 C293 1.352 . S
C295 C297 1.374 . S
C295 H317 0.931 . S
C296 C297 1.359 . S
C296 C298 1.364 . S
C297 C295 1.374 . S
C297 C296 1.359 . S
C297 H318 0.931 . S
C298 C294 1.389 . S
C298 C296 1.364 . S
C298 H319 0.931 . S
C299 O310 1.256 . S
C299 O311 1.257 . S
O300 Gd280 2.377 . S
O300 C282 1.240 . S
O301 Gd281 2.395 . S
O301 C282 1.240 . S
O302 Gd280 2.448 . S
O302 C283 1.249 . S
O303 Gd280 2.506 . S
O303 C283 1.252 . S
O304 Gd280 2.435 . S
O304 C290 1.256 . S
O305 Gd280 2.717 . S
O305 Gd281 2.327 . S
O305 C290 1.257 . S
O306 Gd281 2.377 . S
O306 C291 1.240 . S
O307 Gd280 2.395 . S
O307 C291 1.240 . S
O308 Gd281 2.448 1_554 S
O308 C292 1.249 . S
O309 Gd281 2.498 1_554 S
O309 C292 1.256 . S
O310 Gd281 2.435 . S
O310 C299 1.256 . S
O311 Gd280 2.327 . S
O311 Gd281 2.717 . S
O311 C299 1.257 . S
H312 C285 0.930 . S
H313 C286 0.931 . S
H314 C288 0.931 . S
H315 C289 0.931 . S
H316 C294 0.930 . S
H317 C295 0.931 . S
H318 C297 0.931 . S
H319 C298 0.931 . S
Gd320 C323 2.818 . S
Gd320 O340 2.377 . S
Gd320 O342 2.448 . S
Gd320 O343 2.506 . S
Gd320 O344 2.435 . S
Gd320 O345 2.717 . S
Gd320 O347 2.395 . S
Gd320 O351 2.327 . S
Gd321 C332 2.818 . S
Gd321 O341 2.395 . S
Gd321 O345 2.327 . S
Gd321 O346 2.377 . S
Gd321 O348 2.448 . S
Gd321 O349 2.506 . S
Gd321 O350 2.435 . S
Gd321 O351 2.717 . S
C322 O340 1.240 . S
C322 O341 1.240 . S
C323 Gd320 2.818 . S
C323 C324 1.510 . S
C323 O342 1.249 . S
C323 O343 1.252 . S
C324 C323 1.510 . S
C324 C325 1.404 . S
C324 C326 1.352 . S
C325 C324 1.404 . S
C325 C329 1.389 . S
C325 H352 0.930 . S
C326 C324 1.352 . S
C326 C328 1.374 . S
C326 H353 0.931 . S
C327 C328 1.359 . S
C327 C329 1.364 . S
C328 C326 1.374 . S
C328 C327 1.359 . S
C328 H354 0.931 . S
C329 C325 1.389 . S
C329 C327 1.364 . S
C329 H355 0.931 . S
C330 O344 1.256 . S
C330 O345 1.257 . S
C331 O346 1.240 . S
C331 O347 1.240 . S
C332 Gd321 2.818 . S
C332 C333 1.510 . S
C332 O348 1.249 . S
C332 O349 1.252 . S
C333 C332 1.510 . S
C333 C334 1.404 . S
C333 C335 1.352 . S
C334 C333 1.404 . S
C334 C338 1.389 . S
C334 H356 0.930 . S
C335 C333 1.352 . S
C335 C337 1.374 . S
C335 H357 0.931 . S
C336 C337 1.359 . S
C336 C338 1.364 . S
C337 C335 1.374 . S
C337 C336 1.359 . S
C337 H358 0.931 . S
C338 C334 1.389 . S
C338 C336 1.364 . S
C338 H359 0.931 . S
C339 O350 1.256 . S
C339 O351 1.257 . S
O340 Gd320 2.377 . S
O340 C322 1.240 . S
O341 Gd321 2.395 . S
O341 C322 1.240 . S
O342 Gd320 2.448 . S
O342 C323 1.249 . S
O343 Gd320 2.506 . S
O343 C323 1.252 . S
O344 Gd320 2.435 . S
O344 C330 1.256 . S
O345 Gd320 2.717 . S
O345 Gd321 2.327 . S
O345 C330 1.257 . S
O346 Gd321 2.377 . S
O346 C331 1.240 . S
O347 Gd320 2.395 . S
O347 C331 1.240 . S
O348 Gd321 2.448 . S
O348 C332 1.249 . S
O349 Gd321 2.506 . S
O349 C332 1.252 . S
O350 Gd321 2.435 . S
O350 C339 1.256 . S
O351 Gd320 2.327 . S
O351 Gd321 2.717 . S
O351 C339 1.257 . S
H352 C325 0.930 . S
H353 C326 0.931 . S
H354 C328 0.931 . S
H355 C329 0.931 . S
H356 C334 0.930 . S
H357 C335 0.931 . S
H358 C337 0.931 . S
H359 C338 0.931 . S
Gd360 C363 2.818 . S
Gd360 O380 2.377 . S
Gd360 O382 2.448 . S
Gd360 O383 2.506 . S
Gd360 O384 2.435 . S
Gd360 O385 2.717 . S
Gd360 O387 2.395 . S
Gd360 O391 2.327 . S
Gd361 C372 2.818 . S
Gd361 O381 2.395 . S
Gd361 O385 2.327 . S
Gd361 O386 2.377 . S
Gd361 O388 2.448 . S
Gd361 O389 2.506 . S
Gd361 O390 2.435 . S
Gd361 O391 2.717 . S
C362 O380 1.240 . S
C362 O381 1.240 . S
C363 Gd360 2.818 . S
C363 C364 1.510 . S
C363 O382 1.249 . S
C363 O383 1.252 . S
C364 C363 1.510 . S
C364 C365 1.404 . S
C364 C366 1.352 . S
C365 C364 1.404 . S
C365 C369 1.389 . S
C365 H392 0.930 . S
C366 C364 1.352 . S
C366 C368 1.374 . S
C366 H393 0.931 . S
C367 C368 1.359 . S
C367 C369 1.364 . S
C368 C366 1.374 . S
C368 C367 1.359 . S
C368 H394 0.931 . S
C369 C365 1.389 . S
C369 C367 1.364 . S
C369 H395 0.931 . S
C370 O384 1.256 . S
C370 O385 1.257 . S
C371 O386 1.240 . S
C371 O387 1.240 . S
C372 Gd361 2.818 . S
C372 C373 1.510 . S
C372 O388 1.249 . S
C372 O389 1.252 . S
C373 C372 1.510 . S
C373 C374 1.404 . S
C373 C375 1.352 . S
C374 C373 1.404 . S
C374 C378 1.389 . S
C374 H396 0.930 . S
C375 C373 1.352 . S
C375 C377 1.374 . S
C375 H397 0.931 . S
C376 C377 1.359 . S
C376 C378 1.364 . S
C377 C375 1.374 . S
C377 C376 1.359 . S
C377 H398 0.931 . S
C378 C374 1.389 . S
C378 C376 1.364 . S
C378 H399 0.931 . S
C379 O390 1.256 . S
C379 O391 1.257 . S
O380 Gd360 2.377 . S
O380 C362 1.240 . S
O381 Gd361 2.395 . S
O381 C362 1.240 . S
O382 Gd360 2.448 . S
O382 C363 1.249 . S
O383 Gd360 2.506 . S
O383 C363 1.252 . S
O384 Gd360 2.435 . S
O384 C370 1.256 . S
O385 Gd360 2.717 . S
O385 Gd361 2.327 . S
O385 C370 1.257 . S
O386 Gd361 2.377 . S
O386 C371 1.240 . S
O387 Gd360 2.395 . S
O387 C371 1.240 . S
O388 Gd361 2.448 . S
O388 C372 1.249 . S
O389 Gd361 2.506 . S
O389 C372 1.252 . S
O390 Gd361 2.435 . S
O390 C379 1.256 . S
O391 Gd360 2.327 . S
O391 Gd361 2.717 . S
O391 C379 1.257 . S
H392 C365 0.930 . S
H393 C366 0.931 . S
H394 C368 0.931 . S
H395 C369 0.931 . S
H396 C374 0.930 . S
H397 C375 0.931 . S
H398 C377 0.931 . S
H399 C378 0.931 . S
Gd400 C403 2.818 . S
Gd400 O420 2.377 . S
Gd400 O422 2.448 . S
Gd400 O423 2.506 . S
Gd400 O424 2.435 . S
Gd400 O425 2.717 . S
Gd400 O427 2.395 . S
Gd400 O431 2.327 . S
Gd401 C412 2.818 . S
Gd401 O421 2.395 . S
Gd401 O425 2.327 . S
Gd401 O426 2.377 . S
Gd401 O428 2.448 . S
Gd401 O429 2.506 . S
Gd401 O430 2.435 . S
Gd401 O431 2.717 . S
C402 O420 1.240 . S
C402 O421 1.240 . S
C403 Gd400 2.818 . S
C403 C404 1.510 . S
C403 O422 1.249 . S
C403 O423 1.252 . S
C404 C403 1.510 . S
C404 C405 1.404 . S
C404 C406 1.352 . S
C405 C404 1.404 . S
C405 C409 1.389 . S
C405 H432 0.930 . S
C406 C404 1.352 . S
C406 C408 1.374 . S
C406 H433 0.931 . S
C407 C408 1.359 . S
C407 C409 1.364 . S
C408 C406 1.374 . S
C408 C407 1.359 . S
C408 H434 0.931 . S
C409 C405 1.389 . S
C409 C407 1.364 . S
C409 H435 0.931 . S
C410 O424 1.256 . S
C410 O425 1.257 . S
C411 O426 1.240 . S
C411 O427 1.240 . S
C412 Gd401 2.818 . S
C412 C413 1.510 . S
C412 O428 1.249 . S
C412 O429 1.252 . S
C413 C412 1.510 . S
C413 C414 1.404 . S
C413 C415 1.352 . S
C414 C413 1.404 . S
C414 C418 1.389 . S
C414 H436 0.930 . S
C415 C413 1.352 . S
C415 C417 1.374 . S
C415 H437 0.931 . S
C416 C417 1.359 . S
C416 C418 1.364 . S
C417 C415 1.374 . S
C417 C416 1.359 . S
C417 H438 0.931 . S
C418 C414 1.389 . S
C418 C416 1.364 . S
C418 H439 0.931 . S
C419 O430 1.256 . S
C419 O431 1.257 . S
O420 Gd400 2.377 . S
O420 C402 1.240 . S
O421 Gd401 2.395 . S
O421 C402 1.240 . S
O422 Gd400 2.448 . S
O422 C403 1.249 . S
O423 Gd400 2.506 . S
O423 C403 1.252 . S
O424 Gd400 2.435 . S
O424 C410 1.256 . S
O425 Gd400 2.717 . S
O425 Gd401 2.327 . S
O425 C410 1.257 . S
O426 Gd401 2.377 . S
O426 C411 1.240 . S
O427 Gd400 2.395 . S
O427 C411 1.240 . S
O428 Gd401 2.448 . S
O428 C412 1.249 . S
O429 Gd401 2.506 . S
O429 C412 1.252 . S
O430 Gd401 2.435 . S
O430 C419 1.256 . S
O431 Gd400 2.327 . S
O431 Gd401 2.717 . S
O431 C419 1.257 . S
H432 C405 0.930 . S
H433 C406 0.931 . S
H434 C408 0.931 . S
H435 C409 0.931 . S
H436 C414 0.930 . S
H437 C415 0.931 . S
H438 C417 0.931 . S
H439 C418 0.931 . S
Gd440 C443 2.818 . S
Gd440 O460 2.377 . S
Gd440 O462 2.448 . S
Gd440 O463 2.506 . S
Gd440 O464 2.435 . S
Gd440 O465 2.717 . S
Gd440 O467 2.395 . S
Gd440 O471 2.327 . S
Gd441 C452 2.818 . S
Gd441 O461 2.395 . S
Gd441 O465 2.327 . S
Gd441 O466 2.377 . S
Gd441 O468 2.448 . S
Gd441 O469 2.506 . S
Gd441 O470 2.435 . S
Gd441 O471 2.717 . S
C442 O460 1.240 . S
C442 O461 1.240 . S
C443 Gd440 2.818 . S
C443 C444 1.510 . S
C443 O462 1.249 . S
C443 O463 1.252 . S
C444 C443 1.510 . S
C444 C445 1.404 . S
C444 C446 1.352 . S
C445 C444 1.404 . S
C445 C449 1.389 . S
C445 H472 0.930 . S
C446 C444 1.352 . S
C446 C448 1.374 . S
C446 H473 0.931 . S
C447 C448 1.359 . S
C447 C449 1.364 . S
C448 C446 1.374 . S
C448 C447 1.359 . S
C448 H474 0.931 . S
C449 C445 1.389 . S
C449 C447 1.364 . S
C449 H475 0.931 . S
C450 O464 1.256 . S
C450 O465 1.257 . S
C451 O466 1.240 . S
C451 O467 1.240 . S
C452 Gd441 2.818 . S
C452 C453 1.510 . S
C452 O468 1.249 . S
C452 O469 1.252 . S
C453 C452 1.510 . S
C453 C454 1.404 . S
C453 C455 1.352 . S
C454 C453 1.404 . S
C454 C458 1.389 . S
C454 H476 0.930 . S
C455 C453 1.352 . S
C455 C457 1.374 . S
C455 H477 0.931 . S
C456 C457 1.359 . S
C456 C458 1.364 . S
C457 C455 1.374 . S
C457 C456 1.359 . S
C457 H478 0.931 . S
C458 C454 1.389 . S
C458 C456 1.364 . S
C458 H479 0.931 . S
C459 O470 1.256 . S
C459 O471 1.257 . S
O460 Gd440 2.377 . S
O460 C442 1.240 . S
O461 Gd441 2.395 . S
O461 C442 1.240 . S
O462 Gd440 2.448 . S
O462 C443 1.249 . S
O463 Gd440 2.506 . S
O463 C443 1.252 . S
O464 Gd440 2.435 . S
O464 C450 1.256 . S
O465 Gd440 2.717 . S
O465 Gd441 2.327 . S
O465 C450 1.257 . S
O466 Gd441 2.377 . S
O466 C451 1.240 . S
O467 Gd440 2.395 . S
O467 C451 1.240 . S
O468 Gd441 2.448 . S
O468 C452 1.249 . S
O469 Gd441 2.506 . S
O469 C452 1.252 . S
O470 Gd441 2.435 . S
O470 C459 1.256 . S
O471 Gd440 2.327 . S
O471 Gd441 2.717 . S
O471 C459 1.257 . S
H472 C445 0.930 . S
H473 C446 0.931 . S
H474 C448 0.931 . S
H475 C449 0.931 . S
H476 C454 0.930 . S
H477 C455 0.931 . S
H478 C457 0.931 . S
H479 C458 0.931 . S
Gd480 C483 2.818 . S
Gd480 O500 2.377 . S
Gd480 O502 2.448 . S
Gd480 O503 2.506 . S
Gd480 O504 2.435 . S
Gd480 O505 2.717 . S
Gd480 O507 2.395 . S
Gd480 O511 2.327 . S
Gd481 C492 2.818 . S
Gd481 O501 2.395 . S
Gd481 O505 2.327 . S
Gd481 O506 2.377 . S
Gd481 O508 2.448 . S
Gd481 O509 2.506 . S
Gd481 O510 2.435 . S
Gd481 O511 2.717 . S
C482 O500 1.240 . S
C482 O501 1.240 . S
C483 Gd480 2.818 . S
C483 C484 1.510 . S
C483 O502 1.249 . S
C483 O503 1.252 . S
C484 C483 1.510 . S
C484 C485 1.404 . S
C484 C486 1.352 . S
C485 C484 1.404 . S
C485 C489 1.389 . S
C485 H512 0.930 . S
C486 C484 1.352 . S
C486 C488 1.374 . S
C486 H513 0.931 . S
C487 C488 1.359 . S
C487 C489 1.364 . S
C488 C486 1.374 . S
C488 C487 1.359 . S
C488 H514 0.931 . S
C489 C485 1.389 . S
C489 C487 1.364 . S
C489 H515 0.931 . S
C490 O504 1.256 . S
C490 O505 1.257 . S
C491 O506 1.240 . S
C491 O507 1.240 . S
C492 Gd481 2.818 . S
C492 C493 1.510 . S
C492 O508 1.249 . S
C492 O509 1.252 . S
C493 C492 1.510 . S
C493 C494 1.404 . S
C493 C495 1.352 . S
C494 C493 1.404 . S
C494 C498 1.389 . S
C494 H516 0.930 . S
C495 C493 1.352 . S
C495 C497 1.374 . S
C495 H517 0.931 . S
C496 C497 1.359 . S
C496 C498 1.364 . S
C497 C495 1.374 . S
C497 C496 1.359 . S
C497 H518 0.931 . S
C498 C494 1.389 . S
C498 C496 1.364 . S
C498 H519 0.931 . S
C499 O510 1.256 . S
C499 O511 1.257 . S
O500 Gd480 2.377 . S
O500 C482 1.240 . S
O501 Gd481 2.395 . S
O501 C482 1.240 . S
O502 Gd480 2.448 . S
O502 C483 1.249 . S
O503 Gd480 2.506 . S
O503 C483 1.252 . S
O504 Gd480 2.435 . S
O504 C490 1.256 . S
O505 Gd480 2.717 . S
O505 Gd481 2.327 . S
O505 C490 1.257 . S
O506 Gd481 2.377 . S
O506 C491 1.240 . S
O507 Gd480 2.395 . S
O507 C491 1.240 . S
O508 Gd481 2.448 . S
O508 C492 1.249 . S
O509 Gd481 2.506 . S
O509 C492 1.252 . S
O510 Gd481 2.435 . S
O510 C499 1.256 . S
O511 Gd480 2.327 . S
O511 Gd481 2.717 . S
O511 C499 1.257 . S
H512 C485 0.930 . S
H513 C486 0.931 . S
H514 C488 0.931 . S
H515 C489 0.931 . S
H516 C494 0.930 . S
H517 C495 0.931 . S
H518 C497 0.931 . S
H519 C498 0.931 . S
Gd520 C523 2.818 . S
Gd520 O540 2.377 . S
Gd520 O542 2.448 . S
Gd520 O543 2.506 . S
Gd520 O544 2.435 . S
Gd520 O545 2.717 . S
Gd520 O547 2.395 . S
Gd520 O551 2.327 . S
Gd521 C532 2.818 . S
Gd521 O541 2.395 . S
Gd521 O545 2.327 . S
Gd521 O546 2.377 . S
Gd521 O548 2.448 . S
Gd521 O549 2.506 . S
Gd521 O550 2.435 . S
Gd521 O551 2.717 . S
C522 O540 1.240 . S
C522 O541 1.240 . S
C523 Gd520 2.818 . S
C523 C524 1.510 . S
C523 O542 1.249 . S
C523 O543 1.252 . S
C524 C523 1.510 . S
C524 C525 1.404 . S
C524 C526 1.352 . S
C525 C524 1.404 . S
C525 C529 1.389 . S
C525 H552 0.930 . S
C526 C524 1.352 . S
C526 C528 1.374 . S
C526 H553 0.931 . S
C527 C528 1.359 . S
C527 C529 1.364 . S
C528 C526 1.374 . S
C528 C527 1.359 . S
C528 H554 0.931 . S
C529 C525 1.389 . S
C529 C527 1.364 . S
C529 H555 0.931 . S
C530 O544 1.256 . S
C530 O545 1.257 . S
C531 O546 1.240 . S
C531 O547 1.240 . S
C532 Gd521 2.818 . S
C532 C533 1.510 . S
C532 O548 1.249 . S
C532 O549 1.252 . S
C533 C532 1.510 . S
C533 C534 1.404 . S
C533 C535 1.352 . S
C534 C533 1.404 . S
C534 C538 1.389 . S
C534 H556 0.930 . S
C535 C533 1.352 . S
C535 C537 1.374 . S
C535 H557 0.931 . S
C536 C537 1.359 . S
C536 C538 1.364 . S
C537 C535 1.374 . S
C537 C536 1.359 . S
C537 H558 0.931 . S
C538 C534 1.389 . S
C538 C536 1.364 . S
C538 H559 0.931 . S
C539 O550 1.256 . S
C539 O551 1.257 . S
O540 Gd520 2.377 . S
O540 C522 1.240 . S
O541 Gd521 2.395 . S
O541 C522 1.240 . S
O542 Gd520 2.448 . S
O542 C523 1.249 . S
O543 Gd520 2.506 . S
O543 C523 1.252 . S
O544 Gd520 2.435 . S
O544 C530 1.256 . S
O545 Gd520 2.717 . S
O545 Gd521 2.327 . S
O545 C530 1.257 . S
O546 Gd521 2.377 . S
O546 C531 1.240 . S
O547 Gd520 2.395 . S
O547 C531 1.240 . S
O548 Gd521 2.448 . S
O548 C532 1.249 . S
O549 Gd521 2.506 . S
O549 C532 1.252 . S
O550 Gd521 2.435 . S
O550 C539 1.256 . S
O551 Gd520 2.327 . S
O551 Gd521 2.717 . S
O551 C539 1.257 . S
H552 C525 0.930 . S
H553 C526 0.931 . S
H554 C528 0.931 . S
H555 C529 0.931 . S
H556 C534 0.930 . S
H557 C535 0.931 . S
H558 C537 0.931 . S
H559 C538 0.931 . S
Gd560 C563 2.818 . S
Gd560 O580 2.377 . S
Gd560 O582 2.448 . S
Gd560 O583 2.506 . S
Gd560 O584 2.435 . S
Gd560 O585 2.717 . S
Gd560 O587 2.395 . S
Gd560 O591 2.327 . S
Gd561 C572 2.818 . S
Gd561 O581 2.395 . S
Gd561 O585 2.327 . S
Gd561 O586 2.377 . S
Gd561 O588 2.448 . S
Gd561 O589 2.506 . S
Gd561 O590 2.435 . S
Gd561 O591 2.717 . S
C562 O580 1.240 . S
C562 O581 1.240 . S
C563 Gd560 2.818 . S
C563 C564 1.510 . S
C563 O582 1.249 . S
C563 O583 1.252 . S
C564 C563 1.510 . S
C564 C565 1.404 . S
C564 C566 1.352 . S
C565 C564 1.404 . S
C565 C569 1.389 . S
C565 H592 0.930 . S
C566 C564 1.352 . S
C566 C568 1.374 . S
C566 H593 0.931 . S
C567 C568 1.359 . S
C567 C569 1.364 . S
C568 C566 1.374 . S
C568 C567 1.359 . S
C568 H594 0.931 . S
C569 C565 1.389 . S
C569 C567 1.364 . S
C569 H595 0.931 . S
C570 O584 1.256 . S
C570 O585 1.257 . S
C571 O586 1.240 . S
C571 O587 1.240 . S
C572 Gd561 2.818 . S
C572 C573 1.510 . S
C572 O588 1.249 . S
C572 O589 1.252 . S
C573 C572 1.510 . S
C573 C574 1.404 . S
C573 C575 1.352 . S
C574 C573 1.404 . S
C574 C578 1.389 . S
C574 H596 0.930 . S
C575 C573 1.352 . S
C575 C577 1.374 . S
C575 H597 0.931 . S
C576 C577 1.359 . S
C576 C578 1.364 . S
C577 C575 1.374 . S
C577 C576 1.359 . S
C577 H598 0.931 . S
C578 C574 1.389 . S
C578 C576 1.364 . S
C578 H599 0.931 . S
C579 O590 1.256 . S
C579 O591 1.257 . S
O580 Gd560 2.377 . S
O580 C562 1.240 . S
O581 Gd561 2.395 . S
O581 C562 1.240 . S
O582 Gd560 2.448 . S
O582 C563 1.249 . S
O583 Gd560 2.506 . S
O583 C563 1.252 . S
O584 Gd560 2.435 . S
O584 C570 1.256 . S
O585 Gd560 2.717 . S
O585 Gd561 2.327 . S
O585 C570 1.257 . S
O586 Gd561 2.377 . S
O586 C571 1.240 . S
O587 Gd560 2.395 . S
O587 C571 1.240 . S
O588 Gd561 2.448 . S
O588 C572 1.249 . S
O589 Gd561 2.506 . S
O589 C572 1.252 . S
O590 Gd561 2.435 . S
O590 C579 1.256 . S
O591 Gd560 2.327 . S
O591 Gd561 2.717 . S
O591 C579 1.257 . S
H592 C565 0.930 . S
H593 C566 0.931 . S
H594 C568 0.931 . S
H595 C569 0.931 . S
H596 C574 0.930 . S
H597 C575 0.931 . S
H598 C577 0.931 . S
H599 C578 0.931 . S
Gd600 C603 2.818 . S
Gd600 O620 2.377 . S
Gd600 O622 2.448 . S
Gd600 O623 2.506 . S
Gd600 O624 2.435 . S
Gd600 O625 2.717 . S
Gd600 O627 2.395 . S
Gd600 O631 2.327 . S
Gd601 C612 2.818 . S
Gd601 O621 2.395 . S
Gd601 O625 2.327 . S
Gd601 O626 2.377 . S
Gd601 O628 2.448 . S
Gd601 O629 2.506 . S
Gd601 O630 2.435 . S
Gd601 O631 2.717 . S
C602 O620 1.240 . S
C602 O621 1.240 . S
C603 Gd600 2.818 . S
C603 C604 1.510 . S
C603 O622 1.249 . S
C603 O623 1.252 . S
C604 C603 1.510 . S
C604 C605 1.404 . S
C604 C606 1.352 . S
C605 C604 1.404 . S
C605 C609 1.389 . S
C605 H632 0.930 . S
C606 C604 1.352 . S
C606 C608 1.374 . S
C606 H633 0.931 . S
C607 C608 1.359 . S
C607 C609 1.364 . S
C608 C606 1.374 . S
C608 C607 1.359 . S
C608 H634 0.931 . S
C609 C605 1.389 . S
C609 C607 1.364 . S
C609 H635 0.931 . S
C610 O624 1.256 . S
C610 O625 1.257 . S
C611 O626 1.240 . S
C611 O627 1.240 . S
C612 Gd601 2.818 . S
C612 C613 1.510 . S
C612 O628 1.249 . S
C612 O629 1.252 . S
C613 C612 1.510 . S
C613 C614 1.404 . S
C613 C615 1.352 . S
C614 C613 1.404 . S
C614 C618 1.389 . S
C614 H636 0.930 . S
C615 C613 1.352 . S
C615 C617 1.374 . S
C615 H637 0.931 . S
C616 C617 1.359 . S
C616 C618 1.364 . S
C617 C615 1.374 . S
C617 C616 1.359 . S
C617 H638 0.931 . S
C618 C614 1.389 . S
C618 C616 1.364 . S
C618 H639 0.931 . S
C619 O630 1.256 . S
C619 O631 1.257 . S
O620 Gd600 2.377 . S
O620 C602 1.240 . S
O621 Gd601 2.395 . S
O621 C602 1.240 . S
O622 Gd600 2.448 . S
O622 C603 1.249 . S
O623 Gd600 2.506 . S
O623 C603 1.252 . S
O624 Gd600 2.435 . S
O624 C610 1.256 . S
O625 Gd600 2.717 . S
O625 Gd601 2.327 . S
O625 C610 1.257 . S
O626 Gd601 2.377 . S
O626 C611 1.240 . S
O627 Gd600 2.395 . S
O627 C611 1.240 . S
O628 Gd601 2.448 . S
O628 C612 1.249 . S
O629 Gd601 2.506 . S
O629 C612 1.252 . S
O630 Gd601 2.435 . S
O630 C619 1.256 . S
O631 Gd600 2.327 . S
O631 Gd601 2.717 . S
O631 C619 1.257 . S
H632 C605 0.930 . S
H633 C606 0.931 . S
H634 C608 0.931 . S
H635 C609 0.931 . S
H636 C614 0.930 . S
H637 C615 0.931 . S
H638 C617 0.931 . S
H639 C618 0.931 . S
H640 C648 0.929 . S
H641 C650 0.930 . S
H642 C652 0.930 . S
H643 C655 0.929 . S
H644 C658 0.930 . S
H645 C660 0.960 . S
H646 C660 0.960 . S
H647 C660 0.960 . S
C648 H640 0.929 . S
C648 C649 1.377 . S
C648 C650 1.384 . S
C649 C648 1.377 . S
C649 C655 1.390 . S
C650 H641 0.930 . S
C650 C648 1.384 . S
C650 C651 1.372 . S
C651 C650 1.372 . S
C651 C652 1.400 . S
C651 C656 1.490 . S
C652 H642 0.930 . S
C652 C651 1.400 . S
C652 C655 1.386 . S
H653 C669 0.930 . S
H654 C670 0.931 . S
C655 H643 0.929 . S
C655 C649 1.390 . S
C655 C652 1.386 . S
C656 C651 1.490 . S
C656 C658 1.395 . S
C656 C659 1.403 . S
H657 C663 0.930 . S
C658 H644 0.930 . S
C658 C656 1.395 . S
C658 C661 1.403 . S
C659 C656 1.403 . S
C659 C660 1.524 . S
C659 C663 1.400 . S
C660 H645 0.960 . S
C660 H646 0.960 . S
C660 H647 0.960 . S
C660 C659 1.524 . S
C661 C658 1.403 . S
C661 C662 1.370 1_565 S
C661 C665 1.482 1_565 S
C662 C661 1.370 1_545 S
C662 C663 1.363 1_545 S
C662 C664 1.524 . S
C663 H657 0.930 . S
C663 C659 1.400 . S
C663 C662 1.363 1_565 S
C664 C662 1.524 . S
C664 C666 1.381 . S
C664 C670 1.383 . S
C665 C661 1.482 1_545 S
C665 H671 0.939 1_545 S
C665 H672 0.967 . S
C665 H673 0.988 . S
C666 C664 1.381 . S
C666 C667 1.394 . S
C666 H674 0.930 . S
C667 C666 1.394 . S
C667 C668 1.383 . S
C667 H675 0.929 . S
C668 C667 1.383 . S
C668 C669 1.377 . S
C669 H653 0.930 . S
C669 C668 1.377 . S
C669 C670 1.379 . S
C670 H654 0.931 . S
C670 C664 1.383 . S
C670 C669 1.379 . S
H671 C665 0.939 1_565 S
H672 C665 0.967 . S
H673 C665 0.988 . S
H674 C666 0.930 . S
H675 C667 0.929 . S
H676 C684 0.929 . S
H677 C686 0.930 . S
H678 C688 0.930 . S
H679 C691 0.929 . S
H680 C694 0.930 . S
H681 C696 0.960 . S
H682 C696 0.960 . S
H683 C696 0.960 . S
C684 H676 0.929 . S
C684 C685 1.377 . S
C684 C686 1.384 . S
C685 C684 1.377 . S
C685 C691 1.390 . S
C686 H677 0.930 . S
C686 C684 1.384 . S
C686 C687 1.372 . S
C687 C686 1.372 . S
C687 C688 1.400 . S
C687 C692 1.490 . S
C688 H678 0.930 . S
C688 C687 1.400 . S
C688 C691 1.386 . S
H689 C705 0.930 . S
H690 C706 0.931 . S
C691 H679 0.929 . S
C691 C685 1.390 . S
C691 C688 1.386 . S
C692 C687 1.490 . S
C692 C694 1.395 . S
C692 C695 1.403 . S
H693 C699 0.930 . S
C694 H680 0.930 . S
C694 C692 1.395 . S
C694 C697 1.403 . S
C695 C692 1.403 . S
C695 C696 1.524 . S
C695 C699 1.400 . S
C696 H681 0.960 . S
C696 H682 0.960 . S
C696 H683 0.960 . S
C696 C695 1.524 . S
C697 C694 1.403 . S
C697 C698 1.392 1_655 S
C697 C701 1.495 1_655 S
C698 C697 1.392 1_455 S
C698 C699 1.385 1_455 S
C698 C700 1.478 . S
C699 H693 0.930 . S
C699 C695 1.400 . S
C699 C698 1.385 1_655 S
C700 C698 1.478 . S
C700 C702 1.381 . S
C700 C706 1.383 . S
C701 C697 1.495 1_455 S
C701 H707 0.959 . S
C701 H708 0.961 . S
C701 H709 0.960 . S
C702 C700 1.381 . S
C702 C703 1.394 . S
C702 H710 0.930 . S
C703 C702 1.394 . S
C703 C704 1.383 . S
C703 H711 0.929 . S
C704 C703 1.383 . S
C704 C705 1.377 . S
C705 H689 0.930 . S
C705 C704 1.377 . S
C705 C706 1.379 . S
C706 H690 0.931 . S
C706 C700 1.383 . S
C706 C705 1.379 . S
H707 C701 0.959 . S
H708 C701 0.961 . S
H709 C701 0.960 . S
H710 C702 0.930 . S
H711 C703 0.929 . S
H712 C720 0.929 . S
H713 C722 0.930 . S
H714 C724 0.930 . S
H715 C727 0.929 . S
H716 C730 0.930 . S
H717 C732 0.987 . S
H718 C732 0.954 1_565 S
H719 C732 0.923 1_565 S
C720 H712 0.929 . S
C720 C721 1.377 . S
C720 C722 1.384 . S
C721 C720 1.377 . S
C721 C727 1.390 . S
C722 H713 0.930 . S
C722 C720 1.384 . S
C722 C723 1.372 . S
C723 C722 1.372 . S
C723 C724 1.400 . S
C723 C728 1.467 1_565 S
C724 H714 0.930 . S
C724 C723 1.400 . S
C724 C727 1.386 . S
H725 C741 0.930 . S
H726 C742 0.931 . S
C727 H715 0.929 . S
C727 C721 1.390 . S
C727 C724 1.386 . S
C728 C723 1.467 1_545 S
C728 C730 1.406 . S
C728 C731 1.414 . S
H729 C735 0.930 . S
C730 H716 0.930 . S
C730 C728 1.406 . S
C730 C733 1.403 . S
C731 C728 1.414 . S
C731 C732 1.541 . S
C731 C735 1.400 . S
C732 H717 0.987 . S
C732 H718 0.954 1_545 S
C732 H719 0.923 1_545 S
C732 C731 1.541 . S
C733 C730 1.403 . S
C733 C734 1.392 . S
C733 C737 1.495 . S
C734 C733 1.392 . S
C734 C735 1.385 . S
C734 C736 1.478 . S
C735 H729 0.930 . S
C735 C731 1.400 . S
C735 C734 1.385 . S
C736 C734 1.478 . S
C736 C738 1.381 . S
C736 C742 1.383 . S
C737 C733 1.495 . S
C737 H743 0.959 . S
C737 H744 0.961 . S
C737 H745 0.960 . S
C738 C736 1.381 . S
C738 C739 1.394 . S
C738 H746 0.930 . S
C739 C738 1.394 . S
C739 C740 1.383 . S
C739 H747 0.929 . S
C740 C739 1.383 . S
C740 C741 1.377 . S
C741 H725 0.930 . S
C741 C740 1.377 . S
C741 C742 1.379 . S
C742 H726 0.931 . S
C742 C736 1.383 . S
C742 C741 1.379 . S
H743 C737 0.959 . S
H744 C737 0.961 . S
H745 C737 0.960 . S
H746 C738 0.930 . S
H747 C739 0.929 . S
H748 C756 0.929 . S
H749 C758 0.930 . S
H750 C760 0.930 . S
H751 C763 0.929 . S
H752 C766 0.930 . S
H753 C768 0.967 . S
H754 C768 0.958 1_655 S
H755 C768 0.951 1_655 S
C756 H748 0.929 . S
C756 C757 1.377 . S
C756 C758 1.384 . S
C757 C756 1.377 . S
C757 C763 1.390 . S
C758 H749 0.930 . S
C758 C756 1.384 . S
C758 C759 1.372 . S
C759 C758 1.372 . S
C759 C760 1.400 . S
C759 C764 1.466 1_655 S
C760 H750 0.930 . S
C760 C759 1.400 . S
C760 C763 1.386 . S
H761 C777 0.930 . S
H762 C778 0.931 . S
C763 H751 0.929 . S
C763 C757 1.390 . S
C763 C760 1.386 . S
C764 C759 1.466 1_455 S
C764 C766 1.407 . S
C764 C767 1.414 . S
H765 C771 0.930 . S
C766 H752 0.930 . S
C766 C764 1.407 . S
C766 C769 1.403 . S
C767 C764 1.414 . S
C767 C768 1.528 . S
C767 C771 1.400 . S
C768 H753 0.967 . S
C768 H754 0.958 1_455 S
C768 H755 0.951 1_455 S
C768 C767 1.528 . S
C769 C766 1.403 . S
C769 C770 1.392 . S
C769 C773 1.495 . S
C770 C769 1.392 . S
C770 C771 1.385 . S
C770 C772 1.478 . S
C771 H765 0.930 . S
C771 C767 1.400 . S
C771 C770 1.385 . S
C772 C770 1.478 . S
C772 C774 1.381 . S
C772 C778 1.383 . S
C773 C769 1.495 . S
C773 H779 0.959 . S
C773 H780 0.961 . S
C773 H781 0.960 . S
C774 C772 1.381 . S
C774 C775 1.394 . S
C774 H782 0.930 . S
C775 C774 1.394 . S
C775 C776 1.383 . S
C775 H783 0.929 . S
C776 C775 1.383 . S
C776 C777 1.377 . S
C777 H761 0.930 . S
C777 C776 1.377 . S
C777 C778 1.379 . S
C778 H762 0.931 . S
C778 C772 1.383 . S
C778 C777 1.379 . S
H779 C773 0.959 . S
H780 C773 0.961 . S
H781 C773 0.960 . S
H782 C774 0.930 . S
H783 C775 0.929 . S
H784 C792 0.929 . S
H785 C794 0.930 . S
H786 C796 0.930 . S
H787 C799 0.929 . S
H788 C802 0.930 1_556 S
H789 C804 0.960 . S
H790 C804 0.960 . S
H791 C804 0.960 . S
C792 H784 0.929 . S
C792 C793 1.377 . S
C792 C794 1.384 . S
C793 C792 1.377 . S
C793 C799 1.390 . S
C794 H785 0.930 . S
C794 C792 1.384 . S
C794 C795 1.372 . S
C795 C794 1.372 . S
C795 C796 1.400 . S
C795 C800 1.490 . S
C796 H786 0.930 . S
C796 C795 1.400 . S
C796 C799 1.386 . S
H797 C813 0.930 1_554 S
H798 C814 0.931 . S
C799 H787 0.929 . S
C799 C793 1.390 . S
C799 C796 1.386 . S
C800 C795 1.490 . S
C800 C802 1.395 . S
C800 C803 1.403 . S
H801 C807 0.930 . S
C802 H788 0.930 1_554 S
C802 C800 1.395 . S
C802 C805 1.403 1_554 S
C803 C800 1.403 . S
C803 C804 1.524 . S
C803 C807 1.400 . S
C804 H789 0.960 . S
C804 H790 0.960 . S
C804 H791 0.960 . S
C804 C803 1.524 . S
C805 C802 1.403 1_556 S
C805 C806 1.392 1_556 S
C805 C809 1.495 . S
C806 C805 1.392 1_554 S
C806 C807 1.385 . S
C806 C808 1.478 1_554 S
C807 H801 0.930 . S
C807 C803 1.400 . S
C807 C806 1.385 . S
C808 C806 1.478 1_556 S
C808 C810 1.381 . S
C808 C814 1.383 1_556 S
C809 C805 1.495 . S
C809 H815 0.959 . S
C809 H816 0.961 . S
C809 H817 0.960 . S
C810 C808 1.381 . S
C810 C811 1.394 . S
C810 H818 0.930 . S
C811 C810 1.394 . S
C811 C812 1.383 . S
C811 H819 0.929 . S
C812 C811 1.383 . S
C812 C813 1.377 . S
C813 H797 0.930 1_556 S
C813 C812 1.377 . S
C813 C814 1.379 1_556 S
C814 H798 0.931 . S
C814 C808 1.383 1_554 S
C814 C813 1.379 1_554 S
H815 C809 0.959 . S
H816 C809 0.961 . S
H817 C809 0.960 . S
H818 C810 0.930 . S
H819 C811 0.929 . S
H820 C828 0.929 . S
H821 C830 0.930 1_556 S
H822 C832 0.930 . S
H823 C835 0.929 . S
H824 C838 0.930 . S
H825 C840 0.960 . S
H826 C840 0.960 . S
H827 C840 0.960 . S
C828 H820 0.929 . S
C828 C829 1.377 . S
C828 C830 1.384 . S
C829 C828 1.377 . S
C829 C835 1.390 . S
C830 H821 0.930 1_554 S
C830 C828 1.384 . S
C830 C831 1.372 . S
C831 C830 1.372 . S
C831 C832 1.400 . S
C831 C836 1.490 1_554 S
C832 H822 0.930 . S
C832 C831 1.400 . S
C832 C835 1.386 . S
H833 C849 0.930 . S
H834 C850 0.931 . S
C835 H823 0.929 . S
C835 C829 1.390 . S
C835 C832 1.386 . S
C836 C831 1.490 1_556 S
C836 C838 1.395 . S
C836 C839 1.403 1_556 S
H837 C843 0.930 1_554 S
C838 H824 0.930 . S
C838 C836 1.395 . S
C838 C841 1.403 . S
C839 C836 1.403 1_554 S
C839 C840 1.524 . S
C839 C843 1.400 1_554 S
C840 H825 0.960 . S
C840 H826 0.960 . S
C840 H827 0.960 . S
C840 C839 1.524 . S
C841 C838 1.403 . S
C841 C842 1.392 . S
C841 C845 1.495 . S
C842 C841 1.392 . S
C842 C843 1.385 . S
C842 C844 1.478 . S
C843 H837 0.930 1_556 S
C843 C839 1.400 1_556 S
C843 C842 1.385 . S
C844 C842 1.478 . S
C844 C846 1.381 . S
C844 C850 1.383 . S
C845 C841 1.495 . S
C845 H851 0.959 . S
C845 H852 0.961 . S
C845 H853 0.960 . S
C846 C844 1.381 . S
C846 C847 1.394 . S
C846 H854 0.930 . S
C847 C846 1.394 . S
C847 C848 1.383 . S
C847 H855 0.929 . S
C848 C847 1.383 . S
C848 C849 1.377 . S
C849 H833 0.930 . S
C849 C848 1.377 . S
C849 C850 1.379 . S
C850 H834 0.931 . S
C850 C844 1.383 . S
C850 C849 1.379 . S
H851 C845 0.959 . S
H852 C845 0.961 . S
H853 C845 0.960 . S
H854 C846 0.930 . S
H855 C847 0.929 . S
H856 C864 0.929 . S
H857 C866 0.930 . S
H858 C868 0.930 . S
H859 C871 0.929 . S
H860 C874 0.930 . S
H861 C876 0.960 . S
H862 C876 0.960 1_554 S
H863 C876 0.960 . S
C864 H856 0.929 . S
C864 C865 1.377 . S
C864 C866 1.384 . S
C865 C864 1.377 . S
C865 C871 1.390 . S
C866 H857 0.930 . S
C866 C864 1.384 . S
C866 C867 1.372 . S
C867 C866 1.372 . S
C867 C868 1.400 . S
C867 C872 1.490 . S
C868 H858 0.930 . S
C868 C867 1.400 . S
C868 C871 1.386 . S
H869 C885 0.930 . S
H870 C886 0.931 . S
C871 H859 0.929 . S
C871 C865 1.390 . S
C871 C868 1.386 . S
C872 C867 1.490 . S
C872 C874 1.395 . S
C872 C875 1.403 . S
H873 C879 0.930 . S
C874 H860 0.930 . S
C874 C872 1.395 . S
C874 C877 1.403 . S
C875 C872 1.403 . S
C875 C876 1.524 1_554 S
C875 C879 1.400 1_554 S
C876 H861 0.960 . S
C876 H862 0.960 1_556 S
C876 H863 0.960 . S
C876 C875 1.524 1_556 S
C877 C874 1.403 . S
C877 C878 1.392 . S
C877 C881 1.495 . S
C878 C877 1.392 . S
C878 C879 1.385 1_554 S
C878 C880 1.478 1_554 S
C879 H873 0.930 . S
C879 C875 1.400 1_556 S
C879 C878 1.385 1_556 S
C880 C878 1.478 1_556 S
C880 C882 1.381 1_556 S
C880 C886 1.383 . S
C881 C877 1.495 . S
C881 H887 0.959 . S
C881 H888 0.961 . S
C881 H889 0.960 . S
C882 C880 1.381 1_554 S
C882 C883 1.395 . S
C882 H890 0.930 . S
C883 C882 1.395 . S
C883 C884 1.382 1_554 S
C883 H891 0.930 . S
C884 C883 1.382 1_556 S
C884 C885 1.377 . S
C885 H869 0.930 . S
C885 C884 1.377 . S
C885 C886 1.379 . S
C886 H870 0.931 . S
C886 C880 1.383 . S
C886 C885 1.379 . S
H887 C881 0.959 . S
H888 C881 0.961 . S
H889 C881 0.960 . S
H890 C882 0.930 . S
H891 C883 0.930 . S
H892 C900 0.929 . S
H893 C902 0.930 . S
H894 C904 0.930 1_556 S
H895 C907 0.929 . S
H896 C910 0.930 . S
H897 C912 0.960 . S
H898 C912 0.960 . S
H899 C912 0.960 . S
C900 H892 0.929 . S
C900 C901 1.377 . S
C900 C902 1.384 . S
C901 C900 1.377 . S
C901 C907 1.390 . S
C902 H893 0.930 . S
C902 C900 1.384 . S
C902 C903 1.372 . S
C903 C902 1.372 . S
C903 C904 1.400 . S
C903 C908 1.490 1_554 S
C904 H894 0.930 1_554 S
C904 C903 1.400 . S
C904 C907 1.386 . S
H905 C921 0.930 . S
H906 C922 0.931 . S
C907 H895 0.929 . S
C907 C901 1.390 . S
C907 C904 1.386 . S
C908 C903 1.490 1_556 S
C908 C910 1.395 . S
C908 C911 1.403 1_556 S
H909 C915 0.930 . S
C910 H896 0.930 . S
C910 C908 1.395 . S
C910 C913 1.403 . S
C911 C908 1.403 1_554 S
C911 C912 1.524 . S
C911 C915 1.400 1_554 S
C912 H897 0.960 . S
C912 H898 0.960 . S
C912 H899 0.960 . S
C912 C911 1.524 . S
C913 C910 1.403 . S
C913 C914 1.392 . S
C913 C917 1.495 . S
C914 C913 1.392 . S
C914 C915 1.385 . S
C914 C916 1.478 . S
C915 H909 0.930 . S
C915 C911 1.400 1_556 S
C915 C914 1.385 . S
C916 C914 1.478 . S
C916 C918 1.381 . S
C916 C922 1.383 . S
C917 C913 1.495 . S
C917 H923 0.959 . S
C917 H924 0.961 . S
C917 H925 0.960 . S
C918 C916 1.381 . S
C918 C919 1.394 . S
C918 H926 0.930 . S
C919 C918 1.394 . S
C919 C920 1.383 . S
C919 H927 0.929 . S
C920 C919 1.383 . S
C920 C921 1.377 . S
C921 H905 0.930 . S
C921 C920 1.377 . S
C921 C922 1.379 . S
C922 H906 0.931 . S
C922 C916 1.383 . S
C922 C921 1.379 . S
H923 C917 0.959 . S
H924 C917 0.961 . S
H925 C917 0.960 . S
H926 C918 0.930 . S
H927 C919 0.929 . S
H928 C936 0.929 . S
H929 C938 0.930 . S
H930 C940 0.930 . S
H931 C943 0.929 . S
H932 C946 0.930 . S
H933 C948 0.960 . S
H934 C948 0.960 . S
H935 C948 0.960 . S
C936 H928 0.929 . S
C936 C937 1.377 . S
C936 C938 1.384 . S
C937 C936 1.377 . S
C937 C943 1.390 . S
C938 H929 0.930 . S
C938 C936 1.384 . S
C938 C939 1.372 . S
C939 C938 1.372 . S
C939 C940 1.400 . S
C939 C944 1.490 . S
C940 H930 0.930 . S
C940 C939 1.400 . S
C940 C943 1.386 . S
H941 C957 0.930 . S
H942 C958 0.931 . S
C943 H931 0.929 . S
C943 C937 1.390 . S
C943 C940 1.386 . S
C944 C939 1.490 . S
C944 C946 1.395 . S
C944 C947 1.403 . S
H945 C951 0.930 . S
C946 H932 0.930 . S
C946 C944 1.395 . S
C946 C949 1.403 . S
C947 C944 1.403 . S
C947 C948 1.524 . S
C947 C951 1.400 . S
C948 H933 0.960 . S
C948 H934 0.960 . S
C948 H935 0.960 . S
C948 C947 1.524 . S
C949 C946 1.403 . S
C949 C950 1.392 . S
C949 C953 1.495 . S
C950 C949 1.392 . S
C950 C951 1.385 . S
C950 C952 1.478 . S
C951 H945 0.930 . S
C951 C947 1.400 . S
C951 C950 1.385 . S
C952 C950 1.478 . S
C952 C954 1.381 . S
C952 C958 1.383 . S
C953 C949 1.495 . S
C953 H959 0.959 . S
C953 H960 0.961 . S
C953 H961 0.960 . S
C954 C952 1.381 . S
C954 C955 1.394 . S
C954 H962 0.930 . S
C955 C954 1.394 . S
C955 C956 1.383 . S
C955 H963 0.929 . S
C956 C955 1.383 . S
C956 C957 1.377 . S
C957 H941 0.930 . S
C957 C956 1.377 . S
C957 C958 1.379 . S
C958 H942 0.931 . S
C958 C952 1.383 . S
C958 C957 1.379 . S
H959 C953 0.959 . S
H960 C953 0.961 . S
H961 C953 0.960 . S
H962 C954 0.930 . S
H963 C955 0.929 . S
H964 C972 0.929 . S
H965 C974 0.930 . S
H966 C976 0.930 . S
H967 C979 0.929 . S
H968 C982 0.930 . S
H969 C984 0.960 . S
H970 C984 0.960 . S
H971 C984 0.960 . S
C972 H964 0.929 . S
C972 C973 1.377 . S
C972 C974 1.384 . S
C973 C972 1.377 . S
C973 C979 1.390 . S
C974 H965 0.930 . S
C974 C972 1.384 . S
C974 C975 1.372 . S
C975 C974 1.372 . S
C975 C976 1.400 . S
C975 C980 1.490 . S
C976 H966 0.930 . S
C976 C975 1.400 . S
C976 C979 1.386 . S
H977 C993 0.930 . S
H978 C994 0.931 . S
C979 H967 0.929 . S
C979 C973 1.390 . S
C979 C976 1.386 . S
C980 C975 1.490 . S
C980 C982 1.395 . S
C980 C983 1.403 . S
H981 C987 0.930 . S
C982 H968 0.930 . S
C982 C980 1.395 . S
C982 C985 1.403 . S
C983 C980 1.403 . S
C983 C984 1.524 . S
C983 C987 1.400 . S
C984 H969 0.960 . S
C984 H970 0.960 . S
C984 H971 0.960 . S
C984 C983 1.524 . S
C985 C982 1.403 . S
C985 C986 1.392 . S
C985 C989 1.495 . S
C986 C985 1.392 . S
C986 C987 1.385 . S
C986 C988 1.478 . S
C987 H981 0.930 . S
C987 C983 1.400 . S
C987 C986 1.385 . S
C988 C986 1.478 . S
C988 C990 1.381 . S
C988 C994 1.383 . S
C989 C985 1.495 . S
C989 H995 0.959 . S
C989 H996 0.961 . S
C989 H997 0.960 . S
C990 C988 1.381 . S
C990 C991 1.394 . S
C990 H998 0.930 . S
C991 C990 1.394 . S
C991 C992 1.383 . S
C991 H999 0.929 . S
C992 C991 1.383 . S
C992 C993 1.377 . S
C993 H977 0.930 . S
C993 C992 1.377 . S
C993 C994 1.379 . S
C994 H978 0.931 . S
C994 C988 1.383 . S
C994 C993 1.379 . S
H995 C989 0.959 . S
H996 C989 0.961 . S
H997 C989 0.960 . S
H998 C990 0.930 . S
H999 C991 0.929 . S
H1000 C1008 0.929 . S
H1001 C1010 0.930 . S
H1002 C1012 0.930 . S
H1003 C1015 0.929 . S
H1004 C1018 0.930 . S
H1005 C1020 0.960 . S
H1006 C1020 0.960 . S
H1007 C1020 0.960 . S
C1008 H1000 0.929 . S
C1008 C1009 1.377 . S
C1008 C1010 1.384 . S
C1009 C1008 1.377 . S
C1009 C1015 1.390 . S
C1010 H1001 0.930 . S
C1010 C1008 1.384 . S
C1010 C1011 1.372 . S
C1011 C1010 1.372 . S
C1011 C1012 1.400 . S
C1011 C1016 1.490 . S
C1012 H1002 0.930 . S
C1012 C1011 1.400 . S
C1012 C1015 1.386 . S
H1013 C1029 0.930 . S
H1014 C1030 0.931 . S
C1015 H1003 0.929 . S
C1015 C1009 1.390 . S
C1015 C1012 1.386 . S
C1016 C1011 1.490 . S
C1016 C1018 1.395 . S
C1016 C1019 1.403 . S
H1017 C1023 0.930 . S
C1018 H1004 0.930 . S
C1018 C1016 1.395 . S
C1018 C1021 1.403 . S
C1019 C1016 1.403 . S
C1019 C1020 1.524 . S
C1019 C1023 1.400 . S
C1020 H1005 0.960 . S
C1020 H1006 0.960 . S
C1020 H1007 0.960 . S
C1020 C1019 1.524 . S
C1021 C1018 1.403 . S
C1021 C1022 1.392 . S
C1021 C1025 1.495 . S
C1022 C1021 1.392 . S
C1022 C1023 1.385 . S
C1022 C1024 1.478 . S
C1023 H1017 0.930 . S
C1023 C1019 1.400 . S
C1023 C1022 1.385 . S
C1024 C1022 1.478 . S
C1024 C1026 1.381 . S
C1024 C1030 1.383 . S
C1025 C1021 1.495 . S
C1025 H1031 0.959 . S
C1025 H1032 0.961 . S
C1025 H1033 0.960 . S
C1026 C1024 1.381 . S
C1026 C1027 1.394 . S
C1026 H1034 0.930 . S
C1027 C1026 1.394 . S
C1027 C1028 1.383 . S
C1027 H1035 0.929 . S
C1028 C1027 1.383 . S
C1028 C1029 1.377 . S
C1029 H1013 0.930 . S
C1029 C1028 1.377 . S
C1029 C1030 1.379 . S
C1030 H1014 0.931 . S
C1030 C1024 1.383 . S
C1030 C1029 1.379 . S
H1031 C1025 0.959 . S
H1032 C1025 0.961 . S
H1033 C1025 0.960 . S
H1034 C1026 0.930 . S
H1035 C1027 0.929 . S
H1036 C1044 0.929 . S
H1037 C1046 0.930 . S
H1038 C1048 0.930 . S
H1039 C1051 0.929 . S
H1040 C1054 0.930 . S
H1041 C1056 0.960 . S
H1042 C1056 0.960 . S
H1043 C1056 0.960 . S
C1044 H1036 0.929 . S
C1044 C1045 1.377 . S
C1044 C1046 1.384 . S
C1045 C1044 1.377 . S
C1045 C1051 1.390 . S
C1046 H1037 0.930 . S
C1046 C1044 1.384 . S
C1046 C1047 1.372 . S
C1047 C1046 1.372 . S
C1047 C1048 1.400 . S
C1047 C1052 1.490 . S
C1048 H1038 0.930 . S
C1048 C1047 1.400 . S
C1048 C1051 1.386 . S
H1049 C1065 0.930 . S
H1050 C1066 0.931 . S
C1051 H1039 0.929 . S
C1051 C1045 1.390 . S
C1051 C1048 1.386 . S
C1052 C1047 1.490 . S
C1052 C1054 1.395 . S
C1052 C1055 1.403 . S
H1053 C1059 0.930 . S
C1054 H1040 0.930 . S
C1054 C1052 1.395 . S
C1054 C1057 1.403 . S
C1055 C1052 1.403 . S
C1055 C1056 1.524 . S
C1055 C1059 1.400 . S
C1056 H1041 0.960 . S
C1056 H1042 0.960 . S
C1056 H1043 0.960 . S
C1056 C1055 1.524 . S
C1057 C1054 1.403 . S
C1057 C1058 1.392 . S
C1057 C1061 1.495 . S
C1058 C1057 1.392 . S
C1058 C1059 1.385 . S
C1058 C1060 1.478 . S
C1059 H1053 0.930 . S
C1059 C1055 1.400 . S
C1059 C1058 1.385 . S
C1060 C1058 1.478 . S
C1060 C1062 1.381 . S
C1060 C1066 1.383 . S
C1061 C1057 1.495 . S
C1061 H1067 0.959 . S
C1061 H1068 0.961 . S
C1061 H1069 0.960 . S
C1062 C1060 1.381 . S
C1062 C1063 1.394 . S
C1062 H1070 0.930 . S
C1063 C1062 1.394 . S
C1063 C1064 1.383 . S
C1063 H1071 0.929 . S
C1064 C1063 1.383 . S
C1064 C1065 1.377 . S
C1065 H1049 0.930 . S
C1065 C1064 1.377 . S
C1065 C1066 1.379 . S
C1066 H1050 0.931 . S
C1066 C1060 1.383 . S
C1066 C1065 1.379 . S
H1067 C1061 0.959 . S
H1068 C1061 0.961 . S
H1069 C1061 0.960 . S
H1070 C1062 0.930 . S
H1071 C1063 0.929 . S
H1072 C1080 0.929 . S
H1073 C1082 0.930 . S
H1074 C1084 0.930 . S
H1075 C1087 0.929 . S
H1076 C1090 0.930 . S
H1077 C1092 0.960 . S
H1078 C1092 0.960 . S
H1079 C1092 0.960 . S
C1080 H1072 0.929 . S
C1080 C1081 1.377 . S
C1080 C1082 1.384 . S
C1081 C1080 1.377 . S
C1081 C1087 1.390 . S
C1082 H1073 0.930 . S
C1082 C1080 1.384 . S
C1082 C1083 1.372 . S
C1083 C1082 1.372 . S
C1083 C1084 1.400 . S
C1083 C1088 1.488 1_565 S
C1084 H1074 0.930 . S
C1084 C1083 1.400 . S
C1084 C1087 1.386 . S
H1085 C1101 0.930 . S
H1086 C1102 0.931 . S
C1087 H1075 0.929 . S
C1087 C1081 1.390 . S
C1087 C1084 1.386 . S
C1088 C1083 1.488 1_545 S
C1088 C1090 1.396 . S
C1088 C1091 1.403 . S
H1089 C1095 0.930 . S
C1090 H1076 0.930 . S
C1090 C1088 1.396 . S
C1090 C1093 1.403 . S
C1091 C1088 1.403 . S
C1091 C1092 1.524 1_545 S
C1091 C1095 1.400 . S
C1092 H1077 0.960 . S
C1092 H1078 0.960 . S
C1092 H1079 0.960 . S
C1092 C1091 1.524 1_565 S
C1093 C1090 1.403 . S
C1093 C1094 1.392 . S
C1093 C1097 1.495 . S
C1094 C1093 1.392 . S
C1094 C1095 1.385 . S
C1094 C1096 1.478 . S
C1095 H1089 0.930 . S
C1095 C1091 1.400 . S
C1095 C1094 1.385 . S
C1096 C1094 1.478 . S
C1096 C1098 1.381 . S
C1096 C1102 1.383 . S
C1097 C1093 1.495 . S
C1097 H1103 0.959 . S
C1097 H1104 0.961 . S
C1097 H1105 0.960 . S
C1098 C1096 1.381 . S
C1098 C1099 1.394 . S
C1098 H1106 0.930 . S
C1099 C1098 1.394 . S
C1099 C1100 1.383 . S
C1099 H1107 0.929 . S
C1100 C1099 1.383 . S
C1100 C1101 1.377 . S
C1101 H1085 0.930 . S
C1101 C1100 1.377 . S
C1101 C1102 1.379 . S
C1102 H1086 0.931 . S
C1102 C1096 1.383 . S
C1102 C1101 1.379 . S
H1103 C1097 0.959 . S
H1104 C1097 0.961 . S
H1105 C1097 0.960 . S
H1106 C1098 0.930 . S
H1107 C1099 0.929 . S
H1108 C1116 0.929 . S
H1109 C1118 0.930 . S
H1110 C1120 0.930 . S
H1111 C1123 0.929 . S
H1112 C1126 0.930 . S
H1113 C1128 0.960 . S
H1114 C1128 0.960 . S
H1115 C1128 0.960 . S
C1116 H1108 0.929 . S
C1116 C1117 1.377 . S
C1116 C1118 1.384 . S
C1117 C1116 1.377 . S
C1117 C1123 1.390 . S
C1118 H1109 0.930 . S
C1118 C1116 1.384 . S
C1118 C1119 1.372 . S
C1119 C1118 1.372 . S
C1119 C1120 1.400 . S
C1119 C1124 1.490 . S
C1120 H1110 0.930 . S
C1120 C1119 1.400 . S
C1120 C1123 1.386 . S
H1121 C1137 0.930 . S
H1122 C1138 0.931 . S
C1123 H1111 0.929 . S
C1123 C1117 1.390 . S
C1123 C1120 1.386 . S
C1124 C1119 1.490 . S
C1124 C1126 1.395 . S
C1124 C1127 1.403 . S
H1125 C1131 0.930 . S
C1126 H1112 0.930 . S
C1126 C1124 1.395 . S
C1126 C1129 1.403 . S
C1127 C1124 1.403 . S
C1127 C1128 1.524 . S
C1127 C1131 1.400 . S
C1128 H1113 0.960 . S
C1128 H1114 0.960 . S
C1128 H1115 0.960 . S
C1128 C1127 1.524 . S
C1129 C1126 1.403 . S
C1129 C1130 1.392 1_455 S
C1129 C1133 1.495 1_455 S
C1130 C1129 1.392 1_655 S
C1130 C1131 1.385 1_655 S
C1130 C1132 1.478 . S
C1131 H1125 0.930 . S
C1131 C1127 1.400 . S
C1131 C1130 1.385 1_455 S
C1132 C1130 1.478 . S
C1132 C1134 1.381 . S
C1132 C1138 1.383 . S
C1133 C1129 1.495 1_655 S
C1133 H1139 0.959 . S
C1133 H1140 0.961 . S
C1133 H1141 0.960 . S
C1134 C1132 1.381 . S
C1134 C1135 1.394 . S
C1134 H1142 0.930 . S
C1135 C1134 1.394 . S
C1135 C1136 1.383 . S
C1135 H1143 0.929 . S
C1136 C1135 1.383 . S
C1136 C1137 1.377 . S
C1137 H1121 0.930 . S
C1137 C1136 1.377 . S
C1137 C1138 1.379 . S
C1138 H1122 0.931 . S
C1138 C1132 1.383 . S
C1138 C1137 1.379 . S
H1139 C1133 0.959 . S
H1140 C1133 0.961 . S
H1141 C1133 0.960 . S
H1142 C1134 0.930 . S
H1143 C1135 0.929 . S
H1144 C1152 0.929 . S
H1145 C1154 0.930 . S
H1146 C1156 0.930 . S
H1147 C1159 0.929 . S
H1148 C1162 0.930 . S
H1149 C1164 0.960 . S
H1150 C1164 0.960 . S
H1151 C1164 0.960 . S
C1152 H1144 0.929 . S
C1152 C1153 1.377 . S
C1152 C1154 1.384 . S
C1153 C1152 1.377 . S
C1153 C1159 1.390 . S
C1154 H1145 0.930 . S
C1154 C1152 1.384 . S
C1154 C1155 1.372 . S
C1155 C1154 1.372 . S
C1155 C1156 1.400 . S
C1155 C1160 1.490 . S
C1156 H1146 0.930 . S
C1156 C1155 1.400 . S
C1156 C1159 1.386 . S
H1157 C1173 0.930 . S
H1158 C1174 0.931 . S
C1159 H1147 0.929 . S
C1159 C1153 1.390 . S
C1159 C1156 1.386 . S
C1160 C1155 1.490 . S
C1160 C1162 1.395 . S
C1160 C1163 1.403 . S
H1161 C1167 0.930 . S
C1162 H1148 0.930 . S
C1162 C1160 1.395 . S
C1162 C1165 1.403 . S
C1163 C1160 1.403 . S
C1163 C1164 1.524 . S
C1163 C1167 1.400 . S
C1164 H1149 0.960 . S
C1164 H1150 0.960 . S
C1164 H1151 0.960 . S
C1164 C1163 1.524 . S
C1165 C1162 1.403 . S
C1165 C1166 1.392 1_565 S
C1165 C1169 1.495 1_565 S
C1166 C1165 1.392 1_545 S
C1166 C1167 1.385 1_545 S
C1166 C1168 1.478 . S
C1167 H1161 0.930 . S
C1167 C1163 1.400 . S
C1167 C1166 1.385 1_565 S
C1168 C1166 1.478 . S
C1168 C1170 1.381 . S
C1168 C1174 1.383 . S
C1169 C1165 1.495 1_545 S
C1169 H1175 0.959 . S
C1169 H1176 0.961 . S
C1169 H1177 0.960 . S
C1170 C1168 1.381 . S
C1170 C1171 1.394 . S
C1170 H1178 0.930 . S
C1171 C1170 1.394 . S
C1171 C1172 1.383 . S
C1171 H1179 0.929 . S
C1172 C1171 1.383 . S
C1172 C1173 1.377 . S
C1173 H1157 0.930 . S
C1173 C1172 1.377 . S
C1173 C1174 1.379 . S
C1174 H1158 0.931 . S
C1174 C1168 1.383 . S
C1174 C1173 1.379 . S
H1175 C1169 0.959 . S
H1176 C1169 0.961 . S
H1177 C1169 0.960 . S
H1178 C1170 0.930 . S
H1179 C1171 0.929 . S
H1180 C1188 0.929 . S
H1181 C1190 0.930 . S
H1182 C1192 0.930 . S
H1183 C1195 0.929 . S
H1184 C1198 0.930 1_455 S
H1185 C1200 0.960 . S
H1186 C1200 0.960 . S
H1187 C1200 0.960 . S
C1188 H1180 0.929 . S
C1188 C1189 1.377 . S
C1188 C1190 1.384 . S
C1189 C1188 1.377 . S
C1189 C1195 1.390 . S
C1190 H1181 0.930 . S
C1190 C1188 1.384 . S
C1190 C1191 1.372 . S
C1191 C1190 1.372 . S
C1191 C1192 1.400 . S
C1191 C1196 1.520 . S
C1192 H1182 0.930 . S
C1192 C1191 1.400 . S
C1192 C1195 1.386 . S
H1193 C1209 0.930 . S
H1194 C1210 0.931 . S
C1195 H1183 0.929 . S
C1195 C1189 1.390 . S
C1195 C1192 1.386 . S
C1196 C1191 1.520 . S
C1196 C1198 1.391 1_455 S
C1196 C1199 1.377 1_455 S
H1197 C1203 0.930 . S
C1198 H1184 0.930 1_655 S
C1198 C1196 1.391 1_655 S
C1198 C1201 1.403 . S
C1199 C1196 1.377 1_655 S
C1199 C1200 1.524 . S
C1199 C1203 1.400 . S
C1200 H1185 0.960 . S
C1200 H1186 0.960 . S
C1200 H1187 0.960 . S
C1200 C1199 1.524 . S
C1201 C1198 1.403 . S
C1201 C1202 1.392 . S
C1201 C1205 1.495 . S
C1202 C1201 1.392 . S
C1202 C1203 1.385 . S
C1202 C1204 1.478 . S
C1203 H1197 0.930 . S
C1203 C1199 1.400 . S
C1203 C1202 1.385 . S
C1204 C1202 1.478 . S
C1204 C1206 1.381 . S
C1204 C1210 1.383 . S
C1205 C1201 1.495 . S
C1205 H1211 0.959 . S
C1205 H1212 0.961 . S
C1205 H1213 0.960 . S
C1206 C1204 1.381 . S
C1206 C1207 1.394 . S
C1206 H1214 0.930 . S
C1207 C1206 1.394 . S
C1207 C1208 1.383 . S
C1207 H1215 0.929 . S
C1208 C1207 1.383 . S
C1208 C1209 1.377 . S
C1209 H1193 0.930 . S
C1209 C1208 1.377 . S
C1209 C1210 1.379 . S
C1210 H1194 0.931 . S
C1210 C1204 1.383 . S
C1210 C1209 1.379 . S
H1211 C1205 0.959 . S
H1212 C1205 0.961 . S
H1213 C1205 0.960 . S
H1214 C1206 0.930 . S
H1215 C1207 0.929 . S
H1216 C1224 0.929 . S
H1217 C1226 0.930 . S
H1218 C1228 0.930 . S
H1219 C1231 0.929 . S
H1220 C1234 0.930 . S
H1221 C1236 0.960 . S
H1222 C1236 0.960 . S
H1223 C1236 0.960 . S
C1224 H1216 0.929 . S
C1224 C1225 1.377 . S
C1224 C1226 1.384 . S
C1225 C1224 1.377 . S
C1225 C1231 1.390 . S
C1226 H1217 0.930 . S
C1226 C1224 1.384 . S
C1226 C1227 1.372 . S
C1227 C1226 1.372 . S
C1227 C1228 1.400 . S
C1227 C1232 1.490 . S
C1228 H1218 0.930 . S
C1228 C1227 1.400 . S
C1228 C1231 1.386 . S
H1229 C1245 0.930 . S
H1230 C1246 0.931 . S
C1231 H1219 0.929 . S
C1231 C1225 1.390 . S
C1231 C1228 1.386 . S
C1232 C1227 1.490 . S
C1232 C1234 1.395 . S
C1232 C1235 1.403 . S
H1233 C1239 0.930 . S
C1234 H1220 0.930 . S
C1234 C1232 1.395 . S
C1234 C1237 1.403 . S
C1235 C1232 1.403 . S
C1235 C1236 1.524 . S
C1235 C1239 1.400 . S
C1236 H1221 0.960 . S
C1236 H1222 0.960 . S
C1236 H1223 0.960 . S
C1236 C1235 1.524 . S
C1237 C1234 1.403 . S
C1237 C1238 1.392 . S
C1237 C1241 1.495 . S
C1238 C1237 1.392 . S
C1238 C1239 1.385 . S
C1238 C1240 1.478 . S
C1239 H1233 0.930 . S
C1239 C1235 1.400 . S
C1239 C1238 1.385 . S
C1240 C1238 1.478 . S
C1240 C1242 1.381 . S
C1240 C1246 1.383 . S
C1241 C1237 1.495 . S
C1241 H1247 0.959 . S
C1241 H1248 0.961 . S
C1241 H1249 0.960 . S
C1242 C1240 1.381 . S
C1242 C1243 1.394 . S
C1242 H1250 0.930 . S
C1243 C1242 1.394 . S
C1243 C1244 1.383 . S
C1243 H1251 0.929 . S
C1244 C1243 1.383 . S
C1244 C1245 1.377 . S
C1245 H1229 0.930 . S
C1245 C1244 1.377 . S
C1245 C1246 1.379 . S
C1246 H1230 0.931 . S
C1246 C1240 1.383 . S
C1246 C1245 1.379 . S
H1247 C1241 0.959 . S
H1248 C1241 0.961 . S
H1249 C1241 0.960 . S
H1250 C1242 0.930 . S
H1251 C1243 0.929 . S
H1252 C1260 0.929 . S
H1253 C1262 0.930 . S
H1254 C1264 0.930 . S
H1255 C1267 0.929 . S
H1256 C1270 0.930 . S
H1257 C1272 0.960 . S
H1258 C1272 0.960 . S
H1259 C1272 0.960 . S
C1260 H1252 0.929 . S
C1260 C1261 1.377 . S
C1260 C1262 1.384 . S
C1261 C1260 1.377 . S
C1261 C1267 1.390 . S
C1262 H1253 0.930 . S
C1262 C1260 1.384 . S
C1262 C1263 1.372 . S
C1263 C1262 1.372 . S
C1263 C1264 1.400 . S
C1263 C1268 1.490 . S
C1264 H1254 0.930 . S
C1264 C1263 1.400 . S
C1264 C1267 1.386 . S
H1265 C1281 0.930 . S
H1266 C1282 0.931 . S
C1267 H1255 0.929 . S
C1267 C1261 1.390 . S
C1267 C1264 1.386 . S
C1268 C1263 1.490 . S
C1268 C1270 1.395 . S
C1268 C1271 1.403 . S
H1269 C1275 0.930 . S
C1270 H1256 0.930 . S
C1270 C1268 1.395 . S
C1270 C1273 1.403 . S
C1271 C1268 1.403 . S
C1271 C1272 1.524 . S
C1271 C1275 1.400 . S
C1272 H1257 0.960 . S
C1272 H1258 0.960 . S
C1272 H1259 0.960 . S
C1272 C1271 1.524 . S
C1273 C1270 1.403 . S
C1273 C1274 1.392 . S
C1273 C1277 1.495 . S
C1274 C1273 1.392 . S
C1274 C1275 1.385 . S
C1274 C1276 1.478 . S
C1275 H1269 0.930 . S
C1275 C1271 1.400 . S
C1275 C1274 1.385 . S
C1276 C1274 1.478 . S
C1276 C1278 1.381 . S
C1276 C1282 1.383 . S
C1277 C1273 1.495 . S
C1277 H1283 0.959 . S
C1277 H1284 0.961 . S
C1277 H1285 0.960 . S
C1278 C1276 1.381 . S
C1278 C1279 1.394 . S
C1278 H1286 0.930 . S
C1279 C1278 1.394 . S
C1279 C1280 1.383 . S
C1279 H1287 0.929 . S
C1280 C1279 1.383 . S
C1280 C1281 1.377 . S
C1281 H1265 0.930 . S
C1281 C1280 1.377 . S
C1281 C1282 1.379 . S
C1282 H1266 0.931 . S
C1282 C1276 1.383 . S
C1282 C1281 1.379 . S
H1283 C1277 0.959 . S
H1284 C1277 0.961 . S
H1285 C1277 0.960 . S
H1286 C1278 0.930 . S
H1287 C1279 0.929 . S
H1288 C1296 0.929 . S
H1289 C1298 0.930 . S
H1290 C1300 0.930 . S
H1291 C1303 0.929 . S
H1292 C1306 0.930 . S
H1293 C1308 0.960 . S
H1294 C1308 0.960 . S
H1295 C1308 0.960 . S
C1296 H1288 0.929 . S
C1296 C1297 1.377 . S
C1296 C1298 1.384 . S
C1297 C1296 1.377 . S
C1297 C1303 1.390 . S
C1298 H1289 0.930 . S
C1298 C1296 1.384 . S
C1298 C1299 1.372 . S
C1299 C1298 1.372 . S
C1299 C1300 1.400 . S
C1299 C1304 1.490 . S
C1300 H1290 0.930 . S
C1300 C1299 1.400 . S
C1300 C1303 1.386 . S
H1301 C1317 0.930 . S
H1302 C1318 0.931 . S
C1303 H1291 0.929 . S
C1303 C1297 1.390 . S
C1303 C1300 1.386 . S
C1304 C1299 1.490 . S
C1304 C1306 1.395 . S
C1304 C1307 1.403 . S
H1305 C1311 0.930 . S
C1306 H1292 0.930 . S
C1306 C1304 1.395 . S
C1306 C1309 1.403 . S
C1307 C1304 1.403 . S
C1307 C1308 1.524 . S
C1307 C1311 1.400 . S
C1308 H1293 0.960 . S
C1308 H1294 0.960 . S
C1308 H1295 0.960 . S
C1308 C1307 1.524 . S
C1309 C1306 1.403 . S
C1309 C1310 1.392 . S
C1309 C1313 1.495 . S
C1310 C1309 1.392 . S
C1310 C1311 1.385 . S
C1310 C1312 1.478 . S
C1311 H1305 0.930 . S
C1311 C1307 1.400 . S
C1311 C1310 1.385 . S
C1312 C1310 1.478 . S
C1312 C1314 1.381 . S
C1312 C1318 1.383 . S
C1313 C1309 1.495 . S
C1313 H1319 0.959 . S
C1313 H1320 0.961 . S
C1313 H1321 0.960 . S
C1314 C1312 1.381 . S
C1314 C1315 1.394 . S
C1314 H1322 0.930 . S
C1315 C1314 1.394 . S
C1315 C1316 1.383 . S
C1315 H1323 0.929 . S
C1316 C1315 1.383 . S
C1316 C1317 1.377 . S
C1317 H1301 0.930 . S
C1317 C1316 1.377 . S
C1317 C1318 1.379 . S
C1318 H1302 0.931 . S
C1318 C1312 1.383 . S
C1318 C1317 1.379 . S
H1319 C1313 0.959 . S
H1320 C1313 0.961 . S
H1321 C1313 0.960 . S
H1322 C1314 0.930 . S
H1323 C1315 0.929 . S
H1324 C1332 0.929 . S
H1325 C1334 0.930 . S
H1326 C1336 0.930 . S
H1327 C1339 0.929 . S
H1328 C1342 0.930 . S
H1329 C1344 0.960 . S
H1330 C1344 0.960 . S
H1331 C1344 0.960 . S
C1332 H1324 0.929 . S
C1332 C1333 1.377 . S
C1332 C1334 1.384 . S
C1333 C1332 1.377 . S
C1333 C1339 1.390 . S
C1334 H1325 0.930 . S
C1334 C1332 1.384 . S
C1334 C1335 1.372 . S
C1335 C1334 1.372 . S
C1335 C1336 1.400 . S
C1335 C1340 1.490 . S
C1336 H1326 0.930 . S
C1336 C1335 1.400 . S
C1336 C1339 1.386 . S
H1337 C1353 0.930 . S
H1338 C1354 0.931 . S
C1339 H1327 0.929 . S
C1339 C1333 1.390 . S
C1339 C1336 1.386 . S
C1340 C1335 1.490 . S
C1340 C1342 1.395 . S
C1340 C1343 1.403 . S
H1341 C1347 0.930 . S
C1342 H1328 0.930 . S
C1342 C1340 1.395 . S
C1342 C1345 1.403 . S
C1343 C1340 1.403 . S
C1343 C1344 1.524 . S
C1343 C1347 1.400 . S
C1344 H1329 0.960 . S
C1344 H1330 0.960 . S
C1344 H1331 0.960 . S
C1344 C1343 1.524 . S
C1345 C1342 1.403 . S
C1345 C1346 1.392 . S
C1345 C1349 1.495 . S
C1346 C1345 1.392 . S
C1346 C1347 1.385 . S
C1346 C1348 1.478 . S
C1347 H1341 0.930 . S
C1347 C1343 1.400 . S
C1347 C1346 1.385 . S
C1348 C1346 1.478 . S
C1348 C1350 1.381 . S
C1348 C1354 1.383 . S
C1349 C1345 1.495 . S
C1349 H1355 0.959 . S
C1349 H1356 0.961 . S
C1349 H1357 0.960 . S
C1350 C1348 1.381 . S
C1350 C1351 1.394 . S
C1350 H1358 0.930 . S
C1351 C1350 1.394 . S
C1351 C1352 1.383 . S
C1351 H1359 0.929 . S
C1352 C1351 1.383 . S
C1352 C1353 1.377 . S
C1353 H1337 0.930 . S
C1353 C1352 1.377 . S
C1353 C1354 1.379 . S
C1354 H1338 0.931 . S
C1354 C1348 1.383 . S
C1354 C1353 1.379 . S
H1355 C1349 0.959 . S
H1356 C1349 0.961 . S
H1357 C1349 0.960 . S
H1358 C1350 0.930 . S
H1359 C1351 0.929 . S
H1360 C1368 0.929 . S
H1361 C1370 0.930 . S
H1362 C1372 0.930 . S
H1363 C1375 0.929 . S
H1364 C1378 0.930 . S
H1365 C1380 0.960 . S
H1366 C1380 0.960 . S
H1367 C1380 0.960 . S
C1368 H1360 0.929 . S
C1368 C1369 1.377 . S
C1368 C1370 1.384 . S
C1369 C1368 1.377 . S
C1369 C1375 1.390 . S
C1370 H1361 0.930 . S
C1370 C1368 1.384 . S
C1370 C1371 1.372 . S
C1371 C1370 1.372 . S
C1371 C1372 1.400 . S
C1371 C1376 1.490 . S
C1372 H1362 0.930 . S
C1372 C1371 1.400 . S
C1372 C1375 1.386 . S
H1373 C1389 0.930 . S
H1374 C1390 0.931 . S
C1375 H1363 0.929 . S
C1375 C1369 1.390 . S
C1375 C1372 1.386 . S
C1376 C1371 1.490 . S
C1376 C1378 1.395 . S
C1376 C1379 1.403 . S
H1377 C1383 0.930 . S
C1378 H1364 0.930 . S
C1378 C1376 1.395 . S
C1378 C1381 1.403 . S
C1379 C1376 1.403 . S
C1379 C1380 1.524 . S
C1379 C1383 1.400 . S
C1380 H1365 0.960 . S
C1380 H1366 0.960 . S
C1380 H1367 0.960 . S
C1380 C1379 1.524 . S
C1381 C1378 1.403 . S
C1381 C1382 1.392 . S
C1381 C1385 1.495 . S
C1382 C1381 1.392 . S
C1382 C1383 1.385 . S
C1382 C1384 1.478 . S
C1383 H1377 0.930 . S
C1383 C1379 1.400 . S
C1383 C1382 1.385 . S
C1384 C1382 1.478 . S
C1384 C1386 1.381 . S
C1384 C1390 1.383 . S
C1385 C1381 1.495 . S
C1385 H1391 0.959 . S
C1385 H1392 0.961 . S
C1385 H1393 0.960 . S
C1386 C1384 1.381 . S
C1386 C1387 1.394 . S
C1386 H1394 0.930 . S
C1387 C1386 1.394 . S
C1387 C1388 1.383 . S
C1387 H1395 0.929 . S
C1388 C1387 1.383 . S
C1388 C1389 1.377 . S
C1389 H1373 0.930 . S
C1389 C1388 1.377 . S
C1389 C1390 1.379 . S
C1390 H1374 0.931 . S
C1390 C1384 1.383 . S
C1390 C1389 1.379 . S
H1391 C1385 0.959 . S
H1392 C1385 0.961 . S
H1393 C1385 0.960 . S
H1394 C1386 0.930 . S
H1395 C1387 0.929 . S
H1396 C1404 0.929 . S
H1397 C1406 0.930 . S
H1398 C1408 0.930 . S
H1399 C1411 0.929 . S
H1400 C1414 0.930 . S
H1401 C1416 0.960 . S
H1402 C1416 0.960 . S
H1403 C1416 0.960 . S
C1404 H1396 0.929 . S
C1404 C1405 1.377 . S
C1404 C1406 1.384 . S
C1405 C1404 1.377 . S
C1405 C1411 1.390 . S
C1406 H1397 0.930 . S
C1406 C1404 1.384 . S
C1406 C1407 1.372 . S
C1407 C1406 1.372 . S
C1407 C1408 1.400 . S
C1407 C1412 1.490 . S
C1408 H1398 0.930 . S
C1408 C1407 1.400 . S
C1408 C1411 1.386 . S
H1409 C1425 0.930 . S
H1410 C1426 0.931 . S
C1411 H1399 0.929 . S
C1411 C1405 1.390 . S
C1411 C1408 1.386 . S
C1412 C1407 1.490 . S
C1412 C1414 1.395 . S
C1412 C1415 1.403 . S
H1413 C1419 0.930 . S
C1414 H1400 0.930 . S
C1414 C1412 1.395 . S
C1414 C1417 1.403 . S
C1415 C1412 1.403 . S
C1415 C1416 1.524 . S
C1415 C1419 1.400 . S
C1416 H1401 0.960 . S
C1416 H1402 0.960 . S
C1416 H1403 0.960 . S
C1416 C1415 1.524 . S
C1417 C1414 1.403 . S
C1417 C1418 1.392 . S
C1417 C1421 1.495 . S
C1418 C1417 1.392 . S
C1418 C1419 1.385 . S
C1418 C1420 1.478 . S
C1419 H1413 0.930 . S
C1419 C1415 1.400 . S
C1419 C1418 1.385 . S
C1420 C1418 1.478 . S
C1420 C1422 1.381 . S
C1420 C1426 1.383 . S
C1421 C1417 1.495 . S
C1421 H1427 0.959 . S
C1421 H1428 0.961 . S
C1421 H1429 0.960 . S
C1422 C1420 1.381 . S
C1422 C1423 1.394 . S
C1422 H1430 0.930 . S
C1423 C1422 1.394 . S
C1423 C1424 1.383 . S
C1423 H1431 0.929 . S
C1424 C1423 1.383 . S
C1424 C1425 1.377 . S
C1425 H1409 0.930 . S
C1425 C1424 1.377 . S
C1425 C1426 1.379 . S
C1426 H1410 0.931 . S
C1426 C1420 1.383 . S
C1426 C1425 1.379 . S
H1427 C1421 0.959 . S
H1428 C1421 0.961 . S
H1429 C1421 0.960 . S
H1430 C1422 0.930 . S
H1431 C1423 0.929 . S
H1432 C1440 0.929 . S
H1433 C1442 0.930 . S
H1434 C1444 0.930 . S
H1435 C1447 0.929 . S
H1436 C1450 0.930 . S
H1437 C1452 0.960 . S
H1438 C1452 0.960 . S
H1439 C1452 0.960 . S
C1440 H1432 0.929 . S
C1440 C1441 1.377 . S
C1440 C1442 1.384 . S
C1441 C1440 1.377 . S
C1441 C1447 1.390 . S
C1442 H1433 0.930 . S
C1442 C1440 1.384 . S
C1442 C1443 1.372 . S
C1443 C1442 1.372 . S
C1443 C1444 1.400 . S
C1443 C1448 1.490 . S
C1444 H1434 0.930 . S
C1444 C1443 1.400 . S
C1444 C1447 1.386 . S
H1445 C1461 0.930 . S
H1446 C1462 0.931 . S
C1447 H1435 0.929 . S
C1447 C1441 1.390 . S
C1447 C1444 1.386 . S
C1448 C1443 1.490 . S
C1448 C1450 1.395 . S
C1448 C1451 1.403 . S
H1449 C1455 0.930 . S
C1450 H1436 0.930 . S
C1450 C1448 1.395 . S
C1450 C1453 1.403 . S
C1451 C1448 1.403 . S
C1451 C1452 1.524 . S
C1451 C1455 1.400 . S
C1452 H1437 0.960 . S
C1452 H1438 0.960 . S
C1452 H1439 0.960 . S
C1452 C1451 1.524 . S
C1453 C1450 1.403 . S
C1453 C1454 1.392 . S
C1453 C1457 1.495 . S
C1454 C1453 1.392 . S
C1454 C1455 1.385 . S
C1454 C1456 1.478 . S
C1455 H1449 0.930 . S
C1455 C1451 1.400 . S
C1455 C1454 1.385 . S
C1456 C1454 1.478 . S
C1456 C1458 1.381 . S
C1456 C1462 1.383 . S
C1457 C1453 1.495 . S
C1457 H1463 0.959 . S
C1457 H1464 0.961 . S
C1457 H1465 0.960 . S
C1458 C1456 1.381 . S
C1458 C1459 1.394 . S
C1458 H1466 0.930 . S
C1459 C1458 1.394 . S
C1459 C1460 1.383 . S
C1459 H1467 0.929 . S
C1460 C1459 1.383 . S
C1460 C1461 1.377 . S
C1461 H1445 0.930 . S
C1461 C1460 1.377 . S
C1461 C1462 1.379 . S
C1462 H1446 0.931 . S
C1462 C1456 1.383 . S
C1462 C1461 1.379 . S
H1463 C1457 0.959 . S
H1464 C1457 0.961 . S
H1465 C1457 0.960 . S
H1466 C1458 0.930 . S
H1467 C1459 0.929 . S
H1468 C1476 0.929 . S
H1469 C1478 0.930 . S
H1470 C1480 0.930 . S
H1471 C1483 0.929 . S
H1472 C1486 0.930 . S
H1473 C1488 0.960 . S
H1474 C1488 0.960 . S
H1475 C1488 0.960 . S
C1476 H1468 0.929 . S
C1476 C1477 1.377 . S
C1476 C1478 1.384 . S
C1477 C1476 1.377 . S
C1477 C1483 1.390 . S
C1478 H1469 0.930 . S
C1478 C1476 1.384 . S
C1478 C1479 1.372 . S
C1479 C1478 1.372 . S
C1479 C1480 1.400 . S
C1479 C1484 1.490 . S
C1480 H1470 0.930 . S
C1480 C1479 1.400 . S
C1480 C1483 1.386 . S
H1481 C1497 0.930 . S
H1482 C1498 0.931 . S
C1483 H1471 0.929 . S
C1483 C1477 1.390 . S
C1483 C1480 1.386 . S
C1484 C1479 1.490 . S
C1484 C1486 1.395 . S
C1484 C1487 1.403 . S
H1485 C1491 0.930 . S
C1486 H1472 0.930 . S
C1486 C1484 1.395 . S
C1486 C1489 1.403 . S
C1487 C1484 1.403 . S
C1487 C1488 1.524 . S
C1487 C1491 1.400 . S
C1488 H1473 0.960 . S
C1488 H1474 0.960 . S
C1488 H1475 0.960 . S
C1488 C1487 1.524 . S
C1489 C1486 1.403 . S
C1489 C1490 1.392 . S
C1489 C1493 1.495 . S
C1490 C1489 1.392 . S
C1490 C1491 1.385 . S
C1490 C1492 1.478 . S
C1491 H1485 0.930 . S
C1491 C1487 1.400 . S
C1491 C1490 1.385 . S
C1492 C1490 1.478 . S
C1492 C1494 1.381 . S
C1492 C1498 1.383 . S
C1493 C1489 1.495 . S
C1493 H1499 0.959 . S
C1493 H1500 0.961 . S
C1493 H1501 0.960 . S
C1494 C1492 1.381 . S
C1494 C1495 1.394 . S
C1494 H1502 0.930 . S
C1495 C1494 1.394 . S
C1495 C1496 1.383 . S
C1495 H1503 0.929 . S
C1496 C1495 1.383 . S
C1496 C1497 1.377 . S
C1497 H1481 0.930 . S
C1497 C1496 1.377 . S
C1497 C1498 1.379 . S
C1498 H1482 0.931 . S
C1498 C1492 1.383 . S
C1498 C1497 1.379 . S
H1499 C1493 0.959 . S
H1500 C1493 0.961 . S
H1501 C1493 0.960 . S
H1502 C1494 0.930 . S
H1503 C1495 0.929 . S
H1504 C1512 0.929 . S
H1505 C1514 0.930 . S
H1506 C1516 0.930 . S
H1507 C1519 0.929 . S
H1508 C1522 0.930 . S
H1509 C1524 0.960 . S
H1510 C1524 0.960 . S
H1511 C1524 0.960 . S
C1512 H1504 0.929 . S
C1512 C1513 1.377 . S
C1512 C1514 1.384 . S
C1513 C1512 1.377 . S
C1513 C1519 1.390 . S
C1514 H1505 0.930 . S
C1514 C1512 1.384 . S
C1514 C1515 1.372 . S
C1515 C1514 1.372 . S
C1515 C1516 1.400 . S
C1515 C1520 1.490 . S
C1516 H1506 0.930 . S
C1516 C1515 1.400 . S
C1516 C1519 1.386 . S
H1517 C1533 0.930 . S
H1518 C1534 0.931 . S
C1519 H1507 0.929 . S
C1519 C1513 1.390 . S
C1519 C1516 1.386 . S
C1520 C1515 1.490 . S
C1520 C1522 1.395 . S
C1520 C1523 1.403 . S
H1521 C1527 0.930 . S
C1522 H1508 0.930 . S
C1522 C1520 1.395 . S
C1522 C1525 1.403 . S
C1523 C1520 1.403 . S
C1523 C1524 1.524 . S
C1523 C1527 1.400 . S
C1524 H1509 0.960 . S
C1524 H1510 0.960 . S
C1524 H1511 0.960 . S
C1524 C1523 1.524 . S
C1525 C1522 1.403 . S
C1525 C1526 1.392 . S
C1525 C1529 1.495 . S
C1526 C1525 1.392 . S
C1526 C1527 1.385 . S
C1526 C1528 1.478 . S
C1527 H1521 0.930 . S
C1527 C1523 1.400 . S
C1527 C1526 1.385 . S
C1528 C1526 1.478 . S
C1528 C1530 1.381 . S
C1528 C1534 1.383 . S
C1529 C1525 1.495 . S
C1529 H1535 0.959 . S
C1529 H1536 0.961 . S
C1529 H1537 0.960 . S
C1530 C1528 1.381 . S
C1530 C1531 1.394 1_556 S
C1530 H1538 0.930 . S
C1531 C1530 1.394 1_554 S
C1531 C1532 1.383 . S
C1531 H1539 0.929 . S
C1532 C1531 1.383 . S
C1532 C1533 1.377 1_554 S
C1533 H1517 0.930 . S
C1533 C1532 1.377 1_556 S
C1533 C1534 1.379 . S
C1534 H1518 0.931 . S
C1534 C1528 1.383 . S
C1534 C1533 1.379 . S
H1535 C1529 0.959 . S
H1536 C1529 0.961 . S
H1537 C1529 0.960 . S
H1538 C1530 0.930 . S
H1539 C1531 0.929 . S
H1540 C1548 0.929 . S
H1541 C1550 0.930 . S
H1542 C1552 0.930 . S
H1543 C1555 0.929 . S
H1544 C1558 0.930 . S
H1545 C1560 0.960 . S
H1546 C1560 0.960 . S
H1547 C1560 0.960 . S
C1548 H1540 0.929 . S
C1548 C1549 1.377 . S
C1548 C1550 1.384 1_556 S
C1549 C1548 1.377 . S
C1549 C1555 1.390 1_556 S
C1550 H1541 0.930 . S
C1550 C1548 1.384 1_554 S
C1550 C1551 1.372 . S
C1551 C1550 1.372 . S
C1551 C1552 1.400 . S
C1551 C1556 1.490 . S
C1552 H1542 0.930 . S
C1552 C1551 1.400 . S
C1552 C1555 1.386 . S
H1553 C1569 0.930 . S
H1554 C1570 0.931 . S
C1555 H1543 0.929 . S
C1555 C1549 1.390 1_554 S
C1555 C1552 1.386 . S
C1556 C1551 1.490 . S
C1556 C1558 1.395 . S
C1556 C1559 1.403 . S
H1557 C1563 0.930 . S
C1558 H1544 0.930 . S
C1558 C1556 1.395 . S
C1558 C1561 1.403 . S
C1559 C1556 1.403 . S
C1559 C1560 1.524 . S
C1559 C1563 1.400 . S
C1560 H1545 0.960 . S
C1560 H1546 0.960 . S
C1560 H1547 0.960 . S
C1560 C1559 1.524 . S
C1561 C1558 1.403 . S
C1561 C1562 1.392 . S
C1561 C1565 1.495 . S
C1562 C1561 1.392 . S
C1562 C1563 1.385 . S
C1562 C1564 1.478 . S
C1563 H1557 0.930 . S
C1563 C1559 1.400 . S
C1563 C1562 1.385 . S
C1564 C1562 1.478 . S
C1564 C1566 1.381 . S
C1564 C1570 1.383 . S
C1565 C1561 1.495 . S
C1565 H1571 0.959 . S
C1565 H1572 0.961 . S
C1565 H1573 0.960 . S
C1566 C1564 1.381 . S
C1566 C1567 1.394 . S
C1566 H1574 0.930 . S
C1567 C1566 1.394 . S
C1567 C1568 1.383 . S
C1567 H1575 0.929 . S
C1568 C1567 1.383 . S
C1568 C1569 1.377 . S
C1569 H1553 0.930 . S
C1569 C1568 1.377 . S
C1569 C1570 1.379 . S
C1570 H1554 0.931 . S
C1570 C1564 1.383 . S
C1570 C1569 1.379 . S
H1571 C1565 0.959 . S
H1572 C1565 0.961 . S
H1573 C1565 0.960 . S
H1574 C1566 0.930 . S
H1575 C1567 0.929 . S
H1576 C1584 0.929 . S
H1577 C1586 0.930 . S
H1578 C1588 0.930 . S
H1579 C1591 0.932 . S
H1580 C1594 0.930 . S
H1581 C1596 0.960 . S
H1582 C1596 0.960 . S
H1583 C1596 0.960 . S
C1584 H1576 0.929 . S
C1584 C1585 1.377 . S
C1584 C1586 1.384 1_554 S
C1585 C1584 1.377 . S
C1585 C1591 1.390 1_554 S
C1586 H1577 0.930 . S
C1586 C1584 1.384 1_556 S
C1586 C1587 1.372 . S
C1587 C1586 1.372 . S
C1587 C1588 1.400 . S
C1587 C1592 1.490 . S
C1588 H1578 0.930 . S
C1588 C1587 1.400 . S
C1588 C1591 1.386 . S
H1589 C1605 0.930 . S
H1590 C1606 0.931 . S
C1591 H1579 0.932 . S
C1591 C1585 1.390 1_556 S
C1591 C1588 1.386 . S
C1592 C1587 1.490 . S
C1592 C1594 1.395 . S
C1592 C1595 1.403 . S
H1593 C1599 0.930 . S
C1594 H1580 0.930 . S
C1594 C1592 1.395 . S
C1594 C1597 1.403 . S
C1595 C1592 1.403 . S
C1595 C1596 1.524 . S
C1595 C1599 1.400 . S
C1596 H1581 0.960 . S
C1596 H1582 0.960 . S
C1596 H1583 0.960 . S
C1596 C1595 1.524 . S
C1597 C1594 1.403 . S
C1597 C1598 1.392 . S
C1597 C1601 1.495 . S
C1598 C1597 1.392 . S
C1598 C1599 1.385 . S
C1598 C1600 1.478 . S
C1599 H1593 0.930 . S
C1599 C1595 1.400 . S
C1599 C1598 1.385 . S
C1600 C1598 1.478 . S
C1600 C1602 1.381 . S
C1600 C1606 1.383 . S
C1601 C1597 1.495 . S
C1601 H1607 0.959 . S
C1601 H1608 0.961 . S
C1601 H1609 0.960 . S
C1602 C1600 1.381 . S
C1602 C1603 1.394 . S
C1602 H1610 0.930 . S
C1603 C1602 1.394 . S
C1603 C1604 1.383 . S
C1603 H1611 0.929 . S
C1604 C1603 1.383 . S
C1604 C1605 1.377 . S
C1605 H1589 0.930 . S
C1605 C1604 1.377 . S
C1605 C1606 1.379 . S
C1606 H1590 0.931 . S
C1606 C1600 1.383 . S
C1606 C1605 1.379 . S
H1607 C1601 0.959 . S
H1608 C1601 0.961 . S
H1609 C1601 0.960 . S
H1610 C1602 0.930 . S
H1611 C1603 0.929 . S
H1612 C1620 0.928 1_556 S
H1613 C1622 0.930 . S
H1614 C1624 0.930 . S
H1615 C1627 0.929 . S
H1616 C1630 0.930 . S
H1617 C1632 0.960 . S
H1618 C1632 0.960 . S
H1619 C1632 0.960 . S
C1620 H1612 0.928 1_554 S
C1620 C1621 1.377 1_554 S
C1620 C1622 1.384 . S
C1621 C1620 1.377 1_556 S
C1621 C1627 1.390 . S
C1622 H1613 0.930 . S
C1622 C1620 1.384 . S
C1622 C1623 1.372 . S
C1623 C1622 1.372 . S
C1623 C1624 1.400 . S
C1623 C1628 1.490 . S
C1624 H1614 0.930 . S
C1624 C1623 1.400 . S
C1624 C1627 1.386 1_554 S
H1625 C1641 0.930 . S
H1626 C1642 0.931 . S
C1627 H1615 0.929 . S
C1627 C1621 1.390 . S
C1627 C1624 1.386 1_556 S
C1628 C1623 1.490 . S
C1628 C1630 1.395 . S
C1628 C1631 1.403 . S
H1629 C1635 0.930 . S
C1630 H1616 0.930 . S
C1630 C1628 1.395 . S
C1630 C1633 1.403 . S
C1631 C1628 1.403 . S
C1631 C1632 1.524 . S
C1631 C1635 1.400 . S
C1632 H1617 0.960 . S
C1632 H1618 0.960 . S
C1632 H1619 0.960 . S
C1632 C1631 1.524 . S
C1633 C1630 1.403 . S
C1633 C1634 1.392 . S
C1633 C1637 1.495 . S
C1634 C1633 1.392 . S
C1634 C1635 1.385 . S
C1634 C1636 1.478 . S
C1635 H1629 0.930 . S
C1635 C1631 1.400 . S
C1635 C1634 1.385 . S
C1636 C1634 1.478 . S
C1636 C1638 1.381 . S
C1636 C1642 1.383 . S
C1637 C1633 1.495 . S
C1637 H1643 0.959 . S
C1637 H1644 0.961 . S
C1637 H1645 0.960 . S
C1638 C1636 1.381 . S
C1638 C1639 1.394 . S
C1638 H1646 0.930 . S
C1639 C1638 1.394 . S
C1639 C1640 1.383 . S
C1639 H1647 0.929 . S
C1640 C1639 1.383 . S
C1640 C1641 1.377 . S
C1641 H1625 0.930 . S
C1641 C1640 1.377 . S
C1641 C1642 1.379 . S
C1642 H1626 0.931 . S
C1642 C1636 1.383 . S
C1642 C1641 1.379 . S
H1643 C1637 0.959 . S
H1644 C1637 0.961 . S
H1645 C1637 0.960 . S
H1646 C1638 0.930 . S
H1647 C1639 0.929 . S
H1648 C1656 0.929 . S
H1649 C1658 0.930 . S
H1650 C1660 0.930 . S
H1651 C1663 0.929 . S
H1652 C1666 0.930 . S
H1653 C1668 0.960 . S
H1654 C1668 0.960 . S
H1655 C1668 0.960 . S
C1656 H1648 0.929 . S
C1656 C1657 1.377 . S
C1656 C1658 1.384 . S
C1657 C1656 1.377 . S
C1657 C1663 1.390 . S
C1658 H1649 0.930 . S
C1658 C1656 1.384 . S
C1658 C1659 1.372 . S
C1659 C1658 1.372 . S
C1659 C1660 1.400 . S
C1659 C1664 1.490 . S
C1660 H1650 0.930 . S
C1660 C1659 1.400 . S
C1660 C1663 1.386 . S
H1661 C1677 0.930 . S
H1662 C1678 0.931 . S
C1663 H1651 0.929 . S
C1663 C1657 1.390 . S
C1663 C1660 1.386 . S
C1664 C1659 1.490 . S
C1664 C1666 1.395 . S
C1664 C1667 1.403 . S
H1665 C1671 0.930 . S
C1666 H1652 0.930 . S
C1666 C1664 1.395 . S
C1666 C1669 1.403 . S
C1667 C1664 1.403 . S
C1667 C1668 1.524 . S
C1667 C1671 1.400 . S
C1668 H1653 0.960 . S
C1668 H1654 0.960 . S
C1668 H1655 0.960 . S
C1668 C1667 1.524 . S
C1669 C1666 1.403 . S
C1669 C1670 1.392 . S
C1669 C1673 1.495 . S
C1670 C1669 1.392 . S
C1670 C1671 1.385 . S
C1670 C1672 1.478 . S
C1671 H1665 0.930 . S
C1671 C1667 1.400 . S
C1671 C1670 1.385 . S
C1672 C1670 1.478 . S
C1672 C1674 1.381 . S
C1672 C1678 1.383 . S
C1673 C1669 1.495 . S
C1673 H1679 0.959 . S
C1673 H1680 0.961 . S
C1673 H1681 0.960 . S
C1674 C1672 1.381 . S
C1674 C1675 1.394 . S
C1674 H1682 0.930 . S
C1675 C1674 1.394 . S
C1675 C1676 1.383 . S
C1675 H1683 0.929 . S
C1676 C1675 1.383 . S
C1676 C1677 1.377 . S
C1677 H1661 0.930 . S
C1677 C1676 1.377 . S
C1677 C1678 1.379 . S
C1678 H1662 0.931 . S
C1678 C1672 1.383 . S
C1678 C1677 1.379 . S
H1679 C1673 0.959 . S
H1680 C1673 0.961 . S
H1681 C1673 0.960 . S
H1682 C1674 0.930 . S
H1683 C1675 0.929 . S
H1684 C1692 0.929 . S
H1685 C1694 0.930 . S
H1686 C1696 0.930 . S
H1687 C1699 0.929 . S
H1688 C1702 0.930 . S
H1689 C1704 0.960 . S
H1690 C1704 0.960 . S
H1691 C1704 0.960 . S
C1692 H1684 0.929 . S
C1692 C1693 1.377 . S
C1692 C1694 1.384 . S
C1693 C1692 1.377 . S
C1693 C1699 1.390 . S
C1694 H1685 0.930 . S
C1694 C1692 1.384 . S
C1694 C1695 1.372 . S
C1695 C1694 1.372 . S
C1695 C1696 1.400 . S
C1695 C1700 1.490 . S
C1696 H1686 0.930 . S
C1696 C1695 1.400 . S
C1696 C1699 1.386 . S
H1697 C1713 0.930 . S
H1698 C1714 0.931 . S
C1699 H1687 0.929 . S
C1699 C1693 1.390 . S
C1699 C1696 1.386 . S
C1700 C1695 1.490 . S
C1700 C1702 1.395 . S
C1700 C1703 1.403 . S
H1701 C1707 0.930 . S
C1702 H1688 0.930 . S
C1702 C1700 1.395 . S
C1702 C1705 1.403 . S
C1703 C1700 1.403 . S
C1703 C1704 1.524 . S
C1703 C1707 1.400 . S
C1704 H1689 0.960 . S
C1704 H1690 0.960 . S
C1704 H1691 0.960 . S
C1704 C1703 1.524 . S
C1705 C1702 1.403 . S
C1705 C1706 1.392 . S
C1705 C1709 1.495 . S
C1706 C1705 1.392 . S
C1706 C1707 1.385 . S
C1706 C1708 1.478 . S
C1707 H1701 0.930 . S
C1707 C1703 1.400 . S
C1707 C1706 1.385 . S
C1708 C1706 1.478 . S
C1708 C1710 1.381 . S
C1708 C1714 1.383 . S
C1709 C1705 1.495 . S
C1709 H1715 0.959 . S
C1709 H1716 0.961 . S
C1709 H1717 0.960 . S
C1710 C1708 1.381 . S
C1710 C1711 1.394 . S
C1710 H1718 0.930 . S
C1711 C1710 1.394 . S
C1711 C1712 1.383 . S
C1711 H1719 0.929 . S
C1712 C1711 1.383 . S
C1712 C1713 1.377 . S
C1713 H1697 0.930 . S
C1713 C1712 1.377 . S
C1713 C1714 1.379 . S
C1714 H1698 0.931 . S
C1714 C1708 1.383 . S
C1714 C1713 1.379 . S
H1715 C1709 0.959 . S
H1716 C1709 0.961 . S
H1717 C1709 0.960 . S
H1718 C1710 0.930 . S
H1719 C1711 0.929 . S
H1720 C1728 0.929 . S
H1721 C1730 0.930 . S
H1722 C1732 0.930 . S
H1723 C1735 0.929 . S
H1724 C1738 0.930 . S
H1725 C1740 0.960 . S
H1726 C1740 0.960 . S
H1727 C1740 0.960 . S
C1728 H1720 0.929 . S
C1728 C1729 1.377 . S
C1728 C1730 1.384 . S
C1729 C1728 1.377 . S
C1729 C1735 1.390 . S
C1730 H1721 0.930 . S
C1730 C1728 1.384 . S
C1730 C1731 1.372 . S
C1731 C1730 1.372 . S
C1731 C1732 1.400 . S
C1731 C1736 1.490 . S
C1732 H1722 0.930 . S
C1732 C1731 1.400 . S
C1732 C1735 1.386 . S
H1733 C1749 0.930 . S
H1734 C1750 0.931 . S
C1735 H1723 0.929 . S
C1735 C1729 1.390 . S
C1735 C1732 1.386 . S
C1736 C1731 1.490 . S
C1736 C1738 1.395 . S
C1736 C1739 1.403 . S
H1737 C1743 0.930 . S
C1738 H1724 0.930 . S
C1738 C1736 1.395 . S
C1738 C1741 1.403 . S
C1739 C1736 1.403 . S
C1739 C1740 1.524 . S
C1739 C1743 1.400 . S
C1740 H1725 0.960 . S
C1740 H1726 0.960 . S
C1740 H1727 0.960 . S
C1740 C1739 1.524 . S
C1741 C1738 1.403 . S
C1741 C1742 1.392 . S
C1741 C1745 1.495 . S
C1742 C1741 1.392 . S
C1742 C1743 1.385 . S
C1742 C1744 1.478 . S
C1743 H1737 0.930 . S
C1743 C1739 1.400 . S
C1743 C1742 1.385 . S
C1744 C1742 1.478 . S
C1744 C1746 1.381 . S
C1744 C1750 1.383 . S
C1745 C1741 1.495 . S
C1745 H1751 0.959 . S
C1745 H1752 0.961 . S
C1745 H1753 0.960 . S
C1746 C1744 1.381 . S
C1746 C1747 1.394 . S
C1746 H1754 0.930 . S
C1747 C1746 1.394 . S
C1747 C1748 1.383 . S
C1747 H1755 0.929 . S
C1748 C1747 1.383 . S
C1748 C1749 1.377 . S
C1749 H1733 0.930 . S
C1749 C1748 1.377 . S
C1749 C1750 1.379 . S
C1750 H1734 0.931 . S
C1750 C1744 1.383 . S
C1750 C1749 1.379 . S
H1751 C1745 0.959 . S
H1752 C1745 0.961 . S
H1753 C1745 0.960 . S
H1754 C1746 0.930 . S
H1755 C1747 0.929 . S
H1756 C1764 0.929 . S
H1757 C1766 0.930 . S
H1758 C1768 0.930 . S
H1759 C1771 0.929 . S
H1760 C1774 0.930 . S
H1761 C1776 0.960 . S
H1762 C1776 0.960 . S
H1763 C1776 0.960 . S
C1764 H1756 0.929 . S
C1764 C1765 1.377 . S
C1764 C1766 1.384 . S
C1765 C1764 1.377 . S
C1765 C1771 1.390 . S
C1766 H1757 0.930 . S
C1766 C1764 1.384 . S
C1766 C1767 1.372 . S
C1767 C1766 1.372 . S
C1767 C1768 1.400 . S
C1767 C1772 1.490 . S
C1768 H1758 0.930 . S
C1768 C1767 1.400 . S
C1768 C1771 1.386 . S
H1769 C1785 0.930 . S
H1770 C1786 0.931 . S
C1771 H1759 0.929 . S
C1771 C1765 1.390 . S
C1771 C1768 1.386 . S
C1772 C1767 1.490 . S
C1772 C1774 1.395 . S
C1772 C1775 1.403 . S
H1773 C1779 0.930 . S
C1774 H1760 0.930 . S
C1774 C1772 1.395 . S
C1774 C1777 1.403 . S
C1775 C1772 1.403 . S
C1775 C1776 1.524 . S
C1775 C1779 1.400 . S
C1776 H1761 0.960 . S
C1776 H1762 0.960 . S
C1776 H1763 0.960 . S
C1776 C1775 1.524 . S
C1777 C1774 1.403 . S
C1777 C1778 1.392 . S
C1777 C1781 1.495 . S
C1778 C1777 1.392 . S
C1778 C1779 1.385 . S
C1778 C1780 1.478 . S
C1779 H1773 0.930 . S
C1779 C1775 1.400 . S
C1779 C1778 1.385 . S
C1780 C1778 1.478 . S
C1780 C1782 1.381 . S
C1780 C1786 1.383 . S
C1781 C1777 1.495 . S
C1781 H1787 0.959 . S
C1781 H1788 0.961 . S
C1781 H1789 0.960 . S
C1782 C1780 1.381 . S
C1782 C1783 1.394 . S
C1782 H1790 0.930 . S
C1783 C1782 1.394 . S
C1783 C1784 1.383 . S
C1783 H1791 0.929 . S
C1784 C1783 1.383 . S
C1784 C1785 1.377 . S
C1785 H1769 0.930 . S
C1785 C1784 1.377 . S
C1785 C1786 1.379 . S
C1786 H1770 0.931 . S
C1786 C1780 1.383 . S
C1786 C1785 1.379 . S
H1787 C1781 0.959 . S
H1788 C1781 0.961 . S
H1789 C1781 0.960 . S
H1790 C1782 0.930 . S
H1791 C1783 0.929 . S
H1792 C1800 0.929 . S
H1793 C1802 0.930 . S
H1794 C1804 0.930 . S
H1795 C1807 0.929 . S
H1796 C1810 0.930 . S
H1797 C1812 0.960 . S
H1798 C1812 0.960 . S
H1799 C1812 0.960 . S
C1800 H1792 0.929 . S
C1800 C1801 1.377 . S
C1800 C1802 1.384 . S
C1801 C1800 1.377 . S
C1801 C1807 1.390 . S
C1802 H1793 0.930 . S
C1802 C1800 1.384 . S
C1802 C1803 1.372 . S
C1803 C1802 1.372 . S
C1803 C1804 1.400 . S
C1803 C1808 1.490 . S
C1804 H1794 0.930 . S
C1804 C1803 1.400 . S
C1804 C1807 1.386 . S
H1805 C1821 0.930 . S
H1806 C1822 0.931 . S
C1807 H1795 0.929 . S
C1807 C1801 1.390 . S
C1807 C1804 1.386 . S
C1808 C1803 1.490 . S
C1808 C1810 1.395 . S
C1808 C1811 1.403 . S
H1809 C1815 0.930 . S
C1810 H1796 0.930 . S
C1810 C1808 1.395 . S
C1810 C1813 1.403 . S
C1811 C1808 1.403 . S
C1811 C1812 1.524 . S
C1811 C1815 1.400 . S
C1812 H1797 0.960 . S
C1812 H1798 0.960 . S
C1812 H1799 0.960 . S
C1812 C1811 1.524 . S
C1813 C1810 1.403 . S
C1813 C1814 1.392 . S
C1813 C1817 1.495 . S
C1814 C1813 1.392 . S
C1814 C1815 1.385 . S
C1814 C1816 1.478 . S
C1815 H1809 0.930 . S
C1815 C1811 1.400 . S
C1815 C1814 1.385 . S
C1816 C1814 1.478 . S
C1816 C1818 1.381 . S
C1816 C1822 1.383 . S
C1817 C1813 1.495 . S
C1817 H1823 0.959 . S
C1817 H1824 0.961 . S
C1817 H1825 0.960 . S
C1818 C1816 1.381 . S
C1818 C1819 1.394 . S
C1818 H1826 0.930 . S
C1819 C1818 1.394 . S
C1819 C1820 1.383 . S
C1819 H1827 0.929 . S
C1820 C1819 1.383 . S
C1820 C1821 1.377 . S
C1821 H1805 0.930 . S
C1821 C1820 1.377 . S
C1821 C1822 1.379 . S
C1822 H1806 0.931 . S
C1822 C1816 1.383 . S
C1822 C1821 1.379 . S
H1823 C1817 0.959 . S
H1824 C1817 0.961 . S
H1825 C1817 0.960 . S
H1826 C1818 0.930 . S
H1827 C1819 0.929 . S
H1828 C1836 0.929 . S
H1829 C1838 0.930 . S
H1830 C1840 0.930 . S
H1831 C1843 0.929 . S
H1832 C1846 0.930 . S
H1833 C1848 0.960 . S
H1834 C1848 0.960 . S
H1835 C1848 0.960 . S
C1836 H1828 0.929 . S
C1836 C1837 1.377 . S
C1836 C1838 1.384 . S
C1837 C1836 1.377 . S
C1837 C1843 1.390 . S
C1838 H1829 0.930 . S
C1838 C1836 1.384 . S
C1838 C1839 1.372 . S
C1839 C1838 1.372 . S
C1839 C1840 1.400 . S
C1839 C1844 1.490 . S
C1840 H1830 0.930 . S
C1840 C1839 1.400 . S
C1840 C1843 1.386 . S
H1841 C1857 0.930 . S
H1842 C1858 0.931 . S
C1843 H1831 0.929 . S
C1843 C1837 1.390 . S
C1843 C1840 1.386 . S
C1844 C1839 1.490 . S
C1844 C1846 1.395 . S
C1844 C1847 1.403 . S
H1845 C1851 0.930 . S
C1846 H1832 0.930 . S
C1846 C1844 1.395 . S
C1846 C1849 1.403 . S
C1847 C1844 1.403 . S
C1847 C1848 1.524 . S
C1847 C1851 1.400 . S
C1848 H1833 0.960 . S
C1848 H1834 0.960 . S
C1848 H1835 0.960 . S
C1848 C1847 1.524 . S
C1849 C1846 1.403 . S
C1849 C1850 1.392 . S
C1849 C1853 1.495 . S
C1850 C1849 1.392 . S
C1850 C1851 1.385 . S
C1850 C1852 1.478 . S
C1851 H1845 0.930 . S
C1851 C1847 1.400 . S
C1851 C1850 1.385 . S
C1852 C1850 1.478 . S
C1852 C1854 1.381 . S
C1852 C1858 1.383 . S
C1853 C1849 1.495 . S
C1853 H1859 0.959 . S
C1853 H1860 0.961 . S
C1853 H1861 0.960 . S
C1854 C1852 1.381 . S
C1854 C1855 1.394 . S
C1854 H1862 0.930 . S
C1855 C1854 1.394 . S
C1855 C1856 1.383 . S
C1855 H1863 0.929 . S
C1856 C1855 1.383 . S
C1856 C1857 1.377 . S
C1857 H1841 0.930 . S
C1857 C1856 1.377 . S
C1857 C1858 1.379 . S
C1858 H1842 0.931 . S
C1858 C1852 1.383 . S
C1858 C1857 1.379 . S
H1859 C1853 0.959 . S
H1860 C1853 0.961 . S
H1861 C1853 0.960 . S
H1862 C1854 0.930 . S
H1863 C1855 0.929 . S
H1864 C1872 0.929 . S
H1865 C1874 0.930 . S
H1866 C1876 0.930 . S
H1867 C1879 0.929 . S
H1868 C1882 0.930 . S
H1869 C1884 0.960 . S
H1870 C1884 0.960 . S
H1871 C1884 0.960 . S
C1872 H1864 0.929 . S
C1872 C1873 1.377 . S
C1872 C1874 1.384 . S
C1873 C1872 1.377 . S
C1873 C1879 1.390 . S
C1874 H1865 0.930 . S
C1874 C1872 1.384 . S
C1874 C1875 1.372 . S
C1875 C1874 1.372 . S
C1875 C1876 1.400 . S
C1875 C1880 1.490 . S
C1876 H1866 0.930 . S
C1876 C1875 1.400 . S
C1876 C1879 1.386 . S
H1877 C1893 0.930 . S
H1878 C1894 0.931 . S
C1879 H1867 0.929 . S
C1879 C1873 1.390 . S
C1879 C1876 1.386 . S
C1880 C1875 1.490 . S
C1880 C1882 1.395 . S
C1880 C1883 1.403 . S
H1881 C1887 0.930 . S
C1882 H1868 0.930 . S
C1882 C1880 1.395 . S
C1882 C1885 1.403 . S
C1883 C1880 1.403 . S
C1883 C1884 1.524 . S
C1883 C1887 1.400 . S
C1884 H1869 0.960 . S
C1884 H1870 0.960 . S
C1884 H1871 0.960 . S
C1884 C1883 1.524 . S
C1885 C1882 1.403 . S
C1885 C1886 1.392 . S
C1885 C1889 1.495 . S
C1886 C1885 1.392 . S
C1886 C1887 1.385 . S
C1886 C1888 1.478 . S
C1887 H1881 0.930 . S
C1887 C1883 1.400 . S
C1887 C1886 1.385 . S
C1888 C1886 1.478 . S
C1888 C1890 1.381 . S
C1888 C1894 1.383 . S
C1889 C1885 1.495 . S
C1889 H1895 0.959 . S
C1889 H1896 0.961 . S
C1889 H1897 0.960 . S
C1890 C1888 1.381 . S
C1890 C1891 1.394 . S
C1890 H1898 0.930 . S
C1891 C1890 1.394 . S
C1891 C1892 1.383 . S
C1891 H1899 0.929 . S
C1892 C1891 1.383 . S
C1892 C1893 1.377 . S
C1893 H1877 0.930 . S
C1893 C1892 1.377 . S
C1893 C1894 1.379 . S
C1894 H1878 0.931 . S
C1894 C1888 1.383 . S
C1894 C1893 1.379 . S
H1895 C1889 0.959 . S
H1896 C1889 0.961 . S
H1897 C1889 0.960 . S
H1898 C1890 0.930 . S
H1899 C1891 0.929 . S
H1900 C1908 0.929 . S
H1901 C1910 0.930 . S
H1902 C1912 0.930 . S
H1903 C1915 0.929 . S
H1904 C1918 0.930 . S
H1905 C1920 0.960 . S
H1906 C1920 0.960 . S
H1907 C1920 0.960 . S
C1908 H1900 0.929 . S
C1908 C1909 1.377 . S
C1908 C1910 1.384 . S
C1909 C1908 1.377 . S
C1909 C1915 1.390 . S
C1910 H1901 0.930 . S
C1910 C1908 1.384 . S
C1910 C1911 1.372 . S
C1911 C1910 1.372 . S
C1911 C1912 1.400 . S
C1911 C1916 1.490 . S
C1912 H1902 0.930 . S
C1912 C1911 1.400 . S
C1912 C1915 1.386 . S
H1913 C1929 0.930 . S
H1914 C1930 0.931 . S
C1915 H1903 0.929 . S
C1915 C1909 1.390 . S
C1915 C1912 1.386 . S
C1916 C1911 1.490 . S
C1916 C1918 1.395 . S
C1916 C1919 1.403 . S
H1917 C1923 0.930 . S
C1918 H1904 0.930 . S
C1918 C1916 1.395 . S
C1918 C1921 1.403 . S
C1919 C1916 1.403 . S
C1919 C1920 1.524 . S
C1919 C1923 1.400 . S
C1920 H1905 0.960 . S
C1920 H1906 0.960 . S
C1920 H1907 0.960 . S
C1920 C1919 1.524 . S
C1921 C1918 1.403 . S
C1921 C1922 1.392 . S
C1921 C1925 1.495 . S
C1922 C1921 1.392 . S
C1922 C1923 1.385 . S
C1922 C1924 1.478 . S
C1923 H1917 0.930 . S
C1923 C1919 1.400 . S
C1923 C1922 1.385 . S
C1924 C1922 1.478 . S
C1924 C1926 1.381 . S
C1924 C1930 1.383 . S
C1925 C1921 1.495 . S
C1925 H1931 0.959 . S
C1925 H1932 0.961 . S
C1925 H1933 0.960 . S
C1926 C1924 1.381 . S
C1926 C1927 1.394 . S
C1926 H1934 0.930 . S
C1927 C1926 1.394 . S
C1927 C1928 1.383 . S
C1927 H1935 0.929 . S
C1928 C1927 1.383 . S
C1928 C1929 1.377 . S
C1929 H1913 0.930 . S
C1929 C1928 1.377 . S
C1929 C1930 1.379 . S
C1930 H1914 0.931 . S
C1930 C1924 1.383 . S
C1930 C1929 1.379 . S
H1931 C1925 0.959 . S
H1932 C1925 0.961 . S
H1933 C1925 0.960 . S
H1934 C1926 0.930 . S
H1935 C1927 0.929 . S
H1936 C1944 0.929 . S
H1937 C1946 0.930 . S
H1938 C1948 0.930 . S
H1939 C1951 0.929 . S
H1940 C1954 0.930 . S
H1941 C1956 0.960 . S
H1942 C1956 0.960 . S
H1943 C1956 0.960 . S
C1944 H1936 0.929 . S
C1944 C1945 1.377 . S
C1944 C1946 1.384 . S
C1945 C1944 1.377 . S
C1945 C1951 1.390 . S
C1946 H1937 0.930 . S
C1946 C1944 1.384 . S
C1946 C1947 1.372 . S
C1947 C1946 1.372 . S
C1947 C1948 1.400 . S
C1947 C1952 1.490 . S
C1948 H1938 0.930 . S
C1948 C1947 1.400 . S
C1948 C1951 1.386 . S
H1949 C1965 0.930 . S
H1950 C1966 0.931 . S
C1951 H1939 0.929 . S
C1951 C1945 1.390 . S
C1951 C1948 1.386 . S
C1952 C1947 1.490 . S
C1952 C1954 1.395 . S
C1952 C1955 1.403 . S
H1953 C1959 0.930 . S
C1954 H1940 0.930 . S
C1954 C1952 1.395 . S
C1954 C1957 1.403 . S
C1955 C1952 1.403 . S
C1955 C1956 1.524 . S
C1955 C1959 1.400 . S
C1956 H1941 0.960 . S
C1956 H1942 0.960 . S
C1956 H1943 0.960 . S
C1956 C1955 1.524 . S
C1957 C1954 1.403 . S
C1957 C1958 1.392 . S
C1957 C1961 1.495 . S
C1958 C1957 1.392 . S
C1958 C1959 1.385 . S
C1958 C1960 1.478 . S
C1959 H1953 0.930 . S
C1959 C1955 1.400 . S
C1959 C1958 1.385 . S
C1960 C1958 1.478 . S
C1960 C1962 1.381 . S
C1960 C1966 1.383 . S
C1961 C1957 1.495 . S
C1961 H1967 0.959 . S
C1961 H1968 0.961 . S
C1961 H1969 0.960 . S
C1962 C1960 1.381 . S
C1962 C1963 1.394 . S
C1962 H1970 0.930 . S
C1963 C1962 1.394 . S
C1963 C1964 1.383 . S
C1963 H1971 0.929 . S
C1964 C1963 1.383 . S
C1964 C1965 1.377 . S
C1965 H1949 0.930 . S
C1965 C1964 1.377 . S
C1965 C1966 1.379 . S
C1966 H1950 0.931 . S
C1966 C1960 1.383 . S
C1966 C1965 1.379 . S
H1967 C1961 0.959 . S
H1968 C1961 0.961 . S
H1969 C1961 0.960 . S
H1970 C1962 0.930 . S
H1971 C1963 0.929 . S
H1972 C1980 0.929 . S
H1973 C1982 0.930 . S
H1974 C1984 0.930 . S
H1975 C1987 0.929 . S
H1976 C1990 0.930 . S
H1977 C1992 0.960 . S
H1978 C1992 0.960 . S
H1979 C1992 0.960 . S
C1980 H1972 0.929 . S
C1980 C1981 1.377 . S
C1980 C1982 1.384 . S
C1981 C1980 1.377 . S
C1981 C1987 1.390 . S
C1982 H1973 0.930 . S
C1982 C1980 1.384 . S
C1982 C1983 1.372 . S
C1983 C1982 1.372 . S
C1983 C1984 1.400 . S
C1983 C1988 1.490 . S
C1984 H1974 0.930 . S
C1984 C1983 1.400 . S
C1984 C1987 1.386 . S
H1985 C2001 0.930 . S
H1986 C2002 0.931 . S
C1987 H1975 0.929 . S
C1987 C1981 1.390 . S
C1987 C1984 1.386 . S
C1988 C1983 1.490 . S
C1988 C1990 1.395 . S
C1988 C1991 1.403 . S
H1989 C1995 0.930 . S
C1990 H1976 0.930 . S
C1990 C1988 1.395 . S
C1990 C1993 1.403 . S
C1991 C1988 1.403 . S
C1991 C1992 1.524 . S
C1991 C1995 1.400 . S
C1992 H1977 0.960 . S
C1992 H1978 0.960 . S
C1992 H1979 0.960 . S
C1992 C1991 1.524 . S
C1993 C1990 1.403 . S
C1993 C1994 1.392 . S
C1993 C1997 1.495 . S
C1994 C1993 1.392 . S
C1994 C1995 1.385 . S
C1994 C1996 1.478 . S
C1995 H1989 0.930 . S
C1995 C1991 1.400 . S
C1995 C1994 1.385 . S
C1996 C1994 1.478 . S
C1996 C1998 1.381 . S
C1996 C2002 1.383 . S
C1997 C1993 1.495 . S
C1997 H2003 0.959 . S
C1997 H2004 0.961 . S
C1997 H2005 0.960 . S
C1998 C1996 1.381 . S
C1998 C1999 1.394 . S
C1998 H2006 0.930 . S
C1999 C1998 1.394 . S
C1999 C2000 1.383 . S
C1999 H2007 0.929 . S
C2000 C1999 1.383 . S
C2000 C2001 1.377 . S
C2001 H1985 0.930 . S
C2001 C2000 1.377 . S
C2001 C2002 1.379 . S
C2002 H1986 0.931 . S
C2002 C1996 1.383 . S
C2002 C2001 1.379 . S
H2003 C1997 0.959 . S
H2004 C1997 0.961 . S
H2005 C1997 0.960 . S
H2006 C1998 0.930 . S
H2007 C1999 0.929 . S
H2008 C2016 0.929 . S
H2009 C2018 0.930 . S
H2010 C2020 0.930 . S
H2011 C2023 0.929 . S
H2012 C2026 0.930 . S
H2013 C2028 0.960 . S
H2014 C2028 0.960 . S
H2015 C2028 0.960 . S
C2016 H2008 0.929 . S
C2016 C2017 1.377 . S
C2016 C2018 1.384 . S
C2017 C2016 1.377 . S
C2017 C2023 1.390 . S
C2018 H2009 0.930 . S
C2018 C2016 1.384 . S
C2018 C2019 1.372 . S
C2019 C2018 1.372 . S
C2019 C2020 1.400 . S
C2019 C2024 1.490 . S
C2020 H2010 0.930 . S
C2020 C2019 1.400 . S
C2020 C2023 1.386 . S
H2021 C2037 0.930 . S
H2022 C2038 0.931 . S
C2023 H2011 0.929 . S
C2023 C2017 1.390 . S
C2023 C2020 1.386 . S
C2024 C2019 1.490 . S
C2024 C2026 1.395 . S
C2024 C2027 1.403 . S
H2025 C2031 0.930 . S
C2026 H2012 0.930 . S
C2026 C2024 1.395 . S
C2026 C2029 1.403 . S
C2027 C2024 1.403 . S
C2027 C2028 1.524 . S
C2027 C2031 1.400 . S
C2028 H2013 0.960 . S
C2028 H2014 0.960 . S
C2028 H2015 0.960 . S
C2028 C2027 1.524 . S
C2029 C2026 1.403 . S
C2029 C2030 1.392 . S
C2029 C2033 1.495 . S
C2030 C2029 1.392 . S
C2030 C2031 1.385 . S
C2030 C2032 1.478 . S
C2031 H2025 0.930 . S
C2031 C2027 1.400 . S
C2031 C2030 1.385 . S
C2032 C2030 1.478 . S
C2032 C2034 1.381 . S
C2032 C2038 1.383 . S
C2033 C2029 1.495 . S
C2033 H2039 0.959 . S
C2033 H2040 0.961 . S
C2033 H2041 0.960 . S
C2034 C2032 1.381 . S
C2034 C2035 1.394 . S
C2034 H2042 0.930 . S
C2035 C2034 1.394 . S
C2035 C2036 1.383 . S
C2035 H2043 0.929 . S
C2036 C2035 1.383 . S
C2036 C2037 1.377 . S
C2037 H2021 0.930 . S
C2037 C2036 1.377 . S
C2037 C2038 1.379 . S
C2038 H2022 0.931 . S
C2038 C2032 1.383 . S
C2038 C2037 1.379 . S
H2039 C2033 0.959 . S
H2040 C2033 0.961 . S
H2041 C2033 0.960 . S
H2042 C2034 0.930 . S
H2043 C2035 0.929 . S
H2044 C2052 0.929 . S
H2045 C2054 0.930 . S
H2046 C2056 0.930 . S
H2047 C2059 0.929 . S
H2048 C2062 0.930 . S
H2049 C2064 0.960 . S
H2050 C2064 0.960 . S
H2051 C2064 0.960 . S
C2052 H2044 0.929 . S
C2052 C2053 1.377 . S
C2052 C2054 1.384 . S
C2053 C2052 1.377 . S
C2053 C2059 1.390 . S
C2054 H2045 0.930 . S
C2054 C2052 1.384 . S
C2054 C2055 1.372 . S
C2055 C2054 1.372 . S
C2055 C2056 1.400 . S
C2055 C2060 1.490 . S
C2056 H2046 0.930 . S
C2056 C2055 1.400 . S
C2056 C2059 1.386 . S
H2057 C2073 0.930 . S
H2058 C2074 0.931 . S
C2059 H2047 0.929 . S
C2059 C2053 1.390 . S
C2059 C2056 1.386 . S
C2060 C2055 1.490 . S
C2060 C2062 1.395 . S
C2060 C2063 1.403 . S
H2061 C2067 0.930 . S
C2062 H2048 0.930 . S
C2062 C2060 1.395 . S
C2062 C2065 1.403 . S
C2063 C2060 1.403 . S
C2063 C2064 1.524 . S
C2063 C2067 1.400 . S
C2064 H2049 0.960 . S
C2064 H2050 0.960 . S
C2064 H2051 0.960 . S
C2064 C2063 1.524 . S
C2065 C2062 1.403 . S
C2065 C2066 1.392 . S
C2065 C2069 1.495 . S
C2066 C2065 1.392 . S
C2066 C2067 1.385 . S
C2066 C2068 1.478 . S
C2067 H2061 0.930 . S
C2067 C2063 1.400 . S
C2067 C2066 1.385 . S
C2068 C2066 1.478 . S
C2068 C2070 1.381 . S
C2068 C2074 1.383 . S
C2069 C2065 1.495 . S
C2069 H2075 0.959 . S
C2069 H2076 0.961 . S
C2069 H2077 0.960 . S
C2070 C2068 1.381 . S
C2070 C2071 1.394 . S
C2070 H2078 0.930 . S
C2071 C2070 1.394 . S
C2071 C2072 1.383 . S
C2071 H2079 0.929 . S
C2072 C2071 1.383 . S
C2072 C2073 1.377 . S
C2073 H2057 0.930 . S
C2073 C2072 1.377 . S
C2073 C2074 1.379 . S
C2074 H2058 0.931 . S
C2074 C2068 1.383 . S
C2074 C2073 1.379 . S
H2075 C2069 0.959 . S
H2076 C2069 0.961 . S
H2077 C2069 0.960 . S
H2078 C2070 0.930 . S
H2079 C2071 0.929 . S
H2080 C2088 0.929 . S
H2081 C2090 0.930 . S
H2082 C2092 0.930 . S
H2083 C2095 0.929 . S
H2084 C2098 0.930 . S
H2085 C2100 0.960 . S
H2086 C2100 0.960 . S
H2087 C2100 0.960 . S
C2088 H2080 0.929 . S
C2088 C2089 1.377 . S
C2088 C2090 1.384 1_556 S
C2089 C2088 1.377 . S
C2089 C2095 1.390 . S
C2090 H2081 0.930 . S
C2090 C2088 1.384 1_554 S
C2090 C2091 1.372 . S
C2091 C2090 1.372 . S
C2091 C2092 1.400 . S
C2091 C2096 1.490 . S
C2092 H2082 0.930 . S
C2092 C2091 1.400 . S
C2092 C2095 1.386 1_554 S
H2093 C2109 0.930 . S
H2094 C2110 0.931 . S
C2095 H2083 0.929 . S
C2095 C2089 1.390 . S
C2095 C2092 1.386 1_556 S
C2096 C2091 1.490 . S
C2096 C2098 1.395 . S
C2096 C2099 1.403 . S
H2097 C2103 0.930 . S
C2098 H2084 0.930 . S
C2098 C2096 1.395 . S
C2098 C2101 1.403 . S
C2099 C2096 1.403 . S
C2099 C2100 1.524 . S
C2099 C2103 1.400 . S
C2100 H2085 0.960 . S
C2100 H2086 0.960 . S
C2100 H2087 0.960 . S
C2100 C2099 1.524 . S
C2101 C2098 1.403 . S
C2101 C2102 1.392 . S
C2101 C2105 1.495 . S
C2102 C2101 1.392 . S
C2102 C2103 1.385 . S
C2102 C2104 1.478 . S
C2103 H2097 0.930 . S
C2103 C2099 1.400 . S
C2103 C2102 1.385 . S
C2104 C2102 1.478 . S
C2104 C2106 1.381 . S
C2104 C2110 1.383 . S
C2105 C2101 1.495 . S
C2105 H2111 0.959 . S
C2105 H2112 0.961 . S
C2105 H2113 0.960 . S
C2106 C2104 1.381 . S
C2106 C2107 1.394 . S
C2106 H2114 0.930 . S
C2107 C2106 1.394 . S
C2107 C2108 1.383 . S
C2107 H2115 0.929 . S
C2108 C2107 1.383 . S
C2108 C2109 1.377 . S
C2109 H2093 0.930 . S
C2109 C2108 1.377 . S
C2109 C2110 1.379 . S
C2110 H2094 0.931 . S
C2110 C2104 1.383 . S
C2110 C2109 1.379 . S
H2111 C2105 0.959 . S
H2112 C2105 0.961 . S
H2113 C2105 0.960 . S
H2114 C2106 0.930 . S
H2115 C2107 0.929 . S
H2116 C2124 0.929 . S
H2117 C2126 0.930 . S
H2118 C2128 0.930 . S
H2119 C2131 0.929 . S
H2120 C2134 0.930 . S
H2121 C2136 0.960 . S
H2122 C2136 0.960 . S
H2123 C2136 0.960 . S
C2124 H2116 0.929 . S
C2124 C2125 1.377 . S
C2124 C2126 1.384 . S
C2125 C2124 1.377 . S
C2125 C2131 1.390 . S
C2126 H2117 0.930 . S
C2126 C2124 1.384 . S
C2126 C2127 1.372 . S
C2127 C2126 1.372 . S
C2127 C2128 1.400 . S
C2127 C2132 1.490 . S
C2128 H2118 0.930 . S
C2128 C2127 1.400 . S
C2128 C2131 1.386 . S
H2129 C2145 0.930 . S
H2130 C2146 0.931 . S
C2131 H2119 0.929 . S
C2131 C2125 1.390 . S
C2131 C2128 1.386 . S
C2132 C2127 1.490 . S
C2132 C2134 1.395 . S
C2132 C2135 1.403 . S
H2133 C2139 0.930 . S
C2134 H2120 0.930 . S
C2134 C2132 1.395 . S
C2134 C2137 1.403 . S
C2135 C2132 1.403 . S
C2135 C2136 1.524 . S
C2135 C2139 1.400 . S
C2136 H2121 0.960 . S
C2136 H2122 0.960 . S
C2136 H2123 0.960 . S
C2136 C2135 1.524 . S
C2137 C2134 1.403 . S
C2137 C2138 1.392 . S
C2137 C2141 1.495 . S
C2138 C2137 1.392 . S
C2138 C2139 1.385 . S
C2138 C2140 1.478 . S
C2139 H2133 0.930 . S
C2139 C2135 1.400 . S
C2139 C2138 1.385 . S
C2140 C2138 1.478 . S
C2140 C2142 1.381 . S
C2140 C2146 1.383 . S
C2141 C2137 1.495 . S
C2141 H2147 0.959 . S
C2141 H2148 0.961 . S
C2141 H2149 0.960 . S
C2142 C2140 1.381 . S
C2142 C2143 1.394 1_556 S
C2142 H2150 0.930 . S
C2143 C2142 1.394 1_554 S
C2143 C2144 1.383 . S
C2143 H2151 0.929 . S
C2144 C2143 1.383 . S
C2144 C2145 1.377 . S
C2145 H2129 0.930 . S
C2145 C2144 1.377 . S
C2145 C2146 1.379 1_554 S
C2146 H2130 0.931 . S
C2146 C2140 1.383 . S
C2146 C2145 1.379 1_556 S
H2147 C2141 0.959 . S
H2148 C2141 0.961 . S
H2149 C2141 0.960 . S
H2150 C2142 0.930 . S
H2151 C2143 0.929 . S
H2152 C2160 0.929 . S
H2153 C2162 0.930 . S
H2154 C2164 0.930 . S
H2155 C2167 0.929 . S
H2156 C2170 0.930 . S
H2157 C2172 0.960 . S
H2158 C2172 0.960 . S
H2159 C2172 0.960 . S
C2160 H2152 0.929 . S
C2160 C2161 1.377 . S
C2160 C2162 1.384 . S
C2161 C2160 1.377 . S
C2161 C2167 1.390 . S
C2162 H2153 0.930 . S
C2162 C2160 1.384 . S
C2162 C2163 1.372 . S
C2163 C2162 1.372 . S
C2163 C2164 1.400 . S
C2163 C2168 1.490 . S
C2164 H2154 0.930 . S
C2164 C2163 1.400 . S
C2164 C2167 1.386 . S
H2165 C2181 0.930 . S
H2166 C2182 0.931 . S
C2167 H2155 0.929 . S
C2167 C2161 1.390 . S
C2167 C2164 1.386 . S
C2168 C2163 1.490 . S
C2168 C2170 1.395 . S
C2168 C2171 1.403 . S
H2169 C2175 0.930 . S
C2170 H2156 0.930 . S
C2170 C2168 1.395 . S
C2170 C2173 1.403 . S
C2171 C2168 1.403 . S
C2171 C2172 1.524 . S
C2171 C2175 1.400 . S
C2172 H2157 0.960 . S
C2172 H2158 0.960 . S
C2172 H2159 0.960 . S
C2172 C2171 1.524 . S
C2173 C2170 1.403 . S
C2173 C2174 1.392 . S
C2173 C2177 1.495 . S
C2174 C2173 1.392 . S
C2174 C2175 1.385 . S
C2174 C2176 1.478 . S
C2175 H2169 0.930 . S
C2175 C2171 1.400 . S
C2175 C2174 1.385 . S
C2176 C2174 1.478 . S
C2176 C2178 1.381 . S
C2176 C2182 1.383 . S
C2177 C2173 1.495 . S
C2177 H2183 0.959 . S
C2177 H2184 0.961 . S
C2177 H2185 0.960 . S
C2178 C2176 1.381 . S
C2178 C2179 1.394 1_554 S
C2178 H2186 0.930 . S
C2179 C2178 1.394 1_556 S
C2179 C2180 1.383 . S
C2179 H2187 0.929 . S
C2180 C2179 1.383 . S
C2180 C2181 1.377 . S
C2181 H2165 0.930 . S
C2181 C2180 1.377 . S
C2181 C2182 1.379 1_556 S
C2182 H2166 0.931 . S
C2182 C2176 1.383 . S
C2182 C2181 1.379 1_554 S
H2183 C2177 0.959 . S
H2184 C2177 0.961 . S
H2185 C2177 0.960 . S
H2186 C2178 0.930 . S
H2187 C2179 0.929 . S
H2188 C2196 0.929 . S
H2189 C2198 0.930 . S
H2190 C2200 0.930 . S
H2191 C2203 0.929 . S
H2192 C2206 0.930 . S
H2193 C2208 0.960 . S
H2194 C2208 0.960 . S
H2195 C2208 0.960 . S
C2196 H2188 0.929 . S
C2196 C2197 1.377 . S
C2196 C2198 1.384 1_554 S
C2197 C2196 1.377 . S
C2197 C2203 1.390 . S
C2198 H2189 0.930 . S
C2198 C2196 1.384 1_556 S
C2198 C2199 1.372 . S
C2199 C2198 1.372 . S
C2199 C2200 1.400 . S
C2199 C2204 1.490 . S
C2200 H2190 0.930 . S
C2200 C2199 1.400 . S
C2200 C2203 1.386 1_556 S
H2201 C2217 0.930 . S
H2202 C2218 0.931 . S
C2203 H2191 0.929 . S
C2203 C2197 1.390 . S
C2203 C2200 1.386 1_554 S
C2204 C2199 1.490 . S
C2204 C2206 1.395 . S
C2204 C2207 1.403 . S
H2205 C2211 0.930 . S
C2206 H2192 0.930 . S
C2206 C2204 1.395 . S
C2206 C2209 1.403 . S
C2207 C2204 1.403 . S
C2207 C2208 1.524 . S
C2207 C2211 1.400 . S
C2208 H2193 0.960 . S
C2208 H2194 0.960 . S
C2208 H2195 0.960 . S
C2208 C2207 1.524 . S
C2209 C2206 1.403 . S
C2209 C2210 1.392 . S
C2209 C2213 1.495 . S
C2210 C2209 1.392 . S
C2210 C2211 1.385 . S
C2210 C2212 1.478 . S
C2211 H2205 0.930 . S
C2211 C2207 1.400 . S
C2211 C2210 1.385 . S
C2212 C2210 1.478 . S
C2212 C2214 1.381 . S
C2212 C2218 1.383 . S
C2213 C2209 1.495 . S
C2213 H2219 0.959 . S
C2213 H2220 0.961 . S
C2213 H2221 0.960 . S
C2214 C2212 1.381 . S
C2214 C2215 1.394 . S
C2214 H2222 0.930 . S
C2215 C2214 1.394 . S
C2215 C2216 1.383 . S
C2215 H2223 0.929 . S
C2216 C2215 1.383 . S
C2216 C2217 1.377 . S
C2217 H2201 0.930 . S
C2217 C2216 1.377 . S
C2217 C2218 1.379 . S
C2218 H2202 0.931 . S
C2218 C2212 1.383 . S
C2218 C2217 1.379 . S
H2219 C2213 0.959 . S
H2220 C2213 0.961 . S
H2221 C2213 0.960 . S
H2222 C2214 0.930 . S
H2223 C2215 0.929 . S
H2224 C2232 0.929 . S
H2225 C2234 0.930 . S
H2226 C2236 0.930 . S
H2227 C2239 0.929 . S
H2228 C2242 0.930 . S
H2229 C2244 0.960 . S
H2230 C2244 0.960 . S
H2231 C2244 0.960 . S
C2232 H2224 0.929 . S
C2232 C2233 1.377 . S
C2232 C2234 1.384 . S
C2233 C2232 1.377 . S
C2233 C2239 1.390 . S
C2234 H2225 0.930 . S
C2234 C2232 1.384 . S
C2234 C2235 1.372 . S
C2235 C2234 1.372 . S
C2235 C2236 1.400 . S
C2235 C2240 1.490 . S
C2236 H2226 0.930 . S
C2236 C2235 1.400 . S
C2236 C2239 1.386 . S
H2237 C2253 0.930 . S
H2238 C2254 0.931 . S
C2239 H2227 0.929 . S
C2239 C2233 1.390 . S
C2239 C2236 1.386 . S
C2240 C2235 1.490 . S
C2240 C2242 1.395 . S
C2240 C2243 1.403 . S
H2241 C2247 0.930 . S
C2242 H2228 0.930 . S
C2242 C2240 1.395 . S
C2242 C2245 1.403 . S
C2243 C2240 1.403 . S
C2243 C2244 1.524 . S
C2243 C2247 1.400 . S
C2244 H2229 0.960 . S
C2244 H2230 0.960 . S
C2244 H2231 0.960 . S
C2244 C2243 1.524 . S
C2245 C2242 1.403 . S
C2245 C2246 1.392 . S
C2245 C2249 1.495 . S
C2246 C2245 1.392 . S
C2246 C2247 1.385 . S
C2246 C2248 1.478 . S
C2247 H2241 0.930 . S
C2247 C2243 1.400 . S
C2247 C2246 1.385 . S
C2248 C2246 1.478 . S
C2248 C2250 1.381 . S
C2248 C2254 1.383 . S
C2249 C2245 1.495 . S
C2249 H2255 0.959 . S
C2249 H2256 0.961 . S
C2249 H2257 0.960 . S
C2250 C2248 1.381 . S
C2250 C2251 1.394 1_554 S
C2250 H2258 0.930 . S
C2251 C2250 1.394 1_556 S
C2251 C2252 1.383 . S
C2251 H2259 0.929 . S
C2252 C2251 1.383 . S
C2252 C2253 1.377 . S
C2253 H2237 0.930 . S
C2253 C2252 1.377 . S
C2253 C2254 1.379 1_556 S
C2254 H2238 0.931 . S
C2254 C2248 1.383 . S
C2254 C2253 1.379 1_554 S
H2255 C2249 0.959 . S
H2256 C2249 0.961 . S
H2257 C2249 0.960 . S
H2258 C2250 0.930 . S
H2259 C2251 0.929 . S
H2260 C2268 0.929 . S
H2261 C2270 0.930 . S
H2262 C2272 0.930 . S
H2263 C2275 0.929 . S
H2264 C2278 0.930 . S
H2265 C2280 0.960 . S
H2266 C2280 0.960 . S
H2267 C2280 0.960 . S
C2268 H2260 0.929 . S
C2268 C2269 1.377 . S
C2268 C2270 1.384 1_554 S
C2269 C2268 1.377 . S
C2269 C2275 1.390 . S
C2270 H2261 0.930 . S
C2270 C2268 1.384 1_556 S
C2270 C2271 1.372 . S
C2271 C2270 1.372 . S
C2271 C2272 1.400 . S
C2271 C2276 1.490 . S
C2272 H2262 0.930 . S
C2272 C2271 1.400 . S
C2272 C2275 1.386 1_556 S
H2273 C2289 0.930 . S
H2274 C2290 0.931 . S
C2275 H2263 0.929 . S
C2275 C2269 1.390 . S
C2275 C2272 1.386 1_554 S
C2276 C2271 1.490 . S
C2276 C2278 1.395 . S
C2276 C2279 1.403 . S
H2277 C2283 0.930 . S
C2278 H2264 0.930 . S
C2278 C2276 1.395 . S
C2278 C2281 1.403 . S
C2279 C2276 1.403 . S
C2279 C2280 1.524 . S
C2279 C2283 1.400 . S
C2280 H2265 0.960 . S
C2280 H2266 0.960 . S
C2280 H2267 0.960 . S
C2280 C2279 1.524 . S
C2281 C2278 1.403 . S
C2281 C2282 1.392 . S
C2281 C2285 1.495 . S
C2282 C2281 1.392 . S
C2282 C2283 1.385 . S
C2282 C2284 1.478 . S
C2283 H2277 0.930 . S
C2283 C2279 1.400 . S
C2283 C2282 1.385 . S
C2284 C2282 1.478 . S
C2284 C2286 1.381 . S
C2284 C2290 1.383 . S
C2285 C2281 1.495 . S
C2285 H2291 0.959 . S
C2285 H2292 0.961 . S
C2285 H2293 0.960 . S
C2286 C2284 1.381 . S
C2286 C2287 1.394 . S
C2286 H2294 0.930 . S
C2287 C2286 1.394 . S
C2287 C2288 1.383 . S
C2287 H2295 0.929 . S
C2288 C2287 1.383 . S
C2288 C2289 1.377 . S
C2289 H2273 0.930 . S
C2289 C2288 1.377 . S
C2289 C2290 1.379 . S
C2290 H2274 0.931 . S
C2290 C2284 1.383 . S
C2290 C2289 1.379 . S
H2291 C2285 0.959 . S
H2292 C2285 0.961 . S
H2293 C2285 0.960 . S
H2294 C2286 0.930 . S
H2295 C2287 0.929 . S
H2296 C2304 0.929 . S
H2297 C2306 0.930 . S
H2298 C2308 0.930 . S
H2299 C2311 0.929 . S
H2300 C2314 0.930 . S
H2301 C2316 0.960 . S
H2302 C2316 0.960 . S
H2303 C2316 0.960 . S
C2304 H2296 0.929 . S
C2304 C2305 1.377 . S
C2304 C2306 1.384 1_556 S
C2305 C2304 1.377 . S
C2305 C2311 1.390 . S
C2306 H2297 0.930 . S
C2306 C2304 1.384 1_554 S
C2306 C2307 1.372 . S
C2307 C2306 1.372 . S
C2307 C2308 1.400 . S
C2307 C2312 1.490 . S
C2308 H2298 0.930 . S
C2308 C2307 1.400 . S
C2308 C2311 1.386 1_554 S
H2309 C2325 0.930 . S
H2310 C2326 0.931 . S
C2311 H2299 0.929 . S
C2311 C2305 1.390 . S
C2311 C2308 1.386 1_556 S
C2312 C2307 1.490 . S
C2312 C2314 1.395 . S
C2312 C2315 1.403 . S
H2313 C2319 0.930 . S
C2314 H2300 0.930 . S
C2314 C2312 1.395 . S
C2314 C2317 1.403 . S
C2315 C2312 1.403 . S
C2315 C2316 1.524 . S
C2315 C2319 1.400 . S
C2316 H2301 0.960 . S
C2316 H2302 0.960 . S
C2316 H2303 0.960 . S
C2316 C2315 1.524 . S
C2317 C2314 1.403 . S
C2317 C2318 1.392 . S
C2317 C2321 1.495 . S
C2318 C2317 1.392 . S
C2318 C2319 1.385 . S
C2318 C2320 1.478 . S
C2319 H2313 0.930 . S
C2319 C2315 1.400 . S
C2319 C2318 1.385 . S
C2320 C2318 1.478 . S
C2320 C2322 1.381 . S
C2320 C2326 1.383 . S
C2321 C2317 1.495 . S
C2321 H2327 0.959 . S
C2321 H2328 0.961 . S
C2321 H2329 0.960 . S
C2322 C2320 1.381 . S
C2322 C2323 1.394 . S
C2322 H2330 0.930 . S
C2323 C2322 1.394 . S
C2323 C2324 1.383 . S
C2323 H2331 0.929 . S
C2324 C2323 1.383 . S
C2324 C2325 1.377 . S
C2325 H2309 0.930 . S
C2325 C2324 1.377 . S
C2325 C2326 1.379 . S
C2326 H2310 0.931 . S
C2326 C2320 1.383 . S
C2326 C2325 1.379 . S
H2327 C2321 0.959 . S
H2328 C2321 0.961 . S
H2329 C2321 0.960 . S
H2330 C2322 0.930 . S
H2331 C2323 0.929 . S
H2332 C2340 0.929 . S
H2333 C2342 0.930 . S
H2334 C2344 0.930 . S
H2335 C2347 0.929 . S
H2336 C2350 0.930 . S
H2337 C2352 0.960 . S
H2338 C2352 0.960 . S
H2339 C2352 0.960 . S
C2340 H2332 0.929 . S
C2340 C2341 1.377 . S
C2340 C2342 1.384 . S
C2341 C2340 1.377 . S
C2341 C2347 1.390 . S
C2342 H2333 0.930 . S
C2342 C2340 1.384 . S
C2342 C2343 1.372 . S
C2343 C2342 1.372 . S
C2343 C2344 1.400 . S
C2343 C2348 1.490 . S
C2344 H2334 0.930 . S
C2344 C2343 1.400 . S
C2344 C2347 1.386 . S
H2345 C2361 0.930 . S
H2346 C2362 0.931 . S
C2347 H2335 0.929 . S
C2347 C2341 1.390 . S
C2347 C2344 1.386 . S
C2348 C2343 1.490 . S
C2348 C2350 1.395 . S
C2348 C2351 1.403 . S
H2349 C2355 0.930 . S
C2350 H2336 0.930 . S
C2350 C2348 1.395 . S
C2350 C2353 1.403 . S
C2351 C2348 1.403 . S
C2351 C2352 1.524 . S
C2351 C2355 1.400 . S
C2352 H2337 0.960 . S
C2352 H2338 0.960 . S
C2352 H2339 0.960 . S
C2352 C2351 1.524 . S
C2353 C2350 1.403 . S
C2353 C2354 1.392 . S
C2353 C2357 1.495 . S
C2354 C2353 1.392 . S
C2354 C2355 1.385 . S
C2354 C2356 1.478 . S
C2355 H2349 0.930 . S
C2355 C2351 1.400 . S
C2355 C2354 1.385 . S
C2356 C2354 1.478 . S
C2356 C2358 1.381 . S
C2356 C2362 1.383 . S
C2357 C2353 1.495 . S
C2357 H2363 0.959 . S
C2357 H2364 0.961 . S
C2357 H2365 0.960 . S
C2358 C2356 1.381 . S
C2358 C2359 1.394 1_556 S
C2358 H2366 0.930 . S
C2359 C2358 1.394 1_554 S
C2359 C2360 1.383 . S
C2359 H2367 0.929 . S
C2360 C2359 1.383 . S
C2360 C2361 1.377 . S
C2361 H2345 0.930 . S
C2361 C2360 1.377 . S
C2361 C2362 1.379 1_554 S
C2362 H2346 0.931 . S
C2362 C2356 1.383 . S
C2362 C2361 1.379 1_556 S
H2363 C2357 0.959 . S
H2364 C2357 0.961 . S
H2365 C2357 0.960 . S
H2366 C2358 0.930 . S
H2367 C2359 0.929 . S
C649 C451 1.706 . S
C668 C19 1.694 . S
C685 C322 1.712 . S
C704 C50 1.720 . S
C721 C99 1.714 . S
C740 C371 1.719 . S
C757 C130 1.711 . S
C776 C402 1.694 . S
C793 C179 1.712 . S
C812 C211 1.691 . S
C829 C242 1.706 . S
C848 C210 1.701 . S
C865 C259 1.715 . S
C884 C291 1.721 . S
C901 C162 1.706 . S
C920 C290 1.712 . S
C937 C131 1.706 . S
C956 C339 1.694 . S
C973 C370 1.710 . S
C992 C2 1.714 . S
C1009 C51 1.706 . S
C1028 C419 1.700 . S
C1045 C82 1.712 . S
C1064 C450 1.719 . S
C1081 C499 1.715 . S
C1100 C531 1.709 . S
C1117 C562 1.713 . S
C1136 C530 1.712 . S
C1153 C611 1.707 . S
C1172 C579 1.708 . S
C1189 C610 1.716 . S
C1208 C482 1.706 . S
C1225 C10 1.133 . S
C1244 C170 1.151 . S
C1261 C219 1.136 . S
C1280 C59 1.101 . S
C1297 C90 1.146 . S
C1316 C250 1.103 . S
C1333 C139 1.136 . S
C1352 C299 1.100 . S
C1369 C330 1.137 . S
C1388 C490 1.106 . S
C1405 C539 1.147 . S
C1424 C379 1.145 . S
C1441 C410 1.150 . S
C1460 C570 1.125 . S
C1477 C459 1.133 . S
C1496 C619 1.102 . S
C1513 C571 2.243 . S
C1532 C11 2.241 . S
C1549 C42 2.244 . S
C1568 C602 2.231 . S
C1585 C91 2.245 . S
C1604 C491 2.246 . S
C1621 C122 2.244 . S
C1640 C522 2.247 . S
C1657 C171 2.242 . S
C1676 C411 2.231 . S
C1693 C202 2.245 . S
C1712 C442 2.232 . S
C1729 C251 2.244 . S
C1748 C331 2.236 . S
C1765 C362 2.245 . S
C1784 C282 2.239 . S
C1801 C7 1.118 . S
C1820 C16 1.106 . S
C1837 C56 1.119 . S
C1856 C47 1.109 . S
C1873 C87 1.117 . S
C1892 C96 1.109 . S
C1909 C127 1.121 . S
C1928 C136 1.116 . S
C1945 C176 1.117 . S
C1964 C167 1.114 . S
C1981 C216 1.120 . S
C2000 C207 1.113 . S
C2017 C247 1.121 . S
C2036 C256 1.123 . S
C2053 C287 1.118 . S
C2072 C296 1.124 . S
C2089 C327 1.120 . S
C2108 C336 1.111 . S
C2125 C367 1.121 . S
C2144 C376 1.118 . S
C2161 C416 1.121 . S
C2180 C407 1.123 . S
C2197 C456 1.117 . S
C2216 C447 1.111 . S
C2233 C487 1.117 . S
C2252 C496 1.121 . S
C2269 C527 1.119 . S
C2288 C536 1.126 . S
C2305 C576 1.117 . S
C2324 C567 1.111 . S
C2341 C616 1.119 . S
C2360 C607 1.108 . S
