# Generated by pormake.
# Topology yfh, (5)-cn, num edge types: 1
# Building blocks:
#     Node 0, Type 0, BuildingBlock: XOMCOT_clean_sbu_1, # of connection points: 5
#     Node 1, Type 0, BuildingBlock: XOMCOT_clean_sbu_1, # of connection points: 5
#     Node 2, Type 0, BuildingBlock: XOMCOT_clean_sbu_1, # of connection points: 5
#     Node 3, Type 0, BuildingBlock: XOMCOT_clean_sbu_1, # of connection points: 5
#     Node 4, Type 0, BuildingBlock: XOMCOT_clean_sbu_1, # of connection points: 5
#     Node 5, Type 0, BuildingBlock: XOMCOT_clean_sbu_1, # of connection points: 5
#     Node 6, Type 0, BuildingBlock: XOMCOT_clean_sbu_1, # of connection points: 5
#     Node 7, Type 0, BuildingBlock: XOMCOT_clean_sbu_1, # of connection points: 5
#     Edge 8, Type (0, 0), BuildingBlock: UVAHIK_clean_linker_0, # of connection points: 2
#     Edge 9, Type (0, 0), BuildingBlock: UVAHIK_clean_linker_0, # of connection points: 2
#     Edge 10, Type (0, 0), BuildingBlock: UVAHIK_clean_linker_0, # of connection points: 2
#     Edge 11, Type (0, 0), BuildingBlock: UVAHIK_clean_linker_0, # of connection points: 2
#     Edge 12, Type (0, 0), BuildingBlock: UVAHIK_clean_linker_0, # of connection points: 2
#     Edge 13, Type (0, 0), BuildingBlock: UVAHIK_clean_linker_0, # of connection points: 2
#     Edge 14, Type (0, 0), BuildingBlock: UVAHIK_clean_linker_0, # of connection points: 2
#     Edge 15, Type (0, 0), BuildingBlock: UVAHIK_clean_linker_0, # of connection points: 2
#     Edge 16, Type (0, 0), BuildingBlock: UVAHIK_clean_linker_0, # of connection points: 2
#     Edge 17, Type (0, 0), BuildingBlock: UVAHIK_clean_linker_0, # of connection points: 2
#     Edge 18, Type (0, 0), BuildingBlock: UVAHIK_clean_linker_0, # of connection points: 2
#     Edge 19, Type (0, 0), BuildingBlock: UVAHIK_clean_linker_0, # of connection points: 2
#     Edge 20, Type (0, 0), BuildingBlock: UVAHIK_clean_linker_0, # of connection points: 2
#     Edge 21, Type (0, 0), BuildingBlock: UVAHIK_clean_linker_0, # of connection points: 2
#     Edge 22, Type (0, 0), BuildingBlock: UVAHIK_clean_linker_0, # of connection points: 2
#     Edge 23, Type (0, 0), BuildingBlock: UVAHIK_clean_linker_0, # of connection points: 2
#     Edge 24, Type (0, 0), BuildingBlock: UVAHIK_clean_linker_0, # of connection points: 2
#     Edge 25, Type (0, 0), BuildingBlock: UVAHIK_clean_linker_0, # of connection points: 2
#     Edge 26, Type (0, 0), BuildingBlock: UVAHIK_clean_linker_0, # of connection points: 2
#     Edge 27, Type (0, 0), BuildingBlock: UVAHIK_clean_linker_0, # of connection points: 2
# Relax obj value: 0.372
# Max RMSD: 0.270
# Mean RMSD: 0.270
data_MOF--net-yfh--node1-XOMCOT_clean_sbu_1--edge1-UVAHIK_clean_linker_0
_symmetry_space_group_name_H-M    P1
_symmetry_Int_Tables_number       1
_symmetry_cell_setting            triclinic
loop_
_symmetry_equiv_pos_as_xyz
'x, y, z'
_cell_length_a     36.018778
_cell_length_b     35.845251
_cell_length_c     72.650108
_cell_angle_alpha  90.417424
_cell_angle_beta   89.857193
_cell_angle_gamma 89.842863
loop_
_atom_site_label
_atom_site_type_symbol
_atom_site_fract_x
_atom_site_fract_y
_atom_site_fract_z
_atom_type_partial_charge
C0 C 0.36121 0.12956 0.08904 0.0
C1 C 0.34804 0.12852 0.07127 0.0
N2 N 0.31947 0.15268 0.07013 0.0
N3 N 0.3415 0.15492 0.09882 0.0
C4 C 0.31591 0.16809 0.08701 0.0
H5 H 0.38426 0.1136 0.0944 0.0
Co6 Co 0.3488 0.16877 0.12316 0.0
C7 C 0.34536 0.25114 0.12236 0.0
O8 O 0.37679 0.25031 0.13152 0.0
N9 N 0.35467 0.18143 0.14838 0.0
C10 C 0.33863 0.20161 0.17643 0.0
C11 C 0.33457 0.2071 0.15791 0.0
C12 C 0.36928 0.15961 0.16169 0.0
N13 N 0.36004 0.17135 0.17881 0.0
O14 O 0.30061 0.14904 0.12881 0.0
H15 H 0.31444 0.22593 0.15206 0.0
H16 H 0.38293 0.13327 0.15899 0.0
O17 O 0.32948 0.2202 0.11801 0.0
C18 C 0.30753 0.11517 0.13308 0.0
O19 O 0.34233 0.1041 0.13333 0.0
N20 N 0.39797 0.18266 0.11696 0.0
C21 C 0.46471 0.17339 0.09779 0.0
C22 C 0.43838 0.19962 0.09199 0.0
C23 C 0.40503 0.20357 0.10164 0.0
C24 C 0.4249 0.15974 0.12372 0.0
C25 C 0.45859 0.15496 0.11446 0.0
H26 H 0.38323 0.21958 0.09525 0.0
H27 H 0.41886 0.14127 0.1349 0.0
H28 H 0.29577 0.18945 0.09054 0.0
H29 H 0.35875 0.11162 0.06004 0.0
H30 H 0.32317 0.21585 0.18719 0.0
H31 H 0.44152 0.21388 0.07899 0.0
H32 H 0.47823 0.13446 0.11943 0.0
C33 C 0.41436 0.84838 0.3378 0.0
C34 C 0.41157 0.83338 0.32032 0.0
N35 N 0.37958 0.81404 0.31929 0.0
N36 N 0.38429 0.83857 0.3477 0.0
C37 C 0.36371 0.81774 0.33604 0.0
H38 H 0.43662 0.86577 0.3429 0.0
Co39 Co 0.37364 0.85315 0.37178 0.0
C40 C 0.31429 0.80087 0.38375 0.0
O41 O 0.33063 0.79385 0.39948 0.0
N42 N 0.36268 0.86821 0.39639 0.0
C43 C 0.33559 0.89332 0.42128 0.0
C44 C 0.33633 0.89255 0.40233 0.0
C45 C 0.37725 0.85454 0.41214 0.0
N46 N 0.36115 0.86903 0.42735 0.0
O47 O 0.40514 0.81368 0.38003 0.0
H48 H 0.31771 0.90804 0.39359 0.0
H49 H 0.39848 0.8333 0.4127 0.0
O50 O 0.32978 0.82207 0.37204 0.0
C51 C 0.43735 0.82761 0.38247 0.0
O52 O 0.44114 0.86401 0.38145 0.0
N53 N 0.34678 0.89311 0.36251 0.0
C54 C 0.32503 0.95183 0.34023 0.0
C55 C 0.3026 0.92007 0.34192 0.0
C56 C 0.31407 0.89076 0.35311 0.0
C57 C 0.36728 0.92491 0.36224 0.0
C58 C 0.35681 0.9548 0.35125 0.0
H59 H 0.29801 0.86539 0.35298 0.0
H60 H 0.39347 0.92585 0.36948 0.0
H61 H 0.33686 0.80658 0.33951 0.0
H62 H 0.43149 0.8366 0.30928 0.0
H63 H 0.31675 0.90931 0.4299 0.0
H64 H 0.27771 0.91688 0.33372 0.0
H65 H 0.37521 0.97854 0.35021 0.0
C66 C 0.63013 0.88506 0.59276 0.0
C67 C 0.64392 0.88003 0.57524 0.0
N68 N 0.67189 0.85512 0.57601 0.0
N69 N 0.64892 0.86295 0.60445 0.0
C70 C 0.67464 0.84542 0.59388 0.0
H71 H 0.60697 0.9027 0.59666 0.0
Co72 Co 0.63606 0.85718 0.6291 0.0
C73 C 0.65475 0.77964 0.63875 0.0
O74 O 0.62398 0.77937 0.64845 0.0
N75 N 0.623 0.85251 0.65462 0.0
C76 C 0.59427 0.84587 0.6817 0.0
C77 C 0.59004 0.84526 0.66292 0.0
C78 C 0.6467 0.85721 0.66894 0.0
N79 N 0.6299 0.85364 0.68546 0.0
O80 O 0.67848 0.88692 0.63573 0.0
H81 H 0.56423 0.83916 0.65612 0.0
H82 H 0.67594 0.86316 0.66737 0.0
O83 O 0.66417 0.80939 0.63019 0.0
C84 C 0.66583 0.91987 0.63844 0.0
O85 O 0.62979 0.92513 0.63719 0.0
N86 N 0.59269 0.83305 0.62123 0.0
C87 C 0.53064 0.81973 0.59912 0.0
C88 C 0.56144 0.79554 0.59856 0.0
C89 C 0.5923 0.80278 0.60967 0.0
C90 C 0.56255 0.856 0.62234 0.0
C91 C 0.53081 0.84904 0.61203 0.0
H92 H 0.61713 0.78651 0.60731 0.0
H93 H 0.56408 0.88141 0.63042 0.0
H94 H 0.69391 0.82475 0.59897 0.0
H95 H 0.63384 0.8932 0.56285 0.0
H96 H 0.57252 0.84196 0.69181 0.0
H97 H 0.56328 0.77322 0.58849 0.0
H98 H 0.50766 0.86822 0.61325 0.0
C99 C 0.63452 0.12961 0.84297 0.0
C100 C 0.63845 0.14522 0.8258 0.0
N101 N 0.6594 0.17618 0.82749 0.0
N102 N 0.65316 0.15052 0.85533 0.0
C103 C 0.66749 0.17888 0.84557 0.0
H104 H 0.61964 0.10431 0.8462 0.0
Co105 Co 0.6586 0.1421 0.88028 0.0
C106 C 0.73639 0.16202 0.8888 0.0
O107 O 0.73712 0.13187 0.899 0.0
N108 N 0.66306 0.13506 0.90594 0.0
C109 C 0.67155 0.15276 0.93505 0.0
C110 C 0.67409 0.16331 0.91708 0.0
C111 C 0.65174 0.10818 0.91773 0.0
N112 N 0.65745 0.11818 0.93549 0.0
O113 O 0.62834 0.18549 0.88514 0.0
H114 H 0.68205 0.19076 0.91245 0.0
H115 H 0.63774 0.08287 0.9136 0.0
O116 O 0.70628 0.17081 0.88037 0.0
C117 C 0.59578 0.1731 0.88852 0.0
O118 O 0.591 0.13677 0.88897 0.0
N119 N 0.68379 0.09722 0.87437 0.0
C120 C 0.69996 0.03345 0.85324 0.0
C121 C 0.72411 0.06407 0.85346 0.0
C122 C 0.71475 0.0961 0.8634 0.0
C123 C 0.6619 0.06638 0.87575 0.0
C124 C 0.66938 0.03425 0.8653 0.0
H125 H 0.7303 0.12092 0.86037 0.0
H126 H 0.6358 0.06825 0.88304 0.0
H127 H 0.68343 0.20128 0.85165 0.0
H128 H 0.62759 0.13403 0.81304 0.0
H129 H 0.67684 0.17024 0.94697 0.0
H130 H 0.7484 0.06482 0.84466 0.0
H131 H 0.64928 0.01187 0.8654 0.0
C132 C 0.85173 0.40049 0.65662 0.0
C133 C 0.83866 0.40047 0.67446 0.0
N134 N 0.81258 0.37372 0.67584 0.0
N135 N 0.83429 0.37353 0.64697 0.0
C136 C 0.81031 0.3581 0.65895 0.0
H137 H 0.87312 0.41838 0.6511 0.0
Co138 Co 0.8425 0.36048 0.62257 0.0
C139 C 0.83838 0.27813 0.62273 0.0
O140 O 0.87022 0.27856 0.61384 0.0
N141 N 0.84929 0.34842 0.59732 0.0
C142 C 0.83539 0.32802 0.56909 0.0
C143 C 0.82938 0.32319 0.58753 0.0
C144 C 0.86559 0.36953 0.58422 0.0
N145 N 0.85784 0.35749 0.56701 0.0
O146 O 0.79469 0.38097 0.61674 0.0
H147 H 0.80842 0.30496 0.59308 0.0
H148 H 0.8796 0.39554 0.58703 0.0
O149 O 0.82264 0.30924 0.62707 0.0
C150 C 0.80176 0.41472 0.61239 0.0
O151 O 0.83657 0.42552 0.61206 0.0
N152 N 0.89125 0.34564 0.62898 0.0
C153 C 0.96004 0.34788 0.64668 0.0
C154 C 0.93194 0.32404 0.65287 0.0
C155 C 0.89764 0.32371 0.64401 0.0
C156 C 0.91912 0.36728 0.62219 0.0
C157 C 0.95385 0.3684 0.63064 0.0
H158 H 0.87519 0.30883 0.65051 0.0
H159 H 0.91362 0.387 0.61147 0.0
H160 H 0.79239 0.33493 0.65552 0.0
H161 H 0.84788 0.41848 0.68555 0.0
H162 H 0.8208 0.31387 0.55806 0.0
H163 H 0.93503 0.30852 0.66551 0.0
H164 H 0.97469 0.38738 0.62546 0.0
C165 C 0.11736 0.3548 0.89656 0.0
C166 C 0.11822 0.34227 0.91442 0.0
N167 N 0.1431 0.31424 0.91529 0.0
N168 N 0.14221 0.33526 0.88644 0.0
C169 C 0.15701 0.31035 0.89815 0.0
H170 H 0.10052 0.37742 0.8914 0.0
Co171 Co 0.15414 0.34371 0.86204 0.0
C172 C 0.23477 0.33077 0.85863 0.0
O173 O 0.23517 0.36198 0.84923 0.0
N174 N 0.16506 0.35108 0.83687 0.0
C175 C 0.18174 0.33485 0.80839 0.0
C176 C 0.18139 0.32427 0.82642 0.0
C177 C 0.15408 0.37705 0.82454 0.0
N178 N 0.16437 0.36793 0.80716 0.0
O179 O 0.12941 0.29801 0.85579 0.0
H180 H 0.19079 0.29756 0.83147 0.0
H181 H 0.13685 0.40084 0.82789 0.0
O182 O 0.20372 0.31875 0.86507 0.0
C183 C 0.09711 0.30656 0.84988 0.0
O184 O 0.08953 0.34192 0.84701 0.0
N185 N 0.17341 0.39052 0.86934 0.0
C186 C 0.17148 0.45037 0.89407 0.0
C187 C 0.19948 0.42336 0.89516 0.0
C188 C 0.19951 0.39326 0.88297 0.0
C189 C 0.14878 0.41902 0.86676 0.0
C190 C 0.14743 0.44943 0.87896 0.0
H191 H 0.21687 0.36996 0.88658 0.0
H192 H 0.1261 0.41549 0.85725 0.0
H193 H 0.17867 0.29071 0.89443 0.0
H194 H 0.10227 0.35318 0.92591 0.0
H195 H 0.19113 0.318 0.79684 0.0
H196 H 0.21852 0.4231 0.90669 0.0
H197 H 0.12493 0.46938 0.87785 0.0
C198 C 0.14147 0.63561 0.14713 0.0
C199 C 0.15753 0.63637 0.16429 0.0
N200 N 0.18387 0.6631 0.16452 0.0
N201 N 0.15743 0.6618 0.13658 0.0
C202 C 0.18335 0.67781 0.14743 0.0
H203 H 0.11946 0.61727 0.1426 0.0
Co204 Co 0.14557 0.67135 0.11219 0.0
C205 C 0.15574 0.7523 0.10832 0.0
O206 O 0.12297 0.7519 0.10038 0.0
N207 N 0.13502 0.67911 0.08685 0.0
C208 C 0.14658 0.69223 0.05742 0.0
C209 C 0.15595 0.6998 0.07528 0.0
C210 C 0.11465 0.65741 0.07532 0.0
N211 N 0.12087 0.66521 0.05739 0.0
O212 O 0.19012 0.64516 0.10489 0.0
H213 H 0.17959 0.71646 0.07924 0.0
H214 H 0.09849 0.63379 0.07982 0.0
O215 O 0.17032 0.72141 0.1137 0.0
C216 C 0.17951 0.61153 0.10217 0.0
O217 O 0.14408 0.6039 0.1042 0.0
N218 N 0.09983 0.69266 0.12032 0.0
C219 C 0.03414 0.70585 0.1402 0.0
C220 C 0.06727 0.724 0.14494 0.0
C221 C 0.09959 0.71699 0.13493 0.0
C222 C 0.06749 0.67628 0.11489 0.0
C223 C 0.03425 0.6831 0.12436 0.0
H224 H 0.12515 0.72874 0.14007 0.0
H225 H 0.06757 0.6554 0.10419 0.0
H226 H 0.20094 0.70037 0.14295 0.0
H227 H 0.15033 0.61839 0.17563 0.0
H228 H 0.16087 0.70255 0.04536 0.0
H229 H 0.06935 0.74103 0.15725 0.0
H230 H 0.00942 0.66868 0.11994 0.0
C231 C 0.91019 0.67767 0.40347 0.0
C232 C 0.90247 0.691 0.42087 0.0
N233 N 0.86876 0.70729 0.42056 0.0
N234 N 0.88135 0.68522 0.39231 0.0
C235 C 0.85658 0.7036 0.40308 0.0
H236 H 0.93464 0.66213 0.39932 0.0
Co237 Co 0.87837 0.66652 0.36848 0.0
C238 C 0.80274 0.68211 0.35507 0.0
O239 O 0.8041 0.64986 0.34639 0.0
N240 N 0.87681 0.6472 0.34405 0.0
C241 C 0.87765 0.61071 0.31912 0.0
C242 C 0.87772 0.61142 0.33799 0.0
C243 C 0.87646 0.66759 0.3284 0.0
N244 N 0.8769 0.64607 0.31306 0.0
O245 O 0.90672 0.70835 0.36028 0.0
H246 H 0.8788 0.58694 0.34647 0.0
H247 H 0.87583 0.69777 0.3283 0.0
O248 O 0.83086 0.693 0.36447 0.0
C249 C 0.93991 0.69854 0.3564 0.0
O250 O 0.94843 0.66288 0.35642 0.0
N251 N 0.85465 0.62453 0.37808 0.0
C252 C 0.83696 0.56666 0.40189 0.0
C253 C 0.81106 0.59488 0.39823 0.0
C254 C 0.82065 0.62397 0.3865 0.0
C255 C 0.87979 0.5969 0.38131 0.0
C256 C 0.87126 0.56726 0.39281 0.0
H257 H 0.80196 0.6474 0.3858 0.0
H258 H 0.90762 0.59923 0.37581 0.0
H259 H 0.82931 0.71222 0.39858 0.0
H260 H 0.91991 0.68829 0.4329 0.0
H261 H 0.87938 0.58595 0.31054 0.0
H262 H 0.78463 0.59582 0.40537 0.0
H263 H 0.89255 0.54676 0.39577 0.0
C264 C 0.31777 0.16713 0.03707 0.0
C265 C 0.29924 0.16303 0.05395 0.0
C266 C 0.29888 0.1808 0.02177 0.0
C267 C 0.20881 0.19173 0.00036 0.0
H268 H 0.2493 0.28191 0.97903 0.0
C269 C 0.16467 0.2571 0.93057 0.0
C270 C 0.15562 0.2952 0.93143 0.0
C271 C 0.17946 0.23916 0.94591 0.0
C272 C 0.23774 0.25677 0.9849 0.0
H273 H 0.24637 0.16819 0.06798 0.0
H274 H 0.21291 0.19128 0.04096 0.0
H275 H 0.28149 0.252 0.00466 0.0
H276 H 0.15462 0.34447 0.94884 0.0
H277 H 0.18143 0.31325 0.97563 0.0
H278 H 0.16541 0.1962 0.98027 0.0
C279 C 0.2421 0.18431 0.03969 0.0
C280 C 0.25621 0.23958 -0.00059 0.0
C281 C 0.26118 0.17136 0.0551 0.0
C282 C 0.16104 0.31498 0.94795 0.0
C283 C 0.17654 0.29725 0.96316 0.0
C284 C 0.19071 0.20852 0.98555 0.0
C285 C 0.261 0.18983 0.02303 0.0
C286 C 0.24181 0.20705 0.0073 0.0
C287 C 0.18614 0.2593 0.9622 0.0
C288 C 0.20494 0.24131 0.97782 0.0
H289 H 0.34717 0.16118 0.03593 0.0
H290 H 0.31392 0.18479 0.00901 0.0
H291 H 0.19729 0.16662 0.00628 0.0
H292 H 0.16055 0.24136 0.91797 0.0
H293 H 0.18684 0.2099 0.94487 0.0
C294 C 0.23834 0.69681 0.17724 0.0
C295 C 0.20648 0.6748 0.17994 0.0
C296 C 0.25908 0.70969 0.19223 0.0
C297 C 0.2508 0.72737 0.24238 0.0
H298 H 0.35798 0.73639 0.23992 0.0
C299 C 0.33742 0.76685 0.30585 0.0
C300 C 0.36402 0.79511 0.30349 0.0
C301 C 0.32018 0.75036 0.29068 0.0
C302 C 0.32803 0.73423 0.24074 0.0
H303 H 0.17226 0.64863 0.20083 0.0
H304 H 0.20903 0.66983 0.22673 0.0
H305 H 0.32417 0.71029 0.21373 0.0
H306 H 0.39402 0.82727 0.28314 0.0
H307 H 0.36414 0.79803 0.25659 0.0
H308 H 0.2547 0.75099 0.26942 0.0
C309 C 0.21749 0.6779 0.21301 0.0
C310 C 0.30862 0.71937 0.22573 0.0
C311 C 0.19659 0.66527 0.19805 0.0
C312 C 0.37391 0.80545 0.28549 0.0
C313 C 0.35676 0.78873 0.27027 0.0
C314 C 0.2702 0.74191 0.25739 0.0
C315 C 0.24873 0.70068 0.21032 0.0
C316 C 0.26972 0.7158 0.22635 0.0
C317 C 0.32925 0.76146 0.27273 0.0
C318 C 0.30901 0.74555 0.25675 0.0
H319 H 0.24737 0.70436 0.16357 0.0
H320 H 0.28277 0.72742 0.18961 0.0
H321 H 0.22082 0.72585 0.24323 0.0
H322 H 0.32973 0.75746 0.31945 0.0
H323 H 0.2996 0.7289 0.293 0.0
C324 C 0.82802 0.75531 0.43455 0.0
C325 C 0.84863 0.72217 0.4361 0.0
C326 C 0.80924 0.77014 0.44986 0.0
C327 C 0.76216 0.74558 0.49162 0.0
H328 H 0.78729 0.84357 0.51088 0.0
C329 C 0.67356 0.83057 0.54424 0.0
C330 C 0.69215 0.83973 0.56063 0.0
C331 C 0.69303 0.81565 0.52922 0.0
C332 C 0.7801 0.81619 0.50561 0.0
H333 H 0.86492 0.67793 0.45455 0.0
H334 H 0.83094 0.70318 0.48118 0.0
H335 H 0.81994 0.81892 0.4836 0.0
H336 H 0.74552 0.84087 0.57419 0.0
H337 H 0.78008 0.81587 0.54752 0.0
H338 H 0.72156 0.74329 0.51327 0.0
C339 C 0.83001 0.71801 0.46825 0.0
C340 C 0.79855 0.80223 0.49002 0.0
C341 C 0.84952 0.70371 0.45309 0.0
C342 C 0.73066 0.83388 0.56171 0.0
C343 C 0.75033 0.81981 0.5465 0.0
C344 C 0.7431 0.75991 0.50692 0.0
C345 C 0.80997 0.75148 0.4668 0.0
C346 C 0.78985 0.76674 0.48298 0.0
C347 C 0.73159 0.81043 0.53017 0.0
C348 C 0.75207 0.79522 0.5141 0.0
H349 H 0.82706 0.77 0.42159 0.0
H350 H 0.7938 0.79594 0.44844 0.0
H351 H 0.75501 0.71815 0.48639 0.0
H352 H 0.64383 0.83453 0.54315 0.0
H353 H 0.67805 0.80863 0.51676 0.0
C354 C 0.81074 0.36461 0.70952 0.0
C355 C 0.79375 0.36132 0.6922 0.0
C356 C 0.79426 0.3489 0.72506 0.0
C357 C 0.70642 0.31016 0.74328 0.0
H358 H 0.77225 0.25135 0.77376 0.0
C359 C 0.65333 0.2027 0.79625 0.0
C360 C 0.67252 0.20016 0.81302 0.0
C361 C 0.66679 0.22521 0.78209 0.0
C362 C 0.75353 0.26808 0.76558 0.0
H363 H 0.74511 0.34095 0.67781 0.0
H364 H 0.71664 0.31306 0.70485 0.0
H365 H 0.79774 0.28709 0.74839 0.0
H366 H 0.72108 0.2194 0.82795 0.0
H367 H 0.74384 0.25918 0.80357 0.0
H368 H 0.66213 0.29074 0.76042 0.0
C369 C 0.74264 0.32783 0.70644 0.0
C370 C 0.76817 0.28861 0.75104 0.0
C371 C 0.75916 0.34345 0.69091 0.0
C372 C 0.70524 0.22098 0.81536 0.0
C373 C 0.71861 0.24348 0.80126 0.0
C374 C 0.69175 0.28964 0.75788 0.0
C375 C 0.7604 0.3297 0.72361 0.0
C376 C 0.74478 0.30972 0.73967 0.0
C377 C 0.69976 0.24563 0.7844 0.0
C378 C 0.71515 0.26822 0.76914 0.0
H379 H 0.83746 0.37802 0.71097 0.0
H380 H 0.80837 0.35122 0.73817 0.0
H381 H 0.68775 0.32646 0.73486 0.0
H382 H 0.62789 0.18734 0.79404 0.0
H383 H 0.65178 0.22599 0.7692 0.0
C384 C 0.60521 0.09627 0.9542 0.0
C385 C 0.64351 0.10149 0.95196 0.0
C386 C 0.59001 0.09301 0.97188 0.0
C387 C 0.61219 0.1284 0.01785 0.0
H388 H 0.52061 0.07945 0.03167 0.0
C389 C 0.49979 0.12199 0.08194 0.0
C390 C 0.49417 0.16046 0.08487 0.0
C391 C 0.52262 0.10923 0.06765 0.0
C392 C 0.54652 0.09294 0.02815 0.0
H393 H 0.69637 0.10354 0.96586 0.0
H394 H 0.67026 0.09628 -0.00331 0.0
H395 H 0.55158 0.06187 0.00293 0.0
H396 H 0.50961 0.21563 0.07565 0.0
H397 H 0.54942 0.19339 0.05062 0.0
H398 H 0.60684 0.15993 0.04285 0.0
C399 C 0.65172 0.09576 0.98498 0.0
C400 C 0.56406 0.08306 0.01161 0.0
C401 C 0.66675 0.09938 0.96737 0.0
C402 C 0.51333 0.18586 0.07372 0.0
C403 C 0.53629 0.17308 0.05945 0.0
C404 C 0.59463 0.13831 0.03433 0.0
C405 C 0.61304 0.09476 0.98751 0.0
C406 C 0.59677 0.10116 0.00611 0.0
C407 C 0.54044 0.13461 0.05597 0.0
C408 C 0.56121 0.12124 0.0395 0.0
H409 H 0.58681 0.09846 0.94249 0.0
H410 H 0.56009 0.09242 0.97331 0.0
H411 H 0.63703 0.14338 0.01395 0.0
H412 H 0.48501 0.1016 0.09006 0.0
H413 H 0.52558 0.07945 0.06544 0.0
C414 C 0.32594 0.01681 0.32749 0.0
C415 C 0.31922 0.97851 0.32501 0.0
C416 C 0.32712 0.04062 0.31234 0.0
C417 C 0.30553 0.04617 0.26235 0.0
H418 H 0.38905 0.11426 0.26144 0.0
C419 C 0.35685 0.11144 0.19519 0.0
C420 C 0.3618 0.1503 0.19554 0.0
C421 C 0.35207 0.09185 0.21155 0.0
C422 C 0.36546 0.09559 0.26158 0.0
H423 H 0.30731 0.93539 0.30477 0.0
H424 H 0.30942 0.97661 0.27851 0.0
H425 H 0.37579 0.07908 0.28932 0.0
H426 H 0.36758 0.19881 0.21318 0.0
H427 H 0.35968 0.16443 0.24193 0.0
H428 H 0.29586 0.06201 0.23443 0.0
C429 C 0.31315 0.98857 0.29211 0.0
C430 C 0.35767 0.07562 0.27757 0.0
C431 C 0.31183 0.96487 0.30722 0.0
C432 C 0.36379 0.16887 0.2126 0.0
C433 C 0.35934 0.14922 0.22899 0.0
C434 C 0.3135 0.06588 0.24634 0.0
C435 C 0.32178 0.02653 0.29443 0.0
C436 C 0.32785 0.05036 0.27807 0.0
C437 C 0.35243 0.11069 0.22857 0.0
C438 C 0.34379 0.09044 0.24573 0.0
H439 H 0.33143 0.02814 0.34107 0.0
H440 H 0.33314 0.06988 0.31461 0.0
H441 H 0.28199 0.02744 0.26236 0.0
H442 H 0.35465 0.09643 0.18225 0.0
H443 H 0.34726 0.06205 0.21086 0.0
C444 C 0.37823 0.82175 0.45032 0.0
C445 C 0.36858 0.85868 0.44607 0.0
C446 C 0.38754 0.81197 0.46829 0.0
C447 C 0.38583 0.84639 0.51688 0.0
H448 H 0.47203 0.78212 0.52169 0.0
C449 C 0.48658 0.85151 0.57756 0.0
C450 C 0.50155 0.81815 0.58456 0.0
C451 C 0.46279 0.85102 0.56249 0.0
C452 C 0.44745 0.79945 0.52062 0.0
H453 H 0.36018 0.91413 0.45727 0.0
H454 H 0.37752 0.89753 0.48862 0.0
H455 H 0.44506 0.79215 0.49146 0.0
H456 H 0.50156 0.75786 0.58141 0.0
H457 H 0.46087 0.75729 0.55446 0.0
H458 H 0.38985 0.85526 0.54602 0.0
C459 C 0.3771 0.8758 0.4782 0.0
C460 C 0.43192 0.80526 0.50328 0.0
C461 C 0.36735 0.88545 0.46023 0.0
C462 C 0.49104 0.78413 0.5763 0.0
C463 C 0.4676 0.78373 0.56094 0.0
C464 C 0.40162 0.84086 0.5342 0.0
C465 C 0.38782 0.83901 0.4824 0.0
C466 C 0.40145 0.82951 0.50112 0.0
C467 C 0.45374 0.81727 0.55375 0.0
C468 C 0.43311 0.81803 0.53616 0.0
H469 H 0.37857 0.80037 0.43971 0.0
H470 H 0.39482 0.78323 0.47107 0.0
H471 H 0.36189 0.86457 0.51581 0.0
H472 H 0.49465 0.87843 0.58305 0.0
H473 H 0.45312 0.87735 0.55703 0.0
C474 C 0.71598 0.01443 0.8208 0.0
C475 C 0.70309 1.00441 0.83842 0.0
C476 C 0.71497 0.98915 0.80615 0.0
C477 C 0.65974 0.91324 0.78877 0.0
H478 H 0.73733 0.90567 0.7518 0.0
C479 C 0.63187 0.84187 0.71891 0.0
C480 C 0.64545 0.86069 0.7034 0.0
C481 C 0.64411 0.85144 0.73657 0.0
C482 C 0.71529 0.90759 0.76193 0.0
H483 H 0.68025 0.95879 0.85432 0.0
H484 H 0.67715 0.91499 0.82835 0.0
H485 H 0.75007 0.93664 0.78114 0.0
H486 H 0.68317 0.90366 0.69419 0.0
H487 H 0.70395 0.92105 0.72491 0.0
H488 H 0.62421 0.88635 0.76931 0.0
C489 C 0.68838 0.9426 0.82614 0.0
C490 C 0.72271 0.92509 0.77878 0.0
C491 C 0.69001 0.96779 0.84098 0.0
C492 C 0.67254 0.88835 0.70585 0.0
C493 C 0.68451 0.89822 0.72352 0.0
C494 C 0.65217 0.89607 0.77185 0.0
C495 C 0.70042 0.95328 0.80853 0.0
C496 C 0.69473 0.92895 0.79217 0.0
C497 C 0.66995 0.88037 0.73915 0.0
C498 C 0.67956 0.89392 0.75801 0.0
H499 H 0.72515 0.04251 0.8179 0.0
H500 H 0.72374 0.99846 0.79267 0.0
H501 H 0.6375 0.91621 0.79874 0.0
H502 H 0.61137 0.82005 0.71738 0.0
H503 H 0.63283 0.83654 0.74822 0.0
C504 C 0.17529 0.38288 0.77471 0.0
C505 C 0.15188 0.3838 0.79017 0.0
C506 C 0.16103 0.38904 0.75715 0.0
C507 C 0.07642 0.41713 0.73119 0.0
H508 H 0.10789 0.33789 0.69793 0.0
C509 C 0.00973 0.3273 0.66862 0.0
C510 C 0.99247 0.35591 0.65864 0.0
C511 C 0.03561 0.33581 0.6823 0.0
C512 C 0.09889 0.36025 0.70702 0.0
H513 H 0.09589 0.3946 0.79969 0.0
H514 H 0.07062 0.40499 0.76901 0.0
H515 H 0.14031 0.34713 0.72692 0.0
H516 H 0.99021 0.41588 0.65468 0.0
H517 H 0.03599 0.43053 0.6782 0.0
H518 H 0.0336 0.42877 0.7117 0.0
C519 C 0.10015 0.4 0.77038 0.0
C520 C 0.11777 0.36592 0.72356 0.0
C521 C 0.11456 0.39413 0.78798 0.0
C522 C 1.00326 0.39307 0.66194 0.0
C523 C 0.02913 0.40156 0.67561 0.0
C524 C 0.05751 0.41143 0.71463 0.0
C525 C 0.12293 0.39587 0.75471 0.0
C526 C 0.10622 0.39385 0.73604 0.0
C527 C 0.04479 0.37313 0.6863 0.0
C528 C 0.06798 0.38232 0.70258 0.0
H529 H 0.20425 0.37528 0.77615 0.0
H530 H 0.17948 0.38655 0.74541 0.0
H531 H 0.06706 0.43909 0.74042 0.0
H532 H 1.00218 0.29841 0.66632 0.0
H533 H 0.04696 0.31322 0.69037 0.0
C534 C 0.16112 0.45667 0.92784 0.0
C535 C 0.16271 0.47367 0.91048 0.0
C536 C 0.15157 0.47724 0.94348 0.0
C537 C 0.10653 0.56459 0.95943 0.0
H538 H 0.16174 0.54391 0.00399 0.0
C539 C 0.10856 0.65989 0.02418 0.0
C540 C 0.11174 0.64292 0.04148 0.0
C541 C 0.10808 0.63834 0.00809 0.0
C542 C 0.14557 0.54959 0.99177 0.0
H543 H 0.15442 0.52536 0.89581 0.0
H544 H 0.13846 0.56198 0.92344 0.0
H545 H 0.17628 0.50972 0.97593 0.0
H546 H 0.11441 0.58994 0.05558 0.0
H547 H 0.11298 0.55213 0.0275 0.0
H548 H 0.07648 0.6053 0.97539 0.0
C549 C 0.14439 0.53251 0.92484 0.0
C550 C 0.15399 0.53004 0.97563 0.0
C551 C 0.15377 0.5117 0.90906 0.0
C552 C 0.11165 0.60381 0.04247 0.0
C553 C 0.11132 0.58221 0.02637 0.0
C554 C 0.09821 0.58436 0.97563 0.0
C555 C 0.14344 0.51548 0.94226 0.0
C556 C 0.13456 0.53717 0.95926 0.0
C557 C 0.11095 0.59931 0.00899 0.0
C558 C 0.11763 0.57699 0.99199 0.0
H559 H 0.16653 0.42709 0.92932 0.0
H560 H 0.1501 0.46294 0.95654 0.0
H561 H 0.09073 0.57045 0.94712 0.0
H562 H 0.10842 0.69001 0.02309 0.0
H563 H 0.10788 0.65238 0.99494 0.0
C564 C 0.99584 0.73657 0.16528 0.0
C565 C 1.00218 0.706 0.15337 0.0
C566 C 0.97222 0.73326 0.18049 0.0
C567 C 0.93725 0.65802 0.2104 0.0
H568 H 0.88891 0.73961 0.23642 0.0
C569 C 0.86727 0.634 0.27992 0.0
C570 C 0.87948 0.65774 0.29413 0.0
C571 C 0.87406 0.64272 0.26153 0.0
C572 C 0.90225 0.7166 0.22925 0.0
H573 H 0.98489 0.64915 0.14727 0.0
H574 H 0.94201 0.64453 0.17274 0.0
H575 H 0.91352 0.74957 0.20541 0.0
H576 H 0.90652 0.71045 0.30006 0.0
H577 H 0.9182 0.72581 0.26784 0.0
H578 H 0.92623 0.62516 0.23419 0.0
C579 C 0.95684 0.67048 0.17093 0.0
C580 C 0.91647 0.72227 0.21151 0.0
C581 C 0.98107 0.67347 0.15599 0.0
C582 C 0.89659 0.69163 0.28947 0.0
C583 C 0.90327 0.70045 0.27101 0.0
C584 C 0.92267 0.65228 0.22793 0.0
C585 C 0.95365 0.69954 0.18396 0.0
C586 C 0.93466 0.69314 0.20195 0.0
C587 C 0.89306 0.6755 0.2569 0.0
C588 C 0.90547 0.68157 0.23766 0.0
H589 H 0.01059 0.76256 0.16344 0.0
H590 H 0.97045 0.75642 0.1901 0.0
H591 H 0.95192 0.63511 0.20384 0.0
H592 H 0.8532 0.60815 0.28301 0.0
H593 H 0.86532 0.62327 0.25092 0.0
C594 C 0.84184 0.50302 0.41576 0.0
C595 C 0.83127 0.54065 0.41733 0.0
C596 C 0.84242 0.48025 0.43128 0.0
C597 C 0.8127 0.47591 0.48035 0.0
H598 H 0.89981 0.41289 0.48532 0.0
C599 C 0.85681 0.41653 0.54994 0.0
C600 C 0.86218 0.37772 0.55018 0.0
C601 C 0.85428 0.43528 0.53323 0.0
C602 C 0.87528 0.43022 0.48403 0.0
H603 H 0.8122 0.58376 0.43622 0.0
H604 H 0.81358 0.54442 0.46323 0.0
H605 H 0.88924 0.44616 0.45659 0.0
H606 H 0.87113 0.3284 0.53341 0.0
H607 H 0.86742 0.36138 0.50404 0.0
H608 H 0.79945 0.46078 0.50803 0.0
C609 C 0.82063 0.53205 0.45003 0.0
C610 C 0.86901 0.44904 0.46756 0.0
C611 C 0.81976 0.55466 0.43452 0.0
C612 C 0.86702 0.35833 0.53349 0.0
C613 C 0.86495 0.37716 0.51676 0.0
C614 C 0.81922 0.45747 0.49686 0.0
C615 C 0.83279 0.49483 0.44868 0.0
C616 C 0.8378 0.47238 0.46559 0.0
C617 C 0.85747 0.4156 0.51651 0.0
C618 C 0.85072 0.43476 0.4989 0.0
H619 H 0.85068 0.49155 0.40262 0.0
H620 H 0.85125 0.4515 0.42972 0.0
H621 H 0.78804 0.49309 0.47919 0.0
H622 H 0.85245 0.43205 0.5626 0.0
H623 H 0.84887 0.46503 0.53336 0.0
C624 C 0.19854 0.79604 0.12556 0.0
C625 C 0.17398 0.78897 0.11096 0.0
C626 C 0.21116 0.83254 0.12903 0.0
C627 C 0.22056 0.92569 0.10716 0.0
H628 H 0.21997 0.96369 0.15723 0.0
C629 C 0.25219 0.08033 0.12144 0.0
C630 C 0.2789 0.08617 0.13517 0.0
C631 C 0.23423 0.04571 0.11994 0.0
C632 C 0.22041 0.95351 0.14317 0.0
H633 H 0.14464 0.81424 0.08816 0.0
H634 H 0.16653 0.87701 0.09408 0.0
H635 H 0.20373 0.89855 0.15124 0.0
H636 H 0.30568 0.06194 0.1589 0.0
H637 H 0.27425 1.0022 0.15653 0.0
H638 H 0.23763 0.98024 0.09903 0.0
C639 C 0.17623 0.85479 0.10289 0.0
C640 C 0.21134 0.91606 0.13976 0.0
C641 C 0.16349 0.8187 0.09955 0.0
C642 C 0.28485 0.05823 0.1483 0.0
C643 C 0.26685 0.02388 0.14689 0.0
C644 C 0.22965 0.96302 0.11056 0.0
C645 C 0.19978 0.86242 0.11781 0.0
C646 C 0.21127 0.90168 0.12169 0.0
C647 C 0.24262 0.01649 0.13219 0.0
C648 C 0.22975 0.9775 0.1286 0.0
H649 H 0.20686 0.77375 0.13467 0.0
H650 H 0.22958 0.83742 0.14055 0.0
H651 H 0.2213 0.91549 0.09309 0.0
H652 H 0.24761 0.10118 0.11095 0.0
H653 H 0.2152 0.0412 0.10863 0.0
C654 C 0.73559 0.68659 0.34714 0.0
C655 C 0.76604 0.70056 0.35709 0.0
C656 C 0.69972 0.69946 0.35069 0.0
C657 C 0.6435 0.74543 0.38702 0.0
H658 H 0.57116 0.75369 0.3478 0.0
C659 C 0.50151 0.81945 0.39405 0.0
C660 C 0.47102 0.80458 0.3845 0.0
C661 C 0.53647 0.80284 0.39259 0.0
C662 C 0.59087 0.75088 0.35895 0.0
H663 H 0.78274 0.74067 0.37793 0.0
H664 H 0.71988 0.7639 0.3839 0.0
H665 H 0.63503 0.73698 0.34043 0.0
H666 H 0.4525 0.75959 0.36677 0.0
H667 H 0.51402 0.73036 0.36412 0.0
H668 H 0.59923 0.76043 0.40546 0.0
C669 C 0.72382 0.74218 0.37363 0.0
C670 C 0.62759 0.74145 0.35472 0.0
C671 C 0.75991 0.72915 0.3701 0.0
C672 C 0.47552 0.77136 0.37441 0.0
C673 C 0.51076 0.75495 0.37273 0.0
C674 C 0.60677 0.75519 0.39123 0.0
C675 C 0.69319 0.72695 0.3642 0.0
C676 C 0.65441 0.73853 0.3687 0.0
C677 C 0.54179 0.77126 0.38134 0.0
C678 C 0.58006 0.758 0.37723 0.0
H679 H 0.73919 0.66461 0.33697 0.0
H680 H 0.67694 0.68673 0.34328 0.0
H681 H 0.66319 0.74278 0.39818 0.0
H682 H 0.49873 0.84512 0.40191 0.0
H683 H 0.55978 0.81619 0.39932 0.0
C684 C 0.67415 0.98347 0.65144 0.0
C685 C 0.68961 0.95275 0.64202 0.0
C686 C 0.69248 0.01768 0.65201 0.0
C687 C 0.78172 0.06587 0.6433 0.0
H688 H 0.71729 0.15004 0.63289 0.0
C689 C 0.83907 0.20852 0.62092 0.0
C690 C 0.82137 0.24145 0.62699 0.0
C691 C 0.8239 0.17356 0.62456 0.0
C692 C 0.73566 0.12705 0.63613 0.0
H693 H 0.73747 0.93314 0.62667 0.0
H694 H 0.76981 0.99342 0.62754 0.0
H695 H 0.69084 0.0881 0.63623 0.0
H696 H 0.77378 0.26321 0.64192 0.0
H697 H 0.74717 0.20179 0.64845 0.0
H698 H 0.82662 0.10491 0.64303 0.0
C699 C 0.74345 0.99085 0.6346 0.0
C700 C 0.72049 0.0914 0.63802 0.0
C701 C 0.72505 0.95629 0.63413 0.0
C702 C 0.78803 0.23845 0.63696 0.0
C703 C 0.77276 0.20323 0.64064 0.0
C704 C 0.79692 0.10162 0.64146 0.0
C705 C 0.72671 0.02228 0.64303 0.0
C706 C 0.7433 0.06028 0.64154 0.0
C707 C 0.79054 0.17031 0.63445 0.0
C708 C 0.77412 0.13266 0.63768 0.0
H709 H 0.64705 0.98147 0.65786 0.0
H710 H 0.67923 0.04089 0.65906 0.0
H711 H 0.80004 0.04266 0.64623 0.0
H712 H 0.86473 0.20958 0.61314 0.0
H713 H 0.83805 0.14905 0.61924 0.0
C714 C 0.55736 0.2286 0.87917 0.0
C715 C 0.5625 0.19716 0.89029 0.0
C716 C 0.52217 0.24546 0.87791 0.0
C717 C 0.42282 0.22067 0.88418 0.0
H718 H 0.40587 0.32611 0.87643 0.0
C719 C 0.27463 0.28539 0.87653 0.0
C720 C 0.27097 0.31287 0.86294 0.0
C721 C 0.30992 0.27156 0.88123 0.0
C722 C 0.41014 0.29651 0.87847 0.0
H723 H 0.53592 0.16056 0.90989 0.0
H724 H 0.47539 0.19052 0.90825 0.0
H725 H 0.46859 0.30371 0.88268 0.0
H726 H 0.3015 0.34624 0.8432 0.0
H727 H 0.36212 0.32208 0.8512 0.0
H728 H 0.36444 0.21344 0.87978 0.0
C729 C 0.49783 0.20155 0.89998 0.0
C730 C 0.44617 0.28368 0.88203 0.0
C731 C 0.53268 0.18462 0.90109 0.0
C732 C 0.30315 0.32539 0.85389 0.0
C733 C 0.33813 0.31173 0.85857 0.0
C734 C 0.3868 0.23351 0.88065 0.0
C735 C 0.49164 0.23127 0.88786 0.0
C736 C 0.45309 0.24553 0.88481 0.0
C737 C 0.34216 0.28504 0.87247 0.0
C738 C 0.38003 0.27154 0.87753 0.0
H739 H 0.57975 0.23853 0.87052 0.0
H740 H 0.51847 0.26825 0.86838 0.0
H741 H 0.42705 0.19098 0.8859 0.0
H742 H 0.25044 0.27527 0.88381 0.0
H743 H 0.31204 0.251 0.89203 0.0
C744 C 0.77764 0.46981 0.59609 0.0
C745 C 0.77323 0.44391 0.61033 0.0
C746 C 0.76059 0.50482 0.5971 0.0
C747 C 0.69295 0.56361 0.62342 0.0
H748 H 0.76136 0.64307 0.61096 0.0
C749 C 0.6677 0.71419 0.64805 0.0
C750 C 0.67371 0.74335 0.63556 0.0
C751 C 0.67957 0.67793 0.64404 0.0
C752 C 0.7417 0.62132 0.61429 0.0
H753 H 0.74602 0.43337 0.63632 0.0
H754 H 0.71598 0.49467 0.6382 0.0
H755 H 0.77856 0.57842 0.60481 0.0
H756 H 0.69833 0.75744 0.60929 0.0
H757 H 0.71934 0.69378 0.60222 0.0
H758 H 0.65634 0.6066 0.63316 0.0
C759 C 0.73219 0.48782 0.62606 0.0
C760 C 0.75148 0.58412 0.61071 0.0
C761 C 0.74907 0.4525 0.62494 0.0
C762 C 0.69358 0.73569 0.61928 0.0
C763 C 0.70545 0.69915 0.61521 0.0
C764 C 0.68318 0.60082 0.62701 0.0
C765 C 0.73916 0.51503 0.61255 0.0
C766 C 0.72737 0.5547 0.61534 0.0
C767 C 0.6977 0.66963 0.62736 0.0
C768 C 0.7076 0.63017 0.62269 0.0
H769 H 0.79647 0.46394 0.58477 0.0
H770 H 0.76581 0.52459 0.5862 0.0
H771 H 0.67349 0.54183 0.62696 0.0
H772 H 0.65278 0.71918 0.66081 0.0
H773 H 0.67404 0.65623 0.65397 0.0
C774 C 0.77788 0.20195 0.869 0.0
C775 C 0.77218 0.18088 0.885 0.0
C776 C 0.81363 0.21452 0.8644 0.0
C777 C 0.90833 0.22908 0.88405 0.0
H778 H 0.94057 0.22062 0.83325 0.0
C779 C 0.06103 0.25472 0.86433 0.0
C780 C 0.06567 0.28017 0.84992 0.0
C781 C 0.02627 0.23825 0.86744 0.0
C782 C 0.93197 0.2232 0.84749 0.0
H783 H 0.79919 0.15795 0.90907 0.0
H784 H 0.86081 0.1794 0.90109 0.0
H785 H 0.87667 0.20494 0.84144 0.0
H786 H 0.03875 0.30611 0.82665 0.0
H787 H 0.97868 0.27697 0.83178 0.0
H788 H 0.96352 0.2473 0.89013 0.0
C789 C 0.83802 0.1866 0.89208 0.0
C790 C 0.89522 0.2145 0.85217 0.0
C791 C 0.80256 0.17407 0.89663 0.0
C792 C 0.03597 0.28639 0.8378 0.0
C793 C 1.00149 0.26969 0.84076 0.0
C794 C 0.94503 0.23757 0.87939 0.0
C795 C 0.84428 0.20644 0.87576 0.0
C796 C 0.8829 0.21731 0.87053 0.0
C797 C 0.99574 0.24667 0.85607 0.0
C798 C 0.95737 0.23478 0.86106 0.0
H799 H 0.75511 0.20748 0.8597 0.0
H800 H 0.81732 0.23018 0.85184 0.0
H801 H 0.89978 0.23221 0.89828 0.0
H802 H 0.08327 0.24985 0.87404 0.0
H803 H 0.02287 0.22019 0.8792 0.0
C804 C 0.23824 0.57528 0.10811 0.0
C805 C 0.20496 0.57992 0.09836 0.0
C806 C 0.25647 0.54049 0.10801 0.0
C807 C 0.23312 0.4407 0.10204 0.0
H808 H 0.33946 0.42492 0.10333 0.0
C809 C 0.29784 0.2919 0.1064 0.0
C810 C 0.32907 0.28814 0.11781 0.0
C811 C 0.28374 0.32748 0.1022 0.0
C812 C 0.30964 0.42881 0.10315 0.0
H813 H 0.16632 0.5531 0.07972 0.0
H814 H 0.19838 0.49328 0.07913 0.0
H815 H 0.3149 0.48782 0.09906 0.0
H816 H 0.36958 0.31906 0.1339 0.0
H817 H 0.34483 0.3801 0.12697 0.0
H818 H 0.22768 0.382 0.10657 0.0
C819 C 0.21002 0.51579 0.08727 0.0
C820 C 0.29561 0.46495 0.10067 0.0
C821 C 0.19187 0.55024 0.08745 0.0
C822 C 0.34564 0.32068 0.12494 0.0
C823 C 0.33158 0.35596 0.12083 0.0
C824 C 0.24712 0.40463 0.10461 0.0
C825 C 0.24168 0.50991 0.09814 0.0
C826 C 0.25714 0.47141 0.10016 0.0
C827 C 0.30055 0.36004 0.10935 0.0
C828 C 0.28559 0.39815 0.10537 0.0
H829 H 0.24862 0.59751 0.11685 0.0
H830 H 0.2808 0.53694 0.11655 0.0
H831 H 0.20329 0.44463 0.10205 0.0
H832 H 0.28451 0.26746 0.1006 0.0
H833 H 0.25994 0.32947 0.09318 0.0
C834 C 0.2608 0.78633 0.36304 0.0
C835 C 0.27499 0.79057 0.38091 0.0
C836 C 0.22281 0.78102 0.3602 0.0
C837 C 0.13435 0.75812 0.38477 0.0
H838 H 0.09041 0.79688 0.34009 0.0
C839 C 0.97746 0.74821 0.37129 0.0
C840 C 0.97063 0.72538 0.3559 0.0
C841 C 0.01266 0.76386 0.37392 0.0
C842 C 0.10234 0.78622 0.35268 0.0
H843 H 0.26055 0.79256 0.40985 0.0
H844 H 0.19418 0.78478 0.40498 0.0
H845 H 0.15626 0.80698 0.34612 0.0
H846 H 0.99373 0.70311 0.33059 0.0
H847 H 0.05462 0.73205 0.33468 0.0
H848 H 0.07998 0.73803 0.39137 0.0
C849 C 0.21233 0.78428 0.39308 0.0
C850 C 0.14019 0.79151 0.35607 0.0
C851 C 0.25048 0.78877 0.39592 0.0
C852 C 0.99827 0.72116 0.3424 0.0
C853 C 0.03309 0.73755 0.34479 0.0
C854 C 0.09638 0.75356 0.38154 0.0
C855 C 0.19783 0.78071 0.37515 0.0
C856 C 0.15697 0.77689 0.37201 0.0
C857 C 0.04112 0.75754 0.36098 0.0
C858 C 0.08015 0.76703 0.36535 0.0
H859 H 0.27902 0.78738 0.3512 0.0
H860 H 0.21313 0.77729 0.34622 0.0
H861 H 0.14605 0.74583 0.39703 0.0
H862 H 0.9568 0.7511 0.38208 0.0
H863 H 0.01824 0.77921 0.38651 0.0
loop_
_geom_bond_atom_site_label_1
_geom_bond_atom_site_label_2
_geom_bond_distance
_geom_bond_site_symmetry_2
_ccdc_geom_bond_type
C0 C1 1.351 . S
C0 N3 1.368 . S
C0 H5 0.931 . S
C1 C0 1.351 . S
C1 N2 1.373 . S
C1 H29 0.930 . S
N2 C1 1.373 . S
N2 C4 1.340 . S
N3 C0 1.368 . S
N3 C4 1.321 . S
N3 Co6 2.135 . S
C4 N2 1.340 . S
C4 N3 1.321 . S
C4 H28 0.930 . S
H5 C0 0.931 . S
Co6 N3 2.135 . S
Co6 N9 2.121 . S
Co6 O14 2.055 . S
Co6 O17 2.039 . S
Co6 N20 2.140 . S
C7 O8 1.227 . S
C7 O17 1.265 . S
O8 C7 1.227 . S
N9 Co6 2.121 . S
N9 C11 1.375 . S
N9 C12 1.313 . S
C10 C11 1.338 . S
C10 N13 1.377 . S
C10 H30 0.930 . S
C11 N9 1.375 . S
C11 C10 1.338 . S
C11 H15 0.931 . S
C12 N9 1.313 . S
C12 N13 1.344 . S
C12 H16 0.930 . S
N13 C10 1.377 . S
N13 C12 1.344 . S
O14 Co6 2.055 . S
O14 C18 1.253 . S
H15 C11 0.931 . S
H16 C12 0.930 . S
O17 Co6 2.039 . S
O17 C7 1.265 . S
C18 O14 1.253 . S
C18 O19 1.227 . S
O19 C18 1.227 . S
N20 Co6 2.140 . S
N20 C23 1.346 . S
N20 C24 1.345 . S
C21 C22 1.387 . S
C21 C25 1.391 . S
C22 C21 1.387 . S
C22 C23 1.369 . S
C22 H31 0.929 . S
C23 N20 1.346 . S
C23 C22 1.369 . S
C23 H26 0.928 . S
C24 N20 1.345 . S
C24 C25 1.371 . S
C24 H27 0.931 . S
C25 C21 1.391 . S
C25 C24 1.371 . S
C25 H32 0.930 . S
H26 C23 0.928 . S
H27 C24 0.931 . S
H28 C4 0.930 . S
H29 C1 0.930 . S
H30 C10 0.930 . S
H31 C22 0.929 . S
H32 C25 0.930 . S
C33 C34 1.351 . S
C33 N36 1.368 . S
C33 H38 0.931 . S
C34 C33 1.351 . S
C34 N35 1.373 . S
C34 H62 0.930 . S
N35 C34 1.373 . S
N35 C37 1.340 . S
N36 C33 1.368 . S
N36 C37 1.321 . S
N36 Co39 2.135 . S
C37 N35 1.340 . S
C37 N36 1.321 . S
C37 H61 0.930 . S
H38 C33 0.931 . S
Co39 N36 2.135 . S
Co39 N42 2.121 . S
Co39 O47 2.055 . S
Co39 O50 2.039 . S
Co39 N53 2.140 . S
C40 O41 1.227 . S
C40 O50 1.265 . S
O41 C40 1.227 . S
N42 Co39 2.121 . S
N42 C44 1.375 . S
N42 C45 1.313 . S
C43 C44 1.338 . S
C43 N46 1.377 . S
C43 H63 0.930 . S
C44 N42 1.375 . S
C44 C43 1.338 . S
C44 H48 0.931 . S
C45 N42 1.313 . S
C45 N46 1.344 . S
C45 H49 0.930 . S
N46 C43 1.377 . S
N46 C45 1.344 . S
O47 Co39 2.055 . S
O47 C51 1.253 . S
H48 C44 0.931 . S
H49 C45 0.930 . S
O50 Co39 2.039 . S
O50 C40 1.265 . S
C51 O47 1.253 . S
C51 O52 1.227 . S
O52 C51 1.227 . S
N53 Co39 2.140 . S
N53 C56 1.346 . S
N53 C57 1.345 . S
C54 C55 1.387 . S
C54 C58 1.391 . S
C55 C54 1.387 . S
C55 C56 1.369 . S
C55 H64 0.929 . S
C56 N53 1.346 . S
C56 C55 1.369 . S
C56 H59 0.928 . S
C57 N53 1.345 . S
C57 C58 1.371 . S
C57 H60 0.931 . S
C58 C54 1.391 . S
C58 C57 1.371 . S
C58 H65 0.930 . S
H59 C56 0.928 . S
H60 C57 0.931 . S
H61 C37 0.930 . S
H62 C34 0.930 . S
H63 C43 0.930 . S
H64 C55 0.929 . S
H65 C58 0.930 . S
C66 C67 1.351 . S
C66 N69 1.368 . S
C66 H71 0.931 . S
C67 C66 1.351 . S
C67 N68 1.373 . S
C67 H95 0.930 . S
N68 C67 1.373 . S
N68 C70 1.340 . S
N69 C66 1.368 . S
N69 C70 1.321 . S
N69 Co72 2.135 . S
C70 N68 1.340 . S
C70 N69 1.321 . S
C70 H94 0.930 . S
H71 C66 0.931 . S
Co72 N69 2.135 . S
Co72 N75 2.121 . S
Co72 O80 2.055 . S
Co72 O83 2.039 . S
Co72 N86 2.140 . S
C73 O74 1.227 . S
C73 O83 1.265 . S
O74 C73 1.227 . S
N75 Co72 2.121 . S
N75 C77 1.375 . S
N75 C78 1.313 . S
C76 C77 1.338 . S
C76 N79 1.377 . S
C76 H96 0.930 . S
C77 N75 1.375 . S
C77 C76 1.338 . S
C77 H81 0.931 . S
C78 N75 1.313 . S
C78 N79 1.344 . S
C78 H82 0.930 . S
N79 C76 1.377 . S
N79 C78 1.344 . S
O80 Co72 2.055 . S
O80 C84 1.253 . S
H81 C77 0.931 . S
H82 C78 0.930 . S
O83 Co72 2.039 . S
O83 C73 1.265 . S
C84 O80 1.253 . S
C84 O85 1.227 . S
O85 C84 1.227 . S
N86 Co72 2.140 . S
N86 C89 1.346 . S
N86 C90 1.345 . S
C87 C88 1.387 . S
C87 C91 1.391 . S
C88 C87 1.387 . S
C88 C89 1.369 . S
C88 H97 0.929 . S
C89 N86 1.346 . S
C89 C88 1.369 . S
C89 H92 0.928 . S
C90 N86 1.345 . S
C90 C91 1.371 . S
C90 H93 0.931 . S
C91 C87 1.391 . S
C91 C90 1.371 . S
C91 H98 0.930 . S
H92 C89 0.928 . S
H93 C90 0.931 . S
H94 C70 0.930 . S
H95 C67 0.930 . S
H96 C76 0.930 . S
H97 C88 0.929 . S
H98 C91 0.930 . S
C99 C100 1.351 . S
C99 N102 1.368 . S
C99 H104 0.931 . S
C100 C99 1.351 . S
C100 N101 1.373 . S
C100 H128 0.930 . S
N101 C100 1.373 . S
N101 C103 1.340 . S
N102 C99 1.368 . S
N102 C103 1.321 . S
N102 Co105 2.135 . S
C103 N101 1.340 . S
C103 N102 1.321 . S
C103 H127 0.930 . S
H104 C99 0.931 . S
Co105 N102 2.135 . S
Co105 N108 2.121 . S
Co105 O113 2.055 . S
Co105 O116 2.039 . S
Co105 N119 2.140 . S
C106 O107 1.227 . S
C106 O116 1.265 . S
O107 C106 1.227 . S
N108 Co105 2.121 . S
N108 C110 1.375 . S
N108 C111 1.313 . S
C109 C110 1.338 . S
C109 N112 1.377 . S
C109 H129 0.930 . S
C110 N108 1.375 . S
C110 C109 1.338 . S
C110 H114 0.931 . S
C111 N108 1.313 . S
C111 N112 1.344 . S
C111 H115 0.930 . S
N112 C109 1.377 . S
N112 C111 1.344 . S
O113 Co105 2.055 . S
O113 C117 1.253 . S
H114 C110 0.931 . S
H115 C111 0.930 . S
O116 Co105 2.039 . S
O116 C106 1.265 . S
C117 O113 1.253 . S
C117 O118 1.227 . S
O118 C117 1.227 . S
N119 Co105 2.140 . S
N119 C122 1.346 . S
N119 C123 1.345 . S
C120 C121 1.387 . S
C120 C124 1.391 . S
C121 C120 1.387 . S
C121 C122 1.369 . S
C121 H130 0.929 . S
C122 N119 1.346 . S
C122 C121 1.369 . S
C122 H125 0.928 . S
C123 N119 1.345 . S
C123 C124 1.371 . S
C123 H126 0.931 . S
C124 C120 1.391 . S
C124 C123 1.371 . S
C124 H131 0.930 . S
H125 C122 0.928 . S
H126 C123 0.931 . S
H127 C103 0.930 . S
H128 C100 0.930 . S
H129 C109 0.930 . S
H130 C121 0.929 . S
H131 C124 0.930 . S
C132 C133 1.351 . S
C132 N135 1.368 . S
C132 H137 0.931 . S
C133 C132 1.351 . S
C133 N134 1.373 . S
C133 H161 0.930 . S
N134 C133 1.373 . S
N134 C136 1.340 . S
N135 C132 1.368 . S
N135 C136 1.321 . S
N135 Co138 2.135 . S
C136 N134 1.340 . S
C136 N135 1.321 . S
C136 H160 0.930 . S
H137 C132 0.931 . S
Co138 N135 2.135 . S
Co138 N141 2.121 . S
Co138 O146 2.055 . S
Co138 O149 2.039 . S
Co138 N152 2.140 . S
C139 O140 1.227 . S
C139 O149 1.265 . S
O140 C139 1.227 . S
N141 Co138 2.121 . S
N141 C143 1.375 . S
N141 C144 1.313 . S
C142 C143 1.338 . S
C142 N145 1.377 . S
C142 H162 0.930 . S
C143 N141 1.375 . S
C143 C142 1.338 . S
C143 H147 0.931 . S
C144 N141 1.313 . S
C144 N145 1.344 . S
C144 H148 0.930 . S
N145 C142 1.377 . S
N145 C144 1.344 . S
O146 Co138 2.055 . S
O146 C150 1.253 . S
H147 C143 0.931 . S
H148 C144 0.930 . S
O149 Co138 2.039 . S
O149 C139 1.265 . S
C150 O146 1.253 . S
C150 O151 1.227 . S
O151 C150 1.227 . S
N152 Co138 2.140 . S
N152 C155 1.346 . S
N152 C156 1.345 . S
C153 C154 1.387 . S
C153 C157 1.391 . S
C154 C153 1.387 . S
C154 C155 1.369 . S
C154 H163 0.929 . S
C155 N152 1.346 . S
C155 C154 1.369 . S
C155 H158 0.928 . S
C156 N152 1.345 . S
C156 C157 1.371 . S
C156 H159 0.931 . S
C157 C153 1.391 . S
C157 C156 1.371 . S
C157 H164 0.930 . S
H158 C155 0.928 . S
H159 C156 0.931 . S
H160 C136 0.930 . S
H161 C133 0.930 . S
H162 C142 0.930 . S
H163 C154 0.929 . S
H164 C157 0.930 . S
C165 C166 1.351 . S
C165 N168 1.368 . S
C165 H170 0.931 . S
C166 C165 1.351 . S
C166 N167 1.373 . S
C166 H194 0.930 . S
N167 C166 1.373 . S
N167 C169 1.340 . S
N168 C165 1.368 . S
N168 C169 1.321 . S
N168 Co171 2.135 . S
C169 N167 1.340 . S
C169 N168 1.321 . S
C169 H193 0.930 . S
H170 C165 0.931 . S
Co171 N168 2.135 . S
Co171 N174 2.121 . S
Co171 O179 2.055 . S
Co171 O182 2.039 . S
Co171 N185 2.140 . S
C172 O173 1.227 . S
C172 O182 1.265 . S
O173 C172 1.227 . S
N174 Co171 2.121 . S
N174 C176 1.375 . S
N174 C177 1.313 . S
C175 C176 1.338 . S
C175 N178 1.377 . S
C175 H195 0.930 . S
C176 N174 1.375 . S
C176 C175 1.338 . S
C176 H180 0.931 . S
C177 N174 1.313 . S
C177 N178 1.344 . S
C177 H181 0.930 . S
N178 C175 1.377 . S
N178 C177 1.344 . S
O179 Co171 2.055 . S
O179 C183 1.253 . S
H180 C176 0.931 . S
H181 C177 0.930 . S
O182 Co171 2.039 . S
O182 C172 1.265 . S
C183 O179 1.253 . S
C183 O184 1.227 . S
O184 C183 1.227 . S
N185 Co171 2.140 . S
N185 C188 1.346 . S
N185 C189 1.345 . S
C186 C187 1.387 . S
C186 C190 1.391 . S
C187 C186 1.387 . S
C187 C188 1.369 . S
C187 H196 0.929 . S
C188 N185 1.346 . S
C188 C187 1.369 . S
C188 H191 0.928 . S
C189 N185 1.345 . S
C189 C190 1.371 . S
C189 H192 0.931 . S
C190 C186 1.391 . S
C190 C189 1.371 . S
C190 H197 0.930 . S
H191 C188 0.928 . S
H192 C189 0.931 . S
H193 C169 0.930 . S
H194 C166 0.930 . S
H195 C175 0.930 . S
H196 C187 0.929 . S
H197 C190 0.930 . S
C198 C199 1.351 . S
C198 N201 1.368 . S
C198 H203 0.931 . S
C199 C198 1.351 . S
C199 N200 1.373 . S
C199 H227 0.930 . S
N200 C199 1.373 . S
N200 C202 1.340 . S
N201 C198 1.368 . S
N201 C202 1.321 . S
N201 Co204 2.135 . S
C202 N200 1.340 . S
C202 N201 1.321 . S
C202 H226 0.930 . S
H203 C198 0.931 . S
Co204 N201 2.135 . S
Co204 N207 2.121 . S
Co204 O212 2.055 . S
Co204 O215 2.039 . S
Co204 N218 2.140 . S
C205 O206 1.227 . S
C205 O215 1.265 . S
O206 C205 1.227 . S
N207 Co204 2.121 . S
N207 C209 1.375 . S
N207 C210 1.313 . S
C208 C209 1.338 . S
C208 N211 1.377 . S
C208 H228 0.930 . S
C209 N207 1.375 . S
C209 C208 1.338 . S
C209 H213 0.931 . S
C210 N207 1.313 . S
C210 N211 1.344 . S
C210 H214 0.930 . S
N211 C208 1.377 . S
N211 C210 1.344 . S
O212 Co204 2.055 . S
O212 C216 1.253 . S
H213 C209 0.931 . S
H214 C210 0.930 . S
O215 Co204 2.039 . S
O215 C205 1.265 . S
C216 O212 1.253 . S
C216 O217 1.227 . S
O217 C216 1.227 . S
N218 Co204 2.140 . S
N218 C221 1.346 . S
N218 C222 1.345 . S
C219 C220 1.387 . S
C219 C223 1.391 . S
C220 C219 1.387 . S
C220 C221 1.369 . S
C220 H229 0.929 . S
C221 N218 1.346 . S
C221 C220 1.369 . S
C221 H224 0.928 . S
C222 N218 1.345 . S
C222 C223 1.371 . S
C222 H225 0.931 . S
C223 C219 1.391 . S
C223 C222 1.371 . S
C223 H230 0.930 . S
H224 C221 0.928 . S
H225 C222 0.931 . S
H226 C202 0.930 . S
H227 C199 0.930 . S
H228 C208 0.930 . S
H229 C220 0.929 . S
H230 C223 0.930 . S
C231 C232 1.351 . S
C231 N234 1.368 . S
C231 H236 0.931 . S
C232 C231 1.351 . S
C232 N233 1.373 . S
C232 H260 0.930 . S
N233 C232 1.373 . S
N233 C235 1.340 . S
N234 C231 1.368 . S
N234 C235 1.321 . S
N234 Co237 2.135 . S
C235 N233 1.340 . S
C235 N234 1.321 . S
C235 H259 0.930 . S
H236 C231 0.931 . S
Co237 N234 2.135 . S
Co237 N240 2.121 . S
Co237 O245 2.055 . S
Co237 O248 2.039 . S
Co237 N251 2.140 . S
C238 O239 1.227 . S
C238 O248 1.265 . S
O239 C238 1.227 . S
N240 Co237 2.121 . S
N240 C242 1.375 . S
N240 C243 1.313 . S
C241 C242 1.338 . S
C241 N244 1.377 . S
C241 H261 0.930 . S
C242 N240 1.375 . S
C242 C241 1.338 . S
C242 H246 0.931 . S
C243 N240 1.313 . S
C243 N244 1.344 . S
C243 H247 0.930 . S
N244 C241 1.377 . S
N244 C243 1.344 . S
O245 Co237 2.055 . S
O245 C249 1.253 . S
H246 C242 0.931 . S
H247 C243 0.930 . S
O248 Co237 2.039 . S
O248 C238 1.265 . S
C249 O245 1.253 . S
C249 O250 1.227 . S
O250 C249 1.227 . S
N251 Co237 2.140 . S
N251 C254 1.346 . S
N251 C255 1.345 . S
C252 C253 1.387 . S
C252 C256 1.391 . S
C253 C252 1.387 . S
C253 C254 1.369 . S
C253 H262 0.929 . S
C254 N251 1.346 . S
C254 C253 1.369 . S
C254 H257 0.928 . S
C255 N251 1.345 . S
C255 C256 1.371 . S
C255 H258 0.931 . S
C256 C252 1.391 . S
C256 C255 1.371 . S
C256 H263 0.930 . S
H257 C254 0.928 . S
H258 C255 0.931 . S
H259 C235 0.930 . S
H260 C232 0.930 . S
H261 C241 0.930 . S
H262 C253 0.929 . S
H263 C256 0.930 . S
C264 C265 1.349 . S
C264 C266 1.327 . S
C264 H289 0.950 . S
C265 C264 1.349 . S
C265 C281 1.349 . S
C266 C264 1.327 . S
C266 C285 1.429 . S
C266 H290 0.950 . S
C267 C284 1.574 1_554 S
C267 C286 1.368 . S
C267 H291 0.949 . S
H268 C272 0.949 . S
C269 C270 1.349 . S
C269 C271 1.327 . S
C269 H292 0.950 . S
C270 C269 1.349 . S
C270 C282 1.349 . S
C271 C269 1.327 . S
C271 C287 1.429 . S
C271 H293 0.950 . S
C272 H268 0.949 . S
C272 C280 1.574 1_556 S
C272 C288 1.368 . S
H273 C281 0.950 . S
H274 C279 0.950 . S
H275 C280 0.949 . S
H276 C282 0.950 . S
H277 C283 0.950 . S
H278 C284 0.949 . S
C279 H274 0.950 . S
C279 C281 1.327 . S
C279 C285 1.429 . S
C280 C272 1.574 1_554 S
C280 H275 0.949 . S
C280 C286 1.368 . S
C281 C265 1.349 . S
C281 H273 0.950 . S
C281 C279 1.327 . S
C282 C270 1.349 . S
C282 H276 0.950 . S
C282 C283 1.327 . S
C283 H277 0.950 . S
C283 C282 1.327 . S
C283 C287 1.429 . S
C284 C267 1.574 1_556 S
C284 H278 0.949 . S
C284 C288 1.368 . S
C285 C266 1.429 . S
C285 C279 1.429 . S
C285 C286 1.523 . S
C286 C267 1.368 . S
C286 C280 1.368 . S
C286 C285 1.523 . S
C287 C271 1.429 . S
C287 C283 1.429 . S
C287 C288 1.523 . S
C288 C272 1.368 . S
C288 C284 1.368 . S
C288 C287 1.523 . S
H289 C264 0.950 . S
H290 C266 0.950 . S
H291 C267 0.949 . S
H292 C269 0.950 . S
H293 C271 0.950 . S
C294 C295 1.349 . S
C294 C296 1.327 . S
C294 H319 0.950 . S
C295 C294 1.349 . S
C295 C311 1.349 . S
C296 C294 1.327 . S
C296 C315 1.429 . S
C296 H320 0.950 . S
C297 C314 1.574 . S
C297 C316 1.368 . S
C297 H321 0.949 . S
H298 C302 0.949 . S
C299 C300 1.349 . S
C299 C301 1.327 . S
C299 H322 0.950 . S
C300 C299 1.349 . S
C300 C312 1.349 . S
C301 C299 1.327 . S
C301 C317 1.429 . S
C301 H323 0.950 . S
C302 H298 0.949 . S
C302 C310 1.574 . S
C302 C318 1.368 . S
H303 C311 0.950 . S
H304 C309 0.950 . S
H305 C310 0.949 . S
H306 C312 0.950 . S
H307 C313 0.950 . S
H308 C314 0.949 . S
C309 H304 0.950 . S
C309 C311 1.327 . S
C309 C315 1.429 . S
C310 C302 1.574 . S
C310 H305 0.949 . S
C310 C316 1.368 . S
C311 C295 1.349 . S
C311 H303 0.950 . S
C311 C309 1.327 . S
C312 C300 1.349 . S
C312 H306 0.950 . S
C312 C313 1.327 . S
C313 H307 0.950 . S
C313 C312 1.327 . S
C313 C317 1.429 . S
C314 C297 1.574 . S
C314 H308 0.949 . S
C314 C318 1.368 . S
C315 C296 1.429 . S
C315 C309 1.429 . S
C315 C316 1.523 . S
C316 C297 1.368 . S
C316 C310 1.368 . S
C316 C315 1.523 . S
C317 C301 1.429 . S
C317 C313 1.429 . S
C317 C318 1.523 . S
C318 C302 1.368 . S
C318 C314 1.368 . S
C318 C317 1.523 . S
H319 C294 0.950 . S
H320 C296 0.950 . S
H321 C297 0.949 . S
H322 C299 0.950 . S
H323 C301 0.950 . S
C324 C325 1.349 . S
C324 C326 1.327 . S
C324 H349 0.950 . S
C325 C324 1.349 . S
C325 C341 1.349 . S
C326 C324 1.327 . S
C326 C345 1.429 . S
C326 H350 0.950 . S
C327 C344 1.574 . S
C327 C346 1.368 . S
C327 H351 0.949 . S
H328 C332 0.949 . S
C329 C330 1.349 . S
C329 C331 1.327 . S
C329 H352 0.950 . S
C330 C329 1.349 . S
C330 C342 1.349 . S
C331 C329 1.327 . S
C331 C347 1.429 . S
C331 H353 0.950 . S
C332 H328 0.949 . S
C332 C340 1.574 . S
C332 C348 1.368 . S
H333 C341 0.950 . S
H334 C339 0.950 . S
H335 C340 0.949 . S
H336 C342 0.950 . S
H337 C343 0.950 . S
H338 C344 0.949 . S
C339 H334 0.950 . S
C339 C341 1.327 . S
C339 C345 1.429 . S
C340 C332 1.574 . S
C340 H335 0.949 . S
C340 C346 1.368 . S
C341 C325 1.349 . S
C341 H333 0.950 . S
C341 C339 1.327 . S
C342 C330 1.349 . S
C342 H336 0.950 . S
C342 C343 1.327 . S
C343 H337 0.950 . S
C343 C342 1.327 . S
C343 C347 1.429 . S
C344 C327 1.574 . S
C344 H338 0.949 . S
C344 C348 1.368 . S
C345 C326 1.429 . S
C345 C339 1.429 . S
C345 C346 1.523 . S
C346 C327 1.368 . S
C346 C340 1.368 . S
C346 C345 1.523 . S
C347 C331 1.429 . S
C347 C343 1.429 . S
C347 C348 1.523 . S
C348 C332 1.368 . S
C348 C344 1.368 . S
C348 C347 1.523 . S
H349 C324 0.950 . S
H350 C326 0.950 . S
H351 C327 0.949 . S
H352 C329 0.950 . S
H353 C331 0.950 . S
C354 C355 1.349 . S
C354 C356 1.327 . S
C354 H379 0.950 . S
C355 C354 1.349 . S
C355 C371 1.349 . S
C356 C354 1.327 . S
C356 C375 1.429 . S
C356 H380 0.950 . S
C357 C374 1.574 . S
C357 C376 1.368 . S
C357 H381 0.949 . S
H358 C362 0.949 . S
C359 C360 1.349 . S
C359 C361 1.327 . S
C359 H382 0.950 . S
C360 C359 1.349 . S
C360 C372 1.349 . S
C361 C359 1.327 . S
C361 C377 1.429 . S
C361 H383 0.950 . S
C362 H358 0.949 . S
C362 C370 1.574 . S
C362 C378 1.368 . S
H363 C371 0.950 . S
H364 C369 0.950 . S
H365 C370 0.949 . S
H366 C372 0.950 . S
H367 C373 0.950 . S
H368 C374 0.949 . S
C369 H364 0.950 . S
C369 C371 1.327 . S
C369 C375 1.429 . S
C370 C362 1.574 . S
C370 H365 0.949 . S
C370 C376 1.368 . S
C371 C355 1.349 . S
C371 H363 0.950 . S
C371 C369 1.327 . S
C372 C360 1.349 . S
C372 H366 0.950 . S
C372 C373 1.327 . S
C373 H367 0.950 . S
C373 C372 1.327 . S
C373 C377 1.429 . S
C374 C357 1.574 . S
C374 H368 0.949 . S
C374 C378 1.368 . S
C375 C356 1.429 . S
C375 C369 1.429 . S
C375 C376 1.523 . S
C376 C357 1.368 . S
C376 C370 1.368 . S
C376 C375 1.523 . S
C377 C361 1.429 . S
C377 C373 1.429 . S
C377 C378 1.523 . S
C378 C362 1.368 . S
C378 C374 1.368 . S
C378 C377 1.523 . S
H379 C354 0.950 . S
H380 C356 0.950 . S
H381 C357 0.949 . S
H382 C359 0.950 . S
H383 C361 0.950 . S
C384 C385 1.349 . S
C384 C386 1.327 . S
C384 H409 0.950 . S
C385 C384 1.349 . S
C385 C401 1.349 . S
C386 C384 1.327 . S
C386 C405 1.429 . S
C386 H410 0.950 . S
C387 C404 1.574 1_556 S
C387 C406 1.368 . S
C387 H411 0.949 . S
H388 C392 0.939 1_554 S
C389 C390 1.349 . S
C389 C391 1.327 . S
C389 H412 0.950 . S
C390 C389 1.349 . S
C390 C402 1.349 . S
C391 C389 1.327 . S
C391 C407 1.429 . S
C391 H413 0.950 . S
C392 H388 0.939 1_556 S
C392 C400 1.608 . S
C392 C408 1.346 1_556 S
H393 C401 0.950 . S
H394 C399 0.950 . S
H395 C400 0.949 . S
H396 C402 0.950 . S
H397 C403 0.950 . S
H398 C404 0.949 . S
C399 H394 0.950 . S
C399 C401 1.327 . S
C399 C405 1.429 . S
C400 C392 1.608 . S
C400 H395 0.949 . S
C400 C406 1.368 . S
C401 C385 1.349 . S
C401 H393 0.950 . S
C401 C399 1.327 . S
C402 C390 1.349 . S
C402 H396 0.950 . S
C402 C403 1.327 . S
C403 H397 0.950 . S
C403 C402 1.327 . S
C403 C407 1.429 . S
C404 C387 1.574 1_554 S
C404 H398 0.949 . S
C404 C408 1.368 . S
C405 C386 1.429 . S
C405 C399 1.429 . S
C405 C406 1.523 . S
C406 C387 1.368 . S
C406 C400 1.368 . S
C406 C405 1.523 . S
C407 C391 1.429 . S
C407 C403 1.429 . S
C407 C408 1.523 . S
C408 C392 1.346 1_554 S
C408 C404 1.368 . S
C408 C407 1.523 . S
H409 C384 0.950 . S
H410 C386 0.950 . S
H411 C387 0.949 . S
H412 C389 0.950 . S
H413 C391 0.950 . S
C414 C415 1.373 . S
C414 C416 1.327 . S
C414 H439 0.950 . S
C415 C414 1.373 . S
C415 C431 1.334 1_545 S
C416 C414 1.327 . S
C416 C435 1.429 . S
C416 H440 0.950 . S
C417 C434 1.574 . S
C417 C436 1.368 . S
C417 H441 0.949 1_545 S
H418 C422 0.949 . S
C419 C420 1.349 . S
C419 C421 1.327 . S
C419 H442 0.950 . S
C420 C419 1.349 . S
C420 C432 1.349 . S
C421 C419 1.327 . S
C421 C437 1.429 . S
C421 H443 0.950 . S
C422 H418 0.949 . S
C422 C430 1.574 . S
C422 C438 1.368 . S
H423 C431 0.950 . S
H424 C429 0.950 . S
H425 C430 0.949 . S
H426 C432 0.950 . S
H427 C433 0.950 . S
H428 C434 0.949 . S
C429 H424 0.950 . S
C429 C431 1.327 . S
C429 C435 1.429 1_565 S
C430 C422 1.574 . S
C430 H425 0.949 . S
C430 C436 1.368 . S
C431 C415 1.334 1_565 S
C431 H423 0.950 . S
C431 C429 1.327 . S
C432 C420 1.349 . S
C432 H426 0.950 . S
C432 C433 1.327 . S
C433 H427 0.950 . S
C433 C432 1.327 . S
C433 C437 1.429 . S
C434 C417 1.574 . S
C434 H428 0.949 . S
C434 C438 1.368 . S
C435 C416 1.429 . S
C435 C429 1.429 1_545 S
C435 C436 1.523 . S
C436 C417 1.368 . S
C436 C430 1.368 . S
C436 C435 1.523 . S
C437 C421 1.429 . S
C437 C433 1.429 . S
C437 C438 1.523 . S
C438 C422 1.368 . S
C438 C434 1.368 . S
C438 C437 1.523 . S
H439 C414 0.950 . S
H440 C416 0.950 . S
H441 C417 0.949 1_565 S
H442 C419 0.950 . S
H443 C421 0.950 . S
C444 C445 1.349 . S
C444 C446 1.327 . S
C444 H469 0.950 . S
C445 C444 1.349 . S
C445 C461 1.349 . S
C446 C444 1.327 . S
C446 C465 1.429 . S
C446 H470 0.950 . S
C447 C464 1.574 . S
C447 C466 1.368 . S
C447 H471 0.949 . S
H448 C452 0.949 . S
C449 C450 1.349 . S
C449 C451 1.327 . S
C449 H472 0.950 . S
C450 C449 1.349 . S
C450 C462 1.349 . S
C451 C449 1.327 . S
C451 C467 1.429 . S
C451 H473 0.950 . S
C452 H448 0.949 . S
C452 C460 1.574 . S
C452 C468 1.368 . S
H453 C461 0.950 . S
H454 C459 0.950 . S
H455 C460 0.949 . S
H456 C462 0.950 . S
H457 C463 0.950 . S
H458 C464 0.949 . S
C459 H454 0.950 . S
C459 C461 1.327 . S
C459 C465 1.429 . S
C460 C452 1.574 . S
C460 H455 0.949 . S
C460 C466 1.368 . S
C461 C445 1.349 . S
C461 H453 0.950 . S
C461 C459 1.327 . S
C462 C450 1.349 . S
C462 H456 0.950 . S
C462 C463 1.327 . S
C463 H457 0.950 . S
C463 C462 1.327 . S
C463 C467 1.429 . S
C464 C447 1.574 . S
C464 H458 0.949 . S
C464 C468 1.368 . S
C465 C446 1.429 . S
C465 C459 1.429 . S
C465 C466 1.523 . S
C466 C447 1.368 . S
C466 C460 1.368 . S
C466 C465 1.523 . S
C467 C451 1.429 . S
C467 C463 1.429 . S
C467 C468 1.523 . S
C468 C452 1.368 . S
C468 C464 1.368 . S
C468 C467 1.523 . S
H469 C444 0.950 . S
H470 C446 0.950 . S
H471 C447 0.949 . S
H472 C449 0.950 . S
H473 C451 0.950 . S
C474 C475 1.328 1_545 S
C474 C476 1.327 . S
C474 H499 0.950 . S
C475 C474 1.328 1_565 S
C475 C491 1.379 . S
C476 C474 1.327 . S
C476 C495 1.429 1_545 S
C476 H500 0.950 . S
C477 C494 1.574 . S
C477 C496 1.368 . S
C477 H501 0.949 . S
H478 C482 0.949 . S
C479 C480 1.349 . S
C479 C481 1.327 . S
C479 H502 0.950 . S
C480 C479 1.349 . S
C480 C492 1.349 . S
C481 C479 1.327 . S
C481 C497 1.429 . S
C481 H503 0.950 . S
C482 H478 0.949 . S
C482 C490 1.574 . S
C482 C498 1.368 . S
H483 C491 0.950 . S
H484 C489 0.950 . S
H485 C490 0.949 1_545 S
H486 C492 0.950 . S
H487 C493 0.950 . S
H488 C494 0.949 . S
C489 H484 0.950 . S
C489 C491 1.327 . S
C489 C495 1.429 . S
C490 C482 1.574 . S
C490 H485 0.949 1_565 S
C490 C496 1.368 . S
C491 C475 1.379 . S
C491 H483 0.950 . S
C491 C489 1.327 . S
C492 C480 1.349 . S
C492 H486 0.950 . S
C492 C493 1.327 . S
C493 H487 0.950 . S
C493 C492 1.327 . S
C493 C497 1.429 . S
C494 C477 1.574 . S
C494 H488 0.949 . S
C494 C498 1.368 . S
C495 C476 1.429 1_565 S
C495 C489 1.429 . S
C495 C496 1.523 . S
C496 C477 1.368 . S
C496 C490 1.368 . S
C496 C495 1.523 . S
C497 C481 1.429 . S
C497 C493 1.429 . S
C497 C498 1.523 . S
C498 C482 1.368 . S
C498 C494 1.368 . S
C498 C497 1.523 . S
H499 C474 0.950 . S
H500 C476 0.950 . S
H501 C477 0.949 . S
H502 C479 0.950 . S
H503 C481 0.950 . S
C504 C505 1.349 . S
C504 C506 1.327 . S
C504 H529 0.950 . S
C505 C504 1.349 . S
C505 C521 1.349 . S
C506 C504 1.327 . S
C506 C525 1.429 . S
C506 H530 0.950 . S
C507 C524 1.574 . S
C507 C526 1.368 . S
C507 H531 0.949 . S
H508 C512 0.949 . S
C509 C510 1.341 1_655 S
C509 C511 1.327 1_655 S
C509 H532 0.950 . S
C510 C509 1.341 1_455 S
C510 C522 1.366 . S
C511 C509 1.327 1_455 S
C511 C527 1.429 . S
C511 H533 0.950 1_455 S
C512 H508 0.949 . S
C512 C520 1.574 . S
C512 C528 1.368 . S
H513 C521 0.950 . S
H514 C519 0.950 . S
H515 C520 0.949 . S
H516 C522 0.950 . S
H517 C523 0.950 . S
H518 C524 0.949 . S
C519 H514 0.950 . S
C519 C521 1.327 . S
C519 C525 1.429 . S
C520 C512 1.574 . S
C520 H515 0.949 . S
C520 C526 1.368 . S
C521 C505 1.349 . S
C521 H513 0.950 . S
C521 C519 1.327 . S
C522 C510 1.366 . S
C522 H516 0.950 . S
C522 C523 1.327 . S
C523 H517 0.950 . S
C523 C522 1.327 . S
C523 C527 1.429 . S
C524 C507 1.574 . S
C524 H518 0.949 . S
C524 C528 1.368 . S
C525 C506 1.429 . S
C525 C519 1.429 . S
C525 C526 1.523 . S
C526 C507 1.368 . S
C526 C520 1.368 . S
C526 C525 1.523 . S
C527 C511 1.429 . S
C527 C523 1.429 . S
C527 C528 1.523 . S
C528 C512 1.368 . S
C528 C524 1.368 . S
C528 C527 1.523 . S
H529 C504 0.950 . S
H530 C506 0.950 . S
H531 C507 0.949 . S
H532 C509 0.950 . S
H533 C511 0.950 1_655 S
C534 C535 1.349 . S
C534 C536 1.327 . S
C534 H559 0.950 . S
C535 C534 1.349 . S
C535 C551 1.349 . S
C536 C534 1.327 . S
C536 C555 1.429 . S
C536 H560 0.950 . S
C537 C554 1.574 1_556 S
C537 C556 1.368 . S
C537 H561 0.949 . S
H538 C542 0.949 . S
C539 C540 1.349 . S
C539 C541 1.327 . S
C539 H562 0.950 . S
C540 C539 1.349 . S
C540 C552 1.349 . S
C541 C539 1.327 . S
C541 C557 1.429 . S
C541 H563 0.950 . S
C542 H538 0.949 . S
C542 C550 1.574 . S
C542 C558 1.368 . S
H543 C551 0.950 . S
H544 C549 0.950 . S
H545 C550 0.936 1_556 S
H546 C552 0.950 . S
H547 C553 0.950 . S
H548 C554 0.949 . S
C549 H544 0.950 . S
C549 C551 1.327 . S
C549 C555 1.429 . S
C550 C542 1.574 . S
C550 H545 0.936 1_554 S
C550 C556 1.368 1_554 S
C551 C535 1.349 . S
C551 H543 0.950 . S
C551 C549 1.327 . S
C552 C540 1.349 . S
C552 H546 0.950 . S
C552 C553 1.327 . S
C553 H547 0.950 . S
C553 C552 1.327 . S
C553 C557 1.429 . S
C554 C537 1.574 1_554 S
C554 H548 0.949 . S
C554 C558 1.368 . S
C555 C536 1.429 . S
C555 C549 1.429 . S
C555 C556 1.523 . S
C556 C537 1.368 . S
C556 C550 1.368 1_556 S
C556 C555 1.523 . S
C557 C541 1.429 . S
C557 C553 1.429 . S
C557 C558 1.523 . S
C558 C542 1.368 . S
C558 C554 1.368 . S
C558 C557 1.523 . S
H559 C534 0.950 . S
H560 C536 0.950 . S
H561 C537 0.949 . S
H562 C539 0.950 . S
H563 C541 0.950 . S
C564 C565 1.371 . S
C564 C566 1.327 . S
C564 H589 0.950 . S
C565 C564 1.371 . S
C565 C581 1.336 1_655 S
C566 C564 1.327 . S
C566 C585 1.429 . S
C566 H590 0.950 . S
C567 C584 1.574 . S
C567 C586 1.368 . S
C567 H591 0.949 1_655 S
H568 C572 0.949 . S
C569 C570 1.349 . S
C569 C571 1.327 . S
C569 H592 0.950 . S
C570 C569 1.349 . S
C570 C582 1.349 . S
C571 C569 1.327 . S
C571 C587 1.429 . S
C571 H593 0.950 . S
C572 H568 0.949 . S
C572 C580 1.574 . S
C572 C588 1.368 . S
H573 C581 0.950 . S
H574 C579 0.950 . S
H575 C580 0.949 . S
H576 C582 0.950 . S
H577 C583 0.950 . S
H578 C584 0.949 . S
C579 H574 0.950 . S
C579 C581 1.327 . S
C579 C585 1.429 1_455 S
C580 C572 1.574 . S
C580 H575 0.949 . S
C580 C586 1.368 . S
C581 C565 1.336 1_455 S
C581 H573 0.950 . S
C581 C579 1.327 . S
C582 C570 1.349 . S
C582 H576 0.950 . S
C582 C583 1.327 . S
C583 H577 0.950 . S
C583 C582 1.327 . S
C583 C587 1.429 . S
C584 C567 1.574 . S
C584 H578 0.949 . S
C584 C588 1.368 . S
C585 C566 1.429 . S
C585 C579 1.429 1_655 S
C585 C586 1.523 . S
C586 C567 1.368 . S
C586 C580 1.368 . S
C586 C585 1.523 . S
C587 C571 1.429 . S
C587 C583 1.429 . S
C587 C588 1.523 . S
C588 C572 1.368 . S
C588 C584 1.368 . S
C588 C587 1.523 . S
H589 C564 0.950 . S
H590 C566 0.950 . S
H591 C567 0.949 1_455 S
H592 C569 0.950 . S
H593 C571 0.950 . S
C594 C595 1.349 . S
C594 C596 1.327 . S
C594 H619 0.950 . S
C595 C594 1.349 . S
C595 C611 1.349 . S
C596 C594 1.327 . S
C596 C615 1.429 . S
C596 H620 0.950 . S
C597 C614 1.574 . S
C597 C616 1.368 . S
C597 H621 0.949 . S
H598 C602 0.949 . S
C599 C600 1.349 . S
C599 C601 1.327 . S
C599 H622 0.950 . S
C600 C599 1.349 . S
C600 C612 1.349 . S
C601 C599 1.327 . S
C601 C617 1.429 . S
C601 H623 0.950 . S
C602 H598 0.949 . S
C602 C610 1.574 . S
C602 C618 1.368 . S
H603 C611 0.950 . S
H604 C609 0.950 . S
H605 C610 0.949 . S
H606 C612 0.950 . S
H607 C613 0.950 . S
H608 C614 0.949 . S
C609 H604 0.950 . S
C609 C611 1.327 . S
C609 C615 1.429 . S
C610 C602 1.574 . S
C610 H605 0.949 . S
C610 C616 1.368 . S
C611 C595 1.349 . S
C611 H603 0.950 . S
C611 C609 1.327 . S
C612 C600 1.349 . S
C612 H606 0.950 . S
C612 C613 1.327 . S
C613 H607 0.950 . S
C613 C612 1.327 . S
C613 C617 1.429 . S
C614 C597 1.574 . S
C614 H608 0.949 . S
C614 C618 1.368 . S
C615 C596 1.429 . S
C615 C609 1.429 . S
C615 C616 1.523 . S
C616 C597 1.368 . S
C616 C610 1.368 . S
C616 C615 1.523 . S
C617 C601 1.429 . S
C617 C613 1.429 . S
C617 C618 1.523 . S
C618 C602 1.368 . S
C618 C614 1.368 . S
C618 C617 1.523 . S
H619 C594 0.950 . S
H620 C596 0.950 . S
H621 C597 0.949 . S
H622 C599 0.950 . S
H623 C601 0.950 . S
C624 C625 1.349 . S
C624 C626 1.327 . S
C624 H649 0.950 . S
C625 C624 1.349 . S
C625 C641 1.349 . S
C626 C624 1.327 . S
C626 C645 1.429 . S
C626 H650 0.950 . S
C627 C644 1.574 . S
C627 C646 1.368 . S
C627 H651 0.949 . S
H628 C632 0.949 . S
C629 C630 1.349 . S
C629 C631 1.327 1_545 S
C629 H652 0.950 . S
C630 C629 1.349 . S
C630 C642 1.349 . S
C631 C629 1.327 1_565 S
C631 C647 1.429 . S
C631 H653 0.950 . S
C632 H628 0.949 . S
C632 C640 1.574 . S
C632 C648 1.368 . S
H633 C641 0.950 . S
H634 C639 0.950 . S
H635 C640 0.949 . S
H636 C642 0.950 . S
H637 C643 0.950 . S
H638 C644 0.949 . S
C639 H634 0.950 . S
C639 C641 1.327 . S
C639 C645 1.429 . S
C640 C632 1.574 . S
C640 H635 0.949 . S
C640 C646 1.368 . S
C641 C625 1.349 . S
C641 H633 0.950 . S
C641 C639 1.327 . S
C642 C630 1.349 . S
C642 H636 0.950 . S
C642 C643 1.327 1_545 S
C643 H637 0.950 . S
C643 C642 1.327 1_565 S
C643 C647 1.429 . S
C644 C627 1.574 . S
C644 H638 0.949 . S
C644 C648 1.368 . S
C645 C626 1.429 . S
C645 C639 1.429 . S
C645 C646 1.523 . S
C646 C627 1.368 . S
C646 C640 1.368 . S
C646 C645 1.523 . S
C647 C631 1.429 . S
C647 C643 1.429 . S
C647 C648 1.523 . S
C648 C632 1.368 . S
C648 C644 1.368 . S
C648 C647 1.523 . S
H649 C624 0.950 . S
H650 C626 0.950 . S
H651 C627 0.949 . S
H652 C629 0.950 . S
H653 C631 0.950 . S
C654 C655 1.349 . S
C654 C656 1.327 . S
C654 H679 0.950 . S
C655 C654 1.349 . S
C655 C671 1.349 . S
C656 C654 1.327 . S
C656 C675 1.429 . S
C656 H680 0.950 . S
C657 C674 1.574 . S
C657 C676 1.368 . S
C657 H681 0.949 . S
H658 C662 0.949 . S
C659 C660 1.349 . S
C659 C661 1.327 . S
C659 H682 0.950 . S
C660 C659 1.349 . S
C660 C672 1.349 . S
C661 C659 1.327 . S
C661 C677 1.429 . S
C661 H683 0.950 . S
C662 H658 0.949 . S
C662 C670 1.574 . S
C662 C678 1.368 . S
H663 C671 0.950 . S
H664 C669 0.950 . S
H665 C670 0.949 . S
H666 C672 0.950 . S
H667 C673 0.950 . S
H668 C674 0.949 . S
C669 H664 0.950 . S
C669 C671 1.327 . S
C669 C675 1.429 . S
C670 C662 1.574 . S
C670 H665 0.949 . S
C670 C676 1.368 . S
C671 C655 1.349 . S
C671 H663 0.950 . S
C671 C669 1.327 . S
C672 C660 1.349 . S
C672 H666 0.950 . S
C672 C673 1.327 . S
C673 H667 0.950 . S
C673 C672 1.327 . S
C673 C677 1.429 . S
C674 C657 1.574 . S
C674 H668 0.949 . S
C674 C678 1.368 . S
C675 C656 1.429 . S
C675 C669 1.429 . S
C675 C676 1.523 . S
C676 C657 1.368 . S
C676 C670 1.368 . S
C676 C675 1.523 . S
C677 C661 1.429 . S
C677 C673 1.429 . S
C677 C678 1.523 . S
C678 C662 1.368 . S
C678 C674 1.368 . S
C678 C677 1.523 . S
H679 C654 0.950 . S
H680 C656 0.950 . S
H681 C657 0.949 . S
H682 C659 0.950 . S
H683 C661 0.950 . S
C684 C685 1.368 . S
C684 C686 1.306 1_565 S
C684 H709 0.952 . S
C685 C684 1.368 . S
C685 C701 1.349 . S
C686 C684 1.306 1_545 S
C686 C705 1.429 . S
C686 H710 0.950 . S
C687 C704 1.574 . S
C687 C706 1.368 . S
C687 H711 0.949 . S
H688 C692 0.949 . S
C689 C690 1.349 . S
C689 C691 1.327 . S
C689 H712 0.950 . S
C690 C689 1.349 . S
C690 C702 1.349 . S
C691 C689 1.327 . S
C691 C707 1.429 . S
C691 H713 0.950 . S
C692 H688 0.949 . S
C692 C700 1.574 . S
C692 C708 1.368 . S
H693 C701 0.950 . S
H694 C699 0.950 . S
H695 C700 0.949 . S
H696 C702 0.950 . S
H697 C703 0.950 . S
H698 C704 0.949 . S
C699 H694 0.950 . S
C699 C701 1.327 1_545 S
C699 C705 1.429 . S
C700 C692 1.574 . S
C700 H695 0.949 . S
C700 C706 1.368 . S
C701 C685 1.349 . S
C701 H693 0.950 . S
C701 C699 1.327 1_565 S
C702 C690 1.349 . S
C702 H696 0.950 . S
C702 C703 1.327 . S
C703 H697 0.950 . S
C703 C702 1.327 . S
C703 C707 1.429 . S
C704 C687 1.574 . S
C704 H698 0.949 . S
C704 C708 1.368 . S
C705 C686 1.429 . S
C705 C699 1.429 . S
C705 C706 1.523 . S
C706 C687 1.368 . S
C706 C700 1.368 . S
C706 C705 1.523 . S
C707 C691 1.429 . S
C707 C703 1.429 . S
C707 C708 1.523 . S
C708 C692 1.368 . S
C708 C704 1.368 . S
C708 C707 1.523 . S
H709 C684 0.952 . S
H710 C686 0.950 . S
H711 C687 0.949 . S
H712 C689 0.950 . S
H713 C691 0.950 . S
C714 C715 1.349 . S
C714 C716 1.327 . S
C714 H739 0.950 . S
C715 C714 1.349 . S
C715 C731 1.349 . S
C716 C714 1.327 . S
C716 C735 1.429 . S
C716 H740 0.950 . S
C717 C734 1.574 . S
C717 C736 1.368 . S
C717 H741 0.949 . S
H718 C722 0.949 . S
C719 C720 1.349 . S
C719 C721 1.327 . S
C719 H742 0.950 . S
C720 C719 1.349 . S
C720 C732 1.349 . S
C721 C719 1.327 . S
C721 C737 1.429 . S
C721 H743 0.950 . S
C722 H718 0.949 . S
C722 C730 1.574 . S
C722 C738 1.368 . S
H723 C731 0.950 . S
H724 C729 0.950 . S
H725 C730 0.949 . S
H726 C732 0.950 . S
H727 C733 0.950 . S
H728 C734 0.949 . S
C729 H724 0.950 . S
C729 C731 1.327 . S
C729 C735 1.429 . S
C730 C722 1.574 . S
C730 H725 0.949 . S
C730 C736 1.368 . S
C731 C715 1.349 . S
C731 H723 0.950 . S
C731 C729 1.327 . S
C732 C720 1.349 . S
C732 H726 0.950 . S
C732 C733 1.327 . S
C733 H727 0.950 . S
C733 C732 1.327 . S
C733 C737 1.429 . S
C734 C717 1.574 . S
C734 H728 0.949 . S
C734 C738 1.368 . S
C735 C716 1.429 . S
C735 C729 1.429 . S
C735 C736 1.523 . S
C736 C717 1.368 . S
C736 C730 1.368 . S
C736 C735 1.523 . S
C737 C721 1.429 . S
C737 C733 1.429 . S
C737 C738 1.523 . S
C738 C722 1.368 . S
C738 C734 1.368 . S
C738 C737 1.523 . S
H739 C714 0.950 . S
H740 C716 0.950 . S
H741 C717 0.949 . S
H742 C719 0.950 . S
H743 C721 0.950 . S
C744 C745 1.349 . S
C744 C746 1.327 . S
C744 H769 0.950 . S
C745 C744 1.349 . S
C745 C761 1.349 . S
C746 C744 1.327 . S
C746 C765 1.429 . S
C746 H770 0.950 . S
C747 C764 1.574 . S
C747 C766 1.368 . S
C747 H771 0.949 . S
H748 C752 0.949 . S
C749 C750 1.349 . S
C749 C751 1.327 . S
C749 H772 0.950 . S
C750 C749 1.349 . S
C750 C762 1.349 . S
C751 C749 1.327 . S
C751 C767 1.429 . S
C751 H773 0.950 . S
C752 H748 0.949 . S
C752 C760 1.574 . S
C752 C768 1.368 . S
H753 C761 0.950 . S
H754 C759 0.950 . S
H755 C760 0.949 . S
H756 C762 0.950 . S
H757 C763 0.950 . S
H758 C764 0.949 . S
C759 H754 0.950 . S
C759 C761 1.327 . S
C759 C765 1.429 . S
C760 C752 1.574 . S
C760 H755 0.949 . S
C760 C766 1.368 . S
C761 C745 1.349 . S
C761 H753 0.950 . S
C761 C759 1.327 . S
C762 C750 1.349 . S
C762 H756 0.950 . S
C762 C763 1.327 . S
C763 H757 0.950 . S
C763 C762 1.327 . S
C763 C767 1.429 . S
C764 C747 1.574 . S
C764 H758 0.949 . S
C764 C768 1.368 . S
C765 C746 1.429 . S
C765 C759 1.429 . S
C765 C766 1.523 . S
C766 C747 1.368 . S
C766 C760 1.368 . S
C766 C765 1.523 . S
C767 C751 1.429 . S
C767 C763 1.429 . S
C767 C768 1.523 . S
C768 C752 1.368 . S
C768 C764 1.368 . S
C768 C767 1.523 . S
H769 C744 0.950 . S
H770 C746 0.950 . S
H771 C747 0.949 . S
H772 C749 0.950 . S
H773 C751 0.950 . S
C774 C775 1.349 . S
C774 C776 1.327 . S
C774 H799 0.950 . S
C775 C774 1.349 . S
C775 C791 1.349 . S
C776 C774 1.327 . S
C776 C795 1.429 . S
C776 H800 0.950 . S
C777 C794 1.574 . S
C777 C796 1.368 . S
C777 H801 0.949 . S
H778 C782 0.949 . S
C779 C780 1.349 . S
C779 C781 1.327 1_455 S
C779 H802 0.950 . S
C780 C779 1.349 . S
C780 C792 1.349 . S
C781 C779 1.327 1_655 S
C781 C797 1.429 . S
C781 H803 0.950 . S
C782 H778 0.949 . S
C782 C790 1.574 . S
C782 C798 1.368 . S
H783 C791 0.950 . S
H784 C789 0.950 . S
H785 C790 0.949 . S
H786 C792 0.950 . S
H787 C793 0.950 . S
H788 C794 0.949 . S
C789 H784 0.950 . S
C789 C791 1.327 . S
C789 C795 1.429 . S
C790 C782 1.574 . S
C790 H785 0.949 . S
C790 C796 1.368 . S
C791 C775 1.349 . S
C791 H783 0.950 . S
C791 C789 1.327 . S
C792 C780 1.349 . S
C792 H786 0.950 . S
C792 C793 1.327 1_455 S
C793 H787 0.950 . S
C793 C792 1.327 1_655 S
C793 C797 1.429 . S
C794 C777 1.574 . S
C794 H788 0.949 . S
C794 C798 1.368 . S
C795 C776 1.429 . S
C795 C789 1.429 . S
C795 C796 1.523 . S
C796 C777 1.368 . S
C796 C790 1.368 . S
C796 C795 1.523 . S
C797 C781 1.429 . S
C797 C793 1.429 . S
C797 C798 1.523 . S
C798 C782 1.368 . S
C798 C794 1.368 . S
C798 C797 1.523 . S
H799 C774 0.950 . S
H800 C776 0.950 . S
H801 C777 0.949 . S
H802 C779 0.950 . S
H803 C781 0.950 . S
C804 C805 1.349 . S
C804 C806 1.327 . S
C804 H829 0.950 . S
C805 C804 1.349 . S
C805 C821 1.349 . S
C806 C804 1.327 . S
C806 C825 1.429 . S
C806 H830 0.950 . S
C807 C824 1.574 . S
C807 C826 1.368 . S
C807 H831 0.949 . S
H808 C812 0.949 . S
C809 C810 1.349 . S
C809 C811 1.327 . S
C809 H832 0.950 . S
C810 C809 1.349 . S
C810 C822 1.349 . S
C811 C809 1.327 . S
C811 C827 1.429 . S
C811 H833 0.950 . S
C812 H808 0.949 . S
C812 C820 1.574 . S
C812 C828 1.368 . S
H813 C821 0.950 . S
H814 C819 0.950 . S
H815 C820 0.949 . S
H816 C822 0.950 . S
H817 C823 0.950 . S
H818 C824 0.949 . S
C819 H814 0.950 . S
C819 C821 1.327 . S
C819 C825 1.429 . S
C820 C812 1.574 . S
C820 H815 0.949 . S
C820 C826 1.368 . S
C821 C805 1.349 . S
C821 H813 0.950 . S
C821 C819 1.327 . S
C822 C810 1.349 . S
C822 H816 0.950 . S
C822 C823 1.327 . S
C823 H817 0.950 . S
C823 C822 1.327 . S
C823 C827 1.429 . S
C824 C807 1.574 . S
C824 H818 0.949 . S
C824 C828 1.368 . S
C825 C806 1.429 . S
C825 C819 1.429 . S
C825 C826 1.523 . S
C826 C807 1.368 . S
C826 C820 1.368 . S
C826 C825 1.523 . S
C827 C811 1.429 . S
C827 C823 1.429 . S
C827 C828 1.523 . S
C828 C812 1.368 . S
C828 C824 1.368 . S
C828 C827 1.523 . S
H829 C804 0.950 . S
H830 C806 0.950 . S
H831 C807 0.949 . S
H832 C809 0.950 . S
H833 C811 0.950 . S
C834 C835 1.349 . S
C834 C836 1.327 . S
C834 H859 0.950 . S
C835 C834 1.349 . S
C835 C851 1.349 . S
C836 C834 1.327 . S
C836 C855 1.429 . S
C836 H860 0.950 . S
C837 C854 1.574 . S
C837 C856 1.368 . S
C837 H861 0.949 . S
H838 C842 0.949 . S
C839 C840 1.349 . S
C839 C841 1.327 1_655 S
C839 H862 0.950 . S
C840 C839 1.349 . S
C840 C852 1.349 . S
C841 C839 1.327 1_455 S
C841 C857 1.429 . S
C841 H863 0.950 . S
C842 H838 0.949 . S
C842 C850 1.574 . S
C842 C858 1.368 . S
H843 C851 0.950 . S
H844 C849 0.950 . S
H845 C850 0.949 . S
H846 C852 0.950 . S
H847 C853 0.950 . S
H848 C854 0.949 . S
C849 H844 0.950 . S
C849 C851 1.327 . S
C849 C855 1.429 . S
C850 C842 1.574 . S
C850 H845 0.949 . S
C850 C856 1.368 . S
C851 C835 1.349 . S
C851 H843 0.950 . S
C851 C849 1.327 . S
C852 C840 1.349 . S
C852 H846 0.950 . S
C852 C853 1.327 1_655 S
C853 H847 0.950 . S
C853 C852 1.327 1_455 S
C853 C857 1.429 . S
C854 C837 1.574 . S
C854 H848 0.949 . S
C854 C858 1.368 . S
C855 C836 1.429 . S
C855 C849 1.429 . S
C855 C856 1.523 . S
C856 C837 1.368 . S
C856 C850 1.368 . S
C856 C855 1.523 . S
C857 C841 1.429 . S
C857 C853 1.429 . S
C857 C858 1.523 . S
C858 C842 1.368 . S
C858 C854 1.368 . S
C858 C857 1.523 . S
H859 C834 0.950 . S
H860 C836 0.950 . S
H861 C837 0.949 . S
H862 C839 0.950 . S
H863 C841 0.950 . S
C265 N2 0.267 . S
C270 N167 0.267 . S
C295 N200 0.267 . S
C300 N35 0.267 . S
C325 N233 0.267 . S
C330 N68 0.267 . S
C355 N134 0.267 . S
C360 N101 0.267 . S
C385 N112 1.013 . S
C390 C21 1.002 . S
C415 C54 0.979 1_545 S
C420 N13 1.014 . S
C445 N46 1.013 . S
C450 C87 1.002 . S
C475 C120 0.979 1_565 S
C480 N79 1.014 . S
C505 N178 1.014 . S
C510 C153 0.979 1_455 S
C535 C186 1.002 . S
C540 N211 1.013 . S
C565 C219 0.979 1_655 S
C570 N244 1.014 . S
C595 C252 1.002 . S
C600 N145 1.013 . S
C625 C205 1.774 . S
C630 C18 1.829 . S
C655 C238 1.774 . S
C660 C51 1.829 . S
C685 C84 1.829 . S
C690 C139 1.774 . S
C715 C117 1.829 . S
C720 C172 1.774 . S
C745 C150 1.829 . S
C750 C73 1.774 . S
C775 C106 1.774 . S
C780 C183 1.829 . S
C805 C216 1.829 . S
C810 C7 1.774 . S
C835 C40 1.774 . S
C840 C249 1.829 . S
