# Generated by pormake.
# Topology ume, (4)-cn, num edge types: 1
# Building blocks:
#     Node 0, Type 0, BuildingBlock: ESEHIV_clean_sbu_0, # of connection points: 4
#     Node 1, Type 0, BuildingBlock: ESEHIV_clean_sbu_0, # of connection points: 4
#     Node 2, Type 0, BuildingBlock: ESEHIV_clean_sbu_0, # of connection points: 4
#     Node 3, Type 0, BuildingBlock: ESEHIV_clean_sbu_0, # of connection points: 4
#     Node 4, Type 0, BuildingBlock: ESEHIV_clean_sbu_0, # of connection points: 4
#     Node 5, Type 0, BuildingBlock: ESEHIV_clean_sbu_0, # of connection points: 4
#     Node 6, Type 0, BuildingBlock: ESEHIV_clean_sbu_0, # of connection points: 4
#     Node 7, Type 0, BuildingBlock: ESEHIV_clean_sbu_0, # of connection points: 4
#     Node 8, Type 0, BuildingBlock: ESEHIV_clean_sbu_0, # of connection points: 4
#     Node 9, Type 0, BuildingBlock: ESEHIV_clean_sbu_0, # of connection points: 4
#     Node 10, Type 0, BuildingBlock: ESEHIV_clean_sbu_0, # of connection points: 4
#     Node 11, Type 0, BuildingBlock: ESEHIV_clean_sbu_0, # of connection points: 4
#     Node 12, Type 0, BuildingBlock: ESEHIV_clean_sbu_0, # of connection points: 4
#     Node 13, Type 0, BuildingBlock: ESEHIV_clean_sbu_0, # of connection points: 4
#     Node 14, Type 0, BuildingBlock: ESEHIV_clean_sbu_0, # of connection points: 4
#     Node 15, Type 0, BuildingBlock: ESEHIV_clean_sbu_0, # of connection points: 4
#     Edge 16, Type (0, 0), BuildingBlock: ZUJKAS_clean_linker_0, # of connection points: 2
#     Edge 17, Type (0, 0), BuildingBlock: ZUJKAS_clean_linker_0, # of connection points: 2
#     Edge 18, Type (0, 0), BuildingBlock: ZUJKAS_clean_linker_0, # of connection points: 2
#     Edge 19, Type (0, 0), BuildingBlock: ZUJKAS_clean_linker_0, # of connection points: 2
#     Edge 20, Type (0, 0), BuildingBlock: ZUJKAS_clean_linker_0, # of connection points: 2
#     Edge 21, Type (0, 0), BuildingBlock: ZUJKAS_clean_linker_0, # of connection points: 2
#     Edge 22, Type (0, 0), BuildingBlock: ZUJKAS_clean_linker_0, # of connection points: 2
#     Edge 23, Type (0, 0), BuildingBlock: ZUJKAS_clean_linker_0, # of connection points: 2
#     Edge 24, Type (0, 0), BuildingBlock: ZUJKAS_clean_linker_0, # of connection points: 2
#     Edge 25, Type (0, 0), BuildingBlock: ZUJKAS_clean_linker_0, # of connection points: 2
#     Edge 26, Type (0, 0), BuildingBlock: ZUJKAS_clean_linker_0, # of connection points: 2
#     Edge 27, Type (0, 0), BuildingBlock: ZUJKAS_clean_linker_0, # of connection points: 2
#     Edge 28, Type (0, 0), BuildingBlock: ZUJKAS_clean_linker_0, # of connection points: 2
#     Edge 29, Type (0, 0), BuildingBlock: ZUJKAS_clean_linker_0, # of connection points: 2
#     Edge 30, Type (0, 0), BuildingBlock: ZUJKAS_clean_linker_0, # of connection points: 2
#     Edge 31, Type (0, 0), BuildingBlock: ZUJKAS_clean_linker_0, # of connection points: 2
#     Edge 32, Type (0, 0), BuildingBlock: ZUJKAS_clean_linker_0, # of connection points: 2
#     Edge 33, Type (0, 0), BuildingBlock: ZUJKAS_clean_linker_0, # of connection points: 2
#     Edge 34, Type (0, 0), BuildingBlock: ZUJKAS_clean_linker_0, # of connection points: 2
#     Edge 35, Type (0, 0), BuildingBlock: ZUJKAS_clean_linker_0, # of connection points: 2
#     Edge 36, Type (0, 0), BuildingBlock: ZUJKAS_clean_linker_0, # of connection points: 2
#     Edge 37, Type (0, 0), BuildingBlock: ZUJKAS_clean_linker_0, # of connection points: 2
#     Edge 38, Type (0, 0), BuildingBlock: ZUJKAS_clean_linker_0, # of connection points: 2
#     Edge 39, Type (0, 0), BuildingBlock: ZUJKAS_clean_linker_0, # of connection points: 2
#     Edge 40, Type (0, 0), BuildingBlock: ZUJKAS_clean_linker_0, # of connection points: 2
#     Edge 41, Type (0, 0), BuildingBlock: ZUJKAS_clean_linker_0, # of connection points: 2
#     Edge 42, Type (0, 0), BuildingBlock: ZUJKAS_clean_linker_0, # of connection points: 2
#     Edge 43, Type (0, 0), BuildingBlock: ZUJKAS_clean_linker_0, # of connection points: 2
#     Edge 44, Type (0, 0), BuildingBlock: ZUJKAS_clean_linker_0, # of connection points: 2
#     Edge 45, Type (0, 0), BuildingBlock: ZUJKAS_clean_linker_0, # of connection points: 2
#     Edge 46, Type (0, 0), BuildingBlock: ZUJKAS_clean_linker_0, # of connection points: 2
#     Edge 47, Type (0, 0), BuildingBlock: ZUJKAS_clean_linker_0, # of connection points: 2
# Relax obj value: 0.042
# Max RMSD: 0.155
# Mean RMSD: 0.134
data_MOF--net-ume--node1-ESEHIV_clean_sbu_0--edge1-ZUJKAS_clean_linker_0
_symmetry_space_group_name_H-M    P1
_symmetry_Int_Tables_number       1
_symmetry_cell_setting            triclinic
loop_
_symmetry_equiv_pos_as_xyz
'x, y, z'
_cell_length_a     36.591353
_cell_length_b     42.740656
_cell_length_c     153.367
_cell_angle_alpha  90.187293
_cell_angle_beta   90.039265
_cell_angle_gamma 89.990106
loop_
_atom_site_label
_atom_site_type_symbol
_atom_site_fract_x
_atom_site_fract_y
_atom_site_fract_z
_atom_type_partial_charge
Cu0 Cu 0.2723 0.09589 0.31372 0.0
N1 N 0.28033 0.11578 0.32444 0.0
N2 N 0.28407 0.12648 0.33869 0.0
C3 C 0.26945 0.10758 0.33252 0.0
C4 C 0.3045 0.14746 0.3343 0.0
C5 C 0.30214 0.1408 0.32554 0.0
O6 O 0.22449 0.0757 0.3134 0.0
C7 C 0.33155 0.05453 0.31712 0.0
O8 O 0.31818 0.0542 0.32507 0.0
H9 H 0.25248 0.08745 0.33387 0.0
H10 H 0.31606 0.15288 0.32033 0.0
N11 N 0.27077 0.12678 0.30517 0.0
N12 N 0.27825 0.15252 0.29263 0.0
C13 C 0.2875 0.12702 0.29734 0.0
C14 C 0.25045 0.15297 0.30544 0.0
C15 C 0.25498 0.1689 0.29773 0.0
C16 C 0.21315 0.05255 0.31784 0.0
O17 O 0.23564 0.03829 0.3232 0.0
H18 H 0.30522 0.10844 0.29506 0.0
H19 H 0.23319 0.15976 0.31085 0.0
O20 O 0.31418 0.06903 0.31118 0.0
H21 H 0.32029 0.16619 0.33722 0.0
H22 H 0.24218 0.19087 0.29602 0.0
Cu23 Cu 0.96384 0.76477 0.57357 0.0
N24 N 0.99742 0.79724 0.57244 0.0
N25 N 1.01963 0.8459 0.57199 0.0
C26 C 0.99055 0.82772 0.57389 0.0
C27 C 0.04597 0.82591 0.56933 0.0
C28 C 0.03217 0.79591 0.56961 0.0
O29 O 0.92681 0.77107 0.56469 0.0
C30 C 0.92383 0.74632 0.58887 0.0
O31 O 0.91118 0.72305 0.58414 0.0
H32 H 0.96467 0.83633 0.57629 0.0
H33 H 0.04627 0.77471 0.56773 0.0
N34 N 0.98704 0.72696 0.57101 0.0
N35 N 1.00722 0.67756 0.57128 0.0
C36 C 0.99055 0.70076 0.57582 0.0
C37 C 1.00186 0.72015 0.56322 0.0
C38 C 1.01437 0.68985 0.56336 0.0
C39 C 0.90415 0.79362 0.56459 0.0
O40 O 0.90212 0.81247 0.57135 0.0
H41 H 0.98074 0.69866 0.58244 0.0
H42 H 1.00263 0.73599 0.55774 0.0
O43 O 0.94534 0.76611 0.58543 0.0
H44 H 0.07293 0.83249 0.56709 0.0
H45 H 0.02644 0.67751 0.55791 0.0
Cu46 Cu 0.27773 0.43344 0.81592 0.0
N47 N 0.27904 0.40918 0.82601 0.0
N48 N 0.27899 0.39565 0.8401 0.0
C49 C 0.27878 0.41952 0.83432 0.0
C50 C 0.27947 0.36937 0.83518 0.0
C51 C 0.27945 0.37778 0.82652 0.0
O52 O 0.32027 0.46098 0.81627 0.0
C53 C 0.21726 0.47133 0.80986 0.0
O54 O 0.23664 0.47656 0.80281 0.0
H55 H 0.27774 0.44405 0.83606 0.0
H56 H 0.27953 0.36208 0.82097 0.0
N57 N 0.28163 0.40679 0.80624 0.0
N58 N 0.27136 0.3817 0.79365 0.0
C59 C 0.2585 0.40285 0.79947 0.0
C60 C 0.30996 0.38756 0.80464 0.0
C61 C 0.30369 0.37201 0.79691 0.0
C62 C 0.33695 0.46976 0.80942 0.0
O63 O 0.32279 0.4631 0.80176 0.0
H64 H 0.23268 0.41495 0.79886 0.0
H65 H 0.33369 0.38525 0.80879 0.0
O66 O 0.23084 0.45502 0.81599 0.0
H67 H 0.28014 0.34568 0.83764 0.0
H68 H 0.3219 0.35535 0.79383 0.0
Cu69 Cu 0.5717 0.75985 0.0755 0.0
N70 N 0.5398 0.72596 0.0755 0.0
N71 N 0.51792 0.67751 0.07405 0.0
C72 C 0.54544 0.69731 0.0721 0.0
C73 C 0.494 0.69444 0.07881 0.0
C74 C 0.5076 0.72432 0.0797 0.0
O75 O 0.60487 0.75511 0.0657 0.0
C76 C 0.61908 0.77842 0.08982 0.0
O77 O 0.63319 0.79963 0.08464 0.0
H78 H 0.56996 0.69071 0.06862 0.0
H79 H 0.49541 0.74334 0.08335 0.0
N80 N 0.54393 0.79594 0.07382 0.0
N81 N 0.52496 0.84565 0.07346 0.0
C82 C 0.55132 0.8257 0.07617 0.0
C83 C 0.51192 0.79711 0.06953 0.0
C84 C 0.50012 0.82764 0.0693 0.0
C85 C 0.62983 0.73446 0.0652 0.0
O86 O 0.63662 0.71676 0.072 0.0
H87 H 0.57589 0.83268 0.07957 0.0
H88 H 0.49828 0.77709 0.06667 0.0
O89 O 0.59461 0.75997 0.08693 0.0
H90 H 0.46879 0.68573 0.08158 0.0
H91 H 0.47509 0.83586 0.06633 0.0
Cu92 Cu 0.26681 0.4317 0.95795 0.0
N93 N 0.27015 0.40828 0.94767 0.0
N94 N 0.27252 0.39546 0.93352 0.0
C95 C 0.27008 0.41901 0.93941 0.0
C96 C 0.27442 0.36902 0.9383 0.0
C97 C 0.27302 0.37701 0.947 0.0
O98 O 0.22248 0.45749 0.95772 0.0
C99 C 0.32371 0.47037 0.96545 0.0
O100 O 0.30285 0.47257 0.9724 0.0
H101 H 0.26759 0.44353 0.93778 0.0
H102 H 0.27404 0.36113 0.95247 0.0
N103 N 0.26238 0.40418 0.96737 0.0
N104 N 0.27103 0.37903 0.97999 0.0
C105 C 0.28484 0.39989 0.97425 0.0
C106 C 0.23364 0.38527 0.96879 0.0
C107 C 0.23887 0.36974 0.97653 0.0
C108 C 0.194 0.44709 0.95387 0.0
O109 O 0.19575 0.42007 0.9498 0.0
H110 H 0.3107 0.4118 0.97503 0.0
H111 H 0.21012 0.38338 0.96455 0.0
O112 O 0.31214 0.45553 0.95879 0.0
H113 H 0.27712 0.34554 0.93572 0.0
H114 H 0.21983 0.35365 0.97952 0.0
Cu115 Cu 0.58281 0.76746 0.19783 0.0
N116 N 0.54916 0.79949 0.19623 0.0
N117 N 0.52495 0.8474 0.1961 0.0
C118 C 0.55347 0.82955 0.19862 0.0
C119 C 0.50178 0.82769 0.19198 0.0
C120 C 0.51681 0.79809 0.19209 0.0
O121 O 0.61585 0.78119 0.20702 0.0
C122 C 0.62289 0.78266 0.18282 0.0
O123 O 0.62658 0.80956 0.18689 0.0
H124 H 0.57769 0.8383 0.20187 0.0
H125 H 0.5053 0.77712 0.18923 0.0
N126 N 0.55755 0.73176 0.20132 0.0
N127 N 0.53887 0.68224 0.20275 0.0
C128 C 0.56216 0.70194 0.19867 0.0
C129 C 0.53048 0.731 0.20723 0.0
C130 C 0.5189 0.70055 0.20813 0.0
C131 C 0.63006 0.7629 0.21261 0.0
O132 O 0.62545 0.73256 0.21175 0.0
H133 H 0.58257 0.69485 0.19396 0.0
H134 H 0.51992 0.75128 0.21064 0.0
O135 O 0.60661 0.76034 0.18668 0.0
H136 H 0.47593 0.83418 0.18907 0.0
H137 H 0.49712 0.69264 0.21235 0.0
Cu138 Cu 0.25951 0.0976 0.45633 0.0
N139 N 0.25569 0.12045 0.44603 0.0
N140 N 0.25352 0.13235 0.43185 0.0
C141 C 0.26106 0.11005 0.43782 0.0
C142 C 0.24316 0.1577 0.43651 0.0
C143 C 0.24451 0.15028 0.44524 0.0
O144 O 0.30387 0.07248 0.45556 0.0
C145 C 0.20339 0.05782 0.46373 0.0
O146 O 0.22374 0.05611 0.47077 0.0
H147 H 0.2693 0.08636 0.43627 0.0
H148 H 0.23735 0.16541 0.45064 0.0
N149 N 0.26433 0.12584 0.46562 0.0
N150 N 0.25744 0.15162 0.47824 0.0
C151 C 0.24367 0.12946 0.47284 0.0
C152 C 0.29183 0.14648 0.46646 0.0
C153 C 0.2877 0.16239 0.47421 0.0
C154 C 0.32218 0.06451 0.46226 0.0
O155 O 0.30895 0.07064 0.47004 0.0
H156 H 0.21908 0.11622 0.4741 0.0
H157 H 0.3138 0.14927 0.46182 0.0
O158 O 0.2148 0.07309 0.45717 0.0
H159 H 0.23524 0.18007 0.43381 0.0
H160 H 0.30623 0.17985 0.47679 0.0
Cu161 Cu 0.95902 0.76323 0.69787 0.0
N162 N 0.99153 0.72989 0.69687 0.0
N163 N 1.01601 0.68215 0.69754 0.0
C164 C 0.98897 0.70113 0.70036 0.0
C165 C 0.03654 0.69979 0.69215 0.0
C166 C 0.02139 0.72924 0.69177 0.0
O167 O 0.92637 0.75641 0.70774 0.0
C168 C 0.92588 0.74448 0.68206 0.0
O169 O 0.93015 0.71643 0.68537 0.0
H170 H 0.96684 0.69381 0.70455 0.0
H171 H 0.0308 0.74863 0.68785 0.0
N172 N 0.987 0.79857 0.70028 0.0
N173 N 1.00825 0.84753 0.7008 0.0
C174 C 0.98136 0.82847 0.69787 0.0
C175 C 1.01826 0.79872 0.70489 0.0
C176 C 0.03146 0.82883 0.70522 0.0
C177 C 0.90392 0.7338 0.70843 0.0
O178 O 0.89949 0.71446 0.70185 0.0
H179 H 0.95829 0.83595 0.69398 0.0
H180 H 0.03053 0.77827 0.70783 0.0
O181 O 0.9348 0.76829 0.68661 0.0
H182 H 0.06038 0.69185 0.6886 0.0
H183 H 0.05592 0.83641 0.70859 0.0
Cu184 Cu 0.77836 0.59655 0.81545 0.0
N185 N 0.78803 0.61598 0.82614 0.0
N186 N 0.79269 0.62566 0.84044 0.0
C187 C 0.77729 0.60747 0.83421 0.0
C188 C 0.81357 0.64647 0.8361 0.0
C189 C 0.81064 0.64043 0.82731 0.0
O190 O 0.7322 0.5738 0.81614 0.0
C191 C 0.83727 0.55453 0.8182 0.0
O192 O 0.82331 0.5522 0.82606 0.0
H193 H 0.75978 0.5876 0.83548 0.0
H194 H 0.82466 0.65254 0.82211 0.0
N195 N 0.77451 0.62754 0.80694 0.0
N196 N 0.78153 0.65376 0.79446 0.0
C197 C 0.78827 0.62688 0.79879 0.0
C198 C 0.75846 0.65569 0.80779 0.0
C199 C 0.76282 0.67196 0.80011 0.0
C200 C 0.7143 0.5666 0.80929 0.0
O201 O 0.7288 0.57242 0.80163 0.0
H202 H 0.80354 0.60731 0.79617 0.0
H203 H 0.74484 0.66387 0.81363 0.0
O204 O 0.82046 0.57067 0.81251 0.0
H205 H 0.82998 0.66469 0.83906 0.0
H206 H 0.75275 0.69528 0.79878 0.0
Cu207 Cu 0.4706 0.26528 0.07363 0.0
N208 N 0.50378 0.29823 0.07322 0.0
N209 N 0.52678 0.34627 0.07176 0.0
C210 C 0.49793 0.32736 0.07023 0.0
C211 C 0.55179 0.32827 0.07583 0.0
C212 C 0.53751 0.29863 0.07672 0.0
O213 O 0.43594 0.27056 0.06417 0.0
C214 C 0.4255 0.24868 0.08851 0.0
O215 O 0.4115 0.22597 0.08378 0.0
H216 H 0.47242 0.33496 0.06738 0.0
H217 H 0.55031 0.27896 0.07992 0.0
N218 N 0.49674 0.22839 0.07174 0.0
N219 N 0.51503 0.17848 0.07149 0.0
C220 C 0.49048 0.1992 0.07469 0.0
C221 C 0.52619 0.22604 0.06654 0.0
C222 C 0.53757 0.1954 0.06638 0.0
C223 C 0.41169 0.29187 0.06396 0.0
O224 O 0.40695 0.30981 0.07084 0.0
H225 H 0.46794 0.19312 0.07891 0.0
H226 H 0.53832 0.24535 0.06304 0.0
O227 O 0.44918 0.26688 0.0852 0.0
H228 H 0.57821 0.33609 0.07815 0.0
H229 H 0.56073 0.18636 0.06279 0.0
Cu230 Cu 0.77094 0.9306 0.31647 0.0
N231 N 0.77067 0.90798 0.32685 0.0
N232 N 0.77264 0.89656 0.34108 0.0
C233 C 0.776 0.91918 0.33498 0.0
C234 C 0.76486 0.87019 0.33656 0.0
C235 C 0.76361 0.87732 0.32781 0.0
O236 O 0.81427 0.95736 0.31681 0.0
C237 C 0.71152 0.96873 0.3098 0.0
O238 O 0.73154 0.97329 0.30281 0.0
H239 H 0.7822 0.94345 0.33635 0.0
H240 H 0.75738 0.86138 0.32252 0.0
N241 N 0.77487 0.90209 0.30721 0.0
N242 N 0.7656 0.87516 0.29487 0.0
C243 C 0.75344 0.89844 0.30012 0.0
C244 C 0.80135 0.88044 0.30642 0.0
C245 C 0.79571 0.8638 0.29884 0.0
C246 C 0.83403 0.96268 0.31014 0.0
O247 O 0.82272 0.9531 0.30245 0.0
H248 H 0.72923 0.91224 0.29887 0.0
H249 H 0.82337 0.87717 0.31103 0.0
O250 O 0.72442 0.9528 0.31609 0.0
H251 H 0.75945 0.84746 0.33937 0.0
H252 H 0.81289 0.84517 0.29636 0.0
Cu253 Cu 0.08557 0.26285 0.57584 0.0
N254 N 0.05389 0.22892 0.57686 0.0
N255 N 0.03238 0.18004 0.57672 0.0
C256 C 0.06016 0.19911 0.57444 0.0
C257 C 1.00751 0.1987 0.58064 0.0
C258 C 0.02092 0.22883 0.58073 0.0
O259 O 0.11612 0.25668 0.56557 0.0
C260 C 0.12231 0.24423 0.59125 0.0
O261 O 0.11876 0.2161 0.58789 0.0
H262 H 0.08486 0.19151 0.57121 0.0
H263 H 1.00802 0.24914 0.58361 0.0
N264 N 0.05737 0.29839 0.57383 0.0
N265 N 0.0374 0.34777 0.57349 0.0
C266 C 0.06261 0.32783 0.57675 0.0
C267 C 0.0279 0.29971 0.5686 0.0
C268 C 1.01552 0.33009 0.56838 0.0
C269 C 0.14127 0.23636 0.56467 0.0
O270 O 0.15078 0.21905 0.57135 0.0
H271 H 0.08503 0.33459 0.58096 0.0
H272 H 1.01653 0.27994 0.56511 0.0
O273 O 0.11168 0.2678 0.58686 0.0
H274 H 0.98212 0.19098 0.58353 0.0
H275 H 0.99217 0.33849 0.56473 0.0
Cu276 Cu 0.75923 0.93293 0.45886 0.0
N277 N 0.75897 0.9105 0.44832 0.0
N278 N 0.76493 0.89849 0.43418 0.0
C279 C 0.7691 0.92077 0.44038 0.0
C280 C 0.75213 0.87316 0.43843 0.0
C281 C 0.74854 0.88061 0.44712 0.0
O282 O 0.71661 0.9605 0.45953 0.0
C283 C 0.83477 0.93871 0.4586 0.0
O284 O 0.83144 0.90907 0.45645 0.0
H285 H 0.7792 0.94417 0.43918 0.0
H286 H 0.73871 0.8653 0.4522 0.0
N287 N 0.75394 0.90511 0.46815 0.0
N288 N 0.76012 0.88193 0.48112 0.0
C289 C 0.77509 0.90188 0.47529 0.0
C290 C 0.72472 0.8867 0.46951 0.0
C291 C 0.72849 0.87228 0.47746 0.0
C292 C 0.69839 0.97024 0.45299 0.0
O293 O 0.71065 0.96481 0.44509 0.0
H294 H 0.80003 0.91496 0.47637 0.0
H295 H 0.70169 0.88468 0.46511 0.0
O296 O 0.8059 0.95461 0.46004 0.0
H297 H 0.74493 0.85103 0.43544 0.0
H298 H 0.70917 0.85624 0.48036 0.0
Cu299 Cu 0.07162 0.268 0.69844 0.0
N300 N 0.03873 0.30109 0.69848 0.0
N301 N 1.01703 0.34974 0.69944 0.0
C302 C 0.04524 0.33045 0.70124 0.0
C303 C 0.99181 0.33171 0.69541 0.0
C304 C 1.00534 0.30173 0.69481 0.0
O305 O 0.10659 0.27573 0.7078 0.0
C306 C 0.11877 0.25069 0.68404 0.0
O307 O 0.13427 0.23035 0.68928 0.0
H308 H 0.07094 0.33781 0.70408 0.0
H309 H 0.99233 0.28199 0.69165 0.0
N310 N 0.04544 0.23097 0.70025 0.0
N311 N 0.02789 0.18088 0.70027 0.0
C312 C 0.05448 0.20137 0.69808 0.0
C313 C 1.01219 0.22904 0.70395 0.0
C314 C 1.0013 0.19828 0.70398 0.0
C315 C 0.09678 0.27069 0.71564 0.0
O316 O 0.06443 0.2585 0.7171 0.0
H317 H 0.0797 0.19504 0.69487 0.0
H318 H 0.99699 0.2487 0.70653 0.0
O319 O 0.09334 0.2682 0.6869 0.0
H320 H 0.9658 0.33974 0.69291 0.0
H321 H 0.97602 0.18937 0.70665 0.0
Cu322 Cu 0.76275 0.59446 0.95816 0.0
N323 N 0.76034 0.61702 0.94777 0.0
N324 N 0.75931 0.62876 0.93357 0.0
C325 C 0.76592 0.6064 0.93959 0.0
C326 C 0.74937 0.65436 0.93818 0.0
C327 C 0.75002 0.64704 0.94691 0.0
O328 O 0.80622 0.56786 0.95761 0.0
C329 C 0.70506 0.55621 0.9655 0.0
O330 O 0.72615 0.55259 0.97236 0.0
H331 H 0.77361 0.58253 0.93809 0.0
H332 H 0.74291 0.66238 0.95227 0.0
N333 N 0.76785 0.6231 0.96737 0.0
N334 N 0.76197 0.64831 0.98012 0.0
C335 C 0.74786 0.62631 0.97471 0.0
C336 C 0.79511 0.64403 0.96811 0.0
C337 C 0.79164 0.65955 0.97594 0.0
C338 C 0.82643 0.56281 0.96423 0.0
O339 O 0.81571 0.57281 0.97192 0.0
H340 H 0.72409 0.61227 0.97618 0.0
H341 H 0.81647 0.6473 0.96332 0.0
O342 O 0.71673 0.5717 0.959 0.0
H343 H 0.7422 0.67685 0.93543 0.0
H344 H 0.80965 0.67767 0.97837 0.0
Cu345 Cu 0.46492 0.26413 0.19684 0.0
N346 N 0.49581 0.22985 0.19541 0.0
N347 N 0.51686 0.18082 0.19531 0.0
C348 C 0.49036 0.20034 0.19816 0.0
C349 C 0.53994 0.1989 0.19066 0.0
C350 C 0.52685 0.2291 0.19073 0.0
O351 O 0.4347 0.25729 0.2071 0.0
C352 C 0.42783 0.24694 0.18135 0.0
O353 O 0.43197 0.2185 0.18441 0.0
H354 H 0.46657 0.19311 0.20182 0.0
H355 H 0.53863 0.24904 0.18744 0.0
N356 N 0.49391 0.29918 0.19901 0.0
N357 N 0.51376 0.34852 0.2001 0.0
C358 C 0.48659 0.32947 0.19732 0.0
C359 C 0.52669 0.29903 0.20297 0.0
C360 C 0.53903 0.32934 0.20364 0.0
C361 C 0.40739 0.23896 0.20758 0.0
O362 O 0.39595 0.22444 0.20053 0.0
H363 H 0.46152 0.33733 0.19429 0.0
H364 H 0.54054 0.27825 0.20526 0.0
O365 O 0.43823 0.27015 0.18596 0.0
H366 H 0.56433 0.19085 0.18735 0.0
H367 H 0.56478 0.3366 0.20647 0.0
H368 H 0.88508 0.97239 0.29739 0.0
H369 H 0.94881 0.98825 0.29919 0.0
H370 H 0.93255 0.99744 0.32691 0.0
H371 H 0.86852 0.98168 0.32519 0.0
H372 H 0.97351 0.04717 0.31932 0.0
H373 H 0.02789 0.93077 0.3098 0.0
H374 H 0.99677 0.94756 0.30205 0.0
H375 H 0.98062 0.93695 0.3127 0.0
C376 C 0.89486 0.97802 0.30388 0.0
C377 C 0.87161 0.97555 0.31115 0.0
C378 C 0.93144 0.98689 0.30489 0.0
C379 C 0.94567 0.99344 0.3132 0.0
C380 C 0.92224 0.99225 0.32044 0.0
H381 H 0.17838 1.00453 0.32638 0.0
H382 H 0.11349 0.99036 0.32565 0.0
C383 C 0.8856 0.98328 0.31944 0.0
C384 C 0.98509 1.00113 0.31432 0.0
H385 H 0.07115 0.97192 0.31122 0.0
C386 C 0.99487 0.03069 0.31758 0.0
C387 C 1.01297 0.97944 0.31218 0.0
C388 C 1.00417 0.94678 0.30906 0.0
C389 C 0.03174 0.03945 0.31853 0.0
C390 C 0.05962 0.01819 0.31607 0.0
C391 C 0.04982 0.98832 0.31303 0.0
C392 C 0.09907 0.02667 0.31647 0.0
C393 C 0.04054 0.07131 0.32224 0.0
C394 C 0.11273 0.05141 0.31144 0.0
C395 C 0.14975 0.05951 0.31182 0.0
C396 C 0.1741 0.04296 0.31723 0.0
C397 C 0.16046 0.01783 0.32216 0.0
C398 C 0.12336 1.00969 0.32175 0.0
H399 H 1.01709 0.08123 0.32593 0.0
H400 H 0.06466 0.07024 0.32663 0.0
H401 H 0.04699 0.08753 0.31682 0.0
H402 H 0.09473 0.06443 0.30718 0.0
H403 H 0.15921 0.0789 0.3079 0.0
H404 H 0.97094 0.64465 0.58376 0.0
H405 H 0.97824 0.5891 0.58715 0.0
H406 H 0.0633 0.58183 0.56779 0.0
H407 H 0.05751 0.63735 0.5647 0.0
H408 H 0.96561 0.54153 0.57652 0.0
H409 H 0.10919 0.53382 0.58724 0.0
H410 H 0.08552 0.57073 0.58635 0.0
H411 H 0.10627 0.55296 0.57689 0.0
C412 C 0.99187 0.63146 0.58039 0.0
C413 C 1.01349 0.64557 0.57391 0.0
C414 C 0.99586 0.59961 0.5823 0.0
C415 C 0.02166 0.58129 0.57781 0.0
C416 C 0.04381 0.59552 0.5715 0.0
H417 H 1.01169 0.39068 0.56212 0.0
H418 H 1.00674 0.447 0.56437 0.0
C419 C 0.04002 0.62729 0.56963 0.0
C420 C 0.02322 0.54684 0.57906 0.0
H421 H 0.08269 0.4859 0.58154 0.0
C422 C 0.99112 0.52942 0.57777 0.0
C423 C 0.0563 0.53091 0.58086 0.0
C424 C 0.09114 0.54815 0.58301 0.0
C425 C 0.99161 0.49659 0.57773 0.0
C426 C 0.02528 0.4807 0.57876 0.0
C427 C 0.05698 0.49805 0.58058 0.0
C428 C 0.02845 0.44633 0.5775 0.0
C429 C 0.95601 0.4793 0.57649 0.0
C430 C 0.04364 0.42724 0.584 0.0
C431 C 0.04687 0.3949 0.58268 0.0
C432 C 0.03493 0.38111 0.57484 0.0
C433 C 1.02033 0.40042 0.56831 0.0
C434 C 1.01739 0.43266 0.56959 0.0
H435 H 0.93247 0.4935 0.5788 0.0
H436 H 0.95184 0.47452 0.56944 0.0
H437 H 0.95602 0.45667 0.58003 0.0
H438 H 0.05268 0.43732 0.59012 0.0
H439 H 0.0581 0.38063 0.58785 0.0
H440 H 0.67361 0.55498 0.82401 0.0
H441 H 0.60971 0.53787 0.82476 0.0
H442 H 0.60471 0.53487 0.79668 0.0
H443 H 0.66842 0.55139 0.79587 0.0
H444 H 0.54812 0.56715 0.8182 0.0
H445 H 0.56355 0.44997 0.80313 0.0
H446 H 0.60212 0.47247 0.80696 0.0
H447 H 0.58196 0.48068 0.79651 0.0
C448 C 0.65905 0.55029 0.81799 0.0
C449 C 0.67631 0.55439 0.80987 0.0
C450 C 0.62247 0.54062 0.81844 0.0
C451 C 0.60249 0.53464 0.81078 0.0
C452 C 0.61971 0.53864 0.80269 0.0
H453 H 0.38164 0.48723 0.796 0.0
H454 H 0.44525 0.50438 0.79683 0.0
C455 C 0.6562 0.54825 0.80223 0.0
C456 C 0.56328 0.52537 0.8112 0.0
H457 H 0.5027 0.46963 0.80433 0.0
C458 C 0.53822 0.54567 0.81525 0.0
C459 C 0.55031 0.49733 0.80735 0.0
C460 C 0.57593 0.4737 0.80332 0.0
C461 C 0.50049 0.5392 0.81529 0.0
C462 C 0.48751 0.5115 0.81127 0.0
C463 C 0.51263 0.49097 0.80735 0.0
C464 C 0.44796 0.50343 0.81091 0.0
C465 C 0.4747 0.5625 0.8194 0.0
C466 C 0.42812 0.49746 0.81856 0.0
C467 C 0.3916 0.48764 0.81812 0.0
C468 C 0.37424 0.48347 0.81 0.0
C469 C 0.39401 0.49022 0.80236 0.0
C470 C 0.43047 0.49996 0.80282 0.0
H471 H 0.48789 0.58564 0.82041 0.0
H472 H 0.44998 0.56571 0.81529 0.0
H473 H 0.46579 0.5536 0.82584 0.0
H474 H 0.44118 0.49949 0.82488 0.0
H475 H 0.37733 0.48249 0.82413 0.0
H476 H 0.48988 0.1464 0.08554 0.0
H477 H 0.4926 0.08969 0.08782 0.0
H478 H 0.54539 0.07831 0.06288 0.0
H479 H 0.54267 0.13461 0.06055 0.0
H480 H 0.46261 0.0421 0.07791 0.0
H481 H 0.61312 0.03007 0.07908 0.0
H482 H 0.59038 0.06741 0.0801 0.0
H483 H 0.59785 0.05027 0.06951 0.0
C484 C 0.502 0.13181 0.08054 0.0
C485 C 0.51637 0.14513 0.0729 0.0
C486 C 0.5037 0.09944 0.08187 0.0
C487 C 0.51992 0.07988 0.07561 0.0
C488 C 0.53374 0.09306 0.06792 0.0
H489 H 0.49075 0.88733 0.06298 0.0
H490 H 0.48877 0.944 0.06467 0.0
C491 C 0.53212 0.12531 0.0666 0.0
C492 C 0.52116 0.0455 0.07685 0.0
H493 H 0.57913 0.9829 0.07644 0.0
C494 C 0.48811 0.02917 0.07771 0.0
C495 C 0.55448 0.02868 0.07674 0.0
C496 C 0.59099 0.04503 0.0764 0.0
C497 C 0.48737 0.99635 0.07801 0.0
C498 C 0.52052 0.97947 0.07729 0.0
C499 C 0.5537 0.99585 0.07688 0.0
C500 C 0.52121 0.9449 0.07647 0.0
C501 C 0.45106 0.98006 0.07904 0.0
C502 C 0.541 0.92657 0.0824 0.0
C503 C 0.54228 0.894 0.08144 0.0
C504 C 0.52392 0.87921 0.07449 0.0
C505 C 0.50451 0.89779 0.06851 0.0
C506 C 0.5033 0.93025 0.06947 0.0
H507 H 0.43056 0.99557 0.0822 0.0
H508 H 0.44043 0.97353 0.0725 0.0
H509 H 0.45382 0.95841 0.08297 0.0
H510 H 0.55526 0.93745 0.08781 0.0
H511 H 0.55727 0.88041 0.08619 0.0
H512 H 0.13553 0.43979 0.94313 0.0
H513 H 0.07441 0.4618 0.94473 0.0
H514 H 0.10925 0.5116 0.96779 0.0
H515 H 0.17112 0.49037 0.96603 0.0
H516 H 0.02778 0.45236 0.95748 0.0
H517 H 0.05484 0.57974 0.95553 0.0
H518 H 0.08874 0.5509 0.95263 0.0
H519 H 0.08092 0.56077 0.96389 0.0
C520 C 0.1304 0.45584 0.94847 0.0
C521 C 0.15825 0.46339 0.95444 0.0
C522 C 0.09534 0.46837 0.94939 0.0
C523 C 0.08706 0.48862 0.95634 0.0
C524 C 0.11501 0.49666 0.96225 0.0
H525 H 0.8804 0.55867 0.97652 0.0
H526 H 0.94315 0.54021 0.97457 0.0
C527 C 0.15039 0.48441 0.96126 0.0
C528 C 0.04867 0.49952 0.95762 0.0
H529 H 0.99514 0.56461 0.96009 0.0
C530 C 0.02073 0.47694 0.95799 0.0
C531 C 0.03925 0.53161 0.9583 0.0
C532 C 0.06745 0.55717 0.95748 0.0
C533 C 0.98391 0.4855 0.95908 0.0
C534 C 0.97466 0.51746 0.95984 0.0
C535 C 1.00241 0.54009 0.95952 0.0
C536 C 0.93621 0.52778 0.961 0.0
C537 C 0.95506 0.46036 0.95952 0.0
C538 C 0.91143 0.52674 0.95401 0.0
C539 C 0.87547 0.53744 0.95508 0.0
C540 C 0.8636 0.5492 0.96318 0.0
C541 C 0.88846 0.54964 0.9702 0.0
C542 C 0.92443 0.53923 0.9691 0.0
H543 H 0.96711 0.43656 0.95997 0.0
H544 H 0.93703 0.4643 0.96525 0.0
H545 H 0.93776 0.46143 0.95359 0.0
H546 H 0.92008 0.51809 0.94769 0.0
H547 H 0.85714 0.53686 0.94953 0.0
H548 H 0.47963 0.38623 0.18839 0.0
H549 H 0.48346 0.44338 0.18753 0.0
H550 H 0.5552 0.44449 0.20984 0.0
H551 H 0.55138 0.38767 0.21078 0.0
H552 H 0.46463 0.48841 0.19986 0.0
H553 H 0.61208 0.49569 0.19196 0.0
H554 H 0.58648 0.45969 0.19111 0.0
H555 H 0.60299 0.47298 0.20154 0.0
C556 C 0.4961 0.39863 0.19313 0.0
C557 C 0.51546 0.38224 0.1996 0.0
C558 C 0.4984 0.43128 0.19261 0.0
C559 C 0.52022 0.44813 0.19851 0.0
C560 C 0.53901 0.43191 0.20507 0.0
H561 H 0.51346 0.64056 0.21459 0.0
H562 H 0.50761 0.58409 0.21279 0.0
C563 C 0.53677 0.39935 0.20559 0.0
C564 C 0.5226 0.48275 0.19804 0.0
H565 H 0.5834 0.54316 0.19662 0.0
C566 C 0.49054 0.5004 0.19907 0.0
C567 C 0.55634 0.49838 0.19687 0.0
C568 C 0.59139 0.48073 0.19522 0.0
C569 C 0.49151 0.53325 0.19931 0.0
C570 C 0.52553 0.54881 0.19863 0.0
C571 C 0.55739 0.5312 0.19725 0.0
C572 C 0.52879 0.58326 0.19962 0.0
C573 C 0.45609 0.55099 0.20028 0.0
C574 C 0.54361 0.60154 0.19291 0.0
C575 C 0.54705 0.63398 0.19392 0.0
C576 C 0.5359 0.64873 0.2017 0.0
C577 C 0.52158 0.63018 0.20845 0.0
C578 C 0.51818 0.59782 0.20743 0.0
H579 H 0.43233 0.53668 0.19816 0.0
H580 H 0.45204 0.55715 0.20725 0.0
H581 H 0.4565 0.57297 0.19645 0.0
H582 H 0.55219 0.59072 0.18685 0.0
H583 H 0.55793 0.6475 0.18857 0.0
H584 H 0.36116 0.05487 0.44721 0.0
H585 H 0.4251 0.03865 0.44585 0.0
H586 H 0.43297 0.0307 0.4738 0.0
H587 H 0.36907 0.04655 0.47523 0.0
H588 H 0.48599 0.06945 0.45299 0.0
H589 H 0.47643 0.94778 0.46533 0.0
H590 H 0.4368 0.96988 0.46199 0.0
H591 H 0.45722 0.97678 0.47248 0.0
C592 C 0.3763 0.04923 0.45307 0.0
C593 C 0.35986 0.05193 0.46133 0.0
C594 C 0.41292 0.04008 0.45228 0.0
C595 C 0.43377 0.03316 0.45972 0.0
C596 C 0.41728 0.03536 0.46796 0.0
H597 H 0.66091 0.97932 0.4683 0.0
H598 H 0.59758 0.99677 0.47006 0.0
C599 C 0.38072 0.04455 0.46876 0.0
C600 C 0.47318 0.02515 0.45889 0.0
H601 H 0.53606 0.96813 0.46321 0.0
C602 C 0.49693 0.04723 0.45519 0.0
C603 C 0.48748 0.99625 0.46181 0.0
C604 C 0.46317 0.97116 0.46556 0.0
C605 C 0.53462 0.04139 0.45443 0.0
C606 C 0.5489 0.01242 0.4573 0.0
C607 C 0.52516 0.99038 0.46104 0.0
C608 C 0.58816 1.00407 0.45628 0.0
C609 C 0.5589 0.06658 0.45072 0.0
C610 C 0.60407 1.00254 0.44797 0.0
C611 C 0.64029 0.9927 0.44694 0.0
C612 C 0.66138 0.98392 0.45421 0.0
C613 C 0.64559 0.98604 0.46256 0.0
C614 C 0.60931 0.99589 0.46358 0.0
H615 H 0.54598 0.09004 0.45122 0.0
H616 H 0.58569 0.06727 0.45412 0.0
H617 H 0.56389 0.06162 0.44372 0.0
H618 H 0.58814 1.0081 0.44222 0.0
H619 H 0.65141 0.99119 0.44041 0.0
H620 H 0.08656 0.14205 0.69978 0.0
H621 H 0.08558 0.08486 0.69851 0.0
H622 H 0.96792 0.08666 0.69705 0.0
H623 H 0.96871 0.14365 0.69812 0.0
H624 H 0.04993 0.044 0.71023 0.0
H625 H 0.99677 0.02959 0.67656 0.0
H626 H 1.01601 0.06592 0.68049 0.0
H627 H 0.96998 0.05527 0.68329 0.0
C628 C 0.06055 0.1303 0.69903 0.0
C629 C 0.02771 0.14741 0.69907 0.0
C630 C 0.06002 0.09764 0.69835 0.0
C631 C 0.0267 0.08159 0.69759 0.0
C632 C 0.99396 0.09862 0.69749 0.0
H633 H 0.95324 0.88937 0.69854 0.0
H634 H 0.95897 0.94632 0.69745 0.0
C635 C 0.99445 0.13119 0.69821 0.0
C636 C 0.02585 0.04694 0.69745 0.0
H637 H 0.99712 0.98404 0.68549 0.0
C638 C 0.03875 0.03083 0.70479 0.0
C639 C 1.01099 0.02992 0.69036 0.0
C640 C 0.99793 0.04599 0.68219 0.0
C641 C 0.03629 0.99813 0.70534 0.0
C642 C 0.02119 0.98109 0.69827 0.0
C643 C 1.00862 0.99718 0.69089 0.0
C644 C 1.01795 0.94654 0.69848 0.0
C645 C 0.04881 0.98223 0.71359 0.0
C646 C 0.04924 0.92778 0.69921 0.0
C647 C 0.04604 0.89531 0.69983 0.0
C648 C 1.01148 0.88089 0.69967 0.0
C649 C 0.98024 0.89969 0.69864 0.0
C650 C 0.98346 0.93224 0.69805 0.0
H651 H 0.05084 0.99894 0.71913 0.0
H652 H 0.02986 0.96307 0.71543 0.0
H653 H 0.07628 0.97193 0.71251 0.0
H654 H 0.07617 0.93829 0.69934 0.0
H655 H 0.07069 0.88149 0.70042 0.0
H656 H 0.66343 0.96375 0.32338 0.0
H657 H 0.59899 0.97855 0.3237 0.0
H658 H 0.60724 0.01331 0.29742 0.0
H659 H 0.67186 0.99822 0.29699 0.0
H660 H 0.56643 0.03705 0.32146 0.0
H661 H 0.51981 0.95332 0.29598 0.0
H662 H 0.56402 0.95034 0.30114 0.0
H663 H 0.55633 0.97893 0.29278 0.0
C664 C 0.65167 0.97459 0.31766 0.0
C665 C 0.67292 0.97965 0.31014 0.0
C666 C 0.61474 0.98304 0.31785 0.0
C667 C 0.59806 0.99655 0.31053 0.0
C668 C 0.61931 1.00231 0.30308 0.0
H669 H 0.3727 0.05934 0.30219 0.0
H670 H 0.43716 0.04519 0.30029 0.0
C671 C 0.65636 0.9939 0.30288 0.0
C672 C 0.55854 1.00483 0.31081 0.0
H673 H 0.47545 0.98801 0.30168 0.0
C674 C 0.54655 0.02633 0.31713 0.0
C675 C 0.53259 0.99092 0.30514 0.0
C676 C 0.54363 0.96689 0.29842 0.0
C677 C 0.50945 0.03435 0.31793 0.0
C678 C 0.48339 0.02 0.31238 0.0
C679 C 0.4954 0.9989 0.30596 0.0
C680 C 0.44355 0.02633 0.31327 0.0
C681 C 0.49856 0.05846 0.32466 0.0
C682 C 0.42533 0.01942 0.32109 0.0
C683 C 0.38855 0.02744 0.32219 0.0
C684 C 0.36903 0.04238 0.31548 0.0
C685 C 0.38686 0.0479 0.3075 0.0
C686 C 0.42375 0.03989 0.30641 0.0
H687 H 0.52212 0.07325 0.32665 0.0
H688 H 0.47654 0.07389 0.32215 0.0
H689 H 0.4882 0.04638 0.33055 0.0
H690 H 0.43978 1.00829 0.32641 0.0
H691 H 0.3757 0.02261 0.3284 0.0
H692 H 0.96282 0.88669 0.57108 0.0
H693 H 0.9658 0.94365 0.57171 0.0
H694 H 0.08305 0.93915 0.57412 0.0
H695 H 0.08038 0.88197 0.57365 0.0
H696 H 0.9963 0.98155 0.58533 0.0
H697 H 0.06522 0.99976 0.55345 0.0
H698 H 0.04291 0.96348 0.55627 0.0
H699 H 0.08718 0.97252 0.56067 0.0
C700 C 0.98926 0.89766 0.57183 0.0
C701 C 0.02139 0.87962 0.57233 0.0
C702 C 0.9909 0.93028 0.57213 0.0
C703 C 0.02465 0.94555 0.57285 0.0
C704 C 0.05678 0.92776 0.57339 0.0
H705 H 0.0898 0.13994 0.57606 0.0
H706 H 0.08729 0.08295 0.57508 0.0
C707 C 0.05519 0.89508 0.57312 0.0
C708 C 0.02603 0.98012 0.57323 0.0
H709 H 0.0568 0.04449 0.56236 0.0
C710 C 1.00941 0.99538 0.58031 0.0
C711 C 0.04323 0.99796 0.56666 0.0
C712 C 0.06043 0.98271 0.55878 0.0
C713 C 1.01002 0.0281 0.58106 0.0
C714 C 0.02705 0.04598 0.57447 0.0
C715 C 0.04372 0.0307 0.5674 0.0
C716 C 0.02825 0.0806 0.57484 0.0
C717 C 0.9932 0.04316 0.58902 0.0
C718 C 0.99587 0.0982 0.57486 0.0
C719 C 0.9972 0.13083 0.5754 0.0
C720 C 0.03097 0.14647 0.57585 0.0
C721 C 0.06335 0.12873 0.57563 0.0
C722 C 0.06198 0.09612 0.57511 0.0
H723 H 0.98997 0.0262 0.59444 0.0
H724 H 1.01005 0.0631 0.59135 0.0
H725 H 0.96568 0.05221 0.58732 0.0
H726 H 0.96955 0.0867 0.57444 0.0
H727 H 0.97182 0.14383 0.57541 0.0
H728 H 0.17645 0.50165 0.79743 0.0
H729 H 0.11182 0.51657 0.79827 0.0
H730 H 0.10581 0.4792 0.8243 0.0
H731 H 0.17021 0.46457 0.82358 0.0
H732 H 0.051 0.47771 0.80097 0.0
H733 H 0.06214 0.56649 0.82726 0.0
H734 H 0.1014 0.55218 0.82134 0.0
H735 H 0.08211 0.5295 0.83006 0.0
C736 C 0.16149 0.49692 0.80338 0.0
C737 C 0.17867 0.48206 0.81046 0.0
C738 C 0.12451 0.50536 0.80383 0.0
C739 C 0.10406 0.49937 0.81139 0.0
C740 C 0.12116 0.48463 0.81846 0.0
H741 H 0.88169 0.52158 0.8292 0.0
H742 H 0.94559 0.50707 0.82695 0.0
C743 C 0.15803 0.47616 0.81802 0.0
C744 C 0.06458 0.50757 0.81183 0.0
H745 H 1.00213 0.54911 0.8237 0.0
C746 C 0.04031 0.49354 0.80588 0.0
C747 C 0.05065 0.52822 0.81825 0.0
C748 C 0.07544 0.54522 0.82454 0.0
C749 C 1.00239 0.49882 0.80637 0.0
C750 C 0.98844 0.51904 0.81289 0.0
C751 C 1.01279 0.53343 0.81874 0.0
C752 C 0.94868 0.52552 0.81386 0.0
C753 C 0.97749 0.48198 0.80007 0.0
C754 C 0.92893 0.54042 0.8072 0.0
C755 C 0.89224 0.54871 0.80846 0.0
C756 C 0.87464 0.54243 0.81642 0.0
C757 C 0.89427 0.52675 0.82298 0.0
C758 C 0.93089 0.5185 0.82172 0.0
H759 H 0.99131 0.46172 0.79694 0.0
H760 H 0.95247 0.47354 0.80342 0.0
H761 H 0.969 0.4984 0.79486 0.0
H762 H 0.94221 0.54658 0.80114 0.0
H763 H 0.87806 0.56093 0.80328 0.0
H764 H 0.5469 0.64742 0.0601 0.0
H765 H 0.54722 0.59088 0.05741 0.0
H766 H 0.48713 0.57636 0.08125 0.0
H767 H 0.48636 0.63265 0.0839 0.0
H768 H 0.57759 0.54584 0.06709 0.0
H769 H 0.42926 0.52339 0.06448 0.0
H770 H 0.44821 0.56235 0.06409 0.0
H771 H 0.44026 0.54353 0.07441 0.0
C772 C 0.53356 0.63214 0.06473 0.0
C773 C 0.51643 0.64449 0.07219 0.0
C774 C 0.53365 0.5999 0.06317 0.0
C775 C 0.51662 0.57944 0.06905 0.0
C776 C 0.49947 0.59174 0.07649 0.0
H777 H 0.56296 0.38928 0.08144 0.0
H778 H 0.56219 0.44592 0.07954 0.0
C779 C 0.49911 0.62395 0.07801 0.0
C780 C 0.51876 0.54512 0.06774 0.0
H781 H 0.46707 0.47871 0.06767 0.0
C782 C 0.5534 0.53117 0.06708 0.0
C783 C 0.4872 0.52601 0.06757 0.0
C784 C 0.44915 0.53963 0.06758 0.0
C785 C 0.55739 0.49855 0.06669 0.0
C786 C 0.52594 0.4794 0.06719 0.0
C787 C 0.49123 0.49338 0.06741 0.0
C788 C 0.52838 0.44489 0.06795 0.0
C789 C 0.59528 0.485 0.06578 0.0
C790 C 0.50904 0.42546 0.06217 0.0
C791 C 0.50913 0.39303 0.06331 0.0
C792 C 0.52857 0.37946 0.07025 0.0
C793 C 0.54833 0.39896 0.07594 0.0
C794 C 0.54798 0.43136 0.07485 0.0
H795 H 0.61406 0.50175 0.06253 0.0
H796 H 0.6065 0.48007 0.07235 0.0
H797 H 0.59495 0.46286 0.06197 0.0
H798 H 0.49357 0.43542 0.05683 0.0
H799 H 0.49387 0.37856 0.05879 0.0
H800 H 0.37118 0.47607 0.95176 0.0
H801 H 0.43567 0.49131 0.95225 0.0
H802 H 0.42799 0.50539 0.98002 0.0
H803 H 0.36329 0.49043 0.97961 0.0
H804 H 0.46742 0.55223 0.96069 0.0
H805 H 0.51505 0.43916 0.97465 0.0
H806 H 0.47306 0.44221 0.9685 0.0
H807 H 0.47539 0.45765 0.97936 0.0
C808 C 0.38306 0.48264 0.95797 0.0
C809 C 0.362 0.48199 0.96565 0.0
C810 C 0.41994 0.49133 0.95823 0.0
C811 C 0.43662 0.49919 0.96617 0.0
C812 C 0.41563 0.49918 0.97383 0.0
H813 H 0.66501 0.53568 0.97948 0.0
H814 H 0.59991 0.52232 0.97978 0.0
C815 C 0.37861 0.49078 0.97357 0.0
C816 C 0.47612 0.50704 0.96644 0.0
H817 H 0.55971 0.4776 0.97202 0.0
C818 C 0.48766 0.53599 0.96317 0.0
C819 C 0.50232 0.48586 0.96974 0.0
C820 C 0.49113 0.45436 0.97324 0.0
C821 C 0.52481 0.54444 0.96315 0.0
C822 C 0.55129 0.5229 0.96624 0.0
C823 C 0.53956 0.49405 0.96961 0.0
C824 C 0.59123 0.52982 0.96598 0.0
C825 C 0.53513 0.57667 0.96001 0.0
C826 C 0.6084 0.5376 0.95809 0.0
C827 C 0.6455 0.54549 0.95792 0.0
C828 C 0.66651 0.54524 0.9656 0.0
C829 C 0.64967 0.53612 0.97344 0.0
C830 C 0.61241 0.52853 0.97363 0.0
H831 H 0.51179 0.5932 0.9605 0.0
H832 H 0.55842 0.58634 0.9638 0.0
H833 H 0.54325 0.57528 0.95305 0.0
H834 H 0.59303 0.5378 0.95206 0.0
H835 H 0.65764 0.55206 0.95175 0.0
H836 H 0.55332 0.88324 0.20903 0.0
H837 H 0.55003 0.94022 0.21035 0.0
H838 H 0.4859 0.94432 0.18678 0.0
H839 H 0.48892 0.8874 0.18545 0.0
H840 H 0.57606 0.98332 0.19908 0.0
H841 H 0.42684 0.99927 0.20307 0.0
H842 H 0.44877 0.96166 0.2042 0.0
H843 H 0.43815 0.97678 0.19355 0.0
C844 C 0.53841 0.89627 0.20415 0.0
C845 C 0.52134 0.88078 0.19714 0.0
C846 C 0.53643 0.92881 0.20493 0.0
C847 C 0.51727 0.94649 0.19874 0.0
C848 C 0.50001 0.9311 0.19176 0.0
H849 H 0.54783 0.13867 0.18434 0.0
H850 H 0.54888 0.08192 0.18593 0.0
C851 C 0.50182 0.89854 0.191 0.0
C852 C 0.51724 0.98114 0.19926 0.0
H853 H 0.46124 0.04503 0.19938 0.0
C854 C 0.55096 0.99681 0.19924 0.0
C855 C 0.4845 0.99872 0.1996 0.0
C856 C 0.44753 0.98325 0.2002 0.0
C857 C 0.55281 0.02959 0.19923 0.0
C858 C 0.52004 0.04715 0.19906 0.0
C859 C 0.48634 0.03152 0.1994 0.0
C860 C 0.52013 0.0817 0.19825 0.0
C861 C 0.58986 0.04508 0.19944 0.0
C862 C 0.50288 0.10043 0.20456 0.0
C863 C 0.5021 0.13297 0.20365 0.0
C864 C 0.51847 0.14736 0.19639 0.0
C865 C 0.53565 0.12845 0.19009 0.0
C866 C 0.53629 0.09597 0.19099 0.0
H867 H 0.61099 0.02932 0.20222 0.0
H868 H 0.59821 0.05094 0.19268 0.0
H869 H 0.58924 0.06704 0.20333 0.0
H870 H 0.49011 0.08986 0.2102 0.0
H871 H 0.48889 0.14686 0.20864 0.0
H872 H 0.8546 0.9948 0.46613 0.0
H873 H 0.91655 0.01609 0.46771 0.0
H874 H 0.9602 0.93573 0.45418 0.0
H875 H 0.89891 0.914 0.45284 0.0
H876 H 0.99985 0.94827 0.46821 0.0
H877 H 0.979 0.05806 0.44966 0.0
H878 H 0.9484 0.05372 0.45872 0.0
H879 H 0.94583 0.02686 0.44968 0.0
C880 C 0.87742 0.98181 0.46345 0.0
C881 C 0.87177 0.95273 0.45935 0.0
C882 C 0.91282 0.99407 0.46432 0.0
C883 C 0.94313 0.97775 0.46096 0.0
C884 C 0.93738 0.9488 0.45684 0.0
H885 H 0.15884 0.04929 0.44961 0.0
H886 H 0.09632 0.02932 0.44939 0.0
C887 C 0.9022 0.93642 0.45606 0.0
C888 C 0.98104 0.99015 0.46185 0.0
H889 H 0.03602 0.0521 0.45677 0.0
C890 C 1.00774 0.971 0.46571 0.0
C891 C 0.99152 0.01965 0.4585 0.0
C892 C 0.96481 0.04066 0.45383 0.0
C893 C 0.04451 0.98034 0.46626 0.0
C894 C 0.05484 1.01012 0.46308 0.0
C895 C 0.02811 0.02937 0.45927 0.0
C896 C 0.09341 0.02133 0.46331 0.0
C897 C 0.07207 0.9577 0.46996 0.0
C898 C 0.11283 0.02349 0.4712 0.0
C899 C 0.1489 0.03452 0.47133 0.0
C900 C 0.16607 0.04415 0.46358 0.0
C901 C 0.14651 0.04205 0.4557 0.0
C902 C 0.11066 0.03072 0.45557 0.0
H903 H 0.06185 0.93323 0.46976 0.0
H904 H 0.0983 0.95877 0.46634 0.0
H905 H 0.07748 0.96384 0.47688 0.0
H906 H 0.09992 0.01714 0.47729 0.0
H907 H 0.16299 0.03621 0.47752 0.0
H908 H 0.98143 0.39195 0.68942 0.0
H909 H 0.98273 0.44878 0.69093 0.0
H910 H 0.05151 0.44042 0.71365 0.0
H911 H 0.05054 0.38333 0.71214 0.0
H912 H 0.96122 0.48751 0.70425 0.0
H913 H 0.11035 0.49871 0.69809 0.0
H914 H 0.08565 0.46286 0.69612 0.0
H915 H 0.09837 0.47371 0.70704 0.0
C916 C 0.99648 0.40213 0.6948 0.0
C917 C 1.01604 0.38315 0.70064 0.0
C918 C 0.99733 0.43463 0.69563 0.0
C919 C 1.01768 0.44881 0.70232 0.0
C920 C 0.03633 0.42995 0.70833 0.0
H921 H 0.99535 0.65066 0.71202 0.0
H922 H 0.99716 0.59392 0.71421 0.0
C923 C 0.0357 0.39739 0.70746 0.0
C924 C 1.01955 0.48336 0.70284 0.0
H925 H 0.07809 0.54523 0.70117 0.0
C926 C 0.98677 0.50018 0.70363 0.0
C927 C 0.05293 0.49974 0.70195 0.0
C928 C 0.08883 0.48292 0.70067 0.0
C929 C 0.98635 0.53298 0.70339 0.0
C930 C 1.01975 0.54936 0.70253 0.0
C931 C 0.0526 0.53256 0.7019 0.0
C932 C 0.0209 0.58381 0.70159 0.0
C933 C 0.95001 0.5497 0.70367 0.0
C934 C 0.03494 0.59696 0.69392 0.0
C935 C 0.03423 0.62928 0.69269 0.0
C936 C 1.01939 0.64909 0.69911 0.0
C937 C 1.00637 0.63593 0.70691 0.0
C938 C 1.00734 0.60356 0.70816 0.0
H939 H 0.92685 0.53361 0.70231 0.0
H940 H 0.94591 0.55985 0.71026 0.0
H941 H 0.94923 0.56908 0.69887 0.0
H942 H 0.04556 0.58211 0.68877 0.0
H943 H 0.04411 0.63861 0.68659 0.0
H944 H 0.33466 0.14243 0.35078 0.0
H945 H 0.32841 0.14025 0.3666 0.0
H946 H 0.21939 0.10322 0.36375 0.0
H947 H 0.22577 0.10498 0.34783 0.0
H948 H 0.28113 0.17105 0.37673 0.0
H949 H 0.26247 0.04342 0.38135 0.0
H950 H 0.27784 0.05995 0.37118 0.0
H951 H 0.23009 0.06045 0.37396 0.0
C952 C 0.30933 0.13382 0.35351 0.0
C953 C 0.28063 0.12401 0.34804 0.0
C954 C 0.30585 0.13245 0.36256 0.0
C955 C 0.27359 0.12127 0.36639 0.0
C956 C 0.24488 0.11126 0.36096 0.0
H957 H 0.21229 0.1634 0.42002 0.0
H958 H 0.21637 0.15998 0.40415 0.0
C959 C 0.24848 0.11238 0.35187 0.0
C960 C 0.26969 0.12168 0.37605 0.0
H961 H 0.25266 0.07574 0.39379 0.0
C962 C 0.27497 0.15017 0.38046 0.0
C963 C 0.26212 0.09437 0.38093 0.0
C964 C 0.25815 0.06275 0.37664 0.0
C965 C 0.2727 0.15221 0.38958 0.0
C966 C 0.26394 0.12514 0.39444 0.0
C967 C 0.25899 0.09655 0.39005 0.0
C968 C 0.26028 0.12606 0.4041 0.0
C969 C 0.28058 0.18323 0.39392 0.0
C970 C 0.28268 0.10729 0.40937 0.0
C971 C 0.28021 0.10904 0.41847 0.0
C972 C 0.2553 0.12964 0.42247 0.0
C973 C 0.23232 0.14783 0.41716 0.0
C974 C 0.23462 0.1459 0.40807 0.0
H975 H 0.29673 0.19888 0.38962 0.0
H976 H 0.25439 0.19517 0.39542 0.0
H977 H 0.2958 0.17999 0.40012 0.0
H978 H 0.30259 0.09172 0.40644 0.0
H979 H 0.2984 0.09483 0.42237 0.0
H980 H 0.8904 0.70256 0.59919 0.0
H981 H 0.88243 0.70427 0.61505 0.0
H982 H 0.93177 0.79581 0.61586 0.0
H983 H 0.93982 0.79439 0.60005 0.0
H984 H 0.94197 0.71125 0.62702 0.0
H985 H 0.83916 0.80569 0.63117 0.0
H986 H 0.84578 0.78529 0.62095 0.0
H987 H 0.87722 0.81531 0.62428 0.0
C988 C 0.89904 0.72327 0.60272 0.0
C989 C 0.9158 0.74831 0.59834 0.0
C990 C 0.89449 0.72418 0.61179 0.0
C991 C 0.90613 0.75031 0.61662 0.0
C992 C 0.922 0.77566 0.61224 0.0
H993 H 0.93485 0.79546 0.67141 0.0
H994 H 0.92721 0.79708 0.65553 0.0
C995 C 0.92679 0.77469 0.6032 0.0
C996 C 0.9046 0.75 0.62629 0.0
H997 H 0.86934 0.78819 0.64401 0.0
C998 C 0.92581 0.72785 0.63074 0.0
C999 C 0.88386 0.77196 0.63112 0.0
C1000 C 0.85995 0.79579 0.62666 0.0
C1001 C 0.92752 0.72745 0.63988 0.0
C1002 C 0.90659 0.74928 0.64474 0.0
C1003 C 0.88524 0.7714 0.64029 0.0
C1004 C 0.90712 0.7496 0.65443 0.0
C1005 C 0.95273 0.70428 0.64423 0.0
C1006 C 0.89694 0.72287 0.65913 0.0
C1007 C 0.90156 0.72179 0.66817 0.0
C1008 C 0.91589 0.74763 0.67273 0.0
C1009 C 0.92377 0.77516 0.66809 0.0
C1010 C 0.91947 0.7761 0.65901 0.0
H1011 H 0.97397 0.69546 0.63967 0.0
H1012 H 0.96655 0.7149 0.64997 0.0
H1013 H 0.93658 0.6839 0.64649 0.0
H1014 H 0.8864 0.70245 0.65577 0.0
H1015 H 0.89479 0.70036 0.67156 0.0
H1016 H 0.30161 0.44429 0.85026 0.0
H1017 H 0.30155 0.44683 0.86622 0.0
H1018 H 0.25521 0.35422 0.8673 0.0
H1019 H 0.25474 0.35157 0.85141 0.0
H1020 H 0.24235 0.44052 0.87815 0.0
H1021 H 0.3466 0.34783 0.88285 0.0
H1022 H 0.33926 0.36677 0.87249 0.0
H1023 H 0.30899 0.33624 0.87604 0.0
C1024 C 0.29116 0.42453 0.85388 0.0
C1025 C 0.27848 0.39759 0.84951 0.0
C1026 C 0.29129 0.42599 0.863 0.0
C1027 C 0.27898 0.4005 0.86794 0.0
C1028 C 0.26564 0.37388 0.86362 0.0
H1029 H 0.25128 0.35116 0.92187 0.0
H1030 H 0.25325 0.35446 0.90599 0.0
C1031 C 0.26546 0.37239 0.85452 0.0
C1032 C 0.27971 0.40166 0.87762 0.0
H1033 H 0.31406 0.36425 0.89548 0.0
C1034 C 0.25826 0.42405 0.88196 0.0
C1035 C 0.30055 0.38019 0.88256 0.0
C1036 C 0.32544 0.35657 0.87826 0.0
C1037 C 0.25607 0.4248 0.89111 0.0
C1038 C 0.27638 0.4029 0.89604 0.0
C1039 C 0.29837 0.38093 0.89169 0.0
C1040 C 0.2745 0.40167 0.90571 0.0
C1041 C 0.23109 0.4483 0.89542 0.0
C1042 C 0.28599 0.42707 0.91086 0.0
C1043 C 0.28502 0.42521 0.91997 0.0
C1044 C 0.27282 0.3978 0.92412 0.0
C1045 C 0.26132 0.37246 0.91892 0.0
C1046 C 0.26224 0.37435 0.90983 0.0
H1047 H 0.2111 0.4583 0.89073 0.0
H1048 H 0.21587 0.43747 0.90089 0.0
H1049 H 0.24769 0.46782 0.89809 0.0
H1050 H 0.2963 0.44814 0.90782 0.0
H1051 H 0.29459 0.44499 0.92375 0.0
H1052 H 0.59887 0.73463 0.10182 0.0
H1053 H 0.60937 0.73556 0.11754 0.0
H1054 H 0.67151 0.82071 0.11496 0.0
H1055 H 0.66093 0.82014 0.09916 0.0
H1056 H 0.67545 0.73746 0.12771 0.0
H1057 H 0.58857 0.84313 0.13232 0.0
H1058 H 0.58795 0.82037 0.12238 0.0
H1059 H 0.6252 0.84659 0.12457 0.0
C1060 C 0.61503 0.75348 0.10456 0.0
C1061 C 0.62878 0.77749 0.09922 0.0
C1062 C 0.62108 0.7539 0.11356 0.0
C1063 C 0.64077 0.77841 0.11743 0.0
C1064 C 0.65577 0.80181 0.11211 0.0
H1065 H 0.65847 0.82566 0.17274 0.0
H1066 H 0.66824 0.82396 0.15698 0.0
C1067 C 0.64985 0.80135 0.10308 0.0
C1068 C 0.64401 0.77997 0.12708 0.0
H1069 H 0.61494 0.82128 0.14486 0.0
C1070 C 0.66245 0.75589 0.13147 0.0
C1071 C 0.62701 0.80402 0.13197 0.0
C1072 C 0.6058 0.82992 0.12761 0.0
C1073 C 0.66424 0.75516 0.14063 0.0
C1074 C 0.64641 0.77878 0.14553 0.0
C1075 C 0.62866 0.8032 0.14112 0.0
C1076 C 0.64431 0.77808 0.15522 0.0
C1077 C 0.68543 0.72922 0.14496 0.0
C1078 C 0.62798 0.7527 0.15952 0.0
C1079 C 0.62253 0.75351 0.16855 0.0
C1080 C 0.63289 0.77993 0.17346 0.0
C1081 C 0.65015 0.80494 0.16917 0.0
C1082 C 0.65572 0.80404 0.16015 0.0
H1083 H 0.70654 0.71937 0.14053 0.0
H1084 H 0.699 0.73755 0.15102 0.0
H1085 H 0.66639 0.71002 0.14669 0.0
H1086 H 0.61815 0.73271 0.15585 0.0
H1087 H 0.60893 0.73394 0.17162 0.0
H1088 H 0.84371 0.64023 0.85257 0.0
H1089 H 0.83751 0.63733 0.86839 0.0
H1090 H 0.72769 0.6022 0.86543 0.0
H1091 H 0.734 0.60469 0.84953 0.0
H1092 H 0.79114 0.6683 0.87867 0.0
H1093 H 0.76922 0.54087 0.88281 0.0
H1094 H 0.78493 0.55761 0.87269 0.0
H1095 H 0.7372 0.55874 0.87548 0.0
C1096 C 0.81822 0.63188 0.85527 0.0
C1097 C 0.78928 0.6228 0.84978 0.0
C1098 C 0.81477 0.63009 0.86433 0.0
C1099 C 0.7823 0.6192 0.86813 0.0
C1100 C 0.75334 0.60996 0.86267 0.0
H1101 H 0.7195 0.66054 0.92162 0.0
H1102 H 0.72459 0.65735 0.90577 0.0
C1103 C 0.75691 0.6115 0.85358 0.0
C1104 C 0.77839 0.6192 0.87779 0.0
H1105 H 0.75949 0.57283 0.89534 0.0
C1106 C 0.78432 0.64737 0.88231 0.0
C1107 C 0.76997 0.59183 0.88256 0.0
C1108 C 0.76531 0.56047 0.87816 0.0
C1109 C 0.78174 0.64905 0.89143 0.0
C1110 C 0.77201 0.62197 0.89619 0.0
C1111 C 0.76654 0.59366 0.89169 0.0
C1112 C 0.76766 0.62264 0.90583 0.0
C1113 C 0.79024 0.67974 0.8959 0.0
C1114 C 0.78917 0.60333 0.91116 0.0
C1115 C 0.78612 0.60496 0.92026 0.0
C1116 C 0.7615 0.62598 0.9242 0.0
C1117 C 0.73932 0.64465 0.91882 0.0
C1118 C 0.7422 0.64284 0.90974 0.0
H1119 H 0.80712 0.69518 0.8917 0.0
H1120 H 0.76431 0.69219 0.89733 0.0
H1121 H 0.80496 0.67595 0.90214 0.0
H1122 H 0.80889 0.58745 0.90829 0.0
H1123 H 0.80367 0.59035 0.92421 0.0
H1124 H 0.4328 0.29997 0.17138 0.0
H1125 H 0.42312 0.30416 0.15562 0.0
H1126 H 0.38884 0.20772 0.15467 0.0
H1127 H 0.39834 0.20329 0.17038 0.0
H1128 H 0.46251 0.26508 0.14375 0.0
H1129 H 0.31263 0.25297 0.1392 0.0
H1130 H 0.3329 0.26449 0.14947 0.0
H1131 H 0.33323 0.22415 0.14615 0.0
C1132 C 0.42237 0.27987 0.16786 0.0
C1133 C 0.41649 0.25125 0.17214 0.0
C1134 C 0.41693 0.28229 0.15885 0.0
C1135 C 0.40499 0.25633 0.15399 0.0
C1136 C 0.39747 0.22819 0.15831 0.0
H1137 H 0.39333 0.20535 0.09923 0.0
H1138 H 0.3862 0.20862 0.11511 0.0
C1139 C 0.40315 0.22567 0.1673 0.0
C1140 C 0.40445 0.25748 0.14432 0.0
H1141 H 0.34949 0.24842 0.12646 0.0
C1142 C 0.43775 0.2618 0.13996 0.0
C1143 C 0.37219 0.25269 0.13941 0.0
C1144 C 0.33561 0.24855 0.14377 0.0
C1145 C 0.43988 0.2608 0.13083 0.0
C1146 C 0.40759 0.25623 0.12589 0.0
C1147 C 0.37419 0.25203 0.13024 0.0
C1148 C 0.40831 0.25544 0.1162 0.0
C1149 C 0.47698 0.26354 0.1266 0.0
C1150 C 0.42185 0.28105 0.1115 0.0
C1151 C 0.42631 0.27913 0.10247 0.0
C1152 C 0.4167 0.25172 0.09791 0.0
C1153 C 0.40106 0.22676 0.10255 0.0
C1154 C 0.39698 0.22859 0.11163 0.0
H1155 H 0.49938 0.25803 0.13124 0.0
H1156 H 0.47933 0.24763 0.12088 0.0
H1157 H 0.481 0.28791 0.12432 0.0
H1158 H 0.42983 0.30232 0.11485 0.0
H1159 H 0.43794 0.29896 0.09908 0.0
H1160 H 0.78865 0.85108 0.3528 0.0
H1161 H 0.79027 0.85594 0.36865 0.0
H1162 H 0.76619 0.95438 0.36661 0.0
H1163 H 0.76315 0.94953 0.35074 0.0
H1164 H 0.834 0.89269 0.37937 0.0
H1165 H 0.68743 0.92379 0.38335 0.0
H1166 H 0.70559 0.90844 0.37327 0.0
H1167 H 0.71268 0.94878 0.37615 0.0
C1168 C 0.78329 0.87373 0.35569 0.0
C1169 C 0.77536 0.89983 0.35044 0.0
C1170 C 0.78453 0.87651 0.36477 0.0
C1171 C 0.77778 0.9054 0.36883 0.0
C1172 C 0.77079 0.93171 0.36363 0.0
H1173 H 0.75995 0.95126 0.42442 0.0
H1174 H 0.76632 0.9553 0.40856 0.0
C1175 C 0.76948 0.92895 0.35453 0.0
C1176 C 0.77795 0.90773 0.3785 0.0
H1177 H 0.7236 0.92341 0.39609 0.0
C1178 C 0.80989 0.89949 0.38303 0.0
C1179 C 0.7465 0.9167 0.38327 0.0
C1180 C 0.71098 0.92469 0.37879 0.0
C1181 C 0.81118 0.8998 0.39218 0.0
C1182 C 0.77953 0.90814 0.39694 0.0
C1183 C 0.74785 0.91708 0.39242 0.0
C1184 C 0.77804 0.90617 0.4066 0.0
C1185 C 0.84647 0.89132 0.39669 0.0
C1186 C 0.78248 0.87723 0.41076 0.0
C1187 C 0.77892 0.87486 0.41981 0.0
C1188 C 0.77072 0.90139 0.4249 0.0
C1189 C 0.76675 0.93046 0.42072 0.0
C1190 C 0.77016 0.93278 0.41165 0.0
H1191 H 0.87036 0.89427 0.3923 0.0
H1192 H 0.85073 0.90585 0.40262 0.0
H1193 H 0.84538 0.86642 0.39869 0.0
H1194 H 0.78795 0.85628 0.40699 0.0
H1195 H 0.78244 0.85219 0.42282 0.0
H1196 H 0.09783 0.29434 0.67208 0.0
H1197 H 0.10862 0.29377 0.65636 0.0
H1198 H 0.1719 0.20922 0.65891 0.0
H1199 H 0.16126 0.20953 0.67471 0.0
H1200 H 0.17764 0.29088 0.64622 0.0
H1201 H 0.0859 0.18816 0.64164 0.0
H1202 H 0.08517 0.2118 0.65142 0.0
H1203 H 0.12164 0.18447 0.64963 0.0
C1204 C 0.11434 0.27573 0.66933 0.0
C1205 C 0.12843 0.25181 0.67465 0.0
C1206 C 0.12057 0.27553 0.66034 0.0
C1207 C 0.14073 0.25131 0.65647 0.0
C1208 C 0.15597 0.22798 0.66178 0.0
H1209 H 0.15494 0.20054 0.60157 0.0
H1210 H 0.16525 0.20323 0.61729 0.0
C1211 C 0.14996 0.22826 0.6708 0.0
C1212 C 0.14389 0.24971 0.64684 0.0
H1213 H 0.11281 0.20933 0.6291 0.0
C1214 C 0.16371 0.27296 0.64246 0.0
C1215 C 0.12566 0.22632 0.64197 0.0
C1216 C 0.10314 0.20132 0.64636 0.0
C1217 C 0.16581 0.27339 0.6333 0.0
C1218 C 0.1468 0.25041 0.62841 0.0
C1219 C 0.12747 0.22691 0.63283 0.0
C1220 C 0.14529 0.25064 0.61871 0.0
C1221 C 0.1887 0.29824 0.62897 0.0
C1222 C 0.1313 0.27662 0.61421 0.0
C1223 C 0.12573 0.27526 0.60517 0.0
C1224 C 0.13345 0.24768 0.6005 0.0
C1225 C 0.14861 0.22211 0.60498 0.0
C1226 C 0.15449 0.22359 0.61397 0.0
H1227 H 0.21033 0.30711 0.63342 0.0
H1228 H 0.20182 0.28923 0.62294 0.0
H1229 H 0.17095 0.3183 0.6272 0.0
H1230 H 0.12314 0.2975 0.61772 0.0
H1231 H 0.1137 0.29527 0.60194 0.0
H1232 H 0.24006 0.18521 0.28057 0.0
H1233 H 0.25983 0.19925 0.26589 0.0
H1234 H 0.36257 0.15228 0.27021 0.0
H1235 H 0.34268 0.13781 0.2849 0.0
H1236 H 0.3161 0.23475 0.26073 0.0
H1237 H 0.33214 0.11536 0.24708 0.0
H1238 H 0.30935 0.12276 0.25731 0.0
H1239 H 0.35847 0.12152 0.2568 0.0
C1240 C 0.26688 0.17789 0.27841 0.0
C1241 C 0.28978 0.16034 0.28391 0.0
C1242 C 0.2781 0.18583 0.26999 0.0
C1243 C 0.31247 0.17645 0.26688 0.0
C1244 C 0.33554 0.1591 0.27237 0.0
H1245 H 0.42997 0.25932 0.22363 0.0
H1246 H 0.40557 0.24477 0.23786 0.0
C1247 C 0.3242 0.15091 0.28078 0.0
C1248 C 0.32451 0.18581 0.258 0.0
H1249 H 0.35622 0.15719 0.2386 0.0
C1250 C 0.3247 0.21776 0.25588 0.0
C1251 C 0.33519 0.16364 0.25161 0.0
C1252 C 0.33346 0.12889 0.25327 0.0
C1253 C 0.3359 0.22819 0.24763 0.0
C1254 C 0.34808 0.20613 0.24137 0.0
C1255 C 0.34722 0.17413 0.24342 0.0
C1256 C 0.36218 0.21572 0.23269 0.0
C1257 C 0.33398 0.26273 0.24565 0.0
C1258 C 0.34641 0.20377 0.22502 0.0
C1259 C 0.36056 0.21181 0.21685 0.0
C1260 C 0.39085 0.23193 0.21619 0.0
C1261 C 0.40641 0.24403 0.22388 0.0
C1262 C 0.39236 0.23584 0.23204 0.0
H1263 H 0.31411 0.27489 0.24997 0.0
H1264 H 0.36123 0.27338 0.24678 0.0
H1265 H 0.32605 0.2669 0.23877 0.0
H1266 H 0.3232 0.18809 0.22536 0.0
H1267 H 0.34799 0.20197 0.21106 0.0
H1268 H 0.71983 0.86616 0.49526 0.0
H1269 H 0.74229 0.85195 0.50969 0.0
H1270 H 0.85322 0.86519 0.50097 0.0
H1271 H 0.83079 0.87973 0.48647 0.0
H1272 H 0.78546 0.80388 0.51451 0.0
H1273 H 0.85206 0.91618 0.52326 0.0
H1274 H 0.82154 0.91237 0.51407 0.0
H1275 H 0.86833 0.89984 0.5132 0.0
C1276 C 0.74902 0.86597 0.49638 0.0
C1277 C 0.77354 0.87405 0.48969 0.0
C1278 C 0.76182 0.85796 0.50466 0.0
C1279 C 0.79941 0.85788 0.50647 0.0
C1280 C 0.82404 0.86581 0.4998 0.0
H1281 H 0.90708 0.76225 0.54903 0.0
H1282 H 0.87965 0.77749 0.53518 0.0
C1283 C 0.81122 0.87404 0.49151 0.0
C1284 C 0.81264 0.84851 0.51525 0.0
H1285 H 0.86379 0.87299 0.53262 0.0
C1286 C 0.80246 0.81906 0.51848 0.0
C1287 C 0.83434 0.86849 0.5205 0.0
C1288 C 0.84444 0.90111 0.51763 0.0
C1289 C 0.81392 0.80881 0.52674 0.0
C1290 C 0.83683 0.82828 0.53184 0.0
C1291 C 0.84644 0.85797 0.52868 0.0
C1292 C 0.85174 0.8181 0.54039 0.0
C1293 C 0.8009 0.77741 0.52996 0.0
C1294 C 0.84555 0.83602 0.54794 0.0
C1295 C 0.86147 0.82748 0.55589 0.0
C1296 C 0.88406 0.80092 0.55643 0.0
C1297 C 0.88962 0.78271 0.54888 0.0
C1298 C 0.8738 0.79132 0.54095 0.0
H1299 H 0.77542 0.76996 0.5266 0.0
H1300 H 0.82217 0.75956 0.5286 0.0
H1301 H 0.7958 0.77789 0.5371 0.0
H1302 H 0.82872 0.85685 0.54766 0.0
H1303 H 0.85673 0.84211 0.56156 0.0
H1304 H 0.09029 0.25279 0.73257 0.0
H1305 H 0.12265 0.27359 0.74523 0.0
H1306 H 0.18572 0.33387 0.72851 0.0
H1307 H 0.15395 0.31243 0.71571 0.0
H1308 H 0.22759 0.30866 0.74133 0.0
H1309 H 0.10176 0.35828 0.75579 0.0
H1310 H 0.09761 0.31708 0.75379 0.0
H1311 H 0.10336 0.34348 0.74476 0.0
C1312 C 0.11122 0.27033 0.73156 0.0
C1313 C 0.11933 0.28116 0.72314 0.0
C1314 C 0.1295 0.28238 0.73883 0.0
C1315 C 0.15586 0.30596 0.73786 0.0
C1316 C 0.16519 0.31592 0.72942 0.0
H1317 H 0.22758 0.41599 0.78306 0.0
H1318 H 0.20116 0.39957 0.76909 0.0
C1319 C 0.1471 0.3036 0.72211 0.0
C1320 C 0.1733 0.32021 0.74568 0.0
H1321 H 0.15367 0.35495 0.76522 0.0
C1322 C 0.21147 0.31903 0.74653 0.0
C1323 C 0.15237 0.33441 0.75238 0.0
C1324 C 0.11155 0.33873 0.7516 0.0
C1325 C 0.22914 0.33055 0.75402 0.0
C1326 C 0.20796 0.34286 0.76097 0.0
C1327 C 0.16992 0.3451 0.75997 0.0
C1328 C 0.22454 0.35304 0.76938 0.0
C1329 C 0.27034 0.32969 0.75437 0.0
C1330 C 0.2459 0.33223 0.77429 0.0
C1331 C 0.26113 0.34164 0.78224 0.0
C1332 C 0.25483 0.37189 0.78554 0.0
C1333 C 0.23273 0.39248 0.78073 0.0
C1334 C 0.21778 0.38316 0.77272 0.0
H1335 H 0.28237 0.32953 0.74772 0.0
H1336 H 0.28147 0.35005 0.75802 0.0
H1337 H 0.27922 0.30796 0.7577 0.0
H1338 H 0.25052 0.30855 0.77202 0.0
H1339 H 0.27743 0.32503 0.78587 0.0
H1340 H 0.69253 0.64521 0.98633 0.0
H1341 H 0.67132 0.66073 1.00087 0.0
H1342 H 0.78143 0.68612 1.00798 0.0
H1343 H 0.80272 0.67084 0.99351 0.0
H1344 H 0.69002 0.63916 1.01704 0.0
H1345 H 0.72554 0.76481 1.01433 0.0
H1346 H 0.72495 0.73884 1.00503 0.0
H1347 H 0.76354 0.73927 1.01231 0.0
C1348 C 0.71223 0.65402 0.991 0.0
C1349 C 0.74928 0.65708 0.9887 0.0
C1350 C 0.70006 0.66298 0.9993 0.0
C1351 C 0.72465 0.67519 1.00547 0.0
C1352 C 0.76175 0.67762 1.00326 0.0
H1353 H 0.68231 0.69055 0.06145 0.0
H1354 H 0.70657 0.67641 0.0471 0.0
C1355 C 0.77389 0.66884 0.99497 0.0
C1356 C 0.71168 0.68488 1.01427 0.0
H1357 H 0.70874 0.74676 0.02842 0.0
C1358 C 0.69402 0.66271 1.01952 0.0
C1359 C 0.71649 0.71572 1.01747 0.0
C1360 C 0.73333 0.74113 1.01197 0.0
C1361 C 0.68146 0.67041 0.02792 0.0
C1362 C 0.68741 0.70096 0.03124 0.0
C1363 C 0.70464 0.72323 0.02593 0.0
C1364 C 0.67461 0.71066 0.04005 0.0
C1365 C 0.66119 0.64592 0.03308 0.0
C1366 C 0.64984 0.73554 0.04093 0.0
C1367 C 0.63629 0.74395 0.04913 0.0
C1368 C 0.64725 0.72766 0.05666 0.0
C1369 C 0.6731 0.70347 0.0558 0.0
C1370 C 0.68677 0.69516 0.04758 0.0
H1371 H 0.65056 0.62692 0.02882 0.0
H1372 H 0.6801 0.63524 0.03789 0.0
H1373 H 0.63792 0.65642 0.0367 0.0
H1374 H 0.64025 0.748 0.03523 0.0
H1375 H 0.61648 0.76273 0.04953 0.0
H1376 H 0.41625 0.25988 0.04852 0.0
H1377 H 0.39093 0.275 0.0344 0.0
H1378 H 0.34036 0.35573 0.04624 0.0
H1379 H 0.36525 0.34061 0.06044 0.0
H1380 H 0.29486 0.32456 0.03434 0.0
H1381 H 0.4313 0.34804 1.02004 0.0
H1382 H 0.42664 0.30949 0.02452 0.0
H1383 H 0.42431 0.34307 0.0316 0.0
C1384 C 0.39949 0.28073 0.04815 0.0
C1385 C 0.39302 0.29916 0.05562 0.0
C1386 C 0.38525 0.28945 0.04006 0.0
C1387 C 0.36445 0.31686 0.03923 0.0
C1388 C 0.35662 0.33462 0.04672 0.0
H1389 H 0.31654 0.41284 0.99041 0.0
H1390 H 0.33891 0.39836 1.00489 0.0
C1391 C 0.37082 0.3259 0.05484 0.0
C1392 C 0.35138 0.32721 0.03054 0.0
H1393 H 0.38089 0.34832 1.01025 0.0
C1394 C 0.31364 0.32985 0.02908 0.0
C1395 C 0.37595 0.33464 0.02372 0.0
C1396 C 0.41682 0.33399 0.02504 0.0
C1397 C 0.29978 0.33897 1.02092 0.0
C1398 C 0.32434 0.34514 1.014 0.0
C1399 C 0.36209 0.34324 1.01553 0.0
C1400 C 0.31139 0.35357 1.00513 0.0
C1401 C 0.25899 0.34234 1.01983 0.0
C1402 C 0.28923 0.33289 1.00036 0.0
C1403 C 0.27651 0.34105 0.99207 0.0
C1404 C 0.2859 0.36999 0.98834 0.0
C1405 C 0.30898 0.39029 0.99304 0.0
C1406 C 0.32163 0.38212 1.00134 0.0
H1407 H 0.24501 0.34534 0.02621 0.0
H1408 H 0.25221 0.36264 1.01562 0.0
H1409 H 0.24796 0.3209 1.01669 0.0
H1410 H 0.2818 0.31036 1.00304 0.0
H1411 H 0.25943 0.32459 0.98858 0.0
H1412 H 0.72802 0.90987 0.28307 0.0
H1413 H 0.70434 0.89223 0.2689 0.0
H1414 H 0.74573 0.79953 0.27383 0.0
H1415 H 0.769 0.81682 0.28799 0.0
H1416 H 0.7473 0.86338 0.2548 0.0
H1417 H 0.63634 0.7865 0.26703 0.0
H1418 H 0.65687 0.81684 0.27363 0.0
H1419 H 0.68035 0.78042 0.27196 0.0
C1420 C 0.73166 0.88565 0.28118 0.0
C1421 C 0.7504 0.86475 0.28666 0.0
C1422 C 0.71834 0.87567 0.27306 0.0
C1423 C 0.72304 0.84452 0.27035 0.0
C1424 C 0.74147 0.82358 0.27584 0.0
H1425 H 0.66408 0.73077 0.22572 0.0
H1426 H 0.68827 0.75178 0.23941 0.0
C1427 C 0.75502 0.83358 0.2839 0.0
C1428 C 0.70956 0.83389 0.26171 0.0
H1429 H 0.65019 0.78301 0.25196 0.0
C1430 C 0.72589 0.84598 0.25416 0.0
C1431 C 0.68177 0.81109 0.26091 0.0
C1432 C 0.66252 0.79807 0.2688 0.0
C1433 C 0.71582 0.83524 0.24581 0.0
C1434 C 0.68811 0.81227 0.24501 0.0
C1435 C 0.67154 0.80048 0.25258 0.0
C1436 C 0.67578 0.80004 0.2364 0.0
C1437 C 0.73576 0.84788 0.23797 0.0
C1438 C 0.66089 0.82018 0.23011 0.0
C1439 C 0.64726 0.80825 0.22224 0.0
C1440 C 0.64784 0.77587 0.22054 0.0
C1441 C 0.66325 0.75582 0.2268 0.0
C1442 C 0.67702 0.76779 0.23465 0.0
H1443 H 0.76256 0.85823 0.2398 0.0
H1444 H 0.74043 0.82925 0.23303 0.0
H1445 H 0.71904 0.86654 0.23493 0.0
H1446 H 0.65886 0.84505 0.23138 0.0
H1447 H 0.63529 0.82436 0.21761 0.0
H1448 H 0.21754 0.11675 0.48958 0.0
H1449 H 0.19783 0.13188 0.50424 0.0
H1450 H 0.24784 0.22241 0.50096 0.0
H1451 H 0.26751 0.20753 0.4863 0.0
H1452 H 0.26588 0.19481 0.51665 0.0
H1453 H 0.11588 0.19171 0.5113 0.0
H1454 H 0.13909 0.15619 0.50836 0.0
H1455 H 0.14823 0.19153 0.50242 0.0
C1456 C 0.22386 0.14004 0.49191 0.0
C1457 C 0.24413 0.16091 0.48674 0.0
C1458 C 0.21258 0.14866 0.50031 0.0
C1459 C 0.22104 0.1784 0.50367 0.0
C1460 C 0.24103 0.19933 0.4985 0.0
H1461 H 0.12674 0.26713 0.54942 0.0
H1462 H 0.14788 0.2537 0.53477 0.0
C1463 C 0.25236 0.19073 0.49013 0.0
C1464 C 0.21008 0.18751 0.51266 0.0
H1465 H 0.13609 0.19832 0.5259 0.0
C1466 C 0.23749 0.19564 0.51867 0.0
C1467 C 0.17303 0.18892 0.51526 0.0
C1468 C 0.14229 0.18192 0.50899 0.0
C1469 C 0.22889 0.20481 0.52724 0.0
C1470 C 0.19189 0.20544 0.5299 0.0
C1471 C 0.16446 0.19763 0.52386 0.0
C1472 C 0.1809 0.21446 0.5389 0.0
C1473 C 0.25946 0.21433 0.5333 0.0
C1474 C 0.19259 0.19697 0.54612 0.0
C1475 C 0.18068 0.20467 0.55453 0.0
C1476 C 0.15658 0.22989 0.55588 0.0
C1477 C 0.14534 0.24761 0.54864 0.0
C1478 C 0.15731 0.23991 0.54024 0.0
H1479 H 0.28468 0.22051 0.52966 0.0
H1480 H 0.25134 0.23463 0.5374 0.0
H1481 H 0.26603 0.19451 0.53768 0.0
H1482 H 0.21024 0.17687 0.54523 0.0
H1483 H 0.18966 0.19037 0.55994 0.0
H1484 H 0.86712 0.68091 0.71326 0.0
H1485 H 0.84342 0.66787 0.72773 0.0
H1486 H 0.87784 0.75793 0.73741 0.0
H1487 H 0.90195 0.77117 0.72299 0.0
H1488 H 0.8904 0.67 0.74395 0.0
H1489 H 0.76691 0.74592 0.74519 0.0
H1490 H 0.78716 0.73323 0.73502 0.0
H1491 H 0.8087 0.76337 0.74136 0.0
C1492 C 0.86925 0.69815 0.71843 0.0
C1493 C 0.88644 0.72712 0.71696 0.0
C1494 C 0.85578 0.69059 0.7267 0.0
C1495 C 0.85872 0.71199 0.73361 0.0
C1496 C 0.87501 0.74121 0.73213 0.0
H1497 H 0.79764 0.71139 0.78824 0.0
H1498 H 0.81663 0.72477 0.77342 0.0
C1499 C 0.88883 0.7487 0.72389 0.0
C1500 C 0.84658 0.70311 0.74248 0.0
H1501 H 0.78243 0.71875 0.75805 0.0
C1502 C 0.8667 0.68051 0.74704 0.0
C1503 C 0.81588 0.7171 0.74649 0.0
C1504 C 0.79313 0.74115 0.74178 0.0
C1505 C 0.85734 0.67187 0.75558 0.0
C1506 C 0.8263 0.68558 0.75958 0.0
C1507 C 0.80614 0.70818 0.75499 0.0
C1508 C 0.81459 0.67719 0.76857 0.0
C1509 C 0.88153 0.6489 0.76032 0.0
C1510 C 0.80663 0.64604 0.77078 0.0
C1511 C 0.79604 0.63831 0.77927 0.0
C1512 C 0.79253 0.66166 0.7857 0.0
C1513 C 0.7998 0.6929 0.78343 0.0
C1514 C 0.81076 0.70056 0.77496 0.0
H1515 H 0.90934 0.64792 0.75742 0.0
H1516 H 0.8841 0.65508 0.76733 0.0
H1517 H 0.86944 0.62516 0.75981 0.0
H1518 H 0.80833 0.62769 0.76591 0.0
H1519 H 0.78998 0.61414 0.78077 0.0
loop_
_geom_bond_atom_site_label_1
_geom_bond_atom_site_label_2
_geom_bond_distance
_geom_bond_site_symmetry_2
_ccdc_geom_bond_type
Cu0 N1 1.999 . S
Cu0 O6 1.974 . S
Cu0 N11 1.985 . S
Cu0 O20 1.959 . S
N1 Cu0 1.999 . S
N1 C3 1.263 . S
N1 C5 1.389 . S
N2 C3 1.358 . S
N2 C4 1.400 . S
C3 N1 1.263 . S
C3 N2 1.358 . S
C3 H9 0.930 . S
C4 N2 1.400 . S
C4 C5 1.351 . S
C4 H21 0.930 . S
C5 N1 1.389 . S
C5 C4 1.351 . S
C5 H10 0.930 . S
O6 Cu0 1.974 . S
O6 C16 1.282 . S
C7 O8 1.261 . S
C7 O20 1.251 . S
O8 C7 1.261 . S
H9 C3 0.930 . S
H10 C5 0.930 . S
N11 Cu0 1.985 . S
N11 C13 1.335 . S
N11 C14 1.390 . S
N12 C13 1.345 . S
N12 C15 1.336 . S
C13 N11 1.335 . S
C13 N12 1.345 . S
C13 H18 0.930 . S
C14 N11 1.390 . S
C14 C15 1.346 . S
C14 H19 0.930 . S
C15 N12 1.336 . S
C15 C14 1.346 . S
C15 H22 0.929 . S
C16 O6 1.282 . S
C16 O17 1.216 . S
O17 C16 1.216 . S
H18 C13 0.930 . S
H19 C14 0.930 . S
O20 Cu0 1.959 . S
O20 C7 1.251 . S
H21 C4 0.930 . S
H22 C15 0.929 . S
Cu23 N24 1.999 . S
Cu23 O29 1.974 . S
Cu23 N34 1.985 . S
Cu23 O43 1.959 . S
N24 Cu23 1.999 . S
N24 C26 1.263 . S
N24 C28 1.389 . S
N25 C26 1.358 . S
N25 C27 1.400 . S
C26 N24 1.263 . S
C26 N25 1.358 . S
C26 H32 0.930 . S
C27 N25 1.400 . S
C27 C28 1.351 . S
C27 H44 0.930 . S
C28 N24 1.389 . S
C28 C27 1.351 . S
C28 H33 0.930 1_655 S
O29 Cu23 1.974 . S
O29 C39 1.282 . S
C30 O31 1.261 . S
C30 O43 1.251 . S
O31 C30 1.261 . S
H32 C26 0.930 . S
H33 C28 0.930 1_455 S
N34 Cu23 1.985 . S
N34 C36 1.335 . S
N34 C37 1.390 . S
N35 C36 1.345 . S
N35 C38 1.336 . S
C36 N34 1.335 . S
C36 N35 1.345 . S
C36 H41 0.930 . S
C37 N34 1.390 . S
C37 C38 1.346 . S
C37 H42 0.930 . S
C38 N35 1.336 . S
C38 C37 1.346 . S
C38 H45 0.929 . S
C39 O29 1.282 . S
C39 O40 1.216 . S
O40 C39 1.216 . S
H41 C36 0.930 . S
H42 C37 0.930 . S
O43 Cu23 1.959 . S
O43 C30 1.251 . S
H44 C27 0.930 . S
H45 C38 0.929 . S
Cu46 N47 1.999 . S
Cu46 O52 1.974 . S
Cu46 N57 1.985 . S
Cu46 O66 1.959 . S
N47 Cu46 1.999 . S
N47 C49 1.263 . S
N47 C51 1.389 . S
N48 C49 1.358 . S
N48 C50 1.400 . S
C49 N47 1.263 . S
C49 N48 1.358 . S
C49 H55 0.930 . S
C50 N48 1.400 . S
C50 C51 1.351 . S
C50 H67 0.930 . S
C51 N47 1.389 . S
C51 C50 1.351 . S
C51 H56 0.930 . S
O52 Cu46 1.974 . S
O52 C62 1.282 . S
C53 O54 1.261 . S
C53 O66 1.251 . S
O54 C53 1.261 . S
H55 C49 0.930 . S
H56 C51 0.930 . S
N57 Cu46 1.985 . S
N57 C59 1.335 . S
N57 C60 1.390 . S
N58 C59 1.345 . S
N58 C61 1.336 . S
C59 N57 1.335 . S
C59 N58 1.345 . S
C59 H64 0.930 . S
C60 N57 1.390 . S
C60 C61 1.346 . S
C60 H65 0.930 . S
C61 N58 1.336 . S
C61 C60 1.346 . S
C61 H68 0.929 . S
C62 O52 1.282 . S
C62 O63 1.216 . S
O63 C62 1.216 . S
H64 C59 0.930 . S
H65 C60 0.930 . S
O66 Cu46 1.959 . S
O66 C53 1.251 . S
H67 C50 0.930 . S
H68 C61 0.929 . S
Cu69 N70 1.999 . S
Cu69 O75 1.974 . S
Cu69 N80 1.985 . S
Cu69 O89 1.959 . S
N70 Cu69 1.999 . S
N70 C72 1.263 . S
N70 C74 1.389 . S
N71 C72 1.358 . S
N71 C73 1.400 . S
C72 N70 1.263 . S
C72 N71 1.358 . S
C72 H78 0.930 . S
C73 N71 1.400 . S
C73 C74 1.351 . S
C73 H90 0.930 . S
C74 N70 1.389 . S
C74 C73 1.351 . S
C74 H79 0.930 . S
O75 Cu69 1.974 . S
O75 C85 1.282 . S
C76 O77 1.261 . S
C76 O89 1.251 . S
O77 C76 1.261 . S
H78 C72 0.930 . S
H79 C74 0.930 . S
N80 Cu69 1.985 . S
N80 C82 1.335 . S
N80 C83 1.390 . S
N81 C82 1.345 . S
N81 C84 1.336 . S
C82 N80 1.335 . S
C82 N81 1.345 . S
C82 H87 0.930 . S
C83 N80 1.390 . S
C83 C84 1.346 . S
C83 H88 0.930 . S
C84 N81 1.336 . S
C84 C83 1.346 . S
C84 H91 0.929 . S
C85 O75 1.282 . S
C85 O86 1.216 . S
O86 C85 1.216 . S
H87 C82 0.930 . S
H88 C83 0.930 . S
O89 Cu69 1.959 . S
O89 C76 1.251 . S
H90 C73 0.930 . S
H91 C84 0.929 . S
Cu92 N93 1.999 . S
Cu92 O98 1.974 . S
Cu92 N103 1.985 . S
Cu92 O112 1.959 . S
N93 Cu92 1.999 . S
N93 C95 1.263 . S
N93 C97 1.389 . S
N94 C95 1.358 . S
N94 C96 1.400 . S
C95 N93 1.263 . S
C95 N94 1.358 . S
C95 H101 0.930 . S
C96 N94 1.400 . S
C96 C97 1.351 . S
C96 H113 0.930 . S
C97 N93 1.389 . S
C97 C96 1.351 . S
C97 H102 0.930 . S
O98 Cu92 1.974 . S
O98 C108 1.282 . S
C99 O100 1.261 . S
C99 O112 1.251 . S
O100 C99 1.261 . S
H101 C95 0.930 . S
H102 C97 0.930 . S
N103 Cu92 1.985 . S
N103 C105 1.335 . S
N103 C106 1.390 . S
N104 C105 1.345 . S
N104 C107 1.336 . S
C105 N103 1.335 . S
C105 N104 1.345 . S
C105 H110 0.930 . S
C106 N103 1.390 . S
C106 C107 1.346 . S
C106 H111 0.930 . S
C107 N104 1.336 . S
C107 C106 1.346 . S
C107 H114 0.929 . S
C108 O98 1.282 . S
C108 O109 1.216 . S
O109 C108 1.216 . S
H110 C105 0.930 . S
H111 C106 0.930 . S
O112 Cu92 1.959 . S
O112 C99 1.251 . S
H113 C96 0.930 . S
H114 C107 0.929 . S
Cu115 N116 1.999 . S
Cu115 O121 1.974 . S
Cu115 N126 1.985 . S
Cu115 O135 1.959 . S
N116 Cu115 1.999 . S
N116 C118 1.263 . S
N116 C120 1.389 . S
N117 C118 1.358 . S
N117 C119 1.400 . S
C118 N116 1.263 . S
C118 N117 1.358 . S
C118 H124 0.930 . S
C119 N117 1.400 . S
C119 C120 1.351 . S
C119 H136 0.930 . S
C120 N116 1.389 . S
C120 C119 1.351 . S
C120 H125 0.930 . S
O121 Cu115 1.974 . S
O121 C131 1.282 . S
C122 O123 1.261 . S
C122 O135 1.251 . S
O123 C122 1.261 . S
H124 C118 0.930 . S
H125 C120 0.930 . S
N126 Cu115 1.985 . S
N126 C128 1.335 . S
N126 C129 1.390 . S
N127 C128 1.345 . S
N127 C130 1.336 . S
C128 N126 1.335 . S
C128 N127 1.345 . S
C128 H133 0.930 . S
C129 N126 1.390 . S
C129 C130 1.346 . S
C129 H134 0.930 . S
C130 N127 1.336 . S
C130 C129 1.346 . S
C130 H137 0.929 . S
C131 O121 1.282 . S
C131 O132 1.216 . S
O132 C131 1.216 . S
H133 C128 0.930 . S
H134 C129 0.930 . S
O135 Cu115 1.959 . S
O135 C122 1.251 . S
H136 C119 0.930 . S
H137 C130 0.929 . S
Cu138 N139 1.999 . S
Cu138 O144 1.974 . S
Cu138 N149 1.985 . S
Cu138 O158 1.959 . S
N139 Cu138 1.999 . S
N139 C141 1.263 . S
N139 C143 1.389 . S
N140 C141 1.358 . S
N140 C142 1.400 . S
C141 N139 1.263 . S
C141 N140 1.358 . S
C141 H147 0.930 . S
C142 N140 1.400 . S
C142 C143 1.351 . S
C142 H159 0.930 . S
C143 N139 1.389 . S
C143 C142 1.351 . S
C143 H148 0.930 . S
O144 Cu138 1.974 . S
O144 C154 1.282 . S
C145 O146 1.261 . S
C145 O158 1.251 . S
O146 C145 1.261 . S
H147 C141 0.930 . S
H148 C143 0.930 . S
N149 Cu138 1.985 . S
N149 C151 1.335 . S
N149 C152 1.390 . S
N150 C151 1.345 . S
N150 C153 1.336 . S
C151 N149 1.335 . S
C151 N150 1.345 . S
C151 H156 0.930 . S
C152 N149 1.390 . S
C152 C153 1.346 . S
C152 H157 0.930 . S
C153 N150 1.336 . S
C153 C152 1.346 . S
C153 H160 0.929 . S
C154 O144 1.282 . S
C154 O155 1.216 . S
O155 C154 1.216 . S
H156 C151 0.930 . S
H157 C152 0.930 . S
O158 Cu138 1.959 . S
O158 C145 1.251 . S
H159 C142 0.930 . S
H160 C153 0.929 . S
Cu161 N162 1.999 . S
Cu161 O167 1.974 . S
Cu161 N172 1.985 . S
Cu161 O181 1.959 . S
N162 Cu161 1.999 . S
N162 C164 1.263 . S
N162 C166 1.389 . S
N163 C164 1.358 . S
N163 C165 1.400 . S
C164 N162 1.263 . S
C164 N163 1.358 . S
C164 H170 0.930 . S
C165 N163 1.400 . S
C165 C166 1.351 . S
C165 H182 0.930 . S
C166 N162 1.389 . S
C166 C165 1.351 . S
C166 H171 0.930 1_655 S
O167 Cu161 1.974 . S
O167 C177 1.282 . S
C168 O169 1.261 . S
C168 O181 1.251 . S
O169 C168 1.261 . S
H170 C164 0.930 . S
H171 C166 0.930 1_455 S
N172 Cu161 1.985 . S
N172 C174 1.335 . S
N172 C175 1.390 . S
N173 C174 1.345 . S
N173 C176 1.336 . S
C174 N172 1.335 . S
C174 N173 1.345 . S
C174 H179 0.930 . S
C175 N172 1.390 . S
C175 C176 1.346 . S
C175 H180 0.930 . S
C176 N173 1.336 . S
C176 C175 1.346 . S
C176 H183 0.929 . S
C177 O167 1.282 . S
C177 O178 1.216 . S
O178 C177 1.216 . S
H179 C174 0.930 . S
H180 C175 0.930 . S
O181 Cu161 1.959 . S
O181 C168 1.251 . S
H182 C165 0.930 . S
H183 C176 0.929 . S
Cu184 N185 1.999 . S
Cu184 O190 1.974 . S
Cu184 N195 1.985 . S
Cu184 O204 1.959 . S
N185 Cu184 1.999 . S
N185 C187 1.263 . S
N185 C189 1.389 . S
N186 C187 1.358 . S
N186 C188 1.400 . S
C187 N185 1.263 . S
C187 N186 1.358 . S
C187 H193 0.930 . S
C188 N186 1.400 . S
C188 C189 1.351 . S
C188 H205 0.930 . S
C189 N185 1.389 . S
C189 C188 1.351 . S
C189 H194 0.930 . S
O190 Cu184 1.974 . S
O190 C200 1.282 . S
C191 O192 1.261 . S
C191 O204 1.251 . S
O192 C191 1.261 . S
H193 C187 0.930 . S
H194 C189 0.930 . S
N195 Cu184 1.985 . S
N195 C197 1.335 . S
N195 C198 1.390 . S
N196 C197 1.345 . S
N196 C199 1.336 . S
C197 N195 1.335 . S
C197 N196 1.345 . S
C197 H202 0.930 . S
C198 N195 1.390 . S
C198 C199 1.346 . S
C198 H203 0.930 . S
C199 N196 1.336 . S
C199 C198 1.346 . S
C199 H206 0.929 . S
C200 O190 1.282 . S
C200 O201 1.216 . S
O201 C200 1.216 . S
H202 C197 0.930 . S
H203 C198 0.930 . S
O204 Cu184 1.959 . S
O204 C191 1.251 . S
H205 C188 0.930 . S
H206 C199 0.929 . S
Cu207 N208 1.999 . S
Cu207 O213 1.974 . S
Cu207 N218 1.985 . S
Cu207 O227 1.959 . S
N208 Cu207 1.999 . S
N208 C210 1.263 . S
N208 C212 1.389 . S
N209 C210 1.358 . S
N209 C211 1.400 . S
C210 N208 1.263 . S
C210 N209 1.358 . S
C210 H216 0.930 . S
C211 N209 1.400 . S
C211 C212 1.351 . S
C211 H228 0.930 . S
C212 N208 1.389 . S
C212 C211 1.351 . S
C212 H217 0.930 . S
O213 Cu207 1.974 . S
O213 C223 1.282 . S
C214 O215 1.261 . S
C214 O227 1.251 . S
O215 C214 1.261 . S
H216 C210 0.930 . S
H217 C212 0.930 . S
N218 Cu207 1.985 . S
N218 C220 1.335 . S
N218 C221 1.390 . S
N219 C220 1.345 . S
N219 C222 1.336 . S
C220 N218 1.335 . S
C220 N219 1.345 . S
C220 H225 0.930 . S
C221 N218 1.390 . S
C221 C222 1.346 . S
C221 H226 0.930 . S
C222 N219 1.336 . S
C222 C221 1.346 . S
C222 H229 0.929 . S
C223 O213 1.282 . S
C223 O224 1.216 . S
O224 C223 1.216 . S
H225 C220 0.930 . S
H226 C221 0.930 . S
O227 Cu207 1.959 . S
O227 C214 1.251 . S
H228 C211 0.930 . S
H229 C222 0.929 . S
Cu230 N231 1.999 . S
Cu230 O236 1.974 . S
Cu230 N241 1.985 . S
Cu230 O250 1.959 . S
N231 Cu230 1.999 . S
N231 C233 1.263 . S
N231 C235 1.389 . S
N232 C233 1.358 . S
N232 C234 1.400 . S
C233 N231 1.263 . S
C233 N232 1.358 . S
C233 H239 0.930 . S
C234 N232 1.400 . S
C234 C235 1.351 . S
C234 H251 0.930 . S
C235 N231 1.389 . S
C235 C234 1.351 . S
C235 H240 0.930 . S
O236 Cu230 1.974 . S
O236 C246 1.282 . S
C237 O238 1.261 . S
C237 O250 1.251 . S
O238 C237 1.261 . S
H239 C233 0.930 . S
H240 C235 0.930 . S
N241 Cu230 1.985 . S
N241 C243 1.335 . S
N241 C244 1.390 . S
N242 C243 1.345 . S
N242 C245 1.336 . S
C243 N241 1.335 . S
C243 N242 1.345 . S
C243 H248 0.930 . S
C244 N241 1.390 . S
C244 C245 1.346 . S
C244 H249 0.930 . S
C245 N242 1.336 . S
C245 C244 1.346 . S
C245 H252 0.929 . S
C246 O236 1.282 . S
C246 O247 1.216 . S
O247 C246 1.216 . S
H248 C243 0.930 . S
H249 C244 0.930 . S
O250 Cu230 1.959 . S
O250 C237 1.251 . S
H251 C234 0.930 . S
H252 C245 0.929 . S
Cu253 N254 1.999 . S
Cu253 O259 1.974 . S
Cu253 N264 1.985 . S
Cu253 O273 1.959 . S
N254 Cu253 1.999 . S
N254 C256 1.263 . S
N254 C258 1.389 . S
N255 C256 1.358 . S
N255 C257 1.400 . S
C256 N254 1.263 . S
C256 N255 1.358 . S
C256 H262 0.930 . S
C257 N255 1.400 . S
C257 C258 1.351 . S
C257 H274 0.930 . S
C258 N254 1.389 . S
C258 C257 1.351 . S
C258 H263 0.930 1_455 S
O259 Cu253 1.974 . S
O259 C269 1.282 . S
C260 O261 1.261 . S
C260 O273 1.251 . S
O261 C260 1.261 . S
H262 C256 0.930 . S
H263 C258 0.930 1_655 S
N264 Cu253 1.985 . S
N264 C266 1.335 . S
N264 C267 1.390 . S
N265 C266 1.345 . S
N265 C268 1.336 . S
C266 N264 1.335 . S
C266 N265 1.345 . S
C266 H271 0.930 . S
C267 N264 1.390 . S
C267 C268 1.346 . S
C267 H272 0.930 . S
C268 N265 1.336 . S
C268 C267 1.346 . S
C268 H275 0.929 . S
C269 O259 1.282 . S
C269 O270 1.216 . S
O270 C269 1.216 . S
H271 C266 0.930 . S
H272 C267 0.930 . S
O273 Cu253 1.959 . S
O273 C260 1.251 . S
H274 C257 0.930 . S
H275 C268 0.929 . S
Cu276 N277 1.999 . S
Cu276 O282 1.974 . S
Cu276 N287 1.985 . S
Cu276 O296 1.959 . S
N277 Cu276 1.999 . S
N277 C279 1.263 . S
N277 C281 1.389 . S
N278 C279 1.358 . S
N278 C280 1.400 . S
C279 N277 1.263 . S
C279 N278 1.358 . S
C279 H285 0.930 . S
C280 N278 1.400 . S
C280 C281 1.351 . S
C280 H297 0.930 . S
C281 N277 1.389 . S
C281 C280 1.351 . S
C281 H286 0.930 . S
O282 Cu276 1.974 . S
O282 C292 1.282 . S
C283 O284 1.261 . S
C283 O296 1.251 . S
O284 C283 1.261 . S
H285 C279 0.930 . S
H286 C281 0.930 . S
N287 Cu276 1.985 . S
N287 C289 1.335 . S
N287 C290 1.390 . S
N288 C289 1.345 . S
N288 C291 1.336 . S
C289 N287 1.335 . S
C289 N288 1.345 . S
C289 H294 0.930 . S
C290 N287 1.390 . S
C290 C291 1.346 . S
C290 H295 0.930 . S
C291 N288 1.336 . S
C291 C290 1.346 . S
C291 H298 0.929 . S
C292 O282 1.282 . S
C292 O293 1.216 . S
O293 C292 1.216 . S
H294 C289 0.930 . S
H295 C290 0.930 . S
O296 Cu276 1.959 . S
O296 C283 1.251 . S
H297 C280 0.930 . S
H298 C291 0.929 . S
Cu299 N300 1.999 . S
Cu299 O305 1.974 . S
Cu299 N310 1.985 . S
Cu299 O319 1.959 . S
N300 Cu299 1.999 . S
N300 C302 1.263 . S
N300 C304 1.389 . S
N301 C302 1.358 . S
N301 C303 1.400 . S
C302 N300 1.263 . S
C302 N301 1.358 . S
C302 H308 0.930 . S
C303 N301 1.400 . S
C303 C304 1.351 . S
C303 H320 0.930 . S
C304 N300 1.389 . S
C304 C303 1.351 . S
C304 H309 0.930 1_455 S
O305 Cu299 1.974 . S
O305 C315 1.282 . S
C306 O307 1.261 . S
C306 O319 1.251 . S
O307 C306 1.261 . S
H308 C302 0.930 . S
H309 C304 0.930 1_655 S
N310 Cu299 1.985 . S
N310 C312 1.335 . S
N310 C313 1.390 . S
N311 C312 1.345 . S
N311 C314 1.336 . S
C312 N310 1.335 . S
C312 N311 1.345 . S
C312 H317 0.930 . S
C313 N310 1.390 . S
C313 C314 1.346 . S
C313 H318 0.930 . S
C314 N311 1.336 . S
C314 C313 1.346 . S
C314 H321 0.929 . S
C315 O305 1.282 . S
C315 O316 1.216 . S
O316 C315 1.216 . S
H317 C312 0.930 . S
H318 C313 0.930 . S
O319 Cu299 1.959 . S
O319 C306 1.251 . S
H320 C303 0.930 . S
H321 C314 0.929 . S
Cu322 N323 1.999 . S
Cu322 O328 1.974 . S
Cu322 N333 1.985 . S
Cu322 O342 1.959 . S
N323 Cu322 1.999 . S
N323 C325 1.263 . S
N323 C327 1.389 . S
N324 C325 1.358 . S
N324 C326 1.400 . S
C325 N323 1.263 . S
C325 N324 1.358 . S
C325 H331 0.930 . S
C326 N324 1.400 . S
C326 C327 1.351 . S
C326 H343 0.930 . S
C327 N323 1.389 . S
C327 C326 1.351 . S
C327 H332 0.930 . S
O328 Cu322 1.974 . S
O328 C338 1.282 . S
C329 O330 1.261 . S
C329 O342 1.251 . S
O330 C329 1.261 . S
H331 C325 0.930 . S
H332 C327 0.930 . S
N333 Cu322 1.985 . S
N333 C335 1.335 . S
N333 C336 1.390 . S
N334 C335 1.345 . S
N334 C337 1.336 . S
C335 N333 1.335 . S
C335 N334 1.345 . S
C335 H340 0.930 . S
C336 N333 1.390 . S
C336 C337 1.346 . S
C336 H341 0.930 . S
C337 N334 1.336 . S
C337 C336 1.346 . S
C337 H344 0.929 . S
C338 O328 1.282 . S
C338 O339 1.216 . S
O339 C338 1.216 . S
H340 C335 0.930 . S
H341 C336 0.930 . S
O342 Cu322 1.959 . S
O342 C329 1.251 . S
H343 C326 0.930 . S
H344 C337 0.929 . S
Cu345 N346 1.999 . S
Cu345 O351 1.974 . S
Cu345 N356 1.985 . S
Cu345 O365 1.959 . S
N346 Cu345 1.999 . S
N346 C348 1.263 . S
N346 C350 1.389 . S
N347 C348 1.358 . S
N347 C349 1.400 . S
C348 N346 1.263 . S
C348 N347 1.358 . S
C348 H354 0.930 . S
C349 N347 1.400 . S
C349 C350 1.351 . S
C349 H366 0.930 . S
C350 N346 1.389 . S
C350 C349 1.351 . S
C350 H355 0.930 . S
O351 Cu345 1.974 . S
O351 C361 1.282 . S
C352 O353 1.261 . S
C352 O365 1.251 . S
O353 C352 1.261 . S
H354 C348 0.930 . S
H355 C350 0.930 . S
N356 Cu345 1.985 . S
N356 C358 1.335 . S
N356 C359 1.390 . S
N357 C358 1.345 . S
N357 C360 1.336 . S
C358 N356 1.335 . S
C358 N357 1.345 . S
C358 H363 0.930 . S
C359 N356 1.390 . S
C359 C360 1.346 . S
C359 H364 0.930 . S
C360 N357 1.336 . S
C360 C359 1.346 . S
C360 H367 0.929 . S
C361 O351 1.282 . S
C361 O362 1.216 . S
O362 C361 1.216 . S
H363 C358 0.930 . S
H364 C359 0.930 . S
O365 Cu345 1.959 . S
O365 C352 1.251 . S
H366 C349 0.930 . S
H367 C360 0.929 . S
H368 C376 0.929 . S
H369 C378 0.930 . S
H370 C380 0.930 . S
H371 C383 0.929 . S
H372 C386 0.930 . S
H373 C388 0.960 1_455 S
H374 C388 0.960 . S
H375 C388 0.960 . S
C376 H368 0.929 . S
C376 C377 1.377 . S
C376 C378 1.384 . S
C377 C376 1.377 . S
C377 C383 1.390 . S
C378 H369 0.930 . S
C378 C376 1.384 . S
C378 C379 1.372 . S
C379 C378 1.372 . S
C379 C380 1.400 . S
C379 C384 1.490 . S
C380 H370 0.930 . S
C380 C379 1.400 . S
C380 C383 1.386 . S
H381 C397 0.930 . S
H382 C398 0.931 . S
C383 H371 0.929 . S
C383 C377 1.390 . S
C383 C380 1.386 . S
C384 C379 1.490 . S
C384 C386 1.395 1_565 S
C384 C387 1.403 . S
H385 C391 0.930 . S
C386 H372 0.930 . S
C386 C384 1.395 1_545 S
C386 C389 1.403 1_655 S
C387 C384 1.403 . S
C387 C388 1.524 . S
C387 C391 1.400 1_655 S
C388 H373 0.960 1_655 S
C388 H374 0.960 . S
C388 H375 0.960 . S
C388 C387 1.524 . S
C389 C386 1.403 1_455 S
C389 C390 1.392 . S
C389 C393 1.495 . S
C390 C389 1.392 . S
C390 C391 1.385 1_545 S
C390 C392 1.478 . S
C391 H385 0.930 . S
C391 C387 1.400 1_455 S
C391 C390 1.385 1_565 S
C392 C390 1.478 . S
C392 C394 1.381 . S
C392 C398 1.383 . S
C393 C389 1.495 . S
C393 H399 0.959 1_455 S
C393 H400 0.961 . S
C393 H401 0.960 . S
C394 C392 1.381 . S
C394 C395 1.394 . S
C394 H402 0.930 . S
C395 C394 1.394 . S
C395 C396 1.383 . S
C395 H403 0.929 . S
C396 C395 1.383 . S
C396 C397 1.377 . S
C397 H381 0.930 . S
C397 C396 1.377 . S
C397 C398 1.379 . S
C398 H382 0.931 . S
C398 C392 1.383 . S
C398 C397 1.379 . S
H399 C393 0.959 1_655 S
H400 C393 0.961 . S
H401 C393 0.960 . S
H402 C394 0.930 . S
H403 C395 0.929 . S
H404 C412 0.929 . S
H405 C414 0.930 . S
H406 C416 0.930 1_455 S
H407 C419 0.929 1_455 S
H408 C422 0.930 . S
H409 C424 0.960 . S
H410 C424 0.960 . S
H411 C424 0.960 . S
C412 H404 0.929 . S
C412 C413 1.377 . S
C412 C414 1.384 . S
C413 C412 1.377 . S
C413 C419 1.390 . S
C414 H405 0.930 . S
C414 C412 1.384 . S
C414 C415 1.372 . S
C415 C414 1.372 . S
C415 C416 1.400 . S
C415 C420 1.490 . S
C416 H406 0.930 1_655 S
C416 C415 1.400 . S
C416 C419 1.386 . S
H417 C433 0.930 . S
H418 C434 0.931 . S
C419 H407 0.929 1_655 S
C419 C413 1.390 . S
C419 C416 1.386 . S
C420 C415 1.490 . S
C420 C422 1.395 . S
C420 C423 1.403 1_655 S
H421 C427 0.930 . S
C422 H408 0.930 . S
C422 C420 1.395 . S
C422 C425 1.403 . S
C423 C420 1.403 1_455 S
C423 C424 1.524 . S
C423 C427 1.400 . S
C424 H409 0.960 . S
C424 H410 0.960 . S
C424 H411 0.960 . S
C424 C423 1.524 . S
C425 C422 1.403 . S
C425 C426 1.392 1_655 S
C425 C429 1.495 . S
C426 C425 1.392 1_455 S
C426 C427 1.385 . S
C426 C428 1.478 . S
C427 H421 0.930 . S
C427 C423 1.400 . S
C427 C426 1.385 . S
C428 C426 1.478 . S
C428 C430 1.369 1_455 S
C428 C434 1.383 . S
C429 C425 1.495 . S
C429 H435 0.959 . S
C429 H436 0.961 . S
C429 H437 0.960 . S
C430 C428 1.369 1_655 S
C430 C431 1.385 1_655 S
C430 H438 0.953 . S
C431 C430 1.385 1_455 S
C431 C432 1.383 . S
C431 H439 0.940 . S
C432 C431 1.383 . S
C432 C433 1.377 . S
C433 H417 0.930 . S
C433 C432 1.377 . S
C433 C434 1.379 . S
C434 H418 0.931 . S
C434 C428 1.383 . S
C434 C433 1.379 . S
H435 C429 0.959 . S
H436 C429 0.961 . S
H437 C429 0.960 . S
H438 C430 0.953 . S
H439 C431 0.940 . S
H440 C448 0.929 . S
H441 C450 0.930 . S
H442 C452 0.930 . S
H443 C455 0.929 . S
H444 C458 0.930 . S
H445 C460 0.960 . S
H446 C460 0.960 . S
H447 C460 0.960 . S
C448 H440 0.929 . S
C448 C449 1.377 . S
C448 C450 1.384 . S
C449 C448 1.377 . S
C449 C455 1.390 . S
C450 H441 0.930 . S
C450 C448 1.384 . S
C450 C451 1.372 . S
C451 C450 1.372 . S
C451 C452 1.400 . S
C451 C456 1.490 . S
C452 H442 0.930 . S
C452 C451 1.400 . S
C452 C455 1.386 . S
H453 C469 0.930 . S
H454 C470 0.931 . S
C455 H443 0.929 . S
C455 C449 1.390 . S
C455 C452 1.386 . S
C456 C451 1.490 . S
C456 C458 1.395 . S
C456 C459 1.403 . S
H457 C463 0.930 . S
C458 H444 0.930 . S
C458 C456 1.395 . S
C458 C461 1.403 . S
C459 C456 1.403 . S
C459 C460 1.524 . S
C459 C463 1.400 . S
C460 H445 0.960 . S
C460 H446 0.960 . S
C460 H447 0.960 . S
C460 C459 1.524 . S
C461 C458 1.403 . S
C461 C462 1.392 . S
C461 C465 1.495 . S
C462 C461 1.392 . S
C462 C463 1.385 . S
C462 C464 1.478 . S
C463 H457 0.930 . S
C463 C459 1.400 . S
C463 C462 1.385 . S
C464 C462 1.478 . S
C464 C466 1.381 . S
C464 C470 1.383 . S
C465 C461 1.495 . S
C465 H471 0.959 . S
C465 H472 0.961 . S
C465 H473 0.960 . S
C466 C464 1.381 . S
C466 C467 1.394 . S
C466 H474 0.930 . S
C467 C466 1.394 . S
C467 C468 1.383 . S
C467 H475 0.929 . S
C468 C467 1.383 . S
C468 C469 1.377 . S
C469 H453 0.930 . S
C469 C468 1.377 . S
C469 C470 1.379 . S
C470 H454 0.931 . S
C470 C464 1.383 . S
C470 C469 1.379 . S
H471 C465 0.959 . S
H472 C465 0.961 . S
H473 C465 0.960 . S
H474 C466 0.930 . S
H475 C467 0.929 . S
H476 C484 0.929 . S
H477 C486 0.930 . S
H478 C488 0.930 . S
H479 C491 0.929 . S
H480 C494 0.930 . S
H481 C496 0.960 . S
H482 C496 0.960 . S
H483 C496 0.960 . S
C484 H476 0.929 . S
C484 C485 1.377 . S
C484 C486 1.384 . S
C485 C484 1.377 . S
C485 C491 1.390 . S
C486 H477 0.930 . S
C486 C484 1.384 . S
C486 C487 1.372 . S
C487 C486 1.372 . S
C487 C488 1.400 . S
C487 C492 1.490 . S
C488 H478 0.930 . S
C488 C487 1.400 . S
C488 C491 1.386 . S
H489 C505 0.930 . S
H490 C506 0.931 . S
C491 H479 0.929 . S
C491 C485 1.390 . S
C491 C488 1.386 . S
C492 C487 1.490 . S
C492 C494 1.395 . S
C492 C495 1.403 . S
H493 C499 0.930 . S
C494 H480 0.930 . S
C494 C492 1.395 . S
C494 C497 1.403 1_545 S
C495 C492 1.403 . S
C495 C496 1.524 . S
C495 C499 1.400 1_545 S
C496 H481 0.960 . S
C496 H482 0.960 . S
C496 H483 0.960 . S
C496 C495 1.524 . S
C497 C494 1.403 1_565 S
C497 C498 1.392 . S
C497 C501 1.495 . S
C498 C497 1.392 . S
C498 C499 1.385 . S
C498 C500 1.478 . S
C499 H493 0.930 . S
C499 C495 1.400 1_565 S
C499 C498 1.385 . S
C500 C498 1.478 . S
C500 C502 1.381 . S
C500 C506 1.383 . S
C501 C497 1.495 . S
C501 H507 0.959 . S
C501 H508 0.961 . S
C501 H509 0.960 . S
C502 C500 1.381 . S
C502 C503 1.394 . S
C502 H510 0.930 . S
C503 C502 1.394 . S
C503 C504 1.383 . S
C503 H511 0.929 . S
C504 C503 1.383 . S
C504 C505 1.377 . S
C505 H489 0.930 . S
C505 C504 1.377 . S
C505 C506 1.379 . S
C506 H490 0.931 . S
C506 C500 1.383 . S
C506 C505 1.379 . S
H507 C501 0.959 . S
H508 C501 0.961 . S
H509 C501 0.960 . S
H510 C502 0.930 . S
H511 C503 0.929 . S
H512 C520 0.929 . S
H513 C522 0.930 . S
H514 C524 0.930 . S
H515 C527 0.929 . S
H516 C530 0.930 . S
H517 C532 0.960 . S
H518 C532 0.960 . S
H519 C532 0.960 . S
C520 H512 0.929 . S
C520 C521 1.377 . S
C520 C522 1.384 . S
C521 C520 1.377 . S
C521 C527 1.390 . S
C522 H513 0.930 . S
C522 C520 1.384 . S
C522 C523 1.372 . S
C523 C522 1.372 . S
C523 C524 1.400 . S
C523 C528 1.490 . S
C524 H514 0.930 . S
C524 C523 1.400 . S
C524 C527 1.386 . S
H525 C541 0.930 . S
H526 C542 0.931 . S
C527 H515 0.929 . S
C527 C521 1.390 . S
C527 C524 1.386 . S
C528 C523 1.490 . S
C528 C530 1.395 . S
C528 C531 1.403 . S
H529 C535 0.930 . S
C530 H516 0.930 . S
C530 C528 1.395 . S
C530 C533 1.403 1_455 S
C531 C528 1.403 . S
C531 C532 1.524 . S
C531 C535 1.400 1_455 S
C532 H517 0.960 . S
C532 H518 0.960 . S
C532 H519 0.960 . S
C532 C531 1.524 . S
C533 C530 1.403 1_655 S
C533 C534 1.392 . S
C533 C537 1.495 . S
C534 C533 1.392 . S
C534 C535 1.385 . S
C534 C536 1.478 . S
C535 H529 0.930 . S
C535 C531 1.400 1_655 S
C535 C534 1.385 . S
C536 C534 1.478 . S
C536 C538 1.381 . S
C536 C542 1.383 . S
C537 C533 1.495 . S
C537 H543 0.959 . S
C537 H544 0.961 . S
C537 H545 0.960 . S
C538 C536 1.381 . S
C538 C539 1.394 . S
C538 H546 0.930 . S
C539 C538 1.394 . S
C539 C540 1.383 . S
C539 H547 0.929 . S
C540 C539 1.383 . S
C540 C541 1.377 . S
C541 H525 0.930 . S
C541 C540 1.377 . S
C541 C542 1.379 . S
C542 H526 0.931 . S
C542 C536 1.383 . S
C542 C541 1.379 . S
H543 C537 0.959 . S
H544 C537 0.961 . S
H545 C537 0.960 . S
H546 C538 0.930 . S
H547 C539 0.929 . S
H548 C556 0.929 . S
H549 C558 0.930 . S
H550 C560 0.930 . S
H551 C563 0.929 . S
H552 C566 0.930 . S
H553 C568 0.960 . S
H554 C568 0.960 . S
H555 C568 0.960 . S
C556 H548 0.929 . S
C556 C557 1.377 . S
C556 C558 1.384 . S
C557 C556 1.377 . S
C557 C563 1.390 . S
C558 H549 0.930 . S
C558 C556 1.384 . S
C558 C559 1.372 . S
C559 C558 1.372 . S
C559 C560 1.400 . S
C559 C564 1.490 . S
C560 H550 0.930 . S
C560 C559 1.400 . S
C560 C563 1.386 . S
H561 C577 0.930 . S
H562 C578 0.931 . S
C563 H551 0.929 . S
C563 C557 1.390 . S
C563 C560 1.386 . S
C564 C559 1.490 . S
C564 C566 1.395 . S
C564 C567 1.403 . S
H565 C571 0.930 . S
C566 H552 0.930 . S
C566 C564 1.395 . S
C566 C569 1.403 . S
C567 C564 1.403 . S
C567 C568 1.524 . S
C567 C571 1.400 . S
C568 H553 0.960 . S
C568 H554 0.960 . S
C568 H555 0.960 . S
C568 C567 1.524 . S
C569 C566 1.403 . S
C569 C570 1.392 . S
C569 C573 1.495 . S
C570 C569 1.392 . S
C570 C571 1.385 . S
C570 C572 1.478 . S
C571 H565 0.930 . S
C571 C567 1.400 . S
C571 C570 1.385 . S
C572 C570 1.478 . S
C572 C574 1.381 . S
C572 C578 1.383 . S
C573 C569 1.495 . S
C573 H579 0.959 . S
C573 H580 0.961 . S
C573 H581 0.960 . S
C574 C572 1.381 . S
C574 C575 1.394 . S
C574 H582 0.930 . S
C575 C574 1.394 . S
C575 C576 1.383 . S
C575 H583 0.929 . S
C576 C575 1.383 . S
C576 C577 1.377 . S
C577 H561 0.930 . S
C577 C576 1.377 . S
C577 C578 1.379 . S
C578 H562 0.931 . S
C578 C572 1.383 . S
C578 C577 1.379 . S
H579 C573 0.959 . S
H580 C573 0.961 . S
H581 C573 0.960 . S
H582 C574 0.930 . S
H583 C575 0.929 . S
H584 C592 0.929 . S
H585 C594 0.930 . S
H586 C596 0.930 . S
H587 C599 0.929 . S
H588 C602 0.930 . S
H589 C604 0.960 . S
H590 C604 0.960 . S
H591 C604 0.960 . S
C592 H584 0.929 . S
C592 C593 1.377 . S
C592 C594 1.384 . S
C593 C592 1.377 . S
C593 C599 1.390 . S
C594 H585 0.930 . S
C594 C592 1.384 . S
C594 C595 1.372 . S
C595 C594 1.372 . S
C595 C596 1.400 . S
C595 C600 1.490 . S
C596 H586 0.930 . S
C596 C595 1.400 . S
C596 C599 1.386 . S
H597 C613 0.930 . S
H598 C614 0.931 . S
C599 H587 0.929 . S
C599 C593 1.390 . S
C599 C596 1.386 . S
C600 C595 1.490 . S
C600 C602 1.395 . S
C600 C603 1.403 1_545 S
H601 C607 0.930 . S
C602 H588 0.930 . S
C602 C600 1.395 . S
C602 C605 1.403 . S
C603 C600 1.403 1_565 S
C603 C604 1.524 . S
C603 C607 1.400 . S
C604 H589 0.960 . S
C604 H590 0.960 . S
C604 H591 0.960 . S
C604 C603 1.524 . S
C605 C602 1.403 . S
C605 C606 1.392 1_545 S
C605 C609 1.495 . S
C606 C605 1.392 1_565 S
C606 C607 1.385 . S
C606 C608 1.478 . S
C607 H601 0.930 . S
C607 C603 1.400 . S
C607 C606 1.385 . S
C608 C606 1.478 . S
C608 C610 1.381 . S
C608 C614 1.383 . S
C609 C605 1.495 . S
C609 H615 0.959 . S
C609 H616 0.961 . S
C609 H617 0.960 . S
C610 C608 1.381 . S
C610 C611 1.394 . S
C610 H618 0.930 . S
C611 C610 1.394 . S
C611 C612 1.383 . S
C611 H619 0.929 . S
C612 C611 1.383 . S
C612 C613 1.377 . S
C613 H597 0.930 . S
C613 C612 1.377 . S
C613 C614 1.379 . S
C614 H598 0.931 . S
C614 C608 1.383 . S
C614 C613 1.379 . S
H615 C609 0.959 . S
H616 C609 0.961 . S
H617 C609 0.960 . S
H618 C610 0.930 . S
H619 C611 0.929 . S
H620 C628 0.929 . S
H621 C630 0.930 . S
H622 C632 0.930 . S
H623 C635 0.929 1_655 S
H624 C638 0.930 . S
H625 C640 0.960 . S
H626 C640 0.960 1_455 S
H627 C640 0.960 . S
C628 H620 0.929 . S
C628 C629 1.377 . S
C628 C630 1.384 . S
C629 C628 1.377 . S
C629 C635 1.390 . S
C630 H621 0.930 . S
C630 C628 1.384 . S
C630 C631 1.372 . S
C631 C630 1.372 . S
C631 C632 1.400 1_455 S
C631 C636 1.490 . S
C632 H622 0.930 . S
C632 C631 1.400 1_655 S
C632 C635 1.386 1_655 S
H633 C649 0.930 . S
H634 C650 0.931 . S
C635 H623 0.929 1_455 S
C635 C629 1.390 . S
C635 C632 1.386 1_455 S
C636 C631 1.490 . S
C636 C638 1.395 . S
C636 C639 1.403 1_455 S
H637 C643 0.930 . S
C638 H624 0.930 . S
C638 C636 1.395 . S
C638 C641 1.403 1_545 S
C639 C636 1.403 1_655 S
C639 C640 1.524 . S
C639 C643 1.400 1_545 S
C640 H625 0.960 . S
C640 H626 0.960 1_655 S
C640 H627 0.960 . S
C640 C639 1.524 . S
C641 C638 1.403 1_565 S
C641 C642 1.392 1_455 S
C641 C645 1.495 . S
C642 C641 1.392 1_655 S
C642 C643 1.385 . S
C642 C644 1.478 . S
C643 H637 0.930 . S
C643 C639 1.400 1_565 S
C643 C642 1.385 . S
C644 C642 1.478 . S
C644 C646 1.381 1_655 S
C644 C650 1.383 . S
C645 C641 1.495 . S
C645 H651 0.959 . S
C645 H652 0.961 . S
C645 H653 0.960 . S
C646 C644 1.381 1_455 S
C646 C647 1.394 1_455 S
C646 H654 0.930 . S
C647 C646 1.394 1_655 S
C647 C648 1.383 . S
C647 H655 0.929 1_655 S
C648 C647 1.383 . S
C648 C649 1.377 . S
C649 H633 0.930 . S
C649 C648 1.377 . S
C649 C650 1.379 . S
C650 H634 0.931 . S
C650 C644 1.383 . S
C650 C649 1.379 . S
H651 C645 0.959 . S
H652 C645 0.961 . S
H653 C645 0.960 . S
H654 C646 0.930 . S
H655 C647 0.929 1_455 S
H656 C664 0.929 . S
H657 C666 0.930 . S
H658 C668 0.930 1_545 S
H659 C671 0.929 . S
H660 C674 0.930 . S
H661 C676 0.960 1_545 S
H662 C676 0.960 . S
H663 C676 0.960 1_545 S
C664 H656 0.929 . S
C664 C665 1.377 . S
C664 C666 1.384 . S
C665 C664 1.377 . S
C665 C671 1.390 . S
C666 H657 0.930 . S
C666 C664 1.384 . S
C666 C667 1.372 . S
C667 C666 1.372 . S
C667 C668 1.400 . S
C667 C672 1.490 . S
C668 H658 0.930 1_565 S
C668 C667 1.400 . S
C668 C671 1.386 . S
H669 C685 0.930 . S
H670 C686 0.931 . S
C671 H659 0.929 . S
C671 C665 1.390 . S
C671 C668 1.386 . S
C672 C667 1.490 . S
C672 C674 1.395 . S
C672 C675 1.403 . S
H673 C679 0.930 . S
C674 H660 0.930 . S
C674 C672 1.395 . S
C674 C677 1.393 1_565 S
C675 C672 1.403 . S
C675 C676 1.524 . S
C675 C679 1.400 1_565 S
C676 H661 0.960 1_565 S
C676 H662 0.960 . S
C676 H663 0.960 1_565 S
C676 C675 1.524 . S
C677 C674 1.393 1_545 S
C677 C678 1.402 . S
C677 C681 1.497 . S
C678 C677 1.402 . S
C678 C679 1.385 . S
C678 C680 1.478 . S
C679 H673 0.930 . S
C679 C675 1.400 1_545 S
C679 C678 1.385 . S
C680 C678 1.478 . S
C680 C682 1.381 . S
C680 C686 1.383 . S
C681 C677 1.497 . S
C681 H687 0.959 1_545 S
C681 H688 0.961 . S
C681 H689 0.960 1_545 S
C682 C680 1.381 . S
C682 C683 1.394 . S
C682 H690 0.930 1_545 S
C683 C682 1.394 . S
C683 C684 1.383 . S
C683 H691 0.929 . S
C684 C683 1.383 . S
C684 C685 1.377 . S
C685 H669 0.930 . S
C685 C684 1.377 . S
C685 C686 1.379 . S
C686 H670 0.931 . S
C686 C680 1.383 . S
C686 C685 1.379 . S
H687 C681 0.959 1_565 S
H688 C681 0.961 . S
H689 C681 0.960 1_565 S
H690 C682 0.930 1_565 S
H691 C683 0.929 . S
H692 C700 0.929 . S
H693 C702 0.930 . S
H694 C704 0.907 1_455 S
H695 C707 0.929 1_455 S
H696 C710 0.930 . S
H697 C712 0.960 . S
H698 C712 0.960 1_655 S
H699 C712 0.960 . S
C700 H692 0.929 . S
C700 C701 1.377 . S
C700 C702 1.384 . S
C701 C700 1.377 . S
C701 C707 1.390 . S
C702 H693 0.930 . S
C702 C700 1.384 . S
C702 C703 1.372 . S
C703 C702 1.372 . S
C703 C704 1.415 . S
C703 C708 1.490 . S
C704 H694 0.907 1_655 S
C704 C703 1.415 . S
C704 C707 1.392 . S
H705 C721 0.930 . S
H706 C722 0.931 . S
C707 H695 0.929 1_655 S
C707 C701 1.390 . S
C707 C704 1.392 . S
C708 C703 1.490 . S
C708 C710 1.395 . S
C708 C711 1.390 1_655 S
H709 C715 0.930 . S
C710 H696 0.930 . S
C710 C708 1.395 . S
C710 C713 1.403 1_565 S
C711 C708 1.390 1_455 S
C711 C712 1.527 . S
C711 C715 1.410 1_565 S
C712 H697 0.960 . S
C712 H698 0.960 1_455 S
C712 H699 0.960 . S
C712 C711 1.527 . S
C713 C710 1.403 1_545 S
C713 C714 1.392 1_655 S
C713 C717 1.495 . S
C714 C713 1.392 1_455 S
C714 C715 1.385 . S
C714 C716 1.478 . S
C715 H709 0.930 . S
C715 C711 1.410 1_545 S
C715 C714 1.385 . S
C716 C714 1.478 . S
C716 C718 1.381 1_455 S
C716 C722 1.383 . S
C717 C713 1.495 . S
C717 H723 0.959 . S
C717 H724 0.961 1_655 S
C717 H725 0.960 . S
C718 C716 1.381 1_655 S
C718 C719 1.394 1_655 S
C718 H726 0.930 . S
C719 C718 1.394 1_455 S
C719 C720 1.383 . S
C719 H727 0.929 1_455 S
C720 C719 1.383 . S
C720 C721 1.377 . S
C721 H705 0.930 . S
C721 C720 1.377 . S
C721 C722 1.379 . S
C722 H706 0.931 . S
C722 C716 1.383 . S
C722 C721 1.379 . S
H723 C717 0.959 . S
H724 C717 0.961 1_455 S
H725 C717 0.960 . S
H726 C718 0.930 . S
H727 C719 0.929 1_655 S
H728 C736 0.929 . S
H729 C738 0.930 . S
H730 C740 0.930 . S
H731 C743 0.929 . S
H732 C746 0.930 . S
H733 C748 0.960 . S
H734 C748 0.960 . S
H735 C748 0.960 . S
C736 H728 0.929 . S
C736 C737 1.377 . S
C736 C738 1.384 . S
C737 C736 1.377 . S
C737 C743 1.390 . S
C738 H729 0.930 . S
C738 C736 1.384 . S
C738 C739 1.372 . S
C739 C738 1.372 . S
C739 C740 1.400 . S
C739 C744 1.490 . S
C740 H730 0.930 . S
C740 C739 1.400 . S
C740 C743 1.386 . S
H741 C757 0.930 . S
H742 C758 0.931 . S
C743 H731 0.929 . S
C743 C737 1.390 . S
C743 C740 1.386 . S
C744 C739 1.490 . S
C744 C746 1.395 . S
C744 C747 1.403 . S
H745 C751 0.930 . S
C746 H732 0.930 . S
C746 C744 1.395 . S
C746 C749 1.403 1_455 S
C747 C744 1.403 . S
C747 C748 1.524 . S
C747 C751 1.400 1_455 S
C748 H733 0.960 . S
C748 H734 0.960 . S
C748 H735 0.960 . S
C748 C747 1.524 . S
C749 C746 1.403 1_655 S
C749 C750 1.392 . S
C749 C753 1.495 . S
C750 C749 1.392 . S
C750 C751 1.385 . S
C750 C752 1.478 . S
C751 H745 0.930 . S
C751 C747 1.400 1_655 S
C751 C750 1.385 . S
C752 C750 1.478 . S
C752 C754 1.381 . S
C752 C758 1.383 . S
C753 C749 1.495 . S
C753 H759 0.959 . S
C753 H760 0.961 . S
C753 H761 0.960 . S
C754 C752 1.381 . S
C754 C755 1.394 . S
C754 H762 0.930 . S
C755 C754 1.394 . S
C755 C756 1.383 . S
C755 H763 0.929 . S
C756 C755 1.383 . S
C756 C757 1.377 . S
C757 H741 0.930 . S
C757 C756 1.377 . S
C757 C758 1.379 . S
C758 H742 0.931 . S
C758 C752 1.383 . S
C758 C757 1.379 . S
H759 C753 0.959 . S
H760 C753 0.961 . S
H761 C753 0.960 . S
H762 C754 0.930 . S
H763 C755 0.929 . S
H764 C772 0.929 . S
H765 C774 0.930 . S
H766 C776 0.930 . S
H767 C779 0.929 . S
H768 C782 0.930 . S
H769 C784 0.960 . S
H770 C784 0.960 . S
H771 C784 0.960 . S
C772 H764 0.929 . S
C772 C773 1.377 . S
C772 C774 1.384 . S
C773 C772 1.377 . S
C773 C779 1.390 . S
C774 H765 0.930 . S
C774 C772 1.384 . S
C774 C775 1.372 . S
C775 C774 1.372 . S
C775 C776 1.400 . S
C775 C780 1.490 . S
C776 H766 0.930 . S
C776 C775 1.400 . S
C776 C779 1.386 . S
H777 C793 0.930 . S
H778 C794 0.931 . S
C779 H767 0.929 . S
C779 C773 1.390 . S
C779 C776 1.386 . S
C780 C775 1.490 . S
C780 C782 1.395 . S
C780 C783 1.403 . S
H781 C787 0.930 . S
C782 H768 0.930 . S
C782 C780 1.395 . S
C782 C785 1.403 . S
C783 C780 1.403 . S
C783 C784 1.524 . S
C783 C787 1.400 . S
C784 H769 0.960 . S
C784 H770 0.960 . S
C784 H771 0.960 . S
C784 C783 1.524 . S
C785 C782 1.403 . S
C785 C786 1.392 . S
C785 C789 1.495 . S
C786 C785 1.392 . S
C786 C787 1.385 . S
C786 C788 1.478 . S
C787 H781 0.930 . S
C787 C783 1.400 . S
C787 C786 1.385 . S
C788 C786 1.478 . S
C788 C790 1.381 . S
C788 C794 1.383 . S
C789 C785 1.495 . S
C789 H795 0.959 . S
C789 H796 0.961 . S
C789 H797 0.960 . S
C790 C788 1.381 . S
C790 C791 1.394 . S
C790 H798 0.930 . S
C791 C790 1.394 . S
C791 C792 1.383 . S
C791 H799 0.929 . S
C792 C791 1.383 . S
C792 C793 1.377 . S
C793 H777 0.930 . S
C793 C792 1.377 . S
C793 C794 1.379 . S
C794 H778 0.931 . S
C794 C788 1.383 . S
C794 C793 1.379 . S
H795 C789 0.959 . S
H796 C789 0.961 . S
H797 C789 0.960 . S
H798 C790 0.930 . S
H799 C791 0.929 . S
H800 C808 0.929 . S
H801 C810 0.930 . S
H802 C812 0.930 . S
H803 C815 0.929 . S
H804 C818 0.930 . S
H805 C820 0.960 . S
H806 C820 0.960 . S
H807 C820 0.960 . S
C808 H800 0.929 . S
C808 C809 1.377 . S
C808 C810 1.384 . S
C809 C808 1.377 . S
C809 C815 1.390 . S
C810 H801 0.930 . S
C810 C808 1.384 . S
C810 C811 1.372 . S
C811 C810 1.372 . S
C811 C812 1.400 . S
C811 C816 1.490 . S
C812 H802 0.930 . S
C812 C811 1.400 . S
C812 C815 1.386 . S
H813 C829 0.930 . S
H814 C830 0.931 . S
C815 H803 0.929 . S
C815 C809 1.390 . S
C815 C812 1.386 . S
C816 C811 1.490 . S
C816 C818 1.395 . S
C816 C819 1.403 . S
H817 C823 0.930 . S
C818 H804 0.930 . S
C818 C816 1.395 . S
C818 C821 1.403 . S
C819 C816 1.403 . S
C819 C820 1.524 . S
C819 C823 1.400 . S
C820 H805 0.960 . S
C820 H806 0.960 . S
C820 H807 0.960 . S
C820 C819 1.524 . S
C821 C818 1.403 . S
C821 C822 1.392 . S
C821 C825 1.495 . S
C822 C821 1.392 . S
C822 C823 1.385 . S
C822 C824 1.478 . S
C823 H817 0.930 . S
C823 C819 1.400 . S
C823 C822 1.385 . S
C824 C822 1.478 . S
C824 C826 1.381 . S
C824 C830 1.383 . S
C825 C821 1.495 . S
C825 H831 0.959 . S
C825 H832 0.961 . S
C825 H833 0.960 . S
C826 C824 1.381 . S
C826 C827 1.394 . S
C826 H834 0.930 . S
C827 C826 1.394 . S
C827 C828 1.383 . S
C827 H835 0.929 . S
C828 C827 1.383 . S
C828 C829 1.377 . S
C829 H813 0.930 . S
C829 C828 1.377 . S
C829 C830 1.379 . S
C830 H814 0.931 . S
C830 C824 1.383 . S
C830 C829 1.379 . S
H831 C825 0.959 . S
H832 C825 0.961 . S
H833 C825 0.960 . S
H834 C826 0.930 . S
H835 C827 0.929 . S
H836 C844 0.929 . S
H837 C846 0.930 . S
H838 C848 0.930 . S
H839 C851 0.929 . S
H840 C854 0.930 . S
H841 C856 0.960 . S
H842 C856 0.960 . S
H843 C856 0.960 . S
C844 H836 0.929 . S
C844 C845 1.377 . S
C844 C846 1.384 . S
C845 C844 1.377 . S
C845 C851 1.390 . S
C846 H837 0.930 . S
C846 C844 1.384 . S
C846 C847 1.372 . S
C847 C846 1.372 . S
C847 C848 1.400 . S
C847 C852 1.490 . S
C848 H838 0.930 . S
C848 C847 1.400 . S
C848 C851 1.386 . S
H849 C865 0.930 . S
H850 C866 0.931 . S
C851 H839 0.929 . S
C851 C845 1.390 . S
C851 C848 1.386 . S
C852 C847 1.490 . S
C852 C854 1.395 . S
C852 C855 1.403 . S
H853 C859 0.930 . S
C854 H840 0.930 . S
C854 C852 1.395 . S
C854 C857 1.403 1_565 S
C855 C852 1.403 . S
C855 C856 1.524 . S
C855 C859 1.400 1_565 S
C856 H841 0.960 . S
C856 H842 0.960 . S
C856 H843 0.960 . S
C856 C855 1.524 . S
C857 C854 1.403 1_545 S
C857 C858 1.392 . S
C857 C861 1.495 . S
C858 C857 1.392 . S
C858 C859 1.385 . S
C858 C860 1.478 . S
C859 H853 0.930 . S
C859 C855 1.400 1_545 S
C859 C858 1.385 . S
C860 C858 1.478 . S
C860 C862 1.381 . S
C860 C866 1.383 . S
C861 C857 1.495 . S
C861 H867 0.959 . S
C861 H868 0.961 . S
C861 H869 0.960 . S
C862 C860 1.381 . S
C862 C863 1.394 . S
C862 H870 0.930 . S
C863 C862 1.394 . S
C863 C864 1.383 . S
C863 H871 0.929 . S
C864 C863 1.383 . S
C864 C865 1.377 . S
C865 H849 0.930 . S
C865 C864 1.377 . S
C865 C866 1.379 . S
C866 H850 0.931 . S
C866 C860 1.383 . S
C866 C865 1.379 . S
H867 C861 0.959 . S
H868 C861 0.961 . S
H869 C861 0.960 . S
H870 C862 0.930 . S
H871 C863 0.929 . S
H872 C880 0.929 . S
H873 C882 0.930 . S
H874 C884 0.930 . S
H875 C887 0.929 . S
H876 C890 0.930 . S
H877 C892 0.960 . S
H878 C892 0.960 . S
H879 C892 0.960 . S
C880 H872 0.929 . S
C880 C881 1.377 . S
C880 C882 1.384 . S
C881 C880 1.377 . S
C881 C887 1.390 . S
C882 H873 0.930 . S
C882 C880 1.384 . S
C882 C883 1.372 . S
C883 C882 1.372 . S
C883 C884 1.400 . S
C883 C888 1.490 . S
C884 H874 0.930 . S
C884 C883 1.400 . S
C884 C887 1.386 . S
H885 C901 0.930 . S
H886 C902 0.931 . S
C887 H875 0.929 . S
C887 C881 1.390 . S
C887 C884 1.386 . S
C888 C883 1.490 . S
C888 C890 1.395 . S
C888 C891 1.403 1_565 S
H889 C895 0.930 . S
C890 H876 0.930 . S
C890 C888 1.395 . S
C890 C893 1.403 1_655 S
C891 C888 1.403 1_545 S
C891 C892 1.524 . S
C891 C895 1.400 1_655 S
C892 H877 0.960 . S
C892 H878 0.960 . S
C892 H879 0.960 . S
C892 C891 1.524 . S
C893 C890 1.403 1_455 S
C893 C894 1.392 1_565 S
C893 C897 1.495 . S
C894 C893 1.392 1_545 S
C894 C895 1.385 . S
C894 C896 1.478 . S
C895 H889 0.930 . S
C895 C891 1.400 1_455 S
C895 C894 1.385 . S
C896 C894 1.478 . S
C896 C898 1.381 . S
C896 C902 1.383 . S
C897 C893 1.495 . S
C897 H903 0.959 . S
C897 H904 0.961 . S
C897 H905 0.960 . S
C898 C896 1.381 . S
C898 C899 1.394 . S
C898 H906 0.930 . S
C899 C898 1.394 . S
C899 C900 1.383 . S
C899 H907 0.929 . S
C900 C899 1.383 . S
C900 C901 1.377 . S
C901 H885 0.930 . S
C901 C900 1.377 . S
C901 C902 1.379 . S
C902 H886 0.931 . S
C902 C896 1.383 . S
C902 C901 1.379 . S
H903 C897 0.959 . S
H904 C897 0.961 . S
H905 C897 0.960 . S
H906 C898 0.930 . S
H907 C899 0.929 . S
H908 C916 0.929 . S
H909 C918 0.930 1_655 S
H910 C920 0.930 . S
H911 C923 0.929 . S
H912 C926 0.930 . S
H913 C928 0.960 . S
H914 C928 0.960 . S
H915 C928 0.960 . S
C916 H908 0.929 . S
C916 C917 1.377 . S
C916 C918 1.384 . S
C917 C916 1.377 . S
C917 C923 1.390 . S
C918 H909 0.930 1_455 S
C918 C916 1.384 . S
C918 C919 1.372 . S
C919 C918 1.372 . S
C919 C920 1.400 . S
C919 C924 1.490 . S
C920 H910 0.930 . S
C920 C919 1.400 . S
C920 C923 1.386 . S
H921 C937 0.930 . S
H922 C938 0.931 . S
C923 H911 0.929 . S
C923 C917 1.390 . S
C923 C920 1.386 . S
C924 C919 1.490 . S
C924 C926 1.395 1_455 S
C924 C927 1.403 . S
H925 C931 0.930 . S
C926 H912 0.930 . S
C926 C924 1.395 1_655 S
C926 C929 1.403 . S
C927 C924 1.403 . S
C927 C928 1.524 . S
C927 C931 1.400 . S
C928 H913 0.960 . S
C928 H914 0.960 . S
C928 H915 0.960 . S
C928 C927 1.524 . S
C929 C926 1.403 . S
C929 C930 1.392 . S
C929 C933 1.495 . S
C930 C929 1.392 . S
C930 C931 1.385 1_655 S
C930 C932 1.478 . S
C931 H925 0.930 . S
C931 C927 1.400 . S
C931 C930 1.385 1_455 S
C932 C930 1.478 . S
C932 C934 1.381 . S
C932 C938 1.383 . S
C933 C929 1.495 . S
C933 H939 0.959 . S
C933 H940 0.961 . S
C933 H941 0.960 . S
C934 C932 1.381 . S
C934 C935 1.394 . S
C934 H942 0.930 . S
C935 C934 1.394 . S
C935 C936 1.383 . S
C935 H943 0.929 . S
C936 C935 1.383 . S
C936 C937 1.377 . S
C937 H921 0.930 . S
C937 C936 1.377 . S
C937 C938 1.379 . S
C938 H922 0.931 . S
C938 C932 1.383 . S
C938 C937 1.379 . S
H939 C933 0.959 . S
H940 C933 0.961 . S
H941 C933 0.960 . S
H942 C934 0.930 . S
H943 C935 0.929 . S
H944 C952 0.929 . S
H945 C954 0.930 . S
H946 C956 0.930 . S
H947 C959 0.929 . S
H948 C962 0.930 . S
H949 C964 0.960 . S
H950 C964 0.960 . S
H951 C964 0.960 . S
C952 H944 0.929 . S
C952 C953 1.377 . S
C952 C954 1.384 . S
C953 C952 1.377 . S
C953 C959 1.390 . S
C954 H945 0.930 . S
C954 C952 1.384 . S
C954 C955 1.372 . S
C955 C954 1.372 . S
C955 C956 1.400 . S
C955 C960 1.490 . S
C956 H946 0.930 . S
C956 C955 1.400 . S
C956 C959 1.386 . S
H957 C973 0.930 . S
H958 C974 0.931 . S
C959 H947 0.929 . S
C959 C953 1.390 . S
C959 C956 1.386 . S
C960 C955 1.490 . S
C960 C962 1.395 . S
C960 C963 1.403 . S
H961 C967 0.930 . S
C962 H948 0.930 . S
C962 C960 1.395 . S
C962 C965 1.403 . S
C963 C960 1.403 . S
C963 C964 1.524 1_545 S
C963 C967 1.400 . S
C964 H949 0.960 . S
C964 H950 0.960 . S
C964 H951 0.960 . S
C964 C963 1.524 1_565 S
C965 C962 1.403 . S
C965 C966 1.392 . S
C965 C969 1.495 . S
C966 C965 1.392 . S
C966 C967 1.385 . S
C966 C968 1.478 . S
C967 H961 0.930 . S
C967 C963 1.400 . S
C967 C966 1.385 . S
C968 C966 1.478 . S
C968 C970 1.381 . S
C968 C974 1.383 . S
C969 C965 1.495 . S
C969 H975 0.959 . S
C969 H976 0.961 . S
C969 H977 0.960 . S
C970 C968 1.381 . S
C970 C971 1.394 . S
C970 H978 0.930 . S
C971 C970 1.394 . S
C971 C972 1.383 . S
C971 H979 0.929 . S
C972 C971 1.383 . S
C972 C973 1.377 . S
C973 H957 0.930 . S
C973 C972 1.377 . S
C973 C974 1.379 . S
C974 H958 0.931 . S
C974 C968 1.383 . S
C974 C973 1.379 . S
H975 C969 0.959 . S
H976 C969 0.961 . S
H977 C969 0.960 . S
H978 C970 0.930 . S
H979 C971 0.929 . S
H980 C988 0.929 . S
H981 C990 0.930 . S
H982 C992 0.930 . S
H983 C995 0.929 . S
H984 C998 0.930 . S
H985 C1000 0.960 . S
H986 C1000 0.960 . S
H987 C1000 0.960 . S
C988 H980 0.929 . S
C988 C989 1.377 . S
C988 C990 1.384 . S
C989 C988 1.377 . S
C989 C995 1.390 . S
C990 H981 0.930 . S
C990 C988 1.384 . S
C990 C991 1.372 . S
C991 C990 1.372 . S
C991 C992 1.400 . S
C991 C996 1.490 . S
C992 H982 0.930 . S
C992 C991 1.400 . S
C992 C995 1.386 . S
H993 C1009 0.930 . S
H994 C1010 0.931 . S
C995 H983 0.929 . S
C995 C989 1.390 . S
C995 C992 1.386 . S
C996 C991 1.490 . S
C996 C998 1.395 . S
C996 C999 1.403 . S
H997 C1003 0.930 . S
C998 H984 0.930 . S
C998 C996 1.395 . S
C998 C1001 1.403 . S
C999 C996 1.403 . S
C999 C1000 1.524 . S
C999 C1003 1.400 . S
C1000 H985 0.960 . S
C1000 H986 0.960 . S
C1000 H987 0.960 . S
C1000 C999 1.524 . S
C1001 C998 1.403 . S
C1001 C1002 1.392 . S
C1001 C1005 1.495 . S
C1002 C1001 1.392 . S
C1002 C1003 1.385 . S
C1002 C1004 1.478 . S
C1003 H997 0.930 . S
C1003 C999 1.400 . S
C1003 C1002 1.385 . S
C1004 C1002 1.478 . S
C1004 C1006 1.381 . S
C1004 C1010 1.383 . S
C1005 C1001 1.495 . S
C1005 H1011 0.959 . S
C1005 H1012 0.961 . S
C1005 H1013 0.960 . S
C1006 C1004 1.381 . S
C1006 C1007 1.394 . S
C1006 H1014 0.930 . S
C1007 C1006 1.394 . S
C1007 C1008 1.383 . S
C1007 H1015 0.929 . S
C1008 C1007 1.383 . S
C1008 C1009 1.377 . S
C1009 H993 0.930 . S
C1009 C1008 1.377 . S
C1009 C1010 1.379 . S
C1010 H994 0.931 . S
C1010 C1004 1.383 . S
C1010 C1009 1.379 . S
H1011 C1005 0.959 . S
H1012 C1005 0.961 . S
H1013 C1005 0.960 . S
H1014 C1006 0.930 . S
H1015 C1007 0.929 . S
H1016 C1024 0.929 . S
H1017 C1026 0.930 . S
H1018 C1028 0.930 . S
H1019 C1031 0.929 . S
H1020 C1034 0.930 . S
H1021 C1036 0.960 . S
H1022 C1036 0.960 . S
H1023 C1036 0.960 . S
C1024 H1016 0.929 . S
C1024 C1025 1.377 . S
C1024 C1026 1.384 . S
C1025 C1024 1.377 . S
C1025 C1031 1.390 . S
C1026 H1017 0.930 . S
C1026 C1024 1.384 . S
C1026 C1027 1.372 . S
C1027 C1026 1.372 . S
C1027 C1028 1.400 . S
C1027 C1032 1.490 . S
C1028 H1018 0.930 . S
C1028 C1027 1.400 . S
C1028 C1031 1.386 . S
H1029 C1045 0.930 . S
H1030 C1046 0.931 . S
C1031 H1019 0.929 . S
C1031 C1025 1.390 . S
C1031 C1028 1.386 . S
C1032 C1027 1.490 . S
C1032 C1034 1.395 . S
C1032 C1035 1.403 . S
H1033 C1039 0.930 . S
C1034 H1020 0.930 . S
C1034 C1032 1.395 . S
C1034 C1037 1.403 . S
C1035 C1032 1.403 . S
C1035 C1036 1.524 . S
C1035 C1039 1.400 . S
C1036 H1021 0.960 . S
C1036 H1022 0.960 . S
C1036 H1023 0.960 . S
C1036 C1035 1.524 . S
C1037 C1034 1.403 . S
C1037 C1038 1.392 . S
C1037 C1041 1.495 . S
C1038 C1037 1.392 . S
C1038 C1039 1.385 . S
C1038 C1040 1.478 . S
C1039 H1033 0.930 . S
C1039 C1035 1.400 . S
C1039 C1038 1.385 . S
C1040 C1038 1.478 . S
C1040 C1042 1.381 . S
C1040 C1046 1.383 . S
C1041 C1037 1.495 . S
C1041 H1047 0.959 . S
C1041 H1048 0.961 . S
C1041 H1049 0.960 . S
C1042 C1040 1.381 . S
C1042 C1043 1.394 . S
C1042 H1050 0.930 . S
C1043 C1042 1.394 . S
C1043 C1044 1.383 . S
C1043 H1051 0.929 . S
C1044 C1043 1.383 . S
C1044 C1045 1.377 . S
C1045 H1029 0.930 . S
C1045 C1044 1.377 . S
C1045 C1046 1.379 . S
C1046 H1030 0.931 . S
C1046 C1040 1.383 . S
C1046 C1045 1.379 . S
H1047 C1041 0.959 . S
H1048 C1041 0.961 . S
H1049 C1041 0.960 . S
H1050 C1042 0.930 . S
H1051 C1043 0.929 . S
H1052 C1060 0.929 . S
H1053 C1062 0.930 . S
H1054 C1064 0.930 . S
H1055 C1067 0.929 . S
H1056 C1070 0.930 . S
H1057 C1072 0.960 . S
H1058 C1072 0.960 . S
H1059 C1072 0.960 . S
C1060 H1052 0.929 . S
C1060 C1061 1.377 . S
C1060 C1062 1.384 . S
C1061 C1060 1.377 . S
C1061 C1067 1.390 . S
C1062 H1053 0.930 . S
C1062 C1060 1.384 . S
C1062 C1063 1.372 . S
C1063 C1062 1.372 . S
C1063 C1064 1.400 . S
C1063 C1068 1.490 . S
C1064 H1054 0.930 . S
C1064 C1063 1.400 . S
C1064 C1067 1.386 . S
H1065 C1081 0.930 . S
H1066 C1082 0.931 . S
C1067 H1055 0.929 . S
C1067 C1061 1.390 . S
C1067 C1064 1.386 . S
C1068 C1063 1.490 . S
C1068 C1070 1.395 . S
C1068 C1071 1.403 . S
H1069 C1075 0.930 . S
C1070 H1056 0.930 . S
C1070 C1068 1.395 . S
C1070 C1073 1.403 . S
C1071 C1068 1.403 . S
C1071 C1072 1.524 . S
C1071 C1075 1.400 . S
C1072 H1057 0.960 . S
C1072 H1058 0.960 . S
C1072 H1059 0.960 . S
C1072 C1071 1.524 . S
C1073 C1070 1.403 . S
C1073 C1074 1.392 . S
C1073 C1077 1.495 . S
C1074 C1073 1.392 . S
C1074 C1075 1.385 . S
C1074 C1076 1.478 . S
C1075 H1069 0.930 . S
C1075 C1071 1.400 . S
C1075 C1074 1.385 . S
C1076 C1074 1.478 . S
C1076 C1078 1.381 . S
C1076 C1082 1.383 . S
C1077 C1073 1.495 . S
C1077 H1083 0.959 . S
C1077 H1084 0.961 . S
C1077 H1085 0.960 . S
C1078 C1076 1.381 . S
C1078 C1079 1.394 . S
C1078 H1086 0.930 . S
C1079 C1078 1.394 . S
C1079 C1080 1.383 . S
C1079 H1087 0.929 . S
C1080 C1079 1.383 . S
C1080 C1081 1.377 . S
C1081 H1065 0.930 . S
C1081 C1080 1.377 . S
C1081 C1082 1.379 . S
C1082 H1066 0.931 . S
C1082 C1076 1.383 . S
C1082 C1081 1.379 . S
H1083 C1077 0.959 . S
H1084 C1077 0.961 . S
H1085 C1077 0.960 . S
H1086 C1078 0.930 . S
H1087 C1079 0.929 . S
H1088 C1096 0.929 . S
H1089 C1098 0.930 . S
H1090 C1100 0.930 . S
H1091 C1103 0.929 . S
H1092 C1106 0.930 . S
H1093 C1108 0.960 . S
H1094 C1108 0.960 . S
H1095 C1108 0.960 . S
C1096 H1088 0.929 . S
C1096 C1097 1.377 . S
C1096 C1098 1.384 . S
C1097 C1096 1.377 . S
C1097 C1103 1.390 . S
C1098 H1089 0.930 . S
C1098 C1096 1.384 . S
C1098 C1099 1.372 . S
C1099 C1098 1.372 . S
C1099 C1100 1.400 . S
C1099 C1104 1.490 . S
C1100 H1090 0.930 . S
C1100 C1099 1.400 . S
C1100 C1103 1.386 . S
H1101 C1117 0.930 . S
H1102 C1118 0.931 . S
C1103 H1091 0.929 . S
C1103 C1097 1.390 . S
C1103 C1100 1.386 . S
C1104 C1099 1.490 . S
C1104 C1106 1.395 . S
C1104 C1107 1.403 . S
H1105 C1111 0.930 . S
C1106 H1092 0.930 . S
C1106 C1104 1.395 . S
C1106 C1109 1.403 . S
C1107 C1104 1.403 . S
C1107 C1108 1.524 . S
C1107 C1111 1.400 . S
C1108 H1093 0.960 . S
C1108 H1094 0.960 . S
C1108 H1095 0.960 . S
C1108 C1107 1.524 . S
C1109 C1106 1.403 . S
C1109 C1110 1.392 . S
C1109 C1113 1.495 . S
C1110 C1109 1.392 . S
C1110 C1111 1.385 . S
C1110 C1112 1.478 . S
C1111 H1105 0.930 . S
C1111 C1107 1.400 . S
C1111 C1110 1.385 . S
C1112 C1110 1.478 . S
C1112 C1114 1.381 . S
C1112 C1118 1.383 . S
C1113 C1109 1.495 . S
C1113 H1119 0.959 . S
C1113 H1120 0.961 . S
C1113 H1121 0.960 . S
C1114 C1112 1.381 . S
C1114 C1115 1.394 . S
C1114 H1122 0.930 . S
C1115 C1114 1.394 . S
C1115 C1116 1.383 . S
C1115 H1123 0.929 . S
C1116 C1115 1.383 . S
C1116 C1117 1.377 . S
C1117 H1101 0.930 . S
C1117 C1116 1.377 . S
C1117 C1118 1.379 . S
C1118 H1102 0.931 . S
C1118 C1112 1.383 . S
C1118 C1117 1.379 . S
H1119 C1113 0.959 . S
H1120 C1113 0.961 . S
H1121 C1113 0.960 . S
H1122 C1114 0.930 . S
H1123 C1115 0.929 . S
H1124 C1132 0.929 . S
H1125 C1134 0.930 . S
H1126 C1136 0.930 . S
H1127 C1139 0.929 . S
H1128 C1142 0.930 . S
H1129 C1144 0.960 . S
H1130 C1144 0.960 . S
H1131 C1144 0.960 . S
C1132 H1124 0.929 . S
C1132 C1133 1.377 . S
C1132 C1134 1.384 . S
C1133 C1132 1.377 . S
C1133 C1139 1.390 . S
C1134 H1125 0.930 . S
C1134 C1132 1.384 . S
C1134 C1135 1.372 . S
C1135 C1134 1.372 . S
C1135 C1136 1.400 . S
C1135 C1140 1.490 . S
C1136 H1126 0.930 . S
C1136 C1135 1.400 . S
C1136 C1139 1.386 . S
H1137 C1153 0.930 . S
H1138 C1154 0.931 . S
C1139 H1127 0.929 . S
C1139 C1133 1.390 . S
C1139 C1136 1.386 . S
C1140 C1135 1.490 . S
C1140 C1142 1.395 . S
C1140 C1143 1.403 . S
H1141 C1147 0.930 . S
C1142 H1128 0.930 . S
C1142 C1140 1.395 . S
C1142 C1145 1.403 . S
C1143 C1140 1.403 . S
C1143 C1144 1.524 . S
C1143 C1147 1.400 . S
C1144 H1129 0.960 . S
C1144 H1130 0.960 . S
C1144 H1131 0.960 . S
C1144 C1143 1.524 . S
C1145 C1142 1.403 . S
C1145 C1146 1.392 . S
C1145 C1149 1.495 . S
C1146 C1145 1.392 . S
C1146 C1147 1.385 . S
C1146 C1148 1.478 . S
C1147 H1141 0.930 . S
C1147 C1143 1.400 . S
C1147 C1146 1.385 . S
C1148 C1146 1.478 . S
C1148 C1150 1.381 . S
C1148 C1154 1.383 . S
C1149 C1145 1.495 . S
C1149 H1155 0.959 . S
C1149 H1156 0.961 . S
C1149 H1157 0.960 . S
C1150 C1148 1.381 . S
C1150 C1151 1.394 . S
C1150 H1158 0.930 . S
C1151 C1150 1.394 . S
C1151 C1152 1.383 . S
C1151 H1159 0.929 . S
C1152 C1151 1.383 . S
C1152 C1153 1.377 . S
C1153 H1137 0.930 . S
C1153 C1152 1.377 . S
C1153 C1154 1.379 . S
C1154 H1138 0.931 . S
C1154 C1148 1.383 . S
C1154 C1153 1.379 . S
H1155 C1149 0.959 . S
H1156 C1149 0.961 . S
H1157 C1149 0.960 . S
H1158 C1150 0.930 . S
H1159 C1151 0.929 . S
H1160 C1168 0.929 . S
H1161 C1170 0.930 . S
H1162 C1172 0.930 . S
H1163 C1175 0.929 . S
H1164 C1178 0.930 . S
H1165 C1180 0.960 . S
H1166 C1180 0.960 . S
H1167 C1180 0.960 . S
C1168 H1160 0.929 . S
C1168 C1169 1.377 . S
C1168 C1170 1.384 . S
C1169 C1168 1.377 . S
C1169 C1175 1.390 . S
C1170 H1161 0.930 . S
C1170 C1168 1.384 . S
C1170 C1171 1.372 . S
C1171 C1170 1.372 . S
C1171 C1172 1.400 . S
C1171 C1176 1.490 . S
C1172 H1162 0.930 . S
C1172 C1171 1.400 . S
C1172 C1175 1.386 . S
H1173 C1189 0.930 . S
H1174 C1190 0.931 . S
C1175 H1163 0.929 . S
C1175 C1169 1.390 . S
C1175 C1172 1.386 . S
C1176 C1171 1.490 . S
C1176 C1178 1.395 . S
C1176 C1179 1.403 . S
H1177 C1183 0.930 . S
C1178 H1164 0.930 . S
C1178 C1176 1.395 . S
C1178 C1181 1.403 . S
C1179 C1176 1.403 . S
C1179 C1180 1.524 . S
C1179 C1183 1.400 . S
C1180 H1165 0.960 . S
C1180 H1166 0.960 . S
C1180 H1167 0.960 . S
C1180 C1179 1.524 . S
C1181 C1178 1.403 . S
C1181 C1182 1.392 . S
C1181 C1185 1.495 . S
C1182 C1181 1.392 . S
C1182 C1183 1.385 . S
C1182 C1184 1.478 . S
C1183 H1177 0.930 . S
C1183 C1179 1.400 . S
C1183 C1182 1.385 . S
C1184 C1182 1.478 . S
C1184 C1186 1.381 . S
C1184 C1190 1.383 . S
C1185 C1181 1.495 . S
C1185 H1191 0.959 . S
C1185 H1192 0.961 . S
C1185 H1193 0.960 . S
C1186 C1184 1.381 . S
C1186 C1187 1.394 . S
C1186 H1194 0.930 . S
C1187 C1186 1.394 . S
C1187 C1188 1.383 . S
C1187 H1195 0.929 . S
C1188 C1187 1.383 . S
C1188 C1189 1.377 . S
C1189 H1173 0.930 . S
C1189 C1188 1.377 . S
C1189 C1190 1.379 . S
C1190 H1174 0.931 . S
C1190 C1184 1.383 . S
C1190 C1189 1.379 . S
H1191 C1185 0.959 . S
H1192 C1185 0.961 . S
H1193 C1185 0.960 . S
H1194 C1186 0.930 . S
H1195 C1187 0.929 . S
H1196 C1204 0.929 . S
H1197 C1206 0.930 . S
H1198 C1208 0.930 . S
H1199 C1211 0.929 . S
H1200 C1214 0.930 . S
H1201 C1216 0.960 . S
H1202 C1216 0.960 1_655 S
H1203 C1216 0.960 . S
C1204 H1196 0.929 . S
C1204 C1205 1.377 . S
C1204 C1206 1.384 . S
C1205 C1204 1.377 . S
C1205 C1211 1.390 . S
C1206 H1197 0.930 . S
C1206 C1204 1.384 . S
C1206 C1207 1.372 . S
C1207 C1206 1.372 . S
C1207 C1208 1.400 . S
C1207 C1212 1.490 . S
C1208 H1198 0.930 . S
C1208 C1207 1.400 . S
C1208 C1211 1.386 . S
H1209 C1225 0.930 . S
H1210 C1226 0.931 . S
C1211 H1199 0.929 . S
C1211 C1205 1.390 . S
C1211 C1208 1.386 . S
C1212 C1207 1.490 . S
C1212 C1214 1.395 . S
C1212 C1215 1.403 . S
H1213 C1219 0.930 . S
C1214 H1200 0.930 . S
C1214 C1212 1.395 . S
C1214 C1217 1.403 . S
C1215 C1212 1.403 . S
C1215 C1216 1.524 . S
C1215 C1219 1.400 . S
C1216 H1201 0.960 . S
C1216 H1202 0.960 1_455 S
C1216 H1203 0.960 . S
C1216 C1215 1.524 . S
C1217 C1214 1.403 . S
C1217 C1218 1.392 . S
C1217 C1221 1.495 . S
C1218 C1217 1.392 . S
C1218 C1219 1.385 . S
C1218 C1220 1.478 . S
C1219 H1213 0.930 . S
C1219 C1215 1.400 . S
C1219 C1218 1.385 . S
C1220 C1218 1.478 . S
C1220 C1222 1.381 . S
C1220 C1226 1.383 . S
C1221 C1217 1.495 . S
C1221 H1227 0.959 . S
C1221 H1228 0.961 . S
C1221 H1229 0.960 . S
C1222 C1220 1.381 . S
C1222 C1223 1.394 . S
C1222 H1230 0.930 . S
C1223 C1222 1.394 . S
C1223 C1224 1.383 . S
C1223 H1231 0.929 . S
C1224 C1223 1.383 . S
C1224 C1225 1.377 . S
C1225 H1209 0.930 . S
C1225 C1224 1.377 . S
C1225 C1226 1.379 . S
C1226 H1210 0.931 . S
C1226 C1220 1.383 . S
C1226 C1225 1.379 . S
H1227 C1221 0.959 . S
H1228 C1221 0.961 . S
H1229 C1221 0.960 . S
H1230 C1222 0.930 . S
H1231 C1223 0.929 . S
H1232 C1240 0.929 . S
H1233 C1242 0.930 . S
H1234 C1244 0.930 . S
H1235 C1247 0.929 . S
H1236 C1250 0.930 . S
H1237 C1252 0.960 . S
H1238 C1252 0.960 . S
H1239 C1252 0.960 . S
C1240 H1232 0.929 . S
C1240 C1241 1.377 . S
C1240 C1242 1.384 . S
C1241 C1240 1.377 . S
C1241 C1247 1.390 . S
C1242 H1233 0.930 . S
C1242 C1240 1.384 . S
C1242 C1243 1.372 . S
C1243 C1242 1.372 . S
C1243 C1244 1.400 . S
C1243 C1248 1.490 . S
C1244 H1234 0.930 . S
C1244 C1243 1.400 . S
C1244 C1247 1.386 . S
H1245 C1261 0.930 . S
H1246 C1262 0.931 . S
C1247 H1235 0.929 . S
C1247 C1241 1.390 . S
C1247 C1244 1.386 . S
C1248 C1243 1.490 . S
C1248 C1250 1.395 . S
C1248 C1251 1.403 . S
H1249 C1255 0.930 . S
C1250 H1236 0.930 . S
C1250 C1248 1.395 . S
C1250 C1253 1.403 . S
C1251 C1248 1.403 . S
C1251 C1252 1.524 . S
C1251 C1255 1.400 . S
C1252 H1237 0.960 . S
C1252 H1238 0.960 . S
C1252 H1239 0.960 . S
C1252 C1251 1.524 . S
C1253 C1250 1.403 . S
C1253 C1254 1.392 . S
C1253 C1257 1.495 . S
C1254 C1253 1.392 . S
C1254 C1255 1.385 . S
C1254 C1256 1.478 . S
C1255 H1249 0.930 . S
C1255 C1251 1.400 . S
C1255 C1254 1.385 . S
C1256 C1254 1.478 . S
C1256 C1258 1.381 . S
C1256 C1262 1.383 . S
C1257 C1253 1.495 . S
C1257 H1263 0.959 . S
C1257 H1264 0.961 . S
C1257 H1265 0.960 . S
C1258 C1256 1.381 . S
C1258 C1259 1.394 . S
C1258 H1266 0.930 . S
C1259 C1258 1.394 . S
C1259 C1260 1.383 . S
C1259 H1267 0.929 . S
C1260 C1259 1.383 . S
C1260 C1261 1.377 . S
C1261 H1245 0.930 . S
C1261 C1260 1.377 . S
C1261 C1262 1.379 . S
C1262 H1246 0.931 . S
C1262 C1256 1.383 . S
C1262 C1261 1.379 . S
H1263 C1257 0.959 . S
H1264 C1257 0.961 . S
H1265 C1257 0.960 . S
H1266 C1258 0.930 . S
H1267 C1259 0.929 . S
H1268 C1276 0.929 . S
H1269 C1278 0.930 . S
H1270 C1280 0.930 . S
H1271 C1283 0.929 . S
H1272 C1286 0.930 . S
H1273 C1288 0.960 . S
H1274 C1288 0.960 . S
H1275 C1288 0.960 . S
C1276 H1268 0.929 . S
C1276 C1277 1.377 . S
C1276 C1278 1.384 . S
C1277 C1276 1.377 . S
C1277 C1283 1.390 . S
C1278 H1269 0.930 . S
C1278 C1276 1.384 . S
C1278 C1279 1.372 . S
C1279 C1278 1.372 . S
C1279 C1280 1.400 . S
C1279 C1284 1.490 . S
C1280 H1270 0.930 . S
C1280 C1279 1.400 . S
C1280 C1283 1.386 . S
H1281 C1297 0.930 . S
H1282 C1298 0.931 . S
C1283 H1271 0.929 . S
C1283 C1277 1.390 . S
C1283 C1280 1.386 . S
C1284 C1279 1.490 . S
C1284 C1286 1.395 . S
C1284 C1287 1.403 . S
H1285 C1291 0.930 . S
C1286 H1272 0.930 . S
C1286 C1284 1.395 . S
C1286 C1289 1.403 . S
C1287 C1284 1.403 . S
C1287 C1288 1.524 . S
C1287 C1291 1.400 . S
C1288 H1273 0.960 . S
C1288 H1274 0.960 . S
C1288 H1275 0.960 . S
C1288 C1287 1.524 . S
C1289 C1286 1.403 . S
C1289 C1290 1.392 . S
C1289 C1293 1.495 . S
C1290 C1289 1.392 . S
C1290 C1291 1.385 . S
C1290 C1292 1.478 . S
C1291 H1285 0.930 . S
C1291 C1287 1.400 . S
C1291 C1290 1.385 . S
C1292 C1290 1.478 . S
C1292 C1294 1.381 . S
C1292 C1298 1.383 . S
C1293 C1289 1.495 . S
C1293 H1299 0.959 . S
C1293 H1300 0.961 . S
C1293 H1301 0.960 . S
C1294 C1292 1.381 . S
C1294 C1295 1.394 . S
C1294 H1302 0.930 . S
C1295 C1294 1.394 . S
C1295 C1296 1.383 . S
C1295 H1303 0.929 . S
C1296 C1295 1.383 . S
C1296 C1297 1.377 . S
C1297 H1281 0.930 . S
C1297 C1296 1.377 . S
C1297 C1298 1.379 . S
C1298 H1282 0.931 . S
C1298 C1292 1.383 . S
C1298 C1297 1.379 . S
H1299 C1293 0.959 . S
H1300 C1293 0.961 . S
H1301 C1293 0.960 . S
H1302 C1294 0.930 . S
H1303 C1295 0.929 . S
H1304 C1312 0.929 . S
H1305 C1314 0.930 . S
H1306 C1316 0.930 . S
H1307 C1319 0.929 . S
H1308 C1322 0.930 . S
H1309 C1324 0.960 . S
H1310 C1324 0.960 . S
H1311 C1324 0.960 . S
C1312 H1304 0.929 . S
C1312 C1313 1.377 . S
C1312 C1314 1.384 . S
C1313 C1312 1.377 . S
C1313 C1319 1.390 . S
C1314 H1305 0.930 . S
C1314 C1312 1.384 . S
C1314 C1315 1.372 . S
C1315 C1314 1.372 . S
C1315 C1316 1.400 . S
C1315 C1320 1.490 . S
C1316 H1306 0.930 . S
C1316 C1315 1.400 . S
C1316 C1319 1.386 . S
H1317 C1333 0.930 . S
H1318 C1334 0.931 . S
C1319 H1307 0.929 . S
C1319 C1313 1.390 . S
C1319 C1316 1.386 . S
C1320 C1315 1.490 . S
C1320 C1322 1.395 . S
C1320 C1323 1.403 . S
H1321 C1327 0.930 . S
C1322 H1308 0.930 . S
C1322 C1320 1.395 . S
C1322 C1325 1.403 . S
C1323 C1320 1.403 . S
C1323 C1324 1.524 . S
C1323 C1327 1.400 . S
C1324 H1309 0.960 . S
C1324 H1310 0.960 . S
C1324 H1311 0.960 . S
C1324 C1323 1.524 . S
C1325 C1322 1.403 . S
C1325 C1326 1.392 . S
C1325 C1329 1.495 . S
C1326 C1325 1.392 . S
C1326 C1327 1.385 . S
C1326 C1328 1.478 . S
C1327 H1321 0.930 . S
C1327 C1323 1.400 . S
C1327 C1326 1.385 . S
C1328 C1326 1.478 . S
C1328 C1330 1.381 . S
C1328 C1334 1.383 . S
C1329 C1325 1.495 . S
C1329 H1335 0.959 . S
C1329 H1336 0.961 . S
C1329 H1337 0.960 . S
C1330 C1328 1.381 . S
C1330 C1331 1.394 . S
C1330 H1338 0.930 . S
C1331 C1330 1.394 . S
C1331 C1332 1.383 . S
C1331 H1339 0.929 . S
C1332 C1331 1.383 . S
C1332 C1333 1.377 . S
C1333 H1317 0.930 . S
C1333 C1332 1.377 . S
C1333 C1334 1.379 . S
C1334 H1318 0.931 . S
C1334 C1328 1.383 . S
C1334 C1333 1.379 . S
H1335 C1329 0.959 . S
H1336 C1329 0.961 . S
H1337 C1329 0.960 . S
H1338 C1330 0.930 . S
H1339 C1331 0.929 . S
H1340 C1348 0.929 . S
H1341 C1350 0.930 . S
H1342 C1352 0.930 . S
H1343 C1355 0.929 . S
H1344 C1358 0.930 . S
H1345 C1360 0.960 . S
H1346 C1360 0.960 . S
H1347 C1360 0.960 . S
C1348 H1340 0.929 . S
C1348 C1349 1.377 . S
C1348 C1350 1.384 . S
C1349 C1348 1.377 . S
C1349 C1355 1.390 . S
C1350 H1341 0.930 . S
C1350 C1348 1.384 . S
C1350 C1351 1.372 . S
C1351 C1350 1.372 . S
C1351 C1352 1.400 . S
C1351 C1356 1.490 . S
C1352 H1342 0.930 . S
C1352 C1351 1.400 . S
C1352 C1355 1.386 . S
H1353 C1369 0.930 . S
H1354 C1370 0.931 . S
C1355 H1343 0.929 . S
C1355 C1349 1.390 . S
C1355 C1352 1.386 . S
C1356 C1351 1.490 . S
C1356 C1358 1.395 . S
C1356 C1359 1.403 . S
H1357 C1363 0.930 . S
C1358 H1344 0.930 . S
C1358 C1356 1.395 . S
C1358 C1361 1.365 1_556 S
C1359 C1356 1.403 . S
C1359 C1360 1.524 . S
C1359 C1363 1.400 1_556 S
C1360 H1345 0.960 . S
C1360 H1346 0.960 . S
C1360 H1347 0.960 . S
C1360 C1359 1.524 . S
C1361 C1358 1.365 1_554 S
C1361 C1362 1.414 . S
C1361 C1365 1.512 . S
C1362 C1361 1.414 . S
C1362 C1363 1.385 . S
C1362 C1364 1.478 . S
C1363 H1357 0.930 . S
C1363 C1359 1.400 1_554 S
C1363 C1362 1.385 . S
C1364 C1362 1.478 . S
C1364 C1366 1.381 . S
C1364 C1370 1.383 . S
C1365 C1361 1.512 . S
C1365 H1371 0.969 1_554 S
C1365 H1372 0.961 . S
C1365 H1373 0.960 . S
C1366 C1364 1.381 . S
C1366 C1367 1.394 . S
C1366 H1374 0.930 . S
C1367 C1366 1.394 . S
C1367 C1368 1.383 . S
C1367 H1375 0.929 . S
C1368 C1367 1.383 . S
C1368 C1369 1.377 . S
C1369 H1353 0.930 . S
C1369 C1368 1.377 . S
C1369 C1370 1.379 . S
C1370 H1354 0.931 . S
C1370 C1364 1.383 . S
C1370 C1369 1.379 . S
H1371 C1365 0.969 1_556 S
H1372 C1365 0.961 . S
H1373 C1365 0.960 . S
H1374 C1366 0.930 . S
H1375 C1367 0.929 . S
H1376 C1384 0.929 . S
H1377 C1386 0.930 . S
H1378 C1388 0.930 . S
H1379 C1391 0.929 . S
H1380 C1394 0.945 . S
H1381 C1396 1.021 . S
H1382 C1396 0.960 . S
H1383 C1396 0.960 . S
C1384 H1376 0.929 . S
C1384 C1385 1.377 . S
C1384 C1386 1.384 . S
C1385 C1384 1.377 . S
C1385 C1391 1.390 . S
C1386 H1377 0.930 . S
C1386 C1384 1.384 . S
C1386 C1387 1.372 . S
C1387 C1386 1.372 . S
C1387 C1388 1.400 . S
C1387 C1392 1.490 . S
C1388 H1378 0.930 . S
C1388 C1387 1.400 . S
C1388 C1391 1.386 . S
H1389 C1405 0.930 . S
H1390 C1406 0.931 . S
C1391 H1379 0.929 . S
C1391 C1385 1.390 . S
C1391 C1388 1.386 . S
C1392 C1387 1.490 . S
C1392 C1394 1.411 . S
C1392 C1395 1.436 . S
H1393 C1399 0.930 . S
C1394 H1380 0.945 . S
C1394 C1392 1.411 . S
C1394 C1397 1.373 1_554 S
C1395 C1392 1.436 . S
C1395 C1396 1.554 . S
C1395 C1399 1.336 1_554 S
C1396 H1381 1.021 . S
C1396 H1382 0.960 . S
C1396 H1383 0.960 . S
C1396 C1395 1.554 . S
C1397 C1394 1.373 1_556 S
C1397 C1398 1.392 . S
C1397 C1401 1.495 . S
C1398 C1397 1.392 . S
C1398 C1399 1.385 . S
C1398 C1400 1.478 . S
C1399 H1393 0.930 . S
C1399 C1395 1.336 1_556 S
C1399 C1398 1.385 . S
C1400 C1398 1.478 . S
C1400 C1402 1.381 . S
C1400 C1406 1.383 . S
C1401 C1397 1.495 . S
C1401 H1407 0.959 . S
C1401 H1408 0.961 . S
C1401 H1409 0.960 . S
C1402 C1400 1.381 . S
C1402 C1403 1.394 . S
C1402 H1410 0.930 . S
C1403 C1402 1.394 . S
C1403 C1404 1.383 . S
C1403 H1411 0.929 . S
C1404 C1403 1.383 . S
C1404 C1405 1.377 . S
C1405 H1389 0.930 . S
C1405 C1404 1.377 . S
C1405 C1406 1.379 . S
C1406 H1390 0.931 . S
C1406 C1400 1.383 . S
C1406 C1405 1.379 . S
H1407 C1401 0.959 . S
H1408 C1401 0.961 . S
H1409 C1401 0.960 . S
H1410 C1402 0.930 . S
H1411 C1403 0.929 . S
H1412 C1420 0.929 . S
H1413 C1422 0.930 . S
H1414 C1424 0.930 . S
H1415 C1427 0.929 . S
H1416 C1430 0.930 . S
H1417 C1432 0.960 . S
H1418 C1432 0.960 . S
H1419 C1432 0.960 . S
C1420 H1412 0.929 . S
C1420 C1421 1.377 . S
C1420 C1422 1.384 . S
C1421 C1420 1.377 . S
C1421 C1427 1.390 . S
C1422 H1413 0.930 . S
C1422 C1420 1.384 . S
C1422 C1423 1.372 . S
C1423 C1422 1.372 . S
C1423 C1424 1.400 . S
C1423 C1428 1.490 . S
C1424 H1414 0.930 . S
C1424 C1423 1.400 . S
C1424 C1427 1.386 . S
H1425 C1441 0.930 . S
H1426 C1442 0.931 . S
C1427 H1415 0.929 . S
C1427 C1421 1.390 . S
C1427 C1424 1.386 . S
C1428 C1423 1.490 . S
C1428 C1430 1.395 . S
C1428 C1431 1.403 . S
H1429 C1435 0.930 . S
C1430 H1416 0.930 . S
C1430 C1428 1.395 . S
C1430 C1433 1.403 . S
C1431 C1428 1.403 . S
C1431 C1432 1.524 . S
C1431 C1435 1.400 . S
C1432 H1417 0.960 . S
C1432 H1418 0.960 . S
C1432 H1419 0.960 . S
C1432 C1431 1.524 . S
C1433 C1430 1.403 . S
C1433 C1434 1.392 . S
C1433 C1437 1.495 . S
C1434 C1433 1.392 . S
C1434 C1435 1.385 . S
C1434 C1436 1.478 . S
C1435 H1429 0.930 . S
C1435 C1431 1.400 . S
C1435 C1434 1.385 . S
C1436 C1434 1.478 . S
C1436 C1438 1.381 . S
C1436 C1442 1.383 . S
C1437 C1433 1.495 . S
C1437 H1443 0.959 . S
C1437 H1444 0.961 . S
C1437 H1445 0.960 . S
C1438 C1436 1.381 . S
C1438 C1439 1.394 . S
C1438 H1446 0.930 . S
C1439 C1438 1.394 . S
C1439 C1440 1.383 . S
C1439 H1447 0.929 . S
C1440 C1439 1.383 . S
C1440 C1441 1.377 . S
C1441 H1425 0.930 . S
C1441 C1440 1.377 . S
C1441 C1442 1.379 . S
C1442 H1426 0.931 . S
C1442 C1436 1.383 . S
C1442 C1441 1.379 . S
H1443 C1437 0.959 . S
H1444 C1437 0.961 . S
H1445 C1437 0.960 . S
H1446 C1438 0.930 . S
H1447 C1439 0.929 . S
H1448 C1456 0.929 . S
H1449 C1458 0.930 . S
H1450 C1460 0.930 . S
H1451 C1463 0.929 . S
H1452 C1466 0.930 . S
H1453 C1468 0.960 . S
H1454 C1468 0.960 . S
H1455 C1468 0.960 . S
C1456 H1448 0.929 . S
C1456 C1457 1.377 . S
C1456 C1458 1.384 . S
C1457 C1456 1.377 . S
C1457 C1463 1.390 . S
C1458 H1449 0.930 . S
C1458 C1456 1.384 . S
C1458 C1459 1.372 . S
C1459 C1458 1.372 . S
C1459 C1460 1.400 . S
C1459 C1464 1.490 . S
C1460 H1450 0.930 . S
C1460 C1459 1.400 . S
C1460 C1463 1.386 . S
H1461 C1477 0.930 . S
H1462 C1478 0.931 . S
C1463 H1451 0.929 . S
C1463 C1457 1.390 . S
C1463 C1460 1.386 . S
C1464 C1459 1.490 . S
C1464 C1466 1.395 . S
C1464 C1467 1.403 . S
H1465 C1471 0.930 . S
C1466 H1452 0.930 . S
C1466 C1464 1.395 . S
C1466 C1469 1.403 . S
C1467 C1464 1.403 . S
C1467 C1468 1.524 . S
C1467 C1471 1.400 . S
C1468 H1453 0.960 . S
C1468 H1454 0.960 . S
C1468 H1455 0.960 . S
C1468 C1467 1.524 . S
C1469 C1466 1.403 . S
C1469 C1470 1.392 . S
C1469 C1473 1.495 . S
C1470 C1469 1.392 . S
C1470 C1471 1.385 . S
C1470 C1472 1.478 . S
C1471 H1465 0.930 . S
C1471 C1467 1.400 . S
C1471 C1470 1.385 . S
C1472 C1470 1.478 . S
C1472 C1474 1.381 . S
C1472 C1478 1.383 . S
C1473 C1469 1.495 . S
C1473 H1479 0.959 . S
C1473 H1480 0.961 . S
C1473 H1481 0.960 . S
C1474 C1472 1.381 . S
C1474 C1475 1.394 . S
C1474 H1482 0.930 . S
C1475 C1474 1.394 . S
C1475 C1476 1.383 . S
C1475 H1483 0.929 . S
C1476 C1475 1.383 . S
C1476 C1477 1.377 . S
C1477 H1461 0.930 . S
C1477 C1476 1.377 . S
C1477 C1478 1.379 . S
C1478 H1462 0.931 . S
C1478 C1472 1.383 . S
C1478 C1477 1.379 . S
H1479 C1473 0.959 . S
H1480 C1473 0.961 . S
H1481 C1473 0.960 . S
H1482 C1474 0.930 . S
H1483 C1475 0.929 . S
H1484 C1492 0.929 . S
H1485 C1494 0.930 . S
H1486 C1496 0.930 . S
H1487 C1499 0.929 . S
H1488 C1502 0.930 . S
H1489 C1504 0.960 . S
H1490 C1504 0.960 . S
H1491 C1504 0.960 . S
C1492 H1484 0.929 . S
C1492 C1493 1.377 . S
C1492 C1494 1.384 . S
C1493 C1492 1.377 . S
C1493 C1499 1.390 . S
C1494 H1485 0.930 . S
C1494 C1492 1.384 . S
C1494 C1495 1.372 . S
C1495 C1494 1.372 . S
C1495 C1496 1.400 . S
C1495 C1500 1.490 . S
C1496 H1486 0.930 . S
C1496 C1495 1.400 . S
C1496 C1499 1.386 . S
H1497 C1513 0.930 . S
H1498 C1514 0.931 . S
C1499 H1487 0.929 . S
C1499 C1493 1.390 . S
C1499 C1496 1.386 . S
C1500 C1495 1.490 . S
C1500 C1502 1.395 . S
C1500 C1503 1.403 . S
H1501 C1507 0.930 . S
C1502 H1488 0.930 . S
C1502 C1500 1.395 . S
C1502 C1505 1.403 . S
C1503 C1500 1.403 . S
C1503 C1504 1.524 . S
C1503 C1507 1.400 . S
C1504 H1489 0.960 . S
C1504 H1490 0.960 . S
C1504 H1491 0.960 . S
C1504 C1503 1.524 . S
C1505 C1502 1.403 . S
C1505 C1506 1.392 . S
C1505 C1509 1.495 . S
C1506 C1505 1.392 . S
C1506 C1507 1.385 . S
C1506 C1508 1.478 . S
C1507 H1501 0.930 . S
C1507 C1503 1.400 . S
C1507 C1506 1.385 . S
C1508 C1506 1.478 . S
C1508 C1510 1.381 . S
C1508 C1514 1.383 . S
C1509 C1505 1.495 . S
C1509 H1515 0.959 . S
C1509 H1516 0.961 . S
C1509 H1517 0.960 . S
C1510 C1508 1.381 . S
C1510 C1511 1.394 . S
C1510 H1518 0.930 . S
C1511 C1510 1.394 . S
C1511 C1512 1.383 . S
C1511 H1519 0.929 . S
C1512 C1511 1.383 . S
C1512 C1513 1.377 . S
C1513 H1497 0.930 . S
C1513 C1512 1.377 . S
C1513 C1514 1.379 . S
C1514 H1498 0.931 . S
C1514 C1508 1.383 . S
C1514 C1513 1.379 . S
H1515 C1509 0.959 . S
H1516 C1509 0.961 . S
H1517 C1509 0.960 . S
H1518 C1510 0.930 . S
H1519 C1511 0.929 . S
C377 C246 2.163 . S
C396 C16 2.177 . S
C413 N35 2.056 . S
C432 N265 2.039 . S
C449 C200 2.161 . S
C468 C62 2.143 . S
C485 N219 2.054 . S
C504 N81 2.051 . S
C521 C108 2.160 . S
C540 C338 2.150 . S
C557 N357 2.054 . S
C576 N127 2.042 . S
C593 C154 2.163 . S
C612 C292 2.141 . S
C629 N311 2.055 . S
C648 N173 2.033 . S
C665 C237 1.134 . S
C684 C7 1.118 . S
C701 N25 0.911 . S
C720 N255 0.868 . S
C737 C53 1.124 . S
C756 C191 1.139 . S
C773 N71 0.894 . S
C792 N209 0.866 . S
C809 C99 1.134 . S
C828 C329 1.142 . S
C845 N117 0.891 . S
C864 N347 0.883 . S
C881 C283 1.126 . S
C900 C145 1.107 . S
C917 N301 0.899 . S
C936 N163 0.952 . S
C953 N2 1.629 . S
C972 N140 1.608 . S
C989 C30 1.658 . S
C1008 C168 1.642 . S
C1025 N48 1.637 . S
C1044 N94 1.660 . S
C1061 C76 1.662 . S
C1080 C122 1.669 . S
C1097 N186 1.627 . S
C1116 N324 1.602 . S
C1133 C352 1.663 . S
C1152 C214 1.668 . S
C1169 N232 1.624 . S
C1188 N278 1.597 . S
C1205 C306 1.661 . S
C1224 C260 1.665 . S
C1241 N12 1.707 . S
C1260 C361 1.685 . S
C1277 N288 1.708 . S
C1296 C39 1.681 . S
C1313 C315 1.692 . S
C1332 N58 1.699 . S
C1349 N334 1.707 . S
C1368 C85 1.698 . S
C1385 C223 1.696 . S
C1404 N104 1.692 . S
C1421 N242 1.710 . S
C1440 C131 1.673 . S
C1457 N150 1.710 . S
C1476 C269 1.671 . S
C1493 C177 1.689 . S
C1512 N196 1.717 . S
