# Generated by pormake.
# Topology lcy-e, (6)-cn, num edge types: 1
# Building blocks:
#     Node 0, Type 0, BuildingBlock: CIFDUS_clean_sbu_1, # of connection points: 6
#     Node 1, Type 0, BuildingBlock: CIFDUS_clean_sbu_1, # of connection points: 6
#     Node 2, Type 0, BuildingBlock: CIFDUS_clean_sbu_1, # of connection points: 6
#     Node 3, Type 0, BuildingBlock: CIFDUS_clean_sbu_1, # of connection points: 6
#     Node 4, Type 0, BuildingBlock: CIFDUS_clean_sbu_1, # of connection points: 6
#     Node 5, Type 0, BuildingBlock: CIFDUS_clean_sbu_1, # of connection points: 6
#     Node 6, Type 0, BuildingBlock: CIFDUS_clean_sbu_1, # of connection points: 6
#     Node 7, Type 0, BuildingBlock: CIFDUS_clean_sbu_1, # of connection points: 6
#     Node 8, Type 0, BuildingBlock: CIFDUS_clean_sbu_1, # of connection points: 6
#     Node 9, Type 0, BuildingBlock: CIFDUS_clean_sbu_1, # of connection points: 6
#     Node 10, Type 0, BuildingBlock: CIFDUS_clean_sbu_1, # of connection points: 6
#     Node 11, Type 0, BuildingBlock: CIFDUS_clean_sbu_1, # of connection points: 6
#     Edge 12, Type (0, 0), None
#     Edge 13, Type (0, 0), None
#     Edge 14, Type (0, 0), None
#     Edge 15, Type (0, 0), None
#     Edge 16, Type (0, 0), None
#     Edge 17, Type (0, 0), None
#     Edge 18, Type (0, 0), None
#     Edge 19, Type (0, 0), None
#     Edge 20, Type (0, 0), None
#     Edge 21, Type (0, 0), None
#     Edge 22, Type (0, 0), None
#     Edge 23, Type (0, 0), None
#     Edge 24, Type (0, 0), None
#     Edge 25, Type (0, 0), None
#     Edge 26, Type (0, 0), None
#     Edge 27, Type (0, 0), None
#     Edge 28, Type (0, 0), None
#     Edge 29, Type (0, 0), None
#     Edge 30, Type (0, 0), None
#     Edge 31, Type (0, 0), None
#     Edge 32, Type (0, 0), None
#     Edge 33, Type (0, 0), None
#     Edge 34, Type (0, 0), None
#     Edge 35, Type (0, 0), None
#     Edge 36, Type (0, 0), None
#     Edge 37, Type (0, 0), None
#     Edge 38, Type (0, 0), None
#     Edge 39, Type (0, 0), None
#     Edge 40, Type (0, 0), None
#     Edge 41, Type (0, 0), None
#     Edge 42, Type (0, 0), None
#     Edge 43, Type (0, 0), None
#     Edge 44, Type (0, 0), None
#     Edge 45, Type (0, 0), None
#     Edge 46, Type (0, 0), None
#     Edge 47, Type (0, 0), None
# Relax obj value: 0.285
# Max RMSD: 0.262
# Mean RMSD: 0.262
data_MOF--net-lcy-e--node1-CIFDUS_clean_sbu_1--edge1-none
_symmetry_space_group_name_H-M    P1
_symmetry_Int_Tables_number       1
_symmetry_cell_setting            triclinic
loop_
_symmetry_equiv_pos_as_xyz
'x, y, z'
_cell_length_a     16.223913
_cell_length_b     16.22395
_cell_length_c     16.224746
_cell_angle_alpha  89.999557
_cell_angle_beta   90.000529
_cell_angle_gamma 90.00006
loop_
_atom_site_label
_atom_site_type_symbol
_atom_site_fract_x
_atom_site_fract_y
_atom_site_fract_z
_atom_type_partial_charge
O0 O 0.06236 0.12006 0.42182 0.0
Mn1 Mn 0.14701 0.21022 0.46022 0.0
O2 O 0.94501 0.19865 0.4158 0.0
Mn3 Mn 0.9853 0.30334 0.43817 0.0
O4 O 0.20966 0.31982 0.47816 0.0
O5 O 0.21223 0.14293 0.53179 0.0
Mn6 Mn 0.30873 0.18814 0.55332 0.0
O7 O 0.23163 0.1718 0.37004 0.0
O8 O 0.29481 0.30207 0.58102 0.0
O9 O 0.08443 0.22822 0.56984 0.0
O10 O 0.99923 0.33105 0.5521 0.0
O11 O 0.28539 0.10175 0.62883 0.0
O12 O 0.34898 0.16576 0.44862 0.0
C13 C 0.07766 0.34044 0.34207 0.0
C14 C 0.98601 0.13301 0.39959 0.0
C15 C 0.25453 0.35039 0.53361 0.0
C16 C 0.21634 0.09207 0.59042 0.0
C17 C 0.30798 0.14956 0.38298 0.0
C18 C 0.03954 0.28366 0.60041 0.0
O19 O 0.08179 0.28182 0.39295 0.0
O20 O 1.00861 0.37884 0.35177 0.0
O21 O 0.17392 0.81233 0.6718 0.0
Mn22 Mn 0.08376 0.89699 0.71021 0.0
O23 O 0.0953 0.69501 0.66577 0.0
Mn24 Mn 0.99061 0.73528 0.68819 0.0
O25 O 0.97417 0.95963 0.72819 0.0
O26 O 0.15108 0.96223 0.78175 0.0
Mn27 Mn 0.10589 0.05874 0.80326 0.0
O28 O 0.12213 0.98157 0.62 0.0
O29 O 0.99196 0.04483 0.831 0.0
O30 O 0.0658 0.83441 0.81985 0.0
O31 O 0.96295 0.74922 0.80212 0.0
O32 O 0.19231 0.03541 0.87874 0.0
O33 O 0.12822 0.09897 0.69854 0.0
C34 C 0.95351 0.82767 0.59211 0.0
C35 C 0.16096 0.73599 0.64957 0.0
C36 C 0.94363 1.00453 0.78362 0.0
C37 C 0.20196 0.96635 0.84036 0.0
C38 C 0.14428 0.05795 0.63287 0.0
C39 C 1.01036 0.78953 0.85043 0.0
O40 O 1.01214 0.83177 0.64297 0.0
O41 O 0.9151 0.75862 0.60181 0.0
O42 O 0.31247 0.87214 0.86997 0.0
Mn43 Mn 0.39703 0.83377 0.96019 0.0
O44 O 0.19505 0.87824 0.94848 0.0
Mn45 Mn 0.23526 0.85589 0.05321 0.0
O46 O 0.4596 0.8158 0.06984 0.0
O47 O 0.46227 0.76215 0.89296 0.0
Mn48 Mn 0.55876 0.74064 0.93818 0.0
O49 O 0.48168 0.92393 0.92179 0.0
O50 O 0.54482 0.71298 0.05211 0.0
O51 O 0.33439 0.72417 0.97816 0.0
O52 O 0.24915 0.74197 0.08094 0.0
O53 O 0.53544 0.66513 0.85179 0.0
O54 O 0.59902 0.84533 0.91577 0.0
C55 C 0.32765 0.95197 0.09033 0.0
C56 C 0.23608 0.89429 0.88282 0.0
C57 C 0.5045 0.76038 0.10041 0.0
C58 C 0.46638 0.70353 0.84209 0.0
C59 C 0.55803 0.91098 0.89956 0.0
C60 C 0.28947 0.69363 0.03357 0.0
O61 O 0.33178 0.90109 0.03172 0.0
O62 O 0.25857 0.94232 0.12869 0.0
O63 O 0.42188 0.06245 0.11998 0.0
Mn64 Mn 0.46024 0.14704 0.2102 0.0
O65 O 0.4157 0.94503 0.19849 0.0
Mn66 Mn 0.43815 0.98524 0.30318 0.0
O67 O 0.47819 0.20965 0.31983 0.0
O68 O 0.53183 0.21228 0.14294 0.0
Mn69 Mn 0.55336 0.30876 0.18817 0.0
O70 O 0.37006 0.23167 0.17179 0.0
O71 O 0.58105 0.29481 0.3021 0.0
O72 O 0.56987 0.08446 0.22819 0.0
O73 O 0.5521 0.99907 0.33085 0.0
O74 O 0.62886 0.28545 0.10178 0.0
O75 O 0.44865 0.34902 0.16578 0.0
C76 C 0.34224 0.07759 0.3405 0.0
C77 C 0.39969 0.98607 0.13282 0.0
C78 C 0.53365 0.2545 0.35041 0.0
C79 C 0.59046 0.2164 0.09208 0.0
C80 C 0.38301 0.30802 0.14956 0.0
C81 C 0.60043 0.03945 0.28353 0.0
O82 O 0.39296 0.08177 0.28176 0.0
O83 O 0.35184 1.00847 0.3788 0.0
O84 O 0.73163 0.37219 0.67392 0.0
Mn85 Mn 0.64701 0.33377 0.58375 0.0
O86 O 0.84898 0.37816 0.59533 0.0
Mn87 Mn 0.80871 0.35585 0.49062 0.0
O88 O 0.58443 0.31576 0.47413 0.0
O89 O 0.5818 0.26216 0.65102 0.0
Mn90 Mn 0.4853 0.24063 0.6058 0.0
O91 O 0.56236 0.42393 0.62214 0.0
O92 O 0.49921 0.21295 0.49187 0.0
O93 O 0.70968 0.22418 0.56581 0.0
O94 O 0.79475 0.24193 0.46289 0.0
O95 O 0.50864 0.16513 0.6922 0.0
O96 O 0.44502 0.34532 0.62819 0.0
C97 C 0.71633 0.45196 0.45357 0.0
C98 C 0.80798 0.3944 0.66097 0.0
C99 C 0.53952 0.26035 0.44356 0.0
C100 C 0.57769 0.20354 0.70189 0.0
C101 C 0.48601 0.41097 0.64439 0.0
C102 C 0.7545 0.19361 0.51033 0.0
O103 O 0.71223 0.40107 0.51218 0.0
O104 O 0.78538 0.44228 0.41516 0.0
O105 O 0.92183 0.48163 0.92391 0.0
Mn106 Mn 0.96024 0.397 0.83374 0.0
O107 O 0.91579 0.59899 0.84533 0.0
Mn108 Mn 0.9382 0.55873 0.74065 0.0
O109 O 0.97822 0.33438 0.72413 0.0
O110 O 0.03182 0.33178 0.90103 0.0
Mn111 Mn 0.05336 0.23529 0.85581 0.0
O112 O 0.87007 0.31237 0.87215 0.0
O113 O 0.08108 0.24922 0.74188 0.0
O114 O 0.06987 0.4596 0.81578 0.0
O115 O 0.05214 0.54483 0.71298 0.0
O116 O 0.12885 0.25862 0.94222 0.0
O117 O 0.94866 0.19502 0.87817 0.0
C118 C 0.84225 0.46639 0.7034 0.0
C119 C 0.89959 0.55799 0.91097 0.0
C120 C 0.03367 0.28952 0.69357 0.0
C121 C 0.09045 0.32767 0.9519 0.0
C122 C 0.88302 0.23602 0.89439 0.0
C123 C 0.10044 0.50451 0.76037 0.0
O124 O 0.89298 0.46223 0.76214 0.0
O125 O 0.85187 0.53548 0.66505 0.0
O126 O 0.98164 0.62005 0.12216 0.0
Mn127 Mn 0.89702 0.71024 0.08376 0.0
O128 O 0.099 0.69863 0.12818 0.0
Mn129 Mn 0.05875 0.80333 0.10582 0.0
O130 O 0.83442 0.81987 0.06581 0.0
O131 O 0.83178 0.64297 1.01217 0.0
Mn132 Mn 0.73527 0.68819 0.9907 0.0
O133 O 0.8124 0.67182 0.17394 0.0
O134 O 0.74916 0.80213 0.96303 0.0
O135 O 0.95963 0.72822 0.97415 0.0
O136 O 0.04482 0.83105 0.9919 0.0
O137 O 0.7585 0.60186 0.9151 0.0
O138 O 0.69503 0.66576 0.09538 0.0
C139 C 0.96638 0.84042 0.20192 0.0
C140 C 0.05799 0.63299 0.1444 0.0
C141 C 0.78949 0.85044 1.01042 0.0
C142 C 0.82761 0.59224 0.95343 0.0
C143 C 0.73605 0.64957 0.16102 0.0
C144 C 1.00451 0.78366 0.94358 0.0
O145 O 0.96226 0.78181 0.15104 0.0
O146 O 0.03544 0.87882 0.19223 0.0
O147 O 0.67393 0.73167 0.37218 0.0
Mn148 Mn 0.58375 0.64704 0.33376 0.0
O149 O 0.59532 0.84901 0.37821 0.0
Mn150 Mn 0.49063 0.80876 0.3558 0.0
O151 O 0.47413 0.58445 0.31578 0.0
O152 O 0.65104 0.58178 0.26221 0.0
Mn153 Mn 0.60584 0.48526 0.24076 0.0
O154 O 0.62211 0.56246 0.42398 0.0
O155 O 0.4919 0.49913 0.21306 0.0
O156 O 0.5658 0.70965 0.22414 0.0
O157 O 0.46295 0.79483 0.24187 0.0
O158 O 0.6922 0.50848 0.16519 0.0
O159 O 0.62822 0.44504 0.34547 0.0
C160 C 0.45352 0.71637 0.45188 0.0
C161 C 0.66097 0.80801 0.39442 0.0
C162 C 0.44358 0.53948 0.26041 0.0
C163 C 0.7018 0.57759 0.2035 0.0
C164 C 0.64427 0.48607 0.41113 0.0
C165 C 0.51036 0.75452 0.19357 0.0
O166 O 0.51215 0.71227 0.40102 0.0
O167 O 0.41511 0.78542 0.44219 0.0
O168 O 0.17187 0.37004 0.23157 0.0
Mn169 Mn 0.21025 0.46026 0.14699 0.0
O170 O 0.16575 0.44857 0.34897 0.0
Mn171 Mn 0.18817 0.55328 0.30877 0.0
O172 O 0.22823 0.56992 0.08444 0.0
O173 O 0.28182 0.39301 0.08172 0.0
Mn174 Mn 0.30328 0.43821 0.98521 0.0
O175 O 0.12004 0.4219 0.06239 0.0
O176 O 0.33093 0.55216 0.99908 0.0
O177 O 0.31987 0.47821 0.2096 0.0
O178 O 0.30211 0.58096 0.29488 0.0
O179 O 0.37889 0.35189 1.00846 0.0
O180 O 0.19858 0.41576 0.945 0.0
C181 C 0.09224 0.59055 0.2164 0.0
C182 C 0.14971 0.3829 0.30795 0.0
C183 C 0.28359 0.60048 0.03945 0.0
C184 C 0.34057 0.34228 0.07756 0.0
C185 C 0.13291 0.39973 0.98602 0.0
C186 C 0.35043 0.5336 0.25454 0.0
O187 O 0.14297 0.53181 0.21226 0.0
O188 O 0.10184 0.62888 0.2855 0.0
O189 O 0.67191 0.17397 0.8124 0.0
Mn190 Mn 0.71027 0.08377 0.89701 0.0
O191 O 0.66579 0.09542 0.69501 0.0
Mn192 Mn 0.68823 0.99073 0.73524 0.0
O193 O 0.72822 0.97415 0.95961 0.0
O194 O 0.78183 0.15105 0.96226 0.0
Mn195 Mn 0.8033 0.10586 0.05877 0.0
O196 O 0.62005 0.12217 0.98158 0.0
O197 O 0.83097 0.99191 0.04491 0.0
O198 O 0.81992 0.06579 0.83445 0.0
O199 O 0.80216 0.96306 0.74912 0.0
O200 O 0.87892 0.19217 0.03549 0.0
O201 O 0.6986 0.12831 0.09898 0.0
C202 C 0.59229 0.95344 0.82758 0.0
C203 C 0.64975 0.16109 0.73602 0.0
C204 C 0.78361 0.94359 1.00456 0.0
C205 C 0.84058 0.20177 0.9664 0.0
C206 C 0.63293 0.14434 0.05796 0.0
C207 C 0.85048 1.01041 0.78949 0.0
O208 O 0.64301 1.01219 0.83174 0.0
O209 O 0.6019 0.91511 0.75848 0.0
O210 O 0.87216 0.87003 0.31242 0.0
Mn211 Mn 0.83375 0.96025 0.39698 0.0
O212 O 0.8783 0.94856 0.19502 0.0
Mn213 Mn 0.85585 0.05327 0.23521 0.0
O214 O 0.81574 0.0699 0.45951 0.0
O215 O 0.76217 0.89299 0.46225 0.0
Mn216 Mn 0.7407 0.93821 0.55875 0.0
O217 O 0.92395 0.9219 0.48161 0.0
O218 O 0.71304 0.05215 0.54486 0.0
O219 O 0.72413 0.97817 0.33435 0.0
O220 O 0.7419 0.08094 0.24907 0.0
O221 O 0.66509 0.85189 0.5355 0.0
O222 O 0.84539 0.91577 0.59899 0.0
C223 C 0.95176 0.09056 0.32759 0.0
C224 C 0.89433 0.88289 0.23604 0.0
C225 C 0.76037 0.10046 0.50447 0.0
C226 C 0.70342 0.84227 0.46641 0.0
C227 C 0.91107 0.89973 0.55798 0.0
C228 C 0.69358 0.03357 0.2894 0.0
O229 O 0.90104 0.03181 0.33173 0.0
O230 O 0.94216 0.12889 0.25848 0.0
O231 O 0.42396 0.62213 0.56238 0.0
Mn232 Mn 0.33377 0.58375 0.64699 0.0
O233 O 0.3454 0.62827 0.445 0.0
Mn234 Mn 0.24071 0.6058 0.48523 0.0
O235 O 0.22415 0.5658 0.7096 0.0
O236 O 0.40105 0.51218 0.71224 0.0
Mn237 Mn 0.35585 0.4907 0.80875 0.0
O238 O 0.37217 0.67395 0.73158 0.0
O239 O 0.24191 0.46302 0.79486 0.0
O240 O 0.31577 0.47411 0.58443 0.0
O241 O 0.21306 0.49186 0.49909 0.0
O242 O 0.44217 0.41509 0.78548 0.0
O243 O 0.37829 0.5954 0.84897 0.0
C244 C 0.20341 0.70172 0.57758 0.0
C245 C 0.41107 0.64431 0.48601 0.0
C246 C 0.19359 0.51039 0.75453 0.0
C247 C 0.45177 0.45342 0.71639 0.0
C248 C 0.39433 0.66107 0.80796 0.0
C249 C 0.26041 0.44354 0.53947 0.0
O250 O 0.26217 0.65101 0.58174 0.0
O251 O 0.16508 0.69211 0.50848 0.0
loop_
_geom_bond_atom_site_label_1
_geom_bond_atom_site_label_2
_geom_bond_distance
_geom_bond_site_symmetry_2
_ccdc_geom_bond_type
O0 Mn1 2.163 . S
O0 C14 1.244 1_455 S
Mn1 O0 2.163 . S
Mn1 O4 2.160 . S
Mn1 O5 2.221 . S
Mn1 O7 2.163 . S
Mn1 O9 2.160 . S
Mn1 O19 2.221 . S
O2 Mn3 2.087 . S
O2 C14 1.256 . S
Mn3 O2 2.087 . S
Mn3 O10 2.089 . S
Mn3 O19 2.290 1_655 S
Mn3 O20 2.251 1_655 S
O4 Mn1 2.160 . S
O4 C15 1.239 . S
O5 Mn1 2.221 . S
O5 Mn6 2.290 . S
O5 C16 1.278 . S
Mn6 O5 2.290 . S
Mn6 O8 2.089 . S
Mn6 O11 2.251 . S
Mn6 O12 2.087 . S
O7 Mn1 2.163 . S
O7 C17 1.244 . S
O8 Mn6 2.089 . S
O8 C15 1.256 . S
O9 Mn1 2.160 . S
O9 C18 1.239 1_455 S
O10 Mn3 2.089 . S
O10 C18 1.256 . S
O11 Mn6 2.251 . S
O11 C16 1.241 . S
O12 Mn6 2.087 . S
O12 C17 1.256 . S
C13 O19 1.278 . S
C13 O20 1.241 . S
C14 O0 1.244 1_655 S
C14 O2 1.256 . S
C15 O4 1.239 . S
C15 O8 1.256 . S
C16 O5 1.278 . S
C16 O11 1.241 . S
C17 O7 1.244 . S
C17 O12 1.256 . S
C18 O9 1.239 1_655 S
C18 O10 1.256 . S
O19 Mn1 2.221 . S
O19 Mn3 2.290 1_455 S
O19 C13 1.278 . S
O20 Mn3 2.251 1_455 S
O20 C13 1.241 . S
O21 Mn22 2.163 . S
O21 C35 1.244 . S
Mn22 O21 2.163 . S
Mn22 O25 2.160 1_455 S
Mn22 O26 2.221 . S
Mn22 O28 2.163 . S
Mn22 O30 2.160 1_455 S
Mn22 O40 2.221 1_455 S
O23 Mn24 2.087 1_455 S
O23 C35 1.256 . S
Mn24 O23 2.087 1_655 S
Mn24 O31 2.089 . S
Mn24 O40 2.290 . S
Mn24 O41 2.251 . S
O25 Mn22 2.160 1_655 S
O25 C36 1.239 1_565 S
O26 Mn22 2.221 . S
O26 Mn27 2.290 1_565 S
O26 C37 1.278 . S
Mn27 O26 2.290 1_545 S
Mn27 O29 2.089 . S
Mn27 O32 2.251 1_545 S
Mn27 O33 2.087 . S
O28 Mn22 2.163 . S
O28 C38 1.244 1_565 S
O29 Mn27 2.089 . S
O29 C36 1.256 1_455 S
O30 Mn22 2.160 1_655 S
O30 C39 1.239 . S
O31 Mn24 2.089 . S
O31 C39 1.256 . S
O32 Mn27 2.251 1_565 S
O32 C37 1.241 . S
O33 Mn27 2.087 . S
O33 C38 1.256 . S
C34 O40 1.278 . S
C34 O41 1.241 . S
C35 O21 1.244 . S
C35 O23 1.256 . S
C36 O25 1.239 1_545 S
C36 O29 1.256 1_655 S
C37 O26 1.278 . S
C37 O32 1.241 . S
C38 O28 1.244 1_545 S
C38 O33 1.256 . S
C39 O30 1.239 . S
C39 O31 1.256 . S
O40 Mn22 2.221 1_655 S
O40 Mn24 2.290 . S
O40 C34 1.278 . S
O41 Mn24 2.251 . S
O41 C34 1.241 . S
O42 Mn43 2.163 . S
O42 C56 1.244 . S
Mn43 O42 2.163 . S
Mn43 O46 2.160 1_556 S
Mn43 O47 2.221 . S
Mn43 O49 2.163 . S
Mn43 O51 2.160 1_556 S
Mn43 O61 2.221 1_556 S
O44 Mn45 2.087 1_556 S
O44 C56 1.256 . S
Mn45 O44 2.087 1_554 S
Mn45 O52 2.089 . S
Mn45 O61 2.290 . S
Mn45 O62 2.251 . S
O46 Mn43 2.160 1_554 S
O46 C57 1.239 . S
O47 Mn43 2.221 . S
O47 Mn48 2.290 . S
O47 C58 1.278 . S
Mn48 O47 2.290 . S
Mn48 O50 2.089 . S
Mn48 O53 2.251 . S
Mn48 O54 2.087 . S
O49 Mn43 2.163 . S
O49 C59 1.244 . S
O50 Mn48 2.089 . S
O50 C57 1.256 1_556 S
O51 Mn43 2.160 1_554 S
O51 C60 1.239 . S
O52 Mn45 2.089 . S
O52 C60 1.256 . S
O53 Mn48 2.251 . S
O53 C58 1.241 . S
O54 Mn48 2.087 . S
O54 C59 1.256 . S
C55 O61 1.278 . S
C55 O62 1.241 . S
C56 O42 1.244 . S
C56 O44 1.256 . S
C57 O46 1.239 . S
C57 O50 1.256 1_554 S
C58 O47 1.278 . S
C58 O53 1.241 . S
C59 O49 1.244 . S
C59 O54 1.256 . S
C60 O51 1.239 . S
C60 O52 1.256 . S
O61 Mn43 2.221 1_554 S
O61 Mn45 2.290 . S
O61 C55 1.278 . S
O62 Mn45 2.251 . S
O62 C55 1.241 . S
O63 Mn64 2.163 . S
O63 C77 1.244 1_545 S
Mn64 O63 2.163 . S
Mn64 O67 2.160 . S
Mn64 O68 2.221 . S
Mn64 O70 2.163 . S
Mn64 O72 2.160 . S
Mn64 O82 2.221 . S
O65 Mn66 2.087 . S
O65 C77 1.256 . S
Mn66 O65 2.087 . S
Mn66 O73 2.089 . S
Mn66 O82 2.290 1_565 S
Mn66 O83 2.251 1_565 S
O67 Mn64 2.160 . S
O67 C78 1.239 . S
O68 Mn64 2.221 . S
O68 Mn69 2.290 . S
O68 C79 1.278 . S
Mn69 O68 2.290 . S
Mn69 O71 2.089 . S
Mn69 O74 2.251 . S
Mn69 O75 2.087 . S
O70 Mn64 2.163 . S
O70 C80 1.244 . S
O71 Mn69 2.089 . S
O71 C78 1.256 . S
O72 Mn64 2.160 . S
O72 C81 1.239 1_545 S
O73 Mn66 2.089 . S
O73 C81 1.256 . S
O74 Mn69 2.251 . S
O74 C79 1.241 . S
O75 Mn69 2.087 . S
O75 C80 1.256 . S
C76 O82 1.278 . S
C76 O83 1.241 . S
C77 O63 1.244 1_565 S
C77 O65 1.256 . S
C78 O67 1.239 . S
C78 O71 1.256 . S
C79 O68 1.278 . S
C79 O74 1.241 . S
C80 O70 1.244 . S
C80 O75 1.256 . S
C81 O72 1.239 1_565 S
C81 O73 1.256 . S
O82 Mn64 2.221 . S
O82 Mn66 2.290 1_545 S
O82 C76 1.278 . S
O83 Mn66 2.251 1_545 S
O83 C76 1.241 . S
O84 Mn85 2.163 . S
O84 C98 1.244 . S
Mn85 O84 2.163 . S
Mn85 O88 2.160 . S
Mn85 O89 2.221 . S
Mn85 O91 2.163 . S
Mn85 O93 2.160 . S
Mn85 O103 2.221 . S
O86 Mn87 2.087 . S
O86 C98 1.256 . S
Mn87 O86 2.087 . S
Mn87 O94 2.089 . S
Mn87 O103 2.290 . S
Mn87 O104 2.251 . S
O88 Mn85 2.160 . S
O88 C99 1.239 . S
O89 Mn85 2.221 . S
O89 Mn90 2.290 . S
O89 C100 1.278 . S
Mn90 O89 2.290 . S
Mn90 O92 2.089 . S
Mn90 O95 2.251 . S
Mn90 O96 2.087 . S
O91 Mn85 2.163 . S
O91 C101 1.244 . S
O92 Mn90 2.089 . S
O92 C99 1.256 . S
O93 Mn85 2.160 . S
O93 C102 1.239 . S
O94 Mn87 2.089 . S
O94 C102 1.256 . S
O95 Mn90 2.251 . S
O95 C100 1.241 . S
O96 Mn90 2.087 . S
O96 C101 1.256 . S
C97 O103 1.278 . S
C97 O104 1.241 . S
C98 O84 1.244 . S
C98 O86 1.256 . S
C99 O88 1.239 . S
C99 O92 1.256 . S
C100 O89 1.278 . S
C100 O95 1.241 . S
C101 O91 1.244 . S
C101 O96 1.256 . S
C102 O93 1.239 . S
C102 O94 1.256 . S
O103 Mn85 2.221 . S
O103 Mn87 2.290 . S
O103 C97 1.278 . S
O104 Mn87 2.251 . S
O104 C97 1.241 . S
O105 Mn106 2.163 . S
O105 C119 1.244 . S
Mn106 O105 2.163 . S
Mn106 O109 2.160 1_655 S
Mn106 O110 2.221 1_655 S
Mn106 O112 2.163 . S
Mn106 O114 2.160 1_655 S
Mn106 O124 2.221 . S
O107 Mn108 2.087 . S
O107 C119 1.256 . S
Mn108 O107 2.087 . S
Mn108 O115 2.089 . S
Mn108 O124 2.290 . S
Mn108 O125 2.251 . S
O109 Mn106 2.160 1_455 S
O109 C120 1.239 . S
O110 Mn106 2.221 1_455 S
O110 Mn111 2.290 . S
O110 C121 1.278 . S
Mn111 O110 2.290 . S
Mn111 O113 2.089 . S
Mn111 O116 2.251 . S
Mn111 O117 2.087 1_455 S
O112 Mn106 2.163 . S
O112 C122 1.244 . S
O113 Mn111 2.089 . S
O113 C120 1.256 . S
O114 Mn106 2.160 1_455 S
O114 C123 1.239 . S
O115 Mn108 2.089 . S
O115 C123 1.256 1_655 S
O116 Mn111 2.251 . S
O116 C121 1.241 . S
O117 Mn111 2.087 1_655 S
O117 C122 1.256 . S
C118 O124 1.278 . S
C118 O125 1.241 . S
C119 O105 1.244 . S
C119 O107 1.256 . S
C120 O109 1.239 . S
C120 O113 1.256 . S
C121 O110 1.278 . S
C121 O116 1.241 . S
C122 O112 1.244 . S
C122 O117 1.256 . S
C123 O114 1.239 . S
C123 O115 1.256 1_455 S
O124 Mn106 2.221 . S
O124 Mn108 2.290 . S
O124 C118 1.278 . S
O125 Mn108 2.251 . S
O125 C118 1.241 . S
O126 Mn127 2.163 . S
O126 C140 1.244 1_655 S
Mn127 O126 2.163 . S
Mn127 O130 2.160 1_554 S
Mn127 O131 2.221 1_554 S
Mn127 O133 2.163 . S
Mn127 O135 2.160 1_554 S
Mn127 O145 2.221 . S
O128 Mn129 2.087 . S
O128 C140 1.256 . S
Mn129 O128 2.087 . S
Mn129 O136 2.089 . S
Mn129 O145 2.290 1_455 S
Mn129 O146 2.251 1_455 S
O130 Mn127 2.160 1_556 S
O130 C141 1.239 . S
O131 Mn127 2.221 1_556 S
O131 Mn132 2.290 . S
O131 C142 1.278 . S
Mn132 O131 2.290 . S
Mn132 O134 2.089 . S
Mn132 O137 2.251 . S
Mn132 O138 2.087 1_556 S
O133 Mn127 2.163 . S
O133 C143 1.244 . S
O134 Mn132 2.089 . S
O134 C141 1.256 . S
O135 Mn127 2.160 1_556 S
O135 C144 1.239 1_655 S
O136 Mn129 2.089 . S
O136 C144 1.256 1_554 S
O137 Mn132 2.251 . S
O137 C142 1.241 . S
O138 Mn132 2.087 1_554 S
O138 C143 1.256 . S
C139 O145 1.278 . S
C139 O146 1.241 . S
C140 O126 1.244 1_455 S
C140 O128 1.256 . S
C141 O130 1.239 . S
C141 O134 1.256 . S
C142 O131 1.278 . S
C142 O137 1.241 . S
C143 O133 1.244 . S
C143 O138 1.256 . S
C144 O135 1.239 1_455 S
C144 O136 1.256 1_556 S
O145 Mn127 2.221 . S
O145 Mn129 2.290 1_655 S
O145 C139 1.278 . S
O146 Mn129 2.251 1_655 S
O146 C139 1.241 . S
O147 Mn148 2.163 . S
O147 C161 1.244 . S
Mn148 O147 2.163 . S
Mn148 O151 2.160 . S
Mn148 O152 2.221 . S
Mn148 O154 2.163 . S
Mn148 O156 2.160 . S
Mn148 O166 2.221 . S
O149 Mn150 2.087 . S
O149 C161 1.256 . S
Mn150 O149 2.087 . S
Mn150 O157 2.089 . S
Mn150 O166 2.290 . S
Mn150 O167 2.251 . S
O151 Mn148 2.160 . S
O151 C162 1.239 . S
O152 Mn148 2.221 . S
O152 Mn153 2.290 . S
O152 C163 1.278 . S
Mn153 O152 2.290 . S
Mn153 O155 2.089 . S
Mn153 O158 2.251 . S
Mn153 O159 2.087 . S
O154 Mn148 2.163 . S
O154 C164 1.244 . S
O155 Mn153 2.089 . S
O155 C162 1.256 . S
O156 Mn148 2.160 . S
O156 C165 1.239 . S
O157 Mn150 2.089 . S
O157 C165 1.256 . S
O158 Mn153 2.251 . S
O158 C163 1.241 . S
O159 Mn153 2.087 . S
O159 C164 1.256 . S
C160 O166 1.278 . S
C160 O167 1.241 . S
C161 O147 1.244 . S
C161 O149 1.256 . S
C162 O151 1.239 . S
C162 O155 1.256 . S
C163 O152 1.278 . S
C163 O158 1.241 . S
C164 O154 1.244 . S
C164 O159 1.256 . S
C165 O156 1.239 . S
C165 O157 1.256 . S
O166 Mn148 2.221 . S
O166 Mn150 2.290 . S
O166 C160 1.278 . S
O167 Mn150 2.251 . S
O167 C160 1.241 . S
O168 Mn169 2.163 . S
O168 C182 1.244 . S
Mn169 O168 2.163 . S
Mn169 O172 2.160 . S
Mn169 O173 2.221 . S
Mn169 O175 2.163 . S
Mn169 O177 2.160 . S
Mn169 O187 2.221 . S
O170 Mn171 2.087 . S
O170 C182 1.256 . S
Mn171 O170 2.087 . S
Mn171 O178 2.089 . S
Mn171 O187 2.290 . S
Mn171 O188 2.251 . S
O172 Mn169 2.160 . S
O172 C183 1.239 1_554 S
O173 Mn169 2.221 . S
O173 Mn174 2.290 1_554 S
O173 C184 1.278 . S
Mn174 O173 2.290 1_556 S
Mn174 O176 2.089 . S
Mn174 O179 2.251 1_556 S
Mn174 O180 2.087 . S
O175 Mn169 2.163 . S
O175 C185 1.244 1_554 S
O176 Mn174 2.089 . S
O176 C183 1.256 . S
O177 Mn169 2.160 . S
O177 C186 1.239 . S
O178 Mn171 2.089 . S
O178 C186 1.256 . S
O179 Mn174 2.251 1_554 S
O179 C184 1.241 . S
O180 Mn174 2.087 . S
O180 C185 1.256 . S
C181 O187 1.278 . S
C181 O188 1.241 . S
C182 O168 1.244 . S
C182 O170 1.256 . S
C183 O172 1.239 1_556 S
C183 O176 1.256 . S
C184 O173 1.278 . S
C184 O179 1.241 . S
C185 O175 1.244 1_556 S
C185 O180 1.256 . S
C186 O177 1.239 . S
C186 O178 1.256 . S
O187 Mn169 2.221 . S
O187 Mn171 2.290 . S
O187 C181 1.278 . S
O188 Mn171 2.251 . S
O188 C181 1.241 . S
O189 Mn190 2.163 . S
O189 C203 1.244 . S
Mn190 O189 2.163 . S
Mn190 O193 2.160 1_545 S
Mn190 O194 2.221 . S
Mn190 O196 2.163 . S
Mn190 O198 2.160 1_545 S
Mn190 O208 2.221 1_545 S
O191 Mn192 2.087 1_545 S
O191 C203 1.256 . S
Mn192 O191 2.087 1_565 S
Mn192 O199 2.089 . S
Mn192 O208 2.290 . S
Mn192 O209 2.251 . S
O193 Mn190 2.160 1_565 S
O193 C204 1.239 1_556 S
O194 Mn190 2.221 . S
O194 Mn195 2.290 1_556 S
O194 C205 1.278 . S
Mn195 O194 2.290 1_554 S
Mn195 O197 2.089 . S
Mn195 O200 2.251 1_554 S
Mn195 O201 2.087 . S
O196 Mn190 2.163 . S
O196 C206 1.244 1_556 S
O197 Mn195 2.089 . S
O197 C204 1.256 1_545 S
O198 Mn190 2.160 1_565 S
O198 C207 1.239 . S
O199 Mn192 2.089 . S
O199 C207 1.256 . S
O200 Mn195 2.251 1_556 S
O200 C205 1.241 . S
O201 Mn195 2.087 . S
O201 C206 1.256 . S
C202 O208 1.278 . S
C202 O209 1.241 . S
C203 O189 1.244 . S
C203 O191 1.256 . S
C204 O193 1.239 1_554 S
C204 O197 1.256 1_565 S
C205 O194 1.278 . S
C205 O200 1.241 . S
C206 O196 1.244 1_554 S
C206 O201 1.256 . S
C207 O198 1.239 . S
C207 O199 1.256 . S
O208 Mn190 2.221 1_565 S
O208 Mn192 2.290 . S
O208 C202 1.278 . S
O209 Mn192 2.251 . S
O209 C202 1.241 . S
O210 Mn211 2.163 . S
O210 C224 1.244 . S
Mn211 O210 2.163 . S
Mn211 O214 2.160 1_565 S
Mn211 O215 2.221 . S
Mn211 O217 2.163 . S
Mn211 O219 2.160 1_565 S
Mn211 O229 2.221 1_565 S
O212 Mn213 2.087 1_565 S
O212 C224 1.256 . S
Mn213 O212 2.087 1_545 S
Mn213 O220 2.089 . S
Mn213 O229 2.290 . S
Mn213 O230 2.251 . S
O214 Mn211 2.160 1_545 S
O214 C225 1.239 . S
O215 Mn211 2.221 . S
O215 Mn216 2.290 . S
O215 C226 1.278 . S
Mn216 O215 2.290 . S
Mn216 O218 2.089 . S
Mn216 O221 2.251 . S
Mn216 O222 2.087 . S
O217 Mn211 2.163 . S
O217 C227 1.244 . S
O218 Mn216 2.089 . S
O218 C225 1.256 1_565 S
O219 Mn211 2.160 1_545 S
O219 C228 1.239 . S
O220 Mn213 2.089 . S
O220 C228 1.256 . S
O221 Mn216 2.251 . S
O221 C226 1.241 . S
O222 Mn216 2.087 . S
O222 C227 1.256 . S
C223 O229 1.278 . S
C223 O230 1.241 . S
C224 O210 1.244 . S
C224 O212 1.256 . S
C225 O214 1.239 . S
C225 O218 1.256 1_545 S
C226 O215 1.278 . S
C226 O221 1.241 . S
C227 O217 1.244 . S
C227 O222 1.256 . S
C228 O219 1.239 . S
C228 O220 1.256 . S
O229 Mn211 2.221 1_545 S
O229 Mn213 2.290 . S
O229 C223 1.278 . S
O230 Mn213 2.251 . S
O230 C223 1.241 . S
O231 Mn232 2.163 . S
O231 C245 1.244 . S
Mn232 O231 2.163 . S
Mn232 O235 2.160 . S
Mn232 O236 2.221 . S
Mn232 O238 2.163 . S
Mn232 O240 2.160 . S
Mn232 O250 2.221 . S
O233 Mn234 2.087 . S
O233 C245 1.256 . S
Mn234 O233 2.087 . S
Mn234 O241 2.089 . S
Mn234 O250 2.290 . S
Mn234 O251 2.251 . S
O235 Mn232 2.160 . S
O235 C246 1.239 . S
O236 Mn232 2.221 . S
O236 Mn237 2.290 . S
O236 C247 1.278 . S
Mn237 O236 2.290 . S
Mn237 O239 2.089 . S
Mn237 O242 2.251 . S
Mn237 O243 2.087 . S
O238 Mn232 2.163 . S
O238 C248 1.244 . S
O239 Mn237 2.089 . S
O239 C246 1.256 . S
O240 Mn232 2.160 . S
O240 C249 1.239 . S
O241 Mn234 2.089 . S
O241 C249 1.256 . S
O242 Mn237 2.251 . S
O242 C247 1.241 . S
O243 Mn237 2.087 . S
O243 C248 1.256 . S
C244 O250 1.278 . S
C244 O251 1.241 . S
C245 O231 1.244 . S
C245 O233 1.256 . S
C246 O235 1.239 . S
C246 O239 1.256 . S
C247 O236 1.278 . S
C247 O242 1.241 . S
C248 O238 1.244 . S
C248 O243 1.256 . S
C249 O240 1.239 . S
C249 O241 1.256 . S
O250 Mn232 2.221 . S
O250 Mn234 2.290 . S
O250 C244 1.278 . S
O251 Mn234 2.251 . S
O251 C244 1.241 . S
C15 C249 2.944 . S
C207 C36 2.944 1_565 S
C60 C183 2.944 1_554 S
C81 C228 2.944 1_565 S
C102 C225 2.944 . S
C123 C246 2.944 . S
C204 C141 2.944 1_554 S
C162 C186 2.944 . S
C78 C99 2.944 . S
C18 C120 2.944 1_655 S
C39 C144 2.944 1_655 S
C165 C57 2.944 . S
C13 C182 1.293 . S
C34 C227 1.293 . S
C248 C58 1.293 . S
C79 C206 1.293 . S
C100 C203 1.294 . S
C185 C121 1.293 . S
C224 C139 1.293 . S
C245 C160 1.293 . S
C17 C76 1.293 . S
C16 C38 1.293 . S
C37 C56 1.293 . S
C77 C55 1.293 . S
C118 C98 1.293 . S
C119 C142 1.293 . S
C143 C163 1.294 . S
C97 C164 1.293 . S
C184 C80 1.293 . S
C122 C205 1.293 . S
C181 C140 1.293 . S
C226 C161 1.293 . S
C101 C247 1.293 . S
C244 C35 1.294 . S
C59 C202 1.293 . S
C223 C14 1.293 . S
