# Generated by pormake.
# Topology noz, (5)-cn, num edge types: 1
# Building blocks:
#     Node 0, Type 0, BuildingBlock: XOMCOT_clean_sbu_1, # of connection points: 5
#     Node 1, Type 0, BuildingBlock: XOMCOT_clean_sbu_1, # of connection points: 5
#     Node 2, Type 0, BuildingBlock: XOMCOT_clean_sbu_1, # of connection points: 5
#     Node 3, Type 0, BuildingBlock: XOMCOT_clean_sbu_1, # of connection points: 5
#     Node 4, Type 0, BuildingBlock: XOMCOT_clean_sbu_1, # of connection points: 5
#     Node 5, Type 0, BuildingBlock: XOMCOT_clean_sbu_1, # of connection points: 5
#     Node 6, Type 0, BuildingBlock: XOMCOT_clean_sbu_1, # of connection points: 5
#     Node 7, Type 0, BuildingBlock: XOMCOT_clean_sbu_1, # of connection points: 5
#     Edge 8, Type (0, 0), BuildingBlock: XUDNAN_clean_linker_2, # of connection points: 2
#     Edge 9, Type (0, 0), BuildingBlock: XUDNAN_clean_linker_2, # of connection points: 2
#     Edge 10, Type (0, 0), BuildingBlock: XUDNAN_clean_linker_2, # of connection points: 2
#     Edge 11, Type (0, 0), BuildingBlock: XUDNAN_clean_linker_2, # of connection points: 2
#     Edge 12, Type (0, 0), BuildingBlock: XUDNAN_clean_linker_2, # of connection points: 2
#     Edge 13, Type (0, 0), BuildingBlock: XUDNAN_clean_linker_2, # of connection points: 2
#     Edge 14, Type (0, 0), BuildingBlock: XUDNAN_clean_linker_2, # of connection points: 2
#     Edge 15, Type (0, 0), BuildingBlock: XUDNAN_clean_linker_2, # of connection points: 2
#     Edge 16, Type (0, 0), BuildingBlock: XUDNAN_clean_linker_2, # of connection points: 2
#     Edge 17, Type (0, 0), BuildingBlock: XUDNAN_clean_linker_2, # of connection points: 2
#     Edge 18, Type (0, 0), BuildingBlock: XUDNAN_clean_linker_2, # of connection points: 2
#     Edge 19, Type (0, 0), BuildingBlock: XUDNAN_clean_linker_2, # of connection points: 2
#     Edge 20, Type (0, 0), BuildingBlock: XUDNAN_clean_linker_2, # of connection points: 2
#     Edge 21, Type (0, 0), BuildingBlock: XUDNAN_clean_linker_2, # of connection points: 2
#     Edge 22, Type (0, 0), BuildingBlock: XUDNAN_clean_linker_2, # of connection points: 2
#     Edge 23, Type (0, 0), BuildingBlock: XUDNAN_clean_linker_2, # of connection points: 2
#     Edge 24, Type (0, 0), BuildingBlock: XUDNAN_clean_linker_2, # of connection points: 2
#     Edge 25, Type (0, 0), BuildingBlock: XUDNAN_clean_linker_2, # of connection points: 2
#     Edge 26, Type (0, 0), BuildingBlock: XUDNAN_clean_linker_2, # of connection points: 2
#     Edge 27, Type (0, 0), BuildingBlock: XUDNAN_clean_linker_2, # of connection points: 2
# Relax obj value: 0.078
# Max RMSD: 0.163
# Mean RMSD: 0.163
data_MOF--net-noz--node1-XOMCOT_clean_sbu_1--edge1-XUDNAN_clean_linker_2
_symmetry_space_group_name_H-M    P1
_symmetry_Int_Tables_number       1
_symmetry_cell_setting            triclinic
loop_
_symmetry_equiv_pos_as_xyz
'x, y, z'
_cell_length_a     23.724852
_cell_length_b     50.282625
_cell_length_c     36.335291
_cell_angle_alpha  90.030254
_cell_angle_beta   89.760924
_cell_angle_gamma 90.492351
loop_
_atom_site_label
_atom_site_type_symbol
_atom_site_fract_x
_atom_site_fract_y
_atom_site_fract_z
_atom_type_partial_charge
C0 C 0.12795 0.374 0.35325 0.0
C1 C 0.08288 0.37551 0.32968 0.0
N2 N 0.04679 0.35547 0.33762 0.0
N3 N 0.12047 0.35313 0.37606 0.0
C4 C 0.07076 0.34209 0.3657 0.0
H5 H 0.16318 0.38775 0.3545 0.0
Co6 Co 0.16801 0.34556 0.41547 0.0
C7 C 0.0931 0.31465 0.4669 0.0
O8 O 0.10951 0.32892 0.49516 0.0
N9 N 0.21756 0.3381 0.45579 0.0
C10 C 0.25923 0.33802 0.51089 0.0
C11 C 0.21848 0.34946 0.48969 0.0
C12 C 0.25963 0.31997 0.45735 0.0
N13 N 0.28515 0.31955 0.4905 0.0
O14 O 0.20303 0.3183 0.38632 0.0
H15 H 0.19024 0.36463 0.49951 0.0
H16 H 0.27091 0.30678 0.43508 0.0
O17 O 0.1128 0.31968 0.43478 0.0
C18 C 0.24143 0.32908 0.36654 0.0
O19 O 0.25131 0.35468 0.37026 0.0
N20 N 0.13665 0.3744 0.44051 0.0
C21 C 0.10295 0.42307 0.46948 0.0
C22 C 0.06397 0.40208 0.4656 0.0
C23 C 0.08163 0.37782 0.4506 0.0
C24 C 0.17381 0.39518 0.44189 0.0
C25 C 0.15829 0.41944 0.45703 0.0
H26 H 0.05091 0.36217 0.44624 0.0
H27 H 0.21619 0.39267 0.43141 0.0
H28 H 0.05119 0.32531 0.37942 0.0
H29 H 0.07691 0.39041 0.30859 0.0
H30 H 0.26918 0.34293 0.53917 0.0
H31 H 1.02043 0.40444 0.47396 0.0
H32 H 0.1891 0.43544 0.45826 0.0
C33 C 0.61834 0.67168 0.8421 0.0
C34 C 0.66753 0.67212 0.82207 0.0
N35 N 0.71008 0.67885 0.84474 0.0
N36 N 0.6296 0.67807 0.87734 0.0
C37 C 0.68602 0.68244 0.87817 0.0
H38 H 0.57714 0.66618 0.83187 0.0
Co39 Co 0.57544 0.67653 0.91456 0.0
C40 C 0.61713 0.71201 0.97573 0.0
O41 O 0.58222 0.70101 0.99945 0.0
N42 N 0.51858 0.67443 0.95139 0.0
C43 C 0.45825 0.65971 0.99406 0.0
C44 C 0.50231 0.65295 0.97124 0.0
C45 C 0.48232 0.69374 0.96191 0.0
N46 N 0.44579 0.68542 0.98819 0.0
O47 O 0.53315 0.70359 0.88936 0.0
H48 H 0.5207 0.63342 0.96922 0.0
H49 H 0.48404 0.71386 0.95138 0.0
O50 O 0.61862 0.70372 0.94237 0.0
C51 C 0.48998 0.69315 0.87403 0.0
O52 O 0.4807 0.66753 0.87846 0.0
N53 N 0.61447 0.64807 0.93594 0.0
C54 C 0.65556 0.59943 0.96035 0.0
C55 C 0.66483 0.62265 0.98088 0.0
C56 C 0.64464 0.64699 0.96788 0.0
C57 C 0.60621 0.62566 0.91546 0.0
C58 C 0.6269 0.60119 0.92692 0.0
H59 H 0.65231 0.66445 0.98416 0.0
H60 H 0.5818 0.62672 0.89044 0.0
H61 H 0.70931 0.68686 0.90301 0.0
H62 H 0.67186 0.66746 0.79311 0.0
H63 H 0.4365 0.64657 1.01306 0.0
H64 H 0.68697 0.62191 1.00687 0.0
H65 H 0.61843 0.5836 0.91056 0.0
C66 C 0.12548 0.64272 0.68227 0.0
C67 C 0.0913 0.64021 0.71268 0.0
N68 N 0.07451 0.66463 0.72291 0.0
N69 N 0.129 0.66856 0.67245 0.0
C70 C 0.09984 0.68155 0.69899 0.0
H71 H 0.14453 0.6265 0.66731 0.0
Co72 Co 0.16611 0.68128 0.62987 0.0
C73 C 0.05132 0.70963 0.62187 0.0
O74 O 0.02289 0.6968 0.64744 0.0
N75 N 0.20397 0.69374 0.58751 0.0
C76 C 0.21957 0.70336 0.5286 0.0
C77 C 0.18066 0.69431 0.55368 0.0
C78 C 0.25742 0.70273 0.58222 0.0
N79 N 0.26797 0.70864 0.54645 0.0
O80 O 0.19883 0.70935 0.65871 0.0
H81 H 0.13802 0.68808 0.54744 0.0
H82 H 0.28835 0.70442 0.60391 0.0
O83 O 0.10295 0.70408 0.61542 0.0
C84 C 0.24083 0.69987 0.67591 0.0
O85 O 0.25461 0.67497 0.67006 0.0
N86 N 0.13783 0.65216 0.60267 0.0
C87 C 0.10872 0.60407 0.56873 0.0
C88 C 0.06694 0.62176 0.58065 0.0
C89 C 0.08237 0.64571 0.59761 0.0
C90 C 0.17895 0.63538 0.59093 0.0
C91 C 0.16542 0.61146 0.57352 0.0
H92 H 0.04957 0.65823 0.60805 0.0
H93 H 0.22272 0.64041 0.59579 0.0
H94 H 0.09379 0.70286 0.69917 0.0
H95 H 0.0776 0.62173 0.72526 0.0
H96 H 0.21255 0.70609 0.49943 0.0
H97 H 0.02264 0.61675 0.57824 0.0
H98 H 0.19931 0.59877 0.56429 0.0
C99 C 0.61429 0.37966 0.18381 0.0
C100 C 0.6553 0.38155 0.21047 0.0
N101 N 0.68523 0.35888 0.21021 0.0
N102 N 0.61875 0.35602 0.16659 0.0
C103 C 0.66182 0.34368 0.1836 0.0
H104 H 0.58441 0.39488 0.17651 0.0
Co105 Co 0.57837 0.34501 0.12528 0.0
C106 C 0.64654 0.29798 0.10451 0.0
O107 O 0.60473 0.2815 0.11183 0.0
N108 N 0.53852 0.33367 0.08311 0.0
C109 C 0.52195 0.32333 0.02459 0.0
C110 C 0.5615 0.33241 0.04908 0.0
C111 C 0.48467 0.32508 0.07848 0.0
N112 N 0.47355 0.3187 0.04304 0.0
O113 O 0.54329 0.31749 0.15449 0.0
H114 H 0.6047 0.3376 0.04246 0.0
H115 H 0.45392 0.32368 0.10043 0.0
O116 O 0.64063 0.32284 0.10995 0.0
C117 C 0.49978 0.3285 0.16833 0.0
O118 O 0.48939 0.35327 0.15909 0.0
N119 N 0.60828 0.37384 0.09894 0.0
C120 C 0.64254 0.42114 0.06535 0.0
C121 C 0.68232 0.40204 0.07558 0.0
C122 C 0.66433 0.37859 0.09295 0.0
C123 C 0.56917 0.39217 0.08921 0.0
C124 C 0.58534 0.41593 0.0723 0.0
H125 H 0.69548 0.36477 0.10267 0.0
H126 H 0.5251 0.38844 0.09518 0.0
H127 H 0.67747 0.32439 0.17556 0.0
H128 H 0.66304 0.39846 0.22824 0.0
H129 H 0.52878 0.31984 0.99552 0.0
H130 H 0.72696 0.40558 0.07129 0.0
H131 H 0.55331 0.43012 0.06472 0.0
C132 C 0.62827 0.87329 0.34967 0.0
C133 C 0.58469 0.8744 0.32494 0.0
N134 N 0.54892 0.85406 0.33196 0.0
N135 N 0.62017 0.85238 0.3723 0.0
C136 C 0.5716 0.84089 0.36069 0.0
H137 H 0.66305 0.88725 0.35167 0.0
Co138 Co 0.66677 0.84508 0.41216 0.0
C139 C 0.59213 0.8144 0.4636 0.0
O140 O 0.60876 0.82915 0.49133 0.0
N141 N 0.7157 0.83787 0.4529 0.0
C142 C 0.75761 0.83829 0.50793 0.0
C143 C 0.71734 0.84982 0.48641 0.0
C144 C 0.75681 0.8193 0.45501 0.0
N145 N 0.78248 0.81919 0.4881 0.0
O146 O 0.70311 0.81808 0.38322 0.0
H147 H 0.68981 0.8654 0.49583 0.0
H148 H 0.76734 0.8056 0.43317 0.0
O149 O 0.61153 0.81897 0.43123 0.0
C150 C 0.7421 0.82948 0.3646 0.0
O151 O 0.75138 0.85499 0.36977 0.0
N152 N 0.63422 0.8738 0.43681 0.0
C153 C 0.59889 0.92232 0.46535 0.0
C154 C 0.56044 0.90116 0.46121 0.0
C155 C 0.57891 0.87697 0.44638 0.0
C156 C 0.67078 0.89481 0.4382 0.0
C157 C 0.65445 0.919 0.45317 0.0
H158 H 0.5486 0.86119 0.44178 0.0
H159 H 0.71337 0.89252 0.428 0.0
H160 H 0.55206 0.82383 0.37381 0.0
H161 H 0.57959 0.88918 0.30359 0.0
H162 H 0.76799 0.84358 0.536 0.0
H163 H 0.51672 0.9033 0.4693 0.0
H164 H 0.68487 0.93516 0.45457 0.0
C165 C 0.12102 0.1568 0.8492 0.0
C166 C 0.1684 0.1554 0.82735 0.0
N167 N 0.2095 0.17019 0.84296 0.0
N168 N 0.13195 0.17244 0.87848 0.0
C169 C 0.18624 0.18034 0.87389 0.0
H170 H 0.08148 0.14653 0.8445 0.0
Co171 Co 0.08189 0.17792 0.91742 0.0
C172 C 0.14483 0.2128 0.9699 0.0
O173 O 0.12246 0.20068 0.99852 0.0
N174 N 0.02989 0.18339 0.95698 0.0
C175 C 0.97501 0.17858 1.00663 0.0
C176 C 1.016 0.16707 0.98532 0.0
C177 C 0.99669 0.20491 0.96233 0.0
N178 N 0.96261 0.20237 0.9921 0.0
O179 O 0.04359 0.20408 0.88832 0.0
H180 H 0.03448 0.14805 0.99115 0.0
H181 H 0.99689 0.22208 0.94444 0.0
O182 O 0.13193 0.20528 0.93737 0.0
C183 C 1.0022 0.19323 0.87163 0.0
O184 O 0.99123 0.16796 0.87762 0.0
N185 N 0.11692 0.15005 0.94244 0.0
C186 C 0.1557 0.10201 0.97031 0.0
C187 C 0.18866 0.1252 0.97343 0.0
C188 C 0.16855 0.14921 0.95898 0.0
C189 C 0.08674 0.12723 0.93695 0.0
C190 C 0.10454 0.10316 0.95148 0.0
H191 H 0.19515 0.16668 0.9603 0.0
H192 H 0.04758 0.12798 0.92185 0.0
H193 H 0.20914 0.1924 0.89354 0.0
H194 H 0.17233 0.1442 0.80203 0.0
H195 H 0.95647 0.17016 0.03132 0.0
H196 H 0.22926 0.12475 0.98692 0.0
H197 H 0.07875 0.08549 0.94769 0.0
C198 C 0.62686 0.13892 0.67879 0.0
C199 C 0.59186 0.136 0.70875 0.0
N200 N 0.57447 0.16028 0.71934 0.0
N201 N 0.63066 0.16489 0.66976 0.0
C202 C 0.60087 0.1775 0.69628 0.0
H203 H 0.64617 0.12293 0.6635 0.0
Co204 Co 0.66745 0.17827 0.62763 0.0
C205 C 0.55386 0.20828 0.62166 0.0
O206 O 0.52439 0.19463 0.64588 0.0
N207 N 0.70492 0.19152 0.58536 0.0
C208 C 0.71903 0.2028 0.52679 0.0
C209 C 0.68071 0.19312 0.55185 0.0
C210 C 0.75832 0.20055 0.57985 0.0
N211 N 0.76793 0.20746 0.54435 0.0
O212 O 0.7037 0.20467 0.65796 0.0
H213 H 0.63771 0.18735 0.54584 0.0
H214 H 0.78996 0.20166 0.60112 0.0
O215 O 0.60541 0.20251 0.61515 0.0
C216 C 0.74801 0.1936 0.67028 0.0
O217 O 0.75925 0.16935 0.659 0.0
N218 N 0.6366 0.15042 0.59924 0.0
C219 C 0.60524 0.10289 0.56474 0.0
C220 C 0.56426 0.12084 0.57707 0.0
C221 C 0.58083 0.14452 0.59435 0.0
C222 C 0.67689 0.13347 0.58675 0.0
C223 C 0.66224 0.10985 0.56904 0.0
H224 H 0.54867 0.15719 0.60524 0.0
H225 H 0.7209 0.13805 0.59146 0.0
H226 H 0.59517 0.19882 0.69694 0.0
H227 H 0.57828 0.11731 0.72075 0.0
H228 H 0.7112 0.20645 0.49792 0.0
H229 H 0.51977 0.11616 0.57488 0.0
H230 H 0.69551 0.09695 0.55942 0.0
C231 C 0.1223 0.87674 0.17168 0.0
C232 C 0.16509 0.87859 0.19701 0.0
N233 N 0.19514 0.85598 0.19566 0.0
N234 N 0.12552 0.85317 0.15419 0.0
C235 C 0.16997 0.84081 0.16964 0.0
H236 H 0.09134 0.89181 0.16582 0.0
Co237 Co 0.07828 0.84256 0.11593 0.0
C238 C 0.15664 0.81103 0.069 0.0
O239 O 0.14474 0.82594 0.04054 0.0
N240 N 0.02844 0.83153 0.07677 0.0
C241 C 0.98302 0.82698 0.02312 0.0
C242 C 0.02839 0.83844 0.04065 0.0
C243 C 0.98204 0.8157 0.07996 0.0
N244 N 0.95366 0.81286 0.04806 0.0
O245 O 0.0427 0.81768 0.1492 0.0
H246 H 0.05835 0.85165 0.02746 0.0
H247 H 0.96834 0.80633 0.10518 0.0
O248 O 0.13349 0.81572 0.1002 0.0
C249 C 1.00296 0.83049 0.16485 0.0
O250 O 0.99482 0.85527 0.15477 0.0
N251 N 0.10984 0.86983 0.08681 0.0
C252 C 0.14582 0.919 0.05866 0.0
C253 C 0.18498 0.89913 0.06745 0.0
C254 C 0.16614 0.87473 0.08189 0.0
C255 C 0.07156 0.88903 0.07896 0.0
C256 C 0.08832 0.91325 0.06383 0.0
H257 H 0.19684 0.86046 0.09105 0.0
H258 H 0.02748 0.88569 0.08531 0.0
H259 H 0.18466 0.82142 0.16127 0.0
H260 H 0.17343 0.89531 0.215 0.0
H261 H 0.97118 0.82981 0.99466 0.0
H262 H 0.22985 0.90282 0.06497 0.0
H263 H 0.05615 0.92756 0.05711 0.0
H264 H 0.23525 0.33887 0.29433 0.0
H265 H 0.3203 0.28987 0.37405 0.0
H266 H 0.38995 0.27668 0.32631 0.0
H267 H 0.26678 0.29626 0.20953 0.0
H268 H 0.27595 0.32579 0.18198 0.0
H269 H 0.22602 0.3255 0.21953 0.0
H270 H 0.27518 0.36711 0.24726 0.0
H271 H 0.32539 0.36739 0.21025 0.0
H272 H 0.34954 0.36603 0.25718 0.0
H273 H 0.46116 0.27689 0.27278 0.0
H274 H 0.52341 0.29014 0.22056 0.0
H275 H 0.3893 0.33851 0.17681 0.0
C276 C 0.26686 0.32424 0.30107 0.0
C277 C 0.27179 0.31475 0.33733 0.0
C278 C 0.31494 0.29661 0.34599 0.0
C279 C 0.35478 0.28917 0.31905 0.0
C280 C 0.35021 0.29984 0.28363 0.0
C281 C 0.30641 0.31663 0.27456 0.0
C282 C 0.31426 0.32835 0.23657 0.0
C283 C 0.26801 0.31837 0.21035 0.0
C284 C 0.31625 0.35901 0.23794 0.0
C285 C 0.3709 0.31692 0.22637 0.0
C286 C 0.39083 0.30005 0.25331 0.0
C287 C 0.44521 0.28952 0.25115 0.0
C288 C 0.4803 0.29704 0.22137 0.0
C289 C 0.46097 0.31522 0.19465 0.0
C290 C 0.40502 0.32438 0.19671 0.0
H291 H 0.37861 0.68453 0.86586 0.0
H292 H 0.51621 0.7338 0.82596 0.0
H293 H 0.45568 0.74969 0.77508 0.0
H294 H 0.33857 0.6606 0.78536 0.0
H295 H 0.26369 0.65981 0.79399 0.0
H296 H 0.3118 0.65829 0.83179 0.0
H297 H 0.26485 0.69948 0.86147 0.0
H298 H 0.21611 0.70106 0.82358 0.0
H299 H 0.25849 0.72974 0.8353 0.0
H300 H 0.38794 0.75138 0.7211 0.0
H301 H 0.32111 0.7391 0.6714 0.0
H302 H 0.22795 0.68934 0.74758 0.0
C303 C 0.39518 0.69953 0.84725 0.0
C304 C 0.45175 0.70813 0.84983 0.0
C305 C 0.47257 0.72737 0.82477 0.0
C306 C 0.43844 0.73642 0.79576 0.0
C307 C 0.38339 0.72643 0.79284 0.0
C308 C 0.36167 0.70875 0.81851 0.0
C309 C 0.30461 0.69802 0.80704 0.0
C310 C 0.30476 0.6674 0.80436 0.0
C311 C 0.25827 0.70766 0.83342 0.0
C312 C 0.29914 0.71083 0.76962 0.0
C313 C 0.34415 0.72773 0.76211 0.0
C314 C 0.35159 0.73898 0.72721 0.0
C315 C 0.31334 0.73207 0.69915 0.0
C316 C 0.26864 0.71403 0.70628 0.0
C317 C 0.26061 0.70403 0.7421 0.0
H318 H 0.97764 0.63662 0.72906 0.0
H319 H 0.0652 0.70629 0.77032 0.0
H320 H 0.98272 0.71655 0.81033 0.0
H321 H 0.84437 0.6667 0.72268 0.0
H322 H 0.80559 0.63705 0.73515 0.0
H323 H 0.87319 0.63439 0.71289 0.0
H324 H 0.90911 0.60526 0.76662 0.0
H325 H 0.84154 0.60781 0.78908 0.0
H326 H 0.90469 0.61761 0.81313 0.0
H327 H 0.88785 0.71859 0.84587 0.0
H328 H 0.78859 0.71486 0.86779 0.0
H329 H 0.76454 0.64517 0.79942 0.0
C330 C 0.97996 0.65373 0.74711 0.0
C331 C 0.02811 0.6704 0.74729 0.0
C332 C 0.02876 0.69319 0.77017 0.0
C333 C 0.98225 0.69905 0.79298 0.0
C334 C 0.93525 0.68209 0.7921 0.0
C335 C 0.93383 0.66004 0.76936 0.0
C336 C 0.87736 0.64594 0.77105 0.0
C337 C 0.84843 0.64604 0.7332 0.0
C338 C 0.88357 0.61747 0.78586 0.0
C339 C 0.8468 0.66344 0.79825 0.0
C340 C 0.88083 0.684 0.81067 0.0
C341 C 0.86098 0.70258 0.83616 0.0
C342 C 0.80477 0.70029 0.8486 0.0
C343 C 0.76899 0.67989 0.83499 0.0
C344 C 0.79081 0.66115 0.80991 0.0
H345 H 0.7642 0.39418 0.23444 0.0
H346 H 0.72005 0.31034 0.233 0.0
H347 H 0.80752 0.30015 0.26689 0.0
H348 H 0.91115 0.38585 0.21948 0.0
H349 H 0.93196 0.4129 0.24917 0.0
H350 H 0.86471 0.41362 0.22643 0.0
H351 H 0.81436 0.41927 0.28936 0.0
H352 H 0.88151 0.4187 0.31229 0.0
H353 H 0.82674 0.39551 0.32551 0.0
H354 H 0.90084 0.29931 0.3009 0.0
H355 H 0.9935 0.30773 0.32994 0.0
H356 H 0.97648 0.39204 0.30796 0.0
C357 C 0.77245 0.37373 0.24175 0.0
C358 C 0.73507 0.35306 0.23127 0.0
C359 C 0.7482 0.32646 0.2406 0.0
C360 C 0.79764 0.32051 0.25998 0.0
C361 C 0.83376 0.34137 0.26967 0.0
C362 C 0.8218 0.36744 0.26076 0.0
C363 C 0.86843 0.38612 0.27314 0.0
C364 C 0.89566 0.40046 0.24008 0.0
C365 C 0.84643 0.40607 0.30178 0.0
C366 C 0.90863 0.36651 0.29031 0.0
C367 C 0.88777 0.34081 0.28833 0.0
C368 C 0.91753 0.31937 0.30259 0.0
C369 C 0.97001 0.32434 0.31917 0.0
C370 C 0.99248 0.3505 0.32107 0.0
C371 C 0.961 0.37177 0.30646 0.0
H372 H 0.73974 0.84321 0.29361 0.0
H373 H 0.81782 0.78851 0.36921 0.0
H374 H 0.88775 0.77641 0.32097 0.0
H375 H 0.76885 0.80451 0.20566 0.0
H376 H 0.78153 0.83505 0.18093 0.0
H377 H 0.73111 0.83416 0.21819 0.0
H378 H 0.78422 0.87311 0.24986 0.0
H379 H 0.83503 0.87395 0.21318 0.0
H380 H 0.85817 0.86976 0.26 0.0
H381 H 0.95962 0.77718 0.26729 0.0
H382 H 0.02263 0.79035 0.21535 0.0
H383 H 0.89509 0.84459 0.17661 0.0
C384 C 0.76994 0.82771 0.29929 0.0
C385 C 0.77282 0.81624 0.33455 0.0
C386 C 0.81406 0.79684 0.34185 0.0
C387 C 0.85406 0.79002 0.31466 0.0
C388 C 0.85155 0.8026 0.28035 0.0
C389 C 0.80961 0.82072 0.27255 0.0
C390 C 0.81925 0.83406 0.23578 0.0
C391 C 0.7724 0.82648 0.20853 0.0
C392 C 0.82451 0.8645 0.24 0.0
C393 C 0.87471 0.8218 0.22479 0.0
C394 C 0.89254 0.80329 0.25024 0.0
C395 C 0.94531 0.79123 0.24688 0.0
C396 C 0.98085 0.79875 0.21731 0.0
C397 C 0.96367 0.81846 0.19204 0.0
C398 C 0.90935 0.8294 0.19546 0.0
H399 H 0.85758 0.18221 0.68082 0.0
H400 H 0.72336 0.23168 0.72289 0.0
H401 H 0.78372 0.24439 0.77594 0.0
H402 H 0.8929 0.15463 0.76156 0.0
H403 H 0.96764 0.15297 0.75285 0.0
H404 H 0.91932 0.15299 0.71502 0.0
H405 H 0.9705 0.1941 0.68712 0.0
H406 H 1.01934 0.19415 0.72501 0.0
H407 H 0.97982 0.22365 0.71461 0.0
H408 H 0.85339 0.24468 0.83002 0.0
H409 H 0.92238 0.23207 0.87817 0.0
H410 H 1.00849 0.18199 0.79967 0.0
C411 C 0.84142 0.19641 0.70057 0.0
C412 C 0.78594 0.20608 0.69772 0.0
C413 C 0.7661 0.22437 0.72429 0.0
C414 C 0.80013 0.23161 0.75452 0.0
C415 C 0.85406 0.22071 0.75731 0.0
C416 C 0.87463 0.20372 0.73059 0.0
C417 C 0.93059 0.19198 0.74149 0.0
C418 C 0.92735 0.16135 0.74283 0.0
C419 C 0.97786 0.20155 0.71551 0.0
C420 C 0.93731 0.20381 0.77945 0.0
C421 C 0.8936 0.22085 0.788 0.0
C422 C 0.88849 0.23197 0.82316 0.0
C423 C 0.92793 0.22487 0.8503 0.0
C424 C 0.97132 0.20669 0.84207 0.0
C425 C 0.97666 0.19663 0.8061 0.0
H426 H 0.27036 0.13447 0.80367 0.0
H427 H 0.27896 0.21292 0.85301 0.0
H428 H 0.37637 0.21853 0.82923 0.0
H429 H 0.41491 0.11626 0.82148 0.0
H430 H 0.42232 0.0986 0.77857 0.0
H431 H 0.35428 0.10071 0.80051 0.0
H432 H 0.31237 0.12097 0.7411 0.0
H433 H 0.38016 0.11879 0.71895 0.0
H434 H 0.34464 0.15029 0.72137 0.0
H435 H 0.47198 0.21619 0.7962 0.0
H436 H 0.55677 0.20545 0.75904 0.0
H437 H 0.48391 0.12838 0.73298 0.0
C438 C 0.29255 0.15289 0.80941 0.0
C439 C 0.26685 0.17332 0.83006 0.0
C440 C 0.2979 0.19692 0.83747 0.0
C441 C 0.35319 0.20031 0.82397 0.0
C442 C 0.37706 0.17979 0.80343 0.0
C443 C 0.34769 0.15647 0.79645 0.0
C444 C 0.38223 0.13749 0.77345 0.0
C445 C 0.39414 0.11174 0.79479 0.0
C446 C 0.35312 0.13155 0.73653 0.0
C447 C 0.43543 0.15384 0.76805 0.0
C448 C 0.43189 0.1782 0.78547 0.0
C449 C 0.47531 0.19704 0.78279 0.0
C450 C 0.52325 0.19083 0.76158 0.0
C451 C 0.52754 0.16594 0.7435 0.0
C452 C 0.48294 0.14728 0.7472 0.0
H453 H 0.2731 0.89124 0.22103 0.0
H454 H 0.23135 0.80717 0.21694 0.0
H455 H 0.31747 0.79717 0.25245 0.0
H456 H 0.42177 0.88412 0.20994 0.0
H457 H 0.4391 0.91107 0.24072 0.0
H458 H 0.37371 0.91139 0.21576 0.0
H459 H 0.31838 0.91609 0.27706 0.0
H460 H 0.38362 0.91582 0.30221 0.0
H461 H 0.32875 0.89207 0.31317 0.0
H462 H 0.40852 0.79677 0.28965 0.0
H463 H 0.4983 0.80584 0.32213 0.0
H464 H 0.47937 0.89011 0.30069 0.0
C465 C 0.28164 0.87074 0.22792 0.0
C466 C 0.24524 0.84999 0.21638 0.0
C467 C 0.25878 0.82337 0.22529 0.0
C468 C 0.30743 0.81752 0.24562 0.0
C469 C 0.34232 0.83851 0.25663 0.0
C470 C 0.33008 0.86458 0.24788 0.0
C471 C 0.37487 0.88352 0.26211 0.0
C472 C 0.40409 0.89839 0.23023 0.0
C473 C 0.3499 0.90302 0.29031 0.0
C474 C 0.41436 0.86409 0.28026 0.0
C475 C 0.39482 0.83823 0.27709 0.0
C476 C 0.4242 0.81696 0.29219 0.0
C477 C 0.47499 0.82229 0.31073 0.0
C478 C 0.49611 0.84864 0.31374 0.0
C479 C 0.46496 0.86971 0.29835 0.0
H480 H 0.16294 0.55664 0.57883 0.0
H481 H 1.02044 0.59147 0.52246 0.0
H482 H 0.99722 0.54758 0.49557 0.0
H483 H 0.20647 0.51621 0.5048 0.0
H484 H 0.22857 0.48913 0.53369 0.0
H485 H 0.23007 0.52262 0.55109 0.0
H486 H 0.16699 0.50812 0.60611 0.0
H487 H 0.16499 0.47456 0.5887 0.0
H488 H 0.1002 0.49198 0.59744 0.0
H489 H 0.99295 0.49983 0.47213 0.0
H490 H 1.01179 0.45369 0.45159 0.0
H491 H 0.1589 0.4515 0.52184 0.0
C492 C 0.12692 0.55521 0.56072 0.0
C493 C 0.0936 0.57765 0.55281 0.0
C494 C 0.04625 0.57457 0.52942 0.0
C495 C 0.03279 0.54971 0.51392 0.0
C496 C 0.06699 0.5281 0.52209 0.0
C497 C 0.11321 0.53071 0.54486 0.0
C498 C 0.14537 0.50497 0.5477 0.0
C499 C 0.2062 0.50845 0.53346 0.0
C500 C 0.14429 0.49428 0.58734 0.0
C501 C 0.11076 0.48754 0.52235 0.0
C502 C 0.06519 0.50102 0.50821 0.0
C503 C 0.02828 0.48904 0.48325 0.0
C504 C 0.03908 0.46283 0.47189 0.0
C505 C 0.08674 0.44913 0.48517 0.0
C506 C 0.1222 0.46156 0.51122 0.0
H507 H 0.61958 0.57608 0.0238 0.0
H508 H 0.72393 0.56295 0.92754 0.0
H509 H 0.74032 0.51654 0.94753 0.0
H510 H 0.69631 0.5321 0.08849 0.0
H511 H 0.63183 0.52049 0.10969 0.0
H512 H 0.636 0.55361 0.09085 0.0
H513 H 0.54884 0.54346 0.05026 0.0
H514 H 0.54468 0.51032 0.0687 0.0
H515 H 0.54998 0.51522 1.01967 0.0
H516 H 0.73884 0.4706 0.97563 0.0
H517 H 0.7157 0.42838 1.00762 0.0
H518 H 0.6083 0.47125 0.08367 0.0
C519 C 0.64733 0.56361 1.00767 0.0
C520 C 0.67157 0.57305 0.97462 0.0
C521 C 0.70581 0.55603 0.95325 0.0
C522 C 0.71533 0.52973 0.96442 0.0
C523 C 0.68981 0.52077 0.99683 0.0
C524 C 0.65641 0.53721 1.01811 0.0
C525 C 0.62903 0.52205 0.04952 0.0
C526 C 0.64954 0.5327 0.08685 0.0
C527 C 0.56431 0.52281 0.04685 0.0
C528 C 0.65118 0.4944 0.04216 0.0
C529 C 0.687 0.49413 1.01207 0.0
C530 C 0.71124 0.47063 0.99942 0.0
C531 C 0.698 0.44678 1.01775 0.0
C532 C 0.66016 0.44659 0.04798 0.0
C533 C 0.63713 0.47081 0.06049 0.0
H534 H 0.65772 0.05525 0.57567 0.0
H535 H 0.51658 0.09063 0.51856 0.0
H536 H 0.49273 0.04673 0.49171 0.0
H537 H 0.70155 0.01482 0.50225 0.0
H538 H 0.7229 0.98765 0.53122 0.0
H539 H 0.72446 0.02111 0.54872 0.0
H540 H 0.66031 1.00669 0.60326 0.0
H541 H 0.65828 0.97316 0.58575 0.0
H542 H 0.59352 0.9907 0.59408 0.0
H543 H 0.48855 0.99896 0.46792 0.0
H544 H 0.50784 0.95292 0.44706 0.0
H545 H 0.65343 0.95034 0.51857 0.0
C546 C 0.62182 0.05393 0.55745 0.0
C547 C 0.58918 0.07651 0.54917 0.0
C548 C 0.54192 0.0736 0.52568 0.0
C549 C 0.52811 0.04874 0.51024 0.0
C550 C 0.56182 0.027 0.51866 0.0
C551 C 0.60778 0.02946 0.54169 0.0
C552 C 0.63963 1.00366 0.5447 0.0
C553 C 0.70073 1.00702 0.53089 0.0
C554 C 0.63779 0.99292 0.5843 0.0
C555 C 0.60526 0.98636 0.51908 0.0
C556 C 0.55999 0.99994 0.50469 0.0
C557 C 0.5236 0.9881 0.47928 0.0
C558 C 0.53464 0.96195 0.46772 0.0
C559 C 0.58205 0.94819 0.48126 0.0
C560 C 0.61691 0.96045 0.50778 0.0
H561 H 0.09646 0.96693 0.07457 0.0
H562 H 0.23631 0.93267 1.01394 0.0
H563 H 0.26212 0.97743 0.99083 0.0
H564 H 0.05407 1.00927 1.0037 0.0
H565 H 0.03227 0.03562 0.0341 0.0
H566 H 0.03051 1.00171 0.04979 0.0
H567 H 0.09388 0.01466 0.10506 0.0
H568 H 0.09617 0.04864 0.08934 0.0
H569 H 0.1608 0.03088 0.09677 0.0
H570 H 0.26786 0.02616 0.97057 0.0
H571 H 0.2484 0.0727 0.95185 0.0
H572 H 0.10092 0.07309 0.0224 0.0
C573 C 0.1325 0.96859 0.05634 0.0
C574 C 0.16408 0.94602 0.04601 0.0
C575 C 0.21171 0.94957 0.02273 0.0
C576 C 0.22664 0.97496 1.00936 0.0
C577 C 0.19358 0.99662 1.0195 0.0
C578 C 0.14732 0.99355 0.04237 0.0
C579 C 0.11541 0.01927 0.04672 0.0
C580 C 0.05449 0.01628 0.03273 0.0
C581 C 0.11667 0.02893 0.08686 0.0
C582 C 0.1501 0.03728 0.02206 0.0
C583 C 0.19576 0.02412 1.00712 0.0
C584 C 0.23254 0.03667 0.98239 0.0
C585 C 0.22143 0.06308 0.97205 0.0
C586 C 0.17353 0.07633 0.986 0.0
C587 C 0.13817 0.06338 1.01173 0.0
H588 H 0.29229 0.29438 0.55578 0.0
H589 H 0.37982 0.30729 0.45246 0.0
H590 H 0.46133 0.28166 0.47574 0.0
H591 H 0.41078 0.29916 0.61548 0.0
H592 H 0.3872 0.2729 0.64572 0.0
H593 H 0.33649 0.29232 0.62092 0.0
H594 H 0.29376 0.24937 0.5926 0.0
H595 H 0.34388 0.2298 0.61767 0.0
H596 H 0.33905 0.22662 0.56837 0.0
H597 H 0.53531 0.25691 0.51262 0.0
H598 H 0.59007 0.22955 0.55579 0.0
H599 H 0.45024 0.2304 0.63314 0.0
C600 C 0.32868 0.29172 0.53813 0.0
C601 C 0.33036 0.30288 0.50251 0.0
C602 C 0.37802 0.29874 0.47979 0.0
C603 C 0.42445 0.28442 0.4929 0.0
C604 C 0.42186 0.27406 0.52852 0.0
C605 C 0.37467 0.2771 0.5505 0.0
C606 C 0.38128 0.26315 0.58711 0.0
C607 C 0.3788 0.28308 0.61919 0.0
C608 C 0.33687 0.24091 0.59169 0.0
C609 C 0.43984 0.25193 0.58253 0.0
C610 C 0.46293 0.25873 0.5488 0.0
C611 C 0.51729 0.25117 0.53888 0.0
C612 C 0.54816 0.23564 0.56366 0.0
C613 C 0.52421 0.2274 0.59764 0.0
C614 C 0.46962 0.2361 0.60725 0.0
H615 H 0.38812 0.72732 0.96039 0.0
H616 H 0.40689 0.67868 0.05802 0.0
H617 H 0.33452 0.70536 0.08991 0.0
H618 H 0.36926 0.78966 1.00717 0.0
H619 H 0.31789 0.80161 0.97488 0.0
H620 H 0.37102 0.77857 0.95999 0.0
H621 H 0.29327 0.74637 0.93641 0.0
H622 H 0.23989 0.76931 0.95122 0.0
H623 H 0.23835 0.73545 0.96748 0.0
H624 H 0.26064 0.73836 0.11156 0.0
H625 H 0.18985 0.77381 0.12008 0.0
H626 H 0.21972 0.80006 1.0078 0.0
C627 C 0.37735 0.7224 0.98855 0.0
C628 C 0.40328 0.70091 1.0067 0.0
C629 C 0.3872 0.69486 0.04341 0.0
C630 C 0.34635 0.71 0.06182 0.0
C631 C 0.32168 0.73107 0.04312 0.0
C632 C 0.33646 0.73718 1.00723 0.0
C633 C 0.3033 0.76059 0.99308 0.0
C634 C 0.34273 0.78399 0.98321 0.0
C635 C 0.26652 0.75243 0.9601 0.0
C636 C 0.26767 0.76679 0.02664 0.0
C637 C 0.2789 0.74965 0.05531 0.0
C638 C 0.25139 0.75183 0.08922 0.0
C639 C 0.21127 0.77203 0.09383 0.0
C640 C 0.19895 0.78968 0.06463 0.0
C641 C 0.22778 0.78687 0.0307 0.0
H642 H 0.34539 0.74225 0.57711 0.0
H643 H 0.30619 0.69814 0.47776 0.0
H644 H 0.38805 0.71867 0.44645 0.0
H645 H 0.38505 0.80185 0.53321 0.0
H646 H 0.44167 0.80998 0.56427 0.0
H647 H 0.38295 0.79011 0.58007 0.0
H648 H 0.45118 0.75296 0.60026 0.0
H649 H 0.51023 0.77281 0.58473 0.0
H650 H 0.5004 0.73951 0.56737 0.0
H651 H 0.46993 0.74652 0.42429 0.0
H652 H 0.54749 0.77886 0.41377 0.0
H653 H 0.53421 0.80447 0.52762 0.0
C654 C 0.35486 0.7365 0.54906 0.0
C655 C 0.31927 0.71865 0.52985 0.0
C656 C 0.33245 0.712 0.49289 0.0
C657 C 0.37906 0.72345 0.47491 0.0
C658 C 0.41247 0.74148 0.49426 0.0
C659 C 0.40127 0.74785 0.5306 0.0
C660 C 0.44226 0.76881 0.54447 0.0
C661 C 0.41111 0.79419 0.55618 0.0
C662 C 0.47815 0.75786 0.57608 0.0
C663 C 0.47752 0.77348 0.51012 0.0
C664 C 0.45986 0.75744 0.4815 0.0
C665 C 0.48458 0.759 0.44663 0.0
C666 C 0.52852 0.77747 0.44087 0.0
C667 C 0.54722 0.79416 0.46983 0.0
C668 C 0.52138 0.79189 0.50491 0.0
H669 H 0.20158 0.22511 0.0337 0.0
H670 H 0.19123 0.24579 0.91792 0.0
H671 H 0.26994 0.27766 0.92567 0.0
H672 H 0.23981 0.29157 0.06809 0.0
H673 H 0.28807 0.27879 0.1018 0.0
H674 H 0.22773 0.25921 0.08809 0.0
H675 H 0.29331 0.22024 0.07045 0.0
H676 H 0.35375 0.23968 0.08411 0.0
H677 H 0.35023 0.22598 0.03832 0.0
H678 H 0.3525 0.30542 0.94487 0.0
H679 H 0.43561 0.32631 0.97373 0.0
H680 H 0.39472 0.28714 0.07691 0.0
C681 C 0.21521 0.23667 1.0101 0.0
C682 C 0.18984 0.23308 0.97522 0.0
C683 C 0.20975 0.24824 0.94492 0.0
C684 C 0.25437 0.26646 0.94907 0.0
C685 C 0.27878 0.26931 0.9837 0.0
C686 C 0.26003 0.25484 1.01371 0.0
C687 C 0.29599 0.26051 0.04734 0.0
C688 C 0.26079 0.27328 0.07815 0.0
C689 C 0.32504 0.23509 0.06083 0.0
C690 C 0.33832 0.28017 0.03139 0.0
C691 C 0.32722 0.2851 0.99471 0.0
C692 C 0.36148 0.30178 0.9736 0.0
C693 C 0.40883 0.31344 0.9902 0.0
C694 C 0.4219 0.30832 0.02755 0.0
C695 C 0.38548 0.29175 0.04849 0.0
H696 H 0.94764 0.73184 0.63292 0.0
H697 H 0.08584 0.72874 0.55447 0.0
H698 H 0.03058 0.75516 0.51053 0.0
H699 H 0.83493 0.7271 0.56921 0.0
H700 H 0.79073 0.75055 0.59299 0.0
H701 H 0.84111 0.73129 0.61831 0.0
H702 H 0.8861 0.77453 0.64423 0.0
H703 H 0.83545 0.79391 0.61933 0.0
H704 H 0.90979 0.80009 0.61287 0.0
H705 H 0.95683 0.77958 0.47338 0.0
H706 H 0.87591 0.80547 0.44984 0.0
H707 H 0.78982 0.79518 0.55424 0.0
C708 C 0.96646 0.7368 0.60657 0.0
C709 C 1.02081 0.72779 0.59694 0.0
C710 C 0.04412 0.73508 0.56237 0.0
C711 C 1.01297 0.75008 0.53716 0.0
C712 C 0.95897 0.75807 0.5472 0.0
C713 C 0.93641 0.75214 0.58139 0.0
C714 C 0.87827 0.76385 0.58598 0.0
C715 C 0.83364 0.74188 0.59197 0.0
C716 C 0.87738 0.78431 0.61746 0.0
C717 C 0.8714 0.77709 0.54891 0.0
C718 C 0.91802 0.77325 0.52668 0.0
C719 C 0.92037 0.78294 0.4907 0.0
C720 C 0.87428 0.79742 0.47746 0.0
C721 C 0.82722 0.80237 0.5004 0.0
C722 C 0.82575 0.79187 0.5364 0.0
H723 H 0.68395 0.24635 0.09846 0.0
H724 H 0.72698 0.32769 0.06894 0.0
H725 H 0.8123 0.31212 0.03718 0.0
H726 H 0.82718 0.22495 0.11504 0.0
H727 H 0.81575 0.19224 0.09603 0.0
H728 H 0.75806 0.20982 0.11697 0.0
H729 H 0.70024 0.20464 0.05701 0.0
H730 H 0.75778 0.1871 0.03586 0.0
H731 H 0.72974 0.21632 1.0141 0.0
H732 H 0.8922 0.28768 1.00709 0.0
H733 H 0.96262 0.2561 0.98313 0.0
H734 H 0.86793 0.1907 0.03184 0.0
C735 C 0.71143 0.26089 0.08544 0.0
C736 C 0.69881 0.28831 0.08655 0.0
C737 C 0.73595 0.30665 0.06908 0.0
C738 C 0.78449 0.29798 0.0507 0.0
C739 C 0.79565 0.27086 0.05006 0.0
C740 C 0.76039 0.25258 0.06711 0.0
C741 C 0.78232 0.22455 0.06236 0.0
C742 C 0.79669 0.21217 0.09983 0.0
C743 C 0.74 0.20713 0.04106 0.0
C744 C 0.83509 0.22998 0.0398 0.0
C745 C 0.84196 0.2568 0.03293 0.0
C746 C 0.88732 0.2666 1.01235 0.0
C747 C 0.92696 0.24849 0.99863 0.0
C748 C 0.92113 0.22088 1.00562 0.0
C749 C 0.87427 0.21167 0.02642 0.0
H750 H 0.03581 0.30274 0.53059 0.0
H751 H 0.04763 0.28087 0.41518 0.0
H752 H 0.96931 0.24872 0.42382 0.0
H753 H 1.00086 0.23651 0.56593 0.0
H754 H 0.95261 0.24913 0.60004 0.0
H755 H 1.01197 0.26912 0.58537 0.0
H756 H 0.94463 0.30738 0.568 0.0
H757 H 0.88515 0.28755 0.58263 0.0
H758 H 0.88745 0.30092 0.53662 0.0
H759 H 0.8865 0.22083 0.44425 0.0
H760 H 0.80447 0.19962 0.47454 0.0
H761 H 0.84623 0.23973 0.57666 0.0
C762 C 0.02249 0.29099 0.50715 0.0
C763 C 0.04805 0.29434 0.47215 0.0
C764 C 0.02882 0.2787 0.44223 0.0
C765 C 0.98444 0.26032 0.44691 0.0
C766 C 0.95992 0.25773 0.4817 0.0
C767 C 0.97832 0.2726 0.51133 0.0
C768 C 0.94316 0.26692 0.54545 0.0
C769 C 0.97932 0.25469 0.576 0.0
C770 C 0.91333 0.2922 0.55895 0.0
C771 C 0.90143 0.24681 0.53026 0.0
C772 C 0.91211 0.24168 0.49349 0.0
C773 C 0.87796 0.2246 0.47305 0.0
C774 C 0.83127 0.21277 0.49046 0.0
C775 C 0.81886 0.21804 0.52795 0.0
C776 C 0.8551 0.23499 0.54817 0.0
H777 H 0.71692 0.72884 0.94281 0.0
H778 H 0.61436 0.73785 0.0413 0.0
H779 H 0.68861 0.76544 0.0693 0.0
H780 H 0.84747 0.72276 0.98828 0.0
H781 H 0.88798 0.74155 0.95507 0.0
H782 H 0.82521 0.72403 0.94093 0.0
H783 H 0.78413 0.76762 0.91506 0.0
H784 H 0.84695 0.78534 0.92883 0.0
H785 H 0.77885 0.7964 0.94447 0.0
H786 H 0.77537 0.78885 0.08903 0.0
H787 H 0.86856 0.80992 0.09761 0.0
H788 H 0.9164 0.78696 0.98674 0.0
C789 C 0.70973 0.73702 0.96997 0.0
C790 C 0.65977 0.73108 0.98986 0.0
C791 C 0.65228 0.74198 0.02553 0.0
C792 C 0.69422 0.75772 0.04174 0.0
C793 C 0.74348 0.76259 0.02193 0.0
C794 C 0.7514 0.75288 0.9867 0.0
C795 C 0.80936 0.76057 0.97212 0.0
C796 C 0.84457 0.73575 0.96361 0.0
C797 C 0.80451 0.77856 0.9381 0.0
C798 C 0.83276 0.77577 1.0049 0.0
C799 C 0.79391 0.77659 0.03329 0.0
C800 C 0.80608 0.78856 0.06693 0.0
C801 C 0.85929 0.80026 0.07167 0.0
C802 C 0.89973 0.80003 0.0429 0.0
C803 C 0.88607 0.78766 1.00905 0.0
loop_
_geom_bond_atom_site_label_1
_geom_bond_atom_site_label_2
_geom_bond_distance
_geom_bond_site_symmetry_2
_ccdc_geom_bond_type
C0 C1 1.351 . S
C0 N3 1.368 . S
C0 H5 0.931 . S
C1 C0 1.351 . S
C1 N2 1.373 . S
C1 H29 0.930 . S
N2 C1 1.373 . S
N2 C4 1.340 . S
N3 C0 1.368 . S
N3 C4 1.321 . S
N3 Co6 2.135 . S
C4 N2 1.340 . S
C4 N3 1.321 . S
C4 H28 0.930 . S
H5 C0 0.931 . S
Co6 N3 2.135 . S
Co6 N9 2.121 . S
Co6 O14 2.055 . S
Co6 O17 2.039 . S
Co6 N20 2.140 . S
C7 O8 1.227 . S
C7 O17 1.265 . S
O8 C7 1.227 . S
N9 Co6 2.121 . S
N9 C11 1.375 . S
N9 C12 1.313 . S
C10 C11 1.338 . S
C10 N13 1.377 . S
C10 H30 0.930 . S
C11 N9 1.375 . S
C11 C10 1.338 . S
C11 H15 0.931 . S
C12 N9 1.313 . S
C12 N13 1.344 . S
C12 H16 0.930 . S
N13 C10 1.377 . S
N13 C12 1.344 . S
O14 Co6 2.055 . S
O14 C18 1.253 . S
H15 C11 0.931 . S
H16 C12 0.930 . S
O17 Co6 2.039 . S
O17 C7 1.265 . S
C18 O14 1.253 . S
C18 O19 1.227 . S
O19 C18 1.227 . S
N20 Co6 2.140 . S
N20 C23 1.346 . S
N20 C24 1.345 . S
C21 C22 1.387 . S
C21 C25 1.391 . S
C22 C21 1.387 . S
C22 C23 1.369 . S
C22 H31 0.929 . S
C23 N20 1.346 . S
C23 C22 1.369 . S
C23 H26 0.928 . S
C24 N20 1.345 . S
C24 C25 1.371 . S
C24 H27 0.931 . S
C25 C21 1.391 . S
C25 C24 1.371 . S
C25 H32 0.930 . S
H26 C23 0.928 . S
H27 C24 0.931 . S
H28 C4 0.930 . S
H29 C1 0.930 . S
H30 C10 0.930 . S
H31 C22 0.929 . S
H32 C25 0.930 . S
C33 C34 1.351 . S
C33 N36 1.368 . S
C33 H38 0.931 . S
C34 C33 1.351 . S
C34 N35 1.373 . S
C34 H62 0.930 . S
N35 C34 1.373 . S
N35 C37 1.340 . S
N36 C33 1.368 . S
N36 C37 1.321 . S
N36 Co39 2.135 . S
C37 N35 1.340 . S
C37 N36 1.321 . S
C37 H61 0.930 . S
H38 C33 0.931 . S
Co39 N36 2.135 . S
Co39 N42 2.121 . S
Co39 O47 2.055 . S
Co39 O50 2.039 . S
Co39 N53 2.140 . S
C40 O41 1.227 . S
C40 O50 1.265 . S
O41 C40 1.227 . S
N42 Co39 2.121 . S
N42 C44 1.375 . S
N42 C45 1.313 . S
C43 C44 1.338 . S
C43 N46 1.377 . S
C43 H63 0.930 1_556 S
C44 N42 1.375 . S
C44 C43 1.338 . S
C44 H48 0.931 . S
C45 N42 1.313 . S
C45 N46 1.344 . S
C45 H49 0.930 . S
N46 C43 1.377 . S
N46 C45 1.344 . S
O47 Co39 2.055 . S
O47 C51 1.253 . S
H48 C44 0.931 . S
H49 C45 0.930 . S
O50 Co39 2.039 . S
O50 C40 1.265 . S
C51 O47 1.253 . S
C51 O52 1.227 . S
O52 C51 1.227 . S
N53 Co39 2.140 . S
N53 C56 1.346 . S
N53 C57 1.345 . S
C54 C55 1.387 . S
C54 C58 1.391 . S
C55 C54 1.387 . S
C55 C56 1.369 . S
C55 H64 0.929 . S
C56 N53 1.346 . S
C56 C55 1.369 . S
C56 H59 0.928 . S
C57 N53 1.345 . S
C57 C58 1.371 . S
C57 H60 0.931 . S
C58 C54 1.391 . S
C58 C57 1.371 . S
C58 H65 0.930 . S
H59 C56 0.928 . S
H60 C57 0.931 . S
H61 C37 0.930 . S
H62 C34 0.930 . S
H63 C43 0.930 1_554 S
H64 C55 0.929 . S
H65 C58 0.930 . S
C66 C67 1.351 . S
C66 N69 1.368 . S
C66 H71 0.931 . S
C67 C66 1.351 . S
C67 N68 1.373 . S
C67 H95 0.930 . S
N68 C67 1.373 . S
N68 C70 1.340 . S
N69 C66 1.368 . S
N69 C70 1.321 . S
N69 Co72 2.135 . S
C70 N68 1.340 . S
C70 N69 1.321 . S
C70 H94 0.930 . S
H71 C66 0.931 . S
Co72 N69 2.135 . S
Co72 N75 2.121 . S
Co72 O80 2.055 . S
Co72 O83 2.039 . S
Co72 N86 2.140 . S
C73 O74 1.227 . S
C73 O83 1.265 . S
O74 C73 1.227 . S
N75 Co72 2.121 . S
N75 C77 1.375 . S
N75 C78 1.313 . S
C76 C77 1.338 . S
C76 N79 1.377 . S
C76 H96 0.930 . S
C77 N75 1.375 . S
C77 C76 1.338 . S
C77 H81 0.931 . S
C78 N75 1.313 . S
C78 N79 1.344 . S
C78 H82 0.930 . S
N79 C76 1.377 . S
N79 C78 1.344 . S
O80 Co72 2.055 . S
O80 C84 1.253 . S
H81 C77 0.931 . S
H82 C78 0.930 . S
O83 Co72 2.039 . S
O83 C73 1.265 . S
C84 O80 1.253 . S
C84 O85 1.227 . S
O85 C84 1.227 . S
N86 Co72 2.140 . S
N86 C89 1.346 . S
N86 C90 1.345 . S
C87 C88 1.387 . S
C87 C91 1.391 . S
C88 C87 1.387 . S
C88 C89 1.369 . S
C88 H97 0.929 . S
C89 N86 1.346 . S
C89 C88 1.369 . S
C89 H92 0.928 . S
C90 N86 1.345 . S
C90 C91 1.371 . S
C90 H93 0.931 . S
C91 C87 1.391 . S
C91 C90 1.371 . S
C91 H98 0.930 . S
H92 C89 0.928 . S
H93 C90 0.931 . S
H94 C70 0.930 . S
H95 C67 0.930 . S
H96 C76 0.930 . S
H97 C88 0.929 . S
H98 C91 0.930 . S
C99 C100 1.351 . S
C99 N102 1.368 . S
C99 H104 0.931 . S
C100 C99 1.351 . S
C100 N101 1.373 . S
C100 H128 0.930 . S
N101 C100 1.373 . S
N101 C103 1.340 . S
N102 C99 1.368 . S
N102 C103 1.321 . S
N102 Co105 2.135 . S
C103 N101 1.340 . S
C103 N102 1.321 . S
C103 H127 0.930 . S
H104 C99 0.931 . S
Co105 N102 2.135 . S
Co105 N108 2.121 . S
Co105 O113 2.055 . S
Co105 O116 2.039 . S
Co105 N119 2.140 . S
C106 O107 1.227 . S
C106 O116 1.265 . S
O107 C106 1.227 . S
N108 Co105 2.121 . S
N108 C110 1.375 . S
N108 C111 1.313 . S
C109 C110 1.338 . S
C109 N112 1.377 . S
C109 H129 0.930 1_554 S
C110 N108 1.375 . S
C110 C109 1.338 . S
C110 H114 0.931 . S
C111 N108 1.313 . S
C111 N112 1.344 . S
C111 H115 0.930 . S
N112 C109 1.377 . S
N112 C111 1.344 . S
O113 Co105 2.055 . S
O113 C117 1.253 . S
H114 C110 0.931 . S
H115 C111 0.930 . S
O116 Co105 2.039 . S
O116 C106 1.265 . S
C117 O113 1.253 . S
C117 O118 1.227 . S
O118 C117 1.227 . S
N119 Co105 2.140 . S
N119 C122 1.346 . S
N119 C123 1.345 . S
C120 C121 1.387 . S
C120 C124 1.391 . S
C121 C120 1.387 . S
C121 C122 1.369 . S
C121 H130 0.929 . S
C122 N119 1.346 . S
C122 C121 1.369 . S
C122 H125 0.928 . S
C123 N119 1.345 . S
C123 C124 1.371 . S
C123 H126 0.931 . S
C124 C120 1.391 . S
C124 C123 1.371 . S
C124 H131 0.930 . S
H125 C122 0.928 . S
H126 C123 0.931 . S
H127 C103 0.930 . S
H128 C100 0.930 . S
H129 C109 0.930 1_556 S
H130 C121 0.929 . S
H131 C124 0.930 . S
C132 C133 1.351 . S
C132 N135 1.368 . S
C132 H137 0.931 . S
C133 C132 1.351 . S
C133 N134 1.373 . S
C133 H161 0.930 . S
N134 C133 1.373 . S
N134 C136 1.340 . S
N135 C132 1.368 . S
N135 C136 1.321 . S
N135 Co138 2.135 . S
C136 N134 1.340 . S
C136 N135 1.321 . S
C136 H160 0.930 . S
H137 C132 0.931 . S
Co138 N135 2.135 . S
Co138 N141 2.121 . S
Co138 O146 2.055 . S
Co138 O149 2.039 . S
Co138 N152 2.140 . S
C139 O140 1.227 . S
C139 O149 1.265 . S
O140 C139 1.227 . S
N141 Co138 2.121 . S
N141 C143 1.375 . S
N141 C144 1.313 . S
C142 C143 1.338 . S
C142 N145 1.377 . S
C142 H162 0.930 . S
C143 N141 1.375 . S
C143 C142 1.338 . S
C143 H147 0.931 . S
C144 N141 1.313 . S
C144 N145 1.344 . S
C144 H148 0.930 . S
N145 C142 1.377 . S
N145 C144 1.344 . S
O146 Co138 2.055 . S
O146 C150 1.253 . S
H147 C143 0.931 . S
H148 C144 0.930 . S
O149 Co138 2.039 . S
O149 C139 1.265 . S
C150 O146 1.253 . S
C150 O151 1.227 . S
O151 C150 1.227 . S
N152 Co138 2.140 . S
N152 C155 1.346 . S
N152 C156 1.345 . S
C153 C154 1.387 . S
C153 C157 1.391 . S
C154 C153 1.387 . S
C154 C155 1.369 . S
C154 H163 0.929 . S
C155 N152 1.346 . S
C155 C154 1.369 . S
C155 H158 0.928 . S
C156 N152 1.345 . S
C156 C157 1.371 . S
C156 H159 0.931 . S
C157 C153 1.391 . S
C157 C156 1.371 . S
C157 H164 0.930 . S
H158 C155 0.928 . S
H159 C156 0.931 . S
H160 C136 0.930 . S
H161 C133 0.930 . S
H162 C142 0.930 . S
H163 C154 0.929 . S
H164 C157 0.930 . S
C165 C166 1.351 . S
C165 N168 1.368 . S
C165 H170 0.931 . S
C166 C165 1.351 . S
C166 N167 1.373 . S
C166 H194 0.930 . S
N167 C166 1.373 . S
N167 C169 1.340 . S
N168 C165 1.368 . S
N168 C169 1.321 . S
N168 Co171 2.135 . S
C169 N167 1.340 . S
C169 N168 1.321 . S
C169 H193 0.930 . S
H170 C165 0.931 . S
Co171 N168 2.135 . S
Co171 N174 2.127 . S
Co171 O179 2.055 . S
Co171 O182 2.039 . S
Co171 N185 2.140 . S
C172 O173 1.227 . S
C172 O182 1.265 . S
O173 C172 1.227 . S
N174 Co171 2.127 . S
N174 C176 1.377 . S
N174 C177 1.304 1_455 S
C175 C176 1.338 1_655 S
C175 N178 1.377 . S
C175 H195 0.930 1_556 S
C176 N174 1.377 . S
C176 C175 1.338 1_455 S
C176 H180 0.931 . S
C177 N174 1.304 1_655 S
C177 N178 1.344 . S
C177 H181 0.930 . S
N178 C175 1.377 . S
N178 C177 1.344 . S
O179 Co171 2.055 . S
O179 C183 1.253 1_455 S
H180 C176 0.931 . S
H181 C177 0.930 . S
O182 Co171 2.039 . S
O182 C172 1.265 . S
C183 O179 1.253 1_655 S
C183 O184 1.227 . S
O184 C183 1.227 . S
N185 Co171 2.140 . S
N185 C188 1.346 . S
N185 C189 1.345 . S
C186 C187 1.387 . S
C186 C190 1.391 . S
C187 C186 1.387 . S
C187 C188 1.369 . S
C187 H196 0.929 . S
C188 N185 1.346 . S
C188 C187 1.369 . S
C188 H191 0.928 . S
C189 N185 1.345 . S
C189 C190 1.371 . S
C189 H192 0.931 1_455 S
C190 C186 1.391 . S
C190 C189 1.371 . S
C190 H197 0.930 1_455 S
H191 C188 0.928 . S
H192 C189 0.931 1_655 S
H193 C169 0.930 . S
H194 C166 0.930 . S
H195 C175 0.930 1_554 S
H196 C187 0.929 . S
H197 C190 0.930 1_655 S
C198 C199 1.351 . S
C198 N201 1.368 . S
C198 H203 0.931 . S
C199 C198 1.351 . S
C199 N200 1.373 . S
C199 H227 0.930 . S
N200 C199 1.373 . S
N200 C202 1.340 . S
N201 C198 1.368 . S
N201 C202 1.321 . S
N201 Co204 2.135 . S
C202 N200 1.340 . S
C202 N201 1.321 . S
C202 H226 0.930 . S
H203 C198 0.931 . S
Co204 N201 2.135 . S
Co204 N207 2.121 . S
Co204 O212 2.055 . S
Co204 O215 2.039 . S
Co204 N218 2.140 . S
C205 O206 1.227 . S
C205 O215 1.265 . S
O206 C205 1.227 . S
N207 Co204 2.121 . S
N207 C209 1.375 . S
N207 C210 1.313 . S
C208 C209 1.338 . S
C208 N211 1.377 . S
C208 H228 0.930 . S
C209 N207 1.375 . S
C209 C208 1.338 . S
C209 H213 0.931 . S
C210 N207 1.313 . S
C210 N211 1.344 . S
C210 H214 0.930 . S
N211 C208 1.377 . S
N211 C210 1.344 . S
O212 Co204 2.055 . S
O212 C216 1.253 . S
H213 C209 0.931 . S
H214 C210 0.930 . S
O215 Co204 2.039 . S
O215 C205 1.265 . S
C216 O212 1.253 . S
C216 O217 1.227 . S
O217 C216 1.227 . S
N218 Co204 2.140 . S
N218 C221 1.346 . S
N218 C222 1.345 . S
C219 C220 1.387 . S
C219 C223 1.391 . S
C220 C219 1.387 . S
C220 C221 1.369 . S
C220 H229 0.929 . S
C221 N218 1.346 . S
C221 C220 1.369 . S
C221 H224 0.928 . S
C222 N218 1.345 . S
C222 C223 1.371 . S
C222 H225 0.931 . S
C223 C219 1.391 . S
C223 C222 1.371 . S
C223 H230 0.930 . S
H224 C221 0.928 . S
H225 C222 0.931 . S
H226 C202 0.930 . S
H227 C199 0.930 . S
H228 C208 0.930 . S
H229 C220 0.929 . S
H230 C223 0.930 . S
C231 C232 1.351 . S
C231 N234 1.368 . S
C231 H236 0.931 . S
C232 C231 1.351 . S
C232 N233 1.373 . S
C232 H260 0.930 . S
N233 C232 1.373 . S
N233 C235 1.340 . S
N234 C231 1.368 . S
N234 C235 1.321 . S
N234 Co237 2.135 . S
C235 N233 1.340 . S
C235 N234 1.321 . S
C235 H259 0.930 . S
H236 C231 0.931 . S
Co237 N234 2.135 . S
Co237 N240 2.127 . S
Co237 O245 2.055 . S
Co237 O248 2.039 . S
Co237 N251 2.140 . S
C238 O239 1.227 . S
C238 O248 1.265 . S
O239 C238 1.227 . S
N240 Co237 2.127 . S
N240 C242 1.377 . S
N240 C243 1.304 1_455 S
C241 C242 1.338 1_655 S
C241 N244 1.377 . S
C241 H261 0.930 1_554 S
C242 N240 1.377 . S
C242 C241 1.338 1_455 S
C242 H246 0.931 . S
C243 N240 1.304 1_655 S
C243 N244 1.344 . S
C243 H247 0.930 . S
N244 C241 1.377 . S
N244 C243 1.344 . S
O245 Co237 2.055 . S
O245 C249 1.253 1_455 S
H246 C242 0.931 . S
H247 C243 0.930 . S
O248 Co237 2.039 . S
O248 C238 1.265 . S
C249 O245 1.253 1_655 S
C249 O250 1.227 . S
O250 C249 1.227 . S
N251 Co237 2.140 . S
N251 C254 1.346 . S
N251 C255 1.345 . S
C252 C253 1.387 . S
C252 C256 1.391 . S
C253 C252 1.387 . S
C253 C254 1.369 . S
C253 H262 0.929 . S
C254 N251 1.346 . S
C254 C253 1.369 . S
C254 H257 0.928 . S
C255 N251 1.345 . S
C255 C256 1.371 . S
C255 H258 0.931 1_455 S
C256 C252 1.391 . S
C256 C255 1.371 . S
C256 H263 0.930 1_455 S
H257 C254 0.928 . S
H258 C255 0.931 1_655 S
H259 C235 0.930 . S
H260 C232 0.930 . S
H261 C241 0.930 1_556 S
H262 C253 0.929 . S
H263 C256 0.930 1_655 S
H264 C276 0.930 . S
H265 C278 0.930 . S
H266 C279 0.930 . S
H267 C283 0.959 . S
H268 C283 0.959 . S
H269 C283 0.961 . S
H270 C284 0.960 . S
H271 C284 0.961 . S
H272 C284 0.959 . S
H273 C287 0.929 . S
H274 C288 0.931 . S
H275 C290 0.930 . S
C276 H264 0.930 . S
C276 C277 1.399 . S
C276 C281 1.399 . S
C277 C276 1.399 . S
C277 C278 1.376 . S
C278 H265 0.930 . S
C278 C277 1.376 . S
C278 C279 1.388 . S
C279 H266 0.930 . S
C279 C278 1.388 . S
C279 C280 1.390 . S
C280 C279 1.390 . S
C280 C281 1.394 . S
C280 C286 1.465 . S
C281 C276 1.399 . S
C281 C280 1.394 . S
C281 C282 1.516 . S
C282 C281 1.516 . S
C282 C283 1.502 . S
C282 C284 1.561 . S
C282 C285 1.526 . S
C283 H267 0.959 . S
C283 H268 0.959 . S
C283 H269 0.961 . S
C283 C282 1.502 . S
C284 H270 0.960 . S
C284 H271 0.961 . S
C284 H272 0.959 . S
C284 C282 1.561 . S
C285 C282 1.526 . S
C285 C286 1.396 . S
C285 C290 1.390 . S
C286 C280 1.465 . S
C286 C285 1.396 . S
C286 C287 1.399 . S
C287 H273 0.929 . S
C287 C286 1.399 . S
C287 C288 1.385 . S
C288 H274 0.931 . S
C288 C287 1.385 . S
C288 C289 1.389 . S
C289 C288 1.389 . S
C289 C290 1.387 . S
C290 H275 0.930 . S
C290 C285 1.390 . S
C290 C289 1.387 . S
H291 C303 0.930 . S
H292 C305 0.930 . S
H293 C306 0.930 . S
H294 C310 0.959 . S
H295 C310 0.959 . S
H296 C310 0.961 . S
H297 C311 0.960 . S
H298 C311 0.961 . S
H299 C311 0.959 . S
H300 C314 0.929 . S
H301 C315 0.931 . S
H302 C317 0.930 . S
C303 H291 0.930 . S
C303 C304 1.399 . S
C303 C308 1.399 . S
C304 C303 1.399 . S
C304 C305 1.376 . S
C305 H292 0.930 . S
C305 C304 1.376 . S
C305 C306 1.388 . S
C306 H293 0.930 . S
C306 C305 1.388 . S
C306 C307 1.390 . S
C307 C306 1.390 . S
C307 C308 1.394 . S
C307 C313 1.465 . S
C308 C303 1.399 . S
C308 C307 1.394 . S
C308 C309 1.516 . S
C309 C308 1.516 . S
C309 C310 1.502 . S
C309 C311 1.561 . S
C309 C312 1.526 . S
C310 H294 0.959 . S
C310 H295 0.959 . S
C310 H296 0.961 . S
C310 C309 1.502 . S
C311 H297 0.960 . S
C311 H298 0.961 . S
C311 H299 0.959 . S
C311 C309 1.561 . S
C312 C309 1.526 . S
C312 C313 1.396 . S
C312 C317 1.390 . S
C313 C307 1.465 . S
C313 C312 1.396 . S
C313 C314 1.399 . S
C314 H300 0.929 . S
C314 C313 1.399 . S
C314 C315 1.385 . S
C315 H301 0.931 . S
C315 C314 1.385 . S
C315 C316 1.389 . S
C316 C315 1.389 . S
C316 C317 1.387 . S
C317 H302 0.930 . S
C317 C312 1.390 . S
C317 C316 1.387 . S
H318 C330 0.930 . S
H319 C332 0.930 . S
H320 C333 0.930 . S
H321 C337 0.959 . S
H322 C337 0.959 . S
H323 C337 0.961 . S
H324 C338 0.960 . S
H325 C338 0.961 . S
H326 C338 0.959 . S
H327 C341 0.929 . S
H328 C342 0.931 . S
H329 C344 0.930 . S
C330 H318 0.930 . S
C330 C331 1.399 . S
C330 C335 1.399 . S
C331 C330 1.399 . S
C331 C332 1.376 . S
C332 H319 0.930 . S
C332 C331 1.376 . S
C332 C333 1.388 . S
C333 H320 0.930 . S
C333 C332 1.388 . S
C333 C334 1.390 . S
C334 C333 1.390 . S
C334 C335 1.394 . S
C334 C340 1.465 . S
C335 C330 1.399 . S
C335 C334 1.394 . S
C335 C336 1.516 . S
C336 C335 1.516 . S
C336 C337 1.502 . S
C336 C338 1.561 . S
C336 C339 1.526 . S
C337 H321 0.959 . S
C337 H322 0.959 . S
C337 H323 0.961 . S
C337 C336 1.502 . S
C338 H324 0.960 . S
C338 H325 0.961 . S
C338 H326 0.959 . S
C338 C336 1.561 . S
C339 C336 1.526 . S
C339 C340 1.396 . S
C339 C344 1.390 . S
C340 C334 1.465 . S
C340 C339 1.396 . S
C340 C341 1.399 . S
C341 H327 0.929 . S
C341 C340 1.399 . S
C341 C342 1.385 . S
C342 H328 0.931 . S
C342 C341 1.385 . S
C342 C343 1.389 . S
C343 C342 1.389 . S
C343 C344 1.387 . S
C344 H329 0.930 . S
C344 C339 1.390 . S
C344 C343 1.387 . S
H345 C357 0.930 . S
H346 C359 0.930 . S
H347 C360 0.930 . S
H348 C364 0.959 . S
H349 C364 0.959 . S
H350 C364 0.961 . S
H351 C365 0.960 . S
H352 C365 0.961 . S
H353 C365 0.959 . S
H354 C368 0.929 . S
H355 C369 0.931 . S
H356 C371 0.930 . S
C357 H345 0.930 . S
C357 C358 1.399 . S
C357 C362 1.399 . S
C358 C357 1.399 . S
C358 C359 1.376 . S
C359 H346 0.930 . S
C359 C358 1.376 . S
C359 C360 1.388 . S
C360 H347 0.930 . S
C360 C359 1.388 . S
C360 C361 1.390 . S
C361 C360 1.390 . S
C361 C362 1.394 . S
C361 C367 1.465 . S
C362 C357 1.399 . S
C362 C361 1.394 . S
C362 C363 1.516 . S
C363 C362 1.516 . S
C363 C364 1.502 . S
C363 C365 1.561 . S
C363 C366 1.526 . S
C364 H348 0.959 . S
C364 H349 0.959 . S
C364 H350 0.961 . S
C364 C363 1.502 . S
C365 H351 0.960 . S
C365 H352 0.961 . S
C365 H353 0.959 . S
C365 C363 1.561 . S
C366 C363 1.526 . S
C366 C367 1.396 . S
C366 C371 1.390 . S
C367 C361 1.465 . S
C367 C366 1.396 . S
C367 C368 1.399 . S
C368 H354 0.929 . S
C368 C367 1.399 . S
C368 C369 1.385 . S
C369 H355 0.931 . S
C369 C368 1.385 . S
C369 C370 1.389 . S
C370 C369 1.389 . S
C370 C371 1.387 . S
C371 H356 0.930 . S
C371 C366 1.390 . S
C371 C370 1.387 . S
H372 C384 0.930 . S
H373 C386 0.930 . S
H374 C387 0.930 . S
H375 C391 0.959 . S
H376 C391 0.959 . S
H377 C391 0.961 . S
H378 C392 0.960 . S
H379 C392 0.961 . S
H380 C392 0.959 . S
H381 C395 0.929 . S
H382 C396 0.931 . S
H383 C398 0.930 . S
C384 H372 0.930 . S
C384 C385 1.399 . S
C384 C389 1.399 . S
C385 C384 1.399 . S
C385 C386 1.376 . S
C386 H373 0.930 . S
C386 C385 1.376 . S
C386 C387 1.388 . S
C387 H374 0.930 . S
C387 C386 1.388 . S
C387 C388 1.390 . S
C388 C387 1.390 . S
C388 C389 1.394 . S
C388 C394 1.465 . S
C389 C384 1.399 . S
C389 C388 1.394 . S
C389 C390 1.516 . S
C390 C389 1.516 . S
C390 C391 1.502 . S
C390 C392 1.561 . S
C390 C393 1.526 . S
C391 H375 0.959 . S
C391 H376 0.959 . S
C391 H377 0.961 . S
C391 C390 1.502 . S
C392 H378 0.960 . S
C392 H379 0.961 . S
C392 H380 0.959 . S
C392 C390 1.561 . S
C393 C390 1.526 . S
C393 C394 1.396 . S
C393 C398 1.390 . S
C394 C388 1.465 . S
C394 C393 1.396 . S
C394 C395 1.399 . S
C395 H381 0.929 . S
C395 C394 1.399 . S
C395 C396 1.385 . S
C396 H382 0.931 . S
C396 C395 1.385 . S
C396 C397 1.389 . S
C397 C396 1.389 . S
C397 C398 1.387 . S
C398 H383 0.930 . S
C398 C393 1.390 . S
C398 C397 1.387 . S
H399 C411 0.930 . S
H400 C413 0.930 . S
H401 C414 0.930 . S
H402 C418 0.959 . S
H403 C418 0.959 . S
H404 C418 0.961 . S
H405 C419 0.960 . S
H406 C419 0.961 . S
H407 C419 0.959 . S
H408 C422 0.929 . S
H409 C423 0.931 . S
H410 C425 0.930 . S
C411 H399 0.930 . S
C411 C412 1.399 . S
C411 C416 1.399 . S
C412 C411 1.399 . S
C412 C413 1.376 . S
C413 H400 0.930 . S
C413 C412 1.376 . S
C413 C414 1.388 . S
C414 H401 0.930 . S
C414 C413 1.388 . S
C414 C415 1.390 . S
C415 C414 1.390 . S
C415 C416 1.394 . S
C415 C421 1.465 . S
C416 C411 1.399 . S
C416 C415 1.394 . S
C416 C417 1.516 . S
C417 C416 1.516 . S
C417 C418 1.502 . S
C417 C419 1.561 . S
C417 C420 1.526 . S
C418 H402 0.959 . S
C418 H403 0.959 . S
C418 H404 0.961 . S
C418 C417 1.502 . S
C419 H405 0.960 . S
C419 H406 0.961 . S
C419 H407 0.959 . S
C419 C417 1.561 . S
C420 C417 1.526 . S
C420 C421 1.396 . S
C420 C425 1.390 . S
C421 C415 1.465 . S
C421 C420 1.396 . S
C421 C422 1.399 . S
C422 H408 0.929 . S
C422 C421 1.399 . S
C422 C423 1.385 . S
C423 H409 0.931 . S
C423 C422 1.385 . S
C423 C424 1.389 . S
C424 C423 1.389 . S
C424 C425 1.387 . S
C425 H410 0.930 . S
C425 C420 1.390 . S
C425 C424 1.387 . S
H426 C438 0.930 . S
H427 C440 0.930 . S
H428 C441 0.930 . S
H429 C445 0.959 . S
H430 C445 0.959 . S
H431 C445 0.961 . S
H432 C446 0.960 . S
H433 C446 0.961 . S
H434 C446 0.959 . S
H435 C449 0.929 . S
H436 C450 0.931 . S
H437 C452 0.930 . S
C438 H426 0.930 . S
C438 C439 1.399 . S
C438 C443 1.399 . S
C439 C438 1.399 . S
C439 C440 1.376 . S
C440 H427 0.930 . S
C440 C439 1.376 . S
C440 C441 1.388 . S
C441 H428 0.930 . S
C441 C440 1.388 . S
C441 C442 1.390 . S
C442 C441 1.390 . S
C442 C443 1.394 . S
C442 C448 1.465 . S
C443 C438 1.399 . S
C443 C442 1.394 . S
C443 C444 1.516 . S
C444 C443 1.516 . S
C444 C445 1.502 . S
C444 C446 1.561 . S
C444 C447 1.526 . S
C445 H429 0.959 . S
C445 H430 0.959 . S
C445 H431 0.961 . S
C445 C444 1.502 . S
C446 H432 0.960 . S
C446 H433 0.961 . S
C446 H434 0.959 . S
C446 C444 1.561 . S
C447 C444 1.526 . S
C447 C448 1.396 . S
C447 C452 1.390 . S
C448 C442 1.465 . S
C448 C447 1.396 . S
C448 C449 1.399 . S
C449 H435 0.929 . S
C449 C448 1.399 . S
C449 C450 1.385 . S
C450 H436 0.931 . S
C450 C449 1.385 . S
C450 C451 1.389 . S
C451 C450 1.389 . S
C451 C452 1.387 . S
C452 H437 0.930 . S
C452 C447 1.390 . S
C452 C451 1.387 . S
H453 C465 0.930 . S
H454 C467 0.930 . S
H455 C468 0.930 . S
H456 C472 0.959 . S
H457 C472 0.959 . S
H458 C472 0.961 . S
H459 C473 0.960 . S
H460 C473 0.961 . S
H461 C473 0.959 . S
H462 C476 0.929 . S
H463 C477 0.931 . S
H464 C479 0.930 . S
C465 H453 0.930 . S
C465 C466 1.399 . S
C465 C470 1.399 . S
C466 C465 1.399 . S
C466 C467 1.376 . S
C467 H454 0.930 . S
C467 C466 1.376 . S
C467 C468 1.388 . S
C468 H455 0.930 . S
C468 C467 1.388 . S
C468 C469 1.390 . S
C469 C468 1.390 . S
C469 C470 1.394 . S
C469 C475 1.465 . S
C470 C465 1.399 . S
C470 C469 1.394 . S
C470 C471 1.516 . S
C471 C470 1.516 . S
C471 C472 1.502 . S
C471 C473 1.561 . S
C471 C474 1.526 . S
C472 H456 0.959 . S
C472 H457 0.959 . S
C472 H458 0.961 . S
C472 C471 1.502 . S
C473 H459 0.960 . S
C473 H460 0.961 . S
C473 H461 0.959 . S
C473 C471 1.561 . S
C474 C471 1.526 . S
C474 C475 1.396 . S
C474 C479 1.390 . S
C475 C469 1.465 . S
C475 C474 1.396 . S
C475 C476 1.399 . S
C476 H462 0.929 . S
C476 C475 1.399 . S
C476 C477 1.385 . S
C477 H463 0.931 . S
C477 C476 1.385 . S
C477 C478 1.389 . S
C478 C477 1.389 . S
C478 C479 1.387 . S
C479 H464 0.930 . S
C479 C474 1.390 . S
C479 C478 1.387 . S
H480 C492 0.930 . S
H481 C494 0.930 . S
H482 C495 0.930 . S
H483 C499 0.959 . S
H484 C499 0.959 . S
H485 C499 0.961 . S
H486 C500 0.960 . S
H487 C500 0.961 . S
H488 C500 0.959 . S
H489 C503 0.929 . S
H490 C504 0.931 . S
H491 C506 0.930 . S
C492 H480 0.930 . S
C492 C493 1.399 . S
C492 C497 1.399 . S
C493 C492 1.399 . S
C493 C494 1.376 . S
C494 H481 0.930 . S
C494 C493 1.376 . S
C494 C495 1.388 . S
C495 H482 0.930 . S
C495 C494 1.388 . S
C495 C496 1.390 . S
C496 C495 1.390 . S
C496 C497 1.394 . S
C496 C502 1.465 . S
C497 C492 1.399 . S
C497 C496 1.394 . S
C497 C498 1.516 . S
C498 C497 1.516 . S
C498 C499 1.502 . S
C498 C500 1.561 . S
C498 C501 1.526 . S
C499 H483 0.959 . S
C499 H484 0.959 . S
C499 H485 0.961 . S
C499 C498 1.502 . S
C500 H486 0.960 . S
C500 H487 0.961 . S
C500 H488 0.959 . S
C500 C498 1.561 . S
C501 C498 1.526 . S
C501 C502 1.396 . S
C501 C506 1.390 . S
C502 C496 1.465 . S
C502 C501 1.396 . S
C502 C503 1.399 . S
C503 H489 0.929 . S
C503 C502 1.399 . S
C503 C504 1.385 . S
C504 H490 0.931 . S
C504 C503 1.385 . S
C504 C505 1.389 . S
C505 C504 1.389 . S
C505 C506 1.387 . S
C506 H491 0.930 . S
C506 C501 1.390 . S
C506 C505 1.387 . S
H507 C519 0.930 1_554 S
H508 C521 0.930 . S
H509 C522 0.930 . S
H510 C526 0.959 . S
H511 C526 0.959 . S
H512 C526 0.961 . S
H513 C527 0.960 . S
H514 C527 0.961 . S
H515 C527 0.959 . S
H516 C530 0.929 . S
H517 C531 0.931 . S
H518 C533 0.930 . S
C519 H507 0.930 1_556 S
C519 C520 1.399 . S
C519 C524 1.399 1_556 S
C520 C519 1.399 . S
C520 C521 1.376 . S
C521 H508 0.930 . S
C521 C520 1.376 . S
C521 C522 1.388 . S
C522 H509 0.930 . S
C522 C521 1.388 . S
C522 C523 1.390 . S
C523 C522 1.390 . S
C523 C524 1.394 1_556 S
C523 C529 1.465 . S
C524 C519 1.399 1_554 S
C524 C523 1.394 1_554 S
C524 C525 1.516 . S
C525 C524 1.516 . S
C525 C526 1.502 . S
C525 C527 1.561 . S
C525 C528 1.526 . S
C526 H510 0.959 . S
C526 H511 0.959 . S
C526 H512 0.961 . S
C526 C525 1.502 . S
C527 H513 0.960 . S
C527 H514 0.961 . S
C527 H515 0.959 . S
C527 C525 1.561 . S
C528 C525 1.526 . S
C528 C529 1.396 1_554 S
C528 C533 1.390 . S
C529 C523 1.465 . S
C529 C528 1.396 1_556 S
C529 C530 1.399 . S
C530 H516 0.929 . S
C530 C529 1.399 . S
C530 C531 1.385 . S
C531 H517 0.931 . S
C531 C530 1.385 . S
C531 C532 1.389 1_556 S
C532 C531 1.389 1_554 S
C532 C533 1.387 . S
C533 H518 0.930 . S
C533 C528 1.390 . S
C533 C532 1.387 . S
H534 C546 0.930 . S
H535 C548 0.930 . S
H536 C549 0.930 . S
H537 C553 0.959 . S
H538 C553 0.959 . S
H539 C553 0.961 . S
H540 C554 0.960 . S
H541 C554 0.961 . S
H542 C554 0.959 . S
H543 C557 0.929 . S
H544 C558 0.931 . S
H545 C560 0.930 . S
C546 H534 0.930 . S
C546 C547 1.399 . S
C546 C551 1.399 . S
C547 C546 1.399 . S
C547 C548 1.376 . S
C548 H535 0.930 . S
C548 C547 1.376 . S
C548 C549 1.388 . S
C549 H536 0.930 . S
C549 C548 1.388 . S
C549 C550 1.390 . S
C550 C549 1.390 . S
C550 C551 1.394 . S
C550 C556 1.465 1_545 S
C551 C546 1.399 . S
C551 C550 1.394 . S
C551 C552 1.516 1_545 S
C552 C551 1.516 1_565 S
C552 C553 1.502 . S
C552 C554 1.561 . S
C552 C555 1.526 . S
C553 H537 0.959 . S
C553 H538 0.959 . S
C553 H539 0.961 . S
C553 C552 1.502 . S
C554 H540 0.960 . S
C554 H541 0.961 . S
C554 H542 0.959 . S
C554 C552 1.561 . S
C555 C552 1.526 . S
C555 C556 1.396 . S
C555 C560 1.390 . S
C556 C550 1.465 1_565 S
C556 C555 1.396 . S
C556 C557 1.399 . S
C557 H543 0.929 . S
C557 C556 1.399 . S
C557 C558 1.385 . S
C558 H544 0.931 . S
C558 C557 1.385 . S
C558 C559 1.389 . S
C559 C558 1.389 . S
C559 C560 1.387 . S
C560 H545 0.930 . S
C560 C555 1.390 . S
C560 C559 1.387 . S
H561 C573 0.930 . S
H562 C575 0.934 . S
H563 C576 0.930 . S
H564 C580 0.959 . S
H565 C580 0.959 . S
H566 C580 0.961 . S
H567 C581 0.960 . S
H568 C581 0.961 . S
H569 C581 0.959 . S
H570 C584 0.929 . S
H571 C585 0.931 . S
H572 C587 0.930 1_554 S
C573 H561 0.930 . S
C573 C574 1.399 . S
C573 C578 1.399 . S
C574 C573 1.399 . S
C574 C575 1.367 1_554 S
C575 H562 0.934 . S
C575 C574 1.367 1_556 S
C575 C576 1.394 . S
C576 H563 0.930 . S
C576 C575 1.394 . S
C576 C577 1.390 . S
C577 C576 1.390 . S
C577 C578 1.394 1_556 S
C577 C583 1.465 1_565 S
C578 C573 1.399 . S
C578 C577 1.394 1_554 S
C578 C579 1.516 1_565 S
C579 C578 1.516 1_545 S
C579 C580 1.502 1_455 S
C579 C581 1.561 . S
C579 C582 1.526 . S
C580 H564 0.959 . S
C580 H565 0.959 . S
C580 H566 0.961 . S
C580 C579 1.502 1_655 S
C581 H567 0.960 . S
C581 H568 0.961 . S
C581 H569 0.959 . S
C581 C579 1.561 . S
C582 C579 1.526 . S
C582 C583 1.396 1_554 S
C582 C587 1.390 1_554 S
C583 C577 1.465 1_545 S
C583 C582 1.396 1_556 S
C583 C584 1.399 . S
C584 H570 0.929 . S
C584 C583 1.399 . S
C584 C585 1.385 . S
C585 H571 0.931 . S
C585 C584 1.385 . S
C585 C586 1.389 . S
C586 C585 1.389 . S
C586 C587 1.387 . S
C587 H572 0.930 1_556 S
C587 C582 1.390 1_556 S
C587 C586 1.387 . S
H588 C600 0.930 . S
H589 C602 0.930 . S
H590 C603 0.930 . S
H591 C607 0.959 . S
H592 C607 0.959 . S
H593 C607 0.961 . S
H594 C608 0.960 . S
H595 C608 0.961 . S
H596 C608 0.959 . S
H597 C611 0.929 . S
H598 C612 0.931 . S
H599 C614 0.930 . S
C600 H588 0.930 . S
C600 C601 1.399 . S
C600 C605 1.399 . S
C601 C600 1.399 . S
C601 C602 1.376 . S
C602 H589 0.930 . S
C602 C601 1.376 . S
C602 C603 1.388 . S
C603 H590 0.930 . S
C603 C602 1.388 . S
C603 C604 1.390 . S
C604 C603 1.390 . S
C604 C605 1.394 . S
C604 C610 1.465 . S
C605 C600 1.399 . S
C605 C604 1.394 . S
C605 C606 1.516 . S
C606 C605 1.516 . S
C606 C607 1.502 . S
C606 C608 1.561 . S
C606 C609 1.526 . S
C607 H591 0.959 . S
C607 H592 0.959 . S
C607 H593 0.961 . S
C607 C606 1.502 . S
C608 H594 0.960 . S
C608 H595 0.961 . S
C608 H596 0.959 . S
C608 C606 1.561 . S
C609 C606 1.526 . S
C609 C610 1.396 . S
C609 C614 1.390 . S
C610 C604 1.465 . S
C610 C609 1.396 . S
C610 C611 1.399 . S
C611 H597 0.929 . S
C611 C610 1.399 . S
C611 C612 1.385 . S
C612 H598 0.931 . S
C612 C611 1.385 . S
C612 C613 1.389 . S
C613 C612 1.389 . S
C613 C614 1.387 . S
C614 H599 0.930 . S
C614 C609 1.390 . S
C614 C613 1.387 . S
H615 C627 0.930 . S
H616 C629 0.930 . S
H617 C630 0.930 . S
H618 C634 0.959 . S
H619 C634 0.959 . S
H620 C634 0.961 . S
H621 C635 0.960 . S
H622 C635 0.961 . S
H623 C635 0.959 . S
H624 C638 0.929 . S
H625 C639 0.931 . S
H626 C641 0.930 . S
C627 H615 0.930 . S
C627 C628 1.399 . S
C627 C632 1.399 . S
C628 C627 1.399 . S
C628 C629 1.376 . S
C629 H616 0.930 . S
C629 C628 1.376 . S
C629 C630 1.388 1_556 S
C630 H617 0.930 . S
C630 C629 1.388 1_554 S
C630 C631 1.390 . S
C631 C630 1.390 . S
C631 C632 1.394 1_554 S
C631 C637 1.465 . S
C632 C627 1.399 . S
C632 C631 1.394 1_556 S
C632 C633 1.516 . S
C633 C632 1.516 . S
C633 C634 1.502 1_556 S
C633 C635 1.561 . S
C633 C636 1.526 1_556 S
C634 H618 0.959 . S
C634 H619 0.959 . S
C634 H620 0.961 . S
C634 C633 1.502 1_554 S
C635 H621 0.960 . S
C635 H622 0.961 . S
C635 H623 0.959 . S
C635 C633 1.561 . S
C636 C633 1.526 1_554 S
C636 C637 1.396 . S
C636 C641 1.390 . S
C637 C631 1.465 . S
C637 C636 1.396 . S
C637 C638 1.399 . S
C638 H624 0.929 . S
C638 C637 1.399 . S
C638 C639 1.385 . S
C639 H625 0.931 . S
C639 C638 1.385 . S
C639 C640 1.389 . S
C640 C639 1.389 . S
C640 C641 1.387 . S
C641 H626 0.930 . S
C641 C636 1.390 . S
C641 C640 1.387 . S
H642 C654 0.930 . S
H643 C656 0.930 . S
H644 C657 0.930 . S
H645 C661 0.959 . S
H646 C661 0.959 . S
H647 C661 0.961 . S
H648 C662 0.960 . S
H649 C662 0.961 . S
H650 C662 0.959 . S
H651 C665 0.929 . S
H652 C666 0.931 . S
H653 C668 0.930 . S
C654 H642 0.930 . S
C654 C655 1.399 . S
C654 C659 1.399 . S
C655 C654 1.399 . S
C655 C656 1.376 . S
C656 H643 0.930 . S
C656 C655 1.376 . S
C656 C657 1.388 . S
C657 H644 0.930 . S
C657 C656 1.388 . S
C657 C658 1.390 . S
C658 C657 1.390 . S
C658 C659 1.394 . S
C658 C664 1.465 . S
C659 C654 1.399 . S
C659 C658 1.394 . S
C659 C660 1.516 . S
C660 C659 1.516 . S
C660 C661 1.502 . S
C660 C662 1.561 . S
C660 C663 1.526 . S
C661 H645 0.959 . S
C661 H646 0.959 . S
C661 H647 0.961 . S
C661 C660 1.502 . S
C662 H648 0.960 . S
C662 H649 0.961 . S
C662 H650 0.959 . S
C662 C660 1.561 . S
C663 C660 1.526 . S
C663 C664 1.396 . S
C663 C668 1.390 . S
C664 C658 1.465 . S
C664 C663 1.396 . S
C664 C665 1.399 . S
C665 H651 0.929 . S
C665 C664 1.399 . S
C665 C666 1.385 . S
C666 H652 0.931 . S
C666 C665 1.385 . S
C666 C667 1.389 . S
C667 C666 1.389 . S
C667 C668 1.387 . S
C668 H653 0.930 . S
C668 C663 1.390 . S
C668 C667 1.387 . S
H669 C681 0.930 . S
H670 C683 0.930 . S
H671 C684 0.930 . S
H672 C688 0.959 . S
H673 C688 0.959 . S
H674 C688 0.961 . S
H675 C689 0.960 . S
H676 C689 0.961 . S
H677 C689 0.959 . S
H678 C692 0.929 . S
H679 C693 0.931 . S
H680 C695 0.930 . S
C681 H669 0.930 . S
C681 C682 1.399 . S
C681 C686 1.399 . S
C682 C681 1.399 . S
C682 C683 1.376 . S
C683 H670 0.930 . S
C683 C682 1.376 . S
C683 C684 1.388 . S
C684 H671 0.930 . S
C684 C683 1.388 . S
C684 C685 1.390 . S
C685 C684 1.390 . S
C685 C686 1.394 . S
C685 C691 1.465 . S
C686 C681 1.399 . S
C686 C685 1.394 . S
C686 C687 1.516 1_556 S
C687 C686 1.516 1_554 S
C687 C688 1.502 . S
C687 C689 1.561 . S
C687 C690 1.526 . S
C688 H672 0.959 . S
C688 H673 0.959 . S
C688 H674 0.961 . S
C688 C687 1.502 . S
C689 H675 0.960 . S
C689 H676 0.961 . S
C689 H677 0.959 . S
C689 C687 1.561 . S
C690 C687 1.526 . S
C690 C691 1.396 1_554 S
C690 C695 1.390 . S
C691 C685 1.465 . S
C691 C690 1.396 1_556 S
C691 C692 1.399 . S
C692 H678 0.929 . S
C692 C691 1.399 . S
C692 C693 1.385 . S
C693 H679 0.931 . S
C693 C692 1.385 . S
C693 C694 1.389 1_556 S
C694 C693 1.389 1_554 S
C694 C695 1.387 . S
C695 H680 0.930 . S
C695 C690 1.390 . S
C695 C694 1.387 . S
H696 C708 0.930 . S
H697 C710 0.930 . S
H698 C711 0.930 . S
H699 C715 0.959 . S
H700 C715 0.959 . S
H701 C715 0.961 . S
H702 C716 0.960 . S
H703 C716 0.961 . S
H704 C716 0.959 . S
H705 C719 0.929 . S
H706 C720 0.931 . S
H707 C722 0.930 . S
C708 H696 0.930 . S
C708 C709 1.399 1_655 S
C708 C713 1.399 . S
C709 C708 1.399 1_455 S
C709 C710 1.376 . S
C710 H697 0.930 . S
C710 C709 1.376 . S
C710 C711 1.388 1_455 S
C711 H698 0.930 . S
C711 C710 1.388 1_655 S
C711 C712 1.390 . S
C712 C711 1.390 . S
C712 C713 1.394 . S
C712 C718 1.465 . S
C713 C708 1.399 . S
C713 C712 1.394 . S
C713 C714 1.516 . S
C714 C713 1.516 . S
C714 C715 1.502 . S
C714 C716 1.561 . S
C714 C717 1.526 . S
C715 H699 0.959 . S
C715 H700 0.959 . S
C715 H701 0.961 . S
C715 C714 1.502 . S
C716 H702 0.960 . S
C716 H703 0.961 . S
C716 H704 0.959 . S
C716 C714 1.561 . S
C717 C714 1.526 . S
C717 C718 1.396 . S
C717 C722 1.390 . S
C718 C712 1.465 . S
C718 C717 1.396 . S
C718 C719 1.399 . S
C719 H705 0.929 . S
C719 C718 1.399 . S
C719 C720 1.385 . S
C720 H706 0.931 . S
C720 C719 1.385 . S
C720 C721 1.389 . S
C721 C720 1.389 . S
C721 C722 1.387 . S
C722 H707 0.930 . S
C722 C717 1.390 . S
C722 C721 1.387 . S
H723 C735 0.930 . S
H724 C737 0.930 . S
H725 C738 0.943 . S
H726 C742 0.959 . S
H727 C742 0.959 . S
H728 C742 0.961 . S
H729 C743 0.960 . S
H730 C743 0.961 1_556 S
H731 C743 0.959 1_556 S
H732 C746 0.929 . S
H733 C747 0.931 . S
H734 C749 0.930 . S
C735 H723 0.930 . S
C735 C736 1.399 . S
C735 C740 1.399 . S
C736 C735 1.399 . S
C736 C737 1.376 . S
C737 H724 0.930 . S
C737 C736 1.376 . S
C737 C738 1.388 . S
C738 H725 0.943 . S
C738 C737 1.388 . S
C738 C739 1.390 . S
C739 C738 1.390 . S
C739 C740 1.394 . S
C739 C745 1.465 1_554 S
C740 C735 1.399 . S
C740 C739 1.394 . S
C740 C741 1.516 . S
C741 C740 1.516 . S
C741 C742 1.502 . S
C741 C743 1.561 . S
C741 C744 1.526 . S
C742 H726 0.959 . S
C742 H727 0.959 . S
C742 H728 0.961 . S
C742 C741 1.502 . S
C743 H729 0.960 . S
C743 H730 0.961 1_554 S
C743 H731 0.959 1_554 S
C743 C741 1.561 . S
C744 C741 1.526 . S
C744 C745 1.396 1_554 S
C744 C749 1.390 1_554 S
C745 C739 1.465 1_556 S
C745 C744 1.396 1_556 S
C745 C746 1.399 . S
C746 H732 0.929 . S
C746 C745 1.399 . S
C746 C747 1.385 . S
C747 H733 0.931 . S
C747 C746 1.385 . S
C747 C748 1.389 . S
C748 C747 1.389 . S
C748 C749 1.387 . S
C749 H734 0.930 . S
C749 C744 1.390 1_556 S
C749 C748 1.387 . S
H750 C762 0.930 1_455 S
H751 C764 0.936 . S
H752 C765 0.930 . S
H753 C769 0.959 . S
H754 C769 0.959 . S
H755 C769 0.961 . S
H756 C770 0.960 . S
H757 C770 0.961 . S
H758 C770 0.959 . S
H759 C773 0.929 . S
H760 C774 0.931 . S
H761 C776 0.930 . S
C762 H750 0.930 1_655 S
C762 C763 1.399 1_655 S
C762 C767 1.399 . S
C763 C762 1.399 1_455 S
C763 C764 1.381 . S
C764 H751 0.936 . S
C764 C763 1.381 . S
C764 C765 1.378 1_455 S
C765 H752 0.930 . S
C765 C764 1.378 1_655 S
C765 C766 1.390 . S
C766 C765 1.390 . S
C766 C767 1.394 . S
C766 C772 1.465 . S
C767 C762 1.399 . S
C767 C766 1.394 . S
C767 C768 1.516 . S
C768 C767 1.516 . S
C768 C769 1.502 . S
C768 C770 1.561 . S
C768 C771 1.526 . S
C769 H753 0.959 . S
C769 H754 0.959 . S
C769 H755 0.961 . S
C769 C768 1.502 . S
C770 H756 0.960 . S
C770 H757 0.961 . S
C770 H758 0.959 . S
C770 C768 1.561 . S
C771 C768 1.526 . S
C771 C772 1.396 . S
C771 C776 1.390 . S
C772 C766 1.465 . S
C772 C771 1.396 . S
C772 C773 1.399 . S
C773 H759 0.929 . S
C773 C772 1.399 . S
C773 C774 1.385 . S
C774 H760 0.931 . S
C774 C773 1.385 . S
C774 C775 1.389 . S
C775 C774 1.389 . S
C775 C776 1.387 . S
C776 H761 0.930 . S
C776 C771 1.390 . S
C776 C775 1.387 . S
H777 C789 0.930 . S
H778 C791 0.930 . S
H779 C792 0.930 . S
H780 C796 0.959 . S
H781 C796 0.959 . S
H782 C796 0.961 . S
H783 C797 0.960 . S
H784 C797 0.961 . S
H785 C797 0.959 . S
H786 C800 0.929 . S
H787 C801 0.931 . S
H788 C803 0.930 . S
C789 H777 0.930 . S
C789 C790 1.399 . S
C789 C794 1.399 . S
C790 C789 1.399 . S
C790 C791 1.376 . S
C791 H778 0.930 . S
C791 C790 1.376 . S
C791 C792 1.388 1_556 S
C792 H779 0.930 . S
C792 C791 1.388 1_554 S
C792 C793 1.390 1_554 S
C793 C792 1.390 1_556 S
C793 C794 1.394 . S
C793 C799 1.465 1_556 S
C794 C789 1.399 . S
C794 C793 1.394 . S
C794 C795 1.516 . S
C795 C794 1.516 . S
C795 C796 1.502 . S
C795 C797 1.561 . S
C795 C798 1.526 . S
C796 H780 0.959 . S
C796 H781 0.959 . S
C796 H782 0.961 . S
C796 C795 1.502 . S
C797 H783 0.960 . S
C797 H784 0.961 . S
C797 H785 0.959 . S
C797 C795 1.561 . S
C798 C795 1.526 . S
C798 C799 1.396 1_556 S
C798 C803 1.390 . S
C799 C793 1.465 1_554 S
C799 C798 1.396 1_554 S
C799 C800 1.399 . S
C800 H786 0.929 . S
C800 C799 1.399 . S
C800 C801 1.385 . S
C801 H787 0.931 . S
C801 C800 1.385 . S
C801 C802 1.389 . S
C802 C801 1.389 . S
C802 C803 1.387 1_554 S
C803 H788 0.930 . S
C803 C798 1.390 . S
C803 C802 1.387 1_556 S
C277 C18 1.329 . S
C289 C117 1.338 . S
C304 C51 1.312 . S
C316 C84 1.303 . S
C331 N68 1.531 1_655 S
C343 N35 1.573 . S
C358 N101 1.531 . S
C370 N2 1.572 1_655 S
C385 C150 1.319 . S
C397 C249 1.334 . S
C412 C216 1.308 . S
C424 C183 1.303 . S
C439 N167 1.532 . S
C451 N200 1.569 . S
C466 N233 1.534 . S
C478 N134 1.566 . S
C493 C87 1.497 . S
C505 C21 1.490 . S
C520 C54 1.490 . S
C532 C120 1.496 . S
C547 C219 1.497 . S
C559 C153 1.490 . S
C574 C252 1.497 . S
C586 C186 1.491 . S
C601 N13 1.429 . S
C613 C205 1.462 . S
C628 N46 1.477 . S
C640 C238 1.496 . S
C655 N79 1.479 . S
C667 C139 1.496 . S
C682 C172 1.475 . S
C694 N112 1.434 . S
C709 C73 1.475 . S
C721 N145 1.453 . S
C736 C106 1.458 . S
C748 N178 1.423 . S
C763 C7 1.476 . S
C775 N211 1.435 . S
C790 C40 1.484 . S
C802 N244 1.466 . S
