# Generated by pormake.
# Topology wji, (4)-cn, num edge types: 1
# Building blocks:
#     Node 0, Type 0, BuildingBlock: GALJAG_clean_sbu_0, # of connection points: 4
#     Node 1, Type 0, BuildingBlock: GALJAG_clean_sbu_0, # of connection points: 4
#     Node 2, Type 0, BuildingBlock: GALJAG_clean_sbu_0, # of connection points: 4
#     Node 3, Type 0, BuildingBlock: GALJAG_clean_sbu_0, # of connection points: 4
#     Node 4, Type 0, BuildingBlock: GALJAG_clean_sbu_0, # of connection points: 4
#     Node 5, Type 0, BuildingBlock: GALJAG_clean_sbu_0, # of connection points: 4
#     Node 6, Type 0, BuildingBlock: GALJAG_clean_sbu_0, # of connection points: 4
#     Node 7, Type 0, BuildingBlock: GALJAG_clean_sbu_0, # of connection points: 4
#     Node 8, Type 0, BuildingBlock: GALJAG_clean_sbu_0, # of connection points: 4
#     Node 9, Type 0, BuildingBlock: GALJAG_clean_sbu_0, # of connection points: 4
#     Node 10, Type 0, BuildingBlock: GALJAG_clean_sbu_0, # of connection points: 4
#     Node 11, Type 0, BuildingBlock: GALJAG_clean_sbu_0, # of connection points: 4
#     Edge 12, Type (0, 0), BuildingBlock: EYOCIG_clean_linker_4, # of connection points: 2
#     Edge 13, Type (0, 0), BuildingBlock: EYOCIG_clean_linker_4, # of connection points: 2
#     Edge 14, Type (0, 0), BuildingBlock: EYOCIG_clean_linker_4, # of connection points: 2
#     Edge 15, Type (0, 0), BuildingBlock: EYOCIG_clean_linker_4, # of connection points: 2
#     Edge 16, Type (0, 0), BuildingBlock: EYOCIG_clean_linker_4, # of connection points: 2
#     Edge 17, Type (0, 0), BuildingBlock: EYOCIG_clean_linker_4, # of connection points: 2
#     Edge 18, Type (0, 0), BuildingBlock: EYOCIG_clean_linker_4, # of connection points: 2
#     Edge 19, Type (0, 0), BuildingBlock: EYOCIG_clean_linker_4, # of connection points: 2
#     Edge 20, Type (0, 0), BuildingBlock: EYOCIG_clean_linker_4, # of connection points: 2
#     Edge 21, Type (0, 0), BuildingBlock: EYOCIG_clean_linker_4, # of connection points: 2
#     Edge 22, Type (0, 0), BuildingBlock: EYOCIG_clean_linker_4, # of connection points: 2
#     Edge 23, Type (0, 0), BuildingBlock: EYOCIG_clean_linker_4, # of connection points: 2
#     Edge 24, Type (0, 0), BuildingBlock: EYOCIG_clean_linker_4, # of connection points: 2
#     Edge 25, Type (0, 0), BuildingBlock: EYOCIG_clean_linker_4, # of connection points: 2
#     Edge 26, Type (0, 0), BuildingBlock: EYOCIG_clean_linker_4, # of connection points: 2
#     Edge 27, Type (0, 0), BuildingBlock: EYOCIG_clean_linker_4, # of connection points: 2
#     Edge 28, Type (0, 0), BuildingBlock: EYOCIG_clean_linker_4, # of connection points: 2
#     Edge 29, Type (0, 0), BuildingBlock: EYOCIG_clean_linker_4, # of connection points: 2
#     Edge 30, Type (0, 0), BuildingBlock: EYOCIG_clean_linker_4, # of connection points: 2
#     Edge 31, Type (0, 0), BuildingBlock: EYOCIG_clean_linker_4, # of connection points: 2
#     Edge 32, Type (0, 0), BuildingBlock: EYOCIG_clean_linker_4, # of connection points: 2
#     Edge 33, Type (0, 0), BuildingBlock: EYOCIG_clean_linker_4, # of connection points: 2
#     Edge 34, Type (0, 0), BuildingBlock: EYOCIG_clean_linker_4, # of connection points: 2
#     Edge 35, Type (0, 0), BuildingBlock: EYOCIG_clean_linker_4, # of connection points: 2
# Relax obj value: 0.240
# Max RMSD: 0.173
# Mean RMSD: 0.173
data_MOF--net-wji--node1-GALJAG_clean_sbu_0--edge1-EYOCIG_clean_linker_4
_symmetry_space_group_name_H-M    P1
_symmetry_Int_Tables_number       1
_symmetry_cell_setting            triclinic
loop_
_symmetry_equiv_pos_as_xyz
'x, y, z'
_cell_length_a     44.098067
_cell_length_b     44.080687
_cell_length_c     19.193111
_cell_angle_alpha  89.983708
_cell_angle_beta   89.996324
_cell_angle_gamma 120.02545
loop_
_atom_site_label
_atom_site_type_symbol
_atom_site_fract_x
_atom_site_fract_y
_atom_site_fract_z
_atom_type_partial_charge
In0 In 0.39276 0.31251 0.44234 0.0
O1 O 0.38241 0.25583 0.44199 0.0
O2 O 0.4124 0.2898 0.52491 0.0
C3 C 0.36457 0.31962 0.32259 0.0
C4 C 0.34772 0.30866 0.53962 0.0
C5 C 0.45942 0.36496 0.43189 0.0
O6 O 0.37349 0.29661 0.32922 0.0
O7 O 0.36972 0.33853 0.3753 0.0
O8 O 0.43703 0.36684 0.4695 0.0
O9 O 0.44847 0.33676 0.3983 0.0
C10 C 0.39826 0.25956 0.49907 0.0
O11 O 0.37831 0.33448 0.53448 0.0
O12 O 0.33899 0.28506 0.49423 0.0
In13 In 0.07007 0.39783 0.60866 0.0
O14 O 0.11616 0.38714 0.60856 0.0
O15 O 0.11251 0.41753 0.69104 0.0
C16 C 0.03478 0.36968 0.4889 0.0
C17 C 0.02871 0.35299 0.7061 0.0
C18 C 0.08444 0.46454 0.59797 0.0
O19 O 0.06671 0.37863 0.49548 0.0
O20 O 0.021 0.37475 0.54167 0.0
O21 O 0.06013 0.44218 0.63561 0.0
O22 O 0.10166 0.45354 0.56449 0.0
C23 C 0.12841 0.40314 0.66545 0.0
O24 O 0.03371 0.38366 0.70085 0.0
O25 O 0.04346 0.34409 0.66076 0.0
In26 In 0.66179 0.07529 0.77578 0.0
O27 O 0.71843 0.12172 0.77551 0.0
O28 O 0.68443 0.1176 0.85847 0.0
C29 C 0.65474 0.04006 0.65599 0.0
C30 C 0.6656 0.03401 0.87292 0.0
C31 C 0.60932 0.08944 0.76523 0.0
O32 O 0.67775 0.072 0.66267 0.0
O33 O 0.63579 0.02625 0.70867 0.0
O34 O 0.60745 0.06517 0.80288 0.0
O35 O 0.63753 0.10673 0.73168 0.0
C36 C 0.71466 0.13376 0.83264 0.0
O37 O 0.63981 0.03881 0.86787 0.0
O38 O 0.68919 0.04891 0.82751 0.0
In39 In 0.576 0.66725 0.9419 0.0
O40 O 0.59021 0.64503 0.03399 0.0
O41 O 0.62969 0.69445 0.99402 0.0
C42 C 0.50934 0.61485 0.93091 0.0
C43 C 0.57055 0.72016 0.99894 0.0
C44 C 0.60436 0.66035 0.82222 0.0
O45 O 0.53165 0.61288 0.96861 0.0
O46 O 0.52037 0.64312 0.89751 0.0
O47 O 0.59544 0.68335 0.82891 0.0
O48 O 0.59912 0.64133 0.87483 0.0
C49 C 0.62084 0.67076 0.03928 0.0
O50 O 0.58649 0.72398 0.94193 0.0
O51 O 0.55629 0.68986 0.02454 0.0
In52 In 0.89875 0.58168 0.10873 0.0
O53 O 0.85266 0.59238 0.10873 0.0
O54 O 0.85633 0.56198 0.19121 0.0
C55 C 0.934 0.60984 0.98889 0.0
C56 C 0.94013 0.62654 0.20605 0.0
C57 C 0.8844 0.51498 0.09808 0.0
O58 O 0.90206 0.60087 0.99553 0.0
O59 O 0.9478 0.60477 0.04164 0.0
O60 O 0.90871 0.53734 0.13566 0.0
O61 O 0.86715 0.52598 0.06464 0.0
C62 C 0.84043 0.57638 0.16565 0.0
O63 O 0.93512 0.59586 0.20086 0.0
O64 O 0.92538 0.63543 0.16072 0.0
In65 In 0.30714 0.90433 0.27583 0.0
O66 O 0.32917 0.94073 0.36797 0.0
O67 O 0.27979 0.93071 0.32779 0.0
C68 C 0.35962 0.89022 0.26502 0.0
C69 C 0.25425 0.84583 0.33266 0.0
C70 C 0.31412 0.93962 0.15611 0.0
O71 O 0.3615 0.91447 0.30272 0.0
O72 O 0.33139 0.87293 0.23154 0.0
O73 O 0.29115 0.90767 0.16277 0.0
O74 O 0.33305 0.95342 0.20878 0.0
C75 C 0.30341 0.94556 0.37315 0.0
O76 O 0.25047 0.85797 0.27564 0.0
O77 O 0.2845 0.86192 0.35839 0.0
In78 In 0.66208 0.58179 0.41878 0.0
O79 O 0.63984 0.59583 0.32652 0.0
O80 O 0.68918 0.63546 0.36641 0.0
C81 C 0.60969 0.5151 0.4298 0.0
C82 C 0.71509 0.57645 0.36201 0.0
C83 C 0.65505 0.6101 0.53841 0.0
O84 O 0.60775 0.53743 0.39206 0.0
O85 O 0.63794 0.52612 0.46322 0.0
O86 O 0.67798 0.60109 0.53188 0.0
O87 O 0.63618 0.605 0.48565 0.0
C88 C 0.66551 0.6265 0.32112 0.0
O89 O 0.71888 0.59253 0.41879 0.0
O90 O 0.68478 0.56197 0.33653 0.0
In91 In 0.07025 0.66714 0.58519 0.0
O92 O 0.0339 0.64505 0.49298 0.0
O93 O 0.04385 0.69444 0.53308 0.0
C94 C 0.08449 0.61473 0.59592 0.0
C95 C 0.1287 0.72014 0.5285 0.0
C96 C 0.03488 0.66005 0.70483 0.0
O97 O 0.06023 0.61281 0.55822 0.0
O98 O 0.10172 0.64295 0.62945 0.0
O99 O 0.06681 0.68305 0.69826 0.0
O100 O 0.02113 0.64112 0.65212 0.0
C101 C 0.02904 0.6708 0.48773 0.0
O102 O 0.11652 0.72386 0.58549 0.0
O103 O 0.11267 0.68988 0.50273 0.0
In104 In 0.39271 0.07563 0.75211 0.0
O105 O 0.37837 0.03924 0.65994 0.0
O106 O 0.33897 0.0492 0.70016 0.0
C107 C 0.45929 0.08968 0.76286 0.0
C108 C 0.39829 0.13409 0.69522 0.0
C109 C 0.36444 0.04041 0.87192 0.0
O110 O 0.43688 0.06542 0.72523 0.0
O111 O 0.4484 0.10703 0.79627 0.0
O112 O 0.37354 0.07239 0.86527 0.0
O113 O 0.36945 0.02655 0.81918 0.0
C114 C 0.34776 0.03437 0.65479 0.0
O115 O 0.3823 0.12191 0.75216 0.0
O116 O 0.41255 0.11807 0.66963 0.0
In117 In 0.30684 0.39785 0.91845 0.0
O118 O 0.32891 0.3835 0.82636 0.0
O119 O 0.27958 0.34404 0.86671 0.0
C120 C 0.35921 0.46457 0.92881 0.0
C121 C 0.25383 0.40316 0.86162 0.0
C122 C 0.31401 0.36978 0.03834 0.0
O123 O 0.36114 0.44218 0.89127 0.0
O124 O 0.331 0.4536 0.96235 0.0
O125 O 0.291 0.37868 0.03168 0.0
O126 O 0.33289 0.37487 0.98559 0.0
C127 C 0.30319 0.35284 0.8213 0.0
O128 O 0.2501 0.38728 0.91867 0.0
O129 O 0.28408 0.41743 0.83587 0.0
In130 In 0.89856 0.31236 0.08527 0.0
O131 O 0.93493 0.33447 0.99306 0.0
O132 O 0.92498 0.28508 0.03323 0.0
C133 C 0.88433 0.36478 0.09597 0.0
C134 C 0.84012 0.25938 0.02856 0.0
C135 C 0.93389 0.31943 0.20495 0.0
O136 O 0.90859 0.3667 0.05827 0.0
O137 O 0.86708 0.33655 0.12951 0.0
O138 O 0.90195 0.29644 0.19838 0.0
O139 O 0.94765 0.33835 0.15221 0.0
C140 C 0.9398 0.30872 0.98786 0.0
O141 O 0.85229 0.25563 0.08555 0.0
O142 O 0.85615 0.28965 1.00281 0.0
In143 In 0.57628 0.90409 0.25201 0.0
O144 O 0.59071 0.94047 0.15976 0.0
O145 O 0.63004 0.93044 0.2001 0.0
C146 C 0.5097 0.89007 0.26257 0.0
C147 C 0.57067 0.84559 0.19532 0.0
C148 C 0.60447 0.93934 0.37179 0.0
O149 O 0.53214 0.91433 0.22492 0.0
O150 O 0.52056 0.87273 0.29609 0.0
O151 O 0.59536 0.90735 0.36524 0.0
O152 O 0.59953 0.95319 0.31896 0.0
C153 C 0.6213 0.94528 0.15465 0.0
O154 O 0.58665 0.85778 0.25224 0.0
O155 O 0.55643 0.86162 0.16965 0.0
C156 C 0.32695 0.34405 0.15179 0.0
C157 C 0.31961 0.35583 0.10184 0.0
C158 C 0.33866 0.33243 0.20927 0.0
C159 C 0.35053 0.32516 0.25918 0.0
C160 C -0.00397 0.34389 0.37558 0.0
C161 C 0.0152 0.3557 0.42546 0.0
C162 C 0.97266 0.33225 0.31818 0.0
C163 C 0.95349 0.32497 0.26832 0.0
C164 C 0.63029 0.97803 0.48517 0.0
C165 C 0.61845 0.95889 0.43525 0.0
C166 C 0.64194 0.00136 0.54263 0.0
C167 C 0.64922 0.0205 0.59254 0.0
C168 C 0.64215 0.636 0.65163 0.0
C169 C 0.64948 0.62414 0.6018 0.0
C170 C 0.63042 0.64765 0.70899 0.0
C171 C 0.61849 0.6549 0.75883 0.0
C172 C -0.00393 0.64724 0.81805 0.0
C173 C 0.01525 0.65452 0.76819 0.0
C174 C 0.97271 0.63562 0.87548 0.0
C175 C 0.95356 0.62381 0.9254 0.0
C176 C 0.33856 0.00172 0.98533 0.0
C177 C 0.35042 0.02086 0.9354 0.0
C178 C 0.32689 0.97836 0.04278 0.0
C179 C 0.31962 0.9592 0.09268 0.0
C180 C 0.55571 0.45086 0.43261 0.0
C181 C 0.58132 0.47965 0.43384 0.0
C182 C 0.52369 0.41889 0.42956 0.0
C183 C 0.49488 0.39333 0.42818 0.0
C184 C 0.0948 0.52881 0.59541 0.0
C185 C 0.09157 0.50001 0.59409 0.0
C186 C 0.0948 0.56079 0.59847 0.0
C187 C 0.09158 0.58637 0.59978 0.0
C188 C 0.52343 0.09977 0.7656 0.0
C189 C 0.49468 0.09665 0.76681 0.0
C190 C 0.55538 0.0997 0.76267 0.0
C191 C 0.58094 0.09648 0.76141 0.0
C192 C 0.4451 0.56088 0.92812 0.0
C193 C 0.47389 0.58648 0.9269 0.0
C194 C 0.41313 0.52886 0.93116 0.0
C195 C 0.38757 0.50004 0.93254 0.0
C196 C 0.87405 0.41873 0.09854 0.0
C197 C 0.87726 0.39315 0.09984 0.0
C198 C 0.87405 0.45072 0.09551 0.0
C199 C 0.87728 0.47952 0.0942 0.0
C200 C 0.4136 0.88001 0.26226 0.0
C201 C 0.38801 0.88321 0.26107 0.0
C202 C 0.44555 0.87998 0.26517 0.0
C203 C 0.47431 0.88312 0.26642 0.0
C204 C 0.30267 0.31716 0.71206 0.0
C205 C 0.30009 0.33093 0.76389 0.0
C206 C 0.31198 0.30794 0.64894 0.0
C207 C 0.32579 0.30546 0.59708 0.0
C208 C 0.97492 0.30818 0.87854 0.0
C209 C 0.95858 0.30564 0.93038 0.0
C210 C -0.00651 0.31741 0.81545 0.0
C211 C 0.00985 0.33114 0.76359 0.0
C212 C 0.65701 0.98034 0.04528 0.0
C213 C 0.64323 0.96403 0.09717 0.0
C214 C 0.66626 -0.00112 0.98214 0.0
C215 C 0.66878 0.01522 0.93032 0.0
C216 C 0.65647 0.6712 0.14857 0.0
C217 C 0.64268 0.67378 0.09676 0.0
C218 C 0.66581 0.66197 0.21164 0.0
C219 C 0.66846 0.64828 0.26353 0.0
C220 C -0.00605 0.67136 0.3784 0.0
C221 C 0.01027 0.67389 0.43024 0.0
C222 C 0.97538 0.66212 0.31532 0.0
C223 C 0.959 0.64839 0.2635 0.0
C224 C 0.30282 0.98068 0.48242 0.0
C225 C 0.30028 0.96434 0.43059 0.0
C226 C 0.31208 -0.00077 0.54551 0.0
C227 C 0.32586 0.01558 0.59735 0.0
C228 C 0.39813 0.20922 0.5739 0.0
C229 C 0.39723 0.23095 0.53703 0.0
C230 C 0.39814 0.18424 0.6202 0.0
C231 C 0.39725 0.16163 0.6571 0.0
C232 C 0.20346 0.40288 0.78669 0.0
C233 C 0.2252 0.40204 0.8236 0.0
C234 C 0.17849 0.40287 0.74039 0.0
C235 C 0.15591 0.40202 0.7035 0.0
C236 C 0.78994 0.20901 0.95374 0.0
C237 C 0.81256 0.23076 0.99058 0.0
C238 C 0.76496 0.18399 0.9075 0.0
C239 C 0.74324 0.16136 0.87064 0.0
C240 C 0.57077 0.79541 0.12038 0.0
C241 C 0.57169 0.81803 0.15728 0.0
C242 C 0.57075 0.77044 0.07404 0.0
C243 C 0.57162 0.74873 0.03709 0.0
C244 C 0.76543 0.5767 0.28701 0.0
C245 C 0.7437 0.57756 0.32392 0.0
C246 C 0.79039 0.57668 0.24069 0.0
C247 C 0.81295 0.57751 0.20376 0.0
C248 C 0.17892 0.77054 0.45373 0.0
C249 C 0.15628 0.74877 0.49054 0.0
C250 C 0.20393 0.79558 0.40752 0.0
C251 C 0.22567 0.81823 0.37068 0.0
loop_
_geom_bond_atom_site_label_1
_geom_bond_atom_site_label_2
_geom_bond_distance
_geom_bond_site_symmetry_2
_ccdc_geom_bond_type
In0 O1 2.294 . S
In0 O2 2.326 . S
In0 O6 2.266 . S
In0 O7 2.326 . S
In0 O8 2.266 . S
In0 O9 2.326 . S
In0 O11 2.294 . S
In0 O12 2.326 . S
O1 In0 2.294 . S
O1 C10 1.240 . S
O2 In0 2.326 . S
O2 C10 1.252 . S
C3 O6 1.252 . S
C3 O7 1.260 . S
C4 O11 1.240 . S
C4 O12 1.252 . S
C5 O8 1.252 . S
C5 O9 1.260 . S
O6 In0 2.266 . S
O6 C3 1.252 . S
O7 In0 2.326 . S
O7 C3 1.260 . S
O8 In0 2.266 . S
O8 C5 1.252 . S
O9 In0 2.326 . S
O9 C5 1.260 . S
C10 O1 1.240 . S
C10 O2 1.252 . S
O11 In0 2.294 . S
O11 C4 1.240 . S
O12 In0 2.326 . S
O12 C4 1.252 . S
In13 O14 2.294 . S
In13 O15 2.326 . S
In13 O19 2.266 . S
In13 O20 2.326 . S
In13 O21 2.266 . S
In13 O22 2.326 . S
In13 O24 2.294 . S
In13 O25 2.326 . S
O14 In13 2.294 . S
O14 C23 1.240 . S
O15 In13 2.326 . S
O15 C23 1.252 . S
C16 O19 1.252 . S
C16 O20 1.260 . S
C17 O24 1.240 . S
C17 O25 1.252 . S
C18 O21 1.252 . S
C18 O22 1.260 . S
O19 In13 2.266 . S
O19 C16 1.252 . S
O20 In13 2.326 . S
O20 C16 1.260 . S
O21 In13 2.266 . S
O21 C18 1.252 . S
O22 In13 2.326 . S
O22 C18 1.260 . S
C23 O14 1.240 . S
C23 O15 1.252 . S
O24 In13 2.294 . S
O24 C17 1.240 . S
O25 In13 2.326 . S
O25 C17 1.252 . S
In26 O27 2.294 . S
In26 O28 2.326 . S
In26 O32 2.266 . S
In26 O33 2.326 . S
In26 O34 2.266 . S
In26 O35 2.326 . S
In26 O37 2.294 . S
In26 O38 2.326 . S
O27 In26 2.294 . S
O27 C36 1.240 . S
O28 In26 2.326 . S
O28 C36 1.252 . S
C29 O32 1.252 . S
C29 O33 1.260 . S
C30 O37 1.240 . S
C30 O38 1.252 . S
C31 O34 1.252 . S
C31 O35 1.260 . S
O32 In26 2.266 . S
O32 C29 1.252 . S
O33 In26 2.326 . S
O33 C29 1.260 . S
O34 In26 2.266 . S
O34 C31 1.252 . S
O35 In26 2.326 . S
O35 C31 1.260 . S
C36 O27 1.240 . S
C36 O28 1.252 . S
O37 In26 2.294 . S
O37 C30 1.240 . S
O38 In26 2.326 . S
O38 C30 1.252 . S
In39 O40 2.294 1_556 S
In39 O41 2.326 . S
In39 O45 2.266 . S
In39 O46 2.326 . S
In39 O47 2.266 . S
In39 O48 2.326 . S
In39 O50 2.294 . S
In39 O51 2.326 1_556 S
O40 In39 2.294 1_554 S
O40 C49 1.240 . S
O41 In39 2.326 . S
O41 C49 1.252 1_556 S
C42 O45 1.252 . S
C42 O46 1.260 . S
C43 O50 1.240 . S
C43 O51 1.252 1_556 S
C44 O47 1.252 . S
C44 O48 1.260 . S
O45 In39 2.266 . S
O45 C42 1.252 . S
O46 In39 2.326 . S
O46 C42 1.260 . S
O47 In39 2.266 . S
O47 C44 1.252 . S
O48 In39 2.326 . S
O48 C44 1.260 . S
C49 O40 1.240 . S
C49 O41 1.252 1_554 S
O50 In39 2.294 . S
O50 C43 1.240 . S
O51 In39 2.326 1_554 S
O51 C43 1.252 1_554 S
In52 O53 2.294 . S
In52 O54 2.326 . S
In52 O58 2.266 1_554 S
In52 O59 2.326 . S
In52 O60 2.266 . S
In52 O61 2.326 . S
In52 O63 2.294 . S
In52 O64 2.326 . S
O53 In52 2.294 . S
O53 C62 1.240 . S
O54 In52 2.326 . S
O54 C62 1.252 . S
C55 O58 1.252 . S
C55 O59 1.260 1_556 S
C56 O63 1.240 . S
C56 O64 1.252 . S
C57 O60 1.252 . S
C57 O61 1.260 . S
O58 In52 2.266 1_556 S
O58 C55 1.252 . S
O59 In52 2.326 . S
O59 C55 1.260 1_554 S
O60 In52 2.266 . S
O60 C57 1.252 . S
O61 In52 2.326 . S
O61 C57 1.260 . S
C62 O53 1.240 . S
C62 O54 1.252 . S
O63 In52 2.294 . S
O63 C56 1.240 . S
O64 In52 2.326 . S
O64 C56 1.252 . S
In65 O66 2.294 . S
In65 O67 2.326 . S
In65 O71 2.266 . S
In65 O72 2.326 . S
In65 O73 2.266 . S
In65 O74 2.326 . S
In65 O76 2.294 . S
In65 O77 2.326 . S
O66 In65 2.294 . S
O66 C75 1.240 . S
O67 In65 2.326 . S
O67 C75 1.252 . S
C68 O71 1.252 . S
C68 O72 1.260 . S
C69 O76 1.240 . S
C69 O77 1.252 . S
C70 O73 1.252 . S
C70 O74 1.260 . S
O71 In65 2.266 . S
O71 C68 1.252 . S
O72 In65 2.326 . S
O72 C68 1.260 . S
O73 In65 2.266 . S
O73 C70 1.252 . S
O74 In65 2.326 . S
O74 C70 1.260 . S
C75 O66 1.240 . S
C75 O67 1.252 . S
O76 In65 2.294 . S
O76 C69 1.240 . S
O77 In65 2.326 . S
O77 C69 1.252 . S
In78 O79 2.294 . S
In78 O80 2.326 . S
In78 O84 2.266 . S
In78 O85 2.326 . S
In78 O86 2.266 . S
In78 O87 2.326 . S
In78 O89 2.294 . S
In78 O90 2.326 . S
O79 In78 2.294 . S
O79 C88 1.240 . S
O80 In78 2.326 . S
O80 C88 1.252 . S
C81 O84 1.252 . S
C81 O85 1.260 . S
C82 O89 1.240 . S
C82 O90 1.252 . S
C83 O86 1.252 . S
C83 O87 1.260 . S
O84 In78 2.266 . S
O84 C81 1.252 . S
O85 In78 2.326 . S
O85 C81 1.260 . S
O86 In78 2.266 . S
O86 C83 1.252 . S
O87 In78 2.326 . S
O87 C83 1.260 . S
C88 O79 1.240 . S
C88 O80 1.252 . S
O89 In78 2.294 . S
O89 C82 1.240 . S
O90 In78 2.326 . S
O90 C82 1.252 . S
In91 O92 2.294 . S
In91 O93 2.326 . S
In91 O97 2.266 . S
In91 O98 2.326 . S
In91 O99 2.266 . S
In91 O100 2.326 . S
In91 O102 2.294 . S
In91 O103 2.326 . S
O92 In91 2.294 . S
O92 C101 1.240 . S
O93 In91 2.326 . S
O93 C101 1.252 . S
C94 O97 1.252 . S
C94 O98 1.260 . S
C95 O102 1.240 . S
C95 O103 1.252 . S
C96 O99 1.252 . S
C96 O100 1.260 . S
O97 In91 2.266 . S
O97 C94 1.252 . S
O98 In91 2.326 . S
O98 C94 1.260 . S
O99 In91 2.266 . S
O99 C96 1.252 . S
O100 In91 2.326 . S
O100 C96 1.260 . S
C101 O92 1.240 . S
C101 O93 1.252 . S
O102 In91 2.294 . S
O102 C95 1.240 . S
O103 In91 2.326 . S
O103 C95 1.252 . S
In104 O105 2.294 . S
In104 O106 2.326 . S
In104 O110 2.266 . S
In104 O111 2.326 . S
In104 O112 2.266 . S
In104 O113 2.326 . S
In104 O115 2.294 . S
In104 O116 2.326 . S
O105 In104 2.294 . S
O105 C114 1.240 . S
O106 In104 2.326 . S
O106 C114 1.252 . S
C107 O110 1.252 . S
C107 O111 1.260 . S
C108 O115 1.240 . S
C108 O116 1.252 . S
C109 O112 1.252 . S
C109 O113 1.260 . S
O110 In104 2.266 . S
O110 C107 1.252 . S
O111 In104 2.326 . S
O111 C107 1.260 . S
O112 In104 2.266 . S
O112 C109 1.252 . S
O113 In104 2.326 . S
O113 C109 1.260 . S
C114 O105 1.240 . S
C114 O106 1.252 . S
O115 In104 2.294 . S
O115 C108 1.240 . S
O116 In104 2.326 . S
O116 C108 1.252 . S
In117 O118 2.294 . S
In117 O119 2.326 . S
In117 O123 2.266 . S
In117 O124 2.326 . S
In117 O125 2.266 1_556 S
In117 O126 2.326 . S
In117 O128 2.294 . S
In117 O129 2.326 . S
O118 In117 2.294 . S
O118 C127 1.240 . S
O119 In117 2.326 . S
O119 C127 1.252 . S
C120 O123 1.252 . S
C120 O124 1.260 . S
C121 O128 1.240 . S
C121 O129 1.252 . S
C122 O125 1.252 . S
C122 O126 1.260 1_554 S
O123 In117 2.266 . S
O123 C120 1.252 . S
O124 In117 2.326 . S
O124 C120 1.260 . S
O125 In117 2.266 1_554 S
O125 C122 1.252 . S
O126 In117 2.326 . S
O126 C122 1.260 1_556 S
C127 O118 1.240 . S
C127 O119 1.252 . S
O128 In117 2.294 . S
O128 C121 1.240 . S
O129 In117 2.326 . S
O129 C121 1.252 . S
In130 O131 2.294 1_554 S
In130 O132 2.326 . S
In130 O136 2.266 . S
In130 O137 2.326 . S
In130 O138 2.266 . S
In130 O139 2.326 . S
In130 O141 2.294 . S
In130 O142 2.326 1_554 S
O131 In130 2.294 1_556 S
O131 C140 1.240 . S
O132 In130 2.326 . S
O132 C140 1.252 1_554 S
C133 O136 1.252 . S
C133 O137 1.260 . S
C134 O141 1.240 . S
C134 O142 1.252 1_554 S
C135 O138 1.252 . S
C135 O139 1.260 . S
O136 In130 2.266 . S
O136 C133 1.252 . S
O137 In130 2.326 . S
O137 C133 1.260 . S
O138 In130 2.266 . S
O138 C135 1.252 . S
O139 In130 2.326 . S
O139 C135 1.260 . S
C140 O131 1.240 . S
C140 O132 1.252 1_556 S
O141 In130 2.294 . S
O141 C134 1.240 . S
O142 In130 2.326 1_556 S
O142 C134 1.252 1_556 S
In143 O144 2.294 . S
In143 O145 2.326 . S
In143 O149 2.266 . S
In143 O150 2.326 . S
In143 O151 2.266 . S
In143 O152 2.326 . S
In143 O154 2.294 . S
In143 O155 2.326 . S
O144 In143 2.294 . S
O144 C153 1.240 . S
O145 In143 2.326 . S
O145 C153 1.252 . S
C146 O149 1.252 . S
C146 O150 1.260 . S
C147 O154 1.240 . S
C147 O155 1.252 . S
C148 O151 1.252 . S
C148 O152 1.260 . S
O149 In143 2.266 . S
O149 C146 1.252 . S
O150 In143 2.326 . S
O150 C146 1.260 . S
O151 In143 2.266 . S
O151 C148 1.252 . S
O152 In143 2.326 . S
O152 C148 1.260 . S
C153 O144 1.240 . S
C153 O145 1.252 . S
O154 In143 2.294 . S
O154 C147 1.240 . S
O155 In143 2.326 . S
O155 C147 1.252 . S
C156 C157 1.170 . S
C156 C158 1.380 . S
C157 C156 1.170 . S
C158 C156 1.380 . S
C158 C159 1.170 . S
C159 C158 1.170 . S
C160 C161 1.170 . S
C160 C162 1.380 1_455 S
C161 C160 1.170 . S
C162 C160 1.380 1_655 S
C162 C163 1.170 . S
C163 C162 1.170 . S
C164 C165 1.170 . S
C164 C166 1.380 1_565 S
C165 C164 1.170 . S
C166 C164 1.380 1_545 S
C166 C167 1.170 . S
C167 C166 1.170 . S
C168 C169 1.170 . S
C168 C170 1.380 . S
C169 C168 1.170 . S
C170 C168 1.380 . S
C170 C171 1.170 . S
C171 C170 1.170 . S
C172 C173 1.170 . S
C172 C174 1.380 1_455 S
C173 C172 1.170 . S
C174 C172 1.380 1_655 S
C174 C175 1.170 . S
C175 C174 1.170 . S
C176 C177 1.170 . S
C176 C178 1.380 1_546 S
C177 C176 1.170 . S
C178 C176 1.380 1_564 S
C178 C179 1.170 . S
C179 C178 1.170 . S
C180 C181 1.170 . S
C180 C182 1.380 . S
C181 C180 1.170 . S
C182 C180 1.380 . S
C182 C183 1.170 . S
C183 C182 1.170 . S
C184 C185 1.170 . S
C184 C186 1.380 . S
C185 C184 1.170 . S
C186 C184 1.380 . S
C186 C187 1.170 . S
C187 C186 1.170 . S
C188 C189 1.170 . S
C188 C190 1.380 . S
C189 C188 1.170 . S
C190 C188 1.380 . S
C190 C191 1.170 . S
C191 C190 1.170 . S
C192 C193 1.170 . S
C192 C194 1.380 . S
C193 C192 1.170 . S
C194 C192 1.380 . S
C194 C195 1.170 . S
C195 C194 1.170 . S
C196 C197 1.170 . S
C196 C198 1.380 . S
C197 C196 1.170 . S
C198 C196 1.380 . S
C198 C199 1.170 . S
C199 C198 1.170 . S
C200 C201 1.170 . S
C200 C202 1.380 . S
C201 C200 1.170 . S
C202 C200 1.380 . S
C202 C203 1.170 . S
C203 C202 1.170 . S
C204 C205 1.170 . S
C204 C206 1.380 . S
C205 C204 1.170 . S
C206 C204 1.380 . S
C206 C207 1.170 . S
C207 C206 1.170 . S
C208 C209 1.170 . S
C208 C210 1.380 1_655 S
C209 C208 1.170 . S
C210 C208 1.380 1_455 S
C210 C211 1.170 . S
C211 C210 1.170 . S
C212 C213 1.170 . S
C212 C214 1.380 1_564 S
C213 C212 1.170 . S
C214 C212 1.380 1_546 S
C214 C215 1.170 . S
C215 C214 1.170 . S
C216 C217 1.170 . S
C216 C218 1.380 . S
C217 C216 1.170 . S
C218 C216 1.380 . S
C218 C219 1.170 . S
C219 C218 1.170 . S
C220 C221 1.170 . S
C220 C222 1.380 1_455 S
C221 C220 1.170 . S
C222 C220 1.380 1_655 S
C222 C223 1.170 . S
C223 C222 1.170 . S
C224 C225 1.170 . S
C224 C226 1.380 1_565 S
C225 C224 1.170 . S
C226 C224 1.380 1_545 S
C226 C227 1.170 . S
C227 C226 1.170 . S
C228 C229 1.170 . S
C228 C230 1.380 . S
C229 C228 1.170 . S
C230 C228 1.380 . S
C230 C231 1.170 . S
C231 C230 1.170 . S
C232 C233 1.170 . S
C232 C234 1.380 . S
C233 C232 1.170 . S
C234 C232 1.380 . S
C234 C235 1.170 . S
C235 C234 1.170 . S
C236 C237 1.170 . S
C236 C238 1.380 . S
C237 C236 1.170 . S
C238 C236 1.380 . S
C238 C239 1.170 . S
C239 C238 1.170 . S
C240 C241 1.170 . S
C240 C242 1.380 . S
C241 C240 1.170 . S
C242 C240 1.380 . S
C242 C243 1.170 . S
C243 C242 1.170 . S
C244 C245 1.170 . S
C244 C246 1.380 . S
C245 C244 1.170 . S
C246 C244 1.380 . S
C246 C247 1.170 . S
C247 C246 1.170 . S
C248 C249 1.170 . S
C248 C250 1.380 . S
C249 C248 1.170 . S
C250 C248 1.380 . S
C250 C251 1.170 . S
C251 C250 1.170 . S
C157 C122 1.731 . S
C159 C3 1.730 . S
C161 C16 1.729 . S
C163 C135 1.734 . S
C165 C148 1.734 . S
C167 C29 1.729 . S
C169 C83 1.737 . S
C171 C44 1.738 . S
C173 C96 1.732 . S
C175 C55 1.739 . S
C177 C109 1.738 . S
C179 C70 1.737 . S
C181 C81 1.738 . S
C183 C5 1.722 . S
C185 C18 1.737 . S
C187 C94 1.727 . S
C189 C107 1.713 . S
C191 C31 1.704 . S
C193 C42 1.738 . S
C195 C120 1.722 . S
C197 C133 1.722 . S
C199 C57 1.702 . S
C201 C68 1.705 . S
C203 C146 1.710 . S
C205 C127 1.357 . S
C207 C4 1.341 . S
C209 C140 1.332 . S
C211 C17 1.349 . S
C213 C153 1.333 . S
C215 C30 1.350 . S
C217 C49 1.332 . S
C219 C88 1.329 . S
C221 C101 1.328 . S
C223 C56 1.335 . S
C225 C75 1.328 . S
C227 C114 1.336 . S
C229 C10 1.270 . S
C231 C108 1.288 . S
C233 C121 1.277 . S
C235 C23 1.285 . S
C237 C134 1.271 1_556 S
C239 C36 1.288 . S
C241 C147 1.292 . S
C243 C43 1.268 1_554 S
C245 C82 1.268 . S
C247 C62 1.292 . S
C249 C95 1.291 . S
C251 C69 1.268 . S
