# Generated by pormake.
# Topology mok, (4)-cn, num edge types: 1
# Building blocks:
#     Node 0, Type 0, BuildingBlock: TATPOV_clean_sbu_0, # of connection points: 4
#     Node 1, Type 0, BuildingBlock: TATPOV_clean_sbu_0, # of connection points: 4
#     Node 2, Type 0, BuildingBlock: TATPOV_clean_sbu_0, # of connection points: 4
#     Node 3, Type 0, BuildingBlock: TATPOV_clean_sbu_0, # of connection points: 4
#     Node 4, Type 0, BuildingBlock: TATPOV_clean_sbu_0, # of connection points: 4
#     Node 5, Type 0, BuildingBlock: TATPOV_clean_sbu_0, # of connection points: 4
#     Node 6, Type 0, BuildingBlock: TATPOV_clean_sbu_0, # of connection points: 4
#     Node 7, Type 0, BuildingBlock: TATPOV_clean_sbu_0, # of connection points: 4
#     Edge 8, Type (0, 0), BuildingBlock: FUNLAD_clean_linker_0, # of connection points: 2
#     Edge 9, Type (0, 0), BuildingBlock: FUNLAD_clean_linker_0, # of connection points: 2
#     Edge 10, Type (0, 0), BuildingBlock: FUNLAD_clean_linker_0, # of connection points: 2
#     Edge 11, Type (0, 0), BuildingBlock: FUNLAD_clean_linker_0, # of connection points: 2
#     Edge 12, Type (0, 0), BuildingBlock: FUNLAD_clean_linker_0, # of connection points: 2
#     Edge 13, Type (0, 0), BuildingBlock: FUNLAD_clean_linker_0, # of connection points: 2
#     Edge 14, Type (0, 0), BuildingBlock: FUNLAD_clean_linker_0, # of connection points: 2
#     Edge 15, Type (0, 0), BuildingBlock: FUNLAD_clean_linker_0, # of connection points: 2
#     Edge 16, Type (0, 0), BuildingBlock: FUNLAD_clean_linker_0, # of connection points: 2
#     Edge 17, Type (0, 0), BuildingBlock: FUNLAD_clean_linker_0, # of connection points: 2
#     Edge 18, Type (0, 0), BuildingBlock: FUNLAD_clean_linker_0, # of connection points: 2
#     Edge 19, Type (0, 0), BuildingBlock: FUNLAD_clean_linker_0, # of connection points: 2
#     Edge 20, Type (0, 0), BuildingBlock: FUNLAD_clean_linker_0, # of connection points: 2
#     Edge 21, Type (0, 0), BuildingBlock: FUNLAD_clean_linker_0, # of connection points: 2
#     Edge 22, Type (0, 0), BuildingBlock: FUNLAD_clean_linker_0, # of connection points: 2
#     Edge 23, Type (0, 0), BuildingBlock: FUNLAD_clean_linker_0, # of connection points: 2
# Relax obj value: 0.024
# Max RMSD: 0.042
# Mean RMSD: 0.042
data_MOF--net-mok--node1-TATPOV_clean_sbu_0--edge1-FUNLAD_clean_linker_0
_symmetry_space_group_name_H-M    P1
_symmetry_Int_Tables_number       1
_symmetry_cell_setting            triclinic
loop_
_symmetry_equiv_pos_as_xyz
'x, y, z'
_cell_length_a     52.834833
_cell_length_b     23.01504
_cell_length_c     31.182709
_cell_angle_alpha  90.169348
_cell_angle_beta   90.148617
_cell_angle_gamma 89.83385
loop_
_atom_site_label
_atom_site_type_symbol
_atom_site_fract_x
_atom_site_fract_y
_atom_site_fract_z
_atom_type_partial_charge
Zn0 Zn 0.63957 0.44041 0.01535 0.0
Zn1 Zn 0.6144 0.34053 0.00752 0.0
O2 O 0.6008 0.37595 0.06419 0.0
O3 O 0.62164 0.45817 0.07055 0.0
O4 O 0.59483 0.2647 0.00221 0.0
O5 O 0.62381 0.46912 0.96072 0.0
O6 O 0.60237 0.38763 0.95457 0.0
C7 C 0.60524 0.42303 0.08451 0.0
C8 C 0.67335 0.34327 0.01086 0.0
O9 O 0.65256 0.31527 0.00751 0.0
O10 O 0.67292 0.39801 0.01491 0.0
C11 C 0.5901 0.23369 0.03496 0.0
O12 O 0.5988 0.2503 0.07255 0.0
C13 C 0.60778 0.4383 0.94086 0.0
Zn14 Zn 0.41684 0.57518 -0.01208 0.0
Zn15 Zn 0.43692 0.68046 -0.00225 0.0
O16 O 0.44902 0.63526 0.05188 0.0
O17 O 0.43105 0.54966 0.04421 0.0
O18 O 0.45402 0.75928 0.00333 0.0
O19 O 0.43789 0.56037 0.93571 0.0
O20 O 0.45244 0.64971 0.94096 0.0
C21 C 0.44504 0.58379 0.06546 0.0
C22 C 0.37892 0.66554 -0.0107 0.0
O23 O 0.39812 0.69821 -0.00446 0.0
O24 O 0.38204 0.61137 0.98411 0.0
C25 C 0.45784 0.78448 0.03913 0.0
O26 O 0.44948 0.76003 0.07436 0.0
C27 C 0.45171 0.6008 0.92166 0.0
Zn28 Zn 0.60689 0.5589 0.51304 0.0
Zn29 Zn 0.58738 0.66539 0.51435 0.0
O30 O 0.5745 0.63018 0.45674 0.0
O31 O 0.59046 0.54171 0.45674 0.0
O32 O 0.57055 0.74509 0.51521 0.0
O33 O 0.58826 0.53715 0.56614 0.0
O34 O 0.57321 0.62635 0.5696 0.0
C35 C 0.57711 0.5805 0.43894 0.0
C36 C 0.64537 0.64746 0.51689 0.0
O37 O 0.62623 0.68155 0.51604 0.0
O38 O 0.64207 0.59296 0.51622 0.0
C39 C 0.57834 0.78758 0.49283 0.0
O40 O 0.59849 0.78053 0.46875 0.0
C41 C 0.57488 0.57506 0.58491 0.0
Zn42 Zn 0.40928 0.4579 0.50366 0.0
Zn43 Zn 0.43297 0.35555 0.49782 0.0
O44 O 0.44471 0.39846 0.44277 0.0
O45 O 0.42442 0.48192 0.44775 0.0
O46 O 0.45174 0.27791 0.49574 0.0
O47 O 0.42848 0.47777 0.55705 0.0
O48 O 0.44752 0.3927 0.55335 0.0
C49 C 0.43968 0.44891 0.42802 0.0
C50 C 0.37411 0.36397 0.5036 0.0
O51 O 0.39446 0.33422 0.49986 0.0
O52 O 0.37528 0.41879 0.50634 0.0
C53 C 0.44194 0.22994 0.48398 0.0
O54 O 0.41821 0.22918 0.47132 0.0
C55 C 0.44428 0.44163 0.57194 0.0
Zn56 Zn 0.12338 0.9701 0.00305 0.0
Zn57 Zn 0.10422 0.86257 0.00247 0.0
O58 O 0.08863 0.89873 0.0577 0.0
O59 O 0.10388 0.98769 0.0564 0.0
O60 O 0.08968 0.78073 -0.00226 0.0
O61 O 0.10657 0.98867 0.94717 0.0
O62 O 0.09021 0.90083 0.9472 0.0
C63 C 0.09 0.94974 0.07373 0.0
C64 C 0.16242 0.88356 0.00532 0.0
O65 O 0.14341 0.84933 0.00397 0.0
O66 O 0.15889 0.938 0.00558 0.0
C67 C 0.07579 0.75596 0.02552 0.0
O68 O 0.07051 0.78336 0.06142 0.0
C69 C 0.09254 0.95072 0.92994 0.0
Zn70 Zn 0.93035 0.05271 -0.00262 0.0
Zn71 Zn 0.95205 0.15816 0.00069 0.0
O72 O 0.96475 0.11557 0.05517 0.0
O73 O 0.94737 0.02881 0.05207 0.0
O74 O 0.96904 0.23677 0.00739 0.0
O75 O 0.94897 0.03696 0.94265 0.0
O76 O 0.96589 0.12443 0.94347 0.0
C77 C 0.96169 0.0649 0.07076 0.0
C78 C 0.89366 0.14585 -0.00134 0.0
O79 O 0.91358 0.17716 -1e-05 0.0
O80 O 0.89565 0.09098 -0.00261 0.0
C81 C 0.97116 0.27474 0.97805 0.0
O82 O 0.96175 0.2638 0.93983 0.0
C83 C 0.96316 0.07473 0.92579 0.0
Zn84 Zn 0.11752 0.07959 0.5112 0.0
Zn85 Zn 0.09452 0.18176 0.49923 0.0
O86 O 0.08302 0.13252 0.44668 0.0
O87 O 0.10368 0.05018 0.45554 0.0
O88 O 0.07608 0.25871 0.49145 0.0
O89 O 0.09683 0.06555 0.5639 0.0
O90 O 0.07999 0.15272 0.5569 0.0
C91 C 0.08844 0.08112 0.43406 0.0
C92 C 0.15297 0.17383 0.50726 0.0
O93 O 0.13284 0.20336 0.50039 0.0
O94 O 0.15147 0.1197 0.51397 0.0
C95 C 0.07606 0.29602 0.52166 0.0
O96 O 0.08888 0.28466 0.55683 0.0
C97 C 0.08206 0.10497 0.57724 0.0
Zn98 Zn 0.89988 0.95149 0.49237 0.0
Zn99 Zn 0.91978 0.84575 0.50344 0.0
O100 O 0.93464 0.87322 0.4456 0.0
O101 O 0.91874 0.96095 0.43719 0.0
O102 O 0.93635 0.76649 0.51063 0.0
O103 O 0.91677 0.97961 0.54608 0.0
O104 O 0.93355 0.89284 0.55536 0.0
C105 C 0.93287 0.92013 0.42413 0.0
C106 C 0.8616 0.86338 0.49913 0.0
O107 O 0.8808 0.82999 0.50366 0.0
O108 O 0.86481 0.91734 0.49357 0.0
C109 C 0.93648 0.72994 0.47991 0.0
O110 O 0.92467 0.74316 0.4441 0.0
C111 C 0.93084 0.9456 0.56733 0.0
C112 C 0.84619 0.13821 -0.00302 0.0
C113 C 0.86805 0.17301 -0.00132 0.0
C114 C 0.82201 0.16327 -0.00296 0.0
C115 C 0.81901 0.22406 -0.00097 0.0
C116 C 0.84089 0.25875 0.00035 0.0
C117 C 0.86508 0.23366 0.00029 0.0
C118 C 0.79369 0.25342 -0.00106 0.0
C119 C 0.77135 0.22664 0.00642 0.0
C120 C 0.74639 0.25749 0.0073 0.0
C121 C 0.72397 0.22536 0.00182 0.0
C122 C 0.70019 0.25272 0.00298 0.0
C123 C 0.69829 0.31295 0.00992 0.0
H124 H 0.76089 0.34402 0.021 0.0
C125 C 0.72071 0.34487 0.01602 0.0
C126 C 0.74437 0.31762 0.01495 0.0
H127 H 0.72006 0.39124 0.02196 0.0
H128 H 0.84771 0.09131 -0.00459 0.0
H129 H 0.80592 0.13456 -0.00509 0.0
H130 H 0.8393 0.30567 0.00164 0.0
H131 H 0.88144 0.26188 0.0015 0.0
H132 H 0.79377 0.29973 -0.00737 0.0
H133 H 0.77096 0.1802 0.01201 0.0
H134 H 0.72483 0.17889 -0.00365 0.0
H135 H 0.68335 0.22671 -0.00167 0.0
C136 C 0.19411 0.80132 0.00064 0.0
C137 C 0.18881 0.86075 0.00634 0.0
C138 C 0.2192 0.781 0.00078 0.0
C139 C 0.23956 0.8198 0.00667 0.0
C140 C 0.23412 0.87887 0.01316 0.0
C141 C 0.20917 0.89915 0.01274 0.0
C142 C 0.26661 0.80073 0.00756 0.0
C143 C 0.27522 0.75203 -0.01176 0.0
C144 C 0.30222 0.73235 -0.01114 0.0
C145 C 0.30742 0.67414 0.97857 0.0
C146 C 0.33222 0.65299 0.97859 0.0
C147 C 0.35272 0.68959 -0.01144 0.0
H148 H 0.3198 0.81502 0.00524 0.0
C149 C 0.3477 0.74823 -0.00184 0.0
C150 C 0.32274 0.76947 -0.0017 0.0
H151 H 0.36302 0.77773 0.00572 0.0
H152 H 0.1789 0.77048 -0.00408 0.0
H153 H 0.22243 0.73485 -0.00303 0.0
H154 H 0.2493 0.90974 0.01819 0.0
H155 H 0.20589 0.94518 0.01753 0.0
H156 H 0.27983 0.82894 0.02416 0.0
H157 H 0.26188 0.72432 0.9714 0.0
H158 H 0.29216 0.64453 0.9708 0.0
H159 H 0.33526 0.60762 0.97078 0.0
C160 C 0.8303 0.78142 0.50845 0.0
C161 C 0.83531 0.84032 0.50024 0.0
C162 C 0.80529 0.76089 0.50948 0.0
C163 C 0.78472 0.79899 0.50238 0.0
C164 C 0.78987 0.85755 0.49378 0.0
C165 C 0.81472 0.878 0.49289 0.0
C166 C 0.7577 0.77988 0.50218 0.0
C167 C 0.74928 0.73057 0.52046 0.0
C168 C 0.72227 0.71155 0.51953 0.0
C169 C 0.71703 0.65234 0.52504 0.0
C170 C 0.69215 0.63198 0.52424 0.0
C171 C 0.67166 0.67041 0.51842 0.0
H172 H 0.70485 0.79665 0.51127 0.0
C173 C 0.67676 0.73 0.51377 0.0
C174 C 0.70178 0.75042 0.51431 0.0
H175 H 0.66144 0.76086 0.50954 0.0
H176 H 0.84568 0.75112 0.51396 0.0
H177 H 0.80235 0.71508 0.51507 0.0
H178 H 0.77456 0.88793 0.48786 0.0
H179 H 0.81773 0.92363 0.48628 0.0
H180 H 0.74423 0.80842 0.4864 0.0
H181 H 0.76267 0.70169 0.53608 0.0
H182 H 0.7323 0.6214 0.52953 0.0
H183 H 0.68903 0.58582 0.52824 0.0
C184 C 0.19997 0.16969 0.51876 0.0
C185 C 0.17833 0.2018 0.50703 0.0
C186 C 0.22403 0.1949 0.51805 0.0
C187 C 0.22719 0.25297 0.50506 0.0
C188 C 0.20549 0.28525 0.49386 0.0
C189 C 0.18136 0.26006 0.49481 0.0
C190 C 0.25247 0.28212 0.50401 0.0
C191 C 0.27497 0.25385 0.50553 0.0
C192 C 0.30019 0.28331 0.50514 0.0
C193 C 0.32204 0.25014 0.49646 0.0
C194 C 0.34608 0.27582 0.49617 0.0
C195 C 0.34887 0.33547 0.50461 0.0
H196 H 0.28717 0.37 0.52277 0.0
C197 C 0.32708 0.36849 0.51387 0.0
C198 C 0.30313 0.34283 0.51441 0.0
H199 H 0.32848 0.41444 0.52106 0.0
H200 H 0.19838 0.12484 0.52882 0.0
H201 H 0.23988 0.1686 0.52833 0.0
H202 H 0.20719 0.33022 0.48413 0.0
H203 H 0.16514 0.28615 0.48566 0.0
H204 H 0.25224 0.32896 0.5005 0.0
H205 H 0.27526 0.20676 0.50575 0.0
H206 H 0.32051 0.20409 0.48964 0.0
H207 H 0.36243 0.24902 0.48904 0.0
C208 C 0.59468 0.49251 0.14352 0.0
C209 C 0.59109 0.438 0.12402 0.0
C210 C 0.58226 0.50684 0.1815 0.0
C211 C 0.56574 0.46708 0.20102 0.0
C212 C 0.56171 0.41301 0.18107 0.0
C213 C 0.57414 0.39867 0.14281 0.0
C214 C 0.55556 0.47748 0.24485 0.0
C215 C 0.55409 0.5308 0.2629 0.0
C216 C 0.55391 0.54164 0.31009 0.0
C217 C 0.55395 0.59953 0.32484 0.0
C218 C 0.55987 0.6126 0.36761 0.0
C219 C 0.566 0.56788 0.39634 0.0
H220 H 0.55785 0.45159 0.33095 0.0
C221 C 0.56381 0.50994 0.38259 0.0
C222 C 0.55779 0.49685 0.3401 0.0
H223 H 0.56794 0.4744 0.40425 0.0
H224 H 0.60756 0.52399 0.12993 0.0
H225 H 0.58672 0.54813 0.19629 0.0
H226 H 0.54939 0.38119 0.19568 0.0
H227 H 0.57089 0.35638 0.12854 0.0
H228 H 0.55129 0.43915 0.26353 0.0
H229 H 0.55602 0.56872 0.24255 0.0
H230 H 0.55093 0.63503 0.30265 0.0
H231 H 0.5612 0.6577 0.37738 0.0
C232 C 0.46842 0.60094 0.13492 0.0
C233 C 0.45632 0.56291 0.10617 0.0
C234 C 0.47687 0.5809 0.17492 0.0
C235 C 0.47325 0.52242 0.18683 0.0
C236 C 0.46277 0.48393 0.15678 0.0
C237 C 0.45429 0.50387 0.11711 0.0
C238 C 0.47762 0.50045 0.2311 0.0
C239 C 0.47649 0.53493 0.266 0.0
C240 C 0.47071 0.51253 0.30958 0.0
C241 C 0.45789 0.54972 0.33785 0.0
C242 C 0.44833 0.529 0.37644 0.0
C243 C 0.45158 0.47049 0.38816 0.0
H244 H 0.48598 0.42514 0.30211 0.0
C245 C 0.46586 0.43389 0.36129 0.0
C246 C 0.47539 0.45471 0.32231 0.0
H247 H 0.46913 0.3889 0.36982 0.0
H248 H 0.4707 0.64645 0.1271 0.0
H249 H 0.48572 0.61162 0.19652 0.0
H250 H 0.45996 0.4386 0.16475 0.0
H251 H 0.44553 0.473 0.09544 0.0
H252 H 0.47723 0.45365 0.23518 0.0
H253 H 0.47526 0.58164 0.26183 0.0
H254 H 0.45419 0.59454 0.32921 0.0
H255 H 0.43788 0.55888 0.3967 0.0
C256 C 0.47478 0.53423 0.87229 0.0
C257 C 0.46627 0.59057 0.88205 0.0
C258 C 0.48482 0.52146 0.83201 0.0
C259 C 0.48579 0.56456 0.80012 0.0
C260 C 0.47949 0.62207 0.81137 0.0
C261 C 0.46989 0.63508 0.85209 0.0
C262 C 0.48983 0.55053 0.75398 0.0
C263 C 0.48616 0.49694 0.73736 0.0
C264 C 0.48018 0.48591 0.69146 0.0
C265 C 0.48151 0.4287 0.67564 0.0
C266 C 0.4709 0.41432 0.63581 0.0
C267 C 0.45847 0.4569 0.61135 0.0
H268 H 0.46714 0.57344 0.67658 0.0
C269 C 0.45846 0.51469 0.62604 0.0
C270 C 0.46916 0.5291 0.66555 0.0
H271 H 0.44931 0.54874 0.60771 0.0
H272 H 0.4729 0.49947 0.89542 0.0
H273 H 0.49076 0.47727 0.8258 0.0
H274 H 0.4804 0.65641 0.78774 0.0
H275 H 0.46373 0.67904 0.85905 0.0
H276 H 0.4924 0.58697 0.73243 0.0
H277 H 0.4844 0.45976 0.75835 0.0
H278 H 0.48977 0.39451 0.69502 0.0
H279 H 0.47138 0.36947 0.62521 0.0
C280 C 0.57599 0.43216 0.8805 0.0
C281 C 0.59507 0.46274 0.90244 0.0
C282 C 0.56443 0.45609 0.84403 0.0
C283 C 0.57192 0.51099 0.82865 0.0
C284 C 0.59031 0.54208 0.85165 0.0
C285 C 0.60177 0.51834 0.88789 0.0
C286 C 0.56282 0.53633 0.78747 0.0
C287 C 0.55165 0.50547 0.75592 0.0
C288 C 0.55131 0.52591 0.7107 0.0
C289 C 0.55348 0.48411 0.67814 0.0
C290 C 0.55947 0.50067 0.63642 0.0
C291 C 0.56301 0.55954 0.62621 0.0
H292 H 0.54922 0.6188 0.72343 0.0
C293 C 0.55787 0.60189 0.65753 0.0
C294 C 0.55203 0.58523 0.69953 0.0
H295 H 0.55996 0.64764 0.65035 0.0
H296 H 0.57007 0.38967 0.89135 0.0
H297 H 0.54985 0.43113 0.82813 0.0
H298 H 0.59645 0.58447 0.84086 0.0
H299 H 0.61617 0.54358 0.90418 0.0
H300 H 0.56901 0.58028 0.78068 0.0
H301 H 0.54666 0.46043 0.76132 0.0
H302 H 0.55243 0.43821 0.68555 0.0
H303 H 0.56267 0.46702 0.61266 0.0
C304 C 0.06639 0.92382 0.14111 0.0
C305 C 0.0759 0.96593 0.11295 0.0
C306 C 0.05631 0.94049 0.18085 0.0
C307 C 0.05567 0.99961 0.19295 0.0
C308 C 0.06291 0.04155 0.16294 0.0
C309 C 0.07306 0.02499 0.12359 0.0
C310 C 0.05058 0.01967 0.2375 0.0
C311 C 0.05482 0.98606 0.27207 0.0
C312 C 0.05968 0.00995 0.31574 0.0
C313 C 0.074 0.97584 0.34406 0.0
C314 C 0.08276 0.99879 0.3827 0.0
C315 C 0.07728 0.05654 0.39433 0.0
H316 H 0.04095 0.09383 0.30844 0.0
C317 C 0.06157 0.08977 0.3674 0.0
C318 C 0.05275 0.06667 0.3285 0.0
H319 H 0.05656 0.134 0.37587 0.0
H320 H 0.06778 0.87802 0.13333 0.0
H321 H 0.04983 0.90688 0.20233 0.0
H322 H 0.06219 0.08739 0.17093 0.0
H323 H 0.07953 0.05869 0.1021 0.0
H324 H 0.04758 0.06595 0.2418 0.0
H325 H 0.05912 0.94036 0.26742 0.0
H326 H 0.07945 0.9319 0.33547 0.0
H327 H 0.09441 0.97141 0.40296 0.0
C328 C 0.95018 0.98402 0.36695 0.0
C329 C 0.94729 0.92801 0.38401 0.0
C330 C 0.96206 0.99217 0.3276 0.0
C331 C 0.97135 0.94436 0.30419 0.0
C332 C 0.96922 0.88849 0.32189 0.0
C333 C 0.95752 0.88037 0.36167 0.0
C334 C 0.97947 0.95069 0.25889 0.0
C335 C 0.98803 1.00117 0.24254 0.0
C336 C 0.98707 0.01545 0.19602 0.0
C337 C 0.9869 0.07434 0.18407 0.0
C338 C 0.98021 0.09075 0.14239 0.0
C339 C 0.97351 0.04842 0.11197 0.0
H340 H 0.98442 0.92716 0.17098 0.0
C341 C 0.97618 0.98946 0.12265 0.0
C342 C 0.98317 0.97305 0.16408 0.0
H343 H 0.97194 0.95581 0.09937 0.0
H344 H 0.94268 0.02173 0.38352 0.0
H345 H 0.96255 0.03574 0.31472 0.0
H346 H 0.97592 0.85084 0.30428 0.0
H347 H 0.95563 0.83669 0.37408 0.0
H348 H 0.97549 0.91408 0.23806 0.0
H349 H 0.99275 0.0364 0.26436 0.0
H350 H 0.99031 0.108 0.20774 0.0
H351 H 0.97871 0.13656 0.13486 0.0
C352 C 0.95715 0.93129 0.63398 0.0
C353 C 0.94414 0.96834 0.60574 0.0
C354 C 0.96824 0.95335 0.6715 0.0
C355 C 0.96666 0.01318 0.6813 0.0
C356 C 0.95461 0.05022 0.65196 0.0
C357 C 0.94349 0.02821 0.61477 0.0
C358 C 0.97428 0.03819 0.72349 0.0
C359 C 0.98724 0.0094 0.75403 0.0
C360 C 0.98718 0.02909 0.79943 0.0
C361 C 0.98583 0.9867 0.83148 0.0
C362 C 0.97958 1.00225 0.87339 0.0
C363 C 0.97512 0.06069 0.88427 0.0
H364 H 0.98738 0.12212 0.78752 0.0
C365 C 0.9794 0.10384 0.85344 0.0
C366 C 0.98536 0.08816 0.81119 0.0
H367 H 0.97649 0.14928 0.86117 0.0
H368 H 0.95812 0.885 0.62779 0.0
H369 H 0.97701 0.92278 0.69318 0.0
H370 H 0.95304 0.09637 0.65848 0.0
H371 H 0.93394 0.05827 0.59347 0.0
H372 H 0.96647 0.08068 0.73112 0.0
H373 H 0.99492 0.96658 0.74745 0.0
H374 H 0.98768 0.94103 0.82349 0.0
H375 H 0.97699 0.96813 0.89682 0.0
C376 C 0.07869 0.02272 0.8749 0.0
C377 C 0.07914 0.96504 0.88959 0.0
C378 C 0.06827 0.03634 0.83505 0.0
C379 C 0.058 0.99246 0.80885 0.0
C380 C 0.05727 0.93527 0.82448 0.0
C381 C 0.0676 0.92167 0.8646 0.0
C382 C 0.05201 1.003 0.76298 0.0
C383 C 0.04721 0.05612 0.74654 0.0
C384 C 0.05028 0.06977 0.70022 0.0
C385 C 0.05091 0.02627 0.6684 0.0
C386 C 0.06013 0.03871 0.62761 0.0
C387 C 0.06805 0.0951 0.6173 0.0
H388 H 0.05519 0.1619 0.71211 0.0
C389 C 0.06464 0.13997 0.64726 0.0
C390 C 0.05591 0.12729 0.68851 0.0
H391 H 0.07037 0.18396 0.63984 0.0
H392 H 0.08717 0.05736 0.89359 0.0
H393 H 0.06983 0.0807 0.82408 0.0
H394 H 0.0496 0.90058 0.80486 0.0
H395 H 0.06746 0.87689 0.87518 0.0
H396 H 0.05441 0.96592 0.74188 0.0
H397 H 0.0442 0.09254 0.76815 0.0
H398 H 0.04536 0.98205 0.67506 0.0
H399 H 0.06189 1.00369 0.60449 0.0
C400 C 0.48269 0.86459 0.00414 0.0
C401 C 0.47285 0.83895 0.04144 0.0
C402 C 0.49786 0.91438 0.00672 0.0
C403 C 0.50345 0.93989 0.04678 0.0
C404 C 0.49345 0.91431 0.0839 0.0
C405 C 0.47828 0.86471 0.08131 0.0
C406 C 0.52043 0.99129 0.0518 0.0
C407 C 0.52592 0.02918 0.02012 0.0
C408 C 0.54285 0.08089 0.02521 0.0
C409 C 0.54992 0.1119 -0.01167 0.0
C410 C 0.56539 0.16111 -0.00872 0.0
C411 C 0.57421 0.1807 0.03132 0.0
H412 H 0.54656 0.07975 0.09495 0.0
C413 C 0.56723 0.14984 0.06825 0.0
C414 C 0.5517 0.10081 0.06536 0.0
H415 H 0.57351 0.16392 0.09969 0.0
H416 H 0.47903 0.84566 0.9729 0.0
H417 H 0.50562 0.93148 0.97732 0.0
H418 H 0.49748 0.93264 0.11523 0.0
H419 H 0.47111 0.84615 0.11074 0.0
H420 H 0.52835 0.99781 0.0835 0.0
H421 H 0.51759 0.02263 -0.01134 0.0
H422 H 0.54342 0.09806 0.95694 0.0
H423 H 0.57034 0.18387 0.96215 0.0
C424 C 0.54123 0.84988 0.51443 0.0
C425 C 0.56446 0.84387 0.49288 0.0
C426 C 0.52788 0.90259 0.51346 0.0
C427 C 0.53748 0.95061 0.49087 0.0
C428 C 0.56094 0.94486 0.47015 0.0
C429 C 0.57418 0.89211 0.47087 0.0
C430 C 0.524 1.00765 0.48909 0.0
C431 C 0.49867 0.01331 0.49295 0.0
C432 C 0.48493 0.06995 0.48993 0.0
C433 C 0.45915 0.06969 0.47878 0.0
C434 C 0.44534 0.12155 0.47638 0.0
C435 C 0.45689 0.17513 0.48559 0.0
H436 H 0.51615 0.12571 0.50913 0.0
C437 C 0.48266 0.17552 0.49706 0.0
C438 C 0.49654 0.12358 0.49925 0.0
H439 H 0.49213 0.21595 0.50467 0.0
H440 H 0.53325 0.81377 0.53196 0.0
H441 H 0.51028 0.90563 0.53097 0.0
H442 H 0.56894 0.98118 0.45286 0.0
H443 H 0.59207 0.88922 0.45411 0.0
H444 H 0.5353 0.04567 0.48185 0.0
H445 H 0.48718 0.97454 0.49622 0.0
H446 H 0.44962 0.02912 0.47175 0.0
H447 H 0.42551 0.11947 0.46763 0.0
C448 C 0.04879 0.67107 0.04673 0.0
C449 C 0.06479 0.69773 0.01671 0.0
C450 C 0.03769 0.61713 0.03791 0.0
C451 C 0.04248 0.58823 -0.00116 0.0
C452 C 0.05847 0.61499 0.9689 0.0
C453 C 0.06956 0.6689 0.97773 0.0
C454 C 0.0304 0.53165 -0.01271 0.0
C455 C 0.02074 0.49431 0.01625 0.0
C456 C 1.00844 0.43795 0.00484 0.0
C457 C 1.00614 0.39526 0.0367 0.0
C458 C 0.9942 0.34234 0.02796 0.0
C459 C 0.98405 0.3308 -0.01291 0.0
H460 H 0.99878 0.4587 0.93872 0.0
C461 C 0.98619 0.37355 0.95518 0.0
C462 C 0.99816 0.42657 0.96392 0.0
H463 H 0.97842 0.36633 0.92343 0.0
H464 H 0.04452 0.69221 0.07695 0.0
H465 H 0.02494 0.59923 0.06145 0.0
H466 H 0.06238 0.59416 0.93842 0.0
H467 H 0.0817 0.68819 0.95376 0.0
H468 H 0.03041 0.51971 0.9536 0.0
H469 H 0.02269 0.50394 0.05018 0.0
H470 H 1.01366 0.40281 0.06859 0.0
H471 H 0.99287 0.31054 0.05339 0.0
C472 C 0.04563 0.36148 0.48229 0.0
C473 C 0.06099 0.35046 0.51829 0.0
C474 C 0.03088 0.41213 0.48 0.0
C475 C 0.03109 0.45292 0.51383 0.0
C476 C 0.04681 0.44222 0.54935 0.0
C477 C 0.06147 0.39162 0.55168 0.0
C478 C 1.01588 0.50774 0.51314 0.0
C479 C 0.99519 0.51612 0.48836 0.0
C480 C 0.98012 0.57112 0.48775 0.0
C481 C 0.965 0.58312 0.45172 0.0
C482 C 0.95069 0.63426 0.44941 0.0
C483 C 0.95091 0.6746 0.48335 0.0
H484 H 0.99061 0.60275 0.5512 0.0
C485 C 0.96556 0.66211 0.51993 0.0
C486 C 0.97996 0.61097 0.52218 0.0
H487 H 0.96603 0.69201 0.5468 0.0
H488 H 0.04493 0.3309 0.45585 0.0
H489 H 0.01972 0.41922 0.45139 0.0
H490 H 0.0476 0.47293 0.57573 0.0
H491 H 0.07313 0.38476 0.57985 0.0
H492 H 0.02202 0.5422 0.53454 0.0
H493 H 0.98905 0.48183 0.46682 0.0
H494 H 0.96449 0.5531 0.42489 0.0
H495 H 0.93956 0.64225 0.4208 0.0
loop_
_geom_bond_atom_site_label_1
_geom_bond_atom_site_label_2
_geom_bond_distance
_geom_bond_site_symmetry_2
_ccdc_geom_bond_type
Zn0 O3 2.031 . S
Zn0 O5 2.049 1_554 S
Zn0 O10 2.067 . S
Zn1 O2 1.962 . S
Zn1 O4 1.986 1_554 S
Zn1 O6 1.996 1_554 S
Zn1 O9 1.943 . S
O2 Zn1 1.962 . S
O2 C7 1.254 . S
O3 Zn0 2.031 . S
O3 C7 1.269 . S
O4 Zn1 1.986 1_556 S
O4 C11 1.262 1_556 S
O5 Zn0 2.049 1_556 S
O5 C13 1.260 . S
O6 Zn1 1.996 1_556 S
O6 C13 1.257 . S
C7 O2 1.254 . S
C7 O3 1.269 . S
C8 O9 1.249 . S
C8 O10 1.270 . S
O9 Zn1 1.943 . S
O9 C8 1.249 . S
O10 Zn0 2.067 . S
O10 C8 1.270 . S
C11 O4 1.262 1_554 S
C11 O12 1.232 . S
O12 C11 1.232 . S
C13 O5 1.260 . S
C13 O6 1.257 . S
Zn14 O17 2.031 . S
Zn14 O19 2.049 1_554 S
Zn14 O24 2.067 . S
Zn15 O16 1.962 . S
Zn15 O18 1.986 1_554 S
Zn15 O20 1.996 1_554 S
Zn15 O23 1.943 . S
O16 Zn15 1.962 . S
O16 C21 1.254 . S
O17 Zn14 2.031 . S
O17 C21 1.269 . S
O18 Zn15 1.986 1_556 S
O18 C25 1.262 1_556 S
O19 Zn14 2.049 1_556 S
O19 C27 1.260 . S
O20 Zn15 1.996 1_556 S
O20 C27 1.257 . S
C21 O16 1.254 . S
C21 O17 1.269 . S
C22 O23 1.249 . S
C22 O24 1.270 . S
O23 Zn15 1.943 . S
O23 C22 1.249 . S
O24 Zn14 2.067 . S
O24 C22 1.270 . S
C25 O18 1.262 1_554 S
C25 O26 1.232 . S
O26 C25 1.232 . S
C27 O19 1.260 . S
C27 O20 1.257 . S
Zn28 O31 2.031 . S
Zn28 O33 2.049 . S
Zn28 O38 2.067 . S
Zn29 O30 1.962 . S
Zn29 O32 1.986 . S
Zn29 O34 1.996 . S
Zn29 O37 1.943 . S
O30 Zn29 1.962 . S
O30 C35 1.254 . S
O31 Zn28 2.031 . S
O31 C35 1.269 . S
O32 Zn29 1.986 . S
O32 C39 1.262 . S
O33 Zn28 2.049 . S
O33 C41 1.260 . S
O34 Zn29 1.996 . S
O34 C41 1.257 . S
C35 O30 1.254 . S
C35 O31 1.269 . S
C36 O37 1.249 . S
C36 O38 1.270 . S
O37 Zn29 1.943 . S
O37 C36 1.249 . S
O38 Zn28 2.067 . S
O38 C36 1.270 . S
C39 O32 1.262 . S
C39 O40 1.232 . S
O40 C39 1.232 . S
C41 O33 1.260 . S
C41 O34 1.257 . S
Zn42 O45 2.031 . S
Zn42 O47 2.049 . S
Zn42 O52 2.067 . S
Zn43 O44 1.962 . S
Zn43 O46 1.986 . S
Zn43 O48 1.996 . S
Zn43 O51 1.943 . S
O44 Zn43 1.962 . S
O44 C49 1.254 . S
O45 Zn42 2.031 . S
O45 C49 1.269 . S
O46 Zn43 1.986 . S
O46 C53 1.262 . S
O47 Zn42 2.049 . S
O47 C55 1.260 . S
O48 Zn43 1.996 . S
O48 C55 1.257 . S
C49 O44 1.254 . S
C49 O45 1.269 . S
C50 O51 1.249 . S
C50 O52 1.270 . S
O51 Zn43 1.943 . S
O51 C50 1.249 . S
O52 Zn42 2.067 . S
O52 C50 1.270 . S
C53 O46 1.262 . S
C53 O54 1.232 . S
O54 C53 1.232 . S
C55 O47 1.260 . S
C55 O48 1.257 . S
Zn56 O59 2.031 . S
Zn56 O61 2.049 1_554 S
Zn56 O66 2.067 . S
Zn57 O58 1.962 . S
Zn57 O60 1.986 1_554 S
Zn57 O62 1.996 1_554 S
Zn57 O65 1.943 . S
O58 Zn57 1.962 . S
O58 C63 1.254 . S
O59 Zn56 2.031 . S
O59 C63 1.269 . S
O60 Zn57 1.986 1_556 S
O60 C67 1.262 1_556 S
O61 Zn56 2.049 1_556 S
O61 C69 1.260 . S
O62 Zn57 1.996 1_556 S
O62 C69 1.257 . S
C63 O58 1.254 . S
C63 O59 1.269 . S
C64 O65 1.249 . S
C64 O66 1.270 . S
O65 Zn57 1.943 . S
O65 C64 1.249 . S
O66 Zn56 2.067 . S
O66 C64 1.270 . S
C67 O60 1.262 1_554 S
C67 O68 1.232 . S
O68 C67 1.232 . S
C69 O61 1.260 . S
C69 O62 1.257 . S
Zn70 O73 2.031 . S
Zn70 O75 2.049 1_554 S
Zn70 O80 2.067 . S
Zn71 O72 1.962 . S
Zn71 O74 1.986 1_554 S
Zn71 O76 1.996 1_554 S
Zn71 O79 1.943 . S
O72 Zn71 1.962 . S
O72 C77 1.254 . S
O73 Zn70 2.031 . S
O73 C77 1.269 . S
O74 Zn71 1.986 1_556 S
O74 C81 1.262 1_556 S
O75 Zn70 2.049 1_556 S
O75 C83 1.260 . S
O76 Zn71 1.996 1_556 S
O76 C83 1.257 . S
C77 O72 1.254 . S
C77 O73 1.269 . S
C78 O79 1.249 . S
C78 O80 1.270 . S
O79 Zn71 1.943 . S
O79 C78 1.249 . S
O80 Zn70 2.067 . S
O80 C78 1.270 . S
C81 O74 1.262 1_554 S
C81 O82 1.232 . S
O82 C81 1.232 . S
C83 O75 1.260 . S
C83 O76 1.257 . S
Zn84 O87 2.031 . S
Zn84 O89 2.049 . S
Zn84 O94 2.067 . S
Zn85 O86 1.962 . S
Zn85 O88 1.986 . S
Zn85 O90 1.996 . S
Zn85 O93 1.943 . S
O86 Zn85 1.962 . S
O86 C91 1.254 . S
O87 Zn84 2.031 . S
O87 C91 1.269 . S
O88 Zn85 1.986 . S
O88 C95 1.262 . S
O89 Zn84 2.049 . S
O89 C97 1.260 . S
O90 Zn85 1.996 . S
O90 C97 1.257 . S
C91 O86 1.254 . S
C91 O87 1.269 . S
C92 O93 1.249 . S
C92 O94 1.270 . S
O93 Zn85 1.943 . S
O93 C92 1.249 . S
O94 Zn84 2.067 . S
O94 C92 1.270 . S
C95 O88 1.262 . S
C95 O96 1.232 . S
O96 C95 1.232 . S
C97 O89 1.260 . S
C97 O90 1.257 . S
Zn98 O101 2.031 . S
Zn98 O103 2.049 . S
Zn98 O108 2.067 . S
Zn99 O100 1.962 . S
Zn99 O102 1.986 . S
Zn99 O104 1.996 . S
Zn99 O107 1.943 . S
O100 Zn99 1.962 . S
O100 C105 1.254 . S
O101 Zn98 2.031 . S
O101 C105 1.269 . S
O102 Zn99 1.986 . S
O102 C109 1.262 . S
O103 Zn98 2.049 . S
O103 C111 1.260 . S
O104 Zn99 1.996 . S
O104 C111 1.257 . S
C105 O100 1.254 . S
C105 O101 1.269 . S
C106 O107 1.249 . S
C106 O108 1.270 . S
O107 Zn99 1.943 . S
O107 C106 1.249 . S
O108 Zn98 2.067 . S
O108 C106 1.270 . S
C109 O102 1.262 . S
C109 O110 1.232 . S
O110 C109 1.232 . S
C111 O103 1.260 . S
C111 O104 1.257 . S
C112 C113 1.386 1_556 S
C112 C114 1.383 . S
C112 H128 0.951 . S
C113 C112 1.386 1_554 S
C113 C117 1.383 . S
C114 C112 1.383 . S
C114 C115 1.402 1_556 S
C114 H129 0.951 . S
C115 C114 1.402 1_554 S
C115 C116 1.375 . S
C115 C118 1.481 . S
C116 C115 1.375 . S
C116 C117 1.367 . S
C116 H130 0.951 . S
C117 C113 1.383 . S
C117 C116 1.367 . S
C117 H131 0.950 . S
C118 C115 1.481 . S
C118 C119 1.297 . S
C118 H132 0.950 . S
C119 C118 1.297 . S
C119 C120 1.479 . S
C119 H133 0.950 1_554 S
C120 C119 1.479 . S
C120 C121 1.375 1_554 S
C120 C126 1.404 . S
C121 C120 1.375 1_556 S
C121 C122 1.369 . S
C121 H134 0.950 . S
C122 C121 1.369 . S
C122 C123 1.392 1_556 S
C122 H135 0.951 . S
C123 C122 1.392 1_554 S
C123 C125 1.384 . S
H124 C126 0.949 . S
C125 C123 1.384 . S
C125 C126 1.385 . S
C125 H127 0.950 . S
C126 C120 1.404 . S
C126 H124 0.949 . S
C126 C125 1.385 . S
H127 C125 0.950 . S
H128 C112 0.951 . S
H129 C114 0.951 . S
H130 C116 0.951 . S
H131 C117 0.950 . S
H132 C118 0.950 . S
H133 C119 0.950 1_556 S
H134 C121 0.950 . S
H135 C122 0.951 . S
C136 C137 1.386 . S
C136 C138 1.383 . S
C136 H152 0.951 . S
C137 C136 1.386 . S
C137 C141 1.383 . S
C138 C136 1.383 . S
C138 C139 1.402 . S
C138 H153 0.951 . S
C139 C138 1.402 . S
C139 C140 1.375 . S
C139 C142 1.481 . S
C140 C139 1.375 . S
C140 C141 1.367 . S
C140 H154 0.951 . S
C141 C137 1.383 . S
C141 C140 1.367 . S
C141 H155 0.950 . S
C142 C139 1.481 . S
C142 C143 1.297 . S
C142 H156 0.950 . S
C143 C142 1.297 . S
C143 C144 1.479 . S
C143 H157 0.950 1_554 S
C144 C143 1.479 . S
C144 C145 1.375 . S
C144 C150 1.404 . S
C145 C144 1.375 . S
C145 C146 1.369 . S
C145 H158 0.953 . S
C146 C145 1.369 . S
C146 C147 1.392 . S
C146 H159 0.951 . S
C147 C146 1.392 . S
C147 C149 1.384 . S
H148 C150 0.949 . S
C149 C147 1.384 . S
C149 C150 1.385 . S
C149 H151 0.950 . S
C150 C144 1.404 . S
C150 H148 0.949 . S
C150 C149 1.385 . S
H151 C149 0.950 . S
H152 C136 0.951 . S
H153 C138 0.951 . S
H154 C140 0.951 . S
H155 C141 0.950 . S
H156 C142 0.950 . S
H157 C143 0.950 1_556 S
H158 C145 0.953 . S
H159 C146 0.951 . S
C160 C161 1.386 . S
C160 C162 1.383 . S
C160 H176 0.951 . S
C161 C160 1.386 . S
C161 C165 1.383 . S
C162 C160 1.383 . S
C162 C163 1.402 . S
C162 H177 0.951 . S
C163 C162 1.402 . S
C163 C164 1.375 . S
C163 C166 1.481 . S
C164 C163 1.375 . S
C164 C165 1.367 . S
C164 H178 0.951 . S
C165 C161 1.383 . S
C165 C164 1.367 . S
C165 H179 0.950 . S
C166 C163 1.481 . S
C166 C167 1.297 . S
C166 H180 0.950 . S
C167 C166 1.297 . S
C167 C168 1.479 . S
C167 H181 0.950 . S
C168 C167 1.479 . S
C168 C169 1.375 . S
C168 C174 1.404 . S
C169 C168 1.375 . S
C169 C170 1.369 . S
C169 H182 0.950 . S
C170 C169 1.369 . S
C170 C171 1.392 . S
C170 H183 0.951 . S
C171 C170 1.392 . S
C171 C173 1.384 . S
H172 C174 0.949 . S
C173 C171 1.384 . S
C173 C174 1.385 . S
C173 H175 0.950 . S
C174 C168 1.404 . S
C174 H172 0.949 . S
C174 C173 1.385 . S
H175 C173 0.950 . S
H176 C160 0.951 . S
H177 C162 0.951 . S
H178 C164 0.951 . S
H179 C165 0.950 . S
H180 C166 0.950 . S
H181 C167 0.950 . S
H182 C169 0.950 . S
H183 C170 0.951 . S
C184 C185 1.386 . S
C184 C186 1.383 . S
C184 H200 0.951 . S
C185 C184 1.386 . S
C185 C189 1.383 . S
C186 C184 1.383 . S
C186 C187 1.402 . S
C186 H201 0.951 . S
C187 C186 1.402 . S
C187 C188 1.375 . S
C187 C190 1.481 . S
C188 C187 1.375 . S
C188 C189 1.367 . S
C188 H202 0.951 . S
C189 C185 1.383 . S
C189 C188 1.367 . S
C189 H203 0.950 . S
C190 C187 1.481 . S
C190 C191 1.297 . S
C190 H204 0.950 . S
C191 C190 1.297 . S
C191 C192 1.479 . S
C191 H205 0.950 . S
C192 C191 1.479 . S
C192 C193 1.375 . S
C192 C198 1.404 . S
C193 C192 1.375 . S
C193 C194 1.369 . S
C193 H206 0.950 . S
C194 C193 1.369 . S
C194 C195 1.392 . S
C194 H207 0.951 . S
C195 C194 1.392 . S
C195 C197 1.384 . S
H196 C198 0.949 . S
C197 C195 1.384 . S
C197 C198 1.385 . S
C197 H199 0.950 . S
C198 C192 1.404 . S
C198 H196 0.949 . S
C198 C197 1.385 . S
H199 C197 0.950 . S
H200 C184 0.951 . S
H201 C186 0.951 . S
H202 C188 0.951 . S
H203 C189 0.950 . S
H204 C190 0.950 . S
H205 C191 0.950 . S
H206 C193 0.950 . S
H207 C194 0.951 . S
C208 C209 1.386 . S
C208 C210 1.383 . S
C208 H224 0.951 . S
C209 C208 1.386 . S
C209 C213 1.383 . S
C210 C208 1.383 . S
C210 C211 1.402 . S
C210 H225 0.951 . S
C211 C210 1.402 . S
C211 C212 1.375 . S
C211 C214 1.481 . S
C212 C211 1.375 . S
C212 C213 1.367 . S
C212 H226 0.951 . S
C213 C209 1.383 . S
C213 C212 1.367 . S
C213 H227 0.950 . S
C214 C211 1.481 . S
C214 C215 1.297 . S
C214 H228 0.950 . S
C215 C214 1.297 . S
C215 C216 1.479 . S
C215 H229 0.950 . S
C216 C215 1.479 . S
C216 C217 1.375 . S
C216 C222 1.404 . S
C217 C216 1.375 . S
C217 C218 1.369 . S
C217 H230 0.950 . S
C218 C217 1.369 . S
C218 C219 1.392 . S
C218 H231 0.951 . S
C219 C218 1.392 . S
C219 C221 1.384 . S
H220 C222 0.949 . S
C221 C219 1.384 . S
C221 C222 1.385 . S
C221 H223 0.950 . S
C222 C216 1.404 . S
C222 H220 0.949 . S
C222 C221 1.385 . S
H223 C221 0.950 . S
H224 C208 0.951 . S
H225 C210 0.951 . S
H226 C212 0.951 . S
H227 C213 0.950 . S
H228 C214 0.950 . S
H229 C215 0.950 . S
H230 C217 0.950 . S
H231 C218 0.951 . S
C232 C233 1.386 . S
C232 C234 1.383 . S
C232 H248 0.951 . S
C233 C232 1.386 . S
C233 C237 1.383 . S
C234 C232 1.383 . S
C234 C235 1.402 . S
C234 H249 0.951 . S
C235 C234 1.402 . S
C235 C236 1.375 . S
C235 C238 1.481 . S
C236 C235 1.375 . S
C236 C237 1.367 . S
C236 H250 0.951 . S
C237 C233 1.383 . S
C237 C236 1.367 . S
C237 H251 0.950 . S
C238 C235 1.481 . S
C238 C239 1.297 . S
C238 H252 0.950 . S
C239 C238 1.297 . S
C239 C240 1.479 . S
C239 H253 0.950 . S
C240 C239 1.479 . S
C240 C241 1.375 . S
C240 C246 1.404 . S
C241 C240 1.375 . S
C241 C242 1.369 . S
C241 H254 0.950 . S
C242 C241 1.369 . S
C242 C243 1.392 . S
C242 H255 0.951 . S
C243 C242 1.392 . S
C243 C245 1.384 . S
H244 C246 0.949 . S
C245 C243 1.384 . S
C245 C246 1.385 . S
C245 H247 0.950 . S
C246 C240 1.404 . S
C246 H244 0.949 . S
C246 C245 1.385 . S
H247 C245 0.950 . S
H248 C232 0.951 . S
H249 C234 0.951 . S
H250 C236 0.951 . S
H251 C237 0.950 . S
H252 C238 0.950 . S
H253 C239 0.950 . S
H254 C241 0.950 . S
H255 C242 0.951 . S
C256 C257 1.386 . S
C256 C258 1.383 . S
C256 H272 0.951 . S
C257 C256 1.386 . S
C257 C261 1.383 . S
C258 C256 1.383 . S
C258 C259 1.402 . S
C258 H273 0.951 . S
C259 C258 1.402 . S
C259 C260 1.375 . S
C259 C262 1.481 . S
C260 C259 1.375 . S
C260 C261 1.367 . S
C260 H274 0.951 . S
C261 C257 1.383 . S
C261 C260 1.367 . S
C261 H275 0.950 . S
C262 C259 1.481 . S
C262 C263 1.297 . S
C262 H276 0.950 . S
C263 C262 1.297 . S
C263 C264 1.479 . S
C263 H277 0.950 . S
C264 C263 1.479 . S
C264 C265 1.375 . S
C264 C270 1.404 . S
C265 C264 1.375 . S
C265 C266 1.369 . S
C265 H278 0.950 . S
C266 C265 1.369 . S
C266 C267 1.392 . S
C266 H279 0.951 . S
C267 C266 1.392 . S
C267 C269 1.384 . S
H268 C270 0.949 . S
C269 C267 1.384 . S
C269 C270 1.385 . S
C269 H271 0.950 . S
C270 C264 1.404 . S
C270 H268 0.949 . S
C270 C269 1.385 . S
H271 C269 0.950 . S
H272 C256 0.951 . S
H273 C258 0.951 . S
H274 C260 0.951 . S
H275 C261 0.950 . S
H276 C262 0.950 . S
H277 C263 0.950 . S
H278 C265 0.950 . S
H279 C266 0.951 . S
C280 C281 1.386 . S
C280 C282 1.383 . S
C280 H296 0.951 . S
C281 C280 1.386 . S
C281 C285 1.383 . S
C282 C280 1.383 . S
C282 C283 1.402 . S
C282 H297 0.951 . S
C283 C282 1.402 . S
C283 C284 1.375 . S
C283 C286 1.481 . S
C284 C283 1.375 . S
C284 C285 1.367 . S
C284 H298 0.951 . S
C285 C281 1.383 . S
C285 C284 1.367 . S
C285 H299 0.950 . S
C286 C283 1.481 . S
C286 C287 1.297 . S
C286 H300 0.950 . S
C287 C286 1.297 . S
C287 C288 1.479 . S
C287 H301 0.950 . S
C288 C287 1.479 . S
C288 C289 1.375 . S
C288 C294 1.404 . S
C289 C288 1.375 . S
C289 C290 1.369 . S
C289 H302 0.950 . S
C290 C289 1.369 . S
C290 C291 1.392 . S
C290 H303 0.951 . S
C291 C290 1.392 . S
C291 C293 1.384 . S
H292 C294 0.949 . S
C293 C291 1.384 . S
C293 C294 1.385 . S
C293 H295 0.950 . S
C294 C288 1.404 . S
C294 H292 0.949 . S
C294 C293 1.385 . S
H295 C293 0.950 . S
H296 C280 0.951 . S
H297 C282 0.951 . S
H298 C284 0.951 . S
H299 C285 0.950 . S
H300 C286 0.950 . S
H301 C287 0.950 . S
H302 C289 0.950 . S
H303 C290 0.951 . S
C304 C305 1.386 . S
C304 C306 1.383 . S
C304 H320 0.951 . S
C305 C304 1.386 . S
C305 C309 1.383 . S
C306 C304 1.383 . S
C306 C307 1.402 . S
C306 H321 0.951 . S
C307 C306 1.402 . S
C307 C308 1.375 . S
C307 C310 1.481 1_565 S
C308 C307 1.375 . S
C308 C309 1.367 . S
C308 H322 0.951 1_565 S
C309 C305 1.383 . S
C309 C308 1.367 . S
C309 H323 0.950 . S
C310 C307 1.481 1_545 S
C310 C311 1.297 . S
C310 H324 0.950 . S
C311 C310 1.297 . S
C311 C312 1.479 . S
C311 H325 0.950 . S
C312 C311 1.479 . S
C312 C313 1.375 . S
C312 C318 1.404 . S
C313 C312 1.375 . S
C313 C314 1.369 . S
C313 H326 0.950 . S
C314 C313 1.369 . S
C314 C315 1.392 . S
C314 H327 0.951 . S
C315 C314 1.392 . S
C315 C317 1.384 . S
H316 C318 0.949 . S
C317 C315 1.384 . S
C317 C318 1.385 . S
C317 H319 0.950 . S
C318 C312 1.404 . S
C318 H316 0.949 . S
C318 C317 1.385 . S
H319 C317 0.950 . S
H320 C304 0.951 . S
H321 C306 0.951 . S
H322 C308 0.951 1_545 S
H323 C309 0.950 . S
H324 C310 0.950 . S
H325 C311 0.950 . S
H326 C313 0.950 . S
H327 C314 0.951 . S
C328 C329 1.386 . S
C328 C330 1.383 . S
C328 H344 0.951 . S
C329 C328 1.386 . S
C329 C333 1.383 . S
C330 C328 1.383 . S
C330 C331 1.402 . S
C330 H345 0.951 1_565 S
C331 C330 1.402 . S
C331 C332 1.375 . S
C331 C334 1.481 . S
C332 C331 1.375 . S
C332 C333 1.367 . S
C332 H346 0.951 . S
C333 C329 1.383 . S
C333 C332 1.367 . S
C333 H347 0.950 . S
C334 C331 1.481 . S
C334 C335 1.297 1_565 S
C334 H348 0.950 . S
C335 C334 1.297 1_545 S
C335 C336 1.479 . S
C335 H349 0.950 . S
C336 C335 1.479 . S
C336 C337 1.375 . S
C336 C342 1.404 . S
C337 C336 1.375 . S
C337 C338 1.369 . S
C337 H350 0.950 . S
C338 C337 1.369 . S
C338 C339 1.392 . S
C338 H351 0.951 . S
C339 C338 1.392 . S
C339 C341 1.384 . S
H340 C342 0.949 1_565 S
C341 C339 1.384 . S
C341 C342 1.385 . S
C341 H343 0.950 . S
C342 C336 1.404 . S
C342 H340 0.949 1_545 S
C342 C341 1.385 . S
H343 C341 0.950 . S
H344 C328 0.951 . S
H345 C330 0.951 1_545 S
H346 C332 0.951 . S
H347 C333 0.950 . S
H348 C334 0.950 . S
H349 C335 0.950 . S
H350 C337 0.950 . S
H351 C338 0.951 . S
C352 C353 1.386 . S
C352 C354 1.383 . S
C352 H368 0.951 . S
C353 C352 1.386 . S
C353 C357 1.383 . S
C354 C352 1.383 . S
C354 C355 1.402 . S
C354 H369 0.951 . S
C355 C354 1.402 . S
C355 C356 1.375 . S
C355 C358 1.481 1_565 S
C356 C355 1.375 . S
C356 C357 1.367 . S
C356 H370 0.951 1_565 S
C357 C353 1.383 . S
C357 C356 1.367 . S
C357 H371 0.950 . S
C358 C355 1.481 1_545 S
C358 C359 1.297 . S
C358 H372 0.950 . S
C359 C358 1.297 . S
C359 C360 1.479 . S
C359 H373 0.949 1_545 S
C360 C359 1.479 . S
C360 C361 1.375 . S
C360 C366 1.404 . S
C361 C360 1.375 . S
C361 C362 1.369 . S
C361 H374 0.950 . S
C362 C361 1.369 . S
C362 C363 1.392 . S
C362 H375 0.951 . S
C363 C362 1.392 . S
C363 C365 1.384 . S
H364 C366 0.949 . S
C365 C363 1.384 . S
C365 C366 1.385 . S
C365 H367 0.950 . S
C366 C360 1.404 . S
C366 H364 0.949 . S
C366 C365 1.385 . S
H367 C365 0.950 . S
H368 C352 0.951 . S
H369 C354 0.951 . S
H370 C356 0.951 1_545 S
H371 C357 0.950 . S
H372 C358 0.950 . S
H373 C359 0.949 1_565 S
H374 C361 0.950 . S
H375 C362 0.951 . S
C376 C377 1.386 . S
C376 C378 1.383 . S
C376 H392 0.951 . S
C377 C376 1.386 . S
C377 C381 1.383 . S
C378 C376 1.383 . S
C378 C379 1.402 . S
C378 H393 0.951 . S
C379 C378 1.402 . S
C379 C380 1.375 . S
C379 C382 1.481 1_565 S
C380 C379 1.375 . S
C380 C381 1.367 . S
C380 H394 0.951 . S
C381 C377 1.383 . S
C381 C380 1.367 . S
C381 H395 0.950 . S
C382 C379 1.481 1_545 S
C382 C383 1.297 . S
C382 H396 0.950 . S
C383 C382 1.297 . S
C383 C384 1.479 . S
C383 H397 0.950 . S
C384 C383 1.479 . S
C384 C385 1.375 . S
C384 C390 1.404 . S
C385 C384 1.375 . S
C385 C386 1.369 . S
C385 H398 0.950 . S
C386 C385 1.369 . S
C386 C387 1.392 . S
C386 H399 0.951 . S
C387 C386 1.392 . S
C387 C389 1.384 . S
H388 C390 0.949 . S
C389 C387 1.384 . S
C389 C390 1.385 . S
C389 H391 0.950 . S
C390 C384 1.404 . S
C390 H388 0.949 . S
C390 C389 1.385 . S
H391 C389 0.950 . S
H392 C376 0.951 . S
H393 C378 0.951 . S
H394 C380 0.951 . S
H395 C381 0.950 . S
H396 C382 0.950 . S
H397 C383 0.950 . S
H398 C385 0.950 . S
H399 C386 0.951 . S
C400 C401 1.386 1_556 S
C400 C402 1.383 . S
C400 H416 0.951 . S
C401 C400 1.386 1_554 S
C401 C405 1.383 . S
C402 C400 1.383 . S
C402 C403 1.402 1_556 S
C402 H417 0.951 . S
C403 C402 1.402 1_554 S
C403 C404 1.375 . S
C403 C406 1.481 . S
C404 C403 1.375 . S
C404 C405 1.367 . S
C404 H418 0.951 . S
C405 C401 1.383 . S
C405 C404 1.367 . S
C405 H419 0.950 . S
C406 C403 1.481 . S
C406 C407 1.297 1_565 S
C406 H420 0.950 1_565 S
C407 C406 1.297 1_545 S
C407 C408 1.479 . S
C407 H421 0.950 1_554 S
C408 C407 1.479 . S
C408 C409 1.375 1_554 S
C408 C414 1.404 . S
C409 C408 1.375 1_556 S
C409 C410 1.369 . S
C409 H422 0.950 . S
C410 C409 1.369 . S
C410 C411 1.392 1_556 S
C410 H423 0.951 . S
C411 C410 1.392 1_554 S
C411 C413 1.384 . S
H412 C414 0.949 . S
C413 C411 1.384 . S
C413 C414 1.385 . S
C413 H415 0.950 . S
C414 C408 1.404 . S
C414 H412 0.949 . S
C414 C413 1.385 . S
H415 C413 0.950 . S
H416 C400 0.951 . S
H417 C402 0.951 . S
H418 C404 0.951 . S
H419 C405 0.950 . S
H420 C406 0.950 1_545 S
H421 C407 0.950 1_556 S
H422 C409 0.950 . S
H423 C410 0.951 . S
C424 C425 1.386 . S
C424 C426 1.383 . S
C424 H440 0.951 . S
C425 C424 1.386 . S
C425 C429 1.383 . S
C426 C424 1.383 . S
C426 C427 1.402 . S
C426 H441 0.951 . S
C427 C426 1.402 . S
C427 C428 1.375 . S
C427 C430 1.481 . S
C428 C427 1.375 . S
C428 C429 1.367 . S
C428 H442 0.951 . S
C429 C425 1.383 . S
C429 C428 1.367 . S
C429 H443 0.950 . S
C430 C427 1.481 . S
C430 C431 1.297 1_565 S
C430 H444 0.950 1_565 S
C431 C430 1.297 1_545 S
C431 C432 1.479 . S
C431 H445 0.950 1_545 S
C432 C431 1.479 . S
C432 C433 1.375 . S
C432 C438 1.404 . S
C433 C432 1.375 . S
C433 C434 1.369 . S
C433 H446 0.950 . S
C434 C433 1.369 . S
C434 C435 1.392 . S
C434 H447 0.951 . S
C435 C434 1.392 . S
C435 C437 1.384 . S
H436 C438 0.949 . S
C437 C435 1.384 . S
C437 C438 1.385 . S
C437 H439 0.950 . S
C438 C432 1.404 . S
C438 H436 0.949 . S
C438 C437 1.385 . S
H439 C437 0.950 . S
H440 C424 0.951 . S
H441 C426 0.951 . S
H442 C428 0.951 . S
H443 C429 0.950 . S
H444 C430 0.950 1_545 S
H445 C431 0.950 1_565 S
H446 C433 0.950 . S
H447 C434 0.951 . S
C448 C449 1.386 . S
C448 C450 1.383 . S
C448 H464 0.951 . S
C449 C448 1.386 . S
C449 C453 1.383 . S
C450 C448 1.383 . S
C450 C451 1.402 . S
C450 H465 0.951 . S
C451 C450 1.402 . S
C451 C452 1.375 . S
C451 C454 1.481 1_455 S
C452 C451 1.375 . S
C452 C453 1.367 . S
C452 H466 0.951 1_455 S
C453 C449 1.383 . S
C453 C452 1.367 . S
C453 H467 0.950 . S
C454 C451 1.481 1_655 S
C454 C455 1.292 1_655 S
C454 H468 0.950 . S
C455 C454 1.292 1_455 S
C455 C456 1.465 1_455 S
C455 H469 0.973 . S
C456 C455 1.465 1_655 S
C456 C457 1.375 . S
C456 C462 1.404 . S
C457 C456 1.375 . S
C457 C458 1.369 . S
C457 H470 0.950 1_655 S
C458 C457 1.369 . S
C458 C459 1.392 . S
C458 H471 0.951 . S
C459 C458 1.392 . S
C459 C461 1.384 . S
H460 C462 0.949 . S
C461 C459 1.384 . S
C461 C462 1.385 . S
C461 H463 0.950 . S
C462 C456 1.404 . S
C462 H460 0.949 . S
C462 C461 1.385 . S
H463 C461 0.950 . S
H464 C448 0.951 . S
H465 C450 0.951 . S
H466 C452 0.951 1_655 S
H467 C453 0.950 . S
H468 C454 0.950 . S
H469 C455 0.973 . S
H470 C457 0.950 1_455 S
H471 C458 0.951 . S
C472 C473 1.386 . S
C472 C474 1.383 . S
C472 H488 0.951 . S
C473 C472 1.386 . S
C473 C477 1.383 . S
C474 C472 1.383 . S
C474 C475 1.402 . S
C474 H489 0.951 1_455 S
C475 C474 1.402 . S
C475 C476 1.375 . S
C475 C478 1.481 . S
C476 C475 1.375 . S
C476 C477 1.367 . S
C476 H490 0.951 . S
C477 C473 1.383 . S
C477 C476 1.367 . S
C477 H491 0.950 . S
C478 C475 1.481 . S
C478 C479 1.297 1_455 S
C478 H492 0.950 . S
C479 C478 1.297 1_655 S
C479 C480 1.479 . S
C479 H493 0.950 . S
C480 C479 1.479 . S
C480 C481 1.375 . S
C480 C486 1.404 . S
C481 C480 1.375 . S
C481 C482 1.369 . S
C481 H494 0.950 . S
C482 C481 1.369 . S
C482 C483 1.392 . S
C482 H495 0.951 . S
C483 C482 1.392 . S
C483 C485 1.384 . S
H484 C486 0.949 1_455 S
C485 C483 1.384 . S
C485 C486 1.385 . S
C485 H487 0.950 . S
C486 C480 1.404 . S
C486 H484 0.949 1_655 S
C486 C485 1.385 . S
H487 C485 0.950 . S
H488 C472 0.951 . S
H489 C474 0.951 1_655 S
H490 C476 0.951 . S
H491 C477 0.950 . S
H492 C478 0.950 . S
H493 C479 0.950 . S
H494 C481 0.950 . S
H495 C482 0.951 . S
C113 C78 1.453 . S
C123 C8 1.479 . S
C137 C64 1.429 . S
C147 C22 1.421 . S
C161 C106 1.448 . S
C171 C36 1.471 . S
C185 C92 1.465 . S
C195 C50 1.491 . S
C209 C7 1.387 . S
C219 C35 1.393 . S
C233 C21 1.369 . S
C243 C49 1.366 . S
C257 C27 1.320 . S
C267 C55 1.263 . S
C281 C13 1.273 . S
C291 C41 1.379 . S
C305 C63 1.373 . S
C315 C91 1.376 . S
C329 C105 1.391 . S
C339 C77 1.385 . S
C353 C111 1.272 . S
C363 C83 1.379 . S
C377 C69 1.269 . S
C387 C97 1.365 . S
C401 C25 1.497 . S
C411 C11 1.500 . S
C425 C39 1.512 . S
C435 C53 1.513 . S
C449 C67 1.500 . S
C459 C81 1.482 . S
C473 C95 1.512 . S
C483 C109 1.513 . S
