# Generated by pormake.
# Topology umo, (4)-cn, num edge types: 1
# Building blocks:
#     Node 0, Type 0, BuildingBlock: CEKHIL_clean_sbu_0, # of connection points: 4
#     Node 1, Type 0, BuildingBlock: CEKHIL_clean_sbu_0, # of connection points: 4
#     Node 2, Type 0, BuildingBlock: CEKHIL_clean_sbu_0, # of connection points: 4
#     Node 3, Type 0, BuildingBlock: CEKHIL_clean_sbu_0, # of connection points: 4
#     Node 4, Type 0, BuildingBlock: CEKHIL_clean_sbu_0, # of connection points: 4
#     Node 5, Type 0, BuildingBlock: CEKHIL_clean_sbu_0, # of connection points: 4
#     Node 6, Type 0, BuildingBlock: CEKHIL_clean_sbu_0, # of connection points: 4
#     Node 7, Type 0, BuildingBlock: CEKHIL_clean_sbu_0, # of connection points: 4
#     Node 8, Type 0, BuildingBlock: CEKHIL_clean_sbu_0, # of connection points: 4
#     Node 9, Type 0, BuildingBlock: CEKHIL_clean_sbu_0, # of connection points: 4
#     Node 10, Type 0, BuildingBlock: CEKHIL_clean_sbu_0, # of connection points: 4
#     Node 11, Type 0, BuildingBlock: CEKHIL_clean_sbu_0, # of connection points: 4
#     Edge 12, Type (0, 0), BuildingBlock: UVAHIK_clean_linker_0, # of connection points: 2
#     Edge 13, Type (0, 0), BuildingBlock: UVAHIK_clean_linker_0, # of connection points: 2
#     Edge 14, Type (0, 0), BuildingBlock: UVAHIK_clean_linker_0, # of connection points: 2
#     Edge 15, Type (0, 0), BuildingBlock: UVAHIK_clean_linker_0, # of connection points: 2
#     Edge 16, Type (0, 0), BuildingBlock: UVAHIK_clean_linker_0, # of connection points: 2
#     Edge 17, Type (0, 0), BuildingBlock: UVAHIK_clean_linker_0, # of connection points: 2
#     Edge 18, Type (0, 0), BuildingBlock: UVAHIK_clean_linker_0, # of connection points: 2
#     Edge 19, Type (0, 0), BuildingBlock: UVAHIK_clean_linker_0, # of connection points: 2
#     Edge 20, Type (0, 0), BuildingBlock: UVAHIK_clean_linker_0, # of connection points: 2
#     Edge 21, Type (0, 0), BuildingBlock: UVAHIK_clean_linker_0, # of connection points: 2
#     Edge 22, Type (0, 0), BuildingBlock: UVAHIK_clean_linker_0, # of connection points: 2
#     Edge 23, Type (0, 0), BuildingBlock: UVAHIK_clean_linker_0, # of connection points: 2
#     Edge 24, Type (0, 0), BuildingBlock: UVAHIK_clean_linker_0, # of connection points: 2
#     Edge 25, Type (0, 0), BuildingBlock: UVAHIK_clean_linker_0, # of connection points: 2
#     Edge 26, Type (0, 0), BuildingBlock: UVAHIK_clean_linker_0, # of connection points: 2
#     Edge 27, Type (0, 0), BuildingBlock: UVAHIK_clean_linker_0, # of connection points: 2
#     Edge 28, Type (0, 0), BuildingBlock: UVAHIK_clean_linker_0, # of connection points: 2
#     Edge 29, Type (0, 0), BuildingBlock: UVAHIK_clean_linker_0, # of connection points: 2
#     Edge 30, Type (0, 0), BuildingBlock: UVAHIK_clean_linker_0, # of connection points: 2
#     Edge 31, Type (0, 0), BuildingBlock: UVAHIK_clean_linker_0, # of connection points: 2
#     Edge 32, Type (0, 0), BuildingBlock: UVAHIK_clean_linker_0, # of connection points: 2
#     Edge 33, Type (0, 0), BuildingBlock: UVAHIK_clean_linker_0, # of connection points: 2
#     Edge 34, Type (0, 0), BuildingBlock: UVAHIK_clean_linker_0, # of connection points: 2
#     Edge 35, Type (0, 0), BuildingBlock: UVAHIK_clean_linker_0, # of connection points: 2
# Relax obj value: 0.181
# Max RMSD: 0.253
# Mean RMSD: 0.253
data_MOF--net-umo--node1-CEKHIL_clean_sbu_0--edge1-UVAHIK_clean_linker_0
_symmetry_space_group_name_H-M    P1
_symmetry_Int_Tables_number       1
_symmetry_cell_setting            triclinic
loop_
_symmetry_equiv_pos_as_xyz
'x, y, z'
_cell_length_a     63.886076
_cell_length_b     63.711146
_cell_length_c     47.632487
_cell_angle_alpha  89.961637
_cell_angle_beta   89.996954
_cell_angle_gamma 120.2176
loop_
_atom_site_label
_atom_site_type_symbol
_atom_site_fract_x
_atom_site_fract_y
_atom_site_fract_z
_atom_type_partial_charge
Co0 Co 0.13494 0.51555 0.38189 0.0
O1 O 0.1038 0.48638 0.38256 0.0
O2 O 0.10968 0.5237 0.38004 0.0
C3 C 0.15188 0.50308 0.34895 0.0
O4 O 0.16398 0.54972 0.3797 0.0
Co5 Co 0.18142 0.51541 0.39984 0.0
O6 O 0.19751 0.54672 0.37923 0.0
C7 C 0.15041 0.51934 0.44341 0.0
C8 C 0.09459 0.50041 0.38023 0.0
C9 C 0.1869 0.55897 0.37618 0.0
O10 O 0.13553 0.51796 0.42427 0.0
O11 O 0.16926 0.5178 0.43806 0.0
O12 O 0.13777 0.51135 0.34184 0.0
O13 O 0.15329 0.50017 0.37568 0.0
Co14 Co 0.60164 0.14478 0.55292 0.0
O15 O 0.59655 0.1134 0.54377 0.0
O16 O 0.56719 0.12201 0.54832 0.0
C17 C 0.6316 0.16598 0.52149 0.0
O18 O 0.601 0.17568 0.56188 0.0
Co19 Co 0.65106 0.1805 0.57965 0.0
O20 O 0.63878 0.20328 0.5757 0.0
C21 C 0.61174 0.14597 0.6163 0.0
C22 C 0.57362 0.106 0.54283 0.0
C23 C 0.6169 0.19713 0.57016 0.0
O24 O 0.59851 0.13705 0.59431 0.0
O25 O 0.63401 0.16277 0.61507 0.0
O26 O 0.60901 0.15505 0.51415 0.0
O27 O 0.63562 0.16098 0.54666 0.0
Co28 Co 0.43562 0.61163 0.71701 0.0
O29 O 0.46362 0.60801 0.71314 0.0
O30 O 0.42553 0.57771 0.71359 0.0
C31 C 0.44635 0.64141 0.6848 0.0
O32 O 0.40227 0.60798 0.71972 0.0
Co33 Co 0.43986 0.65904 0.73924 0.0
O34 O 0.40618 0.64479 0.72512 0.0
C35 C 0.43803 0.62303 0.77984 0.0
C36 C 0.44842 0.58484 0.7112 0.0
C37 C 0.39329 0.62201 0.72087 0.0
O38 O 0.43654 0.60934 0.75919 0.0
O39 O 0.44069 0.64419 0.77637 0.0
O40 O 0.43654 0.61883 0.67733 0.0
O41 O 0.45198 0.64574 0.71117 0.0
Co42 Co 0.80836 0.4481 0.88026 0.0
O43 O 0.83949 0.47746 0.88076 0.0
O44 O 0.83368 0.44027 0.87623 0.0
C45 C 0.79035 0.46074 0.8489 0.0
O46 O 0.77951 0.41385 0.87783 0.0
Co47 Co 0.76235 0.44753 0.90141 0.0
O48 O 0.74548 0.41575 0.88185 0.0
C49 C 0.79508 0.44407 0.94277 0.0
C50 C 0.84868 0.46356 0.87685 0.0
C51 C 0.75636 0.40406 0.87656 0.0
O52 O 0.8088 0.44482 0.9225 0.0
O53 O 0.77638 0.44621 0.93886 0.0
O54 O 0.80458 0.45294 0.8407 0.0
O55 O 0.78954 0.46329 0.87583 0.0
Co56 Co 0.34567 0.82183 0.04849 0.0
O57 O 0.34804 0.8531 0.04974 0.0
O58 O 0.37926 0.84705 0.04726 0.0
C59 C 0.31641 0.8053 0.01527 0.0
O60 O 0.35046 0.79272 0.04587 0.0
Co61 Co 0.29863 0.77498 0.06558 0.0
O62 O 0.31372 0.75912 0.04457 0.0
C63 C 0.3334 0.80546 0.10971 0.0
C64 C 0.37133 0.86226 0.04788 0.0
C65 C 0.33665 0.76981 0.04183 0.0
O66 O 0.34712 0.82065 0.09083 0.0
O67 O 0.31298 0.78658 0.10404 0.0
O68 O 0.3389 0.81953 0.00837 0.0
O69 O 0.31193 0.80357 0.04196 0.0
Co70 Co 0.50974 0.35861 0.2152 0.0
O71 O 0.48214 0.36309 0.21346 0.0
O72 O 0.52054 0.39274 0.21276 0.0
C73 C 0.49721 0.32912 0.18231 0.0
O74 O 0.54277 0.36138 0.21576 0.0
Co75 Co 0.50497 0.31049 0.23562 0.0
O76 O 0.53819 0.32422 0.22021 0.0
C77 C 0.50854 0.34623 0.27767 0.0
C78 C 0.49773 0.38618 0.21159 0.0
C79 C 0.55134 0.34698 0.21596 0.0
O80 O 0.51017 0.36042 0.2575 0.0
O81 O 0.50512 0.32485 0.27346 0.0
O82 O 0.50723 0.35182 0.17527 0.0
O83 O 0.49257 0.32459 0.20888 0.0
Co84 Co 0.43725 0.82297 0.44117 0.0
O85 O 0.46562 0.85469 0.44175 0.0
O86 O 0.42787 0.84746 0.44202 0.0
C87 C 0.44925 0.80649 0.47522 0.0
O88 O 0.40364 0.79306 0.44179 0.0
Co89 Co 0.44002 0.77763 0.42423 0.0
O90 O 0.40808 0.7603 0.44327 0.0
C91 C 0.43579 0.80795 0.37988 0.0
C92 C 0.45094 0.86318 0.44304 0.0
C93 C 0.39506 0.77017 0.4453 0.0
O94 O 0.43646 0.82275 0.39874 0.0
O95 O 0.43768 0.78932 0.38567 0.0
O96 O 0.43988 0.81983 0.48147 0.0
O97 O 0.45351 0.80562 0.44877 0.0
Co98 Co 0.5946 0.44867 0.61272 0.0
O99 O 0.58996 0.47624 0.61178 0.0
O100 O 0.56062 0.4379 0.61648 0.0
C101 C 0.62541 0.46361 0.64409 0.0
O102 O 0.59243 0.41584 0.61547 0.0
Co103 Co 0.64247 0.45335 0.59115 0.0
O104 O 0.63038 0.42245 0.61214 0.0
C105 C 0.60477 0.44608 0.55009 0.0
C106 C 0.56708 0.46077 0.61541 0.0
C107 C 0.60793 0.4087 0.61751 0.0
O108 O 0.59109 0.44506 0.57053 0.0
O109 O 0.62653 0.45061 0.55373 0.0
O110 O 0.60313 0.45427 0.65231 0.0
O111 O 0.62865 0.46644 0.61715 0.0
Co112 Co 0.13423 0.61286 0.77314 0.0
O113 O 0.10324 0.61115 0.77208 0.0
O114 O 0.10864 0.57951 0.77597 0.0
C115 C 0.1518 0.64292 0.80539 0.0
O116 O 0.16269 0.60713 0.7759 0.0
Co117 Co 0.18156 0.65882 0.75464 0.0
O118 O 0.19731 0.64305 0.77449 0.0
C119 C 0.15 0.62321 0.71162 0.0
C120 C 0.09381 0.58786 0.77535 0.0
C121 C 0.18581 0.62017 0.77838 0.0
O122 O 0.13476 0.6102 0.73084 0.0
O123 O 0.16921 0.64355 0.71671 0.0
O124 O 0.13722 0.62063 0.81293 0.0
O125 O 0.15334 0.64688 0.77856 0.0
Co126 Co 0.5064 0.14616 0.94243 0.0
O127 O 0.47812 0.11479 0.94702 0.0
O128 O 0.51586 0.12208 0.94876 0.0
C129 C 0.49481 0.16606 0.9722 0.0
O130 O 0.53985 0.17611 0.93947 0.0
Co131 Co 0.50168 0.18748 0.91516 0.0
O132 O 0.53552 0.20799 0.92826 0.0
C133 C 0.50516 0.15211 0.87856 0.0
C134 C 0.49279 0.10658 0.95103 0.0
C135 C 0.54862 0.19897 0.93519 0.0
O136 O 0.5067 0.14135 0.90065 0.0
O137 O 0.50152 0.17012 0.87961 0.0
O138 O 0.50443 0.15368 0.98138 0.0
O139 O 0.48994 0.16396 0.94553 0.0
Co140 Co 0.34963 0.51979 0.11284 0.0
O141 O 0.35489 0.49263 0.11399 0.0
O142 O 0.38372 0.53133 0.11713 0.0
C143 C 0.31869 0.50534 0.14393 0.0
O144 O 0.35122 0.5524 0.11317 0.0
Co145 Co 0.30154 0.51375 0.09006 0.0
O146 O 0.31341 0.5458 0.10822 0.0
C147 C 0.33967 0.52032 0.04988 0.0
C148 C 0.37768 0.50856 0.1173 0.0
C149 C 0.33585 0.55978 0.11333 0.0
O150 O 0.35327 0.52192 0.07067 0.0
O151 O 0.31786 0.51579 0.05306 0.0
O152 O 0.34097 0.51549 0.1524 0.0
O153 O 0.31558 0.50164 0.1171 0.0
Co154 Co 0.81102 0.35567 0.2747 0.0
O155 O 0.84159 0.35684 0.27662 0.0
O156 O 0.83703 0.38908 0.27646 0.0
C157 C 0.7924 0.32703 0.30841 0.0
O158 O 0.78261 0.36155 0.27401 0.0
Co159 Co 0.76483 0.30908 0.256 0.0
O160 O 0.74828 0.32536 0.27276 0.0
C161 C 0.79782 0.34301 0.21271 0.0
C162 C 0.85145 0.38026 0.27833 0.0
C163 C 0.75944 0.34836 0.27557 0.0
O164 O 0.81202 0.35675 0.23226 0.0
O165 O 0.77865 0.32263 0.21777 0.0
O166 O 0.80654 0.34967 0.31484 0.0
O167 O 0.79181 0.32186 0.28198 0.0
C168 C 0.19737 0.60066 0.39056 0.0
C169 C 0.20241 0.58548 0.37404 0.0
C170 C 0.21555 0.62457 0.39598 0.0
C171 C 0.2809 0.65498 0.40318 0.0
H172 H 0.27715 0.71238 0.42096 0.0
C173 C 0.3591 0.73132 0.45991 0.0
C174 C 0.36867 0.75387 0.44644 0.0
C175 C 0.33544 0.71301 0.45444 0.0
C176 C 0.27838 0.69644 0.41608 0.0
H177 H 0.22891 0.58403 0.34704 0.0
H178 H 0.26027 0.62603 0.35539 0.0
H179 H 0.24257 0.67745 0.39845 0.0
H180 H 0.36046 0.77595 0.41901 0.0
H181 H 0.31927 0.74362 0.40867 0.0
H182 H 0.31653 0.67363 0.4201 0.0
C183 C 0.24271 0.6193 0.36513 0.0
C184 C 0.25864 0.67651 0.40323 0.0
C185 C 0.22475 0.59534 0.36017 0.0
C186 C 0.35345 0.75867 0.42969 0.0
C187 C 0.32985 0.74015 0.42378 0.0
C188 C 0.30042 0.6747 0.41594 0.0
C189 C 0.23883 0.63358 0.38461 0.0
C190 C 0.25982 0.65562 0.39653 0.0
C191 C 0.32115 0.71676 0.43486 0.0
C192 C 0.29941 0.69561 0.42271 0.0
H193 H 0.18025 0.59342 0.40155 0.0
H194 H 0.21198 0.63514 0.41101 0.0
H195 H 0.28225 0.63899 0.39898 0.0
H196 H 0.37042 0.72734 0.47323 0.0
H197 H 0.32893 0.69535 0.46396 0.0
C198 C 0.62391 0.23438 0.59465 0.0
C199 C 0.60965 0.21534 0.57607 0.0
C200 C 0.61821 0.25223 0.60043 0.0
C201 C 0.57247 0.26979 0.6012 0.0
H202 H 0.62911 0.3341 0.59451 0.0
C203 C 0.57849 0.36494 0.60852 0.0
C204 C 0.59944 0.38284 0.62213 0.0
C205 C 0.57444 0.3413 0.60581 0.0
C206 C 0.61316 0.31627 0.5967 0.0
H207 H 0.57739 0.19938 0.55011 0.0
H208 H 0.56761 0.23151 0.55994 0.0
H209 H 0.63186 0.29885 0.58123 0.0
H210 H 0.63076 0.38966 0.64668 0.0
H211 H 0.62338 0.34835 0.64263 0.0
H212 H 0.5539 0.28774 0.61685 0.0
C213 C 0.58318 0.23224 0.56996 0.0
C214 C 0.6147 0.29612 0.58893 0.0
C215 C 0.58885 0.21404 0.56423 0.0
C216 C 0.61467 0.3762 0.63578 0.0
C217 C 0.61047 0.35264 0.63339 0.0
C218 C 0.57088 0.2902 0.60892 0.0
C219 C 0.59822 0.25174 0.58764 0.0
C220 C 0.59465 0.27267 0.5919 0.0
C221 C 0.59122 0.33545 0.61691 0.0
C222 C 0.5915 0.31352 0.60753 0.0
H223 H 0.63966 0.23562 0.60483 0.0
H224 H 0.62976 0.26676 0.61467 0.0
H225 H 0.55678 0.25182 0.60359 0.0
H226 H 0.56651 0.36972 0.59777 0.0
H227 H 0.55945 0.32832 0.59306 0.0
C228 C 0.22343 0.62031 0.79247 0.0
C229 C 0.20013 0.60798 0.78072 0.0
C230 C 0.23931 0.61154 0.78862 0.0
C231 C 0.2675 0.58454 0.78091 0.0
H232 H 0.27931 0.58822 0.70061 0.0
C233 C 0.35226 0.58808 0.73369 0.0
C234 C 0.36677 0.61102 0.72131 0.0
C235 C 0.32781 0.57961 0.73923 0.0
C236 C 0.27588 0.58658 0.72301 0.0
H237 H 0.17449 0.57596 0.75751 0.0
H238 H 0.20268 0.56108 0.75001 0.0
H239 H 0.24252 0.58648 0.71835 0.0
H240 H 0.36686 0.64222 0.70307 0.0
H241 H 0.32388 0.62701 0.7119 0.0
H242 H 0.30149 0.58582 0.78556 0.0
C243 C 0.20842 0.57727 0.76253 0.0
C244 C 0.25485 0.58547 0.73316 0.0
C245 C 0.19233 0.58575 0.76693 0.0
C246 C 0.35606 0.62451 0.71267 0.0
C247 C 0.33151 0.61578 0.7176 0.0
C248 C 0.2883 0.58515 0.77073 0.0
C249 C 0.23228 0.59059 0.77249 0.0
C250 C 0.25101 0.58543 0.76221 0.0
C251 C 0.31744 0.59367 0.73176 0.0
C252 C 0.29308 0.58717 0.74177 0.0
H253 H 0.22983 0.63746 0.80323 0.0
H254 H 0.25771 0.62223 0.7963 0.0
H255 H 0.26492 0.58463 0.80338 0.0
H256 H 0.36013 0.57739 0.74075 0.0
H257 H 0.31724 0.56255 0.75026 0.0
C258 C 0.74938 0.36218 0.88362 0.0
C259 C 0.74139 0.37755 0.87302 0.0
C260 C 0.73313 0.33729 0.88658 0.0
C261 C 0.67122 0.28767 0.86924 0.0
H262 H 0.66627 0.27246 0.94876 0.0
C263 C 0.58505 0.24043 0.93387 0.0
C264 C 0.57517 0.21511 0.93414 0.0
C265 C 0.60932 0.25576 0.92704 0.0
C266 C 0.66783 0.27612 0.92641 0.0
H267 H 0.71105 0.3788 0.85456 0.0
H268 H 0.68285 0.33541 0.85923 0.0
H269 H 0.70303 0.30758 0.93045 0.0
H270 H 0.5834 0.18613 0.92915 0.0
H271 H 0.62611 0.21332 0.9169 0.0
H272 H 0.63519 0.25722 0.86577 0.0
C273 C 0.70152 0.34248 0.86546 0.0
C274 C 0.68881 0.29612 0.91588 0.0
C275 C 0.71761 0.36735 0.86295 0.0
C276 C 0.59051 0.20556 0.92925 0.0
C277 C 0.61485 0.22099 0.92214 0.0
C278 C 0.65035 0.26759 0.87975 0.0
C279 C 0.70884 0.3274 0.87844 0.0
C280 C 0.69018 0.30274 0.88746 0.0
C281 C 0.62411 0.24608 0.92032 0.0
C282 C 0.6482 0.26236 0.90856 0.0
H283 H 0.76763 0.3696 0.89161 0.0
H284 H 0.7392 0.326 0.89656 0.0
H285 H 0.67187 0.29236 0.84727 0.0
H286 H 0.57378 0.24836 0.93765 0.0
H287 H 0.61628 0.27515 0.92565 0.0
C288 C 0.36669 0.75852 0.05766 0.0
C289 C 0.34751 0.75432 0.03975 0.0
C290 C 0.37183 0.74 0.06294 0.0
C291 C 0.33604 0.67388 0.06503 0.0
H292 H 0.39537 0.67807 0.0917 0.0
C293 C 0.32965 0.59439 0.12417 0.0
C294 C 0.34478 0.58602 0.11421 0.0
C295 C 0.33479 0.61789 0.11794 0.0
C296 C 0.3787 0.67666 0.08424 0.0
H297 H 0.321 0.72915 0.01027 0.0
H298 H 0.33088 0.6973 0.01813 0.0
H299 H 0.39693 0.71325 0.06865 0.0
H300 H 0.37832 0.59615 0.09232 0.0
H301 H 0.38691 0.63701 0.0806 0.0
H302 H 0.31777 0.63743 0.07982 0.0
C303 C 0.34119 0.71436 0.02919 0.0
C304 C 0.37957 0.69678 0.07111 0.0
C305 C 0.33566 0.73262 0.02445 0.0
C306 C 0.36638 0.60223 0.10029 0.0
C307 C 0.3713 0.62565 0.09357 0.0
C308 C 0.33519 0.65393 0.07795 0.0
C309 C 0.35808 0.71721 0.04999 0.0
C310 C 0.35819 0.69559 0.06143 0.0
C311 C 0.35483 0.63319 0.10104 0.0
C312 C 0.3564 0.65511 0.08805 0.0
H313 H 0.37603 0.77513 0.06977 0.0
H314 H 0.38498 0.74286 0.07902 0.0
H315 H 0.3191 0.67239 0.05852 0.0
H316 H 0.31306 0.5823 0.13527 0.0
H317 H 0.32219 0.6235 0.12481 0.0
C318 C 0.72156 0.34832 0.28785 0.0
C319 C 0.7448 0.36026 0.27593 0.0
C320 C 0.70554 0.35674 0.28281 0.0
C321 C 0.67772 0.38394 0.2732 0.0
H322 H 0.66417 0.37685 0.19322 0.0
C323 C 0.59302 0.38067 0.22686 0.0
C324 C 0.57782 0.3575 0.2154 0.0
C325 C 0.61747 0.38874 0.23175 0.0
C326 C 0.66808 0.3794 0.2155 0.0
H327 H 0.77015 0.39113 0.25089 0.0
H328 H 0.74169 0.40537 0.2413 0.0
H329 H 0.70095 0.37849 0.21093 0.0
H330 H 0.57656 0.32547 0.19798 0.0
H331 H 0.61951 0.33993 0.20575 0.0
H332 H 0.64428 0.38374 0.27787 0.0
C333 C 0.73612 0.3898 0.25489 0.0
C334 C 0.6891 0.38047 0.22561 0.0
C335 C 0.75236 0.38171 0.26049 0.0
C336 C 0.58787 0.34336 0.2069 0.0
C337 C 0.61242 0.35167 0.21122 0.0
C338 C 0.65695 0.38338 0.26303 0.0
C339 C 0.71237 0.37692 0.26531 0.0
C340 C 0.69358 0.3818 0.25461 0.0
C341 C 0.62718 0.37403 0.22458 0.0
C342 C 0.65153 0.38016 0.23422 0.0
H343 H 0.71535 0.33177 0.29984 0.0
H344 H 0.68722 0.3464 0.29086 0.0
H345 H 0.68081 0.38486 0.29564 0.0
H346 H 0.58571 0.39189 0.23378 0.0
H347 H 0.62857 0.40602 0.24212 0.0
C348 C 0.12415 0.59379 0.67375 0.0
C349 C 0.14671 0.61297 0.68282 0.0
C350 C 0.12203 0.58239 0.64784 0.0
C351 C 0.15575 0.56572 0.6017 0.0
H352 H 0.11503 0.56339 0.54009 0.0
C353 C 0.16679 0.53609 0.49116 0.0
C354 C 0.14702 0.5255 0.47258 0.0
C355 C 0.16476 0.54475 0.51738 0.0
C356 C 0.12614 0.56334 0.55721 0.0
H357 H 0.18461 0.63531 0.67138 0.0
H358 H 0.18093 0.61498 0.62677 0.0
H359 H 0.11458 0.58254 0.58438 0.0
H360 H 0.10924 0.51493 0.46763 0.0
H361 H 0.10529 0.52891 0.51396 0.0
H362 H 0.16687 0.54598 0.57545 0.0
C363 C 0.16489 0.60904 0.63957 0.0
C364 C 0.12595 0.5745 0.58252 0.0
C365 C 0.16691 0.62077 0.66506 0.0
C366 C 0.12487 0.52303 0.48138 0.0
C367 C 0.12269 0.53132 0.50791 0.0
C368 C 0.15556 0.55411 0.57672 0.0
C369 C 0.14253 0.58956 0.63087 0.0
C370 C 0.14112 0.5762 0.60477 0.0
C371 C 0.14274 0.5427 0.52618 0.0
C372 C 0.14117 0.55318 0.55378 0.0
H373 H 0.10824 0.58729 0.68692 0.0
H374 H 0.1046 0.56737 0.64156 0.0
H375 H 0.16738 0.56653 0.61872 0.0
H376 H 0.18425 0.53866 0.48501 0.0
H377 H 0.18084 0.55383 0.53029 0.0
C378 C 0.61264 0.14681 0.66936 0.0
C379 C 0.59939 0.13928 0.64412 0.0
C380 C 0.60083 0.14441 0.69503 0.0
C381 C 0.55572 0.15222 0.72515 0.0
H382 H 0.54427 0.10618 0.78467 0.0
C383 C 0.50415 0.15097 0.82557 0.0
C384 C 0.51127 0.14541 0.85111 0.0
C385 C 0.51266 0.14726 0.79995 0.0
C386 C 0.5476 0.11949 0.76856 0.0
H387 H 0.56307 0.12247 0.62655 0.0
H388 H 0.54285 0.11894 0.67116 0.0
H389 H 0.56501 0.1056 0.74184 0.0
H390 H 0.53285 0.13144 0.86964 0.0
H391 H 0.5485 0.12618 0.82564 0.0
H392 H 0.53961 0.1671 0.75182 0.0
C393 C 0.56229 0.12639 0.67097 0.0
C394 C 0.55936 0.11895 0.74394 0.0
C395 C 0.57396 0.12834 0.64545 0.0
C396 C 0.52665 0.13559 0.85037 0.0
C397 C 0.53562 0.13246 0.8249 0.0
C398 C 0.54444 0.15314 0.74994 0.0
C399 C 0.57566 0.13481 0.69585 0.0
C400 C 0.56349 0.13532 0.72208 0.0
C401 C 0.52906 0.13852 0.79922 0.0
C402 C 0.54018 0.1368 0.77215 0.0
H403 H 0.63221 0.15538 0.66916 0.0
H404 H 0.61147 0.15106 0.71406 0.0
H405 H 0.55879 0.16505 0.70849 0.0
H406 H 0.49225 0.15848 0.82541 0.0
H407 H 0.50656 0.15157 0.78076 0.0
C408 C 0.37566 0.53579 0.01764 0.0
C409 C 0.35064 0.52648 0.02129 0.0
C410 C 0.38668 0.54473 0.99155 0.0
C411 C 0.37444 0.54439 0.91545 0.0
H412 H 0.43408 0.6067 0.9154 0.0
C413 C 0.42633 0.58797 0.8128 0.0
C414 C 0.43357 0.61261 0.80872 0.0
C415 C 0.41834 0.577 0.83911 0.0
C416 C 0.41744 0.58931 0.91505 0.0
H417 H 0.31749 0.51841 -0.00029 0.0
H418 H 0.33668 0.53381 0.95422 0.0
H419 H 0.41518 0.58748 0.95995 0.0
H420 H 0.43921 0.64524 0.82981 0.0
H421 H 0.42546 0.62613 0.87568 0.0
H422 H 0.37641 0.54645 0.87057 0.0
C423 C 0.34779 0.53419 0.97162 0.0
C424 C 0.40671 0.57817 0.94059 0.0
C425 C 0.33677 0.52539 -0.00222 0.0
C426 C 0.4338 0.62626 0.83207 0.0
C427 C 0.42594 0.61529 0.85845 0.0
C428 C 0.38526 0.55544 0.88993 0.0
C429 C 0.37296 0.54443 0.96833 0.0
C430 C 0.38496 0.55566 0.94111 0.0
C431 C 0.41753 0.59038 0.86212 0.0
C432 C 0.40679 0.57814 0.88939 0.0
H433 H 0.387 0.53695 0.03518 0.0
H434 H 0.40604 0.55214 0.98964 0.0
H435 H 0.3578 0.527 0.91509 0.0
H436 H 0.42592 0.57681 0.79542 0.0
H437 H 0.41238 0.55788 0.84131 0.0
C438 C 0.78637 0.33874 0.16155 0.0
C439 C 0.8022 0.35254 0.18336 0.0
C440 C 0.78793 0.34906 0.1351 0.0
C441 C 0.82698 0.40204 0.08912 0.0
H442 H 0.76547 0.38654 0.05582 0.0
C443 C 0.81781 0.43203 0.97633 0.0
C444 C 0.79967 0.43801 0.97156 0.0
C445 C 0.81989 0.42306 0.00245 0.0
C446 C 0.78284 0.39129 0.0649 0.0
H447 H 0.83298 0.38783 0.19367 0.0
H448 H 0.8356 0.40575 0.14767 0.0
H449 H 0.76608 0.36743 0.09977 0.0
H450 H 0.7703 0.44033 0.99137 0.0
H451 H 0.77418 0.42514 0.03681 0.0
H452 H 0.84369 0.42629 0.05436 0.0
C453 C 0.82201 0.38688 0.15098 0.0
C454 C 0.78319 0.38 0.08996 0.0
C455 C 0.82047 0.37656 0.17746 0.0
C456 C 0.7844 0.43581 0.99407 0.0
C457 C 0.78649 0.42686 0.02014 0.0
C458 C 0.82662 0.41331 0.06394 0.0
C459 C 0.80535 0.37347 0.12966 0.0
C460 C 0.80525 0.38519 0.10246 0.0
C461 C 0.80388 0.41982 0.02452 0.0
C462 C 0.80453 0.40814 0.05152 0.0
H463 H 0.77214 0.32017 0.16513 0.0
H464 H 0.77513 0.33798 0.11902 0.0
H465 H 0.8443 0.40639 0.098 0.0
H466 H 0.8299 0.4334 0.95956 0.0
H467 H 0.83342 0.41774 0.00494 0.0
C468 C 0.33397 0.78842 0.15694 0.0
C469 C 0.34277 0.80859 0.13891 0.0
C470 C 0.34458 0.79037 0.1832 0.0
C471 C 0.40104 0.83022 0.22413 0.0
H472 H 0.36318 0.787 0.28467 0.0
C473 C 0.43229 0.83309 0.3412 0.0
C474 C 0.42954 0.81088 0.35061 0.0
C475 C 0.42327 0.83471 0.31491 0.0
C476 C 0.37396 0.79916 0.2679 0.0
H477 H 0.36914 0.84692 0.13492 0.0
H478 H 0.38684 0.85069 0.18135 0.0
H479 H 0.34321 0.78702 0.24117 0.0
H480 H 0.4155 0.77309 0.33938 0.0
H481 H 0.3993 0.77588 0.29403 0.0
H482 H 0.43164 0.84285 0.25182 0.0
C483 C 0.37228 0.83307 0.17484 0.0
C484 C 0.36258 0.79908 0.2428 0.0
C485 C 0.36194 0.83099 0.14826 0.0
C486 C 0.41816 0.79054 0.33278 0.0
C487 C 0.4087 0.79205 0.30688 0.0
C488 C 0.41232 0.83066 0.24957 0.0
C489 C 0.36403 0.81267 0.19257 0.0
C490 C 0.37598 0.81426 0.22024 0.0
C491 C 0.41084 0.81402 0.29788 0.0
C492 C 0.39894 0.81482 0.27147 0.0
H493 H 0.3195 0.77077 0.15032 0.0
H494 H 0.33792 0.77404 0.19569 0.0
H495 H 0.41218 0.84195 0.2073 0.0
H496 H 0.4409 0.84908 0.35441 0.0
H497 H 0.42511 0.85185 0.3084 0.0
C498 C 0.52092 0.38077 0.31155 0.0
C499 C 0.5134 0.35616 0.30679 0.0
C500 C 0.52888 0.39118 0.3381 0.0
C501 C 0.56147 0.41153 0.38942 0.0
H502 H 0.53044 0.37847 0.45864 0.0
C503 C 0.60827 0.44063 0.4982 0.0
C504 C 0.59407 0.43949 0.52139 0.0
C505 C 0.59764 0.43181 0.4719 0.0
C506 C 0.53922 0.38806 0.43951 0.0
H507 H 0.50735 0.32299 0.32692 0.0
H508 H 0.52105 0.34113 0.37326 0.0
H509 H 0.51219 0.35996 0.4136 0.0
H510 H 0.55747 0.42874 0.53458 0.0
H511 H 0.53907 0.41348 0.48877 0.0
H512 H 0.58856 0.43956 0.41527 0.0
C513 C 0.5208 0.35238 0.35634 0.0
C514 C 0.52887 0.37732 0.41368 0.0
C515 C 0.51298 0.34197 0.32971 0.0
C516 C 0.56905 0.42996 0.51729 0.0
C517 C 0.55841 0.42099 0.49105 0.0
C518 C 0.57191 0.42217 0.41521 0.0
C519 C 0.52939 0.37725 0.3607 0.0
C520 C 0.53989 0.3889 0.3883 0.0
C521 C 0.57251 0.42147 0.46811 0.0
C522 C 0.56097 0.41055 0.4406 0.0
H523 H 0.52148 0.39233 0.29454 0.0
H524 H 0.53497 0.41028 0.34082 0.0
H525 H 0.5706 0.42084 0.37029 0.0
H526 H 0.62755 0.44778 0.50047 0.0
H527 H 0.60902 0.43233 0.45475 0.0
C528 C 0.88763 0.42059 0.29055 0.0
C529 C 0.87733 0.39555 0.28562 0.0
C530 C 0.9111 0.43411 0.30151 0.0
C531 C 0.95311 0.42565 0.34544 0.0
H532 H 0.00343 0.48719 0.31567 0.0
C533 C 0.05312 0.46487 0.37347 0.0
C534 C 0.06842 0.49015 0.37515 0.0
C535 C 0.02905 0.45497 0.36516 0.0
C536 C -0.01056 0.47026 0.3246 0.0
H537 H 0.88398 0.36533 0.2869 0.0
H538 H 0.92468 0.38884 0.30598 0.0
H539 H 0.96315 0.46714 0.29429 0.0
H540 H 0.07022 0.52489 0.37062 0.0
H541 H 0.02788 0.50752 0.35655 0.0
H542 H -0.02089 0.42857 0.37572 0.0
C543 C 0.91457 0.39796 0.30173 0.0
C544 C 0.96644 0.45876 0.31225 0.0
C545 C 0.89131 0.38456 0.2906 0.0
C546 C 0.05886 0.50532 0.36946 0.0
C547 C 0.03468 0.49539 0.36118 0.0
C548 C -0.02405 0.4372 0.35792 0.0
C549 C 0.92447 0.42271 0.30794 0.0
C550 C 0.94826 0.43607 0.32216 0.0
C551 C 0.01962 0.4701 0.35845 0.0
C552 C -0.00542 0.45936 0.34726 0.0
H553 H 0.87728 0.42955 0.28692 0.0
H554 H 0.91837 0.45319 0.30607 0.0
H555 H 0.93924 0.40839 0.35388 0.0
H556 H 0.05994 0.45267 0.37763 0.0
H557 H 0.01812 0.43544 0.36292 0.0
C558 C 0.48509 0.90469 0.45344 0.0
C559 C 0.4602 0.88917 0.44882 0.0
C560 C 0.49373 0.92815 0.4635 0.0
C561 C 0.48347 0.97871 0.47146 0.0
H562 H 0.52235 -0.00874 0.53863 0.0
C563 C 0.5319 0.07256 0.52886 0.0
C564 C 0.55628 0.08056 0.53514 0.0
C565 C 0.51645 0.04857 0.51994 0.0
C566 C 0.51156 -0.01191 0.51988 0.0
H567 H 0.42503 0.88663 0.44928 0.0
H568 H 0.44043 0.92817 0.46654 0.0
H569 H 0.50294 0.95108 0.51739 0.0
H570 H 0.58345 0.06967 0.53745 0.0
H571 H 0.55691 0.0285 0.52195 0.0
H572 H 0.49312 0.0162 0.47331 0.0
C573 C 0.45306 0.92188 0.46257 0.0
C574 C 0.50046 0.9651 0.50776 0.0
C575 C 0.44431 0.89817 0.45273 0.0
C576 C 0.56477 0.06414 0.53284 0.0
C577 C 0.54946 0.04039 0.52413 0.0
C578 C 0.49486 0.00195 0.48349 0.0
C579 C 0.47774 0.93671 0.4689 0.0
C580 C 0.48691 0.96039 0.48303 0.0
C581 C 0.52515 0.03227 0.51752 0.0
C582 C 0.50964 0.00702 0.50734 0.0
H583 H 0.49784 0.8984 0.45048 0.0
H584 H 0.51291 0.93943 0.46785 0.0
H585 H 0.47299 0.9754 0.45242 0.0
H586 H 0.52492 0.08488 0.53035 0.0
H587 H 0.49777 0.04277 0.51502 0.0
C588 C 0.44148 0.54614 0.68972 0.0
C589 C 0.45678 0.56774 0.70422 0.0
C590 C 0.45033 0.53138 0.68001 0.0
C591 C 0.49413 0.51267 0.69101 0.0
H592 H 0.49797 0.50831 0.61005 0.0
C593 C 0.52873 0.45471 0.63672 0.0
C594 C 0.54977 0.46915 0.62092 0.0
C595 C 0.51427 0.46411 0.64568 0.0
C596 C 0.49675 0.5092 0.63266 0.0
H597 H 0.49288 0.59034 0.72112 0.0
H598 H 0.50806 0.56391 0.70507 0.0
H599 H 0.47812 0.52931 0.63025 0.0
H600 H 0.57147 0.50411 0.60071 0.0
H601 H 0.54561 0.52022 0.61559 0.0
H602 H 0.51276 0.4926 0.69347 0.0
C603 C 0.48939 0.55871 0.70088 0.0
C604 C 0.48539 0.52109 0.64416 0.0
C605 C 0.48073 0.57378 0.70997 0.0
C606 C 0.55535 0.49262 0.61289 0.0
C607 C 0.54058 0.50181 0.62132 0.0
C608 C 0.50497 0.50029 0.67953 0.0
C609 C 0.47439 0.5377 0.68534 0.0
C610 C 0.48437 0.52323 0.67339 0.0
C611 C 0.5203 0.48785 0.63838 0.0
C612 C 0.50669 0.49881 0.65028 0.0
H613 H 0.42299 0.54118 0.68484 0.0
H614 H 0.43852 0.51521 0.66805 0.0
H615 H 0.49355 0.51421 0.71362 0.0
H616 H 0.52411 0.4366 0.64333 0.0
H617 H 0.49865 0.45306 0.65881 0.0
C618 C 0.05993 0.551 0.79768 0.0
C619 C 0.06782 0.57214 0.78162 0.0
C620 C 0.03607 0.53798 0.80737 0.0
C621 C -0.0174 0.54564 0.81964 0.0
H622 H 0.95128 0.47681 0.83598 0.0
C623 C 0.89144 0.49789 0.87789 0.0
C624 C 0.87457 0.47399 0.8701 0.0
C625 C 0.91537 0.50886 0.86841 0.0
C626 C 0.95953 0.49597 0.83126 0.0
H627 H 0.05671 0.59548 0.7616 0.0
H628 H 0.01467 0.57196 0.77685 0.0
H629 H -0.00936 0.49685 0.8135 0.0
H630 H 0.86946 0.4426 0.84674 0.0
H631 H 0.9107 0.46194 0.82905 0.0
H632 H 0.95088 0.5445 0.83564 0.0
C633 C 0.02707 0.56595 0.78322 0.0
C634 C -0.01757 0.50763 0.8187 0.0
C635 C 0.05111 0.57931 0.77413 0.0
C636 C 0.88219 0.46099 0.85332 0.0
C637 C 0.90595 0.47213 0.84325 0.0
C638 C 0.95949 0.53389 0.83157 0.0
C639 C 0.01935 0.54547 0.80068 0.0
C640 C -0.00559 0.53269 0.81287 0.0
C641 C 0.92282 0.49638 0.85026 0.0
C642 C 0.94765 0.5089 0.83778 0.0
H643 H 0.07252 0.5452 0.80403 0.0
H644 H 0.03113 0.52262 0.82107 0.0
H645 H -0.00874 0.56502 0.81609 0.0
H646 H 0.88605 0.50826 0.89099 0.0
H647 H 0.92789 0.52726 0.87505 0.0
C648 C 0.49912 0.07227 0.96571 0.0
C649 C 0.48346 0.08132 0.96045 0.0
C650 C 0.49015 0.04912 0.97743 0.0
C651 C 0.44061 0.00541 0.02178 0.0
H652 H 0.45163 0.95614 0.98898 0.0
C653 C 0.37816 0.90424 0.0436 0.0
C654 C 0.3877 0.88864 0.04425 0.0
C655 C 0.39293 0.92875 0.037 0.0
C656 C 0.44879 0.96984 -0.00122 0.0
H657 H 0.44607 0.07296 0.96247 0.0
H658 H 0.43063 0.03289 0.98292 0.0
H659 H 0.47203 -0.00282 0.96927 0.0
H660 H 0.42044 0.88667 0.03968 0.0
H661 H 0.44643 0.92973 0.0285 0.0
H662 H 0.41726 0.97828 0.05109 0.0
C663 C 0.4498 0.04369 0.97826 0.0
C664 C 0.46041 -0.00672 0.98741 0.0
C665 C 0.45865 0.06658 0.96634 0.0
C666 C 0.41256 0.89826 0.03926 0.0
C667 C 0.4274 0.92286 0.03267 0.0
C668 C 0.42919 0.98212 0.03328 0.0
C669 C 0.46549 0.03489 0.98436 0.0
C670 C 0.45583 0.01104 -0.00168 0.0
C671 C 0.41764 0.93829 0.03101 0.0
C672 C 0.43256 0.96385 0.0214 0.0
H673 H 0.51832 0.08324 0.96139 0.0
H674 H 0.50258 0.04266 0.98188 0.0
H675 H 0.43716 0.01896 0.03091 0.0
H676 H 0.35906 0.89739 0.04729 0.0
H677 H 0.3847 0.93998 0.03551 0.0
C678 C 0.39063 0.47764 0.1156 0.0
C679 C 0.39541 0.50088 0.12349 0.0
C680 C 0.40592 0.46917 0.12432 0.0
C681 C 0.44116 0.47119 0.1828 0.0
H682 H 0.47056 0.44478 0.13351 0.0
C683 C 0.46603 0.3981 0.21208 0.0
C684 C 0.4898 0.40382 0.20579 0.0
C685 C 0.45766 0.41359 0.2037 0.0
C686 C 0.46262 0.45232 0.14745 0.0
H687 H 0.42009 0.53371 0.14606 0.0
H688 H 0.44643 0.51844 0.16215 0.0
H689 H 0.45029 0.46537 0.11336 0.0
H690 H 0.52365 0.43036 0.18642 0.0
H691 H 0.50863 0.45708 0.17092 0.0
H692 H 0.45225 0.45689 0.21683 0.0
C693 C 0.43108 0.50706 0.14885 0.0
C694 C 0.45103 0.46397 0.13597 0.0
C695 C 0.41611 0.51578 0.13955 0.0
C696 C 0.50528 0.42561 0.19168 0.0
C697 C 0.49672 0.44081 0.18271 0.0
C698 C 0.45226 0.45904 0.19426 0.0
C699 C 0.42589 0.48359 0.14156 0.0
C700 C 0.44008 0.47332 0.15357 0.0
C701 C 0.47277 0.43474 0.18839 0.0
C702 C 0.4629 0.44938 0.17664 0.0
H703 H 0.37478 0.46582 0.10321 0.0
H704 H 0.40155 0.45094 0.11862 0.0
H705 H 0.43259 0.4781 0.19671 0.0
H706 H 0.45376 0.38141 0.22295 0.0
H707 H 0.43907 0.40854 0.20813 0.0
C708 C 0.1867 0.49711 0.33575 0.0
C709 C 0.16695 0.49971 0.32779 0.0
C710 C 0.20166 0.4955 0.31534 0.0
C711 C 0.21846 0.50914 0.23973 0.0
H712 H 0.24846 0.47001 0.25178 0.0
C713 C 0.27653 0.49713 0.15434 0.0
C714 C 0.29898 0.50084 0.16378 0.0
C715 C 0.25894 0.49492 0.17366 0.0
C716 C 0.24025 0.48108 0.24814 0.0
H717 H 0.1469 0.50178 0.29222 0.0
H718 H 0.17231 0.49817 0.25682 0.0
H719 H 0.22071 0.47006 0.28694 0.0
H720 H 0.32028 0.50435 0.2008 0.0
H721 H 0.28962 0.50019 0.23427 0.0
H722 H 0.23796 0.52001 0.20083 0.0
C723 C 0.17685 0.49813 0.27871 0.0
C724 C 0.22442 0.48122 0.26839 0.0
C725 C 0.16211 0.50002 0.29906 0.0
C726 C 0.30317 0.50154 0.19283 0.0
C727 C 0.28554 0.49902 0.21206 0.0
C728 C 0.2341 0.50881 0.21939 0.0
C729 C 0.19705 0.49619 0.2865 0.0
C730 C 0.21343 0.49541 0.26459 0.0
C731 C 0.26333 0.49599 0.20275 0.0
C732 C 0.24536 0.49495 0.22346 0.0
H733 H 0.19096 0.49693 0.35771 0.0
H734 H 0.21719 0.49433 0.32223 0.0
H735 H 0.21078 0.52068 0.23619 0.0
H736 H 0.2728 0.49656 0.1321 0.0
H737 H 0.24191 0.49244 0.16584 0.0
C738 C 0.77604 0.31694 0.35723 0.0
C739 C 0.77747 0.30897 0.33016 0.0
C740 C 0.76222 0.30036 0.37818 0.0
C741 C 0.71193 0.2371 0.38845 0.0
H742 H 0.73116 0.25137 0.46655 0.0
C743 C 0.6754 0.19128 0.50608 0.0
C744 C 0.65063 0.18259 0.50158 0.0
C745 C 0.69258 0.20579 0.48567 0.0
C746 C 0.72564 0.2469 0.44486 0.0
H747 H 0.76564 0.27724 0.30392 0.0
H748 H 0.74185 0.24806 0.34072 0.0
H749 H 0.75832 0.27753 0.42976 0.0
H750 H 0.62463 0.18317 0.47272 0.0
H751 H 0.65419 0.20857 0.43801 0.0
H752 H 0.67952 0.20622 0.40344 0.0
C753 C 0.75109 0.26725 0.34566 0.0
C754 C 0.74109 0.26212 0.42369 0.0
C755 C 0.7648 0.28394 0.32453 0.0
C756 C 0.64352 0.18923 0.47676 0.0
C757 C 0.66053 0.2037 0.45663 0.0
C758 C 0.69661 0.22181 0.40955 0.0
C759 C 0.74957 0.27525 0.3728 0.0
C760 C 0.73421 0.25775 0.3952 0.0
C761 C 0.68526 0.21189 0.46047 0.0
C762 C 0.70295 0.22682 0.43809 0.0
H763 H 0.78544 0.33613 0.36225 0.0
H764 H 0.76111 0.30737 0.39848 0.0
H765 H 0.70583 0.23311 0.36689 0.0
H766 H 0.68143 0.18648 0.52501 0.0
H767 H 0.7115 0.21178 0.48936 0.0
C768 C 0.46373 0.68512 0.66996 0.0
C769 C 0.44909 0.6602 0.66437 0.0
C770 C 0.46649 0.70242 0.64976 0.0
C771 C 0.45643 0.70794 0.57312 0.0
H772 H 0.46129 0.76857 0.59586 0.0
C773 C 0.44245 0.78936 0.52376 0.0
C774 C 0.45227 0.79144 0.49682 0.0
C775 C 0.4445 0.77477 0.54422 0.0
C776 C 0.45972 0.75163 0.58905 0.0
H777 H 0.42528 0.6339 0.63363 0.0
H778 H 0.42925 0.66368 0.59924 0.0
H779 H 0.4594 0.7403 0.63143 0.0
H780 H 0.47234 0.78013 0.47034 0.0
H781 H 0.47669 0.7552 0.50632 0.0
H782 H 0.45534 0.71856 0.53083 0.0
C783 C 0.43943 0.67013 0.61857 0.0
C784 C 0.45903 0.73552 0.60956 0.0
C785 C 0.43696 0.65296 0.6385 0.0
C786 C 0.4645 0.77881 0.49088 0.0
C787 C 0.46684 0.76439 0.51152 0.0
C788 C 0.4568 0.72388 0.55264 0.0
C789 C 0.45443 0.69513 0.62369 0.0
C790 C 0.45699 0.71324 0.60192 0.0
C791 C 0.45673 0.76204 0.53848 0.0
C792 C 0.45811 0.74583 0.56028 0.0
H793 H 0.47334 0.69123 0.6897 0.0
H794 H 0.47837 0.72147 0.65445 0.0
H795 H 0.45545 0.69127 0.56625 0.0
H796 H 0.43273 0.7987 0.52899 0.0
H797 H 0.43596 0.77309 0.56437 0.0
C798 C 0.75502 0.46647 0.83696 0.0
C799 C 0.77496 0.46441 0.82842 0.0
C800 C 0.73987 0.46831 0.81694 0.0
C801 C 0.72314 0.45612 0.74111 0.0
H802 H 0.69334 0.49527 0.75418 0.0
C803 C 0.66706 0.47063 0.65535 0.0
C804 C 0.64472 0.46754 0.66432 0.0
C805 C 0.68411 0.47208 0.67501 0.0
C806 C 0.70146 0.48417 0.75026 0.0
H807 H 0.79513 0.46355 0.79225 0.0
H808 H 0.7694 0.46747 0.75767 0.0
H809 H 0.72047 0.49413 0.78947 0.0
H810 H 0.62312 0.46433 0.70095 0.0
H811 H 0.6528 0.46709 0.735 0.0
H812 H 0.70419 0.44627 0.70186 0.0
C813 C 0.76486 0.46693 0.77966 0.0
C814 C 0.71694 0.48342 0.77058 0.0
C815 C 0.77977 0.46487 0.79957 0.0
C816 C 0.64015 0.4667 0.69331 0.0
C817 C 0.65723 0.46841 0.71288 0.0
C818 C 0.70782 0.45703 0.72074 0.0
C819 C 0.74446 0.46832 0.78796 0.0
C820 C 0.72797 0.46932 0.76634 0.0
C821 C 0.6793 0.47079 0.70403 0.0
C822 C 0.69668 0.47096 0.72509 0.0
H823 H 0.75078 0.46605 0.85904 0.0
H824 H 0.72423 0.46911 0.8242 0.0
H825 H 0.73083 0.44464 0.73724 0.0
H826 H 0.67111 0.47131 0.63318 0.0
H827 H 0.70105 0.47413 0.6675 0.0
C828 C 0.30357 0.79442 0.96524 0.0
C829 C 0.29799 0.7902 0.99399 0.0
C830 C 0.28686 0.77957 0.94493 0.0
C831 C 0.23492 0.71816 0.93493 0.0
H832 H 0.22421 0.74496 0.86694 0.0
C833 C 0.16216 0.65675 0.85505 0.0
C834 C 0.16731 0.66151 0.82631 0.0
C835 C 0.17734 0.67325 0.8753 0.0
C836 C 0.22719 0.73712 0.88561 0.0
H837 H 0.27032 0.76723 0.02394 0.0
H838 H 0.24112 0.7411 0.98841 0.0
H839 H 0.25183 0.77218 0.9028 0.0
H840 H 0.19231 0.68758 0.79623 0.0
H841 H 0.2193 0.71627 0.83161 0.0
H842 H 0.21087 0.68315 0.91769 0.0
C843 C 0.25851 0.75592 0.98162 0.0
C844 C 0.24297 0.75276 0.90624 0.0
C845 C 0.27517 0.77095 0.00198 0.0
C846 C 0.18781 0.68344 0.81821 0.0
C847 C 0.20322 0.69992 0.83855 0.0
C848 C 0.21933 0.70254 0.91426 0.0
C849 C 0.26422 0.75998 0.95285 0.0
C850 C 0.24699 0.74346 0.93117 0.0
C851 C 0.19833 0.6949 0.86741 0.0
C852 C 0.21515 0.71176 0.88932 0.0
H853 H 0.32101 0.80911 0.95838 0.0
H854 H 0.29193 0.78307 0.92299 0.0
H855 H 0.23796 0.71038 0.95364 0.0
H856 H 0.14637 0.64011 0.86201 0.0
H857 H 0.17257 0.66896 0.8972 0.0
C858 C 0.49646 0.31674 0.13243 0.0
C859 C 0.49284 0.31035 0.16103 0.0
C860 C 0.49351 0.29977 0.11197 0.0
C861 C 0.49553 0.24369 0.10246 0.0
H862 H 0.4659 0.24091 0.03042 0.0
C863 C 0.4849 0.17345 0.02019 0.0
C864 C 0.48943 0.18065 0.99194 0.0
C865 C 0.48243 0.18799 0.04024 0.0
C866 C 0.47446 0.24162 0.05028 0.0
H867 H 0.48291 0.28092 0.19051 0.0
H868 H 0.4778 0.25109 0.15463 0.0
H869 H 0.4666 0.26816 0.06696 0.0
H870 H 0.49419 0.20842 0.96224 0.0
H871 H 0.49065 0.23453 -0.00243 0.0
H872 H 0.50406 0.2178 0.08581 0.0
C873 C 0.48304 0.26938 0.14813 0.0
C874 C 0.47478 0.25718 0.0713 0.0
C875 C 0.48584 0.2864 0.16868 0.0
C876 C 0.49059 0.2024 0.98388 0.0
C877 C 0.48851 0.2173 0.00416 0.0
C878 C 0.49537 0.22829 0.08145 0.0
C879 C 0.48698 0.27593 0.11952 0.0
C880 C 0.48538 0.25845 0.09763 0.0
C881 C 0.48493 0.21049 0.03276 0.0
C882 C 0.48482 0.22698 0.05504 0.0
H883 H 0.50186 0.33504 0.12577 0.0
H884 H 0.49701 0.30556 0.09025 0.0
H885 H 0.50427 0.24454 0.12226 0.0
H886 H 0.48357 0.15657 0.02696 0.0
H887 H 0.4789 0.18168 0.06177 0.0
loop_
_geom_bond_atom_site_label_1
_geom_bond_atom_site_label_2
_geom_bond_distance
_geom_bond_site_symmetry_2
_ccdc_geom_bond_type
Co0 O1 2.216 . S
Co0 O2 2.091 . S
Co0 O4 2.004 . S
Co0 O10 2.021 . S
Co0 O12 2.137 . S
Co0 O13 2.244 . S
O1 Co0 2.216 . S
O1 C8 1.247 . S
O2 Co0 2.091 . S
O2 C8 1.261 . S
C3 O12 1.247 . S
C3 O13 1.272 . S
O4 Co0 2.004 . S
O4 C9 1.259 . S
Co5 O6 2.061 . S
Co5 O11 2.052 . S
Co5 O13 2.135 . S
O6 Co5 2.061 . S
O6 C9 1.235 . S
C7 O10 1.238 . S
C7 O11 1.241 . S
C8 O1 1.247 . S
C8 O2 1.261 . S
C9 O4 1.259 . S
C9 O6 1.235 . S
O10 Co0 2.021 . S
O10 C7 1.238 . S
O11 Co5 2.052 . S
O11 C7 1.241 . S
O12 Co0 2.137 . S
O12 C3 1.247 . S
O13 Co0 2.244 . S
O13 C3 1.272 . S
O13 Co5 2.135 . S
Co14 O15 2.216 . S
Co14 O16 2.091 . S
Co14 O18 2.004 . S
Co14 O24 2.021 . S
Co14 O26 2.137 . S
Co14 O27 2.244 . S
O15 Co14 2.216 . S
O15 C22 1.247 . S
O16 Co14 2.091 . S
O16 C22 1.261 . S
C17 O26 1.247 . S
C17 O27 1.272 . S
O18 Co14 2.004 . S
O18 C23 1.259 . S
Co19 O20 2.061 . S
Co19 O25 2.052 . S
Co19 O27 2.135 . S
O20 Co19 2.061 . S
O20 C23 1.235 . S
C21 O24 1.238 . S
C21 O25 1.241 . S
C22 O15 1.247 . S
C22 O16 1.261 . S
C23 O18 1.259 . S
C23 O20 1.235 . S
O24 Co14 2.021 . S
O24 C21 1.238 . S
O25 Co19 2.052 . S
O25 C21 1.241 . S
O26 Co14 2.137 . S
O26 C17 1.247 . S
O27 Co14 2.244 . S
O27 C17 1.272 . S
O27 Co19 2.135 . S
Co28 O29 2.216 . S
Co28 O30 2.091 . S
Co28 O32 2.004 . S
Co28 O38 2.021 . S
Co28 O40 2.137 . S
Co28 O41 2.244 . S
O29 Co28 2.216 . S
O29 C36 1.247 . S
O30 Co28 2.091 . S
O30 C36 1.261 . S
C31 O40 1.247 . S
C31 O41 1.272 . S
O32 Co28 2.004 . S
O32 C37 1.259 . S
Co33 O34 2.061 . S
Co33 O39 2.052 . S
Co33 O41 2.135 . S
O34 Co33 2.061 . S
O34 C37 1.235 . S
C35 O38 1.238 . S
C35 O39 1.241 . S
C36 O29 1.247 . S
C36 O30 1.261 . S
C37 O32 1.259 . S
C37 O34 1.235 . S
O38 Co28 2.021 . S
O38 C35 1.238 . S
O39 Co33 2.052 . S
O39 C35 1.241 . S
O40 Co28 2.137 . S
O40 C31 1.247 . S
O41 Co28 2.244 . S
O41 C31 1.272 . S
O41 Co33 2.135 . S
Co42 O43 2.216 . S
Co42 O44 2.091 . S
Co42 O46 2.004 . S
Co42 O52 2.021 . S
Co42 O54 2.137 . S
Co42 O55 2.244 . S
O43 Co42 2.216 . S
O43 C50 1.247 . S
O44 Co42 2.091 . S
O44 C50 1.261 . S
C45 O54 1.247 . S
C45 O55 1.272 . S
O46 Co42 2.004 . S
O46 C51 1.259 . S
Co47 O48 2.061 . S
Co47 O53 2.052 . S
Co47 O55 2.135 . S
O48 Co47 2.061 . S
O48 C51 1.235 . S
C49 O52 1.238 . S
C49 O53 1.241 . S
C50 O43 1.247 . S
C50 O44 1.261 . S
C51 O46 1.259 . S
C51 O48 1.235 . S
O52 Co42 2.021 . S
O52 C49 1.238 . S
O53 Co47 2.052 . S
O53 C49 1.241 . S
O54 Co42 2.137 . S
O54 C45 1.247 . S
O55 Co42 2.244 . S
O55 C45 1.272 . S
O55 Co47 2.135 . S
Co56 O57 2.216 . S
Co56 O58 2.091 . S
Co56 O60 2.004 . S
Co56 O66 2.021 . S
Co56 O68 2.137 . S
Co56 O69 2.244 . S
O57 Co56 2.216 . S
O57 C64 1.247 . S
O58 Co56 2.091 . S
O58 C64 1.261 . S
C59 O68 1.247 . S
C59 O69 1.272 . S
O60 Co56 2.004 . S
O60 C65 1.259 . S
Co61 O62 2.061 . S
Co61 O67 2.052 . S
Co61 O69 2.135 . S
O62 Co61 2.061 . S
O62 C65 1.235 . S
C63 O66 1.238 . S
C63 O67 1.241 . S
C64 O57 1.247 . S
C64 O58 1.261 . S
C65 O60 1.259 . S
C65 O62 1.235 . S
O66 Co56 2.021 . S
O66 C63 1.238 . S
O67 Co61 2.052 . S
O67 C63 1.241 . S
O68 Co56 2.137 . S
O68 C59 1.247 . S
O69 Co56 2.244 . S
O69 C59 1.272 . S
O69 Co61 2.135 . S
Co70 O71 2.216 . S
Co70 O72 2.091 . S
Co70 O74 2.004 . S
Co70 O80 2.021 . S
Co70 O82 2.137 . S
Co70 O83 2.244 . S
O71 Co70 2.216 . S
O71 C78 1.247 . S
O72 Co70 2.091 . S
O72 C78 1.261 . S
C73 O82 1.247 . S
C73 O83 1.272 . S
O74 Co70 2.004 . S
O74 C79 1.259 . S
Co75 O76 2.061 . S
Co75 O81 2.052 . S
Co75 O83 2.135 . S
O76 Co75 2.061 . S
O76 C79 1.235 . S
C77 O80 1.238 . S
C77 O81 1.241 . S
C78 O71 1.247 . S
C78 O72 1.261 . S
C79 O74 1.259 . S
C79 O76 1.235 . S
O80 Co70 2.021 . S
O80 C77 1.238 . S
O81 Co75 2.052 . S
O81 C77 1.241 . S
O82 Co70 2.137 . S
O82 C73 1.247 . S
O83 Co70 2.244 . S
O83 C73 1.272 . S
O83 Co75 2.135 . S
Co84 O85 2.216 . S
Co84 O86 2.091 . S
Co84 O88 2.004 . S
Co84 O94 2.021 . S
Co84 O96 2.137 . S
Co84 O97 2.244 . S
O85 Co84 2.216 . S
O85 C92 1.247 . S
O86 Co84 2.091 . S
O86 C92 1.261 . S
C87 O96 1.247 . S
C87 O97 1.272 . S
O88 Co84 2.004 . S
O88 C93 1.259 . S
Co89 O90 2.061 . S
Co89 O95 2.052 . S
Co89 O97 2.135 . S
O90 Co89 2.061 . S
O90 C93 1.235 . S
C91 O94 1.238 . S
C91 O95 1.241 . S
C92 O85 1.247 . S
C92 O86 1.261 . S
C93 O88 1.259 . S
C93 O90 1.235 . S
O94 Co84 2.021 . S
O94 C91 1.238 . S
O95 Co89 2.052 . S
O95 C91 1.241 . S
O96 Co84 2.137 . S
O96 C87 1.247 . S
O97 Co84 2.244 . S
O97 C87 1.272 . S
O97 Co89 2.135 . S
Co98 O99 2.216 . S
Co98 O100 2.091 . S
Co98 O102 2.004 . S
Co98 O108 2.021 . S
Co98 O110 2.137 . S
Co98 O111 2.244 . S
O99 Co98 2.216 . S
O99 C106 1.247 . S
O100 Co98 2.091 . S
O100 C106 1.261 . S
C101 O110 1.247 . S
C101 O111 1.272 . S
O102 Co98 2.004 . S
O102 C107 1.259 . S
Co103 O104 2.061 . S
Co103 O109 2.052 . S
Co103 O111 2.135 . S
O104 Co103 2.061 . S
O104 C107 1.235 . S
C105 O108 1.238 . S
C105 O109 1.241 . S
C106 O99 1.247 . S
C106 O100 1.261 . S
C107 O102 1.259 . S
C107 O104 1.235 . S
O108 Co98 2.021 . S
O108 C105 1.238 . S
O109 Co103 2.052 . S
O109 C105 1.241 . S
O110 Co98 2.137 . S
O110 C101 1.247 . S
O111 Co98 2.244 . S
O111 C101 1.272 . S
O111 Co103 2.135 . S
Co112 O113 2.216 . S
Co112 O114 2.091 . S
Co112 O116 2.004 . S
Co112 O122 2.021 . S
Co112 O124 2.137 . S
Co112 O125 2.244 . S
O113 Co112 2.216 . S
O113 C120 1.247 . S
O114 Co112 2.091 . S
O114 C120 1.261 . S
C115 O124 1.247 . S
C115 O125 1.272 . S
O116 Co112 2.004 . S
O116 C121 1.259 . S
Co117 O118 2.061 . S
Co117 O123 2.052 . S
Co117 O125 2.135 . S
O118 Co117 2.061 . S
O118 C121 1.235 . S
C119 O122 1.238 . S
C119 O123 1.241 . S
C120 O113 1.247 . S
C120 O114 1.261 . S
C121 O116 1.259 . S
C121 O118 1.235 . S
O122 Co112 2.021 . S
O122 C119 1.238 . S
O123 Co117 2.052 . S
O123 C119 1.241 . S
O124 Co112 2.137 . S
O124 C115 1.247 . S
O125 Co112 2.244 . S
O125 C115 1.272 . S
O125 Co117 2.135 . S
Co126 O127 2.216 . S
Co126 O128 2.091 . S
Co126 O130 2.004 . S
Co126 O136 2.021 . S
Co126 O138 2.137 . S
Co126 O139 2.244 . S
O127 Co126 2.216 . S
O127 C134 1.247 . S
O128 Co126 2.091 . S
O128 C134 1.261 . S
C129 O138 1.247 . S
C129 O139 1.272 . S
O130 Co126 2.004 . S
O130 C135 1.259 . S
Co131 O132 2.061 . S
Co131 O137 2.052 . S
Co131 O139 2.135 . S
O132 Co131 2.061 . S
O132 C135 1.235 . S
C133 O136 1.238 . S
C133 O137 1.241 . S
C134 O127 1.247 . S
C134 O128 1.261 . S
C135 O130 1.259 . S
C135 O132 1.235 . S
O136 Co126 2.021 . S
O136 C133 1.238 . S
O137 Co131 2.052 . S
O137 C133 1.241 . S
O138 Co126 2.137 . S
O138 C129 1.247 . S
O139 Co126 2.244 . S
O139 C129 1.272 . S
O139 Co131 2.135 . S
Co140 O141 2.216 . S
Co140 O142 2.091 . S
Co140 O144 2.004 . S
Co140 O150 2.021 . S
Co140 O152 2.137 . S
Co140 O153 2.244 . S
O141 Co140 2.216 . S
O141 C148 1.247 . S
O142 Co140 2.091 . S
O142 C148 1.261 . S
C143 O152 1.247 . S
C143 O153 1.272 . S
O144 Co140 2.004 . S
O144 C149 1.259 . S
Co145 O146 2.061 . S
Co145 O151 2.052 . S
Co145 O153 2.135 . S
O146 Co145 2.061 . S
O146 C149 1.235 . S
C147 O150 1.238 . S
C147 O151 1.241 . S
C148 O141 1.247 . S
C148 O142 1.261 . S
C149 O144 1.259 . S
C149 O146 1.235 . S
O150 Co140 2.021 . S
O150 C147 1.238 . S
O151 Co145 2.052 . S
O151 C147 1.241 . S
O152 Co140 2.137 . S
O152 C143 1.247 . S
O153 Co140 2.244 . S
O153 C143 1.272 . S
O153 Co145 2.135 . S
Co154 O155 2.216 . S
Co154 O156 2.091 . S
Co154 O158 2.004 . S
Co154 O164 2.021 . S
Co154 O166 2.137 . S
Co154 O167 2.244 . S
O155 Co154 2.216 . S
O155 C162 1.247 . S
O156 Co154 2.091 . S
O156 C162 1.261 . S
C157 O166 1.247 . S
C157 O167 1.272 . S
O158 Co154 2.004 . S
O158 C163 1.259 . S
Co159 O160 2.061 . S
Co159 O165 2.052 . S
Co159 O167 2.135 . S
O160 Co159 2.061 . S
O160 C163 1.235 . S
C161 O164 1.238 . S
C161 O165 1.241 . S
C162 O155 1.247 . S
C162 O156 1.261 . S
C163 O158 1.259 . S
C163 O160 1.235 . S
O164 Co154 2.021 . S
O164 C161 1.238 . S
O165 Co159 2.052 . S
O165 C161 1.241 . S
O166 Co154 2.137 . S
O166 C157 1.247 . S
O167 Co154 2.244 . S
O167 C157 1.272 . S
O167 Co159 2.135 . S
C168 C169 1.349 . S
C168 C170 1.327 . S
C168 H193 0.950 . S
C169 C168 1.349 . S
C169 C185 1.349 . S
C170 C168 1.327 . S
C170 C189 1.429 . S
C170 H194 0.950 . S
C171 C188 1.574 . S
C171 C190 1.368 . S
C171 H195 0.949 . S
H172 C176 0.949 . S
C173 C174 1.349 . S
C173 C175 1.327 . S
C173 H196 0.950 . S
C174 C173 1.349 . S
C174 C186 1.349 . S
C175 C173 1.327 . S
C175 C191 1.429 . S
C175 H197 0.950 . S
C176 H172 0.949 . S
C176 C184 1.574 . S
C176 C192 1.368 . S
H177 C185 0.950 . S
H178 C183 0.950 . S
H179 C184 0.949 . S
H180 C186 0.950 . S
H181 C187 0.950 . S
H182 C188 0.949 . S
C183 H178 0.950 . S
C183 C185 1.327 . S
C183 C189 1.429 . S
C184 C176 1.574 . S
C184 H179 0.949 . S
C184 C190 1.368 . S
C185 C169 1.349 . S
C185 H177 0.950 . S
C185 C183 1.327 . S
C186 C174 1.349 . S
C186 H180 0.950 . S
C186 C187 1.327 . S
C187 H181 0.950 . S
C187 C186 1.327 . S
C187 C191 1.429 . S
C188 C171 1.574 . S
C188 H182 0.949 . S
C188 C192 1.368 . S
C189 C170 1.429 . S
C189 C183 1.429 . S
C189 C190 1.523 . S
C190 C171 1.368 . S
C190 C184 1.368 . S
C190 C189 1.523 . S
C191 C175 1.429 . S
C191 C187 1.429 . S
C191 C192 1.523 . S
C192 C176 1.368 . S
C192 C188 1.368 . S
C192 C191 1.523 . S
H193 C168 0.950 . S
H194 C170 0.950 . S
H195 C171 0.949 . S
H196 C173 0.950 . S
H197 C175 0.950 . S
C198 C199 1.349 . S
C198 C200 1.327 . S
C198 H223 0.950 . S
C199 C198 1.349 . S
C199 C215 1.349 . S
C200 C198 1.327 . S
C200 C219 1.429 . S
C200 H224 0.950 . S
C201 C218 1.574 . S
C201 C220 1.368 . S
C201 H225 0.949 . S
H202 C206 0.949 . S
C203 C204 1.349 . S
C203 C205 1.327 . S
C203 H226 0.950 . S
C204 C203 1.349 . S
C204 C216 1.349 . S
C205 C203 1.327 . S
C205 C221 1.429 . S
C205 H227 0.950 . S
C206 H202 0.949 . S
C206 C214 1.574 . S
C206 C222 1.368 . S
H207 C215 0.950 . S
H208 C213 0.950 . S
H209 C214 0.949 . S
H210 C216 0.950 . S
H211 C217 0.950 . S
H212 C218 0.949 . S
C213 H208 0.950 . S
C213 C215 1.327 . S
C213 C219 1.429 . S
C214 C206 1.574 . S
C214 H209 0.949 . S
C214 C220 1.368 . S
C215 C199 1.349 . S
C215 H207 0.950 . S
C215 C213 1.327 . S
C216 C204 1.349 . S
C216 H210 0.950 . S
C216 C217 1.327 . S
C217 H211 0.950 . S
C217 C216 1.327 . S
C217 C221 1.429 . S
C218 C201 1.574 . S
C218 H212 0.949 . S
C218 C222 1.368 . S
C219 C200 1.429 . S
C219 C213 1.429 . S
C219 C220 1.523 . S
C220 C201 1.368 . S
C220 C214 1.368 . S
C220 C219 1.523 . S
C221 C205 1.429 . S
C221 C217 1.429 . S
C221 C222 1.523 . S
C222 C206 1.368 . S
C222 C218 1.368 . S
C222 C221 1.523 . S
H223 C198 0.950 . S
H224 C200 0.950 . S
H225 C201 0.949 . S
H226 C203 0.950 . S
H227 C205 0.950 . S
C228 C229 1.349 . S
C228 C230 1.327 . S
C228 H253 0.950 . S
C229 C228 1.349 . S
C229 C245 1.349 . S
C230 C228 1.327 . S
C230 C249 1.429 . S
C230 H254 0.950 . S
C231 C248 1.574 . S
C231 C250 1.368 . S
C231 H255 0.949 . S
H232 C236 0.949 . S
C233 C234 1.349 . S
C233 C235 1.327 . S
C233 H256 0.950 . S
C234 C233 1.349 . S
C234 C246 1.349 . S
C235 C233 1.327 . S
C235 C251 1.429 . S
C235 H257 0.950 . S
C236 H232 0.949 . S
C236 C244 1.574 . S
C236 C252 1.368 . S
H237 C245 0.950 . S
H238 C243 0.950 . S
H239 C244 0.949 . S
H240 C246 0.950 . S
H241 C247 0.950 . S
H242 C248 0.949 . S
C243 H238 0.950 . S
C243 C245 1.327 . S
C243 C249 1.429 . S
C244 C236 1.574 . S
C244 H239 0.949 . S
C244 C250 1.368 . S
C245 C229 1.349 . S
C245 H237 0.950 . S
C245 C243 1.327 . S
C246 C234 1.349 . S
C246 H240 0.950 . S
C246 C247 1.327 . S
C247 H241 0.950 . S
C247 C246 1.327 . S
C247 C251 1.429 . S
C248 C231 1.574 . S
C248 H242 0.949 . S
C248 C252 1.368 . S
C249 C230 1.429 . S
C249 C243 1.429 . S
C249 C250 1.523 . S
C250 C231 1.368 . S
C250 C244 1.368 . S
C250 C249 1.523 . S
C251 C235 1.429 . S
C251 C247 1.429 . S
C251 C252 1.523 . S
C252 C236 1.368 . S
C252 C248 1.368 . S
C252 C251 1.523 . S
H253 C228 0.950 . S
H254 C230 0.950 . S
H255 C231 0.949 . S
H256 C233 0.950 . S
H257 C235 0.950 . S
C258 C259 1.349 . S
C258 C260 1.327 . S
C258 H283 0.950 . S
C259 C258 1.349 . S
C259 C275 1.349 . S
C260 C258 1.327 . S
C260 C279 1.429 . S
C260 H284 0.950 . S
C261 C278 1.574 . S
C261 C280 1.368 . S
C261 H285 0.949 . S
H262 C266 0.949 . S
C263 C264 1.349 . S
C263 C265 1.327 . S
C263 H286 0.950 . S
C264 C263 1.349 . S
C264 C276 1.349 . S
C265 C263 1.327 . S
C265 C281 1.429 . S
C265 H287 0.950 . S
C266 H262 0.949 . S
C266 C274 1.574 . S
C266 C282 1.368 . S
H267 C275 0.950 . S
H268 C273 0.950 . S
H269 C274 0.949 . S
H270 C276 0.950 . S
H271 C277 0.950 . S
H272 C278 0.949 . S
C273 H268 0.950 . S
C273 C275 1.327 . S
C273 C279 1.429 . S
C274 C266 1.574 . S
C274 H269 0.949 . S
C274 C280 1.368 . S
C275 C259 1.349 . S
C275 H267 0.950 . S
C275 C273 1.327 . S
C276 C264 1.349 . S
C276 H270 0.950 . S
C276 C277 1.327 . S
C277 H271 0.950 . S
C277 C276 1.327 . S
C277 C281 1.429 . S
C278 C261 1.574 . S
C278 H272 0.949 . S
C278 C282 1.368 . S
C279 C260 1.429 . S
C279 C273 1.429 . S
C279 C280 1.523 . S
C280 C261 1.368 . S
C280 C274 1.368 . S
C280 C279 1.523 . S
C281 C265 1.429 . S
C281 C277 1.429 . S
C281 C282 1.523 . S
C282 C266 1.368 . S
C282 C278 1.368 . S
C282 C281 1.523 . S
H283 C258 0.950 . S
H284 C260 0.950 . S
H285 C261 0.949 . S
H286 C263 0.950 . S
H287 C265 0.950 . S
C288 C289 1.349 . S
C288 C290 1.327 . S
C288 H313 0.950 . S
C289 C288 1.349 . S
C289 C305 1.349 . S
C290 C288 1.327 . S
C290 C309 1.429 . S
C290 H314 0.950 . S
C291 C308 1.574 . S
C291 C310 1.368 . S
C291 H315 0.949 . S
H292 C296 0.949 . S
C293 C294 1.349 . S
C293 C295 1.327 . S
C293 H316 0.950 . S
C294 C293 1.349 . S
C294 C306 1.349 . S
C295 C293 1.327 . S
C295 C311 1.429 . S
C295 H317 0.950 . S
C296 H292 0.949 . S
C296 C304 1.574 . S
C296 C312 1.368 . S
H297 C305 0.950 . S
H298 C303 0.950 . S
H299 C304 0.949 . S
H300 C306 0.950 . S
H301 C307 0.950 . S
H302 C308 0.949 . S
C303 H298 0.950 . S
C303 C305 1.327 . S
C303 C309 1.429 . S
C304 C296 1.574 . S
C304 H299 0.949 . S
C304 C310 1.368 . S
C305 C289 1.349 . S
C305 H297 0.950 . S
C305 C303 1.327 . S
C306 C294 1.349 . S
C306 H300 0.950 . S
C306 C307 1.327 . S
C307 H301 0.950 . S
C307 C306 1.327 . S
C307 C311 1.429 . S
C308 C291 1.574 . S
C308 H302 0.949 . S
C308 C312 1.368 . S
C309 C290 1.429 . S
C309 C303 1.429 . S
C309 C310 1.523 . S
C310 C291 1.368 . S
C310 C304 1.368 . S
C310 C309 1.523 . S
C311 C295 1.429 . S
C311 C307 1.429 . S
C311 C312 1.523 . S
C312 C296 1.368 . S
C312 C308 1.368 . S
C312 C311 1.523 . S
H313 C288 0.950 . S
H314 C290 0.950 . S
H315 C291 0.949 . S
H316 C293 0.950 . S
H317 C295 0.950 . S
C318 C319 1.349 . S
C318 C320 1.327 . S
C318 H343 0.950 . S
C319 C318 1.349 . S
C319 C335 1.349 . S
C320 C318 1.327 . S
C320 C339 1.429 . S
C320 H344 0.950 . S
C321 C338 1.574 . S
C321 C340 1.368 . S
C321 H345 0.949 . S
H322 C326 0.949 . S
C323 C324 1.349 . S
C323 C325 1.327 . S
C323 H346 0.950 . S
C324 C323 1.349 . S
C324 C336 1.349 . S
C325 C323 1.327 . S
C325 C341 1.429 . S
C325 H347 0.950 . S
C326 H322 0.949 . S
C326 C334 1.574 . S
C326 C342 1.368 . S
H327 C335 0.950 . S
H328 C333 0.950 . S
H329 C334 0.949 . S
H330 C336 0.950 . S
H331 C337 0.950 . S
H332 C338 0.949 . S
C333 H328 0.950 . S
C333 C335 1.327 . S
C333 C339 1.429 . S
C334 C326 1.574 . S
C334 H329 0.949 . S
C334 C340 1.368 . S
C335 C319 1.349 . S
C335 H327 0.950 . S
C335 C333 1.327 . S
C336 C324 1.349 . S
C336 H330 0.950 . S
C336 C337 1.327 . S
C337 H331 0.950 . S
C337 C336 1.327 . S
C337 C341 1.429 . S
C338 C321 1.574 . S
C338 H332 0.949 . S
C338 C342 1.368 . S
C339 C320 1.429 . S
C339 C333 1.429 . S
C339 C340 1.523 . S
C340 C321 1.368 . S
C340 C334 1.368 . S
C340 C339 1.523 . S
C341 C325 1.429 . S
C341 C337 1.429 . S
C341 C342 1.523 . S
C342 C326 1.368 . S
C342 C338 1.368 . S
C342 C341 1.523 . S
H343 C318 0.950 . S
H344 C320 0.950 . S
H345 C321 0.949 . S
H346 C323 0.950 . S
H347 C325 0.950 . S
C348 C349 1.349 . S
C348 C350 1.327 . S
C348 H373 0.950 . S
C349 C348 1.349 . S
C349 C365 1.349 . S
C350 C348 1.327 . S
C350 C369 1.429 . S
C350 H374 0.950 . S
C351 C368 1.574 . S
C351 C370 1.368 . S
C351 H375 0.949 . S
H352 C356 0.949 . S
C353 C354 1.349 . S
C353 C355 1.327 . S
C353 H376 0.950 . S
C354 C353 1.349 . S
C354 C366 1.349 . S
C355 C353 1.327 . S
C355 C371 1.429 . S
C355 H377 0.950 . S
C356 H352 0.949 . S
C356 C364 1.574 . S
C356 C372 1.368 . S
H357 C365 0.950 . S
H358 C363 0.950 . S
H359 C364 0.949 . S
H360 C366 0.950 . S
H361 C367 0.950 . S
H362 C368 0.949 . S
C363 H358 0.950 . S
C363 C365 1.327 . S
C363 C369 1.429 . S
C364 C356 1.574 . S
C364 H359 0.949 . S
C364 C370 1.368 . S
C365 C349 1.349 . S
C365 H357 0.950 . S
C365 C363 1.327 . S
C366 C354 1.349 . S
C366 H360 0.950 . S
C366 C367 1.327 . S
C367 H361 0.950 . S
C367 C366 1.327 . S
C367 C371 1.429 . S
C368 C351 1.574 . S
C368 H362 0.949 . S
C368 C372 1.368 . S
C369 C350 1.429 . S
C369 C363 1.429 . S
C369 C370 1.523 . S
C370 C351 1.368 . S
C370 C364 1.368 . S
C370 C369 1.523 . S
C371 C355 1.429 . S
C371 C367 1.429 . S
C371 C372 1.523 . S
C372 C356 1.368 . S
C372 C368 1.368 . S
C372 C371 1.523 . S
H373 C348 0.950 . S
H374 C350 0.950 . S
H375 C351 0.949 . S
H376 C353 0.950 . S
H377 C355 0.950 . S
C378 C379 1.349 . S
C378 C380 1.327 . S
C378 H403 0.950 . S
C379 C378 1.349 . S
C379 C395 1.349 . S
C380 C378 1.327 . S
C380 C399 1.429 . S
C380 H404 0.950 . S
C381 C398 1.574 . S
C381 C400 1.368 . S
C381 H405 0.949 . S
H382 C386 0.949 . S
C383 C384 1.349 . S
C383 C385 1.327 . S
C383 H406 0.950 . S
C384 C383 1.349 . S
C384 C396 1.349 . S
C385 C383 1.327 . S
C385 C401 1.429 . S
C385 H407 0.950 . S
C386 H382 0.949 . S
C386 C394 1.574 . S
C386 C402 1.368 . S
H387 C395 0.950 . S
H388 C393 0.950 . S
H389 C394 0.949 . S
H390 C396 0.950 . S
H391 C397 0.950 . S
H392 C398 0.949 . S
C393 H388 0.950 . S
C393 C395 1.327 . S
C393 C399 1.429 . S
C394 C386 1.574 . S
C394 H389 0.949 . S
C394 C400 1.368 . S
C395 C379 1.349 . S
C395 H387 0.950 . S
C395 C393 1.327 . S
C396 C384 1.349 . S
C396 H390 0.950 . S
C396 C397 1.327 . S
C397 H391 0.950 . S
C397 C396 1.327 . S
C397 C401 1.429 . S
C398 C381 1.574 . S
C398 H392 0.949 . S
C398 C402 1.368 . S
C399 C380 1.429 . S
C399 C393 1.429 . S
C399 C400 1.523 . S
C400 C381 1.368 . S
C400 C394 1.368 . S
C400 C399 1.523 . S
C401 C385 1.429 . S
C401 C397 1.429 . S
C401 C402 1.523 . S
C402 C386 1.368 . S
C402 C398 1.368 . S
C402 C401 1.523 . S
H403 C378 0.950 . S
H404 C380 0.950 . S
H405 C381 0.949 . S
H406 C383 0.950 . S
H407 C385 0.950 . S
C408 C409 1.349 . S
C408 C410 1.327 1_554 S
C408 H433 0.950 . S
C409 C408 1.349 . S
C409 C425 1.349 1_554 S
C410 C408 1.327 1_556 S
C410 C429 1.429 . S
C410 H434 0.950 . S
C411 C428 1.574 . S
C411 C430 1.368 . S
C411 H435 0.949 . S
H412 C416 0.949 . S
C413 C414 1.349 . S
C413 C415 1.327 . S
C413 H436 0.950 . S
C414 C413 1.349 . S
C414 C426 1.349 . S
C415 C413 1.327 . S
C415 C431 1.429 . S
C415 H437 0.950 . S
C416 H412 0.949 . S
C416 C424 1.574 . S
C416 C432 1.368 . S
H417 C425 0.950 . S
H418 C423 0.950 . S
H419 C424 0.949 . S
H420 C426 0.950 . S
H421 C427 0.950 . S
H422 C428 0.949 . S
C423 H418 0.950 . S
C423 C425 1.327 . S
C423 C429 1.429 . S
C424 C416 1.574 . S
C424 H419 0.949 . S
C424 C430 1.368 . S
C425 C409 1.349 1_556 S
C425 H417 0.950 . S
C425 C423 1.327 . S
C426 C414 1.349 . S
C426 H420 0.950 . S
C426 C427 1.327 . S
C427 H421 0.950 . S
C427 C426 1.327 . S
C427 C431 1.429 . S
C428 C411 1.574 . S
C428 H422 0.949 . S
C428 C432 1.368 . S
C429 C410 1.429 . S
C429 C423 1.429 . S
C429 C430 1.523 . S
C430 C411 1.368 . S
C430 C424 1.368 . S
C430 C429 1.523 . S
C431 C415 1.429 . S
C431 C427 1.429 . S
C431 C432 1.523 . S
C432 C416 1.368 . S
C432 C428 1.368 . S
C432 C431 1.523 . S
H433 C408 0.950 . S
H434 C410 0.950 . S
H435 C411 0.949 . S
H436 C413 0.950 . S
H437 C415 0.950 . S
C438 C439 1.349 . S
C438 C440 1.327 . S
C438 H463 0.950 . S
C439 C438 1.349 . S
C439 C455 1.349 . S
C440 C438 1.327 . S
C440 C459 1.429 . S
C440 H464 0.950 . S
C441 C458 1.574 . S
C441 C460 1.368 . S
C441 H465 0.949 . S
H442 C446 0.949 . S
C443 C444 1.349 . S
C443 C445 1.327 1_556 S
C443 H466 0.950 . S
C444 C443 1.349 . S
C444 C456 1.349 . S
C445 C443 1.327 1_554 S
C445 C461 1.429 . S
C445 H467 0.950 . S
C446 H442 0.949 . S
C446 C454 1.574 . S
C446 C462 1.368 . S
H447 C455 0.950 . S
H448 C453 0.950 . S
H449 C454 0.949 . S
H450 C456 0.950 . S
H451 C457 0.950 . S
H452 C458 0.949 . S
C453 H448 0.950 . S
C453 C455 1.327 . S
C453 C459 1.429 . S
C454 C446 1.574 . S
C454 H449 0.949 . S
C454 C460 1.368 . S
C455 C439 1.349 . S
C455 H447 0.950 . S
C455 C453 1.327 . S
C456 C444 1.349 . S
C456 H450 0.950 . S
C456 C457 1.327 1_556 S
C457 H451 0.950 . S
C457 C456 1.327 1_554 S
C457 C461 1.429 . S
C458 C441 1.574 . S
C458 H452 0.949 . S
C458 C462 1.368 . S
C459 C440 1.429 . S
C459 C453 1.429 . S
C459 C460 1.523 . S
C460 C441 1.368 . S
C460 C454 1.368 . S
C460 C459 1.523 . S
C461 C445 1.429 . S
C461 C457 1.429 . S
C461 C462 1.523 . S
C462 C446 1.368 . S
C462 C458 1.368 . S
C462 C461 1.523 . S
H463 C438 0.950 . S
H464 C440 0.950 . S
H465 C441 0.949 . S
H466 C443 0.950 . S
H467 C445 0.950 . S
C468 C469 1.349 . S
C468 C470 1.327 . S
C468 H493 0.950 . S
C469 C468 1.349 . S
C469 C485 1.349 . S
C470 C468 1.327 . S
C470 C489 1.429 . S
C470 H494 0.950 . S
C471 C488 1.574 . S
C471 C490 1.368 . S
C471 H495 0.949 . S
H472 C476 0.949 . S
C473 C474 1.349 . S
C473 C475 1.327 . S
C473 H496 0.950 . S
C474 C473 1.349 . S
C474 C486 1.349 . S
C475 C473 1.327 . S
C475 C491 1.429 . S
C475 H497 0.950 . S
C476 H472 0.949 . S
C476 C484 1.574 . S
C476 C492 1.368 . S
H477 C485 0.950 . S
H478 C483 0.950 . S
H479 C484 0.949 . S
H480 C486 0.950 . S
H481 C487 0.950 . S
H482 C488 0.949 . S
C483 H478 0.950 . S
C483 C485 1.327 . S
C483 C489 1.429 . S
C484 C476 1.574 . S
C484 H479 0.949 . S
C484 C490 1.368 . S
C485 C469 1.349 . S
C485 H477 0.950 . S
C485 C483 1.327 . S
C486 C474 1.349 . S
C486 H480 0.950 . S
C486 C487 1.327 . S
C487 H481 0.950 . S
C487 C486 1.327 . S
C487 C491 1.429 . S
C488 C471 1.574 . S
C488 H482 0.949 . S
C488 C492 1.368 . S
C489 C470 1.429 . S
C489 C483 1.429 . S
C489 C490 1.523 . S
C490 C471 1.368 . S
C490 C484 1.368 . S
C490 C489 1.523 . S
C491 C475 1.429 . S
C491 C487 1.429 . S
C491 C492 1.523 . S
C492 C476 1.368 . S
C492 C488 1.368 . S
C492 C491 1.523 . S
H493 C468 0.950 . S
H494 C470 0.950 . S
H495 C471 0.949 . S
H496 C473 0.950 . S
H497 C475 0.950 . S
C498 C499 1.349 . S
C498 C500 1.327 . S
C498 H523 0.950 . S
C499 C498 1.349 . S
C499 C515 1.349 . S
C500 C498 1.327 . S
C500 C519 1.429 . S
C500 H524 0.950 . S
C501 C518 1.574 . S
C501 C520 1.368 . S
C501 H525 0.949 . S
H502 C506 0.949 . S
C503 C504 1.349 . S
C503 C505 1.327 . S
C503 H526 0.950 . S
C504 C503 1.349 . S
C504 C516 1.349 . S
C505 C503 1.327 . S
C505 C521 1.429 . S
C505 H527 0.950 . S
C506 H502 0.949 . S
C506 C514 1.574 . S
C506 C522 1.368 . S
H507 C515 0.950 . S
H508 C513 0.950 . S
H509 C514 0.949 . S
H510 C516 0.950 . S
H511 C517 0.950 . S
H512 C518 0.949 . S
C513 H508 0.950 . S
C513 C515 1.327 . S
C513 C519 1.429 . S
C514 C506 1.574 . S
C514 H509 0.949 . S
C514 C520 1.368 . S
C515 C499 1.349 . S
C515 H507 0.950 . S
C515 C513 1.327 . S
C516 C504 1.349 . S
C516 H510 0.950 . S
C516 C517 1.327 . S
C517 H511 0.950 . S
C517 C516 1.327 . S
C517 C521 1.429 . S
C518 C501 1.574 . S
C518 H512 0.949 . S
C518 C522 1.368 . S
C519 C500 1.429 . S
C519 C513 1.429 . S
C519 C520 1.523 . S
C520 C501 1.368 . S
C520 C514 1.368 . S
C520 C519 1.523 . S
C521 C505 1.429 . S
C521 C517 1.429 . S
C521 C522 1.523 . S
C522 C506 1.368 . S
C522 C518 1.368 . S
C522 C521 1.523 . S
H523 C498 0.950 . S
H524 C500 0.950 . S
H525 C501 0.949 . S
H526 C503 0.950 . S
H527 C505 0.950 . S
C528 C529 1.349 . S
C528 C530 1.327 . S
C528 H553 0.950 . S
C529 C528 1.349 . S
C529 C545 1.349 . S
C530 C528 1.327 . S
C530 C549 1.429 . S
C530 H554 0.950 . S
C531 C548 1.574 1_655 S
C531 C550 1.368 . S
C531 H555 0.949 . S
H532 C536 0.949 . S
C533 C534 1.349 . S
C533 C535 1.327 . S
C533 H556 0.950 . S
C534 C533 1.349 . S
C534 C546 1.349 . S
C535 C533 1.327 . S
C535 C551 1.429 . S
C535 H557 0.950 . S
C536 H532 0.949 . S
C536 C544 1.574 1_455 S
C536 C552 1.368 . S
H537 C545 0.950 . S
H538 C543 0.950 . S
H539 C544 0.949 . S
H540 C546 0.950 . S
H541 C547 0.950 . S
H542 C548 0.949 . S
C543 H538 0.950 . S
C543 C545 1.327 . S
C543 C549 1.429 . S
C544 C536 1.574 1_655 S
C544 H539 0.949 . S
C544 C550 1.368 . S
C545 C529 1.349 . S
C545 H537 0.950 . S
C545 C543 1.327 . S
C546 C534 1.349 . S
C546 H540 0.950 . S
C546 C547 1.327 . S
C547 H541 0.950 . S
C547 C546 1.327 . S
C547 C551 1.429 . S
C548 C531 1.574 1_455 S
C548 H542 0.949 . S
C548 C552 1.368 . S
C549 C530 1.429 . S
C549 C543 1.429 . S
C549 C550 1.523 . S
C550 C531 1.368 . S
C550 C544 1.368 . S
C550 C549 1.523 . S
C551 C535 1.429 . S
C551 C547 1.429 . S
C551 C552 1.523 . S
C552 C536 1.368 . S
C552 C548 1.368 . S
C552 C551 1.523 . S
H553 C528 0.950 . S
H554 C530 0.950 . S
H555 C531 0.949 . S
H556 C533 0.950 . S
H557 C535 0.950 . S
C558 C559 1.349 . S
C558 C560 1.327 . S
C558 H583 0.950 . S
C559 C558 1.349 . S
C559 C575 1.349 . S
C560 C558 1.327 . S
C560 C579 1.429 . S
C560 H584 0.950 . S
C561 C578 1.574 1_565 S
C561 C580 1.368 . S
C561 H585 0.949 . S
H562 C566 0.949 . S
C563 C564 1.349 . S
C563 C565 1.327 . S
C563 H586 0.950 . S
C564 C563 1.349 . S
C564 C576 1.349 . S
C565 C563 1.327 . S
C565 C581 1.429 . S
C565 H587 0.950 . S
C566 H562 0.949 . S
C566 C574 1.574 1_545 S
C566 C582 1.368 . S
H567 C575 0.950 . S
H568 C573 0.950 . S
H569 C574 0.949 . S
H570 C576 0.950 . S
H571 C577 0.950 . S
H572 C578 0.949 . S
C573 H568 0.950 . S
C573 C575 1.327 . S
C573 C579 1.429 . S
C574 C566 1.574 1_565 S
C574 H569 0.949 . S
C574 C580 1.368 . S
C575 C559 1.349 . S
C575 H567 0.950 . S
C575 C573 1.327 . S
C576 C564 1.349 . S
C576 H570 0.950 . S
C576 C577 1.327 . S
C577 H571 0.950 . S
C577 C576 1.327 . S
C577 C581 1.429 . S
C578 C561 1.574 1_545 S
C578 H572 0.949 . S
C578 C582 1.368 . S
C579 C560 1.429 . S
C579 C573 1.429 . S
C579 C580 1.523 . S
C580 C561 1.368 . S
C580 C574 1.368 . S
C580 C579 1.523 . S
C581 C565 1.429 . S
C581 C577 1.429 . S
C581 C582 1.523 . S
C582 C566 1.368 . S
C582 C578 1.368 . S
C582 C581 1.523 . S
H583 C558 0.950 . S
H584 C560 0.950 . S
H585 C561 0.949 . S
H586 C563 0.950 . S
H587 C565 0.950 . S
C588 C589 1.349 . S
C588 C590 1.327 . S
C588 H613 0.950 . S
C589 C588 1.349 . S
C589 C605 1.349 . S
C590 C588 1.327 . S
C590 C609 1.429 . S
C590 H614 0.950 . S
C591 C608 1.574 . S
C591 C610 1.368 . S
C591 H615 0.949 . S
H592 C596 0.949 . S
C593 C594 1.349 . S
C593 C595 1.327 . S
C593 H616 0.950 . S
C594 C593 1.349 . S
C594 C606 1.349 . S
C595 C593 1.327 . S
C595 C611 1.429 . S
C595 H617 0.950 . S
C596 H592 0.949 . S
C596 C604 1.574 . S
C596 C612 1.368 . S
H597 C605 0.950 . S
H598 C603 0.950 . S
H599 C604 0.949 . S
H600 C606 0.950 . S
H601 C607 0.950 . S
H602 C608 0.949 . S
C603 H598 0.950 . S
C603 C605 1.327 . S
C603 C609 1.429 . S
C604 C596 1.574 . S
C604 H599 0.949 . S
C604 C610 1.368 . S
C605 C589 1.349 . S
C605 H597 0.950 . S
C605 C603 1.327 . S
C606 C594 1.349 . S
C606 H600 0.950 . S
C606 C607 1.327 . S
C607 H601 0.950 . S
C607 C606 1.327 . S
C607 C611 1.429 . S
C608 C591 1.574 . S
C608 H602 0.949 . S
C608 C612 1.368 . S
C609 C590 1.429 . S
C609 C603 1.429 . S
C609 C610 1.523 . S
C610 C591 1.368 . S
C610 C604 1.368 . S
C610 C609 1.523 . S
C611 C595 1.429 . S
C611 C607 1.429 . S
C611 C612 1.523 . S
C612 C596 1.368 . S
C612 C608 1.368 . S
C612 C611 1.523 . S
H613 C588 0.950 . S
H614 C590 0.950 . S
H615 C591 0.949 . S
H616 C593 0.950 . S
H617 C595 0.950 . S
C618 C619 1.349 . S
C618 C620 1.327 . S
C618 H643 0.950 . S
C619 C618 1.349 . S
C619 C635 1.349 . S
C620 C618 1.327 . S
C620 C639 1.429 . S
C620 H644 0.950 . S
C621 C638 1.574 1_455 S
C621 C640 1.368 . S
C621 H645 0.949 . S
H622 C626 0.949 . S
C623 C624 1.349 . S
C623 C625 1.327 . S
C623 H646 0.950 . S
C624 C623 1.349 . S
C624 C636 1.349 . S
C625 C623 1.327 . S
C625 C641 1.429 . S
C625 H647 0.950 . S
C626 H622 0.949 . S
C626 C634 1.574 1_655 S
C626 C642 1.368 . S
H627 C635 0.950 . S
H628 C633 0.950 . S
H629 C634 0.949 . S
H630 C636 0.950 . S
H631 C637 0.950 . S
H632 C638 0.949 . S
C633 H628 0.950 . S
C633 C635 1.327 . S
C633 C639 1.429 . S
C634 C626 1.574 1_455 S
C634 H629 0.949 . S
C634 C640 1.368 . S
C635 C619 1.349 . S
C635 H627 0.950 . S
C635 C633 1.327 . S
C636 C624 1.349 . S
C636 H630 0.950 . S
C636 C637 1.327 . S
C637 H631 0.950 . S
C637 C636 1.327 . S
C637 C641 1.429 . S
C638 C621 1.574 1_655 S
C638 H632 0.949 . S
C638 C642 1.368 . S
C639 C620 1.429 . S
C639 C633 1.429 . S
C639 C640 1.523 . S
C640 C621 1.368 . S
C640 C634 1.368 . S
C640 C639 1.523 . S
C641 C625 1.429 . S
C641 C637 1.429 . S
C641 C642 1.523 . S
C642 C626 1.368 . S
C642 C638 1.368 . S
C642 C641 1.523 . S
H643 C618 0.950 . S
H644 C620 0.950 . S
H645 C621 0.949 . S
H646 C623 0.950 . S
H647 C625 0.950 . S
C648 C649 1.349 . S
C648 C650 1.327 . S
C648 H673 0.950 . S
C649 C648 1.349 . S
C649 C665 1.349 . S
C650 C648 1.327 . S
C650 C669 1.429 . S
C650 H674 0.950 . S
C651 C668 1.574 1_545 S
C651 C670 1.368 1_554 S
C651 H675 0.949 . S
H652 C656 0.949 . S
C653 C654 1.349 . S
C653 C655 1.327 . S
C653 H676 0.950 . S
C654 C653 1.349 . S
C654 C666 1.349 . S
C655 C653 1.327 . S
C655 C671 1.429 . S
C655 H677 0.950 . S
C656 H652 0.949 . S
C656 C664 1.574 1_565 S
C656 C672 1.368 1_556 S
H657 C665 0.950 . S
H658 C663 0.950 1_554 S
H659 C664 0.949 . S
H660 C666 0.950 . S
H661 C667 0.950 1_556 S
H662 C668 0.949 . S
C663 H658 0.950 1_556 S
C663 C665 1.327 . S
C663 C669 1.429 . S
C664 C656 1.574 1_545 S
C664 H659 0.949 . S
C664 C670 1.368 . S
C665 C649 1.349 . S
C665 H657 0.950 . S
C665 C663 1.327 . S
C666 C654 1.349 . S
C666 H660 0.950 . S
C666 C667 1.327 . S
C667 H661 0.950 1_554 S
C667 C666 1.327 . S
C667 C671 1.429 . S
C668 C651 1.574 1_565 S
C668 H662 0.949 . S
C668 C672 1.368 . S
C669 C650 1.429 . S
C669 C663 1.429 . S
C669 C670 1.523 . S
C670 C651 1.368 1_556 S
C670 C664 1.368 . S
C670 C669 1.523 . S
C671 C655 1.429 . S
C671 C667 1.429 . S
C671 C672 1.523 . S
C672 C656 1.368 1_554 S
C672 C668 1.368 . S
C672 C671 1.523 . S
H673 C648 0.950 . S
H674 C650 0.950 . S
H675 C651 0.949 . S
H676 C653 0.950 . S
H677 C655 0.950 . S
C678 C679 1.349 . S
C678 C680 1.327 . S
C678 H703 0.950 . S
C679 C678 1.349 . S
C679 C695 1.349 . S
C680 C678 1.327 . S
C680 C699 1.429 . S
C680 H704 0.950 . S
C681 C698 1.574 . S
C681 C700 1.368 . S
C681 H705 0.949 . S
H682 C686 0.949 . S
C683 C684 1.349 . S
C683 C685 1.327 . S
C683 H706 0.950 . S
C684 C683 1.349 . S
C684 C696 1.349 . S
C685 C683 1.327 . S
C685 C701 1.429 . S
C685 H707 0.950 . S
C686 H682 0.949 . S
C686 C694 1.574 . S
C686 C702 1.368 . S
H687 C695 0.950 . S
H688 C693 0.950 . S
H689 C694 0.949 . S
H690 C696 0.950 . S
H691 C697 0.950 . S
H692 C698 0.949 . S
C693 H688 0.950 . S
C693 C695 1.327 . S
C693 C699 1.429 . S
C694 C686 1.574 . S
C694 H689 0.949 . S
C694 C700 1.368 . S
C695 C679 1.349 . S
C695 H687 0.950 . S
C695 C693 1.327 . S
C696 C684 1.349 . S
C696 H690 0.950 . S
C696 C697 1.327 . S
C697 H691 0.950 . S
C697 C696 1.327 . S
C697 C701 1.429 . S
C698 C681 1.574 . S
C698 H692 0.949 . S
C698 C702 1.368 . S
C699 C680 1.429 . S
C699 C693 1.429 . S
C699 C700 1.523 . S
C700 C681 1.368 . S
C700 C694 1.368 . S
C700 C699 1.523 . S
C701 C685 1.429 . S
C701 C697 1.429 . S
C701 C702 1.523 . S
C702 C686 1.368 . S
C702 C698 1.368 . S
C702 C701 1.523 . S
H703 C678 0.950 . S
H704 C680 0.950 . S
H705 C681 0.949 . S
H706 C683 0.950 . S
H707 C685 0.950 . S
C708 C709 1.349 . S
C708 C710 1.327 . S
C708 H733 0.950 . S
C709 C708 1.349 . S
C709 C725 1.349 . S
C710 C708 1.327 . S
C710 C729 1.429 . S
C710 H734 0.950 . S
C711 C728 1.574 . S
C711 C730 1.368 . S
C711 H735 0.949 . S
H712 C716 0.949 . S
C713 C714 1.349 . S
C713 C715 1.327 . S
C713 H736 0.950 . S
C714 C713 1.349 . S
C714 C726 1.349 . S
C715 C713 1.327 . S
C715 C731 1.429 . S
C715 H737 0.950 . S
C716 H712 0.949 . S
C716 C724 1.574 . S
C716 C732 1.368 . S
H717 C725 0.950 . S
H718 C723 0.950 . S
H719 C724 0.949 . S
H720 C726 0.950 . S
H721 C727 0.950 . S
H722 C728 0.949 . S
C723 H718 0.950 . S
C723 C725 1.327 . S
C723 C729 1.429 . S
C724 C716 1.574 . S
C724 H719 0.949 . S
C724 C730 1.368 . S
C725 C709 1.349 . S
C725 H717 0.950 . S
C725 C723 1.327 . S
C726 C714 1.349 . S
C726 H720 0.950 . S
C726 C727 1.327 . S
C727 H721 0.950 . S
C727 C726 1.327 . S
C727 C731 1.429 . S
C728 C711 1.574 . S
C728 H722 0.949 . S
C728 C732 1.368 . S
C729 C710 1.429 . S
C729 C723 1.429 . S
C729 C730 1.523 . S
C730 C711 1.368 . S
C730 C724 1.368 . S
C730 C729 1.523 . S
C731 C715 1.429 . S
C731 C727 1.429 . S
C731 C732 1.523 . S
C732 C716 1.368 . S
C732 C728 1.368 . S
C732 C731 1.523 . S
H733 C708 0.950 . S
H734 C710 0.950 . S
H735 C711 0.949 . S
H736 C713 0.950 . S
H737 C715 0.950 . S
C738 C739 1.349 . S
C738 C740 1.327 . S
C738 H763 0.950 . S
C739 C738 1.349 . S
C739 C755 1.349 . S
C740 C738 1.327 . S
C740 C759 1.429 . S
C740 H764 0.950 . S
C741 C758 1.574 . S
C741 C760 1.368 . S
C741 H765 0.949 . S
H742 C746 0.949 . S
C743 C744 1.349 . S
C743 C745 1.327 . S
C743 H766 0.950 . S
C744 C743 1.349 . S
C744 C756 1.349 . S
C745 C743 1.327 . S
C745 C761 1.429 . S
C745 H767 0.950 . S
C746 H742 0.949 . S
C746 C754 1.574 . S
C746 C762 1.368 . S
H747 C755 0.950 . S
H748 C753 0.950 . S
H749 C754 0.949 . S
H750 C756 0.950 . S
H751 C757 0.950 . S
H752 C758 0.949 . S
C753 H748 0.950 . S
C753 C755 1.327 . S
C753 C759 1.429 . S
C754 C746 1.574 . S
C754 H749 0.949 . S
C754 C760 1.368 . S
C755 C739 1.349 . S
C755 H747 0.950 . S
C755 C753 1.327 . S
C756 C744 1.349 . S
C756 H750 0.950 . S
C756 C757 1.327 . S
C757 H751 0.950 . S
C757 C756 1.327 . S
C757 C761 1.429 . S
C758 C741 1.574 . S
C758 H752 0.949 . S
C758 C762 1.368 . S
C759 C740 1.429 . S
C759 C753 1.429 . S
C759 C760 1.523 . S
C760 C741 1.368 . S
C760 C754 1.368 . S
C760 C759 1.523 . S
C761 C745 1.429 . S
C761 C757 1.429 . S
C761 C762 1.523 . S
C762 C746 1.368 . S
C762 C758 1.368 . S
C762 C761 1.523 . S
H763 C738 0.950 . S
H764 C740 0.950 . S
H765 C741 0.949 . S
H766 C743 0.950 . S
H767 C745 0.950 . S
C768 C769 1.349 . S
C768 C770 1.327 . S
C768 H793 0.950 . S
C769 C768 1.349 . S
C769 C785 1.349 . S
C770 C768 1.327 . S
C770 C789 1.429 . S
C770 H794 0.950 . S
C771 C788 1.574 . S
C771 C790 1.368 . S
C771 H795 0.949 . S
H772 C776 0.949 . S
C773 C774 1.349 . S
C773 C775 1.327 . S
C773 H796 0.950 . S
C774 C773 1.349 . S
C774 C786 1.349 . S
C775 C773 1.327 . S
C775 C791 1.429 . S
C775 H797 0.950 . S
C776 H772 0.949 . S
C776 C784 1.574 . S
C776 C792 1.368 . S
H777 C785 0.950 . S
H778 C783 0.950 . S
H779 C784 0.949 . S
H780 C786 0.950 . S
H781 C787 0.950 . S
H782 C788 0.949 . S
C783 H778 0.950 . S
C783 C785 1.327 . S
C783 C789 1.429 . S
C784 C776 1.574 . S
C784 H779 0.949 . S
C784 C790 1.368 . S
C785 C769 1.349 . S
C785 H777 0.950 . S
C785 C783 1.327 . S
C786 C774 1.349 . S
C786 H780 0.950 . S
C786 C787 1.327 . S
C787 H781 0.950 . S
C787 C786 1.327 . S
C787 C791 1.429 . S
C788 C771 1.574 . S
C788 H782 0.949 . S
C788 C792 1.368 . S
C789 C770 1.429 . S
C789 C783 1.429 . S
C789 C790 1.523 . S
C790 C771 1.368 . S
C790 C784 1.368 . S
C790 C789 1.523 . S
C791 C775 1.429 . S
C791 C787 1.429 . S
C791 C792 1.523 . S
C792 C776 1.368 . S
C792 C788 1.368 . S
C792 C791 1.523 . S
H793 C768 0.950 . S
H794 C770 0.950 . S
H795 C771 0.949 . S
H796 C773 0.950 . S
H797 C775 0.950 . S
C798 C799 1.349 . S
C798 C800 1.327 . S
C798 H823 0.950 . S
C799 C798 1.349 . S
C799 C815 1.349 . S
C800 C798 1.327 . S
C800 C819 1.429 . S
C800 H824 0.950 . S
C801 C818 1.574 . S
C801 C820 1.368 . S
C801 H825 0.949 . S
H802 C806 0.949 . S
C803 C804 1.349 . S
C803 C805 1.327 . S
C803 H826 0.950 . S
C804 C803 1.349 . S
C804 C816 1.349 . S
C805 C803 1.327 . S
C805 C821 1.429 . S
C805 H827 0.950 . S
C806 H802 0.949 . S
C806 C814 1.574 . S
C806 C822 1.368 . S
H807 C815 0.950 . S
H808 C813 0.950 . S
H809 C814 0.949 . S
H810 C816 0.950 . S
H811 C817 0.950 . S
H812 C818 0.949 . S
C813 H808 0.950 . S
C813 C815 1.327 . S
C813 C819 1.429 . S
C814 C806 1.574 . S
C814 H809 0.949 . S
C814 C820 1.368 . S
C815 C799 1.349 . S
C815 H807 0.950 . S
C815 C813 1.327 . S
C816 C804 1.349 . S
C816 H810 0.950 . S
C816 C817 1.327 . S
C817 H811 0.950 . S
C817 C816 1.327 . S
C817 C821 1.429 . S
C818 C801 1.574 . S
C818 H812 0.949 . S
C818 C822 1.368 . S
C819 C800 1.429 . S
C819 C813 1.429 . S
C819 C820 1.523 . S
C820 C801 1.368 . S
C820 C814 1.368 . S
C820 C819 1.523 . S
C821 C805 1.429 . S
C821 C817 1.429 . S
C821 C822 1.523 . S
C822 C806 1.368 . S
C822 C818 1.368 . S
C822 C821 1.523 . S
H823 C798 0.950 . S
H824 C800 0.950 . S
H825 C801 0.949 . S
H826 C803 0.950 . S
H827 C805 0.950 . S
C828 C829 1.349 1_556 S
C828 C830 1.327 . S
C828 H853 0.950 . S
C829 C828 1.349 1_554 S
C829 C845 1.349 . S
C830 C828 1.327 . S
C830 C849 1.429 . S
C830 H854 0.950 . S
C831 C848 1.574 . S
C831 C850 1.368 . S
C831 H855 0.949 . S
H832 C836 0.949 . S
C833 C834 1.349 . S
C833 C835 1.327 . S
C833 H856 0.950 . S
C834 C833 1.349 . S
C834 C846 1.349 . S
C835 C833 1.327 . S
C835 C851 1.429 . S
C835 H857 0.950 . S
C836 H832 0.949 . S
C836 C844 1.574 . S
C836 C852 1.368 . S
H837 C845 0.950 . S
H838 C843 0.950 . S
H839 C844 0.949 . S
H840 C846 0.950 . S
H841 C847 0.950 . S
H842 C848 0.949 . S
C843 H838 0.950 . S
C843 C845 1.327 1_556 S
C843 C849 1.429 . S
C844 C836 1.574 . S
C844 H839 0.949 . S
C844 C850 1.368 . S
C845 C829 1.349 . S
C845 H837 0.950 . S
C845 C843 1.327 1_554 S
C846 C834 1.349 . S
C846 H840 0.950 . S
C846 C847 1.327 . S
C847 H841 0.950 . S
C847 C846 1.327 . S
C847 C851 1.429 . S
C848 C831 1.574 . S
C848 H842 0.949 . S
C848 C852 1.368 . S
C849 C830 1.429 . S
C849 C843 1.429 . S
C849 C850 1.523 . S
C850 C831 1.368 . S
C850 C844 1.368 . S
C850 C849 1.523 . S
C851 C835 1.429 . S
C851 C847 1.429 . S
C851 C852 1.523 . S
C852 C836 1.368 . S
C852 C848 1.368 . S
C852 C851 1.523 . S
H853 C828 0.950 . S
H854 C830 0.950 . S
H855 C831 0.949 . S
H856 C833 0.950 . S
H857 C835 0.950 . S
C858 C859 1.349 . S
C858 C860 1.327 . S
C858 H883 0.950 . S
C859 C858 1.349 . S
C859 C875 1.349 . S
C860 C858 1.327 . S
C860 C879 1.429 . S
C860 H884 0.950 . S
C861 C878 1.574 . S
C861 C880 1.368 . S
C861 H885 0.949 . S
H862 C866 0.949 . S
C863 C864 1.349 1_554 S
C863 C865 1.327 . S
C863 H886 0.954 . S
C864 C863 1.349 1_556 S
C864 C876 1.349 . S
C865 C863 1.327 . S
C865 C881 1.429 . S
C865 H887 0.950 . S
C866 H862 0.949 . S
C866 C874 1.574 . S
C866 C882 1.368 . S
H867 C875 0.950 . S
H868 C873 0.950 . S
H869 C874 0.949 . S
H870 C876 0.950 . S
H871 C877 0.950 . S
H872 C878 0.949 . S
C873 H868 0.950 . S
C873 C875 1.327 . S
C873 C879 1.429 . S
C874 C866 1.574 . S
C874 H869 0.949 . S
C874 C880 1.368 . S
C875 C859 1.349 . S
C875 H867 0.950 . S
C875 C873 1.327 . S
C876 C864 1.349 . S
C876 H870 0.950 . S
C876 C877 1.327 1_556 S
C877 H871 0.950 . S
C877 C876 1.327 1_554 S
C877 C881 1.429 . S
C878 C861 1.574 . S
C878 H872 0.949 . S
C878 C882 1.368 . S
C879 C860 1.429 . S
C879 C873 1.429 . S
C879 C880 1.523 . S
C880 C861 1.368 . S
C880 C874 1.368 . S
C880 C879 1.523 . S
C881 C865 1.429 . S
C881 C877 1.429 . S
C881 C882 1.523 . S
C882 C866 1.368 . S
C882 C878 1.368 . S
C882 C881 1.523 . S
H883 C858 0.950 . S
H884 C860 0.950 . S
H885 C861 0.949 . S
H886 C863 0.954 . S
H887 C865 0.950 . S
C169 C9 0.594 . S
C174 C93 0.594 . S
C199 C23 0.594 . S
C204 C107 0.594 . S
C229 C121 0.594 . S
C234 C37 0.594 . S
C259 C51 0.594 . S
C264 C135 0.594 . S
C289 C65 0.594 . S
C294 C149 0.594 . S
C319 C163 0.595 . S
C324 C79 0.595 . S
C349 C119 1.312 . S
C354 C7 1.312 . S
C379 C21 1.312 . S
C384 C133 1.312 . S
C409 C147 1.313 . S
C414 C35 1.313 . S
C439 C161 1.312 . S
C444 C49 1.312 . S
C469 C63 1.312 . S
C474 C91 1.312 . S
C499 C77 1.313 . S
C504 C105 1.313 . S
C529 C162 1.320 . S
C534 C8 1.320 . S
C559 C92 1.320 . S
C564 C22 1.320 . S
C589 C36 1.320 . S
C594 C106 1.320 . S
C619 C120 1.320 . S
C624 C50 1.320 . S
C649 C134 1.320 . S
C654 C64 1.320 . S
C679 C148 1.320 . S
C684 C78 1.320 . S
C709 C3 1.442 . S
C714 C143 1.442 . S
C739 C157 1.442 . S
C744 C17 1.442 . S
C769 C31 1.442 . S
C774 C87 1.442 . S
C799 C45 1.442 . S
C804 C101 1.442 . S
C829 C59 1.442 . S
C834 C115 1.442 . S
C859 C73 1.442 . S
C864 C129 1.442 . S
