# Generated by pormake.
# Topology unn, (4)-cn, num edge types: 1
# Building blocks:
#     Node 0, Type 0, BuildingBlock: MUDLON_clean_sbu_0, # of connection points: 4
#     Node 1, Type 0, BuildingBlock: MUDLON_clean_sbu_0, # of connection points: 4
#     Node 2, Type 0, BuildingBlock: MUDLON_clean_sbu_0, # of connection points: 4
#     Node 3, Type 0, BuildingBlock: MUDLON_clean_sbu_0, # of connection points: 4
#     Node 4, Type 0, BuildingBlock: MUDLON_clean_sbu_0, # of connection points: 4
#     Node 5, Type 0, BuildingBlock: MUDLON_clean_sbu_0, # of connection points: 4
#     Node 6, Type 0, BuildingBlock: MUDLON_clean_sbu_0, # of connection points: 4
#     Node 7, Type 0, BuildingBlock: MUDLON_clean_sbu_0, # of connection points: 4
#     Node 8, Type 0, BuildingBlock: MUDLON_clean_sbu_0, # of connection points: 4
#     Node 9, Type 0, BuildingBlock: MUDLON_clean_sbu_0, # of connection points: 4
#     Node 10, Type 0, BuildingBlock: MUDLON_clean_sbu_0, # of connection points: 4
#     Node 11, Type 0, BuildingBlock: MUDLON_clean_sbu_0, # of connection points: 4
#     Node 12, Type 0, BuildingBlock: MUDLON_clean_sbu_0, # of connection points: 4
#     Node 13, Type 0, BuildingBlock: MUDLON_clean_sbu_0, # of connection points: 4
#     Node 14, Type 0, BuildingBlock: MUDLON_clean_sbu_0, # of connection points: 4
#     Node 15, Type 0, BuildingBlock: MUDLON_clean_sbu_0, # of connection points: 4
#     Node 16, Type 0, BuildingBlock: MUDLON_clean_sbu_0, # of connection points: 4
#     Node 17, Type 0, BuildingBlock: MUDLON_clean_sbu_0, # of connection points: 4
#     Edge 18, Type (0, 0), BuildingBlock: TEMPAE_clean_linker_10, # of connection points: 2
#     Edge 19, Type (0, 0), BuildingBlock: TEMPAE_clean_linker_10, # of connection points: 2
#     Edge 20, Type (0, 0), BuildingBlock: TEMPAE_clean_linker_10, # of connection points: 2
#     Edge 21, Type (0, 0), BuildingBlock: TEMPAE_clean_linker_10, # of connection points: 2
#     Edge 22, Type (0, 0), BuildingBlock: TEMPAE_clean_linker_10, # of connection points: 2
#     Edge 23, Type (0, 0), BuildingBlock: TEMPAE_clean_linker_10, # of connection points: 2
#     Edge 24, Type (0, 0), BuildingBlock: TEMPAE_clean_linker_10, # of connection points: 2
#     Edge 25, Type (0, 0), BuildingBlock: TEMPAE_clean_linker_10, # of connection points: 2
#     Edge 26, Type (0, 0), BuildingBlock: TEMPAE_clean_linker_10, # of connection points: 2
#     Edge 27, Type (0, 0), BuildingBlock: TEMPAE_clean_linker_10, # of connection points: 2
#     Edge 28, Type (0, 0), BuildingBlock: TEMPAE_clean_linker_10, # of connection points: 2
#     Edge 29, Type (0, 0), BuildingBlock: TEMPAE_clean_linker_10, # of connection points: 2
#     Edge 30, Type (0, 0), BuildingBlock: TEMPAE_clean_linker_10, # of connection points: 2
#     Edge 31, Type (0, 0), BuildingBlock: TEMPAE_clean_linker_10, # of connection points: 2
#     Edge 32, Type (0, 0), BuildingBlock: TEMPAE_clean_linker_10, # of connection points: 2
#     Edge 33, Type (0, 0), BuildingBlock: TEMPAE_clean_linker_10, # of connection points: 2
#     Edge 34, Type (0, 0), BuildingBlock: TEMPAE_clean_linker_10, # of connection points: 2
#     Edge 35, Type (0, 0), BuildingBlock: TEMPAE_clean_linker_10, # of connection points: 2
#     Edge 36, Type (0, 0), BuildingBlock: TEMPAE_clean_linker_10, # of connection points: 2
#     Edge 37, Type (0, 0), BuildingBlock: TEMPAE_clean_linker_10, # of connection points: 2
#     Edge 38, Type (0, 0), BuildingBlock: TEMPAE_clean_linker_10, # of connection points: 2
#     Edge 39, Type (0, 0), BuildingBlock: TEMPAE_clean_linker_10, # of connection points: 2
#     Edge 40, Type (0, 0), BuildingBlock: TEMPAE_clean_linker_10, # of connection points: 2
#     Edge 41, Type (0, 0), BuildingBlock: TEMPAE_clean_linker_10, # of connection points: 2
#     Edge 42, Type (0, 0), BuildingBlock: TEMPAE_clean_linker_10, # of connection points: 2
#     Edge 43, Type (0, 0), BuildingBlock: TEMPAE_clean_linker_10, # of connection points: 2
#     Edge 44, Type (0, 0), BuildingBlock: TEMPAE_clean_linker_10, # of connection points: 2
#     Edge 45, Type (0, 0), BuildingBlock: TEMPAE_clean_linker_10, # of connection points: 2
#     Edge 46, Type (0, 0), BuildingBlock: TEMPAE_clean_linker_10, # of connection points: 2
#     Edge 47, Type (0, 0), BuildingBlock: TEMPAE_clean_linker_10, # of connection points: 2
#     Edge 48, Type (0, 0), BuildingBlock: TEMPAE_clean_linker_10, # of connection points: 2
#     Edge 49, Type (0, 0), BuildingBlock: TEMPAE_clean_linker_10, # of connection points: 2
#     Edge 50, Type (0, 0), BuildingBlock: TEMPAE_clean_linker_10, # of connection points: 2
#     Edge 51, Type (0, 0), BuildingBlock: TEMPAE_clean_linker_10, # of connection points: 2
#     Edge 52, Type (0, 0), BuildingBlock: TEMPAE_clean_linker_10, # of connection points: 2
#     Edge 53, Type (0, 0), BuildingBlock: TEMPAE_clean_linker_10, # of connection points: 2
# Relax obj value: 0.098
# Max RMSD: 0.215
# Mean RMSD: 0.212
data_MOF--net-unn--node1-MUDLON_clean_sbu_0--edge1-TEMPAE_clean_linker_10
_symmetry_space_group_name_H-M    P1
_symmetry_Int_Tables_number       1
_symmetry_cell_setting            triclinic
loop_
_symmetry_equiv_pos_as_xyz
'x, y, z'
_cell_length_a     48.464602
_cell_length_b     48.262116
_cell_length_c     42.14083
_cell_angle_alpha  90.579341
_cell_angle_beta   89.752785
_cell_angle_gamma 120.42385
loop_
_atom_site_label
_atom_site_type_symbol
_atom_site_fract_x
_atom_site_fract_y
_atom_site_fract_z
_atom_type_partial_charge
Mg0 Mg 0.98314 0.72762 0.2454 0.0
C1 C 1.00291 0.70886 0.18249 0.0
O2 O 0.98494 0.67909 0.19204 0.0
C3 C 0.96258 0.68691 0.30083 0.0
O4 O 0.94973 0.70508 0.30423 0.0
C5 C 0.91529 0.68977 0.22538 0.0
O6 O 0.92488 0.66879 0.22729 0.0
O7 O 0.93504 0.71891 0.2332 0.0
O8 O 1.00645 0.73184 0.20029 0.0
O9 O 1.0187 0.76868 0.27444 0.0
C10 C 0.03953 0.76292 0.2863 0.0
O11 O 0.0378 0.73552 0.27931 0.0
O12 O 0.97647 0.68808 0.27479 0.0
Mg13 Mg 0.35255 0.27531 0.24754 0.0
C14 C 0.38289 0.29192 0.30821 0.0
O15 O 0.36242 0.26083 0.30849 0.0
C16 C 0.33528 0.27587 0.18155 0.0
O17 O 0.31718 0.24587 0.19042 0.0
C18 C 0.30757 0.2949 0.26869 0.0
O19 O 0.32871 0.31819 0.25079 0.0
O20 O 0.30926 0.26943 0.27109 0.0
O21 O 0.38726 0.3068 0.28225 0.0
O22 O 0.36168 0.2358 0.23703 0.0
C23 C 0.39081 0.2461 0.22943 0.0
O24 O 0.41094 0.27723 0.23108 0.0
O25 O 0.35477 0.29618 0.2016 0.0
Mg26 Mg 0.80411 0.08907 0.25356 0.0
C27 C 0.74733 0.08848 0.28827 0.0
O28 O 0.72985 0.06953 0.26491 0.0
C29 C 0.79873 0.06627 0.18881 0.0
O30 O 0.82844 0.07644 0.19729 0.0
C31 C 0.78341 0.03137 0.29313 0.0
O32 O 0.75855 0.03523 0.29206 0.0
O33 O 0.80867 0.05103 0.27801 0.0
O34 O 0.77754 0.10096 0.2873 0.0
O35 O 0.84643 0.1344 0.23846 0.0
C36 C 0.84666 0.16071 0.243 0.0
O37 O 0.82379 0.16034 0.26014 0.0
O38 O 0.78004 0.06801 0.209 0.0
Mg39 Mg 0.98583 0.2674 0.74529 0.0
C40 C 0.91362 0.22957 0.73558 0.0
O41 O 0.91633 0.2536 0.75293 0.0
C42 C 0.04993 0.27542 0.76269 0.0
O43 O 0.05649 0.28984 0.73513 0.0
C44 C 0.99385 0.29348 0.67796 0.0
O45 O 0.96342 0.28435 0.68086 0.0
O46 O 1.0087 0.29071 0.70137 0.0
O47 O 0.9385 0.22746 0.73063 0.0
O48 O 0.98034 0.29901 0.77805 0.0
C49 C 1.00583 0.32365 0.78778 0.0
O50 O 0.033 0.33128 0.77373 0.0
O51 O 1.02083 0.26009 0.77189 0.0
Mg52 Mg 0.80882 0.73293 0.74932 0.0
C53 C 0.80382 0.79049 0.76945 0.0
O54 O 0.79324 0.78631 0.74014 0.0
C55 C 0.83543 0.6951 0.72314 0.0
O56 O 0.80441 0.67838 0.71814 0.0
C57 C 0.74872 0.69622 0.78637 0.0
O58 O 0.74466 0.71912 0.77489 0.0
O59 O 0.7722 0.69371 0.77653 0.0
O60 O 0.81589 0.77392 0.77911 0.0
O61 O 0.79344 0.7382 0.70275 0.0
C62 C 0.7689 0.71725 0.68775 0.0
O63 O 0.74927 0.68974 0.70132 0.0
O64 O 0.84659 0.72152 0.73862 0.0
Mg65 Mg 0.3638 0.08856 0.75205 0.0
C66 C 0.34957 0.07771 0.68382 0.0
O67 O 0.33649 0.09468 0.69261 0.0
C68 C 0.40575 0.10941 0.8071 0.0
O69 O 0.39177 0.12667 0.80855 0.0
C70 C 0.40106 0.15426 0.72886 0.0
O71 O 0.41802 0.14044 0.72324 0.0
O72 O 0.37451 0.13806 0.74348 0.0
O73 O 0.36355 0.07025 0.70468 0.0
O74 O 0.32116 0.05216 0.77749 0.0
C75 C 0.31488 0.02348 0.77196 0.0
O76 O 0.33139 0.01885 0.74989 0.0
O77 O 0.40077 0.09159 0.78286 0.0
Mg78 Mg 0.64984 0.05537 0.57757 0.0
C79 C 0.66434 0.06995 0.51112 0.0
O80 O 0.65283 0.08795 0.52118 0.0
C81 C 0.64458 0.03151 0.64043 0.0
O82 O 0.64175 0.05714 0.64263 0.0
C83 C 0.58352 0.01952 0.5557 0.0
O84 O 0.59477 0.99983 0.55397 0.0
O85 O 0.60174 0.04757 0.56733 0.0
O86 O 0.66686 0.05157 0.53089 0.0
O87 O 0.68976 0.09911 0.59956 0.0
C88 C 0.71189 0.09342 0.60736 0.0
O89 O 0.70887 0.06577 0.59878 0.0
O90 O 0.64515 0.02065 0.61293 0.0
Mg91 Mg 1.02136 0.61559 0.57561 0.0
C92 C 0.97599 0.63457 0.59727 0.0
O93 O 0.99747 0.65857 0.58029 0.0
C94 C 0.05679 0.57903 0.56856 0.0
O95 O 0.0788 0.60545 0.58258 0.0
C96 C 0.04805 0.63176 0.63769 0.0
O97 O 1.0257 0.60123 0.63779 0.0
O98 O 0.05524 0.64647 0.61135 0.0
O99 O 0.97761 0.60901 0.59866 0.0
O100 O 1.02354 0.63667 0.52971 0.0
C101 C 1.00498 0.61586 0.50947 0.0
O102 O 0.98814 0.58569 0.51825 0.0
O103 O 1.02893 0.57513 0.56462 0.0
Mg104 Mg 0.47818 0.42122 0.58591 0.0
C105 C 0.43811 0.3969 0.52426 0.0
O106 O 0.41921 0.40554 0.53801 0.0
C107 C 0.45325 0.43915 0.64005 0.0
O108 O 0.48448 0.45572 0.64372 0.0
C109 C 0.50451 0.48653 0.56239 0.0
O110 O 0.47328 0.47233 0.55939 0.0
O111 O 0.51603 0.47088 0.57562 0.0
O112 O 0.46231 0.40016 0.53917 0.0
O113 O 0.48474 0.3862 0.61299 0.0
C114 C 0.45969 0.3584 0.61064 0.0
O115 O 0.43652 0.35501 0.59195 0.0
O116 O 0.44198 0.42288 0.61464 0.0
Mg117 Mg 0.65408 0.61407 0.07411 0.0
C118 C 0.66328 0.61478 0.00452 0.0
O119 O 0.64523 0.58395 0.0103 0.0
C120 C 0.62925 0.63607 0.12745 0.0
O121 O 0.60763 0.60533 0.12613 0.0
C122 C 0.58849 0.58393 0.04982 0.0
O123 O 0.60164 0.61498 0.04512 0.0
O124 O 0.60507 0.57408 0.06415 0.0
O125 O 0.6719 0.63465 0.02761 0.0
O126 O 0.69225 0.60862 0.0966 0.0
C127 C 0.69697 0.61323 0.12647 0.0
O128 O 0.67526 0.61479 0.14387 0.0
O129 O 0.65059 0.64766 0.106 0.0
Mg130 Mg 0.46927 0.05664 0.08776 0.0
C131 C 0.46269 0.11397 0.1039 0.0
O132 O 0.44884 0.1056 0.07594 0.0
C133 C 0.49645 0.01938 0.06155 0.0
O134 O 0.46565 1.00316 0.05523 0.0
C135 C 0.41042 0.02192 0.12717 0.0
O136 O 0.40532 0.04336 0.11371 0.0
O137 O 0.43415 0.01948 0.11806 0.0
O138 O 0.47719 0.09989 0.11405 0.0
O139 O 0.4514 0.05744 0.04086 0.0
C140 C 0.47309 0.07367 0.0206 0.0
O141 O 0.50317 0.08797 0.02965 0.0
O142 O 0.50722 0.04529 0.07784 0.0
Mg143 Mg 1.02479 0.41801 0.07831 0.0
C144 C 1.01401 0.40556 0.01022 0.0
O145 O 0.99996 0.42201 0.01738 0.0
C146 C 0.05684 0.43582 0.1382 0.0
O147 O 0.03679 0.44662 0.13838 0.0
C148 C 0.0615 0.48318 0.05463 0.0
O149 O 0.07913 0.46976 0.05117 0.0
O150 O 0.03419 0.46675 0.06788 0.0
O151 O 1.0275 0.39891 0.0323 0.0
O152 O 0.98241 0.38 0.10312 0.0
C153 C 0.98844 0.3587 0.1132 0.0
O154 O 1.01595 0.36129 0.10556 0.0
O155 O 0.06088 0.42455 0.11233 0.0
Mg156 Mg 0.31769 0.38679 0.91245 0.0
C157 C 0.33318 0.40117 0.84509 0.0
O158 O 0.31833 0.41678 0.85258 0.0
C159 C 0.30117 0.35204 0.97172 0.0
O160 O 0.28853 0.3705 0.97378 0.0
C161 C 0.25026 0.3477 0.89318 0.0
O162 O 0.26133 0.32786 0.89413 0.0
O163 O 0.26891 0.37682 0.90182 0.0
O164 O 0.3367 0.3847 0.86638 0.0
O165 O 0.35506 0.43085 0.936 0.0
C166 C 0.38248 0.43328 0.93335 0.0
O167 O 0.38479 0.41195 0.9157 0.0
O168 O 0.31425 0.35137 0.94573 0.0
Mg169 Mg 0.68577 0.94356 0.91475 0.0
C170 C 0.71796 0.96044 0.97516 0.0
O171 O 0.69789 0.92929 0.97595 0.0
C172 C 0.70074 0.96587 0.84542 0.0
O173 O 0.72006 0.95428 0.84684 0.0
C174 C 0.64126 0.96183 0.93953 0.0
O175 O 0.66323 0.98638 0.9235 0.0
O176 O 0.64247 0.93598 0.93972 0.0
O177 O 0.72082 0.97513 0.94936 0.0
O178 O 0.69544 0.90456 0.90259 0.0
C179 C 0.72503 0.91304 0.90132 0.0
O180 O 0.74622 0.94257 0.90988 0.0
O181 O 0.68567 0.96591 0.87018 0.0
Mg182 Mg 0.14732 0.75422 0.91654 0.0
C183 C 0.12603 0.7621 0.9772 0.0
O184 O 0.15627 0.77042 0.98005 0.0
C185 C 0.10734 0.73585 0.85419 0.0
O186 O 0.09152 0.74838 0.86747 0.0
C187 C 0.12784 0.68977 0.93733 0.0
O188 O 0.10471 0.68761 0.9194 0.0
O189 O 0.15335 0.71715 0.94018 0.0
O190 O 0.11371 0.75564 0.94958 0.0
O191 O 0.18631 0.80365 0.90727 0.0
C192 C 0.17583 0.82151 0.89729 0.0
O193 O 0.1447 0.80947 0.89673 0.0
O194 O 0.12928 0.73491 0.86964 0.0
Mg195 Mg 0.31533 0.94326 0.41571 0.0
C196 C 0.24326 0.90605 0.40818 0.0
O197 O 0.24768 0.93312 0.42049 0.0
C198 C 0.38168 0.95556 0.42981 0.0
O199 O 0.38678 0.97235 0.40387 0.0
C200 C 0.32323 0.9449 0.34612 0.0
O201 O 0.30477 0.91411 0.35183 0.0
O202 O 0.33246 0.96467 0.36934 0.0
O203 O 0.2672 0.9019 0.40583 0.0
O204 O 0.31079 0.97472 0.44959 0.0
C205 C 0.33603 1.00002 0.45869 0.0
O206 O 0.36292 1.00887 0.44349 0.0
O207 O 0.35286 0.93757 0.43908 0.0
Mg208 Mg 0.14341 0.39983 0.41598 0.0
C209 C 0.12202 0.43863 0.44915 0.0
O210 O 0.09632 0.41205 0.43988 0.0
C211 C 0.17008 0.36181 0.39117 0.0
O212 O 0.1389 0.34468 0.38728 0.0
C213 C 0.12024 0.37063 0.47587 0.0
O214 O 0.14961 0.39462 0.48007 0.0
O215 O 0.1096 0.36296 0.44767 0.0
O216 O 0.14944 0.44297 0.44124 0.0
O217 O 0.1261 0.40223 0.36956 0.0
C218 C 0.10092 0.38176 0.35508 0.0
O219 O 0.08036 0.35499 0.36926 0.0
O220 O 0.18157 0.389 0.40527 0.0
Mg221 Mg 0.68612 0.75127 0.41178 0.0
C222 C 0.66987 0.73704 0.34504 0.0
O223 O 0.65506 0.75209 0.35466 0.0
C224 C 0.71699 0.7658 0.4719 0.0
O225 O 0.69674 0.77635 0.47249 0.0
C226 C 0.72326 0.82273 0.40225 0.0
O227 O 0.74583 0.81696 0.41105 0.0
O228 O 0.69427 0.79968 0.40241 0.0
O229 O 0.68675 0.73241 0.36497 0.0
O230 O 0.64316 0.71427 0.43616 0.0
C231 C 0.64003 0.68647 0.43325 0.0
O232 O 0.65949 0.68305 0.41395 0.0
O233 O 0.72116 0.75503 0.44575 0.0
C234 C 1.02001 0.69214 0.1331 0.0
C235 C 1.01839 0.716 0.15087 0.0
C236 C 0.03557 0.6992 0.10354 0.0
C237 C 0.04948 0.73075 0.09139 0.0
C238 C 0.04704 0.75463 0.10879 0.0
C239 C 0.03171 0.74703 0.13837 0.0
C240 C 0.03801 0.67318 0.0858 0.0
C241 C 0.06135 0.78848 0.09655 0.0
C242 C 0.12039 0.75945 0.03603 0.0
C243 C 0.10633 0.75603 0.00611 0.0
C244 C 0.10209 0.7512 0.06382 0.0
C245 C 0.06887 0.73953 0.06182 0.0
C246 C 0.05452 0.73664 0.0318 0.0
C247 C 0.07343 0.74481 0.00422 0.0
C248 C 0.11831 0.75454 0.09534 0.0
C249 C 1.0192 0.72462 0.02885 0.0
H250 H 1.00972 0.66811 0.14256 0.0
H251 H 0.03028 0.76555 0.15177 0.0
H252 H 1.02903 0.67089 0.06119 0.0
H253 H 0.06347 0.67973 0.08419 0.0
H254 H 1.02432 0.64946 0.09752 0.0
H255 H 0.0552 0.80353 0.11174 0.0
H256 H 0.08779 0.80002 0.09558 0.0
H257 H 0.05288 0.78812 0.07205 0.0
H258 H 0.14577 0.768 0.0378 0.0
H259 H 0.06238 0.74202 0.9812 0.0
H260 H 0.10722 0.73088 0.10724 0.0
H261 H 0.11502 0.77113 0.11118 0.0
H262 H 0.14436 0.76378 0.09277 0.0
H263 H 1.00521 0.69986 0.03822 0.0
H264 H 1.01185 0.72448 0.00388 0.0
H265 H 1.01286 0.73993 0.0433 0.0
C266 C 0.288 0.33625 0.02835 0.0
C267 C 0.30423 0.33658 0.00059 0.0
C268 C 0.29327 0.32522 0.05704 0.0
C269 C 0.3154 0.31432 0.05808 0.0
C270 C 0.33119 0.31367 0.02997 0.0
C271 C 0.32534 0.32473 0.00148 0.0
C272 C 0.27569 0.32598 0.08644 0.0
C273 C 0.35493 0.30217 0.03019 0.0
C274 C 0.35072 0.31748 0.13932 0.0
C275 C 0.33171 0.28561 0.1493 0.0
C276 C 0.3463 0.32697 0.10925 0.0
C277 C 0.32222 0.30408 0.08881 0.0
C278 C 0.30346 0.27176 0.0985 0.0
C279 C 0.30847 0.26291 0.12857 0.0
C280 C 0.36688 0.36166 0.09965 0.0
C281 C 0.27748 0.24669 0.07744 0.0
H282 H 0.27155 0.34525 0.02784 0.0
H283 H 0.3381 0.32506 0.98016 0.0
H284 H 0.26248 0.30173 0.09711 0.0
H285 H 0.2931 0.34243 0.10442 0.0
H286 H 0.25844 0.33411 0.08138 0.0
H287 H 0.36418 0.3019 0.00609 0.0
H288 H 0.37546 0.31808 0.04576 0.0
H289 H 0.3437 0.2776 0.04009 0.0
H290 H 0.36879 0.33512 0.15513 0.0
H291 H 0.2937 0.2382 0.13602 0.0
H292 H 0.35172 0.37262 0.09662 0.0
H293 H 0.37851 0.36319 0.07648 0.0
H294 H 0.38573 0.37605 0.11747 0.0
H295 H 0.25867 0.25297 0.07359 0.0
H296 H 0.26614 0.22226 0.08779 0.0
H297 H 0.28739 0.24611 0.05383 0.0
C298 C 0.80902 0.05057 0.13539 0.0
C299 C 0.78778 0.05297 0.15645 0.0
C300 C 0.79923 0.03732 0.10491 0.0
C301 C 0.76741 0.02626 0.09513 0.0
C302 C 0.74599 0.02919 0.11598 0.0
C303 C 0.75642 0.04248 0.14646 0.0
C304 C 0.82274 0.03448 0.08345 0.0
C305 C 0.71188 1.01771 0.10631 0.0
C306 C 0.74722 1.01147 0.00712 0.0
C307 C 0.73325 0.978 0.00493 0.0
C308 C 0.75859 0.02762 0.03632 0.0
C309 C 0.75608 1.00985 0.06383 0.0
C310 C 0.74279 0.97619 0.06153 0.0
C311 C 0.73152 0.9607 0.03216 0.0
C312 C 0.77267 0.06357 0.0379 0.0
C313 C 0.73999 0.95641 0.09023 0.0
H314 H 0.83335 0.05869 0.14282 0.0
H315 H 0.73992 0.04438 0.16253 0.0
H316 H 0.81422 1.00877 0.07847 0.0
H317 H 0.82445 0.04608 0.06036 0.0
H318 H 0.84705 0.04565 0.09405 0.0
H319 H 0.69876 0.0233 0.12457 0.0
H320 H 0.71144 0.02898 0.08365 0.0
H321 H 0.69896 0.99134 0.10224 0.0
H322 H 0.74845 0.02496 0.98622 0.0
H323 H 0.72085 0.93483 0.03066 0.0
H324 H 0.79726 0.07531 0.0478 0.0
H325 H 0.75818 0.06943 0.05408 0.0
H326 H 0.77359 0.07397 0.01425 0.0
H327 H 0.7639 0.96542 0.10106 0.0
H328 H 0.72959 0.93053 0.0843 0.0
H329 H 0.72467 0.95878 0.10842 0.0
C330 C 0.67063 0.09218 0.45663 0.0
C331 C 0.67428 0.07177 0.47752 0.0
C332 C 0.68058 0.09522 0.42494 0.0
C333 C 0.69456 0.07741 0.41375 0.0
C334 C 0.69782 0.05629 0.43449 0.0
C335 C 0.68764 0.05372 0.46618 0.0
C336 C 0.67669 0.11797 0.40358 0.0
C337 C 0.71258 0.03685 0.42334 0.0
C338 C 0.70017 0.0661 0.32496 0.0
C339 C 0.73238 0.08871 0.31895 0.0
C340 C 0.68731 0.06248 0.35562 0.0
C341 C 0.70712 0.08203 0.38076 0.0
C342 C 0.73922 0.10584 0.37454 0.0
C343 C 0.75144 0.1089 0.34374 0.0
C344 C 0.65289 0.03696 0.36134 0.0
C345 C 0.76103 0.12738 0.40064 0.0
H346 H 0.66021 0.10614 0.46508 0.0
H347 H 0.69044 0.03783 0.48213 0.0
H348 H 0.70053 0.13745 0.39574 0.0
H349 H 0.66308 0.1051 0.38195 0.0
H350 H 0.66409 0.12903 0.41556 0.0
H351 H 0.7122 0.02056 0.44199 0.0
H352 H 0.69962 0.02222 0.40217 0.0
H353 H 0.73777 0.05321 0.41613 0.0
H354 H 0.6853 0.05029 0.30602 0.0
H355 H 0.77633 0.12652 0.33931 0.0
H356 H 0.63991 0.04761 0.37323 0.0
H357 H 0.65195 1.01844 0.37742 0.0
H358 H 0.64018 0.025 0.33898 0.0
H359 H 0.75017 0.14009 0.41272 0.0
H360 H 0.785 0.14554 0.39162 0.0
H361 H 0.76415 0.11266 0.41876 0.0
C362 C 1.01716 0.65722 0.46761 0.0
C363 C 1.0008 0.62503 0.47715 0.0
C364 C 1.0117 0.66596 0.43757 0.0
C365 C 0.98927 0.64194 0.41672 0.0
C366 C 0.97337 0.60936 0.4259 0.0
C367 C 0.97936 0.6013 0.45594 0.0
C368 C 1.02923 0.70098 0.42852 0.0
C369 C 0.94931 0.58306 0.40434 0.0
C370 C 0.94932 0.66842 0.35673 0.0
C371 C 0.96671 0.67135 0.32904 0.0
C372 C 0.95608 0.65832 0.38523 0.0
C373 C 0.98093 0.65106 0.38614 0.0
C374 C 0.99791 0.65294 0.35804 0.0
C375 C 0.99051 0.66296 0.32974 0.0
C376 C 0.9372 0.65632 0.41462 0.0
C377 C 1.02463 0.64548 0.35813 0.0
H378 H 0.03382 0.67568 0.4838 0.0
H379 H 0.96669 0.57633 0.46299 0.0
H380 H 0.04025 0.70411 0.40472 0.0
H381 H 1.01201 0.70967 0.42715 0.0
H382 H 0.04824 0.71625 0.44588 0.0
H383 H 0.94037 0.55874 0.41427 0.0
H384 H 0.9286 0.58649 0.4005 0.0
H385 H 0.96013 0.58425 0.38078 0.0
H386 H 0.93088 0.67483 0.35634 0.0
H387 H 1.00428 0.66548 0.30852 0.0
H388 H 0.95342 0.67364 0.4328 0.0
H389 H 0.92632 0.63196 0.42497 0.0
H390 H 0.91787 0.66164 0.40965 0.0
H391 H 0.04446 0.66316 0.37343 0.0
H392 H 0.03421 0.64624 0.33395 0.0
H393 H 1.01613 0.62134 0.36824 0.0
C394 C 0.40354 0.37637 0.47565 0.0
C395 C 0.43196 0.38392 0.49141 0.0
C396 C 0.39735 0.36327 0.44481 0.0
C397 C 0.42023 0.35783 0.42935 0.0
C398 C 0.44929 0.36617 0.44482 0.0
C399 C 0.45475 0.37899 0.47568 0.0
C400 C 0.36597 0.35446 0.42908 0.0
C401 C 0.47433 0.3609 0.42906 0.0
C402 C 0.38913 0.29189 0.36683 0.0
C403 C 0.39583 0.30933 0.3386 0.0
C404 C 0.39732 0.30746 0.39642 0.0
C405 C 0.41283 0.34137 0.3979 0.0
C406 C 0.42076 0.35927 0.3695 0.0
C407 C 0.41211 0.34301 0.34012 0.0
C408 C 0.38853 0.28751 0.42616 0.0
C409 C 0.43759 0.3955 0.37022 0.0
H410 H 0.38587 0.38018 0.4876 0.0
H411 H 0.47692 0.38501 0.48755 0.0
H412 H 0.37036 0.36611 0.40558 0.0
H413 H 0.35184 0.32811 0.42494 0.0
H414 H 0.35142 0.36166 0.44363 0.0
H415 H 0.49652 0.37063 0.44346 0.0
H416 H 0.46466 0.33481 0.42518 0.0
H417 H 0.48058 0.37244 0.40543 0.0
H418 H 0.37664 0.26587 0.36591 0.0
H419 H 0.4173 0.35664 0.31842 0.0
H420 H 0.37171 0.29157 0.44066 0.0
H421 H 0.41016 0.29492 0.44082 0.0
H422 H 0.37714 0.26139 0.42087 0.0
H423 H 0.42212 0.40332 0.382 0.0
H424 H 0.4436 0.40592 0.34606 0.0
H425 H 0.45996 0.40548 0.38431 0.0
C426 C 0.97903 0.32547 0.83797 0.0
C427 C 1.00605 0.33931 0.81825 0.0
C428 C 0.9804 0.33715 0.8689 0.0
C429 C 1.00938 0.36354 0.88023 0.0
C430 C 0.03632 0.37852 0.85997 0.0
C431 C 0.03437 0.36614 0.82925 0.0
C432 C 0.95118 0.3205 0.88985 0.0
C433 C 0.06748 0.40702 0.87105 0.0
C434 C 1.00431 0.40818 0.95255 0.0
C435 C 1.0139 0.39531 0.97698 0.0
C436 C 1.00324 0.39845 0.92091 0.0
C437 C 1.01163 0.37501 0.91351 0.0
C438 C 1.0216 0.3621 0.938 0.0
C439 C 1.02279 0.37255 0.96947 0.0
C440 C 0.99291 0.41309 0.89541 0.0
C441 C 0.03054 0.33689 0.93099 0.0
H442 H 0.95708 0.30466 0.82973 0.0
H443 H 0.05534 0.37702 0.81414 0.0
H444 H 0.95652 0.31009 0.91067 0.0
H445 H 0.94467 0.33805 0.89902 0.0
H446 H 0.93021 0.30093 0.87713 0.0
H447 H 0.08553 0.41716 0.85175 0.0
H448 H 0.06335 0.4262 0.8804 0.0
H449 H 0.07751 0.39974 0.89074 0.0
H450 H 0.99765 0.42599 0.95812 0.0
H451 H 0.03018 0.36251 0.98824 0.0
H452 H 0.97083 0.39412 0.88369 0.0
H453 H 1.01166 0.42399 0.87687 0.0
H454 H 0.98821 0.43184 0.90498 0.0
H455 H 1.00985 0.31533 0.92022 0.0
H456 H 0.03805 0.32948 0.95264 0.0
H457 H 0.05036 0.34613 0.91352 0.0
C458 C 0.65801 0.60447 0.94606 0.0
C459 C 0.6732 0.62574 0.97157 0.0
C460 C 0.66751 0.61395 0.91465 0.0
C461 C 0.69312 0.64533 0.9086 0.0
C462 C 0.70832 0.66707 0.9342 0.0
C463 C 0.69803 0.65708 0.9654 0.0
C464 C 0.65037 0.59028 0.88796 0.0
C465 C 0.7359 0.70069 0.92868 0.0
C466 C 0.74169 0.66169 0.83308 0.0
C467 C 0.73109 0.67891 0.81522 0.0
C468 C 0.72897 0.64995 0.86322 0.0
C469 C 0.70475 0.65517 0.87561 0.0
C470 C 0.6927 0.67095 0.85699 0.0
C471 C 0.70613 0.68277 0.82706 0.0
C472 C 0.74252 0.63333 0.88241 0.0
C473 C 0.66652 0.67647 0.86917 0.0
H474 H 0.63858 0.5803 0.95062 0.0
H475 H 0.70987 0.6736 0.985 0.0
H476 H 0.64135 0.60083 0.87044 0.0
H477 H 0.66729 0.58494 0.87529 0.0
H478 H 0.6299 0.56733 0.89655 0.0
H479 H 0.74484 0.71479 0.95108 0.0
H480 H 0.75592 0.69958 0.91707 0.0
H481 H 0.72847 0.71368 0.91243 0.0
H482 H 0.76101 0.65863 0.82418 0.0
H483 H 0.69773 0.69596 0.81338 0.0
H484 H 0.72304 0.60954 0.8904 0.0
H485 H 0.75443 0.64781 0.90399 0.0
H486 H 0.76022 0.62982 0.86878 0.0
H487 H 0.64601 0.65365 0.87785 0.0
H488 H 0.65779 0.68644 0.85068 0.0
H489 H 0.67558 0.69353 0.88955 0.0
C490 C 0.48948 0.09588 0.96602 0.0
C491 C 0.465 0.07753 0.98773 0.0
C492 C 0.48245 0.1011 0.93517 0.0
C493 C 0.45015 0.08765 0.92578 0.0
C494 C 0.4253 0.06845 0.94729 0.0
C495 C 0.43303 0.06363 0.97804 0.0
C496 C 0.50958 0.12168 0.91291 0.0
C497 C 0.39054 0.05363 0.93806 0.0
C498 C 0.42789 0.12725 0.86157 0.0
C499 C 0.4216 0.10637 0.8357 0.0
C500 C 0.43819 0.12197 0.89072 0.0
C501 C 0.44225 0.09511 0.89412 0.0
C502 C 0.43739 0.07477 0.8677 0.0
C503 C 0.42719 0.0807 0.83871 0.0
C504 C 0.44346 0.14442 0.91826 0.0
C505 C 0.44162 0.04597 0.87042 0.0
H506 H 0.51428 0.1066 0.97323 0.0
H507 H 0.41399 0.04934 0.99462 0.0
H508 H 0.50681 0.10861 0.89025 0.0
H509 H 0.509 0.14376 0.90716 0.0
H510 H 0.53335 0.12882 0.92322 0.0
H511 H 0.37412 0.03805 0.95697 0.0
H512 H 0.38507 0.07287 0.93303 0.0
H513 H 0.38562 0.03907 0.91604 0.0
H514 H 0.42381 0.14726 0.85937 0.0
H515 H 0.42228 0.06439 0.81885 0.0
H516 H 0.46758 0.15356 0.92861 0.0
H517 H 0.42573 0.13119 0.93719 0.0
H518 H 0.44113 0.16526 0.91118 0.0
H519 H 0.46535 0.05316 0.88077 0.0
H520 H 0.43943 0.03407 0.8471 0.0
H521 H 0.42322 0.02819 0.88666 0.0
C522 C 0.35681 0.04544 0.64105 0.0
C523 C 0.34802 0.06792 0.65017 0.0
C524 C 0.35468 0.03566 0.6092 0.0
C525 C 0.34379 0.04893 0.58594 0.0
C526 C 0.33533 0.07197 0.59495 0.0
C527 C 0.3374 0.08106 0.62696 0.0
C528 C 0.36373 1.01087 0.60048 0.0
C529 C 0.32399 0.08692 0.5708 0.0
C530 C 0.36487 0.0422 0.50041 0.0
C531 C 0.33658 1.0152 0.4896 0.0
C532 C 0.36727 0.05402 0.53146 0.0
C533 C 0.34083 0.03833 0.55224 0.0
C534 C 0.31183 1.01185 0.54111 0.0
C535 C 0.30999 1.0007 0.50986 0.0
C536 C 0.39846 0.08262 0.54235 0.0
C537 C 0.28311 0.99448 0.56258 0.0
H538 H 0.36498 0.03516 0.65886 0.0
H539 H 0.33076 0.09863 0.63376 0.0
H540 H 0.34293 0.98952 0.58959 0.0
H541 H 0.38318 0.02078 0.58258 0.0
H542 H 0.37184 1.00298 0.62135 0.0
H543 H 0.3191 0.10511 0.58157 0.0
H544 H 0.34225 0.09862 0.55193 0.0
H545 H 0.30179 0.06802 0.55918 0.0
H546 H 0.38551 0.0536 0.4849 0.0
H547 H 0.28805 0.97979 0.50177 0.0
H548 H 0.40928 0.07514 0.56111 0.0
H549 H 0.39418 0.10128 0.55286 0.0
H550 H 0.41595 0.09348 0.52266 0.0
H551 H 0.28903 0.98356 0.58255 0.0
H552 H 0.26191 0.97519 0.5499 0.0
H553 H 0.27668 1.01165 0.573 0.0
C554 C 0.99733 0.31395 0.62275 0.0
C555 C 1.01022 0.30423 0.647 0.0
C556 C 1.0128 0.32388 0.59326 0.0
C557 C 0.04144 0.32344 0.58781 0.0
C558 C 0.05418 0.31307 0.61203 0.0
C559 C 0.0386 0.30389 0.64139 0.0
C560 C 0.99896 0.33552 0.56822 0.0
C561 C 0.08454 0.31202 0.60708 0.0
C562 C 0.0732 0.32643 0.50439 0.0
C563 C 0.09871 0.35816 0.50347 0.0
C564 C 0.05372 0.3148 0.53152 0.0
C565 C 0.05945 0.33577 0.55768 0.0
C566 C 0.08422 0.36826 0.55603 0.0
C567 C 0.10385 0.37888 0.52919 0.0
C568 C 1.02778 0.27989 0.53265 0.0
C569 C 0.09057 0.39168 0.58294 0.0
H570 H 0.97541 0.31426 0.62698 0.0
H571 H 0.04853 0.29607 0.65989 0.0
H572 H 1.01614 0.36112 0.56293 0.0
H573 H 0.99505 0.32173 0.54583 0.0
H574 H 0.97591 0.33325 0.57573 0.0
H575 H 0.0901 0.30133 0.62755 0.0
H576 H 0.08246 0.29783 0.58542 0.0
H577 H 0.10497 0.33671 0.60349 0.0
H578 H 0.06917 0.31052 0.48438 0.0
H579 H 0.12315 0.40368 0.52822 0.0
H580 H 1.00451 0.27773 0.53886 0.0
H581 H 0.03342 0.26758 0.55145 0.0
H582 H 1.02517 0.26724 0.50971 0.0
H583 H 0.06807 0.3906 0.59038 0.0
H584 H 0.10822 0.41683 0.57636 0.0
H585 H 0.09993 0.38511 0.60376 0.0
C586 C 0.74504 0.74352 0.50355 0.0
C587 C 0.7298 0.76163 0.50215 0.0
C588 C 0.75327 0.73605 0.53289 0.0
C589 C 0.74598 0.74688 0.56135 0.0
C590 C 0.73162 0.76607 0.55997 0.0
C591 C 0.72383 0.77329 0.53043 0.0
C592 C 0.76889 0.7158 0.5335 0.0
C593 C 0.72354 0.77818 0.58977 0.0
C594 C 0.73467 0.70308 0.639 0.0
C595 C 0.76331 0.72389 0.65489 0.0
C596 C 0.72906 0.70979 0.60812 0.0
C597 C 0.75275 0.73785 0.59275 0.0
C598 C 0.78201 0.75848 0.60835 0.0
C599 C 0.78688 0.75133 0.63925 0.0
C600 C 0.69744 0.68734 0.59227 0.0
C601 C 0.8079 0.78851 0.59268 0.0
H602 H 0.74964 0.73435 0.48181 0.0
H603 H 0.71217 0.78741 0.5296 0.0
H604 H 0.79121 0.72797 0.54775 0.0
H605 H 0.75266 0.69252 0.54505 0.0
H606 H 0.77472 0.71092 0.50932 0.0
H607 H 0.71312 0.79352 0.58454 0.0
H608 H 0.70614 0.75753 0.6042 0.0
H609 H 0.74532 0.79229 0.60446 0.0
H610 H 0.7164 0.6818 0.65088 0.0
H611 H 0.80922 0.76743 0.65121 0.0
H612 H 0.70149 0.67946 0.56876 0.0
H613 H 0.68416 0.70013 0.58813 0.0
H614 H 0.68222 0.66571 0.60673 0.0
H615 H 0.81378 0.78256 0.56903 0.0
H616 H 0.83013 0.8008 0.60712 0.0
H617 H 0.79925 0.80555 0.58886 0.0
C618 C 0.3441 0.42413 0.79051 0.0
C619 C 0.34704 0.4045 0.81298 0.0
C620 C 0.35882 0.42941 0.76069 0.0
C621 C 0.37686 0.41464 0.7531 0.0
C622 C 0.37907 0.39394 0.77525 0.0
C623 C 0.36416 0.38915 0.80497 0.0
C624 C 0.35593 0.45164 0.73773 0.0
C625 C 0.398 0.37764 0.76792 0.0
C626 C 0.40016 0.41037 0.66765 0.0
C627 C 0.43224 0.43526 0.66729 0.0
C628 C 0.38152 0.40374 0.69523 0.0
C629 C 0.39528 0.42256 0.72295 0.0
C630 C 0.4272 0.44855 0.72226 0.0
C631 C 0.44528 0.45455 0.69447 0.0
C632 C 0.34752 0.37589 0.69508 0.0
C633 C 0.44266 0.46939 0.75122 0.0
H634 H 0.3308 0.436 0.79642 0.0
H635 H 0.36643 0.37384 0.82213 0.0
H636 H 0.37979 0.47331 0.73407 0.0
H637 H 0.34748 0.43966 0.71429 0.0
H638 H 0.33921 0.45945 0.74634 0.0
H639 H 0.39566 0.36068 0.78679 0.0
H640 H 0.38996 0.36427 0.74508 0.0
H641 H 0.4237 0.39601 0.76529 0.0
H642 H 0.38996 0.39526 0.64679 0.0
H643 H 0.47 0.47393 0.69433 0.0
H644 H 0.33095 0.38384 0.7037 0.0
H645 H 0.3454 0.35709 0.71152 0.0
H646 H 0.33969 0.365 0.67108 0.0
H647 H 0.42795 0.47946 0.76012 0.0
H648 H 0.4672 0.48957 0.74631 0.0
H649 H 0.44405 0.45464 0.7705 0.0
C650 C 0.67337 0.04365 0.69173 0.0
C651 C 0.65403 0.02072 0.66888 0.0
C652 C 0.68301 0.03475 0.71918 0.0
C653 C 0.67205 1.0019 0.72455 0.0
C654 C 0.65277 0.97859 0.70137 0.0
C655 C 0.6444 0.98839 0.67344 0.0
C656 C 0.70446 0.06054 0.74268 0.0
C657 C 0.64024 0.94329 0.70651 0.0
C658 C 0.7138 0.98096 0.78824 0.0
C659 C 0.69405 0.97583 0.8146 0.0
C660 C 0.70689 0.9893 0.75866 0.0
C661 C 0.67929 0.99201 0.7553 0.0
C662 C 0.65918 0.98663 0.78178 0.0
C663 C 0.66694 0.9789 0.81114 0.0
C664 C 0.72933 0.99562 0.73116 0.0
C665 C 0.62939 0.98905 0.77912 0.0
H666 H 0.6814 0.06881 0.68793 0.0
H667 H 0.62955 0.97072 0.65568 0.0
H668 H 0.6909 0.05827 0.76471 0.0
H669 H 0.725 0.05765 0.74925 0.0
H670 H 0.7139 0.08511 0.73316 0.0
H671 H 0.62653 0.92835 0.68575 0.0
H672 H 0.66032 0.93912 0.71133 0.0
H673 H 0.62441 0.93511 0.72764 0.0
H674 H 0.73481 0.97868 0.79075 0.0
H675 H 0.65139 0.97471 0.83131 0.0
H676 H 0.73914 0.02061 0.72281 0.0
H677 H 0.71615 0.97939 0.71097 0.0
H678 H 0.74959 0.99217 0.73757 0.0
H679 H 0.63602 1.01394 0.77287 0.0
H680 H 0.61541 0.98254 0.80153 0.0
H681 H 0.61381 0.97298 0.75983 0.0
C682 C 0.12079 0.71454 0.80596 0.0
C683 C 0.1005 0.72338 0.82115 0.0
C684 C 0.11456 0.70198 0.775 0.0
C685 C 0.08722 0.69788 0.75882 0.0
C686 C 0.06698 0.70737 0.77368 0.0
C687 C 0.07394 0.72014 0.80467 0.0
C688 C 0.13679 0.69227 0.75993 0.0
C689 C 0.03746 0.70315 0.7572 0.0
C690 C 0.08025 0.6825 0.66959 0.0
C691 C 0.06059 0.64897 0.66826 0.0
C692 C 0.08937 0.69887 0.69893 0.0
C693 C 0.07845 0.68124 0.72745 0.0
C694 C 0.05915 0.64737 0.72618 0.0
C695 C 0.05058 0.63169 0.69667 0.0
C696 C 0.11023 0.73501 0.69944 0.0
C697 C 0.04706 0.62767 0.75604 0.0
H698 H 0.14157 0.71723 0.81836 0.0
H699 H 0.05822 0.72701 0.81618 0.0
H700 H 0.12392 0.66584 0.75623 0.0
H701 H 0.1447 0.7035 0.73628 0.0
H702 H 0.15828 0.69924 0.77473 0.0
H703 H 1.02532 0.71354 0.77116 0.0
H704 H 0.04382 0.71467 0.73357 0.0
H705 H 1.02029 0.67718 0.75323 0.0
H706 H 0.08797 0.69602 0.64775 0.0
H707 H 0.0354 0.60576 0.69593 0.0
H708 H 0.1321 0.7423 0.71368 0.0
H709 H 0.09724 0.74583 0.71098 0.0
H710 H 0.11747 0.74509 0.67524 0.0
H711 H 0.06751 0.63192 0.77123 0.0
H712 H 0.03231 0.6015 0.75093 0.0
H713 H 0.0324 0.63517 0.76994 0.0
C714 C 0.64847 0.73239 0.29027 0.0
C715 C 0.6657 0.72499 0.31192 0.0
C716 C 0.64275 0.72011 0.25919 0.0
C717 C 0.65446 0.69984 0.24948 0.0
C718 C 0.67248 0.69281 0.27094 0.0
C719 C 0.67793 0.70552 0.30194 0.0
C720 C 0.62361 0.72831 0.23696 0.0
C721 C 0.68537 0.67127 0.26135 0.0
C722 C 0.61223 0.63996 0.18254 0.0
C723 C 0.63347 0.65447 0.15718 0.0
C724 C 0.61853 0.65476 0.21255 0.0
C725 C 0.64667 0.68489 0.2173 0.0
C726 C 0.66752 0.70035 0.19149 0.0
C727 C 0.66067 0.68495 0.16171 0.0
C728 C 0.59561 0.63759 0.23945 0.0
C729 C 0.69761 0.73263 0.1956 0.0
H730 H 0.63909 0.74758 0.29768 0.0
H731 H 0.69129 0.69973 0.3185 0.0
H732 H 0.63719 0.73868 0.21474 0.0
H733 H 0.60104 0.70614 0.23032 0.0
H734 H 0.61756 0.74568 0.2477 0.0
H735 H 0.69997 0.66915 0.28039 0.0
H736 H 0.66524 0.64689 0.25546 0.0
H737 H 0.70033 0.68065 0.23973 0.0
H738 H 0.59114 0.61645 0.17928 0.0
H739 H 0.67727 0.69634 0.14229 0.0
H740 H 0.58756 0.65333 0.25032 0.0
H741 H 0.60796 0.63197 0.25824 0.0
H742 H 0.57421 0.61484 0.23156 0.0
H743 H 0.69186 0.7502 0.20629 0.0
H744 H 0.71024 0.74234 0.17276 0.0
H745 H 0.71415 0.7304 0.21211 0.0
C746 C 0.36824 1.01029 0.16783 0.0
C747 C 0.39318 1.00601 0.15669 0.0
C748 C 0.35481 0.99947 0.19796 0.0
C749 C 0.36675 0.9842 0.21748 0.0
C750 C 0.39106 0.97872 0.2059 0.0
C751 C 0.40387 0.98954 0.17558 0.0
C752 C 0.32859 1.00534 0.20932 0.0
C753 C 0.40444 0.96253 0.22604 0.0
C754 C 0.35853 0.987 0.30705 0.0
C755 C 0.3335 0.95576 0.31321 0.0
C756 C 0.36935 0.99671 0.27591 0.0
C757 C 0.35455 0.97476 0.25038 0.0
C758 C 0.32874 0.94349 0.2564 0.0
C759 C 0.31864 0.93433 0.28774 0.0
C760 C 0.39708 0.03024 0.27039 0.0
C761 C 0.31207 0.91955 0.22978 0.0
H762 H 0.35978 0.02294 0.15338 0.0
H763 H 0.42316 0.98617 0.16723 0.0
H764 H 0.30777 0.98261 0.21772 0.0
H765 H 0.33733 0.02237 0.22973 0.0
H766 H 0.32042 1.01546 0.19044 0.0
H767 H 0.42248 0.959 0.21311 0.0
H768 H 0.41586 0.97729 0.2476 0.0
H769 H 0.38489 0.93879 0.23405 0.0
H770 H 0.37014 1.00365 0.32662 0.0
H771 H 0.29908 0.91021 0.29227 0.0
H772 H 0.39006 0.04303 0.25344 0.0
H773 H 0.41734 0.02896 0.25961 0.0
H774 H 0.40551 0.04461 0.29269 0.0
H775 H 0.30343 0.92993 0.21169 0.0
H776 H 0.29142 0.89671 0.23831 0.0
H777 H 0.3292 0.91405 0.21782 0.0
C778 C 0.06632 0.36924 0.3067 0.0
C779 C 0.09571 0.38837 0.32207 0.0
C780 C 0.06126 0.37637 0.27575 0.0
C781 C 0.08625 0.40313 0.25988 0.0
C782 C 0.11621 0.42194 0.27495 0.0
C783 C 0.12054 0.41441 0.30585 0.0
C784 C 1.02887 0.3559 0.26046 0.0
C785 C 0.14352 0.45048 0.2587 0.0
C786 C 0.08023 0.40942 0.17057 0.0
C787 C 0.06817 0.43035 0.16873 0.0
C788 C 0.08649 0.40047 0.20011 0.0
C789 C 0.08055 0.41278 0.22832 0.0
C790 C 0.06927 0.43462 0.22652 0.0
C791 C 0.06331 0.44319 0.19677 0.0
C792 C 0.09856 0.37715 0.20116 0.0
C793 C 0.06274 0.44836 0.25608 0.0
H794 H 0.04706 0.34908 0.31905 0.0
H795 H 0.14348 0.42917 0.31737 0.0
H796 H 1.01661 0.36999 0.25872 0.0
H797 H 0.03151 0.34892 0.23598 0.0
H798 H 1.01337 0.33377 0.27416 0.0
H799 H 0.16589 0.46149 0.27295 0.0
H800 H 0.14832 0.44317 0.23524 0.0
H801 H 0.13693 0.46905 0.25442 0.0
H802 H 0.08374 0.39914 0.14902 0.0
H803 H 0.05398 0.45937 0.19554 0.0
H804 H 0.08051 0.35464 0.21282 0.0
H805 H 0.12079 0.38738 0.21552 0.0
H806 H 0.10353 0.37109 0.17711 0.0
H807 H 0.04427 0.42862 0.27068 0.0
H808 H 0.05434 0.46534 0.25055 0.0
H809 H 0.08474 0.46116 0.27073 0.0
C810 C 0.18402 0.88301 0.40317 0.0
C811 C 0.21186 0.88325 0.3933 0.0
C812 C 0.15461 0.86403 0.38746 0.0
C813 C 0.153 0.84535 0.36062 0.0
C814 C 0.18102 0.84536 0.35064 0.0
C815 C 0.20997 0.86398 0.3673 0.0
C816 C 0.12527 0.86412 0.39949 0.0
C817 C 0.18057 0.82619 0.32192 0.0
C818 C 0.07425 0.77315 0.33335 0.0
C819 C 0.06564 0.78559 0.30773 0.0
C820 C 0.10183 0.79261 0.35147 0.0
C821 C 0.12195 0.82527 0.34334 0.0
C822 C 0.11289 0.83823 0.318 0.0
C823 C 0.0846 0.81829 0.3007 0.0
C824 C 0.10987 0.7779 0.37878 0.0
C825 C 0.13387 0.87277 0.3082 0.0
H826 H 0.18526 0.89785 0.42323 0.0
H827 H 0.23142 0.86436 0.3592 0.0
H828 H 0.11602 0.87346 0.38095 0.0
H829 H 0.10603 0.83922 0.40474 0.0
H830 H 0.13023 0.87906 0.42129 0.0
H831 H 0.20449 0.82936 0.31671 0.0
H832 H 0.16341 0.80027 0.32565 0.0
H833 H 0.17231 0.83359 0.30083 0.0
H834 H 0.05958 0.74784 0.33889 0.0
H835 H 0.07828 0.82785 0.28063 0.0
H836 H 0.11327 0.79205 0.40083 0.0
H837 H 0.1327 0.77854 0.37394 0.0
H838 H 0.09095 0.75259 0.38299 0.0
H839 H 0.13869 0.88907 0.32881 0.0
H840 H 0.12292 0.87959 0.28895 0.0
H841 H 0.1573 0.87663 0.29982 0.0
C842 C 0.27377 0.28663 0.3174 0.0
C843 C 0.28489 0.30064 0.28758 0.0
C844 C 0.25572 0.29565 0.33682 0.0
C845 C 0.24819 0.3188 0.32594 0.0
C846 C 0.25873 0.3323 0.2955 0.0
C847 C 0.27708 0.32328 0.27692 0.0
C848 C 0.24529 0.28094 0.36923 0.0
C849 C 0.25077 0.3565 0.28253 0.0
C850 C 0.17628 0.32201 0.35795 0.0
C851 C 0.19056 0.35001 0.3769 0.0
C852 C 0.19464 0.31109 0.34218 0.0
C853 C 0.22832 0.32826 0.34557 0.0
C854 C 0.24292 0.35589 0.36559 0.0
C855 C 0.22391 0.36657 0.38085 0.0
C856 C 0.17798 0.28182 0.32083 0.0
C857 C 0.27872 0.37467 0.3702 0.0
H858 H 0.28015 0.26953 0.32602 0.0
H859 H 0.28557 0.33424 0.25391 0.0
H860 H 0.25547 0.30011 0.3877 0.0
H861 H 0.21886 0.2687 0.37128 0.0
H862 H 0.25297 0.26329 0.37424 0.0
H863 H 0.26044 0.36446 0.25826 0.0
H864 H 0.22444 0.34598 0.28179 0.0
H865 H 0.26066 0.37792 0.29836 0.0
H866 H 0.15056 0.30888 0.35463 0.0
H867 H 0.2352 0.38809 0.39552 0.0
H868 H 0.18502 0.26402 0.32723 0.0
H869 H 0.1854 0.28886 0.29587 0.0
H870 H 0.1515 0.27003 0.32218 0.0
H871 H 0.2875 0.35833 0.37701 0.0
H872 H 0.28614 0.39372 0.38868 0.0
H873 H 0.29055 0.38612 0.34754 0.0
C874 C 0.79161 0.98424 0.30018 0.0
C875 C 0.78051 1.00413 0.3118 0.0
C876 C 0.78342 0.95515 0.31548 0.0
C877 C 0.76433 0.94624 0.34337 0.0
C878 C 0.75461 0.96724 0.35598 0.0
C879 C 0.76245 0.99561 0.33986 0.0
C880 C 0.79391 0.93326 0.30099 0.0
C881 C 0.73502 0.95932 0.38603 0.0
C882 C 0.71316 0.85786 0.36615 0.0
C883 C 0.73244 0.85467 0.38884 0.0
C884 C 0.72348 0.88734 0.35082 0.0
C885 C 0.7535 0.91453 0.35886 0.0
C886 C 0.77264 0.91159 0.38236 0.0
C887 C 0.76206 0.88168 0.39675 0.0
C888 C 0.70248 0.88924 0.32562 0.0
C889 C 0.80432 0.94006 0.39233 0.0
H890 H 0.80515 0.99051 0.27826 0.0
H891 H 0.75385 1.01099 0.34895 0.0
H892 H 0.80679 0.92725 0.31882 0.0
H893 H 0.77257 0.91036 0.2934 0.0
H894 H 0.80974 0.94419 0.28011 0.0
H895 H 0.73161 0.97938 0.39409 0.0
H896 H 0.71113 0.93774 0.38202 0.0
H897 H 0.74677 0.95358 0.40534 0.0
H898 H 0.69046 0.83702 0.35958 0.0
H899 H 0.7771 0.87942 0.41428 0.0
H900 H 0.71591 0.89752 0.30299 0.0
H901 H 0.69559 0.90711 0.33271 0.0
H902 H 0.68036 0.86575 0.32135 0.0
H903 H 0.82071 0.94925 0.37167 0.0
H904 H 0.81607 0.93399 0.41141 0.0
H905 H 0.80077 0.95986 0.40091 0.0
C906 C 0.88377 0.18928 0.19742 0.0
C907 C 0.86948 0.19062 0.22598 0.0
C908 C 0.90235 0.21714 0.17935 0.0
C909 C 0.90737 0.24725 0.19035 0.0
C910 C 0.89374 0.24882 0.21963 0.0
C911 C 0.87472 0.22052 0.23685 0.0
C912 C 0.91625 0.21429 0.1482 0.0
C913 C 0.89914 0.28043 0.23273 0.0
C914 C 0.98026 0.32171 0.15755 0.0
C915 C 0.96675 0.3322 0.13459 0.0
C916 C 0.9612 0.29467 0.17625 0.0
C917 C 0.92764 0.27717 0.17169 0.0
C918 C 0.91373 0.28804 0.14897 0.0
C919 C 0.93344 0.31568 0.1309 0.0
C920 C 0.9771 0.2847 0.20074 0.0
C921 C 0.87812 0.26985 0.14306 0.0
H922 H 0.87954 0.16626 0.18863 0.0
H923 H 0.8638 0.2218 0.2589 0.0
H924 H 0.90787 0.2235 0.12869 0.0
H925 H 0.94274 0.22923 0.14894 0.0
H926 H 0.90951 0.1891 0.14253 0.0
H927 H 0.88737 0.27771 0.25609 0.0
H928 H 0.92516 0.29761 0.23547 0.0
H929 H 0.88974 0.29119 0.2159 0.0
H930 H 1.00601 0.33466 0.16079 0.0
H931 H 0.92295 0.32355 0.11302 0.0
H932 H 0.97038 0.25927 0.19693 0.0
H933 H 0.96874 0.28655 0.22479 0.0
H934 H 1.00361 0.29981 0.2001 0.0
H935 H 0.8705 0.2451 0.13472 0.0
H936 H 0.8709 0.28165 0.12507 0.0
H937 H 0.86509 0.26769 0.16545 0.0
C938 C 0.73279 0.62732 0.17404 0.0
C939 C 0.72843 0.62203 0.1411 0.0
C940 C 0.76292 0.63885 0.18828 0.0
C941 C 0.78967 0.6454 0.16923 0.0
C942 C 0.78542 0.6397 0.13602 0.0
C943 C 0.75491 0.62804 0.12238 0.0
C944 C 0.76614 0.64424 0.22376 0.0
C945 C 0.81324 0.64632 0.11481 0.0
C946 C 0.87375 0.70117 0.20273 0.0
C947 C 0.88272 0.67912 0.21252 0.0
C948 C 0.84363 0.69062 0.18855 0.0
C949 C 0.82181 0.65723 0.18425 0.0
C950 C 0.83059 0.63495 0.19463 0.0
C951 C 0.8608 0.64612 0.20846 0.0
C952 C 0.83528 0.71521 0.17778 0.0
C953 C 0.8081 0.59919 0.19095 0.0
H954 H 0.71263 0.6229 0.18884 0.0
H955 H 0.75198 0.62434 0.09692 0.0
H956 H 0.77499 0.62929 0.23451 0.0
H957 H 0.78399 0.66971 0.22919 0.0
H958 H 0.74311 0.63827 0.23522 0.0
H959 H 0.80613 0.6409 0.08947 0.0
H960 H 0.83227 0.67193 0.11706 0.0
H961 H 0.82375 0.63167 0.12232 0.0
H962 H 0.8905 0.72668 0.20557 0.0
H963 H 0.8673 0.62877 0.21601 0.0
H964 H 0.81311 0.71113 0.18975 0.0
H965 H 0.83047 0.71256 0.15188 0.0
H966 H 0.8547 0.74021 0.18287 0.0
H967 H 0.78524 0.59199 0.20337 0.0
H968 H 0.81834 0.58497 0.20056 0.0
H969 H 0.80236 0.59287 0.1655 0.0
C970 C 0.43461 0.23766 0.20891 0.0
C971 C 0.40201 0.22472 0.21604 0.0
C972 C 0.4458 0.21943 0.1932 0.0
C973 C 0.42397 0.18721 0.18433 0.0
C974 C 0.39121 0.17348 0.19263 0.0
C975 C 0.3806 0.19238 0.20834 0.0
C976 C 0.48088 0.23518 0.18489 0.0
C977 C 0.36715 0.13915 0.18384 0.0
C978 C 0.44474 0.15391 0.11147 0.0
C979 C 0.45609 0.13502 0.12484 0.0
C980 C 0.4344 0.17096 0.13054 0.0
C981 C 0.43508 0.16902 0.16403 0.0
C982 C 0.44699 0.15042 0.17777 0.0
C983 C 0.45749 0.13376 0.15804 0.0
C984 C 0.42234 0.19079 0.11476 0.0
C985 C 0.44798 0.14755 0.21332 0.0
H986 H 0.45151 0.26253 0.21487 0.0
H987 H 0.35541 0.18209 0.21374 0.0
H988 H 0.49083 0.22024 0.19309 0.0
H989 H 0.48378 0.2372 0.15873 0.0
H990 H 0.49516 0.25959 0.19553 0.0
H991 H 0.34328 0.13109 0.19448 0.0
H992 H 0.36449 0.13677 0.15765 0.0
H993 H 0.37565 0.12287 0.19169 0.0
H994 H 0.4435 0.15502 0.08587 0.0
H995 H 0.46575 0.11888 0.16863 0.0
H996 H 0.43662 0.21619 0.12281 0.0
H997 H 0.39714 0.18189 0.12172 0.0
H998 H 0.42361 0.19004 0.08846 0.0
H999 H 0.46232 0.17173 0.22433 0.0
H1000 H 0.45838 0.13261 0.22036 0.0
H1001 H 0.42342 0.13665 0.22313 0.0
C1002 C 0.75637 0.14815 0.62498 0.0
C1003 C 0.7388 0.11476 0.62873 0.0
C1004 C 0.78438 0.16731 0.64299 0.0
C1005 C 0.79445 0.15277 0.66584 0.0
C1006 C 0.77572 0.11923 0.67068 0.0
C1007 C 0.74855 0.10068 0.65178 0.0
C1008 C 0.80386 0.2029 0.63676 0.0
C1009 C 0.78469 0.10272 0.69542 0.0
C1010 C 0.8824 0.19262 0.69029 0.0
C1011 C 0.88289 0.2081 0.71883 0.0
C1012 C 0.85395 0.17505 0.67261 0.0
C1013 C 0.82504 0.17223 0.68399 0.0
C1014 C 0.82528 0.18716 0.71319 0.0
C1015 C 0.85419 0.20517 0.73001 0.0
C1016 C 0.85492 0.15982 0.64147 0.0
C1017 C 0.79496 0.18409 0.7267 0.0
H1018 H 0.74905 0.15905 0.60702 0.0
H1019 H 0.73492 0.07486 0.65492 0.0
H1020 H 0.80737 0.21666 0.65909 0.0
H1021 H 0.82793 0.20913 0.62796 0.0
H1022 H 0.79239 0.21072 0.61898 0.0
H1023 H 0.76671 0.07672 0.69725 0.0
H1024 H 0.80821 0.10532 0.68952 0.0
H1025 H 0.78709 0.11419 0.71898 0.0
H1026 H 0.90449 0.19508 0.68123 0.0
H1027 H 0.85432 0.21704 0.75204 0.0
H1028 H 0.84598 0.16862 0.62209 0.0
H1029 H 0.83893 0.13338 0.64257 0.0
H1030 H 0.87943 0.16512 0.63534 0.0
H1031 H 0.78494 0.19436 0.71 0.0
H1032 H 0.79898 0.19652 0.75001 0.0
H1033 H 0.77666 0.15835 0.72969 0.0
C1034 C 0.94099 0.62385 0.6455 0.0
C1035 C 0.95301 0.63954 0.61653 0.0
C1036 C 0.92247 0.63185 0.66539 0.0
C1037 C 0.91538 0.6557 0.65584 0.0
C1038 C 0.92689 0.67098 0.62626 0.0
C1039 C 0.94568 0.66292 0.60719 0.0
C1040 C 0.911 0.61525 0.69688 0.0
C1041 C 0.91945 0.69602 0.6147 0.0
C1042 C 0.84256 0.65717 0.68784 0.0
C1043 C 0.85628 0.684 0.70838 0.0
C1044 C 0.86138 0.64715 0.67151 0.0
C1045 C 0.89494 0.66404 0.67593 0.0
C1046 C 0.90893 0.69043 0.69753 0.0
C1047 C 0.88949 0.70024 0.71334 0.0
C1048 C 0.84537 0.61922 0.64847 0.0
C1049 C 0.94457 0.70883 0.70328 0.0
H1050 H 0.94699 0.60615 0.65312 0.0
H1051 H 0.95488 0.67518 0.58485 0.0
H1052 H 0.92049 0.63331 0.71641 0.0
H1053 H 0.88452 0.60283 0.6981 0.0
H1054 H 0.9186 0.59738 0.70095 0.0
H1055 H 0.92993 0.70543 0.59099 0.0
H1056 H 0.89316 0.68563 0.61328 0.0
H1057 H 0.92885 0.71645 0.63178 0.0
H1058 H 0.81696 0.64431 0.68373 0.0
H1059 H 0.90034 0.72086 0.72922 0.0
H1060 H 0.85216 0.601 0.65383 0.0
H1061 H 0.8536 0.62775 0.62399 0.0
H1062 H 0.81886 0.60742 0.64908 0.0
H1063 H 0.95311 0.69205 0.70909 0.0
H1064 H 0.95143 0.72671 0.72287 0.0
H1065 H 0.95712 0.72166 0.68137 0.0
C1066 C 0.39546 0.20321 0.72143 0.0
C1067 C 0.41199 0.18678 0.71561 0.0
C1068 C 0.40507 0.23303 0.70699 0.0
C1069 C 0.43154 0.24653 0.68589 0.0
C1070 C 0.44875 0.23041 0.68065 0.0
C1071 C 0.43893 0.20099 0.69565 0.0
C1072 C 0.3863 0.24961 0.71355 0.0
C1073 C 0.47676 0.24349 0.65803 0.0
C1074 C 0.43188 0.29923 0.61912 0.0
C1075 C 0.45476 0.33028 0.62943 0.0
C1076 C 0.42422 0.27202 0.63726 0.0
C1077 C 0.43945 0.27573 0.66687 0.0
C1078 C 0.46278 0.307 0.67743 0.0
C1079 C 0.47037 0.33392 0.65846 0.0
C1080 C 0.39973 0.23922 0.62463 0.0
C1081 C 0.47934 0.31202 0.70897 0.0
H1082 H 0.37476 0.19258 0.7369 0.0
H1083 H 0.452 0.18866 0.69089 0.0
H1084 H 0.40271 0.27516 0.72015 0.0
H1085 H 0.37338 0.24932 0.69176 0.0
H1086 H 0.36856 0.23787 0.73289 0.0
H1087 H 0.48895 0.22923 0.65814 0.0
H1088 H 0.46832 0.24332 0.63355 0.0
H1089 H 0.4945 0.26878 0.66422 0.0
H1090 H 0.41974 0.29613 0.59668 0.0
H1091 H 0.48778 0.35783 0.66677 0.0
H1092 H 0.3794 0.22735 0.64142 0.0
H1093 H 0.41053 0.22378 0.62248 0.0
H1094 H 0.39025 0.24041 0.60104 0.0
H1095 H 0.46132 0.30244 0.72829 0.0
H1096 H 0.49665 0.33778 0.71398 0.0
H1097 H 0.49228 0.29854 0.70946 0.0
C1098 C 0.28654 0.99997 0.82369 0.0
C1099 C 0.29236 0.9958 0.79185 0.0
C1100 C 0.26854 0.97325 0.84347 0.0
C1101 C 0.25559 0.94164 0.83098 0.0
C1102 C 0.26072 0.93744 0.7986 0.0
C1103 C 0.2792 0.96446 0.77962 0.0
C1104 C 0.264 0.97882 0.87791 0.0
C1105 C 0.24686 0.90432 0.78398 0.0
C1106 C 0.23055 0.86767 0.88239 0.0
C1107 C 0.19717 0.85383 0.88328 0.0
C1108 C 0.25007 0.89703 0.86671 0.0
C1109 C 0.2359 0.91275 0.8512 0.0
C1110 C 0.20234 0.89933 0.85287 0.0
C1111 C 0.18353 0.8703 0.86896 0.0
C1112 C 0.28579 0.91072 0.8659 0.0
C1113 C 0.18606 0.91489 0.83644 0.0
H1114 H 0.29703 0.02408 0.83346 0.0
H1115 H 0.28358 0.96101 0.75504 0.0
H1116 H 0.23813 0.96702 0.88355 0.0
H1117 H 0.27435 0.9678 0.89323 0.0
H1118 H 0.27546 1.00478 0.88401 0.0
H1119 H 0.25252 0.90515 0.75831 0.0
H1120 H 0.25634 0.8907 0.79636 0.0
H1121 H 0.22047 0.89078 0.78687 0.0
H1122 H 0.24138 0.85529 0.89343 0.0
H1123 H 0.1578 0.86002 0.86945 0.0
H1124 H 0.29844 0.93639 0.87326 0.0
H1125 H 0.29341 0.90959 0.84129 0.0
H1126 H 0.29343 0.89747 0.88159 0.0
H1127 H 0.19709 0.94045 0.84381 0.0
H1128 H 0.16001 0.90257 0.84161 0.0
H1129 H 0.18929 0.91442 0.81039 0.0
C1130 C 0.10777 0.29415 0.77181 0.0
C1131 C 0.07691 0.28207 0.78433 0.0
C1132 C 0.13455 0.30451 0.79163 0.0
C1133 C 0.13067 0.30311 0.82502 0.0
C1134 C 0.09951 0.29049 0.8379 0.0
C1135 C 0.07298 0.27997 0.81743 0.0
C1136 C 0.16715 0.31735 0.77673 0.0
C1137 C 0.09428 0.28873 0.87332 0.0
C1138 C 0.19837 0.30366 0.8711 0.0
C1139 C 0.21794 0.33631 0.87921 0.0
C1140 C 0.16937 0.29239 0.85471 0.0
C1141 C 0.15931 0.31418 0.84611 0.0
C1142 C 0.17819 0.34694 0.85542 0.0
C1143 C 0.20728 0.35764 0.87182 0.0
C1144 C 0.15018 0.25731 0.84534 0.0
C1145 C 0.16827 0.37097 0.84697 0.0
H1146 H 0.11111 0.29594 0.7463 0.0
H1147 H 0.04935 0.27116 0.82737 0.0
H1148 H 0.18329 0.34256 0.78454 0.0
H1149 H 0.17797 0.3031 0.78468 0.0
H1150 H 0.16612 0.31662 0.75039 0.0
H1151 H 0.0686 0.2779 0.87964 0.0
H1152 H 0.10367 0.27432 0.88424 0.0
H1153 H 0.1077 0.31321 0.88389 0.0
H1154 H 0.20612 0.28681 0.87682 0.0
H1155 H 0.22211 0.38286 0.87795 0.0
H1156 H 0.15027 0.25493 0.81913 0.0
H1157 H 0.1249 0.24689 0.85285 0.0
H1158 H 0.15989 0.243 0.8559 0.0
H1159 H 0.16959 0.37423 0.82087 0.0
H1160 H 0.18375 0.39475 0.85845 0.0
H1161 H 0.14309 0.36195 0.85412 0.0
C1162 C 0.78938 0.83272 0.77987 0.0
C1163 C 0.796 0.80965 0.79181 0.0
C1164 C 0.7779 0.84832 0.79962 0.0
C1165 C 0.77236 0.84046 0.83223 0.0
C1166 C 0.77941 0.81748 0.84459 0.0
C1167 C 0.79135 0.80253 0.8243 0.0
C1168 C 0.77125 0.87297 0.78541 0.0
C1169 C 0.77357 0.80811 0.87908 0.0
C1170 C 0.76931 0.90339 0.88506 0.0
C1171 C 0.73631 0.89216 0.88679 0.0
C1172 C 0.78122 0.88624 0.86846 0.0
C1173 C 0.75972 0.85684 0.85319 0.0
C1174 C 0.7263 0.84457 0.85598 0.0
C1175 C 0.71499 0.86239 0.87265 0.0
C1176 C 0.81698 0.90037 0.86611 0.0
C1177 C 0.7025 0.81317 0.84036 0.0
H1178 H 0.79279 0.83831 0.7548 0.0
H1179 H 0.79584 0.78434 0.83365 0.0
H1180 H 0.74555 0.86515 0.78822 0.0
H1181 H 0.7852 0.89628 0.79815 0.0
H1182 H 0.77738 0.87684 0.75979 0.0
H1183 H 0.78056 0.79014 0.88514 0.0
H1184 H 0.7872 0.82965 0.89443 0.0
H1185 H 0.74784 0.79787 0.88472 0.0
H1186 H 0.78611 0.92625 0.89596 0.0
H1187 H 0.6895 0.85341 0.87383 0.0
H1188 H 0.82469 0.9068 0.84111 0.0
H1189 H 0.82358 0.88243 0.8733 0.0
H1190 H 0.83044 0.92224 0.88115 0.0
H1191 H 0.70464 0.81572 0.81419 0.0
H1192 H 0.67745 0.8054 0.84716 0.0
H1193 H 0.70766 0.79402 0.84682 0.0
C1194 C 0.51055 0.53243 0.52995 0.0
C1195 C 0.52502 0.51865 0.54766 0.0
C1196 C 0.52882 0.56119 0.5133 0.0
C1197 C 0.56262 0.5771 0.5145 0.0
C1198 C 0.57749 0.56412 0.53339 0.0
C1199 C 0.55854 0.53495 0.54958 0.0
C1200 C 0.51185 0.5738 0.49327 0.0
C1201 C 0.61345 0.58056 0.5357 0.0
C1202 C 0.60815 0.62749 0.44304 0.0
C1203 C 0.6179 0.65887 0.45338 0.0
C1204 C 0.59019 0.60088 0.46264 0.0
C1205 C 0.5821 0.60559 0.49377 0.0
C1206 C 0.59167 0.63722 0.50436 0.0
C1207 C 0.60922 0.66348 0.48394 0.0
C1208 C 0.58001 0.56765 0.45002 0.0
C1209 C 0.58393 0.64336 0.53748 0.0
H1210 H 0.4847 0.52023 0.52825 0.0
H1211 H 0.56999 0.52466 0.56326 0.0
H1212 H 0.52043 0.59931 0.49933 0.0
H1213 H 0.51737 0.57281 0.46784 0.0
H1214 H 0.48546 0.55976 0.49638 0.0
H1215 H 0.6213 0.56925 0.55363 0.0
H1216 H 0.62349 0.57948 0.51232 0.0
H1217 H 0.6237 0.60632 0.54199 0.0
H1218 H 0.61479 0.62372 0.41947 0.0
H1219 H 0.61715 0.68769 0.4923 0.0
H1220 H 0.55357 0.55231 0.45096 0.0
H1221 H 0.5901 0.5562 0.46507 0.0
H1222 H 0.58791 0.56802 0.42516 0.0
H1223 H 0.55768 0.62975 0.54131 0.0
H1224 H 0.59293 0.66926 0.54212 0.0
H1225 H 0.59472 0.63469 0.55511 0.0
C1226 C 0.5331 0.97812 0.5289 0.0
C1227 C 0.5515 1.00935 0.54156 0.0
C1228 C 0.50424 0.96828 0.51274 0.0
C1229 C 0.49304 0.99004 0.50911 0.0
C1230 C 0.51081 0.02125 0.52283 0.0
C1231 C 0.53986 0.03058 0.53881 0.0
C1232 C 0.48635 0.93487 0.49847 0.0
C1233 C 0.49961 0.04513 0.51978 0.0
C1234 C 0.44045 0.97748 0.43702 0.0
C1235 C 0.40952 0.96186 0.45 0.0
C1236 C 0.46764 0.98679 0.45598 0.0
C1237 C 0.46408 0.98073 0.489 0.0
C1238 C 0.4329 0.96476 0.5023 0.0
C1239 C 0.406 0.95535 0.48265 0.0
C1240 C 0.50027 1.00328 0.44059 0.0
C1241 C 0.42799 0.95801 0.53739 0.0
H1242 H 0.54163 0.96133 0.53091 0.0
H1243 H 0.55377 0.05471 0.54848 0.0
H1244 H 0.46106 0.92221 0.50643 0.0
H1245 H 0.48622 0.93643 0.47222 0.0
H1246 H 0.49718 0.92019 0.50493 0.0
H1247 H 0.51449 0.06734 0.53397 0.0
H1248 H 0.50058 0.05185 0.49453 0.0
H1249 H 0.47435 0.0342 0.52758 0.0
H1250 H 0.4435 0.9827 0.41187 0.0
H1251 H 0.38228 0.94374 0.49303 0.0
H1252 H 0.51222 0.98915 0.44458 0.0
H1253 H 0.51555 0.02732 0.45157 0.0
H1254 H 0.49901 1.0063 0.41463 0.0
H1255 H 0.43802 0.94281 0.54449 0.0
H1256 H 0.40231 0.94566 0.54415 0.0
H1257 H 0.44101 0.98086 0.55105 0.0
C1258 C 0.13222 0.49365 0.46424 0.0
C1259 C 0.11773 0.46076 0.47048 0.0
C1260 C 0.12326 0.51318 0.48135 0.0
C1261 C 0.09991 0.4996 0.50577 0.0
C1262 C 0.08668 0.46672 0.51322 0.0
C1263 C 0.09532 0.44768 0.49516 0.0
C1264 C 0.13761 0.54797 0.47229 0.0
C1265 C 0.06259 0.45131 0.53963 0.0
C1266 C 0.09303 0.5561 0.56521 0.0
C1267 C 0.066 0.55659 0.55408 0.0
C1268 C 0.10405 0.53738 0.55007 0.0
C1269 C 0.08819 0.51922 0.52258 0.0
C1270 C 0.06071 0.51942 0.51137 0.0
C1271 C 0.04975 0.53778 0.52744 0.0
C1272 C 0.13281 0.53718 0.56342 0.0
C1273 C 0.04326 0.50076 0.48195 0.0
H1274 H 0.14918 0.50369 0.44487 0.0
H1275 H 0.084 0.42219 0.49997 0.0
H1276 H 0.11852 0.55206 0.46318 0.0
H1277 H 0.14822 0.56374 0.49341 0.0
H1278 H 0.15638 0.55526 0.4538 0.0
H1279 H 0.05682 0.4263 0.54426 0.0
H1280 H 0.07182 0.4656 0.56185 0.0
H1281 H 0.04014 0.45082 0.53337 0.0
H1282 H 0.10572 0.57053 0.58581 0.0
H1283 H 1.02911 0.53832 0.51843 0.0
H1284 H 0.15247 0.547 0.54576 0.0
H1285 H 0.12667 0.51215 0.56835 0.0
H1286 H 0.14171 0.55158 0.58567 0.0
H1287 H 0.06001 0.50857 0.46153 0.0
H1288 H 1.02279 0.50399 0.47585 0.0
H1289 H 0.03414 0.47478 0.48539 0.0
C1290 C 0.40864 0.47078 0.98012 0.0
C1291 C 0.41121 0.45752 0.95126 0.0
C1292 C 0.43606 0.49084 -0.00144 0.0
C1293 C 0.46679 0.49822 0.98762 0.0
C1294 C 0.46943 0.48545 0.95812 0.0
C1295 C 0.44173 0.46516 0.94054 0.0
C1296 C 0.43213 0.50369 0.02999 0.0
C1297 C 0.50161 0.49313 0.94508 0.0
C1298 C 0.54212 0.57385 0.01566 0.0
C1299 C 0.55624 0.56163 0.03603 0.0
C1300 C 0.51271 0.55365 0.00058 0.0
C1301 C 0.49646 0.52018 0.00616 0.0
C1302 C 0.51 0.5077 0.02749 0.0
C1303 C 0.53983 0.52851 0.04199 0.0
C1304 C 0.49963 0.56807 0.9777 0.0
C1305 C 0.4933 0.47222 0.03441 0.0
H1306 H 0.38515 0.46467 0.98879 0.0
H1307 H 0.44399 0.45509 0.91824 0.0
H1308 H 0.44191 0.4957 0.04932 0.0
H1309 H 0.44593 0.53034 0.03003 0.0
H1310 H 0.40669 0.49557 0.03532 0.0
H1311 H 0.49963 0.48158 0.92161 0.0
H1312 H 0.51728 0.51951 0.94255 0.0
H1313 H 0.51359 0.48497 0.96182 0.0
H1314 H 0.55447 0.59936 0.01073 0.0
H1315 H 0.55039 0.5188 0.05775 0.0
H1316 H 0.47473 0.56104 0.98416 0.0
H1317 H 0.49895 0.55866 0.9534 0.0
H1318 H 0.51426 0.59472 0.97719 0.0
H1319 H 0.46812 0.46336 0.04148 0.0
H1320 H 0.50537 0.46663 0.05355 0.0
H1321 H 0.49273 0.45881 0.01266 0.0
C1322 C 0.61086 0.99006 0.94928 0.0
C1323 C 0.61761 0.96618 0.9583 0.0
C1324 C 0.5913 0.99749 0.96783 0.0
C1325 C 0.57834 0.98101 0.9966 0.0
C1326 C 0.58477 0.95661 0.00581 0.0
C1327 C 0.60413 0.94928 0.9864 0.0
C1328 C 0.58461 0.02315 0.9566 0.0
C1329 C 0.57171 0.9387 0.03644 0.0
C1330 C 0.55055 0.02406 0.05386 0.0
C1331 C 0.51763 1.0084 0.04738 0.0
C1332 C 0.57043 1.01443 0.03868 0.0
C1333 C 0.55719 0.98883 0.01617 0.0
C1334 C 0.52388 0.97249 0.0102 0.0
C1335 C 0.5046 0.9823 0.02594 0.0
C1336 C 0.60576 0.03226 0.04604 0.0
C1337 C 0.5087 0.94544 0.98611 0.0
H1338 H 0.62111 1.00322 0.92756 0.0
H1339 H 0.60959 0.93112 0.99377 0.0
H1340 H 0.55843 1.01301 0.95409 0.0
H1341 H 0.59336 0.04291 0.97441 0.0
H1342 H 0.59617 0.03345 0.93347 0.0
H1343 H 0.57892 0.92051 0.04034 0.0
H1344 H 0.58035 0.95592 0.0567 0.0
H1345 H 0.5452 0.92643 0.03643 0.0
H1346 H 0.56087 0.04412 0.07045 0.0
H1347 H 0.47923 0.9699 0.02065 0.0
H1348 H 0.61938 0.04594 0.0249 0.0
H1349 H 0.61379 1.01503 0.05169 0.0
H1350 H 0.61186 0.04932 0.06627 0.0
H1351 H 0.51799 0.95487 0.9621 0.0
H1352 H 0.48221 0.93382 0.98567 0.0
H1353 H 0.51508 0.92689 0.99127 0.0
C1354 C 0.13606 0.66373 0.98524 0.0
C1355 C 0.12201 0.66102 0.95548 0.0
C1356 C 0.12706 0.63629 0.0039 0.0
C1357 C 0.10387 0.60541 0.99228 0.0
C1358 C 0.09029 0.60263 0.9619 0.0
C1359 C 0.09931 0.63037 0.94409 0.0
C1360 C 0.14186 0.64035 0.03628 0.0
C1361 C 0.06605 0.57028 0.94816 0.0
C1362 C 0.1007 0.52967 0.022 0.0
C1363 C 0.07297 0.5156 0.04088 0.0
C1364 C 0.11149 0.55925 0.00697 0.0
C1365 C 0.09447 0.5757 0.01105 0.0
C1366 C 0.06704 0.56225 0.03093 0.0
C1367 C 0.05646 0.53225 0.04542 0.0
C1368 C 0.1405 0.57226 0.98566 0.0
C1369 C 0.04842 0.57921 0.03625 0.0
H1370 H 0.15322 0.68736 0.99441 0.0
H1371 H 0.08833 0.62804 0.92111 0.0
H1372 H 0.12285 0.63083 0.05465 0.0
H1373 H 0.15417 0.62629 0.03764 0.0
H1374 H 0.15937 0.66589 0.04199 0.0
H1375 H 0.05802 0.57218 0.92405 0.0
H1376 H 0.07646 0.55444 0.9468 0.0
H1377 H 0.0448 0.55842 0.96386 0.0
H1378 H 0.11375 0.51715 0.01821 0.0
H1379 H 0.03515 0.52173 0.06005 0.0
H1380 H 0.15834 0.59727 0.99267 0.0
H1381 H 0.13335 0.57287 0.96081 0.0
H1382 H 0.15215 0.55751 0.98636 0.0
H1383 H 0.06476 0.6045 0.04371 0.0
H1384 H 0.02951 0.56722 0.05453 0.0
H1385 H 0.03696 0.57975 0.01372 0.0
loop_
_geom_bond_atom_site_label_1
_geom_bond_atom_site_label_2
_geom_bond_distance
_geom_bond_site_symmetry_2
_ccdc_geom_bond_type
Mg0 O7 2.141 1_455 S
Mg0 O8 2.048 . S
Mg0 O9 2.048 . S
Mg0 O12 2.141 1_455 S
C1 O2 1.313 . S
C1 O8 1.195 . S
O2 C1 1.313 . S
C3 O4 1.245 . S
C3 O12 1.289 . S
O4 C3 1.245 . S
C5 O6 1.245 . S
C5 O7 1.289 . S
O6 C5 1.245 . S
O7 Mg0 2.141 1_655 S
O7 C5 1.289 . S
O8 Mg0 2.048 . S
O8 C1 1.195 . S
O9 Mg0 2.048 . S
O9 C10 1.195 . S
C10 O9 1.195 . S
C10 O11 1.313 . S
O11 C10 1.313 . S
O12 Mg0 2.141 1_655 S
O12 C3 1.289 . S
Mg13 O20 2.141 . S
Mg13 O21 2.048 . S
Mg13 O22 2.048 . S
Mg13 O25 2.141 . S
C14 O15 1.313 . S
C14 O21 1.195 . S
O15 C14 1.313 . S
C16 O17 1.245 . S
C16 O25 1.289 . S
O17 C16 1.245 . S
C18 O19 1.245 . S
C18 O20 1.289 . S
O19 C18 1.245 . S
O20 Mg13 2.141 . S
O20 C18 1.289 . S
O21 Mg13 2.048 . S
O21 C14 1.195 . S
O22 Mg13 2.048 . S
O22 C23 1.195 . S
C23 O22 1.195 . S
C23 O24 1.313 . S
O24 C23 1.313 . S
O25 Mg13 2.141 . S
O25 C16 1.289 . S
Mg26 O33 2.141 1_545 S
Mg26 O34 2.048 . S
Mg26 O35 2.048 . S
Mg26 O38 2.141 1_545 S
C27 O28 1.313 . S
C27 O34 1.195 . S
O28 C27 1.313 . S
C29 O30 1.245 . S
C29 O38 1.289 . S
O30 C29 1.245 . S
C31 O32 1.245 . S
C31 O33 1.289 . S
O32 C31 1.245 . S
O33 Mg26 2.141 1_565 S
O33 C31 1.289 . S
O34 Mg26 2.048 . S
O34 C27 1.195 . S
O35 Mg26 2.048 . S
O35 C36 1.195 . S
C36 O35 1.195 . S
C36 O37 1.313 . S
O37 C36 1.313 . S
O38 Mg26 2.141 1_565 S
O38 C29 1.289 . S
Mg39 O46 2.141 . S
Mg39 O47 2.048 1_455 S
Mg39 O48 2.048 1_455 S
Mg39 O51 2.141 . S
C40 O41 1.313 . S
C40 O47 1.195 . S
O41 C40 1.313 . S
C42 O43 1.245 . S
C42 O51 1.289 . S
O43 C42 1.245 . S
C44 O45 1.245 . S
C44 O46 1.289 . S
O45 C44 1.245 . S
O46 Mg39 2.141 . S
O46 C44 1.289 . S
O47 Mg39 2.048 1_655 S
O47 C40 1.195 . S
O48 Mg39 2.048 1_655 S
O48 C49 1.194 . S
C49 O48 1.194 . S
C49 O50 1.313 . S
O50 C49 1.313 . S
O51 Mg39 2.141 . S
O51 C42 1.289 . S
Mg52 O59 2.141 . S
Mg52 O60 2.048 . S
Mg52 O61 2.048 . S
Mg52 O64 2.141 . S
C53 O54 1.313 . S
C53 O60 1.195 . S
O54 C53 1.313 . S
C55 O56 1.245 . S
C55 O64 1.289 . S
O56 C55 1.245 . S
C57 O58 1.245 . S
C57 O59 1.289 . S
O58 C57 1.245 . S
O59 Mg52 2.141 . S
O59 C57 1.289 . S
O60 Mg52 2.048 . S
O60 C53 1.195 . S
O61 Mg52 2.048 . S
O61 C62 1.195 . S
C62 O61 1.195 . S
C62 O63 1.313 . S
O63 C62 1.313 . S
O64 Mg52 2.141 . S
O64 C55 1.289 . S
Mg65 O72 2.141 . S
Mg65 O73 2.048 1_545 S
Mg65 O74 2.048 1_545 S
Mg65 O77 2.141 . S
C66 O67 1.313 . S
C66 O73 1.195 . S
O67 C66 1.313 . S
C68 O69 1.245 . S
C68 O77 1.289 . S
O69 C68 1.245 . S
C70 O71 1.245 . S
C70 O72 1.289 . S
O71 C70 1.245 . S
O72 Mg65 2.141 . S
O72 C70 1.289 . S
O73 Mg65 2.048 1_565 S
O73 C66 1.195 . S
O74 Mg65 2.048 1_565 S
O74 C75 1.195 . S
C75 O74 1.195 . S
C75 O76 1.313 . S
O76 C75 1.313 . S
O77 Mg65 2.141 . S
O77 C68 1.289 . S
Mg78 O85 2.141 . S
Mg78 O86 2.048 . S
Mg78 O87 2.048 . S
Mg78 O90 2.141 . S
C79 O80 1.313 . S
C79 O86 1.195 . S
O80 C79 1.313 . S
C81 O82 1.245 . S
C81 O90 1.289 . S
O82 C81 1.245 . S
C83 O84 1.245 . S
C83 O85 1.289 . S
O84 C83 1.245 . S
O85 Mg78 2.141 . S
O85 C83 1.289 . S
O86 Mg78 2.048 . S
O86 C79 1.195 . S
O87 Mg78 2.048 . S
O87 C88 1.195 . S
C88 O87 1.195 . S
C88 O89 1.313 . S
O89 C88 1.313 . S
O90 Mg78 2.141 . S
O90 C81 1.289 . S
Mg91 O98 2.141 . S
Mg91 O99 2.048 . S
Mg91 O100 2.048 . S
Mg91 O103 2.141 . S
C92 O93 1.313 . S
C92 O99 1.195 . S
O93 C92 1.313 . S
C94 O95 1.245 . S
C94 O103 1.289 . S
O95 C94 1.245 . S
C96 O97 1.245 . S
C96 O98 1.289 . S
O97 C96 1.245 . S
O98 Mg91 2.141 . S
O98 C96 1.289 . S
O99 Mg91 2.048 . S
O99 C92 1.195 . S
O100 Mg91 2.048 . S
O100 C101 1.195 . S
C101 O100 1.195 . S
C101 O102 1.313 . S
O102 C101 1.313 . S
O103 Mg91 2.141 . S
O103 C94 1.289 . S
Mg104 O111 2.141 . S
Mg104 O112 2.048 . S
Mg104 O113 2.048 . S
Mg104 O116 2.141 . S
C105 O106 1.313 . S
C105 O112 1.195 . S
O106 C105 1.313 . S
C107 O108 1.245 . S
C107 O116 1.289 . S
O108 C107 1.245 . S
C109 O110 1.245 . S
C109 O111 1.289 . S
O110 C109 1.245 . S
O111 Mg104 2.141 . S
O111 C109 1.289 . S
O112 Mg104 2.048 . S
O112 C105 1.195 . S
O113 Mg104 2.048 . S
O113 C114 1.195 . S
C114 O113 1.195 . S
C114 O115 1.313 . S
O115 C114 1.313 . S
O116 Mg104 2.141 . S
O116 C107 1.289 . S
Mg117 O124 2.141 . S
Mg117 O125 2.048 . S
Mg117 O126 2.048 . S
Mg117 O129 2.141 . S
C118 O119 1.313 . S
C118 O125 1.195 . S
O119 C118 1.313 . S
C120 O121 1.245 . S
C120 O129 1.289 . S
O121 C120 1.245 . S
C122 O123 1.245 . S
C122 O124 1.289 . S
O123 C122 1.245 . S
O124 Mg117 2.141 . S
O124 C122 1.289 . S
O125 Mg117 2.048 . S
O125 C118 1.195 . S
O126 Mg117 2.048 . S
O126 C127 1.195 . S
C127 O126 1.195 . S
C127 O128 1.313 . S
O128 C127 1.313 . S
O129 Mg117 2.141 . S
O129 C120 1.289 . S
Mg130 O137 2.141 . S
Mg130 O138 2.048 . S
Mg130 O139 2.048 . S
Mg130 O142 2.141 . S
C131 O132 1.313 . S
C131 O138 1.195 . S
O132 C131 1.313 . S
C133 O134 1.245 . S
C133 O142 1.289 . S
O134 C133 1.245 . S
C135 O136 1.245 . S
C135 O137 1.289 . S
O136 C135 1.245 . S
O137 Mg130 2.141 . S
O137 C135 1.289 . S
O138 Mg130 2.048 . S
O138 C131 1.195 . S
O139 Mg130 2.048 . S
O139 C140 1.195 . S
C140 O139 1.195 . S
C140 O141 1.313 . S
O141 C140 1.313 . S
O142 Mg130 2.141 . S
O142 C133 1.289 . S
Mg143 O150 2.141 . S
Mg143 O151 2.048 . S
Mg143 O152 2.048 . S
Mg143 O155 2.141 . S
C144 O145 1.313 . S
C144 O151 1.195 . S
O145 C144 1.313 . S
C146 O147 1.245 . S
C146 O155 1.289 . S
O147 C146 1.245 . S
C148 O149 1.245 . S
C148 O150 1.289 . S
O149 C148 1.245 . S
O150 Mg143 2.141 . S
O150 C148 1.289 . S
O151 Mg143 2.048 . S
O151 C144 1.195 . S
O152 Mg143 2.048 . S
O152 C153 1.195 . S
C153 O152 1.195 . S
C153 O154 1.313 . S
O154 C153 1.313 . S
O155 Mg143 2.141 . S
O155 C146 1.289 . S
Mg156 O163 2.141 . S
Mg156 O164 2.048 . S
Mg156 O165 2.048 . S
Mg156 O168 2.141 . S
C157 O158 1.313 . S
C157 O164 1.195 . S
O158 C157 1.313 . S
C159 O160 1.245 . S
C159 O168 1.289 . S
O160 C159 1.245 . S
C161 O162 1.245 . S
C161 O163 1.289 . S
O162 C161 1.245 . S
O163 Mg156 2.141 . S
O163 C161 1.289 . S
O164 Mg156 2.048 . S
O164 C157 1.195 . S
O165 Mg156 2.048 . S
O165 C166 1.195 . S
C166 O165 1.195 . S
C166 O167 1.313 . S
O167 C166 1.313 . S
O168 Mg156 2.141 . S
O168 C159 1.289 . S
Mg169 O176 2.141 . S
Mg169 O177 2.048 . S
Mg169 O178 2.048 . S
Mg169 O181 2.141 . S
C170 O171 1.313 . S
C170 O177 1.195 . S
O171 C170 1.313 . S
C172 O173 1.245 . S
C172 O181 1.289 . S
O173 C172 1.245 . S
C174 O175 1.245 . S
C174 O176 1.289 . S
O175 C174 1.245 . S
O176 Mg169 2.141 . S
O176 C174 1.289 . S
O177 Mg169 2.048 . S
O177 C170 1.195 . S
O178 Mg169 2.048 . S
O178 C179 1.195 . S
C179 O178 1.195 . S
C179 O180 1.313 . S
O180 C179 1.313 . S
O181 Mg169 2.141 . S
O181 C172 1.289 . S
Mg182 O189 2.141 . S
Mg182 O190 2.048 . S
Mg182 O191 2.048 . S
Mg182 O194 2.141 . S
C183 O184 1.313 . S
C183 O190 1.195 . S
O184 C183 1.313 . S
C185 O186 1.245 . S
C185 O194 1.289 . S
O186 C185 1.245 . S
C187 O188 1.245 . S
C187 O189 1.289 . S
O188 C187 1.245 . S
O189 Mg182 2.141 . S
O189 C187 1.289 . S
O190 Mg182 2.048 . S
O190 C183 1.195 . S
O191 Mg182 2.048 . S
O191 C192 1.195 . S
C192 O191 1.195 . S
C192 O193 1.313 . S
O193 C192 1.313 . S
O194 Mg182 2.141 . S
O194 C185 1.289 . S
Mg195 O202 2.141 . S
Mg195 O203 2.048 . S
Mg195 O204 2.048 . S
Mg195 O207 2.141 . S
C196 O197 1.313 . S
C196 O203 1.195 . S
O197 C196 1.313 . S
C198 O199 1.245 . S
C198 O207 1.289 . S
O199 C198 1.245 . S
C200 O201 1.245 . S
C200 O202 1.289 . S
O201 C200 1.245 . S
O202 Mg195 2.141 . S
O202 C200 1.289 . S
O203 Mg195 2.048 . S
O203 C196 1.195 . S
O204 Mg195 2.048 . S
O204 C205 1.195 . S
C205 O204 1.195 . S
C205 O206 1.313 . S
O206 C205 1.313 . S
O207 Mg195 2.141 . S
O207 C198 1.289 . S
Mg208 O215 2.141 . S
Mg208 O216 2.048 . S
Mg208 O217 2.048 . S
Mg208 O220 2.141 . S
C209 O210 1.313 . S
C209 O216 1.195 . S
O210 C209 1.313 . S
C211 O212 1.245 . S
C211 O220 1.289 . S
O212 C211 1.245 . S
C213 O214 1.245 . S
C213 O215 1.289 . S
O214 C213 1.245 . S
O215 Mg208 2.141 . S
O215 C213 1.289 . S
O216 Mg208 2.048 . S
O216 C209 1.195 . S
O217 Mg208 2.048 . S
O217 C218 1.195 . S
C218 O217 1.195 . S
C218 O219 1.313 . S
O219 C218 1.313 . S
O220 Mg208 2.141 . S
O220 C211 1.289 . S
Mg221 O228 2.141 . S
Mg221 O229 2.048 . S
Mg221 O230 2.048 . S
Mg221 O233 2.141 . S
C222 O223 1.313 . S
C222 O229 1.195 . S
O223 C222 1.313 . S
C224 O225 1.245 . S
C224 O233 1.289 . S
O225 C224 1.245 . S
C226 O227 1.245 . S
C226 O228 1.289 . S
O227 C226 1.245 . S
O228 Mg221 2.141 . S
O228 C226 1.289 . S
O229 Mg221 2.048 . S
O229 C222 1.195 . S
O230 Mg221 2.048 . S
O230 C231 1.195 . S
C231 O230 1.195 . S
C231 O232 1.313 . S
O232 C231 1.313 . S
O233 Mg221 2.141 . S
O233 C224 1.289 . S
C234 C235 1.391 . S
C234 C236 1.394 . S
C234 H250 0.931 . S
C235 C234 1.391 . S
C235 C239 1.376 . S
C236 C234 1.394 . S
C236 C237 1.369 . S
C236 C240 1.531 . S
C237 C236 1.369 . S
C237 C238 1.410 . S
C237 C245 1.503 . S
C238 C237 1.410 . S
C238 C239 1.392 . S
C238 C241 1.511 . S
C239 C235 1.376 . S
C239 C238 1.392 . S
C239 H251 0.929 . S
C240 C236 1.531 . S
C240 H252 0.960 . S
C240 H253 0.962 . S
C240 H254 0.960 . S
C241 C238 1.511 . S
C241 H255 0.961 . S
C241 H256 0.961 . S
C241 H257 0.961 . S
C242 C243 1.370 . S
C242 C244 1.363 . S
C242 H258 0.931 . S
C243 C242 1.370 . S
C243 C247 1.408 . S
C244 C242 1.363 . S
C244 C245 1.370 . S
C244 C248 1.524 . S
C245 C237 1.503 . S
C245 C244 1.370 . S
C245 C246 1.403 . S
C246 C245 1.403 . S
C246 C247 1.404 . S
C246 C249 1.539 . S
C247 C243 1.408 . S
C247 C246 1.404 . S
C247 H259 0.930 . S
C248 C244 1.524 . S
C248 H260 0.956 . S
C248 H261 0.961 . S
C248 H262 0.961 . S
C249 C246 1.539 . S
C249 H263 0.958 . S
C249 H264 0.961 . S
C249 H265 0.960 . S
H250 C234 0.931 . S
H251 C239 0.929 . S
H252 C240 0.960 . S
H253 C240 0.962 . S
H254 C240 0.960 . S
H255 C241 0.961 . S
H256 C241 0.961 . S
H257 C241 0.961 . S
H258 C242 0.931 . S
H259 C247 0.930 . S
H260 C248 0.956 . S
H261 C248 0.961 . S
H262 C248 0.961 . S
H263 C249 0.958 . S
H264 C249 0.961 . S
H265 C249 0.960 . S
C266 C267 1.391 . S
C266 C268 1.394 . S
C266 H282 0.931 . S
C267 C266 1.391 . S
C267 C271 1.376 . S
C268 C266 1.394 . S
C268 C269 1.369 . S
C268 C272 1.531 . S
C269 C268 1.369 . S
C269 C270 1.410 . S
C269 C277 1.503 . S
C270 C269 1.410 . S
C270 C271 1.392 . S
C270 C273 1.511 . S
C271 C267 1.376 . S
C271 C270 1.392 . S
C271 H283 0.929 1_554 S
C272 C268 1.531 . S
C272 H284 0.960 . S
C272 H285 0.962 . S
C272 H286 0.960 . S
C273 C270 1.511 . S
C273 H287 0.961 . S
C273 H288 0.961 . S
C273 H289 0.961 . S
C274 C275 1.370 . S
C274 C276 1.363 . S
C274 H290 0.931 . S
C275 C274 1.370 . S
C275 C279 1.408 . S
C276 C274 1.363 . S
C276 C277 1.370 . S
C276 C280 1.524 . S
C277 C269 1.503 . S
C277 C276 1.370 . S
C277 C278 1.403 . S
C278 C277 1.403 . S
C278 C279 1.404 . S
C278 C281 1.539 . S
C279 C275 1.408 . S
C279 C278 1.404 . S
C279 H291 0.930 . S
C280 C276 1.524 . S
C280 H292 0.956 . S
C280 H293 0.961 . S
C280 H294 0.961 . S
C281 C278 1.539 . S
C281 H295 0.958 . S
C281 H296 0.961 . S
C281 H297 0.960 . S
H282 C266 0.931 . S
H283 C271 0.929 1_556 S
H284 C272 0.960 . S
H285 C272 0.962 . S
H286 C272 0.960 . S
H287 C273 0.961 . S
H288 C273 0.961 . S
H289 C273 0.961 . S
H290 C274 0.931 . S
H291 C279 0.930 . S
H292 C280 0.956 . S
H293 C280 0.961 . S
H294 C280 0.961 . S
H295 C281 0.958 . S
H296 C281 0.961 . S
H297 C281 0.960 . S
C298 C299 1.391 . S
C298 C300 1.394 . S
C298 H314 0.931 . S
C299 C298 1.391 . S
C299 C303 1.376 . S
C300 C298 1.394 . S
C300 C301 1.369 . S
C300 C304 1.531 . S
C301 C300 1.369 . S
C301 C302 1.410 . S
C301 C309 1.503 . S
C302 C301 1.410 . S
C302 C303 1.392 . S
C302 C305 1.511 . S
C303 C299 1.376 . S
C303 C302 1.392 . S
C303 H315 0.929 . S
C304 C300 1.531 . S
C304 H316 0.960 . S
C304 H317 0.962 . S
C304 H318 0.960 . S
C305 C302 1.511 . S
C305 H319 0.961 . S
C305 H320 0.961 . S
C305 H321 0.961 . S
C306 C307 1.370 . S
C306 C308 1.363 . S
C306 H322 0.931 . S
C307 C306 1.370 . S
C307 C311 1.408 . S
C308 C306 1.363 . S
C308 C309 1.370 . S
C308 C312 1.524 . S
C309 C301 1.503 . S
C309 C308 1.370 . S
C309 C310 1.403 . S
C310 C309 1.403 . S
C310 C311 1.404 . S
C310 C313 1.539 . S
C311 C307 1.408 . S
C311 C310 1.404 . S
C311 H323 0.930 . S
C312 C308 1.524 . S
C312 H324 0.956 . S
C312 H325 0.961 . S
C312 H326 0.961 1_565 S
C313 C310 1.539 . S
C313 H327 0.958 . S
C313 H328 0.961 . S
C313 H329 0.960 . S
H314 C298 0.931 . S
H315 C303 0.929 . S
H316 C304 0.960 . S
H317 C304 0.962 . S
H318 C304 0.960 . S
H319 C305 0.961 . S
H320 C305 0.961 . S
H321 C305 0.961 . S
H322 C306 0.931 . S
H323 C311 0.930 . S
H324 C312 0.956 . S
H325 C312 0.961 . S
H326 C312 0.961 1_545 S
H327 C313 0.958 . S
H328 C313 0.961 . S
H329 C313 0.960 . S
C330 C331 1.391 . S
C330 C332 1.394 . S
C330 H346 0.931 . S
C331 C330 1.391 . S
C331 C335 1.376 . S
C332 C330 1.394 . S
C332 C333 1.369 . S
C332 C336 1.531 . S
C333 C332 1.369 . S
C333 C334 1.410 . S
C333 C341 1.503 . S
C334 C333 1.410 . S
C334 C335 1.392 . S
C334 C337 1.511 . S
C335 C331 1.376 . S
C335 C334 1.392 . S
C335 H347 0.929 . S
C336 C332 1.531 . S
C336 H348 0.960 . S
C336 H349 0.962 . S
C336 H350 0.960 . S
C337 C334 1.511 . S
C337 H351 0.961 . S
C337 H352 0.961 . S
C337 H353 0.961 . S
C338 C339 1.370 . S
C338 C340 1.363 . S
C338 H354 0.931 . S
C339 C338 1.370 . S
C339 C343 1.408 . S
C340 C338 1.363 . S
C340 C341 1.370 . S
C340 C344 1.524 . S
C341 C333 1.503 . S
C341 C340 1.370 . S
C341 C342 1.403 . S
C342 C341 1.403 . S
C342 C343 1.404 . S
C342 C345 1.539 . S
C343 C339 1.408 . S
C343 C342 1.404 . S
C343 H355 0.930 . S
C344 C340 1.524 . S
C344 H356 0.956 . S
C344 H357 0.961 . S
C344 H358 0.961 . S
C345 C342 1.539 . S
C345 H359 0.958 . S
C345 H360 0.961 . S
C345 H361 0.960 . S
H346 C330 0.931 . S
H347 C335 0.929 . S
H348 C336 0.960 . S
H349 C336 0.962 . S
H350 C336 0.960 . S
H351 C337 0.961 . S
H352 C337 0.961 . S
H353 C337 0.961 . S
H354 C338 0.931 . S
H355 C343 0.930 . S
H356 C344 0.956 . S
H357 C344 0.961 . S
H358 C344 0.961 . S
H359 C345 0.958 . S
H360 C345 0.961 . S
H361 C345 0.960 . S
C362 C363 1.391 . S
C362 C364 1.394 . S
C362 H378 0.931 . S
C363 C362 1.391 . S
C363 C367 1.376 . S
C364 C362 1.394 . S
C364 C365 1.369 . S
C364 C368 1.531 . S
C365 C364 1.369 . S
C365 C366 1.410 . S
C365 C373 1.503 . S
C366 C365 1.410 . S
C366 C367 1.392 . S
C366 C369 1.511 . S
C367 C363 1.376 . S
C367 C366 1.392 . S
C367 H379 0.929 . S
C368 C364 1.531 . S
C368 H380 0.960 . S
C368 H381 0.962 . S
C368 H382 0.960 . S
C369 C366 1.511 . S
C369 H383 0.961 . S
C369 H384 0.961 . S
C369 H385 0.961 . S
C370 C371 1.370 . S
C370 C372 1.363 . S
C370 H386 0.931 1_655 S
C371 C370 1.370 . S
C371 C375 1.408 . S
C372 C370 1.363 . S
C372 C373 1.370 . S
C372 C376 1.524 . S
C373 C365 1.503 . S
C373 C372 1.370 . S
C373 C374 1.403 . S
C374 C373 1.403 . S
C374 C375 1.404 . S
C374 C377 1.539 . S
C375 C371 1.408 . S
C375 C374 1.404 . S
C375 H387 0.930 . S
C376 C372 1.524 . S
C376 H388 0.956 1_655 S
C376 H389 0.961 . S
C376 H390 0.961 1_655 S
C377 C374 1.539 . S
C377 H391 0.958 . S
C377 H392 0.961 . S
C377 H393 0.960 . S
H378 C362 0.931 . S
H379 C367 0.929 . S
H380 C368 0.960 . S
H381 C368 0.962 . S
H382 C368 0.960 . S
H383 C369 0.961 . S
H384 C369 0.961 . S
H385 C369 0.961 . S
H386 C370 0.931 1_455 S
H387 C375 0.930 . S
H388 C376 0.956 1_455 S
H389 C376 0.961 . S
H390 C376 0.961 1_455 S
H391 C377 0.958 . S
H392 C377 0.961 . S
H393 C377 0.960 . S
C394 C395 1.391 . S
C394 C396 1.394 . S
C394 H410 0.931 . S
C395 C394 1.391 . S
C395 C399 1.376 . S
C396 C394 1.394 . S
C396 C397 1.369 . S
C396 C400 1.531 . S
C397 C396 1.369 . S
C397 C398 1.410 . S
C397 C405 1.503 . S
C398 C397 1.410 . S
C398 C399 1.392 . S
C398 C401 1.511 . S
C399 C395 1.376 . S
C399 C398 1.392 . S
C399 H411 0.929 . S
C400 C396 1.531 . S
C400 H412 0.960 . S
C400 H413 0.962 . S
C400 H414 0.960 . S
C401 C398 1.511 . S
C401 H415 0.961 . S
C401 H416 0.961 . S
C401 H417 0.961 . S
C402 C403 1.370 . S
C402 C404 1.363 . S
C402 H418 0.931 . S
C403 C402 1.370 . S
C403 C407 1.408 . S
C404 C402 1.363 . S
C404 C405 1.370 . S
C404 C408 1.524 . S
C405 C397 1.503 . S
C405 C404 1.370 . S
C405 C406 1.403 . S
C406 C405 1.403 . S
C406 C407 1.404 . S
C406 C409 1.539 . S
C407 C403 1.408 . S
C407 C406 1.404 . S
C407 H419 0.930 . S
C408 C404 1.524 . S
C408 H420 0.956 . S
C408 H421 0.961 . S
C408 H422 0.961 . S
C409 C406 1.539 . S
C409 H423 0.958 . S
C409 H424 0.961 . S
C409 H425 0.960 . S
H410 C394 0.931 . S
H411 C399 0.929 . S
H412 C400 0.960 . S
H413 C400 0.962 . S
H414 C400 0.960 . S
H415 C401 0.961 . S
H416 C401 0.961 . S
H417 C401 0.961 . S
H418 C402 0.931 . S
H419 C407 0.930 . S
H420 C408 0.956 . S
H421 C408 0.961 . S
H422 C408 0.961 . S
H423 C409 0.958 . S
H424 C409 0.961 . S
H425 C409 0.960 . S
C426 C427 1.391 . S
C426 C428 1.394 . S
C426 H442 0.931 . S
C427 C426 1.391 . S
C427 C431 1.376 . S
C428 C426 1.394 . S
C428 C429 1.369 . S
C428 C432 1.531 . S
C429 C428 1.369 . S
C429 C430 1.410 . S
C429 C437 1.503 . S
C430 C429 1.410 . S
C430 C431 1.392 . S
C430 C433 1.511 . S
C431 C427 1.376 . S
C431 C430 1.392 . S
C431 H443 0.929 . S
C432 C428 1.531 . S
C432 H444 0.960 . S
C432 H445 0.962 . S
C432 H446 0.960 1_655 S
C433 C430 1.511 . S
C433 H447 0.961 . S
C433 H448 0.961 . S
C433 H449 0.961 . S
C434 C435 1.370 . S
C434 C436 1.363 . S
C434 H450 0.931 . S
C435 C434 1.370 . S
C435 C439 1.408 . S
C436 C434 1.363 . S
C436 C437 1.370 . S
C436 C440 1.524 . S
C437 C429 1.503 . S
C437 C436 1.370 . S
C437 C438 1.403 . S
C438 C437 1.403 . S
C438 C439 1.404 . S
C438 C441 1.539 . S
C439 C435 1.408 . S
C439 C438 1.404 . S
C439 H451 0.930 . S
C440 C436 1.524 . S
C440 H452 0.956 . S
C440 H453 0.961 . S
C440 H454 0.961 . S
C441 C438 1.539 . S
C441 H455 0.958 1_655 S
C441 H456 0.961 . S
C441 H457 0.960 . S
H442 C426 0.931 . S
H443 C431 0.929 . S
H444 C432 0.960 . S
H445 C432 0.962 . S
H446 C432 0.960 1_455 S
H447 C433 0.961 . S
H448 C433 0.961 . S
H449 C433 0.961 . S
H450 C434 0.931 . S
H451 C439 0.930 . S
H452 C440 0.956 . S
H453 C440 0.961 . S
H454 C440 0.961 . S
H455 C441 0.958 1_455 S
H456 C441 0.961 . S
H457 C441 0.960 . S
C458 C459 1.391 . S
C458 C460 1.394 . S
C458 H474 0.931 . S
C459 C458 1.391 . S
C459 C463 1.376 . S
C460 C458 1.394 . S
C460 C461 1.369 . S
C460 C464 1.531 . S
C461 C460 1.369 . S
C461 C462 1.410 . S
C461 C469 1.503 . S
C462 C461 1.410 . S
C462 C463 1.392 . S
C462 C465 1.511 . S
C463 C459 1.376 . S
C463 C462 1.392 . S
C463 H475 0.929 1_556 S
C464 C460 1.531 . S
C464 H476 0.960 . S
C464 H477 0.962 . S
C464 H478 0.960 . S
C465 C462 1.511 . S
C465 H479 0.961 . S
C465 H480 0.961 . S
C465 H481 0.961 . S
C466 C467 1.370 . S
C466 C468 1.363 . S
C466 H482 0.931 . S
C467 C466 1.370 . S
C467 C471 1.408 . S
C468 C466 1.363 . S
C468 C469 1.370 . S
C468 C472 1.524 . S
C469 C461 1.503 . S
C469 C468 1.370 . S
C469 C470 1.403 . S
C470 C469 1.403 . S
C470 C471 1.404 . S
C470 C473 1.539 . S
C471 C467 1.408 . S
C471 C470 1.404 . S
C471 H483 0.930 . S
C472 C468 1.524 . S
C472 H484 0.956 . S
C472 H485 0.961 . S
C472 H486 0.961 . S
C473 C470 1.539 . S
C473 H487 0.958 . S
C473 H488 0.961 . S
C473 H489 0.960 . S
H474 C458 0.931 . S
H475 C463 0.929 1_554 S
H476 C464 0.960 . S
H477 C464 0.962 . S
H478 C464 0.960 . S
H479 C465 0.961 . S
H480 C465 0.961 . S
H481 C465 0.961 . S
H482 C466 0.931 . S
H483 C471 0.930 . S
H484 C472 0.956 . S
H485 C472 0.961 . S
H486 C472 0.961 . S
H487 C473 0.958 . S
H488 C473 0.961 . S
H489 C473 0.960 . S
C490 C491 1.391 . S
C490 C492 1.394 . S
C490 H506 0.931 . S
C491 C490 1.391 . S
C491 C495 1.376 . S
C492 C490 1.394 . S
C492 C493 1.369 . S
C492 C496 1.531 . S
C493 C492 1.369 . S
C493 C494 1.410 . S
C493 C501 1.503 . S
C494 C493 1.410 . S
C494 C495 1.392 . S
C494 C497 1.511 . S
C495 C491 1.376 . S
C495 C494 1.392 . S
C495 H507 0.901 1_556 S
C496 C492 1.531 . S
C496 H508 0.960 . S
C496 H509 0.962 . S
C496 H510 0.960 . S
C497 C494 1.511 . S
C497 H511 0.961 . S
C497 H512 0.961 . S
C497 H513 0.961 . S
C498 C499 1.370 . S
C498 C500 1.363 . S
C498 H514 0.931 . S
C499 C498 1.370 . S
C499 C503 1.408 . S
C500 C498 1.363 . S
C500 C501 1.370 . S
C500 C504 1.524 . S
C501 C493 1.503 . S
C501 C500 1.370 . S
C501 C502 1.403 . S
C502 C501 1.403 . S
C502 C503 1.404 . S
C502 C505 1.539 . S
C503 C499 1.408 . S
C503 C502 1.404 . S
C503 H515 0.930 . S
C504 C500 1.524 . S
C504 H516 0.956 . S
C504 H517 0.961 . S
C504 H518 0.961 . S
C505 C502 1.539 . S
C505 H519 0.958 . S
C505 H520 0.961 . S
C505 H521 0.960 . S
H506 C490 0.931 . S
H507 C495 0.901 1_554 S
H508 C496 0.960 . S
H509 C496 0.962 . S
H510 C496 0.960 . S
H511 C497 0.961 . S
H512 C497 0.961 . S
H513 C497 0.961 . S
H514 C498 0.931 . S
H515 C503 0.930 . S
H516 C504 0.956 . S
H517 C504 0.961 . S
H518 C504 0.961 . S
H519 C505 0.958 . S
H520 C505 0.961 . S
H521 C505 0.960 . S
C522 C523 1.391 . S
C522 C524 1.394 . S
C522 H538 0.931 . S
C523 C522 1.391 . S
C523 C527 1.376 . S
C524 C522 1.394 . S
C524 C525 1.369 . S
C524 C528 1.531 . S
C525 C524 1.369 . S
C525 C526 1.410 . S
C525 C533 1.503 . S
C526 C525 1.410 . S
C526 C527 1.392 . S
C526 C529 1.511 . S
C527 C523 1.376 . S
C527 C526 1.392 . S
C527 H539 0.929 . S
C528 C524 1.531 . S
C528 H540 0.960 . S
C528 H541 0.962 . S
C528 H542 0.960 . S
C529 C526 1.511 . S
C529 H543 0.961 . S
C529 H544 0.961 . S
C529 H545 0.961 . S
C530 C531 1.370 . S
C530 C532 1.363 . S
C530 H546 0.931 . S
C531 C530 1.370 . S
C531 C535 1.408 . S
C532 C530 1.363 . S
C532 C533 1.370 . S
C532 C536 1.524 . S
C533 C525 1.503 . S
C533 C532 1.370 . S
C533 C534 1.403 . S
C534 C533 1.403 . S
C534 C535 1.404 . S
C534 C537 1.539 . S
C535 C531 1.408 . S
C535 C534 1.404 . S
C535 H547 0.930 . S
C536 C532 1.524 . S
C536 H548 0.956 . S
C536 H549 0.961 . S
C536 H550 0.959 1_565 S
C537 C534 1.539 . S
C537 H551 0.958 . S
C537 H552 0.961 . S
C537 H553 0.960 . S
H538 C522 0.931 . S
H539 C527 0.929 . S
H540 C528 0.960 . S
H541 C528 0.962 . S
H542 C528 0.960 . S
H543 C529 0.961 . S
H544 C529 0.961 . S
H545 C529 0.961 . S
H546 C530 0.931 . S
H547 C535 0.930 . S
H548 C536 0.956 . S
H549 C536 0.961 . S
H550 C536 0.959 1_545 S
H551 C537 0.958 . S
H552 C537 0.961 . S
H553 C537 0.960 . S
C554 C555 1.391 . S
C554 C556 1.394 . S
C554 H570 0.931 . S
C555 C554 1.391 . S
C555 C559 1.376 . S
C556 C554 1.394 . S
C556 C557 1.369 . S
C556 C560 1.531 . S
C557 C556 1.369 . S
C557 C558 1.410 . S
C557 C565 1.503 . S
C558 C557 1.410 . S
C558 C559 1.392 . S
C558 C561 1.511 . S
C559 C555 1.376 . S
C559 C558 1.392 . S
C559 H571 0.929 . S
C560 C556 1.531 . S
C560 H572 0.960 . S
C560 H573 0.962 . S
C560 H574 0.960 . S
C561 C558 1.511 . S
C561 H575 0.961 . S
C561 H576 0.961 . S
C561 H577 0.961 . S
C562 C563 1.370 . S
C562 C564 1.363 . S
C562 H578 0.931 . S
C563 C562 1.370 . S
C563 C567 1.408 . S
C564 C562 1.363 . S
C564 C565 1.370 . S
C564 C568 1.524 . S
C565 C557 1.503 . S
C565 C564 1.370 . S
C565 C566 1.403 . S
C566 C565 1.403 . S
C566 C567 1.404 . S
C566 C569 1.539 . S
C567 C563 1.408 . S
C567 C566 1.404 . S
C567 H579 0.930 . S
C568 C564 1.524 . S
C568 H580 0.956 . S
C568 H581 0.961 . S
C568 H582 0.961 . S
C569 C566 1.539 . S
C569 H583 0.958 . S
C569 H584 0.961 . S
C569 H585 0.960 . S
H570 C554 0.931 . S
H571 C559 0.929 . S
H572 C560 0.960 . S
H573 C560 0.962 . S
H574 C560 0.960 . S
H575 C561 0.961 . S
H576 C561 0.961 . S
H577 C561 0.961 . S
H578 C562 0.931 . S
H579 C567 0.930 . S
H580 C568 0.956 . S
H581 C568 0.961 . S
H582 C568 0.961 . S
H583 C569 0.958 . S
H584 C569 0.961 . S
H585 C569 0.960 . S
C586 C587 1.391 . S
C586 C588 1.394 . S
C586 H602 0.931 . S
C587 C586 1.391 . S
C587 C591 1.376 . S
C588 C586 1.394 . S
C588 C589 1.369 . S
C588 C592 1.531 . S
C589 C588 1.369 . S
C589 C590 1.410 . S
C589 C597 1.503 . S
C590 C589 1.410 . S
C590 C591 1.392 . S
C590 C593 1.511 . S
C591 C587 1.376 . S
C591 C590 1.392 . S
C591 H603 0.929 . S
C592 C588 1.531 . S
C592 H604 0.960 . S
C592 H605 0.962 . S
C592 H606 0.960 . S
C593 C590 1.511 . S
C593 H607 0.961 . S
C593 H608 0.961 . S
C593 H609 0.961 . S
C594 C595 1.370 . S
C594 C596 1.363 . S
C594 H610 0.931 . S
C595 C594 1.370 . S
C595 C599 1.408 . S
C596 C594 1.363 . S
C596 C597 1.370 . S
C596 C600 1.524 . S
C597 C589 1.503 . S
C597 C596 1.370 . S
C597 C598 1.403 . S
C598 C597 1.403 . S
C598 C599 1.404 . S
C598 C601 1.539 . S
C599 C595 1.408 . S
C599 C598 1.404 . S
C599 H611 0.930 . S
C600 C596 1.524 . S
C600 H612 0.956 . S
C600 H613 0.961 . S
C600 H614 0.961 . S
C601 C598 1.539 . S
C601 H615 0.958 . S
C601 H616 0.961 . S
C601 H617 0.960 . S
H602 C586 0.931 . S
H603 C591 0.929 . S
H604 C592 0.960 . S
H605 C592 0.962 . S
H606 C592 0.960 . S
H607 C593 0.961 . S
H608 C593 0.961 . S
H609 C593 0.961 . S
H610 C594 0.931 . S
H611 C599 0.930 . S
H612 C600 0.956 . S
H613 C600 0.961 . S
H614 C600 0.961 . S
H615 C601 0.958 . S
H616 C601 0.961 . S
H617 C601 0.960 . S
C618 C619 1.391 . S
C618 C620 1.394 . S
C618 H634 0.931 . S
C619 C618 1.391 . S
C619 C623 1.376 . S
C620 C618 1.394 . S
C620 C621 1.369 . S
C620 C624 1.531 . S
C621 C620 1.369 . S
C621 C622 1.410 . S
C621 C629 1.503 . S
C622 C621 1.410 . S
C622 C623 1.392 . S
C622 C625 1.511 . S
C623 C619 1.376 . S
C623 C622 1.392 . S
C623 H635 0.929 . S
C624 C620 1.531 . S
C624 H636 0.960 . S
C624 H637 0.962 . S
C624 H638 0.960 . S
C625 C622 1.511 . S
C625 H639 0.961 . S
C625 H640 0.961 . S
C625 H641 0.961 . S
C626 C627 1.370 . S
C626 C628 1.363 . S
C626 H642 0.931 . S
C627 C626 1.370 . S
C627 C631 1.408 . S
C628 C626 1.363 . S
C628 C629 1.370 . S
C628 C632 1.524 . S
C629 C621 1.503 . S
C629 C628 1.370 . S
C629 C630 1.403 . S
C630 C629 1.403 . S
C630 C631 1.404 . S
C630 C633 1.539 . S
C631 C627 1.408 . S
C631 C630 1.404 . S
C631 H643 0.930 . S
C632 C628 1.524 . S
C632 H644 0.956 . S
C632 H645 0.961 . S
C632 H646 0.961 . S
C633 C630 1.539 . S
C633 H647 0.958 . S
C633 H648 0.961 . S
C633 H649 0.960 . S
H634 C618 0.931 . S
H635 C623 0.929 . S
H636 C624 0.960 . S
H637 C624 0.962 . S
H638 C624 0.960 . S
H639 C625 0.961 . S
H640 C625 0.961 . S
H641 C625 0.961 . S
H642 C626 0.931 . S
H643 C631 0.930 . S
H644 C632 0.956 . S
H645 C632 0.961 . S
H646 C632 0.961 . S
H647 C633 0.958 . S
H648 C633 0.961 . S
H649 C633 0.960 . S
C650 C651 1.391 . S
C650 C652 1.394 . S
C650 H666 0.931 . S
C651 C650 1.391 . S
C651 C655 1.376 . S
C652 C650 1.394 . S
C652 C653 1.369 . S
C652 C656 1.531 . S
C653 C652 1.369 . S
C653 C654 1.410 . S
C653 C661 1.503 . S
C654 C653 1.410 . S
C654 C655 1.392 . S
C654 C657 1.511 1_545 S
C655 C651 1.376 . S
C655 C654 1.392 . S
C655 H667 0.929 . S
C656 C652 1.531 . S
C656 H668 0.960 . S
C656 H669 0.962 . S
C656 H670 0.960 . S
C657 C654 1.511 1_565 S
C657 H671 0.961 . S
C657 H672 0.961 . S
C657 H673 0.934 1_565 S
C658 C659 1.370 . S
C658 C660 1.363 . S
C658 H674 0.931 . S
C659 C658 1.370 . S
C659 C663 1.408 . S
C660 C658 1.363 . S
C660 C661 1.370 1_565 S
C660 C664 1.524 . S
C661 C653 1.503 . S
C661 C660 1.370 1_545 S
C661 C662 1.403 . S
C662 C661 1.403 . S
C662 C663 1.404 1_545 S
C662 C665 1.539 . S
C663 C659 1.408 . S
C663 C662 1.404 1_565 S
C663 H675 0.930 . S
C664 C660 1.524 . S
C664 H676 0.956 . S
C664 H677 0.961 . S
C664 H678 0.961 . S
C665 C662 1.539 . S
C665 H679 0.958 . S
C665 H680 0.961 . S
C665 H681 0.960 . S
H666 C650 0.931 . S
H667 C655 0.929 . S
H668 C656 0.960 . S
H669 C656 0.962 . S
H670 C656 0.960 . S
H671 C657 0.961 . S
H672 C657 0.961 . S
H673 C657 0.934 1_545 S
H674 C658 0.931 . S
H675 C663 0.930 . S
H676 C664 0.956 . S
H677 C664 0.961 . S
H678 C664 0.961 . S
H679 C665 0.958 . S
H680 C665 0.961 . S
H681 C665 0.960 . S
C682 C683 1.391 . S
C682 C684 1.394 . S
C682 H698 0.931 . S
C683 C682 1.391 . S
C683 C687 1.376 . S
C684 C682 1.394 . S
C684 C685 1.369 . S
C684 C688 1.531 . S
C685 C684 1.369 . S
C685 C686 1.410 . S
C685 C693 1.503 . S
C686 C685 1.410 . S
C686 C687 1.392 . S
C686 C689 1.511 . S
C687 C683 1.376 . S
C687 C686 1.392 . S
C687 H699 0.929 . S
C688 C684 1.531 . S
C688 H700 0.960 1_455 S
C688 H701 0.962 . S
C688 H702 0.960 . S
C689 C686 1.511 . S
C689 H703 0.961 . S
C689 H704 0.961 . S
C689 H705 0.961 . S
C690 C691 1.370 . S
C690 C692 1.363 1_655 S
C690 H706 0.931 . S
C691 C690 1.370 . S
C691 C695 1.408 . S
C692 C690 1.363 1_455 S
C692 C693 1.370 . S
C692 C696 1.524 . S
C693 C685 1.503 . S
C693 C692 1.370 . S
C693 C694 1.403 1_455 S
C694 C693 1.403 1_655 S
C694 C695 1.404 . S
C694 C697 1.539 . S
C695 C691 1.408 . S
C695 C694 1.404 . S
C695 H707 0.930 . S
C696 C692 1.524 . S
C696 H708 0.956 . S
C696 H709 0.961 . S
C696 H710 0.961 . S
C697 C694 1.539 . S
C697 H711 0.958 . S
C697 H712 0.961 . S
C697 H713 0.960 . S
H698 C682 0.931 . S
H699 C687 0.929 . S
H700 C688 0.960 1_655 S
H701 C688 0.962 . S
H702 C688 0.960 . S
H703 C689 0.961 . S
H704 C689 0.961 . S
H705 C689 0.961 . S
H706 C690 0.931 . S
H707 C695 0.930 . S
H708 C696 0.956 . S
H709 C696 0.961 . S
H710 C696 0.961 . S
H711 C697 0.958 . S
H712 C697 0.961 . S
H713 C697 0.960 . S
C714 C715 1.391 . S
C714 C716 1.394 . S
C714 H730 0.931 . S
C715 C714 1.391 . S
C715 C719 1.376 . S
C716 C714 1.394 . S
C716 C717 1.369 . S
C716 C720 1.531 . S
C717 C716 1.369 . S
C717 C718 1.410 . S
C717 C725 1.503 . S
C718 C717 1.410 . S
C718 C719 1.392 . S
C718 C721 1.511 . S
C719 C715 1.376 . S
C719 C718 1.392 . S
C719 H731 0.929 . S
C720 C716 1.531 . S
C720 H732 0.960 . S
C720 H733 0.962 . S
C720 H734 0.960 . S
C721 C718 1.511 . S
C721 H735 0.961 . S
C721 H736 0.961 . S
C721 H737 0.961 . S
C722 C723 1.370 . S
C722 C724 1.363 . S
C722 H738 0.931 . S
C723 C722 1.370 . S
C723 C727 1.408 . S
C724 C722 1.363 . S
C724 C725 1.370 . S
C724 C728 1.524 . S
C725 C717 1.503 . S
C725 C724 1.370 . S
C725 C726 1.403 . S
C726 C725 1.403 . S
C726 C727 1.404 . S
C726 C729 1.539 . S
C727 C723 1.408 . S
C727 C726 1.404 . S
C727 H739 0.930 . S
C728 C724 1.524 . S
C728 H740 0.956 . S
C728 H741 0.961 . S
C728 H742 0.961 . S
C729 C726 1.539 . S
C729 H743 0.958 . S
C729 H744 0.961 . S
C729 H745 0.960 . S
H730 C714 0.931 . S
H731 C719 0.929 . S
H732 C720 0.960 . S
H733 C720 0.962 . S
H734 C720 0.960 . S
H735 C721 0.961 . S
H736 C721 0.961 . S
H737 C721 0.961 . S
H738 C722 0.931 . S
H739 C727 0.930 . S
H740 C728 0.956 . S
H741 C728 0.961 . S
H742 C728 0.961 . S
H743 C729 0.958 . S
H744 C729 0.961 . S
H745 C729 0.960 . S
C746 C747 1.391 . S
C746 C748 1.394 . S
C746 H762 0.931 . S
C747 C746 1.391 . S
C747 C751 1.376 . S
C748 C746 1.394 . S
C748 C749 1.369 . S
C748 C752 1.531 1_545 S
C749 C748 1.369 . S
C749 C750 1.410 . S
C749 C757 1.503 1_545 S
C750 C749 1.410 . S
C750 C751 1.392 . S
C750 C753 1.511 . S
C751 C747 1.376 . S
C751 C750 1.392 . S
C751 H763 0.929 . S
C752 C748 1.531 1_565 S
C752 H764 0.960 . S
C752 H765 0.962 1_565 S
C752 H766 0.960 . S
C753 C750 1.511 . S
C753 H767 0.961 . S
C753 H768 0.961 . S
C753 H769 0.961 . S
C754 C755 1.370 . S
C754 C756 1.363 1_565 S
C754 H770 0.931 . S
C755 C754 1.370 . S
C755 C759 1.408 . S
C756 C754 1.363 1_545 S
C756 C757 1.370 1_545 S
C756 C760 1.524 . S
C757 C749 1.503 1_565 S
C757 C756 1.370 1_565 S
C757 C758 1.403 . S
C758 C757 1.403 . S
C758 C759 1.404 . S
C758 C761 1.539 . S
C759 C755 1.408 . S
C759 C758 1.404 . S
C759 H771 0.930 . S
C760 C756 1.524 . S
C760 H772 0.956 . S
C760 H773 0.961 . S
C760 H774 0.961 . S
C761 C758 1.539 . S
C761 H775 0.958 . S
C761 H776 0.961 . S
C761 H777 0.960 . S
H762 C746 0.931 . S
H763 C751 0.929 . S
H764 C752 0.960 . S
H765 C752 0.962 1_545 S
H766 C752 0.960 . S
H767 C753 0.961 . S
H768 C753 0.961 . S
H769 C753 0.961 . S
H770 C754 0.931 . S
H771 C759 0.930 . S
H772 C760 0.956 . S
H773 C760 0.961 . S
H774 C760 0.961 . S
H775 C761 0.958 . S
H776 C761 0.961 . S
H777 C761 0.960 . S
C778 C779 1.391 . S
C778 C780 1.394 . S
C778 H794 0.931 . S
C779 C778 1.391 . S
C779 C783 1.376 . S
C780 C778 1.394 . S
C780 C781 1.369 . S
C780 C784 1.531 1_455 S
C781 C780 1.369 . S
C781 C782 1.410 . S
C781 C789 1.503 . S
C782 C781 1.410 . S
C782 C783 1.392 . S
C782 C785 1.511 . S
C783 C779 1.376 . S
C783 C782 1.392 . S
C783 H795 0.929 . S
C784 C780 1.531 1_655 S
C784 H796 0.960 . S
C784 H797 0.962 . S
C784 H798 0.960 . S
C785 C782 1.511 . S
C785 H799 0.961 . S
C785 H800 0.961 . S
C785 H801 0.961 . S
C786 C787 1.370 . S
C786 C788 1.387 . S
C786 H802 0.931 . S
C787 C786 1.370 . S
C787 C791 1.408 . S
C788 C786 1.387 . S
C788 C789 1.384 1_655 S
C788 C792 1.488 1_655 S
C789 C781 1.503 . S
C789 C788 1.384 1_455 S
C789 C790 1.403 1_455 S
C790 C789 1.403 1_655 S
C790 C791 1.404 . S
C790 C793 1.539 . S
C791 C787 1.408 . S
C791 C790 1.404 . S
C791 H803 0.930 . S
C792 C788 1.488 1_455 S
C792 H804 0.956 . S
C792 H805 0.961 . S
C792 H806 0.961 . S
C793 C790 1.539 . S
C793 H807 0.958 . S
C793 H808 0.961 . S
C793 H809 0.960 1_655 S
H794 C778 0.931 . S
H795 C783 0.929 . S
H796 C784 0.960 . S
H797 C784 0.962 . S
H798 C784 0.960 . S
H799 C785 0.961 . S
H800 C785 0.961 . S
H801 C785 0.961 . S
H802 C786 0.931 . S
H803 C791 0.930 . S
H804 C792 0.956 . S
H805 C792 0.961 . S
H806 C792 0.961 . S
H807 C793 0.958 . S
H808 C793 0.961 . S
H809 C793 0.960 1_455 S
C810 C811 1.391 . S
C810 C812 1.394 . S
C810 H826 0.931 . S
C811 C810 1.391 . S
C811 C815 1.376 . S
C812 C810 1.394 . S
C812 C813 1.369 . S
C812 C816 1.531 . S
C813 C812 1.369 . S
C813 C814 1.410 . S
C813 C821 1.503 . S
C814 C813 1.410 . S
C814 C815 1.392 . S
C814 C817 1.511 . S
C815 C811 1.376 . S
C815 C814 1.392 . S
C815 H827 0.929 . S
C816 C812 1.531 . S
C816 H828 0.960 . S
C816 H829 0.962 . S
C816 H830 0.960 . S
C817 C814 1.511 . S
C817 H831 0.961 . S
C817 H832 0.961 . S
C817 H833 0.961 . S
C818 C819 1.370 . S
C818 C820 1.363 . S
C818 H834 0.931 . S
C819 C818 1.370 . S
C819 C823 1.408 . S
C820 C818 1.363 . S
C820 C821 1.370 . S
C820 C824 1.524 . S
C821 C813 1.503 . S
C821 C820 1.370 . S
C821 C822 1.403 . S
C822 C821 1.403 . S
C822 C823 1.404 . S
C822 C825 1.539 . S
C823 C819 1.408 . S
C823 C822 1.404 . S
C823 H835 0.930 . S
C824 C820 1.524 . S
C824 H836 0.956 . S
C824 H837 0.961 . S
C824 H838 0.961 . S
C825 C822 1.539 . S
C825 H839 0.958 . S
C825 H840 0.961 . S
C825 H841 0.960 . S
H826 C810 0.931 . S
H827 C815 0.929 . S
H828 C816 0.960 . S
H829 C816 0.962 . S
H830 C816 0.960 . S
H831 C817 0.961 . S
H832 C817 0.961 . S
H833 C817 0.961 . S
H834 C818 0.931 . S
H835 C823 0.930 . S
H836 C824 0.956 . S
H837 C824 0.961 . S
H838 C824 0.961 . S
H839 C825 0.958 . S
H840 C825 0.961 . S
H841 C825 0.960 . S
C842 C843 1.391 . S
C842 C844 1.394 . S
C842 H858 0.931 . S
C843 C842 1.391 . S
C843 C847 1.376 . S
C844 C842 1.394 . S
C844 C845 1.369 . S
C844 C848 1.531 . S
C845 C844 1.369 . S
C845 C846 1.410 . S
C845 C853 1.503 . S
C846 C845 1.410 . S
C846 C847 1.392 . S
C846 C849 1.511 . S
C847 C843 1.376 . S
C847 C846 1.392 . S
C847 H859 0.929 . S
C848 C844 1.531 . S
C848 H860 0.960 . S
C848 H861 0.962 . S
C848 H862 0.960 . S
C849 C846 1.511 . S
C849 H863 0.961 . S
C849 H864 0.961 . S
C849 H865 0.961 . S
C850 C851 1.370 . S
C850 C852 1.363 . S
C850 H866 0.931 . S
C851 C850 1.370 . S
C851 C855 1.408 . S
C852 C850 1.363 . S
C852 C853 1.370 . S
C852 C856 1.524 . S
C853 C845 1.503 . S
C853 C852 1.370 . S
C853 C854 1.403 . S
C854 C853 1.403 . S
C854 C855 1.404 . S
C854 C857 1.539 . S
C855 C851 1.408 . S
C855 C854 1.404 . S
C855 H867 0.930 . S
C856 C852 1.524 . S
C856 H868 0.956 . S
C856 H869 0.961 . S
C856 H870 0.961 . S
C857 C854 1.539 . S
C857 H871 0.958 . S
C857 H872 0.961 . S
C857 H873 0.960 . S
H858 C842 0.931 . S
H859 C847 0.929 . S
H860 C848 0.960 . S
H861 C848 0.962 . S
H862 C848 0.960 . S
H863 C849 0.961 . S
H864 C849 0.961 . S
H865 C849 0.961 . S
H866 C850 0.931 . S
H867 C855 0.930 . S
H868 C856 0.956 . S
H869 C856 0.961 . S
H870 C856 0.961 . S
H871 C857 0.958 . S
H872 C857 0.961 . S
H873 C857 0.960 . S
C874 C875 1.391 . S
C874 C876 1.394 . S
C874 H890 0.931 . S
C875 C874 1.391 . S
C875 C879 1.376 . S
C876 C874 1.394 . S
C876 C877 1.369 . S
C876 C880 1.531 . S
C877 C876 1.369 . S
C877 C878 1.410 . S
C877 C885 1.503 . S
C878 C877 1.410 . S
C878 C879 1.392 . S
C878 C881 1.511 . S
C879 C875 1.376 . S
C879 C878 1.392 . S
C879 H891 0.929 . S
C880 C876 1.531 . S
C880 H892 0.960 . S
C880 H893 0.962 . S
C880 H894 0.960 . S
C881 C878 1.511 . S
C881 H895 0.961 . S
C881 H896 0.961 . S
C881 H897 0.961 . S
C882 C883 1.370 . S
C882 C884 1.363 . S
C882 H898 0.931 . S
C883 C882 1.370 . S
C883 C887 1.408 . S
C884 C882 1.363 . S
C884 C885 1.370 . S
C884 C888 1.524 . S
C885 C877 1.503 . S
C885 C884 1.370 . S
C885 C886 1.403 . S
C886 C885 1.403 . S
C886 C887 1.404 . S
C886 C889 1.539 . S
C887 C883 1.408 . S
C887 C886 1.404 . S
C887 H899 0.930 . S
C888 C884 1.524 . S
C888 H900 0.956 . S
C888 H901 0.961 . S
C888 H902 0.961 . S
C889 C886 1.539 . S
C889 H903 0.958 . S
C889 H904 0.961 . S
C889 H905 0.960 . S
H890 C874 0.931 . S
H891 C879 0.929 . S
H892 C880 0.960 . S
H893 C880 0.962 . S
H894 C880 0.960 . S
H895 C881 0.961 . S
H896 C881 0.961 . S
H897 C881 0.961 . S
H898 C882 0.931 . S
H899 C887 0.930 . S
H900 C888 0.956 . S
H901 C888 0.961 . S
H902 C888 0.961 . S
H903 C889 0.958 . S
H904 C889 0.961 . S
H905 C889 0.960 . S
C906 C907 1.391 . S
C906 C908 1.394 . S
C906 H922 0.931 . S
C907 C906 1.391 . S
C907 C911 1.376 . S
C908 C906 1.394 . S
C908 C909 1.369 . S
C908 C912 1.531 . S
C909 C908 1.369 . S
C909 C910 1.410 . S
C909 C917 1.503 . S
C910 C909 1.410 . S
C910 C911 1.392 . S
C910 C913 1.511 . S
C911 C907 1.376 . S
C911 C910 1.392 . S
C911 H923 0.929 . S
C912 C908 1.531 . S
C912 H924 0.960 . S
C912 H925 0.962 . S
C912 H926 0.960 . S
C913 C910 1.511 . S
C913 H927 0.961 . S
C913 H928 0.961 . S
C913 H929 0.961 . S
C914 C915 1.370 . S
C914 C916 1.363 . S
C914 H930 0.931 . S
C915 C914 1.370 . S
C915 C919 1.408 . S
C916 C914 1.363 . S
C916 C917 1.370 . S
C916 C920 1.524 . S
C917 C909 1.503 . S
C917 C916 1.370 . S
C917 C918 1.403 . S
C918 C917 1.403 . S
C918 C919 1.404 . S
C918 C921 1.539 . S
C919 C915 1.408 . S
C919 C918 1.404 . S
C919 H931 0.930 . S
C920 C916 1.524 . S
C920 H932 0.956 . S
C920 H933 0.961 . S
C920 H934 0.961 . S
C921 C918 1.539 . S
C921 H935 0.958 . S
C921 H936 0.961 . S
C921 H937 0.960 . S
H922 C906 0.931 . S
H923 C911 0.929 . S
H924 C912 0.960 . S
H925 C912 0.962 . S
H926 C912 0.960 . S
H927 C913 0.961 . S
H928 C913 0.961 . S
H929 C913 0.961 . S
H930 C914 0.931 . S
H931 C919 0.930 . S
H932 C920 0.956 . S
H933 C920 0.961 . S
H934 C920 0.961 . S
H935 C921 0.958 . S
H936 C921 0.961 . S
H937 C921 0.960 . S
C938 C939 1.391 . S
C938 C940 1.394 . S
C938 H954 0.931 . S
C939 C938 1.391 . S
C939 C943 1.376 . S
C940 C938 1.394 . S
C940 C941 1.369 . S
C940 C944 1.531 . S
C941 C940 1.369 . S
C941 C942 1.410 . S
C941 C949 1.503 . S
C942 C941 1.410 . S
C942 C943 1.392 . S
C942 C945 1.511 . S
C943 C939 1.376 . S
C943 C942 1.392 . S
C943 H955 0.929 . S
C944 C940 1.531 . S
C944 H956 0.960 . S
C944 H957 0.962 . S
C944 H958 0.960 . S
C945 C942 1.511 . S
C945 H959 0.961 . S
C945 H960 0.961 . S
C945 H961 0.961 . S
C946 C947 1.370 . S
C946 C948 1.363 . S
C946 H962 0.931 . S
C947 C946 1.370 . S
C947 C951 1.408 . S
C948 C946 1.363 . S
C948 C949 1.370 . S
C948 C952 1.524 . S
C949 C941 1.503 . S
C949 C948 1.370 . S
C949 C950 1.403 . S
C950 C949 1.403 . S
C950 C951 1.404 . S
C950 C953 1.539 . S
C951 C947 1.408 . S
C951 C950 1.404 . S
C951 H963 0.930 . S
C952 C948 1.524 . S
C952 H964 0.956 . S
C952 H965 0.961 . S
C952 H966 0.961 . S
C953 C950 1.539 . S
C953 H967 0.958 . S
C953 H968 0.961 . S
C953 H969 0.960 . S
H954 C938 0.931 . S
H955 C943 0.929 . S
H956 C944 0.960 . S
H957 C944 0.962 . S
H958 C944 0.960 . S
H959 C945 0.961 . S
H960 C945 0.961 . S
H961 C945 0.961 . S
H962 C946 0.931 . S
H963 C951 0.930 . S
H964 C952 0.956 . S
H965 C952 0.961 . S
H966 C952 0.961 . S
H967 C953 0.958 . S
H968 C953 0.961 . S
H969 C953 0.960 . S
C970 C971 1.391 . S
C970 C972 1.394 . S
C970 H986 0.931 . S
C971 C970 1.391 . S
C971 C975 1.376 . S
C972 C970 1.394 . S
C972 C973 1.369 . S
C972 C976 1.531 . S
C973 C972 1.369 . S
C973 C974 1.410 . S
C973 C981 1.503 . S
C974 C973 1.410 . S
C974 C975 1.392 . S
C974 C977 1.511 . S
C975 C971 1.376 . S
C975 C974 1.392 . S
C975 H987 0.929 . S
C976 C972 1.531 . S
C976 H988 0.960 . S
C976 H989 0.962 . S
C976 H990 0.960 . S
C977 C974 1.511 . S
C977 H991 0.961 . S
C977 H992 0.961 . S
C977 H993 0.961 . S
C978 C979 1.370 . S
C978 C980 1.363 . S
C978 H994 0.931 . S
C979 C978 1.370 . S
C979 C983 1.408 . S
C980 C978 1.363 . S
C980 C981 1.370 . S
C980 C984 1.524 . S
C981 C973 1.503 . S
C981 C980 1.370 . S
C981 C982 1.403 . S
C982 C981 1.403 . S
C982 C983 1.404 . S
C982 C985 1.539 . S
C983 C979 1.408 . S
C983 C982 1.404 . S
C983 H995 0.930 . S
C984 C980 1.524 . S
C984 H996 0.956 . S
C984 H997 0.961 . S
C984 H998 0.961 . S
C985 C982 1.539 . S
C985 H999 0.958 . S
C985 H1000 0.961 . S
C985 H1001 0.960 . S
H986 C970 0.931 . S
H987 C975 0.929 . S
H988 C976 0.960 . S
H989 C976 0.962 . S
H990 C976 0.960 . S
H991 C977 0.961 . S
H992 C977 0.961 . S
H993 C977 0.961 . S
H994 C978 0.931 . S
H995 C983 0.930 . S
H996 C984 0.956 . S
H997 C984 0.961 . S
H998 C984 0.961 . S
H999 C985 0.958 . S
H1000 C985 0.961 . S
H1001 C985 0.960 . S
C1002 C1003 1.391 . S
C1002 C1004 1.394 . S
C1002 H1018 0.931 . S
C1003 C1002 1.391 . S
C1003 C1007 1.376 . S
C1004 C1002 1.394 . S
C1004 C1005 1.369 . S
C1004 C1008 1.531 . S
C1005 C1004 1.369 . S
C1005 C1006 1.410 . S
C1005 C1013 1.503 . S
C1006 C1005 1.410 . S
C1006 C1007 1.392 . S
C1006 C1009 1.511 . S
C1007 C1003 1.376 . S
C1007 C1006 1.392 . S
C1007 H1019 0.929 . S
C1008 C1004 1.531 . S
C1008 H1020 0.960 . S
C1008 H1021 0.962 . S
C1008 H1022 0.960 . S
C1009 C1006 1.511 . S
C1009 H1023 0.961 . S
C1009 H1024 0.961 . S
C1009 H1025 0.961 . S
C1010 C1011 1.370 . S
C1010 C1012 1.363 . S
C1010 H1026 0.931 . S
C1011 C1010 1.370 . S
C1011 C1015 1.408 . S
C1012 C1010 1.363 . S
C1012 C1013 1.370 . S
C1012 C1016 1.524 . S
C1013 C1005 1.503 . S
C1013 C1012 1.370 . S
C1013 C1014 1.403 . S
C1014 C1013 1.403 . S
C1014 C1015 1.404 . S
C1014 C1017 1.539 . S
C1015 C1011 1.408 . S
C1015 C1014 1.404 . S
C1015 H1027 0.930 . S
C1016 C1012 1.524 . S
C1016 H1028 0.956 . S
C1016 H1029 0.961 . S
C1016 H1030 0.961 . S
C1017 C1014 1.539 . S
C1017 H1031 0.958 . S
C1017 H1032 0.961 . S
C1017 H1033 0.960 . S
H1018 C1002 0.931 . S
H1019 C1007 0.929 . S
H1020 C1008 0.960 . S
H1021 C1008 0.962 . S
H1022 C1008 0.960 . S
H1023 C1009 0.961 . S
H1024 C1009 0.961 . S
H1025 C1009 0.961 . S
H1026 C1010 0.931 . S
H1027 C1015 0.930 . S
H1028 C1016 0.956 . S
H1029 C1016 0.961 . S
H1030 C1016 0.961 . S
H1031 C1017 0.958 . S
H1032 C1017 0.961 . S
H1033 C1017 0.960 . S
C1034 C1035 1.391 . S
C1034 C1036 1.394 . S
C1034 H1050 0.931 . S
C1035 C1034 1.391 . S
C1035 C1039 1.376 . S
C1036 C1034 1.394 . S
C1036 C1037 1.369 . S
C1036 C1040 1.531 . S
C1037 C1036 1.369 . S
C1037 C1038 1.410 . S
C1037 C1045 1.503 . S
C1038 C1037 1.410 . S
C1038 C1039 1.392 . S
C1038 C1041 1.511 . S
C1039 C1035 1.376 . S
C1039 C1038 1.392 . S
C1039 H1051 0.929 . S
C1040 C1036 1.531 . S
C1040 H1052 0.960 . S
C1040 H1053 0.962 . S
C1040 H1054 0.960 . S
C1041 C1038 1.511 . S
C1041 H1055 0.961 . S
C1041 H1056 0.961 . S
C1041 H1057 0.961 . S
C1042 C1043 1.370 . S
C1042 C1044 1.363 . S
C1042 H1058 0.931 . S
C1043 C1042 1.370 . S
C1043 C1047 1.408 . S
C1044 C1042 1.363 . S
C1044 C1045 1.370 . S
C1044 C1048 1.524 . S
C1045 C1037 1.503 . S
C1045 C1044 1.370 . S
C1045 C1046 1.403 . S
C1046 C1045 1.403 . S
C1046 C1047 1.404 . S
C1046 C1049 1.539 . S
C1047 C1043 1.408 . S
C1047 C1046 1.404 . S
C1047 H1059 0.930 . S
C1048 C1044 1.524 . S
C1048 H1060 0.956 . S
C1048 H1061 0.961 . S
C1048 H1062 0.961 . S
C1049 C1046 1.539 . S
C1049 H1063 0.958 . S
C1049 H1064 0.961 . S
C1049 H1065 0.960 . S
H1050 C1034 0.931 . S
H1051 C1039 0.929 . S
H1052 C1040 0.960 . S
H1053 C1040 0.962 . S
H1054 C1040 0.960 . S
H1055 C1041 0.961 . S
H1056 C1041 0.961 . S
H1057 C1041 0.961 . S
H1058 C1042 0.931 . S
H1059 C1047 0.930 . S
H1060 C1048 0.956 . S
H1061 C1048 0.961 . S
H1062 C1048 0.961 . S
H1063 C1049 0.958 . S
H1064 C1049 0.961 . S
H1065 C1049 0.960 . S
C1066 C1067 1.391 . S
C1066 C1068 1.394 . S
C1066 H1082 0.931 . S
C1067 C1066 1.391 . S
C1067 C1071 1.376 . S
C1068 C1066 1.394 . S
C1068 C1069 1.369 . S
C1068 C1072 1.531 . S
C1069 C1068 1.369 . S
C1069 C1070 1.410 . S
C1069 C1077 1.503 . S
C1070 C1069 1.410 . S
C1070 C1071 1.392 . S
C1070 C1073 1.511 . S
C1071 C1067 1.376 . S
C1071 C1070 1.392 . S
C1071 H1083 0.929 . S
C1072 C1068 1.531 . S
C1072 H1084 0.960 . S
C1072 H1085 0.962 . S
C1072 H1086 0.960 . S
C1073 C1070 1.511 . S
C1073 H1087 0.961 . S
C1073 H1088 0.961 . S
C1073 H1089 0.961 . S
C1074 C1075 1.370 . S
C1074 C1076 1.363 . S
C1074 H1090 0.931 . S
C1075 C1074 1.370 . S
C1075 C1079 1.408 . S
C1076 C1074 1.363 . S
C1076 C1077 1.370 . S
C1076 C1080 1.524 . S
C1077 C1069 1.503 . S
C1077 C1076 1.370 . S
C1077 C1078 1.403 . S
C1078 C1077 1.403 . S
C1078 C1079 1.404 . S
C1078 C1081 1.539 . S
C1079 C1075 1.408 . S
C1079 C1078 1.404 . S
C1079 H1091 0.930 . S
C1080 C1076 1.524 . S
C1080 H1092 0.956 . S
C1080 H1093 0.961 . S
C1080 H1094 0.961 . S
C1081 C1078 1.539 . S
C1081 H1095 0.958 . S
C1081 H1096 0.961 . S
C1081 H1097 0.960 . S
H1082 C1066 0.931 . S
H1083 C1071 0.929 . S
H1084 C1072 0.960 . S
H1085 C1072 0.962 . S
H1086 C1072 0.960 . S
H1087 C1073 0.961 . S
H1088 C1073 0.961 . S
H1089 C1073 0.961 . S
H1090 C1074 0.931 . S
H1091 C1079 0.930 . S
H1092 C1080 0.956 . S
H1093 C1080 0.961 . S
H1094 C1080 0.961 . S
H1095 C1081 0.958 . S
H1096 C1081 0.961 . S
H1097 C1081 0.960 . S
C1098 C1099 1.391 . S
C1098 C1100 1.394 . S
C1098 H1114 0.931 . S
C1099 C1098 1.391 . S
C1099 C1103 1.376 . S
C1100 C1098 1.394 . S
C1100 C1101 1.369 . S
C1100 C1104 1.531 . S
C1101 C1100 1.369 . S
C1101 C1102 1.410 . S
C1101 C1109 1.503 . S
C1102 C1101 1.410 . S
C1102 C1103 1.392 . S
C1102 C1105 1.511 . S
C1103 C1099 1.376 . S
C1103 C1102 1.392 . S
C1103 H1115 0.929 . S
C1104 C1100 1.531 . S
C1104 H1116 0.960 . S
C1104 H1117 0.962 . S
C1104 H1118 0.960 . S
C1105 C1102 1.511 . S
C1105 H1119 0.961 . S
C1105 H1120 0.961 . S
C1105 H1121 0.961 . S
C1106 C1107 1.370 . S
C1106 C1108 1.363 . S
C1106 H1122 0.931 . S
C1107 C1106 1.370 . S
C1107 C1111 1.408 . S
C1108 C1106 1.363 . S
C1108 C1109 1.370 . S
C1108 C1112 1.524 . S
C1109 C1101 1.503 . S
C1109 C1108 1.370 . S
C1109 C1110 1.403 . S
C1110 C1109 1.403 . S
C1110 C1111 1.404 . S
C1110 C1113 1.539 . S
C1111 C1107 1.408 . S
C1111 C1110 1.404 . S
C1111 H1123 0.930 . S
C1112 C1108 1.524 . S
C1112 H1124 0.956 . S
C1112 H1125 0.961 . S
C1112 H1126 0.961 . S
C1113 C1110 1.539 . S
C1113 H1127 0.958 . S
C1113 H1128 0.961 . S
C1113 H1129 0.960 . S
H1114 C1098 0.931 . S
H1115 C1103 0.929 . S
H1116 C1104 0.960 . S
H1117 C1104 0.962 . S
H1118 C1104 0.960 . S
H1119 C1105 0.961 . S
H1120 C1105 0.961 . S
H1121 C1105 0.961 . S
H1122 C1106 0.931 . S
H1123 C1111 0.930 . S
H1124 C1112 0.956 . S
H1125 C1112 0.961 . S
H1126 C1112 0.961 . S
H1127 C1113 0.958 . S
H1128 C1113 0.961 . S
H1129 C1113 0.960 . S
C1130 C1131 1.391 . S
C1130 C1132 1.394 . S
C1130 H1146 0.931 . S
C1131 C1130 1.391 . S
C1131 C1135 1.376 . S
C1132 C1130 1.394 . S
C1132 C1133 1.369 . S
C1132 C1136 1.531 . S
C1133 C1132 1.369 . S
C1133 C1134 1.410 . S
C1133 C1141 1.503 . S
C1134 C1133 1.410 . S
C1134 C1135 1.392 . S
C1134 C1137 1.511 . S
C1135 C1131 1.376 . S
C1135 C1134 1.392 . S
C1135 H1147 0.929 . S
C1136 C1132 1.531 . S
C1136 H1148 0.960 . S
C1136 H1149 0.962 . S
C1136 H1150 0.960 . S
C1137 C1134 1.511 . S
C1137 H1151 0.961 . S
C1137 H1152 0.961 . S
C1137 H1153 0.961 . S
C1138 C1139 1.370 . S
C1138 C1140 1.363 . S
C1138 H1154 0.931 . S
C1139 C1138 1.370 . S
C1139 C1143 1.408 . S
C1140 C1138 1.363 . S
C1140 C1141 1.370 . S
C1140 C1144 1.524 . S
C1141 C1133 1.503 . S
C1141 C1140 1.370 . S
C1141 C1142 1.403 . S
C1142 C1141 1.403 . S
C1142 C1143 1.404 . S
C1142 C1145 1.539 . S
C1143 C1139 1.408 . S
C1143 C1142 1.404 . S
C1143 H1155 0.930 . S
C1144 C1140 1.524 . S
C1144 H1156 0.956 . S
C1144 H1157 0.961 . S
C1144 H1158 0.961 . S
C1145 C1142 1.539 . S
C1145 H1159 0.958 . S
C1145 H1160 0.961 . S
C1145 H1161 0.960 . S
H1146 C1130 0.931 . S
H1147 C1135 0.929 . S
H1148 C1136 0.960 . S
H1149 C1136 0.962 . S
H1150 C1136 0.960 . S
H1151 C1137 0.961 . S
H1152 C1137 0.961 . S
H1153 C1137 0.961 . S
H1154 C1138 0.931 . S
H1155 C1143 0.930 . S
H1156 C1144 0.956 . S
H1157 C1144 0.961 . S
H1158 C1144 0.961 . S
H1159 C1145 0.958 . S
H1160 C1145 0.961 . S
H1161 C1145 0.960 . S
C1162 C1163 1.391 . S
C1162 C1164 1.394 . S
C1162 H1178 0.931 . S
C1163 C1162 1.391 . S
C1163 C1167 1.376 . S
C1164 C1162 1.394 . S
C1164 C1165 1.369 . S
C1164 C1168 1.531 . S
C1165 C1164 1.369 . S
C1165 C1166 1.410 . S
C1165 C1173 1.503 . S
C1166 C1165 1.410 . S
C1166 C1167 1.392 . S
C1166 C1169 1.511 . S
C1167 C1163 1.376 . S
C1167 C1166 1.392 . S
C1167 H1179 0.929 . S
C1168 C1164 1.531 . S
C1168 H1180 0.960 . S
C1168 H1181 0.962 . S
C1168 H1182 0.960 . S
C1169 C1166 1.511 . S
C1169 H1183 0.961 . S
C1169 H1184 0.961 . S
C1169 H1185 0.961 . S
C1170 C1171 1.370 . S
C1170 C1172 1.363 . S
C1170 H1186 0.931 . S
C1171 C1170 1.370 . S
C1171 C1175 1.408 . S
C1172 C1170 1.363 . S
C1172 C1173 1.370 . S
C1172 C1176 1.524 . S
C1173 C1165 1.503 . S
C1173 C1172 1.370 . S
C1173 C1174 1.403 . S
C1174 C1173 1.403 . S
C1174 C1175 1.404 . S
C1174 C1177 1.539 . S
C1175 C1171 1.408 . S
C1175 C1174 1.404 . S
C1175 H1187 0.930 . S
C1176 C1172 1.524 . S
C1176 H1188 0.956 . S
C1176 H1189 0.961 . S
C1176 H1190 0.961 . S
C1177 C1174 1.539 . S
C1177 H1191 0.958 . S
C1177 H1192 0.961 . S
C1177 H1193 0.960 . S
H1178 C1162 0.931 . S
H1179 C1167 0.929 . S
H1180 C1168 0.960 . S
H1181 C1168 0.962 . S
H1182 C1168 0.960 . S
H1183 C1169 0.961 . S
H1184 C1169 0.961 . S
H1185 C1169 0.961 . S
H1186 C1170 0.931 . S
H1187 C1175 0.930 . S
H1188 C1176 0.956 . S
H1189 C1176 0.961 . S
H1190 C1176 0.961 . S
H1191 C1177 0.958 . S
H1192 C1177 0.961 . S
H1193 C1177 0.960 . S
C1194 C1195 1.391 . S
C1194 C1196 1.394 . S
C1194 H1210 0.931 . S
C1195 C1194 1.391 . S
C1195 C1199 1.376 . S
C1196 C1194 1.394 . S
C1196 C1197 1.369 . S
C1196 C1200 1.531 . S
C1197 C1196 1.369 . S
C1197 C1198 1.410 . S
C1197 C1205 1.503 . S
C1198 C1197 1.410 . S
C1198 C1199 1.392 . S
C1198 C1201 1.511 . S
C1199 C1195 1.376 . S
C1199 C1198 1.392 . S
C1199 H1211 0.929 . S
C1200 C1196 1.531 . S
C1200 H1212 0.960 . S
C1200 H1213 0.962 . S
C1200 H1214 0.960 . S
C1201 C1198 1.511 . S
C1201 H1215 0.961 . S
C1201 H1216 0.961 . S
C1201 H1217 0.961 . S
C1202 C1203 1.370 . S
C1202 C1204 1.363 . S
C1202 H1218 0.931 . S
C1203 C1202 1.370 . S
C1203 C1207 1.408 . S
C1204 C1202 1.363 . S
C1204 C1205 1.370 . S
C1204 C1208 1.524 . S
C1205 C1197 1.503 . S
C1205 C1204 1.370 . S
C1205 C1206 1.403 . S
C1206 C1205 1.403 . S
C1206 C1207 1.404 . S
C1206 C1209 1.539 . S
C1207 C1203 1.408 . S
C1207 C1206 1.404 . S
C1207 H1219 0.930 . S
C1208 C1204 1.524 . S
C1208 H1220 0.956 . S
C1208 H1221 0.961 . S
C1208 H1222 0.961 . S
C1209 C1206 1.539 . S
C1209 H1223 0.958 . S
C1209 H1224 0.961 . S
C1209 H1225 0.960 . S
H1210 C1194 0.931 . S
H1211 C1199 0.929 . S
H1212 C1200 0.960 . S
H1213 C1200 0.962 . S
H1214 C1200 0.960 . S
H1215 C1201 0.961 . S
H1216 C1201 0.961 . S
H1217 C1201 0.961 . S
H1218 C1202 0.931 . S
H1219 C1207 0.930 . S
H1220 C1208 0.956 . S
H1221 C1208 0.961 . S
H1222 C1208 0.961 . S
H1223 C1209 0.958 . S
H1224 C1209 0.961 . S
H1225 C1209 0.960 . S
C1226 C1227 1.391 . S
C1226 C1228 1.394 . S
C1226 H1242 0.931 . S
C1227 C1226 1.391 . S
C1227 C1231 1.376 . S
C1228 C1226 1.394 . S
C1228 C1229 1.369 . S
C1228 C1232 1.531 1_545 S
C1229 C1228 1.369 . S
C1229 C1230 1.410 . S
C1229 C1237 1.503 1_545 S
C1230 C1229 1.410 . S
C1230 C1231 1.392 . S
C1230 C1233 1.511 . S
C1231 C1227 1.376 . S
C1231 C1230 1.392 . S
C1231 H1243 0.929 . S
C1232 C1228 1.531 1_565 S
C1232 H1244 0.960 . S
C1232 H1245 0.962 . S
C1232 H1246 0.960 . S
C1233 C1230 1.511 . S
C1233 H1247 0.961 . S
C1233 H1248 0.961 . S
C1233 H1249 0.961 . S
C1234 C1235 1.370 . S
C1234 C1236 1.363 1_565 S
C1234 H1250 0.931 1_565 S
C1235 C1234 1.370 . S
C1235 C1239 1.408 . S
C1236 C1234 1.363 1_545 S
C1236 C1237 1.370 1_545 S
C1236 C1240 1.524 . S
C1237 C1229 1.503 1_565 S
C1237 C1236 1.370 1_565 S
C1237 C1238 1.403 . S
C1238 C1237 1.403 . S
C1238 C1239 1.404 . S
C1238 C1241 1.539 . S
C1239 C1235 1.408 . S
C1239 C1238 1.404 . S
C1239 H1251 0.930 . S
C1240 C1236 1.524 . S
C1240 H1252 0.956 . S
C1240 H1253 0.961 . S
C1240 H1254 0.961 . S
C1241 C1238 1.539 . S
C1241 H1255 0.958 . S
C1241 H1256 0.961 . S
C1241 H1257 0.960 . S
H1242 C1226 0.931 . S
H1243 C1231 0.929 . S
H1244 C1232 0.960 . S
H1245 C1232 0.962 . S
H1246 C1232 0.960 . S
H1247 C1233 0.961 . S
H1248 C1233 0.961 . S
H1249 C1233 0.961 . S
H1250 C1234 0.931 1_545 S
H1251 C1239 0.930 . S
H1252 C1240 0.956 . S
H1253 C1240 0.961 . S
H1254 C1240 0.961 . S
H1255 C1241 0.958 . S
H1256 C1241 0.961 . S
H1257 C1241 0.960 . S
C1258 C1259 1.391 . S
C1258 C1260 1.394 . S
C1258 H1274 0.931 . S
C1259 C1258 1.391 . S
C1259 C1263 1.376 . S
C1260 C1258 1.394 . S
C1260 C1261 1.369 . S
C1260 C1264 1.531 . S
C1261 C1260 1.369 . S
C1261 C1262 1.410 . S
C1261 C1269 1.503 . S
C1262 C1261 1.410 . S
C1262 C1263 1.392 . S
C1262 C1265 1.511 1_455 S
C1263 C1259 1.376 . S
C1263 C1262 1.392 . S
C1263 H1275 0.929 . S
C1264 C1260 1.531 . S
C1264 H1276 0.960 . S
C1264 H1277 0.962 . S
C1264 H1278 0.960 . S
C1265 C1262 1.511 1_655 S
C1265 H1279 0.961 . S
C1265 H1280 0.961 . S
C1265 H1281 0.961 . S
C1266 C1267 1.370 . S
C1266 C1268 1.363 1_655 S
C1266 H1282 0.931 . S
C1267 C1266 1.370 . S
C1267 C1271 1.408 . S
C1268 C1266 1.363 1_455 S
C1268 C1269 1.370 . S
C1268 C1272 1.524 . S
C1269 C1261 1.503 . S
C1269 C1268 1.370 . S
C1269 C1270 1.403 . S
C1270 C1269 1.403 . S
C1270 C1271 1.404 1_455 S
C1270 C1273 1.539 . S
C1271 C1267 1.408 . S
C1271 C1270 1.404 1_655 S
C1271 H1283 0.930 . S
C1272 C1268 1.524 . S
C1272 H1284 0.956 . S
C1272 H1285 0.961 . S
C1272 H1286 0.967 . S
C1273 C1270 1.539 . S
C1273 H1287 0.958 . S
C1273 H1288 0.961 1_455 S
C1273 H1289 0.960 . S
H1274 C1258 0.931 . S
H1275 C1263 0.929 . S
H1276 C1264 0.960 . S
H1277 C1264 0.962 . S
H1278 C1264 0.960 . S
H1279 C1265 0.961 . S
H1280 C1265 0.961 . S
H1281 C1265 0.961 . S
H1282 C1266 0.931 . S
H1283 C1271 0.930 . S
H1284 C1272 0.956 . S
H1285 C1272 0.961 . S
H1286 C1272 0.967 . S
H1287 C1273 0.958 . S
H1288 C1273 0.961 1_655 S
H1289 C1273 0.960 . S
C1290 C1291 1.391 . S
C1290 C1292 1.394 1_556 S
C1290 H1306 0.947 . S
C1291 C1290 1.391 . S
C1291 C1295 1.376 . S
C1292 C1290 1.394 1_554 S
C1292 C1293 1.369 1_554 S
C1292 C1296 1.531 . S
C1293 C1292 1.369 1_556 S
C1293 C1294 1.410 . S
C1293 C1301 1.503 1_556 S
C1294 C1293 1.410 . S
C1294 C1295 1.392 . S
C1294 C1297 1.511 . S
C1295 C1291 1.376 . S
C1295 C1294 1.392 . S
C1295 H1307 0.929 . S
C1296 C1292 1.531 . S
C1296 H1308 0.960 . S
C1296 H1309 0.962 . S
C1296 H1310 0.960 . S
C1297 C1294 1.511 . S
C1297 H1311 0.961 . S
C1297 H1312 0.961 . S
C1297 H1313 0.961 . S
C1298 C1299 1.370 . S
C1298 C1300 1.363 . S
C1298 H1314 0.931 . S
C1299 C1298 1.370 . S
C1299 C1303 1.408 . S
C1300 C1298 1.363 . S
C1300 C1301 1.370 . S
C1300 C1304 1.524 1_554 S
C1301 C1293 1.503 1_554 S
C1301 C1300 1.370 . S
C1301 C1302 1.403 . S
C1302 C1301 1.403 . S
C1302 C1303 1.404 . S
C1302 C1305 1.539 . S
C1303 C1299 1.408 . S
C1303 C1302 1.404 . S
C1303 H1315 0.930 . S
C1304 C1300 1.524 1_556 S
C1304 H1316 0.956 . S
C1304 H1317 0.961 . S
C1304 H1318 0.961 . S
C1305 C1302 1.539 . S
C1305 H1319 0.958 . S
C1305 H1320 0.961 . S
C1305 H1321 0.960 . S
H1306 C1290 0.947 . S
H1307 C1295 0.929 . S
H1308 C1296 0.960 . S
H1309 C1296 0.962 . S
H1310 C1296 0.960 . S
H1311 C1297 0.961 . S
H1312 C1297 0.961 . S
H1313 C1297 0.961 . S
H1314 C1298 0.931 . S
H1315 C1303 0.930 . S
H1316 C1304 0.956 . S
H1317 C1304 0.961 . S
H1318 C1304 0.961 . S
H1319 C1305 0.958 . S
H1320 C1305 0.961 . S
H1321 C1305 0.960 . S
C1322 C1323 1.391 . S
C1322 C1324 1.394 . S
C1322 H1338 0.931 . S
C1323 C1322 1.391 . S
C1323 C1327 1.376 . S
C1324 C1322 1.394 . S
C1324 C1325 1.369 . S
C1324 C1328 1.531 1_565 S
C1325 C1324 1.369 . S
C1325 C1326 1.410 1_556 S
C1325 C1333 1.503 1_566 S
C1326 C1325 1.410 1_554 S
C1326 C1327 1.392 1_554 S
C1326 C1329 1.511 . S
C1327 C1323 1.376 . S
C1327 C1326 1.392 1_556 S
C1327 H1339 0.929 1_556 S
C1328 C1324 1.531 1_545 S
C1328 H1340 0.960 . S
C1328 H1341 0.962 . S
C1328 H1342 0.960 1_545 S
C1329 C1326 1.511 . S
C1329 H1343 0.961 . S
C1329 H1344 0.961 1_565 S
C1329 H1345 0.961 . S
C1330 C1331 1.370 . S
C1330 C1332 1.363 . S
C1330 H1346 0.931 . S
C1331 C1330 1.370 . S
C1331 C1335 1.408 . S
C1332 C1330 1.363 . S
C1332 C1333 1.370 . S
C1332 C1336 1.533 . S
C1333 C1325 1.503 1_544 S
C1333 C1332 1.370 . S
C1333 C1334 1.402 . S
C1334 C1333 1.402 . S
C1334 C1335 1.409 . S
C1334 C1337 1.534 1_545 S
C1335 C1331 1.408 . S
C1335 C1334 1.409 . S
C1335 H1347 0.930 . S
C1336 C1332 1.533 . S
C1336 H1348 0.929 1_554 S
C1336 H1349 0.971 . S
C1336 H1350 0.969 . S
C1337 C1334 1.534 1_565 S
C1337 H1351 0.958 1_554 S
C1337 H1352 0.961 . S
C1337 H1353 0.960 . S
H1338 C1322 0.931 . S
H1339 C1327 0.929 1_554 S
H1340 C1328 0.960 . S
H1341 C1328 0.962 . S
H1342 C1328 0.960 1_565 S
H1343 C1329 0.961 . S
H1344 C1329 0.961 1_545 S
H1345 C1329 0.961 . S
H1346 C1330 0.931 . S
H1347 C1335 0.930 . S
H1348 C1336 0.929 1_556 S
H1349 C1336 0.971 . S
H1350 C1336 0.969 . S
H1351 C1337 0.958 1_556 S
H1352 C1337 0.961 . S
H1353 C1337 0.960 . S
C1354 C1355 1.391 . S
C1354 C1356 1.394 1_556 S
C1354 H1370 0.931 1_556 S
C1355 C1354 1.391 . S
C1355 C1359 1.376 . S
C1356 C1354 1.394 1_554 S
C1356 C1357 1.369 1_554 S
C1356 C1360 1.531 . S
C1357 C1356 1.369 1_556 S
C1357 C1358 1.410 . S
C1357 C1365 1.503 1_556 S
C1358 C1357 1.410 . S
C1358 C1359 1.392 . S
C1358 C1361 1.516 . S
C1359 C1355 1.376 . S
C1359 C1358 1.392 . S
C1359 H1371 0.929 . S
C1360 C1356 1.531 . S
C1360 H1372 0.960 . S
C1360 H1373 0.962 . S
C1360 H1374 0.960 . S
C1361 C1358 1.516 . S
C1361 H1375 0.975 . S
C1361 H1376 0.987 1_455 S
C1361 H1377 0.931 1_455 S
C1362 C1363 1.370 1_455 S
C1362 C1364 1.363 . S
C1362 H1378 0.931 . S
C1363 C1362 1.370 1_655 S
C1363 C1367 1.408 . S
C1364 C1362 1.363 . S
C1364 C1365 1.370 . S
C1364 C1368 1.524 . S
C1365 C1357 1.503 1_554 S
C1365 C1364 1.370 . S
C1365 C1366 1.403 1_455 S
C1366 C1365 1.403 1_655 S
C1366 C1367 1.404 . S
C1366 C1369 1.539 . S
C1367 C1363 1.408 . S
C1367 C1366 1.404 . S
C1367 H1379 0.930 . S
C1368 C1364 1.524 . S
C1368 H1380 0.956 . S
C1368 H1381 0.961 1_554 S
C1368 H1382 0.961 . S
C1369 C1366 1.539 . S
C1369 H1383 0.958 . S
C1369 H1384 0.961 . S
C1369 H1385 0.960 1_554 S
H1370 C1354 0.931 1_554 S
H1371 C1359 0.929 . S
H1372 C1360 0.960 . S
H1373 C1360 0.962 . S
H1374 C1360 0.960 . S
H1375 C1361 0.975 . S
H1376 C1361 0.987 1_655 S
H1377 C1361 0.931 1_655 S
H1378 C1362 0.931 . S
H1379 C1367 0.930 . S
H1380 C1368 0.956 . S
H1381 C1368 0.961 1_556 S
H1382 C1368 0.961 . S
H1383 C1369 0.958 . S
H1384 C1369 0.961 . S
H1385 C1369 0.960 1_556 S
C235 C1 1.942 . S
C243 C183 1.960 1_554 S
C267 C159 1.869 1_554 S
C275 C16 1.844 . S
C299 C29 1.888 . S
C307 C170 1.928 1_554 S
C331 C79 1.930 . S
C339 C27 1.974 . S
C363 C101 2.048 . S
C371 C3 1.901 . S
C395 C105 1.997 . S
C403 C14 1.963 . S
C427 C49 1.948 . S
C435 C144 2.076 1_556 S
C459 C118 2.042 1_556 S
C467 C57 1.901 . S
C491 C140 1.931 1_556 S
C499 C68 2.042 . S
C523 C66 2.067 . S
C531 C205 1.976 . S
C555 C44 1.802 . S
C563 C213 1.848 . S
C587 C224 2.036 . S
C595 C62 1.916 . S
C619 C157 1.885 . S
C627 C107 1.895 . S
C651 C81 1.874 . S
C659 C172 1.843 . S
C683 C185 1.797 . S
C691 C96 1.982 . S
C715 C222 2.002 . S
C723 C120 2.009 . S
C747 C135 1.812 . S
C755 C200 1.852 . S
C779 C218 1.904 . S
C787 C146 2.023 . S
C811 C196 1.652 . S
C819 C10 1.672 . S
C843 C18 1.571 . S
C851 C211 1.595 . S
C875 C31 1.561 . S
C883 C226 1.594 . S
C907 C36 1.631 . S
C915 C153 1.659 . S
C939 C127 1.646 . S
C947 C5 1.623 . S
C971 C23 1.644 . S
C979 C131 1.653 . S
C1003 C88 1.659 . S
C1011 C40 1.648 . S
C1035 C92 1.645 . S
C1043 C55 1.636 . S
C1067 C70 1.648 . S
C1075 C114 1.636 . S
C1099 C75 1.667 . S
C1107 C192 1.664 . S
C1131 C42 1.570 . S
C1139 C161 1.594 . S
C1163 C53 1.658 . S
C1171 C179 1.681 . S
C1195 C109 1.627 . S
C1203 C231 1.636 . S
C1227 C83 1.592 . S
C1235 C198 1.607 . S
C1259 C209 1.631 . S
C1267 C94 1.633 . S
C1291 C166 1.608 . S
C1299 C122 1.629 . S
C1323 C174 1.617 . S
C1331 C133 1.598 . S
C1355 C187 1.579 . S
C1363 C148 1.613 . S
