# Generated by pormake.
# Topology vby, (6)-cn, num edge types: 1
# Building blocks:
#     Node 0, Type 0, BuildingBlock: PAMTUU_clean_sbu_0, # of connection points: 6
#     Node 1, Type 0, BuildingBlock: PAMTUU_clean_sbu_0, # of connection points: 6
#     Node 2, Type 0, BuildingBlock: PAMTUU_clean_sbu_0, # of connection points: 6
#     Node 3, Type 0, BuildingBlock: PAMTUU_clean_sbu_0, # of connection points: 6
#     Node 4, Type 0, BuildingBlock: PAMTUU_clean_sbu_0, # of connection points: 6
#     Node 5, Type 0, BuildingBlock: PAMTUU_clean_sbu_0, # of connection points: 6
#     Node 6, Type 0, BuildingBlock: PAMTUU_clean_sbu_0, # of connection points: 6
#     Node 7, Type 0, BuildingBlock: PAMTUU_clean_sbu_0, # of connection points: 6
#     Edge 8, Type (0, 0), BuildingBlock: UVAHIK_clean_linker_0, # of connection points: 2
#     Edge 9, Type (0, 0), BuildingBlock: UVAHIK_clean_linker_0, # of connection points: 2
#     Edge 10, Type (0, 0), BuildingBlock: UVAHIK_clean_linker_0, # of connection points: 2
#     Edge 11, Type (0, 0), BuildingBlock: UVAHIK_clean_linker_0, # of connection points: 2
#     Edge 12, Type (0, 0), BuildingBlock: UVAHIK_clean_linker_0, # of connection points: 2
#     Edge 13, Type (0, 0), BuildingBlock: UVAHIK_clean_linker_0, # of connection points: 2
#     Edge 14, Type (0, 0), BuildingBlock: UVAHIK_clean_linker_0, # of connection points: 2
#     Edge 15, Type (0, 0), BuildingBlock: UVAHIK_clean_linker_0, # of connection points: 2
#     Edge 16, Type (0, 0), BuildingBlock: UVAHIK_clean_linker_0, # of connection points: 2
#     Edge 17, Type (0, 0), BuildingBlock: UVAHIK_clean_linker_0, # of connection points: 2
#     Edge 18, Type (0, 0), BuildingBlock: UVAHIK_clean_linker_0, # of connection points: 2
#     Edge 19, Type (0, 0), BuildingBlock: UVAHIK_clean_linker_0, # of connection points: 2
#     Edge 20, Type (0, 0), BuildingBlock: UVAHIK_clean_linker_0, # of connection points: 2
#     Edge 21, Type (0, 0), BuildingBlock: UVAHIK_clean_linker_0, # of connection points: 2
#     Edge 22, Type (0, 0), BuildingBlock: UVAHIK_clean_linker_0, # of connection points: 2
#     Edge 23, Type (0, 0), BuildingBlock: UVAHIK_clean_linker_0, # of connection points: 2
#     Edge 24, Type (0, 0), BuildingBlock: UVAHIK_clean_linker_0, # of connection points: 2
#     Edge 25, Type (0, 0), BuildingBlock: UVAHIK_clean_linker_0, # of connection points: 2
#     Edge 26, Type (0, 0), BuildingBlock: UVAHIK_clean_linker_0, # of connection points: 2
#     Edge 27, Type (0, 0), BuildingBlock: UVAHIK_clean_linker_0, # of connection points: 2
#     Edge 28, Type (0, 0), BuildingBlock: UVAHIK_clean_linker_0, # of connection points: 2
#     Edge 29, Type (0, 0), BuildingBlock: UVAHIK_clean_linker_0, # of connection points: 2
#     Edge 30, Type (0, 0), BuildingBlock: UVAHIK_clean_linker_0, # of connection points: 2
#     Edge 31, Type (0, 0), BuildingBlock: UVAHIK_clean_linker_0, # of connection points: 2
# Relax obj value: 0.137
# Max RMSD: 0.177
# Mean RMSD: 0.177
data_MOF--net-vby--node1-PAMTUU_clean_sbu_0--edge1-UVAHIK_clean_linker_0
_symmetry_space_group_name_H-M    P1
_symmetry_Int_Tables_number       1
_symmetry_cell_setting            triclinic
loop_
_symmetry_equiv_pos_as_xyz
'x, y, z'
_cell_length_a     19.796405
_cell_length_b     122.10112
_cell_length_c     38.645906
_cell_angle_alpha  89.994805
_cell_angle_beta   81.338175
_cell_angle_gamma 90.084884
loop_
_atom_site_label
_atom_site_type_symbol
_atom_site_fract_x
_atom_site_fract_y
_atom_site_fract_z
_atom_type_partial_charge
Tb0 Tb 0.10221 0.3699 0.01495 0.0
Tb1 Tb 0.10691 0.39723 0.02035 0.0
C2 C 0.10052 0.38505 0.95009 0.0
C3 C 0.13785 0.33897 0.00713 0.0
C4 C 0.19432 0.31765 0.00533 0.0
C5 C 0.14457 0.32035 0.98432 0.0
C6 C 0.11658 0.33088 0.98532 0.0
C7 C 0.19023 0.33648 0.02672 0.0
C8 C 0.21814 0.32593 0.02582 0.0
C9 C 0.09751 0.34917 0.01296 0.0
O10 O 0.2062 0.37387 0.02214 0.0
O11 O 0.21086 0.39174 0.0029 0.0
O12 O 0.12677 0.39019 0.06922 0.0
O13 O 0.06133 0.3749 0.06778 0.0
O14 O 0.14413 0.41229 -0.00105 0.0
O15 O 0.0848 0.41141 0.05074 0.0
O16 O 0.99809 0.39325 0.02971 0.0
O17 O 0.99869 0.37511 0.0117 0.0
O18 O 0.13032 0.37656 0.96235 0.0
O19 O 0.07671 0.39323 0.97039 0.0
C20 C 0.24078 0.38278 0.01168 0.0
O21 O 0.1035 0.35487 0.04082 0.0
O22 O 0.09179 0.35541 0.98618 0.0
C23 C 0.08992 0.3823 0.08535 0.0
C24 C 0.08707 0.42873 0.02134 0.0
C25 C 0.05554 0.45129 0.01713 0.0
C26 C 0.03272 0.44526 0.04769 0.0
C27 C 0.04852 0.43414 0.04981 0.0
C28 C 0.10697 0.43462 0.99017 0.0
C29 C 0.09118 0.44575 0.98805 0.0
C30 C 0.11653 0.41779 0.02644 0.0
C31 C 0.96653 0.38429 0.02162 0.0
H32 H 0.12451 0.31418 0.96849 0.0
H33 H 0.07574 0.33255 0.97028 0.0
H34 H 0.20773 0.34254 0.04383 0.0
H35 H 0.25717 0.32418 0.04188 0.0
H36 H 1.00586 0.44927 0.07073 0.0
H37 H 0.0335 0.42992 0.07443 0.0
H38 H 0.13745 0.43076 0.96786 0.0
H39 H 0.10867 0.45009 0.96393 0.0
Tb40 Tb 0.94508 0.62339 0.02698 0.0
Tb41 Tb 0.9508 0.6508 0.02948 0.0
C42 C 0.9638 0.63773 0.96047 0.0
C43 C 0.96475 0.59188 0.02789 0.0
C44 C 0.99619 0.56934 0.03292 0.0
C45 C 1.01992 0.5753 0.00234 0.0
C46 C 1.00419 0.58642 -0.00018 0.0
C47 C 0.94391 0.58606 0.0591 0.0
C48 C 0.95967 0.57494 0.06163 0.0
C49 C 0.93536 0.60279 0.02225 0.0
O50 O 0.05402 0.62722 0.01832 0.0
O51 O 0.05386 0.6456 0.03365 0.0
O52 O 0.92166 0.6449 0.08285 0.0
O53 O 0.97144 0.62783 0.07751 0.0
O54 O 0.94588 0.66553 0.00229 0.0
O55 O 0.96578 0.6656 0.05575 0.0
O56 O 0.84642 0.64675 0.02313 0.0
O57 O 0.84105 0.62895 0.0432 0.0
O58 O 0.92631 0.63002 0.97729 0.0
O59 O 0.99271 0.64524 0.97744 0.0
C60 C 0.08568 0.63629 0.02534 0.0
O61 O 0.9079 0.60845 0.04941 0.0
O62 O 0.96707 0.60903 -0.00245 0.0
C63 C 0.94829 0.63633 0.09651 0.0
C64 C 0.91665 0.68181 0.03511 0.0
C65 C 0.86048 0.70316 0.03734 0.0
C66 C 0.9131 0.70056 0.05668 0.0
C67 C 0.94091 0.69002 0.05548 0.0
C68 C 0.86165 0.6842 0.01719 0.0
C69 C 0.83388 0.69476 0.01831 0.0
C70 C 0.95617 0.67154 0.02888 0.0
C71 C 0.81157 0.63791 0.03404 0.0
H72 H 0.04745 0.57126 0.97956 0.0
H73 H 1.01996 0.59058 0.97516 0.0
H74 H 0.91273 0.58996 0.08109 0.0
H75 H 0.94147 0.57065 0.08577 0.0
H76 H 0.93536 0.70682 0.07133 0.0
H77 H 0.98378 0.68843 0.06919 0.0
H78 H 0.84181 0.67804 0.00121 0.0
H79 H 0.79264 0.69643 0.00357 0.0
Tb80 Tb 0.10479 0.62334 0.51763 0.0
Tb81 Tb 0.09763 0.65061 0.5151 0.0
C82 C 0.08304 0.63758 0.5841 0.0
C83 C 0.0865 0.59182 0.51647 0.0
C84 C 0.05236 0.56933 0.51379 0.0
C85 C 1.01722 0.57621 0.53965 0.0
C86 C 0.03419 0.58732 0.54104 0.0
C87 C 0.11915 0.58508 0.48958 0.0
C88 C 0.10213 0.57398 0.48816 0.0
C89 C 0.11565 0.60275 0.52214 0.0
O90 O 0.9957 0.62708 0.52671 0.0
O91 O 0.99681 0.64507 0.50757 0.0
O92 O 0.13138 0.64472 0.46213 0.0
O93 O 0.08024 0.62775 0.46669 0.0
O94 O 0.09718 0.66538 0.5427 0.0
O95 O 0.0854 0.66534 0.48807 0.0
O96 O 0.20098 0.64676 0.52368 0.0
O97 O 0.20862 0.62918 0.50197 0.0
O98 O 0.12196 0.63001 0.56754 0.0
O99 O 0.05374 0.64495 0.56679 0.0
C100 C 0.96453 0.63588 0.51718 0.0
O101 O 0.14236 0.60845 0.4949 0.0
O102 O 0.08418 0.60894 0.54698 0.0
C103 C 0.1051 0.63622 0.44792 0.0
C104 C 0.13053 0.68166 0.51038 0.0
C105 C 0.18383 0.70324 0.50802 0.0
C106 C 0.1439 0.69965 0.483 0.0
C107 C 0.11739 0.68901 0.48427 0.0
C108 C 0.1734 0.68503 0.53431 0.0
C109 C 0.19983 0.69569 0.53309 0.0
C110 C 0.09083 0.67134 0.51542 0.0
C111 C 0.23699 0.6381 0.51226 0.0
H112 H 0.97789 0.57293 0.55949 0.0
H113 H 1.00837 0.59224 0.56232 0.0
H114 H 0.1605 0.58825 0.47064 0.0
H115 H 0.13077 0.56893 0.46809 0.0
H116 H 0.13155 0.70517 0.46293 0.0
H117 H 0.08411 0.68667 0.46567 0.0
H118 H 0.18413 0.67961 0.55498 0.0
H119 H 0.22994 0.69817 0.55294 0.0
Tb120 Tb 0.94833 0.36996 0.53167 0.0
Tb121 Tb 0.94345 0.39726 0.52623 0.0
C122 C 0.94967 0.38509 0.59649 0.0
C123 C 0.91306 0.33904 0.53976 0.0
C124 C 0.8557 0.31777 0.54148 0.0
C125 C 0.90812 0.32026 0.56108 0.0
C126 C 0.93652 0.33077 0.56014 0.0
C127 C 0.85817 0.33677 0.52164 0.0
C128 C 0.8298 0.32623 0.52249 0.0
C129 C 0.95335 0.34925 0.53376 0.0
O130 O 0.84437 0.37385 0.52425 0.0
O131 O 0.83953 0.39169 0.54357 0.0
O132 O 0.92405 0.39023 0.47723 0.0
O133 O 0.98938 0.37496 0.47886 0.0
O134 O 0.90622 0.41227 0.54796 0.0
O135 O 0.96481 0.41147 0.49597 0.0
O136 O 0.05231 0.39338 0.5167 0.0
O137 O 0.05188 0.37525 0.53484 0.0
O138 O 0.91973 0.37661 0.58421 0.0
O139 O 0.97381 0.39325 0.57616 0.0
C140 C 0.8097 0.38273 0.53465 0.0
O141 O 0.9469 0.35492 0.50591 0.0
O142 O 0.95926 0.35551 0.56047 0.0
C143 C 0.9609 0.38234 0.4612 0.0
C144 C 0.96281 0.42875 0.52566 0.0
C145 C 0.99753 0.45124 0.52779 0.0
C146 C 0.0318 0.44432 0.50178 0.0
C147 C 1.01452 0.43321 0.50065 0.0
C148 C 0.93101 0.43554 0.55264 0.0
C149 C 0.9483 0.44663 0.55379 0.0
C150 C 0.93338 0.41781 0.52044 0.0
C151 C 0.08398 0.38444 0.52479 0.0
H152 H 0.92984 0.31395 0.57571 0.0
H153 H 0.97926 0.33229 0.57403 0.0
H154 H 0.83896 0.34299 0.50567 0.0
H155 H 0.78873 0.32464 0.50755 0.0
H156 H 0.0707 0.44755 0.48165 0.0
H157 H 0.03964 0.42825 0.47928 0.0
H158 H 0.8901 0.43241 0.57192 0.0
H159 H 0.92028 0.45172 0.57398 0.0
Tb160 Tb 0.60079 0.87002 0.01543 0.0
Tb161 Tb 0.60673 0.89743 0.01766 0.0
C162 C 0.60369 0.88442 0.94827 0.0
C163 C 0.63461 0.839 0.01 0.0
C164 C 0.69056 0.81764 0.00781 0.0
C165 C 0.63796 0.82024 0.98847 0.0
C166 C 0.61025 0.83079 0.98965 0.0
C167 C 0.68958 0.8366 0.02792 0.0
C168 C 0.71725 0.82603 0.02682 0.0
C169 C 0.5952 0.84929 0.01621 0.0
O170 O 0.7051 0.87406 0.02195 0.0
O171 O 0.71069 0.89182 0.0016 0.0
O172 O 0.62501 0.89086 0.06751 0.0
O173 O 0.5586 0.87563 0.06736 0.0
O174 O 0.6441 0.91234 0.99482 0.0
O175 O 0.58536 0.91184 0.04681 0.0
O176 O 0.49774 0.89364 0.02633 0.0
O177 O 0.4978 0.87524 0.01119 0.0
O178 O 0.63029 0.87587 0.96204 0.0
O179 O 0.58036 0.89293 0.96719 0.0
C180 C 0.74006 0.88288 0.01096 0.0
O181 O 0.60569 0.85531 0.04273 0.0
O182 O 0.58551 0.85521 0.98931 0.0
C183 C 0.58737 0.88317 0.08433 0.0
C184 C 0.58816 0.92896 0.01616 0.0
C185 C 0.55367 0.95143 0.01372 0.0
C186 C 0.51624 0.94437 0.03832 0.0
C187 C 0.53338 0.93326 0.03959 0.0
C188 C 0.62322 0.93588 0.99046 0.0
C189 C 0.60608 0.94697 0.98916 0.0
C190 C 0.61705 0.91803 0.02197 0.0
C191 C 0.46602 0.88456 0.01941 0.0
H192 H 0.61564 0.81399 0.97383 0.0
H193 H 0.56739 0.8324 0.97594 0.0
H194 H 0.70949 0.84276 0.04389 0.0
H195 H 0.75847 0.82435 0.04156 0.0
H196 H 0.47489 0.94749 0.05728 0.0
H197 H 0.5056 0.92819 0.05994 0.0
H198 H 0.66645 0.93286 0.97246 0.0
H199 H 0.63653 0.95217 0.97011 0.0
Tb200 Tb 0.44347 0.12349 0.02791 0.0
Tb201 Tb 0.4508 0.15074 0.03102 0.0
C202 C 0.46483 0.13786 0.96176 0.0
C203 C 0.46091 0.09196 0.02862 0.0
C204 C 0.49506 0.06946 0.03087 0.0
C205 C 0.53246 0.07652 0.00627 0.0
C206 C 0.5155 0.08764 0.00508 0.0
C207 C 0.42582 0.08503 0.0543 0.0
C208 C 0.4428 0.07393 0.05551 0.0
C209 C 0.43232 0.10292 0.02297 0.0
O210 O 0.55276 0.12729 0.01879 0.0
O211 O 0.55188 0.14523 0.03842 0.0
O212 O 0.41829 0.14472 0.08399 0.0
O213 O 0.46886 0.12774 0.07879 0.0
O214 O 0.45318 0.16555 0.00352 0.0
O215 O 0.46128 0.16545 0.0586 0.0
O216 O 0.34705 0.1469 0.02254 0.0
O217 O 0.33964 0.1293 0.04407 0.0
O218 O 0.42584 0.13026 0.97823 0.0
O219 O 0.49433 0.14518 0.97918 0.0
C220 C 0.58412 0.13606 0.02856 0.0
O221 O 0.40528 0.10856 0.05022 0.0
O222 O 0.46439 0.10915 -0.00164 0.0
C223 C 0.4447 0.13617 0.09784 0.0
C224 C 0.41847 0.18178 0.03549 0.0
C225 C 0.36261 0.20312 0.03576 0.0
C226 C 0.41101 0.20048 0.05761 0.0
C227 C 0.43866 0.18994 0.05738 0.0
C228 C 0.36769 0.18423 0.01486 0.0
C229 C 0.34006 0.19479 0.01501 0.0
C230 C 0.45802 0.17147 0.03107 0.0
C231 C 0.31104 0.13822 0.03399 0.0
H232 H 0.5737 0.0734 0.98725 0.0
H233 H 0.54327 0.09271 0.98474 0.0
H234 H 0.38274 0.08805 0.07238 0.0
H235 H 0.41235 0.06874 0.07457 0.0
H236 H 0.43017 0.20669 0.07364 0.0
H237 H 0.47829 0.1883 0.07321 0.0
H238 H 0.35108 0.17811 -0.00235 0.0
H239 H 0.30208 0.1965 -0.00171 0.0
Tb240 Tb 0.60304 0.1236 0.51895 0.0
Tb241 Tb 0.59736 0.15098 0.51643 0.0
C242 C 0.58426 0.13792 0.58546 0.0
C243 C 0.5834 0.09207 0.51818 0.0
C244 C 0.5524 0.0695 0.51355 0.0
C245 C 0.52821 0.07551 0.54395 0.0
C246 C 0.54373 0.08664 0.54627 0.0
C247 C 0.60459 0.08622 0.48712 0.0
C248 C 0.58905 0.07508 0.48479 0.0
C249 C 0.61278 0.103 0.52369 0.0
O250 O 0.49414 0.12738 0.52774 0.0
O251 O 0.49443 0.14572 0.51195 0.0
O252 O 0.62763 0.14507 0.46319 0.0
O253 O 0.57723 0.12804 0.46829 0.0
O254 O 0.60182 0.16571 0.5436 0.0
O255 O 0.58257 0.16574 0.49003 0.0
O256 O 0.70165 0.14699 0.52308 0.0
O257 O 0.70716 0.1292 0.50299 0.0
O258 O 0.62173 0.13022 0.56867 0.0
O259 O 0.55532 0.14541 0.56846 0.0
C260 C 0.46251 0.13641 0.52051 0.0
O261 O 0.64003 0.10867 0.49647 0.0
O262 O 0.58123 0.10923 0.54842 0.0
C263 C 0.60106 0.13653 0.44936 0.0
C264 C 0.63149 0.18197 0.51073 0.0
C265 C 0.68782 0.20332 0.50872 0.0
C266 C 0.63515 0.20075 0.48937 0.0
C267 C 0.60725 0.1902 0.49046 0.0
C268 C 0.68661 0.18434 0.52861 0.0
C269 C 0.71446 0.19491 0.5276 0.0
C270 C 0.59184 0.1717 0.51692 0.0
C271 C 0.73657 0.13817 0.51226 0.0
H272 H 0.50056 0.07148 0.56677 0.0
H273 H 0.52766 0.09083 0.57082 0.0
H274 H 0.63595 0.0901 0.46512 0.0
H275 H 0.60759 0.07075 0.46078 0.0
H276 H 0.61288 0.20702 0.47483 0.0
H277 H 0.5643 0.18862 0.47678 0.0
H278 H 0.70645 0.17816 0.5445 0.0
H279 H 0.75573 0.19657 0.54235 0.0
Tb280 Tb 0.45114 0.86998 0.52947 0.0
Tb281 Tb 0.4459 0.89737 0.52731 0.0
C282 C 0.44723 0.88432 0.59677 0.0
C283 C 0.41601 0.83897 0.53504 0.0
C284 C 0.36256 0.81739 0.53925 0.0
C285 C 0.40402 0.82111 0.5634 0.0
C286 C 0.43062 0.83175 0.56121 0.0
C287 C 0.37162 0.83547 0.51204 0.0
C288 C 0.34514 0.82481 0.51416 0.0
C289 C 0.45591 0.84924 0.52863 0.0
O290 O 0.34697 0.87405 0.52285 0.0
O291 O 0.34167 0.89181 0.54315 0.0
O292 O 0.42751 0.8908 0.47746 0.0
O293 O 0.49386 0.87561 0.47761 0.0
O294 O 0.40915 0.9123 0.54987 0.0
O295 O 0.46802 0.91174 0.49793 0.0
O296 O 0.55475 0.89355 0.51883 0.0
O297 O 0.55408 0.87517 0.53414 0.0
O298 O 0.42073 0.8758 0.58278 0.0
O299 O 0.4712 0.89284 0.57799 0.0
C300 C 0.31216 0.88287 0.53381 0.0
O301 O 0.44551 0.85528 0.50214 0.0
O302 O 0.4664 0.85516 0.55542 0.0
C303 C 0.4652 0.88313 0.46063 0.0
C304 C 0.46595 0.92889 0.52821 0.0
C305 C 0.49697 0.95146 0.53283 0.0
C306 C 0.52126 0.94545 0.50246 0.0
C307 C 0.50574 0.93432 0.50014 0.0
C308 C 0.44467 0.93475 0.55926 0.0
C309 C 0.46022 0.94589 0.56158 0.0
C310 C 0.4365 0.91797 0.52267 0.0
C311 C 0.58615 0.88448 0.52592 0.0
H312 H 0.41752 0.81569 0.58346 0.0
H313 H 0.46515 0.83418 0.57909 0.0
H314 H 0.35977 0.84077 0.49131 0.0
H315 H 0.3139 0.82223 0.49493 0.0
H316 H 0.54899 0.94947 0.47965 0.0
H317 H 0.52187 0.93012 0.47561 0.0
H318 H 0.41322 0.93087 0.58124 0.0
H319 H 0.44161 0.95022 0.58557 0.0
C320 C 0.3523 0.39285 0.00654 0.0
C321 C 0.31595 0.38291 0.01085 0.0
C322 C 0.42255 0.39314 0.00756 0.0
C323 C 0.57699 0.3761 -0.00398 0.0
H324 H 0.64923 0.39831 0.05223 0.0
C325 C 0.85509 0.37457 0.02219 0.0
C326 C 0.89141 0.38446 0.02252 0.0
C327 C 0.78489 0.37458 0.02127 0.0
C328 C 0.63016 0.39215 0.03601 0.0
H329 H 0.32549 0.36543 0.01901 0.0
H330 H 0.44844 0.36594 0.02039 0.0
H331 H 0.5272 0.39791 0.0487 0.0
H332 H 0.88206 0.40215 0.02251 0.0
H333 H 0.75946 0.40218 0.02012 0.0
H334 H 0.67966 0.37041 0.98278 0.0
C335 C 0.42232 0.37351 0.01625 0.0
C336 C 0.56016 0.39191 0.03407 0.0
C337 C 0.35184 0.37323 0.01559 0.0
C338 C 0.85554 0.39439 0.02246 0.0
C339 C 0.78516 0.39439 0.0212 0.0
C340 C 0.647 0.37639 -0.00231 0.0
C341 C 0.4583 0.38348 0.01256 0.0
C342 C 0.53278 0.38384 0.01421 0.0
C343 C 0.74904 0.38447 0.02027 0.0
C344 C 0.67453 0.38437 0.01791 0.0
H345 H 0.32638 0.40048 0.00292 0.0
H346 H 0.44901 0.40093 0.00424 0.0
H347 H 0.55755 0.36988 0.98008 0.0
H348 H 0.88088 0.36677 0.02263 0.0
H349 H 0.7587 0.36678 0.02146 0.0
C350 C 0.1964 0.62621 0.02562 0.0
C351 C 0.16072 0.63612 0.02469 0.0
C352 C 0.26679 0.62623 0.02682 0.0
C353 C 0.40548 0.64443 0.0485 0.0
H354 H 0.52452 0.6226 -0.0014 0.0
C355 C 0.70078 0.64747 0.02961 0.0
C356 C 0.73641 0.63781 0.03494 0.0
C357 C 0.63025 0.6472 0.02911 0.0
C358 C 0.49178 0.6287 0.01291 0.0
H359 H 0.17158 0.65382 0.02304 0.0
H360 H 0.29374 0.65384 0.02417 0.0
H361 H 0.40234 0.62215 -0.00447 0.0
H362 H 0.72547 0.6203 0.04412 0.0
H363 H 0.60282 0.61988 0.0431 0.0
H364 H 0.49531 0.65108 0.06535 0.0
C365 C 0.2674 0.64605 0.02506 0.0
C366 C 0.4217 0.62842 0.01125 0.0
C367 C 0.19721 0.64603 0.02417 0.0
C368 C 0.69978 0.62791 0.04001 0.0
C369 C 0.6295 0.62763 0.03917 0.0
C370 C 0.47558 0.64476 0.04991 0.0
C371 C 0.30308 0.63617 0.02683 0.0
C372 C 0.37763 0.6363 0.02895 0.0
C373 C 0.594 0.63726 0.03358 0.0
C374 C 0.51949 0.6369 0.03212 0.0
H375 H 0.16978 0.61844 0.02621 0.0
H376 H 0.29241 0.61847 0.02851 0.0
H377 H 0.37302 0.6505 0.06309 0.0
H378 H 0.72735 0.65523 0.02561 0.0
H379 H 0.60428 0.65475 0.02451 0.0
C380 C 0.85967 0.64349 0.4975 0.0
C381 C 0.88991 0.63557 0.51665 0.0
C382 C 0.78926 0.64356 0.49744 0.0
C383 C 0.63302 0.62648 0.51724 0.0
H384 H 0.54333 0.65464 0.51552 0.0
C385 C 0.35309 0.63005 0.49369 0.0
C386 C 0.31189 0.63817 0.51198 0.0
C387 C 0.4233 0.62975 0.49472 0.0
C388 C 0.56722 0.6467 0.51641 0.0
H389 H 0.86982 0.62143 0.55056 0.0
H390 H 0.74614 0.6217 0.55125 0.0
H391 H 0.665 0.65392 0.51805 0.0
H392 H 0.31228 0.65234 0.54574 0.0
H393 H 0.43441 0.65167 0.54827 0.0
H394 H 0.53461 0.61927 0.5169 0.0
C395 C 0.7772 0.62776 0.53571 0.0
C396 C 0.63743 0.64627 0.51733 0.0
C397 C 0.84806 0.62762 0.53545 0.0
C398 C 0.34264 0.64604 0.53111 0.0
C399 C 0.41282 0.64566 0.53245 0.0
C400 C 0.56259 0.6269 0.51666 0.0
C401 C 0.74686 0.63579 0.51687 0.0
C402 C 0.67146 0.63616 0.51738 0.0
C403 C 0.45408 0.63748 0.51438 0.0
C404 C 0.52882 0.63702 0.51593 0.0
H405 H 0.89047 0.64965 0.48228 0.0
H406 H 0.76818 0.64968 0.48187 0.0
H407 H 0.65744 0.61854 0.51698 0.0
H408 H 0.33114 0.6239 0.47848 0.0
H409 H 0.45349 0.62347 0.47984 0.0
C410 C 0.69865 0.3732 0.53013 0.0
C411 C 0.7346 0.38286 0.53518 0.0
C412 C 0.62832 0.37349 0.52901 0.0
C413 C 0.47413 0.39108 0.55147 0.0
H414 H 0.40008 0.37219 0.48575 0.0
C415 C 0.19522 0.39459 0.52305 0.0
C416 C 0.15921 0.38464 0.52351 0.0
C417 C 0.26584 0.39463 0.52363 0.0
C418 C 0.41998 0.37748 0.50435 0.0
H419 H 0.72447 0.40042 0.54306 0.0
H420 H 0.60278 0.40096 0.54033 0.0
H421 H 0.52192 0.37163 0.48927 0.0
H422 H 0.16957 0.36694 0.52408 0.0
H423 H 0.29223 0.36705 0.52475 0.0
H424 H 0.37194 0.39701 0.56612 0.0
C425 C 0.62834 0.3931 0.538 0.0
C426 C 0.4898 0.37712 0.50654 0.0
C427 C 0.69843 0.39279 0.5394 0.0
C428 C 0.19556 0.37476 0.52384 0.0
C429 C 0.26602 0.3748 0.524 0.0
C430 C 0.40438 0.39151 0.54904 0.0
C431 C 0.59232 0.38347 0.53261 0.0
C432 C 0.51782 0.38387 0.53027 0.0
C433 C 0.30191 0.38473 0.52418 0.0
C434 C 0.37648 0.38466 0.52562 0.0
H435 H 0.7248 0.36539 0.52694 0.0
H436 H 0.60215 0.36587 0.52546 0.0
H437 H 0.49351 0.39629 0.57043 0.0
H438 H 0.16875 0.40234 0.5229 0.0
H439 H 0.2923 0.4024 0.52349 0.0
C440 C 0.85186 0.89288 0.00498 0.0
C441 C 0.81519 0.88298 0.01014 0.0
C442 C 0.92212 0.89315 0.00585 0.0
C443 C 0.07597 0.87602 -0.0047 0.0
H444 H 0.14934 0.89871 0.04934 0.0
C445 C 0.35448 0.87483 0.0208 0.0
C446 C 0.39097 0.88473 0.02012 0.0
C447 C 0.28427 0.8748 0.01999 0.0
C448 C 0.12994 0.89242 0.03372 0.0
H449 H 0.82416 0.86557 0.01972 0.0
H450 H 0.94723 0.86606 0.02087 0.0
H451 H 0.02712 0.89823 0.04636 0.0
H452 H 0.3819 0.90241 0.0184 0.0
H453 H 0.25921 0.90237 0.01623 0.0
H454 H 0.17852 0.87028 0.98211 0.0
C455 C 0.92129 0.8736 0.01617 0.0
C456 C 0.05984 0.89213 0.03211 0.0
C457 C 0.85077 0.87333 0.01563 0.0
C458 C 0.35527 0.89464 0.01912 0.0
C459 C 0.28485 0.89461 0.01799 0.0
C460 C 0.14609 0.87636 -0.00335 0.0
C461 C 0.95758 0.88353 0.01158 0.0
C462 C 0.03209 0.8839 0.01302 0.0
C463 C 0.24857 0.88467 0.01813 0.0
C464 C 0.17399 0.88452 0.01607 0.0
H465 H 0.82621 0.90048 0.00075 0.0
H466 H 0.94883 0.90091 0.00183 0.0
H467 H 0.05621 0.86968 0.97995 0.0
H468 H 0.38011 0.86703 0.022 0.0
H469 H 0.25792 0.867 0.021 0.0
C470 C 0.20488 0.14568 0.01415 0.0
C471 C 0.23586 0.13827 0.03475 0.0
C472 C 0.13439 0.14521 0.01334 0.0
C473 C 0.97213 0.13635 0.06398 0.0
H474 H 0.90437 0.13608 0.97485 0.0
C475 C 0.68841 0.14307 0.0507 0.0
C476 C 0.65875 0.13569 0.02939 0.0
C477 C 0.75871 0.14297 0.05151 0.0
C478 C 0.92265 0.1361 -0.0001 0.0
H479 H 0.21672 0.12472 0.07128 0.0
H480 H 0.09372 0.1241 0.07045 0.0
H481 H 0.02771 0.13707 0.97612 0.0
H482 H 0.67992 0.12242 0.99212 0.0
H483 H 0.80367 0.1224 0.99298 0.0
H484 H 0.86718 0.13556 0.08779 0.0
C485 C 0.12405 0.1302 0.05471 0.0
C486 C 0.99307 0.13676 0.00064 0.0
C487 C 0.19456 0.13054 0.05507 0.0
C488 C 0.70119 0.12818 0.00886 0.0
C489 C 0.77197 0.12821 0.0092 0.0
C490 C 0.90175 0.13587 0.06326 0.0
C491 C 0.09328 0.13746 0.0336 0.0
C492 C 1.01854 0.13688 0.0327 0.0
C493 C 0.80135 0.13559 0.03063 0.0
C494 C 0.87624 0.13574 0.03122 0.0
H495 H 0.23525 0.15169 -0.00194 0.0
H496 H 0.11192 0.15097 -0.00296 0.0
H497 H 0.99026 0.13648 0.08907 0.0
H498 H 0.65721 0.14892 0.06701 0.0
H499 H 0.77995 0.1488 0.06808 0.0
C500 C 0.35147 0.12629 0.5212 0.0
C501 C 0.38739 0.13623 0.52147 0.0
C502 C 0.28086 0.12628 0.52067 0.0
C503 C 0.12678 0.14334 0.54154 0.0
H504 H 0.05267 0.12501 0.47443 0.0
C505 C 0.84737 0.14773 0.51707 0.0
C506 C 0.81166 0.13808 0.51161 0.0
C507 C 0.91779 0.14746 0.5179 0.0
C508 C 0.07224 0.13007 0.49367 0.0
H509 H 0.37688 0.15393 0.52216 0.0
H510 H 0.25426 0.15388 0.5215 0.0
H511 H 0.17443 0.12425 0.47824 0.0
H512 H 0.82228 0.12056 0.50274 0.0
H513 H 0.9441 0.12006 0.50497 0.0
H514 H 1.02482 0.14907 0.55739 0.0
C515 C 0.28054 0.14611 0.52168 0.0
C516 C 0.14208 0.12963 0.49581 0.0
C517 C 0.35099 0.14612 0.52183 0.0
C518 C 0.84811 0.12818 0.50672 0.0
C519 C 0.91828 0.1279 0.50784 0.0
C520 C 0.05687 0.14371 0.53963 0.0
C521 C 0.24474 0.1362 0.52087 0.0
C522 C 0.17014 0.1363 0.51963 0.0
C523 C 0.95408 0.13752 0.51358 0.0
C524 C 0.02867 0.13713 0.51555 0.0
H525 H 0.37797 0.11853 0.52085 0.0
H526 H 0.25444 0.11852 0.52029 0.0
H527 H 0.14685 0.14848 0.56044 0.0
H528 H 0.82098 0.1555 0.52076 0.0
H529 H 0.94382 0.15506 0.52178 0.0
C530 C 0.6974 0.87473 0.52484 0.0
C531 C 0.66117 0.88464 0.52532 0.0
C532 C 0.76762 0.87471 0.52562 0.0
C533 C 0.92228 0.89231 0.51134 0.0
H534 H 0.99592 0.86968 0.56541 0.0
C535 C 0.20056 0.89285 0.53972 0.0
C536 C 0.23705 0.88296 0.53464 0.0
C537 C 0.13028 0.89312 0.53893 0.0
C538 C 0.97617 0.87599 0.54997 0.0
H539 H 0.67066 0.90232 0.52671 0.0
H540 H 0.79334 0.90228 0.52886 0.0
H541 H 0.87354 0.87026 0.56343 0.0
H542 H 0.22775 0.86554 0.52531 0.0
H543 H 0.10465 0.866 0.52429 0.0
H544 H 0.02518 0.89812 0.49843 0.0
C545 C 0.76751 0.89452 0.52725 0.0
C546 C 0.90602 0.87632 0.54873 0.0
C547 C 0.6971 0.89455 0.52615 0.0
C548 C 0.20128 0.8733 0.52931 0.0
C549 C 0.13074 0.87355 0.52886 0.0
C550 C 0.9924 0.89203 0.51284 0.0
C551 C 0.80356 0.88458 0.52726 0.0
C552 C 0.87817 0.88444 0.5292 0.0
C553 C 0.09464 0.88348 0.53337 0.0
C554 C 1.02011 0.88383 0.53204 0.0
H555 H 0.67158 0.86694 0.52378 0.0
H556 H 0.79379 0.86691 0.52474 0.0
H557 H 0.9029 0.89858 0.49563 0.0
H558 H 0.22636 0.90047 0.54383 0.0
H559 H 0.1037 0.90087 0.54288 0.0
C560 C 0.95087 0.55046 0.04911 0.0
C561 C 1.00492 0.55721 0.03377 0.0
C562 C 0.95679 0.53905 0.04773 0.0
C563 C 0.05303 0.51689 -0.00297 0.0
H564 H 0.97821 0.49884 0.07618 0.0
C565 C 0.10067 0.47018 0.00114 0.0
C566 C 0.04683 0.46342 0.01661 0.0
C567 C 0.09475 0.48159 0.00268 0.0
C568 C 0.9986 0.50374 0.05366 0.0
H569 H 0.10852 0.55715 0.00588 0.0
H570 H 0.11891 0.53724 0.00354 0.0
H571 H 0.97127 0.51873 0.081 0.0
H572 H 0.94363 0.46345 0.04498 0.0
H573 H 0.93314 0.48336 0.04753 0.0
H574 H 0.08029 0.50191 0.96967 0.0
C575 C 0.07145 0.54079 0.01616 0.0
C576 C 0.99474 0.51516 0.05646 0.0
C577 C 0.06555 0.55222 0.01756 0.0
C578 C 0.98642 0.46839 0.03316 0.0
C579 C 0.98048 0.47982 0.0347 0.0
C580 C 0.05685 0.50547 0.99423 0.0
C581 C 1.01688 0.53406 0.03093 0.0
C582 C 1.02193 0.52189 0.02819 0.0
C583 C 0.03482 0.48657 0.01975 0.0
C584 C 0.02971 0.49874 0.02251 0.0
H585 H 0.90293 0.55399 0.06122 0.0
H586 H 0.91338 0.53414 0.05895 0.0
H587 H 0.07343 0.5218 0.97452 0.0
H588 H 0.14846 0.46667 0.98876 0.0
H589 H 0.13802 0.48652 0.99133 0.0
C590 C 1.01566 0.46889 0.49412 0.0
C591 C 1.00896 0.46332 0.52632 0.0
C592 C 1.02123 0.48031 0.49277 0.0
C593 C 0.98196 0.50501 0.54744 0.0
H594 H 0.10325 0.51942 0.47306 0.0
C595 C 0.03413 0.55165 0.54729 0.0
C596 C 0.04125 0.55724 0.51511 0.0
C597 C 0.02871 0.54023 0.54855 0.0
C598 C 0.06842 0.51554 0.49376 0.0
H599 H 1.00509 0.46543 0.58229 0.0
H600 H 1.01508 0.48535 0.57994 0.0
H601 H 0.09958 0.49948 0.47572 0.0
H602 H 0.04615 0.55517 0.45907 0.0
H603 H 0.03625 0.53524 0.46127 0.0
H604 H 0.95073 0.52107 0.56546 0.0
C605 C 1.01485 0.48089 0.55574 0.0
C606 C 0.06643 0.50409 0.49533 0.0
C607 C 1.00928 0.46946 0.55709 0.0
C608 C 0.04157 0.55112 0.48426 0.0
C609 C 0.03608 0.53969 0.48552 0.0
C610 C 0.98392 0.51646 0.54586 0.0
C611 C 1.02021 0.48647 0.52359 0.0
C612 C 1.0232 0.49867 0.5222 0.0
C613 C 0.03023 0.53408 0.51767 0.0
C614 C 0.0272 0.52188 0.51901 0.0
H615 H 1.0143 0.46447 0.46995 0.0
H616 H 1.02429 0.48433 0.4676 0.0
H617 H 0.94716 0.50112 0.56814 0.0
H618 H 0.03502 0.55607 0.57152 0.0
H619 H 0.02532 0.5362 0.57372 0.0
C620 C 0.53075 0.96893 0.04782 0.0
C621 C 0.54198 0.9635 0.01534 0.0
C622 C 0.52503 0.98034 0.0495 0.0
C623 C 0.49183 1.00483 -0.00214 0.0
H624 H 0.58327 0.02023 0.06542 0.0
C625 C 0.5178 0.05197 -0.00326 0.0
C626 C 0.50666 0.05739 0.02923 0.0
C627 C 0.52351 0.04056 0.99504 0.0
C628 C 0.55682 0.01606 0.04665 0.0
H629 H 0.55402 0.96589 0.95915 0.0
H630 H 0.54489 0.9858 0.96206 0.0
H631 H 0.5881 1.00029 0.06252 0.0
H632 H 0.49476 0.055 0.08542 0.0
H633 H 0.50385 0.03508 0.08248 0.0
H634 H 0.46054 0.0206 0.982 0.0
C635 C 0.54008 0.98121 0.98628 0.0
C636 C 0.55952 1.00461 0.045 0.0
C637 C 0.54592 0.96979 0.98459 0.0
C638 C 0.50278 0.0511 0.05997 0.0
C639 C 0.50861 0.03967 0.05826 0.0
C640 C 0.48912 0.01628 -0.00049 0.0
C641 C 0.53034 0.98665 0.01876 0.0
C642 C 0.52702 0.99884 0.0206 0.0
C643 C 0.51828 0.03424 0.02577 0.0
C644 C 0.52161 0.02205 0.02392 0.0
H645 H 0.52831 0.96438 0.07205 0.0
H646 H 0.51662 0.98422 0.07498 0.0
H647 H 0.46539 1.00066 0.97909 0.0
H648 H 0.52019 0.05651 0.97252 0.0
H649 H 0.53187 0.03667 0.96956 0.0
C650 C 0.59881 0.05067 0.49818 0.0
C651 C 0.54421 0.05736 0.51302 0.0
C652 C 0.59347 0.03925 0.49999 0.0
C653 C 0.46855 0.01646 0.51558 0.0
H654 H 0.62462 1.00006 0.53713 0.0
C655 C 0.45052 0.9703 0.54814 0.0
C656 C 0.50515 0.96361 0.53335 0.0
C657 C 0.45585 0.98171 0.54632 0.0
C658 C 0.5808 1.0045 0.53073 0.0
H659 H 0.44032 0.0572 0.54055 0.0
H660 H 0.43133 0.03728 0.54413 0.0
H661 H 0.6319 0.01994 0.53161 0.0
H662 H 0.60907 0.96376 0.50587 0.0
H663 H 0.61806 0.98368 0.50224 0.0
H664 H 0.41745 1.00103 0.51469 0.0
C665 C 0.47821 0.04088 0.53086 0.0
C666 C 0.58498 0.01591 0.52752 0.0
C667 C 0.48358 0.05231 0.52909 0.0
C668 C 0.5658 0.96865 0.5173 0.0
C669 C 0.57116 0.98008 0.5155 0.0
C670 C 0.46437 1.00506 0.51878 0.0
C671 C 0.5334 0.0342 0.51669 0.0
C672 C 0.52892 0.02204 0.51988 0.0
C673 C 0.51594 0.98676 0.52964 0.0
C674 C 0.52043 0.99892 0.52643 0.0
H675 H 0.64662 0.05425 0.48601 0.0
H676 H 0.63665 0.03438 0.48836 0.0
H677 H 0.42473 0.0209 0.50918 0.0
H678 H 0.40269 0.96672 0.5603 0.0
H679 H 0.41265 0.98659 0.55792 0.0
C680 C 0.22398 0.30148 0.04043 0.0
C681 C 0.21721 0.30608 0.00775 0.0
C682 C 0.24014 0.29039 0.0433 0.0
C683 C 0.3126 0.26636 0.99204 0.0
H684 H 0.21482 0.24984 0.06961 0.0
C685 C 0.33362 0.21924 0.00013 0.0
C686 C 0.33955 0.21468 0.03298 0.0
C687 C 0.31714 0.2303 -0.00297 0.0
C688 C 0.24315 0.25435 0.04799 0.0
H689 H 0.22427 0.30263 0.95228 0.0
H690 H 0.25184 0.28327 0.95732 0.0
H691 H 0.19175 0.26932 0.06417 0.0
H692 H 0.3306 0.21818 0.08849 0.0
H693 H 0.30281 0.2375 0.08305 0.0
H694 H 0.36412 0.25139 0.9759 0.0
C695 C 0.24493 0.28826 0.98075 0.0
C696 C 0.22996 0.26553 0.04488 0.0
C697 C 0.22854 0.29935 0.97789 0.0
C698 C 0.32709 0.22143 0.06274 0.0
C699 C 0.3105 0.2325 0.05965 0.0
C700 C 0.32584 0.25517 0.99517 0.0
C701 C 0.25013 0.28361 0.01356 0.0
C702 C 0.26456 0.2717 0.01689 0.0
C703 C 0.30606 0.23711 0.0267 0.0
C704 C 0.2913 0.24901 0.02319 0.0
H705 H 0.21482 0.30636 0.06405 0.0
H706 H 0.24462 0.28713 0.06891 0.0
H707 H 0.34088 0.27087 0.97043 0.0
H708 H 0.34363 0.21433 0.97657 0.0
H709 H 0.31326 0.23352 0.9713 0.0
C710 C 0.72478 0.80165 0.04238 0.0
C711 C 0.71372 0.80608 0.01009 0.0
C712 C 0.74124 0.79058 0.04528 0.0
C713 C 0.80659 0.76623 0.99335 0.0
H714 H 0.7187 0.75018 0.07445 0.0
C715 C 0.82616 0.71914 0.00277 0.0
C716 C 0.83723 0.71472 0.03507 0.0
C717 C 0.80964 0.73021 -0.00012 0.0
C718 C 0.74425 0.75455 0.05181 0.0
H719 H 0.71348 0.80233 0.95526 0.0
H720 H 0.74142 0.78299 0.96038 0.0
H721 H 0.69535 0.76965 0.06893 0.0
H722 H 0.83744 0.71847 0.08989 0.0
H723 H 0.80942 0.7378 0.08478 0.0
H724 H 0.85549 0.75114 0.97623 0.0
C725 C 0.73771 0.78811 0.98348 0.0
C726 C 0.73093 0.76574 0.04865 0.0
C727 C 0.72107 0.79918 0.9806 0.0
C728 C 0.82984 0.72161 0.06456 0.0
C729 C 0.81315 0.73268 0.06169 0.0
C730 C 0.81991 0.75505 -0.0035 0.0
C731 C 0.74722 0.78363 0.01595 0.0
C732 C 0.76194 0.77173 0.01939 0.0
C733 C 0.80364 0.73716 0.02921 0.0
C734 C 0.7889 0.74906 0.02577 0.0
H735 H 0.71877 0.80667 0.06575 0.0
H736 H 0.74911 0.78746 0.07059 0.0
H737 H 0.83214 0.77061 0.97071 0.0
H738 H 0.83219 0.71412 0.97941 0.0
H739 H 0.80177 0.73333 0.97457 0.0
C740 C 0.26882 0.71793 0.51786 0.0
C741 C 0.2045 0.71496 0.50949 0.0
C742 C 0.28633 0.72897 0.52096 0.0
C743 C 0.23841 0.75709 0.49716 0.0
H744 H 0.33458 0.76579 0.57305 0.0
C745 C 0.27709 0.80263 0.5308 0.0
C746 C 0.34179 0.80564 0.53854 0.0
C747 C 0.25966 0.79158 0.528 0.0
C748 C 0.30829 0.76349 0.55151 0.0
H749 H 0.10797 0.72138 0.49822 0.0
H750 H 0.13853 0.74054 0.50347 0.0
H751 H 0.30731 0.74653 0.56567 0.0
H752 H 0.43891 0.7993 0.54923 0.0
H753 H 0.40836 0.7801 0.54461 0.0
H754 H 0.23932 0.77405 0.48303 0.0
C755 C 0.17598 0.73435 0.50707 0.0
C756 C 0.29276 0.75243 0.54722 0.0
C757 C 0.15849 0.72333 0.50398 0.0
C758 C 0.38814 0.79731 0.54393 0.0
C759 C 0.37067 0.78627 0.54119 0.0
C760 C 0.25388 0.76814 0.50146 0.0
C761 C 0.23996 0.73732 0.51579 0.0
C762 C 0.25758 0.74908 0.52 0.0
C763 C 0.30644 0.78326 0.5329 0.0
C764 C 0.28901 0.77149 0.52869 0.0
H765 H 0.30581 0.71171 0.52189 0.0
H766 H 0.33646 0.73095 0.52719 0.0
H767 H 0.2122 0.75479 0.47559 0.0
H768 H 0.23979 0.80881 0.52693 0.0
H769 H 0.20933 0.78955 0.52213 0.0
C770 C 0.8241 0.29927 0.56816 0.0
C771 C 0.83211 0.30624 0.53883 0.0
C772 C 0.80747 0.28821 0.56491 0.0
C773 C 0.81583 0.26603 0.4991 0.0
H774 H 0.69053 0.25115 0.57068 0.0
C775 C 0.7184 0.22184 0.48187 0.0
C776 C 0.71093 0.21488 0.51124 0.0
C777 C 0.73474 0.23292 0.48501 0.0
C778 C 0.72631 0.25514 0.55064 0.0
H779 H 0.82809 0.30698 0.48309 0.0
H780 H 0.79769 0.28779 0.4776 0.0
H781 H 0.71315 0.27063 0.57676 0.0
H782 H 0.71554 0.21418 0.56693 0.0
H783 H 0.74536 0.23341 0.57223 0.0
H784 H 0.82897 0.25053 0.47298 0.0
C785 C 0.80508 0.29085 0.50307 0.0
C786 C 0.73921 0.26633 0.55412 0.0
C787 C 0.82157 0.30191 0.50633 0.0
C788 C 0.72164 0.21925 0.54366 0.0
C789 C 0.73781 0.23033 0.54682 0.0
C790 C 0.80291 0.25484 0.49562 0.0
C791 C 0.7986 0.28382 0.53222 0.0
C792 C 0.78414 0.27192 0.52839 0.0
C793 C 0.74381 0.23734 0.51763 0.0
C794 C 0.75803 0.24924 0.52137 0.0
H795 H 0.83128 0.30235 0.59364 0.0
H796 H 0.80334 0.28303 0.58789 0.0
H797 H 0.85164 0.27002 0.47907 0.0
H798 H 0.71105 0.21873 0.45645 0.0
H799 H 0.73853 0.23808 0.46202 0.0
C800 C 0.08476 0.39153 0.14323 0.0
C801 C 0.07886 0.38195 0.1239 0.0
C802 C 0.07228 0.39131 0.17973 0.0
C803 C 0.99153 0.37421 0.25463 0.0
H804 H 0.09188 0.3938 0.30747 0.0
C805 C 0.99032 0.3721 0.40497 0.0
C806 C 0.97247 0.38198 0.42265 0.0
C807 C 1.00253 0.37183 0.36842 0.0
C808 C 0.06344 0.38832 0.29294 0.0
H809 H 0.05694 0.36456 0.12739 0.0
H810 H 0.0383 0.36403 0.19113 0.0
H811 H 0.11757 0.39358 0.24379 0.0
H812 H 0.95381 0.39931 0.41618 0.0
H813 H 0.97715 0.39886 0.3522 0.0
H814 H 0.93934 0.36873 0.3043 0.0
C815 C 0.05013 0.37182 0.17826 0.0
C816 C 0.0777 0.38823 0.25646 0.0
C817 C 0.06128 0.37209 0.1417 0.0
C818 C 0.96716 0.39157 0.4032 0.0
C819 C 0.9808 0.39134 0.3667 0.0
C820 C 0.97831 0.37416 0.29117 0.0
C821 C 0.05499 0.38145 0.19779 0.0
C822 C 0.04145 0.38126 0.23675 0.0
C823 C 0.99855 0.38147 0.34907 0.0
C824 C 1.01371 0.38129 0.31053 0.0
H825 H 0.09752 0.39928 0.13014 0.0
H826 H 0.07507 0.39895 0.1937 0.0
H827 H 0.96162 0.36887 0.24047 0.0
H828 H 0.99452 0.36458 0.41937 0.0
H829 H 1.01637 0.36414 0.35527 0.0
C830 C 0.97072 0.62679 0.15084 0.0
C831 C 0.95745 0.63654 0.13379 0.0
C832 C 0.98648 0.62702 0.18484 0.0
C833 C 0.98292 0.64476 0.26349 0.0
H834 H 0.12052 0.6243 0.28497 0.0
C835 C 0.09928 0.64649 0.39228 0.0
C836 C 0.09818 0.63649 0.41036 0.0
C837 C 0.08519 0.64681 0.35788 0.0
C838 C 0.08188 0.63003 0.27936 0.0
H839 H 0.94895 0.65417 0.13931 0.0
H840 H 0.97811 0.65462 0.19838 0.0
H841 H 0.08717 0.6243 0.22682 0.0
H842 H 0.08397 0.61894 0.40615 0.0
H843 H 0.06073 0.6195 0.34596 0.0
H844 H 0.97888 0.65059 0.3161 0.0
C845 C 0.97504 0.64676 0.18578 0.0
C846 C 0.06233 0.63 0.24611 0.0
C847 C 0.9584 0.64651 0.15186 0.0
C848 C 0.08514 0.62678 0.39294 0.0
C849 C 0.07206 0.62709 0.35844 0.0
C850 C 1.00311 0.64488 0.29666 0.0
C851 C 0.99035 0.63702 0.20252 0.0
C852 C 1.01201 0.63728 0.23782 0.0
C853 C 0.07082 0.63712 0.34076 0.0
C854 C 0.05231 0.63744 0.305 0.0
H855 H 0.96976 0.61896 0.13774 0.0
H856 H 0.99613 0.61933 0.19717 0.0
H857 H 0.94347 0.65039 0.25827 0.0
H858 H 0.10876 0.65412 0.40505 0.0
H859 H 0.08509 0.65465 0.34472 0.0
C860 C 0.99176 0.64763 0.90349 0.0
C861 C 0.9745 0.63784 0.92188 0.0
C862 C 1.00237 0.64771 0.86692 0.0
C863 C 0.05952 0.63097 0.79154 0.0
H864 H 0.9548 0.65025 0.74019 0.0
C865 C 0.0784 0.62809 0.64162 0.0
C866 C 0.07144 0.63772 0.62269 0.0
C867 C 0.06608 0.62815 0.67816 0.0
C868 C 0.9855 0.64495 0.754 0.0
H869 H 0.9555 0.62047 0.91661 0.0
H870 H 0.97618 0.62058 0.85253 0.0
H871 H 0.93519 0.65045 0.80402 0.0
H872 H 0.04768 0.65502 0.62693 0.0
H873 H 0.02944 0.6553 0.69065 0.0
H874 H 0.11197 0.62573 0.74202 0.0
C875 C 0.98053 0.62818 0.86652 0.0
C876 C 0.97378 0.64503 0.79056 0.0
C877 C 0.96843 0.62813 0.90308 0.0
C878 C 0.0528 0.64745 0.64092 0.0
C879 C 0.04187 0.64758 0.67749 0.0
C880 C 0.07231 0.63104 0.75501 0.0
C881 C 0.9974 0.63797 0.8482 0.0
C882 C 1.01038 0.63799 0.80957 0.0
C883 C 0.04792 0.63791 0.69665 0.0
C884 C 0.03515 0.63798 0.73567 0.0
H885 H 0.99651 0.65523 0.91736 0.0
H886 H 1.01559 0.65534 0.85324 0.0
H887 H 0.08883 0.62555 0.80577 0.0
H888 H 0.09205 0.62044 0.62818 0.0
H889 H 0.06985 0.62048 0.69181 0.0
C890 C 1.00525 0.39305 0.64463 0.0
C891 C 0.96124 0.3852 0.63345 0.0
C892 C 1.02009 0.39289 0.67876 0.0
C893 C 1.01639 0.37494 0.75637 0.0
H894 H 0.04082 0.40255 0.80245 0.0
C895 C 0.11839 0.37725 0.88915 0.0
C896 C 0.08877 0.38516 0.91316 0.0
C897 C 0.10386 0.37717 0.85478 0.0
C898 C 0.03357 0.39475 0.79018 0.0
H899 H 0.89752 0.3711 0.6496 0.0
H900 H 0.92182 0.37103 0.70975 0.0
H901 H 1.00854 0.40256 0.74438 0.0
H902 H 1.0201 0.39911 0.91995 0.0
H903 H 0.99376 0.39879 0.86079 0.0
H904 H 0.03894 0.36715 0.80292 0.0
C905 C 0.94606 0.37717 0.69179 0.0
C906 C 1.01592 0.39476 0.75658 0.0
C907 C 0.93165 0.37726 0.6574 0.0
C908 C 0.04457 0.39297 0.90207 0.0
C909 C 0.0296 0.39282 0.86797 0.0
C910 C 0.03347 0.37493 0.79021 0.0
C911 C 0.99076 0.38496 0.70283 0.0
C912 C 1.0074 0.38486 0.73913 0.0
C913 C 0.059 0.38493 0.84383 0.0
C914 C 0.04229 0.38485 0.80754 0.0
H915 H 0.02967 0.39921 0.62681 0.0
H916 H 0.05579 0.39889 0.68602 0.0
H917 H 1.01107 0.36716 0.74358 0.0
H918 H 0.15266 0.37112 0.89688 0.0
H919 H 0.12814 0.37106 0.83676 0.0
C920 C 0.5823 0.89278 0.14168 0.0
C921 C 0.5763 0.88308 0.12291 0.0
C922 C 0.56985 0.89277 0.17823 0.0
C923 C 0.48978 0.87591 0.2541 0.0
H924 H 0.59071 0.89566 0.30611 0.0
C925 C 0.49415 0.87331 0.40362 0.0
C926 C 0.47632 0.88306 0.42204 0.0
C927 C 0.5052 0.87327 0.36705 0.0
C928 C 0.56204 0.89015 0.29182 0.0
H929 H 0.55436 0.86571 0.12746 0.0
H930 H 0.5359 0.86553 0.19116 0.0
H931 H 0.61464 0.89546 0.24236 0.0
H932 H 0.45672 0.90041 0.41685 0.0
H933 H 0.47809 0.90036 0.35277 0.0
H934 H 0.43931 0.87034 0.30403 0.0
C935 C 0.54762 0.87326 0.17787 0.0
C936 C 0.57531 0.89007 0.25528 0.0
C937 C 0.55871 0.87333 0.14131 0.0
C938 C 0.4701 0.89277 0.40328 0.0
C939 C 0.4826 0.89277 0.36673 0.0
C940 C 0.47758 0.87585 0.29065 0.0
C941 C 0.55247 0.883 0.19687 0.0
C942 C 0.5391 0.88298 0.23587 0.0
C943 C 0.50005 0.88301 0.34837 0.0
C944 C 0.51334 0.88301 0.30975 0.0
H945 H 0.59515 0.90044 0.12812 0.0
H946 H 0.57275 0.90048 0.19177 0.0
H947 H 0.45975 0.87051 0.24022 0.0
H948 H 0.49904 0.8657 0.41745 0.0
H949 H 0.51886 0.86566 0.35335 0.0
C950 C 0.46638 0.12664 0.1523 0.0
C951 C 0.45309 0.13637 0.13521 0.0
C952 C 0.48171 0.12688 0.18639 0.0
C953 C 0.47718 0.14465 0.26506 0.0
H954 H 0.61518 0.12431 0.28681 0.0
C955 C 0.59405 0.14669 0.39364 0.0
C956 C 0.59332 0.13672 0.41189 0.0
C957 C 0.57962 0.14693 0.3593 0.0
C958 C 0.57642 0.13001 0.28112 0.0
H959 H 0.44411 0.154 0.14073 0.0
H960 H 0.47255 0.15448 0.19992 0.0
H961 H 0.582 0.12423 0.22862 0.0
H962 H 0.57936 0.11915 0.40805 0.0
H963 H 0.55551 0.11958 0.34796 0.0
H964 H 0.47292 0.15054 0.31761 0.0
C965 C 0.46978 0.14661 0.18731 0.0
C966 C 0.55696 0.12993 0.24785 0.0
C967 C 0.45355 0.14635 0.15331 0.0
C968 C 0.58022 0.12697 0.39472 0.0
C969 C 0.5668 0.1272 0.36027 0.0
C970 C 0.4973 0.14482 0.29823 0.0
C971 C 0.48515 0.13689 0.2041 0.0
C972 C 0.50654 0.13717 0.23946 0.0
C973 C 0.56528 0.13719 0.34241 0.0
C974 C 0.54666 0.13743 0.30667 0.0
H975 H 0.46581 0.11881 0.13917 0.0
H976 H 0.49142 0.1192 0.19875 0.0
H977 H 0.43764 0.15025 0.25975 0.0
H978 H 0.6036 0.15434 0.40622 0.0
H979 H 0.57932 0.15473 0.34599 0.0
C980 C 0.46952 0.1284 0.90416 0.0
C981 C 0.47661 0.13803 0.92318 0.0
C982 C 0.48234 0.12849 0.86762 0.0
C983 C 0.47867 0.14555 0.79195 0.0
H984 H 0.61414 0.12582 0.74327 0.0
C985 C 0.55692 0.14786 0.64231 0.0
C986 C 0.57378 0.13807 0.62404 0.0
C987 C 0.54664 0.14799 0.67887 0.0
C988 C 0.57525 0.13126 0.75631 0.0
H989 H 0.50131 0.15534 0.91908 0.0
H990 H 0.52163 0.15554 0.85495 0.0
H991 H 0.59097 0.12562 0.80704 0.0
H992 H 0.59208 0.12071 0.62948 0.0
H993 H 0.57097 0.12079 0.69313 0.0
H994 H 0.46036 0.15091 0.74162 0.0
C995 C 0.50708 0.14793 0.86846 0.0
C996 C 0.56246 0.13118 0.79284 0.0
C997 C 0.49574 0.14779 0.90503 0.0
C998 C 0.57979 0.1284 0.64294 0.0
C999 C 0.56811 0.12848 0.67949 0.0
C1000 C 0.49037 0.14549 0.75539 0.0
C1001 C 0.50097 0.13826 0.84952 0.0
C1002 C 0.51427 0.13834 0.81091 0.0
C1003 C 0.55155 0.13828 0.69801 0.0
C1004 C 0.53902 0.13836 0.73702 0.0
H1005 H 0.45515 0.12075 0.91752 0.0
H1006 H 0.47708 0.12095 0.85346 0.0
H1007 H 0.4408 0.15108 0.80544 0.0
H1008 H 0.5526 0.15546 0.62835 0.0
H1009 H 0.5355 0.15575 0.69204 0.0
C1010 C 0.4679 0.89379 0.65159 0.0
C1011 C 0.45479 0.88407 0.63426 0.0
C1012 C 0.48115 0.8935 0.68607 0.0
C1013 C 0.55005 0.87577 0.74801 0.0
H1014 H 0.46555 0.89635 0.81769 0.0
C1015 C 0.59392 0.87421 0.89295 0.0
C1016 C 0.59475 0.88419 0.91097 0.0
C1017 C 0.57749 0.87394 0.85899 0.0
C1018 C 0.49052 0.89065 0.79845 0.0
H1019 H 0.44431 0.86644 0.63968 0.0
H1020 H 0.46827 0.86595 0.69996 0.0
H1021 H 0.4325 0.89632 0.75949 0.0
H1022 H 0.58247 0.90176 0.90689 0.0
H1023 H 0.55648 0.90135 0.8474 0.0
H1024 H 0.60951 0.87027 0.78651 0.0
C1025 C 0.46811 0.87378 0.68675 0.0
C1026 C 0.47114 0.8906 0.76517 0.0
C1027 C 0.45387 0.87407 0.65238 0.0
C1028 C 0.58159 0.89392 0.89384 0.0
C1029 C 0.56605 0.89367 0.85979 0.0
C1030 C 0.57007 0.8759 0.78121 0.0
C1031 C 0.48245 0.88348 0.7038 0.0
C1032 C 0.50086 0.88319 0.73958 0.0
C1033 C 0.56228 0.88366 0.84217 0.0
C1034 C 0.54081 0.88339 0.80683 0.0
H1035 H 0.46892 0.90162 0.63836 0.0
H1036 H 0.49246 0.9011 0.6985 0.0
H1037 H 0.57439 0.87005 0.72861 0.0
H1038 H 0.60329 0.86655 0.90556 0.0
H1039 H 0.5745 0.86606 0.84642 0.0
loop_
_geom_bond_atom_site_label_1
_geom_bond_atom_site_label_2
_geom_bond_distance
_geom_bond_site_symmetry_2
_ccdc_geom_bond_type
Tb0 C9 2.764 . S
Tb0 O10 2.325 . S
Tb0 O13 2.303 . S
Tb0 O17 2.322 1_455 S
Tb0 O18 2.349 1_554 S
Tb0 O21 2.415 . S
Tb0 O22 2.399 1_554 S
Tb1 O11 2.322 . S
Tb1 O12 2.349 . S
Tb1 O14 2.415 1_554 S
Tb1 O15 2.399 . S
Tb1 O16 2.325 1_455 S
Tb1 O19 2.303 1_554 S
Tb1 C30 2.764 . S
C2 O18 1.261 . S
C2 O19 1.257 . S
C3 C6 1.358 . S
C3 C7 1.332 . S
C3 C9 1.504 . S
C4 C5 1.373 . S
C4 C8 1.308 . S
C5 C4 1.373 . S
C5 C6 1.429 . S
C5 H32 0.932 1_554 S
C6 C3 1.358 . S
C6 C5 1.429 . S
C6 H33 0.930 1_554 S
C7 C3 1.332 . S
C7 C8 1.394 . S
C7 H34 0.932 . S
C8 C4 1.308 . S
C8 C7 1.394 . S
C8 H35 0.929 . S
C9 Tb0 2.764 . S
C9 C3 1.504 . S
C9 O21 1.239 . S
C9 O22 1.263 1_554 S
O10 Tb0 2.325 . S
O10 C20 1.236 . S
O11 Tb1 2.322 . S
O11 C20 1.257 . S
O12 Tb1 2.349 . S
O12 C23 1.261 . S
O13 Tb0 2.303 . S
O13 C23 1.257 . S
O14 Tb1 2.415 1_556 S
O14 C30 1.239 1_556 S
O15 Tb1 2.399 . S
O15 C30 1.263 . S
O16 Tb1 2.325 1_655 S
O16 C31 1.236 . S
O17 Tb0 2.322 1_655 S
O17 C31 1.257 . S
O18 Tb0 2.349 1_556 S
O18 C2 1.261 . S
O19 Tb1 2.303 1_556 S
O19 C2 1.257 . S
C20 O10 1.236 . S
C20 O11 1.257 . S
O21 Tb0 2.415 . S
O21 C9 1.239 . S
O22 Tb0 2.399 1_556 S
O22 C9 1.263 1_556 S
C23 O12 1.261 . S
C23 O13 1.257 . S
C24 C27 1.358 . S
C24 C28 1.332 1_554 S
C24 C30 1.504 1_655 S
C25 C26 1.373 . S
C25 C29 1.308 1_554 S
C26 C25 1.373 . S
C26 C27 1.429 . S
C26 H36 0.932 . S
C27 C24 1.358 . S
C27 C26 1.429 . S
C27 H37 0.930 . S
C28 C24 1.332 1_556 S
C28 C29 1.394 . S
C28 H38 0.932 . S
C29 C25 1.308 1_556 S
C29 C28 1.394 . S
C29 H39 0.929 . S
C30 Tb1 2.764 . S
C30 O14 1.239 1_554 S
C30 O15 1.263 . S
C30 C24 1.504 1_455 S
C31 O16 1.236 . S
C31 O17 1.257 . S
H32 C5 0.932 1_556 S
H33 C6 0.930 1_556 S
H34 C7 0.932 . S
H35 C8 0.929 . S
H36 C26 0.932 . S
H37 C27 0.930 . S
H38 C28 0.932 . S
H39 C29 0.929 . S
Tb40 C49 2.764 . S
Tb40 O50 2.325 1_655 S
Tb40 O53 2.303 . S
Tb40 O57 2.322 . S
Tb40 O58 2.349 1_554 S
Tb40 O61 2.415 . S
Tb40 O62 2.399 . S
Tb41 O51 2.322 1_655 S
Tb41 O52 2.349 . S
Tb41 O54 2.415 . S
Tb41 O55 2.399 . S
Tb41 O56 2.325 . S
Tb41 O59 2.303 1_554 S
Tb41 C70 2.764 . S
C42 O58 1.261 . S
C42 O59 1.257 . S
C43 C46 1.358 . S
C43 C47 1.332 . S
C43 C49 1.504 1_455 S
C44 C45 1.373 . S
C44 C48 1.308 . S
C45 C44 1.373 . S
C45 C46 1.429 . S
C45 H72 0.932 1_554 S
C46 C43 1.358 . S
C46 C45 1.429 . S
C46 H73 0.930 1_554 S
C47 C43 1.332 . S
C47 C48 1.394 . S
C47 H74 0.932 . S
C48 C44 1.308 . S
C48 C47 1.394 . S
C48 H75 0.929 . S
C49 Tb40 2.764 . S
C49 C43 1.504 1_655 S
C49 O61 1.239 . S
C49 O62 1.263 . S
O50 Tb40 2.325 1_455 S
O50 C60 1.236 . S
O51 Tb41 2.322 1_455 S
O51 C60 1.257 . S
O52 Tb41 2.349 . S
O52 C63 1.261 . S
O53 Tb40 2.303 . S
O53 C63 1.257 . S
O54 Tb41 2.415 . S
O54 C70 1.239 . S
O55 Tb41 2.399 . S
O55 C70 1.263 . S
O56 Tb41 2.325 . S
O56 C71 1.236 . S
O57 Tb40 2.322 . S
O57 C71 1.257 . S
O58 Tb40 2.349 1_556 S
O58 C42 1.261 . S
O59 Tb41 2.303 1_556 S
O59 C42 1.257 . S
C60 O50 1.236 . S
C60 O51 1.257 . S
O61 Tb40 2.415 . S
O61 C49 1.239 . S
O62 Tb40 2.399 . S
O62 C49 1.263 . S
C63 O52 1.261 . S
C63 O53 1.257 . S
C64 C67 1.358 . S
C64 C68 1.332 1_554 S
C64 C70 1.504 . S
C65 C66 1.373 . S
C65 C69 1.308 1_554 S
C66 C65 1.373 . S
C66 C67 1.429 . S
C66 H76 0.932 . S
C67 C64 1.358 . S
C67 C66 1.429 . S
C67 H77 0.930 . S
C68 C64 1.332 1_556 S
C68 C69 1.394 . S
C68 H78 0.932 . S
C69 C65 1.308 1_556 S
C69 C68 1.394 . S
C69 H79 0.929 . S
C70 Tb41 2.764 . S
C70 O54 1.239 . S
C70 O55 1.263 . S
C70 C64 1.504 . S
C71 O56 1.236 . S
C71 O57 1.257 . S
H72 C45 0.932 1_556 S
H73 C46 0.930 1_556 S
H74 C47 0.932 . S
H75 C48 0.929 . S
H76 C66 0.932 . S
H77 C67 0.930 . S
H78 C68 0.932 . S
H79 C69 0.929 . S
Tb80 C89 2.764 . S
Tb80 O90 2.325 1_455 S
Tb80 O93 2.303 . S
Tb80 O97 2.322 . S
Tb80 O98 2.349 . S
Tb80 O101 2.415 . S
Tb80 O102 2.399 . S
Tb81 O91 2.322 1_455 S
Tb81 O92 2.349 . S
Tb81 O94 2.415 . S
Tb81 O95 2.399 . S
Tb81 O96 2.325 . S
Tb81 O99 2.303 . S
Tb81 C110 2.764 . S
C82 O98 1.261 . S
C82 O99 1.257 . S
C83 C86 1.358 . S
C83 C87 1.332 . S
C83 C89 1.504 1_655 S
C84 C85 1.373 . S
C84 C88 1.308 . S
C85 C84 1.373 . S
C85 C86 1.429 . S
C85 H112 0.932 . S
C86 C83 1.358 . S
C86 C85 1.429 . S
C86 H113 0.930 . S
C87 C83 1.332 . S
C87 C88 1.394 . S
C87 H114 0.932 . S
C88 C84 1.308 . S
C88 C87 1.394 . S
C88 H115 0.929 . S
C89 Tb80 2.764 . S
C89 C83 1.504 1_455 S
C89 O101 1.239 . S
C89 O102 1.263 . S
O90 Tb80 2.325 1_655 S
O90 C100 1.236 . S
O91 Tb81 2.322 1_655 S
O91 C100 1.257 . S
O92 Tb81 2.349 . S
O92 C103 1.261 . S
O93 Tb80 2.303 . S
O93 C103 1.257 . S
O94 Tb81 2.415 . S
O94 C110 1.239 . S
O95 Tb81 2.399 . S
O95 C110 1.263 . S
O96 Tb81 2.325 . S
O96 C111 1.236 . S
O97 Tb80 2.322 . S
O97 C111 1.257 . S
O98 Tb80 2.349 . S
O98 C82 1.261 . S
O99 Tb81 2.303 . S
O99 C82 1.257 . S
C100 O90 1.236 . S
C100 O91 1.257 . S
O101 Tb80 2.415 . S
O101 C89 1.239 . S
O102 Tb80 2.399 . S
O102 C89 1.263 . S
C103 O92 1.261 . S
C103 O93 1.257 . S
C104 C107 1.358 . S
C104 C108 1.332 . S
C104 C110 1.504 . S
C105 C106 1.373 . S
C105 C109 1.308 . S
C106 C105 1.373 . S
C106 C107 1.429 . S
C106 H116 0.932 . S
C107 C104 1.358 . S
C107 C106 1.429 . S
C107 H117 0.930 . S
C108 C104 1.332 . S
C108 C109 1.394 . S
C108 H118 0.932 . S
C109 C105 1.308 . S
C109 C108 1.394 . S
C109 H119 0.929 . S
C110 Tb81 2.764 . S
C110 O94 1.239 . S
C110 O95 1.263 . S
C110 C104 1.504 . S
C111 O96 1.236 . S
C111 O97 1.257 . S
H112 C85 0.932 . S
H113 C86 0.930 . S
H114 C87 0.932 . S
H115 C88 0.929 . S
H116 C106 0.932 . S
H117 C107 0.930 . S
H118 C108 0.932 . S
H119 C109 0.929 . S
Tb120 C129 2.764 . S
Tb120 O130 2.325 . S
Tb120 O133 2.303 . S
Tb120 O137 2.322 1_655 S
Tb120 O138 2.349 . S
Tb120 O141 2.415 . S
Tb120 O142 2.399 . S
Tb121 O131 2.322 . S
Tb121 O132 2.349 . S
Tb121 O134 2.415 . S
Tb121 O135 2.399 . S
Tb121 O136 2.325 1_655 S
Tb121 O139 2.303 . S
Tb121 C150 2.764 . S
C122 O138 1.261 . S
C122 O139 1.257 . S
C123 C126 1.358 . S
C123 C127 1.332 . S
C123 C129 1.504 . S
C124 C125 1.373 . S
C124 C128 1.308 . S
C125 C124 1.373 . S
C125 C126 1.429 . S
C125 H152 0.932 . S
C126 C123 1.358 . S
C126 C125 1.429 . S
C126 H153 0.930 . S
C127 C123 1.332 . S
C127 C128 1.394 . S
C127 H154 0.932 . S
C128 C124 1.308 . S
C128 C127 1.394 . S
C128 H155 0.929 . S
C129 Tb120 2.764 . S
C129 C123 1.504 . S
C129 O141 1.239 . S
C129 O142 1.263 . S
O130 Tb120 2.325 . S
O130 C140 1.236 . S
O131 Tb121 2.322 . S
O131 C140 1.257 . S
O132 Tb121 2.349 . S
O132 C143 1.261 . S
O133 Tb120 2.303 . S
O133 C143 1.257 . S
O134 Tb121 2.415 . S
O134 C150 1.239 . S
O135 Tb121 2.399 . S
O135 C150 1.263 . S
O136 Tb121 2.325 1_455 S
O136 C151 1.236 . S
O137 Tb120 2.322 1_455 S
O137 C151 1.257 . S
O138 Tb120 2.349 . S
O138 C122 1.261 . S
O139 Tb121 2.303 . S
O139 C122 1.257 . S
C140 O130 1.236 . S
C140 O131 1.257 . S
O141 Tb120 2.415 . S
O141 C129 1.239 . S
O142 Tb120 2.399 . S
O142 C129 1.263 . S
C143 O132 1.261 . S
C143 O133 1.257 . S
C144 C147 1.358 . S
C144 C148 1.332 . S
C144 C150 1.504 1_455 S
C145 C146 1.373 . S
C145 C149 1.308 . S
C146 C145 1.373 . S
C146 C147 1.429 . S
C146 H156 0.932 . S
C147 C144 1.358 . S
C147 C146 1.429 . S
C147 H157 0.930 . S
C148 C144 1.332 . S
C148 C149 1.394 . S
C148 H158 0.932 . S
C149 C145 1.308 . S
C149 C148 1.394 . S
C149 H159 0.929 . S
C150 Tb121 2.764 . S
C150 O134 1.239 . S
C150 O135 1.263 . S
C150 C144 1.504 1_655 S
C151 O136 1.236 . S
C151 O137 1.257 . S
H152 C125 0.932 . S
H153 C126 0.930 . S
H154 C127 0.932 . S
H155 C128 0.929 . S
H156 C146 0.932 . S
H157 C147 0.930 . S
H158 C148 0.932 . S
H159 C149 0.929 . S
Tb160 C169 2.764 . S
Tb160 O170 2.325 . S
Tb160 O173 2.303 . S
Tb160 O177 2.322 . S
Tb160 O178 2.349 1_554 S
Tb160 O181 2.415 . S
Tb160 O182 2.399 1_554 S
Tb161 O171 2.322 . S
Tb161 O172 2.349 . S
Tb161 O174 2.415 1_554 S
Tb161 O175 2.399 . S
Tb161 O176 2.325 . S
Tb161 O179 2.303 1_554 S
Tb161 C190 2.764 . S
C162 O178 1.261 . S
C162 O179 1.257 . S
C163 C166 1.358 . S
C163 C167 1.332 . S
C163 C169 1.504 . S
C164 C165 1.373 . S
C164 C168 1.308 . S
C165 C164 1.373 . S
C165 C166 1.429 . S
C165 H192 0.932 1_554 S
C166 C163 1.358 . S
C166 C165 1.429 . S
C166 H193 0.930 1_554 S
C167 C163 1.332 . S
C167 C168 1.394 . S
C167 H194 0.932 . S
C168 C164 1.308 . S
C168 C167 1.394 . S
C168 H195 0.929 . S
C169 Tb160 2.764 . S
C169 C163 1.504 . S
C169 O181 1.239 . S
C169 O182 1.263 1_554 S
O170 Tb160 2.325 . S
O170 C180 1.236 . S
O171 Tb161 2.322 . S
O171 C180 1.257 . S
O172 Tb161 2.349 . S
O172 C183 1.261 . S
O173 Tb160 2.303 . S
O173 C183 1.257 . S
O174 Tb161 2.415 1_556 S
O174 C190 1.239 1_556 S
O175 Tb161 2.399 . S
O175 C190 1.263 . S
O176 Tb161 2.325 . S
O176 C191 1.236 . S
O177 Tb160 2.322 . S
O177 C191 1.257 . S
O178 Tb160 2.349 1_556 S
O178 C162 1.261 . S
O179 Tb161 2.303 1_556 S
O179 C162 1.257 . S
C180 O170 1.236 . S
C180 O171 1.257 . S
O181 Tb160 2.415 . S
O181 C169 1.239 . S
O182 Tb160 2.399 1_556 S
O182 C169 1.263 1_556 S
C183 O172 1.261 . S
C183 O173 1.257 . S
C184 C187 1.358 . S
C184 C188 1.332 1_554 S
C184 C190 1.504 . S
C185 C186 1.373 . S
C185 C189 1.308 1_554 S
C186 C185 1.373 . S
C186 C187 1.429 . S
C186 H196 0.932 . S
C187 C184 1.358 . S
C187 C186 1.429 . S
C187 H197 0.930 . S
C188 C184 1.332 1_556 S
C188 C189 1.394 . S
C188 H198 0.932 . S
C189 C185 1.308 1_556 S
C189 C188 1.394 . S
C189 H199 0.929 . S
C190 Tb161 2.764 . S
C190 O174 1.239 1_554 S
C190 O175 1.263 . S
C190 C184 1.504 . S
C191 O176 1.236 . S
C191 O177 1.257 . S
H192 C165 0.932 1_556 S
H193 C166 0.930 1_556 S
H194 C167 0.932 . S
H195 C168 0.929 . S
H196 C186 0.932 . S
H197 C187 0.930 . S
H198 C188 0.932 . S
H199 C189 0.929 . S
Tb200 C209 2.764 . S
Tb200 O210 2.325 . S
Tb200 O213 2.303 . S
Tb200 O217 2.322 . S
Tb200 O218 2.349 1_554 S
Tb200 O221 2.415 . S
Tb200 O222 2.399 . S
Tb201 O211 2.322 . S
Tb201 O212 2.349 . S
Tb201 O214 2.415 . S
Tb201 O215 2.399 . S
Tb201 O216 2.325 . S
Tb201 O219 2.303 1_554 S
Tb201 C230 2.764 . S
C202 O218 1.261 . S
C202 O219 1.257 . S
C203 C206 1.358 . S
C203 C207 1.332 . S
C203 C209 1.504 . S
C204 C205 1.373 . S
C204 C208 1.308 . S
C205 C204 1.373 . S
C205 C206 1.429 . S
C205 H232 0.932 1_554 S
C206 C203 1.358 . S
C206 C205 1.429 . S
C206 H233 0.930 1_554 S
C207 C203 1.332 . S
C207 C208 1.394 . S
C207 H234 0.932 . S
C208 C204 1.308 . S
C208 C207 1.394 . S
C208 H235 0.929 . S
C209 Tb200 2.764 . S
C209 C203 1.504 . S
C209 O221 1.239 . S
C209 O222 1.263 . S
O210 Tb200 2.325 . S
O210 C220 1.236 . S
O211 Tb201 2.322 . S
O211 C220 1.257 . S
O212 Tb201 2.349 . S
O212 C223 1.261 . S
O213 Tb200 2.303 . S
O213 C223 1.257 . S
O214 Tb201 2.415 . S
O214 C230 1.239 . S
O215 Tb201 2.399 . S
O215 C230 1.263 . S
O216 Tb201 2.325 . S
O216 C231 1.236 . S
O217 Tb200 2.322 . S
O217 C231 1.257 . S
O218 Tb200 2.349 1_556 S
O218 C202 1.261 . S
O219 Tb201 2.303 1_556 S
O219 C202 1.257 . S
C220 O210 1.236 . S
C220 O211 1.257 . S
O221 Tb200 2.415 . S
O221 C209 1.239 . S
O222 Tb200 2.399 . S
O222 C209 1.263 . S
C223 O212 1.261 . S
C223 O213 1.257 . S
C224 C227 1.358 . S
C224 C228 1.332 1_554 S
C224 C230 1.504 . S
C225 C226 1.373 . S
C225 C229 1.308 1_554 S
C226 C225 1.373 . S
C226 C227 1.429 . S
C226 H236 0.932 . S
C227 C224 1.358 . S
C227 C226 1.429 . S
C227 H237 0.930 . S
C228 C224 1.332 1_556 S
C228 C229 1.394 . S
C228 H238 0.932 . S
C229 C225 1.308 1_556 S
C229 C228 1.394 . S
C229 H239 0.929 . S
C230 Tb201 2.764 . S
C230 O214 1.239 . S
C230 O215 1.263 . S
C230 C224 1.504 . S
C231 O216 1.236 . S
C231 O217 1.257 . S
H232 C205 0.932 1_556 S
H233 C206 0.930 1_556 S
H234 C207 0.932 . S
H235 C208 0.929 . S
H236 C226 0.932 . S
H237 C227 0.930 . S
H238 C228 0.932 . S
H239 C229 0.929 . S
Tb240 C249 2.764 . S
Tb240 O250 2.325 . S
Tb240 O253 2.303 . S
Tb240 O257 2.322 . S
Tb240 O258 2.349 . S
Tb240 O261 2.415 . S
Tb240 O262 2.399 . S
Tb241 O251 2.322 . S
Tb241 O252 2.349 . S
Tb241 O254 2.415 . S
Tb241 O255 2.399 . S
Tb241 O256 2.325 . S
Tb241 O259 2.303 . S
Tb241 C270 2.764 . S
C242 O258 1.261 . S
C242 O259 1.257 . S
C243 C246 1.358 . S
C243 C247 1.332 . S
C243 C249 1.504 . S
C244 C245 1.373 . S
C244 C248 1.308 . S
C245 C244 1.373 . S
C245 C246 1.429 . S
C245 H272 0.932 . S
C246 C243 1.358 . S
C246 C245 1.429 . S
C246 H273 0.930 . S
C247 C243 1.332 . S
C247 C248 1.394 . S
C247 H274 0.932 . S
C248 C244 1.308 . S
C248 C247 1.394 . S
C248 H275 0.929 . S
C249 Tb240 2.764 . S
C249 C243 1.504 . S
C249 O261 1.239 . S
C249 O262 1.263 . S
O250 Tb240 2.325 . S
O250 C260 1.236 . S
O251 Tb241 2.322 . S
O251 C260 1.257 . S
O252 Tb241 2.349 . S
O252 C263 1.261 . S
O253 Tb240 2.303 . S
O253 C263 1.257 . S
O254 Tb241 2.415 . S
O254 C270 1.239 . S
O255 Tb241 2.399 . S
O255 C270 1.263 . S
O256 Tb241 2.325 . S
O256 C271 1.236 . S
O257 Tb240 2.322 . S
O257 C271 1.257 . S
O258 Tb240 2.349 . S
O258 C242 1.261 . S
O259 Tb241 2.303 . S
O259 C242 1.257 . S
C260 O250 1.236 . S
C260 O251 1.257 . S
O261 Tb240 2.415 . S
O261 C249 1.239 . S
O262 Tb240 2.399 . S
O262 C249 1.263 . S
C263 O252 1.261 . S
C263 O253 1.257 . S
C264 C267 1.358 . S
C264 C268 1.332 . S
C264 C270 1.504 . S
C265 C266 1.373 . S
C265 C269 1.308 . S
C266 C265 1.373 . S
C266 C267 1.429 . S
C266 H276 0.932 . S
C267 C264 1.358 . S
C267 C266 1.429 . S
C267 H277 0.930 . S
C268 C264 1.332 . S
C268 C269 1.394 . S
C268 H278 0.932 . S
C269 C265 1.308 . S
C269 C268 1.394 . S
C269 H279 0.929 . S
C270 Tb241 2.764 . S
C270 O254 1.239 . S
C270 O255 1.263 . S
C270 C264 1.504 . S
C271 O256 1.236 . S
C271 O257 1.257 . S
H272 C245 0.932 . S
H273 C246 0.930 . S
H274 C247 0.932 . S
H275 C248 0.929 . S
H276 C266 0.932 . S
H277 C267 0.930 . S
H278 C268 0.932 . S
H279 C269 0.929 . S
Tb280 C289 2.764 . S
Tb280 O290 2.325 . S
Tb280 O293 2.303 . S
Tb280 O297 2.322 . S
Tb280 O298 2.349 . S
Tb280 O301 2.415 . S
Tb280 O302 2.399 . S
Tb281 O291 2.322 . S
Tb281 O292 2.349 . S
Tb281 O294 2.415 . S
Tb281 O295 2.399 . S
Tb281 O296 2.325 . S
Tb281 O299 2.303 . S
Tb281 C310 2.764 . S
C282 O298 1.261 . S
C282 O299 1.257 . S
C283 C286 1.358 . S
C283 C287 1.332 . S
C283 C289 1.504 . S
C284 C285 1.373 . S
C284 C288 1.308 . S
C285 C284 1.373 . S
C285 C286 1.429 . S
C285 H312 0.932 . S
C286 C283 1.358 . S
C286 C285 1.429 . S
C286 H313 0.930 . S
C287 C283 1.332 . S
C287 C288 1.394 . S
C287 H314 0.932 . S
C288 C284 1.308 . S
C288 C287 1.394 . S
C288 H315 0.929 . S
C289 Tb280 2.764 . S
C289 C283 1.504 . S
C289 O301 1.239 . S
C289 O302 1.263 . S
O290 Tb280 2.325 . S
O290 C300 1.236 . S
O291 Tb281 2.322 . S
O291 C300 1.257 . S
O292 Tb281 2.349 . S
O292 C303 1.261 . S
O293 Tb280 2.303 . S
O293 C303 1.257 . S
O294 Tb281 2.415 . S
O294 C310 1.239 . S
O295 Tb281 2.399 . S
O295 C310 1.263 . S
O296 Tb281 2.325 . S
O296 C311 1.236 . S
O297 Tb280 2.322 . S
O297 C311 1.257 . S
O298 Tb280 2.349 . S
O298 C282 1.261 . S
O299 Tb281 2.303 . S
O299 C282 1.257 . S
C300 O290 1.236 . S
C300 O291 1.257 . S
O301 Tb280 2.415 . S
O301 C289 1.239 . S
O302 Tb280 2.399 . S
O302 C289 1.263 . S
C303 O292 1.261 . S
C303 O293 1.257 . S
C304 C307 1.358 . S
C304 C308 1.332 . S
C304 C310 1.504 . S
C305 C306 1.373 . S
C305 C309 1.308 . S
C306 C305 1.373 . S
C306 C307 1.429 . S
C306 H316 0.932 . S
C307 C304 1.358 . S
C307 C306 1.429 . S
C307 H317 0.930 . S
C308 C304 1.332 . S
C308 C309 1.394 . S
C308 H318 0.932 . S
C309 C305 1.308 . S
C309 C308 1.394 . S
C309 H319 0.929 . S
C310 Tb281 2.764 . S
C310 O294 1.239 . S
C310 O295 1.263 . S
C310 C304 1.504 . S
C311 O296 1.236 . S
C311 O297 1.257 . S
H312 C285 0.932 . S
H313 C286 0.930 . S
H314 C287 0.932 . S
H315 C288 0.929 . S
H316 C306 0.932 . S
H317 C307 0.930 . S
H318 C308 0.932 . S
H319 C309 0.929 . S
C320 C321 1.349 . S
C320 C322 1.327 . S
C320 H345 0.950 . S
C321 C320 1.349 . S
C321 C337 1.335 1_554 S
C322 C320 1.327 . S
C322 C341 1.429 . S
C322 H346 0.950 . S
C323 C340 1.579 . S
C323 C342 1.368 1_556 S
C323 H347 0.949 . S
H324 C328 0.949 . S
C325 C326 1.349 . S
C325 C327 1.327 . S
C325 H348 0.950 1_554 S
C326 C325 1.349 . S
C326 C338 1.349 . S
C327 C325 1.327 . S
C327 C343 1.429 . S
C327 H349 0.950 1_554 S
C328 H324 0.949 . S
C328 C336 1.574 . S
C328 C344 1.368 . S
H329 C337 0.968 . S
H330 C335 0.969 . S
H331 C336 0.949 . S
H332 C338 0.950 . S
H333 C339 0.950 . S
H334 C340 0.965 . S
C335 H330 0.969 . S
C335 C337 1.328 . S
C335 C341 1.405 1_556 S
C336 C328 1.574 . S
C336 H331 0.949 . S
C336 C342 1.368 . S
C337 C321 1.335 1_556 S
C337 H329 0.968 . S
C337 C335 1.328 . S
C338 C326 1.349 . S
C338 H332 0.950 . S
C338 C339 1.327 . S
C339 H333 0.950 . S
C339 C338 1.327 . S
C339 C343 1.429 . S
C340 C323 1.579 . S
C340 H334 0.965 . S
C340 C344 1.347 1_556 S
C341 C322 1.429 . S
C341 C335 1.405 1_554 S
C341 C342 1.523 . S
C342 C323 1.368 1_554 S
C342 C336 1.368 . S
C342 C341 1.523 . S
C343 C327 1.429 . S
C343 C339 1.429 . S
C343 C344 1.523 . S
C344 C328 1.368 . S
C344 C340 1.347 1_554 S
C344 C343 1.523 . S
H345 C320 0.950 . S
H346 C322 0.950 . S
H347 C323 0.949 . S
H348 C325 0.950 1_556 S
H349 C327 0.950 1_556 S
C350 C351 1.349 . S
C350 C352 1.327 . S
C350 H375 0.950 . S
C351 C350 1.349 . S
C351 C367 1.349 . S
C352 C350 1.327 . S
C352 C371 1.429 . S
C352 H376 0.950 . S
C353 C370 1.574 . S
C353 C372 1.368 . S
C353 H377 0.949 . S
H354 C358 0.949 . S
C355 C356 1.349 . S
C355 C357 1.327 . S
C355 H378 0.950 . S
C356 C355 1.349 . S
C356 C368 1.349 . S
C357 C355 1.327 . S
C357 C373 1.429 . S
C357 H379 0.950 . S
C358 H354 0.949 . S
C358 C366 1.574 . S
C358 C374 1.368 . S
H359 C367 0.950 . S
H360 C365 0.950 . S
H361 C366 0.949 . S
H362 C368 0.950 . S
H363 C369 0.950 . S
H364 C370 0.949 . S
C365 H360 0.950 . S
C365 C367 1.327 . S
C365 C371 1.429 . S
C366 C358 1.574 . S
C366 H361 0.949 . S
C366 C372 1.368 . S
C367 C351 1.349 . S
C367 H359 0.950 . S
C367 C365 1.327 . S
C368 C356 1.349 . S
C368 H362 0.950 . S
C368 C369 1.327 . S
C369 H363 0.950 . S
C369 C368 1.327 . S
C369 C373 1.429 . S
C370 C353 1.574 . S
C370 H364 0.949 . S
C370 C374 1.368 . S
C371 C352 1.429 . S
C371 C365 1.429 . S
C371 C372 1.523 . S
C372 C353 1.368 . S
C372 C366 1.368 . S
C372 C371 1.523 . S
C373 C357 1.429 . S
C373 C369 1.429 . S
C373 C374 1.523 . S
C374 C358 1.368 . S
C374 C370 1.368 . S
C374 C373 1.523 . S
H375 C350 0.950 . S
H376 C352 0.950 . S
H377 C353 0.949 . S
H378 C355 0.950 . S
H379 C357 0.950 . S
C380 C381 1.349 . S
C380 C382 1.327 . S
C380 H405 0.950 . S
C381 C380 1.349 . S
C381 C397 1.349 . S
C382 C380 1.327 . S
C382 C401 1.429 . S
C382 H406 0.950 . S
C383 C400 1.574 . S
C383 C402 1.368 . S
C383 H407 0.949 . S
H384 C388 0.949 . S
C385 C386 1.349 . S
C385 C387 1.327 . S
C385 H408 0.950 . S
C386 C385 1.349 . S
C386 C398 1.349 . S
C387 C385 1.327 . S
C387 C403 1.429 . S
C387 H409 0.950 . S
C388 H384 0.949 . S
C388 C396 1.574 . S
C388 C404 1.368 . S
H389 C397 0.950 . S
H390 C395 0.950 . S
H391 C396 0.949 . S
H392 C398 0.950 . S
H393 C399 0.950 . S
H394 C400 0.949 . S
C395 H390 0.950 . S
C395 C397 1.327 . S
C395 C401 1.429 . S
C396 C388 1.574 . S
C396 H391 0.949 . S
C396 C402 1.368 . S
C397 C381 1.349 . S
C397 H389 0.950 . S
C397 C395 1.327 . S
C398 C386 1.349 . S
C398 H392 0.950 . S
C398 C399 1.327 . S
C399 H393 0.950 . S
C399 C398 1.327 . S
C399 C403 1.429 . S
C400 C383 1.574 . S
C400 H394 0.949 . S
C400 C404 1.368 . S
C401 C382 1.429 . S
C401 C395 1.429 . S
C401 C402 1.523 . S
C402 C383 1.368 . S
C402 C396 1.368 . S
C402 C401 1.523 . S
C403 C387 1.429 . S
C403 C399 1.429 . S
C403 C404 1.523 . S
C404 C388 1.368 . S
C404 C400 1.368 . S
C404 C403 1.523 . S
H405 C380 0.950 . S
H406 C382 0.950 . S
H407 C383 0.949 . S
H408 C385 0.950 . S
H409 C387 0.950 . S
C410 C411 1.349 . S
C410 C412 1.327 . S
C410 H435 0.950 . S
C411 C410 1.349 . S
C411 C427 1.349 . S
C412 C410 1.327 . S
C412 C431 1.429 . S
C412 H436 0.950 . S
C413 C430 1.574 . S
C413 C432 1.368 . S
C413 H437 0.949 . S
H414 C418 0.949 . S
C415 C416 1.349 . S
C415 C417 1.327 . S
C415 H438 0.950 . S
C416 C415 1.349 . S
C416 C428 1.349 . S
C417 C415 1.327 . S
C417 C433 1.429 . S
C417 H439 0.950 . S
C418 H414 0.949 . S
C418 C426 1.574 . S
C418 C434 1.368 . S
H419 C427 0.950 . S
H420 C425 0.950 . S
H421 C426 0.949 . S
H422 C428 0.950 . S
H423 C429 0.950 . S
H424 C430 0.949 . S
C425 H420 0.950 . S
C425 C427 1.327 . S
C425 C431 1.429 . S
C426 C418 1.574 . S
C426 H421 0.949 . S
C426 C432 1.368 . S
C427 C411 1.349 . S
C427 H419 0.950 . S
C427 C425 1.327 . S
C428 C416 1.349 . S
C428 H422 0.950 . S
C428 C429 1.327 . S
C429 H423 0.950 . S
C429 C428 1.327 . S
C429 C433 1.429 . S
C430 C413 1.574 . S
C430 H424 0.949 . S
C430 C434 1.368 . S
C431 C412 1.429 . S
C431 C425 1.429 . S
C431 C432 1.523 . S
C432 C413 1.368 . S
C432 C426 1.368 . S
C432 C431 1.523 . S
C433 C417 1.429 . S
C433 C429 1.429 . S
C433 C434 1.523 . S
C434 C418 1.368 . S
C434 C430 1.368 . S
C434 C433 1.523 . S
H435 C410 0.950 . S
H436 C412 0.950 . S
H437 C413 0.949 . S
H438 C415 0.950 . S
H439 C417 0.950 . S
C440 C441 1.349 . S
C440 C442 1.327 . S
C440 H465 0.950 . S
C441 C440 1.349 . S
C441 C457 1.349 . S
C442 C440 1.327 . S
C442 C461 1.429 . S
C442 H466 0.950 . S
C443 C460 1.574 . S
C443 C462 1.368 1_455 S
C443 H467 0.949 . S
H444 C448 0.949 . S
C445 C446 1.349 . S
C445 C447 1.327 . S
C445 H468 0.950 . S
C446 C445 1.349 . S
C446 C458 1.349 . S
C447 C445 1.327 . S
C447 C463 1.429 . S
C447 H469 0.950 . S
C448 H444 0.949 . S
C448 C456 1.574 . S
C448 C464 1.368 . S
H449 C457 0.950 . S
H450 C455 0.950 . S
H451 C456 0.949 1_655 S
H452 C458 0.950 . S
H453 C459 0.950 . S
H454 C460 0.949 . S
C455 H450 0.950 . S
C455 C457 1.327 . S
C455 C461 1.429 . S
C456 C448 1.574 . S
C456 H451 0.949 1_455 S
C456 C462 1.368 1_455 S
C457 C441 1.349 . S
C457 H449 0.950 . S
C457 C455 1.327 . S
C458 C446 1.349 . S
C458 H452 0.950 . S
C458 C459 1.327 . S
C459 H453 0.950 . S
C459 C458 1.327 . S
C459 C463 1.429 . S
C460 C443 1.574 . S
C460 H454 0.949 . S
C460 C464 1.368 . S
C461 C442 1.429 . S
C461 C455 1.429 . S
C461 C462 1.523 . S
C462 C443 1.368 1_655 S
C462 C456 1.368 1_655 S
C462 C461 1.523 . S
C463 C447 1.429 . S
C463 C459 1.429 . S
C463 C464 1.523 . S
C464 C448 1.368 . S
C464 C460 1.368 . S
C464 C463 1.523 . S
H465 C440 0.950 . S
H466 C442 0.950 . S
H467 C443 0.949 . S
H468 C445 0.950 . S
H469 C447 0.950 . S
C470 C471 1.354 . S
C470 C472 1.320 1_554 S
C470 H495 0.945 1_554 S
C471 C470 1.354 . S
C471 C487 1.349 . S
C472 C470 1.320 1_556 S
C472 C491 1.404 1_556 S
C472 H496 0.982 . S
C473 C490 1.574 . S
C473 C492 1.368 1_655 S
C473 H497 0.949 . S
H474 C478 0.949 . S
C475 C476 1.349 . S
C475 C477 1.327 . S
C475 H498 0.950 . S
C476 C475 1.349 . S
C476 C488 1.349 1_554 S
C477 C475 1.327 . S
C477 C493 1.429 . S
C477 H499 0.950 . S
C478 H474 0.949 . S
C478 C486 1.574 . S
C478 C494 1.368 1_556 S
H479 C487 0.950 . S
H480 C485 0.950 . S
H481 C486 0.949 1_455 S
H482 C488 0.950 . S
H483 C489 0.950 . S
H484 C490 0.949 . S
C485 H480 0.950 . S
C485 C487 1.327 . S
C485 C491 1.429 . S
C486 C478 1.574 . S
C486 H481 0.949 1_655 S
C486 C492 1.368 1_656 S
C487 C471 1.349 . S
C487 H479 0.950 . S
C487 C485 1.327 . S
C488 C476 1.349 1_556 S
C488 H482 0.950 . S
C488 C489 1.327 . S
C489 H483 0.950 . S
C489 C488 1.327 . S
C489 C493 1.429 1_556 S
C490 C473 1.574 . S
C490 H484 0.949 . S
C490 C494 1.368 . S
C491 C472 1.404 1_554 S
C491 C485 1.429 . S
C491 C492 1.523 . S
C492 C473 1.368 1_455 S
C492 C486 1.368 1_454 S
C492 C491 1.523 . S
C493 C477 1.429 . S
C493 C489 1.429 1_554 S
C493 C494 1.523 . S
C494 C478 1.368 1_554 S
C494 C490 1.368 . S
C494 C493 1.523 . S
H495 C470 0.945 1_556 S
H496 C472 0.982 . S
H497 C473 0.949 . S
H498 C475 0.950 . S
H499 C477 0.950 . S
C500 C501 1.349 . S
C500 C502 1.327 . S
C500 H525 0.950 . S
C501 C500 1.349 . S
C501 C517 1.349 . S
C502 C500 1.327 . S
C502 C521 1.429 . S
C502 H526 0.950 . S
C503 C520 1.574 . S
C503 C522 1.368 . S
C503 H527 0.949 . S
H504 C508 0.949 1_655 S
C505 C506 1.349 . S
C505 C507 1.327 . S
C505 H528 0.950 . S
C506 C505 1.349 . S
C506 C518 1.349 . S
C507 C505 1.327 . S
C507 C523 1.429 . S
C507 H529 0.950 . S
C508 H504 0.949 1_455 S
C508 C516 1.574 . S
C508 C524 1.368 1_455 S
H509 C517 0.950 . S
H510 C515 0.950 . S
H511 C516 0.949 . S
H512 C518 0.950 . S
H513 C519 0.950 . S
H514 C520 0.949 . S
C515 H510 0.950 . S
C515 C517 1.327 . S
C515 C521 1.429 . S
C516 C508 1.574 . S
C516 H511 0.949 . S
C516 C522 1.368 . S
C517 C501 1.349 . S
C517 H509 0.950 . S
C517 C515 1.327 . S
C518 C506 1.349 . S
C518 H512 0.950 . S
C518 C519 1.327 . S
C519 H513 0.950 . S
C519 C518 1.327 . S
C519 C523 1.429 . S
C520 C503 1.574 . S
C520 H514 0.949 . S
C520 C524 1.368 1_455 S
C521 C502 1.429 . S
C521 C515 1.429 . S
C521 C522 1.523 . S
C522 C503 1.368 . S
C522 C516 1.368 . S
C522 C521 1.523 . S
C523 C507 1.429 . S
C523 C519 1.429 . S
C523 C524 1.523 . S
C524 C508 1.368 1_655 S
C524 C520 1.368 1_655 S
C524 C523 1.523 . S
H525 C500 0.950 . S
H526 C502 0.950 . S
H527 C503 0.949 . S
H528 C505 0.950 . S
H529 C507 0.950 . S
C530 C531 1.349 . S
C530 C532 1.327 . S
C530 H555 0.950 . S
C531 C530 1.349 . S
C531 C547 1.349 . S
C532 C530 1.327 . S
C532 C551 1.429 . S
C532 H556 0.950 . S
C533 C550 1.574 . S
C533 C552 1.368 . S
C533 H557 0.949 . S
H534 C538 0.949 . S
C535 C536 1.349 . S
C535 C537 1.327 . S
C535 H558 0.950 . S
C536 C535 1.349 . S
C536 C548 1.349 . S
C537 C535 1.327 . S
C537 C553 1.429 . S
C537 H559 0.950 . S
C538 H534 0.949 . S
C538 C546 1.574 . S
C538 C554 1.368 1_655 S
H539 C547 0.950 . S
H540 C545 0.950 . S
H541 C546 0.949 . S
H542 C548 0.950 . S
H543 C549 0.950 . S
H544 C550 0.949 1_455 S
C545 H540 0.950 . S
C545 C547 1.327 . S
C545 C551 1.429 . S
C546 C538 1.574 . S
C546 H541 0.949 . S
C546 C552 1.368 . S
C547 C531 1.349 . S
C547 H539 0.950 . S
C547 C545 1.327 . S
C548 C536 1.349 . S
C548 H542 0.950 . S
C548 C549 1.327 . S
C549 H543 0.950 . S
C549 C548 1.327 . S
C549 C553 1.429 . S
C550 C533 1.574 . S
C550 H544 0.949 1_655 S
C550 C554 1.368 1_655 S
C551 C532 1.429 . S
C551 C545 1.429 . S
C551 C552 1.523 . S
C552 C533 1.368 . S
C552 C546 1.368 . S
C552 C551 1.523 . S
C553 C537 1.429 . S
C553 C549 1.429 . S
C553 C554 1.523 . S
C554 C538 1.368 1_455 S
C554 C550 1.368 1_455 S
C554 C553 1.523 . S
H555 C530 0.950 . S
H556 C532 0.950 . S
H557 C533 0.949 . S
H558 C535 0.950 . S
H559 C537 0.950 . S
C560 C561 1.349 . S
C560 C562 1.327 . S
C560 H585 0.950 . S
C561 C560 1.349 . S
C561 C577 1.349 . S
C562 C560 1.327 . S
C562 C581 1.429 . S
C562 H586 0.950 1_455 S
C563 C580 1.574 . S
C563 C582 1.368 1_556 S
C563 H587 0.949 . S
H564 C568 0.949 . S
C565 C566 1.349 1_556 S
C565 C567 1.327 . S
C565 H588 0.950 . S
C566 C565 1.349 1_554 S
C566 C578 1.349 . S
C567 C565 1.327 . S
C567 C583 1.429 1_556 S
C567 H589 0.950 1_655 S
C568 H564 0.949 . S
C568 C576 1.574 . S
C568 C584 1.368 . S
H569 C577 0.950 1_556 S
H570 C575 0.950 1_556 S
H571 C576 0.949 . S
H572 C578 0.950 . S
H573 C579 0.950 . S
H574 C580 0.949 . S
C575 H570 0.950 1_554 S
C575 C577 1.327 . S
C575 C581 1.429 . S
C576 C568 1.574 . S
C576 H571 0.949 . S
C576 C582 1.368 1_655 S
C577 C561 1.349 . S
C577 H569 0.950 1_554 S
C577 C575 1.327 . S
C578 C566 1.349 . S
C578 H572 0.950 . S
C578 C579 1.327 . S
C579 H573 0.950 . S
C579 C578 1.327 . S
C579 C583 1.429 . S
C580 C563 1.574 . S
C580 H574 0.949 . S
C580 C584 1.368 1_456 S
C581 C562 1.429 . S
C581 C575 1.429 . S
C581 C582 1.523 . S
C582 C563 1.368 1_554 S
C582 C576 1.368 1_455 S
C582 C581 1.523 . S
C583 C567 1.429 1_554 S
C583 C579 1.429 . S
C583 C584 1.523 . S
C584 C568 1.368 . S
C584 C580 1.368 1_654 S
C584 C583 1.523 . S
H585 C560 0.950 . S
H586 C562 0.950 1_655 S
H587 C563 0.949 . S
H588 C565 0.950 . S
H589 C567 0.950 1_455 S
C590 C591 1.349 . S
C590 C592 1.327 . S
C590 H615 0.950 . S
C591 C590 1.349 . S
C591 C607 1.349 . S
C592 C590 1.327 . S
C592 C611 1.429 . S
C592 H616 0.950 1_455 S
C593 C610 1.574 . S
C593 C612 1.368 . S
C593 H617 0.949 . S
H594 C598 0.949 . S
C595 C596 1.349 . S
C595 C597 1.327 . S
C595 H618 0.950 . S
C596 C595 1.349 . S
C596 C608 1.349 . S
C597 C595 1.327 . S
C597 C613 1.429 . S
C597 H619 0.950 1_655 S
C598 H594 0.949 . S
C598 C606 1.574 . S
C598 C614 1.368 . S
H599 C607 0.950 . S
H600 C605 0.950 . S
H601 C606 0.949 . S
H602 C608 0.950 . S
H603 C609 0.950 . S
H604 C610 0.949 . S
C605 H600 0.950 . S
C605 C607 1.327 . S
C605 C611 1.429 . S
C606 C598 1.574 . S
C606 H601 0.949 . S
C606 C612 1.368 1_655 S
C607 C591 1.349 . S
C607 H599 0.950 . S
C607 C605 1.327 . S
C608 C596 1.349 . S
C608 H602 0.950 . S
C608 C609 1.327 . S
C609 H603 0.950 . S
C609 C608 1.327 . S
C609 C613 1.429 . S
C610 C593 1.574 . S
C610 H604 0.949 . S
C610 C614 1.368 1_455 S
C611 C592 1.429 . S
C611 C605 1.429 . S
C611 C612 1.523 . S
C612 C593 1.368 . S
C612 C606 1.368 1_455 S
C612 C611 1.523 . S
C613 C597 1.429 . S
C613 C609 1.429 . S
C613 C614 1.523 . S
C614 C598 1.368 . S
C614 C610 1.368 1_655 S
C614 C613 1.523 . S
H615 C590 0.950 . S
H616 C592 0.950 1_655 S
H617 C593 0.949 . S
H618 C595 0.950 . S
H619 C597 0.950 1_455 S
C620 C621 1.349 . S
C620 C622 1.327 . S
C620 H645 0.950 . S
C621 C620 1.349 . S
C621 C637 1.349 1_554 S
C622 C620 1.327 . S
C622 C641 1.429 . S
C622 H646 0.950 . S
C623 C640 1.576 1_565 S
C623 C642 1.383 . S
C623 H647 0.934 1_554 S
H624 C628 0.949 . S
C625 C626 1.349 . S
C625 C627 1.327 . S
C625 H648 0.946 1_554 S
C626 C625 1.349 . S
C626 C638 1.349 . S
C627 C625 1.327 . S
C627 C643 1.429 . S
C627 H649 0.950 1_554 S
C628 H624 0.949 . S
C628 C636 1.574 1_545 S
C628 C644 1.368 . S
H629 C637 0.950 . S
H630 C635 0.950 . S
H631 C636 0.949 . S
H632 C638 0.950 . S
H633 C639 0.950 . S
H634 C640 0.949 1_556 S
C635 H630 0.950 . S
C635 C637 1.327 . S
C635 C641 1.429 1_556 S
C636 C628 1.574 1_565 S
C636 H631 0.949 . S
C636 C642 1.368 . S
C637 C621 1.349 1_556 S
C637 H629 0.950 . S
C637 C635 1.327 . S
C638 C626 1.349 . S
C638 H632 0.950 . S
C638 C639 1.327 . S
C639 H633 0.950 . S
C639 C638 1.327 . S
C639 C643 1.429 . S
C640 C623 1.576 1_545 S
C640 H634 0.949 1_554 S
C640 C644 1.368 . S
C641 C622 1.429 . S
C641 C635 1.429 1_554 S
C641 C642 1.523 . S
C642 C623 1.383 . S
C642 C636 1.368 . S
C642 C641 1.523 . S
C643 C627 1.429 . S
C643 C639 1.429 . S
C643 C644 1.523 . S
C644 C628 1.368 . S
C644 C640 1.368 . S
C644 C643 1.523 . S
H645 C620 0.950 . S
H646 C622 0.950 . S
H647 C623 0.934 1_556 S
H648 C625 0.946 1_556 S
H649 C627 0.950 1_556 S
C650 C651 1.349 . S
C650 C652 1.327 . S
C650 H675 0.950 . S
C651 C650 1.349 . S
C651 C667 1.349 . S
C652 C650 1.327 . S
C652 C671 1.429 . S
C652 H676 0.950 . S
C653 C670 1.574 1_545 S
C653 C672 1.368 . S
C653 H677 0.949 . S
H654 C658 0.949 . S
C655 C656 1.349 . S
C655 C657 1.327 . S
C655 H678 0.950 . S
C656 C655 1.349 . S
C656 C668 1.349 . S
C657 C655 1.327 . S
C657 C673 1.429 . S
C657 H679 0.950 . S
C658 H654 0.949 . S
C658 C666 1.574 1_565 S
C658 C674 1.368 . S
H659 C667 0.950 . S
H660 C665 0.950 . S
H661 C666 0.949 . S
H662 C668 0.950 . S
H663 C669 0.950 . S
H664 C670 0.949 . S
C665 H660 0.950 . S
C665 C667 1.327 . S
C665 C671 1.429 . S
C666 C658 1.574 1_545 S
C666 H661 0.949 . S
C666 C672 1.368 . S
C667 C651 1.349 . S
C667 H659 0.950 . S
C667 C665 1.327 . S
C668 C656 1.349 . S
C668 H662 0.950 . S
C668 C669 1.327 . S
C669 H663 0.950 . S
C669 C668 1.327 . S
C669 C673 1.429 . S
C670 C653 1.574 1_565 S
C670 H664 0.949 . S
C670 C674 1.368 . S
C671 C652 1.429 . S
C671 C665 1.429 . S
C671 C672 1.523 . S
C672 C653 1.368 . S
C672 C666 1.368 . S
C672 C671 1.523 . S
C673 C657 1.429 . S
C673 C669 1.429 . S
C673 C674 1.523 . S
C674 C658 1.368 . S
C674 C670 1.368 . S
C674 C673 1.523 . S
H675 C650 0.950 . S
H676 C652 0.950 . S
H677 C653 0.949 . S
H678 C655 0.950 . S
H679 C657 0.950 . S
C680 C681 1.349 . S
C680 C682 1.327 . S
C680 H705 0.950 . S
C681 C680 1.349 . S
C681 C697 1.349 . S
C682 C680 1.327 . S
C682 C701 1.429 . S
C682 H706 0.950 . S
C683 C700 1.574 1_554 S
C683 C702 1.368 . S
C683 H707 0.949 1_554 S
H684 C688 0.949 . S
C685 C686 1.349 1_556 S
C685 C687 1.327 . S
C685 H708 0.950 . S
C686 C685 1.349 1_554 S
C686 C698 1.349 . S
C687 C685 1.327 . S
C687 C703 1.429 1_556 S
C687 H709 0.950 . S
C688 H684 0.949 . S
C688 C696 1.574 . S
C688 C704 1.368 . S
H689 C697 0.950 1_556 S
H690 C695 0.950 1_556 S
H691 C696 0.949 . S
H692 C698 0.950 . S
H693 C699 0.950 . S
H694 C700 0.949 . S
C695 H690 0.950 1_554 S
C695 C697 1.327 . S
C695 C701 1.429 . S
C696 C688 1.574 . S
C696 H691 0.949 . S
C696 C702 1.368 . S
C697 C681 1.349 . S
C697 H689 0.950 1_554 S
C697 C695 1.327 . S
C698 C686 1.349 . S
C698 H692 0.950 . S
C698 C699 1.327 . S
C699 H693 0.950 . S
C699 C698 1.327 . S
C699 C703 1.429 . S
C700 C683 1.574 1_556 S
C700 H694 0.949 . S
C700 C704 1.368 1_556 S
C701 C682 1.429 . S
C701 C695 1.429 . S
C701 C702 1.523 . S
C702 C683 1.368 . S
C702 C696 1.368 . S
C702 C701 1.523 . S
C703 C687 1.429 1_554 S
C703 C699 1.429 . S
C703 C704 1.523 . S
C704 C688 1.368 . S
C704 C700 1.368 1_554 S
C704 C703 1.523 . S
H705 C680 0.950 . S
H706 C682 0.950 . S
H707 C683 0.949 1_556 S
H708 C685 0.950 . S
H709 C687 0.950 . S
C710 C711 1.349 . S
C710 C712 1.327 . S
C710 H735 0.950 . S
C711 C710 1.349 . S
C711 C727 1.349 . S
C712 C710 1.327 . S
C712 C731 1.429 . S
C712 H736 0.950 . S
C713 C730 1.573 1_554 S
C713 C732 1.382 . S
C713 H737 0.938 1_554 S
H714 C718 0.949 . S
C715 C716 1.349 1_556 S
C715 C717 1.327 . S
C715 H738 0.950 . S
C716 C715 1.349 1_554 S
C716 C728 1.349 . S
C717 C715 1.327 . S
C717 C733 1.429 1_556 S
C717 H739 0.950 . S
C718 H714 0.949 . S
C718 C726 1.574 . S
C718 C734 1.368 . S
H719 C727 0.950 1_556 S
H720 C725 0.950 1_556 S
H721 C726 0.949 . S
H722 C728 0.950 . S
H723 C729 0.950 . S
H724 C730 0.949 . S
C725 H720 0.950 1_554 S
C725 C727 1.327 . S
C725 C731 1.429 . S
C726 C718 1.574 . S
C726 H721 0.949 . S
C726 C732 1.368 . S
C727 C711 1.349 . S
C727 H719 0.950 1_554 S
C727 C725 1.327 . S
C728 C716 1.349 . S
C728 H722 0.950 . S
C728 C729 1.327 . S
C729 H723 0.950 . S
C729 C728 1.327 . S
C729 C733 1.429 . S
C730 C713 1.573 1_556 S
C730 H724 0.949 . S
C730 C734 1.368 1_556 S
C731 C712 1.429 . S
C731 C725 1.429 . S
C731 C732 1.523 . S
C732 C713 1.382 . S
C732 C726 1.368 . S
C732 C731 1.523 . S
C733 C717 1.429 1_554 S
C733 C729 1.429 . S
C733 C734 1.523 . S
C734 C718 1.368 . S
C734 C730 1.368 1_554 S
C734 C733 1.523 . S
H735 C710 0.950 . S
H736 C712 0.950 . S
H737 C713 0.938 1_556 S
H738 C715 0.950 . S
H739 C717 0.950 . S
C740 C741 1.349 . S
C740 C742 1.327 . S
C740 H765 0.950 . S
C741 C740 1.349 . S
C741 C757 1.349 . S
C742 C740 1.327 . S
C742 C761 1.429 . S
C742 H766 0.950 . S
C743 C760 1.574 . S
C743 C762 1.368 . S
C743 H767 0.949 . S
H744 C748 0.949 . S
C745 C746 1.349 . S
C745 C747 1.327 . S
C745 H768 0.950 . S
C746 C745 1.349 . S
C746 C758 1.349 . S
C747 C745 1.327 . S
C747 C763 1.429 . S
C747 H769 0.950 . S
C748 H744 0.949 . S
C748 C756 1.574 . S
C748 C764 1.368 . S
H749 C757 0.950 . S
H750 C755 0.950 . S
H751 C756 0.949 . S
H752 C758 0.950 . S
H753 C759 0.950 . S
H754 C760 0.949 . S
C755 H750 0.950 . S
C755 C757 1.327 . S
C755 C761 1.429 . S
C756 C748 1.574 . S
C756 H751 0.949 . S
C756 C762 1.368 . S
C757 C741 1.349 . S
C757 H749 0.950 . S
C757 C755 1.327 . S
C758 C746 1.349 . S
C758 H752 0.950 . S
C758 C759 1.327 . S
C759 H753 0.950 . S
C759 C758 1.327 . S
C759 C763 1.429 . S
C760 C743 1.574 . S
C760 H754 0.949 . S
C760 C764 1.368 . S
C761 C742 1.429 . S
C761 C755 1.429 . S
C761 C762 1.523 . S
C762 C743 1.368 . S
C762 C756 1.368 . S
C762 C761 1.523 . S
C763 C747 1.429 . S
C763 C759 1.429 . S
C763 C764 1.523 . S
C764 C748 1.368 . S
C764 C760 1.368 . S
C764 C763 1.523 . S
H765 C740 0.950 . S
H766 C742 0.950 . S
H767 C743 0.949 . S
H768 C745 0.950 . S
H769 C747 0.950 . S
C770 C771 1.349 . S
C770 C772 1.327 . S
C770 H795 0.950 . S
C771 C770 1.349 . S
C771 C787 1.349 . S
C772 C770 1.327 . S
C772 C791 1.429 . S
C772 H796 0.950 . S
C773 C790 1.574 . S
C773 C792 1.368 . S
C773 H797 0.949 . S
H774 C778 0.949 . S
C775 C776 1.349 . S
C775 C777 1.327 . S
C775 H798 0.950 . S
C776 C775 1.349 . S
C776 C788 1.349 . S
C777 C775 1.327 . S
C777 C793 1.429 . S
C777 H799 0.950 . S
C778 H774 0.949 . S
C778 C786 1.574 . S
C778 C794 1.368 . S
H779 C787 0.950 . S
H780 C785 0.950 . S
H781 C786 0.949 . S
H782 C788 0.950 . S
H783 C789 0.950 . S
H784 C790 0.949 . S
C785 H780 0.950 . S
C785 C787 1.327 . S
C785 C791 1.429 . S
C786 C778 1.574 . S
C786 H781 0.949 . S
C786 C792 1.368 . S
C787 C771 1.349 . S
C787 H779 0.950 . S
C787 C785 1.327 . S
C788 C776 1.349 . S
C788 H782 0.950 . S
C788 C789 1.327 . S
C789 H783 0.950 . S
C789 C788 1.327 . S
C789 C793 1.429 . S
C790 C773 1.574 . S
C790 H784 0.949 . S
C790 C794 1.368 . S
C791 C772 1.429 . S
C791 C785 1.429 . S
C791 C792 1.523 . S
C792 C773 1.368 . S
C792 C786 1.368 . S
C792 C791 1.523 . S
C793 C777 1.429 . S
C793 C789 1.429 . S
C793 C794 1.523 . S
C794 C778 1.368 . S
C794 C790 1.368 . S
C794 C793 1.523 . S
H795 C770 0.950 . S
H796 C772 0.950 . S
H797 C773 0.949 . S
H798 C775 0.950 . S
H799 C777 0.950 . S
C800 C801 1.349 . S
C800 C802 1.327 . S
C800 H825 0.950 1_455 S
C801 C800 1.349 . S
C801 C817 1.349 . S
C802 C800 1.327 . S
C802 C821 1.428 . S
C802 H826 0.950 1_455 S
C803 C820 1.574 . S
C803 C822 1.368 . S
C803 H827 0.949 . S
H804 C808 0.949 . S
C805 C806 1.349 . S
C805 C807 1.327 . S
C805 H828 0.950 1_655 S
C806 C805 1.349 . S
C806 C818 1.349 . S
C807 C805 1.327 . S
C807 C823 1.428 . S
C807 H829 0.950 1_655 S
C808 H804 0.949 . S
C808 C816 1.574 . S
C808 C824 1.368 . S
H809 C817 0.950 . S
H810 C815 0.950 . S
H811 C816 0.949 . S
H812 C818 0.950 . S
H813 C819 0.950 . S
H814 C820 0.949 . S
C815 H810 0.950 . S
C815 C817 1.327 . S
C815 C821 1.429 . S
C816 C808 1.574 . S
C816 H811 0.949 . S
C816 C822 1.368 1_655 S
C817 C801 1.349 . S
C817 H809 0.950 . S
C817 C815 1.327 . S
C818 C806 1.349 . S
C818 H812 0.950 . S
C818 C819 1.327 . S
C819 H813 0.950 . S
C819 C818 1.327 . S
C819 C823 1.429 . S
C820 C803 1.574 . S
C820 H814 0.949 . S
C820 C824 1.368 1_455 S
C821 C802 1.428 . S
C821 C815 1.429 . S
C821 C822 1.523 . S
C822 C803 1.368 . S
C822 C816 1.368 1_455 S
C822 C821 1.523 . S
C823 C807 1.428 . S
C823 C819 1.429 . S
C823 C824 1.523 . S
C824 C808 1.368 . S
C824 C820 1.368 1_655 S
C824 C823 1.523 . S
H825 C800 0.950 1_655 S
H826 C802 0.950 1_655 S
H827 C803 0.949 . S
H828 C805 0.950 1_455 S
H829 C807 0.950 1_455 S
C830 C831 1.349 . S
C830 C832 1.327 . S
C830 H855 0.950 1_655 S
C831 C830 1.349 . S
C831 C847 1.349 . S
C832 C830 1.327 . S
C832 C851 1.429 . S
C832 H856 0.950 1_655 S
C833 C850 1.574 . S
C833 C852 1.368 . S
C833 H857 0.949 . S
H834 C838 0.949 . S
C835 C836 1.349 . S
C835 C837 1.327 . S
C835 H858 0.950 1_455 S
C836 C835 1.349 . S
C836 C848 1.349 . S
C837 C835 1.327 . S
C837 C853 1.429 . S
C837 H859 0.950 1_455 S
C838 H834 0.949 . S
C838 C846 1.574 . S
C838 C854 1.368 . S
H839 C847 0.950 . S
H840 C845 0.950 . S
H841 C846 0.949 . S
H842 C848 0.950 . S
H843 C849 0.950 . S
H844 C850 0.949 . S
C845 H840 0.950 . S
C845 C847 1.327 . S
C845 C851 1.429 . S
C846 C838 1.574 . S
C846 H841 0.949 . S
C846 C852 1.368 1_455 S
C847 C831 1.349 . S
C847 H839 0.950 . S
C847 C845 1.327 . S
C848 C836 1.349 . S
C848 H842 0.950 . S
C848 C849 1.327 . S
C849 H843 0.950 . S
C849 C848 1.327 . S
C849 C853 1.429 . S
C850 C833 1.574 . S
C850 H844 0.949 . S
C850 C854 1.368 1_655 S
C851 C832 1.429 . S
C851 C845 1.429 . S
C851 C852 1.523 . S
C852 C833 1.368 . S
C852 C846 1.368 1_655 S
C852 C851 1.523 . S
C853 C837 1.429 . S
C853 C849 1.429 . S
C853 C854 1.523 . S
C854 C838 1.368 . S
C854 C850 1.368 1_455 S
C854 C853 1.523 . S
H855 C830 0.950 1_455 S
H856 C832 0.950 1_455 S
H857 C833 0.949 . S
H858 C835 0.950 1_655 S
H859 C837 0.950 1_655 S
C860 C861 1.349 . S
C860 C862 1.327 1_655 S
C860 H885 0.950 1_655 S
C861 C860 1.349 . S
C861 C877 1.349 . S
C862 C860 1.327 1_455 S
C862 C881 1.429 1_455 S
C862 H886 0.949 . S
C863 C880 1.574 . S
C863 C882 1.368 . S
C863 H887 0.949 . S
H864 C868 0.949 . S
C865 C866 1.349 . S
C865 C867 1.327 . S
C865 H888 0.950 1_455 S
C866 C865 1.349 . S
C866 C878 1.349 . S
C867 C865 1.327 . S
C867 C883 1.429 . S
C867 H889 0.949 1_455 S
C868 H864 0.949 . S
C868 C876 1.574 . S
C868 C884 1.368 . S
H869 C877 0.950 . S
H870 C875 0.950 . S
H871 C876 0.949 . S
H872 C878 0.950 . S
H873 C879 0.950 . S
H874 C880 0.949 . S
C875 H870 0.950 . S
C875 C877 1.327 . S
C875 C881 1.429 . S
C876 C868 1.574 . S
C876 H871 0.949 . S
C876 C882 1.368 1_455 S
C877 C861 1.349 . S
C877 H869 0.950 . S
C877 C875 1.327 . S
C878 C866 1.349 . S
C878 H872 0.950 . S
C878 C879 1.327 . S
C879 H873 0.950 . S
C879 C878 1.327 . S
C879 C883 1.429 . S
C880 C863 1.574 . S
C880 H874 0.949 . S
C880 C884 1.368 1_655 S
C881 C862 1.429 1_655 S
C881 C875 1.429 . S
C881 C882 1.523 . S
C882 C863 1.368 . S
C882 C876 1.368 1_655 S
C882 C881 1.523 . S
C883 C867 1.429 . S
C883 C879 1.429 . S
C883 C884 1.523 . S
C884 C868 1.368 . S
C884 C880 1.368 1_455 S
C884 C883 1.523 . S
H885 C860 0.950 1_455 S
H886 C862 0.949 . S
H887 C863 0.949 . S
H888 C865 0.950 1_655 S
H889 C867 0.949 1_655 S
C890 C891 1.349 . S
C890 C892 1.327 . S
C890 H915 0.950 . S
C891 C890 1.349 . S
C891 C907 1.349 . S
C892 C890 1.327 . S
C892 C911 1.429 . S
C892 H916 0.950 . S
C893 C910 1.574 . S
C893 C912 1.368 1_455 S
C893 H917 0.949 . S
H894 C898 0.949 . S
C895 C896 1.349 . S
C895 C897 1.327 . S
C895 H918 0.950 . S
C896 C895 1.349 . S
C896 C908 1.349 . S
C897 C895 1.327 . S
C897 C913 1.429 . S
C897 H919 0.950 . S
C898 H894 0.949 . S
C898 C906 1.574 . S
C898 C914 1.368 1_655 S
H899 C907 0.950 1_455 S
H900 C905 0.950 1_455 S
H901 C906 0.949 . S
H902 C908 0.950 1_655 S
H903 C909 0.950 1_655 S
H904 C910 0.949 . S
C905 H900 0.950 1_655 S
C905 C907 1.327 . S
C905 C911 1.429 . S
C906 C898 1.574 . S
C906 H901 0.949 . S
C906 C912 1.368 . S
C907 C891 1.349 . S
C907 H899 0.950 1_655 S
C907 C905 1.327 . S
C908 C896 1.349 . S
C908 H902 0.950 1_455 S
C908 C909 1.327 . S
C909 H903 0.950 1_455 S
C909 C908 1.327 . S
C909 C913 1.429 . S
C910 C893 1.574 . S
C910 H904 0.949 . S
C910 C914 1.368 . S
C911 C892 1.429 . S
C911 C905 1.429 . S
C911 C912 1.523 . S
C912 C893 1.368 1_655 S
C912 C906 1.368 . S
C912 C911 1.523 . S
C913 C897 1.429 . S
C913 C909 1.429 . S
C913 C914 1.523 . S
C914 C898 1.368 1_455 S
C914 C910 1.368 . S
C914 C913 1.523 . S
H915 C890 0.950 . S
H916 C892 0.950 . S
H917 C893 0.949 . S
H918 C895 0.950 . S
H919 C897 0.950 . S
C920 C921 1.349 . S
C920 C922 1.327 . S
C920 H945 0.950 . S
C921 C920 1.349 . S
C921 C937 1.349 . S
C922 C920 1.327 . S
C922 C941 1.429 . S
C922 H946 0.950 . S
C923 C940 1.574 . S
C923 C942 1.368 . S
C923 H947 0.949 . S
H924 C928 0.949 . S
C925 C926 1.349 . S
C925 C927 1.327 . S
C925 H948 0.950 . S
C926 C925 1.349 . S
C926 C938 1.349 . S
C927 C925 1.327 . S
C927 C943 1.429 . S
C927 H949 0.950 . S
C928 H924 0.949 . S
C928 C936 1.574 . S
C928 C944 1.368 . S
H929 C937 0.950 . S
H930 C935 0.950 . S
H931 C936 0.949 . S
H932 C938 0.950 . S
H933 C939 0.950 . S
H934 C940 0.949 . S
C935 H930 0.950 . S
C935 C937 1.327 . S
C935 C941 1.429 . S
C936 C928 1.574 . S
C936 H931 0.949 . S
C936 C942 1.368 . S
C937 C921 1.349 . S
C937 H929 0.950 . S
C937 C935 1.327 . S
C938 C926 1.349 . S
C938 H932 0.950 . S
C938 C939 1.327 . S
C939 H933 0.950 . S
C939 C938 1.327 . S
C939 C943 1.429 . S
C940 C923 1.574 . S
C940 H934 0.949 . S
C940 C944 1.368 . S
C941 C922 1.429 . S
C941 C935 1.429 . S
C941 C942 1.523 . S
C942 C923 1.368 . S
C942 C936 1.368 . S
C942 C941 1.523 . S
C943 C927 1.429 . S
C943 C939 1.429 . S
C943 C944 1.523 . S
C944 C928 1.368 . S
C944 C940 1.368 . S
C944 C943 1.523 . S
H945 C920 0.950 . S
H946 C922 0.950 . S
H947 C923 0.949 . S
H948 C925 0.950 . S
H949 C927 0.950 . S
C950 C951 1.349 . S
C950 C952 1.327 . S
C950 H975 0.950 . S
C951 C950 1.349 . S
C951 C967 1.349 . S
C952 C950 1.327 . S
C952 C971 1.429 . S
C952 H976 0.950 . S
C953 C970 1.574 . S
C953 C972 1.368 . S
C953 H977 0.949 . S
H954 C958 0.949 . S
C955 C956 1.349 . S
C955 C957 1.327 . S
C955 H978 0.950 . S
C956 C955 1.349 . S
C956 C968 1.349 . S
C957 C955 1.327 . S
C957 C973 1.429 . S
C957 H979 0.950 . S
C958 H954 0.949 . S
C958 C966 1.574 . S
C958 C974 1.368 . S
H959 C967 0.950 . S
H960 C965 0.950 . S
H961 C966 0.949 . S
H962 C968 0.950 . S
H963 C969 0.950 . S
H964 C970 0.949 . S
C965 H960 0.950 . S
C965 C967 1.327 . S
C965 C971 1.429 . S
C966 C958 1.574 . S
C966 H961 0.949 . S
C966 C972 1.368 . S
C967 C951 1.349 . S
C967 H959 0.950 . S
C967 C965 1.327 . S
C968 C956 1.349 . S
C968 H962 0.950 . S
C968 C969 1.327 . S
C969 H963 0.950 . S
C969 C968 1.327 . S
C969 C973 1.429 . S
C970 C953 1.574 . S
C970 H964 0.949 . S
C970 C974 1.368 . S
C971 C952 1.429 . S
C971 C965 1.429 . S
C971 C972 1.523 . S
C972 C953 1.368 . S
C972 C966 1.368 . S
C972 C971 1.523 . S
C973 C957 1.429 . S
C973 C969 1.429 . S
C973 C974 1.523 . S
C974 C958 1.368 . S
C974 C970 1.368 . S
C974 C973 1.523 . S
H975 C950 0.950 . S
H976 C952 0.950 . S
H977 C953 0.949 . S
H978 C955 0.950 . S
H979 C957 0.950 . S
C980 C981 1.349 . S
C980 C982 1.327 . S
C980 H1005 0.950 . S
C981 C980 1.349 . S
C981 C997 1.349 . S
C982 C980 1.327 . S
C982 C1001 1.429 . S
C982 H1006 0.950 . S
C983 C1000 1.574 . S
C983 C1002 1.368 . S
C983 H1007 0.949 . S
H984 C988 0.949 . S
C985 C986 1.349 . S
C985 C987 1.327 . S
C985 H1008 0.950 . S
C986 C985 1.349 . S
C986 C998 1.349 . S
C987 C985 1.327 . S
C987 C1003 1.429 . S
C987 H1009 0.950 . S
C988 H984 0.949 . S
C988 C996 1.574 . S
C988 C1004 1.368 . S
H989 C997 0.950 . S
H990 C995 0.950 . S
H991 C996 0.949 . S
H992 C998 0.950 . S
H993 C999 0.950 . S
H994 C1000 0.949 . S
C995 H990 0.950 . S
C995 C997 1.327 . S
C995 C1001 1.429 . S
C996 C988 1.574 . S
C996 H991 0.949 . S
C996 C1002 1.368 . S
C997 C981 1.349 . S
C997 H989 0.950 . S
C997 C995 1.327 . S
C998 C986 1.349 . S
C998 H992 0.950 . S
C998 C999 1.327 . S
C999 H993 0.950 . S
C999 C998 1.327 . S
C999 C1003 1.429 . S
C1000 C983 1.574 . S
C1000 H994 0.949 . S
C1000 C1004 1.368 . S
C1001 C982 1.429 . S
C1001 C995 1.429 . S
C1001 C1002 1.523 . S
C1002 C983 1.368 . S
C1002 C996 1.368 . S
C1002 C1001 1.523 . S
C1003 C987 1.429 . S
C1003 C999 1.429 . S
C1003 C1004 1.523 . S
C1004 C988 1.368 . S
C1004 C1000 1.368 . S
C1004 C1003 1.523 . S
H1005 C980 0.950 . S
H1006 C982 0.950 . S
H1007 C983 0.949 . S
H1008 C985 0.950 . S
H1009 C987 0.950 . S
C1010 C1011 1.349 . S
C1010 C1012 1.327 . S
C1010 H1035 0.950 . S
C1011 C1010 1.349 . S
C1011 C1027 1.349 . S
C1012 C1010 1.327 . S
C1012 C1031 1.429 . S
C1012 H1036 0.950 . S
C1013 C1030 1.574 . S
C1013 C1032 1.368 . S
C1013 H1037 0.949 . S
H1014 C1018 0.949 . S
C1015 C1016 1.349 . S
C1015 C1017 1.327 . S
C1015 H1038 0.950 . S
C1016 C1015 1.349 . S
C1016 C1028 1.349 . S
C1017 C1015 1.327 . S
C1017 C1033 1.429 . S
C1017 H1039 0.950 . S
C1018 H1014 0.949 . S
C1018 C1026 1.574 . S
C1018 C1034 1.368 . S
H1019 C1027 0.950 . S
H1020 C1025 0.950 . S
H1021 C1026 0.949 . S
H1022 C1028 0.950 . S
H1023 C1029 0.950 . S
H1024 C1030 0.949 . S
C1025 H1020 0.950 . S
C1025 C1027 1.327 . S
C1025 C1031 1.429 . S
C1026 C1018 1.574 . S
C1026 H1021 0.949 . S
C1026 C1032 1.368 . S
C1027 C1011 1.349 . S
C1027 H1019 0.950 . S
C1027 C1025 1.327 . S
C1028 C1016 1.349 . S
C1028 H1022 0.950 . S
C1028 C1029 1.327 . S
C1029 H1023 0.950 . S
C1029 C1028 1.327 . S
C1029 C1033 1.429 . S
C1030 C1013 1.574 . S
C1030 H1024 0.949 . S
C1030 C1034 1.368 . S
C1031 C1012 1.429 . S
C1031 C1025 1.429 . S
C1031 C1032 1.523 . S
C1032 C1013 1.368 . S
C1032 C1026 1.368 . S
C1032 C1031 1.523 . S
C1033 C1017 1.429 . S
C1033 C1029 1.429 . S
C1033 C1034 1.523 . S
C1034 C1018 1.368 . S
C1034 C1030 1.368 . S
C1034 C1033 1.523 . S
H1035 C1010 0.950 . S
H1036 C1012 0.950 . S
H1037 C1013 0.949 . S
H1038 C1015 0.950 . S
H1039 C1017 0.950 . S
C321 C20 2.138 . S
C326 C31 2.138 . S
C351 C60 2.138 . S
C356 C71 2.138 . S
C381 C100 2.138 . S
C386 C111 2.138 . S
C411 C140 2.138 . S
C416 C151 2.138 . S
C441 C180 2.138 . S
C446 C191 2.138 . S
C471 C231 2.138 . S
C476 C220 2.138 . S
C501 C260 2.138 . S
C506 C271 2.138 . S
C531 C311 2.138 . S
C536 C300 2.138 . S
C561 C44 2.267 . S
C566 C25 2.267 . S
C591 C145 2.267 . S
C596 C84 2.267 . S
C621 C185 2.267 . S
C626 C204 2.267 . S
C651 C244 2.267 . S
C656 C305 2.267 . S
C681 C4 1.668 . S
C686 C225 1.668 . S
C711 C164 1.669 . S
C716 C65 1.669 . S
C741 C105 1.669 . S
C746 C284 1.669 . S
C771 C124 1.669 . S
C776 C265 1.669 . S
C801 C23 1.399 . S
C806 C143 1.399 . S
C831 C63 1.696 . S
C836 C103 1.696 . S
C861 C42 1.399 . S
C866 C82 1.399 . S
C891 C122 1.697 . S
C896 C2 1.697 . S
C921 C183 1.399 . S
C926 C303 1.399 . S
C951 C223 1.696 . S
C956 C263 1.696 . S
C981 C202 1.400 . S
C986 C242 1.400 . S
C1011 C282 1.696 . S
C1016 C162 1.696 . S
