# Generated by pormake.
# Topology uoz, (4)-cn, num edge types: 1
# Building blocks:
#     Node 0, Type 0, BuildingBlock: CEKHIL_clean_sbu_0, # of connection points: 4
#     Node 1, Type 0, BuildingBlock: CEKHIL_clean_sbu_0, # of connection points: 4
#     Node 2, Type 0, BuildingBlock: CEKHIL_clean_sbu_0, # of connection points: 4
#     Node 3, Type 0, BuildingBlock: CEKHIL_clean_sbu_0, # of connection points: 4
#     Node 4, Type 0, BuildingBlock: CEKHIL_clean_sbu_0, # of connection points: 4
#     Node 5, Type 0, BuildingBlock: CEKHIL_clean_sbu_0, # of connection points: 4
#     Node 6, Type 0, BuildingBlock: CEKHIL_clean_sbu_0, # of connection points: 4
#     Node 7, Type 0, BuildingBlock: CEKHIL_clean_sbu_0, # of connection points: 4
#     Node 8, Type 0, BuildingBlock: CEKHIL_clean_sbu_0, # of connection points: 4
#     Node 9, Type 0, BuildingBlock: CEKHIL_clean_sbu_0, # of connection points: 4
#     Node 10, Type 0, BuildingBlock: CEKHIL_clean_sbu_0, # of connection points: 4
#     Node 11, Type 0, BuildingBlock: CEKHIL_clean_sbu_0, # of connection points: 4
#     Node 12, Type 0, BuildingBlock: CEKHIL_clean_sbu_0, # of connection points: 4
#     Node 13, Type 0, BuildingBlock: CEKHIL_clean_sbu_0, # of connection points: 4
#     Node 14, Type 0, BuildingBlock: CEKHIL_clean_sbu_0, # of connection points: 4
#     Node 15, Type 0, BuildingBlock: CEKHIL_clean_sbu_0, # of connection points: 4
#     Edge 16, Type (0, 0), BuildingBlock: EYOCIG_clean_linker_4, # of connection points: 2
#     Edge 17, Type (0, 0), BuildingBlock: EYOCIG_clean_linker_4, # of connection points: 2
#     Edge 18, Type (0, 0), BuildingBlock: EYOCIG_clean_linker_4, # of connection points: 2
#     Edge 19, Type (0, 0), BuildingBlock: EYOCIG_clean_linker_4, # of connection points: 2
#     Edge 20, Type (0, 0), BuildingBlock: EYOCIG_clean_linker_4, # of connection points: 2
#     Edge 21, Type (0, 0), BuildingBlock: EYOCIG_clean_linker_4, # of connection points: 2
#     Edge 22, Type (0, 0), BuildingBlock: EYOCIG_clean_linker_4, # of connection points: 2
#     Edge 23, Type (0, 0), BuildingBlock: EYOCIG_clean_linker_4, # of connection points: 2
#     Edge 24, Type (0, 0), BuildingBlock: EYOCIG_clean_linker_4, # of connection points: 2
#     Edge 25, Type (0, 0), BuildingBlock: EYOCIG_clean_linker_4, # of connection points: 2
#     Edge 26, Type (0, 0), BuildingBlock: EYOCIG_clean_linker_4, # of connection points: 2
#     Edge 27, Type (0, 0), BuildingBlock: EYOCIG_clean_linker_4, # of connection points: 2
#     Edge 28, Type (0, 0), BuildingBlock: EYOCIG_clean_linker_4, # of connection points: 2
#     Edge 29, Type (0, 0), BuildingBlock: EYOCIG_clean_linker_4, # of connection points: 2
#     Edge 30, Type (0, 0), BuildingBlock: EYOCIG_clean_linker_4, # of connection points: 2
#     Edge 31, Type (0, 0), BuildingBlock: EYOCIG_clean_linker_4, # of connection points: 2
#     Edge 32, Type (0, 0), BuildingBlock: EYOCIG_clean_linker_4, # of connection points: 2
#     Edge 33, Type (0, 0), BuildingBlock: EYOCIG_clean_linker_4, # of connection points: 2
#     Edge 34, Type (0, 0), BuildingBlock: EYOCIG_clean_linker_4, # of connection points: 2
#     Edge 35, Type (0, 0), BuildingBlock: EYOCIG_clean_linker_4, # of connection points: 2
#     Edge 36, Type (0, 0), BuildingBlock: EYOCIG_clean_linker_4, # of connection points: 2
#     Edge 37, Type (0, 0), BuildingBlock: EYOCIG_clean_linker_4, # of connection points: 2
#     Edge 38, Type (0, 0), BuildingBlock: EYOCIG_clean_linker_4, # of connection points: 2
#     Edge 39, Type (0, 0), BuildingBlock: EYOCIG_clean_linker_4, # of connection points: 2
#     Edge 40, Type (0, 0), BuildingBlock: EYOCIG_clean_linker_4, # of connection points: 2
#     Edge 41, Type (0, 0), BuildingBlock: EYOCIG_clean_linker_4, # of connection points: 2
#     Edge 42, Type (0, 0), BuildingBlock: EYOCIG_clean_linker_4, # of connection points: 2
#     Edge 43, Type (0, 0), BuildingBlock: EYOCIG_clean_linker_4, # of connection points: 2
#     Edge 44, Type (0, 0), BuildingBlock: EYOCIG_clean_linker_4, # of connection points: 2
#     Edge 45, Type (0, 0), BuildingBlock: EYOCIG_clean_linker_4, # of connection points: 2
#     Edge 46, Type (0, 0), BuildingBlock: EYOCIG_clean_linker_4, # of connection points: 2
#     Edge 47, Type (0, 0), BuildingBlock: EYOCIG_clean_linker_4, # of connection points: 2
# Relax obj value: 0.182
# Max RMSD: 0.171
# Mean RMSD: 0.171
data_MOF--net-uoz--node1-CEKHIL_clean_sbu_0--edge1-EYOCIG_clean_linker_4
_symmetry_space_group_name_H-M    P1
_symmetry_Int_Tables_number       1
_symmetry_cell_setting            triclinic
loop_
_symmetry_equiv_pos_as_xyz
'x, y, z'
_cell_length_a     47.353097
_cell_length_b     47.411869
_cell_length_c     16.52939
_cell_angle_alpha  90.016135
_cell_angle_beta   89.955497
_cell_angle_gamma 90.005781
loop_
_atom_site_label
_atom_site_type_symbol
_atom_site_fract_x
_atom_site_fract_y
_atom_site_fract_z
_atom_type_partial_charge
Co0 Co 0.03149 0.58953 0.31376 0.0
O1 O 0.00743 0.5614 0.36634 0.0
O2 O 0.04889 0.57493 0.41261 0.0
C3 C 0.99728 0.62173 0.28146 0.0
O4 O 0.06287 0.61687 0.27742 0.0
Co5 Co 0.02241 0.60652 0.13036 0.0
O6 O 0.05753 0.62835 0.14546 0.0
C7 C 0.04645 0.55184 0.17737 0.0
C8 C 0.02729 0.55818 0.41976 0.0
C9 C 0.07115 0.62915 0.2117 0.0
O10 O 0.05028 0.55915 0.25092 0.0
O11 O 0.0323 0.56582 0.12535 0.0
O12 O 0.00801 0.62137 0.35406 0.0
O13 O 1.00551 0.60176 0.23518 0.0
Co14 Co 0.70804 0.74382 0.56418 0.0
O15 O 0.73634 0.71992 0.6165 0.0
O16 O 0.7222 0.76097 0.66394 0.0
C17 C 0.67629 0.70942 0.53027 0.0
O18 O 0.68032 0.77493 0.52833 0.0
Co19 Co 0.69154 0.73518 0.38022 0.0
O20 O 0.66888 0.76971 0.3963 0.0
C21 C 0.74582 0.75988 0.42879 0.0
C22 C 0.73917 0.73955 0.67075 0.0
C23 C 0.66784 0.78313 0.46287 0.0
O24 O 0.73837 0.76322 0.50246 0.0
O25 O 0.73213 0.74575 0.37609 0.0
O26 O 0.67637 0.71987 0.60321 0.0
O27 O 0.6963 0.718 0.48456 0.0
Co28 Co 0.55369 0.42044 0.8141 0.0
O29 O 0.57793 0.44871 0.86525 0.0
O30 O 0.53682 0.43502 0.91378 0.0
C31 C 0.58795 0.38851 0.78043 0.0
O32 O 0.52224 0.39285 0.77941 0.0
Co33 Co 0.5618 0.40323 0.63051 0.0
O34 O 0.52701 0.38104 0.64747 0.0
C35 C 0.53851 0.45813 0.67859 0.0
C36 C 0.55839 0.45185 0.91975 0.0
C37 C 0.51375 0.38028 0.71435 0.0
O38 O 0.53452 0.45071 0.75199 0.0
O39 O 0.55256 0.4441 0.62641 0.0
O40 O 0.57757 0.38882 0.85349 0.0
O41 O 0.5793 0.40833 0.73432 0.0
Co42 Co 0.87677 0.26619 0.06273 0.0
O43 O 0.84855 0.29013 0.11525 0.0
O44 O 0.86247 0.24893 0.16218 0.0
C45 C 0.90867 0.30058 0.0298 0.0
O46 O 0.90434 0.23504 0.02646 0.0
Co47 Co 0.89358 0.27533 0.87908 0.0
O48 O 0.91572 0.24044 0.89439 0.0
C49 C 0.83939 0.24999 0.92628 0.0
C50 C 0.84564 0.27045 0.16928 0.0
C51 C 0.91665 0.22685 0.96067 0.0
O52 O 0.84647 0.24694 1.00036 0.0
O53 O 0.85319 0.26415 0.87383 0.0
O54 O 0.90848 0.28993 0.10249 0.0
O55 O 0.8887 0.29217 0.9838 0.0
Co56 Co 0.03141 0.42038 0.80442 0.0
O57 O 0.00758 0.44885 0.75249 0.0
O58 O 0.04895 0.43517 0.70586 0.0
C59 C 0.99688 0.38841 0.83553 0.0
O60 O 0.06257 0.39264 0.83987 0.0
Co61 Co 0.02201 0.40232 0.98702 0.0
O62 O 0.05701 0.38037 0.97119 0.0
C63 C 0.04656 0.45707 0.94275 0.0
C64 C 0.02741 0.45199 0.69887 0.0
C65 C 0.07071 0.3799 0.90499 0.0
O66 O 0.05037 0.45032 0.86867 0.0
O67 O 0.03214 0.4429 0.99376 0.0
O68 O 0.0077 0.38891 0.763 0.0
O69 O 1.00528 0.40807 0.88253 0.0
Co70 Co 0.8766 0.74404 0.05674 0.0
O71 O 0.84816 0.72012 1.00486 0.0
O72 O 0.86189 0.76137 0.95789 0.0
C73 C 0.90868 0.70965 0.08858 0.0
O74 O 0.90426 0.77526 0.09216 0.0
Co75 Co 0.89425 0.73489 0.23973 0.0
O76 O 0.91601 0.77 0.22395 0.0
C77 C 0.83967 0.75962 0.19448 0.0
C78 C 0.84504 0.73985 0.95107 0.0
C79 C 0.91669 0.78356 0.1576 0.0
O80 O 0.84655 0.76315 0.1204 0.0
O81 O 0.85366 0.74523 0.24589 0.0
O82 O 0.90821 0.72031 0.01591 0.0
O83 O 0.88889 0.71805 0.13523 0.0
Co84 Co 0.55378 0.58954 0.30431 0.0
O85 O 0.57794 0.56124 0.25278 0.0
O86 O 0.53653 0.57456 0.20575 0.0
C87 C 0.58802 0.62178 0.3356 0.0
O88 O 0.52228 0.61699 0.33916 0.0
Co89 Co 0.56262 0.60797 0.48683 0.0
O90 O 0.52734 0.62938 0.47052 0.0
C91 C 0.53896 0.55281 0.44258 0.0
C92 C 0.5582 0.55791 0.19905 0.0
C93 C 0.51381 0.62964 0.40411 0.0
O94 O 0.53503 0.55948 0.36853 0.0
O95 O 0.55314 0.56724 0.49353 0.0
O96 O 0.57731 0.62117 0.26299 0.0
O97 O 0.57965 0.60214 0.38267 0.0
Co98 Co 0.70853 0.2661 0.5558 0.0
O99 O 0.7369 0.29009 0.50404 0.0
O100 O 0.72317 0.24885 0.45681 0.0
C101 C 0.67647 0.30044 0.58777 0.0
O102 O 0.68089 0.23487 0.59118 0.0
Co103 Co 0.69108 0.27512 0.73892 0.0
O104 O 0.66918 0.24009 0.72306 0.0
C105 C 0.74551 0.25002 0.69321 0.0
C106 C 0.74 0.27039 0.45011 0.0
C107 C 0.66845 0.22656 0.65665 0.0
O108 O 0.73865 0.24693 0.61897 0.0
O109 O 0.73149 0.26412 0.74533 0.0
O110 O 0.67693 0.28978 0.5151 0.0
O111 O 0.69626 0.29206 0.63443 0.0
Co112 Co 0.37679 0.24367 0.55572 0.0
O113 O 0.3484 0.21977 0.50362 0.0
O114 O 0.36204 0.26109 0.45701 0.0
C115 C 0.40888 0.20925 0.58691 0.0
O116 O 0.40446 0.27485 0.59166 0.0
Co117 Co 0.39445 0.23415 0.73857 0.0
O118 O 0.41639 0.26917 0.72318 0.0
C119 C 0.34 0.25941 0.69394 0.0
C120 C 0.34525 0.23953 0.44994 0.0
C121 C 0.41702 0.28293 0.65716 0.0
O122 O 0.34672 0.26269 0.61963 0.0
O123 O 0.35405 0.24514 0.74549 0.0
O124 O 0.4084 0.22006 0.51444 0.0
O125 O 0.38909 0.21755 0.63376 0.0
Co126 Co 0.20809 0.76597 0.05486 0.0
O127 O 0.23662 0.78988 1.00337 0.0
O128 O 0.22298 0.74861 0.95628 0.0
C129 C 0.17606 0.8004 0.08646 0.0
O130 O 0.18042 0.73466 0.08971 0.0
Co131 Co 0.18975 0.77486 0.23748 0.0
O132 O 0.16832 0.73959 0.22137 0.0
C133 C 0.2449 0.75128 0.1926 0.0
C134 C 0.23985 0.77011 0.94969 0.0
C135 C 0.16789 0.72616 0.15481 0.0
O136 O 0.23804 0.74706 0.11887 0.0
O137 O 0.23062 0.76569 0.2434 0.0
O138 O 0.17658 0.78972 0.01379 0.0
O139 O 0.19567 0.79187 0.1334 0.0
Co140 Co 0.20801 0.24377 0.06371 0.0
O141 O 0.23615 0.2197 0.11615 0.0
O142 O 0.22257 0.26105 0.16282 0.0
C143 C 0.17576 0.20966 0.03123 0.0
O144 O 0.18056 0.27505 0.02745 0.0
Co145 Co 0.19119 0.23465 0.88016 0.0
O146 O 0.16886 0.26943 0.89573 0.0
C147 C 0.24561 0.25944 0.92716 0.0
C148 C 0.23931 0.23946 0.16987 0.0
C149 C 0.16805 0.28311 0.96188 0.0
O150 O 0.23842 0.2627 1.00108 0.0
O151 O 0.23171 0.24542 0.87467 0.0
O152 O 0.17613 0.22032 0.10392 0.0
O153 O 0.1958 0.21783 0.98502 0.0
Co154 Co 0.37729 0.76596 0.56402 0.0
O155 O 0.34928 0.78999 0.61717 0.0
O156 O 0.36304 0.74864 0.66341 0.0
C157 C 0.40928 0.80016 0.53045 0.0
O158 O 0.40458 0.7346 0.52713 0.0
Co159 Co 0.39386 0.77484 0.38011 0.0
O160 O 0.4158 0.7398 0.39489 0.0
C161 C 0.33907 0.75139 0.42921 0.0
C162 C 0.34625 0.77019 0.67082 0.0
C163 C 0.41675 0.72627 0.46125 0.0
O164 O 0.34671 0.74719 0.50227 0.0
O165 O 0.35294 0.7656 0.37703 0.0
O166 O 0.40924 0.7895 0.60315 0.0
O167 O 0.3892 0.79182 0.4848 0.0
Co168 Co 0.53177 0.08952 0.81374 0.0
O169 O 0.50772 0.06125 0.86592 0.0
O170 O 0.54893 0.0751 0.91313 0.0
C171 C 0.49745 0.12144 0.78025 0.0
O172 O 0.56312 0.11703 0.77812 0.0
Co173 Co 0.5233 0.1064 0.63006 0.0
O174 O 0.55826 0.12843 0.64596 0.0
C175 C 0.54685 0.05167 0.67829 0.0
C176 C 0.52744 0.0582 0.91984 0.0
C177 C 0.5716 0.12935 0.71266 0.0
O178 O 0.55086 0.05919 0.75157 0.0
O179 O 0.53266 0.06556 0.62617 0.0
O180 O 0.50794 0.12123 0.85315 0.0
O181 O 0.50599 0.10152 0.7343 0.0
Co182 Co 0.05365 0.9203 0.3149 0.0
O183 O 0.07785 0.94843 0.36701 0.0
O184 O 0.0366 0.93474 0.41451 0.0
C185 C 0.08788 0.88831 0.28117 0.0
O186 O 0.02216 0.89291 0.27942 0.0
Co187 Co 0.06198 0.90325 0.13122 0.0
O188 O 0.02695 0.88138 0.1473 0.0
C189 C 0.03862 0.95812 0.17947 0.0
C190 C 0.05818 0.95151 0.42119 0.0
C191 C 0.01361 0.88058 0.21405 0.0
O192 O 0.03467 0.95072 0.2529 0.0
O193 O 0.05266 0.94409 0.12724 0.0
O194 O 0.07738 0.88851 0.35409 0.0
O195 O 0.07936 0.90823 0.23526 0.0
Co196 Co 0.53139 0.92039 0.30469 0.0
O197 O 0.50765 0.94881 0.2522 0.0
O198 O 0.54913 0.93514 0.20636 0.0
C199 C 0.49685 0.88839 0.33536 0.0
O200 O 0.56246 0.89269 0.34103 0.0
Co201 Co 0.52151 0.90254 0.48732 0.0
O202 O 0.55654 0.88055 0.47233 0.0
C203 C 0.54619 0.95722 0.44296 0.0
C204 C 0.5276 0.95196 0.19895 0.0
C205 C 0.5704 0.88 0.40643 0.0
O206 O 0.55018 0.95038 0.36905 0.0
O207 O 0.53165 0.94312 0.49384 0.0
O208 O 0.50781 0.88886 0.26301 0.0
O209 O 0.50509 0.90812 0.38237 0.0
Co210 Co 0.05344 0.08948 0.80544 0.0
O211 O 0.07767 0.06112 0.75429 0.0
O212 O 0.03635 0.07444 0.70663 0.0
C213 C 0.08757 0.12178 0.83735 0.0
O214 O 0.02193 0.11698 0.83988 0.0
Co215 Co 0.06198 0.10775 0.98822 0.0
O216 O 0.02688 0.12941 0.97127 0.0
C217 C 0.03862 0.05259 0.94323 0.0
C218 C 0.05801 0.05774 0.70034 0.0
C219 C 0.01346 0.12973 0.90468 0.0
O220 O 0.03457 0.05942 0.86938 0.0
O221 O 0.05286 0.06692 0.99425 0.0
O222 O 0.07704 0.12112 0.76452 0.0
O223 O 0.07916 0.10208 0.8842 0.0
C224 C 0.13747 0.68001 0.17038 0.0
C225 C 0.15198 0.70028 0.15488 0.0
C226 C 0.11719 0.65971 0.1946 0.0
C227 C 0.09696 0.64519 0.21055 0.0
C228 C 0.61625 0.84908 0.42334 0.0
C229 C 0.59613 0.86379 0.40762 0.0
C230 C 0.63658 0.82877 0.44707 0.0
C231 C 0.65139 0.80869 0.46232 0.0
C232 C 0.46796 0.34921 0.69907 0.0
C233 C 0.48807 0.36398 0.71454 0.0
C234 C 0.44773 0.32886 0.67468 0.0
C235 C 0.43312 0.30871 0.65849 0.0
C236 C 0.94728 0.18087 0.94359 0.0
C237 C 0.93275 0.2011 0.95939 0.0
C238 C 0.96748 0.16046 0.91961 0.0
C239 C 0.98766 0.14579 0.90436 0.0
C240 C 0.11666 0.34912 0.92105 0.0
C241 C 0.09648 0.36378 0.90556 0.0
C242 C 0.13702 0.32885 0.945 0.0
C243 C 0.15175 0.30876 0.96075 0.0
C244 C 0.9676 0.84988 0.19831 0.0
C245 C 0.98782 0.86447 0.21385 0.0
C246 C 0.94731 0.82957 0.17416 0.0
C247 C 0.93275 0.80936 0.15838 0.0
C248 C 0.44732 0.68027 0.44401 0.0
C249 C 0.43281 0.70049 0.46002 0.0
C250 C 0.4676 0.65999 0.41972 0.0
C251 C 0.48788 0.64549 0.40417 0.0
C252 C 0.63779 0.18057 0.67298 0.0
C253 C 0.65236 0.20079 0.65738 0.0
C254 C 0.6175 0.16022 0.69689 0.0
C255 C 0.59731 0.14557 0.71231 0.0
C256 C 0.96431 0.35017 0.9068 0.0
C257 C 0.97905 0.36614 0.86755 0.0
C258 C 0.94691 0.33287 0.95724 0.0
C259 C 0.9309 0.31825 0.99673 0.0
C260 C 0.46481 0.15942 0.70782 0.0
C261 C 0.47957 0.1435 0.74715 0.0
C262 C 0.44732 0.17677 0.65778 0.0
C263 C 0.43122 0.19147 0.6189 0.0
C264 C 0.62067 0.65997 0.40667 0.0
C265 C 0.6059 0.64403 0.36746 0.0
C266 C 0.63813 0.6772 0.4571 0.0
C267 C 0.65414 0.69177 0.49672 0.0
C268 C 0.13791 0.83307 0.15794 0.0
C269 C 0.15385 0.81831 0.11862 0.0
C270 C 0.12053 0.8504 0.20843 0.0
C271 C 0.10577 0.86627 0.24799 0.0
C272 C 0.96467 0.65995 0.21 0.0
C273 C 0.97945 0.64395 0.24901 0.0
C274 C 0.94714 0.6773 0.16004 0.0
C275 C 0.93102 0.69194 0.12096 0.0
C276 C 0.11981 0.16022 0.90903 0.0
C277 C 0.10523 0.14414 0.86966 0.0
C278 C 0.13722 0.17756 0.95932 0.0
C279 C 0.15337 0.19211 0.99855 0.0
C280 C 0.63812 0.33307 0.65858 0.0
C281 C 0.65422 0.3183 0.61987 0.0
C282 C 0.62062 0.3505 0.70834 0.0
C283 C 0.60585 0.36647 0.74747 0.0
C284 C 0.44721 0.83263 0.45726 0.0
C285 C 0.43137 0.81793 0.49705 0.0
C286 C 0.46446 0.85001 0.40662 0.0
C287 C 0.47912 0.86603 0.36735 0.0
C288 C 0.06837 0.5119 0.0969 0.0
C289 C 0.06087 0.52827 0.14686 0.0
C290 C 0.06857 0.49603 0.02665 0.0
C291 C 0.06118 0.48019 0.97517 0.0
C292 C 0.8011 0.78255 0.27805 0.0
C293 C 0.81676 0.77473 0.22655 0.0
C294 C 0.78542 0.78255 0.34876 0.0
C295 C 0.76923 0.7748 0.39896 0.0
C296 C 0.51742 0.51381 0.52707 0.0
C297 C 0.52464 0.52955 0.47519 0.0
C298 C 0.51737 0.49826 0.59787 0.0
C299 C 0.52443 0.48191 0.64834 0.0
C300 C 0.80036 0.22678 0.84514 0.0
C301 C 0.8163 0.23475 0.89571 0.0
C302 C 0.7845 0.22686 0.77478 0.0
C303 C 0.76858 0.23488 0.72424 0.0
C304 C 0.28526 0.2822 0.84714 0.0
C305 C 0.269 0.27432 0.89698 0.0
C306 C 0.30123 0.28233 0.77697 0.0
C307 C 0.31703 0.27449 0.72583 0.0
C308 C 0.29915 0.72997 0.34843 0.0
C309 C 0.31538 0.73714 0.39905 0.0
C310 C 0.28382 0.72985 0.27728 0.0
C311 C 0.26813 0.73695 0.22519 0.0
C312 C 0.56837 0.99595 0.52722 0.0
C313 C 0.56091 0.98024 0.47553 0.0
C314 C 0.56841 0.01162 0.59782 0.0
C315 C 0.56115 0.028 0.64803 0.0
C316 C 0.01718 0.01351 0.02754 0.0
C317 C 0.02431 0.02928 0.97563 0.0
C318 C 0.01727 0.99806 0.09851 0.0
C319 C 0.02443 0.98182 0.14914 0.0
C320 C 0.02629 0.49363 0.58809 0.0
C321 C 0.02669 0.47473 0.6386 0.0
C322 C 0.02625 0.51633 0.52988 0.0
C323 C 0.02661 0.53533 0.47966 0.0
C324 C 0.80334 0.7386 0.84037 0.0
C325 C 0.82227 0.73906 0.89085 0.0
C326 C 0.78071 0.73852 0.78191 0.0
C327 C 0.76185 0.73886 0.7312 0.0
C328 C 0.55967 0.51622 0.0885 0.0
C329 C 0.55915 0.53514 0.13896 0.0
C330 C 0.55976 0.49359 0.03012 0.0
C331 C 0.55936 0.47468 0.97966 0.0
C332 C 0.80427 0.27168 0.28089 0.0
C333 C 0.82304 0.27126 0.22995 0.0
C334 C 0.78169 0.27166 0.33948 0.0
C335 C 0.76276 0.27121 0.38996 0.0
C336 C 0.30368 0.23823 0.33887 0.0
C337 C 0.32255 0.2387 0.38954 0.0
C338 C 0.28104 0.23822 0.28045 0.0
C339 C 0.26209 0.23866 0.23001 0.0
C340 C 0.30455 0.77127 0.78156 0.0
C341 C 0.3235 0.77085 0.73111 0.0
C342 C 0.28179 0.77127 0.83967 0.0
C343 C 0.26275 0.77084 0.88983 0.0
C344 C 0.52654 0.99363 0.08818 0.0
C345 C 0.52697 0.97469 0.13862 0.0
C346 C 0.52644 0.01634 0.03 0.0
C347 C 0.52678 0.03534 0.97976 0.0
C348 C 0.05951 0.01589 0.59014 0.0
C349 C 0.05901 0.03487 0.64047 0.0
C350 C 0.05951 0.9932 0.53187 0.0
C351 C 0.05903 0.97428 0.48138 0.0
loop_
_geom_bond_atom_site_label_1
_geom_bond_atom_site_label_2
_geom_bond_distance
_geom_bond_site_symmetry_2
_ccdc_geom_bond_type
Co0 O1 2.216 . S
Co0 O2 2.091 . S
Co0 O4 2.004 . S
Co0 O10 2.021 . S
Co0 O12 2.137 . S
Co0 O13 2.244 . S
O1 Co0 2.216 . S
O1 C8 1.247 . S
O2 Co0 2.091 . S
O2 C8 1.261 . S
C3 O12 1.247 1_655 S
C3 O13 1.272 1_655 S
O4 Co0 2.004 . S
O4 C9 1.259 . S
Co5 O6 2.061 . S
Co5 O11 2.052 . S
Co5 O13 2.135 . S
O6 Co5 2.061 . S
O6 C9 1.235 . S
C7 O10 1.238 . S
C7 O11 1.241 . S
C8 O1 1.247 . S
C8 O2 1.261 . S
C9 O4 1.259 . S
C9 O6 1.235 . S
O10 Co0 2.021 . S
O10 C7 1.238 . S
O11 Co5 2.052 . S
O11 C7 1.241 . S
O12 Co0 2.137 . S
O12 C3 1.247 1_455 S
O13 Co0 2.244 . S
O13 C3 1.272 1_455 S
O13 Co5 2.135 . S
Co14 O15 2.216 . S
Co14 O16 2.091 . S
Co14 O18 2.004 . S
Co14 O24 2.021 . S
Co14 O26 2.137 . S
Co14 O27 2.244 . S
O15 Co14 2.216 . S
O15 C22 1.247 . S
O16 Co14 2.091 . S
O16 C22 1.261 . S
C17 O26 1.247 . S
C17 O27 1.272 . S
O18 Co14 2.004 . S
O18 C23 1.259 . S
Co19 O20 2.061 . S
Co19 O25 2.052 . S
Co19 O27 2.135 . S
O20 Co19 2.061 . S
O20 C23 1.235 . S
C21 O24 1.238 . S
C21 O25 1.241 . S
C22 O15 1.247 . S
C22 O16 1.261 . S
C23 O18 1.259 . S
C23 O20 1.235 . S
O24 Co14 2.021 . S
O24 C21 1.238 . S
O25 Co19 2.052 . S
O25 C21 1.241 . S
O26 Co14 2.137 . S
O26 C17 1.247 . S
O27 Co14 2.244 . S
O27 C17 1.272 . S
O27 Co19 2.135 . S
Co28 O29 2.216 . S
Co28 O30 2.091 . S
Co28 O32 2.004 . S
Co28 O38 2.021 . S
Co28 O40 2.137 . S
Co28 O41 2.244 . S
O29 Co28 2.216 . S
O29 C36 1.247 . S
O30 Co28 2.091 . S
O30 C36 1.261 . S
C31 O40 1.247 . S
C31 O41 1.272 . S
O32 Co28 2.004 . S
O32 C37 1.259 . S
Co33 O34 2.061 . S
Co33 O39 2.052 . S
Co33 O41 2.135 . S
O34 Co33 2.061 . S
O34 C37 1.235 . S
C35 O38 1.238 . S
C35 O39 1.241 . S
C36 O29 1.247 . S
C36 O30 1.261 . S
C37 O32 1.259 . S
C37 O34 1.235 . S
O38 Co28 2.021 . S
O38 C35 1.238 . S
O39 Co33 2.052 . S
O39 C35 1.241 . S
O40 Co28 2.137 . S
O40 C31 1.247 . S
O41 Co28 2.244 . S
O41 C31 1.272 . S
O41 Co33 2.135 . S
Co42 O43 2.216 . S
Co42 O44 2.091 . S
Co42 O46 2.004 . S
Co42 O52 2.021 1_554 S
Co42 O54 2.137 . S
Co42 O55 2.244 1_554 S
O43 Co42 2.216 . S
O43 C50 1.247 . S
O44 Co42 2.091 . S
O44 C50 1.261 . S
C45 O54 1.247 . S
C45 O55 1.272 1_554 S
O46 Co42 2.004 . S
O46 C51 1.259 1_554 S
Co47 O48 2.061 . S
Co47 O53 2.052 . S
Co47 O55 2.135 . S
O48 Co47 2.061 . S
O48 C51 1.235 . S
C49 O52 1.238 . S
C49 O53 1.241 . S
C50 O43 1.247 . S
C50 O44 1.261 . S
C51 O46 1.259 1_556 S
C51 O48 1.235 . S
O52 Co42 2.021 1_556 S
O52 C49 1.238 . S
O53 Co47 2.052 . S
O53 C49 1.241 . S
O54 Co42 2.137 . S
O54 C45 1.247 . S
O55 Co42 2.244 1_556 S
O55 C45 1.272 1_556 S
O55 Co47 2.135 . S
Co56 O57 2.216 . S
Co56 O58 2.091 . S
Co56 O60 2.004 . S
Co56 O66 2.021 . S
Co56 O68 2.137 . S
Co56 O69 2.244 . S
O57 Co56 2.216 . S
O57 C64 1.247 . S
O58 Co56 2.091 . S
O58 C64 1.261 . S
C59 O68 1.247 1_655 S
C59 O69 1.272 1_655 S
O60 Co56 2.004 . S
O60 C65 1.259 . S
Co61 O62 2.061 1_554 S
Co61 O67 2.052 . S
Co61 O69 2.135 1_554 S
O62 Co61 2.061 1_556 S
O62 C65 1.235 . S
C63 O66 1.238 . S
C63 O67 1.241 1_556 S
C64 O57 1.247 . S
C64 O58 1.261 . S
C65 O60 1.259 . S
C65 O62 1.235 . S
O66 Co56 2.021 . S
O66 C63 1.238 . S
O67 Co61 2.052 . S
O67 C63 1.241 1_554 S
O68 Co56 2.137 . S
O68 C59 1.247 1_455 S
O69 Co56 2.244 . S
O69 C59 1.272 1_455 S
O69 Co61 2.135 1_556 S
Co70 O71 2.216 . S
Co70 O72 2.091 1_554 S
Co70 O74 2.004 . S
Co70 O80 2.021 . S
Co70 O82 2.137 . S
Co70 O83 2.244 . S
O71 Co70 2.216 . S
O71 C78 1.247 1_554 S
O72 Co70 2.091 1_556 S
O72 C78 1.261 . S
C73 O82 1.247 . S
C73 O83 1.272 . S
O74 Co70 2.004 . S
O74 C79 1.259 . S
Co75 O76 2.061 . S
Co75 O81 2.052 . S
Co75 O83 2.135 . S
O76 Co75 2.061 . S
O76 C79 1.235 . S
C77 O80 1.238 . S
C77 O81 1.241 . S
C78 O71 1.247 1_556 S
C78 O72 1.261 . S
C79 O74 1.259 . S
C79 O76 1.235 . S
O80 Co70 2.021 . S
O80 C77 1.238 . S
O81 Co75 2.052 . S
O81 C77 1.241 . S
O82 Co70 2.137 . S
O82 C73 1.247 . S
O83 Co70 2.244 . S
O83 C73 1.272 . S
O83 Co75 2.135 . S
Co84 O85 2.216 . S
Co84 O86 2.091 . S
Co84 O88 2.004 . S
Co84 O94 2.021 . S
Co84 O96 2.137 . S
Co84 O97 2.244 . S
O85 Co84 2.216 . S
O85 C92 1.247 . S
O86 Co84 2.091 . S
O86 C92 1.261 . S
C87 O96 1.247 . S
C87 O97 1.272 . S
O88 Co84 2.004 . S
O88 C93 1.259 . S
Co89 O90 2.061 . S
Co89 O95 2.052 . S
Co89 O97 2.135 . S
O90 Co89 2.061 . S
O90 C93 1.235 . S
C91 O94 1.238 . S
C91 O95 1.241 . S
C92 O85 1.247 . S
C92 O86 1.261 . S
C93 O88 1.259 . S
C93 O90 1.235 . S
O94 Co84 2.021 . S
O94 C91 1.238 . S
O95 Co89 2.052 . S
O95 C91 1.241 . S
O96 Co84 2.137 . S
O96 C87 1.247 . S
O97 Co84 2.244 . S
O97 C87 1.272 . S
O97 Co89 2.135 . S
Co98 O99 2.216 . S
Co98 O100 2.091 . S
Co98 O102 2.004 . S
Co98 O108 2.021 . S
Co98 O110 2.137 . S
Co98 O111 2.244 . S
O99 Co98 2.216 . S
O99 C106 1.247 . S
O100 Co98 2.091 . S
O100 C106 1.261 . S
C101 O110 1.247 . S
C101 O111 1.272 . S
O102 Co98 2.004 . S
O102 C107 1.259 . S
Co103 O104 2.061 . S
Co103 O109 2.052 . S
Co103 O111 2.135 . S
O104 Co103 2.061 . S
O104 C107 1.235 . S
C105 O108 1.238 . S
C105 O109 1.241 . S
C106 O99 1.247 . S
C106 O100 1.261 . S
C107 O102 1.259 . S
C107 O104 1.235 . S
O108 Co98 2.021 . S
O108 C105 1.238 . S
O109 Co103 2.052 . S
O109 C105 1.241 . S
O110 Co98 2.137 . S
O110 C101 1.247 . S
O111 Co98 2.244 . S
O111 C101 1.272 . S
O111 Co103 2.135 . S
Co112 O113 2.216 . S
Co112 O114 2.091 . S
Co112 O116 2.004 . S
Co112 O122 2.021 . S
Co112 O124 2.137 . S
Co112 O125 2.244 . S
O113 Co112 2.216 . S
O113 C120 1.247 . S
O114 Co112 2.091 . S
O114 C120 1.261 . S
C115 O124 1.247 . S
C115 O125 1.272 . S
O116 Co112 2.004 . S
O116 C121 1.259 . S
Co117 O118 2.061 . S
Co117 O123 2.052 . S
Co117 O125 2.135 . S
O118 Co117 2.061 . S
O118 C121 1.235 . S
C119 O122 1.238 . S
C119 O123 1.241 . S
C120 O113 1.247 . S
C120 O114 1.261 . S
C121 O116 1.259 . S
C121 O118 1.235 . S
O122 Co112 2.021 . S
O122 C119 1.238 . S
O123 Co117 2.052 . S
O123 C119 1.241 . S
O124 Co112 2.137 . S
O124 C115 1.247 . S
O125 Co112 2.244 . S
O125 C115 1.272 . S
O125 Co117 2.135 . S
Co126 O127 2.216 . S
Co126 O128 2.091 1_554 S
Co126 O130 2.004 . S
Co126 O136 2.021 . S
Co126 O138 2.137 . S
Co126 O139 2.244 . S
O127 Co126 2.216 . S
O127 C134 1.247 1_554 S
O128 Co126 2.091 1_556 S
O128 C134 1.261 . S
C129 O138 1.247 . S
C129 O139 1.272 . S
O130 Co126 2.004 . S
O130 C135 1.259 . S
Co131 O132 2.061 . S
Co131 O137 2.052 . S
Co131 O139 2.135 . S
O132 Co131 2.061 . S
O132 C135 1.235 . S
C133 O136 1.238 . S
C133 O137 1.241 . S
C134 O127 1.247 1_556 S
C134 O128 1.261 . S
C135 O130 1.259 . S
C135 O132 1.235 . S
O136 Co126 2.021 . S
O136 C133 1.238 . S
O137 Co131 2.052 . S
O137 C133 1.241 . S
O138 Co126 2.137 . S
O138 C129 1.247 . S
O139 Co126 2.244 . S
O139 C129 1.272 . S
O139 Co131 2.135 . S
Co140 O141 2.216 . S
Co140 O142 2.091 . S
Co140 O144 2.004 . S
Co140 O150 2.021 1_554 S
Co140 O152 2.137 . S
Co140 O153 2.244 1_554 S
O141 Co140 2.216 . S
O141 C148 1.247 . S
O142 Co140 2.091 . S
O142 C148 1.261 . S
C143 O152 1.247 . S
C143 O153 1.272 1_554 S
O144 Co140 2.004 . S
O144 C149 1.259 1_554 S
Co145 O146 2.061 . S
Co145 O151 2.052 . S
Co145 O153 2.135 . S
O146 Co145 2.061 . S
O146 C149 1.235 . S
C147 O150 1.238 . S
C147 O151 1.241 . S
C148 O141 1.247 . S
C148 O142 1.261 . S
C149 O144 1.259 1_556 S
C149 O146 1.235 . S
O150 Co140 2.021 1_556 S
O150 C147 1.238 . S
O151 Co145 2.052 . S
O151 C147 1.241 . S
O152 Co140 2.137 . S
O152 C143 1.247 . S
O153 Co140 2.244 1_556 S
O153 C143 1.272 1_556 S
O153 Co145 2.135 . S
Co154 O155 2.216 . S
Co154 O156 2.091 . S
Co154 O158 2.004 . S
Co154 O164 2.021 . S
Co154 O166 2.137 . S
Co154 O167 2.244 . S
O155 Co154 2.216 . S
O155 C162 1.247 . S
O156 Co154 2.091 . S
O156 C162 1.261 . S
C157 O166 1.247 . S
C157 O167 1.272 . S
O158 Co154 2.004 . S
O158 C163 1.259 . S
Co159 O160 2.061 . S
Co159 O165 2.052 . S
Co159 O167 2.135 . S
O160 Co159 2.061 . S
O160 C163 1.235 . S
C161 O164 1.238 . S
C161 O165 1.241 . S
C162 O155 1.247 . S
C162 O156 1.261 . S
C163 O158 1.259 . S
C163 O160 1.235 . S
O164 Co154 2.021 . S
O164 C161 1.238 . S
O165 Co159 2.052 . S
O165 C161 1.241 . S
O166 Co154 2.137 . S
O166 C157 1.247 . S
O167 Co154 2.244 . S
O167 C157 1.272 . S
O167 Co159 2.135 . S
Co168 O169 2.216 . S
Co168 O170 2.091 . S
Co168 O172 2.004 . S
Co168 O178 2.021 . S
Co168 O180 2.137 . S
Co168 O181 2.244 . S
O169 Co168 2.216 . S
O169 C176 1.247 . S
O170 Co168 2.091 . S
O170 C176 1.261 . S
C171 O180 1.247 . S
C171 O181 1.272 . S
O172 Co168 2.004 . S
O172 C177 1.259 . S
Co173 O174 2.061 . S
Co173 O179 2.052 . S
Co173 O181 2.135 . S
O174 Co173 2.061 . S
O174 C177 1.235 . S
C175 O178 1.238 . S
C175 O179 1.241 . S
C176 O169 1.247 . S
C176 O170 1.261 . S
C177 O172 1.259 . S
C177 O174 1.235 . S
O178 Co168 2.021 . S
O178 C175 1.238 . S
O179 Co173 2.052 . S
O179 C175 1.241 . S
O180 Co168 2.137 . S
O180 C171 1.247 . S
O181 Co168 2.244 . S
O181 C171 1.272 . S
O181 Co173 2.135 . S
Co182 O183 2.216 . S
Co182 O184 2.091 . S
Co182 O186 2.004 . S
Co182 O192 2.021 . S
Co182 O194 2.137 . S
Co182 O195 2.244 . S
O183 Co182 2.216 . S
O183 C190 1.247 . S
O184 Co182 2.091 . S
O184 C190 1.261 . S
C185 O194 1.247 . S
C185 O195 1.272 . S
O186 Co182 2.004 . S
O186 C191 1.259 . S
Co187 O188 2.061 . S
Co187 O193 2.052 . S
Co187 O195 2.135 . S
O188 Co187 2.061 . S
O188 C191 1.235 . S
C189 O192 1.238 . S
C189 O193 1.241 . S
C190 O183 1.247 . S
C190 O184 1.261 . S
C191 O186 1.259 . S
C191 O188 1.235 . S
O192 Co182 2.021 . S
O192 C189 1.238 . S
O193 Co187 2.052 . S
O193 C189 1.241 . S
O194 Co182 2.137 . S
O194 C185 1.247 . S
O195 Co182 2.244 . S
O195 C185 1.272 . S
O195 Co187 2.135 . S
Co196 O197 2.216 . S
Co196 O198 2.091 . S
Co196 O200 2.004 . S
Co196 O206 2.021 . S
Co196 O208 2.137 . S
Co196 O209 2.244 . S
O197 Co196 2.216 . S
O197 C204 1.247 . S
O198 Co196 2.091 . S
O198 C204 1.261 . S
C199 O208 1.247 . S
C199 O209 1.272 . S
O200 Co196 2.004 . S
O200 C205 1.259 . S
Co201 O202 2.061 . S
Co201 O207 2.052 . S
Co201 O209 2.135 . S
O202 Co201 2.061 . S
O202 C205 1.235 . S
C203 O206 1.238 . S
C203 O207 1.241 . S
C204 O197 1.247 . S
C204 O198 1.261 . S
C205 O200 1.259 . S
C205 O202 1.235 . S
O206 Co196 2.021 . S
O206 C203 1.238 . S
O207 Co201 2.052 . S
O207 C203 1.241 . S
O208 Co196 2.137 . S
O208 C199 1.247 . S
O209 Co196 2.244 . S
O209 C199 1.272 . S
O209 Co201 2.135 . S
Co210 O211 2.216 . S
Co210 O212 2.091 . S
Co210 O214 2.004 . S
Co210 O220 2.021 . S
Co210 O222 2.137 . S
Co210 O223 2.244 . S
O211 Co210 2.216 . S
O211 C218 1.247 . S
O212 Co210 2.091 . S
O212 C218 1.261 . S
C213 O222 1.247 . S
C213 O223 1.272 . S
O214 Co210 2.004 . S
O214 C219 1.259 . S
Co215 O216 2.061 1_554 S
Co215 O221 2.052 . S
Co215 O223 2.135 1_554 S
O216 Co215 2.061 1_556 S
O216 C219 1.235 . S
C217 O220 1.238 . S
C217 O221 1.241 1_556 S
C218 O211 1.247 . S
C218 O212 1.261 . S
C219 O214 1.259 . S
C219 O216 1.235 . S
O220 Co210 2.021 . S
O220 C217 1.238 . S
O221 Co215 2.052 . S
O221 C217 1.241 1_554 S
O222 Co210 2.137 . S
O222 C213 1.247 . S
O223 Co210 2.244 . S
O223 C213 1.272 . S
O223 Co215 2.135 1_556 S
C224 C225 1.170 . S
C224 C226 1.380 . S
C225 C224 1.170 . S
C226 C224 1.380 . S
C226 C227 1.170 . S
C227 C226 1.170 . S
C228 C229 1.170 . S
C228 C230 1.380 . S
C229 C228 1.170 . S
C230 C228 1.380 . S
C230 C231 1.170 . S
C231 C230 1.170 . S
C232 C233 1.170 . S
C232 C234 1.380 . S
C233 C232 1.170 . S
C234 C232 1.380 . S
C234 C235 1.170 . S
C235 C234 1.170 . S
C236 C237 1.170 . S
C236 C238 1.380 . S
C237 C236 1.170 . S
C238 C236 1.380 . S
C238 C239 1.170 . S
C239 C238 1.170 . S
C240 C241 1.170 . S
C240 C242 1.380 . S
C241 C240 1.170 . S
C242 C240 1.380 . S
C242 C243 1.170 . S
C243 C242 1.170 . S
C244 C245 1.170 . S
C244 C246 1.380 . S
C245 C244 1.170 . S
C246 C244 1.380 . S
C246 C247 1.170 . S
C247 C246 1.170 . S
C248 C249 1.170 . S
C248 C250 1.380 . S
C249 C248 1.170 . S
C250 C248 1.380 . S
C250 C251 1.170 . S
C251 C250 1.170 . S
C252 C253 1.170 . S
C252 C254 1.380 . S
C253 C252 1.170 . S
C254 C252 1.380 . S
C254 C255 1.170 . S
C255 C254 1.170 . S
C256 C257 1.170 . S
C256 C258 1.380 . S
C257 C256 1.170 . S
C258 C256 1.380 . S
C258 C259 1.170 . S
C259 C258 1.170 . S
C260 C261 1.170 . S
C260 C262 1.380 . S
C261 C260 1.170 . S
C262 C260 1.380 . S
C262 C263 1.170 . S
C263 C262 1.170 . S
C264 C265 1.170 . S
C264 C266 1.380 . S
C265 C264 1.170 . S
C266 C264 1.380 . S
C266 C267 1.170 . S
C267 C266 1.170 . S
C268 C269 1.170 . S
C268 C270 1.380 . S
C269 C268 1.170 . S
C270 C268 1.380 . S
C270 C271 1.170 . S
C271 C270 1.170 . S
C272 C273 1.170 . S
C272 C274 1.380 . S
C273 C272 1.170 . S
C274 C272 1.380 . S
C274 C275 1.170 . S
C275 C274 1.170 . S
C276 C277 1.170 . S
C276 C278 1.380 . S
C277 C276 1.170 . S
C278 C276 1.380 . S
C278 C279 1.170 . S
C279 C278 1.170 . S
C280 C281 1.170 . S
C280 C282 1.380 . S
C281 C280 1.170 . S
C282 C280 1.380 . S
C282 C283 1.170 . S
C283 C282 1.170 . S
C284 C285 1.170 . S
C284 C286 1.380 . S
C285 C284 1.170 . S
C286 C284 1.380 . S
C286 C287 1.170 . S
C287 C286 1.170 . S
C288 C289 1.170 . S
C288 C290 1.380 . S
C289 C288 1.170 . S
C290 C288 1.380 . S
C290 C291 1.170 1_554 S
C291 C290 1.170 1_556 S
C292 C293 1.170 . S
C292 C294 1.380 . S
C293 C292 1.170 . S
C294 C292 1.380 . S
C294 C295 1.170 . S
C295 C294 1.170 . S
C296 C297 1.170 . S
C296 C298 1.380 . S
C297 C296 1.170 . S
C298 C296 1.380 . S
C298 C299 1.170 . S
C299 C298 1.170 . S
C300 C301 1.170 . S
C300 C302 1.380 . S
C301 C300 1.170 . S
C302 C300 1.380 . S
C302 C303 1.170 . S
C303 C302 1.170 . S
C304 C305 1.170 . S
C304 C306 1.380 . S
C305 C304 1.170 . S
C306 C304 1.380 . S
C306 C307 1.170 . S
C307 C306 1.170 . S
C308 C309 1.170 . S
C308 C310 1.380 . S
C309 C308 1.170 . S
C310 C308 1.380 . S
C310 C311 1.170 . S
C311 C310 1.170 . S
C312 C313 1.170 . S
C312 C314 1.380 1_565 S
C313 C312 1.170 . S
C314 C312 1.380 1_545 S
C314 C315 1.170 . S
C315 C314 1.170 . S
C316 C317 1.170 1_554 S
C316 C318 1.380 1_545 S
C317 C316 1.170 1_556 S
C318 C316 1.380 1_565 S
C318 C319 1.170 . S
C319 C318 1.170 . S
C320 C321 1.170 . S
C320 C322 1.380 . S
C321 C320 1.170 . S
C322 C320 1.380 . S
C322 C323 1.170 . S
C323 C322 1.170 . S
C324 C325 1.170 . S
C324 C326 1.380 . S
C325 C324 1.170 . S
C326 C324 1.380 . S
C326 C327 1.170 . S
C327 C326 1.170 . S
C328 C329 1.170 . S
C328 C330 1.380 . S
C329 C328 1.170 . S
C330 C328 1.380 . S
C330 C331 1.170 1_554 S
C331 C330 1.170 1_556 S
C332 C333 1.170 . S
C332 C334 1.380 . S
C333 C332 1.170 . S
C334 C332 1.380 . S
C334 C335 1.170 . S
C335 C334 1.170 . S
C336 C337 1.170 . S
C336 C338 1.380 . S
C337 C336 1.170 . S
C338 C336 1.380 . S
C338 C339 1.170 . S
C339 C338 1.170 . S
C340 C341 1.170 . S
C340 C342 1.380 . S
C341 C340 1.170 . S
C342 C340 1.380 . S
C342 C343 1.170 . S
C343 C342 1.170 . S
C344 C345 1.170 . S
C344 C346 1.380 1_565 S
C345 C344 1.170 . S
C346 C344 1.380 1_545 S
C346 C347 1.170 1_554 S
C347 C346 1.170 1_556 S
C348 C349 1.170 . S
C348 C350 1.380 1_545 S
C349 C348 1.170 . S
C350 C348 1.380 1_565 S
C350 C351 1.170 . S
C351 C350 1.170 . S
C225 C135 1.494 . S
C227 C9 1.488 . S
C229 C205 1.476 . S
C231 C23 1.480 . S
C233 C37 1.487 . S
C235 C121 1.478 . S
C237 C51 1.482 . S
C239 C219 1.491 1_655 S
C241 C65 1.484 . S
C243 C149 1.476 . S
C245 C191 1.493 1_655 S
C247 C79 1.486 . S
C249 C163 1.484 . S
C251 C93 1.492 . S
C253 C107 1.490 . S
C255 C177 1.494 . S
C257 C59 1.617 . S
C259 C45 1.595 1_556 S
C261 C171 1.597 . S
C263 C115 1.617 . S
C265 C87 1.617 . S
C267 C17 1.596 . S
C269 C129 1.608 . S
C271 C185 1.611 . S
C273 C3 1.617 . S
C275 C73 1.592 . S
C277 C213 1.587 . S
C279 C143 1.608 1_556 S
C281 C101 1.614 . S
C283 C31 1.604 . S
C285 C157 1.593 . S
C287 C199 1.617 . S
C289 C7 0.827 . S
C291 C63 0.777 . S
C293 C77 0.792 . S
C295 C21 0.834 . S
C297 C91 0.770 . S
C299 C35 0.813 . S
C301 C49 0.819 . S
C303 C105 0.829 . S
C305 C147 0.835 . S
C307 C119 0.796 . S
C309 C161 0.808 . S
C311 C133 0.770 . S
C313 C203 0.774 . S
C315 C175 0.822 . S
C317 C217 0.771 . S
C319 C189 0.815 . S
C321 C64 1.714 . S
C323 C8 1.705 . S
C325 C78 1.706 . S
C327 C22 1.716 . S
C329 C92 1.718 . S
C331 C36 1.715 . S
C333 C50 1.718 . S
C335 C106 1.709 . S
C337 C120 1.717 . S
C339 C148 1.714 . S
C341 C162 1.713 . S
C343 C134 1.705 . S
C345 C204 1.710 . S
C347 C176 1.706 . S
C349 C218 1.710 . S
C351 C190 1.719 . S
