# Generated by pormake.
# Topology umn, (4)-cn, num edge types: 1
# Building blocks:
#     Node 0, Type 0, BuildingBlock: NAHDIM_clean_sbu_0, # of connection points: 4
#     Node 1, Type 0, BuildingBlock: NAHDIM_clean_sbu_0, # of connection points: 4
#     Node 2, Type 0, BuildingBlock: NAHDIM_clean_sbu_0, # of connection points: 4
#     Node 3, Type 0, BuildingBlock: NAHDIM_clean_sbu_0, # of connection points: 4
#     Node 4, Type 0, BuildingBlock: NAHDIM_clean_sbu_0, # of connection points: 4
#     Node 5, Type 0, BuildingBlock: NAHDIM_clean_sbu_0, # of connection points: 4
#     Node 6, Type 0, BuildingBlock: NAHDIM_clean_sbu_0, # of connection points: 4
#     Node 7, Type 0, BuildingBlock: NAHDIM_clean_sbu_0, # of connection points: 4
#     Node 8, Type 0, BuildingBlock: NAHDIM_clean_sbu_0, # of connection points: 4
#     Node 9, Type 0, BuildingBlock: NAHDIM_clean_sbu_0, # of connection points: 4
#     Node 10, Type 0, BuildingBlock: NAHDIM_clean_sbu_0, # of connection points: 4
#     Node 11, Type 0, BuildingBlock: NAHDIM_clean_sbu_0, # of connection points: 4
#     Node 12, Type 0, BuildingBlock: NAHDIM_clean_sbu_0, # of connection points: 4
#     Node 13, Type 0, BuildingBlock: NAHDIM_clean_sbu_0, # of connection points: 4
#     Node 14, Type 0, BuildingBlock: NAHDIM_clean_sbu_0, # of connection points: 4
#     Node 15, Type 0, BuildingBlock: NAHDIM_clean_sbu_0, # of connection points: 4
#     Node 16, Type 0, BuildingBlock: NAHDIM_clean_sbu_0, # of connection points: 4
#     Node 17, Type 0, BuildingBlock: NAHDIM_clean_sbu_0, # of connection points: 4
#     Node 18, Type 0, BuildingBlock: NAHDIM_clean_sbu_0, # of connection points: 4
#     Node 19, Type 0, BuildingBlock: NAHDIM_clean_sbu_0, # of connection points: 4
#     Node 20, Type 0, BuildingBlock: NAHDIM_clean_sbu_0, # of connection points: 4
#     Node 21, Type 0, BuildingBlock: NAHDIM_clean_sbu_0, # of connection points: 4
#     Node 22, Type 0, BuildingBlock: NAHDIM_clean_sbu_0, # of connection points: 4
#     Node 23, Type 0, BuildingBlock: NAHDIM_clean_sbu_0, # of connection points: 4
#     Node 24, Type 0, BuildingBlock: NAHDIM_clean_sbu_0, # of connection points: 4
#     Node 25, Type 0, BuildingBlock: NAHDIM_clean_sbu_0, # of connection points: 4
#     Node 26, Type 0, BuildingBlock: NAHDIM_clean_sbu_0, # of connection points: 4
#     Node 27, Type 0, BuildingBlock: NAHDIM_clean_sbu_0, # of connection points: 4
#     Node 28, Type 0, BuildingBlock: NAHDIM_clean_sbu_0, # of connection points: 4
#     Node 29, Type 0, BuildingBlock: NAHDIM_clean_sbu_0, # of connection points: 4
#     Node 30, Type 0, BuildingBlock: NAHDIM_clean_sbu_0, # of connection points: 4
#     Node 31, Type 0, BuildingBlock: NAHDIM_clean_sbu_0, # of connection points: 4
#     Node 32, Type 0, BuildingBlock: NAHDIM_clean_sbu_0, # of connection points: 4
#     Node 33, Type 0, BuildingBlock: NAHDIM_clean_sbu_0, # of connection points: 4
#     Node 34, Type 0, BuildingBlock: NAHDIM_clean_sbu_0, # of connection points: 4
#     Node 35, Type 0, BuildingBlock: NAHDIM_clean_sbu_0, # of connection points: 4
#     Edge 36, Type (0, 0), BuildingBlock: UVAHIK_clean_linker_0, # of connection points: 2
#     Edge 37, Type (0, 0), BuildingBlock: UVAHIK_clean_linker_0, # of connection points: 2
#     Edge 38, Type (0, 0), BuildingBlock: UVAHIK_clean_linker_0, # of connection points: 2
#     Edge 39, Type (0, 0), BuildingBlock: UVAHIK_clean_linker_0, # of connection points: 2
#     Edge 40, Type (0, 0), BuildingBlock: UVAHIK_clean_linker_0, # of connection points: 2
#     Edge 41, Type (0, 0), BuildingBlock: UVAHIK_clean_linker_0, # of connection points: 2
#     Edge 42, Type (0, 0), BuildingBlock: UVAHIK_clean_linker_0, # of connection points: 2
#     Edge 43, Type (0, 0), BuildingBlock: UVAHIK_clean_linker_0, # of connection points: 2
#     Edge 44, Type (0, 0), BuildingBlock: UVAHIK_clean_linker_0, # of connection points: 2
#     Edge 45, Type (0, 0), BuildingBlock: UVAHIK_clean_linker_0, # of connection points: 2
#     Edge 46, Type (0, 0), BuildingBlock: UVAHIK_clean_linker_0, # of connection points: 2
#     Edge 47, Type (0, 0), BuildingBlock: UVAHIK_clean_linker_0, # of connection points: 2
#     Edge 48, Type (0, 0), BuildingBlock: UVAHIK_clean_linker_0, # of connection points: 2
#     Edge 49, Type (0, 0), BuildingBlock: UVAHIK_clean_linker_0, # of connection points: 2
#     Edge 50, Type (0, 0), BuildingBlock: UVAHIK_clean_linker_0, # of connection points: 2
#     Edge 51, Type (0, 0), BuildingBlock: UVAHIK_clean_linker_0, # of connection points: 2
#     Edge 52, Type (0, 0), BuildingBlock: UVAHIK_clean_linker_0, # of connection points: 2
#     Edge 53, Type (0, 0), BuildingBlock: UVAHIK_clean_linker_0, # of connection points: 2
#     Edge 54, Type (0, 0), BuildingBlock: UVAHIK_clean_linker_0, # of connection points: 2
#     Edge 55, Type (0, 0), BuildingBlock: UVAHIK_clean_linker_0, # of connection points: 2
#     Edge 56, Type (0, 0), BuildingBlock: UVAHIK_clean_linker_0, # of connection points: 2
#     Edge 57, Type (0, 0), BuildingBlock: UVAHIK_clean_linker_0, # of connection points: 2
#     Edge 58, Type (0, 0), BuildingBlock: UVAHIK_clean_linker_0, # of connection points: 2
#     Edge 59, Type (0, 0), BuildingBlock: UVAHIK_clean_linker_0, # of connection points: 2
#     Edge 60, Type (0, 0), BuildingBlock: UVAHIK_clean_linker_0, # of connection points: 2
#     Edge 61, Type (0, 0), BuildingBlock: UVAHIK_clean_linker_0, # of connection points: 2
#     Edge 62, Type (0, 0), BuildingBlock: UVAHIK_clean_linker_0, # of connection points: 2
#     Edge 63, Type (0, 0), BuildingBlock: UVAHIK_clean_linker_0, # of connection points: 2
#     Edge 64, Type (0, 0), BuildingBlock: UVAHIK_clean_linker_0, # of connection points: 2
#     Edge 65, Type (0, 0), BuildingBlock: UVAHIK_clean_linker_0, # of connection points: 2
#     Edge 66, Type (0, 0), BuildingBlock: UVAHIK_clean_linker_0, # of connection points: 2
#     Edge 67, Type (0, 0), BuildingBlock: UVAHIK_clean_linker_0, # of connection points: 2
#     Edge 68, Type (0, 0), BuildingBlock: UVAHIK_clean_linker_0, # of connection points: 2
#     Edge 69, Type (0, 0), BuildingBlock: UVAHIK_clean_linker_0, # of connection points: 2
#     Edge 70, Type (0, 0), BuildingBlock: UVAHIK_clean_linker_0, # of connection points: 2
#     Edge 71, Type (0, 0), BuildingBlock: UVAHIK_clean_linker_0, # of connection points: 2
#     Edge 72, Type (0, 0), BuildingBlock: UVAHIK_clean_linker_0, # of connection points: 2
#     Edge 73, Type (0, 0), BuildingBlock: UVAHIK_clean_linker_0, # of connection points: 2
#     Edge 74, Type (0, 0), BuildingBlock: UVAHIK_clean_linker_0, # of connection points: 2
#     Edge 75, Type (0, 0), BuildingBlock: UVAHIK_clean_linker_0, # of connection points: 2
#     Edge 76, Type (0, 0), BuildingBlock: UVAHIK_clean_linker_0, # of connection points: 2
#     Edge 77, Type (0, 0), BuildingBlock: UVAHIK_clean_linker_0, # of connection points: 2
#     Edge 78, Type (0, 0), BuildingBlock: UVAHIK_clean_linker_0, # of connection points: 2
#     Edge 79, Type (0, 0), BuildingBlock: UVAHIK_clean_linker_0, # of connection points: 2
#     Edge 80, Type (0, 0), BuildingBlock: UVAHIK_clean_linker_0, # of connection points: 2
#     Edge 81, Type (0, 0), BuildingBlock: UVAHIK_clean_linker_0, # of connection points: 2
#     Edge 82, Type (0, 0), BuildingBlock: UVAHIK_clean_linker_0, # of connection points: 2
#     Edge 83, Type (0, 0), BuildingBlock: UVAHIK_clean_linker_0, # of connection points: 2
#     Edge 84, Type (0, 0), BuildingBlock: UVAHIK_clean_linker_0, # of connection points: 2
#     Edge 85, Type (0, 0), BuildingBlock: UVAHIK_clean_linker_0, # of connection points: 2
#     Edge 86, Type (0, 0), BuildingBlock: UVAHIK_clean_linker_0, # of connection points: 2
#     Edge 87, Type (0, 0), BuildingBlock: UVAHIK_clean_linker_0, # of connection points: 2
#     Edge 88, Type (0, 0), BuildingBlock: UVAHIK_clean_linker_0, # of connection points: 2
#     Edge 89, Type (0, 0), BuildingBlock: UVAHIK_clean_linker_0, # of connection points: 2
#     Edge 90, Type (0, 0), BuildingBlock: UVAHIK_clean_linker_0, # of connection points: 2
#     Edge 91, Type (0, 0), BuildingBlock: UVAHIK_clean_linker_0, # of connection points: 2
#     Edge 92, Type (0, 0), BuildingBlock: UVAHIK_clean_linker_0, # of connection points: 2
#     Edge 93, Type (0, 0), BuildingBlock: UVAHIK_clean_linker_0, # of connection points: 2
#     Edge 94, Type (0, 0), BuildingBlock: UVAHIK_clean_linker_0, # of connection points: 2
#     Edge 95, Type (0, 0), BuildingBlock: UVAHIK_clean_linker_0, # of connection points: 2
#     Edge 96, Type (0, 0), BuildingBlock: UVAHIK_clean_linker_0, # of connection points: 2
#     Edge 97, Type (0, 0), BuildingBlock: UVAHIK_clean_linker_0, # of connection points: 2
#     Edge 98, Type (0, 0), BuildingBlock: UVAHIK_clean_linker_0, # of connection points: 2
#     Edge 99, Type (0, 0), BuildingBlock: UVAHIK_clean_linker_0, # of connection points: 2
#     Edge 100, Type (0, 0), BuildingBlock: UVAHIK_clean_linker_0, # of connection points: 2
#     Edge 101, Type (0, 0), BuildingBlock: UVAHIK_clean_linker_0, # of connection points: 2
#     Edge 102, Type (0, 0), BuildingBlock: UVAHIK_clean_linker_0, # of connection points: 2
#     Edge 103, Type (0, 0), BuildingBlock: UVAHIK_clean_linker_0, # of connection points: 2
#     Edge 104, Type (0, 0), BuildingBlock: UVAHIK_clean_linker_0, # of connection points: 2
#     Edge 105, Type (0, 0), BuildingBlock: UVAHIK_clean_linker_0, # of connection points: 2
#     Edge 106, Type (0, 0), BuildingBlock: UVAHIK_clean_linker_0, # of connection points: 2
#     Edge 107, Type (0, 0), BuildingBlock: UVAHIK_clean_linker_0, # of connection points: 2
# Relax obj value: 0.322
# Max RMSD: 0.316
# Mean RMSD: 0.316
data_MOF--net-umn--node1-NAHDIM_clean_sbu_0--edge1-UVAHIK_clean_linker_0
_symmetry_space_group_name_H-M    P1
_symmetry_Int_Tables_number       1
_symmetry_cell_setting            triclinic
loop_
_symmetry_equiv_pos_as_xyz
'x, y, z'
_cell_length_a     107.33701
_cell_length_b     107.4108
_cell_length_c     45.626504
_cell_angle_alpha  90.026232
_cell_angle_beta   89.9907
_cell_angle_gamma 119.99344
loop_
_atom_site_label
_atom_site_type_symbol
_atom_site_fract_x
_atom_site_fract_y
_atom_site_fract_z
_atom_type_partial_charge
C0 C 0.36784 0.11921 0.19162 0.0
O1 O 0.36466 0.10854 0.17344 0.0
O2 O 0.39884 0.10995 0.20981 0.0
Zn3 Zn 0.37985 0.10549 0.22775 0.0
O4 O 0.37942 0.10505 0.27184 0.0
C5 C 0.36803 0.07642 0.20681 0.0
O6 O 0.38171 0.08044 0.20405 0.0
O7 O 0.37432 0.11997 0.21542 0.0
C8 C 0.37761 0.09394 0.28549 0.0
O9 O 0.37857 0.08391 0.27091 0.0
C10 C 0.40635 0.12092 0.19387 0.0
O11 O 0.4026 0.13079 0.19146 0.0
O12 O 0.36457 0.08559 0.2151 0.0
C13 C 0.86792 0.23585 0.21625 0.0
O14 O 0.8608 0.2413 0.22927 0.0
O15 O 0.8829 0.27438 0.20953 0.0
Zn16 Zn 0.89018 0.26312 0.23179 0.0
O17 O 0.88573 0.25999 0.27484 0.0
C18 C 0.91864 0.26757 0.23835 0.0
O19 O 0.91154 0.25432 0.24825 0.0
O20 O 0.88149 0.24354 0.2138 0.0
C21 C 0.89421 0.26901 0.29357 0.0
O22 O 0.90415 0.28179 0.28463 0.0
C23 C 0.88682 0.28752 0.2139 0.0
O24 O 0.89495 0.29416 0.23665 0.0
O25 O 0.91167 0.27339 0.22861 0.0
C26 C 0.75599 0.62955 0.2072 0.0
O27 O 0.75037 0.61777 0.22306 0.0
O28 O 0.71674 0.60602 0.19783 0.0
Zn29 Zn 0.72829 0.62538 0.21711 0.0
O30 O 0.73008 0.62522 0.26105 0.0
C31 C 0.72542 0.65034 0.2171 0.0
O32 O 0.7386 0.65613 0.22732 0.0
O33 O 0.74828 0.63508 0.20084 0.0
C34 C 0.72086 0.62616 0.277 0.0
O35 O 0.70899 0.62439 0.26483 0.0
C36 C 0.70309 0.59898 0.19892 0.0
O37 O 0.69638 0.60377 0.2155 0.0
O38 O 0.71901 0.63725 0.20909 0.0
C39 C 0.12376 0.36482 0.29021 0.0
O40 O 0.13012 0.37782 0.279 0.0
O41 O 0.10626 0.38607 0.30403 0.0
Zn42 Zn 0.09911 0.36766 0.28118 0.0
O43 O 0.10121 0.36972 0.23725 0.0
C44 C 0.06938 0.3584 0.2961 0.0
O45 O 0.07437 0.37221 0.30002 0.0
O46 O 0.11022 0.35822 0.2939 0.0
C47 C 0.09111 0.36909 0.22157 0.0
O48 O 0.0805 0.36972 0.23444 0.0
C49 C 0.1055 0.39708 0.29669 0.0
O50 O 0.10019 0.39739 0.27095 0.0
O51 O 0.07806 0.35405 0.28937 0.0
C52 C 0.63184 0.76081 0.28573 0.0
O53 O 0.6189 0.75398 0.27417 0.0
O54 O 0.61153 0.7226 0.30029 0.0
Zn55 Zn 0.62943 0.73369 0.27589 0.0
O56 O 0.62656 0.73329 0.23214 0.0
C57 C 0.63899 0.71336 0.28945 0.0
O58 O 0.6253 0.70468 0.29502 0.0
O59 O 0.63881 0.7542 0.28879 0.0
C60 C 0.62587 0.72298 0.21715 0.0
O61 O 0.62437 0.71157 0.23088 0.0
C62 C 0.60011 0.71084 0.29475 0.0
O63 O 0.5987 0.70451 0.26934 0.0
O64 O 0.64324 0.72634 0.28255 0.0
C65 C 0.24601 0.88731 0.32728 0.0
O66 O 0.25544 0.88442 0.3391 0.0
O67 O 0.27731 0.89005 0.29828 0.0
Zn68 Zn 0.26656 0.89884 0.27935 0.0
O69 O 0.25993 0.89214 0.23833 0.0
C70 C 0.27327 0.92755 0.26865 0.0
O71 O 0.25932 0.92091 0.26414 0.0
O72 O 0.24879 0.89373 0.30273 0.0
C73 C 0.26855 0.8976 0.21691 0.0
O74 O 0.28234 0.90591 0.22221 0.0
C75 C 0.29087 0.89565 0.29645 0.0
O76 O 0.2981 0.90682 0.27927 0.0
O77 O 0.27903 0.92028 0.27689 0.0
C78 C 0.6373 0.87832 0.79412 0.0
O79 O 0.62478 0.87329 0.78107 0.0
O80 O 0.6179 0.89725 0.80786 0.0
Zn81 Zn 0.63641 0.90376 0.78583 0.0
O82 O 0.63452 0.90186 0.74185 0.0
C83 C 0.64562 0.93319 0.80076 0.0
O84 O 0.63174 0.92787 0.80459 0.0
O85 O 0.64476 0.89172 0.79918 0.0
C86 C 0.63451 0.91171 0.72646 0.0
O87 O 0.63341 0.92199 0.73966 0.0
C88 C 0.60618 0.89603 0.79855 0.0
O89 O 0.60508 0.89877 0.77091 0.0
O90 O 0.65027 0.92474 0.79417 0.0
C91 C 0.12457 0.75399 0.77335 0.0
O92 O 0.12908 0.74876 0.75249 0.0
O93 O 0.10371 0.71183 0.78807 0.0
Zn94 Zn 0.09946 0.72619 0.76852 0.0
O95 O 0.10154 0.72701 0.72477 0.0
C96 C 0.06938 0.70842 0.78535 0.0
O97 O 0.07352 0.69956 0.79513 0.0
O98 O 0.11212 0.74613 0.78417 0.0
C99 C 0.09135 0.71747 0.70943 0.0
O100 O 0.08122 0.70595 0.72253 0.0
C101 C 0.11385 0.71553 0.8065 0.0
O102 O 0.1227 0.72925 0.81136 0.0
O103 O 0.0787 0.72052 0.77499 0.0
C104 C 0.24003 0.36002 0.78133 0.0
O105 O 0.24871 0.35863 0.79963 0.0
O106 O 0.27809 0.38903 0.77588 0.0
Zn107 Zn 0.26559 0.37416 0.74609 0.0
O108 O 0.268 0.38077 0.70426 0.0
C109 C 0.27694 0.35529 0.76403 0.0
O110 O 0.28122 0.36288 0.78829 0.0
O111 O 0.24494 0.36633 0.75701 0.0
C112 C 0.27776 0.3802 0.68957 0.0
O113 O 0.28784 0.37915 0.7038 0.0
C114 C 0.29021 0.40032 0.77218 0.0
O115 O 0.29582 0.40367 0.7458 0.0
O116 O 0.26994 0.35801 0.74514 0.0
C117 C 0.87818 0.63354 0.70152 0.0
O118 O 0.88812 0.63448 0.68335 0.0
O119 O 0.88594 0.60321 0.71722 0.0
Zn120 Zn 0.89006 0.62088 0.7404 0.0
O121 O 0.8874 0.61801 0.78406 0.0
C122 C 0.91964 0.63782 0.71591 0.0
O123 O 0.91532 0.62877 0.6938 0.0
O124 O 0.8771 0.62807 0.72671 0.0
C125 C 0.8981 0.61971 0.79918 0.0
O126 O 0.90926 0.62052 0.78556 0.0
C127 C 0.89385 0.59753 0.71847 0.0
O128 O 0.90462 0.60268 0.73708 0.0
O129 O 0.91071 0.63649 0.73563 0.0
C130 C 0.3622 0.23637 0.70571 0.0
O131 O 0.37532 0.2433 0.71641 0.0
O132 O 0.38198 0.2749 0.68772 0.0
Zn133 Zn 0.36525 0.26368 0.71489 0.0
O134 O 0.37026 0.26451 0.7576 0.0
C135 C 0.34662 0.275 0.69217 0.0
O136 O 0.35035 0.27386 0.66531 0.0
O137 O 0.3553 0.24303 0.70261 0.0
C138 C 0.37064 0.2746 0.77289 0.0
O139 O 0.3708 0.28547 0.75938 0.0
C140 C 0.39268 0.28736 0.69211 0.0
O141 O 0.39371 0.29394 0.71701 0.0
O142 O 0.35147 0.27118 0.71362 0.0
C143 C 0.75879 0.13246 0.70147 0.0
O144 O 0.75343 0.13969 0.71442 0.0
O145 O 0.71975 0.11715 0.69684 0.0
Zn146 Zn 0.7316 0.11024 0.71804 0.0
O147 O 0.73535 0.11539 0.76067 0.0
C148 C 0.72848 0.0826 0.72631 0.0
O149 O 0.74204 0.09057 0.73395 0.0
O150 O 0.75099 0.11891 0.69913 0.0
C151 C 0.72641 0.10735 0.77997 0.0
O152 O 0.71343 0.09754 0.77174 0.0
C153 C 0.7061 0.11037 0.69808 0.0
O154 O 0.6996 0.09935 0.71594 0.0
O155 O 0.72174 0.0887 0.71679 0.0
C156 C 0.02552 0.4584 0.5338 0.0
O157 O 0.03707 0.46399 0.55042 0.0
O158 O 0.04746 0.44113 0.52245 0.0
Zn159 Zn 0.02879 0.43453 0.54404 0.0
O160 O 0.03021 0.43817 0.58758 0.0
C161 C 0.02131 0.40503 0.53719 0.0
O162 O 0.03536 0.4109 0.53609 0.0
O163 O 0.01955 0.44516 0.52713 0.0
C164 C 0.03214 0.43046 0.60608 0.0
O165 O 0.03568 0.42108 0.5967 0.0
C166 C 0.05946 0.44305 0.5317 0.0
O167 O 0.06102 0.44117 0.55961 0.0
O168 O 0.01585 0.41313 0.53901 0.0
C169 C 0.54367 0.57523 0.5421 0.0
O170 O 0.53774 0.58137 0.5571 0.0
O171 O 0.56037 0.61409 0.53228 0.0
Zn172 Zn 0.56751 0.60233 0.55294 0.0
O173 O 0.56487 0.60065 0.59673 0.0
C174 C 0.59528 0.60469 0.55388 0.0
O175 O 0.58774 0.59128 0.56266 0.0
O176 O 0.55705 0.58237 0.53668 0.0
C177 C 0.57494 0.6097 0.61306 0.0
O178 O 0.58539 0.62142 0.60118 0.0
C179 C 0.56239 0.62632 0.54005 0.0
O180 O 0.56889 0.6319 0.56502 0.0
O181 O 0.58875 0.61132 0.54636 0.0
C182 C 0.42149 0.96737 0.52632 0.0
O183 O 0.41267 0.96695 0.50588 0.0
O184 O 0.38421 0.93685 0.53533 0.0
Zn185 Zn 0.39572 0.95409 0.56107 0.0
O186 O 0.3936 0.95073 0.60464 0.0
C187 C 0.3773 0.96548 0.54535 0.0
O188 O 0.36809 0.95189 0.53995 0.0
O189 O 0.41657 0.96241 0.55159 0.0
C190 C 0.38305 0.9503 0.61822 0.0
O191 O 0.37203 0.94892 0.60307 0.0
C192 C 0.37308 0.92494 0.54147 0.0
O193 O 0.36805 0.92249 0.56838 0.0
O194 O 0.39003 0.96906 0.55314 0.0
C195 C 0.78649 0.69171 0.63381 0.0
O196 O 0.77691 0.69073 0.65301 0.0
O197 O 0.78042 0.72331 0.62484 0.0
Zn198 Zn 0.77471 0.70581 0.59967 0.0
O199 O 0.77584 0.70891 0.55598 0.0
C200 C 0.74498 0.69363 0.61845 0.0
O201 O 0.74922 0.70694 0.62608 0.0
O202 O 0.78753 0.69785 0.60943 0.0
C203 C 0.76505 0.70788 0.54229 0.0
O204 O 0.75451 0.70765 0.55739 0.0
C205 C 0.77836 0.73374 0.61939 0.0
O206 O 0.77279 0.73422 0.59407 0.0
O207 O 0.75413 0.69057 0.60811 0.0
C208 C 0.29762 0.08785 0.62062 0.0
O209 O 0.28477 0.08144 0.60864 0.0
O210 O 0.27581 0.04942 0.62906 0.0
Zn211 Zn 0.29449 0.06085 0.60739 0.0
O212 O 0.29305 0.06187 0.56357 0.0
C213 C 0.31942 0.05764 0.60485 0.0
O214 O 0.32515 0.0705 0.59305 0.0
O215 O 0.30436 0.08097 0.62293 0.0
C216 C 0.29325 0.05217 0.54794 0.0
O217 O 0.29161 0.0405 0.5608 0.0
C218 C 0.26486 0.03769 0.62134 0.0
O219 O 0.26465 0.03227 0.59541 0.0
O220 O 0.30659 0.05173 0.61438 0.0
C221 C 0.90943 0.20442 0.63054 0.0
O222 O 0.91494 0.19734 0.61758 0.0
O223 O 0.94876 0.22079 0.63713 0.0
Zn224 Zn 0.93665 0.22704 0.61485 0.0
O225 O 0.93328 0.22182 0.57216 0.0
C226 C 0.93937 0.25457 0.60609 0.0
O227 O 0.92615 0.24653 0.59647 0.0
O228 O 0.91711 0.21797 0.63316 0.0
C229 C 0.94182 0.23022 0.55272 0.0
O230 O 0.95447 0.24079 0.56078 0.0
C231 C 0.96015 0.22106 0.62854 0.0
O232 O 0.96461 0.22493 0.6015 0.0
O233 O 0.94599 0.24853 0.61655 0.0
C234 C 0.31698 0.21827 0.13913 0.0
O235 O 0.31922 0.2285 0.15782 0.0
O236 O 0.28266 0.22172 0.13045 0.0
Zn237 Zn 0.30069 0.22861 0.10654 0.0
O238 O 0.2979 0.22728 0.06281 0.0
C239 C 0.31011 0.25785 0.12344 0.0
O240 O 0.2963 0.25242 0.12848 0.0
O241 O 0.30951 0.21656 0.11635 0.0
C242 C 0.29796 0.23745 0.04848 0.0
O243 O 0.29713 0.24761 0.06284 0.0
C244 C 0.27068 0.22028 0.1224 0.0
O245 O 0.26895 0.22294 0.09506 0.0
O246 O 0.31468 0.24951 0.1154 0.0
C247 C 0.79237 0.08904 0.11751 0.0
O248 O 0.79944 0.0836 0.10422 0.0
O249 O 0.77686 0.05069 0.11672 0.0
Zn250 Zn 0.76998 0.06292 0.09709 0.0
O251 O 0.77541 0.06772 0.05486 0.0
C252 C 0.74217 0.06003 0.09123 0.0
O253 O 0.75 0.07387 0.08596 0.0
O254 O 0.77872 0.08175 0.11826 0.0
C255 C 0.76754 0.0593 0.03471 0.0
O256 O 0.75756 0.04617 0.04165 0.0
C257 C 0.76975 0.03704 0.11609 0.0
O258 O 0.7583 0.03059 0.09928 0.0
O259 O 0.7484 0.05304 0.09822 0.0
C260 C 0.90588 0.70078 0.12926 0.0
O261 O 0.91146 0.71259 0.11348 0.0
O262 O 0.9453 0.72412 0.13829 0.0
Zn263 Zn 0.93348 0.70496 0.11848 0.0
O264 O 0.93139 0.70566 0.07477 0.0
C265 C 0.9359 0.67979 0.11575 0.0
O266 O 0.92252 0.67427 0.1069 0.0
O267 O 0.91359 0.69521 0.13531 0.0
C268 C 0.94068 0.70511 0.05838 0.0
O269 O 0.95272 0.70713 0.07014 0.0
C270 C 0.95891 0.73132 0.13615 0.0
O271 O 0.96543 0.72673 0.11851 0.0
O272 O 0.94266 0.69279 0.12434 0.0
C273 C 0.5509 0.98283 0.01733 0.0
O274 O 0.56107 0.98544 -0.0018 0.0
O275 O 0.55548 0.94898 0.02648 0.0
Zn276 Zn 0.56252 0.96743 0.04912 0.0
O277 O 0.56235 0.96554 0.09304 0.0
C278 C 0.59151 0.97783 0.02754 0.0
O279 O 0.58638 0.96422 0.02098 0.0
O280 O 0.54969 0.97547 0.04003 0.0
C281 C 0.57336 0.967 0.10653 0.0
O282 O 0.58378 0.96703 0.09139 0.0
C283 C 0.55703 0.93839 0.03353 0.0
O284 O 0.56309 0.93863 0.0587 0.0
O285 O 0.58309 0.98179 0.03813 0.0
C286 C 0.02884 0.56881 0.04084 0.0
O287 O 0.04207 0.57669 0.05052 0.0
O288 O 0.04706 0.60702 0.0214 0.0
Zn289 Zn 0.02979 0.59547 0.04701 0.0
O290 O 0.03373 0.59737 0.09034 0.0
C291 C 0.01928 0.61474 0.03326 0.0
O292 O 0.03291 0.62341 0.02701 0.0
O293 O 0.02119 0.57465 0.03694 0.0
C294 C 0.03549 0.60839 0.10422 0.0
O295 O 0.03738 0.61966 0.08932 0.0
C296 C 0.05985 0.61599 0.0291 0.0
O297 O 0.06306 0.61834 0.05709 0.0
O298 O 0.01521 0.60185 0.04067 0.0
C299 C 0.41828 0.44911 0.02204 0.0
O300 O 0.40878 0.44415 0.00073 0.0
O301 O 0.38214 0.4428 0.03437 0.0
Zn302 Zn 0.39321 0.43644 0.05998 0.0
O303 O 0.39254 0.4396 0.1033 0.0
C304 C 0.3919 0.40913 0.06432 0.0
O305 O 0.40493 0.4171 0.07494 0.0
O306 O 0.41397 0.44696 0.04845 0.0
C307 C 0.38287 0.4296 0.11879 0.0
O308 O 0.37201 0.41872 0.10557 0.0
C309 C 0.3685 0.43548 0.03304 0.0
O310 O 0.36159 0.42451 0.05085 0.0
O311 O 0.38511 0.41519 0.0549 0.0
C312 C 0.69091 0.78329 0.86698 0.0
O313 O 0.70346 0.78838 0.87993 0.0
O314 O 0.71004 0.76405 0.85331 0.0
Zn315 Zn 0.69181 0.75795 0.87617 0.0
O316 O 0.69424 0.76077 0.91998 0.0
C317 C 0.68218 0.7281 0.86507 0.0
O318 O 0.69607 0.73309 0.86238 0.0
O319 O 0.68342 0.76986 0.86225 0.0
C320 C 0.69433 0.75129 0.93649 0.0
O321 O 0.6952 0.74063 0.92453 0.0
C322 C 0.72179 0.76512 0.86196 0.0
O323 O 0.72314 0.76233 0.88943 0.0
O324 O 0.6777 0.73689 0.86947 0.0
C325 C 0.20511 0.90065 0.87036 0.0
O326 O 0.19807 0.9054 0.88605 0.0
O327 O 0.21879 0.93953 0.86228 0.0
Zn328 Zn 0.22646 0.92847 0.884 0.0
O329 O 0.22118 0.92495 0.92662 0.0
C330 C 0.25496 0.93341 0.89266 0.0
O331 O 0.24782 0.91987 0.90076 0.0
O332 O 0.21839 0.90906 0.86531 0.0
C333 C 0.22871 0.93423 0.94589 0.0
O334 O 0.23849 0.94717 0.93743 0.0
C335 C 0.22464 0.95312 0.86389 0.0
O336 O 0.23528 0.96014 0.88242 0.0
O337 O 0.24805 0.93928 0.88286 0.0
C338 C 0.09126 0.30532 0.85564 0.0
O339 O 0.0825 0.30708 0.83825 0.0
O340 O 0.05301 0.27162 0.8739 0.0
Zn341 Zn 0.06619 0.29075 0.89328 0.0
O342 O 0.0665 0.29029 0.93741 0.0
C343 C 0.04633 0.30014 0.87647 0.0
O344 O 0.0376 0.28624 0.87355 0.0
O345 O 0.08655 0.29869 0.87973 0.0
C346 C 0.05646 0.29032 0.95212 0.0
O347 O 0.04474 0.28805 0.93844 0.0
C348 C 0.05758 0.26574 0.85597 0.0
O349 O 0.07151 0.27132 0.85238 0.0
O350 O 0.0594 0.3047 0.88323 0.0
C351 C 0.44759 0.02892 0.97034 0.0
O352 O 0.43714 0.0257 0.98914 0.0
O353 O 0.43748 0.05925 0.95096 0.0
Zn354 Zn 0.43296 0.04007 0.93408 0.0
O355 O 0.43224 0.03912 0.89005 0.0
C356 C 0.4039 0.02825 0.9548 0.0
O357 O 0.40782 0.04194 0.95653 0.0
O358 O 0.4478 0.035 0.94635 0.0
C359 C 0.42106 0.03705 0.87632 0.0
O360 O 0.41102 0.03813 0.89061 0.0
C361 C 0.44914 0.06757 0.96431 0.0
O362 O 0.45947 0.06439 0.96487 0.0
O363 O 0.41318 0.02479 0.94739 0.0
C364 C 0.96474 0.41965 0.9665 0.0
O365 O 0.95168 0.41377 0.95558 0.0
O366 O 0.94169 0.38225 0.96418 0.0
Zn367 Zn 0.96084 0.39386 0.9441 0.0
O368 O 0.96013 0.39841 0.90167 0.0
C369 C 0.98459 0.38916 0.93625 0.0
O370 O 0.99089 0.40264 0.92771 0.0
O371 O 0.97152 0.41279 0.96486 0.0
C372 C 0.95849 0.38949 0.88165 0.0
O373 O 0.95478 0.37625 0.88896 0.0
C374 C 0.93451 0.3686 0.96363 0.0
O375 O 0.93887 0.36163 0.94668 0.0
O376 O 0.97175 0.38321 0.94573 0.0
C377 C 0.57017 0.5364 0.96759 0.0
O378 O 0.5793 0.5416 0.98953 0.0
O379 O 0.60716 0.54523 0.9588 0.0
Zn380 Zn 0.59589 0.55099 0.9324 0.0
O381 O 0.59828 0.54956 0.88903 0.0
C382 C 0.59628 0.57775 0.92724 0.0
O383 O 0.58441 0.56972 0.91237 0.0
O384 O 0.57489 0.53911 0.9415 0.0
C385 C 0.60849 0.56032 0.87613 0.0
O386 O 0.61881 0.57039 0.89205 0.0
C387 C 0.61909 0.54589 0.9534 0.0
O388 O 0.6248 0.54978 0.92718 0.0
O389 O 0.60259 0.57183 0.93964 0.0
C390 C 0.96691 0.54677 0.44178 0.0
O391 O 0.95744 0.54251 0.42043 0.0
O392 O 0.94472 0.56662 0.45836 0.0
Zn393 Zn 0.96317 0.5711 0.43805 0.0
O394 O 0.96158 0.56891 0.39428 0.0
C395 C 0.98997 0.5978 0.43451 0.0
O396 O 0.99459 0.58959 0.42325 0.0
O397 O 0.97106 0.55893 0.45363 0.0
C398 C 0.96229 0.57914 0.37904 0.0
O399 O 0.96136 0.5895 0.39234 0.0
C400 C 0.93648 0.55492 0.4716 0.0
O401 O 0.93922 0.54431 0.47029 0.0
O402 O 0.97722 0.59203 0.44444 0.0
C403 C 0.45711 0.42698 0.4574 0.0
O404 O 0.46263 0.42048 0.44229 0.0
O405 O 0.4391 0.38797 0.46654 0.0
Zn406 Zn 0.43212 0.40025 0.44745 0.0
O407 O 0.43365 0.40155 0.40343 0.0
C408 C 0.40279 0.37932 0.46262 0.0
O409 O 0.40827 0.37088 0.46589 0.0
O410 O 0.44373 0.42024 0.46304 0.0
C411 C 0.4236 0.39198 0.38785 0.0
O412 O 0.41375 0.38015 0.40052 0.0
C413 C 0.43953 0.37727 0.45583 0.0
O414 O 0.43571 0.37357 0.42843 0.0
O415 O 0.41111 0.39252 0.4566 0.0
C416 C 0.57286 0.02899 0.46918 0.0
O417 O 0.58175 0.02949 0.48956 0.0
O418 O 0.61005 0.0598 0.459 0.0
Zn419 Zn 0.5985 0.04233 0.43382 0.0
O420 O 0.60019 0.04545 0.39014 0.0
C421 C 0.61727 0.03134 0.44929 0.0
O422 O 0.62643 0.04501 0.45403 0.0
O423 O 0.5777 0.0339 0.44384 0.0
C424 C 0.6104 0.04551 0.37591 0.0
O425 O 0.62143 0.0465 0.39038 0.0
C426 C 0.62119 0.07161 0.45244 0.0
O427 O 0.62617 0.07375 0.42551 0.0
O428 O 0.60444 0.02757 0.4419 0.0
C429 C 0.20328 0.29341 0.35785 0.0
O430 O 0.19647 0.28041 0.3691 0.0
O431 O 0.21956 0.27115 0.357 0.0
Zn432 Zn 0.22676 0.2905 0.37595 0.0
O433 O 0.22376 0.29048 0.41953 0.0
C434 C 0.25446 0.3153 0.38 0.0
O435 O 0.24669 0.32076 0.38978 0.0
O436 O 0.21694 0.30019 0.35749 0.0
C437 C 0.23349 0.29112 0.43643 0.0
O438 O 0.24324 0.28845 0.42553 0.0
C439 C 0.22634 0.26432 0.35924 0.0
O440 O 0.23751 0.26929 0.37681 0.0
O441 O 0.24811 0.30247 0.37041 0.0
C442 C 0.69608 0.90836 0.37734 0.0
O443 O 0.70895 0.91466 0.38926 0.0
O444 O 0.71823 0.9465 0.36255 0.0
Zn445 Zn 0.7004 0.93603 0.38717 0.0
O446 O 0.70342 0.93603 0.43071 0.0
C447 C 0.67561 0.93939 0.39156 0.0
O448 O 0.67001 0.92659 0.40357 0.0
O449 O 0.68975 0.91557 0.3738 0.0
C450 C 0.70374 0.94606 0.44608 0.0
O451 O 0.70483 0.9574 0.43273 0.0
C452 C 0.72972 0.95819 0.36808 0.0
O453 O 0.73122 0.96447 0.39358 0.0
O454 O 0.6883 0.94524 0.38131 0.0
C455 C 0.0953 0.80313 0.37886 0.0
O456 O 0.08647 0.80779 0.3719 0.0
O457 O 0.05762 0.78252 0.36777 0.0
Zn458 Zn 0.06914 0.77686 0.39368 0.0
O459 O 0.06556 0.77675 0.43694 0.0
C460 C 0.05225 0.74759 0.37363 0.0
O461 O 0.04301 0.75184 0.36733 0.0
O462 O 0.09023 0.79029 0.38778 0.0
C463 C 0.05512 0.7659 0.44909 0.0
O464 O 0.04492 0.7561 0.43254 0.0
C465 C 0.04673 0.78359 0.37466 0.0
O466 O 0.04222 0.78142 0.40195 0.0
O467 O 0.06452 0.75667 0.38377 0.0
C468 C 0.29726 0.9492 0.25867 0.0
C469 C 0.28228 0.94297 0.26156 0.0
C470 C 0.30567 0.96352 0.24997 0.0
C471 C 0.30677 0.99802 0.24828 0.0
H472 H 0.33525 0.00747 0.18718 0.0
C473 C 0.34239 0.05643 0.20947 0.0
C474 C 0.35705 0.06098 0.20567 0.0
C475 C 0.3323 0.04182 0.21246 0.0
C476 C 0.32744 0.00505 0.20444 0.0
H477 H 0.26441 0.94696 0.25821 0.0
H478 H 0.2792 0.97209 0.24352 0.0
H479 H 0.31976 0.98245 0.20154 0.0
H480 H 0.37251 0.05371 0.20073 0.0
H481 H 0.35506 0.02839 0.20662 0.0
H482 H 0.31472 0.02059 0.25207 0.0
C483 C 0.28437 0.96584 0.24784 0.0
C484 C 0.31856 0.99072 0.21261 0.0
C485 C 0.27593 0.95145 0.25618 0.0
C486 C 0.3613 0.05058 0.20358 0.0
C487 C 0.35125 0.03601 0.20682 0.0
C488 C 0.31575 0.01238 0.24035 0.0
C489 C 0.2993 0.97195 0.24433 0.0
C490 C 0.30825 0.98708 0.23481 0.0
C491 C 0.33666 0.03146 0.21193 0.0
C492 C 0.32631 0.0161 0.21855 0.0
H493 H 0.30248 0.94294 0.26256 0.0
H494 H 0.31719 0.96803 0.24777 0.0
H495 H 0.29898 0.99552 0.26563 0.0
H496 H 0.33876 0.06418 0.21096 0.0
H497 H 0.32112 0.03868 0.21575 0.0
C498 C 0.04419 0.35377 0.29259 0.0
C499 C 0.0537 0.34839 0.29448 0.0
C500 C 0.02958 0.34452 0.28719 0.0
C501 C 0.00035 0.30727 0.29119 0.0
H502 H 0.98429 0.31797 0.22632 0.0
C503 C 0.94245 0.2697 0.24989 0.0
C504 C 0.93442 0.27622 0.24184 0.0
C505 C 0.95721 0.27806 0.25535 0.0
C506 C 0.98851 0.31489 0.24475 0.0
H507 H 0.05526 0.32902 0.29366 0.0
H508 H 0.0296 0.3128 0.28478 0.0
H509 H 0.00936 0.33352 0.23999 0.0
H510 H 0.93557 0.29661 0.23302 0.0
H511 H 0.96109 0.31117 0.24329 0.0
H512 H 0.97944 0.28885 0.29658 0.0
C513 C 0.03353 0.3242 0.28724 0.0
C514 C 0.00289 0.32379 0.2525 0.0
C515 C 0.04819 0.33348 0.29225 0.0
C516 C 0.94147 0.29124 0.23892 0.0
C517 C 0.95616 0.2996 0.2447 0.0
C518 C 0.98589 0.29843 0.2837 0.0
C519 C 0.02417 0.32969 0.28397 0.0
C520 C 0.00893 0.32011 0.27587 0.0
C521 C 0.96422 0.29314 0.25319 0.0
C522 C 0.97976 0.30218 0.26045 0.0
H523 H 0.04808 0.3652 0.29419 0.0
H524 H 0.02254 0.34898 0.2851 0.0
H525 H 0.00476 0.30423 0.30938 0.0
H526 H 0.93732 0.25813 0.25221 0.0
H527 H 0.96311 0.27269 0.26133 0.0
C528 C 0.70222 0.6505 0.21785 0.0
C529 C 0.7173 0.65806 0.21983 0.0
C530 C 0.69436 0.6573 0.22425 0.0
C531 C 0.6975 0.68868 0.26468 0.0
H532 H 0.6613 0.67767 0.22591 0.0
C533 C 0.66362 0.71676 0.28165 0.0
C534 C 0.64877 0.70752 0.28573 0.0
C535 C 0.67256 0.71121 0.27445 0.0
C536 C 0.67135 0.68077 0.23702 0.0
H537 H 0.736 0.67886 0.22868 0.0
H538 H 0.7223 0.69089 0.23882 0.0
H539 H 0.67603 0.6677 0.20899 0.0
H540 H 0.63176 0.68518 0.28644 0.0
H541 H 0.64735 0.67555 0.27355 0.0
H542 H 0.69283 0.702 0.2923 0.0
C543 C 0.71651 0.67959 0.23319 0.0
C544 C 0.67979 0.67504 0.2274 0.0
C545 C 0.72438 0.67273 0.22711 0.0
C546 C 0.64314 0.6926 0.28347 0.0
C547 C 0.65203 0.68708 0.27588 0.0
C548 C 0.68913 0.69456 0.27403 0.0
C549 C 0.70138 0.67188 0.23244 0.0
C550 C 0.69289 0.67877 0.24134 0.0
C551 C 0.66677 0.69634 0.2708 0.0
C552 C 0.6759 0.6905 0.26053 0.0
H553 H 0.69642 0.63915 0.21254 0.0
H554 H 0.68273 0.65093 0.22384 0.0
H555 H 0.7074 0.69163 0.27628 0.0
H556 H 0.66828 0.72831 0.28328 0.0
H557 H 0.68389 0.71857 0.27062 0.0
C558 C 0.64947 0.95811 0.79852 0.0
C559 C 0.65527 0.94894 0.79896 0.0
C560 C 0.65825 0.97277 0.79298 0.0
C561 C 0.69304 0.99827 0.75851 0.0
H562 H 0.68489 0.02665 0.79189 0.0
C563 C 0.72825 0.0599 0.73986 0.0
C564 C 0.72069 0.06701 0.73256 0.0
C565 C 0.72085 0.04546 0.74837 0.0
C566 C 0.68723 0.01881 0.78231 0.0
H567 H 0.67497 0.94807 0.79549 0.0
H568 H 0.6904 0.97377 0.78678 0.0
H569 H 0.67141 0.00181 0.80865 0.0
H570 H 0.69943 0.06452 0.72799 0.0
H571 H 0.68656 0.03937 0.74312 0.0
H572 H 0.70904 0.01546 0.73249 0.0
C573 C 0.67898 0.96957 0.78985 0.0
C574 C 0.6795 0.00457 0.79184 0.0
C575 C 0.67016 0.95485 0.7951 0.0
C576 C 0.70557 0.05933 0.73338 0.0
C577 C 0.6982 0.04498 0.74227 0.0
C578 C 0.70091 0.01257 0.74926 0.0
C579 C 0.67308 0.97866 0.78809 0.0
C580 C 0.68214 0.99406 0.77975 0.0
C581 C 0.70577 0.03795 0.75014 0.0
C582 C 0.69792 0.02292 0.76076 0.0
H583 H 0.63803 0.95391 0.80126 0.0
H584 H 0.65325 0.97936 0.7914 0.0
H585 H 0.69524 0.99046 0.74834 0.0
H586 H 0.7399 0.06554 0.73945 0.0
H587 H 0.72694 0.04029 0.7544 0.0
C588 C 0.04343 0.69006 0.79296 0.0
C589 C 0.05388 0.70347 0.78188 0.0
C590 C 0.02887 0.68463 0.78672 0.0
C591 C 0.0054 0.68698 0.73135 0.0
H592 H 0.9755 0.66634 0.78902 0.0
C593 C 0.94561 0.64825 0.70194 0.0
C594 C 0.93512 0.64812 0.72058 0.0
C595 C 0.96023 0.65667 0.70876 0.0
C596 C 0.98372 0.6722 0.77271 0.0
H597 H 0.05716 0.72194 0.75639 0.0
H598 H 0.03174 0.71245 0.74561 0.0
H599 H 0.00068 0.67806 0.80385 0.0
H600 H 0.93181 0.65734 0.76017 0.0
H601 H 0.95723 0.67204 0.77182 0.0
H602 H 0.9884 0.68102 0.70017 0.0
C603 C 0.03485 0.70609 0.75888 0.0
C604 C 0.99814 0.67878 0.78116 0.0
C605 C 0.0494 0.71156 0.76528 0.0
C606 C 0.93959 0.65709 0.74541 0.0
C607 C 0.95416 0.66546 0.75223 0.0
C608 C 0.99096 0.68031 0.72285 0.0
C609 C 0.02446 0.69247 0.76914 0.0
C610 C 0.00914 0.68616 0.76054 0.0
C611 C 0.96463 0.66509 0.73437 0.0
C612 C 0.97997 0.67278 0.74342 0.0
H613 H 0.04653 0.68355 0.8058 0.0
H614 H 0.02112 0.67405 0.79477 0.0
H615 H 0.01365 0.69246 0.71489 0.0
H616 H 0.94252 0.64146 0.68266 0.0
H617 H 0.96804 0.6561 0.69464 0.0
C618 C 0.33526 0.28423 0.72723 0.0
C619 C 0.33748 0.28143 0.69815 0.0
C620 C 0.32716 0.29079 0.73333 0.0
C621 C 0.31428 0.31352 0.69953 0.0
H622 H 0.29086 0.30348 0.76981 0.0
C623 C 0.27992 0.33935 0.7282 0.0
C624 C 0.2816 0.3448 0.75687 0.0
C625 C 0.28539 0.33043 0.72049 0.0
C626 C 0.2974 0.30642 0.75018 0.0
H627 H 0.33266 0.2831 0.65268 0.0
H628 H 0.3182 0.29434 0.66337 0.0
H629 H 0.30253 0.28976 0.75647 0.0
H630 H 0.28991 0.34477 0.80015 0.0
H631 H 0.29934 0.32899 0.7867 0.0
H632 H 0.30907 0.33015 0.69327 0.0
C633 C 0.32298 0.29167 0.68144 0.0
C634 C 0.30412 0.2986 0.74254 0.0
C635 C 0.33119 0.28516 0.67529 0.0
C636 C 0.28846 0.34075 0.7779 0.0
C637 C 0.2938 0.33168 0.77024 0.0
C638 C 0.30745 0.32125 0.70704 0.0
C639 C 0.32094 0.29465 0.71056 0.0
C640 C 0.31283 0.30219 0.71735 0.0
C641 C 0.29252 0.32663 0.74133 0.0
C642 C 0.29909 0.31789 0.73264 0.0
H643 H 0.34 0.28158 0.74542 0.0
H644 H 0.32609 0.29316 0.75596 0.0
H645 H 0.32108 0.31675 0.68025 0.0
H646 H 0.27471 0.34227 0.71141 0.0
H647 H 0.28412 0.32657 0.69814 0.0
C648 C 0.9971 0.38274 0.54143 0.0
C649 C 0.01218 0.3893 0.54081 0.0
C650 C 0.98861 0.36811 0.54794 0.0
C651 C 0.99027 0.33964 0.58818 0.0
H652 H 0.95681 0.31333 0.54279 0.0
C653 C 0.96198 0.27847 0.60536 0.0
C654 C 0.947 0.27031 0.60168 0.0
C655 C 0.9694 0.29312 0.59881 0.0
C656 C 0.96597 0.32057 0.55602 0.0
H657 H 0.03015 0.38552 0.54559 0.0
H658 H 0.01534 0.36007 0.55713 0.0
H659 H 0.97069 0.33858 0.52844 0.0
H660 H 0.92799 0.27122 0.58913 0.0
H661 H 0.94089 0.29691 0.57853 0.0
H662 H 0.98553 0.32185 0.61608 0.0
C663 C 0.01011 0.36627 0.55274 0.0
C664 C 0.97395 0.33501 0.54768 0.0
C665 C 0.01857 0.38083 0.54593 0.0
C666 C 0.93955 0.27721 0.59207 0.0
C667 C 0.94696 0.29191 0.58577 0.0
C668 C 0.98222 0.32528 0.59672 0.0
C669 C 0.99508 0.35983 0.55426 0.0
C670 C 0.98627 0.34463 0.56347 0.0
C671 C 0.96201 0.30002 0.5887 0.0
C672 C 0.97007 0.3155 0.58055 0.0
H673 H 0.99186 0.38898 0.53755 0.0
H674 H 0.97704 0.36339 0.54903 0.0
H675 H -0.00041 0.3469 0.60106 0.0
H676 H 0.96807 0.27346 0.6125 0.0
H677 H 0.98101 0.29893 0.60089 0.0
C678 C 0.61869 0.60551 0.56332 0.0
C679 C 0.61105 0.61276 0.55793 0.0
C680 C 0.63331 0.61322 0.57057 0.0
C681 C 0.65927 0.64619 0.6064 0.0
H682 H 0.68879 0.64233 0.56538 0.0
C683 C 0.71925 0.68736 0.62015 0.0
C684 C 0.72946 0.68292 0.61717 0.0
C685 C 0.70468 0.67771 0.61533 0.0
C686 C 0.68067 0.64334 0.57752 0.0
H687 H 0.61282 0.63377 0.55522 0.0
H688 H 0.63822 0.64712 0.56833 0.0
H689 H 0.66363 0.62741 0.55099 0.0
H690 H 0.73235 0.66469 0.60826 0.0
H691 H 0.70683 0.64768 0.60087 0.0
H692 H 0.67608 0.66186 0.6333 0.0
C693 C 0.6329 0.63551 0.56685 0.0
C694 C 0.66628 0.63485 0.5691 0.0
C695 C 0.61839 0.62786 0.55913 0.0
C696 C 0.72473 0.66845 0.61054 0.0
C697 C 0.71011 0.65873 0.60606 0.0
C698 C 0.67359 0.65449 0.61514 0.0
C699 C 0.64042 0.62825 0.57306 0.0
C700 C 0.65552 0.63643 0.58309 0.0
C701 C 0.69993 0.66331 0.6078 0.0
C702 C 0.68453 0.65341 0.60042 0.0
H703 H 0.61331 0.59389 0.56256 0.0
H704 H 0.63892 0.60741 0.57528 0.0
H705 H 0.6511 0.64741 0.61784 0.0
H706 H 0.72253 0.69845 0.62505 0.0
H707 H 0.69724 0.68174 0.61642 0.0
C708 C 0.31913 0.03427 0.60682 0.0
C709 C 0.32686 0.04923 0.60274 0.0
C710 C 0.32561 0.026 0.60158 0.0
C711 C 0.35621 0.02708 0.56152 0.0
H712 H 0.34476 0.99208 0.60537 0.0
C713 C 0.38211 0.99073 0.55074 0.0
C714 C 0.37225 0.97596 0.54775 0.0
C715 C 0.37726 0.00039 0.55659 0.0
C716 C 0.34799 0.0018 0.59289 0.0
H717 H 0.34762 0.06734 0.59114 0.0
H718 H 0.35914 0.05297 0.58304 0.0
H719 H 0.33567 0.00789 0.61986 0.0
H720 H 0.34958 0.95979 0.54762 0.0
H721 H 0.34119 0.97664 0.55827 0.0
H722 H 0.36881 0.02098 0.53501 0.0
C723 C 0.34793 0.04755 0.58945 0.0
C724 C 0.34276 0.01085 0.60109 0.0
C725 C 0.34137 0.05582 0.59436 0.0
C726 C 0.35745 0.9711 0.54975 0.0
C727 C 0.35264 0.98071 0.55606 0.0
C728 C 0.36162 0.01811 0.55362 0.0
C729 C 0.34005 0.0325 0.59251 0.0
C730 C 0.34659 0.02349 0.58522 0.0
C731 C 0.36251 0.99539 0.56 0.0
C732 C 0.35736 0.00528 0.56895 0.0
H733 H 0.30788 0.02883 0.613 0.0
H734 H 0.31909 0.01444 0.60368 0.0
H735 H 0.35924 0.0366 0.54849 0.0
H736 H 0.39358 0.99479 0.54927 0.0
H737 H 0.38506 0.01167 0.55957 0.0
C738 C 0.36939 0.3852 0.06491 0.0
C739 C 0.38444 0.39332 0.06719 0.0
C740 C 0.36212 0.37046 0.0705 0.0
C741 C 0.36666 0.34226 0.10786 0.0
H742 H 0.3312 0.31691 0.06687 0.0
C743 C 0.33453 0.27967 0.11738 0.0
C744 C 0.31962 0.2736 0.12159 0.0
C745 C 0.34318 0.29439 0.11189 0.0
C746 C 0.34106 0.3239 0.07857 0.0
H747 H 0.40373 0.39226 0.07608 0.0
H748 H 0.39108 0.36638 0.08474 0.0
H749 H 0.34512 0.34207 0.0526 0.0
H750 H 0.30222 0.27833 0.12444 0.0
H751 H 0.3173 0.30393 0.11447 0.0
H752 H 0.3626 0.3238 0.13332 0.0
C753 C 0.38484 0.37147 0.07948 0.0
C754 C 0.34903 0.33833 0.0705 0.0
C755 C 0.39211 0.38629 0.07427 0.0
C756 C 0.31365 0.28264 0.12128 0.0
C757 C 0.32225 0.29728 0.11538 0.0
C758 C 0.35877 0.32773 0.11562 0.0
C759 C 0.36972 0.36339 0.07808 0.0
C760 C 0.36182 0.34778 0.08534 0.0
C761 C 0.33703 0.30324 0.1101 0.0
C762 C 0.34579 0.31849 0.10134 0.0
H763 H 0.36314 0.39031 0.05981 0.0
H764 H 0.35048 0.36471 0.06973 0.0
H765 H 0.37633 0.34923 0.12008 0.0
H766 H 0.33945 0.27298 0.11753 0.0
H767 H 0.35456 0.29876 0.10787 0.0
C768 C 0.61669 0.98244 0.02395 0.0
C769 C 0.60724 0.98778 0.0278 0.0
C770 C 0.63145 0.99133 0.02823 0.0
C771 C 0.65725 0.02481 0.0666 0.0
H772 H 0.68531 0.01901 0.0244 0.0
C773 C 0.71919 0.06004 0.08176 0.0
C774 C 0.72652 0.05237 0.0855 0.0
C775 C 0.70462 0.05287 0.07407 0.0
C776 C 0.67757 0.02069 0.03641 0.0
H777 H 0.60594 0.00687 0.03752 0.0
H778 H 0.63179 0.02254 0.04401 0.0
H779 H 0.66012 0.00581 0.00959 0.0
H780 H 0.72431 0.03116 0.08446 0.0
H781 H 0.69894 0.0187 0.07071 0.0
H782 H 0.67487 0.03988 0.09312 0.0
C783 C 0.62776 0.01135 0.03856 0.0
C784 C 0.66313 0.01311 0.02801 0.0
C785 C 0.61294 0.0024 0.03458 0.0
C786 C 0.71895 0.03737 0.08185 0.0
C787 C 0.70447 0.03024 0.07374 0.0
C788 C 0.67174 0.03254 0.07473 0.0
C789 C 0.63717 0.00584 0.03612 0.0
C790 C 0.65273 0.01488 0.0433 0.0
C791 C 0.69721 0.03794 0.06954 0.0
C792 C 0.68198 0.03036 0.06001 0.0
H793 H 0.61266 0.97121 0.01886 0.0
H794 H 0.63829 0.98661 0.02653 0.0
H795 H 0.64955 0.0263 0.07922 0.0
H796 H 0.72474 0.07161 0.08442 0.0
H797 H 0.69926 0.05904 0.07089 0.0
C798 C 0.95887 0.67947 0.10937 0.0
C799 C 0.94376 0.67196 0.11047 0.0
C800 C 0.96628 0.67254 0.10035 0.0
C801 C 0.96419 0.63777 0.09267 0.0
H802 H 0.99211 0.65642 0.03049 0.0
C803 C 0.99475 0.61138 0.0425 0.0
C804 C 0.00945 0.62055 0.03672 0.0
C805 C 0.98585 0.61706 0.04919 0.0
C806 C 0.98449 0.65113 0.04809 0.0
H807 H 0.92461 0.65116 0.10429 0.0
H808 H 0.93767 0.63896 0.08921 0.0
H809 H 0.97866 0.6675 0.04904 0.0
H810 H 0.02625 0.64285 0.03266 0.0
H811 H 0.01094 0.65271 0.04504 0.0
H812 H 0.97033 0.62165 0.09258 0.0
C813 C 0.94371 0.65024 0.09506 0.0
C814 C 0.97677 0.65747 0.05864 0.0
C815 C 0.93626 0.65722 0.10365 0.0
C816 C 0.01495 0.63548 0.03683 0.0
C817 C 0.00612 0.64114 0.04382 0.0
C818 C 0.97207 0.63151 0.08242 0.0
C819 C 0.95877 0.65793 0.09268 0.0
C820 C 0.96664 0.65092 0.08118 0.0
C821 C 0.9915 0.63202 0.05053 0.0
C822 C 0.98242 0.63817 0.06014 0.0
H823 H 0.96497 0.69085 0.11434 0.0
H824 H 0.97792 0.67866 0.099 0.0
H825 H 0.95647 0.63254 0.11016 0.0
H826 H 0.99016 0.59982 0.04244 0.0
H827 H 0.97459 0.6097 0.05364 0.0
C828 C 0.61808 0.602 0.93294 0.0
C829 C 0.60351 0.59359 0.92529 0.0
C830 C 0.62551 0.61678 0.92771 0.0
C831 C 0.62382 0.64435 0.8817 0.0
H832 H 0.65566 0.67034 0.93124 0.0
C833 C 0.65727 0.70677 0.86834 0.0
C834 C 0.67226 0.71249 0.86842 0.0
C835 C 0.64801 0.69224 0.87477 0.0
C836 C 0.6468 0.66318 0.9172 0.0
H837 H 0.5851 0.59417 0.90739 0.0
H838 H 0.59792 0.6201 0.89927 0.0
H839 H 0.64061 0.64534 0.94592 0.0
H840 H 0.68927 0.70738 0.87455 0.0
H841 H 0.6731 0.68214 0.88622 0.0
H842 H 0.63 0.66246 0.85334 0.0
C843 C 0.60375 0.61521 0.9085 0.0
C844 C 0.63821 0.64884 0.9255 0.0
C845 C 0.59636 0.60037 0.91341 0.0
C846 C 0.67778 0.70332 0.87423 0.0
C847 C 0.66855 0.68889 0.88113 0.0
C848 C 0.63231 0.65879 0.87365 0.0
C849 C 0.6185 0.62357 0.91506 0.0
C850 C 0.62677 0.63915 0.90759 0.0
C851 C 0.65362 0.68328 0.88187 0.0
C852 C 0.64403 0.66824 0.89107 0.0
H853 H 0.62396 0.5971 0.94189 0.0
H854 H 0.6369 0.62275 0.9326 0.0
H855 H 0.61526 0.6372 0.86711 0.0
H856 H 0.65271 0.71358 0.86392 0.0
H857 H 0.63652 0.68813 0.87522 0.0
C858 C 0.38398 0.00255 0.95285 0.0
C859 C 0.38845 0.01722 0.95573 0.0
C860 C 0.36939 0.99238 0.9496 0.0
C861 C 0.33251 0.98759 0.95524 0.0
H862 H 0.32324 0.95808 0.89655 0.0
C863 C 0.27722 0.95729 0.89918 0.0
C864 C 0.27054 0.94222 0.89867 0.0
C865 C 0.29158 0.96563 0.90768 0.0
C866 C 0.32568 0.96618 0.91318 0.0
H867 H 0.38105 0.03264 0.95868 0.0
H868 H 0.35581 0.01508 0.95232 0.0
H869 H 0.34828 0.97396 0.91051 0.0
H870 H 0.27382 0.92409 0.90573 0.0
H871 H 0.29911 0.93877 0.91993 0.0
H872 H 0.30991 0.98013 0.95689 0.0
C873 C 0.36345 0.0113 0.95308 0.0
C874 C 0.34001 0.97524 0.92135 0.0
C875 C 0.37799 0.02142 0.9566 0.0
C876 C 0.27867 0.93568 0.90592 0.0
C877 C 0.29313 0.94406 0.914 0.0
C878 C 0.31823 0.97867 0.94676 0.0
C879 C 0.35897 0.99667 0.94895 0.0
C880 C 0.34363 0.98619 0.94223 0.0
C881 C 0.29963 0.95909 0.91544 0.0
C882 C 0.3147 0.96801 0.92541 0.0
H883 H 0.39178 -0.00105 0.95227 0.0
H884 H 0.36632 0.98117 0.94708 0.0
H885 H 0.33483 0.99568 0.97183 0.0
H886 H 0.27124 0.96266 0.89384 0.0
H887 H 0.2964 0.97722 0.90827 0.0
C888 C 0.04967 0.32493 0.88018 0.0
C889 C 0.04047 0.31 0.87735 0.0
C890 C 0.04402 0.334 0.88493 0.0
C891 C 0.01295 0.33338 0.91816 0.0
H892 H 0.02491 0.36907 0.87658 0.0
C893 C 0.98368 0.36549 0.93324 0.0
C894 C 0.99171 0.38056 0.93181 0.0
C895 C 0.99008 0.35725 0.92677 0.0
C896 C 0.02162 0.35926 0.88875 0.0
H897 H 0.01812 0.293 0.876 0.0
H898 H 0.00833 0.30883 0.88455 0.0
H899 H 0.03527 0.3541 0.86337 0.0
H900 H 0.01284 0.39884 0.92327 0.0
H901 H 0.02416 0.38448 0.91296 0.0
H902 H -0.00041 0.33856 0.94407 0.0
C903 C 0.01989 0.31347 0.88324 0.0
C904 C 0.0275 0.35067 0.88103 0.0
C905 C 0.02552 0.30443 0.87815 0.0
C906 C 0.00636 0.38724 0.92445 0.0
C907 C 0.01281 0.37899 0.9183 0.0
C908 C 0.00721 0.34203 0.92614 0.0
C909 C 0.02909 0.32829 0.88727 0.0
C910 C 0.02309 0.33758 0.89547 0.0
C911 C 0.00471 0.36388 0.91906 0.0
C912 C 0.01135 0.35502 0.91136 0.0
H913 H 0.06124 0.32955 0.87961 0.0
H914 H 0.05133 0.3454 0.88801 0.0
H915 H 0.00957 0.32346 0.93001 0.0
H916 H 0.97233 0.36 0.93856 0.0
H917 H 0.98341 0.34566 0.9271 0.0
C918 C 0.03287 0.72186 0.37106 0.0
C919 C 0.04753 0.73208 0.37387 0.0
C920 C 0.02805 0.70727 0.37502 0.0
C921 C 0.03879 0.68295 0.41023 0.0
H922 H 0.00447 0.65383 0.37098 0.0
C923 C 0.01296 0.62045 0.42259 0.0
C924 C 0.99832 0.61355 0.43036 0.0
C925 C 0.0203 0.63506 0.41523 0.0
C926 C 0.01408 0.66188 0.38204 0.0
H927 H 0.06875 0.73496 0.38154 0.0
H928 H 0.0604 0.70939 0.38738 0.0
H929 H 0.01514 0.67887 0.35595 0.0
H930 H 0.98002 0.61664 0.43712 0.0
H931 H 0.99278 0.64199 0.42368 0.0
H932 H 0.0377 0.66569 0.43595 0.0
C933 C 0.05256 0.71269 0.38301 0.0
C934 C 0.02016 0.67623 0.37359 0.0
C935 C 0.05737 0.72734 0.3794 0.0
C936 C 0.9913 0.62163 0.43138 0.0
C937 C -0.00145 0.63611 0.42349 0.0
C938 C 0.03282 0.66852 0.41831 0.0
C939 C 0.03779 0.70248 0.38147 0.0
C940 C 0.03238 0.68703 0.38808 0.0
C941 C 0.01303 0.64288 0.41495 0.0
C942 C 0.02023 0.65794 0.40474 0.0
H943 H 0.02499 0.72514 0.36701 0.0
H944 H 0.01659 0.69982 0.37416 0.0
H945 H 0.04808 0.69094 0.42216 0.0
H946 H 0.01864 0.61449 0.4216 0.0
H947 H 0.03149 0.64012 0.40871 0.0
C948 C 0.27741 0.33736 0.39421 0.0
C949 C 0.27015 0.32293 0.38515 0.0
C950 C 0.29189 0.34407 0.40238 0.0
C951 C 0.32433 0.33996 0.399 0.0
H952 H 0.33648 0.36562 0.46603 0.0
C953 C 0.37813 0.35808 0.45696 0.0
C954 C 0.38705 0.37303 0.45974 0.0
C955 C 0.36366 0.3522 0.44945 0.0
C956 C 0.33322 0.35852 0.44722 0.0
H957 H 0.27245 0.30427 0.37707 0.0
H958 H 0.29749 0.31578 0.39192 0.0
H959 H 0.31183 0.35514 0.44802 0.0
H960 H 0.38757 0.39348 0.45865 0.0
H961 H 0.36214 0.38312 0.44608 0.0
H962 H 0.34565 0.34307 0.3988 0.0
C963 C 0.29217 0.32209 0.39213 0.0
C964 C 0.31915 0.35259 0.43673 0.0
C965 C 0.27776 0.31545 0.38367 0.0
C966 C 0.38098 0.38192 0.45658 0.0
C967 C 0.36644 0.37601 0.44944 0.0
C968 C 0.33832 0.34573 0.40973 0.0
C969 C 0.29939 0.33643 0.40195 0.0
C970 C 0.31451 0.34319 0.41251 0.0
C971 C 0.35777 0.36114 0.44499 0.0
C972 C 0.34288 0.35502 0.43398 0.0
H973 H 0.27183 0.34342 0.39551 0.0
H974 H 0.29716 0.3552 0.40924 0.0
H975 H 0.32127 0.33302 0.37996 0.0
H976 H 0.38245 0.35092 0.45927 0.0
H977 H 0.35714 0.34068 0.44652 0.0
C978 C 0.6537 0.94121 0.40273 0.0
C979 C 0.66816 0.94779 0.3939 0.0
C980 C 0.64713 0.94945 0.4076 0.0
C981 C 0.652 0.98595 0.39484 0.0
H982 H 0.62635 0.97627 0.46151 0.0
C983 C 0.63723 0.02588 0.44487 0.0
C984 C 0.62243 0.02094 0.4472 0.0
C985 C 0.64211 0.0163 0.43888 0.0
C986 C 0.63343 0.97901 0.44274 0.0
H987 H 0.68701 0.96815 0.38287 0.0
H988 H 0.67577 0.98252 0.39215 0.0
H989 H 0.636 0.96066 0.44844 0.0
H990 H 0.60117 0.00198 0.4466 0.0
H991 H 0.6098 0.98516 0.43684 0.0
H992 H 0.64981 0.00459 0.38994 0.0
C993 C 0.66931 0.97097 0.39462 0.0
C994 C 0.63889 0.97005 0.43508 0.0
C995 C 0.67581 0.96272 0.3894 0.0
C996 C 0.61264 0.00611 0.44486 0.0
C997 C 0.61756 0.99648 0.43932 0.0
C998 C 0.64673 0.995 0.40279 0.0
C999 C 0.65493 0.96448 0.40406 0.0
C1000 C 0.64836 0.97348 0.41117 0.0
C1001 C 0.63231 0.00156 0.43558 0.0
C1002 C 0.6375 0.99168 0.42694 0.0
H1003 H 0.64751 0.9297 0.40626 0.0
H1004 H 0.63596 0.94405 0.41433 0.0
H1005 H 0.65897 0.98878 0.37589 0.0
H1006 H 0.64505 0.03723 0.4465 0.0
H1007 H 0.65356 0.02044 0.43639 0.0
C1008 C 0.30324 0.06912 0.5054 0.0
C1009 C 0.29885 0.05552 0.51759 0.0
C1010 C 0.31109 0.0733 0.47927 0.0
C1011 C 0.32221 0.0598 0.41524 0.0
H1012 H 0.35583 0.098 0.41621 0.0
C1013 C 0.36808 0.10064 0.32924 0.0
C1014 C 0.37122 0.09087 0.31521 0.0
C1015 C 0.35973 0.09669 0.35472 0.0
C1016 C 0.34643 0.08735 0.4155 0.0
H1017 H 0.29845 0.03532 0.51086 0.0
H1018 H 0.31214 0.04263 0.46549 0.0
H1019 H 0.339 0.09011 0.45718 0.0
H1020 H 0.36882 0.06961 0.31805 0.0
H1021 H 0.35443 0.06281 0.36268 0.0
H1022 H 0.32971 0.05702 0.37365 0.0
C1023 C 0.30951 0.05006 0.47601 0.0
C1024 C 0.33673 0.08285 0.4389 0.0
C1025 C 0.30167 0.04588 0.50211 0.0
C1026 C 0.36654 0.07738 0.32818 0.0
C1027 C 0.35817 0.07342 0.35361 0.0
C1028 C 0.33192 0.0643 0.39188 0.0
C1029 C 0.31468 0.06398 0.46475 0.0
C1030 C 0.32453 0.069 0.43909 0.0
C1031 C 0.35434 0.08288 0.36669 0.0
C1032 C 0.34417 0.0781 0.3918 0.0
H1033 H 0.30119 0.07679 0.51667 0.0
H1034 H 0.31466 0.08399 0.47083 0.0
H1035 H 0.31283 0.04914 0.41452 0.0
H1036 H 0.37151 0.11113 0.31985 0.0
H1037 H 0.35694 0.10421 0.36422 0.0
C1038 C 0.94545 0.23874 0.50072 0.0
C1039 C 0.93611 0.23063 0.52347 0.0
C1040 C 0.94005 0.24138 0.47502 0.0
C1041 C 0.90582 0.23152 0.43476 0.0
H1042 H 0.92929 0.26955 0.40182 0.0
C1043 C 0.89062 0.24922 0.32743 0.0
C1044 C 0.89556 0.2639 0.32284 0.0
C1045 C 0.89446 0.24462 0.35272 0.0
C1046 C 0.92244 0.25898 0.411 0.0
H1047 H 0.91371 0.21841 0.53662 0.0
H1048 H 0.90438 0.22345 0.49265 0.0
H1049 H 0.93833 0.26208 0.44271 0.0
H1050 H 0.90744 0.28512 0.34212 0.0
H1051 H 0.91345 0.27704 0.38708 0.0
H1052 H 0.88958 0.22877 0.40413 0.0
C1053 C 0.91584 0.22749 0.49401 0.0
C1054 C 0.9278 0.25453 0.43414 0.0
C1055 C 0.92121 0.22461 0.5194 0.0
C1056 C 0.90356 0.27375 0.34498 0.0
C1057 C 0.90716 0.26911 0.37059 0.0
C1058 C 0.90034 0.23608 0.41196 0.0
C1059 C 0.92521 0.23624 0.47176 0.0
C1060 C 0.91961 0.24072 0.44631 0.0
C1061 C 0.90311 0.25454 0.37434 0.0
C1062 C 0.90859 0.24986 0.39965 0.0
H1063 H 0.95698 0.24344 0.50316 0.0
H1064 H 0.94759 0.24779 0.45805 0.0
H1065 H 0.89922 0.22074 0.44321 0.0
H1066 H 0.88454 0.24135 0.31066 0.0
H1067 H 0.89124 0.23336 0.35447 0.0
C1068 C 0.77264 0.70064 0.4964 0.0
C1069 C 0.76268 0.70324 0.51124 0.0
C1070 C 0.76906 0.69341 0.46954 0.0
C1071 C 0.74247 0.68066 0.4087 0.0
H1072 H 0.7513 0.64984 0.40359 0.0
C1073 C 0.71584 0.63609 0.32219 0.0
C1074 C 0.725 0.63263 0.30658 0.0
C1075 C 0.72068 0.64454 0.34746 0.0
C1076 C 0.74887 0.65848 0.40455 0.0
H1077 H 0.74157 0.70125 0.50837 0.0
H1078 H 0.73533 0.68861 0.46173 0.0
H1079 H 0.7602 0.6664 0.445 0.0
H1080 H 0.74615 0.63466 0.30627 0.0
H1081 H 0.75456 0.64936 0.35044 0.0
H1082 H 0.731 0.67263 0.36841 0.0
C1083 C 0.74592 0.69216 0.47076 0.0
C1084 C 0.75403 0.66802 0.4282 0.0
C1085 C 0.74949 0.69939 0.4976 0.0
C1086 C 0.73881 0.63711 0.31777 0.0
C1087 C 0.74364 0.64555 0.34311 0.0
C1088 C 0.73729 0.67111 0.38509 0.0
C1089 C 0.75547 0.68865 0.45691 0.0
C1090 C 0.75081 0.67918 0.43066 0.0
C1091 C 0.73476 0.64969 0.35775 0.0
C1092 C 0.74034 0.65984 0.38287 0.0
H1093 H 0.78294 0.70355 0.50618 0.0
H1094 H 0.77678 0.69115 0.45909 0.0
H1095 H 0.73995 0.68924 0.40973 0.0
H1096 H 0.70511 0.63277 0.31427 0.0
H1097 H 0.71347 0.64729 0.35862 0.0
C1098 C 0.0769 0.36057 0.17514 0.0
C1099 C 0.08956 0.3642 0.19074 0.0
C1100 C 0.07407 0.35334 0.14836 0.0
C1101 C 0.08325 0.32921 0.10833 0.0
H1102 H 0.06262 0.33479 0.04468 0.0
C1103 C 0.07267 0.3005 0.9958 0.0
C1104 C 0.05932 0.29616 0.98233 0.0
C1105 C 0.07637 0.30835 0.02193 0.0
C1106 C 0.06824 0.33299 0.06243 0.0
H1107 H 0.10968 0.36402 0.18937 0.0
H1108 H 0.10488 0.35168 0.14232 0.0
H1109 H 0.07008 0.35084 0.0869 0.0
H1110 H 0.03906 0.29589 0.98679 0.0
H1111 H 0.04548 0.30945 0.03247 0.0
H1112 H 0.08142 0.31137 0.08374 0.0
C1113 C 0.09695 0.35409 0.15118 0.0
C1114 C 0.07255 0.34222 0.08659 0.0
C1115 C 0.09977 0.36129 0.17802 0.0
C1116 C 0.04945 0.29912 0.99646 0.0
C1117 C 0.05318 0.30702 0.02251 0.0
C1118 C 0.07898 0.32001 0.08411 0.0
C1119 C 0.08388 0.34963 0.13648 0.0
C1120 C 0.08004 0.34039 0.10992 0.0
C1121 C 0.06682 0.31206 0.0351 0.0
C1122 C 0.07133 0.32173 0.06099 0.0
H1123 H 0.06879 0.36264 0.18427 0.0
H1124 H 0.06386 0.35002 0.13774 0.0
H1125 H 0.08876 0.32731 0.12616 0.0
H1126 H 0.08052 0.29839 0.98552 0.0
H1127 H 0.08697 0.3121 0.03106 0.0
C1128 C 0.63416 0.73841 0.17206 0.0
C1129 C 0.63027 0.72527 0.18595 0.0
C1130 C 0.64091 0.74161 0.14466 0.0
C1131 C 0.65005 0.74284 0.08049 0.0
H1132 H 0.68081 0.73397 0.07367 0.0
C1133 C 0.68757 0.76094 0.98001 0.0
C1134 C 0.69025 0.75049 0.96773 0.0
C1135 C 0.6813 0.75887 0.00776 0.0
C1136 C 0.67219 0.73641 0.07507 0.0
H1137 H 0.6295 0.7048 0.18098 0.0
H1138 H 0.64117 0.71036 0.13321 0.0
H1139 H 0.66638 0.72753 0.11819 0.0
H1140 H 0.6892 0.73008 0.97572 0.0
H1141 H 0.67817 0.7264 0.02376 0.0
H1142 H 0.65568 0.75151 0.03718 0.0
C1143 C 0.63925 0.71829 0.14376 0.0
C1144 C 0.6639 0.73269 0.10057 0.0
C1145 C 0.63244 0.71506 0.17103 0.0
C1146 C 0.6873 0.73835 0.98449 0.0
C1147 C 0.68099 0.73625 0.01216 0.0
C1148 C 0.65829 0.74649 0.05486 0.0
C1149 C 0.64394 0.73175 0.13069 0.0
C1150 C 0.65267 0.73576 0.10348 0.0
C1151 C 0.67756 0.7463 0.02382 0.0
C1152 C 0.66941 0.74324 0.05177 0.0
H1153 H 0.63263 0.74651 0.18294 0.0
H1154 H 0.6444 0.75207 0.13512 0.0
H1155 H 0.64142 0.74527 0.08205 0.0
H1156 H 0.6898 0.77047 0.96775 0.0
H1157 H 0.6791 0.76697 0.01636 0.0
C1158 C 0.24823 0.8934 0.18384 0.0
C1159 C 0.26279 0.89746 0.18739 0.0
C1160 C 0.24332 0.89588 0.15736 0.0
C1161 C 0.25743 0.91969 0.09273 0.0
H1162 H 0.21847 0.89621 0.06397 0.0
C1163 C 0.23701 0.93962 -0.00205 0.0
C1164 C 0.22899 0.9295 0.97619 0.0
C1165 C 0.23957 0.93515 0.02491 0.0
C1166 C 0.22942 0.90285 0.07156 0.0
H1167 H 0.28334 0.90621 0.16524 0.0
H1168 H 0.27465 0.90998 0.11862 0.0
H1169 H 0.22648 0.88817 0.10611 0.0
H1170 H 0.21668 0.9067 0.96627 0.0
H1171 H 0.22146 0.89895 0.01278 0.0
H1172 H 0.26061 0.93407 0.05757 0.0
C1173 C 0.26713 0.9054 0.13664 0.0
C1174 C 0.23398 0.8983 0.09594 0.0
C1175 C 0.27209 0.9031 0.16327 0.0
C1176 C 0.22287 0.91479 0.98259 0.0
C1177 C 0.2256 0.91033 0.00938 0.0
C1178 C 0.25293 0.92415 0.06822 0.0
C1179 C 0.2528 0.90231 0.13368 0.0
C1180 C 0.24804 0.90668 0.10689 0.0
C1181 C 0.23435 0.92047 0.03054 0.0
C1182 C 0.23885 0.91584 0.05735 0.0
H1183 H 0.24078 0.88908 0.20203 0.0
H1184 H 0.23225 0.89345 0.15606 0.0
H1185 H 0.26824 0.92659 0.10079 0.0
H1186 H 0.24176 0.95103 0.99377 0.0
H1187 H 0.24601 0.94324 0.04101 0.0
C1188 C 0.64195 0.90339 0.68185 0.0
C1189 C 0.63884 0.91332 0.69526 0.0
C1190 C 0.6484 0.90621 0.65418 0.0
C1191 C 0.65714 0.9298 0.58882 0.0
H1192 H 0.68878 0.92233 0.58018 0.0
C1193 C 0.69662 0.95315 0.4926 0.0
C1194 C 0.69933 0.9434 0.47724 0.0
C1195 C 0.68983 0.9495 0.51989 0.0
C1196 C 0.67991 0.92438 0.58219 0.0
H1197 H 0.63934 0.93361 0.68936 0.0
H1198 H 0.65067 0.93857 0.6414 0.0
H1199 H 0.67443 0.91502 0.62497 0.0
H1200 H 0.69789 0.92254 0.47943 0.0
H1201 H 0.68612 0.91621 0.52721 0.0
H1202 H 0.66274 0.93932 0.54619 0.0
C1203 C 0.64806 0.92856 0.65209 0.0
C1204 C 0.67163 0.92013 0.60778 0.0
C1205 C 0.64158 0.92572 0.67969 0.0
C1206 C 0.69594 0.9303 0.49066 0.0
C1207 C 0.6892 0.92666 0.51805 0.0
C1208 C 0.66546 0.93411 0.56333 0.0
C1209 C 0.65189 0.91902 0.63933 0.0
C1210 C 0.66018 0.92284 0.61145 0.0
C1211 C 0.68567 0.93604 0.53252 0.0
C1212 C 0.67698 0.93152 0.55981 0.0
H1213 H 0.63991 0.89369 0.69317 0.0
H1214 H 0.65093 0.89849 0.6447 0.0
H1215 H 0.64827 0.93186 0.59071 0.0
H1216 H 0.69914 0.96337 0.48299 0.0
H1217 H 0.68752 0.95707 0.53081 0.0
C1218 C 0.06897 0.77179 0.49605 0.0
C1219 C 0.05668 0.76242 0.47977 0.0
C1220 C 0.07225 0.76717 0.52202 0.0
C1221 C 0.05804 0.73867 0.57862 0.0
H1222 H 0.0976 0.74699 0.58198 0.0
C1223 C 0.07618 0.71183 0.66437 0.0
C1224 C 0.08895 0.72108 0.67944 0.0
C1225 C 0.07246 0.71644 0.63889 0.0
C1226 C 0.08655 0.74467 0.58152 0.0
H1227 H 0.03755 0.74128 0.47939 0.0
H1228 H 0.04328 0.73326 0.5247 0.0
H1229 H 0.09 0.75684 0.54227 0.0
H1230 H 0.1083 0.74204 0.67843 0.0
H1231 H 0.1018 0.75006 0.63417 0.0
H1232 H 0.05461 0.72653 0.61794 0.0
C1233 C 0.05041 0.74415 0.51733 0.0
C1234 C 0.08221 0.75037 0.55884 0.0
C1235 C 0.04713 0.74876 0.49131 0.0
C1236 C 0.09837 0.73465 0.6674 0.0
C1237 C 0.09465 0.73925 0.64195 0.0
C1238 C 0.0624 0.733 0.60137 0.0
C1239 C 0.06329 0.75311 0.53232 0.0
C1240 C 0.06791 0.74746 0.55717 0.0
C1241 C 0.08144 0.73036 0.62793 0.0
C1242 C 0.07671 0.73593 0.60307 0.0
H1243 H 0.0765 0.78244 0.48794 0.0
H1244 H 0.08208 0.77444 0.53349 0.0
H1245 H 0.04699 0.73633 0.57803 0.0
H1246 H 0.06871 0.70128 0.67294 0.0
H1247 H 0.06237 0.70921 0.62821 0.0
C1248 C 0.2274 0.30412 0.47444 0.0
C1249 C 0.23622 0.29869 0.46486 0.0
C1250 C 0.23162 0.31371 0.49803 0.0
C1251 C 0.2645 0.34051 0.53529 0.0
H1252 H 0.23868 0.33898 0.59638 0.0
C1253 C 0.28397 0.37174 0.64379 0.0
C1254 C 0.27513 0.37596 0.6583 0.0
C1255 C 0.27959 0.36422 0.61734 0.0
C1256 C 0.24598 0.33975 0.57915 0.0
H1257 H 0.25592 0.29836 0.47382 0.0
H1258 H 0.26314 0.31493 0.51504 0.0
H1259 H 0.22962 0.32083 0.55781 0.0
H1260 H 0.25545 0.3769 0.65486 0.0
H1261 H 0.24798 0.36405 0.60834 0.0
H1262 H 0.28088 0.35937 0.55661 0.0
C1263 C 0.25312 0.31199 0.50394 0.0
C1264 C 0.24079 0.32928 0.55717 0.0
C1265 C 0.24889 0.30237 0.4805 0.0
C1266 C 0.26246 0.37368 0.64441 0.0
C1267 C 0.25809 0.36618 0.61789 0.0
C1268 C 0.26967 0.35102 0.55717 0.0
C1269 C 0.24475 0.31809 0.5124 0.0
C1270 C 0.25005 0.32943 0.53527 0.0
C1271 C 0.26632 0.36083 0.6047 0.0
C1272 C 0.26053 0.35065 0.57961 0.0
H1273 H 0.21758 0.30152 0.46287 0.0
H1274 H 0.22493 0.31822 0.50408 0.0
H1275 H 0.27182 0.34109 0.51831 0.0
H1276 H 0.29383 0.37336 0.65378 0.0
H1277 H 0.2862 0.36025 0.60787 0.0
C1278 C 0.9225 0.69384 0.01808 0.0
C1279 C 0.93639 0.69845 0.02902 0.0
C1280 C 0.91746 0.68498 0.99336 0.0
C1281 C 0.92305 0.65819 0.95511 0.0
H1282 H 0.90104 0.6622 0.8922 0.0
C1283 C 0.91237 0.62827 0.84537 0.0
C1284 C 0.89962 0.62452 0.83002 0.0
C1285 C 0.91538 0.63575 0.87181 0.0
C1286 C 0.90693 0.66076 0.9099 0.0
H1287 H 0.95622 0.69818 0.02131 0.0
H1288 H 0.94745 0.68285 0.97815 0.0
H1289 H 0.90988 0.6796 0.93226 0.0
H1290 H 0.87948 0.62464 0.83164 0.0
H1291 H 0.88462 0.63748 0.87821 0.0
H1292 H 0.92014 0.63939 0.93289 0.0
C1293 C 0.94038 0.68587 0.98903 0.0
C1294 C 0.91206 0.67079 0.93272 0.0
C1295 C 0.94544 0.69477 0.0136 0.0
C1296 C 0.88944 0.62745 0.84282 0.0
C1297 C 0.89245 0.63494 0.86935 0.0
C1298 C 0.91785 0.64813 0.93242 0.0
C1299 C 0.9262 0.68052 0.97921 0.0
C1300 C 0.92036 0.66973 0.95531 0.0
C1301 C 0.90567 0.6396 0.88362 0.0
C1302 C 0.90991 0.6494 0.90931 0.0
H1303 H 0.91526 0.69648 0.02943 0.0
H1304 H 0.90649 0.68103 0.98624 0.0
H1305 H 0.92914 0.65691 0.9726 0.0
H1306 H 0.92043 0.62615 0.83618 0.0
H1307 H 0.9257 0.63924 0.88208 0.0
C1308 C 0.30538 0.22981 0.00297 0.0
C1309 C 0.30259 0.23972 0.01745 0.0
C1310 C 0.31246 0.23325 0.97596 0.0
C1311 C 0.32394 0.25895 0.91389 0.0
H1312 H 0.35468 0.25006 0.90677 0.0
C1313 C 0.36469 0.28223 0.82007 0.0
C1314 C 0.36682 0.27219 0.80434 0.0
C1315 C 0.35791 0.27867 0.84737 0.0
C1316 C 0.34609 0.25254 0.90837 0.0
H1317 H 0.3042 0.26062 0.01396 0.0
H1318 H 0.3166 0.26665 0.96705 0.0
H1319 H 0.33923 0.24214 0.94998 0.0
H1320 H 0.3646 0.25098 0.8061 0.0
H1321 H 0.35282 0.24481 0.8538 0.0
H1322 H 0.33085 0.26942 0.87235 0.0
C1323 C 0.31329 0.25619 0.97646 0.0
C1324 C 0.33717 0.24793 0.93303 0.0
C1325 C 0.30618 0.25274 0.00343 0.0
C1326 C 0.36309 0.25896 0.81759 0.0
C1327 C 0.35633 0.25541 0.84495 0.0
C1328 C 0.33288 0.26359 0.8893 0.0
C1329 C 0.3169 0.24667 0.96286 0.0
C1330 C 0.32599 0.25109 0.93607 0.0
C1331 C 0.35318 0.26503 0.85959 0.0
C1332 C 0.34407 0.26047 0.88629 0.0
H1333 H 0.30266 0.21963 0.01306 0.0
H1334 H 0.31479 0.22555 0.96571 0.0
H1335 H 0.31532 0.26141 0.91536 0.0
H1336 H 0.36754 0.29258 0.81064 0.0
H1337 H 0.35594 0.28644 0.85848 0.0
C1338 C 0.74651 0.11135 0.81339 0.0
C1339 C 0.73176 0.10621 0.80914 0.0
C1340 C 0.75135 0.10762 0.83848 0.0
C1341 C 0.76029 0.10174 0.89731 0.0
H1342 H 0.73499 0.0633 0.92664 0.0
C1343 C 0.77253 0.08022 0.00292 0.0
C1344 C 0.76695 0.06533 0.00597 0.0
C1345 C 0.76944 0.08576 0.97805 0.0
C1346 C 0.74234 0.07397 0.91846 0.0
H1347 H 0.71065 0.09413 0.82891 0.0
H1348 H 0.71915 0.08827 0.87348 0.0
H1349 H 0.72706 0.07246 0.88671 0.0
H1350 H 0.75474 0.04472 0.98433 0.0
H1351 H 0.75 0.05444 0.94017 0.0
H1352 H 0.77587 0.10292 0.92804 0.0
C1353 C 0.72695 0.09465 0.85687 0.0
C1354 C 0.73763 0.07938 0.89589 0.0
C1355 C 0.72207 0.09816 0.83149 0.0
C1356 C 0.75909 0.05623 0.9827 0.0
C1357 C 0.75623 0.0618 0.95755 0.0
C1358 C 0.7651 0.09623 0.91957 0.0
C1359 C 0.74159 0.09887 0.8602 0.0
C1360 C 0.7465 0.09337 0.88506 0.0
C1361 C 0.76091 0.07658 0.95535 0.0
C1362 C 0.75617 0.08227 0.93055 0.0
H1363 H 0.75426 0.1175 0.7965 0.0
H1364 H 0.76267 0.11099 0.83997 0.0
H1365 H 0.76741 0.11261 0.88983 0.0
H1366 H 0.77854 0.08754 0.02054 0.0
H1367 H 0.77314 0.09716 0.97745 0.0
C1368 C 0.03006 0.42201 0.65793 0.0
C1369 C 0.02719 0.42967 0.63663 0.0
C1370 C 0.02333 0.41915 0.68531 0.0
C1371 C 0.00048 0.42792 0.73355 0.0
H1372 H 0.98865 0.3901 0.76495 0.0
C1373 C 0.97349 0.4095 0.84703 0.0
C1374 C 0.96396 0.39478 0.85182 0.0
C1375 C 0.98072 0.4143 0.82036 0.0
C1376 C 0.99164 0.40061 0.7563 0.0
H1377 H 0.0155 0.44092 0.62785 0.0
H1378 H 0.00343 0.43554 0.67493 0.0
H1379 H 0.00293 0.39794 0.72062 0.0
H1380 H 0.95379 0.37369 0.83171 0.0
H1381 H 0.96584 0.38212 0.78461 0.0
H1382 H 0.98851 0.43026 0.76843 0.0
C1383 C 0.0111 0.43197 0.67098 0.0
C1384 C 0.00015 0.40526 0.73111 0.0
C1385 C 0.01802 0.43504 0.64382 0.0
C1386 C 0.96115 0.38508 0.82874 0.0
C1387 C 0.96821 0.38992 0.80185 0.0
C1388 C 0.99177 0.42317 0.75852 0.0
C1389 C 0.01337 0.42367 0.69184 0.0
C1390 C 0.00474 0.419 0.71939 0.0
C1391 C 0.97844 0.40453 0.79761 0.0
C1392 C 0.98724 0.40945 0.7703 0.0
H1393 H 0.03718 0.41784 0.65313 0.0
H1394 H 0.02569 0.41309 0.70109 0.0
H1395 H 0.0039 0.43862 0.72544 0.0
H1396 H 0.97598 0.41726 0.86444 0.0
H1397 H 0.9886 0.4256 0.81818 0.0
C1398 C 0.59405 0.55403 0.82979 0.0
C1399 C 0.6066 0.56342 0.84535 0.0
C1400 C 0.59076 0.55834 0.80341 0.0
C1401 C 0.60566 0.58601 0.74483 0.0
H1402 H 0.56636 0.57832 0.73931 0.0
C1403 C 0.58934 0.61425 0.65892 0.0
C1404 C 0.5768 0.6054 0.64283 0.0
C1405 C 0.59255 0.60913 0.68429 0.0
C1406 C 0.57733 0.58045 0.7404 0.0
H1407 H 0.62604 0.58432 0.84425 0.0
H1408 H 0.62028 0.59182 0.7984 0.0
H1409 H 0.57335 0.56847 0.78011 0.0
H1410 H 0.55732 0.58453 0.64186 0.0
H1411 H 0.56292 0.57562 0.68615 0.0
H1412 H 0.60966 0.59808 0.70523 0.0
C1413 C 0.61298 0.58112 0.80651 0.0
C1414 C 0.58134 0.57475 0.76369 0.0
C1415 C 0.61627 0.57681 0.83288 0.0
C1416 C 0.56708 0.59164 0.65372 0.0
C1417 C 0.57029 0.58652 0.67913 0.0
C1418 C 0.60166 0.59172 0.72157 0.0
C1419 C 0.59995 0.57212 0.79198 0.0
C1420 C 0.59556 0.5775 0.76624 0.0
C1421 C 0.58327 0.59506 0.69419 0.0
C1422 C 0.58747 0.58908 0.71917 0.0
H1423 H 0.5864 0.5436 0.83868 0.0
H1424 H 0.58079 0.55104 0.79239 0.0
H1425 H 0.61665 0.58819 0.74596 0.0
H1426 H 0.59703 0.62493 0.65126 0.0
H1427 H 0.60249 0.61608 0.69578 0.0
C1428 C 0.42768 0.02686 0.83361 0.0
C1429 C 0.4179 0.03017 0.84705 0.0
C1430 C 0.42365 0.01803 0.80885 0.0
C1431 C 0.39666 0.00236 0.74949 0.0
H1432 H 0.4066 0.97224 0.75086 0.0
C1433 C 0.37467 0.95792 0.66231 0.0
C1434 C 0.385 0.95538 0.64895 0.0
C1435 C 0.37784 0.96574 0.6884 0.0
C1436 C 0.40381 0.98063 0.75007 0.0
H1437 H 0.39653 0.02752 0.84389 0.0
H1438 H 0.38954 0.01214 0.80072 0.0
H1439 H 0.4146 0.9898 0.79053 0.0
H1440 H 0.40631 0.95803 0.65387 0.0
H1441 H 0.41182 0.97168 0.69925 0.0
H1442 H 0.38597 0.99327 0.70894 0.0
C1443 C 0.40031 0.01637 0.80932 0.0
C1444 C 0.40845 0.99074 0.77271 0.0
C1445 C 0.40433 0.02518 0.83411 0.0
C1446 C 0.39812 0.95983 0.66349 0.0
C1447 C 0.40128 0.96766 0.68958 0.0
C1448 C 0.39204 0.99226 0.72683 0.0
C1449 C 0.40979 0.01236 0.79693 0.0
C1450 C 0.40499 0.00176 0.77261 0.0
C1451 C 0.39138 0.97115 0.70174 0.0
C1452 C 0.3956 0.9813 0.72681 0.0
H1453 H 0.43825 0.03058 0.8429 0.0
H1454 H 0.43131 0.01539 0.79941 0.0
H1455 H 0.39394 0.01079 0.74862 0.0
H1456 H 0.36441 0.95455 0.65183 0.0
H1457 H 0.36985 0.96797 0.69761 0.0
C1458 C 0.56606 0.97499 0.15173 0.0
C1459 C 0.57597 0.97221 0.1372 0.0
C1460 C 0.56974 0.98257 0.17817 0.0
C1461 C 0.60188 0.00914 0.2182 0.0
H1462 H 0.57489 0.00159 0.28144 0.0
C1463 C 0.61797 0.03777 0.3308 0.0
C1464 C 0.60806 0.04065 0.345 0.0
C1465 C 0.61444 0.03032 0.30419 0.0
C1466 C 0.58249 0.00396 0.26376 0.0
H1467 H 0.5971 0.97426 0.14021 0.0
H1468 H 0.60338 0.98724 0.1866 0.0
H1469 H 0.56757 0.98534 0.23956 0.0
H1470 H 0.58711 0.03897 0.34118 0.0
H1471 H 0.58107 0.02617 0.29457 0.0
H1472 H 0.61681 0.02775 0.24249 0.0
C1473 C 0.59291 0.98388 0.17715 0.0
C1474 C 0.57831 0.99461 0.23983 0.0
C1475 C 0.58925 0.97631 0.1507 0.0
C1476 C 0.59496 0.03683 0.33097 0.0
C1477 C 0.59143 0.02937 0.30439 0.0
C1478 C 0.60606 0.01849 0.24216 0.0
C1479 C 0.58338 0.9875 0.1907 0.0
C1480 C 0.58795 0.99709 0.21676 0.0
C1481 C 0.60093 0.02561 0.29122 0.0
C1482 C 0.59641 0.01602 0.26519 0.0
H1483 H 0.55573 0.97197 0.14197 0.0
H1484 H 0.56215 0.9852 0.18797 0.0
H1485 H 0.60948 0.01153 0.20052 0.0
H1486 H 0.62816 0.04057 0.34096 0.0
H1487 H 0.622 0.02758 0.29464 0.0
C1488 C 0.97185 0.59416 0.33385 0.0
C1489 C 0.96763 0.58115 0.34854 0.0
C1490 C 0.97932 0.59719 0.30734 0.0
C1491 C 0.00274 0.58744 0.26623 0.0
H1492 H 0.99708 0.60807 0.20273 0.0
C1493 C 0.02759 0.59422 0.15081 0.0
C1494 C 0.03171 0.60711 0.13569 0.0
C1495 C 0.02109 0.59179 0.17834 0.0
C1496 C -0.00106 0.6025 0.22048 0.0
H1497 H 0.96712 0.56072 0.34595 0.0
H1498 H 0.97988 0.56591 0.29936 0.0
H1499 H 0.98172 0.6015 0.24593 0.0
H1500 H 0.0333 0.62802 0.1387 0.0
H1501 H 0.02211 0.62383 0.18689 0.0
H1502 H 0.01989 0.58834 0.24059 0.0
C1503 C 0.97773 0.57391 0.30874 0.0
C1504 C 0.9901 0.59869 0.24517 0.0
C1505 C 0.97029 0.57089 0.33528 0.0
C1506 C 0.03016 0.61793 0.14964 0.0
C1507 C 0.02363 0.61548 0.17714 0.0
C1508 C 0.01157 0.59123 0.24149 0.0
C1509 C 0.98267 0.58726 0.29488 0.0
C1510 C 0.99187 0.59108 0.26831 0.0
C1511 C 0.01858 0.6022 0.19132 0.0
C1512 C 0.00976 0.59879 0.21833 0.0
H1513 H 0.97001 0.60232 0.34349 0.0
H1514 H 0.98303 0.6076 0.29732 0.0
H1515 H 0.00458 0.58184 0.28393 0.0
H1516 H 0.02867 0.58567 0.14073 0.0
H1517 H 0.0173 0.58143 0.18868 0.0
C1518 C 0.39875 0.43857 0.16314 0.0
C1519 C 0.38577 0.42831 0.15003 0.0
C1520 C 0.40286 0.43585 0.19038 0.0
C1521 C 0.3898 0.41141 0.25488 0.0
H1522 H 0.42931 0.41959 0.25833 0.0
C1523 C 0.40838 0.38615 0.34289 0.0
C1524 C 0.4211 0.39557 0.35791 0.0
C1525 C 0.4046 0.39054 0.31724 0.0
C1526 C 0.41829 0.41735 0.2578 0.0
H1527 H 0.36646 0.40762 0.15627 0.0
H1528 H 0.37367 0.40285 0.20347 0.0
H1529 H 0.42117 0.42751 0.21609 0.0
H1530 H 0.44029 0.41666 0.35669 0.0
H1531 H 0.4337 0.42426 0.31172 0.0
H1532 H 0.38688 0.40102 0.29636 0.0
C1533 C 0.38067 0.41302 0.19286 0.0
C1534 C 0.41363 0.42196 0.23369 0.0
C1535 C 0.37655 0.41575 0.16569 0.0
C1536 C 0.4304 0.40914 0.34568 0.0
C1537 C 0.42664 0.4135 0.31991 0.0
C1538 C 0.39445 0.40675 0.2789 0.0
C1539 C 0.39409 0.42282 0.20508 0.0
C1540 C 0.3993 0.41894 0.23183 0.0
C1541 C 0.41349 0.4044 0.30593 0.0
C1542 C 0.4087 0.40954 0.28048 0.0
H1543 H 0.40607 0.4484 0.15176 0.0
H1544 H 0.41313 0.44376 0.19951 0.0
H1545 H 0.37876 0.40909 0.25436 0.0
H1546 H 0.40101 0.37559 0.35159 0.0
H1547 H 0.39455 0.38317 0.30658 0.0
C1548 C 0.32039 0.19777 0.12421 0.0
C1549 C 0.323 0.20873 0.14435 0.0
C1550 C 0.32591 0.18864 0.12903 0.0
C1551 C 0.33921 0.17473 0.1875 0.0
H1552 H 0.35481 0.16342 0.12269 0.0
C1553 C 0.36712 0.14144 0.20481 0.0
C1554 C 0.36361 0.13008 0.18512 0.0
C1555 C 0.36274 0.15145 0.1994 0.0
C1556 C 0.35037 0.16638 0.14094 0.0
H1557 H 0.33354 0.21874 0.18527 0.0
H1558 H 0.3433 0.2028 0.19359 0.0
H1559 H 0.34625 0.18032 0.11429 0.0
H1560 H 0.35292 0.12045 0.14408 0.0
H1561 H 0.34516 0.13792 0.13474 0.0
H1562 H 0.34326 0.16075 0.21412 0.0
C1563 C 0.33683 0.20121 0.17422 0.0
C1564 C 0.34547 0.17606 0.13614 0.0
C1565 C 0.3313 0.21038 0.16939 0.0
C1566 C 0.35581 0.12908 0.15966 0.0
C1567 C 0.35142 0.13913 0.15424 0.0
C1568 C 0.34411 0.16506 0.19229 0.0
C1569 C 0.33418 0.19023 0.1541 0.0
C1570 C 0.33979 0.1803 0.15935 0.0
C1571 C 0.35475 0.15035 0.17419 0.0
C1572 C 0.34971 0.16075 0.16905 0.0
H1573 H 0.314 0.19618 0.10472 0.0
H1574 H 0.32349 0.18015 0.11334 0.0
H1575 H 0.33468 0.1776 0.20573 0.0
H1576 H 0.3732 0.14257 0.22457 0.0
H1577 H 0.36566 0.1601 0.21495 0.0
C1578 C 0.7927 0.11 0.14245 0.0
C1579 C 0.80019 0.10373 0.12977 0.0
C1580 C 0.80013 0.12416 0.15263 0.0
C1581 C 0.83425 0.15805 0.14277 0.0
H1582 H 0.82375 0.16894 0.21573 0.0
C1583 C 0.86788 0.21462 0.19337 0.0
C1584 C 0.86027 0.22083 0.2057 0.0
C1585 C 0.86062 0.20028 0.18424 0.0
C1586 C 0.82671 0.16609 0.19514 0.0
H1587 H 0.82137 0.1073 0.11843 0.0
H1588 H 0.8343 0.13193 0.1364 0.0
H1589 H 0.81091 0.14385 0.20014 0.0
H1590 H 0.83905 0.21694 0.21778 0.0
H1591 H 0.8264 0.19201 0.20154 0.0
H1592 H 0.85 0.18028 0.13768 0.0
C1593 C 0.82268 0.12598 0.13809 0.0
C1594 C 0.81936 0.15173 0.18624 0.0
C1595 C 0.81527 0.11183 0.12796 0.0
C1596 C 0.84525 0.21246 0.20847 0.0
C1597 C 0.83799 0.19814 0.19934 0.0
C1598 C 0.84159 0.17241 0.15165 0.0
C1599 C 0.81519 0.13234 0.15028 0.0
C1600 C 0.82305 0.14756 0.15995 0.0
C1601 C 0.8456 0.19187 0.18726 0.0
C1602 C 0.83788 0.17659 0.17791 0.0
H1603 H 0.78108 0.10405 0.14412 0.0
H1604 H 0.79405 0.12882 0.16168 0.0
H1605 H 0.83719 0.15521 0.12215 0.0
H1606 H 0.87946 0.22077 0.19102 0.0
H1607 H 0.8668 0.19571 0.17529 0.0
C1608 C 0.77977 0.63055 0.20568 0.0
C1609 C 0.77123 0.63659 0.19808 0.0
C1610 C 0.79431 0.63744 0.19805 0.0
C1611 C 0.82465 0.67299 0.17856 0.0
H1612 H 0.84189 0.65103 0.15006 0.0
C1613 C 0.88211 0.69977 0.13107 0.0
C1614 C 0.89066 0.69373 0.13854 0.0
C1615 C 0.86758 0.69286 0.13879 0.0
C1616 C 0.83727 0.65729 0.15833 0.0
H1617 H 0.77119 0.65448 0.1761 0.0
H1618 H 0.79656 0.66644 0.16254 0.0
H1619 H 0.81632 0.63872 0.16189 0.0
H1620 H 0.89074 0.67583 0.16035 0.0
H1621 H 0.8654 0.66385 0.17408 0.0
H1622 H 0.8456 0.69156 0.175 0.0
C1623 C 0.79204 0.65647 0.17475 0.0
C1624 C 0.82262 0.65024 0.16506 0.0
C1625 C 0.77749 0.64957 0.18236 0.0
C1626 C 0.88443 0.68074 0.15421 0.0
C1627 C 0.86989 0.67382 0.16191 0.0
C1628 C 0.8393 0.68004 0.17183 0.0
C1629 C 0.80062 0.65052 0.18266 0.0
C1630 C 0.81615 0.65802 0.17524 0.0
C1631 C 0.86129 0.67977 0.15414 0.0
C1632 C 0.84577 0.67227 0.16163 0.0
H1633 H 0.77528 0.62057 0.21784 0.0
H1634 H 0.80067 0.63267 0.20474 0.0
H1635 H 0.82003 0.67925 0.18681 0.0
H1636 H 0.88657 0.70975 0.11894 0.0
H1637 H 0.86121 0.69764 0.13219 0.0
C1638 C 0.14716 0.36507 0.29413 0.0
C1639 C 0.13212 0.35769 0.29729 0.0
C1640 C 0.15499 0.35817 0.30007 0.0
C1641 C 0.15266 0.32705 0.33946 0.0
H1642 H 0.18383 0.33289 0.28781 0.0
C1643 C 0.18009 0.293 0.34908 0.0
C1644 C 0.19519 0.30042 0.34788 0.0
C1645 C 0.17244 0.2999 0.34164 0.0
C1646 C 0.17523 0.33126 0.30255 0.0
H1647 H 0.11351 0.33729 0.30917 0.0
H1648 H 0.12714 0.32523 0.31916 0.0
H1649 H 0.17046 0.34532 0.27794 0.0
H1650 H 0.2141 0.32081 0.33714 0.0
H1651 H 0.20072 0.33287 0.32431 0.0
H1652 H 0.15739 0.31298 0.36405 0.0
C1653 C 0.13292 0.33641 0.31252 0.0
C1654 C 0.1676 0.33839 0.29695 0.0
C1655 C 0.12509 0.3433 0.30666 0.0
C1656 C 0.20246 0.31478 0.33829 0.0
C1657 C 0.1948 0.32168 0.33082 0.0
C1658 C 0.16026 0.31991 0.34502 0.0
C1659 C 0.14795 0.34375 0.30925 0.0
C1660 C 0.1562 0.33634 0.31532 0.0
C1661 C 0.17972 0.31437 0.33281 0.0
C1662 C 0.17161 0.32191 0.32661 0.0
H1663 H 0.1529 0.37618 0.28703 0.0
H1664 H 0.16658 0.36418 0.29773 0.0
H1665 H 0.1441 0.32543 0.35433 0.0
H1666 H 0.17415 0.2819 0.3562 0.0
H1667 H 0.16081 0.29391 0.34291 0.0
C1668 C 0.69628 0.8853 0.37191 0.0
C1669 C 0.68912 0.89314 0.36821 0.0
C1670 C 0.68976 0.87093 0.36328 0.0
C1671 C 0.66156 0.84432 0.31486 0.0
H1672 H 0.66488 0.81678 0.36437 0.0
C1673 C 0.63051 0.78328 0.29173 0.0
C1674 C 0.63817 0.77592 0.29524 0.0
C1675 C 0.63647 0.79755 0.30084 0.0
C1676 C 0.66398 0.82437 0.35017 0.0
H1677 H 0.66949 0.89204 0.35264 0.0
H1678 H 0.65807 0.86688 0.33779 0.0
H1679 H 0.6757 0.84176 0.38002 0.0
H1680 H 0.65812 0.77779 0.31096 0.0
H1681 H 0.66856 0.80272 0.32661 0.0
H1682 H 0.64986 0.82692 0.28498 0.0
C1683 C 0.66879 0.87192 0.34706 0.0
C1684 C 0.67017 0.83867 0.35913 0.0
C1685 C 0.67531 0.8863 0.35571 0.0
C1686 C 0.65192 0.78314 0.30801 0.0
C1687 C 0.65787 0.7974 0.31715 0.0
C1688 C 0.65535 0.83001 0.3059 0.0
C1689 C 0.67595 0.86408 0.35077 0.0
C1690 C 0.66909 0.84882 0.34151 0.0
C1691 C 0.65021 0.80475 0.31368 0.0
C1692 C 0.65656 0.81989 0.32341 0.0
H1693 H 0.70695 0.89026 0.38139 0.0
H1694 H 0.69563 0.86523 0.36605 0.0
H1695 H 0.66071 0.85192 0.30061 0.0
H1696 H 0.61988 0.77801 0.28202 0.0
H1697 H 0.63025 0.80289 0.29817 0.0
C1698 C 0.11691 0.82602 0.36262 0.0
C1699 C 0.11103 0.81281 0.37739 0.0
C1700 C 0.13181 0.83507 0.36115 0.0
C1701 C 0.16574 0.83428 0.36831 0.0
H1702 H 0.18307 0.87578 0.36942 0.0
C1703 C 0.22691 0.87106 0.36253 0.0
C1704 C 0.23149 0.88136 0.34006 0.0
C1705 C 0.21256 0.86387 0.37156 0.0
C1706 C 0.17835 0.8642 0.36912 0.0
H1707 H 0.11611 0.79889 0.40295 0.0
H1708 H 0.14201 0.81479 0.40105 0.0
H1709 H 0.15712 0.86066 0.37629 0.0
H1710 H 0.22485 0.89293 0.31088 0.0
H1711 H 0.19982 0.88041 0.32677 0.0
H1712 H 0.18695 0.83781 0.36107 0.0
C1713 C 0.13518 0.81804 0.38989 0.0
C1714 C 0.1635 0.85554 0.37287 0.0
C1715 C 0.12032 0.80893 0.39108 0.0
C1716 C 0.22163 0.88498 0.32811 0.0
C1717 C 0.20731 0.87787 0.33732 0.0
C1718 C 0.18057 0.84292 0.36485 0.0
C1719 C 0.14113 0.83116 0.37468 0.0
C1720 C 0.15699 0.84046 0.37217 0.0
C1721 C 0.20255 0.86695 0.3585 0.0
C1722 C 0.18701 0.85796 0.36489 0.0
H1723 H 0.11001 0.82929 0.35182 0.0
H1724 H 0.13602 0.84499 0.34887 0.0
H1725 H 0.1611 0.82273 0.36708 0.0
H1726 H 0.23426 0.86808 0.37228 0.0
H1727 H 0.20919 0.85561 0.3882 0.0
C1728 C 0.65624 0.87389 0.81547 0.0
C1729 C 0.64271 0.86854 0.80215 0.0
C1730 C 0.66142 0.86465 0.82255 0.0
C1731 C 0.65693 0.82923 0.80391 0.0
H1732 H 0.67643 0.83347 0.87791 0.0
C1733 C 0.67192 0.78764 0.84555 0.0
C1734 C 0.68547 0.79303 0.8588 0.0
C1735 C 0.66671 0.79685 0.83843 0.0
C1736 C 0.67114 0.83225 0.85702 0.0
H1737 H 0.62394 0.84928 0.78607 0.0
H1738 H 0.63293 0.83315 0.79869 0.0
H1739 H 0.66728 0.84957 0.86613 0.0
H1740 H 0.70425 0.81235 0.87471 0.0
H1741 H 0.6952 0.82841 0.86204 0.0
H1742 H 0.66079 0.8119 0.7948 0.0
C1743 C 0.63962 0.84452 0.8033 0.0
C1744 C 0.6659 0.84147 0.85028 0.0
C1745 C 0.63444 0.85375 0.79623 0.0
C1746 C 0.69374 0.80784 0.8646 0.0
C1747 C 0.68853 0.81704 0.85751 0.0
C1748 C 0.66216 0.82 0.81065 0.0
C1749 C 0.65318 0.84986 0.81645 0.0
C1750 C 0.65874 0.84006 0.82365 0.0
C1751 C 0.67493 0.81165 0.84444 0.0
C1752 C 0.66934 0.82142 0.83727 0.0
H1753 H 0.6629 0.88524 0.82026 0.0
H1754 H 0.67199 0.86912 0.83238 0.0
H1755 H 0.65164 0.82801 0.78301 0.0
H1756 H 0.66527 0.77628 0.84086 0.0
H1757 H 0.65613 0.79235 0.82866 0.0
C1758 C 0.14786 0.77735 0.77311 0.0
C1759 C 0.13382 0.76885 0.78398 0.0
C1760 C 0.15649 0.79149 0.78281 0.0
C1761 C 0.16004 0.8162 0.84296 0.0
H1762 H 0.18269 0.84604 0.78645 0.0
C1763 C 0.18347 0.87612 0.86843 0.0
C1764 C 0.19772 0.88563 0.85986 0.0
C1765 C 0.17648 0.86182 0.85931 0.0
C1766 C 0.17656 0.83779 0.80252 0.0
H1767 H 0.11783 0.7685 0.81358 0.0
H1768 H 0.13276 0.79319 0.83011 0.0
H1769 H 0.16896 0.82103 0.77043 0.0
H1770 H 0.21579 0.88762 0.83472 0.0
H1771 H 0.20348 0.86253 0.81862 0.0
H1772 H 0.16741 0.833 0.87491 0.0
C1773 C 0.13722 0.78888 0.81448 0.0
C1774 C 0.16872 0.82347 0.79339 0.0
C1775 C 0.12862 0.77475 0.80486 0.0
C1776 C 0.2048 0.88055 0.84169 0.0
C1777 C 0.19776 0.86622 0.83239 0.0
C1778 C 0.16782 0.8305 0.85204 0.0
C1779 C 0.15125 0.79742 0.80354 0.0
C1780 C 0.16023 0.81254 0.81345 0.0
C1781 C 0.18356 0.8567 0.8413 0.0
C1782 C 0.17602 0.84146 0.83186 0.0
H1783 H 0.15221 0.7731 0.75708 0.0
H1784 H 0.16731 0.79773 0.77422 0.0
H1785 H 0.15386 0.80801 0.85909 0.0
H1786 H 0.17769 0.87969 0.88238 0.0
H1787 H 0.16547 0.85478 0.86616 0.0
C1788 C 0.11576 0.30913 0.86645 0.0
C1789 C 0.10648 0.31094 0.84745 0.0
C1790 C 0.13017 0.3145 0.85903 0.0
C1791 C 0.15495 0.32603 0.79618 0.0
H1792 H 0.18425 0.34509 0.85582 0.0
C1793 C 0.21557 0.35608 0.76929 0.0
C1794 C 0.22473 0.35437 0.78884 0.0
C1795 C 0.20113 0.35078 0.77631 0.0
C1796 C 0.17618 0.33965 0.83901 0.0
H1797 H 0.10504 0.31976 0.80565 0.0
H1798 H 0.13028 0.32922 0.79275 0.0
H1799 H 0.15905 0.33594 0.86814 0.0
H1800 H 0.22589 0.34571 0.83105 0.0
H1801 H 0.20062 0.33635 0.84317 0.0
H1802 H 0.17209 0.32971 0.76707 0.0
C1803 C 0.12634 0.32353 0.8133 0.0
C1804 C 0.16175 0.33442 0.84605 0.0
C1805 C 0.11191 0.31818 0.82076 0.0
C1806 C 0.21913 0.34724 0.81555 0.0
C1807 C 0.20467 0.34194 0.82257 0.0
C1808 C 0.16939 0.33125 0.78914 0.0
C1809 C 0.13563 0.32178 0.83242 0.0
C1810 C 0.15097 0.32753 0.82474 0.0
C1811 C 0.19551 0.34366 0.80303 0.0
C1812 C 0.18017 0.3381 0.81049 0.0
H1813 H 0.11192 0.30356 0.88715 0.0
H1814 H 0.13699 0.31279 0.87403 0.0
H1815 H 0.14687 0.32058 0.77939 0.0
H1816 H 0.21955 0.36156 0.74856 0.0
H1817 H 0.1944 0.35245 0.76096 0.0
C1818 C 0.85789 0.6379 0.71282 0.0
C1819 C 0.86848 0.63901 0.69317 0.0
C1820 C 0.84886 0.64326 0.70536 0.0
C1821 C 0.84642 0.66926 0.6568 0.0
H1822 H 0.80593 0.64781 0.67714 0.0
C1823 C 0.80603 0.68664 0.61946 0.0
C1824 C 0.79586 0.68561 0.6402 0.0
C1825 C 0.81481 0.68079 0.62529 0.0
C1826 C 0.81724 0.65399 0.67159 0.0
H1827 H 0.87783 0.64653 0.65013 0.0
H1828 H 0.86195 0.65583 0.637 0.0
H1829 H 0.82132 0.6377 0.68791 0.0
H1830 H 0.78698 0.67766 0.68338 0.0
H1831 H 0.80242 0.66754 0.69366 0.0
H1832 H 0.84235 0.68558 0.64061 0.0
C1833 C 0.86075 0.65093 0.65832 0.0
C1834 C 0.82605 0.6482 0.67773 0.0
C1835 C 0.86979 0.64554 0.66578 0.0
C1836 C 0.79468 0.67861 0.66691 0.0
C1837 C 0.80346 0.67274 0.67273 0.0
C1838 C 0.83761 0.67506 0.65066 0.0
C1839 C 0.8502 0.64986 0.67807 0.0
C1840 C 0.84075 0.6558 0.67055 0.0
C1841 C 0.81362 0.67376 0.65197 0.0
C1842 C 0.82294 0.66752 0.65812 0.0
H1843 H 0.8566 0.63296 0.73414 0.0
H1844 H 0.84098 0.64245 0.72122 0.0
H1845 H 0.85775 0.67547 0.65139 0.0
H1846 H 0.80718 0.69193 0.59861 0.0
H1847 H 0.8224 0.6816 0.60871 0.0
C1848 C 0.36325 0.21369 0.70124 0.0
C1849 C 0.35558 0.22103 0.69763 0.0
C1850 C 0.357 0.19919 0.6937 0.0
C1851 C 0.32188 0.16659 0.68112 0.0
H1852 H 0.34456 0.15328 0.63953 0.0
C1853 C 0.29669 0.11043 0.62811 0.0
C1854 C 0.30421 0.10291 0.63074 0.0
C1855 C 0.30296 0.12473 0.63718 0.0
C1856 C 0.33814 0.1568 0.65146 0.0
H1857 H 0.33534 0.21891 0.68322 0.0
H1858 H 0.3245 0.19362 0.6698 0.0
H1859 H 0.35551 0.17851 0.65349 0.0
H1860 H 0.32419 0.10443 0.64521 0.0
H1861 H 0.33511 0.12939 0.66125 0.0
H1862 H 0.30449 0.14489 0.67897 0.0
C1863 C 0.33528 0.19904 0.67881 0.0
C1864 C 0.34441 0.17125 0.65944 0.0
C1865 C 0.34153 0.21355 0.68633 0.0
C1866 C 0.31812 0.10995 0.64281 0.0
C1867 C 0.32441 0.12427 0.65185 0.0
C1868 C 0.31561 0.15215 0.67313 0.0
C1869 C 0.34295 0.1917 0.6824 0.0
C1870 C 0.33634 0.17631 0.67427 0.0
C1871 C 0.31691 0.13182 0.64905 0.0
C1872 C 0.32366 0.1471 0.65813 0.0
H1873 H 0.37408 0.21912 0.70998 0.0
H1874 H 0.36312 0.19379 0.69706 0.0
H1875 H 0.31545 0.17012 0.69294 0.0
H1876 H 0.28596 0.10533 0.61885 0.0
H1877 H 0.29698 0.13031 0.6344 0.0
C1878 C 0.88789 0.20451 0.65141 0.0
C1879 C 0.8942 0.19684 0.6398 0.0
C1880 C 0.87326 0.19743 0.6584 0.0
C1881 C 0.83912 0.16466 0.64083 0.0
H1882 H 0.82542 0.17433 0.71107 0.0
C1883 C 0.78018 0.13207 0.68059 0.0
C1884 C 0.77399 0.13988 0.69205 0.0
C1885 C 0.79481 0.13902 0.67359 0.0
C1886 C 0.82907 0.17163 0.69119 0.0
H1887 H 0.89019 0.17567 0.62715 0.0
H1888 H 0.86472 0.16332 0.63968 0.0
H1889 H 0.85116 0.18635 0.70108 0.0
H1890 H 0.7782 0.16116 0.70437 0.0
H1891 H 0.80365 0.17327 0.69185 0.0
H1892 H 0.81701 0.14994 0.63095 0.0
C1893 C 0.87103 0.17483 0.64291 0.0
C1894 C 0.84381 0.1785 0.68549 0.0
C1895 C 0.88565 0.18191 0.63592 0.0
C1896 C 0.78265 0.15482 0.69572 0.0
C1897 C 0.79726 0.16175 0.68874 0.0
C1898 C 0.82437 0.15778 0.64653 0.0
C1899 C 0.86464 0.18254 0.65395 0.0
C1900 C 0.849 0.17511 0.66024 0.0
C1901 C 0.80353 0.15391 0.67791 0.0
C1902 C 0.81918 0.16121 0.67175 0.0
H1903 H 0.89417 0.21604 0.65459 0.0
H1904 H 0.86863 0.20369 0.66661 0.0
H1905 H 0.84277 0.16198 0.62093 0.0
H1906 H 0.77381 0.12054 0.67756 0.0
H1907 H 0.79936 0.13267 0.66551 0.0
C1908 C 0.02545 0.48162 0.53344 0.0
C1909 C 0.01949 0.46736 0.52366 0.0
C1910 C 0.0197 0.4901 0.52433 0.0
C1911 C 0.98678 0.48772 0.49338 0.0
H1912 H 0.01233 0.528 0.47549 0.0
C1913 C 0.9672 0.52364 0.44005 0.0
C1914 C 0.97268 0.53754 0.45165 0.0
C1915 C 0.97278 0.51497 0.44895 0.0
C1916 C 0.00506 0.5168 0.48069 0.0
H1917 H 0.00289 0.45084 0.49642 0.0
H1918 H 0.99298 0.46575 0.48009 0.0
H1919 H 0.02241 0.51302 0.49011 0.0
H1920 H 0.98827 0.55322 0.48178 0.0
H1921 H 0.99801 0.53805 0.49731 0.0
H1922 H 0.96944 0.49152 0.48369 0.0
C1923 C 0.00196 0.47029 0.49521 0.0
C1924 C 0.01082 0.50822 0.48908 0.0
C1925 C 0.00769 0.46178 0.50443 0.0
C1926 C 0.98383 0.54257 0.47242 0.0
C1927 C 0.98946 0.53392 0.48119 0.0
C1928 C 0.98102 0.49629 0.48485 0.0
C1929 C 0.00789 0.48454 0.50511 0.0
C1930 C 0.00175 0.49359 0.49563 0.0
C1931 C 0.98401 0.52005 0.4695 0.0
C1932 C 0.99011 0.51093 0.47851 0.0
H1933 H 0.0345 0.48623 0.54839 0.0
H1934 H 0.02438 0.50096 0.53274 0.0
H1935 H 0.97948 0.47655 0.49871 0.0
H1936 H 0.95862 0.51945 0.424 0.0
H1937 H 0.96847 0.50438 0.43935 0.0
C1938 C 0.52016 0.55228 0.53893 0.0
C1939 C 0.53492 0.56013 0.53244 0.0
C1940 C 0.5119 0.53793 0.5304 0.0
C1941 C 0.51484 0.50636 0.50979 0.0
H1942 H 0.47647 0.49228 0.47861 0.0
C1943 C 0.48096 0.44965 0.45984 0.0
C1944 C 0.46624 0.44208 0.46677 0.0
C1945 C 0.4895 0.46404 0.46792 0.0
C1946 C 0.4871 0.49602 0.48759 0.0
H1947 H 0.55259 0.55913 0.51169 0.0
H1948 H 0.53811 0.53407 0.49654 0.0
H1949 H 0.49112 0.51754 0.49199 0.0
H1950 H 0.44896 0.44362 0.48799 0.0
H1951 H 0.4639 0.4687 0.5023 0.0
H1952 H 0.5108 0.48482 0.5054 0.0
C1953 C 0.53297 0.53898 0.50855 0.0
C1954 C 0.4955 0.51049 0.49522 0.0
C1955 C 0.54124 0.55335 0.51707 0.0
C1956 C 0.46026 0.44916 0.48222 0.0
C1957 C 0.46879 0.46356 0.49027 0.0
C1958 C 0.50644 0.49189 0.50214 0.0
C1959 C 0.51822 0.53111 0.51518 0.0
C1960 C 0.50943 0.51581 0.5065 0.0
C1961 C 0.48349 0.47118 0.48306 0.0
C1962 C 0.49246 0.48655 0.49105 0.0
H1963 H 0.51497 0.55717 0.55082 0.0
H1964 H 0.5006 0.5321 0.53617 0.0
H1965 H 0.52546 0.5101 0.51881 0.0
H1966 H 0.48589 0.4445 0.44792 0.0
H1967 H 0.50076 0.46967 0.4618 0.0
C1968 C 0.54796 0.02223 0.45338 0.0
C1969 C 0.55734 0.0227 0.47539 0.0
C1970 C 0.53328 0.01621 0.45899 0.0
C1971 C 0.50718 0.00687 0.51903 0.0
H1972 H 0.47961 0.98233 0.46044 0.0
C1973 C 0.44635 0.97403 0.54232 0.0
C1974 C 0.43701 0.97361 0.52024 0.0
C1975 C 0.46102 0.98001 0.5368 0.0
C1976 C 0.48718 0.98929 0.47687 0.0
H1977 H 0.55869 0.01723 0.5206 0.0
H1978 H 0.533 0.00661 0.53034 0.0
H1979 H 0.50528 0.99273 0.45112 0.0
H1980 H 0.43577 0.97913 0.47502 0.0
H1981 H 0.46146 0.98968 0.46545 0.0
H1982 H 0.48907 0.00344 0.54478 0.0
C1983 C 0.53704 0.01104 0.50882 0.0
C1984 C 0.50188 0.99524 0.47155 0.0
C1985 C 0.55174 0.01706 0.50319 0.0
C1986 C 0.44267 0.97926 0.49248 0.0
C1987 C 0.45737 0.98524 0.48695 0.0
C1988 C 0.49248 0.00092 0.52436 0.0
C1989 C 0.52766 0.01053 0.48674 0.0
C1990 C 0.51204 0.0041 0.49256 0.0
C1991 C 0.46671 0.98569 0.50908 0.0
C1992 C 0.48232 0.99207 0.50333 0.0
H1993 H 0.55192 0.02653 0.43173 0.0
H1994 H 0.52637 0.01617 0.44166 0.0
H1995 H 0.51475 0.01383 0.53546 0.0
H1996 H 0.44233 0.96973 0.56394 0.0
H1997 H 0.4679 0.98002 0.55418 0.0
C1998 C 0.47009 0.02892 0.95619 0.0
C1999 C 0.45886 0.02517 0.97637 0.0
C2000 C 0.48048 0.02498 0.96111 0.0
C2001 C 0.49668 0.01352 0.01874 0.0
H2002 H 0.50804 0.99841 0.95315 0.0
C2003 C 0.53 0.98537 0.03335 0.0
C2004 C 0.54086 0.98831 0.01271 0.0
C2005 C 0.52042 0.99041 0.0291 0.0
C2006 C 0.50513 0.00279 0.9716 0.0
H2007 H 0.44988 0.01455 0.01778 0.0
H2008 H 0.46801 0.00756 0.02627 0.0
H2009 H 0.49049 0.00618 0.94573 0.0
H2010 H 0.55023 -0.00105 0.9715 0.0
H2011 H 0.53352 0.00786 0.96419 0.0
H2012 H 0.51129 0.01004 0.04465 0.0
C2013 C 0.46882 0.01366 0.00676 0.0
C2014 C 0.49506 0.00723 0.96736 0.0
C2015 C 0.45839 0.0176 0.00183 0.0
C2016 C 0.54196 0.99646 0.98776 0.0
C2017 C 0.53234 0.00151 0.98351 0.0
C2018 C 0.50676 0.00908 0.02299 0.0
C2019 C 0.47991 0.01721 0.98631 0.0
C2020 C 0.4907 0.01262 0.99089 0.0
C2021 C 0.52146 0.99851 0.00413 0.0
C2022 C 0.51106 0.00362 -0.00052 0.0
H2023 H 0.47083 0.03483 0.93643 0.0
H2024 H 0.48902 0.02809 0.94519 0.0
H2025 H 0.49369 0.01782 0.03721 0.0
H2026 H 0.52882 0.97909 0.05279 0.0
H2027 H 0.51203 0.98774 0.04518 0.0
C2028 C 0.00829 0.54463 0.02738 0.0
C2029 C 0.02279 0.55327 0.03544 0.0
C2030 C 0.00248 0.5299 0.02285 0.0
C2031 C 0.0124 0.50271 0.00463 0.0
H2032 H 0.97417 0.47612 0.03375 0.0
C2033 C 0.98601 0.44128 0.98835 0.0
C2034 C 0.97163 0.43433 0.97885 0.0
C2035 C 0.99265 0.45548 -0.00161 0.0
C2036 C 0.98483 0.48342 0.02534 0.0
H2037 H 0.04259 0.55324 0.04492 0.0
H2038 H 0.03241 0.52748 0.03694 0.0
H2039 H 0.9851 0.50167 0.04482 0.0
H2040 H 0.95285 0.4367 0.97306 0.0
H2041 H 0.96444 0.46141 0.99022 0.0
H2042 H 0.01201 0.48449 0.98463 0.0
C2043 C 0.02557 0.53214 0.03402 0.0
C2044 C 0.99107 0.49804 0.03167 0.0
C2045 C 0.03138 0.54688 0.03869 0.0
C2046 C 0.96394 0.44174 0.98022 0.0
C2047 C 0.97056 0.45588 0.99026 0.0
C2048 C 0.00613 0.48807 -0.00177 0.0
C2049 C 0.01105 0.52349 0.02616 0.0
C2050 C 0.00483 0.50787 0.02102 0.0
C2051 C 0.98502 0.46297 -0.0008 0.0
C2052 C 0.99219 0.4783 0.00815 0.0
H2053 H 0.00138 0.54921 0.02466 0.0
H2054 H 0.99131 0.52355 0.01637 0.0
H2055 H 0.02297 0.51005 0.99591 0.0
H2056 H 0.99221 0.43585 0.98763 0.0
H2057 H 0.00376 0.46061 0.00543 0.0
C2058 C 0.44387 0.46258 0.03875 0.0
C2059 C 0.43386 0.45744 0.01566 0.0
C2060 C 0.45858 0.47073 0.033 0.0
C2061 C 0.48435 0.49373 0.97671 0.0
H2062 H 0.51142 0.48765 0.02204 0.0
C2063 C 0.54487 0.52202 0.94936 0.0
C2064 C 0.55456 0.52733 0.973 0.0
C2065 C 0.53013 0.51334 0.95429 0.0
C2066 C 0.504 0.48958 0.00942 0.0
H2067 H 0.43145 0.45672 0.96839 0.0
H2068 H 0.45721 0.4709 0.95833 0.0
H2069 H 0.48567 0.47247 0.0307 0.0
H2070 H 0.55635 0.52775 0.02039 0.0
H2071 H 0.53057 0.51266 0.02901 0.0
H2072 H 0.50268 0.51087 0.95549 0.0
C2073 C 0.45363 0.46873 0.98091 0.0
C2074 C 0.48926 0.48087 0.01435 0.0
C2075 C 0.43889 0.46054 0.98666 0.0
C2076 C 0.54918 0.5238 0.0017 0.0
C2077 C 0.53442 0.51509 0.00664 0.0
C2078 C 0.49909 0.50243 0.97177 0.0
C2079 C 0.46363 0.47394 0.00404 0.0
C2080 C 0.47927 0.48289 -0.00187 0.0
C2081 C 0.52474 0.50976 0.98297 0.0
C2082 C 0.50908 0.50048 0.98814 0.0
H2083 H 0.44037 0.46041 0.06137 0.0
H2084 H 0.46599 0.47474 0.05132 0.0
H2085 H 0.47694 0.4957 0.96418 0.0
H2086 H 0.54866 0.52451 0.92695 0.0
H2087 H 0.52298 0.50926 0.9356 0.0
C2088 C 0.46184 0.087 0.00182 0.0
C2089 C 0.44996 0.07916 0.98328 0.0
C2090 C 0.46153 0.09618 0.02321 0.0
C2091 C 0.4521 0.1036 0.08017 0.0
H2092 H 0.43053 0.12348 0.07137 0.0
C2093 C 0.41977 0.10938 0.1735 0.0
C2094 C 0.41727 0.12104 0.17386 0.0
C2095 C 0.42795 0.10807 0.15121 0.0
C2096 C 0.43686 0.11826 0.07425 0.0
H2097 H 0.42885 0.07557 0.97133 0.0
H2098 H 0.4282 0.09132 0.0087 0.0
H2099 H 0.43736 0.11507 0.02807 0.0
H2100 H 0.42242 0.14108 0.15243 0.0
H2101 H 0.43689 0.13887 0.11372 0.0
H2102 H 0.45141 0.10661 0.12639 0.0
C2103 C 0.43785 0.09055 0.00668 0.0
C2104 C 0.44061 0.11327 0.04939 0.0
C2105 C 0.43817 0.08141 0.98531 0.0
C2106 C 0.42403 0.13189 0.15265 0.0
C2107 C 0.43225 0.13059 0.13034 0.0
C2108 C 0.4484 0.10865 0.10504 0.0
C2109 C 0.44933 0.09771 0.02648 0.0
C2110 C 0.44781 0.10542 0.05211 0.0
C2111 C 0.43389 0.11841 0.12879 0.0
C2112 C 0.44027 0.11557 0.10245 0.0
H2113 H 0.47115 0.08561 0.00069 0.0
H2114 H 0.47065 0.10172 0.03779 0.0
H2115 H 0.45758 0.09754 0.08317 0.0
H2116 H 0.41478 0.10084 0.18955 0.0
H2117 H 0.42885 0.09847 0.15063 0.0
C2118 C 0.8892 0.31043 0.19421 0.0
C2119 C 0.88487 0.29585 0.19026 0.0
C2120 C 0.8899 0.31891 0.17031 0.0
C2121 C 0.88191 0.31751 0.0896 0.0
H2122 H 0.91749 0.35409 0.08965 0.0
C2123 C 0.91592 0.34568 0.98717 0.0
C2124 C 0.9233 0.36078 0.98611 0.0
C2125 C 0.90739 0.33839 0.0114 0.0
C2126 C 0.90736 0.34404 0.0894 0.0
H2127 H 0.87682 0.27849 0.15847 0.0
H2128 H 0.87855 0.29326 0.11693 0.0
H2129 H 0.90939 0.34022 0.13449 0.0
H2130 H 0.92655 0.38001 0.0086 0.0
H2131 H 0.9118 0.36727 0.05092 0.0
H2132 H 0.88058 0.32107 0.04369 0.0
C2133 C 0.88116 0.29822 0.1384 0.0
C2134 C 0.90264 0.33607 0.11524 0.0
C2135 C 0.88027 0.28971 0.16233 0.0
C2136 C 0.92112 0.36837 0.00879 0.0
C2137 C 0.91271 0.3611 0.0331 0.0
C2138 C 0.88676 0.32543 0.0636 0.0
C2139 C 0.88648 0.31305 0.14185 0.0
C2140 C 0.89005 0.3225 0.11557 0.0
C2141 C 0.90616 0.34607 0.0351 0.0
C2142 C 0.89971 0.33862 0.06313 0.0
H2143 H 0.89263 0.31543 0.21554 0.0
H2144 H 0.89366 0.3302 0.174 0.0
H2145 H 0.872 0.30727 0.08909 0.0
H2146 H 0.9173 0.3395 0.97 0.0
H2147 H 0.90253 0.32681 0.0124 0.0
C2148 C 0.62185 0.5422 0.00658 0.0
C2149 C 0.62742 0.54462 0.97795 0.0
C2150 C 0.63045 0.5434 0.03054 0.0
C2151 C 0.66862 0.56273 0.05082 0.0
H2152 H 0.65357 0.54381 0.1254 0.0
C2153 C 0.70214 0.58425 0.15545 0.0
C2154 C 0.69491 0.58726 0.17761 0.0
C2155 C 0.69449 0.57518 0.13214 0.0
C2156 C 0.65795 0.54912 0.10467 0.0
H2157 H 0.64607 0.54899 0.95188 0.0
H2158 H 0.66105 0.55078 0.99374 0.0
H2159 H 0.63899 0.53435 0.08113 0.0
H2160 H 0.6739 0.58213 0.19397 0.0
H2161 H 0.66058 0.56633 0.15335 0.0
H2162 H 0.68738 0.57773 0.07443 0.0
C2163 C 0.6501 0.54833 -0.0023 0.0
C2164 C 0.6496 0.54374 0.07932 0.0
C2165 C 0.64149 0.54722 0.97367 0.0
C2166 C 0.6798 0.58012 0.17716 0.0
C2167 C 0.67215 0.57098 0.15394 0.0
C2168 C 0.677 0.56802 0.07609 0.0
C2169 C 0.64485 0.54694 0.0265 0.0
C2170 C 0.65463 0.55079 0.05225 0.0
C2171 C 0.67945 0.56884 0.13065 0.0
C2172 C 0.67157 0.56156 0.10344 0.0
H2173 H 0.61102 0.54009 0.01071 0.0
H2174 H 0.62603 0.54239 0.05231 0.0
H2175 H 0.67282 0.56859 0.03054 0.0
H2176 H 0.71377 0.58948 0.15523 0.0
H2177 H 0.70038 0.57357 0.11469 0.0
C2178 C 0.10178 0.41674 0.31647 0.0
C2179 C 0.10794 0.40794 0.31931 0.0
C2180 C 0.10168 0.42493 0.34022 0.0
C2181 C 0.10171 0.42332 0.42054 0.0
H2182 H 0.09981 0.45834 0.41462 0.0
C2183 C 0.08179 0.44248 0.51768 0.0
C2184 C 0.07057 0.445 0.51004 0.0
C2185 C 0.09069 0.44185 0.49599 0.0
C2186 C 0.10038 0.44859 0.41665 0.0
H2187 H 0.12005 0.40189 0.34827 0.0
H2188 H 0.1202 0.41643 0.38939 0.0
H2189 H 0.10793 0.45016 0.37257 0.0
H2190 H 0.06065 0.45005 0.474 0.0
H2191 H 0.076 0.44885 0.43637 0.0
H2192 H 0.09364 0.4214 0.46408 0.0
C2193 C 0.11504 0.41668 0.36917 0.0
C2194 C 0.105 0.44389 0.39255 0.0
C2195 C 0.11502 0.4084 0.34554 0.0
C2196 C 0.06911 0.44794 0.48061 0.0
C2197 C 0.07802 0.44738 0.45901 0.0
C2198 C 0.09714 0.42803 0.44459 0.0
C2199 C 0.10786 0.42458 0.36721 0.0
C2200 C 0.1053 0.43096 0.39393 0.0
C2201 C 0.08859 0.44383 0.46629 0.0
C2202 C 0.096 0.44048 0.44266 0.0
H2203 H 0.09624 0.41662 0.29654 0.0
H2204 H 0.09596 0.4308 0.33793 0.0
H2205 H 0.10157 0.41321 0.42235 0.0
H2206 H 0.08325 0.44025 0.54018 0.0
H2207 H 0.09888 0.43928 0.50233 0.0
C2208 C 0.55436 0.62958 0.49061 0.0
C2209 C 0.55971 0.6351 0.51865 0.0
C2210 C 0.55426 0.63852 0.46852 0.0
C2211 C 0.57494 0.67644 0.44796 0.0
H2212 H 0.54925 0.66366 0.38097 0.0
C2213 C 0.5906 0.71077 0.34473 0.0
C2214 C 0.58995 0.70327 0.319 0.0
C2215 C 0.58317 0.70337 0.36984 0.0
C2216 C 0.5565 0.6674 0.39956 0.0
H2217 H 0.56789 0.65403 0.54624 0.0
H2218 H 0.56748 0.6696 0.50778 0.0
H2219 H 0.54257 0.64889 0.42526 0.0
H2220 H 0.58008 0.6822 0.29871 0.0
H2221 H 0.5673 0.66922 0.34273 0.0
H2222 H 0.58912 0.69462 0.42213 0.0
C2223 C 0.56371 0.65843 0.50267 0.0
C2224 C 0.55268 0.65894 0.42493 0.0
C2225 C 0.56388 0.64948 0.52477 0.0
C2226 C 0.58082 0.68829 0.31821 0.0
C2227 C 0.57344 0.68085 0.34346 0.0
C2228 C 0.57872 0.68488 0.42273 0.0
C2229 C 0.55944 0.65318 0.47398 0.0
C2230 C 0.56206 0.66317 0.44912 0.0
C2231 C 0.575 0.68828 0.36986 0.0
C2232 C 0.56974 0.68029 0.39793 0.0
H2233 H 0.55095 0.61852 0.48517 0.0
H2234 H 0.55099 0.6341 0.44671 0.0
H2235 H 0.58258 0.67995 0.46587 0.0
H2236 H 0.59738 0.72235 0.34589 0.0
H2237 H 0.58433 0.70943 0.38963 0.0
C2238 C 0.35078 0.90353 0.52182 0.0
C2239 C 0.36475 0.9151 0.51724 0.0
C2240 C 0.34215 0.89581 0.49796 0.0
C2241 C 0.34253 0.8912 0.41655 0.0
H2242 H 0.30511 0.88832 0.42075 0.0
C2243 C 0.31366 0.89872 0.31823 0.0
C2244 C 0.29855 0.89142 0.31763 0.0
C2245 C 0.32093 0.89669 0.3415 0.0
C2246 C 0.31537 0.8887 0.41928 0.0
H2247 H 0.38102 0.9269 0.48422 0.0
H2248 H 0.36601 0.91376 0.44294 0.0
H2249 H 0.31948 0.89346 0.46486 0.0
H2250 H 0.27924 0.87532 0.33966 0.0
H2251 H 0.29196 0.87181 0.38021 0.0
H2252 H 0.33867 0.88729 0.37046 0.0
C2253 C 0.36166 0.91047 0.46479 0.0
C2254 C 0.32363 0.89164 0.44468 0.0
C2255 C 0.37026 0.91813 0.48855 0.0
C2256 C 0.29089 0.88123 0.3396 0.0
C2257 C 0.29816 0.87925 0.36291 0.0
C2258 C 0.33429 0.88835 0.39108 0.0
C2259 C 0.34734 0.89953 0.46909 0.0
C2260 C 0.33753 0.89344 0.44346 0.0
C2261 C 0.31324 0.88734 0.36465 0.0
C2262 C 0.32082 0.88755 0.39203 0.0
H2263 H 0.34626 0.90084 0.54367 0.0
H2264 H 0.33124 0.88729 0.50207 0.0
H2265 H 0.35307 0.89223 0.41495 0.0
H2266 H 0.31988 0.90657 0.30157 0.0
H2267 H 0.33255 0.90317 0.34226 0.0
C2268 C 0.58356 0.89612 0.81222 0.0
C2269 C 0.59487 0.89375 0.81999 0.0
C2270 C 0.57432 0.89625 0.83374 0.0
C2271 C 0.56399 0.8884 0.91268 0.0
H2272 H 0.56156 0.92314 0.90804 0.0
C2273 C 0.5614 0.91919 0.01349 0.0
C2274 C 0.55479 0.92759 0.0109 0.0
C2275 C 0.56173 0.91118 0.98961 0.0
C2276 C 0.56177 0.91319 0.90953 0.0
H2277 H 0.60465 0.88852 0.85603 0.0
H2278 H 0.58875 0.88893 0.89335 0.0
H2279 H 0.5702 0.91577 0.86619 0.0
H2280 H 0.5421 0.93306 0.98229 0.0
H2281 H 0.54241 0.91887 0.94094 0.0
H2282 H 0.55613 0.88623 0.95665 0.0
C2283 C 0.5869 0.89061 0.87075 0.0
C2284 C 0.56675 0.90895 0.88541 0.0
C2285 C 0.59612 0.89052 0.84932 0.0
C2286 C 0.54748 0.92686 0.98483 0.0
C2287 C 0.54771 0.91878 0.96107 0.0
C2288 C 0.55899 0.89265 0.93687 0.0
C2289 C 0.57619 0.89395 0.86339 0.0
C2290 C 0.56835 0.89676 0.88699 0.0
C2291 C 0.55536 0.91134 0.96276 0.0
C2292 C 0.55824 0.90534 0.93586 0.0
H2293 H 0.58224 0.89855 0.78979 0.0
H2294 H 0.56604 0.89866 0.82731 0.0
H2295 H 0.56489 0.87882 0.91443 0.0
H2296 H 0.56712 0.9195 0.03328 0.0
H2297 H 0.5678 0.90565 0.99168 0.0
C2298 C 0.08378 0.63673 0.01392 0.0
C2299 C 0.07049 0.62474 0.00636 0.0
C2300 C 0.09292 0.64595 0.99213 0.0
C2301 C 0.09865 0.64982 0.91107 0.0
H2302 H 0.11104 0.68983 0.92653 0.0
C2303 C 0.10381 0.68998 0.82253 0.0
C2304 C 0.11415 0.70459 0.82576 0.0
C2305 C 0.10253 0.67997 0.84359 0.0
C2306 C 0.10798 0.67877 0.92195 0.0
H2307 H 0.05679 0.61254 0.96994 0.0
H2308 H 0.0725 0.62862 0.93228 0.0
H2309 H 0.1015 0.67252 0.9663 0.0
H2310 H 0.13198 0.71997 0.85245 0.0
H2311 H 0.12972 0.70246 0.88918 0.0
H2312 H 0.10445 0.65604 0.86629 0.0
C2313 C 0.07601 0.6309 0.95488 0.0
C2314 C 0.10252 0.66882 0.94482 0.0
C2315 C 0.06691 0.62173 0.97657 0.0
C2316 C 0.12381 0.70881 0.84944 0.0
C2317 C 0.12249 0.6988 0.87056 0.0
C2318 C 0.10407 0.65977 0.88815 0.0
C2319 C 0.08895 0.64332 0.96239 0.0
C2320 C 0.09732 0.65415 0.93945 0.0
C2321 C 0.11154 0.68436 0.86834 0.0
C2322 C 0.10835 0.67428 0.89318 0.0
H2323 H 0.08689 0.63929 0.03667 0.0
H2324 H 0.1029 0.65535 -0.00139 0.0
H2325 H 0.095 0.63863 0.90632 0.0
H2326 H 0.09624 0.68636 0.80449 0.0
H2327 H 0.0939 0.66895 0.84134 0.0
C2328 C 0.3125 0.42035 0.79536 0.0
C2329 C 0.29836 0.40881 0.79809 0.0
C2330 C 0.32055 0.42738 0.82033 0.0
C2331 C 0.31758 0.43133 0.90095 0.0
H2332 H 0.35591 0.43631 0.90277 0.0
C2333 C 0.34573 0.4292 0.00635 0.0
C2334 C 0.36077 0.43765 0.00848 0.0
C2335 C 0.3386 0.42948 0.98096 0.0
C2336 C 0.34535 0.4353 0.90252 0.0
H2337 H 0.28137 0.39602 0.82914 0.0
H2338 H 0.29538 0.40806 0.87237 0.0
H2339 H 0.34253 0.42987 0.857 0.0
H2340 H 0.38002 0.45378 0.98636 0.0
H2341 H 0.36755 0.45426 0.94203 0.0
H2342 H 0.32022 0.43613 0.94688 0.0
C2343 C 0.30026 0.41185 0.85106 0.0
C2344 C 0.33766 0.43161 0.87621 0.0
C2345 C 0.29225 0.40485 0.82619 0.0
C2346 C 0.36843 0.44707 0.98538 0.0
C2347 C 0.3613 0.44729 0.95991 0.0
C2348 C 0.32525 0.43497 0.92729 0.0
C2349 C 0.3146 0.42303 0.84851 0.0
C2350 C 0.32353 0.42917 0.87528 0.0
C2351 C 0.34637 0.4382 0.95709 0.0
C2352 C 0.33908 0.43661 0.92853 0.0
H2353 H 0.3175 0.42372 0.77402 0.0
H2354 H 0.33151 0.43607 0.81759 0.0
H2355 H 0.30681 0.42981 0.90086 0.0
H2356 H 0.3395 0.42188 0.02379 0.0
H2357 H 0.3271 0.42226 0.97943 0.0
C2358 C 0.90323 0.5833 0.6929 0.0
C2359 C 0.8925 0.58706 0.69583 0.0
C2360 C 0.90329 0.57531 0.66881 0.0
C2361 C 0.89102 0.56867 0.59231 0.0
H2362 H 0.90927 0.54535 0.59377 0.0
C2363 C 0.92401 0.5664 0.49649 0.0
C2364 C 0.92556 0.55428 0.49235 0.0
C2365 C 0.91565 0.56684 0.51944 0.0
C2366 C 0.90386 0.55157 0.59284 0.0
H2367 H 0.87276 0.58441 0.67696 0.0
H2368 H 0.87268 0.57018 0.63522 0.0
H2369 H 0.90215 0.5516 0.63954 0.0
H2370 H 0.91858 0.53265 0.5076 0.0
H2371 H 0.90373 0.53332 0.54742 0.0
H2372 H 0.8928 0.5687 0.54562 0.0
C2373 C 0.88128 0.57373 0.65115 0.0
C2374 C 0.89995 0.55533 0.61919 0.0
C2375 C 0.88128 0.58182 0.67517 0.0
C2376 C 0.91772 0.54221 0.51037 0.0
C2377 C 0.90928 0.54262 0.53332 0.0
C2378 C 0.8948 0.56481 0.56596 0.0
C2379 C 0.89254 0.57077 0.64717 0.0
C2380 C 0.89402 0.56441 0.61931 0.0
C2381 C 0.90853 0.55513 0.53872 0.0
C2382 C 0.90181 0.5567 0.56595 0.0
H2383 H 0.91203 0.58714 0.70841 0.0
H2384 H 0.91224 0.57342 0.66638 0.0
H2385 H 0.88652 0.57572 0.59146 0.0
H2386 H 0.92984 0.57588 0.48295 0.0
H2387 H 0.91548 0.57672 0.52303 0.0
C2388 C 0.40195 0.28764 0.64165 0.0
C2389 C 0.40281 0.29495 0.66781 0.0
C2390 C 0.41006 0.29513 0.6172 0.0
C2391 C 0.43951 0.3307 0.59136 0.0
H2392 H 0.41561 0.32143 0.52201 0.0
C2393 C 0.44605 0.37201 0.50494 0.0
C2394 C 0.44155 0.36762 0.47596 0.0
C2395 C 0.44522 0.36215 0.52585 0.0
C2396 C 0.42263 0.32399 0.54083 0.0
H2397 H 0.41357 0.31572 0.6894 0.0
H2398 H 0.4275 0.32884 0.64659 0.0
H2399 H 0.40681 0.3057 0.56426 0.0
H2400 H 0.43392 0.34977 0.44555 0.0
H2401 H 0.43258 0.33253 0.48212 0.0
H2402 H 0.45506 0.3494 0.56816 0.0
C2403 C 0.42069 0.31728 0.64502 0.0
C2404 C 0.41755 0.31495 0.56517 0.0
C2405 C 0.41262 0.30977 0.66955 0.0
C2406 C 0.43735 0.35345 0.46775 0.0
C2407 C 0.4365 0.34356 0.48874 0.0
C2408 C 0.44461 0.33976 0.56693 0.0
C2409 C 0.41916 0.31011 0.6183 0.0
C2410 C 0.42573 0.31843 0.59107 0.0
C2411 C 0.43989 0.34768 0.51827 0.0
C2412 C 0.43601 0.33675 0.54174 0.0
H2413 H 0.39464 0.27617 0.6397 0.0
H2414 H 0.40884 0.28924 0.59711 0.0
H2415 H 0.44618 0.33354 0.6108 0.0
H2416 H 0.44948 0.38289 0.51193 0.0
H2417 H 0.44783 0.36571 0.54837 0.0
C2418 C 0.62421 0.07895 0.50508 0.0
C2419 C 0.62953 0.08177 0.47624 0.0
C2420 C 0.63281 0.08709 0.52844 0.0
C2421 C 0.67095 0.10766 0.54791 0.0
H2422 H 0.65565 0.11267 0.62119 0.0
C2423 C 0.70473 0.12282 0.65276 0.0
C2424 C 0.6977 0.1131 0.67582 0.0
C2425 C 0.69692 0.12345 0.62886 0.0
C2426 C 0.6601 0.11142 0.60082 0.0
H2427 H 0.64772 0.09605 0.44912 0.0
H2428 H 0.66272 0.11044 0.49002 0.0
H2429 H 0.64089 0.10605 0.57692 0.0
H2430 H 0.67685 0.09731 0.69301 0.0
H2431 H 0.66326 0.0984 0.65135 0.0
H2432 H 0.68995 0.11255 0.57194 0.0
C2433 C 0.65196 0.10172 0.49456 0.0
C2434 C 0.65165 0.1076 0.57548 0.0
C2435 C 0.64334 0.09353 0.4711 0.0
C2436 C 0.68261 0.10485 0.67553 0.0
C2437 C 0.6748 0.10554 0.6517 0.0
C2438 C 0.67941 0.11157 0.57318 0.0
C2439 C 0.64695 0.0983 0.5236 0.0
C2440 C 0.65678 0.10515 0.54895 0.0
C2441 C 0.68192 0.11446 0.62763 0.0
C2442 C 0.67391 0.11301 0.60012 0.0
H2443 H 0.61359 0.07003 0.50985 0.0
H2444 H 0.62861 0.084 0.55045 0.0
H2445 H 0.67522 0.1057 0.52804 0.0
H2446 H 0.71635 0.12942 0.65239 0.0
H2447 H 0.70268 0.13057 0.61081 0.0
C2448 C 0.78598 0.74322 0.67024 0.0
C2449 C 0.77931 0.74328 0.64378 0.0
C2450 C 0.78451 0.74991 0.69519 0.0
C2451 C 0.77076 0.77357 0.72274 0.0
H2452 H 0.75912 0.74795 0.7897 0.0
C2453 C 0.7317 0.77139 0.81113 0.0
C2454 C 0.73302 0.7677 0.84007 0.0
C2455 C 0.74111 0.772 0.78934 0.0
C2456 C 0.76266 0.75543 0.77153 0.0
H2457 H 0.76676 0.75134 0.62219 0.0
H2458 H 0.76393 0.76277 0.66579 0.0
H2459 H 0.76917 0.74276 0.74693 0.0
H2460 H 0.74585 0.76265 0.86918 0.0
H2461 H 0.76236 0.76375 0.831 0.0
H2462 H 0.76359 0.78588 0.74711 0.0
C2463 C 0.77046 0.7577 0.66728 0.0
C2464 C 0.76844 0.75246 0.7469 0.0
C2465 C 0.77203 0.75108 0.64224 0.0
C2466 C 0.74449 0.76543 0.84707 0.0
C2467 C 0.7539 0.766 0.82517 0.0
C2468 C 0.76494 0.77654 0.74742 0.0
C2469 C 0.77623 0.75673 0.69432 0.0
C2470 C 0.77222 0.76127 0.72189 0.0
C2471 C 0.75208 0.76892 0.79591 0.0
C2472 C 0.76046 0.76728 0.77178 0.0
H2473 H 0.79183 0.73746 0.67205 0.0
H2474 H 0.78938 0.74925 0.71549 0.0
H2475 H 0.77378 0.78071 0.70404 0.0
H2476 H 0.72305 0.7733 0.80501 0.0
H2477 H 0.73928 0.77413 0.76702 0.0
C2478 C 0.25504 0.0345 0.67216 0.0
C2479 C 0.25375 0.02915 0.64353 0.0
C2480 C 0.2463 0.02565 0.69465 0.0
C2481 C 0.22728 0.98738 0.71343 0.0
H2482 H 0.2193 0.0015 0.78517 0.0
C2483 C 0.21212 0.9536 0.81792 0.0
C2484 C 0.22139 0.96103 0.8414 0.0
C2485 C 0.21116 0.9611 0.79382 0.0
C2486 C 0.22136 0.99737 0.7652 0.0
H2487 H 0.24132 0.01068 0.61552 0.0
H2488 H 0.2258 0.99526 0.65474 0.0
H2489 H 0.22604 0.01627 0.74092 0.0
H2490 H 0.23592 0.98218 0.85912 0.0
H2491 H 0.23427 0.99524 0.81707 0.0
H2492 H 0.22307 0.96871 0.73786 0.0
C2493 C 0.23388 0.00622 0.65995 0.0
C2494 C 0.22526 0.00583 0.73987 0.0
C2495 C 0.24271 0.01508 0.63741 0.0
C2496 C 0.22876 0.97613 0.84131 0.0
C2497 C 0.22775 0.98363 0.81727 0.0
C2498 C 0.22326 0.97889 0.73863 0.0
C2499 C 0.23595 0.01123 0.68906 0.0
C2500 C 0.22882 0.00117 0.71397 0.0
C2501 C 0.21937 0.97618 0.79279 0.0
C2502 C 0.22076 0.984 0.76506 0.0
H2503 H 0.26335 0.04533 0.67765 0.0
H2504 H 0.24835 0.0299 0.71674 0.0
H2505 H 0.23011 0.98347 0.69412 0.0
H2506 H 0.20617 0.94196 0.81739 0.0
H2507 H 0.20447 0.95509 0.77543 0.0
C2508 C 0.96526 0.21695 0.67999 0.0
C2509 C 0.96931 0.21916 0.65031 0.0
C2510 C 0.97474 0.21735 0.70139 0.0
C2511 C 0.01366 0.23372 0.71338 0.0
H2512 H 0.00117 0.2145 0.78851 0.0
C2513 C 0.05261 0.25087 0.81056 0.0
C2514 C 0.04742 0.25466 0.83532 0.0
C2515 C 0.04322 0.24261 0.78814 0.0
C2516 C 0.00482 0.21988 0.76758 0.0
H2517 H 0.9861 0.2224 0.61961 0.0
H2518 H 0.00256 0.22277 0.65697 0.0
H2519 H 0.98431 0.20667 0.74745 0.0
H2520 H 0.02816 0.25174 0.85706 0.0
H2521 H 0.01181 0.23728 0.81803 0.0
H2522 H 0.03405 0.24713 0.73368 0.0
C2523 C 0.99217 0.22111 0.66377 0.0
C2524 C 0.99517 0.21545 0.74407 0.0
C2525 C 0.9827 0.22082 0.64231 0.0
C2526 C 0.03252 0.24908 0.83821 0.0
C2527 C 0.02313 0.24072 0.8159 0.0
C2528 C 0.02333 0.23804 0.73677 0.0
C2529 C 0.98849 0.21985 0.69368 0.0
C2530 C -0.00068 0.22264 0.71695 0.0
C2531 C 0.02845 0.23784 0.79017 0.0
C2532 C 0.01889 0.23148 0.76437 0.0
H2533 H 0.955 0.21558 0.68697 0.0
H2534 H 0.97153 0.2165 0.72414 0.0
H2535 H 0.01724 0.23968 0.69305 0.0
H2536 H 0.06402 0.25492 0.80769 0.0
H2537 H 0.04759 0.2404 0.7687 0.0
C2538 C 0.26199 0.2153 0.17417 0.0
C2539 C 0.25972 0.21775 0.14492 0.0
C2540 C 0.25298 0.2151 0.19641 0.0
C2541 C 0.23062 0.23106 0.21235 0.0
H2542 H 0.22496 0.21094 0.28606 0.0
C2543 C 0.21386 0.24968 0.31473 0.0
C2544 C 0.22355 0.25276 0.33805 0.0
C2545 C 0.21338 0.24097 0.29147 0.0
C2546 C 0.22636 0.21656 0.26554 0.0
H2547 H 0.24552 0.22081 0.11578 0.0
H2548 H 0.22963 0.22032 0.1547 0.0
H2549 H 0.23282 0.20325 0.24289 0.0
H2550 H 0.23933 0.24802 0.35658 0.0
H2551 H 0.23853 0.23291 0.31606 0.0
H2552 H 0.22473 0.24472 0.23518 0.0
C2553 C 0.23857 0.21881 0.16046 0.0
C2554 C 0.23089 0.21219 0.24083 0.0
C2555 C 0.24764 0.21903 0.13814 0.0
C2556 C 0.23183 0.24596 0.33884 0.0
C2557 C 0.2313 0.2372 0.31566 0.0
C2558 C 0.22601 0.23536 0.23697 0.0
C2559 C 0.24142 0.2173 0.18997 0.0
C2560 C 0.23364 0.21977 0.21425 0.0
C2561 C 0.22249 0.23509 0.29119 0.0
C2562 C 0.22436 0.22851 0.26411 0.0
H2563 H 0.27114 0.21416 0.18018 0.0
H2564 H 0.25564 0.21408 0.21884 0.0
H2565 H 0.23277 0.23727 0.1924 0.0
H2566 H 0.20723 0.25464 0.31356 0.0
H2567 H 0.20634 0.23936 0.2731 0.0
C2568 C 0.78279 0.03596 0.16069 0.0
C2569 C 0.77253 0.02876 0.13853 0.0
C2570 C 0.78338 0.02849 0.18522 0.0
C2571 C 0.77014 0.99226 0.21735 0.0
H2572 H 0.76549 0.00978 0.28772 0.0
C2573 C 0.73744 0.95942 0.31598 0.0
C2574 C 0.74015 0.96562 0.34407 0.0
C2575 C 0.74577 0.96722 0.29206 0.0
C2576 C 0.76716 0.00483 0.26859 0.0
H2577 H 0.7558 0.00786 0.12347 0.0
H2578 H 0.75686 0.99484 0.16623 0.0
H2579 H 0.77261 0.02333 0.24236 0.0
H2580 H 0.75453 0.98448 0.36946 0.0
H2581 H 0.76933 0.99804 0.3277 0.0
H2582 H 0.76429 0.97358 0.24347 0.0
C2583 C 0.76442 0.00626 0.16469 0.0
C2584 C 0.77122 0.01262 0.24246 0.0
C2585 C 0.76375 0.01375 0.14023 0.0
C2586 C 0.75205 0.97945 0.34805 0.0
C2587 C 0.76048 0.98725 0.32406 0.0
C2588 C 0.76621 0.98449 0.2436 0.0
C2589 C 0.77383 0.01365 0.18797 0.0
C2590 C 0.77227 0.00626 0.21636 0.0
C2591 C 0.75712 0.98142 0.29559 0.0
C2592 C 0.76413 0.99049 0.26931 0.0
H2593 H 0.78982 0.04751 0.15996 0.0
H2594 H 0.79088 0.03442 0.20265 0.0
H2595 H 0.77105 0.98716 0.19763 0.0
H2596 H 0.72841 0.94875 0.3121 0.0
H2597 H 0.7427 0.96238 0.27053 0.0
C2598 C 0.02444 0.78332 0.35688 0.0
C2599 C 0.0381 0.7851 0.35109 0.0
C2600 C 0.01547 0.7825 0.33379 0.0
C2601 C 0.01436 0.78684 0.25251 0.0
H2602 H 0.97636 0.75336 0.25981 0.0
C2603 C 0.98248 0.75033 0.1565 0.0
C2604 C 0.96738 0.74312 0.15708 0.0
C2605 C 0.99047 0.7596 0.17926 0.0
C2606 C 0.98679 0.76295 0.2575 0.0
H2607 H 0.05347 0.78853 0.31669 0.0
H2608 H 0.03784 0.78682 0.27674 0.0
H2609 H 0.99172 0.76244 0.30264 0.0
H2610 H 0.94885 0.74094 0.1808 0.0
H2611 H 0.96283 0.75712 0.22053 0.0
H2612 H 0.00963 0.78673 0.20684 0.0
C2613 C 0.03401 0.78618 0.29895 0.0
C2614 C 0.99563 0.7682 0.28215 0.0
C2615 C 0.04296 0.78702 0.32195 0.0
C2616 C 0.96047 0.74621 0.17981 0.0
C2617 C 0.96847 0.75544 0.20264 0.0
C2618 C 0.00554 0.78153 0.22778 0.0
C2619 C 0.01999 0.78346 0.3045 0.0
C2620 C 0.00971 0.77989 0.27977 0.0
C2621 C 0.98353 0.76184 0.20312 0.0
C2622 C 0.99183 0.76923 0.22985 0.0
H2623 H 0.02042 0.78193 0.37911 0.0
H2624 H 0.00481 0.78063 0.33884 0.0
H2625 H 0.02505 0.79605 0.25003 0.0
H2626 H 0.98814 0.74827 0.13923 0.0
H2627 H 0.00206 0.76428 0.17906 0.0
loop_
_geom_bond_atom_site_label_1
_geom_bond_atom_site_label_2
_geom_bond_distance
_geom_bond_site_symmetry_2
_ccdc_geom_bond_type
C0 O1 1.160 . S
C0 O7 1.185 . S
O1 C0 1.160 . S
O2 Zn3 1.899 . S
O2 C10 1.284 . S
Zn3 O2 1.899 . S
Zn3 O4 2.032 . S
Zn3 O7 2.086 . S
Zn3 O12 1.977 . S
O4 Zn3 2.032 . S
O4 C8 1.278 . S
C5 O6 1.203 . S
C5 O12 1.267 . S
O6 C5 1.203 . S
O7 C0 1.185 . S
O7 Zn3 2.086 . S
C8 O4 1.278 . S
C8 O9 1.211 . S
O9 C8 1.211 . S
C10 O2 1.284 . S
C10 O11 1.273 . S
O11 C10 1.273 . S
O12 Zn3 1.977 . S
O12 C5 1.267 . S
C13 O14 1.160 . S
C13 O20 1.185 . S
O14 C13 1.160 . S
O15 Zn16 1.899 . S
O15 C23 1.284 . S
Zn16 O15 1.899 . S
Zn16 O17 2.032 . S
Zn16 O20 2.086 . S
Zn16 O25 1.977 . S
O17 Zn16 2.032 . S
O17 C21 1.278 . S
C18 O19 1.203 . S
C18 O25 1.267 . S
O19 C18 1.203 . S
O20 C13 1.185 . S
O20 Zn16 2.086 . S
C21 O17 1.278 . S
C21 O22 1.211 . S
O22 C21 1.211 . S
C23 O15 1.284 . S
C23 O24 1.273 . S
O24 C23 1.273 . S
O25 Zn16 1.977 . S
O25 C18 1.267 . S
C26 O27 1.160 . S
C26 O33 1.185 . S
O27 C26 1.160 . S
O28 Zn29 1.899 . S
O28 C36 1.284 . S
Zn29 O28 1.899 . S
Zn29 O30 2.032 . S
Zn29 O33 2.086 . S
Zn29 O38 1.977 . S
O30 Zn29 2.032 . S
O30 C34 1.278 . S
C31 O32 1.203 . S
C31 O38 1.267 . S
O32 C31 1.203 . S
O33 C26 1.185 . S
O33 Zn29 2.086 . S
C34 O30 1.278 . S
C34 O35 1.211 . S
O35 C34 1.211 . S
C36 O28 1.284 . S
C36 O37 1.273 . S
O37 C36 1.273 . S
O38 Zn29 1.977 . S
O38 C31 1.267 . S
C39 O40 1.160 . S
C39 O46 1.185 . S
O40 C39 1.160 . S
O41 Zn42 1.899 . S
O41 C49 1.284 . S
Zn42 O41 1.899 . S
Zn42 O43 2.032 . S
Zn42 O46 2.086 . S
Zn42 O51 1.977 . S
O43 Zn42 2.032 . S
O43 C47 1.278 . S
C44 O45 1.203 . S
C44 O51 1.267 . S
O45 C44 1.203 . S
O46 C39 1.185 . S
O46 Zn42 2.086 . S
C47 O43 1.278 . S
C47 O48 1.211 . S
O48 C47 1.211 . S
C49 O41 1.284 . S
C49 O50 1.273 . S
O50 C49 1.273 . S
O51 Zn42 1.977 . S
O51 C44 1.267 . S
C52 O53 1.160 . S
C52 O59 1.185 . S
O53 C52 1.160 . S
O54 Zn55 1.899 . S
O54 C62 1.284 . S
Zn55 O54 1.899 . S
Zn55 O56 2.032 . S
Zn55 O59 2.086 . S
Zn55 O64 1.977 . S
O56 Zn55 2.032 . S
O56 C60 1.278 . S
C57 O58 1.203 . S
C57 O64 1.267 . S
O58 C57 1.203 . S
O59 C52 1.185 . S
O59 Zn55 2.086 . S
C60 O56 1.278 . S
C60 O61 1.211 . S
O61 C60 1.211 . S
C62 O54 1.284 . S
C62 O63 1.273 . S
O63 C62 1.273 . S
O64 Zn55 1.977 . S
O64 C57 1.267 . S
C65 O66 1.160 . S
C65 O72 1.185 . S
O66 C65 1.160 . S
O67 Zn68 1.899 . S
O67 C75 1.284 . S
Zn68 O67 1.899 . S
Zn68 O69 2.032 . S
Zn68 O72 2.086 . S
Zn68 O77 1.977 . S
O69 Zn68 2.032 . S
O69 C73 1.278 . S
C70 O71 1.203 . S
C70 O77 1.267 . S
O71 C70 1.203 . S
O72 C65 1.185 . S
O72 Zn68 2.086 . S
C73 O69 1.278 . S
C73 O74 1.211 . S
O74 C73 1.211 . S
C75 O67 1.284 . S
C75 O76 1.273 . S
O76 C75 1.273 . S
O77 Zn68 1.977 . S
O77 C70 1.267 . S
C78 O79 1.160 . S
C78 O85 1.185 . S
O79 C78 1.160 . S
O80 Zn81 1.899 . S
O80 C88 1.284 . S
Zn81 O80 1.899 . S
Zn81 O82 2.032 . S
Zn81 O85 2.086 . S
Zn81 O90 1.977 . S
O82 Zn81 2.032 . S
O82 C86 1.278 . S
C83 O84 1.203 . S
C83 O90 1.267 . S
O84 C83 1.203 . S
O85 C78 1.185 . S
O85 Zn81 2.086 . S
C86 O82 1.278 . S
C86 O87 1.211 . S
O87 C86 1.211 . S
C88 O80 1.284 . S
C88 O89 1.273 . S
O89 C88 1.273 . S
O90 Zn81 1.977 . S
O90 C83 1.267 . S
C91 O92 1.160 . S
C91 O98 1.185 . S
O92 C91 1.160 . S
O93 Zn94 1.899 . S
O93 C101 1.284 . S
Zn94 O93 1.899 . S
Zn94 O95 2.032 . S
Zn94 O98 2.086 . S
Zn94 O103 1.977 . S
O95 Zn94 2.032 . S
O95 C99 1.278 . S
C96 O97 1.203 . S
C96 O103 1.267 . S
O97 C96 1.203 . S
O98 C91 1.185 . S
O98 Zn94 2.086 . S
C99 O95 1.278 . S
C99 O100 1.211 . S
O100 C99 1.211 . S
C101 O93 1.284 . S
C101 O102 1.273 . S
O102 C101 1.273 . S
O103 Zn94 1.977 . S
O103 C96 1.267 . S
C104 O105 1.160 . S
C104 O111 1.185 . S
O105 C104 1.160 . S
O106 Zn107 1.899 . S
O106 C114 1.284 . S
Zn107 O106 1.899 . S
Zn107 O108 2.032 . S
Zn107 O111 2.086 . S
Zn107 O116 1.977 . S
O108 Zn107 2.032 . S
O108 C112 1.278 . S
C109 O110 1.203 . S
C109 O116 1.267 . S
O110 C109 1.203 . S
O111 C104 1.185 . S
O111 Zn107 2.086 . S
C112 O108 1.278 . S
C112 O113 1.211 . S
O113 C112 1.211 . S
C114 O106 1.284 . S
C114 O115 1.273 . S
O115 C114 1.273 . S
O116 Zn107 1.977 . S
O116 C109 1.267 . S
C117 O118 1.160 . S
C117 O124 1.185 . S
O118 C117 1.160 . S
O119 Zn120 1.899 . S
O119 C127 1.284 . S
Zn120 O119 1.899 . S
Zn120 O121 2.032 . S
Zn120 O124 2.086 . S
Zn120 O129 1.977 . S
O121 Zn120 2.032 . S
O121 C125 1.278 . S
C122 O123 1.203 . S
C122 O129 1.267 . S
O123 C122 1.203 . S
O124 C117 1.185 . S
O124 Zn120 2.086 . S
C125 O121 1.278 . S
C125 O126 1.211 . S
O126 C125 1.211 . S
C127 O119 1.284 . S
C127 O128 1.273 . S
O128 C127 1.273 . S
O129 Zn120 1.977 . S
O129 C122 1.267 . S
C130 O131 1.160 . S
C130 O137 1.185 . S
O131 C130 1.160 . S
O132 Zn133 1.899 . S
O132 C140 1.284 . S
Zn133 O132 1.899 . S
Zn133 O134 2.032 . S
Zn133 O137 2.086 . S
Zn133 O142 1.977 . S
O134 Zn133 2.032 . S
O134 C138 1.278 . S
C135 O136 1.203 . S
C135 O142 1.267 . S
O136 C135 1.203 . S
O137 C130 1.185 . S
O137 Zn133 2.086 . S
C138 O134 1.278 . S
C138 O139 1.211 . S
O139 C138 1.211 . S
C140 O132 1.284 . S
C140 O141 1.273 . S
O141 C140 1.273 . S
O142 Zn133 1.977 . S
O142 C135 1.267 . S
C143 O144 1.160 . S
C143 O150 1.185 . S
O144 C143 1.160 . S
O145 Zn146 1.899 . S
O145 C153 1.284 . S
Zn146 O145 1.899 . S
Zn146 O147 2.032 . S
Zn146 O150 2.086 . S
Zn146 O155 1.977 . S
O147 Zn146 2.032 . S
O147 C151 1.278 . S
C148 O149 1.203 . S
C148 O155 1.267 . S
O149 C148 1.203 . S
O150 C143 1.185 . S
O150 Zn146 2.086 . S
C151 O147 1.278 . S
C151 O152 1.211 . S
O152 C151 1.211 . S
C153 O145 1.284 . S
C153 O154 1.273 . S
O154 C153 1.273 . S
O155 Zn146 1.977 . S
O155 C148 1.267 . S
C156 O157 1.160 . S
C156 O163 1.185 . S
O157 C156 1.160 . S
O158 Zn159 1.899 . S
O158 C166 1.284 . S
Zn159 O158 1.899 . S
Zn159 O160 2.032 . S
Zn159 O163 2.086 . S
Zn159 O168 1.977 1_455 S
O160 Zn159 2.032 . S
O160 C164 1.278 . S
C161 O162 1.203 1_655 S
C161 O168 1.267 . S
O162 C161 1.203 1_455 S
O163 C156 1.185 . S
O163 Zn159 2.086 . S
C164 O160 1.278 . S
C164 O165 1.211 . S
O165 C164 1.211 . S
C166 O158 1.284 . S
C166 O167 1.273 . S
O167 C166 1.273 . S
O168 Zn159 1.977 1_655 S
O168 C161 1.267 . S
C169 O170 1.160 . S
C169 O176 1.185 . S
O170 C169 1.160 . S
O171 Zn172 1.899 . S
O171 C179 1.284 . S
Zn172 O171 1.899 . S
Zn172 O173 2.032 . S
Zn172 O176 2.086 . S
Zn172 O181 1.977 . S
O173 Zn172 2.032 . S
O173 C177 1.278 . S
C174 O175 1.203 . S
C174 O181 1.267 . S
O175 C174 1.203 . S
O176 C169 1.185 . S
O176 Zn172 2.086 . S
C177 O173 1.278 . S
C177 O178 1.211 . S
O178 C177 1.211 . S
C179 O171 1.284 . S
C179 O180 1.273 . S
O180 C179 1.273 . S
O181 Zn172 1.977 . S
O181 C174 1.267 . S
C182 O183 1.160 . S
C182 O189 1.185 . S
O183 C182 1.160 . S
O184 Zn185 1.899 . S
O184 C192 1.284 . S
Zn185 O184 1.899 . S
Zn185 O186 2.032 . S
Zn185 O189 2.086 . S
Zn185 O194 1.977 1_565 S
O186 Zn185 2.032 . S
O186 C190 1.278 . S
C187 O188 1.203 1_545 S
C187 O194 1.267 . S
O188 C187 1.203 1_565 S
O189 C182 1.185 . S
O189 Zn185 2.086 . S
C190 O186 1.278 . S
C190 O191 1.211 . S
O191 C190 1.211 . S
C192 O184 1.284 . S
C192 O193 1.273 . S
O193 C192 1.273 . S
O194 Zn185 1.977 1_545 S
O194 C187 1.267 . S
C195 O196 1.160 . S
C195 O202 1.185 . S
O196 C195 1.160 . S
O197 Zn198 1.899 . S
O197 C205 1.284 . S
Zn198 O197 1.899 . S
Zn198 O199 2.032 . S
Zn198 O202 2.086 . S
Zn198 O207 1.977 . S
O199 Zn198 2.032 . S
O199 C203 1.278 . S
C200 O201 1.203 . S
C200 O207 1.267 . S
O201 C200 1.203 . S
O202 C195 1.185 . S
O202 Zn198 2.086 . S
C203 O199 1.278 . S
C203 O204 1.211 . S
O204 C203 1.211 . S
C205 O197 1.284 . S
C205 O206 1.273 . S
O206 C205 1.273 . S
O207 Zn198 1.977 . S
O207 C200 1.267 . S
C208 O209 1.160 . S
C208 O215 1.185 . S
O209 C208 1.160 . S
O210 Zn211 1.899 . S
O210 C218 1.284 . S
Zn211 O210 1.899 . S
Zn211 O212 2.032 . S
Zn211 O215 2.086 . S
Zn211 O220 1.977 . S
O212 Zn211 2.032 . S
O212 C216 1.278 . S
C213 O214 1.203 . S
C213 O220 1.267 . S
O214 C213 1.203 . S
O215 C208 1.185 . S
O215 Zn211 2.086 . S
C216 O212 1.278 . S
C216 O217 1.211 . S
O217 C216 1.211 . S
C218 O210 1.284 . S
C218 O219 1.273 . S
O219 C218 1.273 . S
O220 Zn211 1.977 . S
O220 C213 1.267 . S
C221 O222 1.160 . S
C221 O228 1.185 . S
O222 C221 1.160 . S
O223 Zn224 1.899 . S
O223 C231 1.284 . S
Zn224 O223 1.899 . S
Zn224 O225 2.032 . S
Zn224 O228 2.086 . S
Zn224 O233 1.977 . S
O225 Zn224 2.032 . S
O225 C229 1.278 . S
C226 O227 1.203 . S
C226 O233 1.267 . S
O227 C226 1.203 . S
O228 C221 1.185 . S
O228 Zn224 2.086 . S
C229 O225 1.278 . S
C229 O230 1.211 . S
O230 C229 1.211 . S
C231 O223 1.284 . S
C231 O232 1.273 . S
O232 C231 1.273 . S
O233 Zn224 1.977 . S
O233 C226 1.267 . S
C234 O235 1.160 . S
C234 O241 1.185 . S
O235 C234 1.160 . S
O236 Zn237 1.899 . S
O236 C244 1.284 . S
Zn237 O236 1.899 . S
Zn237 O238 2.032 . S
Zn237 O241 2.086 . S
Zn237 O246 1.977 . S
O238 Zn237 2.032 . S
O238 C242 1.278 . S
C239 O240 1.203 . S
C239 O246 1.267 . S
O240 C239 1.203 . S
O241 C234 1.185 . S
O241 Zn237 2.086 . S
C242 O238 1.278 . S
C242 O243 1.211 . S
O243 C242 1.211 . S
C244 O236 1.284 . S
C244 O245 1.273 . S
O245 C244 1.273 . S
O246 Zn237 1.977 . S
O246 C239 1.267 . S
C247 O248 1.160 . S
C247 O254 1.185 . S
O248 C247 1.160 . S
O249 Zn250 1.899 . S
O249 C257 1.284 . S
Zn250 O249 1.899 . S
Zn250 O251 2.032 . S
Zn250 O254 2.086 . S
Zn250 O259 1.977 . S
O251 Zn250 2.032 . S
O251 C255 1.278 . S
C252 O253 1.203 . S
C252 O259 1.267 . S
O253 C252 1.203 . S
O254 C247 1.185 . S
O254 Zn250 2.086 . S
C255 O251 1.278 . S
C255 O256 1.211 . S
O256 C255 1.211 . S
C257 O249 1.284 . S
C257 O258 1.273 . S
O258 C257 1.273 . S
O259 Zn250 1.977 . S
O259 C252 1.267 . S
C260 O261 1.160 . S
C260 O267 1.185 . S
O261 C260 1.160 . S
O262 Zn263 1.899 . S
O262 C270 1.284 . S
Zn263 O262 1.899 . S
Zn263 O264 2.032 . S
Zn263 O267 2.086 . S
Zn263 O272 1.977 . S
O264 Zn263 2.032 . S
O264 C268 1.278 . S
C265 O266 1.203 . S
C265 O272 1.267 . S
O266 C265 1.203 . S
O267 C260 1.185 . S
O267 Zn263 2.086 . S
C268 O264 1.278 . S
C268 O269 1.211 . S
O269 C268 1.211 . S
C270 O262 1.284 . S
C270 O271 1.273 . S
O271 C270 1.273 . S
O272 Zn263 1.977 . S
O272 C265 1.267 . S
C273 O274 1.160 . S
C273 O280 1.185 . S
O274 C273 1.160 . S
O275 Zn276 1.899 . S
O275 C283 1.284 . S
Zn276 O275 1.899 . S
Zn276 O277 2.032 . S
Zn276 O280 2.086 . S
Zn276 O285 1.977 1_565 S
O277 Zn276 2.032 . S
O277 C281 1.278 . S
C278 O279 1.203 1_545 S
C278 O285 1.267 . S
O279 C278 1.203 1_565 S
O280 C273 1.185 . S
O280 Zn276 2.086 . S
C281 O277 1.278 . S
C281 O282 1.211 . S
O282 C281 1.211 . S
C283 O275 1.284 . S
C283 O284 1.273 . S
O284 C283 1.273 . S
O285 Zn276 1.977 1_545 S
O285 C278 1.267 . S
C286 O287 1.160 . S
C286 O293 1.185 . S
O287 C286 1.160 . S
O288 Zn289 1.899 . S
O288 C296 1.284 . S
Zn289 O288 1.899 . S
Zn289 O290 2.032 . S
Zn289 O293 2.086 . S
Zn289 O298 1.977 1_455 S
O290 Zn289 2.032 . S
O290 C294 1.278 . S
C291 O292 1.203 1_655 S
C291 O298 1.267 . S
O292 C291 1.203 1_455 S
O293 C286 1.185 . S
O293 Zn289 2.086 . S
C294 O290 1.278 . S
C294 O295 1.211 . S
O295 C294 1.211 . S
C296 O288 1.284 . S
C296 O297 1.273 . S
O297 C296 1.273 . S
O298 Zn289 1.977 1_655 S
O298 C291 1.267 . S
C299 O300 1.160 . S
C299 O306 1.185 . S
O300 C299 1.160 . S
O301 Zn302 1.899 . S
O301 C309 1.284 . S
Zn302 O301 1.899 . S
Zn302 O303 2.032 . S
Zn302 O306 2.086 . S
Zn302 O311 1.977 . S
O303 Zn302 2.032 . S
O303 C307 1.278 . S
C304 O305 1.203 . S
C304 O311 1.267 . S
O305 C304 1.203 . S
O306 C299 1.185 . S
O306 Zn302 2.086 . S
C307 O303 1.278 . S
C307 O308 1.211 . S
O308 C307 1.211 . S
C309 O301 1.284 . S
C309 O310 1.273 . S
O310 C309 1.273 . S
O311 Zn302 1.977 . S
O311 C304 1.267 . S
C312 O313 1.160 . S
C312 O319 1.185 . S
O313 C312 1.160 . S
O314 Zn315 1.899 . S
O314 C322 1.284 . S
Zn315 O314 1.899 . S
Zn315 O316 2.032 . S
Zn315 O319 2.086 . S
Zn315 O324 1.977 . S
O316 Zn315 2.032 . S
O316 C320 1.278 . S
C317 O318 1.203 . S
C317 O324 1.267 . S
O318 C317 1.203 . S
O319 C312 1.185 . S
O319 Zn315 2.086 . S
C320 O316 1.278 . S
C320 O321 1.211 . S
O321 C320 1.211 . S
C322 O314 1.284 . S
C322 O323 1.273 . S
O323 C322 1.273 . S
O324 Zn315 1.977 . S
O324 C317 1.267 . S
C325 O326 1.160 . S
C325 O332 1.185 . S
O326 C325 1.160 . S
O327 Zn328 1.899 . S
O327 C335 1.284 . S
Zn328 O327 1.899 . S
Zn328 O329 2.032 . S
Zn328 O332 2.086 . S
Zn328 O337 1.977 . S
O329 Zn328 2.032 . S
O329 C333 1.278 . S
C330 O331 1.203 . S
C330 O337 1.267 . S
O331 C330 1.203 . S
O332 C325 1.185 . S
O332 Zn328 2.086 . S
C333 O329 1.278 . S
C333 O334 1.211 . S
O334 C333 1.211 . S
C335 O327 1.284 . S
C335 O336 1.273 . S
O336 C335 1.273 . S
O337 Zn328 1.977 . S
O337 C330 1.267 . S
C338 O339 1.160 . S
C338 O345 1.185 . S
O339 C338 1.160 . S
O340 Zn341 1.899 . S
O340 C348 1.284 . S
Zn341 O340 1.899 . S
Zn341 O342 2.032 . S
Zn341 O345 2.086 . S
Zn341 O350 1.977 . S
O342 Zn341 2.032 . S
O342 C346 1.278 . S
C343 O344 1.203 . S
C343 O350 1.267 . S
O344 C343 1.203 . S
O345 C338 1.185 . S
O345 Zn341 2.086 . S
C346 O342 1.278 . S
C346 O347 1.211 . S
O347 C346 1.211 . S
C348 O340 1.284 . S
C348 O349 1.273 . S
O349 C348 1.273 . S
O350 Zn341 1.977 . S
O350 C343 1.267 . S
C351 O352 1.160 . S
C351 O358 1.185 . S
O352 C351 1.160 . S
O353 Zn354 1.899 . S
O353 C361 1.284 . S
Zn354 O353 1.899 . S
Zn354 O355 2.032 . S
Zn354 O358 2.086 . S
Zn354 O363 1.977 1_545 S
O355 Zn354 2.032 . S
O355 C359 1.278 . S
C356 O357 1.203 1_565 S
C356 O363 1.267 . S
O357 C356 1.203 1_545 S
O358 C351 1.185 . S
O358 Zn354 2.086 . S
C359 O355 1.278 . S
C359 O360 1.211 . S
O360 C359 1.211 . S
C361 O353 1.284 . S
C361 O362 1.273 . S
O362 C361 1.273 . S
O363 Zn354 1.977 1_565 S
O363 C356 1.267 . S
C364 O365 1.160 . S
C364 O371 1.185 . S
O365 C364 1.160 . S
O366 Zn367 1.899 . S
O366 C374 1.284 . S
Zn367 O366 1.899 . S
Zn367 O368 2.032 . S
Zn367 O371 2.086 . S
Zn367 O376 1.977 1_655 S
O368 Zn367 2.032 . S
O368 C372 1.278 . S
C369 O370 1.203 1_455 S
C369 O376 1.267 . S
O370 C369 1.203 1_655 S
O371 C364 1.185 . S
O371 Zn367 2.086 . S
C372 O368 1.278 . S
C372 O373 1.211 . S
O373 C372 1.211 . S
C374 O366 1.284 . S
C374 O375 1.273 . S
O375 C374 1.273 . S
O376 Zn367 1.977 1_455 S
O376 C369 1.267 . S
C377 O378 1.160 . S
C377 O384 1.185 . S
O378 C377 1.160 . S
O379 Zn380 1.899 . S
O379 C387 1.284 . S
Zn380 O379 1.899 . S
Zn380 O381 2.032 . S
Zn380 O384 2.086 . S
Zn380 O389 1.977 . S
O381 Zn380 2.032 . S
O381 C385 1.278 . S
C382 O383 1.203 . S
C382 O389 1.267 . S
O383 C382 1.203 . S
O384 C377 1.185 . S
O384 Zn380 2.086 . S
C385 O381 1.278 . S
C385 O386 1.211 . S
O386 C385 1.211 . S
C387 O379 1.284 . S
C387 O388 1.273 . S
O388 C387 1.273 . S
O389 Zn380 1.977 . S
O389 C382 1.267 . S
C390 O391 1.160 . S
C390 O397 1.185 . S
O391 C390 1.160 . S
O392 Zn393 1.899 . S
O392 C400 1.284 . S
Zn393 O392 1.899 . S
Zn393 O394 2.032 . S
Zn393 O397 2.086 . S
Zn393 O402 1.977 1_655 S
O394 Zn393 2.032 . S
O394 C398 1.278 . S
C395 O396 1.203 1_455 S
C395 O402 1.267 . S
O396 C395 1.203 1_655 S
O397 C390 1.185 . S
O397 Zn393 2.086 . S
C398 O394 1.278 . S
C398 O399 1.211 . S
O399 C398 1.211 . S
C400 O392 1.284 . S
C400 O401 1.273 . S
O401 C400 1.273 . S
O402 Zn393 1.977 1_455 S
O402 C395 1.267 . S
C403 O404 1.160 . S
C403 O410 1.185 . S
O404 C403 1.160 . S
O405 Zn406 1.899 . S
O405 C413 1.284 . S
Zn406 O405 1.899 . S
Zn406 O407 2.032 . S
Zn406 O410 2.086 . S
Zn406 O415 1.977 . S
O407 Zn406 2.032 . S
O407 C411 1.278 . S
C408 O409 1.203 . S
C408 O415 1.267 . S
O409 C408 1.203 . S
O410 C403 1.185 . S
O410 Zn406 2.086 . S
C411 O407 1.278 . S
C411 O412 1.211 . S
O412 C411 1.211 . S
C413 O405 1.284 . S
C413 O414 1.273 . S
O414 C413 1.273 . S
O415 Zn406 1.977 . S
O415 C408 1.267 . S
C416 O417 1.160 . S
C416 O423 1.185 . S
O417 C416 1.160 . S
O418 Zn419 1.899 . S
O418 C426 1.284 . S
Zn419 O418 1.899 . S
Zn419 O420 2.032 . S
Zn419 O423 2.086 . S
Zn419 O428 1.977 1_545 S
O420 Zn419 2.032 . S
O420 C424 1.278 . S
C421 O422 1.203 1_565 S
C421 O428 1.267 . S
O422 C421 1.203 1_545 S
O423 C416 1.185 . S
O423 Zn419 2.086 . S
C424 O420 1.278 . S
C424 O425 1.211 . S
O425 C424 1.211 . S
C426 O418 1.284 . S
C426 O427 1.273 . S
O427 C426 1.273 . S
O428 Zn419 1.977 1_565 S
O428 C421 1.267 . S
C429 O430 1.160 . S
C429 O436 1.185 . S
O430 C429 1.160 . S
O431 Zn432 1.899 . S
O431 C439 1.284 . S
Zn432 O431 1.899 . S
Zn432 O433 2.032 . S
Zn432 O436 2.086 . S
Zn432 O441 1.977 . S
O433 Zn432 2.032 . S
O433 C437 1.278 . S
C434 O435 1.203 . S
C434 O441 1.267 . S
O435 C434 1.203 . S
O436 C429 1.185 . S
O436 Zn432 2.086 . S
C437 O433 1.278 . S
C437 O438 1.211 . S
O438 C437 1.211 . S
C439 O431 1.284 . S
C439 O440 1.273 . S
O440 C439 1.273 . S
O441 Zn432 1.977 . S
O441 C434 1.267 . S
C442 O443 1.160 . S
C442 O449 1.185 . S
O443 C442 1.160 . S
O444 Zn445 1.899 . S
O444 C452 1.284 . S
Zn445 O444 1.899 . S
Zn445 O446 2.032 . S
Zn445 O449 2.086 . S
Zn445 O454 1.977 . S
O446 Zn445 2.032 . S
O446 C450 1.278 . S
C447 O448 1.203 . S
C447 O454 1.267 . S
O448 C447 1.203 . S
O449 C442 1.185 . S
O449 Zn445 2.086 . S
C450 O446 1.278 . S
C450 O451 1.211 . S
O451 C450 1.211 . S
C452 O444 1.284 . S
C452 O453 1.273 . S
O453 C452 1.273 . S
O454 Zn445 1.977 . S
O454 C447 1.267 . S
C455 O456 1.160 . S
C455 O462 1.185 . S
O456 C455 1.160 . S
O457 Zn458 1.899 . S
O457 C465 1.284 . S
Zn458 O457 1.899 . S
Zn458 O459 2.032 . S
Zn458 O462 2.086 . S
Zn458 O467 1.977 . S
O459 Zn458 2.032 . S
O459 C463 1.278 . S
C460 O461 1.203 . S
C460 O467 1.267 . S
O461 C460 1.203 . S
O462 C455 1.185 . S
O462 Zn458 2.086 . S
C463 O459 1.278 . S
C463 O464 1.211 . S
O464 C463 1.211 . S
C465 O457 1.284 . S
C465 O466 1.273 . S
O466 C465 1.273 . S
O467 Zn458 1.977 . S
O467 C460 1.267 . S
C468 C469 1.349 . S
C468 C470 1.327 . S
C468 H493 0.950 . S
C469 C468 1.349 . S
C469 C485 1.349 . S
C470 C468 1.327 . S
C470 C489 1.429 . S
C470 H494 0.950 . S
C471 C488 1.574 1_565 S
C471 C490 1.368 . S
C471 H495 0.949 . S
H472 C476 0.949 . S
C473 C474 1.349 . S
C473 C475 1.327 . S
C473 H496 0.950 . S
C474 C473 1.349 . S
C474 C486 1.349 . S
C475 C473 1.327 . S
C475 C491 1.429 . S
C475 H497 0.950 . S
C476 H472 0.949 . S
C476 C484 1.574 1_545 S
C476 C492 1.368 . S
H477 C485 0.950 . S
H478 C483 0.950 . S
H479 C484 0.949 . S
H480 C486 0.950 . S
H481 C487 0.950 . S
H482 C488 0.949 . S
C483 H478 0.950 . S
C483 C485 1.327 . S
C483 C489 1.429 . S
C484 C476 1.574 1_565 S
C484 H479 0.949 . S
C484 C490 1.368 . S
C485 C469 1.349 . S
C485 H477 0.950 . S
C485 C483 1.327 . S
C486 C474 1.349 . S
C486 H480 0.950 . S
C486 C487 1.327 . S
C487 H481 0.950 . S
C487 C486 1.327 . S
C487 C491 1.429 . S
C488 C471 1.574 1_545 S
C488 H482 0.949 . S
C488 C492 1.368 . S
C489 C470 1.429 . S
C489 C483 1.429 . S
C489 C490 1.523 . S
C490 C471 1.368 . S
C490 C484 1.368 . S
C490 C489 1.523 . S
C491 C475 1.429 . S
C491 C487 1.429 . S
C491 C492 1.523 . S
C492 C476 1.368 . S
C492 C488 1.368 . S
C492 C491 1.523 . S
H493 C468 0.950 . S
H494 C470 0.950 . S
H495 C471 0.949 . S
H496 C473 0.950 . S
H497 C475 0.950 . S
C498 C499 1.349 . S
C498 C500 1.327 . S
C498 H523 0.950 . S
C499 C498 1.349 . S
C499 C515 1.349 . S
C500 C498 1.327 . S
C500 C519 1.429 . S
C500 H524 0.950 . S
C501 C518 1.574 1_455 S
C501 C520 1.368 . S
C501 H525 0.949 . S
H502 C506 0.949 . S
C503 C504 1.349 . S
C503 C505 1.327 . S
C503 H526 0.950 . S
C504 C503 1.349 . S
C504 C516 1.349 . S
C505 C503 1.327 . S
C505 C521 1.429 . S
C505 H527 0.950 . S
C506 H502 0.949 . S
C506 C514 1.574 1_655 S
C506 C522 1.368 . S
H507 C515 0.950 . S
H508 C513 0.950 . S
H509 C514 0.949 . S
H510 C516 0.950 . S
H511 C517 0.950 . S
H512 C518 0.949 . S
C513 H508 0.950 . S
C513 C515 1.327 . S
C513 C519 1.429 . S
C514 C506 1.574 1_455 S
C514 H509 0.949 . S
C514 C520 1.368 . S
C515 C499 1.349 . S
C515 H507 0.950 . S
C515 C513 1.327 . S
C516 C504 1.349 . S
C516 H510 0.950 . S
C516 C517 1.327 . S
C517 H511 0.950 . S
C517 C516 1.327 . S
C517 C521 1.429 . S
C518 C501 1.574 1_655 S
C518 H512 0.949 . S
C518 C522 1.368 . S
C519 C500 1.429 . S
C519 C513 1.429 . S
C519 C520 1.523 . S
C520 C501 1.368 . S
C520 C514 1.368 . S
C520 C519 1.523 . S
C521 C505 1.429 . S
C521 C517 1.429 . S
C521 C522 1.523 . S
C522 C506 1.368 . S
C522 C518 1.368 . S
C522 C521 1.523 . S
H523 C498 0.950 . S
H524 C500 0.950 . S
H525 C501 0.949 . S
H526 C503 0.950 . S
H527 C505 0.950 . S
C528 C529 1.349 . S
C528 C530 1.327 . S
C528 H553 0.950 . S
C529 C528 1.349 . S
C529 C545 1.349 . S
C530 C528 1.327 . S
C530 C549 1.429 . S
C530 H554 0.950 . S
C531 C548 1.574 . S
C531 C550 1.368 . S
C531 H555 0.949 . S
H532 C536 0.949 . S
C533 C534 1.349 . S
C533 C535 1.327 . S
C533 H556 0.950 . S
C534 C533 1.349 . S
C534 C546 1.349 . S
C535 C533 1.327 . S
C535 C551 1.429 . S
C535 H557 0.950 . S
C536 H532 0.949 . S
C536 C544 1.574 . S
C536 C552 1.368 . S
H537 C545 0.950 . S
H538 C543 0.950 . S
H539 C544 0.949 . S
H540 C546 0.950 . S
H541 C547 0.950 . S
H542 C548 0.949 . S
C543 H538 0.950 . S
C543 C545 1.327 . S
C543 C549 1.429 . S
C544 C536 1.574 . S
C544 H539 0.949 . S
C544 C550 1.368 . S
C545 C529 1.349 . S
C545 H537 0.950 . S
C545 C543 1.327 . S
C546 C534 1.349 . S
C546 H540 0.950 . S
C546 C547 1.327 . S
C547 H541 0.950 . S
C547 C546 1.327 . S
C547 C551 1.429 . S
C548 C531 1.574 . S
C548 H542 0.949 . S
C548 C552 1.368 . S
C549 C530 1.429 . S
C549 C543 1.429 . S
C549 C550 1.523 . S
C550 C531 1.368 . S
C550 C544 1.368 . S
C550 C549 1.523 . S
C551 C535 1.429 . S
C551 C547 1.429 . S
C551 C552 1.523 . S
C552 C536 1.368 . S
C552 C548 1.368 . S
C552 C551 1.523 . S
H553 C528 0.950 . S
H554 C530 0.950 . S
H555 C531 0.949 . S
H556 C533 0.950 . S
H557 C535 0.950 . S
C558 C559 1.349 . S
C558 C560 1.327 . S
C558 H583 0.950 . S
C559 C558 1.349 . S
C559 C575 1.349 . S
C560 C558 1.327 . S
C560 C579 1.429 . S
C560 H584 0.950 . S
C561 C578 1.574 1_565 S
C561 C580 1.368 . S
C561 H585 0.949 . S
H562 C566 0.949 . S
C563 C564 1.349 . S
C563 C565 1.327 . S
C563 H586 0.950 . S
C564 C563 1.349 . S
C564 C576 1.349 . S
C565 C563 1.327 . S
C565 C581 1.429 . S
C565 H587 0.950 . S
C566 H562 0.949 . S
C566 C574 1.574 1_545 S
C566 C582 1.368 . S
H567 C575 0.950 . S
H568 C573 0.950 . S
H569 C574 0.949 . S
H570 C576 0.950 . S
H571 C577 0.950 . S
H572 C578 0.949 . S
C573 H568 0.950 . S
C573 C575 1.327 . S
C573 C579 1.429 . S
C574 C566 1.574 1_565 S
C574 H569 0.949 . S
C574 C580 1.368 . S
C575 C559 1.349 . S
C575 H567 0.950 . S
C575 C573 1.327 . S
C576 C564 1.349 . S
C576 H570 0.950 . S
C576 C577 1.327 . S
C577 H571 0.950 . S
C577 C576 1.327 . S
C577 C581 1.429 . S
C578 C561 1.574 1_545 S
C578 H572 0.949 . S
C578 C582 1.368 . S
C579 C560 1.429 . S
C579 C573 1.429 . S
C579 C580 1.523 . S
C580 C561 1.368 . S
C580 C574 1.368 . S
C580 C579 1.523 . S
C581 C565 1.429 . S
C581 C577 1.429 . S
C581 C582 1.523 . S
C582 C566 1.368 . S
C582 C578 1.368 . S
C582 C581 1.523 . S
H583 C558 0.950 . S
H584 C560 0.950 . S
H585 C561 0.949 . S
H586 C563 0.950 . S
H587 C565 0.950 . S
C588 C589 1.349 . S
C588 C590 1.327 . S
C588 H613 0.950 . S
C589 C588 1.349 . S
C589 C605 1.349 . S
C590 C588 1.327 . S
C590 C609 1.429 . S
C590 H614 0.950 . S
C591 C608 1.574 1_455 S
C591 C610 1.368 . S
C591 H615 0.949 . S
H592 C596 0.949 . S
C593 C594 1.349 . S
C593 C595 1.327 . S
C593 H616 0.950 . S
C594 C593 1.349 . S
C594 C606 1.349 . S
C595 C593 1.327 . S
C595 C611 1.429 . S
C595 H617 0.950 . S
C596 H592 0.949 . S
C596 C604 1.574 1_655 S
C596 C612 1.368 . S
H597 C605 0.950 . S
H598 C603 0.950 . S
H599 C604 0.949 . S
H600 C606 0.950 . S
H601 C607 0.950 . S
H602 C608 0.949 . S
C603 H598 0.950 . S
C603 C605 1.327 . S
C603 C609 1.429 . S
C604 C596 1.574 1_455 S
C604 H599 0.949 . S
C604 C610 1.368 . S
C605 C589 1.349 . S
C605 H597 0.950 . S
C605 C603 1.327 . S
C606 C594 1.349 . S
C606 H600 0.950 . S
C606 C607 1.327 . S
C607 H601 0.950 . S
C607 C606 1.327 . S
C607 C611 1.429 . S
C608 C591 1.574 1_655 S
C608 H602 0.949 . S
C608 C612 1.368 . S
C609 C590 1.429 . S
C609 C603 1.429 . S
C609 C610 1.523 . S
C610 C591 1.368 . S
C610 C604 1.368 . S
C610 C609 1.523 . S
C611 C595 1.429 . S
C611 C607 1.429 . S
C611 C612 1.523 . S
C612 C596 1.368 . S
C612 C608 1.368 . S
C612 C611 1.523 . S
H613 C588 0.950 . S
H614 C590 0.950 . S
H615 C591 0.949 . S
H616 C593 0.950 . S
H617 C595 0.950 . S
C618 C619 1.349 . S
C618 C620 1.327 . S
C618 H643 0.950 . S
C619 C618 1.349 . S
C619 C635 1.349 . S
C620 C618 1.327 . S
C620 C639 1.429 . S
C620 H644 0.950 . S
C621 C638 1.574 . S
C621 C640 1.368 . S
C621 H645 0.949 . S
H622 C626 0.949 . S
C623 C624 1.349 . S
C623 C625 1.327 . S
C623 H646 0.950 . S
C624 C623 1.349 . S
C624 C636 1.349 . S
C625 C623 1.327 . S
C625 C641 1.429 . S
C625 H647 0.950 . S
C626 H622 0.949 . S
C626 C634 1.574 . S
C626 C642 1.368 . S
H627 C635 0.950 . S
H628 C633 0.950 . S
H629 C634 0.949 . S
H630 C636 0.950 . S
H631 C637 0.950 . S
H632 C638 0.949 . S
C633 H628 0.950 . S
C633 C635 1.327 . S
C633 C639 1.429 . S
C634 C626 1.574 . S
C634 H629 0.949 . S
C634 C640 1.368 . S
C635 C619 1.349 . S
C635 H627 0.950 . S
C635 C633 1.327 . S
C636 C624 1.349 . S
C636 H630 0.950 . S
C636 C637 1.327 . S
C637 H631 0.950 . S
C637 C636 1.327 . S
C637 C641 1.429 . S
C638 C621 1.574 . S
C638 H632 0.949 . S
C638 C642 1.368 . S
C639 C620 1.429 . S
C639 C633 1.429 . S
C639 C640 1.523 . S
C640 C621 1.368 . S
C640 C634 1.368 . S
C640 C639 1.523 . S
C641 C625 1.429 . S
C641 C637 1.429 . S
C641 C642 1.523 . S
C642 C626 1.368 . S
C642 C638 1.368 . S
C642 C641 1.523 . S
H643 C618 0.950 . S
H644 C620 0.950 . S
H645 C621 0.949 . S
H646 C623 0.950 . S
H647 C625 0.950 . S
C648 C649 1.349 . S
C648 C650 1.327 . S
C648 H673 0.950 . S
C649 C648 1.349 . S
C649 C665 1.349 . S
C650 C648 1.327 . S
C650 C669 1.429 . S
C650 H674 0.950 . S
C651 C668 1.574 . S
C651 C670 1.368 . S
C651 H675 0.949 . S
H652 C656 0.949 . S
C653 C654 1.349 . S
C653 C655 1.327 . S
C653 H676 0.950 . S
C654 C653 1.349 . S
C654 C666 1.349 . S
C655 C653 1.327 . S
C655 C671 1.429 . S
C655 H677 0.950 . S
C656 H652 0.949 . S
C656 C664 1.574 . S
C656 C672 1.368 . S
H657 C665 0.950 1_455 S
H658 C663 0.950 . S
H659 C664 0.949 . S
H660 C666 0.950 . S
H661 C667 0.950 . S
H662 C668 0.949 . S
C663 H658 0.950 . S
C663 C665 1.327 . S
C663 C669 1.429 . S
C664 C656 1.574 . S
C664 H659 0.949 . S
C664 C670 1.368 . S
C665 C649 1.349 . S
C665 H657 0.950 1_655 S
C665 C663 1.327 . S
C666 C654 1.349 . S
C666 H660 0.950 . S
C666 C667 1.327 . S
C667 H661 0.950 . S
C667 C666 1.327 . S
C667 C671 1.429 . S
C668 C651 1.574 . S
C668 H662 0.949 . S
C668 C672 1.368 . S
C669 C650 1.429 . S
C669 C663 1.429 . S
C669 C670 1.523 . S
C670 C651 1.368 . S
C670 C664 1.368 . S
C670 C669 1.523 . S
C671 C655 1.429 . S
C671 C667 1.429 . S
C671 C672 1.523 . S
C672 C656 1.368 . S
C672 C668 1.368 . S
C672 C671 1.523 . S
H673 C648 0.950 . S
H674 C650 0.950 . S
H675 C651 0.949 . S
H676 C653 0.950 . S
H677 C655 0.950 . S
C678 C679 1.349 . S
C678 C680 1.327 . S
C678 H703 0.950 . S
C679 C678 1.349 . S
C679 C695 1.349 . S
C680 C678 1.327 . S
C680 C699 1.429 . S
C680 H704 0.950 . S
C681 C698 1.574 . S
C681 C700 1.368 . S
C681 H705 0.949 . S
H682 C686 0.949 . S
C683 C684 1.349 . S
C683 C685 1.327 . S
C683 H706 0.950 . S
C684 C683 1.349 . S
C684 C696 1.349 . S
C685 C683 1.327 . S
C685 C701 1.429 . S
C685 H707 0.950 . S
C686 H682 0.949 . S
C686 C694 1.574 . S
C686 C702 1.368 . S
H687 C695 0.950 . S
H688 C693 0.950 . S
H689 C694 0.949 . S
H690 C696 0.950 . S
H691 C697 0.950 . S
H692 C698 0.949 . S
C693 H688 0.950 . S
C693 C695 1.327 . S
C693 C699 1.429 . S
C694 C686 1.574 . S
C694 H689 0.949 . S
C694 C700 1.368 . S
C695 C679 1.349 . S
C695 H687 0.950 . S
C695 C693 1.327 . S
C696 C684 1.349 . S
C696 H690 0.950 . S
C696 C697 1.327 . S
C697 H691 0.950 . S
C697 C696 1.327 . S
C697 C701 1.429 . S
C698 C681 1.574 . S
C698 H692 0.949 . S
C698 C702 1.368 . S
C699 C680 1.429 . S
C699 C693 1.429 . S
C699 C700 1.523 . S
C700 C681 1.368 . S
C700 C694 1.368 . S
C700 C699 1.523 . S
C701 C685 1.429 . S
C701 C697 1.429 . S
C701 C702 1.523 . S
C702 C686 1.368 . S
C702 C698 1.368 . S
C702 C701 1.523 . S
H703 C678 0.950 . S
H704 C680 0.950 . S
H705 C681 0.949 . S
H706 C683 0.950 . S
H707 C685 0.950 . S
C708 C709 1.349 . S
C708 C710 1.327 . S
C708 H733 0.950 . S
C709 C708 1.349 . S
C709 C725 1.349 . S
C710 C708 1.327 . S
C710 C729 1.429 . S
C710 H734 0.950 . S
C711 C728 1.574 . S
C711 C730 1.368 . S
C711 H735 0.949 . S
H712 C716 0.949 . S
C713 C714 1.349 . S
C713 C715 1.327 . S
C713 H736 0.950 . S
C714 C713 1.349 . S
C714 C726 1.349 . S
C715 C713 1.327 . S
C715 C731 1.429 . S
C715 H737 0.950 . S
C716 H712 0.949 . S
C716 C724 1.574 . S
C716 C732 1.368 . S
H717 C725 0.950 . S
H718 C723 0.950 . S
H719 C724 0.949 . S
H720 C726 0.937 1_565 S
H721 C727 0.950 . S
H722 C728 0.949 . S
C723 H718 0.950 . S
C723 C725 1.327 . S
C723 C729 1.429 . S
C724 C716 1.574 . S
C724 H719 0.949 . S
C724 C730 1.368 . S
C725 C709 1.349 . S
C725 H717 0.950 . S
C725 C723 1.327 . S
C726 C714 1.349 . S
C726 H720 0.937 1_545 S
C726 C727 1.327 . S
C727 H721 0.950 . S
C727 C726 1.327 . S
C727 C731 1.429 . S
C728 C711 1.574 . S
C728 H722 0.949 . S
C728 C732 1.368 . S
C729 C710 1.429 . S
C729 C723 1.429 . S
C729 C730 1.523 . S
C730 C711 1.368 . S
C730 C724 1.368 . S
C730 C729 1.523 . S
C731 C715 1.429 . S
C731 C727 1.429 . S
C731 C732 1.523 . S
C732 C716 1.368 . S
C732 C728 1.368 . S
C732 C731 1.523 . S
H733 C708 0.950 . S
H734 C710 0.950 . S
H735 C711 0.949 . S
H736 C713 0.950 . S
H737 C715 0.950 . S
C738 C739 1.349 . S
C738 C740 1.327 . S
C738 H763 0.950 . S
C739 C738 1.349 . S
C739 C755 1.349 . S
C740 C738 1.327 . S
C740 C759 1.429 . S
C740 H764 0.950 . S
C741 C758 1.574 . S
C741 C760 1.368 . S
C741 H765 0.949 . S
H742 C746 0.949 . S
C743 C744 1.349 . S
C743 C745 1.327 . S
C743 H766 0.950 . S
C744 C743 1.349 . S
C744 C756 1.349 . S
C745 C743 1.327 . S
C745 C761 1.429 . S
C745 H767 0.950 . S
C746 H742 0.949 . S
C746 C754 1.574 . S
C746 C762 1.368 . S
H747 C755 0.950 . S
H748 C753 0.950 . S
H749 C754 0.949 . S
H750 C756 0.950 . S
H751 C757 0.950 . S
H752 C758 0.949 . S
C753 H748 0.950 . S
C753 C755 1.327 . S
C753 C759 1.429 . S
C754 C746 1.574 . S
C754 H749 0.949 . S
C754 C760 1.368 . S
C755 C739 1.349 . S
C755 H747 0.950 . S
C755 C753 1.327 . S
C756 C744 1.349 . S
C756 H750 0.950 . S
C756 C757 1.327 . S
C757 H751 0.950 . S
C757 C756 1.327 . S
C757 C761 1.429 . S
C758 C741 1.574 . S
C758 H752 0.949 . S
C758 C762 1.368 . S
C759 C740 1.429 . S
C759 C753 1.429 . S
C759 C760 1.523 . S
C760 C741 1.368 . S
C760 C754 1.368 . S
C760 C759 1.523 . S
C761 C745 1.429 . S
C761 C757 1.429 . S
C761 C762 1.523 . S
C762 C746 1.368 . S
C762 C758 1.368 . S
C762 C761 1.523 . S
H763 C738 0.950 . S
H764 C740 0.950 . S
H765 C741 0.949 . S
H766 C743 0.950 . S
H767 C745 0.950 . S
C768 C769 1.349 . S
C768 C770 1.327 . S
C768 H793 0.950 . S
C769 C768 1.349 . S
C769 C785 1.349 . S
C770 C768 1.327 . S
C770 C789 1.429 . S
C770 H794 0.950 . S
C771 C788 1.574 . S
C771 C790 1.368 . S
C771 H795 0.949 . S
H772 C776 0.949 . S
C773 C774 1.349 . S
C773 C775 1.327 . S
C773 H796 0.950 . S
C774 C773 1.349 . S
C774 C786 1.349 . S
C775 C773 1.327 . S
C775 C791 1.429 . S
C775 H797 0.950 . S
C776 H772 0.949 . S
C776 C784 1.574 . S
C776 C792 1.368 . S
H777 C785 0.932 1_565 S
H778 C783 0.950 . S
H779 C784 0.949 . S
H780 C786 0.950 . S
H781 C787 0.950 . S
H782 C788 0.949 . S
C783 H778 0.950 . S
C783 C785 1.327 . S
C783 C789 1.429 . S
C784 C776 1.574 . S
C784 H779 0.949 . S
C784 C790 1.368 . S
C785 C769 1.349 . S
C785 H777 0.932 1_545 S
C785 C783 1.327 . S
C786 C774 1.349 . S
C786 H780 0.950 . S
C786 C787 1.327 . S
C787 H781 0.950 . S
C787 C786 1.327 . S
C787 C791 1.429 . S
C788 C771 1.574 . S
C788 H782 0.949 . S
C788 C792 1.368 . S
C789 C770 1.429 . S
C789 C783 1.429 . S
C789 C790 1.523 . S
C790 C771 1.368 . S
C790 C784 1.368 . S
C790 C789 1.523 . S
C791 C775 1.429 . S
C791 C787 1.429 . S
C791 C792 1.523 . S
C792 C776 1.368 . S
C792 C788 1.368 . S
C792 C791 1.523 . S
H793 C768 0.950 . S
H794 C770 0.950 . S
H795 C771 0.949 . S
H796 C773 0.950 . S
H797 C775 0.950 . S
C798 C799 1.349 . S
C798 C800 1.327 . S
C798 H823 0.950 . S
C799 C798 1.349 . S
C799 C815 1.349 . S
C800 C798 1.327 . S
C800 C819 1.429 . S
C800 H824 0.950 . S
C801 C818 1.574 . S
C801 C820 1.368 . S
C801 H825 0.949 . S
H802 C806 0.949 . S
C803 C804 1.349 . S
C803 C805 1.327 . S
C803 H826 0.950 1_655 S
C804 C803 1.349 . S
C804 C816 1.349 . S
C805 C803 1.327 . S
C805 C821 1.429 . S
C805 H827 0.950 . S
C806 H802 0.949 . S
C806 C814 1.574 . S
C806 C822 1.368 . S
H807 C815 0.950 . S
H808 C813 0.950 . S
H809 C814 0.949 . S
H810 C816 0.950 . S
H811 C817 0.950 . S
H812 C818 0.949 . S
C813 H808 0.950 . S
C813 C815 1.327 . S
C813 C819 1.429 . S
C814 C806 1.574 . S
C814 H809 0.949 . S
C814 C820 1.368 . S
C815 C799 1.349 . S
C815 H807 0.950 . S
C815 C813 1.327 . S
C816 C804 1.349 . S
C816 H810 0.950 . S
C816 C817 1.327 . S
C817 H811 0.950 . S
C817 C816 1.327 . S
C817 C821 1.429 . S
C818 C801 1.574 . S
C818 H812 0.949 . S
C818 C822 1.368 . S
C819 C800 1.429 . S
C819 C813 1.429 . S
C819 C820 1.523 . S
C820 C801 1.368 . S
C820 C814 1.368 . S
C820 C819 1.523 . S
C821 C805 1.429 . S
C821 C817 1.429 . S
C821 C822 1.523 . S
C822 C806 1.368 . S
C822 C818 1.368 . S
C822 C821 1.523 . S
H823 C798 0.950 . S
H824 C800 0.950 . S
H825 C801 0.949 . S
H826 C803 0.950 1_455 S
H827 C805 0.950 . S
C828 C829 1.349 . S
C828 C830 1.327 . S
C828 H853 0.950 . S
C829 C828 1.349 . S
C829 C845 1.349 . S
C830 C828 1.327 . S
C830 C849 1.429 . S
C830 H854 0.950 . S
C831 C848 1.574 . S
C831 C850 1.368 . S
C831 H855 0.949 . S
H832 C836 0.949 . S
C833 C834 1.349 . S
C833 C835 1.327 . S
C833 H856 0.950 . S
C834 C833 1.349 . S
C834 C846 1.349 . S
C835 C833 1.327 . S
C835 C851 1.429 . S
C835 H857 0.950 . S
C836 H832 0.949 . S
C836 C844 1.574 . S
C836 C852 1.368 . S
H837 C845 0.950 . S
H838 C843 0.950 . S
H839 C844 0.949 . S
H840 C846 0.950 . S
H841 C847 0.950 . S
H842 C848 0.949 . S
C843 H838 0.950 . S
C843 C845 1.327 . S
C843 C849 1.429 . S
C844 C836 1.574 . S
C844 H839 0.949 . S
C844 C850 1.368 . S
C845 C829 1.349 . S
C845 H837 0.950 . S
C845 C843 1.327 . S
C846 C834 1.349 . S
C846 H840 0.950 . S
C846 C847 1.327 . S
C847 H841 0.950 . S
C847 C846 1.327 . S
C847 C851 1.429 . S
C848 C831 1.574 . S
C848 H842 0.949 . S
C848 C852 1.368 . S
C849 C830 1.429 . S
C849 C843 1.429 . S
C849 C850 1.523 . S
C850 C831 1.368 . S
C850 C844 1.368 . S
C850 C849 1.523 . S
C851 C835 1.429 . S
C851 C847 1.429 . S
C851 C852 1.523 . S
C852 C836 1.368 . S
C852 C848 1.368 . S
C852 C851 1.523 . S
H853 C828 0.950 . S
H854 C830 0.950 . S
H855 C831 0.949 . S
H856 C833 0.950 . S
H857 C835 0.950 . S
C858 C859 1.349 . S
C858 C860 1.327 . S
C858 H883 0.950 1_565 S
C859 C858 1.349 . S
C859 C875 1.349 . S
C860 C858 1.327 . S
C860 C879 1.429 . S
C860 H884 0.950 . S
C861 C878 1.574 . S
C861 C880 1.368 . S
C861 H885 0.949 . S
H862 C866 0.949 . S
C863 C864 1.349 . S
C863 C865 1.327 . S
C863 H886 0.950 . S
C864 C863 1.349 . S
C864 C876 1.349 . S
C865 C863 1.327 . S
C865 C881 1.429 . S
C865 H887 0.950 . S
C866 H862 0.949 . S
C866 C874 1.574 . S
C866 C882 1.368 . S
H867 C875 0.950 . S
H868 C873 0.950 . S
H869 C874 0.949 . S
H870 C876 0.950 . S
H871 C877 0.950 . S
H872 C878 0.949 . S
C873 H868 0.950 . S
C873 C875 1.327 . S
C873 C879 1.429 . S
C874 C866 1.574 . S
C874 H869 0.949 . S
C874 C880 1.368 . S
C875 C859 1.349 . S
C875 H867 0.950 . S
C875 C873 1.327 . S
C876 C864 1.349 . S
C876 H870 0.950 . S
C876 C877 1.327 . S
C877 H871 0.950 . S
C877 C876 1.327 . S
C877 C881 1.429 . S
C878 C861 1.574 . S
C878 H872 0.949 . S
C878 C882 1.368 . S
C879 C860 1.429 . S
C879 C873 1.429 . S
C879 C880 1.523 . S
C880 C861 1.368 . S
C880 C874 1.368 . S
C880 C879 1.523 . S
C881 C865 1.429 . S
C881 C877 1.429 . S
C881 C882 1.523 . S
C882 C866 1.368 . S
C882 C878 1.368 . S
C882 C881 1.523 . S
H883 C858 0.950 1_545 S
H884 C860 0.950 . S
H885 C861 0.949 . S
H886 C863 0.950 . S
H887 C865 0.950 . S
C888 C889 1.349 . S
C888 C890 1.327 . S
C888 H913 0.950 . S
C889 C888 1.349 . S
C889 C905 1.349 . S
C890 C888 1.327 . S
C890 C909 1.429 . S
C890 H914 0.950 . S
C891 C908 1.574 . S
C891 C910 1.368 . S
C891 H915 0.949 . S
H892 C896 0.949 . S
C893 C894 1.349 . S
C893 C895 1.327 . S
C893 H916 0.950 1_455 S
C894 C893 1.349 . S
C894 C906 1.349 . S
C895 C893 1.327 . S
C895 C911 1.429 . S
C895 H917 0.950 . S
C896 H892 0.949 . S
C896 C904 1.574 . S
C896 C912 1.368 . S
H897 C905 0.950 . S
H898 C903 0.950 . S
H899 C904 0.949 . S
H900 C906 0.950 . S
H901 C907 0.950 . S
H902 C908 0.949 . S
C903 H898 0.950 . S
C903 C905 1.327 . S
C903 C909 1.429 . S
C904 C896 1.574 . S
C904 H899 0.949 . S
C904 C910 1.368 . S
C905 C889 1.349 . S
C905 H897 0.950 . S
C905 C903 1.327 . S
C906 C894 1.349 . S
C906 H900 0.950 . S
C906 C907 1.327 . S
C907 H901 0.950 . S
C907 C906 1.327 . S
C907 C911 1.429 . S
C908 C891 1.574 . S
C908 H902 0.949 . S
C908 C912 1.368 . S
C909 C890 1.429 . S
C909 C903 1.429 . S
C909 C910 1.523 . S
C910 C891 1.368 . S
C910 C904 1.368 . S
C910 C909 1.523 . S
C911 C895 1.429 . S
C911 C907 1.429 . S
C911 C912 1.523 . S
C912 C896 1.368 . S
C912 C908 1.368 . S
C912 C911 1.523 . S
H913 C888 0.950 . S
H914 C890 0.950 . S
H915 C891 0.949 . S
H916 C893 0.950 1_655 S
H917 C895 0.950 . S
C918 C919 1.349 . S
C918 C920 1.327 . S
C918 H943 0.950 . S
C919 C918 1.349 . S
C919 C935 1.349 . S
C920 C918 1.327 . S
C920 C939 1.429 . S
C920 H944 0.950 . S
C921 C938 1.574 . S
C921 C940 1.368 . S
C921 H945 0.949 . S
H922 C926 0.949 . S
C923 C924 1.349 . S
C923 C925 1.327 . S
C923 H946 0.950 1_455 S
C924 C923 1.349 . S
C924 C936 1.349 . S
C925 C923 1.327 . S
C925 C941 1.429 . S
C925 H947 0.950 . S
C926 H922 0.949 . S
C926 C934 1.574 . S
C926 C942 1.368 . S
H927 C935 0.950 . S
H928 C933 0.950 . S
H929 C934 0.949 . S
H930 C936 0.950 . S
H931 C937 0.950 . S
H932 C938 0.949 . S
C933 H928 0.950 . S
C933 C935 1.327 . S
C933 C939 1.429 . S
C934 C926 1.574 . S
C934 H929 0.949 . S
C934 C940 1.368 . S
C935 C919 1.349 . S
C935 H927 0.950 . S
C935 C933 1.327 . S
C936 C924 1.349 . S
C936 H930 0.950 . S
C936 C937 1.327 . S
C937 H931 0.950 . S
C937 C936 1.327 . S
C937 C941 1.429 . S
C938 C921 1.574 . S
C938 H932 0.949 . S
C938 C942 1.368 . S
C939 C920 1.429 . S
C939 C933 1.429 . S
C939 C940 1.523 . S
C940 C921 1.368 . S
C940 C934 1.368 . S
C940 C939 1.523 . S
C941 C925 1.429 . S
C941 C937 1.429 . S
C941 C942 1.523 . S
C942 C926 1.368 . S
C942 C938 1.368 . S
C942 C941 1.523 . S
H943 C918 0.950 . S
H944 C920 0.950 . S
H945 C921 0.949 . S
H946 C923 0.950 1_655 S
H947 C925 0.950 . S
C948 C949 1.349 . S
C948 C950 1.327 . S
C948 H973 0.950 . S
C949 C948 1.349 . S
C949 C965 1.349 . S
C950 C948 1.327 . S
C950 C969 1.429 . S
C950 H974 0.950 . S
C951 C968 1.574 . S
C951 C970 1.368 . S
C951 H975 0.949 . S
H952 C956 0.949 . S
C953 C954 1.349 . S
C953 C955 1.327 . S
C953 H976 0.950 . S
C954 C953 1.349 . S
C954 C966 1.349 . S
C955 C953 1.327 . S
C955 C971 1.429 . S
C955 H977 0.950 . S
C956 H952 0.949 . S
C956 C964 1.574 . S
C956 C972 1.368 . S
H957 C965 0.950 . S
H958 C963 0.950 . S
H959 C964 0.949 . S
H960 C966 0.950 . S
H961 C967 0.950 . S
H962 C968 0.949 . S
C963 H958 0.950 . S
C963 C965 1.327 . S
C963 C969 1.429 . S
C964 C956 1.574 . S
C964 H959 0.949 . S
C964 C970 1.368 . S
C965 C949 1.349 . S
C965 H957 0.950 . S
C965 C963 1.327 . S
C966 C954 1.349 . S
C966 H960 0.950 . S
C966 C967 1.327 . S
C967 H961 0.950 . S
C967 C966 1.327 . S
C967 C971 1.429 . S
C968 C951 1.574 . S
C968 H962 0.949 . S
C968 C972 1.368 . S
C969 C950 1.429 . S
C969 C963 1.429 . S
C969 C970 1.523 . S
C970 C951 1.368 . S
C970 C964 1.368 . S
C970 C969 1.523 . S
C971 C955 1.429 . S
C971 C967 1.429 . S
C971 C972 1.523 . S
C972 C956 1.368 . S
C972 C968 1.368 . S
C972 C971 1.523 . S
H973 C948 0.950 . S
H974 C950 0.950 . S
H975 C951 0.949 . S
H976 C953 0.950 . S
H977 C955 0.950 . S
C978 C979 1.349 . S
C978 C980 1.327 . S
C978 H1003 0.950 . S
C979 C978 1.349 . S
C979 C995 1.349 . S
C980 C978 1.327 . S
C980 C999 1.429 . S
C980 H1004 0.950 . S
C981 C998 1.574 . S
C981 C1000 1.368 . S
C981 H1005 0.949 . S
H982 C986 0.949 . S
C983 C984 1.349 . S
C983 C985 1.327 . S
C983 H1006 0.911 1_565 S
C984 C983 1.349 . S
C984 C996 1.349 . S
C985 C983 1.327 . S
C985 C1001 1.429 . S
C985 H1007 0.950 . S
C986 H982 0.949 . S
C986 C994 1.574 . S
C986 C1002 1.368 . S
H987 C995 0.950 . S
H988 C993 0.950 . S
H989 C994 0.949 . S
H990 C996 0.950 . S
H991 C997 0.950 . S
H992 C998 0.949 . S
C993 H988 0.950 . S
C993 C995 1.327 . S
C993 C999 1.429 . S
C994 C986 1.574 . S
C994 H989 0.949 . S
C994 C1000 1.368 . S
C995 C979 1.349 . S
C995 H987 0.950 . S
C995 C993 1.327 . S
C996 C984 1.349 . S
C996 H990 0.950 . S
C996 C997 1.327 . S
C997 H991 0.950 . S
C997 C996 1.327 . S
C997 C1001 1.429 . S
C998 C981 1.574 . S
C998 H992 0.949 . S
C998 C1002 1.368 . S
C999 C980 1.429 . S
C999 C993 1.429 . S
C999 C1000 1.523 . S
C1000 C981 1.368 . S
C1000 C994 1.368 . S
C1000 C999 1.523 . S
C1001 C985 1.429 . S
C1001 C997 1.429 . S
C1001 C1002 1.523 . S
C1002 C986 1.368 . S
C1002 C998 1.368 . S
C1002 C1001 1.523 . S
H1003 C978 0.950 . S
H1004 C980 0.950 . S
H1005 C981 0.949 . S
H1006 C983 0.911 1_545 S
H1007 C985 0.950 . S
C1008 C1009 1.349 . S
C1008 C1010 1.327 . S
C1008 H1033 0.950 . S
C1009 C1008 1.349 . S
C1009 C1025 1.349 . S
C1010 C1008 1.327 . S
C1010 C1029 1.429 . S
C1010 H1034 0.950 . S
C1011 C1028 1.574 . S
C1011 C1030 1.368 . S
C1011 H1035 0.949 . S
H1012 C1016 0.949 . S
C1013 C1014 1.349 . S
C1013 C1015 1.327 . S
C1013 H1036 0.950 . S
C1014 C1013 1.349 . S
C1014 C1026 1.349 . S
C1015 C1013 1.327 . S
C1015 C1031 1.429 . S
C1015 H1037 0.950 . S
C1016 H1012 0.949 . S
C1016 C1024 1.574 . S
C1016 C1032 1.368 . S
H1017 C1025 0.950 . S
H1018 C1023 0.950 . S
H1019 C1024 0.949 . S
H1020 C1026 0.950 . S
H1021 C1027 0.950 . S
H1022 C1028 0.949 . S
C1023 H1018 0.950 . S
C1023 C1025 1.327 . S
C1023 C1029 1.429 . S
C1024 C1016 1.574 . S
C1024 H1019 0.949 . S
C1024 C1030 1.368 . S
C1025 C1009 1.349 . S
C1025 H1017 0.950 . S
C1025 C1023 1.327 . S
C1026 C1014 1.349 . S
C1026 H1020 0.950 . S
C1026 C1027 1.327 . S
C1027 H1021 0.950 . S
C1027 C1026 1.327 . S
C1027 C1031 1.429 . S
C1028 C1011 1.574 . S
C1028 H1022 0.949 . S
C1028 C1032 1.368 . S
C1029 C1010 1.429 . S
C1029 C1023 1.429 . S
C1029 C1030 1.523 . S
C1030 C1011 1.368 . S
C1030 C1024 1.368 . S
C1030 C1029 1.523 . S
C1031 C1015 1.429 . S
C1031 C1027 1.429 . S
C1031 C1032 1.523 . S
C1032 C1016 1.368 . S
C1032 C1028 1.368 . S
C1032 C1031 1.523 . S
H1033 C1008 0.950 . S
H1034 C1010 0.950 . S
H1035 C1011 0.949 . S
H1036 C1013 0.950 . S
H1037 C1015 0.950 . S
C1038 C1039 1.349 . S
C1038 C1040 1.327 . S
C1038 H1063 0.950 . S
C1039 C1038 1.349 . S
C1039 C1055 1.349 . S
C1040 C1038 1.327 . S
C1040 C1059 1.429 . S
C1040 H1064 0.950 . S
C1041 C1058 1.574 . S
C1041 C1060 1.368 . S
C1041 H1065 0.949 . S
H1042 C1046 0.949 . S
C1043 C1044 1.349 . S
C1043 C1045 1.327 . S
C1043 H1066 0.950 . S
C1044 C1043 1.349 . S
C1044 C1056 1.349 . S
C1045 C1043 1.327 . S
C1045 C1061 1.429 . S
C1045 H1067 0.950 . S
C1046 H1042 0.949 . S
C1046 C1054 1.574 . S
C1046 C1062 1.368 . S
H1047 C1055 0.950 . S
H1048 C1053 0.950 . S
H1049 C1054 0.949 . S
H1050 C1056 0.950 . S
H1051 C1057 0.950 . S
H1052 C1058 0.949 . S
C1053 H1048 0.950 . S
C1053 C1055 1.327 . S
C1053 C1059 1.429 . S
C1054 C1046 1.574 . S
C1054 H1049 0.949 . S
C1054 C1060 1.368 . S
C1055 C1039 1.349 . S
C1055 H1047 0.950 . S
C1055 C1053 1.327 . S
C1056 C1044 1.349 . S
C1056 H1050 0.950 . S
C1056 C1057 1.327 . S
C1057 H1051 0.950 . S
C1057 C1056 1.327 . S
C1057 C1061 1.429 . S
C1058 C1041 1.574 . S
C1058 H1052 0.949 . S
C1058 C1062 1.368 . S
C1059 C1040 1.429 . S
C1059 C1053 1.429 . S
C1059 C1060 1.523 . S
C1060 C1041 1.368 . S
C1060 C1054 1.368 . S
C1060 C1059 1.523 . S
C1061 C1045 1.429 . S
C1061 C1057 1.429 . S
C1061 C1062 1.523 . S
C1062 C1046 1.368 . S
C1062 C1058 1.368 . S
C1062 C1061 1.523 . S
H1063 C1038 0.950 . S
H1064 C1040 0.950 . S
H1065 C1041 0.949 . S
H1066 C1043 0.950 . S
H1067 C1045 0.950 . S
C1068 C1069 1.349 . S
C1068 C1070 1.327 . S
C1068 H1093 0.950 . S
C1069 C1068 1.349 . S
C1069 C1085 1.349 . S
C1070 C1068 1.327 . S
C1070 C1089 1.429 . S
C1070 H1094 0.950 . S
C1071 C1088 1.574 . S
C1071 C1090 1.368 . S
C1071 H1095 0.949 . S
H1072 C1076 0.949 . S
C1073 C1074 1.349 . S
C1073 C1075 1.327 . S
C1073 H1096 0.950 . S
C1074 C1073 1.349 . S
C1074 C1086 1.349 . S
C1075 C1073 1.327 . S
C1075 C1091 1.429 . S
C1075 H1097 0.950 . S
C1076 H1072 0.949 . S
C1076 C1084 1.574 . S
C1076 C1092 1.368 . S
H1077 C1085 0.950 . S
H1078 C1083 0.950 . S
H1079 C1084 0.949 . S
H1080 C1086 0.950 . S
H1081 C1087 0.950 . S
H1082 C1088 0.949 . S
C1083 H1078 0.950 . S
C1083 C1085 1.327 . S
C1083 C1089 1.429 . S
C1084 C1076 1.574 . S
C1084 H1079 0.949 . S
C1084 C1090 1.368 . S
C1085 C1069 1.349 . S
C1085 H1077 0.950 . S
C1085 C1083 1.327 . S
C1086 C1074 1.349 . S
C1086 H1080 0.950 . S
C1086 C1087 1.327 . S
C1087 H1081 0.950 . S
C1087 C1086 1.327 . S
C1087 C1091 1.429 . S
C1088 C1071 1.574 . S
C1088 H1082 0.949 . S
C1088 C1092 1.368 . S
C1089 C1070 1.429 . S
C1089 C1083 1.429 . S
C1089 C1090 1.523 . S
C1090 C1071 1.368 . S
C1090 C1084 1.368 . S
C1090 C1089 1.523 . S
C1091 C1075 1.429 . S
C1091 C1087 1.429 . S
C1091 C1092 1.523 . S
C1092 C1076 1.368 . S
C1092 C1088 1.368 . S
C1092 C1091 1.523 . S
H1093 C1068 0.950 . S
H1094 C1070 0.950 . S
H1095 C1071 0.949 . S
H1096 C1073 0.950 . S
H1097 C1075 0.950 . S
C1098 C1099 1.349 . S
C1098 C1100 1.327 . S
C1098 H1123 0.950 . S
C1099 C1098 1.349 . S
C1099 C1115 1.349 . S
C1100 C1098 1.327 . S
C1100 C1119 1.429 . S
C1100 H1124 0.950 . S
C1101 C1118 1.574 . S
C1101 C1120 1.368 . S
C1101 H1125 0.949 . S
H1102 C1106 0.949 . S
C1103 C1104 1.349 . S
C1103 C1105 1.327 1_556 S
C1103 H1126 0.950 . S
C1104 C1103 1.349 . S
C1104 C1116 1.349 . S
C1105 C1103 1.327 1_554 S
C1105 C1121 1.429 . S
C1105 H1127 0.950 . S
C1106 H1102 0.949 . S
C1106 C1114 1.574 . S
C1106 C1122 1.368 . S
H1107 C1115 0.950 . S
H1108 C1113 0.950 . S
H1109 C1114 0.949 . S
H1110 C1116 0.950 . S
H1111 C1117 0.950 . S
H1112 C1118 0.949 . S
C1113 H1108 0.950 . S
C1113 C1115 1.327 . S
C1113 C1119 1.429 . S
C1114 C1106 1.574 . S
C1114 H1109 0.949 . S
C1114 C1120 1.368 . S
C1115 C1099 1.349 . S
C1115 H1107 0.950 . S
C1115 C1113 1.327 . S
C1116 C1104 1.349 . S
C1116 H1110 0.950 . S
C1116 C1117 1.327 1_556 S
C1117 H1111 0.950 . S
C1117 C1116 1.327 1_554 S
C1117 C1121 1.429 . S
C1118 C1101 1.574 . S
C1118 H1112 0.949 . S
C1118 C1122 1.368 . S
C1119 C1100 1.429 . S
C1119 C1113 1.429 . S
C1119 C1120 1.523 . S
C1120 C1101 1.368 . S
C1120 C1114 1.368 . S
C1120 C1119 1.523 . S
C1121 C1105 1.429 . S
C1121 C1117 1.429 . S
C1121 C1122 1.523 . S
C1122 C1106 1.368 . S
C1122 C1118 1.368 . S
C1122 C1121 1.523 . S
H1123 C1098 0.950 . S
H1124 C1100 0.950 . S
H1125 C1101 0.949 . S
H1126 C1103 0.950 . S
H1127 C1105 0.950 . S
C1128 C1129 1.349 . S
C1128 C1130 1.327 . S
C1128 H1153 0.950 . S
C1129 C1128 1.349 . S
C1129 C1145 1.349 . S
C1130 C1128 1.327 . S
C1130 C1149 1.429 . S
C1130 H1154 0.950 . S
C1131 C1148 1.574 . S
C1131 C1150 1.368 . S
C1131 H1155 0.949 . S
H1132 C1136 0.949 . S
C1133 C1134 1.349 . S
C1133 C1135 1.323 . S
C1133 H1156 0.950 . S
C1134 C1133 1.349 . S
C1134 C1146 1.349 . S
C1135 C1133 1.323 . S
C1135 C1151 1.432 1_556 S
C1135 H1157 0.949 1_556 S
C1136 H1132 0.949 . S
C1136 C1144 1.574 . S
C1136 C1152 1.368 . S
H1137 C1145 0.950 . S
H1138 C1143 0.950 . S
H1139 C1144 0.949 . S
H1140 C1146 0.950 . S
H1141 C1147 0.950 . S
H1142 C1148 0.949 . S
C1143 H1138 0.950 . S
C1143 C1145 1.327 . S
C1143 C1149 1.429 . S
C1144 C1136 1.574 . S
C1144 H1139 0.949 . S
C1144 C1150 1.368 . S
C1145 C1129 1.349 . S
C1145 H1137 0.950 . S
C1145 C1143 1.327 . S
C1146 C1134 1.349 . S
C1146 H1140 0.950 . S
C1146 C1147 1.327 1_556 S
C1147 H1141 0.950 . S
C1147 C1146 1.327 1_554 S
C1147 C1151 1.429 . S
C1148 C1131 1.574 . S
C1148 H1142 0.949 . S
C1148 C1152 1.368 . S
C1149 C1130 1.429 . S
C1149 C1143 1.429 . S
C1149 C1150 1.523 . S
C1150 C1131 1.368 . S
C1150 C1144 1.368 . S
C1150 C1149 1.523 . S
C1151 C1135 1.432 1_554 S
C1151 C1147 1.429 . S
C1151 C1152 1.523 . S
C1152 C1136 1.368 . S
C1152 C1148 1.368 . S
C1152 C1151 1.523 . S
H1153 C1128 0.950 . S
H1154 C1130 0.950 . S
H1155 C1131 0.949 . S
H1156 C1133 0.950 . S
H1157 C1135 0.949 1_554 S
C1158 C1159 1.349 . S
C1158 C1160 1.327 . S
C1158 H1183 0.950 . S
C1159 C1158 1.349 . S
C1159 C1175 1.349 . S
C1160 C1158 1.327 . S
C1160 C1179 1.429 . S
C1160 H1184 0.950 . S
C1161 C1178 1.574 . S
C1161 C1180 1.368 . S
C1161 H1185 0.949 . S
H1162 C1166 0.949 . S
C1163 C1164 1.349 . S
C1163 C1165 1.327 1_556 S
C1163 H1186 0.950 . S
C1164 C1163 1.349 . S
C1164 C1176 1.349 . S
C1165 C1163 1.327 1_554 S
C1165 C1181 1.429 . S
C1165 H1187 0.950 . S
C1166 H1162 0.949 . S
C1166 C1174 1.574 . S
C1166 C1182 1.368 . S
H1167 C1175 0.950 . S
H1168 C1173 0.950 . S
H1169 C1174 0.949 . S
H1170 C1176 0.950 . S
H1171 C1177 0.950 . S
H1172 C1178 0.949 . S
C1173 H1168 0.950 . S
C1173 C1175 1.327 . S
C1173 C1179 1.429 . S
C1174 C1166 1.574 . S
C1174 H1169 0.949 . S
C1174 C1180 1.368 . S
C1175 C1159 1.349 . S
C1175 H1167 0.950 . S
C1175 C1173 1.327 . S
C1176 C1164 1.349 . S
C1176 H1170 0.950 . S
C1176 C1177 1.327 1_556 S
C1177 H1171 0.950 . S
C1177 C1176 1.327 1_554 S
C1177 C1181 1.429 . S
C1178 C1161 1.574 . S
C1178 H1172 0.949 . S
C1178 C1182 1.368 . S
C1179 C1160 1.429 . S
C1179 C1173 1.429 . S
C1179 C1180 1.523 . S
C1180 C1161 1.368 . S
C1180 C1174 1.368 . S
C1180 C1179 1.523 . S
C1181 C1165 1.429 . S
C1181 C1177 1.429 . S
C1181 C1182 1.523 . S
C1182 C1166 1.368 . S
C1182 C1178 1.368 . S
C1182 C1181 1.523 . S
H1183 C1158 0.950 . S
H1184 C1160 0.950 . S
H1185 C1161 0.949 . S
H1186 C1163 0.950 . S
H1187 C1165 0.950 . S
C1188 C1189 1.349 . S
C1188 C1190 1.327 . S
C1188 H1213 0.950 . S
C1189 C1188 1.349 . S
C1189 C1205 1.349 . S
C1190 C1188 1.327 . S
C1190 C1209 1.429 . S
C1190 H1214 0.950 . S
C1191 C1208 1.574 . S
C1191 C1210 1.368 . S
C1191 H1215 0.949 . S
H1192 C1196 0.949 . S
C1193 C1194 1.349 . S
C1193 C1195 1.327 . S
C1193 H1216 0.950 . S
C1194 C1193 1.349 . S
C1194 C1206 1.349 . S
C1195 C1193 1.327 . S
C1195 C1211 1.429 . S
C1195 H1217 0.950 . S
C1196 H1192 0.949 . S
C1196 C1204 1.574 . S
C1196 C1212 1.368 . S
H1197 C1205 0.950 . S
H1198 C1203 0.950 . S
H1199 C1204 0.949 . S
H1200 C1206 0.950 . S
H1201 C1207 0.950 . S
H1202 C1208 0.949 . S
C1203 H1198 0.950 . S
C1203 C1205 1.327 . S
C1203 C1209 1.429 . S
C1204 C1196 1.574 . S
C1204 H1199 0.949 . S
C1204 C1210 1.368 . S
C1205 C1189 1.349 . S
C1205 H1197 0.950 . S
C1205 C1203 1.327 . S
C1206 C1194 1.349 . S
C1206 H1200 0.950 . S
C1206 C1207 1.327 . S
C1207 H1201 0.950 . S
C1207 C1206 1.327 . S
C1207 C1211 1.429 . S
C1208 C1191 1.574 . S
C1208 H1202 0.949 . S
C1208 C1212 1.368 . S
C1209 C1190 1.429 . S
C1209 C1203 1.429 . S
C1209 C1210 1.523 . S
C1210 C1191 1.368 . S
C1210 C1204 1.368 . S
C1210 C1209 1.523 . S
C1211 C1195 1.429 . S
C1211 C1207 1.429 . S
C1211 C1212 1.523 . S
C1212 C1196 1.368 . S
C1212 C1208 1.368 . S
C1212 C1211 1.523 . S
H1213 C1188 0.950 . S
H1214 C1190 0.950 . S
H1215 C1191 0.949 . S
H1216 C1193 0.950 . S
H1217 C1195 0.950 . S
C1218 C1219 1.349 . S
C1218 C1220 1.327 . S
C1218 H1243 0.950 . S
C1219 C1218 1.349 . S
C1219 C1235 1.349 . S
C1220 C1218 1.327 . S
C1220 C1239 1.429 . S
C1220 H1244 0.950 . S
C1221 C1238 1.574 . S
C1221 C1240 1.368 . S
C1221 H1245 0.949 . S
H1222 C1226 0.949 . S
C1223 C1224 1.349 . S
C1223 C1225 1.327 . S
C1223 H1246 0.950 . S
C1224 C1223 1.349 . S
C1224 C1236 1.349 . S
C1225 C1223 1.327 . S
C1225 C1241 1.429 . S
C1225 H1247 0.950 . S
C1226 H1222 0.949 . S
C1226 C1234 1.574 . S
C1226 C1242 1.368 . S
H1227 C1235 0.950 . S
H1228 C1233 0.950 . S
H1229 C1234 0.949 . S
H1230 C1236 0.950 . S
H1231 C1237 0.950 . S
H1232 C1238 0.949 . S
C1233 H1228 0.950 . S
C1233 C1235 1.327 . S
C1233 C1239 1.429 . S
C1234 C1226 1.574 . S
C1234 H1229 0.949 . S
C1234 C1240 1.368 . S
C1235 C1219 1.349 . S
C1235 H1227 0.950 . S
C1235 C1233 1.327 . S
C1236 C1224 1.349 . S
C1236 H1230 0.950 . S
C1236 C1237 1.327 . S
C1237 H1231 0.950 . S
C1237 C1236 1.327 . S
C1237 C1241 1.429 . S
C1238 C1221 1.574 . S
C1238 H1232 0.949 . S
C1238 C1242 1.368 . S
C1239 C1220 1.429 . S
C1239 C1233 1.429 . S
C1239 C1240 1.523 . S
C1240 C1221 1.368 . S
C1240 C1234 1.368 . S
C1240 C1239 1.523 . S
C1241 C1225 1.429 . S
C1241 C1237 1.429 . S
C1241 C1242 1.523 . S
C1242 C1226 1.368 . S
C1242 C1238 1.368 . S
C1242 C1241 1.523 . S
H1243 C1218 0.950 . S
H1244 C1220 0.950 . S
H1245 C1221 0.949 . S
H1246 C1223 0.950 . S
H1247 C1225 0.950 . S
C1248 C1249 1.349 . S
C1248 C1250 1.327 . S
C1248 H1273 0.950 . S
C1249 C1248 1.349 . S
C1249 C1265 1.349 . S
C1250 C1248 1.327 . S
C1250 C1269 1.429 . S
C1250 H1274 0.950 . S
C1251 C1268 1.574 . S
C1251 C1270 1.368 . S
C1251 H1275 0.949 . S
H1252 C1256 0.949 . S
C1253 C1254 1.349 . S
C1253 C1255 1.327 . S
C1253 H1276 0.950 . S
C1254 C1253 1.349 . S
C1254 C1266 1.349 . S
C1255 C1253 1.327 . S
C1255 C1271 1.429 . S
C1255 H1277 0.950 . S
C1256 H1252 0.949 . S
C1256 C1264 1.574 . S
C1256 C1272 1.368 . S
H1257 C1265 0.950 . S
H1258 C1263 0.950 . S
H1259 C1264 0.949 . S
H1260 C1266 0.950 . S
H1261 C1267 0.950 . S
H1262 C1268 0.949 . S
C1263 H1258 0.950 . S
C1263 C1265 1.327 . S
C1263 C1269 1.429 . S
C1264 C1256 1.574 . S
C1264 H1259 0.949 . S
C1264 C1270 1.368 . S
C1265 C1249 1.349 . S
C1265 H1257 0.950 . S
C1265 C1263 1.327 . S
C1266 C1254 1.349 . S
C1266 H1260 0.950 . S
C1266 C1267 1.327 . S
C1267 H1261 0.950 . S
C1267 C1266 1.327 . S
C1267 C1271 1.429 . S
C1268 C1251 1.574 . S
C1268 H1262 0.949 . S
C1268 C1272 1.368 . S
C1269 C1250 1.429 . S
C1269 C1263 1.429 . S
C1269 C1270 1.523 . S
C1270 C1251 1.368 . S
C1270 C1264 1.368 . S
C1270 C1269 1.523 . S
C1271 C1255 1.429 . S
C1271 C1267 1.429 . S
C1271 C1272 1.523 . S
C1272 C1256 1.368 . S
C1272 C1268 1.368 . S
C1272 C1271 1.523 . S
H1273 C1248 0.950 . S
H1274 C1250 0.950 . S
H1275 C1251 0.949 . S
H1276 C1253 0.950 . S
H1277 C1255 0.950 . S
C1278 C1279 1.349 . S
C1278 C1280 1.327 1_554 S
C1278 H1303 0.950 . S
C1279 C1278 1.349 . S
C1279 C1295 1.349 . S
C1280 C1278 1.327 1_556 S
C1280 C1299 1.429 . S
C1280 H1304 0.950 . S
C1281 C1298 1.574 . S
C1281 C1300 1.368 . S
C1281 H1305 0.949 . S
H1282 C1286 0.949 . S
C1283 C1284 1.349 . S
C1283 C1285 1.327 . S
C1283 H1306 0.950 . S
C1284 C1283 1.349 . S
C1284 C1296 1.349 . S
C1285 C1283 1.327 . S
C1285 C1301 1.429 . S
C1285 H1307 0.950 . S
C1286 H1282 0.949 . S
C1286 C1294 1.574 . S
C1286 C1302 1.368 . S
H1287 C1295 0.950 . S
H1288 C1293 0.950 . S
H1289 C1294 0.949 . S
H1290 C1296 0.950 . S
H1291 C1297 0.950 . S
H1292 C1298 0.949 . S
C1293 H1288 0.950 . S
C1293 C1295 1.327 1_556 S
C1293 C1299 1.429 . S
C1294 C1286 1.574 . S
C1294 H1289 0.949 . S
C1294 C1300 1.368 . S
C1295 C1279 1.349 . S
C1295 H1287 0.950 . S
C1295 C1293 1.327 1_554 S
C1296 C1284 1.349 . S
C1296 H1290 0.950 . S
C1296 C1297 1.327 . S
C1297 H1291 0.950 . S
C1297 C1296 1.327 . S
C1297 C1301 1.429 . S
C1298 C1281 1.574 . S
C1298 H1292 0.949 . S
C1298 C1302 1.368 . S
C1299 C1280 1.429 . S
C1299 C1293 1.429 . S
C1299 C1300 1.523 . S
C1300 C1281 1.368 . S
C1300 C1294 1.368 . S
C1300 C1299 1.523 . S
C1301 C1285 1.429 . S
C1301 C1297 1.429 . S
C1301 C1302 1.523 . S
C1302 C1286 1.368 . S
C1302 C1298 1.368 . S
C1302 C1301 1.523 . S
H1303 C1278 0.950 . S
H1304 C1280 0.950 . S
H1305 C1281 0.949 . S
H1306 C1283 0.950 . S
H1307 C1285 0.950 . S
C1308 C1309 1.349 . S
C1308 C1310 1.327 1_554 S
C1308 H1333 0.950 . S
C1309 C1308 1.349 . S
C1309 C1325 1.349 . S
C1310 C1308 1.327 1_556 S
C1310 C1329 1.429 . S
C1310 H1334 0.950 . S
C1311 C1328 1.574 . S
C1311 C1330 1.368 . S
C1311 H1335 0.949 . S
H1312 C1316 0.949 . S
C1313 C1314 1.349 . S
C1313 C1315 1.327 . S
C1313 H1336 0.950 . S
C1314 C1313 1.349 . S
C1314 C1326 1.349 . S
C1315 C1313 1.327 . S
C1315 C1331 1.429 . S
C1315 H1337 0.950 . S
C1316 H1312 0.949 . S
C1316 C1324 1.574 . S
C1316 C1332 1.368 . S
H1317 C1325 0.950 . S
H1318 C1323 0.950 . S
H1319 C1324 0.949 . S
H1320 C1326 0.950 . S
H1321 C1327 0.950 . S
H1322 C1328 0.949 . S
C1323 H1318 0.950 . S
C1323 C1325 1.327 1_556 S
C1323 C1329 1.429 . S
C1324 C1316 1.574 . S
C1324 H1319 0.949 . S
C1324 C1330 1.368 . S
C1325 C1309 1.349 . S
C1325 H1317 0.950 . S
C1325 C1323 1.327 1_554 S
C1326 C1314 1.349 . S
C1326 H1320 0.950 . S
C1326 C1327 1.327 . S
C1327 H1321 0.950 . S
C1327 C1326 1.327 . S
C1327 C1331 1.429 . S
C1328 C1311 1.574 . S
C1328 H1322 0.949 . S
C1328 C1332 1.368 . S
C1329 C1310 1.429 . S
C1329 C1323 1.429 . S
C1329 C1330 1.523 . S
C1330 C1311 1.368 . S
C1330 C1324 1.368 . S
C1330 C1329 1.523 . S
C1331 C1315 1.429 . S
C1331 C1327 1.429 . S
C1331 C1332 1.523 . S
C1332 C1316 1.368 . S
C1332 C1328 1.368 . S
C1332 C1331 1.523 . S
H1333 C1308 0.950 . S
H1334 C1310 0.950 . S
H1335 C1311 0.949 . S
H1336 C1313 0.950 . S
H1337 C1315 0.950 . S
C1338 C1339 1.349 . S
C1338 C1340 1.327 . S
C1338 H1363 0.950 . S
C1339 C1338 1.349 . S
C1339 C1355 1.349 . S
C1340 C1338 1.327 . S
C1340 C1359 1.429 . S
C1340 H1364 0.950 . S
C1341 C1358 1.574 . S
C1341 C1360 1.368 . S
C1341 H1365 0.949 . S
H1342 C1346 0.949 . S
C1343 C1344 1.349 . S
C1343 C1345 1.328 1_554 S
C1343 H1366 0.950 . S
C1344 C1343 1.349 . S
C1344 C1356 1.349 . S
C1345 C1343 1.328 1_556 S
C1345 C1361 1.427 . S
C1345 H1367 0.949 . S
C1346 H1342 0.949 . S
C1346 C1354 1.574 . S
C1346 C1362 1.368 . S
H1347 C1355 0.950 . S
H1348 C1353 0.950 . S
H1349 C1354 0.949 . S
H1350 C1356 0.950 . S
H1351 C1357 0.950 . S
H1352 C1358 0.949 . S
C1353 H1348 0.950 . S
C1353 C1355 1.327 . S
C1353 C1359 1.429 . S
C1354 C1346 1.574 . S
C1354 H1349 0.949 . S
C1354 C1360 1.368 . S
C1355 C1339 1.349 . S
C1355 H1347 0.950 . S
C1355 C1353 1.327 . S
C1356 C1344 1.349 . S
C1356 H1350 0.950 . S
C1356 C1357 1.327 1_554 S
C1357 H1351 0.950 . S
C1357 C1356 1.327 1_556 S
C1357 C1361 1.429 . S
C1358 C1341 1.574 . S
C1358 H1352 0.949 . S
C1358 C1362 1.368 . S
C1359 C1340 1.429 . S
C1359 C1353 1.429 . S
C1359 C1360 1.523 . S
C1360 C1341 1.368 . S
C1360 C1354 1.368 . S
C1360 C1359 1.523 . S
C1361 C1345 1.427 . S
C1361 C1357 1.429 . S
C1361 C1362 1.523 . S
C1362 C1346 1.368 . S
C1362 C1358 1.368 . S
C1362 C1361 1.523 . S
H1363 C1338 0.950 . S
H1364 C1340 0.950 . S
H1365 C1341 0.949 . S
H1366 C1343 0.950 . S
H1367 C1345 0.949 . S
C1368 C1369 1.349 . S
C1368 C1370 1.327 . S
C1368 H1393 0.950 . S
C1369 C1368 1.349 . S
C1369 C1385 1.349 . S
C1370 C1368 1.327 . S
C1370 C1389 1.429 . S
C1370 H1394 0.950 . S
C1371 C1388 1.574 1_455 S
C1371 C1390 1.368 . S
C1371 H1395 0.949 . S
H1372 C1376 0.949 . S
C1373 C1374 1.349 . S
C1373 C1375 1.327 . S
C1373 H1396 0.950 . S
C1374 C1373 1.349 . S
C1374 C1386 1.349 . S
C1375 C1373 1.327 . S
C1375 C1391 1.429 . S
C1375 H1397 0.950 . S
C1376 H1372 0.949 . S
C1376 C1384 1.574 1_655 S
C1376 C1392 1.368 . S
H1377 C1385 0.950 . S
H1378 C1383 0.950 . S
H1379 C1384 0.949 . S
H1380 C1386 0.950 . S
H1381 C1387 0.950 . S
H1382 C1388 0.949 . S
C1383 H1378 0.950 . S
C1383 C1385 1.327 . S
C1383 C1389 1.429 . S
C1384 C1376 1.574 1_455 S
C1384 H1379 0.949 . S
C1384 C1390 1.368 . S
C1385 C1369 1.349 . S
C1385 H1377 0.950 . S
C1385 C1383 1.327 . S
C1386 C1374 1.349 . S
C1386 H1380 0.950 . S
C1386 C1387 1.327 . S
C1387 H1381 0.950 . S
C1387 C1386 1.327 . S
C1387 C1391 1.429 . S
C1388 C1371 1.574 1_655 S
C1388 H1382 0.949 . S
C1388 C1392 1.368 . S
C1389 C1370 1.429 . S
C1389 C1383 1.429 . S
C1389 C1390 1.523 . S
C1390 C1371 1.368 . S
C1390 C1384 1.368 . S
C1390 C1389 1.523 . S
C1391 C1375 1.429 . S
C1391 C1387 1.429 . S
C1391 C1392 1.523 . S
C1392 C1376 1.368 . S
C1392 C1388 1.368 . S
C1392 C1391 1.523 . S
H1393 C1368 0.950 . S
H1394 C1370 0.950 . S
H1395 C1371 0.949 . S
H1396 C1373 0.950 . S
H1397 C1375 0.950 . S
C1398 C1399 1.349 . S
C1398 C1400 1.327 . S
C1398 H1423 0.950 . S
C1399 C1398 1.349 . S
C1399 C1415 1.349 . S
C1400 C1398 1.327 . S
C1400 C1419 1.429 . S
C1400 H1424 0.950 . S
C1401 C1418 1.574 . S
C1401 C1420 1.368 . S
C1401 H1425 0.949 . S
H1402 C1406 0.949 . S
C1403 C1404 1.349 . S
C1403 C1405 1.327 . S
C1403 H1426 0.950 . S
C1404 C1403 1.349 . S
C1404 C1416 1.349 . S
C1405 C1403 1.327 . S
C1405 C1421 1.429 . S
C1405 H1427 0.950 . S
C1406 H1402 0.949 . S
C1406 C1414 1.574 . S
C1406 C1422 1.368 . S
H1407 C1415 0.950 . S
H1408 C1413 0.950 . S
H1409 C1414 0.949 . S
H1410 C1416 0.950 . S
H1411 C1417 0.950 . S
H1412 C1418 0.949 . S
C1413 H1408 0.950 . S
C1413 C1415 1.327 . S
C1413 C1419 1.429 . S
C1414 C1406 1.574 . S
C1414 H1409 0.949 . S
C1414 C1420 1.368 . S
C1415 C1399 1.349 . S
C1415 H1407 0.950 . S
C1415 C1413 1.327 . S
C1416 C1404 1.349 . S
C1416 H1410 0.950 . S
C1416 C1417 1.327 . S
C1417 H1411 0.950 . S
C1417 C1416 1.327 . S
C1417 C1421 1.429 . S
C1418 C1401 1.574 . S
C1418 H1412 0.949 . S
C1418 C1422 1.368 . S
C1419 C1400 1.429 . S
C1419 C1413 1.429 . S
C1419 C1420 1.523 . S
C1420 C1401 1.368 . S
C1420 C1414 1.368 . S
C1420 C1419 1.523 . S
C1421 C1405 1.429 . S
C1421 C1417 1.429 . S
C1421 C1422 1.523 . S
C1422 C1406 1.368 . S
C1422 C1418 1.368 . S
C1422 C1421 1.523 . S
H1423 C1398 0.950 . S
H1424 C1400 0.950 . S
H1425 C1401 0.949 . S
H1426 C1403 0.950 . S
H1427 C1405 0.950 . S
C1428 C1429 1.349 . S
C1428 C1430 1.327 . S
C1428 H1453 0.950 . S
C1429 C1428 1.349 . S
C1429 C1445 1.349 . S
C1430 C1428 1.327 . S
C1430 C1449 1.429 . S
C1430 H1454 0.950 . S
C1431 C1448 1.574 . S
C1431 C1450 1.368 1_565 S
C1431 H1455 0.949 . S
H1432 C1436 0.949 . S
C1433 C1434 1.349 . S
C1433 C1435 1.327 . S
C1433 H1456 0.950 . S
C1434 C1433 1.349 . S
C1434 C1446 1.349 . S
C1435 C1433 1.327 . S
C1435 C1451 1.429 . S
C1435 H1457 0.950 . S
C1436 H1432 0.949 . S
C1436 C1444 1.574 . S
C1436 C1452 1.368 1_545 S
H1437 C1445 0.950 . S
H1438 C1443 0.950 1_565 S
H1439 C1444 0.949 . S
H1440 C1446 0.950 . S
H1441 C1447 0.950 1_545 S
H1442 C1448 0.949 . S
C1443 H1438 0.950 1_545 S
C1443 C1445 1.327 . S
C1443 C1449 1.429 . S
C1444 C1436 1.574 . S
C1444 H1439 0.949 . S
C1444 C1450 1.368 . S
C1445 C1429 1.349 . S
C1445 H1437 0.950 . S
C1445 C1443 1.327 . S
C1446 C1434 1.349 . S
C1446 H1440 0.950 . S
C1446 C1447 1.327 . S
C1447 H1441 0.950 1_565 S
C1447 C1446 1.327 . S
C1447 C1451 1.429 . S
C1448 C1431 1.574 . S
C1448 H1442 0.949 . S
C1448 C1452 1.368 . S
C1449 C1430 1.429 . S
C1449 C1443 1.429 . S
C1449 C1450 1.523 . S
C1450 C1431 1.368 1_545 S
C1450 C1444 1.368 . S
C1450 C1449 1.523 . S
C1451 C1435 1.429 . S
C1451 C1447 1.429 . S
C1451 C1452 1.523 . S
C1452 C1436 1.368 1_565 S
C1452 C1448 1.368 . S
C1452 C1451 1.523 . S
H1453 C1428 0.950 . S
H1454 C1430 0.950 . S
H1455 C1431 0.949 . S
H1456 C1433 0.950 . S
H1457 C1435 0.950 . S
C1458 C1459 1.349 . S
C1458 C1460 1.327 . S
C1458 H1483 0.950 . S
C1459 C1458 1.349 . S
C1459 C1475 1.349 . S
C1460 C1458 1.327 . S
C1460 C1479 1.429 . S
C1460 H1484 0.950 1_565 S
C1461 C1478 1.574 . S
C1461 C1480 1.368 . S
C1461 H1485 0.949 . S
H1462 C1466 0.949 . S
C1463 C1464 1.349 . S
C1463 C1465 1.327 . S
C1463 H1486 0.950 . S
C1464 C1463 1.349 . S
C1464 C1476 1.349 . S
C1465 C1463 1.327 . S
C1465 C1481 1.429 . S
C1465 H1487 0.950 1_545 S
C1466 H1462 0.949 . S
C1466 C1474 1.574 . S
C1466 C1482 1.368 . S
H1467 C1475 0.950 . S
H1468 C1473 0.950 . S
H1469 C1474 0.949 . S
H1470 C1476 0.950 . S
H1471 C1477 0.950 . S
H1472 C1478 0.949 . S
C1473 H1468 0.950 . S
C1473 C1475 1.327 . S
C1473 C1479 1.429 . S
C1474 C1466 1.574 . S
C1474 H1469 0.949 . S
C1474 C1480 1.368 1_545 S
C1475 C1459 1.349 . S
C1475 H1467 0.950 . S
C1475 C1473 1.327 . S
C1476 C1464 1.349 . S
C1476 H1470 0.950 . S
C1476 C1477 1.327 . S
C1477 H1471 0.950 . S
C1477 C1476 1.327 . S
C1477 C1481 1.429 . S
C1478 C1461 1.574 . S
C1478 H1472 0.949 . S
C1478 C1482 1.368 1_565 S
C1479 C1460 1.429 . S
C1479 C1473 1.429 . S
C1479 C1480 1.523 . S
C1480 C1461 1.368 . S
C1480 C1474 1.368 1_565 S
C1480 C1479 1.523 . S
C1481 C1465 1.429 . S
C1481 C1477 1.429 . S
C1481 C1482 1.523 . S
C1482 C1466 1.368 . S
C1482 C1478 1.368 1_545 S
C1482 C1481 1.523 . S
H1483 C1458 0.950 . S
H1484 C1460 0.950 1_545 S
H1485 C1461 0.949 . S
H1486 C1463 0.950 . S
H1487 C1465 0.950 1_565 S
C1488 C1489 1.349 . S
C1488 C1490 1.327 . S
C1488 H1513 0.950 . S
C1489 C1488 1.349 . S
C1489 C1505 1.349 . S
C1490 C1488 1.327 . S
C1490 C1509 1.429 . S
C1490 H1514 0.950 1_655 S
C1491 C1508 1.574 . S
C1491 C1510 1.368 . S
C1491 H1515 0.949 . S
H1492 C1496 0.949 . S
C1493 C1494 1.349 . S
C1493 C1495 1.327 . S
C1493 H1516 0.950 . S
C1494 C1493 1.349 . S
C1494 C1506 1.349 . S
C1495 C1493 1.327 . S
C1495 C1511 1.429 . S
C1495 H1517 0.950 1_455 S
C1496 H1492 0.949 . S
C1496 C1504 1.574 . S
C1496 C1512 1.368 . S
H1497 C1505 0.950 . S
H1498 C1503 0.950 . S
H1499 C1504 0.949 . S
H1500 C1506 0.950 . S
H1501 C1507 0.950 . S
H1502 C1508 0.949 . S
C1503 H1498 0.950 . S
C1503 C1505 1.327 . S
C1503 C1509 1.429 . S
C1504 C1496 1.574 . S
C1504 H1499 0.949 . S
C1504 C1510 1.368 1_455 S
C1505 C1489 1.349 . S
C1505 H1497 0.950 . S
C1505 C1503 1.327 . S
C1506 C1494 1.349 . S
C1506 H1500 0.950 . S
C1506 C1507 1.327 . S
C1507 H1501 0.950 . S
C1507 C1506 1.327 . S
C1507 C1511 1.429 . S
C1508 C1491 1.574 . S
C1508 H1502 0.949 . S
C1508 C1512 1.368 1_655 S
C1509 C1490 1.429 . S
C1509 C1503 1.429 . S
C1509 C1510 1.523 . S
C1510 C1491 1.368 . S
C1510 C1504 1.368 1_655 S
C1510 C1509 1.523 . S
C1511 C1495 1.429 . S
C1511 C1507 1.429 . S
C1511 C1512 1.523 . S
C1512 C1496 1.368 . S
C1512 C1508 1.368 1_455 S
C1512 C1511 1.523 . S
H1513 C1488 0.950 . S
H1514 C1490 0.950 1_455 S
H1515 C1491 0.949 . S
H1516 C1493 0.950 . S
H1517 C1495 0.950 1_655 S
C1518 C1519 1.349 . S
C1518 C1520 1.327 . S
C1518 H1543 0.950 . S
C1519 C1518 1.349 . S
C1519 C1535 1.349 . S
C1520 C1518 1.327 . S
C1520 C1539 1.429 . S
C1520 H1544 0.950 . S
C1521 C1538 1.574 . S
C1521 C1540 1.368 . S
C1521 H1545 0.949 . S
H1522 C1526 0.949 . S
C1523 C1524 1.349 . S
C1523 C1525 1.327 . S
C1523 H1546 0.950 . S
C1524 C1523 1.349 . S
C1524 C1536 1.349 . S
C1525 C1523 1.327 . S
C1525 C1541 1.429 . S
C1525 H1547 0.950 . S
C1526 H1522 0.949 . S
C1526 C1534 1.574 . S
C1526 C1542 1.368 . S
H1527 C1535 0.950 . S
H1528 C1533 0.950 . S
H1529 C1534 0.949 . S
H1530 C1536 0.950 . S
H1531 C1537 0.950 . S
H1532 C1538 0.949 . S
C1533 H1528 0.950 . S
C1533 C1535 1.327 . S
C1533 C1539 1.429 . S
C1534 C1526 1.574 . S
C1534 H1529 0.949 . S
C1534 C1540 1.368 . S
C1535 C1519 1.349 . S
C1535 H1527 0.950 . S
C1535 C1533 1.327 . S
C1536 C1524 1.349 . S
C1536 H1530 0.950 . S
C1536 C1537 1.327 . S
C1537 H1531 0.950 . S
C1537 C1536 1.327 . S
C1537 C1541 1.429 . S
C1538 C1521 1.574 . S
C1538 H1532 0.949 . S
C1538 C1542 1.368 . S
C1539 C1520 1.429 . S
C1539 C1533 1.429 . S
C1539 C1540 1.523 . S
C1540 C1521 1.368 . S
C1540 C1534 1.368 . S
C1540 C1539 1.523 . S
C1541 C1525 1.429 . S
C1541 C1537 1.429 . S
C1541 C1542 1.523 . S
C1542 C1526 1.368 . S
C1542 C1538 1.368 . S
C1542 C1541 1.523 . S
H1543 C1518 0.950 . S
H1544 C1520 0.950 . S
H1545 C1521 0.949 . S
H1546 C1523 0.950 . S
H1547 C1525 0.950 . S
C1548 C1549 1.349 . S
C1548 C1550 1.327 . S
C1548 H1573 0.950 . S
C1549 C1548 1.349 . S
C1549 C1565 1.349 . S
C1550 C1548 1.327 . S
C1550 C1569 1.429 . S
C1550 H1574 0.950 . S
C1551 C1568 1.574 . S
C1551 C1570 1.368 . S
C1551 H1575 0.949 . S
H1552 C1556 0.949 . S
C1553 C1554 1.349 . S
C1553 C1555 1.327 . S
C1553 H1576 0.950 . S
C1554 C1553 1.349 . S
C1554 C1566 1.349 . S
C1555 C1553 1.327 . S
C1555 C1571 1.429 . S
C1555 H1577 0.950 . S
C1556 H1552 0.949 . S
C1556 C1564 1.574 . S
C1556 C1572 1.368 . S
H1557 C1565 0.950 . S
H1558 C1563 0.950 . S
H1559 C1564 0.949 . S
H1560 C1566 0.950 . S
H1561 C1567 0.950 . S
H1562 C1568 0.949 . S
C1563 H1558 0.950 . S
C1563 C1565 1.327 . S
C1563 C1569 1.429 . S
C1564 C1556 1.574 . S
C1564 H1559 0.949 . S
C1564 C1570 1.368 . S
C1565 C1549 1.349 . S
C1565 H1557 0.950 . S
C1565 C1563 1.327 . S
C1566 C1554 1.349 . S
C1566 H1560 0.950 . S
C1566 C1567 1.327 . S
C1567 H1561 0.950 . S
C1567 C1566 1.327 . S
C1567 C1571 1.429 . S
C1568 C1551 1.574 . S
C1568 H1562 0.949 . S
C1568 C1572 1.368 . S
C1569 C1550 1.429 . S
C1569 C1563 1.429 . S
C1569 C1570 1.523 . S
C1570 C1551 1.368 . S
C1570 C1564 1.368 . S
C1570 C1569 1.523 . S
C1571 C1555 1.429 . S
C1571 C1567 1.429 . S
C1571 C1572 1.523 . S
C1572 C1556 1.368 . S
C1572 C1568 1.368 . S
C1572 C1571 1.523 . S
H1573 C1548 0.950 . S
H1574 C1550 0.950 . S
H1575 C1551 0.949 . S
H1576 C1553 0.950 . S
H1577 C1555 0.950 . S
C1578 C1579 1.349 . S
C1578 C1580 1.327 . S
C1578 H1603 0.950 . S
C1579 C1578 1.349 . S
C1579 C1595 1.349 . S
C1580 C1578 1.327 . S
C1580 C1599 1.429 . S
C1580 H1604 0.950 . S
C1581 C1598 1.574 . S
C1581 C1600 1.368 . S
C1581 H1605 0.949 . S
H1582 C1586 0.949 . S
C1583 C1584 1.349 . S
C1583 C1585 1.327 . S
C1583 H1606 0.950 . S
C1584 C1583 1.349 . S
C1584 C1596 1.349 . S
C1585 C1583 1.327 . S
C1585 C1601 1.429 . S
C1585 H1607 0.950 . S
C1586 H1582 0.949 . S
C1586 C1594 1.574 . S
C1586 C1602 1.368 . S
H1587 C1595 0.950 . S
H1588 C1593 0.950 . S
H1589 C1594 0.949 . S
H1590 C1596 0.950 . S
H1591 C1597 0.950 . S
H1592 C1598 0.949 . S
C1593 H1588 0.950 . S
C1593 C1595 1.327 . S
C1593 C1599 1.429 . S
C1594 C1586 1.574 . S
C1594 H1589 0.949 . S
C1594 C1600 1.368 . S
C1595 C1579 1.349 . S
C1595 H1587 0.950 . S
C1595 C1593 1.327 . S
C1596 C1584 1.349 . S
C1596 H1590 0.950 . S
C1596 C1597 1.327 . S
C1597 H1591 0.950 . S
C1597 C1596 1.327 . S
C1597 C1601 1.429 . S
C1598 C1581 1.574 . S
C1598 H1592 0.949 . S
C1598 C1602 1.368 . S
C1599 C1580 1.429 . S
C1599 C1593 1.429 . S
C1599 C1600 1.523 . S
C1600 C1581 1.368 . S
C1600 C1594 1.368 . S
C1600 C1599 1.523 . S
C1601 C1585 1.429 . S
C1601 C1597 1.429 . S
C1601 C1602 1.523 . S
C1602 C1586 1.368 . S
C1602 C1598 1.368 . S
C1602 C1601 1.523 . S
H1603 C1578 0.950 . S
H1604 C1580 0.950 . S
H1605 C1581 0.949 . S
H1606 C1583 0.950 . S
H1607 C1585 0.950 . S
C1608 C1609 1.349 . S
C1608 C1610 1.327 . S
C1608 H1633 0.950 . S
C1609 C1608 1.349 . S
C1609 C1625 1.349 . S
C1610 C1608 1.327 . S
C1610 C1629 1.429 . S
C1610 H1634 0.950 . S
C1611 C1628 1.574 . S
C1611 C1630 1.368 . S
C1611 H1635 0.949 . S
H1612 C1616 0.949 . S
C1613 C1614 1.349 . S
C1613 C1615 1.327 . S
C1613 H1636 0.950 . S
C1614 C1613 1.349 . S
C1614 C1626 1.349 . S
C1615 C1613 1.327 . S
C1615 C1631 1.429 . S
C1615 H1637 0.950 . S
C1616 H1612 0.949 . S
C1616 C1624 1.574 . S
C1616 C1632 1.368 . S
H1617 C1625 0.950 . S
H1618 C1623 0.950 . S
H1619 C1624 0.949 . S
H1620 C1626 0.950 . S
H1621 C1627 0.950 . S
H1622 C1628 0.949 . S
C1623 H1618 0.950 . S
C1623 C1625 1.327 . S
C1623 C1629 1.429 . S
C1624 C1616 1.574 . S
C1624 H1619 0.949 . S
C1624 C1630 1.368 . S
C1625 C1609 1.349 . S
C1625 H1617 0.950 . S
C1625 C1623 1.327 . S
C1626 C1614 1.349 . S
C1626 H1620 0.950 . S
C1626 C1627 1.327 . S
C1627 H1621 0.950 . S
C1627 C1626 1.327 . S
C1627 C1631 1.429 . S
C1628 C1611 1.574 . S
C1628 H1622 0.949 . S
C1628 C1632 1.368 . S
C1629 C1610 1.429 . S
C1629 C1623 1.429 . S
C1629 C1630 1.523 . S
C1630 C1611 1.368 . S
C1630 C1624 1.368 . S
C1630 C1629 1.523 . S
C1631 C1615 1.429 . S
C1631 C1627 1.429 . S
C1631 C1632 1.523 . S
C1632 C1616 1.368 . S
C1632 C1628 1.368 . S
C1632 C1631 1.523 . S
H1633 C1608 0.950 . S
H1634 C1610 0.950 . S
H1635 C1611 0.949 . S
H1636 C1613 0.950 . S
H1637 C1615 0.950 . S
C1638 C1639 1.349 . S
C1638 C1640 1.327 . S
C1638 H1663 0.950 . S
C1639 C1638 1.349 . S
C1639 C1655 1.349 . S
C1640 C1638 1.327 . S
C1640 C1659 1.429 . S
C1640 H1664 0.950 . S
C1641 C1658 1.574 . S
C1641 C1660 1.368 . S
C1641 H1665 0.949 . S
H1642 C1646 0.949 . S
C1643 C1644 1.349 . S
C1643 C1645 1.327 . S
C1643 H1666 0.950 . S
C1644 C1643 1.349 . S
C1644 C1656 1.349 . S
C1645 C1643 1.327 . S
C1645 C1661 1.429 . S
C1645 H1667 0.950 . S
C1646 H1642 0.949 . S
C1646 C1654 1.574 . S
C1646 C1662 1.368 . S
H1647 C1655 0.950 . S
H1648 C1653 0.950 . S
H1649 C1654 0.949 . S
H1650 C1656 0.950 . S
H1651 C1657 0.950 . S
H1652 C1658 0.949 . S
C1653 H1648 0.950 . S
C1653 C1655 1.327 . S
C1653 C1659 1.429 . S
C1654 C1646 1.574 . S
C1654 H1649 0.949 . S
C1654 C1660 1.368 . S
C1655 C1639 1.349 . S
C1655 H1647 0.950 . S
C1655 C1653 1.327 . S
C1656 C1644 1.349 . S
C1656 H1650 0.950 . S
C1656 C1657 1.327 . S
C1657 H1651 0.950 . S
C1657 C1656 1.327 . S
C1657 C1661 1.429 . S
C1658 C1641 1.574 . S
C1658 H1652 0.949 . S
C1658 C1662 1.368 . S
C1659 C1640 1.429 . S
C1659 C1653 1.429 . S
C1659 C1660 1.523 . S
C1660 C1641 1.368 . S
C1660 C1654 1.368 . S
C1660 C1659 1.523 . S
C1661 C1645 1.429 . S
C1661 C1657 1.429 . S
C1661 C1662 1.523 . S
C1662 C1646 1.368 . S
C1662 C1658 1.368 . S
C1662 C1661 1.523 . S
H1663 C1638 0.950 . S
H1664 C1640 0.950 . S
H1665 C1641 0.949 . S
H1666 C1643 0.950 . S
H1667 C1645 0.950 . S
C1668 C1669 1.349 . S
C1668 C1670 1.327 . S
C1668 H1693 0.950 . S
C1669 C1668 1.349 . S
C1669 C1685 1.349 . S
C1670 C1668 1.327 . S
C1670 C1689 1.429 . S
C1670 H1694 0.950 . S
C1671 C1688 1.574 . S
C1671 C1690 1.368 . S
C1671 H1695 0.949 . S
H1672 C1676 0.949 . S
C1673 C1674 1.349 . S
C1673 C1675 1.327 . S
C1673 H1696 0.950 . S
C1674 C1673 1.349 . S
C1674 C1686 1.349 . S
C1675 C1673 1.327 . S
C1675 C1691 1.429 . S
C1675 H1697 0.950 . S
C1676 H1672 0.949 . S
C1676 C1684 1.574 . S
C1676 C1692 1.368 . S
H1677 C1685 0.950 . S
H1678 C1683 0.950 . S
H1679 C1684 0.949 . S
H1680 C1686 0.950 . S
H1681 C1687 0.950 . S
H1682 C1688 0.949 . S
C1683 H1678 0.950 . S
C1683 C1685 1.327 . S
C1683 C1689 1.429 . S
C1684 C1676 1.574 . S
C1684 H1679 0.949 . S
C1684 C1690 1.368 . S
C1685 C1669 1.349 . S
C1685 H1677 0.950 . S
C1685 C1683 1.327 . S
C1686 C1674 1.349 . S
C1686 H1680 0.950 . S
C1686 C1687 1.327 . S
C1687 H1681 0.950 . S
C1687 C1686 1.327 . S
C1687 C1691 1.429 . S
C1688 C1671 1.574 . S
C1688 H1682 0.949 . S
C1688 C1692 1.368 . S
C1689 C1670 1.429 . S
C1689 C1683 1.429 . S
C1689 C1690 1.523 . S
C1690 C1671 1.368 . S
C1690 C1684 1.368 . S
C1690 C1689 1.523 . S
C1691 C1675 1.429 . S
C1691 C1687 1.429 . S
C1691 C1692 1.523 . S
C1692 C1676 1.368 . S
C1692 C1688 1.368 . S
C1692 C1691 1.523 . S
H1693 C1668 0.950 . S
H1694 C1670 0.950 . S
H1695 C1671 0.949 . S
H1696 C1673 0.950 . S
H1697 C1675 0.950 . S
C1698 C1699 1.349 . S
C1698 C1700 1.327 . S
C1698 H1723 0.950 . S
C1699 C1698 1.349 . S
C1699 C1715 1.349 . S
C1700 C1698 1.327 . S
C1700 C1719 1.429 . S
C1700 H1724 0.950 . S
C1701 C1718 1.574 . S
C1701 C1720 1.368 . S
C1701 H1725 0.949 . S
H1702 C1706 0.949 . S
C1703 C1704 1.349 . S
C1703 C1705 1.327 . S
C1703 H1726 0.950 . S
C1704 C1703 1.349 . S
C1704 C1716 1.349 . S
C1705 C1703 1.327 . S
C1705 C1721 1.429 . S
C1705 H1727 0.950 . S
C1706 H1702 0.949 . S
C1706 C1714 1.574 . S
C1706 C1722 1.368 . S
H1707 C1715 0.950 . S
H1708 C1713 0.950 . S
H1709 C1714 0.949 . S
H1710 C1716 0.950 . S
H1711 C1717 0.950 . S
H1712 C1718 0.949 . S
C1713 H1708 0.950 . S
C1713 C1715 1.327 . S
C1713 C1719 1.429 . S
C1714 C1706 1.574 . S
C1714 H1709 0.949 . S
C1714 C1720 1.368 . S
C1715 C1699 1.349 . S
C1715 H1707 0.950 . S
C1715 C1713 1.327 . S
C1716 C1704 1.349 . S
C1716 H1710 0.950 . S
C1716 C1717 1.327 . S
C1717 H1711 0.950 . S
C1717 C1716 1.327 . S
C1717 C1721 1.429 . S
C1718 C1701 1.574 . S
C1718 H1712 0.949 . S
C1718 C1722 1.368 . S
C1719 C1700 1.429 . S
C1719 C1713 1.429 . S
C1719 C1720 1.523 . S
C1720 C1701 1.368 . S
C1720 C1714 1.368 . S
C1720 C1719 1.523 . S
C1721 C1705 1.429 . S
C1721 C1717 1.429 . S
C1721 C1722 1.523 . S
C1722 C1706 1.368 . S
C1722 C1718 1.368 . S
C1722 C1721 1.523 . S
H1723 C1698 0.950 . S
H1724 C1700 0.950 . S
H1725 C1701 0.949 . S
H1726 C1703 0.950 . S
H1727 C1705 0.950 . S
C1728 C1729 1.349 . S
C1728 C1730 1.327 . S
C1728 H1753 0.950 . S
C1729 C1728 1.349 . S
C1729 C1745 1.349 . S
C1730 C1728 1.327 . S
C1730 C1749 1.429 . S
C1730 H1754 0.950 . S
C1731 C1748 1.574 . S
C1731 C1750 1.368 . S
C1731 H1755 0.949 . S
H1732 C1736 0.949 . S
C1733 C1734 1.349 . S
C1733 C1735 1.327 . S
C1733 H1756 0.950 . S
C1734 C1733 1.349 . S
C1734 C1746 1.349 . S
C1735 C1733 1.327 . S
C1735 C1751 1.429 . S
C1735 H1757 0.950 . S
C1736 H1732 0.949 . S
C1736 C1744 1.574 . S
C1736 C1752 1.368 . S
H1737 C1745 0.950 . S
H1738 C1743 0.950 . S
H1739 C1744 0.949 . S
H1740 C1746 0.950 . S
H1741 C1747 0.950 . S
H1742 C1748 0.949 . S
C1743 H1738 0.950 . S
C1743 C1745 1.327 . S
C1743 C1749 1.429 . S
C1744 C1736 1.574 . S
C1744 H1739 0.949 . S
C1744 C1750 1.368 . S
C1745 C1729 1.349 . S
C1745 H1737 0.950 . S
C1745 C1743 1.327 . S
C1746 C1734 1.349 . S
C1746 H1740 0.950 . S
C1746 C1747 1.327 . S
C1747 H1741 0.950 . S
C1747 C1746 1.327 . S
C1747 C1751 1.429 . S
C1748 C1731 1.574 . S
C1748 H1742 0.949 . S
C1748 C1752 1.368 . S
C1749 C1730 1.429 . S
C1749 C1743 1.429 . S
C1749 C1750 1.523 . S
C1750 C1731 1.368 . S
C1750 C1744 1.368 . S
C1750 C1749 1.523 . S
C1751 C1735 1.429 . S
C1751 C1747 1.429 . S
C1751 C1752 1.523 . S
C1752 C1736 1.368 . S
C1752 C1748 1.368 . S
C1752 C1751 1.523 . S
H1753 C1728 0.950 . S
H1754 C1730 0.950 . S
H1755 C1731 0.949 . S
H1756 C1733 0.950 . S
H1757 C1735 0.950 . S
C1758 C1759 1.349 . S
C1758 C1760 1.327 . S
C1758 H1783 0.950 . S
C1759 C1758 1.349 . S
C1759 C1775 1.349 . S
C1760 C1758 1.327 . S
C1760 C1779 1.429 . S
C1760 H1784 0.950 . S
C1761 C1778 1.574 . S
C1761 C1780 1.368 . S
C1761 H1785 0.949 . S
H1762 C1766 0.949 . S
C1763 C1764 1.349 . S
C1763 C1765 1.327 . S
C1763 H1786 0.950 . S
C1764 C1763 1.349 . S
C1764 C1776 1.349 . S
C1765 C1763 1.327 . S
C1765 C1781 1.429 . S
C1765 H1787 0.950 . S
C1766 H1762 0.949 . S
C1766 C1774 1.574 . S
C1766 C1782 1.368 . S
H1767 C1775 0.950 . S
H1768 C1773 0.950 . S
H1769 C1774 0.949 . S
H1770 C1776 0.950 . S
H1771 C1777 0.950 . S
H1772 C1778 0.949 . S
C1773 H1768 0.950 . S
C1773 C1775 1.327 . S
C1773 C1779 1.429 . S
C1774 C1766 1.574 . S
C1774 H1769 0.949 . S
C1774 C1780 1.368 . S
C1775 C1759 1.349 . S
C1775 H1767 0.950 . S
C1775 C1773 1.327 . S
C1776 C1764 1.349 . S
C1776 H1770 0.950 . S
C1776 C1777 1.327 . S
C1777 H1771 0.950 . S
C1777 C1776 1.327 . S
C1777 C1781 1.429 . S
C1778 C1761 1.574 . S
C1778 H1772 0.949 . S
C1778 C1782 1.368 . S
C1779 C1760 1.429 . S
C1779 C1773 1.429 . S
C1779 C1780 1.523 . S
C1780 C1761 1.368 . S
C1780 C1774 1.368 . S
C1780 C1779 1.523 . S
C1781 C1765 1.429 . S
C1781 C1777 1.429 . S
C1781 C1782 1.523 . S
C1782 C1766 1.368 . S
C1782 C1778 1.368 . S
C1782 C1781 1.523 . S
H1783 C1758 0.950 . S
H1784 C1760 0.950 . S
H1785 C1761 0.949 . S
H1786 C1763 0.950 . S
H1787 C1765 0.950 . S
C1788 C1789 1.349 . S
C1788 C1790 1.327 . S
C1788 H1813 0.950 . S
C1789 C1788 1.349 . S
C1789 C1805 1.349 . S
C1790 C1788 1.327 . S
C1790 C1809 1.429 . S
C1790 H1814 0.950 . S
C1791 C1808 1.574 . S
C1791 C1810 1.368 . S
C1791 H1815 0.949 . S
H1792 C1796 0.949 . S
C1793 C1794 1.349 . S
C1793 C1795 1.327 . S
C1793 H1816 0.950 . S
C1794 C1793 1.349 . S
C1794 C1806 1.349 . S
C1795 C1793 1.327 . S
C1795 C1811 1.429 . S
C1795 H1817 0.950 . S
C1796 H1792 0.949 . S
C1796 C1804 1.574 . S
C1796 C1812 1.368 . S
H1797 C1805 0.950 . S
H1798 C1803 0.950 . S
H1799 C1804 0.949 . S
H1800 C1806 0.950 . S
H1801 C1807 0.950 . S
H1802 C1808 0.949 . S
C1803 H1798 0.950 . S
C1803 C1805 1.327 . S
C1803 C1809 1.429 . S
C1804 C1796 1.574 . S
C1804 H1799 0.949 . S
C1804 C1810 1.368 . S
C1805 C1789 1.349 . S
C1805 H1797 0.950 . S
C1805 C1803 1.327 . S
C1806 C1794 1.349 . S
C1806 H1800 0.950 . S
C1806 C1807 1.327 . S
C1807 H1801 0.950 . S
C1807 C1806 1.327 . S
C1807 C1811 1.429 . S
C1808 C1791 1.574 . S
C1808 H1802 0.949 . S
C1808 C1812 1.368 . S
C1809 C1790 1.429 . S
C1809 C1803 1.429 . S
C1809 C1810 1.523 . S
C1810 C1791 1.368 . S
C1810 C1804 1.368 . S
C1810 C1809 1.523 . S
C1811 C1795 1.429 . S
C1811 C1807 1.429 . S
C1811 C1812 1.523 . S
C1812 C1796 1.368 . S
C1812 C1808 1.368 . S
C1812 C1811 1.523 . S
H1813 C1788 0.950 . S
H1814 C1790 0.950 . S
H1815 C1791 0.949 . S
H1816 C1793 0.950 . S
H1817 C1795 0.950 . S
C1818 C1819 1.349 . S
C1818 C1820 1.327 . S
C1818 H1843 0.950 . S
C1819 C1818 1.349 . S
C1819 C1835 1.349 . S
C1820 C1818 1.327 . S
C1820 C1839 1.429 . S
C1820 H1844 0.950 . S
C1821 C1838 1.574 . S
C1821 C1840 1.368 . S
C1821 H1845 0.949 . S
H1822 C1826 0.949 . S
C1823 C1824 1.349 . S
C1823 C1825 1.327 . S
C1823 H1846 0.950 . S
C1824 C1823 1.349 . S
C1824 C1836 1.349 . S
C1825 C1823 1.327 . S
C1825 C1841 1.429 . S
C1825 H1847 0.950 . S
C1826 H1822 0.949 . S
C1826 C1834 1.574 . S
C1826 C1842 1.368 . S
H1827 C1835 0.950 . S
H1828 C1833 0.950 . S
H1829 C1834 0.949 . S
H1830 C1836 0.950 . S
H1831 C1837 0.950 . S
H1832 C1838 0.949 . S
C1833 H1828 0.950 . S
C1833 C1835 1.327 . S
C1833 C1839 1.429 . S
C1834 C1826 1.574 . S
C1834 H1829 0.949 . S
C1834 C1840 1.368 . S
C1835 C1819 1.349 . S
C1835 H1827 0.950 . S
C1835 C1833 1.327 . S
C1836 C1824 1.349 . S
C1836 H1830 0.950 . S
C1836 C1837 1.327 . S
C1837 H1831 0.950 . S
C1837 C1836 1.327 . S
C1837 C1841 1.429 . S
C1838 C1821 1.574 . S
C1838 H1832 0.949 . S
C1838 C1842 1.368 . S
C1839 C1820 1.429 . S
C1839 C1833 1.429 . S
C1839 C1840 1.523 . S
C1840 C1821 1.368 . S
C1840 C1834 1.368 . S
C1840 C1839 1.523 . S
C1841 C1825 1.429 . S
C1841 C1837 1.429 . S
C1841 C1842 1.523 . S
C1842 C1826 1.368 . S
C1842 C1838 1.368 . S
C1842 C1841 1.523 . S
H1843 C1818 0.950 . S
H1844 C1820 0.950 . S
H1845 C1821 0.949 . S
H1846 C1823 0.950 . S
H1847 C1825 0.950 . S
C1848 C1849 1.349 . S
C1848 C1850 1.327 . S
C1848 H1873 0.950 . S
C1849 C1848 1.349 . S
C1849 C1865 1.349 . S
C1850 C1848 1.327 . S
C1850 C1869 1.429 . S
C1850 H1874 0.950 . S
C1851 C1868 1.574 . S
C1851 C1870 1.368 . S
C1851 H1875 0.949 . S
H1852 C1856 0.949 . S
C1853 C1854 1.349 . S
C1853 C1855 1.327 . S
C1853 H1876 0.950 . S
C1854 C1853 1.349 . S
C1854 C1866 1.349 . S
C1855 C1853 1.327 . S
C1855 C1871 1.429 . S
C1855 H1877 0.950 . S
C1856 H1852 0.949 . S
C1856 C1864 1.574 . S
C1856 C1872 1.368 . S
H1857 C1865 0.950 . S
H1858 C1863 0.950 . S
H1859 C1864 0.949 . S
H1860 C1866 0.950 . S
H1861 C1867 0.950 . S
H1862 C1868 0.949 . S
C1863 H1858 0.950 . S
C1863 C1865 1.327 . S
C1863 C1869 1.429 . S
C1864 C1856 1.574 . S
C1864 H1859 0.949 . S
C1864 C1870 1.368 . S
C1865 C1849 1.349 . S
C1865 H1857 0.950 . S
C1865 C1863 1.327 . S
C1866 C1854 1.349 . S
C1866 H1860 0.950 . S
C1866 C1867 1.327 . S
C1867 H1861 0.950 . S
C1867 C1866 1.327 . S
C1867 C1871 1.429 . S
C1868 C1851 1.574 . S
C1868 H1862 0.949 . S
C1868 C1872 1.368 . S
C1869 C1850 1.429 . S
C1869 C1863 1.429 . S
C1869 C1870 1.523 . S
C1870 C1851 1.368 . S
C1870 C1864 1.368 . S
C1870 C1869 1.523 . S
C1871 C1855 1.429 . S
C1871 C1867 1.429 . S
C1871 C1872 1.523 . S
C1872 C1856 1.368 . S
C1872 C1868 1.368 . S
C1872 C1871 1.523 . S
H1873 C1848 0.950 . S
H1874 C1850 0.950 . S
H1875 C1851 0.949 . S
H1876 C1853 0.950 . S
H1877 C1855 0.950 . S
C1878 C1879 1.349 . S
C1878 C1880 1.327 . S
C1878 H1903 0.950 . S
C1879 C1878 1.349 . S
C1879 C1895 1.349 . S
C1880 C1878 1.327 . S
C1880 C1899 1.429 . S
C1880 H1904 0.950 . S
C1881 C1898 1.574 . S
C1881 C1900 1.368 . S
C1881 H1905 0.949 . S
H1882 C1886 0.949 . S
C1883 C1884 1.349 . S
C1883 C1885 1.327 . S
C1883 H1906 0.950 . S
C1884 C1883 1.349 . S
C1884 C1896 1.349 . S
C1885 C1883 1.327 . S
C1885 C1901 1.429 . S
C1885 H1907 0.950 . S
C1886 H1882 0.949 . S
C1886 C1894 1.574 . S
C1886 C1902 1.368 . S
H1887 C1895 0.950 . S
H1888 C1893 0.950 . S
H1889 C1894 0.949 . S
H1890 C1896 0.950 . S
H1891 C1897 0.950 . S
H1892 C1898 0.949 . S
C1893 H1888 0.950 . S
C1893 C1895 1.327 . S
C1893 C1899 1.429 . S
C1894 C1886 1.574 . S
C1894 H1889 0.949 . S
C1894 C1900 1.368 . S
C1895 C1879 1.349 . S
C1895 H1887 0.950 . S
C1895 C1893 1.327 . S
C1896 C1884 1.349 . S
C1896 H1890 0.950 . S
C1896 C1897 1.327 . S
C1897 H1891 0.950 . S
C1897 C1896 1.327 . S
C1897 C1901 1.429 . S
C1898 C1881 1.574 . S
C1898 H1892 0.949 . S
C1898 C1902 1.368 . S
C1899 C1880 1.429 . S
C1899 C1893 1.429 . S
C1899 C1900 1.523 . S
C1900 C1881 1.368 . S
C1900 C1894 1.368 . S
C1900 C1899 1.523 . S
C1901 C1885 1.429 . S
C1901 C1897 1.429 . S
C1901 C1902 1.523 . S
C1902 C1886 1.368 . S
C1902 C1898 1.368 . S
C1902 C1901 1.523 . S
H1903 C1878 0.950 . S
H1904 C1880 0.950 . S
H1905 C1881 0.949 . S
H1906 C1883 0.950 . S
H1907 C1885 0.950 . S
C1908 C1909 1.349 . S
C1908 C1910 1.327 . S
C1908 H1933 0.950 . S
C1909 C1908 1.349 . S
C1909 C1925 1.349 1_455 S
C1910 C1908 1.327 . S
C1910 C1929 1.429 . S
C1910 H1934 0.950 . S
C1911 C1928 1.574 . S
C1911 C1930 1.368 1_655 S
C1911 H1935 0.949 . S
H1912 C1916 0.949 . S
C1913 C1914 1.349 . S
C1913 C1915 1.327 . S
C1913 H1936 0.950 . S
C1914 C1913 1.349 . S
C1914 C1926 1.349 1_655 S
C1915 C1913 1.327 . S
C1915 C1931 1.429 . S
C1915 H1937 0.950 . S
C1916 H1912 0.949 . S
C1916 C1924 1.574 . S
C1916 C1932 1.368 1_455 S
H1917 C1925 0.950 . S
H1918 C1923 0.950 . S
H1919 C1924 0.949 . S
H1920 C1926 0.950 . S
H1921 C1927 0.950 . S
H1922 C1928 0.949 . S
C1923 H1918 0.950 . S
C1923 C1925 1.327 . S
C1923 C1929 1.429 1_655 S
C1924 C1916 1.574 . S
C1924 H1919 0.949 . S
C1924 C1930 1.368 . S
C1925 C1909 1.349 1_655 S
C1925 H1917 0.950 . S
C1925 C1923 1.327 . S
C1926 C1914 1.349 1_455 S
C1926 H1920 0.950 . S
C1926 C1927 1.327 . S
C1927 H1921 0.950 . S
C1927 C1926 1.327 . S
C1927 C1931 1.429 1_455 S
C1928 C1911 1.574 . S
C1928 H1922 0.949 . S
C1928 C1932 1.368 . S
C1929 C1910 1.429 . S
C1929 C1923 1.429 1_455 S
C1929 C1930 1.523 . S
C1930 C1911 1.368 1_455 S
C1930 C1924 1.368 . S
C1930 C1929 1.523 . S
C1931 C1915 1.429 . S
C1931 C1927 1.429 1_655 S
C1931 C1932 1.523 . S
C1932 C1916 1.368 1_655 S
C1932 C1928 1.368 . S
C1932 C1931 1.523 . S
H1933 C1908 0.950 . S
H1934 C1910 0.950 . S
H1935 C1911 0.949 . S
H1936 C1913 0.950 . S
H1937 C1915 0.950 . S
C1938 C1939 1.349 . S
C1938 C1940 1.327 . S
C1938 H1963 0.950 . S
C1939 C1938 1.349 . S
C1939 C1955 1.349 . S
C1940 C1938 1.327 . S
C1940 C1959 1.429 . S
C1940 H1964 0.950 . S
C1941 C1958 1.574 . S
C1941 C1960 1.368 . S
C1941 H1965 0.949 . S
H1942 C1946 0.949 . S
C1943 C1944 1.349 . S
C1943 C1945 1.327 . S
C1943 H1966 0.950 . S
C1944 C1943 1.349 . S
C1944 C1956 1.349 . S
C1945 C1943 1.327 . S
C1945 C1961 1.429 . S
C1945 H1967 0.950 . S
C1946 H1942 0.949 . S
C1946 C1954 1.574 . S
C1946 C1962 1.368 . S
H1947 C1955 0.950 . S
H1948 C1953 0.950 . S
H1949 C1954 0.949 . S
H1950 C1956 0.950 . S
H1951 C1957 0.950 . S
H1952 C1958 0.949 . S
C1953 H1948 0.950 . S
C1953 C1955 1.327 . S
C1953 C1959 1.429 . S
C1954 C1946 1.574 . S
C1954 H1949 0.949 . S
C1954 C1960 1.368 . S
C1955 C1939 1.349 . S
C1955 H1947 0.950 . S
C1955 C1953 1.327 . S
C1956 C1944 1.349 . S
C1956 H1950 0.950 . S
C1956 C1957 1.327 . S
C1957 H1951 0.950 . S
C1957 C1956 1.327 . S
C1957 C1961 1.429 . S
C1958 C1941 1.574 . S
C1958 H1952 0.949 . S
C1958 C1962 1.368 . S
C1959 C1940 1.429 . S
C1959 C1953 1.429 . S
C1959 C1960 1.523 . S
C1960 C1941 1.368 . S
C1960 C1954 1.368 . S
C1960 C1959 1.523 . S
C1961 C1945 1.429 . S
C1961 C1957 1.429 . S
C1961 C1962 1.523 . S
C1962 C1946 1.368 . S
C1962 C1958 1.368 . S
C1962 C1961 1.523 . S
H1963 C1938 0.950 . S
H1964 C1940 0.950 . S
H1965 C1941 0.949 . S
H1966 C1943 0.950 . S
H1967 C1945 0.950 . S
C1968 C1969 1.349 . S
C1968 C1970 1.327 . S
C1968 H1993 0.950 . S
C1969 C1968 1.349 . S
C1969 C1985 1.349 . S
C1970 C1968 1.327 . S
C1970 C1989 1.429 . S
C1970 H1994 0.950 . S
C1971 C1988 1.597 1_545 S
C1971 C1990 1.368 . S
C1971 H1995 0.949 . S
H1972 C1976 0.949 . S
C1973 C1974 1.349 . S
C1973 C1975 1.327 . S
C1973 H1996 0.950 . S
C1974 C1973 1.349 . S
C1974 C1986 1.349 . S
C1975 C1973 1.327 . S
C1975 C1991 1.429 . S
C1975 H1997 0.950 . S
C1976 H1972 0.949 . S
C1976 C1984 1.597 1_565 S
C1976 C1992 1.368 . S
H1977 C1985 0.950 . S
H1978 C1983 0.950 . S
H1979 C1984 0.944 . S
H1980 C1986 0.950 . S
H1981 C1987 0.950 . S
H1982 C1988 0.944 . S
C1983 H1978 0.950 . S
C1983 C1985 1.327 . S
C1983 C1989 1.429 . S
C1984 C1976 1.597 1_545 S
C1984 H1979 0.944 . S
C1984 C1990 1.356 . S
C1985 C1969 1.349 . S
C1985 H1977 0.950 . S
C1985 C1983 1.327 . S
C1986 C1974 1.349 . S
C1986 H1980 0.950 . S
C1986 C1987 1.327 . S
C1987 H1981 0.950 . S
C1987 C1986 1.327 . S
C1987 C1991 1.429 . S
C1988 C1971 1.597 1_565 S
C1988 H1982 0.944 . S
C1988 C1992 1.356 . S
C1989 C1970 1.429 . S
C1989 C1983 1.429 . S
C1989 C1990 1.523 . S
C1990 C1971 1.368 . S
C1990 C1984 1.356 . S
C1990 C1989 1.523 . S
C1991 C1975 1.429 . S
C1991 C1987 1.429 . S
C1991 C1992 1.523 . S
C1992 C1976 1.368 . S
C1992 C1988 1.356 . S
C1992 C1991 1.523 . S
H1993 C1968 0.950 . S
H1994 C1970 0.950 . S
H1995 C1971 0.949 . S
H1996 C1973 0.950 . S
H1997 C1975 0.950 . S
C1998 C1999 1.349 . S
C1998 C2000 1.331 . S
C1998 H2023 0.947 1_545 S
C1999 C1998 1.349 . S
C1999 C2015 1.349 . S
C2000 C1998 1.331 . S
C2000 C2019 1.429 . S
C2000 H2024 0.945 1_545 S
C2001 C2018 1.574 . S
C2001 C2020 1.368 1_554 S
C2001 H2025 0.949 . S
H2002 C2006 0.949 . S
C2003 C2004 1.349 . S
C2003 C2005 1.331 . S
C2003 H2026 0.947 1_565 S
C2004 C2003 1.349 . S
C2004 C2016 1.349 . S
C2005 C2003 1.331 . S
C2005 C2021 1.429 . S
C2005 H2027 0.946 1_565 S
C2006 H2002 0.949 . S
C2006 C2014 1.574 . S
C2006 C2022 1.368 1_556 S
H2007 C2015 0.950 1_554 S
H2008 C2013 0.950 . S
H2009 C2014 0.949 . S
H2010 C2016 0.950 1_556 S
H2011 C2017 0.950 . S
H2012 C2018 0.949 . S
C2013 H2008 0.950 . S
C2013 C2015 1.327 1_554 S
C2013 C2019 1.429 1_554 S
C2014 C2006 1.574 . S
C2014 H2009 0.949 . S
C2014 C2020 1.368 1_565 S
C2015 C1999 1.349 . S
C2015 H2007 0.950 1_556 S
C2015 C2013 1.327 1_556 S
C2016 C2004 1.349 . S
C2016 H2010 0.950 1_554 S
C2016 C2017 1.327 1_554 S
C2017 H2011 0.950 . S
C2017 C2016 1.327 1_556 S
C2017 C2021 1.429 1_556 S
C2018 C2001 1.574 . S
C2018 H2012 0.949 . S
C2018 C2022 1.368 1_545 S
C2019 C2000 1.429 . S
C2019 C2013 1.429 1_556 S
C2019 C2020 1.523 . S
C2020 C2001 1.368 1_556 S
C2020 C2014 1.368 1_545 S
C2020 C2019 1.523 . S
C2021 C2005 1.429 . S
C2021 C2017 1.429 1_554 S
C2021 C2022 1.523 . S
C2022 C2006 1.368 1_554 S
C2022 C2018 1.368 1_565 S
C2022 C2021 1.523 . S
H2023 C1998 0.947 1_565 S
H2024 C2000 0.945 1_565 S
H2025 C2001 0.949 . S
H2026 C2003 0.947 1_545 S
H2027 C2005 0.946 1_545 S
C2028 C2029 1.349 1_655 S
C2028 C2030 1.327 . S
C2028 H2053 0.950 . S
C2029 C2028 1.349 1_455 S
C2029 C2045 1.349 . S
C2030 C2028 1.327 . S
C2030 C2049 1.429 1_655 S
C2030 H2054 0.950 . S
C2031 C2048 1.574 . S
C2031 C2050 1.368 1_556 S
C2031 H2055 0.949 . S
H2032 C2036 0.949 . S
C2033 C2034 1.349 1_455 S
C2033 C2035 1.327 . S
C2033 H2056 0.950 . S
C2034 C2033 1.349 1_655 S
C2034 C2046 1.349 . S
C2035 C2033 1.327 . S
C2035 C2051 1.429 1_455 S
C2035 H2057 0.950 . S
C2036 H2032 0.949 . S
C2036 C2044 1.574 . S
C2036 C2052 1.368 1_554 S
H2037 C2045 0.950 . S
H2038 C2043 0.950 . S
H2039 C2044 0.949 . S
H2040 C2046 0.950 . S
H2041 C2047 0.950 . S
H2042 C2048 0.949 . S
C2043 H2038 0.950 . S
C2043 C2045 1.327 . S
C2043 C2049 1.429 . S
C2044 C2036 1.574 . S
C2044 H2039 0.949 . S
C2044 C2050 1.368 1_655 S
C2045 C2029 1.349 . S
C2045 H2037 0.950 . S
C2045 C2043 1.327 . S
C2046 C2034 1.349 . S
C2046 H2040 0.950 . S
C2046 C2047 1.327 . S
C2047 H2041 0.950 . S
C2047 C2046 1.327 . S
C2047 C2051 1.429 . S
C2048 C2031 1.574 . S
C2048 H2042 0.949 . S
C2048 C2052 1.368 1_455 S
C2049 C2030 1.429 1_455 S
C2049 C2043 1.429 . S
C2049 C2050 1.523 . S
C2050 C2031 1.368 1_554 S
C2050 C2044 1.368 1_455 S
C2050 C2049 1.523 . S
C2051 C2035 1.429 1_655 S
C2051 C2047 1.429 . S
C2051 C2052 1.523 . S
C2052 C2036 1.368 1_556 S
C2052 C2048 1.368 1_655 S
C2052 C2051 1.523 . S
H2053 C2028 0.950 . S
H2054 C2030 0.950 . S
H2055 C2031 0.949 . S
H2056 C2033 0.950 . S
H2057 C2035 0.950 . S
C2058 C2059 1.349 . S
C2058 C2060 1.327 . S
C2058 H2083 0.950 . S
C2059 C2058 1.349 . S
C2059 C2075 1.349 . S
C2060 C2058 1.327 . S
C2060 C2079 1.429 . S
C2060 H2084 0.950 . S
C2061 C2078 1.574 . S
C2061 C2080 1.368 1_556 S
C2061 H2085 0.949 . S
H2062 C2066 0.949 . S
C2063 C2064 1.349 . S
C2063 C2065 1.327 . S
C2063 H2086 0.950 . S
C2064 C2063 1.349 . S
C2064 C2076 1.349 . S
C2065 C2063 1.327 . S
C2065 C2081 1.429 . S
C2065 H2087 0.950 . S
C2066 H2062 0.949 . S
C2066 C2074 1.574 . S
C2066 C2082 1.368 1_554 S
H2067 C2075 0.950 1_556 S
H2068 C2073 0.950 . S
H2069 C2074 0.949 . S
H2070 C2076 0.950 1_554 S
H2071 C2077 0.950 . S
H2072 C2078 0.949 . S
C2073 H2068 0.950 . S
C2073 C2075 1.327 1_556 S
C2073 C2079 1.429 1_556 S
C2074 C2066 1.574 . S
C2074 H2069 0.949 . S
C2074 C2080 1.368 . S
C2075 C2059 1.349 . S
C2075 H2067 0.950 1_554 S
C2075 C2073 1.327 1_554 S
C2076 C2064 1.349 . S
C2076 H2070 0.950 1_556 S
C2076 C2077 1.327 1_556 S
C2077 H2071 0.950 . S
C2077 C2076 1.327 1_554 S
C2077 C2081 1.429 1_554 S
C2078 C2061 1.574 . S
C2078 H2072 0.949 . S
C2078 C2082 1.368 . S
C2079 C2060 1.429 . S
C2079 C2073 1.429 1_554 S
C2079 C2080 1.523 . S
C2080 C2061 1.368 1_554 S
C2080 C2074 1.368 . S
C2080 C2079 1.523 . S
C2081 C2065 1.429 . S
C2081 C2077 1.429 1_556 S
C2081 C2082 1.523 . S
C2082 C2066 1.368 1_556 S
C2082 C2078 1.368 . S
C2082 C2081 1.523 . S
H2083 C2058 0.950 . S
H2084 C2060 0.950 . S
H2085 C2061 0.949 . S
H2086 C2063 0.950 . S
H2087 C2065 0.950 . S
C2088 C2089 1.349 1_554 S
C2088 C2090 1.327 . S
C2088 H2113 0.950 1_554 S
C2089 C2088 1.349 1_556 S
C2089 C2105 1.353 . S
C2090 C2088 1.327 . S
C2090 C2109 1.429 . S
C2090 H2114 0.950 . S
C2091 C2108 1.574 . S
C2091 C2110 1.368 . S
C2091 H2115 0.949 . S
H2092 C2096 0.949 . S
C2093 C2094 1.349 . S
C2093 C2095 1.327 . S
C2093 H2116 0.950 . S
C2094 C2093 1.349 . S
C2094 C2106 1.349 . S
C2095 C2093 1.327 . S
C2095 C2111 1.429 . S
C2095 H2117 0.950 . S
C2096 H2092 0.949 . S
C2096 C2104 1.574 . S
C2096 C2112 1.368 . S
H2097 C2105 0.956 . S
H2098 C2103 0.950 . S
H2099 C2104 0.949 . S
H2100 C2106 0.950 . S
H2101 C2107 0.950 . S
H2102 C2108 0.949 . S
C2103 H2098 0.950 . S
C2103 C2105 1.317 1_554 S
C2103 C2109 1.429 . S
C2104 C2096 1.574 . S
C2104 H2099 0.949 . S
C2104 C2110 1.368 . S
C2105 C2089 1.353 . S
C2105 H2097 0.956 . S
C2105 C2103 1.317 1_556 S
C2106 C2094 1.349 . S
C2106 H2100 0.950 . S
C2106 C2107 1.327 . S
C2107 H2101 0.950 . S
C2107 C2106 1.327 . S
C2107 C2111 1.429 . S
C2108 C2091 1.574 . S
C2108 H2102 0.949 . S
C2108 C2112 1.368 . S
C2109 C2090 1.429 . S
C2109 C2103 1.429 . S
C2109 C2110 1.523 . S
C2110 C2091 1.368 . S
C2110 C2104 1.368 . S
C2110 C2109 1.523 . S
C2111 C2095 1.429 . S
C2111 C2107 1.429 . S
C2111 C2112 1.523 . S
C2112 C2096 1.368 . S
C2112 C2108 1.368 . S
C2112 C2111 1.523 . S
H2113 C2088 0.950 1_556 S
H2114 C2090 0.950 . S
H2115 C2091 0.949 . S
H2116 C2093 0.950 . S
H2117 C2095 0.950 . S
C2118 C2119 1.349 . S
C2118 C2120 1.327 . S
C2118 H2143 0.950 . S
C2119 C2118 1.349 . S
C2119 C2135 1.349 . S
C2120 C2118 1.327 . S
C2120 C2139 1.429 . S
C2120 H2144 0.950 . S
C2121 C2138 1.574 . S
C2121 C2140 1.368 . S
C2121 H2145 0.949 . S
H2122 C2126 0.949 . S
C2123 C2124 1.349 . S
C2123 C2125 1.327 1_556 S
C2123 H2146 0.950 . S
C2124 C2123 1.349 . S
C2124 C2136 1.349 1_556 S
C2125 C2123 1.327 1_554 S
C2125 C2141 1.429 . S
C2125 H2147 0.950 . S
C2126 H2122 0.949 . S
C2126 C2134 1.574 . S
C2126 C2142 1.368 . S
H2127 C2135 0.950 . S
H2128 C2133 0.950 . S
H2129 C2134 0.949 . S
H2130 C2136 0.950 . S
H2131 C2137 0.950 . S
H2132 C2138 0.949 . S
C2133 H2128 0.950 . S
C2133 C2135 1.327 . S
C2133 C2139 1.429 . S
C2134 C2126 1.574 . S
C2134 H2129 0.949 . S
C2134 C2140 1.368 . S
C2135 C2119 1.349 . S
C2135 H2127 0.950 . S
C2135 C2133 1.327 . S
C2136 C2124 1.349 1_554 S
C2136 H2130 0.950 . S
C2136 C2137 1.327 . S
C2137 H2131 0.950 . S
C2137 C2136 1.327 . S
C2137 C2141 1.429 . S
C2138 C2121 1.574 . S
C2138 H2132 0.949 . S
C2138 C2142 1.368 . S
C2139 C2120 1.429 . S
C2139 C2133 1.429 . S
C2139 C2140 1.523 . S
C2140 C2121 1.368 . S
C2140 C2134 1.368 . S
C2140 C2139 1.523 . S
C2141 C2125 1.429 . S
C2141 C2137 1.429 . S
C2141 C2142 1.523 . S
C2142 C2126 1.368 . S
C2142 C2138 1.368 . S
C2142 C2141 1.523 . S
H2143 C2118 0.950 . S
H2144 C2120 0.950 . S
H2145 C2121 0.949 . S
H2146 C2123 0.950 . S
H2147 C2125 0.950 . S
C2148 C2149 1.349 1_554 S
C2148 C2150 1.327 . S
C2148 H2173 0.950 . S
C2149 C2148 1.349 1_556 S
C2149 C2165 1.349 . S
C2150 C2148 1.327 . S
C2150 C2169 1.429 . S
C2150 H2174 0.950 . S
C2151 C2168 1.574 . S
C2151 C2170 1.368 . S
C2151 H2175 0.949 . S
H2152 C2156 0.949 . S
C2153 C2154 1.349 . S
C2153 C2155 1.327 . S
C2153 H2176 0.950 . S
C2154 C2153 1.349 . S
C2154 C2166 1.349 . S
C2155 C2153 1.327 . S
C2155 C2171 1.429 . S
C2155 H2177 0.950 . S
C2156 H2152 0.949 . S
C2156 C2164 1.574 . S
C2156 C2172 1.368 . S
H2157 C2165 0.950 . S
H2158 C2163 0.950 . S
H2159 C2164 0.949 . S
H2160 C2166 0.950 . S
H2161 C2167 0.950 . S
H2162 C2168 0.949 . S
C2163 H2158 0.950 . S
C2163 C2165 1.327 1_554 S
C2163 C2169 1.429 . S
C2164 C2156 1.574 . S
C2164 H2159 0.949 . S
C2164 C2170 1.368 . S
C2165 C2149 1.349 . S
C2165 H2157 0.950 . S
C2165 C2163 1.327 1_556 S
C2166 C2154 1.349 . S
C2166 H2160 0.950 . S
C2166 C2167 1.327 . S
C2167 H2161 0.950 . S
C2167 C2166 1.327 . S
C2167 C2171 1.429 . S
C2168 C2151 1.574 . S
C2168 H2162 0.949 . S
C2168 C2172 1.368 . S
C2169 C2150 1.429 . S
C2169 C2163 1.429 . S
C2169 C2170 1.523 . S
C2170 C2151 1.368 . S
C2170 C2164 1.368 . S
C2170 C2169 1.523 . S
C2171 C2155 1.429 . S
C2171 C2167 1.429 . S
C2171 C2172 1.523 . S
C2172 C2156 1.368 . S
C2172 C2168 1.368 . S
C2172 C2171 1.523 . S
H2173 C2148 0.950 . S
H2174 C2150 0.950 . S
H2175 C2151 0.949 . S
H2176 C2153 0.950 . S
H2177 C2155 0.950 . S
C2178 C2179 1.349 . S
C2178 C2180 1.327 . S
C2178 H2203 0.950 . S
C2179 C2178 1.349 . S
C2179 C2195 1.349 . S
C2180 C2178 1.327 . S
C2180 C2199 1.429 . S
C2180 H2204 0.950 . S
C2181 C2198 1.574 . S
C2181 C2200 1.368 . S
C2181 H2205 0.949 . S
H2182 C2186 0.949 . S
C2183 C2184 1.349 . S
C2183 C2185 1.327 . S
C2183 H2206 0.950 . S
C2184 C2183 1.349 . S
C2184 C2196 1.349 . S
C2185 C2183 1.327 . S
C2185 C2201 1.429 . S
C2185 H2207 0.950 . S
C2186 H2182 0.949 . S
C2186 C2194 1.574 . S
C2186 C2202 1.368 . S
H2187 C2195 0.950 . S
H2188 C2193 0.950 . S
H2189 C2194 0.949 . S
H2190 C2196 0.950 . S
H2191 C2197 0.950 . S
H2192 C2198 0.949 . S
C2193 H2188 0.950 . S
C2193 C2195 1.327 . S
C2193 C2199 1.429 . S
C2194 C2186 1.574 . S
C2194 H2189 0.949 . S
C2194 C2200 1.368 . S
C2195 C2179 1.349 . S
C2195 H2187 0.950 . S
C2195 C2193 1.327 . S
C2196 C2184 1.349 . S
C2196 H2190 0.950 . S
C2196 C2197 1.327 . S
C2197 H2191 0.950 . S
C2197 C2196 1.327 . S
C2197 C2201 1.429 . S
C2198 C2181 1.574 . S
C2198 H2192 0.949 . S
C2198 C2202 1.368 . S
C2199 C2180 1.429 . S
C2199 C2193 1.429 . S
C2199 C2200 1.523 . S
C2200 C2181 1.368 . S
C2200 C2194 1.368 . S
C2200 C2199 1.523 . S
C2201 C2185 1.429 . S
C2201 C2197 1.429 . S
C2201 C2202 1.523 . S
C2202 C2186 1.368 . S
C2202 C2198 1.368 . S
C2202 C2201 1.523 . S
H2203 C2178 0.950 . S
H2204 C2180 0.950 . S
H2205 C2181 0.949 . S
H2206 C2183 0.950 . S
H2207 C2185 0.950 . S
C2208 C2209 1.349 . S
C2208 C2210 1.327 . S
C2208 H2233 0.950 . S
C2209 C2208 1.349 . S
C2209 C2225 1.349 . S
C2210 C2208 1.327 . S
C2210 C2229 1.429 . S
C2210 H2234 0.950 . S
C2211 C2228 1.574 . S
C2211 C2230 1.368 . S
C2211 H2235 0.949 . S
H2212 C2216 0.949 . S
C2213 C2214 1.349 . S
C2213 C2215 1.327 . S
C2213 H2236 0.950 . S
C2214 C2213 1.349 . S
C2214 C2226 1.349 . S
C2215 C2213 1.327 . S
C2215 C2231 1.429 . S
C2215 H2237 0.950 . S
C2216 H2212 0.949 . S
C2216 C2224 1.574 . S
C2216 C2232 1.368 . S
H2217 C2225 0.950 . S
H2218 C2223 0.950 . S
H2219 C2224 0.949 . S
H2220 C2226 0.950 . S
H2221 C2227 0.950 . S
H2222 C2228 0.949 . S
C2223 H2218 0.950 . S
C2223 C2225 1.327 . S
C2223 C2229 1.429 . S
C2224 C2216 1.574 . S
C2224 H2219 0.949 . S
C2224 C2230 1.368 . S
C2225 C2209 1.349 . S
C2225 H2217 0.950 . S
C2225 C2223 1.327 . S
C2226 C2214 1.349 . S
C2226 H2220 0.950 . S
C2226 C2227 1.327 . S
C2227 H2221 0.950 . S
C2227 C2226 1.327 . S
C2227 C2231 1.429 . S
C2228 C2211 1.574 . S
C2228 H2222 0.949 . S
C2228 C2232 1.368 . S
C2229 C2210 1.429 . S
C2229 C2223 1.429 . S
C2229 C2230 1.523 . S
C2230 C2211 1.368 . S
C2230 C2224 1.368 . S
C2230 C2229 1.523 . S
C2231 C2215 1.429 . S
C2231 C2227 1.429 . S
C2231 C2232 1.523 . S
C2232 C2216 1.368 . S
C2232 C2228 1.368 . S
C2232 C2231 1.523 . S
H2233 C2208 0.950 . S
H2234 C2210 0.950 . S
H2235 C2211 0.949 . S
H2236 C2213 0.950 . S
H2237 C2215 0.950 . S
C2238 C2239 1.349 . S
C2238 C2240 1.327 . S
C2238 H2263 0.950 . S
C2239 C2238 1.349 . S
C2239 C2255 1.349 . S
C2240 C2238 1.327 . S
C2240 C2259 1.429 . S
C2240 H2264 0.950 . S
C2241 C2258 1.574 . S
C2241 C2260 1.368 . S
C2241 H2265 0.949 . S
H2242 C2246 0.949 . S
C2243 C2244 1.349 . S
C2243 C2245 1.327 . S
C2243 H2266 0.950 . S
C2244 C2243 1.349 . S
C2244 C2256 1.349 . S
C2245 C2243 1.327 . S
C2245 C2261 1.429 . S
C2245 H2267 0.950 . S
C2246 H2242 0.949 . S
C2246 C2254 1.574 . S
C2246 C2262 1.368 . S
H2247 C2255 0.950 . S
H2248 C2253 0.950 . S
H2249 C2254 0.949 . S
H2250 C2256 0.950 . S
H2251 C2257 0.950 . S
H2252 C2258 0.949 . S
C2253 H2248 0.950 . S
C2253 C2255 1.327 . S
C2253 C2259 1.429 . S
C2254 C2246 1.574 . S
C2254 H2249 0.949 . S
C2254 C2260 1.368 . S
C2255 C2239 1.349 . S
C2255 H2247 0.950 . S
C2255 C2253 1.327 . S
C2256 C2244 1.349 . S
C2256 H2250 0.950 . S
C2256 C2257 1.327 . S
C2257 H2251 0.950 . S
C2257 C2256 1.327 . S
C2257 C2261 1.429 . S
C2258 C2241 1.574 . S
C2258 H2252 0.949 . S
C2258 C2262 1.368 . S
C2259 C2240 1.429 . S
C2259 C2253 1.429 . S
C2259 C2260 1.523 . S
C2260 C2241 1.368 . S
C2260 C2254 1.368 . S
C2260 C2259 1.523 . S
C2261 C2245 1.429 . S
C2261 C2257 1.429 . S
C2261 C2262 1.523 . S
C2262 C2246 1.368 . S
C2262 C2258 1.368 . S
C2262 C2261 1.523 . S
H2263 C2238 0.950 . S
H2264 C2240 0.950 . S
H2265 C2241 0.949 . S
H2266 C2243 0.950 . S
H2267 C2245 0.950 . S
C2268 C2269 1.349 . S
C2268 C2270 1.327 . S
C2268 H2293 0.950 . S
C2269 C2268 1.349 . S
C2269 C2285 1.349 . S
C2270 C2268 1.327 . S
C2270 C2289 1.429 . S
C2270 H2294 0.950 . S
C2271 C2288 1.574 . S
C2271 C2290 1.368 . S
C2271 H2295 0.949 . S
H2272 C2276 0.949 . S
C2273 C2274 1.349 . S
C2273 C2275 1.327 1_554 S
C2273 H2296 0.950 . S
C2274 C2273 1.349 . S
C2274 C2286 1.349 1_554 S
C2275 C2273 1.327 1_556 S
C2275 C2291 1.429 . S
C2275 H2297 0.950 . S
C2276 H2272 0.949 . S
C2276 C2284 1.574 . S
C2276 C2292 1.368 . S
H2277 C2285 0.950 . S
H2278 C2283 0.950 . S
H2279 C2284 0.949 . S
H2280 C2286 0.950 . S
H2281 C2287 0.950 . S
H2282 C2288 0.949 . S
C2283 H2278 0.950 . S
C2283 C2285 1.327 . S
C2283 C2289 1.429 . S
C2284 C2276 1.574 . S
C2284 H2279 0.949 . S
C2284 C2290 1.368 . S
C2285 C2269 1.349 . S
C2285 H2277 0.950 . S
C2285 C2283 1.327 . S
C2286 C2274 1.349 1_556 S
C2286 H2280 0.950 . S
C2286 C2287 1.327 . S
C2287 H2281 0.950 . S
C2287 C2286 1.327 . S
C2287 C2291 1.429 . S
C2288 C2271 1.574 . S
C2288 H2282 0.949 . S
C2288 C2292 1.368 . S
C2289 C2270 1.429 . S
C2289 C2283 1.429 . S
C2289 C2290 1.523 . S
C2290 C2271 1.368 . S
C2290 C2284 1.368 . S
C2290 C2289 1.523 . S
C2291 C2275 1.429 . S
C2291 C2287 1.429 . S
C2291 C2292 1.523 . S
C2292 C2276 1.368 . S
C2292 C2288 1.368 . S
C2292 C2291 1.523 . S
H2293 C2268 0.950 . S
H2294 C2270 0.950 . S
H2295 C2271 0.949 . S
H2296 C2273 0.950 . S
H2297 C2275 0.950 . S
C2298 C2299 1.349 1_556 S
C2298 C2300 1.327 . S
C2298 H2323 0.950 1_556 S
C2299 C2298 1.349 1_554 S
C2299 C2315 1.354 . S
C2300 C2298 1.327 . S
C2300 C2319 1.429 . S
C2300 H2324 0.950 . S
C2301 C2318 1.574 . S
C2301 C2320 1.368 . S
C2301 H2325 0.949 . S
H2302 C2306 0.949 . S
C2303 C2304 1.349 . S
C2303 C2305 1.327 . S
C2303 H2326 0.950 . S
C2304 C2303 1.349 . S
C2304 C2316 1.349 . S
C2305 C2303 1.327 . S
C2305 C2321 1.429 . S
C2305 H2327 0.950 . S
C2306 H2302 0.949 . S
C2306 C2314 1.574 . S
C2306 C2322 1.368 . S
H2307 C2315 0.958 . S
H2308 C2313 0.950 . S
H2309 C2314 0.949 . S
H2310 C2316 0.950 . S
H2311 C2317 0.950 . S
H2312 C2318 0.949 . S
C2313 H2308 0.950 . S
C2313 C2315 1.314 1_556 S
C2313 C2319 1.429 . S
C2314 C2306 1.574 . S
C2314 H2309 0.949 . S
C2314 C2320 1.368 . S
C2315 C2299 1.354 . S
C2315 H2307 0.958 . S
C2315 C2313 1.314 1_554 S
C2316 C2304 1.349 . S
C2316 H2310 0.950 . S
C2316 C2317 1.327 . S
C2317 H2311 0.950 . S
C2317 C2316 1.327 . S
C2317 C2321 1.429 . S
C2318 C2301 1.574 . S
C2318 H2312 0.949 . S
C2318 C2322 1.368 . S
C2319 C2300 1.429 . S
C2319 C2313 1.429 . S
C2319 C2320 1.523 . S
C2320 C2301 1.368 . S
C2320 C2314 1.368 . S
C2320 C2319 1.523 . S
C2321 C2305 1.429 . S
C2321 C2317 1.429 . S
C2321 C2322 1.523 . S
C2322 C2306 1.368 . S
C2322 C2318 1.368 . S
C2322 C2321 1.523 . S
H2323 C2298 0.950 1_554 S
H2324 C2300 0.950 . S
H2325 C2301 0.949 . S
H2326 C2303 0.950 . S
H2327 C2305 0.950 . S
C2328 C2329 1.349 . S
C2328 C2330 1.327 . S
C2328 H2353 0.950 . S
C2329 C2328 1.349 . S
C2329 C2345 1.349 . S
C2330 C2328 1.327 . S
C2330 C2349 1.429 . S
C2330 H2354 0.950 . S
C2331 C2348 1.574 . S
C2331 C2350 1.368 . S
C2331 H2355 0.949 . S
H2332 C2336 0.949 . S
C2333 C2334 1.349 . S
C2333 C2335 1.327 1_554 S
C2333 H2356 0.950 . S
C2334 C2333 1.349 . S
C2334 C2346 1.349 1_554 S
C2335 C2333 1.327 1_556 S
C2335 C2351 1.429 . S
C2335 H2357 0.950 . S
C2336 H2332 0.949 . S
C2336 C2344 1.574 . S
C2336 C2352 1.368 . S
H2337 C2345 0.950 . S
H2338 C2343 0.950 . S
H2339 C2344 0.949 . S
H2340 C2346 0.950 . S
H2341 C2347 0.950 . S
H2342 C2348 0.949 . S
C2343 H2338 0.950 . S
C2343 C2345 1.327 . S
C2343 C2349 1.429 . S
C2344 C2336 1.574 . S
C2344 H2339 0.949 . S
C2344 C2350 1.368 . S
C2345 C2329 1.349 . S
C2345 H2337 0.950 . S
C2345 C2343 1.327 . S
C2346 C2334 1.349 1_556 S
C2346 H2340 0.950 . S
C2346 C2347 1.327 . S
C2347 H2341 0.950 . S
C2347 C2346 1.327 . S
C2347 C2351 1.429 . S
C2348 C2331 1.574 . S
C2348 H2342 0.949 . S
C2348 C2352 1.368 . S
C2349 C2330 1.429 . S
C2349 C2343 1.429 . S
C2349 C2350 1.523 . S
C2350 C2331 1.368 . S
C2350 C2344 1.368 . S
C2350 C2349 1.523 . S
C2351 C2335 1.429 . S
C2351 C2347 1.429 . S
C2351 C2352 1.523 . S
C2352 C2336 1.368 . S
C2352 C2348 1.368 . S
C2352 C2351 1.523 . S
H2353 C2328 0.950 . S
H2354 C2330 0.950 . S
H2355 C2331 0.949 . S
H2356 C2333 0.950 . S
H2357 C2335 0.950 . S
C2358 C2359 1.349 . S
C2358 C2360 1.327 . S
C2358 H2383 0.950 . S
C2359 C2358 1.349 . S
C2359 C2375 1.349 . S
C2360 C2358 1.327 . S
C2360 C2379 1.429 . S
C2360 H2384 0.950 . S
C2361 C2378 1.574 . S
C2361 C2380 1.368 . S
C2361 H2385 0.949 . S
H2362 C2366 0.949 . S
C2363 C2364 1.349 . S
C2363 C2365 1.327 . S
C2363 H2386 0.950 . S
C2364 C2363 1.349 . S
C2364 C2376 1.349 . S
C2365 C2363 1.327 . S
C2365 C2381 1.429 . S
C2365 H2387 0.950 . S
C2366 H2362 0.949 . S
C2366 C2374 1.574 . S
C2366 C2382 1.368 . S
H2367 C2375 0.950 . S
H2368 C2373 0.950 . S
H2369 C2374 0.949 . S
H2370 C2376 0.950 . S
H2371 C2377 0.950 . S
H2372 C2378 0.949 . S
C2373 H2368 0.950 . S
C2373 C2375 1.327 . S
C2373 C2379 1.429 . S
C2374 C2366 1.574 . S
C2374 H2369 0.949 . S
C2374 C2380 1.368 . S
C2375 C2359 1.349 . S
C2375 H2367 0.950 . S
C2375 C2373 1.327 . S
C2376 C2364 1.349 . S
C2376 H2370 0.950 . S
C2376 C2377 1.327 . S
C2377 H2371 0.950 . S
C2377 C2376 1.327 . S
C2377 C2381 1.429 . S
C2378 C2361 1.574 . S
C2378 H2372 0.949 . S
C2378 C2382 1.368 . S
C2379 C2360 1.429 . S
C2379 C2373 1.429 . S
C2379 C2380 1.523 . S
C2380 C2361 1.368 . S
C2380 C2374 1.368 . S
C2380 C2379 1.523 . S
C2381 C2365 1.429 . S
C2381 C2377 1.429 . S
C2381 C2382 1.523 . S
C2382 C2366 1.368 . S
C2382 C2378 1.368 . S
C2382 C2381 1.523 . S
H2383 C2358 0.950 . S
H2384 C2360 0.950 . S
H2385 C2361 0.949 . S
H2386 C2363 0.950 . S
H2387 C2365 0.950 . S
C2388 C2389 1.349 . S
C2388 C2390 1.327 . S
C2388 H2413 0.950 . S
C2389 C2388 1.349 . S
C2389 C2405 1.349 . S
C2390 C2388 1.327 . S
C2390 C2409 1.429 . S
C2390 H2414 0.950 . S
C2391 C2408 1.574 . S
C2391 C2410 1.368 . S
C2391 H2415 0.949 . S
H2392 C2396 0.949 . S
C2393 C2394 1.349 . S
C2393 C2395 1.327 . S
C2393 H2416 0.950 . S
C2394 C2393 1.349 . S
C2394 C2406 1.349 . S
C2395 C2393 1.327 . S
C2395 C2411 1.429 . S
C2395 H2417 0.950 . S
C2396 H2392 0.949 . S
C2396 C2404 1.574 . S
C2396 C2412 1.368 . S
H2397 C2405 0.950 . S
H2398 C2403 0.950 . S
H2399 C2404 0.949 . S
H2400 C2406 0.950 . S
H2401 C2407 0.950 . S
H2402 C2408 0.949 . S
C2403 H2398 0.950 . S
C2403 C2405 1.327 . S
C2403 C2409 1.429 . S
C2404 C2396 1.574 . S
C2404 H2399 0.949 . S
C2404 C2410 1.368 . S
C2405 C2389 1.349 . S
C2405 H2397 0.950 . S
C2405 C2403 1.327 . S
C2406 C2394 1.349 . S
C2406 H2400 0.950 . S
C2406 C2407 1.327 . S
C2407 H2401 0.950 . S
C2407 C2406 1.327 . S
C2407 C2411 1.429 . S
C2408 C2391 1.574 . S
C2408 H2402 0.949 . S
C2408 C2412 1.368 . S
C2409 C2390 1.429 . S
C2409 C2403 1.429 . S
C2409 C2410 1.523 . S
C2410 C2391 1.368 . S
C2410 C2404 1.368 . S
C2410 C2409 1.523 . S
C2411 C2395 1.429 . S
C2411 C2407 1.429 . S
C2411 C2412 1.523 . S
C2412 C2396 1.368 . S
C2412 C2408 1.368 . S
C2412 C2411 1.523 . S
H2413 C2388 0.950 . S
H2414 C2390 0.950 . S
H2415 C2391 0.949 . S
H2416 C2393 0.950 . S
H2417 C2395 0.950 . S
C2418 C2419 1.349 . S
C2418 C2420 1.327 . S
C2418 H2443 0.950 . S
C2419 C2418 1.349 . S
C2419 C2435 1.349 . S
C2420 C2418 1.327 . S
C2420 C2439 1.429 . S
C2420 H2444 0.950 . S
C2421 C2438 1.574 . S
C2421 C2440 1.368 . S
C2421 H2445 0.949 . S
H2422 C2426 0.949 . S
C2423 C2424 1.349 . S
C2423 C2425 1.327 . S
C2423 H2446 0.950 . S
C2424 C2423 1.349 . S
C2424 C2436 1.349 . S
C2425 C2423 1.327 . S
C2425 C2441 1.429 . S
C2425 H2447 0.950 . S
C2426 H2422 0.949 . S
C2426 C2434 1.574 . S
C2426 C2442 1.368 . S
H2427 C2435 0.950 . S
H2428 C2433 0.950 . S
H2429 C2434 0.949 . S
H2430 C2436 0.950 . S
H2431 C2437 0.950 . S
H2432 C2438 0.949 . S
C2433 H2428 0.950 . S
C2433 C2435 1.327 . S
C2433 C2439 1.429 . S
C2434 C2426 1.574 . S
C2434 H2429 0.949 . S
C2434 C2440 1.368 . S
C2435 C2419 1.349 . S
C2435 H2427 0.950 . S
C2435 C2433 1.327 . S
C2436 C2424 1.349 . S
C2436 H2430 0.950 . S
C2436 C2437 1.327 . S
C2437 H2431 0.950 . S
C2437 C2436 1.327 . S
C2437 C2441 1.429 . S
C2438 C2421 1.574 . S
C2438 H2432 0.949 . S
C2438 C2442 1.368 . S
C2439 C2420 1.429 . S
C2439 C2433 1.429 . S
C2439 C2440 1.523 . S
C2440 C2421 1.368 . S
C2440 C2434 1.368 . S
C2440 C2439 1.523 . S
C2441 C2425 1.429 . S
C2441 C2437 1.429 . S
C2441 C2442 1.523 . S
C2442 C2426 1.368 . S
C2442 C2438 1.368 . S
C2442 C2441 1.523 . S
H2443 C2418 0.950 . S
H2444 C2420 0.950 . S
H2445 C2421 0.949 . S
H2446 C2423 0.950 . S
H2447 C2425 0.950 . S
C2448 C2449 1.349 . S
C2448 C2450 1.327 . S
C2448 H2473 0.950 . S
C2449 C2448 1.349 . S
C2449 C2465 1.349 . S
C2450 C2448 1.327 . S
C2450 C2469 1.429 . S
C2450 H2474 0.950 . S
C2451 C2468 1.574 . S
C2451 C2470 1.368 . S
C2451 H2475 0.949 . S
H2452 C2456 0.949 . S
C2453 C2454 1.349 . S
C2453 C2455 1.327 . S
C2453 H2476 0.950 . S
C2454 C2453 1.349 . S
C2454 C2466 1.349 . S
C2455 C2453 1.327 . S
C2455 C2471 1.429 . S
C2455 H2477 0.950 . S
C2456 H2452 0.949 . S
C2456 C2464 1.574 . S
C2456 C2472 1.368 . S
H2457 C2465 0.950 . S
H2458 C2463 0.950 . S
H2459 C2464 0.949 . S
H2460 C2466 0.950 . S
H2461 C2467 0.950 . S
H2462 C2468 0.949 . S
C2463 H2458 0.950 . S
C2463 C2465 1.327 . S
C2463 C2469 1.429 . S
C2464 C2456 1.574 . S
C2464 H2459 0.949 . S
C2464 C2470 1.368 . S
C2465 C2449 1.349 . S
C2465 H2457 0.950 . S
C2465 C2463 1.327 . S
C2466 C2454 1.349 . S
C2466 H2460 0.950 . S
C2466 C2467 1.327 . S
C2467 H2461 0.950 . S
C2467 C2466 1.327 . S
C2467 C2471 1.429 . S
C2468 C2451 1.574 . S
C2468 H2462 0.949 . S
C2468 C2472 1.368 . S
C2469 C2450 1.429 . S
C2469 C2463 1.429 . S
C2469 C2470 1.523 . S
C2470 C2451 1.368 . S
C2470 C2464 1.368 . S
C2470 C2469 1.523 . S
C2471 C2455 1.429 . S
C2471 C2467 1.429 . S
C2471 C2472 1.523 . S
C2472 C2456 1.368 . S
C2472 C2468 1.368 . S
C2472 C2471 1.523 . S
H2473 C2448 0.950 . S
H2474 C2450 0.950 . S
H2475 C2451 0.949 . S
H2476 C2453 0.950 . S
H2477 C2455 0.950 . S
C2478 C2479 1.349 . S
C2478 C2480 1.327 . S
C2478 H2503 0.950 . S
C2479 C2478 1.349 . S
C2479 C2495 1.349 . S
C2480 C2478 1.327 . S
C2480 C2499 1.429 . S
C2480 H2504 0.950 . S
C2481 C2498 1.604 . S
C2481 C2500 1.320 1_565 S
C2481 H2505 0.944 . S
H2482 C2486 0.944 . S
C2483 C2484 1.349 . S
C2483 C2485 1.327 . S
C2483 H2506 0.950 . S
C2484 C2483 1.349 . S
C2484 C2496 1.349 . S
C2485 C2483 1.327 . S
C2485 C2501 1.429 . S
C2485 H2507 0.950 . S
C2486 H2482 0.944 . S
C2486 C2494 1.604 . S
C2486 C2502 1.319 1_545 S
H2487 C2495 0.950 . S
H2488 C2493 0.950 . S
H2489 C2494 0.949 . S
H2490 C2496 0.950 . S
H2491 C2497 0.950 . S
H2492 C2498 0.949 . S
C2493 H2488 0.950 . S
C2493 C2495 1.327 . S
C2493 C2499 1.429 . S
C2494 C2486 1.604 . S
C2494 H2489 0.949 . S
C2494 C2500 1.368 . S
C2495 C2479 1.349 . S
C2495 H2487 0.950 . S
C2495 C2493 1.327 . S
C2496 C2484 1.349 . S
C2496 H2490 0.950 . S
C2496 C2497 1.327 . S
C2497 H2491 0.950 . S
C2497 C2496 1.327 . S
C2497 C2501 1.429 . S
C2498 C2481 1.604 . S
C2498 H2492 0.949 . S
C2498 C2502 1.368 . S
C2499 C2480 1.429 . S
C2499 C2493 1.429 . S
C2499 C2500 1.523 . S
C2500 C2481 1.320 1_545 S
C2500 C2494 1.368 . S
C2500 C2499 1.523 . S
C2501 C2485 1.429 . S
C2501 C2497 1.429 . S
C2501 C2502 1.523 . S
C2502 C2486 1.319 1_565 S
C2502 C2498 1.368 . S
C2502 C2501 1.523 . S
H2503 C2478 0.950 . S
H2504 C2480 0.950 . S
H2505 C2481 0.944 . S
H2506 C2483 0.950 . S
H2507 C2485 0.950 . S
C2508 C2509 1.349 . S
C2508 C2510 1.327 . S
C2508 H2533 0.950 . S
C2509 C2508 1.349 . S
C2509 C2525 1.349 . S
C2510 C2508 1.327 . S
C2510 C2529 1.429 . S
C2510 H2534 0.950 . S
C2511 C2528 1.574 1_655 S
C2511 C2530 1.368 . S
C2511 H2535 0.949 . S
H2512 C2516 0.949 . S
C2513 C2514 1.349 . S
C2513 C2515 1.327 . S
C2513 H2536 0.950 . S
C2514 C2513 1.349 . S
C2514 C2526 1.349 . S
C2515 C2513 1.327 . S
C2515 C2531 1.429 . S
C2515 H2537 0.950 . S
C2516 H2512 0.949 . S
C2516 C2524 1.574 1_455 S
C2516 C2532 1.368 . S
H2517 C2525 0.950 . S
H2518 C2523 0.950 . S
H2519 C2524 0.949 . S
H2520 C2526 0.950 . S
H2521 C2527 0.950 . S
H2522 C2528 0.949 . S
C2523 H2518 0.950 . S
C2523 C2525 1.327 . S
C2523 C2529 1.429 . S
C2524 C2516 1.574 1_655 S
C2524 H2519 0.949 . S
C2524 C2530 1.368 . S
C2525 C2509 1.349 . S
C2525 H2517 0.950 . S
C2525 C2523 1.327 . S
C2526 C2514 1.349 . S
C2526 H2520 0.950 . S
C2526 C2527 1.327 . S
C2527 H2521 0.950 . S
C2527 C2526 1.327 . S
C2527 C2531 1.429 . S
C2528 C2511 1.574 1_455 S
C2528 H2522 0.949 . S
C2528 C2532 1.368 . S
C2529 C2510 1.429 . S
C2529 C2523 1.429 . S
C2529 C2530 1.523 . S
C2530 C2511 1.368 . S
C2530 C2524 1.368 . S
C2530 C2529 1.523 . S
C2531 C2515 1.429 . S
C2531 C2527 1.429 . S
C2531 C2532 1.523 . S
C2532 C2516 1.368 . S
C2532 C2528 1.368 . S
C2532 C2531 1.523 . S
H2533 C2508 0.950 . S
H2534 C2510 0.950 . S
H2535 C2511 0.949 . S
H2536 C2513 0.950 . S
H2537 C2515 0.950 . S
C2538 C2539 1.349 . S
C2538 C2540 1.327 . S
C2538 H2563 0.950 . S
C2539 C2538 1.349 . S
C2539 C2555 1.349 . S
C2540 C2538 1.327 . S
C2540 C2559 1.429 . S
C2540 H2564 0.950 . S
C2541 C2558 1.574 . S
C2541 C2560 1.368 . S
C2541 H2565 0.949 . S
H2542 C2546 0.949 . S
C2543 C2544 1.349 . S
C2543 C2545 1.327 . S
C2543 H2566 0.950 . S
C2544 C2543 1.349 . S
C2544 C2556 1.349 . S
C2545 C2543 1.327 . S
C2545 C2561 1.429 . S
C2545 H2567 0.950 . S
C2546 H2542 0.949 . S
C2546 C2554 1.574 . S
C2546 C2562 1.368 . S
H2547 C2555 0.950 . S
H2548 C2553 0.950 . S
H2549 C2554 0.949 . S
H2550 C2556 0.950 . S
H2551 C2557 0.950 . S
H2552 C2558 0.949 . S
C2553 H2548 0.950 . S
C2553 C2555 1.327 . S
C2553 C2559 1.429 . S
C2554 C2546 1.574 . S
C2554 H2549 0.949 . S
C2554 C2560 1.368 . S
C2555 C2539 1.349 . S
C2555 H2547 0.950 . S
C2555 C2553 1.327 . S
C2556 C2544 1.349 . S
C2556 H2550 0.950 . S
C2556 C2557 1.327 . S
C2557 H2551 0.950 . S
C2557 C2556 1.327 . S
C2557 C2561 1.429 . S
C2558 C2541 1.574 . S
C2558 H2552 0.949 . S
C2558 C2562 1.368 . S
C2559 C2540 1.429 . S
C2559 C2553 1.429 . S
C2559 C2560 1.523 . S
C2560 C2541 1.368 . S
C2560 C2554 1.368 . S
C2560 C2559 1.523 . S
C2561 C2545 1.429 . S
C2561 C2557 1.429 . S
C2561 C2562 1.523 . S
C2562 C2546 1.368 . S
C2562 C2558 1.368 . S
C2562 C2561 1.523 . S
H2563 C2538 0.950 . S
H2564 C2540 0.950 . S
H2565 C2541 0.949 . S
H2566 C2543 0.950 . S
H2567 C2545 0.950 . S
C2568 C2569 1.349 . S
C2568 C2570 1.327 . S
C2568 H2593 0.950 . S
C2569 C2568 1.349 . S
C2569 C2585 1.349 . S
C2570 C2568 1.327 . S
C2570 C2589 1.429 . S
C2570 H2594 0.950 . S
C2571 C2588 1.574 . S
C2571 C2590 1.368 1_565 S
C2571 H2595 0.949 . S
H2572 C2576 0.949 . S
C2573 C2574 1.349 . S
C2573 C2575 1.327 . S
C2573 H2596 0.950 . S
C2574 C2573 1.349 . S
C2574 C2586 1.349 . S
C2575 C2573 1.327 . S
C2575 C2591 1.429 . S
C2575 H2597 0.950 . S
C2576 H2572 0.949 . S
C2576 C2584 1.574 . S
C2576 C2592 1.368 1_545 S
H2577 C2585 0.950 . S
H2578 C2583 0.950 . S
H2579 C2584 0.949 . S
H2580 C2586 0.950 . S
H2581 C2587 0.950 . S
H2582 C2588 0.949 . S
C2583 H2578 0.950 . S
C2583 C2585 1.327 . S
C2583 C2589 1.429 . S
C2584 C2576 1.574 . S
C2584 H2579 0.949 . S
C2584 C2590 1.368 . S
C2585 C2569 1.349 . S
C2585 H2577 0.950 . S
C2585 C2583 1.327 . S
C2586 C2574 1.349 . S
C2586 H2580 0.950 . S
C2586 C2587 1.327 . S
C2587 H2581 0.950 . S
C2587 C2586 1.327 . S
C2587 C2591 1.429 . S
C2588 C2571 1.574 . S
C2588 H2582 0.949 . S
C2588 C2592 1.368 . S
C2589 C2570 1.429 . S
C2589 C2583 1.429 . S
C2589 C2590 1.523 . S
C2590 C2571 1.368 1_545 S
C2590 C2584 1.368 . S
C2590 C2589 1.523 . S
C2591 C2575 1.429 . S
C2591 C2587 1.429 . S
C2591 C2592 1.523 . S
C2592 C2576 1.368 1_565 S
C2592 C2588 1.368 . S
C2592 C2591 1.523 . S
H2593 C2568 0.950 . S
H2594 C2570 0.950 . S
H2595 C2571 0.949 . S
H2596 C2573 0.950 . S
H2597 C2575 0.950 . S
C2598 C2599 1.349 . S
C2598 C2600 1.327 . S
C2598 H2623 0.950 . S
C2599 C2598 1.349 . S
C2599 C2615 1.349 . S
C2600 C2598 1.327 . S
C2600 C2619 1.429 . S
C2600 H2624 0.950 . S
C2601 C2618 1.574 . S
C2601 C2620 1.368 . S
C2601 H2625 0.949 . S
H2602 C2606 0.949 . S
C2603 C2604 1.349 . S
C2603 C2605 1.327 . S
C2603 H2626 0.950 . S
C2604 C2603 1.349 . S
C2604 C2616 1.349 . S
C2605 C2603 1.327 . S
C2605 C2621 1.429 . S
C2605 H2627 0.950 . S
C2606 H2602 0.949 . S
C2606 C2614 1.574 . S
C2606 C2622 1.368 . S
H2607 C2615 0.950 . S
H2608 C2613 0.950 . S
H2609 C2614 0.949 . S
H2610 C2616 0.950 . S
H2611 C2617 0.950 . S
H2612 C2618 0.949 . S
C2613 H2608 0.950 . S
C2613 C2615 1.327 . S
C2613 C2619 1.429 . S
C2614 C2606 1.574 . S
C2614 H2609 0.949 . S
C2614 C2620 1.368 1_655 S
C2615 C2599 1.349 . S
C2615 H2607 0.950 . S
C2615 C2613 1.327 . S
C2616 C2604 1.349 . S
C2616 H2610 0.950 . S
C2616 C2617 1.327 . S
C2617 H2611 0.950 . S
C2617 C2616 1.327 . S
C2617 C2621 1.429 . S
C2618 C2601 1.574 . S
C2618 H2612 0.949 . S
C2618 C2622 1.368 1_455 S
C2619 C2600 1.429 . S
C2619 C2613 1.429 . S
C2619 C2620 1.523 . S
C2620 C2601 1.368 . S
C2620 C2614 1.368 1_455 S
C2620 C2619 1.523 . S
C2621 C2605 1.429 . S
C2621 C2617 1.429 . S
C2621 C2622 1.523 . S
C2622 C2606 1.368 . S
C2622 C2618 1.368 1_655 S
C2622 C2621 1.523 . S
H2623 C2598 0.950 . S
H2624 C2600 0.950 . S
H2625 C2601 0.949 . S
H2626 C2603 0.950 . S
H2627 C2605 0.950 . S
C469 C70 0.461 . S
C474 C5 0.461 . S
C499 C44 0.461 . S
C504 C18 0.461 . S
C529 C31 0.461 . S
C534 C57 0.461 . S
C559 C83 0.461 . S
C564 C148 0.461 . S
C589 C96 0.461 . S
C594 C122 0.461 . S
C619 C135 0.461 . S
C624 C109 0.461 . S
C649 C161 0.461 . S
C654 C226 0.461 . S
C679 C174 0.461 . S
C684 C200 0.461 . S
C709 C213 0.461 . S
C714 C187 0.461 . S
C739 C304 0.461 . S
C744 C239 0.461 . S
C769 C278 0.461 . S
C774 C252 0.461 . S
C799 C265 0.461 . S
C804 C291 0.461 . S
C829 C382 0.461 . S
C834 C317 0.461 . S
C859 C356 0.461 . S
C864 C330 0.461 . S
C889 C343 0.461 . S
C894 C369 0.461 . S
C919 C460 0.461 . S
C924 C395 0.461 . S
C949 C434 0.461 . S
C954 C408 0.461 . S
C979 C447 0.461 . S
C984 C421 0.461 . S
C1009 C216 1.021 . S
C1014 C8 1.021 . S
C1039 C229 1.021 . S
C1044 C21 1.021 . S
C1069 C203 1.021 . S
C1074 C34 1.021 . S
C1099 C47 1.021 . S
C1104 C346 1.021 . S
C1129 C60 1.021 . S
C1134 C320 1.021 . S
C1159 C73 1.021 . S
C1164 C333 1.021 . S
C1189 C86 1.021 . S
C1194 C450 1.021 . S
C1219 C463 1.021 . S
C1224 C99 1.021 . S
C1249 C437 1.020 . S
C1254 C112 1.021 . S
C1279 C268 1.021 . S
C1284 C125 1.021 . S
C1309 C242 1.021 . S
C1314 C138 1.021 . S
C1339 C151 1.021 . S
C1344 C255 1.021 . S
C1369 C164 1.020 . S
C1374 C372 1.020 . S
C1399 C385 1.021 . S
C1404 C177 1.021 . S
C1429 C359 1.020 . S
C1434 C190 1.020 . S
C1459 C281 1.020 . S
C1464 C424 1.020 . S
C1489 C398 1.020 . S
C1494 C294 1.020 . S
C1519 C307 1.021 . S
C1524 C411 1.021 . S
C1549 C234 1.139 . S
C1554 C0 1.139 . S
C1579 C247 1.139 . S
C1584 C13 1.139 . S
C1609 C26 1.139 . S
C1614 C260 1.139 . S
C1639 C39 1.139 . S
C1644 C429 1.139 . S
C1669 C442 1.139 . S
C1674 C52 1.139 . S
C1699 C455 1.139 . S
C1704 C65 1.139 . S
C1729 C78 1.139 . S
C1734 C312 1.139 . S
C1759 C91 1.139 . S
C1764 C325 1.139 . S
C1789 C338 1.139 . S
C1794 C104 1.139 . S
C1819 C117 1.139 . S
C1824 C195 1.139 . S
C1849 C130 1.139 . S
C1854 C208 1.139 . S
C1879 C221 1.139 . S
C1884 C143 1.139 . S
C1909 C156 1.139 . S
C1914 C390 1.139 . S
C1939 C169 1.139 . S
C1944 C403 1.139 . S
C1969 C416 1.139 . S
C1974 C182 1.139 . S
C1999 C351 1.139 . S
C2004 C273 1.139 . S
C2029 C286 1.139 . S
C2034 C364 1.139 . S
C2059 C299 1.139 . S
C2064 C377 1.139 . S
C2089 C361 1.566 . S
C2094 C10 1.566 . S
C2119 C23 1.566 . S
C2124 C374 1.566 . S
C2149 C387 1.566 . S
C2154 C36 1.566 . S
C2179 C49 1.566 . S
C2184 C166 1.566 . S
C2209 C179 1.566 . S
C2214 C62 1.566 . S
C2239 C192 1.566 . S
C2244 C75 1.566 . S
C2269 C88 1.566 . S
C2274 C283 1.566 . S
C2299 C296 1.566 . S
C2304 C101 1.566 . S
C2329 C114 1.566 . S
C2334 C309 1.566 . S
C2359 C127 1.566 . S
C2364 C400 1.566 . S
C2389 C140 1.566 . S
C2394 C413 1.566 . S
C2419 C426 1.566 . S
C2424 C153 1.566 . S
C2449 C205 1.566 . S
C2454 C322 1.566 . S
C2479 C218 1.566 . S
C2484 C335 1.566 . S
C2509 C231 1.566 . S
C2514 C348 1.566 . S
C2539 C244 1.566 . S
C2544 C439 1.566 . S
C2569 C257 1.566 . S
C2574 C452 1.566 . S
C2599 C465 1.566 . S
C2604 C270 1.566 . S
