# Generated by pormake.
# Topology vby, (6)-cn, num edge types: 1
# Building blocks:
#     Node 0, Type 0, BuildingBlock: NUHQIS_clean_sbu_0, # of connection points: 6
#     Node 1, Type 0, BuildingBlock: NUHQIS_clean_sbu_0, # of connection points: 6
#     Node 2, Type 0, BuildingBlock: NUHQIS_clean_sbu_0, # of connection points: 6
#     Node 3, Type 0, BuildingBlock: NUHQIS_clean_sbu_0, # of connection points: 6
#     Node 4, Type 0, BuildingBlock: NUHQIS_clean_sbu_0, # of connection points: 6
#     Node 5, Type 0, BuildingBlock: NUHQIS_clean_sbu_0, # of connection points: 6
#     Node 6, Type 0, BuildingBlock: NUHQIS_clean_sbu_0, # of connection points: 6
#     Node 7, Type 0, BuildingBlock: NUHQIS_clean_sbu_0, # of connection points: 6
#     Edge 8, Type (0, 0), BuildingBlock: CIFDUS_clean_linker_0, # of connection points: 2
#     Edge 9, Type (0, 0), BuildingBlock: CIFDUS_clean_linker_0, # of connection points: 2
#     Edge 10, Type (0, 0), BuildingBlock: CIFDUS_clean_linker_0, # of connection points: 2
#     Edge 11, Type (0, 0), BuildingBlock: CIFDUS_clean_linker_0, # of connection points: 2
#     Edge 12, Type (0, 0), BuildingBlock: CIFDUS_clean_linker_0, # of connection points: 2
#     Edge 13, Type (0, 0), BuildingBlock: CIFDUS_clean_linker_0, # of connection points: 2
#     Edge 14, Type (0, 0), BuildingBlock: CIFDUS_clean_linker_0, # of connection points: 2
#     Edge 15, Type (0, 0), BuildingBlock: CIFDUS_clean_linker_0, # of connection points: 2
#     Edge 16, Type (0, 0), BuildingBlock: CIFDUS_clean_linker_0, # of connection points: 2
#     Edge 17, Type (0, 0), BuildingBlock: CIFDUS_clean_linker_0, # of connection points: 2
#     Edge 18, Type (0, 0), BuildingBlock: CIFDUS_clean_linker_0, # of connection points: 2
#     Edge 19, Type (0, 0), BuildingBlock: CIFDUS_clean_linker_0, # of connection points: 2
#     Edge 20, Type (0, 0), BuildingBlock: CIFDUS_clean_linker_0, # of connection points: 2
#     Edge 21, Type (0, 0), BuildingBlock: CIFDUS_clean_linker_0, # of connection points: 2
#     Edge 22, Type (0, 0), BuildingBlock: CIFDUS_clean_linker_0, # of connection points: 2
#     Edge 23, Type (0, 0), BuildingBlock: CIFDUS_clean_linker_0, # of connection points: 2
#     Edge 24, Type (0, 0), BuildingBlock: CIFDUS_clean_linker_0, # of connection points: 2
#     Edge 25, Type (0, 0), BuildingBlock: CIFDUS_clean_linker_0, # of connection points: 2
#     Edge 26, Type (0, 0), BuildingBlock: CIFDUS_clean_linker_0, # of connection points: 2
#     Edge 27, Type (0, 0), BuildingBlock: CIFDUS_clean_linker_0, # of connection points: 2
#     Edge 28, Type (0, 0), BuildingBlock: CIFDUS_clean_linker_0, # of connection points: 2
#     Edge 29, Type (0, 0), BuildingBlock: CIFDUS_clean_linker_0, # of connection points: 2
#     Edge 30, Type (0, 0), BuildingBlock: CIFDUS_clean_linker_0, # of connection points: 2
#     Edge 31, Type (0, 0), BuildingBlock: CIFDUS_clean_linker_0, # of connection points: 2
# Relax obj value: 0.200
# Max RMSD: 0.232
# Mean RMSD: 0.220
data_MOF--net-vby--node1-NUHQIS_clean_sbu_0--edge1-CIFDUS_clean_linker_0
_symmetry_space_group_name_H-M    P1
_symmetry_Int_Tables_number       1
_symmetry_cell_setting            triclinic
loop_
_symmetry_equiv_pos_as_xyz
'x, y, z'
_cell_length_a     13.407979
_cell_length_b     95.089595
_cell_length_c     26.551615
_cell_angle_alpha  85.797583
_cell_angle_beta   89.684729
_cell_angle_gamma 90.133887
loop_
_atom_site_label
_atom_site_type_symbol
_atom_site_fract_x
_atom_site_fract_y
_atom_site_fract_z
_atom_type_partial_charge
Tb0 Tb 0.0777 0.41655 -0.00406 0.0
Eu1 Eu 1.05281 0.38213 0.02173 0.0
C2 C 1.04621 0.40367 0.10806 0.0
C3 C 0.26707 0.39704 0.01068 0.0
C4 C 0.08518 0.45718 0.98258 0.0
C5 C 0.08864 0.47589 0.04021 0.0
C6 C 0.09086 0.46151 0.0319 0.0
C7 C 0.07341 0.46734 0.94211 0.0
C8 C 0.07151 0.48166 0.9503 0.0
C9 C 0.08118 0.48616 -0.00067 0.0
C10 C 0.10337 0.4425 0.97092 0.0
O11 O 1.04807 0.40702 0.92522 0.0
O12 O 0.11109 0.38486 0.94228 0.0
O13 O 0.90212 0.3906 -0.00178 0.0
O14 O 0.92056 0.41371 0.01687 0.0
C15 C 0.08327 0.39516 0.90997 0.0
O16 O 0.9987 0.36158 0.00234 0.0
O17 O 0.07049 0.36364 0.07446 0.0
O18 O 1.00429 0.3926 0.09043 0.0
O19 O 0.09177 0.41333 0.07806 0.0
O20 O 0.22487 0.40755 0.98387 0.0
O21 O 0.21388 0.38719 0.03561 0.0
C22 C 0.86387 0.4029 0.00711 0.0
O23 O 0.16284 0.43492 0.00043 0.0
O24 O 1.02863 0.43518 0.95566 0.0
C25 C 0.08768 0.34198 0.03803 0.0
C26 C 0.19227 0.31665 0.02869 0.0
C27 C 0.22379 0.32921 0.00186 0.0
C28 C 0.17191 0.3418 0.00655 0.0
C29 C 0.05637 0.32955 0.06506 0.0
C30 C 0.10818 0.31699 0.06051 0.0
C31 C 1.03222 0.35503 0.04371 0.0
H32 H 0.09464 0.47898 0.07853 0.0
H33 H 0.10006 0.45383 0.06374 0.0
H34 H 0.06993 0.46421 0.90371 0.0
H35 H 0.06706 0.48922 0.91784 0.0
H36 H 0.28764 0.32928 0.97668 0.0
H37 H 0.19719 0.35136 0.98556 0.0
H38 H 0.99186 0.32957 0.08983 0.0
H39 H 0.08294 0.30757 0.08233 0.0
Tb40 Tb 0.0763 0.63999 0.01679 0.0
Eu41 Eu 0.10201 0.67461 0.0021 0.0
C42 C 0.06433 0.65911 0.10905 0.0
C43 C 0.88703 0.65974 0.00529 0.0
C44 C 0.07015 0.59926 0.02154 0.0
C45 C 0.08766 0.57467 0.05192 0.0
C46 C 0.08418 0.58891 0.06119 0.0
C47 C 0.06381 0.5952 0.97186 0.0
C48 C 0.06776 0.58089 0.96246 0.0
C49 C 0.07746 0.57042 0.00257 0.0
C50 C 1.04943 0.61375 0.03463 0.0
O51 O 0.06738 0.64507 0.93519 0.0
O52 O 0.15088 0.66626 0.92938 0.0
O53 O 0.25194 0.66541 0.02349 0.0
O54 O 0.23368 0.64306 -0.00291 0.0
C55 C 0.11292 0.65542 0.90839 0.0
O56 O 0.08743 0.69463 0.95761 0.0
O57 O 0.15928 0.69396 0.03089 0.0
O58 O 1.03648 0.66992 0.07926 0.0
O59 O 0.10351 0.6479 0.09065 0.0
O60 O 0.92809 0.6486 0.029 0.0
O61 O 0.94123 0.67017 0.98458 0.0
C62 C 0.29034 0.65352 0.01014 0.0
O63 O 0.12057 0.62078 0.05473 0.0
O64 O 0.99446 0.62177 0.00413 0.0
C65 C 0.07223 0.71471 0.00472 0.0
C66 C 0.97503 0.74006 0.02326 0.0
C67 C 0.92038 0.72847 0.008 0.0
C68 C 0.96852 0.71588 -0.00102 0.0
C69 C 0.12652 0.72608 0.02128 0.0
C70 C 0.07841 0.73864 0.03062 0.0
C71 C 0.12568 0.70192 -0.00737 0.0
H72 H 0.09361 0.56697 0.08388 0.0
H73 H 0.08799 0.59181 0.09987 0.0
H74 H 1.0527 0.603 0.94061 0.0
H75 H 0.06124 0.57801 0.9239 0.0
H76 H 0.84088 0.72925 0.00144 0.0
H77 H 0.92501 0.70717 0.98659 0.0
H78 H 0.20652 0.72531 0.02634 0.0
H79 H 0.12236 0.74728 0.04317 0.0
Tb80 Tb 0.06105 0.66727 0.50808 0.0
Eu81 Eu 0.08872 0.6328 0.51207 0.0
C82 C 0.08801 0.65171 0.41062 0.0
C83 C 0.87133 0.64707 0.50677 0.0
C84 C 0.08198 0.70671 0.51914 0.0
C85 C 0.06094 0.73085 0.54116 0.0
C86 C 1.02036 0.71771 0.53266 0.0
C87 C 0.18556 0.7088 0.51622 0.0
C88 C 0.22633 0.72198 0.52461 0.0
C89 C 0.16411 0.73324 0.53606 0.0
C90 C 1.03506 0.69362 0.5048 0.0
O91 O 0.10263 0.65999 0.58512 0.0
O92 O 1.0314 0.63807 0.58776 0.0
O93 O 0.23834 0.64148 0.53096 0.0
O94 O 0.22195 0.66459 0.49962 0.0
C95 C 0.06498 0.64883 0.61085 0.0
O96 O 0.13518 0.61271 0.55041 0.0
O97 O 0.08986 0.61386 0.47145 0.0
O98 O 0.14176 0.64262 0.43774 0.0
O99 O 1.02998 0.66047 0.43287 0.0
O100 O 0.91111 0.65891 0.51973 0.0
O101 O 0.92568 0.63623 0.49536 0.0
C102 C 0.27716 0.65374 0.5157 0.0
O103 O 0.07833 0.6871 0.46912 0.0
O104 O 1.00237 0.68491 0.54135 0.0
C105 C 0.08388 0.59127 0.51625 0.0
C106 C 1.04488 0.56234 0.51162 0.0
C107 C 0.12174 0.56691 0.54228 0.0
C108 C 0.14112 0.58126 0.54447 0.0
C109 C 1.00264 0.58679 0.48825 0.0
C110 C 0.98314 0.5724 0.48606 0.0
C111 C 0.12094 0.60585 0.51021 0.0
H112 H 1.01124 0.73922 0.55078 0.0
H113 H 0.94025 0.71626 0.53529 0.0
H114 H 0.2345 0.70041 0.50596 0.0
H115 H 0.30602 0.72351 0.52004 0.0
H116 H 0.16926 0.55937 0.56312 0.0
H117 H 0.20435 0.5845 0.56614 0.0
H118 H 0.95747 0.59433 0.46602 0.0
H119 H 0.92346 0.56916 0.46209 0.0
Tb120 Tb 1.02754 0.41129 0.50322 0.0
Eu121 Eu 0.0543 0.3768 0.51792 0.0
C122 C 1.03758 0.39358 0.40984 0.0
C123 C 0.83779 0.39123 0.51102 0.0
C124 C 1.04011 0.45153 0.48062 0.0
C125 C 1.00658 0.47487 0.44136 0.0
C126 C 0.98444 0.46051 0.44737 0.0
C127 C 0.12339 0.45692 0.5048 0.0
C128 C 0.14556 0.47131 0.4988 0.0
C129 C 0.08457 0.4805 0.46876 0.0
C130 C 0.99877 0.43754 0.49613 0.0
O131 O 0.98631 0.40399 0.57993 0.0
O132 O 0.0965 0.38599 0.59053 0.0
O133 O 0.20654 0.38532 0.49916 0.0
O134 O 0.18784 0.4087 0.51488 0.0
C135 C 1.04264 0.39579 0.60946 0.0
O136 O 1.03948 0.35713 0.56478 0.0
O137 O 0.10677 0.35708 0.49028 0.0
O138 O 1.00461 0.38261 0.43815 0.0
O139 O 0.07439 0.40463 0.43023 0.0
O140 O 0.87907 0.40295 0.49155 0.0
O141 O 0.8907 0.38051 0.52985 0.0
C142 C 0.244 0.39774 0.50656 0.0
O143 O 0.9746 0.42931 0.46095 0.0
O144 O 1.03696 0.43062 0.53564 0.0
C145 C 1.01964 0.3367 0.52123 0.0
C146 C 0.91289 0.31187 0.50631 0.0
C147 C 1.00873 0.31121 0.52759 0.0
C148 C 0.06159 0.32353 0.53498 0.0
C149 C 0.9243 0.3375 0.49979 0.0
C150 C 0.87128 0.32516 0.49229 0.0
C151 C 0.07579 0.34948 0.53025 0.0
H152 H 0.95945 0.48169 0.4173 0.0
H153 H 0.91973 0.45659 0.42846 0.0
H154 H 0.16761 0.45022 0.53073 0.0
H155 H 0.206 0.47537 0.52049 0.0
H156 H 1.04336 0.30114 0.53805 0.0
H157 H 0.13529 0.32278 0.5515 0.0
H158 H 0.89089 0.34765 0.48916 0.0
H159 H 0.79727 0.326 0.47622 0.0
Tb160 Tb 0.56124 0.91656 0.95538 0.0
Eu161 Eu 0.57517 0.88179 0.95574 0.0
C162 C 0.57649 0.89766 0.05649 0.0
C163 C 0.77145 0.90117 0.95193 0.0
C164 C 0.52368 0.95673 0.96756 0.0
C165 C 0.56018 0.97852 0.00652 0.0
C166 C 0.57884 0.96426 0.00153 0.0
C167 C 0.44478 0.96353 0.94113 0.0
C168 C 0.42564 0.97782 0.94634 0.0
C169 C 0.48578 0.98562 0.97759 0.0
C170 C 0.56322 0.94316 0.95259 0.0
O171 O 0.60377 0.91112 0.87985 0.0
O172 O 0.51844 0.89044 0.88045 0.0
O173 O 0.41749 0.88663 0.97504 0.0
O174 O 0.40652 0.91007 0.94686 0.0
C175 C 0.55912 0.90138 0.85556 0.0
O176 O 0.61181 0.86285 0.9181 0.0
O177 O 0.54 0.86104 -0.00814 0.0
O178 O 0.6224 0.88807 0.03186 0.0
O179 O 0.52781 0.90809 0.03232 0.0
O180 O 0.71782 0.91173 0.96595 0.0
O181 O 0.73195 0.88921 0.94005 0.0
C182 C 0.36509 0.89786 0.9615 0.0
O183 O 0.60959 0.93502 0.98639 0.0
O184 O 0.51412 0.93602 0.92061 0.0
C185 C 0.63909 0.84199 0.9698 0.0
C186 C 0.75314 0.8177 -0.00556 0.0
C187 C 0.65517 0.81657 0.97652 0.0
C188 C 0.59875 0.82861 0.96437 0.0
C189 C 0.73625 0.84328 0.98822 0.0
C190 C 0.79311 0.83118 0.00041 0.0
C191 C 0.57828 0.85435 0.95522 0.0
H192 H 0.60885 0.98417 0.0305 0.0
H193 H 0.64127 0.95939 0.02177 0.0
H194 H 0.40141 0.95805 0.91433 0.0
H195 H 0.36645 0.98289 0.92424 0.0
H196 H 0.62286 0.80638 0.97055 0.0
H197 H 0.52383 0.82749 0.95005 0.0
H198 H 0.76814 0.85359 -0.00728 0.0
H199 H 0.86816 0.83237 0.0144 0.0
Tb200 Tb 0.49848 0.13888 0.00405 0.0
Eu201 Eu 0.52465 0.17346 0.9815 0.0
C202 C 0.50987 0.15873 0.09331 0.0
C203 C 0.31153 0.15925 -0.00439 0.0
C204 C 0.4892 0.0982 0.01275 0.0
C205 C 0.57355 0.0762 0.03826 0.0
C206 C 0.56411 0.0908 0.04034 0.0
C207 C 0.4266 0.09078 0.98167 0.0
C208 C 0.43579 0.07622 0.97971 0.0
C209 C 0.50772 0.06868 0.00893 0.0
C210 C 0.46364 0.11286 0.02253 0.0
O211 O 0.5547 0.14145 0.92698 0.0
O212 O 0.49528 0.16377 0.90848 0.0
O213 O 0.67705 0.16451 0.96977 0.0
O214 O 0.65902 0.14252 0.01202 0.0
C215 C 0.53092 0.15187 0.89411 0.0
O216 O 0.48687 0.19245 0.93468 0.0
O217 O 0.59226 0.19371 -0.00437 0.0
O218 O 0.55237 0.16873 0.06406 0.0
O219 O 0.46437 0.14803 0.07482 0.0
O220 O 0.35304 0.14759 0.98211 0.0
O221 O 0.36585 0.17004 0.00716 0.0
C222 C 0.71509 0.15288 0.99145 0.0
O223 O 0.52418 0.12009 0.0491 0.0
O224 O 0.4224 0.12067 0.98606 0.0
C225 C 0.4941 0.21376 0.97378 0.0
C226 C 0.39822 0.23904 -0.00564 0.0
C227 C 0.47903 0.23916 0.96031 0.0
C228 C 0.52649 0.22662 0.95015 0.0
C229 C 0.41446 0.21353 0.00827 0.0
C230 C 0.36687 0.22609 0.01853 0.0
C231 C 0.54156 0.20069 0.96033 0.0
H232 H 0.63074 0.07074 0.06066 0.0
H233 H 0.6128 0.09618 0.06513 0.0
H234 H 0.36681 0.09612 0.96077 0.0
H235 H 0.38287 0.07079 0.95727 0.0
H236 H 0.50404 0.2489 0.94047 0.0
H237 H 0.58754 0.22693 0.92317 0.0
H238 H 0.38857 0.20365 0.02676 0.0
H239 H 0.30558 0.22567 0.04534 0.0
Tb240 Tb 0.54798 0.17081 0.48176 0.0
Eu241 Eu 0.5739 0.13636 0.50444 0.0
C242 C 0.53782 0.15003 0.39411 0.0
C243 C 0.35684 0.1511 0.49357 0.0
C244 C 0.57498 0.21014 0.47745 0.0
C245 C 0.56917 0.23561 0.47734 0.0
C246 C 0.52619 0.22292 0.46526 0.0
C247 C 0.66621 0.21009 0.50307 0.0
C248 C 0.7095 0.2228 0.51508 0.0
C249 C 0.66201 0.23572 0.50171 0.0
C250 C 0.53144 0.19708 0.46124 0.0
O251 O 0.52585 0.16696 0.56265 0.0
O252 O 0.6098 0.14606 0.57667 0.0
O253 O 0.72174 0.14573 0.47925 0.0
O254 O 0.70309 0.16796 0.50514 0.0
C255 C 0.56756 0.15726 0.59327 0.0
O256 O 0.54659 0.1165 0.54951 0.0
O257 O 0.65468 0.11744 0.488 0.0
O258 O 0.51497 0.13919 0.42546 0.0
O259 O 0.57471 0.16169 0.41017 0.0
O260 O 0.39878 0.16241 0.47095 0.0
O261 O 0.40956 0.14057 0.51452 0.0
C262 C 0.76034 0.15756 0.49255 0.0
O263 O 0.5914 0.189 0.43773 0.0
O264 O 0.47566 0.18987 0.4941 0.0
C265 C 0.59185 0.09463 0.51521 0.0
C266 C 0.58458 0.06501 0.51266 0.0
C267 C 0.51721 0.07201 0.54295 0.0
C268 C 0.52109 0.08668 0.54439 0.0
C269 C 0.65615 0.08767 0.48333 0.0
C270 C 0.6525 0.07305 0.482 0.0
C271 C 0.61097 0.10955 0.52389 0.0
H272 H 0.52995 0.24535 0.46733 0.0
H273 H 0.45544 0.2231 0.44569 0.0
H274 H 0.70479 0.20027 0.51279 0.0
H275 H 0.78144 0.22254 0.53347 0.0
H276 H 0.46299 0.06613 0.56647 0.0
H277 H 0.47133 0.09171 0.56982 0.0
H278 H 0.71289 0.09346 0.46114 0.0
H279 H 0.70637 0.068 0.45876 0.0
Tb280 Tb 0.52197 0.91378 0.45652 0.0
Eu281 Eu 0.50644 0.87899 0.45632 0.0
C282 C 0.51875 0.89894 0.35638 0.0
C283 C 0.31189 0.8984 0.45721 0.0
C284 C 0.56496 0.95365 0.46868 0.0
C285 C 0.66724 0.97437 0.44673 0.0
C286 C 0.644 0.96023 0.44103 0.0
C287 C 0.51418 0.96119 0.50439 0.0
C288 C 0.53693 0.9753 0.50987 0.0
C289 C 0.61112 0.98223 0.4797 0.0
C290 C 0.5209 0.94036 0.45375 0.0
O291 O 0.56131 0.90538 0.53222 0.0
O292 O 0.46743 0.88517 0.53429 0.0
O293 O 0.66623 0.88372 0.47011 0.0
O294 O 0.67663 0.9075 0.44624 0.0
C295 C 0.51416 0.89496 0.55762 0.0
O296 O 0.54551 0.85819 0.49057 0.0
O297 O 0.46253 0.86007 0.42032 0.0
O298 O 0.55924 0.8878 0.37982 0.0
O299 O 0.47443 0.9084 0.38213 0.0
O300 O 0.36687 0.90867 0.47243 0.0
O301 O 0.35036 0.88668 0.44261 0.0
C302 C 0.71807 0.89516 0.45793 0.0
O303 O 0.56669 0.93323 0.42043 0.0
O304 O 0.476 0.93221 0.48843 0.0
C305 C 0.4468 0.83867 0.47158 0.0
C306 C 0.34463 0.81323 0.49752 0.0
C307 C 0.44678 0.8132 0.48526 0.0
C308 C 0.49722 0.82579 0.47251 0.0
C309 C 0.34534 0.8389 0.48462 0.0
C310 C 0.29449 0.82625 0.49748 0.0
C311 C 0.50216 0.85154 0.45542 0.0
H312 H 0.72612 0.97933 0.4236 0.0
H313 H 0.68414 0.95473 0.41296 0.0
H314 H 0.45185 0.95647 0.52567 0.0
H315 H 0.49124 0.98101 0.53519 0.0
H316 H 0.48732 0.80339 0.48394 0.0
H317 H 0.57557 0.82546 0.46239 0.0
H318 H 0.30546 0.84881 0.48426 0.0
H319 H 0.21601 0.82663 0.50713 0.0
H320 H 0.40396 0.41827 -0.00424 0.0
H321 H 0.3784 0.37324 0.02742 0.0
H322 H 0.55985 0.37113 0.02845 0.0
H323 H 0.72588 0.38197 0.02043 0.0
H324 H 0.75348 0.42711 -0.0064 0.0
H325 H 0.57152 0.42929 0.99087 0.0
C326 C 0.43823 0.408 0.00271 0.0
C327 C 0.37754 0.39592 0.01123 0.0
C328 C 0.54304 0.40688 0.00428 0.0
C329 C 0.42314 0.38271 0.02088 0.0
C330 C 0.52702 0.38149 0.02139 0.0
C331 C 0.69224 0.3923 0.01387 0.0
C332 C 0.75347 0.40436 0.00689 0.0
C333 C 0.58769 0.39349 0.01316 0.0
C334 C 0.70829 0.41766 -0.00083 0.0
C335 C 0.60417 0.41891 -0.00254 0.0
H336 H 0.42742 0.67466 0.00083 0.0
H337 H 0.40157 0.62932 0.01658 0.0
H338 H 0.58364 0.62722 0.01723 0.0
H339 H 0.7506 0.63835 0.01426 0.0
H340 H 0.7749 0.68367 -0.00633 0.0
H341 H 0.59328 0.68568 -0.00605 0.0
C342 C 0.46152 0.6643 0.00453 0.0
C343 C 0.40076 0.65216 0.00911 0.0
C344 C 0.56615 0.66318 0.00399 0.0
C345 C 0.44641 0.63883 0.01301 0.0
C346 C 0.55058 0.63764 0.0135 0.0
C347 C 0.71609 0.64866 0.00991 0.0
C348 C 0.77649 0.66085 0.00429 0.0
C349 C 0.61126 0.64974 0.0092 0.0
C350 C 0.73046 0.67412 -0.00202 0.0
C351 C 0.62648 0.67529 -0.00174 0.0
H352 H 0.73699 0.66844 0.50762 0.0
H353 H 0.75731 0.62315 0.50615 0.0
H354 H 0.57555 0.62131 0.50992 0.0
H355 H 0.41147 0.6325 0.51447 0.0
H356 H 0.39028 0.67782 0.51277 0.0
H357 H 0.57237 0.6797 0.50959 0.0
C358 C 0.70183 0.65815 0.50816 0.0
C359 C 0.76098 0.64593 0.50689 0.0
C360 C 0.59728 0.65717 0.50995 0.0
C361 C 0.71383 0.63272 0.50701 0.0
C362 C 0.60985 0.63166 0.50934 0.0
C363 C 0.44656 0.6428 0.51374 0.0
C364 C 0.38731 0.65501 0.51437 0.0
C365 C 0.55096 0.6438 0.51108 0.0
C366 C 0.43409 0.66827 0.51244 0.0
C367 C 0.53817 0.66934 0.51062 0.0
H368 H 0.70377 0.41266 0.50065 0.0
H369 H 0.72452 0.36731 0.52238 0.0
H370 H 0.54289 0.36545 0.52238 0.0
H371 H 0.37909 0.37661 0.51622 0.0
H372 H 0.35636 0.42197 0.49737 0.0
H373 H 0.53852 0.42391 0.49638 0.0
C374 C 0.66858 0.40236 0.50521 0.0
C375 C 0.7277 0.39013 0.51129 0.0
C376 C 0.56402 0.40138 0.50578 0.0
C377 C 0.68088 0.37688 0.51777 0.0
C378 C 0.57701 0.37581 0.51768 0.0
C379 C 0.4137 0.38695 0.51167 0.0
C380 C 0.35405 0.39914 0.5065 0.0
C381 C 0.518 0.38798 0.51168 0.0
C382 C 0.40045 0.41243 0.50141 0.0
C383 C 0.50457 0.41354 0.50075 0.0
H384 H 0.91119 0.88053 0.95875 0.0
H385 H 0.8765 0.92575 0.94428 0.0
H386 H 0.05712 0.92883 0.94574 0.0
H387 H 0.22527 0.91867 0.95191 0.0
H388 H 0.25848 0.87339 0.9694 0.0
H389 H 0.07861 0.87041 0.9662 0.0
C390 C 0.94326 0.89105 0.95557 0.0
C391 C 0.88075 0.90287 0.95126 0.0
C392 C 1.04705 0.89276 0.95728 0.0
C393 C 0.9232 0.91645 0.94782 0.0
C394 C 1.02646 0.91824 0.94861 0.0
C395 C 0.19313 0.90816 0.95503 0.0
C396 C 0.25544 0.89631 0.96092 0.0
C397 C 0.08917 0.90647 0.95354 0.0
C398 C 0.21245 0.88275 0.96515 0.0
C399 C 0.10941 0.88099 0.96313 0.0
H400 H 0.17523 0.13786 0.00031 0.0
H401 H 0.19908 0.18326 0.99029 0.0
H402 H 1.01748 0.18522 0.98705 0.0
H403 H 0.85179 0.1741 0.98645 0.0
H404 H 0.82673 0.12874 0.00116 0.0
H405 H 1.00872 0.12672 0.0032 0.0
C406 C 0.14071 0.14819 -0.00264 0.0
C407 C 0.20097 0.1604 -0.00477 0.0
C408 C 1.03593 0.14925 -0.00369 0.0
C409 C 0.15477 0.17369 -0.00792 0.0
C410 C 1.0508 0.17482 0.99009 0.0
C411 C 0.88607 0.16376 0.9899 0.0
C412 C 0.82552 0.15158 -0.00681 0.0
C413 C 0.99066 0.16268 -0.00799 0.0
C414 C 0.87137 0.13828 -0.00147 0.0
C415 C 0.9755 0.13712 -0.00038 0.0
H416 H 0.2217 0.1726 0.48697 0.0
H417 H 0.243 0.12721 0.50252 0.0
H418 H 0.06127 0.1253 0.50316 0.0
H419 H 0.89635 0.13642 0.49888 0.0
H420 H 0.87293 0.18178 0.48812 0.0
H421 H 0.05524 0.1838 0.48629 0.0
C422 C 0.18652 0.16229 0.49033 0.0
C423 C 0.24615 0.15005 0.49432 0.0
C424 C 0.08157 0.16127 0.49167 0.0
C425 C 0.19921 0.13679 0.49944 0.0
C426 C 0.09516 0.13569 0.49973 0.0
C427 C 0.93097 0.14677 0.49604 0.0
C428 C 0.87084 0.15894 0.49322 0.0
C429 C 1.03564 0.14784 0.4958 0.0
C430 C 0.91725 0.17225 0.49035 0.0
C431 C 1.02156 0.1734 0.48917 0.0
H432 H 0.85838 0.9159 0.46067 0.0
H433 H 0.8233 0.87098 0.45172 0.0
H434 H 1.00328 0.86806 0.44992 0.0
H435 H 0.17089 0.87809 0.45159 0.0
H436 H 0.2079 0.92285 0.46314 0.0
H437 H 1.02738 0.92595 0.46325 0.0
C438 C 0.89026 0.9055 0.45815 0.0
C439 C 0.82751 0.89371 0.45642 0.0
C440 C 0.99426 0.90382 0.45769 0.0
C441 C 0.86986 0.88026 0.4535 0.0
C442 C 0.9729 0.87855 0.45232 0.0
C443 C 0.13951 0.88853 0.45396 0.0
C444 C 0.20267 0.90019 0.4573 0.0
C445 C 1.03579 0.89023 0.45453 0.0
C446 C 0.16083 0.91365 0.46078 0.0
C447 C 0.05758 0.91546 0.46072 0.0
H448 H 0.18298 0.54862 0.04888 0.0
H449 H 0.95452 0.55773 0.93732 0.0
H450 H 0.93461 0.5326 0.92704 0.0
H451 H 0.97777 0.50798 0.95171 0.0
H452 H 0.20543 0.49889 0.0637 0.0
H453 H 0.22637 0.52403 0.07339 0.0
C454 C 0.12834 0.54513 0.0225 0.0
C455 C 0.07052 0.55513 -0.00609 0.0
C456 C 0.11571 0.53063 0.01749 0.0
C457 C 1.00139 0.55035 0.95926 0.0
C458 C 0.98907 0.53595 0.95374 0.0
C459 C 1.03244 0.51148 0.97804 0.0
C460 C 0.0896 0.50149 0.00703 0.0
C461 C 1.04532 0.52599 0.9829 0.0
C462 C 0.15901 0.50628 0.04151 0.0
C463 C 0.17187 0.52068 0.04671 0.0
H464 H 0.93562 0.49905 0.48101 0.0
H465 H 0.25508 0.49645 0.46364 0.0
H466 H 0.2704 0.52165 0.47542 0.0
H467 H 0.19299 0.54418 0.49244 0.0
H468 H 0.8737 0.54667 0.51079 0.0
H469 H 0.85791 0.52167 0.49588 0.0
C470 C 1.00847 0.50405 0.47883 0.0
C471 C 0.09412 0.49595 0.47113 0.0
C472 C 1.01662 0.51845 0.48608 0.0
C473 C 0.1882 0.50249 0.46965 0.0
C474 C 0.19692 0.51687 0.47638 0.0
C475 C 0.12004 0.53921 0.4937 0.0
C476 C 1.03466 0.54719 0.50324 0.0
C477 C 0.11171 0.52489 0.48521 0.0
C478 C 0.94039 0.54072 0.50348 0.0
C479 C 0.93142 0.52645 0.49506 0.0
H480 H 0.50554 1.00253 0.05599 0.0
H481 H 0.45309 1.00401 0.89535 0.0
H482 H 0.45631 0.02968 0.89084 0.0
H483 H 0.48112 0.05172 0.93155 0.0
H484 H 0.53512 0.05034 0.09196 0.0
H485 H 0.52878 1.02463 0.09691 0.0
C486 C 0.49504 1.00845 0.01994 0.0
C487 C 0.47868 1.00127 0.97617 0.0
C488 C 0.49932 1.02325 0.0173 0.0
C489 C 0.46382 1.00918 0.92992 0.0
C490 C 0.46691 1.0239 0.92713 0.0
C491 C 0.49087 0.04582 0.96768 0.0
C492 C 0.50903 0.053 0.01123 0.0
C493 C 0.48554 0.03103 0.97046 0.0
C494 C 0.52292 0.04512 0.05761 0.0
C495 C 0.5182 0.0304 0.06061 0.0
H496 H 0.61182 0.04826 0.43478 0.0
H497 H 0.56787 0.04657 0.5963 0.0
H498 H 0.57891 1.02089 0.60089 0.0
H499 H 0.60015 0.99892 0.55903 0.0
H500 H 0.64104 1.00071 0.39723 0.0
H501 H 0.63731 0.02637 0.39329 0.0
C502 C 0.60548 0.0423 0.47107 0.0
C503 C 0.58834 0.04935 0.51504 0.0
C504 C 0.61315 0.02755 0.47357 0.0
C505 C 0.57906 0.04141 0.56167 0.0
C506 C 0.58643 0.02673 0.56444 0.0
C507 C 0.60824 1.00492 0.52288 0.0
C508 C 0.62096 0.99783 0.47856 0.0
C509 C 0.60322 1.01969 0.5206 0.0
C510 C 0.63296 1.00582 0.43215 0.0
C511 C 0.62951 1.02052 0.42971 0.0
H512 H 0.11189 0.29062 0.02078 0.0
H513 H 0.39399 0.31247 0.02463 0.0
H514 H 0.48246 0.29038 0.01524 0.0
H515 H 0.47961 0.26486 0.00614 0.0
H516 H 0.19719 0.2431 0.00197 0.0
H517 H 0.10907 0.2651 0.01305 0.0
C518 C 0.19277 0.29054 0.02015 0.0
C519 C 0.24615 0.3032 0.02336 0.0
C520 C 0.24314 0.2778 0.01513 0.0
C521 C 0.35096 0.30292 0.02156 0.0
C522 C 0.40165 0.29027 0.01653 0.0
C523 C 0.39875 0.26494 0.00738 0.0
C524 C 0.34517 0.25234 0.00321 0.0
C525 C 0.34847 0.27766 0.01314 0.0
C526 C 0.24041 0.2526 0.00575 0.0
C527 C 0.18988 0.2652 0.01168 0.0
H528 H 0.69525 0.79266 0.04173 0.0
H529 H 0.94777 0.81377 0.96819 0.0
H530 H 1.04164 0.79175 0.97446 0.0
H531 H 1.04553 0.76615 -0.00713 0.0
H532 H 0.79213 0.74487 0.06508 0.0
H533 H 0.70398 0.7673 0.06608 0.0
C534 C 0.77097 0.79244 0.02721 0.0
C535 C 0.8141 0.8048 0.00408 0.0
C536 C 0.82369 0.7797 0.02997 0.0
C537 C 0.91301 0.80444 0.98644 0.0
C538 C 0.96642 0.79182 0.9896 0.0
C539 C 0.97187 0.76643 0.00983 0.0
C540 C 0.92527 0.75382 0.02854 0.0
C541 C 0.92166 0.77934 0.01024 0.0
C542 C 0.82908 0.75439 0.04964 0.0
C543 C 0.77882 0.76721 0.05046 0.0
H544 H 0.08595 0.7579 0.49638 0.0
H545 H 0.33624 0.74092 0.58215 0.0
H546 H 0.41048 0.76445 0.58116 0.0
H547 H 0.40814 0.78958 0.5521 0.0
H548 H 0.15979 0.80628 0.46409 0.0
H549 H 0.07894 0.7832 0.47163 0.0
C550 C 0.15581 0.75937 0.51573 0.0
C551 C 0.20561 0.74765 0.53918 0.0
C552 C 0.19816 0.77289 0.5148 0.0
C553 C 0.29701 0.74973 0.56326 0.0
C554 C 0.33926 0.76319 0.5629 0.0
C555 C 0.33625 0.78817 0.5346 0.0
C556 C 0.29051 0.79964 0.50726 0.0
C557 C 0.29125 0.77479 0.53805 0.0
C558 C 0.19635 0.7977 0.48574 0.0
C559 C 0.15045 0.78446 0.48962 0.0
H560 H 0.89519 0.28862 0.5716 0.0
H561 H 0.80554 0.30565 0.42366 0.0
H562 H 0.71787 0.28372 0.40988 0.0
H563 H 0.67224 0.25947 0.43856 0.0
H564 H 0.76181 0.24237 0.58645 0.0
H565 H 0.84624 0.2645 0.60108 0.0
C566 C 0.85694 0.2875 0.53623 0.0
C567 C 0.85713 0.29872 0.49865 0.0
C568 C 0.80743 0.27484 0.52842 0.0
C569 C 0.8057 0.29721 0.45338 0.0
C570 C 0.75611 0.28465 0.44535 0.0
C571 C 0.70904 0.26064 0.47429 0.0
C572 C 0.71067 0.24928 0.51137 0.0
C573 C 0.75695 0.27338 0.4825 0.0
C574 C 0.7604 0.25089 0.55706 0.0
C575 C 0.80824 0.26356 0.56555 0.0
H576 H 0.97836 0.38409 0.1795 0.0
H577 H 0.11607 0.42527 0.16186 0.0
H578 H 0.12508 0.42583 0.25379 0.0
H579 H 0.09738 0.4143 0.3391 0.0
H580 H 0.9624 0.37289 0.35497 0.0
H581 H 0.94943 0.37279 0.26357 0.0
C582 C 1.00982 0.39328 0.19552 0.0
C583 C 1.04635 0.40464 0.16361 0.0
C584 C 1.01595 0.39345 0.24816 0.0
C585 C 0.08726 0.41638 0.18541 0.0
C586 C 0.09267 0.41669 0.238 0.0
C587 C 0.06517 0.40524 0.32261 0.0
C588 C 1.03119 0.3936 0.35408 0.0
C589 C 0.05798 0.40522 0.26975 0.0
C590 C 0.98947 0.38198 0.33188 0.0
C591 C 0.9818 0.38191 0.27952 0.0
H592 H 0.14319 0.64083 0.18103 0.0
H593 H 0.9697 0.67901 0.16177 0.0
H594 H 0.96054 0.68014 0.25343 0.0
H595 H 1.00319 0.67027 0.33945 0.0
H596 H 0.18021 0.63232 0.35649 0.0
H597 H 0.18642 0.6312 0.26549 0.0
C598 C 0.10302 0.6494 0.19674 0.0
C599 C 0.05711 0.65979 0.1645 0.0
C600 C 0.09884 0.65006 0.24927 0.0
C601 C 1.00592 0.67086 0.18569 0.0
C602 C 1.0006 0.67152 0.23814 0.0
C603 C 1.04304 0.66177 0.3232 0.0
C604 C 0.09115 0.65142 0.35494 0.0
C605 C 1.04703 0.66118 0.27037 0.0
C606 C 0.14273 0.64049 0.33317 0.0
C607 C 0.14628 0.63979 0.281 0.0
H608 H 1.02535 0.63693 0.84766 0.0
H609 H 0.21272 0.67403 0.84319 0.0
H610 H 0.21358 0.67532 0.75141 0.0
H611 H 0.15851 0.66636 0.67203 0.0
H612 H 0.97234 0.6292 0.67558 0.0
H613 H 0.97364 0.62757 0.76774 0.0
C614 C 0.06699 0.64523 0.82665 0.0
C615 C 0.11853 0.65537 0.85257 0.0
C616 C 0.06695 0.64599 0.77351 0.0
C617 C 0.17194 0.66608 0.82451 0.0
C618 C 0.17246 0.66686 0.77184 0.0
C619 C 0.11798 0.65792 0.6929 0.0
C620 C 0.06514 0.64797 0.66681 0.0
C621 C 0.1195 0.65697 0.74593 0.0
C622 C 1.01372 0.63703 0.6946 0.0
C623 C 1.01441 0.63607 0.74739 0.0
H624 H 0.12685 0.37854 0.68439 0.0
H625 H 0.95918 0.41709 0.6581 0.0
H626 H 0.95881 0.42034 0.74819 0.0
H627 H 1.0046 0.41231 0.83432 0.0
H628 H 0.16898 0.37356 0.86218 0.0
H629 H 0.17209 0.37036 0.77163 0.0
C630 C 0.09034 0.38766 0.69838 0.0
C631 C 1.04304 0.39754 0.66443 0.0
C632 C 0.08975 0.38945 0.75052 0.0
C633 C 0.99582 0.40927 0.68328 0.0
C634 C 0.99567 0.41117 0.73486 0.0
C635 C 1.04149 0.40317 0.82073 0.0
C636 C 0.08665 0.39321 0.8551 0.0
C637 C 1.04224 0.40133 0.76879 0.0
C638 C 0.13348 0.38139 0.83663 0.0
C639 C 0.13535 0.37956 0.78481 0.0
H640 H 0.48727 0.91482 0.12149 0.0
H641 H 0.66656 0.87722 0.11779 0.0
H642 H 0.66443 0.87433 0.20966 0.0
H643 H 0.61066 0.88224 0.29128 0.0
H644 H 0.43192 0.91984 0.29553 0.0
H645 H 0.43502 0.9229 0.20348 0.0
C646 C 0.52609 0.90601 0.14073 0.0
C647 C 0.57682 0.89626 0.11253 0.0
C648 C 0.52457 0.90436 0.19382 0.0
C649 C 0.62675 0.88491 0.1383 0.0
C650 C 0.62558 0.88321 0.19098 0.0
C651 C 0.57224 0.8911 0.27214 0.0
C652 C 0.52091 0.90075 0.30043 0.0
C653 C 0.57445 0.89284 0.21913 0.0
C654 C 0.47197 0.91222 0.27483 0.0
C655 C 0.47368 0.91399 0.2221 0.0
H656 H 0.4619 0.13813 0.16635 0.0
H657 H 0.57002 0.181 0.14472 0.0
H658 H 0.58721 0.18198 0.23565 0.0
H659 H 0.57539 0.17065 0.32065 0.0
H660 H 0.46946 0.12772 0.34374 0.0
H661 H 0.44772 0.12681 0.25259 0.0
C662 C 0.4885 0.14772 0.18153 0.0
C663 C 0.51464 0.15947 0.14868 0.0
C664 C 0.49922 0.14819 0.23399 0.0
C665 C 0.54961 0.17178 0.16903 0.0
C666 C 0.55958 0.17236 0.22106 0.0
C667 C 0.54761 0.16105 0.30597 0.0
C668 C 0.52457 0.14924 0.33908 0.0
C669 C 0.5354 0.1606 0.25378 0.0
C670 C 0.48817 0.13695 0.31914 0.0
C671 C 0.47557 0.13643 0.26702 0.0
H672 H 0.49877 0.17187 0.81804 0.0
H673 H 0.59686 0.12882 0.84709 0.0
H674 H 0.62113 0.1269 0.75646 0.0
H675 H 0.61104 0.13735 0.66904 0.0
H676 H 0.51095 0.18036 0.64124 0.0
H677 H 0.49163 0.18237 0.73171 0.0
C678 C 0.52536 0.16203 0.80476 0.0
C679 C 0.54545 0.15048 0.8394 0.0
C680 C 0.53913 0.161 0.75285 0.0
C681 C 0.58044 0.13787 0.82129 0.0
C682 C 0.59448 0.13676 0.76947 0.0
C683 C 0.58578 0.1472 0.68275 0.0
C684 C 0.56237 0.15868 0.64831 0.0
C685 C 0.57377 0.14826 0.73492 0.0
C686 C 0.52918 0.17134 0.6668 0.0
C687 C 0.51798 0.17251 0.71856 0.0
H688 H 0.59531 0.91373 0.6189 0.0
H689 H 0.43188 0.87446 0.62259 0.0
H690 H 0.43079 0.8731 0.71463 0.0
H691 H 0.47649 0.88292 0.7941 0.0
H692 H 0.63973 0.92218 0.7909 0.0
H693 H 0.64028 0.92365 0.69867 0.0
C694 C 0.55947 0.90486 0.63976 0.0
C695 C 0.51387 0.89421 0.61364 0.0
C696 C 0.55893 0.90413 0.69285 0.0
C697 C 0.46761 0.88282 0.6415 0.0
C698 C 0.4669 0.88202 0.69424 0.0
C699 C 0.51217 0.89182 0.77333 0.0
C700 C 0.55809 0.90241 0.79955 0.0
C701 C 0.51235 0.8926 0.7203 0.0
C702 C 0.60382 0.91386 0.77182 0.0
C703 C 0.60425 0.91471 0.71901 0.0
loop_
_geom_bond_atom_site_label_1
_geom_bond_atom_site_label_2
_geom_bond_distance
_geom_bond_site_symmetry_2
_ccdc_geom_bond_type
Tb0 C10 2.825 1_554 S
Tb0 O11 2.347 1_554 S
Tb0 O14 2.366 1_455 S
Tb0 O19 2.418 . S
Tb0 O20 2.384 . S
Tb0 O23 2.479 . S
Tb0 O24 2.471 1_554 S
Eu1 O12 2.418 . S
Eu1 O13 2.384 1_455 S
Eu1 O16 2.479 . S
Eu1 O17 2.471 1_556 S
Eu1 O18 2.347 1_556 S
Eu1 O21 2.366 . S
Eu1 C31 2.825 1_556 S
C2 O18 1.259 . S
C2 O19 1.265 . S
C3 O20 1.255 . S
C3 O21 1.265 1_554 S
C4 C6 1.380 1_556 S
C4 C7 1.374 . S
C4 C10 1.507 1_655 S
C5 C6 1.384 . S
C5 C9 1.387 1_554 S
C5 H32 0.930 . S
C6 C4 1.380 1_554 S
C6 C5 1.384 . S
C6 H33 0.931 . S
C7 C4 1.374 . S
C7 C8 1.390 . S
C7 H34 0.930 . S
C8 C7 1.390 . S
C8 C9 1.391 . S
C8 H35 0.930 . S
C9 C5 1.387 1_556 S
C9 C8 1.391 . S
C10 Tb0 2.825 1_556 S
C10 C4 1.507 1_455 S
C10 O23 1.238 1_556 S
C10 O24 1.247 . S
O11 Tb0 2.347 1_556 S
O11 C15 1.259 . S
O12 Eu1 2.418 . S
O12 C15 1.265 . S
O13 Eu1 2.384 1_655 S
O13 C22 1.255 1_556 S
O14 Tb0 2.366 1_655 S
O14 C22 1.265 . S
C15 O11 1.259 . S
C15 O12 1.265 . S
O16 Eu1 2.479 . S
O16 C31 1.238 1_556 S
O17 Eu1 2.471 1_554 S
O17 C31 1.247 . S
O18 Eu1 2.347 1_554 S
O18 C2 1.259 . S
O19 Tb0 2.418 . S
O19 C2 1.265 . S
O20 Tb0 2.384 . S
O20 C3 1.255 . S
O21 Eu1 2.366 . S
O21 C3 1.265 1_556 S
C22 O13 1.255 1_554 S
C22 O14 1.265 . S
O23 Tb0 2.479 . S
O23 C10 1.238 1_554 S
O24 Tb0 2.471 1_556 S
O24 C10 1.247 . S
C25 C28 1.380 1_554 S
C25 C29 1.374 . S
C25 C31 1.507 . S
C26 C27 1.387 1_554 S
C26 C30 1.391 . S
C27 C26 1.387 1_556 S
C27 C28 1.384 . S
C27 H36 0.930 . S
C28 C25 1.380 1_556 S
C28 C27 1.384 . S
C28 H37 0.931 . S
C29 C25 1.374 . S
C29 C30 1.390 . S
C29 H38 0.930 . S
C30 C26 1.391 . S
C30 C29 1.390 . S
C30 H39 0.930 . S
C31 Eu1 2.825 1_554 S
C31 O16 1.238 1_554 S
C31 O17 1.247 . S
C31 C25 1.507 . S
H32 C5 0.930 . S
H33 C6 0.931 . S
H34 C7 0.930 . S
H35 C8 0.930 . S
H36 C27 0.930 . S
H37 C28 0.931 . S
H38 C29 0.930 . S
H39 C30 0.930 . S
Tb40 C50 2.825 . S
Tb40 O51 2.347 1_554 S
Tb40 O54 2.366 1_655 S
Tb40 O59 2.418 . S
Tb40 O60 2.384 . S
Tb40 O63 2.479 . S
Tb40 O64 2.471 1_554 S
Eu41 O52 2.418 . S
Eu41 O53 2.384 1_655 S
Eu41 O56 2.479 . S
Eu41 O57 2.471 1_556 S
Eu41 O58 2.347 1_556 S
Eu41 O61 2.366 . S
Eu41 C71 2.825 . S
C42 O58 1.259 . S
C42 O59 1.265 . S
C43 O60 1.255 . S
C43 O61 1.265 1_554 S
C44 C46 1.380 . S
C44 C47 1.374 1_554 S
C44 C50 1.507 1_455 S
C45 C46 1.384 . S
C45 C49 1.387 1_554 S
C45 H72 0.930 . S
C46 C44 1.380 . S
C46 C45 1.384 . S
C46 H73 0.931 . S
C47 C44 1.374 1_556 S
C47 C48 1.390 . S
C47 H74 0.930 . S
C48 C47 1.390 . S
C48 C49 1.391 . S
C48 H75 0.930 . S
C49 C45 1.387 1_556 S
C49 C48 1.391 . S
C50 Tb40 2.825 . S
C50 C44 1.507 1_655 S
C50 O63 1.238 . S
C50 O64 1.247 1_554 S
O51 Tb40 2.347 1_556 S
O51 C55 1.259 . S
O52 Eu41 2.418 . S
O52 C55 1.265 . S
O53 Eu41 2.384 1_455 S
O53 C62 1.255 1_556 S
O54 Tb40 2.366 1_455 S
O54 C62 1.265 . S
C55 O51 1.259 . S
C55 O52 1.265 . S
O56 Eu41 2.479 . S
O56 C71 1.235 . S
O57 Eu41 2.471 1_554 S
O57 C71 1.249 1_554 S
O58 Eu41 2.347 1_554 S
O58 C42 1.259 . S
O59 Tb40 2.418 . S
O59 C42 1.265 . S
O60 Tb40 2.384 . S
O60 C43 1.255 . S
O61 Eu41 2.366 . S
O61 C43 1.265 1_556 S
C62 O53 1.255 1_554 S
C62 O54 1.265 . S
O63 Tb40 2.479 . S
O63 C50 1.238 . S
O64 Tb40 2.471 1_556 S
O64 C50 1.247 1_556 S
C65 C68 1.380 1_554 S
C65 C69 1.374 . S
C65 C71 1.507 1_554 S
C66 C67 1.387 1_554 S
C66 C70 1.391 . S
C67 C66 1.387 1_556 S
C67 C68 1.384 . S
C67 H76 0.930 . S
C68 C65 1.380 1_556 S
C68 C67 1.384 . S
C68 H77 0.931 . S
C69 C65 1.374 . S
C69 C70 1.390 . S
C69 H78 0.930 . S
C70 C66 1.391 . S
C70 C69 1.390 . S
C70 H79 0.930 . S
C71 Eu41 2.825 . S
C71 O56 1.235 . S
C71 O57 1.249 1_556 S
C71 C65 1.507 1_556 S
H72 C45 0.930 . S
H73 C46 0.931 . S
H74 C47 0.930 . S
H75 C48 0.930 . S
H76 C67 0.930 . S
H77 C68 0.931 . S
H78 C69 0.930 . S
H79 C70 0.930 . S
Tb80 C90 2.825 . S
Tb80 O91 2.347 . S
Tb80 O94 2.366 . S
Tb80 O99 2.418 . S
Tb80 O100 2.384 1_455 S
Tb80 O103 2.479 . S
Tb80 O104 2.471 . S
Eu81 O92 2.418 . S
Eu81 O93 2.384 . S
Eu81 O96 2.479 . S
Eu81 O97 2.471 . S
Eu81 O98 2.347 . S
Eu81 O101 2.366 1_455 S
Eu81 C111 2.825 . S
C82 O98 1.259 . S
C82 O99 1.265 . S
C83 O100 1.255 . S
C83 O101 1.265 . S
C84 C86 1.380 . S
C84 C87 1.374 . S
C84 C90 1.507 . S
C85 C86 1.384 . S
C85 C89 1.387 . S
C85 H112 0.930 . S
C86 C84 1.380 . S
C86 C85 1.384 . S
C86 H113 0.931 . S
C87 C84 1.374 . S
C87 C88 1.390 . S
C87 H114 0.930 . S
C88 C87 1.390 . S
C88 C89 1.391 . S
C88 H115 0.930 . S
C89 C85 1.387 . S
C89 C88 1.391 . S
C90 Tb80 2.825 . S
C90 C84 1.507 . S
C90 O103 1.238 . S
C90 O104 1.247 . S
O91 Tb80 2.347 . S
O91 C95 1.259 . S
O92 Eu81 2.418 . S
O92 C95 1.265 . S
O93 Eu81 2.384 . S
O93 C102 1.255 . S
O94 Tb80 2.366 . S
O94 C102 1.265 . S
C95 O91 1.259 . S
C95 O92 1.265 . S
O96 Eu81 2.479 . S
O96 C111 1.238 . S
O97 Eu81 2.471 . S
O97 C111 1.247 . S
O98 Eu81 2.347 . S
O98 C82 1.259 . S
O99 Tb80 2.418 . S
O99 C82 1.265 . S
O100 Tb80 2.384 1_655 S
O100 C83 1.255 . S
O101 Eu81 2.366 1_655 S
O101 C83 1.265 . S
C102 O93 1.255 . S
C102 O94 1.265 . S
O103 Tb80 2.479 . S
O103 C90 1.238 . S
O104 Tb80 2.471 . S
O104 C90 1.247 . S
C105 C108 1.380 . S
C105 C109 1.374 . S
C105 C111 1.507 1_655 S
C106 C107 1.387 . S
C106 C110 1.391 . S
C107 C106 1.387 . S
C107 C108 1.384 . S
C107 H116 0.930 . S
C108 C105 1.380 . S
C108 C107 1.384 . S
C108 H117 0.931 . S
C109 C105 1.374 . S
C109 C110 1.390 . S
C109 H118 0.930 . S
C110 C106 1.391 . S
C110 C109 1.390 . S
C110 H119 0.930 . S
C111 Eu81 2.825 . S
C111 O96 1.238 . S
C111 O97 1.247 . S
C111 C105 1.507 1_455 S
H112 C85 0.930 . S
H113 C86 0.931 . S
H114 C87 0.930 . S
H115 C88 0.930 . S
H116 C107 0.930 . S
H117 C108 0.931 . S
H118 C109 0.930 . S
H119 C110 0.930 . S
Tb120 C130 2.825 . S
Tb120 O131 2.347 . S
Tb120 O134 2.366 1_655 S
Tb120 O139 2.418 . S
Tb120 O140 2.384 . S
Tb120 O143 2.479 . S
Tb120 O144 2.471 . S
Eu121 O132 2.418 . S
Eu121 O133 2.384 1_655 S
Eu121 O136 2.479 . S
Eu121 O137 2.471 . S
Eu121 O138 2.347 . S
Eu121 O141 2.366 . S
Eu121 C151 2.825 . S
C122 O138 1.259 . S
C122 O139 1.265 . S
C123 O140 1.255 . S
C123 O141 1.265 . S
C124 C126 1.380 . S
C124 C127 1.374 . S
C124 C130 1.507 1_455 S
C125 C126 1.384 . S
C125 C129 1.387 . S
C125 H152 0.930 . S
C126 C124 1.380 . S
C126 C125 1.384 . S
C126 H153 0.931 . S
C127 C124 1.374 . S
C127 C128 1.390 . S
C127 H154 0.930 . S
C128 C127 1.390 . S
C128 C129 1.391 . S
C128 H155 0.930 . S
C129 C125 1.387 . S
C129 C128 1.391 . S
C130 Tb120 2.825 . S
C130 C124 1.507 1_655 S
C130 O143 1.238 . S
C130 O144 1.247 . S
O131 Tb120 2.347 . S
O131 C135 1.259 . S
O132 Eu121 2.418 . S
O132 C135 1.265 . S
O133 Eu121 2.384 1_455 S
O133 C142 1.255 . S
O134 Tb120 2.366 1_455 S
O134 C142 1.265 . S
C135 O131 1.259 . S
C135 O132 1.265 . S
O136 Eu121 2.479 . S
O136 C151 1.238 . S
O137 Eu121 2.471 . S
O137 C151 1.247 . S
O138 Eu121 2.347 . S
O138 C122 1.259 . S
O139 Tb120 2.418 . S
O139 C122 1.265 . S
O140 Tb120 2.384 . S
O140 C123 1.255 . S
O141 Eu121 2.366 . S
O141 C123 1.265 . S
C142 O133 1.255 . S
C142 O134 1.265 . S
O143 Tb120 2.479 . S
O143 C130 1.238 . S
O144 Tb120 2.471 . S
O144 C130 1.247 . S
C145 C148 1.380 . S
C145 C149 1.374 . S
C145 C151 1.507 . S
C146 C147 1.387 . S
C146 C150 1.391 . S
C147 C146 1.387 . S
C147 C148 1.384 . S
C147 H156 0.930 . S
C148 C145 1.380 . S
C148 C147 1.384 . S
C148 H157 0.931 . S
C149 C145 1.374 . S
C149 C150 1.390 . S
C149 H158 0.930 . S
C150 C146 1.391 . S
C150 C149 1.390 . S
C150 H159 0.930 . S
C151 Eu121 2.825 . S
C151 O136 1.238 . S
C151 O137 1.247 . S
C151 C145 1.507 . S
H152 C125 0.930 . S
H153 C126 0.931 . S
H154 C127 0.930 . S
H155 C128 0.930 . S
H156 C147 0.930 . S
H157 C148 0.931 . S
H158 C149 0.930 . S
H159 C150 0.930 . S
Tb160 C170 2.825 1_554 S
Tb160 O171 2.347 1_554 S
Tb160 O174 2.366 . S
Tb160 O179 2.418 . S
Tb160 O180 2.384 . S
Tb160 O183 2.479 . S
Tb160 O184 2.471 1_554 S
Eu161 O172 2.418 . S
Eu161 O173 2.384 . S
Eu161 O176 2.479 . S
Eu161 O177 2.471 1_556 S
Eu161 O178 2.347 1_556 S
Eu161 O181 2.366 . S
Eu161 C191 2.825 1_556 S
C162 O178 1.259 . S
C162 O179 1.265 . S
C163 O180 1.255 . S
C163 O181 1.265 1_554 S
C164 C166 1.380 1_556 S
C164 C167 1.374 . S
C164 C170 1.507 . S
C165 C166 1.384 . S
C165 C169 1.387 1_554 S
C165 H192 0.930 . S
C166 C164 1.380 1_554 S
C166 C165 1.384 . S
C166 H193 0.931 . S
C167 C164 1.374 . S
C167 C168 1.390 . S
C167 H194 0.930 . S
C168 C167 1.390 . S
C168 C169 1.391 . S
C168 H195 0.930 . S
C169 C165 1.387 1_556 S
C169 C168 1.391 . S
C170 Tb160 2.825 1_556 S
C170 C164 1.507 . S
C170 O183 1.238 1_556 S
C170 O184 1.247 . S
O171 Tb160 2.347 1_556 S
O171 C175 1.259 . S
O172 Eu161 2.418 . S
O172 C175 1.265 . S
O173 Eu161 2.384 . S
O173 C182 1.255 1_556 S
O174 Tb160 2.366 . S
O174 C182 1.265 . S
C175 O171 1.259 . S
C175 O172 1.265 . S
O176 Eu161 2.479 . S
O176 C191 1.238 1_556 S
O177 Eu161 2.471 1_554 S
O177 C191 1.247 . S
O178 Eu161 2.347 1_554 S
O178 C162 1.259 . S
O179 Tb160 2.418 . S
O179 C162 1.265 . S
O180 Tb160 2.384 . S
O180 C163 1.255 . S
O181 Eu161 2.366 . S
O181 C163 1.265 1_556 S
C182 O173 1.255 1_554 S
C182 O174 1.265 . S
O183 Tb160 2.479 . S
O183 C170 1.238 1_554 S
O184 Tb160 2.471 1_556 S
O184 C170 1.247 . S
C185 C188 1.380 1_554 S
C185 C189 1.374 . S
C185 C191 1.507 . S
C186 C187 1.387 1_554 S
C186 C190 1.391 . S
C187 C186 1.387 1_556 S
C187 C188 1.384 . S
C187 H196 0.930 . S
C188 C185 1.380 1_556 S
C188 C187 1.384 . S
C188 H197 0.931 . S
C189 C185 1.374 . S
C189 C190 1.390 . S
C189 H198 0.930 . S
C190 C186 1.391 . S
C190 C189 1.390 . S
C190 H199 0.930 . S
C191 Eu161 2.825 1_554 S
C191 O176 1.238 1_554 S
C191 O177 1.247 . S
C191 C185 1.507 . S
H192 C165 0.930 . S
H193 C166 0.931 . S
H194 C167 0.930 . S
H195 C168 0.930 . S
H196 C187 0.930 . S
H197 C188 0.931 . S
H198 C189 0.930 . S
H199 C190 0.930 . S
Tb200 C210 2.825 . S
Tb200 O211 2.347 1_554 S
Tb200 O214 2.366 . S
Tb200 O219 2.418 . S
Tb200 O220 2.384 . S
Tb200 O223 2.479 . S
Tb200 O224 2.471 1_554 S
Eu201 O212 2.418 . S
Eu201 O213 2.384 . S
Eu201 O216 2.479 . S
Eu201 O217 2.471 1_556 S
Eu201 O218 2.347 1_556 S
Eu201 O221 2.366 . S
Eu201 C231 2.826 1_556 S
C202 O218 1.259 . S
C202 O219 1.265 . S
C203 O220 1.255 . S
C203 O221 1.265 1_554 S
C204 C206 1.380 . S
C204 C207 1.374 1_554 S
C204 C210 1.507 . S
C205 C206 1.384 . S
C205 C209 1.387 1_554 S
C205 H232 0.930 . S
C206 C204 1.380 . S
C206 C205 1.384 . S
C206 H233 0.931 . S
C207 C204 1.374 1_556 S
C207 C208 1.390 . S
C207 H234 0.930 . S
C208 C207 1.390 . S
C208 C209 1.391 . S
C208 H235 0.930 . S
C209 C205 1.387 1_556 S
C209 C208 1.391 . S
C210 Tb200 2.825 . S
C210 C204 1.507 . S
C210 O223 1.238 . S
C210 O224 1.247 1_554 S
O211 Tb200 2.347 1_556 S
O211 C215 1.259 . S
O212 Eu201 2.418 . S
O212 C215 1.265 . S
O213 Eu201 2.384 . S
O213 C222 1.255 1_556 S
O214 Tb200 2.366 . S
O214 C222 1.265 . S
C215 O211 1.259 . S
C215 O212 1.265 . S
O216 Eu201 2.479 . S
O216 C231 1.240 1_556 S
O217 Eu201 2.471 1_554 S
O217 C231 1.246 . S
O218 Eu201 2.347 1_554 S
O218 C202 1.259 . S
O219 Tb200 2.418 . S
O219 C202 1.265 . S
O220 Tb200 2.384 . S
O220 C203 1.255 . S
O221 Eu201 2.366 . S
O221 C203 1.265 1_556 S
C222 O213 1.255 1_554 S
C222 O214 1.265 . S
O223 Tb200 2.479 . S
O223 C210 1.238 . S
O224 Tb200 2.471 1_556 S
O224 C210 1.247 1_556 S
C225 C228 1.380 1_554 S
C225 C229 1.374 . S
C225 C231 1.506 . S
C226 C227 1.387 1_554 S
C226 C230 1.391 . S
C227 C226 1.387 1_556 S
C227 C228 1.384 . S
C227 H236 0.930 . S
C228 C225 1.380 1_556 S
C228 C227 1.384 . S
C228 H237 0.931 . S
C229 C225 1.374 . S
C229 C230 1.390 . S
C229 H238 0.930 . S
C230 C226 1.391 . S
C230 C229 1.390 . S
C230 H239 0.930 . S
C231 Eu201 2.826 1_554 S
C231 O216 1.240 1_554 S
C231 O217 1.246 . S
C231 C225 1.506 . S
H232 C205 0.930 . S
H233 C206 0.931 . S
H234 C207 0.930 . S
H235 C208 0.930 . S
H236 C227 0.930 . S
H237 C228 0.931 . S
H238 C229 0.930 . S
H239 C230 0.930 . S
Tb240 C250 2.825 . S
Tb240 O251 2.347 . S
Tb240 O254 2.366 . S
Tb240 O259 2.418 . S
Tb240 O260 2.384 . S
Tb240 O263 2.479 . S
Tb240 O264 2.471 . S
Eu241 O252 2.418 . S
Eu241 O253 2.384 . S
Eu241 O256 2.479 . S
Eu241 O257 2.471 . S
Eu241 O258 2.347 . S
Eu241 O261 2.366 . S
Eu241 C271 2.825 . S
C242 O258 1.259 . S
C242 O259 1.265 . S
C243 O260 1.255 . S
C243 O261 1.265 . S
C244 C246 1.380 . S
C244 C247 1.374 . S
C244 C250 1.507 . S
C245 C246 1.384 . S
C245 C249 1.387 . S
C245 H272 0.930 . S
C246 C244 1.380 . S
C246 C245 1.384 . S
C246 H273 0.931 . S
C247 C244 1.374 . S
C247 C248 1.390 . S
C247 H274 0.930 . S
C248 C247 1.390 . S
C248 C249 1.391 . S
C248 H275 0.930 . S
C249 C245 1.387 . S
C249 C248 1.391 . S
C250 Tb240 2.825 . S
C250 C244 1.507 . S
C250 O263 1.238 . S
C250 O264 1.247 . S
O251 Tb240 2.347 . S
O251 C255 1.259 . S
O252 Eu241 2.418 . S
O252 C255 1.265 . S
O253 Eu241 2.384 . S
O253 C262 1.255 . S
O254 Tb240 2.366 . S
O254 C262 1.265 . S
C255 O251 1.259 . S
C255 O252 1.265 . S
O256 Eu241 2.479 . S
O256 C271 1.238 . S
O257 Eu241 2.471 . S
O257 C271 1.247 . S
O258 Eu241 2.347 . S
O258 C242 1.259 . S
O259 Tb240 2.418 . S
O259 C242 1.265 . S
O260 Tb240 2.384 . S
O260 C243 1.255 . S
O261 Eu241 2.366 . S
O261 C243 1.265 . S
C262 O253 1.255 . S
C262 O254 1.265 . S
O263 Tb240 2.479 . S
O263 C250 1.238 . S
O264 Tb240 2.471 . S
O264 C250 1.247 . S
C265 C268 1.380 . S
C265 C269 1.374 . S
C265 C271 1.507 . S
C266 C267 1.387 . S
C266 C270 1.391 . S
C267 C266 1.387 . S
C267 C268 1.384 . S
C267 H276 0.930 . S
C268 C265 1.380 . S
C268 C267 1.384 . S
C268 H277 0.931 . S
C269 C265 1.374 . S
C269 C270 1.390 . S
C269 H278 0.930 . S
C270 C266 1.391 . S
C270 C269 1.390 . S
C270 H279 0.930 . S
C271 Eu241 2.825 . S
C271 O256 1.238 . S
C271 O257 1.247 . S
C271 C265 1.507 . S
H272 C245 0.930 . S
H273 C246 0.931 . S
H274 C247 0.930 . S
H275 C248 0.930 . S
H276 C267 0.930 . S
H277 C268 0.931 . S
H278 C269 0.930 . S
H279 C270 0.930 . S
Tb280 C290 2.825 . S
Tb280 O291 2.347 . S
Tb280 O294 2.366 . S
Tb280 O299 2.418 . S
Tb280 O300 2.384 . S
Tb280 O303 2.479 . S
Tb280 O304 2.471 . S
Eu281 O292 2.418 . S
Eu281 O293 2.384 . S
Eu281 O296 2.479 . S
Eu281 O297 2.471 . S
Eu281 O298 2.347 . S
Eu281 O301 2.366 . S
Eu281 C311 2.825 . S
C282 O298 1.259 . S
C282 O299 1.265 . S
C283 O300 1.255 . S
C283 O301 1.265 . S
C284 C286 1.380 . S
C284 C287 1.374 . S
C284 C290 1.507 . S
C285 C286 1.384 . S
C285 C289 1.387 . S
C285 H312 0.930 . S
C286 C284 1.380 . S
C286 C285 1.384 . S
C286 H313 0.931 . S
C287 C284 1.374 . S
C287 C288 1.390 . S
C287 H314 0.930 . S
C288 C287 1.390 . S
C288 C289 1.391 . S
C288 H315 0.930 . S
C289 C285 1.387 . S
C289 C288 1.391 . S
C290 Tb280 2.825 . S
C290 C284 1.507 . S
C290 O303 1.238 . S
C290 O304 1.247 . S
O291 Tb280 2.347 . S
O291 C295 1.259 . S
O292 Eu281 2.418 . S
O292 C295 1.265 . S
O293 Eu281 2.384 . S
O293 C302 1.255 . S
O294 Tb280 2.366 . S
O294 C302 1.265 . S
C295 O291 1.259 . S
C295 O292 1.265 . S
O296 Eu281 2.479 . S
O296 C311 1.238 . S
O297 Eu281 2.471 . S
O297 C311 1.247 . S
O298 Eu281 2.347 . S
O298 C282 1.259 . S
O299 Tb280 2.418 . S
O299 C282 1.265 . S
O300 Tb280 2.384 . S
O300 C283 1.255 . S
O301 Eu281 2.366 . S
O301 C283 1.265 . S
C302 O293 1.255 . S
C302 O294 1.265 . S
O303 Tb280 2.479 . S
O303 C290 1.238 . S
O304 Tb280 2.471 . S
O304 C290 1.247 . S
C305 C308 1.380 . S
C305 C309 1.374 . S
C305 C311 1.507 . S
C306 C307 1.387 . S
C306 C310 1.391 . S
C307 C306 1.387 . S
C307 C308 1.384 . S
C307 H316 0.930 . S
C308 C305 1.380 . S
C308 C307 1.384 . S
C308 H317 0.931 . S
C309 C305 1.374 . S
C309 C310 1.390 . S
C309 H318 0.930 . S
C310 C306 1.391 . S
C310 C309 1.390 . S
C310 H319 0.930 . S
C311 Eu281 2.825 . S
C311 O296 1.238 . S
C311 O297 1.247 . S
C311 C305 1.507 . S
H312 C285 0.930 . S
H313 C286 0.931 . S
H314 C287 0.930 . S
H315 C288 0.930 . S
H316 C307 0.930 . S
H317 C308 0.931 . S
H318 C309 0.930 . S
H319 C310 0.930 . S
H320 C326 0.930 . S
H321 C329 0.930 . S
H322 C330 0.930 . S
H323 C331 0.930 . S
H324 C334 0.930 . S
H325 C335 0.930 . S
C326 H320 0.930 . S
C326 C327 1.355 1_556 S
C326 C328 1.415 . S
C327 C326 1.355 1_554 S
C327 C329 1.419 . S
C328 C326 1.415 . S
C328 C333 1.425 1_556 S
C328 C335 1.409 . S
C329 H321 0.930 . S
C329 C327 1.419 . S
C329 C330 1.362 . S
C330 H322 0.930 . S
C330 C329 1.362 . S
C330 C333 1.409 . S
C331 H323 0.930 . S
C331 C332 1.355 . S
C331 C333 1.415 . S
C332 C331 1.355 . S
C332 C334 1.419 1_554 S
C333 C328 1.425 1_554 S
C333 C330 1.409 . S
C333 C331 1.415 . S
C334 H324 0.930 . S
C334 C332 1.419 1_556 S
C334 C335 1.362 . S
C335 H325 0.930 . S
C335 C328 1.409 . S
C335 C334 1.362 . S
H336 C342 0.930 . S
H337 C345 0.930 . S
H338 C346 0.930 . S
H339 C347 0.930 . S
H340 C350 0.930 . S
H341 C351 0.930 . S
C342 H336 0.930 . S
C342 C343 1.355 1_556 S
C342 C344 1.415 . S
C343 C342 1.355 1_554 S
C343 C345 1.419 . S
C344 C342 1.415 . S
C344 C349 1.425 1_556 S
C344 C351 1.409 . S
C345 H337 0.930 . S
C345 C343 1.419 . S
C345 C346 1.362 . S
C346 H338 0.930 . S
C346 C345 1.362 . S
C346 C349 1.409 . S
C347 H339 0.930 . S
C347 C348 1.364 . S
C347 C349 1.415 . S
C348 C347 1.364 . S
C348 C350 1.407 1_554 S
C349 C344 1.425 1_554 S
C349 C346 1.409 . S
C349 C347 1.415 . S
C350 H340 0.930 . S
C350 C348 1.407 1_556 S
C350 C351 1.362 . S
C351 H341 0.930 . S
C351 C344 1.409 . S
C351 C350 1.362 . S
H352 C358 0.930 . S
H353 C361 0.930 . S
H354 C362 0.930 . S
H355 C363 0.930 . S
H356 C366 0.930 . S
H357 C367 0.930 . S
C358 H352 0.930 . S
C358 C359 1.355 . S
C358 C360 1.415 . S
C359 C358 1.355 . S
C359 C361 1.419 . S
C360 C358 1.415 . S
C360 C365 1.425 . S
C360 C367 1.409 . S
C361 H353 0.930 . S
C361 C359 1.419 . S
C361 C362 1.362 . S
C362 H354 0.930 . S
C362 C361 1.362 . S
C362 C365 1.409 . S
C363 H355 0.930 . S
C363 C364 1.355 . S
C363 C365 1.415 . S
C364 C363 1.355 . S
C364 C366 1.419 . S
C365 C360 1.425 . S
C365 C362 1.409 . S
C365 C363 1.415 . S
C366 H356 0.930 . S
C366 C364 1.419 . S
C366 C367 1.362 . S
C367 H357 0.930 . S
C367 C360 1.409 . S
C367 C366 1.362 . S
H368 C374 0.930 . S
H369 C377 0.930 . S
H370 C378 0.930 . S
H371 C379 0.930 . S
H372 C382 0.930 . S
H373 C383 0.930 . S
C374 H368 0.930 . S
C374 C375 1.355 . S
C374 C376 1.415 . S
C375 C374 1.355 . S
C375 C377 1.419 . S
C376 C374 1.415 . S
C376 C381 1.425 . S
C376 C383 1.409 . S
C377 H369 0.930 . S
C377 C375 1.419 . S
C377 C378 1.362 . S
C378 H370 0.930 . S
C378 C377 1.362 . S
C378 C381 1.409 . S
C379 H371 0.930 . S
C379 C380 1.355 . S
C379 C381 1.415 . S
C380 C379 1.355 . S
C380 C382 1.419 . S
C381 C376 1.425 . S
C381 C378 1.409 . S
C381 C379 1.415 . S
C382 H372 0.930 . S
C382 C380 1.419 . S
C382 C383 1.362 . S
C383 H373 0.930 . S
C383 C376 1.409 . S
C383 C382 1.362 . S
H384 C390 0.930 . S
H385 C393 0.930 . S
H386 C394 0.930 1_455 S
H387 C395 0.930 . S
H388 C398 0.930 . S
H389 C399 0.930 . S
C390 H384 0.930 . S
C390 C391 1.362 . S
C390 C392 1.415 1_655 S
C391 C390 1.362 . S
C391 C393 1.411 1_554 S
C392 C390 1.415 1_455 S
C392 C397 1.425 1_554 S
C392 C399 1.409 . S
C393 H385 0.930 . S
C393 C391 1.411 1_556 S
C393 C394 1.362 . S
C394 H386 0.930 1_655 S
C394 C393 1.362 . S
C394 C397 1.409 1_655 S
C395 H387 0.930 . S
C395 C396 1.355 1_556 S
C395 C397 1.415 . S
C396 C395 1.355 1_554 S
C396 C398 1.419 . S
C397 C392 1.425 1_556 S
C397 C394 1.409 1_455 S
C397 C395 1.415 . S
C398 H388 0.930 . S
C398 C396 1.419 . S
C398 C399 1.362 . S
C399 H389 0.930 . S
C399 C392 1.409 . S
C399 C398 1.362 . S
H400 C406 0.930 . S
H401 C409 0.930 . S
H402 C410 0.930 . S
H403 C411 0.930 . S
H404 C414 0.930 . S
H405 C415 0.930 . S
C406 H400 0.930 . S
C406 C407 1.355 1_556 S
C406 C408 1.415 1_455 S
C407 C406 1.355 1_554 S
C407 C409 1.419 . S
C408 C406 1.415 1_655 S
C408 C413 1.425 1_556 S
C408 C415 1.409 . S
C409 H401 0.930 . S
C409 C407 1.419 . S
C409 C410 1.362 1_455 S
C410 H402 0.930 . S
C410 C409 1.362 1_655 S
C410 C413 1.409 . S
C411 H403 0.930 . S
C411 C412 1.355 . S
C411 C413 1.415 . S
C412 C411 1.355 . S
C412 C414 1.419 1_554 S
C413 C408 1.425 1_554 S
C413 C410 1.409 . S
C413 C411 1.415 . S
C414 H404 0.930 . S
C414 C412 1.419 1_556 S
C414 C415 1.362 . S
C415 H405 0.930 . S
C415 C408 1.409 . S
C415 C414 1.362 . S
H416 C422 0.930 . S
H417 C425 0.930 . S
H418 C426 0.930 . S
H419 C427 0.930 . S
H420 C430 0.930 . S
H421 C431 0.930 . S
C422 H416 0.930 . S
C422 C423 1.355 . S
C422 C424 1.415 . S
C423 C422 1.355 . S
C423 C425 1.419 . S
C424 C422 1.415 . S
C424 C429 1.425 . S
C424 C431 1.409 . S
C425 H417 0.930 . S
C425 C423 1.419 . S
C425 C426 1.362 . S
C426 H418 0.930 . S
C426 C425 1.362 . S
C426 C429 1.409 . S
C427 H419 0.930 . S
C427 C428 1.355 . S
C427 C429 1.415 1_655 S
C428 C427 1.355 . S
C428 C430 1.419 . S
C429 C424 1.425 . S
C429 C426 1.409 . S
C429 C427 1.415 1_455 S
C430 H420 0.930 . S
C430 C428 1.419 . S
C430 C431 1.362 1_655 S
C431 H421 0.930 . S
C431 C424 1.409 . S
C431 C430 1.362 1_455 S
H432 C438 0.930 . S
H433 C441 0.930 . S
H434 C442 0.930 . S
H435 C443 0.930 . S
H436 C446 0.930 . S
H437 C447 0.930 . S
C438 H432 0.930 . S
C438 C439 1.355 . S
C438 C440 1.415 . S
C439 C438 1.355 . S
C439 C441 1.419 . S
C440 C438 1.415 . S
C440 C445 1.425 . S
C440 C447 1.409 . S
C441 H433 0.930 . S
C441 C439 1.419 . S
C441 C442 1.362 . S
C442 H434 0.930 . S
C442 C441 1.362 . S
C442 C445 1.409 . S
C443 H435 0.930 . S
C443 C444 1.355 . S
C443 C445 1.415 1_455 S
C444 C443 1.355 . S
C444 C446 1.419 . S
C445 C440 1.425 . S
C445 C442 1.409 . S
C445 C443 1.415 1_655 S
C446 H436 0.930 . S
C446 C444 1.419 . S
C446 C447 1.362 1_455 S
C447 H437 0.930 . S
C447 C440 1.409 . S
C447 C446 1.362 1_655 S
H448 C454 0.930 . S
H449 C457 0.930 . S
H450 C458 0.930 . S
H451 C459 0.930 . S
H452 C462 0.930 . S
H453 C463 0.930 . S
C454 H448 0.930 . S
C454 C455 1.355 1_554 S
C454 C456 1.415 1_554 S
C455 C454 1.355 1_556 S
C455 C457 1.419 . S
C456 C454 1.415 1_556 S
C456 C461 1.425 1_455 S
C456 C463 1.409 1_556 S
C457 H449 0.930 . S
C457 C455 1.419 . S
C457 C458 1.362 1_455 S
C458 H450 0.930 . S
C458 C457 1.362 1_655 S
C458 C461 1.409 . S
C459 H451 0.930 . S
C459 C460 1.355 . S
C459 C461 1.415 . S
C460 C459 1.355 . S
C460 C462 1.419 1_556 S
C461 C456 1.425 1_655 S
C461 C458 1.409 . S
C461 C459 1.415 . S
C462 H452 0.930 . S
C462 C460 1.419 1_554 S
C462 C463 1.362 1_655 S
C463 H453 0.930 . S
C463 C456 1.409 1_554 S
C463 C462 1.362 1_455 S
H464 C470 0.930 1_655 S
H465 C473 0.930 . S
H466 C474 0.930 . S
H467 C475 0.930 1_455 S
H468 C478 0.930 . S
H469 C479 0.930 . S
C470 H464 0.930 1_455 S
C470 C471 1.355 . S
C470 C472 1.415 1_455 S
C471 C470 1.355 . S
C471 C473 1.419 . S
C472 C470 1.415 1_655 S
C472 C477 1.425 1_655 S
C472 C479 1.409 . S
C473 H465 0.930 . S
C473 C471 1.419 . S
C473 C474 1.362 . S
C474 H466 0.930 . S
C474 C473 1.362 . S
C474 C477 1.409 . S
C475 H467 0.930 1_655 S
C475 C476 1.355 . S
C475 C477 1.415 1_655 S
C476 C475 1.355 . S
C476 C478 1.419 . S
C477 C472 1.425 1_455 S
C477 C474 1.409 . S
C477 C475 1.415 1_455 S
C478 H468 0.930 . S
C478 C476 1.419 . S
C478 C479 1.362 . S
C479 H469 0.930 . S
C479 C472 1.409 . S
C479 C478 1.362 . S
H480 C486 0.914 1_554 S
H481 C489 0.930 . S
H482 C490 0.930 . S
H483 C491 0.930 . S
H484 C494 0.930 . S
H485 C495 0.930 . S
C486 H480 0.914 1_556 S
C486 C487 1.370 . S
C486 C488 1.407 . S
C487 C486 1.370 . S
C487 C489 1.419 . S
C488 C486 1.407 . S
C488 C493 1.426 1_565 S
C488 C495 1.416 1_566 S
C489 H481 0.930 . S
C489 C487 1.419 . S
C489 C490 1.362 . S
C490 H482 0.930 . S
C490 C489 1.362 . S
C490 C493 1.382 1_565 S
C491 H483 0.930 . S
C491 C492 1.355 . S
C491 C493 1.442 . S
C492 C491 1.355 . S
C492 C494 1.419 1_556 S
C493 C488 1.426 1_545 S
C493 C490 1.382 1_545 S
C493 C491 1.442 . S
C494 H484 0.930 . S
C494 C492 1.419 1_554 S
C494 C495 1.362 . S
C495 H485 0.930 . S
C495 C488 1.416 1_544 S
C495 C494 1.362 . S
H496 C502 0.930 . S
H497 C505 0.930 . S
H498 C506 0.930 . S
H499 C507 0.930 . S
H500 C510 0.930 . S
H501 C511 0.930 . S
C502 H496 0.930 . S
C502 C503 1.355 . S
C502 C504 1.415 1_545 S
C503 C502 1.355 . S
C503 C505 1.419 . S
C504 C502 1.415 1_565 S
C504 C509 1.425 1_565 S
C504 C511 1.409 . S
C505 H497 0.930 . S
C505 C503 1.419 . S
C505 C506 1.362 . S
C506 H498 0.930 . S
C506 C505 1.362 . S
C506 C509 1.409 . S
C507 H499 0.930 . S
C507 C508 1.355 . S
C507 C509 1.415 1_565 S
C508 C507 1.355 . S
C508 C510 1.419 . S
C509 C504 1.425 1_545 S
C509 C506 1.409 . S
C509 C507 1.415 1_545 S
C510 H500 0.930 . S
C510 C508 1.419 . S
C510 C511 1.362 . S
C511 H501 0.930 . S
C511 C504 1.409 . S
C511 C510 1.362 . S
H512 C518 0.930 . S
H513 C521 0.930 . S
H514 C522 0.930 . S
H515 C523 0.930 . S
H516 C526 0.930 . S
H517 C527 0.930 . S
C518 H512 0.930 . S
C518 C519 1.355 . S
C518 C520 1.415 . S
C519 C518 1.355 . S
C519 C521 1.419 1_554 S
C520 C518 1.415 . S
C520 C525 1.425 . S
C520 C527 1.409 . S
C521 H513 0.930 . S
C521 C519 1.419 1_556 S
C521 C522 1.362 . S
C522 H514 0.930 . S
C522 C521 1.362 . S
C522 C525 1.409 1_556 S
C523 H515 0.930 . S
C523 C524 1.355 1_556 S
C523 C525 1.415 1_556 S
C524 C523 1.355 1_554 S
C524 C526 1.419 . S
C525 C520 1.425 . S
C525 C522 1.409 1_554 S
C525 C523 1.415 1_554 S
C526 H516 0.930 . S
C526 C524 1.419 . S
C526 C527 1.362 . S
C527 H517 0.930 . S
C527 C520 1.409 . S
C527 C526 1.362 . S
H528 C534 0.930 1_556 S
H529 C537 0.930 . S
H530 C538 0.930 . S
H531 C539 0.930 . S
H532 C542 0.930 . S
H533 C543 0.930 . S
C534 H528 0.930 1_554 S
C534 C535 1.355 . S
C534 C536 1.415 . S
C535 C534 1.355 . S
C535 C537 1.419 . S
C536 C534 1.415 . S
C536 C541 1.425 . S
C536 C543 1.409 1_554 S
C537 H529 0.930 . S
C537 C535 1.419 . S
C537 C538 1.362 . S
C538 H530 0.930 . S
C538 C537 1.362 . S
C538 C541 1.409 . S
C539 H531 0.930 . S
C539 C540 1.355 . S
C539 C541 1.415 . S
C540 C539 1.355 . S
C540 C542 1.419 1_554 S
C541 C536 1.425 . S
C541 C538 1.409 . S
C541 C539 1.415 . S
C542 H532 0.930 . S
C542 C540 1.419 1_556 S
C542 C543 1.362 . S
C543 H533 0.930 . S
C543 C536 1.409 1_556 S
C543 C542 1.362 . S
H544 C550 0.930 . S
H545 C553 0.930 . S
H546 C554 0.930 . S
H547 C555 0.930 . S
H548 C558 0.930 . S
H549 C559 0.930 . S
C550 H544 0.930 . S
C550 C551 1.355 . S
C550 C552 1.415 . S
C551 C550 1.355 . S
C551 C553 1.419 . S
C552 C550 1.415 . S
C552 C557 1.425 . S
C552 C559 1.409 . S
C553 H545 0.930 . S
C553 C551 1.419 . S
C553 C554 1.362 . S
C554 H546 0.930 . S
C554 C553 1.362 . S
C554 C557 1.409 . S
C555 H547 0.930 . S
C555 C556 1.355 . S
C555 C557 1.415 . S
C556 C555 1.355 . S
C556 C558 1.419 . S
C557 C552 1.425 . S
C557 C554 1.409 . S
C557 C555 1.415 . S
C558 H548 0.930 . S
C558 C556 1.419 . S
C558 C559 1.362 . S
C559 H549 0.930 . S
C559 C552 1.409 . S
C559 C558 1.362 . S
H560 C566 0.930 . S
H561 C569 0.930 . S
H562 C570 0.930 . S
H563 C571 0.930 . S
H564 C574 0.930 . S
H565 C575 0.930 . S
C566 H560 0.930 . S
C566 C567 1.355 . S
C566 C568 1.415 . S
C567 C566 1.355 . S
C567 C569 1.419 . S
C568 C566 1.415 . S
C568 C573 1.425 . S
C568 C575 1.409 . S
C569 H561 0.930 . S
C569 C567 1.419 . S
C569 C570 1.362 . S
C570 H562 0.930 . S
C570 C569 1.362 . S
C570 C573 1.409 . S
C571 H563 0.930 . S
C571 C572 1.355 . S
C571 C573 1.415 . S
C572 C571 1.355 . S
C572 C574 1.419 . S
C573 C568 1.425 . S
C573 C570 1.409 . S
C573 C571 1.415 . S
C574 H564 0.930 . S
C574 C572 1.419 . S
C574 C575 1.362 . S
C575 H565 0.930 . S
C575 C568 1.409 . S
C575 C574 1.362 . S
H576 C582 0.930 . S
H577 C585 0.930 . S
H578 C586 0.930 . S
H579 C587 0.930 . S
H580 C590 0.930 . S
H581 C591 0.930 . S
C582 H576 0.930 . S
C582 C583 1.355 . S
C582 C584 1.415 . S
C583 C582 1.355 . S
C583 C585 1.419 1_455 S
C584 C582 1.415 . S
C584 C589 1.425 1_455 S
C584 C591 1.409 . S
C585 H577 0.930 . S
C585 C583 1.419 1_655 S
C585 C586 1.362 . S
C586 H578 0.930 . S
C586 C585 1.362 . S
C586 C589 1.409 . S
C587 H579 0.930 . S
C587 C588 1.355 . S
C587 C589 1.415 . S
C588 C587 1.355 . S
C588 C590 1.419 1_655 S
C589 C584 1.425 1_655 S
C589 C586 1.409 . S
C589 C587 1.415 . S
C590 H580 0.930 . S
C590 C588 1.419 1_455 S
C590 C591 1.362 . S
C591 H581 0.930 . S
C591 C584 1.409 . S
C591 C590 1.362 . S
H592 C598 0.927 1_455 S
H593 C601 0.930 . S
H594 C602 0.930 . S
H595 C603 0.930 1_655 S
H596 C606 0.930 . S
H597 C607 0.930 . S
C598 H592 0.927 1_655 S
C598 C599 1.360 . S
C598 C600 1.413 1_655 S
C599 C598 1.360 . S
C599 C601 1.419 . S
C600 C598 1.413 1_455 S
C600 C605 1.425 1_455 S
C600 C607 1.409 . S
C601 H593 0.930 . S
C601 C599 1.419 . S
C601 C602 1.362 . S
C602 H594 0.930 . S
C602 C601 1.362 . S
C602 C605 1.409 . S
C603 H595 0.930 1_455 S
C603 C604 1.355 . S
C603 C605 1.415 1_455 S
C604 C603 1.355 . S
C604 C606 1.419 . S
C605 C600 1.425 1_655 S
C605 C602 1.409 . S
C605 C603 1.415 1_655 S
C606 H596 0.930 . S
C606 C604 1.419 . S
C606 C607 1.362 . S
C607 H597 0.930 . S
C607 C600 1.409 . S
C607 C606 1.362 . S
H608 C614 0.930 . S
H609 C617 0.930 . S
H610 C618 0.930 . S
H611 C619 0.930 . S
H612 C622 0.930 . S
H613 C623 0.930 . S
C614 H608 0.930 . S
C614 C615 1.355 . S
C614 C616 1.415 . S
C615 C614 1.355 . S
C615 C617 1.419 1_655 S
C616 C614 1.415 . S
C616 C621 1.425 1_655 S
C616 C623 1.409 . S
C617 H609 0.930 . S
C617 C615 1.419 1_455 S
C617 C618 1.362 . S
C618 H610 0.930 . S
C618 C617 1.362 . S
C618 C621 1.409 . S
C619 H611 0.930 . S
C619 C620 1.355 . S
C619 C621 1.415 . S
C620 C619 1.355 . S
C620 C622 1.419 1_455 S
C621 C616 1.425 1_455 S
C621 C618 1.409 . S
C621 C619 1.415 . S
C622 H612 0.930 . S
C622 C620 1.419 1_655 S
C622 C623 1.362 . S
C623 H613 0.930 . S
C623 C616 1.409 . S
C623 C622 1.362 . S
H624 C630 0.930 1_455 S
H625 C633 0.930 . S
H626 C634 0.930 . S
H627 C635 0.930 1_655 S
H628 C638 0.930 . S
H629 C639 0.930 . S
C630 H624 0.930 1_655 S
C630 C631 1.355 . S
C630 C632 1.415 1_655 S
C631 C630 1.355 . S
C631 C633 1.419 . S
C632 C630 1.415 1_455 S
C632 C637 1.425 1_455 S
C632 C639 1.409 . S
C633 H625 0.930 . S
C633 C631 1.419 . S
C633 C634 1.362 . S
C634 H626 0.930 . S
C634 C633 1.362 . S
C634 C637 1.409 . S
C635 H627 0.930 1_455 S
C635 C636 1.355 . S
C635 C637 1.415 1_455 S
C636 C635 1.355 . S
C636 C638 1.419 . S
C637 C632 1.425 1_655 S
C637 C634 1.409 . S
C637 C635 1.415 1_655 S
C638 H628 0.930 . S
C638 C636 1.419 . S
C638 C639 1.362 . S
C639 H629 0.930 . S
C639 C632 1.409 . S
C639 C638 1.362 . S
H640 C646 0.930 . S
H641 C649 0.930 . S
H642 C650 0.930 . S
H643 C651 0.930 . S
H644 C654 0.930 . S
H645 C655 0.930 . S
C646 H640 0.930 . S
C646 C647 1.355 . S
C646 C648 1.415 . S
C647 C646 1.355 . S
C647 C649 1.419 . S
C648 C646 1.415 . S
C648 C653 1.425 . S
C648 C655 1.409 . S
C649 H641 0.930 . S
C649 C647 1.419 . S
C649 C650 1.362 . S
C650 H642 0.930 . S
C650 C649 1.362 . S
C650 C653 1.409 . S
C651 H643 0.930 . S
C651 C652 1.355 . S
C651 C653 1.415 . S
C652 C651 1.355 . S
C652 C654 1.419 . S
C653 C648 1.425 . S
C653 C650 1.409 . S
C653 C651 1.415 . S
C654 H644 0.930 . S
C654 C652 1.419 . S
C654 C655 1.362 . S
C655 H645 0.930 . S
C655 C648 1.409 . S
C655 C654 1.362 . S
H656 C662 0.930 . S
H657 C665 0.930 . S
H658 C666 0.930 . S
H659 C667 0.930 . S
H660 C670 0.930 . S
H661 C671 0.930 . S
C662 H656 0.930 . S
C662 C663 1.355 . S
C662 C664 1.415 . S
C663 C662 1.355 . S
C663 C665 1.419 . S
C664 C662 1.415 . S
C664 C669 1.425 . S
C664 C671 1.409 . S
C665 H657 0.930 . S
C665 C663 1.419 . S
C665 C666 1.362 . S
C666 H658 0.930 . S
C666 C665 1.362 . S
C666 C669 1.409 . S
C667 H659 0.930 . S
C667 C668 1.355 . S
C667 C669 1.415 . S
C668 C667 1.355 . S
C668 C670 1.419 . S
C669 C664 1.425 . S
C669 C666 1.409 . S
C669 C667 1.415 . S
C670 H660 0.930 . S
C670 C668 1.419 . S
C670 C671 1.362 . S
C671 H661 0.930 . S
C671 C664 1.409 . S
C671 C670 1.362 . S
H672 C678 0.930 . S
H673 C681 0.930 . S
H674 C682 0.930 . S
H675 C683 0.930 . S
H676 C686 0.930 . S
H677 C687 0.930 . S
C678 H672 0.930 . S
C678 C679 1.355 . S
C678 C680 1.415 . S
C679 C678 1.355 . S
C679 C681 1.419 . S
C680 C678 1.415 . S
C680 C685 1.425 . S
C680 C687 1.409 . S
C681 H673 0.930 . S
C681 C679 1.419 . S
C681 C682 1.362 . S
C682 H674 0.930 . S
C682 C681 1.362 . S
C682 C685 1.409 . S
C683 H675 0.930 . S
C683 C684 1.355 . S
C683 C685 1.415 . S
C684 C683 1.355 . S
C684 C686 1.419 . S
C685 C680 1.425 . S
C685 C682 1.409 . S
C685 C683 1.415 . S
C686 H676 0.930 . S
C686 C684 1.419 . S
C686 C687 1.362 . S
C687 H677 0.930 . S
C687 C680 1.409 . S
C687 C686 1.362 . S
H688 C694 0.930 . S
H689 C697 0.930 . S
H690 C698 0.930 . S
H691 C699 0.930 . S
H692 C702 0.930 . S
H693 C703 0.930 . S
C694 H688 0.930 . S
C694 C695 1.355 . S
C694 C696 1.415 . S
C695 C694 1.355 . S
C695 C697 1.419 . S
C696 C694 1.415 . S
C696 C701 1.425 . S
C696 C703 1.409 . S
C697 H689 0.930 . S
C697 C695 1.419 . S
C697 C698 1.362 . S
C698 H690 0.930 . S
C698 C697 1.362 . S
C698 C701 1.409 . S
C699 H691 0.930 . S
C699 C700 1.355 . S
C699 C701 1.415 . S
C700 C699 1.355 . S
C700 C702 1.419 . S
C701 C696 1.425 . S
C701 C698 1.409 . S
C701 C699 1.415 . S
C702 H692 0.930 . S
C702 C700 1.419 . S
C702 C703 1.362 . S
C703 H693 0.930 . S
C703 C696 1.409 . S
C703 C702 1.362 . S
C327 C3 2.305 . S
C332 C22 2.305 . S
C343 C62 2.300 . S
C348 C43 2.301 . S
C359 C83 2.302 . S
C364 C102 2.302 . S
C375 C123 2.302 . S
C380 C142 2.302 . S
C391 C163 2.265 . S
C396 C182 2.266 . S
C407 C203 2.301 . S
C412 C222 2.301 . S
C423 C243 2.281 . S
C428 C262 2.281 . S
C439 C302 2.275 . S
C444 C283 2.275 . S
C455 C49 2.639 . S
C460 C9 2.612 . S
C471 C129 2.660 . S
C476 C106 2.660 . S
C487 C169 2.627 . S
C492 C209 2.635 . S
C503 C266 2.605 . S
C508 C289 2.605 . S
C519 C26 1.858 . S
C524 C226 1.888 . S
C535 C186 1.876 . S
C540 C66 1.878 . S
C551 C89 1.841 . S
C556 C306 1.841 . S
C567 C146 1.812 . S
C572 C249 1.812 . S
C583 C2 1.487 . S
C588 C122 1.552 . S
C599 C42 1.598 . S
C604 C82 1.588 . S
C615 C55 1.503 . S
C620 C95 1.528 . S
C631 C135 1.614 . S
C636 C15 1.548 . S
C647 C162 1.550 . S
C652 C282 1.526 . S
C663 C202 1.583 . S
C668 C242 1.559 . S
C679 C215 1.553 . S
C684 C255 1.563 . S
C695 C295 1.586 . S
C700 C175 1.593 . S
