# Generated by pormake.
# Topology sxb, (6)-cn, num edge types: 1
# Building blocks:
#     Node 0, Type 0, BuildingBlock: PAMTOO_clean_sbu_0, # of connection points: 6
#     Node 1, Type 0, BuildingBlock: PAMTOO_clean_sbu_0, # of connection points: 6
#     Node 2, Type 0, BuildingBlock: PAMTOO_clean_sbu_0, # of connection points: 6
#     Node 3, Type 0, BuildingBlock: PAMTOO_clean_sbu_0, # of connection points: 6
#     Edge 4, Type (0, 0), BuildingBlock: UVAHIK_clean_linker_0, # of connection points: 2
#     Edge 5, Type (0, 0), BuildingBlock: UVAHIK_clean_linker_0, # of connection points: 2
#     Edge 6, Type (0, 0), BuildingBlock: UVAHIK_clean_linker_0, # of connection points: 2
#     Edge 7, Type (0, 0), BuildingBlock: UVAHIK_clean_linker_0, # of connection points: 2
#     Edge 8, Type (0, 0), BuildingBlock: UVAHIK_clean_linker_0, # of connection points: 2
#     Edge 9, Type (0, 0), BuildingBlock: UVAHIK_clean_linker_0, # of connection points: 2
#     Edge 10, Type (0, 0), BuildingBlock: UVAHIK_clean_linker_0, # of connection points: 2
#     Edge 11, Type (0, 0), BuildingBlock: UVAHIK_clean_linker_0, # of connection points: 2
#     Edge 12, Type (0, 0), BuildingBlock: UVAHIK_clean_linker_0, # of connection points: 2
#     Edge 13, Type (0, 0), BuildingBlock: UVAHIK_clean_linker_0, # of connection points: 2
#     Edge 14, Type (0, 0), BuildingBlock: UVAHIK_clean_linker_0, # of connection points: 2
#     Edge 15, Type (0, 0), BuildingBlock: UVAHIK_clean_linker_0, # of connection points: 2
# Relax obj value: 0.295
# Max RMSD: 0.078
# Mean RMSD: 0.077
data_MOF--net-sxb--node1-PAMTOO_clean_sbu_0--edge1-UVAHIK_clean_linker_0
_symmetry_space_group_name_H-M    P1
_symmetry_Int_Tables_number       1
_symmetry_cell_setting            triclinic
loop_
_symmetry_equiv_pos_as_xyz
'x, y, z'
_cell_length_a     20.918708
_cell_length_b     43.503516
_cell_length_c     39.632536
_cell_angle_alpha  97.649822
_cell_angle_beta   99.015011
_cell_angle_gamma 68.375739
loop_
_atom_site_label
_atom_site_type_symbol
_atom_site_fract_x
_atom_site_fract_y
_atom_site_fract_z
_atom_type_partial_charge
Dy0 Dy 0.15477 0.05502 0.02365 0.0
Dy1 Dy 1.00514 1.04691 0.0059 0.0
C2 C 0.08618 0.05116 0.94833 0.0
O3 O 0.07871 0.10813 0.02275 0.0
O4 O 0.97234 0.1023 0.01499 0.0
O5 O 0.21391 0.08412 0.01514 0.0
O6 O 0.26484 1.03893 0.04071 0.0
O7 O 1.02619 1.04487 0.06288 0.0
O8 O 0.12087 0.06176 0.07546 0.0
O9 O 0.08358 0.99427 0.00403 0.0
O10 O 0.18282 1.00122 0.03132 0.0
O11 O 0.89499 0.0594 0.00652 0.0
O12 O 0.95322 1.01679 0.97472 0.0
C13 C 1.01039 0.12113 0.01984 0.0
O14 O 0.14105 1.03627 0.96878 0.0
O15 O 1.02697 0.06513 0.96057 0.0
C16 C 0.31574 1.0479 -0.00443 0.0
C17 C 0.36297 1.03448 0.93084 0.0
C18 C 0.33208 1.0143 0.94117 0.0
C19 C 0.30878 1.02089 0.97343 0.0
C20 C 0.35017 0.06691 -0.01415 0.0
C21 C 0.37399 0.06012 0.95367 0.0
C22 C 0.27259 0.06082 0.02375 0.0
C23 C 1.07161 0.05387 0.08491 0.0
C24 C 0.14826 0.98177 0.01814 0.0
C25 C 0.84432 1.04882 0.95013 0.0
C26 C 0.76654 0.06748 0.88657 0.0
C27 C 0.78336 0.09117 0.91027 0.0
C28 C 0.82274 0.08182 0.94169 0.0
C29 C 0.82706 1.02532 0.92654 0.0
C30 C 0.78886 1.03449 0.89504 0.0
C31 C 0.89212 1.03733 0.98108 0.0
H32 H 0.32363 0.99433 0.92384 0.0
H33 H 0.2814 1.00616 0.98015 0.0
H34 H 0.35473 0.08822 0.0022 0.0
H35 H 0.39814 0.07582 0.94594 0.0
H36 H 0.76612 0.11681 0.90445 0.0
H37 H 0.83681 0.10029 0.95915 0.0
H38 H 0.84409 0.99966 0.93232 0.0
H39 H 0.77513 1.01589 0.87763 0.0
Dy40 Dy 1.05584 0.09131 0.51853 0.0
Dy41 Dy 0.12031 1.0124 0.51378 0.0
C42 C 0.07529 0.05045 0.44829 0.0
O43 O 0.96262 0.07907 0.52694 0.0
O44 O 1.00188 1.02401 0.50777 0.0
O45 O 1.01414 0.13463 0.49001 0.0
O46 O 1.02083 0.14022 0.54531 0.0
O47 O 0.10178 1.02577 0.56848 0.0
O48 O 0.09545 0.07982 0.57274 0.0
O49 O 0.21825 1.02554 0.5249 0.0
O50 O 0.17063 0.07977 0.51195 0.0
O51 O 0.18115 0.96477 0.53308 0.0
O52 O 0.13099 0.96775 0.48077 0.0
C53 C 0.95052 0.05115 0.51759 0.0
O54 O 1.02715 0.07156 0.46567 0.0
O55 O 0.1292 1.02959 0.46481 0.0
C56 C 1.04746 0.17771 0.5173 0.0
C57 C 0.12855 0.21216 0.50267 0.0
C58 C 1.05741 0.22265 0.49094 0.0
C59 C 1.01715 0.20544 0.49818 0.0
C60 C 0.11737 0.16849 0.53087 0.0
C61 C 0.15753 0.1857 0.52375 0.0
C62 C 1.01042 0.15505 0.51739 0.0
C63 C 0.10152 0.05315 0.5869 0.0
C64 C 0.22637 0.05304 0.51883 0.0
C65 C 0.12946 0.92555 0.51026 0.0
C66 C 1.04215 0.88926 0.50789 0.0
C67 C 1.03494 0.91721 0.53136 0.0
C68 C 0.078 0.93535 0.53238 0.0
C69 C 0.13984 0.89651 0.48841 0.0
C70 C 0.09651 0.8784 0.48724 0.0
C71 C 0.16284 0.94857 0.50544 0.0
H72 H 1.0338 0.24281 0.47444 0.0
H73 H 0.96349 0.21252 0.4871 0.0
H74 H 0.14192 0.14687 0.54537 0.0
H75 H 0.21194 0.17743 0.53361 0.0
H76 H 0.99423 0.92583 0.54796 0.0
H77 H 1.06861 0.95801 0.54913 0.0
H78 H 0.17868 0.88897 0.47081 0.0
H79 H 0.10295 0.85711 0.46871 0.0
Dy80 Dy 0.65155 0.55696 0.02873 0.0
Dy81 Dy 0.50673 0.54461 0.00784 0.0
C82 C 0.59198 0.54857 0.95113 0.0
O83 O 0.57283 0.60793 0.01878 0.0
O84 O 0.47009 0.60024 0.01867 0.0
O85 O 0.70774 0.59006 0.02999 0.0
O86 O 0.76219 0.54013 0.04434 0.0
O87 O 0.52958 0.53963 0.06442 0.0
O88 O 0.60817 0.56642 0.07862 0.0
O89 O 0.59046 0.4938 0.004 0.0
O90 O 0.68015 0.50345 0.03875 0.0
O91 O 0.39584 0.55723 0.00502 0.0
O92 O 0.45911 0.51087 0.98048 0.0
C93 C 0.50508 0.62001 0.01892 0.0
O94 O 0.64689 0.53847 0.97342 0.0
O95 O 0.53033 0.55984 0.96117 0.0
C96 C 0.80758 0.5595 0.00376 0.0
C97 C 0.84853 0.54941 0.93744 0.0
C98 C 0.85468 0.52225 0.95494 0.0
C99 C 0.83422 0.52723 -0.01229 0.0
C100 C 0.80613 0.58639 -0.01282 0.0
C101 C 0.82597 0.58142 0.95425 0.0
C102 C 0.76727 0.56587 0.03308 0.0
C103 C 0.56573 0.55356 0.08732 0.0
C104 C 0.6517 0.48263 0.02199 0.0
C105 C 0.35414 0.53928 0.94969 0.0
C106 C 0.28374 0.54944 0.88315 0.0
C107 C 0.30776 0.5737 0.90165 0.0
C108 C 0.34334 0.56852 0.93455 0.0
C109 C 0.33088 0.51494 0.93112 0.0
C110 C 0.29612 0.51992 0.89813 0.0
C111 C 0.39676 0.53206 0.98286 0.0
H112 H 0.87222 0.49728 0.94266 0.0
H113 H 0.8356 0.5059 -0.00047 0.0
H114 H 0.78565 0.61152 -0.00117 0.0
H115 H 0.82251 0.60272 0.94168 0.0
H116 H 0.29861 0.5967 0.89073 0.0
H117 H 0.36266 0.58726 0.94806 0.0
H118 H 0.34 0.49196 0.9421 0.0
H119 H 0.27691 0.50109 0.88476 0.0
Dy120 Dy 0.55863 0.58497 0.52447 0.0
Dy121 Dy 0.61872 0.50553 0.51429 0.0
C122 C 0.57117 0.54799 0.451 0.0
O123 O 0.46035 0.57173 0.51648 0.0
O124 O 0.50567 0.51568 0.52154 0.0
O125 O 0.48343 0.63006 0.50552 0.0
O126 O 0.55457 0.63215 0.55121 0.0
O127 O 0.6456 0.51722 0.57014 0.0
O128 O 0.56314 0.56903 0.5761 0.0
O129 O 0.714 0.51897 0.51158 0.0
O130 O 0.67588 0.57421 0.53027 0.0
O131 O 0.63695 0.45679 0.52923 0.0
O132 O 0.67658 0.4622 0.48385 0.0
C133 C 0.45117 0.54359 0.51904 0.0
O134 O 0.58786 0.57071 0.47138 0.0
O135 O 0.56214 0.52403 0.46405 0.0
C136 C 0.52778 0.673 0.51313 0.0
C137 C 0.57976 0.71638 0.48995 0.0
C138 C 0.58824 0.68519 0.47225 0.0
C139 C 0.56281 0.66359 0.48386 0.0
C140 C 0.51617 0.70465 0.52991 0.0
C141 C 0.54195 0.72627 0.51839 0.0
C142 C 0.50868 0.64887 0.5277 0.0
C143 C 0.60896 0.54253 0.58942 0.0
C144 C 0.72683 0.54672 0.52114 0.0
C145 C 0.63456 0.41887 0.48188 0.0
C146 C 0.56267 0.37718 0.45117 0.0
C147 C 0.62171 0.36525 0.47503 0.0
C148 C 0.65736 0.38602 0.4903 0.0
C149 C 0.57799 0.43037 0.45676 0.0
C150 C 0.54254 0.40961 0.44137 0.0
C151 C 0.66529 0.44191 0.5016 0.0
H152 H 0.61647 0.67707 0.45005 0.0
H153 H 0.57247 0.63913 0.47063 0.0
H154 H 0.48954 0.71213 0.55265 0.0
H155 H 0.53541 0.74998 0.53281 0.0
H156 H 0.6379 0.34056 0.48348 0.0
H157 H 0.70073 0.3769 0.5098 0.0
H158 H 0.55956 0.45579 0.45003 0.0
H159 H 0.49769 0.41935 0.42283 0.0
C160 C 0.39437 0.67105 0.01351 0.0
C161 C 0.46729 0.65712 0.01899 0.0
C162 C 0.35948 0.70571 0.01332 0.0
C163 C 0.38241 0.78731 0.04229 0.0
H164 H 0.22112 0.82313 0.97685 0.0
C165 C 0.2556 0.93023 0.02858 0.0
C166 C 0.18386 0.94457 0.01852 0.0
C167 C 0.28922 0.89553 0.02859 0.0
C168 C 0.26537 0.81385 -0.00422 0.0
H169 H 0.55993 0.66976 0.02873 0.0
H170 H 0.4996 0.72967 0.02868 0.0
H171 H 0.27969 0.76324 0.9773 0.0
H172 H 0.09176 0.93262 0.00076 0.0
H173 H 0.14933 0.87266 0.00163 0.0
H174 H 0.36779 0.83765 0.06126 0.0
C175 C 0.46902 0.71384 0.02462 0.0
C176 C 0.29937 0.77914 -0.00405 0.0
C177 C 0.5039 0.67921 0.02444 0.0
C178 C 0.14699 0.92282 0.00857 0.0
C179 C 0.18051 0.88809 0.00884 0.0
C180 C 0.3481 0.82198 0.04235 0.0
C181 C 0.39609 0.72784 0.019 0.0
C182 C 0.35879 0.76515 0.0191 0.0
C183 C 0.25249 0.8736 0.01881 0.0
C184 C 0.28893 0.83611 0.01899 0.0
H185 H 0.36395 0.65513 0.00916 0.0
H186 H 0.30345 0.7152 0.00921 0.0
H187 H 0.42709 0.77785 0.06098 0.0
H188 H 0.28634 0.94585 0.03617 0.0
H189 H 0.34462 0.88597 0.03583 0.0
C190 C 0.65621 0.42307 0.0091 0.0
C191 C 0.6896 0.44564 0.02271 0.0
C192 C 0.69123 0.38851 0.00955 0.0
C193 C 0.86845 0.32269 0.01693 0.0
H194 H 0.77154 0.26758 0.03623 0.0
C195 C 1.0118 0.18006 0.0307 0.0
C196 C 0.97461 0.1584 0.02117 0.0
C197 C 0.97806 0.21484 0.03153 0.0
C198 C 0.79963 0.28225 0.0302 0.0
H199 H 0.78746 0.44863 0.04734 0.0
H200 H 0.84847 0.38861 0.0479 0.0
H201 H 0.71214 0.32733 0.03605 0.0
H202 H 0.87164 0.15731 0.00451 0.0
H203 H 0.81365 0.21716 0.00503 0.0
H204 H 0.95556 0.27769 0.01043 0.0
C205 C 0.79489 0.39766 0.03675 0.0
C206 C 0.76519 0.31689 0.03022 0.0
C207 C 0.75958 0.4323 0.03664 0.0
C208 C 0.90247 0.17287 0.01234 0.0
C209 C 0.86884 0.20758 0.01287 0.0
C210 C 0.90277 0.28798 0.01658 0.0
C211 C 0.76133 0.37507 0.02331 0.0
C212 C 0.79883 0.33784 0.02357 0.0
C213 C 0.90576 0.22942 0.02256 0.0
C214 C 0.86912 0.26693 0.02318 0.0
H215 H 0.60254 0.43208 -0.00194 0.0
H216 H 0.66338 0.37225 -0.00147 0.0
H217 H 0.89629 0.33763 0.01121 0.0
H218 H 1.06727 0.17016 0.0378 0.0
H219 H 1.009 0.23027 0.03971 0.0
C220 C 0.15202 0.26107 0.48807 0.0
C221 C 0.17358 0.22673 0.49047 0.0
C222 C 0.19408 0.27438 0.4755 0.0
C223 C 0.37514 0.25697 0.46571 0.0
H224 H 0.2977 0.32925 0.40646 0.0
C225 C 0.54542 0.32296 0.43338 0.0
C226 C 0.51727 0.35753 0.4404 0.0
C227 C 0.50322 0.30395 0.42975 0.0
C228 C 0.32006 0.309 0.4229 0.0
H229 H 0.25503 0.17931 0.48062 0.0
H230 H 0.32869 0.20264 0.45912 0.0
H231 H 0.22343 0.30195 0.42089 0.0
H232 H 0.42226 0.39946 0.44712 0.0
H233 H 0.34914 0.36649 0.44091 0.0
H234 H 0.4709 0.26477 0.469 0.0
C235 C 0.27973 0.21927 0.46733 0.0
C236 C 0.27756 0.29349 0.43124 0.0
C237 C 0.23772 0.20596 0.47983 0.0
C238 C 0.44547 0.37293 0.44128 0.0
C239 C 0.40342 0.35397 0.43769 0.0
C240 C 0.41752 0.27251 0.45747 0.0
C241 C 0.2584 0.25359 0.46509 0.0
C242 C 0.30442 0.26785 0.45336 0.0
C243 C 0.43224 0.31922 0.43316 0.0
C244 C 0.39006 0.29922 0.43666 0.0
H245 H 0.10306 0.27766 0.49629 0.0
H246 H 0.1769 0.30102 0.47459 0.0
H247 H 0.3971 0.23749 0.4831 0.0
H248 H 0.60045 0.3105 0.43205 0.0
H249 H 0.5266 0.27722 0.42569 0.0
C250 C 1.00864 0.8388 0.49718 0.0
C251 C 0.9894 0.87341 0.50274 0.0
C252 C 0.95817 0.82423 0.49063 0.0
C253 C 0.78001 0.83891 0.50375 0.0
H254 H 0.79633 0.76621 0.43341 0.0
C255 C 0.58561 0.77157 0.48229 0.0
C256 C 0.61675 0.73687 0.48127 0.0
C257 C 0.62418 0.79087 0.47847 0.0
C258 C 0.79113 0.78649 0.45313 0.0
H259 H 0.90222 0.91998 0.50512 0.0
H260 H 0.81436 0.89444 0.49426 0.0
H261 H 0.87942 0.79462 0.44087 0.0
H262 H 0.71198 0.6951 0.47447 0.0
H263 H 0.77896 0.7286 0.46793 0.0
H264 H 0.69338 0.83012 0.5169 0.0
C265 C 0.86841 0.87861 0.4953 0.0
C266 C 0.83872 0.80264 0.45744 0.0
C267 C 0.91877 0.89317 0.50172 0.0
C268 C 0.68614 0.72176 0.47481 0.0
C269 C 0.7246 0.74099 0.47103 0.0
C270 C 0.73262 0.82267 0.49955 0.0
C271 C 0.88763 0.84404 0.48957 0.0
C272 C 0.83432 0.82857 0.48322 0.0
C273 C 0.69453 0.77575 0.47364 0.0
C274 C 0.73855 0.79586 0.47466 0.0
H275 H 1.06267 0.82297 0.4981 0.0
H276 H 0.97437 0.79745 0.48684 0.0
H277 H 0.7758 0.85866 0.52401 0.0
H278 H 0.53194 0.78381 0.48682 0.0
H279 H 0.59946 0.81762 0.48012 0.0
C280 C 0.33223 1.04688 0.86962 0.0
C281 C 0.38109 1.03014 0.89577 0.0
C282 C 0.35316 1.0485 0.83824 0.0
C283 C 0.51169 1.02113 0.79248 0.0
H284 H 0.46668 0.11578 0.79324 0.0
C285 C 0.65324 0.10193 0.85769 0.0
C286 C 0.71838 0.07722 0.85503 0.0
C287 C 0.59818 0.10269 0.83251 0.0
C288 C 0.47982 0.08918 0.79217 0.0
H289 H 0.48775 0.99981 0.90949 0.0
H290 H 0.52498 1.00254 0.85534 0.0
H291 H 0.38393 0.09508 0.80928 0.0
H292 H 0.78134 1.0388 0.82095 0.0
H293 H 0.68582 1.04088 0.7762 0.0
H294 H 0.61113 1.01513 0.78067 0.0
C295 C 0.47037 1.01411 0.85817 0.0
C296 C 0.43166 0.0772 0.80098 0.0
C297 C 0.44952 1.01274 0.88945 0.0
C298 C 0.73068 0.05738 0.82403 0.0
C299 C 0.67575 0.05854 0.79847 0.0
C300 C 0.56049 1.03315 0.78467 0.0
C301 C 0.42319 1.03332 0.83274 0.0
C302 C 0.45109 1.04327 0.80541 0.0
C303 C 0.60745 0.07855 0.80427 0.0
C304 C 0.54837 0.06749 0.78939 0.0
H305 H 0.27893 0.06038 0.87423 0.0
H306 H 0.31559 0.06335 0.81922 0.0
H307 H 0.52637 0.99464 0.79372 0.0
H308 H 0.64258 0.11793 0.88111 0.0
H309 H 0.54722 0.11927 0.83805 0.0
C310 C 0.36039 1.02577 0.52803 0.0
C311 C 0.30037 0.05337 0.51899 0.0
C312 C 0.42878 1.02555 0.52787 0.0
C313 C 0.53246 0.08181 0.51927 0.0
H314 H 0.6858 0.99814 0.51575 0.0
C315 C 0.82229 0.07903 0.52957 0.0
C316 C 0.87665 0.05074 0.51775 0.0
C317 C 0.75396 0.07918 0.52968 0.0
C318 C 0.64443 1.02206 0.51644 0.0
H319 H 0.26951 0.10278 0.50245 0.0
H320 H 0.38633 0.10235 0.50139 0.0
H321 H 0.56916 0.99885 0.51498 0.0
H322 H 0.89734 0.99996 0.4966 0.0
H323 H 0.78009 1.00021 0.49602 0.0
H324 H 0.60737 0.10498 0.51951 0.0
C325 C 0.38147 0.08058 0.50939 0.0
C326 C 0.57575 1.02251 0.51651 0.0
C327 C 0.31297 0.08084 0.50977 0.0
C328 C 0.85842 1.02248 0.50605 0.0
C329 C 0.78983 1.02264 0.50596 0.0
C330 C 0.60107 0.08135 0.51901 0.0
C331 C 0.44197 0.05288 0.51842 0.0
C332 C 0.51718 0.05241 0.51804 0.0
C333 C 0.735 0.05105 0.51775 0.0
C334 C 0.6597 0.05147 0.51771 0.0
H335 H 0.35475 1.00393 0.5355 0.0
H336 H 0.47144 1.00363 0.53575 0.0
H337 H 0.49136 0.10577 0.52084 0.0
H338 H 0.83248 0.10149 0.53907 0.0
H339 H 0.71619 0.1017 0.53975 0.0
C340 C 0.82465 0.56555 0.87689 0.0
C341 C 0.86654 0.54437 0.90193 0.0
C342 C 0.84631 0.5631 0.84465 0.0
C343 C 0.99988 0.5163 0.79583 0.0
H344 H 0.9898 0.6055 0.78761 0.0
C345 C 0.17867 0.58523 0.84929 0.0
C346 C 0.23756 0.5563 0.85055 0.0
C347 C 0.12238 0.58691 0.82464 0.0
C348 C 0.99368 0.58027 0.78952 0.0
H349 H 0.9612 0.50256 0.91211 0.0
H350 H 1.00051 0.49902 0.8573 0.0
H351 H 0.89538 0.59707 0.80816 0.0
H352 H 0.29031 0.50951 0.823 0.0
H353 H 0.19343 0.51297 0.7788 0.0
H354 H 0.10206 0.49965 0.78254 0.0
C355 C 0.94991 0.51703 0.86146 0.0
C356 C 0.93842 0.57534 0.80083 0.0
C357 C 0.92784 0.51923 0.89336 0.0
C358 C 0.24412 0.53161 0.82325 0.0
C359 C 0.18817 0.53359 0.79805 0.0
C360 C 1.0563 0.52135 0.78608 0.0
C361 C 0.91097 0.53983 0.83709 0.0
C362 C 0.94524 0.54347 0.80833 0.0
C363 C 0.12382 0.55952 0.80075 0.0
C364 C 1.05741 0.55377 0.78786 0.0
H365 H 0.77596 0.58458 0.88256 0.0
H366 H 0.81406 0.58057 0.82639 0.0
H367 H 1.0042 0.49114 0.79859 0.0
H368 H 0.17261 0.60496 0.86971 0.0
H369 H 0.07536 0.60804 0.82766 0.0
C370 C 0.31734 0.57223 0.51294 0.0
C371 C 0.37701 0.5436 0.51907 0.0
C372 C 0.24888 0.57253 0.51307 0.0
C373 C 0.14423 0.51533 0.51646 0.0
H374 H 0.99309 0.59904 0.52672 0.0
C375 C 0.8542 0.51885 0.50783 0.0
C376 C 0.80098 0.54673 0.52115 0.0
C377 C 0.92256 0.51858 0.50752 0.0
C378 C 1.03383 0.57507 0.52414 0.0
H379 H 0.4073 0.49252 0.53043 0.0
H380 H 0.29059 0.49305 0.53159 0.0
H381 H 0.10959 0.59825 0.52738 0.0
H382 H 0.78233 0.59652 0.54496 0.0
H383 H 0.8996 0.59597 0.54541 0.0
H384 H 1.06895 0.4921 0.51454 0.0
C385 C 0.29559 0.51559 0.52583 0.0
C386 C 0.10244 0.57462 0.52398 0.0
C387 C 0.36407 0.51525 0.5254 0.0
C388 C 0.82035 0.57438 0.53427 0.0
C389 C 0.88897 0.57405 0.53426 0.0
C390 C 0.07572 0.51577 0.51688 0.0
C391 C 0.23539 0.54426 0.51965 0.0
C392 C 0.16022 0.54473 0.52004 0.0
C393 C 0.94265 0.54612 0.52083 0.0
C394 C 1.01787 0.54567 0.52064 0.0
H395 H 0.32329 0.59478 0.50774 0.0
H396 H 0.20642 0.5953 0.50746 0.0
H397 H 0.18463 0.4914 0.51291 0.0
H398 H 0.84301 0.49689 0.49716 0.0
H399 H 0.95935 0.49647 0.49618 0.0
C400 C 0.13103 1.03747 0.39425 0.0
C401 C 1.07079 0.05121 0.41079 0.0
C402 C 0.12764 1.03903 0.359 0.0
C403 C 1.01736 1.043 0.27856 0.0
H404 H 0.13505 0.08136 0.24653 0.0
C405 C 1.00617 0.05832 0.13442 0.0
C406 C 1.06819 0.05462 0.12206 0.0
C407 C 1.00335 0.05928 0.16964 0.0
C408 C 0.10262 0.07003 0.25484 0.0
H409 H 0.95958 0.07673 0.40333 0.0
H410 H 0.95351 0.07851 0.34124 0.0
H411 H 0.13673 0.07941 0.30778 0.0
H412 H 0.17631 1.04818 0.13682 0.0
H413 H 0.17245 1.04831 0.19772 0.0
H414 H 0.98528 1.03219 0.22583 0.0
C415 C 1.0033 0.06695 0.3558 0.0
C416 C 0.10331 0.06919 0.29001 0.0
C417 C 1.00685 0.06603 0.39126 0.0
C418 C 0.12747 0.05149 0.14556 0.0
C419 C 0.12503 0.05182 0.18063 0.0
C420 C 1.01761 1.04323 0.24329 0.0
C421 C 1.0638 0.05375 0.33946 0.0
C422 C 1.06094 0.05556 0.30218 0.0
C423 C 1.06284 0.05597 0.19328 0.0
C424 C 1.06059 0.05659 0.23089 0.0
H425 H 0.18107 1.026 0.40863 0.0
H426 H 0.17494 1.02852 0.34692 0.0
H427 H 0.98456 1.03215 0.28738 0.0
H428 H 0.95947 0.06101 0.11694 0.0
H429 H 0.9542 0.06306 0.17827 0.0
C430 C 0.14739 1.02971 0.89585 0.0
C431 C 0.09114 0.05245 0.91179 0.0
C432 C 0.15141 1.03072 0.86113 0.0
C433 C 1.04161 0.06628 0.78148 0.0
H434 H 0.21916 1.03698 0.74617 0.0
C435 C 0.07717 0.08434 0.64407 0.0
C436 C 0.10637 0.05418 0.62463 0.0
C437 C 0.07816 0.08502 0.67953 0.0
C438 C 0.16933 1.04523 0.75581 0.0
H439 H 0.99624 0.09484 0.9043 0.0
H440 H 1.00462 0.09776 0.84446 0.0
H441 H 0.21531 1.03751 0.80752 0.0
H442 H 0.16155 1.0013 0.62715 0.0
H443 H 0.16529 1.00278 0.68946 0.0
H444 H 0.99615 0.07505 0.72964 0.0
C445 C 1.04444 0.07815 0.85807 0.0
C446 C 0.16691 1.04532 0.79093 0.0
C447 C 1.03975 0.07667 0.89256 0.0
C448 C 0.1384 1.02487 0.64147 0.0
C449 C 0.14087 1.0257 0.67705 0.0
C450 C 1.04416 0.0669 0.74658 0.0
C451 C 0.09985 0.05493 0.84164 0.0
C452 C 0.10294 0.05563 0.8043 0.0
C453 C 0.10991 0.0557 0.69625 0.0
C454 C 0.10795 0.05615 0.73344 0.0
H455 H 0.18762 1.01065 0.91002 0.0
H456 H 0.19436 1.01202 0.84954 0.0
H457 H 0.9913 0.07361 0.79033 0.0
H458 H 1.05186 0.10729 0.63176 0.0
H459 H 1.05396 0.10842 0.69392 0.0
C460 C 0.54111 0.52667 0.39074 0.0
C461 C 0.5646 0.54908 0.41332 0.0
C462 C 0.53605 0.52763 0.35519 0.0
C463 C 0.53165 0.58194 0.28877 0.0
H464 H 0.583 0.49949 0.23084 0.0
C465 C 0.58729 0.57372 0.14889 0.0
C466 C 0.55986 0.55404 0.12426 0.0
C467 C 0.58322 0.57366 0.18377 0.0
C468 C 0.56777 0.52274 0.24664 0.0
H469 H 0.60154 0.58999 0.41618 0.0
H470 H 0.59446 0.59112 0.35459 0.0
H471 H 0.58484 0.49819 0.29233 0.0
H472 H 0.50647 0.5189 0.11715 0.0
H473 H 0.5 0.51864 0.17813 0.0
H474 H 0.51638 0.60635 0.24307 0.0
C475 C 0.57827 0.57327 0.36412 0.0
C476 C 0.56862 0.52204 0.28192 0.0
C477 C 0.58282 0.57247 0.39957 0.0
C478 C 0.52803 0.5344 0.13538 0.0
C479 C 0.52466 0.53408 0.17034 0.0
C480 C 0.53142 0.5826 0.25357 0.0
C481 C 0.5548 0.55089 0.34139 0.0
C482 C 0.55107 0.55163 0.30354 0.0
C483 C 0.55227 0.55369 0.19492 0.0
C484 C 0.54992 0.55301 0.23213 0.0
H485 H 0.52643 0.50841 0.40049 0.0
H486 H 0.51686 0.5103 0.33856 0.0
H487 H 0.51633 0.60529 0.30439 0.0
H488 H 0.61206 0.58919 0.14127 0.0
H489 H 0.60556 0.58881 0.2021 0.0
C490 C 0.59838 0.57053 0.64875 0.0
C491 C 0.6181 0.5411 0.62707 0.0
C492 C 0.60397 0.5694 0.68421 0.0
C493 C 0.59664 0.51891 0.74794 0.0
H494 H 0.67847 0.57297 0.81288 0.0
C495 C 0.66451 0.54039 0.90358 0.0
C496 C 0.59961 0.54644 0.91426 0.0
C497 C 0.67169 0.53819 0.86874 0.0
C498 C 0.65578 0.55762 0.79504 0.0
H499 H 0.65969 0.48739 0.62561 0.0
H500 H 0.6676 0.48547 0.68771 0.0
H501 H 0.6843 0.57181 0.7514 0.0
H502 H 0.49141 0.55473 0.89665 0.0
H503 H 0.50421 0.55064 0.83585 0.0
H504 H 0.56633 0.50545 0.7914 0.0
C505 C 0.64856 0.50936 0.67713 0.0
C506 C 0.65885 0.55708 0.75993 0.0
C507 C 0.64428 0.51049 0.64166 0.0
C508 C 0.54211 0.55012 0.88932 0.0
C509 C 0.54947 0.54757 0.85449 0.0
C510 C 0.59248 0.51991 0.78297 0.0
C511 C 0.62817 0.53883 0.6987 0.0
C512 C 0.62893 0.53787 0.73604 0.0
C513 C 0.61428 0.54167 0.84384 0.0
C514 C 0.62154 0.53947 0.80685 0.0
H515 H 0.57831 0.59451 0.6383 0.0
H516 H 0.58743 0.59247 0.70024 0.0
H517 H 0.5728 0.50405 0.73005 0.0
H518 H 0.70976 0.53747 0.92215 0.0
H519 H 0.72232 0.53328 0.86119 0.0
loop_
_geom_bond_atom_site_label_1
_geom_bond_atom_site_label_2
_geom_bond_distance
_geom_bond_site_symmetry_2
_ccdc_geom_bond_type
Dy0 O3 2.307 1_455 S
Dy0 O5 2.395 1_554 S
Dy0 O6 2.379 . S
Dy0 O8 2.339 . S
Dy0 O10 2.298 1_545 S
Dy0 O14 2.275 1_554 S
Dy0 C22 2.738 . S
Dy1 O4 2.298 1_565 S
Dy1 O7 2.275 1_556 S
Dy1 O9 2.307 1_655 S
Dy1 O11 2.395 1_556 S
Dy1 O12 2.379 . S
Dy1 O15 2.339 . S
Dy1 C31 2.738 . S
C2 O14 1.254 1_665 S
C2 O15 1.257 . S
O3 Dy0 2.307 1_655 S
O3 C13 1.269 . S
O4 Dy1 2.298 1_545 S
O4 C13 1.229 1_556 S
O5 Dy0 2.395 1_556 S
O5 C22 1.255 1_556 S
O6 Dy0 2.379 . S
O6 C22 1.249 . S
O7 Dy1 2.275 1_554 S
O7 C23 1.254 1_665 S
O8 Dy0 2.339 . S
O8 C23 1.257 . S
O9 Dy1 2.307 1_455 S
O9 C24 1.268 . S
O10 Dy0 2.298 1_565 S
O10 C24 1.231 1_554 S
O11 Dy1 2.395 1_554 S
O11 C31 1.255 1_554 S
O12 Dy1 2.379 . S
O12 C31 1.249 . S
C13 O3 1.269 . S
C13 O4 1.229 1_554 S
O14 Dy0 2.275 1_556 S
O14 C2 1.254 1_445 S
O15 Dy1 2.339 . S
O15 C2 1.257 . S
C16 C19 1.344 1_554 S
C16 C20 1.333 . S
C16 C22 1.516 1_565 S
C17 C18 1.304 1_554 S
C17 C21 1.323 . S
C18 C17 1.304 1_556 S
C18 C19 1.371 . S
C18 H32 0.930 . S
C19 C16 1.344 1_556 S
C19 C18 1.371 . S
C19 H33 0.931 . S
C20 C16 1.333 . S
C20 C21 1.431 . S
C20 H34 0.927 1_565 S
C21 C17 1.323 . S
C21 C20 1.431 . S
C21 H35 0.941 . S
C22 Dy0 2.738 . S
C22 O5 1.255 1_554 S
C22 O6 1.249 . S
C22 C16 1.516 1_545 S
C23 O7 1.254 1_445 S
C23 O8 1.257 . S
C24 O9 1.268 . S
C24 O10 1.231 1_556 S
C25 C28 1.344 1_556 S
C25 C29 1.328 . S
C25 C31 1.516 1_545 S
C26 C27 1.304 1_556 S
C26 C30 1.323 . S
C27 C26 1.304 1_554 S
C27 C28 1.371 . S
C27 H36 0.930 . S
C28 C25 1.344 1_554 S
C28 C27 1.371 . S
C28 H37 0.931 . S
C29 C25 1.328 . S
C29 C30 1.433 . S
C29 H38 0.931 1_545 S
C30 C26 1.323 . S
C30 C29 1.433 . S
C30 H39 0.933 . S
C31 Dy1 2.738 . S
C31 O11 1.255 1_556 S
C31 O12 1.249 . S
C31 C25 1.516 1_565 S
H32 C18 0.930 . S
H33 C19 0.931 . S
H34 C20 0.927 1_545 S
H35 C21 0.941 . S
H36 C27 0.930 . S
H37 C28 0.931 . S
H38 C29 0.931 1_565 S
H39 C30 0.933 . S
Dy40 O43 2.307 . S
Dy40 O45 2.395 1_655 S
Dy40 O46 2.379 1_655 S
Dy40 O48 2.341 1_655 S
Dy40 O50 2.298 1_655 S
Dy40 O54 2.275 . S
Dy40 C62 2.738 1_655 S
Dy41 O44 2.298 1_455 S
Dy41 O47 2.275 . S
Dy41 O49 2.307 . S
Dy41 O51 2.395 1_455 S
Dy41 O52 2.379 1_455 S
Dy41 O55 2.340 1_455 S
Dy41 C71 2.738 1_455 S
C42 O54 1.254 1_565 S
C42 O55 1.256 . S
O43 Dy40 2.307 . S
O43 C53 1.266 . S
O44 Dy41 2.298 1_655 S
O44 C53 1.236 1_565 S
O45 Dy40 2.395 1_455 S
O45 C62 1.255 . S
O46 Dy40 2.379 1_455 S
O46 C62 1.249 . S
O47 Dy41 2.275 . S
O47 C63 1.254 1_565 S
O48 Dy40 2.341 1_455 S
O48 C63 1.254 . S
O49 Dy41 2.307 . S
O49 C64 1.266 . S
O50 Dy40 2.298 1_455 S
O50 C64 1.236 1_545 S
O51 Dy41 2.395 1_655 S
O51 C71 1.255 . S
O52 Dy41 2.379 1_655 S
O52 C71 1.249 . S
C53 O43 1.266 . S
C53 O44 1.236 1_545 S
O54 Dy40 2.275 . S
O54 C42 1.254 1_545 S
O55 Dy41 2.340 1_655 S
O55 C42 1.256 . S
C56 C59 1.344 . S
C56 C60 1.328 . S
C56 C62 1.516 . S
C57 C58 1.304 . S
C57 C61 1.323 . S
C58 C57 1.304 . S
C58 C59 1.371 . S
C58 H72 0.930 . S
C59 C56 1.344 . S
C59 C58 1.371 . S
C59 H73 0.931 . S
C60 C56 1.328 . S
C60 C61 1.433 . S
C60 H74 0.931 . S
C61 C57 1.323 . S
C61 C60 1.433 . S
C61 H75 0.933 . S
C62 Dy40 2.738 1_455 S
C62 O45 1.255 . S
C62 O46 1.249 . S
C62 C56 1.516 . S
C63 O47 1.254 1_545 S
C63 O48 1.254 . S
C64 O49 1.266 . S
C64 O50 1.236 1_565 S
C65 C68 1.344 . S
C65 C69 1.328 . S
C65 C71 1.516 . S
C66 C67 1.304 . S
C66 C70 1.323 . S
C67 C66 1.304 . S
C67 C68 1.371 . S
C67 H76 0.930 . S
C68 C65 1.344 . S
C68 C67 1.371 . S
C68 H77 0.931 . S
C69 C65 1.328 . S
C69 C70 1.433 . S
C69 H78 0.931 . S
C70 C66 1.323 . S
C70 C69 1.433 . S
C70 H79 0.933 . S
C71 Dy41 2.738 1_655 S
C71 O51 1.255 . S
C71 O52 1.249 . S
C71 C65 1.516 . S
H72 C58 0.930 . S
H73 C59 0.931 . S
H74 C60 0.931 . S
H75 C61 0.933 . S
H76 C67 0.930 . S
H77 C68 0.931 . S
H78 C69 0.931 . S
H79 C70 0.933 . S
Dy80 O83 2.307 . S
Dy80 O85 2.395 1_554 S
Dy80 O86 2.379 . S
Dy80 O88 2.339 . S
Dy80 O90 2.298 . S
Dy80 O94 2.275 1_554 S
Dy80 C102 2.738 . S
Dy81 O84 2.298 . S
Dy81 O87 2.275 1_556 S
Dy81 O89 2.307 . S
Dy81 O91 2.395 1_556 S
Dy81 O92 2.379 . S
Dy81 O95 2.339 . S
Dy81 C111 2.738 . S
C82 O94 1.254 . S
C82 O95 1.257 . S
O83 Dy80 2.307 . S
O83 C93 1.269 . S
O84 Dy81 2.298 . S
O84 C93 1.229 1_556 S
O85 Dy80 2.395 1_556 S
O85 C102 1.255 1_556 S
O86 Dy80 2.379 . S
O86 C102 1.249 . S
O87 Dy81 2.275 1_554 S
O87 C103 1.254 . S
O88 Dy80 2.339 . S
O88 C103 1.257 . S
O89 Dy81 2.307 . S
O89 C104 1.268 . S
O90 Dy80 2.298 . S
O90 C104 1.231 1_554 S
O91 Dy81 2.395 1_554 S
O91 C111 1.255 1_554 S
O92 Dy81 2.379 . S
O92 C111 1.249 . S
C93 O83 1.269 . S
C93 O84 1.229 1_554 S
O94 Dy80 2.275 1_556 S
O94 C82 1.254 . S
O95 Dy81 2.339 . S
O95 C82 1.257 . S
C96 C99 1.344 1_554 S
C96 C100 1.328 . S
C96 C102 1.516 . S
C97 C98 1.304 1_554 S
C97 C101 1.323 . S
C98 C97 1.304 1_556 S
C98 C99 1.371 . S
C98 H112 0.930 . S
C99 C96 1.344 1_556 S
C99 C98 1.371 . S
C99 H113 0.931 . S
C100 C96 1.328 . S
C100 C101 1.433 . S
C100 H114 0.931 . S
C101 C97 1.323 . S
C101 C100 1.433 . S
C101 H115 0.933 . S
C102 Dy80 2.738 . S
C102 O85 1.255 1_554 S
C102 O86 1.249 . S
C102 C96 1.516 . S
C103 O87 1.254 . S
C103 O88 1.257 . S
C104 O89 1.268 . S
C104 O90 1.231 1_556 S
C105 C108 1.344 1_556 S
C105 C109 1.328 . S
C105 C111 1.516 . S
C106 C107 1.304 1_556 S
C106 C110 1.323 . S
C107 C106 1.304 1_554 S
C107 C108 1.371 . S
C107 H116 0.930 . S
C108 C105 1.344 1_554 S
C108 C107 1.371 . S
C108 H117 0.931 . S
C109 C105 1.328 . S
C109 C110 1.433 . S
C109 H118 0.931 . S
C110 C106 1.323 . S
C110 C109 1.433 . S
C110 H119 0.933 . S
C111 Dy81 2.738 . S
C111 O91 1.255 1_556 S
C111 O92 1.249 . S
C111 C105 1.516 . S
H112 C98 0.930 . S
H113 C99 0.931 . S
H114 C100 0.931 . S
H115 C101 0.933 . S
H116 C107 0.930 . S
H117 C108 0.931 . S
H118 C109 0.931 . S
H119 C110 0.933 . S
Dy120 O123 2.307 . S
Dy120 O125 2.395 . S
Dy120 O126 2.379 . S
Dy120 O128 2.339 . S
Dy120 O130 2.298 . S
Dy120 O134 2.275 . S
Dy120 C142 2.738 . S
Dy121 O124 2.298 . S
Dy121 O127 2.275 . S
Dy121 O129 2.307 . S
Dy121 O131 2.395 . S
Dy121 O132 2.379 . S
Dy121 O135 2.339 . S
Dy121 C151 2.738 . S
C122 O134 1.254 . S
C122 O135 1.257 . S
O123 Dy120 2.307 . S
O123 C133 1.266 . S
O124 Dy121 2.298 . S
O124 C133 1.236 . S
O125 Dy120 2.395 . S
O125 C142 1.255 . S
O126 Dy120 2.379 . S
O126 C142 1.249 . S
O127 Dy121 2.275 . S
O127 C143 1.254 . S
O128 Dy120 2.339 . S
O128 C143 1.257 . S
O129 Dy121 2.307 . S
O129 C144 1.266 . S
O130 Dy120 2.298 . S
O130 C144 1.236 . S
O131 Dy121 2.395 . S
O131 C151 1.255 . S
O132 Dy121 2.379 . S
O132 C151 1.249 . S
C133 O123 1.266 . S
C133 O124 1.236 . S
O134 Dy120 2.275 . S
O134 C122 1.254 . S
O135 Dy121 2.339 . S
O135 C122 1.257 . S
C136 C139 1.344 . S
C136 C140 1.328 . S
C136 C142 1.516 . S
C137 C138 1.304 . S
C137 C141 1.323 . S
C138 C137 1.304 . S
C138 C139 1.371 . S
C138 H152 0.930 . S
C139 C136 1.344 . S
C139 C138 1.371 . S
C139 H153 0.931 . S
C140 C136 1.328 . S
C140 C141 1.433 . S
C140 H154 0.931 . S
C141 C137 1.323 . S
C141 C140 1.433 . S
C141 H155 0.933 . S
C142 Dy120 2.738 . S
C142 O125 1.255 . S
C142 O126 1.249 . S
C142 C136 1.516 . S
C143 O127 1.254 . S
C143 O128 1.257 . S
C144 O129 1.266 . S
C144 O130 1.236 . S
C145 C148 1.344 . S
C145 C149 1.328 . S
C145 C151 1.516 . S
C146 C147 1.304 . S
C146 C150 1.323 . S
C147 C146 1.304 . S
C147 C148 1.371 . S
C147 H156 0.930 . S
C148 C145 1.344 . S
C148 C147 1.371 . S
C148 H157 0.931 . S
C149 C145 1.328 . S
C149 C150 1.433 . S
C149 H158 0.931 . S
C150 C146 1.323 . S
C150 C149 1.433 . S
C150 H159 0.933 . S
C151 Dy121 2.738 . S
C151 O131 1.255 . S
C151 O132 1.249 . S
C151 C145 1.516 . S
H152 C138 0.930 . S
H153 C139 0.931 . S
H154 C140 0.931 . S
H155 C141 0.933 . S
H156 C147 0.930 . S
H157 C148 0.931 . S
H158 C149 0.931 . S
H159 C150 0.933 . S
C160 C161 1.349 1_556 S
C160 C162 1.327 . S
C160 H185 0.950 . S
C161 C160 1.349 1_554 S
C161 C177 1.349 . S
C162 C160 1.327 . S
C162 C181 1.429 1_556 S
C162 H186 0.950 . S
C163 C180 1.574 . S
C163 C182 1.381 . S
C163 H187 0.949 . S
H164 C168 0.949 . S
C165 C166 1.349 1_554 S
C165 C167 1.327 . S
C165 H188 0.950 . S
C166 C165 1.349 1_556 S
C166 C178 1.349 . S
C167 C165 1.327 . S
C167 C183 1.429 1_554 S
C167 H189 0.950 . S
C168 H164 0.949 . S
C168 C176 1.574 . S
C168 C184 1.377 . S
H169 C177 0.950 . S
H170 C175 0.950 . S
H171 C176 0.949 . S
H172 C178 0.950 . S
H173 C179 0.950 . S
H174 C180 0.949 . S
C175 H170 0.950 . S
C175 C177 1.327 . S
C175 C181 1.429 . S
C176 C168 1.574 . S
C176 H171 0.949 . S
C176 C182 1.356 1_556 S
C177 C161 1.349 . S
C177 H169 0.950 . S
C177 C175 1.327 . S
C178 C166 1.349 . S
C178 H172 0.950 . S
C178 C179 1.327 . S
C179 H173 0.950 . S
C179 C178 1.327 . S
C179 C183 1.429 . S
C180 C163 1.574 . S
C180 H174 0.949 . S
C180 C184 1.360 1_554 S
C181 C162 1.429 1_554 S
C181 C175 1.429 . S
C181 C182 1.523 . S
C182 C163 1.381 . S
C182 C176 1.356 1_554 S
C182 C181 1.523 . S
C183 C167 1.429 1_556 S
C183 C179 1.429 . S
C183 C184 1.523 . S
C184 C168 1.377 . S
C184 C180 1.360 1_556 S
C184 C183 1.523 . S
H185 C160 0.950 . S
H186 C162 0.950 . S
H187 C163 0.949 . S
H188 C165 0.950 . S
H189 C167 0.950 . S
C190 C191 1.349 1_554 S
C190 C192 1.327 . S
C190 H215 0.950 . S
C191 C190 1.349 1_556 S
C191 C207 1.349 . S
C192 C190 1.327 . S
C192 C211 1.429 1_554 S
C192 H216 0.950 . S
C193 C210 1.574 . S
C193 C212 1.378 . S
C193 H217 0.949 . S
H194 C198 0.949 . S
C195 C196 1.349 1_556 S
C195 C197 1.327 . S
C195 H218 0.950 . S
C196 C195 1.349 1_554 S
C196 C208 1.349 . S
C197 C195 1.327 . S
C197 C213 1.429 1_556 S
C197 H219 0.950 . S
C198 H194 0.949 . S
C198 C206 1.574 . S
C198 C214 1.383 . S
H199 C207 0.950 . S
H200 C205 0.950 . S
H201 C206 0.949 . S
H202 C208 0.950 . S
H203 C209 0.950 . S
H204 C210 0.949 . S
C205 H200 0.950 . S
C205 C207 1.327 . S
C205 C211 1.429 . S
C206 C198 1.574 . S
C206 H201 0.949 . S
C206 C212 1.359 1_554 S
C207 C191 1.349 . S
C207 H199 0.950 . S
C207 C205 1.327 . S
C208 C196 1.349 . S
C208 H202 0.950 . S
C208 C209 1.327 . S
C209 H203 0.950 . S
C209 C208 1.327 . S
C209 C213 1.429 . S
C210 C193 1.574 . S
C210 H204 0.949 . S
C210 C214 1.355 1_556 S
C211 C192 1.429 1_556 S
C211 C205 1.429 . S
C211 C212 1.523 . S
C212 C193 1.378 . S
C212 C206 1.359 1_556 S
C212 C211 1.523 . S
C213 C197 1.429 1_554 S
C213 C209 1.429 . S
C213 C214 1.523 . S
C214 C198 1.383 . S
C214 C210 1.355 1_554 S
C214 C213 1.523 . S
H215 C190 0.950 . S
H216 C192 0.950 . S
H217 C193 0.949 . S
H218 C195 0.950 . S
H219 C197 0.950 . S
C220 C221 1.349 . S
C220 C222 1.327 . S
C220 H245 0.950 . S
C221 C220 1.349 . S
C221 C237 1.349 . S
C222 C220 1.327 . S
C222 C241 1.429 . S
C222 H246 0.950 . S
C223 C240 1.574 . S
C223 C242 1.368 . S
C223 H247 0.949 . S
H224 C228 0.949 . S
C225 C226 1.349 . S
C225 C227 1.327 . S
C225 H248 0.950 . S
C226 C225 1.349 . S
C226 C238 1.349 . S
C227 C225 1.327 . S
C227 C243 1.429 . S
C227 H249 0.950 . S
C228 H224 0.949 . S
C228 C236 1.574 . S
C228 C244 1.368 . S
H229 C237 0.950 . S
H230 C235 0.950 . S
H231 C236 0.949 . S
H232 C238 0.950 . S
H233 C239 0.950 . S
H234 C240 0.949 . S
C235 H230 0.950 . S
C235 C237 1.327 . S
C235 C241 1.429 . S
C236 C228 1.574 . S
C236 H231 0.949 . S
C236 C242 1.368 . S
C237 C221 1.349 . S
C237 H229 0.950 . S
C237 C235 1.327 . S
C238 C226 1.349 . S
C238 H232 0.950 . S
C238 C239 1.327 . S
C239 H233 0.950 . S
C239 C238 1.327 . S
C239 C243 1.429 . S
C240 C223 1.574 . S
C240 H234 0.949 . S
C240 C244 1.368 . S
C241 C222 1.429 . S
C241 C235 1.429 . S
C241 C242 1.523 . S
C242 C223 1.368 . S
C242 C236 1.368 . S
C242 C241 1.523 . S
C243 C227 1.429 . S
C243 C239 1.429 . S
C243 C244 1.523 . S
C244 C228 1.368 . S
C244 C240 1.368 . S
C244 C243 1.523 . S
H245 C220 0.950 . S
H246 C222 0.950 . S
H247 C223 0.949 . S
H248 C225 0.950 . S
H249 C227 0.950 . S
C250 C251 1.349 . S
C250 C252 1.327 . S
C250 H275 0.950 . S
C251 C250 1.349 . S
C251 C267 1.349 . S
C252 C250 1.327 . S
C252 C271 1.429 . S
C252 H276 0.950 . S
C253 C270 1.574 . S
C253 C272 1.368 . S
C253 H277 0.949 . S
H254 C258 0.949 . S
C255 C256 1.349 . S
C255 C257 1.327 . S
C255 H278 0.950 . S
C256 C255 1.349 . S
C256 C268 1.349 . S
C257 C255 1.327 . S
C257 C273 1.429 . S
C257 H279 0.950 . S
C258 H254 0.949 . S
C258 C266 1.574 . S
C258 C274 1.368 . S
H259 C267 0.950 . S
H260 C265 0.950 . S
H261 C266 0.949 . S
H262 C268 0.950 . S
H263 C269 0.950 . S
H264 C270 0.949 . S
C265 H260 0.950 . S
C265 C267 1.327 . S
C265 C271 1.429 . S
C266 C258 1.574 . S
C266 H261 0.949 . S
C266 C272 1.368 . S
C267 C251 1.349 . S
C267 H259 0.950 . S
C267 C265 1.327 . S
C268 C256 1.349 . S
C268 H262 0.950 . S
C268 C269 1.327 . S
C269 H263 0.950 . S
C269 C268 1.327 . S
C269 C273 1.429 . S
C270 C253 1.574 . S
C270 H264 0.949 . S
C270 C274 1.368 . S
C271 C252 1.429 . S
C271 C265 1.429 . S
C271 C272 1.523 . S
C272 C253 1.368 . S
C272 C266 1.368 . S
C272 C271 1.523 . S
C273 C257 1.429 . S
C273 C269 1.429 . S
C273 C274 1.523 . S
C274 C258 1.368 . S
C274 C270 1.368 . S
C274 C273 1.523 . S
H275 C250 0.950 . S
H276 C252 0.950 . S
H277 C253 0.949 . S
H278 C255 0.950 . S
H279 C257 0.950 . S
C280 C281 1.349 1_556 S
C280 C282 1.327 . S
C280 H305 0.950 . S
C281 C280 1.349 1_554 S
C281 C297 1.349 . S
C282 C280 1.327 . S
C282 C301 1.429 1_556 S
C282 H306 0.950 . S
C283 C300 1.574 1_565 S
C283 C302 1.368 . S
C283 H307 0.949 . S
H284 C288 0.949 . S
C285 C286 1.349 1_554 S
C285 C287 1.327 . S
C285 H308 0.950 . S
C286 C285 1.349 1_556 S
C286 C298 1.349 . S
C287 C285 1.327 . S
C287 C303 1.429 1_554 S
C287 H309 0.950 . S
C288 H284 0.949 . S
C288 C296 1.574 1_545 S
C288 C304 1.368 . S
H289 C297 0.950 . S
H290 C295 0.950 . S
H291 C296 0.949 . S
H292 C298 0.950 . S
H293 C299 0.950 . S
H294 C300 0.949 . S
C295 H290 0.950 . S
C295 C297 1.327 . S
C295 C301 1.429 . S
C296 C288 1.574 1_565 S
C296 H291 0.949 . S
C296 C302 1.368 1_556 S
C297 C281 1.349 . S
C297 H289 0.950 . S
C297 C295 1.327 . S
C298 C286 1.349 . S
C298 H292 0.950 . S
C298 C299 1.327 . S
C299 H293 0.950 . S
C299 C298 1.327 . S
C299 C303 1.429 . S
C300 C283 1.574 1_545 S
C300 H294 0.949 . S
C300 C304 1.368 1_554 S
C301 C282 1.429 1_554 S
C301 C295 1.429 . S
C301 C302 1.523 . S
C302 C283 1.368 . S
C302 C296 1.368 1_554 S
C302 C301 1.523 . S
C303 C287 1.429 1_556 S
C303 C299 1.429 . S
C303 C304 1.523 . S
C304 C288 1.368 . S
C304 C300 1.368 1_556 S
C304 C303 1.523 . S
H305 C280 0.950 . S
H306 C282 0.950 . S
H307 C283 0.949 . S
H308 C285 0.950 . S
H309 C287 0.950 . S
C310 C311 1.349 . S
C310 C312 1.327 . S
C310 H335 0.950 . S
C311 C310 1.349 . S
C311 C327 1.349 1_565 S
C312 C310 1.327 . S
C312 C331 1.429 . S
C312 H336 0.950 . S
C313 C330 1.574 . S
C313 C332 1.354 1_545 S
C313 H337 0.949 . S
H314 C318 0.949 . S
C315 C316 1.349 . S
C315 C317 1.327 . S
C315 H338 0.950 . S
C316 C315 1.349 . S
C316 C328 1.349 1_545 S
C317 C315 1.327 . S
C317 C333 1.429 . S
C317 H339 0.950 . S
C318 H314 0.949 . S
C318 C326 1.574 . S
C318 C334 1.368 1_565 S
H319 C327 0.950 . S
H320 C325 0.950 . S
H321 C326 0.949 . S
H322 C328 0.950 . S
H323 C329 0.950 . S
H324 C330 0.949 . S
C325 H320 0.950 . S
C325 C327 1.327 . S
C325 C331 1.429 1_545 S
C326 C318 1.574 . S
C326 H321 0.949 . S
C326 C332 1.379 . S
C327 C311 1.349 1_545 S
C327 H319 0.950 . S
C327 C325 1.327 . S
C328 C316 1.349 1_565 S
C328 H322 0.950 . S
C328 C329 1.327 . S
C329 H323 0.950 . S
C329 C328 1.327 . S
C329 C333 1.429 1_565 S
C330 C313 1.574 . S
C330 H324 0.949 . S
C330 C334 1.368 . S
C331 C312 1.429 . S
C331 C325 1.429 1_565 S
C331 C332 1.528 . S
C332 C313 1.354 1_565 S
C332 C326 1.379 . S
C332 C331 1.528 . S
C333 C317 1.429 . S
C333 C329 1.429 1_545 S
C333 C334 1.523 . S
C334 C318 1.368 1_545 S
C334 C330 1.368 . S
C334 C333 1.523 . S
H335 C310 0.950 . S
H336 C312 0.950 . S
H337 C313 0.949 . S
H338 C315 0.950 . S
H339 C317 0.950 . S
C340 C341 1.349 1_556 S
C340 C342 1.327 . S
C340 H365 0.950 . S
C341 C340 1.349 1_554 S
C341 C357 1.349 . S
C342 C340 1.327 . S
C342 C361 1.429 1_556 S
C342 H366 0.950 . S
C343 C360 1.574 1_655 S
C343 C362 1.368 . S
C343 H367 0.949 . S
H344 C348 0.949 . S
C345 C346 1.349 1_554 S
C345 C347 1.327 . S
C345 H368 0.950 . S
C346 C345 1.349 1_556 S
C346 C358 1.349 . S
C347 C345 1.327 . S
C347 C363 1.429 1_554 S
C347 H369 0.950 . S
C348 H344 0.949 . S
C348 C356 1.574 1_455 S
C348 C364 1.368 . S
H349 C357 0.950 . S
H350 C355 0.950 . S
H351 C356 0.949 . S
H352 C358 0.950 . S
H353 C359 0.950 . S
H354 C360 0.949 . S
C355 H350 0.950 . S
C355 C357 1.327 . S
C355 C361 1.429 . S
C356 C348 1.574 1_655 S
C356 H351 0.949 . S
C356 C362 1.368 1_556 S
C357 C341 1.349 . S
C357 H349 0.950 . S
C357 C355 1.327 . S
C358 C346 1.349 . S
C358 H352 0.950 . S
C358 C359 1.327 . S
C359 H353 0.950 . S
C359 C358 1.327 . S
C359 C363 1.429 . S
C360 C343 1.574 1_455 S
C360 H354 0.949 . S
C360 C364 1.368 1_554 S
C361 C342 1.429 1_554 S
C361 C355 1.429 . S
C361 C362 1.523 . S
C362 C343 1.368 . S
C362 C356 1.368 1_554 S
C362 C361 1.523 . S
C363 C347 1.429 1_556 S
C363 C359 1.429 . S
C363 C364 1.523 . S
C364 C348 1.368 . S
C364 C360 1.368 1_556 S
C364 C363 1.523 . S
H365 C340 0.950 . S
H366 C342 0.950 . S
H367 C343 0.949 . S
H368 C345 0.950 . S
H369 C347 0.950 . S
C370 C371 1.349 . S
C370 C372 1.327 . S
C370 H395 0.950 . S
C371 C370 1.349 . S
C371 C387 1.349 . S
C372 C370 1.327 . S
C372 C391 1.429 . S
C372 H396 0.950 . S
C373 C390 1.574 1_455 S
C373 C392 1.368 . S
C373 H397 0.949 . S
H374 C378 0.949 . S
C375 C376 1.349 . S
C375 C377 1.327 . S
C375 H398 0.950 . S
C376 C375 1.349 . S
C376 C388 1.349 . S
C377 C375 1.327 . S
C377 C393 1.429 . S
C377 H399 0.950 . S
C378 H374 0.949 . S
C378 C386 1.574 1_655 S
C378 C394 1.368 . S
H379 C387 0.950 . S
H380 C385 0.950 . S
H381 C386 0.949 . S
H382 C388 0.950 . S
H383 C389 0.950 . S
H384 C390 0.949 . S
C385 H380 0.950 . S
C385 C387 1.327 . S
C385 C391 1.429 . S
C386 C378 1.574 1_455 S
C386 H381 0.949 . S
C386 C392 1.368 . S
C387 C371 1.349 . S
C387 H379 0.950 . S
C387 C385 1.327 . S
C388 C376 1.349 . S
C388 H382 0.950 . S
C388 C389 1.327 . S
C389 H383 0.950 . S
C389 C388 1.327 . S
C389 C393 1.429 . S
C390 C373 1.574 1_655 S
C390 H384 0.949 . S
C390 C394 1.368 . S
C391 C372 1.429 . S
C391 C385 1.429 . S
C391 C392 1.523 . S
C392 C373 1.368 . S
C392 C386 1.368 . S
C392 C391 1.523 . S
C393 C377 1.429 . S
C393 C389 1.429 . S
C393 C394 1.523 . S
C394 C378 1.368 . S
C394 C390 1.368 . S
C394 C393 1.523 . S
H395 C370 0.950 . S
H396 C372 0.950 . S
H397 C373 0.949 . S
H398 C375 0.950 . S
H399 C377 0.950 . S
C400 C401 1.349 1_455 S
C400 C402 1.327 . S
C400 H425 0.950 . S
C401 C400 1.349 1_655 S
C401 C417 1.349 1_545 S
C402 C400 1.327 . S
C402 C421 1.429 1_455 S
C402 H426 0.950 . S
C403 C420 1.574 . S
C403 C422 1.368 1_565 S
C403 H427 0.949 . S
H404 C408 0.949 . S
C405 C406 1.358 1_565 S
C405 C407 1.327 . S
C405 H428 0.950 . S
C406 C405 1.358 1_545 S
C406 C418 1.342 1_655 S
C407 C405 1.327 . S
C407 C423 1.439 1_565 S
C407 H429 0.950 . S
C408 H404 0.949 . S
C408 C416 1.574 . S
C408 C424 1.368 1_455 S
H409 C417 0.950 . S
H410 C415 0.950 . S
H411 C416 0.949 . S
H412 C418 0.950 . S
H413 C419 0.950 . S
H414 C420 0.949 . S
C415 H410 0.950 . S
C415 C417 1.327 . S
C415 C421 1.429 1_565 S
C416 C408 1.574 . S
C416 H411 0.949 . S
C416 C422 1.368 1_455 S
C417 C401 1.349 1_565 S
C417 H409 0.950 . S
C417 C415 1.327 . S
C418 C406 1.342 1_455 S
C418 H412 0.950 . S
C418 C419 1.327 . S
C419 H413 0.950 . S
C419 C418 1.327 . S
C419 C423 1.414 1_455 S
C420 C403 1.574 . S
C420 H414 0.949 . S
C420 C424 1.368 1_565 S
C421 C402 1.429 1_655 S
C421 C415 1.429 1_545 S
C421 C422 1.523 . S
C422 C403 1.368 1_545 S
C422 C416 1.368 1_655 S
C422 C421 1.523 . S
C423 C407 1.439 1_545 S
C423 C419 1.414 1_655 S
C423 C424 1.527 . S
C424 C408 1.368 1_655 S
C424 C420 1.368 1_545 S
C424 C423 1.527 . S
H425 C400 0.950 . S
H426 C402 0.950 . S
H427 C403 0.949 . S
H428 C405 0.950 . S
H429 C407 0.950 . S
C430 C431 1.349 1_545 S
C430 C432 1.327 . S
C430 H455 0.950 . S
C431 C430 1.349 1_565 S
C431 C447 1.349 1_455 S
C432 C430 1.327 . S
C432 C451 1.429 1_545 S
C432 H456 0.950 . S
C433 C450 1.574 . S
C433 C452 1.368 1_655 S
C433 H457 0.949 . S
H434 C438 0.949 . S
C435 C436 1.349 1_655 S
C435 C437 1.327 . S
C435 H458 0.950 . S
C436 C435 1.349 1_455 S
C436 C448 1.349 1_565 S
C437 C435 1.327 . S
C437 C453 1.429 1_655 S
C437 H459 0.950 . S
C438 H434 0.949 . S
C438 C446 1.574 . S
C438 C454 1.368 1_545 S
H439 C447 0.950 . S
H440 C445 0.950 . S
H441 C446 0.949 . S
H442 C448 0.950 . S
H443 C449 0.950 . S
H444 C450 0.949 . S
C445 H440 0.950 . S
C445 C447 1.327 . S
C445 C451 1.429 1_655 S
C446 C438 1.574 . S
C446 H441 0.949 . S
C446 C452 1.368 1_545 S
C447 C431 1.349 1_655 S
C447 H439 0.950 . S
C447 C445 1.327 . S
C448 C436 1.349 1_545 S
C448 H442 0.950 . S
C448 C449 1.327 . S
C449 H443 0.950 . S
C449 C448 1.327 . S
C449 C453 1.429 1_545 S
C450 C433 1.574 . S
C450 H444 0.949 . S
C450 C454 1.368 1_655 S
C451 C432 1.429 1_565 S
C451 C445 1.429 1_455 S
C451 C452 1.523 . S
C452 C433 1.368 1_455 S
C452 C446 1.368 1_565 S
C452 C451 1.523 . S
C453 C437 1.429 1_455 S
C453 C449 1.429 1_565 S
C453 C454 1.523 . S
C454 C438 1.368 1_565 S
C454 C450 1.368 1_455 S
C454 C453 1.523 . S
H455 C430 0.950 . S
H456 C432 0.950 . S
H457 C433 0.949 . S
H458 C435 0.950 . S
H459 C437 0.950 . S
C460 C461 1.349 . S
C460 C462 1.327 . S
C460 H485 0.950 . S
C461 C460 1.349 . S
C461 C477 1.349 . S
C462 C460 1.327 . S
C462 C481 1.429 . S
C462 H486 0.950 . S
C463 C480 1.574 . S
C463 C482 1.368 . S
C463 H487 0.949 . S
H464 C468 0.949 . S
C465 C466 1.349 . S
C465 C467 1.327 . S
C465 H488 0.950 . S
C466 C465 1.349 . S
C466 C478 1.349 . S
C467 C465 1.327 . S
C467 C483 1.429 . S
C467 H489 0.950 . S
C468 H464 0.949 . S
C468 C476 1.574 . S
C468 C484 1.368 . S
H469 C477 0.950 . S
H470 C475 0.950 . S
H471 C476 0.949 . S
H472 C478 0.950 . S
H473 C479 0.950 . S
H474 C480 0.949 . S
C475 H470 0.950 . S
C475 C477 1.327 . S
C475 C481 1.429 . S
C476 C468 1.574 . S
C476 H471 0.949 . S
C476 C482 1.368 . S
C477 C461 1.349 . S
C477 H469 0.950 . S
C477 C475 1.327 . S
C478 C466 1.349 . S
C478 H472 0.950 . S
C478 C479 1.327 . S
C479 H473 0.950 . S
C479 C478 1.327 . S
C479 C483 1.429 . S
C480 C463 1.574 . S
C480 H474 0.949 . S
C480 C484 1.368 . S
C481 C462 1.429 . S
C481 C475 1.429 . S
C481 C482 1.523 . S
C482 C463 1.368 . S
C482 C476 1.368 . S
C482 C481 1.523 . S
C483 C467 1.429 . S
C483 C479 1.429 . S
C483 C484 1.523 . S
C484 C468 1.368 . S
C484 C480 1.368 . S
C484 C483 1.523 . S
H485 C460 0.950 . S
H486 C462 0.950 . S
H487 C463 0.949 . S
H488 C465 0.950 . S
H489 C467 0.950 . S
C490 C491 1.349 . S
C490 C492 1.327 . S
C490 H515 0.950 . S
C491 C490 1.349 . S
C491 C507 1.349 . S
C492 C490 1.327 . S
C492 C511 1.429 . S
C492 H516 0.950 . S
C493 C510 1.574 . S
C493 C512 1.368 . S
C493 H517 0.949 . S
H494 C498 0.949 . S
C495 C496 1.349 . S
C495 C497 1.327 . S
C495 H518 0.950 . S
C496 C495 1.349 . S
C496 C508 1.349 . S
C497 C495 1.327 . S
C497 C513 1.429 . S
C497 H519 0.950 . S
C498 H494 0.949 . S
C498 C506 1.574 . S
C498 C514 1.368 . S
H499 C507 0.950 . S
H500 C505 0.950 . S
H501 C506 0.949 . S
H502 C508 0.950 . S
H503 C509 0.950 . S
H504 C510 0.949 . S
C505 H500 0.950 . S
C505 C507 1.327 . S
C505 C511 1.429 . S
C506 C498 1.574 . S
C506 H501 0.949 . S
C506 C512 1.368 . S
C507 C491 1.349 . S
C507 H499 0.950 . S
C507 C505 1.327 . S
C508 C496 1.349 . S
C508 H502 0.950 . S
C508 C509 1.327 . S
C509 H503 0.950 . S
C509 C508 1.327 . S
C509 C513 1.429 . S
C510 C493 1.574 . S
C510 H504 0.949 . S
C510 C514 1.368 . S
C511 C492 1.429 . S
C511 C505 1.429 . S
C511 C512 1.523 . S
C512 C493 1.368 . S
C512 C506 1.368 . S
C512 C511 1.523 . S
C513 C497 1.429 . S
C513 C509 1.429 . S
C513 C514 1.523 . S
C514 C498 1.368 . S
C514 C510 1.368 . S
C514 C513 1.523 . S
H515 C490 0.950 . S
H516 C492 0.950 . S
H517 C493 0.949 . S
H518 C495 0.950 . S
H519 C497 0.950 . S
C161 C93 3.544 . S
C166 C24 3.543 . S
C191 C104 3.543 . S
C196 C13 3.544 . S
C221 C57 0.245 . S
C226 C146 0.245 . S
C251 C66 0.245 . S
C256 C137 0.245 . S
C281 C17 1.296 . S
C286 C26 1.296 . S
C311 C64 4.660 . S
C316 C53 4.660 . S
C341 C97 1.296 . S
C346 C106 1.296 . S
C371 C133 4.660 . S
C376 C144 4.660 . S
C401 C42 1.466 1_545 S
C406 C23 1.464 1_655 S
C431 C2 1.471 1_455 S
C436 C63 1.468 1_565 S
C461 C122 1.466 . S
C466 C103 1.470 . S
C491 C143 1.466 . S
C496 C82 1.472 . S
